# Generated by pormake.
# Topology ukd, (4)-cn, num edge types: 1
# Building blocks:
#     Node 0, Type 0, BuildingBlock: GALJAG_clean_sbu_0, # of connection points: 4
#     Node 1, Type 0, BuildingBlock: GALJAG_clean_sbu_0, # of connection points: 4
#     Node 2, Type 0, BuildingBlock: GALJAG_clean_sbu_0, # of connection points: 4
#     Node 3, Type 0, BuildingBlock: GALJAG_clean_sbu_0, # of connection points: 4
#     Node 4, Type 0, BuildingBlock: GALJAG_clean_sbu_0, # of connection points: 4
#     Node 5, Type 0, BuildingBlock: GALJAG_clean_sbu_0, # of connection points: 4
#     Node 6, Type 0, BuildingBlock: GALJAG_clean_sbu_0, # of connection points: 4
#     Node 7, Type 0, BuildingBlock: GALJAG_clean_sbu_0, # of connection points: 4
#     Node 8, Type 0, BuildingBlock: GALJAG_clean_sbu_0, # of connection points: 4
#     Node 9, Type 0, BuildingBlock: GALJAG_clean_sbu_0, # of connection points: 4
#     Node 10, Type 0, BuildingBlock: GALJAG_clean_sbu_0, # of connection points: 4
#     Node 11, Type 0, BuildingBlock: GALJAG_clean_sbu_0, # of connection points: 4
#     Node 12, Type 0, BuildingBlock: GALJAG_clean_sbu_0, # of connection points: 4
#     Node 13, Type 0, BuildingBlock: GALJAG_clean_sbu_0, # of connection points: 4
#     Node 14, Type 0, BuildingBlock: GALJAG_clean_sbu_0, # of connection points: 4
#     Node 15, Type 0, BuildingBlock: GALJAG_clean_sbu_0, # of connection points: 4
#     Node 16, Type 0, BuildingBlock: GALJAG_clean_sbu_0, # of connection points: 4
#     Node 17, Type 0, BuildingBlock: GALJAG_clean_sbu_0, # of connection points: 4
#     Node 18, Type 0, BuildingBlock: GALJAG_clean_sbu_0, # of connection points: 4
#     Node 19, Type 0, BuildingBlock: GALJAG_clean_sbu_0, # of connection points: 4
#     Node 20, Type 0, BuildingBlock: GALJAG_clean_sbu_0, # of connection points: 4
#     Node 21, Type 0, BuildingBlock: GALJAG_clean_sbu_0, # of connection points: 4
#     Node 22, Type 0, BuildingBlock: GALJAG_clean_sbu_0, # of connection points: 4
#     Node 23, Type 0, BuildingBlock: GALJAG_clean_sbu_0, # of connection points: 4
#     Node 24, Type 0, BuildingBlock: GALJAG_clean_sbu_0, # of connection points: 4
#     Node 25, Type 0, BuildingBlock: GALJAG_clean_sbu_0, # of connection points: 4
#     Node 26, Type 0, BuildingBlock: GALJAG_clean_sbu_0, # of connection points: 4
#     Node 27, Type 0, BuildingBlock: GALJAG_clean_sbu_0, # of connection points: 4
#     Node 28, Type 0, BuildingBlock: GALJAG_clean_sbu_0, # of connection points: 4
#     Node 29, Type 0, BuildingBlock: GALJAG_clean_sbu_0, # of connection points: 4
#     Node 30, Type 0, BuildingBlock: GALJAG_clean_sbu_0, # of connection points: 4
#     Node 31, Type 0, BuildingBlock: GALJAG_clean_sbu_0, # of connection points: 4
#     Edge 32, Type (0, 0), BuildingBlock: ZUJKAS_clean_linker_0, # of connection points: 2
#     Edge 33, Type (0, 0), BuildingBlock: ZUJKAS_clean_linker_0, # of connection points: 2
#     Edge 34, Type (0, 0), BuildingBlock: ZUJKAS_clean_linker_0, # of connection points: 2
#     Edge 35, Type (0, 0), BuildingBlock: ZUJKAS_clean_linker_0, # of connection points: 2
#     Edge 36, Type (0, 0), BuildingBlock: ZUJKAS_clean_linker_0, # of connection points: 2
#     Edge 37, Type (0, 0), BuildingBlock: ZUJKAS_clean_linker_0, # of connection points: 2
#     Edge 38, Type (0, 0), BuildingBlock: ZUJKAS_clean_linker_0, # of connection points: 2
#     Edge 39, Type (0, 0), BuildingBlock: ZUJKAS_clean_linker_0, # of connection points: 2
#     Edge 40, Type (0, 0), BuildingBlock: ZUJKAS_clean_linker_0, # of connection points: 2
#     Edge 41, Type (0, 0), BuildingBlock: ZUJKAS_clean_linker_0, # of connection points: 2
#     Edge 42, Type (0, 0), BuildingBlock: ZUJKAS_clean_linker_0, # of connection points: 2
#     Edge 43, Type (0, 0), BuildingBlock: ZUJKAS_clean_linker_0, # of connection points: 2
#     Edge 44, Type (0, 0), BuildingBlock: ZUJKAS_clean_linker_0, # of connection points: 2
#     Edge 45, Type (0, 0), BuildingBlock: ZUJKAS_clean_linker_0, # of connection points: 2
#     Edge 46, Type (0, 0), BuildingBlock: ZUJKAS_clean_linker_0, # of connection points: 2
#     Edge 47, Type (0, 0), BuildingBlock: ZUJKAS_clean_linker_0, # of connection points: 2
#     Edge 48, Type (0, 0), BuildingBlock: ZUJKAS_clean_linker_0, # of connection points: 2
#     Edge 49, Type (0, 0), BuildingBlock: ZUJKAS_clean_linker_0, # of connection points: 2
#     Edge 50, Type (0, 0), BuildingBlock: ZUJKAS_clean_linker_0, # of connection points: 2
#     Edge 51, Type (0, 0), BuildingBlock: ZUJKAS_clean_linker_0, # of connection points: 2
#     Edge 52, Type (0, 0), BuildingBlock: ZUJKAS_clean_linker_0, # of connection points: 2
#     Edge 53, Type (0, 0), BuildingBlock: ZUJKAS_clean_linker_0, # of connection points: 2
#     Edge 54, Type (0, 0), BuildingBlock: ZUJKAS_clean_linker_0, # of connection points: 2
#     Edge 55, Type (0, 0), BuildingBlock: ZUJKAS_clean_linker_0, # of connection points: 2
#     Edge 56, Type (0, 0), BuildingBlock: ZUJKAS_clean_linker_0, # of connection points: 2
#     Edge 57, Type (0, 0), BuildingBlock: ZUJKAS_clean_linker_0, # of connection points: 2
#     Edge 58, Type (0, 0), BuildingBlock: ZUJKAS_clean_linker_0, # of connection points: 2
#     Edge 59, Type (0, 0), BuildingBlock: ZUJKAS_clean_linker_0, # of connection points: 2
#     Edge 60, Type (0, 0), BuildingBlock: ZUJKAS_clean_linker_0, # of connection points: 2
#     Edge 61, Type (0, 0), BuildingBlock: ZUJKAS_clean_linker_0, # of connection points: 2
#     Edge 62, Type (0, 0), BuildingBlock: ZUJKAS_clean_linker_0, # of connection points: 2
#     Edge 63, Type (0, 0), BuildingBlock: ZUJKAS_clean_linker_0, # of connection points: 2
#     Edge 64, Type (0, 0), BuildingBlock: ZUJKAS_clean_linker_0, # of connection points: 2
#     Edge 65, Type (0, 0), BuildingBlock: ZUJKAS_clean_linker_0, # of connection points: 2
#     Edge 66, Type (0, 0), BuildingBlock: ZUJKAS_clean_linker_0, # of connection points: 2
#     Edge 67, Type (0, 0), BuildingBlock: ZUJKAS_clean_linker_0, # of connection points: 2
#     Edge 68, Type (0, 0), BuildingBlock: ZUJKAS_clean_linker_0, # of connection points: 2
#     Edge 69, Type (0, 0), BuildingBlock: ZUJKAS_clean_linker_0, # of connection points: 2
#     Edge 70, Type (0, 0), BuildingBlock: ZUJKAS_clean_linker_0, # of connection points: 2
#     Edge 71, Type (0, 0), BuildingBlock: ZUJKAS_clean_linker_0, # of connection points: 2
#     Edge 72, Type (0, 0), BuildingBlock: ZUJKAS_clean_linker_0, # of connection points: 2
#     Edge 73, Type (0, 0), BuildingBlock: ZUJKAS_clean_linker_0, # of connection points: 2
#     Edge 74, Type (0, 0), BuildingBlock: ZUJKAS_clean_linker_0, # of connection points: 2
#     Edge 75, Type (0, 0), BuildingBlock: ZUJKAS_clean_linker_0, # of connection points: 2
#     Edge 76, Type (0, 0), BuildingBlock: ZUJKAS_clean_linker_0, # of connection points: 2
#     Edge 77, Type (0, 0), BuildingBlock: ZUJKAS_clean_linker_0, # of connection points: 2
#     Edge 78, Type (0, 0), BuildingBlock: ZUJKAS_clean_linker_0, # of connection points: 2
#     Edge 79, Type (0, 0), BuildingBlock: ZUJKAS_clean_linker_0, # of connection points: 2
#     Edge 80, Type (0, 0), BuildingBlock: ZUJKAS_clean_linker_0, # of connection points: 2
#     Edge 81, Type (0, 0), BuildingBlock: ZUJKAS_clean_linker_0, # of connection points: 2
#     Edge 82, Type (0, 0), BuildingBlock: ZUJKAS_clean_linker_0, # of connection points: 2
#     Edge 83, Type (0, 0), BuildingBlock: ZUJKAS_clean_linker_0, # of connection points: 2
#     Edge 84, Type (0, 0), BuildingBlock: ZUJKAS_clean_linker_0, # of connection points: 2
#     Edge 85, Type (0, 0), BuildingBlock: ZUJKAS_clean_linker_0, # of connection points: 2
#     Edge 86, Type (0, 0), BuildingBlock: ZUJKAS_clean_linker_0, # of connection points: 2
#     Edge 87, Type (0, 0), BuildingBlock: ZUJKAS_clean_linker_0, # of connection points: 2
#     Edge 88, Type (0, 0), BuildingBlock: ZUJKAS_clean_linker_0, # of connection points: 2
#     Edge 89, Type (0, 0), BuildingBlock: ZUJKAS_clean_linker_0, # of connection points: 2
#     Edge 90, Type (0, 0), BuildingBlock: ZUJKAS_clean_linker_0, # of connection points: 2
#     Edge 91, Type (0, 0), BuildingBlock: ZUJKAS_clean_linker_0, # of connection points: 2
#     Edge 92, Type (0, 0), BuildingBlock: ZUJKAS_clean_linker_0, # of connection points: 2
#     Edge 93, Type (0, 0), BuildingBlock: ZUJKAS_clean_linker_0, # of connection points: 2
#     Edge 94, Type (0, 0), BuildingBlock: ZUJKAS_clean_linker_0, # of connection points: 2
#     Edge 95, Type (0, 0), BuildingBlock: ZUJKAS_clean_linker_0, # of connection points: 2
# Relax obj value: 0.105
# Max RMSD: 0.103
# Mean RMSD: 0.103
data_MOF--net-ukd--node1-GALJAG_clean_sbu_0--edge1-ZUJKAS_clean_linker_0
_symmetry_space_group_name_H-M    P1
_symmetry_Int_Tables_number       1
_symmetry_cell_setting            triclinic
loop_
_symmetry_equiv_pos_as_xyz
'x, y, z'
_cell_length_a     59.520929
_cell_length_b     59.430486
_cell_length_c     92.304463
_cell_angle_alpha  89.999189
_cell_angle_beta   90.007
_cell_angle_gamma 90.021548
loop_
_atom_site_label
_atom_site_type_symbol
_atom_site_fract_x
_atom_site_fract_y
_atom_site_fract_z
_atom_type_partial_charge
In0 In 0.21009 0.18413 0.34432 0.0
O1 O 0.18048 0.16256 0.33727 0.0
O2 O 0.18853 0.16323 0.35971 0.0
C3 C 0.22208 0.19908 0.31786 0.0
C4 C 0.24699 0.16031 0.3515 0.0
C5 C 0.19427 0.22185 0.35696 0.0
O6 O 0.20688 0.18458 0.3197 0.0
O7 O 0.23134 0.20587 0.32934 0.0
O8 O 0.21029 0.2107 0.36232 0.0
O9 O 0.1863 0.21387 0.34541 0.0
C10 C 0.17578 0.15582 0.34987 0.0
O11 O 0.24306 0.17956 0.35668 0.0
O12 O 0.23224 0.15309 0.34287 0.0
In13 In 0.0621 0.96289 0.59372 0.0
O14 O 0.07499 0.98592 0.61168 0.0
O15 O 0.08079 0.99576 0.58987 0.0
C16 C 0.02666 0.94934 0.60972 0.0
C17 C 0.09222 0.92887 0.59441 0.0
C18 C 0.04514 0.97285 0.56741 0.0
O19 O 0.032 0.9698 0.60847 0.0
O20 O 0.03937 0.93584 0.6031 0.0
O21 O 0.06555 0.96792 0.56928 0.0
O22 O 0.03338 0.97274 0.57877 0.0
C23 C 0.08335 0.00021 0.60312 0.0
O24 O 0.07628 0.92955 0.58543 0.0
O25 O 0.09312 0.94545 0.6029 0.0
In26 In 0.28313 0.811 0.83996 0.0
O27 O 0.25221 0.8182 0.85383 0.0
O28 O 0.26289 0.84333 0.83893 0.0
C29 C 0.29557 0.77128 0.85168 0.0
C30 C 0.32044 0.83572 0.84486 0.0
C31 C 0.26741 0.79933 0.81368 0.0
O32 O 0.28367 0.78529 0.8585 0.0
O33 O 0.30108 0.77734 0.83911 0.0
O34 O 0.28423 0.81203 0.81532 0.0
O35 O 0.25839 0.79275 0.82531 0.0
C36 C 0.24895 0.8375 0.84852 0.0
O37 O 0.31598 0.82734 0.83264 0.0
O38 O 0.30608 0.83168 0.85456 0.0
In39 In 0.43392 0.03298 0.09201 0.0
O40 O 0.42564 0.00223 0.10596 0.0
O41 O 0.40226 0.01197 0.08974 0.0
C42 C 0.47336 0.04597 0.10376 0.0
C43 C 0.40822 0.06948 0.09733 0.0
C44 C 0.44791 0.01907 0.06579 0.0
O45 O 0.46051 0.0321 0.10999 0.0
O46 O 0.46626 0.05315 0.09176 0.0
O47 O 0.43577 0.03627 0.06752 0.0
O48 O 0.45283 0.00871 0.0773 0.0
C49 C 0.40713 -0.0016 0.09975 0.0
O50 O 0.41316 0.06319 0.08468 0.0
O51 O 0.41614 0.0573 0.10728 0.0
In52 In 0.20741 0.81204 0.15367 0.0
O53 O 0.23475 0.8218 0.13741 0.0
O54 O 0.23357 0.83926 0.15747 0.0
C55 C 0.19178 0.77378 0.14156 0.0
C56 C 0.17373 0.84156 0.14914 0.0
C57 C 0.21932 0.79551 0.17972 0.0
O58 O 0.21049 0.78221 0.13806 0.0
O59 O 0.1811 0.7847 0.15102 0.0
O60 O 0.20324 0.8091 0.17809 0.0
O61 O 0.22951 0.79035 0.1682 0.0
C62 C 0.24314 0.83686 0.14539 0.0
O63 O 0.1803 0.83613 0.16166 0.0
O64 O 0.18429 0.83226 0.13892 0.0
In65 In 0.43668 0.9646 0.40015 0.0
O66 O 0.43151 0.9964 0.38657 0.0
O67 O 0.40572 0.98668 0.40123 0.0
C68 C 0.47616 0.95592 0.38669 0.0
C69 C 0.41283 0.9264 0.39618 0.0
C70 C 0.4453 0.97526 0.42793 0.0
O71 O 0.45772 0.95599 0.37995 0.0
O72 O 0.47458 0.96062 0.39993 0.0
O73 O 0.43477 0.95761 0.42446 0.0
O74 O 0.45098 0.9876 0.41743 0.0
C75 C 0.41243 0.00064 0.3919 0.0
O76 O 0.42903 0.92766 0.40496 0.0
O77 O 0.40867 0.94438 0.38946 0.0
In78 In 0.28545 0.18498 0.65303 0.0
O79 O 0.3131 0.16183 0.66143 0.0
O80 O 0.30723 0.16264 0.63873 0.0
C81 C 0.27326 0.20318 0.67852 0.0
C82 C 0.2491 0.16046 0.64572 0.0
C83 C 0.30193 0.22214 0.64005 0.0
O84 O 0.28885 0.18889 0.67744 0.0
O85 O 0.26377 0.20824 0.66674 0.0
O86 O 0.28313 0.21384 0.63662 0.0
O87 O 0.31224 0.21164 0.64987 0.0
C88 C 0.31861 0.15469 0.64906 0.0
O89 O 0.25783 0.17455 0.63717 0.0
O90 O 0.25873 0.1588 0.65783 0.0
In91 In 0.06318 0.03688 0.90197 0.0
O92 O 0.08147 0.0685 0.90944 0.0
O93 O 0.08972 0.05533 0.8887 0.0
C94 C 0.04623 0.02564 0.92804 0.0
C95 C 0.08701 0.00016 0.89448 0.0
C96 C 0.02656 0.05281 0.88809 0.0
O97 O 0.06319 0.03819 0.92663 0.0
O98 O 0.03791 0.01868 0.9163 0.0
O99 O 0.03338 0.03287 0.88638 0.0
O100 O 0.03828 0.0645 0.8966 0.0
C101 C 0.09301 0.07048 0.89804 0.0
O102 O 0.07355 0.00963 0.88584 0.0
O103 O 0.08831 0.00917 0.90682 0.0
In104 In 0.78879 0.81557 0.65247 0.0
O105 O 0.76181 0.82544 0.636 0.0
O106 O 0.76256 0.84273 0.65613 0.0
C107 C 0.8046 0.7778 0.63985 0.0
C108 C 0.82201 0.84581 0.64867 0.0
C109 C 0.7773 0.79811 0.67836 0.0
O110 O 0.78518 0.78532 0.63725 0.0
O111 O 0.81592 0.78939 0.64865 0.0
O112 O 0.79399 0.81093 0.67671 0.0
O113 O 0.7663 0.79419 0.66696 0.0
C114 C 0.75325 0.84043 0.64396 0.0
O115 O 0.81466 0.8405 0.66102 0.0
O116 O 0.81245 0.83601 0.63822 0.0
In117 In 0.93287 0.03727 0.40271 0.0
O118 O 0.9684 0.0292 0.39463 0.0
O119 O 0.95308 0.05931 0.38733 0.0
C120 C 0.90737 0.00263 0.39347 0.0
C121 C 0.94908 0.02883 0.42942 0.0
C122 C 0.90407 0.07225 0.40198 0.0
O123 O 0.92513 0.00843 0.38697 0.0
O124 O 0.90269 0.01423 0.40448 0.0
O125 O 0.91341 0.06587 0.41355 0.0
O126 O 0.90917 0.06093 0.39091 0.0
C127 C 0.97026 0.04696 0.38727 0.0
O128 O 0.9505 0.04797 0.42357 0.0
O129 O 0.93933 0.01411 0.42186 0.0
In130 In 0.70897 0.18146 0.157 0.0
O131 O 0.68088 0.15736 0.16363 0.0
O132 O 0.68516 0.16423 0.14121 0.0
C133 C 0.72235 0.19533 0.18344 0.0
C134 C 0.74413 0.15685 0.14762 0.0
C135 C 0.69384 0.22077 0.14621 0.0
O136 O 0.70608 0.182 0.18163 0.0
O137 O 0.73197 0.20146 0.17193 0.0
O138 O 0.71104 0.21104 0.14123 0.0
O139 O 0.68438 0.21065 0.15656 0.0
C140 C 0.67422 0.15391 0.15084 0.0
O141 O 0.73824 0.17493 0.14155 0.0
O142 O 0.73234 0.15129 0.15838 0.0
In143 In 0.56163 0.95979 0.90085 0.0
O144 O 0.52959 0.964 0.88726 0.0
O145 O 0.54005 0.93093 0.89266 0.0
C146 C 0.5854 0.99683 0.89372 0.0
C147 C 0.54296 0.96728 0.92706 0.0
C148 C 0.59376 0.92863 0.89686 0.0
O149 O 0.57021 0.98897 0.88562 0.0
O150 O 0.58841 0.98612 0.90533 0.0
O151 O 0.58635 0.93374 0.90926 0.0
O152 O 0.58512 0.93948 0.88648 0.0
C153 C 0.52577 0.94317 0.88641 0.0
O154 O 0.55584 0.95089 0.92462 0.0
O155 O 0.53958 0.97991 0.91632 0.0
In156 In 0.78491 0.18544 0.8438 0.0
O157 O 0.81299 0.16253 0.83581 0.0
O158 O 0.8119 0.17028 0.85829 0.0
C159 C 0.77139 0.19734 0.81703 0.0
C160 C 0.75047 0.1596 0.85306 0.0
C161 C 0.7981 0.22496 0.85548 0.0
O162 O 0.7896 0.18709 0.81934 0.0
O163 O 0.75984 0.20125 0.82821 0.0
O164 O 0.78705 0.21061 0.86263 0.0
O165 O 0.80236 0.21932 0.84262 0.0
C166 C 0.82176 0.16001 0.84815 0.0
O167 O 0.75113 0.18053 0.8553 0.0
O168 O 0.76713 0.15184 0.8463 0.0
In169 In 0.55907 0.03374 0.59267 0.0
O170 O 0.55348 0.03899 0.56852 0.0
O171 O 0.53745 0.01102 0.57849 0.0
C172 C 0.58794 0.06792 0.59742 0.0
C173 C 0.52147 0.04846 0.60587 0.0
C174 C 0.58539 -0.00155 0.59965 0.0
O175 O 0.58287 0.0613 0.58484 0.0
O176 O 0.5786 0.05717 0.60755 0.0
O177 O 0.56952 0.00497 0.6077 0.0
O178 O 0.58778 0.00962 0.58814 0.0
C179 C 0.54073 0.02218 0.56706 0.0
O180 O 0.53073 0.0301 0.60932 0.0
O181 O 0.53126 0.0592 0.59593 0.0
In182 In 0.71048 0.81155 0.34278 0.0
O183 O 0.68056 0.83189 0.33475 0.0
O184 O 0.68982 0.83515 0.35692 0.0
C185 C 0.72129 0.794 0.31682 0.0
C186 C 0.74593 0.8377 0.34961 0.0
C187 C 0.69639 0.77404 0.3566 0.0
O188 O 0.7055 0.80792 0.31844 0.0
O189 O 0.73168 0.78902 0.32829 0.0
O190 O 0.71625 0.78125 0.35775 0.0
O191 O 0.6838 0.78588 0.34872 0.0
C192 C 0.67658 0.84085 0.34688 0.0
O193 O 0.73787 0.82349 0.35834 0.0
O194 O 0.73613 0.83863 0.33751 0.0
In195 In 0.93351 0.9628 0.09278 0.0
O196 O 0.93372 0.96083 0.06812 0.0
O197 O 0.95864 0.98096 0.07833 0.0
C198 C 0.90376 0.92926 0.0972 0.0
C199 C 0.97023 0.9477 0.10692 0.0
C200 C 0.90944 -0.00037 0.09968 0.0
O201 O 0.91539 0.93078 0.08582 0.0
O202 O 0.90701 0.94474 0.10631 0.0
O203 O 0.92326 0.9908 0.10837 0.0
O204 O 0.90791 0.98993 0.08757 0.0
C205 C 0.95052 0.97356 0.06664 0.0
O206 O 0.96271 0.96736 0.10874 0.0
O207 O 0.95912 0.93583 0.09816 0.0
In208 In 0.71135 0.68617 0.84286 0.0
O209 O 0.73865 0.67531 0.85878 0.0
O210 O 0.73685 0.65854 0.83848 0.0
C211 C 0.69765 0.72452 0.85576 0.0
C212 C 0.67746 0.65702 0.84769 0.0
C213 C 0.72221 0.70291 0.81667 0.0
O214 O 0.71681 0.71615 0.85804 0.0
O215 O 0.68553 0.71348 0.8471 0.0
O216 O 0.70557 0.69011 0.81861 0.0
O217 O 0.73346 0.70714 0.82792 0.0
C218 C 0.74659 0.66033 0.85055 0.0
O219 O 0.68337 0.66289 0.83512 0.0
O220 O 0.68872 0.66576 0.85781 0.0
In221 In 0.56338 0.46043 0.0939 0.0
O222 O 0.57344 0.48991 0.10841 0.0
O223 O 0.59292 0.4836 0.08954 0.0
C224 C 0.52506 0.44663 0.10668 0.0
C225 C 0.59095 0.42572 0.09992 0.0
C226 C 0.54718 0.47207 0.06772 0.0
O227 O 0.53438 0.46503 0.10998 0.0
O228 O 0.53512 0.4354 0.0971 0.0
O229 O 0.56077 0.45601 0.06945 0.0
O230 O 0.54192 0.48235 0.07918 0.0
C231 C 0.58995 0.49559 0.10064 0.0
O232 O 0.58445 0.43015 0.08722 0.0
O233 O 0.58371 0.43895 0.10954 0.0
In234 In 0.78717 0.31163 0.34688 0.0
O235 O 0.75993 0.32251 0.3627 0.0
O236 O 0.75894 0.33601 0.34138 0.0
C237 C 0.80208 0.27637 0.36265 0.0
C238 C 0.82033 0.34228 0.34995 0.0
C239 C 0.77659 0.29287 0.32116 0.0
O240 O 0.78233 0.28382 0.36378 0.0
O241 O 0.81421 0.28676 0.35368 0.0
O242 O 0.78889 0.31008 0.32222 0.0
O243 O 0.7695 0.28524 0.33306 0.0
C244 C 0.75009 0.33524 0.35379 0.0
O245 O 0.81957 0.32867 0.33948 0.0
O246 O 0.80431 0.34053 0.35882 0.0
In247 In 0.93301 0.53351 0.59517 0.0
O248 O 0.92763 0.50058 0.60754 0.0
O249 O 0.9002 0.51392 0.5956 0.0
C250 C 0.97271 0.54618 0.60673 0.0
C251 C 0.90742 0.57014 0.60021 0.0
C252 C 0.94546 0.52026 0.56846 0.0
O253 O 0.95871 0.53444 0.61369 0.0
O254 O 0.96656 0.55153 0.59414 0.0
O255 O 0.93473 0.53823 0.57072 0.0
O256 O 0.94965 0.50884 0.57966 0.0
C257 C 0.90744 0.49837 0.60362 0.0
O258 O 0.91091 0.56255 0.58765 0.0
O259 O 0.91675 0.55919 0.61026 0.0
In260 In 0.70904 0.30956 0.65236 0.0
O261 O 0.74185 0.31496 0.6399 0.0
O262 O 0.73002 0.34145 0.65332 0.0
C263 C 0.69593 0.27027 0.64044 0.0
C264 C 0.67378 0.33655 0.6464 0.0
C265 C 0.72044 0.29535 0.67906 0.0
O266 O 0.70899 0.28365 0.63395 0.0
O267 O 0.68951 0.27683 0.65275 0.0
O268 O 0.70261 0.30619 0.67658 0.0
O269 O 0.73266 0.29199 0.6681 0.0
C270 C 0.74499 0.33456 0.64475 0.0
O271 O 0.6814 0.33407 0.65906 0.0
O272 O 0.68397 0.32548 0.63678 0.0
In273 In 0.93557 0.46244 0.90384 0.0
O274 O 0.92664 0.4921 0.88918 0.0
O275 O 0.9041 0.48371 0.90619 0.0
C276 C 0.97508 0.45006 0.89202 0.0
C277 C 0.90949 0.42605 0.89889 0.0
C278 C 0.95015 0.47712 0.92977 0.0
O279 O 0.96236 0.46435 0.8861 0.0
O280 O 0.96776 0.44203 0.90374 0.0
O281 O 0.9392 0.45908 0.92827 0.0
O282 O 0.95361 0.48785 0.91819 0.0
C283 C 0.9085 0.49649 0.89567 0.0
O284 O 0.91355 0.43325 0.91147 0.0
O285 O 0.91856 0.43719 0.88884 0.0
In286 In 0.7896 0.6836 0.15236 0.0
O287 O 0.76413 0.67175 0.13541 0.0
O288 O 0.76341 0.65648 0.1562 0.0
C289 C 0.80318 0.72207 0.13948 0.0
C290 C 0.82372 0.65428 0.14928 0.0
C291 C 0.77855 0.70066 0.17843 0.0
O292 O 0.78317 0.71516 0.1387 0.0
O293 O 0.81622 0.70946 0.14652 0.0
O294 O 0.79592 0.68891 0.17645 0.0
O295 O 0.76673 0.70373 0.16728 0.0
C296 C 0.75505 0.65749 0.14368 0.0
O297 O 0.81602 0.65987 0.1615 0.0
O298 O 0.81403 0.66331 0.13859 0.0
In299 In 0.56156 0.53537 0.39991 0.0
O300 O 0.57675 0.56881 0.40708 0.0
O301 O 0.59178 0.55214 0.38919 0.0
C302 C 0.54382 0.52663 0.42618 0.0
C303 C 0.58478 0.49811 0.39272 0.0
C304 C 0.52588 0.54852 0.38392 0.0
O305 O 0.56197 0.53732 0.42459 0.0
O306 O 0.53477 0.52021 0.41454 0.0
O307 O 0.53209 0.52827 0.38461 0.0
O308 O 0.53785 0.56203 0.39105 0.0
C309 C 0.59186 0.56897 0.3975 0.0
O310 O 0.57477 0.51003 0.38343 0.0
O311 O 0.58301 0.50496 0.4056 0.0
In312 In 0.28764 0.31234 0.15375 0.0
O313 O 0.25899 0.32109 0.13823 0.0
O314 O 0.26198 0.33994 0.15769 0.0
C315 C 0.3041 0.275 0.141 0.0
C316 C 0.32084 0.34239 0.14922 0.0
C317 C 0.2761 0.29469 0.17956 0.0
O318 O 0.28531 0.28326 0.13753 0.0
O319 O 0.31446 0.28565 0.15074 0.0
O320 O 0.29161 0.309 0.17817 0.0
O321 O 0.26626 0.28943 0.16794 0.0
C322 C 0.25136 0.33673 0.14606 0.0
O323 O 0.31495 0.33619 0.16173 0.0
O324 O 0.30984 0.33359 0.139 0.0
In325 In 0.43535 0.53801 0.90328 0.0
O326 O 0.43874 0.54328 0.92763 0.0
O327 O 0.45629 0.51583 0.91816 0.0
C328 C 0.40648 0.57181 0.8976 0.0
C329 C 0.47361 0.5525 0.89076 0.0
C330 C 0.40988 0.50234 0.89582 0.0
O331 O 0.41153 0.566 0.91034 0.0
O332 O 0.41588 0.56048 0.88776 0.0
O333 O 0.42601 0.50911 0.88808 0.0
O334 O 0.40673 0.51352 0.90724 0.0
C335 C 0.45168 0.52673 0.9295 0.0
O336 O 0.46489 0.53374 0.88765 0.0
O337 O 0.463 0.5638 0.90007 0.0
In338 In 0.20813 0.68532 0.64912 0.0
O339 O 0.2357 0.67346 0.63363 0.0
O340 O 0.23586 0.66068 0.65511 0.0
C341 C 0.19386 0.72207 0.63459 0.0
C342 C 0.17608 0.65385 0.64527 0.0
C343 C 0.21517 0.705 0.67502 0.0
O344 O 0.21409 0.7157 0.63431 0.0
O345 O 0.18098 0.70974 0.64197 0.0
O346 O 0.19919 0.69149 0.67278 0.0
O347 O 0.22771 0.70843 0.66423 0.0
C348 C 0.24505 0.66082 0.64281 0.0
O349 O 0.18215 0.66048 0.65765 0.0
O350 O 0.18634 0.66295 0.63483 0.0
In351 In 0.06275 0.46167 0.40452 0.0
O352 O 0.05813 0.4548 0.42862 0.0
O353 O 0.04149 0.48318 0.41967 0.0
C354 C 0.09187 0.42771 0.40006 0.0
C355 C 0.02493 0.44773 0.39104 0.0
C356 C 0.08883 0.49699 0.39715 0.0
O357 O 0.08497 0.4331 0.41252 0.0
O358 O 0.08431 0.43967 0.38986 0.0
O359 O 0.07376 0.48937 0.38887 0.0
O360 O 0.09064 0.48685 0.40909 0.0
C361 C 0.0453 0.47135 0.43074 0.0
O362 O 0.03166 0.46784 0.39034 0.0
O363 O 0.03738 0.43485 0.3983 0.0
In364 In 0.28887 0.68237 0.34329 0.0
O365 O 0.26216 0.67269 0.36005 0.0
O366 O 0.26134 0.6566 0.33951 0.0
C367 C 0.30683 0.71914 0.35599 0.0
C368 C 0.32095 0.65083 0.34643 0.0
C369 C 0.27774 0.70056 0.31753 0.0
O370 O 0.28674 0.71321 0.35819 0.0
O371 O 0.31766 0.70648 0.34756 0.0
O372 O 0.29356 0.68664 0.31898 0.0
O373 O 0.26743 0.70526 0.32908 0.0
C374 C 0.25267 0.65851 0.3519 0.0
O375 O 0.31395 0.65717 0.33419 0.0
O376 O 0.31157 0.66023 0.3571 0.0
In377 In 0.05996 0.5326 0.09583 0.0
O378 O 0.05595 0.54369 0.07225 0.0
O379 O 0.04238 0.51206 0.07845 0.0
C380 C 0.0861 0.56962 0.09765 0.0
C381 C 0.02366 0.53963 0.1129 0.0
C382 C 0.08478 0.49629 0.10294 0.0
O383 O 0.06597 0.57035 0.09337 0.0
O384 O 0.09308 0.55022 0.10086 0.0
O385 O 0.07015 0.50437 0.11137 0.0
O386 O 0.08675 0.5065 0.09104 0.0
C387 C 0.04533 0.52626 0.06849 0.0
O388 O 0.0227 0.52918 0.10106 0.0
O389 O 0.0431 0.54601 0.11642 0.0
In390 In 0.21054 0.31559 0.84323 0.0
O391 O 0.23812 0.32537 0.85928 0.0
O392 O 0.23713 0.34222 0.839 0.0
C393 C 0.19585 0.2775 0.85601 0.0
C394 C 0.17808 0.34602 0.84848 0.0
C395 C 0.21947 0.29918 0.81664 0.0
O396 O 0.21615 0.28355 0.85655 0.0
O397 O 0.18312 0.29068 0.84916 0.0
O398 O 0.20312 0.31213 0.81908 0.0
O399 O 0.23129 0.2946 0.82759 0.0
C400 C 0.24671 0.34004 0.8511 0.0
O401 O 0.18373 0.34039 0.8358 0.0
O402 O 0.18893 0.33642 0.85847 0.0
In403 In 0.43392 0.46279 0.59103 0.0
O404 O 0.43329 0.46211 0.56639 0.0
O405 O 0.45447 0.48615 0.57664 0.0
C406 C 0.40805 0.42632 0.59603 0.0
C407 C 0.47318 0.4482 0.60217 0.0
C408 C 0.408 0.49738 0.59987 0.0
O409 O 0.41368 0.43236 0.58345 0.0
O410 O 0.41539 0.4387 0.60606 0.0
O411 O 0.42687 0.49324 0.60552 0.0
O412 O 0.40238 0.48416 0.58983 0.0
C413 C 0.4474 0.4778 0.56493 0.0
O414 O 0.46112 0.46254 0.60861 0.0
O415 O 0.46536 0.44132 0.59027 0.0
H416 H 0.10897 0.41309 0.37432 0.0
H417 H 0.12992 0.37835 0.36983 0.0
H418 H 0.1284 0.36295 0.41547 0.0
H419 H 0.10735 0.39764 0.42008 0.0
H420 H 0.172 0.36142 0.38229 0.0
H421 H 0.09703 0.30872 0.39477 0.0
H422 H 0.09497 0.33847 0.39106 0.0
H423 H 0.10529 0.32894 0.40826 0.0
C424 C 0.1133 0.40243 0.38342 0.0
C425 C 0.10637 0.40796 0.39753 0.0
C426 C 0.12529 0.38264 0.38085 0.0
C427 C 0.13044 0.36804 0.39231 0.0
C428 C 0.12434 0.37393 0.40648 0.0
H429 H 0.21052 0.24463 0.38056 0.0
H430 H 0.1963 0.28013 0.39067 0.0
C431 C 0.11238 0.39375 0.40908 0.0
C432 C 0.14106 0.34608 0.38922 0.0
H433 H 0.12989 0.28981 0.38761 0.0
C434 C 0.16295 0.3457 0.38359 0.0
C435 C 0.12904 0.32571 0.39085 0.0
C436 C 0.10522 0.32532 0.39647 0.0
C437 C 0.17302 0.32542 0.37928 0.0
C438 C 0.16086 0.30511 0.38073 0.0
C439 C 0.13916 0.30545 0.38663 0.0
C440 C 0.16952 0.28359 0.37498 0.0
C441 C 0.1962 0.32589 0.37268 0.0
C442 C 0.15891 0.27373 0.363 0.0
C443 C 0.16693 0.25359 0.35724 0.0
C444 C 0.18564 0.24285 0.36342 0.0
C445 C 0.19609 0.25258 0.37557 0.0
C446 C 0.18808 0.27285 0.38131 0.0
H447 H 0.20204 0.34332 0.37047 0.0
H448 H 0.20828 0.31785 0.38024 0.0
H449 H 0.19645 0.3162 0.3624 0.0
H450 H 0.14453 0.28178 0.35801 0.0
H451 H 0.1585 0.24649 0.3479 0.0
H452 H 0.99529 0.97523 0.62356 0.0
H453 H 0.95985 0.96253 0.63439 0.0
H454 H 0.97632 0.89392 0.62344 0.0
H455 H 0.01175 0.90637 0.61289 0.0
H456 H 0.92578 0.94144 0.62029 0.0
H457 H 0.95572 0.88742 0.66499 0.0
H458 H 0.97381 0.9073 0.65588 0.0
H459 H 0.96878 0.87992 0.64816 0.0
C460 C 0.99149 0.9574 0.6237 0.0
C461 C 0.00627 0.94177 0.61741 0.0
C462 C 0.97126 0.95019 0.62987 0.0
C463 C 0.96562 0.92726 0.62992 0.0
C464 C 0.98057 0.91163 0.62386 0.0
H465 H 0.84279 0.85682 0.62335 0.0
H466 H 0.87629 0.88003 0.6202 0.0
C467 C 0.00076 0.9188 0.61773 0.0
C468 C 0.94334 0.91965 0.63512 0.0
H469 H 0.91821 0.87978 0.65618 0.0
C470 C 0.92406 0.92825 0.62834 0.0
C471 C 0.94107 0.90274 0.64581 0.0
C472 C 0.96096 0.894 0.65423 0.0
C473 C 0.90271 0.91938 0.6313 0.0
C474 C 0.9007 0.90114 0.64106 0.0
C475 C 0.91979 0.89354 0.64853 0.0
C476 C 0.87937 0.88864 0.64292 0.0
C477 C 0.88257 0.92943 0.62377 0.0
C478 C 0.87017 0.88545 0.65677 0.0
C479 C 0.85115 0.87194 0.65861 0.0
C480 C 0.84109 0.86135 0.64664 0.0
C481 C 0.8501 0.86489 0.63276 0.0
C482 C 0.86914 0.8783 0.63094 0.0
H483 H 0.88558 0.94732 0.62087 0.0
H484 H 0.87935 0.92006 0.61358 0.0
H485 H 0.8673 0.92842 0.63066 0.0
H486 H 0.87791 0.89314 0.66617 0.0
H487 H 0.84458 0.86948 0.66944 0.0
H488 H 0.39606 0.58917 0.87114 0.0
H489 H 0.37278 0.62205 0.86589 0.0
H490 H 0.35913 0.63012 0.91149 0.0
H491 H 0.38283 0.59746 0.91686 0.0
H492 H 0.32785 0.63079 0.87178 0.0
H493 H 0.3838 0.69166 0.90005 0.0
H494 H 0.39243 0.66327 0.89596 0.0
H495 H 0.37386 0.66864 0.91091 0.0
C496 C 0.38807 0.59791 0.88005 0.0
C497 C 0.3914 0.59088 0.89442 0.0
C498 C 0.37474 0.61666 0.87704 0.0
C499 C 0.36452 0.6287 0.88832 0.0
C500 C 0.36725 0.62132 0.90266 0.0
H501 H 0.29101 0.75646 0.87963 0.0
H502 H 0.30488 0.72088 0.88983 0.0
C503 C 0.38069 0.60262 0.90569 0.0
C504 C 0.3514 0.6492 0.88496 0.0
H505 H 0.35133 0.70632 0.889 0.0
C506 C 0.33286 0.64729 0.87563 0.0
C507 C 0.35795 0.67069 0.89006 0.0
C508 C 0.37819 0.67384 0.8997 0.0
C509 C 0.32101 0.66637 0.87099 0.0
C510 C 0.32805 0.68787 0.87569 0.0
C511 C 0.34599 0.68975 0.88547 0.0
C512 C 0.31843 0.70871 0.86954 0.0
C513 C 0.30126 0.66343 0.86093 0.0
C514 C 0.32166 0.7136 0.85483 0.0
C515 C 0.31396 0.73384 0.84904 0.0
C516 C 0.30288 0.74958 0.85787 0.0
C517 C 0.29944 0.74458 0.87258 0.0
C518 C 0.30732 0.72432 0.87841 0.0
H519 H 0.29422 0.64614 0.86157 0.0
H520 H 0.28776 0.6757 0.86345 0.0
H521 H 0.30685 0.66637 0.84961 0.0
H522 H 0.33056 0.70192 0.84789 0.0
H523 H 0.31689 0.73724 0.83767 0.0
H524 H 0.50525 0.07142 0.09055 0.0
H525 H 0.54064 0.08491 0.10072 0.0
H526 H 0.52581 0.05144 0.14105 0.0
H527 H 0.49018 0.03769 0.13088 0.0
H528 H 0.53914 0.0991 0.14276 0.0
H529 H 0.59809 0.04723 0.11033 0.0
H530 H 0.57651 0.0609 0.09994 0.0
H531 H 0.56895 0.03968 0.11292 0.0
C532 C 0.50955 0.06678 0.10156 0.0
C533 C 0.49498 0.05347 0.10993 0.0
C534 C 0.52983 0.0744 0.10732 0.0
C535 C 0.53591 0.06891 0.12155 0.0
C536 C 0.52142 0.05567 0.12999 0.0
H537 H 0.64947 0.12808 0.16946 0.0
H538 H 0.61642 0.10516 0.16368 0.0
C539 C 0.50114 0.04785 0.12418 0.0
C540 C 0.55695 0.07805 0.12769 0.0
H541 H 0.61363 0.07927 0.12229 0.0
C542 C 0.55551 0.09455 0.1385 0.0
C543 C 0.57817 0.07204 0.12203 0.0
C544 C 0.58065 0.05385 0.11075 0.0
C545 C 0.57469 0.10613 0.14328 0.0
C546 C 0.59588 0.10064 0.13726 0.0
C547 C 0.59737 0.08349 0.12685 0.0
C548 C 0.61644 0.11353 0.14085 0.0
C549 C 0.57195 0.12492 0.15413 0.0
C550 C 0.62782 0.12521 0.12986 0.0
C551 C 0.64679 0.13807 0.1331 0.0
C552 C 0.65473 0.1395 0.1474 0.0
C553 C 0.64361 0.12742 0.15836 0.0
C554 C 0.62467 0.11443 0.15509 0.0
H555 H 0.55414 0.13026 0.15521 0.0
H556 H 0.57779 0.11908 0.16491 0.0
H557 H 0.58218 0.13978 0.15101 0.0
H558 H 0.62178 0.12468 0.11879 0.0
H559 H 0.65503 0.14716 0.12442 0.0
H560 H 0.15215 0.75322 0.14782 0.0
H561 H 0.13805 0.71754 0.13839 0.0
H562 H 0.19746 0.71047 0.11206 0.0
H563 H 0.21172 0.74645 0.1214 0.0
H564 H 0.15603 0.70073 0.09743 0.0
H565 H 0.16349 0.65532 0.14968 0.0
H566 H 0.14831 0.68134 0.15103 0.0
H567 H 0.17758 0.6817 0.14622 0.0
C568 C 0.16224 0.74411 0.14002 0.0
C569 C 0.18311 0.75254 0.13541 0.0
C570 C 0.1542 0.72369 0.13469 0.0
C571 C 0.1669 0.71124 0.12473 0.0
C572 C 0.18751 0.71981 0.11982 0.0
H573 H 0.12967 0.57191 0.1067 0.0
H574 H 0.15179 0.60581 0.11155 0.0
C575 C 0.19562 0.74031 0.12517 0.0
C576 C 0.15845 0.68928 0.11951 0.0
H577 H 0.14104 0.63784 0.13144 0.0
C578 C 0.15297 0.68685 0.1048 0.0
C579 C 0.15484 0.67112 0.12912 0.0
C580 C 0.16156 0.67235 0.14487 0.0
C581 C 0.14301 0.66702 0.09959 0.0
C582 C 0.13816 0.64937 0.10939 0.0
C583 C 0.14457 0.65147 0.12396 0.0
C584 C 0.12562 0.62895 0.105 0.0
C585 C 0.13768 0.66517 0.08365 0.0
C586 C 0.10361 0.63073 0.09966 0.0
C587 C 0.09096 0.61141 0.09686 0.0
C588 C 0.10004 0.58998 0.09949 0.0
C589 C 0.12223 0.58821 0.10457 0.0
C590 C 0.13489 0.60754 0.10734 0.0
H591 H 0.14837 0.67665 0.0771 0.0
H592 H 0.14007 0.64769 0.0797 0.0
H593 H 0.11989 0.66997 0.08184 0.0
H594 H 0.09595 0.64708 0.0981 0.0
H595 H 0.07386 0.61328 0.09302 0.0
H596 H 0.5172 0.95583 0.39949 0.0
H597 H 0.55192 0.93957 0.39012 0.0
H598 H 0.51864 0.92344 0.34995 0.0
H599 H 0.4836 0.93979 0.35927 0.0
H600 H 0.55197 0.89214 0.38079 0.0
H601 H 0.58159 0.95191 0.33838 0.0
H602 H 0.56349 0.96063 0.35307 0.0
H603 H 0.55232 0.94419 0.33847 0.0
C604 C 0.51733 0.94919 0.38856 0.0
C605 C 0.49766 0.94894 0.38013 0.0
C606 C 0.53719 0.93995 0.38323 0.0
C607 C 0.53781 0.93043 0.36936 0.0
C608 C 0.51851 0.93099 0.36063 0.0
H609 H 0.64336 0.85186 0.32774 0.0
H610 H 0.60958 0.8742 0.33257 0.0
C611 C 0.49853 0.94025 0.36598 0.0
C612 C 0.55796 0.9178 0.3648 0.0
H613 H 0.60302 0.91892 0.34194 0.0
C614 C 0.56314 0.89795 0.37229 0.0
C615 C 0.57225 0.92538 0.35361 0.0
C616 C 0.56733 0.94675 0.3454 0.0
C617 C 0.58242 0.88549 0.36897 0.0
C618 C 0.59718 0.89342 0.3581 0.0
C619 C 0.59174 0.91302 0.35035 0.0
C620 C 0.61842 0.88156 0.3548 0.0
C621 C 0.58664 0.86379 0.37703 0.0
C622 C 0.63482 0.87887 0.36559 0.0
C623 C 0.654 0.86603 0.36291 0.0
C624 C 0.65721 0.85587 0.34933 0.0
C625 C 0.64126 0.85942 0.33833 0.0
C626 C 0.622 0.87219 0.34105 0.0
H627 H 0.57098 0.85702 0.38192 0.0
H628 H 0.59386 0.85079 0.36974 0.0
H629 H 0.59878 0.86694 0.38592 0.0
H630 H 0.63256 0.88638 0.37619 0.0
H631 H 0.66611 0.86376 0.37154 0.0
H632 H 0.34208 0.24193 0.64583 0.0
H633 H 0.35704 0.27677 0.6357 0.0
H634 H 0.29785 0.28391 0.60913 0.0
H635 H 0.28256 0.24898 0.61938 0.0
H636 H 0.36601 0.28767 0.60648 0.0
H637 H 0.30224 0.34435 0.63126 0.0
H638 H 0.30624 0.3157 0.63722 0.0
H639 H 0.29163 0.32135 0.6206 0.0
C640 C 0.33223 0.25087 0.63782 0.0
C641 C 0.3111 0.2428 0.63344 0.0
C642 C 0.34082 0.27075 0.63203 0.0
C643 C 0.32844 0.283 0.6218 0.0
C644 C 0.30749 0.27483 0.61719 0.0
H645 H 0.39095 0.39676 0.57621 0.0
H646 H 0.3698 0.36218 0.58109 0.0
C647 C 0.29885 0.25487 0.62299 0.0
C648 C 0.33767 0.30438 0.61615 0.0
H649 H 0.33056 0.36135 0.6172 0.0
C650 C 0.35817 0.30379 0.60867 0.0
C651 C 0.32743 0.32532 0.61918 0.0
C652 C 0.30575 0.3269 0.62759 0.0
C653 C 0.36903 0.32366 0.6044 0.0
C654 C 0.35891 0.34462 0.60754 0.0
C655 C 0.33816 0.34521 0.61475 0.0
C656 C 0.37042 0.36613 0.60439 0.0
C657 C 0.39169 0.3221 0.59713 0.0
C658 C 0.37718 0.38005 0.61586 0.0
C659 C 0.38915 0.3998 0.61312 0.0
C660 C 0.39448 0.40599 0.59884 0.0
C661 C 0.38718 0.39232 0.58733 0.0
C662 C 0.37519 0.37255 0.59009 0.0
H663 H 0.39909 0.30501 0.59808 0.0
H664 H 0.38982 0.32606 0.58544 0.0
H665 H 0.4036 0.33445 0.60189 0.0
H666 H 0.3736 0.37538 0.62697 0.0
H667 H 0.39449 0.41004 0.6222 0.0
H668 H 0.01065 0.09555 0.88959 0.0
H669 H 0.97545 0.1101 0.87982 0.0
H670 H 0.96069 0.0451 0.86133 0.0
H671 H 0.99601 0.03026 0.87124 0.0
H672 H 0.95943 0.11152 0.85082 0.0
H673 H 0.90545 0.05969 0.8871 0.0
H674 H 0.93514 0.06344 0.89029 0.0
H675 H 0.92569 0.04484 0.87624 0.0
C676 C -1e-05 0.08435 0.88339 0.0
C677 C 0.00599 0.06172 0.88126 0.0
C678 C 0.97992 0.09271 0.87779 0.0
C679 C 0.96539 0.07861 0.87001 0.0
C680 C 0.97157 0.05615 0.86749 0.0
H681 H 0.84579 0.13634 0.82805 0.0
H682 H 0.88017 0.11452 0.83205 0.0
C683 C 0.99175 0.04774 0.87309 0.0
C684 C 0.94356 0.08756 0.86499 0.0
H685 H 0.8872 0.08527 0.87165 0.0
C686 C 0.94358 0.10564 0.85521 0.0
C687 C 0.92301 0.07992 0.87089 0.0
C688 C 0.92215 0.06101 0.88179 0.0
C689 C 0.9236 0.1167 0.85145 0.0
C690 C 0.90308 0.10926 0.85751 0.0
C691 C 0.90299 0.09081 0.86699 0.0
C692 C 0.88179 0.1215 0.85503 0.0
C693 C 0.92472 0.13688 0.84154 0.0
C694 C 0.87107 0.13215 0.86669 0.0
C695 C 0.85144 0.14452 0.86447 0.0
C696 C 0.84214 0.14637 0.85053 0.0
C697 C 0.85266 0.13531 0.8389 0.0
C698 C 0.87232 0.12292 0.84114 0.0
H699 H 0.94221 0.14299 0.84005 0.0
H700 H 0.91794 0.13223 0.83075 0.0
H701 H 0.91436 0.15089 0.84588 0.0
H702 H 0.87812 0.13121 0.8775 0.0
H703 H 0.84367 0.1528 0.87364 0.0
H704 H 0.89795 0.58969 0.62624 0.0
H705 H 0.87683 0.62433 0.63057 0.0
H706 H 0.86521 0.6313 0.58467 0.0
H707 H 0.88654 0.59675 0.58022 0.0
H708 H 0.88113 0.6703 0.59762 0.0
H709 H 0.80903 0.6356 0.62835 0.0
H710 H 0.83576 0.62721 0.63555 0.0
H711 H 0.82762 0.61815 0.61771 0.0
C712 C 0.89073 0.59849 0.61708 0.0
C713 C 0.89386 0.59051 0.6029 0.0
C714 C 0.87855 0.61819 0.61958 0.0
C715 C 0.86917 0.63017 0.60795 0.0
C716 C 0.87218 0.62219 0.59378 0.0
H717 H 0.78222 0.74735 0.62288 0.0
H718 H 0.79678 0.71168 0.61329 0.0
C719 C 0.88436 0.60248 0.59127 0.0
C720 C 0.8574 0.65172 0.61057 0.0
H721 H 0.81465 0.67548 0.62988 0.0
C722 C 0.86642 0.67142 0.60453 0.0
C723 C 0.83803 0.65309 0.6194 0.0
C724 C 0.82689 0.63236 0.62552 0.0
C725 C 0.8572 0.69259 0.60764 0.0
C726 C 0.83868 0.69405 0.61718 0.0
C727 C 0.82899 0.67429 0.62267 0.0
C728 C 0.83005 0.71598 0.62233 0.0
C729 C 0.86751 0.71323 0.60083 0.0
C730 C 0.84392 0.73003 0.63063 0.0
C731 C 0.83567 0.75026 0.63614 0.0
C732 C 0.81337 0.75679 0.63346 0.0
C733 C 0.79951 0.74277 0.62506 0.0
C734 C 0.80777 0.72242 0.6196 0.0
H735 H 0.87701 0.70897 0.59084 0.0
H736 H 0.85444 0.72587 0.59811 0.0
H737 H 0.87941 0.72101 0.60862 0.0
H738 H 0.86104 0.72514 0.63308 0.0
H739 H 0.84673 0.76067 0.64262 0.0
H740 H 0.14463 0.14036 0.33063 0.0
H741 H 0.11068 0.11865 0.33594 0.0
H742 H 0.12905 0.11628 0.38111 0.0
H743 H 0.16287 0.13834 0.37593 0.0
H744 H 0.10381 0.07616 0.34883 0.0
H745 H 0.06657 0.14544 0.38134 0.0
H746 H 0.09078 0.14948 0.36986 0.0
H747 H 0.09384 0.13646 0.38733 0.0
C748 C 0.14151 0.13511 0.34168 0.0
C749 C 0.15626 0.14124 0.3529 0.0
C750 C 0.12215 0.12266 0.34468 0.0
C751 C 0.11722 0.11617 0.35894 0.0
C752 C 0.13238 0.12149 0.37007 0.0
H753 H 0.01144 0.02682 0.3893 0.0
H754 H 0.04749 0.04216 0.38113 0.0
C755 C 0.1517 0.13401 0.36709 0.0
C756 C 0.09573 0.10472 0.36221 0.0
H757 H 0.0467 0.11102 0.38089 0.0
C758 C 0.09129 0.08374 0.35584 0.0
C759 C 0.07934 0.11485 0.37118 0.0
C760 C 0.0827 0.13789 0.37773 0.0
C761 C 0.07089 0.07246 0.35834 0.0
C762 C 0.05475 0.08238 0.36757 0.0
C763 C 0.05917 0.10343 0.37385 0.0
C764 C 0.03296 0.0715 0.37087 0.0
C765 C 0.06662 0.05029 0.35088 0.0
C766 C 0.01287 0.08283 0.36773 0.0
C767 C 0.99234 0.07422 0.37246 0.0
C768 C 0.99153 0.05413 0.38047 0.0
C769 C 0.01156 0.04227 0.38307 0.0
C770 C 0.03215 0.05096 0.37837 0.0
H771 H 0.07799 0.0478 0.34147 0.0
H772 H 0.06959 0.03638 0.35866 0.0
H773 H 0.04895 0.04915 0.34708 0.0
H774 H 0.01316 0.09872 0.36198 0.0
H775 H 0.97718 0.08372 0.37028 0.0
H776 H 0.60658 0.3937 0.08125 0.0
H777 H 0.6273 0.35938 0.08738 0.0
H778 H 0.62731 0.37863 0.13243 0.0
H779 H 0.60677 0.41304 0.1264 0.0
H780 H 0.66942 0.36112 0.12177 0.0
H781 H 0.59611 0.30647 0.1089 0.0
H782 H 0.6049 0.32542 0.09481 0.0
H783 H 0.59354 0.33649 0.11135 0.0
C784 C 0.61116 0.3907 0.09244 0.0
C785 C 0.60491 0.40593 0.10338 0.0
C786 C 0.62292 0.37108 0.09592 0.0
C787 C 0.62854 0.3664 0.11037 0.0
C788 C 0.62305 0.38196 0.12122 0.0
H789 H 0.65679 0.24375 0.15504 0.0
H790 H 0.6424 0.27931 0.14554 0.0
C791 C 0.61128 0.40156 0.11776 0.0
C792 C 0.63924 0.34483 0.11434 0.0
H793 H 0.62928 0.28838 0.11649 0.0
C794 C 0.66076 0.34517 0.12053 0.0
C795 C 0.62772 0.32415 0.11283 0.0
C796 C 0.60422 0.32297 0.10672 0.0
C797 C 0.67105 0.32529 0.12539 0.0
C798 C 0.65951 0.30462 0.12387 0.0
C799 C 0.63809 0.30428 0.11754 0.0
C800 C 0.66872 0.2833 0.12958 0.0
C801 C 0.69382 0.3266 0.13252 0.0
C802 C 0.68821 0.27374 0.12367 0.0
C803 C 0.69649 0.25337 0.12908 0.0
C804 C 0.68532 0.24229 0.14045 0.0
C805 C 0.66577 0.25192 0.14629 0.0
C806 C 0.65751 0.2722 0.14088 0.0
H807 H 0.69853 0.34417 0.13529 0.0
H808 H 0.69415 0.3163 0.14256 0.0
H809 H 0.7067 0.31978 0.12502 0.0
H810 H 0.69689 0.28192 0.1148 0.0
H811 H 0.71156 0.24629 0.12434 0.0
H812 H 0.51893 0.89972 0.87848 0.0
H813 H 0.48453 0.88298 0.8689 0.0
H814 H 0.45235 0.94803 0.86973 0.0
H815 H 0.48711 0.96502 0.87883 0.0
H816 H 0.44577 0.88082 0.8825 0.0
H817 H 0.43305 0.92576 0.83056 0.0
H818 H 0.45919 0.92698 0.84045 0.0
H819 H 0.43591 0.94451 0.84568 0.0
C820 C 0.50464 0.91052 0.87638 0.0
C821 C 0.50565 0.93365 0.87939 0.0
C822 C 0.48499 0.90094 0.87091 0.0
C823 C 0.4659 0.91426 0.86846 0.0
C824 C 0.46701 0.9375 0.8712 0.0
H825 H 0.33074 0.85966 0.86913 0.0
H826 H 0.36569 0.87969 0.8744 0.0
C827 C 0.48682 0.94717 0.87648 0.0
C828 C 0.44442 0.90341 0.86426 0.0
H829 H 0.40192 0.90436 0.8394 0.0
C830 C 0.43628 0.8859 0.87301 0.0
C831 C 0.43213 0.90987 0.85181 0.0
C832 C 0.44062 0.92765 0.8415 0.0
C833 C 0.41613 0.8748 0.86977 0.0
C834 C 0.40336 0.88188 0.85767 0.0
C835 C 0.41161 0.89918 0.84878 0.0
C836 C 0.38157 0.87124 0.85402 0.0
C837 C 0.40899 0.85528 0.87918 0.0
C838 C 0.37854 0.86069 0.84055 0.0
C839 C 0.35845 0.84951 0.83743 0.0
C840 C 0.34112 0.84866 0.84775 0.0
C841 C 0.34393 0.85982 0.86104 0.0
C842 C 0.36391 0.87117 0.86409 0.0
H843 H 0.42345 0.84797 0.88517 0.0
H844 H 0.39659 0.86126 0.88729 0.0
H845 H 0.40104 0.84177 0.87264 0.0
H846 H 0.39193 0.86067 0.8326 0.0
H847 H 0.3567 0.84112 0.82707 0.0
H848 H 0.88735 0.39999 0.91869 0.0
H849 H 0.86442 0.36653 0.91392 0.0
H850 H 0.87714 0.37348 0.86814 0.0
H851 H 0.89975 0.40706 0.87278 0.0
H852 H 0.83188 0.36516 0.87496 0.0
H853 H 0.88907 0.30456 0.90243 0.0
H854 H 0.87981 0.328 0.91318 0.0
H855 H 0.89769 0.33278 0.89781 0.0
C856 C 0.88524 0.39437 0.90762 0.0
C857 C 0.89542 0.40605 0.89611 0.0
C858 C 0.87224 0.37522 0.90492 0.0
C859 C 0.86935 0.36739 0.8907 0.0
C860 C 0.87923 0.37924 0.8792 0.0
H861 H 0.81835 0.25923 0.84107 0.0
H862 H 0.83284 0.29435 0.85107 0.0
C863 C 0.89217 0.39838 0.88187 0.0
C864 C 0.85612 0.34684 0.88765 0.0
H865 H 0.85629 0.28975 0.89182 0.0
C866 C 0.8371 0.34868 0.87874 0.0
C867 C 0.86291 0.32541 0.89269 0.0
C868 C 0.88357 0.3224 0.90197 0.0
C869 C 0.82501 0.32958 0.87442 0.0
C870 C 0.83232 0.3081 0.87899 0.0
C871 C 0.85076 0.30629 0.88838 0.0
C872 C 0.82239 0.28723 0.87305 0.0
C873 C 0.80467 0.3325 0.86484 0.0
C874 C 0.81201 0.27144 0.88216 0.0
C875 C 0.80367 0.25126 0.87645 0.0
C876 C 0.80592 0.24652 0.8616 0.0
C877 C 0.81632 0.26242 0.85255 0.0
C878 C 0.82448 0.28257 0.85822 0.0
H879 H 0.79752 0.3497 0.86579 0.0
H880 H 0.80965 0.32986 0.85338 0.0
H881 H 0.79142 0.32005 0.86758 0.0
H882 H 0.81044 0.2747 0.89366 0.0
H883 H 0.79581 0.23926 0.88368 0.0
H884 H 0.34625 0.13627 0.66952 0.0
H885 H 0.38 0.11356 0.66534 0.0
H886 H 0.36815 0.11621 0.61928 0.0
H887 H 0.33429 0.1386 0.62335 0.0
H888 H 0.38194 0.07332 0.62955 0.0
H889 H 0.43742 0.14262 0.64878 0.0
H890 H 0.41616 0.13333 0.66124 0.0
H891 H 0.40811 0.14694 0.64466 0.0
C892 C 0.35073 0.1318 0.65851 0.0
C893 C 0.33778 0.13936 0.64674 0.0
C894 C 0.37003 0.11891 0.65615 0.0
C895 C 0.3767 0.11351 0.642 0.0
C896 C 0.36328 0.12026 0.63028 0.0
H897 H 0.50001 0.08777 0.60021 0.0
H898 H 0.46496 0.10145 0.61069 0.0
C899 C 0.34399 0.13309 0.63263 0.0
C900 C 0.39827 0.10196 0.6392 0.0
H901 H 0.45504 0.10984 0.64028 0.0
C902 C 0.39796 0.08112 0.63204 0.0
C903 C 0.41908 0.11235 0.64238 0.0
C904 C 0.42037 0.13512 0.64959 0.0
C905 C 0.41796 0.07065 0.62763 0.0
C906 C 0.43873 0.08124 0.6306 0.0
C907 C 0.43905 0.10174 0.63812 0.0
C908 C 0.46013 0.07263 0.62466 0.0
C909 C 0.41671 0.04891 0.61922 0.0
C910 C 0.46912 0.05195 0.62917 0.0
C911 C 0.48923 0.04404 0.62318 0.0
C912 C 0.50059 0.05676 0.61262 0.0
C913 C 0.49164 0.07757 0.6083 0.0
C914 C 0.47164 0.08544 0.61429 0.0
H915 H 0.39926 0.04481 0.61586 0.0
H916 H 0.42745 0.04982 0.6094 0.0
H917 H 0.42305 0.03494 0.62607 0.0
H918 H 0.46061 0.04198 0.63732 0.0
H919 H 0.4958 0.02797 0.62673 0.0
H920 H 0.72156 0.74181 0.37028 0.0
H921 H 0.70864 0.70486 0.37884 0.0
H922 H 0.64087 0.72164 0.36633 0.0
H923 H 0.65362 0.75822 0.35757 0.0
H924 H 0.67586 0.69169 0.3993 0.0
H925 H 0.65367 0.66353 0.34394 0.0
H926 H 0.67074 0.68808 0.34732 0.0
H927 H 0.64062 0.68973 0.34867 0.0
C928 C 0.70389 0.73763 0.36947 0.0
C929 C 0.68862 0.75275 0.36312 0.0
C930 C 0.69655 0.71657 0.37435 0.0
C931 C 0.6739 0.71039 0.37291 0.0
C932 C 0.65851 0.7259 0.36721 0.0
H933 H 0.59056 0.60977 0.41096 0.0
H934 H 0.614 0.64259 0.40592 0.0
C935 C 0.66581 0.74683 0.36228 0.0
C936 C 0.66619 0.68758 0.37698 0.0
H937 H 0.63833 0.64206 0.36348 0.0
C938 C 0.66789 0.68066 0.39147 0.0
C939 C 0.65629 0.67304 0.36666 0.0
C940 C 0.65542 0.67885 0.35075 0.0
C941 C 0.65887 0.66001 0.39606 0.0
C942 C 0.64749 0.64623 0.38591 0.0
C943 C 0.64683 0.65271 0.3713 0.0
C944 C 0.63507 0.62565 0.3902 0.0
C945 C 0.66157 0.65321 0.4117 0.0
C946 C 0.6389 0.60525 0.38293 0.0
C947 C 0.62523 0.58659 0.38559 0.0
C948 C 0.60753 0.58799 0.39562 0.0
C949 C 0.60417 0.60817 0.40324 0.0
C950 C 0.6177 0.62689 0.40046 0.0
H951 H 0.67672 0.66109 0.41659 0.0
H952 H 0.64674 0.65906 0.41794 0.0
H953 H 0.66289 0.63467 0.41286 0.0
H954 H 0.65212 0.60395 0.3749 0.0
H955 H 0.62823 0.57123 0.37959 0.0
H956 H 0.14861 0.86367 0.16941 0.0
H957 H 0.11487 0.88639 0.16524 0.0
H958 H 0.12137 0.8758 0.1192 0.0
H959 H 0.15525 0.85343 0.12325 0.0
H960 H 0.11003 0.92023 0.12674 0.0
H961 H 0.0548 0.85739 0.15381 0.0
H962 H 0.07766 0.86807 0.16451 0.0
H963 H 0.08344 0.85119 0.14881 0.0
C964 C 0.14293 0.86635 0.1584 0.0
C965 C 0.15442 0.85663 0.14665 0.0
C966 C 0.12363 0.87925 0.15605 0.0
C967 C 0.11547 0.88246 0.14194 0.0
C968 C 0.12739 0.87346 0.13018 0.0
H969 H 0.98833 0.90594 0.10452 0.0
H970 H 0.02358 0.89236 0.11477 0.0
C971 C 0.1467 0.86064 0.13251 0.0
C972 C 0.094 0.89431 0.13933 0.0
H973 H 0.03731 0.88927 0.14386 0.0
C974 C 0.09412 0.91366 0.13061 0.0
C975 C 0.07331 0.88552 0.14432 0.0
C976 C 0.07213 0.86431 0.15329 0.0
C977 C 0.07401 0.92412 0.1264 0.0
C978 C 0.05332 0.91512 0.13122 0.0
C979 C 0.05325 0.89619 0.14029 0.0
C980 C 0.03156 0.92355 0.12571 0.0
C981 C 0.075 0.94403 0.11627 0.0
C982 C 0.02421 0.94552 0.12867 0.0
C983 C 0.004 0.95338 0.12278 0.0
C984 C 0.9909 0.93933 0.1139 0.0
C985 C 0.99809 0.91719 0.11128 0.0
C986 C 0.0182 0.90938 0.11715 0.0
H987 H 0.09204 0.94645 0.1116 0.0
H988 H 0.06281 0.94196 0.10726 0.0
H989 H 0.07042 0.95952 0.1223 0.0
H990 H 0.03414 0.95659 0.13545 0.0
H991 H -0.00119 0.97049 0.12502 0.0
H992 H 0.72141 0.75297 0.87338 0.0
H993 H 0.7085 0.78873 0.88379 0.0
H994 H 0.64403 0.77977 0.86324 0.0
H995 H 0.65666 0.74415 0.85294 0.0
H996 H 0.69269 0.82712 0.8687 0.0
H997 H 0.62791 0.79297 0.90571 0.0
H998 H 0.64979 0.77571 0.89794 0.0
H999 H 0.62514 0.78255 0.88754 0.0
C1000 C 0.70444 0.75858 0.87119 0.0
C1001 C 0.69 0.74575 0.8624 0.0
C1002 C 0.69712 0.77898 0.87712 0.0
C1003 C 0.67522 0.78667 0.87445 0.0
C1004 C 0.66084 0.77389 0.86567 0.0
H1005 H 0.6097 0.91268 0.87115 0.0
H1006 H 0.63321 0.87955 0.8673 0.0
C1007 C 0.66813 0.7536 0.85972 0.0
C1008 C 0.66741 0.80846 0.8803 0.0
H1009 H 0.62464 0.83209 0.89957 0.0
C1010 C 0.67804 0.82826 0.87565 0.0
C1011 C 0.64855 0.80986 0.88956 0.0
C1012 C 0.63731 0.78912 0.89561 0.0
C1013 C 0.66944 0.8495 0.87933 0.0
C1014 C 0.64955 0.85085 0.88767 0.0
C1015 C 0.63975 0.83105 0.89303 0.0
C1016 C 0.63763 0.87238 0.89013 0.0
C1017 C 0.68154 0.87025 0.87407 0.0
C1018 C 0.63217 0.87927 0.90423 0.0
C1019 C 0.61853 0.89809 0.90646 0.0
C1020 C 0.61003 0.91024 0.8946 0.0
C1021 C 0.61608 0.90371 0.8805 0.0
C1022 C 0.62967 0.88488 0.87829 0.0
H1023 H 0.69967 0.86683 0.87223 0.0
H1024 H 0.67415 0.87567 0.8636 0.0
H1025 H 0.67993 0.88432 0.88192 0.0
H1026 H 0.63802 0.86976 0.91351 0.0
H1027 H 0.61413 0.90273 0.91745 0.0
H1028 H 0.50398 0.40683 0.10187 0.0
H1029 H 0.46847 0.39382 0.11206 0.0
H1030 H 0.46261 0.4553 0.13658 0.0
H1031 H 0.49831 0.46862 0.1263 0.0
H1032 H 0.45722 0.38812 0.142 0.0
H1033 H 0.40235 0.44998 0.11363 0.0
H1034 H 0.43081 0.4444 0.1079 0.0
H1035 H 0.4257 0.46092 0.12382 0.0
C1036 C 0.49517 0.41762 0.10943 0.0
C1037 C 0.50386 0.43878 0.11325 0.0
C1038 C 0.47491 0.41013 0.11525 0.0
C1039 C 0.46287 0.42369 0.12495 0.0
C1040 C 0.47157 0.44474 0.12896 0.0
H1041 H 0.34704 0.3632 0.1695 0.0
H1042 H 0.38075 0.38592 0.16522 0.0
C1043 C 0.49196 0.45226 0.12314 0.0
C1044 C 0.44122 0.41544 0.13072 0.0
H1045 H 0.38448 0.42245 0.12787 0.0
C1046 C 0.44129 0.39577 0.13911 0.0
C1047 C 0.42056 0.42544 0.12678 0.0
C1048 C 0.41965 0.44628 0.11747 0.0
C1049 C 0.42118 0.38534 0.14328 0.0
C1050 C 0.40048 0.39509 0.13912 0.0
C1051 C 0.40041 0.41515 0.1311 0.0
C1052 C 0.37888 0.38354 0.14185 0.0
C1053 C 0.42226 0.36339 0.15149 0.0
C1054 C 0.36626 0.37545 0.13013 0.0
C1055 C 0.34697 0.3626 0.13253 0.0
C1056 C 0.33999 0.35768 0.14671 0.0
C1057 C 0.35214 0.36659 0.15845 0.0
C1058 C 0.37141 0.3795 0.15603 0.0
H1059 H 0.43942 0.35605 0.15143 0.0
H1060 H 0.41732 0.36632 0.16293 0.0
H1061 H 0.41042 0.35092 0.14679 0.0
H1062 H 0.37175 0.37844 0.1191 0.0
H1063 H 0.3379 0.35603 0.12327 0.0
H1064 H 0.89036 0.09942 0.42424 0.0
H1065 H 0.86745 0.13361 0.42249 0.0
H1066 H 0.862 0.12417 0.37627 0.0
H1067 H 0.88436 0.08992 0.37798 0.0
H1068 H 0.87779 0.17132 0.40794 0.0
H1069 H 0.79778 0.13805 0.38668 0.0
H1070 H 0.81901 0.12007 0.39452 0.0
H1071 H 0.82088 0.12862 0.37582 0.0
C1072 C 0.88396 0.10449 0.41375 0.0
C1073 C 0.8891 0.09201 0.40124 0.0
C1074 C 0.87088 0.12398 0.41277 0.0
C1075 C 0.86267 0.13121 0.39929 0.0
C1076 C 0.8676 0.11858 0.38684 0.0
H1077 H 0.84355 0.2574 0.36117 0.0
H1078 H 0.85651 0.22315 0.37304 0.0
C1079 C 0.88056 0.09911 0.38782 0.0
C1080 C 0.85073 0.15296 0.39787 0.0
H1081 H 0.80565 0.17731 0.3813 0.0
C1082 C 0.86178 0.17262 0.40239 0.0
C1083 C 0.82961 0.15467 0.39092 0.0
C1084 C 0.81604 0.13417 0.38687 0.0
C1085 C 0.85308 0.19396 0.39916 0.0
C1086 C 0.83311 0.19564 0.39094 0.0
C1087 C 0.82118 0.17602 0.3874 0.0
C1088 C 0.82549 0.21729 0.3847 0.0
C1089 C 0.86568 0.21449 0.40431 0.0
C1090 C 0.80356 0.22515 0.38707 0.0
C1091 C 0.796 0.24468 0.38015 0.0
C1092 C 0.81024 0.25652 0.37068 0.0
C1093 C 0.83224 0.24872 0.36847 0.0
C1094 C 0.83974 0.22924 0.37535 0.0
H1095 H 0.87527 0.21085 0.41437 0.0
H1096 H 0.87791 0.21966 0.39587 0.0
H1097 H 0.85412 0.22879 0.40641 0.0
H1098 H 0.79223 0.21604 0.39414 0.0
H1099 H 0.77893 0.25029 0.38202 0.0
H1100 H 0.15132 0.63246 0.66604 0.0
H1101 H 0.11875 0.60789 0.66237 0.0
H1102 H 0.12601 0.61495 0.61609 0.0
H1103 H 0.15872 0.63911 0.61966 0.0
H1104 H 0.0797 0.61985 0.64924 0.0
H1105 H 0.11706 0.54774 0.62011 0.0
H1106 H 0.13389 0.56803 0.62984 0.0
H1107 H 0.12426 0.574 0.61174 0.0
C1108 C 0.14617 0.62847 0.65508 0.0
C1109 C 0.15755 0.63767 0.64313 0.0
C1110 C 0.12758 0.61444 0.65301 0.0
C1111 C 0.12017 0.6093 0.63896 0.0
C1112 C 0.13177 0.6182 0.62702 0.0
H1113 H 0.00627 0.56784 0.5925 0.0
H1114 H 0.04226 0.58049 0.60225 0.0
C1115 C 0.15036 0.63216 0.62908 0.0
C1116 C 0.0992 0.59635 0.63669 0.0
H1117 H 0.07703 0.55292 0.61717 0.0
C1118 C 0.07914 0.60492 0.64249 0.0
C1119 C 0.09855 0.57683 0.62793 0.0
C1120 C 0.11965 0.56598 0.62218 0.0
C1121 C 0.05829 0.59532 0.639 0.0
C1122 C 0.05759 0.57661 0.62958 0.0
C1123 C 0.07769 0.56736 0.62434 0.0
C1124 C 0.0361 0.56789 0.62386 0.0
C1125 C 0.03707 0.60595 0.64476 0.0
C1126 C 0.02086 0.55642 0.63281 0.0
C1127 C 0.00023 0.5491 0.62725 0.0
C1128 C 0.9946 0.55325 0.6127 0.0
C1129 C 0.01008 0.56449 0.60377 0.0
C1130 C 0.03067 0.57165 0.6093 0.0
H1131 H 0.04044 0.62192 0.65063 0.0
H1132 H 0.02521 0.60941 0.63574 0.0
H1133 H 0.0287 0.59411 0.65233 0.0
H1134 H 0.02489 0.55325 0.64407 0.0
H1135 H 0.98862 0.54042 0.63436 0.0
H1136 H 0.59801 0.08713 0.62338 0.0
H1137 H 0.62094 0.12054 0.62778 0.0
H1138 H 0.635 0.12564 0.58205 0.0
H1139 H 0.6116 0.09242 0.57751 0.0
H1140 H 0.6657 0.12926 0.62197 0.0
H1141 H 0.60996 0.18773 0.59152 0.0
H1142 H 0.60142 0.15955 0.59629 0.0
H1143 H 0.62039 0.16409 0.58143 0.0
C1144 C 0.60603 0.09532 0.61426 0.0
C1145 C 0.60288 0.08729 0.60009 0.0
C1146 C 0.61915 0.11438 0.61679 0.0
C1147 C 0.62938 0.12575 0.60522 0.0
C1148 C 0.62686 0.11738 0.59109 0.0
H1149 H 0.70241 0.25441 0.61287 0.0
H1150 H 0.6891 0.21848 0.60281 0.0
C1151 C 0.6136 0.09835 0.58853 0.0
C1152 C 0.64231 0.14657 0.60809 0.0
H1153 H 0.64175 0.20345 0.60277 0.0
C1154 C 0.6606 0.14545 0.61766 0.0
C1155 C 0.63566 0.16767 0.60239 0.0
C1156 C 0.61569 0.16999 0.59243 0.0
C1157 C 0.67201 0.16494 0.62204 0.0
C1158 C 0.6648 0.18607 0.61679 0.0
C1159 C 0.6472 0.18715 0.60672 0.0
C1160 C 0.67371 0.20731 0.62279 0.0
C1161 C 0.69138 0.16289 0.63249 0.0
C1162 C 0.66919 0.21289 0.63725 0.0
C1163 C 0.67654 0.23333 0.64294 0.0
C1164 C 0.68859 0.24857 0.63428 0.0
C1165 C 0.69322 0.24293 0.61979 0.0
C1166 C 0.68566 0.22247 0.61405 0.0
H1167 H 0.69858 0.14564 0.63247 0.0
H1168 H 0.70488 0.17511 0.62981 0.0
H1169 H 0.68535 0.1666 0.64361 0.0
H1170 H 0.65967 0.20154 0.64408 0.0
H1171 H 0.67271 0.23721 0.65414 0.0
H1172 H 0.15307 0.36966 0.82886 0.0
H1173 H 0.12055 0.39373 0.83383 0.0
H1174 H 0.12808 0.38108 0.8796 0.0
H1175 H 0.16078 0.35751 0.87475 0.0
H1176 H 0.08162 0.38081 0.84612 0.0
H1177 H 0.11937 0.44829 0.87934 0.0
H1178 H 0.13615 0.42913 0.86869 0.0
H1179 H 0.1262 0.42102 0.88638 0.0
C1180 C 0.14797 0.37231 0.83999 0.0
C1181 C 0.15946 0.36175 0.85143 0.0
C1182 C 0.12942 0.38606 0.84281 0.0
C1183 C 0.12213 0.38952 0.8571 0.0
C1184 C 0.13377 0.37918 0.86852 0.0
H1185 H 0.00652 0.4232 0.90451 0.0
H1186 H 0.0425 0.41125 0.89436 0.0
C1187 C 0.15235 0.36555 0.86573 0.0
C1188 C 0.10124 0.40225 0.86007 0.0
H1189 H 0.07925 0.44288 0.88203 0.0
C1190 C 0.08115 0.39471 0.85373 0.0
C1191 C 0.10068 0.42046 0.86994 0.0
C1192 C 0.12181 0.43034 0.87635 0.0
C1193 C 0.06038 0.404 0.85767 0.0
C1194 C 0.05977 0.42124 0.86818 0.0
C1195 C 0.07987 0.42953 0.87403 0.0
C1196 C 0.03831 0.42935 0.87422 0.0
C1197 C 0.03909 0.3946 0.85118 0.0
C1198 C 0.0242 0.44361 0.86623 0.0
C1199 C 0.00362 0.45056 0.87203 0.0
C1200 C 0.99689 0.44321 0.88585 0.0
C1201 C 0.01121 0.42907 0.89382 0.0
C1202 C 0.03178 0.42228 0.88807 0.0
H1203 H 0.04238 0.38015 0.84385 0.0
H1204 H 0.02753 0.38905 0.85992 0.0
H1205 H 0.0304 0.40796 0.84492 0.0
H1206 H 0.02909 0.44925 0.85553 0.0
H1207 H 0.99291 0.46149 0.86567 0.0
H1208 H 0.90061 0.89006 0.08202 0.0
H1209 H 0.87834 0.8569 0.08819 0.0
H1210 H 0.8501 0.89219 0.12477 0.0
H1211 H 0.87301 0.92516 0.11894 0.0
H1212 H 0.86519 0.85285 0.13275 0.0
H1213 H 0.81357 0.84043 0.08367 0.0
H1214 H 0.84285 0.84194 0.07922 0.0
H1215 H 0.82901 0.86607 0.08697 0.0
C1216 C 0.88939 0.89086 0.09125 0.0
C1217 C 0.88857 0.91014 0.10003 0.0
C1218 C 0.87651 0.87195 0.09469 0.0
C1219 C 0.86223 0.87215 0.1068 0.0
C1220 C 0.86091 0.89169 0.11533 0.0
H1221 H 0.77717 0.75624 0.12884 0.0
H1222 H 0.78988 0.79357 0.12092 0.0
C1223 C 0.874 0.9105 0.112 0.0
C1224 C 0.85055 0.8513 0.11141 0.0
H1225 H 0.81786 0.80801 0.09923 0.0
C1226 C 0.85458 0.84324 0.12547 0.0
C1227 C 0.83642 0.83888 0.10202 0.0
C1228 C 0.83001 0.84742 0.08719 0.0
C1229 C 0.84566 0.8227 0.13018 0.0
C1230 C 0.83292 0.80949 0.12043 0.0
C1231 C 0.828 0.81797 0.1066 0.0
C1232 C 0.82518 0.78659 0.12432 0.0
C1233 C 0.84999 0.81538 0.1456 0.0
C1234 C 0.84086 0.77014 0.1284 0.0
C1235 C 0.83366 0.749 0.13303 0.0
C1236 C 0.81066 0.74377 0.13342 0.0
C1237 C 0.795 0.75986 0.12867 0.0
C1238 C 0.80223 0.78115 0.12416 0.0
H1239 H 0.8535 0.83001 0.15274 0.0
H1240 H 0.83546 0.80596 0.15009 0.0
H1241 H 0.86495 0.80424 0.14585 0.0
H1242 H 0.85869 0.77378 0.12821 0.0
H1243 H 0.84612 0.73683 0.13647 0.0
H1244 H 0.49558 0.5223 0.36932 0.0
H1245 H 0.45993 0.53438 0.35847 0.0
H1246 H 0.47405 0.60291 0.37092 0.0
H1247 H 0.50966 0.59109 0.38151 0.0
H1248 H 0.42491 0.55391 0.37279 0.0
H1249 H 0.45412 0.61057 0.32926 0.0
H1250 H 0.47255 0.59072 0.3381 0.0
H1251 H 0.46682 0.61764 0.34628 0.0
C1252 C 0.49122 0.53999 0.3695 0.0
C1253 C 0.50539 0.55578 0.37623 0.0
C1254 C 0.47087 0.54685 0.36333 0.0
C1255 C 0.46452 0.56958 0.36369 0.0
C1256 C 0.47887 0.58537 0.37019 0.0
H1257 H 0.34125 0.63778 0.37151 0.0
H1258 H 0.37458 0.61422 0.37412 0.0
C1259 C 0.49915 0.57856 0.37633 0.0
C1260 C 0.44214 0.57677 0.35846 0.0
H1261 H 0.4164 0.6171 0.33811 0.0
C1262 C 0.42299 0.56743 0.36499 0.0
C1263 C 0.43961 0.59409 0.34808 0.0
C1264 C 0.45939 0.60365 0.33992 0.0
C1265 C 0.40148 0.57601 0.36214 0.0
C1266 C 0.3992 0.59469 0.35276 0.0
C1267 C 0.41818 0.60299 0.34548 0.0
C1268 C 0.37773 0.60703 0.3512 0.0
C1269 C 0.3815 0.56523 0.36941 0.0
C1270 C 0.36858 0.61109 0.33743 0.0
C1271 C 0.34966 0.62481 0.3359 0.0
C1272 C 0.33965 0.63476 0.34812 0.0
C1273 C 0.34852 0.63023 0.36191 0.0
C1274 C 0.36747 0.61661 0.36343 0.0
H1275 H 0.38476 0.54722 0.37185 0.0
H1276 H 0.37819 0.57392 0.37984 0.0
H1277 H 0.3662 0.56645 0.36257 0.0
H1278 H 0.37634 0.604 0.32785 0.0
H1279 H 0.34319 0.62803 0.32513 0.0
H1280 H 0.38993 0.09855 0.07767 0.0
H1281 H 0.3692 0.1333 0.08273 0.0
H1282 H 0.37579 0.12124 0.12861 0.0
H1283 H 0.39628 0.0864 0.12366 0.0
H1284 H 0.33221 0.13515 0.11979 0.0
H1285 H 0.39966 0.19083 0.09835 0.0
H1286 H 0.38961 0.16947 0.08617 0.0
H1287 H 0.40433 0.16147 0.10236 0.0
C1288 C 0.38687 0.10327 0.08883 0.0
C1289 C 0.39484 0.08987 0.10028 0.0
C1290 C 0.37511 0.12314 0.09169 0.0
C1291 C 0.37125 0.12994 0.10603 0.0
C1292 C 0.37867 0.11628 0.11746 0.0
H1293 H 0.34455 0.25558 0.14648 0.0
H1294 H 0.35926 0.22042 0.13663 0.0
C1295 C 0.39041 0.09643 0.11462 0.0
C1296 C 0.36 0.15155 0.10924 0.0
H1297 H 0.36704 0.20847 0.10724 0.0
C1298 C 0.33968 0.15121 0.11695 0.0
C1299 C 0.36996 0.17241 0.10559 0.0
C1300 C 0.39218 0.17372 0.09776 0.0
C1301 C 0.32921 0.17123 0.12134 0.0
C1302 C 0.33925 0.19207 0.11777 0.0
C1303 C 0.35935 0.19242 0.10984 0.0
C1304 C 0.33021 0.21364 0.12323 0.0
C1305 C 0.30799 0.16995 0.13024 0.0
C1306 C 0.30911 0.22159 0.11879 0.0
C1307 C 0.30062 0.24174 0.12442 0.0
C1308 C 0.31317 0.25419 0.13453 0.0
C1309 C 0.33446 0.24633 0.13873 0.0
C1310 C 0.34291 0.22628 0.1331 0.0
H1311 H 0.30466 0.15262 0.13423 0.0
H1312 H 0.309 0.18147 0.1397 0.0
H1313 H 0.2935 0.17528 0.1235 0.0
H1314 H 0.29921 0.2122 0.11102 0.0
H1315 H 0.28419 0.24745 0.12096 0.0
H1316 H 0.49324 0.59334 0.89464 0.0
H1317 H 0.52847 0.6069 0.88428 0.0
H1318 H 0.53709 0.54386 0.86183 0.0
H1319 H 0.50169 0.53004 0.87223 0.0
H1320 H 0.5759 0.55954 0.87741 0.0
H1321 H 0.53998 0.62524 0.84164 0.0
H1322 H 0.52983 0.62663 0.85994 0.0
H1323 H 0.52339 0.60246 0.84897 0.0
C1324 C 0.50255 0.58238 0.88744 0.0
C1325 C 0.4947 0.56066 0.88419 0.0
C1326 C 0.52261 0.5902 0.88148 0.0
C1327 C 0.53516 0.57648 0.87214 0.0
C1328 C 0.5275 0.55472 0.86894 0.0
H1329 H 0.65012 0.63716 0.82767 0.0
H1330 H 0.6167 0.61418 0.83227 0.0
C1331 C 0.50731 0.54689 0.87486 0.0
C1332 C 0.55667 0.58484 0.86622 0.0
H1333 H 0.57923 0.6283 0.84699 0.0
C1334 C 0.57668 0.57437 0.87057 0.0
C1335 C 0.55757 0.60396 0.85714 0.0
C1336 C 0.53654 0.61512 0.85152 0.0
C1337 C 0.59768 0.58331 0.86671 0.0
C1338 C 0.59855 0.60334 0.85845 0.0
C1339 C 0.57852 0.61306 0.85344 0.0
C1340 C 0.6199 0.61532 0.85561 0.0
C1341 C 0.6187 0.57139 0.87164 0.0
C1342 C 0.63275 0.62354 0.86721 0.0
C1343 C 0.6518 0.63664 0.86462 0.0
C1344 C 0.65823 0.6419 0.85038 0.0
C1345 C 0.64557 0.63335 0.83876 0.0
C1346 C 0.6265 0.62023 0.84137 0.0
H1347 H 0.61547 0.55326 0.87374 0.0
H1348 H 0.63231 0.57291 0.86348 0.0
H1349 H 0.62462 0.57909 0.88191 0.0
H1350 H 0.62765 0.6204 0.8783 0.0
H1351 H 0.66118 0.64308 0.87379 0.0
H1352 H 0.21912 0.75476 0.62147 0.0
H1353 H 0.20597 0.79136 0.61251 0.0
H1354 H 0.13782 0.7731 0.62318 0.0
H1355 H 0.15079 0.73679 0.6323 0.0
H1356 H 0.17328 0.80397 0.59114 0.0
H1357 H 0.14942 0.83112 0.6465 0.0
H1358 H 0.16711 0.80701 0.64316 0.0
H1359 H 0.13711 0.80476 0.64128 0.0
C1360 C 0.20132 0.7585 0.62176 0.0
C1361 C 0.18599 0.74306 0.62773 0.0
C1362 C 0.19385 0.77937 0.61664 0.0
C1363 C 0.171 0.78503 0.61745 0.0
C1364 C 0.15559 0.76918 0.62274 0.0
H1365 H 0.08947 0.88865 0.58027 0.0
H1366 H 0.11191 0.85492 0.58474 0.0
C1367 C 0.16301 0.74843 0.6279 0.0
C1368 C 0.16319 0.8078 0.6134 0.0
H1369 H 0.13569 0.85344 0.627 0.0
C1370 C 0.16525 0.81493 0.59897 0.0
C1371 C 0.15316 0.82221 0.62373 0.0
C1372 C 0.15174 0.81602 0.63956 0.0
C1373 C 0.15661 0.8358 0.59446 0.0
C1374 C 0.14536 0.8496 0.60464 0.0
C1375 C 0.14416 0.84279 0.61918 0.0
C1376 C 0.13379 0.87072 0.60049 0.0
C1377 C 0.15962 0.84284 0.57889 0.0
C1378 C 0.13854 0.8908 0.60789 0.0
C1379 C 0.12552 0.90999 0.60551 0.0
C1380 C 0.10752 0.90944 0.59568 0.0
C1381 C 0.10332 0.88959 0.58786 0.0
C1382 C 0.11625 0.87035 0.59032 0.0
H1383 H 0.17437 0.83441 0.57389 0.0
H1384 H 0.1445 0.83791 0.57261 0.0
H1385 H 0.1618 0.86134 0.57794 0.0
H1386 H 0.15193 0.89143 0.61584 0.0
H1387 H 0.12917 0.92507 0.61168 0.0
H1388 H 0.9913 0.47319 0.37911 0.0
H1389 H 0.95436 0.45994 0.37082 0.0
H1390 H 0.97381 0.39154 0.38011 0.0
H1391 H 0.01036 0.4046 0.38864 0.0
H1392 H 0.94094 0.42926 0.34941 0.0
H1393 H 0.91677 0.39973 0.40411 0.0
H1394 H 0.94066 0.41781 0.40102 0.0
H1395 H 0.94294 0.38794 0.39816 0.0
C1396 C 0.9877 0.45532 0.37928 0.0
C1397 C 0.00357 0.43993 0.38467 0.0
C1398 C 0.96664 0.4478 0.37455 0.0
C1399 C 0.96122 0.42483 0.37517 0.0
C1400 C 0.97747 0.40939 0.37989 0.0
H1401 H 0.86012 0.34361 0.33535 0.0
H1402 H 0.89279 0.36705 0.34076 0.0
C1403 C -0.00162 0.41688 0.38469 0.0
C1404 C 0.93848 0.41681 0.37126 0.0
H1405 H 0.89465 0.38602 0.38438 0.0
C1406 C 0.93064 0.42003 0.35707 0.0
C1407 C 0.92487 0.40524 0.38138 0.0
C1408 C 0.93162 0.40267 0.39706 0.0
C1409 C 0.90999 0.41098 0.35254 0.0
C1410 C 0.89716 0.39801 0.3624 0.0
C1411 C 0.90456 0.39574 0.37676 0.0
C1412 C 0.87659 0.38567 0.35802 0.0
C1413 C 0.90217 0.41541 0.33726 0.0
C1414 C 0.85667 0.38809 0.36603 0.0
C1415 C 0.83813 0.37439 0.36314 0.0
C1416 C 0.83916 0.35807 0.35215 0.0
C1417 C 0.85882 0.35615 0.34383 0.0
C1418 C 0.87744 0.36969 0.34682 0.0
H1419 H 0.90937 0.43133 0.33298 0.0
H1420 H 0.90793 0.40152 0.33014 0.0
H1421 H 0.88356 0.41639 0.33664 0.0
H1422 H 0.85567 0.40023 0.37476 0.0
H1423 H 0.82317 0.37627 0.3697 0.0
H1424 H 0.35055 0.7321 0.35471 0.0
H1425 H 0.36705 0.7671 0.36353 0.0
H1426 H 0.30235 0.78807 0.37968 0.0
H1427 H 0.28575 0.75271 0.37112 0.0
H1428 H 0.35577 0.80914 0.3546 0.0
H1429 H 0.34345 0.80116 0.41401 0.0
H1430 H 0.34061 0.7776 0.4018 0.0
H1431 H 0.31829 0.79779 0.40349 0.0
C1432 C 0.33986 0.74403 0.36029 0.0
C1433 C 0.31686 0.73969 0.36223 0.0
C1434 C 0.34932 0.76403 0.36532 0.0
C1435 C 0.33599 0.7801 0.37238 0.0
C1436 C 0.31304 0.7757 0.37452 0.0
H1437 H 0.37568 0.92077 0.3793 0.0
H1438 H 0.35577 0.88567 0.37411 0.0
C1439 C 0.30356 0.75557 0.36956 0.0
C1440 C 0.34599 0.80198 0.37659 0.0
H1441 H 0.35682 0.83637 0.4054 0.0
C1442 C 0.35601 0.81509 0.36571 0.0
C1443 C 0.34644 0.80959 0.3911 0.0
C1444 C 0.33681 0.79574 0.40331 0.0
C1445 C 0.36651 0.8356 0.36894 0.0
C1446 C 0.36653 0.84347 0.3834 0.0
C1447 C 0.35657 0.83036 0.3943 0.0
C1448 C 0.37744 0.86498 0.38742 0.0
C1449 C 0.37799 0.84834 0.35688 0.0
C1450 C 0.39569 0.86509 0.39704 0.0
C1451 C 0.40698 0.88516 0.40013 0.0
C1452 C 0.40016 0.90542 0.39363 0.0
C1453 C 0.38145 0.90537 0.38435 0.0
C1454 C 0.37011 0.88533 0.38134 0.0
H1455 H 0.38142 0.83739 0.34737 0.0
H1456 H 0.36694 0.86227 0.35324 0.0
H1457 H 0.39412 0.85572 0.36063 0.0
H1458 H 0.40155 0.84956 0.40189 0.0
H1459 H 0.4213 0.88472 0.40736 0.0
H1460 H 0.02094 0.56636 0.13692 0.0
H1461 H 0.98677 0.58209 0.14769 0.0
H1462 H 0.94641 0.54418 0.11749 0.0
H1463 H 0.98037 0.52822 0.10683 0.0
H1464 H 0.95821 0.60837 0.13182 0.0
H1465 H 0.91139 0.53644 0.15508 0.0
H1466 H 0.94099 0.535 0.15082 0.0
H1467 H 0.9203 0.53138 0.13679 0.0
C1468 C 0.00475 0.56094 0.13284 0.0
C1469 C 0.0033 0.54616 0.12099 0.0
C1470 C 0.98527 0.56994 0.13899 0.0
C1471 C 0.96406 0.56414 0.13348 0.0
C1472 C 0.96256 0.54852 0.12213 0.0
H1473 H 0.84504 0.64252 0.12428 0.0
H1474 H 0.87921 0.61998 0.12177 0.0
C1475 C 0.98201 0.53954 0.11597 0.0
C1476 C 0.94378 0.57659 0.13815 0.0
H1477 H 0.88975 0.56976 0.14982 0.0
C1478 C 0.94337 0.59996 0.13598 0.0
C1479 C 0.92447 0.56562 0.14363 0.0
C1480 C 0.92434 0.54075 0.14686 0.0
C1481 C 0.92386 0.61252 0.13853 0.0
C1482 C 0.9042 0.60135 0.1432 0.0
C1483 C 0.90483 0.57817 0.14603 0.0
C1484 C 0.8827 0.61353 0.14473 0.0
C1485 C 0.92433 0.63761 0.13602 0.0
C1486 C 0.8731 0.61676 0.15843 0.0
C1487 C 0.85358 0.62965 0.1599 0.0
C1488 C 0.84334 0.63932 0.14766 0.0
C1489 C 0.85261 0.63536 0.1339 0.0
C1490 C 0.87213 0.62256 0.13245 0.0
H1491 H 0.94177 0.64427 0.13585 0.0
H1492 H 0.91646 0.6414 0.12539 0.0
H1493 H 0.91468 0.64658 0.14454 0.0
H1494 H 0.88102 0.60982 0.168 0.0
H1495 H 0.84676 0.63237 0.17064 0.0
H1496 H 0.15242 0.26527 0.86035 0.0
H1497 H 0.13833 0.2293 0.86932 0.0
H1498 H 0.20636 0.20539 0.87423 0.0
H1499 H 0.22059 0.24175 0.86569 0.0
H1500 H 0.14384 0.18938 0.85683 0.0
H1501 H 0.17919 0.18665 0.91243 0.0
H1502 H 0.17892 0.212 0.90167 0.0
H1503 H 0.19989 0.19077 0.89854 0.0
C1504 C 0.16438 0.25245 0.86352 0.0
C1505 C 0.18759 0.25627 0.86234 0.0
C1506 C 0.15632 0.23191 0.86864 0.0
C1507 C 0.17128 0.21471 0.87258 0.0
C1508 C 0.19451 0.21857 0.87157 0.0
H1509 H 0.12325 0.07585 0.87611 0.0
H1510 H 0.14492 0.1097 0.87033 0.0
C1511 C 0.20262 0.23929 0.86661 0.0
C1512 C 0.16233 0.19238 0.87679 0.0
H1513 H 0.16149 0.15333 0.90393 0.0
C1514 C 0.1477 0.1815 0.86714 0.0
C1515 C 0.16728 0.18221 0.89028 0.0
C1516 C 0.18201 0.19358 0.9014 0.0
C1517 C 0.13765 0.16089 0.87064 0.0
C1518 C 0.14294 0.15047 0.88399 0.0
C1519 C 0.15769 0.16124 0.89363 0.0
C1520 C 0.13225 0.12905 0.88844 0.0
C1521 C 0.12082 0.15094 0.86019 0.0
C1522 C 0.11892 0.12832 0.90097 0.0
C1523 C 0.10685 0.10889 0.90443 0.0
C1524 C 0.10781 0.08994 0.89536 0.0
C1525 C 0.12199 0.09033 0.88319 0.0
C1526 C 0.13428 0.10967 0.87984 0.0
H1527 H 0.11436 0.16372 0.85246 0.0
H1528 H 0.12904 0.13744 0.8538 0.0
H1529 H 0.10632 0.1435 0.86606 0.0
H1530 H 0.11721 0.14305 0.90779 0.0
H1531 H 0.0961 0.10903 0.9139 0.0
H1532 H 0.49179 0.45659 0.62878 0.0
H1533 H 0.52749 0.44192 0.63827 0.0
H1534 H 0.53866 0.40655 0.59813 0.0
H1535 H 0.50322 0.42099 0.58862 0.0
H1536 H 0.53948 0.39427 0.64058 0.0
H1537 H 0.59781 0.44245 0.60543 0.0
H1538 H 0.56908 0.45099 0.60855 0.0
H1539 H 0.57525 0.42888 0.59588 0.0
C1540 C 0.50196 0.44579 0.62198 0.0
C1541 C 0.49477 0.43995 0.60796 0.0
C1542 C 0.52228 0.43745 0.6274 0.0
C1543 C 0.53578 0.42344 0.6188 0.0
C1544 C 0.52864 0.41766 0.60482 0.0
H1545 H 0.65274 0.34167 0.62042 0.0
H1546 H 0.61961 0.36451 0.61509 0.0
C1547 C 0.50832 0.42582 0.59945 0.0
C1548 C 0.55691 0.41387 0.62453 0.0
H1549 H 0.61309 0.41048 0.61761 0.0
C1550 C 0.55567 0.39803 0.63576 0.0
C1551 C 0.5779 0.41886 0.61815 0.0
C1552 C 0.58022 0.43637 0.60641 0.0
C1553 C 0.57478 0.3861 0.64027 0.0
C1554 C 0.59569 0.39055 0.63355 0.0
C1555 C 0.59703 0.40704 0.6227 0.0
C1556 C 0.61609 0.37729 0.63693 0.0
C1557 C 0.5722 0.36806 0.65167 0.0
C1558 C 0.62527 0.37716 0.65094 0.0
C1559 C 0.64413 0.36398 0.65403 0.0
C1560 C 0.65422 0.35093 0.64313 0.0
C1561 C 0.64529 0.35151 0.62905 0.0
C1562 C 0.6264 0.36458 0.62599 0.0
H1563 H 0.55432 0.36336 0.65336 0.0
H1564 H 0.58175 0.35272 0.64864 0.0
H1565 H 0.57894 0.37436 0.66211 0.0
H1566 H 0.61784 0.38722 0.65947 0.0
H1567 H 0.65077 0.36399 0.66496 0.0
H1568 H 0.2949 0.30365 0.20586 0.0
H1569 H 0.28558 0.28639 0.22917 0.0
H1570 H 0.23465 0.24602 0.20844 0.0
H1571 H 0.244 0.26304 0.18504 0.0
H1572 H 0.24335 0.28622 0.24343 0.0
H1573 H 0.27305 0.19975 0.23078 0.0
H1574 H 0.28097 0.22394 0.2201 0.0
H1575 H 0.25366 0.21152 0.21792 0.0
C1576 C 0.28175 0.29106 0.20626 0.0
C1577 C 0.27022 0.28461 0.19365 0.0
C1578 C 0.27645 0.28124 0.21957 0.0
C1579 C 0.25967 0.26473 0.22045 0.0
C1580 C 0.24795 0.25844 0.20791 0.0
H1581 H 0.20355 0.188 0.29178 0.0
H1582 H 0.21254 0.20409 0.26804 0.0
C1583 C 0.25321 0.26826 0.19459 0.0
C1584 C 0.25412 0.25449 0.23458 0.0
H1585 H 0.25396 0.20477 0.25307 0.0
C1586 C 0.24572 0.26843 0.24557 0.0
C1587 C 0.25719 0.23128 0.23726 0.0
C1588 C 0.26689 0.21573 0.22596 0.0
C1589 C 0.24004 0.2597 0.2592 0.0
C1590 C 0.24326 0.23651 0.26192 0.0
C1591 C 0.25154 0.22254 0.2509 0.0
C1592 C 0.23826 0.22648 0.2762 0.0
C1593 C 0.23027 0.27529 0.27046 0.0
C1594 C 0.25008 0.23347 0.28855 0.0
C1595 C 0.24498 0.22436 0.30209 0.0
C1596 C 0.22808 0.20799 0.30347 0.0
C1597 C 0.21662 0.20064 0.29103 0.0
C1598 C 0.22172 0.20978 0.27749 0.0
H1599 H 0.22356 0.29096 0.26553 0.0
H1600 H 0.21657 0.26689 0.27659 0.0
H1601 H 0.24363 0.28009 0.27826 0.0
H1602 H 0.26322 0.24602 0.28772 0.0
H1603 H 0.25418 0.23025 0.31149 0.0
H1604 H 0.00102 0.97763 0.56036 0.0
H1605 H 0.98518 0.98704 0.5367 0.0
H1606 H 0.05197 0.99118 0.51871 0.0
H1607 H 0.0679 0.98106 0.54229 0.0
H1608 H 0.99044 0.02429 0.52055 0.0
H1609 H 0.0213 0.94993 0.49017 0.0
H1610 H 0.02238 0.9516 0.50967 0.0
H1611 H 0.04329 0.96559 0.49885 0.0
C1612 C 0.01232 0.98042 0.55134 0.0
C1613 C 0.03568 0.97849 0.55311 0.0
C1614 C 0.00325 0.98582 0.53784 0.0
C1615 C 0.01737 0.98948 0.5259 0.0
C1616 C 0.04074 0.98787 0.5277 0.0
H1617 H 0.97524 0.05604 0.44626 0.0
H1618 H 0.99198 0.04698 0.46977 0.0
C1619 C 0.04982 0.98222 0.54117 0.0
C1620 C 0.00754 0.99547 0.51168 0.0
H1621 H 0.00467 0.97916 0.47629 0.0
C1622 C 0.99349 0.0144 0.51087 0.0
C1623 C 0.01135 0.98237 0.49913 0.0
C1624 C 0.02522 0.96112 0.49948 0.0
C1625 C 0.9832 0.02067 0.49781 0.0
C1626 C 0.98756 0.00796 0.48517 0.0
C1627 C 0.00153 0.98898 0.48599 0.0
C1628 C 0.97735 0.01368 0.47102 0.0
C1629 C 0.96734 0.04047 0.49778 0.0
C1630 C 0.96402 0.99777 0.46379 0.0
C1631 C 0.9547 0.00278 0.4503 0.0
C1632 C 0.95853 0.02383 0.44382 0.0
C1633 C 0.97186 0.03976 0.45107 0.0
C1634 C 0.98133 0.03466 0.46453 0.0
H1635 H 0.9611 0.04436 0.50884 0.0
H1636 H 0.97632 0.05554 0.49368 0.0
H1637 H 0.95267 0.03729 0.49063 0.0
H1638 H 0.96082 0.98145 0.4686 0.0
H1639 H 0.94452 0.99016 0.44494 0.0
H1640 H 0.19066 0.69971 0.69976 0.0
H1641 H 0.19708 0.71769 0.72327 0.0
H1642 H 0.25448 0.75267 0.70575 0.0
H1643 H 0.24807 0.73493 0.68219 0.0
H1644 H 0.23636 0.71445 0.74021 0.0
H1645 H 0.21785 0.80302 0.72527 0.0
H1646 H 0.20928 0.77945 0.71422 0.0
H1647 H 0.23782 0.78928 0.71368 0.0
C1648 C 0.20457 0.71133 0.7009 0.0
C1649 C 0.21886 0.71596 0.68915 0.0
C1650 C 0.20819 0.72158 0.71431 0.0
C1651 C 0.22604 0.73673 0.71615 0.0
C1652 C 0.24034 0.74137 0.70445 0.0
H1653 H 0.28643 0.80818 0.78741 0.0
H1654 H 0.27509 0.79322 0.76381 0.0
C1655 C 0.23675 0.73111 0.69104 0.0
C1656 C 0.23039 0.74683 0.73051 0.0
H1657 H 0.23474 0.79698 0.74831 0.0
C1658 C 0.23583 0.73247 0.74204 0.0
C1659 C 0.22973 0.77035 0.73279 0.0
C1660 C 0.22316 0.78645 0.72088 0.0
C1661 C 0.24125 0.74105 0.75575 0.0
C1662 C 0.24075 0.76458 0.75802 0.0
C1663 C 0.23509 0.77894 0.74652 0.0
C1664 C 0.24665 0.77461 0.77217 0.0
C1665 C 0.24815 0.72487 0.76755 0.0
C1666 C 0.23406 0.76952 0.7846 0.0
C1667 C 0.24056 0.77794 0.79808 0.0
C1668 C 0.25963 0.79176 0.79932 0.0
C1669 C 0.27171 0.79751 0.78678 0.0
C1670 C 0.26525 0.78901 0.77331 0.0
H1671 H 0.25299 0.70819 0.7631 0.0
H1672 H 0.26249 0.73166 0.77389 0.0
H1673 H 0.23383 0.72231 0.77506 0.0
H1674 H 0.21937 0.75882 0.78388 0.0
H1675 H 0.23083 0.77338 0.80756 0.0
H1676 H 0.47477 0.98316 0.05943 0.0
H1677 H 0.49065 0.97318 0.03579 0.0
H1678 H 0.45623 0.02937 0.01626 0.0
H1679 H 0.44044 0.03956 0.03983 0.0
H1680 H 0.46816 0.96342 0.00893 0.0
H1681 H 0.52306 0.03885 0.00544 0.0
H1682 H 0.51033 0.02972 0.0222 0.0
H1683 H 0.49399 0.04478 0.00901 0.0
C1684 C 0.47053 0.99333 0.05008 0.0
C1685 C 0.4565 0.01222 0.05147 0.0
C1686 C 0.47959 0.9876 0.03661 0.0
C1687 C 0.47486 0.00076 0.02438 0.0
C1688 C 0.46038 0.01926 0.02566 0.0
H1689 H 0.51458 0.0013 0.93455 0.0
H1690 H 0.49768 0.00833 0.95828 0.0
C1691 C 0.4513 0.02499 0.0391 0.0
C1692 C 0.4852 0.9953 0.01027 0.0
H1693 H 0.52044 0.01615 0.9844 0.0
C1694 C 0.47968 0.97485 0.00357 0.0
C1695 C 0.50024 0.01029 0.00338 0.0
C1696 C 0.50746 0.03206 0.0104 0.0
C1697 C 0.48841 0.96922 0.98992 0.0
C1698 C 0.50329 0.98432 0.98297 0.0
C1699 C 0.50895 0.00467 0.98975 0.0
C1700 C 0.51306 0.97949 0.96859 0.0
C1701 C 0.48119 0.94748 0.98288 0.0
C1702 C 0.52743 0.96105 0.9666 0.0
C1703 C 0.5371 0.95698 0.95306 0.0
C1704 C 0.53264 0.9714 0.94134 0.0
C1705 C 0.5183 0.9899 0.94338 0.0
C1706 C 0.50864 0.99394 0.95691 0.0
H1707 H 0.46574 0.94054 0.98795 0.0
H1708 H 0.47806 0.94992 0.97112 0.0
H1709 H 0.49477 0.93484 0.9841 0.0
H1710 H 0.53139 0.94997 0.97556 0.0
H1711 H 0.54817 0.94265 0.9518 0.0
H1712 H 0.2978 0.69303 0.29144 0.0
H1713 H 0.28804 0.70975 0.26805 0.0
H1714 H 0.23484 0.74756 0.28838 0.0
H1715 H 0.24435 0.73073 0.31181 0.0
H1716 H 0.22211 0.72508 0.26265 0.0
H1717 H 0.30022 0.77492 0.25517 0.0
H1718 H 0.30469 0.74561 0.25896 0.0
H1719 H 0.29205 0.76333 0.27247 0.0
C1720 C 0.28406 0.70495 0.29093 0.0
C1721 C 0.27186 0.71065 0.30344 0.0
C1722 C 0.2786 0.71457 0.27759 0.0
C1723 C 0.26096 0.73012 0.27657 0.0
C1724 C 0.2486 0.73568 0.289 0.0
H1725 H 0.19957 0.80408 0.20578 0.0
H1726 H 0.20953 0.78817 0.22937 0.0
C1727 C 0.25406 0.72607 0.30236 0.0
C1728 C 0.255 0.74015 0.26243 0.0
H1729 H 0.27542 0.77291 0.23507 0.0
C1730 C 0.23368 0.73564 0.25664 0.0
C1731 C 0.27022 0.75385 0.25465 0.0
C1732 C 0.29301 0.75992 0.26065 0.0
C1733 C 0.22729 0.74416 0.24308 0.0
C1734 C 0.24252 0.75784 0.23529 0.0
C1735 C 0.26383 0.76238 0.2411 0.0
C1736 C 0.23664 0.76763 0.22107 0.0
C1737 C 0.20451 0.73806 0.23707 0.0
C1738 C 0.24897 0.76174 0.2087 0.0
C1739 C 0.24341 0.77088 0.19523 0.0
C1740 C 0.2255 0.78615 0.19396 0.0
C1741 C 0.21338 0.79226 0.20642 0.0
C1742 C 0.21896 0.78311 0.21988 0.0
H1743 H 0.19723 0.72317 0.24264 0.0
H1744 H 0.19286 0.75243 0.23865 0.0
H1745 H 0.20553 0.73447 0.22529 0.0
H1746 H 0.26277 0.7499 0.20944 0.0
H1747 H 0.25306 0.76592 0.18581 0.0
H1748 H 0.46837 0.01189 0.43747 0.0
H1749 H 0.48288 0.01868 0.46184 0.0
H1750 H 0.45256 0.95692 0.47666 0.0
H1751 H 0.4378 0.95 0.45223 0.0
H1752 H 0.44739 0.99582 0.49574 0.0
H1753 H 0.53563 0.98086 0.47868 0.0
H1754 H 0.52064 0.00098 0.46784 0.0
H1755 H 0.51184 0.97206 0.46794 0.0
C1756 C 0.46461 -0.00017 0.44593 0.0
C1757 C 0.4521 0.98032 0.44294 0.0
C1758 C 0.473 0.0037 0.45982 0.0
C1759 C 0.46909 0.9881 0.47092 0.0
C1760 C 0.45584 0.96906 0.46816 0.0
H1761 H 0.51304 0.98666 0.56128 0.0
H1762 H 0.495 0.97743 0.53818 0.0
C1763 C 0.44743 0.96515 0.45423 0.0
C1764 C 0.47942 0.99148 0.4853 0.0
H1765 H 0.53017 0.99591 0.50223 0.0
C1766 C 0.46547 0.99567 0.49723 0.0
C1767 C 0.503 0.9912 0.48713 0.0
C1768 C 0.5187 0.98584 0.47476 0.0
C1769 C 0.47457 0.0004 0.51093 0.0
C1770 C 0.49818 0.00051 0.5127 0.0
C1771 C 0.51208 0.99589 0.5008 0.0
C1772 C 0.50892 0.00597 0.5267 0.0
C1773 C 0.4589 0.00596 0.52327 0.0
C1774 C 0.52314 0.02472 0.52776 0.0
C1775 C 0.5336 0.02991 0.54088 0.0
C1776 C 0.53006 0.01637 0.55314 0.0
C1777 C 0.51599 0.99744 0.55202 0.0
C1778 C 0.50556 0.99224 0.53887 0.0
H1779 H 0.44177 0.01026 0.51937 0.0
H1780 H 0.45749 0.99114 0.53053 0.0
H1781 H 0.46547 0.02027 0.52974 0.0
H1782 H 0.52603 0.03543 0.51845 0.0
H1783 H 0.54436 0.04459 0.54142 0.0
H1784 H 0.25321 0.27051 0.8092 0.0
H1785 H 0.26149 0.25528 0.78519 0.0
H1786 H 0.20547 0.29201 0.76734 0.0
H1787 H 0.19687 0.30714 0.79141 0.0
H1788 H 0.20745 0.24682 0.75858 0.0
H1789 H 0.28957 0.2895 0.75119 0.0
H1790 H 0.28746 0.27388 0.76778 0.0
H1791 H 0.26964 0.2979 0.7649 0.0
C1792 C 0.2427 0.27541 0.80016 0.0
C1793 C 0.22446 0.29009 0.80214 0.0
C1794 C 0.24753 0.26679 0.78645 0.0
C1795 C 0.23432 0.27285 0.77448 0.0
C1796 C 0.21594 0.28729 0.77645 0.0
H1797 H 0.23965 0.2334 0.68354 0.0
H1798 H 0.22932 0.25061 0.70671 0.0
C1799 C 0.21107 0.29591 0.79018 0.0
C1800 C 0.23943 0.26362 0.75999 0.0
H1801 H 0.28067 0.2604 0.7344 0.0
C1802 C 0.22336 0.24992 0.75321 0.0
C1803 C 0.26021 0.26777 0.75306 0.0
C1804 C 0.27764 0.28324 0.75953 0.0
C1805 C 0.22781 0.23966 0.73983 0.0
C1806 C 0.24874 0.2435 0.73304 0.0
C1807 C 0.26468 0.25745 0.73971 0.0
C1808 C 0.25464 0.2329 0.71908 0.0
C1809 C 0.21037 0.22432 0.73324 0.0
C1810 C 0.27249 0.21756 0.71839 0.0
C1811 C 0.27846 0.20776 0.7052 0.0
C1812 C 0.26674 0.2133 0.69248 0.0
C1813 C 0.24891 0.22876 0.69319 0.0
C1814 C 0.24292 0.23852 0.7064 0.0
H1815 H 0.19729 0.2194 0.74122 0.0
H1816 H 0.20198 0.23314 0.72414 0.0
H1817 H 0.21832 0.20884 0.72887 0.0
H1818 H 0.28177 0.21313 0.72808 0.0
H1819 H 0.2923 0.19594 0.70496 0.0
H1820 H 0.06094 0.03913 0.95464 0.0
H1821 H 0.04477 0.02965 0.97826 0.0
H1822 H 0.99375 0.9898 0.9572 0.0
H1823 H 0.00993 -0.00099 0.93356 0.0
H1824 H 0.00041 0.03831 0.98782 0.0
H1825 H 0.01992 0.94689 0.9879 0.0
H1826 H 0.03334 0.96647 0.9757 0.0
H1827 H 0.00533 0.95669 0.97208 0.0
C1828 C 0.04636 0.02824 0.95506 0.0
C1829 C 0.03673 0.01972 0.94229 0.0
C1830 C 0.03714 0.02288 0.96854 0.0
C1831 C 0.01828 0.0088 0.96945 0.0
C1832 C 0.00858 0.00035 0.95671 0.0
H1833 H 0.93601 0.95951 0.0401 0.0
H1834 H 0.9522 0.96871 0.01644 0.0
C1835 C 0.01776 0.00571 0.94323 0.0
C1836 C 0.00832 0.00354 0.98371 0.0
H1837 H 0.99637 0.96026 0.00675 0.0
C1838 C -0.0004 0.02127 0.99201 0.0
C1839 C 0.00726 0.98128 0.98907 0.0
C1840 C 0.01712 0.96173 0.9808 0.0
C1841 C 0.9895 0.01729 0.00549 0.0
C1842 C 0.98847 0.99503 0.01086 0.0
C1843 C 0.99717 0.9773 0.00256 0.0
C1844 C 0.97858 0.9898 0.02515 0.0
C1845 C 0.97961 0.03685 0.01374 0.0
C1846 C 0.98822 -0.00153 0.03785 0.0
C1847 C 0.97901 0.99328 0.05135 0.0
C1848 C 0.96009 0.97922 0.05236 0.0
C1849 C 0.95055 0.97044 0.03963 0.0
C1850 C 0.95978 0.97565 0.02613 0.0
H1851 H 0.97666 0.05162 0.0066 0.0
H1852 H 0.96346 0.03207 0.01892 0.0
H1853 H 0.99146 0.04203 0.0224 0.0
H1854 H 0.003 0.00907 0.03732 0.0
H1855 H 0.98679 0.00017 0.06099 0.0
H1856 H 0.7989 0.80382 0.70414 0.0
H1857 H 0.78922 0.78703 0.72754 0.0
H1858 H 0.73239 0.75377 0.70797 0.0
H1859 H 0.7421 0.77028 0.68449 0.0
H1860 H 0.74883 0.79143 0.74321 0.0
H1861 H 0.76599 0.70241 0.7285 0.0
H1862 H 0.7759 0.72579 0.71776 0.0
H1863 H 0.74712 0.71687 0.7165 0.0
C1864 C 0.78437 0.79289 0.70482 0.0
C1865 C 0.7713 0.78826 0.6925 0.0
C1866 C 0.77888 0.78334 0.71818 0.0
C1867 C 0.7603 0.76894 0.7194 0.0
C1868 C 0.74705 0.76451 0.70716 0.0
H1869 H 0.70006 0.6966 0.79112 0.0
H1870 H 0.70909 0.7131 0.76752 0.0
C1871 C 0.75254 0.77404 0.6938 0.0
C1872 C 0.75456 0.75894 0.73358 0.0
H1873 H 0.74913 0.7089 0.75137 0.0
C1874 C 0.74896 0.77339 0.74504 0.0
C1875 C 0.75473 0.73541 0.73586 0.0
C1876 C 0.76144 0.71917 0.72405 0.0
C1877 C 0.74319 0.76491 0.75871 0.0
C1878 C 0.74343 0.74139 0.761 0.0
C1879 C 0.74896 0.72693 0.74954 0.0
C1880 C 0.73811 0.73145 0.77527 0.0
C1881 C 0.73648 0.78116 0.77051 0.0
C1882 C 0.75165 0.73609 0.78734 0.0
C1883 C 0.74653 0.72673 0.80081 0.0
C1884 C 0.72786 0.71246 0.80239 0.0
C1885 C 0.71452 0.70758 0.79023 0.0
C1886 C 0.71965 0.71696 0.77676 0.0
H1887 H 0.73167 0.79783 0.76604 0.0
H1888 H 0.72219 0.77444 0.77693 0.0
H1889 H 0.7509 0.78369 0.77795 0.0
H1890 H 0.76623 0.74688 0.78632 0.0
H1891 H 0.75718 0.73068 0.80998 0.0
H1892 H 0.7548 0.22626 0.1896 0.0
H1893 H 0.76471 0.24156 0.21334 0.0
H1894 H 0.71526 0.19869 0.23349 0.0
H1895 H 0.70494 0.18359 0.20972 0.0
H1896 H 0.71245 0.24276 0.24242 0.0
H1897 H 0.80049 0.21266 0.24593 0.0
H1898 H 0.7946 0.22824 0.22971 0.0
H1899 H 0.78076 0.20176 0.23282 0.0
C1900 C 0.74618 0.21994 0.1991 0.0
C1901 C 0.72913 0.2037 0.19783 0.0
C1902 C 0.75196 0.2286 0.21266 0.0
C1903 C 0.74096 0.22099 0.22519 0.0
C1904 C 0.72402 0.20468 0.22395 0.0
H1905 H 0.74883 0.25716 0.31628 0.0
H1906 H 0.73991 0.23956 0.293 0.0
C1907 C 0.71817 0.19606 0.21038 0.0
C1908 C 0.74633 0.2309 0.23948 0.0
H1909 H 0.78911 0.23981 0.26345 0.0
C1910 C 0.72916 0.24196 0.24708 0.0
C1911 C 0.76817 0.22986 0.24549 0.0
C1912 C 0.78702 0.21731 0.23814 0.0
C1913 C 0.73335 0.25244 0.26042 0.0
C1914 C 0.75522 0.25159 0.26634 0.0
C1915 C 0.77238 0.24046 0.2588 0.0
C1916 C 0.7606 0.26219 0.28039 0.0
C1917 C 0.7145 0.26477 0.26794 0.0
C1918 C 0.77545 0.2805 0.28097 0.0
C1919 C 0.78056 0.29059 0.29424 0.0
C1920 C 0.77104 0.28238 0.30713 0.0
C1921 C 0.75634 0.2639 0.30651 0.0
C1922 C 0.75117 0.25388 0.29324 0.0
H1923 H 0.70008 0.26789 0.26056 0.0
H1924 H 0.70842 0.2545 0.27718 0.0
H1925 H 0.72047 0.28113 0.27229 0.0
H1926 H 0.78294 0.28706 0.27114 0.0
H1927 H 0.79202 0.30476 0.2944 0.0
H1928 H 0.73368 0.22078 0.80973 0.0
H1929 H 0.72412 0.23645 0.78599 0.0
H1930 H 0.78491 0.20847 0.76806 0.0
H1931 H 0.79447 0.19252 0.7917 0.0
H1932 H 0.75028 0.26739 0.77044 0.0
H1933 H 0.73659 0.18897 0.73895 0.0
H1934 H 0.73694 0.18946 0.75851 0.0
H1935 H 0.76285 0.18999 0.74851 0.0
C1936 C 0.74486 0.21772 0.80068 0.0
C1937 C 0.7648 0.2054 0.80254 0.0
C1938 C 0.7394 0.22671 0.78715 0.0
C1939 C 0.75369 0.2234 0.77527 0.0
C1940 C 0.77345 0.21084 0.77704 0.0
H1941 H 0.75725 0.27077 0.68669 0.0
H1942 H 0.76548 0.25412 0.71036 0.0
C1943 C 0.77893 0.20184 0.79056 0.0
C1944 C 0.74857 0.23416 0.76121 0.0
H1945 H 0.73848 0.22306 0.72554 0.0
C1946 C 0.74755 0.25773 0.76063 0.0
C1947 C 0.74513 0.22145 0.74846 0.0
C1948 C 0.74522 0.19606 0.7486 0.0
C1949 C 0.74357 0.269 0.74753 0.0
C1950 C 0.74019 0.25629 0.73477 0.0
C1951 C 0.74115 0.23272 0.73536 0.0
C1952 C 0.73554 0.26712 0.72067 0.0
C1953 C 0.74354 0.29439 0.74739 0.0
C1954 C 0.71597 0.2799 0.71868 0.0
C1955 C 0.71126 0.28947 0.7052 0.0
C1956 C 0.72599 0.28628 0.69349 0.0
C1957 C 0.74564 0.27357 0.69554 0.0
C1958 C 0.75033 0.26401 0.70902 0.0
H1959 H 0.75188 0.30148 0.75715 0.0
H1960 H 0.75214 0.30096 0.73759 0.0
H1961 H 0.72592 0.30049 0.74723 0.0
H1962 H 0.70415 0.28214 0.72749 0.0
H1963 H 0.69592 0.29906 0.70391 0.0
H1964 H 0.69986 0.80042 0.29105 0.0
H1965 H 0.70941 0.78385 0.26756 0.0
H1966 H 0.76561 0.74946 0.28705 0.0
H1967 H 0.75595 0.76563 0.31061 0.0
H1968 H 0.74901 0.78816 0.25194 0.0
H1969 H 0.73275 0.6988 0.26603 0.0
H1970 H 0.72312 0.72186 0.27713 0.0
H1971 H 0.75189 0.71278 0.27806 0.0
C1972 C 0.71419 0.78925 0.29033 0.0
C1973 C 0.72711 0.78421 0.30265 0.0
C1974 C 0.71962 0.77983 0.27693 0.0
C1975 C 0.73798 0.76517 0.27565 0.0
C1976 C 0.75107 0.76034 0.28789 0.0
H1977 H 0.80113 0.69575 0.20395 0.0
H1978 H 0.79132 0.71191 0.22752 0.0
C1979 C 0.74561 0.76969 0.30131 0.0
C1980 C 0.7438 0.75545 0.2614 0.0
H1981 H 0.75047 0.70574 0.2434 0.0
C1982 C 0.74922 0.77015 0.25003 0.0
C1983 C 0.74407 0.73194 0.259 0.0
C1984 C 0.73745 0.7154 0.27065 0.0
C1985 C 0.75529 0.76194 0.23634 0.0
C1986 C 0.75563 0.73845 0.23397 0.0
C1987 C 0.75022 0.72374 0.24532 0.0
C1988 C 0.76148 0.7288 0.21973 0.0
C1989 C 0.7617 0.77843 0.22461 0.0
C1990 C 0.74775 0.73277 0.20765 0.0
C1991 C 0.75329 0.72357 0.1942 0.0
C1992 C 0.77259 0.71019 0.19266 0.0
C1993 C 0.78619 0.70605 0.20482 0.0
C1994 C 0.78061 0.71523 0.21827 0.0
H1995 H 0.76569 0.79531 0.2291 0.0
H1996 H 0.77645 0.77227 0.21841 0.0
H1997 H 0.74745 0.7803 0.21696 0.0
H1998 H 0.73269 0.74288 0.20865 0.0
H1999 H 0.74245 0.72695 0.18502 0.0
H2000 H 0.5552 0.45168 0.04175 0.0
H2001 H 0.53902 0.46139 0.01817 0.0
H2002 H 0.50157 0.51535 0.03797 0.0
H2003 H 0.5178 0.50591 0.06155 0.0
H2004 H 0.49268 0.46264 0.01077 0.0
H2005 H 0.53384 0.54584 0.00365 0.0
H2006 H 0.54355 0.52532 0.01664 0.0
H2007 H 0.51929 0.54225 0.02054 0.0
C2008 C 0.54363 0.46571 0.04106 0.0
C2009 C 0.53782 0.47812 0.05346 0.0
C2010 C 0.5344 0.47119 0.0276 0.0
C2011 C 0.51936 0.48924 0.02634 0.0
C2012 C 0.51347 0.50162 0.0387 0.0
H2013 H 0.44413 0.54767 0.95534 0.0
H2014 H 0.45999 0.5379 0.979 0.0
C2015 C 0.52267 0.49614 0.05216 0.0
C2016 C 0.50932 0.49474 0.01214 0.0
H2017 H 0.50564 0.5361 0.98663 0.0
C2018 C 0.49557 0.47864 0.00543 0.0
C2019 C 0.51311 0.51567 0.00529 0.0
C2020 C 0.5284 0.53323 0.01181 0.0
C2021 C 0.48516 0.48308 0.9921 0.0
C2022 C 0.48899 0.50401 0.98524 0.0
C2023 C 0.50273 0.5201 0.99196 0.0
C2024 C 0.47904 0.50949 0.97101 0.0
C2025 C 0.46981 0.46554 0.98563 0.0
C2026 C 0.48469 0.49684 0.95871 0.0
C2027 C 0.47564 0.50235 0.94521 0.0
C2028 C 0.46093 0.5207 0.9438 0.0
C2029 C 0.45538 0.53341 0.95612 0.0
C2030 C 0.46443 0.52787 0.96962 0.0
H2031 H 0.46412 0.45316 0.99387 0.0
H2032 H 0.45481 0.47347 0.98062 0.0
H2033 H 0.47899 0.45623 0.97706 0.0
H2034 H 0.4963 0.48286 0.95952 0.0
H2035 H 0.48031 0.49234 0.93588 0.0
H2036 H 0.01823 0.50663 0.43794 0.0
H2037 H 0.00081 0.51421 0.46147 0.0
H2038 H 0.03135 0.45427 0.47897 0.0
H2039 H 0.04911 0.44677 0.45556 0.0
H2040 H 0.97101 0.48701 0.47699 0.0
H2041 H 0.04922 0.50273 0.50822 0.0
H2042 H 0.04861 0.50236 0.48866 0.0
H2043 H 0.04883 0.47641 0.49867 0.0
C2044 C 0.02135 0.49515 0.44683 0.0
C2045 C 0.03513 0.47618 0.44497 0.0
C2046 C 0.01136 0.49948 0.46024 0.0
C2047 C 0.01505 0.48496 0.47198 0.0
C2048 C 0.02867 0.46592 0.47011 0.0
H2049 H 0.96956 0.48293 0.56119 0.0
H2050 H 0.98515 0.47345 0.53742 0.0
C2051 C 0.03872 0.46161 0.45673 0.0
C2052 C 0.00423 0.48949 0.48609 0.0
H2053 H 0.0154 0.50021 0.52168 0.0
C2054 C 0.98068 0.48998 0.48676 0.0
C2055 C 0.01695 0.49331 0.4988 0.0
C2056 C 0.0423 0.49389 0.49859 0.0
C2057 C 0.96946 0.49389 0.49989 0.0
C2058 C 0.98219 0.49772 0.51258 0.0
C2059 C 0.00573 0.49717 0.51192 0.0
C2060 C 0.97148 0.50275 0.52666 0.0
C2061 C 0.94412 0.49353 0.50011 0.0
C2062 C 0.95863 0.52234 0.52842 0.0
C2063 C 0.94968 0.52777 0.54196 0.0
C2064 C 0.95359 0.51376 0.55396 0.0
C2065 C 0.96624 0.49401 0.55212 0.0
C2066 C 0.97517 0.48859 0.53858 0.0
H2067 H 0.93711 0.48471 0.49051 0.0
H2068 H 0.93776 0.48518 0.51006 0.0
H2069 H 0.93775 0.51108 0.5 0.0
H2070 H 0.95597 0.5337 0.51941 0.0
H2071 H 0.94011 0.54317 0.54309 0.0
H2072 H 0.02105 0.49066 0.05859 0.0
H2073 H 0.00506 0.48553 0.03442 0.0
H2074 H 0.03281 0.54927 0.02103 0.0
H2075 H 0.04905 0.5545 0.04522 0.0
H2076 H 0.97417 0.5154 0.02019 0.0
H2077 H 0.05392 0.50401 0.98953 0.0
H2078 H 0.0524 0.50102 0.00898 0.0
H2079 H 0.05213 0.5285 0.00092 0.0
C2080 C 0.02388 0.50353 0.05048 0.0
C2081 C 0.03636 0.52295 0.05375 0.0
C2082 C 0.0147 0.50059 0.03671 0.0
C2083 C 0.01793 0.51693 0.02596 0.0
C2084 C 0.03042 0.53634 0.02915 0.0
H2085 H 0.97427 0.51514 0.93559 0.0
H2086 H 0.98974 0.52692 0.95899 0.0
C2087 C 0.03961 0.53932 0.04296 0.0
C2088 C 0.00771 0.51373 0.01152 0.0
H2089 H 0.02027 0.50347 0.97608 0.0
C2090 C 0.98421 0.51287 0.01052 0.0
C2091 C 0.02092 0.51061 -0.00103 0.0
C2092 C 0.04626 0.5109 -0.00043 0.0
C2093 C 0.97351 0.50873 0.99726 0.0
C2094 C 0.98673 0.50492 0.98477 0.0
C2095 C 0.01022 0.50637 0.9857 0.0
C2096 C 0.97656 0.49836 0.97078 0.0
C2097 C 0.94817 0.50855 0.99673 0.0
C2098 C 0.96417 0.47834 0.96968 0.0
C2099 C 0.9553 0.47161 0.95638 0.0
C2100 C 0.95883 0.4847 0.94392 0.0
C2101 C 0.97123 0.50476 0.94503 0.0
C2102 C 0.98009 0.5115 0.95836 0.0
H2103 H 0.94079 0.51817 0.00588 0.0
H2104 H 0.9419 0.51577 0.9864 0.0
H2105 H 0.94212 0.49093 0.99753 0.0
H2106 H 0.9617 0.46771 0.97908 0.0
H2107 H 0.94593 0.456 0.95582 0.0
H2108 H 0.55902 0.54065 0.45259 0.0
H2109 H 0.54214 0.53316 0.47633 0.0
H2110 H 0.4892 0.49521 0.4558 0.0
H2111 H 0.50596 0.50254 0.43206 0.0
H2112 H 0.49651 0.54382 0.48552 0.0
H2113 H 0.51561 0.45228 0.48716 0.0
H2114 H 0.52988 0.47148 0.4751 0.0
H2115 H 0.50195 0.46201 0.47096 0.0
C2116 C 0.54383 0.53065 0.45315 0.0
C2117 C 0.53384 0.52208 0.4405 0.0
C2118 C 0.53421 0.52644 0.46669 0.0
C2119 C 0.51461 0.51345 0.46777 0.0
C2120 C 0.50453 0.50501 0.45517 0.0
H2121 H 0.43328 0.46353 0.53838 0.0
H2122 H 0.44887 0.47369 0.51475 0.0
C2123 C 0.51407 0.50927 0.44163 0.0
C2124 C 0.50451 0.50891 0.48208 0.0
H2125 H 0.49221 0.46657 0.50572 0.0
C2126 C 0.49562 0.52697 0.49 0.0
C2127 C 0.50338 0.48689 0.4878 0.0
C2128 C 0.51336 0.46703 0.4799 0.0
C2129 C 0.48515 0.52351 0.50344 0.0
C2130 C 0.48402 0.50146 0.50918 0.0
C2131 C 0.49303 0.48344 0.50126 0.0
C2132 C 0.47372 0.49662 0.52342 0.0
C2133 C 0.47494 0.54338 0.5112 0.0
C2134 C 0.48251 0.5062 0.53611 0.0
C2135 C 0.47355 0.50053 0.54961 0.0
C2136 C 0.45583 0.48499 0.55064 0.0
C2137 C 0.44692 0.47558 0.53791 0.0
C2138 C 0.45581 0.48134 0.52442 0.0
H2139 H 0.47172 0.55762 0.50368 0.0
H2140 H 0.45889 0.53867 0.51654 0.0
H2141 H 0.48675 0.54933 0.51967 0.0
H2142 H 0.49666 0.51764 0.5356 0.0
H2143 H 0.48086 0.50791 0.55925 0.0
H2144 H 0.28391 0.17426 0.36667 0.0
H2145 H 0.3175 0.15219 0.37254 0.0
H2146 H 0.28882 0.09464 0.35082 0.0
H2147 H 0.25568 0.11673 0.34457 0.0
H2148 H 0.32135 0.11568 0.3887 0.0
H2149 H 0.35058 0.09497 0.33359 0.0
H2150 H 0.32956 0.11622 0.33695 0.0
H2151 H 0.32176 0.08695 0.3358 0.0
C2152 C 0.2849 0.15695 0.36306 0.0
C2153 C 0.26726 0.14721 0.35512 0.0
C2154 C 0.30409 0.14439 0.36638 0.0
C2155 C 0.3059 0.12192 0.36183 0.0
C2156 C 0.28814 0.11215 0.35404 0.0
H2157 H 0.36956 0.00994 0.39994 0.0
H2158 H 0.34663 0.04205 0.39284 0.0
C2159 C 0.2691 0.12473 0.3506 0.0
C2160 C 0.32554 0.10806 0.36603 0.0
H2161 H 0.36291 0.06978 0.35269 0.0
C2162 C 0.33071 0.10595 0.3808 0.0
C2163 C 0.33818 0.09579 0.35572 0.0
C2164 C 0.33489 0.09881 0.33963 0.0
C2165 C 0.34712 0.09077 0.3856 0.0
C2166 C 0.35816 0.07689 0.37538 0.0
C2167 C 0.35412 0.08011 0.36055 0.0
C2168 C 0.37257 0.05783 0.3799 0.0
C2169 C 0.35222 0.08957 0.4016 0.0
C2170 C 0.39456 0.05558 0.37457 0.0
C2171 C 0.40763 0.03696 0.37843 0.0
C2172 C 0.39887 0.02033 0.38767 0.0
C2173 C 0.37684 0.02259 0.39291 0.0
C2174 C 0.36377 0.04105 0.38897 0.0
H2175 H 0.34892 0.10596 0.40698 0.0
H2176 H 0.34111 0.07684 0.40671 0.0
H2177 H 0.36996 0.08473 0.40361 0.0
H2178 H 0.40158 0.06823 0.36743 0.0
H2179 H 0.42456 0.03561 0.37422 0.0
H2180 H 0.09507 0.01064 0.6309 0.0
H2181 H 0.11995 0.04104 0.63888 0.0
H2182 H 0.12635 0.06396 0.59475 0.0
H2183 H 0.10146 0.03369 0.58667 0.0
H2184 H 0.16486 0.04524 0.62825 0.0
H2185 H 0.11458 0.12243 0.61816 0.0
H2186 H 0.102 0.09488 0.61985 0.0
H2187 H 0.1158 0.10285 0.60333 0.0
C2188 C 0.10148 0.02238 0.62293 0.0
C2189 C 0.09641 0.01978 0.60816 0.0
C2190 C 0.11566 0.03971 0.62751 0.0
C2191 C 0.12476 0.05482 0.61741 0.0
C2192 C 0.11917 0.05269 0.60272 0.0
H2193 H 0.22826 0.15726 0.61939 0.0
H2194 H 0.19724 0.13208 0.61279 0.0
C2195 C 0.10507 0.03531 0.59813 0.0
C2196 C 0.14181 0.0714 0.62203 0.0
H2197 H 0.15325 0.12762 0.62372 0.0
C2198 C 0.16229 0.06326 0.62739 0.0
C2199 C 0.13839 0.09484 0.6207 0.0
C2200 C 0.11645 0.10437 0.61531 0.0
C2201 C 0.17969 0.07796 0.63125 0.0
C2202 C 0.17627 0.10143 0.63002 0.0
C2203 C 0.15576 0.1096 0.62467 0.0
C2204 C 0.19392 0.11768 0.63422 0.0
C2205 C 0.20179 0.06817 0.63622 0.0
C2206 C 0.20188 0.11825 0.64851 0.0
C2207 C 0.21963 0.13243 0.65227 0.0
C2208 C 0.22955 0.14647 0.64182 0.0
C2209 C 0.22098 0.14653 0.62764 0.0
C2210 C 0.20327 0.13222 0.62387 0.0
H2211 H 0.20365 0.0503 0.63288 0.0
H2212 H 0.21618 0.0779 0.6318 0.0
H2213 H 0.20264 0.06884 0.64822 0.0
H2214 H 0.19455 0.1075 0.65673 0.0
H2215 H 0.22573 0.13221 0.66333 0.0
H2216 H 0.23917 0.87945 0.83852 0.0
H2217 H 0.20964 0.90481 0.84699 0.0
H2218 H 0.18777 0.85482 0.87778 0.0
H2219 H 0.21723 0.82917 0.86926 0.0
H2220 H 0.15223 0.8765 0.86207 0.0
H2221 H 0.21203 0.93729 0.88656 0.0
H2222 H 0.21778 0.93067 0.86794 0.0
H2223 H 0.22009 0.90908 0.8815 0.0
C2224 C 0.22805 0.87382 0.84707 0.0
C2225 C 0.23059 0.85241 0.85331 0.0
C2226 C 0.21126 0.88835 0.85192 0.0
C2227 C 0.1968 0.88177 0.86314 0.0
C2228 C 0.19888 0.86019 0.86915 0.0
H2229 H 0.11541 0.97636 0.91177 0.0
H2230 H 0.14042 0.94567 0.90469 0.0
C2231 C 0.21571 0.84562 0.8643 0.0
C2232 C 0.17976 0.89764 0.86871 0.0
H2233 H 0.17402 0.94908 0.88463 0.0
C2234 C 0.15692 0.89232 0.86709 0.0
C2235 C 0.18602 0.91807 0.87542 0.0
C2236 C 0.21031 0.92409 0.87811 0.0
C2237 C 0.14011 0.90728 0.87167 0.0
C2238 C 0.14641 0.92814 0.87784 0.0
C2239 C 0.16925 0.93314 0.87979 0.0
C2240 C 0.1297 0.94522 0.88229 0.0
C2241 C 0.11581 0.90058 0.86999 0.0
C2242 C 0.1153 0.95504 0.87205 0.0
C2243 C 0.10093 0.97256 0.87607 0.0
C2244 C 0.10092 0.98064 0.89038 0.0
C2245 C 0.11508 0.9705 0.90066 0.0
C2246 C 0.12936 0.95297 0.89664 0.0
H2247 H 0.1139 0.88206 0.86888 0.0
H2248 H 0.10566 0.90634 0.87938 0.0
H2249 H 0.1089 0.90852 0.86006 0.0
H2250 H 0.11565 0.94963 0.86084 0.0
H2251 H 0.09026 0.98014 0.86791 0.0
H2252 H 0.26425 0.86916 0.16126 0.0
H2253 H 0.29407 0.89462 0.15333 0.0
H2254 H 0.29457 0.86278 0.11135 0.0
H2255 H 0.26483 0.83698 0.11927 0.0
H2256 H 0.33821 0.87206 0.12307 0.0
H2257 H 0.28174 0.94641 0.12463 0.0
H2258 H 0.28282 0.93064 0.14122 0.0
H2259 H 0.27132 0.9179 0.12519 0.0
C2260 C 0.27078 0.86749 0.15036 0.0
C2261 C 0.26209 0.85123 0.14083 0.0
C2262 C 0.28776 0.88208 0.14584 0.0
C2263 C 0.29622 0.88078 0.1317 0.0
C2264 C 0.28815 0.86407 0.1223 0.0
H2265 H 0.36771 0.98647 0.08698 0.0
H2266 H 0.34191 0.95659 0.0943 0.0
C2267 C 0.27116 0.84941 0.12682 0.0
C2268 C 0.31294 0.89738 0.12658 0.0
H2269 H 0.32038 0.95352 0.12057 0.0
C2270 C 0.33436 0.88987 0.12247 0.0
C2271 C 0.30769 0.92054 0.12567 0.0
C2272 C 0.28459 0.9294 0.12928 0.0
C2273 C 0.35086 0.90504 0.11767 0.0
C2274 C 0.34578 0.92828 0.11715 0.0
C2275 C 0.32426 0.9357 0.12109 0.0
C2276 C 0.36231 0.94529 0.11229 0.0
C2277 C 0.3734 0.89607 0.11295 0.0
C2278 C 0.38234 0.94882 0.12 0.0
C2279 C 0.39717 0.96589 0.11581 0.0
C2280 C 0.39207 0.97977 0.10393 0.0
C2281 C 0.37208 0.97605 0.09619 0.0
C2282 C 0.35734 0.95899 0.10035 0.0
H2283 H 0.37271 0.87775 0.11057 0.0
H2284 H 0.37954 0.90504 0.10317 0.0
H2285 H 0.38578 0.89872 0.12178 0.0
H2286 H 0.38627 0.93871 0.12943 0.0
H2287 H 0.41242 0.96844 0.122 0.0
H2288 H 0.73007 0.8386 0.61839 0.0
H2289 H 0.69977 0.8637 0.61041 0.0
H2290 H 0.70331 0.89928 0.65106 0.0
H2291 H 0.73355 0.87441 0.65909 0.0
H2292 H 0.65648 0.874 0.62457 0.0
H2293 H 0.71322 0.9478 0.61879 0.0
H2294 H 0.72354 0.91926 0.6197 0.0
H2295 H 0.7147 0.93344 0.63591 0.0
C2296 C 0.72431 0.85171 0.62564 0.0
C2297 C 0.73427 0.85467 0.63931 0.0
C2298 C 0.707 0.86597 0.62108 0.0
C2299 C 0.69955 0.88343 0.6301 0.0
C2300 C 0.70906 0.88604 0.64389 0.0
H2301 H 0.58431 0.97221 0.62399 0.0
H2302 H 0.61114 0.94282 0.63091 0.0
C2303 C 0.72629 0.8718 0.64846 0.0
C2304 C 0.68228 0.89939 0.62498 0.0
H2305 H 0.67424 0.95456 0.61625 0.0
C2306 C 0.6603 0.89161 0.6227 0.0
C2307 C 0.68748 0.92225 0.62243 0.0
C2308 C 0.71104 0.93124 0.6242 0.0
C2309 C 0.64321 0.90629 0.61816 0.0
C2310 C 0.64832 0.92928 0.61598 0.0
C2311 C 0.67039 0.93693 0.61803 0.0
C2312 C 0.63113 0.94579 0.61142 0.0
C2313 C 0.61993 0.89711 0.61557 0.0
C2314 C 0.63363 0.95724 0.59824 0.0
C2315 C 0.61844 0.97403 0.5943 0.0
C2316 C 0.60057 0.97978 0.60353 0.0
C2317 C 0.59789 0.96807 0.61665 0.0
C2318 C 0.61311 0.95121 0.62058 0.0
H2319 H 0.61997 0.87848 0.61453 0.0
H2320 H 0.60899 0.90166 0.62485 0.0
H2321 H 0.61248 0.90449 0.60562 0.0
H2322 H 0.64751 0.95334 0.59108 0.0
H2323 H 0.62093 0.98276 0.58413 0.0
H2324 H 0.86917 0.98759 0.40631 0.0
H2325 H 0.84424 0.95761 0.39806 0.0
H2326 H 0.88736 0.94573 0.3613 0.0
H2327 H 0.91266 0.97572 0.3696 0.0
H2328 H 0.82181 0.95661 0.3713 0.0
H2329 H 0.87739 0.88227 0.37878 0.0
H2330 H 0.88287 0.90905 0.38734 0.0
H2331 H 0.88902 0.90515 0.36847 0.0
C2332 C 0.87347 0.97851 0.39652 0.0
C2333 C 0.89286 0.98398 0.38859 0.0
C2334 C 0.8592 0.9614 0.39183 0.0
C2335 C 0.86408 0.94936 0.37917 0.0
C2336 C 0.88352 0.95462 0.37124 0.0
H2337 H 0.76545 0.86942 0.33243 0.0
H2338 H 0.7953 0.89582 0.339 0.0
C2339 C 0.89786 0.97179 0.37594 0.0
C2340 C 0.8481 0.93209 0.37399 0.0
H2341 H 0.84192 0.87575 0.36794 0.0
C2342 C 0.8262 0.93893 0.37052 0.0
C2343 C 0.85391 0.90907 0.37313 0.0
C2344 C 0.87701 0.90081 0.37722 0.0
C2345 C 0.80987 0.92333 0.36622 0.0
C2346 C 0.81572 0.90034 0.36518 0.0
C2347 C 0.83761 0.89345 0.36866 0.0
C2348 C 0.79903 0.88321 0.36085 0.0
C2349 C 0.78632 0.93149 0.36315 0.0
C2350 C 0.79177 0.86699 0.37086 0.0
C2351 C 0.77475 0.85185 0.36714 0.0
C2352 C 0.76482 0.85269 0.35333 0.0
C2353 C 0.77267 0.86849 0.34319 0.0
C2354 C 0.78967 0.88359 0.34692 0.0
H2355 H 0.78341 0.9487 0.36746 0.0
H2356 H 0.78358 0.93192 0.35126 0.0
H2357 H 0.77369 0.91994 0.36795 0.0
H2358 H 0.79888 0.86645 0.38166 0.0
H2359 H 0.76908 0.83979 0.37514 0.0
H2360 H 0.77232 0.16544 0.12489 0.0
H2361 H 0.80243 0.14118 0.11564 0.0
H2362 H 0.78847 0.09276 0.14925 0.0
H2363 H 0.75838 0.11677 0.15852 0.0
H2364 H 0.84164 0.12285 0.13073 0.0
H2365 H 0.78293 0.05741 0.11036 0.0
H2366 H 0.77395 0.08563 0.11475 0.0
H2367 H 0.7786 0.06544 0.12892 0.0
C2368 C 0.77574 0.14965 0.13032 0.0
C2369 C 0.76292 0.14289 0.14235 0.0
C2370 C 0.79293 0.13588 0.12505 0.0
C2371 C 0.79741 0.11512 0.13168 0.0
C2372 C 0.78501 0.10861 0.14389 0.0
H2373 H 0.90736 0.02148 0.12569 0.0
H2374 H 0.88144 0.0516 0.1326 0.0
C2375 C 0.76789 0.12236 0.14918 0.0
C2376 C 0.81471 0.09994 0.1257 0.0
H2377 H 0.82165 0.04793 0.11079 0.0
C2378 C 0.83733 0.10652 0.12626 0.0
C2379 C 0.80892 0.07883 0.11972 0.0
C2380 C 0.78477 0.07141 0.11825 0.0
C2381 C 0.85446 0.09214 0.12139 0.0
C2382 C 0.8487 0.07063 0.11598 0.0
C2383 C 0.82601 0.06438 0.11503 0.0
C2384 C 0.86584 0.05404 0.11147 0.0
C2385 C 0.8785 0.1001 0.122 0.0
C2386 C 0.86554 0.04536 0.09735 0.0
C2387 C 0.88017 0.02806 0.09341 0.0
C2388 C 0.89528 0.01907 0.10358 0.0
C2389 C 0.89594 0.02815 0.11763 0.0
C2390 C 0.88126 0.04545 0.12156 0.0
H2391 H 0.87957 0.11875 0.1226 0.0
H2392 H 0.88666 0.0931 0.13183 0.0
H2393 H 0.88808 0.09426 0.11239 0.0
H2394 H 0.85368 0.0517 0.08943 0.0
H2395 H 0.8793 0.02142 0.0825 0.0
H2396 H 0.57888 0.02633 0.87134 0.0
H2397 H 0.60312 0.05788 0.86435 0.0
H2398 H 0.64769 0.04254 0.89988 0.0
H2399 H 0.62319 0.01164 0.9072 0.0
H2400 H 0.64161 0.08706 0.89726 0.0
H2401 H 0.66203 0.05011 0.84356 0.0
H2402 H 0.63264 0.05511 0.84644 0.0
H2403 H 0.64713 0.03463 0.85733 0.0
C2404 C 0.5938 0.0298 0.87768 0.0
C2405 C 0.59927 0.01645 0.88974 0.0
C2406 C 0.60769 0.04773 0.87364 0.0
C2407 C 0.62745 0.05228 0.88142 0.0
C2408 C 0.63256 0.03931 0.89369 0.0
H2409 H 0.74952 0.11397 0.85399 0.0
H2410 H 0.71827 0.08979 0.8611 0.0
C2411 C 0.61858 0.02161 0.89784 0.0
C2412 C 0.64331 0.07006 0.87669 0.0
H2413 H 0.67794 0.08539 0.84894 0.0
C2414 C 0.6495 0.0868 0.88667 0.0
C2415 C 0.65372 0.06951 0.86291 0.0
C2416 C 0.64874 0.05128 0.85198 0.0
C2417 C 0.66622 0.10267 0.88339 0.0
C2418 C 0.67656 0.10215 0.8696 0.0
C2419 C 0.66992 0.0858 0.85949 0.0
C2420 C 0.69546 0.11725 0.86572 0.0
C2421 C 0.67331 0.11915 0.89497 0.0
C2422 C 0.69307 0.14076 0.86598 0.0
C2423 C 0.71109 0.15465 0.86213 0.0
C2424 C 0.73161 0.14521 0.8577 0.0
C2425 C 0.73389 0.12171 0.85735 0.0
C2426 C 0.71603 0.10788 0.86138 0.0
H2427 H 0.66785 0.11366 0.90593 0.0
H2428 H 0.69183 0.12135 0.89506 0.0
H2429 H 0.6655 0.13574 0.89275 0.0
H2430 H 0.6772 0.14836 0.86897 0.0
H2431 H 0.70883 0.17273 0.86235 0.0
H2432 H 0.76626 0.6274 0.83444 0.0
H2433 H 0.7956 0.60114 0.84206 0.0
H2434 H 0.79821 0.63308 0.88398 0.0
H2435 H 0.76897 0.65963 0.87639 0.0
H2436 H 0.84118 0.62292 0.8716 0.0
H2437 H 0.78305 0.54975 0.87112 0.0
H2438 H 0.78393 0.56546 0.85451 0.0
H2439 H 0.77324 0.57848 0.87067 0.0
C2440 C 0.77316 0.62892 0.84526 0.0
C2441 C 0.76522 0.64542 0.85488 0.0
C2442 C 0.78985 0.61387 0.8496 0.0
C2443 C 0.79876 0.61501 0.86364 0.0
C2444 C 0.79142 0.63192 0.87312 0.0
H2445 H 0.86955 0.50931 0.90868 0.0
H2446 H 0.84392 0.53922 0.90116 0.0
C2447 C 0.77472 0.64701 0.86878 0.0
C2448 C 0.81526 0.59809 0.86857 0.0
H2449 H 0.82159 0.54193 0.87494 0.0
C2450 C 0.83696 0.60521 0.87237 0.0
C2451 C 0.80951 0.57508 0.86971 0.0
C2452 C 0.78612 0.56668 0.86642 0.0
C2453 C 0.85323 0.58977 0.87711 0.0
C2454 C 0.84763 0.56667 0.87787 0.0
C2455 C 0.82585 0.55964 0.87423 0.0
C2456 C 0.8639 0.54945 0.88271 0.0
C2457 C 0.8761 0.59833 0.88149 0.0
C2458 C 0.88358 0.54529 0.87479 0.0
C2459 C 0.8983 0.52821 0.87908 0.0
C2460 C 0.89342 0.51495 0.89129 0.0
C2461 C 0.87374 0.51924 0.89922 0.0
C2462 C 0.85909 0.53632 0.89495 0.0
H2463 H 0.87592 0.61672 0.88366 0.0
H2464 H 0.88225 0.58949 0.89132 0.0
H2465 H 0.8882 0.59512 0.87259 0.0
H2466 H 0.88736 0.55496 0.86515 0.0
H2467 H 0.91331 0.5252 0.87273 0.0
H2468 H 0.73374 0.65663 0.11742 0.0
H2469 H 0.70366 0.63103 0.10976 0.0
H2470 H 0.70434 0.59967 0.15189 0.0
H2471 H 0.73438 0.62503 0.1596 0.0
H2472 H 0.70721 0.56948 0.12812 0.0
H2473 H 0.63653 0.63002 0.12239 0.0
H2474 H 0.66215 0.63757 0.11327 0.0
H2475 H 0.66156 0.63635 0.1327 0.0
C2476 C 0.72734 0.64438 0.12507 0.0
C2477 C 0.73639 0.64279 0.13909 0.0
C2478 C 0.7101 0.62989 0.12071 0.0
C2479 C 0.70168 0.61367 0.13033 0.0
C2480 C 0.71058 0.61217 0.14435 0.0
H2481 H 0.58755 0.52353 0.12412 0.0
H2482 H 0.61433 0.55306 0.13098 0.0
C2483 C 0.72773 0.62666 0.14872 0.0
C2484 C 0.68445 0.59735 0.12559 0.0
H2485 H 0.62988 0.59257 0.11461 0.0
C2486 C 0.6903 0.5745 0.12517 0.0
C2487 C 0.66239 0.60402 0.12188 0.0
C2488 C 0.65512 0.6283 0.12267 0.0
C2489 C 0.67469 0.55809 0.12099 0.0
C2490 C 0.65276 0.56478 0.11701 0.0
C2491 C 0.64679 0.5876 0.11758 0.0
C2492 C 0.63582 0.54814 0.11235 0.0
C2493 C 0.68167 0.53367 0.12108 0.0
C2494 C 0.63889 0.53603 0.09947 0.0
C2495 C 0.6237 0.51921 0.09555 0.0
C2496 C 0.60516 0.51428 0.10443 0.0
C2497 C 0.60175 0.52692 0.11711 0.0
C2498 C 0.61696 0.54379 0.12102 0.0
H2499 H 0.69737 0.53097 0.12735 0.0
H2500 H 0.66821 0.52296 0.12575 0.0
H2501 H 0.68468 0.52805 0.10978 0.0
H2502 H 0.65322 0.53938 0.09257 0.0
H2503 H 0.62669 0.50984 0.08567 0.0
H2504 H 0.72594 0.36329 0.33633 0.0
H2505 H 0.69489 0.38799 0.3434 0.0
H2506 H 0.69868 0.36285 0.38715 0.0
H2507 H 0.7298 0.33815 0.38021 0.0
H2508 H 0.65172 0.37719 0.35757 0.0
H2509 H 0.70784 0.43255 0.39009 0.0
H2510 H 0.71846 0.41307 0.37674 0.0
H2511 H 0.70919 0.40296 0.39407 0.0
C2512 C 0.72006 0.36291 0.34744 0.0
C2513 C 0.73039 0.34895 0.35776 0.0
C2514 C 0.70231 0.37697 0.35143 0.0
C2515 C 0.69474 0.37736 0.36581 0.0
C2516 C 0.70452 0.36292 0.37604 0.0
H2517 H 0.60504 0.46841 0.41101 0.0
H2518 H 0.62974 0.4371 0.40456 0.0
C2519 C 0.72223 0.34882 0.37205 0.0
C2520 C 0.67729 0.3936 0.37023 0.0
H2521 H 0.66925 0.44113 0.39024 0.0
C2522 C 0.65546 0.39117 0.36474 0.0
C2523 C 0.68235 0.41174 0.37958 0.0
C2524 C 0.70575 0.41545 0.38541 0.0
C2525 C 0.63838 0.4064 0.36847 0.0
C2526 C 0.64352 0.42473 0.37767 0.0
C2527 C 0.66535 0.42701 0.38323 0.0
C2528 C 0.62679 0.44221 0.38142 0.0
C2529 C 0.61498 0.40253 0.3627 0.0
C2530 C 0.61687 0.45538 0.37054 0.0
C2531 C 0.60265 0.47319 0.37419 0.0
C2532 C 0.59839 0.4783 0.3888 0.0
C2533 C 0.60806 0.46488 0.39966 0.0
C2534 C 0.62214 0.44699 0.396 0.0
H2535 H 0.61234 0.38466 0.35958 0.0
H2536 H 0.60207 0.4073 0.37082 0.0
H2537 H 0.61245 0.41301 0.35288 0.0
H2538 H 0.62066 0.45233 0.35923 0.0
H2539 H 0.59552 0.48335 0.3656 0.0
H2540 H 0.92022 0.46073 0.61855 0.0
H2541 H 0.8967 0.42837 0.62506 0.0
H2542 H 0.83952 0.46033 0.60503 0.0
H2543 H 0.86293 0.49234 0.59822 0.0
H2544 H 0.85984 0.42656 0.64215 0.0
H2545 H 0.83749 0.39847 0.58692 0.0
H2546 H 0.85985 0.41831 0.59035 0.0
H2547 H 0.8311 0.42767 0.58953 0.0
C2548 C 0.90265 0.46076 0.61548 0.0
C2549 C 0.89341 0.47897 0.60782 0.0
C2550 C 0.88927 0.44228 0.61919 0.0
C2551 C 0.86649 0.44174 0.61525 0.0
C2552 C 0.8572 0.46009 0.6078 0.0
H2553 H 0.75342 0.37771 0.65288 0.0
H2554 H 0.78533 0.40121 0.64607 0.0
C2555 C 0.87056 0.47847 0.60403 0.0
C2556 C 0.85202 0.42256 0.6195 0.0
H2557 H 0.81322 0.38572 0.60616 0.0
C2558 C 0.84989 0.41739 0.63426 0.0
C2559 C 0.83943 0.41025 0.60919 0.0
C2560 C 0.84226 0.41379 0.59311 0.0
C2561 C 0.83451 0.40112 0.63906 0.0
C2562 C 0.82058 0.39017 0.62884 0.0
C2563 C 0.82366 0.39439 0.61401 0.0
C2564 C 0.80175 0.37544 0.63332 0.0
C2565 C 0.83321 0.39601 0.65505 0.0
C2566 C 0.80004 0.35334 0.62806 0.0
C2567 C 0.78162 0.33992 0.6318 0.0
C2568 C 0.7646 0.34847 0.6408 0.0
C2569 C 0.76635 0.37061 0.64601 0.0
C2570 C 0.78468 0.384 0.64223 0.0
H2571 H 0.84942 0.39965 0.66055 0.0
H2572 H 0.82016 0.40681 0.66008 0.0
H2573 H 0.82871 0.37813 0.65702 0.0
H2574 H 0.81294 0.3465 0.62105 0.0
H2575 H 0.78067 0.32291 0.62762 0.0
H2576 H 0.11747 0.47712 0.08648 0.0
H2577 H 0.14324 0.44699 0.09341 0.0
H2578 H 0.11095 0.44215 0.13512 0.0
H2579 H 0.08491 0.47226 0.12823 0.0
H2580 H 0.17259 0.44976 0.11726 0.0
H2581 H 0.11562 0.3759 0.1213 0.0
H2582 H 0.10813 0.40118 0.11156 0.0
H2583 H 0.10662 0.40055 0.13098 0.0
C2584 C 0.11566 0.46947 0.09707 0.0
C2585 C 0.09922 0.47706 0.10684 0.0
C2586 C 0.13038 0.45226 0.101 0.0
C2587 C 0.12883 0.44224 0.11471 0.0
C2588 C 0.11214 0.44943 0.12439 0.0
H2589 H 0.2335 0.37202 0.1609 0.0
H2590 H 0.20289 0.39676 0.15327 0.0
C2591 C 0.09739 0.4667 0.12048 0.0
C2592 C 0.14585 0.42554 0.11922 0.0
H2593 H 0.15299 0.37099 0.12987 0.0
C2594 C 0.16833 0.43252 0.11997 0.0
C2595 C 0.14018 0.40306 0.12263 0.0
C2596 C 0.11636 0.39458 0.12148 0.0
C2597 C 0.18533 0.41766 0.12426 0.0
C2598 C 0.17962 0.39534 0.12804 0.0
C2599 C 0.1572 0.3882 0.12706 0.0
C2600 C 0.19687 0.37932 0.13307 0.0
C2601 C 0.20932 0.42588 0.12464 0.0
C2602 C 0.20315 0.36104 0.12437 0.0
C2603 C 0.22068 0.34687 0.12868 0.0
C2604 C 0.23202 0.35077 0.1418 0.0
C2605 C 0.22515 0.36868 0.15069 0.0
C2606 C 0.20771 0.38283 0.14636 0.0
H2607 H 0.21147 0.44187 0.11855 0.0
H2608 H 0.21436 0.42888 0.13605 0.0
H2609 H 0.22085 0.41306 0.12002 0.0
H2610 H 0.19489 0.35809 0.11408 0.0
H2611 H 0.22557 0.33314 0.12164 0.0
H2612 H 0.37396 0.48597 0.91067 0.0
H2613 H 0.34858 0.45569 0.90339 0.0
H2614 H 0.3872 0.44558 0.8644 0.0
H2615 H 0.41285 0.47584 0.87167 0.0
H2616 H 0.32321 0.45584 0.87755 0.0
H2617 H 0.37928 0.38126 0.8812 0.0
H2618 H 0.38555 0.4076 0.8901 0.0
H2619 H 0.39016 0.4046 0.87097 0.0
C2620 C 0.3772 0.47716 0.90062 0.0
C2621 C 0.39535 0.48327 0.89172 0.0
C2622 C 0.3627 0.45988 0.89649 0.0
C2623 C 0.36618 0.44829 0.88345 0.0
C2624 C 0.38448 0.45409 0.87463 0.0
H2625 H 0.26688 0.373 0.83529 0.0
H2626 H 0.29686 0.39842 0.84306 0.0
C2627 C 0.39901 0.47145 0.87875 0.0
C2628 C 0.3497 0.43124 0.87867 0.0
H2629 H 0.3433 0.37552 0.87066 0.0
C2630 C 0.32757 0.43827 0.87607 0.0
C2631 C 0.35548 0.40835 0.87687 0.0
C2632 C 0.37886 0.39987 0.88003 0.0
C2633 C 0.31106 0.42302 0.87155 0.0
C2634 C 0.31694 0.40022 0.86942 0.0
C2635 C 0.33898 0.39308 0.87221 0.0
C2636 C 0.30022 0.38364 0.86437 0.0
C2637 C 0.28738 0.43135 0.86922 0.0
C2638 C 0.29272 0.36656 0.87366 0.0
C2639 C 0.27557 0.352 0.86926 0.0
C2640 C 0.26583 0.35429 0.85547 0.0
C2641 C 0.27398 0.37093 0.84602 0.0
C2642 C 0.29106 0.38547 0.85043 0.0
H2643 H 0.28458 0.44808 0.87428 0.0
H2644 H 0.28414 0.43293 0.85742 0.0
H2645 H 0.27499 0.41926 0.87374 0.0
H2646 H 0.29968 0.36491 0.88446 0.0
H2647 H 0.26967 0.33926 0.87675 0.0
H2648 H 0.41589 0.52793 0.62148 0.0
H2649 H 0.39042 0.55757 0.63005 0.0
H2650 H 0.34174 0.5382 0.59777 0.0
H2651 H 0.3669 0.50857 0.58923 0.0
H2652 H 0.3701 0.59439 0.61419 0.0
H2653 H 0.30736 0.53483 0.63679 0.0
H2654 H 0.33571 0.5265 0.63233 0.0
H2655 H 0.31497 0.52933 0.61829 0.0
C2656 C 0.39977 0.53005 0.61621 0.0
C2657 C 0.39329 0.51585 0.60476 0.0
C2658 C 0.3853 0.54697 0.62109 0.0
C2659 C 0.36413 0.5498 0.61466 0.0
C2660 C 0.35788 0.53601 0.60301 0.0
H2661 H 0.26661 0.65671 0.61682 0.0
H2662 H 0.29741 0.63103 0.61082 0.0
C2663 C 0.3723 0.51915 0.59813 0.0
C2664 C 0.34833 0.56697 0.62015 0.0
H2665 H 0.29609 0.57308 0.63479 0.0
C2666 C 0.35398 0.58979 0.6188 0.0
C2667 C 0.32748 0.56084 0.62633 0.0
C2668 C 0.32104 0.53654 0.62867 0.0
C2669 C 0.33891 0.60673 0.62306 0.0
C2670 C 0.31765 0.60058 0.62864 0.0
C2671 C 0.31234 0.57774 0.6304 0.0
C2672 C 0.30038 0.61745 0.6325 0.0
C2673 C 0.34589 0.63103 0.62161 0.0
C2674 C 0.29173 0.61814 0.64662 0.0
C2675 C 0.27406 0.63264 0.65004 0.0
C2676 C 0.26465 0.64661 0.63936 0.0
C2677 C 0.2736 0.64619 0.62527 0.0
C2678 C 0.29128 0.63165 0.62186 0.0
H2679 H 0.36445 0.6328 0.62098 0.0
H2680 H 0.33862 0.63807 0.61151 0.0
H2681 H 0.33964 0.64117 0.63087 0.0
H2682 H 0.29844 0.60721 0.65496 0.0
H2683 H 0.26752 0.6326 0.66099 0.0
H2684 H 0.08731 0.5225 0.37252 0.0
H2685 H 0.11352 0.55232 0.36529 0.0
H2686 H 0.15011 0.54363 0.40521 0.0
H2687 H 0.12404 0.51389 0.41255 0.0
H2688 H 0.12716 0.59424 0.3818 0.0
H2689 H 0.196 0.53324 0.37068 0.0
H2690 H 0.16683 0.52493 0.37149 0.0
H2691 H 0.18202 0.53062 0.38788 0.0
C2692 C 0.10086 0.52705 0.37979 0.0
C2693 C 0.10374 0.51579 0.39305 0.0
C2694 C 0.11573 0.5441 0.37567 0.0
C2695 C 0.13376 0.54997 0.38469 0.0
C2696 C 0.13635 0.53917 0.39808 0.0
H2697 H 0.23111 0.65889 0.3781 0.0
H2698 H 0.20089 0.63369 0.38611 0.0
C2699 C 0.12145 0.52222 0.40224 0.0
C2700 C 0.15047 0.56673 0.37985 0.0
H2701 H 0.20486 0.57182 0.3687 0.0
C2702 C 0.14416 0.58942 0.37893 0.0
C2703 C 0.17251 0.56022 0.37602 0.0
C2704 C 0.17983 0.53592 0.37644 0.0
C2705 C 0.15954 0.60592 0.37439 0.0
C2706 C 0.18168 0.59943 0.37076 0.0
C2707 C 0.18787 0.5767 0.37157 0.0
C2708 C 0.19867 0.6158 0.36573 0.0
C2709 C 0.15196 0.63007 0.37326 0.0
C2710 C 0.2074 0.61397 0.35168 0.0
C2711 C 0.22461 0.62824 0.34712 0.0
C2712 C 0.23352 0.64449 0.35657 0.0
C2713 C 0.22452 0.64655 0.37059 0.0
C2714 C 0.20721 0.63227 0.37514 0.0
H2715 H 0.13336 0.6316 0.37371 0.0
H2716 H 0.15915 0.63982 0.3824 0.0
H2717 H 0.15805 0.63775 0.36302 0.0
H2718 H 0.20106 0.60129 0.3443 0.0
H2719 H 0.2312 0.62625 0.33625 0.0
loop_
_geom_bond_atom_site_label_1
_geom_bond_atom_site_label_2
_geom_bond_distance
_geom_bond_site_symmetry_2
_ccdc_geom_bond_type
In0 O1 2.294 . S
In0 O2 2.326 . S
In0 O6 2.266 . S
In0 O7 2.326 . S
In0 O8 2.266 . S
In0 O9 2.326 . S
In0 O11 2.294 . S
In0 O12 2.326 . S
O1 In0 2.294 . S
O1 C10 1.240 . S
O2 In0 2.326 . S
O2 C10 1.252 . S
C3 O6 1.252 . S
C3 O7 1.260 . S
C4 O11 1.240 . S
C4 O12 1.252 . S
C5 O8 1.252 . S
C5 O9 1.260 . S
O6 In0 2.266 . S
O6 C3 1.252 . S
O7 In0 2.326 . S
O7 C3 1.260 . S
O8 In0 2.266 . S
O8 C5 1.252 . S
O9 In0 2.326 . S
O9 C5 1.260 . S
C10 O1 1.240 . S
C10 O2 1.252 . S
O11 In0 2.294 . S
O11 C4 1.240 . S
O12 In0 2.326 . S
O12 C4 1.252 . S
In13 O14 2.294 . S
In13 O15 2.326 . S
In13 O19 2.266 . S
In13 O20 2.326 . S
In13 O21 2.266 . S
In13 O22 2.326 . S
In13 O24 2.294 . S
In13 O25 2.326 . S
O14 In13 2.294 . S
O14 C23 1.240 . S
O15 In13 2.326 . S
O15 C23 1.252 . S
C16 O19 1.252 . S
C16 O20 1.260 . S
C17 O24 1.240 . S
C17 O25 1.252 . S
C18 O21 1.252 . S
C18 O22 1.260 . S
O19 In13 2.266 . S
O19 C16 1.252 . S
O20 In13 2.326 . S
O20 C16 1.260 . S
O21 In13 2.266 . S
O21 C18 1.252 . S
O22 In13 2.326 . S
O22 C18 1.260 . S
C23 O14 1.240 . S
C23 O15 1.252 . S
O24 In13 2.294 . S
O24 C17 1.240 . S
O25 In13 2.326 . S
O25 C17 1.252 . S
In26 O27 2.294 . S
In26 O28 2.326 . S
In26 O32 2.266 . S
In26 O33 2.326 . S
In26 O34 2.266 . S
In26 O35 2.326 . S
In26 O37 2.294 . S
In26 O38 2.326 . S
O27 In26 2.294 . S
O27 C36 1.240 . S
O28 In26 2.326 . S
O28 C36 1.252 . S
C29 O32 1.252 . S
C29 O33 1.260 . S
C30 O37 1.240 . S
C30 O38 1.252 . S
C31 O34 1.252 . S
C31 O35 1.260 . S
O32 In26 2.266 . S
O32 C29 1.252 . S
O33 In26 2.326 . S
O33 C29 1.260 . S
O34 In26 2.266 . S
O34 C31 1.252 . S
O35 In26 2.326 . S
O35 C31 1.260 . S
C36 O27 1.240 . S
C36 O28 1.252 . S
O37 In26 2.294 . S
O37 C30 1.240 . S
O38 In26 2.326 . S
O38 C30 1.252 . S
In39 O40 2.294 . S
In39 O41 2.326 . S
In39 O45 2.266 . S
In39 O46 2.326 . S
In39 O47 2.266 . S
In39 O48 2.326 . S
In39 O50 2.294 . S
In39 O51 2.326 . S
O40 In39 2.294 . S
O40 C49 1.240 . S
O41 In39 2.326 . S
O41 C49 1.252 . S
C42 O45 1.252 . S
C42 O46 1.260 . S
C43 O50 1.240 . S
C43 O51 1.252 . S
C44 O47 1.252 . S
C44 O48 1.260 . S
O45 In39 2.266 . S
O45 C42 1.252 . S
O46 In39 2.326 . S
O46 C42 1.260 . S
O47 In39 2.266 . S
O47 C44 1.252 . S
O48 In39 2.326 . S
O48 C44 1.260 . S
C49 O40 1.240 . S
C49 O41 1.252 . S
O50 In39 2.294 . S
O50 C43 1.240 . S
O51 In39 2.326 . S
O51 C43 1.252 . S
In52 O53 2.294 . S
In52 O54 2.326 . S
In52 O58 2.266 . S
In52 O59 2.326 . S
In52 O60 2.266 . S
In52 O61 2.326 . S
In52 O63 2.294 . S
In52 O64 2.326 . S
O53 In52 2.294 . S
O53 C62 1.240 . S
O54 In52 2.326 . S
O54 C62 1.252 . S
C55 O58 1.252 . S
C55 O59 1.260 . S
C56 O63 1.240 . S
C56 O64 1.252 . S
C57 O60 1.252 . S
C57 O61 1.260 . S
O58 In52 2.266 . S
O58 C55 1.252 . S
O59 In52 2.326 . S
O59 C55 1.260 . S
O60 In52 2.266 . S
O60 C57 1.252 . S
O61 In52 2.326 . S
O61 C57 1.260 . S
C62 O53 1.240 . S
C62 O54 1.252 . S
O63 In52 2.294 . S
O63 C56 1.240 . S
O64 In52 2.326 . S
O64 C56 1.252 . S
In65 O66 2.294 . S
In65 O67 2.326 . S
In65 O71 2.266 . S
In65 O72 2.326 . S
In65 O73 2.266 . S
In65 O74 2.326 . S
In65 O76 2.294 . S
In65 O77 2.326 . S
O66 In65 2.294 . S
O66 C75 1.240 . S
O67 In65 2.326 . S
O67 C75 1.252 . S
C68 O71 1.252 . S
C68 O72 1.260 . S
C69 O76 1.240 . S
C69 O77 1.252 . S
C70 O73 1.252 . S
C70 O74 1.260 . S
O71 In65 2.266 . S
O71 C68 1.252 . S
O72 In65 2.326 . S
O72 C68 1.260 . S
O73 In65 2.266 . S
O73 C70 1.252 . S
O74 In65 2.326 . S
O74 C70 1.260 . S
C75 O66 1.240 . S
C75 O67 1.252 . S
O76 In65 2.294 . S
O76 C69 1.240 . S
O77 In65 2.326 . S
O77 C69 1.252 . S
In78 O79 2.294 . S
In78 O80 2.326 . S
In78 O84 2.266 . S
In78 O85 2.326 . S
In78 O86 2.266 . S
In78 O87 2.326 . S
In78 O89 2.294 . S
In78 O90 2.326 . S
O79 In78 2.294 . S
O79 C88 1.240 . S
O80 In78 2.326 . S
O80 C88 1.252 . S
C81 O84 1.252 . S
C81 O85 1.260 . S
C82 O89 1.240 . S
C82 O90 1.252 . S
C83 O86 1.252 . S
C83 O87 1.260 . S
O84 In78 2.266 . S
O84 C81 1.252 . S
O85 In78 2.326 . S
O85 C81 1.260 . S
O86 In78 2.266 . S
O86 C83 1.252 . S
O87 In78 2.326 . S
O87 C83 1.260 . S
C88 O79 1.240 . S
C88 O80 1.252 . S
O89 In78 2.294 . S
O89 C82 1.240 . S
O90 In78 2.326 . S
O90 C82 1.252 . S
In91 O92 2.294 . S
In91 O93 2.326 . S
In91 O97 2.266 . S
In91 O98 2.326 . S
In91 O99 2.266 . S
In91 O100 2.326 . S
In91 O102 2.294 . S
In91 O103 2.326 . S
O92 In91 2.294 . S
O92 C101 1.240 . S
O93 In91 2.326 . S
O93 C101 1.252 . S
C94 O97 1.252 . S
C94 O98 1.260 . S
C95 O102 1.240 . S
C95 O103 1.252 . S
C96 O99 1.252 . S
C96 O100 1.260 . S
O97 In91 2.266 . S
O97 C94 1.252 . S
O98 In91 2.326 . S
O98 C94 1.260 . S
O99 In91 2.266 . S
O99 C96 1.252 . S
O100 In91 2.326 . S
O100 C96 1.260 . S
C101 O92 1.240 . S
C101 O93 1.252 . S
O102 In91 2.294 . S
O102 C95 1.240 . S
O103 In91 2.326 . S
O103 C95 1.252 . S
In104 O105 2.294 . S
In104 O106 2.326 . S
In104 O110 2.266 . S
In104 O111 2.326 . S
In104 O112 2.266 . S
In104 O113 2.326 . S
In104 O115 2.294 . S
In104 O116 2.326 . S
O105 In104 2.294 . S
O105 C114 1.240 . S
O106 In104 2.326 . S
O106 C114 1.252 . S
C107 O110 1.252 . S
C107 O111 1.260 . S
C108 O115 1.240 . S
C108 O116 1.252 . S
C109 O112 1.252 . S
C109 O113 1.260 . S
O110 In104 2.266 . S
O110 C107 1.252 . S
O111 In104 2.326 . S
O111 C107 1.260 . S
O112 In104 2.266 . S
O112 C109 1.252 . S
O113 In104 2.326 . S
O113 C109 1.260 . S
C114 O105 1.240 . S
C114 O106 1.252 . S
O115 In104 2.294 . S
O115 C108 1.240 . S
O116 In104 2.326 . S
O116 C108 1.252 . S
In117 O118 2.294 . S
In117 O119 2.326 . S
In117 O123 2.266 . S
In117 O124 2.326 . S
In117 O125 2.266 . S
In117 O126 2.326 . S
In117 O128 2.294 . S
In117 O129 2.326 . S
O118 In117 2.294 . S
O118 C127 1.240 . S
O119 In117 2.326 . S
O119 C127 1.252 . S
C120 O123 1.252 . S
C120 O124 1.260 . S
C121 O128 1.240 . S
C121 O129 1.252 . S
C122 O125 1.252 . S
C122 O126 1.260 . S
O123 In117 2.266 . S
O123 C120 1.252 . S
O124 In117 2.326 . S
O124 C120 1.260 . S
O125 In117 2.266 . S
O125 C122 1.252 . S
O126 In117 2.326 . S
O126 C122 1.260 . S
C127 O118 1.240 . S
C127 O119 1.252 . S
O128 In117 2.294 . S
O128 C121 1.240 . S
O129 In117 2.326 . S
O129 C121 1.252 . S
In130 O131 2.294 . S
In130 O132 2.326 . S
In130 O136 2.266 . S
In130 O137 2.326 . S
In130 O138 2.266 . S
In130 O139 2.326 . S
In130 O141 2.294 . S
In130 O142 2.326 . S
O131 In130 2.294 . S
O131 C140 1.240 . S
O132 In130 2.326 . S
O132 C140 1.252 . S
C133 O136 1.252 . S
C133 O137 1.260 . S
C134 O141 1.240 . S
C134 O142 1.252 . S
C135 O138 1.252 . S
C135 O139 1.260 . S
O136 In130 2.266 . S
O136 C133 1.252 . S
O137 In130 2.326 . S
O137 C133 1.260 . S
O138 In130 2.266 . S
O138 C135 1.252 . S
O139 In130 2.326 . S
O139 C135 1.260 . S
C140 O131 1.240 . S
C140 O132 1.252 . S
O141 In130 2.294 . S
O141 C134 1.240 . S
O142 In130 2.326 . S
O142 C134 1.252 . S
In143 O144 2.294 . S
In143 O145 2.326 . S
In143 O149 2.266 . S
In143 O150 2.326 . S
In143 O151 2.266 . S
In143 O152 2.326 . S
In143 O154 2.294 . S
In143 O155 2.326 . S
O144 In143 2.294 . S
O144 C153 1.240 . S
O145 In143 2.326 . S
O145 C153 1.252 . S
C146 O149 1.252 . S
C146 O150 1.260 . S
C147 O154 1.240 . S
C147 O155 1.252 . S
C148 O151 1.252 . S
C148 O152 1.260 . S
O149 In143 2.266 . S
O149 C146 1.252 . S
O150 In143 2.326 . S
O150 C146 1.260 . S
O151 In143 2.266 . S
O151 C148 1.252 . S
O152 In143 2.326 . S
O152 C148 1.260 . S
C153 O144 1.240 . S
C153 O145 1.252 . S
O154 In143 2.294 . S
O154 C147 1.240 . S
O155 In143 2.326 . S
O155 C147 1.252 . S
In156 O157 2.294 . S
In156 O158 2.326 . S
In156 O162 2.266 . S
In156 O163 2.326 . S
In156 O164 2.266 . S
In156 O165 2.326 . S
In156 O167 2.294 . S
In156 O168 2.326 . S
O157 In156 2.294 . S
O157 C166 1.240 . S
O158 In156 2.326 . S
O158 C166 1.252 . S
C159 O162 1.252 . S
C159 O163 1.260 . S
C160 O167 1.240 . S
C160 O168 1.252 . S
C161 O164 1.252 . S
C161 O165 1.260 . S
O162 In156 2.266 . S
O162 C159 1.252 . S
O163 In156 2.326 . S
O163 C159 1.260 . S
O164 In156 2.266 . S
O164 C161 1.252 . S
O165 In156 2.326 . S
O165 C161 1.260 . S
C166 O157 1.240 . S
C166 O158 1.252 . S
O167 In156 2.294 . S
O167 C160 1.240 . S
O168 In156 2.326 . S
O168 C160 1.252 . S
In169 O170 2.294 . S
In169 O171 2.326 . S
In169 O175 2.266 . S
In169 O176 2.326 . S
In169 O177 2.266 . S
In169 O178 2.326 . S
In169 O180 2.294 . S
In169 O181 2.326 . S
O170 In169 2.294 . S
O170 C179 1.240 . S
O171 In169 2.326 . S
O171 C179 1.252 . S
C172 O175 1.252 . S
C172 O176 1.260 . S
C173 O180 1.240 . S
C173 O181 1.252 . S
C174 O177 1.252 . S
C174 O178 1.260 . S
O175 In169 2.266 . S
O175 C172 1.252 . S
O176 In169 2.326 . S
O176 C172 1.260 . S
O177 In169 2.266 . S
O177 C174 1.252 . S
O178 In169 2.326 . S
O178 C174 1.260 . S
C179 O170 1.240 . S
C179 O171 1.252 . S
O180 In169 2.294 . S
O180 C173 1.240 . S
O181 In169 2.326 . S
O181 C173 1.252 . S
In182 O183 2.294 . S
In182 O184 2.326 . S
In182 O188 2.266 . S
In182 O189 2.326 . S
In182 O190 2.266 . S
In182 O191 2.326 . S
In182 O193 2.294 . S
In182 O194 2.326 . S
O183 In182 2.294 . S
O183 C192 1.240 . S
O184 In182 2.326 . S
O184 C192 1.252 . S
C185 O188 1.252 . S
C185 O189 1.260 . S
C186 O193 1.240 . S
C186 O194 1.252 . S
C187 O190 1.252 . S
C187 O191 1.260 . S
O188 In182 2.266 . S
O188 C185 1.252 . S
O189 In182 2.326 . S
O189 C185 1.260 . S
O190 In182 2.266 . S
O190 C187 1.252 . S
O191 In182 2.326 . S
O191 C187 1.260 . S
C192 O183 1.240 . S
C192 O184 1.252 . S
O193 In182 2.294 . S
O193 C186 1.240 . S
O194 In182 2.326 . S
O194 C186 1.252 . S
In195 O196 2.294 . S
In195 O197 2.326 . S
In195 O201 2.266 . S
In195 O202 2.326 . S
In195 O203 2.266 . S
In195 O204 2.326 . S
In195 O206 2.294 . S
In195 O207 2.326 . S
O196 In195 2.294 . S
O196 C205 1.240 . S
O197 In195 2.326 . S
O197 C205 1.252 . S
C198 O201 1.252 . S
C198 O202 1.260 . S
C199 O206 1.240 . S
C199 O207 1.252 . S
C200 O203 1.252 . S
C200 O204 1.260 . S
O201 In195 2.266 . S
O201 C198 1.252 . S
O202 In195 2.326 . S
O202 C198 1.260 . S
O203 In195 2.266 . S
O203 C200 1.252 . S
O204 In195 2.326 . S
O204 C200 1.260 . S
C205 O196 1.240 . S
C205 O197 1.252 . S
O206 In195 2.294 . S
O206 C199 1.240 . S
O207 In195 2.326 . S
O207 C199 1.252 . S
In208 O209 2.294 . S
In208 O210 2.326 . S
In208 O214 2.266 . S
In208 O215 2.326 . S
In208 O216 2.266 . S
In208 O217 2.326 . S
In208 O219 2.294 . S
In208 O220 2.326 . S
O209 In208 2.294 . S
O209 C218 1.240 . S
O210 In208 2.326 . S
O210 C218 1.252 . S
C211 O214 1.252 . S
C211 O215 1.260 . S
C212 O219 1.240 . S
C212 O220 1.252 . S
C213 O216 1.252 . S
C213 O217 1.260 . S
O214 In208 2.266 . S
O214 C211 1.252 . S
O215 In208 2.326 . S
O215 C211 1.260 . S
O216 In208 2.266 . S
O216 C213 1.252 . S
O217 In208 2.326 . S
O217 C213 1.260 . S
C218 O209 1.240 . S
C218 O210 1.252 . S
O219 In208 2.294 . S
O219 C212 1.240 . S
O220 In208 2.326 . S
O220 C212 1.252 . S
In221 O222 2.294 . S
In221 O223 2.326 . S
In221 O227 2.266 . S
In221 O228 2.326 . S
In221 O229 2.266 . S
In221 O230 2.326 . S
In221 O232 2.294 . S
In221 O233 2.326 . S
O222 In221 2.294 . S
O222 C231 1.240 . S
O223 In221 2.326 . S
O223 C231 1.252 . S
C224 O227 1.252 . S
C224 O228 1.260 . S
C225 O232 1.240 . S
C225 O233 1.252 . S
C226 O229 1.252 . S
C226 O230 1.260 . S
O227 In221 2.266 . S
O227 C224 1.252 . S
O228 In221 2.326 . S
O228 C224 1.260 . S
O229 In221 2.266 . S
O229 C226 1.252 . S
O230 In221 2.326 . S
O230 C226 1.260 . S
C231 O222 1.240 . S
C231 O223 1.252 . S
O232 In221 2.294 . S
O232 C225 1.240 . S
O233 In221 2.326 . S
O233 C225 1.252 . S
In234 O235 2.294 . S
In234 O236 2.326 . S
In234 O240 2.266 . S
In234 O241 2.326 . S
In234 O242 2.266 . S
In234 O243 2.326 . S
In234 O245 2.294 . S
In234 O246 2.326 . S
O235 In234 2.294 . S
O235 C244 1.240 . S
O236 In234 2.326 . S
O236 C244 1.252 . S
C237 O240 1.252 . S
C237 O241 1.260 . S
C238 O245 1.240 . S
C238 O246 1.252 . S
C239 O242 1.252 . S
C239 O243 1.260 . S
O240 In234 2.266 . S
O240 C237 1.252 . S
O241 In234 2.326 . S
O241 C237 1.260 . S
O242 In234 2.266 . S
O242 C239 1.252 . S
O243 In234 2.326 . S
O243 C239 1.260 . S
C244 O235 1.240 . S
C244 O236 1.252 . S
O245 In234 2.294 . S
O245 C238 1.240 . S
O246 In234 2.326 . S
O246 C238 1.252 . S
In247 O248 2.294 . S
In247 O249 2.326 . S
In247 O253 2.266 . S
In247 O254 2.326 . S
In247 O255 2.266 . S
In247 O256 2.326 . S
In247 O258 2.294 . S
In247 O259 2.326 . S
O248 In247 2.294 . S
O248 C257 1.240 . S
O249 In247 2.326 . S
O249 C257 1.252 . S
C250 O253 1.252 . S
C250 O254 1.260 . S
C251 O258 1.240 . S
C251 O259 1.252 . S
C252 O255 1.252 . S
C252 O256 1.260 . S
O253 In247 2.266 . S
O253 C250 1.252 . S
O254 In247 2.326 . S
O254 C250 1.260 . S
O255 In247 2.266 . S
O255 C252 1.252 . S
O256 In247 2.326 . S
O256 C252 1.260 . S
C257 O248 1.240 . S
C257 O249 1.252 . S
O258 In247 2.294 . S
O258 C251 1.240 . S
O259 In247 2.326 . S
O259 C251 1.252 . S
In260 O261 2.294 . S
In260 O262 2.326 . S
In260 O266 2.266 . S
In260 O267 2.326 . S
In260 O268 2.266 . S
In260 O269 2.326 . S
In260 O271 2.294 . S
In260 O272 2.326 . S
O261 In260 2.294 . S
O261 C270 1.240 . S
O262 In260 2.326 . S
O262 C270 1.252 . S
C263 O266 1.252 . S
C263 O267 1.260 . S
C264 O271 1.240 . S
C264 O272 1.252 . S
C265 O268 1.252 . S
C265 O269 1.260 . S
O266 In260 2.266 . S
O266 C263 1.252 . S
O267 In260 2.326 . S
O267 C263 1.260 . S
O268 In260 2.266 . S
O268 C265 1.252 . S
O269 In260 2.326 . S
O269 C265 1.260 . S
C270 O261 1.240 . S
C270 O262 1.252 . S
O271 In260 2.294 . S
O271 C264 1.240 . S
O272 In260 2.326 . S
O272 C264 1.252 . S
In273 O274 2.294 . S
In273 O275 2.326 . S
In273 O279 2.266 . S
In273 O280 2.326 . S
In273 O281 2.266 . S
In273 O282 2.326 . S
In273 O284 2.294 . S
In273 O285 2.326 . S
O274 In273 2.294 . S
O274 C283 1.240 . S
O275 In273 2.326 . S
O275 C283 1.252 . S
C276 O279 1.252 . S
C276 O280 1.260 . S
C277 O284 1.240 . S
C277 O285 1.252 . S
C278 O281 1.252 . S
C278 O282 1.260 . S
O279 In273 2.266 . S
O279 C276 1.252 . S
O280 In273 2.326 . S
O280 C276 1.260 . S
O281 In273 2.266 . S
O281 C278 1.252 . S
O282 In273 2.326 . S
O282 C278 1.260 . S
C283 O274 1.240 . S
C283 O275 1.252 . S
O284 In273 2.294 . S
O284 C277 1.240 . S
O285 In273 2.326 . S
O285 C277 1.252 . S
In286 O287 2.294 . S
In286 O288 2.326 . S
In286 O292 2.266 . S
In286 O293 2.326 . S
In286 O294 2.266 . S
In286 O295 2.326 . S
In286 O297 2.294 . S
In286 O298 2.326 . S
O287 In286 2.294 . S
O287 C296 1.240 . S
O288 In286 2.326 . S
O288 C296 1.252 . S
C289 O292 1.252 . S
C289 O293 1.260 . S
C290 O297 1.240 . S
C290 O298 1.252 . S
C291 O294 1.252 . S
C291 O295 1.260 . S
O292 In286 2.266 . S
O292 C289 1.252 . S
O293 In286 2.326 . S
O293 C289 1.260 . S
O294 In286 2.266 . S
O294 C291 1.252 . S
O295 In286 2.326 . S
O295 C291 1.260 . S
C296 O287 1.240 . S
C296 O288 1.252 . S
O297 In286 2.294 . S
O297 C290 1.240 . S
O298 In286 2.326 . S
O298 C290 1.252 . S
In299 O300 2.294 . S
In299 O301 2.326 . S
In299 O305 2.266 . S
In299 O306 2.326 . S
In299 O307 2.266 . S
In299 O308 2.326 . S
In299 O310 2.294 . S
In299 O311 2.326 . S
O300 In299 2.294 . S
O300 C309 1.240 . S
O301 In299 2.326 . S
O301 C309 1.252 . S
C302 O305 1.252 . S
C302 O306 1.260 . S
C303 O310 1.240 . S
C303 O311 1.252 . S
C304 O307 1.252 . S
C304 O308 1.260 . S
O305 In299 2.266 . S
O305 C302 1.252 . S
O306 In299 2.326 . S
O306 C302 1.260 . S
O307 In299 2.266 . S
O307 C304 1.252 . S
O308 In299 2.326 . S
O308 C304 1.260 . S
C309 O300 1.240 . S
C309 O301 1.252 . S
O310 In299 2.294 . S
O310 C303 1.240 . S
O311 In299 2.326 . S
O311 C303 1.252 . S
In312 O313 2.294 . S
In312 O314 2.326 . S
In312 O318 2.266 . S
In312 O319 2.326 . S
In312 O320 2.266 . S
In312 O321 2.326 . S
In312 O323 2.294 . S
In312 O324 2.326 . S
O313 In312 2.294 . S
O313 C322 1.240 . S
O314 In312 2.326 . S
O314 C322 1.252 . S
C315 O318 1.252 . S
C315 O319 1.260 . S
C316 O323 1.240 . S
C316 O324 1.252 . S
C317 O320 1.252 . S
C317 O321 1.260 . S
O318 In312 2.266 . S
O318 C315 1.252 . S
O319 In312 2.326 . S
O319 C315 1.260 . S
O320 In312 2.266 . S
O320 C317 1.252 . S
O321 In312 2.326 . S
O321 C317 1.260 . S
C322 O313 1.240 . S
C322 O314 1.252 . S
O323 In312 2.294 . S
O323 C316 1.240 . S
O324 In312 2.326 . S
O324 C316 1.252 . S
In325 O326 2.294 . S
In325 O327 2.326 . S
In325 O331 2.266 . S
In325 O332 2.326 . S
In325 O333 2.266 . S
In325 O334 2.326 . S
In325 O336 2.294 . S
In325 O337 2.326 . S
O326 In325 2.294 . S
O326 C335 1.240 . S
O327 In325 2.326 . S
O327 C335 1.252 . S
C328 O331 1.252 . S
C328 O332 1.260 . S
C329 O336 1.240 . S
C329 O337 1.252 . S
C330 O333 1.252 . S
C330 O334 1.260 . S
O331 In325 2.266 . S
O331 C328 1.252 . S
O332 In325 2.326 . S
O332 C328 1.260 . S
O333 In325 2.266 . S
O333 C330 1.252 . S
O334 In325 2.326 . S
O334 C330 1.260 . S
C335 O326 1.240 . S
C335 O327 1.252 . S
O336 In325 2.294 . S
O336 C329 1.240 . S
O337 In325 2.326 . S
O337 C329 1.252 . S
In338 O339 2.294 . S
In338 O340 2.326 . S
In338 O344 2.266 . S
In338 O345 2.326 . S
In338 O346 2.266 . S
In338 O347 2.326 . S
In338 O349 2.294 . S
In338 O350 2.326 . S
O339 In338 2.294 . S
O339 C348 1.240 . S
O340 In338 2.326 . S
O340 C348 1.252 . S
C341 O344 1.252 . S
C341 O345 1.260 . S
C342 O349 1.240 . S
C342 O350 1.252 . S
C343 O346 1.252 . S
C343 O347 1.260 . S
O344 In338 2.266 . S
O344 C341 1.252 . S
O345 In338 2.326 . S
O345 C341 1.260 . S
O346 In338 2.266 . S
O346 C343 1.252 . S
O347 In338 2.326 . S
O347 C343 1.260 . S
C348 O339 1.240 . S
C348 O340 1.252 . S
O349 In338 2.294 . S
O349 C342 1.240 . S
O350 In338 2.326 . S
O350 C342 1.252 . S
In351 O352 2.294 . S
In351 O353 2.326 . S
In351 O357 2.266 . S
In351 O358 2.326 . S
In351 O359 2.266 . S
In351 O360 2.326 . S
In351 O362 2.294 . S
In351 O363 2.326 . S
O352 In351 2.294 . S
O352 C361 1.240 . S
O353 In351 2.326 . S
O353 C361 1.252 . S
C354 O357 1.252 . S
C354 O358 1.260 . S
C355 O362 1.240 . S
C355 O363 1.252 . S
C356 O359 1.252 . S
C356 O360 1.260 . S
O357 In351 2.266 . S
O357 C354 1.252 . S
O358 In351 2.326 . S
O358 C354 1.260 . S
O359 In351 2.266 . S
O359 C356 1.252 . S
O360 In351 2.326 . S
O360 C356 1.260 . S
C361 O352 1.240 . S
C361 O353 1.252 . S
O362 In351 2.294 . S
O362 C355 1.240 . S
O363 In351 2.326 . S
O363 C355 1.252 . S
In364 O365 2.294 . S
In364 O366 2.326 . S
In364 O370 2.266 . S
In364 O371 2.326 . S
In364 O372 2.266 . S
In364 O373 2.326 . S
In364 O375 2.294 . S
In364 O376 2.326 . S
O365 In364 2.294 . S
O365 C374 1.240 . S
O366 In364 2.326 . S
O366 C374 1.252 . S
C367 O370 1.252 . S
C367 O371 1.260 . S
C368 O375 1.240 . S
C368 O376 1.252 . S
C369 O372 1.252 . S
C369 O373 1.260 . S
O370 In364 2.266 . S
O370 C367 1.252 . S
O371 In364 2.326 . S
O371 C367 1.260 . S
O372 In364 2.266 . S
O372 C369 1.252 . S
O373 In364 2.326 . S
O373 C369 1.260 . S
C374 O365 1.240 . S
C374 O366 1.252 . S
O375 In364 2.294 . S
O375 C368 1.240 . S
O376 In364 2.326 . S
O376 C368 1.252 . S
In377 O378 2.294 . S
In377 O379 2.326 . S
In377 O383 2.266 . S
In377 O384 2.326 . S
In377 O385 2.266 . S
In377 O386 2.326 . S
In377 O388 2.294 . S
In377 O389 2.326 . S
O378 In377 2.294 . S
O378 C387 1.240 . S
O379 In377 2.326 . S
O379 C387 1.252 . S
C380 O383 1.252 . S
C380 O384 1.260 . S
C381 O388 1.240 . S
C381 O389 1.252 . S
C382 O385 1.252 . S
C382 O386 1.260 . S
O383 In377 2.266 . S
O383 C380 1.252 . S
O384 In377 2.326 . S
O384 C380 1.260 . S
O385 In377 2.266 . S
O385 C382 1.252 . S
O386 In377 2.326 . S
O386 C382 1.260 . S
C387 O378 1.240 . S
C387 O379 1.252 . S
O388 In377 2.294 . S
O388 C381 1.240 . S
O389 In377 2.326 . S
O389 C381 1.252 . S
In390 O391 2.294 . S
In390 O392 2.326 . S
In390 O396 2.266 . S
In390 O397 2.326 . S
In390 O398 2.266 . S
In390 O399 2.326 . S
In390 O401 2.294 . S
In390 O402 2.326 . S
O391 In390 2.294 . S
O391 C400 1.240 . S
O392 In390 2.326 . S
O392 C400 1.252 . S
C393 O396 1.252 . S
C393 O397 1.260 . S
C394 O401 1.240 . S
C394 O402 1.252 . S
C395 O398 1.252 . S
C395 O399 1.260 . S
O396 In390 2.266 . S
O396 C393 1.252 . S
O397 In390 2.326 . S
O397 C393 1.260 . S
O398 In390 2.266 . S
O398 C395 1.252 . S
O399 In390 2.326 . S
O399 C395 1.260 . S
C400 O391 1.240 . S
C400 O392 1.252 . S
O401 In390 2.294 . S
O401 C394 1.240 . S
O402 In390 2.326 . S
O402 C394 1.252 . S
In403 O404 2.294 . S
In403 O405 2.326 . S
In403 O409 2.266 . S
In403 O410 2.326 . S
In403 O411 2.266 . S
In403 O412 2.326 . S
In403 O414 2.294 . S
In403 O415 2.326 . S
O404 In403 2.294 . S
O404 C413 1.240 . S
O405 In403 2.326 . S
O405 C413 1.252 . S
C406 O409 1.252 . S
C406 O410 1.260 . S
C407 O414 1.240 . S
C407 O415 1.252 . S
C408 O411 1.252 . S
C408 O412 1.260 . S
O409 In403 2.266 . S
O409 C406 1.252 . S
O410 In403 2.326 . S
O410 C406 1.260 . S
O411 In403 2.266 . S
O411 C408 1.252 . S
O412 In403 2.326 . S
O412 C408 1.260 . S
C413 O404 1.240 . S
C413 O405 1.252 . S
O414 In403 2.294 . S
O414 C407 1.240 . S
O415 In403 2.326 . S
O415 C407 1.252 . S
H416 C424 0.929 . S
H417 C426 0.930 . S
H418 C428 0.930 . S
H419 C431 0.929 . S
H420 C434 0.930 . S
H421 C436 0.960 . S
H422 C436 0.960 . S
H423 C436 0.960 . S
C424 H416 0.929 . S
C424 C425 1.377 . S
C424 C426 1.384 . S
C425 C424 1.377 . S
C425 C431 1.390 . S
C426 H417 0.930 . S
C426 C424 1.384 . S
C426 C427 1.372 . S
C427 C426 1.372 . S
C427 C428 1.400 . S
C427 C432 1.490 . S
C428 H418 0.930 . S
C428 C427 1.400 . S
C428 C431 1.386 . S
H429 C445 0.930 . S
H430 C446 0.931 . S
C431 H419 0.929 . S
C431 C425 1.390 . S
C431 C428 1.386 . S
C432 C427 1.490 . S
C432 C434 1.395 . S
C432 C435 1.403 . S
H433 C439 0.930 . S
C434 H420 0.930 . S
C434 C432 1.395 . S
C434 C437 1.403 . S
C435 C432 1.403 . S
C435 C436 1.524 . S
C435 C439 1.400 . S
C436 H421 0.960 . S
C436 H422 0.960 . S
C436 H423 0.960 . S
C436 C435 1.524 . S
C437 C434 1.403 . S
C437 C438 1.392 . S
C437 C441 1.495 . S
C438 C437 1.392 . S
C438 C439 1.385 . S
C438 C440 1.478 . S
C439 H433 0.930 . S
C439 C435 1.400 . S
C439 C438 1.385 . S
C440 C438 1.478 . S
C440 C442 1.381 . S
C440 C446 1.383 . S
C441 C437 1.495 . S
C441 H447 0.959 . S
C441 H448 0.961 . S
C441 H449 0.960 . S
C442 C440 1.381 . S
C442 C443 1.394 . S
C442 H450 0.930 . S
C443 C442 1.394 . S
C443 C444 1.383 . S
C443 H451 0.929 . S
C444 C443 1.383 . S
C444 C445 1.377 . S
C445 H429 0.930 . S
C445 C444 1.377 . S
C445 C446 1.379 . S
C446 H430 0.931 . S
C446 C440 1.383 . S
C446 C445 1.379 . S
H447 C441 0.959 . S
H448 C441 0.961 . S
H449 C441 0.960 . S
H450 C442 0.930 . S
H451 C443 0.929 . S
H452 C460 0.929 . S
H453 C462 0.930 . S
H454 C464 0.930 . S
H455 C467 0.893 1_455 S
H456 C470 0.930 . S
H457 C472 0.960 . S
H458 C472 0.960 . S
H459 C472 0.960 . S
C460 H452 0.929 . S
C460 C461 1.341 1_655 S
C460 C462 1.384 . S
C461 C460 1.341 1_455 S
C461 C467 1.386 1_455 S
C462 H453 0.930 . S
C462 C460 1.384 . S
C462 C463 1.372 . S
C463 C462 1.372 . S
C463 C464 1.400 . S
C463 C468 1.490 . S
C464 H454 0.930 . S
C464 C463 1.400 . S
C464 C467 1.426 . S
H465 C481 0.930 . S
H466 C482 0.931 . S
C467 H455 0.893 1_655 S
C467 C461 1.386 1_655 S
C467 C464 1.426 . S
C468 C463 1.490 . S
C468 C470 1.395 . S
C468 C471 1.403 . S
H469 C475 0.930 . S
C470 H456 0.930 . S
C470 C468 1.395 . S
C470 C473 1.403 . S
C471 C468 1.403 . S
C471 C472 1.524 . S
C471 C475 1.400 . S
C472 H457 0.960 . S
C472 H458 0.960 . S
C472 H459 0.960 . S
C472 C471 1.524 . S
C473 C470 1.403 . S
C473 C474 1.392 . S
C473 C477 1.495 . S
C474 C473 1.392 . S
C474 C475 1.385 . S
C474 C476 1.478 . S
C475 H469 0.930 . S
C475 C471 1.400 . S
C475 C474 1.385 . S
C476 C474 1.478 . S
C476 C478 1.381 . S
C476 C482 1.383 . S
C477 C473 1.495 . S
C477 H483 0.959 . S
C477 H484 0.961 . S
C477 H485 0.960 . S
C478 C476 1.381 . S
C478 C479 1.394 . S
C478 H486 0.930 . S
C479 C478 1.394 . S
C479 C480 1.383 . S
C479 H487 0.929 . S
C480 C479 1.383 . S
C480 C481 1.377 . S
C481 H465 0.930 . S
C481 C480 1.377 . S
C481 C482 1.379 . S
C482 H466 0.931 . S
C482 C476 1.383 . S
C482 C481 1.379 . S
H483 C477 0.959 . S
H484 C477 0.961 . S
H485 C477 0.960 . S
H486 C478 0.930 . S
H487 C479 0.929 . S
H488 C496 0.929 . S
H489 C498 0.930 . S
H490 C500 0.930 . S
H491 C503 0.929 . S
H492 C506 0.930 . S
H493 C508 0.960 . S
H494 C508 0.960 . S
H495 C508 0.960 . S
C496 H488 0.929 . S
C496 C497 1.377 . S
C496 C498 1.384 . S
C497 C496 1.377 . S
C497 C503 1.390 . S
C498 H489 0.930 . S
C498 C496 1.384 . S
C498 C499 1.372 . S
C499 C498 1.372 . S
C499 C500 1.400 . S
C499 C504 1.490 . S
C500 H490 0.930 . S
C500 C499 1.400 . S
C500 C503 1.386 . S
H501 C517 0.930 . S
H502 C518 0.931 . S
C503 H491 0.929 . S
C503 C497 1.390 . S
C503 C500 1.386 . S
C504 C499 1.490 . S
C504 C506 1.395 . S
C504 C507 1.403 . S
H505 C511 0.930 . S
C506 H492 0.930 . S
C506 C504 1.395 . S
C506 C509 1.403 . S
C507 C504 1.403 . S
C507 C508 1.524 . S
C507 C511 1.400 . S
C508 H493 0.960 . S
C508 H494 0.960 . S
C508 H495 0.960 . S
C508 C507 1.524 . S
C509 C506 1.403 . S
C509 C510 1.392 . S
C509 C513 1.495 . S
C510 C509 1.392 . S
C510 C511 1.385 . S
C510 C512 1.478 . S
C511 H505 0.930 . S
C511 C507 1.400 . S
C511 C510 1.385 . S
C512 C510 1.478 . S
C512 C514 1.381 . S
C512 C518 1.383 . S
C513 C509 1.495 . S
C513 H519 0.959 . S
C513 H520 0.961 . S
C513 H521 0.960 . S
C514 C512 1.381 . S
C514 C515 1.394 . S
C514 H522 0.930 . S
C515 C514 1.394 . S
C515 C516 1.383 . S
C515 H523 0.929 . S
C516 C515 1.383 . S
C516 C517 1.377 . S
C517 H501 0.930 . S
C517 C516 1.377 . S
C517 C518 1.379 . S
C518 H502 0.931 . S
C518 C512 1.383 . S
C518 C517 1.379 . S
H519 C513 0.959 . S
H520 C513 0.961 . S
H521 C513 0.960 . S
H522 C514 0.930 . S
H523 C515 0.929 . S
H524 C532 0.929 . S
H525 C534 0.930 . S
H526 C536 0.930 . S
H527 C539 0.929 . S
H528 C542 0.930 . S
H529 C544 0.960 . S
H530 C544 0.960 . S
H531 C544 0.960 . S
C532 H524 0.929 . S
C532 C533 1.377 . S
C532 C534 1.384 . S
C533 C532 1.377 . S
C533 C539 1.390 . S
C534 H525 0.930 . S
C534 C532 1.384 . S
C534 C535 1.372 . S
C535 C534 1.372 . S
C535 C536 1.400 . S
C535 C540 1.490 . S
C536 H526 0.930 . S
C536 C535 1.400 . S
C536 C539 1.386 . S
H537 C553 0.930 . S
H538 C554 0.931 . S
C539 H527 0.929 . S
C539 C533 1.390 . S
C539 C536 1.386 . S
C540 C535 1.490 . S
C540 C542 1.395 . S
C540 C543 1.403 . S
H541 C547 0.930 . S
C542 H528 0.930 . S
C542 C540 1.395 . S
C542 C545 1.403 . S
C543 C540 1.403 . S
C543 C544 1.524 . S
C543 C547 1.400 . S
C544 H529 0.960 . S
C544 H530 0.960 . S
C544 H531 0.960 . S
C544 C543 1.524 . S
C545 C542 1.403 . S
C545 C546 1.392 . S
C545 C549 1.495 . S
C546 C545 1.392 . S
C546 C547 1.385 . S
C546 C548 1.478 . S
C547 H541 0.930 . S
C547 C543 1.400 . S
C547 C546 1.385 . S
C548 C546 1.478 . S
C548 C550 1.381 . S
C548 C554 1.383 . S
C549 C545 1.495 . S
C549 H555 0.959 . S
C549 H556 0.961 . S
C549 H557 0.960 . S
C550 C548 1.381 . S
C550 C551 1.394 . S
C550 H558 0.930 . S
C551 C550 1.394 . S
C551 C552 1.383 . S
C551 H559 0.929 . S
C552 C551 1.383 . S
C552 C553 1.377 . S
C553 H537 0.930 . S
C553 C552 1.377 . S
C553 C554 1.379 . S
C554 H538 0.931 . S
C554 C548 1.383 . S
C554 C553 1.379 . S
H555 C549 0.959 . S
H556 C549 0.961 . S
H557 C549 0.960 . S
H558 C550 0.930 . S
H559 C551 0.929 . S
H560 C568 0.929 . S
H561 C570 0.930 . S
H562 C572 0.930 . S
H563 C575 0.929 . S
H564 C578 0.930 . S
H565 C580 0.960 . S
H566 C580 0.960 . S
H567 C580 0.960 . S
C568 H560 0.929 . S
C568 C569 1.377 . S
C568 C570 1.384 . S
C569 C568 1.377 . S
C569 C575 1.390 . S
C570 H561 0.930 . S
C570 C568 1.384 . S
C570 C571 1.372 . S
C571 C570 1.372 . S
C571 C572 1.400 . S
C571 C576 1.490 . S
C572 H562 0.930 . S
C572 C571 1.400 . S
C572 C575 1.386 . S
H573 C589 0.930 . S
H574 C590 0.931 . S
C575 H563 0.929 . S
C575 C569 1.390 . S
C575 C572 1.386 . S
C576 C571 1.490 . S
C576 C578 1.395 . S
C576 C579 1.403 . S
H577 C583 0.930 . S
C578 H564 0.930 . S
C578 C576 1.395 . S
C578 C581 1.403 . S
C579 C576 1.403 . S
C579 C580 1.524 . S
C579 C583 1.400 . S
C580 H565 0.960 . S
C580 H566 0.960 . S
C580 H567 0.960 . S
C580 C579 1.524 . S
C581 C578 1.403 . S
C581 C582 1.392 . S
C581 C585 1.495 . S
C582 C581 1.392 . S
C582 C583 1.385 . S
C582 C584 1.478 . S
C583 H577 0.930 . S
C583 C579 1.400 . S
C583 C582 1.385 . S
C584 C582 1.478 . S
C584 C586 1.381 . S
C584 C590 1.383 . S
C585 C581 1.495 . S
C585 H591 0.959 . S
C585 H592 0.961 . S
C585 H593 0.960 . S
C586 C584 1.381 . S
C586 C587 1.394 . S
C586 H594 0.930 . S
C587 C586 1.394 . S
C587 C588 1.383 . S
C587 H595 0.929 . S
C588 C587 1.383 . S
C588 C589 1.377 . S
C589 H573 0.930 . S
C589 C588 1.377 . S
C589 C590 1.379 . S
C590 H574 0.931 . S
C590 C584 1.383 . S
C590 C589 1.379 . S
H591 C585 0.959 . S
H592 C585 0.961 . S
H593 C585 0.960 . S
H594 C586 0.930 . S
H595 C587 0.929 . S
H596 C604 0.929 . S
H597 C606 0.930 . S
H598 C608 0.930 . S
H599 C611 0.929 . S
H600 C614 0.930 . S
H601 C616 0.960 . S
H602 C616 0.960 . S
H603 C616 0.960 . S
C604 H596 0.929 . S
C604 C605 1.377 . S
C604 C606 1.384 . S
C605 C604 1.377 . S
C605 C611 1.390 . S
C606 H597 0.930 . S
C606 C604 1.384 . S
C606 C607 1.372 . S
C607 C606 1.372 . S
C607 C608 1.400 . S
C607 C612 1.490 . S
C608 H598 0.930 . S
C608 C607 1.400 . S
C608 C611 1.386 . S
H609 C625 0.930 . S
H610 C626 0.931 . S
C611 H599 0.929 . S
C611 C605 1.390 . S
C611 C608 1.386 . S
C612 C607 1.490 . S
C612 C614 1.395 . S
C612 C615 1.403 . S
H613 C619 0.930 . S
C614 H600 0.930 . S
C614 C612 1.395 . S
C614 C617 1.403 . S
C615 C612 1.403 . S
C615 C616 1.524 . S
C615 C619 1.400 . S
C616 H601 0.960 . S
C616 H602 0.960 . S
C616 H603 0.960 . S
C616 C615 1.524 . S
C617 C614 1.403 . S
C617 C618 1.392 . S
C617 C621 1.495 . S
C618 C617 1.392 . S
C618 C619 1.385 . S
C618 C620 1.478 . S
C619 H613 0.930 . S
C619 C615 1.400 . S
C619 C618 1.385 . S
C620 C618 1.478 . S
C620 C622 1.381 . S
C620 C626 1.383 . S
C621 C617 1.495 . S
C621 H627 0.959 . S
C621 H628 0.961 . S
C621 H629 0.960 . S
C622 C620 1.381 . S
C622 C623 1.394 . S
C622 H630 0.930 . S
C623 C622 1.394 . S
C623 C624 1.383 . S
C623 H631 0.929 . S
C624 C623 1.383 . S
C624 C625 1.377 . S
C625 H609 0.930 . S
C625 C624 1.377 . S
C625 C626 1.379 . S
C626 H610 0.931 . S
C626 C620 1.383 . S
C626 C625 1.379 . S
H627 C621 0.959 . S
H628 C621 0.961 . S
H629 C621 0.960 . S
H630 C622 0.930 . S
H631 C623 0.929 . S
H632 C640 0.929 . S
H633 C642 0.930 . S
H634 C644 0.930 . S
H635 C647 0.929 . S
H636 C650 0.930 . S
H637 C652 0.960 . S
H638 C652 0.960 . S
H639 C652 0.960 . S
C640 H632 0.929 . S
C640 C641 1.377 . S
C640 C642 1.384 . S
C641 C640 1.377 . S
C641 C647 1.390 . S
C642 H633 0.930 . S
C642 C640 1.384 . S
C642 C643 1.372 . S
C643 C642 1.372 . S
C643 C644 1.400 . S
C643 C648 1.490 . S
C644 H634 0.930 . S
C644 C643 1.400 . S
C644 C647 1.386 . S
H645 C661 0.930 . S
H646 C662 0.931 . S
C647 H635 0.929 . S
C647 C641 1.390 . S
C647 C644 1.386 . S
C648 C643 1.490 . S
C648 C650 1.395 . S
C648 C651 1.403 . S
H649 C655 0.930 . S
C650 H636 0.930 . S
C650 C648 1.395 . S
C650 C653 1.403 . S
C651 C648 1.403 . S
C651 C652 1.524 . S
C651 C655 1.400 . S
C652 H637 0.960 . S
C652 H638 0.960 . S
C652 H639 0.960 . S
C652 C651 1.524 . S
C653 C650 1.403 . S
C653 C654 1.392 . S
C653 C657 1.495 . S
C654 C653 1.392 . S
C654 C655 1.385 . S
C654 C656 1.478 . S
C655 H649 0.930 . S
C655 C651 1.400 . S
C655 C654 1.385 . S
C656 C654 1.478 . S
C656 C658 1.381 . S
C656 C662 1.383 . S
C657 C653 1.495 . S
C657 H663 0.959 . S
C657 H664 0.961 . S
C657 H665 0.960 . S
C658 C656 1.381 . S
C658 C659 1.394 . S
C658 H666 0.930 . S
C659 C658 1.394 . S
C659 C660 1.383 . S
C659 H667 0.929 . S
C660 C659 1.383 . S
C660 C661 1.377 . S
C661 H645 0.930 . S
C661 C660 1.377 . S
C661 C662 1.379 . S
C662 H646 0.931 . S
C662 C656 1.383 . S
C662 C661 1.379 . S
H663 C657 0.959 . S
H664 C657 0.961 . S
H665 C657 0.960 . S
H666 C658 0.930 . S
H667 C659 0.929 . S
H668 C676 0.932 1_455 S
H669 C678 0.930 . S
H670 C680 0.930 . S
H671 C683 0.929 . S
H672 C686 0.930 . S
H673 C688 0.960 . S
H674 C688 0.960 . S
H675 C688 0.960 . S
C676 H668 0.932 1_655 S
C676 C677 1.376 1_655 S
C676 C678 1.381 . S
C677 C676 1.376 1_455 S
C677 C683 1.351 1_455 S
C678 H669 0.930 . S
C678 C676 1.381 . S
C678 C679 1.372 . S
C679 C678 1.372 . S
C679 C680 1.400 . S
C679 C684 1.490 . S
C680 H670 0.930 . S
C680 C679 1.400 . S
C680 C683 1.386 . S
H681 C697 0.930 . S
H682 C698 0.931 . S
C683 H671 0.929 . S
C683 C677 1.351 1_655 S
C683 C680 1.386 . S
C684 C679 1.490 . S
C684 C686 1.395 . S
C684 C687 1.403 . S
H685 C691 0.930 . S
C686 H672 0.930 . S
C686 C684 1.395 . S
C686 C689 1.403 . S
C687 C684 1.403 . S
C687 C688 1.524 . S
C687 C691 1.400 . S
C688 H673 0.960 . S
C688 H674 0.960 . S
C688 H675 0.960 . S
C688 C687 1.524 . S
C689 C686 1.403 . S
C689 C690 1.392 . S
C689 C693 1.495 . S
C690 C689 1.392 . S
C690 C691 1.385 . S
C690 C692 1.478 . S
C691 H685 0.930 . S
C691 C687 1.400 . S
C691 C690 1.385 . S
C692 C690 1.478 . S
C692 C694 1.381 . S
C692 C698 1.383 . S
C693 C689 1.495 . S
C693 H699 0.959 . S
C693 H700 0.961 . S
C693 H701 0.960 . S
C694 C692 1.381 . S
C694 C695 1.394 . S
C694 H702 0.930 . S
C695 C694 1.394 . S
C695 C696 1.383 . S
C695 H703 0.929 . S
C696 C695 1.383 . S
C696 C697 1.377 . S
C697 H681 0.930 . S
C697 C696 1.377 . S
C697 C698 1.379 . S
C698 H682 0.931 . S
C698 C692 1.383 . S
C698 C697 1.379 . S
H699 C693 0.959 . S
H700 C693 0.961 . S
H701 C693 0.960 . S
H702 C694 0.930 . S
H703 C695 0.929 . S
H704 C712 0.929 . S
H705 C714 0.930 . S
H706 C716 0.930 . S
H707 C719 0.929 . S
H708 C722 0.930 . S
H709 C724 0.960 . S
H710 C724 0.960 . S
H711 C724 0.960 . S
C712 H704 0.929 . S
C712 C713 1.377 . S
C712 C714 1.384 . S
C713 C712 1.377 . S
C713 C719 1.390 . S
C714 H705 0.930 . S
C714 C712 1.384 . S
C714 C715 1.372 . S
C715 C714 1.372 . S
C715 C716 1.400 . S
C715 C720 1.490 . S
C716 H706 0.930 . S
C716 C715 1.400 . S
C716 C719 1.386 . S
H717 C733 0.930 . S
H718 C734 0.931 . S
C719 H707 0.929 . S
C719 C713 1.390 . S
C719 C716 1.386 . S
C720 C715 1.490 . S
C720 C722 1.395 . S
C720 C723 1.403 . S
H721 C727 0.930 . S
C722 H708 0.930 . S
C722 C720 1.395 . S
C722 C725 1.403 . S
C723 C720 1.403 . S
C723 C724 1.524 . S
C723 C727 1.400 . S
C724 H709 0.960 . S
C724 H710 0.960 . S
C724 H711 0.960 . S
C724 C723 1.524 . S
C725 C722 1.403 . S
C725 C726 1.392 . S
C725 C729 1.495 . S
C726 C725 1.392 . S
C726 C727 1.385 . S
C726 C728 1.478 . S
C727 H721 0.930 . S
C727 C723 1.400 . S
C727 C726 1.385 . S
C728 C726 1.478 . S
C728 C730 1.381 . S
C728 C734 1.383 . S
C729 C725 1.495 . S
C729 H735 0.959 . S
C729 H736 0.961 . S
C729 H737 0.960 . S
C730 C728 1.381 . S
C730 C731 1.394 . S
C730 H738 0.930 . S
C731 C730 1.394 . S
C731 C732 1.383 . S
C731 H739 0.929 . S
C732 C731 1.383 . S
C732 C733 1.377 . S
C733 H717 0.930 . S
C733 C732 1.377 . S
C733 C734 1.379 . S
C734 H718 0.931 . S
C734 C728 1.383 . S
C734 C733 1.379 . S
H735 C729 0.959 . S
H736 C729 0.961 . S
H737 C729 0.960 . S
H738 C730 0.930 . S
H739 C731 0.929 . S
H740 C748 0.929 . S
H741 C750 0.930 . S
H742 C752 0.930 . S
H743 C755 0.929 . S
H744 C758 0.930 . S
H745 C760 0.960 . S
H746 C760 0.960 . S
H747 C760 0.960 . S
C748 H740 0.929 . S
C748 C749 1.377 . S
C748 C750 1.384 . S
C749 C748 1.377 . S
C749 C755 1.390 . S
C750 H741 0.930 . S
C750 C748 1.384 . S
C750 C751 1.372 . S
C751 C750 1.372 . S
C751 C752 1.400 . S
C751 C756 1.490 . S
C752 H742 0.930 . S
C752 C751 1.400 . S
C752 C755 1.386 . S
H753 C769 0.930 . S
H754 C770 0.931 . S
C755 H743 0.929 . S
C755 C749 1.390 . S
C755 C752 1.386 . S
C756 C751 1.490 . S
C756 C758 1.395 . S
C756 C759 1.403 . S
H757 C763 0.930 . S
C758 H744 0.930 . S
C758 C756 1.395 . S
C758 C761 1.403 . S
C759 C756 1.403 . S
C759 C760 1.524 . S
C759 C763 1.400 . S
C760 H745 0.960 . S
C760 H746 0.960 . S
C760 H747 0.960 . S
C760 C759 1.524 . S
C761 C758 1.403 . S
C761 C762 1.392 . S
C761 C765 1.495 . S
C762 C761 1.392 . S
C762 C763 1.385 . S
C762 C764 1.478 . S
C763 H757 0.930 . S
C763 C759 1.400 . S
C763 C762 1.385 . S
C764 C762 1.478 . S
C764 C766 1.381 . S
C764 C770 1.383 . S
C765 C761 1.495 . S
C765 H771 0.959 . S
C765 H772 0.961 . S
C765 H773 0.960 . S
C766 C764 1.381 . S
C766 C767 1.394 1_455 S
C766 H774 0.930 . S
C767 C766 1.394 1_655 S
C767 C768 1.386 . S
C767 H775 0.929 . S
C768 C767 1.386 . S
C768 C769 1.339 1_655 S
C769 H753 0.930 . S
C769 C768 1.339 1_455 S
C769 C770 1.379 . S
C770 H754 0.931 . S
C770 C764 1.383 . S
C770 C769 1.379 . S
H771 C765 0.959 . S
H772 C765 0.961 . S
H773 C765 0.960 . S
H774 C766 0.930 . S
H775 C767 0.929 . S
H776 C784 0.929 . S
H777 C786 0.930 . S
H778 C788 0.930 . S
H779 C791 0.929 . S
H780 C794 0.930 . S
H781 C796 0.960 . S
H782 C796 0.960 . S
H783 C796 0.960 . S
C784 H776 0.929 . S
C784 C785 1.377 . S
C784 C786 1.384 . S
C785 C784 1.377 . S
C785 C791 1.390 . S
C786 H777 0.930 . S
C786 C784 1.384 . S
C786 C787 1.372 . S
C787 C786 1.372 . S
C787 C788 1.400 . S
C787 C792 1.490 . S
C788 H778 0.930 . S
C788 C787 1.400 . S
C788 C791 1.386 . S
H789 C805 0.930 . S
H790 C806 0.931 . S
C791 H779 0.929 . S
C791 C785 1.390 . S
C791 C788 1.386 . S
C792 C787 1.490 . S
C792 C794 1.395 . S
C792 C795 1.403 . S
H793 C799 0.930 . S
C794 H780 0.930 . S
C794 C792 1.395 . S
C794 C797 1.403 . S
C795 C792 1.403 . S
C795 C796 1.524 . S
C795 C799 1.400 . S
C796 H781 0.960 . S
C796 H782 0.960 . S
C796 H783 0.960 . S
C796 C795 1.524 . S
C797 C794 1.403 . S
C797 C798 1.392 . S
C797 C801 1.495 . S
C798 C797 1.392 . S
C798 C799 1.385 . S
C798 C800 1.478 . S
C799 H793 0.930 . S
C799 C795 1.400 . S
C799 C798 1.385 . S
C800 C798 1.478 . S
C800 C802 1.381 . S
C800 C806 1.383 . S
C801 C797 1.495 . S
C801 H807 0.959 . S
C801 H808 0.961 . S
C801 H809 0.960 . S
C802 C800 1.381 . S
C802 C803 1.394 . S
C802 H810 0.930 . S
C803 C802 1.394 . S
C803 C804 1.383 . S
C803 H811 0.929 . S
C804 C803 1.383 . S
C804 C805 1.377 . S
C805 H789 0.930 . S
C805 C804 1.377 . S
C805 C806 1.379 . S
C806 H790 0.931 . S
C806 C800 1.383 . S
C806 C805 1.379 . S
H807 C801 0.959 . S
H808 C801 0.961 . S
H809 C801 0.960 . S
H810 C802 0.930 . S
H811 C803 0.929 . S
H812 C820 0.929 . S
H813 C822 0.930 . S
H814 C824 0.930 . S
H815 C827 0.929 . S
H816 C830 0.930 . S
H817 C832 0.960 . S
H818 C832 0.960 . S
H819 C832 0.960 . S
C820 H812 0.929 . S
C820 C821 1.377 . S
C820 C822 1.384 . S
C821 C820 1.377 . S
C821 C827 1.390 . S
C822 H813 0.930 . S
C822 C820 1.384 . S
C822 C823 1.372 . S
C823 C822 1.372 . S
C823 C824 1.400 . S
C823 C828 1.490 . S
C824 H814 0.930 . S
C824 C823 1.400 . S
C824 C827 1.386 . S
H825 C841 0.930 . S
H826 C842 0.931 . S
C827 H815 0.929 . S
C827 C821 1.390 . S
C827 C824 1.386 . S
C828 C823 1.490 . S
C828 C830 1.395 . S
C828 C831 1.403 . S
H829 C835 0.930 . S
C830 H816 0.930 . S
C830 C828 1.395 . S
C830 C833 1.403 . S
C831 C828 1.403 . S
C831 C832 1.524 . S
C831 C835 1.400 . S
C832 H817 0.960 . S
C832 H818 0.960 . S
C832 H819 0.960 . S
C832 C831 1.524 . S
C833 C830 1.403 . S
C833 C834 1.392 . S
C833 C837 1.495 . S
C834 C833 1.392 . S
C834 C835 1.385 . S
C834 C836 1.478 . S
C835 H829 0.930 . S
C835 C831 1.400 . S
C835 C834 1.385 . S
C836 C834 1.478 . S
C836 C838 1.381 . S
C836 C842 1.383 . S
C837 C833 1.495 . S
C837 H843 0.959 . S
C837 H844 0.961 . S
C837 H845 0.960 . S
C838 C836 1.381 . S
C838 C839 1.394 . S
C838 H846 0.930 . S
C839 C838 1.394 . S
C839 C840 1.383 . S
C839 H847 0.929 . S
C840 C839 1.383 . S
C840 C841 1.377 . S
C841 H825 0.930 . S
C841 C840 1.377 . S
C841 C842 1.379 . S
C842 H826 0.931 . S
C842 C836 1.383 . S
C842 C841 1.379 . S
H843 C837 0.959 . S
H844 C837 0.961 . S
H845 C837 0.960 . S
H846 C838 0.930 . S
H847 C839 0.929 . S
H848 C856 0.929 . S
H849 C858 0.930 . S
H850 C860 0.930 . S
H851 C863 0.929 . S
H852 C866 0.930 . S
H853 C868 0.960 . S
H854 C868 0.960 . S
H855 C868 0.960 . S
C856 H848 0.929 . S
C856 C857 1.377 . S
C856 C858 1.384 . S
C857 C856 1.377 . S
C857 C863 1.390 . S
C858 H849 0.930 . S
C858 C856 1.384 . S
C858 C859 1.372 . S
C859 C858 1.372 . S
C859 C860 1.400 . S
C859 C864 1.490 . S
C860 H850 0.930 . S
C860 C859 1.400 . S
C860 C863 1.386 . S
H861 C877 0.930 . S
H862 C878 0.931 . S
C863 H851 0.929 . S
C863 C857 1.390 . S
C863 C860 1.386 . S
C864 C859 1.490 . S
C864 C866 1.395 . S
C864 C867 1.403 . S
H865 C871 0.930 . S
C866 H852 0.930 . S
C866 C864 1.395 . S
C866 C869 1.403 . S
C867 C864 1.403 . S
C867 C868 1.524 . S
C867 C871 1.400 . S
C868 H853 0.960 . S
C868 H854 0.960 . S
C868 H855 0.960 . S
C868 C867 1.524 . S
C869 C866 1.403 . S
C869 C870 1.392 . S
C869 C873 1.495 . S
C870 C869 1.392 . S
C870 C871 1.385 . S
C870 C872 1.478 . S
C871 H865 0.930 . S
C871 C867 1.400 . S
C871 C870 1.385 . S
C872 C870 1.478 . S
C872 C874 1.381 . S
C872 C878 1.383 . S
C873 C869 1.495 . S
C873 H879 0.959 . S
C873 H880 0.961 . S
C873 H881 0.960 . S
C874 C872 1.381 . S
C874 C875 1.394 . S
C874 H882 0.930 . S
C875 C874 1.394 . S
C875 C876 1.383 . S
C875 H883 0.929 . S
C876 C875 1.383 . S
C876 C877 1.377 . S
C877 H861 0.930 . S
C877 C876 1.377 . S
C877 C878 1.379 . S
C878 H862 0.931 . S
C878 C872 1.383 . S
C878 C877 1.379 . S
H879 C873 0.959 . S
H880 C873 0.961 . S
H881 C873 0.960 . S
H882 C874 0.930 . S
H883 C875 0.929 . S
H884 C892 0.929 . S
H885 C894 0.930 . S
H886 C896 0.930 . S
H887 C899 0.929 . S
H888 C902 0.930 . S
H889 C904 0.960 . S
H890 C904 0.960 . S
H891 C904 0.960 . S
C892 H884 0.929 . S
C892 C893 1.377 . S
C892 C894 1.384 . S
C893 C892 1.377 . S
C893 C899 1.390 . S
C894 H885 0.930 . S
C894 C892 1.384 . S
C894 C895 1.372 . S
C895 C894 1.372 . S
C895 C896 1.400 . S
C895 C900 1.490 . S
C896 H886 0.930 . S
C896 C895 1.400 . S
C896 C899 1.386 . S
H897 C913 0.930 . S
H898 C914 0.931 . S
C899 H887 0.929 . S
C899 C893 1.390 . S
C899 C896 1.386 . S
C900 C895 1.490 . S
C900 C902 1.395 . S
C900 C903 1.403 . S
H901 C907 0.930 . S
C902 H888 0.930 . S
C902 C900 1.395 . S
C902 C905 1.403 . S
C903 C900 1.403 . S
C903 C904 1.524 . S
C903 C907 1.400 . S
C904 H889 0.960 . S
C904 H890 0.960 . S
C904 H891 0.960 . S
C904 C903 1.524 . S
C905 C902 1.403 . S
C905 C906 1.392 . S
C905 C909 1.495 . S
C906 C905 1.392 . S
C906 C907 1.385 . S
C906 C908 1.478 . S
C907 H901 0.930 . S
C907 C903 1.400 . S
C907 C906 1.385 . S
C908 C906 1.478 . S
C908 C910 1.381 . S
C908 C914 1.383 . S
C909 C905 1.495 . S
C909 H915 0.959 . S
C909 H916 0.961 . S
C909 H917 0.960 . S
C910 C908 1.381 . S
C910 C911 1.394 . S
C910 H918 0.930 . S
C911 C910 1.394 . S
C911 C912 1.383 . S
C911 H919 0.929 . S
C912 C911 1.383 . S
C912 C913 1.377 . S
C913 H897 0.930 . S
C913 C912 1.377 . S
C913 C914 1.379 . S
C914 H898 0.931 . S
C914 C908 1.383 . S
C914 C913 1.379 . S
H915 C909 0.959 . S
H916 C909 0.961 . S
H917 C909 0.960 . S
H918 C910 0.930 . S
H919 C911 0.929 . S
H920 C928 0.929 . S
H921 C930 0.930 . S
H922 C932 0.930 . S
H923 C935 0.929 . S
H924 C938 0.930 . S
H925 C940 0.960 . S
H926 C940 0.960 . S
H927 C940 0.960 . S
C928 H920 0.929 . S
C928 C929 1.377 . S
C928 C930 1.384 . S
C929 C928 1.377 . S
C929 C935 1.390 . S
C930 H921 0.930 . S
C930 C928 1.384 . S
C930 C931 1.372 . S
C931 C930 1.372 . S
C931 C932 1.400 . S
C931 C936 1.490 . S
C932 H922 0.930 . S
C932 C931 1.400 . S
C932 C935 1.386 . S
H933 C949 0.930 . S
H934 C950 0.931 . S
C935 H923 0.929 . S
C935 C929 1.390 . S
C935 C932 1.386 . S
C936 C931 1.490 . S
C936 C938 1.395 . S
C936 C939 1.403 . S
H937 C943 0.930 . S
C938 H924 0.930 . S
C938 C936 1.395 . S
C938 C941 1.403 . S
C939 C936 1.403 . S
C939 C940 1.524 . S
C939 C943 1.400 . S
C940 H925 0.960 . S
C940 H926 0.960 . S
C940 H927 0.960 . S
C940 C939 1.524 . S
C941 C938 1.403 . S
C941 C942 1.392 . S
C941 C945 1.495 . S
C942 C941 1.392 . S
C942 C943 1.385 . S
C942 C944 1.478 . S
C943 H937 0.930 . S
C943 C939 1.400 . S
C943 C942 1.385 . S
C944 C942 1.478 . S
C944 C946 1.381 . S
C944 C950 1.383 . S
C945 C941 1.495 . S
C945 H951 0.959 . S
C945 H952 0.961 . S
C945 H953 0.960 . S
C946 C944 1.381 . S
C946 C947 1.394 . S
C946 H954 0.930 . S
C947 C946 1.394 . S
C947 C948 1.383 . S
C947 H955 0.929 . S
C948 C947 1.383 . S
C948 C949 1.377 . S
C949 H933 0.930 . S
C949 C948 1.377 . S
C949 C950 1.379 . S
C950 H934 0.931 . S
C950 C944 1.383 . S
C950 C949 1.379 . S
H951 C945 0.959 . S
H952 C945 0.961 . S
H953 C945 0.960 . S
H954 C946 0.930 . S
H955 C947 0.929 . S
H956 C964 0.929 . S
H957 C966 0.930 . S
H958 C968 0.930 . S
H959 C971 0.929 . S
H960 C974 0.930 . S
H961 C976 0.960 . S
H962 C976 0.960 . S
H963 C976 0.960 . S
C964 H956 0.929 . S
C964 C965 1.377 . S
C964 C966 1.384 . S
C965 C964 1.377 . S
C965 C971 1.390 . S
C966 H957 0.930 . S
C966 C964 1.384 . S
C966 C967 1.372 . S
C967 C966 1.372 . S
C967 C968 1.400 . S
C967 C972 1.490 . S
C968 H958 0.930 . S
C968 C967 1.400 . S
C968 C971 1.386 . S
H969 C985 0.930 1_655 S
H970 C986 0.931 . S
C971 H959 0.929 . S
C971 C965 1.390 . S
C971 C968 1.386 . S
C972 C967 1.490 . S
C972 C974 1.395 . S
C972 C975 1.403 . S
H973 C979 0.930 . S
C974 H960 0.930 . S
C974 C972 1.395 . S
C974 C977 1.403 . S
C975 C972 1.403 . S
C975 C976 1.524 . S
C975 C979 1.400 . S
C976 H961 0.960 . S
C976 H962 0.960 . S
C976 H963 0.960 . S
C976 C975 1.524 . S
C977 C974 1.403 . S
C977 C978 1.392 . S
C977 C981 1.495 . S
C978 C977 1.392 . S
C978 C979 1.385 . S
C978 C980 1.478 . S
C979 H973 0.930 . S
C979 C975 1.400 . S
C979 C978 1.385 . S
C980 C978 1.478 . S
C980 C982 1.381 . S
C980 C986 1.383 . S
C981 C977 1.495 . S
C981 H987 0.959 . S
C981 H988 0.961 . S
C981 H989 0.960 . S
C982 C980 1.381 . S
C982 C983 1.394 . S
C982 H990 0.930 . S
C983 C982 1.394 . S
C983 C984 1.397 . S
C983 H991 0.929 . S
C984 C983 1.397 . S
C984 C985 1.381 . S
C985 H969 0.930 1_455 S
C985 C984 1.381 . S
C985 C986 1.379 . S
C986 H970 0.931 . S
C986 C980 1.383 . S
C986 C985 1.379 . S
H987 C981 0.959 . S
H988 C981 0.961 . S
H989 C981 0.960 . S
H990 C982 0.930 . S
H991 C983 0.929 . S
H992 C1000 0.929 . S
H993 C1002 0.930 . S
H994 C1004 0.930 . S
H995 C1007 0.929 . S
H996 C1010 0.930 . S
H997 C1012 0.960 . S
H998 C1012 0.960 . S
H999 C1012 0.960 . S
C1000 H992 0.929 . S
C1000 C1001 1.377 . S
C1000 C1002 1.384 . S
C1001 C1000 1.377 . S
C1001 C1007 1.390 . S
C1002 H993 0.930 . S
C1002 C1000 1.384 . S
C1002 C1003 1.372 . S
C1003 C1002 1.372 . S
C1003 C1004 1.400 . S
C1003 C1008 1.490 . S
C1004 H994 0.930 . S
C1004 C1003 1.400 . S
C1004 C1007 1.386 . S
H1005 C1021 0.930 . S
H1006 C1022 0.931 . S
C1007 H995 0.929 . S
C1007 C1001 1.390 . S
C1007 C1004 1.386 . S
C1008 C1003 1.490 . S
C1008 C1010 1.395 . S
C1008 C1011 1.403 . S
H1009 C1015 0.930 . S
C1010 H996 0.930 . S
C1010 C1008 1.395 . S
C1010 C1013 1.403 . S
C1011 C1008 1.403 . S
C1011 C1012 1.524 . S
C1011 C1015 1.400 . S
C1012 H997 0.960 . S
C1012 H998 0.960 . S
C1012 H999 0.960 . S
C1012 C1011 1.524 . S
C1013 C1010 1.403 . S
C1013 C1014 1.392 . S
C1013 C1017 1.495 . S
C1014 C1013 1.392 . S
C1014 C1015 1.385 . S
C1014 C1016 1.478 . S
C1015 H1009 0.930 . S
C1015 C1011 1.400 . S
C1015 C1014 1.385 . S
C1016 C1014 1.478 . S
C1016 C1018 1.381 . S
C1016 C1022 1.383 . S
C1017 C1013 1.495 . S
C1017 H1023 0.959 . S
C1017 H1024 0.961 . S
C1017 H1025 0.960 . S
C1018 C1016 1.381 . S
C1018 C1019 1.394 . S
C1018 H1026 0.930 . S
C1019 C1018 1.394 . S
C1019 C1020 1.383 . S
C1019 H1027 0.929 . S
C1020 C1019 1.383 . S
C1020 C1021 1.377 . S
C1021 H1005 0.930 . S
C1021 C1020 1.377 . S
C1021 C1022 1.379 . S
C1022 H1006 0.931 . S
C1022 C1016 1.383 . S
C1022 C1021 1.379 . S
H1023 C1017 0.959 . S
H1024 C1017 0.961 . S
H1025 C1017 0.960 . S
H1026 C1018 0.930 . S
H1027 C1019 0.929 . S
H1028 C1036 0.929 . S
H1029 C1038 0.930 . S
H1030 C1040 0.930 . S
H1031 C1043 0.929 . S
H1032 C1046 0.930 . S
H1033 C1048 0.960 . S
H1034 C1048 0.960 . S
H1035 C1048 0.960 . S
C1036 H1028 0.929 . S
C1036 C1037 1.377 . S
C1036 C1038 1.384 . S
C1037 C1036 1.377 . S
C1037 C1043 1.390 . S
C1038 H1029 0.930 . S
C1038 C1036 1.384 . S
C1038 C1039 1.372 . S
C1039 C1038 1.372 . S
C1039 C1040 1.400 . S
C1039 C1044 1.490 . S
C1040 H1030 0.930 . S
C1040 C1039 1.400 . S
C1040 C1043 1.386 . S
H1041 C1057 0.930 . S
H1042 C1058 0.931 . S
C1043 H1031 0.929 . S
C1043 C1037 1.390 . S
C1043 C1040 1.386 . S
C1044 C1039 1.490 . S
C1044 C1046 1.395 . S
C1044 C1047 1.403 . S
H1045 C1051 0.930 . S
C1046 H1032 0.930 . S
C1046 C1044 1.395 . S
C1046 C1049 1.403 . S
C1047 C1044 1.403 . S
C1047 C1048 1.524 . S
C1047 C1051 1.400 . S
C1048 H1033 0.960 . S
C1048 H1034 0.960 . S
C1048 H1035 0.960 . S
C1048 C1047 1.524 . S
C1049 C1046 1.403 . S
C1049 C1050 1.392 . S
C1049 C1053 1.495 . S
C1050 C1049 1.392 . S
C1050 C1051 1.385 . S
C1050 C1052 1.478 . S
C1051 H1045 0.930 . S
C1051 C1047 1.400 . S
C1051 C1050 1.385 . S
C1052 C1050 1.478 . S
C1052 C1054 1.381 . S
C1052 C1058 1.383 . S
C1053 C1049 1.495 . S
C1053 H1059 0.959 . S
C1053 H1060 0.961 . S
C1053 H1061 0.960 . S
C1054 C1052 1.381 . S
C1054 C1055 1.394 . S
C1054 H1062 0.930 . S
C1055 C1054 1.394 . S
C1055 C1056 1.383 . S
C1055 H1063 0.929 . S
C1056 C1055 1.383 . S
C1056 C1057 1.377 . S
C1057 H1041 0.930 . S
C1057 C1056 1.377 . S
C1057 C1058 1.379 . S
C1058 H1042 0.931 . S
C1058 C1052 1.383 . S
C1058 C1057 1.379 . S
H1059 C1053 0.959 . S
H1060 C1053 0.961 . S
H1061 C1053 0.960 . S
H1062 C1054 0.930 . S
H1063 C1055 0.929 . S
H1064 C1072 0.929 . S
H1065 C1074 0.930 . S
H1066 C1076 0.930 . S
H1067 C1079 0.929 . S
H1068 C1082 0.930 . S
H1069 C1084 0.960 . S
H1070 C1084 0.960 . S
H1071 C1084 0.960 . S
C1072 H1064 0.929 . S
C1072 C1073 1.377 . S
C1072 C1074 1.384 . S
C1073 C1072 1.377 . S
C1073 C1079 1.390 . S
C1074 H1065 0.930 . S
C1074 C1072 1.384 . S
C1074 C1075 1.372 . S
C1075 C1074 1.372 . S
C1075 C1076 1.400 . S
C1075 C1080 1.490 . S
C1076 H1066 0.930 . S
C1076 C1075 1.400 . S
C1076 C1079 1.386 . S
H1077 C1093 0.930 . S
H1078 C1094 0.931 . S
C1079 H1067 0.929 . S
C1079 C1073 1.390 . S
C1079 C1076 1.386 . S
C1080 C1075 1.490 . S
C1080 C1082 1.395 . S
C1080 C1083 1.403 . S
H1081 C1087 0.930 . S
C1082 H1068 0.930 . S
C1082 C1080 1.395 . S
C1082 C1085 1.403 . S
C1083 C1080 1.403 . S
C1083 C1084 1.524 . S
C1083 C1087 1.400 . S
C1084 H1069 0.960 . S
C1084 H1070 0.960 . S
C1084 H1071 0.960 . S
C1084 C1083 1.524 . S
C1085 C1082 1.403 . S
C1085 C1086 1.392 . S
C1085 C1089 1.495 . S
C1086 C1085 1.392 . S
C1086 C1087 1.385 . S
C1086 C1088 1.478 . S
C1087 H1081 0.930 . S
C1087 C1083 1.400 . S
C1087 C1086 1.385 . S
C1088 C1086 1.478 . S
C1088 C1090 1.381 . S
C1088 C1094 1.383 . S
C1089 C1085 1.495 . S
C1089 H1095 0.959 . S
C1089 H1096 0.961 . S
C1089 H1097 0.960 . S
C1090 C1088 1.381 . S
C1090 C1091 1.394 . S
C1090 H1098 0.930 . S
C1091 C1090 1.394 . S
C1091 C1092 1.383 . S
C1091 H1099 0.929 . S
C1092 C1091 1.383 . S
C1092 C1093 1.377 . S
C1093 H1077 0.930 . S
C1093 C1092 1.377 . S
C1093 C1094 1.379 . S
C1094 H1078 0.931 . S
C1094 C1088 1.383 . S
C1094 C1093 1.379 . S
H1095 C1089 0.959 . S
H1096 C1089 0.961 . S
H1097 C1089 0.960 . S
H1098 C1090 0.930 . S
H1099 C1091 0.929 . S
H1100 C1108 0.929 . S
H1101 C1110 0.930 . S
H1102 C1112 0.930 . S
H1103 C1115 0.929 . S
H1104 C1118 0.930 . S
H1105 C1120 0.960 . S
H1106 C1120 0.960 . S
H1107 C1120 0.960 . S
C1108 H1100 0.929 . S
C1108 C1109 1.377 . S
C1108 C1110 1.384 . S
C1109 C1108 1.377 . S
C1109 C1115 1.390 . S
C1110 H1101 0.930 . S
C1110 C1108 1.384 . S
C1110 C1111 1.372 . S
C1111 C1110 1.372 . S
C1111 C1112 1.400 . S
C1111 C1116 1.490 . S
C1112 H1102 0.930 . S
C1112 C1111 1.400 . S
C1112 C1115 1.386 . S
H1113 C1129 0.930 . S
H1114 C1130 0.931 . S
C1115 H1103 0.929 . S
C1115 C1109 1.390 . S
C1115 C1112 1.386 . S
C1116 C1111 1.490 . S
C1116 C1118 1.395 . S
C1116 C1119 1.403 . S
H1117 C1123 0.930 . S
C1118 H1104 0.930 . S
C1118 C1116 1.395 . S
C1118 C1121 1.403 . S
C1119 C1116 1.403 . S
C1119 C1120 1.524 . S
C1119 C1123 1.400 . S
C1120 H1105 0.960 . S
C1120 H1106 0.960 . S
C1120 H1107 0.960 . S
C1120 C1119 1.524 . S
C1121 C1118 1.403 . S
C1121 C1122 1.392 . S
C1121 C1125 1.495 . S
C1122 C1121 1.392 . S
C1122 C1123 1.385 . S
C1122 C1124 1.478 . S
C1123 H1117 0.930 . S
C1123 C1119 1.400 . S
C1123 C1122 1.385 . S
C1124 C1122 1.478 . S
C1124 C1126 1.381 . S
C1124 C1130 1.383 . S
C1125 C1121 1.495 . S
C1125 H1131 0.959 . S
C1125 H1132 0.961 . S
C1125 H1133 0.960 . S
C1126 C1124 1.381 . S
C1126 C1127 1.394 . S
C1126 H1134 0.930 . S
C1127 C1126 1.394 . S
C1127 C1128 1.383 1_455 S
C1127 H1135 0.929 1_455 S
C1128 C1127 1.383 1_655 S
C1128 C1129 1.377 1_655 S
C1129 H1113 0.930 . S
C1129 C1128 1.377 1_455 S
C1129 C1130 1.379 . S
C1130 H1114 0.931 . S
C1130 C1124 1.383 . S
C1130 C1129 1.379 . S
H1131 C1125 0.959 . S
H1132 C1125 0.961 . S
H1133 C1125 0.960 . S
H1134 C1126 0.930 . S
H1135 C1127 0.929 1_655 S
H1136 C1144 0.929 . S
H1137 C1146 0.930 . S
H1138 C1148 0.930 . S
H1139 C1151 0.929 . S
H1140 C1154 0.930 . S
H1141 C1156 0.960 . S
H1142 C1156 0.960 . S
H1143 C1156 0.960 . S
C1144 H1136 0.929 . S
C1144 C1145 1.377 . S
C1144 C1146 1.384 . S
C1145 C1144 1.377 . S
C1145 C1151 1.390 . S
C1146 H1137 0.930 . S
C1146 C1144 1.384 . S
C1146 C1147 1.372 . S
C1147 C1146 1.372 . S
C1147 C1148 1.400 . S
C1147 C1152 1.490 . S
C1148 H1138 0.930 . S
C1148 C1147 1.400 . S
C1148 C1151 1.386 . S
H1149 C1165 0.930 . S
H1150 C1166 0.931 . S
C1151 H1139 0.929 . S
C1151 C1145 1.390 . S
C1151 C1148 1.386 . S
C1152 C1147 1.490 . S
C1152 C1154 1.395 . S
C1152 C1155 1.403 . S
H1153 C1159 0.930 . S
C1154 H1140 0.930 . S
C1154 C1152 1.395 . S
C1154 C1157 1.403 . S
C1155 C1152 1.403 . S
C1155 C1156 1.524 . S
C1155 C1159 1.400 . S
C1156 H1141 0.960 . S
C1156 H1142 0.960 . S
C1156 H1143 0.960 . S
C1156 C1155 1.524 . S
C1157 C1154 1.403 . S
C1157 C1158 1.392 . S
C1157 C1161 1.495 . S
C1158 C1157 1.392 . S
C1158 C1159 1.385 . S
C1158 C1160 1.478 . S
C1159 H1153 0.930 . S
C1159 C1155 1.400 . S
C1159 C1158 1.385 . S
C1160 C1158 1.478 . S
C1160 C1162 1.381 . S
C1160 C1166 1.383 . S
C1161 C1157 1.495 . S
C1161 H1167 0.959 . S
C1161 H1168 0.961 . S
C1161 H1169 0.960 . S
C1162 C1160 1.381 . S
C1162 C1163 1.394 . S
C1162 H1170 0.930 . S
C1163 C1162 1.394 . S
C1163 C1164 1.383 . S
C1163 H1171 0.929 . S
C1164 C1163 1.383 . S
C1164 C1165 1.377 . S
C1165 H1149 0.930 . S
C1165 C1164 1.377 . S
C1165 C1166 1.379 . S
C1166 H1150 0.931 . S
C1166 C1160 1.383 . S
C1166 C1165 1.379 . S
H1167 C1161 0.959 . S
H1168 C1161 0.961 . S
H1169 C1161 0.960 . S
H1170 C1162 0.930 . S
H1171 C1163 0.929 . S
H1172 C1180 0.929 . S
H1173 C1182 0.930 . S
H1174 C1184 0.930 . S
H1175 C1187 0.929 . S
H1176 C1190 0.930 . S
H1177 C1192 0.960 . S
H1178 C1192 0.960 . S
H1179 C1192 0.960 . S
C1180 H1172 0.929 . S
C1180 C1181 1.377 . S
C1180 C1182 1.384 . S
C1181 C1180 1.377 . S
C1181 C1187 1.390 . S
C1182 H1173 0.930 . S
C1182 C1180 1.384 . S
C1182 C1183 1.372 . S
C1183 C1182 1.372 . S
C1183 C1184 1.400 . S
C1183 C1188 1.490 . S
C1184 H1174 0.930 . S
C1184 C1183 1.400 . S
C1184 C1187 1.386 . S
H1185 C1201 0.930 1_655 S
H1186 C1202 0.931 . S
C1187 H1175 0.929 . S
C1187 C1181 1.390 . S
C1187 C1184 1.386 . S
C1188 C1183 1.490 . S
C1188 C1190 1.395 . S
C1188 C1191 1.403 . S
H1189 C1195 0.930 . S
C1190 H1176 0.930 . S
C1190 C1188 1.395 . S
C1190 C1193 1.403 . S
C1191 C1188 1.403 . S
C1191 C1192 1.524 . S
C1191 C1195 1.400 . S
C1192 H1177 0.960 . S
C1192 H1178 0.960 . S
C1192 H1179 0.960 . S
C1192 C1191 1.524 . S
C1193 C1190 1.403 . S
C1193 C1194 1.392 . S
C1193 C1197 1.495 . S
C1194 C1193 1.392 . S
C1194 C1195 1.385 . S
C1194 C1196 1.478 . S
C1195 H1189 0.930 . S
C1195 C1191 1.400 . S
C1195 C1194 1.385 . S
C1196 C1194 1.478 . S
C1196 C1198 1.381 . S
C1196 C1202 1.383 . S
C1197 C1193 1.495 . S
C1197 H1203 0.959 . S
C1197 H1204 0.961 . S
C1197 H1205 0.960 . S
C1198 C1196 1.381 . S
C1198 C1199 1.394 . S
C1198 H1206 0.930 . S
C1199 C1198 1.394 . S
C1199 C1200 1.383 1_455 S
C1199 H1207 0.929 . S
C1200 C1199 1.383 1_655 S
C1200 C1201 1.377 1_655 S
C1201 H1185 0.930 1_455 S
C1201 C1200 1.377 1_455 S
C1201 C1202 1.379 . S
C1202 H1186 0.931 . S
C1202 C1196 1.383 . S
C1202 C1201 1.379 . S
H1203 C1197 0.959 . S
H1204 C1197 0.961 . S
H1205 C1197 0.960 . S
H1206 C1198 0.930 . S
H1207 C1199 0.929 . S
H1208 C1216 0.929 . S
H1209 C1218 0.930 . S
H1210 C1220 0.930 . S
H1211 C1223 0.929 . S
H1212 C1226 0.930 . S
H1213 C1228 0.960 . S
H1214 C1228 0.960 . S
H1215 C1228 0.960 . S
C1216 H1208 0.929 . S
C1216 C1217 1.377 . S
C1216 C1218 1.384 . S
C1217 C1216 1.377 . S
C1217 C1223 1.390 . S
C1218 H1209 0.930 . S
C1218 C1216 1.384 . S
C1218 C1219 1.372 . S
C1219 C1218 1.372 . S
C1219 C1220 1.400 . S
C1219 C1224 1.490 . S
C1220 H1210 0.930 . S
C1220 C1219 1.400 . S
C1220 C1223 1.386 . S
H1221 C1237 0.930 . S
H1222 C1238 0.931 . S
C1223 H1211 0.929 . S
C1223 C1217 1.390 . S
C1223 C1220 1.386 . S
C1224 C1219 1.490 . S
C1224 C1226 1.395 . S
C1224 C1227 1.403 . S
H1225 C1231 0.930 . S
C1226 H1212 0.930 . S
C1226 C1224 1.395 . S
C1226 C1229 1.403 . S
C1227 C1224 1.403 . S
C1227 C1228 1.524 . S
C1227 C1231 1.400 . S
C1228 H1213 0.960 . S
C1228 H1214 0.960 . S
C1228 H1215 0.960 . S
C1228 C1227 1.524 . S
C1229 C1226 1.403 . S
C1229 C1230 1.392 . S
C1229 C1233 1.495 . S
C1230 C1229 1.392 . S
C1230 C1231 1.385 . S
C1230 C1232 1.478 . S
C1231 H1225 0.930 . S
C1231 C1227 1.400 . S
C1231 C1230 1.385 . S
C1232 C1230 1.478 . S
C1232 C1234 1.381 . S
C1232 C1238 1.383 . S
C1233 C1229 1.495 . S
C1233 H1239 0.959 . S
C1233 H1240 0.961 . S
C1233 H1241 0.960 . S
C1234 C1232 1.381 . S
C1234 C1235 1.394 . S
C1234 H1242 0.930 . S
C1235 C1234 1.394 . S
C1235 C1236 1.383 . S
C1235 H1243 0.929 . S
C1236 C1235 1.383 . S
C1236 C1237 1.377 . S
C1237 H1221 0.930 . S
C1237 C1236 1.377 . S
C1237 C1238 1.379 . S
C1238 H1222 0.931 . S
C1238 C1232 1.383 . S
C1238 C1237 1.379 . S
H1239 C1233 0.959 . S
H1240 C1233 0.961 . S
H1241 C1233 0.960 . S
H1242 C1234 0.930 . S
H1243 C1235 0.929 . S
H1244 C1252 0.929 . S
H1245 C1254 0.930 . S
H1246 C1256 0.930 . S
H1247 C1259 0.929 . S
H1248 C1262 0.930 . S
H1249 C1264 0.960 . S
H1250 C1264 0.960 . S
H1251 C1264 0.960 . S
C1252 H1244 0.929 . S
C1252 C1253 1.377 . S
C1252 C1254 1.384 . S
C1253 C1252 1.377 . S
C1253 C1259 1.390 . S
C1254 H1245 0.930 . S
C1254 C1252 1.384 . S
C1254 C1255 1.372 . S
C1255 C1254 1.372 . S
C1255 C1256 1.400 . S
C1255 C1260 1.490 . S
C1256 H1246 0.930 . S
C1256 C1255 1.400 . S
C1256 C1259 1.386 . S
H1257 C1273 0.930 . S
H1258 C1274 0.931 . S
C1259 H1247 0.929 . S
C1259 C1253 1.390 . S
C1259 C1256 1.386 . S
C1260 C1255 1.490 . S
C1260 C1262 1.395 . S
C1260 C1263 1.403 . S
H1261 C1267 0.930 . S
C1262 H1248 0.930 . S
C1262 C1260 1.395 . S
C1262 C1265 1.403 . S
C1263 C1260 1.403 . S
C1263 C1264 1.524 . S
C1263 C1267 1.400 . S
C1264 H1249 0.960 . S
C1264 H1250 0.960 . S
C1264 H1251 0.960 . S
C1264 C1263 1.524 . S
C1265 C1262 1.403 . S
C1265 C1266 1.392 . S
C1265 C1269 1.495 . S
C1266 C1265 1.392 . S
C1266 C1267 1.385 . S
C1266 C1268 1.478 . S
C1267 H1261 0.930 . S
C1267 C1263 1.400 . S
C1267 C1266 1.385 . S
C1268 C1266 1.478 . S
C1268 C1270 1.381 . S
C1268 C1274 1.383 . S
C1269 C1265 1.495 . S
C1269 H1275 0.959 . S
C1269 H1276 0.961 . S
C1269 H1277 0.960 . S
C1270 C1268 1.381 . S
C1270 C1271 1.394 . S
C1270 H1278 0.930 . S
C1271 C1270 1.394 . S
C1271 C1272 1.383 . S
C1271 H1279 0.929 . S
C1272 C1271 1.383 . S
C1272 C1273 1.377 . S
C1273 H1257 0.930 . S
C1273 C1272 1.377 . S
C1273 C1274 1.379 . S
C1274 H1258 0.931 . S
C1274 C1268 1.383 . S
C1274 C1273 1.379 . S
H1275 C1269 0.959 . S
H1276 C1269 0.961 . S
H1277 C1269 0.960 . S
H1278 C1270 0.930 . S
H1279 C1271 0.929 . S
H1280 C1288 0.929 . S
H1281 C1290 0.930 . S
H1282 C1292 0.930 . S
H1283 C1295 0.929 . S
H1284 C1298 0.930 . S
H1285 C1300 0.960 . S
H1286 C1300 0.960 . S
H1287 C1300 0.960 . S
C1288 H1280 0.929 . S
C1288 C1289 1.377 . S
C1288 C1290 1.384 . S
C1289 C1288 1.377 . S
C1289 C1295 1.390 . S
C1290 H1281 0.930 . S
C1290 C1288 1.384 . S
C1290 C1291 1.372 . S
C1291 C1290 1.372 . S
C1291 C1292 1.400 . S
C1291 C1296 1.490 . S
C1292 H1282 0.930 . S
C1292 C1291 1.400 . S
C1292 C1295 1.386 . S
H1293 C1309 0.930 . S
H1294 C1310 0.931 . S
C1295 H1283 0.929 . S
C1295 C1289 1.390 . S
C1295 C1292 1.386 . S
C1296 C1291 1.490 . S
C1296 C1298 1.395 . S
C1296 C1299 1.403 . S
H1297 C1303 0.930 . S
C1298 H1284 0.930 . S
C1298 C1296 1.395 . S
C1298 C1301 1.403 . S
C1299 C1296 1.403 . S
C1299 C1300 1.524 . S
C1299 C1303 1.400 . S
C1300 H1285 0.960 . S
C1300 H1286 0.960 . S
C1300 H1287 0.960 . S
C1300 C1299 1.524 . S
C1301 C1298 1.403 . S
C1301 C1302 1.392 . S
C1301 C1305 1.495 . S
C1302 C1301 1.392 . S
C1302 C1303 1.385 . S
C1302 C1304 1.478 . S
C1303 H1297 0.930 . S
C1303 C1299 1.400 . S
C1303 C1302 1.385 . S
C1304 C1302 1.478 . S
C1304 C1306 1.381 . S
C1304 C1310 1.383 . S
C1305 C1301 1.495 . S
C1305 H1311 0.959 . S
C1305 H1312 0.961 . S
C1305 H1313 0.960 . S
C1306 C1304 1.381 . S
C1306 C1307 1.394 . S
C1306 H1314 0.930 . S
C1307 C1306 1.394 . S
C1307 C1308 1.383 . S
C1307 H1315 0.929 . S
C1308 C1307 1.383 . S
C1308 C1309 1.377 . S
C1309 H1293 0.930 . S
C1309 C1308 1.377 . S
C1309 C1310 1.379 . S
C1310 H1294 0.931 . S
C1310 C1304 1.383 . S
C1310 C1309 1.379 . S
H1311 C1305 0.959 . S
H1312 C1305 0.961 . S
H1313 C1305 0.960 . S
H1314 C1306 0.930 . S
H1315 C1307 0.929 . S
H1316 C1324 0.929 . S
H1317 C1326 0.930 . S
H1318 C1328 0.930 . S
H1319 C1331 0.929 . S
H1320 C1334 0.930 . S
H1321 C1336 0.960 . S
H1322 C1336 0.960 . S
H1323 C1336 0.960 . S
C1324 H1316 0.929 . S
C1324 C1325 1.377 . S
C1324 C1326 1.384 . S
C1325 C1324 1.377 . S
C1325 C1331 1.390 . S
C1326 H1317 0.930 . S
C1326 C1324 1.384 . S
C1326 C1327 1.372 . S
C1327 C1326 1.372 . S
C1327 C1328 1.400 . S
C1327 C1332 1.490 . S
C1328 H1318 0.930 . S
C1328 C1327 1.400 . S
C1328 C1331 1.386 . S
H1329 C1345 0.930 . S
H1330 C1346 0.931 . S
C1331 H1319 0.929 . S
C1331 C1325 1.390 . S
C1331 C1328 1.386 . S
C1332 C1327 1.490 . S
C1332 C1334 1.395 . S
C1332 C1335 1.403 . S
H1333 C1339 0.930 . S
C1334 H1320 0.930 . S
C1334 C1332 1.395 . S
C1334 C1337 1.403 . S
C1335 C1332 1.403 . S
C1335 C1336 1.524 . S
C1335 C1339 1.400 . S
C1336 H1321 0.960 . S
C1336 H1322 0.960 . S
C1336 H1323 0.960 . S
C1336 C1335 1.524 . S
C1337 C1334 1.403 . S
C1337 C1338 1.392 . S
C1337 C1341 1.495 . S
C1338 C1337 1.392 . S
C1338 C1339 1.385 . S
C1338 C1340 1.478 . S
C1339 H1333 0.930 . S
C1339 C1335 1.400 . S
C1339 C1338 1.385 . S
C1340 C1338 1.478 . S
C1340 C1342 1.381 . S
C1340 C1346 1.383 . S
C1341 C1337 1.495 . S
C1341 H1347 0.959 . S
C1341 H1348 0.961 . S
C1341 H1349 0.960 . S
C1342 C1340 1.381 . S
C1342 C1343 1.394 . S
C1342 H1350 0.930 . S
C1343 C1342 1.394 . S
C1343 C1344 1.383 . S
C1343 H1351 0.929 . S
C1344 C1343 1.383 . S
C1344 C1345 1.377 . S
C1345 H1329 0.930 . S
C1345 C1344 1.377 . S
C1345 C1346 1.379 . S
C1346 H1330 0.931 . S
C1346 C1340 1.383 . S
C1346 C1345 1.379 . S
H1347 C1341 0.959 . S
H1348 C1341 0.961 . S
H1349 C1341 0.960 . S
H1350 C1342 0.930 . S
H1351 C1343 0.929 . S
H1352 C1360 0.929 . S
H1353 C1362 0.930 . S
H1354 C1364 0.930 . S
H1355 C1367 0.929 . S
H1356 C1370 0.930 . S
H1357 C1372 0.960 . S
H1358 C1372 0.960 . S
H1359 C1372 0.960 . S
C1360 H1352 0.929 . S
C1360 C1361 1.377 . S
C1360 C1362 1.384 . S
C1361 C1360 1.377 . S
C1361 C1367 1.390 . S
C1362 H1353 0.930 . S
C1362 C1360 1.384 . S
C1362 C1363 1.372 . S
C1363 C1362 1.372 . S
C1363 C1364 1.400 . S
C1363 C1368 1.490 . S
C1364 H1354 0.930 . S
C1364 C1363 1.400 . S
C1364 C1367 1.386 . S
H1365 C1381 0.930 . S
H1366 C1382 0.931 . S
C1367 H1355 0.929 . S
C1367 C1361 1.390 . S
C1367 C1364 1.386 . S
C1368 C1363 1.490 . S
C1368 C1370 1.395 . S
C1368 C1371 1.403 . S
H1369 C1375 0.930 . S
C1370 H1356 0.930 . S
C1370 C1368 1.395 . S
C1370 C1373 1.403 . S
C1371 C1368 1.403 . S
C1371 C1372 1.524 . S
C1371 C1375 1.400 . S
C1372 H1357 0.960 . S
C1372 H1358 0.960 . S
C1372 H1359 0.960 . S
C1372 C1371 1.524 . S
C1373 C1370 1.403 . S
C1373 C1374 1.392 . S
C1373 C1377 1.495 . S
C1374 C1373 1.392 . S
C1374 C1375 1.385 . S
C1374 C1376 1.478 . S
C1375 H1369 0.930 . S
C1375 C1371 1.400 . S
C1375 C1374 1.385 . S
C1376 C1374 1.478 . S
C1376 C1378 1.381 . S
C1376 C1382 1.383 . S
C1377 C1373 1.495 . S
C1377 H1383 0.959 . S
C1377 H1384 0.961 . S
C1377 H1385 0.960 . S
C1378 C1376 1.381 . S
C1378 C1379 1.394 . S
C1378 H1386 0.930 . S
C1379 C1378 1.394 . S
C1379 C1380 1.383 . S
C1379 H1387 0.929 . S
C1380 C1379 1.383 . S
C1380 C1381 1.377 . S
C1381 H1365 0.930 . S
C1381 C1380 1.377 . S
C1381 C1382 1.379 . S
C1382 H1366 0.931 . S
C1382 C1376 1.383 . S
C1382 C1381 1.379 . S
H1383 C1377 0.959 . S
H1384 C1377 0.961 . S
H1385 C1377 0.960 . S
H1386 C1378 0.930 . S
H1387 C1379 0.929 . S
H1388 C1396 0.929 . S
H1389 C1398 0.930 . S
H1390 C1400 0.930 . S
H1391 C1403 0.929 1_455 S
H1392 C1406 0.930 . S
H1393 C1408 0.960 . S
H1394 C1408 0.960 . S
H1395 C1408 0.960 . S
C1396 H1388 0.929 . S
C1396 C1397 1.375 1_655 S
C1396 C1398 1.384 . S
C1397 C1396 1.375 1_455 S
C1397 C1403 1.390 1_455 S
C1398 H1389 0.930 . S
C1398 C1396 1.384 . S
C1398 C1399 1.372 . S
C1399 C1398 1.372 . S
C1399 C1400 1.400 . S
C1399 C1404 1.490 . S
C1400 H1390 0.930 . S
C1400 C1399 1.400 . S
C1400 C1403 1.386 . S
H1401 C1417 0.930 . S
H1402 C1418 0.931 . S
C1403 H1391 0.929 1_655 S
C1403 C1397 1.390 1_655 S
C1403 C1400 1.386 . S
C1404 C1399 1.490 . S
C1404 C1406 1.395 . S
C1404 C1407 1.403 . S
H1405 C1411 0.930 . S
C1406 H1392 0.930 . S
C1406 C1404 1.395 . S
C1406 C1409 1.403 . S
C1407 C1404 1.403 . S
C1407 C1408 1.524 . S
C1407 C1411 1.400 . S
C1408 H1393 0.960 . S
C1408 H1394 0.960 . S
C1408 H1395 0.960 . S
C1408 C1407 1.524 . S
C1409 C1406 1.403 . S
C1409 C1410 1.392 . S
C1409 C1413 1.495 . S
C1410 C1409 1.392 . S
C1410 C1411 1.385 . S
C1410 C1412 1.478 . S
C1411 H1405 0.930 . S
C1411 C1407 1.400 . S
C1411 C1410 1.385 . S
C1412 C1410 1.478 . S
C1412 C1414 1.381 . S
C1412 C1418 1.383 . S
C1413 C1409 1.495 . S
C1413 H1419 0.959 . S
C1413 H1420 0.961 . S
C1413 H1421 0.960 . S
C1414 C1412 1.381 . S
C1414 C1415 1.394 . S
C1414 H1422 0.930 . S
C1415 C1414 1.394 . S
C1415 C1416 1.383 . S
C1415 H1423 0.929 . S
C1416 C1415 1.383 . S
C1416 C1417 1.377 . S
C1417 H1401 0.930 . S
C1417 C1416 1.377 . S
C1417 C1418 1.379 . S
C1418 H1402 0.931 . S
C1418 C1412 1.383 . S
C1418 C1417 1.379 . S
H1419 C1413 0.959 . S
H1420 C1413 0.961 . S
H1421 C1413 0.960 . S
H1422 C1414 0.930 . S
H1423 C1415 0.929 . S
H1424 C1432 0.929 . S
H1425 C1434 0.930 . S
H1426 C1436 0.930 . S
H1427 C1439 0.929 . S
H1428 C1442 0.930 . S
H1429 C1444 0.960 . S
H1430 C1444 0.960 . S
H1431 C1444 0.960 . S
C1432 H1424 0.929 . S
C1432 C1433 1.377 . S
C1432 C1434 1.384 . S
C1433 C1432 1.377 . S
C1433 C1439 1.390 . S
C1434 H1425 0.930 . S
C1434 C1432 1.384 . S
C1434 C1435 1.372 . S
C1435 C1434 1.372 . S
C1435 C1436 1.400 . S
C1435 C1440 1.490 . S
C1436 H1426 0.930 . S
C1436 C1435 1.400 . S
C1436 C1439 1.386 . S
H1437 C1453 0.930 . S
H1438 C1454 0.931 . S
C1439 H1427 0.929 . S
C1439 C1433 1.390 . S
C1439 C1436 1.386 . S
C1440 C1435 1.490 . S
C1440 C1442 1.395 . S
C1440 C1443 1.403 . S
H1441 C1447 0.930 . S
C1442 H1428 0.930 . S
C1442 C1440 1.395 . S
C1442 C1445 1.403 . S
C1443 C1440 1.403 . S
C1443 C1444 1.524 . S
C1443 C1447 1.400 . S
C1444 H1429 0.960 . S
C1444 H1430 0.960 . S
C1444 H1431 0.960 . S
C1444 C1443 1.524 . S
C1445 C1442 1.403 . S
C1445 C1446 1.392 . S
C1445 C1449 1.495 . S
C1446 C1445 1.392 . S
C1446 C1447 1.385 . S
C1446 C1448 1.478 . S
C1447 H1441 0.930 . S
C1447 C1443 1.400 . S
C1447 C1446 1.385 . S
C1448 C1446 1.478 . S
C1448 C1450 1.381 . S
C1448 C1454 1.383 . S
C1449 C1445 1.495 . S
C1449 H1455 0.959 . S
C1449 H1456 0.961 . S
C1449 H1457 0.960 . S
C1450 C1448 1.381 . S
C1450 C1451 1.394 . S
C1450 H1458 0.930 . S
C1451 C1450 1.394 . S
C1451 C1452 1.383 . S
C1451 H1459 0.929 . S
C1452 C1451 1.383 . S
C1452 C1453 1.377 . S
C1453 H1437 0.930 . S
C1453 C1452 1.377 . S
C1453 C1454 1.379 . S
C1454 H1438 0.931 . S
C1454 C1448 1.383 . S
C1454 C1453 1.379 . S
H1455 C1449 0.959 . S
H1456 C1449 0.961 . S
H1457 C1449 0.960 . S
H1458 C1450 0.930 . S
H1459 C1451 0.929 . S
H1460 C1468 0.971 . S
H1461 C1470 0.930 . S
H1462 C1472 0.930 . S
H1463 C1475 0.929 . S
H1464 C1478 0.930 . S
H1465 C1480 0.960 . S
H1466 C1480 0.960 . S
H1467 C1480 0.960 . S
C1468 H1460 0.971 . S
C1468 C1469 1.377 . S
C1468 C1470 1.345 1_455 S
C1469 C1468 1.377 . S
C1469 C1475 1.374 1_455 S
C1470 H1461 0.930 . S
C1470 C1468 1.345 1_655 S
C1470 C1471 1.372 . S
C1471 C1470 1.372 . S
C1471 C1472 1.400 . S
C1471 C1476 1.490 . S
C1472 H1462 0.930 . S
C1472 C1471 1.400 . S
C1472 C1475 1.386 . S
H1473 C1489 0.930 . S
H1474 C1490 0.931 . S
C1475 H1463 0.929 . S
C1475 C1469 1.374 1_655 S
C1475 C1472 1.386 . S
C1476 C1471 1.490 . S
C1476 C1478 1.395 . S
C1476 C1479 1.403 . S
H1477 C1483 0.930 . S
C1478 H1464 0.930 . S
C1478 C1476 1.395 . S
C1478 C1481 1.403 . S
C1479 C1476 1.403 . S
C1479 C1480 1.524 . S
C1479 C1483 1.400 . S
C1480 H1465 0.960 . S
C1480 H1466 0.960 . S
C1480 H1467 0.960 . S
C1480 C1479 1.524 . S
C1481 C1478 1.403 . S
C1481 C1482 1.392 . S
C1481 C1485 1.495 . S
C1482 C1481 1.392 . S
C1482 C1483 1.385 . S
C1482 C1484 1.478 . S
C1483 H1477 0.930 . S
C1483 C1479 1.400 . S
C1483 C1482 1.385 . S
C1484 C1482 1.478 . S
C1484 C1486 1.381 . S
C1484 C1490 1.383 . S
C1485 C1481 1.495 . S
C1485 H1491 0.959 . S
C1485 H1492 0.961 . S
C1485 H1493 0.960 . S
C1486 C1484 1.381 . S
C1486 C1487 1.394 . S
C1486 H1494 0.930 . S
C1487 C1486 1.394 . S
C1487 C1488 1.383 . S
C1487 H1495 0.929 . S
C1488 C1487 1.383 . S
C1488 C1489 1.377 . S
C1489 H1473 0.930 . S
C1489 C1488 1.377 . S
C1489 C1490 1.379 . S
C1490 H1474 0.931 . S
C1490 C1484 1.383 . S
C1490 C1489 1.379 . S
H1491 C1485 0.959 . S
H1492 C1485 0.961 . S
H1493 C1485 0.960 . S
H1494 C1486 0.930 . S
H1495 C1487 0.929 . S
H1496 C1504 0.929 . S
H1497 C1506 0.930 . S
H1498 C1508 0.930 . S
H1499 C1511 0.929 . S
H1500 C1514 0.930 . S
H1501 C1516 0.960 . S
H1502 C1516 0.960 . S
H1503 C1516 0.960 . S
C1504 H1496 0.929 . S
C1504 C1505 1.377 . S
C1504 C1506 1.384 . S
C1505 C1504 1.377 . S
C1505 C1511 1.390 . S
C1506 H1497 0.930 . S
C1506 C1504 1.384 . S
C1506 C1507 1.372 . S
C1507 C1506 1.372 . S
C1507 C1508 1.400 . S
C1507 C1512 1.490 . S
C1508 H1498 0.930 . S
C1508 C1507 1.400 . S
C1508 C1511 1.386 . S
H1509 C1525 0.930 . S
H1510 C1526 0.931 . S
C1511 H1499 0.929 . S
C1511 C1505 1.390 . S
C1511 C1508 1.386 . S
C1512 C1507 1.490 . S
C1512 C1514 1.395 . S
C1512 C1515 1.403 . S
H1513 C1519 0.930 . S
C1514 H1500 0.930 . S
C1514 C1512 1.395 . S
C1514 C1517 1.403 . S
C1515 C1512 1.403 . S
C1515 C1516 1.524 . S
C1515 C1519 1.400 . S
C1516 H1501 0.960 . S
C1516 H1502 0.960 . S
C1516 H1503 0.960 . S
C1516 C1515 1.524 . S
C1517 C1514 1.403 . S
C1517 C1518 1.392 . S
C1517 C1521 1.495 . S
C1518 C1517 1.392 . S
C1518 C1519 1.385 . S
C1518 C1520 1.478 . S
C1519 H1513 0.930 . S
C1519 C1515 1.400 . S
C1519 C1518 1.385 . S
C1520 C1518 1.478 . S
C1520 C1522 1.381 . S
C1520 C1526 1.383 . S
C1521 C1517 1.495 . S
C1521 H1527 0.959 . S
C1521 H1528 0.961 . S
C1521 H1529 0.960 . S
C1522 C1520 1.381 . S
C1522 C1523 1.394 . S
C1522 H1530 0.930 . S
C1523 C1522 1.394 . S
C1523 C1524 1.383 . S
C1523 H1531 0.929 . S
C1524 C1523 1.383 . S
C1524 C1525 1.377 . S
C1525 H1509 0.930 . S
C1525 C1524 1.377 . S
C1525 C1526 1.379 . S
C1526 H1510 0.931 . S
C1526 C1520 1.383 . S
C1526 C1525 1.379 . S
H1527 C1521 0.959 . S
H1528 C1521 0.961 . S
H1529 C1521 0.960 . S
H1530 C1522 0.930 . S
H1531 C1523 0.929 . S
H1532 C1540 0.929 . S
H1533 C1542 0.930 . S
H1534 C1544 0.930 . S
H1535 C1547 0.929 . S
H1536 C1550 0.930 . S
H1537 C1552 0.960 . S
H1538 C1552 0.960 . S
H1539 C1552 0.960 . S
C1540 H1532 0.929 . S
C1540 C1541 1.377 . S
C1540 C1542 1.384 . S
C1541 C1540 1.377 . S
C1541 C1547 1.390 . S
C1542 H1533 0.930 . S
C1542 C1540 1.384 . S
C1542 C1543 1.372 . S
C1543 C1542 1.372 . S
C1543 C1544 1.400 . S
C1543 C1548 1.490 . S
C1544 H1534 0.930 . S
C1544 C1543 1.400 . S
C1544 C1547 1.386 . S
H1545 C1561 0.930 . S
H1546 C1562 0.931 . S
C1547 H1535 0.929 . S
C1547 C1541 1.390 . S
C1547 C1544 1.386 . S
C1548 C1543 1.490 . S
C1548 C1550 1.395 . S
C1548 C1551 1.403 . S
H1549 C1555 0.930 . S
C1550 H1536 0.930 . S
C1550 C1548 1.395 . S
C1550 C1553 1.403 . S
C1551 C1548 1.403 . S
C1551 C1552 1.524 . S
C1551 C1555 1.400 . S
C1552 H1537 0.960 . S
C1552 H1538 0.960 . S
C1552 H1539 0.960 . S
C1552 C1551 1.524 . S
C1553 C1550 1.403 . S
C1553 C1554 1.392 . S
C1553 C1557 1.495 . S
C1554 C1553 1.392 . S
C1554 C1555 1.385 . S
C1554 C1556 1.478 . S
C1555 H1549 0.930 . S
C1555 C1551 1.400 . S
C1555 C1554 1.385 . S
C1556 C1554 1.478 . S
C1556 C1558 1.381 . S
C1556 C1562 1.383 . S
C1557 C1553 1.495 . S
C1557 H1563 0.959 . S
C1557 H1564 0.961 . S
C1557 H1565 0.960 . S
C1558 C1556 1.381 . S
C1558 C1559 1.394 . S
C1558 H1566 0.930 . S
C1559 C1558 1.394 . S
C1559 C1560 1.383 . S
C1559 H1567 0.929 . S
C1560 C1559 1.383 . S
C1560 C1561 1.377 . S
C1561 H1545 0.930 . S
C1561 C1560 1.377 . S
C1561 C1562 1.379 . S
C1562 H1546 0.931 . S
C1562 C1556 1.383 . S
C1562 C1561 1.379 . S
H1563 C1557 0.959 . S
H1564 C1557 0.961 . S
H1565 C1557 0.960 . S
H1566 C1558 0.930 . S
H1567 C1559 0.929 . S
H1568 C1576 0.929 . S
H1569 C1578 0.930 . S
H1570 C1580 0.930 . S
H1571 C1583 0.929 . S
H1572 C1586 0.930 . S
H1573 C1588 0.960 . S
H1574 C1588 0.960 . S
H1575 C1588 0.960 . S
C1576 H1568 0.929 . S
C1576 C1577 1.377 . S
C1576 C1578 1.384 . S
C1577 C1576 1.377 . S
C1577 C1583 1.390 . S
C1578 H1569 0.930 . S
C1578 C1576 1.384 . S
C1578 C1579 1.372 . S
C1579 C1578 1.372 . S
C1579 C1580 1.400 . S
C1579 C1584 1.490 . S
C1580 H1570 0.930 . S
C1580 C1579 1.400 . S
C1580 C1583 1.386 . S
H1581 C1597 0.930 . S
H1582 C1598 0.931 . S
C1583 H1571 0.929 . S
C1583 C1577 1.390 . S
C1583 C1580 1.386 . S
C1584 C1579 1.490 . S
C1584 C1586 1.395 . S
C1584 C1587 1.403 . S
H1585 C1591 0.930 . S
C1586 H1572 0.930 . S
C1586 C1584 1.395 . S
C1586 C1589 1.403 . S
C1587 C1584 1.403 . S
C1587 C1588 1.524 . S
C1587 C1591 1.400 . S
C1588 H1573 0.960 . S
C1588 H1574 0.960 . S
C1588 H1575 0.960 . S
C1588 C1587 1.524 . S
C1589 C1586 1.403 . S
C1589 C1590 1.392 . S
C1589 C1593 1.495 . S
C1590 C1589 1.392 . S
C1590 C1591 1.385 . S
C1590 C1592 1.478 . S
C1591 H1585 0.930 . S
C1591 C1587 1.400 . S
C1591 C1590 1.385 . S
C1592 C1590 1.478 . S
C1592 C1594 1.381 . S
C1592 C1598 1.383 . S
C1593 C1589 1.495 . S
C1593 H1599 0.959 . S
C1593 H1600 0.961 . S
C1593 H1601 0.960 . S
C1594 C1592 1.381 . S
C1594 C1595 1.394 . S
C1594 H1602 0.930 . S
C1595 C1594 1.394 . S
C1595 C1596 1.383 . S
C1595 H1603 0.929 . S
C1596 C1595 1.383 . S
C1596 C1597 1.377 . S
C1597 H1581 0.930 . S
C1597 C1596 1.377 . S
C1597 C1598 1.379 . S
C1598 H1582 0.931 . S
C1598 C1592 1.383 . S
C1598 C1597 1.379 . S
H1599 C1593 0.959 . S
H1600 C1593 0.961 . S
H1601 C1593 0.960 . S
H1602 C1594 0.930 . S
H1603 C1595 0.929 . S
H1604 C1612 0.929 . S
H1605 C1614 0.930 1_655 S
H1606 C1616 0.905 1_545 S
H1607 C1619 0.929 1_545 S
H1608 C1622 0.930 . S
H1609 C1624 0.960 . S
H1610 C1624 0.960 . S
H1611 C1624 0.960 . S
C1612 H1604 0.929 . S
C1612 C1613 1.377 . S
C1612 C1614 1.384 . S
C1613 C1612 1.377 . S
C1613 C1619 1.390 . S
C1614 H1605 0.930 1_455 S
C1614 C1612 1.384 . S
C1614 C1615 1.372 . S
C1615 C1614 1.372 . S
C1615 C1616 1.418 . S
C1615 C1620 1.490 . S
C1616 H1606 0.905 1_565 S
C1616 C1615 1.418 . S
C1616 C1619 1.394 . S
H1617 C1633 0.930 . S
H1618 C1634 0.931 1_455 S
C1619 H1607 0.929 1_565 S
C1619 C1613 1.390 . S
C1619 C1616 1.394 . S
C1620 C1615 1.490 . S
C1620 C1622 1.395 1_465 S
C1620 C1623 1.403 . S
H1621 C1627 0.930 . S
C1622 H1608 0.930 . S
C1622 C1620 1.395 1_645 S
C1622 C1625 1.403 . S
C1623 C1620 1.403 . S
C1623 C1624 1.524 . S
C1623 C1627 1.400 . S
C1624 H1609 0.960 . S
C1624 H1610 0.960 . S
C1624 H1611 0.960 . S
C1624 C1623 1.524 . S
C1625 C1622 1.403 . S
C1625 C1626 1.392 . S
C1625 C1629 1.495 . S
C1626 C1625 1.392 . S
C1626 C1627 1.385 1_645 S
C1626 C1628 1.478 . S
C1627 H1621 0.930 . S
C1627 C1623 1.400 . S
C1627 C1626 1.385 1_465 S
C1628 C1626 1.478 . S
C1628 C1630 1.385 . S
C1628 C1634 1.383 . S
C1629 C1625 1.495 . S
C1629 H1635 0.959 . S
C1629 H1636 0.961 . S
C1629 H1637 0.960 . S
C1630 C1628 1.385 . S
C1630 C1631 1.395 . S
C1630 H1638 0.925 1_545 S
C1631 C1630 1.395 . S
C1631 C1632 1.383 . S
C1631 H1639 0.929 1_545 S
C1632 C1631 1.383 . S
C1632 C1633 1.377 . S
C1633 H1617 0.930 . S
C1633 C1632 1.377 . S
C1633 C1634 1.379 . S
C1634 H1618 0.931 1_655 S
C1634 C1628 1.383 . S
C1634 C1633 1.379 . S
H1635 C1629 0.959 . S
H1636 C1629 0.961 . S
H1637 C1629 0.960 . S
H1638 C1630 0.925 1_565 S
H1639 C1631 0.929 1_565 S
H1640 C1648 0.929 . S
H1641 C1650 0.930 . S
H1642 C1652 0.930 . S
H1643 C1655 0.929 . S
H1644 C1658 0.930 . S
H1645 C1660 0.960 . S
H1646 C1660 0.960 . S
H1647 C1660 0.960 . S
C1648 H1640 0.929 . S
C1648 C1649 1.377 . S
C1648 C1650 1.384 . S
C1649 C1648 1.377 . S
C1649 C1655 1.390 . S
C1650 H1641 0.930 . S
C1650 C1648 1.384 . S
C1650 C1651 1.372 . S
C1651 C1650 1.372 . S
C1651 C1652 1.400 . S
C1651 C1656 1.490 . S
C1652 H1642 0.930 . S
C1652 C1651 1.400 . S
C1652 C1655 1.386 . S
H1653 C1669 0.930 . S
H1654 C1670 0.931 . S
C1655 H1643 0.929 . S
C1655 C1649 1.390 . S
C1655 C1652 1.386 . S
C1656 C1651 1.490 . S
C1656 C1658 1.395 . S
C1656 C1659 1.403 . S
H1657 C1663 0.930 . S
C1658 H1644 0.930 . S
C1658 C1656 1.395 . S
C1658 C1661 1.403 . S
C1659 C1656 1.403 . S
C1659 C1660 1.524 . S
C1659 C1663 1.400 . S
C1660 H1645 0.960 . S
C1660 H1646 0.960 . S
C1660 H1647 0.960 . S
C1660 C1659 1.524 . S
C1661 C1658 1.403 . S
C1661 C1662 1.392 . S
C1661 C1665 1.495 . S
C1662 C1661 1.392 . S
C1662 C1663 1.385 . S
C1662 C1664 1.478 . S
C1663 H1657 0.930 . S
C1663 C1659 1.400 . S
C1663 C1662 1.385 . S
C1664 C1662 1.478 . S
C1664 C1666 1.381 . S
C1664 C1670 1.383 . S
C1665 C1661 1.495 . S
C1665 H1671 0.959 . S
C1665 H1672 0.961 . S
C1665 H1673 0.960 . S
C1666 C1664 1.381 . S
C1666 C1667 1.394 . S
C1666 H1674 0.930 . S
C1667 C1666 1.394 . S
C1667 C1668 1.383 . S
C1667 H1675 0.929 . S
C1668 C1667 1.383 . S
C1668 C1669 1.377 . S
C1669 H1653 0.930 . S
C1669 C1668 1.377 . S
C1669 C1670 1.379 . S
C1670 H1654 0.931 . S
C1670 C1664 1.383 . S
C1670 C1669 1.379 . S
H1671 C1665 0.959 . S
H1672 C1665 0.961 . S
H1673 C1665 0.960 . S
H1674 C1666 0.930 . S
H1675 C1667 0.929 . S
H1676 C1684 0.908 1_565 S
H1677 C1686 0.930 . S
H1678 C1688 0.930 . S
H1679 C1691 0.929 . S
H1680 C1694 0.930 . S
H1681 C1696 0.960 . S
H1682 C1696 0.960 . S
H1683 C1696 0.960 . S
C1684 H1676 0.908 1_545 S
C1684 C1685 1.408 . S
C1684 C1686 1.376 1_545 S
C1685 C1684 1.408 . S
C1685 C1691 1.390 . S
C1686 H1677 0.930 . S
C1686 C1684 1.376 1_565 S
C1686 C1687 1.372 1_565 S
C1687 C1686 1.372 1_545 S
C1687 C1688 1.400 . S
C1687 C1692 1.490 . S
C1688 H1678 0.930 . S
C1688 C1687 1.400 . S
C1688 C1691 1.386 . S
H1689 C1705 0.930 1_545 S
H1690 C1706 0.931 1_545 S
C1691 H1679 0.929 . S
C1691 C1685 1.390 . S
C1691 C1688 1.386 . S
C1692 C1687 1.490 . S
C1692 C1694 1.395 1_545 S
C1692 C1695 1.403 . S
H1693 C1699 0.930 . S
C1694 H1680 0.930 . S
C1694 C1692 1.395 1_565 S
C1694 C1697 1.403 1_554 S
C1695 C1692 1.403 . S
C1695 C1696 1.524 . S
C1695 C1699 1.400 1_554 S
C1696 H1681 0.960 . S
C1696 H1682 0.960 . S
C1696 H1683 0.960 . S
C1696 C1695 1.524 . S
C1697 C1694 1.403 1_556 S
C1697 C1698 1.392 . S
C1697 C1701 1.495 . S
C1698 C1697 1.392 . S
C1698 C1699 1.385 1_565 S
C1698 C1700 1.478 . S
C1699 H1693 0.930 . S
C1699 C1695 1.400 1_556 S
C1699 C1698 1.385 1_545 S
C1700 C1698 1.478 . S
C1700 C1702 1.381 . S
C1700 C1706 1.383 . S
C1701 C1697 1.495 . S
C1701 H1707 0.959 . S
C1701 H1708 0.961 . S
C1701 H1709 0.960 . S
C1702 C1700 1.381 . S
C1702 C1703 1.394 . S
C1702 H1710 0.930 . S
C1703 C1702 1.394 . S
C1703 C1704 1.383 . S
C1703 H1711 0.929 . S
C1704 C1703 1.383 . S
C1704 C1705 1.377 . S
C1705 H1689 0.930 1_565 S
C1705 C1704 1.377 . S
C1705 C1706 1.379 . S
C1706 H1690 0.931 1_565 S
C1706 C1700 1.383 . S
C1706 C1705 1.379 . S
H1707 C1701 0.959 . S
H1708 C1701 0.961 . S
H1709 C1701 0.960 . S
H1710 C1702 0.930 . S
H1711 C1703 0.929 . S
H1712 C1720 0.929 . S
H1713 C1722 0.930 . S
H1714 C1724 0.930 . S
H1715 C1727 0.929 . S
H1716 C1730 0.930 . S
H1717 C1732 0.960 . S
H1718 C1732 0.960 . S
H1719 C1732 0.960 . S
C1720 H1712 0.929 . S
C1720 C1721 1.377 . S
C1720 C1722 1.384 . S
C1721 C1720 1.377 . S
C1721 C1727 1.390 . S
C1722 H1713 0.930 . S
C1722 C1720 1.384 . S
C1722 C1723 1.372 . S
C1723 C1722 1.372 . S
C1723 C1724 1.400 . S
C1723 C1728 1.490 . S
C1724 H1714 0.930 . S
C1724 C1723 1.400 . S
C1724 C1727 1.386 . S
H1725 C1741 0.930 . S
H1726 C1742 0.931 . S
C1727 H1715 0.929 . S
C1727 C1721 1.390 . S
C1727 C1724 1.386 . S
C1728 C1723 1.490 . S
C1728 C1730 1.395 . S
C1728 C1731 1.403 . S
H1729 C1735 0.930 . S
C1730 H1716 0.930 . S
C1730 C1728 1.395 . S
C1730 C1733 1.403 . S
C1731 C1728 1.403 . S
C1731 C1732 1.524 . S
C1731 C1735 1.400 . S
C1732 H1717 0.960 . S
C1732 H1718 0.960 . S
C1732 H1719 0.960 . S
C1732 C1731 1.524 . S
C1733 C1730 1.403 . S
C1733 C1734 1.392 . S
C1733 C1737 1.495 . S
C1734 C1733 1.392 . S
C1734 C1735 1.385 . S
C1734 C1736 1.478 . S
C1735 H1729 0.930 . S
C1735 C1731 1.400 . S
C1735 C1734 1.385 . S
C1736 C1734 1.478 . S
C1736 C1738 1.381 . S
C1736 C1742 1.383 . S
C1737 C1733 1.495 . S
C1737 H1743 0.959 . S
C1737 H1744 0.961 . S
C1737 H1745 0.960 . S
C1738 C1736 1.381 . S
C1738 C1739 1.394 . S
C1738 H1746 0.930 . S
C1739 C1738 1.394 . S
C1739 C1740 1.383 . S
C1739 H1747 0.929 . S
C1740 C1739 1.383 . S
C1740 C1741 1.377 . S
C1741 H1725 0.930 . S
C1741 C1740 1.377 . S
C1741 C1742 1.379 . S
C1742 H1726 0.931 . S
C1742 C1736 1.383 . S
C1742 C1741 1.379 . S
H1743 C1737 0.959 . S
H1744 C1737 0.961 . S
H1745 C1737 0.960 . S
H1746 C1738 0.930 . S
H1747 C1739 0.929 . S
H1748 C1756 0.936 . S
H1749 C1758 0.930 . S
H1750 C1760 0.930 . S
H1751 C1763 0.929 . S
H1752 C1766 0.930 . S
H1753 C1768 0.960 . S
H1754 C1768 0.960 . S
H1755 C1768 0.960 1_565 S
C1756 H1748 0.936 . S
C1756 C1757 1.368 1_545 S
C1756 C1758 1.386 . S
C1757 C1756 1.368 1_565 S
C1757 C1763 1.390 . S
C1758 H1749 0.930 . S
C1758 C1756 1.386 . S
C1758 C1759 1.372 1_545 S
C1759 C1758 1.372 1_565 S
C1759 C1760 1.400 . S
C1759 C1764 1.490 . S
C1760 H1750 0.930 . S
C1760 C1759 1.400 . S
C1760 C1763 1.386 . S
H1761 C1777 0.930 . S
H1762 C1778 0.931 . S
C1763 H1751 0.929 . S
C1763 C1757 1.390 . S
C1763 C1760 1.386 . S
C1764 C1759 1.490 . S
C1764 C1766 1.395 . S
C1764 C1767 1.403 1_565 S
H1765 C1771 0.930 . S
C1766 H1752 0.930 . S
C1766 C1764 1.395 . S
C1766 C1769 1.403 . S
C1767 C1764 1.403 1_545 S
C1767 C1768 1.524 . S
C1767 C1771 1.400 . S
C1768 H1753 0.960 . S
C1768 H1754 0.960 . S
C1768 H1755 0.960 1_545 S
C1768 C1767 1.524 . S
C1769 C1766 1.403 . S
C1769 C1770 1.392 1_565 S
C1769 C1773 1.495 . S
C1770 C1769 1.392 1_545 S
C1770 C1771 1.385 . S
C1770 C1772 1.478 . S
C1771 H1765 0.930 . S
C1771 C1767 1.400 . S
C1771 C1770 1.385 . S
C1772 C1770 1.478 . S
C1772 C1774 1.381 . S
C1772 C1778 1.383 1_545 S
C1773 C1769 1.495 . S
C1773 H1779 0.959 . S
C1773 H1780 0.961 . S
C1773 H1781 0.960 1_565 S
C1774 C1772 1.381 . S
C1774 C1775 1.394 . S
C1774 H1782 0.930 . S
C1775 C1774 1.394 . S
C1775 C1776 1.383 . S
C1775 H1783 0.929 . S
C1776 C1775 1.383 . S
C1776 C1777 1.377 1_545 S
C1777 H1761 0.930 . S
C1777 C1776 1.377 1_565 S
C1777 C1778 1.379 . S
C1778 H1762 0.931 . S
C1778 C1772 1.383 1_565 S
C1778 C1777 1.379 . S
H1779 C1773 0.959 . S
H1780 C1773 0.961 . S
H1781 C1773 0.960 1_545 S
H1782 C1774 0.930 . S
H1783 C1775 0.929 . S
H1784 C1792 0.929 . S
H1785 C1794 0.930 . S
H1786 C1796 0.930 . S
H1787 C1799 0.929 . S
H1788 C1802 0.930 . S
H1789 C1804 0.960 . S
H1790 C1804 0.960 . S
H1791 C1804 0.960 . S
C1792 H1784 0.929 . S
C1792 C1793 1.377 . S
C1792 C1794 1.384 . S
C1793 C1792 1.377 . S
C1793 C1799 1.390 . S
C1794 H1785 0.930 . S
C1794 C1792 1.384 . S
C1794 C1795 1.372 . S
C1795 C1794 1.372 . S
C1795 C1796 1.400 . S
C1795 C1800 1.490 . S
C1796 H1786 0.930 . S
C1796 C1795 1.400 . S
C1796 C1799 1.386 . S
H1797 C1813 0.930 . S
H1798 C1814 0.931 . S
C1799 H1787 0.929 . S
C1799 C1793 1.390 . S
C1799 C1796 1.386 . S
C1800 C1795 1.490 . S
C1800 C1802 1.395 . S
C1800 C1803 1.403 . S
H1801 C1807 0.930 . S
C1802 H1788 0.930 . S
C1802 C1800 1.395 . S
C1802 C1805 1.403 . S
C1803 C1800 1.403 . S
C1803 C1804 1.524 . S
C1803 C1807 1.400 . S
C1804 H1789 0.960 . S
C1804 H1790 0.960 . S
C1804 H1791 0.960 . S
C1804 C1803 1.524 . S
C1805 C1802 1.403 . S
C1805 C1806 1.392 . S
C1805 C1809 1.495 . S
C1806 C1805 1.392 . S
C1806 C1807 1.385 . S
C1806 C1808 1.478 . S
C1807 H1801 0.930 . S
C1807 C1803 1.400 . S
C1807 C1806 1.385 . S
C1808 C1806 1.478 . S
C1808 C1810 1.381 . S
C1808 C1814 1.383 . S
C1809 C1805 1.495 . S
C1809 H1815 0.959 . S
C1809 H1816 0.961 . S
C1809 H1817 0.960 . S
C1810 C1808 1.381 . S
C1810 C1811 1.394 . S
C1810 H1818 0.930 . S
C1811 C1810 1.394 . S
C1811 C1812 1.383 . S
C1811 H1819 0.929 . S
C1812 C1811 1.383 . S
C1812 C1813 1.377 . S
C1813 H1797 0.930 . S
C1813 C1812 1.377 . S
C1813 C1814 1.379 . S
C1814 H1798 0.931 . S
C1814 C1808 1.383 . S
C1814 C1813 1.379 . S
H1815 C1809 0.959 . S
H1816 C1809 0.961 . S
H1817 C1809 0.960 . S
H1818 C1810 0.930 . S
H1819 C1811 0.929 . S
H1820 C1828 0.929 . S
H1821 C1830 0.930 . S
H1822 C1832 0.930 . S
H1823 C1835 0.929 . S
H1824 C1838 0.930 . S
H1825 C1840 0.960 1_554 S
H1826 C1840 0.960 1_545 S
H1827 C1840 0.960 . S
C1828 H1820 0.929 . S
C1828 C1829 1.377 . S
C1828 C1830 1.384 . S
C1829 C1828 1.377 . S
C1829 C1835 1.390 1_545 S
C1830 H1821 0.930 . S
C1830 C1828 1.384 . S
C1830 C1831 1.372 . S
C1831 C1830 1.372 . S
C1831 C1832 1.400 1_545 S
C1831 C1836 1.490 . S
C1832 H1822 0.930 . S
C1832 C1831 1.400 1_565 S
C1832 C1835 1.386 . S
H1833 C1849 0.930 . S
H1834 C1850 0.931 . S
C1835 H1823 0.929 . S
C1835 C1829 1.390 1_565 S
C1835 C1832 1.386 . S
C1836 C1831 1.490 . S
C1836 C1838 1.395 1_455 S
C1836 C1839 1.403 1_545 S
H1837 C1843 0.930 . S
C1838 H1824 0.930 . S
C1838 C1836 1.395 1_655 S
C1838 C1841 1.403 1_556 S
C1839 C1836 1.403 1_565 S
C1839 C1840 1.524 . S
C1839 C1843 1.400 1_556 S
C1840 H1825 0.960 1_556 S
C1840 H1826 0.960 1_565 S
C1840 H1827 0.960 . S
C1840 C1839 1.524 . S
C1841 C1838 1.403 1_554 S
C1841 C1842 1.392 1_545 S
C1841 C1845 1.495 . S
C1842 C1841 1.392 1_565 S
C1842 C1843 1.385 1_655 S
C1842 C1844 1.478 . S
C1843 H1837 0.930 . S
C1843 C1839 1.400 1_554 S
C1843 C1842 1.385 1_455 S
C1844 C1842 1.478 . S
C1844 C1846 1.381 1_565 S
C1844 C1850 1.383 . S
C1845 C1841 1.495 . S
C1845 H1851 0.959 1_554 S
C1845 H1852 0.961 . S
C1845 H1853 0.960 . S
C1846 C1844 1.381 1_545 S
C1846 C1847 1.394 . S
C1846 H1854 0.930 . S
C1847 C1846 1.394 . S
C1847 C1848 1.383 1_545 S
C1847 H1855 0.929 . S
C1848 C1847 1.383 1_565 S
C1848 C1849 1.377 . S
C1849 H1833 0.930 . S
C1849 C1848 1.377 . S
C1849 C1850 1.379 . S
C1850 H1834 0.931 . S
C1850 C1844 1.383 . S
C1850 C1849 1.379 . S
H1851 C1845 0.959 1_556 S
H1852 C1845 0.961 . S
H1853 C1845 0.960 . S
H1854 C1846 0.930 . S
H1855 C1847 0.929 . S
H1856 C1864 0.929 . S
H1857 C1866 0.930 . S
H1858 C1868 0.930 . S
H1859 C1871 0.929 . S
H1860 C1874 0.930 . S
H1861 C1876 0.960 . S
H1862 C1876 0.960 . S
H1863 C1876 0.960 . S
C1864 H1856 0.929 . S
C1864 C1865 1.377 . S
C1864 C1866 1.384 . S
C1865 C1864 1.377 . S
C1865 C1871 1.390 . S
C1866 H1857 0.930 . S
C1866 C1864 1.384 . S
C1866 C1867 1.372 . S
C1867 C1866 1.372 . S
C1867 C1868 1.400 . S
C1867 C1872 1.490 . S
C1868 H1858 0.930 . S
C1868 C1867 1.400 . S
C1868 C1871 1.386 . S
H1869 C1885 0.930 . S
H1870 C1886 0.931 . S
C1871 H1859 0.929 . S
C1871 C1865 1.390 . S
C1871 C1868 1.386 . S
C1872 C1867 1.490 . S
C1872 C1874 1.395 . S
C1872 C1875 1.403 . S
H1873 C1879 0.930 . S
C1874 H1860 0.930 . S
C1874 C1872 1.395 . S
C1874 C1877 1.403 . S
C1875 C1872 1.403 . S
C1875 C1876 1.524 . S
C1875 C1879 1.400 . S
C1876 H1861 0.960 . S
C1876 H1862 0.960 . S
C1876 H1863 0.960 . S
C1876 C1875 1.524 . S
C1877 C1874 1.403 . S
C1877 C1878 1.392 . S
C1877 C1881 1.495 . S
C1878 C1877 1.392 . S
C1878 C1879 1.385 . S
C1878 C1880 1.478 . S
C1879 H1873 0.930 . S
C1879 C1875 1.400 . S
C1879 C1878 1.385 . S
C1880 C1878 1.478 . S
C1880 C1882 1.381 . S
C1880 C1886 1.383 . S
C1881 C1877 1.495 . S
C1881 H1887 0.959 . S
C1881 H1888 0.961 . S
C1881 H1889 0.960 . S
C1882 C1880 1.381 . S
C1882 C1883 1.394 . S
C1882 H1890 0.930 . S
C1883 C1882 1.394 . S
C1883 C1884 1.383 . S
C1883 H1891 0.929 . S
C1884 C1883 1.383 . S
C1884 C1885 1.377 . S
C1885 H1869 0.930 . S
C1885 C1884 1.377 . S
C1885 C1886 1.379 . S
C1886 H1870 0.931 . S
C1886 C1880 1.383 . S
C1886 C1885 1.379 . S
H1887 C1881 0.959 . S
H1888 C1881 0.961 . S
H1889 C1881 0.960 . S
H1890 C1882 0.930 . S
H1891 C1883 0.929 . S
H1892 C1900 0.929 . S
H1893 C1902 0.930 . S
H1894 C1904 0.930 . S
H1895 C1907 0.929 . S
H1896 C1910 0.930 . S
H1897 C1912 0.960 . S
H1898 C1912 0.960 . S
H1899 C1912 0.960 . S
C1900 H1892 0.929 . S
C1900 C1901 1.377 . S
C1900 C1902 1.384 . S
C1901 C1900 1.377 . S
C1901 C1907 1.390 . S
C1902 H1893 0.930 . S
C1902 C1900 1.384 . S
C1902 C1903 1.372 . S
C1903 C1902 1.372 . S
C1903 C1904 1.400 . S
C1903 C1908 1.490 . S
C1904 H1894 0.930 . S
C1904 C1903 1.400 . S
C1904 C1907 1.386 . S
H1905 C1921 0.930 . S
H1906 C1922 0.931 . S
C1907 H1895 0.929 . S
C1907 C1901 1.390 . S
C1907 C1904 1.386 . S
C1908 C1903 1.490 . S
C1908 C1910 1.395 . S
C1908 C1911 1.403 . S
H1909 C1915 0.930 . S
C1910 H1896 0.930 . S
C1910 C1908 1.395 . S
C1910 C1913 1.403 . S
C1911 C1908 1.403 . S
C1911 C1912 1.524 . S
C1911 C1915 1.400 . S
C1912 H1897 0.960 . S
C1912 H1898 0.960 . S
C1912 H1899 0.960 . S
C1912 C1911 1.524 . S
C1913 C1910 1.403 . S
C1913 C1914 1.392 . S
C1913 C1917 1.495 . S
C1914 C1913 1.392 . S
C1914 C1915 1.385 . S
C1914 C1916 1.478 . S
C1915 H1909 0.930 . S
C1915 C1911 1.400 . S
C1915 C1914 1.385 . S
C1916 C1914 1.478 . S
C1916 C1918 1.381 . S
C1916 C1922 1.383 . S
C1917 C1913 1.495 . S
C1917 H1923 0.959 . S
C1917 H1924 0.961 . S
C1917 H1925 0.960 . S
C1918 C1916 1.381 . S
C1918 C1919 1.394 . S
C1918 H1926 0.930 . S
C1919 C1918 1.394 . S
C1919 C1920 1.383 . S
C1919 H1927 0.929 . S
C1920 C1919 1.383 . S
C1920 C1921 1.377 . S
C1921 H1905 0.930 . S
C1921 C1920 1.377 . S
C1921 C1922 1.379 . S
C1922 H1906 0.931 . S
C1922 C1916 1.383 . S
C1922 C1921 1.379 . S
H1923 C1917 0.959 . S
H1924 C1917 0.961 . S
H1925 C1917 0.960 . S
H1926 C1918 0.930 . S
H1927 C1919 0.929 . S
H1928 C1936 0.929 . S
H1929 C1938 0.930 . S
H1930 C1940 0.930 . S
H1931 C1943 0.929 . S
H1932 C1946 0.930 . S
H1933 C1948 0.960 . S
H1934 C1948 0.960 . S
H1935 C1948 0.960 . S
C1936 H1928 0.929 . S
C1936 C1937 1.377 . S
C1936 C1938 1.384 . S
C1937 C1936 1.377 . S
C1937 C1943 1.390 . S
C1938 H1929 0.930 . S
C1938 C1936 1.384 . S
C1938 C1939 1.372 . S
C1939 C1938 1.372 . S
C1939 C1940 1.400 . S
C1939 C1944 1.490 . S
C1940 H1930 0.930 . S
C1940 C1939 1.400 . S
C1940 C1943 1.386 . S
H1941 C1957 0.930 . S
H1942 C1958 0.931 . S
C1943 H1931 0.929 . S
C1943 C1937 1.390 . S
C1943 C1940 1.386 . S
C1944 C1939 1.490 . S
C1944 C1946 1.395 . S
C1944 C1947 1.403 . S
H1945 C1951 0.930 . S
C1946 H1932 0.930 . S
C1946 C1944 1.395 . S
C1946 C1949 1.403 . S
C1947 C1944 1.403 . S
C1947 C1948 1.524 . S
C1947 C1951 1.400 . S
C1948 H1933 0.960 . S
C1948 H1934 0.960 . S
C1948 H1935 0.960 . S
C1948 C1947 1.524 . S
C1949 C1946 1.403 . S
C1949 C1950 1.392 . S
C1949 C1953 1.495 . S
C1950 C1949 1.392 . S
C1950 C1951 1.385 . S
C1950 C1952 1.478 . S
C1951 H1945 0.930 . S
C1951 C1947 1.400 . S
C1951 C1950 1.385 . S
C1952 C1950 1.478 . S
C1952 C1954 1.381 . S
C1952 C1958 1.383 . S
C1953 C1949 1.495 . S
C1953 H1959 0.959 . S
C1953 H1960 0.961 . S
C1953 H1961 0.960 . S
C1954 C1952 1.381 . S
C1954 C1955 1.394 . S
C1954 H1962 0.930 . S
C1955 C1954 1.394 . S
C1955 C1956 1.383 . S
C1955 H1963 0.929 . S
C1956 C1955 1.383 . S
C1956 C1957 1.377 . S
C1957 H1941 0.930 . S
C1957 C1956 1.377 . S
C1957 C1958 1.379 . S
C1958 H1942 0.931 . S
C1958 C1952 1.383 . S
C1958 C1957 1.379 . S
H1959 C1953 0.959 . S
H1960 C1953 0.961 . S
H1961 C1953 0.960 . S
H1962 C1954 0.930 . S
H1963 C1955 0.929 . S
H1964 C1972 0.929 . S
H1965 C1974 0.930 . S
H1966 C1976 0.930 . S
H1967 C1979 0.929 . S
H1968 C1982 0.930 . S
H1969 C1984 0.960 . S
H1970 C1984 0.960 . S
H1971 C1984 0.960 . S
C1972 H1964 0.929 . S
C1972 C1973 1.377 . S
C1972 C1974 1.384 . S
C1973 C1972 1.377 . S
C1973 C1979 1.390 . S
C1974 H1965 0.930 . S
C1974 C1972 1.384 . S
C1974 C1975 1.372 . S
C1975 C1974 1.372 . S
C1975 C1976 1.400 . S
C1975 C1980 1.490 . S
C1976 H1966 0.930 . S
C1976 C1975 1.400 . S
C1976 C1979 1.386 . S
H1977 C1993 0.930 . S
H1978 C1994 0.931 . S
C1979 H1967 0.929 . S
C1979 C1973 1.390 . S
C1979 C1976 1.386 . S
C1980 C1975 1.490 . S
C1980 C1982 1.395 . S
C1980 C1983 1.403 . S
H1981 C1987 0.930 . S
C1982 H1968 0.930 . S
C1982 C1980 1.395 . S
C1982 C1985 1.403 . S
C1983 C1980 1.403 . S
C1983 C1984 1.524 . S
C1983 C1987 1.400 . S
C1984 H1969 0.960 . S
C1984 H1970 0.960 . S
C1984 H1971 0.960 . S
C1984 C1983 1.524 . S
C1985 C1982 1.403 . S
C1985 C1986 1.392 . S
C1985 C1989 1.495 . S
C1986 C1985 1.392 . S
C1986 C1987 1.385 . S
C1986 C1988 1.478 . S
C1987 H1981 0.930 . S
C1987 C1983 1.400 . S
C1987 C1986 1.385 . S
C1988 C1986 1.478 . S
C1988 C1990 1.381 . S
C1988 C1994 1.383 . S
C1989 C1985 1.495 . S
C1989 H1995 0.959 . S
C1989 H1996 0.961 . S
C1989 H1997 0.960 . S
C1990 C1988 1.381 . S
C1990 C1991 1.394 . S
C1990 H1998 0.930 . S
C1991 C1990 1.394 . S
C1991 C1992 1.383 . S
C1991 H1999 0.929 . S
C1992 C1991 1.383 . S
C1992 C1993 1.377 . S
C1993 H1977 0.930 . S
C1993 C1992 1.377 . S
C1993 C1994 1.379 . S
C1994 H1978 0.931 . S
C1994 C1988 1.383 . S
C1994 C1993 1.379 . S
H1995 C1989 0.959 . S
H1996 C1989 0.961 . S
H1997 C1989 0.960 . S
H1998 C1990 0.930 . S
H1999 C1991 0.929 . S
H2000 C2008 0.929 . S
H2001 C2010 0.930 . S
H2002 C2012 0.930 . S
H2003 C2015 0.929 . S
H2004 C2018 0.930 . S
H2005 C2020 0.960 . S
H2006 C2020 0.960 . S
H2007 C2020 0.960 . S
C2008 H2000 0.929 . S
C2008 C2009 1.377 . S
C2008 C2010 1.384 . S
C2009 C2008 1.377 . S
C2009 C2015 1.390 . S
C2010 H2001 0.930 . S
C2010 C2008 1.384 . S
C2010 C2011 1.372 . S
C2011 C2010 1.372 . S
C2011 C2012 1.400 . S
C2011 C2016 1.490 . S
C2012 H2002 0.930 . S
C2012 C2011 1.400 . S
C2012 C2015 1.386 . S
H2013 C2029 0.930 . S
H2014 C2030 0.931 . S
C2015 H2003 0.929 . S
C2015 C2009 1.390 . S
C2015 C2012 1.386 . S
C2016 C2011 1.490 . S
C2016 C2018 1.395 . S
C2016 C2019 1.403 . S
H2017 C2023 0.930 . S
C2018 H2004 0.930 . S
C2018 C2016 1.395 . S
C2018 C2021 1.403 1_554 S
C2019 C2016 1.403 . S
C2019 C2020 1.524 . S
C2019 C2023 1.400 1_554 S
C2020 H2005 0.960 . S
C2020 H2006 0.960 . S
C2020 H2007 0.960 . S
C2020 C2019 1.524 . S
C2021 C2018 1.403 1_556 S
C2021 C2022 1.392 . S
C2021 C2025 1.495 . S
C2022 C2021 1.392 . S
C2022 C2023 1.385 . S
C2022 C2024 1.478 . S
C2023 H2017 0.930 . S
C2023 C2019 1.400 1_556 S
C2023 C2022 1.385 . S
C2024 C2022 1.478 . S
C2024 C2026 1.381 . S
C2024 C2030 1.383 . S
C2025 C2021 1.495 . S
C2025 H2031 0.959 . S
C2025 H2032 0.961 . S
C2025 H2033 0.960 . S
C2026 C2024 1.381 . S
C2026 C2027 1.394 . S
C2026 H2034 0.930 . S
C2027 C2026 1.394 . S
C2027 C2028 1.383 . S
C2027 H2035 0.929 . S
C2028 C2027 1.383 . S
C2028 C2029 1.377 . S
C2029 H2013 0.930 . S
C2029 C2028 1.377 . S
C2029 C2030 1.379 . S
C2030 H2014 0.931 . S
C2030 C2024 1.383 . S
C2030 C2029 1.379 . S
H2031 C2025 0.959 . S
H2032 C2025 0.961 . S
H2033 C2025 0.960 . S
H2034 C2026 0.930 . S
H2035 C2027 0.929 . S
H2036 C2044 0.929 . S
H2037 C2046 0.930 . S
H2038 C2048 0.930 . S
H2039 C2051 0.929 . S
H2040 C2054 0.930 . S
H2041 C2056 0.960 . S
H2042 C2056 0.960 . S
H2043 C2056 0.960 . S
C2044 H2036 0.929 . S
C2044 C2045 1.377 . S
C2044 C2046 1.384 . S
C2045 C2044 1.377 . S
C2045 C2051 1.390 . S
C2046 H2037 0.930 . S
C2046 C2044 1.384 . S
C2046 C2047 1.372 . S
C2047 C2046 1.372 . S
C2047 C2048 1.400 . S
C2047 C2052 1.490 . S
C2048 H2038 0.930 . S
C2048 C2047 1.400 . S
C2048 C2051 1.386 . S
H2049 C2065 0.930 . S
H2050 C2066 0.931 . S
C2051 H2039 0.929 . S
C2051 C2045 1.390 . S
C2051 C2048 1.386 . S
C2052 C2047 1.490 . S
C2052 C2054 1.395 1_455 S
C2052 C2055 1.403 . S
H2053 C2059 0.930 . S
C2054 H2040 0.930 . S
C2054 C2052 1.395 1_655 S
C2054 C2057 1.403 . S
C2055 C2052 1.403 . S
C2055 C2056 1.524 . S
C2055 C2059 1.400 . S
C2056 H2041 0.960 . S
C2056 H2042 0.960 . S
C2056 H2043 0.960 . S
C2056 C2055 1.524 . S
C2057 C2054 1.403 . S
C2057 C2058 1.392 . S
C2057 C2061 1.495 . S
C2058 C2057 1.392 . S
C2058 C2059 1.385 1_655 S
C2058 C2060 1.478 . S
C2059 H2053 0.930 . S
C2059 C2055 1.400 . S
C2059 C2058 1.385 1_455 S
C2060 C2058 1.478 . S
C2060 C2062 1.381 . S
C2060 C2066 1.383 . S
C2061 C2057 1.495 . S
C2061 H2067 0.959 . S
C2061 H2068 0.961 . S
C2061 H2069 0.960 . S
C2062 C2060 1.381 . S
C2062 C2063 1.394 . S
C2062 H2070 0.930 . S
C2063 C2062 1.394 . S
C2063 C2064 1.383 . S
C2063 H2071 0.929 . S
C2064 C2063 1.383 . S
C2064 C2065 1.377 . S
C2065 H2049 0.930 . S
C2065 C2064 1.377 . S
C2065 C2066 1.379 . S
C2066 H2050 0.931 . S
C2066 C2060 1.383 . S
C2066 C2065 1.379 . S
H2067 C2061 0.959 . S
H2068 C2061 0.961 . S
H2069 C2061 0.960 . S
H2070 C2062 0.930 . S
H2071 C2063 0.929 . S
H2072 C2080 0.929 . S
H2073 C2082 0.930 . S
H2074 C2084 0.930 . S
H2075 C2087 0.929 . S
H2076 C2090 0.930 . S
H2077 C2092 0.914 1_556 S
H2078 C2092 0.977 . S
H2079 C2092 0.990 . S
C2080 H2072 0.929 . S
C2080 C2081 1.377 . S
C2080 C2082 1.384 . S
C2081 C2080 1.377 . S
C2081 C2087 1.390 . S
C2082 H2073 0.930 . S
C2082 C2080 1.384 . S
C2082 C2083 1.372 . S
C2083 C2082 1.372 . S
C2083 C2084 1.400 . S
C2083 C2088 1.490 . S
C2084 H2074 0.930 . S
C2084 C2083 1.400 . S
C2084 C2087 1.386 . S
H2085 C2101 0.930 . S
H2086 C2102 0.931 . S
C2087 H2075 0.929 . S
C2087 C2081 1.390 . S
C2087 C2084 1.386 . S
C2088 C2083 1.490 . S
C2088 C2090 1.395 1_455 S
C2088 C2091 1.460 . S
H2089 C2095 0.930 . S
C2090 H2076 0.930 . S
C2090 C2088 1.395 1_655 S
C2090 C2093 1.372 1_554 S
C2091 C2088 1.460 . S
C2091 C2092 1.524 . S
C2091 C2095 1.342 1_554 S
C2092 H2077 0.914 1_554 S
C2092 H2078 0.977 . S
C2092 H2079 0.990 . S
C2092 C2091 1.524 . S
C2093 C2090 1.372 1_556 S
C2093 C2094 1.422 . S
C2093 C2097 1.495 . S
C2094 C2093 1.422 . S
C2094 C2095 1.385 1_655 S
C2094 C2096 1.478 . S
C2095 H2089 0.930 . S
C2095 C2091 1.342 1_556 S
C2095 C2094 1.385 1_455 S
C2096 C2094 1.478 . S
C2096 C2098 1.381 . S
C2096 C2102 1.383 . S
C2097 C2093 1.495 . S
C2097 H2103 0.915 1_556 S
C2097 H2104 0.979 . S
C2097 H2105 0.988 . S
C2098 C2096 1.381 . S
C2098 C2099 1.394 . S
C2098 H2106 0.930 . S
C2099 C2098 1.394 . S
C2099 C2100 1.383 . S
C2099 H2107 0.929 . S
C2100 C2099 1.383 . S
C2100 C2101 1.377 . S
C2101 H2085 0.930 . S
C2101 C2100 1.377 . S
C2101 C2102 1.379 . S
C2102 H2086 0.931 . S
C2102 C2096 1.383 . S
C2102 C2101 1.379 . S
H2103 C2097 0.915 1_554 S
H2104 C2097 0.979 . S
H2105 C2097 0.988 . S
H2106 C2098 0.930 . S
H2107 C2099 0.929 . S
H2108 C2116 0.929 . S
H2109 C2118 0.930 . S
H2110 C2120 0.930 . S
H2111 C2123 0.929 . S
H2112 C2126 0.930 . S
H2113 C2128 0.960 . S
H2114 C2128 0.960 . S
H2115 C2128 0.960 . S
C2116 H2108 0.929 . S
C2116 C2117 1.377 . S
C2116 C2118 1.384 . S
C2117 C2116 1.377 . S
C2117 C2123 1.390 . S
C2118 H2109 0.930 . S
C2118 C2116 1.384 . S
C2118 C2119 1.372 . S
C2119 C2118 1.372 . S
C2119 C2120 1.400 . S
C2119 C2124 1.490 . S
C2120 H2110 0.930 . S
C2120 C2119 1.400 . S
C2120 C2123 1.386 . S
H2121 C2137 0.930 . S
H2122 C2138 0.931 . S
C2123 H2111 0.929 . S
C2123 C2117 1.390 . S
C2123 C2120 1.386 . S
C2124 C2119 1.490 . S
C2124 C2126 1.395 . S
C2124 C2127 1.403 . S
H2125 C2131 0.930 . S
C2126 H2112 0.930 . S
C2126 C2124 1.395 . S
C2126 C2129 1.403 . S
C2127 C2124 1.403 . S
C2127 C2128 1.524 . S
C2127 C2131 1.400 . S
C2128 H2113 0.960 . S
C2128 H2114 0.960 . S
C2128 H2115 0.960 . S
C2128 C2127 1.524 . S
C2129 C2126 1.403 . S
C2129 C2130 1.392 . S
C2129 C2133 1.495 . S
C2130 C2129 1.392 . S
C2130 C2131 1.385 . S
C2130 C2132 1.478 . S
C2131 H2125 0.930 . S
C2131 C2127 1.400 . S
C2131 C2130 1.385 . S
C2132 C2130 1.478 . S
C2132 C2134 1.381 . S
C2132 C2138 1.383 . S
C2133 C2129 1.495 . S
C2133 H2139 0.959 . S
C2133 H2140 0.961 . S
C2133 H2141 0.960 . S
C2134 C2132 1.381 . S
C2134 C2135 1.394 . S
C2134 H2142 0.930 . S
C2135 C2134 1.394 . S
C2135 C2136 1.383 . S
C2135 H2143 0.929 . S
C2136 C2135 1.383 . S
C2136 C2137 1.377 . S
C2137 H2121 0.930 . S
C2137 C2136 1.377 . S
C2137 C2138 1.379 . S
C2138 H2122 0.931 . S
C2138 C2132 1.383 . S
C2138 C2137 1.379 . S
H2139 C2133 0.959 . S
H2140 C2133 0.961 . S
H2141 C2133 0.960 . S
H2142 C2134 0.930 . S
H2143 C2135 0.929 . S
H2144 C2152 0.929 . S
H2145 C2154 0.930 . S
H2146 C2156 0.930 . S
H2147 C2159 0.929 . S
H2148 C2162 0.930 . S
H2149 C2164 0.960 . S
H2150 C2164 0.960 . S
H2151 C2164 0.960 . S
C2152 H2144 0.929 . S
C2152 C2153 1.377 . S
C2152 C2154 1.384 . S
C2153 C2152 1.377 . S
C2153 C2159 1.390 . S
C2154 H2145 0.930 . S
C2154 C2152 1.384 . S
C2154 C2155 1.372 . S
C2155 C2154 1.372 . S
C2155 C2156 1.400 . S
C2155 C2160 1.490 . S
C2156 H2146 0.930 . S
C2156 C2155 1.400 . S
C2156 C2159 1.386 . S
H2157 C2173 0.930 1_565 S
H2158 C2174 0.931 . S
C2159 H2147 0.929 . S
C2159 C2153 1.390 . S
C2159 C2156 1.386 . S
C2160 C2155 1.490 . S
C2160 C2162 1.395 . S
C2160 C2163 1.403 . S
H2161 C2167 0.930 . S
C2162 H2148 0.930 . S
C2162 C2160 1.395 . S
C2162 C2165 1.403 . S
C2163 C2160 1.403 . S
C2163 C2164 1.524 . S
C2163 C2167 1.400 . S
C2164 H2149 0.960 . S
C2164 H2150 0.960 . S
C2164 H2151 0.960 . S
C2164 C2163 1.524 . S
C2165 C2162 1.403 . S
C2165 C2166 1.392 . S
C2165 C2169 1.495 . S
C2166 C2165 1.392 . S
C2166 C2167 1.385 . S
C2166 C2168 1.478 . S
C2167 H2161 0.930 . S
C2167 C2163 1.400 . S
C2167 C2166 1.385 . S
C2168 C2166 1.478 . S
C2168 C2170 1.381 . S
C2168 C2174 1.383 . S
C2169 C2165 1.495 . S
C2169 H2175 0.959 . S
C2169 H2176 0.961 . S
C2169 H2177 0.960 . S
C2170 C2168 1.381 . S
C2170 C2171 1.394 . S
C2170 H2178 0.930 . S
C2171 C2170 1.394 . S
C2171 C2172 1.383 . S
C2171 H2179 0.929 . S
C2172 C2171 1.383 . S
C2172 C2173 1.377 . S
C2173 H2157 0.930 1_545 S
C2173 C2172 1.377 . S
C2173 C2174 1.379 . S
C2174 H2158 0.931 . S
C2174 C2168 1.383 . S
C2174 C2173 1.379 . S
H2175 C2169 0.959 . S
H2176 C2169 0.961 . S
H2177 C2169 0.960 . S
H2178 C2170 0.930 . S
H2179 C2171 0.929 . S
H2180 C2188 0.929 1_565 S
H2181 C2190 0.930 . S
H2182 C2192 0.930 . S
H2183 C2195 0.929 . S
H2184 C2198 0.930 . S
H2185 C2200 0.960 . S
H2186 C2200 0.960 . S
H2187 C2200 0.960 . S
C2188 H2180 0.929 1_545 S
C2188 C2189 1.377 . S
C2188 C2190 1.384 . S
C2189 C2188 1.377 . S
C2189 C2195 1.390 . S
C2190 H2181 0.930 . S
C2190 C2188 1.384 . S
C2190 C2191 1.372 . S
C2191 C2190 1.372 . S
C2191 C2192 1.400 . S
C2191 C2196 1.490 . S
C2192 H2182 0.930 . S
C2192 C2191 1.400 . S
C2192 C2195 1.386 . S
H2193 C2209 0.930 . S
H2194 C2210 0.931 . S
C2195 H2183 0.929 . S
C2195 C2189 1.390 . S
C2195 C2192 1.386 . S
C2196 C2191 1.490 . S
C2196 C2198 1.395 . S
C2196 C2199 1.403 . S
H2197 C2203 0.930 . S
C2198 H2184 0.930 . S
C2198 C2196 1.395 . S
C2198 C2201 1.403 . S
C2199 C2196 1.403 . S
C2199 C2200 1.524 . S
C2199 C2203 1.400 . S
C2200 H2185 0.960 . S
C2200 H2186 0.960 . S
C2200 H2187 0.960 . S
C2200 C2199 1.524 . S
C2201 C2198 1.403 . S
C2201 C2202 1.392 . S
C2201 C2205 1.495 . S
C2202 C2201 1.392 . S
C2202 C2203 1.385 . S
C2202 C2204 1.478 . S
C2203 H2197 0.930 . S
C2203 C2199 1.400 . S
C2203 C2202 1.385 . S
C2204 C2202 1.478 . S
C2204 C2206 1.381 . S
C2204 C2210 1.383 . S
C2205 C2201 1.495 . S
C2205 H2211 0.959 . S
C2205 H2212 0.961 . S
C2205 H2213 0.960 . S
C2206 C2204 1.381 . S
C2206 C2207 1.394 . S
C2206 H2214 0.930 . S
C2207 C2206 1.394 . S
C2207 C2208 1.383 . S
C2207 H2215 0.929 . S
C2208 C2207 1.383 . S
C2208 C2209 1.377 . S
C2209 H2193 0.930 . S
C2209 C2208 1.377 . S
C2209 C2210 1.379 . S
C2210 H2194 0.931 . S
C2210 C2204 1.383 . S
C2210 C2209 1.379 . S
H2211 C2205 0.959 . S
H2212 C2205 0.961 . S
H2213 C2205 0.960 . S
H2214 C2206 0.930 . S
H2215 C2207 0.929 . S
H2216 C2224 0.929 . S
H2217 C2226 0.930 . S
H2218 C2228 0.930 . S
H2219 C2231 0.929 . S
H2220 C2234 0.930 . S
H2221 C2236 0.960 . S
H2222 C2236 0.960 . S
H2223 C2236 0.960 . S
C2224 H2216 0.929 . S
C2224 C2225 1.377 . S
C2224 C2226 1.384 . S
C2225 C2224 1.377 . S
C2225 C2231 1.390 . S
C2226 H2217 0.930 . S
C2226 C2224 1.384 . S
C2226 C2227 1.372 . S
C2227 C2226 1.372 . S
C2227 C2228 1.400 . S
C2227 C2232 1.490 . S
C2228 H2218 0.930 . S
C2228 C2227 1.400 . S
C2228 C2231 1.386 . S
H2229 C2245 0.930 . S
H2230 C2246 0.931 . S
C2231 H2219 0.929 . S
C2231 C2225 1.390 . S
C2231 C2228 1.386 . S
C2232 C2227 1.490 . S
C2232 C2234 1.395 . S
C2232 C2235 1.403 . S
H2233 C2239 0.930 . S
C2234 H2220 0.930 . S
C2234 C2232 1.395 . S
C2234 C2237 1.403 . S
C2235 C2232 1.403 . S
C2235 C2236 1.524 . S
C2235 C2239 1.400 . S
C2236 H2221 0.960 . S
C2236 H2222 0.960 . S
C2236 H2223 0.960 . S
C2236 C2235 1.524 . S
C2237 C2234 1.403 . S
C2237 C2238 1.392 . S
C2237 C2241 1.495 . S
C2238 C2237 1.392 . S
C2238 C2239 1.385 . S
C2238 C2240 1.478 . S
C2239 H2233 0.930 . S
C2239 C2235 1.400 . S
C2239 C2238 1.385 . S
C2240 C2238 1.478 . S
C2240 C2242 1.381 . S
C2240 C2246 1.383 . S
C2241 C2237 1.495 . S
C2241 H2247 0.959 . S
C2241 H2248 0.961 . S
C2241 H2249 0.960 . S
C2242 C2240 1.381 . S
C2242 C2243 1.394 . S
C2242 H2250 0.930 . S
C2243 C2242 1.394 . S
C2243 C2244 1.383 . S
C2243 H2251 0.929 . S
C2244 C2243 1.383 . S
C2244 C2245 1.377 . S
C2245 H2229 0.930 . S
C2245 C2244 1.377 . S
C2245 C2246 1.379 . S
C2246 H2230 0.931 . S
C2246 C2240 1.383 . S
C2246 C2245 1.379 . S
H2247 C2241 0.959 . S
H2248 C2241 0.961 . S
H2249 C2241 0.960 . S
H2250 C2242 0.930 . S
H2251 C2243 0.929 . S
H2252 C2260 0.929 . S
H2253 C2262 0.930 . S
H2254 C2264 0.930 . S
H2255 C2267 0.929 . S
H2256 C2270 0.930 . S
H2257 C2272 0.960 . S
H2258 C2272 0.960 . S
H2259 C2272 0.960 . S
C2260 H2252 0.929 . S
C2260 C2261 1.377 . S
C2260 C2262 1.384 . S
C2261 C2260 1.377 . S
C2261 C2267 1.390 . S
C2262 H2253 0.930 . S
C2262 C2260 1.384 . S
C2262 C2263 1.372 . S
C2263 C2262 1.372 . S
C2263 C2264 1.400 . S
C2263 C2268 1.490 . S
C2264 H2254 0.930 . S
C2264 C2263 1.400 . S
C2264 C2267 1.386 . S
H2265 C2281 0.930 . S
H2266 C2282 0.931 . S
C2267 H2255 0.929 . S
C2267 C2261 1.390 . S
C2267 C2264 1.386 . S
C2268 C2263 1.490 . S
C2268 C2270 1.395 . S
C2268 C2271 1.403 . S
H2269 C2275 0.930 . S
C2270 H2256 0.930 . S
C2270 C2268 1.395 . S
C2270 C2273 1.403 . S
C2271 C2268 1.403 . S
C2271 C2272 1.524 . S
C2271 C2275 1.400 . S
C2272 H2257 0.960 . S
C2272 H2258 0.960 . S
C2272 H2259 0.960 . S
C2272 C2271 1.524 . S
C2273 C2270 1.403 . S
C2273 C2274 1.392 . S
C2273 C2277 1.495 . S
C2274 C2273 1.392 . S
C2274 C2275 1.385 . S
C2274 C2276 1.478 . S
C2275 H2269 0.930 . S
C2275 C2271 1.400 . S
C2275 C2274 1.385 . S
C2276 C2274 1.478 . S
C2276 C2278 1.381 . S
C2276 C2282 1.383 . S
C2277 C2273 1.495 . S
C2277 H2283 0.959 . S
C2277 H2284 0.961 . S
C2277 H2285 0.960 . S
C2278 C2276 1.381 . S
C2278 C2279 1.394 . S
C2278 H2286 0.930 . S
C2279 C2278 1.394 . S
C2279 C2280 1.383 . S
C2279 H2287 0.929 . S
C2280 C2279 1.383 . S
C2280 C2281 1.377 . S
C2281 H2265 0.930 . S
C2281 C2280 1.377 . S
C2281 C2282 1.379 . S
C2282 H2266 0.931 . S
C2282 C2276 1.383 . S
C2282 C2281 1.379 . S
H2283 C2277 0.959 . S
H2284 C2277 0.961 . S
H2285 C2277 0.960 . S
H2286 C2278 0.930 . S
H2287 C2279 0.929 . S
H2288 C2296 0.929 . S
H2289 C2298 0.930 . S
H2290 C2300 0.930 . S
H2291 C2303 0.929 . S
H2292 C2306 0.930 . S
H2293 C2308 0.960 . S
H2294 C2308 0.960 . S
H2295 C2308 0.960 . S
C2296 H2288 0.929 . S
C2296 C2297 1.377 . S
C2296 C2298 1.384 . S
C2297 C2296 1.377 . S
C2297 C2303 1.390 . S
C2298 H2289 0.930 . S
C2298 C2296 1.384 . S
C2298 C2299 1.372 . S
C2299 C2298 1.372 . S
C2299 C2300 1.400 . S
C2299 C2304 1.490 . S
C2300 H2290 0.930 . S
C2300 C2299 1.400 . S
C2300 C2303 1.386 . S
H2301 C2317 0.930 . S
H2302 C2318 0.931 . S
C2303 H2291 0.929 . S
C2303 C2297 1.390 . S
C2303 C2300 1.386 . S
C2304 C2299 1.490 . S
C2304 C2306 1.395 . S
C2304 C2307 1.403 . S
H2305 C2311 0.930 . S
C2306 H2292 0.930 . S
C2306 C2304 1.395 . S
C2306 C2309 1.403 . S
C2307 C2304 1.403 . S
C2307 C2308 1.524 . S
C2307 C2311 1.400 . S
C2308 H2293 0.960 . S
C2308 H2294 0.960 . S
C2308 H2295 0.960 . S
C2308 C2307 1.524 . S
C2309 C2306 1.403 . S
C2309 C2310 1.392 . S
C2309 C2313 1.495 . S
C2310 C2309 1.392 . S
C2310 C2311 1.385 . S
C2310 C2312 1.478 . S
C2311 H2305 0.930 . S
C2311 C2307 1.400 . S
C2311 C2310 1.385 . S
C2312 C2310 1.478 . S
C2312 C2314 1.381 . S
C2312 C2318 1.383 . S
C2313 C2309 1.495 . S
C2313 H2319 0.959 . S
C2313 H2320 0.961 . S
C2313 H2321 0.960 . S
C2314 C2312 1.381 . S
C2314 C2315 1.394 . S
C2314 H2322 0.930 . S
C2315 C2314 1.394 . S
C2315 C2316 1.383 . S
C2315 H2323 0.929 . S
C2316 C2315 1.383 . S
C2316 C2317 1.377 . S
C2317 H2301 0.930 . S
C2317 C2316 1.377 . S
C2317 C2318 1.379 . S
C2318 H2302 0.931 . S
C2318 C2312 1.383 . S
C2318 C2317 1.379 . S
H2319 C2313 0.959 . S
H2320 C2313 0.961 . S
H2321 C2313 0.960 . S
H2322 C2314 0.930 . S
H2323 C2315 0.929 . S
H2324 C2332 0.929 . S
H2325 C2334 0.930 . S
H2326 C2336 0.930 . S
H2327 C2339 0.929 . S
H2328 C2342 0.930 . S
H2329 C2344 0.960 . S
H2330 C2344 0.960 . S
H2331 C2344 0.960 . S
C2332 H2324 0.929 . S
C2332 C2333 1.377 . S
C2332 C2334 1.384 . S
C2333 C2332 1.377 . S
C2333 C2339 1.390 . S
C2334 H2325 0.930 . S
C2334 C2332 1.384 . S
C2334 C2335 1.372 . S
C2335 C2334 1.372 . S
C2335 C2336 1.400 . S
C2335 C2340 1.490 . S
C2336 H2326 0.930 . S
C2336 C2335 1.400 . S
C2336 C2339 1.386 . S
H2337 C2353 0.930 . S
H2338 C2354 0.931 . S
C2339 H2327 0.929 . S
C2339 C2333 1.390 . S
C2339 C2336 1.386 . S
C2340 C2335 1.490 . S
C2340 C2342 1.395 . S
C2340 C2343 1.403 . S
H2341 C2347 0.930 . S
C2342 H2328 0.930 . S
C2342 C2340 1.395 . S
C2342 C2345 1.403 . S
C2343 C2340 1.403 . S
C2343 C2344 1.524 . S
C2343 C2347 1.400 . S
C2344 H2329 0.960 . S
C2344 H2330 0.960 . S
C2344 H2331 0.960 . S
C2344 C2343 1.524 . S
C2345 C2342 1.403 . S
C2345 C2346 1.392 . S
C2345 C2349 1.495 . S
C2346 C2345 1.392 . S
C2346 C2347 1.385 . S
C2346 C2348 1.478 . S
C2347 H2341 0.930 . S
C2347 C2343 1.400 . S
C2347 C2346 1.385 . S
C2348 C2346 1.478 . S
C2348 C2350 1.381 . S
C2348 C2354 1.383 . S
C2349 C2345 1.495 . S
C2349 H2355 0.959 . S
C2349 H2356 0.961 . S
C2349 H2357 0.960 . S
C2350 C2348 1.381 . S
C2350 C2351 1.394 . S
C2350 H2358 0.930 . S
C2351 C2350 1.394 . S
C2351 C2352 1.383 . S
C2351 H2359 0.929 . S
C2352 C2351 1.383 . S
C2352 C2353 1.377 . S
C2353 H2337 0.930 . S
C2353 C2352 1.377 . S
C2353 C2354 1.379 . S
C2354 H2338 0.931 . S
C2354 C2348 1.383 . S
C2354 C2353 1.379 . S
H2355 C2349 0.959 . S
H2356 C2349 0.961 . S
H2357 C2349 0.960 . S
H2358 C2350 0.930 . S
H2359 C2351 0.929 . S
H2360 C2368 0.929 . S
H2361 C2370 0.930 . S
H2362 C2372 0.930 . S
H2363 C2375 0.929 . S
H2364 C2378 0.930 . S
H2365 C2380 0.960 . S
H2366 C2380 0.960 . S
H2367 C2380 0.960 . S
C2368 H2360 0.929 . S
C2368 C2369 1.377 . S
C2368 C2370 1.384 . S
C2369 C2368 1.377 . S
C2369 C2375 1.390 . S
C2370 H2361 0.930 . S
C2370 C2368 1.384 . S
C2370 C2371 1.372 . S
C2371 C2370 1.372 . S
C2371 C2372 1.400 . S
C2371 C2376 1.490 . S
C2372 H2362 0.930 . S
C2372 C2371 1.400 . S
C2372 C2375 1.386 . S
H2373 C2389 0.930 1_565 S
H2374 C2390 0.931 . S
C2375 H2363 0.929 . S
C2375 C2369 1.390 . S
C2375 C2372 1.386 . S
C2376 C2371 1.490 . S
C2376 C2378 1.395 . S
C2376 C2379 1.403 . S
H2377 C2383 0.930 . S
C2378 H2364 0.930 . S
C2378 C2376 1.395 . S
C2378 C2381 1.403 . S
C2379 C2376 1.403 . S
C2379 C2380 1.524 . S
C2379 C2383 1.400 . S
C2380 H2365 0.960 . S
C2380 H2366 0.960 . S
C2380 H2367 0.960 . S
C2380 C2379 1.524 . S
C2381 C2378 1.403 . S
C2381 C2382 1.392 . S
C2381 C2385 1.495 . S
C2382 C2381 1.392 . S
C2382 C2383 1.385 . S
C2382 C2384 1.478 . S
C2383 H2377 0.930 . S
C2383 C2379 1.400 . S
C2383 C2382 1.385 . S
C2384 C2382 1.478 . S
C2384 C2386 1.381 . S
C2384 C2390 1.383 . S
C2385 C2381 1.495 . S
C2385 H2391 0.959 . S
C2385 H2392 0.961 . S
C2385 H2393 0.960 . S
C2386 C2384 1.381 . S
C2386 C2387 1.394 . S
C2386 H2394 0.930 . S
C2387 C2386 1.394 . S
C2387 C2388 1.383 . S
C2387 H2395 0.929 . S
C2388 C2387 1.383 . S
C2388 C2389 1.377 . S
C2389 H2373 0.930 1_545 S
C2389 C2388 1.377 . S
C2389 C2390 1.379 . S
C2390 H2374 0.931 . S
C2390 C2384 1.383 . S
C2390 C2389 1.379 . S
H2391 C2385 0.959 . S
H2392 C2385 0.961 . S
H2393 C2385 0.960 . S
H2394 C2386 0.930 . S
H2395 C2387 0.929 . S
H2396 C2404 0.929 . S
H2397 C2406 0.930 . S
H2398 C2408 0.930 . S
H2399 C2411 0.929 1_565 S
H2400 C2414 0.930 . S
H2401 C2416 0.960 . S
H2402 C2416 0.960 . S
H2403 C2416 0.960 . S
C2404 H2396 0.929 . S
C2404 C2405 1.377 . S
C2404 C2406 1.384 . S
C2405 C2404 1.377 . S
C2405 C2411 1.390 . S
C2406 H2397 0.930 . S
C2406 C2404 1.384 . S
C2406 C2407 1.372 . S
C2407 C2406 1.372 . S
C2407 C2408 1.400 . S
C2407 C2412 1.490 . S
C2408 H2398 0.930 . S
C2408 C2407 1.400 . S
C2408 C2411 1.386 . S
H2409 C2425 0.930 . S
H2410 C2426 0.931 . S
C2411 H2399 0.929 1_545 S
C2411 C2405 1.390 . S
C2411 C2408 1.386 . S
C2412 C2407 1.490 . S
C2412 C2414 1.395 . S
C2412 C2415 1.403 . S
H2413 C2419 0.930 . S
C2414 H2400 0.930 . S
C2414 C2412 1.395 . S
C2414 C2417 1.403 . S
C2415 C2412 1.403 . S
C2415 C2416 1.524 . S
C2415 C2419 1.400 . S
C2416 H2401 0.960 . S
C2416 H2402 0.960 . S
C2416 H2403 0.960 . S
C2416 C2415 1.524 . S
C2417 C2414 1.403 . S
C2417 C2418 1.392 . S
C2417 C2421 1.495 . S
C2418 C2417 1.392 . S
C2418 C2419 1.385 . S
C2418 C2420 1.478 . S
C2419 H2413 0.930 . S
C2419 C2415 1.400 . S
C2419 C2418 1.385 . S
C2420 C2418 1.478 . S
C2420 C2422 1.381 . S
C2420 C2426 1.383 . S
C2421 C2417 1.495 . S
C2421 H2427 0.959 . S
C2421 H2428 0.961 . S
C2421 H2429 0.960 . S
C2422 C2420 1.381 . S
C2422 C2423 1.394 . S
C2422 H2430 0.930 . S
C2423 C2422 1.394 . S
C2423 C2424 1.383 . S
C2423 H2431 0.929 . S
C2424 C2423 1.383 . S
C2424 C2425 1.377 . S
C2425 H2409 0.930 . S
C2425 C2424 1.377 . S
C2425 C2426 1.379 . S
C2426 H2410 0.931 . S
C2426 C2420 1.383 . S
C2426 C2425 1.379 . S
H2427 C2421 0.959 . S
H2428 C2421 0.961 . S
H2429 C2421 0.960 . S
H2430 C2422 0.930 . S
H2431 C2423 0.929 . S
H2432 C2440 0.929 . S
H2433 C2442 0.930 . S
H2434 C2444 0.930 . S
H2435 C2447 0.929 . S
H2436 C2450 0.930 . S
H2437 C2452 0.960 . S
H2438 C2452 0.960 . S
H2439 C2452 0.960 . S
C2440 H2432 0.929 . S
C2440 C2441 1.377 . S
C2440 C2442 1.384 . S
C2441 C2440 1.377 . S
C2441 C2447 1.390 . S
C2442 H2433 0.930 . S
C2442 C2440 1.384 . S
C2442 C2443 1.372 . S
C2443 C2442 1.372 . S
C2443 C2444 1.400 . S
C2443 C2448 1.490 . S
C2444 H2434 0.930 . S
C2444 C2443 1.400 . S
C2444 C2447 1.386 . S
H2445 C2461 0.930 . S
H2446 C2462 0.931 . S
C2447 H2435 0.929 . S
C2447 C2441 1.390 . S
C2447 C2444 1.386 . S
C2448 C2443 1.490 . S
C2448 C2450 1.395 . S
C2448 C2451 1.403 . S
H2449 C2455 0.930 . S
C2450 H2436 0.930 . S
C2450 C2448 1.395 . S
C2450 C2453 1.403 . S
C2451 C2448 1.403 . S
C2451 C2452 1.524 . S
C2451 C2455 1.400 . S
C2452 H2437 0.960 . S
C2452 H2438 0.960 . S
C2452 H2439 0.960 . S
C2452 C2451 1.524 . S
C2453 C2450 1.403 . S
C2453 C2454 1.392 . S
C2453 C2457 1.495 . S
C2454 C2453 1.392 . S
C2454 C2455 1.385 . S
C2454 C2456 1.478 . S
C2455 H2449 0.930 . S
C2455 C2451 1.400 . S
C2455 C2454 1.385 . S
C2456 C2454 1.478 . S
C2456 C2458 1.381 . S
C2456 C2462 1.383 . S
C2457 C2453 1.495 . S
C2457 H2463 0.959 . S
C2457 H2464 0.961 . S
C2457 H2465 0.960 . S
C2458 C2456 1.381 . S
C2458 C2459 1.394 . S
C2458 H2466 0.930 . S
C2459 C2458 1.394 . S
C2459 C2460 1.383 . S
C2459 H2467 0.929 . S
C2460 C2459 1.383 . S
C2460 C2461 1.377 . S
C2461 H2445 0.930 . S
C2461 C2460 1.377 . S
C2461 C2462 1.379 . S
C2462 H2446 0.931 . S
C2462 C2456 1.383 . S
C2462 C2461 1.379 . S
H2463 C2457 0.959 . S
H2464 C2457 0.961 . S
H2465 C2457 0.960 . S
H2466 C2458 0.930 . S
H2467 C2459 0.929 . S
H2468 C2476 0.929 . S
H2469 C2478 0.930 . S
H2470 C2480 0.930 . S
H2471 C2483 0.929 . S
H2472 C2486 0.930 . S
H2473 C2488 0.960 . S
H2474 C2488 0.960 . S
H2475 C2488 0.960 . S
C2476 H2468 0.929 . S
C2476 C2477 1.377 . S
C2476 C2478 1.384 . S
C2477 C2476 1.377 . S
C2477 C2483 1.390 . S
C2478 H2469 0.930 . S
C2478 C2476 1.384 . S
C2478 C2479 1.372 . S
C2479 C2478 1.372 . S
C2479 C2480 1.400 . S
C2479 C2484 1.490 . S
C2480 H2470 0.930 . S
C2480 C2479 1.400 . S
C2480 C2483 1.386 . S
H2481 C2497 0.930 . S
H2482 C2498 0.931 . S
C2483 H2471 0.929 . S
C2483 C2477 1.390 . S
C2483 C2480 1.386 . S
C2484 C2479 1.490 . S
C2484 C2486 1.395 . S
C2484 C2487 1.403 . S
H2485 C2491 0.930 . S
C2486 H2472 0.930 . S
C2486 C2484 1.395 . S
C2486 C2489 1.403 . S
C2487 C2484 1.403 . S
C2487 C2488 1.524 . S
C2487 C2491 1.400 . S
C2488 H2473 0.960 . S
C2488 H2474 0.960 . S
C2488 H2475 0.960 . S
C2488 C2487 1.524 . S
C2489 C2486 1.403 . S
C2489 C2490 1.392 . S
C2489 C2493 1.495 . S
C2490 C2489 1.392 . S
C2490 C2491 1.385 . S
C2490 C2492 1.478 . S
C2491 H2485 0.930 . S
C2491 C2487 1.400 . S
C2491 C2490 1.385 . S
C2492 C2490 1.478 . S
C2492 C2494 1.381 . S
C2492 C2498 1.383 . S
C2493 C2489 1.495 . S
C2493 H2499 0.959 . S
C2493 H2500 0.961 . S
C2493 H2501 0.960 . S
C2494 C2492 1.381 . S
C2494 C2495 1.394 . S
C2494 H2502 0.930 . S
C2495 C2494 1.394 . S
C2495 C2496 1.383 . S
C2495 H2503 0.929 . S
C2496 C2495 1.383 . S
C2496 C2497 1.377 . S
C2497 H2481 0.930 . S
C2497 C2496 1.377 . S
C2497 C2498 1.379 . S
C2498 H2482 0.931 . S
C2498 C2492 1.383 . S
C2498 C2497 1.379 . S
H2499 C2493 0.959 . S
H2500 C2493 0.961 . S
H2501 C2493 0.960 . S
H2502 C2494 0.930 . S
H2503 C2495 0.929 . S
H2504 C2512 0.929 . S
H2505 C2514 0.930 . S
H2506 C2516 0.930 . S
H2507 C2519 0.929 . S
H2508 C2522 0.930 . S
H2509 C2524 0.960 . S
H2510 C2524 0.960 . S
H2511 C2524 0.960 . S
C2512 H2504 0.929 . S
C2512 C2513 1.377 . S
C2512 C2514 1.384 . S
C2513 C2512 1.377 . S
C2513 C2519 1.390 . S
C2514 H2505 0.930 . S
C2514 C2512 1.384 . S
C2514 C2515 1.372 . S
C2515 C2514 1.372 . S
C2515 C2516 1.400 . S
C2515 C2520 1.490 . S
C2516 H2506 0.930 . S
C2516 C2515 1.400 . S
C2516 C2519 1.386 . S
H2517 C2533 0.930 . S
H2518 C2534 0.931 . S
C2519 H2507 0.929 . S
C2519 C2513 1.390 . S
C2519 C2516 1.386 . S
C2520 C2515 1.490 . S
C2520 C2522 1.395 . S
C2520 C2523 1.403 . S
H2521 C2527 0.930 . S
C2522 H2508 0.930 . S
C2522 C2520 1.395 . S
C2522 C2525 1.403 . S
C2523 C2520 1.403 . S
C2523 C2524 1.524 . S
C2523 C2527 1.400 . S
C2524 H2509 0.960 . S
C2524 H2510 0.960 . S
C2524 H2511 0.960 . S
C2524 C2523 1.524 . S
C2525 C2522 1.403 . S
C2525 C2526 1.392 . S
C2525 C2529 1.495 . S
C2526 C2525 1.392 . S
C2526 C2527 1.385 . S
C2526 C2528 1.478 . S
C2527 H2521 0.930 . S
C2527 C2523 1.400 . S
C2527 C2526 1.385 . S
C2528 C2526 1.478 . S
C2528 C2530 1.381 . S
C2528 C2534 1.383 . S
C2529 C2525 1.495 . S
C2529 H2535 0.959 . S
C2529 H2536 0.961 . S
C2529 H2537 0.960 . S
C2530 C2528 1.381 . S
C2530 C2531 1.394 . S
C2530 H2538 0.930 . S
C2531 C2530 1.394 . S
C2531 C2532 1.383 . S
C2531 H2539 0.929 . S
C2532 C2531 1.383 . S
C2532 C2533 1.377 . S
C2533 H2517 0.930 . S
C2533 C2532 1.377 . S
C2533 C2534 1.379 . S
C2534 H2518 0.931 . S
C2534 C2528 1.383 . S
C2534 C2533 1.379 . S
H2535 C2529 0.959 . S
H2536 C2529 0.961 . S
H2537 C2529 0.960 . S
H2538 C2530 0.930 . S
H2539 C2531 0.929 . S
H2540 C2548 0.929 . S
H2541 C2550 0.930 . S
H2542 C2552 0.930 . S
H2543 C2555 0.929 . S
H2544 C2558 0.930 . S
H2545 C2560 0.960 . S
H2546 C2560 0.960 . S
H2547 C2560 0.960 . S
C2548 H2540 0.929 . S
C2548 C2549 1.377 . S
C2548 C2550 1.384 . S
C2549 C2548 1.377 . S
C2549 C2555 1.390 . S
C2550 H2541 0.930 . S
C2550 C2548 1.384 . S
C2550 C2551 1.372 . S
C2551 C2550 1.372 . S
C2551 C2552 1.400 . S
C2551 C2556 1.490 . S
C2552 H2542 0.930 . S
C2552 C2551 1.400 . S
C2552 C2555 1.386 . S
H2553 C2569 0.930 . S
H2554 C2570 0.931 . S
C2555 H2543 0.929 . S
C2555 C2549 1.390 . S
C2555 C2552 1.386 . S
C2556 C2551 1.490 . S
C2556 C2558 1.395 . S
C2556 C2559 1.403 . S
H2557 C2563 0.930 . S
C2558 H2544 0.930 . S
C2558 C2556 1.395 . S
C2558 C2561 1.403 . S
C2559 C2556 1.403 . S
C2559 C2560 1.524 . S
C2559 C2563 1.400 . S
C2560 H2545 0.960 . S
C2560 H2546 0.960 . S
C2560 H2547 0.960 . S
C2560 C2559 1.524 . S
C2561 C2558 1.403 . S
C2561 C2562 1.392 . S
C2561 C2565 1.495 . S
C2562 C2561 1.392 . S
C2562 C2563 1.385 . S
C2562 C2564 1.478 . S
C2563 H2557 0.930 . S
C2563 C2559 1.400 . S
C2563 C2562 1.385 . S
C2564 C2562 1.478 . S
C2564 C2566 1.381 . S
C2564 C2570 1.383 . S
C2565 C2561 1.495 . S
C2565 H2571 0.959 . S
C2565 H2572 0.961 . S
C2565 H2573 0.960 . S
C2566 C2564 1.381 . S
C2566 C2567 1.394 . S
C2566 H2574 0.930 . S
C2567 C2566 1.394 . S
C2567 C2568 1.383 . S
C2567 H2575 0.929 . S
C2568 C2567 1.383 . S
C2568 C2569 1.377 . S
C2569 H2553 0.930 . S
C2569 C2568 1.377 . S
C2569 C2570 1.379 . S
C2570 H2554 0.931 . S
C2570 C2564 1.383 . S
C2570 C2569 1.379 . S
H2571 C2565 0.959 . S
H2572 C2565 0.961 . S
H2573 C2565 0.960 . S
H2574 C2566 0.930 . S
H2575 C2567 0.929 . S
H2576 C2584 0.929 . S
H2577 C2586 0.930 . S
H2578 C2588 0.930 . S
H2579 C2591 0.929 . S
H2580 C2594 0.930 . S
H2581 C2596 0.960 . S
H2582 C2596 0.960 . S
H2583 C2596 0.960 . S
C2584 H2576 0.929 . S
C2584 C2585 1.377 . S
C2584 C2586 1.384 . S
C2585 C2584 1.377 . S
C2585 C2591 1.390 . S
C2586 H2577 0.930 . S
C2586 C2584 1.384 . S
C2586 C2587 1.372 . S
C2587 C2586 1.372 . S
C2587 C2588 1.400 . S
C2587 C2592 1.490 . S
C2588 H2578 0.930 . S
C2588 C2587 1.400 . S
C2588 C2591 1.386 . S
H2589 C2605 0.930 . S
H2590 C2606 0.931 . S
C2591 H2579 0.929 . S
C2591 C2585 1.390 . S
C2591 C2588 1.386 . S
C2592 C2587 1.490 . S
C2592 C2594 1.395 . S
C2592 C2595 1.403 . S
H2593 C2599 0.930 . S
C2594 H2580 0.930 . S
C2594 C2592 1.395 . S
C2594 C2597 1.403 . S
C2595 C2592 1.403 . S
C2595 C2596 1.524 . S
C2595 C2599 1.400 . S
C2596 H2581 0.960 . S
C2596 H2582 0.960 . S
C2596 H2583 0.960 . S
C2596 C2595 1.524 . S
C2597 C2594 1.403 . S
C2597 C2598 1.392 . S
C2597 C2601 1.495 . S
C2598 C2597 1.392 . S
C2598 C2599 1.385 . S
C2598 C2600 1.478 . S
C2599 H2593 0.930 . S
C2599 C2595 1.400 . S
C2599 C2598 1.385 . S
C2600 C2598 1.478 . S
C2600 C2602 1.381 . S
C2600 C2606 1.383 . S
C2601 C2597 1.495 . S
C2601 H2607 0.959 . S
C2601 H2608 0.961 . S
C2601 H2609 0.960 . S
C2602 C2600 1.381 . S
C2602 C2603 1.394 . S
C2602 H2610 0.930 . S
C2603 C2602 1.394 . S
C2603 C2604 1.383 . S
C2603 H2611 0.929 . S
C2604 C2603 1.383 . S
C2604 C2605 1.377 . S
C2605 H2589 0.930 . S
C2605 C2604 1.377 . S
C2605 C2606 1.379 . S
C2606 H2590 0.931 . S
C2606 C2600 1.383 . S
C2606 C2605 1.379 . S
H2607 C2601 0.959 . S
H2608 C2601 0.961 . S
H2609 C2601 0.960 . S
H2610 C2602 0.930 . S
H2611 C2603 0.929 . S
H2612 C2620 0.929 . S
H2613 C2622 0.930 . S
H2614 C2624 0.930 . S
H2615 C2627 0.929 . S
H2616 C2630 0.930 . S
H2617 C2632 0.960 . S
H2618 C2632 0.960 . S
H2619 C2632 0.960 . S
C2620 H2612 0.929 . S
C2620 C2621 1.377 . S
C2620 C2622 1.384 . S
C2621 C2620 1.377 . S
C2621 C2627 1.390 . S
C2622 H2613 0.930 . S
C2622 C2620 1.384 . S
C2622 C2623 1.372 . S
C2623 C2622 1.372 . S
C2623 C2624 1.400 . S
C2623 C2628 1.490 . S
C2624 H2614 0.930 . S
C2624 C2623 1.400 . S
C2624 C2627 1.386 . S
H2625 C2641 0.930 . S
H2626 C2642 0.931 . S
C2627 H2615 0.929 . S
C2627 C2621 1.390 . S
C2627 C2624 1.386 . S
C2628 C2623 1.490 . S
C2628 C2630 1.395 . S
C2628 C2631 1.403 . S
H2629 C2635 0.930 . S
C2630 H2616 0.930 . S
C2630 C2628 1.395 . S
C2630 C2633 1.403 . S
C2631 C2628 1.403 . S
C2631 C2632 1.524 . S
C2631 C2635 1.400 . S
C2632 H2617 0.960 . S
C2632 H2618 0.960 . S
C2632 H2619 0.960 . S
C2632 C2631 1.524 . S
C2633 C2630 1.403 . S
C2633 C2634 1.392 . S
C2633 C2637 1.495 . S
C2634 C2633 1.392 . S
C2634 C2635 1.385 . S
C2634 C2636 1.478 . S
C2635 H2629 0.930 . S
C2635 C2631 1.400 . S
C2635 C2634 1.385 . S
C2636 C2634 1.478 . S
C2636 C2638 1.381 . S
C2636 C2642 1.383 . S
C2637 C2633 1.495 . S
C2637 H2643 0.959 . S
C2637 H2644 0.961 . S
C2637 H2645 0.960 . S
C2638 C2636 1.381 . S
C2638 C2639 1.394 . S
C2638 H2646 0.930 . S
C2639 C2638 1.394 . S
C2639 C2640 1.383 . S
C2639 H2647 0.929 . S
C2640 C2639 1.383 . S
C2640 C2641 1.377 . S
C2641 H2625 0.930 . S
C2641 C2640 1.377 . S
C2641 C2642 1.379 . S
C2642 H2626 0.931 . S
C2642 C2636 1.383 . S
C2642 C2641 1.379 . S
H2643 C2637 0.959 . S
H2644 C2637 0.961 . S
H2645 C2637 0.960 . S
H2646 C2638 0.930 . S
H2647 C2639 0.929 . S
H2648 C2656 0.929 . S
H2649 C2658 0.930 . S
H2650 C2660 0.930 . S
H2651 C2663 0.929 . S
H2652 C2666 0.930 . S
H2653 C2668 0.960 . S
H2654 C2668 0.960 . S
H2655 C2668 0.960 . S
C2656 H2648 0.929 . S
C2656 C2657 1.377 . S
C2656 C2658 1.384 . S
C2657 C2656 1.377 . S
C2657 C2663 1.390 . S
C2658 H2649 0.930 . S
C2658 C2656 1.384 . S
C2658 C2659 1.372 . S
C2659 C2658 1.372 . S
C2659 C2660 1.400 . S
C2659 C2664 1.490 . S
C2660 H2650 0.930 . S
C2660 C2659 1.400 . S
C2660 C2663 1.386 . S
H2661 C2677 0.930 . S
H2662 C2678 0.931 . S
C2663 H2651 0.929 . S
C2663 C2657 1.390 . S
C2663 C2660 1.386 . S
C2664 C2659 1.490 . S
C2664 C2666 1.395 . S
C2664 C2667 1.403 . S
H2665 C2671 0.930 . S
C2666 H2652 0.930 . S
C2666 C2664 1.395 . S
C2666 C2669 1.403 . S
C2667 C2664 1.403 . S
C2667 C2668 1.524 . S
C2667 C2671 1.400 . S
C2668 H2653 0.960 . S
C2668 H2654 0.960 . S
C2668 H2655 0.960 . S
C2668 C2667 1.524 . S
C2669 C2666 1.403 . S
C2669 C2670 1.392 . S
C2669 C2673 1.495 . S
C2670 C2669 1.392 . S
C2670 C2671 1.385 . S
C2670 C2672 1.478 . S
C2671 H2665 0.930 . S
C2671 C2667 1.400 . S
C2671 C2670 1.385 . S
C2672 C2670 1.478 . S
C2672 C2674 1.381 . S
C2672 C2678 1.383 . S
C2673 C2669 1.495 . S
C2673 H2679 0.959 . S
C2673 H2680 0.961 . S
C2673 H2681 0.960 . S
C2674 C2672 1.381 . S
C2674 C2675 1.394 . S
C2674 H2682 0.930 . S
C2675 C2674 1.394 . S
C2675 C2676 1.383 . S
C2675 H2683 0.929 . S
C2676 C2675 1.383 . S
C2676 C2677 1.377 . S
C2677 H2661 0.930 . S
C2677 C2676 1.377 . S
C2677 C2678 1.379 . S
C2678 H2662 0.931 . S
C2678 C2672 1.383 . S
C2678 C2677 1.379 . S
H2679 C2673 0.959 . S
H2680 C2673 0.961 . S
H2681 C2673 0.960 . S
H2682 C2674 0.930 . S
H2683 C2675 0.929 . S
H2684 C2692 0.929 . S
H2685 C2694 0.930 . S
H2686 C2696 0.930 . S
H2687 C2699 0.929 . S
H2688 C2702 0.930 . S
H2689 C2704 0.960 . S
H2690 C2704 0.960 . S
H2691 C2704 0.960 . S
C2692 H2684 0.929 . S
C2692 C2693 1.377 . S
C2692 C2694 1.384 . S
C2693 C2692 1.377 . S
C2693 C2699 1.390 . S
C2694 H2685 0.930 . S
C2694 C2692 1.384 . S
C2694 C2695 1.372 . S
C2695 C2694 1.372 . S
C2695 C2696 1.400 . S
C2695 C2700 1.490 . S
C2696 H2686 0.930 . S
C2696 C2695 1.400 . S
C2696 C2699 1.386 . S
H2697 C2713 0.930 . S
H2698 C2714 0.931 . S
C2699 H2687 0.929 . S
C2699 C2693 1.390 . S
C2699 C2696 1.386 . S
C2700 C2695 1.490 . S
C2700 C2702 1.395 . S
C2700 C2703 1.403 . S
H2701 C2707 0.930 . S
C2702 H2688 0.930 . S
C2702 C2700 1.395 . S
C2702 C2705 1.403 . S
C2703 C2700 1.403 . S
C2703 C2704 1.524 . S
C2703 C2707 1.400 . S
C2704 H2689 0.960 . S
C2704 H2690 0.960 . S
C2704 H2691 0.960 . S
C2704 C2703 1.524 . S
C2705 C2702 1.403 . S
C2705 C2706 1.392 . S
C2705 C2709 1.495 . S
C2706 C2705 1.392 . S
C2706 C2707 1.385 . S
C2706 C2708 1.478 . S
C2707 H2701 0.930 . S
C2707 C2703 1.400 . S
C2707 C2706 1.385 . S
C2708 C2706 1.478 . S
C2708 C2710 1.381 . S
C2708 C2714 1.383 . S
C2709 C2705 1.495 . S
C2709 H2715 0.959 . S
C2709 H2716 0.961 . S
C2709 H2717 0.960 . S
C2710 C2708 1.381 . S
C2710 C2711 1.394 . S
C2710 H2718 0.930 . S
C2711 C2710 1.394 . S
C2711 C2712 1.383 . S
C2711 H2719 0.929 . S
C2712 C2711 1.383 . S
C2712 C2713 1.377 . S
C2713 H2697 0.930 . S
C2713 C2712 1.377 . S
C2713 C2714 1.379 . S
C2714 H2698 0.931 . S
C2714 C2708 1.383 . S
C2714 C2713 1.379 . S
H2715 C2709 0.959 . S
H2716 C2709 0.961 . S
H2717 C2709 0.960 . S
H2718 C2710 0.930 . S
H2719 C2711 0.929 . S
C425 C354 1.470 . S
C444 C5 1.478 . S
C461 C16 1.502 . S
C480 C108 1.464 . S
C497 C328 1.468 . S
C516 C29 1.474 . S
C533 C42 1.458 . S
C552 C140 1.455 . S
C569 C55 1.468 . S
C588 C380 1.472 . S
C605 C68 1.462 . S
C624 C192 1.454 . S
C641 C83 1.472 . S
C660 C406 1.456 . S
C677 C96 1.500 . S
C696 C166 1.454 . S
C713 C251 1.475 . S
C732 C107 1.469 . S
C749 C10 1.460 . S
C768 C127 1.498 . S
C785 C225 1.475 . S
C804 C135 1.481 . S
C821 C153 1.462 . S
C840 C30 1.451 . S
C857 C277 1.477 . S
C876 C161 1.476 . S
C893 C88 1.460 . S
C912 C173 1.466 . S
C929 C187 1.474 . S
C948 C309 1.478 . S
C965 C56 1.461 . S
C984 C199 1.444 1_455 S
C1001 C211 1.471 . S
C1020 C148 1.477 . S
C1037 C224 1.458 . S
C1056 C316 1.456 . S
C1073 C122 1.473 . S
C1092 C237 1.466 . S
C1109 C342 1.463 . S
C1128 C250 1.446 . S
C1145 C172 1.469 . S
C1164 C263 1.462 . S
C1181 C394 1.464 . S
C1200 C276 1.456 . S
C1217 C198 1.469 . S
C1236 C289 1.459 . S
C1253 C304 1.461 . S
C1272 C368 1.465 . S
C1289 C43 1.476 . S
C1308 C315 1.479 . S
C1325 C329 1.460 . S
C1344 C212 1.463 . S
C1361 C341 1.473 . S
C1380 C17 1.481 . S
C1397 C355 1.464 . S
C1416 C238 1.460 . S
C1433 C367 1.473 . S
C1452 C69 1.469 . S
C1469 C381 1.478 . S
C1488 C290 1.450 . S
C1505 C393 1.474 . S
C1524 C101 1.467 . S
C1541 C407 1.462 . S
C1560 C264 1.458 . S
C1577 C317 1.530 . S
C1596 C3 1.525 . S
C1613 C18 1.534 . S
C1632 C121 1.527 . S
C1649 C343 1.531 . S
C1668 C31 1.533 . S
C1685 C44 1.535 . S
C1704 C147 1.521 . S
C1721 C369 1.531 . S
C1740 C57 1.523 . S
C1757 C70 1.537 . S
C1776 C179 1.530 . S
C1793 C395 1.532 . S
C1812 C81 1.534 . S
C1829 C94 1.535 . S
C1848 C205 1.534 . S
C1865 C109 1.531 . S
C1884 C213 1.530 . S
C1901 C133 1.533 . S
C1920 C239 1.534 . S
C1937 C159 1.533 . S
C1956 C265 1.529 . S
C1973 C185 1.531 . S
C1992 C291 1.533 . S
C2009 C226 1.536 . S
C2028 C335 1.538 . S
C2045 C361 1.534 . S
C2064 C252 1.529 . S
C2081 C387 1.534 . S
C2100 C278 1.530 . S
C2117 C302 1.537 . S
C2136 C413 1.534 . S
C2153 C4 1.354 . S
C2172 C75 1.351 1_545 S
C2189 C23 1.354 1_545 S
C2208 C82 1.347 . S
C2225 C36 1.353 . S
C2244 C95 1.354 1_565 S
C2261 C62 1.353 . S
C2280 C49 1.354 1_565 S
C2297 C114 1.355 . S
C2316 C174 1.354 1_565 S
C2333 C120 1.355 1_565 S
C2352 C186 1.349 . S
C2369 C134 1.356 . S
C2388 C200 1.355 1_545 S
C2405 C146 1.356 1_545 S
C2424 C160 1.356 . S
C2441 C218 1.353 . S
C2460 C283 1.354 . S
C2477 C296 1.354 . S
C2496 C231 1.347 . S
C2513 C244 1.353 . S
C2532 C303 1.353 . S
C2549 C257 1.353 . S
C2568 C270 1.353 . S
C2585 C382 1.354 . S
C2604 C322 1.349 . S
C2621 C330 1.355 . S
C2640 C400 1.349 . S
C2657 C408 1.355 . S
C2676 C348 1.355 . S
C2693 C356 1.356 . S
C2712 C374 1.356 . S
