# Generated by pormake.
# Topology vby, (6)-cn, num edge types: 1
# Building blocks:
#     Node 0, Type 0, BuildingBlock: FUNLAD_clean_sbu_0, # of connection points: 6
#     Node 1, Type 0, BuildingBlock: FUNLAD_clean_sbu_0, # of connection points: 6
#     Node 2, Type 0, BuildingBlock: FUNLAD_clean_sbu_0, # of connection points: 6
#     Node 3, Type 0, BuildingBlock: FUNLAD_clean_sbu_0, # of connection points: 6
#     Node 4, Type 0, BuildingBlock: FUNLAD_clean_sbu_0, # of connection points: 6
#     Node 5, Type 0, BuildingBlock: FUNLAD_clean_sbu_0, # of connection points: 6
#     Node 6, Type 0, BuildingBlock: FUNLAD_clean_sbu_0, # of connection points: 6
#     Node 7, Type 0, BuildingBlock: FUNLAD_clean_sbu_0, # of connection points: 6
#     Edge 8, Type (0, 0), BuildingBlock: TEMPAE_clean_linker_10, # of connection points: 2
#     Edge 9, Type (0, 0), BuildingBlock: TEMPAE_clean_linker_10, # of connection points: 2
#     Edge 10, Type (0, 0), BuildingBlock: TEMPAE_clean_linker_10, # of connection points: 2
#     Edge 11, Type (0, 0), BuildingBlock: TEMPAE_clean_linker_10, # of connection points: 2
#     Edge 12, Type (0, 0), BuildingBlock: TEMPAE_clean_linker_10, # of connection points: 2
#     Edge 13, Type (0, 0), BuildingBlock: TEMPAE_clean_linker_10, # of connection points: 2
#     Edge 14, Type (0, 0), BuildingBlock: TEMPAE_clean_linker_10, # of connection points: 2
#     Edge 15, Type (0, 0), BuildingBlock: TEMPAE_clean_linker_10, # of connection points: 2
#     Edge 16, Type (0, 0), BuildingBlock: TEMPAE_clean_linker_10, # of connection points: 2
#     Edge 17, Type (0, 0), BuildingBlock: TEMPAE_clean_linker_10, # of connection points: 2
#     Edge 18, Type (0, 0), BuildingBlock: TEMPAE_clean_linker_10, # of connection points: 2
#     Edge 19, Type (0, 0), BuildingBlock: TEMPAE_clean_linker_10, # of connection points: 2
#     Edge 20, Type (0, 0), BuildingBlock: TEMPAE_clean_linker_10, # of connection points: 2
#     Edge 21, Type (0, 0), BuildingBlock: TEMPAE_clean_linker_10, # of connection points: 2
#     Edge 22, Type (0, 0), BuildingBlock: TEMPAE_clean_linker_10, # of connection points: 2
#     Edge 23, Type (0, 0), BuildingBlock: TEMPAE_clean_linker_10, # of connection points: 2
#     Edge 24, Type (0, 0), BuildingBlock: TEMPAE_clean_linker_10, # of connection points: 2
#     Edge 25, Type (0, 0), BuildingBlock: TEMPAE_clean_linker_10, # of connection points: 2
#     Edge 26, Type (0, 0), BuildingBlock: TEMPAE_clean_linker_10, # of connection points: 2
#     Edge 27, Type (0, 0), BuildingBlock: TEMPAE_clean_linker_10, # of connection points: 2
#     Edge 28, Type (0, 0), BuildingBlock: TEMPAE_clean_linker_10, # of connection points: 2
#     Edge 29, Type (0, 0), BuildingBlock: TEMPAE_clean_linker_10, # of connection points: 2
#     Edge 30, Type (0, 0), BuildingBlock: TEMPAE_clean_linker_10, # of connection points: 2
#     Edge 31, Type (0, 0), BuildingBlock: TEMPAE_clean_linker_10, # of connection points: 2
# Relax obj value: 0.049
# Max RMSD: 0.111
# Mean RMSD: 0.106
data_MOF--net-vby--node1-FUNLAD_clean_sbu_0--edge1-TEMPAE_clean_linker_10
_symmetry_space_group_name_H-M    P1
_symmetry_Int_Tables_number       1
_symmetry_cell_setting            triclinic
loop_
_symmetry_equiv_pos_as_xyz
'x, y, z'
_cell_length_a     15.464363
_cell_length_b     59.090549
_cell_length_c     43.765385
_cell_angle_alpha  88.363292
_cell_angle_beta   90.424017
_cell_angle_gamma 89.976505
loop_
_atom_site_label
_atom_site_type_symbol
_atom_site_fract_x
_atom_site_fract_y
_atom_site_fract_z
_atom_type_partial_charge
C0 C -0.00247 0.41164 0.02112 0.0
N1 N 0.02195 0.36726 0.09659 0.0
C2 C 0.06554 0.38368 0.11148 0.0
C3 C 0.06092 0.38487 0.14329 0.0
C4 C 0.01026 0.36913 0.15993 0.0
C5 C 0.96659 0.35228 0.14386 0.0
C6 C -0.02619 0.35157 0.11216 0.0
Zn7 Zn 0.02323 0.36642 0.04992 0.0
C8 C 0.84654 0.35987 0.02479 0.0
N9 N 0.02044 0.36356 0.95272 0.0
C10 C 0.06804 0.37833 0.93535 0.0
C11 C 0.96726 0.34821 0.9396 0.0
C12 C 0.95894 0.34762 0.90788 0.0
C13 C 0.00608 0.36289 0.88937 0.0
C14 C 0.06205 0.37823 0.90345 0.0
Zn15 Zn 0.02279 0.36472 0.99941 0.0
O16 O -0.00497 0.4012 0.04686 0.0
C17 C 0.19891 0.37067 0.02449 0.0
O18 O 0.01201 0.40072 0.99706 0.0
H19 H 0.93023 0.33656 0.95379 0.0
H20 H 0.10336 0.39601 0.09865 0.0
H21 H 0.10968 0.39044 0.94626 0.0
O22 O 0.15786 0.37314 0.04923 0.0
O23 O 0.15812 0.36682 0.99988 0.0
H24 H 0.93967 0.33864 0.09991 0.0
O25 O 0.03694 0.32896 1.00261 0.0
O26 O 0.05454 0.33179 0.05221 0.0
O27 O 0.88697 0.36235 0.9998 0.0
O28 O 0.88855 0.35953 0.04983 0.0
C29 C 0.05665 0.31997 0.02845 0.0
H30 H 0.09684 0.39795 0.15467 0.0
H31 H 0.92564 0.34 0.15552 0.0
H32 H 0.91602 0.33531 0.89793 0.0
H33 H 0.09908 0.39039 0.88998 0.0
C34 C 0.93373 0.58082 0.02577 0.0
N35 N 0.9198 0.6236 0.10033 0.0
C36 C 0.87518 0.60747 0.11648 0.0
C37 C 0.88117 0.60625 0.14841 0.0
C38 C 0.93439 0.62159 0.16368 0.0
C39 C -0.02105 0.63814 0.14644 0.0
C40 C -0.02966 0.63892 0.11471 0.0
Zn41 Zn 0.91566 0.62527 0.05357 0.0
C42 C 0.09089 0.63128 0.02777 0.0
N43 N 0.91241 0.63069 0.95626 0.0
C44 C 0.86247 0.61618 0.94024 0.0
C45 C 0.96653 0.64556 0.94177 0.0
C46 C -0.0262 0.64578 0.91 0.0
C47 C 0.92467 0.63059 0.89287 0.0
C48 C 0.86746 0.61588 0.90839 0.0
Zn49 Zn 0.91325 0.62879 1.00296 0.0
O50 O 0.93848 0.59011 0.05156 0.0
C51 C 0.73834 0.62304 0.02858 0.0
O52 O 0.92029 0.59294 1.00174 0.0
H53 H 0.0059 0.6569 0.95495 0.0
H54 H 0.83552 0.59543 0.10459 0.0
H55 H 0.81991 0.60449 0.95221 0.0
O56 O 0.78039 0.61978 0.05339 0.0
O57 O 0.77824 0.62741 1.00385 0.0
H58 H 0.00465 0.65175 0.10152 0.0
O59 O 0.90324 0.66457 1.00497 0.0
O60 O 0.89069 0.66029 0.05471 0.0
O61 O 0.04907 0.63016 1.00282 0.0
O62 O 0.05055 0.63086 0.0529 0.0
C63 C 0.88814 0.673 0.03081 0.0
H64 H 0.84603 0.59319 0.16097 0.0
H65 H 0.01962 0.65048 0.15741 0.0
H66 H 0.01947 0.65724 0.89908 0.0
H67 H 0.82735 0.60414 0.8961 0.0
C68 C 0.0007 0.58055 0.53003 0.0
N69 N 0.01715 0.62745 0.45658 0.0
C70 C 0.06295 0.61161 0.44157 0.0
C71 C 0.0577 0.61055 0.40976 0.0
C72 C 0.00421 0.62582 0.39318 0.0
C73 C 0.95865 0.64218 0.40932 0.0
C74 C 0.9664 0.64276 0.44108 0.0
Zn75 Zn 0.01894 0.62743 0.50332 0.0
C76 C 0.84433 0.63129 0.52853 0.0
N77 N 0.02006 0.62632 0.6009 0.0
C78 C 0.06729 0.61131 0.6183 0.0
C79 C 0.96674 0.64155 0.61395 0.0
C80 C 0.9579 0.6418 0.6456 0.0
C81 C 0.0046 0.62629 0.66414 0.0
C82 C 0.06073 0.61106 0.65018 0.0
Zn83 Zn 0.02279 0.62615 0.5542 0.0
O84 O -0.00254 0.59191 0.50493 0.0
C85 C 0.19699 0.62254 0.52925 0.0
O86 O 0.01308 0.59063 0.55492 0.0
H87 H 0.93005 0.6534 0.59974 0.0
H88 H 0.10282 0.59957 0.45433 0.0
H89 H 0.10913 0.59932 0.60743 0.0
O90 O 0.15485 0.62229 0.50419 0.0
O91 O 0.15727 0.62406 0.55439 0.0
H92 H 0.93043 0.65521 0.45343 0.0
O93 O 0.03711 0.66155 0.55281 0.0
O94 O 0.04196 0.66282 0.50262 0.0
O95 O 0.88663 0.6283 0.55326 0.0
O96 O 0.88414 0.63268 0.50333 0.0
C97 C 0.04863 0.6727 0.52794 0.0
H98 H 0.09518 0.59789 0.39831 0.0
H99 H 0.91569 0.65411 0.39767 0.0
H100 H 0.91496 0.65405 0.65547 0.0
H101 H 0.09753 0.59875 0.6637 0.0
C102 C 0.88685 0.31969 0.52164 0.0
N103 N 0.92244 0.36869 0.45211 0.0
C104 C -0.02796 0.35329 0.43772 0.0
C105 C -0.0189 0.35445 0.40605 0.0
C106 C 0.93775 0.37141 0.38892 0.0
C107 C 0.8851 0.38675 0.40415 0.0
C108 C 0.87882 0.38518 0.43602 0.0
Zn109 Zn 0.91945 0.36701 0.49883 0.0
C110 C 0.74348 0.37004 0.52347 0.0
N111 N 0.91966 0.36149 0.59615 0.0
C112 C -0.02696 0.34633 0.61075 0.0
C113 C 0.87043 0.37607 0.6121 0.0
C114 C 0.87506 0.37605 0.644 0.0
C115 C 0.93121 0.36094 0.65968 0.0
C116 C -0.02002 0.3458 0.64259 0.0
Zn117 Zn 0.9195 0.36339 0.54939 0.0
O118 O 0.88931 0.33238 0.49776 0.0
C119 C 0.09601 0.35969 0.52478 0.0
O120 O 0.90616 0.32772 0.54744 0.0
H121 H 0.82844 0.38799 0.60004 0.0
H122 H 0.00556 0.34019 0.45086 0.0
H123 H 0.01183 0.33493 0.59764 0.0
O124 O 0.05416 0.36036 0.49972 0.0
O125 O 0.05546 0.36115 0.54974 0.0
H126 H 0.84002 0.39729 0.44793 0.0
O127 O 0.92923 0.39928 0.55048 0.0
O128 O 0.94625 0.4018 0.50068 0.0
O129 O 0.78415 0.36536 0.54817 0.0
O130 O 0.78466 0.37347 0.49874 0.0
C131 C 0.94295 0.41121 0.52636 0.0
H132 H 0.02135 0.34213 0.39504 0.0
H133 H 0.85089 0.4001 0.39163 0.0
H134 H 0.83525 0.38779 0.65623 0.0
H135 H 0.02492 0.33405 0.6536 0.0
C136 C 0.50064 0.91197 0.02515 0.0
N137 N 0.52721 0.868 0.10147 0.0
C138 C 0.54605 0.88748 0.11599 0.0
C139 C 0.53586 0.88876 0.14761 0.0
C140 C 0.50837 0.86961 0.16481 0.0
C141 C 0.49301 0.84948 0.1492 0.0
C142 C 0.5012 0.84918 0.1175 0.0
Zn143 Zn 0.52919 0.86708 0.05454 0.0
C144 C 0.35273 0.8597 0.02976 0.0
N145 N 0.52639 0.86388 0.95759 0.0
C146 C 0.57438 0.87868 0.94044 0.0
C147 C 0.47241 0.84883 0.94428 0.0
C148 C 0.46355 0.84861 0.91255 0.0
C149 C 0.51106 0.86395 0.89421 0.0
C150 C 0.56782 0.87897 0.90856 0.0
Zn151 Zn 0.52865 0.86498 1.00421 0.0
O152 O 0.49634 0.90172 0.05098 0.0
C153 C 0.70463 0.87174 0.02932 0.0
O154 O 0.51786 0.90087 1.0015 0.0
H155 H 0.43464 0.83725 0.95833 0.0
H156 H 0.56702 0.90229 0.10302 0.0
H157 H 0.61686 0.89051 0.95151 0.0
O158 O 0.66322 0.87487 0.05386 0.0
O159 O 0.66409 0.86711 1.00492 0.0
H160 H 0.48524 0.83391 0.10571 0.0
O161 O 0.5427 0.82926 1.00727 0.0
O162 O 0.56533 0.83261 0.0565 0.0
O163 O 0.39279 0.8626 1.00475 0.0
O164 O 0.3952 0.85907 0.05473 0.0
C165 C 0.56566 0.82058 0.03294 0.0
H166 H 0.54739 0.90482 0.15816 0.0
H167 H 0.47417 0.83401 0.16118 0.0
H168 H 0.41812 0.83694 0.90259 0.0
H169 H 0.60662 0.89088 0.89532 0.0
C170 C 0.43287 0.08118 0.02312 0.0
N171 N 0.41651 0.12468 0.09697 0.0
C172 C 0.36937 0.10911 0.11316 0.0
C173 C 0.37399 0.10816 0.14512 0.0
C174 C 0.42788 0.12334 0.1605 0.0
C175 C 0.4756 0.13921 0.14308 0.0
C176 C 0.46864 0.13965 0.11131 0.0
Zn177 Zn 0.41352 0.12609 0.05023 0.0
C178 C 0.58906 0.1318 0.02501 0.0
N179 N 0.41269 0.13057 0.95256 0.0
C180 C 0.36676 0.11551 0.93599 0.0
C181 C 0.46449 0.1463 0.93866 0.0
C182 C 0.4738 0.14685 0.90697 0.0
C183 C 0.42881 0.13119 0.88935 0.0
C184 C 0.37358 0.1156 0.90415 0.0
Zn185 Zn 0.41146 0.12872 0.99927 0.0
O186 O 0.42896 0.09067 0.04876 0.0
C187 C 0.23631 0.12308 0.02476 0.0
O188 O 0.42738 0.09306 0.9985 0.0
H189 H 0.50015 0.15819 0.95223 0.0
H190 H 0.32831 0.09738 0.10129 0.0
H191 H 0.3263 0.10307 0.94752 0.0
O192 O 0.27827 0.12302 0.04983 0.0
O193 O 0.27612 0.12455 0.99948 0.0
H194 H 0.50567 0.15188 0.09805 0.0
O195 O 0.3924 0.16423 1.00088 0.0
O196 O 0.39583 0.16144 0.051 0.0
O197 O 0.54759 0.13287 0.99988 0.0
O198 O 0.54852 0.12917 0.04991 0.0
C199 C 0.38525 0.17339 0.02667 0.0
H200 H 0.33526 0.09582 0.15761 0.0
H201 H 0.51911 0.15098 0.15383 0.0
H202 H 0.51614 0.15933 0.89636 0.0
H203 H 0.3382 0.10316 0.89134 0.0
C204 C 0.50319 0.08201 0.52805 0.0
N205 N 0.52041 0.12709 0.45292 0.0
C206 C 0.56688 0.11137 0.4379 0.0
C207 C 0.55975 0.10991 0.40615 0.0
C208 C 0.50363 0.12462 0.38985 0.0
C209 C 0.45774 0.14092 0.40589 0.0
C210 C 0.46739 0.14192 0.43753 0.0
Zn211 Zn 0.52353 0.12782 0.49959 0.0
C212 C 0.34801 0.13278 0.5247 0.0
N213 N 0.52474 0.12957 0.5972 0.0
C214 C 0.57139 0.1144 0.61451 0.0
C215 C 0.47378 0.14527 0.61037 0.0
C216 C 0.46684 0.14585 0.64208 0.0
C217 C 0.51338 0.13025 0.66062 0.0
C218 C 0.56686 0.11448 0.64641 0.0
Zn219 Zn 0.52555 0.12858 0.55054 0.0
O220 O 0.50712 0.09247 0.50234 0.0
C221 C 0.70076 0.12369 0.52517 0.0
O222 O 0.50941 0.09292 0.55259 0.0
H223 H 0.43715 0.15718 0.59621 0.0
H224 H 0.60833 0.09968 0.45061 0.0
H225 H 0.61154 0.10206 0.60357 0.0
O226 O 0.65876 0.1245 0.5001 0.0
O227 O 0.66093 0.12435 0.55043 0.0
H228 H 0.43132 0.15434 0.44988 0.0
O229 O 0.54471 0.16408 0.54763 0.0
O230 O 0.54191 0.16315 0.49751 0.0
O231 O 0.38941 0.1328 0.54984 0.0
O232 O 0.38856 0.13113 0.4998 0.0
C233 C 0.55227 0.17418 0.52176 0.0
H234 H 0.59592 0.09705 0.39458 0.0
H235 H 0.41477 0.15277 0.39409 0.0
H236 H 0.42377 0.15809 0.6519 0.0
H237 H 0.60489 0.10234 0.65975 0.0
C238 C 0.36164 0.82157 0.53092 0.0
N239 N 0.39756 0.86821 0.45751 0.0
C240 C 0.43003 0.84996 0.44318 0.0
C241 C 0.43808 0.8502 0.41146 0.0
C242 C 0.41592 0.86975 0.39402 0.0
C243 C 0.38194 0.88831 0.40948 0.0
C244 C 0.37216 0.88705 0.44122 0.0
Zn245 Zn 0.39578 0.8675 0.50457 0.0
C246 C 0.2187 0.87294 0.52964 0.0
N247 N 0.3969 0.8661 0.60236 0.0
C248 C 0.44794 0.85018 0.61654 0.0
C249 C 0.35297 0.8816 0.61865 0.0
C250 C 0.36104 0.88173 0.6505 0.0
C251 C 0.41552 0.86592 0.66555 0.0
C252 C 0.45849 0.84985 0.64821 0.0
Zn253 Zn 0.3937 0.86713 0.55565 0.0
O254 O 0.37476 0.83193 0.50556 0.0
C255 C 0.57103 0.86166 0.53 0.0
O256 O 0.36879 0.83215 0.55565 0.0
H257 H 0.31302 0.89416 0.60689 0.0
H258 H 0.45135 0.83522 0.45631 0.0
H259 H 0.4819 0.83793 0.6032 0.0
O260 O 0.52991 0.86345 0.50488 0.0
O261 O 0.5302 0.86181 0.55507 0.0
H262 H 0.34617 0.90141 0.45285 0.0
O263 O 0.41426 0.9023 0.55533 0.0
O264 O 0.41555 0.9031 0.5051 0.0
O265 O 0.25898 0.87247 0.55508 0.0
O266 O 0.26032 0.87159 0.50478 0.0
C267 C 0.4209 0.91335 0.53018 0.0
H268 H 0.46215 0.83513 0.40091 0.0
H269 H 0.36494 0.90395 0.39745 0.0
H270 H 0.32715 0.89447 0.66311 0.0
H271 H 0.50012 0.83719 0.65903 0.0
C272 C 0.332 0.34978 1.01258 0.0
C273 C 0.2933 0.36878 0.02511 0.0
C274 C 0.42175 0.3468 0.01385 0.0
C275 C 0.47386 0.36371 0.02694 0.0
C276 C 0.43477 0.38297 0.03965 0.0
C277 C 0.34435 0.38505 0.03912 0.0
C278 C 0.46063 0.32561 1.00115 0.0
C279 C 0.4885 0.40156 0.0532 0.0
C280 C 0.70606 0.35099 0.05036 0.0
C281 C 0.7512 0.35934 0.02477 0.0
C282 C 0.61539 0.35179 0.05114 0.0
C283 C 0.56941 0.36172 0.02608 0.0
C284 C 0.61472 0.37001 1.00012 0.0
C285 C 0.70506 0.36847 0.99964 0.0
C286 C 0.56888 0.34219 0.07881 0.0
C287 C 0.56793 0.38101 0.97315 0.0
H288 H 0.29166 0.33696 1.00238 0.0
H289 H 0.31363 0.39962 0.04897 0.0
H290 H 0.50069 0.33008 0.98094 0.0
H291 H 0.50376 0.31727 0.01843 0.0
H292 H 0.41047 0.31327 0.99421 0.0
H293 H 0.44804 0.41538 0.06217 0.0
H294 H 0.52961 0.39457 0.07208 0.0
H295 H 0.53243 0.40885 0.03557 0.0
H296 H 0.74164 0.34383 0.06977 0.0
H297 H 0.73976 0.37512 0.97991 0.0
H298 H 0.51988 0.32963 0.07172 0.0
H299 H 0.53393 0.35589 0.09036 0.0
H300 H 0.61385 0.33388 0.09557 0.0
H301 H 0.52143 0.36891 0.96324 0.0
H302 H 0.61293 0.38686 0.9549 0.0
H303 H 0.53015 0.39577 0.98078 0.0
C304 C 0.22977 0.61935 1.00533 0.0
C305 C 0.18578 0.63123 0.02767 0.0
C306 C 0.32001 0.61761 1.00606 0.0
C307 C 0.36712 0.62867 0.02911 0.0
C308 C 0.32304 0.64117 0.05131 0.0
C309 C 0.23244 0.64196 0.05064 0.0
C310 C 0.36481 0.60366 0.9825 0.0
C311 C 0.37153 0.65379 0.07557 0.0
C312 C 0.59578 0.60913 0.04733 0.0
C313 C 0.6437 0.62406 0.02879 0.0
C314 C 0.5052 0.6103 0.04752 0.0
C315 C 0.46269 0.62736 0.02963 0.0
C316 C 0.51136 0.64287 1.01155 0.0
C317 C 0.6014 0.64076 1.01094 0.0
C318 C 0.45499 0.59311 0.0664 0.0
C319 C 0.46847 0.66174 0.993 0.0
H320 H 0.19335 0.61079 0.98782 0.0
H321 H 0.19806 0.65118 0.06785 0.0
H322 H 0.40887 0.61452 0.96861 0.0
H323 H 0.40498 0.59035 0.99405 0.0
H324 H 0.31833 0.5954 0.96688 0.0
H325 H 0.32755 0.66336 0.09047 0.0
H326 H 0.40985 0.64175 0.0901 0.0
H327 H 0.41779 0.66584 0.06469 0.0
H328 H 0.62907 0.59627 0.06113 0.0
H329 H 0.63906 0.65256 0.99704 0.0
H330 H 0.41012 0.58373 0.05143 0.0
H331 H 0.41505 0.60177 0.08346 0.0
H332 H 0.49791 0.58073 0.07863 0.0
H333 H 0.42643 0.65455 0.97509 0.0
H334 H 0.51621 0.67324 0.98178 0.0
H335 H 0.42655 0.67188 1.00789 0.0
C336 C 0.702 0.64396 0.50721 0.0
C337 C 0.74943 0.63121 0.52894 0.0
C338 C 0.61135 0.64325 0.50692 0.0
C339 C 0.56803 0.6288 0.52813 0.0
C340 C 0.61595 0.61572 0.54991 0.0
C341 C 0.70621 0.61739 0.55038 0.0
C342 C 0.56201 0.65801 0.48408 0.0
C343 C 0.57201 0.59967 0.57234 0.0
C344 C 0.33391 0.63871 0.54817 0.0
C345 C 0.29158 0.62363 0.52903 0.0
C346 C 0.42387 0.64108 0.5474 0.0
C347 C 0.47245 0.6274 0.52782 0.0
C348 C 0.42987 0.61194 0.50864 0.0
C349 C 0.33935 0.61057 0.50904 0.0
C350 C 0.46675 0.6583 0.56738 0.0
C351 C 0.47994 0.59665 0.4881 0.0
H352 H 0.73581 0.65468 0.49071 0.0
H353 H 0.74323 0.6073 0.56692 0.0
H354 H 0.52358 0.64733 0.4686 0.0
H355 H 0.51578 0.66893 0.49618 0.0
H356 H 0.60543 0.66899 0.47001 0.0
H357 H 0.61904 0.59009 0.58703 0.0
H358 H 0.52822 0.60919 0.58727 0.0
H359 H 0.53169 0.5874 0.55983 0.0
H360 H 0.2963 0.64912 0.56318 0.0
H361 H 0.30597 0.59899 0.49423 0.0
H362 H 0.50794 0.66982 0.55329 0.0
H363 H 0.50951 0.64961 0.58446 0.0
H364 H 0.41899 0.66863 0.57972 0.0
H365 H 0.51898 0.60692 0.47171 0.0
H366 H 0.437 0.58533 0.475 0.0
H367 H 0.52564 0.58607 0.50199 0.0
C368 C 0.5979 0.38489 0.50869 0.0
C369 C 0.64912 0.36814 0.5229 0.0
C370 C 0.50745 0.38291 0.50853 0.0
C371 C 0.46852 0.3633 0.52184 0.0
C372 C 0.52079 0.34594 0.53512 0.0
C373 C 0.61058 0.34879 0.53599 0.0
C374 C 0.45354 0.40196 0.49474 0.0
C375 C 0.48204 0.32441 0.54846 0.0
C376 C 0.23784 0.3674 0.5496 0.0
C377 C 0.1913 0.35906 0.52474 0.0
C378 C 0.3282 0.3689 0.54889 0.0
C379 C 0.37301 0.36135 0.523 0.0
C380 C 0.32658 0.35219 0.49826 0.0
C381 C 0.23597 0.35142 0.49926 0.0
C382 C 0.37553 0.37907 0.57551 0.0
C383 C 0.37255 0.34337 0.4707 0.0
H384 H 0.62849 0.39974 0.49845 0.0
H385 H 0.65104 0.33564 0.54638 0.0
H386 H 0.41186 0.39556 0.47615 0.0
H387 H 0.41017 0.40877 0.51236 0.0
H388 H 0.49389 0.41602 0.48531 0.0
H389 H 0.53225 0.31182 0.55554 0.0
H390 H 0.44253 0.32833 0.56869 0.0
H391 H 0.4384 0.3166 0.53151 0.0
H392 H 0.20344 0.3735 0.56923 0.0
H393 H 0.20005 0.34486 0.48007 0.0
H394 H 0.41316 0.39405 0.56746 0.0
H395 H 0.42223 0.36665 0.58556 0.0
H396 H 0.3309 0.38438 0.59375 0.0
H397 H 0.40735 0.3574 0.45874 0.0
H398 H 0.32725 0.33558 0.45423 0.0
H399 H 0.42162 0.33057 0.47797 0.0
C400 C 0.83748 0.85047 0.0181 0.0
C401 C 0.79912 0.86971 0.03015 0.0
C402 C 0.92716 0.84732 0.01952 0.0
C403 C -0.02027 0.86428 0.03227 0.0
C404 C 0.94104 0.88378 0.04452 0.0
C405 C 0.85061 0.88604 0.04386 0.0
C406 C 0.96548 0.8259 1.0073 0.0
C407 C -0.00478 0.90242 0.0577 0.0
C408 C 0.21203 0.85127 0.05565 0.0
C409 C 0.25723 0.85925 0.02987 0.0
C410 C 0.12135 0.85233 0.05655 0.0
C411 C 0.07535 0.86212 0.03139 0.0
C412 C 0.12069 0.87002 1.00523 0.0
C413 C 0.21099 0.86825 1.00465 0.0
C414 C 0.07484 0.84315 0.08447 0.0
C415 C 0.07398 0.88083 0.9781 0.0
H416 H 0.7969 0.83759 1.00815 0.0
H417 H 0.82027 0.9008 0.05334 0.0
H418 H 0.00551 0.83005 0.98698 0.0
H419 H 0.00852 0.8177 0.02473 0.0
H420 H 0.915 0.81355 1.00068 0.0
H421 H 0.9551 0.91639 0.06644 0.0
H422 H 0.03634 0.89556 0.07665 0.0
H423 H 0.03916 0.90949 0.0399 0.0
H424 H 0.24757 0.84424 0.07515 0.0
H425 H 0.24561 0.87462 0.98475 0.0
H426 H 0.02544 0.83059 0.07771 0.0
H427 H 0.04034 0.85706 0.09574 0.0
H428 H 0.11973 0.83496 0.10136 0.0
H429 H 0.02711 0.86869 0.96847 0.0
H430 H 0.11899 0.88641 0.95971 0.0
H431 H 0.03662 0.89573 0.98548 0.0
C432 C 0.09325 0.1119 1.00375 0.0
C433 C 0.14167 0.12382 0.02507 0.0
C434 C 0.00271 0.11318 1.00348 0.0
C435 C 0.96069 0.12744 0.0242 0.0
C436 C 0.00984 0.1399 0.0453 0.0
C437 C 0.0999 0.1376 0.04586 0.0
C438 C 0.95207 0.0991 0.98134 0.0
C439 C 0.96746 0.15586 0.06703 0.0
C440 C 0.73068 0.1452 1.00472 0.0
C441 C 0.68385 0.13145 0.0252 0.0
C442 C 0.82134 0.14443 1.00453 0.0
C443 C 0.86511 0.12887 0.02443 0.0
C444 C 0.81765 0.11471 0.04479 0.0
C445 C 0.72747 0.11649 0.04532 0.0
C446 C 0.87023 0.16035 0.98332 0.0
C447 C 0.86196 0.09742 0.06564 0.0
H448 H 0.12619 0.10131 0.98768 0.0
H449 H 0.13802 0.14714 0.06193 0.0
H450 H 0.90631 0.08792 0.99405 0.0
H451 H 0.91306 0.11024 0.96577 0.0
H452 H -0.00537 0.08843 0.96732 0.0
H453 H 0.01551 0.16532 0.08068 0.0
H454 H 0.9263 0.16823 0.05406 0.0
H455 H 0.92473 0.14625 0.08296 0.0
H456 H 0.69641 0.15679 0.98924 0.0
H457 H 0.69072 0.10563 0.06083 0.0
H458 H 0.90844 0.15056 0.96691 0.0
H459 H 0.91662 0.17056 0.99663 0.0
H460 H 0.82651 0.17204 0.97021 0.0
H461 H 0.90217 0.08595 0.05198 0.0
H462 H 0.81516 0.08704 0.07913 0.0
H463 H 0.90591 0.10601 0.08173 0.0
C464 C 0.21006 0.11748 0.50531 0.0
C465 C 0.25327 0.13234 0.52452 0.0
C466 C 0.11991 0.11557 0.50594 0.0
C467 C 0.07207 0.12952 0.52541 0.0
C468 C 0.11547 0.14496 0.54437 0.0
C469 C 0.20612 0.14584 0.54417 0.0
C470 C 0.07605 0.09839 0.48616 0.0
C471 C 0.06618 0.16067 0.56457 0.0
C472 C 0.83733 0.13835 0.50322 0.0
C473 C 0.79547 0.1244 0.52483 0.0
C474 C 0.92739 0.14066 0.50369 0.0
C475 C -0.02351 0.12803 0.52561 0.0
C476 C 0.93442 0.11358 0.54718 0.0
C477 C 0.84388 0.11228 0.54691 0.0
C478 C -0.03019 0.1568 0.48101 0.0
C479 C -0.01499 0.09933 0.57026 0.0
H480 H 0.24712 0.10681 0.49047 0.0
H481 H 0.24013 0.15732 0.55896 0.0
H482 H 0.03585 0.0868 0.50051 0.0
H483 H 0.03216 0.10707 0.46944 0.0
H484 H 0.12314 0.08813 0.47341 0.0
H485 H 0.10962 0.17227 0.57702 0.0
H486 H 0.01978 0.17097 0.55058 0.0
H487 H 0.02795 0.1507 0.58154 0.0
H488 H 0.79929 0.14804 0.48653 0.0
H489 H 0.81093 0.10155 0.56362 0.0
H490 H 0.01289 0.14734 0.46576 0.0
H491 H 0.01062 0.16911 0.49325 0.0
H492 H 0.9218 0.16632 0.46666 0.0
H493 H 0.03108 0.08829 0.55829 0.0
H494 H 0.94244 0.08851 0.58487 0.0
H495 H 0.02367 0.11037 0.5852 0.0
C496 C 0.7073 0.87794 0.51012 0.0
C497 C 0.66586 0.86246 0.52989 0.0
C498 C 0.79733 0.88027 0.51063 0.0
C499 C 0.84709 0.86613 0.53059 0.0
C500 C 0.80553 0.8501 0.55021 0.0
C501 C 0.71484 0.8488 0.5501 0.0
C502 C 0.83904 0.89808 0.49015 0.0
C503 C 0.85684 0.8342 0.57099 0.0
C504 C 0.08118 0.85865 0.50816 0.0
C505 C 0.12376 0.87229 0.52914 0.0
C506 C -0.00878 0.85603 0.50893 0.0
C507 C 0.94273 0.86799 0.53051 0.0
C508 C -0.01459 0.88218 0.55137 0.0
C509 C 0.07591 0.88382 0.55082 0.0
C510 C 0.94828 0.84019 0.48697 0.0
C511 C 0.9355 0.89576 0.57403 0.0
H512 H 0.66888 0.88876 0.49487 0.0
H513 H 0.68226 0.83687 0.56537 0.0
H514 H 0.87952 0.90949 0.504 0.0
H515 H 0.88233 0.88994 0.47361 0.0
H516 H 0.79062 0.90847 0.47716 0.0
H517 H 0.81476 0.82217 0.58397 0.0
H518 H 0.90312 0.82437 0.55734 0.0
H519 H 0.89536 0.84399 0.58749 0.0
H520 H 0.11863 0.84938 0.4918 0.0
H521 H 0.10927 0.89429 0.56708 0.0
H522 H 0.90327 0.84979 0.47159 0.0
H523 H 0.90941 0.82738 0.49982 0.0
H524 H -0.00413 0.83126 0.47272 0.0
H525 H 0.88782 0.90681 0.56177 0.0
H526 H -0.02165 0.9065 0.58804 0.0
H527 H 0.89868 0.88425 0.58958 0.0
C528 C -0.00083 0.54425 0.04371 0.0
C529 C 0.94333 0.55613 0.02368 0.0
C530 C 0.00936 0.52074 0.04183 0.0
C531 C 0.96011 0.50881 0.02014 0.0
C532 C 0.90297 0.52075 1.00004 0.0
C533 C 0.89642 0.54437 1.0017 0.0
C534 C 0.07286 0.50869 0.06303 0.0
C535 C 0.84731 0.50854 0.97731 0.0
C536 C 0.03258 0.44986 0.99901 0.0
C537 C -0.01522 0.43633 0.01951 0.0
C538 C 0.02539 0.47355 0.99896 0.0
C539 C 0.96673 0.48376 0.01913 0.0
C540 C 0.91598 0.47003 0.03905 0.0
C541 C 0.92682 0.44647 0.03939 0.0
C542 C 0.08244 0.48766 0.97806 0.0
C543 C 0.8507 0.48022 0.06017 0.0
H544 H 0.03605 0.55342 0.0605 0.0
H545 H 0.85278 0.5536 0.98635 0.0
H546 H 0.038 0.49672 0.07854 0.0
H547 H 0.11887 0.4986 0.04962 0.0
H548 H 0.11026 0.52063 0.07715 0.0
H549 H 0.80584 0.52033 0.96344 0.0
H550 H 0.88845 0.49888 0.96163 0.0
H551 H 0.80516 0.49614 0.98955 0.0
H552 H 0.07793 0.44195 0.98383 0.0
H553 H 0.88937 0.43592 0.05506 0.0
H554 H 0.12429 0.49877 0.99186 0.0
H555 H 0.04238 0.49884 0.96288 0.0
H556 H 0.12428 0.4771 0.96365 0.0
H557 H 0.88431 0.49062 0.07729 0.0
H558 H 0.81183 0.46711 0.0725 0.0
H559 H 0.80615 0.49161 0.047 0.0
C560 C 0.90492 0.44807 0.54889 0.0
C561 C 0.9533 0.43588 0.52802 0.0
C562 C 0.9109 0.47174 0.54962 0.0
C563 C -0.03099 0.48327 0.52976 0.0
C564 C 0.01982 0.47091 0.50924 0.0
C565 C 0.01011 0.44735 0.50823 0.0
C566 C 0.85374 0.48442 0.57112 0.0
C567 C 0.08454 0.48254 0.48845 0.0
C568 C 0.93604 0.54553 0.50934 0.0
C569 C -0.00848 0.55577 0.53023 0.0
C570 C 0.92647 0.52192 0.50944 0.0
C571 C -0.02394 0.50832 0.53018 0.0
C572 C 0.03309 0.51863 0.55106 0.0
C573 C 0.03895 0.54231 0.5512 0.0
C574 C 0.86298 0.51156 0.4875 0.0
C575 C 0.08907 0.50466 0.57283 0.0
H576 H 0.8604 0.43914 0.56399 0.0
H577 H 0.04796 0.43782 0.49226 0.0
H578 H 0.89388 0.4942 0.58716 0.0
H579 H 0.81299 0.49675 0.55792 0.0
H580 H 0.81083 0.47293 0.58463 0.0
H581 H 0.12249 0.47031 0.47514 0.0
H582 H 0.05069 0.49431 0.4722 0.0
H583 H 0.12998 0.49279 0.50209 0.0
H584 H 0.8989 0.55602 0.4933 0.0
H585 H 0.08243 0.5503 0.56718 0.0
H586 H 0.81658 0.5006 0.50026 0.0
H587 H 0.89771 0.50067 0.47141 0.0
H588 H 0.82604 0.52458 0.47403 0.0
H589 H 0.04804 0.49402 0.58815 0.0
H590 H 0.13149 0.51531 0.58711 0.0
H591 H 0.13027 0.49303 0.55977 0.0
C592 C 0.42751 0.947 0.04174 0.0
C593 C 0.48755 0.93662 0.02287 0.0
C594 C 0.41591 0.97054 0.04045 0.0
C595 C 0.46805 0.98402 0.02066 0.0
C596 C 0.52898 0.97357 1.00159 0.0
C597 C 0.53687 0.9499 1.00253 0.0
C598 C 0.34823 0.981 0.06037 0.0
C599 C 0.58764 0.98742 0.98094 0.0
C600 C 0.39889 0.04423 0.99989 0.0
C601 C 0.44328 0.05648 0.02197 0.0
C602 C 0.4056 0.02056 0.99935 0.0
C603 C 0.4606 0.00909 0.02068 0.0
C604 C 0.50746 0.02154 0.04248 0.0
C605 C 0.49687 0.04508 0.04324 0.0
C606 C 0.35236 0.0078 0.97647 0.0
C607 C 0.56892 0.01 0.06493 0.0
H608 H 0.38893 0.93664 0.05729 0.0
H609 H 0.58382 0.94181 0.98813 0.0
H610 H 0.37977 0.99179 0.07752 0.0
H611 H 0.30465 0.99205 0.04628 0.0
H612 H 0.30856 0.96802 0.07265 0.0
H613 H 0.6315 0.97667 0.96753 0.0
H614 H 0.54875 -0.00185 0.96481 0.0
H615 H 0.62748 -0.00105 0.99482 0.0
H616 H 0.35692 0.05312 0.98361 0.0
H617 H 0.53173 0.05467 0.06013 0.0
H618 H 0.30945 0.99555 0.98866 0.0
H619 H 0.39519 -0.0021 0.96164 0.0
H620 H 0.31186 0.01925 0.96174 0.0
H621 H 0.53266 -0.00168 0.08043 0.0
H622 H 0.60463 0.02229 0.07903 0.0
H623 H 0.61647 -0.00033 0.05254 0.0
C624 C 0.53793 0.04377 0.55003 0.0
C625 C 0.49078 0.05738 0.5292 0.0
C626 C 0.52914 0.02012 0.55034 0.0
C627 C 0.46921 0.0101 0.53017 0.0
C628 C 0.4198 0.02393 0.50965 0.0
C629 C 0.43254 0.04742 0.50899 0.0
C630 C 0.58501 0.00587 0.57179 0.0
C631 C 0.35302 0.01394 0.48859 0.0
C632 C 0.49028 0.94845 0.50936 0.0
C633 C 0.4338 0.93798 0.53021 0.0
C634 C 0.50432 0.97189 0.50966 0.0
C635 C 0.45798 0.98515 0.53048 0.0
C636 C 0.39975 0.97461 0.55124 0.0
C637 C 0.38967 0.95104 0.55125 0.0
C638 C 0.56914 0.98244 0.48791 0.0
C639 C 0.34693 0.98826 0.57302 0.0
H640 H 0.5835 0.05159 0.56544 0.0
H641 H 0.39567 0.05808 0.49307 0.0
H642 H 0.54392 0.99592 0.58789 0.0
H643 H 0.62296 0.99361 0.55859 0.0
H644 H 0.63049 0.01627 0.58525 0.0
H645 H 0.31685 0.02716 0.47522 0.0
H646 H 0.38473 0.00253 0.4724 0.0
H647 H 0.30618 0.0036 0.50205 0.0
H648 H 0.52493 0.9382 0.49332 0.0
H649 H 0.34552 0.94284 0.56721 0.0
H650 H 0.61759 0.99229 0.50081 0.0
H651 H 0.53603 0.99442 0.47174 0.0
H652 H 0.60357 0.96958 0.47452 0.0
H653 H 0.39022 -0.00239 0.58853 0.0
H654 H 0.30282 0.9775 0.58711 0.0
H655 H 0.30771 0.00103 0.55999 0.0
C656 C 0.1845 0.29741 0.04395 0.0
C657 C 0.10297 0.29826 0.02978 0.0
C658 C 0.23602 0.27796 0.04296 0.0
C659 C 0.20366 0.2586 0.02846 0.0
C660 C 0.12054 0.25926 0.01449 0.0
C661 C 0.07181 0.27935 0.0147 0.0
C662 C 0.32553 0.2783 0.05702 0.0
C663 C 0.08308 0.23873 0.99948 0.0
C664 C 0.35573 0.21201 1.00389 0.0
C665 C 0.34894 0.19642 0.02848 0.0
C666 C 0.31087 0.23271 1.00396 0.0
C667 C 0.25586 0.23747 0.02873 0.0
C668 C 0.24998 0.22191 0.0538 0.0
C669 C 0.29758 0.20175 0.05357 0.0
C670 C 0.32103 0.24927 0.97732 0.0
C671 C 0.19078 0.22615 0.08034 0.0
H672 H 0.20949 0.31235 0.05484 0.0
H673 H 0.00921 0.28024 1.00341 0.0
H674 H 0.32971 0.2657 0.07625 0.0
H675 H 0.37424 0.27348 0.03988 0.0
H676 H 0.34289 0.29521 0.0657 0.0
H677 H 0.01673 0.24185 0.9904 0.0
H678 H 0.12498 0.23364 0.9804 0.0
H679 H 0.08093 0.22426 0.0162 0.0
H680 H 0.3952 0.2079 0.98444 0.0
H681 H 0.2909 0.18958 0.07243 0.0
H682 H 0.33879 0.26622 0.98565 0.0
H683 H 0.25867 0.25112 0.96482 0.0
H684 H 0.37114 0.24378 0.96104 0.0
H685 H 0.20836 0.24226 0.0912 0.0
H686 H 0.19347 0.21229 0.09802 0.0
H687 H 0.12309 0.22787 0.07199 0.0
C688 C 0.58089 0.78014 0.01839 0.0
C689 C 0.61171 0.7988 0.0341 0.0
C690 C 0.62914 0.75998 0.01801 0.0
C691 C 0.71149 0.75898 0.03251 0.0
C692 C 0.74363 0.77811 0.04764 0.0
C693 C 0.69254 0.79763 0.04875 0.0
C694 C 0.59189 0.73971 1.0023 0.0
C695 C 0.83237 0.77808 0.06231 0.0
C696 C 0.80027 0.70154 0.05741 0.0
C697 C 0.85291 0.69618 0.03265 0.0
C698 C 0.75417 0.72194 0.05763 0.0
C699 C 0.76269 0.73768 0.03288 0.0
C700 C 0.81899 0.73289 1.00849 0.0
C701 C 0.86253 0.712 1.00844 0.0
C702 C 0.69373 0.72625 0.0838 0.0
C703 C 0.83185 0.74962 0.98221 0.0
H704 H 0.51885 0.78126 1.00674 0.0
H705 H 0.71737 0.81237 0.06014 0.0
H706 H 0.63493 0.73467 0.98352 0.0
H707 H 0.58793 0.7251 0.01875 0.0
H708 H 0.52634 0.74312 0.99268 0.0
H709 H 0.84997 0.79487 0.07129 0.0
H710 H 0.83493 0.76536 0.08142 0.0
H711 H 0.88182 0.77321 0.04546 0.0
H712 H 0.79158 0.68929 0.07604 0.0
H713 H 0.90306 0.7079 0.98925 0.0
H714 H 0.62663 0.72831 0.07498 0.0
H715 H 0.71163 0.7422 0.095 0.0
H716 H 0.6946 0.71227 0.10132 0.0
H717 H 0.7705 0.75178 0.96917 0.0
H718 H 0.88289 0.7441 0.96631 0.0
H719 H 0.84973 0.76645 0.99095 0.0
C720 C 0.15798 0.69823 0.54944 0.0
C721 C 0.08915 0.69516 0.52898 0.0
C722 C 0.20568 0.71835 0.54901 0.0
C723 C 0.1817 0.73618 0.52841 0.0
C724 C 0.11085 0.73335 0.5081 0.0
C725 C 0.06651 0.71258 0.50813 0.0
C726 C 0.28264 0.72034 0.57023 0.0
C727 C 0.08168 0.75229 0.48656 0.0
C728 C 0.25325 0.79456 0.55154 0.0
C729 C 0.32161 0.79899 0.5314 0.0
C730 C 0.20579 0.77444 0.5502 0.0
C731 C 0.22943 0.75797 0.52897 0.0
C732 C 0.29999 0.76209 0.50907 0.0
C733 C 0.34418 0.78285 0.51006 0.0
C734 C 0.12931 0.77102 0.57111 0.0
C735 C 0.32894 0.74457 0.48689 0.0
H736 H 0.17687 0.68447 0.56502 0.0
H737 H 0.01379 0.71001 0.49214 0.0
H738 H 0.34124 0.72487 0.55691 0.0
H739 H 0.27156 0.73408 0.5865 0.0
H740 H 0.29563 0.70439 0.58353 0.0
H741 H 0.02367 0.74763 0.473 0.0
H742 H 0.06643 0.76758 0.49968 0.0
H743 H 0.13448 0.75694 0.47057 0.0
H744 H 0.2344 0.80732 0.56754 0.0
H745 H 0.3966 0.78643 0.49433 0.0
H746 H 0.14067 0.75618 0.58672 0.0
H747 H 0.07041 0.76743 0.55744 0.0
H748 H 0.11671 0.78604 0.58513 0.0
H749 H 0.34415 0.72844 0.49941 0.0
H750 H 0.3869 0.75008 0.47381 0.0
H751 H 0.27602 0.74101 0.47049 0.0
C752 C 0.8694 0.27855 0.53554 0.0
C753 C 0.83957 0.29819 0.52035 0.0
C754 C 0.81988 0.2586 0.53544 0.0
C755 C 0.73738 0.25879 0.521 0.0
C756 C 0.70632 0.27888 0.50642 0.0
C757 C 0.75857 0.2982 0.50577 0.0
C758 C 0.85586 0.2373 0.55059 0.0
C759 C 0.61746 0.28009 0.49186 0.0
C760 C 0.64191 0.20339 0.49519 0.0
C761 C 0.58906 0.19721 0.51996 0.0
C762 C 0.69058 0.22338 0.4953 0.0
C763 C 0.68432 0.23786 0.52038 0.0
C764 C 0.62777 0.23227 0.54478 0.0
C765 C 0.58178 0.21178 0.54451 0.0
C766 C 0.75129 0.22854 0.46913 0.0
C767 C 0.61723 0.24771 0.5714 0.0
H768 H 0.9316 0.27876 0.54712 0.0
H769 H 0.73461 0.31368 0.49477 0.0
H770 H 0.8128 0.23148 0.56938 0.0
H771 H 0.85836 0.22357 0.53383 0.0
H772 H 0.92184 0.23984 0.5601 0.0
H773 H 0.60111 0.29743 0.48315 0.0
H774 H 0.6137 0.26835 0.47257 0.0
H775 H 0.56778 0.27466 0.5087 0.0
H776 H 0.64894 0.19199 0.47639 0.0
H777 H 0.54119 0.20698 0.56372 0.0
H778 H 0.81865 0.22964 0.4779 0.0
H779 H 0.73508 0.24519 0.45822 0.0
H780 H 0.74874 0.21547 0.4514 0.0
H781 H 0.67911 0.24878 0.58425 0.0
H782 H 0.56611 0.2417 0.58738 0.0
H783 H 0.60072 0.26509 0.56303 0.0
C784 C -0.0032 0.35052 0.21201 0.0
C785 C 0.0017 0.3704 0.19374 0.0
C786 C -0.0145 0.35139 0.24372 0.0
C787 C -0.01947 0.37265 0.25769 0.0
C788 C -0.01323 0.39279 0.23956 0.0
C789 C -0.00339 0.39143 0.20779 0.0
C790 C -0.02139 0.32952 0.26228 0.0
C791 C -0.01722 0.41577 0.25371 0.0
C792 C 0.876 0.37431 0.33593 0.0
C793 C 0.94841 0.37303 0.35533 0.0
C794 C 0.88548 0.37447 0.30404 0.0
C795 C -0.03057 0.37371 0.29135 0.0
C796 C 0.04281 0.37311 0.31089 0.0
C797 C 0.03136 0.3726 0.34266 0.0
C798 C 0.80567 0.37479 0.28395 0.0
C799 C 0.13337 0.3727 0.29824 0.0
H800 H 0.00229 0.33419 0.20155 0.0
H801 H -0.00105 0.40689 0.19391 0.0
H802 H 0.03193 0.32839 0.27935 0.0
H803 H 0.91695 0.32914 0.2751 0.0
H804 H -0.01863 0.31439 0.24782 0.0
H805 H -0.00918 0.42981 0.23653 0.0
H806 H 0.91982 0.41791 0.26525 0.0
H807 H 0.03411 0.41717 0.2714 0.0
H808 H 0.81185 0.37449 0.34575 0.0
H809 H 0.08742 0.37187 0.35768 0.0
H810 H 0.80305 0.35912 0.27059 0.0
H811 H 0.80829 0.3893 0.26732 0.0
H812 H 0.74523 0.37604 0.29736 0.0
H813 H 0.14325 0.35698 0.28543 0.0
H814 H 0.18353 0.37347 0.31648 0.0
H815 H 0.14287 0.38718 0.28192 0.0
C816 C 0.87125 0.61912 0.21622 0.0
C817 C 0.94413 0.62048 0.19742 0.0
C818 C 0.87978 0.61937 0.24819 0.0
C819 C 0.96325 0.6207 0.26158 0.0
C820 C 0.03712 0.62148 0.24268 0.0
C821 C 0.02662 0.6215 0.21082 0.0
C822 C 0.79945 0.61878 0.26759 0.0
C823 C 0.12724 0.62256 0.2561 0.0
C824 C -0.01269 0.64428 0.34103 0.0
C825 C -0.00536 0.62448 0.35937 0.0
C826 C -0.02388 0.64327 0.30925 0.0
C827 C -0.02663 0.62195 0.29533 0.0
C828 C -0.01856 0.6019 0.31359 0.0
C829 C -0.00857 0.60339 0.34539 0.0
C830 C 0.96736 0.66504 0.29055 0.0
C831 C -0.02046 0.57885 0.29954 0.0
H832 H 0.80741 0.61851 0.20588 0.0
H833 H 0.08312 0.62227 0.1963 0.0
H834 H 0.80273 0.60438 0.28439 0.0
H835 H 0.79523 0.63451 0.28075 0.0
H836 H 0.7395 0.61715 0.25368 0.0
H837 H 0.17799 0.62213 0.23829 0.0
H838 H 0.135 0.63835 0.26897 0.0
H839 H 0.13785 0.60816 0.27251 0.0
H840 H -0.00891 0.66066 0.35148 0.0
H841 H -0.00448 0.58798 0.35934 0.0
H842 H 0.90597 0.66499 0.27726 0.0
H843 H 0.02091 0.66648 0.27388 0.0
H844 H -0.0317 0.68022 0.30496 0.0
H845 H 0.91723 0.57642 0.28736 0.0
H846 H -0.01216 0.5649 0.31687 0.0
H847 H 0.03168 0.57762 0.28238 0.0
C848 C 0.93702 0.60873 0.84477 0.0
C849 C 0.93517 0.62966 0.85916 0.0
C850 C 0.94872 0.60753 0.81309 0.0
C851 C 0.9594 0.62773 0.79536 0.0
C852 C 0.9577 0.6489 0.8097 0.0
C853 C 0.94533 0.64961 0.84139 0.0
C854 C 0.94989 0.58465 0.79859 0.0
C855 C -0.03119 0.67081 0.79154 0.0
C856 C 0.06532 0.62462 0.71746 0.0
C857 C -0.0066 0.62595 0.69781 0.0
C858 C 0.05525 0.62509 0.74931 0.0
C859 C -0.02878 0.62675 0.76173 0.0
C860 C 0.89834 0.62774 0.74199 0.0
C861 C 0.91033 0.62737 0.71028 0.0
C862 C 0.13453 0.62414 0.76965 0.0
C863 C 0.80768 0.6293 0.75436 0.0
H864 H 0.93071 0.59321 0.85836 0.0
H865 H 0.94289 0.66585 0.85224 0.0
H866 H 0.89848 0.58383 0.78084 0.0
H867 H 0.01261 0.58206 0.78706 0.0
H868 H 0.93998 0.57056 0.81555 0.0
H869 H 0.96755 0.68583 0.80622 0.0
H870 H 0.03112 0.67065 0.77914 0.0
H871 H 0.91657 0.67261 0.77413 0.0
H872 H 0.12964 0.62372 0.7079 0.0
H873 H 0.85446 0.62806 0.69517 0.0
H874 H 0.12994 0.60959 0.78614 0.0
H875 H 0.1385 0.63972 0.78316 0.0
H876 H 0.19515 0.62251 0.75643 0.0
H877 H 0.79477 0.6147 0.77018 0.0
H878 H 0.75784 0.62955 0.73594 0.0
H879 H 0.80082 0.64489 0.76767 0.0
C880 C 0.94989 0.3411 0.71086 0.0
C881 C 0.94068 0.36134 0.69355 0.0
C882 C 0.96128 0.34129 0.74271 0.0
C883 C 0.96285 0.3622 0.75769 0.0
C884 C 0.95297 0.38268 0.74043 0.0
C885 C 0.94233 0.382 0.70859 0.0
C886 C -0.02838 0.31909 0.76033 0.0
C887 C 0.954 0.40531 0.75561 0.0
C888 C 0.91252 0.36164 0.84252 0.0
C889 C -0.00463 0.36301 0.85561 0.0
C890 C 0.901 0.3615 0.8107 0.0
C891 C -0.02584 0.36264 0.79147 0.0
C892 C 0.058 0.3641 0.80452 0.0
C893 C 0.06758 0.36436 0.83646 0.0
C894 C 0.81052 0.36016 0.79765 0.0
C895 C 0.13759 0.36517 0.78476 0.0
H896 H 0.94751 0.32504 0.69953 0.0
H897 H 0.93673 0.39774 0.6954 0.0
H898 H 0.03371 0.31894 0.7732 0.0
H899 H 0.91906 0.31711 0.77731 0.0
H900 H -0.02967 0.30431 0.74521 0.0
H901 H 0.94434 0.41967 0.73898 0.0
H902 H 0.90239 0.40588 0.77304 0.0
H903 H 0.01659 0.40767 0.76764 0.0
H904 H 0.85641 0.36092 0.85722 0.0
H905 H 0.13176 0.36521 0.84648 0.0
H906 H 0.80394 0.34483 0.78376 0.0
H907 H 0.79773 0.37503 0.78224 0.0
H908 H 0.76046 0.35956 0.81573 0.0
H909 H 0.14117 0.34986 0.77073 0.0
H910 H 0.19809 0.36638 0.79847 0.0
H911 H 0.13377 0.38004 0.76875 0.0
C912 C 0.54278 0.88535 0.2166 0.0
C913 C 0.49408 0.87065 0.19854 0.0
C914 C 0.52894 0.88659 0.2482 0.0
C915 C 0.46749 0.87211 0.26243 0.0
C916 C 0.4187 0.8571 0.24457 0.0
C917 C 0.43113 0.85692 0.21286 0.0
C918 C 0.58036 0.90335 0.26636 0.0
C919 C 0.35419 0.84092 0.259 0.0
C920 C 0.49723 0.85842 0.34711 0.0
C921 C 0.42989 0.87081 0.36019 0.0
C922 C 0.50947 0.85852 0.31539 0.0
C923 C 0.45577 0.87216 0.29614 0.0
C924 C 0.38975 0.88535 0.30905 0.0
C925 C 0.37644 0.88416 0.34078 0.0
C926 C 0.57913 0.84371 0.30245 0.0
C927 C 0.3329 0.90067 0.28933 0.0
H928 H 0.59265 0.89581 0.20624 0.0
H929 H 0.39088 0.84596 0.19937 0.0
H930 H 0.53622 0.91383 0.27998 0.0
H931 H 0.62406 0.8942 0.28268 0.0
H932 H 0.62002 0.91475 0.2515 0.0
H933 H 0.32373 0.82972 0.24204 0.0
H934 H 0.38667 0.83019 0.27687 0.0
H935 H 0.30247 0.8505 0.27036 0.0
H936 H 0.54107 0.84859 0.36159 0.0
H937 H 0.32328 0.89356 0.35019 0.0
H938 H 0.6275 0.85429 0.29011 0.0
H939 H 0.55037 0.83211 0.28566 0.0
H940 H 0.61318 0.83341 0.32045 0.0
H941 H 0.37336 0.91197 0.27465 0.0
H942 H 0.28953 0.91128 0.30312 0.0
H943 H 0.29248 0.8904 0.27396 0.0
C944 C 0.43816 0.10191 0.21087 0.0
C945 C 0.4353 0.12266 0.19445 0.0
C946 C 0.44816 0.10113 0.24281 0.0
C947 C 0.45623 0.12157 0.25868 0.0
C948 C 0.45276 0.14255 0.24231 0.0
C949 C 0.44179 0.14284 0.21047 0.0
C950 C 0.45088 0.07844 0.25955 0.0
C951 C 0.46121 0.16473 0.25841 0.0
C952 C 0.40832 0.12328 0.34352 0.0
C953 C 0.49171 0.12288 0.35634 0.0
C954 C 0.39574 0.12231 0.31181 0.0
C955 C 0.46839 0.12113 0.29244 0.0
C956 C 0.55275 0.12041 0.30528 0.0
C957 C 0.56337 0.12117 0.33712 0.0
C958 C 0.30477 0.12283 0.29902 0.0
C959 C 0.63181 0.11939 0.28533 0.0
H960 H 0.43428 0.08622 0.19869 0.0
H961 H 0.43802 0.15896 0.19809 0.0
H962 H 0.51409 0.07621 0.2714 0.0
H963 H 0.40008 0.07764 0.27732 0.0
H964 H 0.44123 0.06413 0.24396 0.0
H965 H 0.45814 0.17958 0.24229 0.0
H966 H 0.40884 0.16629 0.2754 0.0
H967 H 0.52356 0.16521 0.27108 0.0
H968 H 0.35272 0.12427 0.35837 0.0
H969 H 0.62791 0.12102 0.34697 0.0
H970 H 0.29377 0.108 0.2845 0.0
H971 H 0.29549 0.13823 0.28427 0.0
H972 H 0.2552 0.12274 0.31726 0.0
H973 H 0.62785 0.10457 0.2704 0.0
H974 H 0.69268 0.11821 0.29892 0.0
H975 H 0.63476 0.13475 0.27018 0.0
C976 C 0.52541 0.13166 0.84378 0.0
C977 C 0.44166 0.13075 0.85583 0.0
C978 C 0.53904 0.13124 0.81215 0.0
C979 C 0.4671 0.1301 0.79207 0.0
C980 C 0.38234 0.12918 0.8041 0.0
C981 C 0.37066 0.12938 0.83588 0.0
C982 C 0.63042 0.13195 0.80022 0.0
C983 C 0.304 0.12823 0.78338 0.0
C984 C 0.49705 0.15064 0.70982 0.0
C985 C 0.50436 0.13019 0.69448 0.0
C986 C 0.48464 0.15085 0.74154 0.0
C987 C 0.48054 0.13011 0.75845 0.0
C988 C 0.48929 0.10942 0.74326 0.0
C989 C 0.50061 0.1097 0.71145 0.0
C990 C 0.47537 0.17327 0.75693 0.0
C991 C 0.48596 0.08696 0.76058 0.0
H992 H 0.5805 0.1324 0.85918 0.0
H993 H 0.30584 0.12885 0.84514 0.0
H994 H 0.64295 0.11685 0.7864 0.0
H995 H 0.63921 0.14708 0.78498 0.0
H996 H 0.67933 0.13245 0.81891 0.0
H997 H 0.24254 0.12755 0.79636 0.0
H998 H 0.30258 0.14334 0.76774 0.0
H999 H 0.30765 0.11313 0.76897 0.0
H1000 H 0.50133 0.16658 0.69704 0.0
H1001 H 0.50487 0.0938 0.6998 0.0
H1002 H 0.52702 0.1751 0.7744 0.0
H1003 H 0.41252 0.17393 0.76894 0.0
H1004 H 0.47896 0.18788 0.74044 0.0
H1005 H 0.5361 0.08643 0.77885 0.0
H1006 H 0.49621 0.07241 0.74549 0.0
H1007 H 0.42232 0.08493 0.77185 0.0
C1008 C 0.51359 0.86511 0.7112 0.0
C1009 C 0.4295 0.86642 0.69907 0.0
C1010 C 0.5283 0.86522 0.74285 0.0
C1011 C 0.45708 0.86643 0.76286 0.0
C1012 C 0.37199 0.86787 0.75075 0.0
C1013 C 0.35924 0.868 0.71894 0.0
C1014 C 0.62002 0.86396 0.75487 0.0
C1015 C 0.2944 0.86895 0.7714 0.0
C1016 C 0.48939 0.84444 0.84452 0.0
C1017 C 0.49951 0.86459 0.8604 0.0
C1018 C 0.4751 0.84482 0.81281 0.0
C1019 C 0.47168 0.86583 0.7965 0.0
C1020 C 0.48282 0.88621 0.81228 0.0
C1021 C 0.49624 0.88535 0.84405 0.0
C1022 C 0.46344 0.82271 0.79678 0.0
C1023 C 0.48007 0.90894 0.79561 0.0
H1024 H 0.5681 0.86421 0.69584 0.0
H1025 H 0.29416 0.86884 0.70959 0.0
H1026 H 0.63376 0.87873 0.76924 0.0
H1027 H 0.62852 0.84852 0.7696 0.0
H1028 H 0.6683 0.86363 0.73622 0.0
H1029 H 0.23263 0.87026 0.75834 0.0
H1030 H 0.29213 0.85357 0.78652 0.0
H1031 H 0.29985 0.88374 0.78634 0.0
H1032 H 0.4931 0.82831 0.85687 0.0
H1033 H 0.50262 0.90102 0.85616 0.0
H1034 H 0.51434 0.82086 0.7793 0.0
H1035 H 0.40014 0.82261 0.78468 0.0
H1036 H 0.46644 0.80784 0.81286 0.0
H1037 H 0.52976 0.90959 0.77745 0.0
H1038 H 0.49142 0.9232 0.81115 0.0
H1039 H 0.41625 0.91138 0.78426 0.0
loop_
_geom_bond_atom_site_label_1
_geom_bond_atom_site_label_2
_geom_bond_distance
_geom_bond_site_symmetry_2
_ccdc_geom_bond_type
C0 O16 1.251 . S
C0 O18 1.254 1_554 S
N1 C2 1.333 . S
N1 C6 1.307 . S
N1 Zn7 2.020 . S
C2 N1 1.333 . S
C2 C3 1.379 . S
C2 H20 0.952 . S
C3 C2 1.379 . S
C3 C4 1.390 . S
C3 H30 0.949 . S
C4 C3 1.390 . S
C4 C5 1.357 . S
C5 C4 1.357 . S
C5 C6 1.370 . S
C5 H31 0.950 . S
C6 N1 1.307 . S
C6 C5 1.370 . S
C6 H24 0.948 . S
Zn7 N1 2.020 . S
Zn7 O16 2.039 . S
Zn7 O22 2.034 . S
Zn7 O26 2.025 . S
Zn7 O28 2.024 1_455 S
C8 O27 1.246 1_554 S
C8 O28 1.249 . S
N9 C10 1.307 . S
N9 C11 1.333 . S
N9 Zn15 2.020 . S
C10 N9 1.307 . S
C10 C14 1.370 . S
C10 H21 0.948 . S
C11 N9 1.333 . S
C11 C12 1.379 . S
C11 H19 0.952 . S
C12 C11 1.379 . S
C12 C13 1.390 . S
C12 H32 0.949 . S
C13 C12 1.390 . S
C13 C14 1.357 . S
C14 C10 1.370 . S
C14 C13 1.357 . S
C14 H33 0.950 . S
Zn15 N9 2.020 . S
Zn15 O18 2.025 . S
Zn15 O23 2.024 . S
Zn15 O25 2.039 . S
Zn15 O27 2.034 1_455 S
O16 C0 1.251 . S
O16 Zn7 2.039 . S
C17 O22 1.246 . S
C17 O23 1.249 1_554 S
O18 C0 1.254 1_556 S
O18 Zn15 2.025 . S
H19 C11 0.952 . S
H20 C2 0.952 . S
H21 C10 0.948 . S
O22 Zn7 2.034 . S
O22 C17 1.246 . S
O23 Zn15 2.024 . S
O23 C17 1.249 1_556 S
H24 C6 0.948 . S
O25 Zn15 2.039 . S
O25 C29 1.251 1_556 S
O26 Zn7 2.025 . S
O26 C29 1.254 . S
O27 C8 1.246 1_556 S
O27 Zn15 2.034 1_655 S
O28 Zn7 2.024 1_655 S
O28 C8 1.249 . S
C29 O25 1.251 1_554 S
C29 O26 1.254 . S
H30 C3 0.949 . S
H31 C5 0.950 . S
H32 C12 0.949 . S
H33 C14 0.950 . S
C34 O50 1.251 . S
C34 O52 1.254 1_554 S
N35 C36 1.333 . S
N35 C40 1.307 . S
N35 Zn41 2.020 . S
C36 N35 1.333 . S
C36 C37 1.379 . S
C36 H54 0.952 . S
C37 C36 1.379 . S
C37 C38 1.390 . S
C37 H64 0.949 . S
C38 C37 1.390 . S
C38 C39 1.357 . S
C39 C38 1.357 . S
C39 C40 1.370 . S
C39 H65 0.950 . S
C40 N35 1.307 . S
C40 C39 1.370 . S
C40 H58 0.948 . S
Zn41 N35 2.020 . S
Zn41 O50 2.039 . S
Zn41 O56 2.034 . S
Zn41 O60 2.025 . S
Zn41 O62 2.024 1_655 S
C42 O61 1.246 1_554 S
C42 O62 1.249 . S
N43 C44 1.307 . S
N43 C45 1.333 . S
N43 Zn49 2.020 . S
C44 N43 1.307 . S
C44 C48 1.370 . S
C44 H55 0.948 . S
C45 N43 1.333 . S
C45 C46 1.379 . S
C45 H53 0.952 . S
C46 C45 1.379 . S
C46 C47 1.390 . S
C46 H66 0.949 . S
C47 C46 1.390 . S
C47 C48 1.357 . S
C48 C44 1.370 . S
C48 C47 1.357 . S
C48 H67 0.950 . S
Zn49 N43 2.020 . S
Zn49 O52 2.025 . S
Zn49 O57 2.024 . S
Zn49 O59 2.039 . S
Zn49 O61 2.034 1_655 S
O50 C34 1.251 . S
O50 Zn41 2.039 . S
C51 O56 1.246 . S
C51 O57 1.249 1_554 S
O52 C34 1.254 1_556 S
O52 Zn49 2.025 . S
H53 C45 0.952 . S
H54 C36 0.952 . S
H55 C44 0.948 . S
O56 Zn41 2.034 . S
O56 C51 1.246 . S
O57 Zn49 2.024 . S
O57 C51 1.249 1_556 S
H58 C40 0.948 . S
O59 Zn49 2.039 . S
O59 C63 1.251 1_556 S
O60 Zn41 2.025 . S
O60 C63 1.254 . S
O61 C42 1.246 1_556 S
O61 Zn49 2.034 1_455 S
O62 Zn41 2.024 1_455 S
O62 C42 1.249 . S
C63 O59 1.251 1_554 S
C63 O60 1.254 . S
H64 C37 0.949 . S
H65 C39 0.950 . S
H66 C46 0.949 . S
H67 C48 0.950 . S
C68 O84 1.251 . S
C68 O86 1.254 . S
N69 C70 1.333 . S
N69 C74 1.307 . S
N69 Zn75 2.020 . S
C70 N69 1.333 . S
C70 C71 1.379 . S
C70 H88 0.952 . S
C71 C70 1.379 . S
C71 C72 1.390 . S
C71 H98 0.949 . S
C72 C71 1.390 . S
C72 C73 1.357 . S
C73 C72 1.357 . S
C73 C74 1.370 . S
C73 H99 0.950 . S
C74 N69 1.307 . S
C74 C73 1.370 . S
C74 H92 0.948 . S
Zn75 N69 2.020 . S
Zn75 O84 2.039 . S
Zn75 O90 2.034 . S
Zn75 O94 2.025 . S
Zn75 O96 2.024 1_455 S
C76 O95 1.246 . S
C76 O96 1.249 . S
N77 C78 1.307 . S
N77 C79 1.333 . S
N77 Zn83 2.020 . S
C78 N77 1.307 . S
C78 C82 1.370 . S
C78 H89 0.948 . S
C79 N77 1.333 . S
C79 C80 1.379 . S
C79 H87 0.952 . S
C80 C79 1.379 . S
C80 C81 1.390 . S
C80 H100 0.949 . S
C81 C80 1.390 . S
C81 C82 1.357 . S
C82 C78 1.370 . S
C82 C81 1.357 . S
C82 H101 0.950 . S
Zn83 N77 2.020 . S
Zn83 O86 2.025 . S
Zn83 O91 2.024 . S
Zn83 O93 2.039 . S
Zn83 O95 2.034 1_455 S
O84 C68 1.251 . S
O84 Zn75 2.039 . S
C85 O90 1.246 . S
C85 O91 1.249 . S
O86 C68 1.254 . S
O86 Zn83 2.025 . S
H87 C79 0.952 . S
H88 C70 0.952 . S
H89 C78 0.948 . S
O90 Zn75 2.034 . S
O90 C85 1.246 . S
O91 Zn83 2.024 . S
O91 C85 1.249 . S
H92 C74 0.948 . S
O93 Zn83 2.039 . S
O93 C97 1.251 . S
O94 Zn75 2.025 . S
O94 C97 1.254 . S
O95 C76 1.246 . S
O95 Zn83 2.034 1_655 S
O96 Zn75 2.024 1_655 S
O96 C76 1.249 . S
C97 O93 1.251 . S
C97 O94 1.254 . S
H98 C71 0.949 . S
H99 C73 0.950 . S
H100 C80 0.949 . S
H101 C82 0.950 . S
C102 O118 1.251 . S
C102 O120 1.254 . S
N103 C104 1.333 . S
N103 C108 1.307 . S
N103 Zn109 2.020 . S
C104 N103 1.333 . S
C104 C105 1.379 . S
C104 H122 0.952 . S
C105 C104 1.379 . S
C105 C106 1.390 . S
C105 H132 0.949 . S
C106 C105 1.390 . S
C106 C107 1.357 . S
C107 C106 1.357 . S
C107 C108 1.370 . S
C107 H133 0.950 . S
C108 N103 1.307 . S
C108 C107 1.370 . S
C108 H126 0.948 . S
Zn109 N103 2.020 . S
Zn109 O118 2.039 . S
Zn109 O124 2.034 1_655 S
Zn109 O128 2.025 . S
Zn109 O130 2.024 . S
C110 O129 1.246 . S
C110 O130 1.249 . S
N111 C112 1.307 . S
N111 C113 1.333 . S
N111 Zn117 2.020 . S
C112 N111 1.307 . S
C112 C116 1.370 . S
C112 H123 0.948 . S
C113 N111 1.333 . S
C113 C114 1.379 . S
C113 H121 0.952 . S
C114 C113 1.379 . S
C114 C115 1.390 . S
C114 H134 0.949 . S
C115 C114 1.390 . S
C115 C116 1.357 . S
C116 C112 1.370 . S
C116 C115 1.357 . S
C116 H135 0.950 . S
Zn117 N111 2.020 . S
Zn117 O120 2.025 . S
Zn117 O125 2.024 1_655 S
Zn117 O127 2.039 . S
Zn117 O129 2.034 . S
O118 C102 1.251 . S
O118 Zn109 2.039 . S
C119 O124 1.246 . S
C119 O125 1.249 . S
O120 C102 1.254 . S
O120 Zn117 2.025 . S
H121 C113 0.952 . S
H122 C104 0.952 . S
H123 C112 0.948 . S
O124 Zn109 2.034 1_455 S
O124 C119 1.246 . S
O125 Zn117 2.024 1_455 S
O125 C119 1.249 . S
H126 C108 0.948 . S
O127 Zn117 2.039 . S
O127 C131 1.251 . S
O128 Zn109 2.025 . S
O128 C131 1.254 . S
O129 C110 1.246 . S
O129 Zn117 2.034 . S
O130 Zn109 2.024 . S
O130 C110 1.249 . S
C131 O127 1.251 . S
C131 O128 1.254 . S
H132 C105 0.949 . S
H133 C107 0.950 . S
H134 C114 0.949 . S
H135 C116 0.950 . S
C136 O152 1.251 . S
C136 O154 1.254 1_554 S
N137 C138 1.333 . S
N137 C142 1.307 . S
N137 Zn143 2.020 . S
C138 N137 1.333 . S
C138 C139 1.379 . S
C138 H156 0.952 . S
C139 C138 1.379 . S
C139 C140 1.390 . S
C139 H166 0.949 . S
C140 C139 1.390 . S
C140 C141 1.357 . S
C141 C140 1.357 . S
C141 C142 1.370 . S
C141 H167 0.950 . S
C142 N137 1.307 . S
C142 C141 1.370 . S
C142 H160 0.948 . S
Zn143 N137 2.020 . S
Zn143 O152 2.039 . S
Zn143 O158 2.034 . S
Zn143 O162 2.025 . S
Zn143 O164 2.024 . S
C144 O163 1.246 1_554 S
C144 O164 1.249 . S
N145 C146 1.307 . S
N145 C147 1.333 . S
N145 Zn151 2.020 . S
C146 N145 1.307 . S
C146 C150 1.370 . S
C146 H157 0.948 . S
C147 N145 1.333 . S
C147 C148 1.379 . S
C147 H155 0.952 . S
C148 C147 1.379 . S
C148 C149 1.390 . S
C148 H168 0.949 . S
C149 C148 1.390 . S
C149 C150 1.357 . S
C150 C146 1.370 . S
C150 C149 1.357 . S
C150 H169 0.950 . S
Zn151 N145 2.020 . S
Zn151 O154 2.025 . S
Zn151 O159 2.024 . S
Zn151 O161 2.039 . S
Zn151 O163 2.034 . S
O152 C136 1.251 . S
O152 Zn143 2.039 . S
C153 O158 1.246 . S
C153 O159 1.249 1_554 S
O154 C136 1.254 1_556 S
O154 Zn151 2.025 . S
H155 C147 0.952 . S
H156 C138 0.952 . S
H157 C146 0.948 . S
O158 Zn143 2.034 . S
O158 C153 1.246 . S
O159 Zn151 2.024 . S
O159 C153 1.249 1_556 S
H160 C142 0.948 . S
O161 Zn151 2.039 . S
O161 C165 1.251 1_556 S
O162 Zn143 2.025 . S
O162 C165 1.254 . S
O163 C144 1.246 1_556 S
O163 Zn151 2.034 . S
O164 Zn143 2.024 . S
O164 C144 1.249 . S
C165 O161 1.251 1_554 S
C165 O162 1.254 . S
H166 C139 0.949 . S
H167 C141 0.950 . S
H168 C148 0.949 . S
H169 C150 0.950 . S
C170 O186 1.251 . S
C170 O188 1.254 1_554 S
N171 C172 1.333 . S
N171 C176 1.307 . S
N171 Zn177 2.020 . S
C172 N171 1.333 . S
C172 C173 1.379 . S
C172 H190 0.952 . S
C173 C172 1.379 . S
C173 C174 1.390 . S
C173 H200 0.949 . S
C174 C173 1.390 . S
C174 C175 1.357 . S
C175 C174 1.357 . S
C175 C176 1.370 . S
C175 H201 0.950 . S
C176 N171 1.307 . S
C176 C175 1.370 . S
C176 H194 0.948 . S
Zn177 N171 2.020 . S
Zn177 O186 2.039 . S
Zn177 O192 2.034 . S
Zn177 O196 2.025 . S
Zn177 O198 2.024 . S
C178 O197 1.246 1_554 S
C178 O198 1.249 . S
N179 C180 1.307 . S
N179 C181 1.333 . S
N179 Zn185 2.020 . S
C180 N179 1.307 . S
C180 C184 1.370 . S
C180 H191 0.948 . S
C181 N179 1.333 . S
C181 C182 1.379 . S
C181 H189 0.952 . S
C182 C181 1.379 . S
C182 C183 1.390 . S
C182 H202 0.949 . S
C183 C182 1.390 . S
C183 C184 1.357 . S
C184 C180 1.370 . S
C184 C183 1.357 . S
C184 H203 0.950 . S
Zn185 N179 2.020 . S
Zn185 O188 2.025 . S
Zn185 O193 2.024 . S
Zn185 O195 2.039 . S
Zn185 O197 2.034 . S
O186 C170 1.251 . S
O186 Zn177 2.039 . S
C187 O192 1.246 . S
C187 O193 1.249 1_554 S
O188 C170 1.254 1_556 S
O188 Zn185 2.025 . S
H189 C181 0.952 . S
H190 C172 0.952 . S
H191 C180 0.948 . S
O192 Zn177 2.034 . S
O192 C187 1.246 . S
O193 Zn185 2.024 . S
O193 C187 1.249 1_556 S
H194 C176 0.948 . S
O195 Zn185 2.039 . S
O195 C199 1.251 1_556 S
O196 Zn177 2.025 . S
O196 C199 1.254 . S
O197 C178 1.246 1_556 S
O197 Zn185 2.034 . S
O198 Zn177 2.024 . S
O198 C178 1.249 . S
C199 O195 1.251 1_554 S
C199 O196 1.254 . S
H200 C173 0.949 . S
H201 C175 0.950 . S
H202 C182 0.949 . S
H203 C184 0.950 . S
C204 O220 1.251 . S
C204 O222 1.254 . S
N205 C206 1.333 . S
N205 C210 1.307 . S
N205 Zn211 2.020 . S
C206 N205 1.333 . S
C206 C207 1.379 . S
C206 H224 0.952 . S
C207 C206 1.379 . S
C207 C208 1.390 . S
C207 H234 0.949 . S
C208 C207 1.390 . S
C208 C209 1.357 . S
C209 C208 1.357 . S
C209 C210 1.370 . S
C209 H235 0.950 . S
C210 N205 1.307 . S
C210 C209 1.370 . S
C210 H228 0.948 . S
Zn211 N205 2.020 . S
Zn211 O220 2.039 . S
Zn211 O226 2.034 . S
Zn211 O230 2.025 . S
Zn211 O232 2.024 . S
C212 O231 1.246 . S
C212 O232 1.249 . S
N213 C214 1.307 . S
N213 C215 1.333 . S
N213 Zn219 2.020 . S
C214 N213 1.307 . S
C214 C218 1.370 . S
C214 H225 0.948 . S
C215 N213 1.333 . S
C215 C216 1.379 . S
C215 H223 0.952 . S
C216 C215 1.379 . S
C216 C217 1.390 . S
C216 H236 0.949 . S
C217 C216 1.390 . S
C217 C218 1.357 . S
C218 C214 1.370 . S
C218 C217 1.357 . S
C218 H237 0.950 . S
Zn219 N213 2.020 . S
Zn219 O222 2.025 . S
Zn219 O227 2.024 . S
Zn219 O229 2.039 . S
Zn219 O231 2.034 . S
O220 C204 1.251 . S
O220 Zn211 2.039 . S
C221 O226 1.246 . S
C221 O227 1.249 . S
O222 C204 1.254 . S
O222 Zn219 2.025 . S
H223 C215 0.952 . S
H224 C206 0.952 . S
H225 C214 0.948 . S
O226 Zn211 2.034 . S
O226 C221 1.246 . S
O227 Zn219 2.024 . S
O227 C221 1.249 . S
H228 C210 0.948 . S
O229 Zn219 2.039 . S
O229 C233 1.251 . S
O230 Zn211 2.025 . S
O230 C233 1.254 . S
O231 C212 1.246 . S
O231 Zn219 2.034 . S
O232 Zn211 2.024 . S
O232 C212 1.249 . S
C233 O229 1.251 . S
C233 O230 1.254 . S
H234 C207 0.949 . S
H235 C209 0.950 . S
H236 C216 0.949 . S
H237 C218 0.950 . S
C238 O254 1.251 . S
C238 O256 1.254 . S
N239 C240 1.333 . S
N239 C244 1.307 . S
N239 Zn245 2.020 . S
C240 N239 1.333 . S
C240 C241 1.379 . S
C240 H258 0.952 . S
C241 C240 1.379 . S
C241 C242 1.390 . S
C241 H268 0.949 . S
C242 C241 1.390 . S
C242 C243 1.357 . S
C243 C242 1.357 . S
C243 C244 1.370 . S
C243 H269 0.950 . S
C244 N239 1.307 . S
C244 C243 1.370 . S
C244 H262 0.948 . S
Zn245 N239 2.020 . S
Zn245 O254 2.039 . S
Zn245 O260 2.034 . S
Zn245 O264 2.025 . S
Zn245 O266 2.024 . S
C246 O265 1.246 . S
C246 O266 1.249 . S
N247 C248 1.307 . S
N247 C249 1.333 . S
N247 Zn253 2.020 . S
C248 N247 1.307 . S
C248 C252 1.370 . S
C248 H259 0.948 . S
C249 N247 1.333 . S
C249 C250 1.379 . S
C249 H257 0.952 . S
C250 C249 1.379 . S
C250 C251 1.390 . S
C250 H270 0.949 . S
C251 C250 1.390 . S
C251 C252 1.357 . S
C252 C248 1.370 . S
C252 C251 1.357 . S
C252 H271 0.950 . S
Zn253 N247 2.020 . S
Zn253 O256 2.025 . S
Zn253 O261 2.024 . S
Zn253 O263 2.039 . S
Zn253 O265 2.034 . S
O254 C238 1.251 . S
O254 Zn245 2.039 . S
C255 O260 1.246 . S
C255 O261 1.249 . S
O256 C238 1.254 . S
O256 Zn253 2.025 . S
H257 C249 0.952 . S
H258 C240 0.952 . S
H259 C248 0.948 . S
O260 Zn245 2.034 . S
O260 C255 1.246 . S
O261 Zn253 2.024 . S
O261 C255 1.249 . S
H262 C244 0.948 . S
O263 Zn253 2.039 . S
O263 C267 1.251 . S
O264 Zn245 2.025 . S
O264 C267 1.254 . S
O265 C246 1.246 . S
O265 Zn253 2.034 . S
O266 Zn245 2.024 . S
O266 C246 1.249 . S
C267 O263 1.251 . S
C267 O264 1.254 . S
H268 C241 0.949 . S
H269 C243 0.950 . S
H270 C250 0.949 . S
H271 C252 0.950 . S
C272 C273 1.386 1_556 S
C272 C274 1.395 . S
C272 H288 0.935 . S
C273 C272 1.386 1_554 S
C273 C277 1.376 . S
C274 C272 1.395 . S
C274 C275 1.369 1_556 S
C274 C278 1.531 . S
C275 C274 1.369 1_554 S
C275 C276 1.410 . S
C275 C283 1.503 . S
C276 C275 1.410 . S
C276 C277 1.392 . S
C276 C279 1.511 . S
C277 C273 1.376 . S
C277 C276 1.392 . S
C277 H289 0.929 . S
C278 C274 1.531 . S
C278 H290 0.960 . S
C278 H291 0.948 1_556 S
C278 H292 0.960 . S
C279 C276 1.511 . S
C279 H293 0.961 . S
C279 H294 0.961 . S
C279 H295 0.961 . S
C280 C281 1.370 . S
C280 C282 1.363 . S
C280 H296 0.931 . S
C281 C280 1.370 . S
C281 C285 1.408 1_554 S
C282 C280 1.363 . S
C282 C283 1.370 . S
C282 C286 1.524 . S
C283 C275 1.503 . S
C283 C282 1.370 . S
C283 C284 1.403 1_554 S
C284 C283 1.403 1_556 S
C284 C285 1.404 . S
C284 C287 1.539 . S
C285 C281 1.408 1_556 S
C285 C284 1.404 . S
C285 H297 0.930 . S
C286 C282 1.524 . S
C286 H298 0.956 . S
C286 H299 0.961 . S
C286 H300 0.961 . S
C287 C284 1.539 . S
C287 H301 0.958 . S
C287 H302 0.961 . S
C287 H303 0.960 . S
H288 C272 0.935 . S
H289 C277 0.929 . S
H290 C278 0.960 . S
H291 C278 0.948 1_554 S
H292 C278 0.960 . S
H293 C279 0.961 . S
H294 C279 0.961 . S
H295 C279 0.961 . S
H296 C280 0.931 . S
H297 C285 0.930 . S
H298 C286 0.956 . S
H299 C286 0.961 . S
H300 C286 0.961 . S
H301 C287 0.958 . S
H302 C287 0.961 . S
H303 C287 0.960 . S
C304 C305 1.391 1_556 S
C304 C306 1.394 . S
C304 H320 0.931 . S
C305 C304 1.391 1_554 S
C305 C309 1.376 . S
C306 C304 1.394 . S
C306 C307 1.369 1_556 S
C306 C310 1.531 . S
C307 C306 1.369 1_554 S
C307 C308 1.410 . S
C307 C315 1.503 . S
C308 C307 1.410 . S
C308 C309 1.392 . S
C308 C311 1.511 . S
C309 C305 1.376 . S
C309 C308 1.392 . S
C309 H321 0.929 . S
C310 C306 1.531 . S
C310 H322 0.960 . S
C310 H323 0.962 . S
C310 H324 0.960 . S
C311 C308 1.511 . S
C311 H325 0.961 . S
C311 H326 0.961 . S
C311 H327 0.961 . S
C312 C313 1.370 . S
C312 C314 1.363 . S
C312 H328 0.931 . S
C313 C312 1.370 . S
C313 C317 1.408 1_554 S
C314 C312 1.363 . S
C314 C315 1.370 . S
C314 C318 1.524 . S
C315 C307 1.503 . S
C315 C314 1.370 . S
C315 C316 1.403 1_554 S
C316 C315 1.403 1_556 S
C316 C317 1.404 . S
C316 C319 1.539 . S
C317 C313 1.408 1_556 S
C317 C316 1.404 . S
C317 H329 0.930 . S
C318 C314 1.524 . S
C318 H330 0.956 . S
C318 H331 0.961 . S
C318 H332 0.961 . S
C319 C316 1.539 . S
C319 H333 0.958 . S
C319 H334 0.961 . S
C319 H335 0.960 . S
H320 C304 0.931 . S
H321 C309 0.929 . S
H322 C310 0.960 . S
H323 C310 0.962 . S
H324 C310 0.960 . S
H325 C311 0.961 . S
H326 C311 0.961 . S
H327 C311 0.961 . S
H328 C312 0.931 . S
H329 C317 0.930 . S
H330 C318 0.956 . S
H331 C318 0.961 . S
H332 C318 0.961 . S
H333 C319 0.958 . S
H334 C319 0.961 . S
H335 C319 0.960 . S
C336 C337 1.391 . S
C336 C338 1.394 . S
C336 H352 0.931 . S
C337 C336 1.391 . S
C337 C341 1.376 . S
C338 C336 1.394 . S
C338 C339 1.369 . S
C338 C342 1.531 . S
C339 C338 1.369 . S
C339 C340 1.410 . S
C339 C347 1.503 . S
C340 C339 1.410 . S
C340 C341 1.392 . S
C340 C343 1.511 . S
C341 C337 1.376 . S
C341 C340 1.392 . S
C341 H353 0.929 . S
C342 C338 1.531 . S
C342 H354 0.960 . S
C342 H355 0.962 . S
C342 H356 0.960 . S
C343 C340 1.511 . S
C343 H357 0.961 . S
C343 H358 0.961 . S
C343 H359 0.961 . S
C344 C345 1.370 . S
C344 C346 1.363 . S
C344 H360 0.931 . S
C345 C344 1.370 . S
C345 C349 1.408 . S
C346 C344 1.363 . S
C346 C347 1.370 . S
C346 C350 1.524 . S
C347 C339 1.503 . S
C347 C346 1.370 . S
C347 C348 1.403 . S
C348 C347 1.403 . S
C348 C349 1.404 . S
C348 C351 1.539 . S
C349 C345 1.408 . S
C349 C348 1.404 . S
C349 H361 0.930 . S
C350 C346 1.524 . S
C350 H362 0.956 . S
C350 H363 0.961 . S
C350 H364 0.961 . S
C351 C348 1.539 . S
C351 H365 0.958 . S
C351 H366 0.961 . S
C351 H367 0.960 . S
H352 C336 0.931 . S
H353 C341 0.929 . S
H354 C342 0.960 . S
H355 C342 0.962 . S
H356 C342 0.960 . S
H357 C343 0.961 . S
H358 C343 0.961 . S
H359 C343 0.961 . S
H360 C344 0.931 . S
H361 C349 0.930 . S
H362 C350 0.956 . S
H363 C350 0.961 . S
H364 C350 0.961 . S
H365 C351 0.958 . S
H366 C351 0.961 . S
H367 C351 0.960 . S
C368 C369 1.391 . S
C368 C370 1.394 . S
C368 H384 0.931 . S
C369 C368 1.391 . S
C369 C373 1.376 . S
C370 C368 1.394 . S
C370 C371 1.369 . S
C370 C374 1.531 . S
C371 C370 1.369 . S
C371 C372 1.410 . S
C371 C379 1.503 . S
C372 C371 1.410 . S
C372 C373 1.392 . S
C372 C375 1.511 . S
C373 C369 1.376 . S
C373 C372 1.392 . S
C373 H385 0.929 . S
C374 C370 1.531 . S
C374 H386 0.960 . S
C374 H387 0.962 . S
C374 H388 0.960 . S
C375 C372 1.511 . S
C375 H389 0.961 . S
C375 H390 0.961 . S
C375 H391 0.961 . S
C376 C377 1.370 . S
C376 C378 1.363 . S
C376 H392 0.931 . S
C377 C376 1.370 . S
C377 C381 1.408 . S
C378 C376 1.363 . S
C378 C379 1.370 . S
C378 C382 1.524 . S
C379 C371 1.503 . S
C379 C378 1.370 . S
C379 C380 1.403 . S
C380 C379 1.403 . S
C380 C381 1.404 . S
C380 C383 1.539 . S
C381 C377 1.408 . S
C381 C380 1.404 . S
C381 H393 0.930 . S
C382 C378 1.524 . S
C382 H394 0.956 . S
C382 H395 0.961 . S
C382 H396 0.961 . S
C383 C380 1.539 . S
C383 H397 0.958 . S
C383 H398 0.961 . S
C383 H399 0.960 . S
H384 C368 0.931 . S
H385 C373 0.929 . S
H386 C374 0.960 . S
H387 C374 0.962 . S
H388 C374 0.960 . S
H389 C375 0.961 . S
H390 C375 0.961 . S
H391 C375 0.961 . S
H392 C376 0.931 . S
H393 C381 0.930 . S
H394 C382 0.956 . S
H395 C382 0.961 . S
H396 C382 0.961 . S
H397 C383 0.958 . S
H398 C383 0.961 . S
H399 C383 0.960 . S
C400 C401 1.391 . S
C400 C402 1.393 1_554 S
C400 H416 0.931 1_554 S
C401 C400 1.391 . S
C401 C405 1.376 . S
C402 C400 1.393 1_556 S
C402 C403 1.364 1_656 S
C402 C406 1.536 1_655 S
C403 C402 1.364 1_454 S
C403 C404 1.410 1_455 S
C403 C411 1.503 . S
C404 C403 1.410 1_655 S
C404 C405 1.392 . S
C404 C407 1.511 1_655 S
C405 C401 1.376 . S
C405 C404 1.392 . S
C405 H417 0.929 . S
C406 C402 1.536 1_455 S
C406 H418 0.960 . S
C406 H419 0.962 1_556 S
C406 H420 0.960 1_455 S
C407 C404 1.511 1_455 S
C407 H421 0.961 1_455 S
C407 H422 0.961 . S
C407 H423 0.961 . S
C408 C409 1.370 . S
C408 C410 1.363 . S
C408 H424 0.931 . S
C409 C408 1.370 . S
C409 C413 1.408 1_554 S
C410 C408 1.363 . S
C410 C411 1.370 . S
C410 C414 1.524 . S
C411 C403 1.503 . S
C411 C410 1.370 . S
C411 C412 1.403 1_554 S
C412 C411 1.403 1_556 S
C412 C413 1.404 . S
C412 C415 1.539 . S
C413 C409 1.408 1_556 S
C413 C412 1.404 . S
C413 H425 0.930 . S
C414 C410 1.524 . S
C414 H426 0.956 . S
C414 H427 0.961 . S
C414 H428 0.961 . S
C415 C412 1.539 . S
C415 H429 0.958 . S
C415 H430 0.961 . S
C415 H431 0.960 . S
H416 C400 0.931 1_556 S
H417 C405 0.929 . S
H418 C406 0.960 . S
H419 C406 0.962 1_554 S
H420 C406 0.960 1_655 S
H421 C407 0.961 1_655 S
H422 C407 0.961 . S
H423 C407 0.961 . S
H424 C408 0.931 . S
H425 C413 0.930 . S
H426 C414 0.956 . S
H427 C414 0.961 . S
H428 C414 0.961 . S
H429 C415 0.958 . S
H430 C415 0.961 . S
H431 C415 0.960 . S
C432 C433 1.391 1_556 S
C432 C434 1.394 . S
C432 H448 0.931 . S
C433 C432 1.391 1_554 S
C433 C437 1.376 . S
C434 C432 1.394 . S
C434 C435 1.369 1_456 S
C434 C438 1.531 1_455 S
C435 C434 1.369 1_654 S
C435 C436 1.410 1_655 S
C435 C443 1.503 . S
C436 C435 1.410 1_455 S
C436 C437 1.392 . S
C436 C439 1.511 1_455 S
C437 C433 1.376 . S
C437 C436 1.392 . S
C437 H449 0.929 . S
C438 C434 1.531 1_655 S
C438 H450 0.960 . S
C438 H451 0.962 . S
C438 H452 0.960 1_655 S
C439 C436 1.511 1_655 S
C439 H453 0.961 1_655 S
C439 H454 0.961 . S
C439 H455 0.961 . S
C440 C441 1.370 1_556 S
C440 C442 1.363 1_556 S
C440 H456 0.931 . S
C441 C440 1.370 1_554 S
C441 C445 1.408 . S
C442 C440 1.363 1_554 S
C442 C443 1.375 . S
C442 C446 1.520 1_554 S
C443 C435 1.503 . S
C443 C442 1.375 . S
C443 C444 1.403 . S
C444 C443 1.403 . S
C444 C445 1.404 . S
C444 C447 1.539 . S
C445 C441 1.408 . S
C445 C444 1.404 . S
C445 H457 0.930 . S
C446 C442 1.520 1_556 S
C446 H458 0.956 . S
C446 H459 0.976 . S
C446 H460 0.961 . S
C447 C444 1.539 . S
C447 H461 0.958 . S
C447 H462 0.961 . S
C447 H463 0.960 . S
H448 C432 0.931 . S
H449 C437 0.929 . S
H450 C438 0.960 . S
H451 C438 0.962 . S
H452 C438 0.960 1_455 S
H453 C439 0.961 1_455 S
H454 C439 0.961 . S
H455 C439 0.961 . S
H456 C440 0.931 . S
H457 C445 0.930 . S
H458 C446 0.956 . S
H459 C446 0.976 . S
H460 C446 0.961 . S
H461 C447 0.958 . S
H462 C447 0.961 . S
H463 C447 0.960 . S
C464 C465 1.391 . S
C464 C466 1.394 . S
C464 H480 0.931 . S
C465 C464 1.391 . S
C465 C469 1.376 . S
C466 C464 1.394 . S
C466 C467 1.369 . S
C466 C470 1.531 . S
C467 C466 1.369 . S
C467 C468 1.410 . S
C467 C475 1.503 . S
C468 C467 1.410 . S
C468 C469 1.392 . S
C468 C471 1.511 . S
C469 C465 1.376 . S
C469 C468 1.392 . S
C469 H481 0.929 . S
C470 C466 1.531 . S
C470 H482 0.960 . S
C470 H483 0.962 . S
C470 H484 0.960 . S
C471 C468 1.511 . S
C471 H485 0.961 . S
C471 H486 0.961 . S
C471 H487 0.961 . S
C472 C473 1.370 . S
C472 C474 1.363 . S
C472 H488 0.931 . S
C473 C472 1.370 . S
C473 C477 1.408 . S
C474 C472 1.363 . S
C474 C475 1.370 1_655 S
C474 C478 1.524 1_655 S
C475 C467 1.503 . S
C475 C474 1.370 1_455 S
C475 C476 1.403 1_455 S
C476 C475 1.403 1_655 S
C476 C477 1.404 . S
C476 C479 1.539 1_655 S
C477 C473 1.408 . S
C477 C476 1.404 . S
C477 H489 0.930 . S
C478 C474 1.524 1_455 S
C478 H490 0.956 . S
C478 H491 0.961 . S
C478 H492 0.961 1_455 S
C479 C476 1.539 1_455 S
C479 H493 0.958 . S
C479 H494 0.961 1_455 S
C479 H495 0.960 . S
H480 C464 0.931 . S
H481 C469 0.929 . S
H482 C470 0.960 . S
H483 C470 0.962 . S
H484 C470 0.960 . S
H485 C471 0.961 . S
H486 C471 0.961 . S
H487 C471 0.961 . S
H488 C472 0.931 . S
H489 C477 0.930 . S
H490 C478 0.956 . S
H491 C478 0.961 . S
H492 C478 0.961 1_655 S
H493 C479 0.958 . S
H494 C479 0.961 1_655 S
H495 C479 0.960 . S
C496 C497 1.391 . S
C496 C498 1.394 . S
C496 H512 0.931 . S
C497 C496 1.391 . S
C497 C501 1.376 . S
C498 C496 1.394 . S
C498 C499 1.369 . S
C498 C502 1.531 . S
C499 C498 1.369 . S
C499 C500 1.410 . S
C499 C507 1.503 . S
C500 C499 1.410 . S
C500 C501 1.392 . S
C500 C503 1.511 . S
C501 C497 1.376 . S
C501 C500 1.392 . S
C501 H513 0.929 . S
C502 C498 1.531 . S
C502 H514 0.960 . S
C502 H515 0.962 . S
C502 H516 0.960 . S
C503 C500 1.511 . S
C503 H517 0.961 . S
C503 H518 0.961 . S
C503 H519 0.961 . S
C504 C505 1.370 . S
C504 C506 1.363 . S
C504 H520 0.931 . S
C505 C504 1.370 . S
C505 C509 1.408 . S
C506 C504 1.363 . S
C506 C507 1.370 1_455 S
C506 C510 1.524 1_455 S
C507 C499 1.503 . S
C507 C506 1.370 1_655 S
C507 C508 1.403 1_655 S
C508 C507 1.403 1_455 S
C508 C509 1.404 . S
C508 C511 1.539 1_455 S
C509 C505 1.408 . S
C509 C508 1.404 . S
C509 H521 0.930 . S
C510 C506 1.524 1_655 S
C510 H522 0.956 . S
C510 H523 0.961 . S
C510 H524 0.961 1_655 S
C511 C508 1.539 1_655 S
C511 H525 0.958 . S
C511 H526 0.961 1_655 S
C511 H527 0.960 . S
H512 C496 0.931 . S
H513 C501 0.929 . S
H514 C502 0.960 . S
H515 C502 0.962 . S
H516 C502 0.960 . S
H517 C503 0.961 . S
H518 C503 0.961 . S
H519 C503 0.961 . S
H520 C504 0.931 . S
H521 C509 0.930 . S
H522 C510 0.956 . S
H523 C510 0.961 . S
H524 C510 0.961 1_455 S
H525 C511 0.958 . S
H526 C511 0.961 1_455 S
H527 C511 0.960 . S
C528 C529 1.391 . S
C528 C530 1.394 . S
C528 H544 0.931 1_655 S
C529 C528 1.391 . S
C529 C533 1.376 1_554 S
C530 C528 1.394 . S
C530 C531 1.369 . S
C530 C534 1.531 1_655 S
C531 C530 1.369 . S
C531 C532 1.410 1_554 S
C531 C539 1.503 . S
C532 C531 1.410 1_556 S
C532 C533 1.392 . S
C532 C535 1.511 . S
C533 C529 1.376 1_556 S
C533 C532 1.392 . S
C533 H545 0.929 . S
C534 C530 1.531 1_455 S
C534 H546 0.960 1_455 S
C534 H547 0.962 . S
C534 H548 0.960 . S
C535 C532 1.511 . S
C535 H549 0.961 . S
C535 H550 0.961 . S
C535 H551 0.961 . S
C536 C537 1.370 . S
C536 C538 1.363 . S
C536 H552 0.931 . S
C537 C536 1.370 . S
C537 C541 1.408 1_455 S
C538 C536 1.363 . S
C538 C539 1.370 1_455 S
C538 C542 1.529 . S
C539 C531 1.503 . S
C539 C538 1.370 1_655 S
C539 C540 1.403 . S
C540 C539 1.403 . S
C540 C541 1.404 . S
C540 C543 1.539 . S
C541 C537 1.408 1_655 S
C541 C540 1.404 . S
C541 H553 0.930 . S
C542 C538 1.529 . S
C542 H554 0.972 . S
C542 H555 0.947 1_554 S
C542 H556 0.954 1_554 S
C543 C540 1.539 . S
C543 H557 0.958 . S
C543 H558 0.961 . S
C543 H559 0.960 . S
H544 C528 0.931 1_455 S
H545 C533 0.929 . S
H546 C534 0.960 1_655 S
H547 C534 0.962 . S
H548 C534 0.960 . S
H549 C535 0.961 . S
H550 C535 0.961 . S
H551 C535 0.961 . S
H552 C536 0.931 . S
H553 C541 0.930 . S
H554 C542 0.972 . S
H555 C542 0.947 1_556 S
H556 C542 0.954 1_556 S
H557 C543 0.958 . S
H558 C543 0.961 . S
H559 C543 0.960 . S
C560 C561 1.391 . S
C560 C562 1.394 . S
C560 H576 0.931 . S
C561 C560 1.391 . S
C561 C565 1.376 1_655 S
C562 C560 1.394 . S
C562 C563 1.369 . S
C562 C566 1.531 . S
C563 C562 1.369 . S
C563 C564 1.410 1_655 S
C563 C571 1.503 1_655 S
C564 C563 1.410 1_455 S
C564 C565 1.392 . S
C564 C567 1.511 . S
C565 C561 1.376 1_455 S
C565 C564 1.392 . S
C565 H577 0.929 . S
C566 C562 1.531 . S
C566 H578 0.960 . S
C566 H579 0.962 . S
C566 H580 0.960 . S
C567 C564 1.511 . S
C567 H581 0.961 . S
C567 H582 0.961 . S
C567 H583 0.961 . S
C568 C569 1.370 . S
C568 C570 1.363 . S
C568 H584 0.931 . S
C569 C568 1.370 . S
C569 C573 1.408 . S
C570 C568 1.363 . S
C570 C571 1.370 . S
C570 C574 1.524 1_455 S
C571 C563 1.503 1_455 S
C571 C570 1.370 . S
C571 C572 1.403 . S
C572 C571 1.403 . S
C572 C573 1.404 . S
C572 C575 1.539 . S
C573 C569 1.408 . S
C573 C572 1.404 . S
C573 H585 0.930 . S
C574 C570 1.524 1_655 S
C574 H586 0.956 . S
C574 H587 0.961 1_655 S
C574 H588 0.962 . S
C575 C572 1.539 . S
C575 H589 0.958 1_455 S
C575 H590 0.961 . S
C575 H591 0.960 . S
H576 C560 0.931 . S
H577 C565 0.929 . S
H578 C566 0.960 . S
H579 C566 0.962 . S
H580 C566 0.960 . S
H581 C567 0.961 . S
H582 C567 0.961 . S
H583 C567 0.961 . S
H584 C568 0.931 . S
H585 C573 0.930 . S
H586 C574 0.956 . S
H587 C574 0.961 1_455 S
H588 C574 0.962 . S
H589 C575 0.958 1_655 S
H590 C575 0.961 . S
H591 C575 0.960 . S
C592 C593 1.391 . S
C592 C594 1.394 . S
C592 H608 0.931 . S
C593 C592 1.391 . S
C593 C597 1.376 . S
C594 C592 1.394 . S
C594 C595 1.369 . S
C594 C598 1.531 . S
C595 C594 1.369 . S
C595 C596 1.410 . S
C595 C603 1.503 1_565 S
C596 C595 1.410 . S
C596 C597 1.392 . S
C596 C599 1.511 . S
C597 C593 1.376 . S
C597 C596 1.392 . S
C597 H609 0.929 . S
C598 C594 1.531 . S
C598 H610 0.960 . S
C598 H611 0.962 . S
C598 H612 0.960 . S
C599 C596 1.511 . S
C599 H613 0.961 1_554 S
C599 H614 0.961 1_565 S
C599 H615 0.961 . S
C600 C601 1.370 1_556 S
C600 C602 1.363 . S
C600 H616 0.931 . S
C601 C600 1.370 1_554 S
C601 C605 1.408 . S
C602 C600 1.363 . S
C602 C603 1.370 1_556 S
C602 C606 1.524 . S
C603 C595 1.503 1_545 S
C603 C602 1.370 1_554 S
C603 C604 1.403 . S
C604 C603 1.403 . S
C604 C605 1.404 . S
C604 C607 1.539 . S
C605 C601 1.408 . S
C605 C604 1.404 . S
C605 H617 0.930 . S
C606 C602 1.524 . S
C606 H618 0.981 . S
C606 H619 0.982 . S
C606 H620 0.961 . S
C607 C604 1.539 . S
C607 H621 0.958 . S
C607 H622 0.961 . S
C607 H623 0.954 1_545 S
H608 C592 0.931 . S
H609 C597 0.929 . S
H610 C598 0.960 . S
H611 C598 0.962 . S
H612 C598 0.960 . S
H613 C599 0.961 1_556 S
H614 C599 0.961 1_545 S
H615 C599 0.961 . S
H616 C600 0.931 . S
H617 C605 0.930 . S
H618 C606 0.981 . S
H619 C606 0.982 . S
H620 C606 0.961 . S
H621 C607 0.958 . S
H622 C607 0.961 . S
H623 C607 0.954 1_565 S
C624 C625 1.391 . S
C624 C626 1.394 . S
C624 H640 0.931 . S
C625 C624 1.391 . S
C625 C629 1.376 . S
C626 C624 1.394 . S
C626 C627 1.369 . S
C626 C630 1.531 . S
C627 C626 1.369 . S
C627 C628 1.410 . S
C627 C635 1.503 1_545 S
C628 C627 1.410 . S
C628 C629 1.392 . S
C628 C631 1.511 . S
C629 C625 1.376 . S
C629 C628 1.392 . S
C629 H641 0.929 . S
C630 C626 1.531 . S
C630 H642 0.960 1_545 S
C630 H643 0.962 . S
C630 H644 0.960 . S
C631 C628 1.511 . S
C631 H645 0.961 . S
C631 H646 0.986 . S
C631 H647 0.961 . S
C632 C633 1.370 . S
C632 C634 1.363 . S
C632 H648 0.931 . S
C633 C632 1.370 . S
C633 C637 1.408 . S
C634 C632 1.363 . S
C634 C635 1.370 . S
C634 C638 1.524 . S
C635 C627 1.503 1_565 S
C635 C634 1.370 . S
C635 C636 1.403 . S
C636 C635 1.403 . S
C636 C637 1.404 . S
C636 C639 1.539 . S
C637 C633 1.408 . S
C637 C636 1.404 . S
C637 H649 0.930 . S
C638 C634 1.524 . S
C638 H650 0.956 . S
C638 H651 0.927 1_565 S
C638 H652 0.961 . S
C639 C636 1.539 . S
C639 H653 0.958 . S
C639 H654 0.961 . S
C639 H655 0.960 1_565 S
H640 C624 0.931 . S
H641 C629 0.929 . S
H642 C630 0.960 1_565 S
H643 C630 0.962 . S
H644 C630 0.960 . S
H645 C631 0.961 . S
H646 C631 0.986 . S
H647 C631 0.961 . S
H648 C632 0.931 . S
H649 C637 0.930 . S
H650 C638 0.956 . S
H651 C638 0.927 1_545 S
H652 C638 0.961 . S
H653 C639 0.958 . S
H654 C639 0.961 . S
H655 C639 0.960 1_545 S
C656 C657 1.391 . S
C656 C658 1.394 . S
C656 H672 0.931 . S
C657 C656 1.391 . S
C657 C661 1.376 . S
C658 C656 1.394 . S
C658 C659 1.369 . S
C658 C662 1.531 . S
C659 C658 1.369 . S
C659 C660 1.410 . S
C659 C667 1.503 . S
C660 C659 1.410 . S
C660 C661 1.392 . S
C660 C663 1.511 . S
C661 C657 1.376 . S
C661 C660 1.392 . S
C661 H673 0.929 . S
C662 C658 1.531 . S
C662 H674 0.960 . S
C662 H675 0.962 . S
C662 H676 0.960 . S
C663 C660 1.511 . S
C663 H677 0.952 1_554 S
C663 H678 0.961 . S
C663 H679 0.961 . S
C664 C665 1.370 1_556 S
C664 C666 1.363 . S
C664 H680 0.931 . S
C665 C664 1.370 1_554 S
C665 C669 1.408 . S
C666 C664 1.363 . S
C666 C667 1.370 1_556 S
C666 C670 1.524 . S
C667 C659 1.503 . S
C667 C666 1.370 1_554 S
C667 C668 1.403 . S
C668 C667 1.403 . S
C668 C669 1.404 . S
C668 C671 1.539 . S
C669 C665 1.408 . S
C669 C668 1.404 . S
C669 H681 0.930 . S
C670 C666 1.524 . S
C670 H682 0.956 . S
C670 H683 0.961 . S
C670 H684 0.961 . S
C671 C668 1.539 . S
C671 H685 0.958 . S
C671 H686 0.961 . S
C671 H687 0.960 . S
H672 C656 0.931 . S
H673 C661 0.929 . S
H674 C662 0.960 . S
H675 C662 0.962 . S
H676 C662 0.960 . S
H677 C663 0.952 1_556 S
H678 C663 0.961 . S
H679 C663 0.961 . S
H680 C664 0.931 . S
H681 C669 0.930 . S
H682 C670 0.956 . S
H683 C670 0.961 . S
H684 C670 0.961 . S
H685 C671 0.958 . S
H686 C671 0.961 . S
H687 C671 0.960 . S
C688 C689 1.391 1_556 S
C688 C690 1.394 . S
C688 H704 0.931 . S
C689 C688 1.391 1_554 S
C689 C693 1.376 . S
C690 C688 1.394 . S
C690 C691 1.369 1_556 S
C690 C694 1.531 . S
C691 C690 1.369 1_554 S
C691 C692 1.410 . S
C691 C699 1.503 . S
C692 C691 1.410 . S
C692 C693 1.392 . S
C692 C695 1.511 . S
C693 C689 1.376 . S
C693 C692 1.392 . S
C693 H705 0.929 . S
C694 C690 1.531 . S
C694 H706 0.960 . S
C694 H707 0.962 . S
C694 H708 0.960 . S
C695 C692 1.511 . S
C695 H709 0.961 . S
C695 H710 0.961 . S
C695 H711 0.961 . S
C696 C697 1.370 . S
C696 C698 1.363 . S
C696 H712 0.931 . S
C697 C696 1.370 . S
C697 C701 1.408 1_554 S
C698 C696 1.363 . S
C698 C699 1.370 . S
C698 C702 1.524 . S
C699 C691 1.503 . S
C699 C698 1.370 . S
C699 C700 1.403 1_554 S
C700 C699 1.403 1_556 S
C700 C701 1.404 . S
C700 C703 1.539 . S
C701 C697 1.408 1_556 S
C701 C700 1.404 . S
C701 H713 0.930 . S
C702 C698 1.524 . S
C702 H714 0.956 . S
C702 H715 0.961 . S
C702 H716 0.961 . S
C703 C700 1.539 . S
C703 H717 0.958 . S
C703 H718 0.961 . S
C703 H719 0.960 . S
H704 C688 0.931 . S
H705 C693 0.929 . S
H706 C694 0.960 . S
H707 C694 0.962 . S
H708 C694 0.960 . S
H709 C695 0.961 . S
H710 C695 0.961 . S
H711 C695 0.961 . S
H712 C696 0.931 . S
H713 C701 0.930 . S
H714 C702 0.956 . S
H715 C702 0.961 . S
H716 C702 0.961 . S
H717 C703 0.958 . S
H718 C703 0.961 . S
H719 C703 0.960 . S
C720 C721 1.391 . S
C720 C722 1.394 . S
C720 H736 0.931 . S
C721 C720 1.391 . S
C721 C725 1.376 . S
C722 C720 1.394 . S
C722 C723 1.369 . S
C722 C726 1.531 . S
C723 C722 1.369 . S
C723 C724 1.410 . S
C723 C731 1.503 . S
C724 C723 1.410 . S
C724 C725 1.392 . S
C724 C727 1.511 . S
C725 C721 1.376 . S
C725 C724 1.392 . S
C725 H737 0.929 . S
C726 C722 1.531 . S
C726 H738 0.960 . S
C726 H739 0.962 . S
C726 H740 0.960 . S
C727 C724 1.511 . S
C727 H741 0.961 . S
C727 H742 0.961 . S
C727 H743 0.961 . S
C728 C729 1.370 . S
C728 C730 1.363 . S
C728 H744 0.931 . S
C729 C728 1.370 . S
C729 C733 1.408 . S
C730 C728 1.363 . S
C730 C731 1.370 . S
C730 C734 1.524 . S
C731 C723 1.503 . S
C731 C730 1.370 . S
C731 C732 1.403 . S
C732 C731 1.403 . S
C732 C733 1.404 . S
C732 C735 1.539 . S
C733 C729 1.408 . S
C733 C732 1.404 . S
C733 H745 0.930 . S
C734 C730 1.524 . S
C734 H746 0.956 . S
C734 H747 0.961 . S
C734 H748 0.961 . S
C735 C732 1.539 . S
C735 H749 0.958 . S
C735 H750 0.961 . S
C735 H751 0.960 . S
H736 C720 0.931 . S
H737 C725 0.929 . S
H738 C726 0.960 . S
H739 C726 0.962 . S
H740 C726 0.960 . S
H741 C727 0.961 . S
H742 C727 0.961 . S
H743 C727 0.961 . S
H744 C728 0.931 . S
H745 C733 0.930 . S
H746 C734 0.956 . S
H747 C734 0.961 . S
H748 C734 0.961 . S
H749 C735 0.958 . S
H750 C735 0.961 . S
H751 C735 0.960 . S
C752 C753 1.391 . S
C752 C754 1.394 . S
C752 H768 0.931 . S
C753 C752 1.391 . S
C753 C757 1.376 . S
C754 C752 1.394 . S
C754 C755 1.369 . S
C754 C758 1.531 . S
C755 C754 1.369 . S
C755 C756 1.410 . S
C755 C763 1.503 . S
C756 C755 1.410 . S
C756 C757 1.392 . S
C756 C759 1.511 . S
C757 C753 1.376 . S
C757 C756 1.392 . S
C757 H769 0.929 . S
C758 C754 1.531 . S
C758 H770 0.960 . S
C758 H771 0.962 . S
C758 H772 0.960 . S
C759 C756 1.511 . S
C759 H773 0.961 . S
C759 H774 0.961 . S
C759 H775 0.961 . S
C760 C761 1.370 . S
C760 C762 1.363 . S
C760 H776 0.931 . S
C761 C760 1.370 . S
C761 C765 1.408 . S
C762 C760 1.363 . S
C762 C763 1.370 . S
C762 C766 1.524 . S
C763 C755 1.503 . S
C763 C762 1.370 . S
C763 C764 1.403 . S
C764 C763 1.403 . S
C764 C765 1.404 . S
C764 C767 1.539 . S
C765 C761 1.408 . S
C765 C764 1.404 . S
C765 H777 0.930 . S
C766 C762 1.524 . S
C766 H778 0.956 . S
C766 H779 0.961 . S
C766 H780 0.961 . S
C767 C764 1.539 . S
C767 H781 0.958 . S
C767 H782 0.961 . S
C767 H783 0.960 . S
H768 C752 0.931 . S
H769 C757 0.929 . S
H770 C758 0.960 . S
H771 C758 0.962 . S
H772 C758 0.960 . S
H773 C759 0.961 . S
H774 C759 0.961 . S
H775 C759 0.961 . S
H776 C760 0.931 . S
H777 C765 0.930 . S
H778 C766 0.956 . S
H779 C766 0.961 . S
H780 C766 0.961 . S
H781 C767 0.958 . S
H782 C767 0.961 . S
H783 C767 0.960 . S
C784 C785 1.391 . S
C784 C786 1.394 . S
C784 H800 0.931 . S
C785 C784 1.391 . S
C785 C789 1.376 . S
C786 C784 1.394 . S
C786 C787 1.369 . S
C786 C790 1.531 1_455 S
C787 C786 1.369 . S
C787 C788 1.410 . S
C787 C795 1.503 . S
C788 C787 1.410 . S
C788 C789 1.392 . S
C788 C791 1.511 . S
C789 C785 1.376 . S
C789 C788 1.392 . S
C789 H801 0.929 . S
C790 C786 1.531 1_655 S
C790 H802 0.960 1_655 S
C790 H803 0.962 . S
C790 H804 0.960 1_655 S
C791 C788 1.511 . S
C791 H805 0.961 . S
C791 H806 0.961 . S
C791 H807 0.961 . S
C792 C793 1.370 . S
C792 C794 1.363 . S
C792 H808 0.931 . S
C793 C792 1.370 . S
C793 C797 1.408 1_655 S
C794 C792 1.363 . S
C794 C795 1.370 1_655 S
C794 C798 1.524 . S
C795 C787 1.503 . S
C795 C794 1.370 1_455 S
C795 C796 1.403 . S
C796 C795 1.403 . S
C796 C797 1.404 . S
C796 C799 1.539 . S
C797 C793 1.408 1_455 S
C797 C796 1.404 . S
C797 H809 0.930 . S
C798 C794 1.524 . S
C798 H810 0.956 . S
C798 H811 0.961 . S
C798 H812 0.961 . S
C799 C796 1.539 . S
C799 H813 0.958 . S
C799 H814 0.961 . S
C799 H815 0.960 . S
H800 C784 0.931 . S
H801 C789 0.929 . S
H802 C790 0.960 1_455 S
H803 C790 0.962 . S
H804 C790 0.960 1_455 S
H805 C791 0.961 . S
H806 C791 0.961 . S
H807 C791 0.961 . S
H808 C792 0.931 . S
H809 C797 0.930 . S
H810 C798 0.956 . S
H811 C798 0.961 . S
H812 C798 0.961 . S
H813 C799 0.958 . S
H814 C799 0.961 . S
H815 C799 0.960 . S
C816 C817 1.391 . S
C816 C818 1.394 . S
C816 H832 0.931 . S
C817 C816 1.391 . S
C817 C821 1.376 1_655 S
C818 C816 1.394 . S
C818 C819 1.369 . S
C818 C822 1.531 . S
C819 C818 1.369 . S
C819 C820 1.410 1_655 S
C819 C827 1.503 1_655 S
C820 C819 1.410 1_455 S
C820 C821 1.392 . S
C820 C823 1.511 . S
C821 C817 1.376 1_455 S
C821 C820 1.392 . S
C821 H833 0.929 . S
C822 C818 1.531 . S
C822 H834 0.960 . S
C822 H835 0.962 . S
C822 H836 0.960 . S
C823 C820 1.511 . S
C823 H837 0.961 . S
C823 H838 0.961 . S
C823 H839 0.961 . S
C824 C825 1.370 . S
C824 C826 1.363 . S
C824 H840 0.931 . S
C825 C824 1.370 . S
C825 C829 1.408 . S
C826 C824 1.363 . S
C826 C827 1.370 . S
C826 C830 1.524 . S
C827 C819 1.503 1_455 S
C827 C826 1.370 . S
C827 C828 1.403 1_455 S
C828 C827 1.403 1_655 S
C828 C829 1.404 1_655 S
C828 C831 1.539 . S
C829 C825 1.408 . S
C829 C828 1.404 1_455 S
C829 H841 0.930 . S
C830 C826 1.524 . S
C830 H842 0.956 1_455 S
C830 H843 0.961 . S
C830 H844 0.961 . S
C831 C828 1.539 . S
C831 H845 0.958 . S
C831 H846 0.961 1_655 S
C831 H847 0.960 . S
H832 C816 0.931 . S
H833 C821 0.929 . S
H834 C822 0.960 . S
H835 C822 0.962 . S
H836 C822 0.960 . S
H837 C823 0.961 . S
H838 C823 0.961 . S
H839 C823 0.961 . S
H840 C824 0.931 . S
H841 C829 0.930 . S
H842 C830 0.956 1_655 S
H843 C830 0.961 . S
H844 C830 0.961 . S
H845 C831 0.958 . S
H846 C831 0.961 1_455 S
H847 C831 0.960 . S
C848 C849 1.391 . S
C848 C850 1.394 1_655 S
C848 H864 0.931 1_655 S
C849 C848 1.391 . S
C849 C853 1.376 . S
C850 C848 1.394 1_455 S
C850 C851 1.369 1_455 S
C850 C854 1.531 . S
C851 C850 1.369 1_655 S
C851 C852 1.410 . S
C851 C859 1.503 . S
C852 C851 1.410 . S
C852 C853 1.392 . S
C852 C855 1.511 . S
C853 C849 1.376 . S
C853 C852 1.392 . S
C853 H865 0.929 . S
C854 C850 1.531 . S
C854 H866 0.960 . S
C854 H867 0.962 . S
C854 H868 0.960 . S
C855 C852 1.511 . S
C855 H869 0.961 . S
C855 H870 0.961 . S
C855 H871 0.961 . S
C856 C857 1.370 . S
C856 C858 1.363 . S
C856 H872 0.931 . S
C857 C856 1.370 . S
C857 C861 1.408 1_455 S
C858 C856 1.363 . S
C858 C859 1.370 1_455 S
C858 C862 1.524 . S
C859 C851 1.503 . S
C859 C858 1.370 1_655 S
C859 C860 1.403 . S
C860 C859 1.403 . S
C860 C861 1.404 . S
C860 C863 1.539 . S
C861 C857 1.408 1_655 S
C861 C860 1.404 . S
C861 H873 0.930 . S
C862 C858 1.524 . S
C862 H874 0.956 . S
C862 H875 0.961 . S
C862 H876 0.961 . S
C863 C860 1.539 . S
C863 H877 0.958 . S
C863 H878 0.961 . S
C863 H879 0.960 . S
H864 C848 0.931 1_455 S
H865 C853 0.929 . S
H866 C854 0.960 . S
H867 C854 0.962 . S
H868 C854 0.960 . S
H869 C855 0.961 . S
H870 C855 0.961 . S
H871 C855 0.961 . S
H872 C856 0.931 . S
H873 C861 0.930 . S
H874 C862 0.956 . S
H875 C862 0.961 . S
H876 C862 0.961 . S
H877 C863 0.958 . S
H878 C863 0.961 . S
H879 C863 0.960 . S
C880 C881 1.391 . S
C880 C882 1.394 . S
C880 H896 0.931 . S
C881 C880 1.391 . S
C881 C885 1.376 1_655 S
C882 C880 1.394 . S
C882 C883 1.369 1_655 S
C882 C886 1.531 . S
C883 C882 1.369 1_455 S
C883 C884 1.410 . S
C883 C891 1.503 . S
C884 C883 1.410 . S
C884 C885 1.392 . S
C884 C887 1.511 . S
C885 C881 1.376 1_455 S
C885 C884 1.392 . S
C885 H897 0.929 . S
C886 C882 1.531 . S
C886 H898 0.960 . S
C886 H899 0.962 . S
C886 H900 0.960 . S
C887 C884 1.511 . S
C887 H901 0.961 . S
C887 H902 0.961 . S
C887 H903 0.961 . S
C888 C889 1.370 1_655 S
C888 C890 1.363 . S
C888 H904 0.931 . S
C889 C888 1.370 1_455 S
C889 C893 1.408 . S
C890 C888 1.363 . S
C890 C891 1.370 1_655 S
C890 C894 1.524 . S
C891 C883 1.503 . S
C891 C890 1.370 1_455 S
C891 C892 1.403 . S
C892 C891 1.403 . S
C892 C893 1.404 . S
C892 C895 1.539 . S
C893 C889 1.408 . S
C893 C892 1.404 . S
C893 H905 0.930 . S
C894 C890 1.524 . S
C894 H906 0.956 . S
C894 H907 0.961 . S
C894 H908 0.961 . S
C895 C892 1.539 . S
C895 H909 0.958 . S
C895 H910 0.961 . S
C895 H911 0.960 . S
H896 C880 0.931 . S
H897 C885 0.929 . S
H898 C886 0.960 . S
H899 C886 0.962 . S
H900 C886 0.960 . S
H901 C887 0.961 . S
H902 C887 0.961 . S
H903 C887 0.961 . S
H904 C888 0.931 . S
H905 C893 0.930 . S
H906 C894 0.956 . S
H907 C894 0.961 . S
H908 C894 0.961 . S
H909 C895 0.958 . S
H910 C895 0.961 . S
H911 C895 0.960 . S
C912 C913 1.391 . S
C912 C914 1.394 . S
C912 H928 0.931 . S
C913 C912 1.391 . S
C913 C917 1.376 . S
C914 C912 1.394 . S
C914 C915 1.369 . S
C914 C918 1.531 . S
C915 C914 1.369 . S
C915 C916 1.410 . S
C915 C923 1.503 . S
C916 C915 1.410 . S
C916 C917 1.392 . S
C916 C919 1.511 . S
C917 C913 1.376 . S
C917 C916 1.392 . S
C917 H929 0.929 . S
C918 C914 1.531 . S
C918 H930 0.960 . S
C918 H931 0.962 . S
C918 H932 0.960 . S
C919 C916 1.511 . S
C919 H933 0.961 . S
C919 H934 0.961 . S
C919 H935 0.961 . S
C920 C921 1.370 . S
C920 C922 1.363 . S
C920 H936 0.931 . S
C921 C920 1.370 . S
C921 C925 1.408 . S
C922 C920 1.363 . S
C922 C923 1.370 . S
C922 C926 1.524 . S
C923 C915 1.503 . S
C923 C922 1.370 . S
C923 C924 1.403 . S
C924 C923 1.403 . S
C924 C925 1.404 . S
C924 C927 1.539 . S
C925 C921 1.408 . S
C925 C924 1.404 . S
C925 H937 0.930 . S
C926 C922 1.524 . S
C926 H938 0.956 . S
C926 H939 0.961 . S
C926 H940 0.961 . S
C927 C924 1.539 . S
C927 H941 0.958 . S
C927 H942 0.961 . S
C927 H943 0.960 . S
H928 C912 0.931 . S
H929 C917 0.929 . S
H930 C918 0.960 . S
H931 C918 0.962 . S
H932 C918 0.960 . S
H933 C919 0.961 . S
H934 C919 0.961 . S
H935 C919 0.961 . S
H936 C920 0.931 . S
H937 C925 0.930 . S
H938 C926 0.956 . S
H939 C926 0.961 . S
H940 C926 0.961 . S
H941 C927 0.958 . S
H942 C927 0.961 . S
H943 C927 0.960 . S
C944 C945 1.391 . S
C944 C946 1.394 . S
C944 H960 0.931 . S
C945 C944 1.391 . S
C945 C949 1.376 . S
C946 C944 1.394 . S
C946 C947 1.369 . S
C946 C950 1.531 . S
C947 C946 1.369 . S
C947 C948 1.410 . S
C947 C955 1.503 . S
C948 C947 1.410 . S
C948 C949 1.392 . S
C948 C951 1.511 . S
C949 C945 1.376 . S
C949 C948 1.392 . S
C949 H961 0.929 . S
C950 C946 1.531 . S
C950 H962 0.960 . S
C950 H963 0.962 . S
C950 H964 0.960 . S
C951 C948 1.511 . S
C951 H965 0.961 . S
C951 H966 0.961 . S
C951 H967 0.961 . S
C952 C953 1.370 . S
C952 C954 1.363 . S
C952 H968 0.931 . S
C953 C952 1.370 . S
C953 C957 1.408 . S
C954 C952 1.363 . S
C954 C955 1.370 . S
C954 C958 1.524 . S
C955 C947 1.503 . S
C955 C954 1.370 . S
C955 C956 1.403 . S
C956 C955 1.403 . S
C956 C957 1.404 . S
C956 C959 1.539 . S
C957 C953 1.408 . S
C957 C956 1.404 . S
C957 H969 0.930 . S
C958 C954 1.524 . S
C958 H970 0.956 . S
C958 H971 0.961 . S
C958 H972 0.961 . S
C959 C956 1.539 . S
C959 H973 0.958 . S
C959 H974 0.961 . S
C959 H975 0.960 . S
H960 C944 0.931 . S
H961 C949 0.929 . S
H962 C950 0.960 . S
H963 C950 0.962 . S
H964 C950 0.960 . S
H965 C951 0.961 . S
H966 C951 0.961 . S
H967 C951 0.961 . S
H968 C952 0.931 . S
H969 C957 0.930 . S
H970 C958 0.956 . S
H971 C958 0.961 . S
H972 C958 0.961 . S
H973 C959 0.958 . S
H974 C959 0.961 . S
H975 C959 0.960 . S
C976 C977 1.391 . S
C976 C978 1.394 . S
C976 H992 0.931 . S
C977 C976 1.391 . S
C977 C981 1.376 . S
C978 C976 1.394 . S
C978 C979 1.369 . S
C978 C982 1.531 . S
C979 C978 1.369 . S
C979 C980 1.410 . S
C979 C987 1.503 . S
C980 C979 1.410 . S
C980 C981 1.392 . S
C980 C983 1.511 . S
C981 C977 1.376 . S
C981 C980 1.392 . S
C981 H993 0.929 . S
C982 C978 1.531 . S
C982 H994 0.960 . S
C982 H995 0.962 . S
C982 H996 0.960 . S
C983 C980 1.511 . S
C983 H997 0.961 . S
C983 H998 0.961 . S
C983 H999 0.961 . S
C984 C985 1.370 . S
C984 C986 1.363 . S
C984 H1000 0.931 . S
C985 C984 1.370 . S
C985 C989 1.408 . S
C986 C984 1.363 . S
C986 C987 1.370 . S
C986 C990 1.524 . S
C987 C979 1.503 . S
C987 C986 1.370 . S
C987 C988 1.403 . S
C988 C987 1.403 . S
C988 C989 1.404 . S
C988 C991 1.539 . S
C989 C985 1.408 . S
C989 C988 1.404 . S
C989 H1001 0.930 . S
C990 C986 1.524 . S
C990 H1002 0.956 . S
C990 H1003 0.961 . S
C990 H1004 0.961 . S
C991 C988 1.539 . S
C991 H1005 0.958 . S
C991 H1006 0.961 . S
C991 H1007 0.960 . S
H992 C976 0.931 . S
H993 C981 0.929 . S
H994 C982 0.960 . S
H995 C982 0.962 . S
H996 C982 0.960 . S
H997 C983 0.961 . S
H998 C983 0.961 . S
H999 C983 0.961 . S
H1000 C984 0.931 . S
H1001 C989 0.930 . S
H1002 C990 0.956 . S
H1003 C990 0.961 . S
H1004 C990 0.961 . S
H1005 C991 0.958 . S
H1006 C991 0.961 . S
H1007 C991 0.960 . S
C1008 C1009 1.391 . S
C1008 C1010 1.394 . S
C1008 H1024 0.931 . S
C1009 C1008 1.391 . S
C1009 C1013 1.376 . S
C1010 C1008 1.394 . S
C1010 C1011 1.369 . S
C1010 C1014 1.531 . S
C1011 C1010 1.369 . S
C1011 C1012 1.410 . S
C1011 C1019 1.503 . S
C1012 C1011 1.410 . S
C1012 C1013 1.392 . S
C1012 C1015 1.511 . S
C1013 C1009 1.376 . S
C1013 C1012 1.392 . S
C1013 H1025 0.929 . S
C1014 C1010 1.531 . S
C1014 H1026 0.960 . S
C1014 H1027 0.962 . S
C1014 H1028 0.960 . S
C1015 C1012 1.511 . S
C1015 H1029 0.961 . S
C1015 H1030 0.961 . S
C1015 H1031 0.961 . S
C1016 C1017 1.370 . S
C1016 C1018 1.363 . S
C1016 H1032 0.931 . S
C1017 C1016 1.370 . S
C1017 C1021 1.408 . S
C1018 C1016 1.363 . S
C1018 C1019 1.370 . S
C1018 C1022 1.524 . S
C1019 C1011 1.503 . S
C1019 C1018 1.370 . S
C1019 C1020 1.403 . S
C1020 C1019 1.403 . S
C1020 C1021 1.404 . S
C1020 C1023 1.539 . S
C1021 C1017 1.408 . S
C1021 C1020 1.404 . S
C1021 H1033 0.930 . S
C1022 C1018 1.524 . S
C1022 H1034 0.956 . S
C1022 H1035 0.961 . S
C1022 H1036 0.961 . S
C1023 C1020 1.539 . S
C1023 H1037 0.958 . S
C1023 H1038 0.961 . S
C1023 H1039 0.960 . S
H1024 C1008 0.931 . S
H1025 C1013 0.929 . S
H1026 C1014 0.960 . S
H1027 C1014 0.962 . S
H1028 C1014 0.960 . S
H1029 C1015 0.961 . S
H1030 C1015 0.961 . S
H1031 C1015 0.961 . S
H1032 C1016 0.931 . S
H1033 C1021 0.930 . S
H1034 C1022 0.956 . S
H1035 C1022 0.961 . S
H1036 C1022 0.961 . S
H1037 C1023 0.958 . S
H1038 C1023 0.961 . S
H1039 C1023 0.960 . S
C273 C17 1.179 . S
C281 C8 1.187 . S
C305 C42 1.188 . S
C313 C51 1.184 . S
C337 C76 1.178 . S
C345 C85 1.188 . S
C369 C110 1.178 . S
C377 C119 1.188 . S
C401 C153 1.179 . S
C409 C144 1.187 . S
C433 C187 1.187 . S
C441 C178 1.184 . S
C465 C212 1.186 . S
C473 C221 1.184 . S
C497 C255 1.178 . S
C505 C246 1.187 . S
C529 C34 1.534 . S
C537 C0 1.547 . S
C561 C131 1.542 . S
C569 C68 1.541 . S
C593 C136 1.540 . S
C601 C170 1.546 . S
C625 C204 1.541 . S
C633 C267 1.541 . S
C657 C29 1.637 . S
C665 C199 1.634 . S
C689 C165 1.628 . S
C697 C63 1.644 . S
C721 C97 1.621 . S
C729 C238 1.641 . S
C753 C102 1.616 . S
C761 C233 1.644 . S
C785 C4 1.576 . S
C793 C106 1.565 . S
C817 C38 1.584 . S
C825 C72 1.581 . S
C849 C47 1.566 . S
C857 C81 1.563 . S
C881 C115 1.550 . S
C889 C13 1.570 . S
C913 C140 1.567 . S
C921 C242 1.572 . S
C945 C174 1.559 . S
C953 C208 1.583 . S
C977 C183 1.552 . S
C985 C217 1.565 . S
C1009 C251 1.575 . S
C1017 C149 1.558 . S
