# Generated by pormake.
# Topology uou, (4)-cn, num edge types: 1
# Building blocks:
#     Node 0, Type 0, BuildingBlock: GALJAG_clean_sbu_0, # of connection points: 4
#     Node 1, Type 0, BuildingBlock: GALJAG_clean_sbu_0, # of connection points: 4
#     Node 2, Type 0, BuildingBlock: GALJAG_clean_sbu_0, # of connection points: 4
#     Node 3, Type 0, BuildingBlock: GALJAG_clean_sbu_0, # of connection points: 4
#     Node 4, Type 0, BuildingBlock: GALJAG_clean_sbu_0, # of connection points: 4
#     Node 5, Type 0, BuildingBlock: GALJAG_clean_sbu_0, # of connection points: 4
#     Node 6, Type 0, BuildingBlock: GALJAG_clean_sbu_0, # of connection points: 4
#     Node 7, Type 0, BuildingBlock: GALJAG_clean_sbu_0, # of connection points: 4
#     Node 8, Type 0, BuildingBlock: GALJAG_clean_sbu_0, # of connection points: 4
#     Node 9, Type 0, BuildingBlock: GALJAG_clean_sbu_0, # of connection points: 4
#     Node 10, Type 0, BuildingBlock: GALJAG_clean_sbu_0, # of connection points: 4
#     Node 11, Type 0, BuildingBlock: GALJAG_clean_sbu_0, # of connection points: 4
#     Node 12, Type 0, BuildingBlock: GALJAG_clean_sbu_0, # of connection points: 4
#     Node 13, Type 0, BuildingBlock: GALJAG_clean_sbu_0, # of connection points: 4
#     Node 14, Type 0, BuildingBlock: GALJAG_clean_sbu_0, # of connection points: 4
#     Node 15, Type 0, BuildingBlock: GALJAG_clean_sbu_0, # of connection points: 4
#     Edge 16, Type (0, 0), BuildingBlock: ZUJKAS_clean_linker_0, # of connection points: 2
#     Edge 17, Type (0, 0), BuildingBlock: ZUJKAS_clean_linker_0, # of connection points: 2
#     Edge 18, Type (0, 0), BuildingBlock: ZUJKAS_clean_linker_0, # of connection points: 2
#     Edge 19, Type (0, 0), BuildingBlock: ZUJKAS_clean_linker_0, # of connection points: 2
#     Edge 20, Type (0, 0), BuildingBlock: ZUJKAS_clean_linker_0, # of connection points: 2
#     Edge 21, Type (0, 0), BuildingBlock: ZUJKAS_clean_linker_0, # of connection points: 2
#     Edge 22, Type (0, 0), BuildingBlock: ZUJKAS_clean_linker_0, # of connection points: 2
#     Edge 23, Type (0, 0), BuildingBlock: ZUJKAS_clean_linker_0, # of connection points: 2
#     Edge 24, Type (0, 0), BuildingBlock: ZUJKAS_clean_linker_0, # of connection points: 2
#     Edge 25, Type (0, 0), BuildingBlock: ZUJKAS_clean_linker_0, # of connection points: 2
#     Edge 26, Type (0, 0), BuildingBlock: ZUJKAS_clean_linker_0, # of connection points: 2
#     Edge 27, Type (0, 0), BuildingBlock: ZUJKAS_clean_linker_0, # of connection points: 2
#     Edge 28, Type (0, 0), BuildingBlock: ZUJKAS_clean_linker_0, # of connection points: 2
#     Edge 29, Type (0, 0), BuildingBlock: ZUJKAS_clean_linker_0, # of connection points: 2
#     Edge 30, Type (0, 0), BuildingBlock: ZUJKAS_clean_linker_0, # of connection points: 2
#     Edge 31, Type (0, 0), BuildingBlock: ZUJKAS_clean_linker_0, # of connection points: 2
#     Edge 32, Type (0, 0), BuildingBlock: ZUJKAS_clean_linker_0, # of connection points: 2
#     Edge 33, Type (0, 0), BuildingBlock: ZUJKAS_clean_linker_0, # of connection points: 2
#     Edge 34, Type (0, 0), BuildingBlock: ZUJKAS_clean_linker_0, # of connection points: 2
#     Edge 35, Type (0, 0), BuildingBlock: ZUJKAS_clean_linker_0, # of connection points: 2
#     Edge 36, Type (0, 0), BuildingBlock: ZUJKAS_clean_linker_0, # of connection points: 2
#     Edge 37, Type (0, 0), BuildingBlock: ZUJKAS_clean_linker_0, # of connection points: 2
#     Edge 38, Type (0, 0), BuildingBlock: ZUJKAS_clean_linker_0, # of connection points: 2
#     Edge 39, Type (0, 0), BuildingBlock: ZUJKAS_clean_linker_0, # of connection points: 2
#     Edge 40, Type (0, 0), BuildingBlock: ZUJKAS_clean_linker_0, # of connection points: 2
#     Edge 41, Type (0, 0), BuildingBlock: ZUJKAS_clean_linker_0, # of connection points: 2
#     Edge 42, Type (0, 0), BuildingBlock: ZUJKAS_clean_linker_0, # of connection points: 2
#     Edge 43, Type (0, 0), BuildingBlock: ZUJKAS_clean_linker_0, # of connection points: 2
#     Edge 44, Type (0, 0), BuildingBlock: ZUJKAS_clean_linker_0, # of connection points: 2
#     Edge 45, Type (0, 0), BuildingBlock: ZUJKAS_clean_linker_0, # of connection points: 2
#     Edge 46, Type (0, 0), BuildingBlock: ZUJKAS_clean_linker_0, # of connection points: 2
#     Edge 47, Type (0, 0), BuildingBlock: ZUJKAS_clean_linker_0, # of connection points: 2
# Relax obj value: 0.005
# Max RMSD: 0.017
# Mean RMSD: 0.017
data_MOF--net-uou--node1-GALJAG_clean_sbu_0--edge1-ZUJKAS_clean_linker_0
_symmetry_space_group_name_H-M    P1
_symmetry_Int_Tables_number       1
_symmetry_cell_setting            triclinic
loop_
_symmetry_equiv_pos_as_xyz
'x, y, z'
_cell_length_a     46.228398
_cell_length_b     56.283158
_cell_length_c     70.499038
_cell_angle_alpha  90.004372
_cell_angle_beta   89.994382
_cell_angle_gamma 89.960921
loop_
_atom_site_label
_atom_site_type_symbol
_atom_site_fract_x
_atom_site_fract_y
_atom_site_fract_z
_atom_type_partial_charge
In0 In 0.06208 0.08271 0.11513 0.0
O1 O 0.11129 0.08328 0.11108 0.0
O2 O 0.09164 0.05152 0.12114 0.0
C3 C 0.04646 0.12843 0.10972 0.0
C4 C 0.04212 0.06085 0.08377 0.0
C5 C 0.04488 0.07792 0.15141 0.0
O6 O 0.07262 0.12225 0.11145 0.0
O7 O 0.02853 0.11159 0.11051 0.0
O8 O 0.03151 0.06826 0.13782 0.0
O9 O 0.06674 0.08993 0.14664 0.0
C10 C 0.11462 0.062 0.11642 0.0
O11 O 0.03243 0.05627 0.10012 0.0
O12 O 0.06148 0.07662 0.08329 0.0
In13 In 0.4375 0.91547 0.11414 0.0
O14 O 0.38809 0.91513 0.11089 0.0
O15 O 0.40838 0.94689 0.12033 0.0
C16 C 0.45257 0.8696 0.10913 0.0
C17 C 0.45684 0.93575 0.08195 0.0
C18 C 0.4559 0.92134 0.15008 0.0
O19 O 0.42656 0.87596 0.11142 0.0
O20 O 0.47067 0.88637 0.10917 0.0
O21 O 0.46646 0.93297 0.1364 0.0
O22 O 0.4363 0.90681 0.14556 0.0
C23 C 0.38514 0.93652 0.11604 0.0
O24 O 0.46839 0.93972 0.09788 0.0
O25 O 0.43594 0.92136 0.0823 0.0
In26 In 0.56137 0.91604 0.38059 0.0
O27 O 0.52983 0.93976 0.39685 0.0
O28 O 0.5615 0.9206 0.41255 0.0
C29 C 0.545 0.92252 0.34428 0.0
C30 C 0.61379 0.93696 0.37982 0.0
C31 C 0.54592 0.87033 0.38557 0.0
O32 O 0.53377 0.93402 0.3578 0.0
O33 O 0.56429 0.90787 0.34913 0.0
O34 O 0.57208 0.87688 0.3856 0.0
O35 O 0.5278 0.88683 0.38312 0.0
C36 C 0.54064 0.93506 0.41288 0.0
O37 O 0.6109 0.91478 0.38191 0.0
O38 O 0.59041 0.94826 0.37799 0.0
In39 In 0.93787 0.08142 0.38229 0.0
O40 O 0.9679 0.05643 0.39852 0.0
O41 O 0.93875 0.07805 0.41433 0.0
C42 C 0.95393 0.07517 0.34591 0.0
C43 C 0.88605 0.05966 0.38188 0.0
C44 C 0.9528 0.12735 0.38671 0.0
O45 O 0.96848 0.06684 0.35956 0.0
O46 O 0.93151 0.08646 0.35069 0.0
O47 O 0.9267 0.12067 0.38683 0.0
O48 O 0.97103 0.1109 0.38448 0.0
C49 C 0.95826 0.06237 0.41462 0.0
O50 O 0.88839 0.08195 0.38365 0.0
O51 O 0.9097 0.04865 0.38031 0.0
In52 In 0.93704 0.91718 0.88278 0.0
O53 O 0.96734 0.94238 0.8985 0.0
O54 O 0.93906 0.92065 0.91484 0.0
C55 C 0.95269 0.92398 0.84636 0.0
C56 C 0.88501 0.93872 0.88328 0.0
C57 C 0.95196 0.87107 0.88667 0.0
O58 O 0.96773 0.93154 0.86005 0.0
O59 O 0.92991 0.9132 0.8511 0.0
O60 O 0.92585 0.87776 0.88658 0.0
O61 O 0.97019 0.88759 0.88498 0.0
C62 C 0.95839 0.93647 0.91477 0.0
O63 O 0.88761 0.91645 0.88499 0.0
O64 O 0.9085 0.94983 0.8813 0.0
In65 In 0.55939 0.08143 0.88135 0.0
O66 O 0.60869 0.08262 0.88443 0.0
O67 O 0.58858 0.04924 0.87922 0.0
C68 C 0.54325 0.12715 0.88591 0.0
C69 C 0.53796 0.06108 0.9129 0.0
C70 C 0.54507 0.0754 0.84462 0.0
O71 O 0.56952 0.1209 0.88583 0.0
O72 O 0.52545 0.11038 0.88386 0.0
O73 O 0.53016 0.06671 0.85794 0.0
O74 O 0.56701 0.08695 0.84989 0.0
C75 C 0.61177 0.06049 0.88204 0.0
O76 O 0.52886 0.05582 0.89652 0.0
O77 O 0.55741 0.07679 0.91328 0.0
In78 In 0.43877 0.08169 0.61348 0.0
O79 O 0.4678 0.0543 0.59878 0.0
O80 O 0.43931 0.07494 0.58179 0.0
C81 C 0.45686 0.07738 0.64957 0.0
C82 C 0.38561 0.06223 0.61529 0.0
C83 C 0.45413 0.12742 0.60813 0.0
O84 O 0.46959 0.06709 0.63597 0.0
O85 O 0.4352 0.08974 0.64488 0.0
O86 O 0.42809 0.12121 0.61036 0.0
O87 O 0.47213 0.11059 0.60839 0.0
C88 C 0.45825 0.05885 0.58239 0.0
O89 O 0.39017 0.08187 0.60715 0.0
O90 O 0.40765 0.0527 0.62255 0.0
In91 In 0.06145 0.91763 0.61569 0.0
O92 O 0.03192 0.94483 0.60118 0.0
O93 O 0.05993 0.92403 0.58397 0.0
C94 C 0.04387 0.92204 0.65188 0.0
C95 C 0.11454 0.93735 0.61691 0.0
C96 C 0.04661 0.87176 0.61046 0.0
O97 O 0.03114 0.9325 0.63836 0.0
O98 O 0.06523 0.90943 0.64705 0.0
O99 O 0.07258 0.8782 0.61259 0.0
O100 O 0.02838 0.88843 0.61083 0.0
C101 C 0.04098 0.9401 0.5847 0.0
O102 O 0.10988 0.91772 0.6088 0.0
O103 O 0.09263 0.94675 0.62445 0.0
In104 In 0.55719 0.57934 0.11592 0.0
O105 O 0.60677 0.58038 0.11507 0.0
O106 O 0.58598 0.54685 0.11769 0.0
C107 C 0.54184 0.62519 0.11118 0.0
C108 C 0.53663 0.56034 0.08359 0.0
C109 C 0.54094 0.57252 0.15223 0.0
O110 O 0.56797 0.61854 0.11104 0.0
O111 O 0.5237 0.60873 0.1136 0.0
O112 O 0.52858 0.56212 0.13857 0.0
O113 O 0.56125 0.58625 0.14751 0.0
C114 C 0.60947 0.5581 0.11648 0.0
O115 O 0.52623 0.55519 0.09966 0.0
O116 O 0.55695 0.57529 0.08391 0.0
In117 In 0.93628 0.41709 0.11529 0.0
O118 O 0.88678 0.4155 0.11314 0.0
O119 O 0.90659 0.44875 0.11912 0.0
C120 C 0.95251 0.37159 0.10969 0.0
C121 C 0.95655 0.43778 0.08354 0.0
C122 C 0.95266 0.42296 0.15167 0.0
O123 O 0.92623 0.37772 0.11058 0.0
O124 O 0.97036 0.38839 0.11146 0.0
O125 O 0.96382 0.43469 0.13826 0.0
O126 O 0.93346 0.40833 0.14667 0.0
C127 C 0.88346 0.43744 0.11634 0.0
O128 O 0.96745 0.44171 0.09968 0.0
O129 O 0.93587 0.42317 0.08347 0.0
In130 In 0.05827 0.41708 0.38223 0.0
O131 O 0.02717 0.44186 0.398 0.0
O132 O 0.05955 0.42386 0.41389 0.0
C133 C 0.03975 0.42244 0.34633 0.0
C134 C 0.11115 0.43713 0.38027 0.0
C135 C 0.04336 0.37123 0.38724 0.0
O136 O 0.02987 0.43485 0.35982 0.0
O137 O 0.05873 0.40742 0.35104 0.0
O138 O 0.06926 0.37757 0.38451 0.0
O139 O 0.02526 0.38801 0.38762 0.0
C140 C 0.03861 0.4382 0.41402 0.0
O141 O 0.10706 0.41719 0.38804 0.0
O142 O 0.08882 0.44658 0.37335 0.0
In143 In 0.43421 0.58253 0.38227 0.0
O144 O 0.46509 0.55716 0.39764 0.0
O145 O 0.43194 0.57397 0.41365 0.0
C146 C 0.4534 0.57659 0.34657 0.0
C147 C 0.38014 0.56474 0.37985 0.0
C148 C 0.45063 0.62794 0.38799 0.0
O149 O 0.46102 0.56301 0.35996 0.0
O150 O 0.43637 0.59312 0.35128 0.0
O151 O 0.42475 0.62235 0.38434 0.0
O152 O 0.46795 0.61065 0.38889 0.0
C153 C 0.45311 0.55987 0.4136 0.0
O154 O 0.38566 0.58352 0.38895 0.0
O155 O 0.40164 0.55535 0.37183 0.0
In156 In 0.43659 0.41678 0.88125 0.0
O157 O 0.38717 0.41613 0.88358 0.0
O158 O 0.40792 0.44917 0.87808 0.0
C159 C 0.45137 0.37085 0.88647 0.0
C160 C 0.45656 0.43746 0.91308 0.0
C161 C 0.45338 0.4221 0.84489 0.0
O162 O 0.42529 0.37748 0.88533 0.0
O163 O 0.46968 0.38737 0.88515 0.0
O164 O 0.46779 0.43049 0.85856 0.0
O165 O 0.43065 0.41123 0.84962 0.0
C166 C 0.38449 0.43822 0.88078 0.0
O167 O 0.46618 0.44274 0.89683 0.0
O168 O 0.43737 0.42152 0.9132 0.0
In169 In 0.05902 0.58126 0.88196 0.0
O170 O 0.10857 0.58259 0.88346 0.0
O171 O 0.08816 0.54903 0.8799 0.0
C172 C 0.04303 0.627 0.88645 0.0
C173 C 0.03817 0.56221 0.91417 0.0
C174 C 0.04323 0.57412 0.84561 0.0
O175 O 0.06928 0.62068 0.88622 0.0
O176 O 0.02511 0.61027 0.88457 0.0
O177 O 0.03137 0.56324 0.85922 0.0
O178 O 0.06281 0.58851 0.8504 0.0
C179 C 0.11151 0.56037 0.88162 0.0
O180 O 0.0275 0.55752 0.8981 0.0
O181 O 0.05896 0.57673 0.91394 0.0
In182 In 0.93721 0.58321 0.61563 0.0
O183 O 0.96745 0.55731 0.60027 0.0
O184 O 0.93552 0.57542 0.58411 0.0
C185 C 0.95612 0.57701 0.65135 0.0
C186 C 0.88313 0.56538 0.61771 0.0
C187 C 0.95389 0.62864 0.61039 0.0
O188 O 0.96452 0.56397 0.63782 0.0
O189 O 0.93842 0.59313 0.64677 0.0
O190 O 0.9279 0.62305 0.61366 0.0
O191 O 0.97121 0.61134 0.6096 0.0
C192 C 0.95603 0.56067 0.58422 0.0
O193 O 0.88872 0.58428 0.60879 0.0
O194 O 0.90456 0.55589 0.62573 0.0
In195 In 0.56226 0.4163 0.61409 0.0
O196 O 0.53161 0.44207 0.59899 0.0
O197 O 0.56248 0.4232 0.58244 0.0
C198 C 0.54507 0.42054 0.65037 0.0
C199 C 0.61462 0.43714 0.61554 0.0
C200 C 0.54724 0.37053 0.60859 0.0
O201 O 0.53214 0.43102 0.63694 0.0
O202 O 0.56644 0.40802 0.64541 0.0
O203 O 0.57326 0.3768 0.61089 0.0
O204 O 0.52917 0.38731 0.60891 0.0
C205 C 0.54217 0.43813 0.58275 0.0
O206 O 0.61096 0.4169 0.60815 0.0
O207 O 0.59209 0.44653 0.62227 0.0
H208 H 0.33231 0.9199 0.10444 0.0
H209 H 0.28615 0.94152 0.10451 0.0
H210 H 0.32848 0.00264 0.12875 0.0
H211 H 0.37448 0.98125 0.1288 0.0
H212 H 0.27544 0.98936 0.14677 0.0
H213 H 0.26517 0.99766 0.06844 0.0
H214 H 0.27143 0.96812 0.07727 0.0
H215 H 0.29894 0.99037 0.07994 0.0
C216 C 0.33171 0.93792 0.10981 0.0
C217 C 0.35698 0.94892 0.11656 0.0
C218 C 0.30542 0.95027 0.10975 0.0
C219 C 0.30406 0.97375 0.11642 0.0
C220 C 0.32915 0.98457 0.12347 0.0
H221 H 0.16678 0.07867 0.10365 0.0
H222 H 0.21341 0.05772 0.10397 0.0
C223 C 0.35539 0.97232 0.12347 0.0
C224 C 0.27649 0.98711 0.11629 0.0
H225 H 0.22568 0.01128 0.0869 0.0
C226 C 0.26453 0.99416 0.1337 0.0
C227 C 0.26261 0.9936 0.09918 0.0
C228 C 0.27522 0.98726 0.0801 0.0
C229 C 0.23871 0.00724 0.13446 0.0
C230 C 0.22447 0.01324 0.11738 0.0
C231 C 0.23666 0.00654 0.09996 0.0
C232 C 0.19653 0.02604 0.11736 0.0
C233 C 0.22698 0.01475 0.15351 0.0
C234 C 0.17173 0.01504 0.12465 0.0
C235 C 0.14519 0.02686 0.12442 0.0
C236 C 0.14299 0.04993 0.1169 0.0
C237 C 0.16788 0.06095 0.1096 0.0
C238 C 0.19445 0.04902 0.10973 0.0
H239 H 0.24362 0.01346 0.16484 0.0
H240 H 0.21877 0.03329 0.15297 0.0
H241 H 0.20866 0.003 0.15743 0.0
H242 H 0.17285 0.99719 0.13035 0.0
H243 H 0.12637 0.01787 0.1301 0.0
H244 H 0.66767 0.9169 0.38228 0.0
H245 H 0.71439 0.93765 0.38287 0.0
H246 H 0.67034 0.00492 0.37795 0.0
H247 H 0.62377 0.98446 0.37739 0.0
H248 H 0.73697 0.97045 0.35441 0.0
H249 H 0.72337 0.01225 0.42529 0.0
H250 H 0.70211 0.9871 0.41763 0.0
H251 H 0.69369 0.0164 0.40915 0.0
C252 C 0.66799 0.93611 0.38134 0.0
C253 C 0.6421 0.94907 0.37986 0.0
C254 C 0.69463 0.9479 0.38167 0.0
C255 C 0.69569 0.9728 0.38072 0.0
C256 C 0.6699 0.98572 0.37902 0.0
H257 H 0.83175 0.07912 0.3825 0.0
H258 H 0.78542 0.05791 0.38164 0.0
C259 C 0.64335 0.97398 0.37861 0.0
C260 C 0.72374 0.98537 0.38114 0.0
H261 H 0.76348 0.02492 0.40696 0.0
C262 C 0.74291 0.98226 0.36593 0.0
C263 C 0.7312 0.00086 0.39615 0.0
C264 C 0.71167 0.00428 0.41308 0.0
C265 C 0.76923 0.99461 0.36514 0.0
C266 C 0.77678 0.01006 0.3802 0.0
C267 C 0.75759 0.01312 0.39543 0.0
C268 C 0.80473 0.02288 0.38059 0.0
C269 C 0.78837 0.99146 0.34798 0.0
C270 C 0.83085 0.0102 0.38057 0.0
C271 C 0.85722 0.02223 0.38096 0.0
C272 C 0.85798 0.04718 0.38161 0.0
C273 C 0.83181 0.05989 0.38195 0.0
C274 C 0.80538 0.04781 0.38147 0.0
H275 H 0.77602 0.98466 0.3356 0.0
H276 H 0.79887 0.00846 0.34394 0.0
H277 H 0.80559 0.97836 0.35131 0.0
H278 H 0.83084 0.99096 0.38037 0.0
H279 H 0.87703 0.01194 0.38084 0.0
H280 H 0.83086 0.91903 0.88411 0.0
H281 H 0.78435 0.94005 0.88384 0.0
H282 H 0.82923 0.00722 0.88332 0.0
H283 H 0.87559 0.98642 0.88317 0.0
H284 H 0.76193 0.97228 0.90945 0.0
H285 H 0.77442 0.01433 0.83876 0.0
H286 H 0.79754 0.99053 0.8468 0.0
H287 H 0.80385 0.02052 0.8546 0.0
C288 C 0.83076 0.93827 0.88386 0.0
C289 C 0.85682 0.95109 0.8835 0.0
C290 C 0.80422 0.95025 0.88372 0.0
C291 C 0.80336 0.97519 0.88319 0.0
C292 C 0.82938 0.98797 0.88323 0.0
H293 H 0.66543 0.08058 0.88573 0.0
H294 H 0.71224 0.05996 0.88666 0.0
C295 C 0.85586 0.97605 0.88326 0.0
C296 C 0.77529 0.98791 0.88298 0.0
H297 H 0.73526 0.02799 0.85776 0.0
C298 C 0.75602 0.98436 0.8981 0.0
C299 C 0.76766 0.00369 0.86816 0.0
C300 C 0.78682 0.00736 0.85107 0.0
C301 C 0.7295 0.99647 0.89895 0.0
C302 C 0.722 0.01233 0.8842 0.0
C303 C 0.74123 0.01592 0.8691 0.0
C304 C 0.69383 0.0248 0.88388 0.0
C305 C 0.70986 0.99248 0.91575 0.0
C306 C 0.66817 0.01183 0.88178 0.0
C307 C 0.64155 0.02351 0.88116 0.0
C308 C 0.64012 0.0484 0.88262 0.0
C309 C 0.66589 0.06139 0.88463 0.0
C310 C 0.69258 0.04966 0.88515 0.0
H311 H 0.72153 0.9842 0.92784 0.0
H312 H 0.70015 0.00949 0.92058 0.0
H313 H 0.692 0.98043 0.91153 0.0
H314 H 0.66876 0.99265 0.88046 0.0
H315 H 0.62208 0.01301 0.87955 0.0
H316 H 0.15992 0.92999 0.59283 0.0
H317 H 0.20599 0.95143 0.59219 0.0
H318 H 0.17971 0.99179 0.64134 0.0
H319 H 0.13315 0.9713 0.64138 0.0
H320 H 0.20229 0.02011 0.61652 0.0
H321 H 0.27571 0.94298 0.62436 0.0
H322 H 0.25286 0.94031 0.60394 0.0
H323 H 0.2371 0.94046 0.62731 0.0
C324 C 0.16416 0.9433 0.60357 0.0
C325 C 0.1431 0.94896 0.61719 0.0
C326 C 0.19054 0.95545 0.60328 0.0
C327 C 0.1966 0.97295 0.61694 0.0
C328 C 0.1756 0.97836 0.63067 0.0
H329 H 0.36742 0.02851 0.64008 0.0
H330 H 0.32077 0.00817 0.64061 0.0
C331 C 0.14903 0.9666 0.63072 0.0
C332 C 0.22427 0.98633 0.61659 0.0
H333 H 0.29765 0.97979 0.6161 0.0
C334 C 0.22316 0.01128 0.61655 0.0
C335 C 0.25152 0.97485 0.61686 0.0
C336 C 0.25442 0.94819 0.61832 0.0
C337 C 0.24844 0.02506 0.6168 0.0
C338 C 0.27567 0.01358 0.61629 0.0
C339 C 0.27679 0.98863 0.61632 0.0
C340 C 0.30336 0.02695 0.61633 0.0
C341 C 0.24557 0.05173 0.6182 0.0
C342 C 0.30915 0.04438 0.60257 0.0
C343 C 0.33559 0.05645 0.60254 0.0
C344 C 0.35698 0.05077 0.61593 0.0
C345 C 0.35129 0.03322 0.62958 0.0
C346 C 0.32468 0.02155 0.62986 0.0
H347 H 0.22443 0.05697 0.62443 0.0
H348 H 0.2631 0.0595 0.62699 0.0
H349 H 0.24681 0.05953 0.60377 0.0
H350 H 0.29344 0.04839 0.59164 0.0
H351 H 0.33963 0.06969 0.59171 0.0
H352 H 0.82995 0.41724 0.11193 0.0
H353 H 0.78297 0.43766 0.11171 0.0
H354 H 0.82586 0.50468 0.12091 0.0
H355 H 0.87268 0.48455 0.12112 0.0
H356 H 0.75897 0.46791 0.14155 0.0
H357 H 0.77433 0.51559 0.07326 0.0
H358 H 0.79565 0.48999 0.07986 0.0
H359 H 0.80341 0.51855 0.09001 0.0
C360 C 0.82932 0.43632 0.11389 0.0
C361 C 0.85496 0.44932 0.11647 0.0
C362 C 0.80253 0.44793 0.11376 0.0
C363 C 0.80107 0.47268 0.11603 0.0
C364 C 0.82661 0.48562 0.11882 0.0
H365 H 0.66352 0.578 0.11729 0.0
H366 H 0.71013 0.55713 0.11779 0.0
C367 C 0.85331 0.47406 0.11902 0.0
C368 C 0.77285 0.48507 0.11585 0.0
H369 H 0.73343 0.52639 0.09159 0.0
C370 C 0.75324 0.48059 0.13059 0.0
C371 C 0.76568 0.50172 0.10159 0.0
C372 C 0.78572 0.50668 0.08517 0.0
C373 C 0.72674 0.4927 0.13166 0.0
C374 C 0.71945 0.50929 0.11733 0.0
C375 C 0.7391 0.51371 0.10257 0.0
C376 C 0.69131 0.52192 0.1172 0.0
C377 C 0.70715 0.48803 0.14837 0.0
C378 C 0.66537 0.50906 0.11642 0.0
C379 C 0.63884 0.5209 0.11627 0.0
C380 C 0.63773 0.54585 0.11662 0.0
C381 C 0.66373 0.55876 0.11706 0.0
C382 C 0.69032 0.54687 0.11733 0.0
H383 H 0.71928 0.4805 0.16058 0.0
H384 H 0.69613 0.50456 0.15307 0.0
H385 H 0.69036 0.47496 0.1442 0.0
H386 H 0.66563 0.48983 0.11579 0.0
H387 H 0.61917 0.51046 0.11573 0.0
H388 H 0.33588 0.57084 0.40502 0.0
H389 H 0.29019 0.54879 0.40614 0.0
H390 H 0.3135 0.51222 0.35453 0.0
H391 H 0.35967 0.5333 0.35392 0.0
H392 H 0.24516 0.54565 0.38406 0.0
H393 H 0.2958 0.45678 0.38748 0.0
H394 H 0.3165 0.48375 0.38981 0.0
H395 H 0.30706 0.47253 0.36667 0.0
C396 C 0.33113 0.55814 0.39391 0.0
C397 C 0.35135 0.55355 0.3795 0.0
C398 C 0.30509 0.54552 0.39457 0.0
C399 C 0.29876 0.52832 0.38072 0.0
C400 C 0.31834 0.52471 0.36577 0.0
H401 H 0.12802 0.47298 0.35698 0.0
H402 H 0.17372 0.4947 0.35754 0.0
C403 C 0.34458 0.53694 0.36532 0.0
C404 C 0.27164 0.51427 0.3818 0.0
H405 H 0.24527 0.45766 0.38013 0.0
C406 C 0.24521 0.5264 0.38336 0.0
C407 C 0.27168 0.4891 0.38136 0.0
C408 C 0.29932 0.47479 0.38146 0.0
C409 C 0.21881 0.51412 0.38394 0.0
C410 C 0.21877 0.48905 0.38216 0.0
C411 C 0.24524 0.47689 0.38116 0.0
C412 C 0.19156 0.4751 0.38126 0.0
C413 C 0.19135 0.5282 0.38681 0.0
C414 C 0.18699 0.45593 0.39368 0.0
C415 C 0.16116 0.44301 0.393 0.0
C416 C 0.13942 0.44923 0.38002 0.0
C417 C 0.14431 0.468 0.36729 0.0
C418 C 0.1703 0.48059 0.36773 0.0
H419 H 0.1957 0.54526 0.39422 0.0
H420 H 0.18181 0.53252 0.37279 0.0
H421 H 0.17521 0.51804 0.39519 0.0
H422 H 0.20319 0.45121 0.40412 0.0
H423 H 0.1579 0.42863 0.40298 0.0
H424 H 0.16544 0.58055 0.88209 0.0
H425 H 0.21222 0.55989 0.88149 0.0
H426 H 0.16812 0.49238 0.88098 0.0
H427 H 0.12154 0.51279 0.88116 0.0
H428 H 0.23518 0.52777 0.90695 0.0
H429 H 0.2227 0.48572 0.83629 0.0
H430 H 0.19938 0.50935 0.84441 0.0
H431 H 0.19335 0.47928 0.85213 0.0
C432 C 0.16578 0.56131 0.88176 0.0
C433 C 0.13987 0.54828 0.88151 0.0
C434 C 0.19246 0.54954 0.88143 0.0
C435 C 0.19361 0.52461 0.88081 0.0
C436 C 0.16774 0.51162 0.88094 0.0
H437 H 0.33047 0.41875 0.88432 0.0
H438 H 0.28398 0.43987 0.88477 0.0
C439 C 0.14114 0.52333 0.88116 0.0
C440 C 0.2218 0.51207 0.88051 0.0
H441 H 0.26171 0.47181 0.85539 0.0
C442 C 0.24109 0.51567 0.89561 0.0
C443 C 0.22941 0.49625 0.86571 0.0
C444 C 0.21026 0.49256 0.84862 0.0
C445 C 0.26757 0.5035 0.8965 0.0
C446 C 0.27499 0.48753 0.88181 0.0
C447 C 0.25579 0.48396 0.86668 0.0
C448 C 0.30296 0.47478 0.88164 0.0
C449 C 0.2872 0.50748 0.91329 0.0
C450 C 0.32884 0.48744 0.87947 0.0
C451 C 0.35528 0.47547 0.87912 0.0
C452 C 0.35631 0.4506 0.88091 0.0
C453 C 0.33033 0.43791 0.88295 0.0
C454 C 0.30382 0.44993 0.88321 0.0
H455 H 0.27566 0.51609 0.92529 0.0
H456 H 0.29656 0.49042 0.91829 0.0
H457 H 0.30533 0.51923 0.90899 0.0
H458 H 0.32856 0.50659 0.87794 0.0
H459 H 0.37494 0.48574 0.87748 0.0
H460 H 0.63097 0.47324 0.63871 0.0
H461 H 0.67654 0.49515 0.63829 0.0
H462 H 0.70665 0.45172 0.59184 0.0
H463 H 0.6615 0.42893 0.59287 0.0
H464 H 0.74842 0.45817 0.61587 0.0
H465 H 0.69895 0.54584 0.60199 0.0
H466 H 0.68487 0.53305 0.62334 0.0
H467 H 0.67844 0.51864 0.60089 0.0
C468 C 0.64736 0.46834 0.62844 0.0
C469 C 0.64271 0.44951 0.61574 0.0
C470 C 0.67328 0.48103 0.62808 0.0
C471 C 0.6947 0.47559 0.61465 0.0
C472 C 0.69033 0.4564 0.60221 0.0
H473 H 0.83918 0.57179 0.59236 0.0
H474 H 0.79356 0.54969 0.59079 0.0
C475 C 0.66459 0.44337 0.60283 0.0
C476 C 0.72191 0.48957 0.61391 0.0
H477 H 0.74826 0.54621 0.61253 0.0
C478 C 0.74838 0.47741 0.61496 0.0
C479 C 0.72195 0.51466 0.61229 0.0
C480 C 0.69452 0.52876 0.60934 0.0
C481 C 0.77481 0.48965 0.61497 0.0
C482 C 0.77475 0.51482 0.61471 0.0
C483 C 0.74832 0.52695 0.61309 0.0
C484 C 0.80184 0.52888 0.61607 0.0
C485 C 0.80246 0.47536 0.61489 0.0
C486 C 0.82123 0.52508 0.63109 0.0
C487 C 0.84744 0.53733 0.63179 0.0
C488 C 0.85435 0.55415 0.6178 0.0
C489 C 0.83431 0.55892 0.60333 0.0
C490 C 0.80831 0.54628 0.60241 0.0
H491 H 0.79904 0.45742 0.60869 0.0
H492 H 0.81975 0.48443 0.60672 0.0
H493 H 0.81001 0.47289 0.6297 0.0
H494 H 0.81627 0.51242 0.64218 0.0
H495 H 0.86239 0.53354 0.64323 0.0
H496 H 0.92375 0.0892 0.31476 0.0
H497 H 0.93865 0.08673 0.28159 0.0
H498 H 0.01877 0.05358 0.29848 0.0
H499 H 0.00372 0.0556 0.3318 0.0
H500 H 0.98599 0.10801 0.26586 0.0
H501 H 0.99097 0.01029 0.25569 0.0
H502 H 0.97298 0.02386 0.27568 0.0
H503 H 0.01171 0.02099 0.27547 0.0
C504 C 0.94443 0.08116 0.31142 0.0
C505 C 0.96259 0.07258 0.32586 0.0
C506 C 0.9529 0.07977 0.29246 0.0
C507 C 0.97966 0.06975 0.28756 0.0
C508 C 0.99777 0.06095 0.30193 0.0
H509 H 0.07166 0.09596 0.18264 0.0
H510 H 0.0559 0.09324 0.21566 0.0
C511 C 0.98924 0.06224 0.32094 0.0
C512 C 0.98916 0.06989 0.2675 0.0
H513 H 0.01015 0.03416 0.23083 0.0
C514 C 0.99119 0.09186 0.25818 0.0
C515 C 0.99561 0.04877 0.25747 0.0
C516 C 0.99248 0.0246 0.2665 0.0
C517 C -0.00017 0.09334 0.23916 0.0
C518 C 0.00717 0.0723 0.22931 0.0
C519 C 0.00475 0.05027 0.23851 0.0
C520 C 0.01735 0.0729 0.20942 0.0
C521 C 0.00059 0.11739 0.22971 0.0
C522 C 0.00133 0.06175 0.19505 0.0
C523 C 0.01037 0.06316 0.17615 0.0
C524 C 0.03563 0.07568 0.17138 0.0
C525 C 0.05196 0.08636 0.18587 0.0
C526 C 0.04295 0.08489 0.20473 0.0
H527 H 0.9873 0.13065 0.23749 0.0
H528 H 0.02322 0.12394 0.2294 0.0
H529 H 0.99266 0.1163 0.21486 0.0
H530 H 0.98156 0.05232 0.19843 0.0
H531 H 0.99743 0.05469 0.16528 0.0
H532 H 0.44206 0.8938 0.18043 0.0
H533 H 0.4574 0.89886 0.2133 0.0
H534 H 0.50577 0.96138 0.19761 0.0
H535 H 0.49119 0.95593 0.16445 0.0
H536 H 0.53661 0.93367 0.22048 0.0
H537 H 0.42798 0.94552 0.25172 0.0
H538 H 0.43011 0.91835 0.23854 0.0
H539 H 0.43417 0.94637 0.22646 0.0
C540 C 0.45588 0.90868 0.18398 0.0
C541 C 0.46533 0.92454 0.16991 0.0
C542 C 0.46442 0.91168 0.20281 0.0
C543 C 0.48214 0.93084 0.20802 0.0
C544 C 0.49187 0.94659 0.19394 0.0
H545 H 0.51065 0.95737 0.32928 0.0
H546 H 0.49679 0.9625 0.29595 0.0
C547 C 0.48356 0.94346 0.17502 0.0
C548 C 0.49143 0.93371 0.22802 0.0
H549 H 0.46597 0.93472 0.27346 0.0
C550 C 0.52116 0.93423 0.23206 0.0
C551 C 0.47131 0.93499 0.24312 0.0
C552 C 0.43913 0.93655 0.23973 0.0
C553 C 0.53129 0.93481 0.25081 0.0
C554 C 0.51115 0.93414 0.26593 0.0
C555 C 0.48144 0.93483 0.26188 0.0
C556 C 0.52037 0.93167 0.28599 0.0
C557 C 0.56349 0.93616 0.25418 0.0
C558 C 0.53789 0.9125 0.2915 0.0
C559 C 0.54605 0.9097 0.31042 0.0
C560 C 0.53637 0.92576 0.32429 0.0
C561 C 0.51844 0.94475 0.31887 0.0
C562 C 0.51054 0.94769 0.29985 0.0
H563 H 0.57472 0.9448 0.24207 0.0
H564 H 0.56858 0.94619 0.26732 0.0
H565 H 0.5723 0.9179 0.25558 0.0
H566 H 0.54498 0.89947 0.28119 0.0
H567 H 0.55964 0.89475 0.31422 0.0
H568 H 0.99803 0.94724 0.66603 0.0
H569 H 0.98254 0.94999 0.69922 0.0
H570 H 0.05355 0.90484 0.7159 0.0
H571 H 0.06889 0.90175 0.68283 0.0
H572 H 0.00123 0.89081 0.73091 0.0
H573 H 0.01981 0.98711 0.74294 0.0
H574 H 0.99757 0.98036 0.72275 0.0
H575 H 0.03486 0.97134 0.72293 0.0
C576 C 0.0104 0.93802 0.6768 0.0
C577 C 0.03466 0.92429 0.67185 0.0
C578 C 0.00165 0.93973 0.69575 0.0
C579 C 0.01715 0.92788 0.71002 0.0
C580 C 0.04139 0.91421 0.70509 0.0
H581 H 0.00367 0.94145 0.83246 0.0
H582 H 0.01899 0.9431 0.79918 0.0
C583 C 0.05011 0.91247 0.6862 0.0
C584 C 0.00744 0.9287 0.73003 0.0
H585 H 0.99541 0.96606 0.76739 0.0
C586 C -1e-05 0.90725 0.7389 0.0
C587 C 0.0062 0.95015 0.74045 0.0
C588 C 0.01527 0.97355 0.73188 0.0
C589 C 0.99106 0.90666 0.75789 0.0
C590 C 0.98898 0.92818 0.76817 0.0
C591 C 0.99676 0.94963 0.75939 0.0
C592 C 0.97904 0.92863 0.78813 0.0
C593 C 0.98445 0.88292 0.76687 0.0
C594 C 0.95128 0.92051 0.79284 0.0
C595 C 0.94259 0.91939 0.81178 0.0
C596 C 0.96139 0.92665 0.82633 0.0
C597 C 0.98878 0.93566 0.82154 0.0
C598 C 0.99753 0.93665 0.80256 0.0
H599 H 0.99435 0.86802 0.75882 0.0
H600 H 0.99239 0.88223 0.78173 0.0
H601 H 0.96069 0.88017 0.76704 0.0
H602 H 0.93646 0.91474 0.78187 0.0
H603 H 0.92124 0.9126 0.81503 0.0
H604 H 0.43079 0.096 0.68083 0.0
H605 H 0.44699 0.09353 0.71375 0.0
H606 H 0.52082 0.05202 0.69634 0.0
H607 H 0.50445 0.05409 0.66327 0.0
H608 H 0.49305 0.03422 0.72878 0.0
H609 H 0.51541 0.13069 0.73544 0.0
H610 H 0.47935 0.12415 0.72758 0.0
H611 H 0.50968 0.11641 0.71283 0.0
C612 C 0.45048 0.08634 0.68399 0.0
C613 C 0.4665 0.07538 0.66947 0.0
C614 C 0.45976 0.08503 0.7028 0.0
C615 C 0.48535 0.07295 0.70741 0.0
C616 C 0.50108 0.06154 0.69302 0.0
H617 H 0.57617 0.09011 0.81404 0.0
H618 H 0.56268 0.0876 0.78061 0.0
C619 C 0.49175 0.06278 0.67417 0.0
C620 C 0.49567 0.07237 0.72728 0.0
H621 H 0.51597 0.10819 0.76397 0.0
C622 C 0.49822 0.05036 0.73648 0.0
C623 C 0.50276 0.09344 0.73717 0.0
C624 C 0.50196 0.1175 0.72772 0.0
C625 C 0.5071 0.04889 0.7555 0.0
C626 C 0.51311 0.07005 0.76559 0.0
C627 C 0.51109 0.092 0.75625 0.0
C628 C 0.52185 0.06997 0.78581 0.0
C629 C 0.51036 0.02473 0.76452 0.0
C630 C 0.50337 0.06085 0.79984 0.0
C631 C 0.5111 0.06217 0.819 0.0
C632 C 0.5373 0.07286 0.82441 0.0
C633 C 0.55583 0.08179 0.81031 0.0
C634 C 0.54816 0.08037 0.7912 0.0
H635 H 0.51265 0.01051 0.75369 0.0
H636 H 0.52945 0.02418 0.77406 0.0
H637 H 0.49081 0.0208 0.77309 0.0
H638 H 0.48268 0.05321 0.79602 0.0
H639 H 0.49634 0.05525 0.82957 0.0
H640 H 0.56059 0.59684 0.18295 0.0
H641 H 0.54587 0.59218 0.21597 0.0
H642 H 0.48767 0.53576 0.19991 0.0
H643 H 0.50178 0.54082 0.16661 0.0
H644 H 0.4619 0.5665 0.22319 0.0
H645 H 0.56774 0.54194 0.25381 0.0
H646 H 0.57011 0.56924 0.2408 0.0
H647 H 0.56121 0.5421 0.22857 0.0
C648 C 0.5448 0.58332 0.18645 0.0
C649 C 0.53238 0.56914 0.17222 0.0
C650 C 0.53659 0.58054 0.20536 0.0
C651 C 0.51616 0.56325 0.21048 0.0
C652 C 0.50367 0.54906 0.19629 0.0
H653 H 0.48218 0.53854 0.33149 0.0
H654 H 0.49612 0.53256 0.29825 0.0
C655 C 0.51172 0.55197 0.1773 0.0
C656 C 0.50668 0.56112 0.23051 0.0
H657 H 0.53215 0.55686 0.27583 0.0
C658 C 0.47721 0.56405 0.23468 0.0
C659 C 0.52654 0.55743 0.24551 0.0
C660 C 0.5581 0.55223 0.24193 0.0
C661 C 0.46727 0.56459 0.25348 0.0
C662 C 0.48748 0.56282 0.2685 0.0
C663 C 0.51673 0.55865 0.26432 0.0
C664 C 0.47889 0.56622 0.28859 0.0
C665 C 0.43521 0.56708 0.257 0.0
C666 C 0.46513 0.5873 0.29423 0.0
C667 C 0.45696 0.59065 0.3131 0.0
C668 C 0.46287 0.57315 0.32677 0.0
C669 C 0.47733 0.5523 0.32123 0.0
C670 C 0.48526 0.54886 0.30227 0.0
H671 H 0.42243 0.56013 0.24487 0.0
H672 H 0.42852 0.55752 0.27006 0.0
H673 H 0.42978 0.58617 0.25868 0.0
H674 H 0.46082 0.60127 0.28405 0.0
H675 H 0.44611 0.60701 0.31698 0.0
H676 H 0.05264 0.3939 0.31639 0.0
H677 H 0.03763 0.39864 0.28343 0.0
H678 H 0.9912 0.46255 0.2982 0.0
H679 H 0.00551 0.45748 0.33146 0.0
H680 H 0.95966 0.43472 0.27546 0.0
H681 H 0.06901 0.44433 0.24476 0.0
H682 H 0.06597 0.41749 0.2583 0.0
H683 H 0.06243 0.44582 0.26997 0.0
C684 C 0.03931 0.40901 0.31262 0.0
C685 C 0.03036 0.42539 0.32646 0.0
C686 C 0.03094 0.41181 0.29374 0.0
C687 C 0.0139 0.43127 0.28826 0.0
C688 C 0.0046 0.44752 0.3021 0.0
H689 H 0.98731 0.45744 0.16684 0.0
H690 H 0.00085 0.46244 0.20022 0.0
C691 C 0.01275 0.4446 0.32107 0.0
C692 C 0.00492 0.434 0.26819 0.0
H693 H 0.03103 0.4341 0.22291 0.0
C694 C 0.97527 0.4349 0.26397 0.0
C695 C 0.02528 0.43477 0.2532 0.0
C696 C 0.05744 0.43582 0.25679 0.0
C697 C 0.96541 0.4354 0.24515 0.0
C698 C 0.98575 0.43428 0.23016 0.0
C699 C 0.01542 0.43455 0.23439 0.0
C700 C 0.97677 0.43184 0.21006 0.0
C701 C 0.9333 0.43713 0.24157 0.0
C702 C 0.95909 0.41282 0.20448 0.0
C703 C 0.95114 0.41008 0.18551 0.0
C704 C 0.96117 0.42605 0.17169 0.0
C705 C 0.97925 0.44488 0.17721 0.0
C706 C 0.98697 0.44776 0.19625 0.0
H707 H 0.922 0.44591 0.25359 0.0
H708 H 0.92859 0.4472 0.22838 0.0
H709 H 0.92422 0.41898 0.2401 0.0
H710 H 0.95171 0.39989 0.21476 0.0
H711 H 0.93741 0.39526 0.18165 0.0
H712 H 0.49803 0.44404 0.6647 0.0
H713 H 0.48283 0.44637 0.69796 0.0
H714 H 0.55676 0.40435 0.71441 0.0
H715 H 0.57175 0.40158 0.68126 0.0
H716 H 0.50646 0.38826 0.73006 0.0
H717 H 0.51742 0.48548 0.74111 0.0
H718 H 0.49507 0.47751 0.72127 0.0
H719 H 0.53297 0.47036 0.72095 0.0
C720 C 0.5111 0.43542 0.67544 0.0
C721 C 0.53607 0.42264 0.6704 0.0
C722 C 0.50252 0.43691 0.69443 0.0
C723 C 0.51891 0.42582 0.70867 0.0
C724 C 0.54388 0.41312 0.70365 0.0
H725 H 0.50352 0.44129 0.83109 0.0
H726 H 0.51948 0.44261 0.79792 0.0
C727 C 0.5524 0.41155 0.6847 0.0
C728 C 0.50944 0.42641 0.72874 0.0
H729 H 0.49439 0.46361 0.76573 0.0
C730 C 0.5039 0.40473 0.73787 0.0
C731 C 0.50647 0.44791 0.73896 0.0
C732 C 0.51355 0.47164 0.73016 0.0
C733 C 0.49511 0.40396 0.75689 0.0
C734 C 0.49119 0.42548 0.76693 0.0
C735 C 0.49715 0.44716 0.75792 0.0
C736 C 0.48098 0.42573 0.78683 0.0
C737 C 0.49055 0.38006 0.76615 0.0
C738 C 0.45383 0.41628 0.79148 0.0
C739 C 0.44477 0.41539 0.81035 0.0
C740 C 0.46259 0.42417 0.8249 0.0
C741 C 0.4894 0.43432 0.82017 0.0
C742 C 0.49851 0.43512 0.80126 0.0
H743 H 0.50179 0.36564 0.7583 0.0
H744 H 0.49843 0.38013 0.78103 0.0
H745 H 0.46709 0.3759 0.7663 0.0
H746 H 0.43973 0.4094 0.78051 0.0
H747 H 0.42388 0.40766 0.81354 0.0
H748 H 0.00637 0.54076 0.83104 0.0
H749 H 0.99271 0.53529 0.79771 0.0
H750 H 0.04688 0.59451 0.78199 0.0
H751 H 0.0612 0.59958 0.81504 0.0
H752 H 0.96485 0.5648 0.77462 0.0
H753 H 0.07227 0.54585 0.74384 0.0
H754 H 0.06578 0.54549 0.76909 0.0
H755 H 0.07269 0.57311 0.75698 0.0
C756 C 0.01553 0.55245 0.82042 0.0
C757 C 0.03494 0.57052 0.8256 0.0
C758 C 0.00775 0.5493 0.80141 0.0
C759 C 0.01926 0.56417 0.7873 0.0
C760 C 0.03842 0.58235 0.79252 0.0
H761 H 0.94655 0.60632 0.68137 0.0
H762 H 0.96145 0.6005 0.71424 0.0
C763 C 0.04639 0.58537 0.81146 0.0
C764 C 0.00995 0.56176 0.76726 0.0
H765 H 0.03568 0.55939 0.72192 0.0
C766 C 0.98032 0.56327 0.76311 0.0
C767 C 0.03005 0.55924 0.75224 0.0
C768 C 0.06193 0.55556 0.75578 0.0
C769 C 0.97036 0.56357 0.74432 0.0
C770 C 0.99066 0.56304 0.72929 0.0
C771 C 0.02016 0.56024 0.73344 0.0
C772 C 0.98186 0.56643 0.70925 0.0
C773 C 0.93818 0.56453 0.74079 0.0
C774 C 0.98942 0.54968 0.69534 0.0
C775 C 0.98135 0.55318 0.67642 0.0
C776 C 0.96558 0.57349 0.67114 0.0
C777 C 0.95844 0.59038 0.68504 0.0
C778 C 0.96672 0.58698 0.70388 0.0
H779 H 0.92593 0.55674 0.75284 0.0
H780 H 0.93136 0.58334 0.73933 0.0
H781 H 0.93221 0.55489 0.72762 0.0
H782 H 0.00135 0.53381 0.69915 0.0
H783 H 0.98717 0.53989 0.66598 0.0
H784 H 0.08039 0.16831 0.109 0.0
H785 H 0.06418 0.2098 0.10737 0.0
H786 H 0.97554 0.18638 0.10405 0.0
H787 H 0.99145 0.14503 0.10584 0.0
H788 H 0.0298 0.23357 0.07922 0.0
H789 H 0.97632 0.23209 0.14978 0.0
H790 H 0.0018 0.20961 0.14238 0.0
H791 H 0.96514 0.20885 0.13393 0.0
C792 C 0.05747 0.17203 0.10786 0.0
C793 C 0.03718 0.15344 0.10769 0.0
C794 C 0.04826 0.1957 0.10692 0.0
C795 C 0.01865 0.20112 0.1059 0.0
C796 C 0.99845 0.18257 0.10519 0.0
H797 H 0.91852 0.33195 0.10701 0.0
H798 H 0.93451 0.29051 0.10468 0.0
C799 C 0.00761 0.15896 0.10613 0.0
C800 C 0.00875 0.22615 0.1058 0.0
H801 H 0.96886 0.26637 0.13094 0.0
C802 C 0.01657 0.24081 0.09054 0.0
C803 C 0.99144 0.23547 0.12059 0.0
C804 C 0.98334 0.2208 0.1377 0.0
C805 C 0.0071 0.2645 0.08952 0.0
C806 C 0.98981 0.27382 0.10432 0.0
C807 C 0.982 0.25914 0.11956 0.0
C808 C 0.98017 0.29894 0.1046 0.0
C809 C 0.01524 0.27921 0.07244 0.0
C810 C 0.00055 0.31737 0.10539 0.0
C811 C 0.99149 0.341 0.10672 0.0
C812 C 0.96187 0.34663 0.1074 0.0
C813 C 0.94147 0.32816 0.10647 0.0
C814 C 0.95057 0.30451 0.10515 0.0
H815 H 0.02155 0.26788 0.06022 0.0
H816 H 0.99707 0.2909 0.06805 0.0
H817 H 0.03398 0.29064 0.07609 0.0
H818 H 0.02349 0.31346 0.1054 0.0
H819 H 0.00773 0.35483 0.10751 0.0
H820 H 0.41835 0.82997 0.11064 0.0
H821 H 0.43403 0.78834 0.1095 0.0
H822 H 0.52245 0.81098 0.10227 0.0
H823 H 0.50706 0.8525 0.10361 0.0
H824 H 0.46502 0.76316 0.08099 0.0
H825 H 0.52597 0.7671 0.14882 0.0
H826 H 0.50028 0.78966 0.1419 0.0
H827 H 0.53598 0.78938 0.13181 0.0
C828 C 0.44111 0.82605 0.10875 0.0
C829 C 0.4615 0.84448 0.10736 0.0
C830 C 0.45002 0.8023 0.10809 0.0
C831 C 0.47945 0.79662 0.10613 0.0
C832 C 0.49971 0.81499 0.10418 0.0
H833 H 0.57659 0.66406 0.10635 0.0
H834 H 0.56154 0.70573 0.10383 0.0
C835 C 0.49085 0.8387 0.10485 0.0
C836 C 0.48904 0.7715 0.10628 0.0
H837 H 0.53072 0.73187 0.13074 0.0
C838 C 0.47932 0.75626 0.09188 0.0
C839 C 0.50774 0.76262 0.1205 0.0
C840 C 0.51794 0.77794 0.13674 0.0
C841 C 0.48814 0.73239 0.09117 0.0
C842 C 0.50677 0.72349 0.10543 0.0
C843 C 0.51655 0.73877 0.11978 0.0
C844 C 0.51576 0.69822 0.10607 0.0
C845 C 0.47785 0.71702 0.07499 0.0
C846 C 0.49503 0.68025 0.1083 0.0
C847 C 0.50354 0.65651 0.10972 0.0
C848 C 0.53299 0.65029 0.10908 0.0
C849 C 0.55375 0.66831 0.10684 0.0
C850 C 0.54519 0.69209 0.10541 0.0
H851 H 0.47059 0.72786 0.06271 0.0
H852 H 0.49518 0.70475 0.07018 0.0
H853 H 0.45922 0.70617 0.07982 0.0
H854 H 0.47225 0.68463 0.10928 0.0
H855 H 0.48705 0.64304 0.11155 0.0
H856 H 0.50532 0.6436 0.39506 0.0
H857 H 0.52201 0.68474 0.3972 0.0
H858 H 0.43489 0.70954 0.3878 0.0
H859 H 0.41794 0.66837 0.3858 0.0
H860 H 0.51694 0.71899 0.3684 0.0
H861 H 0.46151 0.74798 0.43434 0.0
H862 H 0.46607 0.71706 0.42816 0.0
H863 H 0.43824 0.73447 0.41703 0.0
C864 C 0.48965 0.65781 0.39364 0.0
C865 C 0.46031 0.65279 0.39028 0.0
C866 C 0.49924 0.68128 0.39486 0.0
C867 C 0.47965 0.70015 0.39287 0.0
C868 C 0.45027 0.69521 0.38973 0.0
H869 H 0.4912 0.85252 0.38431 0.0
H870 H 0.47635 0.81096 0.38667 0.0
C871 C 0.44065 0.67171 0.38849 0.0
C872 C 0.49027 0.72496 0.39298 0.0
H873 H 0.48383 0.77816 0.41585 0.0
C874 C 0.5099 0.73191 0.37885 0.0
C875 C 0.48096 0.74172 0.40662 0.0
C876 C 0.46072 0.73496 0.42251 0.0
C877 C 0.51992 0.75539 0.37768 0.0
C878 C 0.51048 0.77221 0.39124 0.0
C879 C 0.49105 0.7652 0.40549 0.0
C880 C 0.51976 0.79739 0.39048 0.0
C881 C 0.53979 0.76213 0.36156 0.0
C882 C 0.54907 0.80356 0.39215 0.0
C883 C 0.55766 0.82732 0.39072 0.0
C884 C 0.53702 0.84528 0.38775 0.0
C885 C 0.50762 0.83907 0.38654 0.0
C886 C 0.49908 0.81535 0.38792 0.0
H887 H 0.53927 0.74882 0.34993 0.0
H888 H 0.53387 0.77976 0.35565 0.0
H889 H 0.56233 0.76318 0.36691 0.0
H890 H 0.56531 0.79 0.39451 0.0
H891 H 0.58044 0.8316 0.39183 0.0
H892 H 0.07801 0.33183 0.38665 0.0
H893 H 0.06279 0.29017 0.38819 0.0
H894 H 0.97377 0.31229 0.39321 0.0
H895 H 0.98881 0.35391 0.39197 0.0
H896 H 0.98899 0.27578 0.41832 0.0
H897 H 0.02278 0.25513 0.34452 0.0
H898 H 0.05087 0.26743 0.35912 0.0
H899 H 0.01976 0.28516 0.35327 0.0
C900 C 0.05521 0.3278 0.38815 0.0
C901 C 0.03458 0.34611 0.38907 0.0
C902 C 0.04654 0.30402 0.38893 0.0
C903 C 0.01711 0.29818 0.39048 0.0
C904 C 0.99657 0.31644 0.39191 0.0
H905 H 0.91805 0.16646 0.39082 0.0
H906 H 0.93328 0.20814 0.39264 0.0
C907 C 0.00521 0.34019 0.39117 0.0
C908 C 0.00762 0.27306 0.39041 0.0
H909 H 0.00699 0.22279 0.36333 0.0
C910 C 0.99283 0.26418 0.4063 0.0
C911 C 0.01258 0.25804 0.37465 0.0
C912 C 0.02713 0.26692 0.35684 0.0
C913 C 0.98336 0.24049 0.40699 0.0
C914 C 0.98847 0.22547 0.39126 0.0
C915 C 0.00318 0.23437 0.37537 0.0
C916 C 0.97907 0.20033 0.391 0.0
C917 C 0.96851 0.23159 0.42467 0.0
C918 C -0.00027 0.18223 0.38923 0.0
C919 C 0.99112 0.15852 0.38809 0.0
C920 C 0.96163 0.15246 0.3886 0.0
C921 C 0.94093 0.1706 0.39048 0.0
C922 C 0.94959 0.19438 0.39162 0.0
H923 H 0.97231 0.24352 0.43697 0.0
H924 H 0.94485 0.23073 0.42211 0.0
H925 H 0.97611 0.21345 0.42837 0.0
H926 H 0.02258 0.18648 0.38864 0.0
H927 H 0.0076 0.14494 0.38664 0.0
H928 H 0.07721 0.66658 0.88871 0.0
H929 H 0.06139 0.70812 0.89046 0.0
H930 H 0.97231 0.68546 0.88958 0.0
H931 H 0.98788 0.644 0.88798 0.0
H932 H 0.02631 0.73196 0.8636 0.0
H933 H 0.97527 0.73141 0.93491 0.0
H934 H -4e-05 0.70851 0.92715 0.0
H935 H 0.963 0.70833 0.91927 0.0
C936 C 0.05427 0.67046 0.88906 0.0
C937 C 0.03379 0.65205 0.88826 0.0
C938 C 0.04528 0.69417 0.89005 0.0
C939 C 0.0157 0.69982 0.89041 0.0
C940 C 0.99523 0.68146 0.8897 0.0
H941 H 0.91721 0.8317 0.88841 0.0
H942 H 0.93259 0.78996 0.88933 0.0
C943 C 0.00419 0.65779 0.88867 0.0
C944 C 0.00618 0.72496 0.89056 0.0
H945 H 0.9675 0.76573 0.91597 0.0
C946 C 0.01361 0.73941 0.8751 0.0
C947 C 0.98942 0.73452 0.90552 0.0
C948 C 0.9816 0.71999 0.92275 0.0
C949 C 0.00437 0.76312 0.87405 0.0
C950 C 0.98774 0.77275 0.88905 0.0
C951 C 0.98023 0.75828 0.90449 0.0
C952 C 0.97838 0.79793 0.88907 0.0
C953 C 0.01197 0.77751 0.85668 0.0
C954 C -0.00098 0.81617 0.88902 0.0
C955 C 0.99034 0.83992 0.88845 0.0
C956 C 0.96081 0.84589 0.88808 0.0
C957 C 0.94011 0.82762 0.88863 0.0
C958 C 0.94885 0.80381 0.88917 0.0
H959 H 0.01779 0.76595 0.84448 0.0
H960 H 0.9937 0.78917 0.85242 0.0
H961 H 0.03089 0.78894 0.8599 0.0
H962 H 0.0219 0.81204 0.88935 0.0
H963 H 0.0068 0.8536 0.88818 0.0
H964 H 0.41648 0.3316 0.88752 0.0
H965 H 0.43159 0.28989 0.8896 0.0
H966 H 0.52092 0.31175 0.89179 0.0
H967 H 0.50604 0.35334 0.8899 0.0
H968 H 0.46794 0.26605 0.86381 0.0
H969 H 0.51451 0.26518 0.93636 0.0
H970 H 0.49079 0.2885 0.92811 0.0
H971 H 0.52829 0.28836 0.92138 0.0
C972 C 0.43931 0.3275 0.88865 0.0
C973 C 0.46007 0.34572 0.88859 0.0
C974 C 0.4479 0.3037 0.88981 0.0
C975 C 0.47734 0.29777 0.89112 0.0
C976 C 0.49807 0.31595 0.89119 0.0
H977 H 0.57705 0.16694 0.88888 0.0
H978 H 0.56076 0.20841 0.89037 0.0
C979 C 0.48952 0.33971 0.88999 0.0
C980 C 0.48657 0.27255 0.8913 0.0
H981 H 0.52402 0.23136 0.91706 0.0
C982 C 0.47999 0.25838 0.87551 0.0
C983 C 0.50247 0.2627 0.90653 0.0
C984 C 0.50925 0.27688 0.92414 0.0
C985 C 0.48939 0.23472 0.87436 0.0
C986 C 0.50533 0.22486 0.88958 0.0
C987 C 0.51185 0.239 0.90541 0.0
C988 C 0.51517 0.19981 0.88936 0.0
C989 C 0.48279 0.22065 0.85666 0.0
C990 C 0.49492 0.18129 0.88869 0.0
C991 C 0.50413 0.15769 0.8878 0.0
C992 C 0.53379 0.15215 0.8877 0.0
C993 C 0.55407 0.17069 0.88887 0.0
C994 C 0.5448 0.19435 0.88974 0.0
H995 H 0.47713 0.23239 0.84454 0.0
H996 H 0.5015 0.2094 0.85252 0.0
H997 H 0.46407 0.20881 0.8594 0.0
H998 H 0.47195 0.1851 0.88877 0.0
H999 H 0.48798 0.14379 0.88705 0.0
H1000 H 0.50908 0.14452 0.60552 0.0
H1001 H 0.52438 0.18605 0.60403 0.0
H1002 H 0.43512 0.20842 0.60434 0.0
H1003 H 0.41963 0.16686 0.60621 0.0
H1004 H 0.51298 0.2214 0.57775 0.0
H1005 H 0.46949 0.24538 0.64866 0.0
H1006 H 0.47302 0.21498 0.64086 0.0
H1007 H 0.44317 0.23285 0.63284 0.0
C1008 C 0.49269 0.15828 0.60524 0.0
C1009 C 0.46315 0.15247 0.60614 0.0
C1010 C 0.50148 0.18199 0.60436 0.0
C1011 C 0.48091 0.20031 0.6044 0.0
C1012 C 0.45136 0.19455 0.60471 0.0
H1013 H 0.49244 0.35372 0.60448 0.0
H1014 H 0.47694 0.31231 0.60225 0.0
C1015 C 0.44254 0.17082 0.60567 0.0
C1016 C 0.49051 0.22542 0.60433 0.0
H1017 H 0.48798 0.27684 0.62996 0.0
C1018 C 0.50758 0.23353 0.58918 0.0
C1019 C 0.48355 0.24115 0.61931 0.0
C1020 C 0.46654 0.23315 0.63643 0.0
C1021 C 0.51748 0.2571 0.58845 0.0
C1022 C 0.51036 0.27281 0.60338 0.0
C1023 C 0.49331 0.26472 0.61852 0.0
C1024 C 0.52023 0.29782 0.60362 0.0
C1025 C 0.53502 0.26514 0.57159 0.0
C1026 C 0.54975 0.30335 0.60514 0.0
C1027 C 0.55871 0.32704 0.60645 0.0
C1028 C 0.53824 0.34551 0.60632 0.0
C1029 C 0.50873 0.33988 0.60459 0.0
C1030 C 0.49982 0.31624 0.60333 0.0
H1031 H 0.5331 0.25263 0.55947 0.0
H1032 H 0.5281 0.28308 0.56687 0.0
H1033 H 0.55817 0.26616 0.57569 0.0
H1034 H 0.56579 0.28934 0.60571 0.0
H1035 H 0.58157 0.33086 0.60784 0.0
H1036 H 0.08166 0.83266 0.60846 0.0
H1037 H 0.06678 0.79099 0.6059 0.0
H1038 H 0.97723 0.81257 0.60558 0.0
H1039 H 0.99191 0.85416 0.60776 0.0
H1040 H 0.03355 0.7658 0.63108 0.0
H1041 H 0.9803 0.76759 0.56065 0.0
H1042 H 0.0036 0.79121 0.56882 0.0
H1043 H 0.96659 0.78971 0.57664 0.0
C1044 C 0.05882 0.82851 0.60764 0.0
C1045 C 0.03795 0.84665 0.60824 0.0
C1046 C 0.05036 0.80472 0.60619 0.0
C1047 C 0.02092 0.79871 0.60523 0.0
C1048 C 7e-05 0.81683 0.60582 0.0
H1049 H 0.92096 0.66902 0.61145 0.0
H1050 H 0.93791 0.71024 0.60962 0.0
C1051 C 0.0085 0.84058 0.6072 0.0
C1052 C 0.01188 0.77346 0.60474 0.0
H1053 H 0.97161 0.73331 0.57979 0.0
C1054 C 0.02025 0.75862 0.61977 0.0
C1055 C 0.99444 0.76418 0.58999 0.0
C1056 C 0.98592 0.77893 0.57302 0.0
C1057 C 0.01106 0.7349 0.62071 0.0
C1058 C 0.99333 0.72574 0.6061 0.0
C1059 C 0.98513 0.74047 0.59099 0.0
C1060 C 0.98303 0.70087 0.60637 0.0
C1061 C 0.01979 0.71998 0.63755 0.0
C1062 C 0.00276 0.68205 0.60477 0.0
C1063 C 0.99318 0.65856 0.60578 0.0
C1064 C 0.96366 0.6535 0.60836 0.0
C1065 C 0.94384 0.67239 0.60951 0.0
C1066 C 0.95346 0.69591 0.60845 0.0
H1067 H 0.02808 0.73102 0.64943 0.0
H1068 H 0.00122 0.70929 0.64274 0.0
H1069 H 0.03719 0.70751 0.63322 0.0
H1070 H 0.02562 0.68554 0.60287 0.0
H1071 H 0.00895 0.64437 0.60476 0.0
H1072 H 0.99823 0.97204 0.91826 0.0
H1073 H 0.01306 0.99237 0.94739 0.0
H1074 H 0.95659 0.94715 0.98004 0.0
H1075 H 0.94142 0.92691 0.95099 0.0
H1076 H 0.95034 0.99576 0.98792 0.0
H1077 H 0.06564 0.96813 0.9902 0.0
H1078 H 0.05444 0.9811 0.96811 0.0
H1079 H 0.03913 0.9533 0.97559 0.0
C1080 C 0.9892 0.96629 0.93167 0.0
C1081 C 0.96872 0.94787 0.93237 0.0
C1082 C 0.99778 0.97784 0.94829 0.0
C1083 C 0.98616 0.97106 0.96587 0.0
C1084 C 0.96589 0.95256 0.96661 0.0
H1085 H 0.0029 0.02467 0.0813 0.0
H1086 H 0.98854 0.0028 0.05277 0.0
C1087 C 0.9573 0.94101 0.95002 0.0
C1088 C 0.99412 0.98396 0.98339 0.0
H1089 H 0.05115 0.99803 0.01198 0.0
C1090 C 0.97234 0.99617 0.99327 0.0
C1091 C 0.02284 0.98445 0.99026 0.0
C1092 C 0.04685 0.97088 0.98061 0.0
C1093 C 0.97863 0.00931 0.00967 0.0
C1094 C 0.00738 0.00987 0.0165 0.0
C1095 C 0.02913 0.99757 0.00667 0.0
C1096 C 0.01546 0.02333 0.03374 0.0
C1097 C 0.95462 0.02295 0.01927 0.0
C1098 C 0.03568 0.04183 0.03251 0.0
C1099 C 0.04402 0.05423 0.04876 0.0
C1100 C 0.03237 0.04826 0.06655 0.0
C1101 C 0.01207 0.02975 0.06776 0.0
C1102 C 0.00376 0.01732 0.05148 0.0
H1103 H 0.93573 0.02548 0.00973 0.0
H1104 H 0.94719 0.01292 0.03191 0.0
H1105 H 0.96229 0.04065 0.02407 0.0
H1106 H 0.04501 0.04667 0.01896 0.0
H1107 H 0.05976 0.06837 0.0474 0.0
H1108 H 0.49698 0.02627 0.91589 0.0
H1109 H 0.48192 0.00528 0.94473 0.0
H1110 H 0.5415 0.04733 0.97771 0.0
H1111 H 0.55631 0.06857 0.9491 0.0
H1112 H 0.51682 0.97844 0.96876 0.0
H1113 H 0.46647 0.05346 0.00773 0.0
H1114 H 0.47439 0.05479 0.98268 0.0
H1115 H 0.50265 0.05943 -0.00018 0.0
C1116 C 0.50661 0.03119 0.92933 0.0
C1117 C 0.52771 0.04912 0.93028 0.0
C1118 C 0.49804 0.01918 0.94576 0.0
C1119 C 0.51031 0.02499 0.96337 0.0
C1120 C 0.53131 0.04293 0.96433 0.0
H1121 H 0.4989 0.96946 0.07783 0.0
H1122 H 0.5126 0.99037 0.04867 0.0
C1123 C 0.53985 0.05496 0.94795 0.0
C1124 C 0.50219 0.01159 0.98063 0.0
H1125 H 0.47492 0.01804 0.02534 0.0
C1126 C 0.50745 0.98704 0.98109 0.0
C1127 C 0.49009 0.02292 0.99669 0.0
C1128 C 0.4828 0.04906 0.99671 0.0
C1129 C 0.50147 0.97355 0.99736 0.0
C1130 C 0.48958 0.98492 0.01346 0.0
C1131 C 0.4842 0.00944 0.01298 0.0
C1132 C 0.48209 0.97162 0.03086 0.0
C1133 C 0.50849 0.94737 0.99735 0.0
C1134 C 0.46037 0.95425 0.03045 0.0
C1135 C 0.45251 0.94232 0.04703 0.0
C1136 C 0.46619 0.94763 0.06433 0.0
C1137 C 0.48807 0.96495 0.06469 0.0
C1138 C 0.49587 0.97692 0.04809 0.0
H1139 H 0.52382 0.94261 0.98582 0.0
H1140 H 0.51798 0.94187 0.01115 0.0
H1141 H 0.48828 0.93709 0.99516 0.0
H1142 H 0.44914 0.95021 0.01736 0.0
H1143 H 0.43547 0.92915 0.04633 0.0
H1144 H 0.4982 0.02307 0.57974 0.0
H1145 H 0.51297 0.00164 0.55101 0.0
H1146 H 0.45407 0.04407 0.51777 0.0
H1147 H 0.43952 0.06569 0.54624 0.0
H1148 H 0.47779 0.97513 0.52623 0.0
H1149 H 0.53039 0.0503 0.4888 0.0
H1150 H 0.52207 0.05113 0.51381 0.0
H1151 H 0.49419 0.05656 0.49656 0.0
C1152 C 0.48858 0.02792 0.56627 0.0
C1153 C 0.46784 0.04613 0.56519 0.0
C1154 C 0.49699 0.01566 0.54991 0.0
C1155 C 0.48491 0.02153 0.53225 0.0
C1156 C 0.46409 0.03961 0.53119 0.0
H1157 H 0.49877 0.96896 0.41712 0.0
H1158 H 0.48431 0.98898 0.44652 0.0
C1159 C 0.45571 0.05186 0.54749 0.0
C1160 C 0.49331 0.00832 0.51497 0.0
H1161 H 0.52179 0.01537 0.47066 0.0
C1162 C 0.48761 0.98386 0.51412 0.0
C1163 C 0.50603 0.01982 0.4992 0.0
C1164 C 0.5138 0.04585 0.49963 0.0
C1165 C 0.49371 0.97065 0.49771 0.0
C1166 C 0.50618 0.98221 0.4819 0.0
C1167 C 0.51204 0.00663 0.48279 0.0
C1168 C 0.51384 0.96923 0.46437 0.0
C1169 C 0.48619 0.94457 0.49727 0.0
C1170 C 0.53523 0.95157 0.46473 0.0
C1171 C 0.54352 0.94015 0.44801 0.0
C1172 C 0.53063 0.94628 0.43063 0.0
C1173 C 0.509 0.96382 0.43032 0.0
C1174 C 0.50076 0.97528 0.44706 0.0
H1175 H 0.47047 0.93979 0.50856 0.0
H1176 H 0.47696 0.93951 0.4833 0.0
H1177 H 0.50613 0.93396 0.49954 0.0
H1178 H 0.54594 0.94695 0.47789 0.0
H1179 H 0.56035 0.92677 0.44868 0.0
H1180 H 0.00211 0.97672 0.5824 0.0
H1181 H 0.98673 0.99795 0.55371 0.0
H1182 H 0.04226 0.95331 0.51982 0.0
H1183 H 0.05747 0.93194 0.54826 0.0
H1184 H 0.02252 0.02285 0.52774 0.0
H1185 H 0.96382 0.94893 0.49268 0.0
H1186 H 0.97309 0.94851 0.51756 0.0
H1187 H -8e-05 0.94147 0.49997 0.0
C1188 C 0.01084 0.97134 0.56881 0.0
C1189 C 0.03088 0.95262 0.56754 0.0
C1190 C 0.00209 0.98349 0.55247 0.0
C1191 C 0.01308 0.97695 0.53465 0.0
C1192 C 0.03311 0.95831 0.53339 0.0
H1193 H 0.99754 0.02646 0.41894 0.0
H1194 H 0.0116 0.0067 0.44853 0.0
C1195 C 0.04187 0.94621 0.54967 0.0
C1196 C 0.00447 0.99008 0.51738 0.0
H1197 H 0.97357 0.98301 0.47378 0.0
C1198 C 0.0116 0.01424 0.51598 0.0
C1199 C 0.99033 0.9787 0.50209 0.0
C1200 C 0.98108 0.95303 0.50315 0.0
C1201 C 0.00561 0.02723 0.49945 0.0
C1202 C 0.99175 0.01577 0.48409 0.0
C1203 C 0.98438 0.99167 0.48556 0.0
C1204 C 0.98433 0.02852 0.4664 0.0
C1205 C 0.01478 0.05292 0.49837 0.0
C1206 C 0.96434 0.04726 0.46672 0.0
C1207 C 0.95631 0.05855 0.44989 0.0
C1208 C 0.96803 0.0512 0.43245 0.0
C1209 C 0.98824 0.03255 0.43218 0.0
C1210 C 0.99623 0.02123 0.44904 0.0
H1211 H 0.0313 0.05731 0.50926 0.0
H1212 H 0.0237 0.05717 0.48414 0.0
H1213 H 0.99567 0.06445 0.50082 0.0
H1214 H 0.95452 0.05285 0.47994 0.0
H1215 H 0.94058 0.0728 0.45052 0.0
H1216 H 0.49637 0.52518 0.07942 0.0
H1217 H 0.48292 0.5046 0.05007 0.0
H1218 H 0.54131 0.54933 0.01845 0.0
H1219 H 0.55515 0.56972 0.04769 0.0
H1220 H 0.45942 0.52257 0.01614 0.0
H1221 H 0.5675 0.48206 0.00425 0.0
H1222 H 0.55715 0.49521 0.0266 0.0
H1223 H 0.56795 0.51376 0.00709 0.0
C1224 C 0.50625 0.53066 0.0662 0.0
C1225 C 0.52696 0.54892 0.06585 0.0
C1226 C 0.49857 0.5189 0.04947 0.0
C1227 C 0.51154 0.52517 0.03218 0.0
C1228 C 0.53154 0.54388 0.03172 0.0
H1229 H 0.49563 0.47366 0.91645 0.0
H1230 H 0.5088 0.49525 0.9454 0.0
C1231 C 0.53928 0.5556 0.04842 0.0
C1232 C 0.50416 0.51214 0.01461 0.0
H1233 H 0.53308 0.47762 0.97957 0.0
C1234 C 0.47546 0.51266 0.00817 0.0
C1235 C 0.52521 0.49927 0.00426 0.0
C1236 C 0.55613 0.4973 0.01095 0.0
C1237 C 0.4673 0.50093 0.99144 0.0
C1238 C 0.48834 0.48804 0.98112 0.0
C1239 C 0.51705 0.48757 0.98753 0.0
C1240 C 0.48087 0.47466 0.96374 0.0
C1241 C 0.43636 0.50278 0.98478 0.0
C1242 C 0.46133 0.45564 0.96459 0.0
C1243 C 0.45382 0.44331 0.94814 0.0
C1244 C 0.46586 0.4497 0.93055 0.0
C1245 C 0.48598 0.46838 0.9298 0.0
C1246 C 0.49349 0.48072 0.94629 0.0
H1247 H 0.42495 0.51802 0.99145 0.0
H1248 H 0.4353 0.50479 0.96913 0.0
H1249 H 0.42463 0.4863 0.98869 0.0
H1250 H 0.45184 0.45038 0.97799 0.0
H1251 H 0.43836 0.42891 0.94918 0.0
H1252 H 0.93623 0.4317 0.04761 0.0
H1253 H 0.95071 0.45319 0.019 0.0
H1254 H 0.01257 0.49343 0.05162 0.0
H1255 H 0.99846 0.47177 0.0803 0.0
H1256 H 0.94763 0.50227 0.01297 0.0
H1257 H 0.06052 0.4693 0.00663 0.0
H1258 H 0.03395 0.45505 0.02155 0.0
H1259 H 0.05159 0.48176 0.02934 0.0
C1260 C 0.95311 0.44497 0.04867 0.0
C1261 C 0.96631 0.45001 0.06617 0.0
C1262 C 0.9613 0.45725 0.03233 0.0
C1263 C 0.98291 0.47469 0.03317 0.0
C1264 C 0.99622 0.47971 0.05061 0.0
H1265 H 0.05832 0.56963 0.95 0.0
H1266 H 0.04359 0.54926 0.97908 0.0
C1267 C 0.98806 0.4674 0.06698 0.0
C1268 C 0.99072 0.48817 0.0159 0.0
H1269 H 0.04661 0.50033 0.98582 0.0
C1270 C 0.96924 0.5018 0.00697 0.0
C1271 C 0.01894 0.48753 0.00819 0.0
C1272 C 0.04256 0.47247 0.01679 0.0
C1273 C 0.97533 0.5151 0.99062 0.0
C1274 C 0.00352 0.5144 0.98287 0.0
C1275 C 0.02502 0.50083 0.99184 0.0
C1276 C 0.0112 0.52748 0.96538 0.0
C1277 C 0.95171 0.53013 0.98199 0.0
C1278 C 0.99783 0.52196 0.94806 0.0
C1279 C 0.00615 0.5336 0.93142 0.0
C1280 C 0.02812 0.55084 0.93184 0.0
C1281 C 0.04129 0.55646 0.94924 0.0
C1282 C 0.03295 0.54483 0.96585 0.0
H1283 H 0.93388 0.53352 0.99221 0.0
H1284 H 0.96036 0.54745 0.97703 0.0
H1285 H 0.94247 0.52069 0.96957 0.0
H1286 H 0.98137 0.5083 0.94735 0.0
H1287 H 0.99575 0.52881 0.9182 0.0
H1288 H 0.99872 0.52725 0.58066 0.0
H1289 H 0.01297 0.50595 0.55179 0.0
H1290 H 0.94865 0.54453 0.5199 0.0
H1291 H 0.93409 0.56564 0.54864 0.0
H1292 H 0.94799 0.49527 0.51358 0.0
H1293 H 0.0587 0.53267 0.50652 0.0
H1294 H 0.05078 0.51967 0.52921 0.0
H1295 H 0.03157 0.54578 0.52169 0.0
C1296 C 0.98775 0.53126 0.56747 0.0
C1297 C 0.96537 0.54815 0.56688 0.0
C1298 C 0.99598 0.51917 0.55099 0.0
C1299 C 0.98208 0.52391 0.5337 0.0
C1300 C 0.9597 0.54071 0.53311 0.0
H1301 H 0.99525 0.47094 0.41809 0.0
H1302 H 0.98069 0.49143 0.44726 0.0
C1303 C 0.95146 0.55277 0.54953 0.0
C1304 C 0.99026 0.51097 0.51624 0.0
H1305 H 0.04597 0.50173 0.48535 0.0
C1306 C 0.96937 0.49671 0.50735 0.0
C1307 C 0.01817 0.51294 0.5082 0.0
C1308 C 0.04107 0.52874 0.51677 0.0
C1309 C 0.9758 0.48404 0.49074 0.0
C1310 C 0.00369 0.48604 0.48269 0.0
C1311 C 0.02459 0.50027 0.49159 0.0
C1312 C 0.01181 0.47334 0.4651 0.0
C1313 C 0.9529 0.46825 0.48217 0.0
C1314 C 0.03438 0.4567 0.46546 0.0
C1315 C 0.0428 0.44511 0.44886 0.0
C1316 C 0.02889 0.45005 0.43157 0.0
C1317 C 0.00623 0.4667 0.43123 0.0
C1318 C 0.99782 0.47832 0.44788 0.0
H1319 H 0.93539 0.46416 0.49246 0.0
H1320 H 0.94302 0.47742 0.46983 0.0
H1321 H 0.96243 0.45129 0.47709 0.0
H1322 H 0.0455 0.4527 0.4786 0.0
H1323 H 0.06037 0.4324 0.44956 0.0
H1324 H 0.49829 0.47052 0.57929 0.0
H1325 H 0.48236 0.49074 0.55027 0.0
H1326 H 0.54785 0.45363 0.51828 0.0
H1327 H 0.56355 0.43317 0.54703 0.0
H1328 H 0.515 0.52017 0.52653 0.0
H1329 H 0.4747 0.44132 0.48736 0.0
H1330 H 0.48187 0.44081 0.51253 0.0
H1331 H 0.51113 0.4383 0.49584 0.0
C1332 C 0.50912 0.46658 0.56603 0.0
C1333 C 0.53204 0.45019 0.56539 0.0
C1334 C 0.50004 0.47813 0.5495 0.0
C1335 C 0.51364 0.47337 0.5321 0.0
C1336 C 0.53664 0.45715 0.53148 0.0
H1337 H 0.49763 0.52813 0.41734 0.0
H1338 H 0.513 0.50758 0.44634 0.0
C1339 C 0.54568 0.44558 0.54795 0.0
C1340 C 0.50453 0.48598 0.51468 0.0
H1341 H 0.47908 0.47719 0.46976 0.0
C1342 C 0.50696 0.51081 0.51415 0.0
C1343 C 0.4942 0.47367 0.49855 0.0
C1344 C 0.49004 0.44707 0.49858 0.0
C1345 C 0.49979 0.52368 0.49777 0.0
C1346 C 0.48954 0.51136 0.48163 0.0
C1347 C 0.48709 0.48653 0.48215 0.0
C1348 C 0.48058 0.52398 0.4642 0.0
C1349 C 0.50379 0.55029 0.49773 0.0
C1350 C 0.4571 0.53975 0.46467 0.0
C1351 C 0.44832 0.55146 0.4482 0.0
C1352 C 0.46278 0.54751 0.43094 0.0
C1353 C 0.48617 0.53157 0.43046 0.0
C1354 C 0.49494 0.51982 0.44697 0.0
H1355 H 0.51861 0.55619 0.5092 0.0
H1356 H 0.51249 0.55648 0.48391 0.0
H1357 H 0.48252 0.55898 0.50002 0.0
H1358 H 0.44539 0.54283 0.47775 0.0
H1359 H 0.43011 0.56354 0.449 0.0
loop_
_geom_bond_atom_site_label_1
_geom_bond_atom_site_label_2
_geom_bond_distance
_geom_bond_site_symmetry_2
_ccdc_geom_bond_type
In0 O1 2.294 . S
In0 O2 2.326 . S
In0 O6 2.266 . S
In0 O7 2.326 . S
In0 O8 2.266 . S
In0 O9 2.326 . S
In0 O11 2.294 . S
In0 O12 2.326 . S
O1 In0 2.294 . S
O1 C10 1.240 . S
O2 In0 2.326 . S
O2 C10 1.252 . S
C3 O6 1.252 . S
C3 O7 1.260 . S
C4 O11 1.240 . S
C4 O12 1.252 . S
C5 O8 1.252 . S
C5 O9 1.260 . S
O6 In0 2.266 . S
O6 C3 1.252 . S
O7 In0 2.326 . S
O7 C3 1.260 . S
O8 In0 2.266 . S
O8 C5 1.252 . S
O9 In0 2.326 . S
O9 C5 1.260 . S
C10 O1 1.240 . S
C10 O2 1.252 . S
O11 In0 2.294 . S
O11 C4 1.240 . S
O12 In0 2.326 . S
O12 C4 1.252 . S
In13 O14 2.294 . S
In13 O15 2.326 . S
In13 O19 2.266 . S
In13 O20 2.326 . S
In13 O21 2.266 . S
In13 O22 2.326 . S
In13 O24 2.294 . S
In13 O25 2.326 . S
O14 In13 2.294 . S
O14 C23 1.240 . S
O15 In13 2.326 . S
O15 C23 1.252 . S
C16 O19 1.252 . S
C16 O20 1.260 . S
C17 O24 1.240 . S
C17 O25 1.252 . S
C18 O21 1.252 . S
C18 O22 1.260 . S
O19 In13 2.266 . S
O19 C16 1.252 . S
O20 In13 2.326 . S
O20 C16 1.260 . S
O21 In13 2.266 . S
O21 C18 1.252 . S
O22 In13 2.326 . S
O22 C18 1.260 . S
C23 O14 1.240 . S
C23 O15 1.252 . S
O24 In13 2.294 . S
O24 C17 1.240 . S
O25 In13 2.326 . S
O25 C17 1.252 . S
In26 O27 2.294 . S
In26 O28 2.326 . S
In26 O32 2.266 . S
In26 O33 2.326 . S
In26 O34 2.266 . S
In26 O35 2.326 . S
In26 O37 2.294 . S
In26 O38 2.326 . S
O27 In26 2.294 . S
O27 C36 1.240 . S
O28 In26 2.326 . S
O28 C36 1.252 . S
C29 O32 1.252 . S
C29 O33 1.260 . S
C30 O37 1.240 . S
C30 O38 1.252 . S
C31 O34 1.252 . S
C31 O35 1.260 . S
O32 In26 2.266 . S
O32 C29 1.252 . S
O33 In26 2.326 . S
O33 C29 1.260 . S
O34 In26 2.266 . S
O34 C31 1.252 . S
O35 In26 2.326 . S
O35 C31 1.260 . S
C36 O27 1.240 . S
C36 O28 1.252 . S
O37 In26 2.294 . S
O37 C30 1.240 . S
O38 In26 2.326 . S
O38 C30 1.252 . S
In39 O40 2.294 . S
In39 O41 2.326 . S
In39 O45 2.266 . S
In39 O46 2.326 . S
In39 O47 2.266 . S
In39 O48 2.326 . S
In39 O50 2.294 . S
In39 O51 2.326 . S
O40 In39 2.294 . S
O40 C49 1.240 . S
O41 In39 2.326 . S
O41 C49 1.252 . S
C42 O45 1.252 . S
C42 O46 1.260 . S
C43 O50 1.240 . S
C43 O51 1.252 . S
C44 O47 1.252 . S
C44 O48 1.260 . S
O45 In39 2.266 . S
O45 C42 1.252 . S
O46 In39 2.326 . S
O46 C42 1.260 . S
O47 In39 2.266 . S
O47 C44 1.252 . S
O48 In39 2.326 . S
O48 C44 1.260 . S
C49 O40 1.240 . S
C49 O41 1.252 . S
O50 In39 2.294 . S
O50 C43 1.240 . S
O51 In39 2.326 . S
O51 C43 1.252 . S
In52 O53 2.294 . S
In52 O54 2.326 . S
In52 O58 2.266 . S
In52 O59 2.326 . S
In52 O60 2.266 . S
In52 O61 2.326 . S
In52 O63 2.294 . S
In52 O64 2.326 . S
O53 In52 2.294 . S
O53 C62 1.240 . S
O54 In52 2.326 . S
O54 C62 1.252 . S
C55 O58 1.252 . S
C55 O59 1.260 . S
C56 O63 1.240 . S
C56 O64 1.252 . S
C57 O60 1.252 . S
C57 O61 1.260 . S
O58 In52 2.266 . S
O58 C55 1.252 . S
O59 In52 2.326 . S
O59 C55 1.260 . S
O60 In52 2.266 . S
O60 C57 1.252 . S
O61 In52 2.326 . S
O61 C57 1.260 . S
C62 O53 1.240 . S
C62 O54 1.252 . S
O63 In52 2.294 . S
O63 C56 1.240 . S
O64 In52 2.326 . S
O64 C56 1.252 . S
In65 O66 2.294 . S
In65 O67 2.326 . S
In65 O71 2.266 . S
In65 O72 2.326 . S
In65 O73 2.266 . S
In65 O74 2.326 . S
In65 O76 2.294 . S
In65 O77 2.326 . S
O66 In65 2.294 . S
O66 C75 1.240 . S
O67 In65 2.326 . S
O67 C75 1.252 . S
C68 O71 1.252 . S
C68 O72 1.260 . S
C69 O76 1.240 . S
C69 O77 1.252 . S
C70 O73 1.252 . S
C70 O74 1.260 . S
O71 In65 2.266 . S
O71 C68 1.252 . S
O72 In65 2.326 . S
O72 C68 1.260 . S
O73 In65 2.266 . S
O73 C70 1.252 . S
O74 In65 2.326 . S
O74 C70 1.260 . S
C75 O66 1.240 . S
C75 O67 1.252 . S
O76 In65 2.294 . S
O76 C69 1.240 . S
O77 In65 2.326 . S
O77 C69 1.252 . S
In78 O79 2.294 . S
In78 O80 2.326 . S
In78 O84 2.266 . S
In78 O85 2.326 . S
In78 O86 2.266 . S
In78 O87 2.326 . S
In78 O89 2.294 . S
In78 O90 2.326 . S
O79 In78 2.294 . S
O79 C88 1.240 . S
O80 In78 2.326 . S
O80 C88 1.252 . S
C81 O84 1.252 . S
C81 O85 1.260 . S
C82 O89 1.240 . S
C82 O90 1.252 . S
C83 O86 1.252 . S
C83 O87 1.260 . S
O84 In78 2.266 . S
O84 C81 1.252 . S
O85 In78 2.326 . S
O85 C81 1.260 . S
O86 In78 2.266 . S
O86 C83 1.252 . S
O87 In78 2.326 . S
O87 C83 1.260 . S
C88 O79 1.240 . S
C88 O80 1.252 . S
O89 In78 2.294 . S
O89 C82 1.240 . S
O90 In78 2.326 . S
O90 C82 1.252 . S
In91 O92 2.294 . S
In91 O93 2.326 . S
In91 O97 2.266 . S
In91 O98 2.326 . S
In91 O99 2.266 . S
In91 O100 2.326 . S
In91 O102 2.294 . S
In91 O103 2.326 . S
O92 In91 2.294 . S
O92 C101 1.240 . S
O93 In91 2.326 . S
O93 C101 1.252 . S
C94 O97 1.252 . S
C94 O98 1.260 . S
C95 O102 1.240 . S
C95 O103 1.252 . S
C96 O99 1.252 . S
C96 O100 1.260 . S
O97 In91 2.266 . S
O97 C94 1.252 . S
O98 In91 2.326 . S
O98 C94 1.260 . S
O99 In91 2.266 . S
O99 C96 1.252 . S
O100 In91 2.326 . S
O100 C96 1.260 . S
C101 O92 1.240 . S
C101 O93 1.252 . S
O102 In91 2.294 . S
O102 C95 1.240 . S
O103 In91 2.326 . S
O103 C95 1.252 . S
In104 O105 2.294 . S
In104 O106 2.326 . S
In104 O110 2.266 . S
In104 O111 2.326 . S
In104 O112 2.266 . S
In104 O113 2.326 . S
In104 O115 2.294 . S
In104 O116 2.326 . S
O105 In104 2.294 . S
O105 C114 1.240 . S
O106 In104 2.326 . S
O106 C114 1.252 . S
C107 O110 1.252 . S
C107 O111 1.260 . S
C108 O115 1.240 . S
C108 O116 1.252 . S
C109 O112 1.252 . S
C109 O113 1.260 . S
O110 In104 2.266 . S
O110 C107 1.252 . S
O111 In104 2.326 . S
O111 C107 1.260 . S
O112 In104 2.266 . S
O112 C109 1.252 . S
O113 In104 2.326 . S
O113 C109 1.260 . S
C114 O105 1.240 . S
C114 O106 1.252 . S
O115 In104 2.294 . S
O115 C108 1.240 . S
O116 In104 2.326 . S
O116 C108 1.252 . S
In117 O118 2.294 . S
In117 O119 2.326 . S
In117 O123 2.266 . S
In117 O124 2.326 . S
In117 O125 2.266 . S
In117 O126 2.326 . S
In117 O128 2.294 . S
In117 O129 2.326 . S
O118 In117 2.294 . S
O118 C127 1.240 . S
O119 In117 2.326 . S
O119 C127 1.252 . S
C120 O123 1.252 . S
C120 O124 1.260 . S
C121 O128 1.240 . S
C121 O129 1.252 . S
C122 O125 1.252 . S
C122 O126 1.260 . S
O123 In117 2.266 . S
O123 C120 1.252 . S
O124 In117 2.326 . S
O124 C120 1.260 . S
O125 In117 2.266 . S
O125 C122 1.252 . S
O126 In117 2.326 . S
O126 C122 1.260 . S
C127 O118 1.240 . S
C127 O119 1.252 . S
O128 In117 2.294 . S
O128 C121 1.240 . S
O129 In117 2.326 . S
O129 C121 1.252 . S
In130 O131 2.294 . S
In130 O132 2.326 . S
In130 O136 2.266 . S
In130 O137 2.326 . S
In130 O138 2.266 . S
In130 O139 2.326 . S
In130 O141 2.294 . S
In130 O142 2.326 . S
O131 In130 2.294 . S
O131 C140 1.240 . S
O132 In130 2.326 . S
O132 C140 1.252 . S
C133 O136 1.252 . S
C133 O137 1.260 . S
C134 O141 1.240 . S
C134 O142 1.252 . S
C135 O138 1.252 . S
C135 O139 1.260 . S
O136 In130 2.266 . S
O136 C133 1.252 . S
O137 In130 2.326 . S
O137 C133 1.260 . S
O138 In130 2.266 . S
O138 C135 1.252 . S
O139 In130 2.326 . S
O139 C135 1.260 . S
C140 O131 1.240 . S
C140 O132 1.252 . S
O141 In130 2.294 . S
O141 C134 1.240 . S
O142 In130 2.326 . S
O142 C134 1.252 . S
In143 O144 2.294 . S
In143 O145 2.326 . S
In143 O149 2.266 . S
In143 O150 2.326 . S
In143 O151 2.266 . S
In143 O152 2.326 . S
In143 O154 2.294 . S
In143 O155 2.326 . S
O144 In143 2.294 . S
O144 C153 1.240 . S
O145 In143 2.326 . S
O145 C153 1.252 . S
C146 O149 1.252 . S
C146 O150 1.260 . S
C147 O154 1.240 . S
C147 O155 1.252 . S
C148 O151 1.252 . S
C148 O152 1.260 . S
O149 In143 2.266 . S
O149 C146 1.252 . S
O150 In143 2.326 . S
O150 C146 1.260 . S
O151 In143 2.266 . S
O151 C148 1.252 . S
O152 In143 2.326 . S
O152 C148 1.260 . S
C153 O144 1.240 . S
C153 O145 1.252 . S
O154 In143 2.294 . S
O154 C147 1.240 . S
O155 In143 2.326 . S
O155 C147 1.252 . S
In156 O157 2.294 . S
In156 O158 2.326 . S
In156 O162 2.266 . S
In156 O163 2.326 . S
In156 O164 2.266 . S
In156 O165 2.326 . S
In156 O167 2.294 . S
In156 O168 2.326 . S
O157 In156 2.294 . S
O157 C166 1.240 . S
O158 In156 2.326 . S
O158 C166 1.252 . S
C159 O162 1.252 . S
C159 O163 1.260 . S
C160 O167 1.240 . S
C160 O168 1.252 . S
C161 O164 1.252 . S
C161 O165 1.260 . S
O162 In156 2.266 . S
O162 C159 1.252 . S
O163 In156 2.326 . S
O163 C159 1.260 . S
O164 In156 2.266 . S
O164 C161 1.252 . S
O165 In156 2.326 . S
O165 C161 1.260 . S
C166 O157 1.240 . S
C166 O158 1.252 . S
O167 In156 2.294 . S
O167 C160 1.240 . S
O168 In156 2.326 . S
O168 C160 1.252 . S
In169 O170 2.294 . S
In169 O171 2.326 . S
In169 O175 2.266 . S
In169 O176 2.326 . S
In169 O177 2.266 . S
In169 O178 2.326 . S
In169 O180 2.294 . S
In169 O181 2.326 . S
O170 In169 2.294 . S
O170 C179 1.240 . S
O171 In169 2.326 . S
O171 C179 1.252 . S
C172 O175 1.252 . S
C172 O176 1.260 . S
C173 O180 1.240 . S
C173 O181 1.252 . S
C174 O177 1.252 . S
C174 O178 1.260 . S
O175 In169 2.266 . S
O175 C172 1.252 . S
O176 In169 2.326 . S
O176 C172 1.260 . S
O177 In169 2.266 . S
O177 C174 1.252 . S
O178 In169 2.326 . S
O178 C174 1.260 . S
C179 O170 1.240 . S
C179 O171 1.252 . S
O180 In169 2.294 . S
O180 C173 1.240 . S
O181 In169 2.326 . S
O181 C173 1.252 . S
In182 O183 2.294 . S
In182 O184 2.326 . S
In182 O188 2.266 . S
In182 O189 2.326 . S
In182 O190 2.266 . S
In182 O191 2.326 . S
In182 O193 2.294 . S
In182 O194 2.326 . S
O183 In182 2.294 . S
O183 C192 1.240 . S
O184 In182 2.326 . S
O184 C192 1.252 . S
C185 O188 1.252 . S
C185 O189 1.260 . S
C186 O193 1.240 . S
C186 O194 1.252 . S
C187 O190 1.252 . S
C187 O191 1.260 . S
O188 In182 2.266 . S
O188 C185 1.252 . S
O189 In182 2.326 . S
O189 C185 1.260 . S
O190 In182 2.266 . S
O190 C187 1.252 . S
O191 In182 2.326 . S
O191 C187 1.260 . S
C192 O183 1.240 . S
C192 O184 1.252 . S
O193 In182 2.294 . S
O193 C186 1.240 . S
O194 In182 2.326 . S
O194 C186 1.252 . S
In195 O196 2.294 . S
In195 O197 2.326 . S
In195 O201 2.266 . S
In195 O202 2.326 . S
In195 O203 2.266 . S
In195 O204 2.326 . S
In195 O206 2.294 . S
In195 O207 2.326 . S
O196 In195 2.294 . S
O196 C205 1.240 . S
O197 In195 2.326 . S
O197 C205 1.252 . S
C198 O201 1.252 . S
C198 O202 1.260 . S
C199 O206 1.240 . S
C199 O207 1.252 . S
C200 O203 1.252 . S
C200 O204 1.260 . S
O201 In195 2.266 . S
O201 C198 1.252 . S
O202 In195 2.326 . S
O202 C198 1.260 . S
O203 In195 2.266 . S
O203 C200 1.252 . S
O204 In195 2.326 . S
O204 C200 1.260 . S
C205 O196 1.240 . S
C205 O197 1.252 . S
O206 In195 2.294 . S
O206 C199 1.240 . S
O207 In195 2.326 . S
O207 C199 1.252 . S
H208 C216 0.929 . S
H209 C218 0.930 . S
H210 C220 0.930 . S
H211 C223 0.929 . S
H212 C226 0.930 . S
H213 C228 0.960 . S
H214 C228 0.960 . S
H215 C228 0.960 . S
C216 H208 0.929 . S
C216 C217 1.377 . S
C216 C218 1.384 . S
C217 C216 1.377 . S
C217 C223 1.390 . S
C218 H209 0.930 . S
C218 C216 1.384 . S
C218 C219 1.372 . S
C219 C218 1.372 . S
C219 C220 1.400 . S
C219 C224 1.490 . S
C220 H210 0.930 . S
C220 C219 1.400 . S
C220 C223 1.386 . S
H221 C237 0.930 . S
H222 C238 0.931 . S
C223 H211 0.929 . S
C223 C217 1.390 . S
C223 C220 1.386 . S
C224 C219 1.490 . S
C224 C226 1.395 1_565 S
C224 C227 1.403 . S
H225 C231 0.930 . S
C226 H212 0.930 . S
C226 C224 1.395 1_545 S
C226 C229 1.403 . S
C227 C224 1.403 . S
C227 C228 1.524 . S
C227 C231 1.400 . S
C228 H213 0.960 . S
C228 H214 0.960 . S
C228 H215 0.960 . S
C228 C227 1.524 . S
C229 C226 1.403 . S
C229 C230 1.392 . S
C229 C233 1.495 . S
C230 C229 1.392 . S
C230 C231 1.385 1_545 S
C230 C232 1.478 . S
C231 H225 0.930 . S
C231 C227 1.400 . S
C231 C230 1.385 1_565 S
C232 C230 1.478 . S
C232 C234 1.381 . S
C232 C238 1.383 . S
C233 C229 1.495 . S
C233 H239 0.959 . S
C233 H240 0.961 . S
C233 H241 0.960 . S
C234 C232 1.381 . S
C234 C235 1.394 . S
C234 H242 0.930 . S
C235 C234 1.394 . S
C235 C236 1.383 . S
C235 H243 0.929 . S
C236 C235 1.383 . S
C236 C237 1.377 . S
C237 H221 0.930 . S
C237 C236 1.377 . S
C237 C238 1.379 . S
C238 H222 0.931 . S
C238 C232 1.383 . S
C238 C237 1.379 . S
H239 C233 0.959 . S
H240 C233 0.961 . S
H241 C233 0.960 . S
H242 C234 0.930 . S
H243 C235 0.929 . S
H244 C252 0.929 . S
H245 C254 0.930 . S
H246 C256 0.930 . S
H247 C259 0.929 . S
H248 C262 0.930 . S
H249 C264 0.960 . S
H250 C264 0.960 . S
H251 C264 0.960 . S
C252 H244 0.929 . S
C252 C253 1.377 . S
C252 C254 1.384 . S
C253 C252 1.377 . S
C253 C259 1.390 . S
C254 H245 0.930 . S
C254 C252 1.384 . S
C254 C255 1.372 . S
C255 C254 1.372 . S
C255 C256 1.400 . S
C255 C260 1.490 . S
C256 H246 0.930 . S
C256 C255 1.400 . S
C256 C259 1.386 . S
H257 C273 0.930 . S
H258 C274 0.931 . S
C259 H247 0.929 . S
C259 C253 1.390 . S
C259 C256 1.386 . S
C260 C255 1.490 . S
C260 C262 1.395 . S
C260 C263 1.403 1_565 S
H261 C267 0.930 . S
C262 H248 0.930 . S
C262 C260 1.395 . S
C262 C265 1.403 . S
C263 C260 1.403 1_545 S
C263 C264 1.524 . S
C263 C267 1.400 . S
C264 H249 0.960 . S
C264 H250 0.960 . S
C264 H251 0.960 . S
C264 C263 1.524 . S
C265 C262 1.403 . S
C265 C266 1.392 1_565 S
C265 C269 1.495 . S
C266 C265 1.392 1_545 S
C266 C267 1.385 . S
C266 C268 1.478 . S
C267 H261 0.930 . S
C267 C263 1.400 . S
C267 C266 1.385 . S
C268 C266 1.478 . S
C268 C270 1.381 . S
C268 C274 1.383 . S
C269 C265 1.495 . S
C269 H275 0.959 . S
C269 H276 0.961 . S
C269 H277 0.960 . S
C270 C268 1.381 . S
C270 C271 1.394 . S
C270 H278 0.930 . S
C271 C270 1.394 . S
C271 C272 1.383 . S
C271 H279 0.929 . S
C272 C271 1.383 . S
C272 C273 1.377 . S
C273 H257 0.930 . S
C273 C272 1.377 . S
C273 C274 1.379 . S
C274 H258 0.931 . S
C274 C268 1.383 . S
C274 C273 1.379 . S
H275 C269 0.959 . S
H276 C269 0.961 . S
H277 C269 0.960 . S
H278 C270 0.930 . S
H279 C271 0.929 . S
H280 C288 0.929 . S
H281 C290 0.930 . S
H282 C292 0.930 . S
H283 C295 0.929 . S
H284 C298 0.930 . S
H285 C300 0.960 . S
H286 C300 0.960 . S
H287 C300 0.960 . S
C288 H280 0.929 . S
C288 C289 1.377 . S
C288 C290 1.384 . S
C289 C288 1.377 . S
C289 C295 1.390 . S
C290 H281 0.930 . S
C290 C288 1.384 . S
C290 C291 1.372 . S
C291 C290 1.372 . S
C291 C292 1.400 . S
C291 C296 1.490 . S
C292 H282 0.930 . S
C292 C291 1.400 . S
C292 C295 1.386 . S
H293 C309 0.930 . S
H294 C310 0.931 . S
C295 H283 0.929 . S
C295 C289 1.390 . S
C295 C292 1.386 . S
C296 C291 1.490 . S
C296 C298 1.395 . S
C296 C299 1.403 1_565 S
H297 C303 0.930 . S
C298 H284 0.930 . S
C298 C296 1.395 . S
C298 C301 1.403 . S
C299 C296 1.403 1_545 S
C299 C300 1.524 . S
C299 C303 1.400 . S
C300 H285 0.960 . S
C300 H286 0.960 . S
C300 H287 0.960 . S
C300 C299 1.524 . S
C301 C298 1.403 . S
C301 C302 1.392 1_565 S
C301 C305 1.495 . S
C302 C301 1.392 1_545 S
C302 C303 1.385 . S
C302 C304 1.478 . S
C303 H297 0.930 . S
C303 C299 1.400 . S
C303 C302 1.385 . S
C304 C302 1.478 . S
C304 C306 1.381 . S
C304 C310 1.383 . S
C305 C301 1.495 . S
C305 H311 0.959 . S
C305 H312 0.961 . S
C305 H313 0.960 . S
C306 C304 1.381 . S
C306 C307 1.394 . S
C306 H314 0.930 . S
C307 C306 1.394 . S
C307 C308 1.383 . S
C307 H315 0.929 . S
C308 C307 1.383 . S
C308 C309 1.377 . S
C309 H293 0.930 . S
C309 C308 1.377 . S
C309 C310 1.379 . S
C310 H294 0.931 . S
C310 C304 1.383 . S
C310 C309 1.379 . S
H311 C305 0.959 . S
H312 C305 0.961 . S
H313 C305 0.960 . S
H314 C306 0.930 . S
H315 C307 0.929 . S
H316 C324 0.929 . S
H317 C326 0.930 . S
H318 C328 0.930 . S
H319 C331 0.929 . S
H320 C334 0.930 . S
H321 C336 0.960 . S
H322 C336 0.960 . S
H323 C336 0.960 . S
C324 H316 0.929 . S
C324 C325 1.377 . S
C324 C326 1.384 . S
C325 C324 1.377 . S
C325 C331 1.390 . S
C326 H317 0.930 . S
C326 C324 1.384 . S
C326 C327 1.372 . S
C327 C326 1.372 . S
C327 C328 1.400 . S
C327 C332 1.490 . S
C328 H318 0.930 . S
C328 C327 1.400 . S
C328 C331 1.386 . S
H329 C345 0.930 . S
H330 C346 0.931 . S
C331 H319 0.929 . S
C331 C325 1.390 . S
C331 C328 1.386 . S
C332 C327 1.490 . S
C332 C334 1.395 1_565 S
C332 C335 1.403 . S
H333 C339 0.930 . S
C334 H320 0.930 . S
C334 C332 1.395 1_545 S
C334 C337 1.403 . S
C335 C332 1.403 . S
C335 C336 1.524 . S
C335 C339 1.400 . S
C336 H321 0.960 . S
C336 H322 0.960 . S
C336 H323 0.960 . S
C336 C335 1.524 . S
C337 C334 1.403 . S
C337 C338 1.392 . S
C337 C341 1.495 . S
C338 C337 1.392 . S
C338 C339 1.385 1_545 S
C338 C340 1.478 . S
C339 H333 0.930 . S
C339 C335 1.400 . S
C339 C338 1.385 1_565 S
C340 C338 1.478 . S
C340 C342 1.381 . S
C340 C346 1.383 . S
C341 C337 1.495 . S
C341 H347 0.959 . S
C341 H348 0.961 . S
C341 H349 0.960 . S
C342 C340 1.381 . S
C342 C343 1.394 . S
C342 H350 0.930 . S
C343 C342 1.394 . S
C343 C344 1.383 . S
C343 H351 0.929 . S
C344 C343 1.383 . S
C344 C345 1.377 . S
C345 H329 0.930 . S
C345 C344 1.377 . S
C345 C346 1.379 . S
C346 H330 0.931 . S
C346 C340 1.383 . S
C346 C345 1.379 . S
H347 C341 0.959 . S
H348 C341 0.961 . S
H349 C341 0.960 . S
H350 C342 0.930 . S
H351 C343 0.929 . S
H352 C360 0.929 . S
H353 C362 0.930 . S
H354 C364 0.930 . S
H355 C367 0.929 . S
H356 C370 0.930 . S
H357 C372 0.960 . S
H358 C372 0.960 . S
H359 C372 0.960 . S
C360 H352 0.929 . S
C360 C361 1.377 . S
C360 C362 1.384 . S
C361 C360 1.377 . S
C361 C367 1.390 . S
C362 H353 0.930 . S
C362 C360 1.384 . S
C362 C363 1.372 . S
C363 C362 1.372 . S
C363 C364 1.400 . S
C363 C368 1.490 . S
C364 H354 0.930 . S
C364 C363 1.400 . S
C364 C367 1.386 . S
H365 C381 0.930 . S
H366 C382 0.931 . S
C367 H355 0.929 . S
C367 C361 1.390 . S
C367 C364 1.386 . S
C368 C363 1.490 . S
C368 C370 1.395 . S
C368 C371 1.403 . S
H369 C375 0.930 . S
C370 H356 0.930 . S
C370 C368 1.395 . S
C370 C373 1.403 . S
C371 C368 1.403 . S
C371 C372 1.524 . S
C371 C375 1.400 . S
C372 H357 0.960 . S
C372 H358 0.960 . S
C372 H359 0.960 . S
C372 C371 1.524 . S
C373 C370 1.403 . S
C373 C374 1.392 . S
C373 C377 1.495 . S
C374 C373 1.392 . S
C374 C375 1.385 . S
C374 C376 1.478 . S
C375 H369 0.930 . S
C375 C371 1.400 . S
C375 C374 1.385 . S
C376 C374 1.478 . S
C376 C378 1.381 . S
C376 C382 1.383 . S
C377 C373 1.495 . S
C377 H383 0.959 . S
C377 H384 0.961 . S
C377 H385 0.960 . S
C378 C376 1.381 . S
C378 C379 1.394 . S
C378 H386 0.930 . S
C379 C378 1.394 . S
C379 C380 1.383 . S
C379 H387 0.929 . S
C380 C379 1.383 . S
C380 C381 1.377 . S
C381 H365 0.930 . S
C381 C380 1.377 . S
C381 C382 1.379 . S
C382 H366 0.931 . S
C382 C376 1.383 . S
C382 C381 1.379 . S
H383 C377 0.959 . S
H384 C377 0.961 . S
H385 C377 0.960 . S
H386 C378 0.930 . S
H387 C379 0.929 . S
H388 C396 0.929 . S
H389 C398 0.930 . S
H390 C400 0.930 . S
H391 C403 0.929 . S
H392 C406 0.930 . S
H393 C408 0.960 . S
H394 C408 0.960 . S
H395 C408 0.960 . S
C396 H388 0.929 . S
C396 C397 1.377 . S
C396 C398 1.384 . S
C397 C396 1.377 . S
C397 C403 1.390 . S
C398 H389 0.930 . S
C398 C396 1.384 . S
C398 C399 1.372 . S
C399 C398 1.372 . S
C399 C400 1.400 . S
C399 C404 1.490 . S
C400 H390 0.930 . S
C400 C399 1.400 . S
C400 C403 1.386 . S
H401 C417 0.930 . S
H402 C418 0.931 . S
C403 H391 0.929 . S
C403 C397 1.390 . S
C403 C400 1.386 . S
C404 C399 1.490 . S
C404 C406 1.395 . S
C404 C407 1.403 . S
H405 C411 0.930 . S
C406 H392 0.930 . S
C406 C404 1.395 . S
C406 C409 1.403 . S
C407 C404 1.403 . S
C407 C408 1.524 . S
C407 C411 1.400 . S
C408 H393 0.960 . S
C408 H394 0.960 . S
C408 H395 0.960 . S
C408 C407 1.524 . S
C409 C406 1.403 . S
C409 C410 1.392 . S
C409 C413 1.495 . S
C410 C409 1.392 . S
C410 C411 1.385 . S
C410 C412 1.478 . S
C411 H405 0.930 . S
C411 C407 1.400 . S
C411 C410 1.385 . S
C412 C410 1.478 . S
C412 C414 1.381 . S
C412 C418 1.383 . S
C413 C409 1.495 . S
C413 H419 0.959 . S
C413 H420 0.961 . S
C413 H421 0.960 . S
C414 C412 1.381 . S
C414 C415 1.394 . S
C414 H422 0.930 . S
C415 C414 1.394 . S
C415 C416 1.383 . S
C415 H423 0.929 . S
C416 C415 1.383 . S
C416 C417 1.377 . S
C417 H401 0.930 . S
C417 C416 1.377 . S
C417 C418 1.379 . S
C418 H402 0.931 . S
C418 C412 1.383 . S
C418 C417 1.379 . S
H419 C413 0.959 . S
H420 C413 0.961 . S
H421 C413 0.960 . S
H422 C414 0.930 . S
H423 C415 0.929 . S
H424 C432 0.929 . S
H425 C434 0.930 . S
H426 C436 0.930 . S
H427 C439 0.929 . S
H428 C442 0.930 . S
H429 C444 0.960 . S
H430 C444 0.960 . S
H431 C444 0.960 . S
C432 H424 0.929 . S
C432 C433 1.377 . S
C432 C434 1.384 . S
C433 C432 1.377 . S
C433 C439 1.390 . S
C434 H425 0.930 . S
C434 C432 1.384 . S
C434 C435 1.372 . S
C435 C434 1.372 . S
C435 C436 1.400 . S
C435 C440 1.490 . S
C436 H426 0.930 . S
C436 C435 1.400 . S
C436 C439 1.386 . S
H437 C453 0.930 . S
H438 C454 0.931 . S
C439 H427 0.929 . S
C439 C433 1.390 . S
C439 C436 1.386 . S
C440 C435 1.490 . S
C440 C442 1.395 . S
C440 C443 1.403 . S
H441 C447 0.930 . S
C442 H428 0.930 . S
C442 C440 1.395 . S
C442 C445 1.403 . S
C443 C440 1.403 . S
C443 C444 1.524 . S
C443 C447 1.400 . S
C444 H429 0.960 . S
C444 H430 0.960 . S
C444 H431 0.960 . S
C444 C443 1.524 . S
C445 C442 1.403 . S
C445 C446 1.392 . S
C445 C449 1.495 . S
C446 C445 1.392 . S
C446 C447 1.385 . S
C446 C448 1.478 . S
C447 H441 0.930 . S
C447 C443 1.400 . S
C447 C446 1.385 . S
C448 C446 1.478 . S
C448 C450 1.381 . S
C448 C454 1.383 . S
C449 C445 1.495 . S
C449 H455 0.959 . S
C449 H456 0.961 . S
C449 H457 0.960 . S
C450 C448 1.381 . S
C450 C451 1.394 . S
C450 H458 0.930 . S
C451 C450 1.394 . S
C451 C452 1.383 . S
C451 H459 0.929 . S
C452 C451 1.383 . S
C452 C453 1.377 . S
C453 H437 0.930 . S
C453 C452 1.377 . S
C453 C454 1.379 . S
C454 H438 0.931 . S
C454 C448 1.383 . S
C454 C453 1.379 . S
H455 C449 0.959 . S
H456 C449 0.961 . S
H457 C449 0.960 . S
H458 C450 0.930 . S
H459 C451 0.929 . S
H460 C468 0.929 . S
H461 C470 0.930 . S
H462 C472 0.930 . S
H463 C475 0.929 . S
H464 C478 0.930 . S
H465 C480 0.960 . S
H466 C480 0.960 . S
H467 C480 0.960 . S
C468 H460 0.929 . S
C468 C469 1.377 . S
C468 C470 1.384 . S
C469 C468 1.377 . S
C469 C475 1.390 . S
C470 H461 0.930 . S
C470 C468 1.384 . S
C470 C471 1.372 . S
C471 C470 1.372 . S
C471 C472 1.400 . S
C471 C476 1.490 . S
C472 H462 0.930 . S
C472 C471 1.400 . S
C472 C475 1.386 . S
H473 C489 0.930 . S
H474 C490 0.931 . S
C475 H463 0.929 . S
C475 C469 1.390 . S
C475 C472 1.386 . S
C476 C471 1.490 . S
C476 C478 1.395 . S
C476 C479 1.403 . S
H477 C483 0.930 . S
C478 H464 0.930 . S
C478 C476 1.395 . S
C478 C481 1.403 . S
C479 C476 1.403 . S
C479 C480 1.524 . S
C479 C483 1.400 . S
C480 H465 0.960 . S
C480 H466 0.960 . S
C480 H467 0.960 . S
C480 C479 1.524 . S
C481 C478 1.403 . S
C481 C482 1.392 . S
C481 C485 1.495 . S
C482 C481 1.392 . S
C482 C483 1.385 . S
C482 C484 1.478 . S
C483 H477 0.930 . S
C483 C479 1.400 . S
C483 C482 1.385 . S
C484 C482 1.478 . S
C484 C486 1.381 . S
C484 C490 1.383 . S
C485 C481 1.495 . S
C485 H491 0.959 . S
C485 H492 0.961 . S
C485 H493 0.960 . S
C486 C484 1.381 . S
C486 C487 1.394 . S
C486 H494 0.930 . S
C487 C486 1.394 . S
C487 C488 1.383 . S
C487 H495 0.929 . S
C488 C487 1.383 . S
C488 C489 1.377 . S
C489 H473 0.930 . S
C489 C488 1.377 . S
C489 C490 1.379 . S
C490 H474 0.931 . S
C490 C484 1.383 . S
C490 C489 1.379 . S
H491 C485 0.959 . S
H492 C485 0.961 . S
H493 C485 0.960 . S
H494 C486 0.930 . S
H495 C487 0.929 . S
H496 C504 0.929 . S
H497 C506 0.930 . S
H498 C508 0.909 1_455 S
H499 C511 0.929 1_455 S
H500 C514 0.930 . S
H501 C516 0.960 1_455 S
H502 C516 0.960 . S
H503 C516 0.960 1_455 S
C504 H496 0.929 . S
C504 C505 1.377 . S
C504 C506 1.384 . S
C505 C504 1.377 . S
C505 C511 1.390 . S
C506 H497 0.930 . S
C506 C504 1.384 . S
C506 C507 1.372 . S
C507 C506 1.372 . S
C507 C508 1.414 . S
C507 C512 1.490 . S
C508 H498 0.909 1_655 S
C508 C507 1.414 . S
C508 C511 1.392 . S
H509 C525 0.930 . S
H510 C526 0.931 . S
C511 H499 0.929 1_655 S
C511 C505 1.390 . S
C511 C508 1.392 . S
C512 C507 1.490 . S
C512 C514 1.395 . S
C512 C515 1.403 . S
H513 C519 0.930 . S
C514 H500 0.930 . S
C514 C512 1.395 . S
C514 C517 1.403 . S
C515 C512 1.403 . S
C515 C516 1.524 . S
C515 C519 1.400 1_655 S
C516 H501 0.960 1_655 S
C516 H502 0.960 . S
C516 H503 0.960 1_655 S
C516 C515 1.524 . S
C517 C514 1.403 . S
C517 C518 1.392 1_655 S
C517 C521 1.496 . S
C518 C517 1.392 1_455 S
C518 C519 1.385 . S
C518 C520 1.478 . S
C519 H513 0.930 . S
C519 C515 1.400 1_455 S
C519 C518 1.385 . S
C520 C518 1.478 . S
C520 C522 1.381 1_455 S
C520 C526 1.383 . S
C521 C517 1.496 . S
C521 H527 0.973 . S
C521 H528 0.924 1_655 S
C521 H529 0.984 . S
C522 C520 1.381 1_655 S
C522 C523 1.394 1_655 S
C522 H530 0.930 . S
C523 C522 1.394 1_455 S
C523 C524 1.383 . S
C523 H531 0.929 1_455 S
C524 C523 1.383 . S
C524 C525 1.377 . S
C525 H509 0.930 . S
C525 C524 1.377 . S
C525 C526 1.379 . S
C526 H510 0.931 . S
C526 C520 1.383 . S
C526 C525 1.379 . S
H527 C521 0.973 . S
H528 C521 0.924 1_455 S
H529 C521 0.984 . S
H530 C522 0.930 . S
H531 C523 0.929 1_655 S
H532 C540 0.929 . S
H533 C542 0.930 . S
H534 C544 0.930 . S
H535 C547 0.929 . S
H536 C550 0.930 . S
H537 C552 0.960 . S
H538 C552 0.960 . S
H539 C552 0.960 . S
C540 H532 0.929 . S
C540 C541 1.377 . S
C540 C542 1.384 . S
C541 C540 1.377 . S
C541 C547 1.390 . S
C542 H533 0.930 . S
C542 C540 1.384 . S
C542 C543 1.372 . S
C543 C542 1.372 . S
C543 C544 1.400 . S
C543 C548 1.490 . S
C544 H534 0.930 . S
C544 C543 1.400 . S
C544 C547 1.386 . S
H545 C561 0.930 . S
H546 C562 0.931 . S
C547 H535 0.929 . S
C547 C541 1.390 . S
C547 C544 1.386 . S
C548 C543 1.490 . S
C548 C550 1.395 . S
C548 C551 1.403 . S
H549 C555 0.930 . S
C550 H536 0.930 . S
C550 C548 1.395 . S
C550 C553 1.403 . S
C551 C548 1.403 . S
C551 C552 1.524 . S
C551 C555 1.400 . S
C552 H537 0.960 . S
C552 H538 0.960 . S
C552 H539 0.960 . S
C552 C551 1.524 . S
C553 C550 1.403 . S
C553 C554 1.392 . S
C553 C557 1.495 . S
C554 C553 1.392 . S
C554 C555 1.385 . S
C554 C556 1.478 . S
C555 H549 0.930 . S
C555 C551 1.400 . S
C555 C554 1.385 . S
C556 C554 1.478 . S
C556 C558 1.381 . S
C556 C562 1.383 . S
C557 C553 1.495 . S
C557 H563 0.959 . S
C557 H564 0.961 . S
C557 H565 0.960 . S
C558 C556 1.381 . S
C558 C559 1.394 . S
C558 H566 0.930 . S
C559 C558 1.394 . S
C559 C560 1.383 . S
C559 H567 0.929 . S
C560 C559 1.383 . S
C560 C561 1.377 . S
C561 H545 0.930 . S
C561 C560 1.377 . S
C561 C562 1.379 . S
C562 H546 0.931 . S
C562 C556 1.383 . S
C562 C561 1.379 . S
H563 C557 0.959 . S
H564 C557 0.961 . S
H565 C557 0.960 . S
H566 C558 0.930 . S
H567 C559 0.929 . S
H568 C576 0.929 . S
H569 C578 0.930 1_655 S
H570 C580 0.930 . S
H571 C583 0.929 . S
H572 C586 0.930 . S
H573 C588 0.960 . S
H574 C588 0.960 . S
H575 C588 0.960 . S
C576 H568 0.929 . S
C576 C577 1.377 . S
C576 C578 1.384 . S
C577 C576 1.377 . S
C577 C583 1.390 . S
C578 H569 0.930 1_455 S
C578 C576 1.384 . S
C578 C579 1.372 . S
C579 C578 1.372 . S
C579 C580 1.400 . S
C579 C584 1.490 . S
C580 H570 0.930 . S
C580 C579 1.400 . S
C580 C583 1.386 . S
H581 C597 0.930 . S
H582 C598 0.929 . S
C583 H571 0.929 . S
C583 C577 1.390 . S
C583 C580 1.386 . S
C584 C579 1.490 . S
C584 C586 1.395 1_455 S
C584 C587 1.403 . S
H585 C591 0.930 . S
C586 H572 0.930 . S
C586 C584 1.395 1_655 S
C586 C589 1.403 . S
C587 C584 1.403 . S
C587 C588 1.524 . S
C587 C591 1.400 . S
C588 H573 0.960 . S
C588 H574 0.960 . S
C588 H575 0.960 . S
C588 C587 1.524 . S
C589 C586 1.403 . S
C589 C590 1.392 . S
C589 C593 1.495 . S
C590 C589 1.392 . S
C590 C591 1.385 1_655 S
C590 C592 1.478 . S
C591 H585 0.930 . S
C591 C587 1.400 . S
C591 C590 1.385 1_455 S
C592 C590 1.478 . S
C592 C594 1.381 . S
C592 C598 1.383 . S
C593 C589 1.495 . S
C593 H599 0.959 . S
C593 H600 0.961 . S
C593 H601 0.960 . S
C594 C592 1.381 . S
C594 C595 1.394 . S
C594 H602 0.930 . S
C595 C594 1.394 . S
C595 C596 1.383 . S
C595 H603 0.929 . S
C596 C595 1.383 . S
C596 C597 1.377 . S
C597 H581 0.930 . S
C597 C596 1.377 . S
C597 C598 1.379 . S
C598 H582 0.929 . S
C598 C592 1.383 . S
C598 C597 1.379 . S
H599 C593 0.959 . S
H600 C593 0.961 . S
H601 C593 0.960 . S
H602 C594 0.930 . S
H603 C595 0.929 . S
H604 C612 0.929 . S
H605 C614 0.930 . S
H606 C616 0.930 . S
H607 C619 0.929 . S
H608 C622 0.930 . S
H609 C624 0.960 . S
H610 C624 0.960 . S
H611 C624 0.960 . S
C612 H604 0.929 . S
C612 C613 1.377 . S
C612 C614 1.384 . S
C613 C612 1.377 . S
C613 C619 1.390 . S
C614 H605 0.930 . S
C614 C612 1.384 . S
C614 C615 1.372 . S
C615 C614 1.372 . S
C615 C616 1.400 . S
C615 C620 1.490 . S
C616 H606 0.930 . S
C616 C615 1.400 . S
C616 C619 1.386 . S
H617 C633 0.930 . S
H618 C634 0.931 . S
C619 H607 0.929 . S
C619 C613 1.390 . S
C619 C616 1.386 . S
C620 C615 1.490 . S
C620 C622 1.395 . S
C620 C623 1.403 . S
H621 C627 0.930 . S
C622 H608 0.930 . S
C622 C620 1.395 . S
C622 C625 1.403 . S
C623 C620 1.403 . S
C623 C624 1.524 . S
C623 C627 1.400 . S
C624 H609 0.960 . S
C624 H610 0.960 . S
C624 H611 0.960 . S
C624 C623 1.524 . S
C625 C622 1.403 . S
C625 C626 1.392 . S
C625 C629 1.495 . S
C626 C625 1.392 . S
C626 C627 1.385 . S
C626 C628 1.478 . S
C627 H621 0.930 . S
C627 C623 1.400 . S
C627 C626 1.385 . S
C628 C626 1.478 . S
C628 C630 1.381 . S
C628 C634 1.383 . S
C629 C625 1.495 . S
C629 H635 0.959 . S
C629 H636 0.961 . S
C629 H637 0.960 . S
C630 C628 1.381 . S
C630 C631 1.394 . S
C630 H638 0.930 . S
C631 C630 1.394 . S
C631 C632 1.383 . S
C631 H639 0.929 . S
C632 C631 1.383 . S
C632 C633 1.377 . S
C633 H617 0.930 . S
C633 C632 1.377 . S
C633 C634 1.379 . S
C634 H618 0.931 . S
C634 C628 1.383 . S
C634 C633 1.379 . S
H635 C629 0.959 . S
H636 C629 0.961 . S
H637 C629 0.960 . S
H638 C630 0.930 . S
H639 C631 0.929 . S
H640 C648 0.929 . S
H641 C650 0.930 . S
H642 C652 0.930 . S
H643 C655 0.929 . S
H644 C658 0.930 . S
H645 C660 0.960 . S
H646 C660 0.960 . S
H647 C660 0.960 . S
C648 H640 0.929 . S
C648 C649 1.377 . S
C648 C650 1.384 . S
C649 C648 1.377 . S
C649 C655 1.390 . S
C650 H641 0.930 . S
C650 C648 1.384 . S
C650 C651 1.372 . S
C651 C650 1.372 . S
C651 C652 1.400 . S
C651 C656 1.490 . S
C652 H642 0.930 . S
C652 C651 1.400 . S
C652 C655 1.386 . S
H653 C669 0.930 . S
H654 C670 0.931 . S
C655 H643 0.929 . S
C655 C649 1.390 . S
C655 C652 1.386 . S
C656 C651 1.490 . S
C656 C658 1.395 . S
C656 C659 1.403 . S
H657 C663 0.930 . S
C658 H644 0.930 . S
C658 C656 1.395 . S
C658 C661 1.403 . S
C659 C656 1.403 . S
C659 C660 1.524 . S
C659 C663 1.400 . S
C660 H645 0.960 . S
C660 H646 0.960 . S
C660 H647 0.960 . S
C660 C659 1.524 . S
C661 C658 1.403 . S
C661 C662 1.392 . S
C661 C665 1.495 . S
C662 C661 1.392 . S
C662 C663 1.385 . S
C662 C664 1.478 . S
C663 H657 0.930 . S
C663 C659 1.400 . S
C663 C662 1.385 . S
C664 C662 1.478 . S
C664 C666 1.381 . S
C664 C670 1.383 . S
C665 C661 1.495 . S
C665 H671 0.959 . S
C665 H672 0.961 . S
C665 H673 0.960 . S
C666 C664 1.381 . S
C666 C667 1.394 . S
C666 H674 0.930 . S
C667 C666 1.394 . S
C667 C668 1.383 . S
C667 H675 0.929 . S
C668 C667 1.383 . S
C668 C669 1.377 . S
C669 H653 0.930 . S
C669 C668 1.377 . S
C669 C670 1.379 . S
C670 H654 0.931 . S
C670 C664 1.383 . S
C670 C669 1.379 . S
H671 C665 0.959 . S
H672 C665 0.961 . S
H673 C665 0.960 . S
H674 C666 0.930 . S
H675 C667 0.929 . S
H676 C684 0.929 . S
H677 C686 0.930 . S
H678 C688 0.930 . S
H679 C691 0.929 . S
H680 C694 0.930 . S
H681 C696 0.960 . S
H682 C696 0.960 . S
H683 C696 0.960 . S
C684 H676 0.929 . S
C684 C685 1.377 . S
C684 C686 1.384 . S
C685 C684 1.377 . S
C685 C691 1.390 . S
C686 H677 0.930 . S
C686 C684 1.384 . S
C686 C687 1.372 . S
C687 C686 1.372 . S
C687 C688 1.400 . S
C687 C692 1.490 . S
C688 H678 0.930 . S
C688 C687 1.400 . S
C688 C691 1.386 . S
H689 C705 0.930 . S
H690 C706 0.931 . S
C691 H679 0.929 . S
C691 C685 1.390 . S
C691 C688 1.386 . S
C692 C687 1.490 . S
C692 C694 1.395 1_455 S
C692 C695 1.403 . S
H693 C699 0.930 . S
C694 H680 0.930 . S
C694 C692 1.395 1_655 S
C694 C697 1.403 . S
C695 C692 1.403 . S
C695 C696 1.524 . S
C695 C699 1.400 . S
C696 H681 0.960 . S
C696 H682 0.960 . S
C696 H683 0.960 . S
C696 C695 1.524 . S
C697 C694 1.403 . S
C697 C698 1.392 . S
C697 C701 1.495 . S
C698 C697 1.392 . S
C698 C699 1.385 1_655 S
C698 C700 1.478 . S
C699 H693 0.930 . S
C699 C695 1.400 . S
C699 C698 1.385 1_455 S
C700 C698 1.478 . S
C700 C702 1.381 . S
C700 C706 1.383 . S
C701 C697 1.495 . S
C701 H707 0.959 . S
C701 H708 0.961 . S
C701 H709 0.960 . S
C702 C700 1.381 . S
C702 C703 1.394 . S
C702 H710 0.930 . S
C703 C702 1.394 . S
C703 C704 1.383 . S
C703 H711 0.929 . S
C704 C703 1.383 . S
C704 C705 1.377 . S
C705 H689 0.930 . S
C705 C704 1.377 . S
C705 C706 1.379 . S
C706 H690 0.931 . S
C706 C700 1.383 . S
C706 C705 1.379 . S
H707 C701 0.959 . S
H708 C701 0.961 . S
H709 C701 0.960 . S
H710 C702 0.930 . S
H711 C703 0.929 . S
H712 C720 0.929 . S
H713 C722 0.930 . S
H714 C724 0.930 . S
H715 C727 0.929 . S
H716 C730 0.930 . S
H717 C732 0.960 . S
H718 C732 0.960 . S
H719 C732 0.960 . S
C720 H712 0.929 . S
C720 C721 1.377 . S
C720 C722 1.384 . S
C721 C720 1.377 . S
C721 C727 1.390 . S
C722 H713 0.930 . S
C722 C720 1.384 . S
C722 C723 1.372 . S
C723 C722 1.372 . S
C723 C724 1.400 . S
C723 C728 1.490 . S
C724 H714 0.930 . S
C724 C723 1.400 . S
C724 C727 1.386 . S
H725 C741 0.930 . S
H726 C742 0.931 . S
C727 H715 0.929 . S
C727 C721 1.390 . S
C727 C724 1.386 . S
C728 C723 1.490 . S
C728 C730 1.395 . S
C728 C731 1.403 . S
H729 C735 0.930 . S
C730 H716 0.930 . S
C730 C728 1.395 . S
C730 C733 1.403 . S
C731 C728 1.403 . S
C731 C732 1.524 . S
C731 C735 1.400 . S
C732 H717 0.960 . S
C732 H718 0.960 . S
C732 H719 0.960 . S
C732 C731 1.524 . S
C733 C730 1.403 . S
C733 C734 1.392 . S
C733 C737 1.495 . S
C734 C733 1.392 . S
C734 C735 1.385 . S
C734 C736 1.478 . S
C735 H729 0.930 . S
C735 C731 1.400 . S
C735 C734 1.385 . S
C736 C734 1.478 . S
C736 C738 1.381 . S
C736 C742 1.383 . S
C737 C733 1.495 . S
C737 H743 0.959 . S
C737 H744 0.961 . S
C737 H745 0.960 . S
C738 C736 1.381 . S
C738 C739 1.394 . S
C738 H746 0.930 . S
C739 C738 1.394 . S
C739 C740 1.383 . S
C739 H747 0.929 . S
C740 C739 1.383 . S
C740 C741 1.377 . S
C741 H725 0.930 . S
C741 C740 1.377 . S
C741 C742 1.379 . S
C742 H726 0.931 . S
C742 C736 1.383 . S
C742 C741 1.379 . S
H743 C737 0.959 . S
H744 C737 0.961 . S
H745 C737 0.960 . S
H746 C738 0.930 . S
H747 C739 0.929 . S
H748 C756 0.929 . S
H749 C758 0.930 1_655 S
H750 C760 0.930 . S
H751 C763 0.929 . S
H752 C766 0.930 . S
H753 C768 0.960 . S
H754 C768 0.960 . S
H755 C768 0.960 . S
C756 H748 0.929 . S
C756 C757 1.377 . S
C756 C758 1.384 . S
C757 C756 1.377 . S
C757 C763 1.390 . S
C758 H749 0.930 1_455 S
C758 C756 1.384 . S
C758 C759 1.372 . S
C759 C758 1.372 . S
C759 C760 1.400 . S
C759 C764 1.490 . S
C760 H750 0.930 . S
C760 C759 1.400 . S
C760 C763 1.386 . S
H761 C777 0.930 . S
H762 C778 0.931 . S
C763 H751 0.929 . S
C763 C757 1.390 . S
C763 C760 1.386 . S
C764 C759 1.490 . S
C764 C766 1.395 1_455 S
C764 C767 1.403 . S
H765 C771 0.930 . S
C766 H752 0.930 . S
C766 C764 1.395 1_655 S
C766 C769 1.403 . S
C767 C764 1.403 . S
C767 C768 1.524 . S
C767 C771 1.400 . S
C768 H753 0.960 . S
C768 H754 0.960 . S
C768 H755 0.960 . S
C768 C767 1.524 . S
C769 C766 1.403 . S
C769 C770 1.392 . S
C769 C773 1.495 . S
C770 C769 1.392 . S
C770 C771 1.385 1_655 S
C770 C772 1.478 . S
C771 H765 0.930 . S
C771 C767 1.400 . S
C771 C770 1.385 1_455 S
C772 C770 1.478 . S
C772 C774 1.381 . S
C772 C778 1.383 . S
C773 C769 1.495 . S
C773 H779 0.959 . S
C773 H780 0.961 . S
C773 H781 0.960 . S
C774 C772 1.381 . S
C774 C775 1.394 . S
C774 H782 0.930 . S
C775 C774 1.394 . S
C775 C776 1.383 . S
C775 H783 0.929 . S
C776 C775 1.383 . S
C776 C777 1.377 . S
C777 H761 0.930 . S
C777 C776 1.377 . S
C777 C778 1.379 . S
C778 H762 0.931 . S
C778 C772 1.383 . S
C778 C777 1.379 . S
H779 C773 0.959 . S
H780 C773 0.961 . S
H781 C773 0.960 . S
H782 C774 0.930 . S
H783 C775 0.929 . S
H784 C792 0.929 . S
H785 C794 0.930 . S
H786 C796 0.933 . S
H787 C799 0.929 1_655 S
H788 C802 0.930 . S
H789 C804 0.960 . S
H790 C804 0.960 1_455 S
H791 C804 0.960 . S
C792 H784 0.929 . S
C792 C793 1.377 . S
C792 C794 1.384 . S
C793 C792 1.377 . S
C793 C799 1.390 . S
C794 H785 0.930 . S
C794 C792 1.384 . S
C794 C795 1.372 . S
C795 C794 1.372 . S
C795 C796 1.398 1_455 S
C795 C800 1.490 . S
C796 H786 0.933 . S
C796 C795 1.398 1_655 S
C796 C799 1.385 1_655 S
H797 C813 0.930 . S
H798 C814 0.931 . S
C799 H787 0.929 1_455 S
C799 C793 1.390 . S
C799 C796 1.385 1_455 S
C800 C795 1.490 . S
C800 C802 1.395 . S
C800 C803 1.403 1_455 S
H801 C807 0.930 . S
C802 H788 0.930 . S
C802 C800 1.395 . S
C802 C805 1.403 . S
C803 C800 1.403 1_655 S
C803 C804 1.524 . S
C803 C807 1.400 . S
C804 H789 0.960 . S
C804 H790 0.960 1_655 S
C804 H791 0.960 . S
C804 C803 1.524 . S
C805 C802 1.403 . S
C805 C806 1.392 1_455 S
C805 C809 1.495 . S
C806 C805 1.392 1_655 S
C806 C807 1.385 . S
C806 C808 1.478 . S
C807 H801 0.930 . S
C807 C803 1.400 . S
C807 C806 1.385 . S
C808 C806 1.478 . S
C808 C810 1.381 1_655 S
C808 C814 1.383 . S
C809 C805 1.495 . S
C809 H815 0.959 . S
C809 H816 0.961 1_455 S
C809 H817 0.960 . S
C810 C808 1.381 1_455 S
C810 C811 1.394 1_455 S
C810 H818 0.930 . S
C811 C810 1.394 1_655 S
C811 C812 1.383 . S
C811 H819 0.929 1_655 S
C812 C811 1.383 . S
C812 C813 1.377 . S
C813 H797 0.930 . S
C813 C812 1.377 . S
C813 C814 1.379 . S
C814 H798 0.931 . S
C814 C808 1.383 . S
C814 C813 1.379 . S
H815 C809 0.959 . S
H816 C809 0.961 1_655 S
H817 C809 0.960 . S
H818 C810 0.930 . S
H819 C811 0.929 1_455 S
H820 C828 0.929 . S
H821 C830 0.930 . S
H822 C832 0.930 . S
H823 C835 0.929 . S
H824 C838 0.930 . S
H825 C840 0.960 . S
H826 C840 0.960 . S
H827 C840 0.960 . S
C828 H820 0.929 . S
C828 C829 1.377 . S
C828 C830 1.384 . S
C829 C828 1.377 . S
C829 C835 1.390 . S
C830 H821 0.930 . S
C830 C828 1.384 . S
C830 C831 1.372 . S
C831 C830 1.372 . S
C831 C832 1.400 . S
C831 C836 1.490 . S
C832 H822 0.930 . S
C832 C831 1.400 . S
C832 C835 1.386 . S
H833 C849 0.930 . S
H834 C850 0.931 . S
C835 H823 0.929 . S
C835 C829 1.390 . S
C835 C832 1.386 . S
C836 C831 1.490 . S
C836 C838 1.395 . S
C836 C839 1.403 . S
H837 C843 0.930 . S
C838 H824 0.930 . S
C838 C836 1.395 . S
C838 C841 1.403 . S
C839 C836 1.403 . S
C839 C840 1.524 . S
C839 C843 1.400 . S
C840 H825 0.960 . S
C840 H826 0.960 . S
C840 H827 0.960 . S
C840 C839 1.524 . S
C841 C838 1.403 . S
C841 C842 1.392 . S
C841 C845 1.495 . S
C842 C841 1.392 . S
C842 C843 1.385 . S
C842 C844 1.478 . S
C843 H837 0.930 . S
C843 C839 1.400 . S
C843 C842 1.385 . S
C844 C842 1.478 . S
C844 C846 1.381 . S
C844 C850 1.383 . S
C845 C841 1.495 . S
C845 H851 0.959 . S
C845 H852 0.961 . S
C845 H853 0.960 . S
C846 C844 1.381 . S
C846 C847 1.394 . S
C846 H854 0.930 . S
C847 C846 1.394 . S
C847 C848 1.383 . S
C847 H855 0.929 . S
C848 C847 1.383 . S
C848 C849 1.377 . S
C849 H833 0.930 . S
C849 C848 1.377 . S
C849 C850 1.379 . S
C850 H834 0.931 . S
C850 C844 1.383 . S
C850 C849 1.379 . S
H851 C845 0.959 . S
H852 C845 0.961 . S
H853 C845 0.960 . S
H854 C846 0.930 . S
H855 C847 0.929 . S
H856 C864 0.929 . S
H857 C866 0.930 . S
H858 C868 0.930 . S
H859 C871 0.929 . S
H860 C874 0.930 . S
H861 C876 0.960 . S
H862 C876 0.960 . S
H863 C876 0.960 . S
C864 H856 0.929 . S
C864 C865 1.377 . S
C864 C866 1.384 . S
C865 C864 1.377 . S
C865 C871 1.390 . S
C866 H857 0.930 . S
C866 C864 1.384 . S
C866 C867 1.372 . S
C867 C866 1.372 . S
C867 C868 1.400 . S
C867 C872 1.490 . S
C868 H858 0.930 . S
C868 C867 1.400 . S
C868 C871 1.386 . S
H869 C885 0.930 . S
H870 C886 0.931 . S
C871 H859 0.929 . S
C871 C865 1.390 . S
C871 C868 1.386 . S
C872 C867 1.490 . S
C872 C874 1.395 . S
C872 C875 1.403 . S
H873 C879 0.930 . S
C874 H860 0.930 . S
C874 C872 1.395 . S
C874 C877 1.403 . S
C875 C872 1.403 . S
C875 C876 1.524 . S
C875 C879 1.400 . S
C876 H861 0.960 . S
C876 H862 0.960 . S
C876 H863 0.960 . S
C876 C875 1.524 . S
C877 C874 1.403 . S
C877 C878 1.392 . S
C877 C881 1.495 . S
C878 C877 1.392 . S
C878 C879 1.385 . S
C878 C880 1.478 . S
C879 H873 0.930 . S
C879 C875 1.400 . S
C879 C878 1.385 . S
C880 C878 1.478 . S
C880 C882 1.381 . S
C880 C886 1.383 . S
C881 C877 1.495 . S
C881 H887 0.959 . S
C881 H888 0.961 . S
C881 H889 0.960 . S
C882 C880 1.381 . S
C882 C883 1.394 . S
C882 H890 0.930 . S
C883 C882 1.394 . S
C883 C884 1.383 . S
C883 H891 0.929 . S
C884 C883 1.383 . S
C884 C885 1.377 . S
C885 H869 0.930 . S
C885 C884 1.377 . S
C885 C886 1.379 . S
C886 H870 0.931 . S
C886 C880 1.383 . S
C886 C885 1.379 . S
H887 C881 0.959 . S
H888 C881 0.961 . S
H889 C881 0.960 . S
H890 C882 0.930 . S
H891 C883 0.929 . S
H892 C900 0.929 . S
H893 C902 0.930 . S
H894 C904 0.930 . S
H895 C907 0.929 . S
H896 C910 0.930 . S
H897 C912 0.960 . S
H898 C912 0.960 . S
H899 C912 0.960 . S
C900 H892 0.929 . S
C900 C901 1.377 . S
C900 C902 1.384 . S
C901 C900 1.377 . S
C901 C907 1.390 . S
C902 H893 0.930 . S
C902 C900 1.384 . S
C902 C903 1.372 . S
C903 C902 1.372 . S
C903 C904 1.400 . S
C903 C908 1.490 . S
C904 H894 0.930 . S
C904 C903 1.400 . S
C904 C907 1.386 . S
H905 C921 0.930 . S
H906 C922 0.931 . S
C907 H895 0.929 . S
C907 C901 1.390 . S
C907 C904 1.386 . S
C908 C903 1.490 . S
C908 C910 1.395 1_455 S
C908 C911 1.403 . S
H909 C915 0.930 . S
C910 H896 0.930 . S
C910 C908 1.395 1_655 S
C910 C913 1.403 . S
C911 C908 1.403 . S
C911 C912 1.524 . S
C911 C915 1.400 . S
C912 H897 0.960 . S
C912 H898 0.960 . S
C912 H899 0.960 . S
C912 C911 1.524 . S
C913 C910 1.403 . S
C913 C914 1.392 . S
C913 C917 1.495 . S
C914 C913 1.392 . S
C914 C915 1.385 1_655 S
C914 C916 1.478 . S
C915 H909 0.930 . S
C915 C911 1.400 . S
C915 C914 1.385 1_455 S
C916 C914 1.478 . S
C916 C918 1.381 . S
C916 C922 1.383 . S
C917 C913 1.495 . S
C917 H923 0.959 . S
C917 H924 0.961 . S
C917 H925 0.960 . S
C918 C916 1.381 . S
C918 C919 1.394 . S
C918 H926 0.930 . S
C919 C918 1.394 . S
C919 C920 1.383 . S
C919 H927 0.929 . S
C920 C919 1.383 . S
C920 C921 1.377 . S
C921 H905 0.930 . S
C921 C920 1.377 . S
C921 C922 1.379 . S
C922 H906 0.931 . S
C922 C916 1.383 . S
C922 C921 1.379 . S
H923 C917 0.959 . S
H924 C917 0.961 . S
H925 C917 0.960 . S
H926 C918 0.930 . S
H927 C919 0.929 . S
H928 C936 0.929 . S
H929 C938 0.930 . S
H930 C940 0.944 . S
H931 C943 0.929 1_655 S
H932 C946 0.930 . S
H933 C948 0.960 . S
H934 C948 0.960 1_455 S
H935 C948 0.960 . S
C936 H928 0.929 . S
C936 C937 1.377 . S
C936 C938 1.384 . S
C937 C936 1.377 . S
C937 C943 1.390 . S
C938 H929 0.930 . S
C938 C936 1.384 . S
C938 C939 1.372 . S
C939 C938 1.372 . S
C939 C940 1.390 1_455 S
C939 C944 1.490 . S
C940 H930 0.944 . S
C940 C939 1.390 1_655 S
C940 C943 1.382 1_655 S
H941 C957 0.930 . S
H942 C958 0.931 . S
C943 H931 0.929 1_455 S
C943 C937 1.390 . S
C943 C940 1.382 1_455 S
C944 C939 1.490 . S
C944 C946 1.395 . S
C944 C947 1.403 1_455 S
H945 C951 0.930 . S
C946 H932 0.930 . S
C946 C944 1.395 . S
C946 C949 1.403 . S
C947 C944 1.403 1_655 S
C947 C948 1.524 . S
C947 C951 1.400 . S
C948 H933 0.960 . S
C948 H934 0.960 1_655 S
C948 H935 0.960 . S
C948 C947 1.524 . S
C949 C946 1.403 . S
C949 C950 1.392 1_455 S
C949 C953 1.495 . S
C950 C949 1.392 1_655 S
C950 C951 1.385 . S
C950 C952 1.478 . S
C951 H945 0.930 . S
C951 C947 1.400 . S
C951 C950 1.385 . S
C952 C950 1.478 . S
C952 C954 1.381 1_655 S
C952 C958 1.383 . S
C953 C949 1.495 . S
C953 H959 0.959 . S
C953 H960 0.961 1_455 S
C953 H961 0.960 . S
C954 C952 1.381 1_455 S
C954 C955 1.394 1_455 S
C954 H962 0.930 . S
C955 C954 1.394 1_655 S
C955 C956 1.383 . S
C955 H963 0.929 1_655 S
C956 C955 1.383 . S
C956 C957 1.377 . S
C957 H941 0.930 . S
C957 C956 1.377 . S
C957 C958 1.379 . S
C958 H942 0.931 . S
C958 C952 1.383 . S
C958 C957 1.379 . S
H959 C953 0.959 . S
H960 C953 0.961 1_655 S
H961 C953 0.960 . S
H962 C954 0.930 . S
H963 C955 0.929 1_455 S
H964 C972 0.929 . S
H965 C974 0.930 . S
H966 C976 0.930 . S
H967 C979 0.929 . S
H968 C982 0.930 . S
H969 C984 0.960 . S
H970 C984 0.960 . S
H971 C984 0.960 . S
C972 H964 0.929 . S
C972 C973 1.377 . S
C972 C974 1.384 . S
C973 C972 1.377 . S
C973 C979 1.390 . S
C974 H965 0.930 . S
C974 C972 1.384 . S
C974 C975 1.372 . S
C975 C974 1.372 . S
C975 C976 1.400 . S
C975 C980 1.490 . S
C976 H966 0.930 . S
C976 C975 1.400 . S
C976 C979 1.386 . S
H977 C993 0.930 . S
H978 C994 0.931 . S
C979 H967 0.929 . S
C979 C973 1.390 . S
C979 C976 1.386 . S
C980 C975 1.490 . S
C980 C982 1.395 . S
C980 C983 1.403 . S
H981 C987 0.930 . S
C982 H968 0.930 . S
C982 C980 1.395 . S
C982 C985 1.403 . S
C983 C980 1.403 . S
C983 C984 1.524 . S
C983 C987 1.400 . S
C984 H969 0.960 . S
C984 H970 0.960 . S
C984 H971 0.960 . S
C984 C983 1.524 . S
C985 C982 1.403 . S
C985 C986 1.392 . S
C985 C989 1.495 . S
C986 C985 1.392 . S
C986 C987 1.385 . S
C986 C988 1.478 . S
C987 H981 0.930 . S
C987 C983 1.400 . S
C987 C986 1.385 . S
C988 C986 1.478 . S
C988 C990 1.381 . S
C988 C994 1.383 . S
C989 C985 1.495 . S
C989 H995 0.959 . S
C989 H996 0.961 . S
C989 H997 0.960 . S
C990 C988 1.381 . S
C990 C991 1.394 . S
C990 H998 0.930 . S
C991 C990 1.394 . S
C991 C992 1.383 . S
C991 H999 0.929 . S
C992 C991 1.383 . S
C992 C993 1.377 . S
C993 H977 0.930 . S
C993 C992 1.377 . S
C993 C994 1.379 . S
C994 H978 0.931 . S
C994 C988 1.383 . S
C994 C993 1.379 . S
H995 C989 0.959 . S
H996 C989 0.961 . S
H997 C989 0.960 . S
H998 C990 0.930 . S
H999 C991 0.929 . S
H1000 C1008 0.929 . S
H1001 C1010 0.930 . S
H1002 C1012 0.930 . S
H1003 C1015 0.929 . S
H1004 C1018 0.930 . S
H1005 C1020 0.960 . S
H1006 C1020 0.960 . S
H1007 C1020 0.960 . S
C1008 H1000 0.929 . S
C1008 C1009 1.377 . S
C1008 C1010 1.384 . S
C1009 C1008 1.377 . S
C1009 C1015 1.390 . S
C1010 H1001 0.930 . S
C1010 C1008 1.384 . S
C1010 C1011 1.372 . S
C1011 C1010 1.372 . S
C1011 C1012 1.400 . S
C1011 C1016 1.490 . S
C1012 H1002 0.930 . S
C1012 C1011 1.400 . S
C1012 C1015 1.386 . S
H1013 C1029 0.930 . S
H1014 C1030 0.931 . S
C1015 H1003 0.929 . S
C1015 C1009 1.390 . S
C1015 C1012 1.386 . S
C1016 C1011 1.490 . S
C1016 C1018 1.395 . S
C1016 C1019 1.403 . S
H1017 C1023 0.930 . S
C1018 H1004 0.930 . S
C1018 C1016 1.395 . S
C1018 C1021 1.403 . S
C1019 C1016 1.403 . S
C1019 C1020 1.524 . S
C1019 C1023 1.400 . S
C1020 H1005 0.960 . S
C1020 H1006 0.960 . S
C1020 H1007 0.960 . S
C1020 C1019 1.524 . S
C1021 C1018 1.403 . S
C1021 C1022 1.392 . S
C1021 C1025 1.495 . S
C1022 C1021 1.392 . S
C1022 C1023 1.385 . S
C1022 C1024 1.478 . S
C1023 H1017 0.930 . S
C1023 C1019 1.400 . S
C1023 C1022 1.385 . S
C1024 C1022 1.478 . S
C1024 C1026 1.381 . S
C1024 C1030 1.383 . S
C1025 C1021 1.495 . S
C1025 H1031 0.959 . S
C1025 H1032 0.961 . S
C1025 H1033 0.960 . S
C1026 C1024 1.381 . S
C1026 C1027 1.394 . S
C1026 H1034 0.930 . S
C1027 C1026 1.394 . S
C1027 C1028 1.383 . S
C1027 H1035 0.929 . S
C1028 C1027 1.383 . S
C1028 C1029 1.377 . S
C1029 H1013 0.930 . S
C1029 C1028 1.377 . S
C1029 C1030 1.379 . S
C1030 H1014 0.931 . S
C1030 C1024 1.383 . S
C1030 C1029 1.379 . S
H1031 C1025 0.959 . S
H1032 C1025 0.961 . S
H1033 C1025 0.960 . S
H1034 C1026 0.930 . S
H1035 C1027 0.929 . S
H1036 C1044 0.929 . S
H1037 C1046 0.930 . S
H1038 C1048 0.930 1_655 S
H1039 C1051 0.929 . S
H1040 C1054 0.930 . S
H1041 C1056 0.960 . S
H1042 C1056 0.960 . S
H1043 C1056 0.960 . S
C1044 H1036 0.929 . S
C1044 C1045 1.377 . S
C1044 C1046 1.384 . S
C1045 C1044 1.377 . S
C1045 C1051 1.390 . S
C1046 H1037 0.930 . S
C1046 C1044 1.384 . S
C1046 C1047 1.372 . S
C1047 C1046 1.372 . S
C1047 C1048 1.400 . S
C1047 C1052 1.490 . S
C1048 H1038 0.930 1_455 S
C1048 C1047 1.400 . S
C1048 C1051 1.386 . S
H1049 C1065 0.930 . S
H1050 C1066 0.931 . S
C1051 H1039 0.929 . S
C1051 C1045 1.390 . S
C1051 C1048 1.386 . S
C1052 C1047 1.490 . S
C1052 C1054 1.395 . S
C1052 C1055 1.403 1_455 S
H1053 C1059 0.930 . S
C1054 H1040 0.930 . S
C1054 C1052 1.395 . S
C1054 C1057 1.403 . S
C1055 C1052 1.403 1_655 S
C1055 C1056 1.524 . S
C1055 C1059 1.400 . S
C1056 H1041 0.960 . S
C1056 H1042 0.960 . S
C1056 H1043 0.960 . S
C1056 C1055 1.524 . S
C1057 C1054 1.403 . S
C1057 C1058 1.392 1_455 S
C1057 C1061 1.495 . S
C1058 C1057 1.392 1_655 S
C1058 C1059 1.385 . S
C1058 C1060 1.478 . S
C1059 H1053 0.930 . S
C1059 C1055 1.400 . S
C1059 C1058 1.385 . S
C1060 C1058 1.478 . S
C1060 C1062 1.381 . S
C1060 C1066 1.383 . S
C1061 C1057 1.495 . S
C1061 H1067 0.959 . S
C1061 H1068 0.961 . S
C1061 H1069 0.960 . S
C1062 C1060 1.381 . S
C1062 C1063 1.394 . S
C1062 H1070 0.930 1_655 S
C1063 C1062 1.394 . S
C1063 C1064 1.383 . S
C1063 H1071 0.929 . S
C1064 C1063 1.383 . S
C1064 C1065 1.377 . S
C1065 H1049 0.930 . S
C1065 C1064 1.377 . S
C1065 C1066 1.379 . S
C1066 H1050 0.931 . S
C1066 C1060 1.383 . S
C1066 C1065 1.379 . S
H1067 C1061 0.959 . S
H1068 C1061 0.961 . S
H1069 C1061 0.960 . S
H1070 C1062 0.930 1_455 S
H1071 C1063 0.929 . S
H1072 C1080 0.929 . S
H1073 C1082 0.930 1_545 S
H1074 C1084 0.930 . S
H1075 C1087 0.929 . S
H1076 C1090 0.932 . S
H1077 C1092 0.960 . S
H1078 C1092 0.960 . S
H1079 C1092 0.960 . S
C1080 H1072 0.929 . S
C1080 C1081 1.377 . S
C1080 C1082 1.384 . S
C1081 C1080 1.377 . S
C1081 C1087 1.390 . S
C1082 H1073 0.930 1_565 S
C1082 C1080 1.384 . S
C1082 C1083 1.372 . S
C1083 C1082 1.372 . S
C1083 C1084 1.400 . S
C1083 C1088 1.490 . S
C1084 H1074 0.930 . S
C1084 C1083 1.400 . S
C1084 C1087 1.386 . S
H1085 C1101 0.930 . S
H1086 C1102 0.931 1_565 S
C1087 H1075 0.929 . S
C1087 C1081 1.390 . S
C1087 C1084 1.386 . S
C1088 C1083 1.490 . S
C1088 C1090 1.403 . S
C1088 C1091 1.403 1_655 S
H1089 C1095 0.930 . S
C1090 H1076 0.932 . S
C1090 C1088 1.403 . S
C1090 C1093 1.394 1_566 S
C1091 C1088 1.403 1_455 S
C1091 C1092 1.524 . S
C1091 C1095 1.400 1_566 S
C1092 H1077 0.960 . S
C1092 H1078 0.960 . S
C1092 H1079 0.960 . S
C1092 C1091 1.524 . S
C1093 C1090 1.394 1_544 S
C1093 C1094 1.392 1_655 S
C1093 C1097 1.495 . S
C1094 C1093 1.392 1_455 S
C1094 C1095 1.385 . S
C1094 C1096 1.478 . S
C1095 H1089 0.930 . S
C1095 C1091 1.400 1_544 S
C1095 C1094 1.385 . S
C1096 C1094 1.478 . S
C1096 C1098 1.381 . S
C1096 C1102 1.383 . S
C1097 C1093 1.495 . S
C1097 H1103 0.959 . S
C1097 H1104 0.961 . S
C1097 H1105 0.960 . S
C1098 C1096 1.381 . S
C1098 C1099 1.394 . S
C1098 H1106 0.930 . S
C1099 C1098 1.394 . S
C1099 C1100 1.383 . S
C1099 H1107 0.929 . S
C1100 C1099 1.383 . S
C1100 C1101 1.377 . S
C1101 H1085 0.930 . S
C1101 C1100 1.377 . S
C1101 C1102 1.379 . S
C1102 H1086 0.931 1_545 S
C1102 C1096 1.383 . S
C1102 C1101 1.379 . S
H1103 C1097 0.959 . S
H1104 C1097 0.961 . S
H1105 C1097 0.960 . S
H1106 C1098 0.930 . S
H1107 C1099 0.929 . S
H1108 C1116 0.929 . S
H1109 C1118 0.930 . S
H1110 C1120 0.930 . S
H1111 C1123 0.929 . S
H1112 C1126 0.930 . S
H1113 C1128 0.960 . S
H1114 C1128 0.936 1_556 S
H1115 C1128 0.960 . S
C1116 H1108 0.929 . S
C1116 C1117 1.377 . S
C1116 C1118 1.384 . S
C1117 C1116 1.377 . S
C1117 C1123 1.390 . S
C1118 H1109 0.930 . S
C1118 C1116 1.384 . S
C1118 C1119 1.372 . S
C1119 C1118 1.372 . S
C1119 C1120 1.400 . S
C1119 C1124 1.490 . S
C1120 H1110 0.930 . S
C1120 C1119 1.400 . S
C1120 C1123 1.386 . S
H1121 C1137 0.930 . S
H1122 C1138 0.931 . S
C1123 H1111 0.929 . S
C1123 C1117 1.390 . S
C1123 C1120 1.386 . S
C1124 C1119 1.490 . S
C1124 C1126 1.395 1_545 S
C1124 C1127 1.403 1_556 S
H1125 C1131 0.930 . S
C1126 H1112 0.930 . S
C1126 C1124 1.395 1_565 S
C1126 C1129 1.403 . S
C1127 C1124 1.403 1_554 S
C1127 C1128 1.524 . S
C1127 C1131 1.400 . S
C1128 H1113 0.960 . S
C1128 H1114 0.936 1_554 S
C1128 H1115 0.960 . S
C1128 C1127 1.524 . S
C1129 C1126 1.403 . S
C1129 C1130 1.392 1_556 S
C1129 C1133 1.495 . S
C1130 C1129 1.392 1_554 S
C1130 C1131 1.385 1_565 S
C1130 C1132 1.478 . S
C1131 H1125 0.930 . S
C1131 C1127 1.400 . S
C1131 C1130 1.385 1_545 S
C1132 C1130 1.478 . S
C1132 C1134 1.381 . S
C1132 C1138 1.383 . S
C1133 C1129 1.495 . S
C1133 H1139 0.959 . S
C1133 H1140 0.961 . S
C1133 H1141 0.960 . S
C1134 C1132 1.381 . S
C1134 C1135 1.394 . S
C1134 H1142 0.930 . S
C1135 C1134 1.394 . S
C1135 C1136 1.383 . S
C1135 H1143 0.929 . S
C1136 C1135 1.383 . S
C1136 C1137 1.377 . S
C1137 H1121 0.930 . S
C1137 C1136 1.377 . S
C1137 C1138 1.379 . S
C1138 H1122 0.931 . S
C1138 C1132 1.383 . S
C1138 C1137 1.379 . S
H1139 C1133 0.959 . S
H1140 C1133 0.961 . S
H1141 C1133 0.960 . S
H1142 C1134 0.930 . S
H1143 C1135 0.929 . S
H1144 C1152 0.929 . S
H1145 C1154 0.930 . S
H1146 C1156 0.930 . S
H1147 C1159 0.929 . S
H1148 C1162 0.930 . S
H1149 C1164 0.960 . S
H1150 C1164 0.960 . S
H1151 C1164 0.960 . S
C1152 H1144 0.929 . S
C1152 C1153 1.377 . S
C1152 C1154 1.384 . S
C1153 C1152 1.377 . S
C1153 C1159 1.390 . S
C1154 H1145 0.930 . S
C1154 C1152 1.384 . S
C1154 C1155 1.372 . S
C1155 C1154 1.372 . S
C1155 C1156 1.400 . S
C1155 C1160 1.490 . S
C1156 H1146 0.930 . S
C1156 C1155 1.400 . S
C1156 C1159 1.386 . S
H1157 C1173 0.930 . S
H1158 C1174 0.931 . S
C1159 H1147 0.929 . S
C1159 C1153 1.390 . S
C1159 C1156 1.386 . S
C1160 C1155 1.490 . S
C1160 C1162 1.395 1_545 S
C1160 C1163 1.403 . S
H1161 C1167 0.930 . S
C1162 H1148 0.930 . S
C1162 C1160 1.395 1_565 S
C1162 C1165 1.403 . S
C1163 C1160 1.403 . S
C1163 C1164 1.524 . S
C1163 C1167 1.400 . S
C1164 H1149 0.960 . S
C1164 H1150 0.960 . S
C1164 H1151 0.960 . S
C1164 C1163 1.524 . S
C1165 C1162 1.403 . S
C1165 C1166 1.392 . S
C1165 C1169 1.495 . S
C1166 C1165 1.392 . S
C1166 C1167 1.385 1_565 S
C1166 C1168 1.478 . S
C1167 H1161 0.930 . S
C1167 C1163 1.400 . S
C1167 C1166 1.385 1_545 S
C1168 C1166 1.478 . S
C1168 C1170 1.381 . S
C1168 C1174 1.383 . S
C1169 C1165 1.495 . S
C1169 H1175 0.959 . S
C1169 H1176 0.961 . S
C1169 H1177 0.960 . S
C1170 C1168 1.381 . S
C1170 C1171 1.394 . S
C1170 H1178 0.930 . S
C1171 C1170 1.394 . S
C1171 C1172 1.383 . S
C1171 H1179 0.929 . S
C1172 C1171 1.383 . S
C1172 C1173 1.377 . S
C1173 H1157 0.930 . S
C1173 C1172 1.377 . S
C1173 C1174 1.379 . S
C1174 H1158 0.931 . S
C1174 C1168 1.383 . S
C1174 C1173 1.379 . S
H1175 C1169 0.959 . S
H1176 C1169 0.961 . S
H1177 C1169 0.960 . S
H1178 C1170 0.930 . S
H1179 C1171 0.929 . S
H1180 C1188 0.929 . S
H1181 C1190 0.942 . S
H1182 C1192 0.930 . S
H1183 C1195 0.929 . S
H1184 C1198 0.930 . S
H1185 C1200 0.960 . S
H1186 C1200 0.960 . S
H1187 C1200 0.960 . S
C1188 H1180 0.929 . S
C1188 C1189 1.377 . S
C1188 C1190 1.384 . S
C1189 C1188 1.377 . S
C1189 C1195 1.390 . S
C1190 H1181 0.942 . S
C1190 C1188 1.384 . S
C1190 C1191 1.372 . S
C1191 C1190 1.372 . S
C1191 C1192 1.400 . S
C1191 C1196 1.490 . S
C1192 H1182 0.930 . S
C1192 C1191 1.400 . S
C1192 C1195 1.386 . S
H1193 C1209 0.930 . S
H1194 C1210 0.931 1_455 S
C1195 H1183 0.929 . S
C1195 C1189 1.390 . S
C1195 C1192 1.386 . S
C1196 C1191 1.490 . S
C1196 C1198 1.395 1_565 S
C1196 C1199 1.403 1_455 S
H1197 C1203 0.930 . S
C1198 H1184 0.930 . S
C1198 C1196 1.395 1_545 S
C1198 C1201 1.403 . S
C1199 C1196 1.403 1_655 S
C1199 C1200 1.524 . S
C1199 C1203 1.400 . S
C1200 H1185 0.960 . S
C1200 H1186 0.960 . S
C1200 H1187 0.960 . S
C1200 C1199 1.524 . S
C1201 C1198 1.403 . S
C1201 C1202 1.392 1_455 S
C1201 C1205 1.495 . S
C1202 C1201 1.392 1_655 S
C1202 C1203 1.385 1_545 S
C1202 C1204 1.478 . S
C1203 H1197 0.930 . S
C1203 C1199 1.400 . S
C1203 C1202 1.385 1_565 S
C1204 C1202 1.478 . S
C1204 C1206 1.381 . S
C1204 C1210 1.383 . S
C1205 C1201 1.495 . S
C1205 H1211 0.959 . S
C1205 H1212 0.961 . S
C1205 H1213 0.960 . S
C1206 C1204 1.381 . S
C1206 C1207 1.394 . S
C1206 H1214 0.930 . S
C1207 C1206 1.394 . S
C1207 C1208 1.383 . S
C1207 H1215 0.929 . S
C1208 C1207 1.383 . S
C1208 C1209 1.377 . S
C1209 H1193 0.930 . S
C1209 C1208 1.377 . S
C1209 C1210 1.379 . S
C1210 H1194 0.931 1_655 S
C1210 C1204 1.383 . S
C1210 C1209 1.379 . S
H1211 C1205 0.959 . S
H1212 C1205 0.961 . S
H1213 C1205 0.960 . S
H1214 C1206 0.930 . S
H1215 C1207 0.929 . S
H1216 C1224 0.929 . S
H1217 C1226 0.930 . S
H1218 C1228 0.930 . S
H1219 C1231 0.929 . S
H1220 C1234 0.930 . S
H1221 C1236 0.960 . S
H1222 C1236 0.960 . S
H1223 C1236 0.945 1_554 S
C1224 H1216 0.929 . S
C1224 C1225 1.377 . S
C1224 C1226 1.384 . S
C1225 C1224 1.377 . S
C1225 C1231 1.390 . S
C1226 H1217 0.930 . S
C1226 C1224 1.384 . S
C1226 C1227 1.372 . S
C1227 C1226 1.372 . S
C1227 C1228 1.400 . S
C1227 C1232 1.490 . S
C1228 H1218 0.930 . S
C1228 C1227 1.400 . S
C1228 C1231 1.386 . S
H1229 C1245 0.930 . S
H1230 C1246 0.931 . S
C1231 H1219 0.929 . S
C1231 C1225 1.390 . S
C1231 C1228 1.386 . S
C1232 C1227 1.490 . S
C1232 C1234 1.395 . S
C1232 C1235 1.403 1_554 S
H1233 C1239 0.930 . S
C1234 H1220 0.930 . S
C1234 C1232 1.395 . S
C1234 C1237 1.403 . S
C1235 C1232 1.403 1_556 S
C1235 C1236 1.524 . S
C1235 C1239 1.400 . S
C1236 H1221 0.960 . S
C1236 H1222 0.960 . S
C1236 H1223 0.945 1_556 S
C1236 C1235 1.524 . S
C1237 C1234 1.403 . S
C1237 C1238 1.392 1_554 S
C1237 C1241 1.495 . S
C1238 C1237 1.392 1_556 S
C1238 C1239 1.385 . S
C1238 C1240 1.478 . S
C1239 H1233 0.930 . S
C1239 C1235 1.400 . S
C1239 C1238 1.385 . S
C1240 C1238 1.478 . S
C1240 C1242 1.381 . S
C1240 C1246 1.383 . S
C1241 C1237 1.495 . S
C1241 H1247 0.959 . S
C1241 H1248 0.961 . S
C1241 H1249 0.992 . S
C1242 C1240 1.381 . S
C1242 C1243 1.394 . S
C1242 H1250 0.930 . S
C1243 C1242 1.394 . S
C1243 C1244 1.383 . S
C1243 H1251 0.929 . S
C1244 C1243 1.383 . S
C1244 C1245 1.377 . S
C1245 H1229 0.930 . S
C1245 C1244 1.377 . S
C1245 C1246 1.379 . S
C1246 H1230 0.931 . S
C1246 C1240 1.383 . S
C1246 C1245 1.379 . S
H1247 C1241 0.959 . S
H1248 C1241 0.961 . S
H1249 C1241 0.992 . S
H1250 C1242 0.930 . S
H1251 C1243 0.929 . S
H1252 C1260 0.929 . S
H1253 C1262 0.930 . S
H1254 C1264 0.930 . S
H1255 C1267 0.929 . S
H1256 C1270 0.930 . S
H1257 C1272 0.960 . S
H1258 C1272 0.960 . S
H1259 C1272 0.960 . S
C1260 H1252 0.929 . S
C1260 C1261 1.377 . S
C1260 C1262 1.384 . S
C1261 C1260 1.377 . S
C1261 C1267 1.390 . S
C1262 H1253 0.930 . S
C1262 C1260 1.384 . S
C1262 C1263 1.372 . S
C1263 C1262 1.372 . S
C1263 C1264 1.400 . S
C1263 C1268 1.490 . S
C1264 H1254 0.930 . S
C1264 C1263 1.400 . S
C1264 C1267 1.386 . S
H1265 C1281 0.930 . S
H1266 C1282 0.931 . S
C1267 H1255 0.929 . S
C1267 C1261 1.390 . S
C1267 C1264 1.386 . S
C1268 C1263 1.490 . S
C1268 C1270 1.395 1_554 S
C1268 C1271 1.403 1_655 S
H1269 C1275 0.930 . S
C1270 H1256 0.930 . S
C1270 C1268 1.395 1_556 S
C1270 C1273 1.403 . S
C1271 C1268 1.403 1_455 S
C1271 C1272 1.524 . S
C1271 C1275 1.400 1_554 S
C1272 H1257 0.960 . S
C1272 H1258 0.960 . S
C1272 H1259 0.960 . S
C1272 C1271 1.524 . S
C1273 C1270 1.403 . S
C1273 C1274 1.392 1_655 S
C1273 C1277 1.495 . S
C1274 C1273 1.392 1_455 S
C1274 C1275 1.385 . S
C1274 C1276 1.478 . S
C1275 H1269 0.930 . S
C1275 C1271 1.400 1_556 S
C1275 C1274 1.385 . S
C1276 C1274 1.478 . S
C1276 C1278 1.381 . S
C1276 C1282 1.383 . S
C1277 C1273 1.495 . S
C1277 H1283 0.959 . S
C1277 H1284 0.961 . S
C1277 H1285 0.960 . S
C1278 C1276 1.381 . S
C1278 C1279 1.394 . S
C1278 H1286 0.930 . S
C1279 C1278 1.394 . S
C1279 C1280 1.383 . S
C1279 H1287 0.929 . S
C1280 C1279 1.383 . S
C1280 C1281 1.377 . S
C1281 H1265 0.930 . S
C1281 C1280 1.377 . S
C1281 C1282 1.379 . S
C1282 H1266 0.931 . S
C1282 C1276 1.383 . S
C1282 C1281 1.379 . S
H1283 C1277 0.959 . S
H1284 C1277 0.961 . S
H1285 C1277 0.960 . S
H1286 C1278 0.930 . S
H1287 C1279 0.929 . S
H1288 C1296 0.929 . S
H1289 C1298 0.930 . S
H1290 C1300 0.930 . S
H1291 C1303 0.929 . S
H1292 C1306 0.930 . S
H1293 C1308 0.960 . S
H1294 C1308 0.960 . S
H1295 C1308 0.960 . S
C1296 H1288 0.929 . S
C1296 C1297 1.377 . S
C1296 C1298 1.384 . S
C1297 C1296 1.377 . S
C1297 C1303 1.390 . S
C1298 H1289 0.930 . S
C1298 C1296 1.384 . S
C1298 C1299 1.372 . S
C1299 C1298 1.372 . S
C1299 C1300 1.400 . S
C1299 C1304 1.490 . S
C1300 H1290 0.930 . S
C1300 C1299 1.400 . S
C1300 C1303 1.386 . S
H1301 C1317 0.930 . S
H1302 C1318 0.931 . S
C1303 H1291 0.929 . S
C1303 C1297 1.390 . S
C1303 C1300 1.386 . S
C1304 C1299 1.490 . S
C1304 C1306 1.395 . S
C1304 C1307 1.403 1_655 S
H1305 C1311 0.930 . S
C1306 H1292 0.930 . S
C1306 C1304 1.395 . S
C1306 C1309 1.403 . S
C1307 C1304 1.403 1_455 S
C1307 C1308 1.524 . S
C1307 C1311 1.400 . S
C1308 H1293 0.960 . S
C1308 H1294 0.960 . S
C1308 H1295 0.960 . S
C1308 C1307 1.524 . S
C1309 C1306 1.403 . S
C1309 C1310 1.392 1_655 S
C1309 C1313 1.495 . S
C1310 C1309 1.392 1_455 S
C1310 C1311 1.385 . S
C1310 C1312 1.478 . S
C1311 H1305 0.930 . S
C1311 C1307 1.400 . S
C1311 C1310 1.385 . S
C1312 C1310 1.478 . S
C1312 C1314 1.381 . S
C1312 C1318 1.383 . S
C1313 C1309 1.495 . S
C1313 H1319 0.959 . S
C1313 H1320 0.961 . S
C1313 H1321 0.960 . S
C1314 C1312 1.381 . S
C1314 C1315 1.394 . S
C1314 H1322 0.930 . S
C1315 C1314 1.394 . S
C1315 C1316 1.383 . S
C1315 H1323 0.929 . S
C1316 C1315 1.383 . S
C1316 C1317 1.377 . S
C1317 H1301 0.930 . S
C1317 C1316 1.377 . S
C1317 C1318 1.379 . S
C1318 H1302 0.931 . S
C1318 C1312 1.383 . S
C1318 C1317 1.379 . S
H1319 C1313 0.959 . S
H1320 C1313 0.961 . S
H1321 C1313 0.960 . S
H1322 C1314 0.930 . S
H1323 C1315 0.929 . S
H1324 C1332 0.929 . S
H1325 C1334 0.930 . S
H1326 C1336 0.930 . S
H1327 C1339 0.929 . S
H1328 C1342 0.930 . S
H1329 C1344 0.960 . S
H1330 C1344 0.960 . S
H1331 C1344 0.960 . S
C1332 H1324 0.929 . S
C1332 C1333 1.377 . S
C1332 C1334 1.384 . S
C1333 C1332 1.377 . S
C1333 C1339 1.390 . S
C1334 H1325 0.930 . S
C1334 C1332 1.384 . S
C1334 C1335 1.372 . S
C1335 C1334 1.372 . S
C1335 C1336 1.400 . S
C1335 C1340 1.490 . S
C1336 H1326 0.930 . S
C1336 C1335 1.400 . S
C1336 C1339 1.386 . S
H1337 C1353 0.930 . S
H1338 C1354 0.931 . S
C1339 H1327 0.929 . S
C1339 C1333 1.390 . S
C1339 C1336 1.386 . S
C1340 C1335 1.490 . S
C1340 C1342 1.395 . S
C1340 C1343 1.403 . S
H1341 C1347 0.930 . S
C1342 H1328 0.930 . S
C1342 C1340 1.395 . S
C1342 C1345 1.403 . S
C1343 C1340 1.403 . S
C1343 C1344 1.524 . S
C1343 C1347 1.400 . S
C1344 H1329 0.960 . S
C1344 H1330 0.960 . S
C1344 H1331 0.960 . S
C1344 C1343 1.524 . S
C1345 C1342 1.403 . S
C1345 C1346 1.392 . S
C1345 C1349 1.495 . S
C1346 C1345 1.392 . S
C1346 C1347 1.385 . S
C1346 C1348 1.478 . S
C1347 H1341 0.930 . S
C1347 C1343 1.400 . S
C1347 C1346 1.385 . S
C1348 C1346 1.478 . S
C1348 C1350 1.381 . S
C1348 C1354 1.383 . S
C1349 C1345 1.495 . S
C1349 H1355 0.959 . S
C1349 H1356 0.961 . S
C1349 H1357 0.960 . S
C1350 C1348 1.381 . S
C1350 C1351 1.394 . S
C1350 H1358 0.930 . S
C1351 C1350 1.394 . S
C1351 C1352 1.383 . S
C1351 H1359 0.929 . S
C1352 C1351 1.383 . S
C1352 C1353 1.377 . S
C1353 H1337 0.930 . S
C1353 C1352 1.377 . S
C1353 C1354 1.379 . S
C1354 H1338 0.931 . S
C1354 C1348 1.383 . S
C1354 C1353 1.379 . S
H1355 C1349 0.959 . S
H1356 C1349 0.961 . S
H1357 C1349 0.960 . S
H1358 C1350 0.930 . S
H1359 C1351 0.929 . S
C217 C23 1.508 . S
C236 C10 1.505 . S
C253 C30 1.507 . S
C272 C43 1.503 . S
C289 C56 1.507 . S
C308 C75 1.503 . S
C325 C95 1.508 . S
C344 C82 1.505 . S
C361 C127 1.507 . S
C380 C114 1.503 . S
C397 C147 1.507 . S
C416 C134 1.503 . S
C433 C179 1.507 . S
C452 C166 1.503 . S
C469 C199 1.507 . S
C488 C186 1.503 . S
C505 C42 1.528 . S
C524 C5 1.523 . S
C541 C18 1.527 . S
C560 C29 1.522 . S
C577 C94 1.528 . S
C596 C55 1.522 . S
C613 C81 1.527 . S
C632 C70 1.526 . S
C649 C109 1.527 . S
C668 C146 1.522 . S
C685 C133 1.527 . S
C704 C122 1.522 . S
C721 C198 1.528 . S
C740 C161 1.522 . S
C757 C174 1.528 . S
C776 C185 1.522 . S
C793 C3 1.440 . S
C812 C120 1.441 . S
C829 C16 1.440 . S
C848 C107 1.439 . S
C865 C148 1.441 . S
C884 C31 1.437 . S
C901 C135 1.441 . S
C920 C44 1.441 . S
C937 C172 1.441 . S
C956 C57 1.433 . S
C973 C159 1.441 . S
C992 C68 1.435 . S
C1009 C83 1.440 . S
C1028 C200 1.441 . S
C1045 C96 1.441 . S
C1064 C187 1.435 . S
C1081 C62 1.539 . S
C1100 C4 1.537 . S
C1117 C69 1.540 . S
C1136 C17 1.539 . S
C1153 C88 1.539 . S
C1172 C36 1.539 . S
C1189 C101 1.539 . S
C1208 C49 1.539 . S
C1225 C108 1.539 . S
C1244 C160 1.538 . S
C1261 C121 1.540 . S
C1280 C173 1.535 . S
C1297 C192 1.539 . S
C1316 C140 1.537 . S
C1333 C205 1.540 . S
C1352 C153 1.538 . S
