# Generated by pormake.
# Topology wiv, (6)-cn, num edge types: 1
# Building blocks:
#     Node 0, Type 0, BuildingBlock: VOLQOD_clean_sbu_1, # of connection points: 6
#     Node 1, Type 0, BuildingBlock: VOLQOD_clean_sbu_1, # of connection points: 6
#     Node 2, Type 0, BuildingBlock: VOLQOD_clean_sbu_1, # of connection points: 6
#     Node 3, Type 0, BuildingBlock: VOLQOD_clean_sbu_1, # of connection points: 6
#     Node 4, Type 0, BuildingBlock: VOLQOD_clean_sbu_1, # of connection points: 6
#     Node 5, Type 0, BuildingBlock: VOLQOD_clean_sbu_1, # of connection points: 6
#     Node 6, Type 0, BuildingBlock: VOLQOD_clean_sbu_1, # of connection points: 6
#     Node 7, Type 0, BuildingBlock: VOLQOD_clean_sbu_1, # of connection points: 6
#     Node 8, Type 0, BuildingBlock: VOLQOD_clean_sbu_1, # of connection points: 6
#     Node 9, Type 0, BuildingBlock: VOLQOD_clean_sbu_1, # of connection points: 6
#     Node 10, Type 0, BuildingBlock: VOLQOD_clean_sbu_1, # of connection points: 6
#     Node 11, Type 0, BuildingBlock: VOLQOD_clean_sbu_1, # of connection points: 6
#     Node 12, Type 0, BuildingBlock: VOLQOD_clean_sbu_1, # of connection points: 6
#     Node 13, Type 0, BuildingBlock: VOLQOD_clean_sbu_1, # of connection points: 6
#     Node 14, Type 0, BuildingBlock: VOLQOD_clean_sbu_1, # of connection points: 6
#     Node 15, Type 0, BuildingBlock: VOLQOD_clean_sbu_1, # of connection points: 6
#     Edge 16, Type (0, 0), BuildingBlock: EZIPEK_clean_linker_0, # of connection points: 2
#     Edge 17, Type (0, 0), BuildingBlock: EZIPEK_clean_linker_0, # of connection points: 2
#     Edge 18, Type (0, 0), BuildingBlock: EZIPEK_clean_linker_0, # of connection points: 2
#     Edge 19, Type (0, 0), BuildingBlock: EZIPEK_clean_linker_0, # of connection points: 2
#     Edge 20, Type (0, 0), BuildingBlock: EZIPEK_clean_linker_0, # of connection points: 2
#     Edge 21, Type (0, 0), BuildingBlock: EZIPEK_clean_linker_0, # of connection points: 2
#     Edge 22, Type (0, 0), BuildingBlock: EZIPEK_clean_linker_0, # of connection points: 2
#     Edge 23, Type (0, 0), BuildingBlock: EZIPEK_clean_linker_0, # of connection points: 2
#     Edge 24, Type (0, 0), BuildingBlock: EZIPEK_clean_linker_0, # of connection points: 2
#     Edge 25, Type (0, 0), BuildingBlock: EZIPEK_clean_linker_0, # of connection points: 2
#     Edge 26, Type (0, 0), BuildingBlock: EZIPEK_clean_linker_0, # of connection points: 2
#     Edge 27, Type (0, 0), BuildingBlock: EZIPEK_clean_linker_0, # of connection points: 2
#     Edge 28, Type (0, 0), BuildingBlock: EZIPEK_clean_linker_0, # of connection points: 2
#     Edge 29, Type (0, 0), BuildingBlock: EZIPEK_clean_linker_0, # of connection points: 2
#     Edge 30, Type (0, 0), BuildingBlock: EZIPEK_clean_linker_0, # of connection points: 2
#     Edge 31, Type (0, 0), BuildingBlock: EZIPEK_clean_linker_0, # of connection points: 2
#     Edge 32, Type (0, 0), BuildingBlock: EZIPEK_clean_linker_0, # of connection points: 2
#     Edge 33, Type (0, 0), BuildingBlock: EZIPEK_clean_linker_0, # of connection points: 2
#     Edge 34, Type (0, 0), BuildingBlock: EZIPEK_clean_linker_0, # of connection points: 2
#     Edge 35, Type (0, 0), BuildingBlock: EZIPEK_clean_linker_0, # of connection points: 2
#     Edge 36, Type (0, 0), BuildingBlock: EZIPEK_clean_linker_0, # of connection points: 2
#     Edge 37, Type (0, 0), BuildingBlock: EZIPEK_clean_linker_0, # of connection points: 2
#     Edge 38, Type (0, 0), BuildingBlock: EZIPEK_clean_linker_0, # of connection points: 2
#     Edge 39, Type (0, 0), BuildingBlock: EZIPEK_clean_linker_0, # of connection points: 2
#     Edge 40, Type (0, 0), BuildingBlock: EZIPEK_clean_linker_0, # of connection points: 2
#     Edge 41, Type (0, 0), BuildingBlock: EZIPEK_clean_linker_0, # of connection points: 2
#     Edge 42, Type (0, 0), BuildingBlock: EZIPEK_clean_linker_0, # of connection points: 2
#     Edge 43, Type (0, 0), BuildingBlock: EZIPEK_clean_linker_0, # of connection points: 2
#     Edge 44, Type (0, 0), BuildingBlock: EZIPEK_clean_linker_0, # of connection points: 2
#     Edge 45, Type (0, 0), BuildingBlock: EZIPEK_clean_linker_0, # of connection points: 2
#     Edge 46, Type (0, 0), BuildingBlock: EZIPEK_clean_linker_0, # of connection points: 2
#     Edge 47, Type (0, 0), BuildingBlock: EZIPEK_clean_linker_0, # of connection points: 2
#     Edge 48, Type (0, 0), BuildingBlock: EZIPEK_clean_linker_0, # of connection points: 2
#     Edge 49, Type (0, 0), BuildingBlock: EZIPEK_clean_linker_0, # of connection points: 2
#     Edge 50, Type (0, 0), BuildingBlock: EZIPEK_clean_linker_0, # of connection points: 2
#     Edge 51, Type (0, 0), BuildingBlock: EZIPEK_clean_linker_0, # of connection points: 2
#     Edge 52, Type (0, 0), BuildingBlock: EZIPEK_clean_linker_0, # of connection points: 2
#     Edge 53, Type (0, 0), BuildingBlock: EZIPEK_clean_linker_0, # of connection points: 2
#     Edge 54, Type (0, 0), BuildingBlock: EZIPEK_clean_linker_0, # of connection points: 2
#     Edge 55, Type (0, 0), BuildingBlock: EZIPEK_clean_linker_0, # of connection points: 2
#     Edge 56, Type (0, 0), BuildingBlock: EZIPEK_clean_linker_0, # of connection points: 2
#     Edge 57, Type (0, 0), BuildingBlock: EZIPEK_clean_linker_0, # of connection points: 2
#     Edge 58, Type (0, 0), BuildingBlock: EZIPEK_clean_linker_0, # of connection points: 2
#     Edge 59, Type (0, 0), BuildingBlock: EZIPEK_clean_linker_0, # of connection points: 2
#     Edge 60, Type (0, 0), BuildingBlock: EZIPEK_clean_linker_0, # of connection points: 2
#     Edge 61, Type (0, 0), BuildingBlock: EZIPEK_clean_linker_0, # of connection points: 2
#     Edge 62, Type (0, 0), BuildingBlock: EZIPEK_clean_linker_0, # of connection points: 2
#     Edge 63, Type (0, 0), BuildingBlock: EZIPEK_clean_linker_0, # of connection points: 2
# Relax obj value: 0.190
# Max RMSD: 0.161
# Mean RMSD: 0.159
data_MOF--net-wiv--node1-VOLQOD_clean_sbu_1--edge1-EZIPEK_clean_linker_0
_symmetry_space_group_name_H-M    P1
_symmetry_Int_Tables_number       1
_symmetry_cell_setting            triclinic
loop_
_symmetry_equiv_pos_as_xyz
'x, y, z'
_cell_length_a     48.866948
_cell_length_b     49.146184
_cell_length_c     12.480343
_cell_angle_alpha  90.023338
_cell_angle_beta   89.844099
_cell_angle_gamma 90.087695
loop_
_atom_site_label
_atom_site_type_symbol
_atom_site_fract_x
_atom_site_fract_y
_atom_site_fract_z
_atom_type_partial_charge
O0 O 0.36604 0.13778 0.88647 0.0
Zn1 Zn 0.37643 0.14598 0.03444 0.0
O2 O 0.35745 0.11994 0.11982 0.0
Zn3 Zn 0.3237 0.13628 0.17322 0.0
Zn4 Zn 0.35059 0.08799 0.03318 0.0
Zn5 Zn 0.38101 0.10974 0.23162 0.0
O6 O 0.32094 0.13087 0.33387 0.0
O7 O 0.36493 0.12149 0.36459 0.0
O8 O 0.36305 0.18326 0.06118 0.0
O9 O 0.32393 0.17706 0.14899 0.0
O10 O 0.29191 0.12152 0.08757 0.0
O11 O 0.31075 0.08651 0.00166 0.0
O12 O 0.36307 0.0531 0.1045 0.0
O13 O 0.41724 0.14646 0.05972 0.0
O14 O 0.3849 0.06989 0.24586 0.0
O15 O 0.41779 0.1256 0.21766 0.0
C16 C 0.36379 0.11545 0.83611 0.0
C17 C 0.34106 0.12723 0.39723 0.0
C18 C 0.29048 0.10193 0.02063 0.0
C19 C 0.34156 0.19257 0.10488 0.0
C20 C 0.37662 0.04988 0.19068 0.0
C21 C 0.4298 0.13854 0.14333 0.0
O22 O 0.36587 0.09268 0.88405 0.0
O23 O 0.07919 0.60603 0.0748 0.0
Zn24 Zn 0.08472 0.59959 0.91535 0.0
O25 O 0.11084 0.62588 0.86448 0.0
Zn26 Zn 0.08981 0.65548 0.80165 0.0
Zn27 Zn 0.13238 0.63864 -0.01974 0.0
Zn28 Zn 0.13538 0.60909 0.76495 0.0
O29 O 0.0938 0.65306 0.64106 0.0
O30 O 0.12293 0.61853 0.62005 0.0
O31 O 0.04954 0.6047 0.83408 0.0
O32 O 0.04927 0.6495 0.81801 0.0
O33 O 0.09831 0.69205 0.87108 0.0
O34 O 0.12493 0.67772 0.00411 0.0
O35 O 0.17254 0.63482 0.95662 0.0
O36 O 0.09713 0.56134 0.88382 0.0
O37 O 0.17482 0.61886 0.79011 0.0
O38 O 0.13194 0.56882 0.77211 0.0
C39 C 0.09742 0.61287 0.14277 0.0
C40 C 0.10618 0.63576 0.58219 0.0
C41 C 0.11178 0.69643 0.95687 0.0
C42 C 0.03726 0.62664 0.80951 0.0
C43 C 0.18626 0.62782 0.87459 0.0
C44 C 0.1159 0.55274 0.82139 0.0
O45 O 0.12108 0.62086 0.1144 0.0
O46 O 0.62362 0.85537 0.87643 0.0
Zn47 Zn 0.61483 0.84727 0.02743 0.0
O48 O 0.63442 0.874 0.10881 0.0
Zn49 Zn 0.6678 0.85759 0.16558 0.0
Zn50 Zn 0.64266 0.90444 0.01698 0.0
Zn51 Zn 0.61104 0.8876 0.21676 0.0
O52 O 0.66914 0.86291 0.32577 0.0
O53 O 0.62582 0.87591 0.35194 0.0
O54 O 0.62904 0.81 0.05365 0.0
O55 O 0.66767 0.81691 0.14301 0.0
O56 O 0.70091 0.87127 0.08375 0.0
O57 O 0.68194 0.90212 -0.02286 0.0
O58 O 0.63449 0.94084 0.08389 0.0
O59 O 0.57418 0.84664 0.06077 0.0
O60 O 0.60968 0.928 0.22434 0.0
O61 O 0.57354 0.87328 0.20486 0.0
C62 C 0.62538 0.87787 0.82673 0.0
C63 C 0.64887 0.86825 0.38682 0.0
C64 C 0.70241 0.88817 0.00638 0.0
C65 C 0.65051 0.80107 0.09853 0.0
C66 C 0.62046 0.94642 0.16699 0.0
C67 C 0.56154 0.85775 0.13875 0.0
O68 O 0.6237 0.90043 0.87601 0.0
O69 O 0.90947 0.38021 0.10548 0.0
Zn70 Zn 0.91002 0.38408 0.94477 0.0
O71 O 0.88179 0.36042 0.88568 0.0
Zn72 Zn 0.89801 0.32977 0.81163 0.0
Zn73 Zn 0.85753 0.34633 -0.00964 0.0
Zn74 Zn 0.85936 0.38087 0.79295 0.0
O75 O 0.88465 0.32797 0.65849 0.0
O76 O 0.87088 0.37116 0.6506 0.0
O77 O 0.94683 0.37474 0.87957 0.0
O78 O 0.93731 0.33678 0.78983 0.0
O79 O 0.89631 0.29567 0.90263 0.0
O80 O 0.86366 0.30752 0.01704 0.0
O81 O 0.8179 0.35176 0.96255 0.0
O82 O 0.90303 0.42342 0.90738 0.0
O83 O 0.81923 0.37427 0.80874 0.0
O84 O 0.86585 0.42013 0.80589 0.0
C85 C 0.88979 0.37196 0.16444 0.0
C86 C 0.87893 0.34948 0.60571 0.0
C87 C 0.88108 0.29049 -0.01687 0.0
C88 C 0.95392 0.35517 0.81857 0.0
C89 C 0.80596 0.36284 0.88382 0.0
C90 C 0.88421 0.43415 0.85137 0.0
O91 O 0.86792 0.36198 0.12614 0.0
O92 O 0.37067 0.36498 0.30892 0.0
Zn93 Zn 0.37845 0.35673 0.15568 0.0
O94 O 0.35624 0.38112 0.07204 0.0
Zn95 Zn 0.32372 0.36404 0.01204 0.0
Zn96 Zn 0.34511 0.41119 0.15937 0.0
Zn97 Zn 0.37839 0.39434 0.96013 0.0
O98 O 0.31933 0.37421 0.85507 0.0
O99 O 0.36299 0.38444 0.82401 0.0
O100 O 0.36506 0.31871 0.1287 0.0
O101 O 0.32793 0.32355 0.02629 0.0
O102 O 0.29032 0.3732 0.10072 0.0
O103 O 0.30669 0.40597 0.20467 0.0
O104 O 0.35199 0.44746 0.0895 0.0
O105 O 0.41927 0.35957 0.12053 0.0
O106 O 0.37976 0.43483 0.95703 0.0
O107 O 0.41559 0.37975 0.96288 0.0
C108 C 0.36472 0.3874 0.35432 0.0
C109 C 0.33897 0.37978 0.79125 0.0
C110 C 0.28773 0.38954 0.17927 0.0
C111 C 0.34497 0.30874 0.07673 0.0
C112 C 0.36739 0.45314 0.01007 0.0
C113 C 0.42995 0.36789 0.03309 0.0
O114 O 0.36247 0.40933 0.30113 0.0
O115 O 0.40587 0.62774 0.64773 0.0
Zn116 Zn 0.40378 0.61493 0.80186 0.0
O117 O 0.37856 0.63872 0.86937 0.0
Zn118 Zn 0.40012 0.66942 0.92071 0.0
Zn119 Zn 0.35377 0.648 0.75907 0.0
Zn120 Zn 0.35853 0.62002 0.97571 0.0
O121 O 0.39545 0.6717 0.08173 0.0
O122 O 0.37274 0.63289 0.11356 0.0
O123 O 0.43977 0.61817 0.87593 0.0
O124 O 0.44078 0.66237 0.90777 0.0
O125 O 0.39166 0.70348 0.83399 0.0
O126 O 0.3613 0.68631 0.71957 0.0
O127 O 0.31469 0.64389 0.80145 0.0
O128 O 0.39204 0.57583 0.81911 0.0
O129 O 0.31787 0.62584 0.96422 0.0
O130 O 0.36503 0.58021 0.96242 0.0
C131 C 0.38479 0.62905 0.588 0.0
C132 C 0.38613 0.65356 0.14551 0.0
C133 C 0.37623 0.70576 0.75201 0.0
C134 C 0.45259 0.63933 0.90603 0.0
C135 C 0.30369 0.63494 0.88675 0.0
C136 C 0.37761 0.5656 0.89426 0.0
O137 O 0.36123 0.62564 0.62841 0.0
O138 O 0.62946 0.63041 0.29824 0.0
Zn139 Zn 0.61821 0.63709 0.14836 0.0
O140 O 0.63913 0.61215 0.06496 0.0
Zn141 Zn 0.67288 0.62885 0.01268 0.0
Zn142 Zn 0.64583 0.58176 0.15867 0.0
Zn143 Zn 0.61709 0.60055 0.95077 0.0
O144 O 0.67703 0.6228 0.85114 0.0
O145 O 0.63369 0.61152 0.81692 0.0
O146 O 0.63007 0.67508 0.1176 0.0
O147 O 0.67021 0.66959 0.0349 0.0
O148 O 0.70495 0.61576 0.10326 0.0
O149 O 0.68453 0.58438 0.20378 0.0
O150 O 0.63759 0.5459 0.08692 0.0
O151 O 0.57706 0.63296 0.12201 0.0
O152 O 0.61485 0.56017 0.94324 0.0
O153 O 0.57994 0.61599 0.95791 0.0
C154 C 0.63057 0.60816 0.34974 0.0
C155 C 0.65753 0.61793 0.78589 0.0
C156 C 0.70531 0.59878 0.18076 0.0
C157 C 0.65176 0.68474 0.0757 0.0
C158 C 0.62446 0.54117 0.00077 0.0
C159 C 0.56588 0.62621 0.03351 0.0
O160 O 0.62676 0.58569 0.30147 0.0
O161 O 0.58687 0.36779 0.61937 0.0
Zn162 Zn 0.5891 0.38059 0.77399 0.0
O163 O 0.61449 0.357 0.83976 0.0
Zn164 Zn 0.59375 0.3256 0.88979 0.0
Zn165 Zn 0.63962 0.34915 0.72843 0.0
Zn166 Zn 0.63352 0.37546 0.94839 0.0
O167 O 0.59801 0.32278 0.05189 0.0
O168 O 0.61872 0.36251 0.08516 0.0
O169 O 0.55375 0.37647 0.85197 0.0
O170 O 0.55303 0.33198 0.87651 0.0
O171 O 0.60317 0.29228 0.79954 0.0
O172 O 0.63343 0.31084 0.68735 0.0
O173 O 0.67836 0.3539 0.77304 0.0
O174 O 0.60044 0.41986 0.79269 0.0
O175 O 0.67393 0.3692 0.93997 0.0
O176 O 0.62716 0.41517 0.93608 0.0
C177 C 0.60781 0.36698 0.55816 0.0
C178 C 0.6061 0.34132 0.11646 0.0
C179 C 0.61895 0.29086 0.71786 0.0
C180 C 0.54119 0.35498 0.88037 0.0
C181 C 0.68866 0.36142 0.86161 0.0
C182 C 0.61462 0.42994 0.8687 0.0
O183 O 0.63137 0.37116 0.59724 0.0
O184 O 0.86076 0.63 0.4024 0.0
Zn185 Zn 0.87342 0.63572 0.55112 0.0
O186 O 0.85137 0.61217 0.63537 0.0
Zn187 Zn 0.81826 0.63 0.68384 0.0
Zn188 Zn 0.84418 0.58084 0.54592 0.0
Zn189 Zn 0.87276 0.60264 0.75362 0.0
O190 O 0.81248 0.62465 0.8457 0.0
O191 O 0.85569 0.61445 0.88527 0.0
O192 O 0.86388 0.67412 0.5824 0.0
O193 O 0.82265 0.67025 0.65843 0.0
O194 O 0.78725 0.61758 0.58821 0.0
O195 O 0.80443 0.5804 0.51138 0.0
O196 O 0.85624 0.54613 0.61822 0.0
O197 O 0.91435 0.62894 0.5761 0.0
O198 O 0.87585 0.5628 0.76537 0.0
O199 O 0.91006 0.61732 0.74692 0.0
C200 C 0.85733 0.60818 0.34965 0.0
C201 C 0.83159 0.62057 0.91354 0.0
C202 C 0.78535 0.59773 0.52254 0.0
C203 C 0.84211 0.6846 0.62016 0.0
C204 C 0.8686 0.54293 0.70719 0.0
C205 C 0.92489 0.62395 0.66758 0.0
O206 O 0.85972 0.58521 0.39582 0.0
O207 O 0.58054 0.11612 0.53232 0.0
Zn208 Zn 0.58447 0.10929 0.37369 0.0
O209 O 0.61364 0.1322 0.32179 0.0
Zn210 Zn 0.59786 0.1642 0.25532 0.0
Zn211 Zn 0.63616 0.14221 0.43875 0.0
Zn212 Zn 0.63659 0.11264 0.2253 0.0
O213 O 0.60231 0.16102 0.09514 0.0
O214 O 0.62588 0.12241 0.07949 0.0
O215 O 0.54933 0.1197 0.30177 0.0
O216 O 0.55718 0.16329 0.26456 0.0
O217 O 0.60944 0.19929 0.32993 0.0
O218 O 0.63081 0.181 0.46965 0.0
O219 O 0.67589 0.1367 0.4127 0.0
O220 O 0.59246 0.06972 0.34145 0.0
O221 O 0.67639 0.11952 0.24801 0.0
O222 O 0.62976 0.07299 0.23897 0.0
C223 C 0.59972 0.11985 0.59961 0.0
C224 C 0.61201 0.14161 0.03876 0.0
C225 C 0.62069 0.20137 0.42187 0.0
C226 C 0.54118 0.14299 0.271 0.0
C227 C 0.68871 0.12842 0.33041 0.0
C228 C 0.61141 0.05891 0.2854 0.0
O229 O 0.62432 0.12389 0.5707 0.0
O230 O 0.12027 0.35233 0.37261 0.0
Zn231 Zn 0.11369 0.3442 0.52671 0.0
O232 O 0.13497 0.37022 0.60644 0.0
Zn233 Zn 0.16824 0.35458 0.66566 0.0
Zn234 Zn 0.14427 0.40073 0.51814 0.0
Zn235 Zn 0.11296 0.38331 0.71917 0.0
O236 O 0.17107 0.36498 0.82303 0.0
O237 O 0.12628 0.36874 0.85305 0.0
O238 O 0.1284 0.30692 0.55559 0.0
O239 O 0.16606 0.31365 0.65287 0.0
O240 O 0.20135 0.36613 0.57789 0.0
O241 O 0.18291 0.3981 0.47556 0.0
O242 O 0.13685 0.43699 0.58778 0.0
O243 O 0.07323 0.34498 0.56533 0.0
O244 O 0.11454 0.42349 0.73376 0.0
O245 O 0.07456 0.37259 0.70633 0.0
C246 C 0.12536 0.37469 0.32505 0.0
C247 C 0.15065 0.36695 0.88651 0.0
C248 C 0.20299 0.3832 0.50122 0.0
C249 C 0.14912 0.2979 0.60602 0.0
C250 C 0.12474 0.44214 0.67587 0.0
C251 C 0.0615 0.35741 0.64239 0.0
O252 O 0.12733 0.39704 0.376 0.0
O253 O 0.41296 0.88402 0.5842 0.0
Zn254 Zn 0.41248 0.88826 0.42322 0.0
O255 O 0.38228 0.86697 0.36858 0.0
Zn256 Zn 0.39398 0.83483 0.29052 0.0
Zn257 Zn 0.35881 0.85629 0.47991 0.0
Zn258 Zn 0.3607 0.88922 0.28009 0.0
O259 O 0.3807 0.8367 0.1367 0.0
O260 O 0.37295 0.88131 0.13664 0.0
O261 O 0.44735 0.87484 0.35518 0.0
O262 O 0.43436 0.83693 0.27095 0.0
O263 O 0.38597 0.79993 0.37436 0.0
O264 O 0.36499 0.81799 0.51577 0.0
O265 O 0.31939 0.86082 0.44822 0.0
O266 O 0.40823 0.92823 0.38443 0.0
O267 O 0.32046 0.88236 0.29216 0.0
O268 O 0.36808 0.92818 0.30081 0.0
C269 C 0.39224 0.88057 0.6451 0.0
C270 C 0.37835 0.85938 0.08763 0.0
C271 C 0.37544 0.79779 0.4678 0.0
C272 C 0.4526 0.85405 0.29763 0.0
C273 C 0.30732 0.87116 0.36822 0.0
C274 C 0.38866 0.94065 0.33821 0.0
O275 O 0.36852 0.87564 0.60874 0.0
O276 O 0.87574 0.85244 0.83199 0.0
Zn277 Zn 0.88171 0.84574 0.67616 0.0
O278 O 0.86 0.87181 0.60065 0.0
Zn279 Zn 0.8265 0.85728 0.54024 0.0
Zn280 Zn 0.8522 0.90209 0.69137 0.0
Zn281 Zn 0.88066 0.88416 0.48402 0.0
O282 O 0.82354 0.86756 0.38281 0.0
O283 O 0.86834 0.86641 0.35402 0.0
O284 O 0.86646 0.80907 0.64458 0.0
O285 O 0.828 0.8165 0.5525 0.0
O286 O 0.79401 0.86976 0.62759 0.0
O287 O 0.81277 0.9013 0.73193 0.0
O288 O 0.86327 0.93768 0.6249 0.0
O289 O 0.92194 0.8472 0.63359 0.0
O290 O 0.87635 0.92374 0.46384 0.0
O291 O 0.91973 0.87611 0.49698 0.0
C292 C 0.87078 0.87448 0.88196 0.0
C293 C 0.84403 0.86675 0.31949 0.0
C294 C 0.7924 0.88682 0.70434 0.0
C295 C 0.84519 0.80053 0.59625 0.0
C296 C 0.87096 0.94273 0.52932 0.0
C297 C 0.93328 0.86075 0.55843 0.0
O298 O 0.8686 0.89708 0.83337 0.0
O299 O 0.90923 0.10141 0.13139 0.0
Zn300 Zn 0.90941 0.10195 0.29425 0.0
O301 O 0.88167 0.12732 0.34262 0.0
Zn302 Zn 0.89712 0.15669 0.42563 0.0
Zn303 Zn 0.859 0.14072 0.23324 0.0
Zn304 Zn 0.85711 0.1072 0.42659 0.0
O305 O 0.88422 0.15379 0.58079 0.0
O306 O 0.87079 0.11047 0.57202 0.0
O307 O 0.9462 0.11242 0.35385 0.0
O308 O 0.93699 0.15064 0.44242 0.0
O309 O 0.89394 0.1924 0.3434 0.0
O310 O 0.86695 0.179 0.21014 0.0
O311 O 0.81886 0.13651 0.25631 0.0
O312 O 0.90156 0.0645 0.35473 0.0
O313 O 0.81833 0.11908 0.41993 0.0
O314 O 0.85731 0.06831 0.38827 0.0
C315 C 0.89104 0.11069 0.06785 0.0
C316 C 0.87917 0.13083 0.62519 0.0
C317 C 0.88153 0.19697 0.25525 0.0
C318 C 0.95358 0.1323 0.41261 0.0
C319 C 0.80601 0.12886 0.33944 0.0
C320 C 0.87874 0.05395 0.38159 0.0
O321 O 0.87028 0.12381 0.10032 0.0
O322 O 0.12242 0.12609 0.83943 0.0
Zn323 Zn 0.11521 0.13519 0.6872 0.0
O324 O 0.13518 0.10909 0.60332 0.0
Zn325 Zn 0.16829 0.1244 0.54114 0.0
Zn326 Zn 0.14495 0.07834 0.68957 0.0
Zn327 Zn 0.11196 0.09693 0.49285 0.0
O328 O 0.17091 0.11284 0.38553 0.0
O329 O 0.12605 0.10974 0.3565 0.0
O330 O 0.13039 0.17218 0.65814 0.0
O331 O 0.1663 0.16547 0.55061 0.0
O332 O 0.20146 0.11336 0.62787 0.0
O333 O 0.18373 0.08181 0.73446 0.0
O334 O 0.13698 0.04236 0.6167 0.0
O335 O 0.07462 0.1359 0.65343 0.0
O336 O 0.11131 0.05665 0.48111 0.0
O337 O 0.0742 0.11004 0.50732 0.0
C338 C 0.1264 0.10319 0.88442 0.0
C339 C 0.1505 0.1107 0.32259 0.0
C340 C 0.20353 0.09702 0.70672 0.0
C341 C 0.15024 0.18122 0.60218 0.0
C342 C 0.12256 0.03764 0.53373 0.0
C343 C 0.06211 0.1251 0.57472 0.0
O344 O 0.12726 0.08113 0.8311 0.0
O345 O 0.09463 0.86832 0.11728 0.0
Zn346 Zn 0.09121 0.87787 0.2757 0.0
O347 O 0.11567 0.85413 0.35406 0.0
Zn348 Zn 0.09511 0.82427 0.40956 0.0
Zn349 Zn 0.14166 0.83443 0.27086 0.0
Zn350 Zn 0.13513 0.87338 0.45911 0.0
O351 O 0.10748 0.81601 0.56022 0.0
O352 O 0.12473 0.85724 0.59607 0.0
O353 O 0.05238 0.8725 0.33174 0.0
O354 O 0.05675 0.83481 0.42876 0.0
O355 O 0.09602 0.79447 0.29797 0.0
O356 O 0.14056 0.79377 0.29035 0.0
O357 O 0.17973 0.84701 0.28979 0.0
O358 O 0.10053 0.91746 0.30761 0.0
O359 O 0.17589 0.87118 0.43946 0.0
O360 O 0.12547 0.91251 0.4558 0.0
C361 C 0.11185 0.85239 0.07214 0.0
C362 C 0.11558 0.83423 0.62603 0.0
C363 C 0.11784 0.78361 0.26269 0.0
C364 C 0.04252 0.85441 0.39418 0.0
C365 C 0.1903 0.86084 0.3649 0.0
C366 C 0.11299 0.92737 0.38856 0.0
O367 O 0.1302 0.83991 0.12395 0.0
C368 C 0.40378 0.97792 0.2169 0.0
C369 C 0.39075 0.96981 0.31355 0.0
C370 C 0.36842 0.01407 0.32888 0.0
C371 C 0.38166 0.02235 0.23268 0.0
N372 N 0.41615 0.01489 0.09739 0.0
N373 N 0.36569 0.98101 0.47327 0.0
C374 C 0.40066 0.00508 0.18029 0.0
C375 C 0.37474 0.98828 0.37355 0.0
N376 N 0.41812 0.95928 0.15787 0.0
N377 N 0.34887 0.03032 0.3745 0.0
H378 H 0.37019 0.96214 0.50732 0.0
H379 H 0.35596 0.99432 0.52586 0.0
H380 H 0.3434 0.04925 0.34356 0.0
H381 H 0.3365 0.02428 0.43823 0.0
H382 H 0.4251 0.96288 0.08026 0.0
H383 H 0.4219 0.93952 0.1845 0.0
H384 H 0.4324 0.00427 0.0633 0.0
H385 H 0.41416 0.03464 0.06784 0.0
C386 C 0.96528 0.60176 0.75014 0.0
C387 C 0.95491 0.623 0.68488 0.0
C388 C 0.00073 0.64291 0.6805 0.0
C389 C 0.00895 0.62539 0.76572 0.0
N390 N 0.99512 0.59184 0.89781 0.0
N391 N 0.96269 0.66658 0.59973 0.0
C392 C 0.9902 0.6057 0.80497 0.0
C393 C 0.97259 0.64439 0.65264 0.0
N394 N 0.95146 0.57768 0.75915 0.0
N395 N 0.01965 0.65708 0.62219 0.0
H396 H 0.94218 0.6689 0.57944 0.0
H397 H 0.9746 0.68379 0.58468 0.0
H398 H 0.04064 0.65477 0.63257 0.0
H399 H 0.01455 0.6683 0.55426 0.0
H400 H 0.95937 0.56097 0.80018 0.0
H401 H 0.93388 0.57343 0.71477 0.0
H402 H 0.98072 0.57882 0.93237 0.0
H403 H 0.01176 0.59594 0.94737 0.0
C404 C 0.59347 0.98946 0.1726 0.0
C405 C 0.61738 0.97491 0.20109 0.0
C406 C 0.63397 0.01383 0.30487 0.0
C407 C 0.61159 0.02933 0.26666 0.0
N408 N 0.57162 0.03341 0.15442 0.0
N409 N 0.66137 0.9729 0.28786 0.0
C410 C 0.59156 0.01751 0.19874 0.0
C411 C 0.63792 0.98698 0.26569 0.0
N412 N 0.57253 0.97639 0.1213 0.0
N413 N 0.65099 0.02468 0.38058 0.0
H414 H 0.66456 0.95284 0.26351 0.0
H415 H 0.67843 0.98152 0.3244 0.0
H416 H 0.64839 0.04425 0.41152 0.0
H417 H 0.6662 0.01371 0.41952 0.0
H418 H 0.55334 0.98502 0.10936 0.0
H419 H 0.57365 0.95609 0.09723 0.0
H420 H 0.55857 0.02676 0.094 0.0
H421 H 0.56922 0.05399 0.17237 0.0
C422 C -1e-05 0.33418 0.7953 0.0
C423 C 0.98118 0.355 0.76845 0.0
C424 C 0.01362 0.37424 0.63933 0.0
C425 C 0.03233 0.35335 0.66581 0.0
N426 N 0.042 0.31043 0.7501 0.0
N427 N 0.96694 0.39062 0.64753 0.0
C428 C 0.02495 0.33221 0.73738 0.0
C429 C 0.98704 0.37382 0.68517 0.0
N430 N 0.99442 0.31708 0.87906 0.0
N431 N 0.02166 0.39491 0.573 0.0
H432 H 0.94715 0.39092 0.67902 0.0
H433 H 0.96914 0.40266 0.57943 0.0
H434 H 0.04048 0.3949 0.53322 0.0
H435 H 0.01031 0.41257 0.56138 0.0
H436 H 0.00843 0.30325 0.90998 0.0
H437 H 0.97634 0.3181 0.92353 0.0
H438 H 0.03687 0.29312 0.7938 0.0
H439 H 0.06051 0.30862 0.70882 0.0
C440 C 0.39613 0.49491 -0.01023 0.0
C441 C 0.37056 0.48164 0.97564 0.0
C442 C 0.35221 0.52182 0.88475 0.0
C443 C 0.37667 0.53594 0.90922 0.0
N444 N 0.42129 0.53748 -0.00888 0.0
N445 N 0.32377 0.48199 0.91402 0.0
C446 C 0.39863 0.52283 0.96223 0.0
C447 C 0.34843 0.49496 0.92419 0.0
N448 N 0.41795 0.48082 0.02984 0.0
N449 N 0.33297 0.53401 0.82151 0.0
H450 H 0.32059 0.46181 0.93677 0.0
H451 H 0.30595 0.49152 0.88841 0.0
H452 H 0.33552 0.55357 0.79044 0.0
H453 H 0.31566 0.5242 0.79225 0.0
H454 H 0.43792 0.48824 0.02959 0.0
H455 H 0.4165 0.46091 0.05816 0.0
H456 H 0.43649 0.53014 0.04162 0.0
H457 H 0.42425 0.55779 0.96963 0.0
C458 C 0.52297 0.60932 0.94838 0.0
C459 C 0.53589 0.62887 0.01519 0.0
C460 C 0.49203 0.65264 0.0284 0.0
C461 C 0.48148 0.63662 0.94248 0.0
N462 N 0.49198 0.60443 0.80071 0.0
N463 N 0.53287 0.67313 0.10105 0.0
C464 C 0.49839 0.61629 0.89644 0.0
C465 C 0.52054 0.65172 0.05073 0.0
N466 N 0.53369 0.58386 0.93606 0.0
N467 N 0.47509 0.6676 0.09251 0.0
H468 H 0.55386 0.67439 0.11403 0.0
H469 H 0.52243 0.69104 0.11925 0.0
H470 H 0.45385 0.66708 0.08664 0.0
H471 H 0.48206 0.6777 0.16071 0.0
H472 H 0.52372 0.56864 0.89282 0.0
H473 H 0.55042 0.57706 -0.0197 0.0
H474 H 0.50505 0.59072 0.76251 0.0
H475 H 0.47581 0.61097 0.75294 0.0
C476 C 0.64422 0.49971 0.91499 0.0
C477 C 0.6214 0.51301 0.96222 0.0
C478 C 0.5928 0.47269 0.93411 0.0
C479 C 0.61552 0.45955 0.88568 0.0
N480 N 0.66091 0.46127 0.81121 0.0
N481 N 0.5731 0.51454 0.00228 0.0
C482 C 0.64069 0.47333 0.87048 0.0
C483 C 0.59535 0.50027 0.96665 0.0
N484 N 0.66925 0.51223 0.9137 0.0
N485 N 0.56934 0.45833 0.95448 0.0
H486 H 0.57449 0.53414 0.03387 0.0
H487 H 0.55304 0.50765 -0.00496 0.0
H488 H 0.56639 0.43829 0.9295 0.0
H489 H 0.55332 0.46562 0.0015 0.0
H490 H 0.68734 0.50258 0.89159 0.0
H491 H 0.67236 0.5321 0.94047 0.0
H492 H 0.679 0.47091 0.78871 0.0
H493 H 0.65859 0.44208 0.77645 0.0
C494 C 0.47468 0.34112 0.0344 0.0
C495 C 0.45964 0.365 0.00941 0.0
C496 C 0.49587 0.37888 0.88665 0.0
C497 C 0.51277 0.35734 0.92284 0.0
N498 N 0.52007 0.32356 0.06261 0.0
N499 N 0.4622 0.41138 0.94406 0.0
C500 C 0.50284 0.34 0.00611 0.0
C501 C 0.4723 0.38549 0.94623 0.0
N502 N 0.46234 0.31905 0.08024 0.0
N503 N 0.50125 0.39226 0.79301 0.0
H504 H 0.44623 0.41771 -0.00618 0.0
H505 H 0.47207 0.42714 0.90327 0.0
H506 H 0.51641 0.38607 0.73937 0.0
H507 H 0.48812 0.40703 0.76221 0.0
H508 H 0.47249 0.30058 0.09037 0.0
H509 H 0.44152 0.31803 0.09734 0.0
H510 H 0.51354 0.31236 0.12891 0.0
H511 H 0.54124 0.32383 0.05353 0.0
C512 C 0.89932 0.47275 0.73742 0.0
C513 C 0.88457 0.46335 0.82821 0.0
C514 C 0.85911 0.50594 0.83815 0.0
C515 C 0.87401 0.51547 0.74778 0.0
N516 N 0.91199 0.51105 0.62528 0.0
N517 N 0.85497 0.47193 -0.02153 0.0
C518 C 0.89528 0.4998 0.70146 0.0
C519 C 0.86594 0.48036 0.88316 0.0
N520 N 0.9163 0.45541 0.68321 0.0
N521 N 0.83773 0.52087 0.87787 0.0
H522 H 0.85981 0.45318 0.01281 0.0
H523 H 0.84311 0.48425 0.02797 0.0
H524 H 0.83202 0.5397 0.84662 0.0
H525 H 0.82432 0.51385 0.93661 0.0
H526 H 0.92493 0.45985 0.60887 0.0
H527 H 0.92073 0.43582 0.71021 0.0
H528 H 0.92968 0.50171 0.59683 0.0
H529 H 0.90936 0.53075 0.59603 0.0
C530 C 0.49301 0.15907 0.29188 0.0
C531 C 0.51325 0.14588 0.22959 0.0
C532 C 0.4792 0.13236 0.09662 0.0
C533 C 0.45882 0.14514 0.15978 0.0
N534 N 0.44673 0.17676 0.29957 0.0
N535 N 0.5276 0.1277 0.05911 0.0
C536 C 0.46594 0.16056 0.25173 0.0
C537 C 0.50696 0.13498 0.12736 0.0
N538 N 0.49944 0.16916 0.39079 0.0
N539 N 0.47198 0.11651 0.01119 0.0
H540 H 0.54817 0.13016 0.07875 0.0
H541 H 0.52442 0.12194 -0.02022 0.0
H542 H 0.45185 0.11445 -0.01506 0.0
H543 H 0.48573 0.10403 0.97045 0.0
H544 H 0.48492 0.17627 0.44517 0.0
H545 H 0.51928 0.16889 0.42148 0.0
H546 H 0.4511 0.1903 0.36139 0.0
H547 H 0.42682 0.17853 0.27027 0.0
C548 C 0.09541 0.51193 0.73314 0.0
C549 C 0.1171 0.52366 0.79318 0.0
C550 C 0.14476 0.48264 0.7676 0.0
C551 C 0.12241 0.47039 0.71352 0.0
N552 N 0.07508 0.47108 0.65919 0.0
N553 N 0.1605 0.51934 0.88241 0.0
C554 C 0.09726 0.48431 0.70111 0.0
C555 C 0.14129 0.50876 0.81461 0.0
N556 N 0.07379 0.52759 0.70105 0.0
N557 N 0.16932 0.46941 0.77285 0.0
H558 H 0.15832 0.53833 0.91895 0.0
H559 H 0.17741 0.50856 0.90977 0.0
H560 H 0.17234 0.44988 0.74224 0.0
H561 H 0.18724 0.47836 0.80097 0.0
H562 H 0.05917 0.52105 0.64619 0.0
H563 H 0.0715 0.54799 0.72195 0.0
H564 H 0.05535 0.47906 0.66044 0.0
H565 H 0.07595 0.45124 0.62962 0.0
C566 C 0.51187 0.86469 0.10561 0.0
C567 C 0.5328 0.85099 0.16188 0.0
C568 C 0.49968 0.83454 0.29479 0.0
C569 C 0.47976 0.85161 0.24782 0.0
N570 N 0.46553 0.88246 0.10824 0.0
N571 N 0.54759 0.82191 0.30588 0.0
C572 C 0.48536 0.86631 0.15217 0.0
C573 C 0.52687 0.83527 0.25456 0.0
N574 N 0.51755 0.87624 0.00839 0.0
N575 N 0.49249 0.81765 0.37737 0.0
H576 H 0.56735 0.82057 0.27428 0.0
H577 H 0.54563 0.81293 0.38099 0.0
H578 H 0.47284 0.81723 0.41027 0.0
H579 H 0.50529 0.8028 0.40891 0.0
H580 H 0.50283 0.88461 0.95824 0.0
H581 H 0.53696 0.87551 0.97351 0.0
H582 H 0.46894 0.89593 0.04532 0.0
H583 H 0.44557 0.88339 0.1379 0.0
C584 C 0.89439 0.97884 0.41873 0.0
C585 C 0.87339 0.97121 0.49219 0.0
C586 C 0.86024 0.01867 0.50762 0.0
C587 C 0.87737 0.02542 0.4191 0.0
N588 N 0.90594 0.00921 0.27363 0.0
N589 N 0.83069 0.98395 0.57842 0.0
C590 C 0.89307 0.00473 0.36927 0.0
C591 C 0.85454 0.99108 0.52841 0.0
N592 N 0.91627 0.96224 0.39979 0.0
N593 N 0.85054 0.03817 0.57584 0.0
H594 H 0.82413 0.96386 0.5864 0.0
H595 H 0.8158 -0.00175 0.59891 0.0
H596 H 0.85668 0.05845 0.57233 0.0
H597 H 0.83951 0.03337 0.64501 0.0
H598 H 0.93284 0.9682 0.35242 0.0
H599 H 0.91968 0.94427 0.44199 0.0
H600 H 0.91575 0.99373 0.23125 0.0
H601 H 0.90404 0.02731 0.23079 0.0
C602 C 0.01365 0.10999 0.58185 0.0
C603 C 0.03297 0.13044 0.55586 0.0
C604 C 0.00012 0.15261 0.43692 0.0
C605 C 0.98085 0.132 0.46225 0.0
N606 N 0.96629 0.09546 0.5789 0.0
N607 N 0.0436 0.17409 0.47905 0.0
C608 C 0.9867 0.11197 0.54091 0.0
C609 C 0.02576 0.15283 0.49038 0.0
N610 N 0.02142 0.08822 0.64273 0.0
N611 N 0.99437 0.17113 0.35838 0.0
H612 H 0.0626 0.17458 0.51701 0.0
H613 H 0.0388 0.19217 0.44006 0.0
H614 H 0.97577 0.17146 0.31755 0.0
H615 H 0.00856 0.18496 0.32814 0.0
H616 H 0.00946 0.07085 0.65292 0.0
H617 H 0.04058 0.08701 0.67918 0.0
H618 H 0.96865 0.08254 0.64432 0.0
H619 H 0.94617 0.09634 0.55142 0.0
C620 C 0.09094 0.96943 0.46033 0.0
C621 C 0.1134 0.95696 0.40778 0.0
C622 C 0.14203 -0.00296 0.44038 0.0
C623 C 0.11956 0.00962 0.49296 0.0
N624 N 0.07161 0.01019 0.53992 0.0
N625 N 0.15794 0.96011 0.32675 0.0
C626 C 0.09363 -0.00342 0.49838 0.0
C627 C 0.13827 0.97119 0.39149 0.0
N628 N 0.06751 0.95483 0.47783 0.0
N629 N 0.16698 0.00971 0.43806 0.0
H630 H 0.15528 0.94145 0.28812 0.0
H631 H 0.17571 0.97019 0.30334 0.0
H632 H 0.17025 0.02924 0.46817 0.0
H633 H 0.1849 0.00042 0.41182 0.0
H634 H 0.05162 0.96124 0.5274 0.0
H635 H 0.06438 0.93548 0.44581 0.0
H636 H 0.05155 0.00318 0.53485 0.0
H637 H 0.07311 0.02938 0.57511 0.0
C638 C 0.99501 0.83644 0.40709 0.0
C639 C 0.01439 0.85666 0.43546 0.0
C640 C 0.98123 0.87796 0.55641 0.0
C641 C 0.96233 0.85699 0.53188 0.0
N642 N 0.95211 0.81388 0.44887 0.0
N643 N 0.02842 0.8931 0.55304 0.0
C644 C 0.9696 0.83537 0.46226 0.0
C645 C 0.00822 0.8765 0.51456 0.0
N646 N 0.0006 0.81893 0.32464 0.0
N647 N 0.97316 0.89954 0.61795 0.0
H648 H 0.04853 0.89249 0.52496 0.0
H649 H 0.02585 0.90595 0.61865 0.0
H650 H 0.95401 0.90044 0.65509 0.0
H651 H 0.98481 0.91713 0.62752 0.0
H652 H 0.98633 0.80549 0.2925 0.0
H653 H 0.01897 0.8194 0.28178 0.0
H654 H 0.95726 0.7962 0.40758 0.0
H655 H 0.93311 0.81268 0.48682 0.0
C656 C 0.3365 0.23464 -0.00363 0.0
C657 C 0.33697 0.22218 0.09884 0.0
C658 C 0.33568 0.26693 0.18408 0.0
C659 C 0.34018 0.27915 0.08248 0.0
N660 N 0.34685 0.27482 0.89148 0.0
N661 N 0.33888 0.2261 0.29149 0.0
C662 C 0.34078 0.26312 -0.01191 0.0
C663 C 0.3367 0.23818 0.1933 0.0
N664 N 0.33153 0.21921 0.9073 0.0
N665 N 0.32978 0.28278 0.27116 0.0
H666 H 0.33928 0.20507 0.3018 0.0
H667 H 0.34219 0.23691 0.36208 0.0
H668 H 0.32839 0.30393 0.26692 0.0
H669 H 0.32361 0.2749 0.34484 0.0
H670 H 0.3284 0.22745 0.83145 0.0
H671 H 0.32777 0.19832 0.9112 0.0
H672 H 0.35059 0.26365 0.82206 0.0
H673 H 0.35032 0.29562 0.88206 0.0
C674 C 0.26093 0.60716 0.88159 0.0
C675 C 0.27364 0.63303 0.89119 0.0
C676 C 0.22908 0.65557 0.88226 0.0
C677 C 0.2163 0.62963 0.8792 0.0
N678 N 0.21912 0.58079 0.89485 0.0
N679 N 0.27042 0.68149 0.91721 0.0
C680 C 0.23195 0.60541 0.88417 0.0
C681 C 0.25787 0.65717 0.89632 0.0
N682 N 0.27651 0.58441 0.8655 0.0
N683 N 0.21377 0.67856 0.86793 0.0
H684 H 0.29153 0.68332 0.9277 0.0
H685 H 0.25987 0.69945 0.93287 0.0
H686 H 0.1926 0.67813 0.85747 0.0
H687 H 0.22214 0.69788 0.85806 0.0
H688 H 0.26837 0.56551 0.84515 0.0
H689 H 0.29784 0.58473 0.86442 0.0
H690 H 0.22941 0.56272 0.91111 0.0
H691 H 0.19788 0.57863 0.8962 0.0
C692 C 0.65664 0.75584 0.18906 0.0
C693 C 0.65583 0.77154 0.09376 0.0
C694 C 0.65469 0.73012 -0.01497 0.0
C695 C 0.65595 0.71443 0.08003 0.0
N696 N 0.66506 0.71174 0.26947 0.0
N697 N 0.66173 0.77415 0.90213 0.0
C698 C 0.65919 0.72714 0.18125 0.0
C699 C 0.65733 0.7588 -0.00807 0.0
N700 N 0.65344 0.76811 0.28658 0.0
N701 N 0.64948 0.71778 0.88911 0.0
H702 H 0.66429 0.79522 0.90482 0.0
H703 H 0.66556 0.7658 0.82686 0.0
H704 H 0.64716 0.69679 0.88159 0.0
H705 H 0.64529 0.72843 0.81892 0.0
H706 H 0.65055 0.7574 0.35769 0.0
H707 H 0.65171 0.7891 0.29585 0.0
H708 H 0.67032 0.72003 0.34343 0.0
H709 H 0.66723 0.69063 0.26621 0.0
C710 C 0.76128 0.38698 0.89599 0.0
C711 C 0.77595 0.36246 0.87988 0.0
C712 C 0.73319 0.33687 0.86609 0.0
C713 C 0.71858 0.36172 0.8721 0.0
N714 N 0.71831 0.41086 0.87608 0.0
N715 N 0.77674 0.31475 0.83443 0.0
C716 C 0.73248 0.38694 0.88294 0.0
C717 C 0.76216 0.33753 0.86097 0.0
N718 N 0.7748 0.41007 0.9268 0.0
N719 N 0.71936 0.31265 0.86865 0.0
H720 H 0.79806 0.31444 0.83019 0.0
H721 H 0.76773 0.29675 0.80809 0.0
H722 H 0.69807 0.31138 0.87307 0.0
H723 H 0.72896 0.29384 0.87575 0.0
H724 H 0.76489 0.42776 0.95133 0.0
H725 H 0.79599 0.41093 0.93649 0.0
H726 H 0.7277 0.42986 0.87116 0.0
H727 H 0.69714 0.41174 0.86636 0.0
C728 C 0.83763 0.73004 0.70824 0.0
C729 C 0.83891 0.71427 0.6134 0.0
C730 C 0.84134 0.7555 0.50395 0.0
C731 C 0.83961 0.77118 0.59894 0.0
N732 N 0.82849 0.77414 0.78687 0.0
N733 N 0.83496 0.71135 0.42099 0.0
C734 C 0.83527 0.75864 0.69977 0.0
C735 C 0.83854 0.72683 0.511 0.0
N736 N 0.84022 0.71786 0.80608 0.0
N737 N 0.84693 0.76783 0.40813 0.0
H738 H 0.83247 0.69026 0.42353 0.0
H739 H 0.8319 0.71956 0.34507 0.0
H740 H 0.84873 0.78887 0.39964 0.0
H741 H 0.8516 0.75714 0.33839 0.0
H742 H 0.84245 0.72863 0.87741 0.0
H743 H 0.84246 0.69691 0.81503 0.0
H744 H 0.82257 0.76594 0.86032 0.0
H745 H 0.8261 0.79519 0.78244 0.0
C746 C 0.76172 0.15393 0.34306 0.0
C747 C 0.77602 0.12891 0.33835 0.0
C748 C 0.73297 0.10358 0.33595 0.0
C749 C 0.7187 0.12863 0.33189 0.0
N750 N 0.71876 0.17756 0.31651 0.0
N751 N 0.77611 0.08019 0.3126 0.0
C752 C 0.73285 0.15384 0.33149 0.0
C753 C 0.7619 0.10376 0.33004 0.0
N754 N 0.77569 0.17759 0.36167 0.0
N755 N 0.7189 0.07971 0.34935 0.0
H756 H 0.79742 0.07941 0.30804 0.0
H757 H 0.76679 0.06174 0.29376 0.0
H758 H 0.69759 0.07871 0.35367 0.0
H759 H 0.72833 0.06116 0.36511 0.0
H760 H 0.76619 0.19612 0.37745 0.0
H761 H 0.79693 0.17836 0.36967 0.0
H762 H 0.72815 0.19634 0.30433 0.0
H763 H 0.69755 0.17824 0.30763 0.0
C764 C 0.15477 0.25345 0.7032 0.0
C765 C 0.15396 0.26822 0.60564 0.0
C766 C 0.15336 0.22568 0.5033 0.0
C767 C 0.15484 0.21093 0.60076 0.0
N768 N 0.16495 0.21054 0.7898 0.0
N769 N 0.16063 0.26886 0.41403 0.0
C770 C 0.15814 0.22479 0.69967 0.0
C771 C 0.15586 0.25445 0.50592 0.0
N772 N 0.1508 0.26647 0.79882 0.0
N773 N 0.14802 0.21251 0.40911 0.0
H774 H 0.16326 0.28993 0.41354 0.0
H775 H 0.1648 0.25971 0.34049 0.0
H776 H 0.14578 0.19147 0.40337 0.0
H777 H 0.14362 0.22266 0.33796 0.0
H778 H 0.14814 0.25622 0.87115 0.0
H779 H 0.14788 0.28742 0.80525 0.0
H780 H 0.17017 0.21982 0.86198 0.0
H781 H 0.16816 0.18955 0.78937 0.0
C782 C 0.26531 0.84271 0.36153 0.0
C783 C 0.27739 0.86894 0.36255 0.0
C784 C 0.23217 0.89007 0.35688 0.0
C785 C 0.22019 0.8639 0.36711 0.0
N786 N 0.22506 0.81571 0.39973 0.0
N787 N 0.27289 0.91771 0.37786 0.0
C788 C 0.23667 0.84028 0.37508 0.0
C789 C 0.26101 0.89272 0.36451 0.0
N790 N 0.28112 0.82017 0.344 0.0
N791 N 0.21611 0.9122 0.33614 0.0
H792 H 0.29399 0.92049 0.38392 0.0
H793 H 0.26175 0.93542 0.39177 0.0
H794 H 0.19488 0.91101 0.3297 0.0
H795 H 0.22395 0.93128 0.31643 0.0
H796 H 0.27302 0.80082 0.3315 0.0
H797 H 0.30221 0.82116 0.33145 0.0
H798 H 0.23644 0.79841 0.41775 0.0
H799 H 0.20411 0.81315 0.41247 0.0
C800 C 0.23788 0.07407 0.82569 0.0
C801 C 0.22755 0.0984 0.77948 0.0
C802 C 0.26089 0.12454 0.88317 0.0
C803 C 0.26755 0.10091 0.94323 0.0
N804 N 0.25934 0.05345 -0.0196 0.0
N805 N 0.22511 0.14785 0.78914 0.0
C806 C 0.25514 0.0757 0.91702 0.0
C807 C 0.23787 0.12398 0.81479 0.0
N808 N 0.232 0.04946 0.78023 0.0
N809 N 0.27721 0.14716 0.8861 0.0
H810 H 0.20696 0.14905 0.74611 0.0
H811 H 0.23084 0.16645 0.82259 0.0
H812 H 0.29549 0.14819 0.92869 0.0
H813 H 0.27426 0.16373 0.83528 0.0
H814 H 0.24093 0.03131 0.80523 0.0
H815 H 0.22065 0.04761 0.70989 0.0
H816 H 0.24876 0.0352 0.97045 0.0
H817 H 0.27136 0.05414 0.04933 0.0
C818 C 0.08869 0.72815 0.08188 0.0
C819 C 0.11079 0.723 0.01165 0.0
C820 C 0.13607 0.76081 0.09183 0.0
C821 C 0.11632 0.76221 0.17708 0.0
N822 N 0.07648 0.7418 0.26135 0.0
N823 N 0.1567 0.73277 0.95389 0.0
C824 C 0.09314 0.74458 0.17379 0.0
C825 C 0.13481 0.73888 0.01785 0.0
N826 N 0.06381 0.71639 0.06346 0.0
N827 N 0.1552 0.78076 0.07626 0.0
H828 H 0.15578 0.7181 0.89348 0.0
H829 H 0.17608 0.7412 0.96503 0.0
H830 H 0.15735 0.79795 0.12342 0.0
H831 H 0.16744 0.78175 0.00783 0.0
H832 H 0.04633 0.72128 0.10739 0.0
H833 H 0.06016 0.70381 -0.00231 0.0
H834 H 0.06013 0.7282 0.26457 0.0
H835 H 0.08105 0.75021 0.33586 0.0
C836 C 0.7386 0.91241 0.89966 0.0
C837 C 0.72628 0.88767 0.93317 0.0
C838 C 0.75767 0.86216 0.81814 0.0
C839 C 0.76799 0.887 0.7754 0.0
N840 N 0.76379 0.93575 0.75966 0.0
N841 N 0.71849 0.83984 0.89602 0.0
C842 C 0.75713 0.91217 0.8116 0.0
C843 C 0.73415 0.86276 0.88442 0.0
N844 N 0.73309 0.936 0.95345 0.0
N845 N 0.77086 0.83802 0.80093 0.0
H846 H 0.70014 0.83933 0.93867 0.0
H847 H 0.72213 0.82207 0.8526 0.0
H848 H 0.78898 0.83616 0.75768 0.0
H849 H 0.76538 0.82012 0.8404 0.0
H850 H 0.74345 0.95417 0.93891 0.0
H851 H 0.72005 0.93675 0.01975 0.0
H852 H 0.75453 0.95436 0.77638 0.0
H853 H 0.77644 0.93618 0.69219 0.0
C854 C 0.88883 0.24013 0.009 0.0
C855 C 0.88637 0.26661 0.05209 0.0
C856 C 0.88415 0.24797 0.23416 0.0
C857 C 0.88723 0.22159 0.19115 0.0
N858 N 0.90342 0.19403 0.04318 0.0
N859 N 0.89318 0.29569 0.20648 0.0
C860 C 0.89318 0.21815 0.08015 0.0
C861 C 0.88766 0.27055 0.16514 0.0
N862 N 0.88559 0.23556 0.90181 0.0
N863 N 0.87664 0.25166 0.33865 0.0
H864 H 0.89805 0.31232 0.15818 0.0
H865 H 0.89635 0.29906 0.28796 0.0
H866 H 0.87347 0.23562 0.39182 0.0
H867 H 0.87135 0.27063 0.36981 0.0
H868 H 0.88447 0.21608 0.86904 0.0
H869 H 0.88148 0.25099 0.84695 0.0
H870 H 0.91001 0.19128 0.96442 0.0
H871 H 0.90834 0.17794 0.09414 0.0
C872 C 0.25279 0.41093 0.29855 0.0
C873 C 0.26445 0.38691 0.25518 0.0
C874 C 0.23584 0.35952 0.37604 0.0
C875 C 0.22693 0.3837 0.42818 0.0
N876 N 0.23206 0.43206 0.45375 0.0
N877 N 0.27146 0.33809 0.27253 0.0
C878 C 0.23705 0.40931 0.39388 0.0
C879 C 0.25724 0.36109 0.29914 0.0
N880 N 0.25602 0.43522 0.24675 0.0
N881 N 0.22323 0.33512 0.39523 0.0
H882 H 0.28801 0.33767 0.2201 0.0
H883 H 0.26881 0.31962 0.31229 0.0
H884 H 0.20715 0.33247 0.44895 0.0
H885 H 0.22695 0.31779 0.34932 0.0
H886 H 0.2459 0.45293 0.26989 0.0
H887 H 0.26636 0.43694 0.17377 0.0
H888 H 0.241 0.45088 0.43745 0.0
H889 H 0.22139 0.4314 0.52628 0.0
C890 C 0.40166 0.73812 0.63159 0.0
C891 C 0.37699 0.73036 0.68401 0.0
C892 C 0.35128 0.7617 0.5701 0.0
C893 C 0.37621 0.77198 0.52816 0.0
N894 N 0.42566 0.77328 0.5335 0.0
N895 N 0.32889 0.73788 0.71575 0.0
C896 C 0.4016 0.76107 0.56246 0.0
C897 C 0.35193 0.74305 0.65667 0.0
N898 N 0.42487 0.72292 0.64333 0.0
N899 N 0.32699 0.7695 0.52565 0.0
H900 H 0.32883 0.72487 0.78185 0.0
H901 H 0.31063 0.74848 0.70605 0.0
H902 H 0.32593 0.78274 0.4604 0.0
H903 H 0.30824 0.7608 0.54608 0.0
H904 H 0.44242 0.72602 0.5973 0.0
H905 H 0.42592 0.70566 0.69159 0.0
H906 H 0.44445 0.76807 0.56698 0.0
H907 H 0.42672 0.79007 0.48264 0.0
C908 C 0.73868 0.62347 0.30128 0.0
C909 C 0.72811 0.59866 0.25956 0.0
C910 C 0.75098 0.57401 0.40505 0.0
C911 C 0.76418 0.59836 0.43742 0.0
N912 N 0.77773 0.6441 0.38546 0.0
N913 N 0.73012 0.54956 0.25793 0.0
C914 C 0.76022 0.6225 0.3766 0.0
C915 C 0.73611 0.57365 0.30728 0.0
N916 N 0.72735 0.64802 0.27555 0.0
N917 N 0.75208 0.55142 0.46858 0.0
H918 H 0.72047 0.54862 0.18353 0.0
H919 H 0.73745 0.53088 0.28487 0.0
H920 H 0.76207 0.55128 0.54236 0.0
H921 H 0.74072 0.53389 0.45321 0.0
H922 H 0.73336 0.6661 0.31258 0.0
H923 H 0.70994 0.65023 0.22855 0.0
H924 H 0.77659 0.66099 0.33503 0.0
H925 H 0.79532 0.64386 0.43245 0.0
C926 C 0.59438 0.23786 0.51783 0.0
C927 C 0.61987 0.22701 0.48349 0.0
C928 C 0.64367 0.25454 0.61768 0.0
C929 C 0.61852 0.26699 0.64597 0.0
N930 N 0.57106 0.27552 0.60232 0.0
N931 N 0.66908 0.22919 0.4839 0.0
C932 C 0.59415 0.26012 0.59026 0.0
C933 C 0.64464 0.23674 0.52826 0.0
N934 N 0.57032 0.22609 0.48657 0.0
N935 N 0.66648 0.25916 0.67831 0.0
H936 H 0.6703 0.2166 0.41665 0.0
H937 H 0.6878 0.23751 0.50664 0.0
H938 H 0.6663 0.27161 0.74608 0.0
H939 H 0.68479 0.24867 0.66775 0.0
H940 H 0.55147 0.23121 0.52019 0.0
H941 H 0.56921 0.20966 0.43403 0.0
H942 H 0.55385 0.27314 0.55406 0.0
H943 H 0.56986 0.29229 0.65319 0.0
C944 C 0.32672 0.1066 0.56925 0.0
C945 C 0.33821 0.12886 0.51345 0.0
C946 C 0.36907 0.13825 0.66086 0.0
C947 C 0.35667 0.11713 0.72136 0.0
N948 N 0.31905 0.08481 0.73919 0.0
N949 N 0.36366 0.17062 0.51691 0.0
C950 C 0.33408 0.10231 0.67777 0.0
C951 C 0.35681 0.14653 0.56437 0.0
N952 N 0.31006 0.08864 0.51701 0.0
N953 N 0.39342 0.14935 0.6925 0.0
H954 H 0.35483 0.17674 0.4448 0.0
H955 H 0.3757 0.18535 0.55415 0.0
H956 H 0.40428 0.14222 0.75868 0.0
H957 H 0.40434 0.16329 0.64617 0.0
H958 H 0.30421 0.06995 0.54919 0.0
H959 H 0.30319 0.09189 0.43903 0.0
H960 H 0.30031 0.07682 0.71472 0.0
H961 H 0.3242 0.07932 0.81657 0.0
C962 C 0.09799 0.65252 0.39483 0.0
C963 C 0.09698 0.63135 0.47124 0.0
C964 C 0.08767 0.59778 0.33057 0.0
C965 C 0.08995 0.61879 0.25438 0.0
N966 N 0.08683 0.66644 0.21432 0.0
N967 N 0.08052 0.58635 0.51718 0.0
C968 C 0.09143 0.64633 0.28718 0.0
C969 C 0.08841 0.6047 0.4408 0.0
N970 N 0.10685 0.67791 0.42304 0.0
N971 N 0.08609 0.57132 0.2978 0.0
H972 H 0.07958 0.59125 0.5985 0.0
H973 H 0.07215 0.5674 0.49904 0.0
H974 H 0.08455 0.56594 0.21713 0.0
H975 H 0.08765 0.55486 0.35001 0.0
H976 H 0.11092 0.69324 0.36755 0.0
H977 H 0.11216 0.68315 0.50119 0.0
H978 H 0.08551 0.68681 0.23568 0.0
H979 H 0.08135 0.66227 0.13518 0.0
C980 C 0.66271 0.88757 0.56069 0.0
C981 C 0.65068 0.86602 0.50286 0.0
C982 C 0.6194 0.85633 0.64952 0.0
C983 C 0.63224 0.87683 0.71165 0.0
N984 N 0.6698 0.90925 0.73087 0.0
N985 N 0.62353 0.8253 0.50005 0.0
C986 C 0.65501 0.89169 0.66898 0.0
C987 C 0.63127 0.84865 0.55115 0.0
N988 N 0.68018 0.90517 0.51017 0.0
N989 N 0.59502 0.84532 0.68176 0.0
H990 H 0.63205 0.81959 0.42664 0.0
H991 H 0.61097 0.81062 0.53506 0.0
H992 H 0.5846 0.85195 0.75004 0.0
H993 H 0.58365 0.83195 0.63467 0.0
H994 H 0.68649 0.92359 0.54334 0.0
H995 H 0.68732 0.90194 0.43239 0.0
H996 H 0.68898 0.91664 0.70842 0.0
H997 H 0.66372 0.91599 0.80577 0.0
C998 C 0.91253 0.35587 0.33338 0.0
C999 C 0.89171 0.37114 0.28162 0.0
C1000 C 0.86117 0.36414 0.43267 0.0
C1001 C 0.88252 0.35127 0.48948 0.0
N1002 N 0.93076 0.3404 0.50233 0.0
N1003 N 0.85018 0.39716 0.2967 0.0
C1004 C 0.90891 0.34863 0.44254 0.0
C1005 C 0.86742 0.37788 0.33705 0.0
N1006 N 0.935 0.34697 0.27825 0.0
N1007 N 0.83489 0.36306 0.47022 0.0
H1008 H 0.85482 0.40801 0.22699 0.0
H1009 H 0.83305 0.40422 0.33815 0.0
H1010 H 0.82956 0.3522 0.53911 0.0
H1011 H 0.81825 0.37045 0.42709 0.0
H1012 H 0.94867 0.33282 0.30959 0.0
H1013 H 0.93921 0.35216 0.19916 0.0
H1014 H 0.9509 0.34158 0.47489 0.0
H1015 H 0.92914 0.33426 0.58181 0.0
C1016 C 0.35936 0.40877 0.53582 0.0
C1017 C 0.35385 0.38693 0.46487 0.0
C1018 C 0.3292 0.36275 0.60718 0.0
C1019 C 0.33486 0.38461 0.67673 0.0
N1020 N 0.34532 0.43213 0.69761 0.0
N1021 N 0.32329 0.34932 0.42319 0.0
C1022 C 0.34611 0.4091 0.63642 0.0
C1023 C 0.33559 0.36571 0.49715 0.0
N1024 N 0.37854 0.42805 0.51117 0.0
N1025 N 0.31894 0.33888 0.64622 0.0
H1026 H 0.325 0.35251 0.34096 0.0
H1027 H 0.30857 0.33485 0.44363 0.0
H1028 H 0.31306 0.33645 0.72602 0.0
H1029 H 0.31767 0.32119 0.60029 0.0
H1030 H 0.38477 0.44298 0.56521 0.0
H1031 H 0.39044 0.42741 0.44178 0.0
H1032 H 0.35162 0.45111 0.66958 0.0
H1033 H 0.33567 0.43243 0.7724 0.0
C1034 C 0.40934 0.63168 0.29796 0.0
C1035 C 0.39354 0.65369 0.25925 0.0
C1036 C 0.37227 0.65998 0.4331 0.0
C1037 C 0.38753 0.6373 0.47389 0.0
N1038 N 0.42246 0.60301 0.44704 0.0
N1039 N 0.36841 0.69441 0.29456 0.0
C1040 C 0.40705 0.62391 0.40731 0.0
C1041 C 0.37805 0.66985 0.329 0.0
N1042 N 0.42536 0.61742 0.22758 0.0
N1043 N 0.35111 0.67128 0.48941 0.0
H1044 H 0.37229 0.7017 0.21749 0.0
H1045 H 0.35949 0.70873 0.34534 0.0
H1046 H 0.34407 0.66443 0.56275 0.0
H1047 H 0.33801 0.68587 0.45758 0.0
H1048 H 0.435 0.59912 0.24521 0.0
H1049 H 0.4285 0.62387 0.14876 0.0
H1050 H 0.43937 0.59486 0.40782 0.0
H1051 H 0.41869 0.5938 0.5208 0.0
C1052 C 0.66861 0.59551 0.61413 0.0
C1053 C 0.66094 0.61937 0.66943 0.0
C1054 C 0.63067 0.63237 0.52444 0.0
C1055 C 0.63921 0.6094 0.46387 0.0
N1056 N 0.67122 0.57147 0.44632 0.0
N1057 N 0.6425 0.66437 0.66411 0.0
C1058 C 0.65969 0.59161 0.50679 0.0
C1059 C 0.64496 0.63927 0.6186 0.0
N1060 N 0.6832 0.57593 0.66646 0.0
N1061 N 0.60782 0.64662 0.49591 0.0
H1062 H 0.65331 0.66943 0.7333 0.0
H1063 H 0.63246 0.68053 0.62714 0.0
H1064 H 0.5951 0.64062 0.43316 0.0
H1065 H 0.59969 0.66226 0.54252 0.0
H1066 H 0.68623 0.55638 0.63633 0.0
H1067 H 0.69119 0.57904 0.74299 0.0
H1068 H 0.68865 0.56091 0.46993 0.0
H1069 H 0.66465 0.5659 0.37062 0.0
C1070 C 0.58456 0.37051 0.37872 0.0
C1071 C 0.60496 0.35824 0.44426 0.0
C1072 C 0.61501 0.32552 0.29991 0.0
C1073 C 0.59861 0.34078 0.23059 0.0
N1074 N 0.5652 0.37559 0.20027 0.0
N1075 N 0.64283 0.32581 0.45761 0.0
C1076 C 0.58209 0.36224 0.26989 0.0
C1077 C 0.62092 0.33603 0.40298 0.0
N1078 N 0.56846 0.3909 0.41873 0.0
N1079 N 0.6254 0.30121 0.26592 0.0
H1080 H 0.65631 0.31162 0.42515 0.0
H1081 H 0.65002 0.33326 0.52969 0.0
H1082 H 0.62138 0.29348 0.18967 0.0
H1083 H 0.63512 0.28744 0.31661 0.0
H1084 H 0.55102 0.39814 0.38072 0.0
H1085 H 0.57222 0.40059 0.49148 0.0
H1086 H 0.55485 0.39352 0.2179 0.0
H1087 H 0.56206 0.36875 0.12201 0.0
C1088 C 0.81861 0.59833 0.08409 0.0
C1089 C 0.82735 0.622 0.02986 0.0
C1090 C 0.85777 0.63348 0.17656 0.0
C1091 C 0.84826 0.61065 0.23599 0.0
N1092 N 0.81396 0.57464 0.2519 0.0
N1093 N 0.84711 0.66646 0.03917 0.0
C1094 C 0.82692 0.59401 0.19195 0.0
C1095 C 0.84376 0.64125 0.08282 0.0
N1096 N 0.80357 0.57927 0.03048 0.0
N1097 N 0.88132 0.64665 0.20501 0.0
H1098 H 0.83658 0.67211 0.97008 0.0
H1099 H 0.85759 0.68214 0.07768 0.0
H1100 H 0.89405 0.63976 0.26622 0.0
H1101 H 0.88998 0.66216 0.15911 0.0
H1102 H 0.79977 0.55981 0.06023 0.0
H1103 H 0.79604 0.58267 0.95346 0.0
H1104 H 0.7962 0.56482 0.22669 0.0
H1105 H 0.81946 0.5694 0.32916 0.0
C1106 C 0.59683 0.15358 0.7444 0.0
C1107 C 0.59334 0.12624 0.71136 0.0
C1108 C 0.59227 0.11173 0.89703 0.0
C1109 C 0.60267 0.13778 0.92758 0.0
N1110 N 0.61593 0.18356 0.87826 0.0
N1111 N 0.58701 0.07897 0.7533 0.0
C1112 C 0.60473 0.15901 0.85127 0.0
C1113 C 0.59039 0.10521 0.78689 0.0
N1114 N 0.59292 0.17417 0.67265 0.0
N1115 N 0.58369 0.09352 0.97292 0.0
H1116 H 0.58439 0.07391 0.67272 0.0
H1117 H 0.58819 0.06227 0.80449 0.0
H1118 H 0.58363 0.09781 0.05475 0.0
H1119 H 0.57382 0.07533 0.95425 0.0
H1120 H 0.59313 0.19467 0.69391 0.0
H1121 H 0.58645 0.17043 0.59433 0.0
H1122 H 0.62048 0.19862 0.82222 0.0
H1123 H 0.62291 0.18812 0.95501 0.0
C1124 C 0.1544 0.35343 0.18108 0.0
C1125 C 0.13543 0.37397 0.21351 0.0
C1126 C 0.14149 0.39595 0.04062 0.0
C1127 C 0.15398 0.37203 0.00109 0.0
N1128 N 0.17198 0.32719 0.03181 0.0
N1129 N 0.10858 0.4136 0.16672 0.0
C1130 C 0.16067 0.35057 0.07088 0.0
C1131 C 0.12858 0.39523 0.14179 0.0
N1132 N 0.16752 0.33766 0.25495 0.0
N1133 N 0.14112 0.41886 -0.02118 0.0
H1134 H 0.09702 0.41257 0.23691 0.0
H1135 H 0.10143 0.42801 0.11238 0.0
H1136 H 0.15086 0.41958 0.90427 0.0
H1137 H 0.13386 0.43755 0.00629 0.0
H1138 H 0.18273 0.32377 0.23425 0.0
H1139 H 0.16589 0.34081 0.33724 0.0
H1140 H 0.17418 0.30963 0.07781 0.0
H1141 H 0.17777 0.32503 0.95173 0.0
C1142 C 0.40659 0.85234 0.92046 0.0
C1143 C 0.38239 0.86193 0.97138 0.0
C1144 C 0.37376 0.89192 0.82051 0.0
C1145 C 0.3947 0.87893 0.76181 0.0
N1146 N 0.42845 0.84283 0.75105 0.0
N1147 N 0.33915 0.8854 0.95555 0.0
C1148 C 0.41064 0.85813 0.81024 0.0
C1149 C 0.36478 0.88009 0.91682 0.0
N1150 N 0.42623 0.83879 -0.02318 0.0
N1151 N 0.36197 0.91512 0.78214 0.0
H1152 H 0.33119 0.87563 0.02309 0.0
H1153 H 0.32488 0.89701 0.91378 0.0
H1154 H 0.36864 0.92438 0.71139 0.0
H1155 H 0.34779 0.92642 0.82605 0.0
H1156 H 0.44541 0.83425 0.94465 0.0
H1157 H 0.42455 0.83421 0.0579 0.0
H1158 H 0.43777 0.82536 0.78102 0.0
H1159 H 0.43254 0.84626 0.67032 0.0
C1160 C 0.85481 0.8954 0.16615 0.0
C1161 C 0.84139 0.87189 0.20475 0.0
C1162 C 0.8413 0.85321 0.0248 0.0
C1163 C 0.86098 0.87326 -0.0063 0.0
N1164 N 0.88883 0.91212 0.04247 0.0
N1165 N 0.8222 0.82756 0.17295 0.0
C1166 C 0.86823 0.89426 0.06615 0.0
C1167 C 0.83447 0.85056 0.13458 0.0
N1168 N 0.85523 0.91844 0.22716 0.0
N1169 N 0.82791 0.8379 0.95003 0.0
H1170 H 0.81596 0.8257 0.25267 0.0
H1171 H 0.8196 0.81007 0.12679 0.0
H1172 H 0.83004 0.84099 0.86791 0.0
H1173 H 0.81207 0.82456 0.96962 0.0
H1174 H 0.86337 0.93685 0.20041 0.0
H1175 H 0.84446 0.91961 0.29939 0.0
H1176 H 0.89619 0.92633 0.09737 0.0
H1177 H 0.90057 0.91081 0.97275 0.0
C1178 C 0.87036 0.09946 0.89651 0.0
C1179 C 0.89377 0.10882 0.95117 0.0
C1180 C 0.90976 0.13111 0.78747 0.0
C1181 C 0.88372 0.1262 0.74038 0.0
N1182 N 0.83728 0.10979 0.75967 0.0
N1183 N 0.93539 0.13541 0.95212 0.0
C1184 C 0.86347 0.11137 0.79752 0.0
C1185 C 0.91362 0.12491 0.89743 0.0
N1186 N 0.85431 0.07979 0.9418 0.0
N1187 N 0.9311 0.14059 0.72716 0.0
H1188 H 0.93964 0.1305 0.03151 0.0
H1189 H 0.94835 0.1502 0.92015 0.0
H1190 H 0.92944 0.1452 0.64618 0.0
H1191 H 0.95113 0.14152 0.75536 0.0
H1192 H 0.83802 0.07061 0.90188 0.0
H1193 H 0.85928 0.07082 0.01511 0.0
H1194 H 0.82126 0.10109 0.80306 0.0
H1195 H 0.83092 0.11984 0.69045 0.0
C1196 C 0.12799 0.0824 0.0676 0.0
C1197 C 0.13666 0.10287 -0.00477 0.0
C1198 C 0.16289 0.12516 0.13724 0.0
C1199 C 0.1539 0.1048 0.20853 0.0
N1200 N 0.13774 0.05901 0.23371 0.0
N1201 N 0.1717 0.13635 0.95236 0.0
C1202 C 0.14006 0.08149 0.17005 0.0
C1203 C 0.15706 0.12206 0.02697 0.0
N1204 N 0.10711 0.06506 0.04197 0.0
N1205 N 0.1758 0.14788 0.17474 0.0
H1206 H 0.16984 0.13303 0.87024 0.0
H1207 H 0.18807 0.14895 0.97242 0.0
H1208 H 0.18115 0.15028 0.25504 0.0
H1209 H 0.17981 0.16481 0.1269 0.0
H1210 H 0.0986 0.05143 0.0967 0.0
H1211 H 0.09634 0.06617 0.97013 0.0
H1212 H 0.12941 0.04067 0.20729 0.0
H1213 H 0.14696 0.05812 0.30901 0.0
C1214 C 0.0884 0.83077 0.79484 0.0
C1215 C 0.11413 0.83017 0.742 0.0
C1216 C 0.13666 0.84777 0.9005 0.0
C1217 C 0.11134 0.84708 0.95638 0.0
N1218 N 0.06464 0.83065 0.96513 0.0
N1219 N 0.16317 0.82966 0.75311 0.0
C1220 C 0.08756 0.83641 0.90633 0.0
C1221 C 0.13843 0.83554 0.79873 0.0
N1222 N 0.06477 0.82741 0.73815 0.0
N1223 N 0.15865 0.86131 0.94237 0.0
H1224 H 0.16469 0.82053 0.6777 0.0
H1225 H 0.18163 0.83119 0.79428 0.0
H1226 H 0.15768 0.87216 0.01417 0.0
H1227 H 0.17686 0.86429 0.90028 0.0
H1228 H 0.04545 0.83116 0.77051 0.0
H1229 H 0.06451 0.82231 0.65711 0.0
H1230 H 0.04787 0.82029 0.93368 0.0
H1231 H 0.06328 0.83396 0.04745 0.0
loop_
_geom_bond_atom_site_label_1
_geom_bond_atom_site_label_2
_geom_bond_distance
_geom_bond_site_symmetry_2
_ccdc_geom_bond_type
O0 Zn1 1.953 1_556 S
O0 C16 1.225 . S
Zn1 O0 1.953 1_554 S
Zn1 O2 1.949 . S
Zn1 O8 1.919 . S
Zn1 O13 1.924 . S
O2 Zn1 1.949 . S
O2 Zn3 1.923 . S
O2 Zn4 1.950 . S
O2 Zn5 1.945 . S
Zn3 O2 1.923 . S
Zn3 O6 1.933 . S
Zn3 O9 1.941 . S
Zn3 O10 1.965 . S
Zn4 O2 1.950 . S
Zn4 O11 1.938 . S
Zn4 O12 1.906 . S
Zn4 O22 1.953 1_554 S
Zn5 O2 1.945 . S
Zn5 O7 1.932 . S
Zn5 O14 1.977 . S
Zn5 O15 1.910 . S
O6 Zn3 1.933 . S
O6 C17 1.226 . S
O7 Zn5 1.932 . S
O7 C17 1.307 . S
O8 Zn1 1.919 . S
O8 C19 1.253 . S
O9 Zn3 1.941 . S
O9 C19 1.283 . S
O10 Zn3 1.965 . S
O10 C18 1.303 . S
O11 Zn4 1.938 . S
O11 C18 1.247 . S
O12 Zn4 1.906 . S
O12 C20 1.304 . S
O13 Zn1 1.924 . S
O13 C21 1.311 . S
O14 Zn5 1.977 . S
O14 C20 1.272 . S
O15 Zn5 1.910 . S
O15 C21 1.231 . S
C16 O0 1.225 . S
C16 O22 1.298 . S
C17 O6 1.226 . S
C17 O7 1.307 . S
C18 O10 1.303 . S
C18 O11 1.247 . S
C19 O8 1.253 . S
C19 O9 1.283 . S
C20 O12 1.304 . S
C20 O14 1.272 . S
C21 O13 1.311 . S
C21 O15 1.231 . S
O22 Zn4 1.953 1_556 S
O22 C16 1.298 . S
O23 Zn24 1.953 1_554 S
O23 C39 1.225 . S
Zn24 O23 1.953 1_556 S
Zn24 O25 1.949 . S
Zn24 O31 1.919 . S
Zn24 O36 1.924 . S
O25 Zn24 1.949 . S
O25 Zn26 1.923 . S
O25 Zn27 1.950 . S
O25 Zn28 1.945 . S
Zn26 O25 1.923 . S
Zn26 O29 1.933 . S
Zn26 O32 1.941 . S
Zn26 O33 1.965 . S
Zn27 O25 1.950 . S
Zn27 O34 1.938 1_556 S
Zn27 O35 1.906 . S
Zn27 O45 1.953 1_556 S
Zn28 O25 1.945 . S
Zn28 O30 1.932 . S
Zn28 O37 1.977 . S
Zn28 O38 1.910 . S
O29 Zn26 1.933 . S
O29 C40 1.226 . S
O30 Zn28 1.932 . S
O30 C40 1.307 . S
O31 Zn24 1.919 . S
O31 C42 1.253 . S
O32 Zn26 1.941 . S
O32 C42 1.283 . S
O33 Zn26 1.965 . S
O33 C41 1.303 . S
O34 Zn27 1.938 1_554 S
O34 C41 1.247 1_554 S
O35 Zn27 1.906 . S
O35 C43 1.304 . S
O36 Zn24 1.924 . S
O36 C44 1.311 . S
O37 Zn28 1.977 . S
O37 C43 1.272 . S
O38 Zn28 1.910 . S
O38 C44 1.231 . S
C39 O23 1.225 . S
C39 O45 1.298 . S
C40 O29 1.226 . S
C40 O30 1.307 . S
C41 O33 1.303 . S
C41 O34 1.247 1_556 S
C42 O31 1.253 . S
C42 O32 1.283 . S
C43 O35 1.304 . S
C43 O37 1.272 . S
C44 O36 1.311 . S
C44 O38 1.231 . S
O45 Zn27 1.953 1_554 S
O45 C39 1.298 . S
O46 Zn47 1.953 1_556 S
O46 C62 1.225 . S
Zn47 O46 1.953 1_554 S
Zn47 O48 1.949 . S
Zn47 O54 1.919 . S
Zn47 O59 1.924 . S
O48 Zn47 1.949 . S
O48 Zn49 1.923 . S
O48 Zn50 1.950 . S
O48 Zn51 1.945 . S
Zn49 O48 1.923 . S
Zn49 O52 1.933 . S
Zn49 O55 1.941 . S
Zn49 O56 1.965 . S
Zn50 O48 1.950 . S
Zn50 O57 1.938 . S
Zn50 O58 1.906 . S
Zn50 O68 1.953 1_554 S
Zn51 O48 1.945 . S
Zn51 O53 1.932 . S
Zn51 O60 1.977 . S
Zn51 O61 1.910 . S
O52 Zn49 1.933 . S
O52 C63 1.226 . S
O53 Zn51 1.932 . S
O53 C63 1.307 . S
O54 Zn47 1.919 . S
O54 C65 1.253 . S
O55 Zn49 1.941 . S
O55 C65 1.283 . S
O56 Zn49 1.965 . S
O56 C64 1.303 . S
O57 Zn50 1.938 . S
O57 C64 1.247 . S
O58 Zn50 1.906 . S
O58 C66 1.304 . S
O59 Zn47 1.924 . S
O59 C67 1.311 . S
O60 Zn51 1.977 . S
O60 C66 1.272 . S
O61 Zn51 1.910 . S
O61 C67 1.231 . S
C62 O46 1.225 . S
C62 O68 1.298 . S
C63 O52 1.226 . S
C63 O53 1.307 . S
C64 O56 1.303 . S
C64 O57 1.247 . S
C65 O54 1.253 . S
C65 O55 1.283 . S
C66 O58 1.304 . S
C66 O60 1.272 . S
C67 O59 1.311 . S
C67 O61 1.231 . S
O68 Zn50 1.953 1_556 S
O68 C62 1.298 . S
O69 Zn70 1.953 1_554 S
O69 C85 1.225 . S
Zn70 O69 1.953 1_556 S
Zn70 O71 1.949 . S
Zn70 O77 1.919 . S
Zn70 O82 1.924 . S
O71 Zn70 1.949 . S
O71 Zn72 1.923 . S
O71 Zn73 1.950 . S
O71 Zn74 1.945 . S
Zn72 O71 1.923 . S
Zn72 O75 1.933 . S
Zn72 O78 1.941 . S
Zn72 O79 1.965 . S
Zn73 O71 1.950 . S
Zn73 O80 1.938 1_556 S
Zn73 O81 1.906 . S
Zn73 O91 1.953 1_556 S
Zn74 O71 1.945 . S
Zn74 O76 1.932 . S
Zn74 O83 1.977 . S
Zn74 O84 1.910 . S
O75 Zn72 1.933 . S
O75 C86 1.226 . S
O76 Zn74 1.932 . S
O76 C86 1.307 . S
O77 Zn70 1.919 . S
O77 C88 1.253 . S
O78 Zn72 1.941 . S
O78 C88 1.283 . S
O79 Zn72 1.965 . S
O79 C87 1.303 . S
O80 Zn73 1.938 1_554 S
O80 C87 1.247 1_554 S
O81 Zn73 1.906 . S
O81 C89 1.304 . S
O82 Zn70 1.924 . S
O82 C90 1.311 . S
O83 Zn74 1.977 . S
O83 C89 1.272 . S
O84 Zn74 1.910 . S
O84 C90 1.231 . S
C85 O69 1.225 . S
C85 O91 1.298 . S
C86 O75 1.226 . S
C86 O76 1.307 . S
C87 O79 1.303 . S
C87 O80 1.247 1_556 S
C88 O77 1.253 . S
C88 O78 1.283 . S
C89 O81 1.304 . S
C89 O83 1.272 . S
C90 O82 1.311 . S
C90 O84 1.231 . S
O91 Zn73 1.953 1_554 S
O91 C85 1.298 . S
O92 Zn93 1.953 . S
O92 C108 1.225 . S
Zn93 O92 1.953 . S
Zn93 O94 1.949 . S
Zn93 O100 1.919 . S
Zn93 O105 1.924 . S
O94 Zn93 1.949 . S
O94 Zn95 1.923 . S
O94 Zn96 1.950 . S
O94 Zn97 1.945 1_554 S
Zn95 O94 1.923 . S
Zn95 O98 1.933 1_554 S
Zn95 O101 1.941 . S
Zn95 O102 1.965 . S
Zn96 O94 1.950 . S
Zn96 O103 1.938 . S
Zn96 O104 1.906 . S
Zn96 O114 1.953 . S
Zn97 O94 1.945 1_556 S
Zn97 O99 1.932 . S
Zn97 O106 1.977 1_556 S
Zn97 O107 1.910 1_556 S
O98 Zn95 1.933 1_556 S
O98 C109 1.226 . S
O99 Zn97 1.932 . S
O99 C109 1.307 . S
O100 Zn93 1.919 . S
O100 C111 1.253 . S
O101 Zn95 1.941 . S
O101 C111 1.283 . S
O102 Zn95 1.965 . S
O102 C110 1.303 . S
O103 Zn96 1.938 . S
O103 C110 1.247 . S
O104 Zn96 1.906 . S
O104 C112 1.304 . S
O105 Zn93 1.924 . S
O105 C113 1.311 . S
O106 Zn97 1.977 1_554 S
O106 C112 1.272 . S
O107 Zn97 1.910 1_554 S
O107 C113 1.231 . S
C108 O92 1.225 . S
C108 O114 1.298 . S
C109 O98 1.226 . S
C109 O99 1.307 . S
C110 O102 1.303 . S
C110 O103 1.247 . S
C111 O100 1.253 . S
C111 O101 1.283 . S
C112 O104 1.304 . S
C112 O106 1.272 . S
C113 O105 1.311 . S
C113 O107 1.231 . S
O114 Zn96 1.953 . S
O114 C108 1.298 . S
O115 Zn116 1.953 . S
O115 C131 1.225 . S
Zn116 O115 1.953 . S
Zn116 O117 1.949 . S
Zn116 O123 1.919 . S
Zn116 O128 1.924 . S
O117 Zn116 1.949 . S
O117 Zn118 1.923 . S
O117 Zn119 1.950 . S
O117 Zn120 1.945 . S
Zn118 O117 1.923 . S
Zn118 O121 1.933 1_556 S
Zn118 O124 1.941 . S
Zn118 O125 1.965 . S
Zn119 O117 1.950 . S
Zn119 O126 1.938 . S
Zn119 O127 1.906 . S
Zn119 O137 1.953 . S
Zn120 O117 1.945 . S
Zn120 O122 1.932 1_556 S
Zn120 O129 1.977 . S
Zn120 O130 1.910 . S
O121 Zn118 1.933 1_554 S
O121 C132 1.226 . S
O122 Zn120 1.932 1_554 S
O122 C132 1.307 . S
O123 Zn116 1.919 . S
O123 C134 1.253 . S
O124 Zn118 1.941 . S
O124 C134 1.283 . S
O125 Zn118 1.965 . S
O125 C133 1.303 . S
O126 Zn119 1.938 . S
O126 C133 1.247 . S
O127 Zn119 1.906 . S
O127 C135 1.304 . S
O128 Zn116 1.924 . S
O128 C136 1.311 . S
O129 Zn120 1.977 . S
O129 C135 1.272 . S
O130 Zn120 1.910 . S
O130 C136 1.231 . S
C131 O115 1.225 . S
C131 O137 1.298 . S
C132 O121 1.226 . S
C132 O122 1.307 . S
C133 O125 1.303 . S
C133 O126 1.247 . S
C134 O123 1.253 . S
C134 O124 1.283 . S
C135 O127 1.304 . S
C135 O129 1.272 . S
C136 O128 1.311 . S
C136 O130 1.231 . S
O137 Zn119 1.953 . S
O137 C131 1.298 . S
O138 Zn139 1.953 . S
O138 C154 1.225 . S
Zn139 O138 1.953 . S
Zn139 O140 1.949 . S
Zn139 O146 1.919 . S
Zn139 O151 1.924 . S
O140 Zn139 1.949 . S
O140 Zn141 1.923 . S
O140 Zn142 1.950 . S
O140 Zn143 1.945 1_554 S
Zn141 O140 1.923 . S
Zn141 O144 1.933 1_554 S
Zn141 O147 1.941 . S
Zn141 O148 1.965 . S
Zn142 O140 1.950 . S
Zn142 O149 1.938 . S
Zn142 O150 1.906 . S
Zn142 O160 1.953 . S
Zn143 O140 1.945 1_556 S
Zn143 O145 1.932 . S
Zn143 O152 1.977 1_556 S
Zn143 O153 1.910 1_556 S
O144 Zn141 1.933 1_556 S
O144 C155 1.226 . S
O145 Zn143 1.932 . S
O145 C155 1.307 . S
O146 Zn139 1.919 . S
O146 C157 1.253 . S
O147 Zn141 1.941 . S
O147 C157 1.283 . S
O148 Zn141 1.965 . S
O148 C156 1.303 . S
O149 Zn142 1.938 . S
O149 C156 1.247 . S
O150 Zn142 1.906 . S
O150 C158 1.304 . S
O151 Zn139 1.924 . S
O151 C159 1.311 . S
O152 Zn143 1.977 1_554 S
O152 C158 1.272 . S
O153 Zn143 1.910 1_554 S
O153 C159 1.231 . S
C154 O138 1.225 . S
C154 O160 1.298 . S
C155 O144 1.226 . S
C155 O145 1.307 . S
C156 O148 1.303 . S
C156 O149 1.247 . S
C157 O146 1.253 . S
C157 O147 1.283 . S
C158 O150 1.304 . S
C158 O152 1.272 . S
C159 O151 1.311 . S
C159 O153 1.231 . S
O160 Zn142 1.953 . S
O160 C154 1.298 . S
O161 Zn162 1.953 . S
O161 C177 1.225 . S
Zn162 O161 1.953 . S
Zn162 O163 1.949 . S
Zn162 O169 1.919 . S
Zn162 O174 1.924 . S
O163 Zn162 1.949 . S
O163 Zn164 1.923 . S
O163 Zn165 1.950 . S
O163 Zn166 1.945 . S
Zn164 O163 1.923 . S
Zn164 O167 1.933 1_556 S
Zn164 O170 1.941 . S
Zn164 O171 1.965 . S
Zn165 O163 1.950 . S
Zn165 O172 1.938 . S
Zn165 O173 1.906 . S
Zn165 O183 1.953 . S
Zn166 O163 1.945 . S
Zn166 O168 1.932 1_556 S
Zn166 O175 1.977 . S
Zn166 O176 1.910 . S
O167 Zn164 1.933 1_554 S
O167 C178 1.226 . S
O168 Zn166 1.932 1_554 S
O168 C178 1.307 . S
O169 Zn162 1.919 . S
O169 C180 1.253 . S
O170 Zn164 1.941 . S
O170 C180 1.283 . S
O171 Zn164 1.965 . S
O171 C179 1.303 . S
O172 Zn165 1.938 . S
O172 C179 1.247 . S
O173 Zn165 1.906 . S
O173 C181 1.304 . S
O174 Zn162 1.924 . S
O174 C182 1.311 . S
O175 Zn166 1.977 . S
O175 C181 1.272 . S
O176 Zn166 1.910 . S
O176 C182 1.231 . S
C177 O161 1.225 . S
C177 O183 1.298 . S
C178 O167 1.226 . S
C178 O168 1.307 . S
C179 O171 1.303 . S
C179 O172 1.247 . S
C180 O169 1.253 . S
C180 O170 1.283 . S
C181 O173 1.304 . S
C181 O175 1.272 . S
C182 O174 1.311 . S
C182 O176 1.231 . S
O183 Zn165 1.953 . S
O183 C177 1.298 . S
O184 Zn185 1.953 . S
O184 C200 1.225 . S
Zn185 O184 1.953 . S
Zn185 O186 1.949 . S
Zn185 O192 1.919 . S
Zn185 O197 1.924 . S
O186 Zn185 1.949 . S
O186 Zn187 1.923 . S
O186 Zn188 1.950 . S
O186 Zn189 1.945 . S
Zn187 O186 1.923 . S
Zn187 O190 1.933 . S
Zn187 O193 1.941 . S
Zn187 O194 1.965 . S
Zn188 O186 1.950 . S
Zn188 O195 1.938 . S
Zn188 O196 1.906 . S
Zn188 O206 1.953 . S
Zn189 O186 1.945 . S
Zn189 O191 1.932 . S
Zn189 O198 1.977 . S
Zn189 O199 1.910 . S
O190 Zn187 1.933 . S
O190 C201 1.226 . S
O191 Zn189 1.932 . S
O191 C201 1.307 . S
O192 Zn185 1.919 . S
O192 C203 1.253 . S
O193 Zn187 1.941 . S
O193 C203 1.283 . S
O194 Zn187 1.965 . S
O194 C202 1.303 . S
O195 Zn188 1.938 . S
O195 C202 1.247 . S
O196 Zn188 1.906 . S
O196 C204 1.304 . S
O197 Zn185 1.924 . S
O197 C205 1.311 . S
O198 Zn189 1.977 . S
O198 C204 1.272 . S
O199 Zn189 1.910 . S
O199 C205 1.231 . S
C200 O184 1.225 . S
C200 O206 1.298 . S
C201 O190 1.226 . S
C201 O191 1.307 . S
C202 O194 1.303 . S
C202 O195 1.247 . S
C203 O192 1.253 . S
C203 O193 1.283 . S
C204 O196 1.304 . S
C204 O198 1.272 . S
C205 O197 1.311 . S
C205 O199 1.231 . S
O206 Zn188 1.953 . S
O206 C200 1.298 . S
O207 Zn208 1.953 . S
O207 C223 1.225 . S
Zn208 O207 1.953 . S
Zn208 O209 1.949 . S
Zn208 O215 1.919 . S
Zn208 O220 1.924 . S
O209 Zn208 1.949 . S
O209 Zn210 1.923 . S
O209 Zn211 1.950 . S
O209 Zn212 1.945 . S
Zn210 O209 1.923 . S
Zn210 O213 1.933 . S
Zn210 O216 1.941 . S
Zn210 O217 1.965 . S
Zn211 O209 1.950 . S
Zn211 O218 1.938 . S
Zn211 O219 1.906 . S
Zn211 O229 1.953 . S
Zn212 O209 1.945 . S
Zn212 O214 1.932 . S
Zn212 O221 1.977 . S
Zn212 O222 1.910 . S
O213 Zn210 1.933 . S
O213 C224 1.226 . S
O214 Zn212 1.932 . S
O214 C224 1.307 . S
O215 Zn208 1.919 . S
O215 C226 1.253 . S
O216 Zn210 1.941 . S
O216 C226 1.283 . S
O217 Zn210 1.965 . S
O217 C225 1.303 . S
O218 Zn211 1.938 . S
O218 C225 1.247 . S
O219 Zn211 1.906 . S
O219 C227 1.304 . S
O220 Zn208 1.924 . S
O220 C228 1.311 . S
O221 Zn212 1.977 . S
O221 C227 1.272 . S
O222 Zn212 1.910 . S
O222 C228 1.231 . S
C223 O207 1.225 . S
C223 O229 1.298 . S
C224 O213 1.226 . S
C224 O214 1.307 . S
C225 O217 1.303 . S
C225 O218 1.247 . S
C226 O215 1.253 . S
C226 O216 1.283 . S
C227 O219 1.304 . S
C227 O221 1.272 . S
C228 O220 1.311 . S
C228 O222 1.231 . S
O229 Zn211 1.953 . S
O229 C223 1.298 . S
O230 Zn231 1.953 . S
O230 C246 1.225 . S
Zn231 O230 1.953 . S
Zn231 O232 1.949 . S
Zn231 O238 1.919 . S
Zn231 O243 1.924 . S
O232 Zn231 1.949 . S
O232 Zn233 1.923 . S
O232 Zn234 1.950 . S
O232 Zn235 1.945 . S
Zn233 O232 1.923 . S
Zn233 O236 1.933 . S
Zn233 O239 1.941 . S
Zn233 O240 1.965 . S
Zn234 O232 1.950 . S
Zn234 O241 1.938 . S
Zn234 O242 1.906 . S
Zn234 O252 1.953 . S
Zn235 O232 1.945 . S
Zn235 O237 1.932 . S
Zn235 O244 1.977 . S
Zn235 O245 1.910 . S
O236 Zn233 1.933 . S
O236 C247 1.226 . S
O237 Zn235 1.932 . S
O237 C247 1.307 . S
O238 Zn231 1.919 . S
O238 C249 1.253 . S
O239 Zn233 1.941 . S
O239 C249 1.283 . S
O240 Zn233 1.965 . S
O240 C248 1.303 . S
O241 Zn234 1.938 . S
O241 C248 1.247 . S
O242 Zn234 1.906 . S
O242 C250 1.304 . S
O243 Zn231 1.924 . S
O243 C251 1.311 . S
O244 Zn235 1.977 . S
O244 C250 1.272 . S
O245 Zn235 1.910 . S
O245 C251 1.231 . S
C246 O230 1.225 . S
C246 O252 1.298 . S
C247 O236 1.226 . S
C247 O237 1.307 . S
C248 O240 1.303 . S
C248 O241 1.247 . S
C249 O238 1.253 . S
C249 O239 1.283 . S
C250 O242 1.304 . S
C250 O244 1.272 . S
C251 O243 1.311 . S
C251 O245 1.231 . S
O252 Zn234 1.953 . S
O252 C246 1.298 . S
O253 Zn254 1.953 . S
O253 C269 1.225 . S
Zn254 O253 1.953 . S
Zn254 O255 1.949 . S
Zn254 O261 1.919 . S
Zn254 O266 1.924 . S
O255 Zn254 1.949 . S
O255 Zn256 1.923 . S
O255 Zn257 1.950 . S
O255 Zn258 1.945 . S
Zn256 O255 1.923 . S
Zn256 O259 1.933 . S
Zn256 O262 1.941 . S
Zn256 O263 1.965 . S
Zn257 O255 1.950 . S
Zn257 O264 1.938 . S
Zn257 O265 1.906 . S
Zn257 O275 1.953 . S
Zn258 O255 1.945 . S
Zn258 O260 1.932 . S
Zn258 O267 1.977 . S
Zn258 O268 1.910 . S
O259 Zn256 1.933 . S
O259 C270 1.226 . S
O260 Zn258 1.932 . S
O260 C270 1.307 . S
O261 Zn254 1.919 . S
O261 C272 1.253 . S
O262 Zn256 1.941 . S
O262 C272 1.283 . S
O263 Zn256 1.965 . S
O263 C271 1.303 . S
O264 Zn257 1.938 . S
O264 C271 1.247 . S
O265 Zn257 1.906 . S
O265 C273 1.304 . S
O266 Zn254 1.924 . S
O266 C274 1.311 . S
O267 Zn258 1.977 . S
O267 C273 1.272 . S
O268 Zn258 1.910 . S
O268 C274 1.231 . S
C269 O253 1.225 . S
C269 O275 1.298 . S
C270 O259 1.226 . S
C270 O260 1.307 . S
C271 O263 1.303 . S
C271 O264 1.247 . S
C272 O261 1.253 . S
C272 O262 1.283 . S
C273 O265 1.304 . S
C273 O267 1.272 . S
C274 O266 1.311 . S
C274 O268 1.231 . S
O275 Zn257 1.953 . S
O275 C269 1.298 . S
O276 Zn277 1.953 . S
O276 C292 1.225 . S
Zn277 O276 1.953 . S
Zn277 O278 1.949 . S
Zn277 O284 1.919 . S
Zn277 O289 1.924 . S
O278 Zn277 1.949 . S
O278 Zn279 1.923 . S
O278 Zn280 1.950 . S
O278 Zn281 1.945 . S
Zn279 O278 1.923 . S
Zn279 O282 1.933 . S
Zn279 O285 1.941 . S
Zn279 O286 1.965 . S
Zn280 O278 1.950 . S
Zn280 O287 1.938 . S
Zn280 O288 1.906 . S
Zn280 O298 1.953 . S
Zn281 O278 1.945 . S
Zn281 O283 1.932 . S
Zn281 O290 1.977 . S
Zn281 O291 1.910 . S
O282 Zn279 1.933 . S
O282 C293 1.226 . S
O283 Zn281 1.932 . S
O283 C293 1.307 . S
O284 Zn277 1.919 . S
O284 C295 1.253 . S
O285 Zn279 1.941 . S
O285 C295 1.283 . S
O286 Zn279 1.965 . S
O286 C294 1.303 . S
O287 Zn280 1.938 . S
O287 C294 1.247 . S
O288 Zn280 1.906 . S
O288 C296 1.304 . S
O289 Zn277 1.924 . S
O289 C297 1.311 . S
O290 Zn281 1.977 . S
O290 C296 1.272 . S
O291 Zn281 1.910 . S
O291 C297 1.231 . S
C292 O276 1.225 . S
C292 O298 1.298 . S
C293 O282 1.226 . S
C293 O283 1.307 . S
C294 O286 1.303 . S
C294 O287 1.247 . S
C295 O284 1.253 . S
C295 O285 1.283 . S
C296 O288 1.304 . S
C296 O290 1.272 . S
C297 O289 1.311 . S
C297 O291 1.231 . S
O298 Zn280 1.953 . S
O298 C292 1.298 . S
O299 Zn300 1.953 . S
O299 C315 1.225 . S
Zn300 O299 1.953 . S
Zn300 O301 1.949 . S
Zn300 O307 1.919 . S
Zn300 O312 1.924 . S
O301 Zn300 1.949 . S
O301 Zn302 1.923 . S
O301 Zn303 1.950 . S
O301 Zn304 1.945 . S
Zn302 O301 1.923 . S
Zn302 O305 1.933 . S
Zn302 O308 1.941 . S
Zn302 O309 1.965 . S
Zn303 O301 1.950 . S
Zn303 O310 1.938 . S
Zn303 O311 1.906 . S
Zn303 O321 1.953 . S
Zn304 O301 1.945 . S
Zn304 O306 1.932 . S
Zn304 O313 1.977 . S
Zn304 O314 1.910 . S
O305 Zn302 1.933 . S
O305 C316 1.226 . S
O306 Zn304 1.932 . S
O306 C316 1.307 . S
O307 Zn300 1.919 . S
O307 C318 1.253 . S
O308 Zn302 1.941 . S
O308 C318 1.283 . S
O309 Zn302 1.965 . S
O309 C317 1.303 . S
O310 Zn303 1.938 . S
O310 C317 1.247 . S
O311 Zn303 1.906 . S
O311 C319 1.304 . S
O312 Zn300 1.924 . S
O312 C320 1.311 . S
O313 Zn304 1.977 . S
O313 C319 1.272 . S
O314 Zn304 1.910 . S
O314 C320 1.231 . S
C315 O299 1.225 . S
C315 O321 1.298 . S
C316 O305 1.226 . S
C316 O306 1.307 . S
C317 O309 1.303 . S
C317 O310 1.247 . S
C318 O307 1.253 . S
C318 O308 1.283 . S
C319 O311 1.304 . S
C319 O313 1.272 . S
C320 O312 1.311 . S
C320 O314 1.231 . S
O321 Zn303 1.953 . S
O321 C315 1.298 . S
O322 Zn323 1.953 . S
O322 C338 1.225 . S
Zn323 O322 1.953 . S
Zn323 O324 1.949 . S
Zn323 O330 1.919 . S
Zn323 O335 1.924 . S
O324 Zn323 1.949 . S
O324 Zn325 1.923 . S
O324 Zn326 1.950 . S
O324 Zn327 1.945 . S
Zn325 O324 1.923 . S
Zn325 O328 1.933 . S
Zn325 O331 1.941 . S
Zn325 O332 1.965 . S
Zn326 O324 1.950 . S
Zn326 O333 1.938 . S
Zn326 O334 1.906 . S
Zn326 O344 1.953 . S
Zn327 O324 1.945 . S
Zn327 O329 1.932 . S
Zn327 O336 1.977 . S
Zn327 O337 1.910 . S
O328 Zn325 1.933 . S
O328 C339 1.226 . S
O329 Zn327 1.932 . S
O329 C339 1.307 . S
O330 Zn323 1.919 . S
O330 C341 1.253 . S
O331 Zn325 1.941 . S
O331 C341 1.283 . S
O332 Zn325 1.965 . S
O332 C340 1.303 . S
O333 Zn326 1.938 . S
O333 C340 1.247 . S
O334 Zn326 1.906 . S
O334 C342 1.304 . S
O335 Zn323 1.924 . S
O335 C343 1.311 . S
O336 Zn327 1.977 . S
O336 C342 1.272 . S
O337 Zn327 1.910 . S
O337 C343 1.231 . S
C338 O322 1.225 . S
C338 O344 1.298 . S
C339 O328 1.226 . S
C339 O329 1.307 . S
C340 O332 1.303 . S
C340 O333 1.247 . S
C341 O330 1.253 . S
C341 O331 1.283 . S
C342 O334 1.304 . S
C342 O336 1.272 . S
C343 O335 1.311 . S
C343 O337 1.231 . S
O344 Zn326 1.953 . S
O344 C338 1.298 . S
O345 Zn346 1.953 . S
O345 C361 1.225 . S
Zn346 O345 1.953 . S
Zn346 O347 1.949 . S
Zn346 O353 1.919 . S
Zn346 O358 1.924 . S
O347 Zn346 1.949 . S
O347 Zn348 1.923 . S
O347 Zn349 1.950 . S
O347 Zn350 1.945 . S
Zn348 O347 1.923 . S
Zn348 O351 1.933 . S
Zn348 O354 1.941 . S
Zn348 O355 1.965 . S
Zn349 O347 1.950 . S
Zn349 O356 1.938 . S
Zn349 O357 1.906 . S
Zn349 O367 1.953 . S
Zn350 O347 1.945 . S
Zn350 O352 1.932 . S
Zn350 O359 1.977 . S
Zn350 O360 1.910 . S
O351 Zn348 1.933 . S
O351 C362 1.226 . S
O352 Zn350 1.932 . S
O352 C362 1.307 . S
O353 Zn346 1.919 . S
O353 C364 1.253 . S
O354 Zn348 1.941 . S
O354 C364 1.283 . S
O355 Zn348 1.965 . S
O355 C363 1.303 . S
O356 Zn349 1.938 . S
O356 C363 1.247 . S
O357 Zn349 1.906 . S
O357 C365 1.304 . S
O358 Zn346 1.924 . S
O358 C366 1.311 . S
O359 Zn350 1.977 . S
O359 C365 1.272 . S
O360 Zn350 1.910 . S
O360 C366 1.231 . S
C361 O345 1.225 . S
C361 O367 1.298 . S
C362 O351 1.226 . S
C362 O352 1.307 . S
C363 O355 1.303 . S
C363 O356 1.247 . S
C364 O353 1.253 . S
C364 O354 1.283 . S
C365 O357 1.304 . S
C365 O359 1.272 . S
C366 O358 1.311 . S
C366 O360 1.231 . S
O367 Zn349 1.953 . S
O367 C361 1.298 . S
C368 C369 1.363 . S
C368 C374 1.379 1_565 S
C368 N376 1.356 . S
C369 C368 1.363 . S
C369 C375 1.363 . S
C370 C371 1.363 . S
C370 C375 1.379 1_545 S
C370 N377 1.356 . S
C371 C370 1.363 . S
C371 C374 1.363 . S
N372 C374 1.356 . S
N372 H384 0.984 . S
N372 H385 0.985 . S
N373 C375 1.356 . S
N373 H378 0.984 . S
N373 H379 0.985 . S
C374 C368 1.379 1_545 S
C374 C371 1.363 . S
C374 N372 1.356 . S
C375 C369 1.363 . S
C375 C370 1.379 1_565 S
C375 N373 1.356 . S
N376 C368 1.356 . S
N376 H382 0.984 . S
N376 H383 0.984 . S
N377 C370 1.356 . S
N377 H380 0.984 . S
N377 H381 0.985 . S
H378 N373 0.984 . S
H379 N373 0.985 . S
H380 N377 0.984 . S
H381 N377 0.985 . S
H382 N376 0.984 . S
H383 N376 0.984 . S
H384 N372 0.984 . S
H385 N372 0.985 . S
C386 C387 1.363 . S
C386 C392 1.379 1_655 S
C386 N394 1.356 . S
C387 C386 1.363 . S
C387 C393 1.363 . S
C388 C389 1.363 . S
C388 C393 1.379 1_455 S
C388 N395 1.356 . S
C389 C388 1.363 . S
C389 C392 1.363 . S
N390 C392 1.356 . S
N390 H402 0.984 . S
N390 H403 0.985 . S
N391 C393 1.356 . S
N391 H396 0.984 . S
N391 H397 0.985 . S
C392 C386 1.379 1_455 S
C392 C389 1.363 . S
C392 N390 1.356 . S
C393 C387 1.363 . S
C393 C388 1.379 1_655 S
C393 N391 1.356 . S
N394 C386 1.356 . S
N394 H400 0.984 . S
N394 H401 0.984 . S
N395 C388 1.356 . S
N395 H398 0.984 . S
N395 H399 0.985 . S
H396 N391 0.984 . S
H397 N391 0.985 . S
H398 N395 0.984 . S
H399 N395 0.985 . S
H400 N394 0.984 . S
H401 N394 0.984 . S
H402 N390 0.984 . S
H403 N390 0.985 . S
C404 C405 1.363 . S
C404 C410 1.379 1_565 S
C404 N412 1.356 . S
C405 C404 1.363 . S
C405 C411 1.385 . S
C406 C407 1.363 . S
C406 C411 1.354 1_545 S
C406 N413 1.356 . S
C407 C406 1.363 . S
C407 C410 1.363 . S
N408 C410 1.356 . S
N408 H420 0.984 . S
N408 H421 0.985 . S
N409 C411 1.368 . S
N409 H414 0.984 . S
N409 H415 0.985 . S
C410 C404 1.379 1_545 S
C410 C407 1.363 . S
C410 N408 1.356 . S
C411 C405 1.385 . S
C411 C406 1.354 1_565 S
C411 N409 1.368 . S
N412 C404 1.356 . S
N412 H418 0.984 . S
N412 H419 0.984 . S
N413 C406 1.356 . S
N413 H416 0.984 . S
N413 H417 0.985 . S
H414 N409 0.984 . S
H415 N409 0.985 . S
H416 N413 0.984 . S
H417 N413 0.985 . S
H418 N412 0.984 . S
H419 N412 0.984 . S
H420 N408 0.984 . S
H421 N408 0.985 . S
C422 C423 1.384 . S
C422 C428 1.352 1_655 S
C422 N430 1.371 . S
C423 C422 1.384 . S
C423 C429 1.363 . S
C424 C425 1.363 . S
C424 C429 1.379 1_455 S
C424 N431 1.356 . S
C425 C424 1.363 . S
C425 C428 1.363 . S
N426 C428 1.356 . S
N426 H438 0.984 . S
N426 H439 0.985 . S
N427 C429 1.356 . S
N427 H432 0.984 . S
N427 H433 0.985 . S
C428 C422 1.352 1_455 S
C428 C425 1.363 . S
C428 N426 1.356 . S
C429 C423 1.363 . S
C429 C424 1.379 1_655 S
C429 N427 1.356 . S
N430 C422 1.371 . S
N430 H436 0.984 . S
N430 H437 0.984 . S
N431 C424 1.356 . S
N431 H434 0.984 . S
N431 H435 0.985 . S
H432 N427 0.984 . S
H433 N427 0.985 . S
H434 N431 0.984 . S
H435 N431 0.985 . S
H436 N430 0.984 . S
H437 N430 0.984 . S
H438 N426 0.984 . S
H439 N426 0.985 . S
C440 C441 1.363 . S
C440 C446 1.379 . S
C440 N448 1.356 . S
C441 C440 1.363 . S
C441 C447 1.363 1_554 S
C442 C443 1.363 . S
C442 C447 1.379 . S
C442 N449 1.356 . S
C443 C442 1.363 . S
C443 C446 1.363 1_556 S
N444 C446 1.356 . S
N444 H456 0.984 . S
N444 H457 0.985 1_554 S
N445 C447 1.356 . S
N445 H450 0.984 . S
N445 H451 0.985 . S
C446 C440 1.379 . S
C446 C443 1.363 1_554 S
C446 N444 1.356 . S
C447 C441 1.363 1_556 S
C447 C442 1.379 . S
C447 N445 1.356 . S
N448 C440 1.356 . S
N448 H454 0.984 . S
N448 H455 0.984 . S
N449 C442 1.356 . S
N449 H452 0.984 . S
N449 H453 0.985 . S
H450 N445 0.984 . S
H451 N445 0.985 . S
H452 N449 0.984 . S
H453 N449 0.985 . S
H454 N448 0.984 . S
H455 N448 0.984 . S
H456 N444 0.984 . S
H457 N444 0.985 1_556 S
C458 C459 1.363 1_556 S
C458 C464 1.379 . S
C458 N466 1.356 . S
C459 C458 1.363 1_554 S
C459 C465 1.363 . S
C460 C461 1.363 1_554 S
C460 C465 1.379 . S
C460 N467 1.356 . S
C461 C460 1.363 1_556 S
C461 C464 1.363 . S
N462 C464 1.356 . S
N462 H474 0.984 . S
N462 H475 0.985 . S
N463 C465 1.356 . S
N463 H468 0.984 . S
N463 H469 0.985 . S
C464 C458 1.379 . S
C464 C461 1.363 . S
C464 N462 1.356 . S
C465 C459 1.363 . S
C465 C460 1.379 . S
C465 N463 1.356 . S
N466 C458 1.356 . S
N466 H472 0.984 . S
N466 H473 0.984 1_556 S
N467 C460 1.356 . S
N467 H470 0.984 . S
N467 H471 0.985 . S
H468 N463 0.984 . S
H469 N463 0.985 . S
H470 N467 0.984 . S
H471 N467 0.985 . S
H472 N466 0.984 . S
H473 N466 0.984 1_554 S
H474 N462 0.984 . S
H475 N462 0.985 . S
C476 C477 1.363 . S
C476 C482 1.376 1_554 S
C476 N484 1.360 . S
C477 C476 1.363 . S
C477 C483 1.363 1_554 S
C478 C479 1.363 . S
C478 C483 1.379 . S
C478 N485 1.356 . S
C479 C478 1.363 . S
C479 C482 1.363 . S
N480 C482 1.356 . S
N480 H492 0.984 . S
N480 H493 0.985 . S
N481 C483 1.356 . S
N481 H486 0.984 1_556 S
N481 H487 0.985 . S
C482 C476 1.376 1_556 S
C482 C479 1.363 . S
C482 N480 1.356 . S
C483 C477 1.363 1_556 S
C483 C478 1.379 . S
C483 N481 1.356 . S
N484 C476 1.360 . S
N484 H490 0.984 . S
N484 H491 0.984 . S
N485 C478 1.356 . S
N485 H488 0.984 . S
N485 H489 0.985 . S
H486 N481 0.984 1_554 S
H487 N481 0.985 . S
H488 N485 0.984 . S
H489 N485 0.985 . S
H490 N484 0.984 . S
H491 N484 0.984 . S
H492 N480 0.984 . S
H493 N480 0.985 . S
C494 C495 1.363 . S
C494 C500 1.379 . S
C494 N502 1.356 . S
C495 C494 1.363 . S
C495 C501 1.363 1_554 S
C496 C497 1.363 . S
C496 C501 1.379 . S
C496 N503 1.356 . S
C497 C496 1.363 . S
C497 C500 1.363 1_556 S
N498 C500 1.356 . S
N498 H510 0.984 . S
N498 H511 0.985 . S
N499 C501 1.356 . S
N499 H504 0.984 1_556 S
N499 H505 0.985 . S
C500 C494 1.379 . S
C500 C497 1.363 1_554 S
C500 N498 1.356 . S
C501 C495 1.363 1_556 S
C501 C496 1.379 . S
C501 N499 1.356 . S
N502 C494 1.356 . S
N502 H508 0.984 . S
N502 H509 0.984 . S
N503 C496 1.356 . S
N503 H506 0.984 . S
N503 H507 0.985 . S
H504 N499 0.984 1_554 S
H505 N499 0.985 . S
H506 N503 0.984 . S
H507 N503 0.985 . S
H508 N502 0.984 . S
H509 N502 0.984 . S
H510 N498 0.984 . S
H511 N498 0.985 . S
C512 C513 1.363 . S
C512 C518 1.379 . S
C512 N520 1.356 . S
C513 C512 1.363 . S
C513 C519 1.363 . S
C514 C515 1.363 . S
C514 C519 1.379 . S
C514 N521 1.356 . S
C515 C514 1.363 . S
C515 C518 1.363 . S
N516 C518 1.356 . S
N516 H528 0.984 . S
N516 H529 0.985 . S
N517 C519 1.356 . S
N517 H522 0.984 . S
N517 H523 0.985 . S
C518 C512 1.379 . S
C518 C515 1.363 . S
C518 N516 1.356 . S
C519 C513 1.363 . S
C519 C514 1.379 . S
C519 N517 1.356 . S
N520 C512 1.356 . S
N520 H526 0.984 . S
N520 H527 0.984 . S
N521 C514 1.356 . S
N521 H524 0.984 . S
N521 H525 0.985 . S
H522 N517 0.984 . S
H523 N517 0.985 . S
H524 N521 0.984 . S
H525 N521 0.985 . S
H526 N520 0.984 . S
H527 N520 0.984 . S
H528 N516 0.984 . S
H529 N516 0.985 . S
C530 C531 1.363 . S
C530 C536 1.379 . S
C530 N538 1.356 . S
C531 C530 1.363 . S
C531 C537 1.363 . S
C532 C533 1.363 . S
C532 C537 1.379 . S
C532 N539 1.356 . S
C533 C532 1.363 . S
C533 C536 1.363 . S
N534 C536 1.356 . S
N534 H546 0.984 . S
N534 H547 0.985 . S
N535 C537 1.356 . S
N535 H540 0.984 . S
N535 H541 0.985 . S
C536 C530 1.379 . S
C536 C533 1.363 . S
C536 N534 1.356 . S
C537 C531 1.363 . S
C537 C532 1.379 . S
C537 N535 1.356 . S
N538 C530 1.356 . S
N538 H544 0.984 . S
N538 H545 0.984 . S
N539 C532 1.356 . S
N539 H542 0.984 1_554 S
N539 H543 0.985 1_554 S
H540 N535 0.984 . S
H541 N535 0.985 . S
H542 N539 0.984 1_556 S
H543 N539 0.985 1_556 S
H544 N538 0.984 . S
H545 N538 0.984 . S
H546 N534 0.984 . S
H547 N534 0.985 . S
C548 C549 1.363 . S
C548 C554 1.379 . S
C548 N556 1.356 . S
C549 C548 1.363 . S
C549 C555 1.363 . S
C550 C551 1.363 . S
C550 C555 1.379 . S
C550 N557 1.356 . S
C551 C550 1.363 . S
C551 C554 1.363 . S
N552 C554 1.356 . S
N552 H564 0.984 . S
N552 H565 0.985 . S
N553 C555 1.356 . S
N553 H558 0.984 . S
N553 H559 0.985 . S
C554 C548 1.379 . S
C554 C551 1.363 . S
C554 N552 1.356 . S
C555 C549 1.363 . S
C555 C550 1.379 . S
C555 N553 1.356 . S
N556 C548 1.356 . S
N556 H562 0.984 . S
N556 H563 0.984 . S
N557 C550 1.356 . S
N557 H560 0.984 . S
N557 H561 0.985 . S
H558 N553 0.984 . S
H559 N553 0.985 . S
H560 N557 0.984 . S
H561 N557 0.985 . S
H562 N556 0.984 . S
H563 N556 0.984 . S
H564 N552 0.984 . S
H565 N552 0.985 . S
C566 C567 1.363 . S
C566 C572 1.379 . S
C566 N574 1.356 . S
C567 C566 1.363 . S
C567 C573 1.363 . S
C568 C569 1.363 . S
C568 C573 1.379 . S
C568 N575 1.356 . S
C569 C568 1.363 . S
C569 C572 1.363 . S
N570 C572 1.356 . S
N570 H582 0.984 . S
N570 H583 0.985 . S
N571 C573 1.356 . S
N571 H576 0.984 . S
N571 H577 0.985 . S
C572 C566 1.379 . S
C572 C569 1.363 . S
C572 N570 1.356 . S
C573 C567 1.363 . S
C573 C568 1.379 . S
C573 N571 1.356 . S
N574 C566 1.356 . S
N574 H580 0.984 . S
N574 H581 0.984 . S
N575 C568 1.356 . S
N575 H578 0.984 . S
N575 H579 0.985 . S
H576 N571 0.984 . S
H577 N571 0.985 . S
H578 N575 0.984 . S
H579 N575 0.985 . S
H580 N574 0.984 . S
H581 N574 0.984 . S
H582 N570 0.984 . S
H583 N570 0.985 . S
C584 C585 1.363 . S
C584 C590 1.379 1_565 S
C584 N592 1.356 . S
C585 C584 1.363 . S
C585 C591 1.331 1_565 S
C586 C587 1.363 . S
C586 C591 1.413 . S
C586 N593 1.356 . S
C587 C586 1.363 . S
C587 C590 1.363 . S
N588 C590 1.356 . S
N588 H600 0.984 . S
N588 H601 0.985 . S
N589 C591 1.342 1_565 S
N589 H594 0.984 . S
N589 H595 0.985 1_565 S
C590 C584 1.379 1_545 S
C590 C587 1.363 . S
C590 N588 1.356 . S
C591 C585 1.331 1_545 S
C591 C586 1.413 . S
C591 N589 1.342 1_545 S
N592 C584 1.356 . S
N592 H598 0.984 . S
N592 H599 0.984 . S
N593 C586 1.356 . S
N593 H596 0.984 . S
N593 H597 0.985 . S
H594 N589 0.984 . S
H595 N589 0.985 1_545 S
H596 N593 0.984 . S
H597 N593 0.985 . S
H598 N592 0.984 . S
H599 N592 0.984 . S
H600 N588 0.984 . S
H601 N588 0.985 . S
C602 C603 1.363 . S
C602 C608 1.379 1_455 S
C602 N610 1.356 . S
C603 C602 1.363 . S
C603 C609 1.363 . S
C604 C605 1.363 . S
C604 C609 1.379 1_655 S
C604 N611 1.356 . S
C605 C604 1.363 . S
C605 C608 1.363 . S
N606 C608 1.356 . S
N606 H618 0.984 . S
N606 H619 0.985 . S
N607 C609 1.356 . S
N607 H612 0.984 . S
N607 H613 0.985 . S
C608 C602 1.379 1_655 S
C608 C605 1.363 . S
C608 N606 1.356 . S
C609 C603 1.363 . S
C609 C604 1.379 1_455 S
C609 N607 1.356 . S
N610 C602 1.356 . S
N610 H616 0.984 . S
N610 H617 0.984 . S
N611 C604 1.356 . S
N611 H614 0.984 . S
N611 H615 0.985 . S
H612 N607 0.984 . S
H613 N607 0.985 . S
H614 N611 0.984 . S
H615 N611 0.985 . S
H616 N610 0.984 . S
H617 N610 0.984 . S
H618 N606 0.984 . S
H619 N606 0.985 . S
C620 C621 1.363 . S
C620 C626 1.379 1_565 S
C620 N628 1.356 . S
C621 C620 1.363 . S
C621 C627 1.363 . S
C622 C623 1.363 . S
C622 C627 1.379 1_545 S
C622 N629 1.356 . S
C623 C622 1.363 . S
C623 C626 1.363 . S
N624 C626 1.356 . S
N624 H636 0.984 . S
N624 H637 0.985 . S
N625 C627 1.356 . S
N625 H630 0.984 . S
N625 H631 0.985 . S
C626 C620 1.379 1_545 S
C626 C623 1.363 . S
C626 N624 1.356 . S
C627 C621 1.363 . S
C627 C622 1.379 1_565 S
C627 N625 1.356 . S
N628 C620 1.356 . S
N628 H634 0.984 . S
N628 H635 0.984 . S
N629 C622 1.356 . S
N629 H632 0.984 . S
N629 H633 0.985 . S
H630 N625 0.984 . S
H631 N625 0.985 . S
H632 N629 0.984 . S
H633 N629 0.985 . S
H634 N628 0.984 . S
H635 N628 0.984 . S
H636 N624 0.984 . S
H637 N624 0.985 . S
C638 C639 1.386 . S
C638 C644 1.349 1_455 S
C638 N646 1.372 . S
C639 C638 1.386 . S
C639 C645 1.363 . S
C640 C641 1.363 . S
C640 C645 1.379 1_655 S
C640 N647 1.356 . S
C641 C640 1.363 . S
C641 C644 1.363 . S
N642 C644 1.356 . S
N642 H654 0.984 . S
N642 H655 0.985 . S
N643 C645 1.356 . S
N643 H648 0.984 . S
N643 H649 0.985 . S
C644 C638 1.349 1_655 S
C644 C641 1.363 . S
C644 N642 1.356 . S
C645 C639 1.363 . S
C645 C640 1.379 1_455 S
C645 N643 1.356 . S
N646 C638 1.372 . S
N646 H652 0.984 . S
N646 H653 0.984 . S
N647 C640 1.356 . S
N647 H650 0.984 . S
N647 H651 0.985 . S
H648 N643 0.984 . S
H649 N643 0.985 . S
H650 N647 0.984 . S
H651 N647 0.985 . S
H652 N646 0.984 . S
H653 N646 0.984 . S
H654 N642 0.984 . S
H655 N642 0.985 . S
C656 C657 1.363 . S
C656 C662 1.379 . S
C656 N664 1.356 . S
C657 C656 1.363 . S
C657 C663 1.363 . S
C658 C659 1.363 . S
C658 C663 1.379 . S
C658 N665 1.356 . S
C659 C658 1.363 . S
C659 C662 1.363 . S
N660 C662 1.356 1_556 S
N660 H672 0.984 . S
N660 H673 0.985 . S
N661 C663 1.356 . S
N661 H666 0.984 . S
N661 H667 0.985 . S
C662 C656 1.379 . S
C662 C659 1.363 . S
C662 N660 1.356 1_554 S
C663 C657 1.363 . S
C663 C658 1.379 . S
C663 N661 1.356 . S
N664 C656 1.356 . S
N664 H670 0.984 1_554 S
N664 H671 0.984 . S
N665 C658 1.356 . S
N665 H668 0.984 . S
N665 H669 0.985 . S
H666 N661 0.984 . S
H667 N661 0.985 . S
H668 N665 0.984 . S
H669 N665 0.985 . S
H670 N664 0.984 1_556 S
H671 N664 0.984 . S
H672 N660 0.984 . S
H673 N660 0.985 . S
C674 C675 1.363 . S
C674 C680 1.379 . S
C674 N682 1.356 . S
C675 C674 1.363 . S
C675 C681 1.363 . S
C676 C677 1.363 . S
C676 C681 1.379 . S
C676 N683 1.356 . S
C677 C676 1.363 . S
C677 C680 1.363 . S
N678 C680 1.356 . S
N678 H690 0.984 . S
N678 H691 0.985 . S
N679 C681 1.356 1_554 S
N679 H684 0.984 . S
N679 H685 0.985 . S
C680 C674 1.379 . S
C680 C677 1.363 . S
C680 N678 1.356 . S
C681 C675 1.363 . S
C681 C676 1.379 . S
C681 N679 1.356 1_556 S
N682 C674 1.356 . S
N682 H688 0.984 . S
N682 H689 0.984 . S
N683 C676 1.356 . S
N683 H686 0.984 . S
N683 H687 0.985 . S
H684 N679 0.984 . S
H685 N679 0.985 . S
H686 N683 0.984 . S
H687 N683 0.985 . S
H688 N682 0.984 . S
H689 N682 0.984 . S
H690 N678 0.984 . S
H691 N678 0.985 . S
C692 C693 1.363 . S
C692 C698 1.379 . S
C692 N700 1.356 . S
C693 C692 1.363 . S
C693 C699 1.363 . S
C694 C695 1.363 . S
C694 C699 1.379 . S
C694 N701 1.356 1_554 S
C695 C694 1.363 . S
C695 C698 1.363 . S
N696 C698 1.356 . S
N696 H708 0.984 . S
N696 H709 0.985 . S
N697 C699 1.356 . S
N697 H702 0.984 . S
N697 H703 0.985 1_554 S
C698 C692 1.379 . S
C698 C695 1.363 . S
C698 N696 1.356 . S
C699 C693 1.363 . S
C699 C694 1.379 . S
C699 N697 1.356 . S
N700 C692 1.356 . S
N700 H706 0.984 . S
N700 H707 0.984 . S
N701 C694 1.356 1_556 S
N701 H704 0.984 . S
N701 H705 0.985 . S
H702 N697 0.984 . S
H703 N697 0.985 1_556 S
H704 N701 0.984 . S
H705 N701 0.985 . S
H706 N700 0.984 . S
H707 N700 0.984 . S
H708 N696 0.984 . S
H709 N696 0.985 . S
C710 C711 1.363 . S
C710 C716 1.379 . S
C710 N718 1.356 . S
C711 C710 1.363 . S
C711 C717 1.363 . S
C712 C713 1.363 . S
C712 C717 1.379 . S
C712 N719 1.356 . S
C713 C712 1.363 . S
C713 C716 1.363 . S
N714 C716 1.356 1_554 S
N714 H726 0.984 . S
N714 H727 0.985 . S
N715 C717 1.356 . S
N715 H720 0.984 . S
N715 H721 0.985 . S
C716 C710 1.379 . S
C716 C713 1.363 . S
C716 N714 1.356 1_556 S
C717 C711 1.363 . S
C717 C712 1.379 . S
C717 N715 1.356 . S
N718 C710 1.356 . S
N718 H724 0.984 . S
N718 H725 0.984 . S
N719 C712 1.356 . S
N719 H722 0.984 . S
N719 H723 0.985 . S
H720 N715 0.984 . S
H721 N715 0.985 . S
H722 N719 0.984 . S
H723 N719 0.985 . S
H724 N718 0.984 . S
H725 N718 0.984 . S
H726 N714 0.984 . S
H727 N714 0.985 . S
C728 C729 1.363 . S
C728 C734 1.379 . S
C728 N736 1.356 . S
C729 C728 1.363 . S
C729 C735 1.363 . S
C730 C731 1.363 . S
C730 C735 1.379 . S
C730 N737 1.356 . S
C731 C730 1.363 . S
C731 C734 1.363 . S
N732 C734 1.356 . S
N732 H744 0.984 . S
N732 H745 0.985 . S
N733 C735 1.356 . S
N733 H738 0.984 . S
N733 H739 0.985 . S
C734 C728 1.379 . S
C734 C731 1.363 . S
C734 N732 1.356 . S
C735 C729 1.363 . S
C735 C730 1.379 . S
C735 N733 1.356 . S
N736 C728 1.356 . S
N736 H742 0.984 . S
N736 H743 0.984 . S
N737 C730 1.356 . S
N737 H740 0.984 . S
N737 H741 0.985 . S
H738 N733 0.984 . S
H739 N733 0.985 . S
H740 N737 0.984 . S
H741 N737 0.985 . S
H742 N736 0.984 . S
H743 N736 0.984 . S
H744 N732 0.984 . S
H745 N732 0.985 . S
C746 C747 1.363 . S
C746 C752 1.379 . S
C746 N754 1.356 . S
C747 C746 1.363 . S
C747 C753 1.363 . S
C748 C749 1.363 . S
C748 C753 1.379 . S
C748 N755 1.356 . S
C749 C748 1.363 . S
C749 C752 1.363 . S
N750 C752 1.356 . S
N750 H762 0.984 . S
N750 H763 0.985 . S
N751 C753 1.356 . S
N751 H756 0.984 . S
N751 H757 0.985 . S
C752 C746 1.379 . S
C752 C749 1.363 . S
C752 N750 1.356 . S
C753 C747 1.363 . S
C753 C748 1.379 . S
C753 N751 1.356 . S
N754 C746 1.356 . S
N754 H760 0.984 . S
N754 H761 0.984 . S
N755 C748 1.356 . S
N755 H758 0.984 . S
N755 H759 0.985 . S
H756 N751 0.984 . S
H757 N751 0.985 . S
H758 N755 0.984 . S
H759 N755 0.985 . S
H760 N754 0.984 . S
H761 N754 0.984 . S
H762 N750 0.984 . S
H763 N750 0.985 . S
C764 C765 1.363 . S
C764 C770 1.379 . S
C764 N772 1.356 . S
C765 C764 1.363 . S
C765 C771 1.363 . S
C766 C767 1.363 . S
C766 C771 1.379 . S
C766 N773 1.356 . S
C767 C766 1.363 . S
C767 C770 1.363 . S
N768 C770 1.356 . S
N768 H780 0.984 . S
N768 H781 0.985 . S
N769 C771 1.356 . S
N769 H774 0.984 . S
N769 H775 0.985 . S
C770 C764 1.379 . S
C770 C767 1.363 . S
C770 N768 1.356 . S
C771 C765 1.363 . S
C771 C766 1.379 . S
C771 N769 1.356 . S
N772 C764 1.356 . S
N772 H778 0.984 . S
N772 H779 0.984 . S
N773 C766 1.356 . S
N773 H776 0.984 . S
N773 H777 0.985 . S
H774 N769 0.984 . S
H775 N769 0.985 . S
H776 N773 0.984 . S
H777 N773 0.985 . S
H778 N772 0.984 . S
H779 N772 0.984 . S
H780 N768 0.984 . S
H781 N768 0.985 . S
C782 C783 1.363 . S
C782 C788 1.379 . S
C782 N790 1.356 . S
C783 C782 1.363 . S
C783 C789 1.363 . S
C784 C785 1.363 . S
C784 C789 1.379 . S
C784 N791 1.356 . S
C785 C784 1.363 . S
C785 C788 1.363 . S
N786 C788 1.356 . S
N786 H798 0.984 . S
N786 H799 0.985 . S
N787 C789 1.356 . S
N787 H792 0.984 . S
N787 H793 0.985 . S
C788 C782 1.379 . S
C788 C785 1.363 . S
C788 N786 1.356 . S
C789 C783 1.363 . S
C789 C784 1.379 . S
C789 N787 1.356 . S
N790 C782 1.356 . S
N790 H796 0.984 . S
N790 H797 0.984 . S
N791 C784 1.356 . S
N791 H794 0.984 . S
N791 H795 0.985 . S
H792 N787 0.984 . S
H793 N787 0.985 . S
H794 N791 0.984 . S
H795 N791 0.985 . S
H796 N790 0.984 . S
H797 N790 0.984 . S
H798 N786 0.984 . S
H799 N786 0.985 . S
C800 C801 1.363 . S
C800 C806 1.379 . S
C800 N808 1.356 . S
C801 C800 1.363 . S
C801 C807 1.363 . S
C802 C803 1.363 . S
C802 C807 1.379 . S
C802 N809 1.356 . S
C803 C802 1.363 . S
C803 C806 1.363 . S
N804 C806 1.356 1_554 S
N804 H816 0.984 . S
N804 H817 0.985 . S
N805 C807 1.356 . S
N805 H810 0.984 . S
N805 H811 0.985 . S
C806 C800 1.379 . S
C806 C803 1.363 . S
C806 N804 1.356 1_556 S
C807 C801 1.363 . S
C807 C802 1.379 . S
C807 N805 1.356 . S
N808 C800 1.356 . S
N808 H814 0.984 . S
N808 H815 0.984 . S
N809 C802 1.356 . S
N809 H812 0.984 . S
N809 H813 0.985 . S
H810 N805 0.984 . S
H811 N805 0.985 . S
H812 N809 0.984 . S
H813 N809 0.985 . S
H814 N808 0.984 . S
H815 N808 0.984 . S
H816 N804 0.984 . S
H817 N804 0.985 . S
C818 C819 1.363 . S
C818 C824 1.379 . S
C818 N826 1.356 . S
C819 C818 1.363 . S
C819 C825 1.363 . S
C820 C821 1.363 . S
C820 C825 1.379 . S
C820 N827 1.356 . S
C821 C820 1.363 . S
C821 C824 1.363 . S
N822 C824 1.356 . S
N822 H834 0.984 . S
N822 H835 0.985 . S
N823 C825 1.356 1_556 S
N823 H828 0.984 . S
N823 H829 0.985 . S
C824 C818 1.379 . S
C824 C821 1.363 . S
C824 N822 1.356 . S
C825 C819 1.363 . S
C825 C820 1.379 . S
C825 N823 1.356 1_554 S
N826 C818 1.356 . S
N826 H832 0.984 . S
N826 H833 0.984 . S
N827 C820 1.356 . S
N827 H830 0.984 . S
N827 H831 0.985 . S
H828 N823 0.984 . S
H829 N823 0.985 . S
H830 N827 0.984 . S
H831 N827 0.985 . S
H832 N826 0.984 . S
H833 N826 0.984 . S
H834 N822 0.984 . S
H835 N822 0.985 . S
C836 C837 1.363 . S
C836 C842 1.379 . S
C836 N844 1.356 . S
C837 C836 1.363 . S
C837 C843 1.363 . S
C838 C839 1.363 . S
C838 C843 1.379 . S
C838 N845 1.356 . S
C839 C838 1.363 . S
C839 C842 1.363 . S
N840 C842 1.356 . S
N840 H852 0.984 . S
N840 H853 0.985 . S
N841 C843 1.356 1_554 S
N841 H846 0.984 . S
N841 H847 0.985 . S
C842 C836 1.379 . S
C842 C839 1.363 . S
C842 N840 1.356 . S
C843 C837 1.363 . S
C843 C838 1.379 . S
C843 N841 1.356 1_556 S
N844 C836 1.356 . S
N844 H850 0.984 . S
N844 H851 0.984 . S
N845 C838 1.356 . S
N845 H848 0.984 . S
N845 H849 0.985 . S
H846 N841 0.984 . S
H847 N841 0.985 . S
H848 N845 0.984 . S
H849 N845 0.985 . S
H850 N844 0.984 . S
H851 N844 0.984 . S
H852 N840 0.984 . S
H853 N840 0.985 . S
C854 C855 1.363 . S
C854 C860 1.379 . S
C854 N862 1.356 1_554 S
C855 C854 1.363 . S
C855 C861 1.363 . S
C856 C857 1.363 . S
C856 C861 1.379 . S
C856 N863 1.356 . S
C857 C856 1.363 . S
C857 C860 1.363 . S
N858 C860 1.356 . S
N858 H870 0.984 . S
N858 H871 0.985 . S
N859 C861 1.356 . S
N859 H864 0.984 . S
N859 H865 0.985 . S
C860 C854 1.379 . S
C860 C857 1.363 . S
C860 N858 1.356 . S
C861 C855 1.363 . S
C861 C856 1.379 . S
C861 N859 1.356 . S
N862 C854 1.356 1_556 S
N862 H868 0.984 . S
N862 H869 0.984 . S
N863 C856 1.356 . S
N863 H866 0.984 . S
N863 H867 0.985 . S
H864 N859 0.984 . S
H865 N859 0.985 . S
H866 N863 0.984 . S
H867 N863 0.985 . S
H868 N862 0.984 . S
H869 N862 0.984 . S
H870 N858 0.984 . S
H871 N858 0.985 . S
C872 C873 1.363 . S
C872 C878 1.379 . S
C872 N880 1.356 . S
C873 C872 1.363 . S
C873 C879 1.363 . S
C874 C875 1.363 . S
C874 C879 1.379 . S
C874 N881 1.356 . S
C875 C874 1.363 . S
C875 C878 1.363 . S
N876 C878 1.356 . S
N876 H888 0.984 . S
N876 H889 0.985 . S
N877 C879 1.356 . S
N877 H882 0.984 . S
N877 H883 0.985 . S
C878 C872 1.379 . S
C878 C875 1.363 . S
C878 N876 1.356 . S
C879 C873 1.363 . S
C879 C874 1.379 . S
C879 N877 1.356 . S
N880 C872 1.356 . S
N880 H886 0.984 . S
N880 H887 0.984 . S
N881 C874 1.356 . S
N881 H884 0.984 . S
N881 H885 0.985 . S
H882 N877 0.984 . S
H883 N877 0.985 . S
H884 N881 0.984 . S
H885 N881 0.985 . S
H886 N880 0.984 . S
H887 N880 0.984 . S
H888 N876 0.984 . S
H889 N876 0.985 . S
C890 C891 1.363 . S
C890 C896 1.379 . S
C890 N898 1.356 . S
C891 C890 1.363 . S
C891 C897 1.363 . S
C892 C893 1.363 . S
C892 C897 1.379 . S
C892 N899 1.356 . S
C893 C892 1.363 . S
C893 C896 1.363 . S
N894 C896 1.356 . S
N894 H906 0.984 . S
N894 H907 0.985 . S
N895 C897 1.356 . S
N895 H900 0.984 . S
N895 H901 0.985 . S
C896 C890 1.379 . S
C896 C893 1.363 . S
C896 N894 1.356 . S
C897 C891 1.363 . S
C897 C892 1.379 . S
C897 N895 1.356 . S
N898 C890 1.356 . S
N898 H904 0.984 . S
N898 H905 0.984 . S
N899 C892 1.356 . S
N899 H902 0.984 . S
N899 H903 0.985 . S
H900 N895 0.984 . S
H901 N895 0.985 . S
H902 N899 0.984 . S
H903 N899 0.985 . S
H904 N898 0.984 . S
H905 N898 0.984 . S
H906 N894 0.984 . S
H907 N894 0.985 . S
C908 C909 1.363 . S
C908 C914 1.379 . S
C908 N916 1.356 . S
C909 C908 1.363 . S
C909 C915 1.363 . S
C910 C911 1.363 . S
C910 C915 1.379 . S
C910 N917 1.356 . S
C911 C910 1.363 . S
C911 C914 1.363 . S
N912 C914 1.356 . S
N912 H924 0.984 . S
N912 H925 0.985 . S
N913 C915 1.356 . S
N913 H918 0.984 . S
N913 H919 0.985 . S
C914 C908 1.379 . S
C914 C911 1.363 . S
C914 N912 1.356 . S
C915 C909 1.363 . S
C915 C910 1.379 . S
C915 N913 1.356 . S
N916 C908 1.356 . S
N916 H922 0.984 . S
N916 H923 0.984 . S
N917 C910 1.356 . S
N917 H920 0.984 . S
N917 H921 0.985 . S
H918 N913 0.984 . S
H919 N913 0.985 . S
H920 N917 0.984 . S
H921 N917 0.985 . S
H922 N916 0.984 . S
H923 N916 0.984 . S
H924 N912 0.984 . S
H925 N912 0.985 . S
C926 C927 1.363 . S
C926 C932 1.379 . S
C926 N934 1.356 . S
C927 C926 1.363 . S
C927 C933 1.363 . S
C928 C929 1.363 . S
C928 C933 1.379 . S
C928 N935 1.356 . S
C929 C928 1.363 . S
C929 C932 1.363 . S
N930 C932 1.356 . S
N930 H942 0.984 . S
N930 H943 0.985 . S
N931 C933 1.356 . S
N931 H936 0.984 . S
N931 H937 0.985 . S
C932 C926 1.379 . S
C932 C929 1.363 . S
C932 N930 1.356 . S
C933 C927 1.363 . S
C933 C928 1.379 . S
C933 N931 1.356 . S
N934 C926 1.356 . S
N934 H940 0.984 . S
N934 H941 0.984 . S
N935 C928 1.356 . S
N935 H938 0.984 . S
N935 H939 0.985 . S
H936 N931 0.984 . S
H937 N931 0.985 . S
H938 N935 0.984 . S
H939 N935 0.985 . S
H940 N934 0.984 . S
H941 N934 0.984 . S
H942 N930 0.984 . S
H943 N930 0.985 . S
C944 C945 1.363 . S
C944 C950 1.379 . S
C944 N952 1.356 . S
C945 C944 1.363 . S
C945 C951 1.363 . S
C946 C947 1.363 . S
C946 C951 1.379 . S
C946 N953 1.356 . S
C947 C946 1.363 . S
C947 C950 1.363 . S
N948 C950 1.356 . S
N948 H960 0.984 . S
N948 H961 0.985 . S
N949 C951 1.356 . S
N949 H954 0.984 . S
N949 H955 0.985 . S
C950 C944 1.379 . S
C950 C947 1.363 . S
C950 N948 1.356 . S
C951 C945 1.363 . S
C951 C946 1.379 . S
C951 N949 1.356 . S
N952 C944 1.356 . S
N952 H958 0.984 . S
N952 H959 0.984 . S
N953 C946 1.356 . S
N953 H956 0.984 . S
N953 H957 0.985 . S
H954 N949 0.984 . S
H955 N949 0.985 . S
H956 N953 0.984 . S
H957 N953 0.985 . S
H958 N952 0.984 . S
H959 N952 0.984 . S
H960 N948 0.984 . S
H961 N948 0.985 . S
C962 C963 1.363 . S
C962 C968 1.379 . S
C962 N970 1.356 . S
C963 C962 1.363 . S
C963 C969 1.363 . S
C964 C965 1.363 . S
C964 C969 1.379 . S
C964 N971 1.356 . S
C965 C964 1.363 . S
C965 C968 1.363 . S
N966 C968 1.356 . S
N966 H978 0.984 . S
N966 H979 0.985 . S
N967 C969 1.356 . S
N967 H972 0.984 . S
N967 H973 0.985 . S
C968 C962 1.379 . S
C968 C965 1.363 . S
C968 N966 1.356 . S
C969 C963 1.363 . S
C969 C964 1.379 . S
C969 N967 1.356 . S
N970 C962 1.356 . S
N970 H976 0.984 . S
N970 H977 0.984 . S
N971 C964 1.356 . S
N971 H974 0.984 . S
N971 H975 0.985 . S
H972 N967 0.984 . S
H973 N967 0.985 . S
H974 N971 0.984 . S
H975 N971 0.985 . S
H976 N970 0.984 . S
H977 N970 0.984 . S
H978 N966 0.984 . S
H979 N966 0.985 . S
C980 C981 1.363 . S
C980 C986 1.379 . S
C980 N988 1.356 . S
C981 C980 1.363 . S
C981 C987 1.363 . S
C982 C983 1.363 . S
C982 C987 1.379 . S
C982 N989 1.356 . S
C983 C982 1.363 . S
C983 C986 1.363 . S
N984 C986 1.356 . S
N984 H996 0.984 . S
N984 H997 0.985 . S
N985 C987 1.356 . S
N985 H990 0.984 . S
N985 H991 0.985 . S
C986 C980 1.379 . S
C986 C983 1.363 . S
C986 N984 1.356 . S
C987 C981 1.363 . S
C987 C982 1.379 . S
C987 N985 1.356 . S
N988 C980 1.356 . S
N988 H994 0.984 . S
N988 H995 0.984 . S
N989 C982 1.356 . S
N989 H992 0.984 . S
N989 H993 0.985 . S
H990 N985 0.984 . S
H991 N985 0.985 . S
H992 N989 0.984 . S
H993 N989 0.985 . S
H994 N988 0.984 . S
H995 N988 0.984 . S
H996 N984 0.984 . S
H997 N984 0.985 . S
C998 C999 1.363 . S
C998 C1004 1.379 . S
C998 N1006 1.356 . S
C999 C998 1.363 . S
C999 C1005 1.363 . S
C1000 C1001 1.363 . S
C1000 C1005 1.379 . S
C1000 N1007 1.356 . S
C1001 C1000 1.363 . S
C1001 C1004 1.363 . S
N1002 C1004 1.356 . S
N1002 H1014 0.984 . S
N1002 H1015 0.985 . S
N1003 C1005 1.356 . S
N1003 H1008 0.984 . S
N1003 H1009 0.985 . S
C1004 C998 1.379 . S
C1004 C1001 1.363 . S
C1004 N1002 1.356 . S
C1005 C999 1.363 . S
C1005 C1000 1.379 . S
C1005 N1003 1.356 . S
N1006 C998 1.356 . S
N1006 H1012 0.984 . S
N1006 H1013 0.984 . S
N1007 C1000 1.356 . S
N1007 H1010 0.984 . S
N1007 H1011 0.985 . S
H1008 N1003 0.984 . S
H1009 N1003 0.985 . S
H1010 N1007 0.984 . S
H1011 N1007 0.985 . S
H1012 N1006 0.984 . S
H1013 N1006 0.984 . S
H1014 N1002 0.984 . S
H1015 N1002 0.985 . S
C1016 C1017 1.363 . S
C1016 C1022 1.379 . S
C1016 N1024 1.356 . S
C1017 C1016 1.363 . S
C1017 C1023 1.363 . S
C1018 C1019 1.363 . S
C1018 C1023 1.379 . S
C1018 N1025 1.356 . S
C1019 C1018 1.363 . S
C1019 C1022 1.363 . S
N1020 C1022 1.356 . S
N1020 H1032 0.984 . S
N1020 H1033 0.985 . S
N1021 C1023 1.356 . S
N1021 H1026 0.984 . S
N1021 H1027 0.985 . S
C1022 C1016 1.379 . S
C1022 C1019 1.363 . S
C1022 N1020 1.356 . S
C1023 C1017 1.363 . S
C1023 C1018 1.379 . S
C1023 N1021 1.356 . S
N1024 C1016 1.356 . S
N1024 H1030 0.984 . S
N1024 H1031 0.984 . S
N1025 C1018 1.356 . S
N1025 H1028 0.984 . S
N1025 H1029 0.985 . S
H1026 N1021 0.984 . S
H1027 N1021 0.985 . S
H1028 N1025 0.984 . S
H1029 N1025 0.985 . S
H1030 N1024 0.984 . S
H1031 N1024 0.984 . S
H1032 N1020 0.984 . S
H1033 N1020 0.985 . S
C1034 C1035 1.363 . S
C1034 C1040 1.379 . S
C1034 N1042 1.356 . S
C1035 C1034 1.363 . S
C1035 C1041 1.363 . S
C1036 C1037 1.363 . S
C1036 C1041 1.379 . S
C1036 N1043 1.356 . S
C1037 C1036 1.363 . S
C1037 C1040 1.363 . S
N1038 C1040 1.356 . S
N1038 H1050 0.984 . S
N1038 H1051 0.985 . S
N1039 C1041 1.356 . S
N1039 H1044 0.984 . S
N1039 H1045 0.985 . S
C1040 C1034 1.379 . S
C1040 C1037 1.363 . S
C1040 N1038 1.356 . S
C1041 C1035 1.363 . S
C1041 C1036 1.379 . S
C1041 N1039 1.356 . S
N1042 C1034 1.356 . S
N1042 H1048 0.984 . S
N1042 H1049 0.984 . S
N1043 C1036 1.356 . S
N1043 H1046 0.984 . S
N1043 H1047 0.985 . S
H1044 N1039 0.984 . S
H1045 N1039 0.985 . S
H1046 N1043 0.984 . S
H1047 N1043 0.985 . S
H1048 N1042 0.984 . S
H1049 N1042 0.984 . S
H1050 N1038 0.984 . S
H1051 N1038 0.985 . S
C1052 C1053 1.363 . S
C1052 C1058 1.379 . S
C1052 N1060 1.356 . S
C1053 C1052 1.363 . S
C1053 C1059 1.363 . S
C1054 C1055 1.363 . S
C1054 C1059 1.379 . S
C1054 N1061 1.356 . S
C1055 C1054 1.363 . S
C1055 C1058 1.363 . S
N1056 C1058 1.356 . S
N1056 H1068 0.984 . S
N1056 H1069 0.985 . S
N1057 C1059 1.356 . S
N1057 H1062 0.984 . S
N1057 H1063 0.985 . S
C1058 C1052 1.379 . S
C1058 C1055 1.363 . S
C1058 N1056 1.356 . S
C1059 C1053 1.363 . S
C1059 C1054 1.379 . S
C1059 N1057 1.356 . S
N1060 C1052 1.356 . S
N1060 H1066 0.984 . S
N1060 H1067 0.984 . S
N1061 C1054 1.356 . S
N1061 H1064 0.984 . S
N1061 H1065 0.985 . S
H1062 N1057 0.984 . S
H1063 N1057 0.985 . S
H1064 N1061 0.984 . S
H1065 N1061 0.985 . S
H1066 N1060 0.984 . S
H1067 N1060 0.984 . S
H1068 N1056 0.984 . S
H1069 N1056 0.985 . S
C1070 C1071 1.363 . S
C1070 C1076 1.379 . S
C1070 N1078 1.356 . S
C1071 C1070 1.363 . S
C1071 C1077 1.363 . S
C1072 C1073 1.363 . S
C1072 C1077 1.379 . S
C1072 N1079 1.356 . S
C1073 C1072 1.363 . S
C1073 C1076 1.363 . S
N1074 C1076 1.356 . S
N1074 H1086 0.984 . S
N1074 H1087 0.985 . S
N1075 C1077 1.356 . S
N1075 H1080 0.984 . S
N1075 H1081 0.985 . S
C1076 C1070 1.379 . S
C1076 C1073 1.363 . S
C1076 N1074 1.356 . S
C1077 C1071 1.363 . S
C1077 C1072 1.379 . S
C1077 N1075 1.356 . S
N1078 C1070 1.356 . S
N1078 H1084 0.984 . S
N1078 H1085 0.984 . S
N1079 C1072 1.356 . S
N1079 H1082 0.984 . S
N1079 H1083 0.985 . S
H1080 N1075 0.984 . S
H1081 N1075 0.985 . S
H1082 N1079 0.984 . S
H1083 N1079 0.985 . S
H1084 N1078 0.984 . S
H1085 N1078 0.984 . S
H1086 N1074 0.984 . S
H1087 N1074 0.985 . S
C1088 C1089 1.363 . S
C1088 C1094 1.379 . S
C1088 N1096 1.356 . S
C1089 C1088 1.363 . S
C1089 C1095 1.363 . S
C1090 C1091 1.363 . S
C1090 C1095 1.379 . S
C1090 N1097 1.356 . S
C1091 C1090 1.363 . S
C1091 C1094 1.363 . S
N1092 C1094 1.356 . S
N1092 H1104 0.984 . S
N1092 H1105 0.985 . S
N1093 C1095 1.356 1_556 S
N1093 H1098 0.984 . S
N1093 H1099 0.985 . S
C1094 C1088 1.379 . S
C1094 C1091 1.363 . S
C1094 N1092 1.356 . S
C1095 C1089 1.363 . S
C1095 C1090 1.379 . S
C1095 N1093 1.356 1_554 S
N1096 C1088 1.356 . S
N1096 H1102 0.984 . S
N1096 H1103 0.984 1_554 S
N1097 C1090 1.356 . S
N1097 H1100 0.984 . S
N1097 H1101 0.985 . S
H1098 N1093 0.984 . S
H1099 N1093 0.985 . S
H1100 N1097 0.984 . S
H1101 N1097 0.985 . S
H1102 N1096 0.984 . S
H1103 N1096 0.984 1_556 S
H1104 N1092 0.984 . S
H1105 N1092 0.985 . S
C1106 C1107 1.363 . S
C1106 C1112 1.379 . S
C1106 N1114 1.356 . S
C1107 C1106 1.363 . S
C1107 C1113 1.363 . S
C1108 C1109 1.363 . S
C1108 C1113 1.379 . S
C1108 N1115 1.356 1_556 S
C1109 C1108 1.363 . S
C1109 C1112 1.363 . S
N1110 C1112 1.356 . S
N1110 H1122 0.984 . S
N1110 H1123 0.985 1_556 S
N1111 C1113 1.356 . S
N1111 H1116 0.984 . S
N1111 H1117 0.985 . S
C1112 C1106 1.379 . S
C1112 C1109 1.363 . S
C1112 N1110 1.356 . S
C1113 C1107 1.363 . S
C1113 C1108 1.379 . S
C1113 N1111 1.356 . S
N1114 C1106 1.356 . S
N1114 H1120 0.984 . S
N1114 H1121 0.984 . S
N1115 C1108 1.356 1_554 S
N1115 H1118 0.984 . S
N1115 H1119 0.985 . S
H1116 N1111 0.984 . S
H1117 N1111 0.985 . S
H1118 N1115 0.984 . S
H1119 N1115 0.985 . S
H1120 N1114 0.984 . S
H1121 N1114 0.984 . S
H1122 N1110 0.984 . S
H1123 N1110 0.985 1_554 S
C1124 C1125 1.363 . S
C1124 C1130 1.379 . S
C1124 N1132 1.356 . S
C1125 C1124 1.363 . S
C1125 C1131 1.363 . S
C1126 C1127 1.363 . S
C1126 C1131 1.379 . S
C1126 N1133 1.356 1_554 S
C1127 C1126 1.363 . S
C1127 C1130 1.363 . S
N1128 C1130 1.356 . S
N1128 H1140 0.984 . S
N1128 H1141 0.985 1_554 S
N1129 C1131 1.356 . S
N1129 H1134 0.984 . S
N1129 H1135 0.985 . S
C1130 C1124 1.379 . S
C1130 C1127 1.363 . S
C1130 N1128 1.356 . S
C1131 C1125 1.363 . S
C1131 C1126 1.379 . S
C1131 N1129 1.356 . S
N1132 C1124 1.356 . S
N1132 H1138 0.984 . S
N1132 H1139 0.984 . S
N1133 C1126 1.356 1_556 S
N1133 H1136 0.984 . S
N1133 H1137 0.985 . S
H1134 N1129 0.984 . S
H1135 N1129 0.985 . S
H1136 N1133 0.984 . S
H1137 N1133 0.985 . S
H1138 N1132 0.984 . S
H1139 N1132 0.984 . S
H1140 N1128 0.984 . S
H1141 N1128 0.985 1_556 S
C1142 C1143 1.363 . S
C1142 C1148 1.379 . S
C1142 N1150 1.356 . S
C1143 C1142 1.363 . S
C1143 C1149 1.363 . S
C1144 C1145 1.363 . S
C1144 C1149 1.379 . S
C1144 N1151 1.356 . S
C1145 C1144 1.363 . S
C1145 C1148 1.363 . S
N1146 C1148 1.356 . S
N1146 H1158 0.984 . S
N1146 H1159 0.985 . S
N1147 C1149 1.356 1_554 S
N1147 H1152 0.984 . S
N1147 H1153 0.985 . S
C1148 C1142 1.379 . S
C1148 C1145 1.363 . S
C1148 N1146 1.356 . S
C1149 C1143 1.363 . S
C1149 C1144 1.379 . S
C1149 N1147 1.356 1_556 S
N1150 C1142 1.356 . S
N1150 H1156 0.984 . S
N1150 H1157 0.984 1_556 S
N1151 C1144 1.356 . S
N1151 H1154 0.984 . S
N1151 H1155 0.985 . S
H1152 N1147 0.984 . S
H1153 N1147 0.985 . S
H1154 N1151 0.984 . S
H1155 N1151 0.985 . S
H1156 N1150 0.984 . S
H1157 N1150 0.984 1_554 S
H1158 N1146 0.984 . S
H1159 N1146 0.985 . S
C1160 C1161 1.363 . S
C1160 C1166 1.379 . S
C1160 N1168 1.356 . S
C1161 C1160 1.363 . S
C1161 C1167 1.363 . S
C1162 C1163 1.363 . S
C1162 C1167 1.379 . S
C1162 N1169 1.356 1_554 S
C1163 C1162 1.363 . S
C1163 C1166 1.363 . S
N1164 C1166 1.356 . S
N1164 H1176 0.984 . S
N1164 H1177 0.985 1_554 S
N1165 C1167 1.356 . S
N1165 H1170 0.984 . S
N1165 H1171 0.985 . S
C1166 C1160 1.379 . S
C1166 C1163 1.363 . S
C1166 N1164 1.356 . S
C1167 C1161 1.363 . S
C1167 C1162 1.379 . S
C1167 N1165 1.356 . S
N1168 C1160 1.356 . S
N1168 H1174 0.984 . S
N1168 H1175 0.984 . S
N1169 C1162 1.356 1_556 S
N1169 H1172 0.984 . S
N1169 H1173 0.985 . S
H1170 N1165 0.984 . S
H1171 N1165 0.985 . S
H1172 N1169 0.984 . S
H1173 N1169 0.985 . S
H1174 N1168 0.984 . S
H1175 N1168 0.984 . S
H1176 N1164 0.984 . S
H1177 N1164 0.985 1_556 S
C1178 C1179 1.363 . S
C1178 C1184 1.379 . S
C1178 N1186 1.356 . S
C1179 C1178 1.363 . S
C1179 C1185 1.363 . S
C1180 C1181 1.363 . S
C1180 C1185 1.379 . S
C1180 N1187 1.356 . S
C1181 C1180 1.363 . S
C1181 C1184 1.363 . S
N1182 C1184 1.356 . S
N1182 H1194 0.984 . S
N1182 H1195 0.985 . S
N1183 C1185 1.356 1_554 S
N1183 H1188 0.984 . S
N1183 H1189 0.985 . S
C1184 C1178 1.379 . S
C1184 C1181 1.363 . S
C1184 N1182 1.356 . S
C1185 C1179 1.363 . S
C1185 C1180 1.379 . S
C1185 N1183 1.356 1_556 S
N1186 C1178 1.356 . S
N1186 H1192 0.984 . S
N1186 H1193 0.984 1_556 S
N1187 C1180 1.356 . S
N1187 H1190 0.984 . S
N1187 H1191 0.985 . S
H1188 N1183 0.984 . S
H1189 N1183 0.985 . S
H1190 N1187 0.984 . S
H1191 N1187 0.985 . S
H1192 N1186 0.984 . S
H1193 N1186 0.984 1_554 S
H1194 N1182 0.984 . S
H1195 N1182 0.985 . S
C1196 C1197 1.363 . S
C1196 C1202 1.379 . S
C1196 N1204 1.356 . S
C1197 C1196 1.363 . S
C1197 C1203 1.363 . S
C1198 C1199 1.363 . S
C1198 C1203 1.379 . S
C1198 N1205 1.356 . S
C1199 C1198 1.363 . S
C1199 C1202 1.363 . S
N1200 C1202 1.356 . S
N1200 H1212 0.984 . S
N1200 H1213 0.985 . S
N1201 C1203 1.356 1_556 S
N1201 H1206 0.984 . S
N1201 H1207 0.985 . S
C1202 C1196 1.379 . S
C1202 C1199 1.363 . S
C1202 N1200 1.356 . S
C1203 C1197 1.363 . S
C1203 C1198 1.379 . S
C1203 N1201 1.356 1_554 S
N1204 C1196 1.356 . S
N1204 H1210 0.984 . S
N1204 H1211 0.984 1_554 S
N1205 C1198 1.356 . S
N1205 H1208 0.984 . S
N1205 H1209 0.985 . S
H1206 N1201 0.984 . S
H1207 N1201 0.985 . S
H1208 N1205 0.984 . S
H1209 N1205 0.985 . S
H1210 N1204 0.984 . S
H1211 N1204 0.984 1_556 S
H1212 N1200 0.984 . S
H1213 N1200 0.985 . S
C1214 C1215 1.363 . S
C1214 C1220 1.379 . S
C1214 N1222 1.356 . S
C1215 C1214 1.363 . S
C1215 C1221 1.363 . S
C1216 C1217 1.363 . S
C1216 C1221 1.379 . S
C1216 N1223 1.356 1_556 S
C1217 C1216 1.363 . S
C1217 C1220 1.363 . S
N1218 C1220 1.356 . S
N1218 H1230 0.984 . S
N1218 H1231 0.985 1_556 S
N1219 C1221 1.356 . S
N1219 H1224 0.984 . S
N1219 H1225 0.985 . S
C1220 C1214 1.379 . S
C1220 C1217 1.363 . S
C1220 N1218 1.356 . S
C1221 C1215 1.363 . S
C1221 C1216 1.379 . S
C1221 N1219 1.356 . S
N1222 C1214 1.356 . S
N1222 H1228 0.984 . S
N1222 H1229 0.984 . S
N1223 C1216 1.356 1_554 S
N1223 H1226 0.984 . S
N1223 H1227 0.985 . S
H1224 N1219 0.984 . S
H1225 N1219 0.985 . S
H1226 N1223 0.984 . S
H1227 N1223 0.985 . S
H1228 N1222 0.984 . S
H1229 N1222 0.984 . S
H1230 N1218 0.984 . S
H1231 N1218 0.985 1_554 S
C369 C274 1.491 . S
C371 C20 1.556 . S
C387 C205 1.486 . S
C389 C42 1.587 . S
C405 C66 1.556 . S
C407 C228 1.491 . S
C423 C88 1.587 . S
C425 C251 1.486 . S
C441 C112 1.556 . S
C443 C136 1.491 . S
C459 C159 1.486 . S
C461 C134 1.587 . S
C477 C158 1.556 . S
C479 C182 1.491 . S
C495 C113 1.486 . S
C497 C180 1.587 . S
C513 C90 1.491 . S
C515 C204 1.556 . S
C531 C226 1.587 . S
C533 C21 1.486 . S
C549 C44 1.491 . S
C551 C250 1.556 . S
C567 C67 1.486 . S
C569 C272 1.587 . S
C585 C296 1.556 . S
C587 C320 1.491 . S
C603 C343 1.486 . S
C605 C318 1.587 . S
C621 C366 1.491 . S
C623 C342 1.556 . S
C639 C364 1.587 . S
C641 C297 1.486 . S
C657 C19 1.326 . S
C659 C111 1.326 . S
C675 C135 1.390 . S
C677 C43 1.390 . S
C693 C65 1.326 . S
C695 C157 1.326 . S
C711 C89 1.390 . S
C713 C181 1.390 . S
C729 C203 1.326 . S
C731 C295 1.326 . S
C747 C319 1.390 . S
C749 C227 1.390 . S
C765 C249 1.326 . S
C767 C341 1.326 . S
C783 C273 1.390 . S
C785 C365 1.390 . S
C801 C340 1.674 . S
C803 C18 1.674 1_556 S
C819 C41 1.688 1_554 S
C821 C363 1.688 . S
C837 C64 1.674 1_556 S
C839 C294 1.674 . S
C855 C87 1.688 1_554 S
C857 C317 1.688 . S
C873 C110 1.674 . S
C875 C248 1.674 . S
C891 C133 1.688 . S
C893 C271 1.688 . S
C909 C156 1.674 . S
C911 C202 1.674 . S
C927 C225 1.688 . S
C929 C179 1.688 . S
C945 C17 1.162 . S
C947 C16 1.156 . S
C963 C40 1.150 . S
C965 C39 1.143 . S
C981 C63 1.162 . S
C983 C62 1.156 . S
C999 C85 1.143 . S
C1001 C86 1.150 . S
C1017 C108 1.156 . S
C1019 C109 1.162 . S
C1035 C132 1.150 . S
C1037 C131 1.143 . S
C1053 C155 1.162 . S
C1055 C154 1.156 . S
C1071 C177 1.143 . S
C1073 C178 1.150 . S
C1089 C201 1.162 1_554 S
C1091 C200 1.156 . S
C1107 C223 1.143 . S
C1109 C224 1.150 1_556 S
C1125 C246 1.156 . S
C1127 C247 1.162 1_554 S
C1143 C270 1.150 1_556 S
C1145 C269 1.143 . S
C1161 C293 1.162 . S
C1163 C292 1.156 1_554 S
C1179 C315 1.143 1_556 S
C1181 C316 1.150 . S
C1197 C338 1.156 1_554 S
C1199 C339 1.162 . S
C1215 C362 1.150 . S
C1217 C361 1.143 1_556 S
