# Generated by pormake.
# Topology wkj, (6)-cn, num edge types: 1
# Building blocks:
#     Node 0, Type 0, BuildingBlock: NUHQIS_clean_sbu_0, # of connection points: 6
#     Node 1, Type 0, BuildingBlock: NUHQIS_clean_sbu_0, # of connection points: 6
#     Node 2, Type 0, BuildingBlock: NUHQIS_clean_sbu_0, # of connection points: 6
#     Node 3, Type 0, BuildingBlock: NUHQIS_clean_sbu_0, # of connection points: 6
#     Node 4, Type 0, BuildingBlock: NUHQIS_clean_sbu_0, # of connection points: 6
#     Node 5, Type 0, BuildingBlock: NUHQIS_clean_sbu_0, # of connection points: 6
#     Node 6, Type 0, BuildingBlock: NUHQIS_clean_sbu_0, # of connection points: 6
#     Node 7, Type 0, BuildingBlock: NUHQIS_clean_sbu_0, # of connection points: 6
#     Node 8, Type 0, BuildingBlock: NUHQIS_clean_sbu_0, # of connection points: 6
#     Node 9, Type 0, BuildingBlock: NUHQIS_clean_sbu_0, # of connection points: 6
#     Node 10, Type 0, BuildingBlock: NUHQIS_clean_sbu_0, # of connection points: 6
#     Node 11, Type 0, BuildingBlock: NUHQIS_clean_sbu_0, # of connection points: 6
#     Edge 12, Type (0, 0), BuildingBlock: KIFKEQ_clean_linker_1, # of connection points: 2
#     Edge 13, Type (0, 0), BuildingBlock: KIFKEQ_clean_linker_1, # of connection points: 2
#     Edge 14, Type (0, 0), BuildingBlock: KIFKEQ_clean_linker_1, # of connection points: 2
#     Edge 15, Type (0, 0), BuildingBlock: KIFKEQ_clean_linker_1, # of connection points: 2
#     Edge 16, Type (0, 0), BuildingBlock: KIFKEQ_clean_linker_1, # of connection points: 2
#     Edge 17, Type (0, 0), BuildingBlock: KIFKEQ_clean_linker_1, # of connection points: 2
#     Edge 18, Type (0, 0), BuildingBlock: KIFKEQ_clean_linker_1, # of connection points: 2
#     Edge 19, Type (0, 0), BuildingBlock: KIFKEQ_clean_linker_1, # of connection points: 2
#     Edge 20, Type (0, 0), BuildingBlock: KIFKEQ_clean_linker_1, # of connection points: 2
#     Edge 21, Type (0, 0), BuildingBlock: KIFKEQ_clean_linker_1, # of connection points: 2
#     Edge 22, Type (0, 0), BuildingBlock: KIFKEQ_clean_linker_1, # of connection points: 2
#     Edge 23, Type (0, 0), BuildingBlock: KIFKEQ_clean_linker_1, # of connection points: 2
#     Edge 24, Type (0, 0), BuildingBlock: KIFKEQ_clean_linker_1, # of connection points: 2
#     Edge 25, Type (0, 0), BuildingBlock: KIFKEQ_clean_linker_1, # of connection points: 2
#     Edge 26, Type (0, 0), BuildingBlock: KIFKEQ_clean_linker_1, # of connection points: 2
#     Edge 27, Type (0, 0), BuildingBlock: KIFKEQ_clean_linker_1, # of connection points: 2
#     Edge 28, Type (0, 0), BuildingBlock: KIFKEQ_clean_linker_1, # of connection points: 2
#     Edge 29, Type (0, 0), BuildingBlock: KIFKEQ_clean_linker_1, # of connection points: 2
#     Edge 30, Type (0, 0), BuildingBlock: KIFKEQ_clean_linker_1, # of connection points: 2
#     Edge 31, Type (0, 0), BuildingBlock: KIFKEQ_clean_linker_1, # of connection points: 2
#     Edge 32, Type (0, 0), BuildingBlock: KIFKEQ_clean_linker_1, # of connection points: 2
#     Edge 33, Type (0, 0), BuildingBlock: KIFKEQ_clean_linker_1, # of connection points: 2
#     Edge 34, Type (0, 0), BuildingBlock: KIFKEQ_clean_linker_1, # of connection points: 2
#     Edge 35, Type (0, 0), BuildingBlock: KIFKEQ_clean_linker_1, # of connection points: 2
#     Edge 36, Type (0, 0), BuildingBlock: KIFKEQ_clean_linker_1, # of connection points: 2
#     Edge 37, Type (0, 0), BuildingBlock: KIFKEQ_clean_linker_1, # of connection points: 2
#     Edge 38, Type (0, 0), BuildingBlock: KIFKEQ_clean_linker_1, # of connection points: 2
#     Edge 39, Type (0, 0), BuildingBlock: KIFKEQ_clean_linker_1, # of connection points: 2
#     Edge 40, Type (0, 0), BuildingBlock: KIFKEQ_clean_linker_1, # of connection points: 2
#     Edge 41, Type (0, 0), BuildingBlock: KIFKEQ_clean_linker_1, # of connection points: 2
#     Edge 42, Type (0, 0), BuildingBlock: KIFKEQ_clean_linker_1, # of connection points: 2
#     Edge 43, Type (0, 0), BuildingBlock: KIFKEQ_clean_linker_1, # of connection points: 2
#     Edge 44, Type (0, 0), BuildingBlock: KIFKEQ_clean_linker_1, # of connection points: 2
#     Edge 45, Type (0, 0), BuildingBlock: KIFKEQ_clean_linker_1, # of connection points: 2
#     Edge 46, Type (0, 0), BuildingBlock: KIFKEQ_clean_linker_1, # of connection points: 2
#     Edge 47, Type (0, 0), BuildingBlock: KIFKEQ_clean_linker_1, # of connection points: 2
# Relax obj value: 0.742
# Max RMSD: 0.176
# Mean RMSD: 0.176
data_MOF--net-wkj--node1-NUHQIS_clean_sbu_0--edge1-KIFKEQ_clean_linker_1
_symmetry_space_group_name_H-M    P1
_symmetry_Int_Tables_number       1
_symmetry_cell_setting            triclinic
loop_
_symmetry_equiv_pos_as_xyz
'x, y, z'
_cell_length_a     49.884518
_cell_length_b     50.019527
_cell_length_c     30.174278
_cell_angle_alpha  89.941622
_cell_angle_beta   89.876384
_cell_angle_gamma 119.8324
loop_
_atom_site_label
_atom_site_type_symbol
_atom_site_fract_x
_atom_site_fract_y
_atom_site_fract_z
_atom_type_partial_charge
Tb0 Tb 0.47399 0.08753 0.38378 0.0
Eu1 Eu 0.5458 0.11374 0.35928 0.0
C2 C 0.51372 0.15687 0.35196 0.0
C3 C 0.49092 0.06744 0.28742 0.0
C4 C 0.39827 0.07206 0.43052 0.0
C5 C 0.34729 0.05653 0.45979 0.0
C6 C 0.36618 0.05721 0.42504 0.0
C7 C 0.41158 0.08866 0.46935 0.0
C8 C 0.39277 0.08779 0.50421 0.0
C9 C 0.36034 0.07035 0.50068 0.0
C10 C 0.41709 0.06647 0.39869 0.0
O11 O 0.48518 0.05115 0.37973 0.0
O12 O 0.53393 0.07336 0.40341 0.0
O13 O 0.54636 0.11829 0.43678 0.0
O14 O 0.49468 0.09738 0.45347 0.0
C15 C 0.50546 0.05093 0.40665 0.0
O16 O 0.58381 0.11602 0.31959 0.0
O17 O 0.59334 0.14845 0.37281 0.0
O18 O 0.53372 0.14992 0.33472 0.0
O19 O 0.49244 0.13748 0.37942 0.0
O20 O 0.47162 0.07295 0.31161 0.0
O21 O 0.51978 0.07858 0.30197 0.0
C22 C 0.52402 0.10928 0.46724 0.0
O23 O 0.43296 0.08831 0.37014 0.0
O24 O 0.43347 0.05536 0.41573 0.0
C25 C 0.62303 0.16771 0.30845 0.0
C26 C 0.6556 0.21591 0.24711 0.0
C27 C 0.66565 0.19472 0.25675 0.0
C28 C 0.64943 0.17075 0.28722 0.0
C29 C 0.61381 0.18955 0.3003 0.0
C30 C 0.62986 0.21334 0.27009 0.0
C31 C 0.60443 0.1416 0.33826 0.0
H32 H 0.32245 0.04338 0.45572 0.0
H33 H 0.35562 0.04449 0.39499 0.0
H34 H 0.4364 0.10035 0.47397 0.0
H35 H 0.40378 0.09849 0.53518 0.0
H36 H 0.68544 0.19609 0.23975 0.0
H37 H 0.65702 0.15422 0.29337 0.0
H38 H 0.59358 0.18776 0.31642 0.0
H39 H 0.62085 0.22861 0.26297 0.0
Tb40 Tb 0.37241 0.45813 0.72275 0.0
Eu41 Eu 0.42406 0.52429 0.69553 0.0
C42 C 0.35085 0.50403 0.6928 0.0
C43 C 0.40743 0.46997 0.62395 0.0
C44 C 0.30528 0.39421 0.77912 0.0
C45 C 0.26462 0.3506 0.81864 0.0
C46 C 0.28239 0.36309 0.78033 0.0
C47 C 0.30848 0.41334 0.81496 0.0
C48 C 0.29105 0.40086 0.8534 0.0
C49 C 0.26995 0.36901 0.85652 0.0
C50 C 0.32854 0.40558 0.74373 0.0
O51 O 0.4112 0.45144 0.7145 0.0
O52 O 0.44649 0.50033 0.73245 0.0
O53 O 0.42613 0.53092 0.77088 0.0
O54 O 0.39035 0.48169 0.79071 0.0
C55 C 0.4373 0.47056 0.73247 0.0
O56 O 0.45748 0.55808 0.64874 0.0
O57 O 0.44917 0.57319 0.71166 0.0
O58 O 0.37752 0.51914 0.67194 0.0
O59 O 0.34784 0.48407 0.72311 0.0
O60 O 0.38163 0.454 0.64863 0.0
O61 O 0.42921 0.49668 0.63928 0.0
C62 C 0.41196 0.51044 0.80258 0.0
O63 O 0.32625 0.42305 0.71359 0.0
O64 O 0.35687 0.41688 0.75757 0.0
C65 C 0.45001 0.60104 0.64843 0.0
C66 C 0.42165 0.62451 0.59217 0.0
C67 C 0.45079 0.62824 0.58135 0.0
C68 C 0.46483 0.61644 0.60927 0.0
C69 C 0.4224 0.60014 0.66123 0.0
C70 C 0.4084 0.6118 0.63338 0.0
C71 C 0.45983 0.58132 0.67154 0.0
H72 H 0.24811 0.32615 0.81953 0.0
H73 H 0.27952 0.34808 0.7527 0.0
H74 H 0.32604 0.4375 0.81445 0.0
H75 H 0.29616 0.41584 0.88178 0.0
H76 H 0.46134 0.63762 0.54947 0.0
H77 H 0.48599 0.61727 0.59864 0.0
H78 H 0.41026 0.58833 0.69119 0.0
H79 H 0.38597 0.60865 0.64245 0.0
Tb80 Tb 0.90259 0.37697 1.06608 0.0
Eu81 Eu 0.87587 0.41987 1.03676 0.0
C82 C 0.8344 0.34537 1.02754 0.0
C83 C 0.92231 0.41097 0.96673 0.0
C84 C 0.93909 0.33254 1.1151 0.0
C85 C 0.9812 0.32337 1.13352 0.0
C86 C 0.96634 0.33265 1.10321 0.0
C87 C 0.92662 0.32265 0.15768 0.0
C88 C 0.94135 0.31313 0.1879 0.0
C89 C 0.9688 0.31349 0.17611 0.0
C90 C 0.92323 0.34087 1.08148 0.0
O91 O 0.93522 0.42016 1.0967 0.0
O92 O 0.91898 0.4535 1.07232 0.0
O93 O 0.87025 0.41811 1.11428 0.0
O94 O 0.89284 0.38962 1.13467 0.0
C95 C 0.93621 0.44691 1.09793 0.0
O96 O 0.86945 0.45118 0.99274 0.0
O97 O 0.84069 0.43227 1.05091 0.0
O98 O 0.84111 0.3722 1.01102 0.0
O99 O 0.85347 0.34356 1.05551 0.0
O100 O 0.91889 0.38869 0.9945 0.0
O101 O 0.9096 0.42787 0.97801 0.0
C102 C 0.88008 0.40674 0.14638 0.0
O103 O 0.89498 0.33439 1.08987 0.0
O104 O 0.93925 0.36765 1.06238 0.0
C105 C 0.81589 0.43261 0.98494 0.0
C106 C 0.7686 0.40225 0.92201 0.0
C107 C 0.79136 0.43334 0.9159 0.0
C108 C 0.81489 0.44838 0.94713 0.0
C109 C 0.79159 0.40239 0.99279 0.0
C110 C 0.76816 0.38743 0.9617 0.0
C111 C 0.84394 0.4457 1.0127 0.0
H112 H 0.00233 0.32384 1.12368 0.0
H113 H 0.9761 0.33981 1.0703 0.0
H114 H 0.90555 0.32224 0.16768 0.0
H115 H 0.93164 0.30616 0.22085 0.0
H116 H 0.79248 0.44525 0.88534 0.0
H117 H 0.83335 0.47161 0.94035 0.0
H118 H 0.7916 0.38948 1.02163 0.0
H119 H 0.75086 0.36354 0.96732 0.0
Tb120 Tb 0.52196 0.90103 0.385 0.0
Eu121 Eu 0.45046 0.87292 0.3616 0.0
C122 C 0.48349 0.83141 0.34635 0.0
C123 C 0.50446 0.9214 0.28945 0.0
C124 C 0.6041 0.93534 0.42911 0.0
C125 C 0.6435 0.93363 0.47422 0.0
C126 C 0.61873 0.91944 0.44491 0.0
C127 C 0.61524 0.96604 0.44194 0.0
C128 C 0.64015 0.9803 0.47097 0.0
C129 C 0.65429 0.96412 0.48774 0.0
C130 C 0.5787 0.92 0.39721 0.0
O131 O 0.51118 0.93032 0.42419 0.0
O132 O 0.46393 0.91825 0.39481 0.0
O133 O 0.4489 0.86839 0.4388 0.0
O134 O 0.50024 0.8868 0.45453 0.0
C135 C 0.48635 0.93301 0.4236 0.0
O136 O 0.41332 0.86988 0.31934 0.0
O137 O 0.40215 0.84171 0.37807 0.0
O138 O 0.4576 0.8321 0.34826 0.0
O139 O 0.50989 0.85611 0.35575 0.0
O140 O 0.52476 0.92671 0.32159 0.0
O141 O 0.47525 0.89949 0.29614 0.0
C142 C 0.47095 0.87559 0.46886 0.0
O143 O 0.55674 0.89233 0.40736 0.0
O144 O 0.568 0.93635 0.37871 0.0
C145 C 0.37218 0.81879 0.31508 0.0
C146 C 0.34025 0.76922 0.25594 0.0
C147 C 0.33033 0.79083 0.26299 0.0
C148 C 0.34636 0.81558 0.29214 0.0
C149 C 0.3806 0.79605 0.31069 0.0
C150 C 0.36495 0.77164 0.28148 0.0
C151 C 0.39175 0.84658 0.34123 0.0
H152 H 0.65399 0.92068 0.48675 0.0
H153 H 0.61086 0.89591 0.43474 0.0
H154 H 0.6046 0.97898 0.42994 0.0
H155 H 0.64761 0.00365 0.4816 0.0
H156 H 0.31114 0.78949 0.24448 0.0
H157 H 0.33931 0.83277 0.29549 0.0
H158 H 0.40024 0.79782 0.32839 0.0
H159 H 0.37386 0.75604 0.27678 0.0
Tb160 Tb 0.63166 0.53854 0.72387 0.0
Eu161 Eu 0.57834 0.47317 0.70032 0.0
C162 C 0.65133 0.49173 0.69032 0.0
C163 C 0.59257 0.52571 0.62846 0.0
C164 C 0.68624 0.61964 0.76214 0.0
C165 C 0.70867 0.64807 0.82999 0.0
C166 C 0.70113 0.62275 0.80283 0.0
C167 C 0.68069 0.64325 0.74802 0.0
C168 C 0.68816 0.66853 0.77525 0.0
C169 C 0.70162 0.67085 0.81691 0.0
C170 C 0.6772 0.59236 0.73397 0.0
O171 O 0.59627 0.54527 0.75159 0.0
O172 O 0.55513 0.49734 0.73543 0.0
O173 O 0.58072 0.46675 0.77495 0.0
O174 O 0.61417 0.51691 0.79346 0.0
C175 C 0.56694 0.5253 0.75305 0.0
O176 O 0.5465 0.43916 0.65288 0.0
O177 O 0.54919 0.42494 0.71941 0.0
O178 O 0.6234 0.47583 0.6733 0.0
O179 O 0.65671 0.51356 0.71841 0.0
O180 O 0.61955 0.54035 0.65036 0.0
O181 O 0.57043 0.50039 0.64648 0.0
C182 C 0.59414 0.48765 0.80611 0.0
O183 O 0.67485 0.56784 0.7528 0.0
O184 O 0.6547 0.58531 0.70625 0.0
C185 C 0.54892 0.39381 0.66078 0.0
C186 C 0.57604 0.36632 0.60997 0.0
C187 C 0.54703 0.36252 0.59821 0.0
C188 C 0.53363 0.37631 0.62339 0.0
C189 C 0.57613 0.39465 0.67523 0.0
C190 C 0.5895 0.38091 0.65013 0.0
C191 C 0.54049 0.416 0.67888 0.0
H192 H 0.71869 0.64902 0.86217 0.0
H193 H 0.70631 0.60528 0.81423 0.0
H194 H 0.66999 0.64191 0.71628 0.0
H195 H 0.68274 0.68591 0.76419 0.0
H196 H 0.53625 0.35168 0.56717 0.0
H197 H 0.51277 0.37553 0.61154 0.0
H198 H 0.58856 0.40811 0.70389 0.0
H199 H 0.61177 0.3841 0.66003 0.0
Tb200 Tb 0.09528 0.60682 1.06145 0.0
Eu201 Eu 0.12028 0.56106 1.03293 0.0
C202 C 0.16435 0.63599 1.03097 0.0
C203 C 0.07811 0.57556 0.96104 0.0
C204 C 0.07687 0.66578 1.10894 0.0
C205 C 0.05875 0.70045 1.13204 0.0
C206 C 0.06195 0.68252 1.09934 0.0
C207 C 0.09101 0.66921 0.15025 0.0
C208 C 0.08785 0.68718 0.18301 0.0
C209 C 0.07039 0.70174 0.17482 0.0
C210 C 0.07347 0.64179 1.07797 0.0
O211 O 0.05905 0.56017 1.04943 0.0
O212 O 0.0778 0.53057 1.07251 0.0
O213 O 0.12298 0.56117 1.11072 0.0
O214 O 0.10256 0.59192 1.13003 0.0
C215 C 0.05621 0.53796 1.07512 0.0
O216 O 0.12466 0.52836 0.98926 0.0
O217 O 0.15476 0.5476 1.04595 0.0
O218 O 0.15649 0.60976 1.01107 0.0
O219 O 0.14548 0.6373 1.06008 0.0
O220 O 0.08393 0.5993 0.98765 0.0
O221 O 0.08717 0.55584 0.97432 0.0
C222 C 0.11351 0.57331 0.14229 0.0
O223 O 0.09597 0.64875 1.05004 0.0
O224 O 0.06307 0.61446 1.09495 0.0
C225 C 0.17794 0.54565 0.97901 0.0
C226 C 0.2246 0.57533 0.91457 0.0
C227 C 0.20022 0.5451 0.90759 0.0
C228 C 0.177 0.53039 0.93959 0.0
C229 C 0.20384 0.57477 0.9875 0.0
C230 C 0.22692 0.5894 0.95563 0.0
C231 C 0.15042 0.53355 1.00808 0.0
H232 H 0.0454 0.71162 1.12478 0.0
H233 H 0.05101 0.68015 1.06747 0.0
H234 H 0.10263 0.65639 0.15811 0.0
H235 H 0.09681 0.68748 0.21579 0.0
H236 H 0.19769 0.53383 0.87599 0.0
H237 H 0.15733 0.50799 0.93229 0.0
H238 H 0.20545 0.58728 1.01757 0.0
H239 H 0.24549 0.61263 0.96188 0.0
Tb240 Tb 0.91857 0.54041 0.56724 0.0
Eu241 Eu 0.90456 0.47319 0.58515 0.0
C242 C 0.85367 0.49378 0.60493 0.0
C243 C 0.94828 0.52706 0.65802 0.0
C244 C 0.93804 0.61726 0.51969 0.0
C245 C 0.94106 0.63549 0.4442 0.0
C246 C 0.92588 0.6129 0.47666 0.0
C247 C 0.96465 0.64522 0.53022 0.0
C248 C 0.98 0.66761 0.49767 0.0
C249 C 0.9687 0.66264 0.45417 0.0
C250 C 0.92426 0.59282 0.55367 0.0
O251 O 0.95584 0.54363 0.5297 0.0
O252 O 0.95321 0.4987 0.5539 0.0
O253 O 0.89954 0.4689 0.51073 0.0
O254 O 0.90414 0.51613 0.49787 0.0
C255 C 0.9666 0.52479 0.53071 0.0
O256 O 0.89442 0.43755 0.63467 0.0
O257 O 0.89397 0.42684 0.56543 0.0
O258 O 0.85749 0.47184 0.58752 0.0
O259 O 0.8783 0.52056 0.61094 0.0
O260 O 0.94811 0.54733 0.62905 0.0
O261 O 0.93136 0.49742 0.64873 0.0
C262 C 0.89955 0.4887 0.48219 0.0
O263 O 0.89966 0.56692 0.54303 0.0
O264 O 0.94385 0.58818 0.57617 0.0
C265 C 0.85344 0.3909 0.61083 0.0
C266 C 0.79266 0.35914 0.64369 0.0
C267 C 0.81561 0.3539 0.66192 0.0
C268 C 0.84589 0.36986 0.64572 0.0
C269 C 0.82971 0.39296 0.58884 0.0
C270 C 0.79949 0.37712 0.6051 0.0
C271 C 0.88559 0.41574 0.60528 0.0
H272 H 0.93208 0.63097 0.41072 0.0
H273 H 0.90528 0.5917 0.4676 0.0
H274 H 0.97422 0.64931 0.56335 0.0
H275 H 0.00122 0.6884 0.50613 0.0
H276 H 0.81116 0.34038 0.69191 0.0
H277 H 0.86389 0.36812 0.66329 0.0
H278 H 0.83499 0.40915 0.56185 0.0
H279 H 0.78223 0.38143 0.59028 0.0
Tb280 Tb 0.38449 0.90488 0.89597 0.0
Eu281 Eu 0.43375 0.88296 0.91813 0.0
C282 C 0.35962 0.83788 0.93755 0.0
C283 C 0.42241 0.92902 0.98946 0.0
C284 C 0.33847 0.93665 0.84043 0.0
C285 C 0.34704 0.95761 0.76611 0.0
C286 C 0.35178 0.94038 0.79833 0.0
C287 C 0.31909 0.94886 0.84929 0.0
C288 C 0.31378 0.96554 0.81674 0.0
C289 C 0.3283 0.97058 0.77533 0.0
C290 C 0.3456 0.92146 0.87622 0.0
O291 O 0.43061 0.94361 0.89007 0.0
O292 O 0.46001 0.92294 0.8718 0.0
O293 O 0.42892 0.87506 0.8422 0.0
O294 O 0.3951 0.8925 0.82683 0.0
C295 C 0.45113 0.94305 0.86395 0.0
O296 O 0.46227 0.87747 0.96839 0.0
O297 O 0.46074 0.86072 0.9023 0.0
O298 O 0.38651 0.83992 0.92947 0.0
O299 O 0.35602 0.86194 0.93227 0.0
O300 O 0.39708 0.92249 0.96629 0.0
O301 O 0.44066 0.91855 0.97433 0.0
C302 C 0.41346 0.88162 0.81244 0.0
O303 O 0.34185 0.89427 0.86783 0.0
O304 O 0.37122 0.93863 0.89738 0.0
C305 C 0.4572 0.82826 0.96165 0.0
C306 C 0.42257 0.77123 1.0055 0.0
C307 C 0.44625 0.79686 1.02778 0.0
C308 C 0.46342 0.82507 1.006 0.0
C309 C 0.43625 0.80179 0.93796 0.0
C310 C 0.41922 0.77351 0.95967 0.0
C311 C 0.46766 0.85939 0.94344 0.0
H312 H 0.35816 0.96103 0.73408 0.0
H313 H 0.36621 0.93047 0.7907 0.0
H314 H 0.30854 0.94599 0.88167 0.0
H315 H 0.29926 0.97538 0.82433 0.0
H316 H 0.44951 0.7962 1.06314 0.0
H317 H 0.47954 0.84504 1.02492 0.0
H318 H 0.43112 0.8033 0.9035 0.0
H319 H 0.40167 0.7541 0.94132 0.0
Tb320 Tb 0.45565 0.37061 0.21726 0.0
Eu321 Eu 0.52313 0.42344 0.24292 0.0
C322 C 0.50148 0.34939 0.25671 0.0
C323 C 0.46677 0.4086 0.31283 0.0
C324 C 0.37435 0.32653 0.17691 0.0
C325 C 0.3313 0.30322 1.12585 0.0
C326 C 0.35618 0.30322 0.14686 0.0
C327 C 0.36651 0.34912 0.18741 0.0
C328 C 0.34141 0.34899 0.16668 0.0
C329 C 0.32403 0.32654 1.13466 0.0
C330 C 0.40261 0.32813 0.19409 0.0
O331 O 0.44828 0.40886 0.21181 0.0
O332 O 0.49924 0.44491 0.20328 0.0
O333 O 0.5314 0.42209 0.16901 0.0
O334 O 0.48134 0.38852 0.14992 0.0
C335 C 0.46952 0.43543 0.19741 0.0
O336 O 0.55573 0.45364 0.2931 0.0
O337 O 0.57137 0.45549 0.22599 0.0
O338 O 0.52295 0.37852 0.26191 0.0
O339 O 0.47496 0.34229 0.2387 0.0
O340 O 0.44947 0.38343 0.2882 0.0
O341 O 0.49472 0.42863 0.29856 0.0
C342 C 0.51076 0.40846 0.13767 0.0
O343 O 0.42642 0.34092 0.16782 0.0
O344 O 0.41017 0.3375 0.23466 0.0
C345 C 0.60233 0.45376 0.28342 0.0
C346 C 0.6298 0.42525 0.3308 0.0
C347 C 0.63312 0.45347 0.34533 0.0
C348 C 0.61931 0.46756 0.32186 0.0
C349 C 0.60216 0.42752 0.26625 0.0
C350 C 0.61584 0.41342 0.28973 0.0
C351 C 0.57957 0.46205 0.26722 0.0
H352 H 0.31893 0.2859 1.10083 0.0
H353 H 0.36203 0.28571 0.13824 0.0
H354 H 0.38033 0.36737 0.21056 0.0
H355 H 0.33627 0.36707 0.17464 0.0
H356 H 0.64349 0.4629 0.37718 0.0
H357 H 0.61953 0.48762 0.33582 0.0
H358 H 0.5891 0.41624 0.23673 0.0
H359 H 0.61302 0.39173 0.27787 0.0
Tb360 Tb 0.08512 0.45072 0.57274 0.0
Eu361 Eu 0.09367 0.51537 0.5856 0.0
C362 C 0.1463 0.49929 0.61176 0.0
C363 C 0.05153 0.46165 0.66085 0.0
C364 C 0.08478 0.3823 0.52296 0.0
C365 C 0.08931 0.37305 0.44517 0.0
C366 C 0.09712 0.39338 0.48066 0.0
C367 C 0.06575 0.3505 0.52963 0.0
C368 C 0.05765 0.33017 0.49397 0.0
C369 C 0.06879 0.34138 0.45124 0.0
C370 C 0.09003 0.40353 0.55981 0.0
O371 O 0.04222 0.43925 0.54361 0.0
O372 O 0.0465 0.48707 0.5515 0.0
O373 O 0.09813 0.51953 0.51122 0.0
O374 O 0.09677 0.47356 0.50162 0.0
C375 C 0.03192 0.45816 0.53697 0.0
O376 O 0.10287 0.55084 0.63473 0.0
O377 O 0.10158 0.5608 0.56542 0.0
O378 O 0.14195 0.51897 0.58849 0.0
O379 O 0.12152 0.47361 0.62166 0.0
O380 O 0.05776 0.4426 0.63737 0.0
O381 O 0.06259 0.49016 0.64606 0.0
C382 C 0.09921 0.49974 0.4839 0.0
O383 O 0.11286 0.43177 0.55539 0.0
O384 O 0.06535 0.40264 0.57609 0.0
C385 C 0.14226 0.59799 0.60913 0.0
C386 C 0.20328 0.62928 0.64045 0.0
C387 C 0.18039 0.63387 0.66059 0.0
C388 C 0.14998 0.61813 0.64513 0.0
C389 C 0.16597 0.59708 0.58508 0.0
C390 C 0.19633 0.61273 0.60057 0.0
C391 C 0.11038 0.57232 0.60493 0.0
H392 H 0.09777 0.38242 0.41243 0.0
H393 H 0.11179 0.41783 0.47453 0.0
H394 H 0.05616 0.34152 0.56211 0.0
H395 H 0.04174 0.30587 0.49942 0.0
H396 H 0.18497 0.64635 0.69152 0.0
H397 H 0.13202 0.619 0.66426 0.0
H398 H 0.16061 0.58163 0.55719 0.0
H399 H 0.21355 0.60898 0.58426 0.0
Tb400 Tb 0.60764 0.08023 0.89443 0.0
Eu401 Eu 0.56346 0.10606 0.91804 0.0
C402 C 0.63535 0.14702 0.93436 0.0
C403 C 0.56936 0.05573 0.98728 0.0
C404 C 0.66285 0.06126 0.83875 0.0
C405 C 0.70329 0.05425 0.80573 0.0
C406 C 0.68927 0.05842 0.84318 0.0
C407 C 0.6504 0.05987 0.79676 0.0
C408 C 0.66438 0.05579 0.75938 0.0
C409 C 0.69109 0.05315 0.76344 0.0
C410 C 0.64982 0.06788 0.87771 0.0
O411 O 0.5684 0.05175 0.85353 0.0
O412 O 0.53193 0.05981 0.88775 0.0
O413 O 0.56525 0.11171 0.84149 0.0
O414 O 0.60198 0.09809 0.82629 0.0
C415 C 0.54033 0.04756 0.85588 0.0
O416 O 0.54048 0.11748 0.97028 0.0
O417 O 0.53572 0.12762 0.90237 0.0
O418 O 0.61164 0.14794 0.91798 0.0
O419 O 0.63325 0.11998 0.93892 0.0
O420 O 0.58344 0.05026 0.9539 0.0
O421 O 0.56291 0.07844 0.98212 0.0
C422 C 0.58226 0.10728 0.81167 0.0
O423 O 0.6539 0.09573 0.87892 0.0
O424 O 0.62172 0.04714 0.88895 0.0
C425 C 0.54499 0.16555 0.95633 0.0
C426 C 0.5831 0.22392 0.9943 0.0
C427 C 0.55707 0.20114 1.01739 0.0
C428 C 0.53819 0.17227 0.99849 0.0
C429 C 0.56844 0.1894 0.93104 0.0
C430 C 0.58709 0.21845 0.94971 0.0
C431 C 0.53275 0.13304 0.94372 0.0
H432 H 0.72379 0.05226 0.80976 0.0
H433 H 0.69925 0.05977 0.87554 0.0
H434 H 0.63004 0.06218 0.79291 0.0
H435 H 0.654 0.05427 0.7273 0.0
H436 H 0.55305 0.20416 1.05181 0.0
H437 H 0.52023 0.15426 1.01857 0.0
H438 H 0.57415 0.18497 0.89822 0.0
H439 H 0.60635 0.23564 0.9305 0.0
Tb440 Tb 0.54303 0.62295 0.22052 0.0
Eu441 Eu 0.47813 0.56723 0.24036 0.0
C442 C 0.49507 0.63624 0.26264 0.0
C443 C 0.53421 0.58409 0.3137 0.0
C444 C 0.60958 0.69058 0.1651 0.0
C445 C 0.66135 0.72185 1.13531 0.0
C446 C 0.64164 0.70769 0.17133 0.0
C447 C 0.59731 0.68862 1.12265 0.0
C448 C 0.61696 0.70305 1.08676 0.0
C449 C 0.64917 0.71934 1.09263 0.0
C450 C 0.58948 0.6746 0.2031 0.0
O451 O 0.55332 0.59036 0.19254 0.0
O452 O 0.50615 0.54729 0.2074 0.0
O453 O 0.47271 0.56466 0.16613 0.0
O454 O 0.51801 0.60899 0.15153 0.0
C455 C 0.53435 0.56093 0.18965 0.0
O456 O 0.44484 0.53855 0.29111 0.0
O457 O 0.43118 0.53187 0.22255 0.0
O458 O 0.47404 0.61128 0.24286 0.0
O459 O 0.5215 0.63787 0.2699 0.0
O460 O 0.55326 0.60631 0.28564 0.0
O461 O 0.50478 0.56714 0.30271 0.0
C462 C 0.49149 0.58442 1.13671 0.0
O463 O 0.56093 0.66883 0.20064 0.0
O464 O 0.59131 0.65131 0.21905 0.0
C465 C 0.39686 0.53351 0.27487 0.0
C466 C 0.36622 0.56119 0.31596 0.0
C467 C 0.36335 0.53368 0.33303 0.0
C468 C 0.37876 0.52002 0.31271 0.0
C469 C 0.39626 0.55854 0.25458 0.0
C470 C 0.381 0.57225 0.27497 0.0
C471 C 0.42174 0.52697 0.26353 0.0
H472 H 0.6861 0.73417 0.1406 0.0
H473 H 0.65147 0.70953 0.20394 0.0
H474 H 0.57262 0.6754 1.11697 0.0
H475 H 0.60699 0.70019 1.05404 0.0
H476 H 0.35233 0.52478 0.36483 0.0
H477 H 0.37907 0.50086 0.329 0.0
H478 H 0.41009 0.56947 0.22536 0.0
H479 H 0.38347 0.59336 0.2611 0.0
H480 H 0.47211 0.17561 0.37488 0.0
H481 H 0.55665 0.2066 0.30111 0.0
H482 H 0.47138 0.22231 0.35405 0.0
H483 H 0.55597 0.25375 0.28023 0.0
H484 H 0.55537 0.34859 0.2816 0.0
H485 H 0.56026 0.30399 0.30542 0.0
H486 H 0.46197 0.24494 0.28972 0.0
H487 H 0.45717 0.28876 0.26652 0.0
C488 C 0.49072 0.19237 0.3543 0.0
C489 C 0.5144 0.18676 0.33983 0.0
C490 C 0.49022 0.21937 0.34204 0.0
C491 C 0.5135 0.24225 0.31497 0.0
C492 C 0.53765 0.23706 0.30127 0.0
C493 C 0.53797 0.20975 0.31318 0.0
C494 C 0.53482 0.32612 0.28344 0.0
C495 C 0.50586 0.32279 0.27202 0.0
C496 C 0.53762 0.30033 0.29686 0.0
C497 C 0.51148 0.27038 0.29999 0.0
C498 C 0.4827 0.26733 0.28863 0.0
C499 C 0.47999 0.29279 0.27485 0.0
H500 H 0.29623 0.48163 0.73863 0.0
H501 H 0.3414 0.53469 0.62175 0.0
H502 H 0.25002 0.48375 0.72071 0.0
H503 H 0.29414 0.53599 0.60244 0.0
H504 H 0.2063 0.54765 0.59218 0.0
H505 H 0.25615 0.55176 0.61187 0.0
H506 H 0.2073 0.46317 0.6768 0.0
H507 H 0.15857 0.45989 0.65893 0.0
C508 C 0.29641 0.49379 0.7088 0.0
C509 C 0.32306 0.5078 0.68173 0.0
C510 C 0.26938 0.49476 0.69807 0.0
C511 C 0.26722 0.50946 0.65926 0.0
C512 C 0.29427 0.52438 0.63266 0.0
C513 C 0.32162 0.52359 0.6437 0.0
C514 C 0.20627 0.52927 0.61119 0.0
C515 C 0.17785 0.5036 0.62426 0.0
C516 C 0.23507 0.53145 0.62224 0.0
C517 C 0.23662 0.50798 0.64668 0.0
C518 C 0.20801 0.48237 0.6592 0.0
C519 C 0.17954 0.48032 0.64847 0.0
H520 H 0.80927 0.28647 1.0618 0.0
H521 H 0.79174 0.33834 0.96332 0.0
H522 H 0.76184 0.24004 1.04101 0.0
H523 H 0.74487 0.29169 0.941 0.0
H524 H 0.64769 0.20739 0.93038 0.0
H525 H 0.69431 0.25441 0.95278 0.0
H526 H 0.73591 0.20027 0.99204 0.0
H527 H 0.68906 0.15342 0.97058 0.0
C528 C 0.79544 0.28804 1.0354 0.0
C529 C 0.80479 0.31657 1.01442 0.0
C530 C 0.76804 0.26107 1.02303 0.0
C531 C 0.74884 0.26128 0.98875 0.0
C532 C 0.75825 0.29 0.9679 0.0
C533 C 0.78554 0.31704 0.98058 0.0
C534 C 0.6667 0.20545 0.94406 0.0
C535 C 0.66412 0.1762 0.94878 0.0
C536 C 0.6938 0.23268 0.95677 0.0
C537 C 0.71953 0.23188 0.97488 0.0
C538 C 0.71683 0.20247 0.97937 0.0
C539 C 0.68975 0.17528 0.96665 0.0
H540 H 0.54022 0.69465 0.28267 0.0
H541 H 0.44141 0.64101 0.26826 0.0
H542 H 0.53657 0.73969 0.30023 0.0
H543 H 0.43707 0.6861 0.2896 0.0
H544 H 0.43923 0.77987 0.30049 0.0
H545 H 0.44057 0.73322 0.27983 0.0
H546 H 0.52807 0.76841 0.3473 0.0
H547 H 0.52738 0.81522 0.36486 0.0
C548 C 0.5174 0.6922 0.28411 0.0
C549 C 0.49109 0.66359 0.27448 0.0
C550 C 0.51518 0.71842 0.29486 0.0
C551 C 0.4864 0.71742 0.29775 0.0
C552 C 0.45988 0.68865 0.28778 0.0
C553 C 0.46224 0.66238 0.27588 0.0
C554 C 0.45885 0.77767 0.31062 0.0
C555 C 0.48339 0.80191 0.33403 0.0
C556 C 0.4596 0.75054 0.29896 0.0
C557 C 0.48468 0.74623 0.31091 0.0
C558 C 0.50868 0.77037 0.33548 0.0
C559 C 0.50822 0.79759 0.34619 0.0
H560 H 0.65833 0.45854 0.62003 0.0
H561 H 0.70668 0.51431 0.73292 0.0
H562 H 0.70499 0.45597 0.59938 0.0
H563 H 0.75226 0.51159 0.71311 0.0
H564 H 0.84145 0.5363 0.64276 0.0
H565 H 0.79263 0.53285 0.66129 0.0
H566 H 0.74388 0.43898 0.61474 0.0
H567 H 0.79374 0.44272 0.59511 0.0
C568 C 0.67859 0.46989 0.64083 0.0
C569 C 0.67827 0.4868 0.67814 0.0
C570 C 0.70556 0.46847 0.62897 0.0
C571 C 0.73324 0.48408 0.65388 0.0
C572 C 0.7322 0.49991 0.69195 0.0
C573 C 0.70558 0.50129 0.70364 0.0
C574 C 0.82053 0.51468 0.63648 0.0
C575 C 0.82221 0.48977 0.6175 0.0
C576 C 0.7921 0.51262 0.6475 0.0
C577 C 0.76358 0.48549 0.64027 0.0
C578 C 0.76501 0.46042 0.62085 0.0
C579 C 0.79379 0.46248 0.60982 0.0
H580 H 0.30284 0.82747 0.96641 0.0
H581 H 0.35312 0.77936 0.9429 0.0
H582 H 0.25771 0.77949 0.98891 0.0
H583 H 0.30765 0.73089 0.96607 0.0
H584 H 0.20955 0.6435 0.97029 0.0
H585 H 0.25656 0.69087 0.94895 0.0
H586 H 0.2349 0.74175 1.04415 0.0
H587 H 0.18779 0.69469 1.06459 0.0
C588 C 0.30448 0.80668 0.96629 0.0
C589 C 0.33212 0.80777 0.95282 0.0
C590 C 0.27836 0.77887 0.97965 0.0
C591 C 0.27854 0.75072 0.98001 0.0
C592 C 0.30618 0.75175 0.9663 0.0
C593 C 0.33251 0.77975 0.9532 0.0
C594 C 0.21481 0.66476 0.98683 0.0
C595 C 0.19437 0.66488 1.01921 0.0
C596 C 0.24208 0.69214 0.97467 0.0
C597 C 0.24999 0.7208 0.99429 0.0
C598 C 0.22974 0.72065 1.02727 0.0
C599 C 0.20257 0.69335 1.0394 0.0
H600 H 0.58074 0.25728 1.0656 0.0
H601 H 0.64524 0.24706 0.98168 0.0
H602 H 0.6181 0.27516 1.12513 0.0
H603 H 0.68321 0.26643 1.04039 0.0
H604 H 0.67306 0.20474 0.16662 0.0
H605 H 0.67286 0.22905 1.09788 0.0
H606 H 0.6646 0.29937 0.16963 0.0
H607 H 0.6655 0.27506 0.23936 0.0
C608 C 0.60338 0.26013 1.05909 0.0
C609 C 0.60917 0.24872 1.01986 0.0
C610 C 0.62513 0.27085 1.09319 0.0
C611 C 0.65311 0.27064 1.08823 0.0
C612 C 0.66137 0.26569 1.04577 0.0
C613 C 0.63948 0.25465 1.01188 0.0
C614 C 0.67288 0.22627 0.16816 0.0
C615 C 0.66793 0.23717 0.20847 0.0
C616 C 0.67281 0.24043 1.12837 0.0
C617 C 0.6675 0.26559 1.12812 0.0
C618 C 0.6678 0.27948 0.1687 0.0
C619 C 0.66814 0.26543 0.20862 0.0
H620 H 0.40841 0.62013 0.33416 0.0
H621 H 0.31598 0.54928 0.368 0.0
H622 H 0.4122 0.64641 0.40187 0.0
H623 H 0.31836 0.57709 0.43555 0.0
H624 H 0.36387 0.58104 0.5696 0.0
H625 H 0.33966 0.57575 0.49932 0.0
H626 H 0.41022 0.66865 0.46424 0.0
H627 H 0.436 0.67247 0.53445 0.0
C628 C 0.38809 0.61108 0.35507 0.0
C629 C 0.36229 0.58215 0.34648 0.0
C630 C 0.39017 0.62633 0.39457 0.0
C631 C 0.36624 0.61309 0.4263 0.0
C632 C 0.33813 0.58708 0.41352 0.0
C633 C 0.33645 0.57126 0.37444 0.0
C634 C 0.37373 0.60073 0.54746 0.0
C635 C 0.40236 0.62676 0.55682 0.0
C636 C 0.35963 0.59783 0.50663 0.0
C637 C 0.37365 0.62117 0.47425 0.0
C638 C 0.39958 0.64935 0.48695 0.0
C639 C 0.41428 0.65182 0.52744 0.0
H640 H 0.735 0.41584 0.86308 0.0
H641 H 0.76089 0.3475 0.89404 0.0
H642 H 0.71807 0.39314 0.78975 0.0
H643 H 0.74627 0.32621 0.82114 0.0
H644 H 0.75208 0.30652 0.68923 0.0
H645 H 0.72373 0.30571 0.75564 0.0
H646 H 0.74786 0.40027 0.72973 0.0
H647 H 0.77375 0.4 0.663 0.0
C648 C 0.7364 0.39554 0.85449 0.0
C649 C 0.74998 0.38394 0.88375 0.0
C650 C 0.72693 0.38259 0.81235 0.0
C651 C 0.73207 0.35863 0.79818 0.0
C652 C 0.74189 0.34465 0.8299 0.0
C653 C 0.75058 0.35707 0.87219 0.0
C654 C 0.74993 0.32652 0.69692 0.0
C655 C 0.76594 0.35361 0.67175 0.0
C656 C 0.73401 0.32628 0.73529 0.0
C657 C 0.73501 0.35354 0.74997 0.0
C658 C 0.74672 0.37883 0.72063 0.0
C659 C 0.76185 0.37875 0.68182 0.0
H660 H 0.42791 0.74267 1.08032 0.0
H661 H 0.36027 0.7423 0.99092 0.0
H662 H 0.38899 0.72107 0.1382 0.0
H663 H 0.32113 0.7199 1.04842 0.0
H664 H 0.32352 0.77982 0.17427 0.0
H665 H 0.32783 0.75763 1.10596 0.0
H666 H 0.33924 0.68952 0.17858 0.0
H667 H 0.33329 0.71099 0.24803 0.0
C668 C 0.40442 0.73669 1.07235 0.0
C669 C 0.39763 0.74578 1.03179 0.0
C670 C 0.38187 0.72388 1.10545 0.0
C671 C 0.35224 0.71997 1.09834 0.0
C672 C 0.344 0.72344 1.05515 0.0
C673 C 0.36657 0.7363 1.02209 0.0
C674 C 0.32511 0.75904 0.17618 0.0
C675 C 0.32963 0.74821 0.21691 0.0
C676 C 0.32759 0.74615 1.13654 0.0
C677 C 0.3351 0.7225 1.13687 0.0
C678 C 0.33428 0.70827 0.17738 0.0
C679 C 0.33119 0.72083 0.21715 0.0
H680 H 0.67978 0.43748 0.38306 0.0
H681 H 0.5865 0.36733 0.35271 0.0
H682 H 0.67767 0.41039 0.45133 0.0
H683 H 0.58295 0.34187 0.42141 0.0
H684 H 0.56054 0.31705 0.55439 0.0
H685 H 0.58537 0.31973 0.48359 0.0
H686 H 0.65803 0.41201 0.51627 0.0
H687 H 0.63474 0.4078 0.58706 0.0
C688 C 0.65911 0.41586 0.39059 0.0
C689 C 0.63307 0.40488 0.36326 0.0
C690 C 0.6576 0.40044 0.43007 0.0
C691 C 0.62946 0.37479 0.44399 0.0
C692 C 0.60505 0.36162 0.41318 0.0
C693 C 0.60696 0.37641 0.37322 0.0
C694 C 0.58252 0.33728 0.54679 0.0
C695 C 0.59517 0.36261 0.57556 0.0
C696 C 0.59666 0.33912 0.50589 0.0
C697 C 0.62278 0.36694 0.49222 0.0
C698 C 0.63775 0.39026 0.5242 0.0
C699 C 0.6242 0.38796 0.56543 0.0
H700 H 0.2558 0.5612 0.85199 0.0
H701 H 0.23461 0.63165 0.89072 0.0
H702 H 0.27348 0.58604 0.77986 0.0
H703 H 0.24969 0.65504 0.81889 0.0
H704 H 0.22052 0.58673 0.65502 0.0
H705 H 0.24541 0.58291 0.72034 0.0
H706 H 0.27205 0.67704 0.75422 0.0
H707 H 0.24455 0.6797 0.68913 0.0
C708 C 0.25553 0.58235 0.84529 0.0
C709 C 0.24318 0.59409 0.87645 0.0
C710 C 0.2654 0.59653 0.80382 0.0
C711 C 0.26175 0.62188 0.79213 0.0
C712 C 0.25296 0.63562 0.82565 0.0
C713 C 0.24397 0.62198 0.86731 0.0
C714 C 0.23281 0.60713 0.67525 0.0
C715 C 0.22965 0.63314 0.66772 0.0
C716 C 0.24734 0.605 0.71333 0.0
C717 C 0.25939 0.62907 0.74459 0.0
C718 C 0.26139 0.65728 0.73245 0.0
C719 C 0.24602 0.65908 0.69479 0.0
H720 H 0.46943 0.94285 1.05229 0.0
H721 H 0.39573 0.96211 1.02997 0.0
H722 H 0.48296 0.97315 1.11997 0.0
H723 H 0.41035 0.9938 1.09742 0.0
H724 H 0.43538 0.04486 0.23672 0.0
H725 H 0.41865 0.01331 0.16914 0.0
H726 H 0.50353 0.01089 0.16908 0.0
H727 H 0.52025 0.04252 0.23537 0.0
C728 C 0.45602 0.95367 1.06116 0.0
C729 C 0.43104 0.94902 1.03346 0.0
C730 C 0.4643 0.97191 1.10097 0.0
C731 C 0.4489 0.98766 1.11665 0.0
C732 C 0.42368 0.98288 1.08885 0.0
C733 C 0.41508 0.96427 1.049 0.0
C734 C 0.45084 0.03788 0.22236 0.0
C735 C 0.47981 0.04743 0.24343 0.0
C736 C 0.44106 0.01933 0.18246 0.0
C737 C 0.45924 0.00838 0.16063 0.0
C738 C 0.488 0.01786 0.18239 0.0
C739 C 0.49795 0.03665 0.22167 0.0
H740 H 0.49972 0.45615 0.37278 0.0
H741 H 0.40877 0.37754 0.3595 0.0
H742 H 0.4855 0.46866 0.44311 0.0
H743 H 0.39368 0.3906 0.4305 0.0
H744 H 0.37376 0.413 0.57581 0.0
H745 H 0.38627 0.39768 0.50455 0.0
H746 H 0.46773 0.48731 0.49385 0.0
H747 H 0.45573 0.50173 0.5643 0.0
C748 C 0.47632 0.44132 0.3844 0.0
C749 C 0.45583 0.41551 0.35834 0.0
C750 C 0.46775 0.44885 0.42592 0.0
C751 C 0.43773 0.43138 0.44507 0.0
C752 C 0.4171 0.4053 0.419 0.0
C753 C 0.42584 0.39762 0.37721 0.0
C754 C 0.39442 0.42956 0.55841 0.0
C755 C 0.41343 0.459 0.57786 0.0
C756 C 0.40182 0.42067 0.51649 0.0
C757 C 0.42871 0.44059 0.49092 0.0
C758 C 0.44723 0.47008 0.51062 0.0
C759 C 0.43999 0.47878 0.55221 0.0
H760 H 0.02686 0.49257 0.70835 0.0
H761 H 0.03006 0.40849 0.71773 0.0
H762 H 0.99743 0.47999 0.77696 0.0
H763 H 0.00032 0.39584 0.78759 0.0
H764 H 0.96072 0.38794 0.93452 0.0
H765 H 0.98991 0.39814 0.86475 0.0
H766 H 0.95417 0.45624 0.82205 0.0
H767 H 0.92668 0.4476 0.89245 0.0
C768 C 0.02138 0.47115 0.72466 0.0
C769 C 0.03171 0.45192 0.70519 0.0
C770 C 0.00384 0.46367 0.76515 0.0
C771 C 0.99527 0.4365 0.79043 0.0
C772 C 0.00577 0.41717 0.77112 0.0
C773 C 0.02311 0.42448 0.72994 0.0
C774 C 0.95911 0.40324 0.91065 0.0
C775 C 0.9407 0.4169 0.92143 0.0
C776 C 0.97617 0.40916 0.86952 0.0
C777 C 0.97606 0.42907 0.83562 0.0
C778 C 0.95702 0.44205 0.84629 0.0
C779 C 0.94037 0.43653 0.88751 0.0
H780 H 0.48392 0.90484 0.20059 0.0
H781 H 0.54983 0.98383 0.27385 0.0
H782 H 0.50093 0.935 1.13155 0.0
H783 H 0.56568 0.01462 0.20526 0.0
H784 H 0.55008 0.99252 1.00152 0.0
H785 H 0.53619 0.9617 1.07006 0.0
H786 H 0.5569 0.04249 0.14579 0.0
H787 H 0.56886 0.07268 1.07698 0.0
C788 C 0.50197 0.92872 0.20261 0.0
C789 C 0.51499 0.94097 0.24486 0.0
C790 C 0.51212 0.94647 0.16202 0.0
C791 C 0.5352 0.97838 0.16043 0.0
C792 C 0.54792 0.99066 0.20292 0.0
C793 C 0.53862 0.97257 0.24326 0.0
C794 C 0.5516 0.00402 1.03256 0.0
C795 C 0.5608 0.03596 1.03164 0.0
C796 C 0.54344 0.98592 1.07287 0.0
C797 C 0.54492 -0.0015 1.1159 0.0
C798 C 0.55498 0.03072 1.11489 0.0
C799 C 0.56194 0.04851 1.07444 0.0
H800 H 0.62942 0.57869 0.57339 0.0
H801 H 0.54054 0.49631 0.5745 0.0
H802 H 0.61716 0.59304 0.50124 0.0
H803 H 0.52855 0.50972 0.50311 0.0
H804 H 0.49918 0.54142 0.37936 0.0
H805 H 0.51313 0.5295 0.45041 0.0
H806 H 0.6084 0.5977 0.42699 0.0
H807 H 0.59378 0.61024 0.35531 0.0
C808 C 0.60721 0.56334 0.55865 0.0
C809 C 0.58628 0.53599 0.58191 0.0
C810 C 0.59996 0.57164 0.51616 0.0
C811 C 0.57125 0.55319 0.4937 0.0
C812 C 0.55068 0.52577 0.51725 0.0
C813 C 0.55784 0.51765 0.55942 0.0
C814 C 0.5233 0.55415 0.38872 0.0
C815 C 0.54491 0.5771 0.35941 0.0
C816 C 0.53166 0.54695 0.43068 0.0
C817 C 0.56252 0.5619 0.44716 0.0
C818 C 0.5843 0.58507 0.41777 0.0
C819 C 0.57581 0.59241 0.37552 0.0
H820 H 0.06728 0.61631 0.90754 0.0
H821 H 0.04569 0.52178 0.9094 0.0
H822 H 0.03824 0.60701 0.83782 0.0
H823 H 0.01601 0.5122 0.84103 0.0
H824 H 0.94163 0.4919 0.73384 0.0
H825 H 0.97039 0.50499 0.80343 0.0
H826 H 0.03013 0.59689 0.75638 0.0
H827 H -0.00021 0.58453 0.68717 0.0
C828 C 0.05645 0.59338 0.89354 0.0
C829 C 0.0598 0.57009 0.916 0.0
C830 C 0.03949 0.58793 0.85257 0.0
C831 C 0.02377 0.55852 0.83149 0.0
C832 C 0.02695 0.53526 0.8544 0.0
C833 C 0.04452 0.5409 0.89458 0.0
C834 C 0.96087 0.51509 0.73754 0.0
C835 C 0.96759 0.53671 0.70261 0.0
C836 C 0.97808 0.52252 0.77817 0.0
C837 C 0.00421 0.55179 0.7871 0.0
C838 C 0.01076 0.57381 0.75251 0.0
C839 C 0.99303 0.56658 0.71186 0.0
H840 H 0.44595 0.0153 0.43533 0.0
H841 H 0.54052 0.05564 0.47936 0.0
H842 H 0.42837 0.98992 0.5058 0.0
H843 H 0.52249 0.02765 0.54873 0.0
H844 H 0.52443 0.95926 0.49525 0.0
H845 H 0.51266 0.9783 0.56256 0.0
H846 H 0.41942 0.94148 0.52234 0.0
H847 H 0.42965 0.92198 0.45385 0.0
C848 C 0.46309 0.01876 0.45988 0.0
C849 C 0.4948 0.03558 0.45006 0.0
C850 C 0.45302 0.00442 0.50092 0.0
C851 C 0.47427 0.00169 0.52861 0.0
C852 C 0.5054 0.02537 0.5247 0.0
C853 C 0.51591 0.04071 0.48425 0.0
C854 C 0.50155 0.95635 0.49926 0.0
C855 C 0.47925 0.9437 0.46528 0.0
C856 C 0.49439 0.96618 0.53865 0.0
C857 C 0.468 0.96953 0.53881 0.0
C858 C 0.44263 0.94579 0.51615 0.0
C859 C 0.44863 0.93566 0.47605 0.0
H860 H 0.41004 0.45023 0.81388 0.0
H861 H 0.48559 0.45794 0.735 0.0
H862 H 0.44257 0.46519 0.87961 0.0
H863 H 0.51371 0.46262 0.80346 0.0
H864 H 0.5176 0.53665 0.74898 0.0
H865 H 0.47923 0.52055 0.80843 0.0
H866 H 0.53727 0.50305 0.89379 0.0
H867 H 0.57965 0.52958 0.84084 0.0
C868 C 0.43325 0.45429 0.81075 0.0
C869 C 0.44743 0.45821 0.76897 0.0
C870 C 0.45121 0.46103 0.84896 0.0
C871 C 0.48266 0.47105 0.84385 0.0
C872 C 0.49074 0.45966 0.80614 0.0
C873 C 0.47491 0.45718 0.76662 0.0
C874 C 0.52309 0.53168 0.78157 0.0
C875 C 0.55001 0.53026 0.78893 0.0
C876 C 0.50134 0.52254 0.816 0.0
C877 C 0.50362 0.5046 0.85059 0.0
C878 C 0.53356 0.51296 0.8641 0.0
C879 C 0.55728 0.52653 0.83275 0.0
H880 H 0.96194 0.43326 0.16885 0.0
H881 H 0.92711 0.49349 1.13007 0.0
H882 H 0.98151 0.46299 0.23688 0.0
H883 H 0.948 0.52217 0.19917 0.0
H884 H 0.02019 0.56193 1.1004 0.0
H885 H 0.99634 0.55774 0.17117 0.0
H886 H 0.03182 0.50004 0.21856 0.0
H887 H 0.05881 0.50703 0.14878 0.0
C888 C 0.96001 0.45373 0.17318 0.0
C889 C 0.94783 0.4644 0.13964 0.0
C890 C 0.97012 0.47009 0.21296 0.0
C891 C 0.97544 0.50046 0.21281 0.0
C892 C 0.95147 0.5029 0.19197 0.0
C893 C 0.94062 0.48741 0.15153 0.0
C894 C 0.02376 0.54904 1.1262 0.0
C895 C 0.04021 0.53356 1.11791 0.0
C896 C 0.01018 0.54672 0.16734 0.0
C897 C 0.00751 0.5239 0.19737 0.0
C898 C 0.02991 0.51455 0.19357 0.0
C899 C 0.04462 0.51765 0.15294 0.0
H900 H 0.97193 0.44803 0.53261 0.0
H901 H 0.04437 0.44854 0.45359 0.0
H902 H 0.95218 0.45985 0.46616 0.0
H903 H 0.02895 0.46819 0.39068 0.0
H904 H 0.02524 0.53135 0.53018 0.0
H905 H 0.04538 0.51604 0.46749 0.0
H906 H 0.97031 0.50579 0.38627 0.0
H907 H 0.95531 0.52949 0.44447 0.0
C908 C 0.9832 0.45003 0.50107 0.0
C909 C 0.0114 0.4505 0.49876 0.0
C910 C 0.97187 0.45643 0.46248 0.0
C911 C 0.99286 0.47059 0.42686 0.0
C912 C 0.01443 0.46087 0.41999 0.0
C913 C 0.02402 0.45085 0.45675 0.0
C914 C 0.01434 0.52784 0.49807 0.0
C915 C 0.98662 0.52803 0.49313 0.0
C916 C 0.02598 0.51955 0.46159 0.0
C917 C 0.00563 0.50444 0.42583 0.0
C918 C 0.98438 0.51406 0.41584 0.0
C919 C 0.97481 0.52614 0.4501 0.0
H920 H 0.48539 0.93992 0.79447 0.0
H921 H 0.41569 0.9643 0.82531 0.0
H922 H 0.49073 0.96231 0.72091 0.0
H923 H 0.42167 0.98593 0.75132 0.0
H924 H 0.48995 0.05333 0.83409 0.0
H925 H 0.46054 0.03688 0.76559 0.0
H926 H 0.52603 0.01507 0.70963 0.0
H927 H 0.5562 0.03134 0.77733 0.0
C928 C 0.47192 0.95079 0.78622 0.0
C929 C 0.45314 0.95413 0.81801 0.0
C930 C 0.47402 0.96265 0.74353 0.0
C931 C 0.46287 0.98339 0.73694 0.0
C932 C 0.43542 0.97547 0.76017 0.0
C933 C 0.43275 0.96413 0.80331 0.0
C934 C 0.49763 0.0439 0.8079 0.0
C935 C 0.52282 0.03903 0.81391 0.0
C936 C 0.48155 0.03561 0.76778 0.0
C937 C 0.48718 0.01712 0.73806 0.0
C938 C 0.51808 0.02374 0.7365 0.0
C939 C 0.53469 0.03172 0.77614 0.0
H940 H 0.54203 0.50951 0.18757 0.0
H941 H 0.54251 0.58 1.1046 0.0
H942 H 0.52595 0.47529 1.12379 0.0
H943 H 0.51853 0.54262 1.04518 0.0
H944 H 0.45452 0.41133 1.11414 0.0
H945 H 0.47486 0.44565 1.05028 0.0
H946 H 0.47335 0.51709 1.12624 0.0
H947 H 0.46104 0.48601 0.19314 0.0
C948 C 0.53927 0.51785 0.15573 0.0
C949 C 0.5403 0.54617 0.15192 0.0
C950 C 0.5303 0.4985 1.11866 0.0
C951 C 0.51523 0.50481 1.08384 0.0
C952 C 0.52639 0.53599 1.07443 0.0
C953 C 0.53901 0.55703 1.10926 0.0
C954 C 0.45911 0.43469 1.11745 0.0
C955 C 0.46075 0.44774 0.15946 0.0
C956 C 0.46933 0.45387 1.08018 0.0
C957 C 0.48103 0.48544 1.08656 0.0
C958 C 0.46844 0.49362 1.12273 0.0
C959 C 0.46178 0.4761 0.16158 0.0
H960 H 0.27567 0.96211 0.73523 0.0
H961 H 0.37419 0.02345 0.74117 0.0
H962 H 0.27239 0.99178 0.6725 0.0
H963 H 0.37108 0.0532 0.67949 0.0
H964 H 0.36621 0.106 0.5735 0.0
H965 H 0.34953 0.08595 0.6484 0.0
H966 H 0.2947 0.99419 0.59563 0.0
H967 H 0.31175 0.01372 0.52154 0.0
C968 C 0.2964 0.98241 0.72374 0.0
C969 C 0.32524 0.99047 0.74222 0.0
C970 C 0.29454 -0.00063 0.68816 0.0
C971 C 0.32142 0.02489 0.67138 0.0
C972 C 0.34988 0.03402 0.69217 0.0
C973 C 0.35178 0.01681 0.72704 0.0
C974 C 0.34978 0.08171 0.57778 0.0
C975 C 0.34124 0.06135 0.54168 0.0
C976 C 0.34013 0.0703 0.62061 0.0
C977 C 0.32151 0.03845 0.62778 0.0
C978 C 0.3091 0.01886 0.59113 0.0
C979 C 0.31895 0.03018 0.54841 0.0
H980 H 0.26884 0.28055 1.10149 0.0
H981 H 0.32829 0.37952 1.10215 0.0
H982 H 0.24002 0.28529 1.03952 0.0
H983 H 0.29921 0.38414 1.04159 0.0
H984 H 0.2519 0.39128 0.92738 0.0
H985 H 0.25132 0.37683 1.00488 0.0
H986 H 0.26193 0.29997 0.96359 0.0
H987 H 0.2634 0.31463 0.88707 0.0
C988 C 0.27528 0.30334 1.08927 0.0
C989 C 0.30139 0.32958 1.10615 0.0
C990 C 0.25861 0.30603 1.05403 0.0
C991 C 0.26756 0.33503 1.03534 0.0
C992 C 0.29147 0.36146 1.05546 0.0
C993 C 0.30827 0.35878 1.09035 0.0
C994 C 0.25331 0.37083 0.93483 0.0
C995 C 0.25865 0.35473 0.90092 0.0
C996 C 0.2528 0.36249 0.97921 0.0
C997 C 0.25721 0.33766 0.99033 0.0
C998 C 0.25834 0.31916 0.95621 0.0
C999 C 0.25916 0.32765 0.912 0.0
H1000 H 0.94557 0.26382 0.23198 0.0
H1001 H 0.02985 0.3464 0.19571 0.0
H1002 H 0.97152 0.25699 0.29599 0.0
H1003 H 0.05546 0.34042 0.25985 0.0
H1004 H 0.09882 0.33612 0.37857 0.0
H1005 H 0.07563 0.31663 0.30607 0.0
H1006 H 0.98499 0.28471 0.36295 0.0
H1007 H 0.00805 0.30306 0.43484 0.0
C1008 C 0.96979 0.28019 0.23738 0.0
C1009 C 0.98562 0.30592 0.20951 0.0
C1010 C 0.98466 0.2763 0.27393 0.0
C1011 C 0.01545 0.2984 0.28361 0.0
C1012 C 0.03189 0.32267 0.25338 0.0
C1013 C 0.01714 0.3263 0.21663 0.0
C1014 C 0.07387 0.32386 0.37562 0.0
C1015 C 0.05523 0.32161 0.41196 0.0
C1016 C 0.06058 0.31284 0.33416 0.0
C1017 C 0.02852 0.29994 0.32833 0.0
C1018 C 0.00974 0.2944 0.36595 0.0
C1019 C 0.02299 0.30504 0.40741 0.0
H1020 H 0.71147 0.01182 0.75325 0.0
H1021 H 0.70174 0.08193 0.68351 0.0
H1022 H 0.72119 0.99388 0.68316 0.0
H1023 H 0.70962 0.06317 0.61368 0.0
H1024 H 0.70503 0.0219 0.49076 0.0
H1025 H 0.73285 0.04871 0.55766 0.0
H1026 H 0.68167 0.96402 0.63221 0.0
H1027 H 0.65504 0.93747 0.5656 0.0
C1028 C 0.7123 0.02397 0.72308 0.0
C1029 C 0.70478 0.04756 0.72349 0.0
C1030 C 0.7177 0.01359 0.6829 0.0
C1031 C 0.71525 0.02639 0.64261 0.0
C1032 C 0.71166 0.05257 0.64382 0.0
C1033 C 0.70657 0.06307 0.6839 0.0
C1034 C 0.70067 0.00894 0.52129 0.0
C1035 C 0.67736 0.9779 0.52346 0.0
C1036 C 0.71656 0.02423 0.55956 0.0
C1037 C 0.70881 0.00881 0.60063 0.0
C1038 C 0.68839 0.97678 0.60134 0.0
C1039 C 0.67285 0.96146 0.56304 0.0
H1040 H 0.64733 0.75242 1.0216 0.0
H1041 H 0.69648 0.70895 1.07475 0.0
H1042 H 0.67136 0.75676 0.94933 0.0
H1043 H 0.71954 0.71215 1.00292 0.0
H1044 H 0.75009 0.70594 0.8724 0.0
H1045 H 0.74851 0.73414 0.9375 0.0
H1046 H 0.65718 0.71543 0.89978 0.0
H1047 H 0.6592 0.68824 0.83497 0.0
C1048 C 0.6639 0.74454 1.01802 0.0
C1049 C 0.66962 0.7298 1.05334 0.0
C1050 C 0.67761 0.74694 0.97671 0.0
C1051 C 0.69675 0.73407 0.96991 0.0
C1052 C 0.70508 0.72249 1.00671 0.0
C1053 C 0.69171 0.72048 1.04807 0.0
C1054 C 0.73012 0.70872 0.87756 0.0
C1055 C 0.70451 0.6944 0.84918 0.0
C1056 C 0.72919 0.72484 0.91479 0.0
C1057 C 0.70246 0.72652 0.92451 0.0
C1058 C 0.6783 0.71494 0.89342 0.0
C1059 C 0.67936 0.69912 0.85612 0.0
H1060 H 0.10357 0.73811 0.24494 0.0
H1061 H 0.01152 0.68822 0.19065 0.0
H1062 H 0.08217 0.74319 0.31529 0.0
H1063 H 0.9901 0.69191 0.26046 0.0
H1064 H 0.95076 0.68831 0.3887 0.0
H1065 H 0.97947 0.71334 0.32115 0.0
H1066 H 0.05722 0.70622 0.37002 0.0
H1067 H 0.02916 0.683 0.43771 0.0
C1068 C 0.07886 0.72891 0.24777 0.0
C1069 C 0.05919 0.71242 0.21259 0.0
C1070 C 0.06653 0.73162 0.28808 0.0
C1071 C 0.03429 0.71726 0.29417 0.0
C1072 C 0.01501 0.70354 0.25736 0.0
C1073 C 0.02735 0.70129 0.21702 0.0
C1074 C 0.97435 0.69304 0.38524 0.0
C1075 C 0.98766 0.68343 0.41798 0.0
C1076 C 0.99078 0.70722 0.34655 0.0
C1077 C 0.0205 0.71124 0.33944 0.0
C1078 C 0.03461 0.70393 0.37411 0.0
C1079 C 0.01842 0.69036 0.41304 0.0
H1080 H 0.48709 0.09455 0.54587 0.0
H1081 H 0.58086 0.12452 0.50778 0.0
H1082 H 0.50077 0.09409 0.62402 0.0
H1083 H 0.59459 0.12392 0.58552 0.0
H1084 H 0.61112 0.10156 0.73242 0.0
H1085 H 0.5977 0.10203 0.65399 0.0
H1086 H 0.52231 0.11541 0.69361 0.0
H1087 H 0.53594 0.11525 0.7713 0.0
C1088 C 0.51083 0.10139 0.55359 0.0
C1089 C 0.53253 0.11003 0.51815 0.0
C1090 C 0.51895 0.10115 0.59956 0.0
C1091 C 0.54935 0.10905 0.61391 0.0
C1092 C 0.57088 0.11735 0.57823 0.0
C1093 C 0.56286 0.11797 0.53244 0.0
C1094 C 0.59184 0.10499 0.72487 0.0
C1095 C 0.57536 0.10887 0.76061 0.0
C1096 C 0.58387 0.10526 0.67877 0.0
C1097 C 0.55843 0.10884 0.66465 0.0
C1098 C 0.54187 0.11235 0.70064 0.0
C1099 C 0.5501 0.11255 0.74646 0.0
H1100 H 0.45891 0.56707 0.83479 0.0
H1101 H 0.39151 0.47855 0.88601 0.0
H1102 H 0.47787 0.58489 0.9095 0.0
H1103 H 0.41068 0.49619 0.96136 0.0
H1104 H 0.43618 0.53726 1.10295 0.0
H1105 H 0.41827 0.52015 1.02827 0.0
H1106 H 0.50378 0.59378 0.97648 0.0
H1107 H 0.52186 0.61114 1.05267 0.0
C1108 C 0.4477 0.55103 0.86181 0.0
C1109 C 0.42281 0.52091 0.85205 0.0
C1110 C 0.45908 0.5615 0.9059 0.0
C1111 C 0.44652 0.5428 0.94441 0.0
C1112 C 0.42159 0.51248 0.9346 0.0
C1113 C 0.41025 0.50194 0.89025 0.0
C1114 C 0.45166 0.55031 1.07614 0.0
C1115 C 0.48109 0.57621 1.08647 0.0
C1116 C 0.44108 0.53997 1.03188 0.0
C1117 C 0.45884 0.5547 0.99337 0.0
C1118 C 0.48832 0.58103 1.00341 0.0
C1119 C 0.49906 0.59137 1.0482 0.0
H1120 H 0.86411 0.44926 0.18235 0.0
H1121 H 0.90034 0.39176 0.22593 0.0
H1122 H 0.86882 0.46938 0.25776 0.0
H1123 H 0.90526 0.41182 0.30128 0.0
H1124 H 0.894 0.43501 0.44609 0.0
H1125 H 0.88945 0.41669 0.37078 0.0
H1126 H 0.89206 0.49897 0.32272 0.0
H1127 H 0.89675 0.51765 0.39974 0.0
C1128 C 0.8728 0.44034 0.20783 0.0
C1129 C 0.88117 0.41783 0.19593 0.0
C1130 C 0.87589 0.45243 0.25214 0.0
C1131 C 0.88739 0.44285 0.28847 0.0
C1132 C 0.89572 0.42026 0.2764 0.0
C1133 C 0.89285 0.40836 0.23202 0.0
C1134 C 0.89364 0.44973 0.42006 0.0
C1135 C 0.89574 0.4784 0.43168 0.0
C1136 C 0.89118 0.43892 0.3754 0.0
C1137 C 0.89033 0.45562 0.33777 0.0
C1138 C 0.89224 0.4844 0.34907 0.0
C1139 C 0.89503 0.49547 0.39428 0.0
H1140 H 0.41521 0.86423 0.50915 0.0
H1141 H 0.50718 0.88759 0.54756 0.0
H1142 H 0.40176 0.86607 0.58672 0.0
H1143 H 0.49366 0.88905 0.62566 0.0
H1144 H 0.45633 0.8682 0.77242 0.0
H1145 H 0.46983 0.86709 0.69481 0.0
H1146 H 0.4013 0.89046 0.65479 0.0
H1147 H 0.38801 0.89189 0.73315 0.0
C1148 C 0.43283 0.86949 0.53387 0.0
C1149 C 0.46257 0.87526 0.51973 0.0
C1150 C 0.42498 0.87085 0.57952 0.0
C1151 C 0.44607 0.87764 0.61522 0.0
C1152 C 0.47586 0.88328 0.60109 0.0
C1153 C 0.48387 0.88242 0.55519 0.0
C1154 C 0.44368 0.87298 0.74752 0.0
C1155 C 0.42033 0.87971 0.76147 0.0
C1156 C 0.45184 0.87259 0.70178 0.0
C1157 C 0.43711 0.87855 0.66578 0.0
C1158 C 0.41359 0.88521 0.67967 0.0
C1159 C 0.4057 0.88604 0.72569 0.0
H1160 H 0.61735 0.51716 0.89067 0.0
H1161 H 0.5443 0.43264 0.83724 0.0
H1162 H 0.59752 0.4988 0.96591 0.0
H1163 H 0.52468 0.41424 0.91157 0.0
H1164 H 0.4795 0.38872 1.05354 0.0
H1165 H 0.49877 0.40756 0.97822 0.0
H1166 H 0.58802 0.47155 1.03164 0.0
H1167 H 0.56877 0.45295 1.10598 0.0
C1168 C 0.5972 0.49453 0.89435 0.0
C1169 C 0.58323 0.47687 0.8556 0.0
C1170 C 0.58548 0.4836 0.93857 0.0
C1171 C 0.55874 0.45425 0.94755 0.0
C1172 C 0.54487 0.43687 0.90855 0.0
C1173 C 0.55666 0.44765 0.86468 0.0
C1174 C 0.50334 0.40666 1.04963 0.0
C1175 C 0.52201 0.41855 1.08813 0.0
C1176 C 0.5148 0.4178 1.00536 0.0
C1177 C 0.54575 0.44184 0.99612 0.0
C1178 C 0.56417 0.45356 1.03487 0.0
C1179 C 0.55285 0.44234 1.07876 0.0
H1180 H 0.10153 0.46909 0.40269 0.0
H1181 H 0.10337 0.5521 0.44447 0.0
H1182 H 0.10487 0.4857 0.32467 0.0
H1183 H 0.10659 0.56842 0.36816 0.0
H1184 H 0.09499 0.59071 0.22181 0.0
H1185 H 0.09136 0.5727 0.29832 0.0
H1186 H 0.12517 0.51252 0.25692 0.0
H1187 H 0.12856 0.53056 0.18039 0.0
C1188 C 0.10276 0.49094 0.39605 0.0
C1189 C 0.10217 0.50871 0.43261 0.0
C1190 C 0.10475 0.50082 0.35015 0.0
C1191 C 0.10598 0.52907 0.3371 0.0
C1192 C 0.10533 0.54649 0.37394 0.0
C1193 C 0.10364 0.53685 0.41927 0.0
C1194 C 0.1021 0.57389 0.22853 0.0
C1195 C 0.11265 0.56307 0.19255 0.0
C1196 C 0.1 0.5632 0.27368 0.0
C1197 C 0.10805 0.54055 0.28689 0.0
C1198 C 0.11837 0.5296 0.25064 0.0
C1199 C 0.12064 0.54044 0.20556 0.0
loop_
_geom_bond_atom_site_label_1
_geom_bond_atom_site_label_2
_geom_bond_distance
_geom_bond_site_symmetry_2
_ccdc_geom_bond_type
Tb0 C10 2.825 . S
Tb0 O11 2.347 . S
Tb0 O14 2.366 . S
Tb0 O19 2.418 . S
Tb0 O20 2.384 . S
Tb0 O23 2.479 . S
Tb0 O24 2.471 . S
Eu1 O12 2.418 . S
Eu1 O13 2.384 . S
Eu1 O16 2.479 . S
Eu1 O17 2.471 . S
Eu1 O18 2.347 . S
Eu1 O21 2.366 . S
Eu1 C31 2.825 . S
C2 O18 1.259 . S
C2 O19 1.265 . S
C3 O20 1.255 . S
C3 O21 1.265 . S
C4 C6 1.380 . S
C4 C7 1.374 . S
C4 C10 1.507 . S
C5 C6 1.384 . S
C5 C9 1.387 . S
C5 H32 0.930 . S
C6 C4 1.380 . S
C6 C5 1.384 . S
C6 H33 0.931 . S
C7 C4 1.374 . S
C7 C8 1.390 . S
C7 H34 0.930 . S
C8 C7 1.390 . S
C8 C9 1.391 . S
C8 H35 0.930 . S
C9 C5 1.387 . S
C9 C8 1.391 . S
C10 Tb0 2.825 . S
C10 C4 1.507 . S
C10 O23 1.238 . S
C10 O24 1.247 . S
O11 Tb0 2.347 . S
O11 C15 1.259 . S
O12 Eu1 2.418 . S
O12 C15 1.265 . S
O13 Eu1 2.384 . S
O13 C22 1.255 . S
O14 Tb0 2.366 . S
O14 C22 1.265 . S
C15 O11 1.259 . S
C15 O12 1.265 . S
O16 Eu1 2.479 . S
O16 C31 1.238 . S
O17 Eu1 2.471 . S
O17 C31 1.247 . S
O18 Eu1 2.347 . S
O18 C2 1.259 . S
O19 Tb0 2.418 . S
O19 C2 1.265 . S
O20 Tb0 2.384 . S
O20 C3 1.255 . S
O21 Eu1 2.366 . S
O21 C3 1.265 . S
C22 O13 1.255 . S
C22 O14 1.265 . S
O23 Tb0 2.479 . S
O23 C10 1.238 . S
O24 Tb0 2.471 . S
O24 C10 1.247 . S
C25 C28 1.380 . S
C25 C29 1.374 . S
C25 C31 1.507 . S
C26 C27 1.387 . S
C26 C30 1.391 . S
C27 C26 1.387 . S
C27 C28 1.384 . S
C27 H36 0.930 . S
C28 C25 1.380 . S
C28 C27 1.384 . S
C28 H37 0.931 . S
C29 C25 1.374 . S
C29 C30 1.390 . S
C29 H38 0.930 . S
C30 C26 1.391 . S
C30 C29 1.390 . S
C30 H39 0.930 . S
C31 Eu1 2.825 . S
C31 O16 1.238 . S
C31 O17 1.247 . S
C31 C25 1.507 . S
H32 C5 0.930 . S
H33 C6 0.931 . S
H34 C7 0.930 . S
H35 C8 0.930 . S
H36 C27 0.930 . S
H37 C28 0.931 . S
H38 C29 0.930 . S
H39 C30 0.930 . S
Tb40 C50 2.825 . S
Tb40 O51 2.347 . S
Tb40 O54 2.366 . S
Tb40 O59 2.418 . S
Tb40 O60 2.384 . S
Tb40 O63 2.479 . S
Tb40 O64 2.471 . S
Eu41 O52 2.418 . S
Eu41 O53 2.384 . S
Eu41 O56 2.479 . S
Eu41 O57 2.471 . S
Eu41 O58 2.347 . S
Eu41 O61 2.366 . S
Eu41 C71 2.825 . S
C42 O58 1.259 . S
C42 O59 1.265 . S
C43 O60 1.255 . S
C43 O61 1.265 . S
C44 C46 1.380 . S
C44 C47 1.374 . S
C44 C50 1.507 . S
C45 C46 1.384 . S
C45 C49 1.387 . S
C45 H72 0.930 . S
C46 C44 1.380 . S
C46 C45 1.384 . S
C46 H73 0.931 . S
C47 C44 1.374 . S
C47 C48 1.390 . S
C47 H74 0.930 . S
C48 C47 1.390 . S
C48 C49 1.391 . S
C48 H75 0.930 . S
C49 C45 1.387 . S
C49 C48 1.391 . S
C50 Tb40 2.825 . S
C50 C44 1.507 . S
C50 O63 1.238 . S
C50 O64 1.247 . S
O51 Tb40 2.347 . S
O51 C55 1.259 . S
O52 Eu41 2.418 . S
O52 C55 1.265 . S
O53 Eu41 2.384 . S
O53 C62 1.255 . S
O54 Tb40 2.366 . S
O54 C62 1.265 . S
C55 O51 1.259 . S
C55 O52 1.265 . S
O56 Eu41 2.479 . S
O56 C71 1.238 . S
O57 Eu41 2.471 . S
O57 C71 1.247 . S
O58 Eu41 2.347 . S
O58 C42 1.259 . S
O59 Tb40 2.418 . S
O59 C42 1.265 . S
O60 Tb40 2.384 . S
O60 C43 1.255 . S
O61 Eu41 2.366 . S
O61 C43 1.265 . S
C62 O53 1.255 . S
C62 O54 1.265 . S
O63 Tb40 2.479 . S
O63 C50 1.238 . S
O64 Tb40 2.471 . S
O64 C50 1.247 . S
C65 C68 1.380 . S
C65 C69 1.374 . S
C65 C71 1.507 . S
C66 C67 1.387 . S
C66 C70 1.391 . S
C67 C66 1.387 . S
C67 C68 1.384 . S
C67 H76 0.930 . S
C68 C65 1.380 . S
C68 C67 1.384 . S
C68 H77 0.931 . S
C69 C65 1.374 . S
C69 C70 1.390 . S
C69 H78 0.930 . S
C70 C66 1.391 . S
C70 C69 1.390 . S
C70 H79 0.930 . S
C71 Eu41 2.825 . S
C71 O56 1.238 . S
C71 O57 1.247 . S
C71 C65 1.507 . S
H72 C45 0.930 . S
H73 C46 0.931 . S
H74 C47 0.930 . S
H75 C48 0.930 . S
H76 C67 0.930 . S
H77 C68 0.931 . S
H78 C69 0.930 . S
H79 C70 0.930 . S
Tb80 C90 2.825 1_556 S
Tb80 O91 2.347 . S
Tb80 O94 2.366 . S
Tb80 O99 2.418 . S
Tb80 O100 2.384 . S
Tb80 O103 2.479 . S
Tb80 O104 2.471 . S
Eu81 O92 2.418 . S
Eu81 O93 2.384 . S
Eu81 O96 2.479 . S
Eu81 O97 2.471 . S
Eu81 O98 2.347 . S
Eu81 O101 2.366 . S
Eu81 C111 2.825 . S
C82 O98 1.259 . S
C82 O99 1.265 . S
C83 O100 1.255 . S
C83 O101 1.265 . S
C84 C86 1.380 . S
C84 C87 1.374 . S
C84 C90 1.507 . S
C85 C86 1.384 . S
C85 C89 1.387 . S
C85 H112 0.930 . S
C86 C84 1.380 . S
C86 C85 1.384 . S
C86 H113 0.931 . S
C87 C84 1.374 . S
C87 C88 1.390 . S
C87 H114 0.930 . S
C88 C87 1.390 . S
C88 C89 1.391 . S
C88 H115 0.930 . S
C89 C85 1.387 . S
C89 C88 1.391 . S
C90 Tb80 2.825 1_554 S
C90 C84 1.507 . S
C90 O103 1.238 1_554 S
C90 O104 1.247 1_554 S
O91 Tb80 2.347 . S
O91 C95 1.259 . S
O92 Eu81 2.418 . S
O92 C95 1.265 . S
O93 Eu81 2.384 . S
O93 C102 1.255 . S
O94 Tb80 2.366 . S
O94 C102 1.265 . S
C95 O91 1.259 . S
C95 O92 1.265 . S
O96 Eu81 2.479 . S
O96 C111 1.238 . S
O97 Eu81 2.471 . S
O97 C111 1.247 . S
O98 Eu81 2.347 . S
O98 C82 1.259 . S
O99 Tb80 2.418 . S
O99 C82 1.265 . S
O100 Tb80 2.384 . S
O100 C83 1.255 . S
O101 Eu81 2.366 . S
O101 C83 1.265 . S
C102 O93 1.255 . S
C102 O94 1.265 . S
O103 Tb80 2.479 . S
O103 C90 1.238 1_556 S
O104 Tb80 2.471 . S
O104 C90 1.247 1_556 S
C105 C108 1.380 . S
C105 C109 1.374 . S
C105 C111 1.507 . S
C106 C107 1.387 . S
C106 C110 1.391 . S
C107 C106 1.387 . S
C107 C108 1.384 . S
C107 H116 0.930 . S
C108 C105 1.380 . S
C108 C107 1.384 . S
C108 H117 0.931 . S
C109 C105 1.374 . S
C109 C110 1.390 . S
C109 H118 0.930 . S
C110 C106 1.391 . S
C110 C109 1.390 . S
C110 H119 0.930 . S
C111 Eu81 2.825 . S
C111 O96 1.238 . S
C111 O97 1.247 . S
C111 C105 1.507 . S
H112 C85 0.930 . S
H113 C86 0.931 . S
H114 C87 0.930 . S
H115 C88 0.930 . S
H116 C107 0.930 . S
H117 C108 0.931 . S
H118 C109 0.930 . S
H119 C110 0.930 . S
Tb120 C130 2.825 . S
Tb120 O131 2.347 . S
Tb120 O134 2.366 . S
Tb120 O139 2.418 . S
Tb120 O140 2.384 . S
Tb120 O143 2.479 . S
Tb120 O144 2.471 . S
Eu121 O132 2.418 . S
Eu121 O133 2.384 . S
Eu121 O136 2.479 . S
Eu121 O137 2.471 . S
Eu121 O138 2.347 . S
Eu121 O141 2.366 . S
Eu121 C151 2.825 . S
C122 O138 1.259 . S
C122 O139 1.265 . S
C123 O140 1.255 . S
C123 O141 1.265 . S
C124 C126 1.380 . S
C124 C127 1.374 . S
C124 C130 1.507 . S
C125 C126 1.384 . S
C125 C129 1.387 . S
C125 H152 0.930 . S
C126 C124 1.380 . S
C126 C125 1.384 . S
C126 H153 0.931 . S
C127 C124 1.374 . S
C127 C128 1.390 . S
C127 H154 0.930 . S
C128 C127 1.390 . S
C128 C129 1.391 . S
C128 H155 0.930 . S
C129 C125 1.387 . S
C129 C128 1.391 . S
C130 Tb120 2.825 . S
C130 C124 1.507 . S
C130 O143 1.238 . S
C130 O144 1.247 . S
O131 Tb120 2.347 . S
O131 C135 1.259 . S
O132 Eu121 2.418 . S
O132 C135 1.265 . S
O133 Eu121 2.384 . S
O133 C142 1.255 . S
O134 Tb120 2.366 . S
O134 C142 1.265 . S
C135 O131 1.259 . S
C135 O132 1.265 . S
O136 Eu121 2.479 . S
O136 C151 1.238 . S
O137 Eu121 2.471 . S
O137 C151 1.247 . S
O138 Eu121 2.347 . S
O138 C122 1.259 . S
O139 Tb120 2.418 . S
O139 C122 1.265 . S
O140 Tb120 2.384 . S
O140 C123 1.255 . S
O141 Eu121 2.366 . S
O141 C123 1.265 . S
C142 O133 1.255 . S
C142 O134 1.265 . S
O143 Tb120 2.479 . S
O143 C130 1.238 . S
O144 Tb120 2.471 . S
O144 C130 1.247 . S
C145 C148 1.380 . S
C145 C149 1.374 . S
C145 C151 1.507 . S
C146 C147 1.387 . S
C146 C150 1.391 . S
C147 C146 1.387 . S
C147 C148 1.384 . S
C147 H156 0.930 . S
C148 C145 1.380 . S
C148 C147 1.384 . S
C148 H157 0.931 . S
C149 C145 1.374 . S
C149 C150 1.390 . S
C149 H158 0.930 . S
C150 C146 1.391 . S
C150 C149 1.390 . S
C150 H159 0.930 . S
C151 Eu121 2.825 . S
C151 O136 1.238 . S
C151 O137 1.247 . S
C151 C145 1.507 . S
H152 C125 0.930 . S
H153 C126 0.931 . S
H154 C127 0.930 . S
H155 C128 0.930 . S
H156 C147 0.930 . S
H157 C148 0.931 . S
H158 C149 0.930 . S
H159 C150 0.930 . S
Tb160 C170 2.825 . S
Tb160 O171 2.347 . S
Tb160 O174 2.366 . S
Tb160 O179 2.418 . S
Tb160 O180 2.384 . S
Tb160 O183 2.479 . S
Tb160 O184 2.471 . S
Eu161 O172 2.418 . S
Eu161 O173 2.384 . S
Eu161 O176 2.479 . S
Eu161 O177 2.471 . S
Eu161 O178 2.347 . S
Eu161 O181 2.366 . S
Eu161 C191 2.825 . S
C162 O178 1.259 . S
C162 O179 1.265 . S
C163 O180 1.255 . S
C163 O181 1.265 . S
C164 C166 1.380 . S
C164 C167 1.374 . S
C164 C170 1.507 . S
C165 C166 1.384 . S
C165 C169 1.387 . S
C165 H192 0.930 . S
C166 C164 1.380 . S
C166 C165 1.384 . S
C166 H193 0.931 . S
C167 C164 1.374 . S
C167 C168 1.390 . S
C167 H194 0.930 . S
C168 C167 1.390 . S
C168 C169 1.391 . S
C168 H195 0.930 . S
C169 C165 1.387 . S
C169 C168 1.391 . S
C170 Tb160 2.825 . S
C170 C164 1.507 . S
C170 O183 1.238 . S
C170 O184 1.247 . S
O171 Tb160 2.347 . S
O171 C175 1.259 . S
O172 Eu161 2.418 . S
O172 C175 1.265 . S
O173 Eu161 2.384 . S
O173 C182 1.255 . S
O174 Tb160 2.366 . S
O174 C182 1.265 . S
C175 O171 1.259 . S
C175 O172 1.265 . S
O176 Eu161 2.479 . S
O176 C191 1.238 . S
O177 Eu161 2.471 . S
O177 C191 1.247 . S
O178 Eu161 2.347 . S
O178 C162 1.259 . S
O179 Tb160 2.418 . S
O179 C162 1.265 . S
O180 Tb160 2.384 . S
O180 C163 1.255 . S
O181 Eu161 2.366 . S
O181 C163 1.265 . S
C182 O173 1.255 . S
C182 O174 1.265 . S
O183 Tb160 2.479 . S
O183 C170 1.238 . S
O184 Tb160 2.471 . S
O184 C170 1.247 . S
C185 C188 1.380 . S
C185 C189 1.374 . S
C185 C191 1.507 . S
C186 C187 1.387 . S
C186 C190 1.391 . S
C187 C186 1.387 . S
C187 C188 1.384 . S
C187 H196 0.930 . S
C188 C185 1.380 . S
C188 C187 1.384 . S
C188 H197 0.931 . S
C189 C185 1.374 . S
C189 C190 1.390 . S
C189 H198 0.930 . S
C190 C186 1.391 . S
C190 C189 1.390 . S
C190 H199 0.930 . S
C191 Eu161 2.825 . S
C191 O176 1.238 . S
C191 O177 1.247 . S
C191 C185 1.507 . S
H192 C165 0.930 . S
H193 C166 0.931 . S
H194 C167 0.930 . S
H195 C168 0.930 . S
H196 C187 0.930 . S
H197 C188 0.931 . S
H198 C189 0.930 . S
H199 C190 0.930 . S
Tb200 C210 2.825 1_556 S
Tb200 O211 2.347 . S
Tb200 O214 2.366 . S
Tb200 O219 2.418 . S
Tb200 O220 2.384 . S
Tb200 O223 2.479 . S
Tb200 O224 2.471 . S
Eu201 O212 2.418 . S
Eu201 O213 2.384 . S
Eu201 O216 2.479 . S
Eu201 O217 2.471 . S
Eu201 O218 2.347 . S
Eu201 O221 2.366 . S
Eu201 C231 2.825 . S
C202 O218 1.259 . S
C202 O219 1.265 . S
C203 O220 1.255 . S
C203 O221 1.265 . S
C204 C206 1.380 . S
C204 C207 1.374 . S
C204 C210 1.507 . S
C205 C206 1.384 . S
C205 C209 1.387 . S
C205 H232 0.930 . S
C206 C204 1.380 . S
C206 C205 1.384 . S
C206 H233 0.931 . S
C207 C204 1.374 . S
C207 C208 1.390 . S
C207 H234 0.930 . S
C208 C207 1.390 . S
C208 C209 1.391 . S
C208 H235 0.930 . S
C209 C205 1.387 . S
C209 C208 1.391 . S
C210 Tb200 2.825 1_554 S
C210 C204 1.507 . S
C210 O223 1.238 1_554 S
C210 O224 1.247 1_554 S
O211 Tb200 2.347 . S
O211 C215 1.259 . S
O212 Eu201 2.418 . S
O212 C215 1.265 . S
O213 Eu201 2.384 . S
O213 C222 1.255 . S
O214 Tb200 2.366 . S
O214 C222 1.265 . S
C215 O211 1.259 . S
C215 O212 1.265 . S
O216 Eu201 2.479 . S
O216 C231 1.238 . S
O217 Eu201 2.471 . S
O217 C231 1.247 . S
O218 Eu201 2.347 . S
O218 C202 1.259 . S
O219 Tb200 2.418 . S
O219 C202 1.265 . S
O220 Tb200 2.384 . S
O220 C203 1.255 . S
O221 Eu201 2.366 . S
O221 C203 1.265 . S
C222 O213 1.255 . S
C222 O214 1.265 . S
O223 Tb200 2.479 . S
O223 C210 1.238 1_556 S
O224 Tb200 2.471 . S
O224 C210 1.247 1_556 S
C225 C228 1.380 . S
C225 C229 1.374 . S
C225 C231 1.507 . S
C226 C227 1.387 . S
C226 C230 1.391 . S
C227 C226 1.387 . S
C227 C228 1.384 . S
C227 H236 0.930 . S
C228 C225 1.380 . S
C228 C227 1.384 . S
C228 H237 0.931 . S
C229 C225 1.374 . S
C229 C230 1.390 . S
C229 H238 0.930 . S
C230 C226 1.391 . S
C230 C229 1.390 . S
C230 H239 0.930 . S
C231 Eu201 2.825 . S
C231 O216 1.238 . S
C231 O217 1.247 . S
C231 C225 1.507 . S
H232 C205 0.930 . S
H233 C206 0.931 . S
H234 C207 0.930 . S
H235 C208 0.930 . S
H236 C227 0.930 . S
H237 C228 0.931 . S
H238 C229 0.930 . S
H239 C230 0.930 . S
Tb240 C250 2.825 . S
Tb240 O251 2.347 . S
Tb240 O254 2.366 . S
Tb240 O259 2.418 . S
Tb240 O260 2.384 . S
Tb240 O263 2.479 . S
Tb240 O264 2.471 . S
Eu241 O252 2.418 . S
Eu241 O253 2.384 . S
Eu241 O256 2.479 . S
Eu241 O257 2.471 . S
Eu241 O258 2.347 . S
Eu241 O261 2.366 . S
Eu241 C271 2.825 . S
C242 O258 1.259 . S
C242 O259 1.265 . S
C243 O260 1.255 . S
C243 O261 1.265 . S
C244 C246 1.380 . S
C244 C247 1.374 . S
C244 C250 1.507 . S
C245 C246 1.384 . S
C245 C249 1.387 . S
C245 H272 0.930 . S
C246 C244 1.380 . S
C246 C245 1.384 . S
C246 H273 0.931 . S
C247 C244 1.374 . S
C247 C248 1.390 . S
C247 H274 0.930 . S
C248 C247 1.390 . S
C248 C249 1.391 . S
C248 H275 0.930 . S
C249 C245 1.387 . S
C249 C248 1.391 . S
C250 Tb240 2.825 . S
C250 C244 1.507 . S
C250 O263 1.238 . S
C250 O264 1.247 . S
O251 Tb240 2.347 . S
O251 C255 1.259 . S
O252 Eu241 2.418 . S
O252 C255 1.265 . S
O253 Eu241 2.384 . S
O253 C262 1.255 . S
O254 Tb240 2.366 . S
O254 C262 1.265 . S
C255 O251 1.259 . S
C255 O252 1.265 . S
O256 Eu241 2.479 . S
O256 C271 1.238 . S
O257 Eu241 2.471 . S
O257 C271 1.247 . S
O258 Eu241 2.347 . S
O258 C242 1.259 . S
O259 Tb240 2.418 . S
O259 C242 1.265 . S
O260 Tb240 2.384 . S
O260 C243 1.255 . S
O261 Eu241 2.366 . S
O261 C243 1.265 . S
C262 O253 1.255 . S
C262 O254 1.265 . S
O263 Tb240 2.479 . S
O263 C250 1.238 . S
O264 Tb240 2.471 . S
O264 C250 1.247 . S
C265 C268 1.380 . S
C265 C269 1.374 . S
C265 C271 1.507 . S
C266 C267 1.387 . S
C266 C270 1.391 . S
C267 C266 1.387 . S
C267 C268 1.384 . S
C267 H276 0.930 . S
C268 C265 1.380 . S
C268 C267 1.384 . S
C268 H277 0.931 . S
C269 C265 1.374 . S
C269 C270 1.390 . S
C269 H278 0.930 . S
C270 C266 1.391 . S
C270 C269 1.390 . S
C270 H279 0.930 . S
C271 Eu241 2.825 . S
C271 O256 1.238 . S
C271 O257 1.247 . S
C271 C265 1.507 . S
H272 C245 0.930 . S
H273 C246 0.931 . S
H274 C247 0.930 . S
H275 C248 0.930 . S
H276 C267 0.930 . S
H277 C268 0.931 . S
H278 C269 0.930 . S
H279 C270 0.930 . S
Tb280 C290 2.825 . S
Tb280 O291 2.347 . S
Tb280 O294 2.366 . S
Tb280 O299 2.418 . S
Tb280 O300 2.384 . S
Tb280 O303 2.479 . S
Tb280 O304 2.471 . S
Eu281 O292 2.418 . S
Eu281 O293 2.384 . S
Eu281 O296 2.479 . S
Eu281 O297 2.471 . S
Eu281 O298 2.347 . S
Eu281 O301 2.366 . S
Eu281 C311 2.825 . S
C282 O298 1.259 . S
C282 O299 1.265 . S
C283 O300 1.255 . S
C283 O301 1.265 . S
C284 C286 1.380 . S
C284 C287 1.374 . S
C284 C290 1.507 . S
C285 C286 1.384 . S
C285 C289 1.387 . S
C285 H312 0.930 . S
C286 C284 1.380 . S
C286 C285 1.384 . S
C286 H313 0.931 . S
C287 C284 1.374 . S
C287 C288 1.390 . S
C287 H314 0.930 . S
C288 C287 1.390 . S
C288 C289 1.391 . S
C288 H315 0.930 . S
C289 C285 1.387 . S
C289 C288 1.391 . S
C290 Tb280 2.825 . S
C290 C284 1.507 . S
C290 O303 1.238 . S
C290 O304 1.247 . S
O291 Tb280 2.347 . S
O291 C295 1.259 . S
O292 Eu281 2.418 . S
O292 C295 1.265 . S
O293 Eu281 2.384 . S
O293 C302 1.255 . S
O294 Tb280 2.366 . S
O294 C302 1.265 . S
C295 O291 1.259 . S
C295 O292 1.265 . S
O296 Eu281 2.479 . S
O296 C311 1.238 . S
O297 Eu281 2.471 . S
O297 C311 1.247 . S
O298 Eu281 2.347 . S
O298 C282 1.259 . S
O299 Tb280 2.418 . S
O299 C282 1.265 . S
O300 Tb280 2.384 . S
O300 C283 1.255 . S
O301 Eu281 2.366 . S
O301 C283 1.265 . S
C302 O293 1.255 . S
C302 O294 1.265 . S
O303 Tb280 2.479 . S
O303 C290 1.238 . S
O304 Tb280 2.471 . S
O304 C290 1.247 . S
C305 C308 1.380 . S
C305 C309 1.374 . S
C305 C311 1.507 . S
C306 C307 1.387 . S
C306 C310 1.391 . S
C307 C306 1.387 . S
C307 C308 1.384 . S
C307 H316 0.930 . S
C308 C305 1.380 . S
C308 C307 1.384 . S
C308 H317 0.931 . S
C309 C305 1.374 . S
C309 C310 1.390 . S
C309 H318 0.930 . S
C310 C306 1.391 . S
C310 C309 1.390 . S
C310 H319 0.930 . S
C311 Eu281 2.825 . S
C311 O296 1.238 . S
C311 O297 1.247 . S
C311 C305 1.507 . S
H312 C285 0.930 . S
H313 C286 0.931 . S
H314 C287 0.930 . S
H315 C288 0.930 . S
H316 C307 0.930 . S
H317 C308 0.931 . S
H318 C309 0.930 . S
H319 C310 0.930 . S
Tb320 C330 2.825 1_554 S
Tb320 O331 2.347 . S
Tb320 O334 2.366 . S
Tb320 O339 2.418 . S
Tb320 O340 2.384 . S
Tb320 O343 2.479 . S
Tb320 O344 2.471 . S
Eu321 O332 2.418 . S
Eu321 O333 2.384 . S
Eu321 O336 2.479 . S
Eu321 O337 2.471 . S
Eu321 O338 2.347 . S
Eu321 O341 2.366 . S
Eu321 C351 2.825 . S
C322 O338 1.259 . S
C322 O339 1.265 . S
C323 O340 1.255 . S
C323 O341 1.265 . S
C324 C326 1.380 . S
C324 C327 1.374 . S
C324 C330 1.507 . S
C325 C326 1.384 . S
C325 C329 1.387 . S
C325 H352 0.930 . S
C326 C324 1.380 . S
C326 C325 1.384 . S
C326 H353 0.931 . S
C327 C324 1.374 . S
C327 C328 1.390 . S
C327 H354 0.930 . S
C328 C327 1.390 . S
C328 C329 1.391 . S
C328 H355 0.930 . S
C329 C325 1.387 . S
C329 C328 1.391 . S
C330 Tb320 2.825 1_556 S
C330 C324 1.507 . S
C330 O343 1.238 1_556 S
C330 O344 1.247 1_556 S
O331 Tb320 2.347 . S
O331 C335 1.259 . S
O332 Eu321 2.418 . S
O332 C335 1.265 . S
O333 Eu321 2.384 . S
O333 C342 1.255 . S
O334 Tb320 2.366 . S
O334 C342 1.265 . S
C335 O331 1.259 . S
C335 O332 1.265 . S
O336 Eu321 2.479 . S
O336 C351 1.238 . S
O337 Eu321 2.471 . S
O337 C351 1.247 . S
O338 Eu321 2.347 . S
O338 C322 1.259 . S
O339 Tb320 2.418 . S
O339 C322 1.265 . S
O340 Tb320 2.384 . S
O340 C323 1.255 . S
O341 Eu321 2.366 . S
O341 C323 1.265 . S
C342 O333 1.255 . S
C342 O334 1.265 . S
O343 Tb320 2.479 . S
O343 C330 1.238 1_554 S
O344 Tb320 2.471 . S
O344 C330 1.247 1_554 S
C345 C348 1.380 . S
C345 C349 1.374 . S
C345 C351 1.507 . S
C346 C347 1.387 . S
C346 C350 1.391 . S
C347 C346 1.387 . S
C347 C348 1.384 . S
C347 H356 0.930 . S
C348 C345 1.380 . S
C348 C347 1.384 . S
C348 H357 0.931 . S
C349 C345 1.374 . S
C349 C350 1.390 . S
C349 H358 0.930 . S
C350 C346 1.391 . S
C350 C349 1.390 . S
C350 H359 0.930 . S
C351 Eu321 2.825 . S
C351 O336 1.238 . S
C351 O337 1.247 . S
C351 C345 1.507 . S
H352 C325 0.930 . S
H353 C326 0.931 . S
H354 C327 0.930 . S
H355 C328 0.930 . S
H356 C347 0.930 . S
H357 C348 0.931 . S
H358 C349 0.930 . S
H359 C350 0.930 . S
Tb360 C370 2.825 . S
Tb360 O371 2.347 . S
Tb360 O374 2.366 . S
Tb360 O379 2.418 . S
Tb360 O380 2.384 . S
Tb360 O383 2.479 . S
Tb360 O384 2.471 . S
Eu361 O372 2.418 . S
Eu361 O373 2.384 . S
Eu361 O376 2.479 . S
Eu361 O377 2.471 . S
Eu361 O378 2.347 . S
Eu361 O381 2.366 . S
Eu361 C391 2.825 . S
C362 O378 1.259 . S
C362 O379 1.265 . S
C363 O380 1.255 . S
C363 O381 1.265 . S
C364 C366 1.380 . S
C364 C367 1.374 . S
C364 C370 1.507 . S
C365 C366 1.384 . S
C365 C369 1.387 . S
C365 H392 0.930 . S
C366 C364 1.380 . S
C366 C365 1.384 . S
C366 H393 0.931 . S
C367 C364 1.374 . S
C367 C368 1.390 . S
C367 H394 0.930 . S
C368 C367 1.390 . S
C368 C369 1.391 . S
C368 H395 0.930 . S
C369 C365 1.387 . S
C369 C368 1.391 . S
C370 Tb360 2.825 . S
C370 C364 1.507 . S
C370 O383 1.238 . S
C370 O384 1.247 . S
O371 Tb360 2.347 . S
O371 C375 1.259 . S
O372 Eu361 2.418 . S
O372 C375 1.265 . S
O373 Eu361 2.384 . S
O373 C382 1.255 . S
O374 Tb360 2.366 . S
O374 C382 1.265 . S
C375 O371 1.259 . S
C375 O372 1.265 . S
O376 Eu361 2.479 . S
O376 C391 1.238 . S
O377 Eu361 2.471 . S
O377 C391 1.247 . S
O378 Eu361 2.347 . S
O378 C362 1.259 . S
O379 Tb360 2.418 . S
O379 C362 1.265 . S
O380 Tb360 2.384 . S
O380 C363 1.255 . S
O381 Eu361 2.366 . S
O381 C363 1.265 . S
C382 O373 1.255 . S
C382 O374 1.265 . S
O383 Tb360 2.479 . S
O383 C370 1.238 . S
O384 Tb360 2.471 . S
O384 C370 1.247 . S
C385 C388 1.380 . S
C385 C389 1.374 . S
C385 C391 1.507 . S
C386 C387 1.387 . S
C386 C390 1.391 . S
C387 C386 1.387 . S
C387 C388 1.384 . S
C387 H396 0.930 . S
C388 C385 1.380 . S
C388 C387 1.384 . S
C388 H397 0.931 . S
C389 C385 1.374 . S
C389 C390 1.390 . S
C389 H398 0.930 . S
C390 C386 1.391 . S
C390 C389 1.390 . S
C390 H399 0.930 . S
C391 Eu361 2.825 . S
C391 O376 1.238 . S
C391 O377 1.247 . S
C391 C385 1.507 . S
H392 C365 0.930 . S
H393 C366 0.931 . S
H394 C367 0.930 . S
H395 C368 0.930 . S
H396 C387 0.930 . S
H397 C388 0.931 . S
H398 C389 0.930 . S
H399 C390 0.930 . S
Tb400 C410 2.825 . S
Tb400 O411 2.347 . S
Tb400 O414 2.366 . S
Tb400 O419 2.418 . S
Tb400 O420 2.384 . S
Tb400 O423 2.479 . S
Tb400 O424 2.471 . S
Eu401 O412 2.418 . S
Eu401 O413 2.384 . S
Eu401 O416 2.479 . S
Eu401 O417 2.471 . S
Eu401 O418 2.347 . S
Eu401 O421 2.366 . S
Eu401 C431 2.825 . S
C402 O418 1.259 . S
C402 O419 1.265 . S
C403 O420 1.255 . S
C403 O421 1.265 . S
C404 C406 1.380 . S
C404 C407 1.374 . S
C404 C410 1.507 . S
C405 C406 1.384 . S
C405 C409 1.387 . S
C405 H432 0.930 . S
C406 C404 1.380 . S
C406 C405 1.384 . S
C406 H433 0.931 . S
C407 C404 1.374 . S
C407 C408 1.390 . S
C407 H434 0.930 . S
C408 C407 1.390 . S
C408 C409 1.391 . S
C408 H435 0.930 . S
C409 C405 1.387 . S
C409 C408 1.391 . S
C410 Tb400 2.825 . S
C410 C404 1.507 . S
C410 O423 1.238 . S
C410 O424 1.247 . S
O411 Tb400 2.347 . S
O411 C415 1.259 . S
O412 Eu401 2.418 . S
O412 C415 1.265 . S
O413 Eu401 2.384 . S
O413 C422 1.255 . S
O414 Tb400 2.366 . S
O414 C422 1.265 . S
C415 O411 1.259 . S
C415 O412 1.265 . S
O416 Eu401 2.479 . S
O416 C431 1.238 . S
O417 Eu401 2.471 . S
O417 C431 1.247 . S
O418 Eu401 2.347 . S
O418 C402 1.259 . S
O419 Tb400 2.418 . S
O419 C402 1.265 . S
O420 Tb400 2.384 . S
O420 C403 1.255 . S
O421 Eu401 2.366 . S
O421 C403 1.265 . S
C422 O413 1.255 . S
C422 O414 1.265 . S
O423 Tb400 2.479 . S
O423 C410 1.238 . S
O424 Tb400 2.471 . S
O424 C410 1.247 . S
C425 C428 1.380 . S
C425 C429 1.374 . S
C425 C431 1.507 . S
C426 C427 1.387 . S
C426 C430 1.391 . S
C427 C426 1.387 . S
C427 C428 1.384 . S
C427 H436 0.930 . S
C428 C425 1.380 . S
C428 C427 1.384 . S
C428 H437 0.931 . S
C429 C425 1.374 . S
C429 C430 1.390 . S
C429 H438 0.930 . S
C430 C426 1.391 . S
C430 C429 1.390 . S
C430 H439 0.930 . S
C431 Eu401 2.825 . S
C431 O416 1.238 . S
C431 O417 1.247 . S
C431 C425 1.507 . S
H432 C405 0.930 . S
H433 C406 0.931 . S
H434 C407 0.930 . S
H435 C408 0.930 . S
H436 C427 0.930 . S
H437 C428 0.931 . S
H438 C429 0.930 . S
H439 C430 0.930 . S
Tb440 C450 2.825 1_554 S
Tb440 O451 2.347 . S
Tb440 O454 2.366 . S
Tb440 O459 2.418 . S
Tb440 O460 2.384 . S
Tb440 O463 2.479 . S
Tb440 O464 2.471 . S
Eu441 O452 2.418 . S
Eu441 O453 2.384 . S
Eu441 O456 2.479 . S
Eu441 O457 2.471 . S
Eu441 O458 2.347 . S
Eu441 O461 2.366 . S
Eu441 C471 2.825 . S
C442 O458 1.259 . S
C442 O459 1.265 . S
C443 O460 1.255 . S
C443 O461 1.265 . S
C444 C446 1.380 . S
C444 C447 1.374 . S
C444 C450 1.507 . S
C445 C446 1.384 . S
C445 C449 1.387 . S
C445 H472 0.930 . S
C446 C444 1.380 . S
C446 C445 1.384 . S
C446 H473 0.931 . S
C447 C444 1.374 . S
C447 C448 1.390 . S
C447 H474 0.930 . S
C448 C447 1.390 . S
C448 C449 1.391 . S
C448 H475 0.930 . S
C449 C445 1.387 . S
C449 C448 1.391 . S
C450 Tb440 2.825 1_556 S
C450 C444 1.507 . S
C450 O463 1.238 1_556 S
C450 O464 1.247 1_556 S
O451 Tb440 2.347 . S
O451 C455 1.259 . S
O452 Eu441 2.418 . S
O452 C455 1.265 . S
O453 Eu441 2.384 . S
O453 C462 1.255 . S
O454 Tb440 2.366 . S
O454 C462 1.265 . S
C455 O451 1.259 . S
C455 O452 1.265 . S
O456 Eu441 2.479 . S
O456 C471 1.238 . S
O457 Eu441 2.471 . S
O457 C471 1.247 . S
O458 Eu441 2.347 . S
O458 C442 1.259 . S
O459 Tb440 2.418 . S
O459 C442 1.265 . S
O460 Tb440 2.384 . S
O460 C443 1.255 . S
O461 Eu441 2.366 . S
O461 C443 1.265 . S
C462 O453 1.255 . S
C462 O454 1.265 . S
O463 Tb440 2.479 . S
O463 C450 1.238 1_554 S
O464 Tb440 2.471 . S
O464 C450 1.247 1_554 S
C465 C468 1.380 . S
C465 C469 1.374 . S
C465 C471 1.507 . S
C466 C467 1.387 . S
C466 C470 1.391 . S
C467 C466 1.387 . S
C467 C468 1.384 . S
C467 H476 0.930 . S
C468 C465 1.380 . S
C468 C467 1.384 . S
C468 H477 0.931 . S
C469 C465 1.374 . S
C469 C470 1.390 . S
C469 H478 0.930 . S
C470 C466 1.391 . S
C470 C469 1.390 . S
C470 H479 0.930 . S
C471 Eu441 2.825 . S
C471 O456 1.238 . S
C471 O457 1.247 . S
C471 C465 1.507 . S
H472 C445 0.930 . S
H473 C446 0.931 . S
H474 C447 0.930 . S
H475 C448 0.930 . S
H476 C467 0.930 . S
H477 C468 0.931 . S
H478 C469 0.930 . S
H479 C470 0.930 . S
H480 C488 0.950 . S
H481 C493 0.950 . S
H482 C490 0.950 . S
H483 C492 0.950 . S
H484 C494 0.950 . S
H485 C496 0.950 . S
H486 C498 0.950 . S
H487 C499 0.950 . S
C488 H480 0.950 . S
C488 C489 1.386 . S
C488 C490 1.391 . S
C489 C488 1.386 . S
C489 C493 1.393 . S
C490 H482 0.950 . S
C490 C488 1.391 . S
C490 C491 1.400 . S
C491 C490 1.400 . S
C491 C492 1.398 . S
C491 C497 1.491 . S
C492 H483 0.950 . S
C492 C491 1.398 . S
C492 C493 1.391 . S
C493 H481 0.950 . S
C493 C489 1.393 . S
C493 C492 1.391 . S
C494 H484 0.950 . S
C494 C495 1.386 . S
C494 C496 1.391 . S
C495 C494 1.386 . S
C495 C499 1.393 . S
C496 H485 0.950 . S
C496 C494 1.391 . S
C496 C497 1.400 . S
C497 C491 1.491 . S
C497 C496 1.400 . S
C497 C498 1.398 . S
C498 H486 0.950 . S
C498 C497 1.398 . S
C498 C499 1.391 . S
C499 H487 0.950 . S
C499 C495 1.393 . S
C499 C498 1.391 . S
H500 C508 0.950 . S
H501 C513 0.950 . S
H502 C510 0.950 . S
H503 C512 0.950 . S
H504 C514 0.950 . S
H505 C516 0.950 . S
H506 C518 0.950 . S
H507 C519 0.950 . S
C508 H500 0.950 . S
C508 C509 1.386 . S
C508 C510 1.391 . S
C509 C508 1.386 . S
C509 C513 1.393 . S
C510 H502 0.950 . S
C510 C508 1.391 . S
C510 C511 1.400 . S
C511 C510 1.400 . S
C511 C512 1.398 . S
C511 C517 1.491 . S
C512 H503 0.950 . S
C512 C511 1.398 . S
C512 C513 1.391 . S
C513 H501 0.950 . S
C513 C509 1.393 . S
C513 C512 1.391 . S
C514 H504 0.950 . S
C514 C515 1.386 . S
C514 C516 1.391 . S
C515 C514 1.386 . S
C515 C519 1.393 . S
C516 H505 0.950 . S
C516 C514 1.391 . S
C516 C517 1.400 . S
C517 C511 1.491 . S
C517 C516 1.400 . S
C517 C518 1.398 . S
C518 H506 0.950 . S
C518 C517 1.398 . S
C518 C519 1.391 . S
C519 H507 0.950 . S
C519 C515 1.393 . S
C519 C518 1.391 . S
H520 C528 0.950 . S
H521 C533 0.950 . S
H522 C530 0.950 . S
H523 C532 0.950 . S
H524 C534 0.950 . S
H525 C536 0.950 . S
H526 C538 0.950 . S
H527 C539 0.950 . S
C528 H520 0.950 . S
C528 C529 1.386 . S
C528 C530 1.391 . S
C529 C528 1.386 . S
C529 C533 1.393 . S
C530 H522 0.950 . S
C530 C528 1.391 . S
C530 C531 1.400 . S
C531 C530 1.400 . S
C531 C532 1.398 . S
C531 C537 1.491 . S
C532 H523 0.950 . S
C532 C531 1.398 . S
C532 C533 1.391 . S
C533 H521 0.950 . S
C533 C529 1.393 . S
C533 C532 1.391 . S
C534 H524 0.950 . S
C534 C535 1.386 . S
C534 C536 1.391 . S
C535 C534 1.386 . S
C535 C539 1.393 . S
C536 H525 0.950 . S
C536 C534 1.391 . S
C536 C537 1.400 . S
C537 C531 1.491 . S
C537 C536 1.400 . S
C537 C538 1.398 . S
C538 H526 0.950 . S
C538 C537 1.398 . S
C538 C539 1.391 . S
C539 H527 0.950 . S
C539 C535 1.393 . S
C539 C538 1.391 . S
H540 C548 0.950 . S
H541 C553 0.950 . S
H542 C550 0.950 . S
H543 C552 0.950 . S
H544 C554 0.950 . S
H545 C556 0.950 . S
H546 C558 0.950 . S
H547 C559 0.950 . S
C548 H540 0.950 . S
C548 C549 1.386 . S
C548 C550 1.391 . S
C549 C548 1.386 . S
C549 C553 1.393 . S
C550 H542 0.950 . S
C550 C548 1.391 . S
C550 C551 1.400 . S
C551 C550 1.400 . S
C551 C552 1.398 . S
C551 C557 1.491 . S
C552 H543 0.950 . S
C552 C551 1.398 . S
C552 C553 1.391 . S
C553 H541 0.950 . S
C553 C549 1.393 . S
C553 C552 1.391 . S
C554 H544 0.950 . S
C554 C555 1.386 . S
C554 C556 1.391 . S
C555 C554 1.386 . S
C555 C559 1.393 . S
C556 H545 0.950 . S
C556 C554 1.391 . S
C556 C557 1.400 . S
C557 C551 1.491 . S
C557 C556 1.400 . S
C557 C558 1.398 . S
C558 H546 0.950 . S
C558 C557 1.398 . S
C558 C559 1.391 . S
C559 H547 0.950 . S
C559 C555 1.393 . S
C559 C558 1.391 . S
H560 C568 0.950 . S
H561 C573 0.950 . S
H562 C570 0.950 . S
H563 C572 0.950 . S
H564 C574 0.950 . S
H565 C576 0.950 . S
H566 C578 0.950 . S
H567 C579 0.950 . S
C568 H560 0.950 . S
C568 C569 1.386 . S
C568 C570 1.391 . S
C569 C568 1.386 . S
C569 C573 1.393 . S
C570 H562 0.950 . S
C570 C568 1.391 . S
C570 C571 1.400 . S
C571 C570 1.400 . S
C571 C572 1.398 . S
C571 C577 1.491 . S
C572 H563 0.950 . S
C572 C571 1.398 . S
C572 C573 1.391 . S
C573 H561 0.950 . S
C573 C569 1.393 . S
C573 C572 1.391 . S
C574 H564 0.950 . S
C574 C575 1.386 . S
C574 C576 1.391 . S
C575 C574 1.386 . S
C575 C579 1.393 . S
C576 H565 0.950 . S
C576 C574 1.391 . S
C576 C577 1.400 . S
C577 C571 1.491 . S
C577 C576 1.400 . S
C577 C578 1.398 . S
C578 H566 0.950 . S
C578 C577 1.398 . S
C578 C579 1.391 . S
C579 H567 0.950 . S
C579 C575 1.393 . S
C579 C578 1.391 . S
H580 C588 0.950 . S
H581 C593 0.950 . S
H582 C590 0.950 . S
H583 C592 0.950 . S
H584 C594 0.950 . S
H585 C596 0.950 . S
H586 C598 0.950 . S
H587 C599 0.950 . S
C588 H580 0.950 . S
C588 C589 1.386 . S
C588 C590 1.391 . S
C589 C588 1.386 . S
C589 C593 1.393 . S
C590 H582 0.950 . S
C590 C588 1.391 . S
C590 C591 1.400 . S
C591 C590 1.400 . S
C591 C592 1.398 . S
C591 C597 1.491 . S
C592 H583 0.950 . S
C592 C591 1.398 . S
C592 C593 1.391 . S
C593 H581 0.950 . S
C593 C589 1.393 . S
C593 C592 1.391 . S
C594 H584 0.950 . S
C594 C595 1.386 . S
C594 C596 1.391 . S
C595 C594 1.386 . S
C595 C599 1.393 . S
C596 H585 0.950 . S
C596 C594 1.391 . S
C596 C597 1.400 . S
C597 C591 1.491 . S
C597 C596 1.400 . S
C597 C598 1.398 . S
C598 H586 0.950 . S
C598 C597 1.398 . S
C598 C599 1.391 . S
C599 H587 0.950 . S
C599 C595 1.393 . S
C599 C598 1.391 . S
H600 C608 0.950 . S
H601 C613 0.950 . S
H602 C610 0.950 1_554 S
H603 C612 0.950 . S
H604 C614 0.950 . S
H605 C616 0.950 1_556 S
H606 C618 0.950 . S
H607 C619 0.950 . S
C608 H600 0.950 . S
C608 C609 1.386 . S
C608 C610 1.391 . S
C609 C608 1.386 . S
C609 C613 1.393 . S
C610 H602 0.950 1_556 S
C610 C608 1.391 . S
C610 C611 1.400 . S
C611 C610 1.400 . S
C611 C612 1.398 . S
C611 C617 1.491 1_556 S
C612 H603 0.950 . S
C612 C611 1.398 . S
C612 C613 1.391 . S
C613 H601 0.950 . S
C613 C609 1.393 . S
C613 C612 1.391 . S
C614 H604 0.950 . S
C614 C615 1.386 . S
C614 C616 1.391 . S
C615 C614 1.386 . S
C615 C619 1.393 . S
C616 H605 0.950 1_554 S
C616 C614 1.391 . S
C616 C617 1.400 . S
C617 C611 1.491 1_554 S
C617 C616 1.400 . S
C617 C618 1.398 . S
C618 H606 0.950 . S
C618 C617 1.398 . S
C618 C619 1.391 . S
C619 H607 0.950 . S
C619 C615 1.393 . S
C619 C618 1.391 . S
H620 C628 0.950 . S
H621 C633 0.950 . S
H622 C630 0.950 . S
H623 C632 0.950 . S
H624 C634 0.950 . S
H625 C636 0.950 . S
H626 C638 0.950 . S
H627 C639 0.950 . S
C628 H620 0.950 . S
C628 C629 1.386 . S
C628 C630 1.391 . S
C629 C628 1.386 . S
C629 C633 1.393 . S
C630 H622 0.950 . S
C630 C628 1.391 . S
C630 C631 1.400 . S
C631 C630 1.400 . S
C631 C632 1.398 . S
C631 C637 1.491 . S
C632 H623 0.950 . S
C632 C631 1.398 . S
C632 C633 1.391 . S
C633 H621 0.950 . S
C633 C629 1.393 . S
C633 C632 1.391 . S
C634 H624 0.950 . S
C634 C635 1.386 . S
C634 C636 1.391 . S
C635 C634 1.386 . S
C635 C639 1.393 . S
C636 H625 0.950 . S
C636 C634 1.391 . S
C636 C637 1.400 . S
C637 C631 1.491 . S
C637 C636 1.400 . S
C637 C638 1.398 . S
C638 H626 0.950 . S
C638 C637 1.398 . S
C638 C639 1.391 . S
C639 H627 0.950 . S
C639 C635 1.393 . S
C639 C638 1.391 . S
H640 C648 0.950 . S
H641 C653 0.950 . S
H642 C650 0.950 . S
H643 C652 0.950 . S
H644 C654 0.950 . S
H645 C656 0.950 . S
H646 C658 0.950 . S
H647 C659 0.950 . S
C648 H640 0.950 . S
C648 C649 1.386 . S
C648 C650 1.391 . S
C649 C648 1.386 . S
C649 C653 1.393 . S
C650 H642 0.950 . S
C650 C648 1.391 . S
C650 C651 1.400 . S
C651 C650 1.400 . S
C651 C652 1.398 . S
C651 C657 1.491 . S
C652 H643 0.950 . S
C652 C651 1.398 . S
C652 C653 1.391 . S
C653 H641 0.950 . S
C653 C649 1.393 . S
C653 C652 1.391 . S
C654 H644 0.950 . S
C654 C655 1.386 . S
C654 C656 1.391 . S
C655 C654 1.386 . S
C655 C659 1.393 . S
C656 H645 0.950 . S
C656 C654 1.391 . S
C656 C657 1.400 . S
C657 C651 1.491 . S
C657 C656 1.400 . S
C657 C658 1.398 . S
C658 H646 0.950 . S
C658 C657 1.398 . S
C658 C659 1.391 . S
C659 H647 0.950 . S
C659 C655 1.393 . S
C659 C658 1.391 . S
H660 C668 0.950 . S
H661 C673 0.950 . S
H662 C670 0.950 . S
H663 C672 0.950 1_554 S
H664 C674 0.950 . S
H665 C676 0.950 . S
H666 C678 0.950 1_556 S
H667 C679 0.950 . S
C668 H660 0.950 . S
C668 C669 1.386 . S
C668 C670 1.391 . S
C669 C668 1.386 . S
C669 C673 1.393 . S
C670 H662 0.950 . S
C670 C668 1.391 . S
C670 C671 1.400 . S
C671 C670 1.400 . S
C671 C672 1.398 . S
C671 C677 1.491 1_556 S
C672 H663 0.950 1_556 S
C672 C671 1.398 . S
C672 C673 1.391 . S
C673 H661 0.950 . S
C673 C669 1.393 . S
C673 C672 1.391 . S
C674 H664 0.950 . S
C674 C675 1.386 . S
C674 C676 1.391 . S
C675 C674 1.386 . S
C675 C679 1.393 . S
C676 H665 0.950 . S
C676 C674 1.391 . S
C676 C677 1.400 . S
C677 C671 1.491 1_554 S
C677 C676 1.400 . S
C677 C678 1.398 . S
C678 H666 0.950 1_554 S
C678 C677 1.398 . S
C678 C679 1.391 . S
C679 H667 0.950 . S
C679 C675 1.393 . S
C679 C678 1.391 . S
H680 C688 0.950 . S
H681 C693 0.950 . S
H682 C690 0.950 . S
H683 C692 0.950 . S
H684 C694 0.950 . S
H685 C696 0.950 . S
H686 C698 0.950 . S
H687 C699 0.950 . S
C688 H680 0.950 . S
C688 C689 1.386 . S
C688 C690 1.391 . S
C689 C688 1.386 . S
C689 C693 1.393 . S
C690 H682 0.950 . S
C690 C688 1.391 . S
C690 C691 1.400 . S
C691 C690 1.400 . S
C691 C692 1.398 . S
C691 C697 1.491 . S
C692 H683 0.950 . S
C692 C691 1.398 . S
C692 C693 1.391 . S
C693 H681 0.950 . S
C693 C689 1.393 . S
C693 C692 1.391 . S
C694 H684 0.950 . S
C694 C695 1.386 . S
C694 C696 1.391 . S
C695 C694 1.386 . S
C695 C699 1.393 . S
C696 H685 0.950 . S
C696 C694 1.391 . S
C696 C697 1.400 . S
C697 C691 1.491 . S
C697 C696 1.400 . S
C697 C698 1.398 . S
C698 H686 0.950 . S
C698 C697 1.398 . S
C698 C699 1.391 . S
C699 H687 0.950 . S
C699 C695 1.393 . S
C699 C698 1.391 . S
H700 C708 0.950 . S
H701 C713 0.950 . S
H702 C710 0.950 . S
H703 C712 0.950 . S
H704 C714 0.950 . S
H705 C716 0.950 . S
H706 C718 0.950 . S
H707 C719 0.950 . S
C708 H700 0.950 . S
C708 C709 1.386 . S
C708 C710 1.391 . S
C709 C708 1.386 . S
C709 C713 1.393 . S
C710 H702 0.950 . S
C710 C708 1.391 . S
C710 C711 1.400 . S
C711 C710 1.400 . S
C711 C712 1.398 . S
C711 C717 1.491 . S
C712 H703 0.950 . S
C712 C711 1.398 . S
C712 C713 1.391 . S
C713 H701 0.950 . S
C713 C709 1.393 . S
C713 C712 1.391 . S
C714 H704 0.950 . S
C714 C715 1.386 . S
C714 C716 1.391 . S
C715 C714 1.386 . S
C715 C719 1.393 . S
C716 H705 0.950 . S
C716 C714 1.391 . S
C716 C717 1.400 . S
C717 C711 1.491 . S
C717 C716 1.400 . S
C717 C718 1.398 . S
C718 H706 0.950 . S
C718 C717 1.398 . S
C718 C719 1.391 . S
C719 H707 0.950 . S
C719 C715 1.393 . S
C719 C718 1.391 . S
H720 C728 0.950 . S
H721 C733 0.950 . S
H722 C730 0.950 1_545 S
H723 C732 0.950 . S
H724 C734 0.950 . S
H725 C736 0.950 1_565 S
H726 C738 0.950 . S
H727 C739 0.950 . S
C728 H720 0.950 . S
C728 C729 1.386 . S
C728 C730 1.391 . S
C729 C728 1.386 . S
C729 C733 1.393 . S
C730 H722 0.950 1_565 S
C730 C728 1.391 . S
C730 C731 1.400 . S
C731 C730 1.400 . S
C731 C732 1.398 . S
C731 C737 1.491 1_566 S
C732 H723 0.950 . S
C732 C731 1.398 . S
C732 C733 1.391 . S
C733 H721 0.950 . S
C733 C729 1.393 . S
C733 C732 1.391 . S
C734 H724 0.950 . S
C734 C735 1.386 . S
C734 C736 1.391 . S
C735 C734 1.386 . S
C735 C739 1.393 . S
C736 H725 0.950 1_545 S
C736 C734 1.391 . S
C736 C737 1.400 . S
C737 C731 1.491 1_544 S
C737 C736 1.400 . S
C737 C738 1.398 . S
C738 H726 0.950 . S
C738 C737 1.398 . S
C738 C739 1.391 . S
C739 H727 0.950 . S
C739 C735 1.393 . S
C739 C738 1.391 . S
H740 C748 0.950 . S
H741 C753 0.950 . S
H742 C750 0.950 . S
H743 C752 0.950 . S
H744 C754 0.950 . S
H745 C756 0.950 . S
H746 C758 0.950 . S
H747 C759 0.950 . S
C748 H740 0.950 . S
C748 C749 1.386 . S
C748 C750 1.391 . S
C749 C748 1.386 . S
C749 C753 1.393 . S
C750 H742 0.950 . S
C750 C748 1.391 . S
C750 C751 1.400 . S
C751 C750 1.400 . S
C751 C752 1.398 . S
C751 C757 1.491 . S
C752 H743 0.950 . S
C752 C751 1.398 . S
C752 C753 1.391 . S
C753 H741 0.950 . S
C753 C749 1.393 . S
C753 C752 1.391 . S
C754 H744 0.950 . S
C754 C755 1.386 . S
C754 C756 1.391 . S
C755 C754 1.386 . S
C755 C759 1.393 . S
C756 H745 0.950 . S
C756 C754 1.391 . S
C756 C757 1.400 . S
C757 C751 1.491 . S
C757 C756 1.400 . S
C757 C758 1.398 . S
C758 H746 0.950 . S
C758 C757 1.398 . S
C758 C759 1.391 . S
C759 H747 0.950 . S
C759 C755 1.393 . S
C759 C758 1.391 . S
H760 C768 0.950 . S
H761 C773 0.950 . S
H762 C770 0.950 . S
H763 C772 0.940 1_655 S
H764 C774 0.950 . S
H765 C776 0.950 . S
H766 C778 0.941 1_455 S
H767 C779 0.950 . S
C768 H760 0.950 . S
C768 C769 1.386 . S
C768 C770 1.391 . S
C769 C768 1.386 . S
C769 C773 1.393 . S
C770 H762 0.950 . S
C770 C768 1.391 . S
C770 C771 1.400 . S
C771 C770 1.400 . S
C771 C772 1.394 . S
C771 C777 1.491 1_455 S
C772 H763 0.940 1_455 S
C772 C771 1.394 . S
C772 C773 1.405 . S
C773 H761 0.950 . S
C773 C769 1.393 . S
C773 C772 1.405 . S
C774 H764 0.950 . S
C774 C775 1.386 . S
C774 C776 1.391 . S
C775 C774 1.386 . S
C775 C779 1.393 . S
C776 H765 0.950 . S
C776 C774 1.391 . S
C776 C777 1.400 . S
C777 C771 1.491 1_655 S
C777 C776 1.400 . S
C777 C778 1.394 . S
C778 H766 0.941 1_655 S
C778 C777 1.394 . S
C778 C779 1.405 . S
C779 H767 0.950 . S
C779 C775 1.393 . S
C779 C778 1.405 . S
H780 C788 0.950 . S
H781 C793 0.950 . S
H782 C790 0.950 . S
H783 C792 0.950 . S
H784 C794 0.950 . S
H785 C796 0.950 . S
H786 C798 0.950 . S
H787 C799 0.950 . S
C788 H780 0.950 . S
C788 C789 1.386 . S
C788 C790 1.391 . S
C789 C788 1.386 . S
C789 C793 1.393 . S
C790 H782 0.950 . S
C790 C788 1.391 . S
C790 C791 1.400 . S
C791 C790 1.400 . S
C791 C792 1.398 . S
C791 C797 1.491 1_564 S
C792 H783 0.950 . S
C792 C791 1.398 . S
C792 C793 1.391 . S
C793 H781 0.950 . S
C793 C789 1.393 . S
C793 C792 1.391 . S
C794 H784 0.950 . S
C794 C795 1.386 . S
C794 C796 1.391 . S
C795 C794 1.386 . S
C795 C799 1.393 . S
C796 H785 0.950 . S
C796 C794 1.391 . S
C796 C797 1.400 . S
C797 C791 1.491 1_546 S
C797 C796 1.400 . S
C797 C798 1.398 . S
C798 H786 0.950 . S
C798 C797 1.398 . S
C798 C799 1.391 . S
C799 H787 0.950 . S
C799 C795 1.393 . S
C799 C798 1.391 . S
H800 C808 0.950 . S
H801 C813 0.950 . S
H802 C810 0.950 . S
H803 C812 0.950 . S
H804 C814 0.950 . S
H805 C816 0.950 . S
H806 C818 0.950 . S
H807 C819 0.950 . S
C808 H800 0.950 . S
C808 C809 1.386 . S
C808 C810 1.391 . S
C809 C808 1.386 . S
C809 C813 1.393 . S
C810 H802 0.950 . S
C810 C808 1.391 . S
C810 C811 1.400 . S
C811 C810 1.400 . S
C811 C812 1.398 . S
C811 C817 1.491 . S
C812 H803 0.950 . S
C812 C811 1.398 . S
C812 C813 1.391 . S
C813 H801 0.950 . S
C813 C809 1.393 . S
C813 C812 1.391 . S
C814 H804 0.950 . S
C814 C815 1.386 . S
C814 C816 1.391 . S
C815 C814 1.386 . S
C815 C819 1.393 . S
C816 H805 0.950 . S
C816 C814 1.391 . S
C816 C817 1.400 . S
C817 C811 1.491 . S
C817 C816 1.400 . S
C817 C818 1.398 . S
C818 H806 0.950 . S
C818 C817 1.398 . S
C818 C819 1.391 . S
C819 H807 0.950 . S
C819 C815 1.393 . S
C819 C818 1.391 . S
H820 C828 0.950 . S
H821 C833 0.950 1_655 S
H822 C830 0.950 . S
H823 C832 0.950 . S
H824 C834 0.950 . S
H825 C836 0.950 . S
H826 C838 0.950 . S
H827 C839 0.950 1_455 S
C828 H820 0.950 . S
C828 C829 1.386 . S
C828 C830 1.391 . S
C829 C828 1.386 . S
C829 C833 1.393 . S
C830 H822 0.950 . S
C830 C828 1.391 . S
C830 C831 1.400 . S
C831 C830 1.400 . S
C831 C832 1.398 1_455 S
C831 C837 1.491 1_455 S
C832 H823 0.950 . S
C832 C831 1.398 1_655 S
C832 C833 1.391 1_655 S
C833 H821 0.950 1_455 S
C833 C829 1.393 . S
C833 C832 1.391 1_455 S
C834 H824 0.950 . S
C834 C835 1.386 . S
C834 C836 1.391 . S
C835 C834 1.386 . S
C835 C839 1.393 . S
C836 H825 0.950 . S
C836 C834 1.391 . S
C836 C837 1.400 . S
C837 C831 1.491 1_655 S
C837 C836 1.400 . S
C837 C838 1.398 1_655 S
C838 H826 0.950 . S
C838 C837 1.398 1_455 S
C838 C839 1.391 1_455 S
C839 H827 0.950 1_655 S
C839 C835 1.393 . S
C839 C838 1.391 1_655 S
H840 C848 0.950 . S
H841 C853 0.950 . S
H842 C850 0.950 1_565 S
H843 C852 0.950 . S
H844 C854 0.950 . S
H845 C856 0.950 1_545 S
H846 C858 0.950 . S
H847 C859 0.950 . S
C848 H840 0.950 . S
C848 C849 1.386 . S
C848 C850 1.391 . S
C849 C848 1.386 . S
C849 C853 1.393 . S
C850 H842 0.950 1_545 S
C850 C848 1.391 . S
C850 C851 1.400 . S
C851 C850 1.400 . S
C851 C852 1.398 . S
C851 C857 1.491 1_545 S
C852 H843 0.950 . S
C852 C851 1.398 . S
C852 C853 1.391 . S
C853 H841 0.950 . S
C853 C849 1.393 . S
C853 C852 1.391 . S
C854 H844 0.950 . S
C854 C855 1.386 . S
C854 C856 1.391 . S
C855 C854 1.386 . S
C855 C859 1.393 . S
C856 H845 0.950 1_565 S
C856 C854 1.391 . S
C856 C857 1.400 . S
C857 C851 1.491 1_565 S
C857 C856 1.400 . S
C857 C858 1.398 . S
C858 H846 0.950 . S
C858 C857 1.398 . S
C858 C859 1.391 . S
C859 H847 0.950 . S
C859 C855 1.393 . S
C859 C858 1.391 . S
H860 C868 0.950 . S
H861 C873 0.950 . S
H862 C870 0.950 . S
H863 C872 0.950 . S
H864 C874 0.950 . S
H865 C876 0.950 . S
H866 C878 0.950 . S
H867 C879 0.950 . S
C868 H860 0.950 . S
C868 C869 1.386 . S
C868 C870 1.391 . S
C869 C868 1.386 . S
C869 C873 1.393 . S
C870 H862 0.950 . S
C870 C868 1.391 . S
C870 C871 1.400 . S
C871 C870 1.400 . S
C871 C872 1.398 . S
C871 C877 1.491 . S
C872 H863 0.950 . S
C872 C871 1.398 . S
C872 C873 1.391 . S
C873 H861 0.950 . S
C873 C869 1.393 . S
C873 C872 1.391 . S
C874 H864 0.950 . S
C874 C875 1.386 . S
C874 C876 1.391 . S
C875 C874 1.386 . S
C875 C879 1.393 . S
C876 H865 0.950 . S
C876 C874 1.391 . S
C876 C877 1.400 . S
C877 C871 1.491 . S
C877 C876 1.400 . S
C877 C878 1.398 . S
C878 H866 0.950 . S
C878 C877 1.398 . S
C878 C879 1.391 . S
C879 H867 0.950 . S
C879 C875 1.393 . S
C879 C878 1.391 . S
H880 C888 0.950 . S
H881 C893 0.950 . S
H882 C890 0.950 . S
H883 C892 0.950 1_455 S
H884 C894 0.950 . S
H885 C896 0.950 . S
H886 C898 0.950 1_655 S
H887 C899 0.950 . S
C888 H880 0.950 . S
C888 C889 1.386 . S
C888 C890 1.391 . S
C889 C888 1.386 . S
C889 C893 1.393 . S
C890 H882 0.950 . S
C890 C888 1.391 . S
C890 C891 1.400 . S
C891 C890 1.400 . S
C891 C892 1.398 . S
C891 C897 1.491 1_655 S
C892 H883 0.950 1_655 S
C892 C891 1.398 . S
C892 C893 1.391 . S
C893 H881 0.950 . S
C893 C889 1.393 . S
C893 C892 1.391 . S
C894 H884 0.950 . S
C894 C895 1.386 . S
C894 C896 1.391 . S
C895 C894 1.386 . S
C895 C899 1.393 . S
C896 H885 0.950 . S
C896 C894 1.391 . S
C896 C897 1.400 . S
C897 C891 1.491 1_455 S
C897 C896 1.400 . S
C897 C898 1.398 . S
C898 H886 0.950 1_455 S
C898 C897 1.398 . S
C898 C899 1.391 . S
C899 H887 0.950 . S
C899 C895 1.393 . S
C899 C898 1.391 . S
H900 C908 0.950 . S
H901 C913 0.950 . S
H902 C910 0.950 1_655 S
H903 C912 0.950 . S
H904 C914 0.950 . S
H905 C916 0.950 1_455 S
H906 C918 0.950 . S
H907 C919 0.950 . S
C908 H900 0.950 . S
C908 C909 1.386 . S
C908 C910 1.391 . S
C909 C908 1.386 . S
C909 C913 1.393 . S
C910 H902 0.950 1_455 S
C910 C908 1.391 . S
C910 C911 1.400 . S
C911 C910 1.400 . S
C911 C912 1.398 . S
C911 C917 1.491 1_455 S
C912 H903 0.950 . S
C912 C911 1.398 . S
C912 C913 1.391 . S
C913 H901 0.950 . S
C913 C909 1.393 . S
C913 C912 1.391 . S
C914 H904 0.950 . S
C914 C915 1.386 . S
C914 C916 1.391 . S
C915 C914 1.386 . S
C915 C919 1.393 . S
C916 H905 0.950 1_655 S
C916 C914 1.391 . S
C916 C917 1.400 . S
C917 C911 1.491 1_655 S
C917 C916 1.400 . S
C917 C918 1.398 . S
C918 H906 0.950 . S
C918 C917 1.398 . S
C918 C919 1.391 . S
C919 H907 0.950 . S
C919 C915 1.393 . S
C919 C918 1.391 . S
H920 C928 0.950 . S
H921 C933 0.950 . S
H922 C930 0.950 . S
H923 C932 0.950 1_545 S
H924 C934 0.950 . S
H925 C936 0.950 . S
H926 C938 0.950 1_565 S
H927 C939 0.950 . S
C928 H920 0.950 . S
C928 C929 1.386 . S
C928 C930 1.391 . S
C929 C928 1.386 . S
C929 C933 1.393 . S
C930 H922 0.950 . S
C930 C928 1.391 . S
C930 C931 1.400 . S
C931 C930 1.400 . S
C931 C932 1.398 . S
C931 C937 1.491 1_565 S
C932 H923 0.950 1_565 S
C932 C931 1.398 . S
C932 C933 1.391 . S
C933 H921 0.950 . S
C933 C929 1.393 . S
C933 C932 1.391 . S
C934 H924 0.950 . S
C934 C935 1.386 . S
C934 C936 1.391 . S
C935 C934 1.386 . S
C935 C939 1.393 . S
C936 H925 0.950 . S
C936 C934 1.391 . S
C936 C937 1.400 . S
C937 C931 1.491 1_545 S
C937 C936 1.400 . S
C937 C938 1.398 . S
C938 H926 0.950 1_545 S
C938 C937 1.398 . S
C938 C939 1.391 . S
C939 H927 0.950 . S
C939 C935 1.393 . S
C939 C938 1.391 . S
H940 C948 0.950 . S
H941 C953 0.950 . S
H942 C950 0.950 . S
H943 C952 0.950 . S
H944 C954 0.950 . S
H945 C956 0.950 . S
H946 C958 0.950 . S
H947 C959 0.950 . S
C948 H940 0.950 . S
C948 C949 1.386 . S
C948 C950 1.391 . S
C949 C948 1.386 . S
C949 C953 1.393 . S
C950 H942 0.950 . S
C950 C948 1.391 . S
C950 C951 1.400 . S
C951 C950 1.400 . S
C951 C952 1.398 . S
C951 C957 1.491 . S
C952 H943 0.950 . S
C952 C951 1.398 . S
C952 C953 1.391 . S
C953 H941 0.950 . S
C953 C949 1.393 . S
C953 C952 1.391 . S
C954 H944 0.950 . S
C954 C955 1.386 . S
C954 C956 1.391 . S
C955 C954 1.386 . S
C955 C959 1.393 . S
C956 H945 0.950 . S
C956 C954 1.391 . S
C956 C957 1.400 . S
C957 C951 1.491 . S
C957 C956 1.400 . S
C957 C958 1.398 . S
C958 H946 0.950 . S
C958 C957 1.398 . S
C958 C959 1.391 . S
C959 H947 0.950 . S
C959 C955 1.393 . S
C959 C958 1.391 . S
H960 C968 0.950 . S
H961 C973 0.950 . S
H962 C970 0.950 . S
H963 C972 0.950 . S
H964 C974 0.950 . S
H965 C976 0.950 . S
H966 C978 0.950 . S
H967 C979 0.950 . S
C968 H960 0.950 . S
C968 C969 1.386 . S
C968 C970 1.391 . S
C969 C968 1.386 . S
C969 C973 1.393 . S
C970 H962 0.950 . S
C970 C968 1.391 . S
C970 C971 1.400 . S
C971 C970 1.400 . S
C971 C972 1.398 . S
C971 C977 1.491 1_565 S
C972 H963 0.950 . S
C972 C971 1.398 . S
C972 C973 1.391 . S
C973 H961 0.950 . S
C973 C969 1.393 . S
C973 C972 1.391 . S
C974 H964 0.950 . S
C974 C975 1.386 . S
C974 C976 1.391 . S
C975 C974 1.386 . S
C975 C979 1.393 . S
C976 H965 0.950 . S
C976 C974 1.391 . S
C976 C977 1.400 . S
C977 C971 1.491 1_545 S
C977 C976 1.400 . S
C977 C978 1.398 . S
C978 H966 0.950 . S
C978 C977 1.398 . S
C978 C979 1.391 . S
C979 H967 0.950 . S
C979 C975 1.393 . S
C979 C978 1.391 . S
H980 C988 0.950 . S
H981 C993 0.950 . S
H982 C990 0.950 . S
H983 C992 0.950 . S
H984 C994 0.950 . S
H985 C996 0.950 . S
H986 C998 0.950 . S
H987 C999 0.950 . S
C988 H980 0.950 . S
C988 C989 1.386 . S
C988 C990 1.391 . S
C989 C988 1.386 . S
C989 C993 1.393 . S
C990 H982 0.950 . S
C990 C988 1.391 . S
C990 C991 1.400 . S
C991 C990 1.400 . S
C991 C992 1.398 . S
C991 C997 1.491 . S
C992 H983 0.950 . S
C992 C991 1.398 . S
C992 C993 1.391 . S
C993 H981 0.950 . S
C993 C989 1.393 . S
C993 C992 1.391 . S
C994 H984 0.950 . S
C994 C995 1.386 . S
C994 C996 1.391 . S
C995 C994 1.386 . S
C995 C999 1.393 . S
C996 H985 0.950 . S
C996 C994 1.391 . S
C996 C997 1.400 . S
C997 C991 1.491 . S
C997 C996 1.400 . S
C997 C998 1.398 . S
C998 H986 0.950 . S
C998 C997 1.398 . S
C998 C999 1.391 . S
C999 H987 0.950 . S
C999 C995 1.393 . S
C999 C998 1.391 . S
H1000 C1008 0.950 . S
H1001 C1013 0.950 . S
H1002 C1010 0.950 . S
H1003 C1012 0.950 . S
H1004 C1014 0.950 . S
H1005 C1016 0.950 . S
H1006 C1018 0.950 . S
H1007 C1019 0.950 . S
C1008 H1000 0.950 . S
C1008 C1009 1.386 . S
C1008 C1010 1.391 . S
C1009 C1008 1.386 . S
C1009 C1013 1.393 . S
C1010 H1002 0.950 . S
C1010 C1008 1.391 . S
C1010 C1011 1.400 . S
C1011 C1010 1.400 . S
C1011 C1012 1.398 . S
C1011 C1017 1.491 1_655 S
C1012 H1003 0.950 . S
C1012 C1011 1.398 . S
C1012 C1013 1.391 . S
C1013 H1001 0.950 . S
C1013 C1009 1.393 . S
C1013 C1012 1.391 . S
C1014 H1004 0.950 . S
C1014 C1015 1.386 . S
C1014 C1016 1.391 . S
C1015 C1014 1.386 . S
C1015 C1019 1.393 . S
C1016 H1005 0.950 . S
C1016 C1014 1.391 . S
C1016 C1017 1.400 . S
C1017 C1011 1.491 1_455 S
C1017 C1016 1.400 . S
C1017 C1018 1.398 . S
C1018 H1006 0.950 . S
C1018 C1017 1.398 . S
C1018 C1019 1.391 . S
C1019 H1007 0.950 . S
C1019 C1015 1.393 . S
C1019 C1018 1.391 . S
H1020 C1028 0.950 . S
H1021 C1033 0.950 . S
H1022 C1030 0.950 1_565 S
H1023 C1032 0.950 . S
H1024 C1034 0.950 . S
H1025 C1036 0.950 1_545 S
H1026 C1038 0.950 . S
H1027 C1039 0.950 . S
C1028 H1020 0.950 . S
C1028 C1029 1.386 . S
C1028 C1030 1.391 . S
C1029 C1028 1.386 . S
C1029 C1033 1.393 . S
C1030 H1022 0.950 1_545 S
C1030 C1028 1.391 . S
C1030 C1031 1.400 . S
C1031 C1030 1.400 . S
C1031 C1032 1.398 . S
C1031 C1037 1.491 1_545 S
C1032 H1023 0.950 . S
C1032 C1031 1.398 . S
C1032 C1033 1.391 . S
C1033 H1021 0.950 . S
C1033 C1029 1.393 . S
C1033 C1032 1.391 . S
C1034 H1024 0.950 . S
C1034 C1035 1.386 . S
C1034 C1036 1.391 . S
C1035 C1034 1.386 . S
C1035 C1039 1.393 . S
C1036 H1025 0.950 1_565 S
C1036 C1034 1.391 . S
C1036 C1037 1.400 . S
C1037 C1031 1.491 1_565 S
C1037 C1036 1.400 . S
C1037 C1038 1.398 . S
C1038 H1026 0.950 . S
C1038 C1037 1.398 . S
C1038 C1039 1.391 . S
C1039 H1027 0.950 . S
C1039 C1035 1.393 . S
C1039 C1038 1.391 . S
H1040 C1048 0.950 . S
H1041 C1053 0.950 . S
H1042 C1050 0.950 . S
H1043 C1052 0.950 . S
H1044 C1054 0.950 . S
H1045 C1056 0.950 . S
H1046 C1058 0.950 . S
H1047 C1059 0.950 . S
C1048 H1040 0.950 . S
C1048 C1049 1.386 . S
C1048 C1050 1.391 . S
C1049 C1048 1.386 . S
C1049 C1053 1.393 . S
C1050 H1042 0.950 . S
C1050 C1048 1.391 . S
C1050 C1051 1.400 . S
C1051 C1050 1.400 . S
C1051 C1052 1.398 . S
C1051 C1057 1.491 . S
C1052 H1043 0.950 . S
C1052 C1051 1.398 . S
C1052 C1053 1.391 . S
C1053 H1041 0.950 . S
C1053 C1049 1.393 . S
C1053 C1052 1.391 . S
C1054 H1044 0.950 . S
C1054 C1055 1.386 . S
C1054 C1056 1.391 . S
C1055 C1054 1.386 . S
C1055 C1059 1.393 . S
C1056 H1045 0.950 . S
C1056 C1054 1.391 . S
C1056 C1057 1.400 . S
C1057 C1051 1.491 . S
C1057 C1056 1.400 . S
C1057 C1058 1.398 . S
C1058 H1046 0.950 . S
C1058 C1057 1.398 . S
C1058 C1059 1.391 . S
C1059 H1047 0.950 . S
C1059 C1055 1.393 . S
C1059 C1058 1.391 . S
H1060 C1068 0.950 . S
H1061 C1073 0.950 . S
H1062 C1070 0.950 . S
H1063 C1072 0.950 . S
H1064 C1074 0.950 . S
H1065 C1076 0.950 . S
H1066 C1078 0.950 . S
H1067 C1079 0.950 . S
C1068 H1060 0.950 . S
C1068 C1069 1.386 . S
C1068 C1070 1.391 . S
C1069 C1068 1.386 . S
C1069 C1073 1.393 . S
C1070 H1062 0.950 . S
C1070 C1068 1.391 . S
C1070 C1071 1.400 . S
C1071 C1070 1.400 . S
C1071 C1072 1.398 . S
C1071 C1077 1.491 1_455 S
C1072 H1063 0.950 . S
C1072 C1071 1.398 . S
C1072 C1073 1.391 . S
C1073 H1061 0.950 . S
C1073 C1069 1.393 . S
C1073 C1072 1.391 . S
C1074 H1064 0.950 . S
C1074 C1075 1.386 . S
C1074 C1076 1.391 . S
C1075 C1074 1.386 . S
C1075 C1079 1.393 . S
C1076 H1065 0.950 . S
C1076 C1074 1.391 . S
C1076 C1077 1.400 . S
C1077 C1071 1.491 1_655 S
C1077 C1076 1.400 . S
C1077 C1078 1.398 . S
C1078 H1066 0.950 . S
C1078 C1077 1.398 . S
C1078 C1079 1.391 . S
C1079 H1067 0.950 . S
C1079 C1075 1.393 . S
C1079 C1078 1.391 . S
H1080 C1088 0.950 . S
H1081 C1093 0.950 . S
H1082 C1090 0.950 . S
H1083 C1092 0.950 . S
H1084 C1094 0.950 . S
H1085 C1096 0.950 . S
H1086 C1098 0.950 . S
H1087 C1099 0.950 . S
C1088 H1080 0.950 . S
C1088 C1089 1.386 . S
C1088 C1090 1.391 . S
C1089 C1088 1.386 . S
C1089 C1093 1.393 . S
C1090 H1082 0.950 . S
C1090 C1088 1.391 . S
C1090 C1091 1.400 . S
C1091 C1090 1.400 . S
C1091 C1092 1.398 . S
C1091 C1097 1.491 . S
C1092 H1083 0.950 . S
C1092 C1091 1.398 . S
C1092 C1093 1.391 . S
C1093 H1081 0.950 . S
C1093 C1089 1.393 . S
C1093 C1092 1.391 . S
C1094 H1084 0.950 . S
C1094 C1095 1.386 . S
C1094 C1096 1.391 . S
C1095 C1094 1.386 . S
C1095 C1099 1.393 . S
C1096 H1085 0.950 . S
C1096 C1094 1.391 . S
C1096 C1097 1.400 . S
C1097 C1091 1.491 . S
C1097 C1096 1.400 . S
C1097 C1098 1.398 . S
C1098 H1086 0.950 . S
C1098 C1097 1.398 . S
C1098 C1099 1.391 . S
C1099 H1087 0.950 . S
C1099 C1095 1.393 . S
C1099 C1098 1.391 . S
H1100 C1108 0.950 . S
H1101 C1113 0.950 . S
H1102 C1110 0.950 . S
H1103 C1112 0.950 . S
H1104 C1114 0.950 . S
H1105 C1116 0.950 . S
H1106 C1118 0.950 . S
H1107 C1119 0.950 . S
C1108 H1100 0.950 . S
C1108 C1109 1.386 . S
C1108 C1110 1.391 . S
C1109 C1108 1.386 . S
C1109 C1113 1.393 . S
C1110 H1102 0.950 . S
C1110 C1108 1.391 . S
C1110 C1111 1.400 . S
C1111 C1110 1.400 . S
C1111 C1112 1.398 . S
C1111 C1117 1.491 . S
C1112 H1103 0.950 . S
C1112 C1111 1.398 . S
C1112 C1113 1.391 . S
C1113 H1101 0.950 . S
C1113 C1109 1.393 . S
C1113 C1112 1.391 . S
C1114 H1104 0.950 . S
C1114 C1115 1.386 . S
C1114 C1116 1.391 . S
C1115 C1114 1.386 . S
C1115 C1119 1.393 . S
C1116 H1105 0.950 . S
C1116 C1114 1.391 . S
C1116 C1117 1.400 . S
C1117 C1111 1.491 . S
C1117 C1116 1.400 . S
C1117 C1118 1.398 . S
C1118 H1106 0.950 . S
C1118 C1117 1.398 . S
C1118 C1119 1.391 . S
C1119 H1107 0.950 . S
C1119 C1115 1.393 . S
C1119 C1118 1.391 . S
H1120 C1128 0.950 . S
H1121 C1133 0.950 . S
H1122 C1130 0.950 . S
H1123 C1132 0.950 . S
H1124 C1134 0.950 . S
H1125 C1136 0.950 . S
H1126 C1138 0.950 . S
H1127 C1139 0.950 . S
C1128 H1120 0.950 . S
C1128 C1129 1.386 . S
C1128 C1130 1.391 . S
C1129 C1128 1.386 . S
C1129 C1133 1.393 . S
C1130 H1122 0.950 . S
C1130 C1128 1.391 . S
C1130 C1131 1.400 . S
C1131 C1130 1.400 . S
C1131 C1132 1.398 . S
C1131 C1137 1.491 . S
C1132 H1123 0.950 . S
C1132 C1131 1.398 . S
C1132 C1133 1.391 . S
C1133 H1121 0.950 . S
C1133 C1129 1.393 . S
C1133 C1132 1.391 . S
C1134 H1124 0.950 . S
C1134 C1135 1.386 . S
C1134 C1136 1.391 . S
C1135 C1134 1.386 . S
C1135 C1139 1.393 . S
C1136 H1125 0.950 . S
C1136 C1134 1.391 . S
C1136 C1137 1.400 . S
C1137 C1131 1.491 . S
C1137 C1136 1.400 . S
C1137 C1138 1.398 . S
C1138 H1126 0.950 . S
C1138 C1137 1.398 . S
C1138 C1139 1.391 . S
C1139 H1127 0.950 . S
C1139 C1135 1.393 . S
C1139 C1138 1.391 . S
H1140 C1148 0.950 . S
H1141 C1153 0.950 . S
H1142 C1150 0.950 . S
H1143 C1152 0.950 . S
H1144 C1154 0.950 . S
H1145 C1156 0.950 . S
H1146 C1158 0.950 . S
H1147 C1159 0.950 . S
C1148 H1140 0.950 . S
C1148 C1149 1.386 . S
C1148 C1150 1.391 . S
C1149 C1148 1.386 . S
C1149 C1153 1.393 . S
C1150 H1142 0.950 . S
C1150 C1148 1.391 . S
C1150 C1151 1.400 . S
C1151 C1150 1.400 . S
C1151 C1152 1.398 . S
C1151 C1157 1.491 . S
C1152 H1143 0.950 . S
C1152 C1151 1.398 . S
C1152 C1153 1.391 . S
C1153 H1141 0.950 . S
C1153 C1149 1.393 . S
C1153 C1152 1.391 . S
C1154 H1144 0.950 . S
C1154 C1155 1.386 . S
C1154 C1156 1.391 . S
C1155 C1154 1.386 . S
C1155 C1159 1.393 . S
C1156 H1145 0.950 . S
C1156 C1154 1.391 . S
C1156 C1157 1.400 . S
C1157 C1151 1.491 . S
C1157 C1156 1.400 . S
C1157 C1158 1.398 . S
C1158 H1146 0.950 . S
C1158 C1157 1.398 . S
C1158 C1159 1.391 . S
C1159 H1147 0.950 . S
C1159 C1155 1.393 . S
C1159 C1158 1.391 . S
H1160 C1168 0.950 . S
H1161 C1173 0.950 . S
H1162 C1170 0.950 . S
H1163 C1172 0.950 . S
H1164 C1174 0.950 . S
H1165 C1176 0.950 . S
H1166 C1178 0.950 . S
H1167 C1179 0.950 . S
C1168 H1160 0.950 . S
C1168 C1169 1.386 . S
C1168 C1170 1.391 . S
C1169 C1168 1.386 . S
C1169 C1173 1.393 . S
C1170 H1162 0.950 . S
C1170 C1168 1.391 . S
C1170 C1171 1.400 . S
C1171 C1170 1.400 . S
C1171 C1172 1.398 . S
C1171 C1177 1.491 . S
C1172 H1163 0.950 . S
C1172 C1171 1.398 . S
C1172 C1173 1.391 . S
C1173 H1161 0.950 . S
C1173 C1169 1.393 . S
C1173 C1172 1.391 . S
C1174 H1164 0.950 . S
C1174 C1175 1.386 . S
C1174 C1176 1.391 . S
C1175 C1174 1.386 . S
C1175 C1179 1.393 . S
C1176 H1165 0.950 . S
C1176 C1174 1.391 . S
C1176 C1177 1.400 . S
C1177 C1171 1.491 . S
C1177 C1176 1.400 . S
C1177 C1178 1.398 . S
C1178 H1166 0.950 . S
C1178 C1177 1.398 . S
C1178 C1179 1.391 . S
C1179 H1167 0.950 . S
C1179 C1175 1.393 . S
C1179 C1178 1.391 . S
H1180 C1188 0.950 . S
H1181 C1193 0.950 . S
H1182 C1190 0.950 . S
H1183 C1192 0.950 . S
H1184 C1194 0.950 . S
H1185 C1196 0.950 . S
H1186 C1198 0.950 . S
H1187 C1199 0.950 . S
C1188 H1180 0.950 . S
C1188 C1189 1.386 . S
C1188 C1190 1.391 . S
C1189 C1188 1.386 . S
C1189 C1193 1.393 . S
C1190 H1182 0.950 . S
C1190 C1188 1.391 . S
C1190 C1191 1.400 . S
C1191 C1190 1.400 . S
C1191 C1192 1.398 . S
C1191 C1197 1.491 . S
C1192 H1183 0.950 . S
C1192 C1191 1.398 . S
C1192 C1193 1.391 . S
C1193 H1181 0.950 . S
C1193 C1189 1.393 . S
C1193 C1192 1.391 . S
C1194 H1184 0.950 . S
C1194 C1195 1.386 . S
C1194 C1196 1.391 . S
C1195 C1194 1.386 . S
C1195 C1199 1.393 . S
C1196 H1185 0.950 . S
C1196 C1194 1.391 . S
C1196 C1197 1.400 . S
C1197 C1191 1.491 . S
C1197 C1196 1.400 . S
C1197 C1198 1.398 . S
C1198 H1186 0.950 . S
C1198 C1197 1.398 . S
C1198 C1199 1.391 . S
C1199 H1187 0.950 . S
C1199 C1195 1.393 . S
C1199 C1198 1.391 . S
C489 C2 1.098 . S
C495 C322 1.110 . S
C509 C42 1.098 . S
C515 C362 1.110 . S
C529 C82 1.110 . S
C535 C402 1.097 . S
C549 C442 1.109 . S
C555 C122 1.096 . S
C569 C162 1.083 . S
C575 C242 1.094 . S
C589 C282 1.107 . S
C595 C202 1.111 . S
C609 C426 1.606 . S
C615 C26 1.600 . S
C629 C466 1.619 . S
C635 C66 1.608 . S
C649 C106 1.612 . S
C655 C266 1.622 . S
C669 C306 1.601 . S
C675 C146 1.609 . S
C689 C346 1.607 . S
C695 C186 1.618 . S
C709 C226 1.609 . S
C715 C386 1.601 . S
C729 C283 4.372 . S
C735 C3 4.370 . S
C749 C323 4.374 . S
C755 C43 4.370 . S
C769 C363 4.370 . S
C775 C83 4.372 . S
C789 C123 4.372 . S
C795 C403 4.371 . S
C809 C163 4.372 . S
C815 C443 4.375 . S
C829 C203 4.370 . S
C835 C243 4.375 . S
C849 C15 0.411 . S
C855 C135 0.447 . S
C869 C55 0.463 . S
C875 C175 0.499 . S
C889 C95 0.500 . S
C895 C215 0.475 . S
C909 C375 0.422 . S
C915 C255 0.473 . S
C929 C295 0.497 . S
C935 C415 0.457 . S
C949 C455 0.451 . S
C955 C335 0.411 . S
C969 C289 0.660 . S
C975 C9 0.659 . S
C989 C329 0.660 . S
C995 C49 0.672 . S
C1009 C89 0.725 . S
C1015 C369 0.727 . S
C1029 C409 0.697 . S
C1035 C129 0.715 . S
C1049 C449 0.727 . S
C1055 C169 0.724 . S
C1069 C209 0.721 . S
C1075 C249 0.727 . S
C1089 C22 4.606 . S
C1095 C422 4.610 . S
C1109 C62 4.610 . S
C1115 C462 4.605 1_556 S
C1129 C102 4.607 1_554 S
C1135 C262 4.606 . S
C1149 C142 4.610 . S
C1155 C302 4.606 . S
C1169 C182 4.604 . S
C1175 C342 4.610 1_556 S
C1189 C382 4.607 . S
C1195 C222 4.610 1_554 S
