# Generated by pormake.
# Topology eta-c, (3)-cn, num edge types: 1
# Building blocks:
#     Node 0, Type 0, BuildingBlock: WUSLED_clean_sbu_0, # of connection points: 3
#     Node 1, Type 0, BuildingBlock: WUSLED_clean_sbu_0, # of connection points: 3
#     Node 2, Type 0, BuildingBlock: WUSLED_clean_sbu_0, # of connection points: 3
#     Node 3, Type 0, BuildingBlock: WUSLED_clean_sbu_0, # of connection points: 3
#     Node 4, Type 0, BuildingBlock: WUSLED_clean_sbu_0, # of connection points: 3
#     Node 5, Type 0, BuildingBlock: WUSLED_clean_sbu_0, # of connection points: 3
#     Edge 6, Type (0, 0), BuildingBlock: MIFKUJ_clean_linker_0, # of connection points: 2
#     Edge 7, Type (0, 0), BuildingBlock: MIFKUJ_clean_linker_0, # of connection points: 2
#     Edge 8, Type (0, 0), BuildingBlock: MIFKUJ_clean_linker_0, # of connection points: 2
#     Edge 9, Type (0, 0), BuildingBlock: MIFKUJ_clean_linker_0, # of connection points: 2
#     Edge 10, Type (0, 0), BuildingBlock: MIFKUJ_clean_linker_0, # of connection points: 2
#     Edge 11, Type (0, 0), BuildingBlock: MIFKUJ_clean_linker_0, # of connection points: 2
#     Edge 12, Type (0, 0), BuildingBlock: MIFKUJ_clean_linker_0, # of connection points: 2
#     Edge 13, Type (0, 0), BuildingBlock: MIFKUJ_clean_linker_0, # of connection points: 2
#     Edge 14, Type (0, 0), BuildingBlock: MIFKUJ_clean_linker_0, # of connection points: 2
# Relax obj value: 0.000
# Max RMSD: 0.005
# Mean RMSD: 0.004
data_MOF--net-eta-c--node1-WUSLED_clean_sbu_0--edge1-MIFKUJ_clean_linker_0
_symmetry_space_group_name_H-M    P1
_symmetry_Int_Tables_number       1
_symmetry_cell_setting            triclinic
loop_
_symmetry_equiv_pos_as_xyz
'x, y, z'
_cell_length_a     80.344235
_cell_length_b     80.686023
_cell_length_c     32.912586
_cell_angle_alpha  90.677061
_cell_angle_beta   89.977087
_cell_angle_gamma 118.92349
loop_
_atom_site_label
_atom_site_type_symbol
_atom_site_fract_x
_atom_site_fract_y
_atom_site_fract_z
_atom_type_partial_charge
C0 C 0.39443 0.80652 0.13584 0.0
C1 C 0.39007 0.78743 0.13387 0.0
C2 C 0.37199 0.78103 0.19697 0.0
C3 C 0.379 0.77482 0.16424 0.0
C4 C 0.37645 0.80019 0.19856 0.0
C5 C 0.38752 0.81275 0.16836 0.0
U6 U 0.41738 0.81998 0.02965 0.0
O7 O 0.42 0.84283 0.98953 0.0
O8 O 0.44564 0.84287 1.01258 0.0
C9 C 0.43865 0.85201 0.99199 0.0
C10 C 0.40616 0.82027 0.1047 0.0
C11 C 0.44762 0.87272 0.99894 0.0
C12 C 0.46285 0.90083 0.0426 0.0
C13 C 0.45354 0.88103 0.0377 0.0
C14 C 0.46012 0.90417 0.9703 0.0
C15 C 0.46644 0.91269 1.00885 0.0
C16 C 0.45086 0.88446 0.96546 0.0
C17 C 0.40867 0.77985 0.95202 0.0
C18 C 0.42711 0.78038 0.89273 0.0
C19 C 0.39507 0.75463 0.90102 0.0
C20 C 0.39347 0.76289 0.93737 0.0
C21 C 0.41198 0.76311 0.87837 0.0
C22 C 0.42547 0.78867 0.92921 0.0
C23 C 0.40671 0.78743 0.99185 0.0
O24 O 0.42235 0.82081 0.09562 0.0
O25 O 0.39697 0.82127 0.07262 0.0
O26 O 0.39643 0.79607 0.99235 0.0
O27 O 0.42208 0.79591 1.0147 0.0
H28 H 0.3952 0.78231 0.1089 0.0
H29 H 0.37572 0.76015 0.1618 0.0
H30 H 0.3716 0.80559 0.22353 0.0
H31 H 0.39077 0.82742 0.17052 0.0
H32 H 0.46761 0.90685 0.0727 0.0
H33 H 0.45118 0.87226 0.06403 0.0
H34 H 0.46226 0.91275 0.94372 0.0
H35 H 0.44635 0.87836 0.93531 0.0
H36 H 0.44039 0.78726 0.8763 0.0
H37 H 0.38298 0.74156 0.89062 0.0
H38 H 0.38035 0.75587 0.95437 0.0
H39 H 0.43741 0.80179 0.93986 0.0
C40 C 0.61163 0.39382 0.4713 0.0
C41 C 0.61314 0.37767 0.46079 0.0
C42 C 0.61523 0.37129 0.53254 0.0
C43 C 0.61486 0.36649 0.49111 0.0
C44 C 0.61406 0.38769 0.54275 0.0
C45 C 0.61225 0.39878 0.51247 0.0
U46 U 0.61855 0.41559 0.36455 0.0
O47 O 0.59793 0.4187 0.32574 0.0
O48 O 0.62362 0.44395 0.34716 0.0
C49 C 0.60744 0.4373 0.32721 0.0
C50 C 0.60877 0.40536 0.44027 0.0
C51 C 0.59618 0.44708 0.33443 0.0
C52 C 0.57606 0.45507 0.37662 0.0
C53 C 0.58666 0.44554 0.37115 0.0
C54 C 0.58442 0.46768 0.3088 0.0
C55 C 0.57486 0.46634 0.3455 0.0
C56 C 0.59493 0.45818 0.30341 0.0
C57 C 0.64857 0.40549 0.28536 0.0
C58 C 0.66699 0.42386 0.22757 0.0
C59 C 0.6581 0.39068 0.232 0.0
C60 C 0.64881 0.38953 0.26869 0.0
C61 C 0.66746 0.40789 0.21104 0.0
C62 C 0.65761 0.42266 0.2643 0.0
C63 C 0.63971 0.40393 0.32562 0.0
O64 O 0.62389 0.42124 0.43037 0.0
O65 O 0.5981 0.39613 0.40876 0.0
O66 O 0.62105 0.39408 0.32689 0.0
O67 O 0.64674 0.41932 0.34851 0.0
H68 H 0.61282 0.37359 0.4292 0.0
H69 H 0.61597 0.35411 0.48209 0.0
H70 H 0.61405 0.39172 0.57424 0.0
H71 H 0.61106 0.41114 0.5213 0.0
H72 H 0.56903 0.45382 0.40539 0.0
H73 H 0.58745 0.43704 0.39552 0.0
H74 H 0.58358 0.47589 0.28388 0.0
H75 H 0.60209 0.45947 0.27476 0.0
H76 H 0.67384 0.43727 0.21204 0.0
H77 H 0.65835 0.37816 0.2206 0.0
H78 H 0.64206 0.37616 0.28449 0.0
H79 H 0.6576 0.4352 0.27641 0.0
C80 C 0.22915 0.64049 0.58319 0.0
C81 C 0.24872 0.64689 0.5875 0.0
C82 C 0.25492 0.66367 0.52311 0.0
C83 C 0.26149 0.65835 0.55768 0.0
C84 C 0.23527 0.65719 0.5192 0.0
C85 C 0.22256 0.64575 0.54889 0.0
U86 U 0.21538 0.61687 0.68826 0.0
O87 O 0.19122 0.61201 0.72726 0.0
O88 O 0.19361 0.58776 0.70332 0.0
C89 C 0.18314 0.59348 0.72347 0.0
C90 C 0.21526 0.62815 0.61356 0.0
C91 C 0.16246 0.58329 0.71454 0.0
C92 C 0.13382 0.5817 0.68534 0.0
C93 C 0.15363 0.5913 0.691 0.0
C94 C 0.13145 0.55582 0.72582 0.0
C95 C 0.12243 0.56387 0.70293 0.0
C96 C 0.1512 0.56543 0.73155 0.0
C97 C 0.25591 0.62752 0.76612 0.0
C98 C 0.25263 0.6136 0.83294 0.0
C99 C 0.28367 0.637 0.80939 0.0
C100 C 0.27551 0.6385 0.77307 0.0
C101 C 0.27241 0.62443 0.83975 0.0
C102 C 0.24446 0.6151 0.79637 0.0
C103 C 0.24806 0.62922 0.72681 0.0
O104 O 0.21567 0.61249 0.62218 0.0
O105 O 0.21323 0.63672 0.64587 0.0
O106 O 0.2381 0.63821 0.72734 0.0
O107 O 0.24059 0.61404 0.70326 0.0
H108 H 0.2541 0.64303 0.61385 0.0
H109 H 0.27652 0.66322 0.56195 0.0
H110 H 0.22962 0.66072 0.49281 0.0
H111 H 0.20751 0.64089 0.5449 0.0
H112 H 0.12742 0.58825 0.66712 0.0
H113 H 0.16201 0.60504 0.67737 0.0
H114 H 0.1232 0.54227 0.7403 0.0
H115 H 0.15767 0.55901 0.74997 0.0
H116 H 0.24354 0.60369 0.8555 0.0
H117 H 0.29885 0.64583 0.81375 0.0
H118 H 0.28458 0.64824 0.7502 0.0
H119 H 0.22927 0.60649 0.79155 0.0
C120 C 0.60825 0.22496 0.92069 0.0
C121 C 0.61003 0.24277 0.93024 0.0
C122 C 0.61195 0.25037 0.85805 0.0
C123 C 0.61185 0.25534 0.89924 0.0
C124 C 0.61061 0.23267 0.84888 0.0
C125 C 0.60875 0.22013 0.87981 0.0
U126 U 0.61488 0.21015 0.02838 0.0
O127 O 0.5939 0.18766 0.06718 0.0
O128 O 0.61911 0.18624 0.04641 0.0
C129 C 0.60291 0.17774 0.06602 0.0
C130 C 0.60514 0.21086 0.95233 0.0
C131 C 0.59108 0.15717 0.05859 0.0
C132 C 0.57374 0.12983 1.01373 0.0
C133 C 0.58474 0.14952 0.01952 0.0
C134 C 0.57528 0.12533 0.08594 0.0
C135 C 0.56885 0.11746 0.04693 0.0
C136 C 0.58624 0.14493 0.09163 0.0
C137 C 0.64563 0.24898 0.10768 0.0
C138 C 0.6606 0.24572 0.16923 0.0
C139 C 0.65864 0.27435 0.15847 0.0
C140 C 0.64931 0.26696 0.12138 0.0
C141 C 0.66457 0.26391 0.18281 0.0
C142 C 0.65119 0.2383 0.13206 0.0
C143 C 0.63672 0.24218 0.06725 0.0
O144 O 0.62003 0.20915 0.96274 0.0
O145 O 0.59468 0.21035 0.98353 0.0
O146 O 0.6181 0.23448 0.06558 0.0
O147 O 0.64336 0.23311 0.04487 0.0
H148 H 0.60972 0.24685 0.96159 0.0
H149 H 0.61269 0.26875 0.90755 0.0
H150 H 0.61101 0.22845 0.8177 0.0
H151 H 0.60749 0.20651 0.87173 0.0
H152 H 0.56891 0.12432 0.98333 0.0
H153 H 0.58829 0.15875 0.99358 0.0
H154 H 0.57213 0.11632 0.11214 0.0
H155 H 0.59106 0.15054 0.12201 0.0
H156 H 0.66475 0.23718 0.18736 0.0
H157 H 0.66165 0.28848 0.16752 0.0
H158 H 0.64522 0.27548 0.10299 0.0
H159 H 0.64843 0.22434 0.1222 0.0
C160 C 0.39591 0.60574 0.25018 0.0
C161 C 0.38741 0.61716 0.25723 0.0
C162 C 0.37423 0.61063 0.18824 0.0
C163 C 0.37663 0.61955 0.22655 0.0
C164 C 0.38272 0.59911 0.1817 0.0
C165 C 0.39342 0.59672 0.2123 0.0
U166 U 0.41984 0.61473 0.35602 0.0
O167 O 0.42237 0.5944 0.39646 0.0
O168 O 0.44802 0.61847 0.37231 0.0
C169 C 0.44096 0.60267 0.39299 0.0
C170 C 0.40746 0.60299 0.28153 0.0
C171 C 0.44931 0.59008 0.38532 0.0
C172 C 0.46672 0.57873 0.34293 0.0
C173 C 0.45774 0.58982 0.34804 0.0
C174 C 0.45858 0.56763 0.41184 0.0
C175 C 0.4674 0.56759 0.3749 0.0
C176 C 0.44969 0.57876 0.41696 0.0
C177 C 0.41415 0.64878 0.43219 0.0
C178 C 0.41938 0.65148 0.50545 0.0
C179 C 0.4148 0.67515 0.47021 0.0
C180 C 0.41294 0.66554 0.43339 0.0
C181 C 0.4179 0.6682 0.50684 0.0
C182 C 0.41755 0.64188 0.46846 0.0
C183 C 0.41102 0.63854 0.39299 0.0
O184 O 0.42408 0.61772 0.28982 0.0
O185 O 0.39836 0.59385 0.31414 0.0
O186 O 0.40024 0.62004 0.39372 0.0
O187 O 0.42595 0.644 0.36948 0.0
H188 H 0.38918 0.62427 0.28632 0.0
H189 H 0.37045 0.62864 0.23258 0.0
H190 H 0.38094 0.59175 0.15296 0.0
H191 H 0.39979 0.58778 0.20632 0.0
H192 H 0.47313 0.57887 0.31389 0.0
H193 H 0.4576 0.59836 0.32303 0.0
H194 H 0.45899 0.55946 0.4373 0.0
H195 H 0.4434 0.5788 0.44606 0.0
H196 H 0.42199 0.64584 0.53294 0.0
H197 H 0.41329 0.68778 0.47004 0.0
H198 H 0.41023 0.67107 0.4058 0.0
H199 H 0.41861 0.62899 0.46824 0.0
C200 C 0.80931 0.38839 0.58858 0.0
C201 C 0.78968 0.38054 0.59509 0.0
C202 C 0.78299 0.36495 0.52829 0.0
C203 C 0.77663 0.36895 0.56518 0.0
C204 C 0.80272 0.3729 0.52216 0.0
C205 C 0.81569 0.38446 0.55197 0.0
U206 U 0.82365 0.41304 0.69375 0.0
O207 O 0.84779 0.4179 0.73311 0.0
O208 O 0.84576 0.44213 0.70928 0.0
C209 C 0.85606 0.43641 0.72969 0.0
C210 C 0.82343 0.40083 0.61911 0.0
C211 C 0.87669 0.44626 0.7211 0.0
C212 C 0.90454 0.44879 0.68598 0.0
C213 C 0.88479 0.43934 0.69226 0.0
C214 C 0.90824 0.47226 0.73684 0.0
C215 C 0.91655 0.46539 0.70826 0.0
C216 C 0.88858 0.4628 0.74313 0.0
C217 C 0.78333 0.40412 0.77053 0.0
C218 C 0.78644 0.41268 0.84247 0.0
C219 C 0.75571 0.3997 0.80925 0.0
C220 C 0.76388 0.39844 0.77264 0.0
C221 C 0.7668 0.40667 0.84482 0.0
C222 C 0.79463 0.41138 0.80564 0.0
C223 C 0.7911 0.4018 0.7315 0.0
O224 O 0.82344 0.41679 0.62764 0.0
O225 O 0.82523 0.39245 0.65151 0.0
O226 O 0.80074 0.3925 0.73238 0.0
O227 O 0.79878 0.41668 0.70796 0.0
H228 H 0.78446 0.38338 0.62323 0.0
H229 H 0.76157 0.36295 0.57115 0.0
H230 H 0.80819 0.37046 0.49397 0.0
H231 H 0.83079 0.39045 0.54628 0.0
H232 H 0.91039 0.44318 0.66345 0.0
H233 H 0.87588 0.42661 0.67478 0.0
H234 H 0.91698 0.48478 0.75506 0.0
H235 H 0.88265 0.46835 0.76566 0.0
H236 H 0.79539 0.41801 0.86926 0.0
H237 H 0.74066 0.39528 0.80958 0.0
H238 H 0.75493 0.39287 0.74586 0.0
H239 H 0.80969 0.41586 0.80465 0.0
H240 H 0.49329 0.93859 0.95805 0.0
H241 H 0.50992 0.97305 0.96425 0.0
H242 H 0.48075 0.96941 0.07655 0.0
H243 H 0.46351 0.93481 0.06985 0.0
H244 H 0.4814 0.99675 0.02957 0.0
H245 H 0.52761 0.97967 0.07566 0.0
H246 H 0.54744 0.96406 0.07161 0.0
H247 H 0.57422 0.99521 0.96411 0.0
H248 H 0.55435 1.01083 0.9672 0.0
H249 H 0.5406 0.09189 0.09588 0.0
H250 H 0.5231 0.05745 0.08887 0.0
H251 H 0.55292 0.06072 0.97772 0.0
H252 H 0.57102 0.09522 0.98532 0.0
H253 H 0.5518 0.03352 0.0242 0.0
H254 H 0.50575 0.05069 0.97798 0.0
H255 H 0.48587 0.06625 0.98161 0.0
H256 H 0.45875 0.03499 0.08877 0.0
H257 H 0.47867 0.01942 0.0861 0.0
C258 C 0.49024 0.94506 0.98395 0.0
C259 C 0.47696 0.93381 1.01341 0.0
C260 C 0.49995 0.96483 0.98767 0.0
C261 C 0.4968 0.97392 0.02112 0.0
C262 C 0.4835 0.96277 0.05052 0.0
C263 C 0.47376 0.94295 0.04682 0.0
C264 C 0.50725 0.99503 0.02511 0.0
C265 C 0.4968 1.00476 0.02899 0.0
C266 C 0.52736 1.00561 0.02332 0.0
C267 C 0.53936 0.99628 0.02145 0.0
C268 C 0.53762 0.98308 0.05098 0.0
C269 C 0.54889 0.97425 0.04889 0.0
C270 C 0.56205 0.9786 1.01757 0.0
C271 C 0.564 0.99183 0.98833 0.0
C272 C 0.55276 1.00069 0.99025 0.0
C273 C 0.54354 0.08532 0.06999 0.0
C274 C 0.55732 0.09644 0.04123 0.0
C275 C 0.53333 0.06558 0.06579 0.0
C276 C 0.53649 0.05639 0.03253 0.0
C277 C 0.55015 0.06743 1.00361 0.0
C278 C 0.56039 0.08721 1.0078 0.0
C279 C 0.52595 0.03527 0.02858 0.0
C280 C 0.53639 0.02552 0.02475 0.0
C281 C 0.50584 0.02469 0.03038 0.0
C282 C 0.49384 0.03403 0.03206 0.0
C283 C 0.49566 0.04725 1.00251 0.0
C284 C 0.48436 0.05605 1.00436 0.0
C285 C 0.47109 0.05165 0.03546 0.0
C286 C 0.46906 0.0384 0.06473 0.0
C287 C 0.48033 0.02957 0.06304 0.0
H288 H 0.46235 0.05847 0.03683 0.0
H289 H 0.57076 0.97175 1.016 0.0
H290 H 0.50155 0.578 0.33747 0.0
H291 H 0.51891 0.56018 0.33244 0.0
H292 H 0.4741 0.51402 0.39728 0.0
H293 H 0.45667 0.5318 0.40248 0.0
H294 H 0.5075 0.52076 0.42631 0.0
H295 H 0.48024 0.51168 0.29316 0.0
H296 H 0.47282 0.52126 0.22769 0.0
H297 H 0.53238 0.55297 0.20073 0.0
H298 H 0.54017 0.54378 0.26631 0.0
H299 H 0.54017 0.45405 0.38258 0.0
H300 H 0.52151 0.4706 0.38833 0.0
H301 H 0.56548 0.51844 0.3259 0.0
H302 H 0.58422 0.50208 0.32028 0.0
H303 H 0.53155 0.50986 0.29548 0.0
H304 H 0.55869 0.51933 0.42949 0.0
H305 H 0.56597 0.50964 0.49497 0.0
H306 H 0.50631 0.47687 0.5201 0.0
H307 H 0.49867 0.48617 0.45448 0.0
C308 C 0.49524 0.56395 0.35018 0.0
C309 C 0.47765 0.55636 0.37031 0.0
C310 C 0.50522 0.55376 0.34733 0.0
C311 C 0.49778 0.53561 0.36413 0.0
C312 C 0.48021 0.52798 0.38415 0.0
C313 C 0.47025 0.5382 0.38715 0.0
C314 C 0.5085 0.52479 0.36159 0.0
C315 C 0.51249 0.51813 0.39759 0.0
C316 C 0.51543 0.52165 0.3243 0.0
C317 C 0.51079 0.52719 0.28483 0.0
C318 C 0.49176 0.52082 0.27342 0.0
C319 C 0.48749 0.52615 0.23626 0.0
C320 C 0.50212 0.53775 0.21012 0.0
C321 C 0.52106 0.544 0.22103 0.0
C322 C 0.52541 0.53872 0.25818 0.0
C323 C 0.546 0.46819 0.37055 0.0
C324 C 0.56372 0.47666 0.35084 0.0
C325 C 0.53528 0.47765 0.37378 0.0
C326 C 0.54208 0.49586 0.35771 0.0
C327 C 0.55982 0.50438 0.33835 0.0
C328 C 0.57052 0.49495 0.33507 0.0
C329 C 0.53064 0.50594 0.3602 0.0
C330 C 0.5265 0.51245 0.32418 0.0
C331 C 0.52355 0.50891 0.39745 0.0
C332 C 0.52811 0.50328 0.43687 0.0
C333 C 0.54712 0.50993 0.44882 0.0
C334 C 0.55131 0.50453 0.48599 0.0
C335 C 0.53661 0.4926 0.51163 0.0
C336 C 0.51769 0.48608 0.50018 0.0
C337 C 0.51342 0.49142 0.46302 0.0
H338 H 0.53988 0.48844 0.5404 0.0
H339 H 0.49878 0.54186 0.18136 0.0
H340 H 0.09821 0.52581 0.69083 0.0
H341 H 0.06347 0.50934 0.68795 0.0
H342 H 0.06369 0.56267 0.70149 0.0
H343 H 0.09844 0.5792 0.70566 0.0
H344 H 0.03813 0.53711 0.75066 0.0
H345 H 0.05324 0.53838 0.6096 0.0
H346 H 0.06854 0.5332 0.54945 0.0
H347 H 0.03997 0.47341 0.57145 0.0
H348 H 0.02469 0.47825 0.6321 0.0
H349 H 0.94087 0.5037 0.70647 0.0
H350 H 0.97551 0.52016 0.70181 0.0
H351 H 0.97495 0.46656 0.69195 0.0
H352 H 0.9402 0.44993 0.69685 0.0
H353 H 1.0006 0.49214 0.64009 0.0
H354 H 0.98603 0.49102 0.78172 0.0
H355 H 0.97058 0.49615 0.84166 0.0
H356 H 0.99828 0.55581 0.81833 0.0
H357 H 1.0137 0.55099 0.75788 0.0
C358 C 0.0909 0.53407 0.6933 0.0
C359 C 0.10122 0.55388 0.69854 0.0
C360 C 0.07098 0.52462 0.69123 0.0
C361 C 0.06086 0.53472 0.69413 0.0
C362 C 0.07112 0.55451 0.69906 0.0
C363 C 0.09104 0.56399 0.70108 0.0
C364 C 0.03959 0.52463 0.6935 0.0
C365 C 0.02996 0.52752 0.72612 0.0
C366 C 0.02881 0.51167 0.66209 0.0
C367 C 0.03797 0.50871 0.62564 0.0
C368 C 0.05034 0.52414 0.60182 0.0
C369 C 0.05898 0.52126 0.56759 0.0
C370 C 0.05527 0.503 0.5567 0.0
C371 C 0.04286 0.48756 0.57996 0.0
C372 C 0.03419 0.49036 0.61424 0.0
C373 C 0.94807 0.49536 0.70349 0.0
C374 C 0.93766 0.47543 0.70251 0.0
C375 C 0.96793 0.50482 0.70073 0.0
C376 C 0.97795 0.49463 0.69718 0.0
C377 C 0.96759 0.47476 0.69474 0.0
C378 C 0.94768 0.46526 0.69745 0.0
C379 C 0.9992 0.50472 0.69714 0.0
C380 C 1.00881 0.50179 0.66453 0.0
C381 C 1.01 0.51765 0.72855 0.0
C382 C 1.00087 0.52061 0.76506 0.0
C383 C 0.98872 0.50521 0.78921 0.0
C384 C 0.97999 0.50807 0.8233 0.0
C385 C 0.98341 0.52629 0.83374 0.0
C386 C 0.99562 0.5417 0.81017 0.0
C387 C 1.00438 0.53892 0.77601 0.0
H388 H 0.97663 0.52847 0.86014 0.0
H389 H 0.06197 0.5008 0.53018 0.0
H390 H 0.37664 0.75309 0.234 0.0
H391 H 0.35798 0.73253 0.28951 0.0
H392 H 0.32195 0.75844 0.2893 0.0
H393 H 0.34046 0.77893 0.23393 0.0
H394 H 0.33227 0.75614 0.3648 0.0
H395 H 0.30729 0.71318 0.24979 0.0
H396 H 0.30925 0.69576 0.18953 0.0
H397 H 0.33355 0.66902 0.2625 0.0
H398 H 0.33196 0.68647 0.32314 0.0
H399 H 0.25425 0.69266 0.48174 0.0
H400 H 0.27528 0.71175 0.42757 0.0
H401 H 0.30746 0.68199 0.43805 0.0
H402 H 0.28602 0.66234 0.49159 0.0
H403 H 0.30132 0.686 0.35971 0.0
H404 H 0.32518 0.72733 0.47486 0.0
H405 H 0.32389 0.74472 0.5358 0.0
H406 H 0.30285 0.7747 0.46364 0.0
H407 H 0.30377 0.75728 0.40232 0.0
C408 C 0.36459 0.75424 0.2454 0.0
C409 C 0.36014 0.76777 0.22949 0.0
C410 C 0.35393 0.74247 0.27723 0.0
C411 C 0.33845 0.74383 0.29363 0.0
C412 C 0.33387 0.75716 0.27745 0.0
C413 C 0.34453 0.76893 0.24577 0.0
C414 C 0.32728 0.73181 0.32833 0.0
C415 C 0.32532 0.74079 0.36342 0.0
C416 C 0.31874 0.71178 0.32734 0.0
C417 C 0.3197 0.70129 0.2909 0.0
C418 C 0.3132 0.70371 0.25292 0.0
C419 C 0.31421 0.6938 0.21871 0.0
C420 C 0.32157 0.68133 0.22216 0.0
C421 C 0.32788 0.6787 0.25986 0.0
C422 C 0.32691 0.68859 0.29416 0.0
C423 C 0.26572 0.69005 0.47244 0.0
C424 C 0.26837 0.67588 0.49113 0.0
C425 C 0.27789 0.70115 0.44165 0.0
C426 C 0.29315 0.69851 0.42888 0.0
C427 C 0.29585 0.68437 0.44739 0.0
C428 C 0.28366 0.67324 0.47829 0.0
C429 C 0.306 0.71034 0.39581 0.0
C430 C 0.30833 0.70135 0.36112 0.0
C431 C 0.315 0.73038 0.39722 0.0
C432 C 0.31439 0.74087 0.43405 0.0
C433 C 0.32013 0.73751 0.47203 0.0
C434 C 0.31949 0.7474 0.50664 0.0
C435 C 0.31325 0.76077 0.50361 0.0
C436 C 0.30767 0.76432 0.46595 0.0
C437 C 0.30826 0.75445 0.43125 0.0
H438 H 0.31278 0.76842 0.53044 0.0
H439 H 0.32235 0.67368 0.19564 0.0
H440 H 0.63594 0.38233 0.60365 0.0
H441 H 0.63627 0.36227 0.65845 0.0
H442 H 0.59751 0.31247 0.59007 0.0
H443 H 0.59674 0.33246 0.53558 0.0
H444 H 0.58635 0.31017 0.66759 0.0
H445 H 0.64479 0.32534 0.59971 0.0
H446 H 0.67632 0.34623 0.57063 0.0
H447 H 0.69679 0.37228 0.6877 0.0
H448 H 0.66529 0.35171 0.71739 0.0
H449 H 0.59302 0.24083 0.78485 0.0
H450 H 0.59477 0.26173 0.73017 0.0
H451 H 0.63432 0.31023 0.8009 0.0
H452 H 0.63322 0.28929 0.85533 0.0
H453 H 0.64543 0.31384 0.72327 0.0
H454 H 0.5873 0.29889 0.79134 0.0
H455 H 0.55587 0.2781 0.82093 0.0
H456 H 0.53487 0.25206 0.70407 0.0
H457 H 0.56627 0.27252 0.67387 0.0
C458 C 0.62744 0.36711 0.60026 0.0
C459 C 0.6163 0.35905 0.56509 0.0
C460 C 0.62779 0.35563 0.63152 0.0
C461 C 0.61704 0.3358 0.62837 0.0
C462 C 0.60597 0.32772 0.59324 0.0
C463 C 0.60567 0.33918 0.5619 0.0
C464 C 0.61681 0.32351 0.66219 0.0
C465 C 0.59927 0.3108 0.67934 0.0
C466 C 0.63368 0.32468 0.67849 0.0
C467 C 0.65261 0.33712 0.66068 0.0
C468 C 0.65596 0.33564 0.61918 0.0
C469 C 0.67384 0.3474 0.60261 0.0
C470 C 0.68853 0.36061 0.62728 0.0
C471 C 0.68539 0.36206 0.66861 0.0
C472 C 0.66753 0.35034 0.68533 0.0
C473 C 0.60229 0.25592 0.78874 0.0
C474 C 0.61299 0.2633 0.82471 0.0
C475 C 0.6031 0.26791 0.75751 0.0
C476 C 0.61448 0.28764 0.76148 0.0
C477 C 0.62536 0.29508 0.79709 0.0
C478 C 0.62459 0.28307 0.8284 0.0
C479 C 0.61495 0.30041 0.72845 0.0
C480 C 0.63253 0.31323 0.71152 0.0
C481 C 0.59812 0.29941 0.71239 0.0
C482 C 0.57919 0.28712 0.73043 0.0
C483 C 0.57602 0.28863 0.77201 0.0
C484 C 0.5582 0.27692 0.78888 0.0
C485 C 0.54339 0.26373 0.76442 0.0
C486 C 0.54636 0.26226 0.723 0.0
C487 C 0.56416 0.27392 0.70598 0.0
H488 H 0.5296 0.25468 0.77754 0.0
H489 H 0.70237 0.36969 0.61439 0.0
H490 H 0.38262 0.61547 0.1071 0.0
H491 H 0.36402 0.61858 0.05214 0.0
H492 H 0.32227 0.61558 0.13842 0.0
H493 H 0.34061 0.61185 0.19372 0.0
H494 H 0.30516 0.59389 0.07255 0.0
H495 H 0.35313 0.65765 0.09543 0.0
H496 H 0.3856 0.68422 0.10515 0.0
H497 H 0.40077 0.67439 0.98566 0.0
H498 H 0.36846 0.64758 0.97543 0.0
H499 H 0.25946 0.62104 0.91843 0.0
H500 H 0.27522 0.61934 0.98078 0.0
H501 H 0.32158 0.62202 0.90981 0.0
H502 H 0.30596 0.62368 0.84766 0.0
H503 H 0.33492 0.64573 0.97294 0.0
H504 H 0.28693 0.58024 0.95303 0.0
H505 H 0.25419 0.554 0.94429 0.0
H506 H 0.2387 0.56789 0.05954 0.0
H507 H 0.2713 0.59438 0.06872 0.0
C508 C 0.36943 0.61534 0.1145 0.0
C509 C 0.36313 0.61334 0.15498 0.0
C510 C 0.35888 0.61733 0.08299 0.0
C511 C 0.3418 0.61753 0.09104 0.0
C512 C 0.33542 0.61553 0.13138 0.0
C513 C 0.34601 0.61356 0.16304 0.0
C514 C 0.33057 0.61948 0.05706 0.0
C515 C 0.31157 0.60541 0.05117 0.0
C516 C 0.33893 0.63438 0.02878 0.0
C517 C 0.35841 0.65049 0.03481 0.0
C518 C 0.36343 0.66105 0.07135 0.0
C519 C 0.3818 0.67618 0.07693 0.0
C520 C 0.39525 0.68097 0.04608 0.0
C521 C 0.39035 0.67066 1.00955 0.0
C522 C 0.372 0.6555 1.00382 0.0
C523 C 0.2729 0.62105 0.91607 0.0
C524 C 0.28145 0.6226 0.87791 0.0
C525 C 0.28193 0.6201 0.95179 0.0
C526 C 0.29961 0.62048 0.95013 0.0
C527 C 0.30803 0.62183 0.91205 0.0
C528 C 0.29908 0.62283 0.87645 0.0
C529 C 0.30967 0.61988 0.98779 0.0
C530 C 0.32846 0.63427 0.99447 0.0
C531 C 0.30106 0.60534 1.01685 0.0
C532 C 0.28148 0.58942 1.01134 0.0
C533 C 0.2765 0.5778 0.97635 0.0
C534 C 0.25798 0.56286 0.97135 0.0
C535 C 0.24436 0.55932 1.00128 0.0
C536 C 0.24925 0.57067 0.03634 0.0
C537 C 0.26775 0.58564 0.04147 0.0
H538 H 0.23003 0.54774 0.99736 0.0
H539 H 0.40946 0.69269 0.05045 0.0
H540 H 0.78499 0.33811 0.47967 0.0
H541 H 0.76382 0.31971 0.4239 0.0
H542 H 0.72856 0.34542 0.4478 0.0
H543 H 0.74981 0.36405 0.50359 0.0
H544 H 0.70706 0.30763 0.43098 0.0
H545 H 0.75999 0.36079 0.37026 0.0
H546 H 0.7939 0.38242 0.35694 0.0
H547 H 0.80012 0.33609 0.30841 0.0
H548 H 0.76628 0.31412 0.32199 0.0
H549 H 0.6583 0.28526 0.24025 0.0
H550 H 0.67721 0.30075 0.30098 0.0
H551 H 0.71389 0.27689 0.27444 0.0
H552 H 0.69538 0.26183 0.21291 0.0
H553 H 0.73444 0.31343 0.29338 0.0
H554 H 0.68128 0.26027 0.35256 0.0
H555 H 0.64741 0.2386 0.36626 0.0
H556 H 0.6415 0.28464 0.4176 0.0
H557 H 0.67529 0.30666 0.40369 0.0
C558 C 0.7728 0.33996 0.47302 0.0
C559 C 0.76929 0.35278 0.49597 0.0
C560 C 0.76065 0.32936 0.44113 0.0
C561 C 0.74472 0.33136 0.43114 0.0
C562 C 0.74076 0.34363 0.45483 0.0
C563 C 0.75293 0.35425 0.48683 0.0
C564 C 0.73257 0.32106 0.39529 0.0
C565 C 0.713 0.30908 0.40079 0.0
C566 C 0.74033 0.32259 0.35598 0.0
C567 C 0.76065 0.33579 0.3475 0.0
C568 C 0.76862 0.35519 0.35702 0.0
C569 C 0.78782 0.36751 0.34938 0.0
C570 C 0.79917 0.36062 0.33193 0.0
C571 C 0.79132 0.3414 0.32197 0.0
C572 C 0.77212 0.32901 0.32961 0.0
C573 C 0.67041 0.28331 0.24724 0.0
C574 C 0.6753 0.27229 0.22149 0.0
C575 C 0.68112 0.29205 0.28229 0.0
C576 C 0.69693 0.2899 0.29265 0.0
C577 C 0.70174 0.27875 0.26725 0.0
C578 C 0.69102 0.26999 0.23219 0.0
C579 C 0.70889 0.29989 0.32897 0.0
C580 C 0.72846 0.31189 0.32355 0.0
C581 C 0.7011 0.29835 0.3683 0.0
C582 C 0.68078 0.28515 0.3767 0.0
C583 C 0.67272 0.26581 0.36646 0.0
C584 C 0.65355 0.25346 0.37432 0.0
C585 C 0.6423 0.26025 0.39269 0.0
C586 C 0.65022 0.2794 0.40332 0.0
C587 C 0.66939 0.29182 0.39549 0.0
H588 H 0.62746 0.25066 0.39876 0.0
H589 H 0.81403 0.37019 0.32604 0.0
H590 H 0.43544 0.70651 0.52258 0.0
H591 H 0.43541 0.72268 0.58577 0.0
H592 H 0.40327 0.66876 0.64405 0.0
H593 H 0.40267 0.65246 0.58048 0.0
H594 H 0.38849 0.69111 0.66142 0.0
H595 H 0.45117 0.69809 0.66428 0.0
H596 H 0.48308 0.70687 0.63802 0.0
H597 H 0.4957 0.76485 0.62951 0.0
H598 H 0.46374 0.75637 0.65521 0.0
H599 H 0.39892 0.72523 0.86418 0.0
H600 H 0.40085 0.70968 0.8017 0.0
H601 H 0.43132 0.76392 0.74395 0.0
H602 H 0.4293 0.77965 0.80645 0.0
H603 H 0.44713 0.74173 0.72617 0.0
H604 H 0.38431 0.73458 0.7233 0.0
H605 H 0.35241 0.72569 0.74981 0.0
H606 H 0.34007 0.6678 0.75856 0.0
H607 H 0.37202 0.67639 0.7326 0.0
C608 C 0.42831 0.69805 0.54877 0.0
C609 C 0.41902 0.67813 0.54626 0.0
C610 C 0.42847 0.70735 0.5851 0.0
C611 C 0.41948 0.69699 0.61996 0.0
C612 C 0.41035 0.67711 0.61767 0.0
C613 C 0.41017 0.66779 0.58133 0.0
C614 C 0.41905 0.70683 0.65834 0.0
C615 C 0.40135 0.70197 0.67588 0.0
C616 C 0.43576 0.72141 0.67677 0.0
C617 C 0.45498 0.72655 0.66128 0.0
C618 C 0.46068 0.71268 0.65649 0.0
C619 C 0.47879 0.71761 0.64176 0.0
C620 C 0.49139 0.7364 0.632 0.0
C621 C 0.48591 0.7503 0.63703 0.0
C622 C 0.46781 0.74544 0.6517 0.0
C623 C 0.40588 0.7339 0.83813 0.0
C624 C 0.41377 0.75373 0.84039 0.0
C625 C 0.40702 0.72495 0.80237 0.0
C626 C 0.41598 0.73557 0.7678 0.0
C627 C 0.42429 0.7554 0.77016 0.0
C628 C 0.42317 0.76439 0.806 0.0
C629 C 0.41658 0.72593 0.72928 0.0
C630 C 0.43428 0.73085 0.7117 0.0
C631 C 0.39987 0.71139 0.7108 0.0
C632 C 0.38064 0.70617 0.72638 0.0
C633 C 0.37486 0.71998 0.73118 0.0
C634 C 0.35676 0.71499 0.74605 0.0
C635 C 0.34424 0.6962 0.75596 0.0
C636 C 0.34979 0.68235 0.75092 0.0
C637 C 0.36789 0.68727 0.7361 0.0
H638 H 0.33023 0.69236 0.76745 0.0
H639 H 0.50541 0.74019 0.62062 0.0
H640 H 0.78057 0.4347 0.90389 0.0
H641 H 0.76479 0.43621 0.96647 0.0
H642 H 0.71669 0.38192 0.93692 0.0
H643 H 0.73234 0.38028 0.87465 0.0
H644 H 0.70489 0.40608 0.96014 0.0
H645 H 0.74936 0.38746 1.01177 0.0
H646 H 0.78096 0.39022 0.02289 0.0
H647 H 0.80009 0.44416 0.08215 0.0
H648 H 0.76865 0.44183 0.07089 0.0
H649 H 0.65663 0.38198 0.14827 0.0
H650 H 0.67439 0.38329 0.08705 0.0
H651 H 0.71967 0.43799 0.12476 0.0
H652 H 0.70218 0.43652 0.18681 0.0
H653 H 0.73382 0.41581 0.09744 0.0
H654 H 0.68901 0.43386 0.04834 0.0
H655 H 0.65739 0.43109 0.03747 0.0
H656 H 0.63899 0.37838 0.97336 0.0
H657 H 0.67042 0.3807 0.98434 0.0
C658 C 0.76673 0.42297 0.91095 0.0
C659 C 0.75772 0.40741 0.88399 0.0
C660 C 0.7577 0.42387 0.94678 0.0
C661 C 0.73953 0.40914 0.95664 0.0
C662 C 0.73062 0.39353 0.92998 0.0
C663 C 0.7396 0.39264 0.89423 0.0
C664 C 0.72949 0.41007 0.99412 0.0
C665 C 0.71116 0.40798 0.99019 0.0
C666 C 0.73781 0.41312 0.03335 0.0
C667 C 0.75672 0.41456 0.04007 0.0
C668 C 0.76035 0.39998 0.02685 0.0
C669 C 0.77822 0.40146 0.03324 0.0
C670 C 0.79254 0.41739 0.0531 0.0
C671 C 0.789 0.43185 0.0667 0.0
C672 C 0.77115 0.43045 0.06034 0.0
C673 C 0.6704 0.39427 0.14371 0.0
C674 C 0.67793 0.40915 0.17262 0.0
C675 C 0.68049 0.39508 0.10842 0.0
C676 C 0.69833 0.41083 0.10094 0.0
C677 C 0.70592 0.42571 0.1297 0.0
C678 C 0.69581 0.42492 0.16503 0.0
C679 C 0.70913 0.41155 0.06346 0.0
C680 C 0.7276 0.41398 0.06737 0.0
C681 C 0.70095 0.40882 0.02416 0.0
C682 C 0.68202 0.40737 1.0175 0.0
C683 C 0.67817 0.4216 0.03222 0.0
C684 C 0.66029 0.42013 0.02598 0.0
C685 C 0.64617 0.40454 1.00482 0.0
C686 C 0.64993 0.39043 0.98978 0.0
C687 C 0.66778 0.39182 0.99597 0.0
H688 H 0.63234 0.40343 1.00001 0.0
H689 H 0.80636 0.4185 0.05804 0.0
loop_
_geom_bond_atom_site_label_1
_geom_bond_atom_site_label_2
_geom_bond_distance
_geom_bond_site_symmetry_2
_ccdc_geom_bond_type
C0 C1 1.264 . S
C0 C5 1.479 . S
C0 C10 1.465 . S
C1 C0 1.264 . S
C1 C3 1.339 . S
C1 H28 0.931 . S
C2 C3 1.395 . S
C2 C4 1.320 . S
C3 C1 1.339 . S
C3 C2 1.395 . S
C3 H29 0.929 . S
C4 C2 1.320 . S
C4 C5 1.405 . S
C4 H30 0.930 . S
C5 C0 1.479 . S
C5 C4 1.405 . S
C5 H31 0.931 . S
U6 O7 2.454 . S
U6 O8 2.458 1_554 S
U6 C9 2.984 . S
U6 C10 2.847 . S
U6 C23 2.882 1_554 S
U6 O24 2.441 . S
U6 O25 2.420 . S
U6 O26 2.455 1_554 S
U6 O27 2.449 1_554 S
O7 U6 2.454 . S
O7 C9 1.353 . S
O8 U6 2.458 1_556 S
O8 C9 1.286 1_556 S
C9 U6 2.984 . S
C9 O7 1.353 . S
C9 O8 1.286 1_554 S
C9 C11 1.363 . S
C10 C0 1.465 . S
C10 U6 2.847 . S
C10 O24 1.249 . S
C10 O25 1.202 . S
C11 C9 1.363 . S
C11 C13 1.408 . S
C11 C16 1.342 1_554 S
C12 C13 1.310 . S
C12 C15 1.461 . S
C12 H32 0.932 . S
C13 C11 1.408 . S
C13 C12 1.310 . S
C13 H33 0.930 . S
C14 C15 1.474 1_556 S
C14 C16 1.285 . S
C14 H34 0.929 . S
C15 C12 1.461 . S
C15 C14 1.474 1_554 S
C16 C11 1.342 1_556 S
C16 C14 1.285 . S
C16 H35 0.930 . S
C17 C20 1.424 . S
C17 C22 1.245 . S
C17 C23 1.428 . S
C18 C21 1.260 . S
C18 C22 1.477 . S
C18 H36 0.932 . S
C19 C20 1.384 . S
C19 C21 1.479 . S
C19 H37 0.929 . S
C20 C17 1.424 . S
C20 C19 1.384 . S
C20 H38 0.928 . S
C21 C18 1.260 . S
C21 C19 1.479 . S
C22 C17 1.245 . S
C22 C18 1.477 . S
C22 H39 0.932 . S
C23 U6 2.882 1_556 S
C23 C17 1.428 . S
C23 O26 1.301 . S
C23 O27 1.282 . S
O24 U6 2.441 . S
O24 C10 1.249 . S
O25 U6 2.420 . S
O25 C10 1.202 . S
O26 U6 2.455 1_556 S
O26 C23 1.301 . S
O27 U6 2.449 1_556 S
O27 C23 1.282 . S
H28 C1 0.931 . S
H29 C3 0.929 . S
H30 C4 0.930 . S
H31 C5 0.931 . S
H32 C12 0.932 . S
H33 C13 0.930 . S
H34 C14 0.929 . S
H35 C16 0.930 . S
H36 C18 0.932 . S
H37 C19 0.929 . S
H38 C20 0.928 . S
H39 C22 0.932 . S
C40 C41 1.264 . S
C40 C45 1.479 . S
C40 C50 1.465 . S
C41 C40 1.264 . S
C41 C43 1.339 . S
C41 H68 0.931 . S
C42 C43 1.395 . S
C42 C44 1.320 . S
C43 C41 1.339 . S
C43 C42 1.395 . S
C43 H69 0.929 . S
C44 C42 1.320 . S
C44 C45 1.405 . S
C44 H70 0.930 . S
C45 C40 1.479 . S
C45 C44 1.405 . S
C45 H71 0.931 . S
U46 O47 2.454 . S
U46 O48 2.458 . S
U46 C49 2.984 . S
U46 C50 2.847 . S
U46 C63 2.882 . S
U46 O64 2.441 . S
U46 O65 2.420 . S
U46 O66 2.455 . S
U46 O67 2.449 . S
O47 U46 2.454 . S
O47 C49 1.353 . S
O48 U46 2.458 . S
O48 C49 1.286 . S
C49 U46 2.984 . S
C49 O47 1.353 . S
C49 O48 1.286 . S
C49 C51 1.363 . S
C50 C40 1.465 . S
C50 U46 2.847 . S
C50 O64 1.249 . S
C50 O65 1.202 . S
C51 C49 1.363 . S
C51 C53 1.408 . S
C51 C56 1.342 . S
C52 C53 1.310 . S
C52 C55 1.461 . S
C52 H72 0.932 . S
C53 C51 1.408 . S
C53 C52 1.310 . S
C53 H73 0.930 . S
C54 C55 1.474 . S
C54 C56 1.285 . S
C54 H74 0.929 . S
C55 C52 1.461 . S
C55 C54 1.474 . S
C56 C51 1.342 . S
C56 C54 1.285 . S
C56 H75 0.930 . S
C57 C60 1.424 . S
C57 C62 1.245 . S
C57 C63 1.428 . S
C58 C61 1.260 . S
C58 C62 1.477 . S
C58 H76 0.932 . S
C59 C60 1.384 . S
C59 C61 1.479 . S
C59 H77 0.929 . S
C60 C57 1.424 . S
C60 C59 1.384 . S
C60 H78 0.928 . S
C61 C58 1.260 . S
C61 C59 1.479 . S
C62 C57 1.245 . S
C62 C58 1.477 . S
C62 H79 0.932 . S
C63 U46 2.882 . S
C63 C57 1.428 . S
C63 O66 1.301 . S
C63 O67 1.282 . S
O64 U46 2.441 . S
O64 C50 1.249 . S
O65 U46 2.420 . S
O65 C50 1.202 . S
O66 U46 2.455 . S
O66 C63 1.301 . S
O67 U46 2.449 . S
O67 C63 1.282 . S
H68 C41 0.931 . S
H69 C43 0.929 . S
H70 C44 0.930 . S
H71 C45 0.931 . S
H72 C52 0.932 . S
H73 C53 0.930 . S
H74 C54 0.929 . S
H75 C56 0.930 . S
H76 C58 0.932 . S
H77 C59 0.929 . S
H78 C60 0.928 . S
H79 C62 0.932 . S
C80 C81 1.264 . S
C80 C85 1.479 . S
C80 C90 1.465 . S
C81 C80 1.264 . S
C81 C83 1.339 . S
C81 H108 0.931 . S
C82 C83 1.395 . S
C82 C84 1.320 . S
C83 C81 1.339 . S
C83 C82 1.395 . S
C83 H109 0.929 . S
C84 C82 1.320 . S
C84 C85 1.405 . S
C84 H110 0.930 . S
C85 C80 1.479 . S
C85 C84 1.405 . S
C85 H111 0.931 . S
U86 O87 2.454 . S
U86 O88 2.458 . S
U86 C89 2.984 . S
U86 C90 2.847 . S
U86 C103 2.882 . S
U86 O104 2.441 . S
U86 O105 2.420 . S
U86 O106 2.455 . S
U86 O107 2.449 . S
O87 U86 2.454 . S
O87 C89 1.353 . S
O88 U86 2.458 . S
O88 C89 1.286 . S
C89 U86 2.984 . S
C89 O87 1.353 . S
C89 O88 1.286 . S
C89 C91 1.363 . S
C90 C80 1.465 . S
C90 U86 2.847 . S
C90 O104 1.249 . S
C90 O105 1.202 . S
C91 C89 1.363 . S
C91 C93 1.408 . S
C91 C96 1.342 . S
C92 C93 1.310 . S
C92 C95 1.461 . S
C92 H112 0.932 . S
C93 C91 1.408 . S
C93 C92 1.310 . S
C93 H113 0.930 . S
C94 C95 1.474 . S
C94 C96 1.285 . S
C94 H114 0.929 . S
C95 C92 1.461 . S
C95 C94 1.474 . S
C96 C91 1.342 . S
C96 C94 1.285 . S
C96 H115 0.930 . S
C97 C100 1.424 . S
C97 C102 1.245 . S
C97 C103 1.428 . S
C98 C101 1.260 . S
C98 C102 1.477 . S
C98 H116 0.932 . S
C99 C100 1.384 . S
C99 C101 1.479 . S
C99 H117 0.929 . S
C100 C97 1.424 . S
C100 C99 1.384 . S
C100 H118 0.928 . S
C101 C98 1.260 . S
C101 C99 1.479 . S
C102 C97 1.245 . S
C102 C98 1.477 . S
C102 H119 0.932 . S
C103 U86 2.882 . S
C103 C97 1.428 . S
C103 O106 1.301 . S
C103 O107 1.282 . S
O104 U86 2.441 . S
O104 C90 1.249 . S
O105 U86 2.420 . S
O105 C90 1.202 . S
O106 U86 2.455 . S
O106 C103 1.301 . S
O107 U86 2.449 . S
O107 C103 1.282 . S
H108 C81 0.931 . S
H109 C83 0.929 . S
H110 C84 0.930 . S
H111 C85 0.931 . S
H112 C92 0.932 . S
H113 C93 0.930 . S
H114 C94 0.929 . S
H115 C96 0.930 . S
H116 C98 0.932 . S
H117 C99 0.929 . S
H118 C100 0.928 . S
H119 C102 0.932 . S
C120 C121 1.264 . S
C120 C125 1.479 . S
C120 C130 1.465 . S
C121 C120 1.264 . S
C121 C123 1.339 . S
C121 H148 0.931 . S
C122 C123 1.395 . S
C122 C124 1.320 . S
C123 C121 1.339 . S
C123 C122 1.395 . S
C123 H149 0.929 . S
C124 C122 1.320 . S
C124 C125 1.405 . S
C124 H150 0.930 . S
C125 C120 1.479 . S
C125 C124 1.405 . S
C125 H151 0.931 . S
U126 O127 2.454 1_554 S
U126 O128 2.458 . S
U126 C129 2.984 . S
U126 C130 2.847 1_554 S
U126 C143 2.882 . S
U126 O144 2.441 1_554 S
U126 O145 2.420 1_554 S
U126 O146 2.455 . S
U126 O147 2.449 . S
O127 U126 2.454 1_556 S
O127 C129 1.353 1_556 S
O128 U126 2.458 . S
O128 C129 1.286 . S
C129 U126 2.984 . S
C129 O127 1.353 1_554 S
C129 O128 1.286 . S
C129 C131 1.363 . S
C130 C120 1.465 . S
C130 U126 2.847 1_556 S
C130 O144 1.249 . S
C130 O145 1.202 . S
C131 C129 1.363 . S
C131 C133 1.408 1_554 S
C131 C136 1.342 . S
C132 C133 1.310 . S
C132 C135 1.461 1_556 S
C132 H152 0.932 . S
C133 C131 1.408 1_556 S
C133 C132 1.310 . S
C133 H153 0.930 . S
C134 C135 1.474 . S
C134 C136 1.285 . S
C134 H154 0.929 . S
C135 C132 1.461 1_554 S
C135 C134 1.474 . S
C136 C131 1.342 . S
C136 C134 1.285 . S
C136 H155 0.930 . S
C137 C140 1.424 . S
C137 C142 1.245 . S
C137 C143 1.428 . S
C138 C141 1.260 . S
C138 C142 1.477 . S
C138 H156 0.932 . S
C139 C140 1.384 . S
C139 C141 1.479 . S
C139 H157 0.929 . S
C140 C137 1.424 . S
C140 C139 1.384 . S
C140 H158 0.928 . S
C141 C138 1.260 . S
C141 C139 1.479 . S
C142 C137 1.245 . S
C142 C138 1.477 . S
C142 H159 0.932 . S
C143 U126 2.882 . S
C143 C137 1.428 . S
C143 O146 1.301 . S
C143 O147 1.282 . S
O144 U126 2.441 1_556 S
O144 C130 1.249 . S
O145 U126 2.420 1_556 S
O145 C130 1.202 . S
O146 U126 2.455 . S
O146 C143 1.301 . S
O147 U126 2.449 . S
O147 C143 1.282 . S
H148 C121 0.931 . S
H149 C123 0.929 . S
H150 C124 0.930 . S
H151 C125 0.931 . S
H152 C132 0.932 . S
H153 C133 0.930 . S
H154 C134 0.929 . S
H155 C136 0.930 . S
H156 C138 0.932 . S
H157 C139 0.929 . S
H158 C140 0.928 . S
H159 C142 0.932 . S
C160 C161 1.264 . S
C160 C165 1.479 . S
C160 C170 1.465 . S
C161 C160 1.264 . S
C161 C163 1.339 . S
C161 H188 0.931 . S
C162 C163 1.395 . S
C162 C164 1.320 . S
C163 C161 1.339 . S
C163 C162 1.395 . S
C163 H189 0.929 . S
C164 C162 1.320 . S
C164 C165 1.405 . S
C164 H190 0.930 . S
C165 C160 1.479 . S
C165 C164 1.405 . S
C165 H191 0.931 . S
U166 O167 2.454 . S
U166 O168 2.458 . S
U166 C169 2.984 . S
U166 C170 2.847 . S
U166 C183 2.882 . S
U166 O184 2.441 . S
U166 O185 2.420 . S
U166 O186 2.455 . S
U166 O187 2.449 . S
O167 U166 2.454 . S
O167 C169 1.353 . S
O168 U166 2.458 . S
O168 C169 1.286 . S
C169 U166 2.984 . S
C169 O167 1.353 . S
C169 O168 1.286 . S
C169 C171 1.363 . S
C170 C160 1.465 . S
C170 U166 2.847 . S
C170 O184 1.249 . S
C170 O185 1.202 . S
C171 C169 1.363 . S
C171 C173 1.408 . S
C171 C176 1.342 . S
C172 C173 1.310 . S
C172 C175 1.461 . S
C172 H192 0.932 . S
C173 C171 1.408 . S
C173 C172 1.310 . S
C173 H193 0.930 . S
C174 C175 1.474 . S
C174 C176 1.285 . S
C174 H194 0.929 . S
C175 C172 1.461 . S
C175 C174 1.474 . S
C176 C171 1.342 . S
C176 C174 1.285 . S
C176 H195 0.930 . S
C177 C180 1.424 . S
C177 C182 1.245 . S
C177 C183 1.428 . S
C178 C181 1.260 . S
C178 C182 1.477 . S
C178 H196 0.932 . S
C179 C180 1.384 . S
C179 C181 1.479 . S
C179 H197 0.929 . S
C180 C177 1.424 . S
C180 C179 1.384 . S
C180 H198 0.928 . S
C181 C178 1.260 . S
C181 C179 1.479 . S
C182 C177 1.245 . S
C182 C178 1.477 . S
C182 H199 0.932 . S
C183 U166 2.882 . S
C183 C177 1.428 . S
C183 O186 1.301 . S
C183 O187 1.282 . S
O184 U166 2.441 . S
O184 C170 1.249 . S
O185 U166 2.420 . S
O185 C170 1.202 . S
O186 U166 2.455 . S
O186 C183 1.301 . S
O187 U166 2.449 . S
O187 C183 1.282 . S
H188 C161 0.931 . S
H189 C163 0.929 . S
H190 C164 0.930 . S
H191 C165 0.931 . S
H192 C172 0.932 . S
H193 C173 0.930 . S
H194 C174 0.929 . S
H195 C176 0.930 . S
H196 C178 0.932 . S
H197 C179 0.929 . S
H198 C180 0.928 . S
H199 C182 0.932 . S
C200 C201 1.264 . S
C200 C205 1.479 . S
C200 C210 1.465 . S
C201 C200 1.264 . S
C201 C203 1.339 . S
C201 H228 0.931 . S
C202 C203 1.395 . S
C202 C204 1.320 . S
C203 C201 1.339 . S
C203 C202 1.395 . S
C203 H229 0.929 . S
C204 C202 1.320 . S
C204 C205 1.405 . S
C204 H230 0.930 . S
C205 C200 1.479 . S
C205 C204 1.405 . S
C205 H231 0.931 . S
U206 O207 2.454 . S
U206 O208 2.458 . S
U206 C209 2.984 . S
U206 C210 2.847 . S
U206 C223 2.882 . S
U206 O224 2.441 . S
U206 O225 2.420 . S
U206 O226 2.455 . S
U206 O227 2.449 . S
O207 U206 2.454 . S
O207 C209 1.353 . S
O208 U206 2.458 . S
O208 C209 1.286 . S
C209 U206 2.984 . S
C209 O207 1.353 . S
C209 O208 1.286 . S
C209 C211 1.363 . S
C210 C200 1.465 . S
C210 U206 2.847 . S
C210 O224 1.249 . S
C210 O225 1.202 . S
C211 C209 1.363 . S
C211 C213 1.408 . S
C211 C216 1.342 . S
C212 C213 1.310 . S
C212 C215 1.461 . S
C212 H232 0.932 . S
C213 C211 1.408 . S
C213 C212 1.310 . S
C213 H233 0.930 . S
C214 C215 1.474 . S
C214 C216 1.285 . S
C214 H234 0.929 . S
C215 C212 1.461 . S
C215 C214 1.474 . S
C216 C211 1.342 . S
C216 C214 1.285 . S
C216 H235 0.930 . S
C217 C220 1.424 . S
C217 C222 1.245 . S
C217 C223 1.428 . S
C218 C221 1.260 . S
C218 C222 1.477 . S
C218 H236 0.932 . S
C219 C220 1.384 . S
C219 C221 1.479 . S
C219 H237 0.929 . S
C220 C217 1.424 . S
C220 C219 1.384 . S
C220 H238 0.928 . S
C221 C218 1.260 . S
C221 C219 1.479 . S
C222 C217 1.245 . S
C222 C218 1.477 . S
C222 H239 0.932 . S
C223 U206 2.882 . S
C223 C217 1.428 . S
C223 O226 1.301 . S
C223 O227 1.282 . S
O224 U206 2.441 . S
O224 C210 1.249 . S
O225 U206 2.420 . S
O225 C210 1.202 . S
O226 U206 2.455 . S
O226 C223 1.301 . S
O227 U206 2.449 . S
O227 C223 1.282 . S
H228 C201 0.931 . S
H229 C203 0.929 . S
H230 C204 0.930 . S
H231 C205 0.931 . S
H232 C212 0.932 . S
H233 C213 0.930 . S
H234 C214 0.929 . S
H235 C216 0.930 . S
H236 C218 0.932 . S
H237 C219 0.929 . S
H238 C220 0.928 . S
H239 C222 0.932 . S
H240 C258 0.951 . S
H241 C260 0.951 . S
H242 C262 0.950 . S
H243 C263 0.950 . S
H244 C265 0.950 . S
H245 C268 0.950 . S
H246 C269 0.950 . S
H247 C271 0.950 . S
H248 C272 0.950 . S
H249 C273 0.951 . S
H250 C275 0.951 . S
H251 C277 0.950 . S
H252 C278 0.950 . S
H253 C280 0.951 . S
H254 C283 0.950 . S
H255 C284 0.950 . S
H256 C286 0.950 . S
H257 C287 0.950 . S
C258 H240 0.951 . S
C258 C259 1.366 1_556 S
C258 C260 1.388 . S
C259 C258 1.366 1_554 S
C259 C263 1.385 . S
C260 H241 0.951 . S
C260 C258 1.388 . S
C260 C261 1.366 1_556 S
C261 C260 1.366 1_554 S
C261 C262 1.414 . S
C261 C264 1.499 . S
C262 H242 0.950 . S
C262 C261 1.414 . S
C262 C263 1.374 . S
C263 H243 0.950 . S
C263 C259 1.385 . S
C263 C262 1.374 . S
C264 C261 1.499 . S
C264 C265 1.373 . S
C264 C266 1.389 . S
C265 H244 0.950 . S
C265 C264 1.373 . S
C265 C281 1.377 1_565 S
C266 C264 1.389 . S
C266 C267 1.524 1_554 S
C266 C280 1.376 1_564 S
C267 C266 1.524 1_556 S
C267 C268 1.397 1_556 S
C267 C272 1.363 . S
C268 H245 0.950 . S
C268 C267 1.397 1_554 S
C268 C269 1.334 . S
C269 H246 0.950 . S
C269 C268 1.334 . S
C269 C270 1.287 . S
C270 C269 1.287 . S
C270 C271 1.524 1_554 S
C270 H289 0.914 . S
C271 H247 0.950 . S
C271 C270 1.524 1_556 S
C271 C272 1.415 . S
C272 H248 0.950 . S
C272 C267 1.363 . S
C272 C271 1.415 . S
C273 H249 0.951 . S
C273 C274 1.366 . S
C273 C275 1.388 . S
C274 C273 1.366 . S
C274 C278 1.385 1_554 S
C275 H250 0.951 . S
C275 C273 1.388 . S
C275 C276 1.366 . S
C276 C275 1.366 . S
C276 C277 1.414 1_554 S
C276 C279 1.499 . S
C277 H251 0.950 . S
C277 C276 1.414 1_556 S
C277 C278 1.374 . S
C278 H252 0.950 . S
C278 C274 1.385 1_556 S
C278 C277 1.374 . S
C279 C276 1.499 . S
C279 C280 1.373 1_554 S
C279 C281 1.389 . S
C280 H253 0.951 . S
C280 C266 1.376 1_546 S
C280 C279 1.373 1_556 S
C281 C265 1.377 1_545 S
C281 C279 1.389 . S
C281 C282 1.524 . S
C282 C281 1.524 . S
C282 C283 1.397 1_554 S
C282 C287 1.363 . S
C283 H254 0.950 . S
C283 C282 1.397 1_556 S
C283 C284 1.334 . S
C284 H255 0.950 . S
C284 C283 1.334 . S
C284 C285 1.287 1_556 S
C285 C284 1.287 1_554 S
C285 C286 1.524 . S
C285 H288 0.999 . S
C286 H256 0.950 . S
C286 C285 1.524 . S
C286 C287 1.415 . S
C287 H257 0.950 . S
C287 C282 1.363 . S
C287 C286 1.415 . S
H288 C285 0.999 . S
H289 C270 0.914 . S
H290 C308 0.951 . S
H291 C310 0.951 . S
H292 C312 0.950 . S
H293 C313 0.950 . S
H294 C315 0.950 . S
H295 C318 0.950 . S
H296 C319 0.950 . S
H297 C321 0.950 . S
H298 C322 0.950 . S
H299 C323 0.951 . S
H300 C325 0.951 . S
H301 C327 0.950 . S
H302 C328 0.950 . S
H303 C330 0.950 . S
H304 C333 0.950 . S
H305 C334 0.950 . S
H306 C336 0.950 . S
H307 C337 0.950 . S
C308 H290 0.951 . S
C308 C309 1.366 . S
C308 C310 1.388 . S
C309 C308 1.366 . S
C309 C313 1.385 . S
C310 H291 0.951 . S
C310 C308 1.388 . S
C310 C311 1.366 . S
C311 C310 1.366 . S
C311 C312 1.414 . S
C311 C314 1.499 . S
C312 H292 0.950 . S
C312 C311 1.414 . S
C312 C313 1.374 . S
C313 H293 0.950 . S
C313 C309 1.385 . S
C313 C312 1.374 . S
C314 C311 1.499 . S
C314 C315 1.373 . S
C314 C316 1.389 . S
C315 H294 0.950 . S
C315 C314 1.373 . S
C315 C331 1.377 . S
C316 C314 1.389 . S
C316 C317 1.524 . S
C316 C330 1.377 . S
C317 C316 1.524 . S
C317 C318 1.397 . S
C317 C322 1.363 . S
C318 H295 0.950 . S
C318 C317 1.397 . S
C318 C319 1.334 . S
C319 H296 0.950 . S
C319 C318 1.334 . S
C319 C320 1.287 . S
C320 C319 1.287 . S
C320 C321 1.524 . S
C320 H339 0.913 . S
C321 H297 0.950 . S
C321 C320 1.524 . S
C321 C322 1.415 . S
C322 H298 0.950 . S
C322 C317 1.363 . S
C322 C321 1.415 . S
C323 H299 0.951 . S
C323 C324 1.366 . S
C323 C325 1.388 . S
C324 C323 1.366 . S
C324 C328 1.385 . S
C325 H300 0.951 . S
C325 C323 1.388 . S
C325 C326 1.366 . S
C326 C325 1.366 . S
C326 C327 1.414 . S
C326 C329 1.499 . S
C327 H301 0.950 . S
C327 C326 1.414 . S
C327 C328 1.374 . S
C328 H302 0.950 . S
C328 C324 1.385 . S
C328 C327 1.374 . S
C329 C326 1.499 . S
C329 C330 1.373 . S
C329 C331 1.389 . S
C330 H303 0.950 . S
C330 C316 1.377 . S
C330 C329 1.373 . S
C331 C315 1.377 . S
C331 C329 1.389 . S
C331 C332 1.524 . S
C332 C331 1.524 . S
C332 C333 1.397 . S
C332 C337 1.363 . S
C333 H304 0.950 . S
C333 C332 1.397 . S
C333 C334 1.334 . S
C334 H305 0.950 . S
C334 C333 1.334 . S
C334 C335 1.287 . S
C335 C334 1.287 . S
C335 C336 1.524 . S
C335 H338 0.999 . S
C336 H306 0.950 . S
C336 C335 1.524 . S
C336 C337 1.415 . S
C337 H307 0.950 . S
C337 C332 1.363 . S
C337 C336 1.415 . S
H338 C335 0.999 . S
H339 C320 0.913 . S
H340 C358 0.951 . S
H341 C360 0.951 . S
H342 C362 0.950 . S
H343 C363 0.950 . S
H344 C365 0.950 . S
H345 C368 0.950 . S
H346 C369 0.950 . S
H347 C371 0.950 . S
H348 C372 0.950 . S
H349 C373 0.951 . S
H350 C375 0.951 . S
H351 C377 0.950 . S
H352 C378 0.950 . S
H353 C380 0.950 . S
H354 C383 0.950 . S
H355 C384 0.950 . S
H356 C386 0.950 . S
H357 C387 0.950 . S
C358 H340 0.951 . S
C358 C359 1.366 . S
C358 C360 1.388 . S
C359 C358 1.366 . S
C359 C363 1.385 . S
C360 H341 0.951 . S
C360 C358 1.388 . S
C360 C361 1.366 . S
C361 C360 1.366 . S
C361 C362 1.414 . S
C361 C364 1.499 . S
C362 H342 0.950 . S
C362 C361 1.414 . S
C362 C363 1.374 . S
C363 H343 0.950 . S
C363 C359 1.385 . S
C363 C362 1.374 . S
C364 C361 1.499 . S
C364 C365 1.373 . S
C364 C366 1.389 . S
C365 H344 0.950 . S
C365 C364 1.373 . S
C365 C381 1.377 1_455 S
C366 C364 1.389 . S
C366 C367 1.524 . S
C366 C380 1.377 1_455 S
C367 C366 1.524 . S
C367 C368 1.397 . S
C367 C372 1.363 . S
C368 H345 0.950 . S
C368 C367 1.397 . S
C368 C369 1.334 . S
C369 H346 0.950 . S
C369 C368 1.334 . S
C369 C370 1.287 . S
C370 C369 1.287 . S
C370 C371 1.524 . S
C370 H389 0.913 . S
C371 H347 0.950 . S
C371 C370 1.524 . S
C371 C372 1.415 . S
C372 H348 0.950 . S
C372 C367 1.363 . S
C372 C371 1.415 . S
C373 H349 0.951 . S
C373 C374 1.366 . S
C373 C375 1.388 . S
C374 C373 1.366 . S
C374 C378 1.385 . S
C375 H350 0.951 . S
C375 C373 1.388 . S
C375 C376 1.366 . S
C376 C375 1.366 . S
C376 C377 1.414 . S
C376 C379 1.499 . S
C377 H351 0.950 . S
C377 C376 1.414 . S
C377 C378 1.374 . S
C378 H352 0.950 . S
C378 C374 1.385 . S
C378 C377 1.374 . S
C379 C376 1.499 . S
C379 C380 1.373 . S
C379 C381 1.389 . S
C380 H353 0.950 . S
C380 C366 1.377 1_655 S
C380 C379 1.373 . S
C381 C365 1.377 1_655 S
C381 C379 1.389 . S
C381 C382 1.524 . S
C382 C381 1.524 . S
C382 C383 1.397 . S
C382 C387 1.363 . S
C383 H354 0.950 . S
C383 C382 1.397 . S
C383 C384 1.334 . S
C384 H355 0.950 . S
C384 C383 1.334 . S
C384 C385 1.287 . S
C385 C384 1.287 . S
C385 C386 1.524 . S
C385 H388 0.999 . S
C386 H356 0.950 . S
C386 C385 1.524 . S
C386 C387 1.415 . S
C387 H357 0.950 . S
C387 C382 1.363 . S
C387 C386 1.415 . S
H388 C385 0.999 . S
H389 C370 0.913 . S
H390 C408 0.951 . S
H391 C410 0.951 . S
H392 C412 0.950 . S
H393 C413 0.950 . S
H394 C415 0.950 . S
H395 C418 0.950 . S
H396 C419 0.950 . S
H397 C421 0.950 . S
H398 C422 0.950 . S
H399 C423 0.951 . S
H400 C425 0.951 . S
H401 C427 0.950 . S
H402 C428 0.950 . S
H403 C430 0.950 . S
H404 C433 0.950 . S
H405 C434 0.950 . S
H406 C436 0.950 . S
H407 C437 0.950 . S
C408 H390 0.951 . S
C408 C409 1.366 . S
C408 C410 1.388 . S
C409 C408 1.366 . S
C409 C413 1.385 . S
C410 H391 0.951 . S
C410 C408 1.388 . S
C410 C411 1.366 . S
C411 C410 1.366 . S
C411 C412 1.414 . S
C411 C414 1.499 . S
C412 H392 0.950 . S
C412 C411 1.414 . S
C412 C413 1.374 . S
C413 H393 0.950 . S
C413 C409 1.385 . S
C413 C412 1.374 . S
C414 C411 1.499 . S
C414 C415 1.373 . S
C414 C416 1.389 . S
C415 H394 0.950 . S
C415 C414 1.373 . S
C415 C431 1.377 . S
C416 C414 1.389 . S
C416 C417 1.524 . S
C416 C430 1.377 . S
C417 C416 1.524 . S
C417 C418 1.397 . S
C417 C422 1.363 . S
C418 H395 0.950 . S
C418 C417 1.397 . S
C418 C419 1.334 . S
C419 H396 0.950 . S
C419 C418 1.334 . S
C419 C420 1.287 . S
C420 C419 1.287 . S
C420 C421 1.524 . S
C420 H439 0.913 . S
C421 H397 0.950 . S
C421 C420 1.524 . S
C421 C422 1.415 . S
C422 H398 0.950 . S
C422 C417 1.363 . S
C422 C421 1.415 . S
C423 H399 0.951 . S
C423 C424 1.366 . S
C423 C425 1.388 . S
C424 C423 1.366 . S
C424 C428 1.385 . S
C425 H400 0.951 . S
C425 C423 1.388 . S
C425 C426 1.366 . S
C426 C425 1.366 . S
C426 C427 1.414 . S
C426 C429 1.499 . S
C427 H401 0.950 . S
C427 C426 1.414 . S
C427 C428 1.374 . S
C428 H402 0.950 . S
C428 C424 1.385 . S
C428 C427 1.374 . S
C429 C426 1.499 . S
C429 C430 1.373 . S
C429 C431 1.389 . S
C430 H403 0.950 . S
C430 C416 1.377 . S
C430 C429 1.373 . S
C431 C415 1.377 . S
C431 C429 1.389 . S
C431 C432 1.524 . S
C432 C431 1.524 . S
C432 C433 1.397 . S
C432 C437 1.363 . S
C433 H404 0.950 . S
C433 C432 1.397 . S
C433 C434 1.334 . S
C434 H405 0.950 . S
C434 C433 1.334 . S
C434 C435 1.287 . S
C435 C434 1.287 . S
C435 C436 1.524 . S
C435 H438 0.999 . S
C436 H406 0.950 . S
C436 C435 1.524 . S
C436 C437 1.415 . S
C437 H407 0.950 . S
C437 C432 1.363 . S
C437 C436 1.415 . S
H438 C435 0.999 . S
H439 C420 0.913 . S
H440 C458 0.951 . S
H441 C460 0.951 . S
H442 C462 0.950 . S
H443 C463 0.950 . S
H444 C465 0.950 . S
H445 C468 0.950 . S
H446 C469 0.950 . S
H447 C471 0.950 . S
H448 C472 0.950 . S
H449 C473 0.951 . S
H450 C475 0.951 . S
H451 C477 0.950 . S
H452 C478 0.950 . S
H453 C480 0.950 . S
H454 C483 0.950 . S
H455 C484 0.950 . S
H456 C486 0.950 . S
H457 C487 0.950 . S
C458 H440 0.951 . S
C458 C459 1.366 . S
C458 C460 1.388 . S
C459 C458 1.366 . S
C459 C463 1.385 . S
C460 H441 0.951 . S
C460 C458 1.388 . S
C460 C461 1.366 . S
C461 C460 1.366 . S
C461 C462 1.414 . S
C461 C464 1.499 . S
C462 H442 0.950 . S
C462 C461 1.414 . S
C462 C463 1.374 . S
C463 H443 0.950 . S
C463 C459 1.385 . S
C463 C462 1.374 . S
C464 C461 1.499 . S
C464 C465 1.373 . S
C464 C466 1.389 . S
C465 H444 0.950 . S
C465 C464 1.373 . S
C465 C481 1.377 . S
C466 C464 1.389 . S
C466 C467 1.524 . S
C466 C480 1.377 . S
C467 C466 1.524 . S
C467 C468 1.397 . S
C467 C472 1.363 . S
C468 H445 0.950 . S
C468 C467 1.397 . S
C468 C469 1.334 . S
C469 H446 0.950 . S
C469 C468 1.334 . S
C469 C470 1.287 . S
C470 C469 1.287 . S
C470 C471 1.524 . S
C470 H489 0.913 . S
C471 H447 0.950 . S
C471 C470 1.524 . S
C471 C472 1.415 . S
C472 H448 0.950 . S
C472 C467 1.363 . S
C472 C471 1.415 . S
C473 H449 0.951 . S
C473 C474 1.366 . S
C473 C475 1.388 . S
C474 C473 1.366 . S
C474 C478 1.385 . S
C475 H450 0.951 . S
C475 C473 1.388 . S
C475 C476 1.366 . S
C476 C475 1.366 . S
C476 C477 1.414 . S
C476 C479 1.499 . S
C477 H451 0.950 . S
C477 C476 1.414 . S
C477 C478 1.374 . S
C478 H452 0.950 . S
C478 C474 1.385 . S
C478 C477 1.374 . S
C479 C476 1.499 . S
C479 C480 1.373 . S
C479 C481 1.389 . S
C480 H453 0.950 . S
C480 C466 1.377 . S
C480 C479 1.373 . S
C481 C465 1.377 . S
C481 C479 1.389 . S
C481 C482 1.524 . S
C482 C481 1.524 . S
C482 C483 1.397 . S
C482 C487 1.363 . S
C483 H454 0.950 . S
C483 C482 1.397 . S
C483 C484 1.334 . S
C484 H455 0.950 . S
C484 C483 1.334 . S
C484 C485 1.287 . S
C485 C484 1.287 . S
C485 C486 1.524 . S
C485 H488 0.999 . S
C486 H456 0.950 . S
C486 C485 1.524 . S
C486 C487 1.415 . S
C487 H457 0.950 . S
C487 C482 1.363 . S
C487 C486 1.415 . S
H488 C485 0.999 . S
H489 C470 0.913 . S
H490 C508 0.951 . S
H491 C510 0.951 . S
H492 C512 0.950 . S
H493 C513 0.950 . S
H494 C515 0.950 . S
H495 C518 0.950 . S
H496 C519 0.950 . S
H497 C521 0.950 . S
H498 C522 0.950 . S
H499 C523 0.951 . S
H500 C525 0.951 . S
H501 C527 0.950 . S
H502 C528 0.950 . S
H503 C530 0.950 . S
H504 C533 0.950 . S
H505 C534 0.950 . S
H506 C536 0.950 . S
H507 C537 0.950 . S
C508 H490 0.951 . S
C508 C509 1.366 . S
C508 C510 1.388 . S
C509 C508 1.366 . S
C509 C513 1.385 . S
C510 H491 0.951 . S
C510 C508 1.388 . S
C510 C511 1.366 . S
C511 C510 1.366 . S
C511 C512 1.414 . S
C511 C514 1.499 . S
C512 H492 0.950 . S
C512 C511 1.414 . S
C512 C513 1.374 . S
C513 H493 0.950 . S
C513 C509 1.385 . S
C513 C512 1.374 . S
C514 C511 1.499 . S
C514 C515 1.373 . S
C514 C516 1.389 . S
C515 H494 0.950 . S
C515 C514 1.373 . S
C515 C531 1.377 . S
C516 C514 1.389 . S
C516 C517 1.524 . S
C516 C530 1.377 1_554 S
C517 C516 1.524 . S
C517 C518 1.397 . S
C517 C522 1.363 1_554 S
C518 H495 0.950 . S
C518 C517 1.397 . S
C518 C519 1.334 . S
C519 H496 0.950 . S
C519 C518 1.334 . S
C519 C520 1.287 . S
C520 C519 1.287 . S
C520 C521 1.524 1_554 S
C520 H539 0.913 . S
C521 H497 0.950 . S
C521 C520 1.524 1_556 S
C521 C522 1.415 . S
C522 H498 0.950 . S
C522 C517 1.363 1_556 S
C522 C521 1.415 . S
C523 H499 0.951 . S
C523 C524 1.366 . S
C523 C525 1.388 . S
C524 C523 1.366 . S
C524 C528 1.385 . S
C525 H500 0.951 . S
C525 C523 1.388 . S
C525 C526 1.366 . S
C526 C525 1.366 . S
C526 C527 1.414 . S
C526 C529 1.499 . S
C527 H501 0.950 . S
C527 C526 1.414 . S
C527 C528 1.374 . S
C528 H502 0.950 . S
C528 C524 1.385 . S
C528 C527 1.374 . S
C529 C526 1.499 . S
C529 C530 1.373 . S
C529 C531 1.389 1_556 S
C530 H503 0.950 . S
C530 C516 1.377 1_556 S
C530 C529 1.373 . S
C531 C515 1.377 . S
C531 C529 1.389 1_554 S
C531 C532 1.525 . S
C532 C531 1.525 . S
C532 C533 1.381 1_554 S
C532 C537 1.379 . S
C533 H504 0.950 . S
C533 C532 1.381 1_556 S
C533 C534 1.334 . S
C534 H505 0.950 . S
C534 C533 1.334 . S
C534 C535 1.287 . S
C535 C534 1.287 . S
C535 C536 1.524 1_556 S
C535 H538 0.999 . S
C536 H506 0.950 . S
C536 C535 1.524 1_554 S
C536 C537 1.415 . S
C537 H507 0.950 . S
C537 C532 1.379 . S
C537 C536 1.415 . S
H538 C535 0.999 . S
H539 C520 0.913 . S
H540 C558 0.951 . S
H541 C560 0.951 . S
H542 C562 0.950 . S
H543 C563 0.950 . S
H544 C565 0.950 . S
H545 C568 0.950 . S
H546 C569 0.950 . S
H547 C571 0.950 . S
H548 C572 0.950 . S
H549 C573 0.951 . S
H550 C575 0.951 . S
H551 C577 0.950 . S
H552 C578 0.950 . S
H553 C580 0.950 . S
H554 C583 0.950 . S
H555 C584 0.950 . S
H556 C586 0.950 . S
H557 C587 0.950 . S
C558 H540 0.951 . S
C558 C559 1.366 . S
C558 C560 1.388 . S
C559 C558 1.366 . S
C559 C563 1.385 . S
C560 H541 0.951 . S
C560 C558 1.388 . S
C560 C561 1.366 . S
C561 C560 1.366 . S
C561 C562 1.414 . S
C561 C564 1.499 . S
C562 H542 0.950 . S
C562 C561 1.414 . S
C562 C563 1.374 . S
C563 H543 0.950 . S
C563 C559 1.385 . S
C563 C562 1.374 . S
C564 C561 1.499 . S
C564 C565 1.373 . S
C564 C566 1.389 . S
C565 H544 0.950 . S
C565 C564 1.373 . S
C565 C581 1.377 . S
C566 C564 1.389 . S
C566 C567 1.524 . S
C566 C580 1.377 . S
C567 C566 1.524 . S
C567 C568 1.397 . S
C567 C572 1.363 . S
C568 H545 0.950 . S
C568 C567 1.397 . S
C568 C569 1.334 . S
C569 H546 0.950 . S
C569 C568 1.334 . S
C569 C570 1.287 . S
C570 C569 1.287 . S
C570 C571 1.524 . S
C570 H589 0.913 . S
C571 H547 0.950 . S
C571 C570 1.524 . S
C571 C572 1.415 . S
C572 H548 0.950 . S
C572 C567 1.363 . S
C572 C571 1.415 . S
C573 H549 0.951 . S
C573 C574 1.366 . S
C573 C575 1.388 . S
C574 C573 1.366 . S
C574 C578 1.385 . S
C575 H550 0.951 . S
C575 C573 1.388 . S
C575 C576 1.366 . S
C576 C575 1.366 . S
C576 C577 1.414 . S
C576 C579 1.499 . S
C577 H551 0.950 . S
C577 C576 1.414 . S
C577 C578 1.374 . S
C578 H552 0.950 . S
C578 C574 1.385 . S
C578 C577 1.374 . S
C579 C576 1.499 . S
C579 C580 1.373 . S
C579 C581 1.389 . S
C580 H553 0.950 . S
C580 C566 1.377 . S
C580 C579 1.373 . S
C581 C565 1.377 . S
C581 C579 1.389 . S
C581 C582 1.524 . S
C582 C581 1.524 . S
C582 C583 1.397 . S
C582 C587 1.363 . S
C583 H554 0.950 . S
C583 C582 1.397 . S
C583 C584 1.334 . S
C584 H555 0.950 . S
C584 C583 1.334 . S
C584 C585 1.287 . S
C585 C584 1.287 . S
C585 C586 1.524 . S
C585 H588 0.999 . S
C586 H556 0.950 . S
C586 C585 1.524 . S
C586 C587 1.415 . S
C587 H557 0.950 . S
C587 C582 1.363 . S
C587 C586 1.415 . S
H588 C585 0.999 . S
H589 C570 0.913 . S
H590 C608 0.951 . S
H591 C610 0.951 . S
H592 C612 0.950 . S
H593 C613 0.950 . S
H594 C615 0.950 . S
H595 C618 0.950 . S
H596 C619 0.950 . S
H597 C621 0.950 . S
H598 C622 0.950 . S
H599 C623 0.951 . S
H600 C625 0.951 . S
H601 C627 0.950 . S
H602 C628 0.950 . S
H603 C630 0.950 . S
H604 C633 0.950 . S
H605 C634 0.950 . S
H606 C636 0.950 . S
H607 C637 0.950 . S
C608 H590 0.951 . S
C608 C609 1.366 . S
C608 C610 1.388 . S
C609 C608 1.366 . S
C609 C613 1.385 . S
C610 H591 0.951 . S
C610 C608 1.388 . S
C610 C611 1.366 . S
C611 C610 1.366 . S
C611 C612 1.414 . S
C611 C614 1.499 . S
C612 H592 0.950 . S
C612 C611 1.414 . S
C612 C613 1.374 . S
C613 H593 0.950 . S
C613 C609 1.385 . S
C613 C612 1.374 . S
C614 C611 1.499 . S
C614 C615 1.373 . S
C614 C616 1.389 . S
C615 H594 0.950 . S
C615 C614 1.373 . S
C615 C631 1.377 . S
C616 C614 1.389 . S
C616 C617 1.524 . S
C616 C630 1.377 . S
C617 C616 1.524 . S
C617 C618 1.397 . S
C617 C622 1.363 . S
C618 H595 0.950 . S
C618 C617 1.397 . S
C618 C619 1.334 . S
C619 H596 0.950 . S
C619 C618 1.334 . S
C619 C620 1.287 . S
C620 C619 1.287 . S
C620 C621 1.524 . S
C620 H639 0.913 . S
C621 H597 0.950 . S
C621 C620 1.524 . S
C621 C622 1.415 . S
C622 H598 0.950 . S
C622 C617 1.363 . S
C622 C621 1.415 . S
C623 H599 0.951 . S
C623 C624 1.366 . S
C623 C625 1.388 . S
C624 C623 1.366 . S
C624 C628 1.385 . S
C625 H600 0.951 . S
C625 C623 1.388 . S
C625 C626 1.366 . S
C626 C625 1.366 . S
C626 C627 1.414 . S
C626 C629 1.499 . S
C627 H601 0.950 . S
C627 C626 1.414 . S
C627 C628 1.374 . S
C628 H602 0.950 . S
C628 C624 1.385 . S
C628 C627 1.374 . S
C629 C626 1.499 . S
C629 C630 1.373 . S
C629 C631 1.389 . S
C630 H603 0.950 . S
C630 C616 1.377 . S
C630 C629 1.373 . S
C631 C615 1.377 . S
C631 C629 1.389 . S
C631 C632 1.524 . S
C632 C631 1.524 . S
C632 C633 1.397 . S
C632 C637 1.363 . S
C633 H604 0.950 . S
C633 C632 1.397 . S
C633 C634 1.334 . S
C634 H605 0.950 . S
C634 C633 1.334 . S
C634 C635 1.287 . S
C635 C634 1.287 . S
C635 C636 1.524 . S
C635 H638 0.999 . S
C636 H606 0.950 . S
C636 C635 1.524 . S
C636 C637 1.415 . S
C637 H607 0.950 . S
C637 C632 1.363 . S
C637 C636 1.415 . S
H638 C635 0.999 . S
H639 C620 0.913 . S
H640 C658 0.951 . S
H641 C660 0.951 . S
H642 C662 0.950 . S
H643 C663 0.950 . S
H644 C665 0.950 . S
H645 C668 0.950 . S
H646 C669 0.950 . S
H647 C671 0.950 . S
H648 C672 0.950 . S
H649 C673 0.951 . S
H650 C675 0.951 . S
H651 C677 0.950 . S
H652 C678 0.950 . S
H653 C680 0.950 . S
H654 C683 0.950 . S
H655 C684 0.950 . S
H656 C686 0.950 . S
H657 C687 0.950 . S
C658 H640 0.951 . S
C658 C659 1.366 . S
C658 C660 1.388 . S
C659 C658 1.366 . S
C659 C663 1.385 . S
C660 H641 0.951 . S
C660 C658 1.388 . S
C660 C661 1.366 . S
C661 C660 1.366 . S
C661 C662 1.414 . S
C661 C664 1.499 . S
C662 H642 0.950 . S
C662 C661 1.414 . S
C662 C663 1.374 . S
C663 H643 0.950 . S
C663 C659 1.385 . S
C663 C662 1.374 . S
C664 C661 1.499 . S
C664 C665 1.373 . S
C664 C666 1.389 1_556 S
C665 H644 0.950 . S
C665 C664 1.373 . S
C665 C681 1.377 1_556 S
C666 C664 1.389 1_554 S
C666 C667 1.524 . S
C666 C680 1.377 . S
C667 C666 1.524 . S
C667 C668 1.397 . S
C667 C672 1.363 . S
C668 H645 0.950 . S
C668 C667 1.397 . S
C668 C669 1.334 . S
C669 H646 0.950 . S
C669 C668 1.334 . S
C669 C670 1.287 . S
C670 C669 1.287 . S
C670 C671 1.524 . S
C670 H689 0.913 . S
C671 H647 0.950 . S
C671 C670 1.524 . S
C671 C672 1.415 . S
C672 H648 0.950 . S
C672 C667 1.363 . S
C672 C671 1.415 . S
C673 H649 0.951 . S
C673 C674 1.366 . S
C673 C675 1.388 . S
C674 C673 1.366 . S
C674 C678 1.385 . S
C675 H650 0.951 . S
C675 C673 1.388 . S
C675 C676 1.366 . S
C676 C675 1.366 . S
C676 C677 1.414 . S
C676 C679 1.499 . S
C677 H651 0.950 . S
C677 C676 1.414 . S
C677 C678 1.374 . S
C678 H652 0.950 . S
C678 C674 1.385 . S
C678 C677 1.374 . S
C679 C676 1.499 . S
C679 C680 1.373 . S
C679 C681 1.389 . S
C680 H653 0.950 . S
C680 C666 1.377 . S
C680 C679 1.373 . S
C681 C665 1.377 1_554 S
C681 C679 1.389 . S
C681 C682 1.524 1_554 S
C682 C681 1.524 1_556 S
C682 C683 1.397 1_556 S
C682 C687 1.363 . S
C683 H654 0.950 . S
C683 C682 1.397 1_554 S
C683 C684 1.334 . S
C684 H655 0.950 . S
C684 C683 1.334 . S
C684 C685 1.287 1_554 S
C685 C684 1.287 1_556 S
C685 C686 1.524 . S
C685 H688 0.999 . S
C686 H656 0.950 . S
C686 C685 1.524 . S
C686 C687 1.415 . S
C687 H657 0.950 . S
C687 C682 1.363 . S
C687 C686 1.415 . S
H688 C685 0.999 . S
H689 C670 0.913 . S
C259 C15 1.500 . S
C274 C135 1.500 . S
C309 C175 1.500 . S
C324 C55 1.500 . S
C359 C95 1.504 . S
C374 C215 1.504 . S
C409 C2 1.488 . S
C424 C82 1.490 . S
C459 C42 1.486 . S
C474 C122 1.488 . S
C509 C162 1.487 . S
C524 C101 1.491 . S
C559 C202 1.493 . S
C574 C141 1.492 . S
C609 C181 1.487 . S
C624 C21 1.489 . S
C659 C221 1.495 . S
C674 C61 1.490 . S
