# Generated by pormake.
# Topology whw, (6)-cn, num edge types: 1
# Building blocks:
#     Node 0, Type 0, BuildingBlock: UKALOJ_clean_sbu_0, # of connection points: 6
#     Node 1, Type 0, BuildingBlock: UKALOJ_clean_sbu_0, # of connection points: 6
#     Node 2, Type 0, BuildingBlock: UKALOJ_clean_sbu_0, # of connection points: 6
#     Node 3, Type 0, BuildingBlock: UKALOJ_clean_sbu_0, # of connection points: 6
#     Node 4, Type 0, BuildingBlock: UKALOJ_clean_sbu_0, # of connection points: 6
#     Node 5, Type 0, BuildingBlock: UKALOJ_clean_sbu_0, # of connection points: 6
#     Node 6, Type 0, BuildingBlock: UKALOJ_clean_sbu_0, # of connection points: 6
#     Node 7, Type 0, BuildingBlock: UKALOJ_clean_sbu_0, # of connection points: 6
#     Node 8, Type 0, BuildingBlock: UKALOJ_clean_sbu_0, # of connection points: 6
#     Node 9, Type 0, BuildingBlock: UKALOJ_clean_sbu_0, # of connection points: 6
#     Node 10, Type 0, BuildingBlock: UKALOJ_clean_sbu_0, # of connection points: 6
#     Node 11, Type 0, BuildingBlock: UKALOJ_clean_sbu_0, # of connection points: 6
#     Node 12, Type 0, BuildingBlock: UKALOJ_clean_sbu_0, # of connection points: 6
#     Node 13, Type 0, BuildingBlock: UKALOJ_clean_sbu_0, # of connection points: 6
#     Node 14, Type 0, BuildingBlock: UKALOJ_clean_sbu_0, # of connection points: 6
#     Node 15, Type 0, BuildingBlock: UKALOJ_clean_sbu_0, # of connection points: 6
#     Edge 16, Type (0, 0), BuildingBlock: UVAHIK_clean_linker_0, # of connection points: 2
#     Edge 17, Type (0, 0), BuildingBlock: UVAHIK_clean_linker_0, # of connection points: 2
#     Edge 18, Type (0, 0), BuildingBlock: UVAHIK_clean_linker_0, # of connection points: 2
#     Edge 19, Type (0, 0), BuildingBlock: UVAHIK_clean_linker_0, # of connection points: 2
#     Edge 20, Type (0, 0), BuildingBlock: UVAHIK_clean_linker_0, # of connection points: 2
#     Edge 21, Type (0, 0), BuildingBlock: UVAHIK_clean_linker_0, # of connection points: 2
#     Edge 22, Type (0, 0), BuildingBlock: UVAHIK_clean_linker_0, # of connection points: 2
#     Edge 23, Type (0, 0), BuildingBlock: UVAHIK_clean_linker_0, # of connection points: 2
#     Edge 24, Type (0, 0), BuildingBlock: UVAHIK_clean_linker_0, # of connection points: 2
#     Edge 25, Type (0, 0), BuildingBlock: UVAHIK_clean_linker_0, # of connection points: 2
#     Edge 26, Type (0, 0), BuildingBlock: UVAHIK_clean_linker_0, # of connection points: 2
#     Edge 27, Type (0, 0), BuildingBlock: UVAHIK_clean_linker_0, # of connection points: 2
#     Edge 28, Type (0, 0), BuildingBlock: UVAHIK_clean_linker_0, # of connection points: 2
#     Edge 29, Type (0, 0), BuildingBlock: UVAHIK_clean_linker_0, # of connection points: 2
#     Edge 30, Type (0, 0), BuildingBlock: UVAHIK_clean_linker_0, # of connection points: 2
#     Edge 31, Type (0, 0), BuildingBlock: UVAHIK_clean_linker_0, # of connection points: 2
#     Edge 32, Type (0, 0), BuildingBlock: UVAHIK_clean_linker_0, # of connection points: 2
#     Edge 33, Type (0, 0), BuildingBlock: UVAHIK_clean_linker_0, # of connection points: 2
#     Edge 34, Type (0, 0), BuildingBlock: UVAHIK_clean_linker_0, # of connection points: 2
#     Edge 35, Type (0, 0), BuildingBlock: UVAHIK_clean_linker_0, # of connection points: 2
#     Edge 36, Type (0, 0), BuildingBlock: UVAHIK_clean_linker_0, # of connection points: 2
#     Edge 37, Type (0, 0), BuildingBlock: UVAHIK_clean_linker_0, # of connection points: 2
#     Edge 38, Type (0, 0), BuildingBlock: UVAHIK_clean_linker_0, # of connection points: 2
#     Edge 39, Type (0, 0), BuildingBlock: UVAHIK_clean_linker_0, # of connection points: 2
#     Edge 40, Type (0, 0), BuildingBlock: UVAHIK_clean_linker_0, # of connection points: 2
#     Edge 41, Type (0, 0), BuildingBlock: UVAHIK_clean_linker_0, # of connection points: 2
#     Edge 42, Type (0, 0), BuildingBlock: UVAHIK_clean_linker_0, # of connection points: 2
#     Edge 43, Type (0, 0), BuildingBlock: UVAHIK_clean_linker_0, # of connection points: 2
#     Edge 44, Type (0, 0), BuildingBlock: UVAHIK_clean_linker_0, # of connection points: 2
#     Edge 45, Type (0, 0), BuildingBlock: UVAHIK_clean_linker_0, # of connection points: 2
#     Edge 46, Type (0, 0), BuildingBlock: UVAHIK_clean_linker_0, # of connection points: 2
#     Edge 47, Type (0, 0), BuildingBlock: UVAHIK_clean_linker_0, # of connection points: 2
#     Edge 48, Type (0, 0), BuildingBlock: UVAHIK_clean_linker_0, # of connection points: 2
#     Edge 49, Type (0, 0), BuildingBlock: UVAHIK_clean_linker_0, # of connection points: 2
#     Edge 50, Type (0, 0), BuildingBlock: UVAHIK_clean_linker_0, # of connection points: 2
#     Edge 51, Type (0, 0), BuildingBlock: UVAHIK_clean_linker_0, # of connection points: 2
#     Edge 52, Type (0, 0), BuildingBlock: UVAHIK_clean_linker_0, # of connection points: 2
#     Edge 53, Type (0, 0), BuildingBlock: UVAHIK_clean_linker_0, # of connection points: 2
#     Edge 54, Type (0, 0), BuildingBlock: UVAHIK_clean_linker_0, # of connection points: 2
#     Edge 55, Type (0, 0), BuildingBlock: UVAHIK_clean_linker_0, # of connection points: 2
#     Edge 56, Type (0, 0), BuildingBlock: UVAHIK_clean_linker_0, # of connection points: 2
#     Edge 57, Type (0, 0), BuildingBlock: UVAHIK_clean_linker_0, # of connection points: 2
#     Edge 58, Type (0, 0), BuildingBlock: UVAHIK_clean_linker_0, # of connection points: 2
#     Edge 59, Type (0, 0), BuildingBlock: UVAHIK_clean_linker_0, # of connection points: 2
#     Edge 60, Type (0, 0), BuildingBlock: UVAHIK_clean_linker_0, # of connection points: 2
#     Edge 61, Type (0, 0), BuildingBlock: UVAHIK_clean_linker_0, # of connection points: 2
#     Edge 62, Type (0, 0), BuildingBlock: UVAHIK_clean_linker_0, # of connection points: 2
#     Edge 63, Type (0, 0), BuildingBlock: UVAHIK_clean_linker_0, # of connection points: 2
# Relax obj value: 0.813
# Max RMSD: 0.237
# Mean RMSD: 0.237
data_MOF--net-whw--node1-UKALOJ_clean_sbu_0--edge1-UVAHIK_clean_linker_0
_symmetry_space_group_name_H-M    P1
_symmetry_Int_Tables_number       1
_symmetry_cell_setting            triclinic
loop_
_symmetry_equiv_pos_as_xyz
'x, y, z'
_cell_length_a     79.453476
_cell_length_b     79.536557
_cell_length_c     28.739513
_cell_angle_alpha  89.999011
_cell_angle_beta   90.030057
_cell_angle_gamma 89.966368
loop_
_atom_site_label
_atom_site_type_symbol
_atom_site_fract_x
_atom_site_fract_y
_atom_site_fract_z
_atom_type_partial_charge
Zn0 Zn 0.04089 0.13773 0.13099 0.0
O1 O 0.02512 0.14877 0.07739 0.0
C2 C 0.07174 0.14285 0.06982 0.0
Zn3 Zn 0.05322 0.16289 0.13734 0.0
C4 C 0.02725 0.16397 0.06409 0.0
O5 O 0.03862 0.17288 0.08324 0.0
C6 C 0.06736 0.13764 0.20342 0.0
O7 O 0.03377 0.16924 0.18359 0.0
O8 O 0.02203 0.14434 0.18369 0.0
N9 N 0.06499 0.18536 0.15049 0.0
C10 C 0.06865 0.19261 0.19176 0.0
C11 C 0.07826 0.20859 0.1387 0.0
N12 N 0.07119 0.19519 0.11757 0.0
N13 N 0.07714 0.20719 0.18542 0.0
C14 C 0.03039 0.10302 0.08671 0.0
C15 C 0.01981 0.09044 0.14515 0.0
N16 N 0.03037 0.11407 0.12249 0.0
N17 N 0.02371 0.10619 0.15863 0.0
N18 N 0.02399 0.08797 0.10018 0.0
H19 H 0.03374 0.12098 0.03145 0.0
H20 H 0.0286 0.09993 0.01232 0.0
H21 H 0.04936 0.10465 0.0341 0.0
C22 C 0.03575 0.10741 0.03824 0.0
C23 C 0.06325 0.18588 0.23844 0.0
H24 H 0.05523 0.17468 0.23627 0.0
H25 H 0.0563 0.19569 0.25807 0.0
H26 H 0.07452 0.18217 0.25872 0.0
O27 O 0.06785 0.15267 0.18948 0.0
O28 O 0.05686 0.12748 0.18545 0.0
C29 C 0.02243 0.15945 0.19867 0.0
O30 O 0.06009 0.13229 0.07865 0.0
O31 O 0.07198 0.15682 0.09089 0.0
Zn32 Zn 0.14122 0.76649 0.37367 0.0
O33 O 0.132 0.75044 0.31767 0.0
C34 C 0.13419 0.79716 0.31528 0.0
Zn35 Zn 0.11481 0.77604 0.37916 0.0
C36 C 0.11662 0.75084 0.30441 0.0
O37 O 0.10638 0.76084 0.32433 0.0
C38 C 0.13836 0.79248 0.44658 0.0
O39 O 0.10985 0.75605 0.42427 0.0
O40 O 0.13575 0.74669 0.42438 0.0
N41 N 0.0913 0.78581 0.3917 0.0
C42 C 0.08374 0.78882 0.43297 0.0
C43 C 0.06689 0.79692 0.37994 0.0
N44 N 0.08089 0.79106 0.35878 0.0
N45 N 0.06846 0.79599 0.42665 0.0
C46 C 0.17686 0.75784 0.33138 0.0
C47 C 0.1899 0.74963 0.39207 0.0
N48 N 0.16563 0.75777 0.36673 0.0
N49 N 0.17379 0.75254 0.40423 0.0
N50 N 0.19219 0.7528 0.34649 0.0
H51 H 0.15969 0.76241 0.27479 0.0
H52 H 0.18108 0.75777 0.25723 0.0
H53 H 0.17607 0.77787 0.28203 0.0
C54 C 0.17316 0.76423 0.28346 0.0
C55 C 0.09084 0.7839 0.47969 0.0
H56 H 0.0815 0.77634 0.49935 0.0
H57 H 0.09375 0.7954 0.49993 0.0
H58 H 0.10255 0.77663 0.47765 0.0
O59 O 0.12343 0.79138 0.43195 0.0
O60 O 0.14966 0.78302 0.42934 0.0
C61 C 0.12062 0.74556 0.43889 0.0
O62 O 0.14576 0.78652 0.32418 0.0
O63 O 0.1198 0.79554 0.33376 0.0
Zn64 Zn 0.51674 0.86813 0.62594 0.0
O65 O 0.53316 0.85914 0.57007 0.0
C66 C 0.4874 0.86274 0.56192 0.0
Zn67 Zn 0.50611 0.84206 0.62872 0.0
C68 C 0.53299 0.84367 0.55772 0.0
O69 O 0.52292 0.83353 0.57776 0.0
C70 C 0.48898 0.86514 0.69504 0.0
O71 O 0.52428 0.83665 0.68092 0.0
O72 O 0.53579 0.86167 0.67649 0.0
N73 N 0.49481 0.81891 0.63642 0.0
C74 C 0.4914 0.81072 0.67639 0.0
C75 C 0.47902 0.79743 0.62187 0.0
N76 N 0.48696 0.81074 0.60259 0.0
N77 N 0.48122 0.79742 0.66837 0.0
C78 C 0.52632 0.90403 0.58772 0.0
C79 C 0.53353 0.91645 0.65032 0.0
N80 N 0.52594 0.89244 0.62215 0.0
N81 N 0.53056 0.90021 0.66085 0.0
N82 N 0.53101 0.91921 0.60461 0.0
H83 H 0.52224 0.88741 0.5296 0.0
H84 H 0.52764 0.90874 0.51386 0.0
H85 H 0.50705 0.90414 0.53595 0.0
C86 C 0.52058 0.90084 0.53888 0.0
C87 C 0.49985 0.81462 0.72198 0.0
H88 H 0.51296 0.80988 0.72033 0.0
H89 H 0.4939 0.80874 0.75244 0.0
H90 H 0.50008 0.82831 0.72849 0.0
O91 O 0.4893 0.85063 0.67736 0.0
O92 O 0.49978 0.87602 0.68215 0.0
C93 C 0.53535 0.84706 0.69459 0.0
O94 O 0.49754 0.87401 0.5759 0.0
O95 O 0.4885 0.8479 0.57761 0.0
Zn96 Zn 0.41267 0.24361 0.88375 0.0
O97 O 0.42173 0.26146 0.83153 0.0
C98 C 0.41787 0.21682 0.8127 0.0
Zn99 Zn 0.43871 0.23297 0.88534 0.0
C100 C 0.43737 0.26184 0.82083 0.0
O101 O 0.44743 0.2514 0.83966 0.0
C102 C 0.4156 0.21397 0.94705 0.0
O103 O 0.44447 0.24881 0.94248 0.0
O104 O 0.41973 0.26107 0.93834 0.0
N105 N 0.4615 0.22085 0.88789 0.0
C106 C 0.46976 0.21504 0.92556 0.0
C107 C 0.47997 0.20247 0.8664 0.0
N108 N 0.46784 0.21301 0.85117 0.0
N109 N 0.48107 0.20317 0.9131 0.0
C110 C 0.37674 0.25454 0.84813 0.0
C111 C 0.36425 0.25962 0.91215 0.0
N112 N 0.38836 0.25315 0.88237 0.0
N113 N 0.38054 0.25647 0.922 0.0
N114 N 0.3615 0.25854 0.86599 0.0
H115 H 0.39343 0.25222 0.78935 0.0
H116 H 0.37217 0.25835 0.77489 0.0
H117 H 0.37652 0.23709 0.79169 0.0
C118 C 0.37997 0.2504 0.79807 0.0
C119 C 0.46778 0.22227 0.97357 0.0
H120 H 0.45466 0.22062 0.98585 0.0
H121 H 0.47058 0.2359 0.97215 0.0
H122 H 0.47651 0.21677 0.99935 0.0
O123 O 0.4301 0.21468 0.92934 0.0
O124 O 0.40479 0.22519 0.93649 0.0
C125 C 0.4342 0.25983 0.95732 0.0
O126 O 0.40636 0.22613 0.82933 0.0
O127 O 0.43262 0.2176 0.82914 0.0
Zn128 Zn 0.04831 0.84422 0.87611 0.0
O129 O 0.02884 0.83867 0.83023 0.0
C130 C 0.06511 0.8668 0.80739 0.0
Zn131 Zn 0.03849 0.87059 0.87871 0.0
C132 C 0.0183 0.84915 0.8143 0.0
O133 O 0.01922 0.86447 0.82713 0.0
C134 C 0.06858 0.8645 0.9404 0.0
O135 O 0.02177 0.86162 0.93439 0.0
O136 O 0.03291 0.83625 0.92968 0.0
N137 N 0.02965 0.89506 0.88309 0.0
C138 C 0.02919 0.90651 0.91787 0.0
C139 C 0.02238 0.91926 0.85544 0.0
N140 N 0.02527 0.90304 0.84449 0.0
N141 N 0.02469 0.9218 0.90132 0.0
C142 C 0.06093 0.8124 0.82666 0.0
C143 C 0.0767 0.80052 0.87696 0.0
N144 N 0.05906 0.82091 0.8669 0.0
N145 N 0.06893 0.81357 0.89808 0.0
N146 N 0.07224 0.79985 0.83178 0.0
H147 H 0.0372 0.81239 0.79161 0.0
H148 H 0.05408 0.80771 0.75367 0.0
H149 H 0.05124 0.8289 0.77332 0.0
C150 C 0.05049 0.81552 0.78376 0.0
C151 C 0.03465 0.90309 0.96681 0.0
H152 H 0.03329 0.88956 0.97529 0.0
H153 H 0.02719 0.91066 0.99175 0.0
H154 H 0.04806 0.90674 0.97065 0.0
O155 O 0.05801 0.87589 0.92947 0.0
O156 O 0.06723 0.85 0.92261 0.0
C157 C 0.02235 0.84629 0.94801 0.0
O158 O 0.06377 0.8521 0.82344 0.0
O159 O 0.05558 0.87837 0.823 0.0
Zn160 Zn 0.43625 0.77739 0.13924 0.0
O161 O 0.44348 0.75898 0.09086 0.0
C162 C 0.41442 0.79402 0.06811 0.0
Zn163 Zn 0.41034 0.76637 0.13652 0.0
C164 C 0.43367 0.74806 0.0734 0.0
O165 O 0.41822 0.748 0.08532 0.0
C166 C 0.41371 0.7956 0.20212 0.0
O167 O 0.41899 0.74948 0.19243 0.0
O168 O 0.44403 0.76142 0.19167 0.0
N169 N 0.38612 0.75667 0.13741 0.0
C170 C 0.37426 0.75629 0.17113 0.0
C171 C 0.36261 0.74787 0.10864 0.0
N172 N 0.37883 0.75135 0.09869 0.0
N173 N 0.35929 0.751 0.15384 0.0
C174 C 0.46795 0.79295 0.09669 0.0
C175 C 0.47766 0.80837 0.15119 0.0
N176 N 0.4591 0.78931 0.13537 0.0
N177 N 0.46512 0.79892 0.16922 0.0
N178 N 0.47934 0.80512 0.10546 0.0
H179 H 0.46973 0.77023 0.05732 0.0
H180 H 0.47483 0.78826 0.02394 0.0
H181 H 0.4532 0.78411 0.03848 0.0
C182 C 0.46632 0.78357 0.05142 0.0
C183 C 0.37768 0.76023 0.22127 0.0
H184 H 0.3694 0.7527 0.24429 0.0
H185 H 0.37522 0.77376 0.22776 0.0
H186 H 0.391 0.75762 0.23012 0.0
O187 O 0.40312 0.78492 0.18726 0.0
O188 O 0.42875 0.7952 0.18774 0.0
C189 C 0.43408 0.75037 0.20791 0.0
O190 O 0.42862 0.79339 0.08768 0.0
O191 O 0.40306 0.78358 0.08016 0.0
Zn192 Zn 0.51935 0.13574 0.36875 0.0
O193 O 0.53763 0.14456 0.41966 0.0
C194 C 0.49107 0.14688 0.43268 0.0
Zn195 Zn 0.51046 0.16215 0.35817 0.0
C196 C 0.53835 0.16031 0.42821 0.0
O197 O 0.52849 0.17022 0.40666 0.0
C198 C 0.49069 0.13881 0.30053 0.0
O199 O 0.52781 0.1633 0.30371 0.0
O200 O 0.53823 0.13813 0.31435 0.0
N201 N 0.50342 0.18616 0.34106 0.0
C202 C 0.51325 0.19787 0.3208 0.0
C203 C 0.48829 0.202 0.29641 0.0
N204 N 0.48783 0.18902 0.32662 0.0
N205 N 0.50415 0.20768 0.29206 0.0
C206 C 0.52597 0.10017 0.41468 0.0
C207 C 0.5339 0.08619 0.35542 0.0
N208 N 0.52611 0.11085 0.37809 0.0
N209 N 0.53107 0.10209 0.34144 0.0
N210 N 0.53073 0.0845 0.40126 0.0
H211 H 0.52528 0.11885 0.46882 0.0
H212 H 0.52912 0.09761 0.48888 0.0
H213 H 0.50838 0.10386 0.46996 0.0
C214 C 0.52206 0.10542 0.46353 0.0
C215 C 0.53209 0.19891 0.32492 0.0
H216 H 0.53676 0.19273 0.35674 0.0
H217 H 0.536 0.2123 0.32536 0.0
H218 H 0.53812 0.19308 0.2941 0.0
O219 O 0.49248 0.15399 0.31226 0.0
O220 O 0.50053 0.12769 0.31731 0.0
C221 C 0.53815 0.15197 0.29219 0.0
O222 O 0.50045 0.13435 0.42285 0.0
O223 O 0.49275 0.16066 0.41089 0.0
Zn224 Zn 0.1186 0.23797 0.61698 0.0
O225 O 0.11442 0.25994 0.57834 0.0
C226 C 0.14183 0.22221 0.54745 0.0
Zn227 Zn 0.1453 0.24528 0.62638 0.0
C228 C 0.12642 0.26877 0.56279 0.0
O229 O 0.14146 0.26525 0.57491 0.0
C230 C 0.13603 0.21445 0.68053 0.0
O231 O 0.13606 0.26174 0.68169 0.0
O232 O 0.11065 0.25084 0.67592 0.0
N233 N 0.16999 0.25293 0.63603 0.0
C234 C 0.18085 0.25222 0.67225 0.0
C235 C 0.19427 0.26229 0.61453 0.0
N236 N 0.17841 0.25922 0.60034 0.0
N237 N 0.19628 0.25794 0.65954 0.0
C238 C 0.0871 0.22844 0.55983 0.0
C239 C 0.07027 0.21857 0.6105 0.0
N240 N 0.09484 0.22959 0.60157 0.0
N241 N 0.08443 0.22325 0.63295 0.0
N242 N 0.0717 0.22138 0.56435 0.0
H243 H 0.10591 0.24212 0.51884 0.0
H244 H 0.08492 0.24309 0.49685 0.0
H245 H 0.09725 0.22415 0.49168 0.0
C246 C 0.09424 0.23492 0.51469 0.0
C247 C 0.17596 0.24683 0.72029 0.0
H248 H 0.18348 0.25362 0.74682 0.0
H249 H 0.1783 0.23314 0.72402 0.0
H250 H 0.16239 0.24919 0.72643 0.0
O251 O 0.148 0.22504 0.6763 0.0
O252 O 0.12264 0.21654 0.65716 0.0
C253 C 0.12087 0.26073 0.69622 0.0
O254 O 0.12675 0.22499 0.55884 0.0
O255 O 0.15368 0.22858 0.57137 0.0
Zn256 Zn 0.93679 0.27509 0.62516 0.0
O257 O 0.94377 0.25451 0.58416 0.0
C258 C 0.91258 0.28784 0.55423 0.0
Zn259 Zn 0.9113 0.26359 0.63172 0.0
C260 C 0.93368 0.24347 0.56883 0.0
O261 O 0.91827 0.24407 0.58128 0.0
C262 C 0.91582 0.29537 0.68781 0.0
O263 O 0.9218 0.24855 0.68788 0.0
O264 O 0.94583 0.26233 0.68367 0.0
N265 N 0.88744 0.25338 0.63929 0.0
C266 C 0.87598 0.25412 0.674 0.0
C267 C 0.86384 0.24304 0.61553 0.0
N268 N 0.87984 0.2464 0.60315 0.0
N269 N 0.86093 0.24788 0.65977 0.0
C270 C 0.9674 0.28858 0.57195 0.0
C271 C 0.97763 0.30713 0.61748 0.0
N272 N 0.95918 0.28723 0.61278 0.0
N273 N 0.96549 0.29881 0.64099 0.0
N274 N 0.97869 0.30125 0.57364 0.0
H275 H 0.96939 0.26377 0.54389 0.0
H276 H 0.97318 0.27946 0.50156 0.0
H277 H 0.95205 0.2758 0.52103 0.0
C278 C 0.96538 0.27643 0.53216 0.0
C279 C 0.87993 0.26001 0.7223 0.0
H280 H 0.87199 0.25337 0.74819 0.0
H281 H 0.87744 0.2737 0.7249 0.0
H282 H 0.89339 0.25779 0.7305 0.0
O283 O 0.90541 0.28341 0.68146 0.0
O284 O 0.92975 0.29518 0.66654 0.0
C285 C 0.9367 0.25121 0.7031 0.0
O286 O 0.92769 0.28775 0.56781 0.0
O287 O 0.90171 0.27891 0.57523 0.0
Zn288 Zn 0.61879 0.73656 0.10529 0.0
O289 O 0.61907 0.75315 0.0494 0.0
C290 C 0.64292 0.71585 0.05252 0.0
Zn291 Zn 0.64521 0.74449 0.11999 0.0
C292 C 0.63067 0.76349 0.04043 0.0
O293 O 0.64383 0.76361 0.06565 0.0
C294 C 0.63229 0.71693 0.18292 0.0
O295 O 0.63583 0.76257 0.17034 0.0
O296 O 0.61001 0.75545 0.15084 0.0
N297 N 0.67006 0.751 0.13186 0.0
C298 C 0.68057 0.75054 0.16889 0.0
C299 C 0.69487 0.75898 0.11077 0.0
N300 N 0.67905 0.75627 0.09596 0.0
N301 N 0.69632 0.75542 0.15645 0.0
C302 C 0.58364 0.73899 0.06225 0.0
C303 C 0.57797 0.71333 0.04764 0.0
N304 N 0.59503 0.7296 0.08531 0.0
N305 N 0.59135 0.71364 0.07666 0.0
N306 N 0.57303 0.72912 0.03802 0.0
H307 H 0.59058 0.76353 0.08917 0.0
H308 H 0.57021 0.76243 0.06152 0.0
H309 H 0.58882 0.76217 0.02671 0.0
C310 C 0.58341 0.75786 0.06025 0.0
C311 C 0.67507 0.74619 0.2172 0.0
H312 H 0.66154 0.74919 0.22199 0.0
H313 H 0.68264 0.75314 0.24332 0.0
H314 H 0.67683 0.73251 0.22285 0.0
O315 O 0.64553 0.72541 0.17366 0.0
O316 O 0.61888 0.71957 0.15993 0.0
C317 C 0.61994 0.7644 0.17521 0.0
O318 O 0.62757 0.71782 0.06245 0.0
O319 O 0.65386 0.72576 0.06969 0.0
Zn320 Zn 0.64112 0.265 0.87441 0.0
O321 O 0.63481 0.24829 0.81602 0.0
C322 C 0.62973 0.29526 0.8206 0.0
Zn323 Zn 0.61357 0.26947 0.87953 0.0
C324 C 0.61981 0.24759 0.79978 0.0
O325 O 0.60814 0.25594 0.81942 0.0
C326 C 0.63337 0.28691 0.95409 0.0
O327 O 0.61123 0.24787 0.91928 0.0
O328 O 0.63847 0.24395 0.92339 0.0
N329 N 0.58902 0.27569 0.89243 0.0
C330 C 0.57694 0.26562 0.90955 0.0
C331 C 0.57269 0.28996 0.93763 0.0
N332 N 0.58603 0.29097 0.90884 0.0
N333 N 0.5668 0.27411 0.93894 0.0
C334 C 0.67784 0.25907 0.83377 0.0
C335 C 0.69181 0.25778 0.89698 0.0
N336 N 0.66667 0.2603 0.86915 0.0
N337 N 0.67545 0.25939 0.90824 0.0
N338 N 0.69372 0.25751 0.85043 0.0
H339 H 0.66052 0.26567 0.77875 0.0
H340 H 0.67355 0.24761 0.76774 0.0
H341 H 0.68266 0.26822 0.76472 0.0
C342 C 0.6733 0.26036 0.78335 0.0
C343 C 0.57579 0.24706 0.90132 0.0
H344 H 0.58406 0.24305 0.8723 0.0
H345 H 0.56257 0.2437 0.89308 0.0
H346 H 0.57915 0.24027 0.93368 0.0
O347 O 0.61896 0.28283 0.93949 0.0
O348 O 0.64633 0.28188 0.93222 0.0
C349 C 0.62359 0.23955 0.93471 0.0
O350 O 0.64288 0.28633 0.82706 0.0
O351 O 0.61608 0.29101 0.84013 0.0
Zn352 Zn 0.91322 0.74046 0.38182 0.0
O353 O 0.92236 0.7577 0.32818 0.0
C354 C 0.91995 0.71112 0.3172 0.0
Zn355 Zn 0.93945 0.73032 0.38478 0.0
C356 C 0.9378 0.75744 0.31545 0.0
O357 O 0.94781 0.7468 0.33361 0.0
C358 C 0.91611 0.71262 0.44981 0.0
O359 O 0.94465 0.74901 0.43349 0.0
O360 O 0.91906 0.7592 0.43524 0.0
N361 N 0.96295 0.72013 0.39484 0.0
C362 C 0.97077 0.71619 0.43515 0.0
C363 C 0.98722 0.70924 0.38004 0.0
N364 N 0.97311 0.71558 0.36059 0.0
N365 N 0.986 0.70917 0.4269 0.0
C366 C 0.8772 0.74961 0.3426 0.0
C367 C 0.86454 0.75652 0.40508 0.0
N368 N 0.88874 0.7493 0.37721 0.0
N369 N 0.88081 0.75374 0.41583 0.0
N370 N 0.8619 0.75406 0.3593 0.0
H371 H 0.89402 0.74598 0.28474 0.0
H372 H 0.87258 0.75103 0.26872 0.0
H373 H 0.87754 0.7305 0.29058 0.0
C374 C 0.88059 0.74406 0.29373 0.0
C375 C 0.96391 0.71999 0.48289 0.0
H376 H 0.95207 0.72709 0.48253 0.0
H377 H 0.97326 0.72725 0.50335 0.0
H378 H 0.96127 0.70804 0.50129 0.0
O379 O 0.93091 0.71374 0.43419 0.0
O380 O 0.90496 0.72288 0.43551 0.0
C381 C 0.93425 0.75959 0.4496 0.0
O382 O 0.90842 0.72143 0.32905 0.0
O383 O 0.9344 0.71227 0.33558 0.0
Zn384 Zn 0.53932 0.64001 0.64052 0.0
O385 O 0.5219 0.64966 0.5881 0.0
C386 C 0.56877 0.64755 0.57643 0.0
Zn387 Zn 0.54956 0.66615 0.64512 0.0
C388 C 0.52237 0.66509 0.57558 0.0
O389 O 0.5332 0.67488 0.59373 0.0
C390 C 0.56724 0.6423 0.70876 0.0
O391 O 0.53048 0.67064 0.69296 0.0
O392 O 0.52061 0.64498 0.69473 0.0
N393 N 0.55903 0.68975 0.65803 0.0
C394 C 0.56118 0.69767 0.69921 0.0
C395 C 0.5681 0.71488 0.64599 0.0
N396 N 0.56362 0.70038 0.62502 0.0
N397 N 0.56685 0.71356 0.69275 0.0
C398 C 0.53045 0.60461 0.5974 0.0
C399 C 0.52163 0.5915 0.65717 0.0
N400 N 0.53063 0.6156 0.63331 0.0
N401 N 0.52508 0.60738 0.67029 0.0
N402 N 0.52498 0.58928 0.61158 0.0
H403 H 0.53208 0.62279 0.54205 0.0
H404 H 0.52742 0.60158 0.52328 0.0
H405 H 0.54835 0.6071 0.5423 0.0
C406 C 0.53473 0.60929 0.54832 0.0
C407 C 0.55699 0.69015 0.74591 0.0
H408 H 0.55214 0.67726 0.74407 0.0
H409 H 0.54759 0.6981 0.76413 0.0
H410 H 0.56856 0.68947 0.76736 0.0
O411 O 0.56601 0.65727 0.69463 0.0
O412 O 0.55714 0.63124 0.69314 0.0
C413 C 0.52002 0.66014 0.70898 0.0
O414 O 0.5582 0.63609 0.58687 0.0
O415 O 0.56802 0.66174 0.59639 0.0
Zn416 Zn 0.00824 0.34389 0.13861 0.0
O417 O 0.02953 0.33922 0.18004 0.0
C418 C 0.99256 0.36735 0.20711 0.0
Zn419 Zn 0.01676 0.37036 0.12999 0.0
C420 C 0.03912 0.35079 0.19473 0.0
O421 O 0.0366 0.36587 0.18134 0.0
C422 C 0.98591 0.36201 0.07371 0.0
O423 O 0.03315 0.36104 0.07481 0.0
O424 O 0.02207 0.33576 0.08136 0.0
N425 N 0.02484 0.39492 0.12178 0.0
C426 C 0.0243 0.40609 0.08632 0.0
C427 C 0.03242 0.41942 0.14659 0.0
N428 N 0.03002 0.40326 0.159 0.0
N429 N 0.02896 0.42155 0.10112 0.0
C430 C 0.99701 0.31251 0.19367 0.0
C431 C 0.98761 0.29606 0.14137 0.0
N432 N 0.9991 0.32029 0.15232 0.0
N433 N 0.99305 0.31013 0.1199 0.0
N434 N 0.98962 0.29732 0.18788 0.0
H435 H 0.01039 0.33092 0.23669 0.0
H436 H 0.01062 0.30988 0.25829 0.0
H437 H 0.99183 0.32253 0.26152 0.0
C438 C 1.00291 0.31939 0.23974 0.0
C439 C 0.01782 0.40215 0.03866 0.0
H440 H 0.01993 0.38872 0.03018 0.0
H441 H 0.02401 0.41016 0.01215 0.0
H442 H 1.0041 0.40478 0.03758 0.0
O443 O 0.9966 0.37377 0.07969 0.0
O444 O 0.98762 0.34836 0.09603 0.0
C445 C 0.03222 0.34575 0.06118 0.0
O446 O 0.99434 0.35222 0.19487 0.0
O447 O 1.00028 0.37887 0.18522 0.0
Zn448 Zn 0.5484 0.34735 0.37337 0.0
O449 O 0.53087 0.34256 0.32078 0.0
C450 C 0.56499 0.37175 0.31036 0.0
Zn451 Zn 0.5379 0.37322 0.38182 0.0
C452 C 0.51939 0.35287 0.30962 0.0
O453 O 0.51852 0.36701 0.33049 0.0
C454 C 0.56751 0.36656 0.44395 0.0
O455 O 0.52191 0.36334 0.4368 0.0
O456 O 0.53155 0.33782 0.4231 0.0
N457 N 0.52836 0.39735 0.38837 0.0
C458 C 0.5282 0.40867 0.42353 0.0
C459 C 0.52016 0.4215 0.36237 0.0
N460 N 0.52321 0.40539 0.35059 0.0
N461 N 0.52314 0.42392 0.40801 0.0
C462 C 0.564 0.31671 0.3238 0.0
C463 C 0.57854 0.30521 0.37749 0.0
N464 N 0.56016 0.32462 0.36392 0.0
N465 N 0.56924 0.31749 0.3972 0.0
N466 N 0.57581 0.30476 0.33124 0.0
H467 H 0.5414 0.31708 0.28344 0.0
H468 H 0.55925 0.31158 0.2499 0.0
H469 H 0.55639 0.33309 0.26796 0.0
C470 C 0.55497 0.31977 0.27857 0.0
C471 C 0.53445 0.40515 0.4717 0.0
H472 H 0.5332 0.39161 0.48009 0.0
H473 H 0.52739 0.41267 0.49766 0.0
H474 H 0.5479 0.40879 0.47396 0.0
O475 O 0.55766 0.37854 0.43263 0.0
O476 O 0.56563 0.35234 0.42495 0.0
C477 C 0.52181 0.34757 0.4457 0.0
O478 O 0.56511 0.35686 0.32549 0.0
O479 O 0.55419 0.38214 0.32596 0.0
Zn480 Zn 0.01686 0.63814 0.86948 0.0
O481 O 0.03393 0.64803 0.92155 0.0
C482 C 0.98781 0.64741 0.93177 0.0
Zn483 Zn 0.00733 0.66438 0.85924 0.0
C484 C 0.03459 0.66381 0.92992 0.0
O485 O 0.02493 0.67377 0.90771 0.0
C486 C 0.98874 0.63962 0.80139 0.0
O487 O 0.02534 0.66725 0.80643 0.0
O488 O 0.03597 0.64204 0.81576 0.0
N489 N 0.99799 0.68796 0.84502 0.0
C490 C 0.99505 0.69544 0.8036 0.0
C491 C 0.98968 0.71339 0.85625 0.0
N492 N 0.99433 0.69905 0.87774 0.0
N493 N 0.98992 0.71156 0.80948 0.0
C494 C 0.02475 0.6028 0.91491 0.0
C495 C 0.03431 0.58949 0.85634 0.0
N496 N 0.02517 0.61371 0.87884 0.0
N497 N 0.03118 0.60537 0.84263 0.0
N498 N 0.03031 0.58739 0.90155 0.0
H499 H 0.02662 0.59985 0.98934 0.0
H500 H 0.00609 0.6057 0.96785 0.0
H501 H 0.02262 0.62111 0.96972 0.0
C502 C 0.01982 0.60764 0.96339 0.0
C503 C 0.99755 0.68703 0.75726 0.0
H504 H 1.00204 0.67402 0.76006 0.0
H505 H 0.00665 0.69426 0.73594 0.0
H506 H 0.98535 0.68639 0.73869 0.0
O507 O 0.98973 0.65481 0.81371 0.0
O508 O 0.99918 0.62896 0.81741 0.0
C509 C 0.03593 0.65612 0.79459 0.0
O510 O 0.99757 0.63517 0.92216 0.0
O511 O 0.98964 0.66138 0.91115 0.0
C512 C 0.07882 0.13541 0.98766 0.0
C513 C 0.0841 0.14027 0.03226 0.0
C514 C 0.08923 0.1383 0.94905 0.0
C515 C 0.12171 0.16897 0.91669 0.0
H516 H 0.12126 0.14551 0.79857 0.0
C517 C 0.14767 0.20125 0.7534 0.0
C518 C 0.13651 0.20076 0.71551 0.0
C519 C 0.14566 0.1901 0.7908 0.0
C520 C 0.12155 0.15221 0.83138 0.0
H521 H 0.1049 0.15014 0.07249 0.0
H522 H 0.12332 0.15443 0.00582 0.0
H523 H 0.10944 0.13195 0.86758 0.0
H524 H 0.11543 0.18727 0.68532 0.0
H525 H 0.11183 0.16816 0.75017 0.0
H526 H 0.13303 0.1895 0.88056 0.0
C527 C 0.11099 0.14899 1.00004 0.0
C528 C 0.11476 0.14442 0.8709 0.0
C529 C 0.10053 0.14637 0.03833 0.0
C530 C 0.12417 0.1881 0.71417 0.0
C531 C 0.12218 0.17699 0.75134 0.0
C532 C 0.12845 0.17673 0.87732 0.0
C533 C 0.10512 0.14593 0.95467 0.0
C534 C 0.11441 0.15288 0.91386 0.0
C535 C 0.13249 0.17823 0.79092 0.0
C536 C 0.12806 0.16866 0.83385 0.0
H537 H 0.06612 0.13087 0.98208 0.0
H538 H 0.08426 0.13581 0.91465 0.0
H539 H 0.12139 0.17606 0.94884 0.0
H540 H 0.15733 0.21083 0.75544 0.0
H541 H 0.15401 0.19122 0.82044 0.0
C542 C 0.12981 0.82697 0.2941 0.0
C543 C 0.13679 0.81126 0.28305 0.0
C544 C 0.12827 0.83939 0.26016 0.0
C545 C 0.13705 0.84992 0.13563 0.0
H546 H 0.09055 0.86472 0.13892 0.0
C547 C 0.09609 0.85674 0.97509 0.0
C548 C 0.08189 0.86727 0.9754 0.0
C549 C 0.10706 0.85637 0.01287 0.0
C550 C 0.10372 0.86122 0.13771 0.0
H551 H 0.14889 0.79655 0.22936 0.0
H552 H 0.14564 0.81805 0.16907 0.0
H553 H 0.10275 0.85163 0.2068 0.0
H554 H 0.06886 0.88683 0.01344 0.0
H555 H 0.08816 0.88626 0.08002 0.0
H556 H 0.13756 0.85874 0.06518 0.0
C557 C 0.14169 0.82099 0.20419 0.0
C558 C 0.11077 0.85363 0.17686 0.0
C559 C 0.14353 0.80863 0.23859 0.0
C560 C 0.07968 0.87855 0.01242 0.0
C561 C 0.09067 0.87813 0.05059 0.0
C562 C 0.12998 0.85757 0.09633 0.0
C563 C 0.13328 0.83619 0.21412 0.0
C564 C 0.12731 0.84728 0.17577 0.0
C565 C 0.10405 0.86649 0.05207 0.0
C566 C 0.11299 0.86265 0.09631 0.0
H567 H 0.1247 0.82931 0.32846 0.0
H568 H 0.12217 0.85111 0.26935 0.0
H569 H 0.14992 0.84545 0.1339 0.0
H570 H 0.09822 0.84804 0.94667 0.0
H571 H 0.11709 0.84716 0.01273 0.0
C572 C 0.40896 0.80216 0.28491 0.0
C573 C 0.40943 0.80764 0.23871 0.0
C574 C 0.41068 0.81372 0.32118 0.0
C575 C 0.43085 0.85514 0.33806 0.0
H576 H 0.42228 0.84357 0.46667 0.0
C577 C 0.45764 0.8661 0.53815 0.0
C578 C 0.47474 0.86629 0.52632 0.0
C579 C 0.44536 0.86522 0.50339 0.0
C580 C 0.42456 0.84742 0.43112 0.0
H581 H 0.41042 0.82931 0.19343 0.0
H582 H 0.41214 0.84973 0.25666 0.0
H583 H 0.40584 0.83045 0.40593 0.0
H584 H 0.49265 0.86643 0.46988 0.0
H585 H 0.4715 0.86411 0.40911 0.0
H586 H 0.4493 0.87239 0.36329 0.0
C587 C 0.4112 0.83653 0.26535 0.0
C588 C 0.41526 0.83959 0.396 0.0
C589 C 0.40994 0.82489 0.22908 0.0
C590 C 0.47946 0.86657 0.47949 0.0
C591 C 0.46725 0.8653 0.44471 0.0
C592 C 0.43984 0.86328 0.37321 0.0
C593 C 0.41266 0.83103 0.31179 0.0
C594 C 0.41898 0.84257 0.34888 0.0
C595 C 0.45003 0.86394 0.45624 0.0
C596 C 0.43755 0.8588 0.42009 0.0
H597 H 0.40888 0.78883 0.29286 0.0
H598 H 0.41191 0.80881 0.35613 0.0
H599 H 0.4342 0.85792 0.30239 0.0
H600 H 0.45382 0.86578 0.57434 0.0
H601 H 0.43227 0.86467 0.51372 0.0
C602 C 0.4167 0.21331 0.72757 0.0
C603 C 0.41506 0.2062 0.77185 0.0
C604 C 0.41949 0.20306 0.68888 0.0
C605 C 0.42406 0.17957 0.60801 0.0
H606 H 0.45446 0.14273 0.63513 0.0
C607 C 0.46165 0.14966 0.46001 0.0
C608 C 0.47852 0.146 0.46998 0.0
C609 C 0.45018 0.15244 0.49602 0.0
C610 C 0.44608 0.15304 0.62675 0.0
H611 H 0.41393 0.183 0.81083 0.0
H612 H 0.41764 0.16488 0.74291 0.0
H613 H 0.44045 0.15712 0.69837 0.0
H614 H 0.49671 0.14176 0.52459 0.0
H615 H 0.47709 0.14752 0.5877 0.0
H616 H 0.43097 0.17666 0.53693 0.0
C617 C 0.41738 0.17836 0.73783 0.0
C618 C 0.43771 0.16114 0.6632 0.0
C619 C 0.41494 0.18868 0.77667 0.0
C620 C 0.48365 0.14434 0.51633 0.0
C621 C 0.47231 0.14761 0.55245 0.0
C622 C 0.43274 0.17175 0.5717 0.0
C623 C 0.42053 0.18543 0.69372 0.0
C624 C 0.42697 0.17489 0.6545 0.0
C625 C 0.45551 0.15226 0.54278 0.0
C626 C 0.44428 0.15868 0.58062 0.0
H627 H 0.41724 0.22685 0.72345 0.0
H628 H 0.4221 0.20912 0.65597 0.0
H629 H 0.41557 0.18978 0.59959 0.0
H630 H 0.45749 0.15098 0.42428 0.0
H631 H 0.43729 0.15541 0.48694 0.0
C632 C 0.96204 0.77187 0.27767 0.0
C633 C 0.94456 0.76938 0.28035 0.0
C634 C 0.96901 0.78208 0.24327 0.0
C635 C 0.96011 0.81448 0.1533 0.0
H636 H 1.00059 0.79576 0.09864 0.0
C637 C 1.00338 0.84965 0.01837 0.0
C638 C 0.0107 0.83951 0.98376 0.0
C639 C 0.99374 0.84232 0.05418 0.0
C640 C 0.98922 0.80117 0.11309 0.0
H641 H 0.92059 0.77627 0.24983 0.0
H642 H 0.93288 0.79394 0.18839 0.0
H643 H 0.98666 0.78089 0.16103 0.0
H644 H 0.01256 0.81398 0.95759 0.0
H645 H 0.99567 0.80147 0.01845 0.0
H646 H 0.96266 0.83464 0.10387 0.0
C647 C 0.94116 0.78807 0.21355 0.0
C648 C 0.98132 0.79271 0.1495 0.0
C649 C 0.93411 0.7779 0.24858 0.0
C650 C 0.00744 0.82214 0.98426 0.0
C651 C 0.99777 0.81493 0.01938 0.0
C652 C 0.96808 0.82301 0.1165 0.0
C653 C 0.95875 0.78997 0.20991 0.0
C654 C 0.96671 0.79922 0.17036 0.0
C655 C 0.9912 0.82478 0.05566 0.0
C656 C 0.98269 0.81636 0.09574 0.0
H657 H 0.97048 0.7658 0.30208 0.0
H658 H 0.98255 0.7836 0.24251 0.0
H659 H 0.94893 0.81991 0.16872 0.0
H660 H 0.00562 0.86308 0.01878 0.0
H661 H 0.98886 0.85029 0.08158 0.0
C662 C 0.9585 0.24703 0.7648 0.0
C663 C 0.94367 0.2415 0.74286 0.0
C664 C 0.96558 0.23793 0.80142 0.0
C665 C 0.96873 0.19583 0.85219 0.0
H666 H 0.98577 0.2202 0.95912 0.0
C667 C 0.02001 0.18788 0.01115 0.0
C668 C 0.01649 0.17158 0.02731 0.0
C669 C 0.00977 0.19555 0.97786 0.0
C670 C 0.98125 0.21318 0.92935 0.0
H671 H 0.92468 0.22195 0.74242 0.0
H672 H 0.93727 0.20582 0.80651 0.0
H673 H 0.97018 0.23515 0.89912 0.0
H674 H 0.99946 0.15044 0.02034 0.0
H675 H 0.98135 0.16397 0.96228 0.0
H676 H 0.98024 0.1739 0.88195 0.0
C677 C 0.94332 0.2173 0.79513 0.0
C678 C 0.97223 0.22177 0.89502 0.0
C679 C 0.93607 0.22658 0.75865 0.0
C680 C 1.00253 0.16301 0.00867 0.0
C681 C 0.99219 0.17075 0.97526 0.0
C682 C 0.97788 0.18721 0.88654 0.0
C683 C 0.95814 0.22293 0.81699 0.0
C684 C 0.96615 0.21329 0.85557 0.0
C685 C 0.99559 0.18721 0.9598 0.0
C686 C 0.98457 0.19586 0.92509 0.0
H687 H 0.96471 0.25846 0.75365 0.0
H688 H 0.97711 0.24251 0.81706 0.0
H689 H 0.96427 0.18896 0.82208 0.0
H690 H 0.03073 0.19484 0.02429 0.0
H691 H 0.01307 0.20805 0.96604 0.0
C692 C 0.60214 0.24266 0.72943 0.0
C693 C 0.61557 0.23749 0.75794 0.0
C694 C 0.59714 0.23302 0.69127 0.0
C695 C 0.59368 0.1908 0.64748 0.0
H696 H 0.5873 0.21267 0.52821 0.0
C697 C 0.56127 0.15735 0.48931 0.0
C698 C 0.5501 0.16745 0.46351 0.0
C699 C 0.57188 0.16455 0.52313 0.0
C700 C 0.58885 0.20635 0.5613 0.0
H701 H 0.63428 0.21806 0.7687 0.0
H702 H 0.62508 0.20076 0.7021 0.0
H703 H 0.6011 0.22776 0.5913 0.0
H704 H 0.54137 0.19308 0.45352 0.0
H705 H 0.5593 0.20536 0.51216 0.0
H706 H 0.58056 0.16969 0.61831 0.0
C707 C 0.61866 0.21248 0.70934 0.0
C708 C 0.5969 0.21499 0.59733 0.0
C709 C 0.62397 0.22241 0.74716 0.0
C710 C 0.54985 0.18485 0.4723 0.0
C711 C 0.56032 0.19197 0.5059 0.0
C712 C 0.58537 0.18218 0.61146 0.0
C713 C 0.60519 0.21775 0.681 0.0
C714 C 0.59905 0.20749 0.64114 0.0
C715 C 0.57156 0.18201 0.5318 0.0
C716 C 0.5824 0.19004 0.56826 0.0
H717 H 0.59543 0.25422 0.7367 0.0
H718 H 0.58667 0.23735 0.67029 0.0
H719 H 0.59509 0.18475 0.68102 0.0
H720 H 0.56177 0.1439 0.48353 0.0
H721 H 0.58041 0.15647 0.5422 0.0
C722 C 0.55323 0.84806 0.49055 0.0
C723 C 0.54397 0.83722 0.51958 0.0
C724 C 0.56259 0.84163 0.45293 0.0
C725 C 0.58765 0.82306 0.38788 0.0
H726 H 0.5665 0.78659 0.32017 0.0
C727 C 0.62233 0.78193 0.24839 0.0
C728 C 0.61271 0.77597 0.21071 0.0
C729 C 0.61468 0.79108 0.28458 0.0
C730 C 0.57258 0.79689 0.3382 0.0
H731 H 0.53793 0.81103 0.53269 0.0
H732 H 0.55421 0.79997 0.46832 0.0
H733 H 0.55196 0.79933 0.38538 0.0
H734 H 0.58773 0.77592 0.18024 0.0
H735 H 0.57462 0.79204 0.24216 0.0
H736 H 0.60823 0.82064 0.33981 0.0
C737 C 0.55401 0.81345 0.47363 0.0
C738 C 0.5643 0.80407 0.37621 0.0
C739 C 0.54471 0.81983 0.51088 0.0
C740 C 0.5955 0.78009 0.20898 0.0
C741 C 0.58793 0.78928 0.24478 0.0
C742 C 0.596 0.81581 0.34965 0.0
C743 C 0.56285 0.82423 0.44353 0.0
C744 C 0.57173 0.81717 0.40191 0.0
C745 C 0.59727 0.79452 0.28378 0.0
C746 C 0.58856 0.8026 0.32427 0.0
H747 H 0.55295 0.86152 0.49619 0.0
H748 H 0.56919 0.85032 0.43042 0.0
H749 H 0.59381 0.83306 0.40695 0.0
H750 H 0.6356 0.77895 0.25089 0.0
H751 H 0.62229 0.79483 0.31407 0.0
C752 C 0.61893 0.69241 0.22208 0.0
C753 C 0.63202 0.70428 0.22061 0.0
C754 C 0.61727 0.68154 0.25984 0.0
C755 C 0.62568 0.68101 0.38372 0.0
H756 H 0.60696 0.63606 0.37601 0.0
C757 C 0.59752 0.65187 0.54572 0.0
C758 C 0.58129 0.64532 0.53933 0.0
C759 C 0.60818 0.65422 0.50778 0.0
C760 C 0.6122 0.64858 0.37879 0.0
H761 H 0.65419 0.71345 0.25643 0.0
H762 H 0.65121 0.69445 0.32306 0.0
H763 H 0.61802 0.64957 0.30601 0.0
H764 H 0.56383 0.63492 0.48933 0.0
H765 H 0.58219 0.63959 0.42236 0.0
H766 H 0.61905 0.68061 0.45548 0.0
C767 C 0.6422 0.69364 0.29484 0.0
C768 C 0.61858 0.6563 0.33874 0.0
C769 C 0.64395 0.70447 0.25668 0.0
C770 C 0.57637 0.63985 0.49501 0.0
C771 C 0.58694 0.64254 0.45671 0.0
C772 C 0.61925 0.67336 0.42359 0.0
C773 C 0.62861 0.68232 0.29726 0.0
C774 C 0.62492 0.67281 0.34055 0.0
C775 C 0.60265 0.65053 0.46243 0.0
C776 C 0.61198 0.65723 0.42147 0.0
H777 H 0.60961 0.69182 0.19459 0.0
H778 H 0.60655 0.67315 0.26078 0.0
H779 H 0.63022 0.69382 0.38626 0.0
H780 H 0.60159 0.65606 0.57979 0.0
H781 H 0.62038 0.65991 0.5137 0.0
C782 C 0.64378 0.31538 0.76434 0.0
C783 C 0.6295 0.31004 0.78909 0.0
C784 C 0.64252 0.32851 0.73175 0.0
C785 C 0.61132 0.36034 0.68451 0.0
H786 H 0.63424 0.35134 0.56852 0.0
C787 C 0.58076 0.38109 0.51325 0.0
C788 C 0.58084 0.36826 0.4797 0.0
C789 C 0.592 0.38046 0.55105 0.0
C790 C 0.6276 0.354 0.60056 0.0
H791 H 0.60288 0.31485 0.80033 0.0
H792 H 0.60052 0.33663 0.74327 0.0
H793 H 0.6435 0.33734 0.6387 0.0
H794 H 0.59376 0.34562 0.45712 0.0
H795 H 0.61238 0.34409 0.52243 0.0
H796 H 0.5941 0.3753 0.64549 0.0
C797 C 0.61289 0.33136 0.74932 0.0
C798 C 0.63318 0.34616 0.64131 0.0
C799 C 0.61419 0.31853 0.78194 0.0
C800 C 0.59313 0.3556 0.48273 0.0
C801 C 0.60413 0.35488 0.52026 0.0
C802 C 0.60536 0.36768 0.64349 0.0
C803 C 0.62691 0.33644 0.72303 0.0
C804 C 0.62441 0.34838 0.68336 0.0
C805 C 0.60342 0.36695 0.55599 0.0
C806 C 0.61275 0.36372 0.60041 0.0
H807 H 0.65579 0.30918 0.76932 0.0
H808 H 0.65368 0.33217 0.71275 0.0
H809 H 0.60477 0.36313 0.71662 0.0
H810 H 0.57154 0.3911 0.51161 0.0
H811 H 0.59126 0.39022 0.57722 0.0
C812 C 0.95913 0.35139 0.03956 0.0
C813 C 0.97245 0.36301 0.03811 0.0
C814 C 0.94824 0.34958 1.00182 0.0
C815 C 0.94958 0.35421 0.87548 0.0
H816 H 0.90395 0.33713 0.88345 0.0
C817 C 0.91996 0.32457 0.71563 0.0
C818 C 0.91327 0.30848 0.72341 0.0
C819 C 0.92253 0.33563 0.75264 0.0
C820 C 0.91666 0.34191 0.88061 0.0
H821 H 0.98395 0.38282 0.99736 0.0
H822 H 0.96471 0.37981 0.93124 0.0
H823 H 0.91722 0.34952 0.95214 0.0
H824 H 0.90273 0.29179 0.77518 0.0
H825 H 0.90752 0.31098 0.84038 0.0
H826 H 0.94942 0.34603 0.80484 0.0
C827 C 0.96289 0.37189 0.96146 0.0
C828 C 0.92428 0.34903 0.91995 0.0
C829 C 0.97383 0.37374 0.99948 0.0
C830 C 0.90774 0.30421 0.76824 0.0
C831 C 0.91055 0.31522 0.80558 0.0
C832 C 0.94199 0.34715 0.83627 0.0
C833 C 0.95036 0.35934 0.96152 0.0
C834 C 0.94103 0.35482 0.91822 0.0
C835 C 0.91877 0.33072 0.79846 0.0
C836 C 0.92559 0.3405 0.83855 0.0
H837 H 0.95763 0.34301 0.069 0.0
H838 H 0.93888 0.3397 0.00319 0.0
H839 H 0.96257 0.35822 0.87285 0.0
H840 H 0.92424 0.32818 0.68126 0.0
H841 H 0.92844 0.34764 0.74567 0.0
C842 C 0.90673 0.70133 0.2426 0.0
C843 C 0.91746 0.69839 0.28053 0.0
C844 C 0.90763 0.69101 0.20312 0.0
C845 C 0.92842 0.6523 0.15472 0.0
H846 H 0.9357 0.68104 0.04786 0.0
C847 C 0.97693 0.63883 0.01003 0.0
C848 C 0.97415 0.6459 0.96602 0.0
C849 C 0.96499 0.64104 0.04545 0.0
C850 C 0.93336 0.67264 0.07678 0.0
H851 H 0.93614 0.68143 0.30927 0.0
H852 H 0.93784 0.66369 0.24101 0.0
H853 H 0.92234 0.69244 0.11641 0.0
H854 H 0.95623 0.65913 0.92257 0.0
H855 H 0.93519 0.66238 0.98343 0.0
H856 H 0.9404 0.63272 0.11545 0.0
C857 C 0.9287 0.6738 0.24112 0.0
C858 C 0.9256 0.67922 0.11628 0.0
C859 C 0.92786 0.6841 0.28021 0.0
C860 C 0.95872 0.65379 0.95658 0.0
C861 C 0.94673 0.65572 0.9915 0.0
C862 C 0.93624 0.64569 0.11507 0.0
C863 C 0.91921 0.67757 0.20124 0.0
C864 C 0.92358 0.66933 0.15637 0.0
C865 C 0.95007 0.65017 0.03698 0.0
C866 C 0.93928 0.65596 0.07617 0.0
H867 H 0.89858 0.71224 0.24201 0.0
H868 H 0.89996 0.69409 0.17316 0.0
H869 H 0.92683 0.64427 0.18483 0.0
H870 H 0.98878 0.63274 0.018 0.0
H871 H 0.96802 0.63665 0.08012 0.0
C872 C 0.50909 0.32282 0.4863 0.0
C873 C 0.5108 0.34036 0.48258 0.0
C874 C 0.49973 0.31564 0.52228 0.0
C875 C 0.46792 0.32413 0.61438 0.0
H876 H 0.48781 0.28429 0.66933 0.0
C877 C 0.46158 0.27694 0.7847 0.0
C878 C 0.44417 0.27378 0.78577 0.0
C879 C 0.46871 0.28658 0.74925 0.0
C880 C 0.48209 0.29549 0.65484 0.0
H881 H 0.50349 0.36415 0.51335 0.0
H882 H 0.48727 0.35154 0.57703 0.0
H883 H 0.50192 0.29817 0.60534 0.0
H884 H 0.42049 0.27893 0.75121 0.0
H885 H 0.43305 0.29565 0.68829 0.0
H886 H 0.4482 0.32148 0.66509 0.0
C887 C 0.49308 0.34335 0.55158 0.0
C888 C 0.49011 0.30335 0.61751 0.0
C889 C 0.50244 0.35059 0.51519 0.0
C890 C 0.43394 0.28115 0.7514 0.0
C891 C 0.44115 0.29076 0.71541 0.0
C892 C 0.45985 0.31621 0.65201 0.0
C893 C 0.49187 0.32575 0.55604 0.0
C894 C 0.48315 0.31774 0.59652 0.0
C895 C 0.45871 0.29322 0.7133 0.0
C896 C 0.46689 0.30181 0.67287 0.0
H897 H 0.51514 0.31451 0.46154 0.0
H898 H 0.49876 0.30207 0.52376 0.0
H899 H 0.46213 0.33512 0.59893 0.0
H900 H 0.46983 0.2717 0.81099 0.0
H901 H 0.48219 0.28858 0.74967 0.0
C902 C 0.5019 0.66175 0.50862 0.0
C903 C 0.51045 0.67205 0.54064 0.0
C904 C 0.49174 0.66893 0.47374 0.0
C905 C 0.48702 0.70935 0.41079 0.0
H906 H 0.44549 0.69038 0.3632 0.0
C907 C 0.43046 0.73102 0.27737 0.0
C908 C 0.44074 0.73856 0.24345 0.0
C909 C 0.43769 0.7214 0.31339 0.0
C910 C 0.457 0.69589 0.37638 0.0
H911 H 0.51413 0.69784 0.56298 0.0
H912 H 0.4963 0.71017 0.5037 0.0
H913 H 0.4601 0.67663 0.42828 0.0
H914 H 0.46642 0.74082 0.21864 0.0
H915 H 0.47878 0.72391 0.27977 0.0
H916 H 0.48395 0.72872 0.36023 0.0
C917 C 0.4978 0.69663 0.50411 0.0
C918 C 0.46547 0.68791 0.41334 0.0
C919 C 0.50801 0.68953 0.53836 0.0
C920 C 0.45816 0.73551 0.24477 0.0
C921 C 0.46528 0.72584 0.28006 0.0
C922 C 0.47861 0.71726 0.37425 0.0
C923 C 0.48987 0.68652 0.47049 0.0
C924 C 0.4806 0.69459 0.43106 0.0
C925 C 0.45528 0.71908 0.31575 0.0
C926 C 0.46358 0.71061 0.35614 0.0
H927 H 0.5035 0.64823 0.50956 0.0
H928 H 0.48587 0.66075 0.44838 0.0
H929 H 0.49875 0.71477 0.42279 0.0
H930 H 0.41699 0.73312 0.27716 0.0
H931 H 0.42961 0.71636 0.3403 0.0
C932 C 0.12141 0.73245 0.23393 0.0
C933 C 0.11039 0.73975 0.26647 0.0
C934 C 0.11512 0.72257 0.19727 0.0
C935 C 0.07836 0.69719 0.16164 0.0
H936 H 0.09165 0.7076 0.0351 0.0
C937 C 0.05254 0.66044 1.00176 0.0
C938 C 0.04604 0.6707 0.96616 0.0
C939 C 0.06221 0.66741 0.03784 0.0
C940 C 0.08788 0.70448 0.07027 0.0
H941 H 0.08416 0.74202 0.28657 0.0
H942 H 0.07334 0.72465 0.22354 0.0
H943 H 0.10512 0.72223 0.10022 0.0
H944 H 0.04512 0.69624 0.93979 0.0
H945 H 0.06216 0.70827 1.002 0.0
H946 H 0.06094 0.67965 0.13177 0.0
C947 C 0.0868 0.72659 0.22609 0.0
C948 C 0.09568 0.71278 0.10755 0.0
C949 C 0.09302 0.73665 0.26207 0.0
C950 C 0.04989 0.68797 0.96669 0.0
C951 C 0.05975 0.69486 1.00223 0.0
C952 C 0.07075 0.68872 0.12443 0.0
C953 C 0.09773 0.71952 0.19301 0.0
C954 C 0.09077 0.70947 0.15364 0.0
C955 C 0.06584 0.68474 0.03863 0.0
C956 C 0.07518 0.69249 0.07824 0.0
H957 H 0.13484 0.73462 0.23627 0.0
H958 H 0.12386 0.71725 0.17238 0.0
H959 H 0.07438 0.69428 0.19677 0.0
H960 H 0.04977 0.64711 1.00247 0.0
H961 H 0.06678 0.65927 0.06528 0.0
C962 C 0.10013 0.26559 0.75987 0.0
C963 C 0.11481 0.27069 0.73656 0.0
C964 C 0.09378 0.27489 0.79706 0.0
C965 C 0.09122 0.31677 0.84693 0.0
H966 H 0.07643 0.29252 0.95657 0.0
C967 C 0.0403 0.32276 0.00643 0.0
C968 C 0.04307 0.33912 0.02323 0.0
C969 C 0.05086 0.31572 0.97297 0.0
C970 C 0.08038 0.29951 0.92612 0.0
H971 H 0.13435 0.28967 0.7341 0.0
H972 H 0.12294 0.30628 0.79921 0.0
H973 H 0.09195 0.27778 0.89607 0.0
H974 H 0.05901 0.36112 0.01681 0.0
H975 H 0.0777 0.34868 0.95804 0.0
H976 H 0.07903 0.3384 0.87643 0.0
C977 C 0.11648 0.29492 0.7885 0.0
C978 C 0.08935 0.29105 0.89156 0.0
C979 C 0.12305 0.28539 0.75149 0.0
C980 C 0.05652 0.34847 0.00465 0.0
C981 C 0.06721 0.34136 0.97095 0.0
C982 C 0.08208 0.32526 0.88156 0.0
C983 C 0.10181 0.28969 0.81176 0.0
C984 C 0.0945 0.29945 0.85102 0.0
C985 C 0.06464 0.32476 0.9553 0.0
C986 C 0.07613 0.31659 0.92096 0.0
H987 H 0.09347 0.25432 0.74942 0.0
H988 H 0.08236 0.27062 0.81389 0.0
H989 H 0.09499 0.32355 0.81595 0.0
H990 H 0.02996 0.31521 0.0194 0.0
H991 H 0.04818 0.30311 0.96088 0.0
C992 C 0.99642 0.26816 0.20774 0.0
C993 C 0.98938 0.28363 0.22071 0.0
C994 C 1.00332 0.25765 0.24153 0.0
C995 C 0.02228 0.24081 0.32154 0.0
H996 H 0.05804 0.27391 0.31484 0.0
C997 C 0.08257 0.21743 0.26548 0.0
C998 C 0.07883 0.22073 0.21846 0.0
C999 C 0.0759 0.22777 0.30027 0.0
C1000 C 0.04825 0.26458 0.31944 0.0
H1001 H 0.97942 0.29776 0.27902 0.0
H1002 H 0.9935 0.28056 0.33796 0.0
H1003 H 0.02885 0.28309 0.31513 0.0
H1004 H 0.07018 0.23988 0.17057 0.0
H1005 H 0.0598 0.25849 0.23054 0.0
H1006 H 0.04164 0.22225 0.3204 0.0
C1007 C 0.99371 0.27651 0.30199 0.0
C1008 C 0.03148 0.26981 0.3195 0.0
C1009 C 0.98605 0.28657 0.26813 0.0
C1010 C 0.07265 0.23667 0.20655 0.0
C1011 C 0.06673 0.2474 0.24119 0.0
C1012 C 0.03906 0.2356 0.32263 0.0
C1013 C 1.0036 0.26278 0.28833 0.0
C1014 C 0.01848 0.25789 0.31574 0.0
C1015 C 0.06655 0.24204 0.28784 0.0
C1016 C 0.05206 0.24741 0.31631 0.0
H1017 H 0.99867 0.26526 0.17146 0.0
H1018 H 0.01075 0.24699 0.23011 0.0
H1019 H 0.01246 0.23143 0.31872 0.0
H1020 H 0.08869 0.20585 0.27549 0.0
H1021 H 0.07629 0.22358 0.33613 0.0
C1022 C 0.01512 0.71562 0.44845 0.0
C1023 C 0.99981 0.7078 0.4593 0.0
C1024 C 0.02546 0.7215 0.48406 0.0
C1025 C 0.04116 0.73942 0.56579 0.0
H1026 H 0.00514 0.77232 0.56485 0.0
C1027 C 0.05819 0.80134 0.50658 0.0
C1028 C 0.05497 0.79673 0.46011 0.0
C1029 C 0.04888 0.79403 0.54258 0.0
C1030 C 0.01531 0.76333 0.56792 0.0
H1031 H 0.98605 0.69528 0.5144 0.0
H1032 H 1.00289 0.70758 0.57714 0.0
H1033 H 0.99839 0.74256 0.56607 0.0
H1034 H 0.03659 0.78547 0.41416 0.0
H1035 H 0.01955 0.77395 0.47625 0.0
H1036 H 0.05803 0.76022 0.5623 0.0
C1037 C 0.00692 0.70921 0.54141 0.0
C1038 C 0.0115 0.7462 0.56867 0.0
C1039 C 0.99704 0.70259 0.50549 0.0
C1040 C 0.03972 0.78873 0.44971 0.0
C1041 C 0.02992 0.78215 0.48553 0.0
C1042 C 0.04499 0.75655 0.56648 0.0
C1043 C 0.02029 0.72003 0.53071 0.0
C1044 C 0.02435 0.73427 0.56165 0.0
C1045 C 0.03558 0.78312 0.53185 0.0
C1046 C 0.03202 0.7685 0.56181 0.0
H1047 H 0.01794 0.71929 0.41302 0.0
H1048 H 0.03589 0.7296 0.47469 0.0
H1049 H 0.05128 0.73045 0.56098 0.0
H1050 H 0.0692 0.80867 0.51529 0.0
H1051 H 0.05329 0.79523 0.5781 0.0
C1052 C 0.55667 0.74202 0.70972 0.0
C1053 C 0.56512 0.7275 0.72465 0.0
C1054 C 0.54867 0.75237 0.74195 0.0
C1055 C 0.52902 0.77006 0.8172 0.0
H1056 H 0.49532 0.73485 0.81763 0.0
C1057 C 0.47057 0.78799 0.74427 0.0
C1058 C 0.47728 0.78411 0.7003 0.0
C1059 C 0.47545 0.77851 0.78302 0.0
C1060 C 0.50448 0.74487 0.82057 0.0
H1061 H 0.57605 0.71539 0.78521 0.0
H1062 H 0.56009 0.73212 0.84154 0.0
H1063 H 0.52493 0.72751 0.8246 0.0
H1064 H 0.48942 0.76486 0.65941 0.0
H1065 H 0.49671 0.74754 0.72589 0.0
H1066 H 0.50872 0.78723 0.80779 0.0
C1067 C 0.55958 0.73542 0.80499 0.0
C1068 C 0.52152 0.74071 0.82445 0.0
C1069 C 0.56829 0.72555 0.77261 0.0
C1070 C 0.48459 0.76831 0.69332 0.0
C1071 C 0.48872 0.75839 0.73166 0.0
C1072 C 0.51199 0.77425 0.8148 0.0
C1073 C 0.54873 0.74812 0.78945 0.0
C1074 C 0.53386 0.75311 0.81695 0.0
C1075 C 0.48612 0.76462 0.77696 0.0
C1076 C 0.49981 0.76148 0.81061 0.0
H1077 H 0.55442 0.74426 0.67308 0.0
H1078 H 0.54047 0.76219 0.72891 0.0
H1079 H 0.53831 0.77985 0.812 0.0
H1080 H 0.46432 0.79993 0.7498 0.0
H1081 H 0.4731 0.78346 0.81753 0.0
C1082 C 0.54222 0.26251 0.9787 0.0
C1083 C 0.55928 0.26661 0.97904 0.0
C1084 C 0.53593 0.2511 0.01118 0.0
C1085 C 0.52466 0.22557 0.08018 0.0
H1086 H 0.54972 0.187 0.03614 0.0
C1087 C 0.48731 0.18685 0.98403 0.0
C1088 C 0.49271 0.19421 0.94217 0.0
C1089 C 0.49885 0.18412 0.02002 0.0
C1090 C 0.54273 0.19737 0.0511 0.0
H1091 H 0.583 0.26343 0.0149 0.0
H1092 H 0.57213 0.24297 0.07122 0.0
H1093 H 0.56403 0.21365 0.04685 0.0
H1094 H 0.51436 0.20026 0.90012 0.0
H1095 H 0.53452 0.19536 0.96178 0.0
H1096 H 0.50306 0.20992 0.07951 0.0
C1097 C 0.56353 0.24873 0.04665 0.0
C1098 C 0.55092 0.21278 0.05689 0.0
C1099 C 0.56971 0.2604 0.01466 0.0
C1100 C 0.50994 0.19516 0.93285 0.0
C1101 C 0.5215 0.19214 0.9684 0.0
C1102 C 0.5166 0.21013 0.07512 0.0
C1103 C 0.54674 0.24339 0.04382 0.0
C1104 C 0.54138 0.22737 0.06543 0.0
C1105 C 0.5158 0.18867 0.01393 0.0
C1106 C 0.52505 0.19681 0.0528 0.0
H1107 H 0.53413 0.26708 0.95111 0.0
H1108 H 0.52298 0.24706 0.00748 0.0
H1109 H 0.51721 0.23653 0.08909 0.0
H1110 H 0.474 0.18531 0.99089 0.0
H1111 H 0.49413 0.18098 0.0543 0.0
C1112 C 0.08182 0.79206 0.75345 0.0
C1113 C 0.07663 0.78724 0.79826 0.0
C1114 C 0.07786 0.78189 0.71526 0.0
C1115 C 0.04302 0.77317 0.68097 0.0
H1116 H 0.03321 0.72557 0.68407 0.0
C1117 C 0.99935 0.74017 0.79064 0.0
C1118 C 0.99143 0.72523 0.7765 0.0
C1119 C 0.00728 0.75039 0.75801 0.0
C1120 C 0.03578 0.7389 0.68085 0.0
H1121 H 0.06782 0.76661 0.84038 0.0
H1122 H 0.06172 0.74847 0.77466 0.0
H1123 H 0.06226 0.73501 0.68935 0.0
H1124 H 0.98101 0.71248 0.71615 0.0
H1125 H 0.99712 0.72884 0.65954 0.0
H1126 H 0.01638 0.77707 0.68156 0.0
C1127 C 0.06808 0.76027 0.76795 0.0
C1128 C 0.05248 0.74428 0.68373 0.0
C1129 C 0.0715 0.77066 0.80588 0.0
C1130 C 0.98856 0.72281 0.72853 0.0
C1131 C 0.9973 0.73251 0.69584 0.0
C1132 C 0.02632 0.7678 0.67943 0.0
C1133 C 0.06927 0.76668 0.72234 0.0
C1134 C 0.05599 0.76146 0.68929 0.0
C1135 C 0.0077 0.74562 0.71097 0.0
C1136 C 0.02262 0.75067 0.68405 0.0
H1137 H 0.08627 0.80474 0.74733 0.0
H1138 H 0.07912 0.78703 0.68053 0.0
H1139 H 0.04534 0.78654 0.6843 0.0
H1140 H 1.00127 0.74291 0.82716 0.0
H1141 H 0.01511 0.76059 0.77055 0.0
C1142 C 0.54529 0.73623 0.00737 0.0
C1143 C 0.56258 0.73454 1.00035 0.0
C1144 C 0.53603 0.74727 0.97962 0.0
C1145 C 0.51919 0.77491 0.92704 0.0
H1146 H 0.54555 0.81325 0.96713 0.0
C1147 C 0.48542 0.81877 0.03076 0.0
C1148 C 0.49112 0.81237 0.07354 0.0
C1149 C 0.49612 0.81876 0.99219 0.0
C1150 C 0.53806 0.80297 0.9536 0.0
H1151 H 0.58349 0.74082 0.95556 0.0
H1152 H 0.56738 0.76039 0.90712 0.0
H1153 H 0.55971 0.78751 0.94442 0.0
H1154 H 0.51294 0.80486 0.11301 0.0
H1155 H 0.53183 0.80526 0.04659 0.0
H1156 H 0.49751 0.78976 0.94097 0.0
C1157 C 0.5609 0.75329 0.93381 0.0
C1158 C 0.54616 0.7881 0.94065 0.0
C1159 C 0.57008 0.7421 0.96134 0.0
C1160 C 0.50831 0.80951 0.07998 0.0
C1161 C 0.51911 0.80985 0.04174 0.0
C1162 C 0.51113 0.78986 0.93899 0.0
C1163 C 0.5441 0.75695 0.94507 0.0
C1164 C 0.53668 0.77343 0.93241 0.0
C1165 C 0.51264 0.81268 0.99671 0.0
C1166 C 0.52046 0.80325 0.95794 0.0
H1167 H 0.53939 0.73051 0.03742 0.0
H1168 H 0.52311 0.74978 0.98943 0.0
H1169 H 0.5116 0.76392 0.91955 0.0
H1170 H 0.47216 0.82142 0.02572 0.0
H1171 H 0.49086 0.82121 0.95805 0.0
C1172 C 0.51228 0.23357 0.25207 0.0
C1173 C 0.5109 0.21608 0.25222 0.0
C1174 C 0.5235 0.24139 0.22162 0.0
C1175 C 0.54954 0.25609 0.15894 0.0
H1176 H 0.59007 0.23566 0.20806 0.0
C1177 C 0.58826 0.29805 0.25465 0.0
C1178 C 0.58272 0.29288 0.29884 0.0
C1179 C 0.58944 0.28637 0.2184 0.0
C1180 C 0.57915 0.24142 0.19202 0.0
H1181 H 0.51842 0.19304 0.21822 0.0
H1182 H 0.53862 0.20657 0.16605 0.0
H1183 H 0.56543 0.2184 0.19438 0.0
H1184 H 0.57814 0.27144 0.34308 0.0
H1185 H 0.58057 0.251 0.281 0.0
H1186 H 0.56254 0.27942 0.16221 0.0
C1187 C 0.53096 0.21433 0.18868 0.0
C1188 C 0.56491 0.23152 0.18434 0.0
C1189 C 0.51943 0.20661 0.21834 0.0
C1190 C 0.58188 0.2757 0.30882 0.0
C1191 C 0.58345 0.26399 0.27304 0.0
C1192 C 0.5638 0.26595 0.16642 0.0
C1193 C 0.53372 0.23172 0.19164 0.0
C1194 C 0.54946 0.23925 0.17344 0.0
C1195 C 0.58557 0.26939 0.22665 0.0
C1196 C 0.57781 0.25902 0.18952 0.0
H1197 H 0.50586 0.24097 0.27824 0.0
H1198 H 0.52544 0.2548 0.22533 0.0
H1199 H 0.53796 0.26218 0.14832 0.0
H1200 H 0.5898 0.3113 0.24701 0.0
H1201 H 0.59141 0.29087 0.18324 0.0
C1202 C 0.04265 0.22892 0.54487 0.0
C1203 C 0.05809 0.22198 0.53122 0.0
C1204 C 0.03204 0.23608 0.51174 0.0
C1205 C 0.01368 0.2536 0.43172 0.0
H1206 H 0.04415 0.29165 0.43558 0.0
C1207 C 0.98525 0.30882 0.4928 0.0
C1208 C 0.99068 0.30584 0.53863 0.0
C1209 C 0.99575 0.30462 0.45554 0.0
C1210 C 0.03552 0.28119 0.43184 0.0
H1211 H 0.07224 0.21279 0.47193 0.0
H1212 H 0.0548 0.22729 0.41423 0.0
H1213 H 0.05542 0.26319 0.43664 0.0
H1214 H 0.01226 0.30104 0.58218 0.0
H1215 H 0.03084 0.29446 0.51791 0.0
H1216 H 0.99374 0.27144 0.43238 0.0
C1217 C 0.05089 0.22721 0.45032 0.0
C1218 C 0.04196 0.26485 0.43258 0.0
C1219 C 0.06106 0.2193 0.48348 0.0
C1220 C 0.00776 0.30293 0.54699 0.0
C1221 C 0.0184 0.29922 0.50983 0.0
C1222 C 0.00726 0.26991 0.43002 0.0
C1223 C 0.03698 0.23667 0.46481 0.0
C1224 C 0.031 0.25107 0.43722 0.0
C1225 C 0.01178 0.29788 0.46446 0.0
C1226 C 0.0181 0.28378 0.43573 0.0
H1227 H 0.03976 0.23073 0.58134 0.0
H1228 H 0.02127 0.24324 0.52375 0.0
H1229 H 0.00503 0.24316 0.43515 0.0
H1230 H 0.97213 0.31162 0.48595 0.0
H1231 H 0.99044 0.30405 0.42084 0.0
C1232 C 0.03572 0.06675 0.04524 0.0
C1233 C 0.02302 0.07198 0.07616 0.0
C1234 C 0.03539 0.05062 0.02554 0.0
C1235 C 0.01953 0.00778 0.0467 0.0
H1236 H 0.02887 1.00079 0.91583 0.0
C1237 C 0.01396 0.94183 0.96021 0.0
C1238 C 0.02507 0.93798 0.92382 0.0
C1239 C 0.01352 0.95809 0.97925 0.0
C1240 C 0.0265 1.00241 0.95264 0.0
H1241 H 1.00021 0.06413 0.11108 0.0
H1242 H 0.99973 0.03592 0.07715 0.0
H1243 H 0.02845 0.02923 0.94719 0.0
H1244 H 0.04452 0.94783 0.87908 0.0
H1245 H 0.04436 0.97596 0.91311 0.0
H1246 H 0.01798 0.98099 0.05264 0.0
C1247 C 0.00986 0.04437 0.06784 0.0
C1248 C 0.02618 0.01879 0.97055 0.0
C1249 C 0.01009 0.06056 0.08708 0.0
C1250 C 0.03586 0.95056 0.90719 0.0
C1251 C 0.0356 0.96672 0.92647 0.0
C1252 C 0.02004 0.99136 0.02893 0.0
C1253 C 0.02256 0.03916 0.03699 0.0
C1254 C 0.02269 0.0217 0.01779 0.0
C1255 C 0.02427 0.97084 0.96243 0.0
C1256 C 0.02357 0.98839 0.98159 0.0
H1257 H 0.04631 0.0748 0.03762 0.0
H1258 H 0.04554 0.04691 1.00257 0.0
H1259 H 0.01701 0.00955 0.08341 0.0
H1260 H 0.00529 0.93239 0.97289 0.0
H1261 H 1.00443 0.96074 0.00629 0.0
C1262 C 0.21176 0.74265 0.28567 0.0
C1263 C 0.20825 0.75329 0.32337 0.0
C1264 C 0.22799 0.74207 0.26642 0.0
C1265 C 0.27261 0.7531 0.29523 0.0
H1266 H 0.27995 0.74587 0.16342 0.0
C1267 C 0.33752 0.76248 0.20731 0.0
C1268 C 0.34281 0.75022 0.1752 0.0
C1269 C 0.32118 0.76221 0.22557 0.0
C1270 C 0.27811 0.74774 0.2004 0.0
H1271 H 0.21864 0.77182 0.3701 0.0
H1272 H 0.24674 0.77143 0.3358 0.0
H1273 H 0.25126 0.7471 0.19366 0.0
H1274 H 0.33478 0.72841 0.136 0.0
H1275 H 0.30613 0.72804 0.16746 0.0
H1276 H 0.29947 0.75412 0.30165 0.0
C1277 C 0.23724 0.76314 0.32153 0.0
C1278 C 0.26163 0.74842 0.21783 0.0
C1279 C 0.22111 0.76354 0.34097 0.0
C1280 C 0.33117 0.7379 0.16109 0.0
C1281 C 0.31474 0.73775 0.17894 0.0
C1282 C 0.28904 0.75261 0.27771 0.0
C1283 C 0.24105 0.7522 0.28443 0.0
C1284 C 0.25861 0.75119 0.26553 0.0
C1285 C 0.30955 0.7499 0.21145 0.0
C1286 C 0.29201 0.74998 0.23008 0.0
H1287 H 0.20207 0.7344 0.27219 0.0
H1288 H 0.2304 0.73332 0.23836 0.0
H1289 H 0.27093 0.75483 0.3323 0.0
H1290 H 0.34576 0.77267 0.21723 0.0
H1291 H 0.31749 0.77198 0.24976 0.0
C1292 C 0.51978 0.06442 0.46048 0.0
C1293 C 0.53178 0.06882 0.42663 0.0
C1294 C 0.52001 0.04842 0.48112 0.0
C1295 C 0.53397 0.00491 0.45844 0.0
H1296 H 0.52752 0.99845 0.59084 0.0
C1297 C 0.5411 0.9393 0.54509 0.0
C1298 C 0.53054 0.93549 0.58272 0.0
C1299 C 0.54129 0.95555 0.52605 0.0
C1300 C 0.52908 0.99995 0.55366 0.0
H1301 H 0.55337 0.05982 0.38806 0.0
H1302 H 0.55373 0.03196 0.42372 0.0
H1303 H 0.52771 0.02683 0.55876 0.0
H1304 H 0.51192 0.94545 0.62997 0.0
H1305 H 0.51173 0.97363 0.59615 0.0
H1306 H 0.53502 0.97809 0.45294 0.0
C1307 C 0.54415 0.04085 0.4344 0.0
C1308 C 0.52925 0.01628 0.53532 0.0
C1309 C 0.54401 0.05685 0.41416 0.0
C1310 C 0.52014 0.94815 0.60086 0.0
C1311 C 0.52018 0.96432 0.58166 0.0
C1312 C 0.53364 0.98857 0.47668 0.0
C1313 C 0.53205 0.03635 0.4678 0.0
C1314 C 0.53175 0.01898 0.4875 0.0
C1315 C 0.53087 0.96835 0.54419 0.0
C1316 C 0.53122 0.98582 0.52461 0.0
H1317 H 0.50978 0.07302 0.46967 0.0
H1318 H 0.51035 0.04528 0.50626 0.0
H1319 H 0.53567 0.00651 0.42131 0.0
H1320 H 0.54951 0.92982 0.53129 0.0
H1321 H 0.54992 0.95817 0.49783 0.0
C1322 C 0.3411 0.2698 0.80867 0.0
C1323 C 0.34519 0.25834 0.84402 0.0
C1324 C 0.32487 0.27003 0.78929 0.0
C1325 C 0.28077 0.25555 0.8127 0.0
H1326 H 0.27438 0.26557 0.68193 0.0
C1327 C 0.21693 0.24621 0.71624 0.0
C1328 C 0.21202 0.25886 0.68481 0.0
C1329 C 0.23291 0.24654 0.73709 0.0
C1330 C 0.27592 0.2629 0.71864 0.0
H1331 H 0.33571 0.23816 0.88686 0.0
H1332 H 0.3076 0.23807 0.85241 0.0
H1333 H 0.30272 0.26517 0.71435 0.0
H1334 H 0.22019 0.28168 0.65054 0.0
H1335 H 0.24804 0.28222 0.68656 0.0
H1336 H 0.25393 0.25297 0.81653 0.0
C1337 C 0.31666 0.24719 0.84002 0.0
C1338 C 0.29222 0.26271 0.73735 0.0
C1339 C 0.33281 0.2471 0.85958 0.0
C1340 C 0.22353 0.2718 0.67478 0.0
C1341 C 0.23953 0.27206 0.69523 0.0
C1342 C 0.26449 0.25559 0.79385 0.0
C1343 C 0.31237 0.25874 0.80479 0.0
C1344 C 0.29492 0.25904 0.78471 0.0
C1345 C 0.2445 0.25936 0.72639 0.0
C1346 C 0.26184 0.2593 0.7466 0.0
H1347 H 0.35036 0.27883 0.79688 0.0
H1348 H 0.32205 0.27932 0.76289 0.0
H1349 H 0.2822 0.253 0.84948 0.0
H1350 H 0.20874 0.23568 0.72339 0.0
H1351 H 0.23642 0.23641 0.76035 0.0
C1352 C 0.72276 0.26774 0.84205 0.0
C1353 C 0.7097 0.25726 0.82664 0.0
C1354 C 0.73888 0.26657 0.82283 0.0
C1355 C 0.76333 0.24842 0.72337 0.0
H1356 H 0.80094 0.25605 0.80684 0.0
C1357 C 0.83285 0.23512 0.67142 0.0
C1358 C 0.8446 0.24778 0.68221 0.0
C1359 C 0.81642 0.2357 0.68912 0.0
C1360 C 0.79058 0.25398 0.78299 0.0
H1361 H 0.70326 0.23721 0.77911 0.0
H1362 H 0.73156 0.23479 0.74583 0.0
H1363 H 0.7723 0.25809 0.83627 0.0
H1364 H 0.84774 0.27147 0.71857 0.0
H1365 H 0.81946 0.27208 0.7511 0.0
H1366 H 0.78183 0.24394 0.67039 0.0
C1367 C 0.72928 0.2443 0.77201 0.0
C1368 C 0.77409 0.25524 0.79977 0.0
C1369 C 0.71303 0.24567 0.79094 0.0
C1370 C 0.83944 0.26105 0.71127 0.0
C1371 C 0.82308 0.26152 0.72948 0.0
C1372 C 0.77987 0.24696 0.70673 0.0
C1373 C 0.74254 0.25459 0.78819 0.0
C1374 C 0.76016 0.25269 0.77015 0.0
C1375 C 0.81131 0.24894 0.71829 0.0
C1376 C 0.7937 0.24988 0.73625 0.0
H1377 H 0.72048 0.27681 0.86943 0.0
H1378 H 0.74849 0.27505 0.83547 0.0
H1379 H 0.75304 0.24655 0.69923 0.0
H1380 H 0.83635 0.22483 0.64874 0.0
H1381 H 0.80771 0.22576 0.68003 0.0
C1382 C 0.84175 0.76424 0.29992 0.0
C1383 C 0.84564 0.75352 0.33715 0.0
C1384 C 0.82545 0.76448 0.281 0.0
C1385 C 0.78106 0.75209 0.30869 0.0
H1386 H 0.7742 0.75979 0.17691 0.0
C1387 C 0.71625 0.74397 0.21551 0.0
C1388 C 0.71192 0.75626 0.18239 0.0
C1389 C 0.73228 0.74392 0.23619 0.0
C1390 C 0.77589 0.75776 0.2139 0.0
H1391 H 0.83579 0.73465 0.38374 0.0
H1392 H 0.80755 0.73454 0.35006 0.0
H1393 H 0.80271 0.75877 0.20799 0.0
H1394 H 0.72102 0.77815 0.14543 0.0
H1395 H 0.74889 0.77805 0.18117 0.0
H1396 H 0.75415 0.75076 0.31415 0.0
C1397 C 0.81682 0.74307 0.33582 0.0
C1398 C 0.79228 0.75723 0.23182 0.0
C1399 C 0.83303 0.74298 0.35492 0.0
C1400 C 0.72394 0.76855 0.17091 0.0
C1401 C 0.73995 0.76843 0.19119 0.0
C1402 C 0.76467 0.75246 0.29064 0.0
C1403 C 0.81269 0.75395 0.29885 0.0
C1404 C 0.79515 0.75443 0.27955 0.0
C1405 C 0.74442 0.756 0.22365 0.0
C1406 C 0.76186 0.75538 0.24305 0.0
H1407 H 0.85118 0.77275 0.28642 0.0
H1408 H 0.82278 0.77326 0.25317 0.0
H1409 H 0.78264 0.75022 0.34575 0.0
H1410 H 0.7076 0.73394 0.22398 0.0
H1411 H 0.73539 0.73404 0.26065 0.0
C1412 C 0.51133 0.5617 0.59988 0.0
C1413 C 0.5238 0.57339 0.58723 0.0
C1414 C 0.51094 0.54561 0.58014 0.0
C1415 C 0.5255 0.52067 0.47952 0.0
H1416 H 0.51928 0.48249 0.5616 0.0
C1417 C 0.53425 0.45272 0.41288 0.0
C1418 C 0.52382 0.44005 0.43072 0.0
C1419 C 0.5343 0.46881 0.43258 0.0
C1420 C 0.52078 0.49297 0.53794 0.0
H1421 H 0.54611 0.57684 0.54487 0.0
H1422 H 0.54506 0.54904 0.50907 0.0
H1423 H 0.5188 0.51091 0.59338 0.0
H1424 H 0.505 0.43421 0.4824 0.0
H1425 H 0.5047 0.46245 0.51665 0.0
H1426 H 0.52714 0.5029 0.4239 0.0
C1427 C 0.53539 0.55248 0.53385 0.0
C1428 C 0.52055 0.5093 0.55627 0.0
C1429 C 0.53588 0.56853 0.55402 0.0
C1430 C 0.51339 0.44373 0.46873 0.0
C1431 C 0.51327 0.45992 0.48825 0.0
C1432 C 0.52555 0.50436 0.46108 0.0
C1433 C 0.52303 0.54074 0.54706 0.0
C1434 C 0.52298 0.52336 0.52733 0.0
C1435 C 0.52366 0.47276 0.47024 0.0
C1436 C 0.5233 0.49022 0.49002 0.0
H1437 H 0.50193 0.56499 0.6256 0.0
H1438 H 0.50116 0.53695 0.59082 0.0
H1439 H 0.52719 0.53122 0.45615 0.0
H1440 H 0.54239 0.45011 0.38352 0.0
H1441 H 0.54275 0.47813 0.41823 0.0
C1442 C 0.04347 0.55966 0.91449 0.0
C1443 C 0.03099 0.5715 0.92605 0.0
C1444 C 0.04331 0.54349 0.93375 0.0
C1445 C 0.02704 0.51831 0.03159 0.0
H1446 H 0.03354 0.48052 0.94824 0.0
C1447 C 0.01741 0.45015 0.09534 0.0
C1448 C 0.028 0.43754 0.07783 0.0
C1449 C 0.01743 0.46628 0.07588 0.0
C1450 C 0.03194 0.49088 0.97227 0.0
H1451 H 0.00819 0.57523 0.96617 0.0
H1452 H 0.00828 0.54727 1.00125 0.0
H1453 H 0.03476 0.50911 0.91786 0.0
H1454 H 0.04711 0.43182 0.02685 0.0
H1455 H 0.04755 0.46013 0.99307 0.0
H1456 H 0.02462 0.50024 0.08624 0.0
C1457 C 0.01835 0.55063 0.97762 0.0
C1458 C 0.0326 0.50731 0.95473 0.0
C1459 C 0.0184 0.56677 0.95789 0.0
C1460 C 0.03859 0.4413 0.04023 0.0
C1461 C 0.03879 0.45752 0.021 0.0
C1462 C 0.02658 0.5019 0.04926 0.0
C1463 C 0.03067 0.53871 0.96527 0.0
C1464 C 0.03011 0.52124 0.98415 0.0
C1465 C 0.02832 0.47033 0.03886 0.0
C1466 C 0.02894 0.48789 0.01985 0.0
H1467 H 0.05327 0.56286 0.88987 0.0
H1468 H 0.05308 0.53469 0.92383 0.0
H1469 H 0.02528 0.52875 0.0553 0.0
H1470 H 0.00918 0.44749 0.12444 0.0
H1471 H 0.00889 0.47556 0.09006 0.0
C1472 C 0.07167 0.13316 0.28751 0.0
C1473 C 0.07841 0.13326 0.24247 0.0
C1474 C 0.0818 0.13745 0.32559 0.0
C1475 C 0.12515 0.14922 0.3641 0.0
H1476 H 0.10195 0.18724 0.41911 0.0
C1477 C 0.14854 0.1942 0.51432 0.0
C1478 C 0.14457 0.21122 0.50719 0.0
C1479 C 0.14384 0.1821 0.48122 0.0
C1480 C 0.10861 0.17666 0.40409 0.0
H1481 H 0.10117 0.13616 0.20206 0.0
H1482 H 0.11895 0.14319 0.26837 0.0
H1483 H 0.08659 0.16809 0.36883 0.0
H1484 H 0.13391 0.22917 0.45897 0.0
H1485 H 0.12609 0.20823 0.4009 0.0
H1486 H 0.14732 0.15827 0.39922 0.0
C1487 C 0.10595 0.1398 0.2747 0.0
C1488 C 0.09974 0.1655 0.37588 0.0
C1489 C 0.09579 0.13565 0.23668 0.0
C1490 C 0.13741 0.21616 0.46474 0.0
C1491 C 0.13271 0.20415 0.43188 0.0
C1492 C 0.13402 0.16033 0.3931 0.0
C1493 C 0.0988 0.14187 0.31902 0.0
C1494 C 0.10793 0.1518 0.35487 0.0
C1495 C 0.135 0.18695 0.44099 0.0
C1496 C 0.12589 0.17439 0.41234 0.0
H1497 H 0.05823 0.13175 0.29266 0.0
H1498 H 0.07599 0.13876 0.35949 0.0
H1499 H 0.13179 0.1388 0.34822 0.0
H1500 H 0.15362 0.19008 0.54741 0.0
H1501 H 0.14571 0.16891 0.48908 0.0
C1502 C 0.14464 0.8022 0.52728 0.0
C1503 C 0.14188 0.80594 0.4802 0.0
C1504 C 0.14148 0.81443 0.56141 0.0
C1505 C 0.11094 0.84702 0.57829 0.0
H1506 H 0.13496 0.85776 0.6917 0.0
C1507 C 0.0752 0.87744 0.72972 0.0
C1508 C 0.07841 0.86955 0.77243 0.0
C1509 C 0.08643 0.87527 0.69238 0.0
C1510 C 0.128 0.85485 0.66032 0.0
H1511 H 0.13489 0.82544 0.43134 0.0
H1512 H 0.1295 0.84672 0.49065 0.0
H1513 H 0.14919 0.84208 0.63004 0.0
H1514 H 0.09641 0.85464 0.81121 0.0
H1515 H 0.11553 0.85059 0.74716 0.0
H1516 H 0.08937 0.8584 0.60926 0.0
C1517 C 0.13411 0.8345 0.50137 0.0
C1518 C 0.13624 0.84593 0.62498 0.0
C1519 C 0.13736 0.82238 0.46748 0.0
C1520 C 0.09363 0.86085 0.7785 0.0
C1521 C 0.10471 0.85862 0.74155 0.0
C1522 C 0.10259 0.85559 0.61391 0.0
C1523 C 0.13534 0.83041 0.54871 0.0
C1524 C 0.12766 0.84165 0.58403 0.0
C1525 C 0.10095 0.86512 0.69728 0.0
C1526 C 0.11084 0.85922 0.65608 0.0
H1527 H 0.14768 0.78949 0.5379 0.0
H1528 H 0.1424 0.81093 0.59775 0.0
H1529 H 0.10395 0.84373 0.54721 0.0
H1530 H 0.06349 0.88412 0.72414 0.0
H1531 H 0.08327 0.88081 0.65909 0.0
C1532 C 0.42114 0.82204 0.03656 0.0
C1533 C 0.41234 0.80684 0.03134 0.0
C1534 C 0.42414 0.83247 0.99856 0.0
C1535 C 0.42861 0.82874 0.87116 0.0
H1536 H 0.4413 0.87568 0.88273 0.0
C1537 C 0.45942 0.86289 0.71952 0.0
C1538 C 0.47582 0.86832 0.73003 0.0
C1539 C 0.44796 0.8594 0.75493 0.0
C1540 C 0.43773 0.8626 0.879 0.0
H1541 H 0.39841 0.79135 0.983 0.0
H1542 H 0.40298 0.81003 0.91616 0.0
H1543 H 0.42586 0.86198 0.94574 0.0
H1544 H 0.49272 0.87558 0.78549 0.0
H1545 H 0.47237 0.86986 0.84803 0.0
H1546 H 0.44043 0.82947 0.80429 0.0
C1547 C 0.40806 0.81364 0.94966 0.0
C1548 C 0.42894 0.85467 0.91513 0.0
C1549 C 0.40514 0.80305 0.98804 0.0
C1550 C 0.48003 0.87179 0.77647 0.0
C1551 C 0.46844 0.86835 0.81217 0.0
C1552 C 0.43707 0.83676 0.83477 0.0
C1553 C 0.41828 0.82811 0.95403 0.0
C1554 C 0.4247 0.83745 0.91238 0.0
C1555 C 0.45262 0.8613 0.80169 0.0
C1556 C 0.44207 0.85365 0.83873 0.0
H1557 H 0.42685 0.82529 0.06963 0.0
H1558 H 0.4322 0.84327 0.00384 0.0
H1559 H 0.42595 0.81545 0.86771 0.0
H1560 H 0.45595 0.85996 0.68395 0.0
H1561 H 0.43581 0.85414 0.74586 0.0
C1562 C 0.47967 0.13174 0.22178 0.0
C1563 C 0.47662 0.135 0.269 0.0
C1564 C 0.46713 0.13504 0.18855 0.0
C1565 C 0.43489 0.16644 0.17372 0.0
H1566 H 0.42398 0.14319 0.05926 0.0
C1567 C 0.40473 0.2033 0.02386 0.0
C1568 C 0.41257 0.20033 0.98094 0.0
C1569 C 0.40681 0.19182 0.06065 0.0
C1570 C 0.42694 0.14993 0.09094 0.0
H1571 H 0.45792 0.14294 0.3191 0.0
H1572 H 0.43605 0.14845 0.26144 0.0
H1573 H 0.43951 0.12848 0.1204 0.0
H1574 H 0.42725 0.1824 0.94125 0.0
H1575 H 0.43116 0.16286 0.00438 0.0
H1576 H 0.42369 0.18824 0.1436 0.0
C1577 C 0.44801 0.14342 0.24988 0.0
C1578 C 0.43576 0.14142 0.12602 0.0
C1579 C 0.46045 0.14006 0.2829 0.0
C1580 C 0.42108 0.18504 0.97409 0.0
C1581 C 0.42324 0.17371 0.01054 0.0
C1582 C 0.42638 0.17504 0.1384 0.0
C1583 C 0.45149 0.14179 0.20222 0.0
C1584 C 0.44014 0.14971 0.16737 0.0
C1585 C 0.41684 0.17725 0.05505 0.0
C1586 C 0.4227 0.16709 0.09585 0.0
H1587 H 0.49217 0.12829 0.21016 0.0
H1588 H 0.47021 0.13378 0.152 0.0
H1589 H 0.43826 0.17325 0.20502 0.0
H1590 H 0.39818 0.21503 0.03014 0.0
H1591 H 0.40132 0.19482 0.0941 0.0
C1592 C 0.92957 0.7811 0.51376 0.0
C1593 C 0.94044 0.77183 0.48486 0.0
C1594 C 0.93613 0.79131 0.54953 0.0
C1595 C 0.97431 0.79435 0.62248 0.0
H1596 H 0.95858 0.83886 0.65632 0.0
C1597 C 0.99941 0.85258 0.7439 0.0
C1598 C 0.00538 0.84288 0.78133 0.0
C1599 C 0.98937 0.84516 0.7091 0.0
C1600 C 0.96315 0.82647 0.64711 0.0
H1601 H 0.96675 0.76687 0.46927 0.0
H1602 H 0.97794 0.78458 0.53014 0.0
H1603 H 0.94522 0.82376 0.59139 0.0
H1604 H 1.00436 0.81828 0.81372 0.0
H1605 H 0.98669 0.80563 0.75454 0.0
H1606 H 0.99239 0.79697 0.67682 0.0
C1607 C 0.9644 0.78372 0.52641 0.0
C1608 C 0.95539 0.81776 0.61025 0.0
C1609 C 0.95792 0.77358 0.4912 0.0
C1610 C 1.00021 0.82603 0.7849 0.0
C1611 C 0.99013 0.81873 0.75074 0.0
C1612 C 0.98198 0.80296 0.65905 0.0
C1613 C 0.95365 0.79238 0.55688 0.0
C1614 C 0.96102 0.80164 0.59726 0.0
C1615 C 0.98507 0.82797 0.71145 0.0
C1616 C 0.97654 0.81913 0.67204 0.0
H1617 H 0.91606 0.78005 0.50975 0.0
H1618 H 0.92751 0.79784 0.57243 0.0
H1619 H 0.97885 0.78187 0.614 0.0
H1620 H 1.00324 0.86557 0.74021 0.0
H1621 H 0.98569 0.85264 0.67931 0.0
C1622 C 0.95748 0.22651 0.53742 0.0
C1623 C 0.94033 0.23078 0.5355 0.0
C1624 C 0.96492 0.21679 0.50258 0.0
C1625 C 0.98038 0.20815 0.41045 0.0
H1626 H 0.95922 0.17161 0.3431 0.0
C1627 C 0.00973 0.18355 0.24201 0.0
C1628 C 0.01046 0.16608 0.23425 0.0
C1629 C 0.99993 0.19028 0.27774 0.0
C1630 C 0.96536 0.18171 0.3618 0.0
H1631 H 0.91733 0.22749 0.49616 0.0
H1632 H 0.93042 0.2106 0.43429 0.0
H1633 H 0.94451 0.18476 0.40879 0.0
H1634 H 1.00083 0.14204 0.25754 0.0
H1635 H 0.98371 0.15387 0.32096 0.0
H1636 H 1.0013 0.20506 0.3647 0.0
C1637 C 0.93809 0.21466 0.46334 0.0
C1638 C 0.95684 0.18938 0.39919 0.0
C1639 C 0.93055 0.22433 0.49879 0.0
C1640 C 1.00056 0.15554 0.26248 0.0
C1641 C 0.99072 0.16234 0.29876 0.0
C1642 C 0.98884 0.20054 0.3734 0.0
C1643 C 0.95552 0.21117 0.46411 0.0
C1644 C 0.96427 0.20272 0.42413 0.0
C1645 C 0.99058 0.17981 0.30746 0.0
C1646 C 0.98145 0.1873 0.34817 0.0
H1647 H 0.96535 0.23109 0.5655 0.0
H1648 H 0.97823 0.21399 0.5054 0.0
H1649 H 0.98648 0.21852 0.42803 0.0
H1650 H 0.01698 0.19215 0.22076 0.0
H1651 H 0.99983 0.20379 0.28229 0.0
C1652 C 0.6288 0.22344 0.00891 0.0
C1653 C 0.61991 0.22554 0.96709 0.0
C1654 C 0.62254 0.21272 0.04379 0.0
C1655 C 0.58969 0.17948 0.06559 0.0
H1656 H 0.59219 0.19532 0.19298 0.0
C1657 C 0.54277 0.16161 0.21114 0.0
C1658 C 0.5496 0.1555 0.25296 0.0
C1659 C 0.55321 0.16796 0.1762 0.0
C1660 C 0.59159 0.19064 0.15761 0.0
H1661 H 0.59828 0.21721 0.92756 0.0
H1662 H 0.58713 0.19919 0.9879 0.0
H1663 H 0.60736 0.21038 0.1318 0.0
H1664 H 0.57263 0.15144 0.29152 0.0
H1665 H 0.59106 0.16295 0.23031 0.0
H1666 H 0.57299 0.16043 0.09126 0.0
C1667 C 0.59899 0.20546 0.99435 0.0
C1668 C 0.60036 0.1992 0.12248 0.0
C1669 C 0.60529 0.21599 0.95971 0.0
C1670 C 0.56713 0.15568 0.25908 0.0
C1671 C 0.5776 0.16244 0.22442 0.0
C1672 C 0.58069 0.17117 0.1005 0.0
C1673 C 0.60727 0.20391 0.03741 0.0
C1674 C 0.59937 0.19387 0.07577 0.0
C1675 C 0.5707 0.16875 0.18282 0.0
C1676 C 0.58144 0.17673 0.14676 0.0
H1677 H 0.64002 0.23077 0.01569 0.0
H1678 H 0.62945 0.21166 0.07613 0.0
H1679 H 0.58882 0.17471 0.0304 0.0
H1680 H 0.52926 0.16188 0.20602 0.0
H1681 H 0.54755 0.17288 0.1447 0.0
C1682 C 0.54168 0.83157 0.76817 0.0
C1683 C 0.54724 0.84202 0.73187 0.0
C1684 C 0.55287 0.82577 0.80211 0.0
C1685 C 0.59701 0.81534 0.82069 0.0
H1686 H 0.58462 0.81443 0.95125 0.0
C1687 C 0.62343 0.76895 0.95797 0.0
C1688 C 0.62784 0.77537 1.00184 0.0
C1689 C 0.61635 0.77939 0.92406 0.0
C1690 C 0.58836 0.8148 0.91502 0.0
H1691 H 0.56886 0.85494 0.70327 0.0
H1692 H 0.58866 0.8445 0.76247 0.0
H1693 H 0.5663 0.82857 0.895 0.0
H1694 H 0.62839 0.79768 0.04481 0.0
H1695 H 0.61569 0.81604 0.98548 0.0
H1696 H 0.61867 0.80084 0.84055 0.0
C1697 C 0.57555 0.84084 0.76451 0.0
C1698 C 0.57782 0.82277 0.88277 0.0
C1699 C 0.56423 0.84689 0.73084 0.0
C1700 C 0.62555 0.79257 0.01076 0.0
C1701 C 0.61809 0.80298 0.9771 0.0
C1702 C 0.6074 0.80709 0.85285 0.0
C1703 C 0.56998 0.83015 0.8004 0.0
C1704 C 0.58193 0.82299 0.83516 0.0
C1705 C 0.6131 0.7964 0.93375 0.0
C1706 C 0.60312 0.80662 0.9003 0.0
H1707 H 0.52862 0.82789 0.77053 0.0
H1708 H 0.54819 0.81749 0.8291 0.0
H1709 H 0.60043 0.81515 0.78421 0.0
H1710 H 0.62467 0.75563 0.95077 0.0
H1711 H 0.61245 0.77392 0.89127 0.0
C1712 C 0.57818 0.63009 0.78371 0.0
C1713 C 0.58098 0.63861 0.74172 0.0
C1714 C 0.59005 0.63124 0.81989 0.0
C1715 C 0.63257 0.65001 0.84974 0.0
H1716 H 0.6099 0.66152 0.96466 0.0
C1717 C 0.65053 0.70373 0.9756 0.0
C1718 C 0.6472 0.70138 0.02306 0.0
C1719 C 0.64762 0.69061 0.94397 0.0
C1720 C 0.61656 0.65804 0.93319 0.0
H1721 H 0.59885 0.65353 0.70267 0.0
H1722 H 0.61911 0.65579 0.76477 0.0
H1723 H 0.59448 0.6471 0.90391 0.0
H1724 H 0.6396 0.68338 0.07541 0.0
H1725 H 0.63475 0.66048 0.02048 0.0
H1726 H 0.65426 0.66244 0.87821 0.0
C1727 C 0.60812 0.64806 0.77066 0.0
C1728 C 0.6077 0.64964 0.89824 0.0
C1729 C 0.59638 0.64687 0.73488 0.0
C1730 C 0.64252 0.68536 0.03897 0.0
C1731 C 0.63956 0.67232 0.00752 0.0
C1732 C 0.64134 0.65873 0.88446 0.0
C1733 C 0.60481 0.64096 0.8145 0.0
C1734 C 0.61537 0.64606 0.85525 0.0
C1735 C 0.64117 0.6751 0.9595 0.0
C1736 C 0.63326 0.66327 0.92599 0.0
H1737 H 0.56635 0.6237 0.78985 0.0
H1738 H 0.58721 0.62529 0.85284 0.0
H1739 H 0.63909 0.64708 0.81767 0.0
H1740 H 0.6537 0.7161 0.96247 0.0
H1741 H 0.64884 0.69315 0.90709 0.0
C1742 C 0.57049 0.37974 0.22811 0.0
C1743 C 0.57672 0.37567 0.27234 0.0
C1744 C 0.58017 0.37629 0.18844 0.0
C1745 C 0.62166 0.35884 0.14738 0.0
H1746 H 0.59282 0.33072 0.07142 0.0
C1747 C 0.64219 0.31362 0.99354 0.0
C1748 C 0.63408 0.29793 0.99519 0.0
C1749 C 0.63805 0.32617 0.02606 0.0
C1750 C 0.60105 0.33859 0.09213 0.0
H1751 H 0.59842 0.36672 0.31053 0.0
H1752 H 0.61529 0.3609 0.242 0.0
H1753 H 0.58028 0.35008 0.1266 0.0
H1754 H 0.61652 0.2825 0.03381 0.0
H1755 H 0.60968 0.30406 0.09079 0.0
H1756 H 0.64247 0.34647 0.11377 0.0
C1757 C 0.6031 0.36675 0.23726 0.0
C1758 C 0.59386 0.34992 0.12333 0.0
C1759 C 0.59343 0.37011 0.27669 0.0
C1760 C 0.62298 0.29448 0.03194 0.0
C1761 C 0.61892 0.30689 0.06418 0.0
C1762 C 0.62889 0.3475 0.11571 0.0
C1763 C 0.59617 0.36874 0.19261 0.0
C1764 C 0.60403 0.35981 0.1525 0.0
C1765 C 0.62575 0.3231 0.06025 0.0
C1766 C 0.61861 0.33684 0.0891 0.0
H1767 H 0.55756 0.38379 0.22388 0.0
H1768 H 0.57458 0.37823 0.15448 0.0
H1769 H 0.62985 0.36636 0.16914 0.0
H1770 H 0.65056 0.31663 0.965 0.0
H1771 H 0.64354 0.33856 0.02246 0.0
C1772 C 0.98795 0.36672 0.29147 0.0
C1773 C 0.98164 0.37056 0.24718 0.0
C1774 C 0.97704 0.36172 0.32695 0.0
C1775 C 0.93278 0.35599 0.36396 0.0
H1776 H 0.94927 0.31261 0.40569 0.0
C1777 C 0.90801 0.31567 0.51904 0.0
C1778 C 0.90872 0.29815 0.5134 0.0
C1779 C 0.9127 0.32634 0.48256 0.0
C1780 C 0.94439 0.32461 0.39399 0.0
H1781 H 0.95909 0.37342 0.20583 0.0
H1782 H 0.93988 0.36508 0.26825 0.0
H1783 H 0.96677 0.32992 0.35565 0.0
H1784 H 0.91353 0.278 0.46472 0.0
H1785 H 0.92144 0.29659 0.40066 0.0
H1786 H 0.91037 0.35053 0.4032 0.0
C1787 C 0.9532 0.36606 0.27579 0.0
C1788 C 0.95454 0.33467 0.36598 0.0
C1789 C 0.96416 0.371 0.24019 0.0
C1790 C 0.91245 0.29148 0.46945 0.0
C1791 C 0.91724 0.30212 0.43311 0.0
C1792 C 0.92265 0.34597 0.39279 0.0
C1793 C 0.95965 0.36039 0.31856 0.0
C1794 C 0.9489 0.35048 0.35067 0.0
C1795 C 0.91839 0.31957 0.44026 0.0
C1796 C 0.92833 0.3301 0.4077 0.0
H1797 H 1.0014 0.36584 0.29722 0.0
H1798 H 0.98232 0.35758 0.35977 0.0
H1799 H 0.9281 0.36809 0.35241 0.0
H1800 H 0.90565 0.32104 0.55308 0.0
H1801 H 0.91355 0.33973 0.48913 0.0
C1802 C 0.95843 0.63932 0.78489 0.0
C1803 C 0.97477 0.63513 0.77037 0.0
C1804 C 0.94566 0.64192 0.75234 0.0
C1805 C 0.9333 0.63966 0.62861 0.0
H1806 H 0.92042 0.68627 0.64633 0.0
C1807 C 0.92155 0.68384 0.4775 0.0
C1808 C 0.91278 0.69901 0.48338 0.0
C1809 C 0.92278 0.67228 0.51364 0.0
C1810 C 0.92331 0.67311 0.64112 0.0
H1811 H 0.99038 0.62908 0.71113 0.0
H1812 H 0.9679 0.63332 0.65375 0.0
H1813 H 0.93476 0.67136 0.70825 0.0
H1814 H 0.89702 0.71336 0.53011 0.0
H1815 H 0.89872 0.69281 0.59379 0.0
H1816 H 0.92207 0.64146 0.56114 0.0
C1817 C 0.96492 0.63445 0.69039 0.0
C1818 C 0.93167 0.66455 0.67673 0.0
C1819 C 0.97777 0.6319 0.72315 0.0
C1820 C 0.90383 0.70172 0.52474 0.0
C1821 C 0.90503 0.69003 0.5613 0.0
C1822 C 0.92461 0.64812 0.59323 0.0
C1823 C 0.94903 0.64042 0.70461 0.0
C1824 C 0.93733 0.64797 0.67018 0.0
C1825 C 0.9152 0.67553 0.55689 0.0
C1826 C 0.92022 0.66523 0.59814 0.0
H1827 H 0.95593 0.64213 0.82116 0.0
H1828 H 0.93352 0.64638 0.76426 0.0
H1829 H 0.93736 0.62682 0.62288 0.0
H1830 H 0.92851 0.6814 0.44576 0.0
H1831 H 0.93087 0.66149 0.50854 0.0
C1832 C 0.4903 0.34735 0.27852 0.0
C1833 C 0.50778 0.34816 0.27153 0.0
C1834 C 0.47985 0.33994 0.24472 0.0
C1835 C 0.47657 0.32858 0.12107 0.0
H1836 H 0.45155 0.28931 0.16116 0.0
C1837 C 0.43446 0.28808 0.99713 0.0
C1838 C 0.43937 0.27109 0.996 0.0
C1839 C 0.44073 0.29892 0.03166 0.0
C1840 C 0.45833 0.30035 0.14956 0.0
H1841 H 0.52796 0.34255 0.22341 0.0
H1842 H 0.5097 0.33038 0.16374 0.0
H1843 H 0.46613 0.30676 0.21891 0.0
H1844 H 0.45404 0.25201 0.03139 0.0
H1845 H 0.46449 0.27074 0.09231 0.0
H1846 H 0.46889 0.32209 0.05167 0.0
C1847 C 0.50406 0.33524 0.19531 0.0
C1848 C 0.46659 0.31038 0.1826 0.0
C1849 C 0.5145 0.34219 0.22945 0.0
C1850 C 0.45014 0.26505 0.03107 0.0
C1851 C 0.45605 0.27575 0.06614 0.0
C1852 C 0.46799 0.31878 0.08815 0.0
C1853 C 0.48667 0.33366 0.20296 0.0
C1854 C 0.47609 0.3244 0.16862 0.0
C1855 C 0.45164 0.29286 0.06646 0.0
C1856 C 0.45907 0.30435 0.10192 0.0
H1857 H 0.48486 0.35162 0.31099 0.0
H1858 H 0.46649 0.33886 0.25152 0.0
H1859 H 0.48383 0.33929 0.10931 0.0
H1860 H 0.42624 0.2931 0.97044 0.0
H1861 H 0.43711 0.31205 0.03111 0.0
C1862 C 0.43053 0.72763 0.00645 0.0
C1863 C 0.44066 0.73575 0.0397 0.0
C1864 C 0.43786 0.71733 0.9722 0.0
C1865 C 0.47898 0.71142 0.91346 0.0
H1866 H 0.45891 0.67106 0.86191 0.0
C1867 C 0.50438 0.68368 0.74569 0.0
C1868 C 0.50769 0.66631 0.74385 0.0
C1869 C 0.49477 0.69056 0.78141 0.0
C1870 C 0.46471 0.68223 0.87629 0.0
H1871 H 0.46623 0.73842 0.0651 0.0
H1872 H 0.47882 0.72038 0.00675 0.0
H1873 H 0.44502 0.68571 0.9267 0.0
H1874 H 0.50264 0.6424 0.77704 0.0
H1875 H 0.4857 0.65458 0.84059 0.0
H1876 H 0.49877 0.7079 0.86426 0.0
C1877 C 0.46533 0.72233 0.00573 0.0
C1878 C 0.45668 0.69073 0.91302 0.0
C1879 C 0.45808 0.73267 0.0394 0.0
C1880 C 0.50031 0.65582 0.77753 0.0
C1881 C 0.49063 0.66279 0.81383 0.0
C1882 C 0.48696 0.70296 0.87716 0.0
C1883 C 0.45543 0.71487 0.97083 0.0
C1884 C 0.46372 0.70548 0.93202 0.0
C1885 C 0.48821 0.68033 0.81681 0.0
C1886 C 0.47986 0.6884 0.85759 0.0
H1887 H 0.41706 0.72973 0.00584 0.0
H1888 H 0.42984 0.71183 0.9458 0.0
H1889 H 0.48472 0.72284 0.92648 0.0
H1890 H 0.50961 0.69215 0.71994 0.0
H1891 H 0.4928 0.70404 0.78183 0.0
C1892 C 0.12637 0.72283 0.49903 0.0
C1893 C 0.11501 0.73251 0.47265 0.0
C1894 C 0.12041 0.71128 0.53234 0.0
C1895 C 0.08214 0.68704 0.56351 0.0
H1896 H 0.09835 0.68836 0.69072 0.0
C1897 C 0.04059 0.66872 0.71669 0.0
C1898 C 0.04718 0.65982 0.75474 0.0
C1899 C 0.05098 0.6743 0.68084 0.0
C1900 C 0.09391 0.68756 0.65516 0.0
H1901 H 0.08846 0.73744 0.46053 0.0
H1902 H 0.07828 0.7175 0.5174 0.0
H1903 H 0.11302 0.70445 0.63017 0.0
H1904 H 0.06994 0.64946 0.78467 0.0
H1905 H 0.08844 0.65944 0.7214 0.0
H1906 H 0.06273 0.67073 0.58835 0.0
C1907 C 0.09175 0.71865 0.5125 0.0
C1908 C 0.1023 0.6968 0.62048 0.0
C1909 C 0.09765 0.7302 0.47993 0.0
C1910 C 0.0645 0.65618 0.75553 0.0
C1911 C 0.07507 0.66202 0.71961 0.0
C1912 C 0.07381 0.67786 0.59794 0.0
C1913 C 0.10299 0.70902 0.53923 0.0
C1914 C 0.09614 0.69709 0.57456 0.0
C1915 C 0.06839 0.67125 0.68196 0.0
C1916 C 0.07922 0.67845 0.64451 0.0
H1917 H 0.13982 0.72437 0.4945 0.0
H1918 H 0.12938 0.70404 0.55244 0.0
H1919 H 0.07725 0.68671 0.52832 0.0
H1920 H 0.02731 0.6716 0.71482 0.0
H1921 H 0.04539 0.68153 0.65286 0.0
C1922 C 0.06197 0.33162 0.22107 0.0
C1923 C 0.05245 0.34623 0.2285 0.0
C1924 C 0.07261 0.32533 0.25575 0.0
C1925 C 0.09086 0.3349 0.37431 0.0
H1926 H 0.09529 0.28634 0.37841 0.0
C1927 C 0.10821 0.29208 0.53391 0.0
C1928 C 0.12242 0.28178 0.52761 0.0
C1929 C 0.10201 0.30194 0.49735 0.0
C1930 C 0.09431 0.29993 0.37737 0.0
H1931 H 0.04663 0.36585 0.27798 0.0
H1932 H 0.06458 0.35457 0.33967 0.0
H1933 H 0.07957 0.29939 0.31544 0.0
H1934 H 0.14134 0.27377 0.4782 0.0
H1935 H 0.1301 0.29067 0.41345 0.0
H1936 H 0.10475 0.335 0.43866 0.0
C1937 C 0.06443 0.34818 0.30643 0.0
C1938 C 0.08537 0.30752 0.341 0.0
C1939 C 0.05409 0.35473 0.27104 0.0
C1940 C 0.13061 0.28189 0.4843 0.0
C1941 C 0.12411 0.29142 0.44724 0.0
C1942 C 0.09948 0.32723 0.41135 0.0
C1943 C 0.07362 0.33315 0.29971 0.0
C1944 C 0.08352 0.32516 0.33859 0.0
C1945 C 0.1096 0.30133 0.4533 0.0
C1946 C 0.10135 0.30968 0.41304 0.0
H1947 H 0.06092 0.32481 0.18853 0.0
H1948 H 0.0798 0.31411 0.2481 0.0
H1949 H 0.09002 0.34847 0.37379 0.0
H1950 H 0.10151 0.29202 0.56673 0.0
H1951 H 0.09073 0.30934 0.50276 0.0
loop_
_geom_bond_atom_site_label_1
_geom_bond_atom_site_label_2
_geom_bond_distance
_geom_bond_site_symmetry_2
_ccdc_geom_bond_type
Zn0 O1 2.055 . S
Zn0 O8 2.046 . S
Zn0 N16 2.036 . S
Zn0 O28 2.053 . S
Zn0 O30 2.066 . S
O1 Zn0 2.055 . S
O1 C4 1.259 . S
C2 O30 1.256 . S
C2 O31 1.244 . S
Zn3 O5 2.046 . S
Zn3 O7 2.055 . S
Zn3 N9 2.036 . S
Zn3 O27 2.066 . S
Zn3 O31 2.053 . S
C4 O1 1.259 . S
C4 O5 1.254 . S
O5 Zn3 2.046 . S
O5 C4 1.254 . S
C6 O27 1.256 . S
C6 O28 1.244 . S
O7 Zn3 2.055 . S
O7 C29 1.259 . S
O8 Zn0 2.046 . S
O8 C29 1.254 . S
N9 Zn3 2.036 . S
N9 C10 1.298 . S
N9 N12 1.398 . S
C10 N9 1.298 . S
C10 N13 1.367 . S
C10 C23 1.481 . S
C11 N12 1.299 . S
C11 N13 1.379 . S
N12 N9 1.398 . S
N12 C11 1.299 . S
N13 C10 1.367 . S
N13 C11 1.379 . S
C14 N16 1.298 . S
C14 N18 1.367 . S
C14 C22 1.481 . S
C15 N17 1.299 . S
C15 N18 1.379 . S
N16 Zn0 2.036 . S
N16 C14 1.298 . S
N16 N17 1.398 . S
N17 C15 1.299 . S
N17 N16 1.398 . S
N18 C14 1.367 . S
N18 C15 1.379 . S
H19 C22 0.980 . S
H20 C22 0.981 . S
H21 C22 0.981 . S
C22 C14 1.481 . S
C22 H19 0.980 . S
C22 H20 0.981 . S
C22 H21 0.981 . S
C23 C10 1.481 . S
C23 H24 0.980 . S
C23 H25 0.981 . S
C23 H26 0.981 . S
H24 C23 0.980 . S
H25 C23 0.981 . S
H26 C23 0.981 . S
O27 Zn3 2.066 . S
O27 C6 1.256 . S
O28 Zn0 2.053 . S
O28 C6 1.244 . S
C29 O7 1.259 . S
C29 O8 1.254 . S
O30 Zn0 2.066 . S
O30 C2 1.256 . S
O31 C2 1.244 . S
O31 Zn3 2.053 . S
Zn32 O33 2.055 . S
Zn32 O40 2.046 . S
Zn32 N48 2.036 . S
Zn32 O60 2.053 . S
Zn32 O62 2.066 . S
O33 Zn32 2.055 . S
O33 C36 1.259 . S
C34 O62 1.256 . S
C34 O63 1.244 . S
Zn35 O37 2.046 . S
Zn35 O39 2.055 . S
Zn35 N41 2.036 . S
Zn35 O59 2.066 . S
Zn35 O63 2.053 . S
C36 O33 1.259 . S
C36 O37 1.254 . S
O37 Zn35 2.046 . S
O37 C36 1.254 . S
C38 O59 1.256 . S
C38 O60 1.244 . S
O39 Zn35 2.055 . S
O39 C61 1.259 . S
O40 Zn32 2.046 . S
O40 C61 1.254 . S
N41 Zn35 2.036 . S
N41 C42 1.298 . S
N41 N44 1.398 . S
C42 N41 1.298 . S
C42 N45 1.367 . S
C42 C55 1.481 . S
C43 N44 1.299 . S
C43 N45 1.379 . S
N44 N41 1.398 . S
N44 C43 1.299 . S
N45 C42 1.367 . S
N45 C43 1.379 . S
C46 N48 1.298 . S
C46 N50 1.367 . S
C46 C54 1.481 . S
C47 N49 1.299 . S
C47 N50 1.379 . S
N48 Zn32 2.036 . S
N48 C46 1.298 . S
N48 N49 1.398 . S
N49 C47 1.299 . S
N49 N48 1.398 . S
N50 C46 1.367 . S
N50 C47 1.379 . S
H51 C54 0.980 . S
H52 C54 0.981 . S
H53 C54 0.981 . S
C54 C46 1.481 . S
C54 H51 0.980 . S
C54 H52 0.981 . S
C54 H53 0.981 . S
C55 C42 1.481 . S
C55 H56 0.980 . S
C55 H57 0.981 . S
C55 H58 0.981 . S
H56 C55 0.980 . S
H57 C55 0.981 . S
H58 C55 0.981 . S
O59 Zn35 2.066 . S
O59 C38 1.256 . S
O60 Zn32 2.053 . S
O60 C38 1.244 . S
C61 O39 1.259 . S
C61 O40 1.254 . S
O62 Zn32 2.066 . S
O62 C34 1.256 . S
O63 C34 1.244 . S
O63 Zn35 2.053 . S
Zn64 O65 2.055 . S
Zn64 O72 2.046 . S
Zn64 N80 2.036 . S
Zn64 O92 2.053 . S
Zn64 O94 2.066 . S
O65 Zn64 2.055 . S
O65 C68 1.259 . S
C66 O94 1.256 . S
C66 O95 1.244 . S
Zn67 O69 2.046 . S
Zn67 O71 2.055 . S
Zn67 N73 2.036 . S
Zn67 O91 2.066 . S
Zn67 O95 2.053 . S
C68 O65 1.259 . S
C68 O69 1.254 . S
O69 Zn67 2.046 . S
O69 C68 1.254 . S
C70 O91 1.256 . S
C70 O92 1.244 . S
O71 Zn67 2.055 . S
O71 C93 1.259 . S
O72 Zn64 2.046 . S
O72 C93 1.254 . S
N73 Zn67 2.036 . S
N73 C74 1.298 . S
N73 N76 1.398 . S
C74 N73 1.298 . S
C74 N77 1.367 . S
C74 C87 1.481 . S
C75 N76 1.299 . S
C75 N77 1.379 . S
N76 N73 1.398 . S
N76 C75 1.299 . S
N77 C74 1.367 . S
N77 C75 1.379 . S
C78 N80 1.298 . S
C78 N82 1.367 . S
C78 C86 1.481 . S
C79 N81 1.299 . S
C79 N82 1.379 . S
N80 Zn64 2.036 . S
N80 C78 1.298 . S
N80 N81 1.398 . S
N81 C79 1.299 . S
N81 N80 1.398 . S
N82 C78 1.367 . S
N82 C79 1.379 . S
H83 C86 0.980 . S
H84 C86 0.981 . S
H85 C86 0.981 . S
C86 C78 1.481 . S
C86 H83 0.980 . S
C86 H84 0.981 . S
C86 H85 0.981 . S
C87 C74 1.481 . S
C87 H88 0.980 . S
C87 H89 0.981 . S
C87 H90 0.981 . S
H88 C87 0.980 . S
H89 C87 0.981 . S
H90 C87 0.981 . S
O91 Zn67 2.066 . S
O91 C70 1.256 . S
O92 Zn64 2.053 . S
O92 C70 1.244 . S
C93 O71 1.259 . S
C93 O72 1.254 . S
O94 Zn64 2.066 . S
O94 C66 1.256 . S
O95 C66 1.244 . S
O95 Zn67 2.053 . S
Zn96 O97 2.055 . S
Zn96 O104 2.046 . S
Zn96 N112 2.036 . S
Zn96 O124 2.053 . S
Zn96 O126 2.066 . S
O97 Zn96 2.055 . S
O97 C100 1.259 . S
C98 O126 1.256 . S
C98 O127 1.244 . S
Zn99 O101 2.046 . S
Zn99 O103 2.055 . S
Zn99 N105 2.036 . S
Zn99 O123 2.066 . S
Zn99 O127 2.053 . S
C100 O97 1.259 . S
C100 O101 1.254 . S
O101 Zn99 2.046 . S
O101 C100 1.254 . S
C102 O123 1.256 . S
C102 O124 1.244 . S
O103 Zn99 2.055 . S
O103 C125 1.259 . S
O104 Zn96 2.046 . S
O104 C125 1.254 . S
N105 Zn99 2.036 . S
N105 C106 1.298 . S
N105 N108 1.398 . S
C106 N105 1.298 . S
C106 N109 1.367 . S
C106 C119 1.481 . S
C107 N108 1.299 . S
C107 N109 1.379 . S
N108 N105 1.398 . S
N108 C107 1.299 . S
N109 C106 1.367 . S
N109 C107 1.379 . S
C110 N112 1.298 . S
C110 N114 1.367 . S
C110 C118 1.481 . S
C111 N113 1.299 . S
C111 N114 1.379 . S
N112 Zn96 2.036 . S
N112 C110 1.298 . S
N112 N113 1.398 . S
N113 C111 1.299 . S
N113 N112 1.398 . S
N114 C110 1.367 . S
N114 C111 1.379 . S
H115 C118 0.980 . S
H116 C118 0.981 . S
H117 C118 0.981 . S
C118 C110 1.481 . S
C118 H115 0.980 . S
C118 H116 0.981 . S
C118 H117 0.981 . S
C119 C106 1.481 . S
C119 H120 0.980 . S
C119 H121 0.981 . S
C119 H122 0.981 . S
H120 C119 0.980 . S
H121 C119 0.981 . S
H122 C119 0.981 . S
O123 Zn99 2.066 . S
O123 C102 1.256 . S
O124 Zn96 2.053 . S
O124 C102 1.244 . S
C125 O103 1.259 . S
C125 O104 1.254 . S
O126 Zn96 2.066 . S
O126 C98 1.256 . S
O127 C98 1.244 . S
O127 Zn99 2.053 . S
Zn128 O129 2.055 . S
Zn128 O136 2.046 . S
Zn128 N144 2.036 . S
Zn128 O156 2.053 . S
Zn128 O158 2.066 . S
O129 Zn128 2.055 . S
O129 C132 1.259 . S
C130 O158 1.256 . S
C130 O159 1.244 . S
Zn131 O133 2.046 . S
Zn131 O135 2.055 . S
Zn131 N137 2.036 . S
Zn131 O155 2.066 . S
Zn131 O159 2.053 . S
C132 O129 1.259 . S
C132 O133 1.254 . S
O133 Zn131 2.046 . S
O133 C132 1.254 . S
C134 O155 1.256 . S
C134 O156 1.244 . S
O135 Zn131 2.055 . S
O135 C157 1.259 . S
O136 Zn128 2.046 . S
O136 C157 1.254 . S
N137 Zn131 2.036 . S
N137 C138 1.298 . S
N137 N140 1.398 . S
C138 N137 1.298 . S
C138 N141 1.367 . S
C138 C151 1.481 . S
C139 N140 1.299 . S
C139 N141 1.379 . S
N140 N137 1.398 . S
N140 C139 1.299 . S
N141 C138 1.367 . S
N141 C139 1.379 . S
C142 N144 1.298 . S
C142 N146 1.367 . S
C142 C150 1.481 . S
C143 N145 1.299 . S
C143 N146 1.379 . S
N144 Zn128 2.036 . S
N144 C142 1.298 . S
N144 N145 1.398 . S
N145 C143 1.299 . S
N145 N144 1.398 . S
N146 C142 1.367 . S
N146 C143 1.379 . S
H147 C150 0.980 . S
H148 C150 0.981 . S
H149 C150 0.981 . S
C150 C142 1.481 . S
C150 H147 0.980 . S
C150 H148 0.981 . S
C150 H149 0.981 . S
C151 C138 1.481 . S
C151 H152 0.980 . S
C151 H153 0.981 . S
C151 H154 0.981 . S
H152 C151 0.980 . S
H153 C151 0.981 . S
H154 C151 0.981 . S
O155 Zn131 2.066 . S
O155 C134 1.256 . S
O156 Zn128 2.053 . S
O156 C134 1.244 . S
C157 O135 1.259 . S
C157 O136 1.254 . S
O158 Zn128 2.066 . S
O158 C130 1.256 . S
O159 C130 1.244 . S
O159 Zn131 2.053 . S
Zn160 O161 2.055 . S
Zn160 O168 2.046 . S
Zn160 N176 2.036 . S
Zn160 O188 2.053 . S
Zn160 O190 2.066 . S
O161 Zn160 2.055 . S
O161 C164 1.259 . S
C162 O190 1.256 . S
C162 O191 1.244 . S
Zn163 O165 2.046 . S
Zn163 O167 2.055 . S
Zn163 N169 2.036 . S
Zn163 O187 2.066 . S
Zn163 O191 2.053 . S
C164 O161 1.259 . S
C164 O165 1.254 . S
O165 Zn163 2.046 . S
O165 C164 1.254 . S
C166 O187 1.256 . S
C166 O188 1.244 . S
O167 Zn163 2.055 . S
O167 C189 1.259 . S
O168 Zn160 2.046 . S
O168 C189 1.254 . S
N169 Zn163 2.036 . S
N169 C170 1.298 . S
N169 N172 1.398 . S
C170 N169 1.298 . S
C170 N173 1.367 . S
C170 C183 1.481 . S
C171 N172 1.299 . S
C171 N173 1.379 . S
N172 N169 1.398 . S
N172 C171 1.299 . S
N173 C170 1.367 . S
N173 C171 1.379 . S
C174 N176 1.298 . S
C174 N178 1.367 . S
C174 C182 1.481 . S
C175 N177 1.299 . S
C175 N178 1.379 . S
N176 Zn160 2.036 . S
N176 C174 1.298 . S
N176 N177 1.398 . S
N177 C175 1.299 . S
N177 N176 1.398 . S
N178 C174 1.367 . S
N178 C175 1.379 . S
H179 C182 0.980 . S
H180 C182 0.981 . S
H181 C182 0.981 . S
C182 C174 1.481 . S
C182 H179 0.980 . S
C182 H180 0.981 . S
C182 H181 0.981 . S
C183 C170 1.481 . S
C183 H184 0.980 . S
C183 H185 0.981 . S
C183 H186 0.981 . S
H184 C183 0.980 . S
H185 C183 0.981 . S
H186 C183 0.981 . S
O187 Zn163 2.066 . S
O187 C166 1.256 . S
O188 Zn160 2.053 . S
O188 C166 1.244 . S
C189 O167 1.259 . S
C189 O168 1.254 . S
O190 Zn160 2.066 . S
O190 C162 1.256 . S
O191 C162 1.244 . S
O191 Zn163 2.053 . S
Zn192 O193 2.055 . S
Zn192 O200 2.046 . S
Zn192 N208 2.036 . S
Zn192 O220 2.053 . S
Zn192 O222 2.066 . S
O193 Zn192 2.055 . S
O193 C196 1.259 . S
C194 O222 1.256 . S
C194 O223 1.244 . S
Zn195 O197 2.046 . S
Zn195 O199 2.055 . S
Zn195 N201 2.036 . S
Zn195 O219 2.066 . S
Zn195 O223 2.053 . S
C196 O193 1.259 . S
C196 O197 1.254 . S
O197 Zn195 2.046 . S
O197 C196 1.254 . S
C198 O219 1.256 . S
C198 O220 1.244 . S
O199 Zn195 2.055 . S
O199 C221 1.259 . S
O200 Zn192 2.046 . S
O200 C221 1.254 . S
N201 Zn195 2.036 . S
N201 C202 1.298 . S
N201 N204 1.398 . S
C202 N201 1.298 . S
C202 N205 1.367 . S
C202 C215 1.481 . S
C203 N204 1.299 . S
C203 N205 1.379 . S
N204 N201 1.398 . S
N204 C203 1.299 . S
N205 C202 1.367 . S
N205 C203 1.379 . S
C206 N208 1.298 . S
C206 N210 1.367 . S
C206 C214 1.481 . S
C207 N209 1.299 . S
C207 N210 1.379 . S
N208 Zn192 2.036 . S
N208 C206 1.298 . S
N208 N209 1.398 . S
N209 C207 1.299 . S
N209 N208 1.398 . S
N210 C206 1.367 . S
N210 C207 1.379 . S
H211 C214 0.980 . S
H212 C214 0.981 . S
H213 C214 0.981 . S
C214 C206 1.481 . S
C214 H211 0.980 . S
C214 H212 0.981 . S
C214 H213 0.981 . S
C215 C202 1.481 . S
C215 H216 0.980 . S
C215 H217 0.981 . S
C215 H218 0.981 . S
H216 C215 0.980 . S
H217 C215 0.981 . S
H218 C215 0.981 . S
O219 Zn195 2.066 . S
O219 C198 1.256 . S
O220 Zn192 2.053 . S
O220 C198 1.244 . S
C221 O199 1.259 . S
C221 O200 1.254 . S
O222 Zn192 2.066 . S
O222 C194 1.256 . S
O223 C194 1.244 . S
O223 Zn195 2.053 . S
Zn224 O225 2.055 . S
Zn224 O232 2.046 . S
Zn224 N240 2.036 . S
Zn224 O252 2.053 . S
Zn224 O254 2.066 . S
O225 Zn224 2.055 . S
O225 C228 1.259 . S
C226 O254 1.256 . S
C226 O255 1.244 . S
Zn227 O229 2.046 . S
Zn227 O231 2.055 . S
Zn227 N233 2.036 . S
Zn227 O251 2.066 . S
Zn227 O255 2.053 . S
C228 O225 1.259 . S
C228 O229 1.254 . S
O229 Zn227 2.046 . S
O229 C228 1.254 . S
C230 O251 1.256 . S
C230 O252 1.244 . S
O231 Zn227 2.055 . S
O231 C253 1.259 . S
O232 Zn224 2.046 . S
O232 C253 1.254 . S
N233 Zn227 2.036 . S
N233 C234 1.298 . S
N233 N236 1.398 . S
C234 N233 1.298 . S
C234 N237 1.367 . S
C234 C247 1.481 . S
C235 N236 1.299 . S
C235 N237 1.379 . S
N236 N233 1.398 . S
N236 C235 1.299 . S
N237 C234 1.367 . S
N237 C235 1.379 . S
C238 N240 1.298 . S
C238 N242 1.367 . S
C238 C246 1.481 . S
C239 N241 1.299 . S
C239 N242 1.379 . S
N240 Zn224 2.036 . S
N240 C238 1.298 . S
N240 N241 1.398 . S
N241 C239 1.299 . S
N241 N240 1.398 . S
N242 C238 1.367 . S
N242 C239 1.379 . S
H243 C246 0.980 . S
H244 C246 0.981 . S
H245 C246 0.981 . S
C246 C238 1.481 . S
C246 H243 0.980 . S
C246 H244 0.981 . S
C246 H245 0.981 . S
C247 C234 1.481 . S
C247 H248 0.980 . S
C247 H249 0.981 . S
C247 H250 0.981 . S
H248 C247 0.980 . S
H249 C247 0.981 . S
H250 C247 0.981 . S
O251 Zn227 2.066 . S
O251 C230 1.256 . S
O252 Zn224 2.053 . S
O252 C230 1.244 . S
C253 O231 1.259 . S
C253 O232 1.254 . S
O254 Zn224 2.066 . S
O254 C226 1.256 . S
O255 C226 1.244 . S
O255 Zn227 2.053 . S
Zn256 O257 2.055 . S
Zn256 O264 2.046 . S
Zn256 N272 2.036 . S
Zn256 O284 2.053 . S
Zn256 O286 2.066 . S
O257 Zn256 2.055 . S
O257 C260 1.259 . S
C258 O286 1.256 . S
C258 O287 1.244 . S
Zn259 O261 2.046 . S
Zn259 O263 2.055 . S
Zn259 N265 2.036 . S
Zn259 O283 2.066 . S
Zn259 O287 2.053 . S
C260 O257 1.259 . S
C260 O261 1.254 . S
O261 Zn259 2.046 . S
O261 C260 1.254 . S
C262 O283 1.256 . S
C262 O284 1.244 . S
O263 Zn259 2.055 . S
O263 C285 1.259 . S
O264 Zn256 2.046 . S
O264 C285 1.254 . S
N265 Zn259 2.036 . S
N265 C266 1.298 . S
N265 N268 1.398 . S
C266 N265 1.298 . S
C266 N269 1.367 . S
C266 C279 1.481 . S
C267 N268 1.299 . S
C267 N269 1.379 . S
N268 N265 1.398 . S
N268 C267 1.299 . S
N269 C266 1.367 . S
N269 C267 1.379 . S
C270 N272 1.298 . S
C270 N274 1.367 . S
C270 C278 1.481 . S
C271 N273 1.299 . S
C271 N274 1.379 . S
N272 Zn256 2.036 . S
N272 C270 1.298 . S
N272 N273 1.398 . S
N273 C271 1.299 . S
N273 N272 1.398 . S
N274 C270 1.367 . S
N274 C271 1.379 . S
H275 C278 0.980 . S
H276 C278 0.981 . S
H277 C278 0.981 . S
C278 C270 1.481 . S
C278 H275 0.980 . S
C278 H276 0.981 . S
C278 H277 0.981 . S
C279 C266 1.481 . S
C279 H280 0.980 . S
C279 H281 0.981 . S
C279 H282 0.981 . S
H280 C279 0.980 . S
H281 C279 0.981 . S
H282 C279 0.981 . S
O283 Zn259 2.066 . S
O283 C262 1.256 . S
O284 Zn256 2.053 . S
O284 C262 1.244 . S
C285 O263 1.259 . S
C285 O264 1.254 . S
O286 Zn256 2.066 . S
O286 C258 1.256 . S
O287 C258 1.244 . S
O287 Zn259 2.053 . S
Zn288 O289 2.055 . S
Zn288 O296 2.046 . S
Zn288 N304 2.036 . S
Zn288 O316 2.053 . S
Zn288 O318 2.066 . S
O289 Zn288 2.055 . S
O289 C292 1.259 . S
C290 O318 1.256 . S
C290 O319 1.244 . S
Zn291 O293 2.046 . S
Zn291 O295 2.055 . S
Zn291 N297 2.036 . S
Zn291 O315 2.066 . S
Zn291 O319 2.053 . S
C292 O289 1.259 . S
C292 O293 1.254 . S
O293 Zn291 2.046 . S
O293 C292 1.254 . S
C294 O315 1.256 . S
C294 O316 1.244 . S
O295 Zn291 2.055 . S
O295 C317 1.259 . S
O296 Zn288 2.046 . S
O296 C317 1.254 . S
N297 Zn291 2.036 . S
N297 C298 1.298 . S
N297 N300 1.398 . S
C298 N297 1.298 . S
C298 N301 1.367 . S
C298 C311 1.481 . S
C299 N300 1.299 . S
C299 N301 1.379 . S
N300 N297 1.398 . S
N300 C299 1.299 . S
N301 C298 1.367 . S
N301 C299 1.379 . S
C302 N304 1.298 . S
C302 N306 1.367 . S
C302 C310 1.481 . S
C303 N305 1.299 . S
C303 N306 1.379 . S
N304 Zn288 2.036 . S
N304 C302 1.298 . S
N304 N305 1.398 . S
N305 C303 1.299 . S
N305 N304 1.398 . S
N306 C302 1.367 . S
N306 C303 1.379 . S
H307 C310 0.980 . S
H308 C310 0.981 . S
H309 C310 0.981 . S
C310 C302 1.481 . S
C310 H307 0.980 . S
C310 H308 0.981 . S
C310 H309 0.981 . S
C311 C298 1.481 . S
C311 H312 0.980 . S
C311 H313 0.981 . S
C311 H314 0.981 . S
H312 C311 0.980 . S
H313 C311 0.981 . S
H314 C311 0.981 . S
O315 Zn291 2.066 . S
O315 C294 1.256 . S
O316 Zn288 2.053 . S
O316 C294 1.244 . S
C317 O295 1.259 . S
C317 O296 1.254 . S
O318 Zn288 2.066 . S
O318 C290 1.256 . S
O319 C290 1.244 . S
O319 Zn291 2.053 . S
Zn320 O321 2.055 . S
Zn320 O328 2.046 . S
Zn320 N336 2.036 . S
Zn320 O348 2.053 . S
Zn320 O350 2.066 . S
O321 Zn320 2.055 . S
O321 C324 1.259 . S
C322 O350 1.256 . S
C322 O351 1.244 . S
Zn323 O325 2.046 . S
Zn323 O327 2.055 . S
Zn323 N329 2.036 . S
Zn323 O347 2.066 . S
Zn323 O351 2.053 . S
C324 O321 1.259 . S
C324 O325 1.254 . S
O325 Zn323 2.046 . S
O325 C324 1.254 . S
C326 O347 1.256 . S
C326 O348 1.244 . S
O327 Zn323 2.055 . S
O327 C349 1.259 . S
O328 Zn320 2.046 . S
O328 C349 1.254 . S
N329 Zn323 2.036 . S
N329 C330 1.298 . S
N329 N332 1.398 . S
C330 N329 1.298 . S
C330 N333 1.367 . S
C330 C343 1.481 . S
C331 N332 1.299 . S
C331 N333 1.379 . S
N332 N329 1.398 . S
N332 C331 1.299 . S
N333 C330 1.367 . S
N333 C331 1.379 . S
C334 N336 1.298 . S
C334 N338 1.367 . S
C334 C342 1.481 . S
C335 N337 1.299 . S
C335 N338 1.379 . S
N336 Zn320 2.036 . S
N336 C334 1.298 . S
N336 N337 1.398 . S
N337 C335 1.299 . S
N337 N336 1.398 . S
N338 C334 1.367 . S
N338 C335 1.379 . S
H339 C342 0.980 . S
H340 C342 0.981 . S
H341 C342 0.981 . S
C342 C334 1.481 . S
C342 H339 0.980 . S
C342 H340 0.981 . S
C342 H341 0.981 . S
C343 C330 1.481 . S
C343 H344 0.980 . S
C343 H345 0.981 . S
C343 H346 0.981 . S
H344 C343 0.980 . S
H345 C343 0.981 . S
H346 C343 0.981 . S
O347 Zn323 2.066 . S
O347 C326 1.256 . S
O348 Zn320 2.053 . S
O348 C326 1.244 . S
C349 O327 1.259 . S
C349 O328 1.254 . S
O350 Zn320 2.066 . S
O350 C322 1.256 . S
O351 C322 1.244 . S
O351 Zn323 2.053 . S
Zn352 O353 2.055 . S
Zn352 O360 2.046 . S
Zn352 N368 2.036 . S
Zn352 O380 2.053 . S
Zn352 O382 2.066 . S
O353 Zn352 2.055 . S
O353 C356 1.259 . S
C354 O382 1.256 . S
C354 O383 1.244 . S
Zn355 O357 2.046 . S
Zn355 O359 2.055 . S
Zn355 N361 2.036 . S
Zn355 O379 2.066 . S
Zn355 O383 2.053 . S
C356 O353 1.259 . S
C356 O357 1.254 . S
O357 Zn355 2.046 . S
O357 C356 1.254 . S
C358 O379 1.256 . S
C358 O380 1.244 . S
O359 Zn355 2.055 . S
O359 C381 1.259 . S
O360 Zn352 2.046 . S
O360 C381 1.254 . S
N361 Zn355 2.036 . S
N361 C362 1.298 . S
N361 N364 1.398 . S
C362 N361 1.298 . S
C362 N365 1.367 . S
C362 C375 1.481 . S
C363 N364 1.299 . S
C363 N365 1.379 . S
N364 N361 1.398 . S
N364 C363 1.299 . S
N365 C362 1.367 . S
N365 C363 1.379 . S
C366 N368 1.298 . S
C366 N370 1.367 . S
C366 C374 1.481 . S
C367 N369 1.299 . S
C367 N370 1.379 . S
N368 Zn352 2.036 . S
N368 C366 1.298 . S
N368 N369 1.398 . S
N369 C367 1.299 . S
N369 N368 1.398 . S
N370 C366 1.367 . S
N370 C367 1.379 . S
H371 C374 0.980 . S
H372 C374 0.981 . S
H373 C374 0.981 . S
C374 C366 1.481 . S
C374 H371 0.980 . S
C374 H372 0.981 . S
C374 H373 0.981 . S
C375 C362 1.481 . S
C375 H376 0.980 . S
C375 H377 0.981 . S
C375 H378 0.981 . S
H376 C375 0.980 . S
H377 C375 0.981 . S
H378 C375 0.981 . S
O379 Zn355 2.066 . S
O379 C358 1.256 . S
O380 Zn352 2.053 . S
O380 C358 1.244 . S
C381 O359 1.259 . S
C381 O360 1.254 . S
O382 Zn352 2.066 . S
O382 C354 1.256 . S
O383 C354 1.244 . S
O383 Zn355 2.053 . S
Zn384 O385 2.055 . S
Zn384 O392 2.046 . S
Zn384 N400 2.036 . S
Zn384 O412 2.053 . S
Zn384 O414 2.066 . S
O385 Zn384 2.055 . S
O385 C388 1.259 . S
C386 O414 1.256 . S
C386 O415 1.244 . S
Zn387 O389 2.046 . S
Zn387 O391 2.055 . S
Zn387 N393 2.036 . S
Zn387 O411 2.066 . S
Zn387 O415 2.053 . S
C388 O385 1.259 . S
C388 O389 1.254 . S
O389 Zn387 2.046 . S
O389 C388 1.254 . S
C390 O411 1.256 . S
C390 O412 1.244 . S
O391 Zn387 2.055 . S
O391 C413 1.259 . S
O392 Zn384 2.046 . S
O392 C413 1.254 . S
N393 Zn387 2.036 . S
N393 C394 1.298 . S
N393 N396 1.398 . S
C394 N393 1.298 . S
C394 N397 1.367 . S
C394 C407 1.481 . S
C395 N396 1.299 . S
C395 N397 1.379 . S
N396 N393 1.398 . S
N396 C395 1.299 . S
N397 C394 1.367 . S
N397 C395 1.379 . S
C398 N400 1.298 . S
C398 N402 1.367 . S
C398 C406 1.481 . S
C399 N401 1.299 . S
C399 N402 1.379 . S
N400 Zn384 2.036 . S
N400 C398 1.298 . S
N400 N401 1.398 . S
N401 C399 1.299 . S
N401 N400 1.398 . S
N402 C398 1.367 . S
N402 C399 1.379 . S
H403 C406 0.980 . S
H404 C406 0.981 . S
H405 C406 0.981 . S
C406 C398 1.481 . S
C406 H403 0.980 . S
C406 H404 0.981 . S
C406 H405 0.981 . S
C407 C394 1.481 . S
C407 H408 0.980 . S
C407 H409 0.981 . S
C407 H410 0.981 . S
H408 C407 0.980 . S
H409 C407 0.981 . S
H410 C407 0.981 . S
O411 Zn387 2.066 . S
O411 C390 1.256 . S
O412 Zn384 2.053 . S
O412 C390 1.244 . S
C413 O391 1.259 . S
C413 O392 1.254 . S
O414 Zn384 2.066 . S
O414 C386 1.256 . S
O415 C386 1.244 . S
O415 Zn387 2.053 . S
Zn416 O417 2.055 . S
Zn416 O424 2.046 . S
Zn416 N432 2.036 . S
Zn416 O444 2.053 . S
Zn416 O446 2.066 . S
O417 Zn416 2.055 . S
O417 C420 1.259 . S
C418 O446 1.256 . S
C418 O447 1.244 . S
Zn419 O421 2.046 . S
Zn419 O423 2.055 . S
Zn419 N425 2.036 . S
Zn419 O443 2.066 . S
Zn419 O447 2.053 . S
C420 O417 1.259 . S
C420 O421 1.254 . S
O421 Zn419 2.046 . S
O421 C420 1.254 . S
C422 O443 1.256 . S
C422 O444 1.244 . S
O423 Zn419 2.055 . S
O423 C445 1.259 . S
O424 Zn416 2.046 . S
O424 C445 1.254 . S
N425 Zn419 2.036 . S
N425 C426 1.298 . S
N425 N428 1.398 . S
C426 N425 1.298 . S
C426 N429 1.367 . S
C426 C439 1.481 . S
C427 N428 1.299 . S
C427 N429 1.379 . S
N428 N425 1.398 . S
N428 C427 1.299 . S
N429 C426 1.367 . S
N429 C427 1.379 . S
C430 N432 1.298 . S
C430 N434 1.367 . S
C430 C438 1.481 . S
C431 N433 1.299 . S
C431 N434 1.379 . S
N432 Zn416 2.036 . S
N432 C430 1.298 . S
N432 N433 1.398 . S
N433 C431 1.299 . S
N433 N432 1.398 . S
N434 C430 1.367 . S
N434 C431 1.379 . S
H435 C438 0.980 . S
H436 C438 0.981 . S
H437 C438 0.981 . S
C438 C430 1.481 . S
C438 H435 0.980 . S
C438 H436 0.981 . S
C438 H437 0.981 . S
C439 C426 1.481 . S
C439 H440 0.980 . S
C439 H441 0.981 . S
C439 H442 0.981 . S
H440 C439 0.980 . S
H441 C439 0.981 . S
H442 C439 0.981 . S
O443 Zn419 2.066 . S
O443 C422 1.256 . S
O444 Zn416 2.053 . S
O444 C422 1.244 . S
C445 O423 1.259 . S
C445 O424 1.254 . S
O446 Zn416 2.066 . S
O446 C418 1.256 . S
O447 C418 1.244 . S
O447 Zn419 2.053 . S
Zn448 O449 2.055 . S
Zn448 O456 2.046 . S
Zn448 N464 2.036 . S
Zn448 O476 2.053 . S
Zn448 O478 2.066 . S
O449 Zn448 2.055 . S
O449 C452 1.259 . S
C450 O478 1.256 . S
C450 O479 1.244 . S
Zn451 O453 2.046 . S
Zn451 O455 2.055 . S
Zn451 N457 2.036 . S
Zn451 O475 2.066 . S
Zn451 O479 2.053 . S
C452 O449 1.259 . S
C452 O453 1.254 . S
O453 Zn451 2.046 . S
O453 C452 1.254 . S
C454 O475 1.256 . S
C454 O476 1.244 . S
O455 Zn451 2.055 . S
O455 C477 1.259 . S
O456 Zn448 2.046 . S
O456 C477 1.254 . S
N457 Zn451 2.036 . S
N457 C458 1.298 . S
N457 N460 1.398 . S
C458 N457 1.298 . S
C458 N461 1.367 . S
C458 C471 1.481 . S
C459 N460 1.299 . S
C459 N461 1.379 . S
N460 N457 1.398 . S
N460 C459 1.299 . S
N461 C458 1.367 . S
N461 C459 1.379 . S
C462 N464 1.298 . S
C462 N466 1.367 . S
C462 C470 1.481 . S
C463 N465 1.299 . S
C463 N466 1.379 . S
N464 Zn448 2.036 . S
N464 C462 1.298 . S
N464 N465 1.398 . S
N465 C463 1.299 . S
N465 N464 1.398 . S
N466 C462 1.367 . S
N466 C463 1.379 . S
H467 C470 0.980 . S
H468 C470 0.981 . S
H469 C470 0.981 . S
C470 C462 1.481 . S
C470 H467 0.980 . S
C470 H468 0.981 . S
C470 H469 0.981 . S
C471 C458 1.481 . S
C471 H472 0.980 . S
C471 H473 0.981 . S
C471 H474 0.981 . S
H472 C471 0.980 . S
H473 C471 0.981 . S
H474 C471 0.981 . S
O475 Zn451 2.066 . S
O475 C454 1.256 . S
O476 Zn448 2.053 . S
O476 C454 1.244 . S
C477 O455 1.259 . S
C477 O456 1.254 . S
O478 Zn448 2.066 . S
O478 C450 1.256 . S
O479 C450 1.244 . S
O479 Zn451 2.053 . S
Zn480 O481 2.055 . S
Zn480 O488 2.046 . S
Zn480 N496 2.036 . S
Zn480 O508 2.053 . S
Zn480 O510 2.066 . S
O481 Zn480 2.055 . S
O481 C484 1.259 . S
C482 O510 1.256 . S
C482 O511 1.244 . S
Zn483 O485 2.046 . S
Zn483 O487 2.055 . S
Zn483 N489 2.036 . S
Zn483 O507 2.066 . S
Zn483 O511 2.053 . S
C484 O481 1.259 . S
C484 O485 1.254 . S
O485 Zn483 2.046 . S
O485 C484 1.254 . S
C486 O507 1.256 . S
C486 O508 1.244 . S
O487 Zn483 2.055 . S
O487 C509 1.259 . S
O488 Zn480 2.046 . S
O488 C509 1.254 . S
N489 Zn483 2.036 . S
N489 C490 1.298 . S
N489 N492 1.398 . S
C490 N489 1.298 . S
C490 N493 1.367 . S
C490 C503 1.481 . S
C491 N492 1.299 . S
C491 N493 1.379 . S
N492 N489 1.398 . S
N492 C491 1.299 . S
N493 C490 1.367 . S
N493 C491 1.379 . S
C494 N496 1.298 . S
C494 N498 1.367 . S
C494 C502 1.481 . S
C495 N497 1.299 . S
C495 N498 1.379 . S
N496 Zn480 2.036 . S
N496 C494 1.298 . S
N496 N497 1.398 . S
N497 C495 1.299 . S
N497 N496 1.398 . S
N498 C494 1.367 . S
N498 C495 1.379 . S
H499 C502 0.980 . S
H500 C502 0.981 . S
H501 C502 0.981 . S
C502 C494 1.481 . S
C502 H499 0.980 . S
C502 H500 0.981 . S
C502 H501 0.981 . S
C503 C490 1.481 . S
C503 H504 0.980 . S
C503 H505 0.981 . S
C503 H506 0.981 . S
H504 C503 0.980 . S
H505 C503 0.981 . S
H506 C503 0.981 . S
O507 Zn483 2.066 . S
O507 C486 1.256 . S
O508 Zn480 2.053 . S
O508 C486 1.244 . S
C509 O487 1.259 . S
C509 O488 1.254 . S
O510 Zn480 2.066 . S
O510 C482 1.256 . S
O511 C482 1.244 . S
O511 Zn483 2.053 . S
C512 C513 1.349 1_556 S
C512 C514 1.327 . S
C512 H537 0.950 . S
C513 C512 1.349 1_554 S
C513 C529 1.349 . S
C514 C512 1.327 . S
C514 C533 1.429 . S
C514 H538 0.950 . S
C515 C532 1.574 . S
C515 C534 1.368 . S
C515 H539 0.949 . S
H516 C520 0.949 . S
C517 C518 1.349 . S
C517 C519 1.327 . S
C517 H540 0.950 . S
C518 C517 1.349 . S
C518 C530 1.349 . S
C519 C517 1.327 . S
C519 C535 1.429 . S
C519 H541 0.950 . S
C520 H516 0.949 . S
C520 C528 1.574 . S
C520 C536 1.368 . S
H521 C529 0.950 . S
H522 C527 0.950 1_554 S
H523 C528 0.949 . S
H524 C530 0.950 . S
H525 C531 0.950 . S
H526 C532 0.949 . S
C527 H522 0.950 1_556 S
C527 C529 1.327 1_556 S
C527 C533 1.429 . S
C528 C520 1.574 . S
C528 H523 0.949 . S
C528 C534 1.368 . S
C529 C513 1.349 . S
C529 H521 0.950 . S
C529 C527 1.327 1_554 S
C530 C518 1.349 . S
C530 H524 0.950 . S
C530 C531 1.327 . S
C531 H525 0.950 . S
C531 C530 1.327 . S
C531 C535 1.429 . S
C532 C515 1.574 . S
C532 H526 0.949 . S
C532 C536 1.368 . S
C533 C514 1.429 . S
C533 C527 1.429 . S
C533 C534 1.523 . S
C534 C515 1.368 . S
C534 C528 1.368 . S
C534 C533 1.523 . S
C535 C519 1.429 . S
C535 C531 1.429 . S
C535 C536 1.523 . S
C536 C520 1.368 . S
C536 C532 1.368 . S
C536 C535 1.523 . S
H537 C512 0.950 . S
H538 C514 0.950 . S
H539 C515 0.949 . S
H540 C517 0.950 . S
H541 C519 0.950 . S
C542 C543 1.349 . S
C542 C544 1.327 . S
C542 H567 0.950 . S
C543 C542 1.349 . S
C543 C559 1.349 . S
C544 C542 1.327 . S
C544 C563 1.429 . S
C544 H568 0.950 . S
C545 C562 1.574 . S
C545 C564 1.368 . S
C545 H569 0.949 . S
H546 C550 0.949 . S
C547 C548 1.349 . S
C547 C549 1.327 1_556 S
C547 H570 0.950 . S
C548 C547 1.349 . S
C548 C560 1.349 1_556 S
C549 C547 1.327 1_554 S
C549 C565 1.429 . S
C549 H571 0.950 . S
C550 H546 0.949 . S
C550 C558 1.574 . S
C550 C566 1.368 . S
H551 C559 0.950 . S
H552 C557 0.950 . S
H553 C558 0.949 . S
H554 C560 0.950 1_556 S
H555 C561 0.950 . S
H556 C562 0.949 . S
C557 H552 0.950 . S
C557 C559 1.327 . S
C557 C563 1.429 . S
C558 C550 1.574 . S
C558 H553 0.949 . S
C558 C564 1.368 . S
C559 C543 1.349 . S
C559 H551 0.950 . S
C559 C557 1.327 . S
C560 C548 1.349 1_554 S
C560 H554 0.950 1_554 S
C560 C561 1.327 . S
C561 H555 0.950 . S
C561 C560 1.327 . S
C561 C565 1.429 . S
C562 C545 1.574 . S
C562 H556 0.949 . S
C562 C566 1.368 . S
C563 C544 1.429 . S
C563 C557 1.429 . S
C563 C564 1.523 . S
C564 C545 1.368 . S
C564 C558 1.368 . S
C564 C563 1.523 . S
C565 C549 1.429 . S
C565 C561 1.429 . S
C565 C566 1.523 . S
C566 C550 1.368 . S
C566 C562 1.368 . S
C566 C565 1.523 . S
H567 C542 0.950 . S
H568 C544 0.950 . S
H569 C545 0.949 . S
H570 C547 0.950 . S
H571 C549 0.950 . S
C572 C573 1.349 . S
C572 C574 1.327 . S
C572 H597 0.950 . S
C573 C572 1.349 . S
C573 C589 1.349 . S
C574 C572 1.327 . S
C574 C593 1.429 . S
C574 H598 0.950 . S
C575 C592 1.574 . S
C575 C594 1.368 . S
C575 H599 0.949 . S
H576 C580 0.949 . S
C577 C578 1.349 . S
C577 C579 1.327 . S
C577 H600 0.950 . S
C578 C577 1.349 . S
C578 C590 1.349 . S
C579 C577 1.327 . S
C579 C595 1.429 . S
C579 H601 0.950 . S
C580 H576 0.949 . S
C580 C588 1.574 . S
C580 C596 1.368 . S
H581 C589 0.950 . S
H582 C587 0.950 . S
H583 C588 0.949 . S
H584 C590 0.950 . S
H585 C591 0.950 . S
H586 C592 0.949 . S
C587 H582 0.950 . S
C587 C589 1.327 . S
C587 C593 1.429 . S
C588 C580 1.574 . S
C588 H583 0.949 . S
C588 C594 1.368 . S
C589 C573 1.349 . S
C589 H581 0.950 . S
C589 C587 1.327 . S
C590 C578 1.349 . S
C590 H584 0.950 . S
C590 C591 1.327 . S
C591 H585 0.950 . S
C591 C590 1.327 . S
C591 C595 1.429 . S
C592 C575 1.574 . S
C592 H586 0.949 . S
C592 C596 1.368 . S
C593 C574 1.429 . S
C593 C587 1.429 . S
C593 C594 1.523 . S
C594 C575 1.368 . S
C594 C588 1.368 . S
C594 C593 1.523 . S
C595 C579 1.429 . S
C595 C591 1.429 . S
C595 C596 1.523 . S
C596 C580 1.368 . S
C596 C592 1.368 . S
C596 C595 1.523 . S
H597 C572 0.950 . S
H598 C574 0.950 . S
H599 C575 0.949 . S
H600 C577 0.950 . S
H601 C579 0.950 . S
C602 C603 1.349 . S
C602 C604 1.327 . S
C602 H627 0.950 . S
C603 C602 1.349 . S
C603 C619 1.349 . S
C604 C602 1.327 . S
C604 C623 1.429 . S
C604 H628 0.950 . S
C605 C622 1.574 . S
C605 C624 1.368 . S
C605 H629 0.949 . S
H606 C610 0.949 . S
C607 C608 1.349 . S
C607 C609 1.327 . S
C607 H630 0.950 . S
C608 C607 1.349 . S
C608 C620 1.349 . S
C609 C607 1.327 . S
C609 C625 1.429 . S
C609 H631 0.950 . S
C610 H606 0.949 . S
C610 C618 1.574 . S
C610 C626 1.368 . S
H611 C619 0.950 . S
H612 C617 0.950 . S
H613 C618 0.949 . S
H614 C620 0.950 . S
H615 C621 0.950 . S
H616 C622 0.949 . S
C617 H612 0.950 . S
C617 C619 1.327 . S
C617 C623 1.429 . S
C618 C610 1.574 . S
C618 H613 0.949 . S
C618 C624 1.368 . S
C619 C603 1.349 . S
C619 H611 0.950 . S
C619 C617 1.327 . S
C620 C608 1.349 . S
C620 H614 0.950 . S
C620 C621 1.327 . S
C621 H615 0.950 . S
C621 C620 1.327 . S
C621 C625 1.429 . S
C622 C605 1.574 . S
C622 H616 0.949 . S
C622 C626 1.368 . S
C623 C604 1.429 . S
C623 C617 1.429 . S
C623 C624 1.523 . S
C624 C605 1.368 . S
C624 C618 1.368 . S
C624 C623 1.523 . S
C625 C609 1.429 . S
C625 C621 1.429 . S
C625 C626 1.523 . S
C626 C610 1.368 . S
C626 C622 1.368 . S
C626 C625 1.523 . S
H627 C602 0.950 . S
H628 C604 0.950 . S
H629 C605 0.949 . S
H630 C607 0.950 . S
H631 C609 0.950 . S
C632 C633 1.349 . S
C632 C634 1.327 . S
C632 H657 0.950 . S
C633 C632 1.349 . S
C633 C649 1.349 . S
C634 C632 1.327 . S
C634 C653 1.429 . S
C634 H658 0.950 . S
C635 C652 1.574 . S
C635 C654 1.368 . S
C635 H659 0.949 . S
H636 C640 0.949 . S
C637 C638 1.349 1_554 S
C637 C639 1.327 . S
C637 H660 0.950 1_655 S
C638 C637 1.349 1_556 S
C638 C650 1.349 . S
C639 C637 1.327 . S
C639 C655 1.429 . S
C639 H661 0.950 . S
C640 H636 0.949 . S
C640 C648 1.574 . S
C640 C656 1.368 . S
H641 C649 0.950 . S
H642 C647 0.950 . S
H643 C648 0.949 . S
H644 C650 0.950 . S
H645 C651 0.950 1_556 S
H646 C652 0.949 . S
C647 H642 0.950 . S
C647 C649 1.327 . S
C647 C653 1.429 . S
C648 C640 1.574 . S
C648 H643 0.949 . S
C648 C654 1.368 . S
C649 C633 1.349 . S
C649 H641 0.950 . S
C649 C647 1.327 . S
C650 C638 1.349 . S
C650 H644 0.950 . S
C650 C651 1.327 1_556 S
C651 H645 0.950 1_554 S
C651 C650 1.327 1_554 S
C651 C655 1.429 . S
C652 C635 1.574 . S
C652 H646 0.949 . S
C652 C656 1.368 . S
C653 C634 1.429 . S
C653 C647 1.429 . S
C653 C654 1.523 . S
C654 C635 1.368 . S
C654 C648 1.368 . S
C654 C653 1.523 . S
C655 C639 1.429 . S
C655 C651 1.429 . S
C655 C656 1.523 . S
C656 C640 1.368 . S
C656 C652 1.368 . S
C656 C655 1.523 . S
H657 C632 0.950 . S
H658 C634 0.950 . S
H659 C635 0.949 . S
H660 C637 0.950 1_455 S
H661 C639 0.950 . S
C662 C663 1.349 . S
C662 C664 1.327 . S
C662 H687 0.950 . S
C663 C662 1.349 . S
C663 C679 1.349 . S
C664 C662 1.327 . S
C664 C683 1.429 . S
C664 H688 0.950 . S
C665 C682 1.574 . S
C665 C684 1.368 . S
C665 H689 0.949 . S
H666 C670 0.949 . S
C667 C668 1.349 1_556 S
C667 C669 1.327 . S
C667 H690 0.955 1_655 S
C668 C667 1.349 1_554 S
C668 C680 1.349 . S
C669 C667 1.327 . S
C669 C685 1.429 . S
C669 H691 0.950 . S
C670 H666 0.949 . S
C670 C678 1.574 . S
C670 C686 1.368 . S
H671 C679 0.950 . S
H672 C677 0.950 . S
H673 C678 0.949 . S
H674 C680 0.950 . S
H675 C681 0.950 1_554 S
H676 C682 0.949 . S
C677 H672 0.950 . S
C677 C679 1.327 . S
C677 C683 1.429 . S
C678 C670 1.574 . S
C678 H673 0.949 . S
C678 C684 1.368 . S
C679 C663 1.349 . S
C679 H671 0.950 . S
C679 C677 1.327 . S
C680 C668 1.349 . S
C680 H674 0.950 . S
C680 C681 1.327 1_554 S
C681 H675 0.950 1_556 S
C681 C680 1.327 1_556 S
C681 C685 1.429 . S
C682 C665 1.574 . S
C682 H676 0.949 . S
C682 C686 1.368 . S
C683 C664 1.429 . S
C683 C677 1.429 . S
C683 C684 1.523 . S
C684 C665 1.368 . S
C684 C678 1.368 . S
C684 C683 1.523 . S
C685 C669 1.429 . S
C685 C681 1.429 . S
C685 C686 1.523 . S
C686 C670 1.368 . S
C686 C682 1.368 . S
C686 C685 1.523 . S
H687 C662 0.950 . S
H688 C664 0.950 . S
H689 C665 0.949 . S
H690 C667 0.955 1_455 S
H691 C669 0.950 . S
C692 C693 1.349 . S
C692 C694 1.327 . S
C692 H717 0.950 . S
C693 C692 1.349 . S
C693 C709 1.349 . S
C694 C692 1.327 . S
C694 C713 1.429 . S
C694 H718 0.950 . S
C695 C712 1.574 . S
C695 C714 1.368 . S
C695 H719 0.949 . S
H696 C700 0.949 . S
C697 C698 1.349 . S
C697 C699 1.327 . S
C697 H720 0.950 . S
C698 C697 1.349 . S
C698 C710 1.349 . S
C699 C697 1.327 . S
C699 C715 1.429 . S
C699 H721 0.950 . S
C700 H696 0.949 . S
C700 C708 1.574 . S
C700 C716 1.368 . S
H701 C709 0.950 . S
H702 C707 0.950 . S
H703 C708 0.949 . S
H704 C710 0.950 . S
H705 C711 0.950 . S
H706 C712 0.949 . S
C707 H702 0.950 . S
C707 C709 1.327 . S
C707 C713 1.429 . S
C708 C700 1.574 . S
C708 H703 0.949 . S
C708 C714 1.368 . S
C709 C693 1.349 . S
C709 H701 0.950 . S
C709 C707 1.327 . S
C710 C698 1.349 . S
C710 H704 0.950 . S
C710 C711 1.327 . S
C711 H705 0.950 . S
C711 C710 1.327 . S
C711 C715 1.429 . S
C712 C695 1.574 . S
C712 H706 0.949 . S
C712 C716 1.368 . S
C713 C694 1.429 . S
C713 C707 1.429 . S
C713 C714 1.523 . S
C714 C695 1.368 . S
C714 C708 1.368 . S
C714 C713 1.523 . S
C715 C699 1.429 . S
C715 C711 1.429 . S
C715 C716 1.523 . S
C716 C700 1.368 . S
C716 C712 1.368 . S
C716 C715 1.523 . S
H717 C692 0.950 . S
H718 C694 0.950 . S
H719 C695 0.949 . S
H720 C697 0.950 . S
H721 C699 0.950 . S
C722 C723 1.349 . S
C722 C724 1.327 . S
C722 H747 0.950 . S
C723 C722 1.349 . S
C723 C739 1.349 . S
C724 C722 1.327 . S
C724 C743 1.429 . S
C724 H748 0.950 . S
C725 C742 1.574 . S
C725 C744 1.368 . S
C725 H749 0.949 . S
H726 C730 0.949 . S
C727 C728 1.349 . S
C727 C729 1.327 . S
C727 H750 0.950 . S
C728 C727 1.349 . S
C728 C740 1.349 . S
C729 C727 1.327 . S
C729 C745 1.429 . S
C729 H751 0.950 . S
C730 H726 0.949 . S
C730 C738 1.574 . S
C730 C746 1.368 . S
H731 C739 0.950 . S
H732 C737 0.950 . S
H733 C738 0.949 . S
H734 C740 0.950 . S
H735 C741 0.950 . S
H736 C742 0.949 . S
C737 H732 0.950 . S
C737 C739 1.327 . S
C737 C743 1.429 . S
C738 C730 1.574 . S
C738 H733 0.949 . S
C738 C744 1.368 . S
C739 C723 1.349 . S
C739 H731 0.950 . S
C739 C737 1.327 . S
C740 C728 1.349 . S
C740 H734 0.950 . S
C740 C741 1.327 . S
C741 H735 0.950 . S
C741 C740 1.327 . S
C741 C745 1.429 . S
C742 C725 1.574 . S
C742 H736 0.949 . S
C742 C746 1.368 . S
C743 C724 1.429 . S
C743 C737 1.429 . S
C743 C744 1.523 . S
C744 C725 1.368 . S
C744 C738 1.368 . S
C744 C743 1.523 . S
C745 C729 1.429 . S
C745 C741 1.429 . S
C745 C746 1.523 . S
C746 C730 1.368 . S
C746 C742 1.368 . S
C746 C745 1.523 . S
H747 C722 0.950 . S
H748 C724 0.950 . S
H749 C725 0.949 . S
H750 C727 0.950 . S
H751 C729 0.950 . S
C752 C753 1.349 . S
C752 C754 1.327 . S
C752 H777 0.950 . S
C753 C752 1.349 . S
C753 C769 1.349 . S
C754 C752 1.327 . S
C754 C773 1.429 . S
C754 H778 0.950 . S
C755 C772 1.574 . S
C755 C774 1.368 . S
C755 H779 0.949 . S
H756 C760 0.949 . S
C757 C758 1.349 . S
C757 C759 1.327 . S
C757 H780 0.950 . S
C758 C757 1.349 . S
C758 C770 1.349 . S
C759 C757 1.327 . S
C759 C775 1.429 . S
C759 H781 0.950 . S
C760 H756 0.949 . S
C760 C768 1.574 . S
C760 C776 1.368 . S
H761 C769 0.950 . S
H762 C767 0.950 . S
H763 C768 0.949 . S
H764 C770 0.950 . S
H765 C771 0.950 . S
H766 C772 0.949 . S
C767 H762 0.950 . S
C767 C769 1.327 . S
C767 C773 1.429 . S
C768 C760 1.574 . S
C768 H763 0.949 . S
C768 C774 1.368 . S
C769 C753 1.349 . S
C769 H761 0.950 . S
C769 C767 1.327 . S
C770 C758 1.349 . S
C770 H764 0.950 . S
C770 C771 1.327 . S
C771 H765 0.950 . S
C771 C770 1.327 . S
C771 C775 1.429 . S
C772 C755 1.574 . S
C772 H766 0.949 . S
C772 C776 1.368 . S
C773 C754 1.429 . S
C773 C767 1.429 . S
C773 C774 1.523 . S
C774 C755 1.368 . S
C774 C768 1.368 . S
C774 C773 1.523 . S
C775 C759 1.429 . S
C775 C771 1.429 . S
C775 C776 1.523 . S
C776 C760 1.368 . S
C776 C772 1.368 . S
C776 C775 1.523 . S
H777 C752 0.950 . S
H778 C754 0.950 . S
H779 C755 0.949 . S
H780 C757 0.950 . S
H781 C759 0.950 . S
C782 C783 1.349 . S
C782 C784 1.327 . S
C782 H807 0.950 . S
C783 C782 1.349 . S
C783 C799 1.349 . S
C784 C782 1.327 . S
C784 C803 1.429 . S
C784 H808 0.950 . S
C785 C802 1.574 . S
C785 C804 1.368 . S
C785 H809 0.949 . S
H786 C790 0.949 . S
C787 C788 1.349 . S
C787 C789 1.327 . S
C787 H810 0.950 . S
C788 C787 1.349 . S
C788 C800 1.349 . S
C789 C787 1.327 . S
C789 C805 1.429 . S
C789 H811 0.950 . S
C790 H786 0.949 . S
C790 C798 1.574 . S
C790 C806 1.368 . S
H791 C799 0.950 . S
H792 C797 0.950 . S
H793 C798 0.949 . S
H794 C800 0.950 . S
H795 C801 0.950 . S
H796 C802 0.949 . S
C797 H792 0.950 . S
C797 C799 1.327 . S
C797 C803 1.429 . S
C798 C790 1.574 . S
C798 H793 0.949 . S
C798 C804 1.368 . S
C799 C783 1.349 . S
C799 H791 0.950 . S
C799 C797 1.327 . S
C800 C788 1.349 . S
C800 H794 0.950 . S
C800 C801 1.327 . S
C801 H795 0.950 . S
C801 C800 1.327 . S
C801 C805 1.429 . S
C802 C785 1.574 . S
C802 H796 0.949 . S
C802 C806 1.368 . S
C803 C784 1.429 . S
C803 C797 1.429 . S
C803 C804 1.523 . S
C804 C785 1.368 . S
C804 C798 1.368 . S
C804 C803 1.523 . S
C805 C789 1.429 . S
C805 C801 1.429 . S
C805 C806 1.523 . S
C806 C790 1.368 . S
C806 C802 1.368 . S
C806 C805 1.523 . S
H807 C782 0.950 . S
H808 C784 0.950 . S
H809 C785 0.949 . S
H810 C787 0.950 . S
H811 C789 0.950 . S
C812 C813 1.349 . S
C812 C814 1.327 1_554 S
C812 H837 0.950 . S
C813 C812 1.349 . S
C813 C829 1.349 1_554 S
C814 C812 1.327 1_556 S
C814 C833 1.429 . S
C814 H838 0.950 . S
C815 C832 1.574 . S
C815 C834 1.368 . S
C815 H839 0.949 . S
H816 C820 0.949 . S
C817 C818 1.349 . S
C817 C819 1.327 . S
C817 H840 0.950 . S
C818 C817 1.349 . S
C818 C830 1.349 . S
C819 C817 1.327 . S
C819 C835 1.429 . S
C819 H841 0.950 . S
C820 H816 0.949 . S
C820 C828 1.574 . S
C820 C836 1.368 . S
H821 C829 0.950 1_455 S
H822 C827 0.950 . S
H823 C828 0.949 . S
H824 C830 0.950 . S
H825 C831 0.950 . S
H826 C832 0.949 . S
C827 H822 0.950 . S
C827 C829 1.327 . S
C827 C833 1.429 . S
C828 C820 1.574 . S
C828 H823 0.949 . S
C828 C834 1.368 . S
C829 C813 1.349 1_556 S
C829 H821 0.950 1_655 S
C829 C827 1.327 . S
C830 C818 1.349 . S
C830 H824 0.950 . S
C830 C831 1.327 . S
C831 H825 0.950 . S
C831 C830 1.327 . S
C831 C835 1.429 . S
C832 C815 1.574 . S
C832 H826 0.949 . S
C832 C836 1.368 . S
C833 C814 1.429 . S
C833 C827 1.429 . S
C833 C834 1.523 . S
C834 C815 1.368 . S
C834 C828 1.368 . S
C834 C833 1.523 . S
C835 C819 1.429 . S
C835 C831 1.429 . S
C835 C836 1.523 . S
C836 C820 1.368 . S
C836 C832 1.368 . S
C836 C835 1.523 . S
H837 C812 0.950 . S
H838 C814 0.950 . S
H839 C815 0.949 . S
H840 C817 0.950 . S
H841 C819 0.950 . S
C842 C843 1.349 . S
C842 C844 1.327 . S
C842 H867 0.950 . S
C843 C842 1.349 . S
C843 C859 1.349 . S
C844 C842 1.327 . S
C844 C863 1.429 . S
C844 H868 0.950 . S
C845 C862 1.574 . S
C845 C864 1.368 . S
C845 H869 0.949 . S
H846 C850 0.949 . S
C847 C848 1.349 1_554 S
C847 C849 1.327 . S
C847 H870 0.950 . S
C848 C847 1.349 1_556 S
C848 C860 1.349 . S
C849 C847 1.327 . S
C849 C865 1.429 . S
C849 H871 0.950 . S
C850 H846 0.949 . S
C850 C858 1.574 . S
C850 C866 1.368 . S
H851 C859 0.950 . S
H852 C857 0.950 . S
H853 C858 0.949 . S
H854 C860 0.950 . S
H855 C861 0.950 . S
H856 C862 0.949 . S
C857 H852 0.950 . S
C857 C859 1.327 . S
C857 C863 1.429 . S
C858 C850 1.574 . S
C858 H853 0.949 . S
C858 C864 1.368 . S
C859 C843 1.349 . S
C859 H851 0.950 . S
C859 C857 1.327 . S
C860 C848 1.349 . S
C860 H854 0.950 . S
C860 C861 1.327 1_556 S
C861 H855 0.950 . S
C861 C860 1.327 1_554 S
C861 C865 1.429 . S
C862 C845 1.574 . S
C862 H856 0.949 . S
C862 C866 1.368 . S
C863 C844 1.429 . S
C863 C857 1.429 . S
C863 C864 1.523 . S
C864 C845 1.368 . S
C864 C858 1.368 . S
C864 C863 1.523 . S
C865 C849 1.429 . S
C865 C861 1.429 . S
C865 C866 1.523 . S
C866 C850 1.368 . S
C866 C862 1.368 . S
C866 C865 1.523 . S
H867 C842 0.950 . S
H868 C844 0.950 . S
H869 C845 0.949 . S
H870 C847 0.950 . S
H871 C849 0.950 . S
C872 C873 1.349 . S
C872 C874 1.327 . S
C872 H897 0.950 . S
C873 C872 1.349 . S
C873 C889 1.349 . S
C874 C872 1.327 . S
C874 C893 1.429 . S
C874 H898 0.950 . S
C875 C892 1.574 . S
C875 C894 1.368 . S
C875 H899 0.949 . S
H876 C880 0.949 . S
C877 C878 1.349 . S
C877 C879 1.327 . S
C877 H900 0.950 . S
C878 C877 1.349 . S
C878 C890 1.349 . S
C879 C877 1.327 . S
C879 C895 1.429 . S
C879 H901 0.950 . S
C880 H876 0.949 . S
C880 C888 1.574 . S
C880 C896 1.368 . S
H881 C889 0.950 . S
H882 C887 0.950 . S
H883 C888 0.949 . S
H884 C890 0.950 . S
H885 C891 0.950 . S
H886 C892 0.949 . S
C887 H882 0.950 . S
C887 C889 1.327 . S
C887 C893 1.429 . S
C888 C880 1.574 . S
C888 H883 0.949 . S
C888 C894 1.368 . S
C889 C873 1.349 . S
C889 H881 0.950 . S
C889 C887 1.327 . S
C890 C878 1.349 . S
C890 H884 0.950 . S
C890 C891 1.327 . S
C891 H885 0.950 . S
C891 C890 1.327 . S
C891 C895 1.429 . S
C892 C875 1.574 . S
C892 H886 0.949 . S
C892 C896 1.368 . S
C893 C874 1.429 . S
C893 C887 1.429 . S
C893 C894 1.523 . S
C894 C875 1.368 . S
C894 C888 1.368 . S
C894 C893 1.523 . S
C895 C879 1.429 . S
C895 C891 1.429 . S
C895 C896 1.523 . S
C896 C880 1.368 . S
C896 C892 1.368 . S
C896 C895 1.523 . S
H897 C872 0.950 . S
H898 C874 0.950 . S
H899 C875 0.949 . S
H900 C877 0.950 . S
H901 C879 0.950 . S
C902 C903 1.349 . S
C902 C904 1.327 . S
C902 H927 0.950 . S
C903 C902 1.349 . S
C903 C919 1.349 . S
C904 C902 1.327 . S
C904 C923 1.429 . S
C904 H928 0.950 . S
C905 C922 1.574 . S
C905 C924 1.368 . S
C905 H929 0.949 . S
H906 C910 0.949 . S
C907 C908 1.349 . S
C907 C909 1.327 . S
C907 H930 0.950 . S
C908 C907 1.349 . S
C908 C920 1.349 . S
C909 C907 1.327 . S
C909 C925 1.429 . S
C909 H931 0.950 . S
C910 H906 0.949 . S
C910 C918 1.574 . S
C910 C926 1.368 . S
H911 C919 0.950 . S
H912 C917 0.950 . S
H913 C918 0.949 . S
H914 C920 0.950 . S
H915 C921 0.950 . S
H916 C922 0.949 . S
C917 H912 0.950 . S
C917 C919 1.327 . S
C917 C923 1.429 . S
C918 C910 1.574 . S
C918 H913 0.949 . S
C918 C924 1.368 . S
C919 C903 1.349 . S
C919 H911 0.950 . S
C919 C917 1.327 . S
C920 C908 1.349 . S
C920 H914 0.950 . S
C920 C921 1.327 . S
C921 H915 0.950 . S
C921 C920 1.327 . S
C921 C925 1.429 . S
C922 C905 1.574 . S
C922 H916 0.949 . S
C922 C926 1.368 . S
C923 C904 1.429 . S
C923 C917 1.429 . S
C923 C924 1.523 . S
C924 C905 1.368 . S
C924 C918 1.368 . S
C924 C923 1.523 . S
C925 C909 1.429 . S
C925 C921 1.429 . S
C925 C926 1.523 . S
C926 C910 1.368 . S
C926 C922 1.368 . S
C926 C925 1.523 . S
H927 C902 0.950 . S
H928 C904 0.950 . S
H929 C905 0.949 . S
H930 C907 0.950 . S
H931 C909 0.950 . S
C932 C933 1.349 . S
C932 C934 1.327 . S
C932 H957 0.950 . S
C933 C932 1.349 . S
C933 C949 1.349 . S
C934 C932 1.327 . S
C934 C953 1.429 . S
C934 H958 0.950 . S
C935 C952 1.574 . S
C935 C954 1.368 . S
C935 H959 0.949 . S
H936 C940 0.949 . S
C937 C938 1.349 1_554 S
C937 C939 1.327 . S
C937 H960 0.950 1_554 S
C938 C937 1.349 1_556 S
C938 C950 1.349 . S
C939 C937 1.327 . S
C939 C955 1.429 . S
C939 H961 0.950 . S
C940 H936 0.949 . S
C940 C948 1.574 . S
C940 C956 1.368 . S
H941 C949 0.950 . S
H942 C947 0.950 . S
H943 C948 0.949 . S
H944 C950 0.950 . S
H945 C951 0.950 . S
H946 C952 0.949 . S
C947 H942 0.950 . S
C947 C949 1.327 . S
C947 C953 1.429 . S
C948 C940 1.574 . S
C948 H943 0.949 . S
C948 C954 1.368 . S
C949 C933 1.349 . S
C949 H941 0.950 . S
C949 C947 1.327 . S
C950 C938 1.349 . S
C950 H944 0.950 . S
C950 C951 1.327 1_556 S
C951 H945 0.950 . S
C951 C950 1.327 1_554 S
C951 C955 1.429 . S
C952 C935 1.574 . S
C952 H946 0.949 . S
C952 C956 1.368 . S
C953 C934 1.429 . S
C953 C947 1.429 . S
C953 C954 1.523 . S
C954 C935 1.368 . S
C954 C948 1.368 . S
C954 C953 1.523 . S
C955 C939 1.429 . S
C955 C951 1.429 . S
C955 C956 1.523 . S
C956 C940 1.368 . S
C956 C952 1.368 . S
C956 C955 1.523 . S
H957 C932 0.950 . S
H958 C934 0.950 . S
H959 C935 0.949 . S
H960 C937 0.950 1_556 S
H961 C939 0.950 . S
C962 C963 1.349 . S
C962 C964 1.327 . S
C962 H987 0.950 . S
C963 C962 1.349 . S
C963 C979 1.349 . S
C964 C962 1.327 . S
C964 C983 1.429 . S
C964 H988 0.950 . S
C965 C982 1.574 . S
C965 C984 1.368 . S
C965 H989 0.949 . S
H966 C970 0.949 . S
C967 C968 1.349 1_556 S
C967 C969 1.327 . S
C967 H990 0.950 . S
C968 C967 1.349 1_554 S
C968 C980 1.349 . S
C969 C967 1.327 . S
C969 C985 1.429 . S
C969 H991 0.950 . S
C970 H966 0.949 . S
C970 C978 1.574 . S
C970 C986 1.368 . S
H971 C979 0.950 . S
H972 C977 0.950 . S
H973 C978 0.949 . S
H974 C980 0.950 . S
H975 C981 0.950 1_554 S
H976 C982 0.949 . S
C977 H972 0.950 . S
C977 C979 1.327 . S
C977 C983 1.429 . S
C978 C970 1.574 . S
C978 H973 0.949 . S
C978 C984 1.368 . S
C979 C963 1.349 . S
C979 H971 0.950 . S
C979 C977 1.327 . S
C980 C968 1.349 . S
C980 H974 0.950 . S
C980 C981 1.327 1_554 S
C981 H975 0.950 1_556 S
C981 C980 1.327 1_556 S
C981 C985 1.429 . S
C982 C965 1.574 . S
C982 H976 0.949 . S
C982 C986 1.368 . S
C983 C964 1.429 . S
C983 C977 1.429 . S
C983 C984 1.523 . S
C984 C965 1.368 . S
C984 C978 1.368 . S
C984 C983 1.523 . S
C985 C969 1.429 . S
C985 C981 1.429 . S
C985 C986 1.523 . S
C986 C970 1.368 . S
C986 C982 1.368 . S
C986 C985 1.523 . S
H987 C962 0.950 . S
H988 C964 0.950 . S
H989 C965 0.949 . S
H990 C967 0.950 . S
H991 C969 0.950 . S
C992 C993 1.349 . S
C992 C994 1.327 . S
C992 H1017 0.950 . S
C993 C992 1.349 . S
C993 C1009 1.349 1_455 S
C994 C992 1.327 . S
C994 C1013 1.429 . S
C994 H1018 0.950 . S
C995 C1012 1.574 . S
C995 C1014 1.368 . S
C995 H1019 0.949 . S
H996 C1000 0.949 . S
C997 C998 1.349 . S
C997 C999 1.327 . S
C997 H1020 0.950 . S
C998 C997 1.349 . S
C998 C1010 1.349 . S
C999 C997 1.327 . S
C999 C1015 1.429 . S
C999 H1021 0.950 . S
C1000 H996 0.949 . S
C1000 C1008 1.574 . S
C1000 C1016 1.368 . S
H1001 C1009 0.950 . S
H1002 C1007 0.950 1_655 S
H1003 C1008 0.949 . S
H1004 C1010 0.950 . S
H1005 C1011 0.950 . S
H1006 C1012 0.949 . S
C1007 H1002 0.950 1_455 S
C1007 C1009 1.327 1_455 S
C1007 C1013 1.429 . S
C1008 C1000 1.574 . S
C1008 H1003 0.949 . S
C1008 C1014 1.368 . S
C1009 C993 1.349 1_655 S
C1009 H1001 0.950 . S
C1009 C1007 1.327 1_655 S
C1010 C998 1.349 . S
C1010 H1004 0.950 . S
C1010 C1011 1.327 . S
C1011 H1005 0.950 . S
C1011 C1010 1.327 . S
C1011 C1015 1.429 . S
C1012 C995 1.574 . S
C1012 H1006 0.949 . S
C1012 C1016 1.368 . S
C1013 C994 1.429 . S
C1013 C1007 1.429 . S
C1013 C1014 1.523 . S
C1014 C995 1.368 . S
C1014 C1008 1.368 . S
C1014 C1013 1.523 . S
C1015 C999 1.429 . S
C1015 C1011 1.429 . S
C1015 C1016 1.523 . S
C1016 C1000 1.368 . S
C1016 C1012 1.368 . S
C1016 C1015 1.523 . S
H1017 C992 0.950 . S
H1018 C994 0.950 . S
H1019 C995 0.949 . S
H1020 C997 0.950 . S
H1021 C999 0.950 . S
C1022 C1023 1.349 . S
C1022 C1024 1.327 . S
C1022 H1047 0.950 . S
C1023 C1022 1.349 . S
C1023 C1039 1.349 . S
C1024 C1022 1.327 . S
C1024 C1043 1.429 . S
C1024 H1048 0.950 . S
C1025 C1042 1.574 . S
C1025 C1044 1.368 . S
C1025 H1049 0.949 . S
H1026 C1030 0.949 . S
C1027 C1028 1.349 . S
C1027 C1029 1.327 . S
C1027 H1050 0.950 . S
C1028 C1027 1.349 . S
C1028 C1040 1.349 . S
C1029 C1027 1.327 . S
C1029 C1045 1.429 . S
C1029 H1051 0.950 . S
C1030 H1026 0.949 . S
C1030 C1038 1.574 . S
C1030 C1046 1.368 . S
H1031 C1039 0.950 . S
H1032 C1037 0.950 . S
H1033 C1038 0.949 . S
H1034 C1040 0.950 . S
H1035 C1041 0.950 . S
H1036 C1042 0.949 . S
C1037 H1032 0.950 . S
C1037 C1039 1.327 . S
C1037 C1043 1.429 . S
C1038 C1030 1.574 . S
C1038 H1033 0.949 . S
C1038 C1044 1.368 . S
C1039 C1023 1.349 . S
C1039 H1031 0.950 . S
C1039 C1037 1.327 . S
C1040 C1028 1.349 . S
C1040 H1034 0.950 . S
C1040 C1041 1.327 . S
C1041 H1035 0.950 . S
C1041 C1040 1.327 . S
C1041 C1045 1.429 . S
C1042 C1025 1.574 . S
C1042 H1036 0.949 . S
C1042 C1046 1.368 . S
C1043 C1024 1.429 . S
C1043 C1037 1.429 . S
C1043 C1044 1.523 1_655 S
C1044 C1025 1.368 . S
C1044 C1038 1.368 . S
C1044 C1043 1.523 1_455 S
C1045 C1029 1.429 . S
C1045 C1041 1.429 . S
C1045 C1046 1.523 . S
C1046 C1030 1.368 . S
C1046 C1042 1.368 . S
C1046 C1045 1.523 . S
H1047 C1022 0.950 . S
H1048 C1024 0.950 . S
H1049 C1025 0.949 . S
H1050 C1027 0.950 . S
H1051 C1029 0.950 . S
C1052 C1053 1.349 . S
C1052 C1054 1.327 . S
C1052 H1077 0.950 . S
C1053 C1052 1.349 . S
C1053 C1069 1.349 . S
C1054 C1052 1.327 . S
C1054 C1073 1.429 . S
C1054 H1078 0.950 . S
C1055 C1072 1.574 . S
C1055 C1074 1.368 . S
C1055 H1079 0.949 . S
H1056 C1060 0.949 . S
C1057 C1058 1.349 . S
C1057 C1059 1.327 . S
C1057 H1080 0.950 . S
C1058 C1057 1.349 . S
C1058 C1070 1.349 . S
C1059 C1057 1.327 . S
C1059 C1075 1.429 . S
C1059 H1081 0.950 . S
C1060 H1056 0.949 . S
C1060 C1068 1.574 . S
C1060 C1076 1.368 . S
H1061 C1069 0.950 . S
H1062 C1067 0.950 . S
H1063 C1068 0.949 . S
H1064 C1070 0.950 . S
H1065 C1071 0.950 . S
H1066 C1072 0.949 . S
C1067 H1062 0.950 . S
C1067 C1069 1.327 . S
C1067 C1073 1.429 . S
C1068 C1060 1.574 . S
C1068 H1063 0.949 . S
C1068 C1074 1.368 . S
C1069 C1053 1.349 . S
C1069 H1061 0.950 . S
C1069 C1067 1.327 . S
C1070 C1058 1.349 . S
C1070 H1064 0.950 . S
C1070 C1071 1.327 . S
C1071 H1065 0.950 . S
C1071 C1070 1.327 . S
C1071 C1075 1.429 . S
C1072 C1055 1.574 . S
C1072 H1066 0.949 . S
C1072 C1076 1.368 . S
C1073 C1054 1.429 . S
C1073 C1067 1.429 . S
C1073 C1074 1.523 . S
C1074 C1055 1.368 . S
C1074 C1068 1.368 . S
C1074 C1073 1.523 . S
C1075 C1059 1.429 . S
C1075 C1071 1.429 . S
C1075 C1076 1.523 . S
C1076 C1060 1.368 . S
C1076 C1072 1.368 . S
C1076 C1075 1.523 . S
H1077 C1052 0.950 . S
H1078 C1054 0.950 . S
H1079 C1055 0.949 . S
H1080 C1057 0.950 . S
H1081 C1059 0.950 . S
C1082 C1083 1.349 . S
C1082 C1084 1.327 . S
C1082 H1107 0.950 . S
C1083 C1082 1.349 . S
C1083 C1099 1.349 . S
C1084 C1082 1.327 . S
C1084 C1103 1.429 . S
C1084 H1108 0.950 . S
C1085 C1102 1.574 . S
C1085 C1104 1.368 . S
C1085 H1109 0.949 . S
H1086 C1090 0.949 . S
C1087 C1088 1.349 . S
C1087 C1089 1.327 . S
C1087 H1110 0.950 . S
C1088 C1087 1.349 . S
C1088 C1100 1.349 . S
C1089 C1087 1.327 . S
C1089 C1105 1.429 . S
C1089 H1111 0.950 . S
C1090 H1086 0.949 . S
C1090 C1098 1.574 . S
C1090 C1106 1.368 . S
H1091 C1099 0.950 . S
H1092 C1097 0.950 . S
H1093 C1098 0.949 . S
H1094 C1100 0.950 . S
H1095 C1101 0.950 . S
H1096 C1102 0.949 . S
C1097 H1092 0.950 . S
C1097 C1099 1.327 . S
C1097 C1103 1.429 . S
C1098 C1090 1.574 . S
C1098 H1093 0.949 . S
C1098 C1104 1.368 . S
C1099 C1083 1.349 . S
C1099 H1091 0.950 . S
C1099 C1097 1.327 . S
C1100 C1088 1.349 . S
C1100 H1094 0.950 . S
C1100 C1101 1.327 . S
C1101 H1095 0.950 . S
C1101 C1100 1.327 . S
C1101 C1105 1.429 . S
C1102 C1085 1.574 . S
C1102 H1096 0.949 . S
C1102 C1106 1.368 . S
C1103 C1084 1.429 . S
C1103 C1097 1.429 . S
C1103 C1104 1.523 . S
C1104 C1085 1.368 . S
C1104 C1098 1.368 . S
C1104 C1103 1.523 . S
C1105 C1089 1.429 . S
C1105 C1101 1.429 . S
C1105 C1106 1.523 . S
C1106 C1090 1.368 . S
C1106 C1102 1.368 . S
C1106 C1105 1.523 . S
H1107 C1082 0.950 . S
H1108 C1084 0.950 . S
H1109 C1085 0.949 . S
H1110 C1087 0.950 . S
H1111 C1089 0.950 . S
C1112 C1113 1.349 . S
C1112 C1114 1.327 . S
C1112 H1137 0.950 . S
C1113 C1112 1.349 . S
C1113 C1129 1.349 . S
C1114 C1112 1.327 . S
C1114 C1133 1.429 . S
C1114 H1138 0.950 . S
C1115 C1132 1.574 . S
C1115 C1134 1.368 . S
C1115 H1139 0.949 . S
H1116 C1120 0.949 . S
C1117 C1118 1.349 1_655 S
C1117 C1119 1.327 1_655 S
C1117 H1140 0.950 . S
C1118 C1117 1.349 1_455 S
C1118 C1130 1.349 . S
C1119 C1117 1.327 1_455 S
C1119 C1135 1.429 . S
C1119 H1141 0.950 1_455 S
C1120 H1116 0.949 . S
C1120 C1128 1.574 . S
C1120 C1136 1.368 . S
H1121 C1129 0.950 . S
H1122 C1127 0.950 . S
H1123 C1128 0.949 . S
H1124 C1130 0.950 . S
H1125 C1131 0.950 . S
H1126 C1132 0.949 . S
C1127 H1122 0.950 . S
C1127 C1129 1.327 . S
C1127 C1133 1.429 . S
C1128 C1120 1.574 . S
C1128 H1123 0.949 . S
C1128 C1134 1.368 . S
C1129 C1113 1.349 . S
C1129 H1121 0.950 . S
C1129 C1127 1.327 . S
C1130 C1118 1.349 . S
C1130 H1124 0.950 . S
C1130 C1131 1.327 . S
C1131 H1125 0.950 . S
C1131 C1130 1.327 . S
C1131 C1135 1.429 . S
C1132 C1115 1.574 . S
C1132 H1126 0.949 . S
C1132 C1136 1.368 . S
C1133 C1114 1.429 . S
C1133 C1127 1.429 . S
C1133 C1134 1.523 . S
C1134 C1115 1.368 . S
C1134 C1128 1.368 . S
C1134 C1133 1.523 . S
C1135 C1119 1.429 . S
C1135 C1131 1.429 . S
C1135 C1136 1.523 . S
C1136 C1120 1.368 . S
C1136 C1132 1.368 . S
C1136 C1135 1.523 . S
H1137 C1112 0.950 . S
H1138 C1114 0.950 . S
H1139 C1115 0.949 . S
H1140 C1117 0.950 . S
H1141 C1119 0.950 1_655 S
C1142 C1143 1.349 . S
C1142 C1144 1.327 . S
C1142 H1167 0.950 . S
C1143 C1142 1.349 . S
C1143 C1159 1.349 . S
C1144 C1142 1.327 . S
C1144 C1163 1.429 . S
C1144 H1168 0.950 . S
C1145 C1162 1.574 . S
C1145 C1164 1.368 . S
C1145 H1169 0.949 . S
H1146 C1150 0.949 . S
C1147 C1148 1.349 . S
C1147 C1149 1.327 . S
C1147 H1170 0.950 . S
C1148 C1147 1.349 . S
C1148 C1160 1.349 . S
C1149 C1147 1.327 . S
C1149 C1165 1.429 . S
C1149 H1171 0.950 . S
C1150 H1146 0.949 . S
C1150 C1158 1.574 . S
C1150 C1166 1.368 . S
H1151 C1159 0.950 . S
H1152 C1157 0.950 . S
H1153 C1158 0.949 . S
H1154 C1160 0.950 . S
H1155 C1161 0.950 . S
H1156 C1162 0.949 . S
C1157 H1152 0.950 . S
C1157 C1159 1.327 . S
C1157 C1163 1.429 . S
C1158 C1150 1.574 . S
C1158 H1153 0.949 . S
C1158 C1164 1.368 . S
C1159 C1143 1.349 . S
C1159 H1151 0.950 . S
C1159 C1157 1.327 . S
C1160 C1148 1.349 . S
C1160 H1154 0.950 . S
C1160 C1161 1.327 . S
C1161 H1155 0.950 . S
C1161 C1160 1.327 . S
C1161 C1165 1.429 . S
C1162 C1145 1.574 . S
C1162 H1156 0.949 . S
C1162 C1166 1.368 . S
C1163 C1144 1.429 . S
C1163 C1157 1.429 . S
C1163 C1164 1.523 . S
C1164 C1145 1.368 . S
C1164 C1158 1.368 . S
C1164 C1163 1.523 . S
C1165 C1149 1.429 . S
C1165 C1161 1.429 . S
C1165 C1166 1.523 . S
C1166 C1150 1.368 . S
C1166 C1162 1.368 . S
C1166 C1165 1.523 . S
H1167 C1142 0.950 . S
H1168 C1144 0.950 . S
H1169 C1145 0.949 . S
H1170 C1147 0.950 . S
H1171 C1149 0.950 . S
C1172 C1173 1.349 . S
C1172 C1174 1.327 . S
C1172 H1197 0.950 . S
C1173 C1172 1.349 . S
C1173 C1189 1.349 . S
C1174 C1172 1.327 . S
C1174 C1193 1.429 . S
C1174 H1198 0.950 . S
C1175 C1192 1.574 . S
C1175 C1194 1.368 . S
C1175 H1199 0.949 . S
H1176 C1180 0.949 . S
C1177 C1178 1.349 . S
C1177 C1179 1.327 . S
C1177 H1200 0.950 . S
C1178 C1177 1.349 . S
C1178 C1190 1.349 . S
C1179 C1177 1.327 . S
C1179 C1195 1.429 . S
C1179 H1201 0.950 . S
C1180 H1176 0.949 . S
C1180 C1188 1.574 . S
C1180 C1196 1.368 . S
H1181 C1189 0.950 . S
H1182 C1187 0.950 . S
H1183 C1188 0.949 . S
H1184 C1190 0.950 . S
H1185 C1191 0.950 . S
H1186 C1192 0.949 . S
C1187 H1182 0.950 . S
C1187 C1189 1.327 . S
C1187 C1193 1.429 . S
C1188 C1180 1.574 . S
C1188 H1183 0.949 . S
C1188 C1194 1.368 . S
C1189 C1173 1.349 . S
C1189 H1181 0.950 . S
C1189 C1187 1.327 . S
C1190 C1178 1.349 . S
C1190 H1184 0.950 . S
C1190 C1191 1.327 . S
C1191 H1185 0.950 . S
C1191 C1190 1.327 . S
C1191 C1195 1.429 . S
C1192 C1175 1.574 . S
C1192 H1186 0.949 . S
C1192 C1196 1.368 . S
C1193 C1174 1.429 . S
C1193 C1187 1.429 . S
C1193 C1194 1.523 . S
C1194 C1175 1.368 . S
C1194 C1188 1.368 . S
C1194 C1193 1.523 . S
C1195 C1179 1.429 . S
C1195 C1191 1.429 . S
C1195 C1196 1.523 . S
C1196 C1180 1.368 . S
C1196 C1192 1.368 . S
C1196 C1195 1.523 . S
H1197 C1172 0.950 . S
H1198 C1174 0.950 . S
H1199 C1175 0.949 . S
H1200 C1177 0.950 . S
H1201 C1179 0.950 . S
C1202 C1203 1.349 . S
C1202 C1204 1.327 . S
C1202 H1227 0.950 . S
C1203 C1202 1.349 . S
C1203 C1219 1.349 . S
C1204 C1202 1.327 . S
C1204 C1223 1.429 . S
C1204 H1228 0.950 . S
C1205 C1222 1.574 . S
C1205 C1224 1.368 . S
C1205 H1229 0.949 . S
H1206 C1210 0.949 . S
C1207 C1208 1.349 . S
C1207 C1209 1.327 . S
C1207 H1230 0.950 . S
C1208 C1207 1.349 . S
C1208 C1220 1.349 . S
C1209 C1207 1.327 . S
C1209 C1225 1.429 . S
C1209 H1231 0.950 . S
C1210 H1206 0.949 . S
C1210 C1218 1.574 . S
C1210 C1226 1.368 . S
H1211 C1219 0.950 . S
H1212 C1217 0.950 . S
H1213 C1218 0.949 . S
H1214 C1220 0.950 . S
H1215 C1221 0.950 . S
H1216 C1222 0.949 . S
C1217 H1212 0.950 . S
C1217 C1219 1.327 . S
C1217 C1223 1.429 . S
C1218 C1210 1.574 . S
C1218 H1213 0.949 . S
C1218 C1224 1.368 . S
C1219 C1203 1.349 . S
C1219 H1211 0.950 . S
C1219 C1217 1.327 . S
C1220 C1208 1.349 . S
C1220 H1214 0.950 . S
C1220 C1221 1.327 . S
C1221 H1215 0.950 . S
C1221 C1220 1.327 . S
C1221 C1225 1.429 . S
C1222 C1205 1.574 . S
C1222 H1216 0.949 . S
C1222 C1226 1.368 . S
C1223 C1204 1.429 . S
C1223 C1217 1.429 . S
C1223 C1224 1.523 . S
C1224 C1205 1.368 . S
C1224 C1218 1.368 . S
C1224 C1223 1.523 . S
C1225 C1209 1.429 . S
C1225 C1221 1.429 . S
C1225 C1226 1.523 1_655 S
C1226 C1210 1.368 . S
C1226 C1222 1.368 . S
C1226 C1225 1.523 1_455 S
H1227 C1202 0.950 . S
H1228 C1204 0.950 . S
H1229 C1205 0.949 . S
H1230 C1207 0.950 . S
H1231 C1209 0.950 . S
C1232 C1233 1.349 . S
C1232 C1234 1.327 . S
C1232 H1257 0.950 . S
C1233 C1232 1.349 . S
C1233 C1249 1.349 . S
C1234 C1232 1.327 . S
C1234 C1253 1.429 . S
C1234 H1258 0.950 . S
C1235 C1252 1.574 1_545 S
C1235 C1254 1.368 . S
C1235 H1259 0.949 . S
H1236 C1240 0.949 . S
C1237 C1238 1.349 . S
C1237 C1239 1.327 . S
C1237 H1260 0.950 . S
C1238 C1237 1.349 . S
C1238 C1250 1.349 . S
C1239 C1237 1.327 . S
C1239 C1255 1.429 . S
C1239 H1261 0.950 . S
C1240 H1236 0.949 . S
C1240 C1248 1.574 1_565 S
C1240 C1256 1.368 . S
H1241 C1249 0.950 . S
H1242 C1247 0.950 . S
H1243 C1248 0.949 . S
H1244 C1250 0.950 . S
H1245 C1251 0.950 . S
H1246 C1252 0.949 . S
C1247 H1242 0.950 . S
C1247 C1249 1.327 . S
C1247 C1253 1.429 . S
C1248 C1240 1.574 1_545 S
C1248 H1243 0.949 . S
C1248 C1254 1.368 1_556 S
C1249 C1233 1.349 . S
C1249 H1241 0.950 . S
C1249 C1247 1.327 . S
C1250 C1238 1.349 . S
C1250 H1244 0.950 . S
C1250 C1251 1.327 . S
C1251 H1245 0.950 . S
C1251 C1250 1.327 . S
C1251 C1255 1.429 . S
C1252 C1235 1.574 1_565 S
C1252 H1246 0.949 . S
C1252 C1256 1.368 1_554 S
C1253 C1234 1.429 . S
C1253 C1247 1.429 . S
C1253 C1254 1.523 . S
C1254 C1235 1.368 . S
C1254 C1248 1.368 1_554 S
C1254 C1253 1.523 . S
C1255 C1239 1.429 . S
C1255 C1251 1.429 . S
C1255 C1256 1.523 . S
C1256 C1240 1.368 . S
C1256 C1252 1.368 1_556 S
C1256 C1255 1.523 . S
H1257 C1232 0.950 . S
H1258 C1234 0.950 . S
H1259 C1235 0.949 . S
H1260 C1237 0.950 . S
H1261 C1239 0.950 . S
C1262 C1263 1.349 . S
C1262 C1264 1.327 . S
C1262 H1287 0.950 . S
C1263 C1262 1.349 . S
C1263 C1279 1.349 . S
C1264 C1262 1.327 . S
C1264 C1283 1.429 . S
C1264 H1288 0.950 . S
C1265 C1282 1.574 . S
C1265 C1284 1.368 . S
C1265 H1289 0.949 . S
H1266 C1270 0.949 . S
C1267 C1268 1.349 . S
C1267 C1269 1.327 . S
C1267 H1290 0.950 . S
C1268 C1267 1.349 . S
C1268 C1280 1.349 . S
C1269 C1267 1.327 . S
C1269 C1285 1.429 . S
C1269 H1291 0.950 . S
C1270 H1266 0.949 . S
C1270 C1278 1.574 . S
C1270 C1286 1.368 . S
H1271 C1279 0.950 . S
H1272 C1277 0.950 . S
H1273 C1278 0.949 . S
H1274 C1280 0.950 . S
H1275 C1281 0.950 . S
H1276 C1282 0.949 . S
C1277 H1272 0.950 . S
C1277 C1279 1.327 . S
C1277 C1283 1.429 . S
C1278 C1270 1.574 . S
C1278 H1273 0.949 . S
C1278 C1284 1.368 . S
C1279 C1263 1.349 . S
C1279 H1271 0.950 . S
C1279 C1277 1.327 . S
C1280 C1268 1.349 . S
C1280 H1274 0.950 . S
C1280 C1281 1.327 . S
C1281 H1275 0.950 . S
C1281 C1280 1.327 . S
C1281 C1285 1.429 . S
C1282 C1265 1.574 . S
C1282 H1276 0.949 . S
C1282 C1286 1.368 . S
C1283 C1264 1.429 . S
C1283 C1277 1.429 . S
C1283 C1284 1.523 . S
C1284 C1265 1.368 . S
C1284 C1278 1.368 . S
C1284 C1283 1.523 . S
C1285 C1269 1.429 . S
C1285 C1281 1.429 . S
C1285 C1286 1.523 . S
C1286 C1270 1.368 . S
C1286 C1282 1.368 . S
C1286 C1285 1.523 . S
H1287 C1262 0.950 . S
H1288 C1264 0.950 . S
H1289 C1265 0.949 . S
H1290 C1267 0.950 . S
H1291 C1269 0.950 . S
C1292 C1293 1.349 . S
C1292 C1294 1.327 . S
C1292 H1317 0.950 . S
C1293 C1292 1.349 . S
C1293 C1309 1.349 . S
C1294 C1292 1.327 . S
C1294 C1313 1.429 . S
C1294 H1318 0.950 . S
C1295 C1312 1.574 1_545 S
C1295 C1314 1.368 . S
C1295 H1319 0.949 . S
H1296 C1300 0.949 . S
C1297 C1298 1.349 . S
C1297 C1299 1.327 . S
C1297 H1320 0.950 . S
C1298 C1297 1.349 . S
C1298 C1310 1.349 . S
C1299 C1297 1.327 . S
C1299 C1315 1.429 . S
C1299 H1321 0.950 . S
C1300 H1296 0.949 . S
C1300 C1308 1.574 1_565 S
C1300 C1316 1.368 . S
H1301 C1309 0.950 . S
H1302 C1307 0.950 . S
H1303 C1308 0.949 . S
H1304 C1310 0.950 . S
H1305 C1311 0.950 . S
H1306 C1312 0.949 . S
C1307 H1302 0.950 . S
C1307 C1309 1.327 . S
C1307 C1313 1.429 . S
C1308 C1300 1.574 1_545 S
C1308 H1303 0.949 . S
C1308 C1314 1.368 . S
C1309 C1293 1.349 . S
C1309 H1301 0.950 . S
C1309 C1307 1.327 . S
C1310 C1298 1.349 . S
C1310 H1304 0.950 . S
C1310 C1311 1.327 . S
C1311 H1305 0.950 . S
C1311 C1310 1.327 . S
C1311 C1315 1.429 . S
C1312 C1295 1.574 1_565 S
C1312 H1306 0.949 . S
C1312 C1316 1.368 . S
C1313 C1294 1.429 . S
C1313 C1307 1.429 . S
C1313 C1314 1.523 . S
C1314 C1295 1.368 . S
C1314 C1308 1.368 . S
C1314 C1313 1.523 . S
C1315 C1299 1.429 . S
C1315 C1311 1.429 . S
C1315 C1316 1.523 . S
C1316 C1300 1.368 . S
C1316 C1312 1.368 . S
C1316 C1315 1.523 . S
H1317 C1292 0.950 . S
H1318 C1294 0.950 . S
H1319 C1295 0.949 . S
H1320 C1297 0.950 . S
H1321 C1299 0.950 . S
C1322 C1323 1.349 . S
C1322 C1324 1.327 . S
C1322 H1347 0.950 . S
C1323 C1322 1.349 . S
C1323 C1339 1.349 . S
C1324 C1322 1.327 . S
C1324 C1343 1.429 . S
C1324 H1348 0.950 . S
C1325 C1342 1.574 . S
C1325 C1344 1.368 . S
C1325 H1349 0.949 . S
H1326 C1330 0.949 . S
C1327 C1328 1.349 . S
C1327 C1329 1.327 . S
C1327 H1350 0.950 . S
C1328 C1327 1.349 . S
C1328 C1340 1.349 . S
C1329 C1327 1.327 . S
C1329 C1345 1.429 . S
C1329 H1351 0.950 . S
C1330 H1326 0.949 . S
C1330 C1338 1.574 . S
C1330 C1346 1.368 . S
H1331 C1339 0.950 . S
H1332 C1337 0.950 . S
H1333 C1338 0.949 . S
H1334 C1340 0.950 . S
H1335 C1341 0.950 . S
H1336 C1342 0.949 . S
C1337 H1332 0.950 . S
C1337 C1339 1.327 . S
C1337 C1343 1.429 . S
C1338 C1330 1.574 . S
C1338 H1333 0.949 . S
C1338 C1344 1.368 . S
C1339 C1323 1.349 . S
C1339 H1331 0.950 . S
C1339 C1337 1.327 . S
C1340 C1328 1.349 . S
C1340 H1334 0.950 . S
C1340 C1341 1.327 . S
C1341 H1335 0.950 . S
C1341 C1340 1.327 . S
C1341 C1345 1.429 . S
C1342 C1325 1.574 . S
C1342 H1336 0.949 . S
C1342 C1346 1.368 . S
C1343 C1324 1.429 . S
C1343 C1337 1.429 . S
C1343 C1344 1.523 . S
C1344 C1325 1.368 . S
C1344 C1338 1.368 . S
C1344 C1343 1.523 . S
C1345 C1329 1.429 . S
C1345 C1341 1.429 . S
C1345 C1346 1.523 . S
C1346 C1330 1.368 . S
C1346 C1342 1.368 . S
C1346 C1345 1.523 . S
H1347 C1322 0.950 . S
H1348 C1324 0.950 . S
H1349 C1325 0.949 . S
H1350 C1327 0.950 . S
H1351 C1329 0.950 . S
C1352 C1353 1.349 . S
C1352 C1354 1.327 . S
C1352 H1377 0.950 . S
C1353 C1352 1.349 . S
C1353 C1369 1.349 . S
C1354 C1352 1.327 . S
C1354 C1373 1.429 . S
C1354 H1378 0.950 . S
C1355 C1372 1.574 . S
C1355 C1374 1.368 . S
C1355 H1379 0.949 . S
H1356 C1360 0.949 . S
C1357 C1358 1.349 . S
C1357 C1359 1.327 . S
C1357 H1380 0.950 . S
C1358 C1357 1.349 . S
C1358 C1370 1.349 . S
C1359 C1357 1.327 . S
C1359 C1375 1.429 . S
C1359 H1381 0.950 . S
C1360 H1356 0.949 . S
C1360 C1368 1.574 . S
C1360 C1376 1.368 . S
H1361 C1369 0.950 . S
H1362 C1367 0.950 . S
H1363 C1368 0.949 . S
H1364 C1370 0.950 . S
H1365 C1371 0.950 . S
H1366 C1372 0.949 . S
C1367 H1362 0.950 . S
C1367 C1369 1.327 . S
C1367 C1373 1.429 . S
C1368 C1360 1.574 . S
C1368 H1363 0.949 . S
C1368 C1374 1.368 . S
C1369 C1353 1.349 . S
C1369 H1361 0.950 . S
C1369 C1367 1.327 . S
C1370 C1358 1.349 . S
C1370 H1364 0.950 . S
C1370 C1371 1.327 . S
C1371 H1365 0.950 . S
C1371 C1370 1.327 . S
C1371 C1375 1.429 . S
C1372 C1355 1.574 . S
C1372 H1366 0.949 . S
C1372 C1376 1.368 . S
C1373 C1354 1.429 . S
C1373 C1367 1.429 . S
C1373 C1374 1.523 . S
C1374 C1355 1.368 . S
C1374 C1368 1.368 . S
C1374 C1373 1.523 . S
C1375 C1359 1.429 . S
C1375 C1371 1.429 . S
C1375 C1376 1.523 . S
C1376 C1360 1.368 . S
C1376 C1372 1.368 . S
C1376 C1375 1.523 . S
H1377 C1352 0.950 . S
H1378 C1354 0.950 . S
H1379 C1355 0.949 . S
H1380 C1357 0.950 . S
H1381 C1359 0.950 . S
C1382 C1383 1.349 . S
C1382 C1384 1.327 . S
C1382 H1407 0.950 . S
C1383 C1382 1.349 . S
C1383 C1399 1.349 . S
C1384 C1382 1.327 . S
C1384 C1403 1.429 . S
C1384 H1408 0.950 . S
C1385 C1402 1.574 . S
C1385 C1404 1.368 . S
C1385 H1409 0.949 . S
H1386 C1390 0.949 . S
C1387 C1388 1.349 . S
C1387 C1389 1.327 . S
C1387 H1410 0.950 . S
C1388 C1387 1.349 . S
C1388 C1400 1.349 . S
C1389 C1387 1.327 . S
C1389 C1405 1.429 . S
C1389 H1411 0.950 . S
C1390 H1386 0.949 . S
C1390 C1398 1.574 . S
C1390 C1406 1.368 . S
H1391 C1399 0.950 . S
H1392 C1397 0.950 . S
H1393 C1398 0.949 . S
H1394 C1400 0.950 . S
H1395 C1401 0.950 . S
H1396 C1402 0.949 . S
C1397 H1392 0.950 . S
C1397 C1399 1.327 . S
C1397 C1403 1.429 . S
C1398 C1390 1.574 . S
C1398 H1393 0.949 . S
C1398 C1404 1.368 . S
C1399 C1383 1.349 . S
C1399 H1391 0.950 . S
C1399 C1397 1.327 . S
C1400 C1388 1.349 . S
C1400 H1394 0.950 . S
C1400 C1401 1.327 . S
C1401 H1395 0.950 . S
C1401 C1400 1.327 . S
C1401 C1405 1.429 . S
C1402 C1385 1.574 . S
C1402 H1396 0.949 . S
C1402 C1406 1.368 . S
C1403 C1384 1.429 . S
C1403 C1397 1.429 . S
C1403 C1404 1.523 . S
C1404 C1385 1.368 . S
C1404 C1398 1.368 . S
C1404 C1403 1.523 . S
C1405 C1389 1.429 . S
C1405 C1401 1.429 . S
C1405 C1406 1.523 . S
C1406 C1390 1.368 . S
C1406 C1402 1.368 . S
C1406 C1405 1.523 . S
H1407 C1382 0.950 . S
H1408 C1384 0.950 . S
H1409 C1385 0.949 . S
H1410 C1387 0.950 . S
H1411 C1389 0.950 . S
C1412 C1413 1.349 . S
C1412 C1414 1.327 . S
C1412 H1437 0.950 . S
C1413 C1412 1.349 . S
C1413 C1429 1.349 . S
C1414 C1412 1.327 . S
C1414 C1433 1.429 . S
C1414 H1438 0.950 . S
C1415 C1432 1.574 . S
C1415 C1434 1.368 . S
C1415 H1439 0.949 . S
H1416 C1420 0.949 . S
C1417 C1418 1.349 . S
C1417 C1419 1.327 . S
C1417 H1440 0.950 . S
C1418 C1417 1.349 . S
C1418 C1430 1.349 . S
C1419 C1417 1.327 . S
C1419 C1435 1.429 . S
C1419 H1441 0.950 . S
C1420 H1416 0.949 . S
C1420 C1428 1.574 . S
C1420 C1436 1.368 . S
H1421 C1429 0.950 . S
H1422 C1427 0.950 . S
H1423 C1428 0.949 . S
H1424 C1430 0.950 . S
H1425 C1431 0.950 . S
H1426 C1432 0.949 . S
C1427 H1422 0.950 . S
C1427 C1429 1.327 . S
C1427 C1433 1.429 . S
C1428 C1420 1.574 . S
C1428 H1423 0.949 . S
C1428 C1434 1.368 . S
C1429 C1413 1.349 . S
C1429 H1421 0.950 . S
C1429 C1427 1.327 . S
C1430 C1418 1.349 . S
C1430 H1424 0.950 . S
C1430 C1431 1.327 . S
C1431 H1425 0.950 . S
C1431 C1430 1.327 . S
C1431 C1435 1.429 . S
C1432 C1415 1.574 . S
C1432 H1426 0.949 . S
C1432 C1436 1.368 . S
C1433 C1414 1.429 . S
C1433 C1427 1.429 . S
C1433 C1434 1.523 . S
C1434 C1415 1.368 . S
C1434 C1428 1.368 . S
C1434 C1433 1.523 . S
C1435 C1419 1.429 . S
C1435 C1431 1.429 . S
C1435 C1436 1.523 . S
C1436 C1420 1.368 . S
C1436 C1432 1.368 . S
C1436 C1435 1.523 . S
H1437 C1412 0.950 . S
H1438 C1414 0.950 . S
H1439 C1415 0.949 . S
H1440 C1417 0.950 . S
H1441 C1419 0.950 . S
C1442 C1443 1.349 . S
C1442 C1444 1.327 . S
C1442 H1467 0.950 . S
C1443 C1442 1.349 . S
C1443 C1459 1.349 . S
C1444 C1442 1.327 . S
C1444 C1463 1.429 . S
C1444 H1468 0.950 . S
C1445 C1462 1.574 . S
C1445 C1464 1.368 1_554 S
C1445 H1469 0.949 1_455 S
H1446 C1450 0.949 . S
C1447 C1448 1.349 . S
C1447 C1449 1.327 . S
C1447 H1470 0.950 1_455 S
C1448 C1447 1.349 . S
C1448 C1460 1.349 . S
C1449 C1447 1.327 . S
C1449 C1465 1.429 . S
C1449 H1471 0.950 1_455 S
C1450 H1446 0.949 . S
C1450 C1458 1.574 . S
C1450 C1466 1.368 1_556 S
H1451 C1459 0.950 1_655 S
H1452 C1457 0.950 1_655 S
H1453 C1458 0.949 . S
H1454 C1460 0.950 . S
H1455 C1461 0.950 . S
H1456 C1462 0.949 1_655 S
C1457 H1452 0.950 1_455 S
C1457 C1459 1.327 . S
C1457 C1463 1.429 . S
C1458 C1450 1.574 . S
C1458 H1453 0.949 . S
C1458 C1464 1.368 . S
C1459 C1443 1.349 . S
C1459 H1451 0.950 1_455 S
C1459 C1457 1.327 . S
C1460 C1448 1.349 . S
C1460 H1454 0.950 . S
C1460 C1461 1.327 . S
C1461 H1455 0.950 . S
C1461 C1460 1.327 . S
C1461 C1465 1.429 . S
C1462 C1445 1.574 . S
C1462 H1456 0.949 1_455 S
C1462 C1466 1.368 . S
C1463 C1444 1.429 . S
C1463 C1457 1.429 . S
C1463 C1464 1.523 . S
C1464 C1445 1.368 1_556 S
C1464 C1458 1.368 . S
C1464 C1463 1.523 . S
C1465 C1449 1.429 . S
C1465 C1461 1.429 . S
C1465 C1466 1.523 . S
C1466 C1450 1.368 1_554 S
C1466 C1462 1.368 . S
C1466 C1465 1.523 . S
H1467 C1442 0.950 . S
H1468 C1444 0.950 . S
H1469 C1445 0.949 1_655 S
H1470 C1447 0.950 1_655 S
H1471 C1449 0.950 1_655 S
C1472 C1473 1.349 . S
C1472 C1474 1.327 . S
C1472 H1497 0.950 . S
C1473 C1472 1.349 . S
C1473 C1489 1.349 . S
C1474 C1472 1.327 . S
C1474 C1493 1.429 . S
C1474 H1498 0.950 . S
C1475 C1492 1.574 . S
C1475 C1494 1.368 . S
C1475 H1499 0.949 . S
H1476 C1480 0.949 . S
C1477 C1478 1.349 . S
C1477 C1479 1.327 . S
C1477 H1500 0.950 . S
C1478 C1477 1.349 . S
C1478 C1490 1.349 . S
C1479 C1477 1.327 . S
C1479 C1495 1.429 . S
C1479 H1501 0.950 . S
C1480 H1476 0.949 . S
C1480 C1488 1.574 . S
C1480 C1496 1.368 . S
H1481 C1489 0.950 . S
H1482 C1487 0.950 . S
H1483 C1488 0.949 . S
H1484 C1490 0.950 . S
H1485 C1491 0.950 . S
H1486 C1492 0.949 . S
C1487 H1482 0.950 . S
C1487 C1489 1.327 . S
C1487 C1493 1.429 . S
C1488 C1480 1.574 . S
C1488 H1483 0.949 . S
C1488 C1494 1.368 . S
C1489 C1473 1.349 . S
C1489 H1481 0.950 . S
C1489 C1487 1.327 . S
C1490 C1478 1.349 . S
C1490 H1484 0.950 . S
C1490 C1491 1.327 . S
C1491 H1485 0.950 . S
C1491 C1490 1.327 . S
C1491 C1495 1.429 . S
C1492 C1475 1.574 . S
C1492 H1486 0.949 . S
C1492 C1496 1.368 . S
C1493 C1474 1.429 . S
C1493 C1487 1.429 . S
C1493 C1494 1.523 . S
C1494 C1475 1.368 . S
C1494 C1488 1.368 . S
C1494 C1493 1.523 . S
C1495 C1479 1.429 . S
C1495 C1491 1.429 . S
C1495 C1496 1.523 . S
C1496 C1480 1.368 . S
C1496 C1492 1.368 . S
C1496 C1495 1.523 . S
H1497 C1472 0.950 . S
H1498 C1474 0.950 . S
H1499 C1475 0.949 . S
H1500 C1477 0.950 . S
H1501 C1479 0.950 . S
C1502 C1503 1.349 . S
C1502 C1504 1.327 . S
C1502 H1527 0.950 . S
C1503 C1502 1.349 . S
C1503 C1519 1.349 . S
C1504 C1502 1.327 . S
C1504 C1523 1.429 . S
C1504 H1528 0.950 . S
C1505 C1522 1.574 . S
C1505 C1524 1.368 . S
C1505 H1529 0.949 . S
H1506 C1510 0.949 . S
C1507 C1508 1.349 . S
C1507 C1509 1.327 . S
C1507 H1530 0.950 . S
C1508 C1507 1.349 . S
C1508 C1520 1.349 . S
C1509 C1507 1.327 . S
C1509 C1525 1.429 . S
C1509 H1531 0.950 . S
C1510 H1506 0.949 . S
C1510 C1518 1.574 . S
C1510 C1526 1.368 . S
H1511 C1519 0.950 . S
H1512 C1517 0.950 . S
H1513 C1518 0.949 . S
H1514 C1520 0.950 . S
H1515 C1521 0.950 . S
H1516 C1522 0.949 . S
C1517 H1512 0.950 . S
C1517 C1519 1.327 . S
C1517 C1523 1.429 . S
C1518 C1510 1.574 . S
C1518 H1513 0.949 . S
C1518 C1524 1.368 . S
C1519 C1503 1.349 . S
C1519 H1511 0.950 . S
C1519 C1517 1.327 . S
C1520 C1508 1.349 . S
C1520 H1514 0.950 . S
C1520 C1521 1.327 . S
C1521 H1515 0.950 . S
C1521 C1520 1.327 . S
C1521 C1525 1.429 . S
C1522 C1505 1.574 . S
C1522 H1516 0.949 . S
C1522 C1526 1.368 . S
C1523 C1504 1.429 . S
C1523 C1517 1.429 . S
C1523 C1524 1.523 . S
C1524 C1505 1.368 . S
C1524 C1518 1.368 . S
C1524 C1523 1.523 . S
C1525 C1509 1.429 . S
C1525 C1521 1.429 . S
C1525 C1526 1.523 . S
C1526 C1510 1.368 . S
C1526 C1522 1.368 . S
C1526 C1525 1.523 . S
H1527 C1502 0.950 . S
H1528 C1504 0.950 . S
H1529 C1505 0.949 . S
H1530 C1507 0.950 . S
H1531 C1509 0.950 . S
C1532 C1533 1.349 . S
C1532 C1534 1.327 1_554 S
C1532 H1557 0.950 . S
C1533 C1532 1.349 . S
C1533 C1549 1.349 1_554 S
C1534 C1532 1.327 1_556 S
C1534 C1553 1.429 . S
C1534 H1558 0.950 . S
C1535 C1552 1.574 . S
C1535 C1554 1.368 . S
C1535 H1559 0.949 . S
H1536 C1540 0.949 . S
C1537 C1538 1.349 . S
C1537 C1539 1.327 . S
C1537 H1560 0.950 . S
C1538 C1537 1.349 . S
C1538 C1550 1.349 . S
C1539 C1537 1.327 . S
C1539 C1555 1.429 . S
C1539 H1561 0.950 . S
C1540 H1536 0.949 . S
C1540 C1548 1.574 . S
C1540 C1556 1.368 . S
H1541 C1549 0.950 . S
H1542 C1547 0.950 . S
H1543 C1548 0.949 . S
H1544 C1550 0.950 . S
H1545 C1551 0.950 . S
H1546 C1552 0.949 . S
C1547 H1542 0.950 . S
C1547 C1549 1.327 . S
C1547 C1553 1.429 . S
C1548 C1540 1.574 . S
C1548 H1543 0.949 . S
C1548 C1554 1.368 . S
C1549 C1533 1.349 1_556 S
C1549 H1541 0.950 . S
C1549 C1547 1.327 . S
C1550 C1538 1.349 . S
C1550 H1544 0.950 . S
C1550 C1551 1.327 . S
C1551 H1545 0.950 . S
C1551 C1550 1.327 . S
C1551 C1555 1.429 . S
C1552 C1535 1.574 . S
C1552 H1546 0.949 . S
C1552 C1556 1.368 . S
C1553 C1534 1.429 . S
C1553 C1547 1.429 . S
C1553 C1554 1.523 . S
C1554 C1535 1.368 . S
C1554 C1548 1.368 . S
C1554 C1553 1.523 . S
C1555 C1539 1.429 . S
C1555 C1551 1.429 . S
C1555 C1556 1.523 . S
C1556 C1540 1.368 . S
C1556 C1552 1.368 . S
C1556 C1555 1.523 . S
H1557 C1532 0.950 . S
H1558 C1534 0.950 . S
H1559 C1535 0.949 . S
H1560 C1537 0.950 . S
H1561 C1539 0.950 . S
C1562 C1563 1.349 . S
C1562 C1564 1.327 . S
C1562 H1587 0.950 . S
C1563 C1562 1.349 . S
C1563 C1579 1.349 . S
C1564 C1562 1.327 . S
C1564 C1583 1.429 . S
C1564 H1588 0.950 . S
C1565 C1582 1.574 . S
C1565 C1584 1.368 . S
C1565 H1589 0.949 . S
H1566 C1570 0.949 . S
C1567 C1568 1.349 1_554 S
C1567 C1569 1.327 . S
C1567 H1590 0.950 . S
C1568 C1567 1.349 1_556 S
C1568 C1580 1.349 . S
C1569 C1567 1.327 . S
C1569 C1585 1.429 . S
C1569 H1591 0.950 . S
C1570 H1566 0.949 . S
C1570 C1578 1.574 . S
C1570 C1586 1.368 . S
H1571 C1579 0.950 . S
H1572 C1577 0.950 . S
H1573 C1578 0.949 . S
H1574 C1580 0.950 . S
H1575 C1581 0.950 . S
H1576 C1582 0.949 . S
C1577 H1572 0.950 . S
C1577 C1579 1.327 . S
C1577 C1583 1.429 . S
C1578 C1570 1.574 . S
C1578 H1573 0.949 . S
C1578 C1584 1.368 . S
C1579 C1563 1.349 . S
C1579 H1571 0.950 . S
C1579 C1577 1.327 . S
C1580 C1568 1.349 . S
C1580 H1574 0.950 . S
C1580 C1581 1.327 1_556 S
C1581 H1575 0.950 . S
C1581 C1580 1.327 1_554 S
C1581 C1585 1.429 . S
C1582 C1565 1.574 . S
C1582 H1576 0.949 . S
C1582 C1586 1.368 . S
C1583 C1564 1.429 . S
C1583 C1577 1.429 . S
C1583 C1584 1.523 . S
C1584 C1565 1.368 . S
C1584 C1578 1.368 . S
C1584 C1583 1.523 . S
C1585 C1569 1.429 . S
C1585 C1581 1.429 . S
C1585 C1586 1.523 . S
C1586 C1570 1.368 . S
C1586 C1582 1.368 . S
C1586 C1585 1.523 . S
H1587 C1562 0.950 . S
H1588 C1564 0.950 . S
H1589 C1565 0.949 . S
H1590 C1567 0.950 . S
H1591 C1569 0.950 . S
C1592 C1593 1.349 . S
C1592 C1594 1.327 . S
C1592 H1617 0.950 . S
C1593 C1592 1.349 . S
C1593 C1609 1.349 . S
C1594 C1592 1.327 . S
C1594 C1613 1.429 . S
C1594 H1618 0.950 . S
C1595 C1612 1.574 . S
C1595 C1614 1.368 . S
C1595 H1619 0.949 . S
H1596 C1600 0.949 . S
C1597 C1598 1.348 1_455 S
C1597 C1599 1.326 1_455 S
C1597 H1620 0.952 . S
C1598 C1597 1.348 1_655 S
C1598 C1610 1.349 . S
C1599 C1597 1.326 1_655 S
C1599 C1615 1.429 . S
C1599 H1621 0.950 . S
C1600 H1596 0.949 . S
C1600 C1608 1.574 . S
C1600 C1616 1.368 . S
H1601 C1609 0.950 . S
H1602 C1607 0.950 . S
H1603 C1608 0.949 . S
H1604 C1610 0.950 . S
H1605 C1611 0.950 . S
H1606 C1612 0.949 . S
C1607 H1602 0.950 . S
C1607 C1609 1.327 . S
C1607 C1613 1.429 . S
C1608 C1600 1.574 . S
C1608 H1603 0.949 . S
C1608 C1614 1.368 . S
C1609 C1593 1.349 . S
C1609 H1601 0.950 . S
C1609 C1607 1.327 . S
C1610 C1598 1.349 . S
C1610 H1604 0.950 . S
C1610 C1611 1.327 . S
C1611 H1605 0.950 . S
C1611 C1610 1.327 . S
C1611 C1615 1.429 . S
C1612 C1595 1.574 . S
C1612 H1606 0.949 . S
C1612 C1616 1.368 . S
C1613 C1594 1.429 . S
C1613 C1607 1.429 . S
C1613 C1614 1.523 . S
C1614 C1595 1.368 . S
C1614 C1608 1.368 . S
C1614 C1613 1.523 . S
C1615 C1599 1.429 . S
C1615 C1611 1.429 . S
C1615 C1616 1.523 . S
C1616 C1600 1.368 . S
C1616 C1612 1.368 . S
C1616 C1615 1.523 . S
H1617 C1592 0.950 . S
H1618 C1594 0.950 . S
H1619 C1595 0.949 . S
H1620 C1597 0.952 . S
H1621 C1599 0.950 . S
C1622 C1623 1.349 . S
C1622 C1624 1.327 . S
C1622 H1647 0.950 . S
C1623 C1622 1.349 . S
C1623 C1639 1.349 . S
C1624 C1622 1.327 . S
C1624 C1643 1.429 . S
C1624 H1648 0.950 . S
C1625 C1642 1.574 . S
C1625 C1644 1.368 . S
C1625 H1649 0.949 . S
H1626 C1630 0.949 . S
C1627 C1628 1.349 . S
C1627 C1629 1.327 . S
C1627 H1650 0.922 1_655 S
C1628 C1627 1.349 . S
C1628 C1640 1.349 . S
C1629 C1627 1.327 . S
C1629 C1645 1.429 . S
C1629 H1651 0.950 . S
C1630 H1626 0.949 . S
C1630 C1638 1.574 . S
C1630 C1646 1.368 . S
H1631 C1639 0.950 . S
H1632 C1637 0.950 . S
H1633 C1638 0.949 . S
H1634 C1640 0.950 . S
H1635 C1641 0.950 . S
H1636 C1642 0.949 . S
C1637 H1632 0.950 . S
C1637 C1639 1.327 . S
C1637 C1643 1.429 . S
C1638 C1630 1.574 . S
C1638 H1633 0.949 . S
C1638 C1644 1.368 . S
C1639 C1623 1.349 . S
C1639 H1631 0.950 . S
C1639 C1637 1.327 . S
C1640 C1628 1.349 . S
C1640 H1634 0.950 . S
C1640 C1641 1.327 . S
C1641 H1635 0.950 . S
C1641 C1640 1.327 . S
C1641 C1645 1.429 . S
C1642 C1625 1.574 . S
C1642 H1636 0.949 . S
C1642 C1646 1.368 . S
C1643 C1624 1.429 . S
C1643 C1637 1.429 . S
C1643 C1644 1.523 . S
C1644 C1625 1.368 . S
C1644 C1638 1.368 . S
C1644 C1643 1.523 . S
C1645 C1629 1.429 . S
C1645 C1641 1.429 . S
C1645 C1646 1.523 . S
C1646 C1630 1.368 . S
C1646 C1642 1.368 . S
C1646 C1645 1.523 . S
H1647 C1622 0.950 . S
H1648 C1624 0.950 . S
H1649 C1625 0.949 . S
H1650 C1627 0.922 1_455 S
H1651 C1629 0.950 . S
C1652 C1653 1.349 1_554 S
C1652 C1654 1.327 . S
C1652 H1677 0.950 . S
C1653 C1652 1.349 1_556 S
C1653 C1669 1.349 . S
C1654 C1652 1.327 . S
C1654 C1673 1.429 . S
C1654 H1678 0.950 . S
C1655 C1672 1.574 . S
C1655 C1674 1.368 . S
C1655 H1679 0.949 . S
H1656 C1660 0.949 . S
C1657 C1658 1.349 . S
C1657 C1659 1.327 . S
C1657 H1680 0.950 . S
C1658 C1657 1.349 . S
C1658 C1670 1.349 . S
C1659 C1657 1.327 . S
C1659 C1675 1.429 . S
C1659 H1681 0.950 . S
C1660 H1656 0.949 . S
C1660 C1668 1.574 . S
C1660 C1676 1.368 . S
H1661 C1669 0.950 . S
H1662 C1667 0.950 . S
H1663 C1668 0.949 . S
H1664 C1670 0.950 . S
H1665 C1671 0.950 . S
H1666 C1672 0.949 . S
C1667 H1662 0.950 . S
C1667 C1669 1.327 1_554 S
C1667 C1673 1.429 . S
C1668 C1660 1.574 . S
C1668 H1663 0.949 . S
C1668 C1674 1.368 . S
C1669 C1653 1.349 . S
C1669 H1661 0.950 . S
C1669 C1667 1.327 1_556 S
C1670 C1658 1.349 . S
C1670 H1664 0.950 . S
C1670 C1671 1.327 . S
C1671 H1665 0.950 . S
C1671 C1670 1.327 . S
C1671 C1675 1.429 . S
C1672 C1655 1.574 . S
C1672 H1666 0.949 . S
C1672 C1676 1.368 . S
C1673 C1654 1.429 . S
C1673 C1667 1.429 . S
C1673 C1674 1.523 . S
C1674 C1655 1.368 . S
C1674 C1668 1.368 . S
C1674 C1673 1.523 . S
C1675 C1659 1.429 . S
C1675 C1671 1.429 . S
C1675 C1676 1.523 . S
C1676 C1660 1.368 . S
C1676 C1672 1.368 . S
C1676 C1675 1.523 . S
H1677 C1652 0.950 . S
H1678 C1654 0.950 . S
H1679 C1655 0.949 . S
H1680 C1657 0.950 . S
H1681 C1659 0.950 . S
C1682 C1683 1.349 . S
C1682 C1684 1.327 . S
C1682 H1707 0.950 . S
C1683 C1682 1.349 . S
C1683 C1699 1.349 . S
C1684 C1682 1.327 . S
C1684 C1703 1.429 . S
C1684 H1708 0.950 . S
C1685 C1702 1.574 . S
C1685 C1704 1.368 . S
C1685 H1709 0.949 . S
H1686 C1690 0.949 . S
C1687 C1688 1.349 1_556 S
C1687 C1689 1.327 . S
C1687 H1710 0.950 . S
C1688 C1687 1.349 1_554 S
C1688 C1700 1.349 . S
C1689 C1687 1.327 . S
C1689 C1705 1.429 . S
C1689 H1711 0.950 . S
C1690 H1686 0.949 . S
C1690 C1698 1.574 . S
C1690 C1706 1.368 . S
H1691 C1699 0.950 . S
H1692 C1697 0.950 . S
H1693 C1698 0.949 . S
H1694 C1700 0.950 . S
H1695 C1701 0.944 1_554 S
H1696 C1702 0.949 . S
C1697 H1692 0.950 . S
C1697 C1699 1.327 . S
C1697 C1703 1.429 . S
C1698 C1690 1.574 . S
C1698 H1693 0.949 . S
C1698 C1704 1.368 . S
C1699 C1683 1.349 . S
C1699 H1691 0.950 . S
C1699 C1697 1.327 . S
C1700 C1688 1.349 . S
C1700 H1694 0.950 . S
C1700 C1701 1.327 1_554 S
C1701 H1695 0.944 1_556 S
C1701 C1700 1.327 1_556 S
C1701 C1705 1.429 . S
C1702 C1685 1.574 . S
C1702 H1696 0.949 . S
C1702 C1706 1.368 . S
C1703 C1684 1.429 . S
C1703 C1697 1.429 . S
C1703 C1704 1.523 . S
C1704 C1685 1.368 . S
C1704 C1698 1.368 . S
C1704 C1703 1.523 . S
C1705 C1689 1.429 . S
C1705 C1701 1.429 . S
C1705 C1706 1.523 . S
C1706 C1690 1.368 . S
C1706 C1702 1.368 . S
C1706 C1705 1.523 . S
H1707 C1682 0.950 . S
H1708 C1684 0.950 . S
H1709 C1685 0.949 . S
H1710 C1687 0.950 . S
H1711 C1689 0.950 . S
C1712 C1713 1.349 . S
C1712 C1714 1.327 . S
C1712 H1737 0.950 . S
C1713 C1712 1.349 . S
C1713 C1729 1.349 . S
C1714 C1712 1.327 . S
C1714 C1733 1.429 . S
C1714 H1738 0.950 . S
C1715 C1732 1.574 . S
C1715 C1734 1.368 . S
C1715 H1739 0.949 . S
H1716 C1720 0.949 . S
C1717 C1718 1.349 1_556 S
C1717 C1719 1.327 . S
C1717 H1740 0.950 . S
C1718 C1717 1.349 1_554 S
C1718 C1730 1.349 . S
C1719 C1717 1.327 . S
C1719 C1735 1.429 . S
C1719 H1741 0.950 . S
C1720 H1716 0.949 . S
C1720 C1728 1.574 . S
C1720 C1736 1.368 . S
H1721 C1729 0.950 . S
H1722 C1727 0.950 . S
H1723 C1728 0.949 . S
H1724 C1730 0.950 . S
H1725 C1731 0.950 . S
H1726 C1732 0.949 . S
C1727 H1722 0.950 . S
C1727 C1729 1.327 . S
C1727 C1733 1.429 . S
C1728 C1720 1.574 . S
C1728 H1723 0.949 . S
C1728 C1734 1.368 . S
C1729 C1713 1.349 . S
C1729 H1721 0.950 . S
C1729 C1727 1.327 . S
C1730 C1718 1.349 . S
C1730 H1724 0.950 . S
C1730 C1731 1.327 1_554 S
C1731 H1725 0.950 . S
C1731 C1730 1.327 1_556 S
C1731 C1735 1.429 . S
C1732 C1715 1.574 . S
C1732 H1726 0.949 . S
C1732 C1736 1.368 . S
C1733 C1714 1.429 . S
C1733 C1727 1.429 . S
C1733 C1734 1.523 . S
C1734 C1715 1.368 . S
C1734 C1728 1.368 . S
C1734 C1733 1.523 . S
C1735 C1719 1.429 . S
C1735 C1731 1.429 . S
C1735 C1736 1.523 . S
C1736 C1720 1.368 . S
C1736 C1732 1.368 . S
C1736 C1735 1.523 . S
H1737 C1712 0.950 . S
H1738 C1714 0.950 . S
H1739 C1715 0.949 . S
H1740 C1717 0.950 . S
H1741 C1719 0.950 . S
C1742 C1743 1.349 . S
C1742 C1744 1.327 . S
C1742 H1767 0.950 . S
C1743 C1742 1.349 . S
C1743 C1759 1.349 . S
C1744 C1742 1.327 . S
C1744 C1763 1.429 . S
C1744 H1768 0.950 . S
C1745 C1762 1.574 . S
C1745 C1764 1.368 . S
C1745 H1769 0.949 . S
H1746 C1750 0.949 . S
C1747 C1748 1.349 1_554 S
C1747 C1749 1.327 . S
C1747 H1770 0.950 1_554 S
C1748 C1747 1.349 1_556 S
C1748 C1760 1.349 1_556 S
C1749 C1747 1.327 . S
C1749 C1765 1.429 . S
C1749 H1771 0.950 . S
C1750 H1746 0.949 . S
C1750 C1758 1.574 . S
C1750 C1766 1.368 . S
H1751 C1759 0.950 . S
H1752 C1757 0.950 . S
H1753 C1758 0.949 . S
H1754 C1760 0.950 1_556 S
H1755 C1761 0.950 . S
H1756 C1762 0.949 . S
C1757 H1752 0.950 . S
C1757 C1759 1.327 . S
C1757 C1763 1.429 . S
C1758 C1750 1.574 . S
C1758 H1753 0.949 . S
C1758 C1764 1.368 . S
C1759 C1743 1.349 . S
C1759 H1751 0.950 . S
C1759 C1757 1.327 . S
C1760 C1748 1.349 1_554 S
C1760 H1754 0.950 1_554 S
C1760 C1761 1.327 . S
C1761 H1755 0.950 . S
C1761 C1760 1.327 . S
C1761 C1765 1.429 . S
C1762 C1745 1.574 . S
C1762 H1756 0.949 . S
C1762 C1766 1.368 . S
C1763 C1744 1.429 . S
C1763 C1757 1.429 . S
C1763 C1764 1.523 . S
C1764 C1745 1.368 . S
C1764 C1758 1.368 . S
C1764 C1763 1.523 . S
C1765 C1749 1.429 . S
C1765 C1761 1.429 . S
C1765 C1766 1.523 . S
C1766 C1750 1.368 . S
C1766 C1762 1.368 . S
C1766 C1765 1.523 . S
H1767 C1742 0.950 . S
H1768 C1744 0.950 . S
H1769 C1745 0.949 . S
H1770 C1747 0.950 1_556 S
H1771 C1749 0.950 . S
C1772 C1773 1.349 . S
C1772 C1774 1.327 . S
C1772 H1797 0.950 1_655 S
C1773 C1772 1.349 . S
C1773 C1789 1.349 . S
C1774 C1772 1.327 . S
C1774 C1793 1.429 . S
C1774 H1798 0.950 . S
C1775 C1792 1.574 . S
C1775 C1794 1.368 . S
C1775 H1799 0.949 . S
H1776 C1780 0.949 . S
C1777 C1778 1.349 . S
C1777 C1779 1.327 . S
C1777 H1800 0.950 . S
C1778 C1777 1.349 . S
C1778 C1790 1.349 . S
C1779 C1777 1.327 . S
C1779 C1795 1.429 . S
C1779 H1801 0.950 . S
C1780 H1776 0.949 . S
C1780 C1788 1.574 . S
C1780 C1796 1.368 . S
H1781 C1789 0.950 . S
H1782 C1787 0.950 . S
H1783 C1788 0.949 . S
H1784 C1790 0.950 . S
H1785 C1791 0.950 . S
H1786 C1792 0.949 . S
C1787 H1782 0.950 . S
C1787 C1789 1.327 . S
C1787 C1793 1.429 . S
C1788 C1780 1.574 . S
C1788 H1783 0.949 . S
C1788 C1794 1.368 . S
C1789 C1773 1.349 . S
C1789 H1781 0.950 . S
C1789 C1787 1.327 . S
C1790 C1778 1.349 . S
C1790 H1784 0.950 . S
C1790 C1791 1.327 . S
C1791 H1785 0.950 . S
C1791 C1790 1.327 . S
C1791 C1795 1.429 . S
C1792 C1775 1.574 . S
C1792 H1786 0.949 . S
C1792 C1796 1.368 . S
C1793 C1774 1.429 . S
C1793 C1787 1.429 . S
C1793 C1794 1.523 . S
C1794 C1775 1.368 . S
C1794 C1788 1.368 . S
C1794 C1793 1.523 . S
C1795 C1779 1.429 . S
C1795 C1791 1.429 . S
C1795 C1796 1.523 . S
C1796 C1780 1.368 . S
C1796 C1792 1.368 . S
C1796 C1795 1.523 . S
H1797 C1772 0.950 1_455 S
H1798 C1774 0.950 . S
H1799 C1775 0.949 . S
H1800 C1777 0.950 . S
H1801 C1779 0.950 . S
C1802 C1803 1.349 . S
C1802 C1804 1.327 . S
C1802 H1827 0.950 1_655 S
C1803 C1802 1.349 . S
C1803 C1819 1.349 . S
C1804 C1802 1.327 . S
C1804 C1823 1.429 . S
C1804 H1828 0.950 . S
C1805 C1822 1.574 . S
C1805 C1824 1.368 . S
C1805 H1829 0.949 . S
H1806 C1810 0.949 . S
C1807 C1808 1.349 . S
C1807 C1809 1.327 . S
C1807 H1830 0.950 . S
C1808 C1807 1.349 . S
C1808 C1820 1.349 . S
C1809 C1807 1.327 . S
C1809 C1825 1.429 . S
C1809 H1831 0.950 . S
C1810 H1806 0.949 . S
C1810 C1818 1.574 . S
C1810 C1826 1.368 . S
H1811 C1819 0.950 . S
H1812 C1817 0.950 . S
H1813 C1818 0.949 . S
H1814 C1820 0.950 . S
H1815 C1821 0.950 . S
H1816 C1822 0.949 . S
C1817 H1812 0.950 . S
C1817 C1819 1.327 . S
C1817 C1823 1.429 . S
C1818 C1810 1.574 . S
C1818 H1813 0.949 . S
C1818 C1824 1.368 . S
C1819 C1803 1.349 . S
C1819 H1811 0.950 . S
C1819 C1817 1.327 . S
C1820 C1808 1.349 . S
C1820 H1814 0.950 . S
C1820 C1821 1.327 . S
C1821 H1815 0.950 . S
C1821 C1820 1.327 . S
C1821 C1825 1.429 . S
C1822 C1805 1.574 . S
C1822 H1816 0.949 . S
C1822 C1826 1.368 . S
C1823 C1804 1.429 . S
C1823 C1817 1.429 . S
C1823 C1824 1.523 . S
C1824 C1805 1.368 . S
C1824 C1818 1.368 . S
C1824 C1823 1.523 . S
C1825 C1809 1.429 . S
C1825 C1821 1.429 . S
C1825 C1826 1.523 . S
C1826 C1810 1.368 . S
C1826 C1822 1.368 . S
C1826 C1825 1.523 . S
H1827 C1802 0.950 1_455 S
H1828 C1804 0.950 . S
H1829 C1805 0.949 . S
H1830 C1807 0.950 . S
H1831 C1809 0.950 . S
C1832 C1833 1.349 . S
C1832 C1834 1.327 . S
C1832 H1857 0.950 . S
C1833 C1832 1.349 . S
C1833 C1849 1.349 . S
C1834 C1832 1.327 . S
C1834 C1853 1.429 . S
C1834 H1858 0.950 . S
C1835 C1852 1.574 . S
C1835 C1854 1.368 . S
C1835 H1859 0.949 . S
H1836 C1840 0.949 . S
C1837 C1838 1.349 . S
C1837 C1839 1.327 1_556 S
C1837 H1860 0.950 . S
C1838 C1837 1.349 . S
C1838 C1850 1.349 1_556 S
C1839 C1837 1.327 1_554 S
C1839 C1855 1.429 . S
C1839 H1861 0.955 . S
C1840 H1836 0.949 . S
C1840 C1848 1.574 . S
C1840 C1856 1.368 . S
H1841 C1849 0.950 . S
H1842 C1847 0.950 . S
H1843 C1848 0.949 . S
H1844 C1850 0.950 . S
H1845 C1851 0.950 . S
H1846 C1852 0.949 . S
C1847 H1842 0.950 . S
C1847 C1849 1.327 . S
C1847 C1853 1.429 . S
C1848 C1840 1.574 . S
C1848 H1843 0.949 . S
C1848 C1854 1.368 . S
C1849 C1833 1.349 . S
C1849 H1841 0.950 . S
C1849 C1847 1.327 . S
C1850 C1838 1.349 1_554 S
C1850 H1844 0.950 . S
C1850 C1851 1.327 . S
C1851 H1845 0.950 . S
C1851 C1850 1.327 . S
C1851 C1855 1.429 . S
C1852 C1835 1.574 . S
C1852 H1846 0.949 . S
C1852 C1856 1.368 . S
C1853 C1834 1.429 . S
C1853 C1847 1.429 . S
C1853 C1854 1.523 . S
C1854 C1835 1.368 . S
C1854 C1848 1.368 . S
C1854 C1853 1.523 . S
C1855 C1839 1.429 . S
C1855 C1851 1.429 . S
C1855 C1856 1.523 . S
C1856 C1840 1.368 . S
C1856 C1852 1.368 . S
C1856 C1855 1.523 . S
H1857 C1832 0.950 . S
H1858 C1834 0.950 . S
H1859 C1835 0.949 . S
H1860 C1837 0.950 . S
H1861 C1839 0.955 . S
C1862 C1863 1.349 . S
C1862 C1864 1.327 1_554 S
C1862 H1887 0.950 . S
C1863 C1862 1.349 . S
C1863 C1879 1.349 1_554 S
C1864 C1862 1.327 1_556 S
C1864 C1883 1.429 . S
C1864 H1888 0.955 . S
C1865 C1882 1.574 . S
C1865 C1884 1.368 . S
C1865 H1889 0.949 . S
H1866 C1870 0.949 . S
C1867 C1868 1.349 . S
C1867 C1869 1.327 . S
C1867 H1890 0.950 . S
C1868 C1867 1.349 . S
C1868 C1880 1.349 . S
C1869 C1867 1.327 . S
C1869 C1885 1.429 . S
C1869 H1891 0.950 . S
C1870 H1866 0.949 . S
C1870 C1878 1.574 . S
C1870 C1886 1.368 . S
H1871 C1879 0.950 . S
H1872 C1877 0.950 . S
H1873 C1878 0.949 . S
H1874 C1880 0.950 . S
H1875 C1881 0.950 . S
H1876 C1882 0.949 . S
C1877 H1872 0.950 . S
C1877 C1879 1.327 . S
C1877 C1883 1.429 . S
C1878 C1870 1.574 . S
C1878 H1873 0.949 . S
C1878 C1884 1.368 . S
C1879 C1863 1.349 1_556 S
C1879 H1871 0.950 . S
C1879 C1877 1.327 . S
C1880 C1868 1.349 . S
C1880 H1874 0.950 . S
C1880 C1881 1.327 . S
C1881 H1875 0.950 . S
C1881 C1880 1.327 . S
C1881 C1885 1.429 . S
C1882 C1865 1.574 . S
C1882 H1876 0.949 . S
C1882 C1886 1.368 . S
C1883 C1864 1.429 . S
C1883 C1877 1.429 . S
C1883 C1884 1.523 . S
C1884 C1865 1.368 . S
C1884 C1878 1.368 . S
C1884 C1883 1.523 . S
C1885 C1869 1.429 . S
C1885 C1881 1.429 . S
C1885 C1886 1.523 . S
C1886 C1870 1.368 . S
C1886 C1882 1.368 . S
C1886 C1885 1.523 . S
H1887 C1862 0.950 . S
H1888 C1864 0.955 . S
H1889 C1865 0.949 . S
H1890 C1867 0.950 . S
H1891 C1869 0.950 . S
C1892 C1893 1.349 . S
C1892 C1894 1.327 . S
C1892 H1917 0.950 . S
C1893 C1892 1.349 . S
C1893 C1909 1.349 . S
C1894 C1892 1.327 . S
C1894 C1913 1.429 . S
C1894 H1918 0.950 . S
C1895 C1912 1.574 . S
C1895 C1914 1.368 . S
C1895 H1919 0.949 . S
H1896 C1900 0.949 . S
C1897 C1898 1.349 . S
C1897 C1899 1.327 . S
C1897 H1920 0.950 . S
C1898 C1897 1.349 . S
C1898 C1910 1.349 . S
C1899 C1897 1.327 . S
C1899 C1915 1.429 . S
C1899 H1921 0.950 . S
C1900 H1896 0.949 . S
C1900 C1908 1.574 . S
C1900 C1916 1.368 . S
H1901 C1909 0.950 . S
H1902 C1907 0.950 . S
H1903 C1908 0.949 . S
H1904 C1910 0.950 . S
H1905 C1911 0.950 . S
H1906 C1912 0.949 . S
C1907 H1902 0.950 . S
C1907 C1909 1.327 . S
C1907 C1913 1.429 . S
C1908 C1900 1.574 . S
C1908 H1903 0.949 . S
C1908 C1914 1.368 . S
C1909 C1893 1.349 . S
C1909 H1901 0.950 . S
C1909 C1907 1.327 . S
C1910 C1898 1.349 . S
C1910 H1904 0.950 . S
C1910 C1911 1.327 . S
C1911 H1905 0.950 . S
C1911 C1910 1.327 . S
C1911 C1915 1.429 . S
C1912 C1895 1.574 . S
C1912 H1906 0.949 . S
C1912 C1916 1.368 . S
C1913 C1894 1.429 . S
C1913 C1907 1.429 . S
C1913 C1914 1.523 . S
C1914 C1895 1.368 . S
C1914 C1908 1.368 . S
C1914 C1913 1.523 . S
C1915 C1899 1.429 . S
C1915 C1911 1.429 . S
C1915 C1916 1.523 . S
C1916 C1900 1.368 . S
C1916 C1912 1.368 . S
C1916 C1915 1.523 . S
H1917 C1892 0.950 . S
H1918 C1894 0.950 . S
H1919 C1895 0.949 . S
H1920 C1897 0.950 . S
H1921 C1899 0.950 . S
C1922 C1923 1.349 . S
C1922 C1924 1.327 . S
C1922 H1947 0.950 . S
C1923 C1922 1.349 . S
C1923 C1939 1.349 . S
C1924 C1922 1.327 . S
C1924 C1943 1.429 . S
C1924 H1948 0.950 . S
C1925 C1942 1.574 . S
C1925 C1944 1.368 . S
C1925 H1949 0.949 . S
H1926 C1930 0.949 . S
C1927 C1928 1.349 . S
C1927 C1929 1.327 . S
C1927 H1950 0.950 . S
C1928 C1927 1.349 . S
C1928 C1940 1.349 . S
C1929 C1927 1.327 . S
C1929 C1945 1.429 . S
C1929 H1951 0.950 . S
C1930 H1926 0.949 . S
C1930 C1938 1.574 . S
C1930 C1946 1.368 . S
H1931 C1939 0.950 . S
H1932 C1937 0.950 . S
H1933 C1938 0.949 . S
H1934 C1940 0.950 . S
H1935 C1941 0.950 . S
H1936 C1942 0.949 . S
C1937 H1932 0.950 . S
C1937 C1939 1.327 . S
C1937 C1943 1.429 . S
C1938 C1930 1.574 . S
C1938 H1933 0.949 . S
C1938 C1944 1.368 . S
C1939 C1923 1.349 . S
C1939 H1931 0.950 . S
C1939 C1937 1.327 . S
C1940 C1928 1.349 . S
C1940 H1934 0.950 . S
C1940 C1941 1.327 . S
C1941 H1935 0.950 . S
C1941 C1940 1.327 . S
C1941 C1945 1.429 . S
C1942 C1925 1.574 . S
C1942 H1936 0.949 . S
C1942 C1946 1.368 . S
C1943 C1924 1.429 . S
C1943 C1937 1.429 . S
C1943 C1944 1.523 . S
C1944 C1925 1.368 . S
C1944 C1938 1.368 . S
C1944 C1943 1.523 . S
C1945 C1929 1.429 . S
C1945 C1941 1.429 . S
C1945 C1946 1.523 . S
C1946 C1930 1.368 . S
C1946 C1942 1.368 . S
C1946 C1945 1.523 . S
H1947 C1922 0.950 . S
H1948 C1924 0.950 . S
H1949 C1925 0.949 . S
H1950 C1927 0.950 . S
H1951 C1929 0.950 . S
C513 C2 1.962 . S
C518 C230 1.962 . S
C543 C34 1.962 . S
C548 C134 1.962 . S
C573 C166 1.962 . S
C578 C66 1.962 . S
C603 C98 1.962 . S
C608 C194 1.962 . S
C633 C356 1.769 . S
C638 C157 1.769 1_655 S
C663 C285 1.769 . S
C668 C4 1.769 1_655 S
C693 C324 1.769 . S
C698 C196 1.769 . S
C723 C68 1.769 . S
C728 C317 1.769 . S
C753 C294 1.962 . S
C758 C386 1.962 . S
C783 C322 1.962 . S
C788 C454 1.962 . S
C813 C422 1.962 1_655 S
C818 C262 1.962 . S
C843 C354 1.962 . S
C848 C482 1.962 1_655 S
C873 C477 1.769 . S
C878 C100 1.769 . S
C903 C388 1.769 . S
C908 C189 1.769 . S
C933 C36 1.769 . S
C938 C484 1.769 . S
C963 C253 1.769 . S
C968 C445 1.769 . S
C993 N434 2.647 . S
C998 N13 2.647 . S
C1023 N365 2.647 . S
C1028 N45 2.647 . S
C1053 N397 2.647 . S
C1058 N77 2.647 . S
C1083 N333 2.647 . S
C1088 N109 2.647 . S
C1113 N146 2.647 . S
C1118 N493 2.647 . S
C1143 N306 2.647 . S
C1148 N178 2.647 . S
C1173 N205 2.647 . S
C1178 N466 2.647 . S
C1203 N242 2.647 . S
C1208 N274 2.647 . S
C1233 N18 1.146 . S
C1238 N141 1.146 . S
C1263 N50 1.146 . S
C1268 N173 1.146 . S
C1293 N210 1.146 . S
C1298 N82 1.146 . S
C1323 N114 1.146 . S
C1328 N237 1.146 . S
C1353 N338 1.146 . S
C1358 N269 1.146 . S
C1383 N370 1.146 . S
C1388 N301 1.146 . S
C1413 N402 1.146 . S
C1418 N461 1.146 . S
C1443 N498 1.146 . S
C1448 N429 1.146 . S
C1473 C6 1.388 . S
C1478 C226 1.388 . S
C1503 C38 1.388 . S
C1508 C130 1.388 . S
C1533 C162 1.388 . S
C1538 C70 1.388 . S
C1563 C198 1.388 . S
C1568 C102 1.388 . S
C1593 C381 1.404 . S
C1598 C132 1.404 1_655 S
C1623 C260 1.404 . S
C1628 C29 1.404 1_655 S
C1653 C349 1.404 . S
C1658 C221 1.404 . S
C1683 C93 1.404 . S
C1688 C292 1.404 . S
C1713 C390 1.388 . S
C1718 C290 1.388 . S
C1743 C450 1.388 . S
C1748 C326 1.388 . S
C1773 C418 1.388 1_655 S
C1778 C258 1.388 . S
C1803 C486 1.388 1_655 S
C1808 C358 1.388 . S
C1833 C452 1.404 . S
C1838 C125 1.404 . S
C1863 C164 1.404 . S
C1868 C413 1.404 . S
C1893 C61 1.405 . S
C1898 C509 1.405 . S
C1923 C420 1.405 . S
C1928 C228 1.405 . S
