# Generated by pormake.
# Topology snp, (6)-cn, num edge types: 1
# Building blocks:
#     Node 0, Type 0, BuildingBlock: FUNLAD_clean_sbu_0, # of connection points: 6
#     Node 1, Type 0, BuildingBlock: FUNLAD_clean_sbu_0, # of connection points: 6
#     Node 2, Type 0, BuildingBlock: FUNLAD_clean_sbu_0, # of connection points: 6
#     Node 3, Type 0, BuildingBlock: FUNLAD_clean_sbu_0, # of connection points: 6
#     Edge 4, Type (0, 0), BuildingBlock: UVAHIK_clean_linker_0, # of connection points: 2
#     Edge 5, Type (0, 0), BuildingBlock: UVAHIK_clean_linker_0, # of connection points: 2
#     Edge 6, Type (0, 0), BuildingBlock: UVAHIK_clean_linker_0, # of connection points: 2
#     Edge 7, Type (0, 0), BuildingBlock: UVAHIK_clean_linker_0, # of connection points: 2
#     Edge 8, Type (0, 0), BuildingBlock: UVAHIK_clean_linker_0, # of connection points: 2
#     Edge 9, Type (0, 0), BuildingBlock: UVAHIK_clean_linker_0, # of connection points: 2
#     Edge 10, Type (0, 0), BuildingBlock: UVAHIK_clean_linker_0, # of connection points: 2
#     Edge 11, Type (0, 0), BuildingBlock: UVAHIK_clean_linker_0, # of connection points: 2
#     Edge 12, Type (0, 0), BuildingBlock: UVAHIK_clean_linker_0, # of connection points: 2
#     Edge 13, Type (0, 0), BuildingBlock: UVAHIK_clean_linker_0, # of connection points: 2
#     Edge 14, Type (0, 0), BuildingBlock: UVAHIK_clean_linker_0, # of connection points: 2
#     Edge 15, Type (0, 0), BuildingBlock: UVAHIK_clean_linker_0, # of connection points: 2
# Relax obj value: 1.118
# Max RMSD: 0.253
# Mean RMSD: 0.253
data_MOF--net-snp--node1-FUNLAD_clean_sbu_0--edge1-UVAHIK_clean_linker_0
_symmetry_space_group_name_H-M    P1
_symmetry_Int_Tables_number       1
_symmetry_cell_setting            triclinic
loop_
_symmetry_equiv_pos_as_xyz
'x, y, z'
_cell_length_a     43.372152
_cell_length_b     42.971092
_cell_length_c     28.652634
_cell_angle_alpha  91.302861
_cell_angle_beta   89.981584
_cell_angle_gamma 89.83764
loop_
_atom_site_label
_atom_site_type_symbol
_atom_site_fract_x
_atom_site_fract_y
_atom_site_fract_z
_atom_type_partial_charge
C0 C 0.21627 0.01587 0.93417 0.0
N1 N 0.29903 0.05035 1.00223 0.0
C2 C 0.31139 0.02117 0.00309 0.0
C3 C 0.34358 0.01693 0.00419 0.0
C4 C 0.36331 0.04297 0.00465 0.0
C5 C 0.34972 0.07267 0.00355 0.0
C6 C 0.31766 0.07581 1.00233 0.0
Zn7 Zn 0.2518 0.05954 0.99961 0.0
C8 C 0.23691 0.10355 0.92187 0.0
N9 N 0.15664 0.08615 0.99276 0.0
C10 C 0.15336 0.1174 0.98618 0.0
C11 C 0.1345 0.06986 0.01511 0.0
C12 C 0.11085 0.08582 0.03863 0.0
C13 C 0.11058 0.11858 0.03927 0.0
C14 C 0.13054 0.13424 0.00982 0.0
Zn15 Zn 0.20156 0.07069 0.99332 0.0
O16 O 0.24353 0.02216 0.94866 0.0
C17 C 0.21414 0.02594 0.07058 0.0
O18 O 0.19367 0.03258 0.94835 0.0
H19 H 0.13744 0.04518 0.02025 0.0
H20 H 0.29632 0.00114 0.0029 0.0
H21 H 0.17118 0.13044 0.96917 0.0
O22 O 0.24178 0.02754 0.05532 0.0
O23 O 0.19329 0.04237 0.05182 0.0
H24 H 0.30762 0.09884 1.00116 0.0
O25 O 0.2094 0.10837 0.03807 0.0
O26 O 0.25742 0.09681 0.05263 0.0
O27 O 0.21014 0.0976 0.93626 0.0
O28 O 0.26012 0.09153 0.94198 0.0
C29 C 0.23394 0.11406 0.06017 0.0
H30 H 0.35288 0.99355 0.00527 0.0
H31 H 0.36375 0.09346 0.00287 0.0
H32 H 0.09587 0.07299 0.06148 0.0
H33 H 0.13111 0.15945 0.00992 0.0
C34 C 0.05673 0.23701 0.42614 0.0
N35 N 0.01888 0.30536 0.51887 0.0
C36 C 0.04652 0.3202 0.51635 0.0
C37 C 0.04809 0.3528 0.51953 0.0
C38 C 0.02096 0.37057 0.5253 0.0
C39 C 0.99291 0.35446 0.52945 0.0
C40 C 0.99238 0.32186 0.52605 0.0
Zn41 Zn 0.01599 0.25772 0.50434 0.0
C42 C 0.96483 0.24252 0.43806 0.0
N43 N 0.00807 0.1606 0.46999 0.0
C44 C 0.0047 0.15626 0.42307 0.0
C45 C 0.01022 0.13596 0.49878 0.0
C46 C 0.01079 0.10554 0.47997 0.0
C47 C 0.00932 0.10067 0.43116 0.0
C48 C 0.00519 0.1266 0.40299 0.0
Zn49 Zn 0.01181 0.20628 0.49095 0.0
O50 O 0.04904 0.26218 0.44745 0.0
C51 C 0.06259 0.21925 0.55735 0.0
O52 O 0.04407 0.21177 0.43732 0.0
H53 H 0.01268 0.13991 0.53602 0.0
H54 H 0.06736 0.30682 0.51027 0.0
H55 H 0.00318 0.17597 0.40045 0.0
O56 O 0.05371 0.24731 0.55158 0.0
O57 O 0.04877 0.19711 0.53584 0.0
H58 H 0.97059 0.30978 0.52779 0.0
O59 O 0.98061 0.2006 0.54512 0.0
O60 O 0.98366 0.25079 0.56225 0.0
O61 O 0.97486 0.21577 0.44743 0.0
O62 O 0.97795 0.26639 0.45604 0.0
C63 C 0.97282 0.22383 0.57069 0.0
H64 H 0.07027 0.36396 0.51567 0.0
H65 H 0.97141 0.3669 0.53477 0.0
H66 H 0.01376 0.08622 0.50316 0.0
H67 H 0.00471 0.12445 0.36528 0.0
C68 C 0.85037 0.06398 0.96025 0.0
N69 N 0.76324 0.02802 0.00913 0.0
C70 C 0.749 0.05623 0.00664 0.0
C71 C 0.7168 0.05821 1.00249 0.0
C72 C 0.69885 0.03093 1.00083 0.0
C73 C 0.71436 0.00216 1.00225 0.0
C74 C 0.74653 0.00125 0.00649 0.0
Zn75 Zn 0.81024 0.02462 0.02326 0.0
C76 C 0.84189 0.97352 0.96317 0.0
N77 N 0.90584 0.01307 0.0558 0.0
C78 C 0.9306 0.00662 0.02795 0.0
C79 C 0.90878 0.01426 0.10311 0.0
C80 C 0.93707 0.00969 0.12419 0.0
C81 C 0.96324 0.00339 0.09687 0.0
C82 C 0.95976 0.00172 0.04791 0.0
Zn83 Zn 0.86102 0.01847 0.03415 0.0
O84 O 0.82234 0.05675 0.96872 0.0
C85 C 0.83265 0.07026 0.09397 0.0
O86 O 0.872 0.05157 0.98359 0.0
H87 H 0.88903 0.01875 0.12521 0.0
H88 H 0.76255 0.0773 0.00893 0.0
H89 H 0.92775 0.00521 0.99045 0.0
O90 O 0.80723 0.06358 0.07387 0.0
O91 O 0.85641 0.0546 0.08308 0.0
H92 H 0.75809 0.97902 0.00906 0.0
O93 O 0.84993 0.98549 0.08304 0.0
O94 O 0.80004 0.99231 0.07916 0.0
O95 O 0.8655 0.98312 0.98521 0.0
O96 O 0.8156 0.98599 0.97179 0.0
C97 C 0.82323 0.97878 0.09691 0.0
H98 H 0.70608 0.08095 1.00087 0.0
H99 H 0.70171 0.98047 1.00176 0.0
H100 H 0.93835 0.01231 0.16181 0.0
H101 H 0.97932 0.99696 0.02535 0.0
C102 C 0.08994 0.84402 0.4332 0.0
N103 N 0.06664 0.91998 0.51389 0.0
C104 C 0.06246 0.9343 0.47251 0.0
C105 C 0.08446 0.95505 0.45673 0.0
C106 C 0.11096 0.96082 0.48355 0.0
C107 C 0.11243 0.9497 0.52893 0.0
C108 C 0.0891 0.92986 0.54419 0.0
Zn109 Zn 0.05492 0.87335 0.51289 0.0
C110 C 0.00125 0.85777 0.45215 0.0
N111 N 0.04076 0.77371 0.50549 0.0
C112 C 0.06616 0.75532 0.49982 0.0
C113 C 0.01243 0.7608 0.51166 0.0
C114 C 0.00904 0.7283 0.51294 0.0
C115 C 0.03505 0.70875 0.50805 0.0
C116 C 0.06383 0.72286 0.50091 0.0
Zn117 Zn 0.04777 0.8217 0.50785 0.0
O118 O 0.08248 0.86911 0.45405 0.0
C119 C 0.10091 0.83897 0.56957 0.0
O120 O 0.0795 0.81828 0.44787 0.0
H121 H 0.99248 0.77571 0.5164 0.0
H122 H 0.04491 0.92633 0.44842 0.0
H123 H 0.08852 0.76585 0.49506 0.0
O124 O 0.09311 0.86502 0.55389 0.0
O125 O 0.08546 0.81495 0.55763 0.0
H126 H 0.09156 0.91924 0.57781 0.0
O127 O 0.01586 0.828 0.56644 0.0
O128 O 0.02723 0.87789 0.57175 0.0
O129 O 0.01003 0.8299 0.45958 0.0
O130 O 0.01574 0.88039 0.4712 0.0
C131 C 0.01216 0.85471 0.58638 0.0
H132 H 0.08266 0.96343 0.42147 0.0
H133 H 0.13243 0.95412 0.55068 0.0
H134 H 0.98638 0.71866 0.51893 0.0
H135 H 0.0845 0.70897 0.4961 0.0
C136 C -0.00333 0.99329 0.16667 0.0
C137 C 0.99393 0.0031 0.12013 0.0
C138 C 0.02065 0.00437 0.19501 0.0
C139 C 0.04128 0.07069 0.22795 0.0
H140 H 0.12514 0.08631 0.19031 0.0
C141 C 0.06706 0.13002 0.0932 0.0
C142 C 0.09779 0.13487 0.08073 0.0
C143 C 0.05903 0.12948 0.14028 0.0
C144 C 0.10214 0.08233 0.20361 0.0
H145 H 0.01766 0.02687 0.06464 0.0
H146 H 0.05999 0.04463 0.1132 0.0
H147 H 0.10498 0.03403 0.18395 0.0
H148 H 0.14256 0.1498 0.10599 0.0
H149 H 0.12899 0.14669 0.18798 0.0
H150 H 0.03692 0.11971 0.23966 0.0
C151 C 0.04313 0.02923 0.12821 0.0
C152 C 0.0906 0.05211 0.19951 0.0
C153 C 0.01871 0.01903 0.10025 0.0
C154 C 0.11872 0.14554 0.11501 0.0
C155 C 0.11089 0.14404 0.16219 0.0
C156 C 0.0529 0.10092 0.2316 0.0
C157 C 0.04287 0.02415 0.17652 0.0
C158 C 0.05912 0.0469 0.20675 0.0
C159 C 0.08229 0.13153 0.17476 0.0
C160 C 0.08146 0.10739 0.211 0.0
H161 H 0.97861 0.97979 0.18258 0.0
H162 H 0.02022 0.99988 0.23204 0.0
H163 H 0.01683 0.0674 0.23368 0.0
H164 H 0.05044 0.12227 0.06724 0.0
H165 H 0.03623 0.12103 0.14863 0.0
C166 C 0.15396 0.95211 0.42921 0.0
C167 C 0.13817 0.97298 0.45931 0.0
C168 C 0.16234 0.96152 0.38451 0.0
C169 C 0.12864 0.02332 0.30964 0.0
H170 H 0.0613 0.96615 0.32932 0.0
C171 C 0.04285 0.05349 0.4268 0.0
C172 C 0.01806 0.07041 0.40854 0.0
C173 C 0.05877 0.03215 0.39858 0.0
C174 C 0.0797 0.98214 0.32118 0.0
H175 H 0.12765 0.02143 0.47297 0.0
H176 H 0.14316 0.03802 0.39668 0.0
H177 H 0.11371 0.94758 0.33227 0.0
H178 H 0.9871 0.07377 0.34916 0.0
H179 H 0.01567 0.03628 0.29983 0.0
H180 H 0.09422 0.05886 0.30573 0.0
C181 C 0.14788 0.01409 0.40539 0.0
C182 C 0.11017 0.97158 0.32278 0.0
C183 C 0.13892 0.00472 0.44973 0.0
C184 C 0.00689 0.06201 0.36369 0.0
C185 C 0.02318 0.04074 0.33525 0.0
C186 C 0.09819 0.03402 0.30781 0.0
C187 C 0.15356 0.99128 0.37003 0.0
C188 C 0.13431 0.99352 0.327 0.0
C189 C 0.05037 0.02739 0.35169 0.0
C190 C 0.07393 0.01414 0.31999 0.0
H191 H 0.15447 0.92751 0.4366 0.0
H192 H 0.16879 0.94389 0.35875 0.0
H193 H 0.14698 0.04037 0.30919 0.0
H194 H 0.05223 0.05905 0.46098 0.0
H195 H 0.07961 0.02176 0.41202 0.0
C196 C 0.64716 0.01015 0.97331 0.0
C197 C 0.66426 0.03234 0.99928 0.0
C198 C 0.61479 0.01081 0.97331 0.0
C199 C 0.54753 0.06259 1.00024 0.0
H200 H 0.50207 0.98509 0.00278 0.0
C201 C 0.41582 0.06093 0.03208 0.0
C202 C 0.39777 0.03965 0.00592 0.0
C203 C 0.44808 0.05927 0.0313 0.0
C204 C 0.51433 0.00697 1.00154 0.0
H205 H 0.66012 0.07255 0.04604 0.0
H206 H 0.60398 0.07373 0.04599 0.0
H207 H 0.55832 0.98406 1.00073 0.0
H208 H 0.40006 0.99946 0.95892 0.0
H209 H 0.45636 0.99649 0.9576 0.0
H210 H 0.50362 0.08552 1.00111 0.0
C211 C 0.61558 0.05603 0.02494 0.0
C212 C 0.5467 0.00639 1.00033 0.0
C213 C 0.64793 0.05537 0.02492 0.0
C214 C 0.41307 0.01609 0.97987 0.0
C215 C 0.44545 0.01442 0.97908 0.0
C216 C 0.5152 0.06317 1.00147 0.0
C217 C 0.59847 0.03369 0.99927 0.0
C218 C 0.56383 0.0342 0.99983 0.0
C219 C 0.46346 0.03623 0.00437 0.0
C220 C 0.49806 0.03539 1.00236 0.0
H221 H 0.65878 0.99232 0.95253 0.0
H222 H 0.60257 0.99352 0.95245 0.0
H223 H 0.55973 0.0845 0.99898 0.0
H224 H 0.40499 0.07899 0.05343 0.0
H225 H 0.46099 0.07604 0.05214 0.0
C226 C -0.00183 0.42252 0.50341 0.0
C227 C 0.02173 0.40552 0.52522 0.0
C228 C -0.00091 0.45512 0.50227 0.0
C229 C 0.03556 0.52468 0.55952 0.0
H230 H 0.00879 0.56625 0.44784 0.0
C231 C 0.0556 0.65665 0.53338 0.0
C232 C 0.03251 0.67401 0.51107 0.0
C233 C 0.0537 0.62416 0.53569 0.0
C234 C 0.016 0.55512 0.47958 0.0
H235 H 0.06467 0.41014 0.5635 0.0
H236 H 0.06657 0.46679 0.56079 0.0
H237 H 0.00687 0.50964 0.4507 0.0
H238 H 0.98917 0.67021 0.47372 0.0
H239 H 0.98561 0.61364 0.47838 0.0
H240 H 0.04479 0.57016 0.58833 0.0
C241 C 0.04712 0.45489 0.54492 0.0
C242 C 0.0149 0.52252 0.48124 0.0
C243 C 0.04621 0.42224 0.54601 0.0
C244 C 0.0073 0.65779 0.49148 0.0
C245 C 0.00544 0.62522 0.4937 0.0
C246 C 0.03667 0.55727 0.55785 0.0
C247 C 0.02361 0.47186 0.5229 0.0
C248 C 0.0247 0.50675 0.52121 0.0
C249 C 0.02866 0.60788 0.51578 0.0
C250 C 0.02696 0.57303 0.51782 0.0
H251 H 0.97912 0.41063 0.4864 0.0
H252 H 0.98036 0.46723 0.48546 0.0
H253 H 0.04282 0.51356 0.59123 0.0
H254 H 0.07517 0.6682 0.5495 0.0
H255 H 0.07222 0.61175 0.55257 0.0
C256 C 0.08286 0.24924 0.35008 0.0
C257 C 0.08315 0.23501 0.39366 0.0
C258 C 0.10547 0.24149 0.31647 0.0
C259 C 0.15919 0.17626 0.28678 0.0
H260 H 0.19084 0.23223 0.19422 0.0
C261 C 0.24139 0.13004 0.14393 0.0
C262 C 0.23197 0.1375 0.09868 0.0
C263 C 0.22953 0.14666 0.18277 0.0
C264 C 0.18225 0.2163 0.21989 0.0
H265 H 0.10789 0.20308 0.43748 0.0
H266 H 0.14778 0.19066 0.38031 0.0
H267 H 0.15694 0.2524 0.25618 0.0
H268 H 0.20492 0.16966 0.05831 0.0
H269 H 0.18494 0.19892 0.12538 0.0
H270 H 0.18383 0.14009 0.25026 0.0
C271 C 0.12984 0.20696 0.37098 0.0
C272 C 0.16266 0.22785 0.25531 0.0
C273 C 0.10719 0.21436 0.40403 0.0
C274 C 0.21292 0.16366 0.0928 0.0
C275 C 0.20136 0.18041 0.1314 0.0
C276 C 0.17885 0.1648 0.25168 0.0
C277 C 0.12878 0.21951 0.3261 0.0
C278 C 0.15066 0.20793 0.2891 0.0
C279 C 0.20827 0.17119 0.17697 0.0
C280 C 0.19042 0.18454 0.2174 0.0
H281 H 0.06427 0.26489 0.34108 0.0
H282 H 0.10376 0.25152 0.28225 0.0
H283 H 0.14988 0.15993 0.31128 0.0
H284 H 0.25559 0.10968 0.14956 0.0
H285 H 0.23573 0.13924 0.2174 0.0
C286 C 0.92647 0.19974 0.60583 0.0
C287 C 0.95297 0.21806 0.61152 0.0
C288 C 0.91102 0.18813 0.64459 0.0
C289 C 0.90924 0.19012 0.77649 0.0
H290 H 0.87509 0.10755 0.7568 0.0
C291 C 0.8867 0.1016 0.92344 0.0
C292 C 0.85817 0.08606 0.92285 0.0
C293 C 0.89506 0.12111 0.88707 0.0
C294 C 0.88419 0.13075 0.76279 0.0
H295 H 0.98386 0.23922 0.66209 0.0
H296 H 0.95791 0.21795 0.72993 0.0
H297 H 0.89547 0.13545 0.69091 0.0
H298 H 0.81592 0.07919 0.88367 0.0
H299 H 0.831 0.11259 0.81925 0.0
H300 H 0.89941 0.18409 0.84926 0.0
C301 C 0.94811 0.21331 0.69577 0.0
C302 C 0.89578 0.14701 0.72484 0.0
C303 C 0.96309 0.22563 0.65685 0.0
C304 C 0.838 0.09087 0.88525 0.0
C305 C 0.84668 0.10988 0.84831 0.0
C306 C 0.89819 0.17351 0.81464 0.0
C307 C 0.92231 0.19357 0.69019 0.0
C308 C 0.90858 0.177 0.73092 0.0
C309 C 0.87539 0.12507 0.84871 0.0
C310 C 0.88561 0.1436 0.80819 0.0
H311 H 0.91826 0.19351 0.57115 0.0
H312 H 0.8907 0.17407 0.63845 0.0
H313 H 0.91832 0.21325 0.78292 0.0
H314 H 0.90273 0.0985 0.95196 0.0
H315 H 0.91741 0.1323 0.8882 0.0
C316 C 0.95779 0.89232 0.42926 0.0
C317 C 0.97453 0.86463 0.4217 0.0
C318 C 0.93419 0.90081 0.39891 0.0
C319 C 0.88523 0.87256 0.29855 0.0
H320 H 0.8803 0.96093 0.275 0.0
C321 C 0.83549 0.92834 0.13212 0.0
C322 C 0.82126 0.95768 0.13655 0.0
C323 C 0.84635 0.91307 0.1715 0.0
C324 C 0.88085 0.93623 0.28178 0.0
H325 H 0.97909 0.82365 0.37691 0.0
H326 H 0.93864 0.83904 0.32236 0.0
H327 H 0.91598 0.94232 0.3331 0.0
H328 H 0.80548 0.99318 0.18563 0.0
H329 H 0.8242 0.96643 0.25478 0.0
H330 H 0.85109 0.86673 0.24468 0.0
C331 C 0.94317 0.85391 0.35256 0.0
C332 C 0.90141 0.92544 0.3153 0.0
C333 C 0.9665 0.84508 0.38369 0.0
C334 C 0.81562 0.97022 0.18137 0.0
C335 C 0.82685 0.95514 0.22083 0.0
C336 C 0.86487 0.8834 0.2644 0.0
C337 C 0.92704 0.88225 0.35927 0.0
C338 C 0.90406 0.89343 0.32424 0.0
C339 C 0.84371 0.92716 0.21607 0.0
C340 C 0.86252 0.91539 0.25554 0.0
H341 H 0.96309 0.90767 0.45868 0.0
H342 H 0.92179 0.92224 0.4064 0.0
H343 H 0.88621 0.84781 0.30468 0.0
H344 H 0.84081 0.91859 0.09782 0.0
H345 H 0.85936 0.8917 0.16649 0.0
C346 C 0.12098 0.82389 0.64796 0.0
C347 C 0.1253 0.83902 0.60557 0.0
C348 C 0.13808 0.83304 0.68758 0.0
C349 C 0.20167 0.88694 0.72881 0.0
H350 H 0.14634 0.90195 0.8331 0.0
C351 C 0.23405 0.96921 0.88576 0.0
C352 C 0.21032 0.98937 0.90109 0.0
C353 C 0.22774 0.94442 0.85439 0.0
C354 C 0.16216 0.89802 0.8043 0.0
H355 H 0.1528 0.87312 0.56999 0.0
H356 H 0.18233 0.88895 0.63804 0.0
H357 H 0.13027 0.86798 0.76888 0.0
H358 H 0.16135 0.99913 0.89524 0.0
H359 H 0.15063 0.95685 0.84049 0.0
H360 H 0.23261 0.91889 0.76289 0.0
C361 C 0.16612 0.87003 0.64151 0.0
C362 C 0.15313 0.878 0.76766 0.0
C363 C 0.1491 0.86096 0.60225 0.0
C364 C 0.18024 0.98407 0.88448 0.0
C365 C 0.17399 0.95949 0.85326 0.0
C366 C 0.2106 0.90721 0.76535 0.0
C367 C 0.15978 0.85741 0.68533 0.0
C368 C 0.17228 0.87302 0.72853 0.0
C369 C 0.19757 0.93924 0.83774 0.0
C370 C 0.19047 0.91391 0.80277 0.0
H371 H 0.10257 0.80713 0.6516 0.0
H372 H 0.13299 0.82234 0.72054 0.0
H373 H 0.21733 0.88325 0.69977 0.0
H374 H 0.25746 0.97255 0.89796 0.0
H375 H 0.24647 0.92923 0.84341 0.0
C376 C 0.82992 0.95063 0.88358 0.0
C377 C 0.8466 0.94979 0.92554 0.0
C378 C 0.83987 0.93306 0.84441 0.0
C379 C 0.89637 0.87143 0.80472 0.0
H380 H 0.90455 0.92311 0.6964 0.0
C381 C 0.97007 0.83606 0.64029 0.0
C382 C 0.98926 0.85997 0.62444 0.0
C383 C 0.94737 0.8424 0.6743 0.0
C384 C 0.90236 0.90828 0.72627 0.0
H385 H 0.88499 0.92801 0.96066 0.0
H386 H 0.9021 0.89757 0.8932 0.0
H387 H 0.87234 0.94066 0.76139 0.0
H388 H -0.00015 0.90919 0.63278 0.0
H389 H 0.96089 0.91995 0.69145 0.0
H390 H 0.92793 0.83989 0.77036 0.0
C391 C 0.88144 0.91155 0.88996 0.0
C392 C 0.8835 0.91816 0.76336 0.0
C393 C 0.87171 0.92921 0.92871 0.0
C394 C 0.98548 0.89013 0.6438 0.0
C395 C 0.96285 0.89644 0.67728 0.0
C396 C 0.91524 0.86151 0.76749 0.0
C397 C 0.86644 0.91413 0.84676 0.0
C398 C 0.8811 0.90041 0.80381 0.0
C399 C 0.94326 0.87282 0.69267 0.0
C400 C 0.91934 0.8804 0.72859 0.0
H401 H 0.81058 0.9664 0.88008 0.0
H402 H 0.82755 0.93531 0.81179 0.0
H403 H 0.89471 0.85695 0.83506 0.0
H404 H 0.9723 0.8126 0.62604 0.0
H405 H 0.93267 0.82367 0.68555 0.0
C406 C 0.17725 0.00866 0.13227 0.0
C407 C 0.20544 0.00449 0.10856 0.0
C408 C 0.16755 0.98751 0.16567 0.0
C409 C 0.19435 0.922 0.23974 0.0
H410 H 0.10658 0.90668 0.2486 0.0
C411 C 0.13837 0.8618 0.39718 0.0
C412 C 0.1099 0.84671 0.39175 0.0
C413 C 0.15298 0.87536 0.35916 0.0
C414 C 0.13124 0.91004 0.24618 0.0
H415 H 0.24574 0.97483 0.10216 0.0
H416 H 0.22848 0.93734 0.15953 0.0
H417 H 0.12576 0.94208 0.1908 0.0
H418 H 0.07494 0.83278 0.34186 0.0
H419 H 0.10068 0.85576 0.27484 0.0
H420 H 0.1998 0.8894 0.29462 0.0
C421 C 0.21406 0.95737 0.153 0.0
C422 C 0.14228 0.93103 0.21343 0.0
C423 C 0.22399 0.97885 0.11991 0.0
C424 C 0.09726 0.84361 0.34682 0.0
C425 C 0.11176 0.85745 0.30865 0.0
C426 C 0.18331 0.90082 0.27237 0.0
C427 C 0.18546 0.96116 0.17601 0.0
C428 C 0.17398 0.93771 0.21003 0.0
C429 C 0.13914 0.8748 0.31468 0.0
C430 C 0.1515 0.89478 0.27657 0.0
H431 H 0.16247 0.02832 0.12488 0.0
H432 H 0.14589 0.99191 0.18342 0.0
H433 H 0.21887 0.92654 0.23866 0.0
H434 H 0.14822 0.86518 0.43168 0.0
H435 H 0.17398 0.88824 0.36569 0.0
C436 C 0.10473 0.18356 0.58239 0.0
C437 C 0.08867 0.21179 0.58877 0.0
C438 C 0.12804 0.17501 0.61325 0.0
C439 C 0.17782 0.20427 0.71196 0.0
H440 H 0.18062 0.11658 0.74069 0.0
C441 C 0.22586 0.15272 0.88226 0.0
C442 C 0.23915 0.12288 0.88027 0.0
C443 C 0.21548 0.16683 0.84162 0.0
C444 C 0.18068 0.14106 0.73247 0.0
H445 H 0.08507 0.25359 0.63205 0.0
H446 H 0.12499 0.23817 0.68731 0.0
H447 H 0.14552 0.13449 0.68124 0.0
H448 H 0.2537 0.08511 0.83421 0.0
H449 H 0.23586 0.10983 0.7628 0.0
H450 H 0.21202 0.21069 0.76556 0.0
C451 C 0.12013 0.22288 0.6577 0.0
C452 C 0.16044 0.15144 0.69818 0.0
C453 C 0.09707 0.23171 0.62617 0.0
C454 C 0.24428 0.10847 0.83653 0.0
C455 C 0.23356 0.12242 0.79581 0.0
C456 C 0.19788 0.19386 0.7468 0.0
C457 C 0.13564 0.19412 0.65209 0.0
C458 C 0.15848 0.18323 0.6875 0.0
C459 C 0.21766 0.15107 0.79821 0.0
C460 C 0.19939 0.16212 0.75766 0.0
H461 H 0.09918 0.16788 0.55348 0.0
H462 H 0.13993 0.15316 0.6067 0.0
H463 H 0.17742 0.22883 0.7044 0.0
H464 H 0.22092 0.1639 0.91573 0.0
H465 H 0.20319 0.18875 0.84486 0.0
C466 C 0.81381 0.11929 0.13712 0.0
C467 C 0.83646 0.09629 0.12866 0.0
C468 C 0.82007 0.14487 0.16738 0.0
C469 C 0.88631 0.18932 0.21432 0.0
H470 H 0.83744 0.20807 0.3246 0.0
C471 C 0.94053 0.26003 0.36368 0.0
C472 C 0.93839 0.24417 0.40579 0.0
C473 C 0.92016 0.25284 0.32685 0.0
C474 C 0.85123 0.2034 0.2937 0.0
H475 H 0.88284 0.08165 0.14734 0.0
H476 H 0.89338 0.12549 0.19867 0.0
H477 H 0.81713 0.17259 0.26396 0.0
H478 H 0.91193 0.21068 0.44421 0.0
H479 H 0.87659 0.19834 0.38097 0.0
H480 H 0.92135 0.21791 0.24493 0.0
C481 C 0.87111 0.12434 0.18158 0.0
C482 C 0.83942 0.18328 0.25881 0.0
C483 C 0.86488 0.09899 0.15215 0.0
C484 C 0.91389 0.2234 0.4121 0.0
C485 C 0.89353 0.21638 0.37569 0.0
C486 C 0.89808 0.20934 0.249 0.0
C487 C 0.84915 0.1479 0.18898 0.0
C488 C 0.85751 0.17491 0.21985 0.0
C489 C 0.89733 0.22975 0.33173 0.0
C490 C 0.88133 0.21554 0.29022 0.0
H491 H 0.7917 0.11789 0.11968 0.0
H492 H 0.80259 0.16262 0.17292 0.0
H493 H 0.90064 0.18355 0.18435 0.0
H494 H 0.95947 0.27585 0.35778 0.0
H495 H 0.92351 0.26393 0.29368 0.0
loop_
_geom_bond_atom_site_label_1
_geom_bond_atom_site_label_2
_geom_bond_distance
_geom_bond_site_symmetry_2
_ccdc_geom_bond_type
C0 O16 1.251 . S
C0 O18 1.254 . S
N1 C2 1.333 1_554 S
N1 C6 1.307 . S
N1 Zn7 2.020 . S
C2 N1 1.333 1_556 S
C2 C3 1.379 . S
C2 H20 0.952 . S
C3 C2 1.379 . S
C3 C4 1.390 1_556 S
C3 H30 0.949 . S
C4 C3 1.390 1_554 S
C4 C5 1.357 . S
C5 C4 1.357 . S
C5 C6 1.370 . S
C5 H31 0.950 . S
C6 N1 1.307 . S
C6 C5 1.370 . S
C6 H24 0.948 . S
Zn7 N1 2.020 . S
Zn7 O16 2.039 1_554 S
Zn7 O22 2.034 . S
Zn7 O26 2.025 . S
Zn7 O28 2.024 1_554 S
C8 O27 1.246 . S
C8 O28 1.249 . S
N9 C10 1.307 1_554 S
N9 C11 1.333 . S
N9 Zn15 2.020 . S
C10 N9 1.307 1_556 S
C10 C14 1.370 . S
C10 H21 0.948 . S
C11 N9 1.333 . S
C11 C12 1.379 . S
C11 H19 0.952 . S
C12 C11 1.379 . S
C12 C13 1.390 . S
C12 H32 0.949 . S
C13 C12 1.390 . S
C13 C14 1.357 1_554 S
C14 C10 1.370 . S
C14 C13 1.357 1_556 S
C14 H33 0.950 . S
Zn15 N9 2.020 . S
Zn15 O18 2.025 1_554 S
Zn15 O23 2.024 . S
Zn15 O25 2.039 . S
Zn15 O27 2.034 1_554 S
O16 C0 1.251 . S
O16 Zn7 2.039 1_556 S
C17 O22 1.246 . S
C17 O23 1.249 . S
O18 C0 1.254 . S
O18 Zn15 2.025 1_556 S
H19 C11 0.952 . S
H20 C2 0.952 . S
H21 C10 0.948 . S
O22 Zn7 2.034 . S
O22 C17 1.246 . S
O23 Zn15 2.024 . S
O23 C17 1.249 . S
H24 C6 0.948 . S
O25 Zn15 2.039 . S
O25 C29 1.251 . S
O26 Zn7 2.025 . S
O26 C29 1.254 . S
O27 C8 1.246 . S
O27 Zn15 2.034 1_556 S
O28 Zn7 2.024 1_556 S
O28 C8 1.249 . S
C29 O25 1.251 . S
C29 O26 1.254 . S
H30 C3 0.949 . S
H31 C5 0.950 . S
H32 C12 0.949 . S
H33 C14 0.950 . S
C34 O50 1.251 . S
C34 O52 1.254 . S
N35 C36 1.333 . S
N35 C40 1.307 1_455 S
N35 Zn41 2.020 . S
C36 N35 1.333 . S
C36 C37 1.379 . S
C36 H54 0.952 . S
C37 C36 1.379 . S
C37 C38 1.390 . S
C37 H64 0.949 . S
C38 C37 1.390 . S
C38 C39 1.357 1_455 S
C39 C38 1.357 1_655 S
C39 C40 1.370 . S
C39 H65 0.950 . S
C40 N35 1.307 1_655 S
C40 C39 1.370 . S
C40 H58 0.948 . S
Zn41 N35 2.020 . S
Zn41 O50 2.039 . S
Zn41 O56 2.034 . S
Zn41 O60 2.025 1_455 S
Zn41 O62 2.024 1_455 S
C42 O61 1.246 . S
C42 O62 1.249 . S
N43 C44 1.307 . S
N43 C45 1.347 . S
N43 Zn49 2.020 . S
C44 N43 1.307 . S
C44 C48 1.370 . S
C44 H55 0.948 . S
C45 N43 1.347 . S
C45 C46 1.379 1_455 S
C45 H53 0.938 1_455 S
C46 C45 1.379 1_655 S
C46 C47 1.390 1_655 S
C46 H66 0.949 . S
C47 C46 1.390 1_455 S
C47 C48 1.357 . S
C48 C44 1.370 . S
C48 C47 1.357 . S
C48 H67 0.950 . S
Zn49 N43 2.020 . S
Zn49 O52 2.025 . S
Zn49 O57 2.024 . S
Zn49 O59 2.039 1_455 S
Zn49 O61 2.034 1_455 S
O50 C34 1.251 . S
O50 Zn41 2.039 . S
C51 O56 1.246 . S
C51 O57 1.249 . S
O52 C34 1.254 . S
O52 Zn49 2.025 . S
H53 C45 0.938 1_655 S
H54 C36 0.952 . S
H55 C44 0.948 . S
O56 Zn41 2.034 . S
O56 C51 1.246 . S
O57 Zn49 2.024 . S
O57 C51 1.249 . S
H58 C40 0.948 . S
O59 Zn49 2.039 1_655 S
O59 C63 1.251 . S
O60 Zn41 2.025 1_655 S
O60 C63 1.254 . S
O61 C42 1.246 . S
O61 Zn49 2.034 1_655 S
O62 Zn41 2.024 1_655 S
O62 C42 1.249 . S
C63 O59 1.251 . S
C63 O60 1.254 . S
H64 C37 0.949 . S
H65 C39 0.950 . S
H66 C46 0.949 . S
H67 C48 0.950 . S
C68 O84 1.251 . S
C68 O86 1.254 . S
N69 C70 1.333 1_554 S
N69 C74 1.307 1_545 S
N69 Zn75 2.020 . S
C70 N69 1.333 1_556 S
C70 C71 1.379 . S
C70 H88 0.952 . S
C71 C70 1.379 . S
C71 C72 1.390 1_556 S
C71 H98 0.949 . S
C72 C71 1.390 1_554 S
C72 C73 1.357 1_545 S
C73 C72 1.357 1_565 S
C73 C74 1.370 . S
C73 H99 0.950 . S
C74 N69 1.307 1_565 S
C74 C73 1.370 . S
C74 H92 0.948 . S
Zn75 N69 2.020 . S
Zn75 O84 2.039 1_554 S
Zn75 O90 2.034 . S
Zn75 O94 2.025 1_545 S
Zn75 O96 2.024 1_544 S
C76 O95 1.246 . S
C76 O96 1.249 . S
N77 C78 1.307 1_554 S
N77 C79 1.329 . S
N77 Zn83 2.020 . S
C78 N77 1.307 1_556 S
C78 C82 1.370 . S
C78 H89 0.948 . S
C79 N77 1.329 . S
C79 C80 1.380 1_545 S
C79 H87 0.955 1_545 S
C80 C79 1.380 1_565 S
C80 C81 1.390 1_565 S
C80 H100 0.949 . S
C81 C80 1.390 1_545 S
C81 C82 1.357 1_554 S
C82 C78 1.370 . S
C82 C81 1.357 1_556 S
C82 H101 0.950 . S
Zn83 N77 2.020 . S
Zn83 O86 2.025 1_554 S
Zn83 O91 2.024 . S
Zn83 O93 2.039 1_545 S
Zn83 O95 2.034 1_544 S
O84 C68 1.251 . S
O84 Zn75 2.039 1_556 S
C85 O90 1.246 . S
C85 O91 1.249 . S
O86 C68 1.254 . S
O86 Zn83 2.025 1_556 S
H87 C79 0.955 1_565 S
H88 C70 0.952 . S
H89 C78 0.948 . S
O90 Zn75 2.034 . S
O90 C85 1.246 . S
O91 Zn83 2.024 . S
O91 C85 1.249 . S
H92 C74 0.948 . S
O93 Zn83 2.039 1_565 S
O93 C97 1.251 . S
O94 Zn75 2.025 1_565 S
O94 C97 1.254 . S
O95 C76 1.246 . S
O95 Zn83 2.034 1_566 S
O96 Zn75 2.024 1_566 S
O96 C76 1.249 . S
C97 O93 1.251 . S
C97 O94 1.254 . S
H98 C71 0.949 . S
H99 C73 0.950 . S
H100 C80 0.949 . S
H101 C82 0.950 . S
C102 O118 1.251 . S
C102 O120 1.254 . S
N103 C104 1.333 . S
N103 C108 1.307 . S
N103 Zn109 2.020 . S
C104 N103 1.333 . S
C104 C105 1.379 . S
C104 H122 0.952 . S
C105 C104 1.379 . S
C105 C106 1.390 . S
C105 H132 0.949 . S
C106 C105 1.390 . S
C106 C107 1.357 . S
C107 C106 1.357 . S
C107 C108 1.370 . S
C107 H133 0.950 . S
C108 N103 1.307 . S
C108 C107 1.370 . S
C108 H126 0.948 . S
Zn109 N103 2.020 . S
Zn109 O118 2.039 . S
Zn109 O124 2.034 . S
Zn109 O128 2.025 . S
Zn109 O130 2.024 . S
C110 O129 1.246 . S
C110 O130 1.249 . S
N111 C112 1.307 . S
N111 C113 1.333 . S
N111 Zn117 2.020 . S
C112 N111 1.307 . S
C112 C116 1.370 . S
C112 H123 0.948 . S
C113 N111 1.333 . S
C113 C114 1.379 . S
C113 H121 0.952 . S
C114 C113 1.379 . S
C114 C115 1.390 . S
C114 H134 0.949 . S
C115 C114 1.390 . S
C115 C116 1.357 . S
C116 C112 1.370 . S
C116 C115 1.357 . S
C116 H135 0.950 . S
Zn117 N111 2.020 . S
Zn117 O120 2.025 . S
Zn117 O125 2.024 . S
Zn117 O127 2.039 . S
Zn117 O129 2.034 . S
O118 C102 1.251 . S
O118 Zn109 2.039 . S
C119 O124 1.246 . S
C119 O125 1.249 . S
O120 C102 1.254 . S
O120 Zn117 2.025 . S
H121 C113 0.952 . S
H122 C104 0.952 . S
H123 C112 0.948 . S
O124 Zn109 2.034 . S
O124 C119 1.246 . S
O125 Zn117 2.024 . S
O125 C119 1.249 . S
H126 C108 0.948 . S
O127 Zn117 2.039 . S
O127 C131 1.251 . S
O128 Zn109 2.025 . S
O128 C131 1.254 . S
O129 C110 1.246 . S
O129 Zn117 2.034 . S
O130 Zn109 2.024 . S
O130 C110 1.249 . S
C131 O127 1.251 . S
C131 O128 1.254 . S
H132 C105 0.949 . S
H133 C107 0.950 . S
H134 C114 0.949 . S
H135 C116 0.950 . S
C136 C137 1.349 . S
C136 C138 1.327 . S
C136 H161 0.950 . S
C137 C136 1.349 . S
C137 C153 1.349 1_564 S
C138 C136 1.327 . S
C138 C157 1.429 1_565 S
C138 H162 0.950 . S
C139 C156 1.574 . S
C139 C158 1.368 1_556 S
C139 H163 0.961 . S
H140 C144 0.949 . S
C141 C142 1.349 1_556 S
C141 C143 1.327 . S
C141 H164 0.950 . S
C142 C141 1.349 1_554 S
C142 C154 1.349 . S
C143 C141 1.327 . S
C143 C159 1.429 1_556 S
C143 H165 0.950 . S
C144 H140 0.949 . S
C144 C152 1.574 . S
C144 C160 1.368 . S
H145 C153 0.950 . S
H146 C151 0.950 . S
H147 C152 0.934 1_565 S
H148 C154 0.950 . S
H149 C155 0.950 . S
H150 C156 0.949 . S
C151 H146 0.950 . S
C151 C153 1.327 . S
C151 C157 1.429 1_556 S
C152 C144 1.574 . S
C152 H147 0.934 1_545 S
C152 C158 1.368 . S
C153 C137 1.349 1_546 S
C153 H145 0.950 . S
C153 C151 1.327 . S
C154 C142 1.349 . S
C154 H148 0.950 . S
C154 C155 1.327 . S
C155 H149 0.950 . S
C155 C154 1.327 . S
C155 C159 1.429 . S
C156 C139 1.574 . S
C156 H150 0.949 . S
C156 C160 1.368 1_556 S
C157 C138 1.429 1_545 S
C157 C151 1.429 1_554 S
C157 C158 1.523 1_655 S
C158 C139 1.368 1_554 S
C158 C152 1.368 . S
C158 C157 1.523 1_455 S
C159 C143 1.429 1_554 S
C159 C155 1.429 . S
C159 C160 1.523 . S
C160 C144 1.368 . S
C160 C156 1.368 1_554 S
C160 C159 1.523 . S
H161 C136 0.950 . S
H162 C138 0.950 . S
H163 C139 0.961 . S
H164 C141 0.950 . S
H165 C143 0.950 . S
C166 C167 1.349 . S
C166 C168 1.327 . S
C166 H191 0.950 . S
C167 C166 1.349 . S
C167 C183 1.349 . S
C168 C166 1.327 . S
C168 C187 1.429 . S
C168 H192 0.950 . S
C169 C186 1.574 . S
C169 C188 1.368 . S
C169 H193 0.949 . S
H170 C174 0.966 . S
C171 C172 1.349 1_455 S
C171 C173 1.327 . S
C171 H194 0.950 . S
C172 C171 1.349 1_655 S
C172 C184 1.349 . S
C173 C171 1.327 . S
C173 C189 1.429 . S
C173 H195 0.950 . S
C174 H170 0.966 . S
C174 C182 1.574 . S
C174 C190 1.368 . S
H175 C183 0.950 . S
H176 C181 0.950 . S
H177 C182 0.949 . S
H178 C184 0.950 . S
H179 C185 0.950 . S
H180 C186 0.949 . S
C181 H176 0.950 . S
C181 C183 1.327 . S
C181 C187 1.429 . S
C182 C174 1.574 . S
C182 H177 0.949 . S
C182 C188 1.368 . S
C183 C167 1.349 . S
C183 H175 0.950 . S
C183 C181 1.327 . S
C184 C172 1.349 . S
C184 H178 0.950 . S
C184 C185 1.327 . S
C185 H179 0.950 . S
C185 C184 1.327 . S
C185 C189 1.429 1_655 S
C186 C169 1.574 . S
C186 H180 0.949 . S
C186 C190 1.368 . S
C187 C168 1.429 . S
C187 C181 1.429 . S
C187 C188 1.523 1_565 S
C188 C169 1.368 . S
C188 C182 1.368 . S
C188 C187 1.523 1_545 S
C189 C173 1.429 . S
C189 C185 1.429 1_455 S
C189 C190 1.523 . S
C190 C174 1.368 . S
C190 C186 1.368 . S
C190 C189 1.523 . S
H191 C166 0.950 . S
H192 C168 0.950 . S
H193 C169 0.949 . S
H194 C171 0.950 . S
H195 C173 0.950 . S
C196 C197 1.349 1_556 S
C196 C198 1.327 . S
C196 H221 0.950 1_545 S
C197 C196 1.349 1_554 S
C197 C213 1.349 . S
C198 C196 1.327 . S
C198 C217 1.429 1_556 S
C198 H222 0.952 . S
C199 C216 1.574 . S
C199 C218 1.368 . S
C199 H223 0.949 . S
H200 C204 0.949 . S
C201 C202 1.349 . S
C201 C203 1.327 . S
C201 H224 0.950 . S
C202 C201 1.349 . S
C202 C214 1.349 1_554 S
C203 C201 1.327 . S
C203 C219 1.429 . S
C203 H225 0.950 . S
C204 H200 0.949 . S
C204 C212 1.574 . S
C204 C220 1.368 1_556 S
H205 C213 0.950 . S
H206 C211 0.950 . S
H207 C212 0.949 . S
H208 C214 0.950 . S
H209 C215 0.950 . S
H210 C216 0.949 . S
C211 H206 0.950 . S
C211 C213 1.327 . S
C211 C217 1.429 . S
C212 C204 1.574 . S
C212 H207 0.949 . S
C212 C218 1.368 1_556 S
C213 C197 1.349 . S
C213 H205 0.950 . S
C213 C211 1.327 . S
C214 C202 1.349 1_556 S
C214 H208 0.950 . S
C214 C215 1.327 . S
C215 H209 0.950 . S
C215 C214 1.327 . S
C215 C219 1.429 1_556 S
C216 C199 1.574 . S
C216 H210 0.949 . S
C216 C220 1.368 . S
C217 C198 1.429 1_554 S
C217 C211 1.429 . S
C217 C218 1.523 . S
C218 C199 1.368 . S
C218 C212 1.368 1_554 S
C218 C217 1.523 . S
C219 C203 1.429 . S
C219 C215 1.429 1_554 S
C219 C220 1.523 . S
C220 C204 1.368 1_554 S
C220 C216 1.368 . S
C220 C219 1.523 . S
H221 C196 0.950 1_565 S
H222 C198 0.952 . S
H223 C199 0.949 . S
H224 C201 0.950 . S
H225 C203 0.950 . S
C226 C227 1.349 . S
C226 C228 1.327 . S
C226 H251 0.950 1_455 S
C227 C226 1.349 . S
C227 C243 1.349 . S
C228 C226 1.327 . S
C228 C247 1.429 . S
C228 H252 0.967 . S
C229 C246 1.574 . S
C229 C248 1.368 . S
C229 H253 0.949 . S
H230 C234 0.949 . S
C231 C232 1.349 . S
C231 C233 1.327 . S
C231 H254 0.950 . S
C232 C231 1.349 . S
C232 C244 1.349 . S
C233 C231 1.327 . S
C233 C249 1.429 . S
C233 H255 0.950 . S
C234 H230 0.949 . S
C234 C242 1.574 . S
C234 C250 1.368 . S
H235 C243 0.950 . S
H236 C241 0.950 . S
H237 C242 0.949 . S
H238 C244 0.950 . S
H239 C245 0.950 . S
H240 C246 0.949 . S
C241 H236 0.950 . S
C241 C243 1.327 . S
C241 C247 1.429 . S
C242 C234 1.574 . S
C242 H237 0.949 . S
C242 C248 1.368 . S
C243 C227 1.349 . S
C243 H235 0.950 . S
C243 C241 1.327 . S
C244 C232 1.349 . S
C244 H238 0.950 . S
C244 C245 1.327 . S
C245 H239 0.950 . S
C245 C244 1.327 . S
C245 C249 1.429 . S
C246 C229 1.574 . S
C246 H240 0.949 . S
C246 C250 1.368 . S
C247 C228 1.429 . S
C247 C241 1.429 . S
C247 C248 1.523 . S
C248 C229 1.368 . S
C248 C242 1.368 . S
C248 C247 1.523 . S
C249 C233 1.429 . S
C249 C245 1.429 . S
C249 C250 1.523 . S
C250 C234 1.368 . S
C250 C246 1.368 . S
C250 C249 1.523 . S
H251 C226 0.950 1_655 S
H252 C228 0.967 . S
H253 C229 0.949 . S
H254 C231 0.950 . S
H255 C233 0.950 . S
C256 C257 1.349 . S
C256 C258 1.327 . S
C256 H281 0.950 . S
C257 C256 1.349 . S
C257 C273 1.349 . S
C258 C256 1.327 . S
C258 C277 1.429 . S
C258 H282 0.950 . S
C259 C276 1.574 . S
C259 C278 1.368 . S
C259 H283 0.949 . S
H260 C264 0.949 . S
C261 C262 1.349 . S
C261 C263 1.327 . S
C261 H284 0.950 . S
C262 C261 1.349 . S
C262 C274 1.349 . S
C263 C261 1.327 . S
C263 C279 1.429 . S
C263 H285 0.950 . S
C264 H260 0.949 . S
C264 C272 1.574 . S
C264 C280 1.368 . S
H265 C273 0.950 . S
H266 C271 0.950 . S
H267 C272 0.949 . S
H268 C274 0.950 . S
H269 C275 0.950 . S
H270 C276 0.949 . S
C271 H266 0.950 . S
C271 C273 1.327 . S
C271 C277 1.429 . S
C272 C264 1.574 . S
C272 H267 0.949 . S
C272 C278 1.368 . S
C273 C257 1.349 . S
C273 H265 0.950 . S
C273 C271 1.327 . S
C274 C262 1.349 . S
C274 H268 0.950 . S
C274 C275 1.327 . S
C275 H269 0.950 . S
C275 C274 1.327 . S
C275 C279 1.429 . S
C276 C259 1.574 . S
C276 H270 0.949 . S
C276 C280 1.368 . S
C277 C258 1.429 . S
C277 C271 1.429 . S
C277 C278 1.523 . S
C278 C259 1.368 . S
C278 C272 1.368 . S
C278 C277 1.523 . S
C279 C263 1.429 . S
C279 C275 1.429 . S
C279 C280 1.523 . S
C280 C264 1.368 . S
C280 C276 1.368 . S
C280 C279 1.523 . S
H281 C256 0.950 . S
H282 C258 0.950 . S
H283 C259 0.949 . S
H284 C261 0.950 . S
H285 C263 0.950 . S
C286 C287 1.349 . S
C286 C288 1.327 . S
C286 H311 0.950 . S
C287 C286 1.349 . S
C287 C303 1.349 . S
C288 C286 1.327 . S
C288 C307 1.429 . S
C288 H312 0.950 . S
C289 C306 1.574 . S
C289 C308 1.368 . S
C289 H313 0.949 . S
H290 C294 0.949 . S
C291 C292 1.349 . S
C291 C293 1.327 . S
C291 H314 0.950 . S
C292 C291 1.349 . S
C292 C304 1.349 . S
C293 C291 1.327 . S
C293 C309 1.429 . S
C293 H315 0.950 . S
C294 H290 0.949 . S
C294 C302 1.574 . S
C294 C310 1.368 . S
H295 C303 0.950 . S
H296 C301 0.950 . S
H297 C302 0.949 . S
H298 C304 0.950 . S
H299 C305 0.950 . S
H300 C306 0.949 . S
C301 H296 0.950 . S
C301 C303 1.327 . S
C301 C307 1.429 . S
C302 C294 1.574 . S
C302 H297 0.949 . S
C302 C308 1.368 . S
C303 C287 1.349 . S
C303 H295 0.950 . S
C303 C301 1.327 . S
C304 C292 1.349 . S
C304 H298 0.950 . S
C304 C305 1.327 . S
C305 H299 0.950 . S
C305 C304 1.327 . S
C305 C309 1.429 . S
C306 C289 1.574 . S
C306 H300 0.949 . S
C306 C310 1.368 . S
C307 C288 1.429 . S
C307 C301 1.429 . S
C307 C308 1.523 . S
C308 C289 1.368 . S
C308 C302 1.368 . S
C308 C307 1.523 . S
C309 C293 1.429 . S
C309 C305 1.429 . S
C309 C310 1.523 . S
C310 C294 1.368 . S
C310 C306 1.368 . S
C310 C309 1.523 . S
H311 C286 0.950 . S
H312 C288 0.950 . S
H313 C289 0.949 . S
H314 C291 0.950 . S
H315 C293 0.950 . S
C316 C317 1.349 . S
C316 C318 1.327 . S
C316 H341 0.950 . S
C317 C316 1.349 . S
C317 C333 1.349 . S
C318 C316 1.327 . S
C318 C337 1.429 . S
C318 H342 0.950 . S
C319 C336 1.574 . S
C319 C338 1.368 . S
C319 H343 0.949 . S
H320 C324 0.949 . S
C321 C322 1.349 . S
C321 C323 1.327 . S
C321 H344 0.950 . S
C322 C321 1.349 . S
C322 C334 1.349 . S
C323 C321 1.327 . S
C323 C339 1.429 . S
C323 H345 0.950 . S
C324 H320 0.949 . S
C324 C332 1.574 . S
C324 C340 1.368 . S
H325 C333 0.950 1_455 S
H326 C331 0.950 . S
H327 C332 0.949 . S
H328 C334 0.950 . S
H329 C335 0.950 . S
H330 C336 0.949 . S
C331 H326 0.950 . S
C331 C333 1.327 . S
C331 C337 1.429 . S
C332 C324 1.574 . S
C332 H327 0.949 . S
C332 C338 1.368 . S
C333 C317 1.349 . S
C333 H325 0.950 1_655 S
C333 C331 1.327 . S
C334 C322 1.349 . S
C334 H328 0.950 . S
C334 C335 1.327 . S
C335 H329 0.950 . S
C335 C334 1.327 . S
C335 C339 1.429 . S
C336 C319 1.574 . S
C336 H330 0.949 . S
C336 C340 1.368 . S
C337 C318 1.429 . S
C337 C331 1.429 . S
C337 C338 1.523 . S
C338 C319 1.368 . S
C338 C332 1.368 . S
C338 C337 1.523 . S
C339 C323 1.429 . S
C339 C335 1.429 . S
C339 C340 1.523 . S
C340 C324 1.368 . S
C340 C336 1.368 . S
C340 C339 1.523 . S
H341 C316 0.950 . S
H342 C318 0.950 . S
H343 C319 0.949 . S
H344 C321 0.950 . S
H345 C323 0.950 . S
C346 C347 1.349 . S
C346 C348 1.327 . S
C346 H371 0.950 . S
C347 C346 1.349 . S
C347 C363 1.349 . S
C348 C346 1.327 . S
C348 C367 1.429 . S
C348 H372 0.950 . S
C349 C366 1.574 . S
C349 C368 1.368 . S
C349 H373 0.949 . S
H350 C354 0.949 . S
C351 C352 1.349 . S
C351 C353 1.327 . S
C351 H374 0.950 . S
C352 C351 1.349 . S
C352 C364 1.349 1_565 S
C353 C351 1.327 . S
C353 C369 1.429 . S
C353 H375 0.950 . S
C354 H350 0.949 . S
C354 C362 1.574 . S
C354 C370 1.368 . S
H355 C363 0.950 . S
H356 C361 0.950 . S
H357 C362 0.949 . S
H358 C364 0.950 . S
H359 C365 0.950 . S
H360 C366 0.949 . S
C361 H356 0.950 . S
C361 C363 1.327 . S
C361 C367 1.429 . S
C362 C354 1.574 . S
C362 H357 0.949 . S
C362 C368 1.368 . S
C363 C347 1.349 . S
C363 H355 0.950 . S
C363 C361 1.327 . S
C364 C352 1.349 1_545 S
C364 H358 0.950 . S
C364 C365 1.327 1_545 S
C365 H359 0.950 . S
C365 C364 1.327 1_565 S
C365 C369 1.429 . S
C366 C349 1.574 . S
C366 H360 0.949 . S
C366 C370 1.368 . S
C367 C348 1.429 . S
C367 C361 1.429 . S
C367 C368 1.523 . S
C368 C349 1.368 . S
C368 C362 1.368 . S
C368 C367 1.523 . S
C369 C353 1.429 . S
C369 C365 1.429 . S
C369 C370 1.523 . S
C370 C354 1.368 . S
C370 C366 1.368 . S
C370 C369 1.523 . S
H371 C346 0.950 . S
H372 C348 0.950 . S
H373 C349 0.949 . S
H374 C351 0.950 . S
H375 C353 0.950 . S
C376 C377 1.349 . S
C376 C378 1.327 . S
C376 H401 0.950 . S
C377 C376 1.349 . S
C377 C393 1.349 . S
C378 C376 1.327 . S
C378 C397 1.429 . S
C378 H402 0.950 . S
C379 C396 1.574 . S
C379 C398 1.368 . S
C379 H403 0.949 . S
H380 C384 0.949 . S
C381 C382 1.349 . S
C381 C383 1.327 . S
C381 H404 0.950 . S
C382 C381 1.349 . S
C382 C394 1.349 1_655 S
C383 C381 1.327 . S
C383 C399 1.429 . S
C383 H405 0.950 . S
C384 H380 0.949 . S
C384 C392 1.574 . S
C384 C400 1.368 . S
H385 C393 0.950 . S
H386 C391 0.950 . S
H387 C392 0.949 . S
H388 C394 0.950 . S
H389 C395 0.950 . S
H390 C396 0.949 . S
C391 H386 0.950 . S
C391 C393 1.327 . S
C391 C397 1.429 . S
C392 C384 1.574 . S
C392 H387 0.949 . S
C392 C398 1.368 . S
C393 C377 1.349 . S
C393 H385 0.950 . S
C393 C391 1.327 . S
C394 C382 1.349 1_455 S
C394 H388 0.950 . S
C394 C395 1.327 1_455 S
C395 H389 0.950 . S
C395 C394 1.327 1_655 S
C395 C399 1.429 . S
C396 C379 1.574 . S
C396 H390 0.949 . S
C396 C400 1.368 . S
C397 C378 1.429 . S
C397 C391 1.429 . S
C397 C398 1.523 . S
C398 C379 1.368 . S
C398 C392 1.368 . S
C398 C397 1.523 . S
C399 C383 1.429 . S
C399 C395 1.429 . S
C399 C400 1.523 . S
C400 C384 1.368 . S
C400 C396 1.368 . S
C400 C399 1.523 . S
H401 C376 0.950 . S
H402 C378 0.950 . S
H403 C379 0.949 . S
H404 C381 0.950 . S
H405 C383 0.950 . S
C406 C407 1.349 . S
C406 C408 1.327 . S
C406 H431 0.950 . S
C407 C406 1.349 . S
C407 C423 1.349 1_565 S
C408 C406 1.327 . S
C408 C427 1.429 . S
C408 H432 0.950 . S
C409 C426 1.574 . S
C409 C428 1.368 . S
C409 H433 0.949 . S
H410 C414 0.949 . S
C411 C412 1.349 . S
C411 C413 1.327 . S
C411 H434 0.950 . S
C412 C411 1.349 . S
C412 C424 1.349 . S
C413 C411 1.327 . S
C413 C429 1.429 . S
C413 H435 0.950 . S
C414 H410 0.949 . S
C414 C422 1.574 . S
C414 C430 1.368 . S
H415 C423 0.950 . S
H416 C421 0.950 1_545 S
H417 C422 0.949 . S
H418 C424 0.950 . S
H419 C425 0.950 . S
H420 C426 0.949 . S
C421 H416 0.950 1_565 S
C421 C423 1.327 1_565 S
C421 C427 1.429 . S
C422 C414 1.574 . S
C422 H417 0.949 . S
C422 C428 1.368 . S
C423 C407 1.349 1_545 S
C423 H415 0.950 . S
C423 C421 1.327 1_545 S
C424 C412 1.349 . S
C424 H418 0.950 . S
C424 C425 1.327 . S
C425 H419 0.950 . S
C425 C424 1.327 . S
C425 C429 1.429 . S
C426 C409 1.574 . S
C426 H420 0.949 . S
C426 C430 1.368 . S
C427 C408 1.429 . S
C427 C421 1.429 . S
C427 C428 1.523 . S
C428 C409 1.368 . S
C428 C422 1.368 . S
C428 C427 1.523 . S
C429 C413 1.429 . S
C429 C425 1.429 . S
C429 C430 1.523 . S
C430 C414 1.368 . S
C430 C426 1.368 . S
C430 C429 1.523 . S
H431 C406 0.950 . S
H432 C408 0.950 . S
H433 C409 0.949 . S
H434 C411 0.950 . S
H435 C413 0.950 . S
C436 C437 1.349 . S
C436 C438 1.327 . S
C436 H461 0.950 . S
C437 C436 1.349 . S
C437 C453 1.349 . S
C438 C436 1.327 . S
C438 C457 1.429 . S
C438 H462 0.950 . S
C439 C456 1.574 . S
C439 C458 1.368 . S
C439 H463 0.949 . S
H440 C444 0.949 . S
C441 C442 1.349 . S
C441 C443 1.327 . S
C441 H464 0.950 . S
C442 C441 1.349 . S
C442 C454 1.349 . S
C443 C441 1.327 . S
C443 C459 1.429 . S
C443 H465 0.950 . S
C444 H440 0.949 . S
C444 C452 1.574 . S
C444 C460 1.368 . S
H445 C453 0.950 . S
H446 C451 0.950 . S
H447 C452 0.949 . S
H448 C454 0.950 . S
H449 C455 0.950 . S
H450 C456 0.949 . S
C451 H446 0.950 . S
C451 C453 1.327 . S
C451 C457 1.429 . S
C452 C444 1.574 . S
C452 H447 0.949 . S
C452 C458 1.368 . S
C453 C437 1.349 . S
C453 H445 0.950 . S
C453 C451 1.327 . S
C454 C442 1.349 . S
C454 H448 0.950 . S
C454 C455 1.327 . S
C455 H449 0.950 . S
C455 C454 1.327 . S
C455 C459 1.429 . S
C456 C439 1.574 . S
C456 H450 0.949 . S
C456 C460 1.368 . S
C457 C438 1.429 . S
C457 C451 1.429 . S
C457 C458 1.523 . S
C458 C439 1.368 . S
C458 C452 1.368 . S
C458 C457 1.523 . S
C459 C443 1.429 . S
C459 C455 1.429 . S
C459 C460 1.523 . S
C460 C444 1.368 . S
C460 C456 1.368 . S
C460 C459 1.523 . S
H461 C436 0.950 . S
H462 C438 0.950 . S
H463 C439 0.949 . S
H464 C441 0.950 . S
H465 C443 0.950 . S
C466 C467 1.349 . S
C466 C468 1.327 . S
C466 H491 0.950 . S
C467 C466 1.349 . S
C467 C483 1.349 . S
C468 C466 1.327 . S
C468 C487 1.429 . S
C468 H492 0.950 . S
C469 C486 1.574 . S
C469 C488 1.368 . S
C469 H493 0.949 . S
H470 C474 0.949 . S
C471 C472 1.349 . S
C471 C473 1.327 . S
C471 H494 0.950 . S
C472 C471 1.349 . S
C472 C484 1.349 . S
C473 C471 1.327 . S
C473 C489 1.429 . S
C473 H495 0.950 . S
C474 H470 0.949 . S
C474 C482 1.574 . S
C474 C490 1.368 . S
H475 C483 0.950 . S
H476 C481 0.950 . S
H477 C482 0.949 . S
H478 C484 0.950 . S
H479 C485 0.950 . S
H480 C486 0.949 . S
C481 H476 0.950 . S
C481 C483 1.327 . S
C481 C487 1.429 . S
C482 C474 1.574 . S
C482 H477 0.949 . S
C482 C488 1.368 . S
C483 C467 1.349 . S
C483 H475 0.950 . S
C483 C481 1.327 . S
C484 C472 1.349 . S
C484 H478 0.950 . S
C484 C485 1.327 . S
C485 H479 0.950 . S
C485 C484 1.327 . S
C485 C489 1.429 . S
C486 C469 1.574 . S
C486 H480 0.949 . S
C486 C490 1.368 . S
C487 C468 1.429 . S
C487 C481 1.429 . S
C487 C488 1.523 . S
C488 C469 1.368 . S
C488 C482 1.368 . S
C488 C487 1.523 . S
C489 C473 1.429 . S
C489 C485 1.429 . S
C489 C490 1.523 . S
C490 C474 1.368 . S
C490 C486 1.368 . S
C490 C489 1.523 . S
H491 C466 0.950 . S
H492 C468 0.950 . S
H493 C469 0.949 . S
H494 C471 0.950 . S
H495 C473 0.950 . S
C137 C81 3.013 1_565 S
C142 C13 3.012 . S
C167 C106 3.015 . S
C172 C47 3.015 1_655 S
C197 C72 0.963 . S
C202 C4 0.963 . S
C227 C38 0.963 . S
C232 C115 0.963 . S
C257 C34 1.695 . S
C262 C29 1.697 . S
C287 C63 1.765 . S
C292 C68 1.763 . S
C317 C110 1.749 1_655 S
C322 C97 1.756 . S
C347 C119 1.725 . S
C352 C0 1.713 1_565 S
C377 C76 1.726 . S
C382 C131 1.719 1_655 S
C407 C17 1.755 1_565 S
C412 C102 1.757 . S
C437 C51 1.773 . S
C442 C8 1.785 . S
C467 C85 1.705 . S
C472 C42 1.717 . S
