# Generated by pormake.
# Topology utg, (3)-cn, num edge types: 1
# Building blocks:
#     Node 0, Type 0, BuildingBlock: WUSLED_clean_sbu_0, # of connection points: 3
#     Node 1, Type 0, BuildingBlock: WUSLED_clean_sbu_0, # of connection points: 3
#     Node 2, Type 0, BuildingBlock: WUSLED_clean_sbu_0, # of connection points: 3
#     Node 3, Type 0, BuildingBlock: WUSLED_clean_sbu_0, # of connection points: 3
#     Node 4, Type 0, BuildingBlock: WUSLED_clean_sbu_0, # of connection points: 3
#     Node 5, Type 0, BuildingBlock: WUSLED_clean_sbu_0, # of connection points: 3
#     Node 6, Type 0, BuildingBlock: WUSLED_clean_sbu_0, # of connection points: 3
#     Node 7, Type 0, BuildingBlock: WUSLED_clean_sbu_0, # of connection points: 3
#     Node 8, Type 0, BuildingBlock: WUSLED_clean_sbu_0, # of connection points: 3
#     Node 9, Type 0, BuildingBlock: WUSLED_clean_sbu_0, # of connection points: 3
#     Node 10, Type 0, BuildingBlock: WUSLED_clean_sbu_0, # of connection points: 3
#     Node 11, Type 0, BuildingBlock: WUSLED_clean_sbu_0, # of connection points: 3
#     Node 12, Type 0, BuildingBlock: WUSLED_clean_sbu_0, # of connection points: 3
#     Node 13, Type 0, BuildingBlock: WUSLED_clean_sbu_0, # of connection points: 3
#     Node 14, Type 0, BuildingBlock: WUSLED_clean_sbu_0, # of connection points: 3
#     Node 15, Type 0, BuildingBlock: WUSLED_clean_sbu_0, # of connection points: 3
#     Edge 16, Type (0, 0), BuildingBlock: KIFKEQ_clean_linker_1, # of connection points: 2
#     Edge 17, Type (0, 0), BuildingBlock: KIFKEQ_clean_linker_1, # of connection points: 2
#     Edge 18, Type (0, 0), BuildingBlock: KIFKEQ_clean_linker_1, # of connection points: 2
#     Edge 19, Type (0, 0), BuildingBlock: KIFKEQ_clean_linker_1, # of connection points: 2
#     Edge 20, Type (0, 0), BuildingBlock: KIFKEQ_clean_linker_1, # of connection points: 2
#     Edge 21, Type (0, 0), BuildingBlock: KIFKEQ_clean_linker_1, # of connection points: 2
#     Edge 22, Type (0, 0), BuildingBlock: KIFKEQ_clean_linker_1, # of connection points: 2
#     Edge 23, Type (0, 0), BuildingBlock: KIFKEQ_clean_linker_1, # of connection points: 2
#     Edge 24, Type (0, 0), BuildingBlock: KIFKEQ_clean_linker_1, # of connection points: 2
#     Edge 25, Type (0, 0), BuildingBlock: KIFKEQ_clean_linker_1, # of connection points: 2
#     Edge 26, Type (0, 0), BuildingBlock: KIFKEQ_clean_linker_1, # of connection points: 2
#     Edge 27, Type (0, 0), BuildingBlock: KIFKEQ_clean_linker_1, # of connection points: 2
#     Edge 28, Type (0, 0), BuildingBlock: KIFKEQ_clean_linker_1, # of connection points: 2
#     Edge 29, Type (0, 0), BuildingBlock: KIFKEQ_clean_linker_1, # of connection points: 2
#     Edge 30, Type (0, 0), BuildingBlock: KIFKEQ_clean_linker_1, # of connection points: 2
#     Edge 31, Type (0, 0), BuildingBlock: KIFKEQ_clean_linker_1, # of connection points: 2
#     Edge 32, Type (0, 0), BuildingBlock: KIFKEQ_clean_linker_1, # of connection points: 2
#     Edge 33, Type (0, 0), BuildingBlock: KIFKEQ_clean_linker_1, # of connection points: 2
#     Edge 34, Type (0, 0), BuildingBlock: KIFKEQ_clean_linker_1, # of connection points: 2
#     Edge 35, Type (0, 0), BuildingBlock: KIFKEQ_clean_linker_1, # of connection points: 2
#     Edge 36, Type (0, 0), BuildingBlock: KIFKEQ_clean_linker_1, # of connection points: 2
#     Edge 37, Type (0, 0), BuildingBlock: KIFKEQ_clean_linker_1, # of connection points: 2
#     Edge 38, Type (0, 0), BuildingBlock: KIFKEQ_clean_linker_1, # of connection points: 2
#     Edge 39, Type (0, 0), BuildingBlock: KIFKEQ_clean_linker_1, # of connection points: 2
# Relax obj value: 0.018
# Max RMSD: 0.034
# Mean RMSD: 0.034
data_MOF--net-utg--node1-WUSLED_clean_sbu_0--edge1-KIFKEQ_clean_linker_1
_symmetry_space_group_name_H-M    P1
_symmetry_Int_Tables_number       1
_symmetry_cell_setting            triclinic
loop_
_symmetry_equiv_pos_as_xyz
'x, y, z'
_cell_length_a     53.497369
_cell_length_b     53.49037
_cell_length_c     155.2452
_cell_angle_alpha  89.994017
_cell_angle_beta   90.05875
_cell_angle_gamma 89.925623
loop_
_atom_site_label
_atom_site_type_symbol
_atom_site_fract_x
_atom_site_fract_y
_atom_site_fract_z
_atom_type_partial_charge
C0 C 0.17116 0.19406 0.22865 0.0
C1 C 0.18282 0.21642 0.22618 0.0
C2 C 0.19877 0.2222 0.2408 0.0
C3 C 0.1965 0.23037 0.2322 0.0
C4 C 0.18709 0.19967 0.24319 0.0
C5 C 0.17344 0.18577 0.23717 0.0
U6 U 0.1473 0.18065 0.20581 0.0
O7 O 0.14317 0.14473 0.19899 0.0
O8 O 0.11027 0.1683 0.20139 0.0
C9 C 0.11874 0.14685 0.19845 0.0
C10 C 0.15659 0.17913 0.22244 0.0
C11 C 0.10409 0.12431 0.20059 0.0
C12 C 0.07596 0.10094 0.20992 0.0
C13 C 0.09101 0.12195 0.20839 0.0
C14 C 0.08738 0.08426 0.19596 0.0
C15 C 0.07384 0.08189 0.20369 0.0
C16 C 0.10229 0.10522 0.19444 0.0
C17 C 0.16622 0.22297 0.18708 0.0
C18 C 0.15467 0.21398 0.17224 0.0
C19 C 0.177 0.25209 0.17566 0.0
C20 C 0.1772 0.24539 0.18437 0.0
C21 C 0.1658 0.23645 0.16947 0.0
C22 C 0.15488 0.20732 0.18097 0.0
C23 C 0.16686 0.21617 0.19627 0.0
O24 O 0.13688 0.19025 0.21912 0.0
O25 O 0.16973 0.16673 0.21671 0.0
O26 O 0.17855 0.19521 0.19811 0.0
O27 O 0.14563 0.21871 0.20043 0.0
H28 H 0.18125 0.22312 0.21961 0.0
H29 H 0.20499 0.24774 0.23014 0.0
H30 H 0.18875 0.19256 0.2497 0.0
H31 H 0.16466 0.16849 0.23918 0.0
H32 H 0.06602 0.09959 0.21597 0.0
H33 H 0.09218 0.13643 0.21325 0.0
H34 H 0.08593 0.0702 0.19097 0.0
H35 H 0.11211 0.10675 0.18836 0.0
H36 H 0.14614 0.20135 0.16766 0.0
H37 H 0.18539 0.26968 0.17379 0.0
H38 H 0.18595 0.25775 0.18901 0.0
H39 H 0.14631 0.1899 0.18295 0.0
C40 C 0.82964 0.67417 0.47816 0.0
C41 C 0.80742 0.68615 0.47567 0.0
C42 C 0.80178 0.70215 0.49029 0.0
C43 C 0.79362 0.70002 0.48168 0.0
C44 C 0.82419 0.69018 0.49269 0.0
C45 C 0.83794 0.67634 0.48668 0.0
U46 U 0.84259 0.6498 0.45536 0.0
O47 O 0.87839 0.6449 0.44854 0.0
O48 O 0.85433 0.61246 0.45102 0.0
C49 C 0.8759 0.6205 0.44806 0.0
C50 C 0.84433 0.65928 0.47197 0.0
C51 C 0.89824 0.60551 0.45023 0.0
C52 C 0.92121 0.57693 0.45955 0.0
C53 C 0.90032 0.59218 0.458 0.0
C54 C 0.93832 0.5886 0.44569 0.0
C55 C 0.94042 0.57486 0.45339 0.0
C56 C 0.91747 0.60371 0.44414 0.0
C57 C 0.80057 0.66937 0.43656 0.0
C58 C 0.79982 0.64868 0.4226 0.0
C59 C 0.78047 0.68934 0.4243 0.0
C60 C 0.7874 0.68955 0.43299 0.0
C61 C 0.78651 0.66886 0.419 0.0
C62 C 0.80689 0.64898 0.43129 0.0
C63 C 0.80751 0.66999 0.44575 0.0
O64 O 0.8329 0.63973 0.46869 0.0
O65 O 0.8569 0.67213 0.46621 0.0
O66 O 0.82868 0.68128 0.44754 0.0
O67 O 0.80451 0.64899 0.45003 0.0
H68 H 0.80071 0.68467 0.46911 0.0
H69 H 0.77634 0.70873 0.47961 0.0
H70 H 0.83129 0.69171 0.4992 0.0
H71 H 0.85511 0.66731 0.48871 0.0
H72 H 0.92235 0.56682 0.46558 0.0
H73 H 0.88572 0.59334 0.46281 0.0
H74 H 0.95251 0.5872 0.44074 0.0
H75 H 0.91617 0.61372 0.43809 0.0
H76 H 0.80503 0.63277 0.41867 0.0
H77 H 0.77003 0.70506 0.42176 0.0
H78 H 0.78237 0.70546 0.43695 0.0
H79 H 0.81726 0.63329 0.4339 0.0
C80 C 0.35103 0.32518 0.7288 0.0
C81 C 0.32975 0.31202 0.72608 0.0
C82 C 0.32208 0.29787 0.74081 0.0
C83 C 0.31538 0.29854 0.73203 0.0
C84 C 0.3436 0.31095 0.74345 0.0
C85 C 0.35785 0.32447 0.73751 0.0
U86 U 0.37558 0.33958 0.70607 0.0
O87 O 0.38276 0.37574 0.69977 0.0
O88 O 0.41362 0.34935 0.70187 0.0
C89 C 0.40702 0.37186 0.69932 0.0
C90 C 0.36639 0.33974 0.72271 0.0
C91 C 0.42379 0.39278 0.70181 0.0
C92 C 0.43087 0.43715 0.70454 0.0
C93 C 0.41449 0.41703 0.70328 0.0
C94 C 0.46614 0.40914 0.70308 0.0
C95 C 0.45692 0.43353 0.70429 0.0
C96 C 0.44981 0.38908 0.70181 0.0
C97 C 0.35456 0.30014 0.68682 0.0
C98 C 0.36505 0.31036 0.67199 0.0
C99 C 0.34599 0.27047 0.67534 0.0
C100 C 0.34533 0.27698 0.68406 0.0
C101 C 0.35586 0.28707 0.66919 0.0
C102 C 0.36449 0.3168 0.68074 0.0
C103 C 0.35394 0.30641 0.69606 0.0
O104 O 0.38533 0.32773 0.71925 0.0
O105 O 0.35412 0.35368 0.71714 0.0
O106 O 0.34372 0.32803 0.69804 0.0
O107 O 0.37471 0.30197 0.70032 0.0
H108 H 0.32418 0.31226 0.71936 0.0
H109 H 0.29883 0.28895 0.72976 0.0
H110 H 0.34966 0.31053 0.75011 0.0
H111 H 0.3743 0.33437 0.73973 0.0
H112 H 0.42308 0.45569 0.70536 0.0
H113 H 0.39457 0.42068 0.70321 0.0
H114 H 0.48607 0.40557 0.70298 0.0
H115 H 0.45761 0.37071 0.70061 0.0
H116 H 0.37303 0.32345 0.66744 0.0
H117 H 0.33847 0.25255 0.6734 0.0
H118 H 0.3376 0.26388 0.68867 0.0
H119 H 0.37187 0.33472 0.68276 0.0
C120 C 0.69566 0.85129 0.97872 0.0
C121 C 0.71003 0.83087 0.97592 0.0
C122 C 0.72291 0.82221 0.99074 0.0
C123 C 0.72349 0.81644 0.98188 0.0
C124 C 0.70854 0.84283 0.99346 0.0
C125 C 0.69506 0.85716 0.98751 0.0
U126 U 0.68196 0.87617 0.95598 0.0
O127 O 0.64603 0.88359 0.94955 0.0
O128 O 0.67236 0.91437 0.95179 0.0
C129 C 0.64996 0.90784 0.94914 0.0
C130 C 0.68128 0.86679 0.9726 0.0
C131 C 0.62909 0.92455 0.95164 0.0
C132 C 0.58713 0.93156 0.95727 0.0
C133 C 0.60745 0.91557 0.95574 0.0
C134 C 0.60998 0.96583 0.95085 0.0
C135 C 0.58806 0.95685 0.95477 0.0
C136 C 0.63018 0.94986 0.94929 0.0
C137 C 0.72191 0.85501 0.93685 0.0
C138 C 0.71191 0.86489 0.92194 0.0
C139 C 0.75199 0.84648 0.92551 0.0
C140 C 0.74529 0.84606 0.93421 0.0
C141 C 0.73538 0.85583 0.91924 0.0
C142 C 0.70526 0.86453 0.93067 0.0
C143 C 0.71535 0.85445 0.94607 0.0
O144 O 0.69344 0.88571 0.96921 0.0
O145 O 0.6675 0.85464 0.96697 0.0
O146 O 0.69366 0.84432 0.94797 0.0
O147 O 0.71971 0.87519 0.95034 0.0
H148 H 0.7108 0.82607 0.96915 0.0
H149 H 0.73409 0.80057 0.97955 0.0
H150 H 0.70796 0.84817 1.00018 0.0
H151 H 0.68419 0.87294 0.98978 0.0
H152 H 0.57065 0.92408 0.96039 0.0
H153 H 0.60601 0.89614 0.95763 0.0
H154 H 0.61124 0.98506 0.94872 0.0
H155 H 0.64652 0.9572 0.94604 0.0
H156 H 0.69852 0.87196 0.91731 0.0
H157 H 0.77036 0.83975 0.92371 0.0
H158 H 0.75845 0.8388 0.9389 0.0
H159 H 0.68712 0.8716 0.93259 0.0
C160 C 0.17327 0.3279 0.04713 0.0
C161 C 0.18529 0.30576 0.04967 0.0
C162 C 0.20136 0.29987 0.03508 0.0
C163 C 0.19918 0.29184 0.04369 0.0
C164 C 0.18925 0.32214 0.03261 0.0
C165 C 0.17536 0.33598 0.03858 0.0
U166 U 0.14892 0.34126 0.06989 0.0
O167 O 0.14464 0.37714 0.07673 0.0
O168 O 0.11179 0.35366 0.07421 0.0
C169 C 0.1202 0.37507 0.07719 0.0
C170 C 0.15854 0.34282 0.05329 0.0
C171 C 0.10557 0.39766 0.07504 0.0
C172 C 0.07741 0.42113 0.06571 0.0
C173 C 0.09245 0.40007 0.06724 0.0
C174 C 0.08891 0.43778 0.07967 0.0
C175 C 0.07534 0.44019 0.07194 0.0
C176 C 0.10382 0.41676 0.08119 0.0
C177 C 0.1675 0.29889 0.08867 0.0
C178 C 0.15497 0.30759 0.10343 0.0
C179 C 0.17864 0.27013 0.10017 0.0
C180 C 0.17905 0.27681 0.09146 0.0
C181 C 0.16666 0.28546 0.10628 0.0
C182 C 0.15539 0.31424 0.0947 0.0
C183 C 0.16834 0.30568 0.07949 0.0
O184 O 0.13879 0.3317 0.05655 0.0
O185 O 0.17154 0.3552 0.05907 0.0
O186 O 0.18004 0.32663 0.07769 0.0
O187 O 0.1472 0.30319 0.07525 0.0
H188 H 0.18396 0.29928 0.05626 0.0
H189 H 0.20848 0.27497 0.04585 0.0
H190 H 0.1902 0.32872 0.02602 0.0
H191 H 0.16617 0.35301 0.0365 0.0
H192 H 0.06744 0.42251 0.05966 0.0
H193 H 0.09358 0.38558 0.06238 0.0
H194 H 0.0875 0.45184 0.08466 0.0
H195 H 0.11366 0.41521 0.08727 0.0
H196 H 0.14583 0.31998 0.10795 0.0
H197 H 0.18749 0.25279 0.1021 0.0
H198 H 0.18841 0.26469 0.08688 0.0
H199 H 0.14639 0.3314 0.09266 0.0
C200 C 0.69323 0.67301 0.29682 0.0
C201 C 0.71465 0.686 0.2995 0.0
C202 C 0.72045 0.70249 0.28497 0.0
C203 C 0.72816 0.70059 0.29363 0.0
C204 C 0.69881 0.68956 0.28236 0.0
C205 C 0.68538 0.67497 0.28824 0.0
U206 U 0.67995 0.64733 0.31943 0.0
O207 O 0.64417 0.63892 0.32577 0.0
O208 O 0.67138 0.60886 0.32355 0.0
C209 C 0.64878 0.61479 0.32617 0.0
C210 C 0.67913 0.65702 0.30282 0.0
C211 C 0.6283 0.59748 0.32372 0.0
C212 C 0.58473 0.58955 0.31995 0.0
C213 C 0.60461 0.60626 0.32117 0.0
C214 C 0.612 0.55497 0.32355 0.0
C215 C 0.58806 0.56373 0.32129 0.0
C216 C 0.6318 0.57164 0.32479 0.0
C217 C 0.71873 0.6694 0.33873 0.0
C218 C 0.72053 0.64801 0.35255 0.0
C219 C 0.73678 0.69007 0.35122 0.0
C220 C 0.73016 0.69028 0.34249 0.0
C221 C 0.73217 0.66888 0.35635 0.0
C222 C 0.71377 0.6483 0.34383 0.0
C223 C 0.71235 0.66993 0.32949 0.0
O224 O 0.69174 0.63834 0.30622 0.0
O225 O 0.66501 0.66877 0.30845 0.0
O226 O 0.6904 0.67946 0.32756 0.0
O227 O 0.71752 0.64949 0.32513 0.0
H228 H 0.72096 0.68477 0.30612 0.0
H229 H 0.74453 0.71052 0.29588 0.0
H230 H 0.6925 0.6903 0.27574 0.0
H231 H 0.66894 0.66501 0.28604 0.0
H232 H 0.56653 0.59701 0.31829 0.0
H233 H 0.60116 0.62607 0.32036 0.0
H234 H 0.61539 0.5352 0.3245 0.0
H235 H 0.64977 0.56432 0.32681 0.0
H236 H 0.71644 0.63152 0.35635 0.0
H237 H 0.74594 0.70635 0.3539 0.0
H238 H 0.73414 0.70673 0.33866 0.0
H239 H 0.70476 0.63204 0.34107 0.0
C240 C 0.34978 0.194 0.54701 0.0
C241 C 0.33802 0.21634 0.54948 0.0
C242 C 0.32198 0.22207 0.53487 0.0
C243 C 0.32424 0.23025 0.54346 0.0
C244 C 0.33377 0.19956 0.53247 0.0
C245 C 0.34751 0.18571 0.53849 0.0
U246 U 0.37406 0.18089 0.56981 0.0
O247 O 0.37832 0.14506 0.5767 0.0
O248 O 0.41117 0.1685 0.57417 0.0
C249 C 0.40276 0.14711 0.57717 0.0
C250 C 0.36445 0.17913 0.55321 0.0
C251 C 0.41736 0.12452 0.57501 0.0
C252 C 0.4451 0.10094 0.56559 0.0
C253 C 0.43008 0.12198 0.56714 0.0
C254 C 0.43439 0.08456 0.57965 0.0
C255 C 0.44756 0.08203 0.57186 0.0
C256 C 0.41949 0.10557 0.5812 0.0
C257 C 0.35564 0.22362 0.58852 0.0
C258 C 0.36432 0.21353 0.60351 0.0
C259 C 0.34842 0.25451 0.59973 0.0
C260 C 0.34799 0.24758 0.59104 0.0
C261 C 0.3565 0.23755 0.60609 0.0
C262 C 0.36394 0.20665 0.5948 0.0
C263 C 0.3548 0.21665 0.57934 0.0
O264 O 0.38423 0.19023 0.55646 0.0
O265 O 0.3514 0.16688 0.559 0.0
O266 O 0.34301 0.19573 0.57756 0.0
O267 O 0.37593 0.21905 0.57512 0.0
H268 H 0.33958 0.22305 0.55604 0.0
H269 H 0.31568 0.2476 0.54552 0.0
H270 H 0.33213 0.19245 0.52597 0.0
H271 H 0.35637 0.16844 0.53648 0.0
H272 H 0.45476 0.09946 0.55948 0.0
H273 H 0.42864 0.13635 0.56225 0.0
H274 H 0.4361 0.07062 0.58467 0.0
H275 H 0.40996 0.10723 0.58733 0.0
H276 H 0.37037 0.19988 0.60822 0.0
H277 H 0.34267 0.27328 0.60144 0.0
H278 H 0.34166 0.26097 0.58627 0.0
H279 H 0.36997 0.18805 0.59297 0.0
C280 C 0.82539 0.85212 0.79675 0.0
C281 C 0.81166 0.83122 0.79948 0.0
C282 C 0.79828 0.82312 0.78468 0.0
C283 C 0.79828 0.81683 0.7935 0.0
C284 C 0.81196 0.84424 0.78203 0.0
C285 C 0.82537 0.85853 0.788 0.0
U286 U 0.83918 0.87691 0.8195 0.0
O287 O 0.87514 0.8841 0.82592 0.0
O288 O 0.84894 0.91506 0.82367 0.0
C289 C 0.87132 0.90837 0.82632 0.0
C290 C 0.8398 0.86752 0.80288 0.0
C291 C 0.89227 0.92494 0.82381 0.0
C292 C 0.93436 0.9316 0.81826 0.0
C293 C 0.91398 0.91574 0.8198 0.0
C294 C 0.91144 0.96616 0.8245 0.0
C295 C 0.93343 0.95696 0.82067 0.0
C296 C 0.89117 0.95032 0.82607 0.0
C297 C 0.79915 0.85607 0.83863 0.0
C298 C 0.80942 0.86528 0.85357 0.0
C299 C 0.76875 0.8484 0.84995 0.0
C300 C 0.77547 0.84788 0.84125 0.0
C301 C 0.78564 0.85708 0.85623 0.0
C302 C 0.81608 0.86487 0.84484 0.0
C303 C 0.80571 0.85545 0.82942 0.0
O304 O 0.82771 0.88651 0.80627 0.0
O305 O 0.85355 0.85529 0.8085 0.0
O306 O 0.82734 0.84515 0.82751 0.0
O307 O 0.80143 0.87621 0.82514 0.0
H308 H 0.81137 0.82599 0.80622 0.0
H309 H 0.78822 0.80058 0.79578 0.0
H310 H 0.81207 0.84999 0.77534 0.0
H311 H 0.83572 0.87468 0.78577 0.0
H312 H 0.9509 0.92396 0.81522 0.0
H313 H 0.91544 0.89625 0.81798 0.0
H314 H 0.91016 0.98546 0.82656 0.0
H315 H 0.87478 0.95782 0.82925 0.0
H316 H 0.82276 0.87235 0.85822 0.0
H317 H 0.75042 0.84166 0.85178 0.0
H318 H 0.76216 0.84102 0.83654 0.0
H319 H 0.83441 0.87145 0.84294 0.0
C320 C 0.6718 0.69618 0.72817 0.0
C321 C 0.69432 0.70775 0.72579 0.0
C322 C 0.6995 0.72414 0.74036 0.0
C323 C 0.70809 0.72151 0.73183 0.0
C324 C 0.67679 0.71272 0.74267 0.0
C325 C 0.66315 0.69886 0.73665 0.0
U326 U 0.64811 0.68126 0.70537 0.0
O327 O 0.64368 0.64492 0.69884 0.0
O328 O 0.61097 0.66896 0.70101 0.0
C329 C 0.61925 0.64715 0.69832 0.0
C330 C 0.6572 0.68102 0.72201 0.0
C331 C 0.60445 0.62477 0.70065 0.0
C332 C 0.57089 0.60433 0.70858 0.0
C333 C 0.58603 0.62529 0.70711 0.0
C334 C 0.59277 0.58187 0.69734 0.0
C335 C 0.57394 0.58242 0.70366 0.0
C336 C 0.60777 0.60281 0.69585 0.0
C337 C 0.66766 0.72229 0.68632 0.0
C338 C 0.64845 0.71997 0.67213 0.0
C339 C 0.68586 0.74469 0.67424 0.0
C340 C 0.68619 0.73796 0.68294 0.0
C341 C 0.66691 0.73591 0.66871 0.0
C342 C 0.64886 0.71319 0.68085 0.0
C343 C 0.66817 0.71584 0.69554 0.0
O344 O 0.63761 0.69207 0.71859 0.0
O345 O 0.67014 0.66786 0.71641 0.0
O346 O 0.67958 0.69484 0.69751 0.0
O347 O 0.64702 0.71893 0.69971 0.0
H348 H 0.70129 0.70611 0.71926 0.0
H349 H 0.72533 0.73031 0.72981 0.0
H350 H 0.66977 0.71413 0.7492 0.0
H351 H 0.64584 0.69005 0.73863 0.0
H352 H 0.55675 0.6053 0.71356 0.0
H353 H 0.58303 0.64197 0.71092 0.0
H354 H 0.59542 0.5655 0.69334 0.0
H355 H 0.62167 0.60201 0.69078 0.0
H356 H 0.63343 0.71306 0.66811 0.0
H357 H 0.70063 0.7566 0.67182 0.0
H358 H 0.70094 0.74505 0.68706 0.0
H359 H 0.6344 0.701 0.68333 0.0
C360 C 0.32801 0.17244 0.97876 0.0
C361 C 0.30553 0.18402 0.97632 0.0
C362 C 0.30001 0.20019 0.99092 0.0
C363 C 0.29166 0.19777 0.98234 0.0
C364 C 0.32266 0.18859 0.99328 0.0
C365 C 0.33647 0.17487 0.98726 0.0
U366 U 0.34112 0.14838 0.95594 0.0
O367 O 0.37694 0.14408 0.94907 0.0
O368 O 0.35338 0.11127 0.95154 0.0
C369 C 0.3748 0.11965 0.94857 0.0
C370 C 0.34284 0.15778 0.97255 0.0
C371 C 0.39735 0.10493 0.95069 0.0
C372 C 0.42067 0.07638 0.95992 0.0
C373 C 0.39965 0.09151 0.95843 0.0
C374 C 0.43749 0.08836 0.94605 0.0
C375 C 0.43978 0.0745 0.95372 0.0
C376 C 0.41652 0.10336 0.94457 0.0
C377 C 0.29862 0.16729 0.93722 0.0
C378 C 0.30715 0.15498 0.92244 0.0
C379 C 0.26973 0.17859 0.92578 0.0
C380 C 0.27651 0.17888 0.93448 0.0
C381 C 0.28499 0.16669 0.91963 0.0
C382 C 0.3139 0.15528 0.93116 0.0
C383 C 0.30551 0.168 0.9464 0.0
O384 O 0.33167 0.13808 0.96927 0.0
O385 O 0.35519 0.17085 0.96679 0.0
O386 O 0.3265 0.17962 0.9482 0.0
O387 O 0.303 0.14681 0.9506 0.0
H388 H 0.29869 0.18234 0.96977 0.0
H389 H 0.27421 0.20619 0.98031 0.0
H390 H 0.32991 0.19036 0.99976 0.0
H391 H 0.35385 0.16616 0.98925 0.0
H392 H 0.42195 0.06617 0.96593 0.0
H393 H 0.38512 0.09248 0.96327 0.0
H394 H 0.4516 0.08712 0.94108 0.0
H395 H 0.41505 0.11344 0.93853 0.0
H396 H 0.31949 0.1459 0.91788 0.0
H397 H 0.25236 0.18746 0.92388 0.0
H398 H 0.26444 0.18816 0.93909 0.0
H399 H 0.33109 0.14625 0.93317 0.0
C400 C 0.849 0.82838 0.22884 0.0
C401 C 0.83755 0.8058 0.22648 0.0
C402 C 0.82001 0.80149 0.24093 0.0
C403 C 0.82319 0.79247 0.23247 0.0
C404 C 0.8313 0.82434 0.24319 0.0
C405 C 0.84564 0.8376 0.23721 0.0
U406 U 0.87498 0.84078 0.20619 0.0
O407 O 0.88307 0.87634 0.19966 0.0
O408 O 0.91346 0.84968 0.20217 0.0
C409 C 0.90728 0.87207 0.19939 0.0
C410 C 0.8649 0.84232 0.22276 0.0
C411 C 0.92409 0.89283 0.20188 0.0
C412 C 0.93131 0.93464 0.20762 0.0
C413 C 0.91527 0.91439 0.20609 0.0
C414 C 0.96532 0.91186 0.20097 0.0
C415 C 0.95648 0.93372 0.20499 0.0
C416 C 0.94929 0.89173 0.19942 0.0
C417 C 0.85387 0.80073 0.18709 0.0
C418 C 0.87383 0.80213 0.17303 0.0
C419 C 0.83565 0.77851 0.17497 0.0
C420 C 0.83508 0.78548 0.18365 0.0
C421 C 0.85509 0.78663 0.16954 0.0
C422 C 0.8732 0.80914 0.18172 0.0
C423 C 0.85306 0.80752 0.19628 0.0
O424 O 0.8838 0.82978 0.2195 0.0
O425 O 0.85305 0.85597 0.21701 0.0
O426 O 0.84322 0.82946 0.19804 0.0
O427 O 0.87353 0.80291 0.2007 0.0
H428 H 0.83994 0.79837 0.22004 0.0
H429 H 0.81501 0.77485 0.23052 0.0
H430 H 0.82893 0.8321 0.24958 0.0
H431 H 0.85425 0.85506 0.23914 0.0
H432 H 0.92396 0.95107 0.21081 0.0
H433 H 0.89592 0.91581 0.20808 0.0
H434 H 0.98446 0.9106 0.19875 0.0
H435 H 0.95649 0.87544 0.19609 0.0
H436 H 0.88922 0.80853 0.16908 0.0
H437 H 0.82067 0.76695 0.17249 0.0
H438 H 0.81994 0.77892 0.18769 0.0
H439 H 0.88787 0.82098 0.18427 0.0
C440 C 0.19544 0.35079 0.47879 0.0
C441 C 0.21752 0.33862 0.47628 0.0
C442 C 0.22291 0.32204 0.49083 0.0
C443 C 0.23113 0.32437 0.48224 0.0
C444 C 0.20058 0.3341 0.49325 0.0
C445 C 0.18702 0.34832 0.48729 0.0
U446 U 0.1821 0.37604 0.45609 0.0
O447 O 0.14625 0.38362 0.44963 0.0
O448 O 0.17265 0.41431 0.45194 0.0
C449 C 0.15026 0.40786 0.44926 0.0
C450 C 0.18115 0.36642 0.4727 0.0
C451 C 0.1294 0.42461 0.45175 0.0
C452 C 0.08743 0.43167 0.45735 0.0
C453 C 0.10772 0.41566 0.45583 0.0
C454 C 0.11036 0.46591 0.45095 0.0
C455 C 0.08841 0.45696 0.45485 0.0
C456 C 0.13055 0.44991 0.4494 0.0
C457 C 0.22185 0.35481 0.43696 0.0
C458 C 0.21344 0.36822 0.42227 0.0
C459 C 0.24966 0.34249 0.42534 0.0
C460 C 0.2432 0.34217 0.43407 0.0
C461 C 0.23485 0.35547 0.41931 0.0
C462 C 0.20701 0.36789 0.43101 0.0
C463 C 0.2154 0.3542 0.44618 0.0
O464 O 0.19339 0.38533 0.46933 0.0
O465 O 0.16746 0.35432 0.46704 0.0
O466 O 0.19366 0.34417 0.44806 0.0
O467 O 0.21984 0.3749 0.45046 0.0
H468 H 0.22432 0.34033 0.46973 0.0
H469 H 0.24835 0.31559 0.48017 0.0
H470 H 0.19342 0.33241 0.49974 0.0
H471 H 0.16996 0.35749 0.48933 0.0
H472 H 0.07091 0.42422 0.46045 0.0
H473 H 0.10624 0.39623 0.45772 0.0
H474 H 0.11168 0.48515 0.44882 0.0
H475 H 0.14692 0.45723 0.44616 0.0
H476 H 0.20145 0.37816 0.41781 0.0
H477 H 0.26647 0.3328 0.42334 0.0
H478 H 0.25494 0.33207 0.43858 0.0
H479 H 0.19043 0.37777 0.43314 0.0
C480 C 0.67268 0.82806 0.54633 0.0
C481 C 0.68485 0.80595 0.54882 0.0
C482 C 0.70169 0.80091 0.5343 0.0
C483 C 0.69923 0.79249 0.54286 0.0
C484 C 0.68965 0.82329 0.5319 0.0
C485 C 0.6753 0.83668 0.53786 0.0
U486 U 0.64696 0.84085 0.56898 0.0
O487 O 0.63884 0.8765 0.57547 0.0
O488 O 0.60851 0.84977 0.57306 0.0
C489 C 0.61465 0.87219 0.5758 0.0
C490 C 0.65681 0.84212 0.5524 0.0
C491 C 0.59771 0.8929 0.57332 0.0
C492 C 0.5902 0.93461 0.56752 0.0
C493 C 0.60633 0.91437 0.56902 0.0
C494 C 0.55649 0.91198 0.57437 0.0
C495 C 0.56513 0.93376 0.57026 0.0
C496 C 0.5726 0.89186 0.57589 0.0
C497 C 0.6684 0.80118 0.58814 0.0
C498 C 0.64808 0.80211 0.60215 0.0
C499 C 0.68721 0.77989 0.60037 0.0
C500 C 0.6877 0.78671 0.59167 0.0
C501 C 0.66732 0.78738 0.60573 0.0
C502 C 0.64864 0.80898 0.59344 0.0
C503 C 0.66912 0.80779 0.57893 0.0
O504 O 0.63799 0.82962 0.55571 0.0
O505 O 0.66868 0.85587 0.5581 0.0
O506 O 0.67888 0.8297 0.57712 0.0
O507 O 0.64864 0.80307 0.57454 0.0
H508 H 0.68302 0.79898 0.55534 0.0
H509 H 0.708 0.77524 0.54492 0.0
H510 H 0.69145 0.83059 0.52543 0.0
H511 H 0.66612 0.85377 0.53583 0.0
H512 H 0.5974 0.95098 0.56426 0.0
H513 H 0.62561 0.91575 0.56694 0.0
H514 H 0.53743 0.91077 0.57668 0.0
H515 H 0.56556 0.87564 0.57929 0.0
H516 H 0.63234 0.80801 0.60604 0.0
H517 H 0.70257 0.76895 0.60292 0.0
H518 H 0.70318 0.78063 0.58769 0.0
H519 H 0.63357 0.82023 0.59083 0.0
C520 C 0.19499 0.1711 0.79713 0.0
C521 C 0.20724 0.1932 0.79959 0.0
C522 C 0.22291 0.19879 0.78495 0.0
C523 C 0.22097 0.20697 0.79354 0.0
C524 C 0.21083 0.17648 0.78256 0.0
C525 C 0.19698 0.16283 0.78859 0.0
U526 U 0.18061 0.14759 0.81996 0.0
O527 O 0.14449 0.14346 0.82664 0.0
O528 O 0.16822 0.11057 0.82438 0.0
C529 C 0.14666 0.11904 0.82723 0.0
C530 C 0.17988 0.15655 0.80331 0.0
C531 C 0.12422 0.10429 0.82505 0.0
C532 C 0.10124 0.0756 0.81579 0.0
C533 C 0.12221 0.09069 0.81733 0.0
C534 C 0.08389 0.08797 0.82955 0.0
C535 C 0.08187 0.07394 0.82191 0.0
C536 C 0.10481 0.10294 0.83109 0.0
C537 C 0.22232 0.16698 0.83883 0.0
C538 C 0.21317 0.15543 0.85364 0.0
C539 C 0.25125 0.17786 0.8503 0.0
C540 C 0.24466 0.17804 0.84158 0.0
C541 C 0.23558 0.1666 0.85646 0.0
C542 C 0.20661 0.15561 0.8449 0.0
C543 C 0.21574 0.16744 0.82962 0.0
O544 O 0.19091 0.1369 0.80671 0.0
O545 O 0.16694 0.16957 0.80894 0.0
O546 O 0.19479 0.17902 0.82768 0.0
O547 O 0.21848 0.14615 0.82551 0.0
H548 H 0.20614 0.19986 0.80617 0.0
H549 H 0.2303 0.22389 0.79562 0.0
H550 H 0.21171 0.16977 0.77599 0.0
H551 H 0.18766 0.14585 0.78656 0.0
H552 H 0.10017 0.06526 0.80981 0.0
H553 H 0.13693 0.0915 0.81256 0.0
H554 H 0.06958 0.0869 0.83446 0.0
H555 H 0.10606 0.11315 0.8371 0.0
H556 H 0.20052 0.14685 0.85821 0.0
H557 H 0.26881 0.18629 0.8522 0.0
H558 H 0.25707 0.1868 0.83697 0.0
H559 H 0.18926 0.14698 0.84289 0.0
C560 C 0.85229 0.6967 0.04694 0.0
C561 C 0.82921 0.70714 0.04934 0.0
C562 C 0.82356 0.72407 0.03486 0.0
C563 C 0.81493 0.7206 0.04334 0.0
C564 C 0.84677 0.71369 0.03252 0.0
C565 C 0.86093 0.70013 0.0385 0.0
U566 U 0.87669 0.68213 0.06972 0.0
O567 O 0.88427 0.646 0.07597 0.0
O568 O 0.91489 0.67266 0.07396 0.0
C569 C 0.90847 0.65009 0.07647 0.0
C570 C 0.86769 0.68219 0.05307 0.0
C571 C 0.92537 0.62942 0.07391 0.0
C572 C 0.93266 0.58769 0.06811 0.0
C573 C 0.91658 0.60791 0.06967 0.0
C574 C 0.96666 0.61038 0.07479 0.0
C575 C 0.95785 0.58857 0.07074 0.0
C576 C 0.95059 0.63049 0.07637 0.0
C577 C 0.85471 0.72099 0.08901 0.0
C578 C 0.87445 0.71946 0.10312 0.0
C579 C 0.8358 0.74241 0.10118 0.0
C580 C 0.83552 0.73573 0.09246 0.0
C581 C 0.85536 0.73452 0.10662 0.0
C582 C 0.8741 0.71273 0.0944 0.0
C583 C 0.85436 0.71478 0.07976 0.0
O584 O 0.88646 0.6943 0.05658 0.0
O585 O 0.85556 0.66798 0.05857 0.0
O586 O 0.84453 0.69304 0.07775 0.0
O587 O 0.87507 0.71957 0.07553 0.0
H588 H 0.82224 0.7049 0.05584 0.0
H589 H 0.79728 0.72858 0.04538 0.0
H590 H 0.85386 0.71574 0.02603 0.0
H591 H 0.87867 0.69222 0.03651 0.0
H592 H 0.92533 0.57129 0.0649 0.0
H593 H 0.89722 0.60649 0.06769 0.0
H594 H 0.98581 0.61161 0.07702 0.0
H595 H 0.95777 0.64673 0.07973 0.0
H596 H 0.88994 0.71325 0.10708 0.0
H597 H 0.82056 0.75362 0.10366 0.0
H598 H 0.82032 0.74217 0.08841 0.0
H599 H 0.88909 0.70129 0.09184 0.0
C600 C 0.32627 0.34922 0.29699 0.0
C601 C 0.30403 0.33742 0.29951 0.0
C602 C 0.29823 0.32114 0.28494 0.0
C603 C 0.29011 0.32353 0.29354 0.0
C604 C 0.32058 0.33305 0.28249 0.0
C605 C 0.33442 0.34693 0.28845 0.0
U606 U 0.33973 0.37369 0.31975 0.0
O607 O 0.37567 0.37773 0.32658 0.0
O608 O 0.35237 0.41076 0.32404 0.0
C609 C 0.3738 0.40221 0.32698 0.0
C610 C 0.34122 0.36391 0.30315 0.0
C611 C 0.39653 0.41658 0.32478 0.0
C612 C 0.4186 0.44792 0.31631 0.0
C613 C 0.39741 0.43305 0.31773 0.0
C614 C 0.4385 0.42957 0.32882 0.0
C615 C 0.43934 0.4465 0.32189 0.0
C616 C 0.41734 0.41485 0.33025 0.0
C617 C 0.2972 0.35547 0.33852 0.0
C618 C 0.30654 0.36635 0.35339 0.0
C619 C 0.26753 0.34577 0.34988 0.0
C620 C 0.2743 0.34544 0.34117 0.0
C621 C 0.2836 0.35614 0.35611 0.0
C622 C 0.31327 0.36603 0.34467 0.0
C623 C 0.30407 0.35462 0.32934 0.0
O624 O 0.33018 0.38376 0.30639 0.0
O625 O 0.35354 0.35087 0.30895 0.0
O626 O 0.32496 0.34275 0.32755 0.0
O627 O 0.30169 0.37578 0.32511 0.0
H628 H 0.29749 0.3389 0.30609 0.0
H629 H 0.27317 0.3144 0.29568 0.0
H630 H 0.32723 0.33193 0.27591 0.0
H631 H 0.35152 0.35596 0.28639 0.0
H632 H 0.41872 0.46055 0.31086 0.0
H633 H 0.38162 0.43474 0.31339 0.0
H634 H 0.45393 0.42822 0.33332 0.0
H635 H 0.41703 0.40244 0.33576 0.0
H636 H 0.3195 0.37423 0.35801 0.0
H637 H 0.24957 0.33812 0.3517 0.0
H638 H 0.26162 0.33731 0.33651 0.0
H639 H 0.33106 0.37387 0.34273 0.0
H640 H 0.24728 0.31957 0.28288 0.0
H641 H 0.31576 0.28932 0.27247 0.0
H642 H 0.2233 0.29606 0.27226 0.0
H643 H 0.29182 0.26576 0.26187 0.0
H644 H 0.24314 0.24716 0.23852 0.0
H645 H 0.26666 0.27129 0.2491 0.0
H646 H 0.21121 0.25413 0.26841 0.0
H647 H 0.18718 0.2309 0.25776 0.0
C648 C 0.25723 0.30771 0.27838 0.0
C649 C 0.28349 0.30641 0.27854 0.0
C650 C 0.24346 0.29421 0.27228 0.0
C651 C 0.25558 0.279 0.26617 0.0
C652 C 0.28184 0.2776 0.26636 0.0
C653 C 0.2956 0.29112 0.27246 0.0
C654 C 0.2358 0.24876 0.245 0.0
C655 C 0.21321 0.23703 0.24726 0.0
C656 C 0.24947 0.26236 0.2511 0.0
C657 C 0.24092 0.26464 0.25964 0.0
C658 C 0.21828 0.25301 0.26189 0.0
C659 C 0.20462 0.23941 0.25579 0.0
H660 H 0.74636 0.77638 0.53667 0.0
H661 H 0.69054 0.79234 0.5173 0.0
H662 H 0.77045 0.75274 0.5261 0.0
H663 H 0.71465 0.76881 0.50675 0.0
H664 H 0.77722 0.74682 0.48802 0.0
H665 H 0.75332 0.77057 0.4986 0.0
H666 H 0.76904 0.71425 0.5178 0.0
H667 H 0.79285 0.69047 0.50722 0.0
C668 C 0.7391 0.7747 0.53018 0.0
C669 C 0.71648 0.78635 0.52786 0.0
C670 C 0.75294 0.76113 0.52411 0.0
C671 C 0.74454 0.75887 0.51555 0.0
C672 C 0.72192 0.7705 0.51323 0.0
C673 C 0.70808 0.78402 0.5193 0.0
C674 C 0.7754 0.73936 0.49447 0.0
C675 C 0.78703 0.71669 0.49674 0.0
C676 C 0.76169 0.75301 0.50055 0.0
C677 C 0.75924 0.74437 0.50907 0.0
C678 C 0.77085 0.7217 0.51134 0.0
C679 C 0.78453 0.70804 0.50526 0.0
H680 H 0.31071 0.31083 0.75747 0.0
H681 H 0.29879 0.25247 0.73868 0.0
H682 H 0.28733 0.28693 0.76807 0.0
H683 H 0.27421 0.22917 0.74915 0.0
H684 H 0.25515 0.18125 0.77264 0.0
H685 H 0.27859 0.20517 0.76201 0.0
H686 H 0.24639 0.27354 0.77186 0.0
H687 H 0.22329 0.24958 0.78258 0.0
C688 C 0.30311 0.2929 0.75558 0.0
C689 C 0.30684 0.28359 0.7472 0.0
C690 C 0.28935 0.27931 0.76165 0.0
C691 C 0.27881 0.25603 0.75951 0.0
C692 C 0.28231 0.24684 0.75109 0.0
C693 C 0.29615 0.2604 0.74503 0.0
C694 C 0.25297 0.20138 0.7725 0.0
C695 C 0.23734 0.21348 0.77848 0.0
C696 C 0.26638 0.21513 0.76638 0.0
C697 C 0.26442 0.24136 0.76603 0.0
C698 C 0.24874 0.25343 0.77201 0.0
C699 C 0.23544 0.23969 0.77816 0.0
H700 H 0.76965 0.80146 0.98892 0.0
H701 H 0.70892 0.80842 1.00709 0.0
H702 H 0.79327 0.77713 0.9994 0.0
H703 H 0.73307 0.78525 0.01772 0.0
H704 H 0.77301 0.72187 0.03198 0.0
H705 H 0.7486 0.74471 0.02127 0.0
H706 H 0.81568 0.78186 1.01258 0.0
H707 H 0.84005 0.75873 0.02319 0.0
C708 C 0.76126 0.79777 0.99514 0.0
C709 C 0.73732 0.80701 0.99713 0.0
C710 C 0.77499 0.78407 1.00121 0.0
C711 C 0.76521 0.77928 1.00946 0.0
C712 C 0.74117 0.78832 1.01142 0.0
C713 C 0.72742 0.80194 1.00534 0.0
C714 C 0.7825 0.73505 0.02782 0.0
C715 C 0.80851 0.73841 0.02844 0.0
C716 C 0.7685 0.74819 0.02167 0.0
C717 C 0.78011 0.76515 0.01601 0.0
C718 C 0.80611 0.76862 0.01669 0.0
C719 C 0.82011 0.75539 0.02281 0.0
H720 H 0.20326 0.24889 0.03311 0.0
H721 H 0.23281 0.31738 0.02251 0.0
H722 H 0.22672 0.22488 0.02249 0.0
H723 H 0.25632 0.29339 1.0119 0.0
H724 H 0.27476 0.24445 0.98861 0.0
H725 H 0.25072 0.26804 0.99919 0.0
H726 H 0.26864 0.21291 0.01858 0.0
H727 H 0.29177 0.18881 1.00792 0.0
C728 C 0.21495 0.25884 0.02857 0.0
C729 C 0.21607 0.28511 0.02868 0.0
C730 C 0.22843 0.24505 0.02247 0.0
C731 C 0.24342 0.25715 0.0163 0.0
C732 C 0.24464 0.28343 0.01644 0.0
C733 C 0.23115 0.29721 0.02254 0.0
C734 C 0.27334 0.23719 0.9951 0.0
C735 C 0.28526 0.21468 0.99739 0.0
C736 C 0.25979 0.2509 1.00121 0.0
C737 C 0.25775 0.24247 1.00977 0.0
C738 C 0.26957 0.21989 1.01204 0.0
C739 C 0.28312 0.2062 1.00594 0.0
H740 H 0.70259 0.73323 0.2722 0.0
H741 H 0.7714 0.70587 0.28333 0.0
H742 H 0.72639 0.7571 0.26164 0.0
H743 H 0.79521 0.72965 0.27276 0.0
H744 H 0.83041 0.79462 0.25808 0.0
H745 H 0.80619 0.77168 0.26873 0.0
H746 H 0.75253 0.75169 0.2491 0.0
H747 H 0.77622 0.77556 0.23851 0.0
C748 C 0.7228 0.73215 0.27236 0.0
C749 C 0.73504 0.71757 0.27863 0.0
C750 C 0.73647 0.74584 0.26629 0.0
C751 C 0.76277 0.74531 0.26632 0.0
C752 C 0.775 0.73084 0.27262 0.0
C753 C 0.76133 0.71718 0.27869 0.0
C754 C 0.81329 0.78559 0.25604 0.0
C755 C 0.80528 0.78706 0.24742 0.0
C756 C 0.79954 0.77213 0.26214 0.0
C757 C 0.77737 0.75974 0.2598 0.0
C758 C 0.76934 0.7612 0.25118 0.0
C759 C 0.78312 0.77466 0.24507 0.0
H760 H 0.33353 0.23086 0.51791 0.0
H761 H 0.27749 0.2469 0.53715 0.0
H762 H 0.30973 0.25469 0.50733 0.0
H763 H 0.25372 0.27082 0.52656 0.0
H764 H 0.23184 0.33342 0.50779 0.0
H765 H 0.2555 0.3094 0.51835 0.0
H766 H 0.27113 0.25332 0.49908 0.0
H767 H 0.24736 0.27733 0.4885 0.0
C768 C 0.31603 0.23928 0.51988 0.0
C769 C 0.30747 0.23688 0.52841 0.0
C770 C 0.30236 0.25297 0.51379 0.0
C771 C 0.27976 0.2647 0.51607 0.0
C772 C 0.27122 0.26237 0.52461 0.0
C773 C 0.28488 0.24864 0.53069 0.0
C774 C 0.24009 0.31585 0.50581 0.0
C775 C 0.23759 0.30734 0.49727 0.0
C776 C 0.2537 0.30205 0.51188 0.0
C777 C 0.26523 0.27937 0.50959 0.0
C778 C 0.26281 0.27088 0.50105 0.0
C779 C 0.24917 0.28467 0.49497 0.0
H780 H 0.75227 0.80094 0.78659 0.0
H781 H 0.81199 0.81067 0.76818 0.0
H782 H 0.72903 0.77643 0.77607 0.0
H783 H 0.78819 0.78733 0.75752 0.0
H784 H 0.75015 0.72347 0.74307 0.0
H785 H 0.77404 0.74653 0.75384 0.0
H786 H 0.70593 0.78086 0.76301 0.0
H787 H 0.68207 0.75747 0.75234 0.0
C788 C 0.76051 0.79783 0.78031 0.0
C789 C 0.78406 0.80789 0.77826 0.0
C790 C 0.747 0.78402 0.77422 0.0
C791 C 0.75661 0.77993 0.7659 0.0
C792 C 0.78024 0.78983 0.76388 0.0
C793 C 0.79379 0.80355 0.76997 0.0
C794 C 0.74031 0.73608 0.74735 0.0
C795 C 0.71418 0.73859 0.74684 0.0
C796 C 0.75402 0.74935 0.75353 0.0
C797 C 0.74198 0.76561 0.75934 0.0
C798 C 0.71584 0.76819 0.75878 0.0
C799 C 0.70213 0.75481 0.75263 0.0
H800 H 0.12806 0.23089 0.15762 0.0
H801 H 0.20369 0.25808 0.16022 0.0
H802 H 0.12835 0.24228 0.14241 0.0
H803 H 0.20359 0.27043 0.14512 0.0
H804 H 0.20475 0.26497 0.11579 0.0
H805 H 0.20426 0.25262 0.13089 0.0
H806 H 0.128 0.2785 0.13308 0.0
H807 H 0.12814 0.28989 0.11787 0.0
C808 C 0.14477 0.23926 0.15495 0.0
C809 C 0.16585 0.24353 0.16017 0.0
C810 C 0.14482 0.24608 0.14624 0.0
C811 C 0.16598 0.25734 0.14252 0.0
C812 C 0.18706 0.26157 0.14774 0.0
C813 C 0.18701 0.25475 0.15644 0.0
C814 C 0.18777 0.2678 0.11946 0.0
C815 C 0.16646 0.27838 0.11558 0.0
C816 C 0.18759 0.26099 0.12816 0.0
C817 C 0.1661 0.26458 0.13323 0.0
C818 C 0.14479 0.2752 0.12936 0.0
C819 C 0.14498 0.28202 0.12065 0.0
H820 H 0.7548 0.63092 0.36529 0.0
H821 H 0.72668 0.7061 0.36831 0.0
H822 H 0.76814 0.63075 0.38032 0.0
H823 H 0.73961 0.70585 0.38337 0.0
H824 H 0.78899 0.70713 0.40731 0.0
H825 H 0.77594 0.70689 0.39227 0.0
H826 H 0.75311 0.62977 0.39479 0.0
H827 H 0.76658 0.62996 0.4098 0.0
C828 C 0.7512 0.64732 0.36919 0.0
C829 C 0.73971 0.66854 0.36559 0.0
C830 C 0.75883 0.64722 0.37782 0.0
C831 C 0.75504 0.66831 0.38309 0.0
C832 C 0.7433 0.68944 0.37949 0.0
C833 C 0.73581 0.68958 0.37085 0.0
C834 C 0.78106 0.69016 0.40466 0.0
C835 C 0.77881 0.66857 0.40977 0.0
C836 C 0.77351 0.69002 0.39603 0.0
C837 C 0.76335 0.66833 0.39228 0.0
C838 C 0.76119 0.64671 0.3974 0.0
C839 C 0.76888 0.64681 0.40602 0.0
H840 H 0.39151 0.2261 0.61844 0.0
H841 H 0.32182 0.26568 0.61481 0.0
H842 H 0.39167 0.23814 0.6336 0.0
H843 H 0.32218 0.27791 0.62993 0.0
H844 H 0.3446 0.31634 0.6552 0.0
H845 H 0.34535 0.30464 0.64 0.0
H846 H 0.36868 0.23 0.64696 0.0
H847 H 0.3686 0.24188 0.66213 0.0
C848 C 0.37612 0.2372 0.62088 0.0
C849 C 0.35666 0.2449 0.61537 0.0
C850 C 0.37624 0.24414 0.62957 0.0
C851 C 0.35696 0.25904 0.63299 0.0
C852 C 0.33753 0.26676 0.62749 0.0
C853 C 0.33735 0.25975 0.61881 0.0
C854 C 0.35013 0.2975 0.65348 0.0
C855 C 0.35652 0.28005 0.6599 0.0
C856 C 0.3503 0.29072 0.64477 0.0
C857 C 0.35702 0.26636 0.64225 0.0
C858 C 0.36362 0.24897 0.64866 0.0
C859 C 0.36332 0.25572 0.65737 0.0
H860 H 0.72568 0.89216 0.90716 0.0
H861 H 0.76144 0.82021 0.91021 0.0
H862 H 0.7378 0.89273 0.89202 0.0
H863 H 0.77378 0.82098 0.89511 0.0
H864 H 0.81396 0.84338 0.87018 0.0
H865 H 0.80195 0.84357 0.88535 0.0
H866 H 0.72875 0.87116 0.87841 0.0
H867 H 0.74097 0.87159 0.86327 0.0
C868 C 0.73593 0.87636 0.9046 0.0
C869 C 0.74258 0.85615 0.90995 0.0
C870 C 0.74293 0.87672 0.89592 0.0
C871 C 0.75683 0.85693 0.89235 0.0
C872 C 0.76344 0.83672 0.89768 0.0
C873 C 0.75636 0.8363 0.90635 0.0
C874 C 0.79539 0.84972 0.8719 0.0
C875 C 0.77843 0.85746 0.8655 0.0
C876 C 0.78841 0.84958 0.88059 0.0
C877 C 0.76435 0.85732 0.8831 0.0
C878 C 0.74748 0.86528 0.87671 0.0
C879 C 0.75441 0.86528 0.86802 0.0
H880 H 0.65464 0.70727 0.65464 0.0
H881 H 0.67795 0.78176 0.66176 0.0
H882 H 0.65364 0.71977 0.63955 0.0
H883 H 0.67817 0.79388 0.64665 0.0
H884 H 0.6522 0.81511 0.61968 0.0
H885 H 0.651 0.80253 0.63476 0.0
H886 H 0.68096 0.73019 0.62789 0.0
H887 H 0.68097 0.74232 0.61278 0.0
C888 C 0.65951 0.72633 0.653 0.0
C889 C 0.66639 0.74347 0.65945 0.0
C890 C 0.65925 0.73342 0.64432 0.0
C891 C 0.66589 0.75784 0.64185 0.0
C892 C 0.67267 0.775 0.6483 0.0
C893 C 0.67288 0.76793 0.65698 0.0
C894 C 0.65823 0.79641 0.62137 0.0
C895 C 0.66668 0.77977 0.61498 0.0
C896 C 0.65785 0.78928 0.63004 0.0
C897 C 0.66595 0.76534 0.63258 0.0
C898 C 0.67431 0.74868 0.62619 0.0
C899 C 0.67464 0.75577 0.61751 0.0
H900 H 0.26437 0.2049 0.91021 0.0
H901 H 0.28931 0.12834 0.90796 0.0
H902 H 0.25185 0.20462 0.89512 0.0
H903 H 0.27777 0.1284 0.89276 0.0
H904 H 0.23004 0.12873 0.86825 0.0
H905 H 0.24148 0.12885 0.88346 0.0
H906 H 0.26951 0.20417 0.88088 0.0
H907 H 0.25711 0.20445 0.86578 0.0
C908 C 0.26716 0.18797 0.90651 0.0
C909 C 0.2778 0.16662 0.91033 0.0
C910 C 0.26026 0.18791 0.89781 0.0
C911 C 0.26381 0.1665 0.8927 0.0
C912 C 0.27449 0.14514 0.89652 0.0
C913 C 0.28141 0.14521 0.90522 0.0
C914 C 0.23838 0.14543 0.87095 0.0
C915 C 0.24262 0.16658 0.86577 0.0
C916 C 0.24524 0.14538 0.87965 0.0
C917 C 0.25649 0.1665 0.88342 0.0
C918 C 0.26066 0.18767 0.87824 0.0
C919 C 0.25381 0.18771 0.86954 0.0
H920 H 0.86861 0.81473 0.15548 0.0
H921 H 0.84316 0.74096 0.16262 0.0
H922 H 0.86977 0.80201 0.14042 0.0
H923 H 0.84315 0.72864 0.14752 0.0
H924 H 0.86946 0.70654 0.12066 0.0
H925 H 0.87051 0.7192 0.13574 0.0
H926 H 0.84238 0.79214 0.12868 0.0
H927 H 0.84249 0.77989 0.11358 0.0
C928 C 0.86331 0.79578 0.15385 0.0
C929 C 0.85578 0.77891 0.1603 0.0
C930 C 0.86367 0.78857 0.14518 0.0
C931 C 0.85648 0.76429 0.14272 0.0
C932 C 0.84908 0.74739 0.14917 0.0
C933 C 0.84876 0.75459 0.15783 0.0
C934 C 0.86379 0.72538 0.1223 0.0
C935 C 0.85588 0.74216 0.11587 0.0
C936 C 0.8641 0.73256 0.13098 0.0
C937 C 0.85648 0.75671 0.13346 0.0
C938 C 0.84865 0.7735 0.12702 0.0
C939 C 0.84839 0.76634 0.11835 0.0
H940 H 0.23213 0.39456 0.40787 0.0
H941 H 0.25324 0.31674 0.40962 0.0
H942 H 0.24336 0.3947 0.39265 0.0
H943 H 0.26548 0.31718 0.39452 0.0
H944 H 0.2602 0.31901 0.36522 0.0
H945 H 0.24781 0.3192 0.38031 0.0
H946 H 0.27939 0.39298 0.3833 0.0
H947 H 0.29081 0.39324 0.3681 0.0
C948 C 0.23912 0.37746 0.40502 0.0
C949 C 0.24175 0.35564 0.41 0.0
C950 C 0.24587 0.37762 0.3963 0.0
C951 C 0.2554 0.35597 0.39234 0.0
C952 C 0.25797 0.33414 0.39732 0.0
C953 C 0.25122 0.33397 0.40602 0.0
C954 C 0.26427 0.33541 0.36906 0.0
C955 C 0.27646 0.35614 0.36541 0.0
C956 C 0.25743 0.33539 0.37776 0.0
C957 C 0.26262 0.35608 0.38305 0.0
C958 C 0.27484 0.37682 0.3794 0.0
C959 C 0.28168 0.37684 0.3707 0.0
H960 H 0.02684 0.08116 0.21078 0.0
H961 H 0.08287 0.03285 0.19963 0.0
H962 H 0.99859 0.04557 0.21219 0.0
H963 H 0.05438 0.99756 0.20072 0.0
H964 H 1.00567 0.93411 0.21 0.0
H965 H 0.03402 0.96971 0.21065 0.0
H966 H 0.97385 0.0188 0.20294 0.0
H967 H 0.94549 0.98321 0.20234 0.0
C968 C 0.03323 0.06292 0.2087 0.0
C969 C 0.05713 0.05993 0.20506 0.0
C970 C 0.01691 0.04255 0.20941 0.0
C971 C 0.0241 0.01866 0.20653 0.0
C972 C 0.04823 0.01559 0.20309 0.0
C973 C 0.06451 0.03593 0.20237 0.0
C974 C 0.99847 0.95251 0.20845 0.0
C975 C 0.9733 0.95573 0.20607 0.0
C976 C 0.01475 0.97294 0.20882 0.0
C977 C 1.00632 0.99717 0.20679 0.0
C978 C 0.98096 1.0005 0.20465 0.0
C979 C 0.96466 0.98005 0.2043 0.0
H980 H 0.08787 0.50593 0.46008 0.0
H981 H 0.039 0.44619 0.45196 0.0
H982 H 0.05226 0.53437 0.46071 0.0
H983 H 1.0034 0.47464 0.45255 0.0
H984 H 0.94084 0.52762 0.46033 0.0
H985 H 0.97635 0.49918 0.46179 0.0
H986 H 0.02479 0.55514 0.45071 0.0
H987 H 0.98958 0.58381 0.44957 0.0
C988 C 0.06952 0.49885 0.45843 0.0
C989 C 0.06636 0.47378 0.45593 0.0
C990 C 0.04908 0.51518 0.45878 0.0
C991 C 0.02492 0.5069 0.45662 0.0
C992 C 0.02165 0.48163 0.45436 0.0
C993 C 0.0421 0.46528 0.45403 0.0
C994 C 0.95915 0.53401 0.45835 0.0
C995 C 0.9623 0.558 0.4548 0.0
C996 C 0.97947 0.51758 0.45909 0.0
C997 C 1.00347 0.52477 0.45633 0.0
C998 C 1.00668 0.549 0.45298 0.0
C999 C 0.98639 0.56537 0.45223 0.0
H1000 H 0.52316 0.58241 0.70617 0.0
H1001 H 0.58645 0.53272 0.70372 0.0
H1002 H 0.49521 0.54646 0.70691 0.0
H1003 H 0.55857 0.49681 0.7045 0.0
H1004 H 0.49943 0.44155 0.69491 0.0
H1005 H 0.52765 0.47708 0.69549 0.0
H1006 H 0.48236 0.51055 0.71542 0.0
H1007 H 0.45397 0.47482 0.71484 0.0
C1008 C 0.53117 0.56382 0.70593 0.0
C1009 C 0.55707 0.56049 0.70482 0.0
C1010 C 0.51512 0.54317 0.70635 0.0
C1011 C 0.52457 0.51868 0.70569 0.0
C1012 C 0.55055 0.51538 0.70485 0.0
C1013 C 0.56657 0.536 0.70442 0.0
C1014 C 0.49563 0.45627 0.69952 0.0
C1015 C 0.47444 0.45518 0.70486 0.0
C1016 C 0.51186 0.47671 0.69985 0.0
C1017 C 0.5074 0.4967 0.70553 0.0
C1018 C 0.48623 0.49564 0.7109 0.0
C1019 C 0.46995 0.47514 0.71056 0.0
H1020 H 0.44046 0.02717 0.96058 0.0
H1021 H 0.48886 0.08361 0.94979 0.0
H1022 H 0.47606 0.9988 0.96192 0.0
H1023 H 0.52416 0.05501 0.9508 0.0
H1024 H 0.58752 1.00581 0.96001 0.0
H1025 H 0.55187 0.0342 0.96071 0.0
H1026 H 0.50299 0.97442 0.9526 0.0
H1027 H 0.53863 0.94603 0.95195 0.0
C1028 C 0.45872 0.03363 0.95857 0.0
C1029 C 0.46174 0.05768 0.95505 0.0
C1030 C 0.47909 0.01724 0.95923 0.0
C1031 C 0.50302 0.02452 0.95643 0.0
C1032 C 0.50611 0.0488 0.95311 0.0
C1033 C 0.48576 0.06513 0.95243 0.0
C1034 C 0.56916 0.99872 0.95838 0.0
C1035 C 0.566 0.97364 0.95588 0.0
C1036 C 0.5487 0.01501 0.95878 0.0
C1037 C 0.52452 1.0067 0.95666 0.0
C1038 C 0.52126 0.98143 0.95439 0.0
C1039 C 0.54173 0.96512 0.95401 0.0
H1040 H 1.00702 0.58816 0.06574 0.0
H1041 H 0.94694 0.53907 0.07335 0.0
H1042 H 0.03541 0.55252 0.06505 0.0
H1043 H 0.97534 0.50345 0.07271 0.0
H1044 H 0.0283 0.44105 0.06484 0.0
H1045 H 1.00003 0.47671 0.06345 0.0
H1046 H 0.05587 0.52455 0.07494 0.0
H1047 H 0.08438 0.4892 0.07601 0.0
C1048 C 0.99986 0.56976 0.06727 0.0
C1049 C 0.9747 0.56654 0.06964 0.0
C1050 C 0.01616 0.5493 0.06688 0.0
C1051 C 1.00776 0.52506 0.06888 0.0
C1052 C 0.98242 0.52176 0.07102 0.0
C1053 C 0.9661 0.54222 0.07139 0.0
C1054 C 0.0347 0.45927 0.06693 0.0
C1055 C 0.05862 0.46219 0.07057 0.0
C1056 C 0.01837 0.47968 0.06623 0.0
C1057 C 0.02557 0.50355 0.06912 0.0
C1058 C 0.04972 0.50655 0.07256 0.0
C1059 C 0.06601 0.48617 0.07327 0.0
H1060 H 0.57758 0.52432 0.33192 0.0
H1061 H 0.5494 0.56333 0.30955 0.0
H1062 H 0.54224 0.49588 0.33133 0.0
H1063 H 0.51383 0.53474 0.30898 0.0
H1064 H 0.43991 0.4963 0.31761 0.0
H1065 H 0.47592 0.5242 0.31689 0.0
H1066 H 0.52485 0.46228 0.32287 0.0
H1067 H 0.48889 0.43445 0.32361 0.0
C1068 C 0.56404 0.52663 0.32679 0.0
C1069 C 0.5665 0.54609 0.32075 0.0
C1070 C 0.54371 0.51028 0.32646 0.0
C1071 C 0.52519 0.51288 0.32008 0.0
C1072 C 0.52759 0.53233 0.31403 0.0
C1073 C 0.548 0.54874 0.31436 0.0
C1074 C 0.45839 0.48855 0.31864 0.0
C1075 C 0.46145 0.46314 0.32073 0.0
C1076 C 0.47906 0.50457 0.31823 0.0
C1077 C 0.50332 0.49557 0.3199 0.0
C1078 C 0.50642 0.46999 0.32172 0.0
C1079 C 0.48578 0.45401 0.32214 0.0
H1080 H 0.43884 0.03307 0.57608 0.0
H1081 H 0.49424 0.08115 0.56451 0.0
H1082 H 0.46735 0.99775 0.57492 0.0
H1083 H 0.5225 0.04552 0.56304 0.0
H1084 H 0.57615 0.98328 0.57275 0.0
H1085 H 0.5477 0.01889 0.57222 0.0
H1086 H 0.4873 0.96973 0.56491 0.0
H1087 H 0.51575 0.93411 0.56549 0.0
C1088 C 0.45706 0.03609 0.57324 0.0
C1089 C 0.46427 0.06004 0.57045 0.0
C1090 C 0.47334 0.01573 0.57247 0.0
C1091 C 0.4973 0.01872 0.56889 0.0
C1092 C 0.50431 0.04256 0.56592 0.0
C1093 C 0.48798 0.06295 0.56667 0.0
C1094 C 0.5569 0.98011 0.57089 0.0
C1095 C 0.54824 0.95577 0.56921 0.0
C1096 C 0.54055 1.00057 0.57058 0.0
C1097 C 0.51511 0.99722 0.56858 0.0
C1098 C 0.50664 0.97297 0.56664 0.0
C1099 C 0.52297 0.95253 0.56696 0.0
H1100 H 0.98275 0.94599 0.82369 0.0
H1101 H 0.93421 1.00577 0.81526 0.0
H1102 H 0.01846 0.9742 0.82305 0.0
H1103 H 0.96993 0.03397 0.81458 0.0
H1104 H 0.03268 0.08339 0.82559 0.0
H1105 H 0.99737 0.05493 0.82451 0.0
H1106 H 0.04574 0.99822 0.81378 0.0
H1107 H 0.08134 0.02647 0.81517 0.0
C1108 C 0.97975 0.96503 0.82155 0.0
C1109 C 0.95555 0.97362 0.81958 0.0
C1110 C 1.00026 0.98124 0.82118 0.0
C1111 C 0.99712 1.00646 0.81882 0.0
C1112 C 0.97301 0.01482 0.81659 0.0
C1113 C 0.95251 0.99863 0.81697 0.0
C1114 C 0.03583 0.06483 0.82301 0.0
C1115 C 0.05994 0.0572 0.82053 0.0
C1116 C 0.01548 0.04857 0.8223 0.0
C1117 C 0.01864 0.0242 0.81907 0.0
C1118 C 0.04265 0.01674 0.81639 0.0
C1119 C 0.06303 0.03305 0.81709 0.0
loop_
_geom_bond_atom_site_label_1
_geom_bond_atom_site_label_2
_geom_bond_distance
_geom_bond_site_symmetry_2
_ccdc_geom_bond_type
C0 C1 1.264 . S
C0 C5 1.479 . S
C0 C10 1.465 . S
C1 C0 1.264 . S
C1 C3 1.339 . S
C1 H28 0.931 . S
C2 C3 1.395 . S
C2 C4 1.320 . S
C3 C1 1.339 . S
C3 C2 1.395 . S
C3 H29 0.929 . S
C4 C2 1.320 . S
C4 C5 1.405 . S
C4 H30 0.930 . S
C5 C0 1.479 . S
C5 C4 1.405 . S
C5 H31 0.931 . S
U6 O7 2.454 . S
U6 O8 2.458 . S
U6 C9 2.984 . S
U6 C10 2.847 . S
U6 C23 2.882 . S
U6 O24 2.441 . S
U6 O25 2.420 . S
U6 O26 2.455 . S
U6 O27 2.449 . S
O7 U6 2.454 . S
O7 C9 1.353 . S
O8 U6 2.458 . S
O8 C9 1.286 . S
C9 U6 2.984 . S
C9 O7 1.353 . S
C9 O8 1.286 . S
C9 C11 1.363 . S
C10 C0 1.465 . S
C10 U6 2.847 . S
C10 O24 1.249 . S
C10 O25 1.202 . S
C11 C9 1.363 . S
C11 C13 1.408 . S
C11 C16 1.342 . S
C12 C13 1.310 . S
C12 C15 1.461 . S
C12 H32 0.932 . S
C13 C11 1.408 . S
C13 C12 1.310 . S
C13 H33 0.930 . S
C14 C15 1.474 . S
C14 C16 1.285 . S
C14 H34 0.929 . S
C15 C12 1.461 . S
C15 C14 1.474 . S
C16 C11 1.342 . S
C16 C14 1.285 . S
C16 H35 0.930 . S
C17 C20 1.424 . S
C17 C22 1.245 . S
C17 C23 1.428 . S
C18 C21 1.260 . S
C18 C22 1.477 . S
C18 H36 0.932 . S
C19 C20 1.384 . S
C19 C21 1.479 . S
C19 H37 0.929 . S
C20 C17 1.424 . S
C20 C19 1.384 . S
C20 H38 0.928 . S
C21 C18 1.260 . S
C21 C19 1.479 . S
C22 C17 1.245 . S
C22 C18 1.477 . S
C22 H39 0.932 . S
C23 U6 2.882 . S
C23 C17 1.428 . S
C23 O26 1.301 . S
C23 O27 1.282 . S
O24 U6 2.441 . S
O24 C10 1.249 . S
O25 U6 2.420 . S
O25 C10 1.202 . S
O26 U6 2.455 . S
O26 C23 1.301 . S
O27 U6 2.449 . S
O27 C23 1.282 . S
H28 C1 0.931 . S
H29 C3 0.929 . S
H30 C4 0.930 . S
H31 C5 0.931 . S
H32 C12 0.932 . S
H33 C13 0.930 . S
H34 C14 0.929 . S
H35 C16 0.930 . S
H36 C18 0.932 . S
H37 C19 0.929 . S
H38 C20 0.928 . S
H39 C22 0.932 . S
C40 C41 1.264 . S
C40 C45 1.479 . S
C40 C50 1.465 . S
C41 C40 1.264 . S
C41 C43 1.339 . S
C41 H68 0.931 . S
C42 C43 1.395 . S
C42 C44 1.320 . S
C43 C41 1.339 . S
C43 C42 1.395 . S
C43 H69 0.929 . S
C44 C42 1.320 . S
C44 C45 1.405 . S
C44 H70 0.930 . S
C45 C40 1.479 . S
C45 C44 1.405 . S
C45 H71 0.931 . S
U46 O47 2.454 . S
U46 O48 2.458 . S
U46 C49 2.984 . S
U46 C50 2.847 . S
U46 C63 2.882 . S
U46 O64 2.441 . S
U46 O65 2.420 . S
U46 O66 2.455 . S
U46 O67 2.449 . S
O47 U46 2.454 . S
O47 C49 1.353 . S
O48 U46 2.458 . S
O48 C49 1.286 . S
C49 U46 2.984 . S
C49 O47 1.353 . S
C49 O48 1.286 . S
C49 C51 1.363 . S
C50 C40 1.465 . S
C50 U46 2.847 . S
C50 O64 1.249 . S
C50 O65 1.202 . S
C51 C49 1.363 . S
C51 C53 1.408 . S
C51 C56 1.342 . S
C52 C53 1.310 . S
C52 C55 1.461 . S
C52 H72 0.932 . S
C53 C51 1.408 . S
C53 C52 1.310 . S
C53 H73 0.930 . S
C54 C55 1.474 . S
C54 C56 1.285 . S
C54 H74 0.929 . S
C55 C52 1.461 . S
C55 C54 1.474 . S
C56 C51 1.342 . S
C56 C54 1.285 . S
C56 H75 0.930 . S
C57 C60 1.424 . S
C57 C62 1.245 . S
C57 C63 1.428 . S
C58 C61 1.260 . S
C58 C62 1.477 . S
C58 H76 0.932 . S
C59 C60 1.384 . S
C59 C61 1.479 . S
C59 H77 0.929 . S
C60 C57 1.424 . S
C60 C59 1.384 . S
C60 H78 0.928 . S
C61 C58 1.260 . S
C61 C59 1.479 . S
C62 C57 1.245 . S
C62 C58 1.477 . S
C62 H79 0.932 . S
C63 U46 2.882 . S
C63 C57 1.428 . S
C63 O66 1.301 . S
C63 O67 1.282 . S
O64 U46 2.441 . S
O64 C50 1.249 . S
O65 U46 2.420 . S
O65 C50 1.202 . S
O66 U46 2.455 . S
O66 C63 1.301 . S
O67 U46 2.449 . S
O67 C63 1.282 . S
H68 C41 0.931 . S
H69 C43 0.929 . S
H70 C44 0.930 . S
H71 C45 0.931 . S
H72 C52 0.932 . S
H73 C53 0.930 . S
H74 C54 0.929 . S
H75 C56 0.930 . S
H76 C58 0.932 . S
H77 C59 0.929 . S
H78 C60 0.928 . S
H79 C62 0.932 . S
C80 C81 1.264 . S
C80 C85 1.479 . S
C80 C90 1.465 . S
C81 C80 1.264 . S
C81 C83 1.339 . S
C81 H108 0.931 . S
C82 C83 1.395 . S
C82 C84 1.320 . S
C83 C81 1.339 . S
C83 C82 1.395 . S
C83 H109 0.929 . S
C84 C82 1.320 . S
C84 C85 1.405 . S
C84 H110 0.930 . S
C85 C80 1.479 . S
C85 C84 1.405 . S
C85 H111 0.931 . S
U86 O87 2.454 . S
U86 O88 2.458 . S
U86 C89 2.984 . S
U86 C90 2.847 . S
U86 C103 2.882 . S
U86 O104 2.441 . S
U86 O105 2.420 . S
U86 O106 2.455 . S
U86 O107 2.449 . S
O87 U86 2.454 . S
O87 C89 1.353 . S
O88 U86 2.458 . S
O88 C89 1.286 . S
C89 U86 2.984 . S
C89 O87 1.353 . S
C89 O88 1.286 . S
C89 C91 1.363 . S
C90 C80 1.465 . S
C90 U86 2.847 . S
C90 O104 1.249 . S
C90 O105 1.202 . S
C91 C89 1.363 . S
C91 C93 1.408 . S
C91 C96 1.342 . S
C92 C93 1.310 . S
C92 C95 1.461 . S
C92 H112 0.932 . S
C93 C91 1.408 . S
C93 C92 1.310 . S
C93 H113 0.930 . S
C94 C95 1.474 . S
C94 C96 1.285 . S
C94 H114 0.929 . S
C95 C92 1.461 . S
C95 C94 1.474 . S
C96 C91 1.342 . S
C96 C94 1.285 . S
C96 H115 0.930 . S
C97 C100 1.424 . S
C97 C102 1.245 . S
C97 C103 1.428 . S
C98 C101 1.260 . S
C98 C102 1.477 . S
C98 H116 0.932 . S
C99 C100 1.384 . S
C99 C101 1.479 . S
C99 H117 0.929 . S
C100 C97 1.424 . S
C100 C99 1.384 . S
C100 H118 0.928 . S
C101 C98 1.260 . S
C101 C99 1.479 . S
C102 C97 1.245 . S
C102 C98 1.477 . S
C102 H119 0.932 . S
C103 U86 2.882 . S
C103 C97 1.428 . S
C103 O106 1.301 . S
C103 O107 1.282 . S
O104 U86 2.441 . S
O104 C90 1.249 . S
O105 U86 2.420 . S
O105 C90 1.202 . S
O106 U86 2.455 . S
O106 C103 1.301 . S
O107 U86 2.449 . S
O107 C103 1.282 . S
H108 C81 0.931 . S
H109 C83 0.929 . S
H110 C84 0.930 . S
H111 C85 0.931 . S
H112 C92 0.932 . S
H113 C93 0.930 . S
H114 C94 0.929 . S
H115 C96 0.930 . S
H116 C98 0.932 . S
H117 C99 0.929 . S
H118 C100 0.928 . S
H119 C102 0.932 . S
C120 C121 1.264 . S
C120 C125 1.479 . S
C120 C130 1.465 . S
C121 C120 1.264 . S
C121 C123 1.339 . S
C121 H148 0.931 . S
C122 C123 1.395 . S
C122 C124 1.320 . S
C123 C121 1.339 . S
C123 C122 1.395 . S
C123 H149 0.929 . S
C124 C122 1.320 . S
C124 C125 1.405 . S
C124 H150 0.930 . S
C125 C120 1.479 . S
C125 C124 1.405 . S
C125 H151 0.931 . S
U126 O127 2.454 . S
U126 O128 2.458 . S
U126 C129 2.984 . S
U126 C130 2.847 . S
U126 C143 2.882 . S
U126 O144 2.441 . S
U126 O145 2.420 . S
U126 O146 2.455 . S
U126 O147 2.449 . S
O127 U126 2.454 . S
O127 C129 1.353 . S
O128 U126 2.458 . S
O128 C129 1.286 . S
C129 U126 2.984 . S
C129 O127 1.353 . S
C129 O128 1.286 . S
C129 C131 1.363 . S
C130 C120 1.465 . S
C130 U126 2.847 . S
C130 O144 1.249 . S
C130 O145 1.202 . S
C131 C129 1.363 . S
C131 C133 1.408 . S
C131 C136 1.342 . S
C132 C133 1.310 . S
C132 C135 1.461 . S
C132 H152 0.932 . S
C133 C131 1.408 . S
C133 C132 1.310 . S
C133 H153 0.930 . S
C134 C135 1.474 . S
C134 C136 1.285 . S
C134 H154 0.929 . S
C135 C132 1.461 . S
C135 C134 1.474 . S
C136 C131 1.342 . S
C136 C134 1.285 . S
C136 H155 0.930 . S
C137 C140 1.424 . S
C137 C142 1.245 . S
C137 C143 1.428 . S
C138 C141 1.260 . S
C138 C142 1.477 . S
C138 H156 0.932 . S
C139 C140 1.384 . S
C139 C141 1.479 . S
C139 H157 0.929 . S
C140 C137 1.424 . S
C140 C139 1.384 . S
C140 H158 0.928 . S
C141 C138 1.260 . S
C141 C139 1.479 . S
C142 C137 1.245 . S
C142 C138 1.477 . S
C142 H159 0.932 . S
C143 U126 2.882 . S
C143 C137 1.428 . S
C143 O146 1.301 . S
C143 O147 1.282 . S
O144 U126 2.441 . S
O144 C130 1.249 . S
O145 U126 2.420 . S
O145 C130 1.202 . S
O146 U126 2.455 . S
O146 C143 1.301 . S
O147 U126 2.449 . S
O147 C143 1.282 . S
H148 C121 0.931 . S
H149 C123 0.929 . S
H150 C124 0.930 . S
H151 C125 0.931 . S
H152 C132 0.932 . S
H153 C133 0.930 . S
H154 C134 0.929 . S
H155 C136 0.930 . S
H156 C138 0.932 . S
H157 C139 0.929 . S
H158 C140 0.928 . S
H159 C142 0.932 . S
C160 C161 1.264 . S
C160 C165 1.479 . S
C160 C170 1.465 . S
C161 C160 1.264 . S
C161 C163 1.339 . S
C161 H188 0.931 . S
C162 C163 1.395 . S
C162 C164 1.320 . S
C163 C161 1.339 . S
C163 C162 1.395 . S
C163 H189 0.929 . S
C164 C162 1.320 . S
C164 C165 1.405 . S
C164 H190 0.930 . S
C165 C160 1.479 . S
C165 C164 1.405 . S
C165 H191 0.931 . S
U166 O167 2.454 . S
U166 O168 2.458 . S
U166 C169 2.984 . S
U166 C170 2.847 . S
U166 C183 2.882 . S
U166 O184 2.441 . S
U166 O185 2.420 . S
U166 O186 2.455 . S
U166 O187 2.449 . S
O167 U166 2.454 . S
O167 C169 1.353 . S
O168 U166 2.458 . S
O168 C169 1.286 . S
C169 U166 2.984 . S
C169 O167 1.353 . S
C169 O168 1.286 . S
C169 C171 1.363 . S
C170 C160 1.465 . S
C170 U166 2.847 . S
C170 O184 1.249 . S
C170 O185 1.202 . S
C171 C169 1.363 . S
C171 C173 1.408 . S
C171 C176 1.342 . S
C172 C173 1.310 . S
C172 C175 1.461 . S
C172 H192 0.932 . S
C173 C171 1.408 . S
C173 C172 1.310 . S
C173 H193 0.930 . S
C174 C175 1.474 . S
C174 C176 1.285 . S
C174 H194 0.929 . S
C175 C172 1.461 . S
C175 C174 1.474 . S
C176 C171 1.342 . S
C176 C174 1.285 . S
C176 H195 0.930 . S
C177 C180 1.424 . S
C177 C182 1.245 . S
C177 C183 1.428 . S
C178 C181 1.260 . S
C178 C182 1.477 . S
C178 H196 0.932 . S
C179 C180 1.384 . S
C179 C181 1.479 . S
C179 H197 0.929 . S
C180 C177 1.424 . S
C180 C179 1.384 . S
C180 H198 0.928 . S
C181 C178 1.260 . S
C181 C179 1.479 . S
C182 C177 1.245 . S
C182 C178 1.477 . S
C182 H199 0.932 . S
C183 U166 2.882 . S
C183 C177 1.428 . S
C183 O186 1.301 . S
C183 O187 1.282 . S
O184 U166 2.441 . S
O184 C170 1.249 . S
O185 U166 2.420 . S
O185 C170 1.202 . S
O186 U166 2.455 . S
O186 C183 1.301 . S
O187 U166 2.449 . S
O187 C183 1.282 . S
H188 C161 0.931 . S
H189 C163 0.929 . S
H190 C164 0.930 . S
H191 C165 0.931 . S
H192 C172 0.932 . S
H193 C173 0.930 . S
H194 C174 0.929 . S
H195 C176 0.930 . S
H196 C178 0.932 . S
H197 C179 0.929 . S
H198 C180 0.928 . S
H199 C182 0.932 . S
C200 C201 1.264 . S
C200 C205 1.479 . S
C200 C210 1.465 . S
C201 C200 1.264 . S
C201 C203 1.339 . S
C201 H228 0.931 . S
C202 C203 1.395 . S
C202 C204 1.320 . S
C203 C201 1.339 . S
C203 C202 1.395 . S
C203 H229 0.929 . S
C204 C202 1.320 . S
C204 C205 1.405 . S
C204 H230 0.930 . S
C205 C200 1.479 . S
C205 C204 1.405 . S
C205 H231 0.931 . S
U206 O207 2.454 . S
U206 O208 2.458 . S
U206 C209 2.984 . S
U206 C210 2.847 . S
U206 C223 2.882 . S
U206 O224 2.441 . S
U206 O225 2.420 . S
U206 O226 2.455 . S
U206 O227 2.449 . S
O207 U206 2.454 . S
O207 C209 1.353 . S
O208 U206 2.458 . S
O208 C209 1.286 . S
C209 U206 2.984 . S
C209 O207 1.353 . S
C209 O208 1.286 . S
C209 C211 1.363 . S
C210 C200 1.465 . S
C210 U206 2.847 . S
C210 O224 1.249 . S
C210 O225 1.202 . S
C211 C209 1.363 . S
C211 C213 1.408 . S
C211 C216 1.342 . S
C212 C213 1.310 . S
C212 C215 1.461 . S
C212 H232 0.932 . S
C213 C211 1.408 . S
C213 C212 1.310 . S
C213 H233 0.930 . S
C214 C215 1.474 . S
C214 C216 1.285 . S
C214 H234 0.929 . S
C215 C212 1.461 . S
C215 C214 1.474 . S
C216 C211 1.342 . S
C216 C214 1.285 . S
C216 H235 0.930 . S
C217 C220 1.424 . S
C217 C222 1.245 . S
C217 C223 1.428 . S
C218 C221 1.260 . S
C218 C222 1.477 . S
C218 H236 0.932 . S
C219 C220 1.384 . S
C219 C221 1.479 . S
C219 H237 0.929 . S
C220 C217 1.424 . S
C220 C219 1.384 . S
C220 H238 0.928 . S
C221 C218 1.260 . S
C221 C219 1.479 . S
C222 C217 1.245 . S
C222 C218 1.477 . S
C222 H239 0.932 . S
C223 U206 2.882 . S
C223 C217 1.428 . S
C223 O226 1.301 . S
C223 O227 1.282 . S
O224 U206 2.441 . S
O224 C210 1.249 . S
O225 U206 2.420 . S
O225 C210 1.202 . S
O226 U206 2.455 . S
O226 C223 1.301 . S
O227 U206 2.449 . S
O227 C223 1.282 . S
H228 C201 0.931 . S
H229 C203 0.929 . S
H230 C204 0.930 . S
H231 C205 0.931 . S
H232 C212 0.932 . S
H233 C213 0.930 . S
H234 C214 0.929 . S
H235 C216 0.930 . S
H236 C218 0.932 . S
H237 C219 0.929 . S
H238 C220 0.928 . S
H239 C222 0.932 . S
C240 C241 1.264 . S
C240 C245 1.479 . S
C240 C250 1.465 . S
C241 C240 1.264 . S
C241 C243 1.339 . S
C241 H268 0.931 . S
C242 C243 1.395 . S
C242 C244 1.320 . S
C243 C241 1.339 . S
C243 C242 1.395 . S
C243 H269 0.929 . S
C244 C242 1.320 . S
C244 C245 1.405 . S
C244 H270 0.930 . S
C245 C240 1.479 . S
C245 C244 1.405 . S
C245 H271 0.931 . S
U246 O247 2.454 . S
U246 O248 2.458 . S
U246 C249 2.984 . S
U246 C250 2.847 . S
U246 C263 2.882 . S
U246 O264 2.441 . S
U246 O265 2.420 . S
U246 O266 2.455 . S
U246 O267 2.449 . S
O247 U246 2.454 . S
O247 C249 1.353 . S
O248 U246 2.458 . S
O248 C249 1.286 . S
C249 U246 2.984 . S
C249 O247 1.353 . S
C249 O248 1.286 . S
C249 C251 1.363 . S
C250 C240 1.465 . S
C250 U246 2.847 . S
C250 O264 1.249 . S
C250 O265 1.202 . S
C251 C249 1.363 . S
C251 C253 1.408 . S
C251 C256 1.342 . S
C252 C253 1.310 . S
C252 C255 1.461 . S
C252 H272 0.932 . S
C253 C251 1.408 . S
C253 C252 1.310 . S
C253 H273 0.930 . S
C254 C255 1.474 . S
C254 C256 1.285 . S
C254 H274 0.929 . S
C255 C252 1.461 . S
C255 C254 1.474 . S
C256 C251 1.342 . S
C256 C254 1.285 . S
C256 H275 0.930 . S
C257 C260 1.424 . S
C257 C262 1.245 . S
C257 C263 1.428 . S
C258 C261 1.260 . S
C258 C262 1.477 . S
C258 H276 0.932 . S
C259 C260 1.384 . S
C259 C261 1.479 . S
C259 H277 0.929 . S
C260 C257 1.424 . S
C260 C259 1.384 . S
C260 H278 0.928 . S
C261 C258 1.260 . S
C261 C259 1.479 . S
C262 C257 1.245 . S
C262 C258 1.477 . S
C262 H279 0.932 . S
C263 U246 2.882 . S
C263 C257 1.428 . S
C263 O266 1.301 . S
C263 O267 1.282 . S
O264 U246 2.441 . S
O264 C250 1.249 . S
O265 U246 2.420 . S
O265 C250 1.202 . S
O266 U246 2.455 . S
O266 C263 1.301 . S
O267 U246 2.449 . S
O267 C263 1.282 . S
H268 C241 0.931 . S
H269 C243 0.929 . S
H270 C244 0.930 . S
H271 C245 0.931 . S
H272 C252 0.932 . S
H273 C253 0.930 . S
H274 C254 0.929 . S
H275 C256 0.930 . S
H276 C258 0.932 . S
H277 C259 0.929 . S
H278 C260 0.928 . S
H279 C262 0.932 . S
C280 C281 1.264 . S
C280 C285 1.479 . S
C280 C290 1.465 . S
C281 C280 1.264 . S
C281 C283 1.339 . S
C281 H308 0.931 . S
C282 C283 1.395 . S
C282 C284 1.320 . S
C283 C281 1.339 . S
C283 C282 1.395 . S
C283 H309 0.929 . S
C284 C282 1.320 . S
C284 C285 1.405 . S
C284 H310 0.930 . S
C285 C280 1.479 . S
C285 C284 1.405 . S
C285 H311 0.931 . S
U286 O287 2.454 . S
U286 O288 2.458 . S
U286 C289 2.984 . S
U286 C290 2.847 . S
U286 C303 2.882 . S
U286 O304 2.441 . S
U286 O305 2.420 . S
U286 O306 2.455 . S
U286 O307 2.449 . S
O287 U286 2.454 . S
O287 C289 1.353 . S
O288 U286 2.458 . S
O288 C289 1.286 . S
C289 U286 2.984 . S
C289 O287 1.353 . S
C289 O288 1.286 . S
C289 C291 1.363 . S
C290 C280 1.465 . S
C290 U286 2.847 . S
C290 O304 1.249 . S
C290 O305 1.202 . S
C291 C289 1.363 . S
C291 C293 1.408 . S
C291 C296 1.342 . S
C292 C293 1.310 . S
C292 C295 1.461 . S
C292 H312 0.932 . S
C293 C291 1.408 . S
C293 C292 1.310 . S
C293 H313 0.930 . S
C294 C295 1.474 . S
C294 C296 1.285 . S
C294 H314 0.929 . S
C295 C292 1.461 . S
C295 C294 1.474 . S
C296 C291 1.342 . S
C296 C294 1.285 . S
C296 H315 0.930 . S
C297 C300 1.424 . S
C297 C302 1.245 . S
C297 C303 1.428 . S
C298 C301 1.260 . S
C298 C302 1.477 . S
C298 H316 0.932 . S
C299 C300 1.384 . S
C299 C301 1.479 . S
C299 H317 0.929 . S
C300 C297 1.424 . S
C300 C299 1.384 . S
C300 H318 0.928 . S
C301 C298 1.260 . S
C301 C299 1.479 . S
C302 C297 1.245 . S
C302 C298 1.477 . S
C302 H319 0.932 . S
C303 U286 2.882 . S
C303 C297 1.428 . S
C303 O306 1.301 . S
C303 O307 1.282 . S
O304 U286 2.441 . S
O304 C290 1.249 . S
O305 U286 2.420 . S
O305 C290 1.202 . S
O306 U286 2.455 . S
O306 C303 1.301 . S
O307 U286 2.449 . S
O307 C303 1.282 . S
H308 C281 0.931 . S
H309 C283 0.929 . S
H310 C284 0.930 . S
H311 C285 0.931 . S
H312 C292 0.932 . S
H313 C293 0.930 . S
H314 C294 0.929 . S
H315 C296 0.930 . S
H316 C298 0.932 . S
H317 C299 0.929 . S
H318 C300 0.928 . S
H319 C302 0.932 . S
C320 C321 1.264 . S
C320 C325 1.479 . S
C320 C330 1.465 . S
C321 C320 1.264 . S
C321 C323 1.339 . S
C321 H348 0.931 . S
C322 C323 1.395 . S
C322 C324 1.320 . S
C323 C321 1.339 . S
C323 C322 1.395 . S
C323 H349 0.929 . S
C324 C322 1.320 . S
C324 C325 1.405 . S
C324 H350 0.930 . S
C325 C320 1.479 . S
C325 C324 1.405 . S
C325 H351 0.931 . S
U326 O327 2.454 . S
U326 O328 2.458 . S
U326 C329 2.984 . S
U326 C330 2.847 . S
U326 C343 2.882 . S
U326 O344 2.441 . S
U326 O345 2.420 . S
U326 O346 2.455 . S
U326 O347 2.449 . S
O327 U326 2.454 . S
O327 C329 1.353 . S
O328 U326 2.458 . S
O328 C329 1.286 . S
C329 U326 2.984 . S
C329 O327 1.353 . S
C329 O328 1.286 . S
C329 C331 1.363 . S
C330 C320 1.465 . S
C330 U326 2.847 . S
C330 O344 1.249 . S
C330 O345 1.202 . S
C331 C329 1.363 . S
C331 C333 1.408 . S
C331 C336 1.342 . S
C332 C333 1.310 . S
C332 C335 1.461 . S
C332 H352 0.932 . S
C333 C331 1.408 . S
C333 C332 1.310 . S
C333 H353 0.930 . S
C334 C335 1.474 . S
C334 C336 1.285 . S
C334 H354 0.929 . S
C335 C332 1.461 . S
C335 C334 1.474 . S
C336 C331 1.342 . S
C336 C334 1.285 . S
C336 H355 0.930 . S
C337 C340 1.424 . S
C337 C342 1.245 . S
C337 C343 1.428 . S
C338 C341 1.260 . S
C338 C342 1.477 . S
C338 H356 0.932 . S
C339 C340 1.384 . S
C339 C341 1.479 . S
C339 H357 0.929 . S
C340 C337 1.424 . S
C340 C339 1.384 . S
C340 H358 0.928 . S
C341 C338 1.260 . S
C341 C339 1.479 . S
C342 C337 1.245 . S
C342 C338 1.477 . S
C342 H359 0.932 . S
C343 U326 2.882 . S
C343 C337 1.428 . S
C343 O346 1.301 . S
C343 O347 1.282 . S
O344 U326 2.441 . S
O344 C330 1.249 . S
O345 U326 2.420 . S
O345 C330 1.202 . S
O346 U326 2.455 . S
O346 C343 1.301 . S
O347 U326 2.449 . S
O347 C343 1.282 . S
H348 C321 0.931 . S
H349 C323 0.929 . S
H350 C324 0.930 . S
H351 C325 0.931 . S
H352 C332 0.932 . S
H353 C333 0.930 . S
H354 C334 0.929 . S
H355 C336 0.930 . S
H356 C338 0.932 . S
H357 C339 0.929 . S
H358 C340 0.928 . S
H359 C342 0.932 . S
C360 C361 1.264 . S
C360 C365 1.479 . S
C360 C370 1.465 . S
C361 C360 1.264 . S
C361 C363 1.339 . S
C361 H388 0.931 . S
C362 C363 1.395 . S
C362 C364 1.320 . S
C363 C361 1.339 . S
C363 C362 1.395 . S
C363 H389 0.929 . S
C364 C362 1.320 . S
C364 C365 1.405 . S
C364 H390 0.930 . S
C365 C360 1.479 . S
C365 C364 1.405 . S
C365 H391 0.931 . S
U366 O367 2.454 . S
U366 O368 2.458 . S
U366 C369 2.984 . S
U366 C370 2.847 . S
U366 C383 2.882 . S
U366 O384 2.441 . S
U366 O385 2.420 . S
U366 O386 2.455 . S
U366 O387 2.449 . S
O367 U366 2.454 . S
O367 C369 1.353 . S
O368 U366 2.458 . S
O368 C369 1.286 . S
C369 U366 2.984 . S
C369 O367 1.353 . S
C369 O368 1.286 . S
C369 C371 1.363 . S
C370 C360 1.465 . S
C370 U366 2.847 . S
C370 O384 1.249 . S
C370 O385 1.202 . S
C371 C369 1.363 . S
C371 C373 1.408 . S
C371 C376 1.342 . S
C372 C373 1.310 . S
C372 C375 1.461 . S
C372 H392 0.932 . S
C373 C371 1.408 . S
C373 C372 1.310 . S
C373 H393 0.930 . S
C374 C375 1.474 . S
C374 C376 1.285 . S
C374 H394 0.929 . S
C375 C372 1.461 . S
C375 C374 1.474 . S
C376 C371 1.342 . S
C376 C374 1.285 . S
C376 H395 0.930 . S
C377 C380 1.424 . S
C377 C382 1.245 . S
C377 C383 1.428 . S
C378 C381 1.260 . S
C378 C382 1.477 . S
C378 H396 0.932 . S
C379 C380 1.384 . S
C379 C381 1.479 . S
C379 H397 0.929 . S
C380 C377 1.424 . S
C380 C379 1.384 . S
C380 H398 0.928 . S
C381 C378 1.260 . S
C381 C379 1.479 . S
C382 C377 1.245 . S
C382 C378 1.477 . S
C382 H399 0.932 . S
C383 U366 2.882 . S
C383 C377 1.428 . S
C383 O386 1.301 . S
C383 O387 1.282 . S
O384 U366 2.441 . S
O384 C370 1.249 . S
O385 U366 2.420 . S
O385 C370 1.202 . S
O386 U366 2.455 . S
O386 C383 1.301 . S
O387 U366 2.449 . S
O387 C383 1.282 . S
H388 C361 0.931 . S
H389 C363 0.929 . S
H390 C364 0.930 . S
H391 C365 0.931 . S
H392 C372 0.932 . S
H393 C373 0.930 . S
H394 C374 0.929 . S
H395 C376 0.930 . S
H396 C378 0.932 . S
H397 C379 0.929 . S
H398 C380 0.928 . S
H399 C382 0.932 . S
C400 C401 1.264 . S
C400 C405 1.479 . S
C400 C410 1.465 . S
C401 C400 1.264 . S
C401 C403 1.339 . S
C401 H428 0.931 . S
C402 C403 1.395 . S
C402 C404 1.320 . S
C403 C401 1.339 . S
C403 C402 1.395 . S
C403 H429 0.929 . S
C404 C402 1.320 . S
C404 C405 1.405 . S
C404 H430 0.930 . S
C405 C400 1.479 . S
C405 C404 1.405 . S
C405 H431 0.931 . S
U406 O407 2.454 . S
U406 O408 2.458 . S
U406 C409 2.984 . S
U406 C410 2.847 . S
U406 C423 2.882 . S
U406 O424 2.441 . S
U406 O425 2.420 . S
U406 O426 2.455 . S
U406 O427 2.449 . S
O407 U406 2.454 . S
O407 C409 1.353 . S
O408 U406 2.458 . S
O408 C409 1.286 . S
C409 U406 2.984 . S
C409 O407 1.353 . S
C409 O408 1.286 . S
C409 C411 1.363 . S
C410 C400 1.465 . S
C410 U406 2.847 . S
C410 O424 1.249 . S
C410 O425 1.202 . S
C411 C409 1.363 . S
C411 C413 1.408 . S
C411 C416 1.342 . S
C412 C413 1.310 . S
C412 C415 1.461 . S
C412 H432 0.932 . S
C413 C411 1.408 . S
C413 C412 1.310 . S
C413 H433 0.930 . S
C414 C415 1.474 . S
C414 C416 1.285 . S
C414 H434 0.929 . S
C415 C412 1.461 . S
C415 C414 1.474 . S
C416 C411 1.342 . S
C416 C414 1.285 . S
C416 H435 0.930 . S
C417 C420 1.424 . S
C417 C422 1.245 . S
C417 C423 1.428 . S
C418 C421 1.260 . S
C418 C422 1.477 . S
C418 H436 0.932 . S
C419 C420 1.384 . S
C419 C421 1.479 . S
C419 H437 0.929 . S
C420 C417 1.424 . S
C420 C419 1.384 . S
C420 H438 0.928 . S
C421 C418 1.260 . S
C421 C419 1.479 . S
C422 C417 1.245 . S
C422 C418 1.477 . S
C422 H439 0.932 . S
C423 U406 2.882 . S
C423 C417 1.428 . S
C423 O426 1.301 . S
C423 O427 1.282 . S
O424 U406 2.441 . S
O424 C410 1.249 . S
O425 U406 2.420 . S
O425 C410 1.202 . S
O426 U406 2.455 . S
O426 C423 1.301 . S
O427 U406 2.449 . S
O427 C423 1.282 . S
H428 C401 0.931 . S
H429 C403 0.929 . S
H430 C404 0.930 . S
H431 C405 0.931 . S
H432 C412 0.932 . S
H433 C413 0.930 . S
H434 C414 0.929 . S
H435 C416 0.930 . S
H436 C418 0.932 . S
H437 C419 0.929 . S
H438 C420 0.928 . S
H439 C422 0.932 . S
C440 C441 1.264 . S
C440 C445 1.479 . S
C440 C450 1.465 . S
C441 C440 1.264 . S
C441 C443 1.339 . S
C441 H468 0.931 . S
C442 C443 1.395 . S
C442 C444 1.320 . S
C443 C441 1.339 . S
C443 C442 1.395 . S
C443 H469 0.929 . S
C444 C442 1.320 . S
C444 C445 1.405 . S
C444 H470 0.930 . S
C445 C440 1.479 . S
C445 C444 1.405 . S
C445 H471 0.931 . S
U446 O447 2.454 . S
U446 O448 2.458 . S
U446 C449 2.984 . S
U446 C450 2.847 . S
U446 C463 2.882 . S
U446 O464 2.441 . S
U446 O465 2.420 . S
U446 O466 2.455 . S
U446 O467 2.449 . S
O447 U446 2.454 . S
O447 C449 1.353 . S
O448 U446 2.458 . S
O448 C449 1.286 . S
C449 U446 2.984 . S
C449 O447 1.353 . S
C449 O448 1.286 . S
C449 C451 1.363 . S
C450 C440 1.465 . S
C450 U446 2.847 . S
C450 O464 1.249 . S
C450 O465 1.202 . S
C451 C449 1.363 . S
C451 C453 1.408 . S
C451 C456 1.342 . S
C452 C453 1.310 . S
C452 C455 1.461 . S
C452 H472 0.932 . S
C453 C451 1.408 . S
C453 C452 1.310 . S
C453 H473 0.930 . S
C454 C455 1.474 . S
C454 C456 1.285 . S
C454 H474 0.929 . S
C455 C452 1.461 . S
C455 C454 1.474 . S
C456 C451 1.342 . S
C456 C454 1.285 . S
C456 H475 0.930 . S
C457 C460 1.424 . S
C457 C462 1.245 . S
C457 C463 1.428 . S
C458 C461 1.260 . S
C458 C462 1.477 . S
C458 H476 0.932 . S
C459 C460 1.384 . S
C459 C461 1.479 . S
C459 H477 0.929 . S
C460 C457 1.424 . S
C460 C459 1.384 . S
C460 H478 0.928 . S
C461 C458 1.260 . S
C461 C459 1.479 . S
C462 C457 1.245 . S
C462 C458 1.477 . S
C462 H479 0.932 . S
C463 U446 2.882 . S
C463 C457 1.428 . S
C463 O466 1.301 . S
C463 O467 1.282 . S
O464 U446 2.441 . S
O464 C450 1.249 . S
O465 U446 2.420 . S
O465 C450 1.202 . S
O466 U446 2.455 . S
O466 C463 1.301 . S
O467 U446 2.449 . S
O467 C463 1.282 . S
H468 C441 0.931 . S
H469 C443 0.929 . S
H470 C444 0.930 . S
H471 C445 0.931 . S
H472 C452 0.932 . S
H473 C453 0.930 . S
H474 C454 0.929 . S
H475 C456 0.930 . S
H476 C458 0.932 . S
H477 C459 0.929 . S
H478 C460 0.928 . S
H479 C462 0.932 . S
C480 C481 1.264 . S
C480 C485 1.479 . S
C480 C490 1.465 . S
C481 C480 1.264 . S
C481 C483 1.339 . S
C481 H508 0.931 . S
C482 C483 1.395 . S
C482 C484 1.320 . S
C483 C481 1.339 . S
C483 C482 1.395 . S
C483 H509 0.929 . S
C484 C482 1.320 . S
C484 C485 1.405 . S
C484 H510 0.930 . S
C485 C480 1.479 . S
C485 C484 1.405 . S
C485 H511 0.931 . S
U486 O487 2.454 . S
U486 O488 2.458 . S
U486 C489 2.984 . S
U486 C490 2.847 . S
U486 C503 2.882 . S
U486 O504 2.441 . S
U486 O505 2.420 . S
U486 O506 2.455 . S
U486 O507 2.449 . S
O487 U486 2.454 . S
O487 C489 1.353 . S
O488 U486 2.458 . S
O488 C489 1.286 . S
C489 U486 2.984 . S
C489 O487 1.353 . S
C489 O488 1.286 . S
C489 C491 1.363 . S
C490 C480 1.465 . S
C490 U486 2.847 . S
C490 O504 1.249 . S
C490 O505 1.202 . S
C491 C489 1.363 . S
C491 C493 1.408 . S
C491 C496 1.342 . S
C492 C493 1.310 . S
C492 C495 1.461 . S
C492 H512 0.932 . S
C493 C491 1.408 . S
C493 C492 1.310 . S
C493 H513 0.930 . S
C494 C495 1.474 . S
C494 C496 1.285 . S
C494 H514 0.929 . S
C495 C492 1.461 . S
C495 C494 1.474 . S
C496 C491 1.342 . S
C496 C494 1.285 . S
C496 H515 0.930 . S
C497 C500 1.424 . S
C497 C502 1.245 . S
C497 C503 1.428 . S
C498 C501 1.260 . S
C498 C502 1.477 . S
C498 H516 0.932 . S
C499 C500 1.384 . S
C499 C501 1.479 . S
C499 H517 0.929 . S
C500 C497 1.424 . S
C500 C499 1.384 . S
C500 H518 0.928 . S
C501 C498 1.260 . S
C501 C499 1.479 . S
C502 C497 1.245 . S
C502 C498 1.477 . S
C502 H519 0.932 . S
C503 U486 2.882 . S
C503 C497 1.428 . S
C503 O506 1.301 . S
C503 O507 1.282 . S
O504 U486 2.441 . S
O504 C490 1.249 . S
O505 U486 2.420 . S
O505 C490 1.202 . S
O506 U486 2.455 . S
O506 C503 1.301 . S
O507 U486 2.449 . S
O507 C503 1.282 . S
H508 C481 0.931 . S
H509 C483 0.929 . S
H510 C484 0.930 . S
H511 C485 0.931 . S
H512 C492 0.932 . S
H513 C493 0.930 . S
H514 C494 0.929 . S
H515 C496 0.930 . S
H516 C498 0.932 . S
H517 C499 0.929 . S
H518 C500 0.928 . S
H519 C502 0.932 . S
C520 C521 1.264 . S
C520 C525 1.479 . S
C520 C530 1.465 . S
C521 C520 1.264 . S
C521 C523 1.339 . S
C521 H548 0.931 . S
C522 C523 1.395 . S
C522 C524 1.320 . S
C523 C521 1.339 . S
C523 C522 1.395 . S
C523 H549 0.929 . S
C524 C522 1.320 . S
C524 C525 1.405 . S
C524 H550 0.930 . S
C525 C520 1.479 . S
C525 C524 1.405 . S
C525 H551 0.931 . S
U526 O527 2.454 . S
U526 O528 2.458 . S
U526 C529 2.984 . S
U526 C530 2.847 . S
U526 C543 2.882 . S
U526 O544 2.441 . S
U526 O545 2.420 . S
U526 O546 2.455 . S
U526 O547 2.449 . S
O527 U526 2.454 . S
O527 C529 1.353 . S
O528 U526 2.458 . S
O528 C529 1.286 . S
C529 U526 2.984 . S
C529 O527 1.353 . S
C529 O528 1.286 . S
C529 C531 1.363 . S
C530 C520 1.465 . S
C530 U526 2.847 . S
C530 O544 1.249 . S
C530 O545 1.202 . S
C531 C529 1.363 . S
C531 C533 1.408 . S
C531 C536 1.342 . S
C532 C533 1.310 . S
C532 C535 1.461 . S
C532 H552 0.932 . S
C533 C531 1.408 . S
C533 C532 1.310 . S
C533 H553 0.930 . S
C534 C535 1.474 . S
C534 C536 1.285 . S
C534 H554 0.929 . S
C535 C532 1.461 . S
C535 C534 1.474 . S
C536 C531 1.342 . S
C536 C534 1.285 . S
C536 H555 0.930 . S
C537 C540 1.424 . S
C537 C542 1.245 . S
C537 C543 1.428 . S
C538 C541 1.260 . S
C538 C542 1.477 . S
C538 H556 0.932 . S
C539 C540 1.384 . S
C539 C541 1.479 . S
C539 H557 0.929 . S
C540 C537 1.424 . S
C540 C539 1.384 . S
C540 H558 0.928 . S
C541 C538 1.260 . S
C541 C539 1.479 . S
C542 C537 1.245 . S
C542 C538 1.477 . S
C542 H559 0.932 . S
C543 U526 2.882 . S
C543 C537 1.428 . S
C543 O546 1.301 . S
C543 O547 1.282 . S
O544 U526 2.441 . S
O544 C530 1.249 . S
O545 U526 2.420 . S
O545 C530 1.202 . S
O546 U526 2.455 . S
O546 C543 1.301 . S
O547 U526 2.449 . S
O547 C543 1.282 . S
H548 C521 0.931 . S
H549 C523 0.929 . S
H550 C524 0.930 . S
H551 C525 0.931 . S
H552 C532 0.932 . S
H553 C533 0.930 . S
H554 C534 0.929 . S
H555 C536 0.930 . S
H556 C538 0.932 . S
H557 C539 0.929 . S
H558 C540 0.928 . S
H559 C542 0.932 . S
C560 C561 1.264 . S
C560 C565 1.479 . S
C560 C570 1.465 . S
C561 C560 1.264 . S
C561 C563 1.339 . S
C561 H588 0.931 . S
C562 C563 1.395 . S
C562 C564 1.320 . S
C563 C561 1.339 . S
C563 C562 1.395 . S
C563 H589 0.929 . S
C564 C562 1.320 . S
C564 C565 1.405 . S
C564 H590 0.930 . S
C565 C560 1.479 . S
C565 C564 1.405 . S
C565 H591 0.931 . S
U566 O567 2.454 . S
U566 O568 2.458 . S
U566 C569 2.984 . S
U566 C570 2.847 . S
U566 C583 2.882 . S
U566 O584 2.441 . S
U566 O585 2.420 . S
U566 O586 2.455 . S
U566 O587 2.449 . S
O567 U566 2.454 . S
O567 C569 1.353 . S
O568 U566 2.458 . S
O568 C569 1.286 . S
C569 U566 2.984 . S
C569 O567 1.353 . S
C569 O568 1.286 . S
C569 C571 1.363 . S
C570 C560 1.465 . S
C570 U566 2.847 . S
C570 O584 1.249 . S
C570 O585 1.202 . S
C571 C569 1.363 . S
C571 C573 1.408 . S
C571 C576 1.342 . S
C572 C573 1.310 . S
C572 C575 1.461 . S
C572 H592 0.932 . S
C573 C571 1.408 . S
C573 C572 1.310 . S
C573 H593 0.930 . S
C574 C575 1.474 . S
C574 C576 1.285 . S
C574 H594 0.929 . S
C575 C572 1.461 . S
C575 C574 1.474 . S
C576 C571 1.342 . S
C576 C574 1.285 . S
C576 H595 0.930 . S
C577 C580 1.424 . S
C577 C582 1.245 . S
C577 C583 1.428 . S
C578 C581 1.260 . S
C578 C582 1.477 . S
C578 H596 0.932 . S
C579 C580 1.384 . S
C579 C581 1.479 . S
C579 H597 0.929 . S
C580 C577 1.424 . S
C580 C579 1.384 . S
C580 H598 0.928 . S
C581 C578 1.260 . S
C581 C579 1.479 . S
C582 C577 1.245 . S
C582 C578 1.477 . S
C582 H599 0.932 . S
C583 U566 2.882 . S
C583 C577 1.428 . S
C583 O586 1.301 . S
C583 O587 1.282 . S
O584 U566 2.441 . S
O584 C570 1.249 . S
O585 U566 2.420 . S
O585 C570 1.202 . S
O586 U566 2.455 . S
O586 C583 1.301 . S
O587 U566 2.449 . S
O587 C583 1.282 . S
H588 C561 0.931 . S
H589 C563 0.929 . S
H590 C564 0.930 . S
H591 C565 0.931 . S
H592 C572 0.932 . S
H593 C573 0.930 . S
H594 C574 0.929 . S
H595 C576 0.930 . S
H596 C578 0.932 . S
H597 C579 0.929 . S
H598 C580 0.928 . S
H599 C582 0.932 . S
C600 C601 1.264 . S
C600 C605 1.479 . S
C600 C610 1.465 . S
C601 C600 1.264 . S
C601 C603 1.339 . S
C601 H628 0.931 . S
C602 C603 1.395 . S
C602 C604 1.320 . S
C603 C601 1.339 . S
C603 C602 1.395 . S
C603 H629 0.929 . S
C604 C602 1.320 . S
C604 C605 1.405 . S
C604 H630 0.930 . S
C605 C600 1.479 . S
C605 C604 1.405 . S
C605 H631 0.931 . S
U606 O607 2.454 . S
U606 O608 2.458 . S
U606 C609 2.984 . S
U606 C610 2.847 . S
U606 C623 2.882 . S
U606 O624 2.441 . S
U606 O625 2.420 . S
U606 O626 2.455 . S
U606 O627 2.449 . S
O607 U606 2.454 . S
O607 C609 1.353 . S
O608 U606 2.458 . S
O608 C609 1.286 . S
C609 U606 2.984 . S
C609 O607 1.353 . S
C609 O608 1.286 . S
C609 C611 1.363 . S
C610 C600 1.465 . S
C610 U606 2.847 . S
C610 O624 1.249 . S
C610 O625 1.202 . S
C611 C609 1.363 . S
C611 C613 1.408 . S
C611 C616 1.342 . S
C612 C613 1.310 . S
C612 C615 1.461 . S
C612 H632 0.932 . S
C613 C611 1.408 . S
C613 C612 1.310 . S
C613 H633 0.930 . S
C614 C615 1.474 . S
C614 C616 1.285 . S
C614 H634 0.929 . S
C615 C612 1.461 . S
C615 C614 1.474 . S
C616 C611 1.342 . S
C616 C614 1.285 . S
C616 H635 0.930 . S
C617 C620 1.424 . S
C617 C622 1.245 . S
C617 C623 1.428 . S
C618 C621 1.260 . S
C618 C622 1.477 . S
C618 H636 0.932 . S
C619 C620 1.384 . S
C619 C621 1.479 . S
C619 H637 0.929 . S
C620 C617 1.424 . S
C620 C619 1.384 . S
C620 H638 0.928 . S
C621 C618 1.260 . S
C621 C619 1.479 . S
C622 C617 1.245 . S
C622 C618 1.477 . S
C622 H639 0.932 . S
C623 U606 2.882 . S
C623 C617 1.428 . S
C623 O626 1.301 . S
C623 O627 1.282 . S
O624 U606 2.441 . S
O624 C610 1.249 . S
O625 U606 2.420 . S
O625 C610 1.202 . S
O626 U606 2.455 . S
O626 C623 1.301 . S
O627 U606 2.449 . S
O627 C623 1.282 . S
H628 C601 0.931 . S
H629 C603 0.929 . S
H630 C604 0.930 . S
H631 C605 0.931 . S
H632 C612 0.932 . S
H633 C613 0.930 . S
H634 C614 0.929 . S
H635 C616 0.930 . S
H636 C618 0.932 . S
H637 C619 0.929 . S
H638 C620 0.928 . S
H639 C622 0.932 . S
H640 C648 0.950 . S
H641 C653 0.950 . S
H642 C650 0.950 . S
H643 C652 0.950 . S
H644 C654 0.950 . S
H645 C656 0.950 . S
H646 C658 0.950 . S
H647 C659 0.950 . S
C648 H640 0.950 . S
C648 C649 1.386 . S
C648 C650 1.391 . S
C649 C648 1.386 . S
C649 C653 1.393 . S
C650 H642 0.950 . S
C650 C648 1.391 . S
C650 C651 1.400 . S
C651 C650 1.400 . S
C651 C652 1.398 . S
C651 C657 1.491 . S
C652 H643 0.950 . S
C652 C651 1.398 . S
C652 C653 1.391 . S
C653 H641 0.950 . S
C653 C649 1.393 . S
C653 C652 1.391 . S
C654 H644 0.950 . S
C654 C655 1.386 . S
C654 C656 1.391 . S
C655 C654 1.386 . S
C655 C659 1.393 . S
C656 H645 0.950 . S
C656 C654 1.391 . S
C656 C657 1.400 . S
C657 C651 1.491 . S
C657 C656 1.400 . S
C657 C658 1.398 . S
C658 H646 0.950 . S
C658 C657 1.398 . S
C658 C659 1.391 . S
C659 H647 0.950 . S
C659 C655 1.393 . S
C659 C658 1.391 . S
H660 C668 0.950 . S
H661 C673 0.950 . S
H662 C670 0.950 . S
H663 C672 0.950 . S
H664 C674 0.950 . S
H665 C676 0.950 . S
H666 C678 0.950 . S
H667 C679 0.950 . S
C668 H660 0.950 . S
C668 C669 1.386 . S
C668 C670 1.391 . S
C669 C668 1.386 . S
C669 C673 1.393 . S
C670 H662 0.950 . S
C670 C668 1.391 . S
C670 C671 1.400 . S
C671 C670 1.400 . S
C671 C672 1.398 . S
C671 C677 1.491 . S
C672 H663 0.950 . S
C672 C671 1.398 . S
C672 C673 1.391 . S
C673 H661 0.950 . S
C673 C669 1.393 . S
C673 C672 1.391 . S
C674 H664 0.950 . S
C674 C675 1.386 . S
C674 C676 1.391 . S
C675 C674 1.386 . S
C675 C679 1.393 . S
C676 H665 0.950 . S
C676 C674 1.391 . S
C676 C677 1.400 . S
C677 C671 1.491 . S
C677 C676 1.400 . S
C677 C678 1.398 . S
C678 H666 0.950 . S
C678 C677 1.398 . S
C678 C679 1.391 . S
C679 H667 0.950 . S
C679 C675 1.393 . S
C679 C678 1.391 . S
H680 C688 0.950 . S
H681 C693 0.950 . S
H682 C690 0.950 . S
H683 C692 0.950 . S
H684 C694 0.950 . S
H685 C696 0.950 . S
H686 C698 0.950 . S
H687 C699 0.950 . S
C688 H680 0.950 . S
C688 C689 1.386 . S
C688 C690 1.391 . S
C689 C688 1.386 . S
C689 C693 1.393 . S
C690 H682 0.950 . S
C690 C688 1.391 . S
C690 C691 1.400 . S
C691 C690 1.400 . S
C691 C692 1.398 . S
C691 C697 1.491 . S
C692 H683 0.950 . S
C692 C691 1.398 . S
C692 C693 1.391 . S
C693 H681 0.950 . S
C693 C689 1.393 . S
C693 C692 1.391 . S
C694 H684 0.950 . S
C694 C695 1.386 . S
C694 C696 1.391 . S
C695 C694 1.386 . S
C695 C699 1.393 . S
C696 H685 0.950 . S
C696 C694 1.391 . S
C696 C697 1.400 . S
C697 C691 1.491 . S
C697 C696 1.400 . S
C697 C698 1.398 . S
C698 H686 0.950 . S
C698 C697 1.398 . S
C698 C699 1.391 . S
C699 H687 0.950 . S
C699 C695 1.393 . S
C699 C698 1.391 . S
H700 C708 0.950 . S
H701 C713 0.950 . S
H702 C710 0.950 . S
H703 C712 0.950 . S
H704 C714 0.950 . S
H705 C716 0.950 . S
H706 C718 0.950 . S
H707 C719 0.950 . S
C708 H700 0.950 . S
C708 C709 1.386 . S
C708 C710 1.391 . S
C709 C708 1.386 . S
C709 C713 1.393 . S
C710 H702 0.950 . S
C710 C708 1.391 . S
C710 C711 1.400 . S
C711 C710 1.400 . S
C711 C712 1.398 . S
C711 C717 1.491 1_556 S
C712 H703 0.950 . S
C712 C711 1.398 . S
C712 C713 1.391 . S
C713 H701 0.950 . S
C713 C709 1.393 . S
C713 C712 1.391 . S
C714 H704 0.950 . S
C714 C715 1.386 . S
C714 C716 1.391 . S
C715 C714 1.386 . S
C715 C719 1.393 . S
C716 H705 0.950 . S
C716 C714 1.391 . S
C716 C717 1.400 . S
C717 C711 1.491 1_554 S
C717 C716 1.400 . S
C717 C718 1.398 . S
C718 H706 0.950 . S
C718 C717 1.398 . S
C718 C719 1.391 . S
C719 H707 0.950 . S
C719 C715 1.393 . S
C719 C718 1.391 . S
H720 C728 0.950 . S
H721 C733 0.950 . S
H722 C730 0.950 . S
H723 C732 0.950 1_556 S
H724 C734 0.950 . S
H725 C736 0.950 . S
H726 C738 0.950 1_554 S
H727 C739 0.950 . S
C728 H720 0.950 . S
C728 C729 1.386 . S
C728 C730 1.391 . S
C729 C728 1.386 . S
C729 C733 1.393 . S
C730 H722 0.950 . S
C730 C728 1.391 . S
C730 C731 1.400 . S
C731 C730 1.400 . S
C731 C732 1.398 . S
C731 C737 1.491 1_554 S
C732 H723 0.950 1_554 S
C732 C731 1.398 . S
C732 C733 1.391 . S
C733 H721 0.950 . S
C733 C729 1.393 . S
C733 C732 1.391 . S
C734 H724 0.950 . S
C734 C735 1.386 . S
C734 C736 1.391 . S
C735 C734 1.386 . S
C735 C739 1.393 . S
C736 H725 0.950 . S
C736 C734 1.391 . S
C736 C737 1.400 . S
C737 C731 1.491 1_556 S
C737 C736 1.400 . S
C737 C738 1.398 . S
C738 H726 0.950 1_556 S
C738 C737 1.398 . S
C738 C739 1.391 . S
C739 H727 0.950 . S
C739 C735 1.393 . S
C739 C738 1.391 . S
H740 C748 0.950 . S
H741 C753 0.950 . S
H742 C750 0.950 . S
H743 C752 0.950 . S
H744 C754 0.950 . S
H745 C756 0.950 . S
H746 C758 0.950 . S
H747 C759 0.950 . S
C748 H740 0.950 . S
C748 C749 1.386 . S
C748 C750 1.391 . S
C749 C748 1.386 . S
C749 C753 1.393 . S
C750 H742 0.950 . S
C750 C748 1.391 . S
C750 C751 1.400 . S
C751 C750 1.400 . S
C751 C752 1.398 . S
C751 C757 1.491 . S
C752 H743 0.950 . S
C752 C751 1.398 . S
C752 C753 1.391 . S
C753 H741 0.950 . S
C753 C749 1.393 . S
C753 C752 1.391 . S
C754 H744 0.950 . S
C754 C755 1.386 . S
C754 C756 1.391 . S
C755 C754 1.386 . S
C755 C759 1.393 . S
C756 H745 0.950 . S
C756 C754 1.391 . S
C756 C757 1.400 . S
C757 C751 1.491 . S
C757 C756 1.400 . S
C757 C758 1.398 . S
C758 H746 0.950 . S
C758 C757 1.398 . S
C758 C759 1.391 . S
C759 H747 0.950 . S
C759 C755 1.393 . S
C759 C758 1.391 . S
H760 C768 0.950 . S
H761 C773 0.950 . S
H762 C770 0.950 . S
H763 C772 0.950 . S
H764 C774 0.950 . S
H765 C776 0.950 . S
H766 C778 0.950 . S
H767 C779 0.950 . S
C768 H760 0.950 . S
C768 C769 1.386 . S
C768 C770 1.391 . S
C769 C768 1.386 . S
C769 C773 1.393 . S
C770 H762 0.950 . S
C770 C768 1.391 . S
C770 C771 1.400 . S
C771 C770 1.400 . S
C771 C772 1.398 . S
C771 C777 1.491 . S
C772 H763 0.950 . S
C772 C771 1.398 . S
C772 C773 1.391 . S
C773 H761 0.950 . S
C773 C769 1.393 . S
C773 C772 1.391 . S
C774 H764 0.950 . S
C774 C775 1.386 . S
C774 C776 1.391 . S
C775 C774 1.386 . S
C775 C779 1.393 . S
C776 H765 0.950 . S
C776 C774 1.391 . S
C776 C777 1.400 . S
C777 C771 1.491 . S
C777 C776 1.400 . S
C777 C778 1.398 . S
C778 H766 0.950 . S
C778 C777 1.398 . S
C778 C779 1.391 . S
C779 H767 0.950 . S
C779 C775 1.393 . S
C779 C778 1.391 . S
H780 C788 0.950 . S
H781 C793 0.950 . S
H782 C790 0.950 . S
H783 C792 0.950 . S
H784 C794 0.950 . S
H785 C796 0.950 . S
H786 C798 0.950 . S
H787 C799 0.950 . S
C788 H780 0.950 . S
C788 C789 1.386 . S
C788 C790 1.391 . S
C789 C788 1.386 . S
C789 C793 1.393 . S
C790 H782 0.950 . S
C790 C788 1.391 . S
C790 C791 1.400 . S
C791 C790 1.400 . S
C791 C792 1.398 . S
C791 C797 1.491 . S
C792 H783 0.950 . S
C792 C791 1.398 . S
C792 C793 1.391 . S
C793 H781 0.950 . S
C793 C789 1.393 . S
C793 C792 1.391 . S
C794 H784 0.950 . S
C794 C795 1.386 . S
C794 C796 1.391 . S
C795 C794 1.386 . S
C795 C799 1.393 . S
C796 H785 0.950 . S
C796 C794 1.391 . S
C796 C797 1.400 . S
C797 C791 1.491 . S
C797 C796 1.400 . S
C797 C798 1.398 . S
C798 H786 0.950 . S
C798 C797 1.398 . S
C798 C799 1.391 . S
C799 H787 0.950 . S
C799 C795 1.393 . S
C799 C798 1.391 . S
H800 C808 0.950 . S
H801 C813 0.950 . S
H802 C810 0.950 . S
H803 C812 0.950 . S
H804 C814 0.950 . S
H805 C816 0.950 . S
H806 C818 0.950 . S
H807 C819 0.950 . S
C808 H800 0.950 . S
C808 C809 1.386 . S
C808 C810 1.391 . S
C809 C808 1.386 . S
C809 C813 1.393 . S
C810 H802 0.950 . S
C810 C808 1.391 . S
C810 C811 1.400 . S
C811 C810 1.400 . S
C811 C812 1.398 . S
C811 C817 1.491 . S
C812 H803 0.950 . S
C812 C811 1.398 . S
C812 C813 1.391 . S
C813 H801 0.950 . S
C813 C809 1.393 . S
C813 C812 1.391 . S
C814 H804 0.950 . S
C814 C815 1.386 . S
C814 C816 1.391 . S
C815 C814 1.386 . S
C815 C819 1.393 . S
C816 H805 0.950 . S
C816 C814 1.391 . S
C816 C817 1.400 . S
C817 C811 1.491 . S
C817 C816 1.400 . S
C817 C818 1.398 . S
C818 H806 0.950 . S
C818 C817 1.398 . S
C818 C819 1.391 . S
C819 H807 0.950 . S
C819 C815 1.393 . S
C819 C818 1.391 . S
H820 C828 0.950 . S
H821 C833 0.950 . S
H822 C830 0.950 . S
H823 C832 0.950 . S
H824 C834 0.950 . S
H825 C836 0.950 . S
H826 C838 0.950 . S
H827 C839 0.950 . S
C828 H820 0.950 . S
C828 C829 1.386 . S
C828 C830 1.391 . S
C829 C828 1.386 . S
C829 C833 1.393 . S
C830 H822 0.950 . S
C830 C828 1.391 . S
C830 C831 1.400 . S
C831 C830 1.400 . S
C831 C832 1.398 . S
C831 C837 1.491 . S
C832 H823 0.950 . S
C832 C831 1.398 . S
C832 C833 1.391 . S
C833 H821 0.950 . S
C833 C829 1.393 . S
C833 C832 1.391 . S
C834 H824 0.950 . S
C834 C835 1.386 . S
C834 C836 1.391 . S
C835 C834 1.386 . S
C835 C839 1.393 . S
C836 H825 0.950 . S
C836 C834 1.391 . S
C836 C837 1.400 . S
C837 C831 1.491 . S
C837 C836 1.400 . S
C837 C838 1.398 . S
C838 H826 0.950 . S
C838 C837 1.398 . S
C838 C839 1.391 . S
C839 H827 0.950 . S
C839 C835 1.393 . S
C839 C838 1.391 . S
H840 C848 0.950 . S
H841 C853 0.950 . S
H842 C850 0.950 . S
H843 C852 0.950 . S
H844 C854 0.950 . S
H845 C856 0.950 . S
H846 C858 0.950 . S
H847 C859 0.950 . S
C848 H840 0.950 . S
C848 C849 1.386 . S
C848 C850 1.391 . S
C849 C848 1.386 . S
C849 C853 1.393 . S
C850 H842 0.950 . S
C850 C848 1.391 . S
C850 C851 1.400 . S
C851 C850 1.400 . S
C851 C852 1.398 . S
C851 C857 1.491 . S
C852 H843 0.950 . S
C852 C851 1.398 . S
C852 C853 1.391 . S
C853 H841 0.950 . S
C853 C849 1.393 . S
C853 C852 1.391 . S
C854 H844 0.950 . S
C854 C855 1.386 . S
C854 C856 1.391 . S
C855 C854 1.386 . S
C855 C859 1.393 . S
C856 H845 0.950 . S
C856 C854 1.391 . S
C856 C857 1.400 . S
C857 C851 1.491 . S
C857 C856 1.400 . S
C857 C858 1.398 . S
C858 H846 0.950 . S
C858 C857 1.398 . S
C858 C859 1.391 . S
C859 H847 0.950 . S
C859 C855 1.393 . S
C859 C858 1.391 . S
H860 C868 0.950 . S
H861 C873 0.950 . S
H862 C870 0.950 . S
H863 C872 0.950 . S
H864 C874 0.950 . S
H865 C876 0.950 . S
H866 C878 0.950 . S
H867 C879 0.950 . S
C868 H860 0.950 . S
C868 C869 1.386 . S
C868 C870 1.391 . S
C869 C868 1.386 . S
C869 C873 1.393 . S
C870 H862 0.950 . S
C870 C868 1.391 . S
C870 C871 1.400 . S
C871 C870 1.400 . S
C871 C872 1.398 . S
C871 C877 1.491 . S
C872 H863 0.950 . S
C872 C871 1.398 . S
C872 C873 1.391 . S
C873 H861 0.950 . S
C873 C869 1.393 . S
C873 C872 1.391 . S
C874 H864 0.950 . S
C874 C875 1.386 . S
C874 C876 1.391 . S
C875 C874 1.386 . S
C875 C879 1.393 . S
C876 H865 0.950 . S
C876 C874 1.391 . S
C876 C877 1.400 . S
C877 C871 1.491 . S
C877 C876 1.400 . S
C877 C878 1.398 . S
C878 H866 0.950 . S
C878 C877 1.398 . S
C878 C879 1.391 . S
C879 H867 0.950 . S
C879 C875 1.393 . S
C879 C878 1.391 . S
H880 C888 0.950 . S
H881 C893 0.950 . S
H882 C890 0.950 . S
H883 C892 0.950 . S
H884 C894 0.950 . S
H885 C896 0.950 . S
H886 C898 0.950 . S
H887 C899 0.950 . S
C888 H880 0.950 . S
C888 C889 1.386 . S
C888 C890 1.391 . S
C889 C888 1.386 . S
C889 C893 1.393 . S
C890 H882 0.950 . S
C890 C888 1.391 . S
C890 C891 1.400 . S
C891 C890 1.400 . S
C891 C892 1.398 . S
C891 C897 1.491 . S
C892 H883 0.950 . S
C892 C891 1.398 . S
C892 C893 1.391 . S
C893 H881 0.950 . S
C893 C889 1.393 . S
C893 C892 1.391 . S
C894 H884 0.950 . S
C894 C895 1.386 . S
C894 C896 1.391 . S
C895 C894 1.386 . S
C895 C899 1.393 . S
C896 H885 0.950 . S
C896 C894 1.391 . S
C896 C897 1.400 . S
C897 C891 1.491 . S
C897 C896 1.400 . S
C897 C898 1.398 . S
C898 H886 0.950 . S
C898 C897 1.398 . S
C898 C899 1.391 . S
C899 H887 0.950 . S
C899 C895 1.393 . S
C899 C898 1.391 . S
H900 C908 0.950 . S
H901 C913 0.950 . S
H902 C910 0.950 . S
H903 C912 0.950 . S
H904 C914 0.950 . S
H905 C916 0.950 . S
H906 C918 0.950 . S
H907 C919 0.950 . S
C908 H900 0.950 . S
C908 C909 1.386 . S
C908 C910 1.391 . S
C909 C908 1.386 . S
C909 C913 1.393 . S
C910 H902 0.950 . S
C910 C908 1.391 . S
C910 C911 1.400 . S
C911 C910 1.400 . S
C911 C912 1.398 . S
C911 C917 1.491 . S
C912 H903 0.950 . S
C912 C911 1.398 . S
C912 C913 1.391 . S
C913 H901 0.950 . S
C913 C909 1.393 . S
C913 C912 1.391 . S
C914 H904 0.950 . S
C914 C915 1.386 . S
C914 C916 1.391 . S
C915 C914 1.386 . S
C915 C919 1.393 . S
C916 H905 0.950 . S
C916 C914 1.391 . S
C916 C917 1.400 . S
C917 C911 1.491 . S
C917 C916 1.400 . S
C917 C918 1.398 . S
C918 H906 0.950 . S
C918 C917 1.398 . S
C918 C919 1.391 . S
C919 H907 0.950 . S
C919 C915 1.393 . S
C919 C918 1.391 . S
H920 C928 0.950 . S
H921 C933 0.950 . S
H922 C930 0.950 . S
H923 C932 0.950 . S
H924 C934 0.950 . S
H925 C936 0.950 . S
H926 C938 0.950 . S
H927 C939 0.950 . S
C928 H920 0.950 . S
C928 C929 1.386 . S
C928 C930 1.391 . S
C929 C928 1.386 . S
C929 C933 1.393 . S
C930 H922 0.950 . S
C930 C928 1.391 . S
C930 C931 1.400 . S
C931 C930 1.400 . S
C931 C932 1.398 . S
C931 C937 1.491 . S
C932 H923 0.950 . S
C932 C931 1.398 . S
C932 C933 1.391 . S
C933 H921 0.950 . S
C933 C929 1.393 . S
C933 C932 1.391 . S
C934 H924 0.950 . S
C934 C935 1.386 . S
C934 C936 1.391 . S
C935 C934 1.386 . S
C935 C939 1.393 . S
C936 H925 0.950 . S
C936 C934 1.391 . S
C936 C937 1.400 . S
C937 C931 1.491 . S
C937 C936 1.400 . S
C937 C938 1.398 . S
C938 H926 0.950 . S
C938 C937 1.398 . S
C938 C939 1.391 . S
C939 H927 0.950 . S
C939 C935 1.393 . S
C939 C938 1.391 . S
H940 C948 0.950 . S
H941 C953 0.950 . S
H942 C950 0.950 . S
H943 C952 0.950 . S
H944 C954 0.950 . S
H945 C956 0.950 . S
H946 C958 0.950 . S
H947 C959 0.950 . S
C948 H940 0.950 . S
C948 C949 1.386 . S
C948 C950 1.391 . S
C949 C948 1.386 . S
C949 C953 1.393 . S
C950 H942 0.950 . S
C950 C948 1.391 . S
C950 C951 1.400 . S
C951 C950 1.400 . S
C951 C952 1.398 . S
C951 C957 1.491 . S
C952 H943 0.950 . S
C952 C951 1.398 . S
C952 C953 1.391 . S
C953 H941 0.950 . S
C953 C949 1.393 . S
C953 C952 1.391 . S
C954 H944 0.950 . S
C954 C955 1.386 . S
C954 C956 1.391 . S
C955 C954 1.386 . S
C955 C959 1.393 . S
C956 H945 0.950 . S
C956 C954 1.391 . S
C956 C957 1.400 . S
C957 C951 1.491 . S
C957 C956 1.400 . S
C957 C958 1.398 . S
C958 H946 0.950 . S
C958 C957 1.398 . S
C958 C959 1.391 . S
C959 H947 0.950 . S
C959 C955 1.393 . S
C959 C958 1.391 . S
H960 C968 0.950 . S
H961 C973 0.950 . S
H962 C970 0.950 . S
H963 C972 0.950 . S
H964 C974 0.950 . S
H965 C976 0.950 . S
H966 C978 0.950 . S
H967 C979 0.950 . S
C968 H960 0.950 . S
C968 C969 1.386 . S
C968 C970 1.391 . S
C969 C968 1.386 . S
C969 C973 1.393 1_545 S
C970 H962 0.950 . S
C970 C968 1.391 . S
C970 C971 1.400 . S
C971 C970 1.400 . S
C971 C972 1.398 1_545 S
C971 C977 1.491 1_445 S
C972 H963 0.950 . S
C972 C971 1.398 1_565 S
C972 C973 1.391 . S
C973 H961 0.950 . S
C973 C969 1.393 1_565 S
C973 C972 1.391 . S
C974 H964 0.950 . S
C974 C975 1.386 . S
C974 C976 1.391 . S
C975 C974 1.386 . S
C975 C979 1.393 1_565 S
C976 H965 0.950 . S
C976 C974 1.391 . S
C976 C977 1.400 . S
C977 C971 1.491 1_665 S
C977 C976 1.400 . S
C977 C978 1.398 1_565 S
C978 H966 0.950 . S
C978 C977 1.398 1_545 S
C978 C979 1.391 . S
C979 H967 0.950 . S
C979 C975 1.393 1_545 S
C979 C978 1.391 . S
H980 C988 0.950 . S
H981 C993 0.941 1_655 S
H982 C990 0.950 . S
H983 C992 0.950 . S
H984 C994 0.950 . S
H985 C996 0.950 . S
H986 C998 0.950 . S
H987 C999 0.935 1_455 S
C988 H980 0.950 . S
C988 C989 1.386 . S
C988 C990 1.391 . S
C989 C988 1.386 . S
C989 C993 1.408 . S
C990 H982 0.950 . S
C990 C988 1.391 . S
C990 C991 1.400 . S
C991 C990 1.400 . S
C991 C992 1.398 1_455 S
C991 C997 1.491 1_455 S
C992 H983 0.950 . S
C992 C991 1.398 1_655 S
C992 C993 1.384 1_655 S
C993 H981 0.941 1_455 S
C993 C989 1.408 . S
C993 C992 1.384 1_455 S
C994 H984 0.950 . S
C994 C995 1.386 . S
C994 C996 1.391 . S
C995 C994 1.386 . S
C995 C999 1.418 . S
C996 H985 0.950 . S
C996 C994 1.391 . S
C996 C997 1.400 . S
C997 C991 1.491 1_655 S
C997 C996 1.400 . S
C997 C998 1.398 1_655 S
C998 H986 0.950 . S
C998 C997 1.398 1_455 S
C998 C999 1.380 1_455 S
C999 H987 0.935 1_655 S
C999 C995 1.418 . S
C999 C998 1.380 1_655 S
H1000 C1008 0.950 . S
H1001 C1013 0.950 . S
H1002 C1010 0.950 . S
H1003 C1012 0.950 . S
H1004 C1014 0.950 . S
H1005 C1016 0.950 . S
H1006 C1018 0.950 . S
H1007 C1019 0.950 . S
C1008 H1000 0.950 . S
C1008 C1009 1.386 . S
C1008 C1010 1.391 . S
C1009 C1008 1.386 . S
C1009 C1013 1.393 . S
C1010 H1002 0.950 . S
C1010 C1008 1.391 . S
C1010 C1011 1.400 . S
C1011 C1010 1.400 . S
C1011 C1012 1.398 . S
C1011 C1017 1.491 . S
C1012 H1003 0.950 . S
C1012 C1011 1.398 . S
C1012 C1013 1.391 . S
C1013 H1001 0.950 . S
C1013 C1009 1.393 . S
C1013 C1012 1.391 . S
C1014 H1004 0.950 . S
C1014 C1015 1.386 . S
C1014 C1016 1.391 . S
C1015 C1014 1.386 . S
C1015 C1019 1.393 . S
C1016 H1005 0.950 . S
C1016 C1014 1.391 . S
C1016 C1017 1.400 . S
C1017 C1011 1.491 . S
C1017 C1016 1.400 . S
C1017 C1018 1.398 . S
C1018 H1006 0.950 . S
C1018 C1017 1.398 . S
C1018 C1019 1.391 . S
C1019 H1007 0.950 . S
C1019 C1015 1.393 . S
C1019 C1018 1.391 . S
H1020 C1028 0.950 . S
H1021 C1033 0.950 . S
H1022 C1030 0.950 . S
H1023 C1032 0.950 . S
H1024 C1034 0.950 . S
H1025 C1036 0.950 . S
H1026 C1038 0.950 . S
H1027 C1039 0.950 . S
C1028 H1020 0.950 . S
C1028 C1029 1.386 . S
C1028 C1030 1.391 . S
C1029 C1028 1.386 . S
C1029 C1033 1.393 . S
C1030 H1022 0.950 . S
C1030 C1028 1.391 . S
C1030 C1031 1.400 . S
C1031 C1030 1.400 . S
C1031 C1032 1.398 . S
C1031 C1037 1.491 1_545 S
C1032 H1023 0.950 . S
C1032 C1031 1.398 . S
C1032 C1033 1.391 . S
C1033 H1021 0.950 . S
C1033 C1029 1.393 . S
C1033 C1032 1.391 . S
C1034 H1024 0.950 . S
C1034 C1035 1.386 . S
C1034 C1036 1.391 . S
C1035 C1034 1.386 . S
C1035 C1039 1.393 . S
C1036 H1025 0.950 . S
C1036 C1034 1.391 . S
C1036 C1037 1.400 . S
C1037 C1031 1.491 1_565 S
C1037 C1036 1.400 . S
C1037 C1038 1.398 . S
C1038 H1026 0.950 . S
C1038 C1037 1.398 . S
C1038 C1039 1.391 . S
C1039 H1027 0.950 . S
C1039 C1035 1.393 . S
C1039 C1038 1.391 . S
H1040 C1048 0.950 . S
H1041 C1053 0.950 . S
H1042 C1050 0.950 . S
H1043 C1052 0.950 . S
H1044 C1054 0.950 . S
H1045 C1056 0.950 . S
H1046 C1058 0.950 . S
H1047 C1059 0.950 . S
C1048 H1040 0.950 . S
C1048 C1049 1.386 . S
C1048 C1050 1.391 . S
C1049 C1048 1.386 . S
C1049 C1053 1.393 . S
C1050 H1042 0.950 . S
C1050 C1048 1.391 . S
C1050 C1051 1.400 . S
C1051 C1050 1.400 . S
C1051 C1052 1.398 . S
C1051 C1057 1.491 1_655 S
C1052 H1043 0.950 . S
C1052 C1051 1.398 . S
C1052 C1053 1.391 . S
C1053 H1041 0.950 . S
C1053 C1049 1.393 . S
C1053 C1052 1.391 . S
C1054 H1044 0.950 . S
C1054 C1055 1.386 . S
C1054 C1056 1.391 . S
C1055 C1054 1.386 . S
C1055 C1059 1.393 . S
C1056 H1045 0.950 . S
C1056 C1054 1.391 . S
C1056 C1057 1.400 . S
C1057 C1051 1.491 1_455 S
C1057 C1056 1.400 . S
C1057 C1058 1.398 . S
C1058 H1046 0.950 . S
C1058 C1057 1.398 . S
C1058 C1059 1.391 . S
C1059 H1047 0.950 . S
C1059 C1055 1.393 . S
C1059 C1058 1.391 . S
H1060 C1068 0.950 . S
H1061 C1073 0.950 . S
H1062 C1070 0.950 . S
H1063 C1072 0.950 . S
H1064 C1074 0.950 . S
H1065 C1076 0.950 . S
H1066 C1078 0.950 . S
H1067 C1079 0.950 . S
C1068 H1060 0.950 . S
C1068 C1069 1.386 . S
C1068 C1070 1.391 . S
C1069 C1068 1.386 . S
C1069 C1073 1.393 . S
C1070 H1062 0.950 . S
C1070 C1068 1.391 . S
C1070 C1071 1.400 . S
C1071 C1070 1.400 . S
C1071 C1072 1.398 . S
C1071 C1077 1.491 . S
C1072 H1063 0.950 . S
C1072 C1071 1.398 . S
C1072 C1073 1.391 . S
C1073 H1061 0.950 . S
C1073 C1069 1.393 . S
C1073 C1072 1.391 . S
C1074 H1064 0.950 . S
C1074 C1075 1.386 . S
C1074 C1076 1.391 . S
C1075 C1074 1.386 . S
C1075 C1079 1.393 . S
C1076 H1065 0.950 . S
C1076 C1074 1.391 . S
C1076 C1077 1.400 . S
C1077 C1071 1.491 . S
C1077 C1076 1.400 . S
C1077 C1078 1.398 . S
C1078 H1066 0.950 . S
C1078 C1077 1.398 . S
C1078 C1079 1.391 . S
C1079 H1067 0.950 . S
C1079 C1075 1.393 . S
C1079 C1078 1.391 . S
H1080 C1088 0.955 . S
H1081 C1093 0.950 . S
H1082 C1090 0.950 . S
H1083 C1092 0.950 . S
H1084 C1094 0.962 . S
H1085 C1096 0.950 . S
H1086 C1098 0.950 . S
H1087 C1099 0.950 . S
C1088 H1080 0.955 . S
C1088 C1089 1.377 1_565 S
C1088 C1090 1.395 . S
C1089 C1088 1.377 1_545 S
C1089 C1093 1.393 . S
C1090 H1082 0.950 . S
C1090 C1088 1.395 . S
C1090 C1091 1.400 1_565 S
C1091 C1090 1.400 1_545 S
C1091 C1092 1.398 . S
C1091 C1097 1.491 1_545 S
C1092 H1083 0.950 . S
C1092 C1091 1.398 . S
C1092 C1093 1.391 . S
C1093 H1081 0.950 . S
C1093 C1089 1.393 . S
C1093 C1092 1.391 . S
C1094 H1084 0.962 . S
C1094 C1095 1.366 1_545 S
C1094 C1096 1.399 . S
C1095 C1094 1.366 1_565 S
C1095 C1099 1.393 . S
C1096 H1085 0.950 . S
C1096 C1094 1.399 . S
C1096 C1097 1.400 1_545 S
C1097 C1091 1.491 1_565 S
C1097 C1096 1.400 1_565 S
C1097 C1098 1.398 . S
C1098 H1086 0.950 . S
C1098 C1097 1.398 . S
C1098 C1099 1.391 . S
C1099 H1087 0.950 . S
C1099 C1095 1.393 . S
C1099 C1098 1.391 . S
H1100 C1108 0.950 1_455 S
H1101 C1113 0.950 . S
H1102 C1110 0.950 . S
H1103 C1112 0.950 . S
H1104 C1114 0.950 1_655 S
H1105 C1116 0.950 . S
H1106 C1118 0.950 . S
H1107 C1119 0.950 . S
C1108 H1100 0.950 1_655 S
C1108 C1109 1.386 . S
C1108 C1110 1.391 1_655 S
C1109 C1108 1.386 . S
C1109 C1113 1.393 . S
C1110 H1102 0.950 . S
C1110 C1108 1.391 1_455 S
C1110 C1111 1.400 1_455 S
C1111 C1110 1.400 1_655 S
C1111 C1112 1.398 . S
C1111 C1117 1.491 1_665 S
C1112 H1103 0.950 . S
C1112 C1111 1.398 . S
C1112 C1113 1.391 . S
C1113 H1101 0.950 . S
C1113 C1109 1.393 . S
C1113 C1112 1.391 . S
C1114 H1104 0.950 1_455 S
C1114 C1115 1.386 . S
C1114 C1116 1.391 1_455 S
C1115 C1114 1.386 . S
C1115 C1119 1.393 . S
C1116 H1105 0.950 . S
C1116 C1114 1.391 1_655 S
C1116 C1117 1.400 1_655 S
C1117 C1111 1.491 1_445 S
C1117 C1116 1.400 1_455 S
C1117 C1118 1.398 . S
C1118 H1106 0.950 . S
C1118 C1117 1.398 . S
C1118 C1119 1.391 . S
C1119 H1107 0.950 . S
C1119 C1115 1.393 . S
C1119 C1118 1.391 . S
C649 C602 1.636 . S
C655 C2 1.634 . S
C669 C482 1.639 . S
C675 C42 1.635 . S
C689 C82 1.639 . S
C695 C522 1.639 . S
C709 C122 1.635 . S
C715 C562 1.635 . S
C729 C162 1.637 . S
C735 C362 1.635 . S
C749 C202 1.636 . S
C755 C402 1.639 . S
C769 C242 1.635 . S
C775 C442 1.639 . S
C789 C282 1.635 . S
C795 C322 1.635 . S
C809 C21 1.683 . S
C815 C181 1.683 . S
C829 C221 1.683 . S
C835 C61 1.682 . S
C849 C261 1.683 . S
C855 C101 1.682 . S
C869 C141 1.684 . S
C875 C301 1.683 . S
C889 C341 1.685 . S
C895 C501 1.683 . S
C909 C381 1.685 . S
C915 C541 1.684 . S
C929 C421 1.684 . S
C935 C581 1.683 . S
C949 C461 1.683 . S
C955 C621 1.683 . S
C969 C15 1.895 . S
C975 C415 1.897 . S
C989 C455 1.903 . S
C995 C55 1.905 . S
C1009 C335 1.889 . S
C1015 C95 1.890 . S
C1029 C375 1.893 . S
C1035 C135 1.895 . S
C1049 C575 1.903 . S
C1055 C175 1.905 . S
C1069 C215 1.906 . S
C1075 C615 1.907 . S
C1089 C255 1.903 . S
C1095 C495 1.901 . S
C1109 C295 1.892 . S
C1115 C535 1.890 . S
