# Generated by pormake.
# Topology unf, (4)-cn, num edge types: 1
# Building blocks:
#     Node 0, Type 0, BuildingBlock: KUFVIS_clean_sbu_0, # of connection points: 4
#     Node 1, Type 0, BuildingBlock: KUFVIS_clean_sbu_0, # of connection points: 4
#     Node 2, Type 0, BuildingBlock: KUFVIS_clean_sbu_0, # of connection points: 4
#     Node 3, Type 0, BuildingBlock: KUFVIS_clean_sbu_0, # of connection points: 4
#     Node 4, Type 0, BuildingBlock: KUFVIS_clean_sbu_0, # of connection points: 4
#     Node 5, Type 0, BuildingBlock: KUFVIS_clean_sbu_0, # of connection points: 4
#     Node 6, Type 0, BuildingBlock: KUFVIS_clean_sbu_0, # of connection points: 4
#     Node 7, Type 0, BuildingBlock: KUFVIS_clean_sbu_0, # of connection points: 4
#     Node 8, Type 0, BuildingBlock: KUFVIS_clean_sbu_0, # of connection points: 4
#     Node 9, Type 0, BuildingBlock: KUFVIS_clean_sbu_0, # of connection points: 4
#     Node 10, Type 0, BuildingBlock: KUFVIS_clean_sbu_0, # of connection points: 4
#     Node 11, Type 0, BuildingBlock: KUFVIS_clean_sbu_0, # of connection points: 4
#     Edge 12, Type (0, 0), BuildingBlock: KIFKEQ_clean_linker_1, # of connection points: 2
#     Edge 13, Type (0, 0), BuildingBlock: KIFKEQ_clean_linker_1, # of connection points: 2
#     Edge 14, Type (0, 0), BuildingBlock: KIFKEQ_clean_linker_1, # of connection points: 2
#     Edge 15, Type (0, 0), BuildingBlock: KIFKEQ_clean_linker_1, # of connection points: 2
#     Edge 16, Type (0, 0), BuildingBlock: KIFKEQ_clean_linker_1, # of connection points: 2
#     Edge 17, Type (0, 0), BuildingBlock: KIFKEQ_clean_linker_1, # of connection points: 2
#     Edge 18, Type (0, 0), BuildingBlock: KIFKEQ_clean_linker_1, # of connection points: 2
#     Edge 19, Type (0, 0), BuildingBlock: KIFKEQ_clean_linker_1, # of connection points: 2
#     Edge 20, Type (0, 0), BuildingBlock: KIFKEQ_clean_linker_1, # of connection points: 2
#     Edge 21, Type (0, 0), BuildingBlock: KIFKEQ_clean_linker_1, # of connection points: 2
#     Edge 22, Type (0, 0), BuildingBlock: KIFKEQ_clean_linker_1, # of connection points: 2
#     Edge 23, Type (0, 0), BuildingBlock: KIFKEQ_clean_linker_1, # of connection points: 2
#     Edge 24, Type (0, 0), BuildingBlock: KIFKEQ_clean_linker_1, # of connection points: 2
#     Edge 25, Type (0, 0), BuildingBlock: KIFKEQ_clean_linker_1, # of connection points: 2
#     Edge 26, Type (0, 0), BuildingBlock: KIFKEQ_clean_linker_1, # of connection points: 2
#     Edge 27, Type (0, 0), BuildingBlock: KIFKEQ_clean_linker_1, # of connection points: 2
#     Edge 28, Type (0, 0), BuildingBlock: KIFKEQ_clean_linker_1, # of connection points: 2
#     Edge 29, Type (0, 0), BuildingBlock: KIFKEQ_clean_linker_1, # of connection points: 2
#     Edge 30, Type (0, 0), BuildingBlock: KIFKEQ_clean_linker_1, # of connection points: 2
#     Edge 31, Type (0, 0), BuildingBlock: KIFKEQ_clean_linker_1, # of connection points: 2
#     Edge 32, Type (0, 0), BuildingBlock: KIFKEQ_clean_linker_1, # of connection points: 2
#     Edge 33, Type (0, 0), BuildingBlock: KIFKEQ_clean_linker_1, # of connection points: 2
#     Edge 34, Type (0, 0), BuildingBlock: KIFKEQ_clean_linker_1, # of connection points: 2
#     Edge 35, Type (0, 0), BuildingBlock: KIFKEQ_clean_linker_1, # of connection points: 2
# Relax obj value: 0.237
# Max RMSD: 0.188
# Mean RMSD: 0.183
data_MOF--net-unf--node1-KUFVIS_clean_sbu_0--edge1-KIFKEQ_clean_linker_1
_symmetry_space_group_name_H-M    P1
_symmetry_Int_Tables_number       1
_symmetry_cell_setting            triclinic
loop_
_symmetry_equiv_pos_as_xyz
'x, y, z'
_cell_length_a     38.579325
_cell_length_b     39.279793
_cell_length_c     36.003328
_cell_angle_alpha  90.070519
_cell_angle_beta   89.813539
_cell_angle_gamma 119.39439
loop_
_atom_site_label
_atom_site_type_symbol
_atom_site_fract_x
_atom_site_fract_y
_atom_site_fract_z
_atom_type_partial_charge
Mn0 Mn 0.06164 0.37767 0.08914 0.0
Mn1 Mn 0.03499 0.29168 0.13172 0.0
C2 C 0.00864 0.32132 0.06726 0.0
C3 C 0.05409 0.43245 0.08178 0.0
C4 C 0.10053 0.32695 0.07424 0.0
O5 O 0.09407 0.39566 0.13672 0.0
O6 O 0.07485 0.33647 0.16159 0.0
C7 C 0.99283 0.30535 0.19384 0.0
N8 N 0.99254 0.2829 0.16485 0.0
C9 C 0.92311 0.2372 0.17449 0.0
C10 C 0.92277 0.25966 0.20464 0.0
C11 C 0.95777 0.29392 0.21431 0.0
C12 C 0.95892 0.25012 0.15507 0.0
H13 H 0.01955 0.33188 0.20118 0.0
C14 C 0.09572 0.37379 0.16198 0.0
O15 O 0.08551 0.43207 0.06906 0.0
O16 O 0.03005 0.40312 0.10217 0.0
N17 N 0.99673 0.2451 0.10712 0.0
C18 C 0.0028 0.22527 0.07907 0.0
C19 C 0.97092 0.18993 0.06643 0.0
C20 C 0.93338 0.17487 0.08335 0.0
C21 C 0.92833 0.19483 0.11335 0.0
C22 C 0.96128 0.22979 0.12486 0.0
H23 H 0.0316 0.23667 0.06602 0.0
O24 O 0.02573 0.35218 0.04671 0.0
O25 O 0.02153 0.32463 0.10126 0.0
O26 O 0.09929 0.35869 0.06961 0.0
O27 O 0.0776 0.29955 0.09648 0.0
C28 C 0.89197 0.18131 0.13241 0.0
C29 C 0.88932 0.20256 0.16288 0.0
H30 H 0.89578 0.25094 0.2205 0.0
H31 H 0.9577 0.31152 0.23743 0.0
H32 H 0.97522 0.17443 0.0436 0.0
H33 H 0.90877 0.14778 0.07333 0.0
H34 H 0.86588 0.15456 0.12393 0.0
H35 H 0.8612 0.19189 0.17732 0.0
Mn36 Mn 0.61904 0.69339 0.07608 0.0
Mn37 Mn 0.70634 0.75449 0.11776 0.0
C38 C 0.67764 0.69984 0.05297 0.0
C39 C 0.56461 0.63129 0.06789 0.0
C40 C 0.6652 0.78186 0.06387 0.0
O41 O 0.60046 0.70556 0.12536 0.0
O42 O 0.66075 0.74415 0.15038 0.0
C43 C 0.70072 0.69941 0.17657 0.0
N44 N 0.72088 0.72328 0.14757 0.0
C45 C 0.77321 0.70697 0.1525 0.0
C46 C 0.75315 0.68241 0.18258 0.0
C47 C 0.71671 0.67857 0.19461 0.0
C48 C 0.75578 0.72693 0.13558 0.0
H49 H 0.6726 0.69621 0.18575 0.0
C50 C 0.62271 0.72708 0.15163 0.0
O51 O 0.5639 0.66232 0.0564 0.0
O52 O 0.59489 0.6368 0.08774 0.0
N53 N 0.75364 0.76774 0.08994 0.0
C54 C 0.77001 0.79389 0.06158 0.0
C55 C 0.80682 0.80158 0.04662 0.0
C56 C 0.82674 0.78284 0.06138 0.0
C57 C 0.81003 0.75719 0.09148 0.0
C58 C 0.77344 0.75096 0.10544 0.0
H59 H 0.7549 0.8085 0.05023 0.0
O60 O 0.64605 0.68547 0.03264 0.0
O61 O 0.67388 0.70856 0.08711 0.0
O62 O 0.63524 0.74838 0.05717 0.0
O63 O 0.69319 0.78776 0.08639 0.0
C64 C 0.82818 0.73748 0.10813 0.0
C65 C 0.80971 0.71227 0.13853 0.0
H66 H 0.76537 0.66627 0.19657 0.0
H67 H 0.70097 0.65955 0.21771 0.0
H68 H 0.81972 0.82175 0.02365 0.0
H69 H 0.85493 0.78853 0.04953 0.0
H70 H 0.8563 0.74144 0.09772 0.0
H71 H 0.82387 0.69716 0.15101 0.0
Mn72 Mn 0.31594 0.93008 0.09009 0.0
Mn73 Mn 0.33011 0.85334 0.0771 0.0
C74 C 0.37989 0.93935 0.08653 0.0
C75 C 0.30922 0.98057 0.06376 0.0
C76 C 0.29566 0.86701 0.14827 0.0
O77 O 0.26349 0.88865 0.06845 0.0
O78 O 0.27893 0.84173 0.05323 0.0
C79 C 0.3404 0.85492 0.9955 0.0
N80 N 0.35542 0.85764 0.03024 0.0
C81 C 0.41889 0.87099 0.00546 0.0
C82 C 0.4041 0.86837 0.96942 0.0
C83 C 0.36465 0.8602 0.96444 0.0
C84 C 0.39317 0.86496 0.03535 0.0
H85 H 0.31025 0.84912 0.99152 0.0
C86 C 0.25557 0.8564 0.05273 0.0
O87 O 0.29607 0.96817 0.09712 0.0
O88 O 0.32522 0.96317 0.04591 0.0
N89 N 0.37966 0.86357 0.09856 0.0
C90 C 0.39004 0.86734 0.13508 0.0
C91 C 0.42884 0.87635 0.14482 0.0
C92 C 0.4566 0.88161 0.11695 0.0
C93 C 0.44526 0.87769 0.07954 0.0
C94 C 0.40604 0.86819 0.07152 0.0
H95 H 0.36897 0.86377 0.1566 0.0
O96 O 0.3732 0.96427 0.10446 0.0
O97 O 0.34826 0.90884 0.07466 0.0
O98 O 0.30175 0.90108 0.1398 0.0
O99 O 0.30431 0.84648 0.12649 0.0
C100 C 0.47157 0.88359 0.04989 0.0
C101 C 0.4584 0.88026 0.01288 0.0
H102 H 0.42286 0.87291 0.9454 0.0
H103 H 0.35307 0.85829 0.93672 0.0
H104 H 0.43742 0.8795 0.17375 0.0
H105 H 0.48661 0.88896 0.12457 0.0
H106 H 0.50212 0.89112 0.05524 0.0
H107 H 0.47903 0.88532 0.99032 0.0
Mn108 Mn 0.60919 0.92348 0.41658 0.0
Mn109 Mn 0.51707 0.84997 0.43236 0.0
C110 C 0.55664 0.93599 0.42085 0.0
C111 C 0.66844 0.9724 0.4413 0.0
C112 C 0.56269 0.85962 0.36025 0.0
O113 O 0.6181 0.88077 0.43841 0.0
O114 O 0.55551 0.83671 0.45614 0.0
C115 C 0.5109 0.85489 0.51395 0.0
N116 N 0.49802 0.85697 0.47928 0.0
C117 C 0.45062 0.87407 0.50416 0.0
C118 C 0.46336 0.87209 0.54012 0.0
C119 C 0.49357 0.86237 0.54502 0.0
C120 C 0.46864 0.86583 0.47426 0.0
H121 H 0.53448 0.84793 0.51784 0.0
C122 C 0.59328 0.84962 0.45543 0.0
O123 O 0.66742 0.95906 0.40801 0.0
O124 O 0.63551 0.95692 0.45998 0.0
N125 N 0.4788 0.8618 0.41101 0.0
C126 C 0.47161 0.86481 0.37448 0.0
C127 C 0.44279 0.87519 0.36478 0.0
C128 C 0.42185 0.88259 0.39272 0.0
C129 C 0.42982 0.8794 0.43013 0.0
C130 C 0.45849 0.86844 0.43812 0.0
H131 H 0.48792 0.85958 0.3529 0.0
O132 O 0.58838 0.95962 0.4023 0.0
O133 O 0.55642 0.90495 0.43315 0.0
O134 O 0.59167 0.89352 0.36751 0.0
O135 O 0.53401 0.84047 0.38298 0.0
C136 C 0.41105 0.88749 0.4598 0.0
C137 C 0.42146 0.88485 0.49679 0.0
H138 H 0.45043 0.87833 0.56414 0.0
H139 H 0.50371 0.86097 0.57268 0.0
H140 H 0.43693 0.87775 0.33584 0.0
H141 H 0.39995 0.891 0.38512 0.0
H142 H 0.38889 0.8962 0.45447 0.0
H143 H 0.4072 0.89163 0.51934 0.0
Mn144 Mn 0.06475 0.69141 0.42767 0.0
Mn145 Mn 0.04494 0.75981 0.39343 0.0
C146 C 0.01224 0.69705 0.45059 0.0
C147 C 0.05316 0.62726 0.42958 0.0
C148 C 0.10441 0.77719 0.45406 0.0
O149 O 0.0988 0.70773 0.3805 0.0
O150 O 0.08878 0.75789 0.36606 0.0
C151 C 0.01215 0.71724 0.3229 0.0
N152 N 0.00766 0.73418 0.35424 0.0
C153 C 0.94044 0.71626 0.33767 0.0
C154 C 0.94442 0.69877 0.30516 0.0
C155 C 0.98042 0.69922 0.29779 0.0
C156 C 0.973 0.73356 0.36177 0.0
H157 H 0.03967 0.71737 0.31711 0.0
C158 C 0.1067 0.7381 0.36149 0.0
O159 O 0.08494 0.65566 0.44446 0.0
O160 O 0.03132 0.63705 0.41008 0.0
N161 N 0.00366 0.76629 0.41621 0.0
C162 C 0.00599 0.78772 0.44686 0.0
C163 C 0.97284 0.7912 0.45761 0.0
C164 C 0.93803 0.77358 0.43616 0.0
C165 C 0.93707 0.75345 0.40365 0.0
C166 C 0.9711 0.75109 0.39429 0.0
H167 H 0.03273 0.80145 0.46333 0.0
O168 O 0.02746 0.67982 0.46962 0.0
O169 O 0.02689 0.70929 0.41748 0.0
O170 O 0.10383 0.74424 0.4523 0.0
O171 O 0.08201 0.78573 0.43455 0.0
C172 C 0.90384 0.73602 0.37994 0.0
C173 C 0.90547 0.7173 0.34704 0.0
H174 H 0.92005 0.68493 0.28567 0.0
H175 H 0.98371 0.68572 0.27279 0.0
H176 H 0.97408 0.80732 0.48243 0.0
H177 H 0.91243 0.77611 0.44466 0.0
H178 H 0.87699 0.73707 0.38663 0.0
H179 H 0.87978 0.70411 0.32897 0.0
Mn180 Mn 0.30947 0.37152 0.42049 0.0
Mn181 Mn 0.24809 0.28844 0.3746 0.0
C182 C 0.30181 0.3129 0.44099 0.0
C183 C 0.37292 0.42406 0.42947 0.0
C184 C 0.21926 0.32699 0.43021 0.0
O185 O 0.29768 0.39201 0.37285 0.0
O186 O 0.26019 0.33474 0.34344 0.0
C187 C 0.30597 0.2956 0.31678 0.0
N188 N 0.28064 0.27489 0.34486 0.0
C189 C 0.29771 0.22384 0.33934 0.0
C190 C 0.32377 0.24447 0.31016 0.0
C191 C 0.32795 0.28053 0.29887 0.0
C192 C 0.27661 0.24032 0.35612 0.0
H193 H 0.30951 0.32348 0.30824 0.0
C194 C 0.27711 0.37206 0.34516 0.0
O195 O 0.34169 0.42508 0.44175 0.0
O196 O 0.36671 0.39465 0.40871 0.0
N197 N 0.23317 0.24084 0.40079 0.0
C198 C 0.20544 0.22384 0.4282 0.0
C199 C 0.19728 0.18734 0.44238 0.0
C200 C 0.21718 0.16842 0.42781 0.0
C201 C 0.24442 0.18579 0.39861 0.0
C202 C 0.25104 0.22202 0.38538 0.0
H203 H 0.19002 0.23824 0.43945 0.0
O204 O 0.31674 0.34313 0.46248 0.0
O205 O 0.29362 0.31821 0.40712 0.0
O206 O 0.25334 0.35529 0.4391 0.0
O207 O 0.21365 0.30086 0.406 0.0
C208 C 0.26531 0.16862 0.38213 0.0
C209 C 0.29203 0.18769 0.3526 0.0
H210 H 0.34082 0.23298 0.29633 0.0
H211 H 0.34814 0.29672 0.27649 0.0
H212 H 0.17586 0.17392 0.46463 0.0
H213 H 0.21111 0.14046 0.43907 0.0
H214 H 0.26108 0.14079 0.39199 0.0
H215 H 0.30801 0.17427 0.34023 0.0
Mn216 Mn 0.93697 0.62843 0.92126 0.0
Mn217 Mn 0.96407 0.70883 0.86872 0.0
C218 C 0.99353 0.68569 0.9355 0.0
C219 C 0.9402 0.57265 0.9363 0.0
C220 C 0.9001 0.68138 0.92783 0.0
O221 O 0.90161 0.60608 0.87559 0.0
O222 O 0.9245 0.66138 0.84172 0.0
C223 C 0.00653 0.69104 0.80988 0.0
N224 N 0.00662 0.71546 0.83681 0.0
C225 C 0.0756 0.76144 0.82533 0.0
C226 C 0.07616 0.73694 0.79725 0.0
C227 C 0.04148 0.70156 0.78954 0.0
C228 C 0.03984 0.74951 0.84452 0.0
H229 H 0.98003 0.66369 0.80408 0.0
C230 C 0.90156 0.6246 0.84642 0.0
O231 O 0.91111 0.57764 0.94804 0.0
O232 O 0.96461 0.59781 0.91247 0.0
N233 N 0.00222 0.7569 0.89121 0.0
C234 C 0.99683 0.77691 0.91953 0.0
C235 C 0.02886 0.81268 0.93112 0.0
C236 C 0.06591 0.82768 0.91323 0.0
C237 C 0.07047 0.80698 0.88361 0.0
C238 C 0.0374 0.77164 0.8731 0.0
H239 H 0.96845 0.76545 0.93345 0.0
O240 O 0.97648 0.65841 0.96009 0.0
O241 O 0.97783 0.67825 0.90245 0.0
O242 O 0.90295 0.65194 0.93849 0.0
O243 O 0.92078 0.70436 0.90157 0.0
C244 C 0.10667 0.81974 0.86445 0.0
C245 C 0.10925 0.79697 0.83535 0.0
H246 H 0.10311 0.74486 0.78162 0.0
H247 H 0.04174 0.68239 0.76806 0.0
H248 H 0.02506 0.82854 0.95392 0.0
H249 H 0.09065 0.85507 0.9225 0.0
H250 H 0.1328 0.84687 0.87205 0.0
H251 H 0.13732 0.80694 0.82102 0.0
Mn252 Mn 0.3763 0.30782 0.92658 0.0
Mn253 Mn 0.29217 0.24589 0.88109 0.0
C254 C 0.31601 0.29976 0.94639 0.0
C255 C 0.42816 0.37147 0.93548 0.0
C256 C 0.33201 0.21908 0.93751 0.0
O257 O 0.39803 0.2969 0.87891 0.0
O258 O 0.33975 0.25803 0.85025 0.0
C259 C 0.29824 0.30044 0.82155 0.0
N260 N 0.2774 0.27603 0.84998 0.0
C261 C 0.22326 0.28925 0.84174 0.0
C262 C 0.24399 0.31427 0.81214 0.0
C263 C 0.28167 0.31994 0.80206 0.0
C264 C 0.24122 0.27053 0.86005 0.0
H265 H 0.32733 0.30508 0.8139 0.0
C266 C 0.37784 0.27593 0.8515 0.0
O267 O 0.4306 0.34171 0.94822 0.0
O268 O 0.39814 0.36369 0.91434 0.0
N269 N 0.24351 0.23117 0.90713 0.0
C270 C 0.22756 0.20629 0.93648 0.0
C271 C 0.19013 0.19791 0.95037 0.0
C272 C 0.16923 0.21466 0.9336 0.0
C273 C 0.18575 0.23928 0.90278 0.0
C274 C 0.22306 0.2464 0.89003 0.0
H275 H 0.24347 0.1933 0.94946 0.0
O276 O 0.34642 0.31431 0.96825 0.0
O277 O 0.3219 0.29149 0.91273 0.0
O278 O 0.36109 0.25283 0.94559 0.0
O279 O 0.30525 0.21347 0.91359 0.0
C280 C 0.16693 0.25751 0.88453 0.0
C281 C 0.18571 0.28254 0.85409 0.0
H282 H 0.23137 0.32947 0.79712 0.0
H283 H 0.29795 0.33937 0.77938 0.0
H284 H 0.17749 0.17871 0.97405 0.0
H285 H 0.14055 0.20843 0.94463 0.0
H286 H 0.13817 0.25273 0.89388 0.0
H287 H 0.17109 0.29663 0.84048 0.0
Mn288 Mn 0.6886 0.07278 0.91617 0.0
Mn289 Mn 0.74958 0.04925 0.86867 0.0
C290 C 0.69534 0.0204 0.93473 0.0
C291 C 0.626 0.06502 0.92791 0.0
C292 C 0.77869 0.1138 0.92597 0.0
O293 O 0.70006 0.10541 0.86887 0.0
O294 O 0.73803 0.08508 0.83878 0.0
C295 C 0.692 0.00286 0.81001 0.0
N296 N 0.71692 0.0054 0.8379 0.0
C297 C 0.69888 0.93778 0.83062 0.0
C298 C 0.67332 0.93454 0.80157 0.0
C299 C 0.66983 0.96722 0.79127 0.0
C300 C 0.72027 0.97406 0.84823 0.0
H301 H 0.6889 0.02777 0.80227 0.0
C302 C 0.72066 0.10569 0.84088 0.0
O303 O 0.65789 0.09575 0.93956 0.0
O304 O 0.63099 0.04178 0.90567 0.0
N305 N 0.76355 0.01474 0.89369 0.0
C306 C 0.79065 0.02317 0.92131 0.0
C307 C 0.79792 0.99369 0.9347 0.0
C308 C 0.77774 0.95607 0.91918 0.0
C309 C 0.75108 0.9485 0.88987 0.0
C310 C 0.74535 0.97915 0.87744 0.0
H311 H 0.80625 0.05203 0.93335 0.0
O312 O 0.68133 0.03636 0.95723 0.0
O313 O 0.70358 0.03444 0.9011 0.0
O314 O 0.74469 0.10955 0.93452 0.0
O315 O 0.78447 0.09374 0.90113 0.0
C316 C 0.72992 0.91174 0.87253 0.0
C317 C 0.70376 0.90636 0.84299 0.0
H318 H 0.65608 0.90708 0.78712 0.0
H319 H 0.64998 0.96489 0.76902 0.0
H320 H 0.81886 -0.00012 0.95707 0.0
H321 H 0.78312 0.9333 0.92983 0.0
H322 H 0.73349 0.8874 0.88173 0.0
H323 H 0.68755 0.87793 0.82996 0.0
Mn324 Mn 0.38056 0.06868 0.58896 0.0
Mn325 Mn 0.29737 0.04463 0.63901 0.0
C326 C 0.32249 0.01269 0.57483 0.0
C327 C 0.43716 0.06405 0.57701 0.0
C328 C 0.32742 0.10512 0.57761 0.0
O329 O 0.40226 0.10527 0.63369 0.0
O330 O 0.34522 0.08368 0.66631 0.0
C331 C 0.31329 0.0039 0.70011 0.0
N332 N 0.28911 0.00359 0.67249 0.0
C333 C 0.2407 0.93673 0.68562 0.0
C334 C 0.26493 0.93644 0.71444 0.0
C335 C 0.30142 0.97015 0.72165 0.0
C336 C 0.2541 0.97122 0.66512 0.0
H337 H 0.34148 0.02966 0.70555 0.0
C338 C 0.38277 0.10599 0.66217 0.0
O339 O 0.43317 0.0926 0.56349 0.0
O340 O 0.41077 0.0415 0.60108 0.0
N341 N 0.24845 0.00718 0.61653 0.0
C342 C 0.22838 0.01244 0.58803 0.0
C343 C 0.19131 0.98144 0.57719 0.0
C344 C 0.17498 0.94561 0.59616 0.0
C345 C 0.19561 0.94129 0.62614 0.0
C346 C 0.23231 0.9733 0.63582 0.0
H347 H 0.24074 0.03995 0.57341 0.0
O348 O 0.35119 0.0283 0.55093 0.0
O349 O 0.32892 0.02951 0.60725 0.0
O350 O 0.35741 0.10155 0.56837 0.0
O351 O 0.3036 0.08628 0.60421 0.0
C352 C 0.18139 0.90637 0.64657 0.0
C353 C 0.20398 0.90405 0.67622 0.0
H354 H 0.25591 0.91045 0.73107 0.0
H355 H 0.32038 0.97009 0.7437 0.0
H356 H 0.17546 0.98509 0.55418 0.0
H357 H 0.14657 0.92165 0.58749 0.0
H358 H 0.15323 0.88105 0.63958 0.0
H359 H 0.19285 0.87697 0.69157 0.0
Mn360 Mn 0.918 0.3046 0.56872 0.0
Mn361 Mn 0.94701 0.25024 0.61877 0.0
C362 C 0.97354 0.30121 0.55122 0.0
C363 C 0.92292 0.36503 0.55618 0.0
C364 C 0.88125 0.21574 0.56132 0.0
O365 O 0.88405 0.2928 0.6157 0.0
O366 O 0.90795 0.25919 0.64724 0.0
C367 C 0.99075 0.31002 0.67622 0.0
N368 N 0.9903 0.28532 0.6494 0.0
C369 C 0.05993 0.30726 0.65821 0.0
C370 C 0.06104 0.33266 0.68617 0.0
C371 C 0.02631 0.33408 0.69516 0.0
C372 C 0.02363 0.28398 0.64031 0.0
H373 H 0.96422 0.31148 0.68296 0.0
C374 C 0.88498 0.27397 0.64424 0.0
O375 O 0.89302 0.33283 0.54398 0.0
O376 O 0.94706 0.36156 0.57872 0.0
N377 N 0.98472 0.23877 0.5954 0.0
C378 C 0.97815 0.2114 0.56896 0.0
C379 C 0.0098 0.20596 0.55704 0.0
C380 C 0.04765 0.22818 0.5729 0.0
C381 C 0.05328 0.25503 0.60112 0.0
C382 C 0.02053 0.25892 0.61209 0.0
H383 H 0.94909 0.19416 0.55675 0.0
O384 O 0.95603 0.31284 0.52807 0.0
O385 O 0.95921 0.29345 0.58485 0.0
O386 O 0.8828 0.24785 0.55171 0.0
O387 O 0.9034 0.21328 0.58642 0.0
C388 C 0.09011 0.27812 0.61878 0.0
C389 C 0.09346 0.30431 0.64723 0.0
H390 H 0.08843 0.35132 0.70079 0.0
H391 H 0.02699 0.35378 0.71656 0.0
H392 H 0.00508 0.18484 0.53556 0.0
H393 H 0.07208 0.2242 0.56338 0.0
H394 H 0.11605 0.27601 0.61067 0.0
H395 H 0.12196 0.32201 0.66052 0.0
Mn396 Mn 0.68438 0.62154 0.5894 0.0
Mn397 Mn 0.73646 0.70333 0.6405 0.0
C398 C 0.6828 0.67753 0.57432 0.0
C399 C 0.62621 0.56442 0.5756 0.0
C400 C 0.77363 0.67651 0.58151 0.0
O401 O 0.69916 0.60092 0.63527 0.0
O402 O 0.73038 0.65691 0.66826 0.0
C403 C 0.67654 0.68497 0.6998 0.0
N404 N 0.70015 0.7093 0.67245 0.0
C405 C 0.67557 0.75412 0.68344 0.0
C406 C 0.65121 0.7297 0.71193 0.0
C407 C 0.65167 0.69496 0.7201 0.0
C408 C 0.69986 0.74274 0.66428 0.0
H409 H 0.67659 0.6581 0.70596 0.0
C410 C 0.71764 0.62024 0.66411 0.0
O411 O 0.66051 0.57027 0.56357 0.0
O412 O 0.62642 0.58961 0.59907 0.0
N413 N 0.74472 0.75055 0.61729 0.0
C414 C 0.76963 0.77061 0.58868 0.0
C415 C 0.77225 0.8058 0.57666 0.0
C416 C 0.74963 0.82022 0.59444 0.0
C417 C 0.72493 0.79954 0.62439 0.0
C418 C 0.72376 0.76478 0.63532 0.0
H419 H 0.78701 0.75961 0.57486 0.0
O420 O 0.67291 0.64985 0.55024 0.0
O421 O 0.69202 0.67119 0.60742 0.0
O422 O 0.74172 0.64635 0.57138 0.0
O423 O 0.7756 0.69956 0.60754 0.0
C424 C 0.70102 0.81176 0.64351 0.0
C425 C 0.67631 0.78904 0.67297 0.0
H426 H 0.63186 0.73721 0.72754 0.0
H427 H 0.6328 0.67585 0.74191 0.0
H428 H 0.7915 0.82167 0.55362 0.0
H429 H 0.75143 0.84717 0.58484 0.0
H430 H 0.70116 0.83842 0.63558 0.0
H431 H 0.65781 0.79857 0.68726 0.0
H432 H 0.10431 0.25963 0.06644 0.0
H433 H 0.16186 0.38048 0.03127 0.0
H434 H 0.15178 0.2496 0.03031 0.0
H435 H 0.21032 0.37064 0.99617 0.0
H436 H 0.27659 0.33409 0.91561 0.0
H437 H 0.22042 0.33819 0.94293 0.0
H438 H 0.22125 0.26989 0.03673 0.0
H439 H 0.27615 0.26497 0.00868 0.0
C440 C 0.12712 0.28414 0.05112 0.0
C441 C 0.12942 0.32098 0.05203 0.0
C442 C 0.1544 0.27836 0.03045 0.0
C443 C 0.18492 0.30937 0.01058 0.0
C444 C 0.18681 0.34602 0.01081 0.0
C445 C 0.15926 0.35175 0.03124 0.0
C446 C 0.26372 0.31906 0.94148 0.0
C447 C 0.27928 0.29795 0.95953 0.0
C448 C 0.23211 0.32185 0.95739 0.0
C449 C 0.21624 0.30415 0.99189 0.0
C450 C 0.23211 0.28307 0.00975 0.0
C451 C 0.26358 0.28034 0.99386 0.0
H452 H 0.68354 0.85265 0.09184 0.0
H453 H 0.65615 0.78714 0.98973 0.0
H454 H 0.69228 0.90978 0.05791 0.0
H455 H 0.66816 0.84519 0.95479 0.0
H456 H 0.65263 0.94622 0.90899 0.0
H457 H 0.64488 0.88726 0.93925 0.0
H458 H 0.73413 0.95918 0.01993 0.0
H459 H 0.73881 0.01729 0.99126 0.0
C460 C 0.67976 0.85078 0.06195 0.0
C461 C 0.66893 0.81572 0.04331 0.0
C462 C 0.68531 0.88364 0.04229 0.0
C463 C 0.68157 0.88256 0.0033 0.0
C464 C 0.67073 0.84716 0.98474 0.0
C465 C 0.66395 0.81391 0.00465 0.0
C466 C 0.67095 0.94904 0.93281 0.0
C467 C 0.69699 0.98594 0.94747 0.0
C468 C 0.66663 0.91536 0.95023 0.0
C469 C 0.6885 0.91816 0.9825 0.0
C470 C 0.71578 0.95554 0.99595 0.0
C471 C 0.71911 0.98895 0.97922 0.0
H472 H 0.19785 0.87718 0.04373 0.0
H473 H 0.22844 0.78862 0.01305 0.0
H474 H 0.13614 0.84262 0.00875 0.0
H475 H 0.16651 0.75396 0.97877 0.0
H476 H 0.00907 0.73389 0.99368 0.0
H477 H 0.07443 0.78043 0.01794 0.0
H478 H 0.13002 0.75735 0.9241 0.0
H479 H 0.0642 0.71002 0.9004 0.0
C480 C 0.19148 0.85037 0.02961 0.0
C481 C 0.21798 0.83548 0.03159 0.0
C482 C 0.15614 0.83065 0.00953 0.0
C483 C 0.14657 0.79568 0.99095 0.0
C484 C 0.17337 0.7812 0.99229 0.0
C485 C 0.20867 0.80085 0.01238 0.0
C486 C 0.03535 0.73974 0.97781 0.0
C487 C 0.03193 0.71944 0.94479 0.0
C488 C 0.07271 0.7664 0.99156 0.0
C489 C 0.10734 0.77248 0.97294 0.0
C490 C 0.10381 0.75303 0.93913 0.0
C491 C 0.0663 0.72643 0.92531 0.0
H492 H 0.63587 0.70171 0.60858 0.0
H493 H 0.71466 0.72461 0.51532 0.0
H494 H 0.61722 0.74875 0.58418 0.0
H495 H 0.69572 0.77081 0.49038 0.0
H496 H 0.67126 0.86878 0.46441 0.0
H497 H 0.69731 0.83331 0.49944 0.0
H498 H 0.57765 0.74637 0.52965 0.0
H499 H 0.55145 0.78205 0.49533 0.0
C500 C 0.65003 0.7178 0.58348 0.0
C501 C 0.67753 0.71075 0.56428 0.0
C502 C 0.63904 0.74421 0.56925 0.0
C503 C 0.65499 0.76342 0.53534 0.0
C504 C 0.68341 0.75702 0.51685 0.0
C505 C 0.69419 0.73056 0.53099 0.0
C506 C 0.65043 0.84214 0.47856 0.0
C507 C 0.60917 0.82805 0.47664 0.0
C508 C 0.66542 0.82189 0.49867 0.0
C509 C 0.63954 0.78711 0.51729 0.0
C510 C 0.59839 0.77342 0.51606 0.0
C511 C 0.58336 0.79366 0.49597 0.0
H512 H 0.10242 0.84213 0.47735 0.0
H513 H 0.17016 0.78175 0.4887 0.0
H514 H 0.15186 0.89633 0.51325 0.0
H515 H 0.22045 0.8371 0.52447 0.0
H516 H 0.27684 0.00406 0.51603 0.0
H517 H 0.22141 0.94381 0.49247 0.0
H518 H 0.23412 0.87975 0.58399 0.0
H519 H 0.29025 0.94085 0.60758 0.0
C520 C 0.1277 0.84019 0.48771 0.0
C521 C 0.13267 0.80782 0.47949 0.0
C522 C 0.15601 0.87133 0.50834 0.0
C523 C 0.19018 0.8711 0.52108 0.0
C524 C 0.19422 0.83786 0.51498 0.0
C525 C 0.1656 0.80636 0.49435 0.0
C526 C 0.26721 0.97718 0.53143 0.0
C527 C 0.28638 0.97701 0.56429 0.0
C528 C 0.23558 0.94277 0.51804 0.0
C529 C 0.22314 0.90726 0.53676 0.0
C530 C 0.24303 0.90683 0.56925 0.0
C531 C 0.27462 0.94163 0.58293 0.0
H532 H 0.97808 0.25764 0.49611 0.0
H533 H 0.04887 0.34587 0.57639 0.0
H534 H 0.03789 0.26184 0.46906 0.0
H535 H 0.10955 0.35271 0.54784 0.0
H536 H 0.21133 0.33673 0.5039 0.0
H537 H 0.15145 0.32696 0.53639 0.0
H538 H 0.08955 0.30234 0.43122 0.0
H539 H 0.14841 0.30916 0.39971 0.0
C540 C 0.00673 0.27777 0.50801 0.0
C541 C 0.00923 0.3005 0.53887 0.0
C542 C 0.04108 0.28072 0.49224 0.0
C543 C 0.07882 0.30802 0.50585 0.0
C544 C 0.08111 0.33089 0.53693 0.0
C545 C 0.0465 0.32711 0.55333 0.0
C546 C 0.18474 0.32923 0.48798 0.0
C547 C 0.18415 0.32357 0.44947 0.0
C548 C 0.1505 0.32379 0.50648 0.0
C549 C 0.11539 0.31359 0.48658 0.0
C550 C 0.11549 0.30898 0.44777 0.0
C551 C 0.14931 0.3133 0.42953 0.0
H552 H 0.71505 0.661 0.07681 0.0
H553 H 0.71836 0.74059 0.99286 0.0
H554 H 0.77033 0.65838 0.04651 0.0
H555 H 0.77557 0.74081 0.96378 0.0
H556 H 0.84659 0.69834 0.89643 0.0
H557 H 0.79382 0.70436 0.92769 0.0
H558 H 0.83743 0.69003 0.03397 0.0
H559 H 0.888 0.68082 1.00198 0.0
C560 C 0.72856 0.67875 0.05236 0.0
C561 C 0.7137 0.70194 0.03762 0.0
C562 C 0.7603 0.67747 0.03499 0.0
C563 C 0.77787 0.69963 0.00267 0.0
C564 C 0.76258 0.72281 0.98814 0.0
C565 C 0.7302 0.7232 0.00499 0.0
C566 C 0.84479 0.6967 0.92647 0.0
C567 C 0.8709 0.68888 0.94691 0.0
C568 C 0.81475 0.70041 0.94454 0.0
C569 C 0.81101 0.6975 0.98354 0.0
C570 C 0.83851 0.69132 0.00393 0.0
C571 C 0.86774 0.68642 0.98572 0.0
H572 H 0.28414 0.14274 0.91888 0.0
H573 H 0.36983 0.21626 1.00115 0.0
H574 H 0.27556 0.08498 0.9514 0.0
H575 H 0.36108 0.15778 0.03373 0.0
H576 H 0.30093 0.03861 0.09821 0.0
H577 H 0.30576 0.09732 0.06896 0.0
H578 H 0.32087 0.05667 0.96184 0.0
H579 H 0.31623 0.99867 0.99071 0.0
C580 C 0.3012 0.14666 0.94391 0.0
C581 C 0.32792 0.18423 0.95725 0.0
C582 C 0.29625 0.11348 0.96249 0.0
C583 C 0.31764 0.11696 0.99503 0.0
C584 C 0.34398 0.15437 0.00883 0.0
C585 C 0.34927 0.18777 0.98997 0.0
C586 C 0.3048 0.04214 0.06839 0.0
C587 C 0.30814 0.01413 0.0467 0.0
C588 C 0.30793 0.07579 0.05176 0.0
C589 C 0.31374 0.08145 0.01319 0.0
C590 C 0.31609 0.05291 0.99157 0.0
C591 C 0.31352 0.01975 0.00815 0.0
H592 H 0.0128 0.28152 0.00849 0.0
H593 H 0.93105 0.28524 0.08801 0.0
H594 H 0.95782 0.22828 0.97573 0.0
H595 H 0.87519 0.23397 0.05392 0.0
H596 H 0.78261 0.12301 1.00047 0.0
H597 H 0.83915 0.16929 0.0372 0.0
H598 H 0.90714 0.21632 0.93599 0.0
H599 H 0.85143 0.16766 0.89999 0.0
C600 C 0.98279 0.27048 0.01896 0.0
C601 C 0.97588 0.28611 0.05128 0.0
C602 C 0.95118 0.24045 0.99994 0.0
C603 C 0.91176 0.22676 0.01184 0.0
C604 C 0.90504 0.24295 0.04425 0.0
C605 C 0.9369 0.27234 0.06385 0.0
C606 C 0.80987 0.14327 0.98631 0.0
C607 C 0.81292 0.14213 0.94756 0.0
C608 C 0.84219 0.16999 0.00727 0.0
C609 C 0.87789 0.19692 0.98974 0.0
C610 C 0.88062 0.1956 0.95073 0.0
C611 C 0.84864 0.16803 0.92992 0.0
H612 H 0.30559 0.15669 0.60364 0.0
H613 H 0.33145 0.11401 0.50278 0.0
H614 H 0.29621 0.20408 0.56805 0.0
H615 H 0.31891 0.15913 0.46637 0.0
H616 H 0.34232 0.27658 0.41809 0.0
H617 H 0.34611 0.22383 0.45015 0.0
H618 H 0.25713 0.21579 0.52878 0.0
H619 H 0.25631 0.27058 0.49818 0.0
C620 C 0.30849 0.1571 0.57368 0.0
C621 C 0.31954 0.13216 0.55587 0.0
C622 C 0.30274 0.18397 0.55308 0.0
C623 C 0.30667 0.1856 0.51407 0.0
C624 C 0.31652 0.15952 0.49631 0.0
C625 C 0.32346 0.13348 0.51708 0.0
C626 C 0.32319 0.26281 0.44185 0.0
C627 C 0.29824 0.27655 0.45528 0.0
C628 C 0.32518 0.23253 0.46027 0.0
C629 C 0.30206 0.2154 0.49238 0.0
C630 C 0.27618 0.22872 0.50485 0.0
C631 C 0.27512 0.25966 0.48705 0.0
H632 H 0.83843 0.20801 0.49808 0.0
H633 H 0.86026 0.14074 0.58051 0.0
H634 H 0.7913 0.1475 0.46699 0.0
H635 H 0.81331 0.08063 0.54931 0.0
H636 H 0.6842 0.98953 0.51416 0.0
H637 H 0.73889 0.04777 0.5414 0.0
H638 H 0.78832 0.08863 0.43214 0.0
H639 H 0.73323 0.02968 0.40462 0.0
C640 C 0.83328 0.18042 0.50956 0.0
C641 C 0.85286 0.17927 0.54204 0.0
C642 C 0.80663 0.14584 0.4915 0.0
C643 C 0.79875 0.10946 0.50576 0.0
C644 C 0.8187 0.10831 0.53786 0.0
C645 C 0.84558 0.1428 0.5557 0.0
C646 C 0.70703 0.01063 0.49594 0.0
C647 C 0.7045 0.0052 0.45729 0.0
C648 C 0.73842 0.0439 0.51157 0.0
C649 C 0.76772 0.07273 0.48886 0.0
C650 C 0.7659 0.06689 0.4502 0.0
C651 C 0.73466 0.03312 0.43453 0.0
H652 H 0.01285 0.73265 0.51448 0.0
H653 H 0.9369 0.66491 0.42444 0.0
H654 H 0.95671 0.73289 0.54528 0.0
H655 H 0.87961 0.66214 0.45622 0.0
H656 H 0.78643 0.68384 0.50738 0.0
H657 H 0.84604 0.69426 0.47409 0.0
H658 H 0.90084 0.69436 0.57898 0.0
H659 H 0.84241 0.68735 0.61181 0.0
C660 C 0.98387 0.71788 0.50138 0.0
C661 C 0.97903 0.69992 0.46673 0.0
C662 C 0.95155 0.71749 0.51917 0.0
C663 C 0.91331 0.69745 0.50344 0.0
C664 C 0.90861 0.67876 0.46886 0.0
C665 C 0.94128 0.68014 0.45061 0.0
C666 C 0.81165 0.68668 0.52306 0.0
C667 C 0.81026 0.68491 0.56193 0.0
C668 C 0.84563 0.69223 0.50409 0.0
C669 C 0.87835 0.69476 0.52366 0.0
C670 C 0.87677 0.69337 0.56281 0.0
C671 C 0.84324 0.68907 0.58175 0.0
H672 H 0.24989 0.42328 0.35555 0.0
H673 H 0.27462 0.36073 0.2704 0.0
H674 H 0.2101 0.43697 0.31125 0.0
H675 H 0.23626 0.3758 0.22581 0.0
H676 H 0.08775 0.35848 0.23608 0.0
H677 H 0.14145 0.37323 0.28019 0.0
H678 H 0.22822 0.4384 0.19548 0.0
H679 H 0.17432 0.42502 0.15166 0.0
C680 C 0.24855 0.41425 0.3269 0.0
C681 C 0.26554 0.39119 0.31627 0.0
C682 C 0.22555 0.42182 0.3017 0.0
C683 C 0.22023 0.40746 0.26521 0.0
C684 C 0.2403 0.38756 0.25368 0.0
C685 C 0.2623 0.37902 0.27913 0.0
C686 C 0.11825 0.37735 0.22739 0.0
C687 C 0.12693 0.39097 0.19065 0.0
C688 C 0.14895 0.38577 0.25257 0.0
C689 C 0.18889 0.40697 0.24116 0.0
C690 C 0.19764 0.42227 0.20496 0.0
C691 C 0.16685 0.41483 0.18005 0.0
H692 H 0.6568 0.75302 0.21908 0.0
H693 H 0.55016 0.72504 0.15743 0.0
H694 H 0.63724 0.78381 0.26701 0.0
H695 H 0.53022 0.75579 0.20646 0.0
H696 H 0.62444 0.88475 0.31084 0.0
H697 H 0.63278 0.84781 0.26072 0.0
H698 H 0.5147 0.75195 0.28075 0.0
H699 H 0.50607 0.78883 0.33155 0.0
C700 C 0.62875 0.75279 0.21601 0.0
C701 C 0.60533 0.73699 0.18404 0.0
C702 C 0.61769 0.77066 0.24347 0.0
C703 C 0.58272 0.77301 0.24002 0.0
C704 C 0.5575 0.75459 0.20963 0.0
C705 C 0.5688 0.73679 0.18173 0.0
C706 C 0.59986 0.8561 0.30437 0.0
C707 C 0.56473 0.83972 0.3257 0.0
C708 C 0.60478 0.83483 0.27571 0.0
C709 C 0.57463 0.79677 0.26726 0.0
C710 C 0.53846 0.78119 0.28678 0.0
C711 C 0.53362 0.80236 0.31588 0.0
H712 H 0.28176 0.79775 0.18036 0.0
H713 H 0.25975 0.89462 0.19577 0.0
H714 H 0.24065 0.76539 0.23473 0.0
H715 H 0.21787 0.86196 0.2488 0.0
H716 H 0.16562 0.81252 0.3579 0.0
H717 H 0.21645 0.84338 0.31034 0.0
H718 H 0.17281 0.73185 0.25539 0.0
H719 H 0.12287 0.70062 0.30475 0.0
C720 C 0.26842 0.81231 0.19543 0.0
C721 C 0.27427 0.84895 0.18358 0.0
C722 C 0.24452 0.79355 0.22647 0.0
C723 C 0.22574 0.81087 0.24639 0.0
C724 C 0.23234 0.84786 0.23485 0.0
C725 C 0.25639 0.86668 0.20413 0.0
C726 C 0.16732 0.7945 0.33591 0.0
C727 C 0.14019 0.75428 0.33477 0.0
C728 C 0.19626 0.81225 0.3084 0.0
C729 C 0.19835 0.79044 0.27832 0.0
C730 C 0.17231 0.74965 0.27813 0.0
C731 C 0.14361 0.73167 0.3063 0.0
H732 H 0.90853 0.63216 0.77131 0.0
H733 H 0.82284 0.575 0.85905 0.0
H734 H 0.8545 0.61527 0.72721 0.0
H735 H 0.7686 0.55907 0.81501 0.0
H736 H 0.74895 0.57233 0.65214 0.0
H737 H 0.78874 0.55856 0.69636 0.0
H738 H 0.75732 0.61414 0.78341 0.0
H739 H 0.71867 0.62889 0.73911 0.0
C740 C 0.87808 0.61473 0.78082 0.0
C741 C 0.86984 0.60474 0.81852 0.0
C742 C 0.84714 0.60503 0.75559 0.0
C743 C 0.80737 0.586 0.76775 0.0
C744 C 0.799 0.57366 0.80494 0.0
C745 C 0.83 0.58252 0.83003 0.0
C746 C 0.74928 0.58017 0.68105 0.0
C747 C 0.73069 0.60161 0.69228 0.0
C748 C 0.77226 0.57255 0.70624 0.0
C749 C 0.77614 0.58534 0.74326 0.0
C750 C 0.75453 0.60357 0.75517 0.0
C751 C 0.73243 0.61205 0.72983 0.0
H752 H 0.43338 0.25281 0.85887 0.0
H753 H 0.36489 0.27442 0.77722 0.0
H754 H 0.45 0.21751 0.81214 0.0
H755 H 0.38253 0.24043 0.73036 0.0
H756 H 0.42778 0.18404 0.64964 0.0
H757 H 0.4416 0.23606 0.69478 0.0
H758 H 0.39364 0.15021 0.78242 0.0
H759 H 0.37864 0.09834 0.73724 0.0
C760 C 0.42353 0.25168 0.83052 0.0
C761 C 0.398 0.26646 0.82155 0.0
C762 C 0.43279 0.23125 0.8039 0.0
C763 C 0.41753 0.22624 0.76768 0.0
C764 C 0.39508 0.24422 0.75793 0.0
C765 C 0.38497 0.26368 0.78473 0.0
C766 C 0.42176 0.17657 0.67879 0.0
C767 C 0.40237 0.13726 0.69007 0.0
C768 C 0.42939 0.20626 0.70452 0.0
C769 C 0.41869 0.19714 0.74206 0.0
C770 C 0.40263 0.15815 0.75377 0.0
C771 C 0.39405 0.12845 0.72794 0.0
H772 H 0.71942 0.09336 0.76651 0.0
H773 H 0.74584 0.18341 0.84795 0.0
H774 H 0.75205 0.14314 0.71854 0.0
H775 H 0.77982 0.2335 0.80002 0.0
H776 H 0.89679 0.27948 0.71883 0.0
H777 H 0.84659 0.24411 0.76651 0.0
H778 H 0.75452 0.20441 0.68343 0.0
H779 H 0.80488 0.24105 0.63578 0.0
C780 C 0.73098 0.12379 0.77382 0.0
C781 C 0.72988 0.13455 0.81085 0.0
C782 C 0.74964 0.15231 0.74637 0.0
C783 C 0.76854 0.19219 0.75558 0.0
C784 C 0.76534 0.20296 0.79217 0.0
C785 C 0.74568 0.17433 0.8195 0.0
C786 C 0.86567 0.26469 0.71109 0.0
C787 C 0.85466 0.26326 0.67373 0.0
C788 C 0.83691 0.24441 0.73835 0.0
C789 C 0.79667 0.22141 0.72863 0.0
C790 C 0.78533 0.22204 0.69166 0.0
C791 C 0.81407 0.24323 0.6645 0.0
H792 H 0.98309 0.42921 0.09414 0.0
H793 H 0.09321 0.49394 0.03334 0.0
H794 H 0.9532 0.45959 0.05795 0.0
H795 H 0.06404 0.52686 0.99843 0.0
H796 H 0.9907 0.5468 0.91282 0.0
H797 H 0.0193 0.51526 0.95046 0.0
H798 H 0.94695 0.51274 0.04366 0.0
H799 H 0.91676 0.54164 0.00527 0.0
C800 C 0.00146 0.451 0.07381 0.0
C801 C 0.04055 0.45894 0.06651 0.0
C802 C 0.98419 0.46861 0.05291 0.0
C803 C 0.0058 0.49542 0.02462 0.0
C804 C 0.04594 0.50547 0.01913 0.0
C805 C 0.06303 0.48718 0.03965 0.0
C806 C 0.98018 0.5384 0.94106 0.0
C807 C 0.95121 0.54634 0.95595 0.0
C808 C -0.00285 0.52103 0.96296 0.0
C809 C 0.98615 0.51195 1.00053 0.0
C810 C 0.95603 0.5187 0.01485 0.0
C811 C 0.93848 0.53524 0.99272 0.0
H812 H 0.5242 0.61536 0.00278 0.0
H813 H 0.54827 0.55979 0.09471 0.0
H814 H 0.49518 0.55457 0.96844 0.0
H815 H 0.51646 0.4977 0.06153 0.0
H816 H 0.49353 0.40007 0.98154 0.0
H817 H 0.52486 0.46279 0.01399 0.0
H818 H 0.44426 0.49355 0.95938 0.0
H819 H 0.41562 0.43296 0.92542 0.0
C820 C 0.52187 0.58967 0.01626 0.0
C821 C 0.5383 0.59236 0.05158 0.0
C822 C 0.50522 0.55454 0.99645 0.0
C823 C 0.50358 0.52075 0.0118 0.0
C824 C 0.51809 0.52309 0.04813 0.0
C825 C 0.53565 0.55855 0.06758 0.0
C826 C 0.48339 0.42081 0.97585 0.0
C827 C 0.45226 0.4115 0.95068 0.0
C828 C 0.50081 0.45658 0.99496 0.0
C829 C 0.48694 0.48352 0.98992 0.0
C830 C 0.45653 0.47434 0.96385 0.0
C831 C 0.43987 0.4392 0.94425 0.0
H832 H 0.4579 0.97805 0.10937 0.0
H833 H 0.38328 0.93957 0.01219 0.0
H834 H 0.51703 0.01084 0.06913 0.0
H835 H 0.4412 0.97214 0.9724 0.0
H836 H 0.5561 -0.0004 0.91214 0.0
H837 H 0.49764 0.96802 0.95168 0.0
H838 H 0.54926 0.06671 0.02645 0.0
H839 H 0.60869 0.09795 0.98726 0.0
C840 C 0.45431 0.97614 0.07949 0.0
C841 C 0.41632 0.95519 0.06381 0.0
C842 C 0.48792 0.99519 0.05646 0.0
C843 C 0.48384 0.99405 0.01748 0.0
C844 C 0.44563 0.97305 1.00215 0.0
C845 C 0.41239 0.95409 0.025 0.0
C846 C 0.55471 0.01505 0.93655 0.0
C847 C 0.58711 0.05135 0.94648 0.0
C848 C 0.52117 0.99683 0.95936 0.0
C849 C 0.51896 0.01459 0.99255 0.0
C850 C 0.55042 0.05187 1.00149 0.0
C851 C 0.58415 0.07011 0.97866 0.0
H852 H 0.51663 0.97387 0.39746 0.0
H853 H 0.55714 0.94026 0.49502 0.0
H854 H 0.49122 0.0079 0.43713 0.0
H855 H 0.53309 0.97443 0.53425 0.0
H856 H 0.44551 0.00123 0.59508 0.0
H857 H 0.473 0.96976 0.55625 0.0
H858 H 0.51422 0.06494 0.47765 0.0
H859 H 0.48526 0.09595 0.51613 0.0
C860 C 0.51965 0.97348 0.42733 0.0
C861 C 0.53754 0.95347 0.44335 0.0
C862 C 0.50562 0.99323 0.45002 0.0
C863 C 0.51004 0.99381 0.48895 0.0
C864 C 0.5284 0.974 0.50457 0.0
C865 C 0.54203 0.95422 0.48207 0.0
C866 C 0.46124 0.016 0.56998 0.0
C867 C 0.46315 0.05113 0.55875 0.0
C868 C 0.47694 0.99784 0.54758 0.0
C869 C 0.4954 0.01456 0.51354 0.0
C870 C 0.49941 0.05087 0.5033 0.0
C871 C 0.48347 0.069 0.5257 0.0
H872 H 0.90391 0.3793 0.48717 0.0
H873 H 0.9718 0.43717 0.58492 0.0
H874 H 0.93746 0.44057 0.45294 0.0
H875 H 0.00396 0.49904 0.55152 0.0
H876 H 0.08655 0.59632 0.47667 0.0
H877 H 0.05278 0.53231 0.50652 0.0
H878 H 0.94709 0.50258 0.44237 0.0
H879 H 0.98151 0.56521 0.41131 0.0
C880 C 0.92497 0.40547 0.50174 0.0
C881 C 0.93507 0.40343 0.5388 0.0
C882 C 0.9445 0.44073 0.48203 0.0
C883 C 0.9742 0.47498 0.49908 0.0
C884 C 0.98233 0.47321 0.53693 0.0
C885 C 0.9633 0.43785 0.55639 0.0
C886 C 0.05651 0.57563 0.46824 0.0
C887 C 0.03681 0.58603 0.44164 0.0
C888 C 0.03676 0.5391 0.48585 0.0
C889 C 0.99666 0.51229 0.47767 0.0
C890 C 0.97789 0.52204 0.44949 0.0
C891 C -0.00223 0.55821 0.43156 0.0
H892 H 0.39692 0.48692 0.47622 0.0
H893 H 0.43889 0.4168 0.41994 0.0
H894 H 0.45864 0.5189 0.51166 0.0
H895 H 0.49901 0.44664 0.45662 0.0
H896 H 0.61863 0.53046 0.50802 0.0
H897 H 0.55946 0.50023 0.4697 0.0
H898 H 0.48985 0.5064 0.56126 0.0
H899 H 0.54989 0.53889 0.59883 0.0
C900 C 0.41953 0.47873 0.47105 0.0
C901 C 0.41294 0.44934 0.44525 0.0
C902 C 0.45467 0.49652 0.49185 0.0
C903 C 0.48372 0.48487 0.48773 0.0
C904 C 0.47774 0.45678 0.46055 0.0
C905 C 0.44304 0.43955 0.43939 0.0
C906 C 0.59053 0.52453 0.52028 0.0
C907 C 0.58894 0.53703 0.55649 0.0
C908 C 0.55644 0.50726 0.49818 0.0
C909 C 0.51968 0.50134 0.51199 0.0
C910 C 0.51773 0.51156 0.54915 0.0
C911 C 0.55203 0.52951 0.57102 0.0
loop_
_geom_bond_atom_site_label_1
_geom_bond_atom_site_label_2
_geom_bond_distance
_geom_bond_site_symmetry_2
_ccdc_geom_bond_type
Mn0 O5 2.095 . S
Mn0 O15 2.162 . S
Mn0 O16 2.297 . S
Mn0 O24 2.385 . S
Mn0 O25 2.209 . S
Mn0 O26 2.094 . S
Mn1 O6 2.121 . S
Mn1 N8 2.257 . S
Mn1 N17 2.282 . S
Mn1 O25 2.215 . S
Mn1 O27 2.117 . S
C2 O24 1.234 . S
C2 O25 1.283 . S
C3 O15 1.281 . S
C3 O16 1.236 . S
C4 O26 1.240 . S
C4 O27 1.264 . S
O5 Mn0 2.095 . S
O5 C14 1.250 . S
O6 Mn1 2.121 . S
O6 C14 1.258 . S
C7 N8 1.326 . S
C7 C11 1.460 1_455 S
C7 H13 0.929 . S
N8 Mn1 2.257 . S
N8 C7 1.326 . S
N8 C12 1.362 1_455 S
C9 C10 1.258 . S
C9 C12 1.431 . S
C9 C29 1.449 . S
C10 C9 1.258 . S
C10 C11 1.477 . S
C10 H30 0.931 . S
C11 C7 1.460 1_655 S
C11 C10 1.477 . S
C11 H31 0.930 . S
C12 N8 1.362 1_655 S
C12 C9 1.431 . S
C12 C22 1.476 1_655 S
H13 C7 0.929 . S
C14 O5 1.250 . S
C14 O6 1.258 . S
O15 Mn0 2.162 . S
O15 C3 1.281 . S
O16 Mn0 2.297 . S
O16 C3 1.236 . S
N17 Mn1 2.282 . S
N17 C18 1.328 . S
N17 C22 1.318 . S
C18 N17 1.328 . S
C18 C19 1.457 1_554 S
C18 H23 0.929 . S
C19 C18 1.457 1_556 S
C19 C20 1.291 1_456 S
C19 H32 0.931 . S
C20 C19 1.291 1_654 S
C20 C21 1.373 . S
C20 H33 0.929 1_554 S
C21 C20 1.373 . S
C21 C22 1.396 1_655 S
C21 C28 1.403 . S
C22 C12 1.476 1_455 S
C22 N17 1.318 . S
C22 C21 1.396 1_455 S
H23 C18 0.929 . S
O24 Mn0 2.385 . S
O24 C2 1.234 . S
O25 Mn0 2.209 . S
O25 Mn1 2.215 . S
O25 C2 1.283 . S
O26 Mn0 2.094 . S
O26 C4 1.240 . S
O27 Mn1 2.117 . S
O27 C4 1.264 . S
C28 C21 1.403 . S
C28 C29 1.399 . S
C28 H34 0.929 . S
C29 C9 1.449 . S
C29 C28 1.399 . S
C29 H35 0.930 . S
H30 C10 0.931 . S
H31 C11 0.930 . S
H32 C19 0.931 . S
H33 C20 0.929 1_556 S
H34 C28 0.929 . S
H35 C29 0.930 . S
Mn36 O41 2.095 . S
Mn36 O51 2.162 . S
Mn36 O52 2.297 . S
Mn36 O60 2.385 . S
Mn36 O61 2.209 . S
Mn36 O62 2.094 . S
Mn37 O42 2.121 . S
Mn37 N44 2.257 . S
Mn37 N53 2.282 . S
Mn37 O61 2.215 . S
Mn37 O63 2.117 . S
C38 O60 1.234 . S
C38 O61 1.283 . S
C39 O51 1.281 . S
C39 O52 1.236 . S
C40 O62 1.240 . S
C40 O63 1.264 . S
O41 Mn36 2.095 . S
O41 C50 1.250 . S
O42 Mn37 2.121 . S
O42 C50 1.258 . S
C43 N44 1.326 . S
C43 C47 1.460 . S
C43 H49 0.929 . S
N44 Mn37 2.257 . S
N44 C43 1.326 . S
N44 C48 1.362 . S
C45 C46 1.258 . S
C45 C48 1.431 . S
C45 C65 1.449 . S
C46 C45 1.258 . S
C46 C47 1.477 . S
C46 H66 0.931 . S
C47 C43 1.460 . S
C47 C46 1.477 . S
C47 H67 0.930 . S
C48 N44 1.362 . S
C48 C45 1.431 . S
C48 C58 1.476 . S
H49 C43 0.929 . S
C50 O41 1.250 . S
C50 O42 1.258 . S
O51 Mn36 2.162 . S
O51 C39 1.281 . S
O52 Mn36 2.297 . S
O52 C39 1.236 . S
N53 Mn37 2.282 . S
N53 C54 1.328 . S
N53 C58 1.318 . S
C54 N53 1.328 . S
C54 C55 1.457 1_554 S
C54 H59 0.929 . S
C55 C54 1.457 1_556 S
C55 C56 1.291 1_556 S
C55 H68 0.931 . S
C56 C55 1.291 1_554 S
C56 C57 1.373 . S
C56 H69 0.929 1_554 S
C57 C56 1.373 . S
C57 C58 1.396 . S
C57 C64 1.403 . S
C58 C48 1.476 . S
C58 N53 1.318 . S
C58 C57 1.396 . S
H59 C54 0.929 . S
O60 Mn36 2.385 . S
O60 C38 1.234 . S
O61 Mn36 2.209 . S
O61 Mn37 2.215 . S
O61 C38 1.283 . S
O62 Mn36 2.094 . S
O62 C40 1.240 . S
O63 Mn37 2.117 . S
O63 C40 1.264 . S
C64 C57 1.403 . S
C64 C65 1.399 . S
C64 H70 0.929 . S
C65 C45 1.449 . S
C65 C64 1.399 . S
C65 H71 0.930 . S
H66 C46 0.931 . S
H67 C47 0.930 . S
H68 C55 0.931 . S
H69 C56 0.929 1_556 S
H70 C64 0.929 . S
H71 C65 0.930 . S
Mn72 O77 2.095 . S
Mn72 O87 2.162 . S
Mn72 O88 2.297 . S
Mn72 O96 2.385 . S
Mn72 O97 2.209 . S
Mn72 O98 2.094 . S
Mn73 O78 2.121 . S
Mn73 N80 2.257 . S
Mn73 N89 2.282 . S
Mn73 O97 2.215 . S
Mn73 O99 2.117 . S
C74 O96 1.234 . S
C74 O97 1.283 . S
C75 O87 1.281 . S
C75 O88 1.236 . S
C76 O98 1.240 . S
C76 O99 1.264 . S
O77 Mn72 2.095 . S
O77 C86 1.250 . S
O78 Mn73 2.121 . S
O78 C86 1.258 . S
C79 N80 1.326 1_556 S
C79 C83 1.460 . S
C79 H85 0.929 . S
N80 Mn73 2.257 . S
N80 C79 1.326 1_554 S
N80 C84 1.362 . S
C81 C82 1.258 1_554 S
C81 C84 1.431 . S
C81 C101 1.449 . S
C82 C81 1.258 1_556 S
C82 C83 1.477 . S
C82 H102 0.931 . S
C83 C79 1.460 . S
C83 C82 1.477 . S
C83 H103 0.930 . S
C84 N80 1.362 . S
C84 C81 1.431 . S
C84 C94 1.476 . S
H85 C79 0.929 . S
C86 O77 1.250 . S
C86 O78 1.258 . S
O87 Mn72 2.162 . S
O87 C75 1.281 . S
O88 Mn72 2.297 . S
O88 C75 1.236 . S
N89 Mn73 2.282 . S
N89 C90 1.328 . S
N89 C94 1.318 . S
C90 N89 1.328 . S
C90 C91 1.457 . S
C90 H95 0.929 . S
C91 C90 1.457 . S
C91 C92 1.291 . S
C91 H104 0.931 . S
C92 C91 1.291 . S
C92 C93 1.373 . S
C92 H105 0.929 . S
C93 C92 1.373 . S
C93 C94 1.396 . S
C93 C100 1.403 . S
C94 C84 1.476 . S
C94 N89 1.318 . S
C94 C93 1.396 . S
H95 C90 0.929 . S
O96 Mn72 2.385 . S
O96 C74 1.234 . S
O97 Mn72 2.209 . S
O97 Mn73 2.215 . S
O97 C74 1.283 . S
O98 Mn72 2.094 . S
O98 C76 1.240 . S
O99 Mn73 2.117 . S
O99 C76 1.264 . S
C100 C93 1.403 . S
C100 C101 1.399 . S
C100 H106 0.929 . S
C101 C81 1.449 . S
C101 C100 1.399 . S
C101 H107 0.930 . S
H102 C82 0.931 . S
H103 C83 0.930 . S
H104 C91 0.931 . S
H105 C92 0.929 . S
H106 C100 0.929 . S
H107 C101 0.930 . S
Mn108 O113 2.095 . S
Mn108 O123 2.162 . S
Mn108 O124 2.297 . S
Mn108 O132 2.385 . S
Mn108 O133 2.209 . S
Mn108 O134 2.094 . S
Mn109 O114 2.121 . S
Mn109 N116 2.257 . S
Mn109 N125 2.282 . S
Mn109 O133 2.215 . S
Mn109 O135 2.117 . S
C110 O132 1.234 . S
C110 O133 1.283 . S
C111 O123 1.281 . S
C111 O124 1.236 . S
C112 O134 1.240 . S
C112 O135 1.264 . S
O113 Mn108 2.095 . S
O113 C122 1.250 . S
O114 Mn109 2.121 . S
O114 C122 1.258 . S
C115 N116 1.326 . S
C115 C119 1.460 . S
C115 H121 0.929 . S
N116 Mn109 2.257 . S
N116 C115 1.326 . S
N116 C120 1.362 . S
C117 C118 1.258 . S
C117 C120 1.431 . S
C117 C137 1.449 . S
C118 C117 1.258 . S
C118 C119 1.477 . S
C118 H138 0.931 . S
C119 C115 1.460 . S
C119 C118 1.477 . S
C119 H139 0.930 . S
C120 N116 1.362 . S
C120 C117 1.431 . S
C120 C130 1.476 . S
H121 C115 0.929 . S
C122 O113 1.250 . S
C122 O114 1.258 . S
O123 Mn108 2.162 . S
O123 C111 1.281 . S
O124 Mn108 2.297 . S
O124 C111 1.236 . S
N125 Mn109 2.282 . S
N125 C126 1.328 . S
N125 C130 1.318 . S
C126 N125 1.328 . S
C126 C127 1.457 . S
C126 H131 0.929 . S
C127 C126 1.457 . S
C127 C128 1.291 . S
C127 H140 0.931 . S
C128 C127 1.291 . S
C128 C129 1.373 . S
C128 H141 0.929 . S
C129 C128 1.373 . S
C129 C130 1.396 . S
C129 C136 1.403 . S
C130 C120 1.476 . S
C130 N125 1.318 . S
C130 C129 1.396 . S
H131 C126 0.929 . S
O132 Mn108 2.385 . S
O132 C110 1.234 . S
O133 Mn108 2.209 . S
O133 Mn109 2.215 . S
O133 C110 1.283 . S
O134 Mn108 2.094 . S
O134 C112 1.240 . S
O135 Mn109 2.117 . S
O135 C112 1.264 . S
C136 C129 1.403 . S
C136 C137 1.399 . S
C136 H142 0.929 . S
C137 C117 1.449 . S
C137 C136 1.399 . S
C137 H143 0.930 . S
H138 C118 0.931 . S
H139 C119 0.930 . S
H140 C127 0.931 . S
H141 C128 0.929 . S
H142 C136 0.929 . S
H143 C137 0.930 . S
Mn144 O149 2.095 . S
Mn144 O159 2.162 . S
Mn144 O160 2.297 . S
Mn144 O168 2.385 . S
Mn144 O169 2.209 . S
Mn144 O170 2.094 . S
Mn145 O150 2.121 . S
Mn145 N152 2.257 . S
Mn145 N161 2.282 . S
Mn145 O169 2.215 . S
Mn145 O171 2.117 . S
C146 O168 1.234 . S
C146 O169 1.283 . S
C147 O159 1.281 . S
C147 O160 1.236 . S
C148 O170 1.240 . S
C148 O171 1.264 . S
O149 Mn144 2.095 . S
O149 C158 1.250 . S
O150 Mn145 2.121 . S
O150 C158 1.258 . S
C151 N152 1.326 . S
C151 C155 1.460 1_455 S
C151 H157 0.929 . S
N152 Mn145 2.257 . S
N152 C151 1.326 . S
N152 C156 1.362 1_455 S
C153 C154 1.258 . S
C153 C156 1.431 . S
C153 C173 1.449 . S
C154 C153 1.258 . S
C154 C155 1.477 . S
C154 H174 0.931 . S
C155 C151 1.460 1_655 S
C155 C154 1.477 . S
C155 H175 0.930 . S
C156 N152 1.362 1_655 S
C156 C153 1.431 . S
C156 C166 1.476 1_655 S
H157 C151 0.929 . S
C158 O149 1.250 . S
C158 O150 1.258 . S
O159 Mn144 2.162 . S
O159 C147 1.281 . S
O160 Mn144 2.297 . S
O160 C147 1.236 . S
N161 Mn145 2.282 . S
N161 C162 1.328 . S
N161 C166 1.318 . S
C162 N161 1.328 . S
C162 C163 1.457 . S
C162 H167 0.929 . S
C163 C162 1.457 . S
C163 C164 1.291 1_455 S
C163 H176 0.931 . S
C164 C163 1.291 1_655 S
C164 C165 1.373 . S
C164 H177 0.929 . S
C165 C164 1.373 . S
C165 C166 1.396 1_655 S
C165 C172 1.403 . S
C166 C156 1.476 1_455 S
C166 N161 1.318 . S
C166 C165 1.396 1_455 S
H167 C162 0.929 . S
O168 Mn144 2.385 . S
O168 C146 1.234 . S
O169 Mn144 2.209 . S
O169 Mn145 2.215 . S
O169 C146 1.283 . S
O170 Mn144 2.094 . S
O170 C148 1.240 . S
O171 Mn145 2.117 . S
O171 C148 1.264 . S
C172 C165 1.403 . S
C172 C173 1.399 . S
C172 H178 0.929 . S
C173 C153 1.449 . S
C173 C172 1.399 . S
C173 H179 0.930 . S
H174 C154 0.931 . S
H175 C155 0.930 . S
H176 C163 0.931 . S
H177 C164 0.929 . S
H178 C172 0.929 . S
H179 C173 0.930 . S
Mn180 O185 2.095 . S
Mn180 O195 2.162 . S
Mn180 O196 2.297 . S
Mn180 O204 2.385 . S
Mn180 O205 2.209 . S
Mn180 O206 2.094 . S
Mn181 O186 2.121 . S
Mn181 N188 2.257 . S
Mn181 N197 2.282 . S
Mn181 O205 2.215 . S
Mn181 O207 2.117 . S
C182 O204 1.234 . S
C182 O205 1.283 . S
C183 O195 1.281 . S
C183 O196 1.236 . S
C184 O206 1.240 . S
C184 O207 1.264 . S
O185 Mn180 2.095 . S
O185 C194 1.250 . S
O186 Mn181 2.121 . S
O186 C194 1.258 . S
C187 N188 1.326 . S
C187 C191 1.460 . S
C187 H193 0.929 . S
N188 Mn181 2.257 . S
N188 C187 1.326 . S
N188 C192 1.362 . S
C189 C190 1.258 . S
C189 C192 1.431 . S
C189 C209 1.449 . S
C190 C189 1.258 . S
C190 C191 1.477 . S
C190 H210 0.931 . S
C191 C187 1.460 . S
C191 C190 1.477 . S
C191 H211 0.930 . S
C192 N188 1.362 . S
C192 C189 1.431 . S
C192 C202 1.476 . S
H193 C187 0.929 . S
C194 O185 1.250 . S
C194 O186 1.258 . S
O195 Mn180 2.162 . S
O195 C183 1.281 . S
O196 Mn180 2.297 . S
O196 C183 1.236 . S
N197 Mn181 2.282 . S
N197 C198 1.328 . S
N197 C202 1.318 . S
C198 N197 1.328 . S
C198 C199 1.457 . S
C198 H203 0.929 . S
C199 C198 1.457 . S
C199 C200 1.291 . S
C199 H212 0.931 . S
C200 C199 1.291 . S
C200 C201 1.373 . S
C200 H213 0.929 . S
C201 C200 1.373 . S
C201 C202 1.396 . S
C201 C208 1.403 . S
C202 C192 1.476 . S
C202 N197 1.318 . S
C202 C201 1.396 . S
H203 C198 0.929 . S
O204 Mn180 2.385 . S
O204 C182 1.234 . S
O205 Mn180 2.209 . S
O205 Mn181 2.215 . S
O205 C182 1.283 . S
O206 Mn180 2.094 . S
O206 C184 1.240 . S
O207 Mn181 2.117 . S
O207 C184 1.264 . S
C208 C201 1.403 . S
C208 C209 1.399 . S
C208 H214 0.929 . S
C209 C189 1.449 . S
C209 C208 1.399 . S
C209 H215 0.930 . S
H210 C190 0.931 . S
H211 C191 0.930 . S
H212 C199 0.931 . S
H213 C200 0.929 . S
H214 C208 0.929 . S
H215 C209 0.930 . S
Mn216 O221 2.095 . S
Mn216 O231 2.162 . S
Mn216 O232 2.297 . S
Mn216 O240 2.385 . S
Mn216 O241 2.209 . S
Mn216 O242 2.094 . S
Mn217 O222 2.121 . S
Mn217 N224 2.257 . S
Mn217 N233 2.282 . S
Mn217 O241 2.215 . S
Mn217 O243 2.117 . S
C218 O240 1.234 . S
C218 O241 1.283 . S
C219 O231 1.281 . S
C219 O232 1.236 . S
C220 O242 1.240 . S
C220 O243 1.264 . S
O221 Mn216 2.095 . S
O221 C230 1.250 . S
O222 Mn217 2.121 . S
O222 C230 1.258 . S
C223 N224 1.326 . S
C223 C227 1.460 1_655 S
C223 H229 0.929 . S
N224 Mn217 2.257 . S
N224 C223 1.326 . S
N224 C228 1.362 1_655 S
C225 C226 1.258 . S
C225 C228 1.431 . S
C225 C245 1.449 . S
C226 C225 1.258 . S
C226 C227 1.477 . S
C226 H246 0.931 . S
C227 C223 1.460 1_455 S
C227 C226 1.477 . S
C227 H247 0.930 . S
C228 N224 1.362 1_455 S
C228 C225 1.431 . S
C228 C238 1.474 1_455 S
H229 C223 0.929 . S
C230 O221 1.250 . S
C230 O222 1.258 . S
O231 Mn216 2.162 . S
O231 C219 1.281 . S
O232 Mn216 2.297 . S
O232 C219 1.236 . S
N233 Mn217 2.282 . S
N233 C234 1.328 . S
N233 C238 1.321 . S
C234 N233 1.328 . S
C234 C235 1.445 1_556 S
C234 H239 0.929 . S
C235 C234 1.445 1_554 S
C235 C236 1.283 1_654 S
C235 H248 0.951 . S
C236 C235 1.283 1_456 S
C236 C237 1.373 . S
C236 H249 0.929 1_556 S
C237 C236 1.373 . S
C237 C238 1.395 1_455 S
C237 C244 1.403 . S
C238 C228 1.474 1_655 S
C238 N233 1.321 . S
C238 C237 1.395 1_655 S
H239 C234 0.929 . S
O240 Mn216 2.385 . S
O240 C218 1.234 . S
O241 Mn216 2.209 . S
O241 Mn217 2.215 . S
O241 C218 1.283 . S
O242 Mn216 2.094 . S
O242 C220 1.240 . S
O243 Mn217 2.117 . S
O243 C220 1.264 . S
C244 C237 1.403 . S
C244 C245 1.399 . S
C244 H250 0.929 . S
C245 C225 1.449 . S
C245 C244 1.399 . S
C245 H251 0.930 . S
H246 C226 0.931 . S
H247 C227 0.930 . S
H248 C235 0.951 . S
H249 C236 0.929 1_554 S
H250 C244 0.929 . S
H251 C245 0.930 . S
Mn252 O257 2.095 . S
Mn252 O267 2.162 . S
Mn252 O268 2.297 . S
Mn252 O276 2.385 . S
Mn252 O277 2.209 . S
Mn252 O278 2.094 . S
Mn253 O258 2.121 . S
Mn253 N260 2.257 . S
Mn253 N269 2.282 . S
Mn253 O277 2.215 . S
Mn253 O279 2.117 . S
C254 O276 1.234 . S
C254 O277 1.283 . S
C255 O267 1.281 . S
C255 O268 1.236 . S
C256 O278 1.240 . S
C256 O279 1.264 . S
O257 Mn252 2.095 . S
O257 C266 1.250 . S
O258 Mn253 2.121 . S
O258 C266 1.258 . S
C259 N260 1.326 . S
C259 C263 1.460 . S
C259 H265 0.929 . S
N260 Mn253 2.257 . S
N260 C259 1.326 . S
N260 C264 1.362 . S
C261 C262 1.258 . S
C261 C264 1.431 . S
C261 C281 1.449 . S
C262 C261 1.258 . S
C262 C263 1.477 . S
C262 H282 0.931 . S
C263 C259 1.460 . S
C263 C262 1.477 . S
C263 H283 0.930 . S
C264 N260 1.362 . S
C264 C261 1.431 . S
C264 C274 1.476 . S
H265 C259 0.929 . S
C266 O257 1.250 . S
C266 O258 1.258 . S
O267 Mn252 2.162 . S
O267 C255 1.281 . S
O268 Mn252 2.297 . S
O268 C255 1.236 . S
N269 Mn253 2.282 . S
N269 C270 1.328 . S
N269 C274 1.318 . S
C270 N269 1.328 . S
C270 C271 1.457 . S
C270 H275 0.929 . S
C271 C270 1.457 . S
C271 C272 1.291 . S
C271 H284 0.931 1_556 S
C272 C271 1.291 . S
C272 C273 1.373 . S
C272 H285 0.929 . S
C273 C272 1.373 . S
C273 C274 1.396 . S
C273 C280 1.403 . S
C274 C264 1.476 . S
C274 N269 1.318 . S
C274 C273 1.396 . S
H275 C270 0.929 . S
O276 Mn252 2.385 . S
O276 C254 1.234 . S
O277 Mn252 2.209 . S
O277 Mn253 2.215 . S
O277 C254 1.283 . S
O278 Mn252 2.094 . S
O278 C256 1.240 . S
O279 Mn253 2.117 . S
O279 C256 1.264 . S
C280 C273 1.403 . S
C280 C281 1.399 . S
C280 H286 0.929 . S
C281 C261 1.449 . S
C281 C280 1.399 . S
C281 H287 0.930 . S
H282 C262 0.931 . S
H283 C263 0.930 . S
H284 C271 0.931 1_554 S
H285 C272 0.929 . S
H286 C280 0.929 . S
H287 C281 0.930 . S
Mn288 O293 2.095 . S
Mn288 O303 2.162 . S
Mn288 O304 2.297 . S
Mn288 O312 2.385 . S
Mn288 O313 2.209 . S
Mn288 O314 2.094 . S
Mn289 O294 2.121 . S
Mn289 N296 2.257 . S
Mn289 N305 2.282 . S
Mn289 O313 2.215 . S
Mn289 O315 2.117 . S
C290 O312 1.234 . S
C290 O313 1.283 . S
C291 O303 1.281 . S
C291 O304 1.236 . S
C292 O314 1.240 . S
C292 O315 1.264 . S
O293 Mn288 2.095 . S
O293 C302 1.250 . S
O294 Mn289 2.121 . S
O294 C302 1.258 . S
C295 N296 1.326 . S
C295 C299 1.460 1_545 S
C295 H301 0.929 . S
N296 Mn289 2.257 . S
N296 C295 1.326 . S
N296 C300 1.362 1_545 S
C297 C298 1.258 . S
C297 C300 1.431 . S
C297 C317 1.449 . S
C298 C297 1.258 . S
C298 C299 1.477 . S
C298 H318 0.931 . S
C299 C295 1.460 1_565 S
C299 C298 1.477 . S
C299 H319 0.930 . S
C300 N296 1.362 1_565 S
C300 C297 1.431 . S
C300 C310 1.476 1_565 S
H301 C295 0.929 . S
C302 O293 1.250 . S
C302 O294 1.258 . S
O303 Mn288 2.162 . S
O303 C291 1.281 . S
O304 Mn288 2.297 . S
O304 C291 1.236 . S
N305 Mn289 2.282 . S
N305 C306 1.328 . S
N305 C310 1.318 . S
C306 N305 1.328 . S
C306 C307 1.457 1_556 S
C306 H311 0.929 . S
C307 C306 1.457 1_554 S
C307 C308 1.291 1_544 S
C307 H320 0.931 . S
C308 C307 1.291 1_566 S
C308 C309 1.373 . S
C308 H321 0.929 1_556 S
C309 C308 1.373 . S
C309 C310 1.396 1_565 S
C309 C316 1.403 . S
C310 C300 1.476 1_545 S
C310 N305 1.318 . S
C310 C309 1.396 1_545 S
H311 C306 0.929 . S
O312 Mn288 2.385 . S
O312 C290 1.234 . S
O313 Mn288 2.209 . S
O313 Mn289 2.215 . S
O313 C290 1.283 . S
O314 Mn288 2.094 . S
O314 C292 1.240 . S
O315 Mn289 2.117 . S
O315 C292 1.264 . S
C316 C309 1.403 . S
C316 C317 1.399 . S
C316 H322 0.929 . S
C317 C297 1.449 . S
C317 C316 1.399 . S
C317 H323 0.930 . S
H318 C298 0.931 . S
H319 C299 0.930 . S
H320 C307 0.931 . S
H321 C308 0.929 1_554 S
H322 C316 0.929 . S
H323 C317 0.930 . S
Mn324 O329 2.095 . S
Mn324 O339 2.162 . S
Mn324 O340 2.297 . S
Mn324 O348 2.385 . S
Mn324 O349 2.209 . S
Mn324 O350 2.094 . S
Mn325 O330 2.121 . S
Mn325 N332 2.257 . S
Mn325 N341 2.282 . S
Mn325 O349 2.215 . S
Mn325 O351 2.117 . S
C326 O348 1.234 . S
C326 O349 1.283 . S
C327 O339 1.281 . S
C327 O340 1.236 . S
C328 O350 1.240 . S
C328 O351 1.264 . S
O329 Mn324 2.095 . S
O329 C338 1.250 . S
O330 Mn325 2.121 . S
O330 C338 1.258 . S
C331 N332 1.326 . S
C331 C335 1.460 1_545 S
C331 H337 0.929 . S
N332 Mn325 2.257 . S
N332 C331 1.326 . S
N332 C336 1.362 1_545 S
C333 C334 1.258 . S
C333 C336 1.431 . S
C333 C353 1.449 . S
C334 C333 1.258 . S
C334 C335 1.477 . S
C334 H354 0.931 . S
C335 C331 1.460 1_565 S
C335 C334 1.477 . S
C335 H355 0.930 . S
C336 N332 1.362 1_565 S
C336 C333 1.431 . S
C336 C346 1.476 1_565 S
H337 C331 0.929 . S
C338 O329 1.250 . S
C338 O330 1.258 . S
O339 Mn324 2.162 . S
O339 C327 1.281 . S
O340 Mn324 2.297 . S
O340 C327 1.236 . S
N341 Mn325 2.282 . S
N341 C342 1.328 . S
N341 C346 1.318 . S
C342 N341 1.328 . S
C342 C343 1.457 . S
C342 H347 0.929 . S
C343 C342 1.457 . S
C343 C344 1.291 1_545 S
C343 H356 0.931 . S
C344 C343 1.291 1_565 S
C344 C345 1.373 . S
C344 H357 0.929 . S
C345 C344 1.373 . S
C345 C346 1.396 1_565 S
C345 C352 1.403 . S
C346 C336 1.476 1_545 S
C346 N341 1.318 . S
C346 C345 1.396 1_545 S
H347 C342 0.929 . S
O348 Mn324 2.385 . S
O348 C326 1.234 . S
O349 Mn324 2.209 . S
O349 Mn325 2.215 . S
O349 C326 1.283 . S
O350 Mn324 2.094 . S
O350 C328 1.240 . S
O351 Mn325 2.117 . S
O351 C328 1.264 . S
C352 C345 1.403 . S
C352 C353 1.399 . S
C352 H358 0.929 . S
C353 C333 1.449 . S
C353 C352 1.399 . S
C353 H359 0.930 . S
H354 C334 0.931 . S
H355 C335 0.930 . S
H356 C343 0.931 . S
H357 C344 0.929 . S
H358 C352 0.929 . S
H359 C353 0.930 . S
Mn360 O365 2.095 . S
Mn360 O375 2.162 . S
Mn360 O376 2.297 . S
Mn360 O384 2.385 . S
Mn360 O385 2.209 . S
Mn360 O386 2.094 . S
Mn361 O366 2.121 . S
Mn361 N368 2.257 . S
Mn361 N377 2.282 . S
Mn361 O385 2.215 . S
Mn361 O387 2.117 . S
C362 O384 1.234 . S
C362 O385 1.283 . S
C363 O375 1.281 . S
C363 O376 1.236 . S
C364 O386 1.240 . S
C364 O387 1.264 . S
O365 Mn360 2.095 . S
O365 C374 1.250 . S
O366 Mn361 2.121 . S
O366 C374 1.258 . S
C367 N368 1.326 . S
C367 C371 1.460 1_655 S
C367 H373 0.929 . S
N368 Mn361 2.257 . S
N368 C367 1.326 . S
N368 C372 1.362 1_655 S
C369 C370 1.258 . S
C369 C372 1.431 . S
C369 C389 1.449 . S
C370 C369 1.258 . S
C370 C371 1.477 . S
C370 H390 0.931 . S
C371 C367 1.460 1_455 S
C371 C370 1.477 . S
C371 H391 0.930 . S
C372 N368 1.362 1_455 S
C372 C369 1.431 . S
C372 C382 1.476 1_455 S
H373 C367 0.929 . S
C374 O365 1.250 . S
C374 O366 1.258 . S
O375 Mn360 2.162 . S
O375 C363 1.281 . S
O376 Mn360 2.297 . S
O376 C363 1.236 . S
N377 Mn361 2.282 . S
N377 C378 1.328 . S
N377 C382 1.318 . S
C378 N377 1.328 . S
C378 C379 1.457 . S
C378 H383 0.929 . S
C379 C378 1.457 . S
C379 C380 1.291 1_655 S
C379 H392 0.931 . S
C380 C379 1.291 1_455 S
C380 C381 1.373 . S
C380 H393 0.929 . S
C381 C380 1.373 . S
C381 C382 1.396 1_455 S
C381 C388 1.403 . S
C382 C372 1.476 1_655 S
C382 N377 1.318 . S
C382 C381 1.396 1_655 S
H383 C378 0.929 . S
O384 Mn360 2.385 . S
O384 C362 1.234 . S
O385 Mn360 2.209 . S
O385 Mn361 2.215 . S
O385 C362 1.283 . S
O386 Mn360 2.094 . S
O386 C364 1.240 . S
O387 Mn361 2.117 . S
O387 C364 1.264 . S
C388 C381 1.403 . S
C388 C389 1.399 . S
C388 H394 0.929 . S
C389 C369 1.449 . S
C389 C388 1.399 . S
C389 H395 0.930 . S
H390 C370 0.931 . S
H391 C371 0.930 . S
H392 C379 0.931 . S
H393 C380 0.929 . S
H394 C388 0.929 . S
H395 C389 0.930 . S
Mn396 O401 2.095 . S
Mn396 O411 2.162 . S
Mn396 O412 2.297 . S
Mn396 O420 2.385 . S
Mn396 O421 2.209 . S
Mn396 O422 2.094 . S
Mn397 O402 2.121 . S
Mn397 N404 2.257 . S
Mn397 N413 2.282 . S
Mn397 O421 2.215 . S
Mn397 O423 2.117 . S
C398 O420 1.234 . S
C398 O421 1.283 . S
C399 O411 1.281 . S
C399 O412 1.236 . S
C400 O422 1.240 . S
C400 O423 1.264 . S
O401 Mn396 2.095 . S
O401 C410 1.250 . S
O402 Mn397 2.121 . S
O402 C410 1.258 . S
C403 N404 1.326 . S
C403 C407 1.460 . S
C403 H409 0.929 . S
N404 Mn397 2.257 . S
N404 C403 1.326 . S
N404 C408 1.362 . S
C405 C406 1.258 . S
C405 C408 1.431 . S
C405 C425 1.449 . S
C406 C405 1.258 . S
C406 C407 1.477 . S
C406 H426 0.931 . S
C407 C403 1.460 . S
C407 C406 1.477 . S
C407 H427 0.930 . S
C408 N404 1.362 . S
C408 C405 1.431 . S
C408 C418 1.476 . S
H409 C403 0.929 . S
C410 O401 1.250 . S
C410 O402 1.258 . S
O411 Mn396 2.162 . S
O411 C399 1.281 . S
O412 Mn396 2.297 . S
O412 C399 1.236 . S
N413 Mn397 2.282 . S
N413 C414 1.328 . S
N413 C418 1.318 . S
C414 N413 1.328 . S
C414 C415 1.457 . S
C414 H419 0.929 . S
C415 C414 1.457 . S
C415 C416 1.291 . S
C415 H428 0.931 . S
C416 C415 1.291 . S
C416 C417 1.373 . S
C416 H429 0.929 . S
C417 C416 1.373 . S
C417 C418 1.396 . S
C417 C424 1.403 . S
C418 C408 1.476 . S
C418 N413 1.318 . S
C418 C417 1.396 . S
H419 C414 0.929 . S
O420 Mn396 2.385 . S
O420 C398 1.234 . S
O421 Mn396 2.209 . S
O421 Mn397 2.215 . S
O421 C398 1.283 . S
O422 Mn396 2.094 . S
O422 C400 1.240 . S
O423 Mn397 2.117 . S
O423 C400 1.264 . S
C424 C417 1.403 . S
C424 C425 1.399 . S
C424 H430 0.929 . S
C425 C405 1.449 . S
C425 C424 1.399 . S
C425 H431 0.930 . S
H426 C406 0.931 . S
H427 C407 0.930 . S
H428 C415 0.931 . S
H429 C416 0.929 . S
H430 C424 0.929 . S
H431 C425 0.930 . S
H432 C440 0.950 . S
H433 C445 0.947 1_556 S
H434 C442 0.950 . S
H435 C444 0.950 . S
H436 C446 0.950 . S
H437 C448 0.950 . S
H438 C450 0.938 1_554 S
H439 C451 0.950 . S
C440 H432 0.950 . S
C440 C441 1.386 . S
C440 C442 1.391 . S
C441 C440 1.386 . S
C441 C445 1.404 . S
C442 H434 0.950 . S
C442 C440 1.391 . S
C442 C443 1.400 1_554 S
C443 C442 1.400 1_556 S
C443 C444 1.398 . S
C443 C449 1.491 . S
C444 H435 0.950 . S
C444 C443 1.398 . S
C444 C445 1.383 1_556 S
C445 H433 0.947 1_554 S
C445 C441 1.404 . S
C445 C444 1.383 1_554 S
C446 H436 0.950 . S
C446 C447 1.386 . S
C446 C448 1.391 . S
C447 C446 1.386 . S
C447 C451 1.393 . S
C448 H437 0.950 . S
C448 C446 1.391 . S
C448 C449 1.400 . S
C449 C443 1.491 . S
C449 C448 1.400 . S
C449 C450 1.398 . S
C450 H438 0.938 1_556 S
C450 C449 1.398 . S
C450 C451 1.391 . S
C451 H439 0.950 . S
C451 C447 1.393 . S
C451 C450 1.391 . S
H452 C460 0.950 . S
H453 C465 0.950 . S
H454 C462 0.950 . S
H455 C464 0.950 . S
H456 C466 0.950 . S
H457 C468 0.950 . S
H458 C470 0.950 . S
H459 C471 0.950 1_544 S
C460 H452 0.950 . S
C460 C461 1.386 . S
C460 C462 1.391 . S
C461 C460 1.386 . S
C461 C465 1.393 1_554 S
C462 H454 0.950 . S
C462 C460 1.391 . S
C462 C463 1.400 1_554 S
C463 C462 1.400 1_556 S
C463 C464 1.398 . S
C463 C469 1.491 . S
C464 H455 0.950 . S
C464 C463 1.398 . S
C464 C465 1.391 . S
C465 H453 0.950 . S
C465 C461 1.393 1_556 S
C465 C464 1.391 . S
C466 H456 0.950 . S
C466 C467 1.409 . S
C466 C468 1.391 . S
C467 C466 1.409 . S
C467 C471 1.398 . S
C468 H457 0.950 . S
C468 C466 1.391 . S
C468 C469 1.400 . S
C469 C463 1.491 . S
C469 C468 1.400 . S
C469 C470 1.398 1_556 S
C470 H458 0.950 . S
C470 C469 1.398 1_554 S
C470 C471 1.391 1_554 S
C471 H459 0.950 1_566 S
C471 C467 1.398 . S
C471 C470 1.391 1_556 S
H472 C480 0.950 . S
H473 C485 0.950 . S
H474 C482 0.950 . S
H475 C484 0.950 . S
H476 C486 0.950 1_654 S
H477 C488 0.950 . S
H478 C490 0.950 . S
H479 C491 0.950 . S
C480 H472 0.950 . S
C480 C481 1.386 1_556 S
C480 C482 1.391 . S
C481 C480 1.386 1_554 S
C481 C485 1.393 . S
C482 H474 0.950 . S
C482 C480 1.391 . S
C482 C483 1.400 . S
C483 C482 1.400 . S
C483 C484 1.398 1_556 S
C483 C489 1.491 . S
C484 H475 0.950 . S
C484 C483 1.398 1_554 S
C484 C485 1.391 . S
C485 H473 0.950 . S
C485 C481 1.393 . S
C485 C484 1.391 . S
C486 H476 0.950 1_456 S
C486 C487 1.386 . S
C486 C488 1.391 1_556 S
C487 C486 1.386 . S
C487 C491 1.393 . S
C488 H477 0.950 . S
C488 C486 1.391 1_554 S
C488 C489 1.400 1_554 S
C489 C483 1.491 . S
C489 C488 1.400 1_556 S
C489 C490 1.398 . S
C490 H478 0.950 . S
C490 C489 1.398 . S
C490 C491 1.391 . S
C491 H479 0.950 . S
C491 C487 1.393 . S
C491 C490 1.391 . S
H492 C500 0.950 . S
H493 C505 0.950 . S
H494 C502 0.950 . S
H495 C504 0.950 . S
H496 C506 0.950 . S
H497 C508 0.950 . S
H498 C510 0.950 . S
H499 C511 0.950 . S
C500 H492 0.950 . S
C500 C501 1.386 . S
C500 C502 1.391 . S
C501 C500 1.386 . S
C501 C505 1.393 . S
C502 H494 0.950 . S
C502 C500 1.391 . S
C502 C503 1.400 . S
C503 C502 1.400 . S
C503 C504 1.398 . S
C503 C509 1.491 . S
C504 H495 0.950 . S
C504 C503 1.398 . S
C504 C505 1.391 . S
C505 H493 0.950 . S
C505 C501 1.393 . S
C505 C504 1.391 . S
C506 H496 0.950 . S
C506 C507 1.386 . S
C506 C508 1.391 . S
C507 C506 1.386 . S
C507 C511 1.393 . S
C508 H497 0.950 . S
C508 C506 1.391 . S
C508 C509 1.400 . S
C509 C503 1.491 . S
C509 C508 1.400 . S
C509 C510 1.398 . S
C510 H498 0.950 . S
C510 C509 1.398 . S
C510 C511 1.391 . S
C511 H499 0.950 . S
C511 C507 1.393 . S
C511 C510 1.391 . S
H512 C520 0.950 . S
H513 C525 0.950 . S
H514 C522 0.950 . S
H515 C524 0.950 . S
H516 C526 0.950 . S
H517 C528 0.950 . S
H518 C530 0.950 . S
H519 C531 0.950 . S
C520 H512 0.950 . S
C520 C521 1.386 . S
C520 C522 1.391 . S
C521 C520 1.386 . S
C521 C525 1.393 . S
C522 H514 0.950 . S
C522 C520 1.391 . S
C522 C523 1.400 . S
C523 C522 1.400 . S
C523 C524 1.398 . S
C523 C529 1.491 . S
C524 H515 0.950 . S
C524 C523 1.398 . S
C524 C525 1.391 . S
C525 H513 0.950 . S
C525 C521 1.393 . S
C525 C524 1.391 . S
C526 H516 0.950 . S
C526 C527 1.385 1_565 S
C526 C528 1.391 . S
C527 C526 1.385 1_545 S
C527 C531 1.393 1_545 S
C528 H517 0.950 . S
C528 C526 1.391 . S
C528 C529 1.400 . S
C529 C523 1.491 . S
C529 C528 1.400 . S
C529 C530 1.398 . S
C530 H518 0.950 . S
C530 C529 1.398 . S
C530 C531 1.391 . S
C531 H519 0.950 . S
C531 C527 1.393 1_565 S
C531 C530 1.391 . S
H532 C540 0.950 1_655 S
H533 C545 0.950 . S
H534 C542 0.950 . S
H535 C544 0.950 . S
H536 C546 0.950 . S
H537 C548 0.950 . S
H538 C550 0.950 . S
H539 C551 0.950 . S
C540 H532 0.950 1_455 S
C540 C541 1.386 1_455 S
C540 C542 1.391 . S
C541 C540 1.386 1_655 S
C541 C545 1.393 1_655 S
C542 H534 0.950 . S
C542 C540 1.391 . S
C542 C543 1.400 . S
C543 C542 1.400 . S
C543 C544 1.398 . S
C543 C549 1.491 . S
C544 H535 0.950 . S
C544 C543 1.398 . S
C544 C545 1.391 . S
C545 H533 0.950 . S
C545 C541 1.393 1_455 S
C545 C544 1.391 . S
C546 H536 0.950 . S
C546 C547 1.386 . S
C546 C548 1.391 . S
C547 C546 1.386 . S
C547 C551 1.393 . S
C548 H537 0.950 . S
C548 C546 1.391 . S
C548 C549 1.400 . S
C549 C543 1.491 . S
C549 C548 1.400 . S
C549 C550 1.398 . S
C550 H538 0.950 . S
C550 C549 1.398 . S
C550 C551 1.391 . S
C551 H539 0.950 . S
C551 C547 1.393 . S
C551 C550 1.391 . S
H552 C560 0.950 . S
H553 C565 0.950 1_556 S
H554 C562 0.950 . S
H555 C564 0.950 . S
H556 C566 0.950 . S
H557 C568 0.950 . S
H558 C570 0.950 . S
H559 C571 0.947 1_554 S
C560 H552 0.950 . S
C560 C561 1.386 . S
C560 C562 1.391 . S
C561 C560 1.386 . S
C561 C565 1.393 . S
C562 H554 0.950 . S
C562 C560 1.391 . S
C562 C563 1.400 . S
C563 C562 1.400 . S
C563 C564 1.398 1_554 S
C563 C569 1.491 1_554 S
C564 H555 0.950 . S
C564 C563 1.398 1_556 S
C564 C565 1.391 1_556 S
C565 H553 0.950 1_554 S
C565 C561 1.393 . S
C565 C564 1.391 1_554 S
C566 H556 0.950 . S
C566 C567 1.386 . S
C566 C568 1.391 . S
C567 C566 1.386 . S
C567 C571 1.397 . S
C568 H557 0.950 . S
C568 C566 1.391 . S
C568 C569 1.400 . S
C569 C563 1.491 1_556 S
C569 C568 1.400 . S
C569 C570 1.398 1_556 S
C570 H558 0.950 . S
C570 C569 1.398 1_554 S
C570 C571 1.389 1_554 S
C571 H559 0.947 1_556 S
C571 C567 1.397 . S
C571 C570 1.389 1_556 S
H572 C580 0.950 . S
H573 C585 0.950 . S
H574 C582 0.950 . S
H575 C584 0.950 1_554 S
H576 C586 0.950 . S
H577 C588 0.950 . S
H578 C590 0.957 . S
H579 C591 0.950 . S
C580 H572 0.950 . S
C580 C581 1.386 . S
C580 C582 1.391 . S
C581 C580 1.386 . S
C581 C585 1.393 . S
C582 H574 0.950 . S
C582 C580 1.391 . S
C582 C583 1.400 . S
C583 C582 1.400 . S
C583 C584 1.398 . S
C583 C589 1.491 1_556 S
C584 H575 0.950 1_556 S
C584 C583 1.398 . S
C584 C585 1.391 . S
C585 H573 0.950 . S
C585 C581 1.393 . S
C585 C584 1.391 . S
C586 H576 0.950 . S
C586 C587 1.386 . S
C586 C588 1.391 . S
C587 C586 1.386 . S
C587 C591 1.393 . S
C588 H577 0.950 . S
C588 C586 1.391 . S
C588 C589 1.400 . S
C589 C583 1.491 1_554 S
C589 C588 1.400 . S
C589 C590 1.398 . S
C590 H578 0.957 . S
C590 C589 1.398 . S
C590 C591 1.391 . S
C591 H579 0.950 . S
C591 C587 1.393 . S
C591 C590 1.391 . S
H592 C600 0.950 1_456 S
H593 C605 0.950 . S
H594 C602 0.950 . S
H595 C604 0.950 . S
H596 C606 0.950 . S
H597 C608 0.950 . S
H598 C610 0.950 . S
H599 C611 0.950 . S
C600 H592 0.950 1_654 S
C600 C601 1.386 . S
C600 C602 1.391 1_554 S
C601 C600 1.386 . S
C601 C605 1.393 . S
C602 H594 0.950 . S
C602 C600 1.391 1_556 S
C602 C603 1.400 1_556 S
C603 C602 1.400 1_554 S
C603 C604 1.398 . S
C603 C609 1.491 . S
C604 H595 0.950 . S
C604 C603 1.398 . S
C604 C605 1.391 . S
C605 H593 0.950 . S
C605 C601 1.393 . S
C605 C604 1.391 . S
C606 H596 0.950 . S
C606 C607 1.386 1_554 S
C606 C608 1.391 . S
C607 C606 1.386 1_556 S
C607 C611 1.393 . S
C608 H597 0.950 . S
C608 C606 1.391 . S
C608 C609 1.400 . S
C609 C603 1.491 . S
C609 C608 1.400 . S
C609 C610 1.398 1_554 S
C610 H598 0.950 . S
C610 C609 1.398 1_556 S
C610 C611 1.391 . S
C611 H599 0.950 . S
C611 C607 1.393 . S
C611 C610 1.391 . S
H612 C620 0.950 . S
H613 C625 0.950 . S
H614 C622 0.950 . S
H615 C624 0.950 . S
H616 C626 0.950 . S
H617 C628 0.950 . S
H618 C630 0.950 . S
H619 C631 0.950 . S
C620 H612 0.950 . S
C620 C621 1.386 . S
C620 C622 1.391 . S
C621 C620 1.386 . S
C621 C625 1.393 . S
C622 H614 0.950 . S
C622 C620 1.391 . S
C622 C623 1.400 . S
C623 C622 1.400 . S
C623 C624 1.398 . S
C623 C629 1.491 . S
C624 H615 0.950 . S
C624 C623 1.398 . S
C624 C625 1.391 . S
C625 H613 0.950 . S
C625 C621 1.393 . S
C625 C624 1.391 . S
C626 H616 0.950 . S
C626 C627 1.386 . S
C626 C628 1.391 . S
C627 C626 1.386 . S
C627 C631 1.393 . S
C628 H617 0.950 . S
C628 C626 1.391 . S
C628 C629 1.400 . S
C629 C623 1.491 . S
C629 C628 1.400 . S
C629 C630 1.398 . S
C630 H618 0.950 . S
C630 C629 1.398 . S
C630 C631 1.391 . S
C631 H619 0.950 . S
C631 C627 1.393 . S
C631 C630 1.391 . S
H632 C640 0.950 . S
H633 C645 0.950 . S
H634 C642 0.950 . S
H635 C644 0.950 . S
H636 C646 0.950 . S
H637 C648 0.950 . S
H638 C650 0.950 . S
H639 C651 0.950 . S
C640 H632 0.950 . S
C640 C641 1.386 . S
C640 C642 1.391 . S
C641 C640 1.386 . S
C641 C645 1.393 . S
C642 H634 0.950 . S
C642 C640 1.391 . S
C642 C643 1.400 . S
C643 C642 1.400 . S
C643 C644 1.398 . S
C643 C649 1.491 . S
C644 H635 0.950 . S
C644 C643 1.398 . S
C644 C645 1.391 . S
C645 H633 0.950 . S
C645 C641 1.393 . S
C645 C644 1.391 . S
C646 H636 0.950 . S
C646 C647 1.386 . S
C646 C648 1.391 . S
C647 C646 1.386 . S
C647 C651 1.393 . S
C648 H637 0.950 . S
C648 C646 1.391 . S
C648 C649 1.400 . S
C649 C643 1.491 . S
C649 C648 1.400 . S
C649 C650 1.398 . S
C650 H638 0.950 . S
C650 C649 1.398 . S
C650 C651 1.391 . S
C651 H639 0.950 . S
C651 C647 1.393 . S
C651 C650 1.391 . S
H652 C660 0.950 . S
H653 C665 0.950 1_455 S
H654 C662 0.950 . S
H655 C664 0.950 . S
H656 C666 0.950 . S
H657 C668 0.950 . S
H658 C670 0.950 . S
H659 C671 0.950 . S
C660 H652 0.950 . S
C660 C661 1.386 1_655 S
C660 C662 1.391 . S
C661 C660 1.386 1_455 S
C661 C665 1.393 1_455 S
C662 H654 0.950 . S
C662 C660 1.391 . S
C662 C663 1.400 . S
C663 C662 1.400 . S
C663 C664 1.398 . S
C663 C669 1.491 . S
C664 H655 0.950 . S
C664 C663 1.398 . S
C664 C665 1.391 . S
C665 H653 0.950 1_655 S
C665 C661 1.393 1_655 S
C665 C664 1.391 . S
C666 H656 0.950 . S
C666 C667 1.386 . S
C666 C668 1.391 . S
C667 C666 1.386 . S
C667 C671 1.393 . S
C668 H657 0.950 . S
C668 C666 1.391 . S
C668 C669 1.400 . S
C669 C663 1.491 . S
C669 C668 1.400 . S
C669 C670 1.398 . S
C670 H658 0.950 . S
C670 C669 1.398 . S
C670 C671 1.391 . S
C671 H659 0.950 . S
C671 C667 1.393 . S
C671 C670 1.391 . S
H672 C680 0.950 . S
H673 C685 0.950 . S
H674 C682 0.950 . S
H675 C684 0.950 . S
H676 C686 0.950 . S
H677 C688 0.950 . S
H678 C690 0.950 . S
H679 C691 0.950 . S
C680 H672 0.950 . S
C680 C681 1.386 . S
C680 C682 1.391 . S
C681 C680 1.386 . S
C681 C685 1.393 . S
C682 H674 0.950 . S
C682 C680 1.391 . S
C682 C683 1.400 . S
C683 C682 1.400 . S
C683 C684 1.398 . S
C683 C689 1.491 . S
C684 H675 0.950 . S
C684 C683 1.398 . S
C684 C685 1.391 . S
C685 H673 0.950 . S
C685 C681 1.393 . S
C685 C684 1.391 . S
C686 H676 0.950 . S
C686 C687 1.386 . S
C686 C688 1.391 . S
C687 C686 1.386 . S
C687 C691 1.393 . S
C688 H677 0.950 . S
C688 C686 1.391 . S
C688 C689 1.400 . S
C689 C683 1.491 . S
C689 C688 1.400 . S
C689 C690 1.398 . S
C690 H678 0.950 . S
C690 C689 1.398 . S
C690 C691 1.391 . S
C691 H679 0.950 . S
C691 C687 1.393 . S
C691 C690 1.391 . S
H692 C700 0.950 . S
H693 C705 0.950 . S
H694 C702 0.950 . S
H695 C704 0.950 . S
H696 C706 0.950 . S
H697 C708 0.950 . S
H698 C710 0.950 . S
H699 C711 0.950 . S
C700 H692 0.950 . S
C700 C701 1.386 . S
C700 C702 1.391 . S
C701 C700 1.386 . S
C701 C705 1.393 . S
C702 H694 0.950 . S
C702 C700 1.391 . S
C702 C703 1.400 . S
C703 C702 1.400 . S
C703 C704 1.398 . S
C703 C709 1.491 . S
C704 H695 0.950 . S
C704 C703 1.398 . S
C704 C705 1.391 . S
C705 H693 0.950 . S
C705 C701 1.393 . S
C705 C704 1.391 . S
C706 H696 0.950 . S
C706 C707 1.386 . S
C706 C708 1.391 . S
C707 C706 1.386 . S
C707 C711 1.393 . S
C708 H697 0.950 . S
C708 C706 1.391 . S
C708 C709 1.400 . S
C709 C703 1.491 . S
C709 C708 1.400 . S
C709 C710 1.398 . S
C710 H698 0.950 . S
C710 C709 1.398 . S
C710 C711 1.391 . S
C711 H699 0.950 . S
C711 C707 1.393 . S
C711 C710 1.391 . S
H712 C720 0.950 . S
H713 C725 0.950 . S
H714 C722 0.950 . S
H715 C724 0.950 . S
H716 C726 0.950 . S
H717 C728 0.950 . S
H718 C730 0.950 . S
H719 C731 0.950 . S
C720 H712 0.950 . S
C720 C721 1.386 . S
C720 C722 1.391 . S
C721 C720 1.386 . S
C721 C725 1.393 . S
C722 H714 0.950 . S
C722 C720 1.391 . S
C722 C723 1.400 . S
C723 C722 1.400 . S
C723 C724 1.398 . S
C723 C729 1.491 . S
C724 H715 0.950 . S
C724 C723 1.398 . S
C724 C725 1.391 . S
C725 H713 0.950 . S
C725 C721 1.393 . S
C725 C724 1.391 . S
C726 H716 0.950 . S
C726 C727 1.386 . S
C726 C728 1.391 . S
C727 C726 1.386 . S
C727 C731 1.393 . S
C728 H717 0.950 . S
C728 C726 1.391 . S
C728 C729 1.400 . S
C729 C723 1.491 . S
C729 C728 1.400 . S
C729 C730 1.398 . S
C730 H718 0.950 . S
C730 C729 1.398 . S
C730 C731 1.391 . S
C731 H719 0.950 . S
C731 C727 1.393 . S
C731 C730 1.391 . S
H732 C740 0.950 . S
H733 C745 0.950 . S
H734 C742 0.950 . S
H735 C744 0.950 . S
H736 C746 0.950 . S
H737 C748 0.950 . S
H738 C750 0.950 . S
H739 C751 0.950 . S
C740 H732 0.950 . S
C740 C741 1.386 . S
C740 C742 1.391 . S
C741 C740 1.386 . S
C741 C745 1.393 . S
C742 H734 0.950 . S
C742 C740 1.391 . S
C742 C743 1.400 . S
C743 C742 1.400 . S
C743 C744 1.398 . S
C743 C749 1.491 . S
C744 H735 0.950 . S
C744 C743 1.398 . S
C744 C745 1.391 . S
C745 H733 0.950 . S
C745 C741 1.393 . S
C745 C744 1.391 . S
C746 H736 0.950 . S
C746 C747 1.386 . S
C746 C748 1.391 . S
C747 C746 1.386 . S
C747 C751 1.393 . S
C748 H737 0.950 . S
C748 C746 1.391 . S
C748 C749 1.400 . S
C749 C743 1.491 . S
C749 C748 1.400 . S
C749 C750 1.398 . S
C750 H738 0.950 . S
C750 C749 1.398 . S
C750 C751 1.391 . S
C751 H739 0.950 . S
C751 C747 1.393 . S
C751 C750 1.391 . S
H752 C760 0.950 . S
H753 C765 0.950 . S
H754 C762 0.950 . S
H755 C764 0.950 . S
H756 C766 0.950 . S
H757 C768 0.950 . S
H758 C770 0.950 . S
H759 C771 0.950 . S
C760 H752 0.950 . S
C760 C761 1.386 . S
C760 C762 1.391 . S
C761 C760 1.386 . S
C761 C765 1.393 . S
C762 H754 0.950 . S
C762 C760 1.391 . S
C762 C763 1.400 . S
C763 C762 1.400 . S
C763 C764 1.398 . S
C763 C769 1.491 . S
C764 H755 0.950 . S
C764 C763 1.398 . S
C764 C765 1.391 . S
C765 H753 0.950 . S
C765 C761 1.393 . S
C765 C764 1.391 . S
C766 H756 0.950 . S
C766 C767 1.386 . S
C766 C768 1.391 . S
C767 C766 1.386 . S
C767 C771 1.393 . S
C768 H757 0.950 . S
C768 C766 1.391 . S
C768 C769 1.400 . S
C769 C763 1.491 . S
C769 C768 1.400 . S
C769 C770 1.398 . S
C770 H758 0.950 . S
C770 C769 1.398 . S
C770 C771 1.391 . S
C771 H759 0.950 . S
C771 C767 1.393 . S
C771 C770 1.391 . S
H772 C780 0.950 . S
H773 C785 0.950 . S
H774 C782 0.950 . S
H775 C784 0.950 . S
H776 C786 0.950 . S
H777 C788 0.950 . S
H778 C790 0.950 . S
H779 C791 0.950 . S
C780 H772 0.950 . S
C780 C781 1.386 . S
C780 C782 1.391 . S
C781 C780 1.386 . S
C781 C785 1.393 . S
C782 H774 0.950 . S
C782 C780 1.391 . S
C782 C783 1.400 . S
C783 C782 1.400 . S
C783 C784 1.398 . S
C783 C789 1.491 . S
C784 H775 0.950 . S
C784 C783 1.398 . S
C784 C785 1.391 . S
C785 H773 0.950 . S
C785 C781 1.393 . S
C785 C784 1.391 . S
C786 H776 0.950 . S
C786 C787 1.386 . S
C786 C788 1.391 . S
C787 C786 1.386 . S
C787 C791 1.393 . S
C788 H777 0.950 . S
C788 C786 1.391 . S
C788 C789 1.400 . S
C789 C783 1.491 . S
C789 C788 1.400 . S
C789 C790 1.398 . S
C790 H778 0.950 . S
C790 C789 1.398 . S
C790 C791 1.391 . S
C791 H779 0.950 . S
C791 C787 1.393 . S
C791 C790 1.391 . S
H792 C800 0.950 . S
H793 C805 0.950 1_556 S
H794 C802 0.950 1_655 S
H795 C804 0.950 . S
H796 C806 0.950 . S
H797 C808 0.950 1_455 S
H798 C810 0.950 . S
H799 C811 0.950 1_554 S
C800 H792 0.950 . S
C800 C801 1.386 . S
C800 C802 1.391 . S
C801 C800 1.386 . S
C801 C805 1.393 . S
C802 H794 0.950 1_455 S
C802 C800 1.391 . S
C802 C803 1.400 . S
C803 C802 1.400 . S
C803 C804 1.398 1_554 S
C803 C809 1.491 1_454 S
C804 H795 0.950 . S
C804 C803 1.398 1_556 S
C804 C805 1.391 1_556 S
C805 H793 0.950 1_554 S
C805 C801 1.393 . S
C805 C804 1.391 1_554 S
C806 H796 0.950 . S
C806 C807 1.386 . S
C806 C808 1.391 . S
C807 C806 1.386 . S
C807 C811 1.393 . S
C808 H797 0.950 1_655 S
C808 C806 1.391 . S
C808 C809 1.400 . S
C809 C803 1.491 1_656 S
C809 C808 1.400 . S
C809 C810 1.398 1_556 S
C810 H798 0.950 . S
C810 C809 1.398 1_554 S
C810 C811 1.391 1_554 S
C811 H799 0.950 1_556 S
C811 C807 1.393 . S
C811 C810 1.391 1_556 S
H812 C820 0.950 . S
H813 C825 0.950 . S
H814 C822 0.950 . S
H815 C824 0.950 . S
H816 C826 0.950 . S
H817 C828 0.950 . S
H818 C830 0.950 . S
H819 C831 0.950 . S
C820 H812 0.950 . S
C820 C821 1.386 1_556 S
C820 C822 1.391 . S
C821 C820 1.386 1_554 S
C821 C825 1.393 . S
C822 H814 0.950 . S
C822 C820 1.391 . S
C822 C823 1.397 1_556 S
C823 C822 1.397 1_554 S
C823 C824 1.405 . S
C823 C829 1.488 1_554 S
C824 H815 0.950 . S
C824 C823 1.405 . S
C824 C825 1.391 . S
C825 H813 0.950 . S
C825 C821 1.393 . S
C825 C824 1.391 . S
C826 H816 0.950 . S
C826 C827 1.386 . S
C826 C828 1.391 1_556 S
C827 C826 1.386 . S
C827 C831 1.393 . S
C828 H817 0.950 . S
C828 C826 1.391 1_554 S
C828 C829 1.400 1_554 S
C829 C823 1.488 1_556 S
C829 C828 1.400 1_556 S
C829 C830 1.398 . S
C830 H818 0.950 . S
C830 C829 1.398 . S
C830 C831 1.391 . S
C831 H819 0.950 . S
C831 C827 1.393 . S
C831 C830 1.391 . S
H832 C840 0.950 . S
H833 C845 0.950 1_556 S
H834 C842 0.950 . S
H835 C844 0.950 . S
H836 C846 0.950 . S
H837 C848 0.950 . S
H838 C850 0.950 . S
H839 C851 0.950 1_554 S
C840 H832 0.950 . S
C840 C841 1.386 . S
C840 C842 1.391 . S
C841 C840 1.386 . S
C841 C845 1.393 . S
C842 H834 0.950 . S
C842 C840 1.391 . S
C842 C843 1.400 . S
C843 C842 1.400 . S
C843 C844 1.398 1_554 S
C843 C849 1.491 1_564 S
C844 H835 0.950 . S
C844 C843 1.398 1_556 S
C844 C845 1.391 1_556 S
C845 H833 0.950 1_554 S
C845 C841 1.393 . S
C845 C844 1.391 1_554 S
C846 H836 0.950 . S
C846 C847 1.386 . S
C846 C848 1.391 . S
C847 C846 1.386 . S
C847 C851 1.393 . S
C848 H837 0.950 . S
C848 C846 1.391 . S
C848 C849 1.400 . S
C849 C843 1.491 1_546 S
C849 C848 1.400 . S
C849 C850 1.398 1_556 S
C850 H838 0.950 . S
C850 C849 1.398 1_554 S
C850 C851 1.391 1_554 S
C851 H839 0.950 1_556 S
C851 C847 1.393 . S
C851 C850 1.391 1_556 S
H852 C860 0.950 . S
H853 C865 0.950 . S
H854 C862 0.950 . S
H855 C864 0.950 . S
H856 C866 0.950 . S
H857 C868 0.950 . S
H858 C870 0.950 . S
H859 C871 0.950 . S
C860 H852 0.950 . S
C860 C861 1.386 . S
C860 C862 1.391 . S
C861 C860 1.386 . S
C861 C865 1.393 . S
C862 H854 0.950 . S
C862 C860 1.391 . S
C862 C863 1.400 . S
C863 C862 1.400 . S
C863 C864 1.398 . S
C863 C869 1.491 1_565 S
C864 H855 0.950 . S
C864 C863 1.398 . S
C864 C865 1.391 . S
C865 H853 0.950 . S
C865 C861 1.393 . S
C865 C864 1.391 . S
C866 H856 0.950 . S
C866 C867 1.386 . S
C866 C868 1.391 . S
C867 C866 1.386 . S
C867 C871 1.393 . S
C868 H857 0.950 . S
C868 C866 1.391 . S
C868 C869 1.400 . S
C869 C863 1.491 1_545 S
C869 C868 1.400 . S
C869 C870 1.398 . S
C870 H858 0.950 . S
C870 C869 1.398 . S
C870 C871 1.391 . S
C871 H859 0.950 . S
C871 C867 1.393 . S
C871 C870 1.391 . S
H872 C880 0.950 . S
H873 C885 0.950 1_455 S
H874 C882 0.950 . S
H875 C884 0.950 . S
H876 C886 0.950 . S
H877 C888 0.950 . S
H878 C890 0.950 . S
H879 C891 0.950 1_655 S
C880 H872 0.950 . S
C880 C881 1.386 . S
C880 C882 1.391 . S
C881 C880 1.386 . S
C881 C885 1.393 . S
C882 H874 0.950 . S
C882 C880 1.391 . S
C882 C883 1.400 . S
C883 C882 1.400 . S
C883 C884 1.398 1_655 S
C883 C889 1.491 1_655 S
C884 H875 0.950 . S
C884 C883 1.398 1_455 S
C884 C885 1.391 1_455 S
C885 H873 0.950 1_655 S
C885 C881 1.393 . S
C885 C884 1.391 1_655 S
C886 H876 0.950 . S
C886 C887 1.386 . S
C886 C888 1.391 . S
C887 C886 1.386 . S
C887 C891 1.393 . S
C888 H877 0.950 . S
C888 C886 1.391 . S
C888 C889 1.400 . S
C889 C883 1.491 1_455 S
C889 C888 1.400 . S
C889 C890 1.398 1_455 S
C890 H878 0.950 . S
C890 C889 1.398 1_655 S
C890 C891 1.391 1_655 S
C891 H879 0.950 1_455 S
C891 C887 1.393 . S
C891 C890 1.391 1_455 S
H892 C900 0.950 . S
H893 C905 0.950 . S
H894 C902 0.950 . S
H895 C904 0.950 . S
H896 C906 0.950 . S
H897 C908 0.950 . S
H898 C910 0.950 . S
H899 C911 0.950 . S
C900 H892 0.950 . S
C900 C901 1.386 . S
C900 C902 1.391 . S
C901 C900 1.386 . S
C901 C905 1.393 . S
C902 H894 0.950 . S
C902 C900 1.391 . S
C902 C903 1.400 . S
C903 C902 1.400 . S
C903 C904 1.398 . S
C903 C909 1.491 . S
C904 H895 0.950 . S
C904 C903 1.398 . S
C904 C905 1.391 . S
C905 H893 0.950 . S
C905 C901 1.393 . S
C905 C904 1.391 . S
C906 H896 0.950 . S
C906 C907 1.386 . S
C906 C908 1.391 . S
C907 C906 1.386 . S
C907 C911 1.393 . S
C908 H897 0.950 . S
C908 C906 1.391 . S
C908 C909 1.400 . S
C909 C903 1.491 . S
C909 C908 1.400 . S
C909 C910 1.398 . S
C910 H898 0.950 . S
C910 C909 1.398 . S
C910 C911 1.391 . S
C911 H899 0.950 . S
C911 C907 1.393 . S
C911 C910 1.391 . S
C441 C4 0.680 . S
C447 C254 0.659 . S
C461 C40 0.643 . S
C467 C290 0.622 1_565 S
C481 C86 0.700 . S
C487 C218 0.729 1_455 S
C501 C398 0.734 . S
C507 C122 0.695 . S
C521 C148 0.678 . S
C527 C326 0.655 . S
C541 C362 0.677 . S
C547 C184 0.662 . S
C561 C38 0.631 . S
C567 C220 0.615 . S
C581 C256 0.634 . S
C587 C75 0.615 1_545 S
C601 C2 0.737 1_655 S
C607 C292 0.741 . S
C621 C328 0.741 . S
C627 C182 0.718 . S
C641 C364 0.609 . S
C647 C111 0.610 1_545 S
C661 C146 0.625 . S
C667 C400 0.649 . S
C681 C194 1.514 . S
C687 C14 1.516 . S
C701 C50 1.432 . S
C707 C112 1.556 . S
C721 C76 1.568 . S
C727 C158 1.451 . S
C741 C230 1.481 . S
C747 C410 1.488 . S
C761 C266 1.472 . S
C767 C338 1.496 . S
C781 C302 1.482 . S
C787 C374 1.459 . S
C801 C3 1.652 . S
C807 C219 1.652 . S
C821 C39 1.625 . S
C827 C255 1.622 . S
C841 C74 1.657 . S
C847 C291 1.680 . S
C861 C110 1.657 . S
C867 C327 1.681 . S
C881 C363 1.632 . S
C887 C147 1.635 . S
C901 C183 1.640 . S
C907 C399 1.640 . S
