# Generated by pormake.
# Topology fns, (5)-cn, num edge types: 1
# Building blocks:
#     Node 0, Type 0, BuildingBlock: BEQFEK_clean_sbu_0, # of connection points: 5
#     Node 1, Type 0, BuildingBlock: BEQFEK_clean_sbu_0, # of connection points: 5
#     Node 2, Type 0, BuildingBlock: BEQFEK_clean_sbu_0, # of connection points: 5
#     Node 3, Type 0, BuildingBlock: BEQFEK_clean_sbu_0, # of connection points: 5
#     Node 4, Type 0, BuildingBlock: BEQFEK_clean_sbu_0, # of connection points: 5
#     Node 5, Type 0, BuildingBlock: BEQFEK_clean_sbu_0, # of connection points: 5
#     Edge 6, Type (0, 0), BuildingBlock: XUDNAN_clean_linker_2, # of connection points: 2
#     Edge 7, Type (0, 0), BuildingBlock: XUDNAN_clean_linker_2, # of connection points: 2
#     Edge 8, Type (0, 0), BuildingBlock: XUDNAN_clean_linker_2, # of connection points: 2
#     Edge 9, Type (0, 0), BuildingBlock: XUDNAN_clean_linker_2, # of connection points: 2
#     Edge 10, Type (0, 0), BuildingBlock: XUDNAN_clean_linker_2, # of connection points: 2
#     Edge 11, Type (0, 0), BuildingBlock: XUDNAN_clean_linker_2, # of connection points: 2
#     Edge 12, Type (0, 0), BuildingBlock: XUDNAN_clean_linker_2, # of connection points: 2
#     Edge 13, Type (0, 0), BuildingBlock: XUDNAN_clean_linker_2, # of connection points: 2
#     Edge 14, Type (0, 0), BuildingBlock: XUDNAN_clean_linker_2, # of connection points: 2
#     Edge 15, Type (0, 0), BuildingBlock: XUDNAN_clean_linker_2, # of connection points: 2
#     Edge 16, Type (0, 0), BuildingBlock: XUDNAN_clean_linker_2, # of connection points: 2
#     Edge 17, Type (0, 0), BuildingBlock: XUDNAN_clean_linker_2, # of connection points: 2
#     Edge 18, Type (0, 0), BuildingBlock: XUDNAN_clean_linker_2, # of connection points: 2
#     Edge 19, Type (0, 0), BuildingBlock: XUDNAN_clean_linker_2, # of connection points: 2
#     Edge 20, Type (0, 0), BuildingBlock: XUDNAN_clean_linker_2, # of connection points: 2
# Relax obj value: 0.269
# Max RMSD: 0.257
# Mean RMSD: 0.257
data_MOF--net-fns--node1-BEQFEK_clean_sbu_0--edge1-XUDNAN_clean_linker_2
_symmetry_space_group_name_H-M    P1
_symmetry_Int_Tables_number       1
_symmetry_cell_setting            triclinic
loop_
_symmetry_equiv_pos_as_xyz
'x, y, z'
_cell_length_a     54.668693
_cell_length_b     54.54388
_cell_length_c     18.701454
_cell_angle_alpha  89.89194
_cell_angle_beta   90.10836
_cell_angle_gamma 120.06661
loop_
_atom_site_label
_atom_site_type_symbol
_atom_site_fract_x
_atom_site_fract_y
_atom_site_fract_z
_atom_type_partial_charge
Co0 Co 0.18108 0.62352 0.08259 0.0
Co1 Co 0.18057 0.60149 0.23636 0.0
C2 C 0.21401 0.66386 0.19452 0.0
O3 O 0.20563 0.66047 0.12996 0.0
O4 O 0.20615 0.64301 0.23685 0.0
C5 C 0.16816 0.64356 0.947 0.0
O6 O 0.16078 0.65989 0.98108 0.0
C7 C 0.16979 0.60443 0.38585 0.0
C8 C 0.16489 0.56478 0.43123 0.0
C9 C 0.16352 0.58879 0.44839 0.0
N10 N 0.17395 0.59003 0.33377 0.0
N11 N 0.17114 0.56639 0.36105 0.0
C12 C 0.17452 0.63377 0.37581 0.0
H13 H 0.1975 0.64851 0.3691 0.0
H14 H 0.16367 0.63461 0.32643 0.0
H15 H 0.16758 0.64145 0.42175 0.0
C16 C 0.11896 0.58644 0.10089 0.0
N17 N 0.1455 0.60077 0.12739 0.0
N18 N 0.14555 0.59144 0.19229 0.0
C19 C 0.1191 0.57121 0.2094 0.0
C20 C 0.10143 0.56725 0.15206 0.0
C21 C 0.11152 0.58745 0.02432 0.0
H22 H 0.12556 0.5836 0.98911 0.0
H23 H 0.1148 0.60879 0.0123 0.0
H24 H 0.08919 0.57148 0.01258 0.0
O25 O 0.20061 0.60153 0.07863 0.0
O26 O 0.19881 0.58288 0.18531 0.0
H27 H 0.12319 0.54194 0.27754 0.0
H28 H 0.08839 0.53818 0.27863 0.0
C29 C 0.11139 0.55357 0.2759 0.0
H30 H 0.11734 0.56754 0.32332 0.0
H31 H 0.1732 0.55127 0.3317 0.0
O32 O 0.17627 0.6289 0.98155 0.0
C33 C 0.2058 0.58602 0.1195 0.0
Co34 Co 0.56049 0.18364 0.40873 0.0
Co35 Co 0.57719 0.17914 0.56537 0.0
C36 C 0.55509 0.21795 0.52271 0.0
O37 O 0.55072 0.20988 0.45784 0.0
O38 O 0.56554 0.20792 0.56663 0.0
C39 C 0.52669 0.17387 0.27824 0.0
O40 O 0.50392 0.16477 0.31779 0.0
C41 C 0.56006 0.16658 0.71263 0.0
C42 C 0.59681 0.16797 0.76592 0.0
C43 C 0.57012 0.16413 0.77855 0.0
N44 N 0.57966 0.17126 0.66306 0.0
N45 N 0.60155 0.17189 0.69498 0.0
C46 C 0.53334 0.16696 0.69725 0.0
H47 H 0.52956 0.16641 0.6389 0.0
H48 H 0.51494 0.14846 0.72182 0.0
H49 H 0.53486 0.18639 0.72052 0.0
C50 C 0.52903 0.12076 0.42336 0.0
N51 N 0.54392 0.14711 0.45076 0.0
N52 N 0.55048 0.14538 0.51761 0.0
C53 C 0.53924 0.11787 0.5356 0.0
C54 C 0.5254 0.10135 0.47635 0.0
C55 C 0.52248 0.11449 0.34548 0.0
H56 H 0.54006 0.13065 0.31272 0.0
H57 H 0.50292 0.11495 0.33252 0.0
H58 H 0.5192 0.09332 0.33123 0.0
O59 O 0.60172 0.19966 0.40817 0.0
O60 O 0.61502 0.19599 0.51843 0.0
H61 H 0.56478 0.11643 0.62073 0.0
H62 H 0.53074 0.08434 0.61202 0.0
C63 C 0.54209 0.10774 0.60799 0.0
H64 H 0.53291 0.11555 0.64849 0.0
H65 H 0.61999 0.17579 0.66872 0.0
O66 O 0.55048 0.18186 0.30744 0.0
C67 C 0.62069 0.20306 0.45293 0.0
Co68 Co 0.36927 0.54777 0.74254 0.0
Co69 Co 0.39727 0.57741 0.88896 0.0
C70 C 0.33405 0.54686 0.86288 0.0
O71 O 0.33483 0.53944 0.79881 0.0
O72 O 0.35638 0.56136 0.89915 0.0
C73 C 0.35012 0.5155 0.58871 0.0
O74 O 0.33545 0.48769 0.58768 0.0
C75 C 0.40065 0.57311 0.04387 0.0
C76 C 0.43276 0.61656 0.0748 0.0
C77 C 0.4134 0.59033 0.10301 0.0
N78 N 0.41185 0.5885 0.98406 0.0
N79 N 0.43133 0.61437 0.00295 0.0
C80 C 0.37647 0.54322 0.04364 0.0
H81 H 0.36869 0.53601 0.98869 0.0
H82 H 0.38361 0.52889 0.0651 0.0
H83 H 0.3591 0.54138 0.07805 0.0
C84 C 0.40282 0.51981 0.77242 0.0
N85 N 0.3927 0.53679 0.79205 0.0
N86 N 0.40503 0.54973 0.85204 0.0
C87 C 0.42339 0.54142 0.87254 0.0
C88 C 0.42261 0.52218 0.82274 0.0
C89 C 0.39615 0.5045 0.70246 0.0
H90 H 0.40171 0.52 0.65829 0.0
H91 H 0.37311 0.48928 0.69948 0.0
H92 H 0.4079 0.49302 0.69496 0.0
O93 O 0.39226 0.58862 0.72141 0.0
O94 O 0.41265 0.61076 0.82309 0.0
H95 H 0.45343 0.57562 0.93755 0.0
H96 H 0.4563 0.54394 0.94302 0.0
C97 C 0.44146 0.55212 0.93815 0.0
H98 H 0.4277 0.54522 0.98598 0.0
H99 H 0.44262 0.63089 0.96692 0.0
O100 O 0.35764 0.52817 0.64858 0.0
C101 C 0.40843 0.61116 0.75603 0.0
Co102 Co 0.81848 0.37545 0.07939 0.0
Co103 Co 0.82479 0.40601 0.22512 0.0
C104 C 0.7862 0.34231 0.20243 0.0
O105 O 0.79395 0.34159 0.13862 0.0
O106 O 0.79607 0.36557 0.23619 0.0
C107 C 0.82416 0.35388 0.928 0.0
O108 O 0.83794 0.34047 0.94231 0.0
C109 C 0.83371 0.40668 0.37798 0.0
C110 C 0.8314 0.44407 0.4131 0.0
C111 C 0.83284 0.4209 0.43839 0.0
N112 N 0.83264 0.42068 0.31989 0.0
N113 N 0.83189 0.44337 0.34115 0.0
C114 C 0.83151 0.37821 0.37508 0.0
H115 H 0.83664 0.37402 0.32073 0.0
H116 H 0.8462 0.37699 0.41382 0.0
H117 H 0.80969 0.36164 0.38947 0.0
C118 C 0.88152 0.4056 0.09397 0.0
N119 N 0.85539 0.39749 0.1187 0.0
N120 N 0.8577 0.4105 0.17976 0.0
C121 C 0.88522 0.42733 0.19559 0.0
C122 C 0.90121 0.42476 0.14185 0.0
C123 C 0.88747 0.39727 0.02286 0.0
H124 H 0.87525 0.40084 0.98087 0.0
H125 H 0.88058 0.37439 0.02404 0.0
H126 H 0.91029 0.40947 0.00935 0.0
O127 O 0.80105 0.39956 0.07116 0.0
O128 O 0.80837 0.42508 0.16907 0.0
H129 H 0.91917 0.45878 0.26163 0.0
H130 H 0.88852 0.43247 0.30896 0.0
C131 C 0.89578 0.4459 0.26032 0.0
H132 H 0.88665 0.46006 0.26145 0.0
H133 H 0.8298 0.45729 0.30671 0.0
O134 O 0.81806 0.36582 0.97743 0.0
C135 C 0.79881 0.4184 0.10571 0.0
Co136 Co 0.44667 0.8222 0.412 0.0
Co137 Co 0.42036 0.82108 0.55992 0.0
C138 C 0.44762 0.78573 0.52676 0.0
O139 O 0.45493 0.79535 0.46355 0.0
O140 O 0.43427 0.79395 0.56653 0.0
C141 C 0.4526 0.81094 0.26879 0.0
O142 O 0.43351 0.78516 0.28822 0.0
C143 C 0.42873 0.8315 0.71053 0.0
C144 C 0.38747 0.82393 0.75008 0.0
C145 C 0.41442 0.83084 0.77159 0.0
N146 N 0.4113 0.82555 0.65463 0.0
N147 N 0.38665 0.8212 0.67827 0.0
C148 C 0.45797 0.83588 0.70591 0.0
H149 H 0.46584 0.84044 0.65009 0.0
H150 H 0.47247 0.85352 0.74143 0.0
H151 H 0.45765 0.81639 0.72454 0.0
C152 C 0.47444 0.88383 0.43794 0.0
N153 N 0.45958 0.85685 0.46111 0.0
N154 N 0.44804 0.85639 0.52304 0.0
C155 C 0.45509 0.88301 0.54115 0.0
C156 C 0.47214 0.90131 0.48795 0.0
C157 C 0.4865 0.89212 0.36432 0.0
H158 H 0.49995 0.8827 0.35283 0.0
H159 H 0.49924 0.9155 0.35847 0.0
H160 H 0.46897 0.88364 0.32482 0.0
O161 O 0.40532 0.80428 0.3953 0.0
O162 O 0.38614 0.80513 0.49912 0.0
H163 H 0.4187 0.87615 0.60054 0.0
H164 H 0.44722 0.91266 0.5999 0.0
C165 C 0.44198 0.8902 0.60186 0.0
H166 H 0.4499 0.88655 0.65308 0.0
H167 H 0.36912 0.81567 0.64573 0.0
O168 O 0.46329 0.8302 0.31595 0.0
C169 C 0.38384 0.79925 0.43266 0.0
Co170 Co 0.62829 0.45497 0.74132 0.0
Co171 Co 0.60504 0.42276 0.89026 0.0
C172 C 0.66695 0.45463 0.85331 0.0
O173 O 0.66387 0.46262 0.79162 0.0
O174 O 0.64605 0.43949 0.89344 0.0
C175 C 0.64351 0.48871 0.58919 0.0
O176 O 0.65851 0.51629 0.58013 0.0
C177 C 0.60506 0.42285 0.04785 0.0
C178 C 0.56484 0.38447 0.07546 0.0
C179 C 0.58832 0.40745 0.1057 0.0
N180 N 0.59181 0.40985 0.9867 0.0
N181 N 0.56784 0.38682 0.00373 0.0
C182 C 0.6343 0.44811 0.04957 0.0
H183 H 0.64932 0.4418 0.02879 0.0
H184 H 0.63532 0.46489 0.01389 0.0
H185 H 0.64141 0.4566 0.104 0.0
C186 C 0.59091 0.47708 0.78271 0.0
N187 N 0.60516 0.46362 0.79979 0.0
N188 N 0.59549 0.45023 0.86103 0.0
C189 C 0.57501 0.45497 0.88491 0.0
C190 C 0.5712 0.47188 0.83588 0.0
C191 C 0.59258 0.49007 0.71104 0.0
H192 H 0.58731 0.47389 0.66883 0.0
H193 H 0.61453 0.50748 0.70178 0.0
H194 H 0.57798 0.4986 0.70685 0.0
O195 O 0.60563 0.41451 0.71598 0.0
O196 O 0.58916 0.39103 0.81895 0.0
H197 H 0.54494 0.41745 0.93972 0.0
H198 H 0.54195 0.44831 0.9596 0.0
C199 C 0.55695 0.44066 0.94879 0.0
H200 H 0.5706 0.44495 -0.0036 0.0
H201 H 0.55344 0.37278 0.96641 0.0
O202 O 0.63977 0.47922 0.65302 0.0
C203 C 0.59119 0.39148 0.75071 0.0
H204 H 0.22391 0.58969 0.98185 0.0
H205 H 0.2203 0.54992 0.18599 0.0
H206 H 0.24594 0.52778 0.13277 0.0
H207 H 0.21765 0.53184 0.86548 0.0
H208 H 0.24233 0.55651 0.80135 0.0
H209 H 0.22021 0.5658 0.85236 0.0
H210 H 0.26439 0.61126 0.89755 0.0
H211 H 0.28662 0.60238 0.8463 0.0
H212 H 0.29237 0.60848 0.94113 0.0
H213 H 0.27721 0.51559 0.06279 0.0
H214 H 0.31388 0.5165 0.98412 0.0
H215 H 0.29638 0.56334 0.82483 0.0
C216 C 0.228 0.57592 0.01533 0.0
C217 C 0.22001 0.57149 0.08822 0.0
C218 C 0.22614 0.55358 0.13006 0.0
C219 C 0.24051 0.54076 0.1001 0.0
C220 C 0.2483 0.54584 0.02818 0.0
C221 C 0.24224 0.56302 0.98638 0.0
C222 C 0.25541 0.56759 0.91284 0.0
C223 C 0.23253 0.55465 0.85458 0.0
C224 C 0.27592 0.59929 0.8987 0.0
C225 C 0.27092 0.55125 0.9206 0.0
C226 C 0.26609 0.53842 0.98714 0.0
C227 C 0.28057 0.52487 0.00997 0.0
C228 C 0.30128 0.52542 0.96497 0.0
C229 C 0.30721 0.5393 0.89799 0.0
C230 C 0.29126 0.55156 0.87452 0.0
H231 H 0.66289 0.25645 0.48034 0.0
H232 H 0.64205 0.18084 0.35969 0.0
H233 H 0.68632 0.20737 0.29043 0.0
H234 H 0.6846 0.30031 0.33662 0.0
H235 H 0.7127 0.331 0.38016 0.0
H236 H 0.68333 0.3051 0.43164 0.0
H237 H 0.71743 0.29843 0.51518 0.0
H238 H 0.74706 0.32474 0.46459 0.0
H239 H 0.7426 0.28996 0.47731 0.0
H240 H 0.7281 0.24379 0.22092 0.0
H241 H 0.76539 0.28683 0.16082 0.0
H242 H 0.75816 0.3387 0.32591 0.0
C243 C 0.66855 0.24527 0.44196 0.0
C244 C 0.64982 0.21652 0.42662 0.0
C245 C 0.65676 0.20273 0.37323 0.0
C246 C 0.68174 0.21765 0.33357 0.0
C247 C 0.69936 0.24639 0.34777 0.0
C248 C 0.69324 0.26002 0.40129 0.0
C249 C 0.71344 0.29167 0.3994 0.0
C250 C 0.69756 0.30795 0.38615 0.0
C251 C 0.73119 0.30179 0.46821 0.0
C252 C 0.7314 0.29375 0.33568 0.0
C253 C 0.72315 0.26746 0.3068 0.0
C254 C 0.73516 0.26446 0.24396 0.0
C255 C 0.75618 0.28901 0.20992 0.0
C256 C 0.76488 0.31613 0.23883 0.0
C257 C 0.7524 0.3183 0.30291 0.0
H258 H 0.44337 0.76693 0.66446 0.0
H259 H 0.4603 0.75135 0.4476 0.0
H260 H 0.45869 0.70749 0.4881 0.0
H261 H 0.48314 0.73542 0.75662 0.0
H262 H 0.45737 0.72115 0.82745 0.0
H263 H 0.46502 0.7538 0.78417 0.0
H264 H 0.41196 0.73251 0.75485 0.0
H265 H 0.4041 0.69975 0.79703 0.0
H266 H 0.39376 0.69978 0.70545 0.0
H267 H 0.44596 0.66165 0.54574 0.0
H268 H 0.42696 0.61837 0.61914 0.0
H269 H 0.42041 0.66399 0.80092 0.0
C270 C 0.4476 0.75475 0.62587 0.0
C271 C 0.45197 0.76257 0.55281 0.0
C272 C 0.45716 0.74593 0.50387 0.0
C273 C 0.45627 0.72096 0.52642 0.0
C274 C 0.45077 0.71328 0.59827 0.0
C275 C 0.44709 0.72996 0.64766 0.0
C276 C 0.43911 0.71574 0.7204 0.0
C277 C 0.46257 0.73253 0.7754 0.0
C278 C 0.41054 0.7117 0.74585 0.0
C279 C 0.43714 0.68768 0.70308 0.0
C280 C 0.4443 0.6869 0.63249 0.0
C281 C 0.44112 0.66227 0.60156 0.0
C282 C 0.43014 0.63776 0.64354 0.0
C283 C 0.42262 0.63804 0.71582 0.0
C284 C 0.42672 0.66347 0.74635 0.0
H285 H 0.69641 0.4284 0.82164 0.0
H286 H 0.69747 0.49411 0.95295 0.0
H287 H 0.73661 0.49641 0.02489 0.0
H288 H 0.70226 0.3914 0.95824 0.0
H289 H 0.72421 0.38003 0.91431 0.0
H290 H 0.70157 0.38821 0.8622 0.0
H291 H 0.74444 0.42486 0.78829 0.0
H292 H 0.76724 0.41642 0.83943 0.0
H293 H 0.77487 0.45257 0.83364 0.0
H294 H 0.76904 0.48533 0.09516 0.0
H295 H 0.79418 0.46361 0.15403 0.0
H296 H 0.77113 0.40444 0.97745 0.0
C297 C 0.70611 0.44436 0.86294 0.0
C298 C 0.69494 0.4619 0.8804 0.0
C299 C 0.70666 0.48132 0.93753 0.0
C300 C 0.72872 0.48261 0.97881 0.0
C301 C 0.73862 0.46419 0.96226 0.0
C302 C 0.72796 0.44568 0.90497 0.0
C303 C 0.73943 0.42552 0.90427 0.0
C304 C 0.71544 0.39447 0.91014 0.0
C305 C 0.75758 0.43014 0.83744 0.0
C306 C 0.75736 0.43492 0.9713 0.0
C307 C 0.7569 0.45741 0.0037 0.0
C308 C 0.77006 0.4681 0.06946 0.0
C309 C 0.78412 0.45552 0.10276 0.0
C310 C 0.78477 0.43241 0.07033 0.0
C311 C 0.77137 0.42229 0.00342 0.0
H312 H 0.36949 0.77421 0.30071 0.0
H313 H 0.33432 0.7926 0.48729 0.0
H314 H 0.2868 0.76655 0.43306 0.0
H315 H 0.31994 0.77596 0.16504 0.0
H316 H 0.3184 0.74674 0.1163 0.0
H317 H 0.35012 0.77095 0.16399 0.0
H318 H 0.34824 0.72892 0.23333 0.0
H319 H 0.31664 0.70467 0.18603 0.0
H320 H 0.31674 0.70518 0.28242 0.0
H321 H 0.2429 0.73304 0.36822 0.0
H322 H 0.20572 0.69272 0.30014 0.0
H323 H 0.26889 0.69615 0.15492 0.0
C324 C 0.35192 0.7734 0.32946 0.0
C325 C 0.35566 0.78558 0.39816 0.0
C326 C 0.332 0.78348 0.43459 0.0
C327 C 0.30495 0.76891 0.40395 0.0
C328 C 0.30193 0.75669 0.33671 0.0
C329 C 0.32479 0.7588 0.29983 0.0
C330 C 0.31549 0.741 0.23245 0.0
C331 C 0.32665 0.75979 0.16548 0.0
C332 C 0.32482 0.71862 0.23371 0.0
C333 C 0.28369 0.72753 0.23877 0.0
C334 C 0.27636 0.73733 0.2986 0.0
C335 C 0.24832 0.72574 0.32029 0.0
C336 C 0.22736 0.70291 0.28142 0.0
C337 C 0.23456 0.69203 0.22165 0.0
C338 C 0.2629 0.70498 0.19878 0.0
H339 H 0.55836 0.23679 0.65951 0.0
H340 H 0.54284 0.2524 0.44095 0.0
H341 H 0.54354 0.29595 0.4804 0.0
H342 H 0.51801 0.26726 0.74954 0.0
H343 H 0.54369 0.28184 0.82065 0.0
H344 H 0.53664 0.2494 0.77752 0.0
H345 H 0.58989 0.27159 0.7487 0.0
H346 H 0.59712 0.30412 0.79084 0.0
H347 H 0.60762 0.3044 0.69939 0.0
H348 H 0.55444 0.34145 0.539 0.0
H349 H 0.57224 0.38435 0.61331 0.0
H350 H 0.5798 0.33881 0.79448 0.0
C351 C 0.55426 0.24887 0.62013 0.0
C352 C 0.55053 0.24116 0.54706 0.0
C353 C 0.54556 0.25777 0.49724 0.0
C354 C 0.5459 0.28253 0.5192 0.0
C355 C 0.55079 0.2901 0.59123 0.0
C356 C 0.55445 0.27352 0.64116 0.0
C357 C 0.56211 0.28763 0.71386 0.0
C358 C 0.53871 0.27051 0.76862 0.0
C359 C 0.59089 0.29221 0.73964 0.0
C360 C 0.56359 0.31543 0.69632 0.0
C361 C 0.55663 0.31628 0.6255 0.0
C362 C 0.55926 0.34078 0.59488 0.0
C363 C 0.56959 0.3651 0.63738 0.0
C364 C 0.5772 0.36478 0.70972 0.0
C365 C 0.57351 0.33942 0.73985 0.0
H366 H 0.18943 0.61817 0.86343 0.0
H367 H 0.13813 0.65837 0.85513 0.0
H368 H 0.12903 0.64632 0.7263 0.0
H369 H 0.22187 0.64067 0.69345 0.0
H370 H 0.22125 0.60792 0.67519 0.0
H371 H 0.2231 0.6195 0.76606 0.0
H372 H 0.17831 0.57185 0.79726 0.0
H373 H 0.17626 0.56013 0.70634 0.0
H374 H 0.14641 0.56042 0.74618 0.0
H375 H 0.12383 0.62734 0.59995 0.0
H376 H 0.12807 0.60895 0.48258 0.0
H377 H 0.18501 0.58393 0.57523 0.0
C378 C 0.17633 0.62459 0.83472 0.0
C379 C 0.16438 0.63914 0.86918 0.0
C380 C 0.14755 0.6473 0.82953 0.0
C381 C 0.14211 0.64035 0.75668 0.0
C382 C 0.15377 0.62538 0.72492 0.0
C383 C 0.17079 0.61792 0.76265 0.0
C384 C 0.18132 0.60244 0.71649 0.0
C385 C 0.21381 0.61862 0.71255 0.0
C386 C 0.16989 0.5719 0.74316 0.0
C387 C 0.16814 0.6029 0.64593 0.0
C388 C 0.15184 0.61568 0.65212 0.0
C389 C 0.13701 0.61788 0.59422 0.0
C390 C 0.13978 0.60767 0.5278 0.0
C391 C 0.15792 0.59633 0.51964 0.0
C392 C 0.17145 0.59303 0.57994 0.0
H393 H 0.59523 0.19679 0.89483 0.0
H394 H 0.51638 0.12549 0.82174 0.0
H395 H 0.49443 0.12363 0.93865 0.0
H396 H 0.59216 0.17072 0.06992 0.0
H397 H 0.60788 0.20511 0.11149 0.0
H398 H 0.61617 0.20197 0.02015 0.0
H399 H 0.60011 0.23743 0.98135 0.0
H400 H 0.59143 0.24039 0.07265 0.0
H401 H 0.56504 0.2302 0.00364 0.0
H402 H 0.48181 0.12872 0.06604 0.0
H403 H 0.48119 0.13738 0.19598 0.0
H404 H 0.56883 0.20439 0.18437 0.0
C405 C 0.57331 0.18088 0.90351 0.0
C406 C 0.55717 0.16186 0.84895 0.0
C407 C 0.52869 0.14104 0.86209 0.0
C408 C 0.51613 0.1397 0.92841 0.0
C409 C 0.53247 0.15925 0.9808 0.0
C410 C 0.56053 0.17927 0.9692 0.0
C411 C 0.57404 0.19675 0.03529 0.0
C412 C 0.59902 0.19342 0.06071 0.0
C413 C 0.58318 0.22805 0.02244 0.0
C414 C 0.54942 0.183 0.08649 0.0
C415 C 0.52545 0.16173 0.05404 0.0
C416 C 0.5004 0.14546 0.09193 0.0
C417 C 0.50016 0.15061 0.16545 0.0
C418 C 0.52494 0.17153 0.19982 0.0
C419 C 0.54956 0.18828 0.15931 0.0
H420 H 0.35665 0.49654 0.45867 0.0
H421 H 0.36573 0.57107 0.56629 0.0
H422 H 0.38234 0.59819 0.45332 0.0
H423 H 0.41968 0.53414 0.35342 0.0
H424 H 0.40501 0.51148 0.2765 0.0
H425 H 0.39249 0.49765 0.36474 0.0
H426 H 0.34119 0.48181 0.32546 0.0
H427 H 0.35357 0.49561 0.2371 0.0
H428 H 0.33332 0.50747 0.2873 0.0
H429 H 0.39807 0.6171 0.32818 0.0
H430 H 0.41279 0.62672 0.20162 0.0
H431 H 0.39666 0.54071 0.17912 0.0
C432 C 0.36188 0.51849 0.45829 0.0
C433 C 0.35969 0.53167 0.52103 0.0
C434 C 0.36724 0.56058 0.51876 0.0
C435 C 0.37662 0.57611 0.45485 0.0
C436 C 0.37869 0.56252 0.394 0.0
C437 C 0.37175 0.53442 0.39535 0.0
C438 C 0.37715 0.52518 0.32357 0.0
C439 C 0.39994 0.51662 0.32996 0.0
C440 C 0.34966 0.5011 0.29148 0.0
C441 C 0.38782 0.55235 0.28125 0.0
C442 C 0.38849 0.57361 0.32273 0.0
C443 C 0.39763 0.60059 0.29525 0.0
C444 C 0.40609 0.60589 0.22338 0.0
C445 C 0.40532 0.58432 0.17961 0.0
C446 C 0.39647 0.55736 0.2097 0.0
H447 H 0.85385 0.35783 0.80533 0.0
H448 H 0.78125 0.36162 0.88468 0.0
H449 H 0.77445 0.37687 0.76603 0.0
H450 H 0.88137 0.41942 0.70297 0.0
H451 H 0.89341 0.40688 0.62946 0.0
H452 H 0.89068 0.39242 0.7176 0.0
H453 H 0.85787 0.34176 0.66916 0.0
H454 H 0.86076 0.35603 0.58054 0.0
H455 H 0.82644 0.33424 0.62011 0.0
H456 H 0.77821 0.39642 0.64469 0.0
H457 H 0.7906 0.41636 0.52278 0.0
H458 H 0.86137 0.40136 0.52086 0.0
C459 C 0.83602 0.361 0.79687 0.0
C460 C 0.81792 0.35831 0.85387 0.0
C461 C 0.79529 0.36345 0.84156 0.0
C462 C 0.79123 0.37212 0.77439 0.0
C463 C 0.80998 0.37556 0.71993 0.0
C464 C 0.83178 0.36994 0.72991 0.0
C465 C 0.85001 0.37733 0.66342 0.0
C466 C 0.88068 0.40038 0.67935 0.0
C467 C 0.84868 0.35075 0.63142 0.0
C468 C 0.83536 0.38849 0.61544 0.0
C469 C 0.81224 0.3871 0.64914 0.0
C470 C 0.79602 0.39726 0.61722 0.0
C471 C 0.80335 0.40877 0.54838 0.0
C472 C 0.82661 0.40993 0.51225 0.0
C473 C 0.84296 0.3999 0.5465 0.0
H474 H 0.42867 0.77607 0.15349 0.0
H475 H 0.48425 0.86408 0.21189 0.0
H476 H 0.48262 0.87855 0.08797 0.0
H477 H 0.45726 0.78282 0.96654 0.0
H478 H 0.42269 0.7582 0.93211 0.0
H479 H 0.43201 0.75447 0.02239 0.0
H480 H 0.38809 0.75596 0.06913 0.0
H481 H 0.37895 0.76018 0.97934 0.0
H482 H 0.38388 0.78582 0.04684 0.0
H483 H 0.47019 0.88405 0.96247 0.0
H484 H 0.45037 0.87947 0.84051 0.0
H485 H 0.40254 0.78827 0.86489 0.0
C486 C 0.44121 0.7983 0.13978 0.0
C487 C 0.45651 0.81892 0.19244 0.0
C488 C 0.4724 0.84786 0.17247 0.0
C489 C 0.47161 0.85632 0.10217 0.0
C490 C 0.45521 0.83556 0.05237 0.0
C491 C 0.44074 0.80709 0.06982 0.0
C492 C 0.42325 0.78919 0.00748 0.0
C493 C 0.43447 0.77004 0.98054 0.0
C494 C 0.39168 0.77178 0.02691 0.0
C495 C 0.42886 0.81217 0.95377 0.0
C496 C 0.44776 0.83874 0.98018 0.0
C497 C 0.45563 0.86335 0.94089 0.0
C498 C 0.44418 0.86063 0.8723 0.0
C499 C 0.42484 0.83362 0.84487 0.0
C500 C 0.41709 0.80914 0.88579 0.0
H501 H 0.60835 0.45871 0.17387 0.0
H502 H 0.57783 0.36975 0.21428 0.0
H503 H 0.58653 0.3798 0.34403 0.0
H504 H 0.6657 0.48494 0.30007 0.0
H505 H 0.6623 0.51499 0.32504 0.0
H506 H 0.65209 0.50011 0.23679 0.0
H507 H 0.6022 0.4935 0.25623 0.0
H508 H 0.61221 0.5082 0.34473 0.0
H509 H 0.58161 0.4736 0.33242 0.0
H510 H 0.60038 0.4007 0.47111 0.0
H511 H 0.61853 0.43034 0.58027 0.0
H512 H 0.64149 0.50529 0.45281 0.0
C513 C 0.60415 0.44141 0.20964 0.0
C514 C 0.59332 0.41357 0.18359 0.0
C515 C 0.58652 0.39132 0.23298 0.0
C516 C 0.59141 0.39684 0.30674 0.0
C517 C 0.60297 0.42474 0.3304 0.0
C518 C 0.60925 0.44662 0.28303 0.0
C519 C 0.62215 0.47484 0.32114 0.0
C520 C 0.65235 0.4949 0.29416 0.0
C521 C 0.60341 0.48832 0.31315 0.0
C522 C 0.62225 0.46554 0.39742 0.0
C523 C 0.61097 0.43657 0.40217 0.0
C524 C 0.60919 0.42341 0.46776 0.0
C525 C 0.61943 0.44036 0.52964 0.0
C526 C 0.63137 0.47012 0.52547 0.0
C527 C 0.63255 0.48262 0.45823 0.0
H528 H 0.9336 0.48197 0.13048 0.0
H529 H 0.93783 0.4048 0.1346 0.0
H530 H 0.99017 0.43314 0.12832 0.0
H531 H 0.99387 0.52149 0.00762 0.0
H532 H 0.00545 0.55459 0.05333 0.0
H533 H 0.96847 0.52807 0.05197 0.0
H534 H 0.96727 0.52878 0.19049 0.0
H535 H 0.00419 0.5552 0.19232 0.0
H536 H 0.99176 0.52248 0.24081 0.0
H537 H 0.04161 0.4699 0.13239 0.0
H538 H 0.08895 0.51262 0.14381 0.0
H539 H 0.05119 0.56594 0.1348 0.0
C540 C 0.94567 0.47117 0.12923 0.0
C541 C 0.93209 0.4414 0.13326 0.0
C542 C 0.94817 0.42768 0.13139 0.0
C543 C 0.97776 0.44357 0.12778 0.0
C544 C 0.99066 0.47303 0.12507 0.0
C545 C 0.97513 0.4867 0.12506 0.0
C546 C 0.99412 0.51857 0.12461 0.0
C547 C 0.99024 0.53143 0.05525 0.0
C548 C 0.98903 0.53204 0.19102 0.0
C549 C 0.02281 0.52077 0.12701 0.0
C550 C 0.02033 0.49424 0.12651 0.0
C551 C 0.04383 0.49076 0.1319 0.0
C552 C 0.07052 0.51502 0.13855 0.0
C553 C 0.07337 0.54225 0.13999 0.0
C554 C 0.04935 0.54523 0.13314 0.0
H555 H 0.54917 0.06941 0.51417 0.0
H556 H 0.47425 0.06391 0.41871 0.0
H557 H 0.45348 0.01205 0.405 0.0
H558 H 0.55164 0.01526 0.41039 0.0
H559 H 0.5623 0.00164 0.48471 0.0
H560 H 0.5719 0.03842 0.48273 0.0
H561 H 0.54818 0.03292 0.60618 0.0
H562 H 0.53866 0.99619 0.60873 0.0
H563 H 0.51177 0.00585 0.61834 0.0
H564 H 0.4406 0.96095 0.40472 0.0
H565 H 0.43554 0.91357 0.42229 0.0
H566 H 0.51774 0.95221 0.5241 0.0
C567 C 0.52826 0.05721 0.49105 0.0
C568 C 0.51308 0.07043 0.4681 0.0
C569 C 0.48612 0.05401 0.43652 0.0
C570 C 0.47421 0.02464 0.42863 0.0
C571 C 0.48956 0.01217 0.45294 0.0
C572 C 0.51592 0.02789 0.48394 0.0
C573 C 0.52746 0.00922 0.50876 0.0
C574 C 0.55495 0.01658 0.46926 0.0
C575 C 0.53176 0.01116 0.59034 0.0
C576 C 0.50349 0.98047 0.48672 0.0
C577 C 0.48192 0.98267 0.45414 0.0
C578 C 0.45735 0.95896 0.42996 0.0
C579 C 0.45466 0.93227 0.43998 0.0
C580 C 0.47634 0.92967 0.47405 0.0
C581 C 0.50107 0.95395 0.49743 0.0
H582 H 0.48028 0.5494 0.82598 0.0
H583 H 0.40557 0.46614 0.81261 0.0
H584 H 0.43583 0.44428 0.80913 0.0
H585 H 0.52539 0.5357 0.71122 0.0
H586 H 0.55658 0.55629 0.76473 0.0
H587 H 0.52911 0.56536 0.76243 0.0
H588 H 0.52521 0.56158 0.90057 0.0
H589 H 0.5527 0.55257 0.90332 0.0
H590 H 0.51889 0.52936 0.94379 0.0
H591 H 0.4739 0.43163 0.81116 0.0
H592 H 0.51752 0.42871 0.82002 0.0
H593 H 0.56761 0.52017 0.835 0.0
C594 C 0.47039 0.52656 0.82253 0.0
C595 C 0.44072 0.50929 0.81987 0.0
C596 C 0.42834 0.47957 0.8145 0.0
C597 C 0.44532 0.46705 0.81255 0.0
C598 C 0.47456 0.48465 0.8161 0.0
C599 C 0.48702 0.51375 0.82106 0.0
C600 C 0.51889 0.52777 0.82656 0.0
C601 C 0.53333 0.54744 0.76239 0.0
C602 C 0.52954 0.54376 0.8978 0.0
C603 C 0.52241 0.50198 0.82425 0.0
C604 C 0.49656 0.47734 0.81792 0.0
C605 C 0.49425 0.45075 0.81604 0.0
C606 C 0.51902 0.44928 0.82132 0.0
C607 C 0.54561 0.47421 0.8286 0.0
C608 C 0.5474 0.50088 0.82941 0.0
loop_
_geom_bond_atom_site_label_1
_geom_bond_atom_site_label_2
_geom_bond_distance
_geom_bond_site_symmetry_2
_ccdc_geom_bond_type
Co0 O3 1.970 . S
Co0 N17 1.989 . S
Co0 O25 1.967 . S
Co0 O32 1.920 1_554 S
Co1 O4 1.966 . S
Co1 N10 2.022 . S
Co1 N18 1.993 . S
Co1 O26 1.941 . S
C2 O3 1.258 . S
C2 O4 1.263 . S
O3 Co0 1.970 . S
O3 C2 1.258 . S
O4 Co1 1.966 . S
O4 C2 1.263 . S
C5 O6 1.235 . S
C5 O32 1.289 . S
O6 C5 1.235 . S
C7 C9 1.400 . S
C7 N10 1.351 . S
C7 C12 1.501 . S
C8 C9 1.387 . S
C8 N11 1.341 . S
C9 C7 1.400 . S
C9 C8 1.387 . S
N10 Co1 2.022 . S
N10 C7 1.351 . S
N10 N11 1.365 . S
N11 C8 1.341 . S
N11 N10 1.365 . S
N11 H31 0.862 . S
C12 C7 1.501 . S
C12 H13 0.961 . S
C12 H14 0.961 . S
C12 H15 0.960 . S
H13 C12 0.961 . S
H14 C12 0.961 . S
H15 C12 0.960 . S
C16 N17 1.342 . S
C16 C20 1.401 . S
C16 C21 1.499 . S
N17 Co0 1.989 . S
N17 C16 1.342 . S
N17 N18 1.388 . S
N18 Co1 1.993 . S
N18 N17 1.388 . S
N18 C19 1.346 . S
C19 N18 1.346 . S
C19 C20 1.396 . S
C19 C29 1.510 . S
C20 C16 1.401 . S
C20 C19 1.396 . S
C21 C16 1.499 . S
C21 H22 0.959 1_554 S
C21 H23 0.960 . S
C21 H24 0.961 1_554 S
H22 C21 0.959 1_556 S
H23 C21 0.960 . S
H24 C21 0.961 1_556 S
O25 Co0 1.967 . S
O25 C33 1.258 . S
O26 Co1 1.941 . S
O26 C33 1.266 . S
H27 C29 0.959 . S
H28 C29 0.961 . S
C29 C19 1.510 . S
C29 H27 0.959 . S
C29 H28 0.961 . S
C29 H30 0.960 . S
H30 C29 0.960 . S
H31 N11 0.862 . S
O32 Co0 1.920 1_556 S
O32 C5 1.289 . S
C33 O25 1.258 . S
C33 O26 1.266 . S
Co34 O37 1.970 . S
Co34 N51 1.989 . S
Co34 O59 1.967 . S
Co34 O66 1.920 . S
Co35 O38 1.966 . S
Co35 N44 2.022 . S
Co35 N52 1.993 . S
Co35 O60 1.941 . S
C36 O37 1.258 . S
C36 O38 1.263 . S
O37 Co34 1.970 . S
O37 C36 1.258 . S
O38 Co35 1.966 . S
O38 C36 1.263 . S
C39 O40 1.235 . S
C39 O66 1.289 . S
O40 C39 1.235 . S
C41 C43 1.400 . S
C41 N44 1.351 . S
C41 C46 1.501 . S
C42 C43 1.387 . S
C42 N45 1.341 . S
C43 C41 1.400 . S
C43 C42 1.387 . S
N44 Co35 2.022 . S
N44 C41 1.351 . S
N44 N45 1.365 . S
N45 C42 1.341 . S
N45 N44 1.365 . S
N45 H65 0.862 . S
C46 C41 1.501 . S
C46 H47 0.961 . S
C46 H48 0.961 . S
C46 H49 0.960 . S
H47 C46 0.961 . S
H48 C46 0.961 . S
H49 C46 0.960 . S
C50 N51 1.342 . S
C50 C54 1.401 . S
C50 C55 1.499 . S
N51 Co34 1.989 . S
N51 C50 1.342 . S
N51 N52 1.388 . S
N52 Co35 1.993 . S
N52 N51 1.388 . S
N52 C53 1.346 . S
C53 N52 1.346 . S
C53 C54 1.396 . S
C53 C63 1.510 . S
C54 C50 1.401 . S
C54 C53 1.396 . S
C55 C50 1.499 . S
C55 H56 0.959 . S
C55 H57 0.960 . S
C55 H58 0.961 . S
H56 C55 0.959 . S
H57 C55 0.960 . S
H58 C55 0.961 . S
O59 Co34 1.967 . S
O59 C67 1.258 . S
O60 Co35 1.941 . S
O60 C67 1.266 . S
H61 C63 0.959 . S
H62 C63 0.961 . S
C63 C53 1.510 . S
C63 H61 0.959 . S
C63 H62 0.961 . S
C63 H64 0.960 . S
H64 C63 0.960 . S
H65 N45 0.862 . S
O66 Co34 1.920 . S
O66 C39 1.289 . S
C67 O59 1.258 . S
C67 O60 1.266 . S
Co68 O71 1.970 . S
Co68 N85 1.989 . S
Co68 O93 1.967 . S
Co68 O100 1.920 . S
Co69 O72 1.966 . S
Co69 N78 2.022 1_556 S
Co69 N86 1.993 . S
Co69 O94 1.941 . S
C70 O71 1.258 . S
C70 O72 1.263 . S
O71 Co68 1.970 . S
O71 C70 1.258 . S
O72 Co69 1.966 . S
O72 C70 1.263 . S
C73 O74 1.235 . S
C73 O100 1.289 . S
O74 C73 1.235 . S
C75 C77 1.400 . S
C75 N78 1.351 . S
C75 C80 1.501 . S
C76 C77 1.387 . S
C76 N79 1.341 . S
C77 C75 1.400 . S
C77 C76 1.387 . S
N78 Co69 2.022 1_554 S
N78 C75 1.351 . S
N78 N79 1.365 . S
N79 C76 1.341 . S
N79 N78 1.365 . S
N79 H99 0.862 . S
C80 C75 1.501 . S
C80 H81 0.961 . S
C80 H82 0.961 . S
C80 H83 0.960 . S
H81 C80 0.961 . S
H82 C80 0.961 . S
H83 C80 0.960 . S
C84 N85 1.342 . S
C84 C88 1.401 . S
C84 C89 1.499 . S
N85 Co68 1.989 . S
N85 C84 1.342 . S
N85 N86 1.388 . S
N86 Co69 1.993 . S
N86 N85 1.388 . S
N86 C87 1.346 . S
C87 N86 1.346 . S
C87 C88 1.396 . S
C87 C97 1.510 . S
C88 C84 1.401 . S
C88 C87 1.396 . S
C89 C84 1.499 . S
C89 H90 0.959 . S
C89 H91 0.960 . S
C89 H92 0.961 . S
H90 C89 0.959 . S
H91 C89 0.960 . S
H92 C89 0.961 . S
O93 Co68 1.967 . S
O93 C101 1.258 . S
O94 Co69 1.941 . S
O94 C101 1.266 . S
H95 C97 0.959 . S
H96 C97 0.961 . S
C97 C87 1.510 . S
C97 H95 0.959 . S
C97 H96 0.961 . S
C97 H98 0.960 . S
H98 C97 0.960 . S
H99 N79 0.862 . S
O100 Co68 1.920 . S
O100 C73 1.289 . S
C101 O93 1.258 . S
C101 O94 1.266 . S
Co102 O105 1.970 . S
Co102 N119 1.989 . S
Co102 O127 1.967 . S
Co102 O134 1.920 1_554 S
Co103 O106 1.966 . S
Co103 N112 2.022 . S
Co103 N120 1.993 . S
Co103 O128 1.941 . S
C104 O105 1.258 . S
C104 O106 1.263 . S
O105 Co102 1.970 . S
O105 C104 1.258 . S
O106 Co103 1.966 . S
O106 C104 1.263 . S
C107 O108 1.235 . S
C107 O134 1.289 . S
O108 C107 1.235 . S
C109 C111 1.400 . S
C109 N112 1.351 . S
C109 C114 1.501 . S
C110 C111 1.387 . S
C110 N113 1.341 . S
C111 C109 1.400 . S
C111 C110 1.387 . S
N112 Co103 2.022 . S
N112 C109 1.351 . S
N112 N113 1.365 . S
N113 C110 1.341 . S
N113 N112 1.365 . S
N113 H133 0.862 . S
C114 C109 1.501 . S
C114 H115 0.961 . S
C114 H116 0.961 . S
C114 H117 0.960 . S
H115 C114 0.961 . S
H116 C114 0.961 . S
H117 C114 0.960 . S
C118 N119 1.342 . S
C118 C122 1.401 . S
C118 C123 1.499 . S
N119 Co102 1.989 . S
N119 C118 1.342 . S
N119 N120 1.388 . S
N120 Co103 1.993 . S
N120 N119 1.388 . S
N120 C121 1.346 . S
C121 N120 1.346 . S
C121 C122 1.396 . S
C121 C131 1.510 . S
C122 C118 1.401 . S
C122 C121 1.396 . S
C123 C118 1.499 . S
C123 H124 0.959 1_554 S
C123 H125 0.960 . S
C123 H126 0.961 1_554 S
H124 C123 0.959 1_556 S
H125 C123 0.960 . S
H126 C123 0.961 1_556 S
O127 Co102 1.967 . S
O127 C135 1.258 . S
O128 Co103 1.941 . S
O128 C135 1.266 . S
H129 C131 0.959 . S
H130 C131 0.961 . S
C131 C121 1.510 . S
C131 H129 0.959 . S
C131 H130 0.961 . S
C131 H132 0.960 . S
H132 C131 0.960 . S
H133 N113 0.862 . S
O134 Co102 1.920 1_556 S
O134 C107 1.289 . S
C135 O127 1.258 . S
C135 O128 1.266 . S
Co136 O139 1.970 . S
Co136 N153 1.989 . S
Co136 O161 1.967 . S
Co136 O168 1.920 . S
Co137 O140 1.966 . S
Co137 N146 2.022 . S
Co137 N154 1.993 . S
Co137 O162 1.941 . S
C138 O139 1.258 . S
C138 O140 1.263 . S
O139 Co136 1.970 . S
O139 C138 1.258 . S
O140 Co137 1.966 . S
O140 C138 1.263 . S
C141 O142 1.235 . S
C141 O168 1.289 . S
O142 C141 1.235 . S
C143 C145 1.400 . S
C143 N146 1.351 . S
C143 C148 1.501 . S
C144 C145 1.387 . S
C144 N147 1.341 . S
C145 C143 1.400 . S
C145 C144 1.387 . S
N146 Co137 2.022 . S
N146 C143 1.351 . S
N146 N147 1.365 . S
N147 C144 1.341 . S
N147 N146 1.365 . S
N147 H167 0.862 . S
C148 C143 1.501 . S
C148 H149 0.961 . S
C148 H150 0.961 . S
C148 H151 0.960 . S
H149 C148 0.961 . S
H150 C148 0.961 . S
H151 C148 0.960 . S
C152 N153 1.342 . S
C152 C156 1.401 . S
C152 C157 1.499 . S
N153 Co136 1.989 . S
N153 C152 1.342 . S
N153 N154 1.388 . S
N154 Co137 1.993 . S
N154 N153 1.388 . S
N154 C155 1.346 . S
C155 N154 1.346 . S
C155 C156 1.396 . S
C155 C165 1.510 . S
C156 C152 1.401 . S
C156 C155 1.396 . S
C157 C152 1.499 . S
C157 H158 0.959 . S
C157 H159 0.960 . S
C157 H160 0.961 . S
H158 C157 0.959 . S
H159 C157 0.960 . S
H160 C157 0.961 . S
O161 Co136 1.967 . S
O161 C169 1.258 . S
O162 Co137 1.941 . S
O162 C169 1.266 . S
H163 C165 0.959 . S
H164 C165 0.961 . S
C165 C155 1.510 . S
C165 H163 0.959 . S
C165 H164 0.961 . S
C165 H166 0.960 . S
H166 C165 0.960 . S
H167 N147 0.862 . S
O168 Co136 1.920 . S
O168 C141 1.289 . S
C169 O161 1.258 . S
C169 O162 1.266 . S
Co170 O173 1.970 . S
Co170 N187 1.989 . S
Co170 O195 1.967 . S
Co170 O202 1.920 . S
Co171 O174 1.966 . S
Co171 N180 2.022 1_556 S
Co171 N188 1.993 . S
Co171 O196 1.941 . S
C172 O173 1.258 . S
C172 O174 1.263 . S
O173 Co170 1.970 . S
O173 C172 1.258 . S
O174 Co171 1.966 . S
O174 C172 1.263 . S
C175 O176 1.235 . S
C175 O202 1.289 . S
O176 C175 1.235 . S
C177 C179 1.400 . S
C177 N180 1.351 . S
C177 C182 1.501 . S
C178 C179 1.387 . S
C178 N181 1.341 . S
C179 C177 1.400 . S
C179 C178 1.387 . S
N180 Co171 2.022 1_554 S
N180 C177 1.351 . S
N180 N181 1.365 . S
N181 C178 1.341 . S
N181 N180 1.365 . S
N181 H201 0.862 . S
C182 C177 1.501 . S
C182 H183 0.961 . S
C182 H184 0.961 . S
C182 H185 0.960 . S
H183 C182 0.961 . S
H184 C182 0.961 . S
H185 C182 0.960 . S
C186 N187 1.342 . S
C186 C190 1.401 . S
C186 C191 1.499 . S
N187 Co170 1.989 . S
N187 C186 1.342 . S
N187 N188 1.388 . S
N188 Co171 1.993 . S
N188 N187 1.388 . S
N188 C189 1.346 . S
C189 N188 1.346 . S
C189 C190 1.396 . S
C189 C199 1.510 . S
C190 C186 1.401 . S
C190 C189 1.396 . S
C191 C186 1.499 . S
C191 H192 0.959 . S
C191 H193 0.960 . S
C191 H194 0.961 . S
H192 C191 0.959 . S
H193 C191 0.960 . S
H194 C191 0.961 . S
O195 Co170 1.967 . S
O195 C203 1.258 . S
O196 Co171 1.941 . S
O196 C203 1.266 . S
H197 C199 0.959 . S
H198 C199 0.961 . S
C199 C189 1.510 . S
C199 H197 0.959 . S
C199 H198 0.961 . S
C199 H200 0.960 . S
H200 C199 0.960 . S
H201 N181 0.862 . S
O202 Co170 1.920 . S
O202 C175 1.289 . S
C203 O195 1.258 . S
C203 O196 1.266 . S
H204 C216 0.930 . S
H205 C218 0.930 . S
H206 C219 0.930 . S
H207 C223 0.959 . S
H208 C223 0.959 . S
H209 C223 0.961 . S
H210 C224 0.960 . S
H211 C224 0.961 . S
H212 C224 0.959 . S
H213 C227 0.929 1_554 S
H214 C228 0.931 . S
H215 C230 0.930 . S
C216 H204 0.930 . S
C216 C217 1.399 . S
C216 C221 1.399 1_554 S
C217 C216 1.399 . S
C217 C218 1.376 . S
C218 H205 0.930 . S
C218 C217 1.376 . S
C218 C219 1.388 . S
C219 H206 0.930 . S
C219 C218 1.388 . S
C219 C220 1.390 . S
C220 C219 1.390 . S
C220 C221 1.394 1_554 S
C220 C226 1.465 1_554 S
C221 C216 1.399 1_556 S
C221 C220 1.394 1_556 S
C221 C222 1.516 . S
C222 C221 1.516 . S
C222 C223 1.502 . S
C222 C224 1.561 . S
C222 C225 1.526 . S
C223 H207 0.959 . S
C223 H208 0.959 . S
C223 H209 0.961 . S
C223 C222 1.502 . S
C224 H210 0.960 . S
C224 H211 0.961 . S
C224 H212 0.959 . S
C224 C222 1.561 . S
C225 C222 1.526 . S
C225 C226 1.396 . S
C225 C230 1.390 . S
C226 C220 1.465 1_556 S
C226 C225 1.396 . S
C226 C227 1.399 . S
C227 H213 0.929 1_556 S
C227 C226 1.399 . S
C227 C228 1.385 . S
C228 H214 0.931 . S
C228 C227 1.385 . S
C228 C229 1.389 . S
C229 C228 1.389 . S
C229 C230 1.387 . S
C230 H215 0.930 . S
C230 C225 1.390 . S
C230 C229 1.387 . S
H231 C243 0.930 . S
H232 C245 0.930 . S
H233 C246 0.930 . S
H234 C250 0.959 . S
H235 C250 0.959 . S
H236 C250 0.961 . S
H237 C251 0.960 . S
H238 C251 0.961 . S
H239 C251 0.959 . S
H240 C254 0.929 . S
H241 C255 0.931 . S
H242 C257 0.930 . S
C243 H231 0.930 . S
C243 C244 1.399 . S
C243 C248 1.399 . S
C244 C243 1.399 . S
C244 C245 1.376 . S
C245 H232 0.930 . S
C245 C244 1.376 . S
C245 C246 1.388 . S
C246 H233 0.930 . S
C246 C245 1.388 . S
C246 C247 1.390 . S
C247 C246 1.390 . S
C247 C248 1.394 . S
C247 C253 1.465 . S
C248 C243 1.399 . S
C248 C247 1.394 . S
C248 C249 1.516 . S
C249 C248 1.516 . S
C249 C250 1.502 . S
C249 C251 1.561 . S
C249 C252 1.526 . S
C250 H234 0.959 . S
C250 H235 0.959 . S
C250 H236 0.961 . S
C250 C249 1.502 . S
C251 H237 0.960 . S
C251 H238 0.961 . S
C251 H239 0.959 . S
C251 C249 1.561 . S
C252 C249 1.526 . S
C252 C253 1.396 . S
C252 C257 1.390 . S
C253 C247 1.465 . S
C253 C252 1.396 . S
C253 C254 1.399 . S
C254 H240 0.929 . S
C254 C253 1.399 . S
C254 C255 1.385 . S
C255 H241 0.931 . S
C255 C254 1.385 . S
C255 C256 1.389 . S
C256 C255 1.389 . S
C256 C257 1.387 . S
C257 H242 0.930 . S
C257 C252 1.390 . S
C257 C256 1.387 . S
H258 C270 0.930 . S
H259 C272 0.930 . S
H260 C273 0.930 . S
H261 C277 0.959 . S
H262 C277 0.959 . S
H263 C277 0.961 . S
H264 C278 0.960 . S
H265 C278 0.961 . S
H266 C278 0.959 . S
H267 C281 0.929 . S
H268 C282 0.931 . S
H269 C284 0.930 . S
C270 H258 0.930 . S
C270 C271 1.399 . S
C270 C275 1.399 . S
C271 C270 1.399 . S
C271 C272 1.376 . S
C272 H259 0.930 . S
C272 C271 1.376 . S
C272 C273 1.388 . S
C273 H260 0.930 . S
C273 C272 1.388 . S
C273 C274 1.390 . S
C274 C273 1.390 . S
C274 C275 1.394 . S
C274 C280 1.465 . S
C275 C270 1.399 . S
C275 C274 1.394 . S
C275 C276 1.516 . S
C276 C275 1.516 . S
C276 C277 1.502 . S
C276 C278 1.561 . S
C276 C279 1.526 . S
C277 H261 0.959 . S
C277 H262 0.959 . S
C277 H263 0.961 . S
C277 C276 1.502 . S
C278 H264 0.960 . S
C278 H265 0.961 . S
C278 H266 0.959 . S
C278 C276 1.561 . S
C279 C276 1.526 . S
C279 C280 1.396 . S
C279 C284 1.390 . S
C280 C274 1.465 . S
C280 C279 1.396 . S
C280 C281 1.399 . S
C281 H267 0.929 . S
C281 C280 1.399 . S
C281 C282 1.385 . S
C282 H268 0.931 . S
C282 C281 1.385 . S
C282 C283 1.389 . S
C283 C282 1.389 . S
C283 C284 1.387 . S
C284 H269 0.930 . S
C284 C279 1.390 . S
C284 C283 1.387 . S
H285 C297 0.930 . S
H286 C299 0.930 . S
H287 C300 0.930 . S
H288 C304 0.959 1_554 S
H289 C304 0.959 . S
H290 C304 0.961 . S
H291 C305 0.960 . S
H292 C305 0.961 . S
H293 C305 0.959 . S
H294 C308 0.929 . S
H295 C309 0.931 . S
H296 C311 0.930 . S
C297 H285 0.930 . S
C297 C298 1.399 . S
C297 C302 1.399 . S
C298 C297 1.399 . S
C298 C299 1.376 . S
C299 H286 0.930 . S
C299 C298 1.376 . S
C299 C300 1.388 . S
C300 H287 0.930 . S
C300 C299 1.388 . S
C300 C301 1.390 . S
C301 C300 1.390 . S
C301 C302 1.394 . S
C301 C307 1.465 1_556 S
C302 C297 1.399 . S
C302 C301 1.394 . S
C302 C303 1.516 . S
C303 C302 1.516 . S
C303 C304 1.502 . S
C303 C305 1.561 . S
C303 C306 1.532 . S
C304 H288 0.959 1_556 S
C304 H289 0.959 . S
C304 H290 0.961 . S
C304 C303 1.502 . S
C305 H291 0.960 . S
C305 H292 0.961 . S
C305 H293 0.959 . S
C305 C303 1.561 . S
C306 C303 1.532 . S
C306 C307 1.394 1_556 S
C306 C311 1.385 1_556 S
C307 C301 1.465 1_554 S
C307 C306 1.394 1_554 S
C307 C308 1.399 . S
C308 H294 0.929 . S
C308 C307 1.399 . S
C308 C309 1.385 . S
C309 H295 0.931 . S
C309 C308 1.385 . S
C309 C310 1.389 . S
C310 C309 1.389 . S
C310 C311 1.387 . S
C311 H296 0.930 . S
C311 C306 1.385 1_554 S
C311 C310 1.387 . S
H312 C324 0.930 . S
H313 C326 0.930 . S
H314 C327 0.930 . S
H315 C331 0.959 . S
H316 C331 0.959 . S
H317 C331 0.961 . S
H318 C332 0.960 . S
H319 C332 0.961 . S
H320 C332 0.959 . S
H321 C335 0.929 . S
H322 C336 0.931 . S
H323 C338 0.930 . S
C324 H312 0.930 . S
C324 C325 1.399 . S
C324 C329 1.399 . S
C325 C324 1.399 . S
C325 C326 1.376 . S
C326 H313 0.930 . S
C326 C325 1.376 . S
C326 C327 1.388 . S
C327 H314 0.930 . S
C327 C326 1.388 . S
C327 C328 1.390 . S
C328 C327 1.390 . S
C328 C329 1.394 . S
C328 C334 1.465 . S
C329 C324 1.399 . S
C329 C328 1.394 . S
C329 C330 1.516 . S
C330 C329 1.516 . S
C330 C331 1.502 . S
C330 C332 1.561 . S
C330 C333 1.526 . S
C331 H315 0.959 . S
C331 H316 0.959 . S
C331 H317 0.961 . S
C331 C330 1.502 . S
C332 H318 0.960 . S
C332 H319 0.961 . S
C332 H320 0.959 . S
C332 C330 1.561 . S
C333 C330 1.526 . S
C333 C334 1.396 . S
C333 C338 1.390 . S
C334 C328 1.465 . S
C334 C333 1.396 . S
C334 C335 1.399 . S
C335 H321 0.929 . S
C335 C334 1.399 . S
C335 C336 1.385 . S
C336 H322 0.931 . S
C336 C335 1.385 . S
C336 C337 1.389 . S
C337 C336 1.389 . S
C337 C338 1.387 . S
C338 H323 0.930 . S
C338 C333 1.390 . S
C338 C337 1.387 . S
H339 C351 0.930 . S
H340 C353 0.930 . S
H341 C354 0.930 . S
H342 C358 0.959 . S
H343 C358 0.959 . S
H344 C358 0.961 . S
H345 C359 0.960 . S
H346 C359 0.961 . S
H347 C359 0.959 . S
H348 C362 0.929 . S
H349 C363 0.931 . S
H350 C365 0.930 . S
C351 H339 0.930 . S
C351 C352 1.399 . S
C351 C356 1.399 . S
C352 C351 1.399 . S
C352 C353 1.376 . S
C353 H340 0.930 . S
C353 C352 1.376 . S
C353 C354 1.388 . S
C354 H341 0.930 . S
C354 C353 1.388 . S
C354 C355 1.390 . S
C355 C354 1.390 . S
C355 C356 1.394 . S
C355 C361 1.465 . S
C356 C351 1.399 . S
C356 C355 1.394 . S
C356 C357 1.516 . S
C357 C356 1.516 . S
C357 C358 1.502 . S
C357 C359 1.561 . S
C357 C360 1.526 . S
C358 H342 0.959 . S
C358 H343 0.959 . S
C358 H344 0.961 . S
C358 C357 1.502 . S
C359 H345 0.960 . S
C359 H346 0.961 . S
C359 H347 0.959 . S
C359 C357 1.561 . S
C360 C357 1.526 . S
C360 C361 1.396 . S
C360 C365 1.390 . S
C361 C355 1.465 . S
C361 C360 1.396 . S
C361 C362 1.399 . S
C362 H348 0.929 . S
C362 C361 1.399 . S
C362 C363 1.385 . S
C363 H349 0.931 . S
C363 C362 1.385 . S
C363 C364 1.389 . S
C364 C363 1.389 . S
C364 C365 1.387 . S
C365 H350 0.930 . S
C365 C360 1.390 . S
C365 C364 1.387 . S
H366 C378 0.930 . S
H367 C380 0.930 . S
H368 C381 0.930 . S
H369 C385 0.959 . S
H370 C385 0.959 . S
H371 C385 0.961 . S
H372 C386 0.960 . S
H373 C386 0.961 . S
H374 C386 0.959 . S
H375 C389 0.929 . S
H376 C390 0.931 . S
H377 C392 0.930 . S
C378 H366 0.930 . S
C378 C379 1.399 . S
C378 C383 1.399 . S
C379 C378 1.399 . S
C379 C380 1.376 . S
C380 H367 0.930 . S
C380 C379 1.376 . S
C380 C381 1.388 . S
C381 H368 0.930 . S
C381 C380 1.388 . S
C381 C382 1.390 . S
C382 C381 1.390 . S
C382 C383 1.394 . S
C382 C388 1.465 . S
C383 C378 1.399 . S
C383 C382 1.394 . S
C383 C384 1.516 . S
C384 C383 1.516 . S
C384 C385 1.502 . S
C384 C386 1.561 . S
C384 C387 1.526 . S
C385 H369 0.959 . S
C385 H370 0.959 . S
C385 H371 0.961 . S
C385 C384 1.502 . S
C386 H372 0.960 . S
C386 H373 0.961 . S
C386 H374 0.959 . S
C386 C384 1.561 . S
C387 C384 1.526 . S
C387 C388 1.396 . S
C387 C392 1.390 . S
C388 C382 1.465 . S
C388 C387 1.396 . S
C388 C389 1.399 . S
C389 H375 0.929 . S
C389 C388 1.399 . S
C389 C390 1.385 . S
C390 H376 0.931 . S
C390 C389 1.385 . S
C390 C391 1.389 . S
C391 C390 1.389 . S
C391 C392 1.387 . S
C392 H377 0.930 . S
C392 C387 1.390 . S
C392 C391 1.387 . S
H393 C405 0.930 . S
H394 C407 0.930 . S
H395 C408 0.930 . S
H396 C412 0.959 . S
H397 C412 0.959 . S
H398 C412 0.961 . S
H399 C413 0.960 1_556 S
H400 C413 0.961 . S
H401 C413 0.958 1_556 S
H402 C416 0.929 . S
H403 C417 0.931 . S
H404 C419 0.930 . S
C405 H393 0.930 . S
C405 C406 1.399 . S
C405 C410 1.399 . S
C406 C405 1.399 . S
C406 C407 1.376 . S
C407 H394 0.930 . S
C407 C406 1.376 . S
C407 C408 1.388 . S
C408 H395 0.930 . S
C408 C407 1.388 . S
C408 C409 1.390 . S
C409 C408 1.390 . S
C409 C410 1.394 . S
C409 C415 1.465 1_556 S
C410 C405 1.399 . S
C410 C409 1.394 . S
C410 C411 1.516 1_556 S
C411 C410 1.516 1_554 S
C411 C412 1.502 . S
C411 C413 1.561 . S
C411 C414 1.526 . S
C412 H396 0.959 . S
C412 H397 0.959 . S
C412 H398 0.961 . S
C412 C411 1.502 . S
C413 H399 0.960 1_554 S
C413 H400 0.961 . S
C413 H401 0.958 1_554 S
C413 C411 1.561 . S
C414 C411 1.526 . S
C414 C415 1.396 . S
C414 C419 1.390 . S
C415 C409 1.465 1_554 S
C415 C414 1.396 . S
C415 C416 1.399 . S
C416 H402 0.929 . S
C416 C415 1.399 . S
C416 C417 1.385 . S
C417 H403 0.931 . S
C417 C416 1.385 . S
C417 C418 1.389 . S
C418 C417 1.389 . S
C418 C419 1.387 . S
C419 H404 0.930 . S
C419 C414 1.390 . S
C419 C418 1.387 . S
H420 C432 0.930 . S
H421 C434 0.930 . S
H422 C435 0.930 . S
H423 C439 0.959 . S
H424 C439 0.959 . S
H425 C439 0.961 . S
H426 C440 0.960 . S
H427 C440 0.961 . S
H428 C440 0.959 . S
H429 C443 0.929 . S
H430 C444 0.931 . S
H431 C446 0.930 . S
C432 H420 0.930 . S
C432 C433 1.399 . S
C432 C437 1.399 . S
C433 C432 1.399 . S
C433 C434 1.376 . S
C434 H421 0.930 . S
C434 C433 1.376 . S
C434 C435 1.388 . S
C435 H422 0.930 . S
C435 C434 1.388 . S
C435 C436 1.390 . S
C436 C435 1.390 . S
C436 C437 1.394 . S
C436 C442 1.465 . S
C437 C432 1.399 . S
C437 C436 1.394 . S
C437 C438 1.516 . S
C438 C437 1.516 . S
C438 C439 1.502 . S
C438 C440 1.561 . S
C438 C441 1.526 . S
C439 H423 0.959 . S
C439 H424 0.959 . S
C439 H425 0.961 . S
C439 C438 1.502 . S
C440 H426 0.960 . S
C440 H427 0.961 . S
C440 H428 0.959 . S
C440 C438 1.561 . S
C441 C438 1.526 . S
C441 C442 1.396 . S
C441 C446 1.390 . S
C442 C436 1.465 . S
C442 C441 1.396 . S
C442 C443 1.399 . S
C443 H429 0.929 . S
C443 C442 1.399 . S
C443 C444 1.385 . S
C444 H430 0.931 . S
C444 C443 1.385 . S
C444 C445 1.389 . S
C445 C444 1.389 . S
C445 C446 1.387 . S
C446 H431 0.930 . S
C446 C441 1.390 . S
C446 C445 1.387 . S
H447 C459 0.930 . S
H448 C461 0.930 . S
H449 C462 0.930 . S
H450 C466 0.959 . S
H451 C466 0.959 . S
H452 C466 0.961 . S
H453 C467 0.960 . S
H454 C467 0.961 . S
H455 C467 0.959 . S
H456 C470 0.929 . S
H457 C471 0.931 . S
H458 C473 0.930 . S
C459 H447 0.930 . S
C459 C460 1.399 . S
C459 C464 1.399 . S
C460 C459 1.399 . S
C460 C461 1.376 . S
C461 H448 0.930 . S
C461 C460 1.376 . S
C461 C462 1.388 . S
C462 H449 0.930 . S
C462 C461 1.388 . S
C462 C463 1.390 . S
C463 C462 1.390 . S
C463 C464 1.394 . S
C463 C469 1.465 . S
C464 C459 1.399 . S
C464 C463 1.394 . S
C464 C465 1.516 . S
C465 C464 1.516 . S
C465 C466 1.502 . S
C465 C467 1.561 . S
C465 C468 1.526 . S
C466 H450 0.959 . S
C466 H451 0.959 . S
C466 H452 0.961 . S
C466 C465 1.502 . S
C467 H453 0.960 . S
C467 H454 0.961 . S
C467 H455 0.959 . S
C467 C465 1.561 . S
C468 C465 1.526 . S
C468 C469 1.396 . S
C468 C473 1.390 . S
C469 C463 1.465 . S
C469 C468 1.396 . S
C469 C470 1.399 . S
C470 H456 0.929 . S
C470 C469 1.399 . S
C470 C471 1.385 . S
C471 H457 0.931 . S
C471 C470 1.385 . S
C471 C472 1.389 . S
C472 C471 1.389 . S
C472 C473 1.387 . S
C473 H458 0.930 . S
C473 C468 1.390 . S
C473 C472 1.387 . S
H474 C486 0.930 . S
H475 C488 0.930 . S
H476 C489 0.930 . S
H477 C493 0.959 . S
H478 C493 0.959 . S
H479 C493 0.961 1_554 S
H480 C494 0.960 . S
H481 C494 0.961 1_556 S
H482 C494 0.959 . S
H483 C497 0.929 . S
H484 C498 0.931 . S
H485 C500 0.930 . S
C486 H474 0.930 . S
C486 C487 1.399 . S
C486 C491 1.399 . S
C487 C486 1.399 . S
C487 C488 1.376 . S
C488 H475 0.930 . S
C488 C487 1.376 . S
C488 C489 1.388 . S
C489 H476 0.930 . S
C489 C488 1.388 . S
C489 C490 1.390 . S
C490 C489 1.390 . S
C490 C491 1.394 . S
C490 C496 1.465 1_554 S
C491 C486 1.399 . S
C491 C490 1.394 . S
C491 C492 1.516 . S
C492 C491 1.516 . S
C492 C493 1.502 1_554 S
C492 C494 1.561 . S
C492 C495 1.526 1_554 S
C493 H477 0.959 . S
C493 H478 0.959 . S
C493 H479 0.961 1_556 S
C493 C492 1.502 1_556 S
C494 H480 0.960 . S
C494 H481 0.961 1_554 S
C494 H482 0.959 . S
C494 C492 1.561 . S
C495 C492 1.526 1_556 S
C495 C496 1.396 . S
C495 C500 1.390 . S
C496 C490 1.465 1_556 S
C496 C495 1.396 . S
C496 C497 1.399 . S
C497 H483 0.929 . S
C497 C496 1.399 . S
C497 C498 1.385 . S
C498 H484 0.931 . S
C498 C497 1.385 . S
C498 C499 1.389 . S
C499 C498 1.389 . S
C499 C500 1.387 . S
C500 H485 0.930 . S
C500 C495 1.390 . S
C500 C499 1.387 . S
H501 C513 0.930 . S
H502 C515 0.930 . S
H503 C516 0.930 . S
H504 C520 0.959 . S
H505 C520 0.959 . S
H506 C520 0.961 . S
H507 C521 0.960 . S
H508 C521 0.961 . S
H509 C521 0.959 . S
H510 C524 0.929 . S
H511 C525 0.931 . S
H512 C527 0.930 . S
C513 H501 0.930 . S
C513 C514 1.399 . S
C513 C518 1.399 . S
C514 C513 1.399 . S
C514 C515 1.376 . S
C515 H502 0.930 . S
C515 C514 1.376 . S
C515 C516 1.388 . S
C516 H503 0.930 . S
C516 C515 1.388 . S
C516 C517 1.390 . S
C517 C516 1.390 . S
C517 C518 1.394 . S
C517 C523 1.465 . S
C518 C513 1.399 . S
C518 C517 1.394 . S
C518 C519 1.516 . S
C519 C518 1.516 . S
C519 C520 1.502 . S
C519 C521 1.561 . S
C519 C522 1.526 . S
C520 H504 0.959 . S
C520 H505 0.959 . S
C520 H506 0.961 . S
C520 C519 1.502 . S
C521 H507 0.960 . S
C521 H508 0.961 . S
C521 H509 0.959 . S
C521 C519 1.561 . S
C522 C519 1.526 . S
C522 C523 1.396 . S
C522 C527 1.390 . S
C523 C517 1.465 . S
C523 C522 1.396 . S
C523 C524 1.399 . S
C524 H510 0.929 . S
C524 C523 1.399 . S
C524 C525 1.385 . S
C525 H511 0.931 . S
C525 C524 1.385 . S
C525 C526 1.389 . S
C526 C525 1.389 . S
C526 C527 1.387 . S
C527 H512 0.930 . S
C527 C522 1.390 . S
C527 C526 1.387 . S
H528 C540 0.930 . S
H529 C542 0.930 . S
H530 C543 0.930 . S
H531 C547 0.958 1_554 S
H532 C547 0.959 . S
H533 C547 0.962 1_655 S
H534 C548 0.960 . S
H535 C548 0.961 . S
H536 C548 0.959 . S
H537 C551 0.929 . S
H538 C552 0.931 . S
H539 C554 0.930 . S
C540 H528 0.930 . S
C540 C541 1.399 . S
C540 C545 1.399 . S
C541 C540 1.399 . S
C541 C542 1.376 . S
C542 H529 0.930 . S
C542 C541 1.376 . S
C542 C543 1.388 . S
C543 H530 0.930 . S
C543 C542 1.388 . S
C543 C544 1.390 . S
C544 C543 1.390 . S
C544 C545 1.394 . S
C544 C550 1.465 1_655 S
C545 C540 1.399 . S
C545 C544 1.394 . S
C545 C546 1.516 . S
C546 C545 1.516 . S
C546 C547 1.502 1_654 S
C546 C548 1.561 . S
C546 C549 1.526 1_655 S
C547 H531 0.958 1_556 S
C547 H532 0.959 . S
C547 H533 0.962 1_455 S
C547 C546 1.502 1_456 S
C548 H534 0.960 . S
C548 H535 0.961 . S
C548 H536 0.959 . S
C548 C546 1.561 . S
C549 C546 1.526 1_455 S
C549 C550 1.396 . S
C549 C554 1.390 . S
C550 C544 1.465 1_455 S
C550 C549 1.396 . S
C550 C551 1.399 . S
C551 H537 0.929 . S
C551 C550 1.399 . S
C551 C552 1.385 . S
C552 H538 0.931 . S
C552 C551 1.385 . S
C552 C553 1.389 . S
C553 C552 1.389 . S
C553 C554 1.387 . S
C554 H539 0.930 . S
C554 C549 1.390 . S
C554 C553 1.387 . S
H555 C567 0.930 . S
H556 C569 0.930 . S
H557 C570 0.930 . S
H558 C574 0.959 . S
H559 C574 0.959 1_565 S
H560 C574 0.961 . S
H561 C575 0.960 1_545 S
H562 C575 0.961 . S
H563 C575 0.959 . S
H564 C578 0.929 . S
H565 C579 0.931 . S
H566 C581 0.930 . S
C567 H555 0.930 . S
C567 C568 1.399 . S
C567 C572 1.399 . S
C568 C567 1.399 . S
C568 C569 1.376 . S
C569 H556 0.930 . S
C569 C568 1.376 . S
C569 C570 1.388 . S
C570 H557 0.930 . S
C570 C569 1.388 . S
C570 C571 1.390 . S
C571 C570 1.390 . S
C571 C572 1.394 . S
C571 C577 1.465 1_545 S
C572 C567 1.399 . S
C572 C571 1.394 . S
C572 C573 1.516 . S
C573 C572 1.516 . S
C573 C574 1.502 . S
C573 C575 1.561 1_545 S
C573 C576 1.526 1_545 S
C574 H558 0.959 . S
C574 H559 0.959 1_545 S
C574 H560 0.961 . S
C574 C573 1.502 . S
C575 H561 0.960 1_565 S
C575 H562 0.961 . S
C575 H563 0.959 . S
C575 C573 1.561 1_565 S
C576 C573 1.526 1_565 S
C576 C577 1.396 . S
C576 C581 1.390 . S
C577 C571 1.465 1_565 S
C577 C576 1.396 . S
C577 C578 1.399 . S
C578 H564 0.929 . S
C578 C577 1.399 . S
C578 C579 1.385 . S
C579 H565 0.931 . S
C579 C578 1.385 . S
C579 C580 1.389 . S
C580 C579 1.389 . S
C580 C581 1.387 . S
C581 H566 0.930 . S
C581 C576 1.390 . S
C581 C580 1.387 . S
H582 C594 0.930 . S
H583 C596 0.930 . S
H584 C597 0.930 . S
H585 C601 0.959 . S
H586 C601 0.959 . S
H587 C601 0.961 . S
H588 C602 0.960 . S
H589 C602 0.961 . S
H590 C602 0.959 . S
H591 C605 0.929 . S
H592 C606 0.931 . S
H593 C608 0.930 . S
C594 H582 0.930 . S
C594 C595 1.399 . S
C594 C599 1.399 . S
C595 C594 1.399 . S
C595 C596 1.376 . S
C596 H583 0.930 . S
C596 C595 1.376 . S
C596 C597 1.388 . S
C597 H584 0.930 . S
C597 C596 1.388 . S
C597 C598 1.390 . S
C598 C597 1.390 . S
C598 C599 1.394 . S
C598 C604 1.465 . S
C599 C594 1.399 . S
C599 C598 1.394 . S
C599 C600 1.516 . S
C600 C599 1.516 . S
C600 C601 1.502 . S
C600 C602 1.561 . S
C600 C603 1.526 . S
C601 H585 0.959 . S
C601 H586 0.959 . S
C601 H587 0.961 . S
C601 C600 1.502 . S
C602 H588 0.960 . S
C602 H589 0.961 . S
C602 H590 0.959 . S
C602 C600 1.561 . S
C603 C600 1.526 . S
C603 C604 1.396 . S
C603 C608 1.390 . S
C604 C598 1.465 . S
C604 C603 1.396 . S
C604 C605 1.399 . S
C605 H591 0.929 . S
C605 C604 1.399 . S
C605 C606 1.385 . S
C606 H592 0.931 . S
C606 C605 1.385 . S
C606 C607 1.389 . S
C607 C606 1.389 . S
C607 C608 1.387 . S
C608 H593 0.930 . S
C608 C603 1.390 . S
C608 C607 1.387 . S
C217 C33 1.509 . S
C229 C70 1.438 . S
C244 C67 1.503 . S
C256 C104 1.476 . S
C271 C138 1.403 . S
C283 C101 1.475 . S
C298 C172 1.475 . S
C310 C135 1.504 . S
C325 C169 1.510 . S
C337 C2 1.445 . S
C352 C36 1.466 . S
C364 C203 1.473 . S
C379 C5 1.243 . S
C391 C9 1.241 . S
C406 C43 1.249 . S
C418 C39 1.222 . S
C433 C73 1.226 . S
C445 C77 1.206 . S
C460 C107 1.221 . S
C472 C111 1.205 . S
C487 C141 1.184 . S
C499 C145 1.231 . S
C514 C179 1.214 . S
C526 C175 1.187 . S
C541 C122 1.523 . S
C553 C20 1.522 . S
C568 C54 1.535 . S
C580 C156 1.521 . S
C595 C88 1.537 . S
C607 C190 1.517 . S
