# Generated by pormake.
# Topology ure, (4)-cn, num edge types: 1
# Building blocks:
#     Node 0, Type 0, BuildingBlock: NAHDIM_clean_sbu_0, # of connection points: 4
#     Node 1, Type 0, BuildingBlock: NAHDIM_clean_sbu_0, # of connection points: 4
#     Node 2, Type 0, BuildingBlock: NAHDIM_clean_sbu_0, # of connection points: 4
#     Node 3, Type 0, BuildingBlock: NAHDIM_clean_sbu_0, # of connection points: 4
#     Node 4, Type 0, BuildingBlock: NAHDIM_clean_sbu_0, # of connection points: 4
#     Node 5, Type 0, BuildingBlock: NAHDIM_clean_sbu_0, # of connection points: 4
#     Node 6, Type 0, BuildingBlock: NAHDIM_clean_sbu_0, # of connection points: 4
#     Node 7, Type 0, BuildingBlock: NAHDIM_clean_sbu_0, # of connection points: 4
#     Node 8, Type 0, BuildingBlock: NAHDIM_clean_sbu_0, # of connection points: 4
#     Node 9, Type 0, BuildingBlock: NAHDIM_clean_sbu_0, # of connection points: 4
#     Node 10, Type 0, BuildingBlock: NAHDIM_clean_sbu_0, # of connection points: 4
#     Node 11, Type 0, BuildingBlock: NAHDIM_clean_sbu_0, # of connection points: 4
#     Node 12, Type 0, BuildingBlock: NAHDIM_clean_sbu_0, # of connection points: 4
#     Node 13, Type 0, BuildingBlock: NAHDIM_clean_sbu_0, # of connection points: 4
#     Node 14, Type 0, BuildingBlock: NAHDIM_clean_sbu_0, # of connection points: 4
#     Node 15, Type 0, BuildingBlock: NAHDIM_clean_sbu_0, # of connection points: 4
#     Edge 16, Type (0, 0), BuildingBlock: XUDNAN_clean_linker_2, # of connection points: 2
#     Edge 17, Type (0, 0), BuildingBlock: XUDNAN_clean_linker_2, # of connection points: 2
#     Edge 18, Type (0, 0), BuildingBlock: XUDNAN_clean_linker_2, # of connection points: 2
#     Edge 19, Type (0, 0), BuildingBlock: XUDNAN_clean_linker_2, # of connection points: 2
#     Edge 20, Type (0, 0), BuildingBlock: XUDNAN_clean_linker_2, # of connection points: 2
#     Edge 21, Type (0, 0), BuildingBlock: XUDNAN_clean_linker_2, # of connection points: 2
#     Edge 22, Type (0, 0), BuildingBlock: XUDNAN_clean_linker_2, # of connection points: 2
#     Edge 23, Type (0, 0), BuildingBlock: XUDNAN_clean_linker_2, # of connection points: 2
#     Edge 24, Type (0, 0), BuildingBlock: XUDNAN_clean_linker_2, # of connection points: 2
#     Edge 25, Type (0, 0), BuildingBlock: XUDNAN_clean_linker_2, # of connection points: 2
#     Edge 26, Type (0, 0), BuildingBlock: XUDNAN_clean_linker_2, # of connection points: 2
#     Edge 27, Type (0, 0), BuildingBlock: XUDNAN_clean_linker_2, # of connection points: 2
#     Edge 28, Type (0, 0), BuildingBlock: XUDNAN_clean_linker_2, # of connection points: 2
#     Edge 29, Type (0, 0), BuildingBlock: XUDNAN_clean_linker_2, # of connection points: 2
#     Edge 30, Type (0, 0), BuildingBlock: XUDNAN_clean_linker_2, # of connection points: 2
#     Edge 31, Type (0, 0), BuildingBlock: XUDNAN_clean_linker_2, # of connection points: 2
#     Edge 32, Type (0, 0), BuildingBlock: XUDNAN_clean_linker_2, # of connection points: 2
#     Edge 33, Type (0, 0), BuildingBlock: XUDNAN_clean_linker_2, # of connection points: 2
#     Edge 34, Type (0, 0), BuildingBlock: XUDNAN_clean_linker_2, # of connection points: 2
#     Edge 35, Type (0, 0), BuildingBlock: XUDNAN_clean_linker_2, # of connection points: 2
#     Edge 36, Type (0, 0), BuildingBlock: XUDNAN_clean_linker_2, # of connection points: 2
#     Edge 37, Type (0, 0), BuildingBlock: XUDNAN_clean_linker_2, # of connection points: 2
#     Edge 38, Type (0, 0), BuildingBlock: XUDNAN_clean_linker_2, # of connection points: 2
#     Edge 39, Type (0, 0), BuildingBlock: XUDNAN_clean_linker_2, # of connection points: 2
#     Edge 40, Type (0, 0), BuildingBlock: XUDNAN_clean_linker_2, # of connection points: 2
#     Edge 41, Type (0, 0), BuildingBlock: XUDNAN_clean_linker_2, # of connection points: 2
#     Edge 42, Type (0, 0), BuildingBlock: XUDNAN_clean_linker_2, # of connection points: 2
#     Edge 43, Type (0, 0), BuildingBlock: XUDNAN_clean_linker_2, # of connection points: 2
#     Edge 44, Type (0, 0), BuildingBlock: XUDNAN_clean_linker_2, # of connection points: 2
#     Edge 45, Type (0, 0), BuildingBlock: XUDNAN_clean_linker_2, # of connection points: 2
#     Edge 46, Type (0, 0), BuildingBlock: XUDNAN_clean_linker_2, # of connection points: 2
#     Edge 47, Type (0, 0), BuildingBlock: XUDNAN_clean_linker_2, # of connection points: 2
# Relax obj value: 0.109
# Max RMSD: 0.078
# Mean RMSD: 0.069
data_MOF--net-ure--node1-NAHDIM_clean_sbu_0--edge1-XUDNAN_clean_linker_2
_symmetry_space_group_name_H-M    P1
_symmetry_Int_Tables_number       1
_symmetry_cell_setting            triclinic
loop_
_symmetry_equiv_pos_as_xyz
'x, y, z'
_cell_length_a     30.513129
_cell_length_b     31.742179
_cell_length_c     32.56903
_cell_angle_alpha  90.500541
_cell_angle_beta   91.280013
_cell_angle_gamma 93.330419
loop_
_atom_site_label
_atom_site_type_symbol
_atom_site_fract_x
_atom_site_fract_y
_atom_site_fract_z
_atom_type_partial_charge
C0 C 0.22872 0.15576 0.25205 0.0
O1 O 0.25831 0.14407 0.27888 0.0
O2 O 0.32056 0.23634 0.27894 0.0
Zn3 Zn 0.25457 0.2405 0.28319 0.0
O4 O 0.23787 0.29704 0.2608 0.0
C5 C 0.26167 0.25509 0.37065 0.0
O6 O 0.29364 0.28173 0.3595 0.0
O7 O 0.2219 0.19475 0.24883 0.0
C8 C 0.22415 0.32785 0.28117 0.0
O9 O 0.21816 0.324 0.32078 0.0
C10 C 0.34525 0.27006 0.2788 0.0
O11 O 0.3272 0.30661 0.27957 0.0
O12 O 0.23933 0.23408 0.34316 0.0
C13 C 0.04933 0.93497 0.4744 0.0
O14 O 0.03412 0.96459 0.45101 0.0
O15 O 0.94655 0.97902 0.5138 0.0
Zn16 Zn 0.00766 0.98099 0.53886 0.0
O17 O 0.00635 0.97237 0.60019 0.0
C18 C 0.01111 0.07041 0.53307 0.0
O19 O 0.97092 0.0634 0.54605 0.0
O20 O 0.04238 0.93593 0.51275 0.0
C21 C 0.04188 0.97915 0.62093 0.0
O22 O 0.07783 0.99098 0.60163 0.0
C23 C 0.91183 0.97842 0.53468 0.0
O24 O 0.91493 0.97605 0.57488 0.0
O25 O 0.03489 0.03924 0.52787 0.0
C26 C 0.28115 0.84014 0.70341 0.0
O27 O 0.2613 0.81262 0.67784 0.0
O28 O 0.16968 0.79867 0.73568 0.0
Zn29 Zn 0.22975 0.79226 0.76117 0.0
O30 O 0.25048 0.73512 0.74521 0.0
C31 C 0.25422 0.79713 0.84914 0.0
O32 O 0.29494 0.79733 0.8368 0.0
O33 O 0.27264 0.83801 0.74141 0.0
C34 C 0.24639 0.70329 0.76857 0.0
O35 O 0.22856 0.7075 0.8046 0.0
C36 C 0.13792 0.77922 0.75343 0.0
O37 O 0.14639 0.75588 0.78544 0.0
O38 O 0.22305 0.79605 0.82261 0.0
C39 C 0.48272 0.07869 0.9658 0.0
O40 O 0.51905 0.08971 0.98658 0.0
O41 O 0.55992 0.00758 0.00403 0.0
Zn42 Zn 0.49417 0.00573 0.01316 0.0
O43 O 0.48265 0.02839 0.06984 0.0
C44 C 0.47556 0.91703 0.98564 0.0
O45 O 0.49767 0.9273 0.95268 0.0
O46 O 0.46463 0.0421 0.97123 0.0
C47 C 0.5082 0.02164 0.10016 0.0
O48 O 0.54383 0.00142 0.09397 0.0
C49 C 0.58231 0.97574 0.01115 0.0
O50 O 0.56257 0.94101 0.02496 0.0
O51 O 0.46925 0.94528 0.01245 0.0
C52 C 0.19858 0.73097 0.30511 0.0
O53 O 0.21572 0.6953 0.31496 0.0
O54 O 0.2977 0.7159 0.23689 0.0
Zn55 Zn 0.23224 0.71008 0.22585 0.0
O56 O 0.21426 0.64795 0.22949 0.0
C57 C 0.24977 0.74357 0.14488 0.0
O58 O 0.29056 0.7433 0.15855 0.0
O59 O 0.20115 0.74373 0.26828 0.0
C60 C 0.22117 0.62395 0.19916 0.0
O61 O 0.23717 0.64069 0.1655 0.0
C62 C 0.31745 0.69049 0.25978 0.0
O63 O 0.29452 0.66053 0.27868 0.0
O64 O 0.21885 0.73124 0.16835 0.0
C65 C 0.48649 0.0282 0.55177 0.0
O66 O 0.5153 0.05792 0.56492 0.0
O67 O 0.51748 0.11542 0.48249 0.0
Zn68 Zn 0.52289 0.05297 0.47476 0.0
O69 O 0.586 0.03914 0.48366 0.0
C70 C 0.47472 0.05513 0.39734 0.0
O71 O 0.44833 0.07811 0.4182 0.0
O72 O 0.48342 0.01996 0.5135 0.0
C73 C 0.61275 0.04869 0.45536 0.0
O74 O 0.59828 0.06726 0.42223 0.0
C75 C 0.54543 0.13868 0.50307 0.0
O76 O 0.57851 0.12145 0.52161 0.0
O77 O 0.50696 0.03942 0.41579 0.0
C78 C 0.29929 0.25187 0.79021 0.0
O79 O 0.262 0.23096 0.78057 0.0
O80 O 0.26091 0.30065 0.68491 0.0
Zn81 Zn 0.2603 0.31922 0.74453 0.0
O82 O 0.19948 0.30645 0.76565 0.0
C83 C 0.28894 0.40357 0.71845 0.0
O84 O 0.30077 0.38359 0.68536 0.0
O85 O 0.3056 0.28973 0.77817 0.0
C86 C 0.18284 0.3278 0.79398 0.0
O87 O 0.20682 0.35847 0.8123 0.0
C88 C 0.23659 0.26974 0.67077 0.0
O89 O 0.21126 0.24784 0.6959 0.0
O90 O 0.27235 0.38244 0.74786 0.0
C91 C 0.03701 0.99129 0.05436 0.0
O92 O 0.01409 0.01707 0.03237 0.0
O93 O 0.98321 0.8644 0.00727 0.0
Zn94 Zn 0.99071 0.92766 0.00228 0.0
O95 O 0.93066 0.95176 0.00583 0.0
C96 C 0.9907 0.93348 0.9147 0.0
O97 O 0.95057 0.91717 0.91922 0.0
O98 O 0.03223 0.95182 0.04712 0.0
C99 C 0.89626 0.92738 0.00102 0.0
O100 O 0.90036 0.88688 0.99484 0.0
C101 C 0.0139 0.83929 0.01124 0.0
O102 O 0.05484 0.85457 0.01341 0.0
O103 O 0.01502 0.94105 0.94645 0.0
C104 C 0.69305 0.31694 0.76493 0.0
O105 O 0.68551 0.29393 0.73151 0.0
O106 O 0.8341 0.2906 0.78769 0.0
Zn107 Zn 0.77362 0.2748 0.76359 0.0
O108 O 0.75541 0.21535 0.78087 0.0
C109 C 0.80468 0.2965 0.68123 0.0
O110 O 0.83556 0.31959 0.70103 0.0
O111 O 0.72943 0.31452 0.78433 0.0
C112 C 0.76009 0.18372 0.75741 0.0
O113 O 0.77667 0.18982 0.72092 0.0
C114 C 0.86529 0.26825 0.77716 0.0
O115 O 0.85665 0.23625 0.75185 0.0
O116 O 0.7752 0.27635 0.70143 0.0
C117 C 0.94456 0.40486 0.01729 0.0
O118 O 0.97211 0.43154 0.03718 0.0
O119 O 0.97566 0.50552 0.97079 0.0
Zn120 Zn 0.98647 0.44636 0.9505 0.0
O121 O 0.04822 0.433 0.96709 0.0
C122 C 0.96775 0.47625 0.86858 0.0
O123 O 0.9569 0.5094 0.8896 0.0
O124 O 0.94402 0.40485 0.97819 0.0
C125 C 0.08078 0.44158 0.9443 0.0
O126 O 0.07391 0.45787 0.90793 0.0
C127 C 0.0061 0.5312 0.98472 0.0
O128 O 0.04628 0.51876 0.98823 0.0
O129 O 0.98 0.44411 0.88793 0.0
C130 C 0.76892 0.66721 0.26672 0.0
O131 O 0.74234 0.65377 0.23647 0.0
O132 O 0.74808 0.7483 0.18645 0.0
Zn133 Zn 0.73083 0.74467 0.24608 0.0
O134 O 0.66792 0.72378 0.25281 0.0
C135 C 0.7747 0.82377 0.26895 0.0
O136 O 0.80854 0.8047 0.25502 0.0
O137 O 0.77028 0.70606 0.2768 0.0
C138 C 0.63635 0.74416 0.23873 0.0
O139 O 0.64495 0.77856 0.21752 0.0
C140 C 0.72535 0.73536 0.15513 0.0
O141 O 0.6867 0.71588 0.16014 0.0
O142 O 0.73753 0.80363 0.26944 0.0
C143 C 0.96728 0.51333 0.44613 0.0
O144 O 0.98529 0.53917 0.47427 0.0
O145 O 0.08522 0.48109 0.47069 0.0
Zn146 Zn 0.02507 0.45526 0.48427 0.0
O147 O 0.01015 0.4715 0.54253 0.0
C148 C 0.06265 0.3735 0.48117 0.0
O149 O 0.0997 0.39673 0.48114 0.0
O150 O 0.97896 0.47552 0.44456 0.0
C151 C 0.01464 0.44615 0.57223 0.0
O152 O 0.0297 0.40895 0.56502 0.0
C153 C 0.09396 0.50358 0.43946 0.0
O154 O 0.06217 0.51271 0.41379 0.0
O155 O 0.02646 0.39153 0.48101 0.0
C156 C 0.49547 0.49161 0.91809 0.0
O157 O 0.45465 0.50049 0.91006 0.0
O158 O 0.41314 0.50314 0.99098 0.0
Zn159 Zn 0.47607 0.52703 0.99699 0.0
O160 O 0.50051 0.51191 0.05301 0.0
C161 C 0.45048 0.60868 0.0166 0.0
O162 O 0.42718 0.58549 0.04234 0.0
O163 O 0.51241 0.50128 0.95318 0.0
C164 C 0.51901 0.5384 0.07835 0.0
O165 O 0.52504 0.57812 0.06786 0.0
C166 C 0.3928 0.4847 0.02006 0.0
O167 O 0.41332 0.48003 0.05547 0.0
O168 O 0.47543 0.59051 0.9921 0.0
C169 C 0.69778 0.75384 0.71027 0.0
O170 O 0.73366 0.7666 0.6914 0.0
O171 O 0.80196 0.7858 0.76047 0.0
Zn172 Zn 0.74172 0.79658 0.78086 0.0
O173 O 0.73394 0.85915 0.77725 0.0
C174 C 0.77388 0.79339 0.86304 0.0
O175 O 0.80592 0.81592 0.84596 0.0
O176 O 0.69405 0.76299 0.74812 0.0
C177 C 0.71551 0.87925 0.80538 0.0
O178 O 0.69874 0.8584 0.83655 0.0
C179 C 0.82082 0.80699 0.73226 0.0
O180 O 0.79955 0.83605 0.71303 0.0
O181 O 0.74099 0.78025 0.84081 0.0
C182 C 0.77513 0.2358 0.21778 0.0
O183 O 0.74426 0.20554 0.21222 0.0
O184 O 0.69051 0.23188 0.29744 0.0
Zn185 Zn 0.75431 0.21807 0.30117 0.0
O186 O 0.76368 0.1556 0.29799 0.0
C187 C 0.75593 0.23224 0.38744 0.0
O188 O 0.71749 0.21173 0.38262 0.0
O189 O 0.78608 0.24724 0.25431 0.0
C190 C 0.74088 0.12562 0.31428 0.0
O191 O 0.70579 0.13373 0.33489 0.0
C192 C 0.65774 0.20942 0.28308 0.0
O193 O 0.66343 0.17178 0.26776 0.0
O194 O 0.77898 0.23975 0.35598 0.0
C195 C 0.50896 0.57468 0.52306 0.0
O196 O 0.47387 0.5505 0.53122 0.0
O197 O 0.51051 0.46962 0.47342 0.0
Zn198 Zn 0.49805 0.52625 0.44997 0.0
O199 O 0.43237 0.53034 0.44762 0.0
C200 C 0.54027 0.50045 0.37528 0.0
O201 O 0.55073 0.46823 0.39773 0.0
O202 O 0.52619 0.57121 0.48807 0.0
C203 C 0.41369 0.55439 0.42254 0.0
O204 O 0.43791 0.57853 0.39831 0.0
C205 C 0.4877 0.4365 0.46238 0.0
O206 O 0.45504 0.43963 0.4358 0.0
O207 O 0.52015 0.53012 0.39164 0.0
H208 H 0.16516 0.16949 0.19323 0.0
H209 H 0.23534 0.06995 0.25129 0.0
H210 H 0.19366 0.017 0.20754 0.0
H211 H 0.06025 0.11161 0.18366 0.0
H212 H 0.04682 0.13363 0.13445 0.0
H213 H 0.08205 0.16363 0.17047 0.0
H214 H 0.14215 0.17173 0.11565 0.0
H215 H 0.10711 0.14177 0.07946 0.0
H216 H 0.16143 0.12525 0.09136 0.0
H217 H 0.14429 0.97478 0.15709 0.0
H218 H 0.09147 0.94672 0.10365 0.0
H219 H 0.0538 0.07395 0.07853 0.0
C220 C 0.1718 0.13657 0.19683 0.0
C221 C 0.20358 0.12393 0.22579 0.0
C222 C 0.21119 0.08048 0.22939 0.0
C223 C 0.18766 0.05012 0.20467 0.0
C224 C 0.1566 0.06368 0.17645 0.0
C225 C 0.14864 0.10587 0.17241 0.0
C226 C 0.11365 0.11218 0.13963 0.0
C227 C 0.07331 0.13139 0.15817 0.0
C228 C 0.13221 0.13933 0.10444 0.0
C229 C 0.10325 0.06695 0.12575 0.0
C230 C 0.1283 0.03943 0.14741 0.0
C231 C 0.1245 0.99605 0.13996 0.0
C232 C 0.09437 0.9804 0.10952 0.0
C233 C 0.06842 0.00806 0.08681 0.0
C234 C 0.07308 0.0519 0.09526 0.0
H235 H 0.07146 0.92436 0.39371 0.0
H236 H 0.0816 0.86704 0.51389 0.0
H237 H 0.12049 0.80868 0.48358 0.0
H238 H 0.05249 0.82794 0.3359 0.0
H239 H 0.08471 0.84588 0.29305 0.0
H240 H 0.05787 0.88338 0.32417 0.0
H241 H 0.13239 0.92501 0.33803 0.0
H242 H 0.15944 0.88769 0.30688 0.0
H243 H 0.17801 0.89801 0.35912 0.0
H244 H 0.1575 0.75606 0.44014 0.0
H245 H 0.1915 0.71372 0.38695 0.0
H246 H 0.15789 0.80553 0.29505 0.0
C247 C 0.08189 0.89959 0.41371 0.0
C248 C 0.0734 0.90033 0.45623 0.0
C249 C 0.08769 0.86725 0.48126 0.0
C250 C 0.10979 0.83391 0.46432 0.0
C251 C 0.11746 0.83409 0.42231 0.0
C252 C 0.10408 0.86611 0.39734 0.0
C253 C 0.11654 0.8588 0.35314 0.0
C254 C 0.07545 0.85369 0.32491 0.0
C255 C 0.1485 0.8945 0.33844 0.0
C256 C 0.13897 0.81764 0.35717 0.0
C257 C 0.13906 0.80389 0.39731 0.0
C258 C 0.1577 0.76655 0.40862 0.0
C259 C 0.17691 0.74269 0.37813 0.0
C260 C 0.17746 0.75626 0.33678 0.0
C261 C 0.15809 0.79426 0.32634 0.0
H262 H 0.42547 0.96257 0.5355 0.0
H263 H 0.48353 0.0407 0.63488 0.0
H264 H 0.43684 0.00172 0.68432 0.0
H265 H 0.31541 0.95461 0.57394 0.0
H266 H 0.30506 0.90048 0.55757 0.0
H267 H 0.34279 0.93481 0.52988 0.0
H268 H 0.40365 0.88202 0.54038 0.0
H269 H 0.36611 0.84753 0.5681 0.0
H270 H 0.41788 0.86573 0.59163 0.0
H271 H 0.38406 0.954 0.72313 0.0
H272 H 0.32946 0.90049 0.74848 0.0
H273 H 0.30611 0.85333 0.62386 0.0
C274 C 0.42834 0.97157 0.56763 0.0
C275 C 0.45819 0.00476 0.58126 0.0
C276 C 0.46095 0.01541 0.62364 0.0
C277 C 0.43453 0.99347 0.652 0.0
C278 C 0.40551 0.96092 0.63755 0.0
C279 C 0.40227 0.94995 0.59639 0.0
C280 C 0.36872 0.91345 0.58894 0.0
C281 C 0.33074 0.92664 0.56093 0.0
C282 C 0.3904 0.8749 0.57123 0.0
C283 C 0.35367 0.90557 0.63235 0.0
C284 C 0.37523 0.93334 0.65993 0.0
C285 C 0.36694 0.93209 0.70182 0.0
C286 C 0.33585 0.90158 0.71592 0.0
C287 C 0.31345 0.87267 0.68821 0.0
C288 C 0.32259 0.87493 0.64588 0.0
H289 H 0.40281 0.07044 0.92421 0.0
H290 H 0.51729 0.15651 0.94456 0.0
H291 H 0.48363 0.20912 0.9006 0.0
H292 H 0.38218 0.09808 0.81743 0.0
H293 H 0.32333 0.09399 0.82202 0.0
H294 H 0.35711 0.06222 0.85385 0.0
H295 H 0.32209 0.09212 0.91889 0.0
H296 H 0.2883 0.12405 0.88728 0.0
H297 H 0.32341 0.14843 0.92706 0.0
H298 H 0.43694 0.25342 0.85636 0.0
H299 H 0.38027 0.28631 0.81431 0.0
H300 H 0.29572 0.17193 0.82254 0.0
C301 C 0.42096 0.1002 0.91914 0.0
C302 C 0.46277 0.10926 0.93785 0.0
C303 C 0.48525 0.14875 0.93063 0.0
C304 C 0.46642 0.1789 0.90564 0.0
C305 C 0.42506 0.16915 0.88801 0.0
C306 C 0.40258 0.13077 0.8943 0.0
C307 C 0.35808 0.12878 0.87245 0.0
C308 C 0.35501 0.09369 0.83948 0.0
C309 C 0.32078 0.12301 0.90327 0.0
C310 C 0.35898 0.17215 0.85322 0.0
C311 C 0.398 0.19484 0.86249 0.0
C312 C 0.40631 0.23591 0.84875 0.0
C313 C 0.37386 0.25434 0.8249 0.0
C314 C 0.3335 0.23176 0.81504 0.0
C315 C 0.32621 0.19005 0.82941 0.0
H316 H 0.69455 0.36325 0.83687 0.0
H317 H 0.61431 0.33215 0.72778 0.0
H318 H 0.55653 0.37589 0.7538 0.0
H319 H 0.60704 0.35943 0.90738 0.0
H320 H 0.62955 0.40297 0.93858 0.0
H321 H 0.6656 0.3709 0.9105 0.0
H322 H 0.69927 0.43763 0.87507 0.0
H323 H 0.66328 0.46993 0.90306 0.0
H324 H 0.66376 0.47179 0.84777 0.0
H325 H 0.50648 0.42121 0.79246 0.0
H326 H 0.46714 0.46393 0.84166 0.0
H327 H 0.5796 0.46527 0.9259 0.0
C328 C 0.665 0.3659 0.81827 0.0
C329 C 0.65906 0.34431 0.78019 0.0
C330 C 0.6197 0.34838 0.75701 0.0
C331 C 0.58667 0.37322 0.77149 0.0
C332 C 0.59346 0.39386 0.80921 0.0
C333 C 0.63161 0.39048 0.83231 0.0
C334 C 0.63008 0.41487 0.87243 0.0
C335 C 0.63324 0.38527 0.9094 0.0
C336 C 0.66625 0.45068 0.87469 0.0
C337 C 0.58492 0.43211 0.86844 0.0
C338 C 0.56447 0.41982 0.83163 0.0
C339 C 0.52223 0.43118 0.82131 0.0
C340 C 0.50015 0.45549 0.84949 0.0
C341 C 0.52024 0.46807 0.88766 0.0
C342 C 0.56336 0.45637 0.89695 0.0
H343 H 0.93751 0.39862 0.10087 0.0
H344 H 0.88465 0.34425 0.98606 0.0
H345 H 0.83579 0.29503 0.02489 0.0
H346 H 0.93741 0.30193 0.15732 0.0
H347 H 0.9218 0.32579 0.20482 0.0
H348 H 0.95243 0.35677 0.16799 0.0
H349 H 0.89224 0.41111 0.16668 0.0
H350 H 0.86144 0.38033 0.20354 0.0
H351 H 0.83606 0.39342 0.15517 0.0
H352 H 0.79278 0.25165 0.07641 0.0
H353 H 0.75849 0.2176 0.13645 0.0
H354 H 0.8395 0.30045 0.2177 0.0
C355 C 0.91569 0.3764 0.08379 0.0
C356 C 0.91496 0.37533 0.04034 0.0
C357 C 0.88583 0.34572 0.01931 0.0
C358 C 0.85795 0.31761 0.04111 0.0
C359 C 0.85958 0.31952 0.08392 0.0
C360 C 0.88767 0.34818 0.10503 0.0
C361 C 0.88299 0.34383 0.15108 0.0
C362 C 0.92623 0.33133 0.17149 0.0
C363 C 0.86724 0.38459 0.17023 0.0
C364 C 0.84787 0.30817 0.15262 0.0
C365 C 0.83482 0.2946 0.11355 0.0
C366 C 0.80275 0.26203 0.10713 0.0
C367 C 0.78346 0.24288 0.1415 0.0
C368 C 0.79625 0.25628 0.18188 0.0
C369 C 0.82897 0.2894 0.18731 0.0
H370 H 0.94016 0.59388 0.43746 0.0
H371 H 0.92192 0.46741 0.38559 0.0
H372 H 0.86932 0.49307 0.33417 0.0
H373 H 0.82798 0.62189 0.42485 0.0
H374 H 0.84254 0.67586 0.4117 0.0
H375 H 0.8785 0.64746 0.4446 0.0
H376 H 0.94264 0.6636 0.39524 0.0
H377 H 0.90687 0.69199 0.36215 0.0
H378 H 0.93601 0.64896 0.34176 0.0
H379 H 0.81881 0.53251 0.28829 0.0
H380 H 0.77403 0.58279 0.25121 0.0
H381 H 0.82562 0.68375 0.33265 0.0
C382 C 0.92504 0.57149 0.4154 0.0
C383 C 0.93516 0.52856 0.41565 0.0
C384 C 0.91471 0.50042 0.38607 0.0
C385 C 0.88478 0.51469 0.35672 0.0
C386 C 0.87567 0.55721 0.35728 0.0
C387 C 0.89519 0.58522 0.38583 0.0
C388 C 0.87996 0.62937 0.37958 0.0
C389 C 0.8558 0.64452 0.41743 0.0
C390 C 0.91868 0.6603 0.36905 0.0
C391 C 0.84876 0.62182 0.34307 0.0
C392 C 0.84676 0.57998 0.33071 0.0
C393 C 0.82012 0.56535 0.2977 0.0
C394 C 0.7948 0.5942 0.27682 0.0
C395 C 0.79627 0.63727 0.28894 0.0
C396 C 0.82375 0.65109 0.32254 0.0
H397 H 0.58743 0.62214 0.52067 0.0
H398 H 0.47657 0.5917 0.59857 0.0
H399 H 0.5116 0.63606 0.65398 0.0
H400 H 0.66983 0.61913 0.599 0.0
H401 H 0.70354 0.66261 0.57943 0.0
H402 H 0.66871 0.63045 0.54485 0.0
H403 H 0.63159 0.69702 0.51913 0.0
H404 H 0.66645 0.72943 0.55355 0.0
H405 H 0.60763 0.73136 0.55569 0.0
H406 H 0.55999 0.6811 0.70216 0.0
H407 H 0.61815 0.72444 0.73933 0.0
H408 H 0.69757 0.72563 0.63029 0.0
C409 C 0.57028 0.62518 0.5492 0.0
C410 C 0.52917 0.60345 0.55518 0.0
C411 C 0.50805 0.60801 0.59317 0.0
C412 C 0.52766 0.63319 0.62488 0.0
C413 C 0.5684 0.65372 0.61818 0.0
C414 C 0.58944 0.65015 0.58126 0.0
C415 C 0.63367 0.67453 0.58251 0.0
C416 C 0.67114 0.6449 0.57608 0.0
C417 C 0.63488 0.7102 0.55084 0.0
C418 C 0.63438 0.69192 0.62602 0.0
C419 C 0.59635 0.67968 0.64601 0.0
C420 C 0.58983 0.6911 0.68675 0.0
C421 C 0.62309 0.71568 0.70763 0.0
C422 C 0.66243 0.72854 0.68778 0.0
C423 C 0.66786 0.71651 0.64635 0.0
H424 H 0.29178 0.30583 0.43481 0.0
H425 H 0.21054 0.19212 0.40608 0.0
H426 H 0.19657 0.18254 0.47993 0.0
H427 H 0.34015 0.2693 0.52813 0.0
H428 H 0.33981 0.31967 0.55408 0.0
H429 H 0.34375 0.31739 0.49904 0.0
H430 H 0.27542 0.36142 0.49115 0.0
H431 H 0.27109 0.36421 0.54613 0.0
H432 H 0.22493 0.3438 0.51498 0.0
H433 H 0.18902 0.18704 0.55693 0.0
H434 H 0.19197 0.2031 0.63132 0.0
H435 H 0.27823 0.31387 0.60927 0.0
C436 C 0.27086 0.27898 0.44399 0.0
C437 C 0.25213 0.24975 0.41467 0.0
C438 C 0.22495 0.21508 0.42797 0.0
C439 C 0.21677 0.20941 0.46985 0.0
C440 C 0.23537 0.23906 0.49792 0.0
C441 C 0.26189 0.27314 0.48553 0.0
C442 C 0.27804 0.30042 0.52176 0.0
C443 C 0.32842 0.30174 0.526 0.0
C444 C 0.26135 0.3451 0.5183 0.0
C445 C 0.25652 0.27632 0.55657 0.0
C446 C 0.23189 0.24112 0.54219 0.0
C447 C 0.20841 0.21437 0.56857 0.0
C448 C 0.2103 0.22378 0.61079 0.0
C449 C 0.23554 0.25959 0.62624 0.0
C450 C 0.25891 0.28607 0.59857 0.0
H451 H 0.94378 0.92955 0.84189 0.0
H452 H 0.07464 0.95853 0.89345 0.0
H453 H 0.10185 0.97342 0.82386 0.0
H454 H 0.97681 0.87845 0.75052 0.0
H455 H 0.93446 0.89958 0.71852 0.0
H456 H 0.92541 0.89121 0.77235 0.0
H457 H 0.90807 0.96984 0.78067 0.0
H458 H 0.91718 0.97811 0.72684 0.0
H459 H 0.94763 0.01046 0.76464 0.0
H460 H 0.11491 0.98425 0.74866 0.0
H461 H 0.11286 0.99149 0.67332 0.0
H462 H 0.97317 0.95602 0.67095 0.0
C463 C 0.97817 0.93908 0.83864 0.0
C464 C 0.00712 0.94284 0.87315 0.0
C465 C 0.05185 0.95549 0.86748 0.0
C466 C 0.06761 0.964 0.82808 0.0
C467 C 0.03817 0.95996 0.79475 0.0
C468 C 0.99436 0.94802 0.79964 0.0
C469 C 0.96954 0.94609 0.75881 0.0
C470 C 0.9504 0.90112 0.74952 0.0
C471 C 0.93349 0.97804 0.75769 0.0
C472 C 0.00632 0.95857 0.73007 0.0
C473 C 0.04563 0.96644 0.75145 0.0
C474 C 0.08431 0.97825 0.73159 0.0
C475 C 0.0828 0.98223 0.68875 0.0
C476 C 0.04287 0.97438 0.66615 0.0
C477 C 0.00421 0.96231 0.68728 0.0
H478 H 0.31256 0.79726 0.91461 0.0
H479 H 0.1731 0.7902 0.88377 0.0
H480 H 0.15627 0.78052 0.95693 0.0
H481 H 0.31022 0.71886 0.98767 0.0
H482 H 0.34927 0.74434 0.02337 0.0
H483 H 0.35246 0.75578 0.96949 0.0
H484 H 0.34864 0.83444 0.98422 0.0
H485 H 0.34415 0.82603 0.03873 0.0
H486 H 0.30296 0.85371 0.01153 0.0
H487 H 0.15491 0.76623 0.03321 0.0
H488 H 0.1693 0.74878 0.10598 0.0
H489 H 0.30947 0.76601 0.08641 0.0
C490 C 0.27846 0.79421 0.92323 0.0
C491 C 0.2442 0.7945 0.89338 0.0
C492 C 0.19999 0.79017 0.90605 0.0
C493 C 0.19004 0.78462 0.94757 0.0
C494 C 0.22463 0.78374 0.97612 0.0
C495 C 0.26793 0.78876 0.96451 0.0
C496 C 0.29902 0.78523 0.00095 0.0
C497 C 0.32954 0.74888 0.99493 0.0
C498 C 0.32528 0.82735 0.00929 0.0
C499 C 0.26659 0.77568 0.03457 0.0
C500 C 0.2238 0.77554 0.01984 0.0
C501 C 0.18828 0.76632 0.0451 0.0
C502 C 0.19679 0.75648 0.08639 0.0
C503 C 0.2405 0.75599 0.10195 0.0
C504 C 0.27566 0.76622 0.07561 0.0
H505 H 0.53571 0.02916 0.34384 0.0
H506 H 0.40425 0.07418 0.34866 0.0
H507 H 0.39947 0.07327 0.27273 0.0
H508 H 0.56993 0.08915 0.25599 0.0
H509 H 0.6016 0.04794 0.2356 0.0
H510 H 0.59426 0.05223 0.29016 0.0
H511 H 0.56244 0.97467 0.29123 0.0
H512 H 0.56974 0.97033 0.23671 0.0
H513 H 0.51635 0.95872 0.2579 0.0
H514 H 0.40973 0.06835 0.19623 0.0
H515 H 0.43208 0.05512 0.12503 0.0
H516 H 0.55678 0.01322 0.17106 0.0
C517 C 0.50569 0.03842 0.32901 0.0
C518 C 0.47026 0.05165 0.35215 0.0
C519 C 0.43174 0.06385 0.33151 0.0
C520 C 0.42879 0.06356 0.28843 0.0
C521 C 0.46467 0.05108 0.26657 0.0
C522 C 0.50228 0.0385 0.28618 0.0
C523 C 0.53614 0.02623 0.2557 0.0
C524 C 0.57794 0.05565 0.25961 0.0
C525 C 0.54676 0.97972 0.26068 0.0
C526 C 0.51141 0.03324 0.21578 0.0
C527 C 0.47046 0.04801 0.22267 0.0
C528 C 0.44166 0.05666 0.19044 0.0
C529 C 0.45471 0.04916 0.15011 0.0
C530 C 0.4961 0.03297 0.14243 0.0
C531 C 0.52489 0.02552 0.17583 0.0
H532 H 0.39498 0.20014 0.27627 0.0
H533 H 0.40524 0.33706 0.28487 0.0
H534 H 0.48581 0.33594 0.28814 0.0
H535 H 0.4895 0.18353 0.34605 0.0
H536 H 0.50428 0.13843 0.31662 0.0
H537 H 0.44773 0.15216 0.31801 0.0
H538 H 0.44773 0.1525 0.23777 0.0
H539 H 0.50505 0.14197 0.23762 0.0
H540 H 0.48626 0.188 0.21218 0.0
H541 H 0.5648 0.3206 0.29084 0.0
H542 H 0.63813 0.29182 0.29015 0.0
H543 H 0.5777 0.16498 0.27773 0.0
C544 C 0.41418 0.22988 0.27879 0.0
C545 C 0.3937 0.26871 0.28015 0.0
C546 C 0.42005 0.30691 0.2836 0.0
C547 C 0.46591 0.30664 0.28561 0.0
C548 C 0.48502 0.26793 0.28408 0.0
C549 C 0.46015 0.23022 0.28073 0.0
C550 C 0.48923 0.19307 0.27941 0.0
C551 C 0.48228 0.16511 0.31727 0.0
C552 C 0.4816 0.1674 0.23935 0.0
C553 C 0.53423 0.21598 0.28114 0.0
C554 C 0.53094 0.25909 0.28463 0.0
C555 C 0.56785 0.28691 0.28797 0.0
C556 C 0.60934 0.27024 0.28762 0.0
C557 C 0.61359 0.22621 0.2835 0.0
C558 C 0.57545 0.1988 0.28027 0.0
H559 H 0.99328 0.31715 0.49625 0.0
H560 H 0.13385 0.32514 0.47656 0.0
H561 H 0.13584 0.24845 0.48729 0.0
H562 H 0.99545 0.24169 0.57669 0.0
H563 H 0.94455 0.21401 0.5608 0.0
H564 H 0.95361 0.26929 0.54992 0.0
H565 H 0.93824 0.25419 0.47257 0.0
H566 H 0.92885 0.19887 0.48314 0.0
H567 H 0.96924 0.21593 0.44633 0.0
H568 H 0.12275 0.1709 0.50063 0.0
H569 H 0.09559 0.09809 0.51626 0.0
H570 H 0.96403 0.14121 0.52892 0.0
C571 C 0.02443 0.30273 0.4937 0.0
C572 C 0.06335 0.32715 0.48526 0.0
C573 C 0.10354 0.3071 0.48279 0.0
C574 C 0.10506 0.26353 0.48885 0.0
C575 C 0.06617 0.24046 0.49743 0.0
C576 C 0.0266 0.25933 0.49989 0.0
C577 C 0.98975 0.22758 0.51063 0.0
C578 C 0.96969 0.23882 0.55197 0.0
C579 C 0.95446 0.22393 0.4761 0.0
C580 C 0.01482 0.18786 0.51368 0.0
C581 C 0.0588 0.19594 0.50587 0.0
C582 C 0.08842 0.16413 0.50673 0.0
C583 C 0.07267 0.12289 0.51563 0.0
C584 C 0.02774 0.11394 0.52387 0.0
C585 C 0.99862 0.14701 0.52294 0.0
H586 H 0.88003 0.76968 0.78181 0.0
H587 H 0.86766 0.83379 0.66538 0.0
H588 H 0.94754 0.82978 0.65536 0.0
H589 H 0.97856 0.82346 0.81314 0.0
H590 H 0.00073 0.77888 0.83849 0.0
H591 H 0.94223 0.78273 0.83412 0.0
H592 H 0.93424 0.70925 0.79827 0.0
H593 H 0.99275 0.70501 0.80285 0.0
H594 H 0.96559 0.69962 0.75321 0.0
H595 H 0.03027 0.82481 0.6619 0.0
H596 H 0.10774 0.81567 0.68261 0.0
H597 H 0.0641 0.75488 0.79458 0.0
C598 C 0.89387 0.78208 0.75374 0.0
C599 C 0.86764 0.80172 0.72418 0.0
C600 C 0.88721 0.8184 0.68832 0.0
C601 C 0.93247 0.81611 0.6823 0.0
C602 C 0.95758 0.79734 0.7126 0.0
C603 C 0.93884 0.7805 0.74753 0.0
C604 C 0.9731 0.76464 0.77685 0.0
C605 C 0.97368 0.78888 0.81806 0.0
C606 C 0.96599 0.71679 0.78314 0.0
C607 C 0.01417 0.77532 0.75314 0.0
C608 C 0.00476 0.79435 0.71623 0.0
C609 C 0.03794 0.80923 0.69038 0.0
C610 C 0.08181 0.80405 0.70244 0.0
C611 C 0.09192 0.78411 0.73995 0.0
C612 C 0.05749 0.76959 0.76539 0.0
H613 H 0.4829 0.66643 0.96056 0.0
H614 H 0.41603 0.65618 0.0767 0.0
H615 H 0.4142 0.7336 0.08046 0.0
H616 H 0.54987 0.76111 0.98629 0.0
H617 H 0.54549 0.78296 0.93558 0.0
H618 H 0.54218 0.7266 0.94215 0.0
H619 H 0.46686 0.72151 0.90325 0.0
H620 H 0.46987 0.7779 0.89678 0.0
H621 H 0.4231 0.7523 0.92106 0.0
H622 H 0.42007 0.81159 0.07244 0.0
H623 H 0.43254 0.88597 0.05267 0.0
H624 H 0.49457 0.84641 0.94106 0.0
C625 C 0.46794 0.6805 0.9868 0.0
C626 C 0.44953 0.65521 0.0183 0.0
C627 C 0.43017 0.67483 0.05209 0.0
C628 C 0.42919 0.71881 0.05467 0.0
C629 C 0.44725 0.74279 0.023 0.0
C630 C 0.46622 0.72446 0.98968 0.0
C631 C 0.48298 0.75766 0.95975 0.0
C632 C 0.53309 0.75704 0.95572 0.0
C633 C 0.45928 0.75199 0.91773 0.0
C634 C 0.4702 0.79744 0.98141 0.0
C635 C 0.44976 0.78805 0.0179 0.0
C636 C 0.43583 0.8194 0.04383 0.0
C637 C 0.44299 0.86159 0.03223 0.0
C638 C 0.46433 0.87216 0.99517 0.0
C639 C 0.47774 0.83946 0.96934 0.0
H640 H 0.56113 0.76765 0.19972 0.0
H641 H 0.60813 0.68973 0.29836 0.0
H642 H 0.53165 0.66748 0.31455 0.0
H643 H 0.46762 0.80319 0.25107 0.0
H644 H 0.43272 0.80156 0.20562 0.0
H645 H 0.4912 0.81072 0.20121 0.0
H646 H 0.49266 0.74716 0.15089 0.0
H647 H 0.43421 0.73762 0.15537 0.0
H648 H 0.47037 0.69605 0.16642 0.0
H649 H 0.45007 0.65315 0.31961 0.0
H650 H 0.36904 0.64935 0.31416 0.0
H651 H 0.3754 0.73762 0.21314 0.0
C652 C 0.55532 0.74582 0.22466 0.0
C653 C 0.59055 0.73022 0.24766 0.0
C654 C 0.58162 0.70181 0.28011 0.0
C655 C 0.5383 0.68907 0.28961 0.0
C656 C 0.50432 0.70482 0.26619 0.0
C657 C 0.5123 0.73256 0.23437 0.0
C658 C 0.46986 0.74517 0.21426 0.0
C659 C 0.46508 0.793 0.21831 0.0
C660 C 0.46663 0.73061 0.16906 0.0
C661 C 0.4368 0.72054 0.24005 0.0
C662 C 0.45734 0.6972 0.26962 0.0
C663 C 0.43361 0.67143 0.29667 0.0
C664 C 0.38763 0.66947 0.29337 0.0
C665 C 0.36591 0.69341 0.2635 0.0
C666 C 0.391 0.71927 0.23659 0.0
H667 H 0.48702 0.18519 0.46028 0.0
H668 H 0.59586 0.19675 0.54874 0.0
H669 H 0.59086 0.27408 0.54986 0.0
H670 H 0.51854 0.27611 0.40244 0.0
H671 H 0.46328 0.29134 0.39283 0.0
H672 H 0.47356 0.23669 0.40033 0.0
H673 H 0.41827 0.23218 0.45947 0.0
H674 H 0.40733 0.28676 0.45203 0.0
H675 H 0.42484 0.26905 0.50188 0.0
H676 H 0.57554 0.34997 0.54005 0.0
H677 H 0.55157 0.41971 0.51923 0.0
H678 H 0.45297 0.35867 0.43688 0.0
C679 C 0.50958 0.20391 0.48018 0.0
C680 C 0.54166 0.18488 0.50466 0.0
C681 C 0.57089 0.21058 0.52987 0.0
C682 C 0.56831 0.25453 0.53073 0.0
C683 C 0.53644 0.27224 0.50612 0.0
C684 C 0.50762 0.24779 0.48126 0.0
C685 C 0.47725 0.27483 0.45688 0.0
C686 C 0.48358 0.26943 0.41038 0.0
C687 C 0.42908 0.26512 0.46826 0.0
C688 C 0.49369 0.31832 0.47184 0.0
C689 C 0.52772 0.3161 0.50031 0.0
C690 C 0.5488 0.35215 0.51792 0.0
C691 C 0.53494 0.39161 0.50589 0.0
C692 C 0.50034 0.39467 0.4765 0.0
C693 C 0.47932 0.35742 0.4596 0.0
H694 H 0.12369 0.27076 0.75724 0.0
H695 H 0.13506 0.36955 0.85055 0.0
H696 H 0.05495 0.3613 0.86091 0.0
H697 H 0.02777 0.30172 0.71146 0.0
H698 H 0.00441 0.24929 0.70048 0.0
H699 H 0.06305 0.25888 0.70401 0.0
H700 H 0.06862 0.20208 0.76002 0.0
H701 H 0.01001 0.19138 0.75636 0.0
H702 H 0.03598 0.20504 0.80531 0.0
H703 H 0.97216 0.34621 0.85621 0.0
H704 H 0.89484 0.32568 0.83684 0.0
H705 H 0.93948 0.23694 0.74698 0.0
C706 C 0.10961 0.29015 0.78047 0.0
C707 C 0.13573 0.32062 0.80324 0.0
C708 C 0.11576 0.34576 0.83291 0.0
C709 C 0.07029 0.34122 0.83911 0.0
C710 C 0.0454 0.31129 0.81553 0.0
C711 C 0.06451 0.2861 0.78693 0.0
C712 C 0.03051 0.25835 0.76344 0.0
C713 C 0.03149 0.26764 0.71713 0.0
C714 C 0.03665 0.21144 0.7718 0.0
C715 C 0.98908 0.27259 0.78243 0.0
C716 C 0.99818 0.30284 0.8127 0.0
C717 C 0.96473 0.32213 0.83295 0.0
C718 C 0.92095 0.31039 0.82166 0.0
C719 C 0.91114 0.27952 0.79059 0.0
C720 C 0.94581 0.26025 0.77119 0.0
H721 H 0.07091 0.77577 0.01943 0.0
H722 H 0.93269 0.79839 0.00232 0.0
H723 H 0.91501 0.7217 0.99844 0.0
H724 H 0.07327 0.69053 0.9499 0.0
H725 H 0.11071 0.66121 0.98045 0.0
H726 H 0.11208 0.71776 0.98479 0.0
H727 H 0.10044 0.712 0.06357 0.0
H728 H 0.09972 0.65537 0.05893 0.0
H729 H 0.0544 0.68005 0.08193 0.0
H730 H 0.91283 0.64272 0.99149 0.0
H731 H 0.92654 0.5673 0.98251 0.0
H732 H 0.06586 0.59614 0.00537 0.0
C733 C 0.0369 0.76462 0.01536 0.0
C734 C 0.00325 0.79316 0.01124 0.0
C735 C 0.95911 0.77719 0.00568 0.0
C736 C 0.94865 0.73364 0.00348 0.0
C737 C 0.98265 0.70639 0.00723 0.0
C738 C 0.02584 0.72121 0.01328 0.0
C739 C 0.05634 0.68524 0.01486 0.0
C740 C 0.09007 0.68892 0.98045 0.0
C741 C 0.07907 0.68304 0.05735 0.0
C742 C 0.02369 0.64801 0.00762 0.0
C743 C 0.98131 0.66082 0.00363 0.0
C744 C 0.94583 0.63224 0.995 0.0
C745 C 0.95393 0.58946 0.98991 0.0
C746 C 0.99722 0.57573 0.99338 0.0
C747 C 0.03232 0.60549 0.00289 0.0
H748 H 0.21115 0.40465 0.31733 0.0
H749 H 0.2249 0.34367 0.19878 0.0
H750 H 0.22005 0.41235 0.16467 0.0
H751 H 0.13472 0.4821 0.28331 0.0
H752 H 0.15921 0.52441 0.31481 0.0
H753 H 0.16112 0.47062 0.33171 0.0
H754 H 0.24492 0.47817 0.3394 0.0
H755 H 0.24524 0.53217 0.32294 0.0
H756 H 0.2775 0.49528 0.29644 0.0
H757 H 0.21905 0.48778 0.14372 0.0
H758 H 0.22212 0.56528 0.13738 0.0
H759 H 0.20872 0.57764 0.26933 0.0
C760 C 0.21239 0.40559 0.28414 0.0
C761 C 0.21817 0.36868 0.2607 0.0
C762 C 0.22038 0.37146 0.21739 0.0
C763 C 0.21755 0.41032 0.1977 0.0
C764 C 0.21244 0.44615 0.22171 0.0
C765 C 0.20978 0.44419 0.26398 0.0
C766 C 0.20669 0.48779 0.28272 0.0
C767 C 0.16283 0.4914 0.30443 0.0
C768 C 0.24593 0.49896 0.31211 0.0
C769 C 0.20873 0.51455 0.24442 0.0
C770 C 0.21178 0.48985 0.20956 0.0
C771 C 0.21618 0.50745 0.17073 0.0
C772 C 0.21798 0.55152 0.16746 0.0
C773 C 0.21537 0.57752 0.20279 0.0
C774 C 0.21013 0.55862 0.24167 0.0
H775 H 0.77564 0.1092 0.71871 0.0
H776 H 0.71751 0.16019 0.82761 0.0
H777 H 0.69812 0.08776 0.85091 0.0
H778 H 0.69711 0.02129 0.70199 0.0
H779 H 0.73772 0.98594 0.68588 0.0
H780 H 0.7462 0.04179 0.67754 0.0
H781 H 0.82094 0.04198 0.71708 0.0
H782 H 0.81258 0.98616 0.72559 0.0
H783 H 0.8229 0.02173 0.76859 0.0
H784 H 0.68598 0.00976 0.86279 0.0
H785 H 0.68282 0.93188 0.86282 0.0
H786 H 0.74927 0.93215 0.74624 0.0
C787 C 0.75863 0.10522 0.74737 0.0
C788 C 0.74795 0.14041 0.77128 0.0
C789 C 0.72601 0.13373 0.80876 0.0
C790 C 0.71481 0.09272 0.82223 0.0
C791 C 0.7259 0.05876 0.79793 0.0
C792 C 0.74743 0.06456 0.76135 0.0
C793 C 0.75647 0.02274 0.74141 0.0
C794 C 0.73296 0.01765 0.69922 0.0
C795 C 0.80616 0.01788 0.73799 0.0
C796 C 0.73642 0.9925 0.77242 0.0
C797 C 0.71898 0.01388 0.8048 0.0
C798 C 0.69935 0.99267 0.83752 0.0
C799 C 0.69767 0.94841 0.83721 0.0
C800 C 0.71557 0.92586 0.80443 0.0
C801 C 0.73502 0.94839 0.77162 0.0
H802 H 0.33967 0.4916 0.9515 0.0
H803 H 0.33963 0.44611 0.07687 0.0
H804 H 0.26067 0.42533 0.0693 0.0
H805 H 0.23568 0.53617 0.95399 0.0
H806 H 0.22175 0.52201 0.90138 0.0
H807 H 0.27844 0.53061 0.91745 0.0
H808 H 0.29299 0.45481 0.88967 0.0
H809 H 0.23585 0.44762 0.87448 0.0
H810 H 0.26015 0.41028 0.90818 0.0
H811 H 0.18101 0.41315 0.04949 0.0
H812 H 0.10601 0.41193 0.0194 0.0
H813 H 0.15799 0.46526 0.90688 0.0
C814 C 0.32323 0.47678 0.97722 0.0
C815 C 0.34594 0.47034 0.01475 0.0
C816 C 0.32303 0.45122 0.04776 0.0
C817 C 0.27817 0.4392 0.04374 0.0
C818 C 0.25673 0.44627 0.00643 0.0
C819 C 0.27848 0.46454 0.97372 0.0
C820 C 0.24733 0.47061 0.93765 0.0
C821 C 0.24568 0.51763 0.92699 0.0
C822 C 0.25981 0.44427 0.90028 0.0
C823 C 0.20452 0.45356 0.95545 0.0
C824 C 0.21073 0.43936 0.99503 0.0
C825 C 0.17579 0.4238 0.01837 0.0
C826 C 0.1333 0.42324 0.00099 0.0
C827 C 0.12607 0.43837 0.96072 0.0
C828 C 0.16238 0.45313 0.93758 0.0
H829 H 0.68934 0.05188 0.31725 0.0
H830 H 0.82368 0.10114 0.30254 0.0
H831 H 0.84755 0.0286 0.29495 0.0
H832 H 0.71474 0.95585 0.37338 0.0
H833 H 0.67184 0.92388 0.3473 0.0
H834 H 0.66557 0.9794 0.35527 0.0
H835 H 0.65232 0.98889 0.27723 0.0
H836 H 0.65821 0.9334 0.26905 0.0
H837 H 0.69223 0.97157 0.24177 0.0
H838 H 0.85657 0.95177 0.28564 0.0
H839 H 0.84977 0.87514 0.27197 0.0
H840 H 0.70933 0.87511 0.29114 0.0
C841 C 0.72385 0.04726 0.31306 0.0
C842 C 0.75477 0.08201 0.31073 0.0
C843 C 0.79949 0.0749 0.30434 0.0
C844 C 0.8134 0.03384 0.30027 0.0
C845 C 0.78214 0.00025 0.30241 0.0
C846 C 0.73826 0.00641 0.30849 0.0
C847 C 0.71104 0.96489 0.30672 0.0
C848 C 0.68955 0.95548 0.34815 0.0
C849 C 0.67643 0.96469 0.27159 0.0
C850 C 0.74645 0.93461 0.29805 0.0
C851 C 0.78725 0.95568 0.2962 0.0
C852 C 0.82487 0.93482 0.28728 0.0
C853 C 0.82065 0.89127 0.27953 0.0
C854 C 0.77907 0.86905 0.28053 0.0
C855 C 0.74164 0.89109 0.29043 0.0
H856 H 0.81756 0.88193 0.0008 0.0
H857 H 0.87479 0.01037 0.00137 0.0
H858 H 0.80022 0.03727 0.00057 0.0
H859 H 0.72405 0.90021 0.93379 0.0
H860 H 0.68762 0.86435 0.96126 0.0
H861 H 0.74537 0.85579 0.95991 0.0
H862 H 0.74909 0.85489 0.03918 0.0
H863 H 0.69171 0.86467 0.04179 0.0
H864 H 0.73197 0.89968 0.06781 0.0
H865 H 0.71863 0.04971 0.99994 0.0
H866 H 0.63759 0.04664 0.00436 0.0
H867 H 0.63551 0.90985 0.00632 0.0
C868 C 0.81456 0.91574 0.00049 0.0
C869 C 0.85201 0.94407 0.00102 0.0
C870 C 0.84653 0.98809 0.00102 0.0
C871 C 0.80433 0.00364 1.00037 0.0
C872 C 0.7681 0.97473 0.9998 0.0
C873 C 0.77289 0.93171 1.00002 0.0
C874 C 0.72895 0.90718 0.0009 0.0
C875 C 0.72101 0.8803 0.96163 0.0
C876 C 0.72523 0.88 0.03971 0.0
C877 C 0.69859 0.94309 0.00201 0.0
C878 C 0.72161 0.98184 0.00065 0.0
C879 C 0.7003 0.01953 0.00107 0.0
C880 C 0.65431 0.01748 0.00348 0.0
C881 C 0.63035 0.97803 0.00595 0.0
C882 C 0.65294 0.9405 0.00482 0.0
H883 H 0.24245 0.62919 0.81139 0.0
H884 H 0.28083 0.6828 0.69442 0.0
H885 H 0.30047 0.61246 0.67046 0.0
H886 H 0.32881 0.55364 0.81674 0.0
H887 H 0.29373 0.51358 0.84016 0.0
H888 H 0.28509 0.56858 0.84917 0.0
H889 H 0.20433 0.5568 0.82346 0.0
H890 H 0.21254 0.50183 0.81466 0.0
H891 H 0.19279 0.53363 0.77335 0.0
H892 H 0.31222 0.53565 0.65795 0.0
H893 H 0.31418 0.45803 0.65746 0.0
H894 H 0.2681 0.45481 0.78269 0.0
C895 C 0.2553 0.62628 0.78084 0.0
C896 C 0.26007 0.66156 0.75477 0.0
C897 C 0.27695 0.65628 0.71499 0.0
C898 C 0.28826 0.61646 0.7011 0.0
C899 C 0.28275 0.5823 0.72745 0.0
C900 C 0.26681 0.58684 0.76652 0.0
C901 C 0.26297 0.54492 0.7884 0.0
C902 C 0.29453 0.54521 0.82585 0.0
C903 C 0.21532 0.53364 0.80066 0.0
C904 C 0.27755 0.51583 0.75493 0.0
C905 C 0.2895 0.53808 0.72025 0.0
C906 C 0.30322 0.51792 0.68503 0.0
C907 C 0.30424 0.47379 0.68507 0.0
C908 C 0.29128 0.45028 0.72 0.0
C909 C 0.27831 0.47182 0.7555 0.0
H910 H 0.16875 0.47396 0.47368 0.0
H911 H 0.12299 0.56535 0.38663 0.0
H912 H 0.19994 0.58891 0.37298 0.0
H913 H 0.26011 0.53681 0.51603 0.0
H914 H 0.29526 0.49324 0.52013 0.0
H915 H 0.23666 0.48398 0.52311 0.0
H916 H 0.23736 0.42972 0.46323 0.0
H917 H 0.29602 0.4387 0.46016 0.0
H918 H 0.26153 0.44533 0.4153 0.0
H919 H 0.28224 0.60253 0.36922 0.0
H920 H 0.36326 0.60428 0.37483 0.0
H921 H 0.35435 0.50311 0.4636 0.0
C922 C 0.17485 0.49913 0.45193 0.0
C923 C 0.13988 0.51807 0.43143 0.0
C924 C 0.14929 0.55049 0.40278 0.0
C925 C 0.19286 0.56412 0.39488 0.0
C926 C 0.22656 0.54472 0.41562 0.0
C927 C 0.21803 0.51277 0.44339 0.0
C928 C 0.26004 0.49645 0.46099 0.0
C929 C 0.26319 0.50304 0.50784 0.0
C930 C 0.26396 0.44979 0.4492 0.0
C931 C 0.29362 0.52468 0.43931 0.0
C932 C 0.27372 0.55222 0.41316 0.0
C933 C 0.29816 0.58116 0.38967 0.0
C934 C 0.34415 0.5819 0.39303 0.0
C935 C 0.36518 0.55396 0.4197 0.0
C936 C 0.33936 0.52506 0.44308 0.0
H937 H 0.70972 0.75508 0.91053 0.0
H938 H 0.84217 0.81325 0.91675 0.0
H939 H 0.84492 0.80213 0.99151 0.0
H940 H 0.6729 0.79887 0.00359 0.0
H941 H 0.64071 0.75222 0.01796 0.0
H942 H 0.64993 0.76302 0.96457 0.0
H943 H 0.682 0.68968 0.95597 0.0
H944 H 0.67304 0.67895 0.00946 0.0
H945 H 0.72708 0.67564 0.98885 0.0
H946 H 0.83239 0.78805 0.06568 0.0
H947 H 0.80584 0.77051 0.13475 0.0
H948 H 0.68157 0.72109 0.08097 0.0
C949 C 0.73944 0.76514 0.92756 0.0
C950 C 0.77576 0.78498 0.90769 0.0
C951 C 0.81392 0.79795 0.93118 0.0
C952 C 0.81586 0.79174 0.9737 0.0
C953 C 0.77936 0.77256 0.99237 0.0
C954 C 0.7419 0.7593 0.97013 0.0
C955 C 0.70699 0.74024 0.99795 0.0
C956 C 0.66518 0.76508 0.99588 0.0
C957 C 0.69669 0.69334 0.98743 0.0
C958 C 0.73042 0.74566 0.03937 0.0
C959 C 0.77221 0.76414 0.03535 0.0
C960 C 0.79987 0.77323 0.06924 0.0
C961 C 0.78443 0.76318 0.10837 0.0
C962 C 0.74168 0.74423 0.11337 0.0
C963 C 0.71451 0.73523 0.07824 0.0
H964 H 0.53855 0.56622 0.3211 0.0
H965 H 0.55414 0.43137 0.32791 0.0
H966 H 0.5556 0.42709 0.25233 0.0
H967 H 0.46801 0.56562 0.2349 0.0
H968 H 0.49276 0.61337 0.21371 0.0
H969 H 0.49583 0.6046 0.26817 0.0
H970 H 0.58282 0.61363 0.26615 0.0
H971 H 0.57627 0.62452 0.21211 0.0
H972 H 0.61061 0.58337 0.229 0.0
H973 H 0.54647 0.43604 0.17621 0.0
H974 H 0.53313 0.45871 0.1048 0.0
H975 H 0.52797 0.58826 0.14731 0.0
C976 C 0.54299 0.53593 0.30667 0.0
C977 C 0.54621 0.49914 0.33037 0.0
C978 C 0.55194 0.46006 0.31041 0.0
C979 C 0.55272 0.45726 0.26746 0.0
C980 C 0.5486 0.49397 0.24494 0.0
C981 C 0.54462 0.53269 0.26383 0.0
C982 C 0.53991 0.56718 0.23248 0.0
C983 C 0.49656 0.58897 0.2376 0.0
C984 C 0.57974 0.59911 0.23503 0.0
C985 C 0.53968 0.5415 0.19309 0.0
C986 C 0.54503 0.49936 0.20093 0.0
C987 C 0.5431 0.46907 0.16961 0.0
C988 C 0.53537 0.48219 0.12921 0.0
C989 C 0.53004 0.52524 0.12052 0.0
C990 C 0.53279 0.55524 0.15291 0.0
H991 H 0.71419 0.21924 0.46008 0.0
H992 H 0.83363 0.27597 0.40897 0.0
H993 H 0.85933 0.2988 0.47868 0.0
H994 H 0.69943 0.29855 0.53632 0.0
H995 H 0.67949 0.26136 0.57405 0.0
H996 H 0.67125 0.24951 0.52018 0.0
H997 H 0.70959 0.17944 0.5299 0.0
H998 H 0.71826 0.19127 0.58374 0.0
H999 H 0.76424 0.18057 0.55226 0.0
H1000 H 0.87116 0.3164 0.55423 0.0
H1001 H 0.8691 0.32582 0.62956 0.0
H1002 H 0.74203 0.25676 0.63046 0.0
C1003 C 0.74576 0.23649 0.46341 0.0
C1004 C 0.77183 0.24597 0.429 0.0
C1005 C 0.81302 0.26846 0.43485 0.0
C1006 C 0.82789 0.28156 0.47432 0.0
C1007 C 0.80118 0.27186 0.50754 0.0
C1008 C 0.76106 0.24971 0.50245 0.0
C1009 C 0.7386 0.24308 0.54306 0.0
C1010 C 0.69461 0.26442 0.54341 0.0
C1011 C 0.73233 0.19579 0.5528 0.0
C1012 C 0.77223 0.26526 0.57186 0.0
C1013 C 0.80809 0.28167 0.55084 0.0
C1014 C 0.84324 0.30369 0.571 0.0
C1015 C 0.84171 0.30896 0.61378 0.0
C1016 C 0.80538 0.29211 0.63594 0.0
C1017 C 0.77027 0.27003 0.61448 0.0
H1018 H 0.01695 0.39741 0.64127 0.0
H1019 H 0.98627 0.52194 0.59899 0.0
H1020 H 0.96808 0.54189 0.66983 0.0
H1021 H 0.9303 0.38742 0.71629 0.0
H1022 H 0.96353 0.3598 0.75219 0.0
H1023 H 0.97246 0.35505 0.69796 0.0
H1024 H 0.05445 0.37974 0.7102 0.0
H1025 H 0.04557 0.38506 0.76436 0.0
H1026 H 0.06798 0.4294 0.73606 0.0
H1027 H 0.95502 0.54878 0.74527 0.0
H1028 H 0.94933 0.54309 0.82031 0.0
H1029 H 0.98922 0.41408 0.81384 0.0
C1030 C 0.0063 0.42888 0.6468 0.0
C1031 C 0.00309 0.45815 0.61452 0.0
C1032 C 0.98896 0.49896 0.62317 0.0
C1033 C 0.9785 0.51056 0.6633 0.0
C1034 C 0.98214 0.48095 0.69437 0.0
C1035 C 0.99565 0.44095 0.68659 0.0
C1036 C 0.99737 0.41526 0.72552 0.0
C1037 C 0.96395 0.37711 0.72281 0.0
C1038 C 0.04412 0.40156 0.73454 0.0
C1039 C 0.9839 0.44746 0.75673 0.0
C1040 C 0.97474 0.48495 0.73796 0.0
C1041 C 0.96196 0.51955 0.76029 0.0
C1042 C 0.95882 0.51594 0.80298 0.0
C1043 C 0.96872 0.47808 0.82311 0.0
C1044 C 0.98117 0.44334 0.79945 0.0
H1045 H 0.83083 0.9793 0.56974 0.0
H1046 H 0.89654 0.99512 0.45345 0.0
H1047 H 0.82687 0.0138 0.42045 0.0
H1048 H 0.72708 0.93368 0.5267 0.0
H1049 H 0.69453 0.96029 0.56325 0.0
H1050 H 0.74925 0.94649 0.57736 0.0
H1051 H 0.76999 0.02454 0.59685 0.0
H1052 H 0.71543 0.03859 0.58264 0.0
H1053 H 0.76232 0.06511 0.55939 0.0
H1054 H 0.75186 0.03598 0.40137 0.0
H1055 H 0.67432 0.05386 0.39571 0.0
H1056 H 0.65669 0.02135 0.52375 0.0
C1057 C 0.83051 0.98622 0.53723 0.0
C1058 C 0.8692 0.98577 0.51421 0.0
C1059 C 0.86734 0.99514 0.47174 0.0
C1060 C 0.82795 0.00593 0.45271 0.0
C1061 C 0.79066 0.0069 0.4765 0.0
C1062 C 0.79142 0.99683 0.51769 0.0
C1063 C 0.74676 0.00067 0.53633 0.0
C1064 C 0.72832 0.95772 0.55181 0.0
C1065 C 0.74877 0.03423 0.57083 0.0
C1066 C 0.72091 0.01487 0.49923 0.0
C1067 C 0.74694 0.01851 0.46512 0.0
C1068 C 0.73093 0.03272 0.42767 0.0
C1069 C 0.68689 0.0429 0.42482 0.0
C1070 C 0.65933 0.03856 0.45915 0.0
C1071 C 0.67677 0.02447 0.49683 0.0
loop_
_geom_bond_atom_site_label_1
_geom_bond_atom_site_label_2
_geom_bond_distance
_geom_bond_site_symmetry_2
_ccdc_geom_bond_type
C0 O1 1.160 . S
C0 O7 1.185 . S
O1 C0 1.160 . S
O2 Zn3 1.899 . S
O2 C10 1.284 . S
Zn3 O2 1.899 . S
Zn3 O4 2.032 . S
Zn3 O7 2.086 . S
Zn3 O12 1.977 . S
O4 Zn3 2.032 . S
O4 C8 1.278 . S
C5 O6 1.203 . S
C5 O12 1.267 . S
O6 C5 1.203 . S
O7 C0 1.185 . S
O7 Zn3 2.086 . S
C8 O4 1.278 . S
C8 O9 1.211 . S
O9 C8 1.211 . S
C10 O2 1.284 . S
C10 O11 1.273 . S
O11 C10 1.273 . S
O12 Zn3 1.977 . S
O12 C5 1.267 . S
C13 O14 1.160 1_455 S
C13 O20 1.185 . S
O14 C13 1.160 1_655 S
O15 Zn16 1.899 . S
O15 C23 1.286 . S
Zn16 O15 1.899 . S
Zn16 O17 2.032 1_545 S
Zn16 O20 2.086 1_645 S
Zn16 O25 1.977 1_655 S
O17 Zn16 2.032 1_565 S
O17 C21 1.278 1_565 S
C18 O19 1.203 . S
C18 O25 1.267 1_655 S
O19 C18 1.203 . S
O20 C13 1.185 . S
O20 Zn16 2.086 1_465 S
C21 O17 1.278 1_545 S
C21 O22 1.211 . S
O22 C21 1.211 . S
C23 O15 1.286 . S
C23 O24 1.276 . S
O24 C23 1.276 . S
O25 Zn16 1.977 1_455 S
O25 C18 1.267 1_455 S
C26 O27 1.160 . S
C26 O33 1.185 . S
O27 C26 1.160 . S
O28 Zn29 1.899 . S
O28 C36 1.284 . S
Zn29 O28 1.899 . S
Zn29 O30 2.032 . S
Zn29 O33 2.086 . S
Zn29 O38 1.977 . S
O30 Zn29 2.032 . S
O30 C34 1.278 . S
C31 O32 1.203 . S
C31 O38 1.267 . S
O32 C31 1.203 . S
O33 C26 1.185 . S
O33 Zn29 2.086 . S
C34 O30 1.278 . S
C34 O35 1.211 . S
O35 C34 1.211 . S
C36 O28 1.284 . S
C36 O37 1.273 . S
O37 C36 1.273 . S
O38 Zn29 1.977 . S
O38 C31 1.267 . S
C39 O40 1.160 . S
C39 O46 1.185 . S
O40 C39 1.160 . S
O41 Zn42 1.899 1_556 S
O41 C49 1.284 1_556 S
Zn42 O41 1.899 1_554 S
Zn42 O43 2.032 1_565 S
Zn42 O46 2.086 1_564 S
Zn42 O51 1.977 . S
O43 Zn42 2.032 1_545 S
O43 C47 1.278 1_545 S
C44 O45 1.203 . S
C44 O51 1.267 . S
O45 C44 1.203 . S
O46 C39 1.185 . S
O46 Zn42 2.086 1_546 S
C47 O43 1.278 1_565 S
C47 O48 1.211 . S
O48 C47 1.211 . S
C49 O41 1.284 1_554 S
C49 O50 1.273 . S
O50 C49 1.273 . S
O51 Zn42 1.977 . S
O51 C44 1.267 . S
C52 O53 1.160 . S
C52 O59 1.185 . S
O53 C52 1.160 . S
O54 Zn55 1.899 . S
O54 C62 1.284 . S
Zn55 O54 1.899 . S
Zn55 O56 2.032 . S
Zn55 O59 2.086 . S
Zn55 O64 1.977 . S
O56 Zn55 2.032 . S
O56 C60 1.278 . S
C57 O58 1.203 . S
C57 O64 1.267 . S
O58 C57 1.203 . S
O59 C52 1.185 . S
O59 Zn55 2.086 . S
C60 O56 1.278 . S
C60 O61 1.211 . S
O61 C60 1.211 . S
C62 O54 1.284 . S
C62 O63 1.273 . S
O63 C62 1.273 . S
O64 Zn55 1.977 . S
O64 C57 1.267 . S
C65 O66 1.160 1_565 S
C65 O72 1.185 . S
O66 C65 1.160 1_545 S
O67 Zn68 1.899 . S
O67 C75 1.284 . S
Zn68 O67 1.899 . S
Zn68 O69 2.032 . S
Zn68 O72 2.086 1_545 S
Zn68 O77 1.977 1_545 S
O69 Zn68 2.032 . S
O69 C73 1.278 . S
C70 O71 1.203 . S
C70 O77 1.267 1_545 S
O71 C70 1.203 . S
O72 C65 1.185 . S
O72 Zn68 2.086 1_565 S
C73 O69 1.278 . S
C73 O74 1.211 . S
O74 C73 1.211 . S
C75 O67 1.284 . S
C75 O76 1.273 . S
O76 C75 1.273 . S
O77 Zn68 1.977 1_565 S
O77 C70 1.267 1_565 S
C78 O79 1.160 . S
C78 O85 1.185 . S
O79 C78 1.160 . S
O80 Zn81 1.899 . S
O80 C88 1.284 . S
Zn81 O80 1.899 . S
Zn81 O82 2.032 . S
Zn81 O85 2.086 . S
Zn81 O90 1.977 . S
O82 Zn81 2.032 . S
O82 C86 1.278 . S
C83 O84 1.203 . S
C83 O90 1.267 . S
O84 C83 1.203 . S
O85 C78 1.185 . S
O85 Zn81 2.086 . S
C86 O82 1.278 . S
C86 O87 1.211 . S
O87 C86 1.211 . S
C88 O80 1.284 . S
C88 O89 1.273 . S
O89 C88 1.273 . S
O90 Zn81 1.977 . S
O90 C83 1.267 . S
C91 O92 1.160 1_545 S
C91 O98 1.185 1_554 S
O92 C91 1.160 1_565 S
O93 Zn94 1.899 1_455 S
O93 C101 1.284 1_455 S
Zn94 O93 1.899 1_655 S
Zn94 O95 2.032 . S
Zn94 O98 2.086 1_665 S
Zn94 O103 1.977 1_565 S
O95 Zn94 2.032 . S
O95 C99 1.278 . S
C96 O97 1.203 . S
C96 O103 1.267 1_565 S
O97 C96 1.203 . S
O98 C91 1.185 1_556 S
O98 Zn94 2.086 1_445 S
C99 O95 1.278 . S
C99 O100 1.211 . S
O100 C99 1.211 . S
C101 O93 1.284 1_655 S
C101 O102 1.273 . S
O102 C101 1.273 . S
O103 Zn94 1.977 1_545 S
O103 C96 1.267 1_545 S
C104 O105 1.160 . S
C104 O111 1.185 . S
O105 C104 1.160 . S
O106 Zn107 1.899 . S
O106 C114 1.284 . S
Zn107 O106 1.899 . S
Zn107 O108 2.032 . S
Zn107 O111 2.086 . S
Zn107 O116 1.977 . S
O108 Zn107 2.032 . S
O108 C112 1.278 . S
C109 O110 1.203 . S
C109 O116 1.267 . S
O110 C109 1.203 . S
O111 C104 1.185 . S
O111 Zn107 2.086 . S
C112 O108 1.278 . S
C112 O113 1.211 . S
O113 C112 1.211 . S
C114 O106 1.284 . S
C114 O115 1.273 . S
O115 C114 1.273 . S
O116 Zn107 1.977 . S
O116 C109 1.267 . S
C117 O118 1.160 . S
C117 O124 1.185 1_554 S
O118 C117 1.160 . S
O119 Zn120 1.899 1_655 S
O119 C127 1.284 1_655 S
Zn120 O119 1.899 1_455 S
Zn120 O121 2.032 . S
Zn120 O124 2.086 1_455 S
Zn120 O129 1.977 1_455 S
O121 Zn120 2.032 . S
O121 C125 1.278 . S
C122 O123 1.203 . S
C122 O129 1.267 1_455 S
O123 C122 1.203 . S
O124 C117 1.185 1_556 S
O124 Zn120 2.086 1_655 S
C125 O121 1.278 . S
C125 O126 1.211 . S
O126 C125 1.211 . S
C127 O119 1.284 1_455 S
C127 O128 1.273 . S
O128 C127 1.273 . S
O129 Zn120 1.977 1_655 S
O129 C122 1.267 1_655 S
C130 O131 1.160 . S
C130 O137 1.185 . S
O131 C130 1.160 . S
O132 Zn133 1.899 . S
O132 C140 1.284 . S
Zn133 O132 1.899 . S
Zn133 O134 2.032 . S
Zn133 O137 2.086 . S
Zn133 O142 1.977 . S
O134 Zn133 2.032 . S
O134 C138 1.278 . S
C135 O136 1.203 . S
C135 O142 1.267 . S
O136 C135 1.203 . S
O137 C130 1.185 . S
O137 Zn133 2.086 . S
C138 O134 1.278 . S
C138 O139 1.211 . S
O139 C138 1.211 . S
C140 O132 1.284 . S
C140 O141 1.273 . S
O141 C140 1.273 . S
O142 Zn133 1.977 . S
O142 C135 1.267 . S
C143 O144 1.160 1_655 S
C143 O150 1.185 . S
O144 C143 1.160 1_455 S
O145 Zn146 1.899 . S
O145 C153 1.284 . S
Zn146 O145 1.899 . S
Zn146 O147 2.032 . S
Zn146 O150 2.086 1_455 S
Zn146 O155 1.977 1_455 S
O147 Zn146 2.032 . S
O147 C151 1.278 . S
C148 O149 1.203 . S
C148 O155 1.267 1_455 S
O149 C148 1.203 . S
O150 C143 1.185 . S
O150 Zn146 2.086 1_655 S
C151 O147 1.278 . S
C151 O152 1.211 . S
O152 C151 1.211 . S
C153 O145 1.284 . S
C153 O154 1.273 . S
O154 C153 1.273 . S
O155 Zn146 1.977 1_655 S
O155 C148 1.267 1_655 S
C156 O157 1.160 . S
C156 O163 1.185 . S
O157 C156 1.160 . S
O158 Zn159 1.899 1_556 S
O158 C166 1.284 1_556 S
Zn159 O158 1.899 1_554 S
Zn159 O160 2.032 . S
Zn159 O163 2.086 1_554 S
Zn159 O168 1.977 . S
O160 Zn159 2.032 . S
O160 C164 1.278 . S
C161 O162 1.203 . S
C161 O168 1.267 . S
O162 C161 1.203 . S
O163 C156 1.185 . S
O163 Zn159 2.086 1_556 S
C164 O160 1.278 . S
C164 O165 1.211 . S
O165 C164 1.211 . S
C166 O158 1.284 1_554 S
C166 O167 1.273 . S
O167 C166 1.273 . S
O168 Zn159 1.977 . S
O168 C161 1.267 . S
C169 O170 1.160 . S
C169 O176 1.185 . S
O170 C169 1.160 . S
O171 Zn172 1.899 . S
O171 C179 1.284 . S
Zn172 O171 1.899 . S
Zn172 O173 2.032 . S
Zn172 O176 2.086 . S
Zn172 O181 1.977 . S
O173 Zn172 2.032 . S
O173 C177 1.278 . S
C174 O175 1.203 . S
C174 O181 1.267 . S
O175 C174 1.203 . S
O176 C169 1.185 . S
O176 Zn172 2.086 . S
C177 O173 1.278 . S
C177 O178 1.211 . S
O178 C177 1.211 . S
C179 O171 1.284 . S
C179 O180 1.273 . S
O180 C179 1.273 . S
O181 Zn172 1.977 . S
O181 C174 1.267 . S
C182 O183 1.160 . S
C182 O189 1.185 . S
O183 C182 1.160 . S
O184 Zn185 1.899 . S
O184 C192 1.284 . S
Zn185 O184 1.899 . S
Zn185 O186 2.032 . S
Zn185 O189 2.086 . S
Zn185 O194 1.977 . S
O186 Zn185 2.032 . S
O186 C190 1.278 . S
C187 O188 1.203 . S
C187 O194 1.267 . S
O188 C187 1.203 . S
O189 C182 1.185 . S
O189 Zn185 2.086 . S
C190 O186 1.278 . S
C190 O191 1.211 . S
O191 C190 1.211 . S
C192 O184 1.284 . S
C192 O193 1.273 . S
O193 C192 1.273 . S
O194 Zn185 1.977 . S
O194 C187 1.267 . S
C195 O196 1.160 . S
C195 O202 1.185 . S
O196 C195 1.160 . S
O197 Zn198 1.899 . S
O197 C205 1.284 . S
Zn198 O197 1.899 . S
Zn198 O199 2.032 . S
Zn198 O202 2.086 . S
Zn198 O207 1.977 . S
O199 Zn198 2.032 . S
O199 C203 1.278 . S
C200 O201 1.203 . S
C200 O207 1.267 . S
O201 C200 1.203 . S
O202 C195 1.185 . S
O202 Zn198 2.086 . S
C203 O199 1.278 . S
C203 O204 1.211 . S
O204 C203 1.211 . S
C205 O197 1.284 . S
C205 O206 1.273 . S
O206 C205 1.273 . S
O207 Zn198 1.977 . S
O207 C200 1.267 . S
H208 C220 0.930 . S
H209 C222 0.930 . S
H210 C223 0.930 . S
H211 C227 0.959 . S
H212 C227 0.959 . S
H213 C227 0.961 . S
H214 C228 0.960 . S
H215 C228 0.961 . S
H216 C228 0.959 . S
H217 C231 0.929 . S
H218 C232 0.931 . S
H219 C234 0.930 . S
C220 H208 0.930 . S
C220 C221 1.399 . S
C220 C225 1.399 . S
C221 C220 1.399 . S
C221 C222 1.376 . S
C222 H209 0.930 . S
C222 C221 1.376 . S
C222 C223 1.388 . S
C223 H210 0.930 . S
C223 C222 1.388 . S
C223 C224 1.390 . S
C224 C223 1.390 . S
C224 C225 1.394 . S
C224 C230 1.465 . S
C225 C220 1.399 . S
C225 C224 1.394 . S
C225 C226 1.516 . S
C226 C225 1.516 . S
C226 C227 1.502 . S
C226 C228 1.561 . S
C226 C229 1.526 . S
C227 H211 0.959 . S
C227 H212 0.959 . S
C227 H213 0.961 . S
C227 C226 1.502 . S
C228 H214 0.960 . S
C228 H215 0.961 . S
C228 H216 0.959 . S
C228 C226 1.561 . S
C229 C226 1.526 . S
C229 C230 1.396 . S
C229 C234 1.390 . S
C230 C224 1.465 . S
C230 C229 1.396 . S
C230 C231 1.399 . S
C231 H217 0.929 . S
C231 C230 1.399 . S
C231 C232 1.385 . S
C232 H218 0.931 . S
C232 C231 1.385 . S
C232 C233 1.389 . S
C233 C232 1.389 . S
C233 C234 1.387 . S
C234 H219 0.930 . S
C234 C229 1.390 . S
C234 C233 1.387 . S
H235 C247 0.930 . S
H236 C249 0.930 . S
H237 C250 0.930 . S
H238 C254 0.959 . S
H239 C254 0.959 . S
H240 C254 0.961 . S
H241 C255 0.960 . S
H242 C255 0.961 . S
H243 C255 0.959 . S
H244 C258 0.929 . S
H245 C259 0.931 . S
H246 C261 0.930 . S
C247 H235 0.930 . S
C247 C248 1.399 . S
C247 C252 1.399 . S
C248 C247 1.399 . S
C248 C249 1.376 . S
C249 H236 0.930 . S
C249 C248 1.376 . S
C249 C250 1.388 . S
C250 H237 0.930 . S
C250 C249 1.388 . S
C250 C251 1.390 . S
C251 C250 1.390 . S
C251 C252 1.394 . S
C251 C257 1.465 . S
C252 C247 1.399 . S
C252 C251 1.394 . S
C252 C253 1.516 . S
C253 C252 1.516 . S
C253 C254 1.502 . S
C253 C255 1.561 . S
C253 C256 1.526 . S
C254 H238 0.959 . S
C254 H239 0.959 . S
C254 H240 0.961 . S
C254 C253 1.502 . S
C255 H241 0.960 . S
C255 H242 0.961 . S
C255 H243 0.959 . S
C255 C253 1.561 . S
C256 C253 1.526 . S
C256 C257 1.396 . S
C256 C261 1.390 . S
C257 C251 1.465 . S
C257 C256 1.396 . S
C257 C258 1.399 . S
C258 H244 0.929 . S
C258 C257 1.399 . S
C258 C259 1.385 . S
C259 H245 0.931 . S
C259 C258 1.385 . S
C259 C260 1.389 . S
C260 C259 1.389 . S
C260 C261 1.387 . S
C261 H246 0.930 . S
C261 C256 1.390 . S
C261 C260 1.387 . S
H262 C274 0.930 . S
H263 C276 0.930 . S
H264 C277 0.930 . S
H265 C281 0.959 . S
H266 C281 0.959 . S
H267 C281 0.961 . S
H268 C282 0.960 . S
H269 C282 0.961 . S
H270 C282 0.959 . S
H271 C285 0.929 . S
H272 C286 0.931 . S
H273 C288 0.930 . S
C274 H262 0.930 . S
C274 C275 1.399 . S
C274 C279 1.399 . S
C275 C274 1.399 . S
C275 C276 1.376 . S
C276 H263 0.930 . S
C276 C275 1.376 . S
C276 C277 1.388 . S
C277 H264 0.930 . S
C277 C276 1.388 . S
C277 C278 1.390 . S
C278 C277 1.390 . S
C278 C279 1.394 . S
C278 C284 1.465 . S
C279 C274 1.399 . S
C279 C278 1.394 . S
C279 C280 1.516 . S
C280 C279 1.516 . S
C280 C281 1.502 . S
C280 C282 1.561 . S
C280 C283 1.526 . S
C281 H265 0.959 . S
C281 H266 0.959 . S
C281 H267 0.961 . S
C281 C280 1.502 . S
C282 H268 0.960 . S
C282 H269 0.961 . S
C282 H270 0.959 . S
C282 C280 1.561 . S
C283 C280 1.526 . S
C283 C284 1.396 . S
C283 C288 1.390 . S
C284 C278 1.465 . S
C284 C283 1.396 . S
C284 C285 1.399 . S
C285 H271 0.929 . S
C285 C284 1.399 . S
C285 C286 1.385 . S
C286 H272 0.931 . S
C286 C285 1.385 . S
C286 C287 1.389 . S
C287 C286 1.389 . S
C287 C288 1.387 . S
C288 H273 0.930 . S
C288 C283 1.390 . S
C288 C287 1.387 . S
H289 C301 0.930 . S
H290 C303 0.930 . S
H291 C304 0.930 . S
H292 C308 0.959 . S
H293 C308 0.959 . S
H294 C308 0.961 . S
H295 C309 0.960 . S
H296 C309 0.961 . S
H297 C309 0.959 . S
H298 C312 0.929 . S
H299 C313 0.931 . S
H300 C315 0.930 . S
C301 H289 0.930 . S
C301 C302 1.399 . S
C301 C306 1.399 . S
C302 C301 1.399 . S
C302 C303 1.376 . S
C303 H290 0.930 . S
C303 C302 1.376 . S
C303 C304 1.388 . S
C304 H291 0.930 . S
C304 C303 1.388 . S
C304 C305 1.390 . S
C305 C304 1.390 . S
C305 C306 1.394 . S
C305 C311 1.465 . S
C306 C301 1.399 . S
C306 C305 1.394 . S
C306 C307 1.516 . S
C307 C306 1.516 . S
C307 C308 1.502 . S
C307 C309 1.561 . S
C307 C310 1.526 . S
C308 H292 0.959 . S
C308 H293 0.959 . S
C308 H294 0.961 . S
C308 C307 1.502 . S
C309 H295 0.960 . S
C309 H296 0.961 . S
C309 H297 0.959 . S
C309 C307 1.561 . S
C310 C307 1.526 . S
C310 C311 1.396 . S
C310 C315 1.390 . S
C311 C305 1.465 . S
C311 C310 1.396 . S
C311 C312 1.399 . S
C312 H298 0.929 . S
C312 C311 1.399 . S
C312 C313 1.385 . S
C313 H299 0.931 . S
C313 C312 1.385 . S
C313 C314 1.389 . S
C314 C313 1.389 . S
C314 C315 1.387 . S
C315 H300 0.930 . S
C315 C310 1.390 . S
C315 C314 1.387 . S
H316 C328 0.930 . S
H317 C330 0.930 . S
H318 C331 0.930 . S
H319 C335 0.959 . S
H320 C335 0.959 . S
H321 C335 0.961 . S
H322 C336 0.960 . S
H323 C336 0.961 . S
H324 C336 0.959 . S
H325 C339 0.929 . S
H326 C340 0.931 . S
H327 C342 0.930 . S
C328 H316 0.930 . S
C328 C329 1.399 . S
C328 C333 1.399 . S
C329 C328 1.399 . S
C329 C330 1.376 . S
C330 H317 0.930 . S
C330 C329 1.376 . S
C330 C331 1.388 . S
C331 H318 0.930 . S
C331 C330 1.388 . S
C331 C332 1.390 . S
C332 C331 1.390 . S
C332 C333 1.394 . S
C332 C338 1.465 . S
C333 C328 1.399 . S
C333 C332 1.394 . S
C333 C334 1.516 . S
C334 C333 1.516 . S
C334 C335 1.502 . S
C334 C336 1.561 . S
C334 C337 1.526 . S
C335 H319 0.959 . S
C335 H320 0.959 . S
C335 H321 0.961 . S
C335 C334 1.502 . S
C336 H322 0.960 . S
C336 H323 0.961 . S
C336 H324 0.959 . S
C336 C334 1.561 . S
C337 C334 1.526 . S
C337 C338 1.396 . S
C337 C342 1.390 . S
C338 C332 1.465 . S
C338 C337 1.396 . S
C338 C339 1.399 . S
C339 H325 0.929 . S
C339 C338 1.399 . S
C339 C340 1.385 . S
C340 H326 0.931 . S
C340 C339 1.385 . S
C340 C341 1.389 . S
C341 C340 1.389 . S
C341 C342 1.387 . S
C342 H327 0.930 . S
C342 C337 1.390 . S
C342 C341 1.387 . S
H343 C355 0.930 . S
H344 C357 0.930 . S
H345 C358 0.930 . S
H346 C362 0.959 . S
H347 C362 0.959 . S
H348 C362 0.961 . S
H349 C363 0.960 . S
H350 C363 0.961 . S
H351 C363 0.959 . S
H352 C366 0.929 . S
H353 C367 0.931 . S
H354 C369 0.930 . S
C355 H343 0.930 . S
C355 C356 1.399 . S
C355 C360 1.399 . S
C356 C355 1.399 . S
C356 C357 1.376 . S
C357 H344 0.930 . S
C357 C356 1.376 . S
C357 C358 1.388 . S
C358 H345 0.930 . S
C358 C357 1.388 . S
C358 C359 1.390 . S
C359 C358 1.390 . S
C359 C360 1.394 . S
C359 C365 1.465 . S
C360 C355 1.399 . S
C360 C359 1.394 . S
C360 C361 1.516 . S
C361 C360 1.516 . S
C361 C362 1.502 . S
C361 C363 1.561 . S
C361 C364 1.526 . S
C362 H346 0.959 . S
C362 H347 0.959 . S
C362 H348 0.961 . S
C362 C361 1.502 . S
C363 H349 0.960 . S
C363 H350 0.961 . S
C363 H351 0.959 . S
C363 C361 1.561 . S
C364 C361 1.526 . S
C364 C365 1.396 . S
C364 C369 1.390 . S
C365 C359 1.465 . S
C365 C364 1.396 . S
C365 C366 1.399 . S
C366 H352 0.929 . S
C366 C365 1.399 . S
C366 C367 1.385 . S
C367 H353 0.931 . S
C367 C366 1.385 . S
C367 C368 1.389 . S
C368 C367 1.389 . S
C368 C369 1.387 . S
C369 H354 0.930 . S
C369 C364 1.390 . S
C369 C368 1.387 . S
H370 C382 0.930 . S
H371 C384 0.930 . S
H372 C385 0.930 . S
H373 C389 0.959 . S
H374 C389 0.959 . S
H375 C389 0.961 . S
H376 C390 0.960 . S
H377 C390 0.961 . S
H378 C390 0.959 . S
H379 C393 0.929 . S
H380 C394 0.931 . S
H381 C396 0.930 . S
C382 H370 0.930 . S
C382 C383 1.399 . S
C382 C387 1.399 . S
C383 C382 1.399 . S
C383 C384 1.376 . S
C384 H371 0.930 . S
C384 C383 1.376 . S
C384 C385 1.388 . S
C385 H372 0.930 . S
C385 C384 1.388 . S
C385 C386 1.390 . S
C386 C385 1.390 . S
C386 C387 1.394 . S
C386 C392 1.465 . S
C387 C382 1.399 . S
C387 C386 1.394 . S
C387 C388 1.516 . S
C388 C387 1.516 . S
C388 C389 1.502 . S
C388 C390 1.561 . S
C388 C391 1.526 . S
C389 H373 0.959 . S
C389 H374 0.959 . S
C389 H375 0.961 . S
C389 C388 1.502 . S
C390 H376 0.960 . S
C390 H377 0.961 . S
C390 H378 0.959 . S
C390 C388 1.561 . S
C391 C388 1.526 . S
C391 C392 1.396 . S
C391 C396 1.390 . S
C392 C386 1.465 . S
C392 C391 1.396 . S
C392 C393 1.399 . S
C393 H379 0.929 . S
C393 C392 1.399 . S
C393 C394 1.385 . S
C394 H380 0.931 . S
C394 C393 1.385 . S
C394 C395 1.389 . S
C395 C394 1.389 . S
C395 C396 1.387 . S
C396 H381 0.930 . S
C396 C391 1.390 . S
C396 C395 1.387 . S
H397 C409 0.930 . S
H398 C411 0.930 . S
H399 C412 0.930 . S
H400 C416 0.959 . S
H401 C416 0.959 . S
H402 C416 0.961 . S
H403 C417 0.960 . S
H404 C417 0.961 . S
H405 C417 0.959 . S
H406 C420 0.929 . S
H407 C421 0.931 . S
H408 C423 0.930 . S
C409 H397 0.930 . S
C409 C410 1.399 . S
C409 C414 1.399 . S
C410 C409 1.399 . S
C410 C411 1.376 . S
C411 H398 0.930 . S
C411 C410 1.376 . S
C411 C412 1.388 . S
C412 H399 0.930 . S
C412 C411 1.388 . S
C412 C413 1.390 . S
C413 C412 1.390 . S
C413 C414 1.394 . S
C413 C419 1.465 . S
C414 C409 1.399 . S
C414 C413 1.394 . S
C414 C415 1.516 . S
C415 C414 1.516 . S
C415 C416 1.502 . S
C415 C417 1.561 . S
C415 C418 1.526 . S
C416 H400 0.959 . S
C416 H401 0.959 . S
C416 H402 0.961 . S
C416 C415 1.502 . S
C417 H403 0.960 . S
C417 H404 0.961 . S
C417 H405 0.959 . S
C417 C415 1.561 . S
C418 C415 1.526 . S
C418 C419 1.396 . S
C418 C423 1.390 . S
C419 C413 1.465 . S
C419 C418 1.396 . S
C419 C420 1.399 . S
C420 H406 0.929 . S
C420 C419 1.399 . S
C420 C421 1.385 . S
C421 H407 0.931 . S
C421 C420 1.385 . S
C421 C422 1.389 . S
C422 C421 1.389 . S
C422 C423 1.387 . S
C423 H408 0.930 . S
C423 C418 1.390 . S
C423 C422 1.387 . S
H424 C436 0.930 . S
H425 C438 0.930 . S
H426 C439 0.930 . S
H427 C443 0.959 . S
H428 C443 0.959 . S
H429 C443 0.961 . S
H430 C444 0.960 . S
H431 C444 0.961 . S
H432 C444 0.959 . S
H433 C447 0.929 . S
H434 C448 0.931 . S
H435 C450 0.930 . S
C436 H424 0.930 . S
C436 C437 1.399 . S
C436 C441 1.399 . S
C437 C436 1.399 . S
C437 C438 1.376 . S
C438 H425 0.930 . S
C438 C437 1.376 . S
C438 C439 1.388 . S
C439 H426 0.930 . S
C439 C438 1.388 . S
C439 C440 1.390 . S
C440 C439 1.390 . S
C440 C441 1.394 . S
C440 C446 1.465 . S
C441 C436 1.399 . S
C441 C440 1.394 . S
C441 C442 1.516 . S
C442 C441 1.516 . S
C442 C443 1.502 . S
C442 C444 1.561 . S
C442 C445 1.526 . S
C443 H427 0.959 . S
C443 H428 0.959 . S
C443 H429 0.961 . S
C443 C442 1.502 . S
C444 H430 0.960 . S
C444 H431 0.961 . S
C444 H432 0.959 . S
C444 C442 1.561 . S
C445 C442 1.526 . S
C445 C446 1.396 . S
C445 C450 1.390 . S
C446 C440 1.465 . S
C446 C445 1.396 . S
C446 C447 1.399 . S
C447 H433 0.929 . S
C447 C446 1.399 . S
C447 C448 1.385 . S
C448 H434 0.931 . S
C448 C447 1.385 . S
C448 C449 1.389 . S
C449 C448 1.389 . S
C449 C450 1.387 . S
C450 H435 0.930 . S
C450 C445 1.390 . S
C450 C449 1.387 . S
H451 C463 0.930 . S
H452 C465 0.930 . S
H453 C466 0.930 . S
H454 C470 0.959 . S
H455 C470 0.959 . S
H456 C470 0.961 . S
H457 C471 0.960 . S
H458 C471 0.961 . S
H459 C471 0.959 . S
H460 C474 0.929 . S
H461 C475 0.931 . S
H462 C477 0.934 . S
C463 H451 0.930 . S
C463 C464 1.399 1_455 S
C463 C468 1.399 1_455 S
C464 C463 1.399 1_655 S
C464 C465 1.376 1_565 S
C465 H452 0.930 . S
C465 C464 1.376 1_545 S
C465 C466 1.388 . S
C466 H453 0.930 . S
C466 C465 1.388 . S
C466 C467 1.390 . S
C467 C466 1.390 . S
C467 C468 1.394 1_545 S
C467 C473 1.465 . S
C468 C463 1.399 1_655 S
C468 C467 1.394 1_565 S
C468 C469 1.516 1_655 S
C469 C468 1.516 1_455 S
C469 C470 1.502 . S
C469 C471 1.561 1_455 S
C469 C472 1.526 1_455 S
C470 H454 0.959 . S
C470 H455 0.959 . S
C470 H456 0.961 . S
C470 C469 1.502 . S
C471 H457 0.960 . S
C471 H458 0.961 . S
C471 H459 0.959 . S
C471 C469 1.561 1_655 S
C472 C469 1.526 1_655 S
C472 C473 1.396 1_565 S
C472 C477 1.388 1_655 S
C473 C467 1.465 . S
C473 C472 1.396 1_545 S
C473 C474 1.399 . S
C474 H460 0.929 . S
C474 C473 1.399 . S
C474 C475 1.385 . S
C475 H461 0.931 . S
C475 C474 1.385 . S
C475 C476 1.389 1_545 S
C476 C475 1.389 1_565 S
C476 C477 1.384 1_655 S
C477 H462 0.934 . S
C477 C472 1.388 1_455 S
C477 C476 1.384 1_455 S
H478 C490 0.930 . S
H479 C492 0.930 . S
H480 C493 0.930 . S
H481 C497 0.959 . S
H482 C497 0.959 . S
H483 C497 0.961 1_556 S
H484 C498 0.960 1_556 S
H485 C498 0.961 . S
H486 C498 0.959 . S
H487 C501 0.929 . S
H488 C502 0.931 . S
H489 C504 0.930 . S
C490 H478 0.930 . S
C490 C491 1.399 . S
C490 C495 1.399 . S
C491 C490 1.399 . S
C491 C492 1.376 . S
C492 H479 0.930 . S
C492 C491 1.376 . S
C492 C493 1.388 . S
C493 H480 0.930 . S
C493 C492 1.388 . S
C493 C494 1.390 . S
C494 C493 1.390 . S
C494 C495 1.394 . S
C494 C500 1.465 1_556 S
C495 C490 1.399 . S
C495 C494 1.394 . S
C495 C496 1.516 1_556 S
C496 C495 1.516 1_554 S
C496 C497 1.502 . S
C496 C498 1.561 . S
C496 C499 1.526 . S
C497 H481 0.959 . S
C497 H482 0.959 . S
C497 H483 0.961 1_554 S
C497 C496 1.502 . S
C498 H484 0.960 1_554 S
C498 H485 0.961 . S
C498 H486 0.959 . S
C498 C496 1.561 . S
C499 C496 1.526 . S
C499 C500 1.396 . S
C499 C504 1.390 . S
C500 C494 1.465 1_554 S
C500 C499 1.396 . S
C500 C501 1.399 . S
C501 H487 0.929 . S
C501 C500 1.399 . S
C501 C502 1.385 . S
C502 H488 0.931 . S
C502 C501 1.385 . S
C502 C503 1.389 . S
C503 C502 1.389 . S
C503 C504 1.387 . S
C504 H489 0.930 . S
C504 C499 1.390 . S
C504 C503 1.387 . S
H505 C517 0.930 . S
H506 C519 0.930 . S
H507 C520 0.930 . S
H508 C524 0.959 . S
H509 C524 0.959 . S
H510 C524 0.961 . S
H511 C525 0.960 . S
H512 C525 0.961 . S
H513 C525 0.959 . S
H514 C528 0.929 . S
H515 C529 0.931 . S
H516 C531 0.930 . S
C517 H505 0.930 . S
C517 C518 1.399 1_565 S
C517 C522 1.399 . S
C518 C517 1.399 1_545 S
C518 C519 1.376 . S
C519 H506 0.930 . S
C519 C518 1.376 . S
C519 C520 1.388 . S
C520 H507 0.930 . S
C520 C519 1.388 . S
C520 C521 1.390 . S
C521 C520 1.390 . S
C521 C522 1.394 1_545 S
C521 C527 1.465 . S
C522 C517 1.399 . S
C522 C521 1.394 1_565 S
C522 C523 1.516 . S
C523 C522 1.516 . S
C523 C524 1.502 . S
C523 C525 1.561 . S
C523 C526 1.526 . S
C524 H508 0.959 . S
C524 H509 0.959 . S
C524 H510 0.961 . S
C524 C523 1.502 . S
C525 H511 0.960 . S
C525 H512 0.961 . S
C525 H513 0.959 . S
C525 C523 1.561 . S
C526 C523 1.526 . S
C526 C527 1.396 1_565 S
C526 C531 1.390 . S
C527 C521 1.465 . S
C527 C526 1.396 1_545 S
C527 C528 1.399 . S
C528 H514 0.929 . S
C528 C527 1.399 . S
C528 C529 1.385 . S
C529 H515 0.931 . S
C529 C528 1.385 . S
C529 C530 1.389 . S
C530 C529 1.389 . S
C530 C531 1.387 1_545 S
C531 H516 0.930 . S
C531 C526 1.390 . S
C531 C530 1.387 1_565 S
H532 C544 0.930 . S
H533 C546 0.930 . S
H534 C547 0.930 . S
H535 C551 0.959 . S
H536 C551 0.959 . S
H537 C551 0.961 . S
H538 C552 0.960 . S
H539 C552 0.961 . S
H540 C552 0.959 . S
H541 C555 0.929 . S
H542 C556 0.931 . S
H543 C558 0.930 . S
C544 H532 0.930 . S
C544 C545 1.399 . S
C544 C549 1.399 . S
C545 C544 1.399 . S
C545 C546 1.376 . S
C546 H533 0.930 . S
C546 C545 1.376 . S
C546 C547 1.388 . S
C547 H534 0.930 . S
C547 C546 1.388 . S
C547 C548 1.390 . S
C548 C547 1.390 . S
C548 C549 1.394 . S
C548 C554 1.465 . S
C549 C544 1.399 . S
C549 C548 1.394 . S
C549 C550 1.516 . S
C550 C549 1.516 . S
C550 C551 1.502 . S
C550 C552 1.561 . S
C550 C553 1.526 . S
C551 H535 0.959 . S
C551 H536 0.959 . S
C551 H537 0.961 . S
C551 C550 1.502 . S
C552 H538 0.960 . S
C552 H539 0.961 . S
C552 H540 0.959 . S
C552 C550 1.561 . S
C553 C550 1.526 . S
C553 C554 1.396 . S
C553 C558 1.390 . S
C554 C548 1.465 . S
C554 C553 1.396 . S
C554 C555 1.399 . S
C555 H541 0.929 . S
C555 C554 1.399 . S
C555 C556 1.385 . S
C556 H542 0.931 . S
C556 C555 1.385 . S
C556 C557 1.389 . S
C557 C556 1.389 . S
C557 C558 1.387 . S
C558 H543 0.930 . S
C558 C553 1.390 . S
C558 C557 1.387 . S
H559 C571 0.930 . S
H560 C573 0.930 . S
H561 C574 0.930 . S
H562 C578 0.959 . S
H563 C578 0.959 . S
H564 C578 0.961 . S
H565 C579 0.960 . S
H566 C579 0.961 . S
H567 C579 0.959 . S
H568 C582 0.929 . S
H569 C583 0.931 . S
H570 C585 0.930 . S
C571 H559 0.930 . S
C571 C572 1.399 . S
C571 C576 1.399 . S
C572 C571 1.399 . S
C572 C573 1.376 1_655 S
C573 H560 0.930 . S
C573 C572 1.376 1_455 S
C573 C574 1.388 . S
C574 H561 0.930 . S
C574 C573 1.388 . S
C574 C575 1.390 . S
C575 C574 1.390 . S
C575 C576 1.394 1_455 S
C575 C581 1.465 . S
C576 C571 1.399 . S
C576 C575 1.394 1_655 S
C576 C577 1.516 . S
C577 C576 1.516 . S
C577 C578 1.502 . S
C577 C579 1.561 1_655 S
C577 C580 1.526 . S
C578 H562 0.959 . S
C578 H563 0.959 . S
C578 H564 0.961 . S
C578 C577 1.502 . S
C579 H565 0.960 . S
C579 H566 0.961 . S
C579 H567 0.959 . S
C579 C577 1.561 1_455 S
C580 C577 1.526 . S
C580 C581 1.396 1_655 S
C580 C585 1.390 . S
C581 C575 1.465 . S
C581 C580 1.396 1_455 S
C581 C582 1.399 . S
C582 H568 0.929 . S
C582 C581 1.399 . S
C582 C583 1.385 . S
C583 H569 0.931 . S
C583 C582 1.385 . S
C583 C584 1.391 . S
C584 C583 1.391 . S
C584 C585 1.386 1_455 S
C585 H570 0.930 . S
C585 C580 1.390 . S
C585 C584 1.386 1_655 S
H586 C598 0.930 . S
H587 C600 0.930 . S
H588 C601 0.930 . S
H589 C605 0.957 1_455 S
H590 C605 0.941 1_455 S
H591 C605 0.981 . S
H592 C606 0.960 . S
H593 C606 0.961 1_455 S
H594 C606 0.959 . S
H595 C609 0.929 . S
H596 C610 0.931 . S
H597 C612 0.930 . S
C598 H586 0.930 . S
C598 C599 1.399 . S
C598 C603 1.399 . S
C599 C598 1.399 . S
C599 C600 1.376 . S
C600 H587 0.930 . S
C600 C599 1.376 . S
C600 C601 1.388 . S
C601 H588 0.930 . S
C601 C600 1.388 . S
C601 C602 1.390 . S
C602 C601 1.390 . S
C602 C603 1.394 . S
C602 C608 1.465 1_655 S
C603 C598 1.399 . S
C603 C602 1.394 . S
C603 C604 1.516 . S
C604 C603 1.516 . S
C604 C605 1.503 . S
C604 C606 1.561 . S
C604 C607 1.526 1_655 S
C605 H589 0.957 1_655 S
C605 H590 0.941 1_655 S
C605 H591 0.981 . S
C605 C604 1.503 . S
C606 H592 0.960 . S
C606 H593 0.961 1_655 S
C606 H594 0.959 . S
C606 C604 1.561 . S
C607 C604 1.526 1_455 S
C607 C608 1.396 . S
C607 C612 1.390 . S
C608 C602 1.465 1_455 S
C608 C607 1.396 . S
C608 C609 1.399 . S
C609 H595 0.929 . S
C609 C608 1.399 . S
C609 C610 1.385 . S
C610 H596 0.931 . S
C610 C609 1.385 . S
C610 C611 1.389 . S
C611 C610 1.389 . S
C611 C612 1.387 . S
C612 H597 0.930 . S
C612 C607 1.390 . S
C612 C611 1.387 . S
H613 C625 0.930 . S
H614 C627 0.930 . S
H615 C628 0.930 . S
H616 C632 0.959 . S
H617 C632 0.959 . S
H618 C632 0.961 . S
H619 C633 0.960 . S
H620 C633 0.961 . S
H621 C633 0.959 . S
H622 C636 0.929 . S
H623 C637 0.931 . S
H624 C639 0.930 . S
C625 H613 0.930 . S
C625 C626 1.399 1_556 S
C625 C630 1.399 . S
C626 C625 1.399 1_554 S
C626 C627 1.376 . S
C627 H614 0.930 . S
C627 C626 1.376 . S
C627 C628 1.388 . S
C628 H615 0.930 . S
C628 C627 1.388 . S
C628 C629 1.390 . S
C629 C628 1.390 . S
C629 C630 1.394 1_554 S
C629 C635 1.465 . S
C630 C625 1.399 . S
C630 C629 1.394 1_556 S
C630 C631 1.516 . S
C631 C630 1.516 . S
C631 C632 1.502 . S
C631 C633 1.561 . S
C631 C634 1.526 . S
C632 H616 0.959 . S
C632 H617 0.959 . S
C632 H618 0.961 . S
C632 C631 1.502 . S
C633 H619 0.960 . S
C633 H620 0.961 . S
C633 H621 0.959 . S
C633 C631 1.561 . S
C634 C631 1.526 . S
C634 C635 1.396 1_556 S
C634 C639 1.390 . S
C635 C629 1.465 . S
C635 C634 1.396 1_554 S
C635 C636 1.399 . S
C636 H622 0.929 . S
C636 C635 1.399 . S
C636 C637 1.385 . S
C637 H623 0.931 . S
C637 C636 1.385 . S
C637 C638 1.389 . S
C638 C637 1.389 . S
C638 C639 1.387 1_554 S
C639 H624 0.930 . S
C639 C634 1.390 . S
C639 C638 1.387 1_556 S
H640 C652 0.930 . S
H641 C654 0.930 . S
H642 C655 0.930 . S
H643 C659 0.959 . S
H644 C659 0.959 . S
H645 C659 0.961 . S
H646 C660 0.960 . S
H647 C660 0.961 . S
H648 C660 0.959 . S
H649 C663 0.929 . S
H650 C664 0.931 . S
H651 C666 0.930 . S
C652 H640 0.930 . S
C652 C653 1.399 . S
C652 C657 1.399 . S
C653 C652 1.399 . S
C653 C654 1.376 . S
C654 H641 0.930 . S
C654 C653 1.376 . S
C654 C655 1.388 . S
C655 H642 0.930 . S
C655 C654 1.388 . S
C655 C656 1.390 . S
C656 C655 1.390 . S
C656 C657 1.394 . S
C656 C662 1.465 . S
C657 C652 1.399 . S
C657 C656 1.394 . S
C657 C658 1.516 . S
C658 C657 1.516 . S
C658 C659 1.502 . S
C658 C660 1.561 . S
C658 C661 1.526 . S
C659 H643 0.959 . S
C659 H644 0.959 . S
C659 H645 0.961 . S
C659 C658 1.502 . S
C660 H646 0.960 . S
C660 H647 0.961 . S
C660 H648 0.959 . S
C660 C658 1.561 . S
C661 C658 1.526 . S
C661 C662 1.396 . S
C661 C666 1.390 . S
C662 C656 1.465 . S
C662 C661 1.396 . S
C662 C663 1.399 . S
C663 H649 0.929 . S
C663 C662 1.399 . S
C663 C664 1.385 . S
C664 H650 0.931 . S
C664 C663 1.385 . S
C664 C665 1.389 . S
C665 C664 1.389 . S
C665 C666 1.387 . S
C666 H651 0.930 . S
C666 C661 1.390 . S
C666 C665 1.387 . S
H667 C679 0.930 . S
H668 C681 0.930 . S
H669 C682 0.930 . S
H670 C686 0.959 . S
H671 C686 0.959 . S
H672 C686 0.961 . S
H673 C687 0.960 . S
H674 C687 0.961 . S
H675 C687 0.959 . S
H676 C690 0.929 . S
H677 C691 0.931 . S
H678 C693 0.930 . S
C679 H667 0.930 . S
C679 C680 1.399 . S
C679 C684 1.399 . S
C680 C679 1.399 . S
C680 C681 1.376 . S
C681 H668 0.930 . S
C681 C680 1.376 . S
C681 C682 1.388 . S
C682 H669 0.930 . S
C682 C681 1.388 . S
C682 C683 1.390 . S
C683 C682 1.390 . S
C683 C684 1.394 . S
C683 C689 1.465 . S
C684 C679 1.399 . S
C684 C683 1.394 . S
C684 C685 1.516 . S
C685 C684 1.516 . S
C685 C686 1.502 . S
C685 C687 1.561 . S
C685 C688 1.526 . S
C686 H670 0.959 . S
C686 H671 0.959 . S
C686 H672 0.961 . S
C686 C685 1.502 . S
C687 H673 0.960 . S
C687 H674 0.961 . S
C687 H675 0.959 . S
C687 C685 1.561 . S
C688 C685 1.526 . S
C688 C689 1.396 . S
C688 C693 1.390 . S
C689 C683 1.465 . S
C689 C688 1.396 . S
C689 C690 1.399 . S
C690 H676 0.929 . S
C690 C689 1.399 . S
C690 C691 1.385 . S
C691 H677 0.931 . S
C691 C690 1.385 . S
C691 C692 1.389 . S
C692 C691 1.389 . S
C692 C693 1.387 . S
C693 H678 0.930 . S
C693 C688 1.390 . S
C693 C692 1.387 . S
H694 C706 0.930 . S
H695 C708 0.930 . S
H696 C709 0.930 . S
H697 C713 0.960 . S
H698 C713 0.959 1_655 S
H699 C713 0.961 . S
H700 C714 0.960 . S
H701 C714 0.961 1_655 S
H702 C714 0.959 . S
H703 C717 0.929 . S
H704 C718 0.931 . S
H705 C720 0.930 . S
C706 H694 0.930 . S
C706 C707 1.399 . S
C706 C711 1.399 . S
C707 C706 1.399 . S
C707 C708 1.376 . S
C708 H695 0.930 . S
C708 C707 1.376 . S
C708 C709 1.388 . S
C709 H696 0.930 . S
C709 C708 1.388 . S
C709 C710 1.390 . S
C710 C709 1.390 . S
C710 C711 1.394 . S
C710 C716 1.465 1_455 S
C711 C706 1.399 . S
C711 C710 1.394 . S
C711 C712 1.516 . S
C712 C711 1.516 . S
C712 C713 1.502 . S
C712 C714 1.561 . S
C712 C715 1.526 1_455 S
C713 H697 0.960 . S
C713 H698 0.959 1_455 S
C713 H699 0.961 . S
C713 C712 1.502 . S
C714 H700 0.960 . S
C714 H701 0.961 1_455 S
C714 H702 0.959 . S
C714 C712 1.561 . S
C715 C712 1.526 1_655 S
C715 C716 1.396 . S
C715 C720 1.390 . S
C716 C710 1.465 1_655 S
C716 C715 1.396 . S
C716 C717 1.399 . S
C717 H703 0.929 . S
C717 C716 1.399 . S
C717 C718 1.385 . S
C718 H704 0.931 . S
C718 C717 1.385 . S
C718 C719 1.389 . S
C719 C718 1.389 . S
C719 C720 1.387 . S
C720 H705 0.930 . S
C720 C715 1.390 . S
C720 C719 1.387 . S
H721 C733 0.930 1_554 S
H722 C735 0.930 . S
H723 C736 0.930 . S
H724 C740 0.959 . S
H725 C740 0.959 . S
H726 C740 0.961 . S
H727 C741 0.960 . S
H728 C741 0.961 . S
H729 C741 0.959 . S
H730 C744 0.929 . S
H731 C745 0.931 . S
H732 C747 0.930 1_554 S
C733 H721 0.930 1_556 S
C733 C734 1.399 . S
C733 C738 1.399 . S
C734 C733 1.399 . S
C734 C735 1.376 1_455 S
C735 H722 0.930 . S
C735 C734 1.376 1_655 S
C735 C736 1.388 . S
C736 H723 0.930 . S
C736 C735 1.388 . S
C736 C737 1.390 . S
C737 C736 1.390 . S
C737 C738 1.394 1_655 S
C737 C743 1.465 . S
C738 C733 1.399 . S
C738 C737 1.394 1_455 S
C738 C739 1.516 1_556 S
C739 C738 1.516 1_554 S
C739 C740 1.502 . S
C739 C741 1.561 1_455 S
C739 C742 1.526 1_554 S
C740 H724 0.959 . S
C740 H725 0.959 . S
C740 H726 0.961 . S
C740 C739 1.502 . S
C741 H727 0.960 . S
C741 H728 0.961 . S
C741 H729 0.959 . S
C741 C739 1.561 1_655 S
C742 C739 1.526 1_556 S
C742 C743 1.396 1_455 S
C742 C747 1.390 . S
C743 C737 1.465 . S
C743 C742 1.396 1_655 S
C743 C744 1.399 . S
C744 H730 0.929 . S
C744 C743 1.399 . S
C744 C745 1.385 . S
C745 H731 0.931 . S
C745 C744 1.385 . S
C745 C746 1.389 . S
C746 C745 1.389 . S
C746 C747 1.387 1_655 S
C747 H732 0.930 1_556 S
C747 C742 1.390 . S
C747 C746 1.387 1_455 S
H748 C760 0.930 . S
H749 C762 0.930 . S
H750 C763 0.930 . S
H751 C767 0.959 . S
H752 C767 0.959 . S
H753 C767 0.961 . S
H754 C768 0.960 . S
H755 C768 0.961 . S
H756 C768 0.959 . S
H757 C771 0.929 . S
H758 C772 0.931 . S
H759 C774 0.930 . S
C760 H748 0.930 . S
C760 C761 1.399 . S
C760 C765 1.399 . S
C761 C760 1.399 . S
C761 C762 1.376 . S
C762 H749 0.930 . S
C762 C761 1.376 . S
C762 C763 1.388 . S
C763 H750 0.930 . S
C763 C762 1.388 . S
C763 C764 1.390 . S
C764 C763 1.390 . S
C764 C765 1.394 . S
C764 C770 1.465 . S
C765 C760 1.399 . S
C765 C764 1.394 . S
C765 C766 1.516 . S
C766 C765 1.516 . S
C766 C767 1.502 . S
C766 C768 1.561 . S
C766 C769 1.526 . S
C767 H751 0.959 . S
C767 H752 0.959 . S
C767 H753 0.961 . S
C767 C766 1.502 . S
C768 H754 0.960 . S
C768 H755 0.961 . S
C768 H756 0.959 . S
C768 C766 1.561 . S
C769 C766 1.526 . S
C769 C770 1.396 . S
C769 C774 1.390 . S
C770 C764 1.465 . S
C770 C769 1.396 . S
C770 C771 1.399 . S
C771 H757 0.929 . S
C771 C770 1.399 . S
C771 C772 1.385 . S
C772 H758 0.931 . S
C772 C771 1.385 . S
C772 C773 1.389 . S
C773 C772 1.389 . S
C773 C774 1.387 . S
C774 H759 0.930 . S
C774 C769 1.390 . S
C774 C773 1.387 . S
H775 C787 0.930 . S
H776 C789 0.930 . S
H777 C790 0.930 . S
H778 C794 0.959 . S
H779 C794 0.959 . S
H780 C794 0.961 1_545 S
H781 C795 0.960 1_545 S
H782 C795 0.961 . S
H783 C795 0.959 . S
H784 C798 0.929 . S
H785 C799 0.931 . S
H786 C801 0.930 . S
C787 H775 0.930 . S
C787 C788 1.399 . S
C787 C792 1.399 . S
C788 C787 1.399 . S
C788 C789 1.376 . S
C789 H776 0.930 . S
C789 C788 1.376 . S
C789 C790 1.388 . S
C790 H777 0.930 . S
C790 C789 1.388 . S
C790 C791 1.390 . S
C791 C790 1.390 . S
C791 C792 1.394 . S
C791 C797 1.465 1_545 S
C792 C787 1.399 . S
C792 C791 1.394 . S
C792 C793 1.516 1_545 S
C793 C792 1.516 1_565 S
C793 C794 1.502 . S
C793 C795 1.561 . S
C793 C796 1.526 . S
C794 H778 0.959 . S
C794 H779 0.959 . S
C794 H780 0.961 1_565 S
C794 C793 1.502 . S
C795 H781 0.960 1_565 S
C795 H782 0.961 . S
C795 H783 0.959 . S
C795 C793 1.561 . S
C796 C793 1.526 . S
C796 C797 1.396 . S
C796 C801 1.390 . S
C797 C791 1.465 1_565 S
C797 C796 1.396 . S
C797 C798 1.399 . S
C798 H784 0.929 . S
C798 C797 1.399 . S
C798 C799 1.385 . S
C799 H785 0.931 . S
C799 C798 1.385 . S
C799 C800 1.389 . S
C800 C799 1.389 . S
C800 C801 1.387 . S
C801 H786 0.930 . S
C801 C796 1.390 . S
C801 C800 1.387 . S
H802 C814 0.930 . S
H803 C816 0.930 . S
H804 C817 0.930 . S
H805 C821 0.959 . S
H806 C821 0.959 . S
H807 C821 0.961 . S
H808 C822 0.960 . S
H809 C822 0.961 . S
H810 C822 0.959 . S
H811 C825 0.929 . S
H812 C826 0.931 . S
H813 C828 0.930 . S
C814 H802 0.930 . S
C814 C815 1.400 . S
C814 C819 1.399 . S
C815 C814 1.400 . S
C815 C816 1.376 1_556 S
C816 H803 0.930 . S
C816 C815 1.376 1_554 S
C816 C817 1.388 . S
C817 H804 0.930 . S
C817 C816 1.388 . S
C817 C818 1.390 . S
C818 C817 1.390 . S
C818 C819 1.394 1_554 S
C818 C824 1.465 . S
C819 C814 1.399 . S
C819 C818 1.394 1_556 S
C819 C820 1.516 . S
C820 C819 1.516 . S
C820 C821 1.502 . S
C820 C822 1.561 . S
C820 C823 1.526 . S
C821 H805 0.959 . S
C821 H806 0.959 . S
C821 H807 0.961 . S
C821 C820 1.502 . S
C822 H808 0.960 . S
C822 H809 0.961 . S
C822 H810 0.959 . S
C822 C820 1.561 . S
C823 C820 1.526 . S
C823 C824 1.396 1_556 S
C823 C828 1.390 . S
C824 C818 1.465 . S
C824 C823 1.396 1_554 S
C824 C825 1.399 . S
C825 H811 0.929 . S
C825 C824 1.399 . S
C825 C826 1.385 . S
C826 H812 0.931 . S
C826 C825 1.385 . S
C826 C827 1.389 1_554 S
C827 C826 1.389 1_556 S
C827 C828 1.387 . S
C828 H813 0.930 . S
C828 C823 1.390 . S
C828 C827 1.387 . S
H829 C841 0.930 . S
H830 C843 0.930 . S
H831 C844 0.930 . S
H832 C848 0.959 . S
H833 C848 0.959 1_565 S
H834 C848 0.961 . S
H835 C849 0.960 . S
H836 C849 0.961 1_565 S
H837 C849 0.959 . S
H838 C852 0.929 . S
H839 C853 0.931 . S
H840 C855 0.930 . S
C841 H829 0.930 . S
C841 C842 1.399 . S
C841 C846 1.399 . S
C842 C841 1.399 . S
C842 C843 1.376 . S
C843 H830 0.930 . S
C843 C842 1.376 . S
C843 C844 1.388 . S
C844 H831 0.930 . S
C844 C843 1.388 . S
C844 C845 1.390 . S
C845 C844 1.390 . S
C845 C846 1.394 . S
C845 C851 1.465 1_545 S
C846 C841 1.399 . S
C846 C845 1.394 . S
C846 C847 1.516 . S
C847 C846 1.516 . S
C847 C848 1.502 . S
C847 C849 1.561 . S
C847 C850 1.526 1_545 S
C848 H832 0.959 . S
C848 H833 0.959 1_545 S
C848 H834 0.961 . S
C848 C847 1.502 . S
C849 H835 0.960 . S
C849 H836 0.961 1_545 S
C849 H837 0.959 . S
C849 C847 1.561 . S
C850 C847 1.526 1_565 S
C850 C851 1.396 . S
C850 C855 1.390 . S
C851 C845 1.465 1_565 S
C851 C850 1.396 . S
C851 C852 1.399 . S
C852 H838 0.929 . S
C852 C851 1.399 . S
C852 C853 1.385 . S
C853 H839 0.931 . S
C853 C852 1.385 . S
C853 C854 1.389 . S
C854 C853 1.389 . S
C854 C855 1.387 . S
C855 H840 0.930 . S
C855 C850 1.390 . S
C855 C854 1.387 . S
H856 C868 0.930 . S
H857 C870 0.930 . S
H858 C871 0.930 . S
H859 C875 0.959 . S
H860 C875 0.959 . S
H861 C875 0.961 . S
H862 C876 0.960 . S
H863 C876 0.961 . S
H864 C876 0.959 . S
H865 C879 0.929 . S
H866 C880 0.931 . S
H867 C882 0.930 . S
C868 H856 0.930 . S
C868 C869 1.399 . S
C868 C873 1.399 . S
C869 C868 1.399 . S
C869 C870 1.376 1_565 S
C870 H857 0.930 . S
C870 C869 1.376 1_545 S
C870 C871 1.388 . S
C871 H858 0.930 . S
C871 C870 1.388 . S
C871 C872 1.390 . S
C872 C871 1.390 . S
C872 C873 1.394 1_545 S
C872 C878 1.465 . S
C873 C868 1.399 . S
C873 C872 1.394 1_565 S
C873 C874 1.516 . S
C874 C873 1.516 . S
C874 C875 1.502 . S
C874 C876 1.561 1_556 S
C874 C877 1.526 . S
C875 H859 0.959 . S
C875 H860 0.959 . S
C875 H861 0.961 . S
C875 C874 1.502 . S
C876 H862 0.960 . S
C876 H863 0.961 . S
C876 H864 0.959 . S
C876 C874 1.561 1_554 S
C877 C874 1.526 . S
C877 C878 1.396 1_565 S
C877 C882 1.390 . S
C878 C872 1.465 . S
C878 C877 1.396 1_545 S
C878 C879 1.399 . S
C879 H865 0.929 . S
C879 C878 1.399 . S
C879 C880 1.385 . S
C880 H866 0.931 . S
C880 C879 1.385 . S
C880 C881 1.389 1_545 S
C881 C880 1.389 1_565 S
C881 C882 1.387 . S
C882 H867 0.930 . S
C882 C877 1.390 . S
C882 C881 1.387 . S
H883 C895 0.930 . S
H884 C897 0.930 . S
H885 C898 0.930 . S
H886 C902 0.959 . S
H887 C902 0.959 . S
H888 C902 0.961 . S
H889 C903 0.960 . S
H890 C903 0.961 . S
H891 C903 0.959 . S
H892 C906 0.929 . S
H893 C907 0.931 . S
H894 C909 0.930 . S
C895 H883 0.930 . S
C895 C896 1.399 . S
C895 C900 1.399 . S
C896 C895 1.399 . S
C896 C897 1.376 . S
C897 H884 0.930 . S
C897 C896 1.376 . S
C897 C898 1.388 . S
C898 H885 0.930 . S
C898 C897 1.388 . S
C898 C899 1.390 . S
C899 C898 1.390 . S
C899 C900 1.394 . S
C899 C905 1.465 . S
C900 C895 1.399 . S
C900 C899 1.394 . S
C900 C901 1.516 . S
C901 C900 1.516 . S
C901 C902 1.502 . S
C901 C903 1.561 . S
C901 C904 1.526 . S
C902 H886 0.959 . S
C902 H887 0.959 . S
C902 H888 0.961 . S
C902 C901 1.502 . S
C903 H889 0.960 . S
C903 H890 0.961 . S
C903 H891 0.959 . S
C903 C901 1.561 . S
C904 C901 1.526 . S
C904 C905 1.396 . S
C904 C909 1.390 . S
C905 C899 1.465 . S
C905 C904 1.396 . S
C905 C906 1.399 . S
C906 H892 0.929 . S
C906 C905 1.399 . S
C906 C907 1.385 . S
C907 H893 0.931 . S
C907 C906 1.385 . S
C907 C908 1.389 . S
C908 C907 1.389 . S
C908 C909 1.387 . S
C909 H894 0.930 . S
C909 C904 1.390 . S
C909 C908 1.387 . S
H910 C922 0.930 . S
H911 C924 0.930 . S
H912 C925 0.930 . S
H913 C929 0.959 . S
H914 C929 0.959 . S
H915 C929 0.961 . S
H916 C930 0.960 . S
H917 C930 0.961 . S
H918 C930 0.959 . S
H919 C933 0.929 . S
H920 C934 0.931 . S
H921 C936 0.930 . S
C922 H910 0.930 . S
C922 C923 1.399 . S
C922 C927 1.399 . S
C923 C922 1.399 . S
C923 C924 1.376 . S
C924 H911 0.930 . S
C924 C923 1.376 . S
C924 C925 1.388 . S
C925 H912 0.930 . S
C925 C924 1.388 . S
C925 C926 1.390 . S
C926 C925 1.390 . S
C926 C927 1.394 . S
C926 C932 1.465 . S
C927 C922 1.399 . S
C927 C926 1.394 . S
C927 C928 1.516 . S
C928 C927 1.516 . S
C928 C929 1.502 . S
C928 C930 1.561 . S
C928 C931 1.526 . S
C929 H913 0.959 . S
C929 H914 0.959 . S
C929 H915 0.961 . S
C929 C928 1.502 . S
C930 H916 0.960 . S
C930 H917 0.961 . S
C930 H918 0.959 . S
C930 C928 1.561 . S
C931 C928 1.526 . S
C931 C932 1.396 . S
C931 C936 1.390 . S
C932 C926 1.465 . S
C932 C931 1.396 . S
C932 C933 1.399 . S
C933 H919 0.929 . S
C933 C932 1.399 . S
C933 C934 1.385 . S
C934 H920 0.931 . S
C934 C933 1.385 . S
C934 C935 1.389 . S
C935 C934 1.389 . S
C935 C936 1.387 . S
C936 H921 0.930 . S
C936 C931 1.390 . S
C936 C935 1.387 . S
H937 C949 0.930 . S
H938 C951 0.930 . S
H939 C952 0.930 . S
H940 C956 0.959 . S
H941 C956 0.959 . S
H942 C956 0.961 1_556 S
H943 C957 0.960 1_556 S
H944 C957 0.961 . S
H945 C957 0.959 . S
H946 C960 0.929 . S
H947 C961 0.931 . S
H948 C963 0.930 . S
C949 H937 0.930 . S
C949 C950 1.399 . S
C949 C954 1.399 . S
C950 C949 1.399 . S
C950 C951 1.376 . S
C951 H938 0.930 . S
C951 C950 1.376 . S
C951 C952 1.388 . S
C952 H939 0.930 . S
C952 C951 1.388 . S
C952 C953 1.390 . S
C953 C952 1.390 . S
C953 C954 1.394 . S
C953 C959 1.465 1_556 S
C954 C949 1.399 . S
C954 C953 1.394 . S
C954 C955 1.516 1_556 S
C955 C954 1.516 1_554 S
C955 C956 1.502 . S
C955 C957 1.561 . S
C955 C958 1.526 . S
C956 H940 0.959 . S
C956 H941 0.959 . S
C956 H942 0.961 1_554 S
C956 C955 1.502 . S
C957 H943 0.960 1_554 S
C957 H944 0.961 . S
C957 H945 0.959 . S
C957 C955 1.561 . S
C958 C955 1.526 . S
C958 C959 1.396 . S
C958 C963 1.390 . S
C959 C953 1.465 1_554 S
C959 C958 1.396 . S
C959 C960 1.399 . S
C960 H946 0.929 . S
C960 C959 1.399 . S
C960 C961 1.385 . S
C961 H947 0.931 . S
C961 C960 1.385 . S
C961 C962 1.389 . S
C962 C961 1.389 . S
C962 C963 1.387 . S
C963 H948 0.930 . S
C963 C958 1.390 . S
C963 C962 1.387 . S
H964 C976 0.930 . S
H965 C978 0.930 . S
H966 C979 0.930 . S
H967 C983 0.959 . S
H968 C983 0.959 . S
H969 C983 0.961 . S
H970 C984 0.960 . S
H971 C984 0.961 . S
H972 C984 0.959 . S
H973 C987 0.929 . S
H974 C988 0.931 . S
H975 C990 0.930 . S
C976 H964 0.930 . S
C976 C977 1.399 . S
C976 C981 1.399 . S
C977 C976 1.399 . S
C977 C978 1.376 . S
C978 H965 0.930 . S
C978 C977 1.376 . S
C978 C979 1.388 . S
C979 H966 0.930 . S
C979 C978 1.388 . S
C979 C980 1.390 . S
C980 C979 1.390 . S
C980 C981 1.394 . S
C980 C986 1.465 . S
C981 C976 1.399 . S
C981 C980 1.394 . S
C981 C982 1.516 . S
C982 C981 1.516 . S
C982 C983 1.502 . S
C982 C984 1.561 . S
C982 C985 1.526 . S
C983 H967 0.959 . S
C983 H968 0.959 . S
C983 H969 0.961 . S
C983 C982 1.502 . S
C984 H970 0.960 . S
C984 H971 0.961 . S
C984 H972 0.959 . S
C984 C982 1.561 . S
C985 C982 1.526 . S
C985 C986 1.396 . S
C985 C990 1.390 . S
C986 C980 1.465 . S
C986 C985 1.396 . S
C986 C987 1.399 . S
C987 H973 0.929 . S
C987 C986 1.399 . S
C987 C988 1.385 . S
C988 H974 0.931 . S
C988 C987 1.385 . S
C988 C989 1.389 . S
C989 C988 1.389 . S
C989 C990 1.387 . S
C990 H975 0.930 . S
C990 C985 1.390 . S
C990 C989 1.387 . S
H991 C1003 0.930 . S
H992 C1005 0.930 . S
H993 C1006 0.930 . S
H994 C1010 0.959 . S
H995 C1010 0.959 . S
H996 C1010 0.961 . S
H997 C1011 0.960 . S
H998 C1011 0.961 . S
H999 C1011 0.959 . S
H1000 C1014 0.929 . S
H1001 C1015 0.931 . S
H1002 C1017 0.930 . S
C1003 H991 0.930 . S
C1003 C1004 1.399 . S
C1003 C1008 1.399 . S
C1004 C1003 1.399 . S
C1004 C1005 1.376 . S
C1005 H992 0.930 . S
C1005 C1004 1.376 . S
C1005 C1006 1.388 . S
C1006 H993 0.930 . S
C1006 C1005 1.388 . S
C1006 C1007 1.390 . S
C1007 C1006 1.390 . S
C1007 C1008 1.394 . S
C1007 C1013 1.465 . S
C1008 C1003 1.399 . S
C1008 C1007 1.394 . S
C1008 C1009 1.516 . S
C1009 C1008 1.516 . S
C1009 C1010 1.502 . S
C1009 C1011 1.561 . S
C1009 C1012 1.526 . S
C1010 H994 0.959 . S
C1010 H995 0.959 . S
C1010 H996 0.961 . S
C1010 C1009 1.502 . S
C1011 H997 0.960 . S
C1011 H998 0.961 . S
C1011 H999 0.959 . S
C1011 C1009 1.561 . S
C1012 C1009 1.526 . S
C1012 C1013 1.396 . S
C1012 C1017 1.390 . S
C1013 C1007 1.465 . S
C1013 C1012 1.396 . S
C1013 C1014 1.399 . S
C1014 H1000 0.929 . S
C1014 C1013 1.399 . S
C1014 C1015 1.385 . S
C1015 H1001 0.931 . S
C1015 C1014 1.385 . S
C1015 C1016 1.389 . S
C1016 C1015 1.389 . S
C1016 C1017 1.387 . S
C1017 H1002 0.930 . S
C1017 C1012 1.390 . S
C1017 C1016 1.387 . S
H1018 C1030 0.930 . S
H1019 C1032 0.930 . S
H1020 C1033 0.930 . S
H1021 C1037 0.959 . S
H1022 C1037 0.959 . S
H1023 C1037 0.961 . S
H1024 C1038 0.960 . S
H1025 C1038 0.961 . S
H1026 C1038 0.959 . S
H1027 C1041 0.929 . S
H1028 C1042 0.931 . S
H1029 C1044 0.930 . S
C1030 H1018 0.930 . S
C1030 C1031 1.399 1_655 S
C1030 C1035 1.399 . S
C1031 C1030 1.399 1_455 S
C1031 C1032 1.376 . S
C1032 H1019 0.930 . S
C1032 C1031 1.376 . S
C1032 C1033 1.388 . S
C1033 H1020 0.930 . S
C1033 C1032 1.388 . S
C1033 C1034 1.390 . S
C1034 C1033 1.390 . S
C1034 C1035 1.394 1_455 S
C1034 C1040 1.465 . S
C1035 C1030 1.399 . S
C1035 C1034 1.394 1_655 S
C1035 C1036 1.516 . S
C1036 C1035 1.516 . S
C1036 C1037 1.502 . S
C1036 C1038 1.561 1_655 S
C1036 C1039 1.526 . S
C1037 H1021 0.959 . S
C1037 H1022 0.959 . S
C1037 H1023 0.961 . S
C1037 C1036 1.502 . S
C1038 H1024 0.960 . S
C1038 H1025 0.961 . S
C1038 H1026 0.959 . S
C1038 C1036 1.561 1_455 S
C1039 C1036 1.526 . S
C1039 C1040 1.396 1_655 S
C1039 C1044 1.390 . S
C1040 C1034 1.465 . S
C1040 C1039 1.396 1_455 S
C1040 C1041 1.399 . S
C1041 H1027 0.929 . S
C1041 C1040 1.399 . S
C1041 C1042 1.385 . S
C1042 H1028 0.931 . S
C1042 C1041 1.385 . S
C1042 C1043 1.389 . S
C1043 C1042 1.389 . S
C1043 C1044 1.387 1_455 S
C1044 H1029 0.930 . S
C1044 C1039 1.390 . S
C1044 C1043 1.387 1_655 S
H1045 C1057 0.930 . S
H1046 C1059 0.930 . S
H1047 C1060 0.930 . S
H1048 C1064 0.959 . S
H1049 C1064 0.959 . S
H1050 C1064 0.961 . S
H1051 C1065 0.960 . S
H1052 C1065 0.961 . S
H1053 C1065 0.959 . S
H1054 C1068 0.929 . S
H1055 C1069 0.931 . S
H1056 C1071 0.923 1_565 S
C1057 H1045 0.930 . S
C1057 C1058 1.399 1_565 S
C1057 C1062 1.399 . S
C1058 C1057 1.399 1_545 S
C1058 C1059 1.376 . S
C1059 H1046 0.930 . S
C1059 C1058 1.376 . S
C1059 C1060 1.388 . S
C1060 H1047 0.930 . S
C1060 C1059 1.388 . S
C1060 C1061 1.390 . S
C1061 C1060 1.390 . S
C1061 C1062 1.393 1_545 S
C1061 C1067 1.465 . S
C1062 C1057 1.399 . S
C1062 C1061 1.393 1_565 S
C1062 C1063 1.516 . S
C1063 C1062 1.516 . S
C1063 C1064 1.502 . S
C1063 C1065 1.561 1_565 S
C1063 C1066 1.526 1_565 S
C1064 H1048 0.959 . S
C1064 H1049 0.959 . S
C1064 H1050 0.961 . S
C1064 C1063 1.502 . S
C1065 H1051 0.960 . S
C1065 H1052 0.961 . S
C1065 H1053 0.959 . S
C1065 C1063 1.561 1_545 S
C1066 C1063 1.526 1_545 S
C1066 C1067 1.396 . S
C1066 C1071 1.390 . S
C1067 C1061 1.465 . S
C1067 C1066 1.396 . S
C1067 C1068 1.399 . S
C1068 H1054 0.929 . S
C1068 C1067 1.399 . S
C1068 C1069 1.385 . S
C1069 H1055 0.931 . S
C1069 C1068 1.385 . S
C1069 C1070 1.389 . S
C1070 C1069 1.389 . S
C1070 C1071 1.394 . S
C1071 H1056 0.923 1_545 S
C1071 C1066 1.390 . S
C1071 C1070 1.394 . S
C221 C0 1.730 . S
C233 C91 1.748 . S
C248 C13 1.701 . S
C260 C52 1.659 . S
C275 C65 1.682 . S
C287 C26 1.685 . S
C302 C39 1.693 . S
C314 C78 1.703 . S
C329 C104 1.698 . S
C341 C156 1.673 . S
C356 C117 1.673 . S
C368 C182 1.659 . S
C383 C143 1.690 . S
C395 C130 1.693 . S
C410 C195 1.707 . S
C422 C169 1.688 . S
C437 C5 1.204 . S
C449 C88 1.155 . S
C464 C96 1.144 . S
C476 C21 1.052 1_565 S
C491 C31 1.125 . S
C503 C57 1.204 . S
C518 C70 1.150 . S
C530 C47 1.214 1_545 S
C545 C10 1.226 . S
C557 C192 1.265 . S
C572 C148 1.112 1_655 S
C584 C18 1.183 1_455 S
C599 C179 1.207 . S
C611 C36 1.277 . S
C626 C161 1.127 . S
C638 C44 1.165 . S
C653 C138 1.237 . S
C665 C62 1.220 . S
C680 C75 1.197 . S
C692 C205 1.243 . S
C707 C86 1.147 . S
C719 C114 1.262 . S
C734 C101 1.191 1_455 S
C746 C127 1.248 1_655 S
C761 C8 1.155 . S
C773 C60 1.116 . S
C788 C112 1.182 . S
C800 C177 1.101 . S
C815 C166 1.118 1_556 S
C827 C125 1.192 . S
C842 C190 1.139 . S
C854 C135 1.078 . S
C869 C99 1.230 . S
C881 C49 1.227 1_556 S
C896 C34 1.119 . S
C908 C83 1.040 . S
C923 C153 1.234 . S
C935 C203 1.221 . S
C950 C174 1.104 . S
C962 C140 1.197 . S
C977 C200 1.096 . S
C989 C164 1.168 . S
C1004 C187 1.231 . S
C1016 C109 1.171 . S
C1031 C151 1.192 . S
C1043 C122 1.120 . S
C1058 C23 1.184 . S
C1070 C73 1.092 . S
