# Generated by pormake.
# Topology uno, (4)-cn, num edge types: 1
# Building blocks:
#     Node 0, Type 0, BuildingBlock: KOZSID_clean_sbu_0, # of connection points: 4
#     Node 1, Type 0, BuildingBlock: KOZSID_clean_sbu_0, # of connection points: 4
#     Node 2, Type 0, BuildingBlock: KOZSID_clean_sbu_0, # of connection points: 4
#     Node 3, Type 0, BuildingBlock: KOZSID_clean_sbu_0, # of connection points: 4
#     Node 4, Type 0, BuildingBlock: KOZSID_clean_sbu_0, # of connection points: 4
#     Node 5, Type 0, BuildingBlock: KOZSID_clean_sbu_0, # of connection points: 4
#     Node 6, Type 0, BuildingBlock: KOZSID_clean_sbu_0, # of connection points: 4
#     Node 7, Type 0, BuildingBlock: KOZSID_clean_sbu_0, # of connection points: 4
#     Node 8, Type 0, BuildingBlock: KOZSID_clean_sbu_0, # of connection points: 4
#     Node 9, Type 0, BuildingBlock: KOZSID_clean_sbu_0, # of connection points: 4
#     Node 10, Type 0, BuildingBlock: KOZSID_clean_sbu_0, # of connection points: 4
#     Node 11, Type 0, BuildingBlock: KOZSID_clean_sbu_0, # of connection points: 4
#     Node 12, Type 0, BuildingBlock: KOZSID_clean_sbu_0, # of connection points: 4
#     Node 13, Type 0, BuildingBlock: KOZSID_clean_sbu_0, # of connection points: 4
#     Node 14, Type 0, BuildingBlock: KOZSID_clean_sbu_0, # of connection points: 4
#     Node 15, Type 0, BuildingBlock: KOZSID_clean_sbu_0, # of connection points: 4
#     Node 16, Type 0, BuildingBlock: KOZSID_clean_sbu_0, # of connection points: 4
#     Node 17, Type 0, BuildingBlock: KOZSID_clean_sbu_0, # of connection points: 4
#     Node 18, Type 0, BuildingBlock: KOZSID_clean_sbu_0, # of connection points: 4
#     Node 19, Type 0, BuildingBlock: KOZSID_clean_sbu_0, # of connection points: 4
#     Node 20, Type 0, BuildingBlock: KOZSID_clean_sbu_0, # of connection points: 4
#     Node 21, Type 0, BuildingBlock: KOZSID_clean_sbu_0, # of connection points: 4
#     Node 22, Type 0, BuildingBlock: KOZSID_clean_sbu_0, # of connection points: 4
#     Node 23, Type 0, BuildingBlock: KOZSID_clean_sbu_0, # of connection points: 4
#     Edge 24, Type (0, 0), BuildingBlock: EZIPEK_clean_linker_0, # of connection points: 2
#     Edge 25, Type (0, 0), BuildingBlock: EZIPEK_clean_linker_0, # of connection points: 2
#     Edge 26, Type (0, 0), BuildingBlock: EZIPEK_clean_linker_0, # of connection points: 2
#     Edge 27, Type (0, 0), BuildingBlock: EZIPEK_clean_linker_0, # of connection points: 2
#     Edge 28, Type (0, 0), BuildingBlock: EZIPEK_clean_linker_0, # of connection points: 2
#     Edge 29, Type (0, 0), BuildingBlock: EZIPEK_clean_linker_0, # of connection points: 2
#     Edge 30, Type (0, 0), BuildingBlock: EZIPEK_clean_linker_0, # of connection points: 2
#     Edge 31, Type (0, 0), BuildingBlock: EZIPEK_clean_linker_0, # of connection points: 2
#     Edge 32, Type (0, 0), BuildingBlock: EZIPEK_clean_linker_0, # of connection points: 2
#     Edge 33, Type (0, 0), BuildingBlock: EZIPEK_clean_linker_0, # of connection points: 2
#     Edge 34, Type (0, 0), BuildingBlock: EZIPEK_clean_linker_0, # of connection points: 2
#     Edge 35, Type (0, 0), BuildingBlock: EZIPEK_clean_linker_0, # of connection points: 2
#     Edge 36, Type (0, 0), BuildingBlock: EZIPEK_clean_linker_0, # of connection points: 2
#     Edge 37, Type (0, 0), BuildingBlock: EZIPEK_clean_linker_0, # of connection points: 2
#     Edge 38, Type (0, 0), BuildingBlock: EZIPEK_clean_linker_0, # of connection points: 2
#     Edge 39, Type (0, 0), BuildingBlock: EZIPEK_clean_linker_0, # of connection points: 2
#     Edge 40, Type (0, 0), BuildingBlock: EZIPEK_clean_linker_0, # of connection points: 2
#     Edge 41, Type (0, 0), BuildingBlock: EZIPEK_clean_linker_0, # of connection points: 2
#     Edge 42, Type (0, 0), BuildingBlock: EZIPEK_clean_linker_0, # of connection points: 2
#     Edge 43, Type (0, 0), BuildingBlock: EZIPEK_clean_linker_0, # of connection points: 2
#     Edge 44, Type (0, 0), BuildingBlock: EZIPEK_clean_linker_0, # of connection points: 2
#     Edge 45, Type (0, 0), BuildingBlock: EZIPEK_clean_linker_0, # of connection points: 2
#     Edge 46, Type (0, 0), BuildingBlock: EZIPEK_clean_linker_0, # of connection points: 2
#     Edge 47, Type (0, 0), BuildingBlock: EZIPEK_clean_linker_0, # of connection points: 2
#     Edge 48, Type (0, 0), BuildingBlock: EZIPEK_clean_linker_0, # of connection points: 2
#     Edge 49, Type (0, 0), BuildingBlock: EZIPEK_clean_linker_0, # of connection points: 2
#     Edge 50, Type (0, 0), BuildingBlock: EZIPEK_clean_linker_0, # of connection points: 2
#     Edge 51, Type (0, 0), BuildingBlock: EZIPEK_clean_linker_0, # of connection points: 2
#     Edge 52, Type (0, 0), BuildingBlock: EZIPEK_clean_linker_0, # of connection points: 2
#     Edge 53, Type (0, 0), BuildingBlock: EZIPEK_clean_linker_0, # of connection points: 2
#     Edge 54, Type (0, 0), BuildingBlock: EZIPEK_clean_linker_0, # of connection points: 2
#     Edge 55, Type (0, 0), BuildingBlock: EZIPEK_clean_linker_0, # of connection points: 2
#     Edge 56, Type (0, 0), BuildingBlock: EZIPEK_clean_linker_0, # of connection points: 2
#     Edge 57, Type (0, 0), BuildingBlock: EZIPEK_clean_linker_0, # of connection points: 2
#     Edge 58, Type (0, 0), BuildingBlock: EZIPEK_clean_linker_0, # of connection points: 2
#     Edge 59, Type (0, 0), BuildingBlock: EZIPEK_clean_linker_0, # of connection points: 2
#     Edge 60, Type (0, 0), BuildingBlock: EZIPEK_clean_linker_0, # of connection points: 2
#     Edge 61, Type (0, 0), BuildingBlock: EZIPEK_clean_linker_0, # of connection points: 2
#     Edge 62, Type (0, 0), BuildingBlock: EZIPEK_clean_linker_0, # of connection points: 2
#     Edge 63, Type (0, 0), BuildingBlock: EZIPEK_clean_linker_0, # of connection points: 2
#     Edge 64, Type (0, 0), BuildingBlock: EZIPEK_clean_linker_0, # of connection points: 2
#     Edge 65, Type (0, 0), BuildingBlock: EZIPEK_clean_linker_0, # of connection points: 2
#     Edge 66, Type (0, 0), BuildingBlock: EZIPEK_clean_linker_0, # of connection points: 2
#     Edge 67, Type (0, 0), BuildingBlock: EZIPEK_clean_linker_0, # of connection points: 2
#     Edge 68, Type (0, 0), BuildingBlock: EZIPEK_clean_linker_0, # of connection points: 2
#     Edge 69, Type (0, 0), BuildingBlock: EZIPEK_clean_linker_0, # of connection points: 2
#     Edge 70, Type (0, 0), BuildingBlock: EZIPEK_clean_linker_0, # of connection points: 2
#     Edge 71, Type (0, 0), BuildingBlock: EZIPEK_clean_linker_0, # of connection points: 2
# Relax obj value: 0.400
# Max RMSD: 0.288
# Mean RMSD: 0.251
data_MOF--net-uno--node1-KOZSID_clean_sbu_0--edge1-EZIPEK_clean_linker_0
_symmetry_space_group_name_H-M    P1
_symmetry_Int_Tables_number       1
_symmetry_cell_setting            triclinic
loop_
_symmetry_equiv_pos_as_xyz
'x, y, z'
_cell_length_a     50.600553
_cell_length_b     49.130987
_cell_length_c     49.277718
_cell_angle_alpha  89.747387
_cell_angle_beta   90.089991
_cell_angle_gamma 93.175555
loop_
_atom_site_label
_atom_site_type_symbol
_atom_site_fract_x
_atom_site_fract_y
_atom_site_fract_z
_atom_type_partial_charge
C0 C 0.0853 0.32938 0.22446 0.0
C1 C 0.07526 0.33339 0.19861 0.0
C2 C 0.08643 0.31492 0.18213 0.0
C3 C 0.10221 0.30042 0.19886 0.0
N4 N 0.10117 0.30778 0.22517 0.0
Co5 Co 0.12086 0.29076 0.25603 0.0
N6 N 0.13496 0.26202 0.23213 0.0
C7 C 0.13216 0.26049 0.20497 0.0
C8 C 0.14314 0.23824 0.19383 0.0
C9 C 0.15371 0.22478 0.21522 0.0
C10 C 0.14875 0.23976 0.23831 0.0
N11 N 0.14082 0.27418 0.28678 0.0
C12 C 0.15425 0.25093 0.28818 0.0
C13 C 0.16556 0.24775 0.31361 0.0
C14 C 0.15886 0.26949 0.32878 0.0
C15 C 0.14411 0.28477 0.31177 0.0
N16 N 0.1069 0.31988 0.27977 0.0
C17 C 0.11378 0.32425 0.30593 0.0
C18 C 0.1048 0.3477 0.31651 0.0
C19 C 0.09183 0.35951 0.29573 0.0
C20 C 0.09317 0.34232 0.27348 0.0
N21 N 0.09007 0.26484 0.26375 0.0
C22 C 0.06813 0.21105 0.26759 0.0
C23 C 0.07785 0.22482 0.2907 0.0
C24 C 0.08787 0.25206 0.28852 0.0
C25 C 0.06568 0.22613 0.24374 0.0
C26 C 0.07643 0.25299 0.24235 0.0
N27 N 0.15226 0.31473 0.24751 0.0
C28 C 0.16815 0.34774 0.21448 0.0
C29 C 0.18806 0.33033 0.20741 0.0
C30 C 0.19364 0.30952 0.22559 0.0
C31 C 0.17604 0.30314 0.24654 0.0
C32 C 0.15031 0.3394 0.23506 0.0
H33 H 0.18019 0.28676 0.25976 0.0
H34 H 0.13405 0.35156 0.23942 0.0
H35 H 0.09604 0.26168 0.30647 0.0
H36 H 0.07569 0.26275 0.22297 0.0
C37 C 0.11714 0.27884 0.19091 0.0
C38 C 0.08304 0.34947 0.24628 0.0
C39 C 0.15883 0.23274 0.26536 0.0
C40 C 0.13116 0.30773 0.31916 0.0
H41 H 0.06267 0.34928 0.19205 0.0
H42 H 0.08373 0.31268 0.16044 0.0
H43 H 0.14297 0.23218 0.17273 0.0
H44 H 0.16395 0.20607 0.21395 0.0
H45 H 0.1777 0.2316 0.32042 0.0
H46 H 0.16389 0.2735 0.3498 0.0
H47 H 0.10862 0.35606 0.33652 0.0
H48 H 0.0836 0.37929 0.29678 0.0
H49 H 0.07908 0.21418 0.30992 0.0
H50 H 0.05738 0.21655 0.22564 0.0
H51 H 0.16468 0.36567 0.20243 0.0
H52 H 0.21026 0.29694 0.22241 0.0
C53 C 0.95913 0.75657 0.49985 0.0
C54 C 0.95577 0.73421 0.48294 0.0
C55 C 0.98062 0.72856 0.4738 0.0
C56 C 0.99783 0.74775 0.48561 0.0
N57 N 0.98524 0.76468 0.502 0.0
Co58 Co 1.001 0.79821 0.51955 0.0
N59 N 0.03305 0.79916 0.49646 0.0
C60 C 0.04077 0.77847 0.48099 0.0
C61 C 0.06366 0.78528 0.46693 0.0
C62 C 0.071 0.81155 0.47458 0.0
C63 C 0.05199 0.8195 0.49271 0.0
N64 N 0.01456 0.83273 0.53639 0.0
C65 C 0.03241 0.85164 0.52667 0.0
C66 C 0.03265 0.87526 0.54224 0.0
C67 C 0.01558 0.87015 0.56332 0.0
C68 C 0.00528 0.84416 0.55906 0.0
N69 N 0.96915 0.79694 0.54311 0.0
C70 C 0.96665 0.80992 0.56691 0.0
C71 C 0.94159 0.80682 0.57744 0.0
C72 C 0.92729 0.79151 0.55891 0.0
C73 C 0.94461 0.78563 0.53815 0.0
N74 N 0.02158 0.7763 0.54606 0.0
C75 C 0.06993 0.75085 0.55294 0.0
C76 C 0.06641 0.77656 0.56391 0.0
C77 C 0.04229 0.78898 0.56016 0.0
C78 C 0.04713 0.73603 0.54389 0.0
C79 C 0.02278 0.74869 0.54241 0.0
N80 N 0.98363 0.81972 0.49168 0.0
C81 C 0.97518 0.86485 0.47559 0.0
C82 C 0.98585 0.8585 0.45012 0.0
C83 C 0.99048 0.83136 0.44492 0.0
C84 C 0.98801 0.81229 0.46544 0.0
C85 C 0.97475 0.84509 0.49649 0.0
H86 H 0.9931 0.79224 0.46016 0.0
H87 H 0.9696 0.85098 0.51681 0.0
H88 H 0.04187 0.80967 0.56688 0.0
H89 H 0.00563 0.73646 0.53594 0.0
C90 C 0.02401 0.75479 0.47719 0.0
C91 C 0.93738 0.76994 0.5137 0.0
C92 C 0.05275 0.84612 0.50652 0.0
C93 C 0.98427 0.83165 0.57349 0.0
H94 H 0.93724 0.72372 0.47722 0.0
H95 H 0.98525 0.71359 0.45874 0.0
H96 H 0.07362 0.77286 0.45251 0.0
H97 H 0.08841 0.82342 0.46777 0.0
H98 H 0.04457 0.89398 0.53925 0.0
H99 H 0.01064 0.88404 0.57928 0.0
H100 H 0.93384 0.81702 0.5949 0.0
H101 H 0.90628 0.78659 0.56024 0.0
H102 H 0.08295 0.78795 0.57322 0.0
H103 H 0.04825 0.71516 0.53719 0.0
H104 H 0.96966 0.88534 0.47998 0.0
H105 H 0.99763 0.82497 0.42535 0.0
C106 C 0.44095 0.69741 0.70503 0.0
C107 C 0.4467 0.69862 0.67749 0.0
C108 C 0.44527 0.72535 0.66961 0.0
C109 C 0.43792 0.73904 0.69239 0.0
N110 N 0.43496 0.72253 0.71423 0.0
Co111 Co 0.41616 0.73104 0.74848 0.0
N112 N 0.40076 0.76375 0.73262 0.0
C113 C 0.40939 0.7769 0.70996 0.0
C114 C 0.39531 0.7993 0.70408 0.0
C115 C 0.37716 0.80064 0.72461 0.0
C116 C 0.381 0.77872 0.74182 0.0
N117 N 0.39556 0.73694 0.78207 0.0
C118 C 0.37503 0.75297 0.78634 0.0
C119 C 0.36582 0.75028 0.81279 0.0
C120 C 0.38153 0.73234 0.82564 0.0
C121 C 0.39925 0.72491 0.80633 0.0
N122 N 0.43265 0.69898 0.76443 0.0
C123 C 0.43503 0.69352 0.79107 0.0
C124 C 0.44762 0.66989 0.79591 0.0
C125 C 0.45296 0.65964 0.77077 0.0
C126 C 0.44304 0.67749 0.75192 0.0
N127 N 0.44601 0.75634 0.76139 0.0
C128 C 0.47181 0.80864 0.76396 0.0
C129 C 0.45413 0.79964 0.78412 0.0
C130 C 0.44181 0.77356 0.78272 0.0
C131 C 0.47968 0.78949 0.74503 0.0
C132 C 0.46724 0.76306 0.74482 0.0
N133 N 0.3863 0.7082 0.73511 0.0
C134 C 0.35288 0.67161 0.73939 0.0
C135 C 0.34382 0.67742 0.71324 0.0
C136 C 0.35587 0.69897 0.69871 0.0
C137 C 0.37701 0.71379 0.70979 0.0
C138 C 0.37412 0.68771 0.75021 0.0
H139 H 0.38579 0.72973 0.69742 0.0
H140 H 0.38108 0.6832 0.77035 0.0
H141 H 0.42747 0.769 0.79818 0.0
H142 H 0.47374 0.74902 0.72988 0.0
C143 C 0.42692 0.76469 0.69225 0.0
C144 C 0.44207 0.67259 0.72245 0.0
C145 C 0.36617 0.77341 0.76708 0.0
C146 C 0.41893 0.70618 0.80975 0.0
H147 H 0.45074 0.68197 0.66415 0.0
H148 H 0.44698 0.73327 0.64912 0.0
H149 H 0.39739 0.81256 0.68653 0.0
H150 H 0.3627 0.81593 0.7266 0.0
H151 H 0.35005 0.76096 0.82207 0.0
H152 H 0.3802 0.72559 0.84656 0.0
H153 H 0.45045 0.66 0.81529 0.0
H154 H 0.46187 0.64053 0.76679 0.0
H155 H 0.44827 0.81347 0.79981 0.0
H156 H 0.49426 0.79527 0.72969 0.0
H157 H 0.34379 0.65492 0.75112 0.0
H158 H 0.34915 0.70416 0.67852 0.0
C159 C 0.56243 0.22193 0.01234 0.0
C160 C 0.56229 0.23324 0.9865 0.0
C161 C 0.53886 0.22418 0.9745 0.0
C162 C 0.5262 0.20733 0.9933 0.0
N163 N 0.53998 0.20557 0.01653 0.0
Co164 Co 0.53172 0.17913 0.04698 0.0
N165 N 0.50259 0.15941 0.0269 0.0
C166 C 0.49197 0.16775 0.00343 0.0
C167 C 0.46924 0.15279 0.99647 0.0
C168 C 0.46515 0.13405 0.017 0.0
C169 C 0.48598 0.13826 0.03511 0.0
N170 N 0.52541 0.15294 0.07793 0.0
C171 C 0.50911 0.13022 0.07995 0.0
C172 C 0.51128 0.11767 0.10512 0.0
C173 C 0.52859 0.1338 0.11996 0.0
C174 C 0.53628 0.15487 0.10293 0.0
N175 N 0.55993 0.19976 0.06808 0.0
C176 C 0.56403 0.19869 0.09505 0.0
C177 C 0.58393 0.21661 0.10396 0.0
C178 C 0.59331 0.22966 0.08113 0.0
C179 C 0.57849 0.21878 0.05974 0.0
N180 N 0.50381 0.20313 0.06095 0.0
C181 C 0.45121 0.2201 0.05704 0.0
C182 C 0.45774 0.19942 0.07501 0.0
C183 C 0.48406 0.19191 0.07729 0.0
C184 C 0.47224 0.23496 0.04437 0.0
C185 C 0.4984 0.22668 0.04729 0.0
N186 N 0.55711 0.1539 0.03013 0.0
C187 C 0.56078 0.15098 0.9819 0.0
C188 C 0.54767 0.12512 0.98174 0.0
C189 C 0.54698 0.11123 0.00684 0.0
C190 C 0.55096 0.12635 0.03112 0.0
C191 C 0.56916 0.16227 0.00647 0.0
H192 H 0.54782 0.11615 0.0503 0.0
H193 H 0.58314 0.17925 0.00557 0.0
H194 H 0.48767 0.176 0.09144 0.0
H195 H 0.51381 0.23871 0.03706 0.0
C196 C 0.50385 0.18973 0.98876 0.0
C197 C 0.58522 0.22361 0.03155 0.0
C198 C 0.48931 0.1217 0.05979 0.0
C199 C 0.55287 0.17714 0.11015 0.0
H200 H 0.57789 0.24557 0.97674 0.0
H201 H 0.53274 0.2279 0.95382 0.0
H202 H 0.45696 0.15535 0.97875 0.0
H203 H 0.44897 0.11874 0.0183 0.0
H204 H 0.50057 0.09946 0.11249 0.0
H205 H 0.53437 0.13089 0.14089 0.0
H206 H 0.59197 0.21849 0.12428 0.0
H207 H 0.61012 0.24425 0.07998 0.0
H208 H 0.44244 0.18869 0.08687 0.0
H209 H 0.46844 0.25244 0.03178 0.0
H210 H 0.565 0.16243 0.96346 0.0
H211 H 0.54158 0.08966 0.0076 0.0
C212 C 0.99716 0.9763 0.2733 0.0
C213 C 0.96986 0.97727 0.27204 0.0
C214 C 0.96322 0.99896 0.288 0.0
C215 C 0.98661 0.01006 0.29869 0.0
N216 N 0.00731 0.99672 0.28959 0.0
Co217 Co 0.04353 0.99987 0.30455 0.0
N218 N 0.03258 0.01445 0.33966 0.0
C219 C 0.00857 0.02355 0.34491 0.0
C220 C 0.00441 0.02548 0.37241 0.0
C221 C 0.02732 0.01751 0.38471 0.0
C222 C 0.0449 0.01197 0.3641 0.0
N223 N 0.08042 0.00338 0.31726 0.0
C224 C 0.08979 0.0094 0.34222 0.0
C225 C 0.1166 0.01739 0.34115 0.0
C226 C 0.12417 0.01556 0.31451 0.0
C227 C 0.10158 0.0071 0.30078 0.0
N228 N 0.05466 0.98437 0.26994 0.0
C229 C 0.07843 0.98827 0.25814 0.0
C230 C 0.08 0.97384 0.23433 0.0
C231 C 0.05567 0.96004 0.23136 0.0
C232 C 0.04071 0.96699 0.25353 0.0
N233 N 0.04838 0.03752 0.2902 0.0
C234 C 0.05203 0.09294 0.27489 0.0
C235 C 0.04177 0.07286 0.25684 0.0
C236 C 0.04002 0.04515 0.26497 0.0
C237 C 0.06073 0.08465 0.30023 0.0
C238 C 0.05878 0.05722 0.30742 0.0
N239 N 0.03719 0.96349 0.3214 0.0
C240 C 0.05244 0.92624 0.34842 0.0
C241 C 0.02719 0.92238 0.36017 0.0
C242 C 0.00696 0.93742 0.35048 0.0
C243 C 0.01228 0.9576 0.33163 0.0
C244 C 0.05699 0.9471 0.32878 0.0
H245 H 0.99598 0.96981 0.32795 0.0
H246 H 0.07649 0.95056 0.3201 0.0
H247 H 0.03153 0.02999 0.25117 0.0
H248 H 0.06527 0.05225 0.32751 0.0
C249 C 0.98869 0.02265 0.32452 0.0
C250 C 0.01391 0.95601 0.25996 0.0
C251 C 0.07379 0.00695 0.36711 0.0
C252 C 0.09973 1.00022 0.27307 0.0
H253 H 0.95597 0.96305 0.26217 0.0
H254 H 0.94338 0.00357 0.29395 0.0
H255 H 0.98618 0.03003 0.38247 0.0
H256 H 0.03033 0.01571 0.40633 0.0
H257 H 0.12937 0.02375 0.35786 0.0
H258 H 0.14381 0.01963 0.30626 0.0
H259 H 0.09726 0.97201 0.22166 0.0
H260 H 0.04985 0.9459 0.21538 0.0
H261 H 0.03492 0.07857 0.23689 0.0
H262 H 0.06886 0.09947 0.31466 0.0
H263 H 0.06854 0.91425 0.35516 0.0
H264 H 0.98718 0.93492 0.35894 0.0
C265 C 0.20269 0.73326 0.54504 0.0
C266 C 0.20411 0.76076 0.53837 0.0
C267 C 0.22805 0.77143 0.54799 0.0
C268 C 0.23977 0.7501 0.56048 0.0
N269 N 0.22491 0.72664 0.55891 0.0
Co270 Co 0.23205 0.69177 0.57817 0.0
N271 N 0.26091 0.70886 0.60048 0.0
C272 C 0.27275 0.73369 0.59606 0.0
C273 C 0.29493 0.73854 0.61177 0.0
C274 C 0.29723 0.71524 0.62688 0.0
C275 C 0.27593 0.69762 0.61996 0.0
N276 N 0.23756 0.65628 0.59696 0.0
C277 C 0.25287 0.65059 0.61864 0.0
C278 C 0.25167 0.62291 0.62454 0.0
C279 C 0.2356 0.61062 0.60536 0.0
C280 C 0.22779 0.63144 0.58909 0.0
N281 N 0.20371 0.67424 0.55485 0.0
C282 C 0.19936 0.64742 0.5501 0.0
C283 C 0.17844 0.64165 0.53283 0.0
C284 C 0.16876 0.66638 0.5265 0.0
C285 C 0.18451 0.68569 0.54024 0.0
N286 N 0.26035 0.68422 0.55098 0.0
C287 C 0.31297 0.69597 0.53303 0.0
C288 C 0.29163 0.70843 0.52075 0.0
C289 C 0.26543 0.70169 0.52949 0.0
C290 C 0.3069 0.67448 0.55093 0.0
C291 C 0.28064 0.66843 0.55892 0.0
N292 N 0.20645 0.70167 0.60716 0.0
C293 C 0.20459 0.74769 0.62198 0.0
C294 C 0.21762 0.74179 0.64618 0.0
C295 C 0.21758 0.71402 0.65344 0.0
C296 C 0.21169 0.69406 0.63331 0.0
C297 C 0.19589 0.7266 0.60515 0.0
H298 H 0.21234 0.67283 0.63837 0.0
H299 H 0.18255 0.7316 0.58951 0.0
H300 H 0.24971 0.71234 0.52012 0.0
H301 H 0.27778 0.65218 0.57325 0.0
C302 C 0.26205 0.75189 0.5775 0.0
C303 C 0.17889 0.71429 0.54181 0.0
C304 C 0.27059 0.67048 0.63234 0.0
C305 C 0.21114 0.62845 0.5666 0.0
H306 H 0.18905 0.77231 0.52887 0.0
H307 H 0.23511 0.79263 0.54764 0.0
H308 H 0.30787 0.75682 0.61228 0.0
H309 H 0.31251 0.71181 0.64169 0.0
H310 H 0.26214 0.61261 0.64039 0.0
H311 H 0.23048 0.58904 0.60332 0.0
H312 H 0.16997 0.62176 0.52719 0.0
H313 H 0.15142 0.66984 0.51434 0.0
H314 H 0.29523 0.72415 0.50553 0.0
H315 H 0.32257 0.66312 0.55973 0.0
H316 H 0.20058 0.76833 0.61609 0.0
H317 H 0.22269 0.70797 0.6738 0.0
C318 C 0.53623 0.04311 0.78245 0.0
C319 C 0.56353 0.04424 0.77968 0.0
C320 C 0.57254 0.02247 0.7942 0.0
C321 C 0.55049 0.00925 0.80562 0.0
N322 N 0.52836 0.02148 0.7985 0.0
Co323 Co 0.49313 0.01434 0.81507 0.0
N324 N 0.50709 0.99793 0.84841 0.0
C325 C 0.53205 0.99049 0.85171 0.0
C326 C 0.53782 0.98656 0.8787 0.0
C327 C 0.51498 0.99143 0.89277 0.0
C328 C 0.49591 0.99722 0.87362 0.0
N329 N 0.45723 0.00663 0.82956 0.0
C330 C 0.44982 0.9973 0.8543 0.0
C331 C 0.42365 0.98699 0.85399 0.0
C332 C 0.41435 0.99068 0.82815 0.0
C333 C 0.43539 0.00251 0.81407 0.0
N334 N 0.47878 0.03147 0.78242 0.0
C335 C 0.45454 0.02654 0.77187 0.0
C336 C 0.45061 0.04168 0.74877 0.0
C337 C 0.47393 0.05702 0.74483 0.0
C338 C 0.49067 0.05022 0.76577 0.0
N339 N 0.49034 0.97804 0.79784 0.0
C340 C 0.48912 0.92479 0.7769 0.0
C341 C 0.49662 0.94733 0.76041 0.0
C342 C 0.49726 0.97388 0.77136 0.0
C343 C 0.48212 0.92948 0.80371 0.0
C344 C 0.48281 0.95596 0.81369 0.0
N345 N 0.49772 0.04959 0.83431 0.0
C346 C 0.48102 0.08252 0.86541 0.0
C347 C 0.5061 0.08572 0.8779 0.0
C348 C 0.52703 0.07339 0.86584 0.0
C349 C 0.5226 0.05619 0.84421 0.0
C350 C 0.47722 0.06399 0.84355 0.0
H351 H 0.53967 0.04613 0.83821 0.0
H352 H 0.45767 0.06026 0.83499 0.0
H353 H 0.50356 0.99097 0.75861 0.0
H354 H 0.47747 0.95829 0.83462 0.0
C355 C 0.55075 0.99467 0.83049 0.0
C356 C 0.51744 0.06224 0.77032 0.0
C357 C 0.46681 0.99928 0.87854 0.0
C358 C 0.43507 0.01177 0.78701 0.0
H359 H 0.57593 0.05976 0.76961 0.0
H360 H 0.59302 0.01894 0.79867 0.0
H361 H 0.55692 0.98268 0.88738 0.0
H362 H 0.51296 0.99103 0.91458 0.0
H363 H 0.41241 0.97801 0.87076 0.0
H364 H 0.39458 0.98558 0.82066 0.0
H365 H 0.43257 0.04261 0.73707 0.0
H366 H 0.47802 0.07184 0.72886 0.0
H367 H 0.502 0.94442 0.73941 0.0
H368 H 0.47601 0.91264 0.81697 0.0
H369 H 0.46431 0.09256 0.87365 0.0
H370 H 0.54682 0.0754 0.87435 0.0
C371 C 0.31416 0.2307 0.04649 0.0
C372 C 0.31122 0.20273 0.04313 0.0
C373 C 0.28455 0.19572 0.04554 0.0
C374 C 0.27259 0.21971 0.05043 0.0
N375 N 0.29014 0.2414 0.05087 0.0
Co376 Co 0.28228 0.27922 0.06182 0.0
N377 N 0.24681 0.26781 0.07615 0.0
C378 C 0.23305 0.24417 0.0706 0.0
C379 C 0.20999 0.24137 0.08536 0.0
C380 C 0.20949 0.26445 0.10109 0.0
C381 C 0.23224 0.28029 0.09491 0.0
N382 N 0.27651 0.31667 0.07448 0.0
C383 C 0.25927 0.32495 0.09314 0.0
C384 C 0.26213 0.3529 0.09711 0.0
C385 C 0.28218 0.3624 0.08029 0.0
C386 C 0.29038 0.33974 0.06722 0.0
N387 N 0.31733 0.29103 0.04621 0.0
C388 C 0.32559 0.31683 0.03987 0.0
C389 C 0.35064 0.31878 0.02907 0.0
C390 C 0.3588 0.29267 0.02882 0.0
C391 C 0.33822 0.27623 0.03956 0.0
N392 N 0.26352 0.28612 0.02659 0.0
C393 C 0.21095 0.28056 0.00713 0.0
C394 C 0.22238 0.30621 0.01441 0.0
C395 C 0.24851 0.30851 0.0243 0.0
C396 C 0.22864 0.25981 0.00338 0.0
C397 C 0.25543 0.26411 0.01103 0.0
N398 N 0.29781 0.27121 0.09743 0.0
C399 C 0.32862 0.27698 0.1349 0.0
C400 C 0.31753 0.25293 0.147 0.0
C401 C 0.29485 0.2407 0.13554 0.0
C402 C 0.28652 0.24899 0.11061 0.0
C403 C 0.31777 0.28636 0.11012 0.0
H404 H 0.27132 0.23609 0.10191 0.0
H405 H 0.32655 0.30444 0.10043 0.0
H406 H 0.25514 0.32803 0.0321 0.0
H407 H 0.26851 0.24803 0.00716 0.0
C408 C 0.24601 0.22249 0.05845 0.0
C409 C 0.33973 0.24688 0.04417 0.0
C410 C 0.24003 0.3068 0.10722 0.0
C411 C 0.31222 0.33877 0.04999 0.0
H412 H 0.32673 0.18892 0.03941 0.0
H413 H 0.27522 0.17537 0.04499 0.0
H414 H 0.19627 0.22369 0.08636 0.0
H415 H 0.19447 0.26876 0.11582 0.0
H416 H 0.251 0.36504 0.11083 0.0
H417 H 0.29032 0.38317 0.07849 0.0
H418 H 0.3623 0.33716 0.02378 0.0
H419 H 0.37799 0.28649 0.02233 0.0
H420 H 0.21037 0.32376 0.01538 0.0
H421 H 0.22174 0.23996 0.99594 0.0
H422 H 0.34617 0.28728 0.1434 0.0
H423 H 0.28516 0.22249 0.14426 0.0
C424 C 0.29739 0.05108 0.20541 0.0
C425 C 0.32486 0.05155 0.20491 0.0
C426 C 0.33383 0.07149 0.22251 0.0
C427 C 0.31156 0.08259 0.23245 0.0
N428 N 0.28885 0.07026 0.22309 0.0
Co429 Co 0.25253 0.08504 0.22697 0.0
N430 N 0.26534 0.11569 0.25095 0.0
C431 C 0.29077 0.122 0.25763 0.0
C432 C 0.29366 0.14329 0.27554 0.0
C433 C 0.26852 0.1513 0.28008 0.0
C434 C 0.25165 0.13442 0.26461 0.0
N435 N 0.216 0.09883 0.23024 0.0
C436 C 0.20695 0.12004 0.24443 0.0
C437 C 0.18011 0.12289 0.23962 0.0
C438 C 0.17185 0.10256 0.22249 0.0
C439 C 0.19397 0.08869 0.2174 0.0
N440 N 0.23908 0.05397 0.20357 0.0
C441 C 0.21375 0.04728 0.19684 0.0
C442 C 0.21037 0.02344 0.18257 0.0
C443 C 0.23527 0.01468 0.17938 0.0
C444 C 0.2523 0.03398 0.19171 0.0
N445 N 0.246 0.0623 0.26027 0.0
C446 C 0.23644 0.04077 0.31311 0.0
C447 C 0.21669 0.03895 0.29298 0.0
C448 C 0.22177 0.05004 0.26685 0.0
C449 C 0.26126 0.05203 0.30563 0.0
C450 C 0.26569 0.06195 0.27939 0.0
N451 N 0.26088 0.10991 0.19506 0.0
C452 C 0.26397 0.15816 0.18411 0.0
C453 C 0.29115 0.15719 0.17874 0.0
C454 C 0.30107 0.13147 0.17641 0.0
C455 C 0.28463 0.10836 0.18178 0.0
C456 C 0.24934 0.13447 0.19297 0.0
H457 H 0.29244 0.08954 0.17641 0.0
H458 H 0.22946 0.13687 0.19974 0.0
H459 H 0.20579 0.04921 0.2525 0.0
H460 H 0.28512 0.07036 0.27543 0.0
C461 C 0.31112 0.10652 0.24781 0.0
C462 C 0.28013 0.03705 0.1848 0.0
C463 C 0.22334 0.13922 0.26081 0.0
C464 C 0.19398 0.06472 0.20265 0.0
H465 H 0.33735 0.04051 0.19165 0.0
H466 H 0.35421 0.07855 0.22589 0.0
H467 H 0.31187 0.15211 0.28411 0.0
H468 H 0.26324 0.16827 0.2925 0.0
H469 H 0.16755 0.13818 0.24719 0.0
H470 H 0.15199 0.09822 0.21489 0.0
H471 H 0.19217 0.01433 0.17425 0.0
H472 H 0.24064 0.99757 0.16716 0.0
H473 H 0.19724 0.02985 0.29766 0.0
H474 H 0.27731 0.05355 0.32024 0.0
H475 H 0.25467 0.17744 0.18354 0.0
H476 H 0.32147 0.129 0.17075 0.0
C477 C 0.22989 0.95641 0.5481 0.0
C478 C 0.23893 0.93046 0.55203 0.0
C479 C 0.22881 0.91457 0.53151 0.0
C480 C 0.21375 0.9313 0.51645 0.0
N481 N 0.2145 0.95732 0.52531 0.0
Co482 Co 0.19121 0.98678 0.51204 0.0
N483 N 0.17191 0.96163 0.48609 0.0
C484 C 0.17461 0.93454 0.484 0.0
C485 C 0.15801 0.92201 0.46543 0.0
C486 C 0.14389 0.94239 0.45492 0.0
C487 C 0.15271 0.96641 0.46774 0.0
N488 N 0.16933 0.01675 0.49828 0.0
C489 C 0.15295 0.01734 0.47647 0.0
C490 C 0.14566 0.04371 0.47109 0.0
C491 C 0.15672 0.05995 0.49088 0.0
C492 C 0.17068 0.0429 0.50678 0.0
N493 N 0.20976 0.01144 0.53919 0.0
C494 C 0.20623 0.03817 0.5429 0.0
C495 C 0.22048 0.04943 0.56416 0.0
C496 C 0.23317 0.02832 0.5754 0.0
C497 C 0.22571 0.00538 0.56036 0.0
N498 N 0.21718 0.99705 0.48283 0.0
C499 C 0.22915 0.01176 0.42862 0.0
C500 C 0.22855 0.03163 0.44895 0.0
C501 C 0.22285 0.02383 0.47595 0.0
C502 C 0.22775 0.98446 0.43687 0.0
C503 C 0.22288 0.97769 0.4641 0.0
N504 N 0.16369 0.97564 0.53922 0.0
C505 C 0.11709 0.96381 0.53398 0.0
C506 C 0.12249 0.9361 0.53582 0.0
C507 C 0.1469 0.9301 0.5472 0.0
C508 C 0.16592 0.95103 0.55172 0.0
C509 C 0.13835 0.98347 0.53517 0.0
H510 H 0.18352 0.94589 0.56213 0.0
H511 H 0.13444 0.00428 0.53033 0.0
H512 H 0.22119 0.03973 0.49054 0.0
H513 H 0.22136 0.95648 0.46906 0.0
C514 C 0.19431 0.92191 0.49823 0.0
C515 C 0.23132 0.97781 0.56908 0.0
C516 C 0.14287 0.99334 0.46124 0.0
C517 C 0.18767 0.05142 0.52766 0.0
H518 H 0.24947 0.92265 0.56916 0.0
H519 H 0.22987 0.89271 0.52965 0.0
H520 H 0.15657 0.90068 0.4599 0.0
H521 H 0.12857 0.93959 0.4397 0.0
H522 H 0.13376 0.05073 0.45451 0.0
H523 H 0.15561 0.08179 0.49278 0.0
H524 H 0.22048 0.07016 0.57151 0.0
H525 H 0.24524 0.02928 0.59357 0.0
H526 H 0.23089 0.05307 0.44377 0.0
H527 H 0.22927 0.9683 0.42216 0.0
H528 H 0.09741 0.97004 0.52921 0.0
H529 H 0.15169 0.9094 0.55195 0.0
C530 C 0.23869 0.94766 0.70816 0.0
C531 C 0.21159 0.95006 0.71043 0.0
C532 C 0.20478 0.94303 0.73677 0.0
C533 C 0.22782 0.93604 0.74924 0.0
N534 N 0.24848 0.93826 0.73206 0.0
Co535 Co 0.28366 0.92358 0.73848 0.0
N536 N 0.27052 0.89909 0.76778 0.0
C537 C 0.2486 0.90234 0.78251 0.0
C538 C 0.245 0.88235 0.80205 0.0
C539 C 0.26604 0.86585 0.79921 0.0
C540 C 0.28127 0.87661 0.77796 0.0
N541 N 0.3188 0.90876 0.74311 0.0
C542 C 0.32487 0.88424 0.75311 0.0
C543 C 0.35177 0.88056 0.74972 0.0
C544 C 0.36267 0.90407 0.73826 0.0
C545 C 0.34202 0.92065 0.73483 0.0
N546 N 0.29715 0.94891 0.70997 0.0
C547 C 0.32237 0.95855 0.70716 0.0
C548 C 0.32542 0.97776 0.68688 0.0
C549 C 0.30051 0.9802 0.67634 0.0
C550 C 0.28374 0.9621 0.69072 0.0
N551 N 0.29196 0.95113 0.76681 0.0
C552 C 0.28797 0.97799 0.81669 0.0
C553 C 0.30407 0.95607 0.81399 0.0
C554 C 0.30585 0.94304 0.7891 0.0
C555 C 0.27618 0.98828 0.79325 0.0
C556 C 0.27888 0.97479 0.76826 0.0
N557 N 0.27426 0.89457 0.71242 0.0
C558 C 0.28504 0.85991 0.68028 0.0
C559 C 0.26125 0.8449 0.6865 0.0
C560 C 0.24399 0.85603 0.70482 0.0
C561 C 0.25031 0.88094 0.71651 0.0
C562 C 0.29163 0.88438 0.69431 0.0
H563 H 0.23617 0.88795 0.73057 0.0
H564 H 0.31064 0.8949 0.69079 0.0
H565 H 0.31631 0.92459 0.78909 0.0
H566 H 0.2686 0.98222 0.75073 0.0
C567 C 0.2295 0.92023 0.77323 0.0
C568 C 0.25564 0.95625 0.68445 0.0
C569 C 0.30594 0.86558 0.76785 0.0
C570 C 0.34276 0.94475 0.71942 0.0
H571 H 0.19796 0.95576 0.69478 0.0
H572 H 0.18497 0.94108 0.74507 0.0
H573 H 0.22837 0.8792 0.8157 0.0
H574 H 0.26954 0.84778 0.81102 0.0
H575 H 0.36264 0.86291 0.75471 0.0
H576 H 0.38293 0.90799 0.73174 0.0
H577 H 0.34372 0.98751 0.67945 0.0
H578 H 0.2954 0.993 0.65941 0.0
H579 H 0.31374 0.94776 0.83158 0.0
H580 H 0.26392 0.0056 0.79451 0.0
H581 H 0.29876 0.85229 0.66569 0.0
H582 H 0.22547 0.84533 0.71041 0.0
C583 C 0.30369 0.03399 0.04815 0.0
C584 C 0.29209 0.0589 0.04966 0.0
C585 C 0.29639 0.07174 0.02508 0.0
C586 C 0.31095 0.05452 0.00995 0.0
N587 N 0.31545 0.03138 0.02356 0.0
Co588 Co 0.34078 0.00383 0.013 0.0
N589 N 0.36067 0.02945 0.98866 0.0
C590 C 0.35266 0.05379 0.98029 0.0
C591 C 0.37265 0.06941 0.96809 0.0
C592 C 0.39421 0.05365 0.96836 0.0
C593 C 0.38605 0.02878 0.98007 0.0
N594 N 0.36618 0.97579 0.00362 0.0
C595 C 0.38916 0.97796 0.98922 0.0
C596 C 0.39809 0.95214 0.9842 0.0
C597 C 0.38048 0.93358 0.9961 0.0
C598 C 0.36144 0.94873 0.00735 0.0
N599 N 0.32097 0.97877 0.03795 0.0
C600 C 0.32061 0.95146 0.03775 0.0
C601 C 0.30644 0.93999 0.05915 0.0
C602 C 0.29786 0.96158 0.07383 0.0
C603 C 0.30739 0.985 0.06055 0.0
N604 N 0.31796 0.9922 0.98154 0.0
C605 C 0.29281 0.99063 0.93039 0.0
C606 C 0.31753 0.9803 0.93394 0.0
C607 C 0.32964 0.98136 0.95921 0.0
C608 C 0.27941 0.9993 0.95347 0.0
C609 C 0.29213 0.99923 0.97907 0.0
N610 N 0.36407 0.01648 0.0425 0.0
C611 C 0.40354 0.0106 0.06864 0.0
C612 C 0.40867 0.03894 0.06835 0.0
C613 C 0.38928 0.05554 0.05891 0.0
C614 C 0.36728 0.04401 0.04623 0.0
C615 C 0.3809 0.99965 0.05525 0.0
H616 H 0.35474 0.05809 0.03682 0.0
H617 H 0.37794 0.97779 0.05373 0.0
H618 H 0.34938 0.97501 0.95925 0.0
H619 H 0.28148 0.00623 0.99641 0.0
C620 C 0.32862 0.06351 0.98943 0.0
C621 C 0.30411 0.013 0.06996 0.0
C622 C 0.40016 0.00339 0.97619 0.0
C623 C 0.33954 0.9385 0.02249 0.0
H624 H 0.28283 0.06782 0.06695 0.0
H625 H 0.29231 0.09262 0.02027 0.0
H626 H 0.37197 0.09017 0.9608 0.0
H627 H 0.41332 0.0592 0.95948 0.0
H628 H 0.41472 0.94676 0.97205 0.0
H629 H 0.38123 0.9116 0.99606 0.0
H630 H 0.30455 0.91867 0.06482 0.0
H631 H 0.28687 0.96033 0.09266 0.0
H632 H 0.32835 0.97295 0.91671 0.0
H633 H 0.25978 0.00684 0.95162 0.0
H634 H 0.41794 0.99721 0.07672 0.0
H635 H 0.39231 0.07757 0.05879 0.0
C636 C 0.71996 0.22173 0.99948 0.0
C637 C 0.72038 0.19374 0.00323 0.0
C638 C 0.74085 0.18499 0.98741 0.0
C639 C 0.75174 0.20783 0.97437 0.0
N640 N 0.73952 0.23021 0.98176 0.0
Co641 Co 0.74285 0.2661 0.96351 0.0
N642 N 0.75736 0.25159 0.93003 0.0
C643 C 0.76793 0.22723 0.92776 0.0
C644 C 0.77731 0.22312 0.90197 0.0
C645 C 0.77231 0.24647 0.88752 0.0
C646 C 0.76 0.26356 0.90528 0.0
N647 N 0.74559 0.30294 0.94748 0.0
C648 C 0.7472 0.3104 0.92122 0.0
C649 C 0.74567 0.33855 0.91878 0.0
C650 C 0.74516 0.3489 0.94447 0.0
C651 C 0.74541 0.32665 0.96124 0.0
N652 N 0.72855 0.28072 0.99741 0.0
C653 C 0.73227 0.30613 0.00704 0.0
C654 C 0.71907 0.30958 0.03112 0.0
C655 C 0.70613 0.2848 0.0366 0.0
C656 C 0.71241 0.2678 0.01555 0.0
N657 N 0.77992 0.27194 0.97681 0.0
C658 C 0.83502 0.26757 0.98437 0.0
C659 C 0.82535 0.28222 0.96264 0.0
C660 C 0.79812 0.28422 0.95929 0.0
C661 C 0.81662 0.25674 0.00356 0.0
C662 C 0.78915 0.25927 0.99949 0.0
N663 N 0.70711 0.25828 0.94658 0.0
C664 C 0.68057 0.27006 0.90775 0.0
C665 C 0.67619 0.24235 0.90152 0.0
C666 C 0.68249 0.22337 0.92085 0.0
C667 C 0.69867 0.23144 0.94226 0.0
C668 C 0.69521 0.27756 0.93118 0.0
H669 H 0.70652 0.21446 0.95208 0.0
H670 H 0.6983 0.29897 0.93556 0.0
H671 H 0.79209 0.29422 0.94112 0.0
H672 H 0.77541 0.24982 0.01392 0.0
C673 C 0.76529 0.20793 0.94921 0.0
C674 C 0.70052 0.24069 0.01068 0.0
C675 C 0.75237 0.29157 0.89886 0.0
C676 C 0.74068 0.32707 0.98928 0.0
H677 H 0.70657 0.1806 0.01455 0.0
H678 H 0.74501 0.164 0.98344 0.0
H679 H 0.786 0.20506 0.89429 0.0
H680 H 0.77709 0.25047 0.86643 0.0
H681 H 0.74457 0.35064 0.90057 0.0
H682 H 0.74332 0.36997 0.95014 0.0
H683 H 0.7169 0.32846 0.04193 0.0
H684 H 0.6925 0.28016 0.0531 0.0
H685 H 0.8388 0.29141 0.94768 0.0
H686 H 0.82339 0.2458 0.02114 0.0
H687 H 0.6741 0.28563 0.89402 0.0
H688 H 0.67841 0.20178 0.91721 0.0
C689 C 0.04832 0.47691 0.20102 0.0
C690 C 0.07437 0.48337 0.19346 0.0
C691 C 0.07577 0.50935 0.18326 0.0
C692 C 0.05031 0.51719 0.18295 0.0
N693 N 0.03296 0.49748 0.19246 0.0
Co694 Co 0.99436 0.49509 0.18385 0.0
N695 N 0.99749 0.52422 0.15592 0.0
C696 C 0.0177 0.543 0.15365 0.0
C697 C 0.014 0.56136 0.13304 0.0
C698 C 0.98987 0.55363 0.12182 0.0
C699 C 0.9803 0.5309 0.13623 0.0
N700 N 0.95615 0.49035 0.17435 0.0
C701 C 0.94305 0.4986 0.15218 0.0
C702 C 0.91643 0.4899 0.15316 0.0
C703 C 0.91268 0.47636 0.17722 0.0
C704 C 0.93714 0.47725 0.18925 0.0
N705 N 0.991 0.46616 0.21223 0.0
C706 C 0.96789 0.45532 0.22249 0.0
C707 C 0.9701 0.42971 0.23287 0.0
C708 C 0.99567 0.42388 0.22858 0.0
C709 C 0.00886 0.44732 0.21834 0.0
N710 N 0.98704 0.52504 0.21015 0.0
C711 C 0.98421 0.58203 0.21836 0.0
C712 C 0.96139 0.56532 0.21347 0.0
C713 C 0.96321 0.53727 0.20913 0.0
C714 C 0.00752 0.5687 0.22385 0.0
C715 C 0.00788 0.54011 0.22151 0.0
N716 N 1.00232 0.46774 0.15641 0.0
C717 C 0.99735 0.42288 0.13676 0.0
C718 C 0.01858 0.42929 0.11915 0.0
C719 C 0.03081 0.45527 0.11988 0.0
C720 C 0.02225 0.47413 0.13829 0.0
C721 C 0.98946 0.44252 0.15531 0.0
H722 H 0.03227 0.49388 0.13784 0.0
H723 H 0.97321 0.43726 0.16882 0.0
H724 H 0.9452 0.52661 0.20305 0.0
H725 H 0.02599 0.53088 0.22678 0.0
C726 C 0.04172 0.53865 0.16673 0.0
C727 C 0.03835 0.45154 0.21622 0.0
C728 C 0.9548 0.51625 0.13105 0.0
C729 C 0.94375 0.46278 0.21219 0.0
H730 H 0.09028 0.47006 0.1914 0.0
H731 H 0.09276 0.51961 0.17357 0.0
H732 H 0.02779 0.57747 0.12599 0.0
H733 H 0.98052 0.56332 0.10483 0.0
H734 H 0.90119 0.49302 0.13824 0.0
H735 H 0.89453 0.46618 0.18454 0.0
H736 H 0.95415 0.41528 0.23874 0.0
H737 H 0.00297 0.40386 0.23145 0.0
H738 H 0.94244 0.57422 0.21072 0.0
H739 H 0.02562 0.58027 0.2291 0.0
H740 H 0.98705 0.40298 0.13615 0.0
H741 H 0.04682 0.46106 0.10607 0.0
C742 C 0.80514 0.78385 0.48541 0.0
C743 C 0.81093 0.81006 0.49475 0.0
C744 C 0.79012 0.82529 0.4872 0.0
C745 C 0.77271 0.80761 0.47368 0.0
N746 N 0.78094 0.78187 0.47302 0.0
Co747 Co 0.76434 0.75066 0.45157 0.0
N748 N 0.74023 0.77422 0.43145 0.0
C749 C 0.73697 0.80085 0.43612 0.0
C750 C 0.7198 0.81182 0.41792 0.0
C751 C 0.71194 0.79085 0.40076 0.0
C752 C 0.72478 0.76823 0.40943 0.0
N753 N 0.74849 0.71874 0.43115 0.0
C754 C 0.72807 0.71776 0.4136 0.0
C755 C 0.71825 0.69104 0.40958 0.0
C756 C 0.73419 0.67463 0.42367 0.0
C757 C 0.75223 0.69215 0.4361 0.0
N758 N 0.78915 0.72695 0.47113 0.0
C759 C 0.78832 0.69945 0.4714 0.0
C760 C 0.80972 0.68875 0.48366 0.0
C761 C 0.82562 0.71071 0.49102 0.0
C762 C 0.81271 0.73377 0.48325 0.0
N763 N 0.73538 0.74469 0.47962 0.0
C764 C 0.67958 0.74616 0.48526 0.0
C765 C 0.69189 0.72121 0.48337 0.0
C766 C 0.71973 0.72093 0.48077 0.0
C767 C 0.69645 0.76932 0.4895 0.0
C768 C 0.72395 0.76727 0.48951 0.0
N769 N 0.79083 0.75866 0.42229 0.0
C770 C 0.81138 0.74833 0.37935 0.0
C771 C 0.81911 0.77609 0.37544 0.0
C772 C 0.81428 0.79405 0.39603 0.0
C773 C 0.79925 0.78541 0.41805 0.0
C774 C 0.79763 0.73995 0.40327 0.0
H775 H 0.79434 0.80153 0.43079 0.0
H776 H 0.79171 0.71866 0.40568 0.0
H777 H 0.72807 0.70149 0.47876 0.0
H778 H 0.73549 0.78474 0.49613 0.0
C779 C 0.75218 0.81517 0.45609 0.0
C780 C 0.82378 0.76174 0.48694 0.0
C781 C 0.72107 0.74102 0.39717 0.0
C782 C 0.77072 0.68448 0.45501 0.0
H783 H 0.82895 0.81763 0.50466 0.0
H784 H 0.78899 0.84712 0.48924 0.0
H785 H 0.71415 0.83272 0.41682 0.0
H786 H 0.69837 0.79194 0.38384 0.0
H787 H 0.70108 0.68377 0.39828 0.0
H788 H 0.73217 0.65265 0.42555 0.0
H789 H 0.81433 0.66753 0.48494 0.0
H790 H 0.84501 0.70946 0.49995 0.0
H791 H 0.68008 0.70217 0.48239 0.0
H792 H 0.68865 0.78911 0.49279 0.0
H793 H 0.81558 0.73346 0.36403 0.0
H794 H 0.82054 0.81546 0.39422 0.0
C795 C 0.97228 0.82204 0.26025 0.0
C796 C 0.98042 0.82721 0.28675 0.0
C797 C 0.96726 0.80823 0.30282 0.0
C798 C 0.95153 0.79275 0.28547 0.0
N799 N 0.95455 0.79997 0.25917 0.0
Co800 Co 0.93167 0.78575 0.22819 0.0
N801 N 0.90919 0.761 0.25224 0.0
C802 C 0.91105 0.75933 0.27947 0.0
C803 C 0.89211 0.74192 0.29098 0.0
C804 C 0.87711 0.73205 0.26973 0.0
C805 C 0.88788 0.74391 0.24634 0.0
N806 N 0.90947 0.77188 0.19672 0.0
C807 C 0.88895 0.75285 0.19565 0.0
C808 C 0.87925 0.74955 0.16944 0.0
C809 C 0.89429 0.76685 0.15332 0.0
C810 C 0.91208 0.77983 0.17056 0.0
N811 N 0.95384 0.81087 0.204 0.0
C812 C 0.95219 0.81285 0.17676 0.0
C813 C 0.9697 0.83205 0.16561 0.0
C814 C 0.98289 0.84368 0.18716 0.0
C815 C 0.97243 0.83094 0.2102 0.0
N816 N 0.95551 0.75494 0.22248 0.0
C817 C 0.97272 0.70102 0.21618 0.0
C818 C 0.9712 0.71893 0.19383 0.0
C819 C 0.962 0.74544 0.19731 0.0
C820 C 0.96817 0.71202 0.24173 0.0
C821 C 0.96107 0.73894 0.2444 0.0
N822 N 0.90649 0.8147 0.23567 0.0
C823 C 0.89672 0.83768 0.27733 0.0
C824 C 0.87439 0.81995 0.28075 0.0
C825 C 0.86466 0.80643 0.25753 0.0
C826 C 0.88033 0.80651 0.23411 0.0
C827 C 0.9126 0.8347 0.25438 0.0
H828 H 0.87265 0.79625 0.21647 0.0
H829 H 0.93075 0.84667 0.25373 0.0
H830 H 0.9593 0.75755 0.17946 0.0
H831 H 0.95857 0.74572 0.2646 0.0
C832 C 0.93095 0.77431 0.2934 0.0
C833 C 0.97788 0.84124 0.23746 0.0
C834 C 0.87668 0.73903 0.21912 0.0
C835 C 0.93216 0.79859 0.16262 0.0
H836 H 0.99299 0.84408 0.29412 0.0
H837 H 0.96745 0.80732 0.32477 0.0
H838 H 0.88933 0.73718 0.31228 0.0
H839 H 0.85987 0.71818 0.2714 0.0
H840 H 0.8628 0.73624 0.16271 0.0
H841 H 0.89252 0.7696 0.1316 0.0
H842 H 0.97161 0.83794 0.14448 0.0
H843 H 0.99737 0.86073 0.18623 0.0
H844 H 0.97565 0.71201 0.17359 0.0
H845 H 0.96962 0.69968 0.25989 0.0
H846 H 0.903 0.85203 0.29298 0.0
H847 H 0.84585 0.7949 0.25803 0.0
C848 C 0.54739 0.19606 0.77086 0.0
C849 C 0.5376 0.18865 0.79635 0.0
C850 C 0.54749 0.20777 0.81418 0.0
C851 C 0.56317 0.22552 0.79894 0.0
N852 N 0.56319 0.2195 0.77227 0.0
Co853 Co 0.58573 0.23891 0.7438 0.0
N854 N 0.6044 0.26329 0.77113 0.0
C855 C 0.60214 0.26094 0.79829 0.0
C856 C 0.6204 0.2769 0.81238 0.0
C857 C 0.63531 0.29027 0.79294 0.0
C858 C 0.62464 0.28235 0.76795 0.0
N859 N 0.60702 0.2588 0.71493 0.0
C860 C 0.62255 0.28224 0.71653 0.0
C861 C 0.62885 0.2925 0.69089 0.0
C862 C 0.61806 0.2743 0.67262 0.0
C863 C 0.60523 0.25438 0.68798 0.0
N864 N 0.56799 0.21335 0.71672 0.0
C865 C 0.57195 0.21349 0.68966 0.0
C866 C 0.55746 0.19338 0.67614 0.0
C867 C 0.544 0.17887 0.6959 0.0
C868 C 0.55127 0.19095 0.72037 0.0
N869 N 0.55847 0.2665 0.73885 0.0
C870 C 0.5385 0.31838 0.72849 0.0
C871 C 0.53744 0.2979 0.70856 0.0
C872 C 0.54804 0.27244 0.71393 0.0
C873 C 0.54638 0.31074 0.75454 0.0
C874 C 0.55463 0.28448 0.75949 0.0
N875 N 0.61416 0.21322 0.7499 0.0
C876 C 0.62374 0.18369 0.78725 0.0
C877 C 0.64291 0.20321 0.79616 0.0
C878 C 0.65286 0.22216 0.7768 0.0
C879 C 0.63922 0.22485 0.75232 0.0
C880 C 0.60911 0.18944 0.764 0.0
H881 H 0.64637 0.24052 0.73852 0.0
H882 H 0.59213 0.17644 0.75997 0.0
H883 H 0.5488 0.25843 0.6974 0.0
H884 H 0.55965 0.27988 0.77998 0.0
C885 C 0.58213 0.24408 0.80966 0.0
C886 C 0.54448 0.17842 0.74662 0.0
C887 C 0.63389 0.29378 0.74174 0.0
C888 C 0.58931 0.23287 0.67765 0.0
H889 H 0.52605 0.17047 0.80221 0.0
H890 H 0.54549 0.20727 0.83605 0.0
H891 H 0.62273 0.27851 0.83415 0.0
H892 H 0.65207 0.30431 0.7969 0.0
H893 H 0.64035 0.31102 0.6858 0.0
H894 H 0.61882 0.27582 0.65071 0.0
H895 H 0.55725 0.18933 0.65457 0.0
H896 H 0.53132 0.16066 0.69288 0.0
H897 H 0.53027 0.30217 0.68836 0.0
H898 H 0.5469 0.32522 0.77107 0.0
H899 H 0.61815 0.16591 0.79943 0.0
H900 H 0.66943 0.23631 0.78138 0.0
C901 C 0.45717 0.5349 0.68492 0.0
C902 C 0.43064 0.52645 0.68662 0.0
C903 C 0.42864 0.49949 0.67856 0.0
C904 C 0.45394 0.49284 0.67194 0.0
N905 N 0.47153 0.5141 0.67561 0.0
Co906 Co 0.5087 0.51662 0.66221 0.0
N907 N 0.503 0.48583 0.63707 0.0
C908 C 0.48279 0.46688 0.6383 0.0
C909 C 0.48397 0.44821 0.61764 0.0
C910 C 0.50627 0.45604 0.60283 0.0
C911 C 0.5176 0.47909 0.61529 0.0
N912 N 0.54551 0.52167 0.6488 0.0
C913 C 0.55636 0.51238 0.62595 0.0
C914 C 0.58298 0.52105 0.62412 0.0
C915 C 0.58896 0.53579 0.64702 0.0
C916 C 0.56577 0.53555 0.66136 0.0
N917 N 0.51489 0.54698 0.68804 0.0
C918 C 0.53837 0.55592 0.69842 0.0
C919 C 0.53618 0.57624 0.71722 0.0
C920 C 0.50967 0.58046 0.71852 0.0
C921 C 0.4973 0.56252 0.70024 0.0
N922 N 0.51985 0.48938 0.68995 0.0
C923 C 0.52513 0.43542 0.70931 0.0
C924 C 0.54619 0.45 0.69657 0.0
C925 C 0.54291 0.47621 0.68633 0.0
C926 C 0.50299 0.45012 0.71597 0.0
C927 C 0.5017 0.47756 0.70773 0.0
N928 N 0.49666 0.54062 0.63293 0.0
C929 C 0.50423 0.57423 0.59758 0.0
C930 C 0.48011 0.56585 0.58505 0.0
C931 C 0.46434 0.54549 0.5972 0.0
C932 C 0.4731 0.53295 0.62045 0.0
C933 C 0.5122 0.56133 0.62163 0.0
H934 H 0.46084 0.51597 0.6271 0.0
H935 H 0.53084 0.56786 0.63086 0.0
H936 H 0.55878 0.48417 0.67382 0.0
H937 H 0.48481 0.48819 0.71425 0.0
C938 C 0.46075 0.47081 0.65532 0.0
C939 C 0.46917 0.56196 0.69349 0.0
C940 C 0.54268 0.49362 0.60695 0.0
C941 C 0.56175 0.54984 0.68533 0.0
H942 H 0.4144 0.53854 0.69254 0.0
H943 H 0.41054 0.48704 0.67571 0.0
H944 H 0.46965 0.43169 0.61301 0.0
H945 H 0.51337 0.44605 0.58495 0.0
H946 H 0.59686 0.51686 0.60821 0.0
H947 H 0.60783 0.54583 0.65231 0.0
H948 H 0.55205 0.58798 0.72724 0.0
H949 H 0.50058 0.5957 0.73065 0.0
H950 H 0.56435 0.44021 0.69212 0.0
H951 H 0.48639 0.44038 0.72676 0.0
H952 H 0.51694 0.59022 0.58878 0.0
H953 H 0.44566 0.5385 0.58812 0.0
C954 C 0.97067 0.27249 0.97339 0.0
C955 C 0.9659 0.27738 0.94615 0.0
C956 C 0.9892 0.28861 0.93537 0.0
C957 C 0.00698 0.29052 0.95656 0.0
N958 N 0.9963 0.28034 0.97985 0.0
Co959 Co 0.00968 0.28807 0.01724 0.0
N960 N 0.03533 0.31724 0.00498 0.0
C961 C 0.04402 0.32124 0.97936 0.0
C962 C 0.06167 0.34355 0.97746 0.0
C963 C 0.06382 0.35408 0.00334 0.0
C964 C 0.0473 0.33763 0.01963 0.0
N965 N 0.0202 0.29646 0.05518 0.0
C966 C 0.03206 0.31956 0.06521 0.0
C967 C 0.03327 0.31835 0.09344 0.0
C968 C 0.02167 0.29368 0.10111 0.0
C969 C 0.01369 0.28134 0.0774 0.0
N970 N 0.98478 0.25793 0.02931 0.0
C971 C 0.98521 0.24442 0.05306 0.0
C972 C 0.96533 0.2242 0.05493 0.0
C973 C 0.95118 0.22572 0.03119 0.0
C974 C 0.96324 0.24694 0.01633 0.0
N975 N 0.03942 0.26245 0.01362 0.0
C976 C 0.09477 0.25845 0.0076 0.0
C977 C 0.08252 0.25456 0.03295 0.0
C978 C 0.05506 0.25666 0.0355 0.0
C979 C 0.07799 0.25854 0.98495 0.0
C980 C 0.05036 0.25834 0.98856 0.0
N981 N 0.98242 0.31517 0.01956 0.0
C982 C 0.94622 0.33754 0.04032 0.0
C983 C 0.94406 0.35422 0.01719 0.0
C984 C 0.96211 0.35177 0.99637 0.0
C985 C 0.98073 0.33256 0.99795 0.0
C986 C 0.96624 0.31853 0.04138 0.0
H987 H 0.99409 0.33265 0.9814 0.0
H988 H 0.96796 0.30596 0.05925 0.0
H989 H 0.04737 0.25495 0.0556 0.0
H990 H 0.03839 0.25671 0.97068 0.0
C991 C 0.03013 0.3083 0.95746 0.0
C992 C 0.95108 0.26038 0.99335 0.0
C993 C 0.04121 0.34291 0.04826 0.0
C994 C 0.99862 0.25655 0.07517 0.0
H995 H 0.94735 0.27432 0.9354 0.0
H996 H 0.99192 0.29695 0.91514 0.0
H997 H 0.07031 0.35243 0.95916 0.0
H998 H 0.07512 0.37242 0.00933 0.0
H999 H 0.04116 0.33351 0.10746 0.0
H1000 H 0.01853 0.28616 0.12159 0.0
H1001 H 0.9599 0.21198 0.0726 0.0
H1002 H 0.93271 0.21454 0.02654 0.0
H1003 H 0.09435 0.25227 0.05108 0.0
H1004 H 0.08604 0.2597 0.9646 0.0
H1005 H 0.9326 0.33898 0.05711 0.0
H1006 H 0.96196 0.36488 0.97861 0.0
C1007 C 0.54085 0.74419 0.47162 0.0
C1008 C 0.5388 0.75964 0.44823 0.0
C1009 C 0.51428 0.75257 0.43715 0.0
C1010 C 0.50267 0.7332 0.45433 0.0
N1011 N 0.51817 0.72842 0.47586 0.0
Co1012 Co 0.51338 0.69785 0.50207 0.0
N1013 N 0.48635 0.67804 0.47959 0.0
C1014 C 0.47281 0.6889 0.45902 0.0
C1015 C 0.45441 0.67039 0.44805 0.0
C1016 C 0.45629 0.64681 0.46305 0.0
C1017 C 0.47601 0.65211 0.48215 0.0
N1018 N 0.51199 0.66681 0.52738 0.0
C1019 C 0.50641 0.64063 0.52092 0.0
C1020 C 0.51711 0.62363 0.54017 0.0
C1021 C 0.52748 0.63993 0.56043 0.0
C1022 C 0.52356 0.66593 0.552 0.0
N1023 N 0.53945 0.71812 0.52531 0.0
C1024 C 0.54275 0.71459 0.55219 0.0
C1025 C 0.56296 0.73116 0.56247 0.0
C1026 C 0.57356 0.74512 0.54065 0.0
C1027 C 0.55896 0.73653 0.51798 0.0
N1028 N 0.48276 0.71443 0.52092 0.0
C1029 C 0.42757 0.71955 0.52755 0.0
C1030 C 0.44125 0.70176 0.54376 0.0
C1031 C 0.46856 0.69948 0.54024 0.0
C1032 C 0.44273 0.73812 0.51146 0.0
C1033 C 0.47041 0.73589 0.50937 0.0
N1034 N 0.5412 0.6799 0.48229 0.0
C1035 C 0.57386 0.64616 0.4827 0.0
C1036 C 0.56643 0.63835 0.45625 0.0
C1037 C 0.5488 0.65381 0.44212 0.0
C1038 C 0.5369 0.67477 0.45528 0.0
C1039 C 0.56103 0.66729 0.49539 0.0
H1040 H 0.52276 0.68543 0.44382 0.0
H1041 H 0.56543 0.67171 0.51639 0.0
H1042 H 0.47707 0.68401 0.55224 0.0
H1043 H 0.48117 0.7507 0.49696 0.0
C1044 C 0.48103 0.71474 0.44814 0.0
C1045 C 0.56457 0.74405 0.48949 0.0
C1046 C 0.48475 0.63226 0.50232 0.0
C1047 C 0.53512 0.68946 0.56382 0.0
H1048 H 0.55387 0.77356 0.4396 0.0
H1049 H 0.50686 0.75911 0.41771 0.0
H1050 H 0.44165 0.67338 0.43077 0.0
H1051 H 0.44483 0.6278 0.46007 0.0
H1052 H 0.51731 0.60173 0.53982 0.0
H1053 H 0.53805 0.63369 0.57831 0.0
H1054 H 0.57132 0.73059 0.58269 0.0
H1055 H 0.59096 0.75864 0.54195 0.0
H1056 H 0.43057 0.68839 0.55796 0.0
H1057 H 0.43318 0.75343 0.49968 0.0
H1058 H 0.5878 0.63465 0.4941 0.0
H1059 H 0.543 0.64866 0.42151 0.0
C1060 C 0.71595 0.53272 0.44853 0.0
C1061 C 0.73298 0.55578 0.44966 0.0
C1062 C 0.73309 0.56452 0.47623 0.0
C1063 C 0.71625 0.5463 0.48994 0.0
N1064 N 0.70592 0.52664 0.47356 0.0
Co1065 Co 0.67894 0.49771 0.48388 0.0
N1066 N 0.66777 0.51775 0.51622 0.0
C1067 C 0.68225 0.53796 0.52853 0.0
C1068 C 0.66989 0.54738 0.55118 0.0
C1069 C 0.6464 0.53196 0.55321 0.0
C1070 C 0.64565 0.51396 0.53156 0.0
N1071 N 0.65124 0.46889 0.49271 0.0
C1072 C 0.62963 0.46992 0.50875 0.0
C1073 C 0.615 0.44515 0.50863 0.0
C1074 C 0.62838 0.42793 0.49249 0.0
C1075 C 0.65024 0.44312 0.48351 0.0
N1076 N 0.69033 0.47762 0.45157 0.0
C1077 C 0.68536 0.45085 0.44676 0.0
C1078 C 0.6913 0.44385 0.42065 0.0
C1079 C 0.70013 0.46762 0.40826 0.0
C1080 C 0.7 0.48797 0.42777 0.0
N1081 N 0.70477 0.48028 0.508 0.0
C1082 C 0.7355 0.48111 0.55568 0.0
C1083 C 0.70999 0.4689 0.55541 0.0
C1084 C 0.69522 0.46827 0.53147 0.0
C1085 C 0.74688 0.48912 0.53071 0.0
C1086 C 0.7313 0.48774 0.50686 0.0
N1087 N 0.6534 0.51638 0.46205 0.0
C1088 C 0.61605 0.51762 0.43182 0.0
C1089 C 0.6143 0.54545 0.43736 0.0
C1090 C 0.63298 0.55843 0.45431 0.0
C1091 C 0.65218 0.54372 0.46626 0.0
C1092 C 0.63596 0.50329 0.44458 0.0
H1093 H 0.66559 0.55465 0.47966 0.0
H1094 H 0.63685 0.4817 0.441 0.0
H1095 H 0.67505 0.46081 0.53331 0.0
H1096 H 0.7401 0.49533 0.48816 0.0
C1097 C 0.70497 0.55012 0.51573 0.0
C1098 C 0.70964 0.51675 0.42364 0.0
C1099 C 0.62452 0.49253 0.52703 0.0
C1100 C 0.66735 0.43558 0.46301 0.0
H1101 H 0.7436 0.56561 0.43292 0.0
H1102 H 0.74289 0.58297 0.48412 0.0
H1103 H 0.67669 0.56402 0.5642 0.0
H1104 H 0.6316 0.53368 0.56884 0.0
H1105 H 0.59688 0.43983 0.51953 0.0
H1106 H 0.62239 0.40713 0.48722 0.0
H1107 H 0.68692 0.42444 0.41086 0.0
H1108 H 0.70495 0.46954 0.38698 0.0
H1109 H 0.70074 0.46165 0.57411 0.0
H1110 H 0.76699 0.49784 0.52988 0.0
H1111 H 0.60186 0.50704 0.41858 0.0
H1112 H 0.63216 0.57988 0.45917 0.0
C1113 C 0.79621 0.46926 0.78728 0.0
C1114 C 0.82344 0.46717 0.78702 0.0
C1115 C 0.82958 0.45462 0.76293 0.0
C1116 C 0.80592 0.44888 0.74966 0.0
N1117 N 0.78561 0.45766 0.7642 0.0
Co1118 Co 0.74792 0.44644 0.75844 0.0
N1119 N 0.75524 0.41325 0.73832 0.0
C1120 C 0.77881 0.40806 0.72755 0.0
C1121 C 0.77951 0.38111 0.72024 0.0
C1122 C 0.75485 0.36924 0.7265 0.0
C1123 C 0.73981 0.38973 0.73659 0.0
N1124 N 0.70987 0.43715 0.75373 0.0
C1125 C 0.69758 0.41365 0.74536 0.0
C1126 C 0.67123 0.41756 0.73903 0.0
C1127 C 0.66703 0.4444 0.74429 0.0
C1128 C 0.69102 0.45548 0.75304 0.0
N1129 N 0.74036 0.4795 0.77868 0.0
C1130 C 0.7187 0.49386 0.7761 0.0
C1131 C 0.71949 0.51624 0.79287 0.0
C1132 C 0.7431 0.51557 0.80681 0.0
C1133 C 0.75529 0.49276 0.7977 0.0
N1134 N 0.74761 0.4662 0.72325 0.0
C1135 C 0.75378 0.48405 0.66904 0.0
C1136 C 0.76718 0.4981 0.69031 0.0
C1137 C 0.7636 0.48893 0.71747 0.0
C1138 C 0.73656 0.46207 0.67565 0.0
C1139 C 0.73401 0.45341 0.70236 0.0
N1140 N 0.74954 0.42381 0.7915 0.0
C1141 C 0.72903 0.39462 0.82593 0.0
C1142 C 0.75125 0.37853 0.82612 0.0
C1143 C 0.77255 0.38628 0.80987 0.0
C1144 C 0.77171 0.40909 0.7939 0.0
C1145 C 0.72832 0.41695 0.80776 0.0
H1146 H 0.78869 0.41248 0.78152 0.0
H1147 H 0.71057 0.42815 0.8063 0.0
H1148 H 0.77463 0.49934 0.73352 0.0
H1149 H 0.72224 0.43488 0.70539 0.0
C1150 C 0.80119 0.42623 0.73215 0.0
C1151 C 0.7799 0.48251 0.80861 0.0
C1152 C 0.71065 0.38777 0.74248 0.0
C1153 C 0.69621 0.4821 0.76297 0.0
H1154 H 0.83743 0.47253 0.80291 0.0
H1155 H 0.84869 0.44732 0.75761 0.0
H1156 H 0.79654 0.37071 0.71329 0.0
H1157 H 0.74904 0.34788 0.72423 0.0
H1158 H 0.65663 0.40269 0.73118 0.0
H1159 H 0.64866 0.45449 0.74218 0.0
H1160 H 0.704 0.53021 0.79608 0.0
H1161 H 0.75005 0.52948 0.82258 0.0
H1162 H 0.78073 0.51538 0.68594 0.0
H1163 H 0.72593 0.45063 0.65991 0.0
H1164 H 0.712 0.38911 0.83846 0.0
H1165 H 0.78991 0.37431 0.80901 0.0
C1166 C 0.79449 0.4851 0.94929 0.0
C1167 C 0.77914 0.46088 0.94705 0.0
C1168 C 0.78219 0.44674 0.97073 0.0
C1169 C 0.79955 0.4627 0.986 0.0
N1170 N 0.80701 0.48668 0.974 0.0
Co1171 Co 0.83656 0.5129 0.98699 0.0
N1172 N 0.84464 0.49013 0.0192 0.0
C1173 C 0.83215 0.46619 0.02612 0.0
C1174 C 0.84091 0.45578 0.0502 0.0
C1175 C 0.86008 0.47438 0.05918 0.0
C1176 C 0.86204 0.49506 0.0399 0.0
N1177 N 0.86587 0.53957 0.9988 0.0
C1178 C 0.88173 0.53966 0.02097 0.0
C1179 C 0.89902 0.5626 0.02168 0.0
C1180 C 0.8937 0.57773 0.99929 0.0
C1181 C 0.87367 0.56316 0.98622 0.0
N1182 N 0.82835 0.53602 0.95474 0.0
C1183 C 0.83845 0.56142 0.94932 0.0
C1184 C 0.82914 0.57232 0.92573 0.0
C1185 C 0.81258 0.55234 0.91498 0.0
C1186 C 0.813 0.53031 0.93262 0.0
N1187 N 0.81129 0.5319 0.01113 0.0
C1188 C 0.796 0.54258 0.0652 0.0
C1189 C 0.81236 0.5614 0.05065 0.0
C1190 C 0.81903 0.55611 0.02346 0.0
C1191 C 0.78358 0.52122 0.05046 0.0
C1192 C 0.79095 0.51673 0.0234 0.0
N1193 N 0.86243 0.49195 0.96577 0.0
C1194 C 0.904 0.47218 0.97626 0.0
C1195 C 0.89136 0.44602 0.97568 0.0
C1196 C 0.86655 0.44355 0.96324 0.0
C1197 C 0.85405 0.46697 0.95569 0.0
C1198 C 0.88896 0.49509 0.97166 0.0
H1199 H 0.83654 0.46397 0.94379 0.0
H1200 H 0.89851 0.51493 0.97483 0.0
H1201 H 0.83205 0.57092 0.01347 0.0
H1202 H 0.78122 0.4996 0.01359 0.0
C1203 C 0.81185 0.4546 0.00992 0.0
C1204 C 0.8009 0.5035 0.92604 0.0
C1205 C 0.88131 0.51844 0.04164 0.0
C1206 C 0.85974 0.57251 0.9641 0.0
H1207 H 0.76849 0.4531 0.92945 0.0
H1208 H 0.77437 0.42628 0.97531 0.0
H1209 H 0.83402 0.43706 0.06018 0.0
H1210 H 0.87148 0.47287 0.07768 0.0
H1211 H 0.91368 0.56805 0.03702 0.0
H1212 H 0.90274 0.59744 0.99369 0.0
H1213 H 0.83506 0.59176 0.91653 0.0
H1214 H 0.80249 0.55326 0.89563 0.0
H1215 H 0.82113 0.5793 0.06063 0.0
H1216 H 0.76942 0.50707 0.06028 0.0
H1217 H 0.92442 0.47488 0.98273 0.0
H1218 H 0.85663 0.42379 0.95965 0.0
C1219 C 0.72946 0.56134 0.29004 0.0
C1220 C 0.70423 0.55072 0.28395 0.0
C1221 C 0.6989 0.55874 0.25772 0.0
C1222 C 0.72113 0.57379 0.24916 0.0
N1223 N 0.74009 0.57531 0.26833 0.0
Co1224 Co 0.77397 0.5975 0.26639 0.0
N1225 N 0.76189 0.61977 0.23573 0.0
C1226 C 0.74131 0.6129 0.21929 0.0
C1227 C 0.7384 0.63171 0.19891 0.0
C1228 C 0.75872 0.65117 0.20254 0.0
C1229 C 0.7728 0.64327 0.22514 0.0
N1230 N 0.80747 0.62023 0.26702 0.0
C1231 C 0.81303 0.64516 0.25632 0.0
C1232 C 0.83855 0.65468 0.26341 0.0
C1233 C 0.84963 0.6344 0.27774 0.0
C1234 C 0.83025 0.61391 0.27911 0.0
N1235 N 0.78656 0.57448 0.29641 0.0
C1236 C 0.81197 0.57159 0.30358 0.0
C1237 C 0.81448 0.55657 0.32681 0.0
C1238 C 0.7892 0.54995 0.33504 0.0
C1239 C 0.77241 0.56069 0.31584 0.0
N1240 N 0.78841 0.5732 0.23802 0.0
C1241 C 0.79191 0.55485 0.18376 0.0
C1242 C 0.80947 0.57529 0.19371 0.0
C1243 C 0.8075 0.58405 0.22059 0.0
C1244 C 0.77508 0.54105 0.20256 0.0
C1245 C 0.77438 0.54992 0.22982 0.0
N1246 N 0.75868 0.62295 0.29193 0.0
C1247 C 0.76213 0.65447 0.32928 0.0
C1248 C 0.73921 0.66698 0.32042 0.0
C1249 C 0.72587 0.6562 0.29786 0.0
C1250 C 0.73524 0.63372 0.28475 0.0
C1251 C 0.77181 0.6327 0.31445 0.0
H1252 H 0.72387 0.62601 0.26784 0.0
H1253 H 0.79025 0.62442 0.32053 0.0
H1254 H 0.82019 0.6014 0.22575 0.0
H1255 H 0.76086 0.53909 0.24349 0.0
C1256 C 0.7232 0.59103 0.22618 0.0
C1257 C 0.7433 0.55741 0.31625 0.0
C1258 C 0.79708 0.65768 0.23528 0.0
C1259 C 0.83168 0.59017 0.29435 0.0
H1260 H 0.69098 0.5389 0.29725 0.0
H1261 H 0.68041 0.55535 0.24687 0.0
H1262 H 0.72307 0.63162 0.18357 0.0
H1263 H 0.76279 0.66905 0.19 0.0
H1264 H 0.84869 0.67375 0.25781 0.0
H1265 H 0.86929 0.63476 0.28646 0.0
H1266 H 0.83242 0.55342 0.33813 0.0
H1267 H 0.78427 0.53951 0.3538 0.0
H1268 H 0.82345 0.58591 0.18018 0.0
H1269 H 0.76184 0.52428 0.19602 0.0
H1270 H 0.77309 0.66232 0.34672 0.0
H1271 H 0.70827 0.66526 0.29021 0.0
C1272 C 0.20085 0.32468 0.13132 0.0
C1273 C 0.2272 0.31664 0.13229 0.0
C1274 C 0.22957 0.33011 0.17998 0.0
C1275 C 0.20163 0.33131 0.18055 0.0
N1276 N 0.15995 0.32571 0.15583 0.0
N1277 N 0.26692 0.31064 0.15831 0.0
C1278 C 0.18698 0.3279 0.15592 0.0
C1279 C 0.24179 0.3193 0.15681 0.0
N1280 N 0.18922 0.32974 0.10696 0.0
N1281 N 0.24432 0.33935 0.20163 0.0
H1282 H 0.27643 0.30255 0.14173 0.0
H1283 H 0.27739 0.30944 0.17646 0.0
H1284 H 0.23576 0.34808 0.21853 0.0
H1285 H 0.26494 0.34094 0.20151 0.0
H1286 H 0.17066 0.33784 0.10533 0.0
H1287 H 0.1995 0.32889 0.08869 0.0
H1288 H 0.14899 0.32018 0.13858 0.0
H1289 H 0.14838 0.32684 0.17311 0.0
C1290 C 0.98608 0.87244 0.40145 0.0
C1291 C 0.99384 0.87884 0.42847 0.0
C1292 C 0.02515 0.91469 0.41054 0.0
C1293 C 0.02049 0.90457 0.38385 0.0
N1294 N 0.99923 0.87116 0.35433 0.0
N1295 N 0.02177 0.90634 0.45899 0.0
C1296 C 1.00189 0.88244 0.37955 0.0
C1297 C 0.01352 0.90025 0.43319 0.0
N1298 N 0.96318 0.85708 0.39685 0.0
N1299 N 0.04019 0.93842 0.41412 0.0
H1300 H 0.01557 0.89538 0.47609 0.0
H1301 H 0.03642 0.92125 0.46362 0.0
H1302 H 0.05003 0.94874 0.39824 0.0
H1303 H 0.04164 0.94892 0.4324 0.0
H1304 H 0.95534 0.85353 0.37754 0.0
H1305 H 0.95064 0.85042 0.41264 0.0
H1306 H 0.98749 0.8535 0.35046 0.0
H1307 H 0.01081 0.87801 0.33788 0.0
C1308 C 0.31198 0.65164 0.65201 0.0
C1309 C 0.28658 0.66173 0.656 0.0
C1310 C 0.29585 0.6689 0.70404 0.0
C1311 C 0.32212 0.66181 0.69938 0.0
N1312 N 0.35216 0.63661 0.67318 0.0
N1313 N 0.25084 0.66579 0.68761 0.0
C1314 C 0.32883 0.64916 0.67481 0.0
C1315 C 0.27727 0.66573 0.68267 0.0
N1316 N 0.3204 0.64592 0.62647 0.0
N1317 N 0.28917 0.68046 0.72802 0.0
H1318 H 0.23703 0.66077 0.67256 0.0
H1319 H 0.2429 0.66703 0.70703 0.0
H1320 H 0.3022 0.6822 0.7444 0.0
H1321 H 0.27116 0.6893 0.73107 0.0
H1322 H 0.33974 0.64136 0.62194 0.0
H1323 H 0.30812 0.64683 0.60954 0.0
H1324 H 0.3578 0.62561 0.65634 0.0
H1325 H 0.36468 0.63538 0.68997 0.0
C1326 C 0.54885 0.11984 0.93059 0.0
C1327 C 0.53591 0.11346 0.9556 0.0
C1328 C 0.50105 0.08831 0.92912 0.0
C1329 C 0.51185 0.09934 0.90457 0.0
N1330 N 0.54263 0.13224 0.88367 0.0
N1331 N 0.49508 0.09528 0.97686 0.0
C1332 C 0.53432 0.11778 0.90607 0.0
C1333 C 0.51061 0.09882 0.95443 0.0
N1334 N 0.57554 0.12561 0.92979 0.0
N1335 N 0.48285 0.06673 0.92869 0.0
H1336 H 0.50031 0.10284 0.99575 0.0
H1337 H 0.47562 0.08713 0.97598 0.0
H1338 H 0.47584 0.05772 0.91086 0.0
H1339 H 0.47672 0.05613 0.94616 0.0
H1340 H 0.58589 0.12854 0.91162 0.0
H1341 H 0.58753 0.12392 0.9469 0.0
H1342 H 0.55827 0.14699 0.88434 0.0
H1343 H 0.53214 0.13124 0.8654 0.0
C1344 C 0.18997 0.16581 0.28634 0.0
C1345 C 0.21174 0.16593 0.2682 0.0
C1346 C 0.20302 0.21289 0.25528 0.0
C1347 C 0.17805 0.21039 0.26842 0.0
N1348 N 0.14709 0.18342 0.29604 0.0
N1349 N 0.23838 0.19011 0.23446 0.0
C1350 C 0.17147 0.18668 0.28424 0.0
C1351 C 0.21838 0.18982 0.25287 0.0
N1352 N 0.18656 0.1451 0.30478 0.0
N1353 N 0.21225 0.23733 0.24488 0.0
H1354 H 0.25068 0.17416 0.23263 0.0
H1355 H 0.24172 0.20542 0.21998 0.0
H1356 H 0.20107 0.25425 0.24458 0.0
H1357 H 0.23174 0.24137 0.23858 0.0
H1358 H 0.17224 0.1447 0.31995 0.0
H1359 H 0.19981 0.1296 0.30629 0.0
H1360 H 0.14004 0.16533 0.30522 0.0
H1361 H 0.13306 0.19815 0.29483 0.0
C1362 C 0.09092 0.86466 0.53327 0.0
C1363 C 0.07749 0.86416 0.50822 0.0
C1364 C 0.09312 0.91149 0.49969 0.0
C1365 C 0.10388 0.91297 0.52669 0.0
N1366 N 0.10459 0.89252 0.57135 0.0
N1367 N 0.07306 0.88292 0.46394 0.0
C1368 C 0.10066 0.88983 0.54402 0.0
C1369 C 0.08077 0.88642 0.49031 0.0
N1370 N 0.09335 0.84093 0.54713 0.0
N1371 N 0.093 0.93411 0.48351 0.0
H1372 H 0.06341 0.86488 0.45722 0.0
H1373 H 0.07798 0.89671 0.44842 0.0
H1374 H 0.10232 0.95276 0.4882 0.0
H1375 H 0.08262 0.93496 0.46533 0.0
H1376 H 0.10449 0.83948 0.56483 0.0
H1377 H 0.08667 0.82244 0.53868 0.0
H1378 H 0.10021 0.87681 0.58517 0.0
H1379 H 0.10914 0.91135 0.58044 0.0
C1380 C 0.33695 0.83765 0.79424 0.0
C1381 C 0.31477 0.83837 0.77689 0.0
C1382 C 0.32039 0.79083 0.76429 0.0
C1383 C 0.3463 0.79321 0.77543 0.0
N1384 N 0.37941 0.81867 0.80184 0.0
N1385 N 0.28066 0.81389 0.75154 0.0
C1386 C 0.35437 0.81621 0.79139 0.0
C1387 C 0.30473 0.81416 0.76413 0.0
N1388 N 0.34187 0.85827 0.81234 0.0
N1389 N 0.31146 0.76656 0.75321 0.0
H1390 H 0.26907 0.83076 0.7514 0.0
H1391 H 0.27169 0.79708 0.74182 0.0
H1392 H 0.32279 0.74944 0.75335 0.0
H1393 H 0.29261 0.76272 0.74523 0.0
H1394 H 0.35673 0.85809 0.82698 0.0
H1395 H 0.32926 0.87428 0.81422 0.0
H1396 H 0.38744 0.83647 0.81071 0.0
H1397 H 0.39288 0.80351 0.80011 0.0
C1398 C 0.43542 0.07464 0.09205 0.0
C1399 C 0.43487 0.05263 0.07365 0.0
C1400 C 0.4754 0.07221 0.05307 0.0
C1401 C 0.47128 0.09731 0.06589 0.0
N1402 N 0.4461 0.12278 0.09766 0.0
N1403 N 0.45438 0.03121 0.0348 0.0
C1404 C 0.4511 0.0986 0.08575 0.0
C1405 C 0.45517 0.05125 0.05392 0.0
N1406 N 0.41959 0.07302 0.11445 0.0
N1407 N 0.49895 0.06799 0.04096 0.0
H1408 H 0.44041 0.01491 0.03473 0.0
H1409 H 0.46693 0.0318 0.018 0.0
H1410 H 0.51485 0.0821 0.04277 0.0
H1411 H 0.50359 0.0493 0.0328 0.0
H1412 H 0.42027 0.08773 0.12965 0.0
H1413 H 0.40771 0.05548 0.11882 0.0
H1414 H 0.42997 0.12529 0.11033 0.0
H1415 H 0.45686 0.14082 0.09305 0.0
C1416 C 0.08609 0.01734 0.4172 0.0
C1417 C 0.08863 1.00159 0.39329 0.0
C1418 C 0.12997 0.98609 0.41229 0.0
C1419 C 0.12387 0.99638 0.43805 0.0
N1420 N 0.09027 0.01563 0.46598 0.0
N1421 N 0.11063 0.96339 0.37389 0.0
C1422 C 0.0998 0.00969 0.44099 0.0
C1423 C 0.10963 0.98329 0.39285 0.0
N1424 N 0.07394 0.04136 0.4167 0.0
N1425 N 0.15504 0.97938 0.40595 0.0
H1426 H 0.09562 0.9599 0.35998 0.0
H1427 H 0.12493 0.94887 0.3742 0.0
H1428 H 0.17095 0.98247 0.41926 0.0
H1429 H 0.16024 0.97353 0.38642 0.0
H1430 H 0.07339 0.0539 0.43372 0.0
H1431 H 0.06775 0.05015 0.39864 0.0
H1432 H 0.0993 0.00937 0.48384 0.0
H1433 H 0.07217 0.02454 0.4684 0.0
C1434 C 0.21357 0.78857 0.66415 0.0
C1435 C 0.22879 0.76533 0.663 0.0
C1436 C 0.26731 0.79419 0.67905 0.0
C1437 C 0.25275 0.81781 0.67459 0.0
N1438 N 0.21392 0.83673 0.65515 0.0
N1439 N 0.27098 0.74583 0.67166 0.0
C1440 C 0.2265 0.81468 0.66459 0.0
C1441 C 0.25595 0.768 0.6712 0.0
N1442 N 0.1866 0.78559 0.66468 0.0
N1443 N 0.29149 0.79653 0.69152 0.0
H1444 H 0.26339 0.72606 0.66874 0.0
H1445 H 0.29142 0.74696 0.67422 0.0
H1446 H 0.30042 0.81501 0.69782 0.0
H1447 H 0.30204 0.78004 0.69773 0.0
H1448 H 0.17463 0.802 0.6673 0.0
H1449 H 0.17666 0.76639 0.66542 0.0
H1450 H 0.19533 0.83498 0.64594 0.0
H1451 H 0.22336 0.85614 0.65386 0.0
C1452 C 0.44356 0.99 0.95339 0.0
C1453 C 0.41853 0.00185 0.95202 0.0
C1454 C 0.43044 0.01835 0.90698 0.0
C1455 C 0.45278 0.00191 0.90571 0.0
N1456 N 0.47139 0.96244 0.92653 0.0
N1457 N 0.38508 0.01658 0.92066 0.0
C1458 C 0.45726 0.98511 0.92872 0.0
C1459 C 0.41092 0.01263 0.9267 0.0
N1460 N 0.45403 0.98278 0.97766 0.0
N1461 N 0.42709 0.039 0.88909 0.0
H1462 H 0.36962 0.0108 0.93366 0.0
H1463 H 0.37907 0.02278 0.90143 0.0
H1464 H 0.41168 0.05218 0.89076 0.0
H1465 H 0.4411 0.04441 0.87462 0.0
H1466 H 0.4729 0.97532 0.97915 0.0
H1467 H 0.44455 0.98611 0.99602 0.0
H1468 H 0.47345 0.94897 0.94274 0.0
H1469 H 0.47776 0.95545 0.90784 0.0
C1470 C 0.32724 0.18792 0.15538 0.0
C1471 C 0.30885 0.18281 0.17695 0.0
C1472 C 0.31632 0.23046 0.19129 0.0
C1473 C 0.33081 0.23575 0.16724 0.0
N1474 N 0.36533 0.21688 0.14157 0.0
N1475 N 0.29913 0.19597 0.22288 0.0
C1476 C 0.3421 0.21325 0.15513 0.0
C1477 C 0.3076 0.20307 0.19752 0.0
N1478 N 0.32888 0.17056 0.13402 0.0
N1479 N 0.30854 0.25184 0.20618 0.0
H1480 H 0.29527 0.1756 0.22822 0.0
H1481 H 0.29913 0.20971 0.23894 0.0
H1482 H 0.31485 0.27183 0.2011 0.0
H1483 H 0.29525 0.24962 0.22229 0.0
H1484 H 0.34106 0.17516 0.11736 0.0
H1485 H 0.31604 0.15347 0.13141 0.0
H1486 H 0.3746 0.20083 0.13244 0.0
H1487 H 0.37621 0.23552 0.14267 0.0
C1488 C 0.77566 0.34906 0.85834 0.0
C1489 C 0.753 0.35274 0.84174 0.0
C1490 C 0.73536 0.30709 0.85418 0.0
C1491 C 0.75714 0.30448 0.8718 0.0
N1492 N 0.80255 0.31692 0.88169 0.0
N1493 N 0.71709 0.33095 0.81596 0.0
C1494 C 0.77922 0.32312 0.86992 0.0
C1495 C 0.73455 0.33038 0.8371 0.0
N1496 N 0.7922 0.37085 0.86539 0.0
N1497 N 0.71517 0.28766 0.85458 0.0
H1498 H 0.71706 0.34705 0.80214 0.0
H1499 H 0.70457 0.31433 0.81047 0.0
H1500 H 0.71672 0.26987 0.86582 0.0
H1501 H 0.69715 0.28957 0.84468 0.0
H1502 H 0.80752 0.36952 0.87939 0.0
H1503 H 0.7888 0.39083 0.8597 0.0
H1504 H 0.81992 0.32918 0.8797 0.0
H1505 H 0.80484 0.29808 0.89103 0.0
C1506 C 0.91622 0.5371 0.10848 0.0
C1507 C 0.93893 0.52159 0.1063 0.0
C1508 C 0.92693 0.51015 0.05958 0.0
C1509 C 0.90162 0.52047 0.06379 0.0
N1510 N 0.87213 0.54494 0.09185 0.0
N1511 N 0.96606 0.49272 0.08008 0.0
C1512 C 0.8963 0.5345 0.08811 0.0
C1513 C 0.94448 0.50813 0.08184 0.0
N1514 N 0.91381 0.55408 0.13012 0.0
N1515 N 0.93465 0.50342 0.03409 0.0
H1516 H 0.97984 0.49134 0.09572 0.0
H1517 H 0.96937 0.48011 0.06366 0.0
H1518 H 0.92271 0.50609 0.01724 0.0
H1519 H 0.95374 0.49819 0.02927 0.0
H1520 H 0.89882 0.56763 0.13193 0.0
H1521 H 0.92827 0.55627 0.1452 0.0
H1522 H 0.86591 0.55276 0.11022 0.0
H1523 H 0.8576 0.5443 0.07684 0.0
C1524 C 0.7416 0.73802 0.3515 0.0
C1525 C 0.7184 0.73586 0.36725 0.0
C1526 C 0.70426 0.69369 0.34434 0.0
C1527 C 0.73025 0.69248 0.33327 0.0
N1528 N 0.77066 0.71696 0.31933 0.0
N1529 N 0.67285 0.72116 0.36808 0.0
C1530 C 0.74789 0.71604 0.3343 0.0
C1531 C 0.69779 0.71739 0.35899 0.0
N1532 N 0.75689 0.76156 0.35255 0.0
N1533 N 0.68698 0.67129 0.34387 0.0
H1534 H 0.66896 0.73797 0.38008 0.0
H1535 H 0.65623 0.70931 0.36192 0.0
H1536 H 0.69168 0.65262 0.3358 0.0
H1537 H 0.66878 0.67039 0.35373 0.0
H1538 H 0.77294 0.76586 0.33986 0.0
H1539 H 0.75159 0.77778 0.36453 0.0
H1540 H 0.78576 0.7321 0.32092 0.0
H1541 H 0.77447 0.7023 0.30481 0.0
C1542 C 0.80715 0.70759 0.22935 0.0
C1543 C 0.81031 0.68086 0.22009 0.0
C1544 C 0.85503 0.69367 0.20431 0.0
C1545 C 0.85262 0.72006 0.21532 0.0
N1546 N 0.82271 0.75484 0.22629 0.0
N1547 N 0.83216 0.65142 0.18972 0.0
C1548 C 0.82742 0.72796 0.224 0.0
C1549 C 0.83241 0.6752 0.20389 0.0
N1550 N 0.78549 0.7131 0.2444 0.0
N1551 N 0.87912 0.68563 0.19608 0.0
H1552 H 0.81553 0.63788 0.18948 0.0
H1553 H 0.84706 0.64666 0.17627 0.0
H1554 H 0.89618 0.69851 0.19656 0.0
H1555 H 0.88252 0.66568 0.19058 0.0
H1556 H 0.78369 0.73145 0.25457 0.0
H1557 H 0.7699 0.69861 0.24758 0.0
H1558 H 0.80426 0.76187 0.23114 0.0
H1559 H 0.8364 0.76983 0.21946 0.0
C1560 C 0.65005 0.34071 0.75697 0.0
C1561 C 0.65412 0.31745 0.74113 0.0
C1562 C 0.69321 0.34196 0.72207 0.0
C1563 C 0.69284 0.36189 0.74285 0.0
N1564 N 0.67212 0.37422 0.78526 0.0
N1565 N 0.68523 0.29397 0.71345 0.0
C1566 C 0.67178 0.35919 0.76214 0.0
C1567 C 0.67762 0.31725 0.72535 0.0
N1568 N 0.62553 0.34561 0.76672 0.0
N1569 N 0.7056 0.34743 0.69798 0.0
H1570 H 0.67512 0.27514 0.71652 0.0
H1571 H 0.703 0.29338 0.70279 0.0
H1572 H 0.71375 0.3668 0.69311 0.0
H1573 H 0.70462 0.33361 0.68193 0.0
H1574 H 0.62174 0.36352 0.77697 0.0
H1575 H 0.60871 0.3333 0.76196 0.0
H1576 H 0.65783 0.37127 0.8004 0.0
H1577 H 0.68802 0.38733 0.79039 0.0
C1578 C 0.45196 0.61655 0.53607 0.0
C1579 C 0.46638 0.60992 0.51286 0.0
C1580 C 0.4759 0.56649 0.53387 0.0
C1581 C 0.47068 0.57835 0.55954 0.0
N1582 N 0.44886 0.61253 0.58496 0.0
N1583 N 0.48295 0.57504 0.48537 0.0
C1584 C 0.45654 0.60244 0.56062 0.0
C1585 C 0.47458 0.58315 0.51016 0.0
N1586 N 0.435 0.637 0.53457 0.0
N1587 N 0.48292 0.54012 0.5325 0.0
H1588 H 0.48188 0.58784 0.46845 0.0
H1589 H 0.49075 0.55629 0.48156 0.0
H1590 H 0.48321 0.52757 0.54959 0.0
H1591 H 0.48666 0.53012 0.51447 0.0
H1592 H 0.422 0.64122 0.55017 0.0
H1593 H 0.43222 0.64747 0.51641 0.0
H1594 H 0.44105 0.6316 0.58698 0.0
H1595 H 0.45139 0.60224 0.60328 0.0
C1596 C 0.68658 0.21923 0.85748 0.0
C1597 C 0.66792 0.23196 0.8743 0.0
C1598 C 0.63224 0.21347 0.84528 0.0
C1599 C 0.65104 0.20627 0.82534 0.0
N1600 N 0.6964 0.19995 0.81363 0.0
N1601 N 0.6229 0.24278 0.88297 0.0
C1602 C 0.67834 0.20838 0.83193 0.0
C1603 C 0.64077 0.22968 0.86771 0.0
N1604 N 0.712 0.21681 0.8662 0.0
N1605 N 0.60656 0.20353 0.84418 0.0
H1606 H 0.62819 0.25411 0.90018 0.0
H1607 H 0.60323 0.2443 0.8771 0.0
H1608 H 0.59903 0.19035 0.82941 0.0
H1609 H 0.59321 0.20586 0.85998 0.0
H1610 H 0.72549 0.20489 0.85652 0.0
H1611 H 0.71933 0.22547 0.8841 0.0
H1612 H 0.7167 0.20441 0.8153 0.0
H1613 H 0.69082 0.18919 0.79613 0.0
C1614 C 0.01467 0.40895 0.07271 0.0
C1615 C 0.02724 0.40984 0.09844 0.0
C1616 C 0.05836 0.37692 0.08258 0.0
C1617 C 0.04163 0.37102 0.06013 0.0
N1618 N 0.00743 0.3854 0.03014 0.0
N1619 N 0.06232 0.3961 0.12782 0.0
C1620 C 0.02113 0.38858 0.05383 0.0
C1621 C 0.04983 0.39459 0.10322 0.0
N1622 N 0.99707 0.42806 0.06617 0.0
N1623 N 0.08193 0.36477 0.08433 0.0
H1624 H 0.05662 0.40894 0.14331 0.0
H1625 H 0.07719 0.3834 0.13355 0.0
H1626 H 0.08809 0.35171 0.0692 0.0
H1627 H 0.0961 0.36939 0.0992 0.0
H1628 H 0.99009 0.43121 0.0466 0.0
H1629 H 0.99082 0.44223 0.08007 0.0
H1630 H 0.99007 0.39494 0.02579 0.0
H1631 H 0.01382 0.37344 0.01442 0.0
C1632 C 0.82022 0.80659 0.33362 0.0
C1633 C 0.83281 0.78753 0.35071 0.0
C1634 C 0.87488 0.80084 0.3287 0.0
C1635 C 0.8613 0.81438 0.30768 0.0
N1636 N 0.82063 0.83153 0.29108 0.0
N1637 N 0.87275 0.7659 0.3634 0.0
C1638 C 0.83378 0.81755 0.31043 0.0
C1639 C 0.86025 0.78425 0.34766 0.0
N1640 N 0.79596 0.81554 0.34017 0.0
N1641 N 0.90151 0.80528 0.33217 0.0
H1642 H 0.86336 0.75442 0.37876 0.0
H1643 H 0.89211 0.76066 0.35975 0.0
H1644 H 0.91311 0.81883 0.32051 0.0
H1645 H 0.91167 0.79806 0.3489 0.0
H1646 H 0.7874 0.83157 0.33015 0.0
H1647 H 0.78531 0.80898 0.35719 0.0
H1648 H 0.80005 0.83117 0.28979 0.0
H1649 H 0.83041 0.84266 0.27566 0.0
C1650 C 0.55818 0.50607 0.56006 0.0
C1651 C 0.55764 0.48708 0.58188 0.0
C1652 C 0.60061 0.47146 0.56776 0.0
C1653 C 0.60099 0.49008 0.54555 0.0
N1654 N 0.57816 0.52148 0.51751 0.0
N1655 N 0.575 0.44764 0.60304 0.0
C1656 C 0.57902 0.50613 0.54065 0.0
C1657 C 0.57757 0.46808 0.58419 0.0
N1658 N 0.53956 0.52513 0.559 0.0
N1659 N 0.62288 0.45831 0.57424 0.0
H1660 H 0.55886 0.44544 0.61614 0.0
H1661 H 0.58757 0.43159 0.60408 0.0
H1662 H 0.6404 0.46088 0.56328 0.0
H1663 H 0.62484 0.4468 0.59184 0.0
H1664 H 0.54058 0.54188 0.54594 0.0
H1665 H 0.52362 0.52477 0.57239 0.0
H1666 H 0.56168 0.53182 0.51165 0.0
H1667 H 0.59332 0.52236 0.50314 0.0
C1668 C 0.92481 0.3995 0.02705 0.0
C1669 C 0.92371 0.37459 0.01266 0.0
C1670 C 0.9033 0.39669 0.97397 0.0
C1671 C 0.90316 0.42159 0.98847 0.0
N1672 N 0.90716 0.44373 0.03224 0.0
N1673 N 0.90342 0.34754 0.97694 0.0
C1674 C 0.91185 0.42209 0.01611 0.0
C1675 C 0.9095 0.37258 0.98788 0.0
N1676 N 0.93911 0.40212 0.05051 0.0
N1677 N 0.89965 0.3963 0.94649 0.0
H1678 H 0.90836 0.32962 0.9867 0.0
H1679 H 0.89139 0.34469 0.95988 0.0
H1680 H 0.8977 0.41396 0.93502 0.0
H1681 H 0.90178 0.37893 0.9348 0.0
H1682 H 0.94285 0.42068 0.0603 0.0
H1683 H 0.94852 0.38609 0.05952 0.0
H1684 H 0.91038 0.44392 0.05313 0.0
H1685 H 0.89762 0.46047 0.02524 0.0
C1686 C 0.57066 0.56203 0.44631 0.0
C1687 C 0.59236 0.56199 0.42854 0.0
C1688 C 0.59124 0.61125 0.42212 0.0
C1689 C 0.57366 0.61194 0.44462 0.0
N1690 N 0.54395 0.5881 0.4762 0.0
N1691 N 0.61646 0.58306 0.39194 0.0
C1692 C 0.5621 0.58729 0.45576 0.0
C1693 C 0.59975 0.58559 0.41337 0.0
N1694 N 0.55874 0.53773 0.45427 0.0
N1695 N 0.60107 0.63504 0.41057 0.0
H1696 H 0.62275 0.56397 0.38631 0.0
H1697 H 0.6227 0.59892 0.37902 0.0
H1698 H 0.59568 0.65412 0.41696 0.0
H1699 H 0.61518 0.63617 0.39524 0.0
H1700 H 0.54131 0.53595 0.46548 0.0
H1701 H 0.56516 0.51923 0.44721 0.0
H1702 H 0.53809 0.57124 0.48802 0.0
H1703 H 0.53545 0.60597 0.48215 0.0
C1704 C 0.03353 0.13965 0.27538 0.0
C1705 C 0.05438 0.12282 0.26823 0.0
C1706 C 0.08291 0.16377 0.25765 0.0
C1707 C 0.06299 0.18061 0.26741 0.0
N1708 N 0.01977 0.185 0.28662 0.0
N1709 N 0.09944 0.11839 0.25413 0.0
C1710 C 0.03833 0.16863 0.27643 0.0
C1711 C 0.07914 0.1348 0.25954 0.0
N1712 N 0.00907 0.12777 0.28102 0.0
N1713 N 0.10542 0.17551 0.24628 0.0
H1714 H 0.09701 0.09717 0.25375 0.0
H1715 H 0.11897 0.12559 0.25137 0.0
H1716 H 0.10953 0.19651 0.2457 0.0
H1717 H 0.11938 0.16471 0.23599 0.0
H1718 H 0.99223 0.13859 0.28404 0.0
H1719 H 0.0051 0.10671 0.28068 0.0
H1720 H 0.0025 0.17774 0.29626 0.0
H1721 H 0.02233 0.20621 0.28681 0.0
C1722 C 0.13309 0.71189 0.56554 0.0
C1723 C 0.15024 0.72245 0.54426 0.0
C1724 C 0.1147 0.75134 0.52917 0.0
C1725 C 0.0974 0.74047 0.54982 0.0
N1726 N 0.0888 0.70711 0.58495 0.0
N1727 N 0.15275 0.74462 0.50066 0.0
C1728 C 0.10622 0.71967 0.56708 0.0
C1729 C 0.13971 0.74006 0.52465 0.0
N1730 N 0.14247 0.695 0.585 0.0
N1731 N 0.1074 0.77282 0.51384 0.0
H1732 H 0.17046 0.73574 0.4961 0.0
H1733 H 0.14471 0.75486 0.48431 0.0
H1734 H 0.089 0.78094 0.51576 0.0
H1735 H 0.12031 0.78378 0.50085 0.0
H1736 H 0.13254 0.69016 0.60301 0.0
H1737 H 0.16099 0.68705 0.58443 0.0
H1738 H 0.09247 0.68926 0.59541 0.0
H1739 H 0.06972 0.71346 0.58805 0.0
C1740 C 0.46213 0.88467 0.75809 0.0
C1741 C 0.48707 0.89606 0.76676 0.0
C1742 C 0.50393 0.84998 0.76982 0.0
C1743 C 0.47884 0.83864 0.76139 0.0
N1744 N 0.43635 0.84532 0.74107 0.0
N1745 N 0.53322 0.89061 0.77554 0.0
C1746 C 0.45872 0.85613 0.7534 0.0
C1747 C 0.50852 0.87898 0.77071 0.0
N1748 N 0.44123 0.901 0.75569 0.0
N1749 N 0.52283 0.83304 0.77832 0.0
H1750 H 0.53695 0.91169 0.77656 0.0
H1751 H 0.55026 0.87971 0.7763 0.0
H1752 H 0.52021 0.81186 0.77747 0.0
H1753 H 0.54047 0.8398 0.78759 0.0
H1754 H 0.42173 0.89341 0.75368 0.0
H1755 H 0.44319 0.92217 0.75746 0.0
H1756 H 0.42196 0.85701 0.73241 0.0
H1757 H 0.43336 0.82455 0.73729 0.0
C1758 C 0.3808 0.22382 0.02642 0.0
C1759 C 0.3671 0.23562 0.04819 0.0
C1760 C 0.40922 0.23985 0.07423 0.0
C1761 C 0.42263 0.22688 0.05306 0.0
N1762 N 0.42055 0.20318 0.01036 0.0
N1763 N 0.36794 0.25403 0.09272 0.0
C1764 C 0.40821 0.21797 0.0295 0.0
C1765 C 0.38141 0.24312 0.07208 0.0
N1766 N 0.36798 0.2195 0.00228 0.0
N1767 N 0.42303 0.2482 0.0969 0.0
H1768 H 0.34767 0.24972 0.09429 0.0
H1769 H 0.37652 0.26638 0.10776 0.0
H1770 H 0.44355 0.24757 0.09849 0.0
H1771 H 0.41453 0.25572 0.11431 0.0
H1772 H 0.37738 0.21402 0.98451 0.0
H1773 H 0.348 0.22306 0.99964 0.0
H1774 H 0.41072 0.19329 0.99433 0.0
H1775 H 0.44058 0.19935 0.01148 0.0
C1776 C 0.30782 0.01382 0.14862 0.0
C1777 C 0.28786 0.03189 0.15531 0.0
C1778 C 0.27454 0.03052 0.10709 0.0
C1779 C 0.29821 0.01859 0.09964 0.0
N1780 N 0.33949 1.0011 0.11494 0.0
N1781 N 0.25521 0.06192 0.13726 0.0
C1782 C 0.31555 0.01096 0.1209 0.0
C1783 C 0.27223 0.04172 0.13343 0.0
N1784 N 0.318 0.99768 0.16818 0.0
N1785 N 0.25348 0.02982 0.08972 0.0
H1786 H 0.25312 0.07178 0.15562 0.0
H1787 H 0.24521 0.07072 0.12121 0.0
H1788 H 0.25386 0.02014 0.07092 0.0
H1789 H 0.23499 0.03628 0.09535 0.0
H1790 H 0.33084 0.98241 0.16378 0.0
H1791 H 0.31145 0.9977 0.18824 0.0
H1792 H 0.35365 0.99761 0.12976 0.0
H1793 H 0.34592 0.99873 0.09513 0.0
C1794 C 0.25084 0.00947 0.38227 0.0
C1795 C 0.23042 0.0191 0.39886 0.0
C1796 C 0.21324 0.04323 0.35906 0.0
C1797 C 0.23209 0.03129 0.34203 0.0
N1798 N 0.26395 0.99692 0.33699 0.0
N1799 N 0.188 0.03944 0.40077 0.0
C1800 C 0.24935 0.01247 0.35355 0.0
C1801 C 0.21034 0.03428 0.38658 0.0
N1802 N 0.27238 0.99853 0.39392 0.0
N1803 N 0.19897 0.06409 0.34959 0.0
H1804 H 0.18463 0.03279 0.42064 0.0
H1805 H 0.1716 0.0478 0.39182 0.0
H1806 H 0.20097 0.072 0.33 0.0
H1807 H 0.18702 0.07529 0.36205 0.0
H1808 H 0.28897 0.99359 0.38286 0.0
H1809 H 0.27491 0.99716 0.41488 0.0
H1810 H 0.27505 0.98116 0.34421 0.0
H1811 H 0.2626 0.99776 0.31587 0.0
C1812 C 0.26196 0.94911 0.63379 0.0
C1813 C 0.24679 0.96009 0.6551 0.0
C1814 C 0.21898 0.97961 0.61976 0.0
C1815 C 0.23661 0.97184 0.59892 0.0
N1816 N 0.28105 0.95901 0.58976 0.0
N1817 N 0.2176 0.99578 0.66595 0.0
C1818 C 0.26003 0.95958 0.60701 0.0
C1819 C 0.22699 0.97812 0.64754 0.0
N1820 N 0.27827 0.92856 0.63888 0.0
N1821 N 0.19463 0.98839 0.61338 0.0
H1822 H 0.22524 0.99757 0.68557 0.0
H1823 H 0.20465 0.01071 0.66059 0.0
H1824 H 0.1875 0.98889 0.59355 0.0
H1825 H 0.18073 0.99249 0.62821 0.0
H1826 H 0.2884 0.91894 0.62354 0.0
H1827 H 0.27908 0.91933 0.65782 0.0
H1828 H 0.29929 0.95211 0.59581 0.0
H1829 H 0.28088 0.96783 0.57045 0.0
C1830 C 0.26453 0.97102 0.86121 0.0
C1831 C 0.28204 0.98754 0.84472 0.0
C1832 C 0.2965 0.01355 0.88504 0.0
C1833 C 0.28318 0.99364 0.90185 0.0
N1834 N 0.25366 0.95387 0.90644 0.0
N1835 N 0.31418 0.0252 0.84035 0.0
C1836 C 0.26641 0.97284 0.89005 0.0
C1837 C 0.29747 0.00943 0.85642 0.0
N1838 N 0.24643 0.9533 0.84909 0.0
N1839 N 0.30869 0.03608 0.89677 0.0
H1840 H 0.3146 0.02319 0.81928 0.0
H1841 H 0.32837 0.03937 0.84783 0.0
H1842 H 0.30818 0.03937 0.91767 0.0
H1843 H 0.31719 0.05247 0.88583 0.0
H1844 H 0.23165 0.9421 0.8596 0.0
H1845 H 0.24477 0.9516 0.82804 0.0
H1846 H 0.24374 0.9362 0.8993 0.0
H1847 H 0.25397 0.95532 0.92755 0.0
C1848 C 0.14088 0.251 0.98717 0.0
C1849 C 0.12444 0.26459 0.00564 0.0
C1850 C 0.16458 0.28547 0.02654 0.0
C1851 C 0.18098 0.27534 0.00581 0.0
N1852 N 0.18187 0.25424 0.9616 0.0
N1853 N 0.12206 0.30301 0.03597 0.0
C1854 C 0.1683 0.25976 0.98465 0.0
C1855 C 0.13671 0.28442 0.02311 0.0
N1856 N 0.1309 0.22903 0.9729 0.0
N1857 N 0.17507 0.29454 0.05053 0.0
H1858 H 0.10189 0.30464 0.03237 0.0
H1859 H 0.13075 0.31891 0.04746 0.0
H1860 H 0.19498 0.2935 0.05533 0.0
H1861 H 0.1632 0.2995 0.06687 0.0
H1862 H 0.14273 0.2172 0.96092 0.0
H1863 H 0.1116 0.22088 0.97544 0.0
H1864 H 0.17284 0.24479 0.94482 0.0
H1865 H 0.20115 0.26202 0.95809 0.0
C1866 C 0.65198 0.25375 0.00387 0.0
C1867 C 0.67065 0.23546 0.01468 0.0
C1868 C 0.63284 0.20768 0.03331 0.0
C1869 C 0.61446 0.22691 0.02404 0.0
N1870 N 0.60962 0.27338 0.01019 0.0
N1871 N 0.67728 0.20249 0.04992 0.0
C1872 C 0.62486 0.25131 0.0119 0.0
C1873 C 0.66066 0.21434 0.03211 0.0
N1874 N 0.65969 0.27394 0.98611 0.0
N1875 N 0.6241 0.18309 0.04386 0.0
H1876 H 0.69721 0.20885 0.05177 0.0
H1877 H 0.67059 0.18891 0.06506 0.0
H1878 H 0.60425 0.17725 0.04655 0.0
H1879 H 0.63681 0.1676 0.04805 0.0
H1880 H 0.64623 0.28486 0.97499 0.0
H1881 H 0.67915 0.27898 0.98124 0.0
H1882 H 0.61715 0.29271 0.00439 0.0
H1883 H 0.59026 0.27317 0.01746 0.0
C1884 C 0.08804 0.39742 0.22404 0.0
C1885 C 0.07336 0.37797 0.24072 0.0
C1886 C 0.0458 0.41563 0.25401 0.0
C1887 C 0.05588 0.4316 0.23199 0.0
N1888 N 0.10178 0.44415 0.2286 0.0
N1889 N 0.03589 0.36978 0.2707 0.0
C1890 C 0.0816 0.42519 0.22442 0.0
C1891 C 0.05171 0.38756 0.25581 0.0
N1892 N 0.10889 0.3905 0.20861 0.0
N1893 N 0.03132 0.42756 0.27348 0.0
H1894 H 0.03879 0.34893 0.27153 0.0
H1895 H 0.01864 0.3755 0.28016 0.0
H1896 H 0.02784 0.44832 0.27252 0.0
H1897 H 0.02508 0.41749 0.2912 0.0
H1898 H 0.11912 0.40486 0.19629 0.0
H1899 H 0.11429 0.37065 0.20607 0.0
H1900 H 0.12163 0.43956 0.22702 0.0
H1901 H 0.09826 0.46331 0.23653 0.0
C1902 C 0.89913 0.77984 0.48178 0.0
C1903 C 0.90855 0.76632 0.50517 0.0
C1904 C 0.8624 0.75618 0.51923 0.0
C1905 C 0.8529 0.76651 0.49432 0.0
N1906 N 0.86319 0.7849 0.44994 0.0
N1907 N 0.89856 0.73503 0.54194 0.0
C1908 C 0.87158 0.77749 0.47507 0.0
C1909 C 0.88994 0.75235 0.52251 0.0
N1910 N 0.91632 0.79559 0.46629 0.0
N1911 N 0.84506 0.74995 0.53982 0.0
H1912 H 0.91855 0.73141 0.54445 0.0
H1913 H 0.88572 0.72253 0.55366 0.0
H1914 H 0.82484 0.75285 0.53812 0.0
H1915 H 0.85116 0.74444 0.5592 0.0
H1916 H 0.91028 0.80855 0.45096 0.0
H1917 H 0.93655 0.79712 0.47005 0.0
H1918 H 0.87597 0.78987 0.43389 0.0
H1919 H 0.84332 0.78413 0.44471 0.0
C1920 C 0.35752 0.69012 0.51053 0.0
C1921 C 0.3416 0.70517 0.5281 0.0
C1922 C 0.38184 0.73147 0.54399 0.0
C1923 C 0.39768 0.7167 0.52611 0.0
N1924 N 0.40011 0.68563 0.48869 0.0
N1925 N 0.33786 0.74371 0.55759 0.0
C1926 C 0.38528 0.69718 0.50823 0.0
C1927 C 0.35359 0.72702 0.54353 0.0
N1928 N 0.34617 0.66851 0.49656 0.0
N1929 N 0.39392 0.74909 0.56212 0.0
H1930 H 0.3173 0.74104 0.55769 0.0
H1931 H 0.34485 0.7615 0.56722 0.0
H1932 H 0.41433 0.75348 0.56231 0.0
H1933 H 0.38406 0.7581 0.57796 0.0
H1934 H 0.35691 0.65445 0.48612 0.0
H1935 H 0.32582 0.66376 0.49655 0.0
H1936 H 0.39221 0.67334 0.47321 0.0
H1937 H 0.42037 0.69014 0.48667 0.0
C1938 C 0.98361 0.92065 0.23507 0.0
C1939 C 0.00533 0.92653 0.25273 0.0
C1940 C 0.01267 0.87694 0.25366 0.0
C1941 C 0.98763 0.87093 0.24164 0.0
N1942 N 0.94865 0.88853 0.22048 0.0
N1943 N 0.04131 0.9084 0.2786 0.0
C1944 C 0.97292 0.8932 0.23222 0.0
C1945 C 0.02007 0.90413 0.26188 0.0
N1946 N 0.97459 0.94091 0.21905 0.0
N1947 N 0.03026 0.85688 0.25585 0.0
H1948 H 0.05 0.92749 0.28238 0.0
H1949 H 0.04977 0.89279 0.28941 0.0
H1950 H 0.02596 0.83697 0.24927 0.0
H1951 H 0.04996 0.86059 0.26156 0.0
H1952 H 0.96072 0.9374 0.20363 0.0
H1953 H 0.98318 0.96072 0.21916 0.0
H1954 H 0.93587 0.90405 0.2167 0.0
H1955 H 0.94051 0.86924 0.21584 0.0
C1956 C 0.50768 0.11299 0.77128 0.0
C1957 C 0.5239 0.09189 0.76228 0.0
C1958 C 0.55289 0.12713 0.73985 0.0
C1959 C 0.53646 0.14808 0.74896 0.0
N1960 N 0.49228 0.15793 0.76213 0.0
N1961 N 0.55399 0.07956 0.7272 0.0
C1962 C 0.51191 0.13997 0.76097 0.0
C1963 C 0.54428 0.0991 0.74342 0.0
N1964 N 0.48858 0.10782 0.79034 0.0
N1965 N 0.57677 0.13344 0.72791 0.0
H1966 H 0.54669 0.05928 0.72783 0.0
H1967 H 0.567 0.08407 0.71121 0.0
H1968 H 0.58363 0.15313 0.72295 0.0
H1969 H 0.59049 0.11882 0.7242 0.0
H1970 H 0.47847 0.12315 0.79967 0.0
H1971 H 0.48443 0.08864 0.79846 0.0
H1972 H 0.47309 0.15229 0.76844 0.0
H1973 H 0.49456 0.17763 0.75414 0.0
C1974 C 0.54363 0.36157 0.69915 0.0
C1975 C 0.53271 0.34777 0.72236 0.0
C1976 C 0.51867 0.39209 0.73877 0.0
C1977 C 0.52621 0.40491 0.71379 0.0
N1978 N 0.53659 0.39717 0.66651 0.0
N1979 N 0.5017 0.35 0.75954 0.0
C1980 C 0.53574 0.38819 0.69277 0.0
C1981 C 0.51765 0.36304 0.74073 0.0
N1982 N 0.5628 0.35043 0.68398 0.0
N1983 N 0.51392 0.40727 0.76117 0.0
H1984 H 0.49883 0.32882 0.76028 0.0
H1985 H 0.48903 0.36035 0.77202 0.0
H1986 H 0.51677 0.42843 0.76147 0.0
H1987 H 0.51034 0.39851 0.78022 0.0
H1988 H 0.57237 0.36102 0.66809 0.0
H1989 H 0.57155 0.33248 0.68937 0.0
H1990 H 0.5419 0.38476 0.65051 0.0
H1991 H 0.5288 0.41545 0.66042 0.0
C1992 C 0.87897 0.27978 0.00662 0.0
C1993 C 0.86442 0.26452 0.98695 0.0
C1994 C 0.90636 0.24613 0.97077 0.0
C1995 C 0.92081 0.26091 0.99137 0.0
N1996 N 0.91651 0.28125 0.03604 0.0
N1997 N 0.86338 0.2302 0.95225 0.0
C1998 C 0.90596 0.27472 0.01132 0.0
C1999 C 0.87793 0.2469 0.96944 0.0
N2000 N 0.86726 0.29976 0.02073 0.0
N2001 N 0.91968 0.23031 0.95329 0.0
H2002 H 0.84279 0.23016 0.95105 0.0
H2003 H 0.87123 0.21519 0.94038 0.0
H2004 H 0.93962 0.22657 0.95585 0.0
H2005 H 0.91139 0.22144 0.93592 0.0
H2006 H 0.878 0.31371 0.03295 0.0
H2007 H 0.84748 0.30416 0.01817 0.0
H2008 H 0.90539 0.28862 0.05192 0.0
H2009 H 0.935 0.27597 0.04231 0.0
C2010 C 0.96441 0.65313 0.19541 0.0
C2011 C 0.97843 0.67098 0.21385 0.0
C2012 C 0.99499 0.6304 0.23668 0.0
C2013 C 0.98345 0.61289 0.21645 0.0
N2014 N 0.96532 0.61064 0.17095 0.0
N2015 N 0.01474 0.6754 0.24577 0.0
C2016 C 0.97071 0.62519 0.19404 0.0
C2017 C 0.9962 0.65921 0.23247 0.0
N2018 N 0.94398 0.66197 0.18022 0.0
N2019 N 0.00346 0.61997 0.26068 0.0
H2020 H 0.01742 0.69627 0.2419 0.0
H2021 H 0.02932 0.66749 0.25801 0.0
H2022 H 1.0009 0.59937 0.26572 0.0
H2023 H 0.01004 0.63232 0.27676 0.0
H2024 H 0.93186 0.6488 0.16848 0.0
H2025 H 0.93718 0.68149 0.18165 0.0
H2026 H 0.95788 0.61945 0.15344 0.0
H2027 H 0.97134 0.59089 0.16818 0.0
C2028 C 0.60872 0.77017 0.4946 0.0
C2029 C 0.59316 0.75011 0.48052 0.0
C2030 C 0.63494 0.73399 0.46211 0.0
C2031 C 0.64971 0.74816 0.48292 0.0
N2032 N 0.64712 0.77615 0.52322 0.0
N2033 N 0.59247 0.71389 0.44765 0.0
C2034 C 0.63574 0.7657 0.50012 0.0
C2035 C 0.60657 0.73234 0.46318 0.0
N2036 N 0.59733 0.79284 0.50387 0.0
N2037 N 0.64775 0.72353 0.44045 0.0
H2038 H 0.57215 0.71449 0.44512 0.0
H2039 H 0.60109 0.69799 0.43767 0.0
H2040 H 0.66811 0.72647 0.43756 0.0
H2041 H 0.63786 0.71496 0.42372 0.0
H2042 H 0.60829 0.80888 0.51308 0.0
H2043 H 0.57743 0.79614 0.50011 0.0
H2044 H 0.63679 0.78762 0.53699 0.0
H2045 H 0.66538 0.77035 0.53039 0.0
C2046 C 0.70551 0.55111 0.38439 0.0
C2047 C 0.71708 0.52766 0.39552 0.0
C2048 C 0.73676 0.51972 0.351 0.0
C2049 C 0.7297 0.54553 0.34141 0.0
N2050 N 0.70882 0.58742 0.35055 0.0
N2051 N 0.7517 0.49615 0.39071 0.0
C2052 C 0.71431 0.56169 0.35851 0.0
C2053 C 0.73504 0.51382 0.37918 0.0
N2054 N 0.68585 0.56298 0.39815 0.0
N2055 N 0.74637 0.50132 0.33343 0.0
H2056 H 0.75234 0.49275 0.41161 0.0
H2057 H 0.76654 0.48721 0.37975 0.0
H2058 H 0.7478 0.50519 0.31261 0.0
H2059 H 0.75044 0.48158 0.33938 0.0
H2060 H 0.6751 0.57856 0.39001 0.0
H2061 H 0.67882 0.55568 0.41681 0.0
H2062 H 0.70029 0.60129 0.36335 0.0
H2063 H 0.71437 0.59545 0.33164 0.0
C2064 C 0.74002 0.50989 0.59772 0.0
C2065 C 0.74835 0.48731 0.58264 0.0
C2066 C 0.77081 0.47101 0.6234 0.0
C2067 C 0.75774 0.49016 0.63941 0.0
N2068 N 0.73019 0.52839 0.642 0.0
N2069 N 0.77276 0.4468 0.58051 0.0
C2070 C 0.7429 0.51018 0.62654 0.0
C2071 C 0.76455 0.46826 0.59521 0.0
N2072 N 0.72925 0.53097 0.58432 0.0
N2073 N 0.78885 0.45519 0.6355 0.0
H2074 H 0.76925 0.44493 0.55971 0.0
H2075 H 0.78201 0.43038 0.58899 0.0
H2076 H 0.79365 0.45703 0.65605 0.0
H2077 H 0.80065 0.44218 0.62492 0.0
H2078 H 0.72452 0.54906 0.59359 0.0
H2079 H 0.7276 0.53134 0.56325 0.0
H2080 H 0.7163 0.54126 0.6343 0.0
H2081 H 0.73269 0.52972 0.66297 0.0
C2082 C 0.76994 0.48984 0.88651 0.0
C2083 C 0.79587 0.49606 0.89627 0.0
C2084 C 0.81056 0.49874 0.84837 0.0
C2085 C 0.78613 0.48641 0.83907 0.0
N2086 N 0.74308 0.46656 0.8528 0.0
N2087 N 0.84239 0.50175 0.8851 0.0
C2088 C 0.76607 0.48075 0.85924 0.0
C2089 C 0.81669 0.49876 0.87676 0.0
N2090 N 0.74861 0.49421 0.90256 0.0
N2091 N 0.8267 0.51325 0.83082 0.0
H2092 H 0.85817 0.50201 0.87148 0.0
H2093 H 0.84784 0.50122 0.9055 0.0
H2094 H 0.82127 0.51674 0.81072 0.0
H2095 H 0.84367 0.52449 0.83719 0.0
H2096 H 0.7292 0.49258 0.89536 0.0
H2097 H 0.75046 0.50224 0.92207 0.0
H2098 H 0.72938 0.45954 0.86737 0.0
H2099 H 0.73878 0.45988 0.8334 0.0
C2100 C 0.7785 0.56903 0.13621 0.0
C2101 C 0.79039 0.54981 0.15353 0.0
C2102 C 0.80521 0.52543 0.11308 0.0
C2103 C 0.79296 0.5444 0.09572 0.0
N2104 N 0.76382 0.58112 0.09085 0.0
N2105 N 0.81187 0.50764 0.15866 0.0
C2106 C 0.77847 0.56535 0.10738 0.0
C2107 C 0.80265 0.5273 0.14196 0.0
N2108 N 0.76755 0.59117 0.14741 0.0
N2109 N 0.82037 0.50626 0.1019 0.0
H2110 H 0.81146 0.50898 0.17976 0.0
H2111 H 0.8183 0.48912 0.15184 0.0
H2112 H 0.82229 0.50393 0.08106 0.0
H2113 H 0.8326 0.494 0.113 0.0
H2114 H 0.7617 0.60783 0.13624 0.0
H2115 H 0.76546 0.59356 0.16827 0.0
H2116 H 0.75053 0.59486 0.09793 0.0
H2117 H 0.76327 0.57888 0.06982 0.0
C2118 C 0.42963 0.62099 0.72163 0.0
C2119 C 0.44573 0.6438 0.7118 0.0
C2120 C 0.46767 0.61189 0.68244 0.0
C2121 C 0.45578 0.58885 0.69619 0.0
N2122 N 0.42962 0.57342 0.73478 0.0
N2123 N 0.48727 0.65699 0.68997 0.0
C2124 C 0.43762 0.59382 0.7173 0.0
C2125 C 0.46674 0.63825 0.69401 0.0
N2126 N 0.40693 0.62508 0.73544 0.0
N2127 N 0.48066 0.60848 0.65869 0.0
H2128 H 0.48895 0.67542 0.70043 0.0
H2129 H 0.50393 0.65269 0.67865 0.0
H2130 H 0.47985 0.58962 0.64918 0.0
H2131 H 0.48879 0.62481 0.64728 0.0
H2132 H 0.39357 0.60916 0.74115 0.0
H2133 H 0.4004 0.64446 0.73863 0.0
H2134 H 0.41832 0.5768 0.75199 0.0
H2135 H 0.43658 0.55389 0.73368 0.0
loop_
_geom_bond_atom_site_label_1
_geom_bond_atom_site_label_2
_geom_bond_distance
_geom_bond_site_symmetry_2
_ccdc_geom_bond_type
C0 C1 1.443 . S
C0 N4 1.376 . S
C0 C38 1.389 . S
C1 C0 1.443 . S
C1 C2 1.340 . S
C1 H41 0.951 . S
C2 C1 1.340 . S
C2 C3 1.439 . S
C2 H42 0.950 . S
C3 C2 1.439 . S
C3 N4 1.374 . S
C3 C37 1.395 . S
N4 C0 1.376 . S
N4 C3 1.374 . S
N4 Co5 2.008 . S
Co5 N4 2.008 . S
Co5 N6 1.995 . S
Co5 N11 2.008 . S
Co5 N16 1.995 . S
Co5 N21 2.282 . S
Co5 N27 2.282 . S
N6 Co5 1.995 . S
N6 C7 1.376 . S
N6 C10 1.383 . S
C7 N6 1.376 . S
C7 C8 1.446 . S
C7 C37 1.391 . S
C8 C7 1.446 . S
C8 C9 1.339 . S
C8 H43 0.949 . S
C9 C8 1.339 . S
C9 C10 1.439 . S
C9 H44 0.950 . S
C10 N6 1.383 . S
C10 C9 1.439 . S
C10 C39 1.392 . S
N11 Co5 2.008 . S
N11 C12 1.376 . S
N11 C15 1.374 . S
C12 N11 1.376 . S
C12 C13 1.443 . S
C12 C39 1.389 . S
C13 C12 1.443 . S
C13 C14 1.340 . S
C13 H45 0.951 . S
C14 C13 1.340 . S
C14 C15 1.439 . S
C14 H46 0.950 . S
C15 N11 1.374 . S
C15 C14 1.439 . S
C15 C40 1.395 . S
N16 Co5 1.995 . S
N16 C17 1.376 . S
N16 C20 1.383 . S
C17 N16 1.376 . S
C17 C18 1.446 . S
C17 C40 1.391 . S
C18 C17 1.446 . S
C18 C19 1.339 . S
C18 H47 0.949 . S
C19 C18 1.339 . S
C19 C20 1.439 . S
C19 H48 0.950 . S
C20 N16 1.383 . S
C20 C19 1.439 . S
C20 C38 1.392 . S
N21 Co5 2.282 . S
N21 C24 1.332 . S
N21 C26 1.332 . S
C22 C23 1.386 . S
C22 C25 1.388 . S
C23 C22 1.386 . S
C23 C24 1.382 . S
C23 H49 0.950 . S
C24 N21 1.332 . S
C24 C23 1.382 . S
C24 H35 0.952 . S
C25 C22 1.388 . S
C25 C26 1.382 . S
C25 H50 0.950 . S
C26 N21 1.332 . S
C26 C25 1.382 . S
C26 H36 0.948 . S
N27 Co5 2.282 . S
N27 C31 1.332 . S
N27 C32 1.332 . S
C28 C29 1.388 . S
C28 C32 1.382 . S
C28 H51 0.950 . S
C29 C28 1.388 . S
C29 C30 1.386 . S
C30 C29 1.386 . S
C30 C31 1.382 . S
C30 H52 0.950 . S
C31 N27 1.332 . S
C31 C30 1.382 . S
C31 H33 0.952 . S
C32 N27 1.332 . S
C32 C28 1.382 . S
C32 H34 0.948 . S
H33 C31 0.952 . S
H34 C32 0.948 . S
H35 C24 0.952 . S
H36 C26 0.948 . S
C37 C3 1.395 . S
C37 C7 1.391 . S
C38 C0 1.389 . S
C38 C20 1.392 . S
C39 C10 1.392 . S
C39 C12 1.389 . S
C40 C15 1.395 . S
C40 C17 1.391 . S
H41 C1 0.951 . S
H42 C2 0.950 . S
H43 C8 0.949 . S
H44 C9 0.950 . S
H45 C13 0.951 . S
H46 C14 0.950 . S
H47 C18 0.949 . S
H48 C19 0.950 . S
H49 C23 0.950 . S
H50 C25 0.950 . S
H51 C28 0.950 . S
H52 C30 0.950 . S
C53 C54 1.443 . S
C53 N57 1.376 . S
C53 C91 1.389 . S
C54 C53 1.443 . S
C54 C55 1.340 . S
C54 H94 0.951 . S
C55 C54 1.340 . S
C55 C56 1.439 . S
C55 H95 0.950 . S
C56 C55 1.439 . S
C56 N57 1.374 . S
C56 C90 1.395 1_655 S
N57 C53 1.376 . S
N57 C56 1.374 . S
N57 Co58 2.008 1_655 S
Co58 N57 2.008 1_455 S
Co58 N59 1.995 . S
Co58 N64 2.008 . S
Co58 N69 1.995 1_455 S
Co58 N74 2.282 . S
Co58 N80 2.282 1_455 S
N59 Co58 1.995 . S
N59 C60 1.376 . S
N59 C63 1.383 . S
C60 N59 1.376 . S
C60 C61 1.446 . S
C60 C90 1.391 . S
C61 C60 1.446 . S
C61 C62 1.339 . S
C61 H96 0.949 . S
C62 C61 1.339 . S
C62 C63 1.439 . S
C62 H97 0.950 . S
C63 N59 1.383 . S
C63 C62 1.439 . S
C63 C92 1.392 . S
N64 Co58 2.008 . S
N64 C65 1.376 . S
N64 C68 1.374 . S
C65 N64 1.376 . S
C65 C66 1.443 . S
C65 C92 1.389 . S
C66 C65 1.443 . S
C66 C67 1.340 . S
C66 H98 0.951 . S
C67 C66 1.340 . S
C67 C68 1.439 . S
C67 H99 0.950 . S
C68 N64 1.374 . S
C68 C67 1.439 . S
C68 C93 1.395 1_455 S
N69 Co58 1.995 1_655 S
N69 C70 1.376 . S
N69 C73 1.383 . S
C70 N69 1.376 . S
C70 C71 1.446 . S
C70 C93 1.391 . S
C71 C70 1.446 . S
C71 C72 1.339 . S
C71 H100 0.949 . S
C72 C71 1.339 . S
C72 C73 1.439 . S
C72 H101 0.950 . S
C73 N69 1.383 . S
C73 C72 1.439 . S
C73 C91 1.392 . S
N74 Co58 2.282 . S
N74 C77 1.332 . S
N74 C79 1.332 . S
C75 C76 1.386 . S
C75 C78 1.388 . S
C76 C75 1.386 . S
C76 C77 1.382 . S
C76 H102 0.950 . S
C77 N74 1.332 . S
C77 C76 1.382 . S
C77 H88 0.952 1_455 S
C78 C75 1.388 . S
C78 C79 1.382 . S
C78 H103 0.950 . S
C79 N74 1.332 . S
C79 C78 1.382 . S
C79 H89 0.948 . S
N80 Co58 2.282 1_655 S
N80 C84 1.332 . S
N80 C85 1.332 . S
C81 C82 1.388 . S
C81 C85 1.382 . S
C81 H104 0.950 . S
C82 C81 1.388 . S
C82 C83 1.386 . S
C83 C82 1.386 . S
C83 C84 1.382 . S
C83 H105 0.950 . S
C84 N80 1.332 . S
C84 C83 1.382 . S
C84 H86 0.952 1_655 S
C85 N80 1.332 . S
C85 C81 1.382 . S
C85 H87 0.948 . S
H86 C84 0.952 1_455 S
H87 C85 0.948 . S
H88 C77 0.952 1_655 S
H89 C79 0.948 . S
C90 C56 1.395 1_455 S
C90 C60 1.391 . S
C91 C53 1.389 . S
C91 C73 1.392 . S
C92 C63 1.392 . S
C92 C65 1.389 . S
C93 C68 1.395 1_655 S
C93 C70 1.391 . S
H94 C54 0.951 . S
H95 C55 0.950 . S
H96 C61 0.949 . S
H97 C62 0.950 . S
H98 C66 0.951 . S
H99 C67 0.950 . S
H100 C71 0.949 . S
H101 C72 0.950 . S
H102 C76 0.950 . S
H103 C78 0.950 . S
H104 C81 0.950 . S
H105 C83 0.950 . S
C106 C107 1.443 . S
C106 N110 1.376 . S
C106 C144 1.389 . S
C107 C106 1.443 . S
C107 C108 1.340 . S
C107 H147 0.951 . S
C108 C107 1.340 . S
C108 C109 1.439 . S
C108 H148 0.950 . S
C109 C108 1.439 . S
C109 N110 1.374 . S
C109 C143 1.395 . S
N110 C106 1.376 . S
N110 C109 1.374 . S
N110 Co111 2.008 . S
Co111 N110 2.008 . S
Co111 N112 1.995 . S
Co111 N117 2.008 . S
Co111 N122 1.995 . S
Co111 N127 2.282 . S
Co111 N133 2.282 . S
N112 Co111 1.995 . S
N112 C113 1.376 . S
N112 C116 1.383 . S
C113 N112 1.376 . S
C113 C114 1.446 . S
C113 C143 1.391 . S
C114 C113 1.446 . S
C114 C115 1.339 . S
C114 H149 0.949 . S
C115 C114 1.339 . S
C115 C116 1.439 . S
C115 H150 0.950 . S
C116 N112 1.383 . S
C116 C115 1.439 . S
C116 C145 1.392 . S
N117 Co111 2.008 . S
N117 C118 1.376 . S
N117 C121 1.374 . S
C118 N117 1.376 . S
C118 C119 1.443 . S
C118 C145 1.389 . S
C119 C118 1.443 . S
C119 C120 1.340 . S
C119 H151 0.951 . S
C120 C119 1.340 . S
C120 C121 1.439 . S
C120 H152 0.950 . S
C121 N117 1.374 . S
C121 C120 1.439 . S
C121 C146 1.395 . S
N122 Co111 1.995 . S
N122 C123 1.376 . S
N122 C126 1.383 . S
C123 N122 1.376 . S
C123 C124 1.446 . S
C123 C146 1.391 . S
C124 C123 1.446 . S
C124 C125 1.339 . S
C124 H153 0.949 . S
C125 C124 1.339 . S
C125 C126 1.439 . S
C125 H154 0.950 . S
C126 N122 1.383 . S
C126 C125 1.439 . S
C126 C144 1.392 . S
N127 Co111 2.282 . S
N127 C130 1.332 . S
N127 C132 1.332 . S
C128 C129 1.386 . S
C128 C131 1.388 . S
C129 C128 1.386 . S
C129 C130 1.382 . S
C129 H155 0.950 . S
C130 N127 1.332 . S
C130 C129 1.382 . S
C130 H141 0.952 . S
C131 C128 1.388 . S
C131 C132 1.382 . S
C131 H156 0.950 . S
C132 N127 1.332 . S
C132 C131 1.382 . S
C132 H142 0.948 . S
N133 Co111 2.282 . S
N133 C137 1.332 . S
N133 C138 1.332 . S
C134 C135 1.388 . S
C134 C138 1.382 . S
C134 H157 0.950 . S
C135 C134 1.388 . S
C135 C136 1.386 . S
C136 C135 1.386 . S
C136 C137 1.382 . S
C136 H158 0.950 . S
C137 N133 1.332 . S
C137 C136 1.382 . S
C137 H139 0.952 . S
C138 N133 1.332 . S
C138 C134 1.382 . S
C138 H140 0.948 . S
H139 C137 0.952 . S
H140 C138 0.948 . S
H141 C130 0.952 . S
H142 C132 0.948 . S
C143 C109 1.395 . S
C143 C113 1.391 . S
C144 C106 1.389 . S
C144 C126 1.392 . S
C145 C116 1.392 . S
C145 C118 1.389 . S
C146 C121 1.395 . S
C146 C123 1.391 . S
H147 C107 0.951 . S
H148 C108 0.950 . S
H149 C114 0.949 . S
H150 C115 0.950 . S
H151 C119 0.951 . S
H152 C120 0.950 . S
H153 C124 0.949 . S
H154 C125 0.950 . S
H155 C129 0.950 . S
H156 C131 0.950 . S
H157 C134 0.950 . S
H158 C136 0.950 . S
C159 C160 1.443 . S
C159 N163 1.376 . S
C159 C197 1.389 . S
C160 C159 1.443 . S
C160 C161 1.340 . S
C160 H200 0.951 . S
C161 C160 1.340 . S
C161 C162 1.439 . S
C161 H201 0.950 . S
C162 C161 1.439 . S
C162 N163 1.374 . S
C162 C196 1.395 . S
N163 C159 1.376 . S
N163 C162 1.374 . S
N163 Co164 2.008 . S
Co164 N163 2.008 . S
Co164 N165 1.995 . S
Co164 N170 2.008 1_556 S
Co164 N175 1.995 1_556 S
Co164 N180 2.282 1_556 S
Co164 N186 2.282 . S
N165 Co164 1.995 . S
N165 C166 1.376 . S
N165 C169 1.383 . S
C166 N165 1.376 . S
C166 C167 1.446 . S
C166 C196 1.391 . S
C167 C166 1.446 . S
C167 C168 1.339 . S
C167 H202 0.949 . S
C168 C167 1.339 . S
C168 C169 1.439 . S
C168 H203 0.950 . S
C169 N165 1.383 . S
C169 C168 1.439 . S
C169 C198 1.392 1_556 S
N170 Co164 2.008 1_554 S
N170 C171 1.376 . S
N170 C174 1.374 . S
C171 N170 1.376 . S
C171 C172 1.443 . S
C171 C198 1.389 . S
C172 C171 1.443 . S
C172 C173 1.340 . S
C172 H204 0.951 . S
C173 C172 1.340 . S
C173 C174 1.439 . S
C173 H205 0.950 . S
C174 N170 1.374 . S
C174 C173 1.439 . S
C174 C199 1.395 . S
N175 Co164 1.995 1_554 S
N175 C176 1.376 . S
N175 C179 1.383 . S
C176 N175 1.376 . S
C176 C177 1.446 . S
C176 C199 1.391 . S
C177 C176 1.446 . S
C177 C178 1.339 . S
C177 H206 0.949 . S
C178 C177 1.339 . S
C178 C179 1.439 . S
C178 H207 0.950 . S
C179 N175 1.383 . S
C179 C178 1.439 . S
C179 C197 1.392 1_554 S
N180 Co164 2.282 1_554 S
N180 C183 1.332 . S
N180 C185 1.332 . S
C181 C182 1.386 . S
C181 C184 1.388 . S
C182 C181 1.386 . S
C182 C183 1.382 . S
C182 H208 0.950 . S
C183 N180 1.332 . S
C183 C182 1.382 . S
C183 H194 0.952 . S
C184 C181 1.388 . S
C184 C185 1.382 . S
C184 H209 0.950 . S
C185 N180 1.332 . S
C185 C184 1.382 . S
C185 H195 0.948 1_554 S
N186 Co164 2.282 . S
N186 C190 1.332 . S
N186 C191 1.332 . S
C187 C188 1.388 . S
C187 C191 1.382 . S
C187 H210 0.950 . S
C188 C187 1.388 . S
C188 C189 1.386 . S
C189 C188 1.386 . S
C189 C190 1.382 . S
C189 H211 0.950 . S
C190 N186 1.332 . S
C190 C189 1.382 . S
C190 H192 0.952 . S
C191 N186 1.332 . S
C191 C187 1.382 . S
C191 H193 0.948 1_556 S
H192 C190 0.952 . S
H193 C191 0.948 1_554 S
H194 C183 0.952 . S
H195 C185 0.948 1_556 S
C196 C162 1.395 . S
C196 C166 1.391 . S
C197 C159 1.389 . S
C197 C179 1.392 1_556 S
C198 C169 1.392 1_554 S
C198 C171 1.389 . S
C199 C174 1.395 . S
C199 C176 1.391 . S
H200 C160 0.951 . S
H201 C161 0.950 . S
H202 C167 0.949 . S
H203 C168 0.950 . S
H204 C172 0.951 . S
H205 C173 0.950 . S
H206 C177 0.949 . S
H207 C178 0.950 . S
H208 C182 0.950 . S
H209 C184 0.950 . S
H210 C187 0.950 . S
H211 C189 0.950 . S
C212 C213 1.443 . S
C212 N216 1.370 1_565 S
C212 C250 1.389 . S
C213 C212 1.443 . S
C213 C214 1.340 1_565 S
C213 H253 0.951 . S
C214 C213 1.340 1_545 S
C214 C215 1.439 . S
C214 H254 0.950 . S
C215 C214 1.439 . S
C215 N216 1.379 . S
C215 C249 1.395 . S
N216 C212 1.370 1_545 S
N216 C215 1.379 . S
N216 Co217 2.007 1_645 S
Co217 N216 2.007 1_465 S
Co217 N218 1.995 1_465 S
Co217 N223 2.007 . S
Co217 N228 1.995 . S
Co217 N233 2.282 1_565 S
Co217 N239 2.282 1_455 S
N218 Co217 1.995 1_645 S
N218 C219 1.376 . S
N218 C222 1.383 1_655 S
C219 N218 1.376 . S
C219 C220 1.446 . S
C219 C249 1.391 . S
C220 C219 1.446 . S
C220 C221 1.339 1_655 S
C220 H255 0.949 . S
C221 C220 1.339 1_455 S
C221 C222 1.439 . S
C221 H256 0.950 . S
C222 N218 1.383 1_455 S
C222 C221 1.439 . S
C222 C251 1.392 . S
N223 Co217 2.007 . S
N223 C224 1.365 1_565 S
N223 C227 1.383 . S
C224 N223 1.365 1_545 S
C224 C225 1.443 . S
C224 C251 1.389 . S
C225 C224 1.443 . S
C225 C226 1.340 1_545 S
C225 H257 0.951 . S
C226 C225 1.340 1_565 S
C226 C227 1.439 . S
C226 H258 0.950 . S
C227 N223 1.383 . S
C227 C226 1.439 . S
C227 C252 1.395 . S
N228 Co217 1.995 . S
N228 C229 1.376 . S
N228 C232 1.383 1_455 S
C229 N228 1.376 . S
C229 C230 1.446 . S
C229 C252 1.391 . S
C230 C229 1.446 . S
C230 C231 1.339 1_455 S
C230 H259 0.949 . S
C231 C230 1.339 1_655 S
C231 C232 1.439 . S
C231 H260 0.950 . S
C232 N228 1.383 1_655 S
C232 C231 1.439 . S
C232 C250 1.392 . S
N233 Co217 2.282 1_545 S
N233 C236 1.332 . S
N233 C238 1.332 . S
C234 C235 1.386 . S
C234 C237 1.388 . S
C235 C234 1.386 . S
C235 C236 1.382 . S
C235 H261 0.950 . S
C236 N233 1.332 . S
C236 C235 1.382 . S
C236 H247 0.952 . S
C237 C234 1.388 . S
C237 C238 1.382 . S
C237 H262 0.950 . S
C238 N233 1.332 . S
C238 C237 1.382 . S
C238 H248 0.948 1_455 S
N239 Co217 2.282 1_655 S
N239 C243 1.332 . S
N239 C244 1.332 . S
C240 C241 1.388 . S
C240 C244 1.382 . S
C240 H263 0.950 . S
C241 C240 1.388 . S
C241 C242 1.386 . S
C242 C241 1.386 . S
C242 C243 1.382 . S
C242 H264 0.950 . S
C243 N239 1.332 . S
C243 C242 1.382 . S
C243 H245 0.952 . S
C244 N239 1.332 . S
C244 C240 1.382 . S
C244 H246 0.948 1_655 S
H245 C243 0.952 . S
H246 C244 0.948 1_455 S
H247 C236 0.952 . S
H248 C238 0.948 1_655 S
C249 C215 1.395 . S
C249 C219 1.391 . S
C250 C212 1.389 . S
C250 C232 1.392 . S
C251 C222 1.392 . S
C251 C224 1.389 . S
C252 C227 1.395 . S
C252 C229 1.391 . S
H253 C213 0.951 . S
H254 C214 0.950 . S
H255 C220 0.949 . S
H256 C221 0.950 . S
H257 C225 0.951 . S
H258 C226 0.950 . S
H259 C230 0.949 . S
H260 C231 0.950 . S
H261 C235 0.950 . S
H262 C237 0.950 . S
H263 C240 0.950 . S
H264 C242 0.950 . S
C265 C266 1.443 . S
C265 N269 1.376 . S
C265 C303 1.389 . S
C266 C265 1.443 . S
C266 C267 1.340 . S
C266 H306 0.951 . S
C267 C266 1.340 . S
C267 C268 1.439 . S
C267 H307 0.950 . S
C268 C267 1.439 . S
C268 N269 1.374 . S
C268 C302 1.395 . S
N269 C265 1.376 . S
N269 C268 1.374 . S
N269 Co270 2.008 . S
Co270 N269 2.008 . S
Co270 N271 1.995 . S
Co270 N276 2.008 . S
Co270 N281 1.995 . S
Co270 N286 2.282 . S
Co270 N292 2.282 . S
N271 Co270 1.995 . S
N271 C272 1.376 . S
N271 C275 1.383 . S
C272 N271 1.376 . S
C272 C273 1.446 . S
C272 C302 1.391 . S
C273 C272 1.446 . S
C273 C274 1.339 . S
C273 H308 0.949 . S
C274 C273 1.339 . S
C274 C275 1.439 . S
C274 H309 0.950 . S
C275 N271 1.383 . S
C275 C274 1.439 . S
C275 C304 1.392 . S
N276 Co270 2.008 . S
N276 C277 1.376 . S
N276 C280 1.374 . S
C277 N276 1.376 . S
C277 C278 1.443 . S
C277 C304 1.389 . S
C278 C277 1.443 . S
C278 C279 1.340 . S
C278 H310 0.951 . S
C279 C278 1.340 . S
C279 C280 1.439 . S
C279 H311 0.950 . S
C280 N276 1.374 . S
C280 C279 1.439 . S
C280 C305 1.395 . S
N281 Co270 1.995 . S
N281 C282 1.376 . S
N281 C285 1.383 . S
C282 N281 1.376 . S
C282 C283 1.446 . S
C282 C305 1.391 . S
C283 C282 1.446 . S
C283 C284 1.339 . S
C283 H312 0.949 . S
C284 C283 1.339 . S
C284 C285 1.439 . S
C284 H313 0.950 . S
C285 N281 1.383 . S
C285 C284 1.439 . S
C285 C303 1.392 . S
N286 Co270 2.282 . S
N286 C289 1.332 . S
N286 C291 1.332 . S
C287 C288 1.386 . S
C287 C290 1.388 . S
C288 C287 1.386 . S
C288 C289 1.382 . S
C288 H314 0.950 . S
C289 N286 1.332 . S
C289 C288 1.382 . S
C289 H300 0.952 . S
C290 C287 1.388 . S
C290 C291 1.382 . S
C290 H315 0.950 . S
C291 N286 1.332 . S
C291 C290 1.382 . S
C291 H301 0.948 . S
N292 Co270 2.282 . S
N292 C296 1.332 . S
N292 C297 1.332 . S
C293 C294 1.388 . S
C293 C297 1.382 . S
C293 H316 0.950 . S
C294 C293 1.388 . S
C294 C295 1.386 . S
C295 C294 1.386 . S
C295 C296 1.382 . S
C295 H317 0.950 . S
C296 N292 1.332 . S
C296 C295 1.382 . S
C296 H298 0.952 . S
C297 N292 1.332 . S
C297 C293 1.382 . S
C297 H299 0.948 . S
H298 C296 0.952 . S
H299 C297 0.948 . S
H300 C289 0.952 . S
H301 C291 0.948 . S
C302 C268 1.395 . S
C302 C272 1.391 . S
C303 C265 1.389 . S
C303 C285 1.392 . S
C304 C275 1.392 . S
C304 C277 1.389 . S
C305 C280 1.395 . S
C305 C282 1.391 . S
H306 C266 0.951 . S
H307 C267 0.950 . S
H308 C273 0.949 . S
H309 C274 0.950 . S
H310 C278 0.951 . S
H311 C279 0.950 . S
H312 C283 0.949 . S
H313 C284 0.950 . S
H314 C288 0.950 . S
H315 C290 0.950 . S
H316 C293 0.950 . S
H317 C295 0.950 . S
C318 C319 1.443 . S
C318 N322 1.396 . S
C318 C356 1.389 . S
C319 C318 1.443 . S
C319 C320 1.328 1_545 S
C319 H359 0.951 . S
C320 C319 1.328 1_565 S
C320 C321 1.444 . S
C320 H360 0.956 . S
C321 C320 1.444 . S
C321 N322 1.359 1_565 S
C321 C355 1.395 . S
N322 C318 1.396 . S
N322 C321 1.359 1_545 S
N322 Co323 2.010 . S
Co323 N322 2.010 . S
Co323 N324 1.995 1_545 S
Co323 N329 2.009 1_545 S
Co323 N334 1.995 . S
Co323 N339 2.282 1_545 S
Co323 N345 2.282 . S
N324 Co323 1.995 1_565 S
N324 C325 1.376 . S
N324 C328 1.383 . S
C325 N324 1.376 . S
C325 C326 1.446 . S
C325 C355 1.391 . S
C326 C325 1.446 . S
C326 C327 1.339 . S
C326 H361 0.949 . S
C327 C326 1.339 . S
C327 C328 1.439 . S
C327 H362 0.950 . S
C328 N324 1.383 . S
C328 C327 1.439 . S
C328 C357 1.392 . S
N329 Co323 2.009 1_565 S
N329 C330 1.391 . S
N329 C333 1.363 1_565 S
C330 N329 1.391 . S
C330 C331 1.443 . S
C330 C357 1.389 . S
C331 C330 1.443 . S
C331 C332 1.323 1_565 S
C331 H363 0.951 . S
C332 C331 1.323 1_545 S
C332 C333 1.447 . S
C332 H364 0.959 . S
C333 N329 1.363 1_545 S
C333 C332 1.447 . S
C333 C358 1.395 . S
N334 Co323 1.995 . S
N334 C335 1.376 . S
N334 C338 1.383 . S
C335 N334 1.376 . S
C335 C336 1.446 . S
C335 C358 1.391 . S
C336 C335 1.446 . S
C336 C337 1.339 . S
C336 H365 0.949 . S
C337 C336 1.339 . S
C337 C338 1.439 . S
C337 H366 0.950 . S
C338 N334 1.383 . S
C338 C337 1.439 . S
C338 C356 1.392 . S
N339 Co323 2.282 1_565 S
N339 C342 1.332 . S
N339 C344 1.332 . S
C340 C341 1.386 . S
C340 C343 1.388 . S
C341 C340 1.386 . S
C341 C342 1.382 . S
C341 H367 0.950 . S
C342 N339 1.332 . S
C342 C341 1.382 . S
C342 H353 0.952 . S
C343 C340 1.388 . S
C343 C344 1.382 . S
C343 H368 0.950 . S
C344 N339 1.332 . S
C344 C343 1.382 . S
C344 H354 0.948 . S
N345 Co323 2.282 . S
N345 C349 1.332 . S
N345 C350 1.332 . S
C346 C347 1.388 . S
C346 C350 1.382 . S
C346 H369 0.950 . S
C347 C346 1.388 . S
C347 C348 1.386 . S
C348 C347 1.386 . S
C348 C349 1.382 . S
C348 H370 0.950 . S
C349 N345 1.332 . S
C349 C348 1.382 . S
C349 H351 0.952 . S
C350 N345 1.332 . S
C350 C346 1.382 . S
C350 H352 0.948 . S
H351 C349 0.952 . S
H352 C350 0.948 . S
H353 C342 0.952 . S
H354 C344 0.948 . S
C355 C321 1.395 . S
C355 C325 1.391 . S
C356 C318 1.389 . S
C356 C338 1.392 . S
C357 C328 1.392 . S
C357 C330 1.389 . S
C358 C333 1.395 . S
C358 C335 1.391 . S
H359 C319 0.951 . S
H360 C320 0.956 . S
H361 C326 0.949 . S
H362 C327 0.950 . S
H363 C331 0.951 . S
H364 C332 0.959 . S
H365 C336 0.949 . S
H366 C337 0.950 . S
H367 C341 0.950 . S
H368 C343 0.950 . S
H369 C346 0.950 . S
H370 C348 0.950 . S
C371 C372 1.443 . S
C371 N375 1.376 . S
C371 C409 1.389 . S
C372 C371 1.443 . S
C372 C373 1.340 . S
C372 H412 0.951 . S
C373 C372 1.340 . S
C373 C374 1.439 . S
C373 H413 0.950 . S
C374 C373 1.439 . S
C374 N375 1.374 . S
C374 C408 1.395 . S
N375 C371 1.376 . S
N375 C374 1.374 . S
N375 Co376 2.008 . S
Co376 N375 2.008 . S
Co376 N377 1.995 . S
Co376 N382 2.008 . S
Co376 N387 1.995 . S
Co376 N392 2.282 . S
Co376 N398 2.282 . S
N377 Co376 1.995 . S
N377 C378 1.376 . S
N377 C381 1.383 . S
C378 N377 1.376 . S
C378 C379 1.446 . S
C378 C408 1.391 . S
C379 C378 1.446 . S
C379 C380 1.339 . S
C379 H414 0.949 . S
C380 C379 1.339 . S
C380 C381 1.439 . S
C380 H415 0.950 . S
C381 N377 1.383 . S
C381 C380 1.439 . S
C381 C410 1.392 . S
N382 Co376 2.008 . S
N382 C383 1.376 . S
N382 C386 1.374 . S
C383 N382 1.376 . S
C383 C384 1.443 . S
C383 C410 1.389 . S
C384 C383 1.443 . S
C384 C385 1.340 . S
C384 H416 0.951 . S
C385 C384 1.340 . S
C385 C386 1.439 . S
C385 H417 0.950 . S
C386 N382 1.374 . S
C386 C385 1.439 . S
C386 C411 1.395 . S
N387 Co376 1.995 . S
N387 C388 1.376 . S
N387 C391 1.383 . S
C388 N387 1.376 . S
C388 C389 1.446 . S
C388 C411 1.391 . S
C389 C388 1.446 . S
C389 C390 1.339 . S
C389 H418 0.949 . S
C390 C389 1.339 . S
C390 C391 1.439 . S
C390 H419 0.950 . S
C391 N387 1.383 . S
C391 C390 1.439 . S
C391 C409 1.392 . S
N392 Co376 2.282 . S
N392 C395 1.332 . S
N392 C397 1.332 . S
C393 C394 1.386 . S
C393 C396 1.388 . S
C394 C393 1.386 . S
C394 C395 1.382 . S
C394 H420 0.950 . S
C395 N392 1.332 . S
C395 C394 1.382 . S
C395 H406 0.952 . S
C396 C393 1.388 . S
C396 C397 1.382 . S
C396 H421 0.950 . S
C397 N392 1.332 . S
C397 C396 1.382 . S
C397 H407 0.948 . S
N398 Co376 2.282 . S
N398 C402 1.332 . S
N398 C403 1.332 . S
C399 C400 1.388 . S
C399 C403 1.382 . S
C399 H422 0.950 . S
C400 C399 1.388 . S
C400 C401 1.386 . S
C401 C400 1.386 . S
C401 C402 1.382 . S
C401 H423 0.950 . S
C402 N398 1.332 . S
C402 C401 1.382 . S
C402 H404 0.952 . S
C403 N398 1.332 . S
C403 C399 1.382 . S
C403 H405 0.948 . S
H404 C402 0.952 . S
H405 C403 0.948 . S
H406 C395 0.952 . S
H407 C397 0.948 . S
C408 C374 1.395 . S
C408 C378 1.391 . S
C409 C371 1.389 . S
C409 C391 1.392 . S
C410 C381 1.392 . S
C410 C383 1.389 . S
C411 C386 1.395 . S
C411 C388 1.391 . S
H412 C372 0.951 . S
H413 C373 0.950 . S
H414 C379 0.949 . S
H415 C380 0.950 . S
H416 C384 0.951 . S
H417 C385 0.950 . S
H418 C389 0.949 . S
H419 C390 0.950 . S
H420 C394 0.950 . S
H421 C396 0.950 . S
H422 C399 0.950 . S
H423 C401 0.950 . S
C424 C425 1.443 . S
C424 N428 1.376 . S
C424 C462 1.389 . S
C425 C424 1.443 . S
C425 C426 1.340 . S
C425 H465 0.951 . S
C426 C425 1.340 . S
C426 C427 1.439 . S
C426 H466 0.950 . S
C427 C426 1.439 . S
C427 N428 1.374 . S
C427 C461 1.395 . S
N428 C424 1.376 . S
N428 C427 1.374 . S
N428 Co429 2.008 . S
Co429 N428 2.008 . S
Co429 N430 1.995 . S
Co429 N435 2.008 . S
Co429 N440 1.995 . S
Co429 N445 2.282 . S
Co429 N451 2.282 . S
N430 Co429 1.995 . S
N430 C431 1.376 . S
N430 C434 1.383 . S
C431 N430 1.376 . S
C431 C432 1.446 . S
C431 C461 1.391 . S
C432 C431 1.446 . S
C432 C433 1.339 . S
C432 H467 0.949 . S
C433 C432 1.339 . S
C433 C434 1.439 . S
C433 H468 0.950 . S
C434 N430 1.383 . S
C434 C433 1.439 . S
C434 C463 1.392 . S
N435 Co429 2.008 . S
N435 C436 1.376 . S
N435 C439 1.374 . S
C436 N435 1.376 . S
C436 C437 1.443 . S
C436 C463 1.389 . S
C437 C436 1.443 . S
C437 C438 1.340 . S
C437 H469 0.951 . S
C438 C437 1.340 . S
C438 C439 1.439 . S
C438 H470 0.950 . S
C439 N435 1.374 . S
C439 C438 1.439 . S
C439 C464 1.395 . S
N440 Co429 1.995 . S
N440 C441 1.376 . S
N440 C444 1.383 . S
C441 N440 1.376 . S
C441 C442 1.446 . S
C441 C464 1.391 . S
C442 C441 1.446 . S
C442 C443 1.339 . S
C442 H471 0.949 . S
C443 C442 1.339 . S
C443 C444 1.439 . S
C443 H472 0.950 . S
C444 N440 1.383 . S
C444 C443 1.439 . S
C444 C462 1.392 . S
N445 Co429 2.282 . S
N445 C448 1.332 . S
N445 C450 1.332 . S
C446 C447 1.386 . S
C446 C449 1.388 . S
C447 C446 1.386 . S
C447 C448 1.382 . S
C447 H473 0.950 . S
C448 N445 1.332 . S
C448 C447 1.382 . S
C448 H459 0.952 . S
C449 C446 1.388 . S
C449 C450 1.382 . S
C449 H474 0.950 . S
C450 N445 1.332 . S
C450 C449 1.382 . S
C450 H460 0.948 . S
N451 Co429 2.282 . S
N451 C455 1.332 . S
N451 C456 1.332 . S
C452 C453 1.388 . S
C452 C456 1.382 . S
C452 H475 0.950 . S
C453 C452 1.388 . S
C453 C454 1.386 . S
C454 C453 1.386 . S
C454 C455 1.382 . S
C454 H476 0.950 . S
C455 N451 1.332 . S
C455 C454 1.382 . S
C455 H457 0.952 . S
C456 N451 1.332 . S
C456 C452 1.382 . S
C456 H458 0.948 . S
H457 C455 0.952 . S
H458 C456 0.948 . S
H459 C448 0.952 . S
H460 C450 0.948 . S
C461 C427 1.395 . S
C461 C431 1.391 . S
C462 C424 1.389 . S
C462 C444 1.392 . S
C463 C434 1.392 . S
C463 C436 1.389 . S
C464 C439 1.395 . S
C464 C441 1.391 . S
H465 C425 0.951 . S
H466 C426 0.950 . S
H467 C432 0.949 . S
H468 C433 0.950 . S
H469 C437 0.951 . S
H470 C438 0.950 . S
H471 C442 0.949 . S
H472 C443 0.950 . S
H473 C447 0.950 . S
H474 C449 0.950 . S
H475 C452 0.950 . S
H476 C454 0.950 . S
C477 C478 1.443 . S
C477 N481 1.376 . S
C477 C515 1.389 . S
C478 C477 1.443 . S
C478 C479 1.340 . S
C478 H518 0.951 . S
C479 C478 1.340 . S
C479 C480 1.439 . S
C479 H519 0.950 . S
C480 C479 1.439 . S
C480 N481 1.374 . S
C480 C514 1.395 . S
N481 C477 1.376 . S
N481 C480 1.374 . S
N481 Co482 2.008 . S
Co482 N481 2.008 . S
Co482 N483 1.995 . S
Co482 N488 2.008 1_565 S
Co482 N493 1.995 1_565 S
Co482 N498 2.282 1_565 S
Co482 N504 2.282 . S
N483 Co482 1.995 . S
N483 C484 1.376 . S
N483 C487 1.383 . S
C484 N483 1.376 . S
C484 C485 1.446 . S
C484 C514 1.391 . S
C485 C484 1.446 . S
C485 C486 1.339 . S
C485 H520 0.949 . S
C486 C485 1.339 . S
C486 C487 1.439 . S
C486 H521 0.950 . S
C487 N483 1.383 . S
C487 C486 1.439 . S
C487 C516 1.392 1_565 S
N488 Co482 2.008 1_545 S
N488 C489 1.376 . S
N488 C492 1.374 . S
C489 N488 1.376 . S
C489 C490 1.443 . S
C489 C516 1.389 . S
C490 C489 1.443 . S
C490 C491 1.340 . S
C490 H522 0.951 . S
C491 C490 1.340 . S
C491 C492 1.439 . S
C491 H523 0.950 . S
C492 N488 1.374 . S
C492 C491 1.439 . S
C492 C517 1.395 . S
N493 Co482 1.995 1_545 S
N493 C494 1.376 . S
N493 C497 1.383 1_545 S
C494 N493 1.376 . S
C494 C495 1.446 . S
C494 C517 1.391 . S
C495 C494 1.446 . S
C495 C496 1.339 . S
C495 H524 0.949 . S
C496 C495 1.339 . S
C496 C497 1.439 1_545 S
C496 H525 0.950 . S
C497 N493 1.383 1_565 S
C497 C496 1.439 1_565 S
C497 C515 1.392 . S
N498 Co482 2.282 1_545 S
N498 C501 1.332 . S
N498 C503 1.332 . S
C499 C500 1.386 . S
C499 C502 1.388 . S
C500 C499 1.386 . S
C500 C501 1.382 . S
C500 H526 0.950 . S
C501 N498 1.332 . S
C501 C500 1.382 . S
C501 H512 0.952 . S
C502 C499 1.388 . S
C502 C503 1.382 . S
C502 H527 0.950 . S
C503 N498 1.332 . S
C503 C502 1.382 . S
C503 H513 0.948 1_545 S
N504 Co482 2.282 . S
N504 C508 1.332 . S
N504 C509 1.332 . S
C505 C506 1.388 . S
C505 C509 1.382 . S
C505 H528 0.950 . S
C506 C505 1.388 . S
C506 C507 1.386 . S
C507 C506 1.386 . S
C507 C508 1.382 . S
C507 H529 0.950 . S
C508 N504 1.332 . S
C508 C507 1.382 . S
C508 H510 0.952 . S
C509 N504 1.332 . S
C509 C505 1.382 . S
C509 H511 0.948 . S
H510 C508 0.952 . S
H511 C509 0.948 . S
H512 C501 0.952 . S
H513 C503 0.948 1_565 S
C514 C480 1.395 . S
C514 C484 1.391 . S
C515 C477 1.389 . S
C515 C497 1.392 . S
C516 C487 1.392 1_545 S
C516 C489 1.389 . S
C517 C492 1.395 . S
C517 C494 1.391 . S
H518 C478 0.951 . S
H519 C479 0.950 . S
H520 C485 0.949 . S
H521 C486 0.950 . S
H522 C490 0.951 . S
H523 C491 0.950 . S
H524 C495 0.949 . S
H525 C496 0.950 . S
H526 C500 0.950 . S
H527 C502 0.950 . S
H528 C505 0.950 . S
H529 C507 0.950 . S
C530 C531 1.443 . S
C530 N534 1.376 . S
C530 C568 1.389 . S
C531 C530 1.443 . S
C531 C532 1.340 . S
C531 H571 0.951 . S
C532 C531 1.340 . S
C532 C533 1.439 . S
C532 H572 0.950 . S
C533 C532 1.439 . S
C533 N534 1.374 . S
C533 C567 1.395 . S
N534 C530 1.376 . S
N534 C533 1.374 . S
N534 Co535 2.008 . S
Co535 N534 2.008 . S
Co535 N536 1.995 . S
Co535 N541 2.008 . S
Co535 N546 1.995 . S
Co535 N551 2.282 . S
Co535 N557 2.282 . S
N536 Co535 1.995 . S
N536 C537 1.376 . S
N536 C540 1.383 . S
C537 N536 1.376 . S
C537 C538 1.446 . S
C537 C567 1.391 . S
C538 C537 1.446 . S
C538 C539 1.339 . S
C538 H573 0.949 . S
C539 C538 1.339 . S
C539 C540 1.439 . S
C539 H574 0.950 . S
C540 N536 1.383 . S
C540 C539 1.439 . S
C540 C569 1.392 . S
N541 Co535 2.008 . S
N541 C542 1.376 . S
N541 C545 1.374 . S
C542 N541 1.376 . S
C542 C543 1.443 . S
C542 C569 1.389 . S
C543 C542 1.443 . S
C543 C544 1.340 . S
C543 H575 0.951 . S
C544 C543 1.340 . S
C544 C545 1.439 . S
C544 H576 0.950 . S
C545 N541 1.374 . S
C545 C544 1.439 . S
C545 C570 1.395 . S
N546 Co535 1.995 . S
N546 C547 1.376 . S
N546 C550 1.383 . S
C547 N546 1.376 . S
C547 C548 1.446 . S
C547 C570 1.391 . S
C548 C547 1.446 . S
C548 C549 1.339 . S
C548 H577 0.949 . S
C549 C548 1.339 . S
C549 C550 1.439 . S
C549 H578 0.950 . S
C550 N546 1.383 . S
C550 C549 1.439 . S
C550 C568 1.392 . S
N551 Co535 2.282 . S
N551 C554 1.332 . S
N551 C556 1.332 . S
C552 C553 1.386 . S
C552 C555 1.388 . S
C553 C552 1.386 . S
C553 C554 1.382 . S
C553 H579 0.950 . S
C554 N551 1.332 . S
C554 C553 1.382 . S
C554 H565 0.952 . S
C555 C552 1.388 . S
C555 C556 1.382 . S
C555 H580 0.950 . S
C556 N551 1.332 . S
C556 C555 1.382 . S
C556 H566 0.948 . S
N557 Co535 2.282 . S
N557 C561 1.332 . S
N557 C562 1.332 . S
C558 C559 1.388 . S
C558 C562 1.382 . S
C558 H581 0.950 . S
C559 C558 1.388 . S
C559 C560 1.386 . S
C560 C559 1.386 . S
C560 C561 1.382 . S
C560 H582 0.950 . S
C561 N557 1.332 . S
C561 C560 1.382 . S
C561 H563 0.952 . S
C562 N557 1.332 . S
C562 C558 1.382 . S
C562 H564 0.948 . S
H563 C561 0.952 . S
H564 C562 0.948 . S
H565 C554 0.952 . S
H566 C556 0.948 . S
C567 C533 1.395 . S
C567 C537 1.391 . S
C568 C530 1.389 . S
C568 C550 1.392 . S
C569 C540 1.392 . S
C569 C542 1.389 . S
C570 C545 1.395 . S
C570 C547 1.391 . S
H571 C531 0.951 . S
H572 C532 0.950 . S
H573 C538 0.949 . S
H574 C539 0.950 . S
H575 C543 0.951 . S
H576 C544 0.950 . S
H577 C548 0.949 . S
H578 C549 0.950 . S
H579 C553 0.950 . S
H580 C555 0.950 . S
H581 C558 0.950 . S
H582 C560 0.950 . S
C583 C584 1.443 . S
C583 N587 1.376 . S
C583 C621 1.389 . S
C584 C583 1.443 . S
C584 C585 1.340 . S
C584 H624 0.951 . S
C585 C584 1.340 . S
C585 C586 1.439 1_554 S
C585 H625 0.950 . S
C586 C585 1.439 1_556 S
C586 N587 1.374 1_556 S
C586 C620 1.395 . S
N587 C583 1.376 . S
N587 C586 1.374 1_554 S
N587 Co588 2.008 1_554 S
Co588 N587 2.008 1_556 S
Co588 N589 1.995 . S
Co588 N594 2.008 1_545 S
Co588 N599 1.995 1_546 S
Co588 N604 2.282 1_545 S
Co588 N610 2.282 1_556 S
N589 Co588 1.995 . S
N589 C590 1.376 . S
N589 C593 1.383 . S
C590 N589 1.376 . S
C590 C591 1.446 . S
C590 C620 1.391 . S
C591 C590 1.446 . S
C591 C592 1.339 . S
C591 H626 0.949 . S
C592 C591 1.339 . S
C592 C593 1.439 . S
C592 H627 0.950 . S
C593 N589 1.383 . S
C593 C592 1.439 . S
C593 C622 1.392 1_545 S
N594 Co588 2.008 1_565 S
N594 C595 1.376 . S
N594 C598 1.374 1_556 S
C595 N594 1.376 . S
C595 C596 1.443 . S
C595 C622 1.389 . S
C596 C595 1.443 . S
C596 C597 1.340 . S
C596 H628 0.951 . S
C597 C596 1.340 . S
C597 C598 1.439 1_556 S
C597 H629 0.950 . S
C598 N594 1.374 1_554 S
C598 C597 1.439 1_554 S
C598 C623 1.395 . S
N599 Co588 1.995 1_564 S
N599 C600 1.376 . S
N599 C603 1.383 1_565 S
C600 N599 1.376 . S
C600 C601 1.446 . S
C600 C623 1.391 . S
C601 C600 1.446 . S
C601 C602 1.339 . S
C601 H630 0.949 . S
C602 C601 1.339 . S
C602 C603 1.439 1_565 S
C602 H631 0.950 . S
C603 N599 1.383 1_545 S
C603 C602 1.439 1_545 S
C603 C621 1.392 . S
N604 Co588 2.282 1_565 S
N604 C607 1.332 . S
N604 C609 1.332 . S
C605 C606 1.386 . S
C605 C608 1.388 . S
C606 C605 1.386 . S
C606 C607 1.382 . S
C606 H632 0.950 . S
C607 N604 1.332 . S
C607 C606 1.382 . S
C607 H618 0.952 1_556 S
C608 C605 1.388 . S
C608 C609 1.382 . S
C608 H633 0.950 . S
C609 N604 1.332 . S
C609 C608 1.382 . S
C609 H619 0.948 1_565 S
N610 Co588 2.282 1_554 S
N610 C614 1.332 . S
N610 C615 1.332 . S
C611 C612 1.388 . S
C611 C615 1.382 . S
C611 H634 0.950 . S
C612 C611 1.388 . S
C612 C613 1.386 . S
C613 C612 1.386 . S
C613 C614 1.382 . S
C613 H635 0.950 . S
C614 N610 1.332 . S
C614 C613 1.382 . S
C614 H616 0.952 1_554 S
C615 N610 1.332 . S
C615 C611 1.382 . S
C615 H617 0.948 . S
H616 C614 0.952 1_556 S
H617 C615 0.948 . S
H618 C607 0.952 1_554 S
H619 C609 0.948 1_545 S
C620 C586 1.395 . S
C620 C590 1.391 . S
C621 C583 1.389 . S
C621 C603 1.392 . S
C622 C593 1.392 1_565 S
C622 C595 1.389 . S
C623 C598 1.395 . S
C623 C600 1.391 . S
H624 C584 0.951 . S
H625 C585 0.950 . S
H626 C591 0.949 . S
H627 C592 0.950 . S
H628 C596 0.951 . S
H629 C597 0.950 . S
H630 C601 0.949 . S
H631 C602 0.950 . S
H632 C606 0.950 . S
H633 C608 0.950 . S
H634 C611 0.950 . S
H635 C613 0.950 . S
C636 C637 1.443 . S
C636 N640 1.376 . S
C636 C674 1.389 . S
C637 C636 1.443 . S
C637 C638 1.340 . S
C637 H677 0.951 . S
C638 C637 1.340 . S
C638 C639 1.439 . S
C638 H678 0.950 . S
C639 C638 1.439 . S
C639 N640 1.374 . S
C639 C673 1.395 . S
N640 C636 1.376 . S
N640 C639 1.374 . S
N640 Co641 2.008 . S
Co641 N640 2.008 . S
Co641 N642 1.995 . S
Co641 N647 2.008 . S
Co641 N652 1.995 . S
Co641 N657 2.282 . S
Co641 N663 2.282 . S
N642 Co641 1.995 . S
N642 C643 1.376 . S
N642 C646 1.383 . S
C643 N642 1.376 . S
C643 C644 1.446 . S
C643 C673 1.391 . S
C644 C643 1.446 . S
C644 C645 1.339 . S
C644 H679 0.949 . S
C645 C644 1.339 . S
C645 C646 1.439 . S
C645 H680 0.950 . S
C646 N642 1.383 . S
C646 C645 1.439 . S
C646 C675 1.392 . S
N647 Co641 2.008 . S
N647 C648 1.376 . S
N647 C651 1.374 . S
C648 N647 1.376 . S
C648 C649 1.443 . S
C648 C675 1.389 . S
C649 C648 1.443 . S
C649 C650 1.340 . S
C649 H681 0.951 . S
C650 C649 1.340 . S
C650 C651 1.439 . S
C650 H682 0.950 . S
C651 N647 1.374 . S
C651 C650 1.439 . S
C651 C676 1.395 . S
N652 Co641 1.995 . S
N652 C653 1.376 . S
N652 C656 1.383 . S
C653 N652 1.376 . S
C653 C654 1.446 . S
C653 C676 1.391 . S
C654 C653 1.446 . S
C654 C655 1.339 . S
C654 H683 0.949 . S
C655 C654 1.339 . S
C655 C656 1.439 . S
C655 H684 0.950 . S
C656 N652 1.383 . S
C656 C655 1.439 . S
C656 C674 1.392 . S
N657 Co641 2.282 . S
N657 C660 1.332 . S
N657 C662 1.332 . S
C658 C659 1.386 . S
C658 C661 1.388 . S
C659 C658 1.386 . S
C659 C660 1.382 . S
C659 H685 0.950 . S
C660 N657 1.332 . S
C660 C659 1.382 . S
C660 H671 0.952 . S
C661 C658 1.388 . S
C661 C662 1.382 . S
C661 H686 0.950 . S
C662 N657 1.332 . S
C662 C661 1.382 . S
C662 H672 0.948 . S
N663 Co641 2.282 . S
N663 C667 1.332 . S
N663 C668 1.332 . S
C664 C665 1.388 . S
C664 C668 1.382 . S
C664 H687 0.950 . S
C665 C664 1.388 . S
C665 C666 1.386 . S
C666 C665 1.386 . S
C666 C667 1.382 . S
C666 H688 0.950 . S
C667 N663 1.332 . S
C667 C666 1.382 . S
C667 H669 0.952 . S
C668 N663 1.332 . S
C668 C664 1.382 . S
C668 H670 0.948 . S
H669 C667 0.952 . S
H670 C668 0.948 . S
H671 C660 0.952 . S
H672 C662 0.948 . S
C673 C639 1.395 . S
C673 C643 1.391 . S
C674 C636 1.389 . S
C674 C656 1.392 . S
C675 C646 1.392 . S
C675 C648 1.389 . S
C676 C651 1.395 . S
C676 C653 1.391 . S
H677 C637 0.951 . S
H678 C638 0.950 . S
H679 C644 0.949 . S
H680 C645 0.950 . S
H681 C649 0.951 . S
H682 C650 0.950 . S
H683 C654 0.949 . S
H684 C655 0.950 . S
H685 C659 0.950 . S
H686 C661 0.950 . S
H687 C664 0.950 . S
H688 C666 0.950 . S
C689 C690 1.443 . S
C689 N693 1.376 . S
C689 C727 1.389 . S
C690 C689 1.443 . S
C690 C691 1.340 . S
C690 H730 0.951 . S
C691 C690 1.340 . S
C691 C692 1.439 . S
C691 H731 0.950 . S
C692 C691 1.439 . S
C692 N693 1.374 . S
C692 C726 1.395 . S
N693 C689 1.376 . S
N693 C692 1.374 . S
N693 Co694 2.008 1_455 S
Co694 N693 2.008 1_655 S
Co694 N695 1.995 1_655 S
Co694 N700 2.008 . S
Co694 N705 1.995 . S
Co694 N710 2.282 . S
Co694 N716 2.282 1_655 S
N695 Co694 1.995 1_455 S
N695 C696 1.406 . S
N695 C699 1.352 1_455 S
C696 N695 1.406 . S
C696 C697 1.446 . S
C696 C726 1.391 . S
C697 C696 1.446 . S
C697 C698 1.339 1_455 S
C697 H732 0.949 . S
C698 C697 1.339 1_655 S
C698 C699 1.439 . S
C698 H733 0.950 . S
C699 N695 1.352 1_655 S
C699 C698 1.439 . S
C699 C728 1.392 . S
N700 Co694 2.008 . S
N700 C701 1.376 . S
N700 C704 1.374 . S
C701 N700 1.376 . S
C701 C702 1.443 . S
C701 C728 1.389 . S
C702 C701 1.443 . S
C702 C703 1.340 . S
C702 H734 0.951 . S
C703 C702 1.340 . S
C703 C704 1.439 . S
C703 H735 0.950 . S
C704 N700 1.374 . S
C704 C703 1.439 . S
C704 C729 1.395 . S
N705 Co694 1.995 . S
N705 C706 1.376 . S
N705 C709 1.383 1_655 S
C706 N705 1.376 . S
C706 C707 1.446 . S
C706 C729 1.391 . S
C707 C706 1.446 . S
C707 C708 1.339 1_655 S
C707 H736 0.949 . S
C708 C707 1.339 1_455 S
C708 C709 1.439 . S
C708 H737 0.950 . S
C709 N705 1.383 1_455 S
C709 C708 1.439 . S
C709 C727 1.392 . S
N710 Co694 2.282 . S
N710 C713 1.332 . S
N710 C715 1.332 1_655 S
C711 C712 1.386 . S
C711 C714 1.388 . S
C712 C711 1.386 . S
C712 C713 1.382 . S
C712 H738 0.950 . S
C713 N710 1.332 . S
C713 C712 1.382 . S
C713 H724 0.952 . S
C714 C711 1.388 . S
C714 C715 1.382 1_655 S
C714 H739 0.950 1_655 S
C715 N710 1.332 1_455 S
C715 C714 1.382 1_455 S
C715 H725 0.948 . S
N716 Co694 2.282 1_455 S
N716 C720 1.332 . S
N716 C721 1.332 1_455 S
C717 C718 1.388 . S
C717 C721 1.382 1_455 S
C717 H740 0.950 1_455 S
C718 C717 1.388 . S
C718 C719 1.386 . S
C719 C718 1.386 . S
C719 C720 1.382 . S
C719 H741 0.950 . S
C720 N716 1.332 . S
C720 C719 1.382 . S
C720 H722 0.952 . S
C721 N716 1.332 1_655 S
C721 C717 1.382 1_655 S
C721 H723 0.948 . S
H722 C720 0.952 . S
H723 C721 0.948 . S
H724 C713 0.952 . S
H725 C715 0.948 . S
C726 C692 1.395 . S
C726 C696 1.391 . S
C727 C689 1.389 . S
C727 C709 1.392 . S
C728 C699 1.392 . S
C728 C701 1.389 . S
C729 C704 1.395 . S
C729 C706 1.391 . S
H730 C690 0.951 . S
H731 C691 0.950 . S
H732 C697 0.949 . S
H733 C698 0.950 . S
H734 C702 0.951 . S
H735 C703 0.950 . S
H736 C707 0.949 . S
H737 C708 0.950 . S
H738 C712 0.950 . S
H739 C714 0.950 1_455 S
H740 C717 0.950 1_655 S
H741 C719 0.950 . S
C742 C743 1.443 . S
C742 N746 1.376 . S
C742 C780 1.389 . S
C743 C742 1.443 . S
C743 C744 1.340 . S
C743 H783 0.951 . S
C744 C743 1.340 . S
C744 C745 1.439 . S
C744 H784 0.950 . S
C745 C744 1.439 . S
C745 N746 1.374 . S
C745 C779 1.395 . S
N746 C742 1.376 . S
N746 C745 1.374 . S
N746 Co747 2.008 . S
Co747 N746 2.008 . S
Co747 N748 1.995 . S
Co747 N753 2.008 . S
Co747 N758 1.995 . S
Co747 N763 2.282 . S
Co747 N769 2.282 . S
N748 Co747 1.995 . S
N748 C749 1.376 . S
N748 C752 1.383 . S
C749 N748 1.376 . S
C749 C750 1.446 . S
C749 C779 1.391 . S
C750 C749 1.446 . S
C750 C751 1.339 . S
C750 H785 0.949 . S
C751 C750 1.339 . S
C751 C752 1.439 . S
C751 H786 0.950 . S
C752 N748 1.383 . S
C752 C751 1.439 . S
C752 C781 1.392 . S
N753 Co747 2.008 . S
N753 C754 1.376 . S
N753 C757 1.374 . S
C754 N753 1.376 . S
C754 C755 1.443 . S
C754 C781 1.389 . S
C755 C754 1.443 . S
C755 C756 1.340 . S
C755 H787 0.951 . S
C756 C755 1.340 . S
C756 C757 1.439 . S
C756 H788 0.950 . S
C757 N753 1.374 . S
C757 C756 1.439 . S
C757 C782 1.395 . S
N758 Co747 1.995 . S
N758 C759 1.376 . S
N758 C762 1.383 . S
C759 N758 1.376 . S
C759 C760 1.446 . S
C759 C782 1.391 . S
C760 C759 1.446 . S
C760 C761 1.339 . S
C760 H789 0.949 . S
C761 C760 1.339 . S
C761 C762 1.439 . S
C761 H790 0.950 . S
C762 N758 1.383 . S
C762 C761 1.439 . S
C762 C780 1.392 . S
N763 Co747 2.282 . S
N763 C766 1.332 . S
N763 C768 1.332 . S
C764 C765 1.386 . S
C764 C767 1.388 . S
C765 C764 1.386 . S
C765 C766 1.382 . S
C765 H791 0.950 . S
C766 N763 1.332 . S
C766 C765 1.382 . S
C766 H777 0.952 . S
C767 C764 1.388 . S
C767 C768 1.382 . S
C767 H792 0.950 . S
C768 N763 1.332 . S
C768 C767 1.382 . S
C768 H778 0.948 . S
N769 Co747 2.282 . S
N769 C773 1.332 . S
N769 C774 1.332 . S
C770 C771 1.388 . S
C770 C774 1.382 . S
C770 H793 0.950 . S
C771 C770 1.388 . S
C771 C772 1.386 . S
C772 C771 1.386 . S
C772 C773 1.382 . S
C772 H794 0.950 . S
C773 N769 1.332 . S
C773 C772 1.382 . S
C773 H775 0.952 . S
C774 N769 1.332 . S
C774 C770 1.382 . S
C774 H776 0.948 . S
H775 C773 0.952 . S
H776 C774 0.948 . S
H777 C766 0.952 . S
H778 C768 0.948 . S
C779 C745 1.395 . S
C779 C749 1.391 . S
C780 C742 1.389 . S
C780 C762 1.392 . S
C781 C752 1.392 . S
C781 C754 1.389 . S
C782 C757 1.395 . S
C782 C759 1.391 . S
H783 C743 0.951 . S
H784 C744 0.950 . S
H785 C750 0.949 . S
H786 C751 0.950 . S
H787 C755 0.951 . S
H788 C756 0.950 . S
H789 C760 0.949 . S
H790 C761 0.950 . S
H791 C765 0.950 . S
H792 C767 0.950 . S
H793 C770 0.950 . S
H794 C772 0.950 . S
C795 C796 1.443 . S
C795 N799 1.376 . S
C795 C833 1.389 . S
C796 C795 1.443 . S
C796 C797 1.340 . S
C796 H836 0.951 . S
C797 C796 1.340 . S
C797 C798 1.439 . S
C797 H837 0.950 . S
C798 C797 1.439 . S
C798 N799 1.374 . S
C798 C832 1.395 . S
N799 C795 1.376 . S
N799 C798 1.374 . S
N799 Co800 2.008 . S
Co800 N799 2.008 . S
Co800 N801 1.995 . S
Co800 N806 2.008 . S
Co800 N811 1.995 . S
Co800 N816 2.282 . S
Co800 N822 2.282 . S
N801 Co800 1.995 . S
N801 C802 1.376 . S
N801 C805 1.383 . S
C802 N801 1.376 . S
C802 C803 1.446 . S
C802 C832 1.391 . S
C803 C802 1.446 . S
C803 C804 1.339 . S
C803 H838 0.949 . S
C804 C803 1.339 . S
C804 C805 1.439 . S
C804 H839 0.950 . S
C805 N801 1.383 . S
C805 C804 1.439 . S
C805 C834 1.392 . S
N806 Co800 2.008 . S
N806 C807 1.376 . S
N806 C810 1.374 . S
C807 N806 1.376 . S
C807 C808 1.443 . S
C807 C834 1.389 . S
C808 C807 1.443 . S
C808 C809 1.340 . S
C808 H840 0.951 . S
C809 C808 1.340 . S
C809 C810 1.439 . S
C809 H841 0.950 . S
C810 N806 1.374 . S
C810 C809 1.439 . S
C810 C835 1.395 . S
N811 Co800 1.995 . S
N811 C812 1.376 . S
N811 C815 1.383 . S
C812 N811 1.376 . S
C812 C813 1.446 . S
C812 C835 1.391 . S
C813 C812 1.446 . S
C813 C814 1.339 . S
C813 H842 0.949 . S
C814 C813 1.339 . S
C814 C815 1.439 . S
C814 H843 0.950 . S
C815 N811 1.383 . S
C815 C814 1.439 . S
C815 C833 1.392 . S
N816 Co800 2.282 . S
N816 C819 1.332 . S
N816 C821 1.332 . S
C817 C818 1.386 . S
C817 C820 1.388 . S
C818 C817 1.386 . S
C818 C819 1.382 . S
C818 H844 0.950 . S
C819 N816 1.332 . S
C819 C818 1.382 . S
C819 H830 0.952 . S
C820 C817 1.388 . S
C820 C821 1.382 . S
C820 H845 0.950 . S
C821 N816 1.332 . S
C821 C820 1.382 . S
C821 H831 0.948 . S
N822 Co800 2.282 . S
N822 C826 1.332 . S
N822 C827 1.332 . S
C823 C824 1.388 . S
C823 C827 1.382 . S
C823 H846 0.950 . S
C824 C823 1.388 . S
C824 C825 1.386 . S
C825 C824 1.386 . S
C825 C826 1.382 . S
C825 H847 0.950 . S
C826 N822 1.332 . S
C826 C825 1.382 . S
C826 H828 0.952 . S
C827 N822 1.332 . S
C827 C823 1.382 . S
C827 H829 0.948 . S
H828 C826 0.952 . S
H829 C827 0.948 . S
H830 C819 0.952 . S
H831 C821 0.948 . S
C832 C798 1.395 . S
C832 C802 1.391 . S
C833 C795 1.389 . S
C833 C815 1.392 . S
C834 C805 1.392 . S
C834 C807 1.389 . S
C835 C810 1.395 . S
C835 C812 1.391 . S
H836 C796 0.951 . S
H837 C797 0.950 . S
H838 C803 0.949 . S
H839 C804 0.950 . S
H840 C808 0.951 . S
H841 C809 0.950 . S
H842 C813 0.949 . S
H843 C814 0.950 . S
H844 C818 0.950 . S
H845 C820 0.950 . S
H846 C823 0.950 . S
H847 C825 0.950 . S
C848 C849 1.443 . S
C848 N852 1.376 . S
C848 C886 1.389 . S
C849 C848 1.443 . S
C849 C850 1.340 . S
C849 H889 0.951 . S
C850 C849 1.340 . S
C850 C851 1.439 . S
C850 H890 0.950 . S
C851 C850 1.439 . S
C851 N852 1.374 . S
C851 C885 1.395 . S
N852 C848 1.376 . S
N852 C851 1.374 . S
N852 Co853 2.008 . S
Co853 N852 2.008 . S
Co853 N854 1.995 . S
Co853 N859 2.008 . S
Co853 N864 1.995 . S
Co853 N869 2.282 . S
Co853 N875 2.282 . S
N854 Co853 1.995 . S
N854 C855 1.376 . S
N854 C858 1.383 . S
C855 N854 1.376 . S
C855 C856 1.446 . S
C855 C885 1.391 . S
C856 C855 1.446 . S
C856 C857 1.339 . S
C856 H891 0.949 . S
C857 C856 1.339 . S
C857 C858 1.439 . S
C857 H892 0.950 . S
C858 N854 1.383 . S
C858 C857 1.439 . S
C858 C887 1.392 . S
N859 Co853 2.008 . S
N859 C860 1.376 . S
N859 C863 1.374 . S
C860 N859 1.376 . S
C860 C861 1.443 . S
C860 C887 1.389 . S
C861 C860 1.443 . S
C861 C862 1.340 . S
C861 H893 0.951 . S
C862 C861 1.340 . S
C862 C863 1.439 . S
C862 H894 0.950 . S
C863 N859 1.374 . S
C863 C862 1.439 . S
C863 C888 1.395 . S
N864 Co853 1.995 . S
N864 C865 1.376 . S
N864 C868 1.383 . S
C865 N864 1.376 . S
C865 C866 1.446 . S
C865 C888 1.391 . S
C866 C865 1.446 . S
C866 C867 1.339 . S
C866 H895 0.949 . S
C867 C866 1.339 . S
C867 C868 1.439 . S
C867 H896 0.950 . S
C868 N864 1.383 . S
C868 C867 1.439 . S
C868 C886 1.392 . S
N869 Co853 2.282 . S
N869 C872 1.332 . S
N869 C874 1.332 . S
C870 C871 1.386 . S
C870 C873 1.388 . S
C871 C870 1.386 . S
C871 C872 1.382 . S
C871 H897 0.950 . S
C872 N869 1.332 . S
C872 C871 1.382 . S
C872 H883 0.952 . S
C873 C870 1.388 . S
C873 C874 1.382 . S
C873 H898 0.950 . S
C874 N869 1.332 . S
C874 C873 1.382 . S
C874 H884 0.948 . S
N875 Co853 2.282 . S
N875 C879 1.332 . S
N875 C880 1.332 . S
C876 C877 1.388 . S
C876 C880 1.382 . S
C876 H899 0.950 . S
C877 C876 1.388 . S
C877 C878 1.386 . S
C878 C877 1.386 . S
C878 C879 1.382 . S
C878 H900 0.950 . S
C879 N875 1.332 . S
C879 C878 1.382 . S
C879 H881 0.952 . S
C880 N875 1.332 . S
C880 C876 1.382 . S
C880 H882 0.948 . S
H881 C879 0.952 . S
H882 C880 0.948 . S
H883 C872 0.952 . S
H884 C874 0.948 . S
C885 C851 1.395 . S
C885 C855 1.391 . S
C886 C848 1.389 . S
C886 C868 1.392 . S
C887 C858 1.392 . S
C887 C860 1.389 . S
C888 C863 1.395 . S
C888 C865 1.391 . S
H889 C849 0.951 . S
H890 C850 0.950 . S
H891 C856 0.949 . S
H892 C857 0.950 . S
H893 C861 0.951 . S
H894 C862 0.950 . S
H895 C866 0.949 . S
H896 C867 0.950 . S
H897 C871 0.950 . S
H898 C873 0.950 . S
H899 C876 0.950 . S
H900 C878 0.950 . S
C901 C902 1.443 . S
C901 N905 1.376 . S
C901 C939 1.389 . S
C902 C901 1.443 . S
C902 C903 1.340 . S
C902 H942 0.951 . S
C903 C902 1.340 . S
C903 C904 1.439 . S
C903 H943 0.950 . S
C904 C903 1.439 . S
C904 N905 1.374 . S
C904 C938 1.395 . S
N905 C901 1.376 . S
N905 C904 1.374 . S
N905 Co906 2.008 . S
Co906 N905 2.008 . S
Co906 N907 1.995 . S
Co906 N912 2.008 . S
Co906 N917 1.995 . S
Co906 N922 2.282 . S
Co906 N928 2.282 . S
N907 Co906 1.995 . S
N907 C908 1.376 . S
N907 C911 1.383 . S
C908 N907 1.376 . S
C908 C909 1.446 . S
C908 C938 1.391 . S
C909 C908 1.446 . S
C909 C910 1.339 . S
C909 H944 0.949 . S
C910 C909 1.339 . S
C910 C911 1.439 . S
C910 H945 0.950 . S
C911 N907 1.383 . S
C911 C910 1.439 . S
C911 C940 1.392 . S
N912 Co906 2.008 . S
N912 C913 1.376 . S
N912 C916 1.374 . S
C913 N912 1.376 . S
C913 C914 1.443 . S
C913 C940 1.389 . S
C914 C913 1.443 . S
C914 C915 1.340 . S
C914 H946 0.951 . S
C915 C914 1.340 . S
C915 C916 1.439 . S
C915 H947 0.950 . S
C916 N912 1.374 . S
C916 C915 1.439 . S
C916 C941 1.395 . S
N917 Co906 1.995 . S
N917 C918 1.376 . S
N917 C921 1.383 . S
C918 N917 1.376 . S
C918 C919 1.446 . S
C918 C941 1.391 . S
C919 C918 1.446 . S
C919 C920 1.339 . S
C919 H948 0.949 . S
C920 C919 1.339 . S
C920 C921 1.439 . S
C920 H949 0.950 . S
C921 N917 1.383 . S
C921 C920 1.439 . S
C921 C939 1.392 . S
N922 Co906 2.282 . S
N922 C925 1.332 . S
N922 C927 1.332 . S
C923 C924 1.386 . S
C923 C926 1.388 . S
C924 C923 1.386 . S
C924 C925 1.382 . S
C924 H950 0.950 . S
C925 N922 1.332 . S
C925 C924 1.382 . S
C925 H936 0.952 . S
C926 C923 1.388 . S
C926 C927 1.382 . S
C926 H951 0.950 . S
C927 N922 1.332 . S
C927 C926 1.382 . S
C927 H937 0.948 . S
N928 Co906 2.282 . S
N928 C932 1.332 . S
N928 C933 1.332 . S
C929 C930 1.388 . S
C929 C933 1.382 . S
C929 H952 0.950 . S
C930 C929 1.388 . S
C930 C931 1.386 . S
C931 C930 1.386 . S
C931 C932 1.382 . S
C931 H953 0.950 . S
C932 N928 1.332 . S
C932 C931 1.382 . S
C932 H934 0.952 . S
C933 N928 1.332 . S
C933 C929 1.382 . S
C933 H935 0.948 . S
H934 C932 0.952 . S
H935 C933 0.948 . S
H936 C925 0.952 . S
H937 C927 0.948 . S
C938 C904 1.395 . S
C938 C908 1.391 . S
C939 C901 1.389 . S
C939 C921 1.392 . S
C940 C911 1.392 . S
C940 C913 1.389 . S
C941 C916 1.395 . S
C941 C918 1.391 . S
H942 C902 0.951 . S
H943 C903 0.950 . S
H944 C909 0.949 . S
H945 C910 0.950 . S
H946 C914 0.951 . S
H947 C915 0.950 . S
H948 C919 0.949 . S
H949 C920 0.950 . S
H950 C924 0.950 . S
H951 C926 0.950 . S
H952 C929 0.950 . S
H953 C931 0.950 . S
C954 C955 1.443 . S
C954 N958 1.376 . S
C954 C992 1.389 . S
C955 C954 1.443 . S
C955 C956 1.340 . S
C955 H995 0.951 . S
C956 C955 1.340 . S
C956 C957 1.439 1_655 S
C956 H996 0.955 . S
C957 C956 1.439 1_455 S
C957 N958 1.374 1_455 S
C957 C991 1.395 . S
N958 C954 1.376 . S
N958 C957 1.374 1_655 S
N958 Co959 2.008 1_556 S
Co959 N958 2.008 1_554 S
Co959 N960 1.995 1_654 S
Co959 N965 2.008 1_655 S
Co959 N970 1.995 . S
Co959 N975 2.282 1_655 S
Co959 N981 2.282 1_554 S
N960 Co959 1.995 1_456 S
N960 C961 1.376 . S
N960 C964 1.383 1_556 S
C961 N960 1.376 . S
C961 C962 1.446 . S
C961 C991 1.391 . S
C962 C961 1.446 . S
C962 C963 1.339 1_556 S
C962 H997 0.949 . S
C963 C962 1.339 1_554 S
C963 C964 1.439 . S
C963 H998 0.950 . S
C964 N960 1.383 1_554 S
C964 C963 1.439 . S
C964 C993 1.392 . S
N965 Co959 2.008 1_455 S
N965 C966 1.376 . S
N965 C969 1.374 1_455 S
C966 N965 1.376 . S
C966 C967 1.443 . S
C966 C993 1.389 . S
C967 C966 1.443 . S
C967 C968 1.340 . S
C967 H999 0.951 . S
C968 C967 1.340 . S
C968 C969 1.439 1_455 S
C968 H1000 0.953 . S
C969 N965 1.374 1_655 S
C969 C968 1.439 1_655 S
C969 C994 1.395 . S
N970 Co959 1.995 . S
N970 C971 1.376 . S
N970 C974 1.383 1_554 S
C971 N970 1.376 . S
C971 C972 1.446 . S
C971 C994 1.391 . S
C972 C971 1.446 . S
C972 C973 1.339 1_554 S
C972 H1001 0.949 . S
C973 C972 1.339 1_556 S
C973 C974 1.439 . S
C973 H1002 0.950 . S
C974 N970 1.383 1_556 S
C974 C973 1.439 . S
C974 C992 1.392 . S
N975 Co959 2.282 1_455 S
N975 C978 1.332 . S
N975 C980 1.332 1_554 S
C976 C977 1.386 . S
C976 C979 1.399 . S
C977 C976 1.386 . S
C977 C978 1.382 . S
C977 H1003 0.950 . S
C978 N975 1.332 . S
C978 C977 1.382 . S
C978 H989 0.952 . S
C979 C976 1.399 . S
C979 C980 1.379 1_554 S
C979 H1004 0.943 1_554 S
C980 N975 1.332 1_556 S
C980 C979 1.379 1_556 S
C980 H990 0.948 . S
N981 Co959 2.282 1_556 S
N981 C985 1.332 . S
N981 C986 1.332 1_556 S
C982 C983 1.393 . S
C982 C986 1.381 1_556 S
C982 H1005 0.947 1_556 S
C983 C982 1.393 . S
C983 C984 1.386 . S
C984 C983 1.386 . S
C984 C985 1.382 . S
C984 H1006 0.950 . S
C985 N981 1.332 . S
C985 C984 1.382 . S
C985 H987 0.952 . S
C986 N981 1.332 1_554 S
C986 C982 1.381 1_554 S
C986 H988 0.948 . S
H987 C985 0.952 . S
H988 C986 0.948 . S
H989 C978 0.952 . S
H990 C980 0.948 . S
C991 C957 1.395 . S
C991 C961 1.391 . S
C992 C954 1.389 . S
C992 C974 1.392 . S
C993 C964 1.392 . S
C993 C966 1.389 . S
C994 C969 1.395 . S
C994 C971 1.391 . S
H995 C955 0.951 . S
H996 C956 0.955 . S
H997 C962 0.949 . S
H998 C963 0.950 . S
H999 C967 0.951 . S
H1000 C968 0.953 . S
H1001 C972 0.949 . S
H1002 C973 0.950 . S
H1003 C977 0.950 . S
H1004 C979 0.943 1_556 S
H1005 C982 0.947 1_554 S
H1006 C984 0.950 . S
C1007 C1008 1.443 . S
C1007 N1011 1.376 . S
C1007 C1045 1.389 . S
C1008 C1007 1.443 . S
C1008 C1009 1.340 . S
C1008 H1048 0.951 . S
C1009 C1008 1.340 . S
C1009 C1010 1.439 . S
C1009 H1049 0.950 . S
C1010 C1009 1.439 . S
C1010 N1011 1.374 . S
C1010 C1044 1.395 . S
N1011 C1007 1.376 . S
N1011 C1010 1.374 . S
N1011 Co1012 2.008 . S
Co1012 N1011 2.008 . S
Co1012 N1013 1.995 . S
Co1012 N1018 2.008 . S
Co1012 N1023 1.995 . S
Co1012 N1028 2.282 . S
Co1012 N1034 2.282 . S
N1013 Co1012 1.995 . S
N1013 C1014 1.376 . S
N1013 C1017 1.383 . S
C1014 N1013 1.376 . S
C1014 C1015 1.446 . S
C1014 C1044 1.391 . S
C1015 C1014 1.446 . S
C1015 C1016 1.339 . S
C1015 H1050 0.949 . S
C1016 C1015 1.339 . S
C1016 C1017 1.439 . S
C1016 H1051 0.950 . S
C1017 N1013 1.383 . S
C1017 C1016 1.439 . S
C1017 C1046 1.392 . S
N1018 Co1012 2.008 . S
N1018 C1019 1.376 . S
N1018 C1022 1.374 . S
C1019 N1018 1.376 . S
C1019 C1020 1.443 . S
C1019 C1046 1.389 . S
C1020 C1019 1.443 . S
C1020 C1021 1.340 . S
C1020 H1052 0.951 . S
C1021 C1020 1.340 . S
C1021 C1022 1.439 . S
C1021 H1053 0.950 . S
C1022 N1018 1.374 . S
C1022 C1021 1.439 . S
C1022 C1047 1.395 . S
N1023 Co1012 1.995 . S
N1023 C1024 1.376 . S
N1023 C1027 1.383 . S
C1024 N1023 1.376 . S
C1024 C1025 1.446 . S
C1024 C1047 1.391 . S
C1025 C1024 1.446 . S
C1025 C1026 1.339 . S
C1025 H1054 0.949 . S
C1026 C1025 1.339 . S
C1026 C1027 1.439 . S
C1026 H1055 0.950 . S
C1027 N1023 1.383 . S
C1027 C1026 1.439 . S
C1027 C1045 1.392 . S
N1028 Co1012 2.282 . S
N1028 C1031 1.332 . S
N1028 C1033 1.332 . S
C1029 C1030 1.386 . S
C1029 C1032 1.388 . S
C1030 C1029 1.386 . S
C1030 C1031 1.382 . S
C1030 H1056 0.950 . S
C1031 N1028 1.332 . S
C1031 C1030 1.382 . S
C1031 H1042 0.952 . S
C1032 C1029 1.388 . S
C1032 C1033 1.382 . S
C1032 H1057 0.950 . S
C1033 N1028 1.332 . S
C1033 C1032 1.382 . S
C1033 H1043 0.948 . S
N1034 Co1012 2.282 . S
N1034 C1038 1.332 . S
N1034 C1039 1.332 . S
C1035 C1036 1.388 . S
C1035 C1039 1.382 . S
C1035 H1058 0.950 . S
C1036 C1035 1.388 . S
C1036 C1037 1.386 . S
C1037 C1036 1.386 . S
C1037 C1038 1.382 . S
C1037 H1059 0.950 . S
C1038 N1034 1.332 . S
C1038 C1037 1.382 . S
C1038 H1040 0.952 . S
C1039 N1034 1.332 . S
C1039 C1035 1.382 . S
C1039 H1041 0.948 . S
H1040 C1038 0.952 . S
H1041 C1039 0.948 . S
H1042 C1031 0.952 . S
H1043 C1033 0.948 . S
C1044 C1010 1.395 . S
C1044 C1014 1.391 . S
C1045 C1007 1.389 . S
C1045 C1027 1.392 . S
C1046 C1017 1.392 . S
C1046 C1019 1.389 . S
C1047 C1022 1.395 . S
C1047 C1024 1.391 . S
H1048 C1008 0.951 . S
H1049 C1009 0.950 . S
H1050 C1015 0.949 . S
H1051 C1016 0.950 . S
H1052 C1020 0.951 . S
H1053 C1021 0.950 . S
H1054 C1025 0.949 . S
H1055 C1026 0.950 . S
H1056 C1030 0.950 . S
H1057 C1032 0.950 . S
H1058 C1035 0.950 . S
H1059 C1037 0.950 . S
C1060 C1061 1.443 . S
C1060 N1064 1.376 . S
C1060 C1098 1.389 . S
C1061 C1060 1.443 . S
C1061 C1062 1.340 . S
C1061 H1101 0.951 . S
C1062 C1061 1.340 . S
C1062 C1063 1.439 . S
C1062 H1102 0.950 . S
C1063 C1062 1.439 . S
C1063 N1064 1.374 . S
C1063 C1097 1.395 . S
N1064 C1060 1.376 . S
N1064 C1063 1.374 . S
N1064 Co1065 2.008 . S
Co1065 N1064 2.008 . S
Co1065 N1066 1.995 . S
Co1065 N1071 2.008 . S
Co1065 N1076 1.995 . S
Co1065 N1081 2.282 . S
Co1065 N1087 2.282 . S
N1066 Co1065 1.995 . S
N1066 C1067 1.376 . S
N1066 C1070 1.383 . S
C1067 N1066 1.376 . S
C1067 C1068 1.446 . S
C1067 C1097 1.391 . S
C1068 C1067 1.446 . S
C1068 C1069 1.339 . S
C1068 H1103 0.949 . S
C1069 C1068 1.339 . S
C1069 C1070 1.439 . S
C1069 H1104 0.950 . S
C1070 N1066 1.383 . S
C1070 C1069 1.439 . S
C1070 C1099 1.392 . S
N1071 Co1065 2.008 . S
N1071 C1072 1.376 . S
N1071 C1075 1.374 . S
C1072 N1071 1.376 . S
C1072 C1073 1.443 . S
C1072 C1099 1.389 . S
C1073 C1072 1.443 . S
C1073 C1074 1.340 . S
C1073 H1105 0.951 . S
C1074 C1073 1.340 . S
C1074 C1075 1.439 . S
C1074 H1106 0.950 . S
C1075 N1071 1.374 . S
C1075 C1074 1.439 . S
C1075 C1100 1.395 . S
N1076 Co1065 1.995 . S
N1076 C1077 1.376 . S
N1076 C1080 1.383 . S
C1077 N1076 1.376 . S
C1077 C1078 1.446 . S
C1077 C1100 1.391 . S
C1078 C1077 1.446 . S
C1078 C1079 1.339 . S
C1078 H1107 0.949 . S
C1079 C1078 1.339 . S
C1079 C1080 1.439 . S
C1079 H1108 0.950 . S
C1080 N1076 1.383 . S
C1080 C1079 1.439 . S
C1080 C1098 1.392 . S
N1081 Co1065 2.282 . S
N1081 C1084 1.332 . S
N1081 C1086 1.332 . S
C1082 C1083 1.386 . S
C1082 C1085 1.388 . S
C1083 C1082 1.386 . S
C1083 C1084 1.382 . S
C1083 H1109 0.950 . S
C1084 N1081 1.332 . S
C1084 C1083 1.382 . S
C1084 H1095 0.952 . S
C1085 C1082 1.388 . S
C1085 C1086 1.382 . S
C1085 H1110 0.950 . S
C1086 N1081 1.332 . S
C1086 C1085 1.382 . S
C1086 H1096 0.948 . S
N1087 Co1065 2.282 . S
N1087 C1091 1.332 . S
N1087 C1092 1.332 . S
C1088 C1089 1.388 . S
C1088 C1092 1.382 . S
C1088 H1111 0.950 . S
C1089 C1088 1.388 . S
C1089 C1090 1.386 . S
C1090 C1089 1.386 . S
C1090 C1091 1.382 . S
C1090 H1112 0.950 . S
C1091 N1087 1.332 . S
C1091 C1090 1.382 . S
C1091 H1093 0.952 . S
C1092 N1087 1.332 . S
C1092 C1088 1.382 . S
C1092 H1094 0.948 . S
H1093 C1091 0.952 . S
H1094 C1092 0.948 . S
H1095 C1084 0.952 . S
H1096 C1086 0.948 . S
C1097 C1063 1.395 . S
C1097 C1067 1.391 . S
C1098 C1060 1.389 . S
C1098 C1080 1.392 . S
C1099 C1070 1.392 . S
C1099 C1072 1.389 . S
C1100 C1075 1.395 . S
C1100 C1077 1.391 . S
H1101 C1061 0.951 . S
H1102 C1062 0.950 . S
H1103 C1068 0.949 . S
H1104 C1069 0.950 . S
H1105 C1073 0.951 . S
H1106 C1074 0.950 . S
H1107 C1078 0.949 . S
H1108 C1079 0.950 . S
H1109 C1083 0.950 . S
H1110 C1085 0.950 . S
H1111 C1088 0.950 . S
H1112 C1090 0.950 . S
C1113 C1114 1.443 . S
C1113 N1117 1.376 . S
C1113 C1151 1.389 . S
C1114 C1113 1.443 . S
C1114 C1115 1.340 . S
C1114 H1154 0.951 . S
C1115 C1114 1.340 . S
C1115 C1116 1.439 . S
C1115 H1155 0.950 . S
C1116 C1115 1.439 . S
C1116 N1117 1.374 . S
C1116 C1150 1.395 . S
N1117 C1113 1.376 . S
N1117 C1116 1.374 . S
N1117 Co1118 2.008 . S
Co1118 N1117 2.008 . S
Co1118 N1119 1.995 . S
Co1118 N1124 2.008 . S
Co1118 N1129 1.995 . S
Co1118 N1134 2.282 . S
Co1118 N1140 2.282 . S
N1119 Co1118 1.995 . S
N1119 C1120 1.376 . S
N1119 C1123 1.383 . S
C1120 N1119 1.376 . S
C1120 C1121 1.446 . S
C1120 C1150 1.391 . S
C1121 C1120 1.446 . S
C1121 C1122 1.339 . S
C1121 H1156 0.949 . S
C1122 C1121 1.339 . S
C1122 C1123 1.439 . S
C1122 H1157 0.950 . S
C1123 N1119 1.383 . S
C1123 C1122 1.439 . S
C1123 C1152 1.392 . S
N1124 Co1118 2.008 . S
N1124 C1125 1.376 . S
N1124 C1128 1.374 . S
C1125 N1124 1.376 . S
C1125 C1126 1.443 . S
C1125 C1152 1.389 . S
C1126 C1125 1.443 . S
C1126 C1127 1.340 . S
C1126 H1158 0.951 . S
C1127 C1126 1.340 . S
C1127 C1128 1.439 . S
C1127 H1159 0.950 . S
C1128 N1124 1.374 . S
C1128 C1127 1.439 . S
C1128 C1153 1.395 . S
N1129 Co1118 1.995 . S
N1129 C1130 1.376 . S
N1129 C1133 1.383 . S
C1130 N1129 1.376 . S
C1130 C1131 1.446 . S
C1130 C1153 1.391 . S
C1131 C1130 1.446 . S
C1131 C1132 1.339 . S
C1131 H1160 0.949 . S
C1132 C1131 1.339 . S
C1132 C1133 1.439 . S
C1132 H1161 0.950 . S
C1133 N1129 1.383 . S
C1133 C1132 1.439 . S
C1133 C1151 1.392 . S
N1134 Co1118 2.282 . S
N1134 C1137 1.332 . S
N1134 C1139 1.332 . S
C1135 C1136 1.386 . S
C1135 C1138 1.388 . S
C1136 C1135 1.386 . S
C1136 C1137 1.382 . S
C1136 H1162 0.950 . S
C1137 N1134 1.332 . S
C1137 C1136 1.382 . S
C1137 H1148 0.952 . S
C1138 C1135 1.388 . S
C1138 C1139 1.382 . S
C1138 H1163 0.950 . S
C1139 N1134 1.332 . S
C1139 C1138 1.382 . S
C1139 H1149 0.948 . S
N1140 Co1118 2.282 . S
N1140 C1144 1.332 . S
N1140 C1145 1.332 . S
C1141 C1142 1.388 . S
C1141 C1145 1.382 . S
C1141 H1164 0.950 . S
C1142 C1141 1.388 . S
C1142 C1143 1.386 . S
C1143 C1142 1.386 . S
C1143 C1144 1.382 . S
C1143 H1165 0.950 . S
C1144 N1140 1.332 . S
C1144 C1143 1.382 . S
C1144 H1146 0.952 . S
C1145 N1140 1.332 . S
C1145 C1141 1.382 . S
C1145 H1147 0.948 . S
H1146 C1144 0.952 . S
H1147 C1145 0.948 . S
H1148 C1137 0.952 . S
H1149 C1139 0.948 . S
C1150 C1116 1.395 . S
C1150 C1120 1.391 . S
C1151 C1113 1.389 . S
C1151 C1133 1.392 . S
C1152 C1123 1.392 . S
C1152 C1125 1.389 . S
C1153 C1128 1.395 . S
C1153 C1130 1.391 . S
H1154 C1114 0.951 . S
H1155 C1115 0.950 . S
H1156 C1121 0.949 . S
H1157 C1122 0.950 . S
H1158 C1126 0.951 . S
H1159 C1127 0.950 . S
H1160 C1131 0.949 . S
H1161 C1132 0.950 . S
H1162 C1136 0.950 . S
H1163 C1138 0.950 . S
H1164 C1141 0.950 . S
H1165 C1143 0.950 . S
C1166 C1167 1.443 . S
C1166 N1170 1.376 . S
C1166 C1204 1.389 . S
C1167 C1166 1.443 . S
C1167 C1168 1.340 . S
C1167 H1207 0.951 . S
C1168 C1167 1.340 . S
C1168 C1169 1.439 1_556 S
C1168 H1208 0.950 . S
C1169 C1168 1.439 1_554 S
C1169 N1170 1.374 1_554 S
C1169 C1203 1.395 . S
N1170 C1166 1.376 . S
N1170 C1169 1.374 1_556 S
N1170 Co1171 2.008 1_556 S
Co1171 N1170 2.008 1_554 S
Co1171 N1172 1.995 . S
Co1171 N1177 2.008 . S
Co1171 N1182 1.995 1_554 S
Co1171 N1187 2.282 . S
Co1171 N1193 2.282 1_554 S
N1172 Co1171 1.995 . S
N1172 C1173 1.376 . S
N1172 C1176 1.383 . S
C1173 N1172 1.376 . S
C1173 C1174 1.446 . S
C1173 C1203 1.391 . S
C1174 C1173 1.446 . S
C1174 C1175 1.339 . S
C1174 H1209 0.949 . S
C1175 C1174 1.339 . S
C1175 C1176 1.439 . S
C1175 H1210 0.950 . S
C1176 N1172 1.383 . S
C1176 C1175 1.439 . S
C1176 C1205 1.392 . S
N1177 Co1171 2.008 . S
N1177 C1178 1.376 . S
N1177 C1181 1.374 1_554 S
C1178 N1177 1.376 . S
C1178 C1179 1.443 . S
C1178 C1205 1.389 . S
C1179 C1178 1.443 . S
C1179 C1180 1.340 . S
C1179 H1211 0.951 . S
C1180 C1179 1.340 . S
C1180 C1181 1.439 1_554 S
C1180 H1212 0.950 . S
C1181 N1177 1.374 1_556 S
C1181 C1180 1.439 1_556 S
C1181 C1206 1.395 . S
N1182 Co1171 1.995 1_556 S
N1182 C1183 1.376 . S
N1182 C1186 1.383 . S
C1183 N1182 1.376 . S
C1183 C1184 1.446 . S
C1183 C1206 1.391 . S
C1184 C1183 1.446 . S
C1184 C1185 1.339 . S
C1184 H1213 0.949 . S
C1185 C1184 1.339 . S
C1185 C1186 1.439 . S
C1185 H1214 0.950 . S
C1186 N1182 1.383 . S
C1186 C1185 1.439 . S
C1186 C1204 1.392 . S
N1187 Co1171 2.282 . S
N1187 C1190 1.332 . S
N1187 C1192 1.332 . S
C1188 C1189 1.386 . S
C1188 C1191 1.388 . S
C1189 C1188 1.386 . S
C1189 C1190 1.382 . S
C1189 H1215 0.950 . S
C1190 N1187 1.332 . S
C1190 C1189 1.382 . S
C1190 H1201 0.952 1_554 S
C1191 C1188 1.388 . S
C1191 C1192 1.382 . S
C1191 H1216 0.950 . S
C1192 N1187 1.332 . S
C1192 C1191 1.382 . S
C1192 H1202 0.948 . S
N1193 Co1171 2.282 1_556 S
N1193 C1197 1.332 . S
N1193 C1198 1.332 . S
C1194 C1195 1.388 . S
C1194 C1198 1.382 . S
C1194 H1217 0.950 . S
C1195 C1194 1.388 . S
C1195 C1196 1.386 . S
C1196 C1195 1.386 . S
C1196 C1197 1.382 . S
C1196 H1218 0.950 . S
C1197 N1193 1.332 . S
C1197 C1196 1.382 . S
C1197 H1199 0.952 1_556 S
C1198 N1193 1.332 . S
C1198 C1194 1.382 . S
C1198 H1200 0.948 . S
H1199 C1197 0.952 1_554 S
H1200 C1198 0.948 . S
H1201 C1190 0.952 1_556 S
H1202 C1192 0.948 . S
C1203 C1169 1.395 . S
C1203 C1173 1.391 . S
C1204 C1166 1.389 . S
C1204 C1186 1.392 . S
C1205 C1176 1.392 . S
C1205 C1178 1.389 . S
C1206 C1181 1.395 . S
C1206 C1183 1.391 . S
H1207 C1167 0.951 . S
H1208 C1168 0.950 . S
H1209 C1174 0.949 . S
H1210 C1175 0.950 . S
H1211 C1179 0.951 . S
H1212 C1180 0.950 . S
H1213 C1184 0.949 . S
H1214 C1185 0.950 . S
H1215 C1189 0.950 . S
H1216 C1191 0.950 . S
H1217 C1194 0.950 . S
H1218 C1196 0.950 . S
C1219 C1220 1.443 . S
C1219 N1223 1.376 . S
C1219 C1257 1.389 . S
C1220 C1219 1.443 . S
C1220 C1221 1.340 . S
C1220 H1260 0.951 . S
C1221 C1220 1.340 . S
C1221 C1222 1.439 . S
C1221 H1261 0.950 . S
C1222 C1221 1.439 . S
C1222 N1223 1.374 . S
C1222 C1256 1.395 . S
N1223 C1219 1.376 . S
N1223 C1222 1.374 . S
N1223 Co1224 2.008 . S
Co1224 N1223 2.008 . S
Co1224 N1225 1.995 . S
Co1224 N1230 2.008 . S
Co1224 N1235 1.995 . S
Co1224 N1240 2.282 . S
Co1224 N1246 2.282 . S
N1225 Co1224 1.995 . S
N1225 C1226 1.376 . S
N1225 C1229 1.383 . S
C1226 N1225 1.376 . S
C1226 C1227 1.446 . S
C1226 C1256 1.391 . S
C1227 C1226 1.446 . S
C1227 C1228 1.339 . S
C1227 H1262 0.949 . S
C1228 C1227 1.339 . S
C1228 C1229 1.439 . S
C1228 H1263 0.950 . S
C1229 N1225 1.383 . S
C1229 C1228 1.439 . S
C1229 C1258 1.392 . S
N1230 Co1224 2.008 . S
N1230 C1231 1.376 . S
N1230 C1234 1.374 . S
C1231 N1230 1.376 . S
C1231 C1232 1.443 . S
C1231 C1258 1.389 . S
C1232 C1231 1.443 . S
C1232 C1233 1.340 . S
C1232 H1264 0.951 . S
C1233 C1232 1.340 . S
C1233 C1234 1.439 . S
C1233 H1265 0.950 . S
C1234 N1230 1.374 . S
C1234 C1233 1.439 . S
C1234 C1259 1.395 . S
N1235 Co1224 1.995 . S
N1235 C1236 1.376 . S
N1235 C1239 1.383 . S
C1236 N1235 1.376 . S
C1236 C1237 1.446 . S
C1236 C1259 1.391 . S
C1237 C1236 1.446 . S
C1237 C1238 1.339 . S
C1237 H1266 0.949 . S
C1238 C1237 1.339 . S
C1238 C1239 1.439 . S
C1238 H1267 0.950 . S
C1239 N1235 1.383 . S
C1239 C1238 1.439 . S
C1239 C1257 1.392 . S
N1240 Co1224 2.282 . S
N1240 C1243 1.332 . S
N1240 C1245 1.332 . S
C1241 C1242 1.386 . S
C1241 C1244 1.388 . S
C1242 C1241 1.386 . S
C1242 C1243 1.382 . S
C1242 H1268 0.950 . S
C1243 N1240 1.332 . S
C1243 C1242 1.382 . S
C1243 H1254 0.952 . S
C1244 C1241 1.388 . S
C1244 C1245 1.382 . S
C1244 H1269 0.950 . S
C1245 N1240 1.332 . S
C1245 C1244 1.382 . S
C1245 H1255 0.948 . S
N1246 Co1224 2.282 . S
N1246 C1250 1.332 . S
N1246 C1251 1.332 . S
C1247 C1248 1.388 . S
C1247 C1251 1.382 . S
C1247 H1270 0.950 . S
C1248 C1247 1.388 . S
C1248 C1249 1.386 . S
C1249 C1248 1.386 . S
C1249 C1250 1.382 . S
C1249 H1271 0.950 . S
C1250 N1246 1.332 . S
C1250 C1249 1.382 . S
C1250 H1252 0.952 . S
C1251 N1246 1.332 . S
C1251 C1247 1.382 . S
C1251 H1253 0.948 . S
H1252 C1250 0.952 . S
H1253 C1251 0.948 . S
H1254 C1243 0.952 . S
H1255 C1245 0.948 . S
C1256 C1222 1.395 . S
C1256 C1226 1.391 . S
C1257 C1219 1.389 . S
C1257 C1239 1.392 . S
C1258 C1229 1.392 . S
C1258 C1231 1.389 . S
C1259 C1234 1.395 . S
C1259 C1236 1.391 . S
H1260 C1220 0.951 . S
H1261 C1221 0.950 . S
H1262 C1227 0.949 . S
H1263 C1228 0.950 . S
H1264 C1232 0.951 . S
H1265 C1233 0.950 . S
H1266 C1237 0.949 . S
H1267 C1238 0.950 . S
H1268 C1242 0.950 . S
H1269 C1244 0.950 . S
H1270 C1247 0.950 . S
H1271 C1249 0.950 . S
C1272 C1273 1.363 . S
C1272 C1278 1.379 . S
C1272 N1280 1.356 . S
C1273 C1272 1.363 . S
C1273 C1279 1.363 . S
C1274 C1275 1.363 . S
C1274 C1279 1.379 . S
C1274 N1281 1.356 . S
C1275 C1274 1.363 . S
C1275 C1278 1.363 . S
N1276 C1278 1.356 . S
N1276 H1288 0.984 . S
N1276 H1289 0.985 . S
N1277 C1279 1.356 . S
N1277 H1282 0.984 . S
N1277 H1283 0.985 . S
C1278 C1272 1.379 . S
C1278 C1275 1.363 . S
C1278 N1276 1.356 . S
C1279 C1273 1.363 . S
C1279 C1274 1.379 . S
C1279 N1277 1.356 . S
N1280 C1272 1.356 . S
N1280 H1286 0.984 . S
N1280 H1287 0.984 . S
N1281 C1274 1.356 . S
N1281 H1284 0.984 . S
N1281 H1285 0.985 . S
H1282 N1277 0.984 . S
H1283 N1277 0.985 . S
H1284 N1281 0.984 . S
H1285 N1281 0.985 . S
H1286 N1280 0.984 . S
H1287 N1280 0.984 . S
H1288 N1276 0.984 . S
H1289 N1276 0.985 . S
C1290 C1291 1.363 . S
C1290 C1296 1.379 . S
C1290 N1298 1.356 . S
C1291 C1290 1.363 . S
C1291 C1297 1.363 . S
C1292 C1293 1.363 . S
C1292 C1297 1.379 . S
C1292 N1299 1.356 1_655 S
C1293 C1292 1.363 . S
C1293 C1296 1.363 . S
N1294 C1296 1.356 . S
N1294 H1306 0.984 . S
N1294 H1307 0.985 . S
N1295 C1297 1.356 . S
N1295 H1300 0.984 . S
N1295 H1301 0.985 1_655 S
C1296 C1290 1.379 . S
C1296 C1293 1.363 . S
C1296 N1294 1.356 . S
C1297 C1291 1.363 . S
C1297 C1292 1.379 . S
C1297 N1295 1.356 . S
N1298 C1290 1.356 . S
N1298 H1304 0.984 . S
N1298 H1305 0.984 . S
N1299 C1292 1.356 1_455 S
N1299 H1302 0.984 1_455 S
N1299 H1303 0.985 . S
H1300 N1295 0.984 . S
H1301 N1295 0.985 1_455 S
H1302 N1299 0.984 1_655 S
H1303 N1299 0.985 . S
H1304 N1298 0.984 . S
H1305 N1298 0.984 . S
H1306 N1294 0.984 . S
H1307 N1294 0.985 . S
C1308 C1309 1.363 . S
C1308 C1314 1.379 . S
C1308 N1316 1.356 . S
C1309 C1308 1.363 . S
C1309 C1315 1.363 . S
C1310 C1311 1.363 . S
C1310 C1315 1.379 . S
C1310 N1317 1.356 . S
C1311 C1310 1.363 . S
C1311 C1314 1.363 . S
N1312 C1314 1.356 . S
N1312 H1324 0.984 . S
N1312 H1325 0.985 . S
N1313 C1315 1.356 . S
N1313 H1318 0.984 . S
N1313 H1319 0.985 . S
C1314 C1308 1.379 . S
C1314 C1311 1.363 . S
C1314 N1312 1.356 . S
C1315 C1309 1.363 . S
C1315 C1310 1.379 . S
C1315 N1313 1.356 . S
N1316 C1308 1.356 . S
N1316 H1322 0.984 . S
N1316 H1323 0.984 . S
N1317 C1310 1.356 . S
N1317 H1320 0.984 . S
N1317 H1321 0.985 . S
H1318 N1313 0.984 . S
H1319 N1313 0.985 . S
H1320 N1317 0.984 . S
H1321 N1317 0.985 . S
H1322 N1316 0.984 . S
H1323 N1316 0.984 . S
H1324 N1312 0.984 . S
H1325 N1312 0.985 . S
C1326 C1327 1.363 . S
C1326 C1332 1.379 . S
C1326 N1334 1.356 . S
C1327 C1326 1.363 . S
C1327 C1333 1.363 . S
C1328 C1329 1.363 . S
C1328 C1333 1.379 . S
C1328 N1335 1.356 . S
C1329 C1328 1.363 . S
C1329 C1332 1.363 . S
N1330 C1332 1.356 . S
N1330 H1342 0.984 . S
N1330 H1343 0.985 . S
N1331 C1333 1.356 . S
N1331 H1336 0.984 . S
N1331 H1337 0.985 . S
C1332 C1326 1.379 . S
C1332 C1329 1.363 . S
C1332 N1330 1.356 . S
C1333 C1327 1.363 . S
C1333 C1328 1.379 . S
C1333 N1331 1.356 . S
N1334 C1326 1.356 . S
N1334 H1340 0.984 . S
N1334 H1341 0.984 . S
N1335 C1328 1.356 . S
N1335 H1338 0.984 . S
N1335 H1339 0.985 . S
H1336 N1331 0.984 . S
H1337 N1331 0.985 . S
H1338 N1335 0.984 . S
H1339 N1335 0.985 . S
H1340 N1334 0.984 . S
H1341 N1334 0.984 . S
H1342 N1330 0.984 . S
H1343 N1330 0.985 . S
C1344 C1345 1.363 . S
C1344 C1350 1.379 . S
C1344 N1352 1.356 . S
C1345 C1344 1.363 . S
C1345 C1351 1.363 . S
C1346 C1347 1.363 . S
C1346 C1351 1.379 . S
C1346 N1353 1.356 . S
C1347 C1346 1.363 . S
C1347 C1350 1.363 . S
N1348 C1350 1.356 . S
N1348 H1360 0.984 . S
N1348 H1361 0.985 . S
N1349 C1351 1.356 . S
N1349 H1354 0.984 . S
N1349 H1355 0.985 . S
C1350 C1344 1.379 . S
C1350 C1347 1.363 . S
C1350 N1348 1.356 . S
C1351 C1345 1.363 . S
C1351 C1346 1.379 . S
C1351 N1349 1.356 . S
N1352 C1344 1.356 . S
N1352 H1358 0.984 . S
N1352 H1359 0.984 . S
N1353 C1346 1.356 . S
N1353 H1356 0.984 . S
N1353 H1357 0.985 . S
H1354 N1349 0.984 . S
H1355 N1349 0.985 . S
H1356 N1353 0.984 . S
H1357 N1353 0.985 . S
H1358 N1352 0.984 . S
H1359 N1352 0.984 . S
H1360 N1348 0.984 . S
H1361 N1348 0.985 . S
C1362 C1363 1.363 . S
C1362 C1368 1.379 . S
C1362 N1370 1.356 . S
C1363 C1362 1.363 . S
C1363 C1369 1.363 . S
C1364 C1365 1.363 . S
C1364 C1369 1.379 . S
C1364 N1371 1.356 . S
C1365 C1364 1.363 . S
C1365 C1368 1.363 . S
N1366 C1368 1.356 . S
N1366 H1378 0.984 . S
N1366 H1379 0.985 . S
N1367 C1369 1.356 . S
N1367 H1372 0.984 . S
N1367 H1373 0.985 . S
C1368 C1362 1.379 . S
C1368 C1365 1.363 . S
C1368 N1366 1.356 . S
C1369 C1363 1.363 . S
C1369 C1364 1.379 . S
C1369 N1367 1.356 . S
N1370 C1362 1.356 . S
N1370 H1376 0.984 . S
N1370 H1377 0.984 . S
N1371 C1364 1.356 . S
N1371 H1374 0.984 . S
N1371 H1375 0.985 . S
H1372 N1367 0.984 . S
H1373 N1367 0.985 . S
H1374 N1371 0.984 . S
H1375 N1371 0.985 . S
H1376 N1370 0.984 . S
H1377 N1370 0.984 . S
H1378 N1366 0.984 . S
H1379 N1366 0.985 . S
C1380 C1381 1.363 . S
C1380 C1386 1.379 . S
C1380 N1388 1.356 . S
C1381 C1380 1.363 . S
C1381 C1387 1.363 . S
C1382 C1383 1.363 . S
C1382 C1387 1.379 . S
C1382 N1389 1.356 . S
C1383 C1382 1.363 . S
C1383 C1386 1.363 . S
N1384 C1386 1.356 . S
N1384 H1396 0.984 . S
N1384 H1397 0.985 . S
N1385 C1387 1.356 . S
N1385 H1390 0.984 . S
N1385 H1391 0.985 . S
C1386 C1380 1.379 . S
C1386 C1383 1.363 . S
C1386 N1384 1.356 . S
C1387 C1381 1.363 . S
C1387 C1382 1.379 . S
C1387 N1385 1.356 . S
N1388 C1380 1.356 . S
N1388 H1394 0.984 . S
N1388 H1395 0.984 . S
N1389 C1382 1.356 . S
N1389 H1392 0.984 . S
N1389 H1393 0.985 . S
H1390 N1385 0.984 . S
H1391 N1385 0.985 . S
H1392 N1389 0.984 . S
H1393 N1389 0.985 . S
H1394 N1388 0.984 . S
H1395 N1388 0.984 . S
H1396 N1384 0.984 . S
H1397 N1384 0.985 . S
C1398 C1399 1.363 . S
C1398 C1404 1.379 . S
C1398 N1406 1.356 . S
C1399 C1398 1.363 . S
C1399 C1405 1.363 . S
C1400 C1401 1.363 . S
C1400 C1405 1.379 . S
C1400 N1407 1.356 1_554 S
C1401 C1400 1.363 . S
C1401 C1404 1.363 . S
N1402 C1404 1.356 . S
N1402 H1414 0.984 . S
N1402 H1415 0.985 . S
N1403 C1405 1.356 . S
N1403 H1408 0.984 . S
N1403 H1409 0.985 1_554 S
C1404 C1398 1.379 . S
C1404 C1401 1.363 . S
C1404 N1402 1.356 . S
C1405 C1399 1.363 . S
C1405 C1400 1.379 . S
C1405 N1403 1.356 . S
N1406 C1398 1.356 . S
N1406 H1412 0.984 . S
N1406 H1413 0.984 . S
N1407 C1400 1.356 1_556 S
N1407 H1410 0.984 . S
N1407 H1411 0.985 . S
H1408 N1403 0.984 . S
H1409 N1403 0.985 1_556 S
H1410 N1407 0.984 . S
H1411 N1407 0.985 . S
H1412 N1406 0.984 . S
H1413 N1406 0.984 . S
H1414 N1402 0.984 . S
H1415 N1402 0.985 . S
C1416 C1417 1.363 . S
C1416 C1422 1.379 . S
C1416 N1424 1.356 . S
C1417 C1416 1.363 . S
C1417 C1423 1.363 . S
C1418 C1419 1.363 . S
C1418 C1423 1.379 . S
C1418 N1425 1.356 1_545 S
C1419 C1418 1.363 . S
C1419 C1422 1.363 . S
N1420 C1422 1.356 . S
N1420 H1432 0.984 . S
N1420 H1433 0.985 . S
N1421 C1423 1.364 . S
N1421 H1426 0.997 . S
N1421 H1427 0.965 1_545 S
C1422 C1416 1.379 . S
C1422 C1419 1.363 . S
C1422 N1420 1.356 . S
C1423 C1417 1.363 . S
C1423 C1418 1.379 . S
C1423 N1421 1.364 . S
N1424 C1416 1.356 . S
N1424 H1430 0.984 . S
N1424 H1431 0.984 . S
N1425 C1418 1.356 1_565 S
N1425 H1428 0.984 . S
N1425 H1429 0.985 . S
H1426 N1421 0.997 . S
H1427 N1421 0.965 1_565 S
H1428 N1425 0.984 . S
H1429 N1425 0.985 . S
H1430 N1424 0.984 . S
H1431 N1424 0.984 . S
H1432 N1420 0.984 . S
H1433 N1420 0.985 . S
C1434 C1435 1.363 . S
C1434 C1440 1.379 . S
C1434 N1442 1.356 . S
C1435 C1434 1.363 . S
C1435 C1441 1.363 . S
C1436 C1437 1.363 . S
C1436 C1441 1.379 . S
C1436 N1443 1.356 . S
C1437 C1436 1.363 . S
C1437 C1440 1.363 . S
N1438 C1440 1.356 . S
N1438 H1450 0.984 . S
N1438 H1451 0.985 . S
N1439 C1441 1.356 . S
N1439 H1444 0.984 . S
N1439 H1445 0.985 . S
C1440 C1434 1.379 . S
C1440 C1437 1.363 . S
C1440 N1438 1.356 . S
C1441 C1435 1.363 . S
C1441 C1436 1.379 . S
C1441 N1439 1.356 . S
N1442 C1434 1.356 . S
N1442 H1448 0.984 . S
N1442 H1449 0.984 . S
N1443 C1436 1.356 . S
N1443 H1446 0.984 . S
N1443 H1447 0.985 . S
H1444 N1439 0.984 . S
H1445 N1439 0.985 . S
H1446 N1443 0.984 . S
H1447 N1443 0.985 . S
H1448 N1442 0.984 . S
H1449 N1442 0.984 . S
H1450 N1438 0.984 . S
H1451 N1438 0.985 . S
C1452 C1453 1.363 . S
C1452 C1458 1.379 . S
C1452 N1460 1.356 . S
C1453 C1452 1.363 . S
C1453 C1459 1.363 . S
C1454 C1455 1.363 . S
C1454 C1459 1.379 . S
C1454 N1461 1.356 . S
C1455 C1454 1.363 . S
C1455 C1458 1.363 . S
N1456 C1458 1.356 . S
N1456 H1468 0.984 . S
N1456 H1469 0.985 . S
N1457 C1459 1.356 1_545 S
N1457 H1462 0.984 . S
N1457 H1463 0.985 . S
C1458 C1452 1.379 . S
C1458 C1455 1.363 . S
C1458 N1456 1.356 . S
C1459 C1453 1.363 . S
C1459 C1454 1.379 . S
C1459 N1457 1.356 1_565 S
N1460 C1452 1.356 . S
N1460 H1466 0.984 . S
N1460 H1467 0.984 . S
N1461 C1454 1.356 . S
N1461 H1464 0.984 . S
N1461 H1465 0.985 . S
H1462 N1457 0.984 . S
H1463 N1457 0.985 . S
H1464 N1461 0.984 . S
H1465 N1461 0.985 . S
H1466 N1460 0.984 . S
H1467 N1460 0.984 . S
H1468 N1456 0.984 . S
H1469 N1456 0.985 . S
C1470 C1471 1.363 . S
C1470 C1476 1.379 . S
C1470 N1478 1.356 . S
C1471 C1470 1.363 . S
C1471 C1477 1.363 . S
C1472 C1473 1.363 . S
C1472 C1477 1.379 . S
C1472 N1479 1.356 . S
C1473 C1472 1.363 . S
C1473 C1476 1.363 . S
N1474 C1476 1.356 . S
N1474 H1486 0.984 . S
N1474 H1487 0.985 . S
N1475 C1477 1.356 . S
N1475 H1480 0.984 . S
N1475 H1481 0.985 . S
C1476 C1470 1.379 . S
C1476 C1473 1.363 . S
C1476 N1474 1.356 . S
C1477 C1471 1.363 . S
C1477 C1472 1.379 . S
C1477 N1475 1.356 . S
N1478 C1470 1.356 . S
N1478 H1484 0.984 . S
N1478 H1485 0.984 . S
N1479 C1472 1.356 . S
N1479 H1482 0.984 . S
N1479 H1483 0.985 . S
H1480 N1475 0.984 . S
H1481 N1475 0.985 . S
H1482 N1479 0.984 . S
H1483 N1479 0.985 . S
H1484 N1478 0.984 . S
H1485 N1478 0.984 . S
H1486 N1474 0.984 . S
H1487 N1474 0.985 . S
C1488 C1489 1.363 . S
C1488 C1494 1.379 . S
C1488 N1496 1.356 . S
C1489 C1488 1.363 . S
C1489 C1495 1.363 . S
C1490 C1491 1.363 . S
C1490 C1495 1.379 . S
C1490 N1497 1.356 . S
C1491 C1490 1.363 . S
C1491 C1494 1.363 . S
N1492 C1494 1.356 . S
N1492 H1504 0.984 . S
N1492 H1505 0.985 . S
N1493 C1495 1.356 . S
N1493 H1498 0.984 . S
N1493 H1499 0.985 . S
C1494 C1488 1.379 . S
C1494 C1491 1.363 . S
C1494 N1492 1.356 . S
C1495 C1489 1.363 . S
C1495 C1490 1.379 . S
C1495 N1493 1.356 . S
N1496 C1488 1.356 . S
N1496 H1502 0.984 . S
N1496 H1503 0.984 . S
N1497 C1490 1.356 . S
N1497 H1500 0.984 . S
N1497 H1501 0.985 . S
H1498 N1493 0.984 . S
H1499 N1493 0.985 . S
H1500 N1497 0.984 . S
H1501 N1497 0.985 . S
H1502 N1496 0.984 . S
H1503 N1496 0.984 . S
H1504 N1492 0.984 . S
H1505 N1492 0.985 . S
C1506 C1507 1.363 . S
C1506 C1512 1.379 . S
C1506 N1514 1.356 . S
C1507 C1506 1.363 . S
C1507 C1513 1.363 . S
C1508 C1509 1.363 . S
C1508 C1513 1.379 . S
C1508 N1515 1.356 . S
C1509 C1508 1.363 . S
C1509 C1512 1.363 . S
N1510 C1512 1.356 . S
N1510 H1522 0.984 . S
N1510 H1523 0.985 . S
N1511 C1513 1.356 . S
N1511 H1516 0.984 . S
N1511 H1517 0.985 . S
C1512 C1506 1.379 . S
C1512 C1509 1.363 . S
C1512 N1510 1.356 . S
C1513 C1507 1.363 . S
C1513 C1508 1.379 . S
C1513 N1511 1.356 . S
N1514 C1506 1.356 . S
N1514 H1520 0.984 . S
N1514 H1521 0.984 . S
N1515 C1508 1.356 . S
N1515 H1518 0.984 . S
N1515 H1519 0.985 . S
H1516 N1511 0.984 . S
H1517 N1511 0.985 . S
H1518 N1515 0.984 . S
H1519 N1515 0.985 . S
H1520 N1514 0.984 . S
H1521 N1514 0.984 . S
H1522 N1510 0.984 . S
H1523 N1510 0.985 . S
C1524 C1525 1.363 . S
C1524 C1530 1.379 . S
C1524 N1532 1.356 . S
C1525 C1524 1.363 . S
C1525 C1531 1.363 . S
C1526 C1527 1.363 . S
C1526 C1531 1.379 . S
C1526 N1533 1.356 . S
C1527 C1526 1.363 . S
C1527 C1530 1.363 . S
N1528 C1530 1.356 . S
N1528 H1540 0.984 . S
N1528 H1541 0.985 . S
N1529 C1531 1.356 . S
N1529 H1534 0.984 . S
N1529 H1535 0.985 . S
C1530 C1524 1.379 . S
C1530 C1527 1.363 . S
C1530 N1528 1.356 . S
C1531 C1525 1.363 . S
C1531 C1526 1.379 . S
C1531 N1529 1.356 . S
N1532 C1524 1.356 . S
N1532 H1538 0.984 . S
N1532 H1539 0.984 . S
N1533 C1526 1.356 . S
N1533 H1536 0.984 . S
N1533 H1537 0.985 . S
H1534 N1529 0.984 . S
H1535 N1529 0.985 . S
H1536 N1533 0.984 . S
H1537 N1533 0.985 . S
H1538 N1532 0.984 . S
H1539 N1532 0.984 . S
H1540 N1528 0.984 . S
H1541 N1528 0.985 . S
C1542 C1543 1.363 . S
C1542 C1548 1.379 . S
C1542 N1550 1.356 . S
C1543 C1542 1.363 . S
C1543 C1549 1.363 . S
C1544 C1545 1.363 . S
C1544 C1549 1.379 . S
C1544 N1551 1.356 . S
C1545 C1544 1.363 . S
C1545 C1548 1.363 . S
N1546 C1548 1.356 . S
N1546 H1558 0.984 . S
N1546 H1559 0.985 . S
N1547 C1549 1.356 . S
N1547 H1552 0.984 . S
N1547 H1553 0.985 . S
C1548 C1542 1.379 . S
C1548 C1545 1.363 . S
C1548 N1546 1.356 . S
C1549 C1543 1.363 . S
C1549 C1544 1.379 . S
C1549 N1547 1.356 . S
N1550 C1542 1.356 . S
N1550 H1556 0.984 . S
N1550 H1557 0.984 . S
N1551 C1544 1.356 . S
N1551 H1554 0.984 . S
N1551 H1555 0.985 . S
H1552 N1547 0.984 . S
H1553 N1547 0.985 . S
H1554 N1551 0.984 . S
H1555 N1551 0.985 . S
H1556 N1550 0.984 . S
H1557 N1550 0.984 . S
H1558 N1546 0.984 . S
H1559 N1546 0.985 . S
C1560 C1561 1.363 . S
C1560 C1566 1.379 . S
C1560 N1568 1.356 . S
C1561 C1560 1.363 . S
C1561 C1567 1.363 . S
C1562 C1563 1.363 . S
C1562 C1567 1.379 . S
C1562 N1569 1.356 . S
C1563 C1562 1.363 . S
C1563 C1566 1.363 . S
N1564 C1566 1.356 . S
N1564 H1576 0.984 . S
N1564 H1577 0.985 . S
N1565 C1567 1.356 . S
N1565 H1570 0.984 . S
N1565 H1571 0.985 . S
C1566 C1560 1.379 . S
C1566 C1563 1.363 . S
C1566 N1564 1.356 . S
C1567 C1561 1.363 . S
C1567 C1562 1.379 . S
C1567 N1565 1.356 . S
N1568 C1560 1.356 . S
N1568 H1574 0.984 . S
N1568 H1575 0.984 . S
N1569 C1562 1.356 . S
N1569 H1572 0.984 . S
N1569 H1573 0.985 . S
H1570 N1565 0.984 . S
H1571 N1565 0.985 . S
H1572 N1569 0.984 . S
H1573 N1569 0.985 . S
H1574 N1568 0.984 . S
H1575 N1568 0.984 . S
H1576 N1564 0.984 . S
H1577 N1564 0.985 . S
C1578 C1579 1.363 . S
C1578 C1584 1.379 . S
C1578 N1586 1.356 . S
C1579 C1578 1.363 . S
C1579 C1585 1.363 . S
C1580 C1581 1.363 . S
C1580 C1585 1.379 . S
C1580 N1587 1.356 . S
C1581 C1580 1.363 . S
C1581 C1584 1.363 . S
N1582 C1584 1.356 . S
N1582 H1594 0.984 . S
N1582 H1595 0.985 . S
N1583 C1585 1.356 . S
N1583 H1588 0.984 . S
N1583 H1589 0.985 . S
C1584 C1578 1.379 . S
C1584 C1581 1.363 . S
C1584 N1582 1.356 . S
C1585 C1579 1.363 . S
C1585 C1580 1.379 . S
C1585 N1583 1.356 . S
N1586 C1578 1.356 . S
N1586 H1592 0.984 . S
N1586 H1593 0.984 . S
N1587 C1580 1.356 . S
N1587 H1590 0.984 . S
N1587 H1591 0.985 . S
H1588 N1583 0.984 . S
H1589 N1583 0.985 . S
H1590 N1587 0.984 . S
H1591 N1587 0.985 . S
H1592 N1586 0.984 . S
H1593 N1586 0.984 . S
H1594 N1582 0.984 . S
H1595 N1582 0.985 . S
C1596 C1597 1.363 . S
C1596 C1602 1.379 . S
C1596 N1604 1.356 . S
C1597 C1596 1.363 . S
C1597 C1603 1.363 . S
C1598 C1599 1.363 . S
C1598 C1603 1.379 . S
C1598 N1605 1.356 . S
C1599 C1598 1.363 . S
C1599 C1602 1.363 . S
N1600 C1602 1.356 . S
N1600 H1612 0.984 . S
N1600 H1613 0.985 . S
N1601 C1603 1.356 . S
N1601 H1606 0.984 . S
N1601 H1607 0.985 . S
C1602 C1596 1.379 . S
C1602 C1599 1.363 . S
C1602 N1600 1.356 . S
C1603 C1597 1.363 . S
C1603 C1598 1.379 . S
C1603 N1601 1.356 . S
N1604 C1596 1.356 . S
N1604 H1610 0.984 . S
N1604 H1611 0.984 . S
N1605 C1598 1.356 . S
N1605 H1608 0.984 . S
N1605 H1609 0.985 . S
H1606 N1601 0.984 . S
H1607 N1601 0.985 . S
H1608 N1605 0.984 . S
H1609 N1605 0.985 . S
H1610 N1604 0.984 . S
H1611 N1604 0.984 . S
H1612 N1600 0.984 . S
H1613 N1600 0.985 . S
C1614 C1615 1.363 . S
C1614 C1620 1.379 . S
C1614 N1622 1.356 . S
C1615 C1614 1.363 . S
C1615 C1621 1.363 . S
C1616 C1617 1.363 . S
C1616 C1621 1.379 . S
C1616 N1623 1.356 . S
C1617 C1616 1.363 . S
C1617 C1620 1.363 . S
N1618 C1620 1.356 . S
N1618 H1630 0.984 . S
N1618 H1631 0.985 . S
N1619 C1621 1.356 . S
N1619 H1624 0.984 . S
N1619 H1625 0.985 . S
C1620 C1614 1.379 . S
C1620 C1617 1.363 . S
C1620 N1618 1.356 . S
C1621 C1615 1.363 . S
C1621 C1616 1.379 . S
C1621 N1619 1.356 . S
N1622 C1614 1.356 . S
N1622 H1628 0.984 . S
N1622 H1629 0.984 . S
N1623 C1616 1.356 . S
N1623 H1626 0.984 . S
N1623 H1627 0.985 . S
H1624 N1619 0.984 . S
H1625 N1619 0.985 . S
H1626 N1623 0.984 . S
H1627 N1623 0.985 . S
H1628 N1622 0.984 . S
H1629 N1622 0.984 . S
H1630 N1618 0.984 . S
H1631 N1618 0.985 . S
C1632 C1633 1.363 . S
C1632 C1638 1.379 . S
C1632 N1640 1.356 . S
C1633 C1632 1.363 . S
C1633 C1639 1.363 . S
C1634 C1635 1.363 . S
C1634 C1639 1.379 . S
C1634 N1641 1.356 . S
C1635 C1634 1.363 . S
C1635 C1638 1.363 . S
N1636 C1638 1.356 . S
N1636 H1648 0.984 . S
N1636 H1649 0.985 . S
N1637 C1639 1.356 . S
N1637 H1642 0.984 . S
N1637 H1643 0.985 . S
C1638 C1632 1.379 . S
C1638 C1635 1.363 . S
C1638 N1636 1.356 . S
C1639 C1633 1.363 . S
C1639 C1634 1.379 . S
C1639 N1637 1.356 . S
N1640 C1632 1.356 . S
N1640 H1646 0.984 . S
N1640 H1647 0.984 . S
N1641 C1634 1.356 . S
N1641 H1644 0.984 . S
N1641 H1645 0.985 . S
H1642 N1637 0.984 . S
H1643 N1637 0.985 . S
H1644 N1641 0.984 . S
H1645 N1641 0.985 . S
H1646 N1640 0.984 . S
H1647 N1640 0.984 . S
H1648 N1636 0.984 . S
H1649 N1636 0.985 . S
C1650 C1651 1.363 . S
C1650 C1656 1.379 . S
C1650 N1658 1.356 . S
C1651 C1650 1.363 . S
C1651 C1657 1.363 . S
C1652 C1653 1.363 . S
C1652 C1657 1.379 . S
C1652 N1659 1.356 . S
C1653 C1652 1.363 . S
C1653 C1656 1.363 . S
N1654 C1656 1.356 . S
N1654 H1666 0.984 . S
N1654 H1667 0.985 . S
N1655 C1657 1.356 . S
N1655 H1660 0.984 . S
N1655 H1661 0.985 . S
C1656 C1650 1.379 . S
C1656 C1653 1.363 . S
C1656 N1654 1.356 . S
C1657 C1651 1.363 . S
C1657 C1652 1.379 . S
C1657 N1655 1.356 . S
N1658 C1650 1.356 . S
N1658 H1664 0.984 . S
N1658 H1665 0.984 . S
N1659 C1652 1.356 . S
N1659 H1662 0.984 . S
N1659 H1663 0.985 . S
H1660 N1655 0.984 . S
H1661 N1655 0.985 . S
H1662 N1659 0.984 . S
H1663 N1659 0.985 . S
H1664 N1658 0.984 . S
H1665 N1658 0.984 . S
H1666 N1654 0.984 . S
H1667 N1654 0.985 . S
C1668 C1669 1.363 . S
C1668 C1674 1.379 . S
C1668 N1676 1.356 1_556 S
C1669 C1668 1.363 . S
C1669 C1675 1.363 . S
C1670 C1671 1.363 . S
C1670 C1675 1.379 . S
C1670 N1677 1.356 . S
C1671 C1670 1.363 . S
C1671 C1674 1.363 . S
N1672 C1674 1.356 . S
N1672 H1684 0.951 1_556 S
N1672 H1685 0.985 . S
N1673 C1675 1.356 . S
N1673 H1678 0.984 . S
N1673 H1679 0.985 . S
C1674 C1668 1.379 . S
C1674 C1671 1.363 . S
C1674 N1672 1.356 . S
C1675 C1669 1.363 . S
C1675 C1670 1.379 . S
C1675 N1673 1.356 . S
N1676 C1668 1.356 1_554 S
N1676 H1682 0.984 . S
N1676 H1683 0.984 . S
N1677 C1670 1.356 . S
N1677 H1680 0.984 . S
N1677 H1681 0.985 . S
H1678 N1673 0.984 . S
H1679 N1673 0.985 . S
H1680 N1677 0.984 . S
H1681 N1677 0.985 . S
H1682 N1676 0.984 . S
H1683 N1676 0.984 . S
H1684 N1672 0.951 1_554 S
H1685 N1672 0.985 . S
C1686 C1687 1.363 . S
C1686 C1692 1.379 . S
C1686 N1694 1.356 . S
C1687 C1686 1.363 . S
C1687 C1693 1.363 . S
C1688 C1689 1.363 . S
C1688 C1693 1.379 . S
C1688 N1695 1.356 . S
C1689 C1688 1.363 . S
C1689 C1692 1.363 . S
N1690 C1692 1.356 . S
N1690 H1702 0.984 . S
N1690 H1703 0.985 . S
N1691 C1693 1.356 . S
N1691 H1696 0.984 . S
N1691 H1697 0.985 . S
C1692 C1686 1.379 . S
C1692 C1689 1.363 . S
C1692 N1690 1.356 . S
C1693 C1687 1.363 . S
C1693 C1688 1.379 . S
C1693 N1691 1.356 . S
N1694 C1686 1.356 . S
N1694 H1700 0.984 . S
N1694 H1701 0.984 . S
N1695 C1688 1.356 . S
N1695 H1698 0.984 . S
N1695 H1699 0.985 . S
H1696 N1691 0.984 . S
H1697 N1691 0.985 . S
H1698 N1695 0.984 . S
H1699 N1695 0.985 . S
H1700 N1694 0.984 . S
H1701 N1694 0.984 . S
H1702 N1690 0.984 . S
H1703 N1690 0.985 . S
C1704 C1705 1.363 . S
C1704 C1710 1.379 . S
C1704 N1712 1.356 . S
C1705 C1704 1.363 . S
C1705 C1711 1.363 . S
C1706 C1707 1.363 . S
C1706 C1711 1.379 . S
C1706 N1713 1.356 . S
C1707 C1706 1.363 . S
C1707 C1710 1.363 . S
N1708 C1710 1.356 . S
N1708 H1720 0.984 . S
N1708 H1721 0.985 . S
N1709 C1711 1.356 . S
N1709 H1714 0.984 . S
N1709 H1715 0.985 . S
C1710 C1704 1.379 . S
C1710 C1707 1.363 . S
C1710 N1708 1.356 . S
C1711 C1705 1.363 . S
C1711 C1706 1.379 . S
C1711 N1709 1.356 . S
N1712 C1704 1.356 . S
N1712 H1718 0.984 . S
N1712 H1719 0.984 . S
N1713 C1706 1.356 . S
N1713 H1716 0.984 . S
N1713 H1717 0.985 . S
H1714 N1709 0.984 . S
H1715 N1709 0.985 . S
H1716 N1713 0.984 . S
H1717 N1713 0.985 . S
H1718 N1712 0.984 . S
H1719 N1712 0.984 . S
H1720 N1708 0.984 . S
H1721 N1708 0.985 . S
C1722 C1723 1.363 . S
C1722 C1728 1.379 . S
C1722 N1730 1.356 . S
C1723 C1722 1.363 . S
C1723 C1729 1.363 . S
C1724 C1725 1.363 . S
C1724 C1729 1.379 . S
C1724 N1731 1.356 . S
C1725 C1724 1.363 . S
C1725 C1728 1.363 . S
N1726 C1728 1.356 . S
N1726 H1738 0.984 . S
N1726 H1739 0.985 . S
N1727 C1729 1.356 . S
N1727 H1732 0.984 . S
N1727 H1733 0.985 . S
C1728 C1722 1.379 . S
C1728 C1725 1.363 . S
C1728 N1726 1.356 . S
C1729 C1723 1.363 . S
C1729 C1724 1.379 . S
C1729 N1727 1.356 . S
N1730 C1722 1.356 . S
N1730 H1736 0.984 . S
N1730 H1737 0.984 . S
N1731 C1724 1.356 . S
N1731 H1734 0.984 . S
N1731 H1735 0.985 . S
H1732 N1727 0.984 . S
H1733 N1727 0.985 . S
H1734 N1731 0.984 . S
H1735 N1731 0.985 . S
H1736 N1730 0.984 . S
H1737 N1730 0.984 . S
H1738 N1726 0.984 . S
H1739 N1726 0.985 . S
C1740 C1741 1.363 . S
C1740 C1746 1.379 . S
C1740 N1748 1.356 . S
C1741 C1740 1.363 . S
C1741 C1747 1.363 . S
C1742 C1743 1.363 . S
C1742 C1747 1.379 . S
C1742 N1749 1.356 . S
C1743 C1742 1.363 . S
C1743 C1746 1.363 . S
N1744 C1746 1.356 . S
N1744 H1756 0.984 . S
N1744 H1757 0.985 . S
N1745 C1747 1.356 . S
N1745 H1750 0.984 . S
N1745 H1751 0.985 . S
C1746 C1740 1.379 . S
C1746 C1743 1.363 . S
C1746 N1744 1.356 . S
C1747 C1741 1.363 . S
C1747 C1742 1.379 . S
C1747 N1745 1.356 . S
N1748 C1740 1.356 . S
N1748 H1754 0.984 . S
N1748 H1755 0.984 . S
N1749 C1742 1.356 . S
N1749 H1752 0.984 . S
N1749 H1753 0.985 . S
H1750 N1745 0.984 . S
H1751 N1745 0.985 . S
H1752 N1749 0.984 . S
H1753 N1749 0.985 . S
H1754 N1748 0.984 . S
H1755 N1748 0.984 . S
H1756 N1744 0.984 . S
H1757 N1744 0.985 . S
C1758 C1759 1.363 . S
C1758 C1764 1.379 . S
C1758 N1766 1.356 . S
C1759 C1758 1.363 . S
C1759 C1765 1.363 . S
C1760 C1761 1.363 . S
C1760 C1765 1.379 . S
C1760 N1767 1.356 . S
C1761 C1760 1.363 . S
C1761 C1764 1.363 . S
N1762 C1764 1.356 . S
N1762 H1774 0.984 . S
N1762 H1775 0.985 . S
N1763 C1765 1.356 . S
N1763 H1768 0.984 . S
N1763 H1769 0.985 . S
C1764 C1758 1.379 . S
C1764 C1761 1.363 . S
C1764 N1762 1.356 . S
C1765 C1759 1.363 . S
C1765 C1760 1.379 . S
C1765 N1763 1.356 . S
N1766 C1758 1.356 . S
N1766 H1772 0.984 . S
N1766 H1773 0.984 . S
N1767 C1760 1.356 . S
N1767 H1770 0.984 . S
N1767 H1771 0.985 . S
H1768 N1763 0.984 . S
H1769 N1763 0.985 . S
H1770 N1767 0.984 . S
H1771 N1767 0.985 . S
H1772 N1766 0.984 . S
H1773 N1766 0.984 . S
H1774 N1762 0.984 . S
H1775 N1762 0.985 . S
C1776 C1777 1.363 . S
C1776 C1782 1.379 . S
C1776 N1784 1.356 . S
C1777 C1776 1.363 . S
C1777 C1783 1.363 . S
C1778 C1779 1.363 . S
C1778 C1783 1.379 . S
C1778 N1785 1.356 . S
C1779 C1778 1.363 . S
C1779 C1782 1.363 . S
N1780 C1782 1.356 . S
N1780 H1792 0.984 . S
N1780 H1793 0.985 . S
N1781 C1783 1.356 . S
N1781 H1786 0.984 . S
N1781 H1787 0.985 . S
C1782 C1776 1.379 . S
C1782 C1779 1.363 . S
C1782 N1780 1.356 . S
C1783 C1777 1.363 . S
C1783 C1778 1.379 . S
C1783 N1781 1.356 . S
N1784 C1776 1.356 . S
N1784 H1790 0.984 . S
N1784 H1791 0.984 . S
N1785 C1778 1.356 . S
N1785 H1788 0.984 . S
N1785 H1789 0.985 . S
H1786 N1781 0.984 . S
H1787 N1781 0.985 . S
H1788 N1785 0.984 . S
H1789 N1785 0.985 . S
H1790 N1784 0.984 . S
H1791 N1784 0.984 . S
H1792 N1780 0.984 . S
H1793 N1780 0.985 . S
C1794 C1795 1.363 . S
C1794 C1800 1.379 . S
C1794 N1802 1.356 . S
C1795 C1794 1.363 . S
C1795 C1801 1.363 . S
C1796 C1797 1.363 . S
C1796 C1801 1.379 . S
C1796 N1803 1.356 . S
C1797 C1796 1.363 . S
C1797 C1800 1.363 . S
N1798 C1800 1.356 . S
N1798 H1810 0.984 . S
N1798 H1811 0.985 . S
N1799 C1801 1.356 . S
N1799 H1804 0.984 . S
N1799 H1805 0.985 . S
C1800 C1794 1.379 . S
C1800 C1797 1.363 . S
C1800 N1798 1.356 . S
C1801 C1795 1.363 . S
C1801 C1796 1.379 . S
C1801 N1799 1.356 . S
N1802 C1794 1.356 . S
N1802 H1808 0.984 . S
N1802 H1809 0.984 . S
N1803 C1796 1.356 . S
N1803 H1806 0.984 . S
N1803 H1807 0.985 . S
H1804 N1799 0.984 . S
H1805 N1799 0.985 . S
H1806 N1803 0.984 . S
H1807 N1803 0.985 . S
H1808 N1802 0.984 . S
H1809 N1802 0.984 . S
H1810 N1798 0.984 . S
H1811 N1798 0.985 . S
C1812 C1813 1.363 . S
C1812 C1818 1.379 . S
C1812 N1820 1.356 . S
C1813 C1812 1.363 . S
C1813 C1819 1.363 . S
C1814 C1815 1.363 . S
C1814 C1819 1.379 . S
C1814 N1821 1.356 . S
C1815 C1814 1.363 . S
C1815 C1818 1.363 . S
N1816 C1818 1.356 . S
N1816 H1828 0.984 . S
N1816 H1829 0.985 . S
N1817 C1819 1.356 . S
N1817 H1822 0.984 . S
N1817 H1823 0.985 . S
C1818 C1812 1.379 . S
C1818 C1815 1.363 . S
C1818 N1816 1.356 . S
C1819 C1813 1.363 . S
C1819 C1814 1.379 . S
C1819 N1817 1.356 . S
N1820 C1812 1.356 . S
N1820 H1826 0.984 . S
N1820 H1827 0.984 . S
N1821 C1814 1.356 . S
N1821 H1824 0.984 . S
N1821 H1825 0.985 1_565 S
H1822 N1817 0.984 . S
H1823 N1817 0.985 . S
H1824 N1821 0.984 . S
H1825 N1821 0.985 1_545 S
H1826 N1820 0.984 . S
H1827 N1820 0.984 . S
H1828 N1816 0.984 . S
H1829 N1816 0.985 . S
C1830 C1831 1.363 . S
C1830 C1836 1.379 . S
C1830 N1838 1.356 . S
C1831 C1830 1.363 . S
C1831 C1837 1.363 . S
C1832 C1833 1.363 . S
C1832 C1837 1.379 . S
C1832 N1839 1.356 . S
C1833 C1832 1.363 . S
C1833 C1836 1.363 . S
N1834 C1836 1.356 . S
N1834 H1846 0.984 . S
N1834 H1847 0.985 . S
N1835 C1837 1.356 . S
N1835 H1840 0.984 . S
N1835 H1841 0.985 . S
C1836 C1830 1.379 . S
C1836 C1833 1.363 . S
C1836 N1834 1.356 . S
C1837 C1831 1.363 . S
C1837 C1832 1.379 . S
C1837 N1835 1.356 . S
N1838 C1830 1.356 . S
N1838 H1844 0.984 . S
N1838 H1845 0.984 . S
N1839 C1832 1.356 . S
N1839 H1842 0.984 . S
N1839 H1843 0.985 . S
H1840 N1835 0.984 . S
H1841 N1835 0.985 . S
H1842 N1839 0.984 . S
H1843 N1839 0.985 . S
H1844 N1838 0.984 . S
H1845 N1838 0.984 . S
H1846 N1834 0.984 . S
H1847 N1834 0.985 . S
C1848 C1849 1.363 . S
C1848 C1854 1.379 . S
C1848 N1856 1.356 1_554 S
C1849 C1848 1.363 . S
C1849 C1855 1.363 . S
C1850 C1851 1.363 . S
C1850 C1855 1.379 . S
C1850 N1857 1.356 . S
C1851 C1850 1.363 . S
C1851 C1854 1.363 . S
N1852 C1854 1.356 1_556 S
N1852 H1864 0.984 . S
N1852 H1865 0.985 . S
N1853 C1855 1.356 . S
N1853 H1858 0.984 . S
N1853 H1859 0.985 . S
C1854 C1848 1.379 . S
C1854 C1851 1.363 . S
C1854 N1852 1.356 1_554 S
C1855 C1849 1.363 . S
C1855 C1850 1.379 . S
C1855 N1853 1.356 . S
N1856 C1848 1.356 1_556 S
N1856 H1862 0.984 . S
N1856 H1863 0.984 . S
N1857 C1850 1.356 . S
N1857 H1860 0.984 . S
N1857 H1861 0.985 . S
H1858 N1853 0.984 . S
H1859 N1853 0.985 . S
H1860 N1857 0.984 . S
H1861 N1857 0.985 . S
H1862 N1856 0.984 . S
H1863 N1856 0.984 . S
H1864 N1852 0.984 . S
H1865 N1852 0.985 . S
C1866 C1867 1.363 . S
C1866 C1872 1.379 . S
C1866 N1874 1.356 . S
C1867 C1866 1.363 . S
C1867 C1873 1.363 . S
C1868 C1869 1.363 . S
C1868 C1873 1.379 . S
C1868 N1875 1.356 1_556 S
C1869 C1868 1.363 . S
C1869 C1872 1.363 . S
N1870 C1872 1.356 . S
N1870 H1882 0.984 . S
N1870 H1883 0.985 . S
N1871 C1873 1.356 1_554 S
N1871 H1876 0.984 1_554 S
N1871 H1877 0.985 . S
C1872 C1866 1.379 . S
C1872 C1869 1.363 . S
C1872 N1870 1.356 . S
C1873 C1867 1.363 . S
C1873 C1868 1.379 . S
C1873 N1871 1.356 1_556 S
N1874 C1866 1.356 . S
N1874 H1880 0.984 . S
N1874 H1881 0.984 . S
N1875 C1868 1.356 1_554 S
N1875 H1878 0.984 . S
N1875 H1879 0.985 . S
H1876 N1871 0.984 1_556 S
H1877 N1871 0.985 . S
H1878 N1875 0.984 . S
H1879 N1875 0.985 . S
H1880 N1874 0.984 . S
H1881 N1874 0.984 . S
H1882 N1870 0.984 . S
H1883 N1870 0.985 . S
C1884 C1885 1.363 . S
C1884 C1890 1.379 . S
C1884 N1892 1.356 . S
C1885 C1884 1.363 . S
C1885 C1891 1.363 . S
C1886 C1887 1.363 . S
C1886 C1891 1.379 . S
C1886 N1893 1.356 . S
C1887 C1886 1.363 . S
C1887 C1890 1.363 . S
N1888 C1890 1.356 . S
N1888 H1900 0.984 . S
N1888 H1901 0.985 . S
N1889 C1891 1.356 . S
N1889 H1894 0.984 . S
N1889 H1895 0.985 . S
C1890 C1884 1.379 . S
C1890 C1887 1.363 . S
C1890 N1888 1.356 . S
C1891 C1885 1.363 . S
C1891 C1886 1.379 . S
C1891 N1889 1.356 . S
N1892 C1884 1.356 . S
N1892 H1898 0.984 . S
N1892 H1899 0.984 . S
N1893 C1886 1.356 . S
N1893 H1896 0.984 . S
N1893 H1897 0.985 . S
H1894 N1889 0.984 . S
H1895 N1889 0.985 . S
H1896 N1893 0.984 . S
H1897 N1893 0.985 . S
H1898 N1892 0.984 . S
H1899 N1892 0.984 . S
H1900 N1888 0.984 . S
H1901 N1888 0.985 . S
C1902 C1903 1.363 . S
C1902 C1908 1.379 . S
C1902 N1910 1.356 . S
C1903 C1902 1.363 . S
C1903 C1909 1.363 . S
C1904 C1905 1.363 . S
C1904 C1909 1.379 . S
C1904 N1911 1.356 . S
C1905 C1904 1.363 . S
C1905 C1908 1.363 . S
N1906 C1908 1.356 . S
N1906 H1918 0.984 . S
N1906 H1919 0.985 . S
N1907 C1909 1.356 . S
N1907 H1912 0.984 . S
N1907 H1913 0.985 . S
C1908 C1902 1.379 . S
C1908 C1905 1.363 . S
C1908 N1906 1.356 . S
C1909 C1903 1.363 . S
C1909 C1904 1.379 . S
C1909 N1907 1.356 . S
N1910 C1902 1.356 . S
N1910 H1916 0.984 . S
N1910 H1917 0.984 . S
N1911 C1904 1.356 . S
N1911 H1914 0.984 . S
N1911 H1915 0.985 . S
H1912 N1907 0.984 . S
H1913 N1907 0.985 . S
H1914 N1911 0.984 . S
H1915 N1911 0.985 . S
H1916 N1910 0.984 . S
H1917 N1910 0.984 . S
H1918 N1906 0.984 . S
H1919 N1906 0.985 . S
C1920 C1921 1.363 . S
C1920 C1926 1.379 . S
C1920 N1928 1.356 . S
C1921 C1920 1.363 . S
C1921 C1927 1.363 . S
C1922 C1923 1.363 . S
C1922 C1927 1.379 . S
C1922 N1929 1.356 . S
C1923 C1922 1.363 . S
C1923 C1926 1.363 . S
N1924 C1926 1.356 . S
N1924 H1936 0.984 . S
N1924 H1937 0.985 . S
N1925 C1927 1.356 . S
N1925 H1930 0.984 . S
N1925 H1931 0.985 . S
C1926 C1920 1.379 . S
C1926 C1923 1.363 . S
C1926 N1924 1.356 . S
C1927 C1921 1.363 . S
C1927 C1922 1.379 . S
C1927 N1925 1.356 . S
N1928 C1920 1.356 . S
N1928 H1934 0.984 . S
N1928 H1935 0.984 . S
N1929 C1922 1.356 . S
N1929 H1932 0.984 . S
N1929 H1933 0.985 . S
H1930 N1925 0.984 . S
H1931 N1925 0.985 . S
H1932 N1929 0.984 . S
H1933 N1929 0.985 . S
H1934 N1928 0.984 . S
H1935 N1928 0.984 . S
H1936 N1924 0.984 . S
H1937 N1924 0.985 . S
C1938 C1939 1.363 . S
C1938 C1944 1.379 . S
C1938 N1946 1.356 . S
C1939 C1938 1.363 . S
C1939 C1945 1.363 . S
C1940 C1941 1.363 . S
C1940 C1945 1.379 . S
C1940 N1947 1.356 . S
C1941 C1940 1.363 . S
C1941 C1944 1.363 . S
N1942 C1944 1.356 . S
N1942 H1954 0.984 . S
N1942 H1955 0.985 . S
N1943 C1945 1.356 . S
N1943 H1948 0.984 . S
N1943 H1949 0.985 . S
C1944 C1938 1.379 . S
C1944 C1941 1.363 . S
C1944 N1942 1.356 . S
C1945 C1939 1.363 . S
C1945 C1940 1.379 . S
C1945 N1943 1.356 . S
N1946 C1938 1.356 . S
N1946 H1952 0.984 . S
N1946 H1953 0.984 . S
N1947 C1940 1.356 . S
N1947 H1950 0.984 . S
N1947 H1951 0.985 1_655 S
H1948 N1943 0.984 . S
H1949 N1943 0.985 . S
H1950 N1947 0.984 . S
H1951 N1947 0.985 1_455 S
H1952 N1946 0.984 . S
H1953 N1946 0.984 . S
H1954 N1942 0.984 . S
H1955 N1942 0.985 . S
C1956 C1957 1.363 . S
C1956 C1962 1.379 . S
C1956 N1964 1.356 . S
C1957 C1956 1.363 . S
C1957 C1963 1.363 . S
C1958 C1959 1.363 . S
C1958 C1963 1.379 . S
C1958 N1965 1.356 . S
C1959 C1958 1.363 . S
C1959 C1962 1.363 . S
N1960 C1962 1.356 . S
N1960 H1972 0.984 . S
N1960 H1973 0.985 . S
N1961 C1963 1.356 . S
N1961 H1966 0.984 . S
N1961 H1967 0.985 . S
C1962 C1956 1.379 . S
C1962 C1959 1.363 . S
C1962 N1960 1.356 . S
C1963 C1957 1.363 . S
C1963 C1958 1.379 . S
C1963 N1961 1.356 . S
N1964 C1956 1.356 . S
N1964 H1970 0.984 . S
N1964 H1971 0.984 . S
N1965 C1958 1.356 . S
N1965 H1968 0.984 . S
N1965 H1969 0.985 . S
H1966 N1961 0.984 . S
H1967 N1961 0.985 . S
H1968 N1965 0.984 . S
H1969 N1965 0.985 . S
H1970 N1964 0.984 . S
H1971 N1964 0.984 . S
H1972 N1960 0.984 . S
H1973 N1960 0.985 . S
C1974 C1975 1.363 . S
C1974 C1980 1.379 . S
C1974 N1982 1.356 . S
C1975 C1974 1.363 . S
C1975 C1981 1.363 . S
C1976 C1977 1.363 . S
C1976 C1981 1.379 . S
C1976 N1983 1.356 . S
C1977 C1976 1.363 . S
C1977 C1980 1.363 . S
N1978 C1980 1.356 . S
N1978 H1990 0.984 . S
N1978 H1991 0.985 . S
N1979 C1981 1.356 . S
N1979 H1984 0.984 . S
N1979 H1985 0.985 . S
C1980 C1974 1.379 . S
C1980 C1977 1.363 . S
C1980 N1978 1.356 . S
C1981 C1975 1.363 . S
C1981 C1976 1.379 . S
C1981 N1979 1.356 . S
N1982 C1974 1.356 . S
N1982 H1988 0.984 . S
N1982 H1989 0.984 . S
N1983 C1976 1.356 . S
N1983 H1986 0.984 . S
N1983 H1987 0.985 . S
H1984 N1979 0.984 . S
H1985 N1979 0.985 . S
H1986 N1983 0.984 . S
H1987 N1983 0.985 . S
H1988 N1982 0.984 . S
H1989 N1982 0.984 . S
H1990 N1978 0.984 . S
H1991 N1978 0.985 . S
C1992 C1993 1.363 . S
C1992 C1998 1.379 . S
C1992 N2000 1.356 1_556 S
C1993 C1992 1.363 . S
C1993 C1999 1.363 . S
C1994 C1995 1.363 . S
C1994 C1999 1.379 . S
C1994 N2001 1.356 . S
C1995 C1994 1.363 . S
C1995 C1998 1.363 . S
N1996 C1998 1.356 . S
N1996 H2008 0.984 1_556 S
N1996 H2009 0.985 . S
N1997 C1999 1.356 . S
N1997 H2002 0.984 . S
N1997 H2003 0.985 . S
C1998 C1992 1.379 . S
C1998 C1995 1.363 . S
C1998 N1996 1.356 . S
C1999 C1993 1.363 . S
C1999 C1994 1.379 . S
C1999 N1997 1.356 . S
N2000 C1992 1.356 1_554 S
N2000 H2006 0.984 . S
N2000 H2007 0.984 . S
N2001 C1994 1.356 . S
N2001 H2004 0.984 . S
N2001 H2005 0.985 . S
H2002 N1997 0.984 . S
H2003 N1997 0.985 . S
H2004 N2001 0.984 . S
H2005 N2001 0.985 . S
H2006 N2000 0.984 . S
H2007 N2000 0.984 . S
H2008 N1996 0.984 1_554 S
H2009 N1996 0.985 . S
C2010 C2011 1.363 . S
C2010 C2016 1.379 . S
C2010 N2018 1.356 . S
C2011 C2010 1.363 . S
C2011 C2017 1.363 . S
C2012 C2013 1.363 . S
C2012 C2017 1.379 . S
C2012 N2019 1.356 . S
C2013 C2012 1.363 . S
C2013 C2016 1.363 . S
N2014 C2016 1.356 . S
N2014 H2026 0.984 . S
N2014 H2027 0.985 . S
N2015 C2017 1.356 . S
N2015 H2020 0.984 . S
N2015 H2021 0.987 . S
C2016 C2010 1.379 . S
C2016 C2013 1.363 . S
C2016 N2014 1.356 . S
C2017 C2011 1.363 . S
C2017 C2012 1.379 . S
C2017 N2015 1.356 . S
N2018 C2010 1.356 . S
N2018 H2024 0.984 . S
N2018 H2025 0.984 . S
N2019 C2012 1.356 . S
N2019 H2022 0.984 . S
N2019 H2023 0.985 1_655 S
H2020 N2015 0.984 . S
H2021 N2015 0.987 . S
H2022 N2019 0.984 . S
H2023 N2019 0.985 1_455 S
H2024 N2018 0.984 . S
H2025 N2018 0.984 . S
H2026 N2014 0.984 . S
H2027 N2014 0.985 . S
C2028 C2029 1.363 . S
C2028 C2034 1.379 . S
C2028 N2036 1.356 . S
C2029 C2028 1.363 . S
C2029 C2035 1.363 . S
C2030 C2031 1.363 . S
C2030 C2035 1.379 . S
C2030 N2037 1.356 . S
C2031 C2030 1.363 . S
C2031 C2034 1.363 . S
N2032 C2034 1.356 . S
N2032 H2044 0.984 . S
N2032 H2045 0.985 . S
N2033 C2035 1.356 . S
N2033 H2038 0.984 . S
N2033 H2039 0.985 . S
C2034 C2028 1.379 . S
C2034 C2031 1.363 . S
C2034 N2032 1.356 . S
C2035 C2029 1.363 . S
C2035 C2030 1.379 . S
C2035 N2033 1.356 . S
N2036 C2028 1.356 . S
N2036 H2042 0.984 . S
N2036 H2043 0.984 . S
N2037 C2030 1.356 . S
N2037 H2040 0.984 . S
N2037 H2041 0.985 . S
H2038 N2033 0.984 . S
H2039 N2033 0.985 . S
H2040 N2037 0.984 . S
H2041 N2037 0.985 . S
H2042 N2036 0.984 . S
H2043 N2036 0.984 . S
H2044 N2032 0.984 . S
H2045 N2032 0.985 . S
C2046 C2047 1.363 . S
C2046 C2052 1.379 . S
C2046 N2054 1.356 . S
C2047 C2046 1.363 . S
C2047 C2053 1.363 . S
C2048 C2049 1.363 . S
C2048 C2053 1.379 . S
C2048 N2055 1.356 . S
C2049 C2048 1.363 . S
C2049 C2052 1.363 . S
N2050 C2052 1.356 . S
N2050 H2062 0.984 . S
N2050 H2063 0.985 . S
N2051 C2053 1.356 . S
N2051 H2056 0.984 . S
N2051 H2057 0.985 . S
C2052 C2046 1.379 . S
C2052 C2049 1.363 . S
C2052 N2050 1.356 . S
C2053 C2047 1.363 . S
C2053 C2048 1.379 . S
C2053 N2051 1.356 . S
N2054 C2046 1.356 . S
N2054 H2060 0.984 . S
N2054 H2061 0.984 . S
N2055 C2048 1.356 . S
N2055 H2058 0.984 . S
N2055 H2059 0.985 . S
H2056 N2051 0.984 . S
H2057 N2051 0.985 . S
H2058 N2055 0.984 . S
H2059 N2055 0.985 . S
H2060 N2054 0.984 . S
H2061 N2054 0.984 . S
H2062 N2050 0.984 . S
H2063 N2050 0.985 . S
C2064 C2065 1.363 . S
C2064 C2070 1.379 . S
C2064 N2072 1.356 . S
C2065 C2064 1.363 . S
C2065 C2071 1.363 . S
C2066 C2067 1.363 . S
C2066 C2071 1.379 . S
C2066 N2073 1.356 . S
C2067 C2066 1.363 . S
C2067 C2070 1.363 . S
N2068 C2070 1.356 . S
N2068 H2080 0.984 . S
N2068 H2081 0.985 . S
N2069 C2071 1.356 . S
N2069 H2074 0.984 . S
N2069 H2075 0.985 . S
C2070 C2064 1.379 . S
C2070 C2067 1.363 . S
C2070 N2068 1.356 . S
C2071 C2065 1.363 . S
C2071 C2066 1.379 . S
C2071 N2069 1.356 . S
N2072 C2064 1.356 . S
N2072 H2078 0.984 . S
N2072 H2079 0.984 . S
N2073 C2066 1.356 . S
N2073 H2076 0.984 . S
N2073 H2077 0.985 . S
H2074 N2069 0.984 . S
H2075 N2069 0.985 . S
H2076 N2073 0.984 . S
H2077 N2073 0.985 . S
H2078 N2072 0.984 . S
H2079 N2072 0.984 . S
H2080 N2068 0.984 . S
H2081 N2068 0.985 . S
C2082 C2083 1.363 . S
C2082 C2088 1.379 . S
C2082 N2090 1.356 . S
C2083 C2082 1.363 . S
C2083 C2089 1.363 . S
C2084 C2085 1.363 . S
C2084 C2089 1.379 . S
C2084 N2091 1.356 . S
C2085 C2084 1.363 . S
C2085 C2088 1.363 . S
N2086 C2088 1.356 . S
N2086 H2098 0.984 . S
N2086 H2099 0.985 . S
N2087 C2089 1.356 . S
N2087 H2092 0.984 . S
N2087 H2093 0.985 . S
C2088 C2082 1.379 . S
C2088 C2085 1.363 . S
C2088 N2086 1.356 . S
C2089 C2083 1.363 . S
C2089 C2084 1.379 . S
C2089 N2087 1.356 . S
N2090 C2082 1.356 . S
N2090 H2096 0.984 . S
N2090 H2097 0.984 . S
N2091 C2084 1.356 . S
N2091 H2094 0.984 . S
N2091 H2095 0.985 . S
H2092 N2087 0.984 . S
H2093 N2087 0.985 . S
H2094 N2091 0.984 . S
H2095 N2091 0.985 . S
H2096 N2090 0.984 . S
H2097 N2090 0.984 . S
H2098 N2086 0.984 . S
H2099 N2086 0.985 . S
C2100 C2101 1.363 . S
C2100 C2106 1.379 . S
C2100 N2108 1.356 . S
C2101 C2100 1.363 . S
C2101 C2107 1.363 . S
C2102 C2103 1.363 . S
C2102 C2107 1.379 . S
C2102 N2109 1.356 . S
C2103 C2102 1.363 . S
C2103 C2106 1.363 . S
N2104 C2106 1.356 . S
N2104 H2116 0.984 . S
N2104 H2117 0.985 . S
N2105 C2107 1.356 . S
N2105 H2110 0.984 . S
N2105 H2111 0.985 . S
C2106 C2100 1.379 . S
C2106 C2103 1.363 . S
C2106 N2104 1.356 . S
C2107 C2101 1.363 . S
C2107 C2102 1.379 . S
C2107 N2105 1.356 . S
N2108 C2100 1.356 . S
N2108 H2114 0.984 . S
N2108 H2115 0.984 . S
N2109 C2102 1.356 . S
N2109 H2112 0.984 . S
N2109 H2113 0.985 . S
H2110 N2105 0.984 . S
H2111 N2105 0.985 . S
H2112 N2109 0.984 . S
H2113 N2109 0.985 . S
H2114 N2108 0.984 . S
H2115 N2108 0.984 . S
H2116 N2104 0.984 . S
H2117 N2104 0.985 . S
C2118 C2119 1.363 . S
C2118 C2124 1.379 . S
C2118 N2126 1.356 . S
C2119 C2118 1.363 . S
C2119 C2125 1.363 . S
C2120 C2121 1.363 . S
C2120 C2125 1.379 . S
C2120 N2127 1.356 . S
C2121 C2120 1.363 . S
C2121 C2124 1.363 . S
N2122 C2124 1.356 . S
N2122 H2134 0.984 . S
N2122 H2135 0.985 . S
N2123 C2125 1.356 . S
N2123 H2128 0.984 . S
N2123 H2129 0.985 . S
C2124 C2118 1.379 . S
C2124 C2121 1.363 . S
C2124 N2122 1.356 . S
C2125 C2119 1.363 . S
C2125 C2120 1.379 . S
C2125 N2123 1.356 . S
N2126 C2118 1.356 . S
N2126 H2132 0.984 . S
N2126 H2133 0.984 . S
N2127 C2120 1.356 . S
N2127 H2130 0.984 . S
N2127 H2131 0.985 . S
H2128 N2123 0.984 . S
H2129 N2123 0.985 . S
H2130 N2127 0.984 . S
H2131 N2127 0.985 . S
H2132 N2126 0.984 . S
H2133 N2126 0.984 . S
H2134 N2122 0.984 . S
H2135 N2122 0.985 . S
C1273 C410 1.737 . S
C1275 C29 1.604 . S
C1291 C82 1.056 . S
C1293 C241 1.069 . S
C1309 C304 1.614 . S
C1311 C135 1.536 . S
C1327 C188 1.131 . S
C1329 C347 1.152 . S
C1345 C463 2.211 . S
C1347 C39 2.326 . S
C1363 C92 1.496 . S
C1365 C506 1.507 . S
C1381 C569 2.179 . S
C1383 C145 2.310 . S
C1399 C612 1.440 . S
C1401 C198 1.443 . S
C1417 C251 1.805 . S
C1419 C516 1.855 . S
C1435 C294 1.428 . S
C1437 C559 1.541 . S
C1453 C622 1.931 . S
C1455 C357 1.851 . S
C1471 C453 1.558 . S
C1473 C400 1.448 . S
C1489 C1142 1.724 . S
C1491 C675 1.624 . S
C1507 C728 1.859 . S
C1509 C1205 1.810 . S
C1525 C781 1.358 . S
C1527 C1248 1.419 . S
C1543 C1258 1.979 . S
C1545 C834 2.028 . S
C1561 C887 2.066 . S
C1563 C1152 2.063 . S
C1579 C1046 1.460 . S
C1581 C930 1.487 . S
C1597 C665 1.414 . S
C1599 C877 1.385 . S
C1615 C718 1.038 . S
C1617 C993 1.012 . S
C1633 C771 1.578 . S
C1635 C824 1.545 . S
C1651 C940 2.026 . S
C1653 C1099 2.026 . S
C1669 C983 1.250 . S
C1671 C1195 1.227 . S
C1687 C1089 1.108 . S
C1689 C1036 1.088 . S
C1705 C234 2.381 . S
C1707 C22 2.288 . S
C1723 C303 2.022 . S
C1725 C75 1.907 . S
C1741 C340 2.512 . S
C1743 C128 2.416 . S
C1759 C409 2.553 . S
C1761 C181 2.461 . S
C1777 C462 2.882 . S
C1779 C621 2.985 . S
C1795 C499 2.315 . S
C1797 C446 2.385 . S
C1813 C568 2.691 . S
C1815 C515 2.786 . S
C1831 C552 1.934 . S
C1833 C605 1.849 . S
C1849 C976 3.062 . S
C1851 C393 2.892 . S
C1867 C674 2.694 . S
C1869 C197 2.838 . S
C1885 C38 2.445 . S
C1887 C727 2.405 . S
C1903 C91 3.279 . S
C1905 C780 3.152 . S
C1921 C287 2.748 . S
C1923 C1029 2.859 . S
C1939 C250 2.116 . S
C1941 C833 2.168 . S
C1957 C356 2.112 . S
C1959 C886 2.182 . S
C1975 C870 2.319 . S
C1977 C923 2.413 . S
C1993 C658 1.850 . S
C1995 C992 1.776 . S
C2011 C817 2.329 . S
C2013 C711 2.484 . S
C2029 C1045 3.065 . S
C2031 C764 3.080 . S
C2047 C1098 2.577 . S
C2049 C1257 2.547 . S
C2065 C1082 2.303 . S
C2067 C1135 2.385 . S
C2083 C1204 2.745 . S
C2085 C1151 2.703 . S
C2101 C1241 1.907 . S
C2103 C1188 1.781 . S
C2119 C144 2.774 . S
C2121 C939 2.695 . S
