# Generated by pormake.
# Topology pcl, (4)-cn, num edge types: 1
# Building blocks:
#     Node 0, Type 0, BuildingBlock: ICAMEG_clean_sbu_1, # of connection points: 4
#     Node 1, Type 0, BuildingBlock: ICAMEG_clean_sbu_1, # of connection points: 4
#     Node 2, Type 0, BuildingBlock: ICAMEG_clean_sbu_1, # of connection points: 4
#     Node 3, Type 0, BuildingBlock: ICAMEG_clean_sbu_1, # of connection points: 4
#     Node 4, Type 0, BuildingBlock: ICAMEG_clean_sbu_1, # of connection points: 4
#     Node 5, Type 0, BuildingBlock: ICAMEG_clean_sbu_1, # of connection points: 4
#     Node 6, Type 0, BuildingBlock: ICAMEG_clean_sbu_1, # of connection points: 4
#     Node 7, Type 0, BuildingBlock: ICAMEG_clean_sbu_1, # of connection points: 4
#     Node 8, Type 0, BuildingBlock: ICAMEG_clean_sbu_1, # of connection points: 4
#     Node 9, Type 0, BuildingBlock: ICAMEG_clean_sbu_1, # of connection points: 4
#     Node 10, Type 0, BuildingBlock: ICAMEG_clean_sbu_1, # of connection points: 4
#     Node 11, Type 0, BuildingBlock: ICAMEG_clean_sbu_1, # of connection points: 4
#     Node 12, Type 0, BuildingBlock: ICAMEG_clean_sbu_1, # of connection points: 4
#     Node 13, Type 0, BuildingBlock: ICAMEG_clean_sbu_1, # of connection points: 4
#     Node 14, Type 0, BuildingBlock: ICAMEG_clean_sbu_1, # of connection points: 4
#     Node 15, Type 0, BuildingBlock: ICAMEG_clean_sbu_1, # of connection points: 4
#     Edge 16, Type (0, 0), BuildingBlock: ZUJKAS_clean_linker_0, # of connection points: 2
#     Edge 17, Type (0, 0), BuildingBlock: ZUJKAS_clean_linker_0, # of connection points: 2
#     Edge 18, Type (0, 0), BuildingBlock: ZUJKAS_clean_linker_0, # of connection points: 2
#     Edge 19, Type (0, 0), BuildingBlock: ZUJKAS_clean_linker_0, # of connection points: 2
#     Edge 20, Type (0, 0), BuildingBlock: ZUJKAS_clean_linker_0, # of connection points: 2
#     Edge 21, Type (0, 0), BuildingBlock: ZUJKAS_clean_linker_0, # of connection points: 2
#     Edge 22, Type (0, 0), BuildingBlock: ZUJKAS_clean_linker_0, # of connection points: 2
#     Edge 23, Type (0, 0), BuildingBlock: ZUJKAS_clean_linker_0, # of connection points: 2
#     Edge 24, Type (0, 0), BuildingBlock: ZUJKAS_clean_linker_0, # of connection points: 2
#     Edge 25, Type (0, 0), BuildingBlock: ZUJKAS_clean_linker_0, # of connection points: 2
#     Edge 26, Type (0, 0), BuildingBlock: ZUJKAS_clean_linker_0, # of connection points: 2
#     Edge 27, Type (0, 0), BuildingBlock: ZUJKAS_clean_linker_0, # of connection points: 2
#     Edge 28, Type (0, 0), BuildingBlock: ZUJKAS_clean_linker_0, # of connection points: 2
#     Edge 29, Type (0, 0), BuildingBlock: ZUJKAS_clean_linker_0, # of connection points: 2
#     Edge 30, Type (0, 0), BuildingBlock: ZUJKAS_clean_linker_0, # of connection points: 2
#     Edge 31, Type (0, 0), BuildingBlock: ZUJKAS_clean_linker_0, # of connection points: 2
#     Edge 32, Type (0, 0), BuildingBlock: ZUJKAS_clean_linker_0, # of connection points: 2
#     Edge 33, Type (0, 0), BuildingBlock: ZUJKAS_clean_linker_0, # of connection points: 2
#     Edge 34, Type (0, 0), BuildingBlock: ZUJKAS_clean_linker_0, # of connection points: 2
#     Edge 35, Type (0, 0), BuildingBlock: ZUJKAS_clean_linker_0, # of connection points: 2
#     Edge 36, Type (0, 0), BuildingBlock: ZUJKAS_clean_linker_0, # of connection points: 2
#     Edge 37, Type (0, 0), BuildingBlock: ZUJKAS_clean_linker_0, # of connection points: 2
#     Edge 38, Type (0, 0), BuildingBlock: ZUJKAS_clean_linker_0, # of connection points: 2
#     Edge 39, Type (0, 0), BuildingBlock: ZUJKAS_clean_linker_0, # of connection points: 2
#     Edge 40, Type (0, 0), BuildingBlock: ZUJKAS_clean_linker_0, # of connection points: 2
#     Edge 41, Type (0, 0), BuildingBlock: ZUJKAS_clean_linker_0, # of connection points: 2
#     Edge 42, Type (0, 0), BuildingBlock: ZUJKAS_clean_linker_0, # of connection points: 2
#     Edge 43, Type (0, 0), BuildingBlock: ZUJKAS_clean_linker_0, # of connection points: 2
#     Edge 44, Type (0, 0), BuildingBlock: ZUJKAS_clean_linker_0, # of connection points: 2
#     Edge 45, Type (0, 0), BuildingBlock: ZUJKAS_clean_linker_0, # of connection points: 2
#     Edge 46, Type (0, 0), BuildingBlock: ZUJKAS_clean_linker_0, # of connection points: 2
#     Edge 47, Type (0, 0), BuildingBlock: ZUJKAS_clean_linker_0, # of connection points: 2
# Relax obj value: 0.090
# Max RMSD: 0.122
# Mean RMSD: 0.117
data_MOF--net-pcl--node1-ICAMEG_clean_sbu_1--edge1-ZUJKAS_clean_linker_0
_symmetry_space_group_name_H-M    P1
_symmetry_Int_Tables_number       1
_symmetry_cell_setting            triclinic
loop_
_symmetry_equiv_pos_as_xyz
'x, y, z'
_cell_length_a     70.917003
_cell_length_b     55.345622
_cell_length_c     59.942446
_cell_angle_alpha  89.972904
_cell_angle_beta   90.032567
_cell_angle_gamma 89.977242
loop_
_atom_site_label
_atom_site_type_symbol
_atom_site_fract_x
_atom_site_fract_y
_atom_site_fract_z
_atom_type_partial_charge
Co0 Co 0.14384 0.36512 0.10956 0.0
Co1 Co 0.13827 0.30667 0.09138 0.0
O2 O 0.14965 0.33887 0.08881 0.0
C3 C 0.13704 0.39022 0.06625 0.0
O4 O 0.12624 0.37218 0.05998 0.0
C5 C 0.17954 0.29636 0.08673 0.0
O6 O 0.18291 0.31319 0.10164 0.0
O7 O 0.14624 0.304 0.12339 0.0
O8 O 0.14205 0.34208 0.13501 0.0
H9 H 0.09917 0.24213 0.12788 0.0
H10 H 0.17757 0.36892 0.08073 0.0
O11 O 0.14557 0.38945 0.08493 0.0
H12 H 0.20177 0.37241 0.1578 0.0
H13 H 0.15123 0.44845 0.14217 0.0
H14 H 0.11616 0.37164 0.14611 0.0
H15 H 0.16765 0.36888 0.15059 0.0
H16 H 0.15883 0.41494 0.1166 0.0
O17 O 0.1626 0.29137 0.08131 0.0
H18 H 0.11328 0.28267 0.12423 0.0
H19 H 0.1398 0.26189 0.06368 0.0
H20 H 0.10821 0.4046 0.17214 0.0
H21 H 0.21181 0.37271 0.08718 0.0
H22 H 0.1258 0.44334 0.17027 0.0
H23 H 0.22411 0.37439 0.12595 0.0
O24 O 0.11636 0.3612 0.10371 0.0
H25 H 0.14752 0.32594 0.0102 0.0
H26 H 0.10223 0.29774 0.06689 0.0
H27 H 0.09189 0.30211 0.02782 0.0
H28 H 0.11463 0.31625 0.99915 0.0
H29 H 0.15723 0.32154 0.04951 0.0
H30 H 0.1261 0.22107 0.06677 0.0
H31 H 0.10556 0.21101 0.09901 0.0
O32 O 0.1134 0.32094 0.10077 0.0
C33 C 0.14478 0.31972 0.1389 0.0
C34 C 0.10806 0.24632 0.11373 0.0
C35 C 0.1232 0.23449 0.07945 0.0
N36 N 0.12727 0.27468 0.09371 0.0
C37 C 0.11606 0.26925 0.11154 0.0
C38 C 0.13096 0.25761 0.07782 0.0
C39 C 0.11167 0.22886 0.09754 0.0
C40 C 0.18281 0.36987 0.09765 0.0
N41 N 0.17062 0.36873 0.11525 0.0
C42 C 0.20221 0.37192 0.10119 0.0
C43 C 0.20911 0.37282 0.12295 0.0
C44 C 0.19658 0.37168 0.14083 0.0
C45 C 0.17728 0.3696 0.13665 0.0
C46 C 0.14348 0.43164 0.14317 0.0
C47 C 0.12394 0.38841 0.14526 0.0
C48 C 0.14768 0.41263 0.12869 0.0
N49 N 0.13802 0.39131 0.12993 0.0
C50 C 0.11935 0.40702 0.16001 0.0
C51 C 0.12922 0.42876 0.15894 0.0
C52 C 0.10633 0.3421 0.10264 0.0
C53 C 0.1375 0.31971 0.02253 0.0
C54 C 0.11219 0.304 0.05454 0.0
C55 C 0.10627 0.30638 0.03243 0.0
C56 C 0.11903 0.3143 0.01634 0.0
N57 N 0.13034 0.3093 0.06047 0.0
C58 C 0.14293 0.3171 0.0448 0.0
Co59 Co 0.87188 0.64053 0.608 0.0
Co60 Co 0.87713 0.69948 0.59089 0.0
O61 O 0.86616 0.66712 0.58757 0.0
C62 C 0.88019 0.61642 0.56463 0.0
O63 O 0.8911 0.63467 0.55921 0.0
C64 C 0.83574 0.7092 0.58577 0.0
O65 O 0.83241 0.69208 0.60043 0.0
O66 O 0.86881 0.70134 0.62283 0.0
O67 O 0.87283 0.66301 0.63391 0.0
H68 H 0.91511 0.76395 0.62908 0.0
H69 H 0.83883 0.63674 0.57805 0.0
O70 O 0.87099 0.61675 0.58286 0.0
H71 H 0.81303 0.63099 0.65425 0.0
H72 H 0.86487 0.55629 0.63875 0.0
H73 H 0.8988 0.63373 0.64534 0.0
H74 H 0.84724 0.63535 0.64819 0.0
H75 H 0.85741 0.59024 0.61358 0.0
O76 O 0.85269 0.71454 0.58067 0.0
H77 H 0.90152 0.72323 0.62451 0.0
H78 H 0.87534 0.7448 0.56394 0.0
H79 H 0.9066 0.60032 0.67099 0.0
H80 H 0.80451 0.63213 0.58334 0.0
H81 H 0.88958 0.56126 0.66777 0.0
H82 H 0.79141 0.6293 0.62167 0.0
O83 O 0.89942 0.64512 0.60314 0.0
H84 H 0.86891 0.68174 0.50925 0.0
H85 H 0.91329 0.7096 0.56711 0.0
H86 H 0.92408 0.70625 0.52815 0.0
H87 H 0.9018 0.69229 0.49889 0.0
H88 H 0.85876 0.68513 0.54847 0.0
H89 H 0.88852 0.7858 0.56795 0.0
H90 H 0.90863 0.79557 0.60067 0.0
O91 O 0.90209 0.68544 0.60041 0.0
C92 C 0.87 0.68529 0.6381 0.0
C93 C 0.90641 0.7599 0.61473 0.0
C94 C 0.89146 0.77217 0.58043 0.0
N95 N 0.88773 0.73161 0.59393 0.0
C96 C 0.89871 0.73686 0.61202 0.0
C97 C 0.88399 0.74894 0.57829 0.0
C98 C 0.90275 0.77764 0.59879 0.0
C99 C 0.83323 0.63529 0.59477 0.0
N100 N 0.84503 0.63626 0.61278 0.0
C101 C 0.81379 0.63278 0.59766 0.0
C102 C 0.80645 0.63124 0.61918 0.0
C103 C 0.81857 0.6322 0.63746 0.0
C104 C 0.83793 0.63476 0.63393 0.0
C105 C 0.87237 0.57324 0.64033 0.0
C106 C 0.89127 0.61682 0.64391 0.0
C107 C 0.86824 0.5925 0.62609 0.0
N108 N 0.87759 0.61399 0.62807 0.0
C109 C 0.89577 0.59796 0.65845 0.0
C110 C 0.88623 0.57604 0.65662 0.0
C111 C 0.90931 0.66436 0.60236 0.0
C112 C 0.87874 0.6879 0.52184 0.0
C113 C 0.90354 0.70341 0.55451 0.0
C114 C 0.90971 0.70161 0.53246 0.0
C115 C 0.8972 0.69379 0.51604 0.0
N116 N 0.88539 0.69764 0.56007 0.0
C117 C 0.87306 0.68993 0.54407 0.0
Co118 Co 0.14418 0.64075 0.9032 0.0
Co119 Co 0.14033 0.70006 0.91937 0.0
O120 O 0.15098 0.66746 0.92307 0.0
C121 C 0.13757 0.61666 0.94714 0.0
O122 O 0.12684 0.63483 0.95327 0.0
C123 C 0.18184 0.70786 0.92594 0.0
O124 O 0.18512 0.68831 0.9142 0.0
O125 O 0.14853 0.70108 0.88744 0.0
O126 O 0.14229 0.66305 0.87709 0.0
H127 H 0.10288 0.76449 0.88027 0.0
H128 H 0.17844 0.63563 0.93105 0.0
O129 O 0.14598 0.61711 0.92839 0.0
H130 H 0.20073 0.62956 0.85335 0.0
H131 H 0.14895 0.5562 0.8726 0.0
H132 H 0.1155 0.63416 0.86773 0.0
H133 H 0.16696 0.63523 0.86151 0.0
H134 H 0.1579 0.59016 0.89702 0.0
O135 O 0.16497 0.71511 0.92898 0.0
H136 H 0.11606 0.72363 0.88546 0.0
H137 H 0.14271 0.74587 0.94552 0.0
H138 H 0.1062 0.60074 0.84285 0.0
H139 H 0.21232 0.62954 0.92366 0.0
H140 H 0.12297 0.56141 0.8452 0.0
H141 H 0.22367 0.62659 0.88456 0.0
O142 O 0.11702 0.64591 0.90988 0.0
H143 H 0.14873 0.68373 1.00124 0.0
H144 H 0.10436 0.71121 0.94315 0.0
H145 H 0.09372 0.70882 0.98224 0.0
H146 H 0.116 0.69505 0.01161 0.0
H147 H 0.15874 0.68618 0.9619 0.0
H148 H 0.12994 0.78702 0.94088 0.0
H149 H 0.1098 0.79652 0.90811 0.0
O150 O 0.11512 0.68638 0.91026 0.0
C151 C 0.14605 0.685 0.87245 0.0
C152 C 0.11159 0.76056 0.89465 0.0
C153 C 0.1268 0.77321 0.92865 0.0
N154 N 0.13004 0.73233 0.91584 0.0
C155 C 0.11906 0.73744 0.89771 0.0
C156 C 0.13403 0.74989 0.93116 0.0
C157 C 0.11549 0.77853 0.91026 0.0
C158 C 0.18325 0.6341 0.91401 0.0
N159 N 0.17073 0.63583 0.89675 0.0
C160 C 0.20246 0.63076 0.90992 0.0
C161 C 0.20882 0.62916 0.88797 0.0
C162 C 0.19596 0.63086 0.87046 0.0
C163 C 0.17686 0.63422 0.87518 0.0
C164 C 0.14155 0.57326 0.8714 0.0
C165 C 0.12292 0.61713 0.86879 0.0
C166 C 0.14652 0.59253 0.88523 0.0
N167 N 0.13729 0.61417 0.88373 0.0
C168 C 0.11757 0.59826 0.85468 0.0
C169 C 0.12698 0.57619 0.85602 0.0
C170 C 0.10749 0.66545 0.90994 0.0
C171 C 0.13891 0.68983 0.9886 0.0
C172 C 0.11413 0.70515 0.95582 0.0
C173 C 0.10803 0.70387 0.97794 0.0
C174 C 0.12054 0.69615 0.99441 0.0
N175 N 0.1322 0.69898 0.95026 0.0
C176 C 0.14452 0.69134 0.96631 0.0
Co177 Co 0.87041 0.36704 0.39979 0.0
Co178 Co 0.87636 0.30875 0.41994 0.0
O179 O 0.86549 0.34144 0.42168 0.0
C180 C 0.88131 0.39215 0.44212 0.0
O181 O 0.89112 0.37315 0.44829 0.0
C182 C 0.83479 0.30079 0.42588 0.0
O183 O 0.83155 0.31984 0.41343 0.0
O184 O 0.8689 0.30528 0.38784 0.0
O185 O 0.86853 0.34337 0.37479 0.0
H186 H 0.9157 0.2428 0.38602 0.0
H187 H 0.83994 0.37277 0.43308 0.0
O188 O 0.87206 0.39191 0.42392 0.0
H189 H 0.80864 0.3801 0.35991 0.0
H190 H 0.86385 0.45037 0.3667 0.0
H191 H 0.89434 0.37066 0.35947 0.0
H192 H 0.84304 0.37406 0.36242 0.0
H193 H 0.85721 0.41797 0.39383 0.0
O194 O 0.85166 0.29389 0.42957 0.0
H195 H 0.90192 0.28364 0.38844 0.0
H196 H 0.87368 0.26458 0.44839 0.0
H197 H 0.90122 0.40246 0.3318 0.0
H198 H 0.80555 0.37927 0.43143 0.0
H199 H 0.88593 0.44267 0.33534 0.0
H200 H 0.78966 0.38281 0.39463 0.0
O201 O 0.89821 0.36159 0.40203 0.0
H202 H 0.86599 0.33002 0.50049 0.0
H203 H 0.91192 0.29991 0.44538 0.0
H204 H 0.92168 0.30498 0.48457 0.0
H205 H 0.89862 0.32009 0.51246 0.0
H206 H 0.85687 0.32488 0.46107 0.0
H207 H 0.88703 0.22348 0.44652 0.0
H208 H 0.90826 0.21239 0.41521 0.0
O209 O 0.90138 0.32236 0.41084 0.0
C210 C 0.86738 0.32059 0.37198 0.0
C211 C 0.90649 0.24742 0.39977 0.0
C212 C 0.89038 0.23657 0.43371 0.0
N213 N 0.88706 0.27652 0.41856 0.0
C214 C 0.89867 0.27053 0.40124 0.0
C215 C 0.88281 0.25986 0.43463 0.0
C216 C 0.9023 0.23037 0.41614 0.0
C217 C 0.83313 0.37443 0.41701 0.0
N218 N 0.84344 0.37263 0.39782 0.0
C219 C 0.81365 0.37805 0.41618 0.0
C220 C 0.80474 0.37999 0.39553 0.0
C221 C 0.81538 0.37841 0.37604 0.0
C222 C 0.83482 0.37474 0.37753 0.0
C223 C 0.8706 0.43292 0.36497 0.0
C224 C 0.88755 0.38807 0.36104 0.0
C225 C 0.86695 0.41453 0.38034 0.0
N226 N 0.87533 0.39241 0.37819 0.0
C227 C 0.89154 0.40602 0.34536 0.0
C228 C 0.88298 0.42858 0.34737 0.0
C229 C 0.90831 0.34286 0.40555 0.0
C230 C 0.87615 0.32335 0.48851 0.0
C231 C 0.90181 0.30655 0.45738 0.0
C232 C 0.90741 0.30934 0.47957 0.0
C233 C 0.89447 0.31781 0.49521 0.0
N234 N 0.8838 0.31196 0.45095 0.0
C235 C 0.87104 0.32032 0.46618 0.0
Co236 Co 0.86701 0.64288 0.90578 0.0
Co237 Co 0.87169 0.67436 0.95458 0.0
O238 O 0.86 0.66986 0.92523 0.0
C239 C 0.87078 0.68363 0.8733 0.0
O240 O 0.88212 0.6946 0.88735 0.0
C241 C 0.83064 0.67835 0.96571 0.0
O242 O 0.82775 0.6582 0.95466 0.0
O243 O 0.86433 0.64089 0.96347 0.0
O244 O 0.87105 0.62085 0.93195 0.0
H245 H 0.912 0.65023 0.01984 0.0
H246 H 0.83112 0.66883 0.89785 0.0
O247 O 0.86306 0.66367 0.87869 0.0
H248 H 0.81302 0.58412 0.91169 0.0
H249 H 0.86123 0.59042 0.83748 0.0
H250 H 0.89713 0.60569 0.90653 0.0
H251 H 0.84647 0.59621 0.9119 0.0
H252 H 0.85216 0.62363 0.8627 0.0
O253 O 0.8472 0.68724 0.96685 0.0
H254 H 0.89748 0.64522 0.98272 0.0
H255 H 0.86988 0.71297 0.98926 0.0
H256 H 0.90658 0.57215 0.88188 0.0
H257 H 0.79748 0.65747 0.89727 0.0
H258 H 0.88858 0.56434 0.84706 0.0
H259 H 0.78825 0.61485 0.90429 0.0
O260 O 0.89394 0.65279 0.90708 0.0
H261 H 0.86031 0.7561 0.92073 0.0
H262 H 0.90726 0.70319 0.95681 0.0
H263 H 0.91662 0.74402 0.94463 0.0
H264 H 0.89304 0.7708 0.92648 0.0
H265 H 0.8516 0.71504 0.93301 0.0
H266 H 0.88395 0.71861 0.02653 0.0
H267 H 0.90525 0.68714 0.04201 0.0
O268 O 0.89677 0.6622 0.94332 0.0
C269 C 0.8673 0.62136 0.95275 0.0
C270 C 0.90278 0.6641 0.01325 0.0
C271 C 0.88702 0.70246 0.01702 0.0
N272 N 0.88294 0.67885 0.98378 0.0
C273 C 0.89455 0.66139 0.99223 0.0
C274 C 0.87905 0.69913 0.99593 0.0
C275 C 0.89897 0.6848 0.02569 0.0
C276 C 0.82721 0.65021 0.90072 0.0
N277 N 0.84074 0.6332 0.90481 0.0
C278 C 0.80814 0.6439 0.90046 0.0
C279 C 0.80297 0.61999 0.90443 0.0
C280 C 0.81686 0.60274 0.90859 0.0
C281 C 0.83578 0.60972 0.90875 0.0
C282 C 0.86917 0.59361 0.85262 0.0
C283 C 0.88915 0.60232 0.89148 0.0
C284 C 0.86412 0.61243 0.86695 0.0
N285 N 0.87402 0.61649 0.88616 0.0
C286 C 0.8946 0.58334 0.87755 0.0
C287 C 0.88451 0.57898 0.85801 0.0
C288 C 0.90393 0.65745 0.92424 0.0
C289 C 0.8707 0.74462 0.92867 0.0
C290 C 0.89693 0.7147 0.94887 0.0
C291 C 0.9023 0.73783 0.94205 0.0
C292 C 0.88907 0.75285 0.93188 0.0
N293 N 0.87887 0.70679 0.94571 0.0
C294 C 0.86583 0.72139 0.93572 0.0
Co295 Co 0.1495 0.36301 0.40449 0.0
Co296 Co 0.14213 0.3326 0.45383 0.0
O297 O 0.15477 0.33622 0.42493 0.0
C298 C 0.14382 0.32156 0.37318 0.0
O299 O 0.13185 0.31197 0.38736 0.0
C300 C 0.18292 0.32885 0.4664 0.0
O301 O 0.1861 0.34844 0.45461 0.0
O302 O 0.14884 0.36644 0.46248 0.0
O303 O 0.14661 0.38609 0.42987 0.0
H304 H 0.09935 0.35807 0.51633 0.0
H305 H 0.18378 0.3333 0.39805 0.0
O306 O 0.15246 0.34101 0.37811 0.0
H307 H 0.20684 0.41642 0.40954 0.0
H308 H 0.15905 0.41238 0.33479 0.0
H309 H 0.12172 0.40305 0.40365 0.0
H310 H 0.17276 0.40769 0.40949 0.0
H311 H 0.1659 0.37929 0.36115 0.0
O312 O 0.16626 0.32027 0.46762 0.0
H313 H 0.11512 0.36217 0.47985 0.0
H314 H 0.14296 0.29502 0.48955 0.0
H315 H 0.11449 0.43652 0.37784 0.0
H316 H 0.21802 0.34125 0.39778 0.0
H317 H 0.13322 0.44134 0.34312 0.0
H318 H 0.22974 0.38306 0.40361 0.0
O319 O 0.12195 0.35593 0.40548 0.0
H320 H 0.15516 0.25004 0.42265 0.0
H321 H 0.10669 0.30346 0.45495 0.0
H322 H 0.09799 0.26222 0.44332 0.0
H323 H 0.12233 0.23517 0.42708 0.0
H324 H 0.16321 0.29151 0.43433 0.0
H325 H 0.12762 0.29029 0.52621 0.0
H326 H 0.10558 0.32192 0.53978 0.0
O327 O 0.11753 0.34419 0.44095 0.0
C328 C 0.14814 0.38591 0.45107 0.0
C329 C 0.10889 0.34413 0.51058 0.0
C330 C 0.12478 0.30611 0.51614 0.0
N331 N 0.12986 0.32879 0.48253 0.0
C332 C 0.11783 0.34633 0.48992 0.0
C333 C 0.13346 0.30892 0.49539 0.0
C334 C 0.11241 0.32386 0.52373 0.0
C335 C 0.18879 0.35157 0.40042 0.0
N336 N 0.17629 0.37001 0.40372 0.0
C337 C 0.20818 0.35595 0.40032 0.0
C338 C 0.21475 0.3794 0.40363 0.0
C339 C 0.20191 0.39813 0.40697 0.0
C340 C 0.18262 0.39306 0.40699 0.0
C341 C 0.1508 0.41049 0.34989 0.0
C342 C 0.13 0.4051 0.38863 0.0
C343 C 0.15459 0.39176 0.36485 0.0
N344 N 0.14429 0.38933 0.38399 0.0
C345 C 0.12581 0.42406 0.37406 0.0
C346 C 0.13632 0.42674 0.35457 0.0
C347 C 0.11122 0.35062 0.42186 0.0
C348 C 0.14444 0.26163 0.42975 0.0
C349 C 0.11735 0.29185 0.44782 0.0
C350 C 0.11235 0.26848 0.44132 0.0
C351 C 0.12601 0.25331 0.43222 0.0
N352 N 0.13546 0.29986 0.4454 0.0
C353 C 0.14893 0.2851 0.43646 0.0
Co354 Co 0.86597 0.36661 0.10512 0.0
Co355 Co 0.87147 0.33353 0.05713 0.0
O356 O 0.85943 0.33906 0.0861 0.0
C357 C 0.87023 0.32643 0.13802 0.0
O358 O 0.88145 0.31536 0.1239 0.0
C359 C 0.83053 0.33011 0.04527 0.0
O360 O 0.82769 0.35042 0.05607 0.0
O361 O 0.86478 0.36694 0.04718 0.0
O362 O 0.86972 0.38808 0.07859 0.0
H363 H 0.91332 0.3548 0.99244 0.0
H364 H 0.83055 0.33982 0.11348 0.0
O365 O 0.86237 0.34629 0.13256 0.0
H366 H 0.81092 0.42358 0.09762 0.0
H367 H 0.85893 0.42039 0.17236 0.0
H368 H 0.89543 0.40462 0.1039 0.0
H369 H 0.84459 0.41247 0.09783 0.0
H370 H 0.85057 0.38639 0.14769 0.0
O371 O 0.84702 0.32094 0.04452 0.0
H372 H 0.89823 0.36118 0.02905 0.0
H373 H 0.86963 0.29406 0.02326 0.0
H374 H 0.90417 0.43895 0.12798 0.0
H375 H 0.7967 0.3502 0.11364 0.0
H376 H 0.88586 0.44701 0.1625 0.0
H377 H 0.78671 0.39233 0.10561 0.0
O378 O 0.89309 0.35759 0.1042 0.0
H379 H 0.85824 0.25309 0.09262 0.0
H380 H 0.90658 0.30363 0.05634 0.0
H381 H 0.91508 0.26292 0.06972 0.0
H382 H 0.8908 0.23733 0.08798 0.0
H383 H 0.8504 0.29402 0.07916 0.0
H384 H 0.88426 0.28707 0.9865 0.0
H385 H 0.90635 0.31752 0.97091 0.0
O386 O 0.8965 0.34533 0.06876 0.0
C387 C 0.867 0.38683 0.0576 0.0
C388 C 0.90375 0.34137 0.99908 0.0
C389 C 0.88742 0.30337 0.99574 0.0
N390 N 0.88315 0.32796 0.02833 0.0
C391 C 0.8952 0.34486 0.01982 0.0
C392 C 0.87914 0.30747 0.01653 0.0
C393 C 0.89982 0.32046 0.987 0.0
C394 C 0.8263 0.35823 0.11016 0.0
N395 N 0.83952 0.37552 0.10575 0.0
C396 C 0.80712 0.36399 0.1102 0.0
C397 C 0.80152 0.38762 0.10566 0.0
C398 C 0.8151 0.40516 0.10116 0.0
C399 C 0.83414 0.39875 0.10125 0.0
C400 C 0.86699 0.4171 0.15734 0.0
C401 C 0.88731 0.40811 0.11881 0.0
C402 C 0.86235 0.39784 0.14333 0.0
N403 N 0.87241 0.39363 0.12428 0.0
C404 C 0.89237 0.42753 0.13242 0.0
C405 C 0.8821 0.43203 0.1518 0.0
C406 C 0.90335 0.35172 0.0876 0.0
C407 C 0.86893 0.26405 0.08465 0.0
C408 C 0.89595 0.29265 0.06435 0.0
C409 C 0.90084 0.26959 0.07184 0.0
C410 C 0.88721 0.25523 0.08206 0.0
N411 N 0.87799 0.30116 0.06691 0.0
C412 C 0.86456 0.2872 0.07694 0.0
Co413 Co 0.15068 0.64164 0.60507 0.0
Co414 Co 0.14379 0.67329 0.55621 0.0
O415 O 0.15624 0.66878 0.58515 0.0
C416 C 0.14485 0.68243 0.63711 0.0
O417 O 0.13294 0.69238 0.62305 0.0
C418 C 0.18467 0.67638 0.54408 0.0
O419 O 0.18761 0.65668 0.55581 0.0
O420 O 0.15001 0.63945 0.547 0.0
O421 O 0.14798 0.61911 0.57926 0.0
H422 H 0.10084 0.65015 0.49306 0.0
H423 H 0.18496 0.67108 0.61243 0.0
O424 O 0.15349 0.66307 0.63187 0.0
H425 H 0.20799 0.58807 0.60008 0.0
H426 H 0.15947 0.59081 0.67404 0.0
H427 H 0.12284 0.6017 0.6048 0.0
H428 H 0.17392 0.59694 0.59978 0.0
H429 H 0.16662 0.62441 0.64838 0.0
O430 O 0.16811 0.68524 0.54275 0.0
H431 H 0.11643 0.64493 0.52955 0.0
H432 H 0.14527 0.71156 0.52115 0.0
H433 H 0.11532 0.56772 0.62989 0.0
H434 H 0.21918 0.66299 0.61309 0.0
H435 H 0.1337 0.56211 0.6648 0.0
H436 H 0.23089 0.62124 0.60681 0.0
O437 O 0.12313 0.64888 0.60384 0.0
H438 H 0.15797 0.75481 0.58896 0.0
H439 H 0.10882 0.7034 0.55535 0.0
H440 H 0.10071 0.74461 0.56768 0.0
H441 H 0.1254 0.77065 0.58458 0.0
H442 H 0.16542 0.71339 0.57658 0.0
H443 H 0.13011 0.71741 0.4845 0.0
H444 H 0.10766 0.68661 0.47027 0.0
O445 O 0.11903 0.6621 0.56876 0.0
C446 C 0.14935 0.61975 0.55807 0.0
C447 C 0.11056 0.66373 0.4991 0.0
C448 C 0.12701 0.70146 0.49429 0.0
N449 N 0.13166 0.67798 0.52752 0.0
C450 C 0.1194 0.6609 0.51977 0.0
C451 C 0.13559 0.69802 0.51502 0.0
C452 C 0.11441 0.68418 0.48632 0.0
C453 C 0.18995 0.65283 0.60987 0.0
N454 N 0.17746 0.6345 0.60612 0.0
C455 C 0.20934 0.64838 0.61018 0.0
C456 C 0.2159 0.62496 0.60663 0.0
C457 C 0.20307 0.60634 0.60283 0.0
C458 C 0.18378 0.61148 0.60261 0.0
C459 C 0.15138 0.59304 0.65886 0.0
C460 C 0.13097 0.5993 0.6199 0.0
C461 C 0.15533 0.61207 0.64429 0.0
N462 N 0.14523 0.61493 0.62504 0.0
C463 C 0.12662 0.58006 0.63407 0.0
C464 C 0.13692 0.57694 0.65366 0.0
C465 C 0.11256 0.65504 0.58756 0.0
C466 C 0.1471 0.74366 0.58157 0.0
C467 C 0.11962 0.71457 0.56277 0.0
C468 C 0.11496 0.73792 0.56966 0.0
C469 C 0.12882 0.75252 0.57913 0.0
N470 N 0.1376 0.70602 0.56517 0.0
C471 C 0.15125 0.72022 0.57447 0.0
Co472 Co 0.64355 0.86596 0.10838 0.0
Co473 Co 0.6385 0.80719 0.09147 0.0
O474 O 0.6497 0.83942 0.08812 0.0
C475 C 0.63717 0.89069 0.06476 0.0
O476 O 0.62624 0.87276 0.05855 0.0
C477 C 0.67975 0.79707 0.08621 0.0
O478 O 0.6832 0.81402 0.10098 0.0
O479 O 0.64704 0.80533 0.12328 0.0
O480 O 0.64137 0.84333 0.1342 0.0
H481 H 0.60056 0.74294 0.13005 0.0
H482 H 0.67777 0.86939 0.08034 0.0
O483 O 0.64567 0.88991 0.08346 0.0
H484 H 0.70061 0.87433 0.15792 0.0
H485 H 0.65022 0.94985 0.13999 0.0
H486 H 0.61523 0.873 0.14415 0.0
H487 H 0.66663 0.87051 0.14994 0.0
H488 H 0.65833 0.91595 0.11509 0.0
O489 O 0.66277 0.79195 0.08105 0.0
H490 H 0.61432 0.78355 0.12537 0.0
H491 H 0.63981 0.76192 0.06447 0.0
H492 H 0.60676 0.90635 0.16951 0.0
H493 H 0.71188 0.87346 0.08756 0.0
H494 H 0.62431 0.94513 0.16751 0.0
H495 H 0.72349 0.87587 0.1266 0.0
O496 O 0.61623 0.86179 0.10185 0.0
H497 H 0.64616 0.82476 0.00972 0.0
H498 H 0.60203 0.79761 0.06813 0.0
H499 H 0.59095 0.80105 0.02927 0.0
H500 H 0.61309 0.81466 0.99974 0.0
H501 H 0.65662 0.82128 0.04884 0.0
H502 H 0.62645 0.72102 0.06857 0.0
H503 H 0.6066 0.71134 0.10152 0.0
O504 O 0.61367 0.82138 0.10128 0.0
C505 C 0.64486 0.82123 0.13852 0.0
C506 C 0.60914 0.74695 0.1156 0.0
C507 C 0.6237 0.73464 0.08111 0.0
N508 N 0.62776 0.77514 0.09461 0.0
C509 C 0.61694 0.76993 0.11283 0.0
C510 C 0.63127 0.75781 0.0789 0.0
C511 C 0.61256 0.72923 0.09959 0.0
C512 C 0.68271 0.87066 0.09736 0.0
N513 N 0.67022 0.86976 0.11468 0.0
C514 C 0.70204 0.87286 0.10135 0.0
C515 C 0.70855 0.87418 0.12326 0.0
C516 C 0.69572 0.87328 0.14084 0.0
C517 C 0.6765 0.87103 0.13622 0.0
C518 C 0.64248 0.93304 0.14103 0.0
C519 C 0.62299 0.88978 0.14325 0.0
C520 C 0.64698 0.9138 0.12693 0.0
N521 N 0.63732 0.89247 0.12824 0.0
C522 C 0.6181 0.90862 0.15762 0.0
C523 C 0.62795 0.93037 0.15648 0.0
C524 C 0.60638 0.84251 0.10184 0.0
C525 C 0.63639 0.81875 0.02243 0.0
C526 C 0.61175 0.80362 0.0554 0.0
C527 C 0.6054 0.80548 0.03341 0.0
C528 C 0.61783 0.8131 0.01684 0.0
N529 N 0.63 0.80912 0.06074 0.0
C530 C 0.64225 0.81666 0.0446 0.0
Co531 Co 0.37176 0.14105 0.6065 0.0
Co532 Co 0.37669 0.20003 0.58942 0.0
O533 O 0.36576 0.16763 0.58616 0.0
C534 C 0.37964 0.11665 0.56308 0.0
O535 O 0.39057 0.13479 0.55739 0.0
C536 C 0.33525 0.20972 0.58466 0.0
O537 O 0.332 0.19258 0.5993 0.0
O538 O 0.36853 0.20181 0.62144 0.0
O539 O 0.37301 0.16353 0.6324 0.0
H540 H 0.41475 0.26455 0.62744 0.0
H541 H 0.33835 0.13719 0.57714 0.0
O542 O 0.37058 0.11721 0.58141 0.0
H543 H 0.31351 0.13141 0.65378 0.0
H544 H 0.36521 0.05685 0.63748 0.0
H545 H 0.3992 0.13431 0.64332 0.0
H546 H 0.34764 0.13583 0.64712 0.0
H547 H 0.35738 0.09075 0.61242 0.0
O548 O 0.35217 0.21505 0.57941 0.0
H549 H 0.40119 0.22381 0.62291 0.0
H550 H 0.37468 0.24539 0.56255 0.0
H551 H 0.40737 0.10094 0.66885 0.0
H552 H 0.3041 0.13252 0.58302 0.0
H553 H 0.39032 0.06186 0.66601 0.0
H554 H 0.29148 0.12968 0.62158 0.0
O555 O 0.39923 0.14571 0.60114 0.0
H556 H 0.36809 0.18234 0.50784 0.0
H557 H 0.4127 0.21032 0.5654 0.0
H558 H 0.4233 0.20704 0.52636 0.0
H559 H 0.4009 0.19302 0.49724 0.0
H560 H 0.35813 0.18566 0.54714 0.0
H561 H 0.38781 0.28642 0.56651 0.0
H562 H 0.40807 0.29619 0.5991 0.0
O563 O 0.40172 0.18607 0.59875 0.0
C564 C 0.37003 0.18575 0.63667 0.0
C565 C 0.40598 0.2605 0.61314 0.0
C566 C 0.39084 0.27278 0.57896 0.0
N567 N 0.38724 0.23219 0.59243 0.0
C568 C 0.3983 0.23745 0.61046 0.0
C569 C 0.3834 0.24953 0.57684 0.0
C570 C 0.40221 0.27825 0.59724 0.0
C571 C 0.33296 0.13574 0.59395 0.0
N572 N 0.34498 0.13673 0.61175 0.0
C573 C 0.31356 0.13319 0.59718 0.0
C574 C 0.30649 0.13164 0.61882 0.0
C575 C 0.31883 0.13263 0.6369 0.0
C576 C 0.33815 0.13522 0.63303 0.0
C577 C 0.37273 0.07379 0.6389 0.0
C578 C 0.39166 0.11739 0.64205 0.0
C579 C 0.36839 0.09304 0.62471 0.0
N580 N 0.37776 0.11454 0.62648 0.0
C581 C 0.39637 0.09855 0.65652 0.0
C582 C 0.38681 0.07662 0.6549 0.0
C583 C 0.40904 0.16502 0.60041 0.0
C584 C 0.37797 0.18852 0.52036 0.0
C585 C 0.40289 0.2041 0.55286 0.0
C586 C 0.40896 0.20235 0.53076 0.0
C587 C 0.39638 0.19449 0.51443 0.0
N588 N 0.38479 0.19826 0.55855 0.0
C589 C 0.37239 0.19052 0.54263 0.0
Co590 Co 0.6437 0.14224 0.90254 0.0
Co591 Co 0.63819 0.20078 0.92052 0.0
O592 O 0.64953 0.16854 0.92323 0.0
C593 C 0.63684 0.11729 0.9459 0.0
O594 O 0.62603 0.13536 0.95208 0.0
C595 C 0.67948 0.21103 0.92523 0.0
O596 O 0.68284 0.19422 0.9103 0.0
O597 O 0.64621 0.20332 0.88852 0.0
O598 O 0.64196 0.1652 0.87702 0.0
H599 H 0.59924 0.26533 0.88373 0.0
H600 H 0.6774 0.13848 0.93147 0.0
O601 O 0.64539 0.11799 0.92725 0.0
H602 H 0.70168 0.13463 0.85448 0.0
H603 H 0.65104 0.05878 0.87019 0.0
H604 H 0.61607 0.13567 0.86591 0.0
H605 H 0.66756 0.13826 0.86159 0.0
H606 H 0.65865 0.09235 0.89569 0.0
O607 O 0.66254 0.21603 0.93065 0.0
H608 H 0.61329 0.22476 0.88753 0.0
H609 H 0.63974 0.24562 0.94812 0.0
H610 H 0.60811 0.10265 0.83995 0.0
H611 H 0.71165 0.1346 0.92513 0.0
H612 H 0.62566 0.06386 0.842 0.0
H613 H 0.72398 0.13273 0.8864 0.0
O614 O 0.61622 0.14626 0.90827 0.0
H615 H 0.64729 0.18171 1.00179 0.0
H616 H 0.60213 0.20986 0.94485 0.0
H617 H 0.5917 0.20562 0.98388 0.0
H618 H 0.61438 0.19151 0.01268 0.0
H619 H 0.65707 0.18598 0.96251 0.0
H620 H 0.6261 0.28647 0.94488 0.0
H621 H 0.60563 0.29652 0.91254 0.0
O622 O 0.61333 0.18655 0.91106 0.0
C623 C 0.64472 0.18754 0.87307 0.0
C624 C 0.6081 0.26116 0.89792 0.0
C625 C 0.6232 0.27303 0.93223 0.0
N626 N 0.62724 0.23279 0.91808 0.0
C627 C 0.61607 0.2382 0.90019 0.0
C628 C 0.63093 0.24989 0.93394 0.0
C629 C 0.61171 0.27865 0.91408 0.0
C630 C 0.68266 0.13745 0.91458 0.0
N631 N 0.67049 0.13855 0.89693 0.0
C632 C 0.70207 0.13535 0.91109 0.0
C633 C 0.70898 0.13434 0.88935 0.0
C634 C 0.69647 0.13544 0.87143 0.0
C635 C 0.67717 0.13758 0.87556 0.0
C636 C 0.64331 0.07561 0.86912 0.0
C637 C 0.62382 0.11889 0.86684 0.0
C638 C 0.64752 0.09466 0.88355 0.0
N639 N 0.63788 0.116 0.88222 0.0
C640 C 0.61923 0.10024 0.85213 0.0
C641 C 0.62907 0.07847 0.8533 0.0
C642 C 0.60622 0.16541 0.9092 0.0
C643 C 0.63729 0.18793 0.9894 0.0
C644 C 0.61206 0.20361 0.95725 0.0
C645 C 0.60609 0.20131 0.97935 0.0
C646 C 0.61882 0.1934 0.9955 0.0
N647 N 0.63021 0.19825 0.95141 0.0
C648 C 0.64277 0.19047 0.96715 0.0
Co649 Co 0.37093 0.86453 0.40113 0.0
Co650 Co 0.3781 0.8071 0.42251 0.0
O651 O 0.36654 0.83934 0.42351 0.0
C652 C 0.38122 0.89076 0.44296 0.0
O653 O 0.39151 0.87221 0.4492 0.0
C654 C 0.33685 0.79658 0.42702 0.0
O655 O 0.33355 0.81278 0.41148 0.0
O656 O 0.37052 0.80244 0.39056 0.0
O657 O 0.36968 0.84018 0.37663 0.0
H658 H 0.41842 0.74128 0.39002 0.0
H659 H 0.3401 0.869 0.43414 0.0
O660 O 0.3719 0.88996 0.42483 0.0
H661 H 0.30908 0.87406 0.36064 0.0
H662 H 0.36259 0.94686 0.36654 0.0
H663 H 0.39478 0.86811 0.36074 0.0
H664 H 0.34364 0.86995 0.36348 0.0
H665 H 0.35666 0.91482 0.39427 0.0
O666 O 0.35375 0.79205 0.43294 0.0
H667 H 0.40391 0.78176 0.39146 0.0
H668 H 0.37649 0.76386 0.45222 0.0
H669 H 0.40097 0.89956 0.33249 0.0
H670 H 0.30552 0.87343 0.43214 0.0
H671 H 0.38482 0.93927 0.33531 0.0
H672 H 0.28978 0.87585 0.39517 0.0
O673 O 0.39886 0.8602 0.40356 0.0
H674 H 0.36793 0.83051 0.50259 0.0
H675 H 0.41405 0.80033 0.44772 0.0
H676 H 0.42403 0.80702 0.48664 0.0
H677 H 0.40088 0.82218 0.51439 0.0
H678 H 0.35859 0.82377 0.46345 0.0
H679 H 0.39058 0.72312 0.45137 0.0
H680 H 0.41177 0.71164 0.42014 0.0
O681 O 0.40276 0.82117 0.41272 0.0
C682 C 0.36882 0.8173 0.37436 0.0
C683 C 0.40923 0.74608 0.40373 0.0
C684 C 0.39358 0.73588 0.43814 0.0
N685 N 0.38939 0.77518 0.42191 0.0
C686 C 0.40099 0.76898 0.40464 0.0
C687 C 0.38559 0.75894 0.43849 0.0
C688 C 0.40548 0.72945 0.42062 0.0
C689 C 0.33335 0.87013 0.418 0.0
N690 N 0.34384 0.8689 0.39892 0.0
C691 C 0.31377 0.87261 0.41697 0.0
C692 C 0.30494 0.87394 0.39622 0.0
C693 C 0.31576 0.87289 0.37684 0.0
C694 C 0.3353 0.87037 0.37853 0.0
C695 C 0.3697 0.92962 0.36513 0.0
C696 C 0.38762 0.8853 0.362 0.0
C697 C 0.36646 0.91144 0.38083 0.0
N698 N 0.37531 0.88958 0.37907 0.0
C699 C 0.39122 0.90306 0.34599 0.0
C700 C 0.38217 0.92535 0.3476 0.0
C701 C 0.4093 0.84179 0.40716 0.0
C702 C 0.37814 0.82384 0.49067 0.0
C703 C 0.4039 0.807 0.45968 0.0
C704 C 0.40963 0.8107 0.48171 0.0
C705 C 0.39663 0.81919 0.49727 0.0
N706 N 0.38572 0.81155 0.45333 0.0
C707 C 0.37291 0.8199 0.4685 0.0
Co708 Co 0.3651 0.14353 0.90493 0.0
Co709 Co 0.37157 0.17655 0.95298 0.0
O710 O 0.35919 0.17115 0.92414 0.0
C711 C 0.37027 0.18368 0.87211 0.0
O712 O 0.38184 0.19425 0.88617 0.0
C713 C 0.33077 0.17967 0.96539 0.0
O714 O 0.3279 0.15943 0.95447 0.0
O715 O 0.36528 0.14305 0.96301 0.0
O716 O 0.36821 0.1218 0.93135 0.0
H717 H 0.41431 0.15528 0.01692 0.0
H718 H 0.33035 0.17186 0.89677 0.0
O719 O 0.36197 0.16414 0.87759 0.0
H720 H 0.30867 0.0888 0.91188 0.0
H721 H 0.35682 0.0905 0.83737 0.0
H722 H 0.3936 0.10432 0.90604 0.0
H723 H 0.3426 0.09851 0.9118 0.0
H724 H 0.34926 0.12467 0.86221 0.0
O725 O 0.34723 0.18889 0.96604 0.0
H726 H 0.39882 0.14896 0.98053 0.0
H727 H 0.37 0.21588 0.98699 0.0
H728 H 0.40154 0.06982 0.88177 0.0
H729 H 0.29627 0.16289 0.8965 0.0
H730 H 0.38309 0.06273 0.84715 0.0
H731 H 0.28524 0.12111 0.90415 0.0
O732 O 0.39251 0.1514 0.90589 0.0
H733 H 0.35745 0.25708 0.91808 0.0
H734 H 0.40655 0.20665 0.95317 0.0
H735 H 0.41467 0.24747 0.9398 0.0
H736 H 0.39001 0.27302 0.92215 0.0
H737 H 0.34999 0.21604 0.93152 0.0
H738 H 0.38505 0.22283 0.02353 0.0
H739 H 0.40744 0.19244 0.03868 0.0
O740 O 0.3964 0.16496 0.94088 0.0
C741 C 0.36644 0.12305 0.95249 0.0
C742 C 0.40461 0.16869 0.01047 0.0
C743 C 0.38817 0.20658 0.01419 0.0
N744 N 0.38361 0.1821 0.98159 0.0
C745 C 0.39583 0.16523 0.98985 0.0
C746 C 0.37965 0.20252 0.99352 0.0
C747 C 0.40074 0.18953 0.02268 0.0
C748 C 0.32565 0.1536 0.89993 0.0
N749 N 0.33844 0.13572 0.9042 0.0
C750 C 0.30634 0.14865 0.89983 0.0
C751 C 0.30016 0.12521 0.90416 0.0
C752 C 0.3133 0.10707 0.90851 0.0
C753 C 0.3325 0.11269 0.90849 0.0
C754 C 0.36494 0.09337 0.85243 0.0
C755 C 0.38543 0.10128 0.89107 0.0
C756 C 0.36075 0.11272 0.86654 0.0
N757 N 0.37089 0.11638 0.88564 0.0
C758 C 0.39003 0.08174 0.87736 0.0
C759 C 0.37968 0.07779 0.85793 0.0
C760 C 0.40298 0.15774 0.92219 0.0
C761 C 0.36831 0.24615 0.92579 0.0
C762 C 0.39576 0.21761 0.94542 0.0
C763 C 0.40043 0.24074 0.93794 0.0
C764 C 0.38659 0.25507 0.92805 0.0
N765 N 0.37779 0.209 0.94318 0.0
C766 C 0.36415 0.22293 0.93349 0.0
Co767 Co 0.65073 0.86351 0.40532 0.0
Co768 Co 0.64295 0.83162 0.45387 0.0
O769 O 0.6557 0.83608 0.42514 0.0
C770 C 0.64443 0.82305 0.37309 0.0
O771 O 0.63227 0.81346 0.38704 0.0
C772 C 0.68366 0.82784 0.46664 0.0
O773 O 0.6868 0.84766 0.45516 0.0
O774 O 0.64948 0.86523 0.46339 0.0
O775 O 0.64819 0.88594 0.43126 0.0
H776 H 0.59973 0.85514 0.51659 0.0
H777 H 0.68458 0.8332 0.39814 0.0
O778 O 0.65337 0.84216 0.37843 0.0
H779 H 0.70883 0.91545 0.41141 0.0
H780 H 0.66086 0.91452 0.33676 0.0
H781 H 0.62356 0.90425 0.40552 0.0
H782 H 0.67462 0.90751 0.41125 0.0
H783 H 0.66724 0.88054 0.36229 0.0
O784 O 0.66704 0.81909 0.46759 0.0
H785 H 0.61569 0.86033 0.48035 0.0
H786 H 0.6437 0.79308 0.4887 0.0
H787 H 0.61681 0.93861 0.38055 0.0
H788 H 0.71892 0.84037 0.39795 0.0
H789 H 0.63553 0.94391 0.34588 0.0
H790 H 0.73124 0.88173 0.40469 0.0
O791 O 0.62305 0.85704 0.40619 0.0
H792 H 0.65644 0.75001 0.42087 0.0
H793 H 0.60759 0.8023 0.45397 0.0
H794 H 0.59909 0.76137 0.44127 0.0
H795 H 0.62362 0.73489 0.42462 0.0
H796 H 0.66429 0.79118 0.43362 0.0
H797 H 0.62816 0.78725 0.52511 0.0
H798 H 0.60593 0.81839 0.53923 0.0
O799 O 0.61843 0.84344 0.44106 0.0
C800 C 0.64928 0.88505 0.45248 0.0
C801 C 0.60934 0.84142 0.51059 0.0
C802 C 0.62532 0.80333 0.51538 0.0
N803 N 0.63052 0.82696 0.48236 0.0
C804 C 0.61839 0.84423 0.49006 0.0
C805 C 0.63412 0.80676 0.49478 0.0
C806 C 0.61284 0.8208 0.52329 0.0
C807 C 0.68984 0.85128 0.4009 0.0
N808 N 0.67761 0.86992 0.40464 0.0
C809 C 0.7093 0.85522 0.40085 0.0
C810 C 0.7162 0.87842 0.40467 0.0
C811 C 0.70363 0.89735 0.40846 0.0
C812 C 0.68427 0.89273 0.40841 0.0
C813 C 0.65263 0.91243 0.35183 0.0
C814 C 0.63184 0.90651 0.39053 0.0
C815 C 0.65615 0.89318 0.36633 0.0
N816 N 0.64586 0.89049 0.38546 0.0
C817 C 0.62792 0.92597 0.37642 0.0
C818 C 0.63842 0.92892 0.35696 0.0
C819 C 0.61224 0.85093 0.42225 0.0
C820 C 0.64563 0.76136 0.42815 0.0
C821 C 0.61833 0.79094 0.44667 0.0
C822 C 0.61344 0.76774 0.43956 0.0
C823 C 0.62721 0.75289 0.43023 0.0
N824 N 0.63644 0.79909 0.44461 0.0
C825 C 0.65001 0.78465 0.43546 0.0
Co826 Co 0.36624 0.86843 0.11002 0.0
Co827 Co 0.36999 0.83872 0.05971 0.0
O828 O 0.35894 0.8422 0.08967 0.0
C829 C 0.37166 0.82659 0.14118 0.0
O830 O 0.3831 0.81649 0.12671 0.0
C831 C 0.32842 0.82592 0.0544 0.0
O832 O 0.32496 0.83201 0.07512 0.0
O833 O 0.36321 0.87276 0.05232 0.0
O834 O 0.3692 0.89166 0.0846 0.0
H835 H 0.41005 0.86525 0.99508 0.0
H836 H 0.33098 0.84191 0.12022 0.0
O837 O 0.36338 0.84638 0.13644 0.0
H838 H 0.31155 0.92655 0.10864 0.0
H839 H 0.36202 0.91769 0.18048 0.0
H840 H 0.39592 0.90615 0.10948 0.0
H841 H 0.34498 0.91484 0.10569 0.0
H842 H 0.35252 0.88547 0.1544 0.0
O843 O 0.34507 0.82774 0.04645 0.0
H844 H 0.39608 0.86852 0.03264 0.0
H845 H 0.36702 0.80222 0.02316 0.0
H846 H 0.40578 0.93872 0.13499 0.0
H847 H 0.2974 0.85291 0.12367 0.0
H848 H 0.38878 0.94466 0.1708 0.0
H849 H 0.28748 0.89548 0.11776 0.0
O850 O 0.39321 0.85911 0.10735 0.0
H851 H 0.35857 0.75571 0.09139 0.0
H852 H 0.40473 0.80895 0.05449 0.0
H853 H 0.41388 0.76736 0.06441 0.0
H854 H 0.39069 0.74037 0.08292 0.0
H855 H 0.35009 0.79745 0.08143 0.0
H856 H 0.38054 0.79834 0.98543 0.0
H857 H 0.40229 0.82995 0.9712 0.0
O858 O 0.39542 0.84929 0.07114 0.0
C859 C 0.36581 0.89195 0.0637 0.0
C860 C 0.40063 0.85132 1.00112 0.0
C861 C 0.38405 0.81378 0.99569 0.0
N862 N 0.38086 0.8355 0.03015 0.0
C863 C 0.39272 0.85304 0.02239 0.0
C864 C 0.3764 0.81611 0.01705 0.0
C865 C 0.39626 0.83152 0.98772 0.0
C866 C 0.32679 0.8605 0.11776 0.0
N867 N 0.33992 0.87765 0.1126 0.0
C868 C 0.30774 0.86661 0.11967 0.0
C869 C 0.30219 0.89049 0.11632 0.0
C870 C 0.31568 0.90792 0.11117 0.0
C871 C 0.33459 0.90114 0.10938 0.0
C872 C 0.36951 0.91532 0.16491 0.0
C873 C 0.38838 0.9087 0.12497 0.0
C874 C 0.36422 0.89707 0.15009 0.0
N875 N 0.37357 0.89403 0.13035 0.0
C876 C 0.39406 0.92714 0.13937 0.0
C877 C 0.38453 0.93044 0.15947 0.0
C878 C 0.40288 0.85416 0.09003 0.0
C879 C 0.36875 0.76723 0.08317 0.0
C880 C 0.39452 0.79733 0.06249 0.0
C881 C 0.39979 0.77378 0.06807 0.0
C882 C 0.38678 0.75865 0.07846 0.0
N883 N 0.37673 0.80558 0.06696 0.0
C884 C 0.36397 0.79089 0.07733 0.0
Co885 Co 0.64977 0.14072 0.60835 0.0
Co886 Co 0.64518 0.17133 0.55829 0.0
O887 O 0.65656 0.16723 0.58805 0.0
C888 C 0.64374 0.18266 0.63916 0.0
O889 O 0.63248 0.19264 0.62438 0.0
C890 C 0.68691 0.18245 0.55227 0.0
O891 O 0.69055 0.17522 0.57264 0.0
O892 O 0.65108 0.13709 0.55037 0.0
O893 O 0.64752 0.11758 0.58289 0.0
H894 H 0.60347 0.14699 0.49437 0.0
H895 H 0.68429 0.1687 0.61895 0.0
O896 O 0.652 0.16278 0.63479 0.0
H897 H 0.70597 0.08499 0.60732 0.0
H898 H 0.655 0.09145 0.67877 0.0
H899 H 0.62117 0.10168 0.60749 0.0
H900 H 0.67228 0.09529 0.60404 0.0
H901 H 0.66374 0.12416 0.65283 0.0
O902 O 0.6701 0.18169 0.54464 0.0
H903 H 0.61797 0.1428 0.53159 0.0
H904 H 0.64837 0.2081 0.52196 0.0
H905 H 0.61207 0.06861 0.63288 0.0
H906 H 0.7181 0.1591 0.6228 0.0
H907 H 0.62904 0.06333 0.66882 0.0
H908 H 0.72915 0.117 0.61684 0.0
O909 O 0.62251 0.14879 0.60562 0.0
H910 H 0.659 0.25347 0.59045 0.0
H911 H 0.61106 0.20248 0.554 0.0
H912 H 0.60303 0.24426 0.56451 0.0
H913 H 0.62712 0.27013 0.5828 0.0
H914 H 0.66634 0.21155 0.57991 0.0
H915 H 0.63432 0.21287 0.48457 0.0
H916 H 0.61163 0.18223 0.47059 0.0
O917 O 0.61979 0.16151 0.57021 0.0
C918 C 0.64967 0.11769 0.56177 0.0
C919 C 0.61329 0.1605 0.50031 0.0
C920 C 0.63063 0.19745 0.49479 0.0
N921 N 0.6339 0.17526 0.529 0.0
C922 C 0.62152 0.15826 0.52138 0.0
C923 C 0.63858 0.19462 0.51596 0.0
C924 C 0.61789 0.18026 0.48696 0.0
C925 C 0.68897 0.1503 0.6165 0.0
N926 N 0.67632 0.13263 0.6111 0.0
C927 C 0.70814 0.14499 0.61863 0.0
C928 C 0.71434 0.12138 0.61525 0.0
C929 C 0.70134 0.10342 0.60986 0.0
C930 C 0.68228 0.1094 0.60787 0.0
C931 C 0.64752 0.09354 0.66315 0.0
C932 C 0.62869 0.09942 0.62304 0.0
C933 C 0.65238 0.11206 0.6484 0.0
N934 N 0.64305 0.11474 0.62858 0.0
C935 C 0.62344 0.0807 0.63738 0.0
C936 C 0.63296 0.07776 0.65755 0.0
C937 C 0.6126 0.155 0.58881 0.0
C938 C 0.64842 0.24244 0.58235 0.0
C939 C 0.62164 0.21359 0.56193 0.0
C940 C 0.61701 0.23726 0.56784 0.0
C941 C 0.63052 0.25176 0.57809 0.0
N942 N 0.63929 0.20461 0.56597 0.0
C943 C 0.65255 0.21868 0.57619 0.0
H944 H 0.08505 0.38347 0.10651 0.0
H945 H 0.05064 0.38699 0.10629 0.0
H946 H 0.04577 0.30973 0.09916 0.0
H947 H 0.08 0.30593 0.09984 0.0
H948 H 0.02561 0.37462 0.07373 0.0
H949 H 0.00999 0.32253 0.15037 0.0
H950 H 0.03344 0.33281 0.14357 0.0
H951 H 0.02412 0.30585 0.13091 0.0
C952 C 0.07668 0.36718 0.10509 0.0
C953 C 0.08541 0.3444 0.10323 0.0
C954 C 0.05698 0.36924 0.10493 0.0
C955 C 0.04556 0.3486 0.10305 0.0
C956 C 0.05422 0.32588 0.10116 0.0
H957 H 0.9302 0.3389 0.05684 0.0
H958 H 0.96439 0.33939 0.06118 0.0
C959 C 0.07388 0.32378 0.10138 0.0
C960 C 0.02464 0.35083 0.10214 0.0
H961 H 0.98393 0.33026 0.12604 0.0
C962 C 0.0165 0.36508 0.08529 0.0
C963 C 0.0127 0.33868 0.1174 0.0
C964 C 0.0205 0.32431 0.13672 0.0
C965 C 0.99683 0.3669 0.08286 0.0
C966 C 0.98491 0.35374 0.09741 0.0
C967 C 0.99303 0.34011 0.1147 0.0
C968 C 0.96401 0.35359 0.09481 0.0
C969 C 0.98901 0.38311 0.06484 0.0
C970 C 0.95228 0.36077 0.11248 0.0
C971 C 0.93262 0.36026 0.11017 0.0
C972 C 0.92424 0.35244 0.09012 0.0
C973 C 0.93607 0.34513 0.0725 0.0
C974 C 0.95569 0.34557 0.07488 0.0
H975 H 0.99936 0.39718 0.05984 0.0
H976 H 0.98574 0.37209 0.04987 0.0
H977 H 0.97584 0.39216 0.07038 0.0
H978 H 0.95835 0.3669 0.12807 0.0
H979 H 0.92401 0.36602 0.12411 0.0
H980 H 0.93553 0.70074 0.59975 0.0
H981 H 0.96981 0.69709 0.59889 0.0
H982 H 0.96516 0.61987 0.60659 0.0
H983 H 0.93076 0.62323 0.60695 0.0
H984 H 0.99519 0.67958 0.62918 0.0
H985 H 0.99799 0.62538 0.55137 0.0
H986 H 0.97679 0.64037 0.56061 0.0
H987 H 0.98386 0.6122 0.57303 0.0
C988 C 0.94172 0.68292 0.60122 0.0
C989 C 0.93025 0.66224 0.60314 0.0
C990 C 0.96139 0.68089 0.60079 0.0
C991 C 0.97012 0.65817 0.60226 0.0
C992 C 0.95878 0.63755 0.60488 0.0
H993 H 0.09218 0.64032 0.62427 0.0
H994 H 0.05785 0.64002 0.62877 0.0
C995 C 0.93907 0.63954 0.60522 0.0
C996 C 0.99106 0.6562 0.60091 0.0
H997 H 0.02688 0.6316 0.57024 0.0
C998 C 1.00213 0.66903 0.61633 0.0
C999 C 1.00014 0.6427 0.58396 0.0
C1000 C 0.98913 0.62955 0.56616 0.0
C1001 C 0.02196 0.66876 0.61526 0.0
C1002 C 0.03104 0.6549 0.59856 0.0
C1003 C 0.01996 0.64203 0.58317 0.0
C1004 C 0.05195 0.65451 0.59595 0.0
C1005 C 0.03297 0.68397 0.63159 0.0
C1006 C 0.06012 0.66205 0.57579 0.0
C1007 C 0.0797 0.66202 0.57307 0.0
C1008 C 0.09169 0.65442 0.59047 0.0
C1009 C 0.08346 0.6465 0.61057 0.0
C1010 C 0.0638 0.64645 0.61323 0.0
H1011 H 0.02401 0.69803 0.6395 0.0
H1012 H 0.0386 0.67219 0.64502 0.0
H1013 H 0.04506 0.69297 0.62326 0.0
H1014 H 0.05131 0.66824 0.56216 0.0
H1015 H 0.08541 0.66811 0.55729 0.0
H1016 H 0.92519 0.65842 0.88598 0.0
H1017 H 0.95957 0.65921 0.88284 0.0
H1018 H 0.96442 0.65602 0.95452 0.0
H1019 H 0.93012 0.65619 0.95782 0.0
H1020 H 0.9878 0.68816 0.93901 0.0
H1021 H 0.99649 0.60528 0.88847 0.0
H1022 H 0.9815 0.62698 0.87508 0.0
H1023 H 0.97429 0.61344 0.90105 0.0
C1024 C 0.93357 0.65773 0.90109 0.0
C1025 C 0.92484 0.65713 0.92216 0.0
C1026 C 0.95328 0.658 0.89925 0.0
C1027 C 0.96471 0.65716 0.91841 0.0
C1028 C 0.95599 0.65658 0.93945 0.0
H1029 H 0.08537 0.62605 0.91924 0.0
H1030 H 0.05096 0.62433 0.92144 0.0
C1031 C 0.93632 0.65665 0.94132 0.0
C1032 C 0.98572 0.65779 0.9167 0.0
H1033 H 0.02363 0.63038 0.89214 0.0
C1034 C 0.99562 0.67543 0.92883 0.0
C1035 C 0.99605 0.64098 0.90371 0.0
C1036 C 0.98655 0.62045 0.89153 0.0
C1037 C 0.0154 0.6769 0.9282 0.0
C1038 C 0.02567 0.6608 0.9144 0.0
C1039 C 0.01581 0.64296 0.90248 0.0
C1040 C 0.04665 0.66183 0.91248 0.0
C1041 C 0.02507 0.6953 0.94284 0.0
C1042 C 0.05579 0.68333 0.90628 0.0
C1043 C 0.0755 0.68446 0.90531 0.0
C1044 C 0.08654 0.66395 0.91004 0.0
C1045 C 0.07734 0.6422 0.91548 0.0
C1046 C 0.05763 0.64119 0.91674 0.0
H1047 H 0.01603 0.70066 0.95715 0.0
H1048 H 0.03863 0.68827 0.94947 0.0
H1049 H 0.02801 0.71181 0.93292 0.0
H1050 H 0.04769 0.69932 0.9022 0.0
H1051 H 0.08206 0.70145 0.90081 0.0
H1052 H 0.0914 0.36305 0.38403 0.0
H1053 H 0.05713 0.36443 0.37911 0.0
H1054 H 0.0495 0.34173 0.4473 0.0
H1055 H 0.08359 0.34063 0.45253 0.0
H1056 H 0.03085 0.328 0.38313 0.0
H1057 H 0.01542 0.40073 0.44385 0.0
H1058 H 0.03897 0.3945 0.43399 0.0
H1059 H 0.02875 0.37635 0.45576 0.0
C1060 C 0.08246 0.35848 0.39805 0.0
C1061 C 0.09038 0.3518 0.41871 0.0
C1062 C 0.06284 0.35926 0.39518 0.0
C1063 C 0.05068 0.35357 0.41293 0.0
C1064 C 0.05853 0.34675 0.4335 0.0
H1065 H 0.93463 0.30706 0.41127 0.0
H1066 H 0.96886 0.31076 0.41137 0.0
C1067 C 0.07811 0.34596 0.4364 0.0
C1068 C 0.02982 0.35398 0.40982 0.0
H1069 H 0.98907 0.37755 0.43119 0.0
C1070 C 0.02173 0.33899 0.39351 0.0
C1071 C 0.01787 0.36858 0.42312 0.0
C1072 C 0.02568 0.38614 0.44001 0.0
C1073 C 1.00206 0.33758 0.39068 0.0
C1074 C 0.99008 0.35124 0.40477 0.0
C1075 C 0.9982 0.36687 0.42054 0.0
C1076 C 0.96913 0.34902 0.40392 0.0
C1077 C 0.9943 0.32153 0.37253 0.0
C1078 C 0.95773 0.36939 0.40013 0.0
C1079 C 0.93801 0.36739 0.40021 0.0
C1080 C 0.92924 0.34498 0.40428 0.0
C1081 C 0.94077 0.32462 0.40799 0.0
C1082 C 0.96043 0.32665 0.4079 0.0
H1083 H 1.00489 0.31829 0.35922 0.0
H1084 H 0.99045 0.30376 0.37981 0.0
H1085 H 0.98147 0.32952 0.36487 0.0
H1086 H 0.9641 0.38688 0.39715 0.0
H1087 H 0.92965 0.38349 0.39736 0.0
H1088 H 0.42877 0.8544 0.0561 0.0
H1089 H 0.46309 0.85327 0.05903 0.0
H1090 H 0.45887 0.85131 0.13078 0.0
H1091 H 0.42449 0.85337 0.12802 0.0
H1092 H 0.48619 0.88083 0.11878 0.0
H1093 H 0.49494 0.79552 0.07185 0.0
H1094 H 0.48302 0.8181 0.05568 0.0
H1095 H 0.47215 0.8064 0.0806 0.0
C1096 C 0.43511 0.85371 0.07253 0.0
C1097 C 0.4238 0.85383 0.09183 0.0
C1098 C 0.45479 0.85288 0.07417 0.0
C1099 C 0.46365 0.8516 0.09512 0.0
C1100 C 0.45241 0.85213 0.11442 0.0
H1101 H 0.58071 0.80715 0.11174 0.0
H1102 H 0.54636 0.81006 0.11142 0.0
C1103 C 0.43272 0.8533 0.11281 0.0
C1104 C 0.48461 0.85002 0.09692 0.0
H1105 H 0.52293 0.81809 0.07885 0.0
C1106 C 0.49421 0.86702 0.11014 0.0
C1107 C 0.49514 0.83176 0.086 0.0
C1108 C 0.48577 0.81177 0.07294 0.0
C1109 C 0.51395 0.8665 0.11245 0.0
C1110 C 0.52455 0.84895 0.10065 0.0
C1111 C 0.51492 0.83174 0.08771 0.0
C1112 C 0.54557 0.84773 0.10172 0.0
C1113 C 0.52315 0.88443 0.12798 0.0
C1114 C 0.55673 0.8679 0.09633 0.0
C1115 C 0.57645 0.8664 0.09685 0.0
C1116 C 0.58548 0.84452 0.10229 0.0
C1117 C 0.57427 0.8243 0.10748 0.0
C1118 C 0.55458 0.82592 0.10727 0.0
H1119 H 0.51309 0.89107 0.14079 0.0
H1120 H 0.53551 0.87639 0.13661 0.0
H1121 H 0.52801 0.90028 0.11821 0.0
H1122 H 0.55021 0.88475 0.09133 0.0
H1123 H 0.58462 0.88224 0.09247 0.0
H1124 H 0.58641 0.16889 0.55759 0.0
H1125 H 0.55215 0.16965 0.56127 0.0
H1126 H 0.55672 0.14097 0.62794 0.0
H1127 H 0.59111 0.14064 0.62465 0.0
H1128 H 0.52704 0.13343 0.56841 0.0
H1129 H 0.52334 0.19946 0.63787 0.0
H1130 H 0.5447 0.1941 0.6223 0.0
H1131 H 0.53759 0.17344 0.64387 0.0
C1132 C 0.58021 0.16285 0.57313 0.0
C1133 C 0.59165 0.15493 0.59091 0.0
C1134 C 0.56055 0.16324 0.57517 0.0
C1135 C 0.5518 0.15576 0.59501 0.0
C1136 C 0.56312 0.14739 0.61265 0.0
H1137 H 0.43073 0.12399 0.60431 0.0
H1138 H 0.46515 0.12097 0.60383 0.0
C1139 C 0.58282 0.14708 0.61068 0.0
C1140 C 0.53085 0.15646 0.59699 0.0
H1141 H 0.49464 0.18078 0.62724 0.0
C1142 C 0.51996 0.14377 0.58129 0.0
C1143 C 0.52156 0.17019 0.61363 0.0
C1144 C 0.53236 0.18527 0.63026 0.0
C1145 C 0.50013 0.14437 0.58179 0.0
C1146 C 0.49085 0.15764 0.59874 0.0
C1147 C 0.50173 0.1704 0.6144 0.0
C1148 C 0.46989 0.15937 0.59995 0.0
C1149 C 0.48933 0.13135 0.56374 0.0
C1150 C 0.46102 0.18202 0.59874 0.0
C1151 C 0.44134 0.18386 0.59925 0.0
C1152 C 0.43 0.16305 0.60099 0.0
C1153 C 0.43895 0.1404 0.60274 0.0
C1154 C 0.45866 0.13861 0.60232 0.0
H1155 H 0.49832 0.12747 0.54899 0.0
H1156 H 0.48414 0.11385 0.57036 0.0
H1157 H 0.47696 0.1421 0.55819 0.0
H1158 H 0.46935 0.19833 0.59705 0.0
H1159 H 0.43505 0.20165 0.59802 0.0
H1160 H 0.57996 0.20171 0.91176 0.0
H1161 H 0.54569 0.19805 0.91234 0.0
H1162 H 0.55044 0.12081 0.9049 0.0
H1163 H 0.58485 0.12417 0.90479 0.0
H1164 H 0.52074 0.18038 0.88157 0.0
H1165 H 0.517 0.12671 0.95971 0.0
H1166 H 0.53829 0.14166 0.95076 0.0
H1167 H 0.53137 0.11348 0.9383 0.0
C1168 C 0.5738 0.18388 0.9103 0.0
C1169 C 0.58529 0.1632 0.90848 0.0
C1170 C 0.55414 0.18184 0.91057 0.0
C1171 C 0.54544 0.15913 0.90904 0.0
C1172 C 0.55681 0.13849 0.90662 0.0
H1173 H 0.4235 0.1422 0.88592 0.0
H1174 H 0.45785 0.14137 0.88179 0.0
C1175 C 0.57651 0.14048 0.90643 0.0
C1176 C 0.5245 0.15723 0.91009 0.0
H1177 H 0.48829 0.13334 0.94059 0.0
C1178 C 0.51364 0.17002 0.89442 0.0
C1179 C 0.51522 0.14397 0.92704 0.0
C1180 C 0.52602 0.13084 0.94505 0.0
C1181 C 0.49381 0.16999 0.89527 0.0
C1182 C 0.48453 0.15642 0.91202 0.0
C1183 C 0.49539 0.14356 0.92763 0.0
C1184 C 0.46361 0.15637 0.91443 0.0
C1185 C 0.48302 0.18515 0.87868 0.0
C1186 C 0.45536 0.16442 0.93436 0.0
C1187 C 0.43576 0.16471 0.93687 0.0
C1188 C 0.42386 0.15694 0.91948 0.0
C1189 C 0.43217 0.14854 0.8996 0.0
C1190 C 0.45184 0.14817 0.89715 0.0
H1191 H 0.49214 0.19896 0.87065 0.0
H1192 H 0.47733 0.17328 0.86537 0.0
H1193 H 0.47097 0.19446 0.88682 0.0
H1194 H 0.46412 0.17074 0.94798 0.0
H1195 H 0.42998 0.17117 0.95249 0.0
H1196 H 0.43614 0.80662 0.41257 0.0
H1197 H 0.47031 0.81114 0.41271 0.0
H1198 H 0.46445 0.88711 0.39842 0.0
H1199 H 0.43004 0.8829 0.39859 0.0
H1200 H 0.49517 0.82673 0.38019 0.0
H1201 H 0.49762 0.88694 0.45429 0.0
H1202 H 0.4767 0.87041 0.4465 0.0
H1203 H 0.48306 0.89748 0.43176 0.0
C1204 C 0.44201 0.82435 0.40943 0.0
C1205 C 0.43019 0.84445 0.40577 0.0
C1206 C 0.46163 0.82687 0.40946 0.0
C1207 C 0.47 0.84952 0.40592 0.0
C1208 C 0.45833 0.86953 0.40164 0.0
H1209 H 0.5925 0.86534 0.38492 0.0
H1210 H 0.55823 0.86646 0.37982 0.0
C1211 C 0.43863 0.86705 0.4016 0.0
C1212 C 0.49092 0.85197 0.40702 0.0
H1213 H 0.52661 0.87824 0.43674 0.0
C1214 C 0.50205 0.83811 0.39246 0.0
C1215 C 0.49991 0.8666 0.42322 0.0
C1216 C 0.48877 0.88107 0.43999 0.0
C1217 C 0.52187 0.83832 0.39375 0.0
C1218 C 0.53087 0.85308 0.40985 0.0
C1219 C 0.51973 0.86709 0.42429 0.0
C1220 C 0.55174 0.85315 0.41289 0.0
C1221 C 0.53298 0.82207 0.3784 0.0
C1222 C 0.55955 0.84593 0.43336 0.0
C1223 C 0.57911 0.8454 0.43639 0.0
C1224 C 0.59141 0.85217 0.41902 0.0
C1225 C 0.58353 0.85982 0.39863 0.0
C1226 C 0.56391 0.86036 0.39562 0.0
H1227 H 0.52396 0.80793 0.3707 0.0
H1228 H 0.53918 0.83307 0.36478 0.0
H1229 H 0.54469 0.8131 0.38752 0.0
H1230 H 0.55048 0.84037 0.44696 0.0
H1231 H 0.58455 0.83953 0.45238 0.0
H1232 H 0.14288 0.34915 0.17522 0.0
H1233 H 0.14296 0.33826 0.21431 0.0
H1234 H 0.14842 0.26301 0.19702 0.0
H1235 H 0.14842 0.2738 0.1571 0.0
H1236 H 0.11613 0.30547 0.23533 0.0
H1237 H 0.19128 0.27773 0.24474 0.0
H1238 H 0.18366 0.29673 0.22194 0.0
H1239 H 0.17747 0.26535 0.22222 0.0
C1240 C 0.14422 0.33021 0.17946 0.0
C1241 C 0.14568 0.31235 0.16279 0.0
C1242 C 0.14421 0.32404 0.20197 0.0
C1243 C 0.14572 0.29988 0.20862 0.0
C1244 C 0.14738 0.28183 0.19222 0.0
H1245 H 0.12409 0.28434 0.3535 0.0
H1246 H 0.12462 0.27253 0.31403 0.0
C1247 C 0.14736 0.28802 0.16944 0.0
C1248 C 0.14509 0.2943 0.23285 0.0
H1249 H 0.17365 0.28293 0.27756 0.0
C1250 C 0.12856 0.29996 0.2446 0.0
C1251 C 0.16138 0.28735 0.24483 0.0
C1252 C 0.17955 0.28147 0.23294 0.0
C1253 C 0.12815 0.30025 0.26804 0.0
C1254 C 0.14469 0.29429 0.2801 0.0
C1255 C 0.16096 0.28735 0.26832 0.0
C1256 C 0.14606 0.29842 0.3046 0.0
C1257 C 0.11041 0.30861 0.27961 0.0
C1258 C 0.15857 0.31601 0.31265 0.0
C1259 C 0.15841 0.32263 0.33513 0.0
C1260 C 0.14572 0.31181 0.35017 0.0
C1261 C 0.13394 0.29317 0.34236 0.0
C1262 C 0.13415 0.28649 0.31977 0.0
H1263 H 0.10006 0.31656 0.26777 0.0
H1264 H 0.10361 0.29299 0.28796 0.0
H1265 H 0.11375 0.32231 0.29256 0.0
H1266 H 0.16793 0.32543 0.30132 0.0
H1267 H 0.16782 0.33689 0.34052 0.0
H1268 H 0.87133 0.65513 0.674 0.0
H1269 H 0.87081 0.66529 0.71327 0.0
H1270 H 0.86549 0.74084 0.69703 0.0
H1271 H 0.86602 0.73083 0.65695 0.0
H1272 H 0.89774 0.69878 0.73489 0.0
H1273 H 0.82204 0.72397 0.74423 0.0
H1274 H 0.82997 0.70502 0.72157 0.0
H1275 H 0.83564 0.73657 0.72161 0.0
C1276 C 0.86993 0.67399 0.67851 0.0
C1277 C 0.86869 0.69217 0.66209 0.0
C1278 C 0.86967 0.67973 0.70112 0.0
C1279 C 0.8681 0.70377 0.7081 0.0
C1280 C 0.8666 0.72212 0.69196 0.0
H1281 H 0.88909 0.72151 0.85284 0.0
H1282 H 0.88818 0.73232 0.81315 0.0
C1283 C 0.86691 0.71637 0.66908 0.0
C1284 C 0.86855 0.70894 0.73241 0.0
H1285 H 0.83972 0.71896 0.77711 0.0
C1286 C 0.88519 0.70377 0.74416 0.0
C1287 C 0.85209 0.71517 0.74438 0.0
C1288 C 0.83383 0.72048 0.73246 0.0
C1289 C 0.8856 0.70344 0.7676 0.0
C1290 C 0.86894 0.70877 0.77966 0.0
C1291 C 0.8525 0.71504 0.76787 0.0
C1292 C 0.86778 0.70491 0.80421 0.0
C1293 C 0.90354 0.69581 0.77922 0.0
C1294 C 0.85601 0.68666 0.81256 0.0
C1295 C 0.85641 0.68055 0.83518 0.0
C1296 C 0.86859 0.69258 0.85004 0.0
C1297 C 0.87963 0.71177 0.84187 0.0
C1298 C 0.87921 0.71789 0.81915 0.0
H1299 H 0.91409 0.68831 0.7674 0.0
H1300 H 0.90993 0.71171 0.78758 0.0
H1301 H 0.90053 0.682 0.79217 0.0
H1302 H 0.84704 0.67642 0.80139 0.0
H1303 H 0.84759 0.6658 0.84085 0.0
H1304 H 0.14202 0.65478 0.83689 0.0
H1305 H 0.14219 0.66459 0.79752 0.0
H1306 H 0.15157 0.73968 0.81299 0.0
H1307 H 0.15157 0.72998 0.8531 0.0
H1308 H 0.1174 0.69717 0.77543 0.0
H1309 H 0.19302 0.7224 0.76586 0.0
H1310 H 0.18465 0.70533 0.78956 0.0
H1311 H 0.1795 0.73697 0.78745 0.0
C1312 C 0.14425 0.67345 0.83216 0.0
C1313 C 0.14686 0.69158 0.84837 0.0
C1314 C 0.14428 0.67901 0.8095 0.0
C1315 C 0.14695 0.70282 0.80226 0.0
C1316 C 0.14968 0.72111 0.81822 0.0
H1317 H 0.12516 0.7193 0.65743 0.0
H1318 H 0.12579 0.73036 0.69708 0.0
C1319 C 0.14964 0.71554 0.84112 0.0
C1320 C 0.14647 0.70786 0.7779 0.0
H1321 H 0.17501 0.71893 0.73314 0.0
C1322 C 0.12987 0.70242 0.76615 0.0
C1323 C 0.16282 0.71451 0.76589 0.0
C1324 C 0.1811 0.72006 0.77769 0.0
C1325 C 0.12941 0.70218 0.74272 0.0
C1326 C 0.14596 0.70801 0.73063 0.0
C1327 C 0.16232 0.71461 0.7424 0.0
C1328 C 0.14719 0.7042 0.70608 0.0
C1329 C 0.11157 0.6941 0.73117 0.0
C1330 C 0.15963 0.6867 0.69774 0.0
C1331 C 0.15943 0.68051 0.67515 0.0
C1332 C 0.14675 0.69168 0.6603 0.0
C1333 C 0.135 0.7102 0.66842 0.0
C1334 C 0.13527 0.71645 0.69111 0.0
H1335 H 0.10128 0.68605 0.74299 0.0
H1336 H 0.10477 0.7099 0.72309 0.0
H1337 H 0.11478 0.68059 0.71802 0.0
H1338 H 0.169 0.67704 0.7089 0.0
H1339 H 0.16881 0.66633 0.66953 0.0
H1340 H 0.84829 0.34549 0.17104 0.0
H1341 H 0.84728 0.33397 0.21023 0.0
H1342 H 0.88601 0.27555 0.19736 0.0
H1343 H 0.88744 0.28731 0.15792 0.0
H1344 H 0.83712 0.29197 0.23201 0.0
H1345 H 0.91294 0.31301 0.24649 0.0
H1346 H 0.90082 0.32192 0.22134 0.0
H1347 H 0.90794 0.29106 0.22522 0.0
C1348 C 0.85654 0.33007 0.17641 0.0
C1349 C 0.86812 0.3175 0.16129 0.0
C1350 C 0.8559 0.32347 0.19889 0.0
C1351 C 0.86681 0.30415 0.20688 0.0
C1352 C 0.87777 0.29084 0.1917 0.0
H1353 H 0.8817 0.27956 0.35223 0.0
H1354 H 0.88106 0.26943 0.31221 0.0
C1355 C 0.87847 0.29749 0.16911 0.0
C1356 C 0.867 0.29886 0.23125 0.0
H1357 H 0.89484 0.30254 0.27774 0.0
C1358 C 0.84981 0.2939 0.24196 0.0
C1359 C 0.88357 0.30127 0.24429 0.0
C1360 C 0.90237 0.30728 0.23387 0.0
C1361 C 0.8486 0.29237 0.26531 0.0
C1362 C 0.86495 0.29608 0.27837 0.0
C1363 C 0.88234 0.29959 0.26768 0.0
C1364 C 0.86384 0.30009 0.30285 0.0
C1365 C 0.82968 0.28756 0.27591 0.0
C1366 C 0.85431 0.32052 0.31083 0.0
C1367 C 0.85484 0.32641 0.33343 0.0
C1368 C 0.86482 0.31199 0.34872 0.0
C1369 C 0.87376 0.29092 0.34091 0.0
C1370 C 0.87347 0.28518 0.31806 0.0
H1371 H 0.82008 0.27794 0.26426 0.0
H1372 H 0.83122 0.27668 0.29138 0.0
H1373 H 0.823 0.30503 0.28037 0.0
H1374 H 0.84703 0.33249 0.2994 0.0
H1375 H 0.84773 0.34264 0.33881 0.0
H1376 H 0.62372 0.78742 0.35244 0.0
H1377 H 0.62466 0.77591 0.31293 0.0
H1378 H 0.66988 0.82659 0.30186 0.0
H1379 H 0.66929 0.83779 0.3411 0.0
H1380 H 0.61707 0.80544 0.27861 0.0
H1381 H 0.68895 0.76953 0.26697 0.0
H1382 H 0.67854 0.77323 0.29425 0.0
H1383 H 0.68965 0.79841 0.28045 0.0
C1384 C 0.63415 0.7957 0.34169 0.0
C1385 C 0.64639 0.81358 0.34999 0.0
C1386 C 0.63465 0.78913 0.31909 0.0
C1387 C 0.64753 0.8001 0.3044 0.0
C1388 C 0.66014 0.81736 0.31287 0.0
H1389 H 0.6406 0.85088 0.17444 0.0
H1390 H 0.64055 0.84047 0.21367 0.0
C1391 C 0.65965 0.82393 0.33536 0.0
C1392 C 0.6465 0.79579 0.27989 0.0
H1393 H 0.674 0.78646 0.23381 0.0
C1394 C 0.62943 0.80071 0.26889 0.0
C1395 C 0.6625 0.78929 0.26707 0.0
C1396 C 0.68087 0.78206 0.27785 0.0
C1397 C 0.62832 0.8011 0.2455 0.0
C1398 C 0.64475 0.79678 0.23271 0.0
C1399 C 0.66146 0.79006 0.24362 0.0
C1400 C 0.6453 0.80232 0.20846 0.0
C1401 C 0.60971 0.80709 0.23462 0.0
C1402 C 0.64854 0.78435 0.19233 0.0
C1403 C 0.6486 0.79025 0.16949 0.0
C1404 C 0.64563 0.81427 0.16252 0.0
C1405 C 0.64285 0.83215 0.17894 0.0
C1406 C 0.64272 0.82624 0.20152 0.0
H1407 H 0.59767 0.80266 0.24575 0.0
H1408 H 0.60918 0.82675 0.23102 0.0
H1409 H 0.60797 0.79718 0.21865 0.0
H1410 H 0.65072 0.76577 0.19739 0.0
H1411 H 0.6508 0.77604 0.15736 0.0
H1412 H 0.34696 0.16639 0.83952 0.0
H1413 H 0.34672 0.17698 0.80006 0.0
H1414 H 0.38874 0.23176 0.81195 0.0
H1415 H 0.38935 0.22095 0.85166 0.0
H1416 H 0.34006 0.21946 0.77578 0.0
H1417 H 0.41408 0.18745 0.76619 0.0
H1418 H 0.40045 0.18148 0.79097 0.0
H1419 H 0.41022 0.21099 0.78631 0.0
C1420 C 0.35605 0.18088 0.83388 0.0
C1421 C 0.36838 0.19259 0.84879 0.0
C1422 C 0.35583 0.18698 0.81126 0.0
C1423 C 0.36792 0.2049 0.80293 0.0
C1424 C 0.37952 0.21757 0.81792 0.0
H1425 H 0.36571 0.23117 0.65571 0.0
H1426 H 0.36532 0.24102 0.69583 0.0
C1427 C 0.37978 0.21145 0.84065 0.0
C1428 C 0.36917 0.20876 0.77838 0.0
H1429 H 0.39794 0.19842 0.73367 0.0
C1430 C 0.35281 0.21533 0.76656 0.0
C1431 C 0.38579 0.20317 0.76635 0.0
C1432 C 0.40363 0.19521 0.77799 0.0
C1433 C 0.35244 0.21549 0.74307 0.0
C1434 C 0.36886 0.20903 0.73111 0.0
C1435 C 0.38542 0.20357 0.74291 0.0
C1436 C 0.36842 0.20396 0.70677 0.0
C1437 C 0.33423 0.2211 0.73114 0.0
C1438 C 0.37027 0.17999 0.69968 0.0
C1439 C 0.37046 0.17434 0.67705 0.0
C1440 C 0.36888 0.19255 0.6607 0.0
C1441 C 0.36686 0.21669 0.66779 0.0
C1442 C 0.36663 0.22234 0.69069 0.0
H1443 H 0.32239 0.2243 0.7429 0.0
H1444 H 0.3361 0.23748 0.72068 0.0
H1445 H 0.33041 0.20595 0.71987 0.0
H1446 H 0.37163 0.16552 0.71177 0.0
H1447 H 0.37206 0.15553 0.67247 0.0
H1448 H 0.64286 0.15794 0.83686 0.0
H1449 H 0.64277 0.16865 0.79773 0.0
H1450 H 0.64806 0.24401 0.81471 0.0
H1451 H 0.64819 0.2334 0.85468 0.0
H1452 H 0.6157 0.20165 0.7767 0.0
H1453 H 0.69094 0.22872 0.76693 0.0
H1454 H 0.6834 0.20971 0.78973 0.0
H1455 H 0.67722 0.2411 0.78952 0.0
C1456 C 0.64412 0.17687 0.83255 0.0
C1457 C 0.64557 0.19481 0.84915 0.0
C1458 C 0.64402 0.18293 0.81002 0.0
C1459 C 0.64542 0.20707 0.80328 0.0
C1460 C 0.64708 0.22521 0.81959 0.0
H1461 H 0.62414 0.22054 0.65801 0.0
H1462 H 0.62454 0.23314 0.69728 0.0
C1463 C 0.64715 0.21912 0.8424 0.0
C1464 C 0.64473 0.21252 0.77902 0.0
H1465 H 0.67331 0.22288 0.73417 0.0
C1466 C 0.62813 0.2069 0.76735 0.0
C1467 C 0.66104 0.21914 0.76696 0.0
C1468 C 0.67925 0.22499 0.77877 0.0
C1469 C 0.6277 0.20628 0.74392 0.0
C1470 C 0.64428 0.21181 0.73178 0.0
C1471 C 0.66059 0.21877 0.74347 0.0
C1472 C 0.64565 0.20708 0.70738 0.0
C1473 C 0.60989 0.19798 0.73244 0.0
C1474 C 0.65798 0.18905 0.69979 0.0
C1475 C 0.65789 0.18196 0.67743 0.0
C1476 C 0.64544 0.19274 0.66206 0.0
C1477 C 0.63381 0.21174 0.66941 0.0
C1478 C 0.63394 0.21888 0.69189 0.0
H1479 H 0.59942 0.19055 0.7444 0.0
H1480 H 0.6033 0.21351 0.7237 0.0
H1481 H 0.61311 0.18388 0.71982 0.0
H1482 H 0.66718 0.17971 0.71138 0.0
H1483 H 0.66719 0.16743 0.67239 0.0
H1484 H 0.34829 0.84256 0.17421 0.0
H1485 H 0.34765 0.83008 0.21315 0.0
H1486 H 0.38976 0.77581 0.19968 0.0
H1487 H 0.3908 0.78858 0.16047 0.0
H1488 H 0.33997 0.78655 0.23423 0.0
H1489 H 0.41413 0.81526 0.24953 0.0
H1490 H 0.40155 0.82341 0.22446 0.0
H1491 H 0.41057 0.7933 0.22786 0.0
C1492 C 0.35737 0.82784 0.17939 0.0
C1493 C 0.36977 0.81677 0.16417 0.0
C1494 C 0.35693 0.82068 0.20173 0.0
C1495 C 0.36888 0.80229 0.20949 0.0
C1496 C 0.38068 0.79038 0.19419 0.0
H1497 H 0.38625 0.7786 0.35431 0.0
H1498 H 0.38595 0.76862 0.31425 0.0
C1499 C 0.38116 0.79758 0.17173 0.0
C1500 C 0.3693 0.79663 0.23378 0.0
H1501 H 0.39659 0.80262 0.2805 0.0
C1502 C 0.35244 0.7897 0.2443 0.0
C1503 C 0.38559 0.80061 0.24697 0.0
C1504 C 0.40398 0.80872 0.23676 0.0
C1505 C 0.35123 0.78768 0.26763 0.0
C1506 C 0.36722 0.79298 0.28086 0.0
C1507 C 0.38436 0.79849 0.27033 0.0
C1508 C 0.3658 0.79641 0.30541 0.0
C1509 C 0.33266 0.78056 0.27797 0.0
C1510 C 0.35446 0.81509 0.31375 0.0
C1511 C 0.35475 0.82087 0.33639 0.0
C1512 C 0.36633 0.80811 0.35133 0.0
C1513 C 0.37705 0.78861 0.34323 0.0
C1514 C 0.37696 0.78298 0.32036 0.0
H1515 H 0.32401 0.76967 0.26624 0.0
H1516 H 0.33483 0.77004 0.29355 0.0
H1517 H 0.32458 0.79712 0.28215 0.0
H1518 H 0.34597 0.82596 0.30256 0.0
H1519 H 0.34623 0.83582 0.34209 0.0
H1520 H 0.29324 0.16704 0.9664 0.0
H1521 H 0.26766 0.187 0.98685 0.0
H1522 H 0.30717 0.23904 0.01288 0.0
H1523 H 0.33264 0.21961 0.99224 0.0
H1524 H 0.26291 0.19414 0.0316 0.0
H1525 H 0.26642 0.28295 0.98912 0.0
H1526 H 0.27839 0.25655 0.97856 0.0
H1527 H 0.28855 0.27386 1.00094 0.0
C1528 C 0.29647 0.18284 0.97636 0.0
C1529 C 0.31503 0.19176 0.97752 0.0
C1530 C 0.28182 0.19422 0.98808 0.0
C1531 C 0.28536 0.21483 1.00115 0.0
C1532 C 0.30392 0.22358 1.0025 0.0
H1533 H 0.21754 0.30601 0.08925 0.0
H1534 H 0.24323 0.28576 0.06919 0.0
C1535 C 0.31853 0.21231 0.99075 0.0
C1536 C 0.26982 0.22678 0.01385 0.0
H1537 H 0.24754 0.28097 0.0219 0.0
C1538 C 0.25949 0.21309 0.02935 0.0
C1539 C 0.26531 0.25156 0.01102 0.0
C1540 C 0.27512 0.26705 0.99386 0.0
C1541 C 0.24508 0.22353 0.04233 0.0
C1542 C 0.24068 0.24831 0.0396 0.0
C1543 C 0.25098 0.26202 0.02411 0.0
C1544 C 0.22513 0.26021 0.05224 0.0
C1545 C 0.23492 0.20805 0.0592 0.0
C1546 C 0.20637 0.25275 0.0493 0.0
C1547 C 0.19168 0.26431 0.06068 0.0
C1548 C 0.19536 0.28366 0.07531 0.0
C1549 C 0.21418 0.29109 0.07826 0.0
C1550 C 0.22889 0.27957 0.06675 0.0
H1551 H 0.24298 0.1914 0.06324 0.0
H1552 H 0.23234 0.21824 0.07486 0.0
H1553 H 0.22106 0.20255 0.05226 0.0
H1554 H 0.20305 0.23817 0.03791 0.0
H1555 H 0.17738 0.25813 0.05786 0.0
H1556 H 0.79772 0.6996 0.58846 0.0
H1557 H 0.772 0.71953 0.56819 0.0
H1558 H 0.81201 0.76751 0.5371 0.0
H1559 H 0.83775 0.74749 0.55688 0.0
H1560 H 0.75956 0.76636 0.56814 0.0
H1561 H 0.78405 0.7422 0.48328 0.0
H1562 H 0.79375 0.72851 0.50808 0.0
H1563 H 0.80153 0.75796 0.49928 0.0
C1564 C 0.80106 0.7144 0.57731 0.0
C1565 C 0.81988 0.7218 0.57425 0.0
C1566 C 0.78631 0.72578 0.5657 0.0
C1567 C 0.79003 0.74475 0.55071 0.0
C1568 C 0.80876 0.75253 0.54806 0.0
H1569 H 0.72136 0.83953 0.46691 0.0
H1570 H 0.74686 0.81961 0.48758 0.0
C1571 C 0.82349 0.74112 0.55956 0.0
C1572 C 0.77436 0.75666 0.53811 0.0
H1573 H 0.7592 0.771 0.48549 0.0
C1574 C 0.75944 0.76722 0.55007 0.0
C1575 C 0.77413 0.75787 0.51448 0.0
C1576 C 0.78912 0.74583 0.5005 0.0
C1577 C 0.74459 0.77933 0.53913 0.0
C1578 C 0.74445 0.78068 0.51553 0.0
C1579 C 0.75933 0.77009 0.50356 0.0
C1580 C 0.72889 0.79276 0.50294 0.0
C1581 C 0.72937 0.79106 0.55298 0.0
C1582 C 0.71031 0.78413 0.50436 0.0
C1583 C 0.69571 0.79544 0.49252 0.0
C1584 C 0.69933 0.81566 0.4789 0.0
C1585 C 0.71801 0.8241 0.47729 0.0
C1586 C 0.73262 0.8127 0.48909 0.0
H1587 H 0.73395 0.79379 0.57053 0.0
H1588 H 0.72522 0.80881 0.54585 0.0
H1589 H 0.71674 0.77924 0.55314 0.0
H1590 H 0.70709 0.7685 0.51454 0.0
H1591 H 0.68155 0.78831 0.49412 0.0
H1592 H 0.32535 0.82581 0.00887 0.0
H1593 H 0.30034 0.80784 0.9861 0.0
H1594 H 0.27316 0.78161 0.04578 0.0
H1595 H 0.2974 0.80098 0.06854 0.0
H1596 H 0.28972 0.7654 0.97824 0.0
H1597 H 0.22842 0.80944 0.01759 0.0
H1598 H 0.25225 0.81821 0.02409 0.0
H1599 H 0.2415 0.79276 0.03798 0.0
C1600 C 0.31387 0.81648 0.01712 0.0
C1601 C 0.31321 0.81513 0.04053 0.0
C1602 C 0.29958 0.80611 1.00407 0.0
C1603 C 0.28443 0.79374 0.01409 0.0
C1604 C 0.28412 0.79182 0.03751 0.0
H1605 H 0.2153 0.68916 0.9407 0.0
H1606 H 0.24014 0.70988 0.96156 0.0
C1607 C 0.29813 0.80276 0.05057 0.0
C1608 C 0.26942 0.78217 1.00004 0.0
H1609 H 0.22172 0.77473 0.99514 0.0
C1610 C 0.27484 0.7677 0.98184 0.0
C1611 C 0.24989 0.78539 1.00423 0.0
C1612 C 0.24269 0.80252 0.02187 0.0
C1613 C 0.26147 0.75617 0.96809 0.0
C1614 C 0.24199 0.75806 0.97324 0.0
C1615 C 0.23657 0.77284 0.99122 0.0
C1616 C 0.22696 0.74521 0.96018 0.0
C1617 C 0.2685 0.74273 0.94783 0.0
C1618 C 0.21071 0.75768 0.9531 0.0
C1619 C 0.19615 0.7456 0.94188 0.0
C1620 C 0.19762 0.72083 0.93702 0.0
C1621 C 0.21391 0.70836 0.94383 0.0
C1622 C 0.22823 0.7203 0.95562 0.0
H1623 H 0.28217 0.75018 0.94191 0.0
H1624 H 0.27089 0.72351 0.95227 0.0
H1625 H 0.25824 0.74362 0.93386 0.0
H1626 H 0.2092 0.77683 0.95635 0.0
H1627 H 0.18375 0.7557 0.93691 0.0
H1628 H 0.71783 0.20704 0.56709 0.0
H1629 H 0.74189 0.22754 0.54489 0.0
H1630 H 0.71512 0.20235 0.48454 0.0
H1631 H 0.69024 0.1834 0.50677 0.0
H1632 H 0.76764 0.2146 0.51941 0.0
H1633 H 0.7205 0.26983 0.4667 0.0
H1634 H 0.71177 0.25254 0.48995 0.0
H1635 H 0.71551 0.23837 0.4632 0.0
C1636 C 0.71704 0.20599 0.54907 0.0
C1637 C 0.70207 0.19373 0.53869 0.0
C1638 C 0.73084 0.21773 0.53633 0.0
C1639 C 0.73026 0.21714 0.51285 0.0
C1640 C 0.71563 0.20407 0.50251 0.0
H1641 H 0.83251 0.25305 0.43702 0.0
H1642 H 0.80705 0.23243 0.45685 0.0
C1643 C 0.70149 0.19294 0.51525 0.0
C1644 C 0.74525 0.22963 0.49943 0.0
H1645 H 0.75256 0.2672 0.4549 0.0
C1646 C 0.76425 0.22626 0.50543 0.0
C1647 C 0.74107 0.24531 0.48134 0.0
C1648 C 0.7211 0.25194 0.4751 0.0
C1649 C 0.77903 0.23789 0.49399 0.0
C1650 C 0.77492 0.25237 0.47505 0.0
C1651 C 0.75591 0.25587 0.46913 0.0
C1652 C 0.78999 0.26454 0.46154 0.0
C1653 C 0.79879 0.23514 0.50304 0.0
C1654 C 0.78853 0.28923 0.45605 0.0
C1655 C 0.80277 0.30083 0.44382 0.0
C1656 C 0.81897 0.28813 0.43714 0.0
C1657 C 0.8203 0.26339 0.4422 0.0
C1658 C 0.80581 0.25164 0.45382 0.0
H1659 H 0.79866 0.23107 0.5212 0.0
H1660 H 0.80584 0.2198 0.49455 0.0
H1661 H 0.80727 0.25174 0.50038 0.0
H1662 H 0.77652 0.29971 0.46159 0.0
H1663 H 0.80137 0.31994 0.44024 0.0
H1664 H 0.67749 0.75886 0.05729 0.0
H1665 H 0.70314 0.73855 0.03761 0.0
H1666 H 0.74334 0.7865 0.06842 0.0
H1667 H 0.71776 0.80664 0.0886 0.0
H1668 H 0.7278 0.75594 0.00735 0.0
H1669 H 0.7675 0.72183 0.08056 0.0
H1670 H 0.74393 0.73387 0.08284 0.0
H1671 H 0.76385 0.75391 0.08109 0.0
C1672 C 0.6918 0.76501 0.06007 0.0
C1673 C 0.69552 0.78434 0.07471 0.0
C1674 C 0.70648 0.75336 0.04873 0.0
C1675 C 0.72528 0.76067 0.05172 0.0
C1676 C 0.72905 0.78007 0.06621 0.0
H1677 H 0.83236 0.71845 0.99244 0.0
H1678 H 0.80666 0.73815 0.0126 0.0
C1679 C 0.71436 0.79168 0.07767 0.0
C1680 C 0.74076 0.74844 0.0391 0.0
H1681 H 0.78257 0.71823 0.04529 0.0
C1682 C 0.73971 0.74759 0.01568 0.0
C1683 C 0.75636 0.73747 0.04989 0.0
C1684 C 0.75794 0.73657 0.07498 0.0
C1685 C 0.75391 0.73653 1.00282 0.0
C1686 C 0.76954 0.72572 0.01361 0.0
C1687 C 0.77061 0.72655 0.037 0.0
C1688 C 0.78503 0.71369 1.00094 0.0
C1689 C 0.75227 0.73701 0.97772 0.0
C1690 C 0.78152 0.69319 0.98772 0.0
C1691 C 0.79625 0.68179 0.97614 0.0
C1692 C 0.81483 0.69061 0.97756 0.0
C1693 C 0.81826 0.71114 0.99085 0.0
C1694 C 0.80356 0.72244 1.00246 0.0
H1695 H 0.742 0.75082 0.97195 0.0
H1696 H 0.76616 0.74077 0.9699 0.0
H1697 H 0.74737 0.71909 0.97178 0.0
H1698 H 0.76741 0.68583 0.98656 0.0
H1699 H 0.79307 0.66599 0.96616 0.0
H1700 H 0.33714 0.24789 0.5556 0.0
H1701 H 0.31127 0.26815 0.53624 0.0
H1702 H 0.27133 0.22095 0.56841 0.0
H1703 H 0.29722 0.20037 0.58784 0.0
H1704 H 0.26558 0.22593 0.52185 0.0
H1705 H 0.27265 0.31566 0.56221 0.0
H1706 H 0.29408 0.30425 0.55024 0.0
H1707 H 0.2835 0.28875 0.57343 0.0
C1708 C 0.32286 0.24185 0.55873 0.0
C1709 C 0.31932 0.22251 0.57344 0.0
C1710 C 0.30804 0.25359 0.54769 0.0
C1711 C 0.28928 0.24637 0.55107 0.0
C1712 C 0.28567 0.22698 0.56562 0.0
H1713 H 0.18078 0.28966 0.49428 0.0
H1714 H 0.20632 0.26974 0.51451 0.0
C1715 C 0.3005 0.21526 0.57678 0.0
C1716 C 0.27354 0.25857 0.53889 0.0
H1717 H 0.25198 0.31327 0.53114 0.0
C1718 C 0.26253 0.24499 0.52399 0.0
C1719 C 0.2696 0.2835 0.54153 0.0
C1720 C 0.28045 0.2989 0.55785 0.0
C1721 C 0.24799 0.25571 0.51136 0.0
C1722 C 0.24399 0.28064 0.51405 0.0
C1723 C 0.255 0.2942 0.52899 0.0
C1724 C 0.22836 0.29294 0.50169 0.0
C1725 C 0.2374 0.2403 0.4948 0.0
C1726 C 0.23201 0.31317 0.48816 0.0
C1727 C 0.21734 0.32482 0.47666 0.0
C1728 C 0.19863 0.31657 0.47851 0.0
C1729 C 0.195 0.29645 0.49226 0.0
C1730 C 0.20965 0.28489 0.50378 0.0
H1731 H 0.2456 0.22399 0.49002 0.0
H1732 H 0.22399 0.23413 0.50245 0.0
H1733 H 0.23398 0.25066 0.47945 0.0
H1734 H 0.24629 0.31986 0.48635 0.0
H1735 H 0.22069 0.34026 0.46629 0.0
H1736 H 0.83229 0.29001 0.01855 0.0
H1737 H 0.80674 0.27065 0.99791 0.0
H1738 H 0.76732 0.3226 0.02432 0.0
H1739 H 0.79294 0.34247 0.0447 0.0
H1740 H 0.7748 0.24889 0.0119 0.0
H1741 H 0.75599 0.32703 0.95845 0.0
H1742 H 0.77723 0.3263 0.97501 0.0
H1743 H 0.75497 0.33361 0.98773 0.0
C1744 C 0.81821 0.29743 0.01997 0.0
C1745 C 0.81475 0.31797 0.03323 0.0
C1746 C 0.80357 0.28628 0.00812 0.0
C1747 C 0.7851 0.29536 0.00915 0.0
C1748 C 0.78151 0.31557 0.02273 0.0
H1749 H 0.67737 0.24906 0.95436 0.0
H1750 H 0.70311 0.26898 0.97429 0.0
C1751 C 0.79618 0.32684 0.03453 0.0
C1752 C 0.76963 0.28333 0.99634 0.0
H1753 H 0.73538 0.29322 0.95711 0.0
C1754 C 0.76626 0.25858 0.99984 0.0
C1755 C 0.75845 0.29589 0.98052 0.0
C1756 C 0.76192 0.32211 0.975 0.0
C1757 C 0.75187 0.24622 0.98835 0.0
C1758 C 0.74063 0.25882 0.97266 0.0
C1759 C 0.74398 0.28355 0.96913 0.0
C1760 C 0.72511 0.24677 0.96005 0.0
C1761 C 0.74853 0.21988 0.99346 0.0
C1762 C 0.72888 0.22784 0.94507 0.0
C1763 C 0.71415 0.2164 0.93351 0.0
C1764 C 0.69532 0.22368 0.9367 0.0
C1765 C 0.69166 0.24289 0.95149 0.0
C1766 C 0.70638 0.25436 0.96292 0.0
H1767 H 0.75534 0.21432 0.00935 0.0
H1768 H 0.7332 0.21594 0.99453 0.0
H1769 H 0.75453 0.2087 0.97984 0.0
H1770 H 0.74324 0.2219 0.94227 0.0
H1771 H 0.71752 0.20171 0.92226 0.0
H1772 H 0.18287 0.71523 0.5158 0.0
H1773 H 0.20863 0.73474 0.49565 0.0
H1774 H 0.24825 0.68507 0.52528 0.0
H1775 H 0.22245 0.66506 0.54519 0.0
H1776 H 0.23962 0.75807 0.51061 0.0
H1777 H 0.26189 0.67918 0.46013 0.0
H1778 H 0.24009 0.6796 0.47563 0.0
H1779 H 0.26204 0.67346 0.48959 0.0
C1780 C 0.19704 0.70832 0.51801 0.0
C1781 C 0.20051 0.6884 0.53206 0.0
C1782 C 0.21179 0.71956 0.50644 0.0
C1783 C 0.23041 0.71119 0.50856 0.0
C1784 C 0.23398 0.69154 0.52286 0.0
H1785 H 0.33886 0.7596 0.45734 0.0
H1786 H 0.31295 0.73945 0.47676 0.0
C1787 C 0.2192 0.68019 0.53438 0.0
C1788 C 0.24603 0.72341 0.49618 0.0
H1789 H 0.2818 0.71369 0.45891 0.0
C1790 C 0.24876 0.74836 0.49922 0.0
C1791 C 0.25802 0.71083 0.48125 0.0
C1792 C 0.25529 0.68435 0.47624 0.0
C1793 C 0.26327 0.76091 0.48813 0.0
C1794 C 0.2753 0.7483 0.47333 0.0
C1795 C 0.2726 0.72337 0.47027 0.0
C1796 C 0.29095 0.76056 0.46112 0.0
C1797 C 0.26589 0.78749 0.49276 0.0
C1798 C 0.28726 0.77898 0.44555 0.0
C1799 C 0.30209 0.79055 0.4343 0.0
C1800 C 0.32095 0.78393 0.43837 0.0
C1801 C 0.32455 0.76526 0.45379 0.0
C1802 C 0.30973 0.75366 0.46493 0.0
H1803 H 0.25849 0.7932 0.50822 0.0
H1804 H 0.28108 0.79203 0.49438 0.0
H1805 H 0.26003 0.79809 0.47864 0.0
H1806 H 0.27288 0.78438 0.44204 0.0
H1807 H 0.29876 0.8048 0.42255 0.0
H1808 H 0.15622 0.57502 0.93689 0.0
H1809 H 0.15592 0.53688 0.95698 0.0
H1810 H 0.12162 0.56887 0.00851 0.0
H1811 H 0.12128 0.60723 0.98796 0.0
H1812 H 0.1685 0.5242 0.99677 0.0
H1813 H 0.09119 0.50949 0.99363 0.0
H1814 H 0.10273 0.53284 0.97769 0.0
H1815 H 0.09777 0.53733 0.00683 0.0
C1816 C 0.14857 0.57409 0.95249 0.0
C1817 C 0.13861 0.59422 0.96069 0.0
C1818 C 0.14844 0.55217 0.964 0.0
C1819 C 0.13844 0.54978 0.98405 0.0
C1820 C 0.12901 0.57006 0.99276 0.0
H1821 H 0.15486 0.4322 0.07734 0.0
H1822 H 0.1552 0.47013 0.05691 0.0
C1823 C 0.12899 0.59205 0.98111 0.0
C1824 C 0.13817 0.52603 0.9957 0.0
H1825 H 0.10895 0.48187 0.01553 0.0
C1826 C 0.15546 0.51495 1.00083 0.0
C1827 C 0.12118 0.51367 1.0006 0.0
C1828 C 0.10216 0.52379 0.99421 0.0
C1829 C 0.15625 0.49207 0.01093 0.0
C1830 C 0.13927 0.48016 0.01667 0.0
C1831 C 0.12196 0.49106 0.01127 0.0
C1832 C 0.13917 0.45672 0.02881 0.0
C1833 C 0.17532 0.48071 0.01489 0.0
C1834 C 0.1296 0.43654 0.02013 0.0
C1835 C 0.12915 0.4147 0.03199 0.0
C1836 C 0.13823 0.41268 0.05278 0.0
C1837 C 0.14784 0.43293 0.06131 0.0
C1838 C 0.14816 0.4547 0.04957 0.0
H1839 H 0.18612 0.48813 1.00334 0.0
H1840 H 0.17996 0.48472 0.03217 0.0
H1841 H 0.17479 0.4608 0.01276 0.0
H1842 H 0.12247 0.43772 1.00418 0.0
H1843 H 0.12156 0.39952 0.02499 0.0
H1844 H 0.89826 0.60752 0.52483 0.0
H1845 H 0.89844 0.56965 0.50352 0.0
H1846 H 0.86196 0.53696 0.55249 0.0
H1847 H 0.86126 0.57458 0.57342 0.0
H1848 H 0.91062 0.52456 0.51593 0.0
H1849 H 0.83454 0.52127 0.4954 0.0
H1850 H 0.84572 0.54808 0.50623 0.0
H1851 H 0.83873 0.52412 0.52478 0.0
C1852 C 0.89009 0.59236 0.53089 0.0
C1853 C 0.87965 0.5942 0.55077 0.0
C1854 C 0.89027 0.5707 0.51876 0.0
C1855 C 0.87999 0.55055 0.52624 0.0
C1856 C 0.86964 0.55238 0.54609 0.0
H1857 H 0.89625 0.39993 0.48401 0.0
H1858 H 0.89645 0.43797 0.50511 0.0
C1859 C 0.86934 0.57396 0.55811 0.0
C1860 C 0.88039 0.52736 0.51373 0.0
H1861 H 0.85196 0.48499 0.48962 0.0
C1862 C 0.89782 0.51596 0.51004 0.0
C1863 C 0.8637 0.51623 0.50588 0.0
C1864 C 0.84464 0.52817 0.50806 0.0
C1865 C 0.89897 0.4936 0.49896 0.0
C1866 C 0.88219 0.48207 0.49183 0.0
C1867 C 0.86481 0.49363 0.49535 0.0
C1868 C 0.88229 0.45876 0.47945 0.0
C1869 C 0.91816 0.48284 0.49455 0.0
C1870 C 0.87381 0.45757 0.45835 0.0
C1871 C 0.8734 0.43591 0.44652 0.0
C1872 C 0.88153 0.41478 0.45541 0.0
C1873 C 0.88996 0.41588 0.47663 0.0
C1874 C 0.89022 0.43766 0.48862 0.0
H1875 H 0.92949 0.49664 0.49577 0.0
H1876 H 0.92109 0.46863 0.50715 0.0
H1877 H 0.91876 0.47444 0.47775 0.0
H1878 H 0.86757 0.47354 0.45092 0.0
H1879 H 0.8668 0.43586 0.43023 0.0
H1880 H 0.88924 0.42588 0.0645 0.0
H1881 H 0.88762 0.46521 0.04622 0.0
H1882 H 0.84143 0.44 1.00549 0.0
H1883 H 0.8439 0.39991 0.02291 0.0
H1884 H 0.86231 0.46667 0.98136 0.0
H1885 H 0.85176 0.51733 0.05944 0.0
H1886 H 0.87354 0.50106 0.06083 0.0
H1887 H 0.85155 0.48479 0.05872 0.0
C1888 C 0.8788 0.42871 0.05155 0.0
C1889 C 0.86662 0.40992 0.04519 0.0
C1890 C 0.87772 0.45132 0.04128 0.0
C1891 C 0.86393 0.45604 0.02501 0.0
C1892 C 0.85207 0.43701 0.01817 0.0
H1893 H 0.84376 0.60759 0.98672 0.0
H1894 H 0.84115 0.56728 1.0036 0.0
C1895 C 0.8535 0.41408 0.02806 0.0
C1896 C 0.86226 0.48063 0.0149 0.0
H1897 H 0.86188 0.54081 0.02779 0.0
C1898 C 0.86199 0.48285 0.99156 0.0
C1899 C 0.86126 0.50191 0.02805 0.0
C1900 C 0.85931 0.50112 0.05312 0.0
C1901 C 0.86149 0.50558 0.98107 0.0
C1902 C 0.86224 0.52687 0.99424 0.0
C1903 C 0.86174 0.52464 0.01758 0.0
C1904 C 0.86383 0.55151 0.9842 0.0
C1905 C 0.8598 0.50636 0.95598 0.0
C1906 C 0.87772 0.55643 0.96812 0.0
C1907 C 0.87888 0.5792 0.95814 0.0
C1908 C 0.86667 0.59792 0.96461 0.0
C1909 C 0.85338 0.59348 0.98148 0.0
C1910 C 0.85188 0.57043 0.99107 0.0
H1911 H 0.8524 0.4901 0.94954 0.0
H1912 H 0.85202 0.52264 0.95026 0.0
H1913 H 0.87411 0.50652 0.94851 0.0
H1914 H 0.88769 0.54263 0.96317 0.0
H1915 H 0.88945 0.58221 0.94539 0.0
H1916 H 0.14694 0.43074 0.43193 0.0
H1917 H 0.14799 0.46996 0.45013 0.0
H1918 H 0.15163 0.43516 0.51434 0.0
H1919 H 0.15084 0.39545 0.49618 0.0
H1920 H 0.12333 0.48938 0.48077 0.0
H1921 H 0.1955 0.48317 0.51629 0.0
H1922 H 0.187 0.46263 0.49518 0.0
H1923 H 0.18015 0.45868 0.52381 0.0
C1924 C 0.14809 0.43124 0.44993 0.0
C1925 C 0.14893 0.40975 0.46255 0.0
C1926 C 0.14864 0.4538 0.46032 0.0
C1927 C 0.15013 0.45558 0.48357 0.0
C1928 C 0.15085 0.43425 0.49632 0.0
H1929 H 0.15026 0.57455 0.5765 0.0
H1930 H 0.15062 0.5357 0.55759 0.0
C1931 C 0.1503 0.41154 0.48592 0.0
C1932 C 0.15047 0.47984 0.49428 0.0
H1933 H 0.17723 0.51721 0.52681 0.0
C1934 C 0.13515 0.4955 0.49077 0.0
C1935 C 0.16593 0.48787 0.50724 0.0
C1936 C 0.18317 0.47234 0.51074 0.0
C1937 C 0.1347 0.51875 0.50021 0.0
C1938 C 0.15011 0.52672 0.51326 0.0
C1939 C 0.16545 0.5111 0.51673 0.0
C1940 C 0.1502 0.55076 0.52433 0.0
C1941 C 0.11752 0.53438 0.49665 0.0
C1942 C 0.15006 0.57231 0.51189 0.0
C1943 C 0.14994 0.59482 0.52269 0.0
C1944 C 0.14996 0.59615 0.54615 0.0
C1945 C 0.15028 0.57442 0.55844 0.0
C1946 C 0.15049 0.55207 0.54766 0.0
H1947 H 0.10535 0.52381 0.49023 0.0
H1948 H 0.11329 0.54334 0.51244 0.0
H1949 H 0.12087 0.54868 0.48429 0.0
H1950 H 0.1501 0.57173 0.49383 0.0
H1951 H 0.1497 0.61111 0.51268 0.0
H1952 H 0.62125 0.10812 0.98711 0.0
H1953 H 0.6222 0.07001 0.00806 0.0
H1954 H 0.6552 0.03749 0.95565 0.0
H1955 H 0.65483 0.07533 0.93509 0.0
H1956 H 0.6088 0.02583 0.99676 0.0
H1957 H 0.68592 0.01965 0.00948 0.0
H1958 H 0.6746 0.04695 0.99991 0.0
H1959 H 0.67989 0.02297 0.98059 0.0
C1960 C 0.62891 0.09293 0.98021 0.0
C1961 C 0.63806 0.09489 0.95947 0.0
C1962 C 0.62939 0.07114 0.99216 0.0
C1963 C 0.63904 0.05096 0.98361 0.0
C1964 C 0.6481 0.05292 0.9629 0.0
H1965 H 0.62109 0.90046 0.02389 0.0
H1966 H 0.62152 0.93895 1.00359 0.0
C1967 C 0.64776 0.07464 0.95107 0.0
C1968 C 0.63912 0.02755 0.99581 0.0
H1969 H 0.66832 0.98353 0.01591 0.0
C1970 C 0.62181 0.01664 1.0011 0.0
C1971 C 0.6561 0.01566 1.00168 0.0
C1972 C 0.67517 0.02703 0.99783 0.0
C1973 C 0.62101 0.99403 0.01177 0.0
C1974 C 0.63799 0.98167 0.01677 0.0
C1975 C 0.65529 0.99278 0.01177 0.0
C1976 C 0.63823 0.95785 0.02829 0.0
C1977 C 0.60198 0.9839 0.01802 0.0
C1978 C 0.64815 0.9553 0.04841 0.0
C1979 C 0.64822 0.9333 0.05978 0.0
C1980 C 0.6383 0.91324 0.05138 0.0
C1981 C 0.62877 0.91557 0.03091 0.0
C1982 C 0.62885 0.93764 0.01939 0.0
H1983 H 0.591 0.99822 0.01863 0.0
H1984 H 0.59761 0.97044 1.00532 0.0
H1985 H 0.60251 0.97476 0.03451 0.0
H1986 H 0.6556 0.97053 0.05556 0.0
H1987 H 0.65579 0.93224 0.07544 0.0
H1988 H 0.39655 0.89938 0.48446 0.0
H1989 H 0.39606 0.93748 0.50547 0.0
H1990 H 0.36558 0.97164 0.45176 0.0
H1991 H 0.36555 0.93387 0.4311 0.0
H1992 H 0.41039 0.98201 0.49532 0.0
H1993 H 0.3329 0.98857 0.50438 0.0
H1994 H 0.34445 0.96129 0.49518 0.0
H1995 H 0.33995 0.98549 0.4758 0.0
C1996 C 0.38963 0.91497 0.47723 0.0
C1997 C 0.38094 0.91345 0.45618 0.0
C1998 C 0.38939 0.93674 0.48922 0.0
C1999 C 0.38046 0.95733 0.48038 0.0
C2000 C 0.3721 0.95588 0.45922 0.0
H2001 H 0.39721 0.10723 0.52304 0.0
H2002 H 0.39763 0.06889 0.50253 0.0
C2003 C 0.37219 0.93421 0.44736 0.0
C2004 C 0.38012 0.98052 0.4929 0.0
H2005 H 0.35043 0.02438 0.5122 0.0
C2006 C 0.39728 0.99121 0.49917 0.0
C2007 C 0.363 0.99242 0.49814 0.0
C2008 C 0.34404 0.98124 0.49323 0.0
C2009 C 0.3978 0.01366 0.51015 0.0
C2010 C 0.38071 0.02604 0.51451 0.0
C2011 C 0.36355 0.01512 0.50857 0.0
C2012 C 0.38014 0.04972 0.52627 0.0
C2013 C 0.41664 0.02361 0.5174 0.0
C2014 C 0.36955 0.05205 0.54591 0.0
C2015 C 0.36901 0.07396 0.55739 0.0
C2016 C 0.37912 0.09416 0.54958 0.0
C2017 C 0.38937 0.09202 0.5296 0.0
C2018 C 0.38977 0.07003 0.51797 0.0
H2019 H 0.42755 0.00923 0.51833 0.0
H2020 H 0.42144 0.03725 0.50508 0.0
H2021 H 0.4156 0.0325 0.53396 0.0
H2022 H 0.3619 0.03673 0.55259 0.0
H2023 H 0.3609 0.07487 0.57267 0.0
H2024 H 0.35657 0.90213 0.02002 0.0
H2025 H 0.35608 0.94188 1.00179 0.0
H2026 H 0.37345 0.97554 0.06323 0.0
H2027 H 0.37386 0.93623 0.08167 0.0
H2028 H 0.33481 0.98933 0.02213 0.0
H2029 H 0.41244 0.9935 0.00815 0.0
H2030 H 0.39992 0.9651 0.00964 0.0
H2031 H 0.40381 0.98234 0.0345 0.0
C2032 C 0.36024 0.91798 0.02969 0.0
C2033 C 0.36525 0.91587 0.05235 0.0
C2034 C 0.35991 0.94066 0.01925 0.0
C2035 C 0.36476 0.96156 0.0312 0.0
C2036 C 0.36969 0.95959 0.05375 0.0
H2037 H 0.35847 0.11553 0.99703 0.0
H2038 H 0.35755 0.07672 0.01696 0.0
C2039 C 0.3699 0.93703 0.06423 0.0
C2040 C 0.36495 0.98552 0.02013 0.0
H2041 H 0.39461 0.02763 0.99768 0.0
C2042 C 0.34785 0.99777 0.01679 0.0
C2043 C 0.382 0.99639 0.01324 0.0
C2044 C 0.40066 0.98375 0.01641 0.0
C2045 C 0.3474 0.02072 0.00669 0.0
C2046 C 0.36448 0.03163 0.99985 0.0
C2047 C 0.38156 0.01929 1.00312 0.0
C2048 C 0.36482 0.05523 0.98808 0.0
C2049 C 0.32869 0.03304 1.00298 0.0
C2050 C 0.36936 0.05597 0.96536 0.0
C2051 C 0.3698 0.07795 0.95394 0.0
C2052 C 0.3659 0.09985 0.96504 0.0
C2053 C 0.36153 0.09907 0.98794 0.0
C2054 C 0.36093 0.07692 0.99934 0.0
H2055 H 0.3166 0.02091 0.00666 0.0
H2056 H 0.32769 0.04911 0.01399 0.0
H2057 H 0.32755 0.0394 0.98546 0.0
H2058 H 0.37245 0.03944 0.95639 0.0
H2059 H 0.37329 0.07771 0.93636 0.0
H2060 H 0.64805 0.07275 0.58076 0.0
H2061 H 0.64899 0.03359 0.56237 0.0
H2062 H 0.653 0.06873 0.49835 0.0
H2063 H 0.65245 0.10831 0.51669 0.0
H2064 H 0.62459 0.0143 0.53203 0.0
H2065 H 0.69632 0.02061 0.49554 0.0
H2066 H 0.68798 0.0413 0.51661 0.0
H2067 H 0.68099 0.0451 0.48798 0.0
C2068 C 0.6493 0.07232 0.56277 0.0
C2069 C 0.65036 0.09386 0.55026 0.0
C2070 C 0.64978 0.0498 0.55227 0.0
C2071 C 0.65135 0.04814 0.52901 0.0
C2072 C 0.65221 0.06953 0.51637 0.0
H2073 H 0.65051 0.9305 0.43458 0.0
H2074 H 0.65113 0.96907 0.45398 0.0
C2075 C 0.6518 0.09217 0.52689 0.0
C2076 C 0.65155 0.02395 0.51813 0.0
H2077 H 0.67772 0.98701 0.48453 0.0
C2078 C 0.63626 0.00829 0.52173 0.0
C2079 C 0.6668 0.01606 0.50475 0.0
C2080 C 0.68405 0.03152 0.50111 0.0
C2081 C 0.6356 0.98521 0.51196 0.0
C2082 C 0.65079 0.97739 0.49847 0.0
C2083 C 0.66611 0.993 0.49492 0.0
C2084 C 0.65067 0.95353 0.48707 0.0
C2085 C 0.61843 0.96962 0.51567 0.0
C2086 C 0.65043 0.93179 0.49922 0.0
C2087 C 0.65011 0.90946 0.48813 0.0
C2088 C 0.65008 0.90848 0.46466 0.0
C2089 C 0.65054 0.93038 0.45264 0.0
C2090 C 0.6509 0.95257 0.46371 0.0
H2091 H 0.60635 0.9802 0.52228 0.0
H2092 H 0.61403 0.96072 0.4999 0.0
H2093 H 0.62188 0.95528 0.52795 0.0
H2094 H 0.65054 0.93209 0.51728 0.0
H2095 H 0.64979 0.89303 0.49794 0.0
loop_
_geom_bond_atom_site_label_1
_geom_bond_atom_site_label_2
_geom_bond_distance
_geom_bond_site_symmetry_2
_ccdc_geom_bond_type
Co0 O2 2.143 . S
Co0 O8 2.074 . S
Co0 O11 2.093 . S
Co0 O24 2.097 . S
Co0 N41 2.151 . S
Co0 N49 2.214 . S
Co1 O2 2.160 . S
Co1 O7 2.058 . S
Co1 O17 2.057 . S
Co1 O32 2.037 . S
Co1 N36 2.145 . S
Co1 N57 2.257 . S
O2 Co0 2.143 . S
O2 Co1 2.160 . S
C3 O4 1.278 . S
C3 O11 1.224 . S
O4 C3 1.278 . S
C5 O6 1.245 . S
C5 O17 1.232 . S
O6 C5 1.245 . S
O7 Co1 2.058 . S
O7 C33 1.269 . S
O8 Co0 2.074 . S
O8 C33 1.257 . S
H9 C34 0.930 . S
H10 C40 0.930 . S
O11 Co0 2.093 . S
O11 C3 1.224 . S
H12 C44 0.929 . S
H13 C46 0.930 . S
H14 C47 0.930 . S
H15 C45 0.929 . S
H16 C48 0.928 . S
O17 Co1 2.057 . S
O17 C5 1.232 . S
H18 C37 0.929 . S
H19 C38 0.929 . S
H20 C50 0.931 . S
H21 C42 0.929 . S
H22 C51 0.930 . S
H23 C43 0.931 . S
O24 Co0 2.097 . S
O24 C52 1.214 . S
H25 C53 0.894 1_556 S
H26 C54 0.929 . S
H27 C55 0.930 . S
H28 C56 0.929 . S
H29 C58 0.930 . S
H30 C35 0.930 . S
H31 C39 0.930 . S
O32 Co1 2.037 . S
O32 C52 1.234 . S
C33 O7 1.269 . S
C33 O8 1.257 . S
C34 H9 0.930 . S
C34 C37 1.388 . S
C34 C39 1.418 . S
C35 H30 0.930 . S
C35 C38 1.404 . S
C35 C39 1.353 . S
N36 Co1 2.145 . S
N36 C37 1.397 . S
N36 C38 1.334 . S
C37 H18 0.929 . S
C37 C34 1.388 . S
C37 N36 1.397 . S
C38 H19 0.929 . S
C38 C35 1.404 . S
C38 N36 1.334 . S
C39 H31 0.930 . S
C39 C34 1.418 . S
C39 C35 1.353 . S
C40 H10 0.930 . S
C40 N41 1.330 . S
C40 C42 1.446 . S
N41 Co0 2.151 . S
N41 C40 1.330 . S
N41 C45 1.418 . S
C42 H21 0.929 . S
C42 C40 1.446 . S
C42 C43 1.332 . S
C43 H23 0.931 . S
C43 C42 1.332 . S
C43 C44 1.267 . S
C44 H12 0.929 . S
C44 C43 1.267 . S
C44 C45 1.251 . S
C45 H15 0.929 . S
C45 N41 1.418 . S
C45 C44 1.251 . S
C46 H13 0.930 . S
C46 C48 1.406 . S
C46 C51 1.261 . S
C47 H14 0.930 . S
C47 N49 1.325 . S
C47 C50 1.357 . S
C48 H16 0.928 . S
C48 C46 1.406 . S
C48 N49 1.261 . S
N49 Co0 2.214 . S
N49 C47 1.325 . S
N49 C48 1.261 . S
C50 H20 0.931 . S
C50 C47 1.357 . S
C50 C51 1.312 . S
C51 H22 0.930 . S
C51 C46 1.261 . S
C51 C50 1.312 . S
C52 O24 1.214 . S
C52 O32 1.234 . S
C53 H25 0.894 1_554 S
C53 C56 1.380 1_554 S
C53 C58 1.439 . S
C54 H26 0.929 . S
C54 C55 1.390 . S
C54 N57 1.391 . S
C55 H27 0.930 . S
C55 C54 1.390 . S
C55 C56 1.392 1_554 S
C56 H28 0.929 . S
C56 C53 1.380 1_556 S
C56 C55 1.392 1_556 S
N57 Co1 2.257 . S
N57 C54 1.391 . S
N57 C58 1.388 . S
C58 H29 0.930 . S
C58 C53 1.439 . S
C58 N57 1.388 . S
Co59 O61 2.143 . S
Co59 O67 2.074 . S
Co59 O70 2.093 . S
Co59 O83 2.097 . S
Co59 N100 2.151 . S
Co59 N108 2.214 . S
Co60 O61 2.160 . S
Co60 O66 2.058 . S
Co60 O76 2.057 . S
Co60 O91 2.037 . S
Co60 N95 2.145 . S
Co60 N116 2.257 . S
O61 Co59 2.143 . S
O61 Co60 2.160 . S
C62 O63 1.278 . S
C62 O70 1.224 . S
O63 C62 1.278 . S
C64 O65 1.245 . S
C64 O76 1.232 . S
O65 C64 1.245 . S
O66 Co60 2.058 . S
O66 C92 1.269 . S
O67 Co59 2.074 . S
O67 C92 1.257 . S
H68 C93 0.930 . S
H69 C99 0.930 . S
O70 Co59 2.093 . S
O70 C62 1.224 . S
H71 C103 0.929 . S
H72 C105 0.930 . S
H73 C106 0.930 . S
H74 C104 0.929 . S
H75 C107 0.928 . S
O76 Co60 2.057 . S
O76 C64 1.232 . S
H77 C96 0.929 . S
H78 C97 0.929 . S
H79 C109 0.931 . S
H80 C101 0.929 . S
H81 C110 0.930 . S
H82 C102 0.931 . S
O83 Co59 2.097 . S
O83 C111 1.214 . S
H84 C112 0.929 . S
H85 C113 0.929 . S
H86 C114 0.930 . S
H87 C115 0.929 . S
H88 C117 0.930 . S
H89 C94 0.930 . S
H90 C98 0.930 . S
O91 Co60 2.037 . S
O91 C111 1.234 . S
C92 O66 1.269 . S
C92 O67 1.257 . S
C93 H68 0.930 . S
C93 C96 1.388 . S
C93 C98 1.418 . S
C94 H89 0.930 . S
C94 C97 1.404 . S
C94 C98 1.353 . S
N95 Co60 2.145 . S
N95 C96 1.397 . S
N95 C97 1.334 . S
C96 H77 0.929 . S
C96 C93 1.388 . S
C96 N95 1.397 . S
C97 H78 0.929 . S
C97 C94 1.404 . S
C97 N95 1.334 . S
C98 H90 0.930 . S
C98 C93 1.418 . S
C98 C94 1.353 . S
C99 H69 0.930 . S
C99 N100 1.330 . S
C99 C101 1.446 . S
N100 Co59 2.151 . S
N100 C99 1.330 . S
N100 C104 1.418 . S
C101 H80 0.929 . S
C101 C99 1.446 . S
C101 C102 1.332 . S
C102 H82 0.931 . S
C102 C101 1.332 . S
C102 C103 1.267 . S
C103 H71 0.929 . S
C103 C102 1.267 . S
C103 C104 1.251 . S
C104 H74 0.929 . S
C104 N100 1.418 . S
C104 C103 1.251 . S
C105 H72 0.930 . S
C105 C107 1.406 . S
C105 C110 1.261 . S
C106 H73 0.930 . S
C106 N108 1.325 . S
C106 C109 1.357 . S
C107 H75 0.928 . S
C107 C105 1.406 . S
C107 N108 1.261 . S
N108 Co59 2.214 . S
N108 C106 1.325 . S
N108 C107 1.261 . S
C109 H79 0.931 . S
C109 C106 1.357 . S
C109 C110 1.312 . S
C110 H81 0.930 . S
C110 C105 1.261 . S
C110 C109 1.312 . S
C111 O83 1.214 . S
C111 O91 1.234 . S
C112 H84 0.929 . S
C112 C115 1.391 . S
C112 C117 1.391 . S
C113 H85 0.929 . S
C113 C114 1.390 . S
C113 N116 1.391 . S
C114 H86 0.930 . S
C114 C113 1.390 . S
C114 C115 1.392 . S
C115 H87 0.929 . S
C115 C112 1.391 . S
C115 C114 1.392 . S
N116 Co60 2.257 . S
N116 C113 1.391 . S
N116 C117 1.388 . S
C117 H88 0.930 . S
C117 C112 1.391 . S
C117 N116 1.388 . S
Co118 O120 2.143 . S
Co118 O126 2.074 . S
Co118 O129 2.093 . S
Co118 O142 2.097 . S
Co118 N159 2.151 . S
Co118 N167 2.214 . S
Co119 O120 2.160 . S
Co119 O125 2.058 . S
Co119 O135 2.057 . S
Co119 O150 2.037 . S
Co119 N154 2.145 . S
Co119 N175 2.257 . S
O120 Co118 2.143 . S
O120 Co119 2.160 . S
C121 O122 1.278 . S
C121 O129 1.224 . S
O122 C121 1.278 . S
C123 O124 1.245 . S
C123 O135 1.232 . S
O124 C123 1.245 . S
O125 Co119 2.058 . S
O125 C151 1.269 . S
O126 Co118 2.074 . S
O126 C151 1.257 . S
H127 C152 0.930 . S
H128 C158 0.930 . S
O129 Co118 2.093 . S
O129 C121 1.224 . S
H130 C162 0.929 . S
H131 C164 0.930 . S
H132 C165 0.930 . S
H133 C163 0.929 . S
H134 C166 0.928 . S
O135 Co119 2.057 . S
O135 C123 1.232 . S
H136 C155 0.929 . S
H137 C156 0.929 . S
H138 C168 0.931 . S
H139 C160 0.929 . S
H140 C169 0.930 . S
H141 C161 0.931 . S
O142 Co118 2.097 . S
O142 C170 1.214 . S
H143 C171 0.894 1_554 S
H144 C172 0.929 . S
H145 C173 0.930 . S
H146 C174 0.929 . S
H147 C176 0.930 . S
H148 C153 0.930 . S
H149 C157 0.930 . S
O150 Co119 2.037 . S
O150 C170 1.234 . S
C151 O125 1.269 . S
C151 O126 1.257 . S
C152 H127 0.930 . S
C152 C155 1.388 . S
C152 C157 1.418 . S
C153 H148 0.930 . S
C153 C156 1.404 . S
C153 C157 1.353 . S
N154 Co119 2.145 . S
N154 C155 1.397 . S
N154 C156 1.334 . S
C155 H136 0.929 . S
C155 C152 1.388 . S
C155 N154 1.397 . S
C156 H137 0.929 . S
C156 C153 1.404 . S
C156 N154 1.334 . S
C157 H149 0.930 . S
C157 C152 1.418 . S
C157 C153 1.353 . S
C158 H128 0.930 . S
C158 N159 1.330 . S
C158 C160 1.446 . S
N159 Co118 2.151 . S
N159 C158 1.330 . S
N159 C163 1.418 . S
C160 H139 0.929 . S
C160 C158 1.446 . S
C160 C161 1.332 . S
C161 H141 0.931 . S
C161 C160 1.332 . S
C161 C162 1.267 . S
C162 H130 0.929 . S
C162 C161 1.267 . S
C162 C163 1.251 . S
C163 H133 0.929 . S
C163 N159 1.418 . S
C163 C162 1.251 . S
C164 H131 0.930 . S
C164 C166 1.406 . S
C164 C169 1.261 . S
C165 H132 0.930 . S
C165 N167 1.325 . S
C165 C168 1.357 . S
C166 H134 0.928 . S
C166 C164 1.406 . S
C166 N167 1.261 . S
N167 Co118 2.214 . S
N167 C165 1.325 . S
N167 C166 1.261 . S
C168 H138 0.931 . S
C168 C165 1.357 . S
C168 C169 1.312 . S
C169 H140 0.930 . S
C169 C164 1.261 . S
C169 C168 1.312 . S
C170 O142 1.214 . S
C170 O150 1.234 . S
C171 H143 0.894 1_556 S
C171 C174 1.380 1_556 S
C171 C176 1.439 . S
C172 H144 0.929 . S
C172 C173 1.390 . S
C172 N175 1.391 . S
C173 H145 0.930 . S
C173 C172 1.390 . S
C173 C174 1.392 1_556 S
C174 H146 0.929 . S
C174 C171 1.380 1_554 S
C174 C173 1.392 1_554 S
N175 Co119 2.257 . S
N175 C172 1.391 . S
N175 C176 1.388 . S
C176 H147 0.930 . S
C176 C171 1.439 . S
C176 N175 1.388 . S
Co177 O179 2.143 . S
Co177 O185 2.074 . S
Co177 O188 2.093 . S
Co177 O201 2.097 . S
Co177 N218 2.151 . S
Co177 N226 2.214 . S
Co178 O179 2.160 . S
Co178 O184 2.058 . S
Co178 O194 2.057 . S
Co178 O209 2.037 . S
Co178 N213 2.145 . S
Co178 N234 2.257 . S
O179 Co177 2.143 . S
O179 Co178 2.160 . S
C180 O181 1.278 . S
C180 O188 1.224 . S
O181 C180 1.278 . S
C182 O183 1.245 . S
C182 O194 1.232 . S
O183 C182 1.245 . S
O184 Co178 2.058 . S
O184 C210 1.269 . S
O185 Co177 2.074 . S
O185 C210 1.257 . S
H186 C211 0.930 . S
H187 C217 0.930 . S
O188 Co177 2.093 . S
O188 C180 1.224 . S
H189 C221 0.929 . S
H190 C223 0.930 . S
H191 C224 0.930 . S
H192 C222 0.929 . S
H193 C225 0.928 . S
O194 Co178 2.057 . S
O194 C182 1.232 . S
H195 C214 0.929 . S
H196 C215 0.929 . S
H197 C227 0.931 . S
H198 C219 0.929 . S
H199 C228 0.930 . S
H200 C220 0.931 . S
O201 Co177 2.097 . S
O201 C229 1.214 . S
H202 C230 0.929 . S
H203 C231 0.929 . S
H204 C232 0.930 . S
H205 C233 0.929 . S
H206 C235 0.930 . S
H207 C212 0.930 . S
H208 C216 0.930 . S
O209 Co178 2.037 . S
O209 C229 1.234 . S
C210 O184 1.269 . S
C210 O185 1.257 . S
C211 H186 0.930 . S
C211 C214 1.388 . S
C211 C216 1.418 . S
C212 H207 0.930 . S
C212 C215 1.404 . S
C212 C216 1.353 . S
N213 Co178 2.145 . S
N213 C214 1.397 . S
N213 C215 1.334 . S
C214 H195 0.929 . S
C214 C211 1.388 . S
C214 N213 1.397 . S
C215 H196 0.929 . S
C215 C212 1.404 . S
C215 N213 1.334 . S
C216 H208 0.930 . S
C216 C211 1.418 . S
C216 C212 1.353 . S
C217 H187 0.930 . S
C217 N218 1.330 . S
C217 C219 1.446 . S
N218 Co177 2.151 . S
N218 C217 1.330 . S
N218 C222 1.418 . S
C219 H198 0.929 . S
C219 C217 1.446 . S
C219 C220 1.332 . S
C220 H200 0.931 . S
C220 C219 1.332 . S
C220 C221 1.267 . S
C221 H189 0.929 . S
C221 C220 1.267 . S
C221 C222 1.251 . S
C222 H192 0.929 . S
C222 N218 1.418 . S
C222 C221 1.251 . S
C223 H190 0.930 . S
C223 C225 1.406 . S
C223 C228 1.261 . S
C224 H191 0.930 . S
C224 N226 1.325 . S
C224 C227 1.357 . S
C225 H193 0.928 . S
C225 C223 1.406 . S
C225 N226 1.261 . S
N226 Co177 2.214 . S
N226 C224 1.325 . S
N226 C225 1.261 . S
C227 H197 0.931 . S
C227 C224 1.357 . S
C227 C228 1.312 . S
C228 H199 0.930 . S
C228 C223 1.261 . S
C228 C227 1.312 . S
C229 O201 1.214 . S
C229 O209 1.234 . S
C230 H202 0.929 . S
C230 C233 1.391 . S
C230 C235 1.391 . S
C231 H203 0.929 . S
C231 C232 1.390 . S
C231 N234 1.391 . S
C232 H204 0.930 . S
C232 C231 1.390 . S
C232 C233 1.392 . S
C233 H205 0.929 . S
C233 C230 1.391 . S
C233 C232 1.392 . S
N234 Co178 2.257 . S
N234 C231 1.391 . S
N234 C235 1.388 . S
C235 H206 0.930 . S
C235 C230 1.391 . S
C235 N234 1.388 . S
Co236 O238 2.143 . S
Co236 O244 2.074 . S
Co236 O247 2.093 . S
Co236 O260 2.097 . S
Co236 N277 2.151 . S
Co236 N285 2.214 . S
Co237 O238 2.160 . S
Co237 O243 2.058 . S
Co237 O253 2.057 . S
Co237 O268 2.037 . S
Co237 N272 2.145 . S
Co237 N293 2.257 . S
O238 Co236 2.143 . S
O238 Co237 2.160 . S
C239 O240 1.278 . S
C239 O247 1.224 . S
O240 C239 1.278 . S
C241 O242 1.245 . S
C241 O253 1.232 . S
O242 C241 1.245 . S
O243 Co237 2.058 . S
O243 C269 1.269 . S
O244 Co236 2.074 . S
O244 C269 1.257 . S
H245 C270 0.930 . S
H246 C276 0.930 . S
O247 Co236 2.093 . S
O247 C239 1.224 . S
H248 C280 0.929 . S
H249 C282 0.930 . S
H250 C283 0.930 . S
H251 C281 0.929 . S
H252 C284 0.928 . S
O253 Co237 2.057 . S
O253 C241 1.232 . S
H254 C273 0.929 . S
H255 C274 0.929 . S
H256 C286 0.931 . S
H257 C278 0.929 . S
H258 C287 0.930 . S
H259 C279 0.931 . S
O260 Co236 2.097 . S
O260 C288 1.214 . S
H261 C289 0.929 . S
H262 C290 0.929 . S
H263 C291 0.930 . S
H264 C292 0.929 . S
H265 C294 0.930 . S
H266 C271 0.930 . S
H267 C275 0.930 . S
O268 Co237 2.037 . S
O268 C288 1.234 . S
C269 O243 1.269 . S
C269 O244 1.257 . S
C270 H245 0.930 . S
C270 C273 1.388 1_554 S
C270 C275 1.418 . S
C271 H266 0.930 . S
C271 C274 1.404 1_554 S
C271 C275 1.353 . S
N272 Co237 2.145 . S
N272 C273 1.397 . S
N272 C274 1.334 . S
C273 H254 0.929 . S
C273 C270 1.388 1_556 S
C273 N272 1.397 . S
C274 H255 0.929 . S
C274 C271 1.404 1_556 S
C274 N272 1.334 . S
C275 H267 0.930 . S
C275 C270 1.418 . S
C275 C271 1.353 . S
C276 H246 0.930 . S
C276 N277 1.330 . S
C276 C278 1.446 . S
N277 Co236 2.151 . S
N277 C276 1.330 . S
N277 C281 1.418 . S
C278 H257 0.929 . S
C278 C276 1.446 . S
C278 C279 1.332 . S
C279 H259 0.931 . S
C279 C278 1.332 . S
C279 C280 1.267 . S
C280 H248 0.929 . S
C280 C279 1.267 . S
C280 C281 1.251 . S
C281 H251 0.929 . S
C281 N277 1.418 . S
C281 C280 1.251 . S
C282 H249 0.930 . S
C282 C284 1.406 . S
C282 C287 1.261 . S
C283 H250 0.930 . S
C283 N285 1.325 . S
C283 C286 1.357 . S
C284 H252 0.928 . S
C284 C282 1.406 . S
C284 N285 1.261 . S
N285 Co236 2.214 . S
N285 C283 1.325 . S
N285 C284 1.261 . S
C286 H256 0.931 . S
C286 C283 1.357 . S
C286 C287 1.312 . S
C287 H258 0.930 . S
C287 C282 1.261 . S
C287 C286 1.312 . S
C288 O260 1.214 . S
C288 O268 1.234 . S
C289 H261 0.929 . S
C289 C292 1.391 . S
C289 C294 1.391 . S
C290 H262 0.929 . S
C290 C291 1.390 . S
C290 N293 1.391 . S
C291 H263 0.930 . S
C291 C290 1.390 . S
C291 C292 1.392 . S
C292 H264 0.929 . S
C292 C289 1.391 . S
C292 C291 1.392 . S
N293 Co237 2.257 . S
N293 C290 1.391 . S
N293 C294 1.388 . S
C294 H265 0.930 . S
C294 C289 1.391 . S
C294 N293 1.388 . S
Co295 O297 2.143 . S
Co295 O303 2.074 . S
Co295 O306 2.093 . S
Co295 O319 2.097 . S
Co295 N336 2.151 . S
Co295 N344 2.214 . S
Co296 O297 2.160 . S
Co296 O302 2.058 . S
Co296 O312 2.057 . S
Co296 O327 2.037 . S
Co296 N331 2.145 . S
Co296 N352 2.257 . S
O297 Co295 2.143 . S
O297 Co296 2.160 . S
C298 O299 1.278 . S
C298 O306 1.224 . S
O299 C298 1.278 . S
C300 O301 1.245 . S
C300 O312 1.232 . S
O301 C300 1.245 . S
O302 Co296 2.058 . S
O302 C328 1.269 . S
O303 Co295 2.074 . S
O303 C328 1.257 . S
H304 C329 0.930 . S
H305 C335 0.930 . S
O306 Co295 2.093 . S
O306 C298 1.224 . S
H307 C339 0.929 . S
H308 C341 0.930 . S
H309 C342 0.930 . S
H310 C340 0.929 . S
H311 C343 0.928 . S
O312 Co296 2.057 . S
O312 C300 1.232 . S
H313 C332 0.929 . S
H314 C333 0.929 . S
H315 C345 0.931 . S
H316 C337 0.929 . S
H317 C346 0.930 . S
H318 C338 0.931 . S
O319 Co295 2.097 . S
O319 C347 1.214 . S
H320 C348 0.929 . S
H321 C349 0.929 . S
H322 C350 0.930 . S
H323 C351 0.929 . S
H324 C353 0.930 . S
H325 C330 0.930 . S
H326 C334 0.930 . S
O327 Co296 2.037 . S
O327 C347 1.234 . S
C328 O302 1.269 . S
C328 O303 1.257 . S
C329 H304 0.930 . S
C329 C332 1.388 . S
C329 C334 1.418 . S
C330 H325 0.930 . S
C330 C333 1.404 . S
C330 C334 1.353 . S
N331 Co296 2.145 . S
N331 C332 1.397 . S
N331 C333 1.334 . S
C332 H313 0.929 . S
C332 C329 1.388 . S
C332 N331 1.397 . S
C333 H314 0.929 . S
C333 C330 1.404 . S
C333 N331 1.334 . S
C334 H326 0.930 . S
C334 C329 1.418 . S
C334 C330 1.353 . S
C335 H305 0.930 . S
C335 N336 1.330 . S
C335 C337 1.446 . S
N336 Co295 2.151 . S
N336 C335 1.330 . S
N336 C340 1.418 . S
C337 H316 0.929 . S
C337 C335 1.446 . S
C337 C338 1.332 . S
C338 H318 0.931 . S
C338 C337 1.332 . S
C338 C339 1.267 . S
C339 H307 0.929 . S
C339 C338 1.267 . S
C339 C340 1.251 . S
C340 H310 0.929 . S
C340 N336 1.418 . S
C340 C339 1.251 . S
C341 H308 0.930 . S
C341 C343 1.406 . S
C341 C346 1.261 . S
C342 H309 0.930 . S
C342 N344 1.325 . S
C342 C345 1.357 . S
C343 H311 0.928 . S
C343 C341 1.406 . S
C343 N344 1.261 . S
N344 Co295 2.214 . S
N344 C342 1.325 . S
N344 C343 1.261 . S
C345 H315 0.931 . S
C345 C342 1.357 . S
C345 C346 1.312 . S
C346 H317 0.930 . S
C346 C341 1.261 . S
C346 C345 1.312 . S
C347 O319 1.214 . S
C347 O327 1.234 . S
C348 H320 0.929 . S
C348 C351 1.391 . S
C348 C353 1.391 . S
C349 H321 0.929 . S
C349 C350 1.390 . S
C349 N352 1.391 . S
C350 H322 0.930 . S
C350 C349 1.390 . S
C350 C351 1.392 . S
C351 H323 0.929 . S
C351 C348 1.391 . S
C351 C350 1.392 . S
N352 Co296 2.257 . S
N352 C349 1.391 . S
N352 C353 1.388 . S
C353 H324 0.930 . S
C353 C348 1.391 . S
C353 N352 1.388 . S
Co354 O356 2.143 . S
Co354 O362 2.074 . S
Co354 O365 2.093 . S
Co354 O378 2.097 . S
Co354 N395 2.151 . S
Co354 N403 2.214 . S
Co355 O356 2.160 . S
Co355 O361 2.058 . S
Co355 O371 2.057 . S
Co355 O386 2.037 . S
Co355 N390 2.145 . S
Co355 N411 2.257 . S
O356 Co354 2.143 . S
O356 Co355 2.160 . S
C357 O358 1.278 . S
C357 O365 1.224 . S
O358 C357 1.278 . S
C359 O360 1.245 . S
C359 O371 1.232 . S
O360 C359 1.245 . S
O361 Co355 2.058 . S
O361 C387 1.269 . S
O362 Co354 2.074 . S
O362 C387 1.257 . S
H363 C388 0.930 . S
H364 C394 0.930 . S
O365 Co354 2.093 . S
O365 C357 1.224 . S
H366 C398 0.929 . S
H367 C400 0.930 . S
H368 C401 0.930 . S
H369 C399 0.929 . S
H370 C402 0.928 . S
O371 Co355 2.057 . S
O371 C359 1.232 . S
H372 C391 0.929 . S
H373 C392 0.929 . S
H374 C404 0.931 . S
H375 C396 0.929 . S
H376 C405 0.930 . S
H377 C397 0.931 . S
O378 Co354 2.097 . S
O378 C406 1.214 . S
H379 C407 0.929 . S
H380 C408 0.929 . S
H381 C409 0.930 . S
H382 C410 0.929 . S
H383 C412 0.930 . S
H384 C389 0.930 . S
H385 C393 0.930 . S
O386 Co355 2.037 . S
O386 C406 1.234 . S
C387 O361 1.269 . S
C387 O362 1.257 . S
C388 H363 0.930 . S
C388 C391 1.388 1_556 S
C388 C393 1.418 . S
C389 H384 0.930 . S
C389 C392 1.404 1_556 S
C389 C393 1.353 . S
N390 Co355 2.145 . S
N390 C391 1.397 . S
N390 C392 1.334 . S
C391 H372 0.929 . S
C391 C388 1.388 1_554 S
C391 N390 1.397 . S
C392 H373 0.929 . S
C392 C389 1.404 1_554 S
C392 N390 1.334 . S
C393 H385 0.930 . S
C393 C388 1.418 . S
C393 C389 1.353 . S
C394 H364 0.930 . S
C394 N395 1.330 . S
C394 C396 1.446 . S
N395 Co354 2.151 . S
N395 C394 1.330 . S
N395 C399 1.418 . S
C396 H375 0.929 . S
C396 C394 1.446 . S
C396 C397 1.332 . S
C397 H377 0.931 . S
C397 C396 1.332 . S
C397 C398 1.267 . S
C398 H366 0.929 . S
C398 C397 1.267 . S
C398 C399 1.251 . S
C399 H369 0.929 . S
C399 N395 1.418 . S
C399 C398 1.251 . S
C400 H367 0.930 . S
C400 C402 1.406 . S
C400 C405 1.261 . S
C401 H368 0.930 . S
C401 N403 1.325 . S
C401 C404 1.357 . S
C402 H370 0.928 . S
C402 C400 1.406 . S
C402 N403 1.261 . S
N403 Co354 2.214 . S
N403 C401 1.325 . S
N403 C402 1.261 . S
C404 H374 0.931 . S
C404 C401 1.357 . S
C404 C405 1.312 . S
C405 H376 0.930 . S
C405 C400 1.261 . S
C405 C404 1.312 . S
C406 O378 1.214 . S
C406 O386 1.234 . S
C407 H379 0.929 . S
C407 C410 1.391 . S
C407 C412 1.391 . S
C408 H380 0.929 . S
C408 C409 1.390 . S
C408 N411 1.391 . S
C409 H381 0.930 . S
C409 C408 1.390 . S
C409 C410 1.392 . S
C410 H382 0.929 . S
C410 C407 1.391 . S
C410 C409 1.392 . S
N411 Co355 2.257 . S
N411 C408 1.391 . S
N411 C412 1.388 . S
C412 H383 0.930 . S
C412 C407 1.391 . S
C412 N411 1.388 . S
Co413 O415 2.143 . S
Co413 O421 2.074 . S
Co413 O424 2.093 . S
Co413 O437 2.097 . S
Co413 N454 2.151 . S
Co413 N462 2.214 . S
Co414 O415 2.160 . S
Co414 O420 2.058 . S
Co414 O430 2.057 . S
Co414 O445 2.037 . S
Co414 N449 2.145 . S
Co414 N470 2.257 . S
O415 Co413 2.143 . S
O415 Co414 2.160 . S
C416 O417 1.278 . S
C416 O424 1.224 . S
O417 C416 1.278 . S
C418 O419 1.245 . S
C418 O430 1.232 . S
O419 C418 1.245 . S
O420 Co414 2.058 . S
O420 C446 1.269 . S
O421 Co413 2.074 . S
O421 C446 1.257 . S
H422 C447 0.930 . S
H423 C453 0.930 . S
O424 Co413 2.093 . S
O424 C416 1.224 . S
H425 C457 0.929 . S
H426 C459 0.930 . S
H427 C460 0.930 . S
H428 C458 0.929 . S
H429 C461 0.928 . S
O430 Co414 2.057 . S
O430 C418 1.232 . S
H431 C450 0.929 . S
H432 C451 0.929 . S
H433 C463 0.931 . S
H434 C455 0.929 . S
H435 C464 0.930 . S
H436 C456 0.931 . S
O437 Co413 2.097 . S
O437 C465 1.214 . S
H438 C466 0.929 . S
H439 C467 0.929 . S
H440 C468 0.930 . S
H441 C469 0.929 . S
H442 C471 0.930 . S
H443 C448 0.930 . S
H444 C452 0.930 . S
O445 Co414 2.037 . S
O445 C465 1.234 . S
C446 O420 1.269 . S
C446 O421 1.257 . S
C447 H422 0.930 . S
C447 C450 1.388 . S
C447 C452 1.418 . S
C448 H443 0.930 . S
C448 C451 1.404 . S
C448 C452 1.353 . S
N449 Co414 2.145 . S
N449 C450 1.397 . S
N449 C451 1.334 . S
C450 H431 0.929 . S
C450 C447 1.388 . S
C450 N449 1.397 . S
C451 H432 0.929 . S
C451 C448 1.404 . S
C451 N449 1.334 . S
C452 H444 0.930 . S
C452 C447 1.418 . S
C452 C448 1.353 . S
C453 H423 0.930 . S
C453 N454 1.330 . S
C453 C455 1.446 . S
N454 Co413 2.151 . S
N454 C453 1.330 . S
N454 C458 1.418 . S
C455 H434 0.929 . S
C455 C453 1.446 . S
C455 C456 1.332 . S
C456 H436 0.931 . S
C456 C455 1.332 . S
C456 C457 1.267 . S
C457 H425 0.929 . S
C457 C456 1.267 . S
C457 C458 1.251 . S
C458 H428 0.929 . S
C458 N454 1.418 . S
C458 C457 1.251 . S
C459 H426 0.930 . S
C459 C461 1.406 . S
C459 C464 1.261 . S
C460 H427 0.930 . S
C460 N462 1.325 . S
C460 C463 1.357 . S
C461 H429 0.928 . S
C461 C459 1.406 . S
C461 N462 1.261 . S
N462 Co413 2.214 . S
N462 C460 1.325 . S
N462 C461 1.261 . S
C463 H433 0.931 . S
C463 C460 1.357 . S
C463 C464 1.312 . S
C464 H435 0.930 . S
C464 C459 1.261 . S
C464 C463 1.312 . S
C465 O437 1.214 . S
C465 O445 1.234 . S
C466 H438 0.929 . S
C466 C469 1.391 . S
C466 C471 1.391 . S
C467 H439 0.929 . S
C467 C468 1.390 . S
C467 N470 1.391 . S
C468 H440 0.930 . S
C468 C467 1.390 . S
C468 C469 1.392 . S
C469 H441 0.929 . S
C469 C466 1.391 . S
C469 C468 1.392 . S
N470 Co414 2.257 . S
N470 C467 1.391 . S
N470 C471 1.388 . S
C471 H442 0.930 . S
C471 C466 1.391 . S
C471 N470 1.388 . S
Co472 O474 2.143 . S
Co472 O480 2.074 . S
Co472 O483 2.093 . S
Co472 O496 2.097 . S
Co472 N513 2.151 . S
Co472 N521 2.214 . S
Co473 O474 2.160 . S
Co473 O479 2.058 . S
Co473 O489 2.057 . S
Co473 O504 2.037 . S
Co473 N508 2.145 . S
Co473 N529 2.257 . S
O474 Co472 2.143 . S
O474 Co473 2.160 . S
C475 O476 1.278 . S
C475 O483 1.224 . S
O476 C475 1.278 . S
C477 O478 1.245 . S
C477 O489 1.232 . S
O478 C477 1.245 . S
O479 Co473 2.058 . S
O479 C505 1.269 . S
O480 Co472 2.074 . S
O480 C505 1.257 . S
H481 C506 0.930 . S
H482 C512 0.930 . S
O483 Co472 2.093 . S
O483 C475 1.224 . S
H484 C516 0.929 . S
H485 C518 0.930 . S
H486 C519 0.930 . S
H487 C517 0.929 . S
H488 C520 0.928 . S
O489 Co473 2.057 . S
O489 C477 1.232 . S
H490 C509 0.929 . S
H491 C510 0.929 . S
H492 C522 0.931 . S
H493 C514 0.929 . S
H494 C523 0.930 . S
H495 C515 0.931 . S
O496 Co472 2.097 . S
O496 C524 1.214 . S
H497 C525 0.894 1_556 S
H498 C526 0.929 . S
H499 C527 0.930 . S
H500 C528 0.929 . S
H501 C530 0.930 . S
H502 C507 0.930 . S
H503 C511 0.930 . S
O504 Co473 2.037 . S
O504 C524 1.234 . S
C505 O479 1.269 . S
C505 O480 1.257 . S
C506 H481 0.930 . S
C506 C509 1.388 . S
C506 C511 1.418 . S
C507 H502 0.930 . S
C507 C510 1.404 . S
C507 C511 1.353 . S
N508 Co473 2.145 . S
N508 C509 1.397 . S
N508 C510 1.334 . S
C509 H490 0.929 . S
C509 C506 1.388 . S
C509 N508 1.397 . S
C510 H491 0.929 . S
C510 C507 1.404 . S
C510 N508 1.334 . S
C511 H503 0.930 . S
C511 C506 1.418 . S
C511 C507 1.353 . S
C512 H482 0.930 . S
C512 N513 1.330 . S
C512 C514 1.446 . S
N513 Co472 2.151 . S
N513 C512 1.330 . S
N513 C517 1.418 . S
C514 H493 0.929 . S
C514 C512 1.446 . S
C514 C515 1.332 . S
C515 H495 0.931 . S
C515 C514 1.332 . S
C515 C516 1.267 . S
C516 H484 0.929 . S
C516 C515 1.267 . S
C516 C517 1.251 . S
C517 H487 0.929 . S
C517 N513 1.418 . S
C517 C516 1.251 . S
C518 H485 0.930 . S
C518 C520 1.406 . S
C518 C523 1.261 . S
C519 H486 0.930 . S
C519 N521 1.325 . S
C519 C522 1.357 . S
C520 H488 0.928 . S
C520 C518 1.406 . S
C520 N521 1.261 . S
N521 Co472 2.214 . S
N521 C519 1.325 . S
N521 C520 1.261 . S
C522 H492 0.931 . S
C522 C519 1.357 . S
C522 C523 1.312 . S
C523 H494 0.930 . S
C523 C518 1.261 . S
C523 C522 1.312 . S
C524 O496 1.214 . S
C524 O504 1.234 . S
C525 H497 0.894 1_554 S
C525 C528 1.380 1_554 S
C525 C530 1.439 . S
C526 H498 0.929 . S
C526 C527 1.390 . S
C526 N529 1.391 . S
C527 H499 0.930 . S
C527 C526 1.390 . S
C527 C528 1.392 1_554 S
C528 H500 0.929 . S
C528 C525 1.380 1_556 S
C528 C527 1.392 1_556 S
N529 Co473 2.257 . S
N529 C526 1.391 . S
N529 C530 1.388 . S
C530 H501 0.930 . S
C530 C525 1.439 . S
C530 N529 1.388 . S
Co531 O533 2.143 . S
Co531 O539 2.074 . S
Co531 O542 2.093 . S
Co531 O555 2.097 . S
Co531 N572 2.151 . S
Co531 N580 2.214 . S
Co532 O533 2.160 . S
Co532 O538 2.058 . S
Co532 O548 2.057 . S
Co532 O563 2.037 . S
Co532 N567 2.145 . S
Co532 N588 2.257 . S
O533 Co531 2.143 . S
O533 Co532 2.160 . S
C534 O535 1.278 . S
C534 O542 1.224 . S
O535 C534 1.278 . S
C536 O537 1.245 . S
C536 O548 1.232 . S
O537 C536 1.245 . S
O538 Co532 2.058 . S
O538 C564 1.269 . S
O539 Co531 2.074 . S
O539 C564 1.257 . S
H540 C565 0.930 . S
H541 C571 0.930 . S
O542 Co531 2.093 . S
O542 C534 1.224 . S
H543 C575 0.929 . S
H544 C577 0.930 . S
H545 C578 0.930 . S
H546 C576 0.929 . S
H547 C579 0.928 . S
O548 Co532 2.057 . S
O548 C536 1.232 . S
H549 C568 0.929 . S
H550 C569 0.929 . S
H551 C581 0.931 . S
H552 C573 0.929 . S
H553 C582 0.930 . S
H554 C574 0.931 . S
O555 Co531 2.097 . S
O555 C583 1.214 . S
H556 C584 0.929 . S
H557 C585 0.929 . S
H558 C586 0.930 . S
H559 C587 0.929 . S
H560 C589 0.930 . S
H561 C566 0.930 . S
H562 C570 0.930 . S
O563 Co532 2.037 . S
O563 C583 1.234 . S
C564 O538 1.269 . S
C564 O539 1.257 . S
C565 H540 0.930 . S
C565 C568 1.388 . S
C565 C570 1.418 . S
C566 H561 0.930 . S
C566 C569 1.404 . S
C566 C570 1.353 . S
N567 Co532 2.145 . S
N567 C568 1.397 . S
N567 C569 1.334 . S
C568 H549 0.929 . S
C568 C565 1.388 . S
C568 N567 1.397 . S
C569 H550 0.929 . S
C569 C566 1.404 . S
C569 N567 1.334 . S
C570 H562 0.930 . S
C570 C565 1.418 . S
C570 C566 1.353 . S
C571 H541 0.930 . S
C571 N572 1.330 . S
C571 C573 1.446 . S
N572 Co531 2.151 . S
N572 C571 1.330 . S
N572 C576 1.418 . S
C573 H552 0.929 . S
C573 C571 1.446 . S
C573 C574 1.332 . S
C574 H554 0.931 . S
C574 C573 1.332 . S
C574 C575 1.267 . S
C575 H543 0.929 . S
C575 C574 1.267 . S
C575 C576 1.251 . S
C576 H546 0.929 . S
C576 N572 1.418 . S
C576 C575 1.251 . S
C577 H544 0.930 . S
C577 C579 1.406 . S
C577 C582 1.261 . S
C578 H545 0.930 . S
C578 N580 1.325 . S
C578 C581 1.357 . S
C579 H547 0.928 . S
C579 C577 1.406 . S
C579 N580 1.261 . S
N580 Co531 2.214 . S
N580 C578 1.325 . S
N580 C579 1.261 . S
C581 H551 0.931 . S
C581 C578 1.357 . S
C581 C582 1.312 . S
C582 H553 0.930 . S
C582 C577 1.261 . S
C582 C581 1.312 . S
C583 O555 1.214 . S
C583 O563 1.234 . S
C584 H556 0.929 . S
C584 C587 1.391 . S
C584 C589 1.391 . S
C585 H557 0.929 . S
C585 C586 1.390 . S
C585 N588 1.391 . S
C586 H558 0.930 . S
C586 C585 1.390 . S
C586 C587 1.392 . S
C587 H559 0.929 . S
C587 C584 1.391 . S
C587 C586 1.392 . S
N588 Co532 2.257 . S
N588 C585 1.391 . S
N588 C589 1.388 . S
C589 H560 0.930 . S
C589 C584 1.391 . S
C589 N588 1.388 . S
Co590 O592 2.143 . S
Co590 O598 2.074 . S
Co590 O601 2.093 . S
Co590 O614 2.097 . S
Co590 N631 2.151 . S
Co590 N639 2.214 . S
Co591 O592 2.160 . S
Co591 O597 2.058 . S
Co591 O607 2.057 . S
Co591 O622 2.037 . S
Co591 N626 2.145 . S
Co591 N647 2.257 . S
O592 Co590 2.143 . S
O592 Co591 2.160 . S
C593 O594 1.278 . S
C593 O601 1.224 . S
O594 C593 1.278 . S
C595 O596 1.245 . S
C595 O607 1.232 . S
O596 C595 1.245 . S
O597 Co591 2.058 . S
O597 C623 1.269 . S
O598 Co590 2.074 . S
O598 C623 1.257 . S
H599 C624 0.930 . S
H600 C630 0.930 . S
O601 Co590 2.093 . S
O601 C593 1.224 . S
H602 C634 0.929 . S
H603 C636 0.930 . S
H604 C637 0.930 . S
H605 C635 0.929 . S
H606 C638 0.928 . S
O607 Co591 2.057 . S
O607 C595 1.232 . S
H608 C627 0.929 . S
H609 C628 0.929 . S
H610 C640 0.931 . S
H611 C632 0.929 . S
H612 C641 0.930 . S
H613 C633 0.931 . S
O614 Co590 2.097 . S
O614 C642 1.214 . S
H615 C643 0.894 1_554 S
H616 C644 0.929 . S
H617 C645 0.930 . S
H618 C646 0.929 . S
H619 C648 0.930 . S
H620 C625 0.930 . S
H621 C629 0.930 . S
O622 Co591 2.037 . S
O622 C642 1.234 . S
C623 O597 1.269 . S
C623 O598 1.257 . S
C624 H599 0.930 . S
C624 C627 1.388 . S
C624 C629 1.418 . S
C625 H620 0.930 . S
C625 C628 1.404 . S
C625 C629 1.353 . S
N626 Co591 2.145 . S
N626 C627 1.397 . S
N626 C628 1.334 . S
C627 H608 0.929 . S
C627 C624 1.388 . S
C627 N626 1.397 . S
C628 H609 0.929 . S
C628 C625 1.404 . S
C628 N626 1.334 . S
C629 H621 0.930 . S
C629 C624 1.418 . S
C629 C625 1.353 . S
C630 H600 0.930 . S
C630 N631 1.330 . S
C630 C632 1.446 . S
N631 Co590 2.151 . S
N631 C630 1.330 . S
N631 C635 1.418 . S
C632 H611 0.929 . S
C632 C630 1.446 . S
C632 C633 1.332 . S
C633 H613 0.931 . S
C633 C632 1.332 . S
C633 C634 1.267 . S
C634 H602 0.929 . S
C634 C633 1.267 . S
C634 C635 1.251 . S
C635 H605 0.929 . S
C635 N631 1.418 . S
C635 C634 1.251 . S
C636 H603 0.930 . S
C636 C638 1.406 . S
C636 C641 1.261 . S
C637 H604 0.930 . S
C637 N639 1.325 . S
C637 C640 1.357 . S
C638 H606 0.928 . S
C638 C636 1.406 . S
C638 N639 1.261 . S
N639 Co590 2.214 . S
N639 C637 1.325 . S
N639 C638 1.261 . S
C640 H610 0.931 . S
C640 C637 1.357 . S
C640 C641 1.312 . S
C641 H612 0.930 . S
C641 C636 1.261 . S
C641 C640 1.312 . S
C642 O614 1.214 . S
C642 O622 1.234 . S
C643 H615 0.894 1_556 S
C643 C646 1.380 1_556 S
C643 C648 1.439 . S
C644 H616 0.929 . S
C644 C645 1.390 . S
C644 N647 1.391 . S
C645 H617 0.930 . S
C645 C644 1.390 . S
C645 C646 1.392 1_556 S
C646 H618 0.929 . S
C646 C643 1.380 1_554 S
C646 C645 1.392 1_554 S
N647 Co591 2.257 . S
N647 C644 1.391 . S
N647 C648 1.388 . S
C648 H619 0.930 . S
C648 C643 1.439 . S
C648 N647 1.388 . S
Co649 O651 2.143 . S
Co649 O657 2.074 . S
Co649 O660 2.093 . S
Co649 O673 2.097 . S
Co649 N690 2.151 . S
Co649 N698 2.214 . S
Co650 O651 2.160 . S
Co650 O656 2.058 . S
Co650 O666 2.057 . S
Co650 O681 2.037 . S
Co650 N685 2.145 . S
Co650 N706 2.257 . S
O651 Co649 2.143 . S
O651 Co650 2.160 . S
C652 O653 1.278 . S
C652 O660 1.224 . S
O653 C652 1.278 . S
C654 O655 1.245 . S
C654 O666 1.232 . S
O655 C654 1.245 . S
O656 Co650 2.058 . S
O656 C682 1.269 . S
O657 Co649 2.074 . S
O657 C682 1.257 . S
H658 C683 0.930 . S
H659 C689 0.930 . S
O660 Co649 2.093 . S
O660 C652 1.224 . S
H661 C693 0.929 . S
H662 C695 0.930 . S
H663 C696 0.930 . S
H664 C694 0.929 . S
H665 C697 0.928 . S
O666 Co650 2.057 . S
O666 C654 1.232 . S
H667 C686 0.929 . S
H668 C687 0.929 . S
H669 C699 0.931 . S
H670 C691 0.929 . S
H671 C700 0.930 . S
H672 C692 0.931 . S
O673 Co649 2.097 . S
O673 C701 1.214 . S
H674 C702 0.929 . S
H675 C703 0.929 . S
H676 C704 0.930 . S
H677 C705 0.929 . S
H678 C707 0.930 . S
H679 C684 0.930 . S
H680 C688 0.930 . S
O681 Co650 2.037 . S
O681 C701 1.234 . S
C682 O656 1.269 . S
C682 O657 1.257 . S
C683 H658 0.930 . S
C683 C686 1.388 . S
C683 C688 1.418 . S
C684 H679 0.930 . S
C684 C687 1.404 . S
C684 C688 1.353 . S
N685 Co650 2.145 . S
N685 C686 1.397 . S
N685 C687 1.334 . S
C686 H667 0.929 . S
C686 C683 1.388 . S
C686 N685 1.397 . S
C687 H668 0.929 . S
C687 C684 1.404 . S
C687 N685 1.334 . S
C688 H680 0.930 . S
C688 C683 1.418 . S
C688 C684 1.353 . S
C689 H659 0.930 . S
C689 N690 1.330 . S
C689 C691 1.446 . S
N690 Co649 2.151 . S
N690 C689 1.330 . S
N690 C694 1.418 . S
C691 H670 0.929 . S
C691 C689 1.446 . S
C691 C692 1.332 . S
C692 H672 0.931 . S
C692 C691 1.332 . S
C692 C693 1.267 . S
C693 H661 0.929 . S
C693 C692 1.267 . S
C693 C694 1.251 . S
C694 H664 0.929 . S
C694 N690 1.418 . S
C694 C693 1.251 . S
C695 H662 0.930 . S
C695 C697 1.406 . S
C695 C700 1.261 . S
C696 H663 0.930 . S
C696 N698 1.325 . S
C696 C699 1.357 . S
C697 H665 0.928 . S
C697 C695 1.406 . S
C697 N698 1.261 . S
N698 Co649 2.214 . S
N698 C696 1.325 . S
N698 C697 1.261 . S
C699 H669 0.931 . S
C699 C696 1.357 . S
C699 C700 1.312 . S
C700 H671 0.930 . S
C700 C695 1.261 . S
C700 C699 1.312 . S
C701 O673 1.214 . S
C701 O681 1.234 . S
C702 H674 0.929 . S
C702 C705 1.391 . S
C702 C707 1.391 . S
C703 H675 0.929 . S
C703 C704 1.390 . S
C703 N706 1.391 . S
C704 H676 0.930 . S
C704 C703 1.390 . S
C704 C705 1.392 . S
C705 H677 0.929 . S
C705 C702 1.391 . S
C705 C704 1.392 . S
N706 Co650 2.257 . S
N706 C703 1.391 . S
N706 C707 1.388 . S
C707 H678 0.930 . S
C707 C702 1.391 . S
C707 N706 1.388 . S
Co708 O710 2.143 . S
Co708 O716 2.074 . S
Co708 O719 2.093 . S
Co708 O732 2.097 . S
Co708 N749 2.151 . S
Co708 N757 2.214 . S
Co709 O710 2.160 . S
Co709 O715 2.058 . S
Co709 O725 2.057 . S
Co709 O740 2.037 . S
Co709 N744 2.145 . S
Co709 N765 2.257 . S
O710 Co708 2.143 . S
O710 Co709 2.160 . S
C711 O712 1.278 . S
C711 O719 1.224 . S
O712 C711 1.278 . S
C713 O714 1.245 . S
C713 O725 1.232 . S
O714 C713 1.245 . S
O715 Co709 2.058 . S
O715 C741 1.269 . S
O716 Co708 2.074 . S
O716 C741 1.257 . S
H717 C742 0.930 . S
H718 C748 0.930 . S
O719 Co708 2.093 . S
O719 C711 1.224 . S
H720 C752 0.929 . S
H721 C754 0.930 . S
H722 C755 0.930 . S
H723 C753 0.929 . S
H724 C756 0.928 . S
O725 Co709 2.057 . S
O725 C713 1.232 . S
H726 C745 0.929 . S
H727 C746 0.929 . S
H728 C758 0.931 . S
H729 C750 0.929 . S
H730 C759 0.930 . S
H731 C751 0.931 . S
O732 Co708 2.097 . S
O732 C760 1.214 . S
H733 C761 0.929 . S
H734 C762 0.929 . S
H735 C763 0.930 . S
H736 C764 0.929 . S
H737 C766 0.930 . S
H738 C743 0.930 . S
H739 C747 0.930 . S
O740 Co709 2.037 . S
O740 C760 1.234 . S
C741 O715 1.269 . S
C741 O716 1.257 . S
C742 H717 0.930 . S
C742 C745 1.388 1_554 S
C742 C747 1.418 . S
C743 H738 0.930 . S
C743 C746 1.404 1_554 S
C743 C747 1.353 . S
N744 Co709 2.145 . S
N744 C745 1.397 . S
N744 C746 1.334 . S
C745 H726 0.929 . S
C745 C742 1.388 1_556 S
C745 N744 1.397 . S
C746 H727 0.929 . S
C746 C743 1.404 1_556 S
C746 N744 1.334 . S
C747 H739 0.930 . S
C747 C742 1.418 . S
C747 C743 1.353 . S
C748 H718 0.930 . S
C748 N749 1.330 . S
C748 C750 1.446 . S
N749 Co708 2.151 . S
N749 C748 1.330 . S
N749 C753 1.418 . S
C750 H729 0.929 . S
C750 C748 1.446 . S
C750 C751 1.332 . S
C751 H731 0.931 . S
C751 C750 1.332 . S
C751 C752 1.267 . S
C752 H720 0.929 . S
C752 C751 1.267 . S
C752 C753 1.251 . S
C753 H723 0.929 . S
C753 N749 1.418 . S
C753 C752 1.251 . S
C754 H721 0.930 . S
C754 C756 1.406 . S
C754 C759 1.261 . S
C755 H722 0.930 . S
C755 N757 1.325 . S
C755 C758 1.357 . S
C756 H724 0.928 . S
C756 C754 1.406 . S
C756 N757 1.261 . S
N757 Co708 2.214 . S
N757 C755 1.325 . S
N757 C756 1.261 . S
C758 H728 0.931 . S
C758 C755 1.357 . S
C758 C759 1.312 . S
C759 H730 0.930 . S
C759 C754 1.261 . S
C759 C758 1.312 . S
C760 O732 1.214 . S
C760 O740 1.234 . S
C761 H733 0.929 . S
C761 C764 1.391 . S
C761 C766 1.391 . S
C762 H734 0.929 . S
C762 C763 1.390 . S
C762 N765 1.391 . S
C763 H735 0.930 . S
C763 C762 1.390 . S
C763 C764 1.392 . S
C764 H736 0.929 . S
C764 C761 1.391 . S
C764 C763 1.392 . S
N765 Co709 2.257 . S
N765 C762 1.391 . S
N765 C766 1.388 . S
C766 H737 0.930 . S
C766 C761 1.391 . S
C766 N765 1.388 . S
Co767 O769 2.143 . S
Co767 O775 2.074 . S
Co767 O778 2.093 . S
Co767 O791 2.097 . S
Co767 N808 2.151 . S
Co767 N816 2.214 . S
Co768 O769 2.160 . S
Co768 O774 2.058 . S
Co768 O784 2.057 . S
Co768 O799 2.037 . S
Co768 N803 2.145 . S
Co768 N824 2.257 . S
O769 Co767 2.143 . S
O769 Co768 2.160 . S
C770 O771 1.278 . S
C770 O778 1.224 . S
O771 C770 1.278 . S
C772 O773 1.245 . S
C772 O784 1.232 . S
O773 C772 1.245 . S
O774 Co768 2.058 . S
O774 C800 1.269 . S
O775 Co767 2.074 . S
O775 C800 1.257 . S
H776 C801 0.930 . S
H777 C807 0.930 . S
O778 Co767 2.093 . S
O778 C770 1.224 . S
H779 C811 0.929 . S
H780 C813 0.930 . S
H781 C814 0.930 . S
H782 C812 0.929 . S
H783 C815 0.928 . S
O784 Co768 2.057 . S
O784 C772 1.232 . S
H785 C804 0.929 . S
H786 C805 0.929 . S
H787 C817 0.931 . S
H788 C809 0.929 . S
H789 C818 0.930 . S
H790 C810 0.931 . S
O791 Co767 2.097 . S
O791 C819 1.214 . S
H792 C820 0.929 . S
H793 C821 0.929 . S
H794 C822 0.930 . S
H795 C823 0.929 . S
H796 C825 0.930 . S
H797 C802 0.930 . S
H798 C806 0.930 . S
O799 Co768 2.037 . S
O799 C819 1.234 . S
C800 O774 1.269 . S
C800 O775 1.257 . S
C801 H776 0.930 . S
C801 C804 1.388 . S
C801 C806 1.418 . S
C802 H797 0.930 . S
C802 C805 1.404 . S
C802 C806 1.353 . S
N803 Co768 2.145 . S
N803 C804 1.397 . S
N803 C805 1.334 . S
C804 H785 0.929 . S
C804 C801 1.388 . S
C804 N803 1.397 . S
C805 H786 0.929 . S
C805 C802 1.404 . S
C805 N803 1.334 . S
C806 H798 0.930 . S
C806 C801 1.418 . S
C806 C802 1.353 . S
C807 H777 0.930 . S
C807 N808 1.330 . S
C807 C809 1.446 . S
N808 Co767 2.151 . S
N808 C807 1.330 . S
N808 C812 1.418 . S
C809 H788 0.929 . S
C809 C807 1.446 . S
C809 C810 1.332 . S
C810 H790 0.931 . S
C810 C809 1.332 . S
C810 C811 1.267 . S
C811 H779 0.929 . S
C811 C810 1.267 . S
C811 C812 1.251 . S
C812 H782 0.929 . S
C812 N808 1.418 . S
C812 C811 1.251 . S
C813 H780 0.930 . S
C813 C815 1.406 . S
C813 C818 1.261 . S
C814 H781 0.930 . S
C814 N816 1.325 . S
C814 C817 1.357 . S
C815 H783 0.928 . S
C815 C813 1.406 . S
C815 N816 1.261 . S
N816 Co767 2.214 . S
N816 C814 1.325 . S
N816 C815 1.261 . S
C817 H787 0.931 . S
C817 C814 1.357 . S
C817 C818 1.312 . S
C818 H789 0.930 . S
C818 C813 1.261 . S
C818 C817 1.312 . S
C819 O791 1.214 . S
C819 O799 1.234 . S
C820 H792 0.929 . S
C820 C823 1.391 . S
C820 C825 1.391 . S
C821 H793 0.929 . S
C821 C822 1.390 . S
C821 N824 1.391 . S
C822 H794 0.930 . S
C822 C821 1.390 . S
C822 C823 1.392 . S
C823 H795 0.929 . S
C823 C820 1.391 . S
C823 C822 1.392 . S
N824 Co768 2.257 . S
N824 C821 1.391 . S
N824 C825 1.388 . S
C825 H796 0.930 . S
C825 C820 1.391 . S
C825 N824 1.388 . S
Co826 O828 2.143 . S
Co826 O834 2.074 . S
Co826 O837 2.093 . S
Co826 O850 2.097 . S
Co826 N867 2.151 . S
Co826 N875 2.214 . S
Co827 O828 2.160 . S
Co827 O833 2.058 . S
Co827 O843 2.057 . S
Co827 O858 2.037 . S
Co827 N862 2.145 . S
Co827 N883 2.257 . S
O828 Co826 2.143 . S
O828 Co827 2.160 . S
C829 O830 1.278 . S
C829 O837 1.224 . S
O830 C829 1.278 . S
C831 O832 1.245 . S
C831 O843 1.232 . S
O832 C831 1.245 . S
O833 Co827 2.058 . S
O833 C859 1.269 . S
O834 Co826 2.074 . S
O834 C859 1.257 . S
H835 C860 0.930 . S
H836 C866 0.930 . S
O837 Co826 2.093 . S
O837 C829 1.224 . S
H838 C870 0.929 . S
H839 C872 0.930 . S
H840 C873 0.930 . S
H841 C871 0.929 . S
H842 C874 0.928 . S
O843 Co827 2.057 . S
O843 C831 1.232 . S
H844 C863 0.929 . S
H845 C864 0.929 . S
H846 C876 0.931 . S
H847 C868 0.929 . S
H848 C877 0.930 . S
H849 C869 0.931 . S
O850 Co826 2.097 . S
O850 C878 1.214 . S
H851 C879 0.929 . S
H852 C880 0.929 . S
H853 C881 0.930 . S
H854 C882 0.929 . S
H855 C884 0.930 . S
H856 C861 0.930 . S
H857 C865 0.930 . S
O858 Co827 2.037 . S
O858 C878 1.234 . S
C859 O833 1.269 . S
C859 O834 1.257 . S
C860 H835 0.930 . S
C860 C863 1.388 1_556 S
C860 C865 1.418 . S
C861 H856 0.930 . S
C861 C864 1.404 1_556 S
C861 C865 1.353 . S
N862 Co827 2.145 . S
N862 C863 1.397 . S
N862 C864 1.334 . S
C863 H844 0.929 . S
C863 C860 1.388 1_554 S
C863 N862 1.397 . S
C864 H845 0.929 . S
C864 C861 1.404 1_554 S
C864 N862 1.334 . S
C865 H857 0.930 . S
C865 C860 1.418 . S
C865 C861 1.353 . S
C866 H836 0.930 . S
C866 N867 1.330 . S
C866 C868 1.446 . S
N867 Co826 2.151 . S
N867 C866 1.330 . S
N867 C871 1.418 . S
C868 H847 0.929 . S
C868 C866 1.446 . S
C868 C869 1.332 . S
C869 H849 0.931 . S
C869 C868 1.332 . S
C869 C870 1.267 . S
C870 H838 0.929 . S
C870 C869 1.267 . S
C870 C871 1.251 . S
C871 H841 0.929 . S
C871 N867 1.418 . S
C871 C870 1.251 . S
C872 H839 0.930 . S
C872 C874 1.406 . S
C872 C877 1.261 . S
C873 H840 0.930 . S
C873 N875 1.325 . S
C873 C876 1.357 . S
C874 H842 0.928 . S
C874 C872 1.406 . S
C874 N875 1.261 . S
N875 Co826 2.214 . S
N875 C873 1.325 . S
N875 C874 1.261 . S
C876 H846 0.931 . S
C876 C873 1.357 . S
C876 C877 1.312 . S
C877 H848 0.930 . S
C877 C872 1.261 . S
C877 C876 1.312 . S
C878 O850 1.214 . S
C878 O858 1.234 . S
C879 H851 0.929 . S
C879 C882 1.391 . S
C879 C884 1.391 . S
C880 H852 0.929 . S
C880 C881 1.390 . S
C880 N883 1.391 . S
C881 H853 0.930 . S
C881 C880 1.390 . S
C881 C882 1.392 . S
C882 H854 0.929 . S
C882 C879 1.391 . S
C882 C881 1.392 . S
N883 Co827 2.257 . S
N883 C880 1.391 . S
N883 C884 1.388 . S
C884 H855 0.930 . S
C884 C879 1.391 . S
C884 N883 1.388 . S
Co885 O887 2.143 . S
Co885 O893 2.074 . S
Co885 O896 2.093 . S
Co885 O909 2.097 . S
Co885 N926 2.151 . S
Co885 N934 2.214 . S
Co886 O887 2.160 . S
Co886 O892 2.058 . S
Co886 O902 2.057 . S
Co886 O917 2.037 . S
Co886 N921 2.145 . S
Co886 N942 2.257 . S
O887 Co885 2.143 . S
O887 Co886 2.160 . S
C888 O889 1.278 . S
C888 O896 1.224 . S
O889 C888 1.278 . S
C890 O891 1.245 . S
C890 O902 1.232 . S
O891 C890 1.245 . S
O892 Co886 2.058 . S
O892 C918 1.269 . S
O893 Co885 2.074 . S
O893 C918 1.257 . S
H894 C919 0.930 . S
H895 C925 0.930 . S
O896 Co885 2.093 . S
O896 C888 1.224 . S
H897 C929 0.929 . S
H898 C931 0.930 . S
H899 C932 0.930 . S
H900 C930 0.929 . S
H901 C933 0.928 . S
O902 Co886 2.057 . S
O902 C890 1.232 . S
H903 C922 0.929 . S
H904 C923 0.929 . S
H905 C935 0.931 . S
H906 C927 0.929 . S
H907 C936 0.930 . S
H908 C928 0.931 . S
O909 Co885 2.097 . S
O909 C937 1.214 . S
H910 C938 0.929 . S
H911 C939 0.929 . S
H912 C940 0.930 . S
H913 C941 0.929 . S
H914 C943 0.930 . S
H915 C920 0.930 . S
H916 C924 0.930 . S
O917 Co886 2.037 . S
O917 C937 1.234 . S
C918 O892 1.269 . S
C918 O893 1.257 . S
C919 H894 0.930 . S
C919 C922 1.388 . S
C919 C924 1.418 . S
C920 H915 0.930 . S
C920 C923 1.404 . S
C920 C924 1.353 . S
N921 Co886 2.145 . S
N921 C922 1.397 . S
N921 C923 1.334 . S
C922 H903 0.929 . S
C922 C919 1.388 . S
C922 N921 1.397 . S
C923 H904 0.929 . S
C923 C920 1.404 . S
C923 N921 1.334 . S
C924 H916 0.930 . S
C924 C919 1.418 . S
C924 C920 1.353 . S
C925 H895 0.930 . S
C925 N926 1.330 . S
C925 C927 1.446 . S
N926 Co885 2.151 . S
N926 C925 1.330 . S
N926 C930 1.418 . S
C927 H906 0.929 . S
C927 C925 1.446 . S
C927 C928 1.332 . S
C928 H908 0.931 . S
C928 C927 1.332 . S
C928 C929 1.267 . S
C929 H897 0.929 . S
C929 C928 1.267 . S
C929 C930 1.251 . S
C930 H900 0.929 . S
C930 N926 1.418 . S
C930 C929 1.251 . S
C931 H898 0.930 . S
C931 C933 1.406 . S
C931 C936 1.261 . S
C932 H899 0.930 . S
C932 N934 1.325 . S
C932 C935 1.357 . S
C933 H901 0.928 . S
C933 C931 1.406 . S
C933 N934 1.261 . S
N934 Co885 2.214 . S
N934 C932 1.325 . S
N934 C933 1.261 . S
C935 H905 0.931 . S
C935 C932 1.357 . S
C935 C936 1.312 . S
C936 H907 0.930 . S
C936 C931 1.261 . S
C936 C935 1.312 . S
C937 O909 1.214 . S
C937 O917 1.234 . S
C938 H910 0.929 . S
C938 C941 1.391 . S
C938 C943 1.391 . S
C939 H911 0.929 . S
C939 C940 1.390 . S
C939 N942 1.391 . S
C940 H912 0.930 . S
C940 C939 1.390 . S
C940 C941 1.392 . S
C941 H913 0.929 . S
C941 C938 1.391 . S
C941 C940 1.392 . S
N942 Co886 2.257 . S
N942 C939 1.391 . S
N942 C943 1.388 . S
C943 H914 0.930 . S
C943 C938 1.391 . S
C943 N942 1.388 . S
H944 C952 0.929 . S
H945 C954 0.930 . S
H946 C956 0.930 . S
H947 C959 0.929 . S
H948 C962 0.930 . S
H949 C964 0.960 . S
H950 C964 0.960 . S
H951 C964 0.960 . S
C952 H944 0.929 . S
C952 C953 1.377 . S
C952 C954 1.384 . S
C953 C952 1.377 . S
C953 C959 1.390 . S
C954 H945 0.930 . S
C954 C952 1.384 . S
C954 C955 1.372 . S
C955 C954 1.372 . S
C955 C956 1.400 . S
C955 C960 1.490 . S
C956 H946 0.930 . S
C956 C955 1.400 . S
C956 C959 1.386 . S
H957 C973 0.930 . S
H958 C974 0.931 . S
C959 H947 0.929 . S
C959 C953 1.390 . S
C959 C956 1.386 . S
C960 C955 1.490 . S
C960 C962 1.395 . S
C960 C963 1.403 . S
H961 C967 0.930 . S
C962 H948 0.930 . S
C962 C960 1.395 . S
C962 C965 1.403 1_455 S
C963 C960 1.403 . S
C963 C964 1.524 . S
C963 C967 1.400 1_455 S
C964 H949 0.960 . S
C964 H950 0.960 . S
C964 H951 0.960 . S
C964 C963 1.524 . S
C965 C962 1.403 1_655 S
C965 C966 1.392 . S
C965 C969 1.495 . S
C966 C965 1.392 . S
C966 C967 1.385 . S
C966 C968 1.478 . S
C967 H961 0.930 . S
C967 C963 1.400 1_655 S
C967 C966 1.385 . S
C968 C966 1.478 . S
C968 C970 1.381 . S
C968 C974 1.383 . S
C969 C965 1.495 . S
C969 H975 0.959 . S
C969 H976 0.961 . S
C969 H977 0.960 . S
C970 C968 1.381 . S
C970 C971 1.394 . S
C970 H978 0.930 . S
C971 C970 1.394 . S
C971 C972 1.383 . S
C971 H979 0.929 . S
C972 C971 1.383 . S
C972 C973 1.377 . S
C973 H957 0.930 . S
C973 C972 1.377 . S
C973 C974 1.379 . S
C974 H958 0.931 . S
C974 C968 1.383 . S
C974 C973 1.379 . S
H975 C969 0.959 . S
H976 C969 0.961 . S
H977 C969 0.960 . S
H978 C970 0.930 . S
H979 C971 0.929 . S
H980 C988 0.929 . S
H981 C990 0.930 . S
H982 C992 0.930 . S
H983 C995 0.929 . S
H984 C998 0.930 . S
H985 C1000 0.960 . S
H986 C1000 0.960 . S
H987 C1000 0.960 . S
C988 H980 0.929 . S
C988 C989 1.377 . S
C988 C990 1.384 . S
C989 C988 1.377 . S
C989 C995 1.390 . S
C990 H981 0.930 . S
C990 C988 1.384 . S
C990 C991 1.372 . S
C991 C990 1.372 . S
C991 C992 1.400 . S
C991 C996 1.490 . S
C992 H982 0.930 . S
C992 C991 1.400 . S
C992 C995 1.386 . S
H993 C1009 0.930 . S
H994 C1010 0.931 . S
C995 H983 0.929 . S
C995 C989 1.390 . S
C995 C992 1.386 . S
C996 C991 1.490 . S
C996 C998 1.395 . S
C996 C999 1.403 . S
H997 C1003 0.930 . S
C998 H984 0.930 . S
C998 C996 1.395 . S
C998 C1001 1.403 1_655 S
C999 C996 1.403 . S
C999 C1000 1.524 . S
C999 C1003 1.400 1_655 S
C1000 H985 0.960 . S
C1000 H986 0.960 . S
C1000 H987 0.960 . S
C1000 C999 1.524 . S
C1001 C998 1.403 1_455 S
C1001 C1002 1.392 . S
C1001 C1005 1.495 . S
C1002 C1001 1.392 . S
C1002 C1003 1.385 . S
C1002 C1004 1.478 . S
C1003 H997 0.930 . S
C1003 C999 1.400 1_455 S
C1003 C1002 1.385 . S
C1004 C1002 1.478 . S
C1004 C1006 1.381 . S
C1004 C1010 1.383 . S
C1005 C1001 1.495 . S
C1005 H1011 0.959 . S
C1005 H1012 0.961 . S
C1005 H1013 0.960 . S
C1006 C1004 1.381 . S
C1006 C1007 1.394 . S
C1006 H1014 0.930 . S
C1007 C1006 1.394 . S
C1007 C1008 1.383 . S
C1007 H1015 0.929 . S
C1008 C1007 1.383 . S
C1008 C1009 1.377 . S
C1009 H993 0.930 . S
C1009 C1008 1.377 . S
C1009 C1010 1.379 . S
C1010 H994 0.931 . S
C1010 C1004 1.383 . S
C1010 C1009 1.379 . S
H1011 C1005 0.959 . S
H1012 C1005 0.961 . S
H1013 C1005 0.960 . S
H1014 C1006 0.930 . S
H1015 C1007 0.929 . S
H1016 C1024 0.929 . S
H1017 C1026 0.930 . S
H1018 C1028 0.930 . S
H1019 C1031 0.929 . S
H1020 C1034 0.930 . S
H1021 C1036 0.960 . S
H1022 C1036 0.960 . S
H1023 C1036 0.960 . S
C1024 H1016 0.929 . S
C1024 C1025 1.377 . S
C1024 C1026 1.384 . S
C1025 C1024 1.377 . S
C1025 C1031 1.390 . S
C1026 H1017 0.930 . S
C1026 C1024 1.384 . S
C1026 C1027 1.372 . S
C1027 C1026 1.372 . S
C1027 C1028 1.400 . S
C1027 C1032 1.490 . S
C1028 H1018 0.930 . S
C1028 C1027 1.400 . S
C1028 C1031 1.386 . S
H1029 C1045 0.930 . S
H1030 C1046 0.931 . S
C1031 H1019 0.929 . S
C1031 C1025 1.390 . S
C1031 C1028 1.386 . S
C1032 C1027 1.490 . S
C1032 C1034 1.395 . S
C1032 C1035 1.403 . S
H1033 C1039 0.930 . S
C1034 H1020 0.930 . S
C1034 C1032 1.395 . S
C1034 C1037 1.403 1_655 S
C1035 C1032 1.403 . S
C1035 C1036 1.524 . S
C1035 C1039 1.400 1_655 S
C1036 H1021 0.960 . S
C1036 H1022 0.960 . S
C1036 H1023 0.960 . S
C1036 C1035 1.524 . S
C1037 C1034 1.403 1_455 S
C1037 C1038 1.392 . S
C1037 C1041 1.495 . S
C1038 C1037 1.392 . S
C1038 C1039 1.385 . S
C1038 C1040 1.478 . S
C1039 H1033 0.930 . S
C1039 C1035 1.400 1_455 S
C1039 C1038 1.385 . S
C1040 C1038 1.478 . S
C1040 C1042 1.381 . S
C1040 C1046 1.383 . S
C1041 C1037 1.495 . S
C1041 H1047 0.959 . S
C1041 H1048 0.961 . S
C1041 H1049 0.960 . S
C1042 C1040 1.381 . S
C1042 C1043 1.394 . S
C1042 H1050 0.930 . S
C1043 C1042 1.394 . S
C1043 C1044 1.383 . S
C1043 H1051 0.929 . S
C1044 C1043 1.383 . S
C1044 C1045 1.377 . S
C1045 H1029 0.930 . S
C1045 C1044 1.377 . S
C1045 C1046 1.379 . S
C1046 H1030 0.931 . S
C1046 C1040 1.383 . S
C1046 C1045 1.379 . S
H1047 C1041 0.959 . S
H1048 C1041 0.961 . S
H1049 C1041 0.960 . S
H1050 C1042 0.930 . S
H1051 C1043 0.929 . S
H1052 C1060 0.929 . S
H1053 C1062 0.930 . S
H1054 C1064 0.930 . S
H1055 C1067 0.929 . S
H1056 C1070 0.930 . S
H1057 C1072 0.960 . S
H1058 C1072 0.960 . S
H1059 C1072 0.960 . S
C1060 H1052 0.929 . S
C1060 C1061 1.377 . S
C1060 C1062 1.384 . S
C1061 C1060 1.377 . S
C1061 C1067 1.390 . S
C1062 H1053 0.930 . S
C1062 C1060 1.384 . S
C1062 C1063 1.372 . S
C1063 C1062 1.372 . S
C1063 C1064 1.400 . S
C1063 C1068 1.490 . S
C1064 H1054 0.930 . S
C1064 C1063 1.400 . S
C1064 C1067 1.386 . S
H1065 C1081 0.930 . S
H1066 C1082 0.931 . S
C1067 H1055 0.929 . S
C1067 C1061 1.390 . S
C1067 C1064 1.386 . S
C1068 C1063 1.490 . S
C1068 C1070 1.395 . S
C1068 C1071 1.403 . S
H1069 C1075 0.930 . S
C1070 H1056 0.930 . S
C1070 C1068 1.395 . S
C1070 C1073 1.403 1_455 S
C1071 C1068 1.403 . S
C1071 C1072 1.524 . S
C1071 C1075 1.400 1_455 S
C1072 H1057 0.960 . S
C1072 H1058 0.960 . S
C1072 H1059 0.960 . S
C1072 C1071 1.524 . S
C1073 C1070 1.403 1_655 S
C1073 C1074 1.392 . S
C1073 C1077 1.495 . S
C1074 C1073 1.392 . S
C1074 C1075 1.385 . S
C1074 C1076 1.478 . S
C1075 H1069 0.930 . S
C1075 C1071 1.400 1_655 S
C1075 C1074 1.385 . S
C1076 C1074 1.478 . S
C1076 C1078 1.381 . S
C1076 C1082 1.383 . S
C1077 C1073 1.495 . S
C1077 H1083 0.959 . S
C1077 H1084 0.961 . S
C1077 H1085 0.960 . S
C1078 C1076 1.381 . S
C1078 C1079 1.394 . S
C1078 H1086 0.930 . S
C1079 C1078 1.394 . S
C1079 C1080 1.383 . S
C1079 H1087 0.929 . S
C1080 C1079 1.383 . S
C1080 C1081 1.377 . S
C1081 H1065 0.930 . S
C1081 C1080 1.377 . S
C1081 C1082 1.379 . S
C1082 H1066 0.931 . S
C1082 C1076 1.383 . S
C1082 C1081 1.379 . S
H1083 C1077 0.959 . S
H1084 C1077 0.961 . S
H1085 C1077 0.960 . S
H1086 C1078 0.930 . S
H1087 C1079 0.929 . S
H1088 C1096 0.929 . S
H1089 C1098 0.930 . S
H1090 C1100 0.930 . S
H1091 C1103 0.929 . S
H1092 C1106 0.930 . S
H1093 C1108 0.960 . S
H1094 C1108 0.960 . S
H1095 C1108 0.960 . S
C1096 H1088 0.929 . S
C1096 C1097 1.377 . S
C1096 C1098 1.384 . S
C1097 C1096 1.377 . S
C1097 C1103 1.390 . S
C1098 H1089 0.930 . S
C1098 C1096 1.384 . S
C1098 C1099 1.372 . S
C1099 C1098 1.372 . S
C1099 C1100 1.400 . S
C1099 C1104 1.490 . S
C1100 H1090 0.930 . S
C1100 C1099 1.400 . S
C1100 C1103 1.386 . S
H1101 C1117 0.930 . S
H1102 C1118 0.931 . S
C1103 H1091 0.929 . S
C1103 C1097 1.390 . S
C1103 C1100 1.386 . S
C1104 C1099 1.490 . S
C1104 C1106 1.395 . S
C1104 C1107 1.403 . S
H1105 C1111 0.930 . S
C1106 H1092 0.930 . S
C1106 C1104 1.395 . S
C1106 C1109 1.403 . S
C1107 C1104 1.403 . S
C1107 C1108 1.524 . S
C1107 C1111 1.400 . S
C1108 H1093 0.960 . S
C1108 H1094 0.960 . S
C1108 H1095 0.960 . S
C1108 C1107 1.524 . S
C1109 C1106 1.403 . S
C1109 C1110 1.392 . S
C1109 C1113 1.495 . S
C1110 C1109 1.392 . S
C1110 C1111 1.385 . S
C1110 C1112 1.478 . S
C1111 H1105 0.930 . S
C1111 C1107 1.400 . S
C1111 C1110 1.385 . S
C1112 C1110 1.478 . S
C1112 C1114 1.381 . S
C1112 C1118 1.383 . S
C1113 C1109 1.495 . S
C1113 H1119 0.959 . S
C1113 H1120 0.961 . S
C1113 H1121 0.960 . S
C1114 C1112 1.381 . S
C1114 C1115 1.394 . S
C1114 H1122 0.930 . S
C1115 C1114 1.394 . S
C1115 C1116 1.383 . S
C1115 H1123 0.929 . S
C1116 C1115 1.383 . S
C1116 C1117 1.377 . S
C1117 H1101 0.930 . S
C1117 C1116 1.377 . S
C1117 C1118 1.379 . S
C1118 H1102 0.931 . S
C1118 C1112 1.383 . S
C1118 C1117 1.379 . S
H1119 C1113 0.959 . S
H1120 C1113 0.961 . S
H1121 C1113 0.960 . S
H1122 C1114 0.930 . S
H1123 C1115 0.929 . S
H1124 C1132 0.929 . S
H1125 C1134 0.930 . S
H1126 C1136 0.930 . S
H1127 C1139 0.929 . S
H1128 C1142 0.930 . S
H1129 C1144 0.960 . S
H1130 C1144 0.960 . S
H1131 C1144 0.960 . S
C1132 H1124 0.929 . S
C1132 C1133 1.377 . S
C1132 C1134 1.384 . S
C1133 C1132 1.377 . S
C1133 C1139 1.390 . S
C1134 H1125 0.930 . S
C1134 C1132 1.384 . S
C1134 C1135 1.372 . S
C1135 C1134 1.372 . S
C1135 C1136 1.400 . S
C1135 C1140 1.490 . S
C1136 H1126 0.930 . S
C1136 C1135 1.400 . S
C1136 C1139 1.386 . S
H1137 C1153 0.930 . S
H1138 C1154 0.931 . S
C1139 H1127 0.929 . S
C1139 C1133 1.390 . S
C1139 C1136 1.386 . S
C1140 C1135 1.490 . S
C1140 C1142 1.395 . S
C1140 C1143 1.403 . S
H1141 C1147 0.930 . S
C1142 H1128 0.930 . S
C1142 C1140 1.395 . S
C1142 C1145 1.403 . S
C1143 C1140 1.403 . S
C1143 C1144 1.524 . S
C1143 C1147 1.400 . S
C1144 H1129 0.960 . S
C1144 H1130 0.960 . S
C1144 H1131 0.960 . S
C1144 C1143 1.524 . S
C1145 C1142 1.403 . S
C1145 C1146 1.392 . S
C1145 C1149 1.495 . S
C1146 C1145 1.392 . S
C1146 C1147 1.385 . S
C1146 C1148 1.478 . S
C1147 H1141 0.930 . S
C1147 C1143 1.400 . S
C1147 C1146 1.385 . S
C1148 C1146 1.478 . S
C1148 C1150 1.381 . S
C1148 C1154 1.383 . S
C1149 C1145 1.495 . S
C1149 H1155 0.959 . S
C1149 H1156 0.961 . S
C1149 H1157 0.960 . S
C1150 C1148 1.381 . S
C1150 C1151 1.394 . S
C1150 H1158 0.930 . S
C1151 C1150 1.394 . S
C1151 C1152 1.383 . S
C1151 H1159 0.929 . S
C1152 C1151 1.383 . S
C1152 C1153 1.377 . S
C1153 H1137 0.930 . S
C1153 C1152 1.377 . S
C1153 C1154 1.379 . S
C1154 H1138 0.931 . S
C1154 C1148 1.383 . S
C1154 C1153 1.379 . S
H1155 C1149 0.959 . S
H1156 C1149 0.961 . S
H1157 C1149 0.960 . S
H1158 C1150 0.930 . S
H1159 C1151 0.929 . S
H1160 C1168 0.929 . S
H1161 C1170 0.930 . S
H1162 C1172 0.930 . S
H1163 C1175 0.929 . S
H1164 C1178 0.930 . S
H1165 C1180 0.960 . S
H1166 C1180 0.960 . S
H1167 C1180 0.960 . S
C1168 H1160 0.929 . S
C1168 C1169 1.377 . S
C1168 C1170 1.384 . S
C1169 C1168 1.377 . S
C1169 C1175 1.390 . S
C1170 H1161 0.930 . S
C1170 C1168 1.384 . S
C1170 C1171 1.372 . S
C1171 C1170 1.372 . S
C1171 C1172 1.400 . S
C1171 C1176 1.490 . S
C1172 H1162 0.930 . S
C1172 C1171 1.400 . S
C1172 C1175 1.386 . S
H1173 C1189 0.930 . S
H1174 C1190 0.931 . S
C1175 H1163 0.929 . S
C1175 C1169 1.390 . S
C1175 C1172 1.386 . S
C1176 C1171 1.490 . S
C1176 C1178 1.395 . S
C1176 C1179 1.403 . S
H1177 C1183 0.930 . S
C1178 H1164 0.930 . S
C1178 C1176 1.395 . S
C1178 C1181 1.403 . S
C1179 C1176 1.403 . S
C1179 C1180 1.524 . S
C1179 C1183 1.400 . S
C1180 H1165 0.960 . S
C1180 H1166 0.960 . S
C1180 H1167 0.960 . S
C1180 C1179 1.524 . S
C1181 C1178 1.403 . S
C1181 C1182 1.392 . S
C1181 C1185 1.495 . S
C1182 C1181 1.392 . S
C1182 C1183 1.385 . S
C1182 C1184 1.478 . S
C1183 H1177 0.930 . S
C1183 C1179 1.400 . S
C1183 C1182 1.385 . S
C1184 C1182 1.478 . S
C1184 C1186 1.381 . S
C1184 C1190 1.383 . S
C1185 C1181 1.495 . S
C1185 H1191 0.959 . S
C1185 H1192 0.961 . S
C1185 H1193 0.960 . S
C1186 C1184 1.381 . S
C1186 C1187 1.394 . S
C1186 H1194 0.930 . S
C1187 C1186 1.394 . S
C1187 C1188 1.383 . S
C1187 H1195 0.929 . S
C1188 C1187 1.383 . S
C1188 C1189 1.377 . S
C1189 H1173 0.930 . S
C1189 C1188 1.377 . S
C1189 C1190 1.379 . S
C1190 H1174 0.931 . S
C1190 C1184 1.383 . S
C1190 C1189 1.379 . S
H1191 C1185 0.959 . S
H1192 C1185 0.961 . S
H1193 C1185 0.960 . S
H1194 C1186 0.930 . S
H1195 C1187 0.929 . S
H1196 C1204 0.929 . S
H1197 C1206 0.930 . S
H1198 C1208 0.930 . S
H1199 C1211 0.929 . S
H1200 C1214 0.930 . S
H1201 C1216 0.960 . S
H1202 C1216 0.960 . S
H1203 C1216 0.960 . S
C1204 H1196 0.929 . S
C1204 C1205 1.377 . S
C1204 C1206 1.384 . S
C1205 C1204 1.377 . S
C1205 C1211 1.390 . S
C1206 H1197 0.930 . S
C1206 C1204 1.384 . S
C1206 C1207 1.372 . S
C1207 C1206 1.372 . S
C1207 C1208 1.400 . S
C1207 C1212 1.490 . S
C1208 H1198 0.930 . S
C1208 C1207 1.400 . S
C1208 C1211 1.386 . S
H1209 C1225 0.930 . S
H1210 C1226 0.931 . S
C1211 H1199 0.929 . S
C1211 C1205 1.390 . S
C1211 C1208 1.386 . S
C1212 C1207 1.490 . S
C1212 C1214 1.395 . S
C1212 C1215 1.403 . S
H1213 C1219 0.930 . S
C1214 H1200 0.930 . S
C1214 C1212 1.395 . S
C1214 C1217 1.403 . S
C1215 C1212 1.403 . S
C1215 C1216 1.524 . S
C1215 C1219 1.400 . S
C1216 H1201 0.960 . S
C1216 H1202 0.960 . S
C1216 H1203 0.960 . S
C1216 C1215 1.524 . S
C1217 C1214 1.403 . S
C1217 C1218 1.392 . S
C1217 C1221 1.495 . S
C1218 C1217 1.392 . S
C1218 C1219 1.385 . S
C1218 C1220 1.478 . S
C1219 H1213 0.930 . S
C1219 C1215 1.400 . S
C1219 C1218 1.385 . S
C1220 C1218 1.478 . S
C1220 C1222 1.381 . S
C1220 C1226 1.383 . S
C1221 C1217 1.495 . S
C1221 H1227 0.959 . S
C1221 H1228 0.961 . S
C1221 H1229 0.960 . S
C1222 C1220 1.381 . S
C1222 C1223 1.394 . S
C1222 H1230 0.930 . S
C1223 C1222 1.394 . S
C1223 C1224 1.383 . S
C1223 H1231 0.929 . S
C1224 C1223 1.383 . S
C1224 C1225 1.377 . S
C1225 H1209 0.930 . S
C1225 C1224 1.377 . S
C1225 C1226 1.379 . S
C1226 H1210 0.931 . S
C1226 C1220 1.383 . S
C1226 C1225 1.379 . S
H1227 C1221 0.959 . S
H1228 C1221 0.961 . S
H1229 C1221 0.960 . S
H1230 C1222 0.930 . S
H1231 C1223 0.929 . S
H1232 C1240 0.929 . S
H1233 C1242 0.930 . S
H1234 C1244 0.930 . S
H1235 C1247 0.929 . S
H1236 C1250 0.930 . S
H1237 C1252 0.960 . S
H1238 C1252 0.960 . S
H1239 C1252 0.960 . S
C1240 H1232 0.929 . S
C1240 C1241 1.377 . S
C1240 C1242 1.384 . S
C1241 C1240 1.377 . S
C1241 C1247 1.390 . S
C1242 H1233 0.930 . S
C1242 C1240 1.384 . S
C1242 C1243 1.372 . S
C1243 C1242 1.372 . S
C1243 C1244 1.400 . S
C1243 C1248 1.490 . S
C1244 H1234 0.930 . S
C1244 C1243 1.400 . S
C1244 C1247 1.386 . S
H1245 C1261 0.930 . S
H1246 C1262 0.931 . S
C1247 H1235 0.929 . S
C1247 C1241 1.390 . S
C1247 C1244 1.386 . S
C1248 C1243 1.490 . S
C1248 C1250 1.395 . S
C1248 C1251 1.403 . S
H1249 C1255 0.930 . S
C1250 H1236 0.930 . S
C1250 C1248 1.395 . S
C1250 C1253 1.403 . S
C1251 C1248 1.403 . S
C1251 C1252 1.524 . S
C1251 C1255 1.400 . S
C1252 H1237 0.960 . S
C1252 H1238 0.960 . S
C1252 H1239 0.960 . S
C1252 C1251 1.524 . S
C1253 C1250 1.403 . S
C1253 C1254 1.392 . S
C1253 C1257 1.495 . S
C1254 C1253 1.392 . S
C1254 C1255 1.385 . S
C1254 C1256 1.478 . S
C1255 H1249 0.930 . S
C1255 C1251 1.400 . S
C1255 C1254 1.385 . S
C1256 C1254 1.478 . S
C1256 C1258 1.381 . S
C1256 C1262 1.383 . S
C1257 C1253 1.495 . S
C1257 H1263 0.959 . S
C1257 H1264 0.961 . S
C1257 H1265 0.960 . S
C1258 C1256 1.381 . S
C1258 C1259 1.394 . S
C1258 H1266 0.930 . S
C1259 C1258 1.394 . S
C1259 C1260 1.383 . S
C1259 H1267 0.929 . S
C1260 C1259 1.383 . S
C1260 C1261 1.377 . S
C1261 H1245 0.930 . S
C1261 C1260 1.377 . S
C1261 C1262 1.379 . S
C1262 H1246 0.931 . S
C1262 C1256 1.383 . S
C1262 C1261 1.379 . S
H1263 C1257 0.959 . S
H1264 C1257 0.961 . S
H1265 C1257 0.960 . S
H1266 C1258 0.930 . S
H1267 C1259 0.929 . S
H1268 C1276 0.929 . S
H1269 C1278 0.930 . S
H1270 C1280 0.930 . S
H1271 C1283 0.929 . S
H1272 C1286 0.930 . S
H1273 C1288 0.960 . S
H1274 C1288 0.960 . S
H1275 C1288 0.960 . S
C1276 H1268 0.929 . S
C1276 C1277 1.377 . S
C1276 C1278 1.384 . S
C1277 C1276 1.377 . S
C1277 C1283 1.390 . S
C1278 H1269 0.930 . S
C1278 C1276 1.384 . S
C1278 C1279 1.372 . S
C1279 C1278 1.372 . S
C1279 C1280 1.400 . S
C1279 C1284 1.490 . S
C1280 H1270 0.930 . S
C1280 C1279 1.400 . S
C1280 C1283 1.386 . S
H1281 C1297 0.930 . S
H1282 C1298 0.931 . S
C1283 H1271 0.929 . S
C1283 C1277 1.390 . S
C1283 C1280 1.386 . S
C1284 C1279 1.490 . S
C1284 C1286 1.395 . S
C1284 C1287 1.403 . S
H1285 C1291 0.930 . S
C1286 H1272 0.930 . S
C1286 C1284 1.395 . S
C1286 C1289 1.403 . S
C1287 C1284 1.403 . S
C1287 C1288 1.524 . S
C1287 C1291 1.400 . S
C1288 H1273 0.960 . S
C1288 H1274 0.960 . S
C1288 H1275 0.960 . S
C1288 C1287 1.524 . S
C1289 C1286 1.403 . S
C1289 C1290 1.392 . S
C1289 C1293 1.495 . S
C1290 C1289 1.392 . S
C1290 C1291 1.385 . S
C1290 C1292 1.478 . S
C1291 H1285 0.930 . S
C1291 C1287 1.400 . S
C1291 C1290 1.385 . S
C1292 C1290 1.478 . S
C1292 C1294 1.381 . S
C1292 C1298 1.383 . S
C1293 C1289 1.495 . S
C1293 H1299 0.959 . S
C1293 H1300 0.961 . S
C1293 H1301 0.960 . S
C1294 C1292 1.381 . S
C1294 C1295 1.394 . S
C1294 H1302 0.930 . S
C1295 C1294 1.394 . S
C1295 C1296 1.383 . S
C1295 H1303 0.929 . S
C1296 C1295 1.383 . S
C1296 C1297 1.377 . S
C1297 H1281 0.930 . S
C1297 C1296 1.377 . S
C1297 C1298 1.379 . S
C1298 H1282 0.931 . S
C1298 C1292 1.383 . S
C1298 C1297 1.379 . S
H1299 C1293 0.959 . S
H1300 C1293 0.961 . S
H1301 C1293 0.960 . S
H1302 C1294 0.930 . S
H1303 C1295 0.929 . S
H1304 C1312 0.929 . S
H1305 C1314 0.930 . S
H1306 C1316 0.930 . S
H1307 C1319 0.929 . S
H1308 C1322 0.930 . S
H1309 C1324 0.960 . S
H1310 C1324 0.960 . S
H1311 C1324 0.960 . S
C1312 H1304 0.929 . S
C1312 C1313 1.377 . S
C1312 C1314 1.384 . S
C1313 C1312 1.377 . S
C1313 C1319 1.390 . S
C1314 H1305 0.930 . S
C1314 C1312 1.384 . S
C1314 C1315 1.372 . S
C1315 C1314 1.372 . S
C1315 C1316 1.400 . S
C1315 C1320 1.490 . S
C1316 H1306 0.930 . S
C1316 C1315 1.400 . S
C1316 C1319 1.386 . S
H1317 C1333 0.930 . S
H1318 C1334 0.931 . S
C1319 H1307 0.929 . S
C1319 C1313 1.390 . S
C1319 C1316 1.386 . S
C1320 C1315 1.490 . S
C1320 C1322 1.395 . S
C1320 C1323 1.403 . S
H1321 C1327 0.930 . S
C1322 H1308 0.930 . S
C1322 C1320 1.395 . S
C1322 C1325 1.403 . S
C1323 C1320 1.403 . S
C1323 C1324 1.524 . S
C1323 C1327 1.400 . S
C1324 H1309 0.960 . S
C1324 H1310 0.960 . S
C1324 H1311 0.960 . S
C1324 C1323 1.524 . S
C1325 C1322 1.403 . S
C1325 C1326 1.392 . S
C1325 C1329 1.495 . S
C1326 C1325 1.392 . S
C1326 C1327 1.385 . S
C1326 C1328 1.478 . S
C1327 H1321 0.930 . S
C1327 C1323 1.400 . S
C1327 C1326 1.385 . S
C1328 C1326 1.478 . S
C1328 C1330 1.381 . S
C1328 C1334 1.383 . S
C1329 C1325 1.495 . S
C1329 H1335 0.959 . S
C1329 H1336 0.961 . S
C1329 H1337 0.960 . S
C1330 C1328 1.381 . S
C1330 C1331 1.394 . S
C1330 H1338 0.930 . S
C1331 C1330 1.394 . S
C1331 C1332 1.383 . S
C1331 H1339 0.929 . S
C1332 C1331 1.383 . S
C1332 C1333 1.377 . S
C1333 H1317 0.930 . S
C1333 C1332 1.377 . S
C1333 C1334 1.379 . S
C1334 H1318 0.931 . S
C1334 C1328 1.383 . S
C1334 C1333 1.379 . S
H1335 C1329 0.959 . S
H1336 C1329 0.961 . S
H1337 C1329 0.960 . S
H1338 C1330 0.930 . S
H1339 C1331 0.929 . S
H1340 C1348 0.929 . S
H1341 C1350 0.930 . S
H1342 C1352 0.930 . S
H1343 C1355 0.929 . S
H1344 C1358 0.930 . S
H1345 C1360 0.960 . S
H1346 C1360 0.960 . S
H1347 C1360 0.960 . S
C1348 H1340 0.929 . S
C1348 C1349 1.377 . S
C1348 C1350 1.384 . S
C1349 C1348 1.377 . S
C1349 C1355 1.390 . S
C1350 H1341 0.930 . S
C1350 C1348 1.384 . S
C1350 C1351 1.372 . S
C1351 C1350 1.372 . S
C1351 C1352 1.400 . S
C1351 C1356 1.490 . S
C1352 H1342 0.930 . S
C1352 C1351 1.400 . S
C1352 C1355 1.386 . S
H1353 C1369 0.930 . S
H1354 C1370 0.931 . S
C1355 H1343 0.929 . S
C1355 C1349 1.390 . S
C1355 C1352 1.386 . S
C1356 C1351 1.490 . S
C1356 C1358 1.395 . S
C1356 C1359 1.403 . S
H1357 C1363 0.930 . S
C1358 H1344 0.930 . S
C1358 C1356 1.395 . S
C1358 C1361 1.403 . S
C1359 C1356 1.403 . S
C1359 C1360 1.524 . S
C1359 C1363 1.400 . S
C1360 H1345 0.960 . S
C1360 H1346 0.960 . S
C1360 H1347 0.960 . S
C1360 C1359 1.524 . S
C1361 C1358 1.403 . S
C1361 C1362 1.392 . S
C1361 C1365 1.495 . S
C1362 C1361 1.392 . S
C1362 C1363 1.385 . S
C1362 C1364 1.478 . S
C1363 H1357 0.930 . S
C1363 C1359 1.400 . S
C1363 C1362 1.385 . S
C1364 C1362 1.478 . S
C1364 C1366 1.381 . S
C1364 C1370 1.383 . S
C1365 C1361 1.495 . S
C1365 H1371 0.959 . S
C1365 H1372 0.961 . S
C1365 H1373 0.960 . S
C1366 C1364 1.381 . S
C1366 C1367 1.394 . S
C1366 H1374 0.930 . S
C1367 C1366 1.394 . S
C1367 C1368 1.383 . S
C1367 H1375 0.929 . S
C1368 C1367 1.383 . S
C1368 C1369 1.377 . S
C1369 H1353 0.930 . S
C1369 C1368 1.377 . S
C1369 C1370 1.379 . S
C1370 H1354 0.931 . S
C1370 C1364 1.383 . S
C1370 C1369 1.379 . S
H1371 C1365 0.959 . S
H1372 C1365 0.961 . S
H1373 C1365 0.960 . S
H1374 C1366 0.930 . S
H1375 C1367 0.929 . S
H1376 C1384 0.929 . S
H1377 C1386 0.930 . S
H1378 C1388 0.930 . S
H1379 C1391 0.929 . S
H1380 C1394 0.930 . S
H1381 C1396 0.960 . S
H1382 C1396 0.960 . S
H1383 C1396 0.960 . S
C1384 H1376 0.929 . S
C1384 C1385 1.377 . S
C1384 C1386 1.384 . S
C1385 C1384 1.377 . S
C1385 C1391 1.390 . S
C1386 H1377 0.930 . S
C1386 C1384 1.384 . S
C1386 C1387 1.372 . S
C1387 C1386 1.372 . S
C1387 C1388 1.400 . S
C1387 C1392 1.490 . S
C1388 H1378 0.930 . S
C1388 C1387 1.400 . S
C1388 C1391 1.386 . S
H1389 C1405 0.930 . S
H1390 C1406 0.931 . S
C1391 H1379 0.929 . S
C1391 C1385 1.390 . S
C1391 C1388 1.386 . S
C1392 C1387 1.490 . S
C1392 C1394 1.395 . S
C1392 C1395 1.403 . S
H1393 C1399 0.930 . S
C1394 H1380 0.930 . S
C1394 C1392 1.395 . S
C1394 C1397 1.403 . S
C1395 C1392 1.403 . S
C1395 C1396 1.524 . S
C1395 C1399 1.400 . S
C1396 H1381 0.960 . S
C1396 H1382 0.960 . S
C1396 H1383 0.960 . S
C1396 C1395 1.524 . S
C1397 C1394 1.403 . S
C1397 C1398 1.392 . S
C1397 C1401 1.495 . S
C1398 C1397 1.392 . S
C1398 C1399 1.385 . S
C1398 C1400 1.478 . S
C1399 H1393 0.930 . S
C1399 C1395 1.400 . S
C1399 C1398 1.385 . S
C1400 C1398 1.478 . S
C1400 C1402 1.381 . S
C1400 C1406 1.383 . S
C1401 C1397 1.495 . S
C1401 H1407 0.959 . S
C1401 H1408 0.961 . S
C1401 H1409 0.960 . S
C1402 C1400 1.381 . S
C1402 C1403 1.394 . S
C1402 H1410 0.930 . S
C1403 C1402 1.394 . S
C1403 C1404 1.383 . S
C1403 H1411 0.929 . S
C1404 C1403 1.383 . S
C1404 C1405 1.377 . S
C1405 H1389 0.930 . S
C1405 C1404 1.377 . S
C1405 C1406 1.379 . S
C1406 H1390 0.931 . S
C1406 C1400 1.383 . S
C1406 C1405 1.379 . S
H1407 C1401 0.959 . S
H1408 C1401 0.961 . S
H1409 C1401 0.960 . S
H1410 C1402 0.930 . S
H1411 C1403 0.929 . S
H1412 C1420 0.929 . S
H1413 C1422 0.930 . S
H1414 C1424 0.930 . S
H1415 C1427 0.929 . S
H1416 C1430 0.930 . S
H1417 C1432 0.960 . S
H1418 C1432 0.960 . S
H1419 C1432 0.960 . S
C1420 H1412 0.929 . S
C1420 C1421 1.377 . S
C1420 C1422 1.384 . S
C1421 C1420 1.377 . S
C1421 C1427 1.390 . S
C1422 H1413 0.930 . S
C1422 C1420 1.384 . S
C1422 C1423 1.372 . S
C1423 C1422 1.372 . S
C1423 C1424 1.400 . S
C1423 C1428 1.490 . S
C1424 H1414 0.930 . S
C1424 C1423 1.400 . S
C1424 C1427 1.386 . S
H1425 C1441 0.930 . S
H1426 C1442 0.931 . S
C1427 H1415 0.929 . S
C1427 C1421 1.390 . S
C1427 C1424 1.386 . S
C1428 C1423 1.490 . S
C1428 C1430 1.395 . S
C1428 C1431 1.403 . S
H1429 C1435 0.930 . S
C1430 H1416 0.930 . S
C1430 C1428 1.395 . S
C1430 C1433 1.403 . S
C1431 C1428 1.403 . S
C1431 C1432 1.524 . S
C1431 C1435 1.400 . S
C1432 H1417 0.960 . S
C1432 H1418 0.960 . S
C1432 H1419 0.960 . S
C1432 C1431 1.524 . S
C1433 C1430 1.403 . S
C1433 C1434 1.392 . S
C1433 C1437 1.495 . S
C1434 C1433 1.392 . S
C1434 C1435 1.385 . S
C1434 C1436 1.478 . S
C1435 H1429 0.930 . S
C1435 C1431 1.400 . S
C1435 C1434 1.385 . S
C1436 C1434 1.478 . S
C1436 C1438 1.381 . S
C1436 C1442 1.383 . S
C1437 C1433 1.495 . S
C1437 H1443 0.959 . S
C1437 H1444 0.961 . S
C1437 H1445 0.960 . S
C1438 C1436 1.381 . S
C1438 C1439 1.394 . S
C1438 H1446 0.930 . S
C1439 C1438 1.394 . S
C1439 C1440 1.383 . S
C1439 H1447 0.929 . S
C1440 C1439 1.383 . S
C1440 C1441 1.377 . S
C1441 H1425 0.930 . S
C1441 C1440 1.377 . S
C1441 C1442 1.379 . S
C1442 H1426 0.931 . S
C1442 C1436 1.383 . S
C1442 C1441 1.379 . S
H1443 C1437 0.959 . S
H1444 C1437 0.961 . S
H1445 C1437 0.960 . S
H1446 C1438 0.930 . S
H1447 C1439 0.929 . S
H1448 C1456 0.929 . S
H1449 C1458 0.930 . S
H1450 C1460 0.930 . S
H1451 C1463 0.929 . S
H1452 C1466 0.930 . S
H1453 C1468 0.960 . S
H1454 C1468 0.960 . S
H1455 C1468 0.960 . S
C1456 H1448 0.929 . S
C1456 C1457 1.377 . S
C1456 C1458 1.384 . S
C1457 C1456 1.377 . S
C1457 C1463 1.390 . S
C1458 H1449 0.930 . S
C1458 C1456 1.384 . S
C1458 C1459 1.372 . S
C1459 C1458 1.372 . S
C1459 C1460 1.400 . S
C1459 C1464 1.490 . S
C1460 H1450 0.930 . S
C1460 C1459 1.400 . S
C1460 C1463 1.386 . S
H1461 C1477 0.930 . S
H1462 C1478 0.931 . S
C1463 H1451 0.929 . S
C1463 C1457 1.390 . S
C1463 C1460 1.386 . S
C1464 C1459 1.490 . S
C1464 C1466 1.395 . S
C1464 C1467 1.403 . S
H1465 C1471 0.930 . S
C1466 H1452 0.930 . S
C1466 C1464 1.395 . S
C1466 C1469 1.403 . S
C1467 C1464 1.403 . S
C1467 C1468 1.524 . S
C1467 C1471 1.400 . S
C1468 H1453 0.960 . S
C1468 H1454 0.960 . S
C1468 H1455 0.960 . S
C1468 C1467 1.524 . S
C1469 C1466 1.403 . S
C1469 C1470 1.392 . S
C1469 C1473 1.495 . S
C1470 C1469 1.392 . S
C1470 C1471 1.385 . S
C1470 C1472 1.478 . S
C1471 H1465 0.930 . S
C1471 C1467 1.400 . S
C1471 C1470 1.385 . S
C1472 C1470 1.478 . S
C1472 C1474 1.381 . S
C1472 C1478 1.383 . S
C1473 C1469 1.495 . S
C1473 H1479 0.959 . S
C1473 H1480 0.961 . S
C1473 H1481 0.960 . S
C1474 C1472 1.381 . S
C1474 C1475 1.394 . S
C1474 H1482 0.930 . S
C1475 C1474 1.394 . S
C1475 C1476 1.383 . S
C1475 H1483 0.929 . S
C1476 C1475 1.383 . S
C1476 C1477 1.377 . S
C1477 H1461 0.930 . S
C1477 C1476 1.377 . S
C1477 C1478 1.379 . S
C1478 H1462 0.931 . S
C1478 C1472 1.383 . S
C1478 C1477 1.379 . S
H1479 C1473 0.959 . S
H1480 C1473 0.961 . S
H1481 C1473 0.960 . S
H1482 C1474 0.930 . S
H1483 C1475 0.929 . S
H1484 C1492 0.929 . S
H1485 C1494 0.930 . S
H1486 C1496 0.930 . S
H1487 C1499 0.929 . S
H1488 C1502 0.930 . S
H1489 C1504 0.960 . S
H1490 C1504 0.960 . S
H1491 C1504 0.960 . S
C1492 H1484 0.929 . S
C1492 C1493 1.377 . S
C1492 C1494 1.384 . S
C1493 C1492 1.377 . S
C1493 C1499 1.390 . S
C1494 H1485 0.930 . S
C1494 C1492 1.384 . S
C1494 C1495 1.372 . S
C1495 C1494 1.372 . S
C1495 C1496 1.400 . S
C1495 C1500 1.490 . S
C1496 H1486 0.930 . S
C1496 C1495 1.400 . S
C1496 C1499 1.386 . S
H1497 C1513 0.930 . S
H1498 C1514 0.931 . S
C1499 H1487 0.929 . S
C1499 C1493 1.390 . S
C1499 C1496 1.386 . S
C1500 C1495 1.490 . S
C1500 C1502 1.395 . S
C1500 C1503 1.403 . S
H1501 C1507 0.930 . S
C1502 H1488 0.930 . S
C1502 C1500 1.395 . S
C1502 C1505 1.403 . S
C1503 C1500 1.403 . S
C1503 C1504 1.524 . S
C1503 C1507 1.400 . S
C1504 H1489 0.960 . S
C1504 H1490 0.960 . S
C1504 H1491 0.960 . S
C1504 C1503 1.524 . S
C1505 C1502 1.403 . S
C1505 C1506 1.392 . S
C1505 C1509 1.495 . S
C1506 C1505 1.392 . S
C1506 C1507 1.385 . S
C1506 C1508 1.478 . S
C1507 H1501 0.930 . S
C1507 C1503 1.400 . S
C1507 C1506 1.385 . S
C1508 C1506 1.478 . S
C1508 C1510 1.381 . S
C1508 C1514 1.383 . S
C1509 C1505 1.495 . S
C1509 H1515 0.959 . S
C1509 H1516 0.961 . S
C1509 H1517 0.960 . S
C1510 C1508 1.381 . S
C1510 C1511 1.394 . S
C1510 H1518 0.930 . S
C1511 C1510 1.394 . S
C1511 C1512 1.383 . S
C1511 H1519 0.929 . S
C1512 C1511 1.383 . S
C1512 C1513 1.377 . S
C1513 H1497 0.930 . S
C1513 C1512 1.377 . S
C1513 C1514 1.379 . S
C1514 H1498 0.931 . S
C1514 C1508 1.383 . S
C1514 C1513 1.379 . S
H1515 C1509 0.959 . S
H1516 C1509 0.961 . S
H1517 C1509 0.960 . S
H1518 C1510 0.930 . S
H1519 C1511 0.929 . S
H1520 C1528 0.929 . S
H1521 C1530 0.930 . S
H1522 C1532 0.930 . S
H1523 C1535 0.929 . S
H1524 C1538 0.930 . S
H1525 C1540 0.960 1_554 S
H1526 C1540 0.960 . S
H1527 C1540 0.981 . S
C1528 H1520 0.929 . S
C1528 C1529 1.377 . S
C1528 C1530 1.384 . S
C1529 C1528 1.377 . S
C1529 C1535 1.390 . S
C1530 H1521 0.930 . S
C1530 C1528 1.384 . S
C1530 C1531 1.372 . S
C1531 C1530 1.372 . S
C1531 C1532 1.400 . S
C1531 C1536 1.490 . S
C1532 H1522 0.930 . S
C1532 C1531 1.400 . S
C1532 C1535 1.386 . S
H1533 C1549 0.930 . S
H1534 C1550 0.931 . S
C1535 H1523 0.929 . S
C1535 C1529 1.390 . S
C1535 C1532 1.386 . S
C1536 C1531 1.490 . S
C1536 C1538 1.395 . S
C1536 C1539 1.403 . S
H1537 C1543 0.930 . S
C1538 H1524 0.930 . S
C1538 C1536 1.395 . S
C1538 C1541 1.403 1_556 S
C1539 C1536 1.403 . S
C1539 C1540 1.524 . S
C1539 C1543 1.400 1_556 S
C1540 H1525 0.960 1_556 S
C1540 H1526 0.960 . S
C1540 H1527 0.981 . S
C1540 C1539 1.524 . S
C1541 C1538 1.403 1_554 S
C1541 C1542 1.392 . S
C1541 C1545 1.495 . S
C1542 C1541 1.392 . S
C1542 C1543 1.385 . S
C1542 C1544 1.478 . S
C1543 H1537 0.930 . S
C1543 C1539 1.400 1_554 S
C1543 C1542 1.385 . S
C1544 C1542 1.478 . S
C1544 C1546 1.381 . S
C1544 C1550 1.383 . S
C1545 C1541 1.495 . S
C1545 H1551 0.959 1_554 S
C1545 H1552 0.961 . S
C1545 H1553 0.960 1_554 S
C1546 C1544 1.381 . S
C1546 C1547 1.394 . S
C1546 H1554 0.928 1_554 S
C1547 C1546 1.394 . S
C1547 C1548 1.383 . S
C1547 H1555 0.929 . S
C1548 C1547 1.383 . S
C1548 C1549 1.377 . S
C1549 H1533 0.930 . S
C1549 C1548 1.377 . S
C1549 C1550 1.379 . S
C1550 H1534 0.931 . S
C1550 C1544 1.383 . S
C1550 C1549 1.379 . S
H1551 C1545 0.959 1_556 S
H1552 C1545 0.961 . S
H1553 C1545 0.960 1_556 S
H1554 C1546 0.928 1_556 S
H1555 C1547 0.929 . S
H1556 C1564 0.929 . S
H1557 C1566 0.930 . S
H1558 C1568 0.930 . S
H1559 C1571 0.929 . S
H1560 C1574 0.930 . S
H1561 C1576 0.960 . S
H1562 C1576 0.960 . S
H1563 C1576 0.960 . S
C1564 H1556 0.929 . S
C1564 C1565 1.377 . S
C1564 C1566 1.384 . S
C1565 C1564 1.377 . S
C1565 C1571 1.390 . S
C1566 H1557 0.930 . S
C1566 C1564 1.384 . S
C1566 C1567 1.372 . S
C1567 C1566 1.372 . S
C1567 C1568 1.400 . S
C1567 C1572 1.490 . S
C1568 H1558 0.930 . S
C1568 C1567 1.400 . S
C1568 C1571 1.386 . S
H1569 C1585 0.930 . S
H1570 C1586 0.931 . S
C1571 H1559 0.929 . S
C1571 C1565 1.390 . S
C1571 C1568 1.386 . S
C1572 C1567 1.490 . S
C1572 C1574 1.395 . S
C1572 C1575 1.403 . S
H1573 C1579 0.930 . S
C1574 H1560 0.930 . S
C1574 C1572 1.395 . S
C1574 C1577 1.403 . S
C1575 C1572 1.403 . S
C1575 C1576 1.524 . S
C1575 C1579 1.400 . S
C1576 H1561 0.960 . S
C1576 H1562 0.960 . S
C1576 H1563 0.960 . S
C1576 C1575 1.524 . S
C1577 C1574 1.403 . S
C1577 C1578 1.392 . S
C1577 C1581 1.495 . S
C1578 C1577 1.392 . S
C1578 C1579 1.385 . S
C1578 C1580 1.478 . S
C1579 H1573 0.930 . S
C1579 C1575 1.400 . S
C1579 C1578 1.385 . S
C1580 C1578 1.478 . S
C1580 C1582 1.381 . S
C1580 C1586 1.383 . S
C1581 C1577 1.495 . S
C1581 H1587 0.959 . S
C1581 H1588 0.961 . S
C1581 H1589 0.960 . S
C1582 C1580 1.381 . S
C1582 C1583 1.394 . S
C1582 H1590 0.930 . S
C1583 C1582 1.394 . S
C1583 C1584 1.383 . S
C1583 H1591 0.929 . S
C1584 C1583 1.383 . S
C1584 C1585 1.377 . S
C1585 H1569 0.930 . S
C1585 C1584 1.377 . S
C1585 C1586 1.379 . S
C1586 H1570 0.931 . S
C1586 C1580 1.383 . S
C1586 C1585 1.379 . S
H1587 C1581 0.959 . S
H1588 C1581 0.961 . S
H1589 C1581 0.960 . S
H1590 C1582 0.930 . S
H1591 C1583 0.929 . S
H1592 C1600 0.929 . S
H1593 C1602 0.930 1_556 S
H1594 C1604 0.930 . S
H1595 C1607 0.929 . S
H1596 C1610 0.930 . S
H1597 C1612 0.960 . S
H1598 C1612 0.960 . S
H1599 C1612 0.960 . S
C1600 H1592 0.929 . S
C1600 C1601 1.377 . S
C1600 C1602 1.384 . S
C1601 C1600 1.377 . S
C1601 C1607 1.390 . S
C1602 H1593 0.930 1_554 S
C1602 C1600 1.384 . S
C1602 C1603 1.372 . S
C1603 C1602 1.372 . S
C1603 C1604 1.400 . S
C1603 C1608 1.490 . S
C1604 H1594 0.930 . S
C1604 C1603 1.400 . S
C1604 C1607 1.386 . S
H1605 C1621 0.930 . S
H1606 C1622 0.962 . S
C1607 H1595 0.929 . S
C1607 C1601 1.390 . S
C1607 C1604 1.386 . S
C1608 C1603 1.490 . S
C1608 C1610 1.395 1_554 S
C1608 C1611 1.403 . S
H1609 C1615 0.931 . S
C1610 H1596 0.930 . S
C1610 C1608 1.395 1_556 S
C1610 C1613 1.403 . S
C1611 C1608 1.403 . S
C1611 C1612 1.524 . S
C1611 C1615 1.400 1_554 S
C1612 H1597 0.960 . S
C1612 H1598 0.960 . S
C1612 H1599 0.960 . S
C1612 C1611 1.524 . S
C1613 C1610 1.403 . S
C1613 C1614 1.392 . S
C1613 C1617 1.495 . S
C1614 C1613 1.392 . S
C1614 C1615 1.385 . S
C1614 C1616 1.478 . S
C1615 H1609 0.931 . S
C1615 C1611 1.400 1_556 S
C1615 C1614 1.385 . S
C1616 C1614 1.478 . S
C1616 C1618 1.381 . S
C1616 C1622 1.383 . S
C1617 C1613 1.495 . S
C1617 H1623 0.959 . S
C1617 H1624 0.961 . S
C1617 H1625 0.960 . S
C1618 C1616 1.381 . S
C1618 C1619 1.394 . S
C1618 H1626 0.930 . S
C1619 C1618 1.394 . S
C1619 C1620 1.383 . S
C1619 H1627 0.929 . S
C1620 C1619 1.383 . S
C1620 C1621 1.377 . S
C1621 H1605 0.930 . S
C1621 C1620 1.377 . S
C1621 C1622 1.379 . S
C1622 H1606 0.962 . S
C1622 C1616 1.383 . S
C1622 C1621 1.379 . S
H1623 C1617 0.959 . S
H1624 C1617 0.961 . S
H1625 C1617 0.960 . S
H1626 C1618 0.930 . S
H1627 C1619 0.929 . S
H1628 C1636 0.929 . S
H1629 C1638 0.930 . S
H1630 C1640 0.930 . S
H1631 C1643 0.929 . S
H1632 C1646 0.930 . S
H1633 C1648 0.960 . S
H1634 C1648 0.960 . S
H1635 C1648 0.960 . S
C1636 H1628 0.929 . S
C1636 C1637 1.377 . S
C1636 C1638 1.384 . S
C1637 C1636 1.377 . S
C1637 C1643 1.390 . S
C1638 H1629 0.930 . S
C1638 C1636 1.384 . S
C1638 C1639 1.372 . S
C1639 C1638 1.372 . S
C1639 C1640 1.400 . S
C1639 C1644 1.490 . S
C1640 H1630 0.930 . S
C1640 C1639 1.400 . S
C1640 C1643 1.386 . S
H1641 C1657 0.930 . S
H1642 C1658 0.931 . S
C1643 H1631 0.929 . S
C1643 C1637 1.390 . S
C1643 C1640 1.386 . S
C1644 C1639 1.490 . S
C1644 C1646 1.395 . S
C1644 C1647 1.403 . S
H1645 C1651 0.930 . S
C1646 H1632 0.930 . S
C1646 C1644 1.395 . S
C1646 C1649 1.403 . S
C1647 C1644 1.403 . S
C1647 C1648 1.524 . S
C1647 C1651 1.400 . S
C1648 H1633 0.960 . S
C1648 H1634 0.960 . S
C1648 H1635 0.960 . S
C1648 C1647 1.524 . S
C1649 C1646 1.403 . S
C1649 C1650 1.392 . S
C1649 C1653 1.495 . S
C1650 C1649 1.392 . S
C1650 C1651 1.385 . S
C1650 C1652 1.478 . S
C1651 H1645 0.930 . S
C1651 C1647 1.400 . S
C1651 C1650 1.385 . S
C1652 C1650 1.478 . S
C1652 C1654 1.381 . S
C1652 C1658 1.383 . S
C1653 C1649 1.495 . S
C1653 H1659 0.959 . S
C1653 H1660 0.961 . S
C1653 H1661 0.960 . S
C1654 C1652 1.381 . S
C1654 C1655 1.394 . S
C1654 H1662 0.930 . S
C1655 C1654 1.394 . S
C1655 C1656 1.383 . S
C1655 H1663 0.929 . S
C1656 C1655 1.383 . S
C1656 C1657 1.377 . S
C1657 H1641 0.930 . S
C1657 C1656 1.377 . S
C1657 C1658 1.379 . S
C1658 H1642 0.931 . S
C1658 C1652 1.383 . S
C1658 C1657 1.379 . S
H1659 C1653 0.959 . S
H1660 C1653 0.961 . S
H1661 C1653 0.960 . S
H1662 C1654 0.930 . S
H1663 C1655 0.929 . S
H1664 C1672 0.929 . S
H1665 C1674 0.930 . S
H1666 C1676 0.930 . S
H1667 C1679 0.929 . S
H1668 C1682 0.930 . S
H1669 C1684 0.960 . S
H1670 C1684 0.960 . S
H1671 C1684 0.960 . S
C1672 H1664 0.929 . S
C1672 C1673 1.377 . S
C1672 C1674 1.384 . S
C1673 C1672 1.377 . S
C1673 C1679 1.390 . S
C1674 H1665 0.930 . S
C1674 C1672 1.384 . S
C1674 C1675 1.372 . S
C1675 C1674 1.372 . S
C1675 C1676 1.400 . S
C1675 C1680 1.490 . S
C1676 H1666 0.930 . S
C1676 C1675 1.400 . S
C1676 C1679 1.386 . S
H1677 C1693 0.930 . S
H1678 C1694 0.931 . S
C1679 H1667 0.929 . S
C1679 C1673 1.390 . S
C1679 C1676 1.386 . S
C1680 C1675 1.490 . S
C1680 C1682 1.395 1_554 S
C1680 C1683 1.403 . S
H1681 C1687 0.930 . S
C1682 H1668 0.930 . S
C1682 C1680 1.395 1_556 S
C1682 C1685 1.403 . S
C1683 C1680 1.403 . S
C1683 C1684 1.524 . S
C1683 C1687 1.400 . S
C1684 H1669 0.960 . S
C1684 H1670 0.960 . S
C1684 H1671 0.960 . S
C1684 C1683 1.524 . S
C1685 C1682 1.403 . S
C1685 C1686 1.392 . S
C1685 C1689 1.495 . S
C1686 C1685 1.392 . S
C1686 C1687 1.385 1_556 S
C1686 C1688 1.478 . S
C1687 H1681 0.930 . S
C1687 C1683 1.400 . S
C1687 C1686 1.385 1_554 S
C1688 C1686 1.478 . S
C1688 C1690 1.381 . S
C1688 C1694 1.383 . S
C1689 C1685 1.495 . S
C1689 H1695 0.959 . S
C1689 H1696 0.961 . S
C1689 H1697 0.960 . S
C1690 C1688 1.381 . S
C1690 C1691 1.394 . S
C1690 H1698 0.930 . S
C1691 C1690 1.394 . S
C1691 C1692 1.383 . S
C1691 H1699 0.929 . S
C1692 C1691 1.383 . S
C1692 C1693 1.377 . S
C1693 H1677 0.930 . S
C1693 C1692 1.377 . S
C1693 C1694 1.379 . S
C1694 H1678 0.931 . S
C1694 C1688 1.383 . S
C1694 C1693 1.379 . S
H1695 C1689 0.959 . S
H1696 C1689 0.961 . S
H1697 C1689 0.960 . S
H1698 C1690 0.930 . S
H1699 C1691 0.929 . S
H1700 C1708 0.929 . S
H1701 C1710 0.930 . S
H1702 C1712 0.930 . S
H1703 C1715 0.929 . S
H1704 C1718 0.930 . S
H1705 C1720 0.960 . S
H1706 C1720 0.960 . S
H1707 C1720 0.960 . S
C1708 H1700 0.929 . S
C1708 C1709 1.377 . S
C1708 C1710 1.384 . S
C1709 C1708 1.377 . S
C1709 C1715 1.390 . S
C1710 H1701 0.930 . S
C1710 C1708 1.384 . S
C1710 C1711 1.372 . S
C1711 C1710 1.372 . S
C1711 C1712 1.400 . S
C1711 C1716 1.490 . S
C1712 H1702 0.930 . S
C1712 C1711 1.400 . S
C1712 C1715 1.386 . S
H1713 C1729 0.930 . S
H1714 C1730 0.931 . S
C1715 H1703 0.929 . S
C1715 C1709 1.390 . S
C1715 C1712 1.386 . S
C1716 C1711 1.490 . S
C1716 C1718 1.395 . S
C1716 C1719 1.403 . S
H1717 C1723 0.930 . S
C1718 H1704 0.930 . S
C1718 C1716 1.395 . S
C1718 C1721 1.403 . S
C1719 C1716 1.403 . S
C1719 C1720 1.524 . S
C1719 C1723 1.400 . S
C1720 H1705 0.960 . S
C1720 H1706 0.960 . S
C1720 H1707 0.960 . S
C1720 C1719 1.524 . S
C1721 C1718 1.403 . S
C1721 C1722 1.392 . S
C1721 C1725 1.495 . S
C1722 C1721 1.392 . S
C1722 C1723 1.385 . S
C1722 C1724 1.478 . S
C1723 H1717 0.930 . S
C1723 C1719 1.400 . S
C1723 C1722 1.385 . S
C1724 C1722 1.478 . S
C1724 C1726 1.381 . S
C1724 C1730 1.383 . S
C1725 C1721 1.495 . S
C1725 H1731 0.959 . S
C1725 H1732 0.961 . S
C1725 H1733 0.960 . S
C1726 C1724 1.381 . S
C1726 C1727 1.394 . S
C1726 H1734 0.930 . S
C1727 C1726 1.394 . S
C1727 C1728 1.383 . S
C1727 H1735 0.929 . S
C1728 C1727 1.383 . S
C1728 C1729 1.377 . S
C1729 H1713 0.930 . S
C1729 C1728 1.377 . S
C1729 C1730 1.379 . S
C1730 H1714 0.931 . S
C1730 C1724 1.383 . S
C1730 C1729 1.379 . S
H1731 C1725 0.959 . S
H1732 C1725 0.961 . S
H1733 C1725 0.960 . S
H1734 C1726 0.930 . S
H1735 C1727 0.929 . S
H1736 C1744 0.929 . S
H1737 C1746 0.930 1_556 S
H1738 C1748 0.930 . S
H1739 C1751 0.929 . S
H1740 C1754 0.930 . S
H1741 C1756 0.960 . S
H1742 C1756 0.960 . S
H1743 C1756 0.960 . S
C1744 H1736 0.929 . S
C1744 C1745 1.377 . S
C1744 C1746 1.384 . S
C1745 C1744 1.377 . S
C1745 C1751 1.390 . S
C1746 H1737 0.930 1_554 S
C1746 C1744 1.384 . S
C1746 C1747 1.372 . S
C1747 C1746 1.372 . S
C1747 C1748 1.400 . S
C1747 C1752 1.490 . S
C1748 H1738 0.930 . S
C1748 C1747 1.400 . S
C1748 C1751 1.386 . S
H1749 C1765 0.930 . S
H1750 C1766 0.948 . S
C1751 H1739 0.929 . S
C1751 C1745 1.390 . S
C1751 C1748 1.386 . S
C1752 C1747 1.490 . S
C1752 C1754 1.395 1_554 S
C1752 C1755 1.403 . S
H1753 C1759 0.930 . S
C1754 H1740 0.930 . S
C1754 C1752 1.395 1_556 S
C1754 C1757 1.403 . S
C1755 C1752 1.403 . S
C1755 C1756 1.524 . S
C1755 C1759 1.400 1_554 S
C1756 H1741 0.960 . S
C1756 H1742 0.960 . S
C1756 H1743 0.960 . S
C1756 C1755 1.524 . S
C1757 C1754 1.403 . S
C1757 C1758 1.392 . S
C1757 C1761 1.495 . S
C1758 C1757 1.392 . S
C1758 C1759 1.385 . S
C1758 C1760 1.478 . S
C1759 H1753 0.930 . S
C1759 C1755 1.400 1_556 S
C1759 C1758 1.385 . S
C1760 C1758 1.478 . S
C1760 C1762 1.381 . S
C1760 C1766 1.383 . S
C1761 C1757 1.495 . S
C1761 H1767 0.959 . S
C1761 H1768 0.961 . S
C1761 H1769 0.960 . S
C1762 C1760 1.381 . S
C1762 C1763 1.394 . S
C1762 H1770 0.930 . S
C1763 C1762 1.394 . S
C1763 C1764 1.383 . S
C1763 H1771 0.929 . S
C1764 C1763 1.383 . S
C1764 C1765 1.377 . S
C1765 H1749 0.930 . S
C1765 C1764 1.377 . S
C1765 C1766 1.379 . S
C1766 H1750 0.948 . S
C1766 C1760 1.383 . S
C1766 C1765 1.379 . S
H1767 C1761 0.959 . S
H1768 C1761 0.961 . S
H1769 C1761 0.960 . S
H1770 C1762 0.930 . S
H1771 C1763 0.929 . S
H1772 C1780 0.929 . S
H1773 C1782 0.930 . S
H1774 C1784 0.930 . S
H1775 C1787 0.929 . S
H1776 C1790 0.930 . S
H1777 C1792 0.960 . S
H1778 C1792 0.960 . S
H1779 C1792 0.960 . S
C1780 H1772 0.929 . S
C1780 C1781 1.377 . S
C1780 C1782 1.384 . S
C1781 C1780 1.377 . S
C1781 C1787 1.390 . S
C1782 H1773 0.930 . S
C1782 C1780 1.384 . S
C1782 C1783 1.372 . S
C1783 C1782 1.372 . S
C1783 C1784 1.400 . S
C1783 C1788 1.490 . S
C1784 H1774 0.930 . S
C1784 C1783 1.400 . S
C1784 C1787 1.386 . S
H1785 C1801 0.930 . S
H1786 C1802 0.931 . S
C1787 H1775 0.929 . S
C1787 C1781 1.390 . S
C1787 C1784 1.386 . S
C1788 C1783 1.490 . S
C1788 C1790 1.395 . S
C1788 C1791 1.403 . S
H1789 C1795 0.930 . S
C1790 H1776 0.930 . S
C1790 C1788 1.395 . S
C1790 C1793 1.403 . S
C1791 C1788 1.403 . S
C1791 C1792 1.524 . S
C1791 C1795 1.400 . S
C1792 H1777 0.960 . S
C1792 H1778 0.960 . S
C1792 H1779 0.960 . S
C1792 C1791 1.524 . S
C1793 C1790 1.403 . S
C1793 C1794 1.392 . S
C1793 C1797 1.495 . S
C1794 C1793 1.392 . S
C1794 C1795 1.385 . S
C1794 C1796 1.478 . S
C1795 H1789 0.930 . S
C1795 C1791 1.400 . S
C1795 C1794 1.385 . S
C1796 C1794 1.478 . S
C1796 C1798 1.381 . S
C1796 C1802 1.383 . S
C1797 C1793 1.495 . S
C1797 H1803 0.959 . S
C1797 H1804 0.961 . S
C1797 H1805 0.960 . S
C1798 C1796 1.381 . S
C1798 C1799 1.394 . S
C1798 H1806 0.930 . S
C1799 C1798 1.394 . S
C1799 C1800 1.383 . S
C1799 H1807 0.929 . S
C1800 C1799 1.383 . S
C1800 C1801 1.377 . S
C1801 H1785 0.930 . S
C1801 C1800 1.377 . S
C1801 C1802 1.379 . S
C1802 H1786 0.931 . S
C1802 C1796 1.383 . S
C1802 C1801 1.379 . S
H1803 C1797 0.959 . S
H1804 C1797 0.961 . S
H1805 C1797 0.960 . S
H1806 C1798 0.930 . S
H1807 C1799 0.929 . S
H1808 C1816 0.929 . S
H1809 C1818 0.930 . S
H1810 C1820 0.930 . S
H1811 C1823 0.929 . S
H1812 C1826 0.930 . S
H1813 C1828 0.960 . S
H1814 C1828 0.960 . S
H1815 C1828 0.960 . S
C1816 H1808 0.929 . S
C1816 C1817 1.377 . S
C1816 C1818 1.384 . S
C1817 C1816 1.377 . S
C1817 C1823 1.390 . S
C1818 H1809 0.930 . S
C1818 C1816 1.384 . S
C1818 C1819 1.372 . S
C1819 C1818 1.372 . S
C1819 C1820 1.400 . S
C1819 C1824 1.490 . S
C1820 H1810 0.930 . S
C1820 C1819 1.400 . S
C1820 C1823 1.386 . S
H1821 C1837 0.930 . S
H1822 C1838 0.931 . S
C1823 H1811 0.929 . S
C1823 C1817 1.390 . S
C1823 C1820 1.386 . S
C1824 C1819 1.490 . S
C1824 C1826 1.395 1_556 S
C1824 C1827 1.403 . S
H1825 C1831 0.930 . S
C1826 H1812 0.930 . S
C1826 C1824 1.395 1_554 S
C1826 C1829 1.403 . S
C1827 C1824 1.403 . S
C1827 C1828 1.524 . S
C1827 C1831 1.400 . S
C1828 H1813 0.960 . S
C1828 H1814 0.960 . S
C1828 H1815 0.960 . S
C1828 C1827 1.524 . S
C1829 C1826 1.403 . S
C1829 C1830 1.392 . S
C1829 C1833 1.495 . S
C1830 C1829 1.392 . S
C1830 C1831 1.385 1_554 S
C1830 C1832 1.478 . S
C1831 H1825 0.930 . S
C1831 C1827 1.400 . S
C1831 C1830 1.385 1_556 S
C1832 C1830 1.478 . S
C1832 C1834 1.381 . S
C1832 C1838 1.383 . S
C1833 C1829 1.495 . S
C1833 H1839 0.959 . S
C1833 H1840 0.961 . S
C1833 H1841 0.960 . S
C1834 C1832 1.381 . S
C1834 C1835 1.394 . S
C1834 H1842 0.930 . S
C1835 C1834 1.394 . S
C1835 C1836 1.383 . S
C1835 H1843 0.929 . S
C1836 C1835 1.383 . S
C1836 C1837 1.377 . S
C1837 H1821 0.930 . S
C1837 C1836 1.377 . S
C1837 C1838 1.379 . S
C1838 H1822 0.931 . S
C1838 C1832 1.383 . S
C1838 C1837 1.379 . S
H1839 C1833 0.959 . S
H1840 C1833 0.961 . S
H1841 C1833 0.960 . S
H1842 C1834 0.930 . S
H1843 C1835 0.929 . S
H1844 C1852 0.929 . S
H1845 C1854 0.930 . S
H1846 C1856 0.930 . S
H1847 C1859 0.929 . S
H1848 C1862 0.930 . S
H1849 C1864 0.960 . S
H1850 C1864 0.960 . S
H1851 C1864 0.960 . S
C1852 H1844 0.929 . S
C1852 C1853 1.377 . S
C1852 C1854 1.384 . S
C1853 C1852 1.377 . S
C1853 C1859 1.390 . S
C1854 H1845 0.930 . S
C1854 C1852 1.384 . S
C1854 C1855 1.372 . S
C1855 C1854 1.372 . S
C1855 C1856 1.400 . S
C1855 C1860 1.490 . S
C1856 H1846 0.930 . S
C1856 C1855 1.400 . S
C1856 C1859 1.386 . S
H1857 C1873 0.930 . S
H1858 C1874 0.931 . S
C1859 H1847 0.929 . S
C1859 C1853 1.390 . S
C1859 C1856 1.386 . S
C1860 C1855 1.490 . S
C1860 C1862 1.395 . S
C1860 C1863 1.403 . S
H1861 C1867 0.930 . S
C1862 H1848 0.930 . S
C1862 C1860 1.395 . S
C1862 C1865 1.403 . S
C1863 C1860 1.403 . S
C1863 C1864 1.524 . S
C1863 C1867 1.400 . S
C1864 H1849 0.960 . S
C1864 H1850 0.960 . S
C1864 H1851 0.960 . S
C1864 C1863 1.524 . S
C1865 C1862 1.403 . S
C1865 C1866 1.392 . S
C1865 C1869 1.495 . S
C1866 C1865 1.392 . S
C1866 C1867 1.385 . S
C1866 C1868 1.478 . S
C1867 H1861 0.930 . S
C1867 C1863 1.400 . S
C1867 C1866 1.385 . S
C1868 C1866 1.478 . S
C1868 C1870 1.381 . S
C1868 C1874 1.383 . S
C1869 C1865 1.495 . S
C1869 H1875 0.959 . S
C1869 H1876 0.961 . S
C1869 H1877 0.960 . S
C1870 C1868 1.381 . S
C1870 C1871 1.394 . S
C1870 H1878 0.930 . S
C1871 C1870 1.394 . S
C1871 C1872 1.383 . S
C1871 H1879 0.929 . S
C1872 C1871 1.383 . S
C1872 C1873 1.377 . S
C1873 H1857 0.930 . S
C1873 C1872 1.377 . S
C1873 C1874 1.379 . S
C1874 H1858 0.931 . S
C1874 C1868 1.383 . S
C1874 C1873 1.379 . S
H1875 C1869 0.959 . S
H1876 C1869 0.961 . S
H1877 C1869 0.960 . S
H1878 C1870 0.930 . S
H1879 C1871 0.929 . S
H1880 C1888 0.929 . S
H1881 C1890 0.930 . S
H1882 C1892 0.930 . S
H1883 C1895 0.929 . S
H1884 C1898 0.930 . S
H1885 C1900 0.960 . S
H1886 C1900 0.960 . S
H1887 C1900 0.960 . S
C1888 H1880 0.929 . S
C1888 C1889 1.377 . S
C1888 C1890 1.384 . S
C1889 C1888 1.377 . S
C1889 C1895 1.390 . S
C1890 H1881 0.930 . S
C1890 C1888 1.384 . S
C1890 C1891 1.372 . S
C1891 C1890 1.372 . S
C1891 C1892 1.400 . S
C1891 C1896 1.490 . S
C1892 H1882 0.930 . S
C1892 C1891 1.400 . S
C1892 C1895 1.386 . S
H1893 C1909 0.930 . S
H1894 C1910 0.931 . S
C1895 H1883 0.929 . S
C1895 C1889 1.390 . S
C1895 C1892 1.386 . S
C1896 C1891 1.490 . S
C1896 C1898 1.395 1_554 S
C1896 C1899 1.403 . S
H1897 C1903 0.930 . S
C1898 H1884 0.930 . S
C1898 C1896 1.395 1_556 S
C1898 C1901 1.403 . S
C1899 C1896 1.403 . S
C1899 C1900 1.524 . S
C1899 C1903 1.400 . S
C1900 H1885 0.960 . S
C1900 H1886 0.960 . S
C1900 H1887 0.960 . S
C1900 C1899 1.524 . S
C1901 C1898 1.403 . S
C1901 C1902 1.392 . S
C1901 C1905 1.495 . S
C1902 C1901 1.392 . S
C1902 C1903 1.385 1_556 S
C1902 C1904 1.478 . S
C1903 H1897 0.930 . S
C1903 C1899 1.400 . S
C1903 C1902 1.385 1_554 S
C1904 C1902 1.478 . S
C1904 C1906 1.381 . S
C1904 C1910 1.383 . S
C1905 C1901 1.495 . S
C1905 H1911 0.959 . S
C1905 H1912 0.961 . S
C1905 H1913 0.960 . S
C1906 C1904 1.381 . S
C1906 C1907 1.394 . S
C1906 H1914 0.930 . S
C1907 C1906 1.394 . S
C1907 C1908 1.383 . S
C1907 H1915 0.929 . S
C1908 C1907 1.383 . S
C1908 C1909 1.377 . S
C1909 H1893 0.930 . S
C1909 C1908 1.377 . S
C1909 C1910 1.379 . S
C1910 H1894 0.931 . S
C1910 C1904 1.383 . S
C1910 C1909 1.379 . S
H1911 C1905 0.959 . S
H1912 C1905 0.961 . S
H1913 C1905 0.960 . S
H1914 C1906 0.930 . S
H1915 C1907 0.929 . S
H1916 C1924 0.929 . S
H1917 C1926 0.930 . S
H1918 C1928 0.930 . S
H1919 C1931 0.929 . S
H1920 C1934 0.930 . S
H1921 C1936 0.960 . S
H1922 C1936 0.960 . S
H1923 C1936 0.960 . S
C1924 H1916 0.929 . S
C1924 C1925 1.377 . S
C1924 C1926 1.384 . S
C1925 C1924 1.377 . S
C1925 C1931 1.390 . S
C1926 H1917 0.930 . S
C1926 C1924 1.384 . S
C1926 C1927 1.372 . S
C1927 C1926 1.372 . S
C1927 C1928 1.400 . S
C1927 C1932 1.490 . S
C1928 H1918 0.930 . S
C1928 C1927 1.400 . S
C1928 C1931 1.386 . S
H1929 C1945 0.930 . S
H1930 C1946 0.931 . S
C1931 H1919 0.929 . S
C1931 C1925 1.390 . S
C1931 C1928 1.386 . S
C1932 C1927 1.490 . S
C1932 C1934 1.395 . S
C1932 C1935 1.403 . S
H1933 C1939 0.930 . S
C1934 H1920 0.930 . S
C1934 C1932 1.395 . S
C1934 C1937 1.403 . S
C1935 C1932 1.403 . S
C1935 C1936 1.524 . S
C1935 C1939 1.400 . S
C1936 H1921 0.960 . S
C1936 H1922 0.960 . S
C1936 H1923 0.960 . S
C1936 C1935 1.524 . S
C1937 C1934 1.403 . S
C1937 C1938 1.392 . S
C1937 C1941 1.495 . S
C1938 C1937 1.392 . S
C1938 C1939 1.385 . S
C1938 C1940 1.478 . S
C1939 H1933 0.930 . S
C1939 C1935 1.400 . S
C1939 C1938 1.385 . S
C1940 C1938 1.478 . S
C1940 C1942 1.381 . S
C1940 C1946 1.383 . S
C1941 C1937 1.495 . S
C1941 H1947 0.959 . S
C1941 H1948 0.961 . S
C1941 H1949 0.960 . S
C1942 C1940 1.381 . S
C1942 C1943 1.394 . S
C1942 H1950 0.930 . S
C1943 C1942 1.394 . S
C1943 C1944 1.383 . S
C1943 H1951 0.929 . S
C1944 C1943 1.383 . S
C1944 C1945 1.377 . S
C1945 H1929 0.930 . S
C1945 C1944 1.377 . S
C1945 C1946 1.379 . S
C1946 H1930 0.931 . S
C1946 C1940 1.383 . S
C1946 C1945 1.379 . S
H1947 C1941 0.959 . S
H1948 C1941 0.961 . S
H1949 C1941 0.960 . S
H1950 C1942 0.930 . S
H1951 C1943 0.929 . S
H1952 C1960 0.929 . S
H1953 C1962 0.930 1_554 S
H1954 C1964 0.930 . S
H1955 C1967 0.929 . S
H1956 C1970 0.930 . S
H1957 C1972 0.960 . S
H1958 C1972 0.960 . S
H1959 C1972 0.960 . S
C1960 H1952 0.929 . S
C1960 C1961 1.377 . S
C1960 C1962 1.384 . S
C1961 C1960 1.377 . S
C1961 C1967 1.390 . S
C1962 H1953 0.930 1_556 S
C1962 C1960 1.384 . S
C1962 C1963 1.372 . S
C1963 C1962 1.372 . S
C1963 C1964 1.400 . S
C1963 C1968 1.490 . S
C1964 H1954 0.930 . S
C1964 C1963 1.400 . S
C1964 C1967 1.386 . S
H1965 C1981 0.930 . S
H1966 C1982 0.931 1_556 S
C1967 H1955 0.929 . S
C1967 C1961 1.390 . S
C1967 C1964 1.386 . S
C1968 C1963 1.490 . S
C1968 C1970 1.395 1_556 S
C1968 C1971 1.403 . S
H1969 C1975 0.930 . S
C1970 H1956 0.930 . S
C1970 C1968 1.395 1_554 S
C1970 C1973 1.403 1_545 S
C1971 C1968 1.403 . S
C1971 C1972 1.524 . S
C1971 C1975 1.400 1_545 S
C1972 H1957 0.960 . S
C1972 H1958 0.960 . S
C1972 H1959 0.960 . S
C1972 C1971 1.524 . S
C1973 C1970 1.403 1_565 S
C1973 C1974 1.392 . S
C1973 C1977 1.495 . S
C1974 C1973 1.392 . S
C1974 C1975 1.385 1_554 S
C1974 C1976 1.478 . S
C1975 H1969 0.930 . S
C1975 C1971 1.400 1_565 S
C1975 C1974 1.385 1_556 S
C1976 C1974 1.478 . S
C1976 C1978 1.381 . S
C1976 C1982 1.383 . S
C1977 C1973 1.495 . S
C1977 H1983 0.977 . S
C1977 H1984 0.961 . S
C1977 H1985 0.960 . S
C1978 C1976 1.381 . S
C1978 C1979 1.394 . S
C1978 H1986 0.930 . S
C1979 C1978 1.394 . S
C1979 C1980 1.383 . S
C1979 H1987 0.929 . S
C1980 C1979 1.383 . S
C1980 C1981 1.377 . S
C1981 H1965 0.930 . S
C1981 C1980 1.377 . S
C1981 C1982 1.379 . S
C1982 H1966 0.931 1_554 S
C1982 C1976 1.383 . S
C1982 C1981 1.379 . S
H1983 C1977 0.977 . S
H1984 C1977 0.961 . S
H1985 C1977 0.960 . S
H1986 C1978 0.930 . S
H1987 C1979 0.929 . S
H1988 C1996 0.929 . S
H1989 C1998 0.930 . S
H1990 C2000 0.930 . S
H1991 C2003 0.929 . S
H1992 C2006 0.930 . S
H1993 C2008 0.960 1_545 S
H1994 C2008 0.960 . S
H1995 C2008 0.960 . S
C1996 H1988 0.929 . S
C1996 C1997 1.377 . S
C1996 C1998 1.384 . S
C1997 C1996 1.377 . S
C1997 C2003 1.390 . S
C1998 H1989 0.930 . S
C1998 C1996 1.384 . S
C1998 C1999 1.372 . S
C1999 C1998 1.372 . S
C1999 C2000 1.400 . S
C1999 C2004 1.490 . S
C2000 H1990 0.930 . S
C2000 C1999 1.400 . S
C2000 C2003 1.386 . S
H2001 C2017 0.930 . S
H2002 C2018 0.931 . S
C2003 H1991 0.929 . S
C2003 C1997 1.390 . S
C2003 C2000 1.386 . S
C2004 C1999 1.490 . S
C2004 C2006 1.395 . S
C2004 C2007 1.403 . S
H2005 C2011 0.930 . S
C2006 H1992 0.930 . S
C2006 C2004 1.395 . S
C2006 C2009 1.403 1_565 S
C2007 C2004 1.403 . S
C2007 C2008 1.524 . S
C2007 C2011 1.400 1_565 S
C2008 H1993 0.960 1_565 S
C2008 H1994 0.960 . S
C2008 H1995 0.960 . S
C2008 C2007 1.524 . S
C2009 C2006 1.403 1_545 S
C2009 C2010 1.392 . S
C2009 C2013 1.495 . S
C2010 C2009 1.392 . S
C2010 C2011 1.385 . S
C2010 C2012 1.478 . S
C2011 H2005 0.930 . S
C2011 C2007 1.400 1_545 S
C2011 C2010 1.385 . S
C2012 C2010 1.478 . S
C2012 C2014 1.381 . S
C2012 C2018 1.383 . S
C2013 C2009 1.495 . S
C2013 H2019 0.959 1_545 S
C2013 H2020 0.961 . S
C2013 H2021 0.960 . S
C2014 C2012 1.381 . S
C2014 C2015 1.394 . S
C2014 H2022 0.930 . S
C2015 C2014 1.394 . S
C2015 C2016 1.383 . S
C2015 H2023 0.929 . S
C2016 C2015 1.383 . S
C2016 C2017 1.377 . S
C2017 H2001 0.930 . S
C2017 C2016 1.377 . S
C2017 C2018 1.379 . S
C2018 H2002 0.931 . S
C2018 C2012 1.383 . S
C2018 C2017 1.379 . S
H2019 C2013 0.959 1_565 S
H2020 C2013 0.961 . S
H2021 C2013 0.960 . S
H2022 C2014 0.930 . S
H2023 C2015 0.929 . S
H2024 C2032 0.929 . S
H2025 C2034 0.930 1_556 S
H2026 C2036 0.930 . S
H2027 C2039 0.929 . S
H2028 C2042 0.930 . S
H2029 C2044 0.943 1_556 S
H2030 C2044 0.934 1_556 S
H2031 C2044 1.006 . S
C2032 H2024 0.929 . S
C2032 C2033 1.377 . S
C2032 C2034 1.384 . S
C2033 C2032 1.377 . S
C2033 C2039 1.390 . S
C2034 H2025 0.930 1_554 S
C2034 C2032 1.384 . S
C2034 C2035 1.372 . S
C2035 C2034 1.372 . S
C2035 C2036 1.400 . S
C2035 C2040 1.490 . S
C2036 H2026 0.930 . S
C2036 C2035 1.400 . S
C2036 C2039 1.386 . S
H2037 C2053 0.930 . S
H2038 C2054 0.931 1_554 S
C2039 H2027 0.929 . S
C2039 C2033 1.390 . S
C2039 C2036 1.386 . S
C2040 C2035 1.490 . S
C2040 C2042 1.395 . S
C2040 C2043 1.416 . S
H2041 C2047 0.930 . S
C2042 H2028 0.930 . S
C2042 C2040 1.395 . S
C2042 C2045 1.403 1_564 S
C2043 C2040 1.416 . S
C2043 C2044 1.524 . S
C2043 C2047 1.385 1_564 S
C2044 H2029 0.943 1_554 S
C2044 H2030 0.934 1_554 S
C2044 H2031 1.006 . S
C2044 C2043 1.524 . S
C2045 C2042 1.403 1_546 S
C2045 C2046 1.392 . S
C2045 C2049 1.495 . S
C2046 C2045 1.392 . S
C2046 C2047 1.385 . S
C2046 C2048 1.478 . S
C2047 H2041 0.930 . S
C2047 C2043 1.385 1_546 S
C2047 C2046 1.385 . S
C2048 C2046 1.478 . S
C2048 C2050 1.381 . S
C2048 C2054 1.383 . S
C2049 C2045 1.495 . S
C2049 H2055 0.959 1_556 S
C2049 H2056 0.961 1_556 S
C2049 H2057 0.960 . S
C2050 C2048 1.381 . S
C2050 C2051 1.394 . S
C2050 H2058 0.930 . S
C2051 C2050 1.394 . S
C2051 C2052 1.383 . S
C2051 H2059 0.929 . S
C2052 C2051 1.383 . S
C2052 C2053 1.377 . S
C2053 H2037 0.930 . S
C2053 C2052 1.377 . S
C2053 C2054 1.379 . S
C2054 H2038 0.931 1_556 S
C2054 C2048 1.383 . S
C2054 C2053 1.379 . S
H2055 C2049 0.959 1_554 S
H2056 C2049 0.961 1_554 S
H2057 C2049 0.960 . S
H2058 C2050 0.930 . S
H2059 C2051 0.929 . S
H2060 C2068 0.929 . S
H2061 C2070 0.930 . S
H2062 C2072 0.930 . S
H2063 C2075 0.929 . S
H2064 C2078 0.930 . S
H2065 C2080 0.960 . S
H2066 C2080 0.960 . S
H2067 C2080 0.960 . S
C2068 H2060 0.929 . S
C2068 C2069 1.377 . S
C2068 C2070 1.384 . S
C2069 C2068 1.377 . S
C2069 C2075 1.390 . S
C2070 H2061 0.930 . S
C2070 C2068 1.384 . S
C2070 C2071 1.372 . S
C2071 C2070 1.372 . S
C2071 C2072 1.400 . S
C2071 C2076 1.490 . S
C2072 H2062 0.930 . S
C2072 C2071 1.400 . S
C2072 C2075 1.386 . S
H2073 C2089 0.930 . S
H2074 C2090 0.931 . S
C2075 H2063 0.929 . S
C2075 C2069 1.390 . S
C2075 C2072 1.386 . S
C2076 C2071 1.490 . S
C2076 C2078 1.395 . S
C2076 C2079 1.403 . S
H2077 C2083 0.930 . S
C2078 H2064 0.930 . S
C2078 C2076 1.395 . S
C2078 C2081 1.403 1_545 S
C2079 C2076 1.403 . S
C2079 C2080 1.524 . S
C2079 C2083 1.400 1_545 S
C2080 H2065 0.960 . S
C2080 H2066 0.960 . S
C2080 H2067 0.960 . S
C2080 C2079 1.524 . S
C2081 C2078 1.403 1_565 S
C2081 C2082 1.392 . S
C2081 C2085 1.495 . S
C2082 C2081 1.392 . S
C2082 C2083 1.385 . S
C2082 C2084 1.478 . S
C2083 H2077 0.930 . S
C2083 C2079 1.400 1_565 S
C2083 C2082 1.385 . S
C2084 C2082 1.478 . S
C2084 C2086 1.381 . S
C2084 C2090 1.383 . S
C2085 C2081 1.495 . S
C2085 H2091 0.959 . S
C2085 H2092 0.961 . S
C2085 H2093 0.960 . S
C2086 C2084 1.381 . S
C2086 C2087 1.394 . S
C2086 H2094 0.930 . S
C2087 C2086 1.394 . S
C2087 C2088 1.383 . S
C2087 H2095 0.929 . S
C2088 C2087 1.383 . S
C2088 C2089 1.377 . S
C2089 H2073 0.930 . S
C2089 C2088 1.377 . S
C2089 C2090 1.379 . S
C2090 H2074 0.931 . S
C2090 C2084 1.383 . S
C2090 C2089 1.379 . S
H2091 C2085 0.959 . S
H2092 C2085 0.961 . S
H2093 C2085 0.960 . S
H2094 C2086 0.930 . S
H2095 C2087 0.929 . S
C953 C52 1.535 . S
C972 C406 1.537 . S
C989 C111 1.531 . S
C1008 C465 1.529 . S
C1025 C288 1.536 . S
C1044 C170 1.530 . S
C1061 C347 1.537 . S
C1080 C229 1.538 . S
C1097 C878 1.538 . S
C1116 C524 1.521 . S
C1133 C937 1.537 . S
C1152 C583 1.520 . S
C1169 C642 1.532 . S
C1188 C760 1.528 . S
C1205 C701 1.531 . S
C1224 C819 1.532 . S
C1241 C33 1.602 . S
C1260 C298 1.588 . S
C1277 C92 1.602 . S
C1296 C239 1.579 . S
C1313 C151 1.603 . S
C1332 C416 1.570 . S
C1349 C357 1.585 . S
C1368 C210 1.608 . S
C1385 C770 1.591 . S
C1404 C505 1.601 . S
C1421 C711 1.584 . S
C1440 C564 1.596 . S
C1457 C623 1.602 . S
C1476 C888 1.592 . S
C1493 C829 1.584 . S
C1512 C682 1.604 . S
C1529 C713 1.565 . S
C1548 C5 1.565 . S
C1565 C64 1.565 . S
C1584 C772 1.555 . S
C1601 C831 1.561 . S
C1620 C123 1.564 . S
C1637 C890 1.564 . S
C1656 C182 1.558 . S
C1673 C477 1.568 . S
C1692 C241 1.566 . S
C1709 C536 1.566 . S
C1728 C300 1.567 . S
C1745 C359 1.561 . S
C1764 C595 1.563 . S
C1781 C418 1.561 . S
C1800 C654 1.558 . S
C1817 C121 1.132 . S
C1836 C3 1.125 . S
C1853 C62 1.135 . S
C1872 C180 1.135 . S
C1889 C387 2.003 . S
C1908 C269 1.993 . S
C1925 C328 2.003 . S
C1944 C446 1.999 . S
C1961 C593 1.138 . S
C1980 C475 1.109 . S
C1997 C652 1.137 . S
C2016 C534 1.106 . S
C2033 C859 2.006 . S
C2052 C741 2.003 . S
C2069 C918 2.005 . S
C2088 C800 2.008 . S
