# Generated by pormake.
# Topology uol, (4)-cn, num edge types: 1
# Building blocks:
#     Node 0, Type 0, BuildingBlock: QUQFOY_clean_sbu_1, # of connection points: 4
#     Node 1, Type 0, BuildingBlock: QUQFOY_clean_sbu_1, # of connection points: 4
#     Node 2, Type 0, BuildingBlock: QUQFOY_clean_sbu_1, # of connection points: 4
#     Node 3, Type 0, BuildingBlock: QUQFOY_clean_sbu_1, # of connection points: 4
#     Node 4, Type 0, BuildingBlock: QUQFOY_clean_sbu_1, # of connection points: 4
#     Node 5, Type 0, BuildingBlock: QUQFOY_clean_sbu_1, # of connection points: 4
#     Node 6, Type 0, BuildingBlock: QUQFOY_clean_sbu_1, # of connection points: 4
#     Node 7, Type 0, BuildingBlock: QUQFOY_clean_sbu_1, # of connection points: 4
#     Node 8, Type 0, BuildingBlock: QUQFOY_clean_sbu_1, # of connection points: 4
#     Node 9, Type 0, BuildingBlock: QUQFOY_clean_sbu_1, # of connection points: 4
#     Node 10, Type 0, BuildingBlock: QUQFOY_clean_sbu_1, # of connection points: 4
#     Node 11, Type 0, BuildingBlock: QUQFOY_clean_sbu_1, # of connection points: 4
#     Edge 12, Type (0, 0), BuildingBlock: ZUJKAS_clean_linker_0, # of connection points: 2
#     Edge 13, Type (0, 0), BuildingBlock: ZUJKAS_clean_linker_0, # of connection points: 2
#     Edge 14, Type (0, 0), BuildingBlock: ZUJKAS_clean_linker_0, # of connection points: 2
#     Edge 15, Type (0, 0), BuildingBlock: ZUJKAS_clean_linker_0, # of connection points: 2
#     Edge 16, Type (0, 0), BuildingBlock: ZUJKAS_clean_linker_0, # of connection points: 2
#     Edge 17, Type (0, 0), BuildingBlock: ZUJKAS_clean_linker_0, # of connection points: 2
#     Edge 18, Type (0, 0), BuildingBlock: ZUJKAS_clean_linker_0, # of connection points: 2
#     Edge 19, Type (0, 0), BuildingBlock: ZUJKAS_clean_linker_0, # of connection points: 2
#     Edge 20, Type (0, 0), BuildingBlock: ZUJKAS_clean_linker_0, # of connection points: 2
#     Edge 21, Type (0, 0), BuildingBlock: ZUJKAS_clean_linker_0, # of connection points: 2
#     Edge 22, Type (0, 0), BuildingBlock: ZUJKAS_clean_linker_0, # of connection points: 2
#     Edge 23, Type (0, 0), BuildingBlock: ZUJKAS_clean_linker_0, # of connection points: 2
#     Edge 24, Type (0, 0), BuildingBlock: ZUJKAS_clean_linker_0, # of connection points: 2
#     Edge 25, Type (0, 0), BuildingBlock: ZUJKAS_clean_linker_0, # of connection points: 2
#     Edge 26, Type (0, 0), BuildingBlock: ZUJKAS_clean_linker_0, # of connection points: 2
#     Edge 27, Type (0, 0), BuildingBlock: ZUJKAS_clean_linker_0, # of connection points: 2
#     Edge 28, Type (0, 0), BuildingBlock: ZUJKAS_clean_linker_0, # of connection points: 2
#     Edge 29, Type (0, 0), BuildingBlock: ZUJKAS_clean_linker_0, # of connection points: 2
#     Edge 30, Type (0, 0), BuildingBlock: ZUJKAS_clean_linker_0, # of connection points: 2
#     Edge 31, Type (0, 0), BuildingBlock: ZUJKAS_clean_linker_0, # of connection points: 2
#     Edge 32, Type (0, 0), BuildingBlock: ZUJKAS_clean_linker_0, # of connection points: 2
#     Edge 33, Type (0, 0), BuildingBlock: ZUJKAS_clean_linker_0, # of connection points: 2
#     Edge 34, Type (0, 0), BuildingBlock: ZUJKAS_clean_linker_0, # of connection points: 2
#     Edge 35, Type (0, 0), BuildingBlock: ZUJKAS_clean_linker_0, # of connection points: 2
# Relax obj value: 0.043
# Max RMSD: 0.148
# Mean RMSD: 0.148
data_MOF--net-uol--node1-QUQFOY_clean_sbu_1--edge1-ZUJKAS_clean_linker_0
_symmetry_space_group_name_H-M    P1
_symmetry_Int_Tables_number       1
_symmetry_cell_setting            triclinic
loop_
_symmetry_equiv_pos_as_xyz
'x, y, z'
_cell_length_a     42.496877
_cell_length_b     42.503038
_cell_length_c     92.700365
_cell_angle_alpha  90.05395
_cell_angle_beta   89.958117
_cell_angle_gamma 120.02699
loop_
_atom_site_label
_atom_site_type_symbol
_atom_site_fract_x
_atom_site_fract_y
_atom_site_fract_z
_atom_type_partial_charge
O0 O 0.18281 0.34574 0.095 0.0
Cd1 Cd 0.17966 0.36493 0.11516 0.0
Cd2 Cd 0.12691 0.29522 0.11843 0.0
O3 O 0.1341 0.29126 0.09653 0.0
O4 O 0.20425 0.41888 0.1134 0.0
O5 O 0.14552 0.38443 0.11795 0.0
C6 C 0.17311 0.41637 0.11564 0.0
C7 C 0.07103 0.27419 0.12992 0.0
C8 C 0.16084 0.31524 0.0893 0.0
C9 C 0.19345 0.32177 0.13698 0.0
O10 O 0.16484 0.29474 0.132 0.0
O11 O 0.20366 0.35362 0.13236 0.0
O12 O 0.08033 0.25197 0.12459 0.0
O13 O 0.09231 0.30853 0.12767 0.0
O14 O 0.84234 0.17612 0.26193 0.0
Cd15 Cd 0.82107 0.17383 0.28227 0.0
Cd16 Cd 0.84172 0.12374 0.28574 0.0
O17 O 0.85009 0.12867 0.26368 0.0
O18 O 0.79182 0.19839 0.28017 0.0
O19 O 0.76739 0.14007 0.28544 0.0
C20 C 0.76314 0.16753 0.28271 0.0
C21 C 0.81049 0.06836 0.29796 0.0
C22 C 0.85122 0.15439 0.25626 0.0
C23 C 0.88115 0.19245 0.30313 0.0
O24 O 0.88095 0.16445 0.29822 0.0
O25 O 0.85723 0.20013 0.29904 0.0
O26 O 0.8421 0.0793 0.29237 0.0
O27 O 0.79537 0.08782 0.29573 0.0
O28 O 0.67249 0.83263 0.42833 0.0
Cd29 Cd 0.6533 0.80958 0.4484 0.0
Cd30 Cd 0.723 0.82742 0.45134 0.0
O31 O 0.72614 0.83644 0.42931 0.0
O32 O 0.5994 0.78045 0.44642 0.0
O33 O 0.63349 0.75576 0.45084 0.0
C34 C 0.60168 0.75164 0.44844 0.0
C35 C 0.74516 0.7941 0.46327 0.0
C36 C 0.70235 0.84003 0.42232 0.0
C37 C 0.6962 0.86766 0.46965 0.0
O38 O 0.72333 0.86694 0.46428 0.0
O39 O 0.66417 0.8445 0.46569 0.0
O40 O 0.76684 0.82564 0.45784 0.0
O41 O 0.71072 0.78018 0.46094 0.0
O42 O 0.83956 0.65868 0.59533 0.0
Cd43 Cd 0.84439 0.64174 0.61569 0.0
Cd44 Cd 0.89602 0.711 0.61755 0.0
O45 O 0.89048 0.71144 0.59535 0.0
O46 O 0.81898 0.58762 0.61461 0.0
O47 O 0.87813 0.62172 0.61827 0.0
C48 C 0.85012 0.58983 0.61639 0.0
C49 C 0.94984 0.72916 0.63012 0.0
C50 C 0.86242 0.68739 0.58876 0.0
C51 C 0.8302 0.68768 0.63584 0.0
O52 O 0.85736 0.71425 0.62981 0.0
O53 O 0.82185 0.65524 0.63276 0.0
O54 O 0.94397 0.75262 0.62365 0.0
O55 O 0.92629 0.69508 0.62852 0.0
O56 O 0.18648 0.83826 0.76066 0.0
Cd57 Cd 0.20685 0.83862 0.78103 0.0
Cd58 Cd 0.18507 0.88795 0.78551 0.0
O59 O 0.17366 0.88222 0.76371 0.0
O60 O 0.23655 0.81458 0.77858 0.0
O61 O 0.26028 0.87225 0.78483 0.0
C62 C 0.26492 0.84519 0.78175 0.0
C63 C 0.21765 0.94341 0.79759 0.0
C64 C 0.17482 0.85846 0.75572 0.0
C65 C 0.1468 0.81836 0.80237 0.0
O66 O 0.14751 0.84724 0.79835 0.0
O67 O 0.16988 0.81039 0.79743 0.0
O68 O 0.18533 0.93232 0.79273 0.0
O69 O 0.23259 0.92408 0.79467 0.0
O70 O 0.35756 0.17481 0.92937 0.0
Cd71 Cd 0.37572 0.19657 0.94968 0.0
Cd72 Cd 0.30542 0.17599 0.95266 0.0
O73 O 0.30283 0.16839 0.93053 0.0
O74 O 0.42966 0.22629 0.94796 0.0
O75 O 0.39499 0.25015 0.95272 0.0
C76 C 0.42699 0.25476 0.95034 0.0
C77 C 0.28434 0.20966 0.96506 0.0
C78 C 0.32744 0.16653 0.92339 0.0
C79 C 0.33347 0.13618 0.97029 0.0
O80 O 0.30576 0.13603 0.96507 0.0
O81 O 0.36522 0.16054 0.96651 0.0
O82 O 0.2621 0.1786 0.95936 0.0
O83 O 0.31872 0.22281 0.96284 0.0
O84 O 0.67119 0.83492 0.78605 0.0
Cd85 Cd 0.65312 0.84004 0.76592 0.0
Cd86 Cd 0.72329 0.89127 0.76358 0.0
O87 O 0.72533 0.88423 0.78559 0.0
O88 O 0.59914 0.81539 0.76751 0.0
O89 O 0.63365 0.87437 0.76358 0.0
C90 C 0.60166 0.84664 0.76567 0.0
C91 C 0.74709 0.94728 0.75191 0.0
C92 C 0.70093 0.85667 0.79231 0.0
C93 C 0.69656 0.82503 0.74485 0.0
O94 O 0.72366 0.85233 0.75053 0.0
O95 O 0.66445 0.81652 0.74856 0.0
O96 O 0.76797 0.93677 0.75761 0.0
O97 O 0.71244 0.92713 0.75386 0.0
O98 O 0.84323 0.65981 0.9515 0.0
Cd99 Cd 0.82043 0.64094 0.93137 0.0
Cd100 Cd 0.84185 0.71161 0.92819 0.0
O101 O 0.85042 0.71484 0.95025 0.0
O102 O 0.79071 0.58715 0.93354 0.0
O103 O 0.76668 0.62162 0.92876 0.0
C104 C 0.76214 0.58974 0.93136 0.0
C105 C 0.80968 0.7348 0.91606 0.0
C106 C 0.85214 0.69019 0.9574 0.0
C107 C 0.88004 0.68176 0.91035 0.0
O108 O 0.88074 0.70977 0.91556 0.0
O109 O 0.85552 0.65024 0.91428 0.0
O110 O 0.84147 0.75598 0.92141 0.0
O111 O 0.79499 0.70032 0.91848 0.0
O112 O 0.17944 0.83067 0.1203 0.0
Cd113 Cd 0.1786 0.80987 0.09995 0.0
Cd114 Cd 0.12945 0.83191 0.09569 0.0
O115 O 0.13514 0.84308 0.11751 0.0
O116 O 0.20302 0.78057 0.10243 0.0
O117 O 0.14513 0.75625 0.09645 0.0
C118 C 0.17241 0.75195 0.0995 0.0
C119 C 0.07414 0.7993 0.08356 0.0
C120 C 0.15917 0.84213 0.12538 0.0
C121 C 0.19865 0.86983 0.07862 0.0
O122 O 0.17017 0.8696 0.08291 0.0
O123 O 0.20633 0.84637 0.08334 0.0
O124 O 0.08503 0.83153 0.0885 0.0
O125 O 0.09355 0.78445 0.08645 0.0
O126 O 0.3584 0.17724 0.28607 0.0
Cd127 Cd 0.37576 0.1731 0.2657 0.0
Cd128 Cd 0.30665 0.12059 0.26353 0.0
O129 O 0.30551 0.12644 0.28571 0.0
O130 O 0.4299 0.19828 0.26674 0.0
O131 O 0.39555 0.13925 0.26283 0.0
C132 C 0.42752 0.16713 0.26472 0.0
C133 C 0.28856 0.06649 0.25113 0.0
C134 C 0.32938 0.15431 0.29246 0.0
C135 C 0.3298 0.18668 0.24532 0.0
O136 O 0.30332 0.15879 0.25101 0.0
O137 O 0.36229 0.19598 0.24878 0.0
O138 O 0.26506 0.07252 0.25749 0.0
O139 O 0.32264 0.09002 0.25278 0.0
O140 O 0.18534 0.34551 0.45323 0.0
Cd141 Cd 0.20703 0.36466 0.43296 0.0
Cd142 Cd 0.18587 0.29392 0.42933 0.0
O143 O 0.17634 0.28984 0.45132 0.0
O144 O 0.23697 0.41848 0.4351 0.0
O145 O 0.26056 0.38389 0.42973 0.0
C146 C 0.26534 0.41582 0.43244 0.0
C147 C 0.21846 0.27123 0.41715 0.0
C148 C 0.17557 0.31459 0.45879 0.0
C149 C 0.14727 0.32385 0.41185 0.0
O150 O 0.14729 0.29587 0.41662 0.0
O151 O 0.17109 0.35532 0.41616 0.0
O152 O 0.18653 0.24983 0.42234 0.0
O153 O 0.23307 0.3056 0.41981 0.0
O154 O 0.84179 0.17522 0.61971 0.0
Cd155 Cd 0.84539 0.19703 0.59942 0.0
Cd156 Cd 0.89734 0.17955 0.59675 0.0
O157 O 0.8921 0.17228 0.61891 0.0
O158 O 0.82041 0.22604 0.60097 0.0
O159 O 0.87924 0.25072 0.59657 0.0
C160 C 0.85147 0.25482 0.5988 0.0
C161 C 0.9521 0.21393 0.58444 0.0
C162 C 0.86467 0.16871 0.62587 0.0
C163 C 0.83033 0.13772 0.57874 0.0
O164 O 0.85819 0.1387 0.58424 0.0
O165 O 0.82156 0.16116 0.5824 0.0
O166 O 0.94397 0.18329 0.59034 0.0
O167 O 0.93022 0.22637 0.58647 0.0
H168 H 0.22657 0.73599 0.10296 0.0
H169 H 0.22088 0.6763 0.10572 0.0
H170 H 0.10456 0.62543 0.10108 0.0
H171 H 0.1101 0.6853 0.09799 0.0
H172 H 0.18451 0.62672 0.12695 0.0
H173 H 0.1285 0.56636 0.07326 0.0
H174 H 0.14833 0.61433 0.07686 0.0
H175 H 0.103 0.58293 0.08288 0.0
C176 C 0.19976 0.71213 0.10236 0.0
C177 C 0.16878 0.71543 0.10022 0.0
C178 C 0.19656 0.67799 0.10397 0.0
C179 C 0.16235 0.64632 0.10348 0.0
C180 C 0.13132 0.64941 0.10121 0.0
H181 H 0.11038 0.41999 0.11593 0.0
H182 H 0.10484 0.47462 0.11385 0.0
C183 C 0.13451 0.68367 0.09951 0.0
C184 C 0.15948 0.61044 0.10601 0.0
H185 H 0.13425 0.52829 0.09037 0.0
C186 C 0.17341 0.60519 0.11895 0.0
C187 C 0.14481 0.58223 0.09562 0.0
C188 C 0.13057 0.5867 0.08132 0.0
C189 C 0.17358 0.5728 0.1217 0.0
C190 C 0.15973 0.545 0.11117 0.0
C191 C 0.14479 0.54969 0.09842 0.0
C192 C 0.16278 0.51192 0.11283 0.0
C193 C 0.18875 0.56862 0.13581 0.0
C194 C 0.19715 0.51486 0.11289 0.0
C195 C 0.2004 0.48384 0.11401 0.0
C196 C 0.16931 0.44918 0.11512 0.0
C197 C 0.13485 0.4463 0.11517 0.0
C198 C 0.13162 0.47743 0.11394 0.0
H199 H 0.18967 0.58797 0.1441 0.0
H200 H 0.1723 0.54051 0.14003 0.0
H201 H 0.2169 0.57412 0.13407 0.0
H202 H 0.22151 0.54118 0.11185 0.0
H203 H 0.22734 0.48705 0.1139 0.0
H204 H 0.7471 0.22168 0.2795 0.0
H205 H 0.68744 0.21589 0.27634 0.0
H206 H 0.63673 0.09943 0.28017 0.0
H207 H 0.69655 0.10505 0.28363 0.0
H208 H 0.63902 0.17979 0.25449 0.0
H209 H 0.57608 0.1224 0.3077 0.0
H210 H 0.62429 0.14272 0.30452 0.0
H211 H 0.59355 0.09749 0.29822 0.0
C212 C 0.72327 0.19482 0.27984 0.0
C213 C 0.7266 0.16381 0.28184 0.0
C214 C 0.68916 0.19156 0.278 0.0
C215 C 0.65756 0.15728 0.27813 0.0
C216 C 0.66066 0.12622 0.2803 0.0
H217 H 0.43145 0.10461 0.26473 0.0
H218 H 0.48622 0.09939 0.267 0.0
C219 C 0.69488 0.12947 0.28222 0.0
C220 C 0.62178 0.15437 0.27531 0.0
H221 H 0.53887 0.12862 0.29032 0.0
C222 C 0.6171 0.1685 0.26232 0.0
C223 C 0.59309 0.13941 0.28549 0.0
C224 C 0.59694 0.12489 0.29982 0.0
C225 C 0.58478 0.16858 0.2593 0.0
C226 C 0.55649 0.1545 0.26962 0.0
C227 C 0.56065 0.13936 0.28243 0.0
C228 C 0.52338 0.15738 0.26769 0.0
C229 C 0.58118 0.18385 0.24511 0.0
C230 C 0.52619 0.19169 0.26737 0.0
C231 C 0.49508 0.19477 0.26612 0.0
C232 C 0.46047 0.16356 0.26517 0.0
C233 C 0.45773 0.12917 0.26535 0.0
C234 C 0.48894 0.12612 0.2667 0.0
H235 H 0.60069 0.18454 0.23696 0.0
H236 H 0.55318 0.16763 0.24076 0.0
H237 H 0.58695 0.2121 0.2468 0.0
H238 H 0.55246 0.21614 0.26834 0.0
H239 H 0.49818 0.22166 0.26607 0.0
H240 H 0.59759 0.68505 0.44874 0.0
H241 H 0.54325 0.62527 0.44514 0.0
H242 H 0.47739 0.67602 0.44241 0.0
H243 H 0.53131 0.73558 0.44572 0.0
H244 H 0.47868 0.5883 0.4606 0.0
H245 H 0.45164 0.6175 0.40523 0.0
H246 H 0.49418 0.64585 0.41437 0.0
H247 H 0.45526 0.65076 0.41807 0.0
C248 C 0.5715 0.68343 0.44741 0.0
C249 C 0.56884 0.71512 0.44738 0.0
C250 C 0.5405 0.64927 0.44534 0.0
C251 C 0.50639 0.64627 0.44317 0.0
C252 C 0.50355 0.67775 0.44367 0.0
H253 H 0.28238 0.48647 0.43521 0.0
H254 H 0.34265 0.54026 0.43728 0.0
C255 C 0.53442 0.7118 0.44567 0.0
C256 C 0.47358 0.61038 0.44042 0.0
H257 H 0.403 0.56567 0.41686 0.0
C258 C 0.46237 0.58311 0.45095 0.0
C259 C 0.45246 0.60357 0.42777 0.0
C260 C 0.46417 0.63084 0.41564 0.0
C261 C 0.42969 0.54989 0.44947 0.0
C262 C 0.40792 0.54376 0.43709 0.0
C263 C 0.41969 0.57054 0.42637 0.0
C264 C 0.3717 0.51074 0.43549 0.0
C265 C 0.41787 0.52216 0.46141 0.0
C266 C 0.36809 0.47632 0.43355 0.0
C267 C 0.33356 0.44539 0.43228 0.0
C268 C 0.30211 0.44844 0.43296 0.0
C269 C 0.30599 0.4831 0.43468 0.0
C270 C 0.34042 0.51391 0.43586 0.0
H271 H 0.43498 0.53328 0.47122 0.0
H272 H 0.38908 0.51229 0.46436 0.0
H273 H 0.41986 0.49845 0.45761 0.0
H274 H 0.39197 0.47339 0.43305 0.0
H275 H 0.33149 0.4191 0.43095 0.0
H276 H 0.91249 0.58556 0.61641 0.0
H277 H 0.91762 0.53112 0.61272 0.0
H278 H 0.80084 0.46535 0.61078 0.0
H279 H 0.79547 0.51939 0.61421 0.0
H280 H 0.89014 0.46629 0.62825 0.0
H281 H 0.83252 0.44006 0.57306 0.0
H282 H 0.84728 0.48257 0.58233 0.0
H283 H 0.80348 0.44378 0.58618 0.0
C284 C 0.88791 0.55946 0.61527 0.0
C285 C 0.85357 0.55686 0.61547 0.0
C286 C 0.8909 0.52841 0.61314 0.0
C287 C 0.85964 0.49431 0.61114 0.0
C288 C 0.82535 0.49151 0.61192 0.0
H289 H 0.79704 0.27079 0.60121 0.0
H290 H 0.80261 0.33058 0.6037 0.0
C291 C 0.82234 0.52244 0.61399 0.0
C292 C 0.86258 0.46153 0.6082 0.0
H293 H 0.83679 0.3917 0.58425 0.0
C294 C 0.87891 0.4502 0.61856 0.0
C295 C 0.84811 0.4407 0.59549 0.0
C296 C 0.83219 0.45256 0.58356 0.0
C297 C 0.87964 0.41769 0.61684 0.0
C298 C 0.86399 0.39626 0.60437 0.0
C299 C 0.84863 0.40813 0.59383 0.0
C300 C 0.8613 0.36035 0.60244 0.0
C301 C 0.89582 0.40573 0.62862 0.0
C302 C 0.89248 0.35731 0.60063 0.0
C303 C 0.88939 0.32306 0.59913 0.0
C304 C 0.85505 0.29132 0.59944 0.0
C305 C 0.8239 0.29464 0.60096 0.0
C306 C 0.82701 0.3288 0.60239 0.0
H307 H 0.90107 0.42207 0.63861 0.0
H308 H 0.87747 0.37662 0.63125 0.0
H309 H 0.92201 0.40886 0.62483 0.0
H310 H 0.91917 0.3814 0.60042 0.0
H311 H 0.9139 0.32143 0.59795 0.0
H312 H 0.53106 0.79233 0.76753 0.0
H313 H 0.47704 0.79796 0.77048 0.0
H314 H 0.54358 0.91475 0.76933 0.0
H315 H 0.59794 0.90932 0.76606 0.0
H316 H 0.46222 0.83068 0.79279 0.0
H317 H 0.46336 0.89656 0.74087 0.0
H318 H 0.4908 0.87571 0.74386 0.0
H319 H 0.50458 0.91991 0.75117 0.0
C320 C 0.53426 0.81926 0.76774 0.0
C321 C 0.56885 0.85039 0.76653 0.0
C322 C 0.50331 0.82242 0.76946 0.0
C323 C 0.50615 0.85674 0.77001 0.0
C324 C 0.5406 0.88795 0.76866 0.0
H325 H 0.33132 0.90764 0.7838 0.0
H326 H 0.39164 0.91333 0.78193 0.0
C327 C 0.57167 0.88481 0.76686 0.0
C328 C 0.47306 0.85944 0.77262 0.0
H329 H 0.41804 0.88802 0.75777 0.0
C330 C 0.45265 0.84333 0.78514 0.0
C331 C 0.46068 0.87614 0.76269 0.0
C332 C 0.48076 0.89282 0.74883 0.0
C333 C 0.41999 0.84296 0.78789 0.0
C334 C 0.40717 0.85884 0.7778 0.0
C335 C 0.42803 0.87593 0.76549 0.0
C336 C 0.37096 0.85568 0.77935 0.0
C337 C 0.39929 0.82539 0.80155 0.0
C338 C 0.33947 0.82144 0.77845 0.0
C339 C 0.30514 0.81812 0.77945 0.0
C340 C 0.30155 0.849 0.78139 0.0
C341 C 0.33317 0.88332 0.7824 0.0
C342 C 0.36761 0.88664 0.78129 0.0
H343 H 0.41693 0.82299 0.80979 0.0
H344 H 0.38728 0.84111 0.8062 0.0
H345 H 0.37679 0.79764 0.79902 0.0
H346 H 0.34145 0.79726 0.77676 0.0
H347 H 0.2814 0.7913 0.77859 0.0
H348 H 0.49772 0.2716 0.94834 0.0
H349 H 0.55159 0.33167 0.94604 0.0
H350 H 0.48468 0.38129 0.94847 0.0
H351 H 0.43027 0.32096 0.9508 0.0
H352 H 0.53692 0.40561 0.92479 0.0
H353 H 0.6001 0.41082 0.97774 0.0
H354 H 0.58617 0.36966 0.96776 0.0
H355 H 0.55251 0.38019 0.97409 0.0
C356 C 0.49437 0.29524 0.94852 0.0
C357 C 0.45967 0.29148 0.9498 0.0
C358 C 0.52525 0.32959 0.94725 0.0
C359 C 0.52216 0.36092 0.94723 0.0
C360 C 0.48762 0.3574 0.94854 0.0
H361 H 0.69591 0.58646 0.93108 0.0
H362 H 0.63591 0.53266 0.93483 0.0
C363 C 0.45662 0.32296 0.94991 0.0
C364 C 0.55508 0.39708 0.94531 0.0
H365 H 0.63809 0.45401 0.96013 0.0
C366 C 0.55891 0.41654 0.93258 0.0
C367 C 0.58364 0.41115 0.9555 0.0
C368 C 0.58041 0.39209 0.96961 0.0
C369 C 0.59133 0.44893 0.92945 0.0
C370 C 0.62033 0.46246 0.93947 0.0
C371 C 0.61594 0.44353 0.95242 0.0
C372 C 0.65619 0.49513 0.93651 0.0
C373 C 0.59484 0.46747 0.91518 0.0
C374 C 0.68754 0.49203 0.93634 0.0
C375 C 0.72175 0.52266 0.93433 0.0
C376 C 0.72544 0.55717 0.93245 0.0
C377 C 0.69396 0.56023 0.93239 0.0
C378 C 0.65964 0.52948 0.93448 0.0
H379 H 0.57358 0.44931 0.9074 0.0
H380 H 0.59189 0.49169 0.91694 0.0
H381 H 0.62195 0.47672 0.9103 0.0
H382 H 0.68555 0.46583 0.93789 0.0
H383 H 0.74538 0.51928 0.93443 0.0
H384 H 0.26392 0.17193 0.23479 0.0
H385 H 0.25115 0.20596 0.2169 0.0
H386 H 0.36556 0.28406 0.21365 0.0
H387 H 0.37883 0.24971 0.23151 0.0
H388 H 0.26684 0.27823 0.21788 0.0
H389 H 0.33521 0.25339 0.17153 0.0
H390 H 0.32468 0.22759 0.18805 0.0
H391 H 0.36218 0.27333 0.18743 0.0
C392 C 0.28647 0.19629 0.2303 0.0
C393 C 0.32243 0.20797 0.23456 0.0
C394 C 0.2791 0.21579 0.22008 0.0
C395 C 0.30742 0.24734 0.21386 0.0
C396 C 0.34337 0.25946 0.21817 0.0
H397 H 0.2595 0.37101 0.14885 0.0
H398 H 0.2928 0.35949 0.1679 0.0
C399 C 0.35083 0.23985 0.22841 0.0
C400 C 0.29867 0.26703 0.20284 0.0
H401 H 0.30343 0.28425 0.16666 0.0
C402 C 0.27538 0.28015 0.20673 0.0
C403 C 0.30983 0.26944 0.18829 0.0
C404 C 0.33416 0.25503 0.18347 0.0
C405 C 0.2617 0.29417 0.19635 0.0
C406 C 0.27157 0.29505 0.18176 0.0
C407 C 0.29623 0.28368 0.17793 0.0
C408 C 0.25247 0.30268 0.17021 0.0
C409 C 0.23537 0.30634 0.20086 0.0
C410 C 0.21906 0.27447 0.16528 0.0
C411 C 0.20015 0.2808 0.15446 0.0
C412 C 0.21424 0.3156 0.14836 0.0
C413 C 0.2479 0.34393 0.15334 0.0
C414 C 0.26696 0.33744 0.16417 0.0
H415 H 0.23421 0.30858 0.21277 0.0
H416 H 0.24312 0.33306 0.19593 0.0
H417 H 0.20777 0.28644 0.19691 0.0
H418 H 0.20754 0.24747 0.16985 0.0
H419 H 0.1743 0.25836 0.15096 0.0
H420 H 0.88539 0.24867 0.31939 0.0
H421 H 0.93156 0.28499 0.33756 0.0
H422 H 0.98639 0.22472 0.329 0.0
H423 H 0.94088 0.18862 0.31096 0.0
H424 H 0.94824 0.25745 0.36249 0.0
H425 H 0.06908 0.33118 0.32753 0.0
H426 H 0.02319 0.31014 0.32063 0.0
H427 H 0.04449 0.28332 0.32381 0.0
C428 C 0.90752 0.24345 0.32129 0.0
C429 C 0.90944 0.21574 0.31372 0.0
C430 C 0.93383 0.26421 0.33166 0.0
C431 C 0.96271 0.25794 0.33443 0.0
C432 C 0.96479 0.23056 0.3268 0.0
H433 H 0.08787 0.26052 0.40353 0.0
H434 H 0.04261 0.25176 0.3855 0.0
C435 C 0.93851 0.20971 0.31656 0.0
C436 C 0.98946 0.27782 0.34599 0.0
H437 H 0.08075 0.32387 0.3525 0.0
C438 C 0.97719 0.27272 0.36031 0.0
C439 C 0.02718 0.29819 0.34312 0.0
C440 C 0.04178 0.30638 0.32792 0.0
C441 C 1.00181 0.28501 0.37187 0.0
C442 C 0.03953 0.30244 0.36899 0.0
C443 C 0.0518 0.31011 0.35468 0.0
C444 C 0.06625 0.30889 0.38051 0.0
C445 C 0.98721 0.27806 0.38708 0.0
C446 C 0.09504 0.34397 0.38351 0.0
C447 C 0.12122 0.34915 0.39388 0.0
C448 C 0.11924 0.31923 0.40122 0.0
C449 C 0.09028 0.2842 0.39812 0.0
C450 C 0.06415 0.27913 0.38788 0.0
H451 H 0.9599 0.27549 0.38756 0.0
H452 H 0.98454 0.25216 0.39099 0.0
H453 H 0.00579 0.30018 0.39447 0.0
H454 H 0.09732 0.36724 0.3778 0.0
H455 H 0.14325 0.37645 0.39597 0.0
H456 H 0.83922 0.08122 0.57028 0.0
H457 H 0.80536 0.03556 0.55192 0.0
H458 H 0.73826 0.08345 0.54431 0.0
H459 H 0.77229 0.12974 0.56273 0.0
H460 H 0.72833 0.98468 0.55017 0.0
H461 H 0.78161 0.08171 0.50407 0.0
H462 H 0.80289 0.09295 0.52162 0.0
H463 H 0.76081 0.0923 0.51879 0.0
C464 C 0.81723 0.08214 0.56476 0.0
C465 C 0.80862 0.10933 0.56793 0.0
C466 C 0.79782 0.05588 0.55429 0.0
C467 C 0.76952 0.0563 0.54671 0.0
C468 C 0.76029 0.08293 0.54997 0.0
H469 H 0.64554 0.87512 0.48554 0.0
H470 H 0.65729 0.92101 0.5041 0.0
C471 C 0.77968 0.10927 0.56051 0.0
C472 C 0.75076 0.02921 0.53514 0.0
H473 H 0.74613 0.01972 0.49851 0.0
C474 C 0.73157 0.99226 0.53887 0.0
C475 C 0.75534 0.03935 0.52044 0.0
C476 C 0.77642 0.07868 0.51588 0.0
C477 C 0.71812 0.96505 0.52824 0.0
C478 C 0.72384 0.97519 0.51354 0.0
C479 C 0.74166 0.01215 0.50982 0.0
C480 C 0.71579 0.94815 0.50198 0.0
C481 C 0.69977 0.92572 0.53279 0.0
C482 C 0.74475 0.94867 0.49454 0.0
C483 C 0.73821 0.92267 0.48401 0.0
C484 C 0.70248 0.89561 0.48062 0.0
C485 C 0.67337 0.89551 0.48792 0.0
C486 C 0.68001 0.92161 0.49855 0.0
H487 H 0.70152 0.92266 0.54462 0.0
H488 H 0.67064 0.91202 0.52972 0.0
H489 H 0.71224 0.91155 0.52717 0.0
H490 H 0.77256 0.96894 0.49705 0.0
H491 H 0.7613 0.92372 0.47858 0.0
H492 H 0.8393 0.75352 0.64381 0.0
H493 H 0.80591 0.76616 0.66212 0.0
H494 H 0.73904 0.65149 0.67058 0.0
H495 H 0.77262 0.63839 0.65226 0.0
H496 H 0.72965 0.74084 0.66421 0.0
H497 H 0.78265 0.69736 0.71044 0.0
H498 H 0.80333 0.70631 0.6928 0.0
H499 H 0.76109 0.66529 0.69601 0.0
C500 C 0.81747 0.73087 0.64951 0.0
C501 C 0.80881 0.69492 0.64662 0.0
C502 C 0.79832 0.73818 0.65995 0.0
C503 C 0.77024 0.7098 0.66776 0.0
C504 C 0.76093 0.67379 0.66476 0.0
H505 H 0.64609 0.76761 0.72858 0.0
H506 H 0.65812 0.73378 0.70997 0.0
C507 C 0.78008 0.66639 0.65427 0.0
C508 C 0.75175 0.71858 0.6793 0.0
H509 H 0.74672 0.72341 0.71592 0.0
C510 C 0.73278 0.73652 0.67552 0.0
C511 C 0.75617 0.71301 0.69403 0.0
C512 C 0.77707 0.69465 0.69867 0.0
C513 C 0.71932 0.75037 0.68611 0.0
C514 C 0.72478 0.74583 0.70083 0.0
C515 C 0.74244 0.72659 0.70461 0.0
C516 C 0.71657 0.76474 0.71237 0.0
C517 C 0.7012 0.7715 0.6815 0.0
C518 C 0.7454 0.79284 0.72 0.0
C519 C 0.73873 0.81212 0.73057 0.0
C520 C 0.70296 0.80358 0.73381 0.0
C521 C 0.67397 0.77494 0.72631 0.0
C522 C 0.68074 0.75565 0.71566 0.0
H523 H 0.70337 0.77658 0.66969 0.0
H524 H 0.67196 0.75601 0.68441 0.0
H525 H 0.7135 0.79802 0.68721 0.0
H526 H 0.77325 0.80026 0.71761 0.0
H527 H 0.76171 0.83386 0.73613 0.0
H528 H 0.88204 0.62963 0.89339 0.0
H529 H 0.92791 0.63886 0.87517 0.0
H530 H 0.98663 0.75338 0.885 0.0
H531 H 0.94138 0.74459 0.90309 0.0
H532 H 0.94662 0.6852 0.85077 0.0
H533 H 0.06619 0.72499 0.88571 0.0
H534 H 0.02013 0.70106 0.89248 0.0
H535 H 0.04316 0.74953 0.88995 0.0
C536 C 0.90494 0.65671 0.89176 0.0
C537 C 0.90803 0.68638 0.89969 0.0
C538 C 0.93108 0.66189 0.88136 0.0
C539 C 0.96097 0.69669 0.87894 0.0
C540 C 0.96422 0.72618 0.88693 0.0
H541 H 0.08866 0.82326 0.81163 0.0
H542 H 0.04297 0.78557 0.8293 0.0
C543 C 0.93809 0.72112 0.89719 0.0
C544 C 0.98756 0.70331 0.86734 0.0
H545 H 0.07888 0.74614 0.86099 0.0
C546 C 0.97548 0.69771 0.85299 0.0
C547 C 0.02514 0.71908 0.87024 0.0
C548 C 0.03942 0.72368 0.88544 0.0
C549 C 1.00027 0.71026 0.84148 0.0
C550 C 0.03798 0.72915 0.84445 0.0
C551 C 0.04995 0.732 0.85874 0.0
C552 C 0.06506 0.75021 0.83315 0.0
C553 C 0.98591 0.70451 0.82626 0.0
C554 C 0.09317 0.74328 0.82963 0.0
C555 C 0.11963 0.76498 0.81945 0.0
C556 C 0.11861 0.79426 0.81284 0.0
C557 C 0.09035 0.80098 0.81647 0.0
C558 C 0.06396 0.77924 0.8265 0.0
H559 H 0.95823 0.68033 0.82552 0.0
H560 H 0.98414 0.72859 0.82283 0.0
H561 H 1.00415 0.70103 0.81865 0.0
H562 H 0.09468 0.72121 0.83478 0.0
H563 H 0.14111 0.75918 0.81692 0.0
H564 H 0.25508 0.87311 0.06275 0.0
H565 H 0.29218 0.91887 0.04454 0.0
H566 H 0.23279 0.97489 0.05244 0.0
H567 H 0.19594 0.92984 0.07047 0.0
H568 H 0.2649 0.93598 0.01927 0.0
H569 H 0.34005 0.0565 0.05429 0.0
H570 H 0.31864 0.01055 0.06114 0.0
H571 H 0.2922 0.0323 0.05806 0.0
C572 C 0.25024 0.89541 0.06069 0.0
C573 C 0.22253 0.8978 0.06806 0.0
C574 C 0.27143 0.92147 0.05031 0.0
C575 C 0.26559 0.95056 0.04734 0.0
C576 C 0.23825 0.9531 0.05478 0.0
H577 H 0.26969 0.07663 0.97824 0.0
H578 H 0.26032 0.03084 0.99614 0.0
C579 C 0.21698 0.92708 0.06502 0.0
C580 C 0.28589 0.97714 0.0358 0.0
H581 H 0.33264 0.06843 0.02936 0.0
C582 C 0.28048 0.96491 0.02147 0.0
C583 C 0.30663 0.01482 0.03868 0.0
C584 C 0.31507 0.02933 0.05389 0.0
C585 C 0.29282 0.98957 0.00992 0.0
C586 C 0.31059 0.02729 0.01283 0.0
C587 C 0.31859 0.03948 0.02714 0.0
C588 C 0.31732 0.05421 1.00136 0.0
C589 C 0.28559 0.97502 0.99471 0.0
C590 C 0.35249 0.08304 0.99855 0.0
C591 C 0.358 0.10952 0.98829 0.0
C592 C 0.32833 0.10781 0.98085 0.0
C593 C 0.29319 0.07882 0.98374 0.0
C594 C 0.28778 0.05237 0.99389 0.0
H595 H 0.28294 0.94768 0.99417 0.0
H596 H 0.25964 0.9724 0.99089 0.0
H597 H 0.3076 0.99357 0.98727 0.0
H598 H 0.3756 0.08513 1.00434 0.0
H599 H 0.38539 0.13155 0.98636 0.0
H600 H 0.12994 0.24888 0.07583 0.0
H601 H 0.14851 0.23413 0.05295 0.0
H602 H 0.22784 0.34715 0.04673 0.0
H603 H 0.20972 0.36225 0.0696 0.0
H604 H 0.18083 0.3029 0.02074 0.0
H605 H 0.25475 0.24525 0.05014 0.0
H606 H 0.20882 0.23059 0.05568 0.0
H607 H 0.24363 0.27692 0.05846 0.0
C608 C 0.15094 0.27072 0.0695 0.0
C609 C 0.16851 0.30674 0.07462 0.0
C610 C 0.16157 0.2622 0.05646 0.0
C611 C 0.1897 0.28954 0.04824 0.0
C612 C 0.20609 0.32569 0.05294 0.0
H613 H 0.32419 0.26719 0.9831 0.0
H614 H 0.30119 0.28965 1.00242 0.0
C615 C 0.19572 0.33422 0.06604 0.0
C616 C 0.2037 0.2802 0.03525 0.0
H617 H 0.25388 0.2417 0.02476 0.0
C618 C 0.19676 0.28948 0.02157 0.0
C619 C 0.22483 0.26312 0.03644 0.0
C620 C 0.23378 0.25349 0.05095 0.0
C621 C 0.21001 0.28154 0.00898 0.0
C622 C 0.2307 0.26397 0.01017 0.0
C623 C 0.23801 0.25519 0.02389 0.0
C624 C 0.24449 0.25364 0.99736 0.0
C625 C 0.20217 0.29232 0.99452 0.0
C626 C 0.22023 0.22637 0.98797 0.0
C627 C 0.23327 0.21337 0.97696 0.0
C628 C 0.27085 0.22744 0.97513 0.0
C629 C 0.29511 0.2559 0.98416 0.0
C630 C 0.28202 0.26868 0.99524 0.0
H631 H 0.19272 0.31231 0.99559 0.0
H632 H 0.22675 0.30412 0.98756 0.0
H633 H 0.18056 0.2678 0.98901 0.0
H634 H 0.19116 0.21405 0.98953 0.0
H635 H 0.21383 0.19136 0.97023 0.0
H636 H 0.8505 0.20169 0.23643 0.0
H637 H 0.88078 0.21813 0.21296 0.0
H638 H 0.91595 0.13985 0.21882 0.0
H639 H 0.88568 0.1231 0.24234 0.0
H640 H 0.97241 0.21319 0.21226 0.0
H641 H 0.8568 0.16193 0.1738 0.0
H642 H 0.85497 0.18782 0.18881 0.0
H643 H 0.8519 0.14471 0.19197 0.0
C644 C 0.86415 0.1875 0.23265 0.0
C645 C 0.86571 0.16111 0.24131 0.0
C646 C 0.8813 0.19684 0.21919 0.0
C647 C 0.90037 0.18003 0.21411 0.0
C648 C 0.90118 0.153 0.22253 0.0
H649 H 0.01868 0.20374 0.13503 0.0
H650 H 0.97443 0.18116 0.15475 0.0
C651 C 0.88379 0.14342 0.23595 0.0
C652 C 0.92208 0.1929 0.20066 0.0
H653 H 0.91588 0.19998 0.16416 0.0
C654 C 0.96006 0.21021 0.20174 0.0
C655 C 0.90584 0.1889 0.18696 0.0
C656 C 0.86512 0.16959 0.18521 0.0
C657 C 0.98229 0.22409 0.18951 0.0
C658 C 0.96613 0.2207 0.17584 0.0
C659 C 0.92813 0.20288 0.17469 0.0
C660 C 0.98867 0.23453 0.16265 0.0
C661 C 0.02299 0.24203 0.19123 0.0
C662 C 0.01034 0.27204 0.16026 0.0
C663 C 0.03551 0.28508 0.14893 0.0
C664 C 0.0396 0.26078 0.13988 0.0
C665 C 0.01629 0.2232 0.14182 0.0
C666 C 0.99097 0.21021 0.15308 0.0
H667 H 0.03086 0.23759 0.20214 0.0
H668 H 0.03452 0.23151 0.18305 0.0
H669 H 0.03536 0.27173 0.18949 0.0
H670 H 0.00879 0.29121 0.16752 0.0
H671 H 0.05308 0.31416 0.14777 0.0
H672 H 0.74679 0.04101 0.31327 0.0
H673 H 0.72568 0.99526 0.33249 0.0
H674 H 0.81672 0.97931 0.32468 0.0
H675 H 0.838 0.02478 0.3055 0.0
H676 H 0.71171 0.91775 0.33281 0.0
H677 H 0.82524 0.01506 0.36789 0.0
H678 H 0.81032 0.02955 0.3523 0.0
H679 H 0.83724 0.00816 0.35003 0.0
C680 C 0.76195 0.02728 0.31545 0.0
C681 C 0.79424 0.03677 0.30791 0.0
C682 C 0.74986 1.00118 0.32645 0.0
C683 C 0.76994 0.98432 0.33011 0.0
C684 C 0.80107 0.99232 0.32211 0.0
H685 H 0.763 0.85922 0.40579 0.0
H686 H 0.77821 0.8903 0.38245 0.0
C687 C 0.8131 0.01826 0.31111 0.0
C688 C 0.75985 0.96027 0.34291 0.0
H689 H 0.78709 0.9565 0.37718 0.0
C690 C 0.72813 0.92611 0.34252 0.0
C691 C 0.78148 0.97126 0.35551 0.0
C692 C 0.81537 0.00808 0.3566 0.0
C693 C 0.71759 0.90245 0.35442 0.0
C694 C 0.73892 0.9137 0.36715 0.0
C695 C 0.77082 0.94779 0.36743 0.0
C696 C 0.72803 0.89145 0.38054 0.0
C697 C 0.68406 0.86544 0.35315 0.0
C698 C 0.69468 0.8815 0.38721 0.0
C699 C 0.68581 0.86354 0.40049 0.0
C700 C 0.71034 0.85554 0.40753 0.0
C701 C 0.74345 0.86488 0.40069 0.0
C702 C 0.75221 0.88271 0.38735 0.0
H703 H 0.67791 0.85664 0.34171 0.0
H704 H 0.68714 0.84466 0.35925 0.0
H705 H 0.66043 0.86661 0.35761 0.0
H706 H 0.67596 0.88874 0.3824 0.0
H707 H 0.66018 0.85702 0.40546 0.0
H708 H 0.80304 0.6432 0.57234 0.0
H709 H 0.78591 0.6568 0.54904 0.0
H710 H 0.88546 0.76 0.54802 0.0
H711 H 0.903 0.74671 0.57142 0.0
H712 H 0.77809 0.7198 0.54483 0.0
H713 H 0.87753 0.71612 0.50686 0.0
H714 H 0.86725 0.69392 0.52424 0.0
H715 H 0.89602 0.74231 0.52307 0.0
C716 C 0.82167 0.66859 0.5671 0.0
C717 C 0.8544 0.69393 0.57382 0.0
C718 C 0.81177 0.67629 0.55377 0.0
C719 C 0.83449 0.70927 0.54676 0.0
C720 C 0.86777 0.73414 0.55315 0.0
H721 H 0.81472 0.82172 0.47299 0.0
H722 H 0.83572 0.79839 0.49254 0.0
C723 C 0.87768 0.72654 0.56656 0.0
C724 C 0.82176 0.71885 0.53347 0.0
H725 H 0.83961 0.73744 0.49758 0.0
C726 C 0.79134 0.72341 0.53446 0.0
C727 C 0.83934 0.72383 0.52002 0.0
C728 C 0.87171 0.71858 0.51836 0.0
C729 C 0.77841 0.73358 0.52244 0.0
C730 C 0.79572 0.73824 0.5089 0.0
C731 C 0.82614 0.73355 0.50791 0.0
C732 C 0.78369 0.7498 0.49588 0.0
C733 C 0.74717 0.74054 0.52451 0.0
C734 C 0.74778 0.72953 0.49081 0.0
C735 C 0.73554 0.74297 0.47968 0.0
C736 C 0.75916 0.7767 0.47326 0.0
C737 C 0.79574 0.79569 0.4777 0.0
C738 C 0.80784 0.7824 0.4889 0.0
H739 H 0.74356 0.74525 0.53604 0.0
H740 H 0.75133 0.76448 0.51818 0.0
H741 H 0.72165 0.71647 0.52079 0.0
H742 H 0.7289 0.7038 0.49576 0.0
H743 H 0.70729 0.72754 0.47645 0.0
H744 H 0.11717 0.86437 0.74664 0.0
H745 H 0.08489 0.84383 0.72371 0.0
H746 H 0.16522 0.81775 0.70852 0.0
H747 H 0.19596 0.83574 0.73192 0.0
H748 H 0.09663 0.86154 0.69755 0.0
H749 H 0.0785 0.72342 0.70082 0.0
H750 H 0.09732 0.75536 0.71548 0.0
H751 H 0.12556 0.7577 0.70051 0.0
C752 C 0.12806 0.85448 0.73836 0.0
C753 C 0.15887 0.85134 0.74109 0.0
C754 C 0.10955 0.84266 0.72524 0.0
C755 C 0.12188 0.82813 0.71444 0.0
C756 C 0.15416 0.82734 0.71683 0.0
H757 H 0.01586 0.79173 0.62953 0.0
H758 H 0.06155 0.81571 0.64874 0.0
C759 C 0.17203 0.83809 0.73014 0.0
C760 C 0.10046 0.81344 0.70087 0.0
H761 H 0.06089 0.73879 0.67892 0.0
C762 C 0.08874 0.83462 0.69352 0.0
C763 C 0.08954 0.77804 0.69566 0.0
C764 C 0.09804 0.75219 0.70361 0.0
C765 C 0.06603 0.82136 0.68136 0.0
C766 C 0.05634 0.78655 0.6758 0.0
C767 C 0.0686 0.76561 0.68301 0.0
C768 C 0.03143 0.77024 0.6632 0.0
C769 C 0.0513 0.84424 0.67514 0.0
C770 C 1.00068 0.73533 0.66433 0.0
C771 C 0.97544 0.72091 0.65309 0.0
C772 C 0.98 0.74138 0.64058 0.0
C773 C 0.01154 0.77552 0.63912 0.0
C774 C 0.03739 0.78946 0.6502 0.0
H775 H 0.05198 0.86401 0.68317 0.0
H776 H 0.06836 0.86003 0.66585 0.0
H777 H 0.02283 0.82714 0.6714 0.0
H778 H 0.9954 0.71971 0.67417 0.0
H779 H 0.95125 0.69463 0.65456 0.0
H780 H 0.26521 0.14258 0.90731 0.0
H781 H 0.25137 0.11149 0.88391 0.0
H782 H 0.35891 0.12528 0.88242 0.0
H783 H 0.37311 0.15633 0.9057 0.0
H784 H 0.2917 0.13436 0.85544 0.0
H785 H 0.28494 0.01234 0.88064 0.0
H786 H 0.28133 0.04635 0.89103 0.0
H787 H 0.3248 0.05529 0.88451 0.0
C788 C 0.2861 0.13946 0.90193 0.0
C789 C 0.32017 0.15171 0.90848 0.0
C790 C 0.27814 0.12171 0.88855 0.0
C791 C 0.30399 0.11574 0.88156 0.0
C792 C 0.33848 0.1293 0.88774 0.0
H793 H 0.28464 0.97287 0.81045 0.0
H794 H 0.3089 0.01888 0.82954 0.0
C795 C 0.34653 0.14712 0.90105 0.0
C796 C 0.29433 0.09353 0.86822 0.0
H797 H 0.27796 0.01136 0.85545 0.0
C798 C 0.28869 0.10747 0.85539 0.0
C799 C 0.29062 0.05857 0.86822 0.0
C800 C 0.29545 0.04197 0.88183 0.0
C801 C 0.27974 0.0874 0.84247 0.0
C802 C 0.27549 0.05214 0.84251 0.0
C803 C 0.28142 0.03843 0.85537 0.0
C804 C 0.26319 0.02807 0.8296 0.0
C805 C 0.27551 0.10444 0.82888 0.0
C806 C 0.22972 0.01832 0.82308 0.0
C807 C 0.21597 0.99229 0.81209 0.0
C808 C 0.23514 0.97503 0.8075 0.0
C809 C 0.26924 0.9857 0.81369 0.0
C810 C 0.28308 0.01193 0.82464 0.0
H811 H 0.29102 0.13459 0.82953 0.0
H812 H 0.28481 0.09579 0.81925 0.0
H813 H 0.24641 0.09593 0.82741 0.0
H814 H 0.21338 0.02961 0.82693 0.0
H815 H 0.18949 0.98456 0.80766 0.0
H816 H 0.76247 0.89453 0.80883 0.0
H817 H 0.77639 0.87551 0.83178 0.0
H818 H 0.67008 0.77978 0.83194 0.0
H819 H 0.65582 0.79838 0.80909 0.0
H820 H 0.73566 0.85455 0.86 0.0
H821 H 0.74569 0.74312 0.83281 0.0
H822 H 0.74846 0.78117 0.82305 0.0
H823 H 0.70525 0.74533 0.82923 0.0
C824 C 0.74185 0.86967 0.81383 0.0
C825 C 0.70812 0.84785 0.80702 0.0
C826 C 0.74986 0.85887 0.82695 0.0
C827 C 0.72442 0.82602 0.83343 0.0
C828 C 0.69023 0.80501 0.82701 0.0
H829 H 0.74357 0.69766 0.90249 0.0
H830 H 0.71981 0.72055 0.88367 0.0
C831 C 0.68213 0.8158 0.81395 0.0
C832 C 0.73418 0.81265 0.84649 0.0
H833 H 0.75167 0.74672 0.85809 0.0
C834 C 0.73917 0.83098 0.85963 0.0
C835 C 0.73858 0.78182 0.84595 0.0
C836 C 0.73451 0.76175 0.83201 0.0
C837 C 0.74809 0.81901 0.87231 0.0
C838 C 0.75296 0.78839 0.87174 0.0
C839 C 0.74773 0.77002 0.85858 0.0
C840 C 0.76506 0.77571 0.88442 0.0
C841 C 0.75158 0.83891 0.88623 0.0
C842 C 0.79813 0.79915 0.89128 0.0
C843 C 0.81159 0.78621 0.90212 0.0
C844 C 0.79253 0.7494 0.90621 0.0
C845 C 0.75888 0.72618 0.89965 0.0
C846 C 0.74531 0.73921 0.88885 0.0
H847 H 0.73578 0.85327 0.88588 0.0
H848 H 0.74213 0.82006 0.89558 0.0
H849 H 0.78054 0.85962 0.88798 0.0
H850 H 0.81436 0.82715 0.88785 0.0
H851 H 0.83774 0.80481 0.90685 0.0
H852 H 0.87647 0.75257 0.97345 0.0
H853 H 0.90761 0.76642 0.99682 0.0
H854 H 0.89384 0.6589 0.99824 0.0
H855 H 0.86273 0.64469 0.97498 0.0
H856 H 0.88422 0.72569 0.02525 0.0
H857 H 0.00685 0.73307 1.00025 0.0
H858 H 0.97302 0.73684 0.98981 0.0
H859 H 0.96396 0.69327 0.99623 0.0
C860 C 0.87964 0.73169 0.9788 0.0
C861 C 0.86733 0.69761 0.97225 0.0
C862 C 0.89742 0.73967 0.99216 0.0
C863 C 0.90336 0.71381 0.99914 0.0
C864 C 0.88983 0.67934 0.99294 0.0
H865 H 0.04511 0.73254 0.07051 0.0
H866 H 0.99949 0.7085 0.05128 0.0
C867 C 0.87197 0.67128 0.97964 0.0
C868 C 0.92536 0.72339 0.01252 0.0
H869 H 0.00739 0.73979 0.02545 0.0
C870 C 0.91115 0.72878 0.02534 0.0
C871 C 0.96037 0.72719 0.01258 0.0
C872 C 0.97723 0.72258 0.99899 0.0
C873 C 0.93099 0.73759 0.03831 0.0
C874 C 0.9663 0.74194 0.03833 0.0
C875 C 0.98029 0.73626 0.02548 0.0
C876 C 0.99012 0.75409 0.05131 0.0
C877 C 0.91365 0.74154 0.05188 0.0
C878 C 0.99963 0.78742 0.05791 0.0
C879 C 0.02542 0.80104 0.06898 0.0
C880 C 0.04269 0.78189 0.07356 0.0
C881 C 0.03226 0.74793 0.06728 0.0
C882 C 0.00626 0.73421 0.05625 0.0
H883 H 0.88351 0.72596 0.05115 0.0
H884 H 0.92217 0.73214 0.0615 0.0
H885 H 0.92204 0.77059 0.05342 0.0
H886 H 0.98834 0.80375 0.05409 0.0
H887 H 0.03298 0.82741 0.07349 0.0
H888 H 0.15343 0.89977 0.13463 0.0
H889 H 0.17406 0.93183 0.15761 0.0
H890 H 0.2001 0.85132 0.1725 0.0
H891 H 0.18205 0.82081 0.14904 0.0
H892 H 0.15633 0.91985 0.18374 0.0
H893 H 0.2944 0.9378 0.18036 0.0
H894 H 0.26251 0.91916 0.16569 0.0
H895 H 0.26008 0.89077 0.1806 0.0
C896 C 0.16335 0.88881 0.14285 0.0
C897 C 0.16645 0.85801 0.14003 0.0
C898 C 0.17522 0.90718 0.15601 0.0
C899 C 0.18974 0.89473 0.16674 0.0
C900 C 0.19052 0.86248 0.16424 0.0
H901 H 0.22604 1.00044 0.25178 0.0
H902 H 0.20209 0.95467 0.23258 0.0
C903 C 0.17973 0.84474 0.1509 0.0
C904 C 0.20441 0.91598 0.18035 0.0
H905 H 0.279 0.95523 0.20232 0.0
C906 C 0.18323 0.92767 0.18776 0.0
C907 C 0.23978 0.92679 0.18555 0.0
C908 C 0.26563 0.91832 0.17755 0.0
C909 C 0.19649 0.95027 0.19995 0.0
C910 C 0.23128 0.95986 0.2055 0.0
C911 C 0.25219 0.94761 0.19824 0.0
C912 C 0.24761 0.98473 0.21811 0.0
C913 C 0.17363 0.965 0.20622 0.0
C914 C 0.28255 0.01543 0.21699 0.0
C915 C 0.29695 0.04071 0.22823 0.0
C916 C 0.27644 0.03622 0.24073 0.0
C917 C 0.24229 0.0047 0.24219 0.0
C918 C 0.22837 0.97881 0.23112 0.0
H919 H 0.15388 0.96438 0.19821 0.0
H920 H 0.15783 0.94791 0.2155 0.0
H921 H 0.19076 0.99344 0.20999 0.0
H922 H 0.2982 0.02068 0.20715 0.0
H923 H 0.32325 0.06488 0.22675 0.0
H924 H 0.37322 0.21309 0.30924 0.0
H925 H 0.35864 0.23004 0.3324 0.0
H926 H 0.25474 0.13121 0.33259 0.0
H927 H 0.26903 0.11386 0.30933 0.0
H928 H 0.29644 0.239 0.33609 0.0
H929 H 0.29551 0.13747 0.3741 0.0
H930 H 0.31858 0.14765 0.35689 0.0
H931 H 0.27003 0.11962 0.35771 0.0
C932 C 0.34746 0.19456 0.31427 0.0
C933 C 0.32224 0.16211 0.30735 0.0
C934 C 0.3392 0.20437 0.32753 0.0
C935 C 0.30575 0.18181 0.33426 0.0
C936 C 0.28096 0.14877 0.32768 0.0
H937 H 0.18994 0.20199 0.40691 0.0
H938 H 0.2137 0.18092 0.3875 0.0
C939 C 0.28913 0.13896 0.31435 0.0
C940 C 0.29563 0.1945 0.34745 0.0
H941 H 0.27429 0.17576 0.38313 0.0
C942 C 0.29185 0.22537 0.34641 0.0
C943 C 0.28938 0.17644 0.36084 0.0
C944 C 0.2938 0.14359 0.36257 0.0
C945 C 0.28122 0.23828 0.35832 0.0
C946 C 0.27525 0.22047 0.3718 0.0
C947 C 0.27917 0.1896 0.37284 0.0
C948 C 0.26318 0.23249 0.38469 0.0
C949 C 0.2752 0.2701 0.35618 0.0
C950 C 0.28372 0.26815 0.39 0.0
C951 C 0.27004 0.28043 0.40106 0.0
C952 C 0.23577 0.2571 0.40715 0.0
C953 C 0.21638 0.22075 0.40244 0.0
C954 C 0.22993 0.20861 0.39132 0.0
H955 H 0.27146 0.27423 0.34461 0.0
H956 H 0.25099 0.26624 0.36225 0.0
H957 H 0.29929 0.29522 0.36016 0.0
H958 H 0.30991 0.28681 0.38532 0.0
H959 H 0.28579 0.3085 0.4045 0.0
H960 H 0.13886 0.24841 0.47231 0.0
H961 H 0.10675 0.23479 0.49544 0.0
H962 H 0.14473 0.34868 0.50186 0.0
H963 H 0.17681 0.36267 0.47876 0.0
H964 H 0.14675 0.30538 0.52759 0.0
H965 H 0.01387 0.24782 0.49916 0.0
H966 H 0.0437 0.23141 0.49363 0.0
H967 H 0.05653 0.27792 0.49039 0.0
C968 C 0.14089 0.27066 0.47873 0.0
C969 C 0.16021 0.30663 0.47361 0.0
C970 C 0.12242 0.26279 0.49192 0.0
C971 C 0.12313 0.29071 0.50026 0.0
C972 C 0.14382 0.32677 0.49555 0.0
H973 H 0.96861 0.27061 0.56611 0.0
H974 H 0.01342 0.29266 0.54656 0.0
C975 C 0.16207 0.33467 0.48232 0.0
C976 C 0.10044 0.28217 0.51341 0.0
H977 H 0.0123 0.24454 0.52456 0.0
C978 C 0.11736 0.29205 0.52697 0.0
C979 C 0.06217 0.26525 0.51251 0.0
C980 C 0.0428 0.25512 0.49816 0.0
C981 C 0.09682 0.28482 0.5397 0.0
C982 C 0.05849 0.2673 0.5388 0.0
C983 C 0.0417 0.25797 0.52522 0.0
C984 C 0.03499 0.25751 0.55179 0.0
C985 C 0.1162 0.29627 0.55401 0.0
C986 C 0.03272 0.23091 0.56136 0.0
C987 C 0.00707 0.21817 0.57251 0.0
C988 C 0.98319 0.2318 0.5743 0.0
C989 C 0.9867 0.25967 0.5651 0.0
C990 C 0.01219 0.27222 0.55388 0.0
H991 H 0.14553 0.31647 0.55268 0.0
H992 H 0.10361 0.30808 0.56106 0.0
H993 H 0.11392 0.27208 0.55955 0.0
H994 H 0.04967 0.21883 0.55982 0.0
H995 H 1.00503 0.1966 0.57937 0.0
H996 H 0.71033 0.97344 0.73622 0.0
H997 H 0.73487 0.01861 0.71679 0.0
H998 H 0.84243 0.03701 0.7254 0.0
H999 H 0.81834 0.99213 0.74481 0.0
H1000 H 0.79799 0.0968 0.71607 0.0
H1001 H 0.81593 0.99836 0.6824 0.0
H1002 H 0.78618 0.98443 0.69789 0.0
H1003 H 0.8345 0.00648 0.70034 0.0
C1004 C 0.73932 0.98764 0.73419 0.0
C1005 C 0.76232 0.97895 0.74201 0.0
C1006 C 0.75327 0.0134 0.72307 0.0
C1007 C 0.79035 0.03072 0.71956 0.0
C1008 C 0.81367 0.02364 0.72787 0.0
H1009 H 0.90703 0.1515 0.64276 0.0
H1010 H 0.89192 0.12213 0.66645 0.0
C1011 C 0.79982 0.99805 0.73899 0.0
C1012 C 0.80424 0.05406 0.70657 0.0
H1013 H 0.83534 0.05603 0.67242 0.0
C1014 C 0.80624 0.08801 0.70652 0.0
C1015 C 0.81512 0.04252 0.69417 0.0
C1016 C 0.81269 0.00587 0.69356 0.0
C1017 C 0.81909 0.1109 0.69438 0.0
C1018 C 0.82933 0.09905 0.68186 0.0
C1019 C 0.82765 0.0652 0.68202 0.0
C1020 C 0.84025 0.12033 0.66822 0.0
C1021 C 0.82207 0.14775 0.69519 0.0
C1022 C 0.81639 0.12933 0.66134 0.0
C1023 C 0.82505 0.14631 0.64786 0.0
C1024 C 0.85758 0.15425 0.64083 0.0
C1025 C 0.8818 0.14586 0.64785 0.0
C1026 C 0.87317 0.12901 0.6614 0.0
H1027 H 0.8248 0.15732 0.70652 0.0
H1028 H 0.8457 0.16829 0.6889 0.0
H1029 H 0.79702 0.14588 0.69067 0.0
H1030 H 0.79043 0.1221 0.66617 0.0
H1031 H 0.8056 0.15212 0.64276 0.0
loop_
_geom_bond_atom_site_label_1
_geom_bond_atom_site_label_2
_geom_bond_distance
_geom_bond_site_symmetry_2
_ccdc_geom_bond_type
O0 Cd1 2.223 . S
O0 C8 1.315 . S
Cd1 O0 2.223 . S
Cd1 O4 2.297 . S
Cd1 O5 2.439 . S
Cd1 O11 2.240 . S
Cd2 O3 2.240 . S
Cd2 O10 2.223 . S
Cd2 O12 2.297 . S
Cd2 O13 2.439 . S
O3 Cd2 2.240 . S
O3 C8 1.279 . S
O4 Cd1 2.297 . S
O4 C6 1.247 . S
O5 Cd1 2.439 . S
O5 C6 1.208 . S
C6 O4 1.247 . S
C6 O5 1.208 . S
C7 O12 1.247 . S
C7 O13 1.208 . S
C8 O0 1.315 . S
C8 O3 1.279 . S
C9 O10 1.315 . S
C9 O11 1.279 . S
O10 Cd2 2.223 . S
O10 C9 1.315 . S
O11 Cd1 2.240 . S
O11 C9 1.279 . S
O12 Cd2 2.297 . S
O12 C7 1.247 . S
O13 Cd2 2.439 . S
O13 C7 1.208 . S
O14 Cd15 2.223 . S
O14 C22 1.315 . S
Cd15 O14 2.223 . S
Cd15 O18 2.297 . S
Cd15 O19 2.439 . S
Cd15 O25 2.240 . S
Cd16 O17 2.240 . S
Cd16 O24 2.223 . S
Cd16 O26 2.297 . S
Cd16 O27 2.439 . S
O17 Cd16 2.240 . S
O17 C22 1.279 . S
O18 Cd15 2.297 . S
O18 C20 1.247 . S
O19 Cd15 2.439 . S
O19 C20 1.208 . S
C20 O18 1.247 . S
C20 O19 1.208 . S
C21 O26 1.247 . S
C21 O27 1.208 . S
C22 O14 1.315 . S
C22 O17 1.279 . S
C23 O24 1.315 . S
C23 O25 1.279 . S
O24 Cd16 2.223 . S
O24 C23 1.315 . S
O25 Cd15 2.240 . S
O25 C23 1.279 . S
O26 Cd16 2.297 . S
O26 C21 1.247 . S
O27 Cd16 2.439 . S
O27 C21 1.208 . S
O28 Cd29 2.223 . S
O28 C36 1.315 . S
Cd29 O28 2.223 . S
Cd29 O32 2.297 . S
Cd29 O33 2.439 . S
Cd29 O39 2.240 . S
Cd30 O31 2.240 . S
Cd30 O38 2.223 . S
Cd30 O40 2.297 . S
Cd30 O41 2.439 . S
O31 Cd30 2.240 . S
O31 C36 1.279 . S
O32 Cd29 2.297 . S
O32 C34 1.247 . S
O33 Cd29 2.439 . S
O33 C34 1.208 . S
C34 O32 1.247 . S
C34 O33 1.208 . S
C35 O40 1.247 . S
C35 O41 1.208 . S
C36 O28 1.315 . S
C36 O31 1.279 . S
C37 O38 1.315 . S
C37 O39 1.279 . S
O38 Cd30 2.223 . S
O38 C37 1.315 . S
O39 Cd29 2.240 . S
O39 C37 1.279 . S
O40 Cd30 2.297 . S
O40 C35 1.247 . S
O41 Cd30 2.439 . S
O41 C35 1.208 . S
O42 Cd43 2.223 . S
O42 C50 1.315 . S
Cd43 O42 2.223 . S
Cd43 O46 2.297 . S
Cd43 O47 2.439 . S
Cd43 O53 2.240 . S
Cd44 O45 2.240 . S
Cd44 O52 2.223 . S
Cd44 O54 2.297 . S
Cd44 O55 2.439 . S
O45 Cd44 2.240 . S
O45 C50 1.279 . S
O46 Cd43 2.297 . S
O46 C48 1.247 . S
O47 Cd43 2.439 . S
O47 C48 1.208 . S
C48 O46 1.247 . S
C48 O47 1.208 . S
C49 O54 1.247 . S
C49 O55 1.208 . S
C50 O42 1.315 . S
C50 O45 1.279 . S
C51 O52 1.315 . S
C51 O53 1.279 . S
O52 Cd44 2.223 . S
O52 C51 1.315 . S
O53 Cd43 2.240 . S
O53 C51 1.279 . S
O54 Cd44 2.297 . S
O54 C49 1.247 . S
O55 Cd44 2.439 . S
O55 C49 1.208 . S
O56 Cd57 2.223 . S
O56 C64 1.315 . S
Cd57 O56 2.223 . S
Cd57 O60 2.297 . S
Cd57 O61 2.439 . S
Cd57 O67 2.240 . S
Cd58 O59 2.240 . S
Cd58 O66 2.223 . S
Cd58 O68 2.297 . S
Cd58 O69 2.439 . S
O59 Cd58 2.240 . S
O59 C64 1.279 . S
O60 Cd57 2.297 . S
O60 C62 1.247 . S
O61 Cd57 2.439 . S
O61 C62 1.208 . S
C62 O60 1.247 . S
C62 O61 1.208 . S
C63 O68 1.247 . S
C63 O69 1.208 . S
C64 O56 1.315 . S
C64 O59 1.279 . S
C65 O66 1.315 . S
C65 O67 1.279 . S
O66 Cd58 2.223 . S
O66 C65 1.315 . S
O67 Cd57 2.240 . S
O67 C65 1.279 . S
O68 Cd58 2.297 . S
O68 C63 1.247 . S
O69 Cd58 2.439 . S
O69 C63 1.208 . S
O70 Cd71 2.223 . S
O70 C78 1.315 . S
Cd71 O70 2.223 . S
Cd71 O74 2.297 . S
Cd71 O75 2.439 . S
Cd71 O81 2.240 . S
Cd72 O73 2.240 . S
Cd72 O80 2.223 . S
Cd72 O82 2.230 1_556 S
Cd72 O83 2.439 . S
O73 Cd72 2.240 . S
O73 C78 1.279 . S
O74 Cd71 2.297 . S
O74 C76 1.247 . S
O75 Cd71 2.439 . S
O75 C76 1.208 . S
C76 O74 1.247 . S
C76 O75 1.208 . S
C77 O82 1.264 . S
C77 O83 1.208 1_554 S
C78 O70 1.315 . S
C78 O73 1.279 . S
C79 O80 1.315 . S
C79 O81 1.279 . S
O80 Cd72 2.223 . S
O80 C79 1.315 . S
O81 Cd71 2.240 . S
O81 C79 1.279 . S
O82 Cd72 2.230 1_554 S
O82 C77 1.264 . S
O83 Cd72 2.439 . S
O83 C77 1.208 1_556 S
O84 Cd85 2.223 . S
O84 C92 1.315 . S
Cd85 O84 2.223 . S
Cd85 O88 2.297 . S
Cd85 O89 2.439 . S
Cd85 O95 2.240 . S
Cd86 O87 2.240 . S
Cd86 O94 2.223 . S
Cd86 O96 2.297 . S
Cd86 O97 2.439 . S
O87 Cd86 2.240 . S
O87 C92 1.279 . S
O88 Cd85 2.297 . S
O88 C90 1.247 . S
O89 Cd85 2.439 . S
O89 C90 1.208 . S
C90 O88 1.247 . S
C90 O89 1.208 . S
C91 O96 1.247 . S
C91 O97 1.208 . S
C92 O84 1.315 . S
C92 O87 1.279 . S
C93 O94 1.315 . S
C93 O95 1.279 . S
O94 Cd86 2.223 . S
O94 C93 1.315 . S
O95 Cd85 2.240 . S
O95 C93 1.279 . S
O96 Cd86 2.297 . S
O96 C91 1.247 . S
O97 Cd86 2.439 . S
O97 C91 1.208 . S
O98 Cd99 2.223 . S
O98 C106 1.315 . S
Cd99 O98 2.223 . S
Cd99 O102 2.297 . S
Cd99 O103 2.439 . S
Cd99 O109 2.240 . S
Cd100 O101 2.240 . S
Cd100 O108 2.223 . S
Cd100 O110 2.297 . S
Cd100 O111 2.439 . S
O101 Cd100 2.240 . S
O101 C106 1.279 . S
O102 Cd99 2.297 . S
O102 C104 1.247 . S
O103 Cd99 2.439 . S
O103 C104 1.208 . S
C104 O102 1.247 . S
C104 O103 1.208 . S
C105 O110 1.247 . S
C105 O111 1.208 . S
C106 O98 1.315 . S
C106 O101 1.279 . S
C107 O108 1.315 . S
C107 O109 1.279 . S
O108 Cd100 2.223 . S
O108 C107 1.315 . S
O109 Cd99 2.240 . S
O109 C107 1.279 . S
O110 Cd100 2.297 . S
O110 C105 1.247 . S
O111 Cd100 2.439 . S
O111 C105 1.208 . S
O112 Cd113 2.223 . S
O112 C120 1.315 . S
Cd113 O112 2.223 . S
Cd113 O116 2.297 . S
Cd113 O117 2.439 . S
Cd113 O123 2.240 . S
Cd114 O115 2.240 . S
Cd114 O122 2.223 . S
Cd114 O124 2.297 . S
Cd114 O125 2.439 . S
O115 Cd114 2.240 . S
O115 C120 1.279 . S
O116 Cd113 2.297 . S
O116 C118 1.247 . S
O117 Cd113 2.439 . S
O117 C118 1.208 . S
C118 O116 1.247 . S
C118 O117 1.208 . S
C119 O124 1.247 . S
C119 O125 1.208 . S
C120 O112 1.315 . S
C120 O115 1.279 . S
C121 O122 1.315 . S
C121 O123 1.279 . S
O122 Cd114 2.223 . S
O122 C121 1.315 . S
O123 Cd113 2.240 . S
O123 C121 1.279 . S
O124 Cd114 2.297 . S
O124 C119 1.247 . S
O125 Cd114 2.439 . S
O125 C119 1.208 . S
O126 Cd127 2.223 . S
O126 C134 1.315 . S
Cd127 O126 2.223 . S
Cd127 O130 2.297 . S
Cd127 O131 2.439 . S
Cd127 O137 2.240 . S
Cd128 O129 2.240 . S
Cd128 O136 2.223 . S
Cd128 O138 2.297 . S
Cd128 O139 2.439 . S
O129 Cd128 2.240 . S
O129 C134 1.279 . S
O130 Cd127 2.297 . S
O130 C132 1.247 . S
O131 Cd127 2.439 . S
O131 C132 1.208 . S
C132 O130 1.247 . S
C132 O131 1.208 . S
C133 O138 1.247 . S
C133 O139 1.208 . S
C134 O126 1.315 . S
C134 O129 1.279 . S
C135 O136 1.315 . S
C135 O137 1.279 . S
O136 Cd128 2.223 . S
O136 C135 1.315 . S
O137 Cd127 2.240 . S
O137 C135 1.279 . S
O138 Cd128 2.297 . S
O138 C133 1.247 . S
O139 Cd128 2.439 . S
O139 C133 1.208 . S
O140 Cd141 2.223 . S
O140 C148 1.315 . S
Cd141 O140 2.223 . S
Cd141 O144 2.297 . S
Cd141 O145 2.439 . S
Cd141 O151 2.240 . S
Cd142 O143 2.240 . S
Cd142 O150 2.223 . S
Cd142 O152 2.297 . S
Cd142 O153 2.439 . S
O143 Cd142 2.240 . S
O143 C148 1.279 . S
O144 Cd141 2.297 . S
O144 C146 1.247 . S
O145 Cd141 2.439 . S
O145 C146 1.208 . S
C146 O144 1.247 . S
C146 O145 1.208 . S
C147 O152 1.247 . S
C147 O153 1.208 . S
C148 O140 1.315 . S
C148 O143 1.279 . S
C149 O150 1.315 . S
C149 O151 1.279 . S
O150 Cd142 2.223 . S
O150 C149 1.315 . S
O151 Cd141 2.240 . S
O151 C149 1.279 . S
O152 Cd142 2.297 . S
O152 C147 1.247 . S
O153 Cd142 2.439 . S
O153 C147 1.208 . S
O154 Cd155 2.223 . S
O154 C162 1.315 . S
Cd155 O154 2.223 . S
Cd155 O158 2.297 . S
Cd155 O159 2.439 . S
Cd155 O165 2.240 . S
Cd156 O157 2.240 . S
Cd156 O164 2.223 . S
Cd156 O166 2.297 . S
Cd156 O167 2.439 . S
O157 Cd156 2.240 . S
O157 C162 1.279 . S
O158 Cd155 2.297 . S
O158 C160 1.247 . S
O159 Cd155 2.439 . S
O159 C160 1.208 . S
C160 O158 1.247 . S
C160 O159 1.208 . S
C161 O166 1.247 . S
C161 O167 1.208 . S
C162 O154 1.315 . S
C162 O157 1.279 . S
C163 O164 1.315 . S
C163 O165 1.279 . S
O164 Cd156 2.223 . S
O164 C163 1.315 . S
O165 Cd155 2.240 . S
O165 C163 1.279 . S
O166 Cd156 2.297 . S
O166 C161 1.247 . S
O167 Cd156 2.439 . S
O167 C161 1.208 . S
H168 C176 0.929 . S
H169 C178 0.930 . S
H170 C180 0.930 . S
H171 C183 0.929 . S
H172 C186 0.930 . S
H173 C188 0.960 . S
H174 C188 0.960 . S
H175 C188 0.960 . S
C176 H168 0.929 . S
C176 C177 1.377 . S
C176 C178 1.384 . S
C177 C176 1.377 . S
C177 C183 1.390 . S
C178 H169 0.930 . S
C178 C176 1.384 . S
C178 C179 1.372 . S
C179 C178 1.372 . S
C179 C180 1.400 . S
C179 C184 1.490 . S
C180 H170 0.930 . S
C180 C179 1.400 . S
C180 C183 1.386 . S
H181 C197 0.930 . S
H182 C198 0.931 . S
C183 H171 0.929 . S
C183 C177 1.390 . S
C183 C180 1.386 . S
C184 C179 1.490 . S
C184 C186 1.395 . S
C184 C187 1.403 . S
H185 C191 0.930 . S
C186 H172 0.930 . S
C186 C184 1.395 . S
C186 C189 1.403 . S
C187 C184 1.403 . S
C187 C188 1.524 . S
C187 C191 1.400 . S
C188 H173 0.960 . S
C188 H174 0.960 . S
C188 H175 0.960 . S
C188 C187 1.524 . S
C189 C186 1.403 . S
C189 C190 1.392 . S
C189 C193 1.495 . S
C190 C189 1.392 . S
C190 C191 1.385 . S
C190 C192 1.478 . S
C191 H185 0.930 . S
C191 C187 1.400 . S
C191 C190 1.385 . S
C192 C190 1.478 . S
C192 C194 1.381 . S
C192 C198 1.383 . S
C193 C189 1.495 . S
C193 H199 0.959 . S
C193 H200 0.961 . S
C193 H201 0.960 . S
C194 C192 1.381 . S
C194 C195 1.394 . S
C194 H202 0.930 . S
C195 C194 1.394 . S
C195 C196 1.383 . S
C195 H203 0.929 . S
C196 C195 1.383 . S
C196 C197 1.377 . S
C197 H181 0.930 . S
C197 C196 1.377 . S
C197 C198 1.379 . S
C198 H182 0.931 . S
C198 C192 1.383 . S
C198 C197 1.379 . S
H199 C193 0.959 . S
H200 C193 0.961 . S
H201 C193 0.960 . S
H202 C194 0.930 . S
H203 C195 0.929 . S
H204 C212 0.929 . S
H205 C214 0.930 . S
H206 C216 0.930 . S
H207 C219 0.929 . S
H208 C222 0.930 . S
H209 C224 0.960 . S
H210 C224 0.960 . S
H211 C224 0.960 . S
C212 H204 0.929 . S
C212 C213 1.377 . S
C212 C214 1.384 . S
C213 C212 1.377 . S
C213 C219 1.390 . S
C214 H205 0.930 . S
C214 C212 1.384 . S
C214 C215 1.372 . S
C215 C214 1.372 . S
C215 C216 1.400 . S
C215 C220 1.490 . S
C216 H206 0.930 . S
C216 C215 1.400 . S
C216 C219 1.386 . S
H217 C233 0.930 . S
H218 C234 0.931 . S
C219 H207 0.929 . S
C219 C213 1.390 . S
C219 C216 1.386 . S
C220 C215 1.490 . S
C220 C222 1.395 . S
C220 C223 1.403 . S
H221 C227 0.930 . S
C222 H208 0.930 . S
C222 C220 1.395 . S
C222 C225 1.403 . S
C223 C220 1.403 . S
C223 C224 1.524 . S
C223 C227 1.400 . S
C224 H209 0.960 . S
C224 H210 0.960 . S
C224 H211 0.960 . S
C224 C223 1.524 . S
C225 C222 1.403 . S
C225 C226 1.392 . S
C225 C229 1.495 . S
C226 C225 1.392 . S
C226 C227 1.385 . S
C226 C228 1.478 . S
C227 H221 0.930 . S
C227 C223 1.400 . S
C227 C226 1.385 . S
C228 C226 1.478 . S
C228 C230 1.381 . S
C228 C234 1.383 . S
C229 C225 1.495 . S
C229 H235 0.959 . S
C229 H236 0.961 . S
C229 H237 0.960 . S
C230 C228 1.381 . S
C230 C231 1.394 . S
C230 H238 0.930 . S
C231 C230 1.394 . S
C231 C232 1.383 . S
C231 H239 0.929 . S
C232 C231 1.383 . S
C232 C233 1.377 . S
C233 H217 0.930 . S
C233 C232 1.377 . S
C233 C234 1.379 . S
C234 H218 0.931 . S
C234 C228 1.383 . S
C234 C233 1.379 . S
H235 C229 0.959 . S
H236 C229 0.961 . S
H237 C229 0.960 . S
H238 C230 0.930 . S
H239 C231 0.929 . S
H240 C248 0.929 . S
H241 C250 0.930 . S
H242 C252 0.930 . S
H243 C255 0.929 . S
H244 C258 0.930 . S
H245 C260 0.960 . S
H246 C260 0.960 . S
H247 C260 0.960 . S
C248 H240 0.929 . S
C248 C249 1.377 . S
C248 C250 1.384 . S
C249 C248 1.377 . S
C249 C255 1.390 . S
C250 H241 0.930 . S
C250 C248 1.384 . S
C250 C251 1.372 . S
C251 C250 1.372 . S
C251 C252 1.400 . S
C251 C256 1.490 . S
C252 H242 0.930 . S
C252 C251 1.400 . S
C252 C255 1.386 . S
H253 C269 0.930 . S
H254 C270 0.931 . S
C255 H243 0.929 . S
C255 C249 1.390 . S
C255 C252 1.386 . S
C256 C251 1.490 . S
C256 C258 1.395 . S
C256 C259 1.403 . S
H257 C263 0.930 . S
C258 H244 0.930 . S
C258 C256 1.395 . S
C258 C261 1.403 . S
C259 C256 1.403 . S
C259 C260 1.524 . S
C259 C263 1.400 . S
C260 H245 0.960 . S
C260 H246 0.960 . S
C260 H247 0.960 . S
C260 C259 1.524 . S
C261 C258 1.403 . S
C261 C262 1.392 . S
C261 C265 1.495 . S
C262 C261 1.392 . S
C262 C263 1.385 . S
C262 C264 1.478 . S
C263 H257 0.930 . S
C263 C259 1.400 . S
C263 C262 1.385 . S
C264 C262 1.478 . S
C264 C266 1.381 . S
C264 C270 1.383 . S
C265 C261 1.495 . S
C265 H271 0.959 . S
C265 H272 0.961 . S
C265 H273 0.960 . S
C266 C264 1.381 . S
C266 C267 1.394 . S
C266 H274 0.930 . S
C267 C266 1.394 . S
C267 C268 1.383 . S
C267 H275 0.929 . S
C268 C267 1.383 . S
C268 C269 1.377 . S
C269 H253 0.930 . S
C269 C268 1.377 . S
C269 C270 1.379 . S
C270 H254 0.931 . S
C270 C264 1.383 . S
C270 C269 1.379 . S
H271 C265 0.959 . S
H272 C265 0.961 . S
H273 C265 0.960 . S
H274 C266 0.930 . S
H275 C267 0.929 . S
H276 C284 0.929 . S
H277 C286 0.930 . S
H278 C288 0.930 . S
H279 C291 0.929 . S
H280 C294 0.930 . S
H281 C296 0.960 . S
H282 C296 0.960 . S
H283 C296 0.960 . S
C284 H276 0.929 . S
C284 C285 1.377 . S
C284 C286 1.384 . S
C285 C284 1.377 . S
C285 C291 1.390 . S
C286 H277 0.930 . S
C286 C284 1.384 . S
C286 C287 1.372 . S
C287 C286 1.372 . S
C287 C288 1.400 . S
C287 C292 1.490 . S
C288 H278 0.930 . S
C288 C287 1.400 . S
C288 C291 1.386 . S
H289 C305 0.930 . S
H290 C306 0.931 . S
C291 H279 0.929 . S
C291 C285 1.390 . S
C291 C288 1.386 . S
C292 C287 1.490 . S
C292 C294 1.395 . S
C292 C295 1.403 . S
H293 C299 0.930 . S
C294 H280 0.930 . S
C294 C292 1.395 . S
C294 C297 1.403 . S
C295 C292 1.403 . S
C295 C296 1.524 . S
C295 C299 1.400 . S
C296 H281 0.960 . S
C296 H282 0.960 . S
C296 H283 0.960 . S
C296 C295 1.524 . S
C297 C294 1.403 . S
C297 C298 1.392 . S
C297 C301 1.495 . S
C298 C297 1.392 . S
C298 C299 1.385 . S
C298 C300 1.478 . S
C299 H293 0.930 . S
C299 C295 1.400 . S
C299 C298 1.385 . S
C300 C298 1.478 . S
C300 C302 1.381 . S
C300 C306 1.383 . S
C301 C297 1.495 . S
C301 H307 0.959 . S
C301 H308 0.961 . S
C301 H309 0.960 . S
C302 C300 1.381 . S
C302 C303 1.394 . S
C302 H310 0.930 . S
C303 C302 1.394 . S
C303 C304 1.383 . S
C303 H311 0.929 . S
C304 C303 1.383 . S
C304 C305 1.377 . S
C305 H289 0.930 . S
C305 C304 1.377 . S
C305 C306 1.379 . S
C306 H290 0.931 . S
C306 C300 1.383 . S
C306 C305 1.379 . S
H307 C301 0.959 . S
H308 C301 0.961 . S
H309 C301 0.960 . S
H310 C302 0.930 . S
H311 C303 0.929 . S
H312 C320 0.929 . S
H313 C322 0.930 . S
H314 C324 0.930 . S
H315 C327 0.929 . S
H316 C330 0.930 . S
H317 C332 0.960 . S
H318 C332 0.960 . S
H319 C332 0.960 . S
C320 H312 0.929 . S
C320 C321 1.377 . S
C320 C322 1.384 . S
C321 C320 1.377 . S
C321 C327 1.390 . S
C322 H313 0.930 . S
C322 C320 1.384 . S
C322 C323 1.372 . S
C323 C322 1.372 . S
C323 C324 1.400 . S
C323 C328 1.490 . S
C324 H314 0.930 . S
C324 C323 1.400 . S
C324 C327 1.386 . S
H325 C341 0.930 . S
H326 C342 0.931 . S
C327 H315 0.929 . S
C327 C321 1.390 . S
C327 C324 1.386 . S
C328 C323 1.490 . S
C328 C330 1.395 . S
C328 C331 1.403 . S
H329 C335 0.930 . S
C330 H316 0.930 . S
C330 C328 1.395 . S
C330 C333 1.403 . S
C331 C328 1.403 . S
C331 C332 1.524 . S
C331 C335 1.400 . S
C332 H317 0.960 . S
C332 H318 0.960 . S
C332 H319 0.960 . S
C332 C331 1.524 . S
C333 C330 1.403 . S
C333 C334 1.392 . S
C333 C337 1.495 . S
C334 C333 1.392 . S
C334 C335 1.385 . S
C334 C336 1.478 . S
C335 H329 0.930 . S
C335 C331 1.400 . S
C335 C334 1.385 . S
C336 C334 1.478 . S
C336 C338 1.381 . S
C336 C342 1.383 . S
C337 C333 1.495 . S
C337 H343 0.959 . S
C337 H344 0.961 . S
C337 H345 0.960 . S
C338 C336 1.381 . S
C338 C339 1.394 . S
C338 H346 0.930 . S
C339 C338 1.394 . S
C339 C340 1.383 . S
C339 H347 0.929 . S
C340 C339 1.383 . S
C340 C341 1.377 . S
C341 H325 0.930 . S
C341 C340 1.377 . S
C341 C342 1.379 . S
C342 H326 0.931 . S
C342 C336 1.383 . S
C342 C341 1.379 . S
H343 C337 0.959 . S
H344 C337 0.961 . S
H345 C337 0.960 . S
H346 C338 0.930 . S
H347 C339 0.929 . S
H348 C356 0.929 . S
H349 C358 0.930 . S
H350 C360 0.930 . S
H351 C363 0.929 . S
H352 C366 0.930 . S
H353 C368 0.960 . S
H354 C368 0.960 . S
H355 C368 0.960 . S
C356 H348 0.929 . S
C356 C357 1.377 . S
C356 C358 1.384 . S
C357 C356 1.377 . S
C357 C363 1.390 . S
C358 H349 0.930 . S
C358 C356 1.384 . S
C358 C359 1.372 . S
C359 C358 1.372 . S
C359 C360 1.400 . S
C359 C364 1.490 . S
C360 H350 0.930 . S
C360 C359 1.400 . S
C360 C363 1.386 . S
H361 C377 0.930 . S
H362 C378 0.931 . S
C363 H351 0.929 . S
C363 C357 1.390 . S
C363 C360 1.386 . S
C364 C359 1.490 . S
C364 C366 1.395 . S
C364 C367 1.403 . S
H365 C371 0.930 . S
C366 H352 0.930 . S
C366 C364 1.395 . S
C366 C369 1.403 . S
C367 C364 1.403 . S
C367 C368 1.524 . S
C367 C371 1.400 . S
C368 H353 0.960 . S
C368 H354 0.960 . S
C368 H355 0.960 . S
C368 C367 1.524 . S
C369 C366 1.403 . S
C369 C370 1.392 . S
C369 C373 1.495 . S
C370 C369 1.392 . S
C370 C371 1.385 . S
C370 C372 1.478 . S
C371 H365 0.930 . S
C371 C367 1.400 . S
C371 C370 1.385 . S
C372 C370 1.478 . S
C372 C374 1.381 . S
C372 C378 1.383 . S
C373 C369 1.495 . S
C373 H379 0.959 . S
C373 H380 0.961 . S
C373 H381 0.960 . S
C374 C372 1.381 . S
C374 C375 1.394 . S
C374 H382 0.930 . S
C375 C374 1.394 . S
C375 C376 1.383 . S
C375 H383 0.929 . S
C376 C375 1.383 . S
C376 C377 1.377 . S
C377 H361 0.930 . S
C377 C376 1.377 . S
C377 C378 1.379 . S
C378 H362 0.931 . S
C378 C372 1.383 . S
C378 C377 1.379 . S
H379 C373 0.959 . S
H380 C373 0.961 . S
H381 C373 0.960 . S
H382 C374 0.930 . S
H383 C375 0.929 . S
H384 C392 0.929 . S
H385 C394 0.930 . S
H386 C396 0.930 . S
H387 C399 0.929 . S
H388 C402 0.930 . S
H389 C404 0.960 . S
H390 C404 0.960 . S
H391 C404 0.960 . S
C392 H384 0.929 . S
C392 C393 1.377 . S
C392 C394 1.384 . S
C393 C392 1.377 . S
C393 C399 1.390 . S
C394 H385 0.930 . S
C394 C392 1.384 . S
C394 C395 1.372 . S
C395 C394 1.372 . S
C395 C396 1.400 . S
C395 C400 1.490 . S
C396 H386 0.930 . S
C396 C395 1.400 . S
C396 C399 1.386 . S
H397 C413 0.930 . S
H398 C414 0.931 . S
C399 H387 0.929 . S
C399 C393 1.390 . S
C399 C396 1.386 . S
C400 C395 1.490 . S
C400 C402 1.395 . S
C400 C403 1.403 . S
H401 C407 0.930 . S
C402 H388 0.930 . S
C402 C400 1.395 . S
C402 C405 1.403 . S
C403 C400 1.403 . S
C403 C404 1.524 . S
C403 C407 1.400 . S
C404 H389 0.960 . S
C404 H390 0.960 . S
C404 H391 0.960 . S
C404 C403 1.524 . S
C405 C402 1.403 . S
C405 C406 1.392 . S
C405 C409 1.495 . S
C406 C405 1.392 . S
C406 C407 1.385 . S
C406 C408 1.478 . S
C407 H401 0.930 . S
C407 C403 1.400 . S
C407 C406 1.385 . S
C408 C406 1.478 . S
C408 C410 1.381 . S
C408 C414 1.383 . S
C409 C405 1.495 . S
C409 H415 0.959 . S
C409 H416 0.961 . S
C409 H417 0.960 . S
C410 C408 1.381 . S
C410 C411 1.394 . S
C410 H418 0.930 . S
C411 C410 1.394 . S
C411 C412 1.383 . S
C411 H419 0.929 . S
C412 C411 1.383 . S
C412 C413 1.377 . S
C413 H397 0.930 . S
C413 C412 1.377 . S
C413 C414 1.379 . S
C414 H398 0.931 . S
C414 C408 1.383 . S
C414 C413 1.379 . S
H415 C409 0.959 . S
H416 C409 0.961 . S
H417 C409 0.960 . S
H418 C410 0.930 . S
H419 C411 0.929 . S
H420 C428 0.929 . S
H421 C430 0.930 . S
H422 C432 0.930 . S
H423 C435 0.929 . S
H424 C438 0.930 . S
H425 C440 0.960 1_455 S
H426 C440 0.960 . S
H427 C440 0.960 . S
C428 H420 0.929 . S
C428 C429 1.377 . S
C428 C430 1.384 . S
C429 C428 1.377 . S
C429 C435 1.390 . S
C430 H421 0.930 . S
C430 C428 1.384 . S
C430 C431 1.372 . S
C431 C430 1.372 . S
C431 C432 1.400 . S
C431 C436 1.490 . S
C432 H422 0.930 . S
C432 C431 1.400 . S
C432 C435 1.386 . S
H433 C449 0.930 . S
H434 C450 0.931 . S
C435 H423 0.929 . S
C435 C429 1.390 . S
C435 C432 1.386 . S
C436 C431 1.490 . S
C436 C438 1.395 . S
C436 C439 1.403 . S
H437 C443 0.930 . S
C438 H424 0.930 . S
C438 C436 1.395 . S
C438 C441 1.403 1_655 S
C439 C436 1.403 . S
C439 C440 1.524 . S
C439 C443 1.400 1_655 S
C440 H425 0.960 1_655 S
C440 H426 0.960 . S
C440 H427 0.960 . S
C440 C439 1.524 . S
C441 C438 1.403 1_455 S
C441 C442 1.392 . S
C441 C445 1.495 . S
C442 C441 1.392 . S
C442 C443 1.385 . S
C442 C444 1.478 . S
C443 H437 0.930 . S
C443 C439 1.400 1_455 S
C443 C442 1.385 . S
C444 C442 1.478 . S
C444 C446 1.381 . S
C444 C450 1.383 . S
C445 C441 1.495 . S
C445 H451 0.959 . S
C445 H452 0.961 . S
C445 H453 0.960 . S
C446 C444 1.381 . S
C446 C447 1.394 . S
C446 H454 0.930 . S
C447 C446 1.394 . S
C447 C448 1.383 . S
C447 H455 0.929 . S
C448 C447 1.383 . S
C448 C449 1.377 . S
C449 H433 0.930 . S
C449 C448 1.377 . S
C449 C450 1.379 . S
C450 H434 0.931 . S
C450 C444 1.383 . S
C450 C449 1.379 . S
H451 C445 0.959 . S
H452 C445 0.961 . S
H453 C445 0.960 . S
H454 C446 0.930 . S
H455 C447 0.929 . S
H456 C464 0.929 . S
H457 C466 0.930 . S
H458 C468 0.930 . S
H459 C471 0.929 . S
H460 C474 0.930 . S
H461 C476 0.960 . S
H462 C476 0.960 . S
H463 C476 0.960 . S
C464 H456 0.929 . S
C464 C465 1.377 . S
C464 C466 1.384 . S
C465 C464 1.377 . S
C465 C471 1.390 . S
C466 H457 0.930 . S
C466 C464 1.384 . S
C466 C467 1.372 . S
C467 C466 1.372 . S
C467 C468 1.400 . S
C467 C472 1.490 . S
C468 H458 0.930 . S
C468 C467 1.400 . S
C468 C471 1.386 . S
H469 C485 0.930 . S
H470 C486 0.931 . S
C471 H459 0.929 . S
C471 C465 1.390 . S
C471 C468 1.386 . S
C472 C467 1.490 . S
C472 C474 1.395 . S
C472 C475 1.403 . S
H473 C479 0.930 . S
C474 H460 0.930 . S
C474 C472 1.395 . S
C474 C477 1.403 1_545 S
C475 C472 1.403 . S
C475 C476 1.524 . S
C475 C479 1.400 1_545 S
C476 H461 0.960 . S
C476 H462 0.960 . S
C476 H463 0.960 . S
C476 C475 1.524 . S
C477 C474 1.403 1_565 S
C477 C478 1.392 . S
C477 C481 1.495 . S
C478 C477 1.392 . S
C478 C479 1.385 . S
C478 C480 1.478 . S
C479 H473 0.930 . S
C479 C475 1.400 1_565 S
C479 C478 1.385 . S
C480 C478 1.478 . S
C480 C482 1.381 . S
C480 C486 1.383 . S
C481 C477 1.495 . S
C481 H487 0.959 . S
C481 H488 0.961 . S
C481 H489 0.960 . S
C482 C480 1.381 . S
C482 C483 1.394 . S
C482 H490 0.930 . S
C483 C482 1.394 . S
C483 C484 1.383 . S
C483 H491 0.929 . S
C484 C483 1.383 . S
C484 C485 1.377 . S
C485 H469 0.930 . S
C485 C484 1.377 . S
C485 C486 1.379 . S
C486 H470 0.931 . S
C486 C480 1.383 . S
C486 C485 1.379 . S
H487 C481 0.959 . S
H488 C481 0.961 . S
H489 C481 0.960 . S
H490 C482 0.930 . S
H491 C483 0.929 . S
H492 C500 0.929 . S
H493 C502 0.930 . S
H494 C504 0.930 . S
H495 C507 0.929 . S
H496 C510 0.930 . S
H497 C512 0.960 . S
H498 C512 0.960 . S
H499 C512 0.960 . S
C500 H492 0.929 . S
C500 C501 1.377 . S
C500 C502 1.384 . S
C501 C500 1.377 . S
C501 C507 1.390 . S
C502 H493 0.930 . S
C502 C500 1.384 . S
C502 C503 1.372 . S
C503 C502 1.372 . S
C503 C504 1.400 . S
C503 C508 1.490 . S
C504 H494 0.930 . S
C504 C503 1.400 . S
C504 C507 1.386 . S
H505 C521 0.930 . S
H506 C522 0.931 . S
C507 H495 0.929 . S
C507 C501 1.390 . S
C507 C504 1.386 . S
C508 C503 1.490 . S
C508 C510 1.395 . S
C508 C511 1.403 . S
H509 C515 0.930 . S
C510 H496 0.930 . S
C510 C508 1.395 . S
C510 C513 1.403 . S
C511 C508 1.403 . S
C511 C512 1.524 . S
C511 C515 1.400 . S
C512 H497 0.960 . S
C512 H498 0.960 . S
C512 H499 0.960 . S
C512 C511 1.524 . S
C513 C510 1.403 . S
C513 C514 1.392 . S
C513 C517 1.495 . S
C514 C513 1.392 . S
C514 C515 1.385 . S
C514 C516 1.478 . S
C515 H509 0.930 . S
C515 C511 1.400 . S
C515 C514 1.385 . S
C516 C514 1.478 . S
C516 C518 1.381 . S
C516 C522 1.383 . S
C517 C513 1.495 . S
C517 H523 0.959 . S
C517 H524 0.961 . S
C517 H525 0.960 . S
C518 C516 1.381 . S
C518 C519 1.394 . S
C518 H526 0.930 . S
C519 C518 1.394 . S
C519 C520 1.383 . S
C519 H527 0.929 . S
C520 C519 1.383 . S
C520 C521 1.377 . S
C521 H505 0.930 . S
C521 C520 1.377 . S
C521 C522 1.379 . S
C522 H506 0.931 . S
C522 C516 1.383 . S
C522 C521 1.379 . S
H523 C517 0.959 . S
H524 C517 0.961 . S
H525 C517 0.960 . S
H526 C518 0.930 . S
H527 C519 0.929 . S
H528 C536 0.929 . S
H529 C538 0.930 . S
H530 C540 0.930 . S
H531 C543 0.929 . S
H532 C546 0.930 . S
H533 C548 0.960 1_455 S
H534 C548 0.960 . S
H535 C548 0.960 . S
C536 H528 0.929 . S
C536 C537 1.377 . S
C536 C538 1.384 . S
C537 C536 1.377 . S
C537 C543 1.390 . S
C538 H529 0.930 . S
C538 C536 1.384 . S
C538 C539 1.372 . S
C539 C538 1.372 . S
C539 C540 1.400 . S
C539 C544 1.490 . S
C540 H530 0.930 . S
C540 C539 1.400 . S
C540 C543 1.386 . S
H541 C557 0.930 . S
H542 C558 0.931 . S
C543 H531 0.929 . S
C543 C537 1.390 . S
C543 C540 1.386 . S
C544 C539 1.490 . S
C544 C546 1.395 . S
C544 C547 1.403 . S
H545 C551 0.930 . S
C546 H532 0.930 . S
C546 C544 1.395 . S
C546 C549 1.403 1_655 S
C547 C544 1.403 . S
C547 C548 1.524 . S
C547 C551 1.400 1_655 S
C548 H533 0.960 1_655 S
C548 H534 0.960 . S
C548 H535 0.960 . S
C548 C547 1.524 . S
C549 C546 1.403 1_455 S
C549 C550 1.392 . S
C549 C553 1.495 . S
C550 C549 1.392 . S
C550 C551 1.385 . S
C550 C552 1.478 . S
C551 H545 0.930 . S
C551 C547 1.400 1_455 S
C551 C550 1.385 . S
C552 C550 1.478 . S
C552 C554 1.381 . S
C552 C558 1.383 . S
C553 C549 1.495 . S
C553 H559 0.959 . S
C553 H560 0.961 . S
C553 H561 0.960 . S
C554 C552 1.381 . S
C554 C555 1.394 . S
C554 H562 0.930 . S
C555 C554 1.394 . S
C555 C556 1.383 . S
C555 H563 0.929 . S
C556 C555 1.383 . S
C556 C557 1.377 . S
C557 H541 0.930 . S
C557 C556 1.377 . S
C557 C558 1.379 . S
C558 H542 0.931 . S
C558 C552 1.383 . S
C558 C557 1.379 . S
H559 C553 0.959 . S
H560 C553 0.961 . S
H561 C553 0.960 . S
H562 C554 0.930 . S
H563 C555 0.929 . S
H564 C572 0.929 . S
H565 C574 0.930 . S
H566 C576 0.930 . S
H567 C579 0.929 . S
H568 C582 0.930 . S
H569 C584 0.960 1_545 S
H570 C584 0.960 . S
H571 C584 0.960 . S
C572 H564 0.929 . S
C572 C573 1.377 . S
C572 C574 1.384 . S
C573 C572 1.377 . S
C573 C579 1.390 . S
C574 H565 0.930 . S
C574 C572 1.384 . S
C574 C575 1.372 . S
C575 C574 1.372 . S
C575 C576 1.400 . S
C575 C580 1.490 . S
C576 H566 0.930 . S
C576 C575 1.400 . S
C576 C579 1.386 . S
H577 C593 0.930 . S
H578 C594 0.931 . S
C579 H567 0.929 . S
C579 C573 1.390 . S
C579 C576 1.386 . S
C580 C575 1.490 . S
C580 C582 1.395 . S
C580 C583 1.403 . S
H581 C587 0.930 . S
C582 H568 0.930 . S
C582 C580 1.395 . S
C582 C585 1.403 1_565 S
C583 C580 1.403 . S
C583 C584 1.524 . S
C583 C587 1.400 1_565 S
C584 H569 0.960 1_565 S
C584 H570 0.960 . S
C584 H571 0.960 . S
C584 C583 1.524 . S
C585 C582 1.403 1_545 S
C585 C586 1.392 . S
C585 C589 1.495 1_554 S
C586 C585 1.392 . S
C586 C587 1.385 . S
C586 C588 1.478 . S
C587 H581 0.930 . S
C587 C583 1.400 1_545 S
C587 C586 1.385 . S
C588 C586 1.478 . S
C588 C590 1.381 . S
C588 C594 1.370 1_554 S
C589 C585 1.495 1_556 S
C589 H595 0.959 1_545 S
C589 H596 0.961 . S
C589 H597 0.960 . S
C590 C588 1.381 . S
C590 C591 1.395 . S
C590 H598 0.930 . S
C591 C590 1.395 . S
C591 C592 1.382 1_554 S
C591 H599 0.929 . S
C592 C591 1.382 1_556 S
C592 C593 1.377 . S
C593 H577 0.930 . S
C593 C592 1.377 . S
C593 C594 1.392 . S
C594 H578 0.931 . S
C594 C588 1.370 1_556 S
C594 C593 1.392 . S
H595 C589 0.959 1_565 S
H596 C589 0.961 . S
H597 C589 0.960 . S
H598 C590 0.930 . S
H599 C591 0.929 . S
H600 C608 0.929 . S
H601 C610 0.930 . S
H602 C612 0.930 . S
H603 C615 0.929 . S
H604 C618 0.930 . S
H605 C620 0.960 . S
H606 C620 0.960 . S
H607 C620 0.960 . S
C608 H600 0.929 . S
C608 C609 1.377 . S
C608 C610 1.384 . S
C609 C608 1.377 . S
C609 C615 1.390 . S
C610 H601 0.930 . S
C610 C608 1.384 . S
C610 C611 1.372 . S
C611 C610 1.372 . S
C611 C612 1.400 . S
C611 C616 1.490 . S
C612 H602 0.930 . S
C612 C611 1.400 . S
C612 C615 1.386 . S
H613 C629 0.930 . S
H614 C630 0.931 . S
C615 H603 0.929 . S
C615 C609 1.390 . S
C615 C612 1.386 . S
C616 C611 1.490 . S
C616 C618 1.395 . S
C616 C619 1.403 . S
H617 C623 0.930 . S
C618 H604 0.930 . S
C618 C616 1.395 . S
C618 C621 1.403 . S
C619 C616 1.403 . S
C619 C620 1.524 . S
C619 C623 1.400 . S
C620 H605 0.960 . S
C620 H606 0.960 . S
C620 H607 0.960 . S
C620 C619 1.524 . S
C621 C618 1.403 . S
C621 C622 1.392 . S
C621 C625 1.495 . S
C622 C621 1.392 . S
C622 C623 1.385 . S
C622 C624 1.478 . S
C623 H617 0.930 . S
C623 C619 1.400 . S
C623 C622 1.385 . S
C624 C622 1.478 . S
C624 C626 1.381 . S
C624 C630 1.383 . S
C625 C621 1.495 . S
C625 H631 0.959 . S
C625 H632 0.961 . S
C625 H633 0.960 . S
C626 C624 1.381 . S
C626 C627 1.394 . S
C626 H634 0.930 . S
C627 C626 1.394 . S
C627 C628 1.383 . S
C627 H635 0.929 . S
C628 C627 1.383 . S
C628 C629 1.377 . S
C629 H613 0.930 . S
C629 C628 1.377 . S
C629 C630 1.379 . S
C630 H614 0.931 . S
C630 C624 1.383 . S
C630 C629 1.379 . S
H631 C625 0.959 . S
H632 C625 0.961 . S
H633 C625 0.960 . S
H634 C626 0.930 . S
H635 C627 0.929 . S
H636 C644 0.929 . S
H637 C646 0.930 . S
H638 C648 0.930 . S
H639 C651 0.929 . S
H640 C654 0.930 . S
H641 C656 0.960 . S
H642 C656 0.960 . S
H643 C656 0.960 . S
C644 H636 0.929 . S
C644 C645 1.377 . S
C644 C646 1.384 . S
C645 C644 1.377 . S
C645 C651 1.390 . S
C646 H637 0.930 . S
C646 C644 1.384 . S
C646 C647 1.372 . S
C647 C646 1.372 . S
C647 C648 1.400 . S
C647 C652 1.490 . S
C648 H638 0.930 . S
C648 C647 1.400 . S
C648 C651 1.386 . S
H649 C665 0.930 . S
H650 C666 0.931 . S
C651 H639 0.929 . S
C651 C645 1.390 . S
C651 C648 1.386 . S
C652 C647 1.490 . S
C652 C654 1.395 . S
C652 C655 1.403 . S
H653 C659 0.930 . S
C654 H640 0.930 . S
C654 C652 1.395 . S
C654 C657 1.403 . S
C655 C652 1.403 . S
C655 C656 1.524 . S
C655 C659 1.400 . S
C656 H641 0.960 . S
C656 H642 0.960 . S
C656 H643 0.960 . S
C656 C655 1.524 . S
C657 C654 1.403 . S
C657 C658 1.392 . S
C657 C661 1.495 1_655 S
C658 C657 1.392 . S
C658 C659 1.385 . S
C658 C660 1.478 . S
C659 H653 0.930 . S
C659 C655 1.400 . S
C659 C658 1.385 . S
C660 C658 1.478 . S
C660 C662 1.381 1_655 S
C660 C666 1.383 . S
C661 C657 1.495 1_455 S
C661 H667 0.959 . S
C661 H668 0.961 . S
C661 H669 0.960 . S
C662 C660 1.381 1_455 S
C662 C663 1.394 . S
C662 H670 0.930 1_455 S
C663 C662 1.394 . S
C663 C664 1.383 . S
C663 H671 0.929 . S
C664 C663 1.383 . S
C664 C665 1.377 . S
C665 H649 0.930 . S
C665 C664 1.377 . S
C665 C666 1.379 1_455 S
C666 H650 0.931 . S
C666 C660 1.383 . S
C666 C665 1.379 1_655 S
H667 C661 0.959 . S
H668 C661 0.961 . S
H669 C661 0.960 . S
H670 C662 0.930 1_655 S
H671 C663 0.929 . S
H672 C680 0.929 . S
H673 C682 0.930 . S
H674 C684 0.930 . S
H675 C687 0.929 . S
H676 C690 0.930 . S
H677 C692 0.960 . S
H678 C692 0.960 1_545 S
H679 C692 0.960 . S
C680 H672 0.929 . S
C680 C681 1.377 . S
C680 C682 1.384 1_545 S
C681 C680 1.377 . S
C681 C687 1.390 . S
C682 H673 0.930 . S
C682 C680 1.384 1_565 S
C682 C683 1.372 . S
C683 C682 1.372 . S
C683 C684 1.400 . S
C683 C688 1.490 . S
C684 H674 0.930 . S
C684 C683 1.400 . S
C684 C687 1.386 1_565 S
H685 C701 0.930 . S
H686 C702 0.931 . S
C687 H675 0.929 . S
C687 C681 1.390 . S
C687 C684 1.386 1_545 S
C688 C683 1.490 . S
C688 C690 1.395 . S
C688 C691 1.403 . S
H689 C695 0.930 . S
C690 H676 0.930 . S
C690 C688 1.395 . S
C690 C693 1.403 . S
C691 C688 1.403 . S
C691 C692 1.524 . S
C691 C695 1.400 . S
C692 H677 0.960 . S
C692 H678 0.960 1_565 S
C692 H679 0.960 . S
C692 C691 1.524 . S
C693 C690 1.403 . S
C693 C694 1.392 . S
C693 C697 1.495 . S
C694 C693 1.392 . S
C694 C695 1.385 . S
C694 C696 1.478 . S
C695 H689 0.930 . S
C695 C691 1.400 . S
C695 C694 1.385 . S
C696 C694 1.478 . S
C696 C698 1.381 . S
C696 C702 1.383 . S
C697 C693 1.495 . S
C697 H703 0.959 . S
C697 H704 0.961 . S
C697 H705 0.960 . S
C698 C696 1.381 . S
C698 C699 1.394 . S
C698 H706 0.930 . S
C699 C698 1.394 . S
C699 C700 1.383 . S
C699 H707 0.929 . S
C700 C699 1.383 . S
C700 C701 1.377 . S
C701 H685 0.930 . S
C701 C700 1.377 . S
C701 C702 1.379 . S
C702 H686 0.931 . S
C702 C696 1.383 . S
C702 C701 1.379 . S
H703 C697 0.959 . S
H704 C697 0.961 . S
H705 C697 0.960 . S
H706 C698 0.930 . S
H707 C699 0.929 . S
H708 C716 0.929 . S
H709 C718 0.930 . S
H710 C720 0.930 . S
H711 C723 0.929 . S
H712 C726 0.930 . S
H713 C728 0.960 . S
H714 C728 0.960 . S
H715 C728 0.960 . S
C716 H708 0.929 . S
C716 C717 1.377 . S
C716 C718 1.384 . S
C717 C716 1.377 . S
C717 C723 1.390 . S
C718 H709 0.930 . S
C718 C716 1.384 . S
C718 C719 1.372 . S
C719 C718 1.372 . S
C719 C720 1.400 . S
C719 C724 1.490 . S
C720 H710 0.930 . S
C720 C719 1.400 . S
C720 C723 1.386 . S
H721 C737 0.930 . S
H722 C738 0.931 . S
C723 H711 0.929 . S
C723 C717 1.390 . S
C723 C720 1.386 . S
C724 C719 1.490 . S
C724 C726 1.395 . S
C724 C727 1.403 . S
H725 C731 0.930 . S
C726 H712 0.930 . S
C726 C724 1.395 . S
C726 C729 1.403 . S
C727 C724 1.403 . S
C727 C728 1.524 . S
C727 C731 1.400 . S
C728 H713 0.960 . S
C728 H714 0.960 . S
C728 H715 0.960 . S
C728 C727 1.524 . S
C729 C726 1.403 . S
C729 C730 1.392 . S
C729 C733 1.495 . S
C730 C729 1.392 . S
C730 C731 1.385 . S
C730 C732 1.478 . S
C731 H725 0.930 . S
C731 C727 1.400 . S
C731 C730 1.385 . S
C732 C730 1.478 . S
C732 C734 1.381 . S
C732 C738 1.383 . S
C733 C729 1.495 . S
C733 H739 0.959 . S
C733 H740 0.961 . S
C733 H741 0.960 . S
C734 C732 1.381 . S
C734 C735 1.394 . S
C734 H742 0.930 . S
C735 C734 1.394 . S
C735 C736 1.383 . S
C735 H743 0.929 . S
C736 C735 1.383 . S
C736 C737 1.377 . S
C737 H721 0.930 . S
C737 C736 1.377 . S
C737 C738 1.379 . S
C738 H722 0.931 . S
C738 C732 1.383 . S
C738 C737 1.379 . S
H739 C733 0.959 . S
H740 C733 0.961 . S
H741 C733 0.960 . S
H742 C734 0.930 . S
H743 C735 0.929 . S
H744 C752 0.929 . S
H745 C754 0.930 . S
H746 C756 0.930 . S
H747 C759 0.929 . S
H748 C762 0.930 . S
H749 C764 0.960 . S
H750 C764 0.960 . S
H751 C764 0.960 . S
C752 H744 0.929 . S
C752 C753 1.377 . S
C752 C754 1.384 . S
C753 C752 1.377 . S
C753 C759 1.390 . S
C754 H745 0.930 . S
C754 C752 1.384 . S
C754 C755 1.372 . S
C755 C754 1.372 . S
C755 C756 1.400 . S
C755 C760 1.490 . S
C756 H746 0.930 . S
C756 C755 1.400 . S
C756 C759 1.386 . S
H757 C773 0.930 . S
H758 C774 0.931 . S
C759 H747 0.929 . S
C759 C753 1.390 . S
C759 C756 1.386 . S
C760 C755 1.490 . S
C760 C762 1.395 . S
C760 C763 1.403 . S
H761 C767 0.930 . S
C762 H748 0.930 . S
C762 C760 1.395 . S
C762 C765 1.403 . S
C763 C760 1.403 . S
C763 C764 1.524 . S
C763 C767 1.400 . S
C764 H749 0.960 . S
C764 H750 0.960 . S
C764 H751 0.960 . S
C764 C763 1.524 . S
C765 C762 1.403 . S
C765 C766 1.392 . S
C765 C769 1.495 . S
C766 C765 1.392 . S
C766 C767 1.385 . S
C766 C768 1.478 . S
C767 H761 0.930 . S
C767 C763 1.400 . S
C767 C766 1.385 . S
C768 C766 1.478 . S
C768 C770 1.381 1_455 S
C768 C774 1.383 . S
C769 C765 1.495 . S
C769 H775 0.959 . S
C769 H776 0.961 . S
C769 H777 0.945 1_455 S
C770 C768 1.381 1_655 S
C770 C771 1.394 . S
C770 H778 0.930 . S
C771 C770 1.394 . S
C771 C772 1.383 . S
C771 H779 0.929 . S
C772 C771 1.383 . S
C772 C773 1.377 1_655 S
C773 H757 0.930 . S
C773 C772 1.377 1_455 S
C773 C774 1.379 . S
C774 H758 0.931 . S
C774 C768 1.383 . S
C774 C773 1.379 . S
H775 C769 0.959 . S
H776 C769 0.961 . S
H777 C769 0.945 1_655 S
H778 C770 0.930 . S
H779 C771 0.929 . S
H780 C788 0.929 . S
H781 C790 0.930 . S
H782 C792 0.930 . S
H783 C795 0.929 . S
H784 C798 0.930 . S
H785 C800 0.960 . S
H786 C800 0.960 . S
H787 C800 0.960 . S
C788 H780 0.929 . S
C788 C789 1.377 . S
C788 C790 1.384 . S
C789 C788 1.377 . S
C789 C795 1.390 . S
C790 H781 0.930 . S
C790 C788 1.384 . S
C790 C791 1.372 . S
C791 C790 1.372 . S
C791 C792 1.400 . S
C791 C796 1.490 . S
C792 H782 0.930 . S
C792 C791 1.400 . S
C792 C795 1.386 . S
H793 C809 0.930 1_565 S
H794 C810 0.931 . S
C795 H783 0.929 . S
C795 C789 1.390 . S
C795 C792 1.386 . S
C796 C791 1.490 . S
C796 C798 1.395 . S
C796 C799 1.403 . S
H797 C803 0.930 . S
C798 H784 0.930 . S
C798 C796 1.395 . S
C798 C801 1.403 . S
C799 C796 1.403 . S
C799 C800 1.524 . S
C799 C803 1.400 . S
C800 H785 0.960 . S
C800 H786 0.960 . S
C800 H787 0.960 . S
C800 C799 1.524 . S
C801 C798 1.403 . S
C801 C802 1.392 . S
C801 C805 1.495 . S
C802 C801 1.392 . S
C802 C803 1.385 . S
C802 C804 1.478 . S
C803 H797 0.930 . S
C803 C799 1.400 . S
C803 C802 1.385 . S
C804 C802 1.478 . S
C804 C806 1.381 . S
C804 C810 1.383 . S
C805 C801 1.495 . S
C805 H811 0.959 . S
C805 H812 0.961 . S
C805 H813 0.960 . S
C806 C804 1.381 . S
C806 C807 1.394 1_545 S
C806 H814 0.930 . S
C807 C806 1.394 1_565 S
C807 C808 1.383 . S
C807 H815 0.929 . S
C808 C807 1.383 . S
C808 C809 1.377 1_565 S
C809 H793 0.930 1_545 S
C809 C808 1.377 1_545 S
C809 C810 1.379 . S
C810 H794 0.931 . S
C810 C804 1.383 . S
C810 C809 1.379 . S
H811 C805 0.959 . S
H812 C805 0.961 . S
H813 C805 0.960 . S
H814 C806 0.930 . S
H815 C807 0.929 . S
H816 C824 0.929 . S
H817 C826 0.930 . S
H818 C828 0.930 . S
H819 C831 0.929 . S
H820 C834 0.930 . S
H821 C836 0.960 . S
H822 C836 0.960 . S
H823 C836 0.960 . S
C824 H816 0.929 . S
C824 C825 1.377 . S
C824 C826 1.384 . S
C825 C824 1.377 . S
C825 C831 1.390 . S
C826 H817 0.930 . S
C826 C824 1.384 . S
C826 C827 1.372 . S
C827 C826 1.372 . S
C827 C828 1.400 . S
C827 C832 1.490 . S
C828 H818 0.930 . S
C828 C827 1.400 . S
C828 C831 1.386 . S
H829 C845 0.930 . S
H830 C846 0.931 . S
C831 H819 0.929 . S
C831 C825 1.390 . S
C831 C828 1.386 . S
C832 C827 1.490 . S
C832 C834 1.395 . S
C832 C835 1.403 . S
H833 C839 0.930 . S
C834 H820 0.930 . S
C834 C832 1.395 . S
C834 C837 1.403 . S
C835 C832 1.403 . S
C835 C836 1.524 . S
C835 C839 1.400 . S
C836 H821 0.960 . S
C836 H822 0.960 . S
C836 H823 0.960 . S
C836 C835 1.524 . S
C837 C834 1.403 . S
C837 C838 1.392 . S
C837 C841 1.495 . S
C838 C837 1.392 . S
C838 C839 1.385 . S
C838 C840 1.478 . S
C839 H833 0.930 . S
C839 C835 1.400 . S
C839 C838 1.385 . S
C840 C838 1.478 . S
C840 C842 1.381 . S
C840 C846 1.383 . S
C841 C837 1.495 . S
C841 H847 0.959 . S
C841 H848 0.961 . S
C841 H849 0.960 . S
C842 C840 1.381 . S
C842 C843 1.394 . S
C842 H850 0.930 . S
C843 C842 1.394 . S
C843 C844 1.383 . S
C843 H851 0.929 . S
C844 C843 1.383 . S
C844 C845 1.377 . S
C845 H829 0.930 . S
C845 C844 1.377 . S
C845 C846 1.379 . S
C846 H830 0.931 . S
C846 C840 1.383 . S
C846 C845 1.379 . S
H847 C841 0.959 . S
H848 C841 0.961 . S
H849 C841 0.960 . S
H850 C842 0.930 . S
H851 C843 0.929 . S
H852 C860 0.929 . S
H853 C862 0.930 . S
H854 C864 0.930 . S
H855 C867 0.929 . S
H856 C870 0.930 . S
H857 C872 0.960 . S
H858 C872 0.960 . S
H859 C872 0.960 . S
C860 H852 0.929 . S
C860 C861 1.377 . S
C860 C862 1.384 . S
C861 C860 1.377 . S
C861 C867 1.390 . S
C862 H853 0.930 . S
C862 C860 1.384 . S
C862 C863 1.372 . S
C863 C862 1.372 . S
C863 C864 1.400 . S
C863 C868 1.490 . S
C864 H854 0.930 . S
C864 C863 1.400 . S
C864 C867 1.386 . S
H865 C881 0.930 . S
H866 C882 0.931 . S
C867 H855 0.929 . S
C867 C861 1.390 . S
C867 C864 1.386 . S
C868 C863 1.490 . S
C868 C870 1.395 . S
C868 C871 1.403 . S
H869 C875 0.930 . S
C870 H856 0.930 . S
C870 C868 1.395 . S
C870 C873 1.403 . S
C871 C868 1.403 . S
C871 C872 1.524 . S
C871 C875 1.400 . S
C872 H857 0.960 . S
C872 H858 0.960 . S
C872 H859 0.960 . S
C872 C871 1.524 . S
C873 C870 1.403 . S
C873 C874 1.392 . S
C873 C877 1.495 1_556 S
C874 C873 1.392 . S
C874 C875 1.385 . S
C874 C876 1.444 1_556 S
C875 H869 0.930 . S
C875 C871 1.400 . S
C875 C874 1.385 . S
C876 C874 1.444 1_554 S
C876 C878 1.396 1_655 S
C876 C882 1.402 . S
C877 C873 1.495 1_554 S
C877 H883 0.959 1_554 S
C877 H884 0.961 . S
C877 H885 0.960 . S
C878 C876 1.396 1_455 S
C878 C879 1.394 . S
C878 H886 0.930 . S
C879 C878 1.394 . S
C879 C880 1.383 . S
C879 H887 0.929 . S
C880 C879 1.383 . S
C880 C881 1.377 . S
C881 H865 0.930 . S
C881 C880 1.377 . S
C881 C882 1.379 1_455 S
C882 H866 0.931 . S
C882 C876 1.402 . S
C882 C881 1.379 1_655 S
H883 C877 0.959 1_556 S
H884 C877 0.961 . S
H885 C877 0.960 . S
H886 C878 0.930 . S
H887 C879 0.929 . S
H888 C896 0.929 . S
H889 C898 0.930 . S
H890 C900 0.930 . S
H891 C903 0.929 . S
H892 C906 0.930 . S
H893 C908 0.960 . S
H894 C908 0.960 . S
H895 C908 0.960 . S
C896 H888 0.929 . S
C896 C897 1.377 . S
C896 C898 1.384 . S
C897 C896 1.377 . S
C897 C903 1.390 . S
C898 H889 0.930 . S
C898 C896 1.384 . S
C898 C899 1.372 . S
C899 C898 1.372 . S
C899 C900 1.400 . S
C899 C904 1.490 . S
C900 H890 0.930 . S
C900 C899 1.400 . S
C900 C903 1.386 . S
H901 C917 0.930 . S
H902 C918 0.931 . S
C903 H891 0.929 . S
C903 C897 1.390 . S
C903 C900 1.386 . S
C904 C899 1.490 . S
C904 C906 1.395 . S
C904 C907 1.403 . S
H905 C911 0.930 . S
C906 H892 0.930 . S
C906 C904 1.395 . S
C906 C909 1.403 . S
C907 C904 1.403 . S
C907 C908 1.524 . S
C907 C911 1.400 . S
C908 H893 0.960 . S
C908 H894 0.960 . S
C908 H895 0.960 . S
C908 C907 1.524 . S
C909 C906 1.403 . S
C909 C910 1.392 . S
C909 C913 1.495 . S
C910 C909 1.392 . S
C910 C911 1.385 . S
C910 C912 1.478 . S
C911 H905 0.930 . S
C911 C907 1.400 . S
C911 C910 1.385 . S
C912 C910 1.478 . S
C912 C914 1.381 1_565 S
C912 C918 1.383 . S
C913 C909 1.495 . S
C913 H919 0.959 . S
C913 H920 0.961 . S
C913 H921 0.960 . S
C914 C912 1.381 1_545 S
C914 C915 1.394 . S
C914 H922 0.930 . S
C915 C914 1.394 . S
C915 C916 1.383 . S
C915 H923 0.929 . S
C916 C915 1.383 . S
C916 C917 1.377 1_545 S
C917 H901 0.930 . S
C917 C916 1.377 1_565 S
C917 C918 1.379 . S
C918 H902 0.931 . S
C918 C912 1.383 . S
C918 C917 1.379 . S
H919 C913 0.959 . S
H920 C913 0.961 . S
H921 C913 0.960 . S
H922 C914 0.930 . S
H923 C915 0.929 . S
H924 C932 0.929 . S
H925 C934 0.930 . S
H926 C936 0.930 . S
H927 C939 0.929 . S
H928 C942 0.930 . S
H929 C944 0.960 . S
H930 C944 0.960 . S
H931 C944 0.960 . S
C932 H924 0.929 . S
C932 C933 1.377 . S
C932 C934 1.384 . S
C933 C932 1.377 . S
C933 C939 1.390 . S
C934 H925 0.930 . S
C934 C932 1.384 . S
C934 C935 1.372 . S
C935 C934 1.372 . S
C935 C936 1.400 . S
C935 C940 1.490 . S
C936 H926 0.930 . S
C936 C935 1.400 . S
C936 C939 1.386 . S
H937 C953 0.930 . S
H938 C954 0.931 . S
C939 H927 0.929 . S
C939 C933 1.390 . S
C939 C936 1.386 . S
C940 C935 1.490 . S
C940 C942 1.395 . S
C940 C943 1.403 . S
H941 C947 0.930 . S
C942 H928 0.930 . S
C942 C940 1.395 . S
C942 C945 1.403 . S
C943 C940 1.403 . S
C943 C944 1.524 . S
C943 C947 1.400 . S
C944 H929 0.960 . S
C944 H930 0.960 . S
C944 H931 0.960 . S
C944 C943 1.524 . S
C945 C942 1.403 . S
C945 C946 1.392 . S
C945 C949 1.495 . S
C946 C945 1.392 . S
C946 C947 1.385 . S
C946 C948 1.478 . S
C947 H941 0.930 . S
C947 C943 1.400 . S
C947 C946 1.385 . S
C948 C946 1.478 . S
C948 C950 1.381 . S
C948 C954 1.383 . S
C949 C945 1.495 . S
C949 H955 0.959 . S
C949 H956 0.961 . S
C949 H957 0.960 . S
C950 C948 1.381 . S
C950 C951 1.394 . S
C950 H958 0.930 . S
C951 C950 1.394 . S
C951 C952 1.383 . S
C951 H959 0.929 . S
C952 C951 1.383 . S
C952 C953 1.377 . S
C953 H937 0.930 . S
C953 C952 1.377 . S
C953 C954 1.379 . S
C954 H938 0.931 . S
C954 C948 1.383 . S
C954 C953 1.379 . S
H955 C949 0.959 . S
H956 C949 0.961 . S
H957 C949 0.960 . S
H958 C950 0.930 . S
H959 C951 0.929 . S
H960 C968 0.929 . S
H961 C970 0.930 . S
H962 C972 0.930 . S
H963 C975 0.929 . S
H964 C978 0.930 . S
H965 C980 0.960 . S
H966 C980 0.960 . S
H967 C980 0.960 . S
C968 H960 0.929 . S
C968 C969 1.377 . S
C968 C970 1.384 . S
C969 C968 1.377 . S
C969 C975 1.390 . S
C970 H961 0.930 . S
C970 C968 1.384 . S
C970 C971 1.372 . S
C971 C970 1.372 . S
C971 C972 1.400 . S
C971 C976 1.490 . S
C972 H962 0.930 . S
C972 C971 1.400 . S
C972 C975 1.386 . S
H973 C989 0.930 . S
H974 C990 0.931 . S
C975 H963 0.929 . S
C975 C969 1.390 . S
C975 C972 1.386 . S
C976 C971 1.490 . S
C976 C978 1.395 . S
C976 C979 1.403 . S
H977 C983 0.930 . S
C978 H964 0.930 . S
C978 C976 1.395 . S
C978 C981 1.403 . S
C979 C976 1.403 . S
C979 C980 1.524 . S
C979 C983 1.400 . S
C980 H965 0.960 . S
C980 H966 0.960 . S
C980 H967 0.960 . S
C980 C979 1.524 . S
C981 C978 1.403 . S
C981 C982 1.392 . S
C981 C985 1.495 . S
C982 C981 1.392 . S
C982 C983 1.385 . S
C982 C984 1.478 . S
C983 H977 0.930 . S
C983 C979 1.400 . S
C983 C982 1.385 . S
C984 C982 1.478 . S
C984 C986 1.381 . S
C984 C990 1.383 . S
C985 C981 1.495 . S
C985 H991 0.959 . S
C985 H992 0.961 . S
C985 H993 0.960 . S
C986 C984 1.381 . S
C986 C987 1.394 . S
C986 H994 0.930 . S
C987 C986 1.394 . S
C987 C988 1.383 1_455 S
C987 H995 0.929 . S
C988 C987 1.383 1_655 S
C988 C989 1.377 . S
C989 H973 0.930 . S
C989 C988 1.377 . S
C989 C990 1.379 1_655 S
C990 H974 0.931 . S
C990 C984 1.383 . S
C990 C989 1.379 1_455 S
H991 C985 0.959 . S
H992 C985 0.961 . S
H993 C985 0.960 . S
H994 C986 0.930 . S
H995 C987 0.929 . S
H996 C1004 0.929 . S
H997 C1006 0.930 . S
H998 C1008 0.930 . S
H999 C1011 0.929 . S
H1000 C1014 0.930 . S
H1001 C1016 0.960 . S
H1002 C1016 0.960 1_565 S
H1003 C1016 0.960 1_565 S
C1004 H996 0.929 . S
C1004 C1005 1.377 . S
C1004 C1006 1.384 1_565 S
C1005 C1004 1.377 . S
C1005 C1011 1.390 . S
C1006 H997 0.930 . S
C1006 C1004 1.384 1_545 S
C1006 C1007 1.372 . S
C1007 C1006 1.372 . S
C1007 C1008 1.400 . S
C1007 C1012 1.490 . S
C1008 H998 0.930 . S
C1008 C1007 1.400 . S
C1008 C1011 1.386 1_545 S
H1009 C1025 0.930 . S
H1010 C1026 0.931 . S
C1011 H999 0.929 . S
C1011 C1005 1.390 . S
C1011 C1008 1.386 1_565 S
C1012 C1007 1.490 . S
C1012 C1014 1.395 . S
C1012 C1015 1.403 . S
H1013 C1019 0.930 . S
C1014 H1000 0.930 . S
C1014 C1012 1.395 . S
C1014 C1017 1.403 . S
C1015 C1012 1.403 . S
C1015 C1016 1.524 . S
C1015 C1019 1.400 . S
C1016 H1001 0.960 . S
C1016 H1002 0.960 1_545 S
C1016 H1003 0.960 1_545 S
C1016 C1015 1.524 . S
C1017 C1014 1.403 . S
C1017 C1018 1.392 . S
C1017 C1021 1.495 . S
C1018 C1017 1.392 . S
C1018 C1019 1.385 . S
C1018 C1020 1.478 . S
C1019 H1013 0.930 . S
C1019 C1015 1.400 . S
C1019 C1018 1.385 . S
C1020 C1018 1.478 . S
C1020 C1022 1.381 . S
C1020 C1026 1.383 . S
C1021 C1017 1.495 . S
C1021 H1027 0.959 . S
C1021 H1028 0.961 . S
C1021 H1029 0.960 . S
C1022 C1020 1.381 . S
C1022 C1023 1.394 . S
C1022 H1030 0.930 . S
C1023 C1022 1.394 . S
C1023 C1024 1.383 . S
C1023 H1031 0.929 . S
C1024 C1023 1.383 . S
C1024 C1025 1.377 . S
C1025 H1009 0.930 . S
C1025 C1024 1.377 . S
C1025 C1026 1.379 . S
C1026 H1010 0.931 . S
C1026 C1020 1.383 . S
C1026 C1025 1.379 . S
H1027 C1021 0.959 . S
H1028 C1021 0.961 . S
H1029 C1021 0.960 . S
H1030 C1022 0.930 . S
H1031 C1023 0.929 . S
C177 C118 1.296 . S
C196 C6 1.307 . S
C213 C20 1.299 . S
C232 C132 1.285 . S
C249 C34 1.299 . S
C268 C146 1.304 . S
C285 C48 1.302 . S
C304 C160 1.288 . S
C321 C90 1.296 . S
C340 C62 1.305 . S
C357 C76 1.295 . S
C376 C104 1.310 . S
C393 C135 0.873 . S
C412 C9 0.891 . S
C429 C23 0.888 . S
C448 C149 0.835 . S
C465 C163 0.873 . S
C484 C37 0.923 . S
C501 C51 0.874 . S
C520 C93 0.878 . S
C537 C107 0.887 . S
C556 C65 0.835 . S
C573 C121 0.884 . S
C592 C79 0.899 . S
C609 C8 1.417 . S
C628 C77 1.427 . S
C645 C22 1.407 . S
C664 C7 1.422 . S
C681 C21 1.427 . S
C700 C36 1.393 . S
C717 C50 1.408 . S
C736 C35 1.426 . S
C753 C64 1.407 . S
C772 C49 1.403 . S
C789 C78 1.415 . S
C808 C63 1.416 . S
C825 C92 1.412 . S
C844 C105 1.406 . S
C861 C106 1.414 . S
C880 C119 1.411 . S
C897 C120 1.408 . S
C916 C133 1.401 . S
C933 C134 1.413 . S
C952 C147 1.442 . S
C969 C148 1.417 . S
C988 C161 1.429 . S
C1005 C91 1.428 . S
C1024 C162 1.400 . S
