# Generated by pormake.
# Topology wna, (6)-cn, num edge types: 1
# Building blocks:
#     Node 0, Type 0, BuildingBlock: CUKXOW_clean_sbu_0, # of connection points: 6
#     Node 1, Type 0, BuildingBlock: CUKXOW_clean_sbu_0, # of connection points: 6
#     Node 2, Type 0, BuildingBlock: CUKXOW_clean_sbu_0, # of connection points: 6
#     Node 3, Type 0, BuildingBlock: CUKXOW_clean_sbu_0, # of connection points: 6
#     Node 4, Type 0, BuildingBlock: CUKXOW_clean_sbu_0, # of connection points: 6
#     Node 5, Type 0, BuildingBlock: CUKXOW_clean_sbu_0, # of connection points: 6
#     Node 6, Type 0, BuildingBlock: CUKXOW_clean_sbu_0, # of connection points: 6
#     Node 7, Type 0, BuildingBlock: CUKXOW_clean_sbu_0, # of connection points: 6
#     Node 8, Type 0, BuildingBlock: CUKXOW_clean_sbu_0, # of connection points: 6
#     Node 9, Type 0, BuildingBlock: CUKXOW_clean_sbu_0, # of connection points: 6
#     Node 10, Type 0, BuildingBlock: CUKXOW_clean_sbu_0, # of connection points: 6
#     Node 11, Type 0, BuildingBlock: CUKXOW_clean_sbu_0, # of connection points: 6
#     Node 12, Type 0, BuildingBlock: CUKXOW_clean_sbu_0, # of connection points: 6
#     Node 13, Type 0, BuildingBlock: CUKXOW_clean_sbu_0, # of connection points: 6
#     Node 14, Type 0, BuildingBlock: CUKXOW_clean_sbu_0, # of connection points: 6
#     Node 15, Type 0, BuildingBlock: CUKXOW_clean_sbu_0, # of connection points: 6
#     Node 16, Type 0, BuildingBlock: CUKXOW_clean_sbu_0, # of connection points: 6
#     Node 17, Type 0, BuildingBlock: CUKXOW_clean_sbu_0, # of connection points: 6
#     Node 18, Type 0, BuildingBlock: CUKXOW_clean_sbu_0, # of connection points: 6
#     Node 19, Type 0, BuildingBlock: CUKXOW_clean_sbu_0, # of connection points: 6
#     Node 20, Type 0, BuildingBlock: CUKXOW_clean_sbu_0, # of connection points: 6
#     Node 21, Type 0, BuildingBlock: CUKXOW_clean_sbu_0, # of connection points: 6
#     Node 22, Type 0, BuildingBlock: CUKXOW_clean_sbu_0, # of connection points: 6
#     Node 23, Type 0, BuildingBlock: CUKXOW_clean_sbu_0, # of connection points: 6
#     Node 24, Type 0, BuildingBlock: CUKXOW_clean_sbu_0, # of connection points: 6
#     Node 25, Type 0, BuildingBlock: CUKXOW_clean_sbu_0, # of connection points: 6
#     Node 26, Type 0, BuildingBlock: CUKXOW_clean_sbu_0, # of connection points: 6
#     Node 27, Type 0, BuildingBlock: CUKXOW_clean_sbu_0, # of connection points: 6
#     Node 28, Type 0, BuildingBlock: CUKXOW_clean_sbu_0, # of connection points: 6
#     Node 29, Type 0, BuildingBlock: CUKXOW_clean_sbu_0, # of connection points: 6
#     Node 30, Type 0, BuildingBlock: CUKXOW_clean_sbu_0, # of connection points: 6
#     Node 31, Type 0, BuildingBlock: CUKXOW_clean_sbu_0, # of connection points: 6
#     Node 32, Type 0, BuildingBlock: CUKXOW_clean_sbu_0, # of connection points: 6
#     Node 33, Type 0, BuildingBlock: CUKXOW_clean_sbu_0, # of connection points: 6
#     Node 34, Type 0, BuildingBlock: CUKXOW_clean_sbu_0, # of connection points: 6
#     Node 35, Type 0, BuildingBlock: CUKXOW_clean_sbu_0, # of connection points: 6
#     Edge 36, Type (0, 0), BuildingBlock: CIFDUS_clean_linker_0, # of connection points: 2
#     Edge 37, Type (0, 0), BuildingBlock: CIFDUS_clean_linker_0, # of connection points: 2
#     Edge 38, Type (0, 0), BuildingBlock: CIFDUS_clean_linker_0, # of connection points: 2
#     Edge 39, Type (0, 0), BuildingBlock: CIFDUS_clean_linker_0, # of connection points: 2
#     Edge 40, Type (0, 0), BuildingBlock: CIFDUS_clean_linker_0, # of connection points: 2
#     Edge 41, Type (0, 0), BuildingBlock: CIFDUS_clean_linker_0, # of connection points: 2
#     Edge 42, Type (0, 0), BuildingBlock: CIFDUS_clean_linker_0, # of connection points: 2
#     Edge 43, Type (0, 0), BuildingBlock: CIFDUS_clean_linker_0, # of connection points: 2
#     Edge 44, Type (0, 0), BuildingBlock: CIFDUS_clean_linker_0, # of connection points: 2
#     Edge 45, Type (0, 0), BuildingBlock: CIFDUS_clean_linker_0, # of connection points: 2
#     Edge 46, Type (0, 0), BuildingBlock: CIFDUS_clean_linker_0, # of connection points: 2
#     Edge 47, Type (0, 0), BuildingBlock: CIFDUS_clean_linker_0, # of connection points: 2
#     Edge 48, Type (0, 0), BuildingBlock: CIFDUS_clean_linker_0, # of connection points: 2
#     Edge 49, Type (0, 0), BuildingBlock: CIFDUS_clean_linker_0, # of connection points: 2
#     Edge 50, Type (0, 0), BuildingBlock: CIFDUS_clean_linker_0, # of connection points: 2
#     Edge 51, Type (0, 0), BuildingBlock: CIFDUS_clean_linker_0, # of connection points: 2
#     Edge 52, Type (0, 0), BuildingBlock: CIFDUS_clean_linker_0, # of connection points: 2
#     Edge 53, Type (0, 0), BuildingBlock: CIFDUS_clean_linker_0, # of connection points: 2
#     Edge 54, Type (0, 0), BuildingBlock: CIFDUS_clean_linker_0, # of connection points: 2
#     Edge 55, Type (0, 0), BuildingBlock: CIFDUS_clean_linker_0, # of connection points: 2
#     Edge 56, Type (0, 0), BuildingBlock: CIFDUS_clean_linker_0, # of connection points: 2
#     Edge 57, Type (0, 0), BuildingBlock: CIFDUS_clean_linker_0, # of connection points: 2
#     Edge 58, Type (0, 0), BuildingBlock: CIFDUS_clean_linker_0, # of connection points: 2
#     Edge 59, Type (0, 0), BuildingBlock: CIFDUS_clean_linker_0, # of connection points: 2
#     Edge 60, Type (0, 0), BuildingBlock: CIFDUS_clean_linker_0, # of connection points: 2
#     Edge 61, Type (0, 0), BuildingBlock: CIFDUS_clean_linker_0, # of connection points: 2
#     Edge 62, Type (0, 0), BuildingBlock: CIFDUS_clean_linker_0, # of connection points: 2
#     Edge 63, Type (0, 0), BuildingBlock: CIFDUS_clean_linker_0, # of connection points: 2
#     Edge 64, Type (0, 0), BuildingBlock: CIFDUS_clean_linker_0, # of connection points: 2
#     Edge 65, Type (0, 0), BuildingBlock: CIFDUS_clean_linker_0, # of connection points: 2
#     Edge 66, Type (0, 0), BuildingBlock: CIFDUS_clean_linker_0, # of connection points: 2
#     Edge 67, Type (0, 0), BuildingBlock: CIFDUS_clean_linker_0, # of connection points: 2
#     Edge 68, Type (0, 0), BuildingBlock: CIFDUS_clean_linker_0, # of connection points: 2
#     Edge 69, Type (0, 0), BuildingBlock: CIFDUS_clean_linker_0, # of connection points: 2
#     Edge 70, Type (0, 0), BuildingBlock: CIFDUS_clean_linker_0, # of connection points: 2
#     Edge 71, Type (0, 0), BuildingBlock: CIFDUS_clean_linker_0, # of connection points: 2
#     Edge 72, Type (0, 0), BuildingBlock: CIFDUS_clean_linker_0, # of connection points: 2
#     Edge 73, Type (0, 0), BuildingBlock: CIFDUS_clean_linker_0, # of connection points: 2
#     Edge 74, Type (0, 0), BuildingBlock: CIFDUS_clean_linker_0, # of connection points: 2
#     Edge 75, Type (0, 0), BuildingBlock: CIFDUS_clean_linker_0, # of connection points: 2
#     Edge 76, Type (0, 0), BuildingBlock: CIFDUS_clean_linker_0, # of connection points: 2
#     Edge 77, Type (0, 0), BuildingBlock: CIFDUS_clean_linker_0, # of connection points: 2
#     Edge 78, Type (0, 0), BuildingBlock: CIFDUS_clean_linker_0, # of connection points: 2
#     Edge 79, Type (0, 0), BuildingBlock: CIFDUS_clean_linker_0, # of connection points: 2
#     Edge 80, Type (0, 0), BuildingBlock: CIFDUS_clean_linker_0, # of connection points: 2
#     Edge 81, Type (0, 0), BuildingBlock: CIFDUS_clean_linker_0, # of connection points: 2
#     Edge 82, Type (0, 0), BuildingBlock: CIFDUS_clean_linker_0, # of connection points: 2
#     Edge 83, Type (0, 0), BuildingBlock: CIFDUS_clean_linker_0, # of connection points: 2
#     Edge 84, Type (0, 0), BuildingBlock: CIFDUS_clean_linker_0, # of connection points: 2
#     Edge 85, Type (0, 0), BuildingBlock: CIFDUS_clean_linker_0, # of connection points: 2
#     Edge 86, Type (0, 0), BuildingBlock: CIFDUS_clean_linker_0, # of connection points: 2
#     Edge 87, Type (0, 0), BuildingBlock: CIFDUS_clean_linker_0, # of connection points: 2
#     Edge 88, Type (0, 0), BuildingBlock: CIFDUS_clean_linker_0, # of connection points: 2
#     Edge 89, Type (0, 0), BuildingBlock: CIFDUS_clean_linker_0, # of connection points: 2
#     Edge 90, Type (0, 0), BuildingBlock: CIFDUS_clean_linker_0, # of connection points: 2
#     Edge 91, Type (0, 0), BuildingBlock: CIFDUS_clean_linker_0, # of connection points: 2
#     Edge 92, Type (0, 0), BuildingBlock: CIFDUS_clean_linker_0, # of connection points: 2
#     Edge 93, Type (0, 0), BuildingBlock: CIFDUS_clean_linker_0, # of connection points: 2
#     Edge 94, Type (0, 0), BuildingBlock: CIFDUS_clean_linker_0, # of connection points: 2
#     Edge 95, Type (0, 0), BuildingBlock: CIFDUS_clean_linker_0, # of connection points: 2
#     Edge 96, Type (0, 0), BuildingBlock: CIFDUS_clean_linker_0, # of connection points: 2
#     Edge 97, Type (0, 0), BuildingBlock: CIFDUS_clean_linker_0, # of connection points: 2
#     Edge 98, Type (0, 0), BuildingBlock: CIFDUS_clean_linker_0, # of connection points: 2
#     Edge 99, Type (0, 0), BuildingBlock: CIFDUS_clean_linker_0, # of connection points: 2
#     Edge 100, Type (0, 0), BuildingBlock: CIFDUS_clean_linker_0, # of connection points: 2
#     Edge 101, Type (0, 0), BuildingBlock: CIFDUS_clean_linker_0, # of connection points: 2
#     Edge 102, Type (0, 0), BuildingBlock: CIFDUS_clean_linker_0, # of connection points: 2
#     Edge 103, Type (0, 0), BuildingBlock: CIFDUS_clean_linker_0, # of connection points: 2
#     Edge 104, Type (0, 0), BuildingBlock: CIFDUS_clean_linker_0, # of connection points: 2
#     Edge 105, Type (0, 0), BuildingBlock: CIFDUS_clean_linker_0, # of connection points: 2
#     Edge 106, Type (0, 0), BuildingBlock: CIFDUS_clean_linker_0, # of connection points: 2
#     Edge 107, Type (0, 0), BuildingBlock: CIFDUS_clean_linker_0, # of connection points: 2
#     Edge 108, Type (0, 0), BuildingBlock: CIFDUS_clean_linker_0, # of connection points: 2
#     Edge 109, Type (0, 0), BuildingBlock: CIFDUS_clean_linker_0, # of connection points: 2
#     Edge 110, Type (0, 0), BuildingBlock: CIFDUS_clean_linker_0, # of connection points: 2
#     Edge 111, Type (0, 0), BuildingBlock: CIFDUS_clean_linker_0, # of connection points: 2
#     Edge 112, Type (0, 0), BuildingBlock: CIFDUS_clean_linker_0, # of connection points: 2
#     Edge 113, Type (0, 0), BuildingBlock: CIFDUS_clean_linker_0, # of connection points: 2
#     Edge 114, Type (0, 0), BuildingBlock: CIFDUS_clean_linker_0, # of connection points: 2
#     Edge 115, Type (0, 0), BuildingBlock: CIFDUS_clean_linker_0, # of connection points: 2
#     Edge 116, Type (0, 0), BuildingBlock: CIFDUS_clean_linker_0, # of connection points: 2
#     Edge 117, Type (0, 0), BuildingBlock: CIFDUS_clean_linker_0, # of connection points: 2
#     Edge 118, Type (0, 0), BuildingBlock: CIFDUS_clean_linker_0, # of connection points: 2
#     Edge 119, Type (0, 0), BuildingBlock: CIFDUS_clean_linker_0, # of connection points: 2
#     Edge 120, Type (0, 0), BuildingBlock: CIFDUS_clean_linker_0, # of connection points: 2
#     Edge 121, Type (0, 0), BuildingBlock: CIFDUS_clean_linker_0, # of connection points: 2
#     Edge 122, Type (0, 0), BuildingBlock: CIFDUS_clean_linker_0, # of connection points: 2
#     Edge 123, Type (0, 0), BuildingBlock: CIFDUS_clean_linker_0, # of connection points: 2
#     Edge 124, Type (0, 0), BuildingBlock: CIFDUS_clean_linker_0, # of connection points: 2
#     Edge 125, Type (0, 0), BuildingBlock: CIFDUS_clean_linker_0, # of connection points: 2
#     Edge 126, Type (0, 0), BuildingBlock: CIFDUS_clean_linker_0, # of connection points: 2
#     Edge 127, Type (0, 0), BuildingBlock: CIFDUS_clean_linker_0, # of connection points: 2
#     Edge 128, Type (0, 0), BuildingBlock: CIFDUS_clean_linker_0, # of connection points: 2
#     Edge 129, Type (0, 0), BuildingBlock: CIFDUS_clean_linker_0, # of connection points: 2
#     Edge 130, Type (0, 0), BuildingBlock: CIFDUS_clean_linker_0, # of connection points: 2
#     Edge 131, Type (0, 0), BuildingBlock: CIFDUS_clean_linker_0, # of connection points: 2
#     Edge 132, Type (0, 0), BuildingBlock: CIFDUS_clean_linker_0, # of connection points: 2
#     Edge 133, Type (0, 0), BuildingBlock: CIFDUS_clean_linker_0, # of connection points: 2
#     Edge 134, Type (0, 0), BuildingBlock: CIFDUS_clean_linker_0, # of connection points: 2
#     Edge 135, Type (0, 0), BuildingBlock: CIFDUS_clean_linker_0, # of connection points: 2
#     Edge 136, Type (0, 0), BuildingBlock: CIFDUS_clean_linker_0, # of connection points: 2
#     Edge 137, Type (0, 0), BuildingBlock: CIFDUS_clean_linker_0, # of connection points: 2
#     Edge 138, Type (0, 0), BuildingBlock: CIFDUS_clean_linker_0, # of connection points: 2
#     Edge 139, Type (0, 0), BuildingBlock: CIFDUS_clean_linker_0, # of connection points: 2
#     Edge 140, Type (0, 0), BuildingBlock: CIFDUS_clean_linker_0, # of connection points: 2
#     Edge 141, Type (0, 0), BuildingBlock: CIFDUS_clean_linker_0, # of connection points: 2
#     Edge 142, Type (0, 0), BuildingBlock: CIFDUS_clean_linker_0, # of connection points: 2
#     Edge 143, Type (0, 0), BuildingBlock: CIFDUS_clean_linker_0, # of connection points: 2
# Relax obj value: 0.211
# Max RMSD: 0.247
# Mean RMSD: 0.233
data_MOF--net-wna--node1-CUKXOW_clean_sbu_0--edge1-CIFDUS_clean_linker_0
_symmetry_space_group_name_H-M    P1
_symmetry_Int_Tables_number       1
_symmetry_cell_setting            triclinic
loop_
_symmetry_equiv_pos_as_xyz
'x, y, z'
_cell_length_a     39.183992
_cell_length_b     39.248102
_cell_length_c     63.947272
_cell_angle_alpha  90.185523
_cell_angle_beta   89.929195
_cell_angle_gamma 119.97866
loop_
_atom_site_label
_atom_site_type_symbol
_atom_site_fract_x
_atom_site_fract_y
_atom_site_fract_z
_atom_type_partial_charge
Tb0 Tb 0.12814 0.27248 0.2038 0.0
C1 C 0.112 0.18619 0.19567 0.0
Tb2 Tb 0.04714 0.21118 0.19086 0.0
O3 O 0.10479 0.2827 0.2327 0.0
O4 O 0.07832 0.22646 0.21947 0.0
O5 O 0.13812 0.2229 0.20061 0.0
C6 C 0.97629 0.14722 0.18737 0.0
O7 O 0.07472 0.1748 0.19149 0.0
C8 C 0.08736 0.25838 0.16022 0.0
C9 C 0.06648 0.29855 0.19684 0.0
O10 O 0.00508 0.15833 0.17422 0.0
O11 O 0.98713 0.17252 0.20264 0.0
O12 O 0.04935 0.24052 0.16201 0.0
O13 O 0.10153 0.24645 0.17445 0.0
O14 O 0.03852 0.26095 0.19822 0.0
O15 O 0.10446 0.31007 0.19579 0.0
C16 C 0.20554 0.31836 0.2089 0.0
O17 O 0.18173 0.29198 0.22195 0.0
O18 O 0.18556 0.3197 0.19303 0.0
C19 C 0.07596 0.24681 0.23414 0.0
Tb20 Tb 0.72967 0.85486 0.19162 0.0
C21 C 0.81429 0.9223 0.17815 0.0
Tb22 Tb 0.79025 0.83393 0.17609 0.0
O23 O 0.73229 0.83668 0.22337 0.0
O24 O 0.78205 0.85857 0.20398 0.0
O25 O 0.77663 0.91161 0.18017 0.0
C26 C 0.84885 0.81784 0.17142 0.0
O27 O 0.82704 0.89695 0.17937 0.0
C28 C 0.74778 0.84271 0.14649 0.0
C29 C 0.70502 0.7655 0.18976 0.0
O30 O 0.83399 0.8294 0.15688 0.0
O31 O 0.82927 0.81347 0.18856 0.0
O32 O 0.78352 0.8496 0.14393 0.0
O33 O 0.73699 0.82842 0.16446 0.0
O34 O 0.7418 0.77554 0.18444 0.0
O35 O 0.69271 0.79129 0.19212 0.0
C36 C 0.67884 0.88153 0.19269 0.0
O37 O 0.70639 0.88951 0.20632 0.0
O38 O 0.67943 0.85787 0.17868 0.0
C39 C 0.76779 0.84226 0.22141 0.0
Tb40 Tb 0.14732 0.86362 0.19473 0.0
C41 C 0.07024 0.86945 0.18822 0.0
Tb42 Tb 0.15622 0.94167 0.18117 0.0
O43 O 0.18155 0.89049 0.22306 0.0
O44 O 0.14684 0.91179 0.21006 0.0
O45 O 0.08517 0.84689 0.1933 0.0
C46 C 0.15131 0.00704 0.17862 0.0
O47 O 0.09224 0.90696 0.18312 0.0
C48 C 0.16417 0.90135 0.15072 0.0
C49 C 0.23157 0.93283 0.18431 0.0
O50 O 0.13704 0.97826 0.16527 0.0
O51 O 0.16956 -0.0004 0.19334 0.0
O52 O 0.18091 0.93947 0.15103 0.0
O53 O 0.14095 0.88734 0.16617 0.0
O54 O 0.21774 0.95759 0.1862 0.0
O55 O 0.20837 0.89403 0.18452 0.0
C56 C 0.12483 0.78752 0.19792 0.0
O57 O 0.11656 0.80755 0.2111 0.0
O58 O 0.14707 0.81079 0.18321 0.0
C59 C 0.17171 0.91748 0.22418 0.0
Tb60 Tb 0.2689 0.13109 0.34541 0.0
C61 C 0.18372 0.11603 0.35555 0.0
Tb62 Tb 0.20386 0.04806 0.3613 0.0
O63 O 0.27183 0.10508 0.31561 0.0
O64 O 0.21946 0.07992 0.33272 0.0
O65 O 0.2215 0.14246 0.35349 0.0
C66 C 0.13862 0.97812 0.36336 0.0
O67 O 0.1703 0.07766 0.35617 0.0
C68 C 0.2446 0.09407 0.39301 0.0
C69 C 0.29215 0.06729 0.35544 0.0
O70 O 0.14669 0.00859 0.37474 0.0
O71 O 0.16814 0.98647 0.35089 0.0
O72 O 0.21662 0.05782 0.39511 0.0
O73 O 0.24731 0.1015 0.37376 0.0
O74 O 0.25432 0.03923 0.35655 0.0
O75 O 0.30462 0.10542 0.35351 0.0
C76 C 0.31684 0.20779 0.34023 0.0
O77 O 0.28636 0.18561 0.32873 0.0
O78 O 0.32099 0.18655 0.35447 0.0
C79 C 0.23622 0.07534 0.31694 0.0
Tb80 Tb 0.85527 0.14352 0.35107 0.0
C81 C 0.85851 0.0657 0.36044 0.0
Tb82 Tb 0.9333 0.14927 0.36832 0.0
O83 O 0.88535 0.1724 0.32219 0.0
O84 O 0.9034 0.13845 0.3391 0.0
O85 O 0.83626 0.08171 0.35684 0.0
C86 C -0.00067 0.14619 0.37145 0.0
O87 O 0.89714 0.08635 0.36323 0.0
C88 C 0.8881 0.15033 0.3989 0.0
C89 C 0.92675 0.22625 0.36306 0.0
O90 O 0.9679 0.12652 0.38267 0.0
O91 O 0.9941 0.16867 0.35844 0.0
O92 O 0.92264 0.15419 0.40192 0.0
O93 O 0.88198 0.14586 0.37957 0.0
O94 O 0.95063 0.21117 0.36421 0.0
O95 O 0.88799 0.20488 0.36017 0.0
C96 C 0.78031 0.12369 0.34571 0.0
O97 O 0.80105 0.11552 0.33295 0.0
O98 O 0.8023 0.14432 0.3613 0.0
C99 C 0.91169 0.16158 0.32377 0.0
Tb100 Tb 0.84884 0.73197 0.35189 0.0
C101 C 0.91069 0.81711 0.36427 0.0
Tb102 Tb 0.81881 0.78434 0.3687 0.0
O103 O 0.86402 0.7646 0.32172 0.0
O104 O 0.8187 0.75961 0.33973 0.0
O105 O 0.90404 0.78083 0.36256 0.0
C106 C 0.80711 0.84514 0.37494 0.0
O107 O 0.88176 0.82527 0.36443 0.0
C108 C 0.81852 0.73568 0.39637 0.0
C109 C 0.75679 0.69757 0.35577 0.0
O110 O 0.8015 0.82634 0.35738 0.0
O111 O 0.81802 0.82879 0.38899 0.0
O112 O 0.79457 0.74957 0.39632 0.0
O113 O 0.84489 0.75282 0.38234 0.0
O114 O 0.7629 0.73374 0.35914 0.0
O115 O 0.78572 0.68929 0.35379 0.0
C116 C 0.87696 0.68316 0.3455 0.0
O117 O 0.87765 0.70831 0.33221 0.0
O118 O 0.85844 0.68401 0.36216 0.0
C119 C 0.83824 0.7759 0.32368 0.0
Tb120 Tb 0.95308 0.78552 0.86504 0.0
C121 C 0.93248 0.69766 0.85994 0.0
Tb122 Tb 0.86822 0.72353 0.85328 0.0
O123 O 0.94845 0.7594 0.89558 0.0
O124 O 0.89839 0.75433 0.8807 0.0
O125 O 0.96131 0.73508 0.86055 0.0
C126 C 0.79306 0.66779 0.85617 0.0
O127 O 0.89443 0.68659 0.85867 0.0
C128 C 0.91446 0.7639 0.82195 0.0
C129 C 0.88776 0.8104 0.85666 0.0
O130 O 0.81538 0.67324 0.84 0.0
O131 O 0.81345 0.69303 0.87061 0.0
O132 O 0.87633 0.74839 0.82151 0.0
O133 O 0.92342 0.75278 0.83837 0.0
O134 O 0.85932 0.77328 0.85633 0.0
O135 O 0.92563 0.82118 0.85814 0.0
C136 C 0.02404 0.85015 0.86485 0.0
O137 O -0.00266 0.84084 0.87916 0.0
O138 O 0.01125 0.82237 0.85086 0.0
C139 C 0.91022 0.7427 0.89608 0.0
Tb140 Tb 0.21307 0.16946 0.85264 0.0
C141 C 0.29915 0.23051 0.84061 0.0
Tb142 Tb 0.26835 0.14059 0.84124 0.0
O143 O 0.24968 0.20266 0.87903 0.0
O144 O 0.247 0.15014 0.86989 0.0
O145 O 0.26193 0.22206 0.83907 0.0
C146 C 0.3093 0.10329 0.83816 0.0
O147 O 0.30902 0.2035 0.84501 0.0
C148 C 0.24129 0.1611 0.80891 0.0
C149 C 0.18166 0.07798 0.85452 0.0
O150 O 0.31608 0.13062 0.85181 0.0
O151 O 0.28038 0.09796 0.82622 0.0
O152 O 0.27571 0.16405 0.80983 0.0
O153 O 0.22204 0.14407 0.82525 0.0
O154 O 0.2173 0.0846 0.84975 0.0
O155 O 0.17298 0.10646 0.85568 0.0
C156 C 0.15181 0.18038 0.85866 0.0
O157 O 0.16711 0.16779 0.87239 0.0
O158 O 0.1716 0.18773 0.84131 0.0
C159 C 0.26357 0.17928 0.8822 0.0
Tb160 Tb 0.84761 0.05838 0.85828 0.0
C161 C 0.76916 0.06128 0.85246 0.0
Tb162 Tb 0.85169 0.13257 0.84258 0.0
O163 O 0.82051 0.0594 0.88752 0.0
O164 O 0.85878 0.11247 0.8724 0.0
O165 O 0.7855 0.03856 0.85162 0.0
C166 C 0.87203 0.20768 0.8367 0.0
O167 O 0.7903 0.10023 0.85186 0.0
C168 C 0.83382 0.07746 0.81432 0.0
C169 C 0.93136 0.13244 0.84981 0.0
O170 O 0.85741 0.18795 0.85383 0.0
O171 O 0.87349 0.18445 0.82273 0.0
O172 O 0.81978 0.10127 0.81425 0.0
O173 O 0.85818 0.08664 0.82906 0.0
O174 O 0.91455 0.15255 0.84337 0.0
O175 O 0.91114 0.09567 0.8564 0.0
C176 C 0.85607 0.99553 0.86277 0.0
O177 O 0.87053 0.02587 0.87508 0.0
O178 O 0.83585 2e-05 0.848 0.0
C179 C 0.83481 0.0972 0.88751 0.0
Tb180 Tb 0.78724 0.95081 0.68228 0.0
C181 C 0.70132 0.93426 0.6914 0.0
Tb182 Tb 0.72347 0.86711 0.69289 0.0
O183 O 0.78173 0.9352 0.6488 0.0
O184 O 0.73491 0.90604 0.66791 0.0
O185 O 0.73947 0.96119 0.69163 0.0
C186 C 0.67345 0.78984 0.68997 0.0
O187 O 0.68832 0.89601 0.68835 0.0
C188 C 0.75718 0.91204 0.72549 0.0
C189 C 0.81103 0.88554 0.68395 0.0
O190 O 0.67607 0.81183 0.7058 0.0
O191 O 0.69841 0.81156 0.67573 0.0
O192 O 0.72175 0.88185 0.7255 0.0
O193 O 0.77357 0.91275 0.70828 0.0
O194 O 0.7734 0.85818 0.68578 0.0
O195 O 0.82322 0.92353 0.68512 0.0
C196 C 0.8483 0.02439 0.68071 0.0
O197 O 0.83596 -0.00115 0.66568 0.0
O198 O 0.82495 0.00908 0.69667 0.0
C199 C 0.74607 0.9057 0.64959 0.0
Tb200 Tb 0.0454 0.82748 0.6872 0.0
C201 C 0.05917 0.75566 0.69229 0.0
Tb202 Tb 0.12576 0.84181 0.70128 0.0
O203 O 0.04933 0.80426 0.65671 0.0
O204 O 0.10037 0.84448 0.67261 0.0
O205 O 0.03323 0.76801 0.6936 0.0
C206 C 0.20326 0.87138 0.70527 0.0
O207 O 0.09786 0.77992 0.69265 0.0
C208 C 0.07249 0.81688 0.73079 0.0
C209 C 0.11341 0.91503 0.69469 0.0
O210 O 0.18007 0.87228 0.71945 0.0
O211 O 0.18247 0.85246 0.68904 0.0
O212 O 0.10144 0.80969 0.73001 0.0
O213 O 0.07616 0.84021 0.71617 0.0
O214 O 0.1377 0.90228 0.7 0.0
O215 O 0.0762 0.89138 0.6893 0.0
C216 C 0.97518 0.82303 0.68526 0.0
O217 O 0.00444 0.8427 0.67259 0.0
O218 O 0.98522 0.80523 0.69894 0.0
C219 C 0.08749 0.82118 0.65717 0.0
Tb220 Tb 0.16966 0.2031 0.67293 0.0
C221 C 0.23645 0.2908 0.67932 0.0
Tb222 Tb 0.14596 0.26459 0.68286 0.0
O223 O 0.19523 0.22927 0.64321 0.0
O224 O 0.14862 0.23502 0.65547 0.0
O225 O 0.22754 0.25329 0.68076 0.0
C226 C 0.12589 0.32003 0.68071 0.0
O227 O 0.20924 0.30146 0.67748 0.0
C228 C 0.14875 0.22383 0.71513 0.0
C229 C 0.07842 0.17813 0.67655 0.0
O230 O 0.14518 0.31587 0.69608 0.0
O231 O 0.11931 0.29388 0.66647 0.0
O232 O 0.12587 0.23892 0.71437 0.0
O233 O 0.17052 0.2354 0.69931 0.0
O234 O 0.08732 0.21521 0.67802 0.0
O235 O 0.10545 0.16726 0.6757 0.0
C236 C 0.17444 0.13752 0.67286 0.0
O237 O 0.16964 0.15424 0.65658 0.0
O238 O 0.17807 0.15865 0.6893 0.0
C239 C 0.17416 0.24616 0.64092 0.0
Tb240 Tb 0.79451 0.61117 0.52669 0.0
C241 C 0.78071 0.52518 0.52988 0.0
Tb242 Tb 0.7096 0.54078 0.52133 0.0
O243 O 0.79225 0.5967 0.56036 0.0
O244 O 0.74142 0.58373 0.54408 0.0
O245 O 0.80694 0.56296 0.52762 0.0
C246 C 0.64182 0.47658 0.53093 0.0
O247 O 0.74215 0.51082 0.52868 0.0
C248 C 0.74607 0.57103 0.48561 0.0
C249 C 0.72374 0.62704 0.51925 0.0
O250 O 0.67387 0.49138 0.5419 0.0
O251 O 0.64771 0.49822 0.5145 0.0
O252 O 0.70843 0.54669 0.48748 0.0
O253 O 0.76115 0.57033 0.50303 0.0
O254 O 0.6983 0.5896 0.52385 0.0
O255 O 0.76254 0.64152 0.51791 0.0
C256 C 0.86841 0.66629 0.51802 0.0
O257 O 0.8491 0.66563 0.53477 0.0
O258 O 0.84545 0.63697 0.50608 0.0
C259 C 0.75396 0.57919 0.56129 0.0
Tb260 Tb 0.37778 0.18435 0.52525 0.0
C261 C 0.46214 0.26035 0.52122 0.0
Tb262 Tb 0.45121 0.17713 0.51157 0.0
O263 O 0.37424 0.15278 0.55423 0.0
O264 O 0.42828 0.18736 0.53943 0.0
O265 O 0.42352 0.24562 0.5202 0.0
C266 C 0.51785 0.17516 0.51239 0.0
O267 O 0.47886 0.23825 0.52116 0.0
C268 C 0.41252 0.18199 0.47869 0.0
C269 C 0.36515 0.10173 0.51254 0.0
O270 O 0.51133 0.199 0.50136 0.0
O271 O 0.48624 0.15138 0.52285 0.0
O272 O 0.44363 0.17834 0.47731 0.0
O273 O 0.40656 0.18349 0.49789 0.0
O274 O 0.40398 0.11582 0.51361 0.0
O275 O 0.34818 0.12375 0.51445 0.0
C276 C 0.32806 0.21154 0.53014 0.0
O277 O 0.35145 0.21126 0.5444 0.0
O278 O 0.33126 0.19455 0.51333 0.0
C279 C 0.41153 0.16365 0.55424 0.0
Tb280 Tb 0.8037 0.20636 0.52639 0.0
C281 C 0.74484 0.23897 0.51847 0.0
Tb282 Tb 0.83714 0.29761 0.51885 0.0
O283 O 0.82746 0.2187 0.55832 0.0
O284 O 0.81161 0.25607 0.54341 0.0
O285 O 0.7496 0.20933 0.52475 0.0
C286 C 0.85344 0.37066 0.52795 0.0
O287 O 0.77446 0.27497 0.51458 0.0
C288 C 0.82967 0.25864 0.48365 0.0
C289 C 0.89402 0.26272 0.52239 0.0
O290 O 0.868 0.36098 0.51225 0.0
O291 O 0.83091 0.33937 0.53869 0.0
O292 O 0.84188 0.29621 0.48424 0.0
O293 O 0.82211 0.24684 0.50218 0.0
O294 O 0.8895 0.29364 0.52638 0.0
O295 O 0.86456 0.22668 0.5184 0.0
C296 C 0.76308 0.12929 0.51935 0.0
O297 O 0.78136 0.14567 0.53667 0.0
O298 O 0.76833 0.15626 0.50601 0.0
C299 C 0.82746 0.25181 0.55959 0.0
Tb300 Tb 0.94553 0.4522 0.68632 0.0
C301 C 0.86161 0.43828 0.6994 0.0
Tb302 Tb 0.87703 0.36678 0.69735 0.0
O303 O 0.94559 0.43185 0.65429 0.0
O304 O 0.89391 0.40656 0.67199 0.0
O305 O 0.89977 0.4638 0.69768 0.0
C306 C 0.81151 0.29706 0.69363 0.0
O307 O 0.84613 0.39974 0.69735 0.0
C308 C 0.91946 0.40365 0.73089 0.0
C309 C 0.96352 0.38335 0.68742 0.0
O310 O 0.81883 0.32293 0.70818 0.0
O311 O 0.84185 0.30994 0.68125 0.0
O312 O 0.89027 0.3676 0.73105 0.0
O313 O 0.92269 0.4155 0.71238 0.0
O314 O 0.92499 0.35731 0.68716 0.0
O315 O 0.97851 0.42184 0.69018 0.0
C316 C 0.99478 0.52941 0.68463 0.0
O317 O -0.00252 0.50576 0.69788 0.0
O318 O 0.96521 0.50931 0.6722 0.0
C319 C 0.9088 0.40432 0.65494 0.0
Tb320 Tb 0.54451 0.47435 0.68495 0.0
C321 C 0.56746 0.40792 0.69047 0.0
Tb322 Tb 0.6327 0.49907 0.69448 0.0
O323 O 0.55729 0.49305 0.65261 0.0
O324 O 0.59314 0.47597 0.6685 0.0
O325 O 0.53929 0.41646 0.68682 0.0
C326 C 0.7043 0.50739 0.6959 0.0
O327 O 0.60515 0.43507 0.69264 0.0
C328 C 0.59485 0.50193 0.72847 0.0
C329 C 0.6092 0.56365 0.6862 0.0
O330 O 0.67482 0.48511 0.70782 0.0
O331 O 0.69381 0.52598 0.68286 0.0
O332 O 0.63178 0.51206 0.72828 0.0
O333 O 0.583 0.49179 0.71012 0.0
O334 O 0.63723 0.55402 0.68427 0.0
O335 O 0.57157 0.5377 0.69042 0.0
C336 C 0.46692 0.43883 0.69161 0.0
O337 O 0.4847 0.45807 0.67477 0.0
O338 O 0.49304 0.44109 0.70482 0.0
C339 C 0.58993 0.49188 0.65188 0.0
Tb340 Tb 0.51595 0.05221 0.67415 0.0
C341 C 0.58282 0.13922 0.68414 0.0
Tb342 Tb 0.49162 0.11156 0.68885 0.0
O343 O 0.48509 0.04424 0.64456 0.0
O344 O 0.51023 0.09838 0.66031 0.0
O345 O 0.57454 0.10427 0.67678 0.0
C346 C 0.48647 0.17678 0.69115 0.0
O347 O 0.55536 0.14794 0.68942 0.0
C348 C 0.48737 0.06271 0.71796 0.0
C349 C 0.42646 0.02404 0.68063 0.0
O350 O 0.5027 0.16517 0.70494 0.0
O351 O 0.47156 0.15068 0.67626 0.0
O352 O 0.46722 0.08085 0.71842 0.0
O353 O 0.51199 0.0764 0.7031 0.0
O354 O 0.43445 0.06121 0.68084 0.0
O355 O 0.45383 0.01358 0.68064 0.0
C356 C 0.54643 0.00496 0.67344 0.0
O357 O 0.54355 0.02343 0.65732 0.0
O358 O 0.53203 0.01295 0.68975 0.0
C359 C 0.48929 0.07924 0.64481 0.0
Tb360 Tb 0.60935 0.11713 0.19279 0.0
C361 C 0.60082 0.03362 0.18712 0.0
Tb362 Tb 0.5314 0.05099 0.17596 0.0
O363 O 0.60002 0.09012 0.22361 0.0
O364 O 0.5519 0.08023 0.20497 0.0
O365 O 0.62534 0.07185 0.19021 0.0
C366 C 0.45668 0.9933 0.17074 0.0
O367 O 0.56314 0.01864 0.18147 0.0
C368 C 0.58221 0.09734 0.14728 0.0
C369 C 0.53959 0.13283 0.18448 0.0
O370 O 0.47657 0.02242 0.15815 0.0
O371 O 0.47986 0.99535 0.18579 0.0
O372 O 0.5443 0.07883 0.14494 0.0
O373 O 0.58957 0.0861 0.16418 0.0
O374 O 0.51531 0.09448 0.1854 0.0
O375 O 0.57819 0.14798 0.18395 0.0
C376 C 0.67617 0.18561 0.19745 0.0
O377 O 0.64675 0.17086 0.21038 0.0
O378 O 0.66844 0.16125 0.18199 0.0
C379 C 0.56196 0.06995 0.22153 0.0
Tb380 Tb 0.87627 0.49129 0.18841 0.0
C381 C 0.96287 0.56218 0.18685 0.0
Tb382 Tb 0.94184 0.4763 0.17679 0.0
O383 O 0.9005 0.51466 0.21886 0.0
O384 O 0.91108 0.47218 0.20511 0.0
O385 O 0.92515 0.55088 0.18369 0.0
C386 C 0.98936 0.4463 0.17265 0.0
O387 O 0.97612 0.53698 0.18741 0.0
C388 C 0.91689 0.50348 0.1465 0.0
C389 C 0.85547 0.4034 0.18233 0.0
O390 O 0.98896 0.46682 0.18854 0.0
O391 O 0.96414 0.44417 0.15887 0.0
O392 O 0.95326 0.51205 0.14863 0.0
O393 O 0.89611 0.4789 0.16027 0.0
O394 O 0.89308 0.41563 0.17855 0.0
O395 O 0.84208 0.42778 0.18601 0.0
C396 C 0.81074 0.49554 0.18938 0.0
O397 O 0.82047 0.47708 0.20272 0.0
O398 O 0.83829 0.51229 0.17538 0.0
C399 C 0.91971 0.4958 0.22043 0.0
Tb400 Tb 0.4938 0.36999 0.19287 0.0
C401 C 0.43197 0.39955 0.18778 0.0
Tb402 Tb 0.52181 0.45824 0.18008 0.0
O403 O 0.48754 0.37667 0.22681 0.0
O404 O 0.50859 0.42349 0.20675 0.0
O405 O 0.43811 0.369 0.18798 0.0
C406 C 0.5609 0.53582 0.1759 0.0
O407 O 0.46023 0.43712 0.18685 0.0
C408 C 0.49754 0.406 0.15008 0.0
C409 C 0.58453 0.43216 0.19153 0.0
O410 O 0.56185 0.51087 0.16291 0.0
O411 O 0.53682 0.51701 0.19119 0.0
O412 O 0.494 0.43716 0.14955 0.0
O413 O 0.51632 0.40666 0.16619 0.0
O414 O 0.57714 0.46136 0.1888 0.0
O415 O 0.55702 0.39449 0.19166 0.0
C416 C 0.47783 0.29579 0.18955 0.0
O417 O 0.49498 0.31912 0.20529 0.0
O418 O 0.46841 0.31396 0.17571 0.0
C419 C 0.50022 0.41424 0.22561 0.0
Tb420 Tb 0.45063 0.29036 1.01242 0.0
C421 C 0.36413 0.26808 0.02689 0.0
Tb422 Tb 0.39226 0.20655 0.02431 0.0
O423 O 0.44366 0.27459 0.97917 0.0
O424 O 0.39785 0.2439 0.9991 0.0
O425 O 0.40145 0.29662 0.02439 0.0
C426 C 0.35033 0.12837 0.02762 0.0
O427 O 0.3524 0.23003 0.02468 0.0
C428 C 0.42929 0.25389 0.05545 0.0
C429 C 0.4774 0.22849 1.00945 0.0
O430 O 0.37334 0.1525 0.04178 0.0
O431 O 0.34957 0.1484 1.01164 0.0
O432 O 0.39323 0.22505 0.05655 0.0
O433 O 0.44384 0.25347 0.03789 0.0
O434 O 0.43999 0.2007 1.01029 0.0
O435 O 0.48898 0.26567 1.01349 0.0
C436 C 0.50868 0.36562 1.0112 0.0
O437 O 0.497 0.3408 0.99581 0.0
O438 O 0.48613 0.34853 0.0272 0.0
C439 C 0.40858 0.24427 0.98053 0.0
Tb440 Tb 0.70825 0.16729 1.01489 0.0
C441 C 0.71985 0.09437 1.01764 0.0
Tb442 Tb 0.78989 0.17965 0.0237 0.0
O443 O 0.70615 0.14292 0.98403 0.0
O444 O 0.75999 0.18337 0.99691 0.0
O445 O 0.6956 0.10797 0.02183 0.0
C446 C 0.86688 0.20461 0.02258 0.0
O447 O 0.75832 0.1178 1.01468 0.0
C448 C 0.74206 0.15657 0.05612 0.0
C449 C 0.77741 0.2534 0.0251 0.0
O450 O 0.84571 0.19668 0.03934 0.0
O451 O 0.84459 0.19788 1.00632 0.0
O452 O 0.77012 0.14846 0.05346 0.0
O453 O 0.744 0.1795 0.04177 0.0
O454 O 0.80311 0.24079 0.02555 0.0
O455 O 0.73912 0.22973 0.02227 0.0
C456 C 0.64005 0.16601 1.01306 0.0
O457 O 0.67054 0.18728 1.00144 0.0
O458 O 0.64779 0.14513 0.02591 0.0
C459 C 0.74393 0.16021 0.98162 0.0
Tb460 Tb 0.82744 0.53791 1.01639 0.0
C461 C 0.89644 0.62458 0.02691 0.0
Tb462 Tb 0.80853 0.603 0.02521 0.0
O463 O 0.81717 0.53949 0.98281 0.0
O464 O 0.83593 0.58917 1.00081 0.0
O465 O 0.88413 0.5862 0.02787 0.0
C466 C 0.78067 0.65181 1.01939 0.0
O467 O 0.87227 0.63828 0.02272 0.0
C468 C 0.8172 0.56888 0.05816 0.0
C469 C 0.73891 0.51667 1.01331 0.0
O470 O 0.7908 0.64414 0.03736 0.0
O471 O 0.78737 0.63287 1.00482 0.0
O472 O 0.82599 0.60554 0.05795 0.0
O473 O 0.80136 0.55276 0.04101 0.0
O474 O 0.74973 0.55365 1.01799 0.0
O475 O 0.764 0.50338 1.01245 0.0
C476 C 0.84177 0.47871 0.02177 0.0
O477 O 0.82131 0.48784 0.03412 0.0
O478 O 0.85509 0.50363 1.00639 0.0
C479 C 0.82363 0.57541 0.98282 0.0
Tb480 Tb 0.46356 0.93685 0.86035 0.0
C481 C 0.44368 0.85227 0.84556 0.0
Tb482 Tb 0.37862 0.87831 0.84629 0.0
O483 O 0.45198 0.90807 0.89127 0.0
O484 O 0.40693 0.90691 0.87417 0.0
O485 O 0.47178 0.88879 0.84947 0.0
C486 C 0.30929 0.81197 0.84976 0.0
O487 O 0.40599 0.84183 0.84418 0.0
C488 C 0.42338 0.92329 0.81634 0.0
C489 C 0.40058 0.96529 0.85759 0.0
O490 O 0.33941 0.82312 0.86197 0.0
O491 O 0.3177 0.83888 0.83563 0.0
O492 O 0.38503 0.9048 0.81559 0.0
O493 O 0.43443 0.91089 0.83177 0.0
O494 O 0.37171 0.92807 0.85539 0.0
O495 O 0.43851 0.97585 0.8595 0.0
C496 C 0.54041 0.98992 0.86248 0.0
O497 O 0.51607 0.98979 0.84865 0.0
O498 O 0.52098 0.96138 0.87548 0.0
C499 C 0.41411 0.89316 0.89016 0.0
Tb500 Tb 0.06237 0.51964 0.86484 0.0
C501 C 0.15124 0.58296 0.85634 0.0
Tb502 Tb 0.12167 0.49244 0.85037 0.0
O503 O 0.05345 0.48795 0.89422 0.0
O504 O 0.10737 0.51145 0.87854 0.0
O505 O 0.11432 0.57543 0.85643 0.0
C506 C 0.18189 0.47919 0.84865 0.0
O507 O 0.16055 0.55482 0.85678 0.0
C508 C 0.08436 0.50129 0.81794 0.0
C509 C 0.03057 0.43053 0.85555 0.0
O510 O 0.1757 0.5015 0.83618 0.0
O511 O 0.15317 0.46301 0.86215 0.0
O512 O 0.10939 0.4889 0.81643 0.0
O513 O 0.08297 0.50827 0.83704 0.0
O514 O 0.06721 0.43633 0.85533 0.0
O515 O 0.02168 0.45905 0.85668 0.0
C516 C 0.02341 0.55785 0.87145 0.0
O517 O 0.01632 0.53312 0.85617 0.0
O518 O 0.05163 0.56018 0.88304 0.0
C519 C 0.08776 0.49052 0.89383 0.0
Tb520 Tb 0.47932 0.53185 0.86009 0.0
C521 C 0.40892 0.54695 0.84954 0.0
Tb522 Tb 0.49817 0.61722 0.84756 0.0
O523 O 0.49734 0.55129 0.89241 0.0
O524 O 0.47491 0.57915 0.87369 0.0
O525 O 0.41962 0.52091 0.85474 0.0
C526 C 0.50446 0.68785 0.84711 0.0
O527 O 0.43402 0.5852 0.84746 0.0
C528 C 0.50508 0.57865 0.81522 0.0
C529 C 0.56659 0.59995 0.85823 0.0
O530 O 0.48359 0.65913 0.83437 0.0
O531 O 0.52264 0.67712 0.86027 0.0
O532 O 0.51175 0.61447 0.81413 0.0
O533 O 0.4958 0.56806 0.83383 0.0
O534 O 0.55473 0.62639 0.85878 0.0
O535 O 0.54252 0.56166 0.85517 0.0
C536 C 0.45451 0.45536 0.85643 0.0
O537 O 0.46643 0.47542 0.87373 0.0
O538 O 0.45716 0.47852 0.84132 0.0
C539 C 0.49098 0.58079 0.89108 0.0
Tb540 Tb 0.6013 0.7888 1.01583 0.0
C541 C 0.51402 0.76889 0.02913 0.0
Tb542 Tb 0.53808 0.70299 0.02977 0.0
O543 O 0.60792 0.76632 0.98539 0.0
O544 O 0.55532 0.73701 1.00199 0.0
O545 O 0.55045 0.79577 0.02357 0.0
C546 C 0.47777 0.62984 0.02542 0.0
O547 O 0.50251 0.73117 0.03216 0.0
C548 C 0.57515 0.74805 0.06245 0.0
C549 C 0.62765 0.72744 0.02489 0.0
O550 O 0.48509 0.65952 1.01362 0.0
O551 O 0.50493 0.64118 0.03968 0.0
O552 O 0.54709 0.71152 0.06391 0.0
O553 O 0.5786 0.75658 0.04331 0.0
O554 O 0.59046 0.69843 0.02298 0.0
O555 O 0.6384 0.76528 0.02542 0.0
C556 C 0.6479 0.86622 1.0127 0.0
O557 O 0.65327 0.84382 0.0256 0.0
O558 O 0.61675 0.84493 1.00145 0.0
C559 C 0.57335 0.73492 0.98615 0.0
Tb560 Tb 0.19999 0.81113 1.00918 0.0
C561 C 0.21469 0.73975 1.01621 0.0
Tb562 Tb 0.28186 0.82815 0.02145 0.0
O563 O 0.21463 0.82664 0.97672 0.0
O564 O 0.24604 0.80593 0.99416 0.0
O565 O 0.1886 0.7514 1.01399 0.0
C566 C 0.3551 0.83923 0.02488 0.0
O567 O 0.25308 0.76471 1.01691 0.0
C568 C 0.23493 0.82412 0.05312 0.0
C569 C 0.26765 0.89949 1.01122 0.0
O570 O 0.32674 0.82151 0.03819 0.0
O571 O 0.3428 0.85252 1.00978 0.0
O572 O 0.26321 0.8162 0.05452 0.0
O573 O 0.23753 0.83707 0.03496 0.0
O574 O 0.29413 0.88784 1.01368 0.0
O575 O 0.22893 0.87487 1.01177 0.0
C576 C 0.12304 0.78325 1.01462 0.0
O577 O 0.14293 0.80195 0.9981 0.0
O578 O 0.14669 0.78124 0.02806 0.0
C579 C 0.24537 0.82216 0.9771 0.0
Tb580 Tb 0.17802 0.38197 0.02126 0.0
C581 C 0.25305 0.46659 0.02394 0.0
Tb582 Tb 0.16585 0.4511 0.03097 0.0
O583 O 0.15238 0.37654 0.98989 0.0
O584 O 0.1832 0.43102 1.00468 0.0
O585 O 0.23987 0.42844 0.02159 0.0
C586 C 0.1713 0.52122 0.03383 0.0
O587 O 0.22955 0.48137 0.02702 0.0
C588 C 0.15172 0.40341 0.06265 0.0
C589 C 0.0929 0.36807 0.02238 0.0
O590 O 0.18602 0.50688 0.04693 0.0
O591 O 0.1523 0.49549 1.01917 0.0
O592 O 0.13459 0.42397 0.05976 0.0
O593 O 0.17797 0.41255 0.0488 0.0
O594 O 0.10773 0.40655 1.01953 0.0
O595 O 0.1152 0.3526 0.0273 0.0
C596 C 0.19941 0.32736 0.02349 0.0
O597 O 0.193 0.34088 1.00638 0.0
O598 O 0.19328 0.34423 0.03936 0.0
C599 C 0.1632 0.41366 0.98874 0.0
Tb600 Tb 0.26917 0.45203 0.51917 0.0
C601 C 0.25907 0.36798 0.51254 0.0
Tb602 Tb 0.19181 0.386 0.50463 0.0
O603 O 0.26838 0.42285 0.54774 0.0
O604 O 0.2149 0.41213 0.53446 0.0
O605 O 0.28451 0.40651 0.51171 0.0
C606 C 0.11614 0.3323 0.50004 0.0
O607 O 0.22048 0.35317 0.51305 0.0
C608 C 0.24567 0.41679 0.47529 0.0
C609 C 0.19843 0.46837 0.51201 0.0
O610 O 0.13803 0.35753 0.48598 0.0
O611 O 0.13716 0.33686 0.51659 0.0
O612 O 0.21916 0.37982 0.4762 0.0
O613 O 0.24015 0.43529 0.4899 0.0
O614 O 0.17573 0.43161 0.50582 0.0
O615 O 0.23544 0.48255 0.51796 0.0
C616 C 0.33419 0.52123 0.5255 0.0
O617 O 0.30346 0.50527 0.53746 0.0
O618 O 0.32886 0.49778 0.50984 0.0
C619 C 0.23032 0.40192 0.54887 0.0
Tb620 Tb 0.53844 0.82785 0.52752 0.0
C621 C 0.62458 0.89727 0.52122 0.0
Tb622 Tb 0.60335 0.81072 0.51422 0.0
O623 O 0.5678 0.85365 0.55716 0.0
O624 O 0.57523 0.80996 0.54276 0.0
O625 O 0.58671 0.886 0.51873 0.0
C626 C 0.65384 0.78429 0.51092 0.0
O627 O 0.63749 0.87205 0.52307 0.0
C628 C 0.57233 0.83206 0.48406 0.0
C629 C 0.51761 0.73908 0.52212 0.0
O630 O 0.65592 0.80945 0.52483 0.0
O631 O 0.6239 0.77477 0.49878 0.0
O632 O 0.60863 0.83969 0.48402 0.0
O633 O 0.55498 0.81103 0.49964 0.0
O634 O 0.55524 0.75076 0.5187 0.0
O635 O 0.50432 0.76388 0.52525 0.0
C636 C 0.47364 0.83395 0.52921 0.0
O637 O 0.48339 0.8155 0.54262 0.0
O638 O 0.50072 0.84946 0.51489 0.0
C639 C 0.58683 0.83446 0.55767 0.0
Tb640 Tb 0.16009 0.71131 0.52616 0.0
C641 C 0.09401 0.72991 0.51017 0.0
Tb642 Tb 0.18372 0.79488 0.51206 0.0
O643 O 0.16854 0.73031 0.55928 0.0
O644 O 0.15307 0.75821 0.53735 0.0
O645 O 0.10376 0.70239 0.51394 0.0
C646 C 0.21246 0.87229 0.50978 0.0
O647 O 0.11976 0.76837 0.51092 0.0
C648 C 0.17406 0.74564 0.48216 0.0
C649 C 0.24865 0.776 0.52914 0.0
O650 O 0.22044 0.85155 0.49696 0.0
O651 O 0.18765 0.84932 0.52378 0.0
O652 O 0.16744 0.77477 0.48 0.0
O653 O 0.1888 0.74728 0.49998 0.0
O654 O 0.23847 0.80321 0.52627 0.0
O655 O 0.22348 0.73801 0.52696 0.0
C656 C 0.14425 0.63656 0.52818 0.0
O657 O 0.14909 0.65931 0.544 0.0
O658 O 0.14647 0.65543 0.51113 0.0
C659 C 0.16322 0.75998 0.55606 0.0
Tb660 Tb 0.10585 0.61269 0.35055 0.0
C661 C 0.02086 0.59738 0.36069 0.0
Tb662 Tb 0.04202 0.53064 0.36313 0.0
O663 O 0.07332 0.61178 0.32293 0.0
O664 O 0.06766 0.55915 0.33435 0.0
O665 O 0.05914 0.624 0.36091 0.0
C666 C 0.99361 0.45347 0.36586 0.0
O667 O 0.00718 0.55903 0.35861 0.0
C668 C 0.07305 0.5808 0.3941 0.0
C669 C 0.12651 0.5442 0.35246 0.0
O670 O 0.02248 0.47457 0.37849 0.0
O671 O 0.99108 0.47607 0.35185 0.0
O672 O 0.03675 0.55236 0.39377 0.0
O673 O 0.09079 0.57858 0.37813 0.0
O674 O 0.08976 0.51863 0.35761 0.0
O675 O 0.13916 0.58199 0.34932 0.0
C676 C 0.1737 0.68029 0.34627 0.0
O677 O 0.15738 0.65267 0.33234 0.0
O678 O 0.15108 0.67043 0.3627 0.0
C679 C 0.05509 0.57382 0.32087 0.0
Tb680 Tb 0.37586 0.51064 0.33679 0.0
C681 C 0.38484 0.43512 0.34079 0.0
Tb682 Tb 0.45551 0.51835 0.35323 0.0
O683 O 0.3865 0.5069 0.30302 0.0
O684 O 0.4275 0.51566 0.32518 0.0
O685 O 0.36014 0.44926 0.34061 0.0
C686 C 0.53108 0.53849 0.35609 0.0
O687 O 0.42373 0.45732 0.34309 0.0
C688 C 0.39955 0.49891 0.38099 0.0
C689 C 0.44866 0.59509 0.34742 0.0
O690 O 0.50733 0.53074 0.37181 0.0
O691 O 0.51198 0.53408 0.33879 0.0
O692 O 0.42664 0.489 0.38218 0.0
O693 O 0.40684 0.52189 0.36567 0.0
O694 O 0.4717 0.58033 0.35202 0.0
O695 O 0.41075 0.57336 0.3427 0.0
C696 C 0.30908 0.51227 0.33376 0.0
O697 O 0.34032 0.53231 0.32247 0.0
O698 O 0.31495 0.49026 0.34682 0.0
C699 C 0.4214 0.51157 0.30585 0.0
Tb700 Tb 0.48232 0.87732 0.34592 0.0
C701 C 0.55428 0.96277 0.35016 0.0
Tb702 Tb 0.46939 0.9412 0.36393 0.0
O703 O 0.5024 0.90641 0.31591 0.0
O704 O 0.46269 0.91532 0.33389 0.0
O705 O 0.5427 0.92463 0.35052 0.0
C706 C 0.44007 0.98791 0.37274 0.0
O707 O 0.52958 0.97639 0.35263 0.0
C708 C 0.50064 0.9133 0.38987 0.0
C709 C 0.39544 0.85578 0.35724 0.0
O710 O 0.45926 0.9895 0.35588 0.0
O711 O 0.43882 0.96102 0.38496 0.0
O712 O 0.508 0.9494 0.39022 0.0
O713 O 0.47428 0.89363 0.37645 0.0
O714 O 0.40863 0.89242 0.36355 0.0
O715 O 0.41888 0.84326 0.34999 0.0
C716 C 0.48516 0.81184 0.33903 0.0
O717 O 0.46774 0.8254 0.32729 0.0
O718 O 0.5016 0.8355 0.35481 0.0
C719 C 0.48454 0.92655 0.31779 0.0
H720 H 0.08273 0.12141 0.17099 0.0
H721 H 0.1711 0.18552 0.2179 0.0
H722 H 0.19184 0.13613 0.21675 0.0
H723 H 0.18364 0.07345 0.20284 0.0
H724 H 0.09791 0.0124 0.15426 0.0
H725 H 0.07759 0.0618 0.15553 0.0
C726 C 0.10648 0.12451 0.18099 0.0
C727 C 0.12507 0.15679 0.19466 0.0
C728 C 0.11885 0.09657 0.17988 0.0
C729 C 0.15629 0.16084 0.20725 0.0
C730 C 0.16814 0.1326 0.20662 0.0
C731 C 0.16078 0.07127 0.19245 0.0
C732 C 0.14222 0.03931 0.17853 0.0
C733 C 0.14953 0.10021 0.19304 0.0
C734 C 0.11273 0.03681 0.16507 0.0
C735 C 0.10094 0.06496 0.16584 0.0
H736 H 0.96204 0.08751 0.16172 0.0
H737 H 0.90955 0.12088 0.21114 0.0
H738 H 0.85171 0.05439 0.21103 0.0
H739 H 0.81881 0.98526 0.19854 0.0
H740 H 0.87604 0.95187 0.15175 0.0
H741 H 0.92931 0.02001 0.14896 0.0
C742 C 0.93771 0.08038 0.1723 0.0
C743 C 0.9398 0.10884 0.18638 0.0
C744 C 0.90557 0.04206 0.17262 0.0
C745 C 0.90839 0.09925 0.20016 0.0
C746 C 0.87546 0.06131 0.20011 0.0
C747 C 0.84271 0.99324 0.18754 0.0
C748 C 0.8437 0.96397 0.17528 0.0
C749 C 0.87406 0.03225 0.18665 0.0
C750 C 0.87494 0.97415 0.16132 0.0
C751 C 0.90533 0.01299 0.15974 0.0
H752 H 0.02751 0.874 0.15663 0.0
H753 H 0.01672 0.82571 0.21824 0.0
H754 H 0.94565 0.80223 0.21816 0.0
H755 H 0.88762 0.80038 0.20133 0.0
H756 H 0.89891 0.84497 0.13859 0.0
H757 H 0.96842 0.8642 0.13812 0.0
C758 C 0.00942 0.85803 0.16994 0.0
C759 C 0.02709 0.85203 0.18754 0.0
C760 C 0.96868 0.84384 0.16951 0.0
C761 C 0.00353 0.83074 0.20458 0.0
C762 C 0.963 0.8174 0.20452 0.0
C763 C 0.90517 0.81351 0.18742 0.0
C764 C 0.88823 0.82153 0.17008 0.0
C765 C 0.94533 0.82437 0.18719 0.0
C766 C 0.91124 0.83851 0.15215 0.0
C767 C 0.9511 0.84979 0.1519 0.0
H768 H 0.11641 0.08149 0.37749 0.0
H769 H 0.18679 0.18088 0.33774 0.0
H770 H 0.13616 0.20023 0.33938 0.0
H771 H 0.07005 0.18667 0.35114 0.0
H772 H 0.0028 0.08878 0.39252 0.0
H773 H 0.05407 0.07115 0.3913 0.0
C774 C 0.12067 0.10741 0.3692 0.0
C775 C 0.15483 0.12945 0.3573 0.0
C776 C 0.092 0.11861 0.37053 0.0
C777 C 0.16051 0.16343 0.34697 0.0
C778 C 0.13158 0.17441 0.34786 0.0
C779 C 0.06697 0.16177 0.36 0.0
C780 C 0.03269 0.13891 0.37178 0.0
C781 C 0.09696 0.15196 0.35946 0.0
C782 C 0.02895 0.10682 0.38332 0.0
C783 C 0.05818 0.0966 0.3826 0.0
H784 H 0.78441 0.88315 0.34753 0.0
H785 H 0.84071 0.89569 0.40725 0.0
H786 H 0.86028 0.96518 0.40841 0.0
H787 H 0.86729 0.02379 0.39083 0.0
H788 H 0.80791 0.01179 0.33234 0.0
H789 H 0.7834 0.94066 0.33225 0.0
C790 C 0.80024 0.90101 0.36096 0.0
C791 C 0.81148 0.88452 0.37717 0.0
C792 C 0.81125 0.94105 0.3616 0.0
C793 C 0.83178 0.90776 0.39456 0.0
C794 C 0.84322 0.94757 0.39519 0.0
C795 C 0.84859 0.00539 0.37821 0.0
C796 C 0.83976 0.02265 0.36147 0.0
C797 C 0.8341 0.96473 0.37854 0.0
C798 C 0.81506 -0.00118 0.34533 0.0
C799 C 0.8012 0.9583 0.34527 0.0
H800 H 0.97759 0.81984 0.35006 0.0
H801 H 0.93537 0.88745 0.38331 0.0
H802 H 0.00269 0.9419 0.38701 0.0
H803 H 0.07284 0.97087 0.38016 0.0
H804 H 0.11611 0.90685 0.34455 0.0
H805 H 0.04896 0.85002 0.34249 0.0
C806 C 0.98326 0.84646 0.3582 0.0
C807 C 0.95163 0.84965 0.36647 0.0
C808 C 0.02207 0.87809 0.35985 0.0
C809 C 0.95921 0.8844 0.37674 0.0
C810 C -0.00233 0.91548 0.37892 0.0
C811 C 0.06768 0.94435 0.37209 0.0
C812 C 0.09925 0.94273 0.36269 0.0
C813 C 0.02921 0.91269 0.37046 0.0
C814 C 0.09215 0.90853 0.352 0.0
C815 C 0.05383 0.8762 0.35079 0.0
H816 H 0.9246 0.88206 0.8751 0.0
H817 H 0.82572 0.80712 0.83574 0.0
H818 H 0.80704 0.85795 0.83382 0.0
H819 H 0.8191 0.92415 0.8434 0.0
H820 H 0.91515 0.99649 0.885 0.0
H821 H 0.93459 0.94636 0.88608 0.0
C822 C 0.89908 0.877 0.86604 0.0
C823 C 0.87673 0.84117 0.85545 0.0
C824 C 0.88791 0.90584 0.86551 0.0
C825 C 0.84333 0.83458 0.84404 0.0
C826 C 0.83266 0.86361 0.84293 0.0
C827 C 0.84413 0.9287 0.85274 0.0
C828 C 0.86572 0.96384 0.86406 0.0
C829 C 0.85471 0.89936 0.85363 0.0
C830 C 0.89799 0.96951 0.87622 0.0
C831 C 0.90923 0.94095 0.87679 0.0
H832 H 0.17585 0.00964 0.8405 0.0
H833 H 0.11737 0.05527 0.87916 0.0
H834 H 0.06547 0.98848 0.88726 0.0
H835 H 0.03545 0.91732 0.88247 0.0
H836 H 0.08979 0.87109 0.84131 0.0
H837 H 0.14491 0.93781 0.83524 0.0
C838 C 0.15181 0.00488 0.85077 0.0
C839 C 0.15044 0.03733 0.85924 0.0
C840 C 0.12149 0.96632 0.85497 0.0
C841 C 0.11894 0.0308 0.87234 0.0
C842 C 0.08934 0.99262 0.87705 0.0
C843 C 0.05966 0.92185 0.8724 0.0
C844 C 0.059 0.8895 0.86254 0.0
C845 C 0.0902 0.96021 0.86837 0.0
C846 C 0.08999 0.89568 0.84917 0.0
C847 C 0.12133 0.93377 0.84565 0.0
H848 H 0.9772 0.12984 0.88004 0.0
H849 H 0.98148 0.17637 0.81859 0.0
H850 H 0.05222 0.19899 0.81623 0.0
H851 H 0.11117 0.19916 0.83061 0.0
H852 H 0.10587 0.1549 0.89296 0.0
H853 H 0.03744 0.13837 0.89619 0.0
C854 C 0.99385 0.14542 0.86627 0.0
C855 C 0.97448 0.15108 0.84941 0.0
C856 C 0.03424 0.15864 0.8652 0.0
C857 C -0.0039 0.17176 0.83173 0.0
C858 C 0.03639 0.18449 0.83037 0.0
C859 C 0.09516 0.18665 0.84502 0.0
C860 C 0.11327 0.17777 0.86141 0.0
C861 C 0.05559 0.17724 0.84684 0.0
C862 C 0.09243 0.16176 0.88006 0.0
C863 C 0.05324 0.15212 0.88192 0.0
H864 H 0.81714 0.82544 0.70183 0.0
H865 H 0.87311 0.92139 0.65811 0.0
H866 H 0.92698 0.90798 0.65324 0.0
H867 H 0.96045 0.87214 0.66295 0.0
H868 H 0.90897 0.77995 0.70894 0.0
H869 H 0.85107 0.78839 0.71135 0.0
C870 C 0.84096 0.84297 0.69108 0.0
C871 C 0.84129 0.87433 0.68033 0.0
C872 C 0.87271 0.83589 0.68886 0.0
C873 C 0.87245 0.89724 0.66663 0.0
C874 C 0.90323 0.88959 0.66382 0.0
C875 C 0.93634 0.85358 0.67333 0.0
C876 C 0.93876 0.82538 0.68567 0.0
C877 C 0.90401 0.85947 0.67509 0.0
C878 C 0.90758 0.8018 0.69923 0.0
C879 C 0.87458 0.8067 0.70064 0.0
H880 H 0.18543 0.09836 0.70496 0.0
H881 H 0.14434 0.08481 0.64126 0.0
H882 H 0.12085 0.01447 0.64261 0.0
H883 H 0.10858 0.95602 0.66245 0.0
H884 H 0.15427 0.96915 0.72497 0.0
H885 H 0.17922 0.0403 0.7237 0.0
C886 C 0.17188 0.08 0.69132 0.0
C887 C 0.1664 0.09661 0.67309 0.0
C888 C 0.15878 0.03947 0.69211 0.0
C889 C 0.14895 0.07268 0.65546 0.0
C890 C 0.13525 0.03239 0.65625 0.0
C891 C 0.12399 0.97461 0.67576 0.0
C892 C 0.12907 0.95771 0.6939 0.0
C893 C 0.13933 0.01537 0.6746 0.0
C894 C 0.14985 0.98182 0.71092 0.0
C895 C 0.16411 0.02238 0.71017 0.0
H896 H 0.91013 0.03399 0.65833 0.0
H897 H 0.87654 0.09078 0.70522 0.0
H898 H 0.94511 0.14512 0.70735 0.0
H899 H 0.01526 0.1749 0.6965 0.0
H900 H 0.0481 0.11252 0.65264 0.0
H901 H 0.97914 0.06163 0.64874 0.0
C902 C 0.9177 0.05853 0.66884 0.0
C903 C 0.88838 0.0589 0.68134 0.0
C904 C 0.95711 0.08834 0.67063 0.0
C905 C 0.89868 0.09023 0.69529 0.0
C906 C 0.93784 0.1211 0.69655 0.0
C907 C 0.00713 0.15016 0.68608 0.0
C908 C 0.03658 0.14742 0.67479 0.0
C909 C 0.9674 0.12026 0.68441 0.0
C910 C 0.02593 0.11507 0.66154 0.0
C911 C 0.98653 0.08609 0.65924 0.0
H912 H 0.80463 0.3831 0.55202 0.0
H913 H 0.89859 0.43997 0.50713 0.0
H914 H 0.88723 0.49601 0.50548 0.0
H915 H 0.8451 0.52485 0.51387 0.0
H916 H 0.74663 0.46281 0.55574 0.0
H917 H 0.76505 0.41271 0.56151 0.0
C918 C 0.82317 0.40812 0.54218 0.0
C919 C 0.85239 0.40756 0.52972 0.0
C920 C 0.81513 0.43898 0.54054 0.0
C921 C 0.87596 0.43992 0.5169 0.0
C922 C 0.86927 0.47176 0.51585 0.0
C923 C 0.82811 0.50056 0.52443 0.0
C924 C 0.79445 0.49721 0.53427 0.0
C925 C 0.83809 0.47102 0.52712 0.0
C926 C 0.77238 0.46561 0.54782 0.0
C927 C 0.78295 0.43706 0.55118 0.0
H928 H 0.52459 0.29796 0.5466 0.0
H929 H 0.45728 0.31785 0.49994 0.0
H930 H 0.50598 0.3884 0.49988 0.0
H931 H 0.57121 0.44296 0.51082 0.0
H932 H 0.63605 0.42244 0.55886 0.0
H933 H 0.5845 0.35361 0.56095 0.0
C934 C 0.52048 0.31792 0.5366 0.0
C935 C 0.48805 0.30307 0.52305 0.0
C936 C 0.54812 0.35816 0.5369 0.0
C937 C 0.4823 0.32895 0.51043 0.0
C938 C 0.51015 0.36912 0.51035 0.0
C939 C 0.57359 0.42347 0.52196 0.0
C940 C 0.60747 0.4374 0.53444 0.0
C941 C 0.54368 0.38389 0.52317 0.0
C942 C 0.61025 0.4122 0.54901 0.0
C943 C 0.58091 0.37283 0.55015 0.0
H944 H 0.58546 0.23292 0.49685 0.0
H945 H 0.53771 0.12651 0.5332 0.0
H946 H 0.60425 0.13637 0.53801 0.0
H947 H 0.67612 0.17663 0.53247 0.0
H948 H 0.72256 0.28474 0.49738 0.0
H949 H 0.65618 0.27291 0.49163 0.0
C950 C 0.58954 0.21168 0.5057 0.0
C951 C 0.55693 0.17892 0.51455 0.0
C952 C 0.62761 0.21807 0.50876 0.0
C953 C 0.56255 0.15185 0.52617 0.0
C954 C 0.60052 0.15758 0.52896 0.0
C955 C 0.6717 0.19755 0.52354 0.0
C956 C 0.70433 0.23155 0.5154 0.0
C957 C 0.63331 0.1908 0.52043 0.0
C958 C 0.69808 0.25847 0.50396 0.0
C959 C 0.6601 0.25169 0.50057 0.0
H960 H 0.85768 0.49716 0.67929 0.0
H961 H 0.80425 0.41101 0.72826 0.0
H962 H 0.75367 0.42926 0.73316 0.0
H963 H 0.72146 0.46469 0.72148 0.0
H964 H 0.76887 0.54593 0.67 0.0
H965 H 0.82554 0.53517 0.66816 0.0
C966 C 0.83523 0.48301 0.69122 0.0
C967 C 0.83441 0.45293 0.70349 0.0
C968 C 0.80526 0.49258 0.69334 0.0
C969 C 0.80512 0.43417 0.71869 0.0
C970 C 0.77629 0.44456 0.72146 0.0
C971 C 0.7444 0.48047 0.70998 0.0
C972 C 0.74112 0.50596 0.69585 0.0
C973 C 0.77558 0.47297 0.70856 0.0
C974 C 0.77097 0.5262 0.68105 0.0
C975 C 0.80315 0.51988 0.67996 0.0
H976 H 0.54444 0.24049 0.71009 0.0
H977 H 0.44471 0.20372 0.66917 0.0
H978 H 0.4601 0.27233 0.66578 0.0
H979 H 0.50364 0.34317 0.67376 0.0
H980 H 0.60671 0.37887 0.71213 0.0
H981 H 0.58856 0.31032 0.71705 0.0
C982 C 0.52576 0.24744 0.70063 0.0
C983 C 0.49315 0.21721 0.69015 0.0
C984 C 0.53575 0.28682 0.69811 0.0
C985 C 0.46975 0.22661 0.67754 0.0
C986 C 0.47867 0.26579 0.67554 0.0
C987 C 0.52206 0.33586 0.68319 0.0
C988 C 0.5565 0.36611 0.69256 0.0
C989 C 0.51187 0.29622 0.68561 0.0
C990 C 0.58026 0.35623 0.7046 0.0
C991 C 0.56979 0.317 0.70753 0.0
H992 H 0.74511 0.28052 0.71364 0.0
H993 H 0.78982 0.23685 0.66518 0.0
H994 H 0.72273 0.18243 0.65825 0.0
H995 H 0.6505 0.14891 0.66542 0.0
H996 H 0.60807 0.1979 0.71251 0.0
H997 H 0.67501 0.24863 0.7204 0.0
C998 C 0.7403 0.2589 0.70168 0.0
C999 C 0.77226 0.26238 0.69006 0.0
C1000 C 0.7019 0.22882 0.6974 0.0
C1001 C 0.76556 0.2345 0.67442 0.0
C1002 C 0.72723 0.20355 0.67042 0.0
C1003 C 0.65606 0.17069 0.6774 0.0
C1004 C 0.62423 0.16966 0.68825 0.0
C1005 C 0.69502 0.20064 0.6817 0.0
C1006 C 0.63186 0.19817 0.70371 0.0
C1007 C 0.67021 0.22718 0.70836 0.0
H1008 H 0.49865 0.15457 0.15858 0.0
H1009 H 0.5474 0.17046 0.22057 0.0
H1010 H 0.52715 0.21869 0.22861 0.0
H1011 H 0.5012 0.26031 0.21708 0.0
H1012 H 0.45661 0.2494 0.15436 0.0
H1013 H 0.46887 0.19483 0.1475 0.0
C1014 C 0.50432 0.16846 0.17385 0.0
C1015 C 0.52448 0.15946 0.18901 0.0
C1016 C 0.49339 0.19694 0.17816 0.0
C1017 C 0.53205 0.17741 0.20874 0.0
C1018 C 0.52047 0.20485 0.21332 0.0
C1019 C 0.49354 0.24556 0.20201 0.0
C1020 C 0.47811 0.25875 0.18624 0.0
C1021 C 0.50189 0.2154 0.19803 0.0
C1022 C 0.46835 0.2395 0.16678 0.0
C1023 C 0.47565 0.20856 0.16281 0.0
H1024 H 0.79182 0.36726 0.20723 0.0
H1025 H 0.85612 0.34419 0.15988 0.0
H1026 H 0.80674 0.27387 0.16066 0.0
H1027 H 0.74337 0.21939 0.17399 0.0
H1028 H 0.68238 0.24339 0.22297 0.0
H1029 H 0.73248 0.31286 0.2225 0.0
C1030 C 0.79501 0.34681 0.19708 0.0
C1031 C 0.82712 0.36079 0.1833 0.0
C1032 C 0.76715 0.30661 0.19797 0.0
C1033 C 0.83146 0.33399 0.17055 0.0
C1034 C 0.80324 0.29387 0.17099 0.0
C1035 C 0.74143 0.23986 0.18469 0.0
C1036 C 0.70922 0.22643 0.19842 0.0
C1037 C 0.77073 0.27988 0.18452 0.0
C1038 C 0.70698 0.25306 0.21229 0.0
C1039 C 0.7355 0.29282 0.21197 0.0
H1040 H 0.74708 0.44441 0.21082 0.0
H1041 H 0.78745 0.53904 0.16631 0.0
H1042 H 0.7207 0.52972 0.1642 0.0
H1043 H 0.65014 0.4919 0.17383 0.0
H1044 H 0.61025 0.39349 0.2159 0.0
H1045 H 0.67774 0.40699 0.22022 0.0
C1046 C 0.74135 0.46327 0.20081 0.0
C1047 C 0.77187 0.49248 0.18883 0.0
C1048 C 0.70303 0.45683 0.19918 0.0
C1049 C 0.76417 0.51643 0.1757 0.0
C1050 C 0.72612 0.51103 0.17448 0.0
C1051 C 0.65645 0.47373 0.18406 0.0
C1052 C 0.62553 0.44181 0.19456 0.0
C1053 C 0.69521 0.48095 0.18597 0.0
C1054 C 0.63371 0.41806 0.20758 0.0
C1055 C 0.67221 0.4258 0.21009 0.0
H1056 H 0.62928 0.21872 0.9921 0.0
H1057 H 0.57054 0.11924 0.0334 0.0
H1058 H 0.51217 0.12708 0.03398 0.0
H1059 H 0.48016 0.16558 0.02456 0.0
H1060 H 0.54281 0.26877 0.98608 0.0
H1061 H 0.59747 0.256 0.9823 0.0
C1062 C 0.60355 0.19852 1.00107 0.0
C1063 C 0.60392 0.16847 1.01267 0.0
C1064 C 0.57097 0.20397 1.0018 0.0
C1065 C 0.57068 0.14262 0.02437 0.0
C1066 C 0.53744 0.14712 0.0247 0.0
C1067 C 0.50558 0.18475 1.0151 0.0
C1068 C 0.50772 0.21788 1.0055 0.0
C1069 C 0.53752 0.17809 1.01371 0.0
C1070 C 0.54084 0.24311 0.99357 0.0
C1071 C 0.57201 0.23588 0.99145 0.0
H1072 H 0.83777 0.31789 1.00664 0.0
H1073 H 0.7461 0.28144 0.05294 0.0
H1074 H 0.76236 0.34958 0.05817 0.0
H1075 H 0.79772 0.41805 0.04715 0.0
H1076 H 0.88428 0.45474 0.99801 0.0
H1077 H 0.87559 0.38832 0.99643 0.0
C1078 C 0.82194 0.3252 1.01807 0.0
C1079 C 0.79086 0.29502 0.02943 0.0
C1080 C 0.83041 0.36438 1.02036 0.0
C1081 C 0.77003 0.3044 0.04401 0.0
C1082 C 0.7793 0.34326 0.04699 0.0
C1083 C 0.81517 0.4117 0.03632 0.0
C1084 C 0.84156 0.44107 0.0227 0.0
C1085 C 0.80872 0.3733 0.0349 0.0
C1086 C 0.86379 0.43245 1.00865 0.0
C1087 C 0.85867 0.39449 1.00769 0.0
H1088 H 0.57055 0.38124 0.98683 0.0
H1089 H 0.53587 0.42753 0.0387 0.0
H1090 H 0.6043 0.48105 0.04287 0.0
H1091 H 0.67494 0.51156 0.03318 0.0
H1092 H 0.70908 0.45893 0.98415 0.0
H1093 H 0.63998 0.41082 0.97743 0.0
C1094 C 0.57783 0.40347 0.99881 0.0
C1095 C 0.54824 0.40092 1.01226 0.0
C1096 C 0.61727 0.43264 1.00175 0.0
C1097 C 0.55819 0.42927 0.02804 0.0
C1098 C 0.59729 0.45964 0.03048 0.0
C1099 C 0.66706 0.48971 0.02093 0.0
C1100 C 0.69691 0.48872 1.00912 0.0
C1101 C 0.62724 0.46118 1.01767 0.0
C1102 C 0.68655 0.46003 0.99348 0.0
C1103 C 0.64709 0.43264 0.9896 0.0
H1104 H 0.50213 0.84513 0.86414 0.0
H1105 H 0.40863 0.79116 0.81859 0.0
H1106 H 0.42222 0.73741 0.81381 0.0
H1107 H 0.45727 0.70372 0.82412 0.0
H1108 H 0.54692 0.75312 0.87183 0.0
H1109 H 0.53861 0.8111 0.87418 0.0
C1110 C 0.48519 0.82179 0.85299 0.0
C1111 C 0.45449 0.82193 0.8417 0.0
C1112 C 0.49234 0.79025 0.85083 0.0
C1113 C 0.43227 0.79143 0.82751 0.0
C1114 C 0.44002 0.76076 0.82476 0.0
C1115 C 0.47532 0.72735 0.83491 0.0
C1116 C 0.5027 0.7244 0.84776 0.0
C1117 C 0.46947 0.75956 0.83658 0.0
C1118 C 0.5257 0.75498 0.86176 0.0
C1119 C 0.52086 0.78796 0.86313 0.0
H1120 H 0.15191 0.648 0.84052 0.0
H1121 H 0.22326 0.61075 0.8739 0.0
H1122 H 0.27702 0.67861 0.87594 0.0
H1123 H 0.30443 0.74815 0.8678 0.0
H1124 H 0.23683 0.78621 0.83171 0.0
H1125 H 0.18075 0.71856 0.83126 0.0
C1126 C 0.17923 0.65487 0.84826 0.0
C1127 C 0.18357 0.62438 0.85707 0.0
C1128 C 0.21058 0.69405 0.84893 0.0
C1129 C 0.21925 0.63359 0.86687 0.0
C1130 C 0.24998 0.67242 0.86813 0.0
C1131 C 0.27729 0.74171 0.85997 0.0
C1132 C 0.27448 0.77204 0.84999 0.0
C1133 C 0.24602 0.70281 0.85917 0.0
C1134 C 0.23948 0.76325 0.83959 0.0
C1135 C 0.20754 0.72461 0.8393 0.0
H1136 H 0.34422 0.48991 0.87012 0.0
H1137 H 0.3803 0.57394 0.8198 0.0
H1138 H 0.31205 0.55584 0.81342 0.0
H1139 H 0.24351 0.52057 0.82367 0.0
H1140 H 0.20585 0.44111 0.87605 0.0
H1141 H 0.27315 0.45224 0.87993 0.0
C1142 C 0.33687 0.50383 0.85766 0.0
C1143 C 0.36708 0.53336 0.8455 0.0
C1144 C 0.29743 0.4941 0.85448 0.0
C1145 C 0.35749 0.55148 0.82949 0.0
C1146 C 0.31851 0.54106 0.82578 0.0
C1147 C 0.2498 0.5052 0.8358 0.0
C1148 C 0.21992 0.4801 0.84957 0.0
C1149 C 0.28845 0.51304 0.83841 0.0
C1150 C 0.2285 0.46049 0.86522 0.0
C1151 C 0.26697 0.46708 0.8675 0.0
H1152 H 0.5078 0.82646 1.00837 0.0
H1153 H 0.4532 0.73884 0.05661 0.0
H1154 H 0.40176 0.75606 0.06087 0.0
H1155 H 0.37007 0.79299 0.04968 0.0
H1156 H 0.41986 0.87628 0.99924 0.0
H1157 H 0.47561 0.86424 0.99715 0.0
C1158 C 0.48482 0.81148 1.01994 0.0
C1159 C 0.48434 0.78141 0.03219 0.0
C1160 C 0.45449 0.82077 0.02189 0.0
C1161 C 0.45412 0.76189 0.04693 0.0
C1162 C 0.42473 0.77178 0.0494 0.0
C1163 C 0.39339 0.80896 0.0384 0.0
C1164 C 0.39108 0.83578 0.02476 0.0
C1165 C 0.42432 0.80076 0.0368 0.0
C1166 C 0.42119 0.85574 1.01002 0.0
C1167 C 0.45292 0.84869 1.00878 0.0
H1168 H 0.24505 0.70451 0.03957 0.0
H1169 H 0.15228 0.68033 0.99563 0.0
H1170 H 0.12972 0.60979 0.99726 0.0
H1171 H 0.13774 0.55511 1.01077 0.0
H1172 H 0.22773 0.5801 0.05682 0.0
H1173 H 0.24982 0.65008 0.05496 0.0
C1174 C 0.21996 0.68372 0.03032 0.0
C1175 C 0.20063 0.69735 1.0173 0.0
C1176 C 0.20656 0.64339 0.03183 0.0
C1177 C 0.16765 0.67029 1.00571 0.0
C1178 C 0.15478 0.63005 1.00664 0.0
C1179 C 0.1619 0.57595 0.0205 0.0
C1180 C 0.1812 0.56264 0.03383 0.0
C1181 C 0.17413 0.61625 1.0196 0.0
C1182 C 0.21235 0.58972 0.04647 0.0
C1183 C 0.22516 0.62976 0.04535 0.0
H1184 H 0.3185 0.47268 0.04272 0.0
H1185 H 0.2797 0.52397 0.99551 0.0
H1186 H 0.34737 0.57632 0.98974 0.0
H1187 H 0.41602 0.61101 1.00044 0.0
H1188 H 0.45564 0.56487 0.04995 0.0
H1189 H 0.38957 0.50672 0.05239 0.0
C1190 C 0.32524 0.49509 0.03101 0.0
C1191 C 0.29455 0.49485 1.01956 0.0
C1192 C 0.36422 0.52603 0.0283 0.0
C1193 C 0.30311 0.52399 1.00454 0.0
C1194 C 0.3417 0.55384 1.00124 0.0
C1195 C 0.41038 0.58794 1.01156 0.0
C1196 C 0.44041 0.59212 0.02504 0.0
C1197 C 0.37228 0.55569 1.01337 0.0
C1198 C 0.43279 0.56215 0.03941 0.0
C1199 C 0.39502 0.52906 0.04087 0.0
H1200 H 0.19784 0.51241 0.54431 0.0
H1201 H 0.16203 0.48317 0.48006 0.0
H1202 H 0.13925 0.53117 0.47948 0.0
H1203 H 0.13389 0.58488 0.49684 0.0
H1204 H 0.16508 0.60974 0.56201 0.0
H1205 H 0.1845 0.55961 0.56284 0.0
C1206 C 0.18477 0.51647 0.53027 0.0
C1207 C 0.18203 0.49494 0.51217 0.0
C1208 C 0.17075 0.54317 0.53028 0.0
C1209 C 0.16449 0.49971 0.49413 0.0
C1210 C 0.15153 0.52712 0.49381 0.0
C1211 C 0.14418 0.57868 0.5113 0.0
C1212 C 0.14828 0.60112 0.5293 0.0
C1213 C 0.15501 0.54944 0.51173 0.0
C1214 C 0.16157 0.59281 0.54795 0.0
C1215 C 0.17298 0.56434 0.54841 0.0
H1216 H 0.44854 0.70106 0.54298 0.0
H1217 H 0.52247 0.68188 0.50019 0.0
H1218 H 0.47249 0.61216 0.49744 0.0
H1219 H 0.40605 0.55701 0.5062 0.0
H1220 H 0.33479 0.57661 0.55074 0.0
H1221 H 0.38533 0.64558 0.55385 0.0
C1222 C 0.45374 0.68156 0.53312 0.0
C1223 C 0.48886 0.69655 0.52167 0.0
C1224 C 0.42528 0.64155 0.53189 0.0
C1225 C 0.49557 0.67092 0.50919 0.0
C1226 C 0.46697 0.63111 0.50755 0.0
C1227 C 0.40188 0.57644 0.51666 0.0
C1228 C 0.36675 0.56193 0.52811 0.0
C1229 C 0.43148 0.61614 0.51867 0.0
C1230 C 0.36166 0.58716 0.54177 0.0
C1231 C 0.39047 0.62664 0.54352 0.0
H1232 H 0.40976 0.78794 0.55261 0.0
H1233 H 0.45182 0.87679 0.50471 0.0
H1234 H 0.38633 0.87023 0.50218 0.0
H1235 H 0.31551 0.83498 0.5117 0.0
H1236 H 0.27333 0.74182 0.55719 0.0
H1237 H 0.34033 0.75447 0.56279 0.0
C1238 C 0.40469 0.80622 0.54182 0.0
C1239 C 0.43543 0.83284 0.5289 0.0
C1240 C 0.36683 0.80137 0.54001 0.0
C1241 C 0.42848 0.8561 0.51482 0.0
C1242 C 0.39106 0.85229 0.51336 0.0
C1243 C 0.3213 0.81807 0.52309 0.0
C1244 C 0.28978 0.78769 0.53413 0.0
C1245 C 0.35979 0.82449 0.52561 0.0
C1246 C 0.29728 0.76536 0.54856 0.0
C1247 C 0.33551 0.77251 0.55172 0.0
H1248 H 0.19011 0.57459 0.32738 0.0
H1249 H 0.12632 0.48244 0.37229 0.0
H1250 H 0.17653 0.46272 0.36999 0.0
H1251 H 0.24088 0.47444 0.35642 0.0
H1252 H 0.30194 0.56529 0.31037 0.0
H1253 H 0.25041 0.58255 0.31181 0.0
C1254 C 0.18716 0.55012 0.33663 0.0
C1255 C 0.15499 0.53032 0.35016 0.0
C1256 C 0.21566 0.53871 0.33501 0.0
C1257 C 0.15102 0.49819 0.36177 0.0
C1258 C 0.17973 0.48698 0.36051 0.0
C1259 C 0.24251 0.49765 0.34657 0.0
C1260 C 0.27519 0.51874 0.33343 0.0
C1261 C 0.21248 0.50737 0.34735 0.0
C1262 C 0.27706 0.54867 0.32065 0.0
C1263 C 0.24769 0.5587 0.32149 0.0
H1264 H 0.43143 0.63566 0.32019 0.0
H1265 H 0.50288 0.65017 0.37432 0.0
H1266 H 0.52331 0.72044 0.37588 0.0
H1267 H 0.51574 0.77623 0.36328 0.0
H1268 H 0.445 0.75986 0.3084 0.0
H1269 H 0.42964 0.69184 0.30556 0.0
C1270 C 0.45172 0.65432 0.33225 0.0
C1271 C 0.4652 0.63797 0.34732 0.0
C1272 C 0.46332 0.69424 0.33291 0.0
C1273 C 0.49209 0.66235 0.36261 0.0
C1274 C 0.50358 0.70237 0.36353 0.0
C1275 C 0.49747 0.75781 0.35057 0.0
C1276 C 0.48113 0.77278 0.33621 0.0
C1277 C 0.48868 0.71846 0.34899 0.0
C1278 C 0.4577 0.74888 0.31971 0.0
C1279 C 0.44879 0.70995 0.31809 0.0
H1280 H 0.21282 0.74321 0.3728 0.0
H1281 H 0.22647 0.6908 0.31628 0.0
H1282 H 0.29608 0.74018 0.31481 0.0
H1283 H 0.35384 0.79644 0.3302 0.0
H1284 H 0.34109 0.85261 0.3853 0.0
H1285 H 0.27055 0.80385 0.38673 0.0
C1286 C 0.23105 0.74299 0.36008 0.0
C1287 C 0.21459 0.71331 0.34473 0.0
C1288 C 0.27127 0.77195 0.35916 0.0
C1289 C 0.23841 0.71336 0.32827 0.0
C1290 C 0.2783 0.74149 0.32745 0.0
C1291 C 0.3356 0.79799 0.34253 0.0
C1292 C 0.35262 0.82764 0.35778 0.0
C1293 C 0.29515 0.77055 0.34294 0.0
C1294 C 0.32857 0.82988 0.37342 0.0
C1295 C 0.28829 0.802 0.37424 0.0
H1296 H 0.25939 0.37085 0.18174 0.0
H1297 H 0.24773 0.30498 0.23781 0.0
H1298 H 0.31737 0.32474 0.23626 0.0
H1299 H 0.38027 0.35633 0.21743 0.0
H1300 H 0.39388 0.42526 0.16254 0.0
H1301 H 0.32471 0.40869 0.16499 0.0
C1302 C 0.27237 0.36147 0.19378 0.0
C1303 C 0.24859 0.33629 0.20974 0.0
C1304 C 0.3125 0.37295 0.1928 0.0
C1305 C 0.26556 0.32436 0.22534 0.0
C1306 C 0.30528 0.3354 0.2244 0.0
C1307 C 0.3679 0.36766 0.20607 0.0
C1308 C 0.39132 0.39121 0.18963 0.0
C1309 C 0.32873 0.35883 0.20792 0.0
C1310 C 0.37583 0.40674 0.17521 0.0
C1311 C 0.33647 0.39732 0.17663 0.0
H1312 H 0.57785 0.96113 0.16988 0.0
H1313 H 0.65915 0.04656 0.21401 0.0
H1314 H 0.68764 0.00518 0.22106 0.0
H1315 H 0.69218 0.94662 0.21359 0.0
H1316 H 0.6152 0.86273 0.16775 0.0
H1317 H 0.58201 0.90108 0.16266 0.0
C1318 C 0.60166 0.97046 0.18108 0.0
C1319 C 0.61659 0.00704 0.19123 0.0
C1320 C 0.61864 0.94674 0.18482 0.0
C1321 C 0.6475 0.01884 0.20571 0.0
C1322 C 0.66374 0.99511 0.20987 0.0
C1323 C 0.66777 0.93647 0.2027 0.0
C1324 C 0.65592 0.90191 0.19116 0.0
C1325 C 0.6499 0.95928 0.19936 0.0
C1326 C 0.62466 0.88928 0.17687 0.0
C1327 C 0.60583 0.91127 0.1739 0.0
H1328 H 0.05433 0.73932 0.21487 0.0
H1329 H 0.1453 0.73965 0.17679 0.0
H1330 H 0.10385 0.6685 0.17095 0.0
H1331 H 0.03957 0.60704 0.17499 0.0
H1332 H 0.94681 0.61021 0.20977 0.0
H1333 H 0.99089 0.67923 0.21852 0.0
C1334 C 0.06535 0.72367 0.2056 0.0
C1335 C 0.10288 0.74432 0.1965 0.0
C1336 C 0.04072 0.68355 0.20148 0.0
C1337 C 0.11655 0.72405 0.1841 0.0
C1338 C 0.09279 0.68353 0.18067 0.0
C1339 C 0.02925 0.62299 0.18452 0.0
C1340 C 0.9901 0.60386 0.19167 0.0
C1341 C 0.05449 0.6631 0.18897 0.0
C1342 C 0.97675 0.62462 0.20389 0.0
C1343 C 0.00197 0.66395 0.209 0.0
H1344 H 0.2918 0.25322 0.32242 0.0
H1345 H 0.38761 0.25854 0.35812 0.0
H1346 H 0.41847 0.33033 0.36053 0.0
H1347 H 0.41591 0.39081 0.35408 0.0
H1348 H 0.31679 0.38397 0.3209 0.0
H1349 H 0.28918 0.31328 0.31602 0.0
C1350 C 0.31973 0.2702 0.33046 0.0
C1351 C 0.33774 0.25097 0.33992 0.0
C1352 C 0.33631 0.31098 0.33245 0.0
C1353 C 0.37348 0.273 0.35064 0.0
C1354 C 0.39096 0.31389 0.35208 0.0
C1355 C 0.38837 0.37383 0.34569 0.0
C1356 C 0.36834 0.39248 0.33789 0.0
C1357 C 0.37228 0.3331 0.34332 0.0
C1358 C 0.33253 0.37017 0.32722 0.0
C1359 C 0.31684 0.32982 0.32433 0.0
H1360 H 0.59863 0.03737 0.36499 0.0
H1361 H 0.60292 0.95042 0.32536 0.0
H1362 H 0.67243 0.99548 0.31812 0.0
H1363 H 0.73269 0.05739 0.32485 0.0
H1364 H 0.7315 0.14205 0.3675 0.0
H1365 H 0.65985 0.1006 0.37149 0.0
C1366 C 0.61488 0.02856 0.35469 0.0
C1367 C 0.59598 0.9907 0.3458 0.0
C1368 C 0.65519 0.05426 0.35107 0.0
C1369 C 0.61714 0.9793 0.33258 0.0
C1370 C 0.65676 0.00509 0.32834 0.0
C1371 C 0.71663 0.06714 0.3347 0.0
C1372 C 0.73701 0.10274 0.34573 0.0
C1373 C 0.67616 0.04237 0.33772 0.0
C1374 C 0.71614 0.11477 0.35876 0.0
C1375 C 0.67534 0.09098 0.36114 0.0
H1376 H 0.87975 0.62997 0.37167 0.0
H1377 H 0.93474 0.70108 0.31717 0.0
H1378 H 0.98635 0.68368 0.31829 0.0
H1379 H 0.01734 0.65012 0.33543 0.0
H1380 H 0.95895 0.57272 0.38723 0.0
H1381 H 0.90771 0.59131 0.38695 0.0
C1382 C 0.90271 0.64107 0.35988 0.0
C1383 C 0.90353 0.66678 0.34441 0.0
C1384 C 0.93212 0.63052 0.36044 0.0
C1385 C 0.93337 0.68104 0.32918 0.0
C1386 C 0.96313 0.67143 0.32991 0.0
C1387 C 0.99347 0.63764 0.34671 0.0
C1388 C 0.99194 0.61071 0.36153 0.0
C1389 C 0.96315 0.64673 0.34566 0.0
C1390 C 0.96062 0.59386 0.37582 0.0
C1391 C 0.93131 0.60427 0.37556 0.0
H1392 H 0.61106 0.57524 0.83809 0.0
H1393 H 0.61518 0.65522 0.88577 0.0
H1394 H 0.68528 0.67912 0.8913 0.0
H1395 H 0.74562 0.68019 0.8811 0.0
H1396 H 0.74437 0.60663 0.83054 0.0
H1397 H 0.67247 0.57641 0.82778 0.0
C1398 C 0.62744 0.59772 0.84975 0.0
C1399 C 0.60845 0.61368 0.8615 0.0
C1400 C 0.66792 0.61215 0.85235 0.0
C1401 C 0.62961 0.64298 0.87644 0.0
C1402 C 0.66949 0.65644 0.87967 0.0
C1403 C 0.72953 0.65706 0.86971 0.0
C1404 C 0.74988 0.64528 0.85613 0.0
C1405 C 0.68897 0.64159 0.86754 0.0
C1406 C 0.72899 0.61584 0.8412 0.0
C1407 C 0.68808 0.59883 0.83956 0.0
H1408 H 0.36853 0.10779 0.86278 0.0
H1409 H 0.28689 0.03956 0.81376 0.0
H1410 H 0.30761 0.99072 0.8159 0.0
H1411 H 0.34654 0.96575 0.83248 0.0
H1412 H 0.43163 0.03428 0.8799 0.0
H1413 H 0.41205 0.08472 0.8777 0.0
C1414 C 0.35574 0.08244 0.85245 0.0
C1415 C 0.3261 0.0771 0.83823 0.0
C1416 C 0.36804 0.05437 0.85364 0.0
C1417 C 0.30974 0.04427 0.82485 0.0
C1418 C 0.32141 0.0162 0.82611 0.0
C1419 C 0.3606 0.99165 0.84243 0.0
C1420 C 0.38975 0.99611 0.85664 0.0
C1421 C 0.35001 0.02064 0.84064 0.0
C1422 C 0.40875 0.03022 0.869 0.0
C1423 C 0.3976 0.05898 0.86771 0.0
H1424 H 0.88805 0.25976 0.86819 0.0
H1425 H 0.91009 0.25186 0.80275 0.0
H1426 H 0.96138 0.32117 0.80266 0.0
H1427 H 0.00456 0.38221 0.82217 0.0
H1428 H 0.98202 0.39031 0.88738 0.0
H1429 H 0.9267 0.32256 0.88679 0.0
C1430 C 0.90347 0.2735 0.85382 0.0
C1431 C 0.89556 0.25085 0.83554 0.0
C1432 C 0.93351 0.31304 0.85401 0.0
C1433 C 0.91575 0.26884 0.81702 0.0
C1434 C 0.94533 0.30832 0.81699 0.0
C1435 C 0.98742 0.36885 0.83618 0.0
C1436 C -0.00247 0.39021 0.85493 0.0
C1437 C 0.95533 0.33031 0.83556 0.0
C1438 C 0.97488 0.37363 0.87294 0.0
C1439 C 0.94322 0.33515 0.87255 0.0
H1440 H 0.58362 0.60721 0.70722 0.0
H1441 H 0.66112 0.61281 0.65772 0.0
H1442 H 0.68433 0.68268 0.6529 0.0
H1443 H 0.6862 0.74299 0.66433 0.0
H1444 H 0.61406 0.73999 0.716 0.0
H1445 H 0.58467 0.66833 0.71831 0.0
C1446 C 0.60525 0.6238 0.69527 0.0
C1447 C 0.6208 0.60515 0.68287 0.0
C1448 C 0.6194 0.66436 0.69302 0.0
C1449 C 0.64909 0.62679 0.66756 0.0
C1450 C 0.66227 0.66666 0.66476 0.0
C1451 C 0.66359 0.72655 0.67588 0.0
C1452 C 0.65209 0.7465 0.68991 0.0
C1453 C 0.64814 0.68586 0.67761 0.0
C1454 C 0.62321 0.72506 0.705 0.0
C1455 C 0.60657 0.68419 0.70637 0.0
H1456 H 0.37758 0.00995 0.71286 0.0
H1457 H 0.38522 0.96725 0.65194 0.0
H1458 H 0.31686 0.91323 0.65483 0.0
H1459 H 0.25429 0.88012 0.67433 0.0
H1460 H 0.24805 0.92162 0.73599 0.0
H1461 H 0.31689 0.97358 0.73353 0.0
C1462 C 0.36395 0.98884 0.70023 0.0
C1463 C 0.38542 0.99264 0.68202 0.0
C1464 C 0.32531 0.95747 0.70231 0.0
C1465 C 0.3685 0.96484 0.66592 0.0
C1466 C 0.32968 0.93399 0.66763 0.0
C1467 C 0.26829 0.90013 0.68735 0.0
C1468 C 0.24627 0.89727 0.70526 0.0
C1469 C 0.30774 0.93015 0.68573 0.0
C1470 C 0.26456 0.92329 0.72205 0.0
C1471 C 0.30377 0.9532 0.72059 0.0
H1472 H 0.03647 0.41082 0.70386 0.0
H1473 H 0.9521 0.32424 0.66129 0.0
H1474 H -0.00218 0.3007 0.65345 0.0
H1475 H 0.05999 0.3026 0.6599 0.0
H1476 H 0.14192 0.38361 0.70523 0.0
H1477 H 0.09937 0.4123 0.71055 0.0
C1478 C 0.0283 0.38688 0.69284 0.0
C1479 C 0.99107 0.36905 0.68322 0.0
C1480 C 0.05436 0.37287 0.68882 0.0
C1481 C 0.98047 0.33795 0.66908 0.0
C1482 C 0.00665 0.3247 0.66449 0.0
C1483 C 0.06888 0.32701 0.67068 0.0
C1484 C 0.1041 0.34141 0.68201 0.0
C1485 C 0.04347 0.34173 0.67438 0.0
C1486 C 0.11498 0.37242 0.69625 0.0
C1487 C 0.09058 0.38855 0.69937 0.0
H1488 H 0.9118 0.64655 0.49372 0.0
H1489 H 0.92164 0.73416 0.53795 0.0
H1490 H 0.99369 0.76446 0.53761 0.0
H1491 H 0.05313 0.76192 0.52712 0.0
H1492 H 0.04138 0.66893 0.48636 0.0
H1493 H 0.97066 0.6446 0.48288 0.0
C1494 C 0.92976 0.67273 0.503 0.0
C1495 C 0.91163 0.6884 0.51574 0.0
C1496 C 0.97071 0.68859 0.50349 0.0
C1497 C 0.9351 0.72183 0.52796 0.0
C1498 C 0.97618 0.73895 0.52783 0.0
C1499 C 0.03504 0.73667 0.51727 0.0
C1500 C 0.05215 0.71718 0.50693 0.0
C1501 C 0.99422 0.722 0.51603 0.0
C1502 C 0.02859 0.68415 0.49449 0.0
C1503 C 0.98828 0.67033 0.49249 0.0
H1504 H 0.29762 0.23241 0.49791 0.0
H1505 H 0.32222 0.25034 0.56399 0.0
H1506 H 0.30515 0.30238 0.56426 0.0
H1507 H 0.2858 0.34485 0.54525 0.0
H1508 H 0.25922 0.32525 0.47952 0.0
H1509 H 0.27543 0.27258 0.47933 0.0
C1510 C 0.29858 0.24727 0.51242 0.0
C1511 C 0.311 0.23755 0.53091 0.0
C1512 C 0.28952 0.27767 0.51235 0.0
C1513 C 0.3125 0.25724 0.54958 0.0
C1514 C 0.30313 0.28724 0.5497 0.0
C1515 C 0.28436 0.32939 0.53088 0.0
C1516 C 0.27312 0.33973 0.51223 0.0
C1517 C 0.29238 0.29825 0.5311 0.0
C1518 C 0.26949 0.31865 0.49383 0.0
C1519 C 0.27815 0.28821 0.4938 0.0
H1520 H 0.62965 0.95688 0.49781 0.0
H1521 H 0.68413 0.93086 0.54911 0.0
H1522 H 0.73244 0.00075 0.55315 0.0
H1523 H 0.75857 0.06943 0.54231 0.0
H1524 H 0.7073 0.095 0.48929 0.0
H1525 H 0.65862 0.02522 0.48547 0.0
C1526 C 0.65213 0.96674 0.50985 0.0
C1527 C 0.65342 0.93924 0.52325 0.0
C1528 C 0.68044 0.00675 0.51167 0.0
C1529 C 0.68285 0.95184 0.53863 0.0
C1530 C 0.71038 0.99168 0.54095 0.0
C1531 C 0.73685 0.05956 0.52987 0.0
C1532 C 0.73621 0.08703 0.51617 0.0
C1533 C 0.70943 0.0194 0.52757 0.0
C1534 C 0.70827 0.07415 0.49999 0.0
C1535 C 0.68036 0.03435 0.49785 0.0
H1536 H 0.09104 0.7112 0.70499 0.0
H1537 H 0.99318 0.70583 0.67118 0.0
H1538 H 0.96708 0.63611 0.6642 0.0
H1539 H 0.97057 0.57647 0.66857 0.0
H1540 H 0.06385 0.57839 0.70512 0.0
H1541 H 0.09372 0.64984 0.71 0.0
C1542 C 0.06406 0.69462 0.69609 0.0
C1543 C 0.04391 0.71343 0.68868 0.0
C1544 C 0.04862 0.65414 0.69255 0.0
C1545 C 0.0089 0.6918 0.67726 0.0
C1546 C 0.99408 0.65202 0.67315 0.0
C1547 C -0.00226 0.59259 0.67739 0.0
C1548 C 0.01536 0.57254 0.68628 0.0
C1549 C 0.01354 0.63291 0.68081 0.0
C1550 C 0.05005 0.5935 0.69802 0.0
C1551 C 0.06695 0.6342 0.70087 0.0
H1552 H 0.29593 0.2938 0.70248 0.0
H1553 H 0.26967 0.35935 0.65769 0.0
H1554 H 0.33862 0.41153 0.65754 0.0
H1555 H 0.40713 0.43794 0.66961 0.0
H1556 H 0.4318 0.3758 0.71727 0.0
H1557 H 0.36294 0.32342 0.71718 0.0
C1558 C 0.30546 0.31948 0.69266 0.0
C1559 C 0.2781 0.32233 0.67972 0.0
C1560 C 0.34484 0.35022 0.69336 0.0
C1561 C 0.29042 0.35623 0.66752 0.0
C1562 C 0.3298 0.38617 0.66749 0.0
C1563 C 0.39719 0.41314 0.68013 0.0
C1564 C 0.42438 0.41058 0.69335 0.0
C1565 C 0.35735 0.38344 0.68028 0.0
C1566 C 0.41128 0.37848 0.70702 0.0
C1567 C 0.37197 0.34836 0.70688 0.0
H1568 H 0.64207 0.91581 0.6641 0.0
H1569 H 0.69871 0.98547 0.7189 0.0
H1570 H 0.65244 0.01005 0.71934 0.0
H1571 H 0.59783 0.01393 0.70325 0.0
H1572 H 0.54834 0.95378 0.6451 0.0
H1573 H 0.58984 0.92319 0.64658 0.0
C1574 C 0.64382 0.93604 0.67621 0.0
C1575 C 0.6728 0.94807 0.69182 0.0
C1576 C 0.61863 0.95183 0.6756 0.0
C1577 C 0.67596 0.97523 0.70707 0.0
C1578 C 0.6497 0.98943 0.70724 0.0
C1579 C 0.59595 0.99378 0.69104 0.0
C1580 C 0.5699 0.98539 0.67428 0.0
C1581 C 0.62114 0.97813 0.69151 0.0
C1582 C 0.56818 0.96023 0.6582 0.0
C1583 C 0.59184 0.94286 0.65906 0.0
H1584 H 0.27616 0.8997 0.19402 0.0
H1585 H 0.28176 0.00143 0.16493 0.0
H1586 H 0.35082 0.02632 0.15596 0.0
H1587 H 0.40983 0.02015 0.15711 0.0
H1588 H 0.40733 0.92274 0.18941 0.0
H1589 H 0.33648 0.8945 0.19606 0.0
C1590 C 0.29259 0.92735 0.18575 0.0
C1591 C 0.27397 0.9488 0.18019 0.0
C1592 C 0.33258 0.94187 0.181 0.0
C1593 C 0.29558 0.98466 0.1696 0.0
C1594 C 0.33496 -0.00127 0.16432 0.0
C1595 C 0.39361 0.99234 0.16527 0.0
C1596 C 0.41339 0.973 0.17241 0.0
C1597 C 0.35371 0.97761 0.16995 0.0
C1598 C 0.39241 0.93769 0.18351 0.0
C1599 C 0.35209 0.92181 0.18744 0.0
H1600 H 0.03423 0.43993 0.20295 0.0
H1601 H 0.98164 0.39387 0.1427 0.0
H1602 H -0.00021 0.34288 0.1452 0.0
H1603 H 0.02741 0.30905 0.16544 0.0
H1604 H 0.08272 0.35647 0.22484 0.0
H1605 H 0.06632 0.40902 0.22202 0.0
C1606 C 0.02739 0.41911 0.19024 0.0
C1607 C 0.00661 0.42051 0.1727 0.0
C1608 C 0.03766 0.38969 0.19186 0.0
C1609 C -0.00223 0.39339 0.15634 0.0
C1610 C 0.00782 0.36403 0.15782 0.0
C1611 C 0.03547 0.33082 0.17777 0.0
C1612 C 0.05524 0.32881 0.19552 0.0
C1613 C 0.027 0.36139 0.1757 0.0
C1614 C 0.06683 0.35749 0.21122 0.0
C1615 C 0.05768 0.38751 0.20954 0.0
H1616 H 0.56349 0.59261 0.20153 0.0
H1617 H 0.62085 0.57391 0.14868 0.0
H1618 H 0.67176 0.64303 0.14911 0.0
H1619 H 0.70082 0.70843 0.16481 0.0
H1620 H 0.64211 0.72943 0.21607 0.0
H1621 H 0.591 0.65972 0.21615 0.0
C1622 C 0.58696 0.6039 0.19003 0.0
C1623 C 0.58857 0.57838 0.17514 0.0
C1624 C 0.61609 0.64386 0.19025 0.0
C1625 C 0.61899 0.59313 0.16026 0.0
C1626 C 0.64825 0.63257 0.16056 0.0
C1627 C 0.67703 0.69758 0.17613 0.0
C1628 C 0.67537 0.72353 0.19064 0.0
C1629 C 0.64732 0.65806 0.17561 0.0
C1630 C 0.64394 0.70962 0.20487 0.0
C1631 C 0.61475 0.66992 0.20487 0.0
H1632 H 0.31811 0.95538 0.0377 0.0
H1633 H 0.24533 0.93698 0.98367 0.0
H1634 H 0.2638 0.00664 0.98391 0.0
H1635 H 0.30065 0.07285 0.99988 0.0
H1636 H 0.36814 0.08877 0.05599 0.0
H1637 H 0.35114 0.01997 0.0549 0.0
C1638 C 0.30667 0.96686 0.02591 0.0
C1639 C 0.2811 0.94169 1.01048 0.0
C1640 C 0.31597 0.00629 0.02675 0.0
C1641 C 0.26551 0.95629 0.99553 0.0
C1642 C 0.27587 0.99593 0.99575 0.0
C1643 C 0.3112 0.06103 1.01195 0.0
C1644 C 0.3356 0.08573 0.02795 0.0
C1645 C 0.30091 0.0212 1.01138 0.0
C1646 C 0.34913 0.07021 0.04354 0.0
C1647 C 0.33968 0.03095 0.04287 0.0
H1648 H 0.04819 0.29816 0.04137 0.0
H1649 H 0.04276 0.37719 0.99653 0.0
H1650 H 0.97268 0.33066 0.99068 0.0
H1651 H 0.91252 0.26843 0.99931 0.0
H1652 H 0.91673 0.19347 0.04708 0.0
H1653 H 0.98806 0.23709 0.05062 0.0
C1654 C 0.03163 0.30518 0.03032 0.0
C1655 C 0.05041 0.341 1.01943 0.0
C1656 C 0.99135 0.2788 0.02744 0.0
C1657 C 0.02869 0.34993 1.00525 0.0
C1658 C 0.98878 0.32325 1.00181 0.0
C1659 C 0.92936 0.26139 1.01015 0.0
C1660 C 0.91002 0.22758 0.02261 0.0
C1661 C 0.96979 0.28766 1.01286 0.0
C1662 C 0.93148 0.21915 0.03715 0.0
C1663 C 0.97205 0.24417 0.03926 0.0
H1664 H 0.75906 0.68727 0.04885 0.0
H1665 H 0.74777 0.65741 0.98327 0.0
H1666 H 0.69906 0.67834 0.97908 0.0
H1667 H 0.65658 0.70127 0.99456 0.0
H1668 H 0.6688 0.73301 0.05975 0.0
H1669 H 0.72033 0.71533 0.06373 0.0
C1670 C 0.74636 0.686 0.03361 0.0
C1671 C 0.7567 0.67069 1.01643 0.0
C1672 C 0.7182 0.69788 0.03134 0.0
C1673 C 0.74019 0.66916 0.99672 0.0
C1674 C 0.71217 0.68086 0.99433 0.0
C1675 C 0.67047 0.704 1.00961 0.0
C1676 C 0.65868 0.71735 0.02698 0.0
C1677 C 0.70032 0.69443 1.01162 0.0
C1678 C 0.67738 0.72212 0.04631 0.0
C1679 C 0.70679 0.71217 0.04854 0.0
H1680 H 0.7216 0.09008 0.84095 0.0
H1681 H 0.7204 0.99137 0.87122 0.0
H1682 H 0.65014 0.96261 0.87854 0.0
H1683 H 0.58908 0.96513 0.87613 0.0
H1684 H 0.58801 0.06016 0.84313 0.0
H1685 H 0.65937 0.09125 0.83732 0.0
C1686 C 0.70587 0.06222 0.8491 0.0
C1687 C 0.72613 0.04283 0.85553 0.0
C1688 C 0.66528 0.04551 0.85294 0.0
C1689 C 0.70539 0.00665 0.86593 0.0
C1690 C 0.6653 0.99034 0.87025 0.0
C1691 C 0.60459 0.99294 0.8679 0.0
C1692 C 0.58366 0.01082 0.86037 0.0
C1693 C 0.645 0.00954 0.86388 0.0
C1694 C 0.60376 0.04622 0.84926 0.0
C1695 C 0.64442 0.0638 0.84586 0.0
H1696 H 0.9893 0.69693 0.88324 0.0
H1697 H 0.89841 0.6289 0.83823 0.0
H1698 H 0.91727 0.57807 0.83834 0.0
H1699 H 0.96181 0.55459 0.85024 0.0
H1700 H 0.04999 0.62127 0.89685 0.0
H1701 H 0.02973 0.67078 0.89737 0.0
C1702 C 0.97377 0.67096 0.87346 0.0
C1703 C 0.94307 0.66671 0.86051 0.0
C1704 C 0.98413 0.64159 0.87399 0.0
C1705 C 0.92234 0.63266 0.84824 0.0
C1706 C 0.9331 0.60368 0.8483 0.0
C1707 C 0.97619 0.57976 0.86065 0.0
C1708 C 0.00743 0.58454 0.87336 0.0
C1709 C 0.96419 0.60801 0.86098 0.0
C1710 C 0.0258 0.61705 0.88691 0.0
C1711 C 0.01441 0.64547 0.88715 0.0
H1712 H 0.36038 0.27134 0.86678 0.0
H1713 H 0.30577 0.28166 0.81053 0.0
H1714 H 0.35323 0.35224 0.80908 0.0
H1715 H 0.40608 0.41148 0.82549 0.0
H1716 H 0.45568 0.40304 0.88406 0.0
H1717 H 0.41473 0.33111 0.88295 0.0
C1718 C 0.35952 0.28911 0.85405 0.0
C1719 C 0.33014 0.27175 0.83867 0.0
C1720 C 0.38576 0.32986 0.85386 0.0
C1721 C 0.32837 0.29477 0.82246 0.0
C1722 C 0.35539 0.33498 0.82166 0.0
C1723 C 0.40837 0.39382 0.83784 0.0
C1724 C 0.43382 0.41223 0.85479 0.0
C1725 C 0.38363 0.35293 0.83751 0.0
C1726 C 0.43623 0.38926 0.87085 0.0
C1727 C 0.41278 0.34826 0.87024 0.0
H1728 H 0.62054 0.91291 0.99982 0.0
H1729 H 0.72201 0.9156 0.02758 0.0
H1730 H 0.7548 0.98755 0.03059 0.0
H1731 H 0.75291 0.04936 0.02654 0.0
H1732 H 0.64782 0.04412 1.00206 0.0
H1733 H 0.61793 0.97343 0.99659 0.0
C1734 C 0.65003 0.92934 1.0063 0.0
C1735 C 0.66916 0.90939 1.01326 0.0
C1736 C 0.66777 0.97013 1.00874 0.0
C1737 C 0.70697 0.93067 0.02202 0.0
C1738 C 0.72558 0.97166 0.02379 0.0
C1739 C 0.72353 0.0326 1.01998 0.0
C1740 C 0.70248 0.05169 1.01476 0.0
C1741 C 0.70603 0.99167 1.01742 0.0
C1742 C 0.66434 0.02985 1.00642 0.0
C1743 C 0.64732 0.98952 1.00318 0.0
H1744 H 0.93815 0.69318 1.00609 0.0
H1745 H 0.94976 0.61855 0.05148 0.0
H1746 H 0.02096 0.66376 0.05317 0.0
H1747 H 0.08004 0.72233 0.04025 0.0
H1748 H 0.0695 0.79349 0.9923 0.0
H1749 H -0.00248 0.7521 0.99319 0.0
C1750 C 0.95629 0.68714 1.01652 0.0
C1751 C 0.93894 0.6528 0.02873 0.0
C1752 C -0.00275 0.71258 1.01688 0.0
C1753 C 0.96266 0.64479 0.04191 0.0
C1754 C 0.00326 0.67063 0.04289 0.0
C1755 C 0.06191 0.72906 0.0302 0.0
C1756 C 0.07979 0.76098 1.01633 0.0
C1757 C 0.02089 0.70431 0.03025 0.0
C1758 C 0.05619 0.76909 1.00313 0.0
C1759 C 0.01515 0.7454 1.00361 0.0
H1760 H 0.25849 0.34155 0.04965 0.0
H1761 H 0.19043 0.26764 0.99826 0.0
H1762 H 0.23377 0.23934 0.99626 0.0
H1763 H 0.29457 0.24037 1.00713 0.0
H1764 H 0.36762 0.32138 0.05508 0.0
H1765 H 0.31904 0.34253 0.06054 0.0
C1766 C 0.25275 0.31859 0.03836 0.0
C1767 C 0.22119 0.30603 0.02434 0.0
C1768 C 0.27906 0.30434 0.03654 0.0
C1769 C 0.21446 0.27724 1.00932 0.0
C1770 C 0.23931 0.26132 1.00811 0.0
C1771 C 0.29943 0.26229 1.01892 0.0
C1772 C 0.33421 0.27931 0.03079 0.0
C1773 C 0.27223 0.27535 0.02132 0.0
C1774 C 0.34092 0.30816 0.04577 0.0
C1775 C 0.3132 0.32011 0.04891 0.0
H1776 H 0.06706 0.29655 0.5324 0.0
H1777 H 0.06907 0.32165 0.46665 0.0
H1778 H -0.00138 0.29947 0.46755 0.0
H1779 H 0.93853 0.28047 0.48806 0.0
H1780 H 0.93708 0.25727 0.55392 0.0
H1781 H 0.00548 0.2716 0.55217 0.0
C1782 C 0.05181 0.29627 0.51819 0.0
C1783 C 0.07296 0.31084 0.49953 0.0
C1784 C 0.01178 0.28478 0.51901 0.0
C1785 C 0.05315 0.31056 0.4812 0.0
C1786 C 0.01304 0.29821 0.48174 0.0
C1787 C 0.95341 0.27846 0.50192 0.0
C1788 C 0.93387 0.26904 0.52118 0.0
C1789 C 0.99245 0.28662 0.50071 0.0
C1790 C 0.95243 0.26562 0.53909 0.0
C1791 C 0.99125 0.27346 0.53803 0.0
H1792 H 0.62871 0.71158 0.4966 0.0
H1793 H 0.72643 0.80845 0.52799 0.0
H1794 H 0.75877 0.76896 0.53205 0.0
H1795 H 0.75682 0.7051 0.52833 0.0
H1796 H 0.65422 0.60673 0.50085 0.0
H1797 H 0.62602 0.64847 0.49358 0.0
C1798 C 0.65738 0.72422 0.50405 0.0
C1799 C 0.67556 0.76283 0.51176 0.0
C1800 C 0.67459 0.70088 0.5072 0.0
C1801 C 0.71219 0.77874 0.52182 0.0
C1802 C 0.7305 0.75616 0.52421 0.0
C1803 C 0.72841 0.69304 0.52067 0.0
C1804 C 0.70759 0.65305 0.51508 0.0
C1805 C 0.71164 0.71693 0.51724 0.0
C1806 C 0.67061 0.63744 0.5054 0.0
C1807 C 0.65454 0.66127 0.50117 0.0
H1808 H 0.28147 0.92112 0.49124 0.0
H1809 H 0.19109 0.91983 0.53028 0.0
H1810 H 0.22945 0.99171 0.53349 0.0
H1811 H 0.29057 0.05443 0.52665 0.0
H1812 H 0.38306 0.05393 0.49021 0.0
H1813 H 0.34213 0.98317 0.48454 0.0
C1814 C 0.26999 0.93667 0.50024 0.0
C1815 C 0.23351 0.91553 0.51038 0.0
C1816 C 0.29279 0.97756 0.50262 0.0
C1817 C 0.21913 0.93575 0.52228 0.0
C1818 C 0.24108 0.97672 0.52416 0.0
C1819 C 0.30154 0.03877 0.51735 0.0
C1820 C 0.3397 0.05921 0.50886 0.0
C1821 C 0.27822 -0.00212 0.51463 0.0
C1822 C 0.35387 0.03867 0.49704 0.0
C1823 C 0.33045 -0.00171 0.49373 0.0
H1824 H 0.01823 0.40747 0.38328 0.0
H1825 H 0.92503 0.40345 0.34568 0.0
H1826 H 0.89525 0.33191 0.34197 0.0
H1827 H 0.89754 0.2713 0.34843 0.0
H1828 H 0.99406 0.27694 0.38376 0.0
H1829 H 0.0212 0.34747 0.38918 0.0
C1830 C 0.99111 0.39083 0.37449 0.0
C1831 C 0.97344 0.41033 0.36495 0.0
C1832 C 0.9752 0.35027 0.37182 0.0
C1833 C 0.93884 0.38877 0.35326 0.0
C1834 C 0.922 0.34803 0.35108 0.0
C1835 C 0.92448 0.28798 0.35735 0.0
C1836 C 0.94382 0.26902 0.36569 0.0
C1837 C 0.94022 0.32858 0.36011 0.0
C1838 C 0.97886 0.29098 0.37704 0.0
C1839 C 0.99425 0.33122 0.38024 0.0
H1840 H 0.70934 0.63875 0.38175 0.0
H1841 H 0.71488 0.68767 0.32081 0.0
H1842 H 0.64599 0.638 0.31422 0.0
H1843 H 0.58312 0.58459 0.32702 0.0
H1844 H 0.57505 0.53995 0.38942 0.0
H1845 H 0.64615 0.58331 0.39423 0.0
C1846 C 0.6953 0.63799 0.367 0.0
C1847 C 0.71651 0.66628 0.3517 0.0
C1848 C 0.65546 0.61016 0.36364 0.0
C1849 C 0.69859 0.66584 0.33269 0.0
C1850 C 0.6594 0.63755 0.32895 0.0
C1851 C 0.59712 0.5838 0.3415 0.0
C1852 C 0.57422 0.55915 0.35782 0.0
C1853 C 0.63739 0.61002 0.34445 0.0
C1854 C 0.59237 0.55873 0.37664 0.0
C1855 C 0.63287 0.58363 0.37943 0.0
H1856 H 0.29962 0.02045 0.38379 0.0
H1857 H 0.35363 0.0912 0.32916 0.0
H1858 H 0.4068 0.07574 0.33071 0.0
H1859 H 0.43646 0.04019 0.34692 0.0
H1860 H 0.3843 0.97152 0.40246 0.0
H1861 H 0.33245 0.9889 0.40169 0.0
C1862 C 0.32297 0.0321 0.37221 0.0
C1863 C 0.32268 0.05621 0.35618 0.0
C1864 C 0.35399 0.02404 0.37358 0.0
C1865 C 0.35337 0.07221 0.3415 0.0
C1866 C 0.38376 0.06356 0.34244 0.0
C1867 C 0.41412 0.02965 0.35905 0.0
C1868 C 0.41399 0.00461 0.37466 0.0
C1869 C 0.38431 0.03943 0.35838 0.0
C1870 C 0.38499 0.99105 0.39032 0.0
C1871 C 0.35514 0.00063 0.38977 0.0
H1872 H 0.19218 0.38018 0.08932 0.0
H1873 H 0.07586 0.35348 0.07008 0.0
H1874 H 0.04646 0.30506 0.0977 0.0
H1875 H 0.05311 0.27445 0.1288 0.0
H1876 H 0.1676 0.30044 0.15074 0.0
H1877 H 0.19853 0.34523 0.12088 0.0
C1878 C 0.16044 0.36303 0.091 0.0
C1879 C 0.13613 0.37008 0.0775 0.0
C1880 C 0.14348 0.33578 0.10765 0.0
C1881 C 0.09511 0.34836 0.0801 0.0
C1882 C 0.07825 0.32082 0.09601 0.0
C1883 C 0.08491 0.28959 0.12709 0.0
C1884 C 0.10801 0.28425 0.14209 0.0
C1885 C 0.1021 0.31502 0.11013 0.0
C1886 C 0.14913 0.30418 0.13949 0.0
C1887 C 0.16674 0.32973 0.12238 0.0
H1888 H 0.65361 0.80495 0.06122 0.0
H1889 H 0.55637 0.73996 0.1033 0.0
H1890 H 0.60056 0.7667 0.13329 0.0
H1891 H 0.66765 0.80267 0.14748 0.0
H1892 H 0.76602 0.86485 0.10568 0.0
H1893 H 0.72092 0.84532 0.0758 0.0
C1894 C 0.64203 0.79743 0.07695 0.0
C1895 C 0.60168 0.7706 0.08001 0.0
C1896 C 0.668 0.81199 0.09422 0.0
C1897 C 0.58728 0.76061 0.10053 0.0
C1898 C 0.61258 0.77574 0.11771 0.0
C1899 C 0.6792 0.81258 0.13189 0.0
C1900 C 0.72018 0.83515 0.12884 0.0
C1901 C 0.65314 0.80058 0.11475 0.0
C1902 C 0.73461 0.84739 0.10847 0.0
C1903 C 0.70881 0.83615 0.09135 0.0
H1904 H 0.2177 0.93236 0.12003 0.0
H1905 H 0.12823 0.82096 0.14445 0.0
H1906 H 0.14302 0.78639 0.11688 0.0
H1907 H 0.18131 0.78851 0.08497 0.0
H1908 H 0.26841 0.90134 0.06077 0.0
H1909 H 0.25462 0.93472 0.08893 0.0
C1910 C 0.20133 0.90048 0.11936 0.0
C1911 C 0.17208 0.87925 0.13436 0.0
C1912 C 0.20961 0.8811 0.10338 0.0
C1913 C 0.15121 0.83796 0.13324 0.0
C1914 C 0.15957 0.81824 0.1174 0.0
C1915 C 0.19722 0.82035 0.08603 0.0
C1916 C 0.22586 0.84256 0.07086 0.0
C1917 C 0.18872 0.83953 0.1023 0.0
C1918 C 0.2462 0.88377 0.07224 0.0
C1919 C 0.23834 0.90285 0.08834 0.0
H1920 H 0.33289 0.15323 0.47888 0.0
H1921 H 0.43382 0.19838 0.4382 0.0
H1922 H 0.3911 0.18075 0.40751 0.0
H1923 H 0.32432 0.14488 0.3921 0.0
H1924 H 0.22354 0.0942 0.433 0.0
H1925 H 0.26636 0.12189 0.46349 0.0
C1926 C 0.3455 0.16007 0.46332 0.0
C1927 C 0.38643 0.1772 0.46082 0.0
C1928 C 0.32056 0.14848 0.44566 0.0
C1929 C 0.40233 0.1852 0.44052 0.0
C1930 C 0.37791 0.17501 0.42293 0.0
C1931 C 0.31183 0.14091 0.40764 0.0
C1932 C 0.27086 0.11781 0.41032 0.0
C1933 C 0.33685 0.15557 0.42526 0.0
C1934 C 0.25504 0.11206 0.43059 0.0
C1935 C 0.27953 0.12771 0.44805 0.0
H1936 H 0.85937 0.20094 0.39706 0.0
H1937 H 0.87083 0.11979 0.43757 0.0
H1938 H 0.84811 0.14244 0.46735 0.0
H1939 H 0.83357 0.19126 0.48264 0.0
H1940 H 0.82974 0.27774 0.44294 0.0
H1941 H 0.84081 0.24738 0.41213 0.0
C1942 C 0.85579 0.18751 0.41226 0.0
C1943 C 0.8662 0.15838 0.41511 0.0
C1944 C 0.84473 0.20223 0.42955 0.0
C1945 C 0.86251 0.14197 0.43503 0.0
C1946 C 0.84983 0.15512 0.45208 0.0
C1947 C 0.83427 0.20289 0.46722 0.0
C1948 C 0.8307 0.23659 0.46507 0.0
C1949 C 0.84211 0.18613 0.44968 0.0
C1950 C 0.83241 0.25178 0.44498 0.0
C1951 C 0.8388 0.23446 0.42736 0.0
H1952 H 0.75943 0.69953 0.42314 0.0
H1953 H 0.86872 0.70588 0.40579 0.0
H1954 H 0.85833 0.65736 0.43325 0.0
H1955 H 0.81555 0.61112 0.46205 0.0
H1956 H 0.70527 0.60624 0.47584 0.0
H1957 H 0.71933 0.65692 0.4505 0.0
C1958 C 0.78137 0.69069 0.42529 0.0
C1959 C 0.81483 0.70644 0.41237 0.0
C1960 C 0.77513 0.6632 0.44084 0.0
C1961 C 0.84257 0.69413 0.41544 0.0
C1962 C 0.83662 0.66648 0.43122 0.0
C1963 C 0.79512 0.62179 0.45967 0.0
C1964 C 0.75968 0.60535 0.47134 0.0
C1965 C 0.80276 0.65059 0.44408 0.0
C1966 C 0.73305 0.61877 0.46759 0.0
C1967 C 0.74086 0.64761 0.45287 0.0
H1968 H 0.92722 0.68924 0.91112 0.0
H1969 H 0.83816 0.72292 0.91299 0.0
H1970 H 0.80171 0.6724 0.93962 0.0
H1971 H 0.79804 0.62129 0.96413 0.0
H1972 H 0.88641 0.58674 0.96036 0.0
H1973 H 0.92016 0.63458 0.93255 0.0
C1974 C 0.89965 0.6853 0.91726 0.0
C1975 C 0.88551 0.70992 0.91035 0.0
C1976 C 0.87883 0.65602 0.93222 0.0
C1977 C 0.84951 0.70421 0.91812 0.0
C1978 C 0.82883 0.67547 0.93339 0.0
C1979 C 0.8244 0.62406 0.95699 0.0
C1980 C 0.83985 0.60066 0.96421 0.0
C1981 C 0.84357 0.65159 0.94082 0.0
C1982 C 0.87391 0.60426 0.95487 0.0
C1983 C 0.89332 0.63175 0.93908 0.0
H1984 H 0.29264 0.2374 0.91071 0.0
H1985 H 0.2958 0.13316 0.89258 0.0
H1986 H 0.34156 0.14384 0.92142 0.0
H1987 H 0.38088 0.1836 0.95217 0.0
H1988 H 0.37418 0.28601 0.97021 0.0
H1989 H 0.32938 0.27521 0.94119 0.0
C1990 C 0.30328 0.21692 0.91304 0.0
C1991 C 0.29105 0.18466 0.89946 0.0
C1992 C 0.32889 0.22296 0.92974 0.0
C1993 C 0.30502 0.15838 0.90275 0.0
C1994 C 0.33108 0.16445 0.91927 0.0
C1995 C 0.36941 0.20333 0.94965 0.0
C1996 C 0.38074 0.23563 0.96314 0.0
C1997 C 0.34326 0.1967 0.93292 0.0
C1998 C 0.36578 0.26105 0.95991 0.0
C1999 C 0.34024 0.25491 0.94335 0.0
H2000 H 0.77881 0.06265 0.91626 0.0
H2001 H 0.87049 0.17718 0.89674 0.0
H2002 H 0.85349 0.20762 0.92575 0.0
H2003 H 0.80991 0.20074 0.95642 0.0
H2004 H 0.71631 0.08457 0.97259 0.0
H2005 H 0.73746 0.05567 0.94569 0.0
C2006 C 0.79537 0.09434 0.91833 0.0
C2007 C 0.82586 0.1176 0.90438 0.0
C2008 C 0.78533 0.11127 0.93476 0.0
C2009 C 0.8467 0.15862 0.90723 0.0
C2010 C 0.83707 0.17594 0.92388 0.0
C2011 C 0.79485 0.16913 0.95422 0.0
C2012 C 0.76208 0.14472 0.96687 0.0
C2013 C 0.80622 0.15249 0.93779 0.0
C2014 C 0.74205 0.1039 0.96346 0.0
C2015 C 0.75387 0.0873 0.94789 0.0
H2016 H 0.62073 0.89508 0.58466 0.0
H2017 H 0.62354 0.79141 0.565 0.0
H2018 H 0.67464 0.80479 0.59119 0.0
H2019 H 0.71724 0.84553 0.62083 0.0
H2020 H 0.71289 0.9488 0.63972 0.0
H2021 H 0.6637 0.9361 0.61284 0.0
C2022 C 0.6325 0.87536 0.58609 0.0
C2023 C 0.61831 0.84223 0.57298 0.0
C2024 C 0.66168 0.88328 0.60111 0.0
C2025 C 0.6341 0.81718 0.57489 0.0
C2026 C 0.66324 0.8248 0.5899 0.0
C2027 C 0.70572 0.86532 0.61879 0.0
C2028 C 0.71871 0.8982 0.63206 0.0
C2029 C 0.67715 0.8577 0.60322 0.0
C2030 C 0.70341 0.92352 0.62953 0.0
C2031 C 0.67524 0.91621 0.61422 0.0
H2032 H 0.18059 0.76694 0.59785 0.0
H2033 H 0.11938 0.79538 0.55121 0.0
H2034 H 0.0923 0.81882 0.57827 0.0
H2035 H 0.08142 0.82626 0.61552 0.0
H2036 H 0.14471 0.80109 0.66219 0.0
H2037 H 0.17581 0.78205 0.63509 0.0
C2038 C 0.16177 0.77878 0.59365 0.0
C2039 C 0.15166 0.77891 0.57256 0.0
C2040 C 0.14659 0.79285 0.60937 0.0
C2041 C 0.12753 0.79471 0.56731 0.0
C2042 C 0.11187 0.80806 0.5828 0.0
C2043 C 0.10263 0.81732 0.61968 0.0
C2044 C 0.11109 0.81558 0.64085 0.0
C2045 C 0.12053 0.80654 0.60391 0.0
C2046 C 0.13839 0.80373 0.64608 0.0
C2047 C 0.15587 0.79231 0.63051 0.0
H2048 H 0.26642 0.38336 0.57797 0.0
H2049 H 0.15011 0.35534 0.55828 0.0
H2050 H 0.12125 0.30645 0.58666 0.0
H2051 H 0.13027 0.26926 0.61645 0.0
H2052 H 0.24878 0.29867 0.63289 0.0
H2053 H 0.27549 0.35007 0.60688 0.0
C2054 C 0.23465 0.36687 0.57983 0.0
C2055 C 0.21048 0.37287 0.56591 0.0
C2056 C 0.21868 0.33921 0.5959 0.0
C2057 C 0.16941 0.35105 0.56867 0.0
C2058 C 0.15299 0.32322 0.58497 0.0
C2059 C 0.16186 0.28758 0.61453 0.0
C2060 C 0.18755 0.28052 0.6269 0.0
C2061 C 0.17741 0.31673 0.59865 0.0
C2062 C 0.22838 0.30378 0.62387 0.0
C2063 C 0.24378 0.33307 0.60884 0.0
H2064 H 0.99566 0.46522 0.7319 0.0
H2065 H 0.8986 0.38754 0.77135 0.0
H2066 H 0.93928 0.41588 0.80246 0.0
H2067 H 0.00419 0.45798 0.81829 0.0
H2068 H 0.10331 0.53074 0.77892 0.0
H2069 H 0.06029 0.51039 0.74816 0.0
C2070 C 0.98331 0.45522 0.74733 0.0
C2071 C 0.94414 0.42448 0.74932 0.0
C2072 C 0.00734 0.47101 0.76524 0.0
C2073 C 0.92872 0.41114 0.76941 0.0
C2074 C 0.95195 0.42738 0.78724 0.0
C2075 C 0.01612 0.47036 0.80312 0.0
C2076 C 0.05671 0.49653 0.80095 0.0
C2077 C 0.99153 0.4568 0.78536 0.0
C2078 C 0.07196 0.51114 0.781 0.0
C2079 C 0.04744 0.49916 0.76337 0.0
H2080 H 0.53796 0.52295 0.72891 0.0
H2081 H 0.60621 0.49154 0.76893 0.0
H2082 H 0.57944 0.50653 0.79992 0.0
H2083 H 0.54222 0.53558 0.8156 0.0
H2084 H 0.48171 0.57586 0.77535 0.0
H2085 H 0.49911 0.55021 0.74469 0.0
C2086 C 0.54629 0.5187 0.74442 0.0
C2087 C 0.5738 0.50595 0.74668 0.0
C2088 C 0.53222 0.52926 0.7622 0.0
C2089 C 0.58497 0.50126 0.76686 0.0
C2090 C 0.56975 0.50991 0.78459 0.0
C2091 C 0.53213 0.53783 0.80017 0.0
C2092 C 0.51034 0.55708 0.79769 0.0
C2093 C 0.5441 0.5249 0.78248 0.0
C2094 C 0.49829 0.56082 0.77757 0.0
C2095 C 0.50839 0.54634 0.76003 0.0
H2096 H 0.49556 0.07352 0.75985 0.0
H2097 H 0.46896 0.98622 0.71203 0.0
H2098 H 0.4511 0.93571 0.73858 0.0
H2099 H 0.43516 0.91474 0.77547 0.0
H2100 H 0.46424 0.00228 0.8234 0.0
H2101 H 0.48952 0.05411 0.79708 0.0
C2102 C 0.48676 0.04359 0.75531 0.0
C2103 C 0.48385 0.0338 0.73394 0.0
C2104 C 0.47682 0.01459 0.7708 0.0
C2105 C 0.47215 0.99489 0.72826 0.0
C2106 C 0.46156 0.96578 0.74351 0.0
C2107 C 0.44833 0.94534 0.78015 0.0
C2108 C 0.44837 0.95469 0.80141 0.0
C2109 C 0.46282 0.97507 0.76482 0.0
C2110 C 0.46464 0.9943 0.80727 0.0
C2111 C 0.4787 0.02399 0.79213 0.0
H2112 H 0.54452 0.07691 0.26174 0.0
H2113 H 0.52438 0.99126 0.214 0.0
H2114 H 0.49365 0.93839 0.2394 0.0
H2115 H 0.48064 0.9174 0.27611 0.0
H2116 H 0.50055 0.0023 0.3242 0.0
H2117 H 0.52237 0.05424 0.29803 0.0
C2118 C 0.53228 0.04651 0.25687 0.0
C2119 C 0.53604 0.03795 0.23589 0.0
C2120 C 0.51483 0.0161 0.27176 0.0
C2121 C 0.52088 -0.00137 0.2298 0.0
C2122 C 0.50368 0.96832 0.24446 0.0
C2123 C 0.48868 0.9471 0.28076 0.0
C2124 C 0.48848 0.95588 0.30207 0.0
C2125 C 0.50156 0.97682 0.26557 0.0
C2126 C 0.49936 0.99448 0.30794 0.0
C2127 C 0.51245 0.02437 0.29293 0.0
H2128 H 0.04267 0.51749 0.29122 0.0
H2129 H 0.99392 0.58534 0.31727 0.0
H2130 H 0.9455 0.56389 0.28946 0.0
H2131 H 0.92215 0.53292 0.25583 0.0
H2132 H 0.96977 0.46589 0.22751 0.0
H2133 H 0.01356 0.47985 0.25785 0.0
C2134 C 0.02063 0.52649 0.29101 0.0
C2135 C 0.02151 0.5527 0.30643 0.0
C2136 C 0.99337 0.51495 0.27428 0.0
C2137 C 0.99352 0.56496 0.30577 0.0
C2138 C 0.966 0.55292 0.28973 0.0
C2139 C 0.94181 0.52093 0.25628 0.0
C2140 C 0.94332 0.49909 0.23923 0.0
C2141 C 0.96652 0.52908 0.27359 0.0
C2142 C 0.96856 0.48337 0.24028 0.0
C2143 C 0.99349 0.49131 0.25767 0.0
H2144 H 0.48159 0.47249 0.22317 0.0
H2145 H 0.51049 0.40717 0.26668 0.0
H2146 H 0.49491 0.43701 0.29609 0.0
H2147 H 0.465 0.4751 0.30923 0.0
H2148 H 0.42728 0.53275 0.26542 0.0
H2149 H 0.45465 0.51321 0.23644 0.0
C2150 C 0.48526 0.46551 0.23908 0.0
C2151 C 0.49728 0.43785 0.2428 0.0
C2152 C 0.47427 0.48125 0.2559 0.0
C2153 C 0.50132 0.42852 0.2635 0.0
C2154 C 0.49227 0.44544 0.28032 0.0
C2155 C 0.46359 0.48408 0.29342 0.0
C2156 C 0.44436 0.50546 0.28944 0.0
C2157 C 0.47754 0.47092 0.27671 0.0
C2158 C 0.4421 0.51634 0.26881 0.0
C2159 C 0.45758 0.50503 0.25223 0.0
H2160 H 0.94253 0.22335 0.2975 0.0
H2161 H 0.95233 0.12287 0.31542 0.0
H2162 H 0.00204 0.13834 0.28808 0.0
H2163 H 0.04296 0.18107 0.25875 0.0
H2164 H 0.03709 0.28504 0.24392 0.0
H2165 H 0.98537 0.26749 0.27002 0.0
C2166 C 0.95561 0.20487 0.29542 0.0
C2167 C 0.9436 0.17186 0.30831 0.0
C2168 C 0.98465 0.21446 0.28003 0.0
C2169 C 0.96113 0.14846 0.30567 0.0
C2170 C 0.98941 0.15722 0.28998 0.0
C2171 C 0.02996 0.19953 0.26119 0.0
C2172 C 0.04323 0.23396 0.24925 0.0
C2173 C 0.00131 0.19008 0.27695 0.0
C2174 C 0.02703 0.25826 0.25282 0.0
C2175 C -0.00243 0.2483 0.26778 0.0
H2176 H 0.87225 0.80905 0.28556 0.0
H2177 H 0.76817 0.7734 0.32309 0.0
H2178 H 0.73801 0.79061 0.29506 0.0
H2179 H 0.73935 0.81352 0.25961 0.0
H2180 H 0.84381 0.85458 0.22199 0.0
H2181 H 0.87534 0.83732 0.24999 0.0
C2182 C 0.84311 0.80534 0.28758 0.0
C2183 C 0.82254 0.7897 0.30648 0.0
C2184 C 0.82572 0.81587 0.27124 0.0
C2185 C 0.78485 0.78533 0.30884 0.0
C2186 C 0.76738 0.79507 0.29274 0.0
C2187 C 0.7691 0.81885 0.25748 0.0
C2188 C 0.78875 0.83433 0.23846 0.0
C2189 C 0.7873 0.80999 0.27384 0.0
C2190 C 0.82752 0.84158 0.2362 0.0
C2191 C 0.84568 0.83201 0.25233 0.0
H2192 H 0.27269 0.0546 0.28788 0.0
H2193 H 0.15738 0.02593 0.30982 0.0
H2194 H 0.12683 0.97673 0.28187 0.0
H2195 H 0.13318 0.94119 0.25108 0.0
H2196 H 0.24879 0.96596 0.23192 0.0
H2197 H 0.279 0.01758 0.25852 0.0
C2198 C 0.24086 0.03756 0.28653 0.0
C2199 C 0.21733 0.04408 0.30079 0.0
C2200 C 0.2236 0.00882 0.27073 0.0
C2201 C 0.17612 0.02145 0.29903 0.0
C2202 C 0.15867 0.99343 0.28299 0.0
C2203 C 0.16497 0.95832 0.25265 0.0
C2204 C 0.18888 0.95039 0.23937 0.0
C2205 C 0.18211 0.98689 0.26868 0.0
C2206 C 0.22993 0.97191 0.24185 0.0
C2207 C 0.24718 0.00129 0.25711 0.0
H2208 H 0.98183 0.76293 0.81633 0.0
H2209 H 0.90527 0.79707 0.78616 0.0
H2210 H 0.94848 0.81876 0.75525 0.0
H2211 H 0.00814 0.82675 0.73674 0.0
H2212 H 0.0793 0.78548 0.76678 0.0
H2213 H 0.03852 0.76844 0.79789 0.0
C2214 C 0.97468 0.7754 0.80306 0.0
C2215 C 0.94064 0.7787 0.80353 0.0
C2216 C -0.00122 0.7865 0.7853 0.0
C2217 C 0.93146 0.79437 0.78612 0.0
C2218 C 0.95613 0.80671 0.76848 0.0
C2219 C 0.01435 0.81366 0.75001 0.0
C2220 C 0.04658 0.80715 0.74931 0.0
C2221 C 0.98981 0.80262 0.76783 0.0
C2222 C 0.05463 0.79069 0.7668 0.0
C2223 C 0.03133 0.78092 0.78466 0.0
H2224 H 0.2123 0.21578 0.72149 0.0
H2225 H 0.10609 0.19759 0.7516 0.0
H2226 H 0.12391 0.17481 0.78337 0.0
H2227 H 0.17137 0.16147 0.80284 0.0
H2228 H 0.27878 0.18415 0.77203 0.0
H2229 H 0.25863 0.20321 0.74036 0.0
C2230 C 0.19278 0.2065 0.73491 0.0
C2231 C 0.15781 0.20816 0.73414 0.0
C2232 C 0.20356 0.19423 0.75309 0.0
C2233 C 0.13316 0.19649 0.7518 0.0
C2234 C 0.14339 0.18351 0.76996 0.0
C2235 C 0.19027 0.17067 0.7892 0.0
C2236 C 0.22663 0.17145 0.78992 0.0
C2237 C 0.17877 0.18251 0.77087 0.0
C2238 C 0.25071 0.18328 0.77202 0.0
C2239 C 0.23924 0.19424 0.75382 0.0
H2240 H 0.76954 0.03971 0.78976 0.0
H2241 H 0.88211 0.04944 0.80209 0.0
H2242 H 0.87075 0.0022 0.77396 0.0
H2243 H 0.82728 0.95626 0.74621 0.0
H2244 H 0.71112 0.94047 0.7382 0.0
H2245 H 0.72541 0.99218 0.76373 0.0
C2246 C 0.79159 0.03152 0.78622 0.0
C2247 C 0.82666 0.04814 0.79781 0.0
C2248 C 0.78427 0.00347 0.77055 0.0
C2249 C 0.85481 0.03692 0.79333 0.0
C2250 C 0.84837 0.01003 0.77721 0.0
C2251 C 0.8055 0.96471 0.74992 0.0
C2252 C 0.76863 0.94556 0.73989 0.0
C2253 C 0.81311 0.99295 0.7657 0.0
C2254 C 0.74007 0.95567 0.7453 0.0
C2255 C 0.74807 0.98494 0.76006 0.0
H2256 H 0.66553 0.50303 0.64699 0.0
H2257 H 0.5733 0.51063 0.61436 0.0
H2258 H 0.61481 0.53627 0.58363 0.0
H2259 H 0.67787 0.55948 0.56616 0.0
H2260 H 0.77331 0.55765 0.59847 0.0
H2261 H 0.73072 0.52784 0.62916 0.0
C2262 C 0.65479 0.51064 0.63324 0.0
C2263 C 0.61637 0.50526 0.63323 0.0
C2264 C 0.67957 0.52678 0.61553 0.0
C2265 C 0.6027 0.51459 0.615 0.0
C2266 C 0.62648 0.52938 0.59733 0.0
C2267 C 0.68942 0.55248 0.57988 0.0
C2268 C 0.72872 0.56077 0.58 0.0
C2269 C 0.66506 0.53607 0.59747 0.0
C2270 C 0.74318 0.55166 0.59799 0.0
C2271 C 0.71877 0.53454 0.61552 0.0
H2272 H 0.52138 0.1456 0.62091 0.0
H2273 H 0.41195 0.0406 0.6351 0.0
H2274 H 0.3777 0.05806 0.60901 0.0
H2275 H 0.37918 0.10208 0.58117 0.0
H2276 H 0.48981 0.20316 0.56399 0.0
H2277 H 0.52335 0.18837 0.59181 0.0
C2278 C 0.48997 0.12694 0.61839 0.0
C2279 C 0.46897 0.09226 0.63012 0.0
C2280 C 0.47081 0.13627 0.6026 0.0
C2281 C 0.42853 0.06767 0.62639 0.0
C2282 C 0.40899 0.07755 0.61141 0.0
C2283 C 0.41062 0.12086 0.58357 0.0
C2284 C 0.43193 0.15379 0.57065 0.0
C2285 C 0.42986 0.11156 0.59926 0.0
C2286 C 0.47274 0.17762 0.57374 0.0
C2287 C 0.49192 0.16924 0.5897 0.0
H2288 H 0.94028 0.37868 0.62531 0.0
H2289 H 0.82981 0.36404 0.64739 0.0
H2290 H 0.79482 0.31727 0.61902 0.0
H2291 H 0.7958 0.28029 0.58767 0.0
H2292 H 0.9054 0.28975 0.56829 0.0
H2293 H 0.94071 0.33886 0.59553 0.0
C2294 C 0.90856 0.36527 0.62384 0.0
C2295 C 0.88766 0.37507 0.63822 0.0
C2296 C 0.88857 0.33761 0.60785 0.0
C2297 C 0.8465 0.35701 0.63642 0.0
C2298 C 0.82652 0.33035 0.62018 0.0
C2299 C 0.82743 0.29338 0.58943 0.0
C2300 C 0.84823 0.28201 0.57586 0.0
C2301 C 0.84725 0.32048 0.60574 0.0
C2302 C 0.88899 0.29838 0.57847 0.0
C2303 C 0.90912 0.32639 0.59407 0.0
H2304 H 0.67832 0.16607 0.06336 0.0
H2305 H 0.74942 0.12302 0.09149 0.0
H2306 H 0.70853 0.10417 0.12285 0.0
H2307 H 0.65098 0.09738 0.14192 0.0
H2308 H 0.57545 0.13385 0.11271 0.0
H2309 H 0.61923 0.15761 0.08222 0.0
C2310 C 0.68462 0.15234 0.0763 0.0
C2311 C 0.71675 0.14577 0.07501 0.0
C2312 C 0.66015 0.14042 0.09415 0.0
C2313 C 0.7248 0.12828 0.09202 0.0
C2314 C 0.70144 0.11751 0.11 0.0
C2315 C 0.64436 0.11091 0.12897 0.0
C2316 C 0.61024 0.11418 0.12961 0.0
C2317 C 0.66887 0.12315 0.11121 0.0
C2318 C 0.60166 0.13118 0.11257 0.0
C2319 C 0.62664 0.14467 0.09513 0.0
H2320 H 0.84505 0.47011 0.12735 0.0
H2321 H 0.95795 0.5765 0.13013 0.0
H2322 H 0.93656 0.60682 0.10371 0.0
H2323 H 0.88594 0.60294 0.07945 0.0
H2324 H 0.77596 0.49426 0.07336 0.0
H2325 H 0.7957 0.46482 0.10128 0.0
C2326 C 0.86477 0.49997 0.12219 0.0
C2327 C 0.90287 0.52125 0.13076 0.0
C2328 C 0.85275 0.51671 0.10637 0.0
C2329 C 0.92847 0.55964 0.12374 0.0
C2330 C 0.91625 0.57699 0.10866 0.0
C2331 C 0.86632 0.57286 0.08434 0.0
C2332 C 0.8294 0.55085 0.07465 0.0
C2333 C 0.87851 0.5558 0.09982 0.0
C2334 C 0.80448 0.51169 0.08072 0.0
C2335 C 0.81576 0.49493 0.09667 0.0
H2336 H 0.53474 0.38675 0.12071 0.0
H2337 H 0.42 0.35494 0.14489 0.0
H2338 H 0.38876 0.30375 0.11809 0.0
H2339 H 0.39407 0.26965 0.08715 0.0
H2340 H 0.50814 0.30505 0.06061 0.0
H2341 H 0.53991 0.35362 0.08872 0.0
C2342 C 0.50295 0.36817 0.12014 0.0
C2343 C 0.47951 0.37374 0.13484 0.0
C2344 C 0.48523 0.33989 0.10417 0.0
C2345 C 0.4384 0.3505 0.13384 0.0
C2346 C 0.42061 0.32146 0.11849 0.0
C2347 C 0.42591 0.2879 0.0876 0.0
C2348 C 0.44885 0.2837 0.07201 0.0
C2349 C 0.44371 0.31612 0.10348 0.0
C2350 C 0.48998 0.30784 0.07252 0.0
C2351 C 0.50808 0.33548 0.08859 0.0
H2352 H 0.33933 0.87895 0.89244 0.0
H2353 H 0.42608 0.86606 0.92742 0.0
H2354 H 0.38061 0.83969 0.95722 0.0
H2355 H 0.3164 0.82301 0.97386 0.0
H2356 H 0.23308 0.84124 0.93861 0.0
H2357 H 0.2763 0.86169 0.90841 0.0
C2358 C 0.34823 0.87007 0.90651 0.0
C2359 C 0.38603 0.87451 0.90772 0.0
C2360 C 0.32234 0.85575 0.92361 0.0
C2361 C 0.39711 0.86296 0.92611 0.0
C2362 C 0.37111 0.84792 0.94316 0.0
C2363 C 0.30792 0.83163 0.95961 0.0
C2364 C 0.27172 0.83109 0.95871 0.0
C2365 C 0.33372 0.84465 0.94222 0.0
C2366 C 0.26083 0.84161 0.93991 0.0
C2367 C 0.28558 0.85342 0.92254 0.0
H2368 H 0.10608 0.38021 0.959 0.0
H2369 H 0.20325 0.49145 0.97911 0.0
H2370 H 0.19135 0.52474 0.95011 0.0
H2371 H 0.15149 0.52268 0.91958 0.0
H2372 H 0.05019 0.41265 0.90193 0.0
H2373 H 0.06557 0.37834 0.92898 0.0
C2374 C 0.12474 0.41168 0.9569 0.0
C2375 C 0.15565 0.4333 0.97105 0.0
C2376 C 0.11703 0.43081 0.9405 0.0
C2377 C 0.17927 0.47417 0.96839 0.0
C2378 C 0.17254 0.49322 0.95178 0.0
C2379 C 0.13329 0.49111 0.92152 0.0
C2380 C 0.10015 0.46998 0.90865 0.0
C2381 C 0.14137 0.47191 0.93777 0.0
C2382 C 0.07604 0.42932 0.91159 0.0
C2383 C 0.08475 0.40977 0.9271 0.0
H2384 H 0.53414 0.59161 0.92616 0.0
H2385 H 0.47164 0.63889 0.8928 0.0
H2386 H 0.49027 0.69001 0.91961 0.0
H2387 H 0.52552 0.72208 0.95262 0.0
H2388 H 0.58888 0.67493 0.9851 0.0
H2389 H 0.56847 0.62288 0.95894 0.0
C2390 C 0.52447 0.61302 0.92479 0.0
C2391 C 0.50171 0.61156 0.90743 0.0
C2392 C 0.5353 0.64228 0.94028 0.0
C2393 C 0.48949 0.63958 0.90589 0.0
C2394 C 0.50001 0.66873 0.92129 0.0
C2395 C 0.53443 0.7001 0.95399 0.0
C2396 C 0.55833 0.70204 0.97091 0.0
C2397 C 0.52301 0.67047 0.93856 0.0
C2398 C 0.57025 0.67386 0.97239 0.0
C2399 C 0.55866 0.64413 0.95735 0.0
H2400 H 0.26588 0.47417 0.44579 0.0
H2401 H 0.29905 0.39332 0.47115 0.0
H2402 H 0.34957 0.4119 0.44443 0.0
H2403 H 0.38252 0.44872 0.41298 0.0
H2404 H 0.34881 0.52786 0.38575 0.0
H2405 H 0.30006 0.51217 0.41368 0.0
C2406 C 0.28473 0.46127 0.44557 0.0
C2407 C 0.27917 0.43272 0.46056 0.0
C2408 C 0.31314 0.47133 0.42959 0.0
C2409 C 0.30297 0.41543 0.45988 0.0
C2410 C 0.33178 0.42596 0.44453 0.0
C2411 C 0.36455 0.46262 0.41315 0.0
C2412 C 0.36917 0.48931 0.3973 0.0
C2413 C 0.33674 0.45339 0.42914 0.0
C2414 C 0.3456 0.50699 0.39771 0.0
C2415 C 0.31788 0.49816 0.41375 0.0
H2416 H 0.46489 0.85213 0.41699 0.0
H2417 H 0.57844 0.94298 0.3956 0.0
H2418 H 0.61113 0.92477 0.42229 0.0
H2419 H 0.60728 0.88541 0.45304 0.0
H2420 H 0.49357 0.79896 0.47678 0.0
H2421 H 0.46103 0.81312 0.44821 0.0
C2422 C 0.49678 0.86729 0.41802 0.0
C2423 C 0.51941 0.89828 0.40421 0.0
C2424 C 0.51526 0.85785 0.43407 0.0
C2425 C 0.56062 0.91867 0.40597 0.0
C2426 C 0.57926 0.90844 0.42129 0.0
C2427 C 0.57539 0.86961 0.45187 0.0
C2428 C 0.55285 0.84113 0.46691 0.0
C2429 C 0.55689 0.87851 0.43565 0.0
C2430 C 0.51155 0.82111 0.46538 0.0
C2431 C 0.49293 0.82909 0.44901 0.0
H2432 H 0.10994 0.71737 0.45783 0.0
H2433 H 0.20794 0.70102 0.47277 0.0
H2434 H 0.18712 0.65011 0.44548 0.0
H2435 H 0.14065 0.61062 0.41697 0.0
H2436 H 0.03857 0.62235 0.40579 0.0
H2437 H 0.06142 0.67507 0.43175 0.0
C2438 C 0.12671 0.70262 0.45508 0.0
C2439 C 0.16062 0.71306 0.46699 0.0
C2440 C 0.11395 0.67288 0.43989 0.0
C2441 C 0.18174 0.69333 0.46368 0.0
C2442 C 0.16993 0.66444 0.44805 0.0
C2443 C 0.12378 0.6251 0.42018 0.0
C2444 C 0.08851 0.61346 0.40925 0.0
C2445 C 0.13618 0.65414 0.43593 0.0
C2446 C 0.06611 0.63138 0.41385 0.0
C2447 C 0.07906 0.66136 0.42873 0.0
loop_
_geom_bond_atom_site_label_1
_geom_bond_atom_site_label_2
_geom_bond_distance
_geom_bond_site_symmetry_2
_ccdc_geom_bond_type
Tb0 O3 2.453 . S
Tb0 O4 2.596 . S
Tb0 O5 2.374 . S
Tb0 O13 2.343 . S
Tb0 O15 2.353 . S
Tb0 O17 2.427 . S
Tb0 O18 2.513 . S
C1 O5 1.251 . S
C1 O7 1.263 . S
Tb2 O4 2.343 . S
Tb2 O7 2.353 . S
Tb2 O10 2.427 . S
Tb2 O11 2.513 . S
Tb2 O12 2.453 . S
Tb2 O13 2.596 . S
Tb2 O14 2.374 . S
O3 Tb0 2.453 . S
O3 C19 1.245 . S
O4 Tb0 2.596 . S
O4 Tb2 2.343 . S
O4 C19 1.259 . S
O5 Tb0 2.374 . S
O5 C1 1.251 . S
C6 O10 1.275 . S
C6 O11 1.246 . S
O7 C1 1.263 . S
O7 Tb2 2.353 . S
C8 O12 1.245 . S
C8 O13 1.259 . S
C9 O14 1.250 . S
C9 O15 1.263 . S
O10 Tb2 2.427 . S
O10 C6 1.275 . S
O11 Tb2 2.513 . S
O11 C6 1.246 . S
O12 Tb2 2.453 . S
O12 C8 1.245 . S
O13 Tb0 2.343 . S
O13 Tb2 2.596 . S
O13 C8 1.259 . S
O14 Tb2 2.374 . S
O14 C9 1.250 . S
O15 Tb0 2.353 . S
O15 C9 1.263 . S
C16 O17 1.275 . S
C16 O18 1.246 . S
O17 Tb0 2.427 . S
O17 C16 1.275 . S
O18 Tb0 2.513 . S
O18 C16 1.246 . S
C19 O3 1.245 . S
C19 O4 1.259 . S
Tb20 O23 2.453 . S
Tb20 O24 2.596 . S
Tb20 O25 2.374 . S
Tb20 O33 2.343 . S
Tb20 O35 2.353 . S
Tb20 O37 2.427 . S
Tb20 O38 2.513 . S
C21 O25 1.251 . S
C21 O27 1.263 . S
Tb22 O24 2.343 . S
Tb22 O27 2.353 . S
Tb22 O30 2.427 . S
Tb22 O31 2.513 . S
Tb22 O32 2.453 . S
Tb22 O33 2.596 . S
Tb22 O34 2.374 . S
O23 Tb20 2.453 . S
O23 C39 1.245 . S
O24 Tb20 2.596 . S
O24 Tb22 2.343 . S
O24 C39 1.259 . S
O25 Tb20 2.374 . S
O25 C21 1.251 . S
C26 O30 1.275 . S
C26 O31 1.246 . S
O27 C21 1.263 . S
O27 Tb22 2.353 . S
C28 O32 1.245 . S
C28 O33 1.259 . S
C29 O34 1.250 . S
C29 O35 1.263 . S
O30 Tb22 2.427 . S
O30 C26 1.275 . S
O31 Tb22 2.513 . S
O31 C26 1.246 . S
O32 Tb22 2.453 . S
O32 C28 1.245 . S
O33 Tb20 2.343 . S
O33 Tb22 2.596 . S
O33 C28 1.259 . S
O34 Tb22 2.374 . S
O34 C29 1.250 . S
O35 Tb20 2.353 . S
O35 C29 1.263 . S
C36 O37 1.275 . S
C36 O38 1.246 . S
O37 Tb20 2.427 . S
O37 C36 1.275 . S
O38 Tb20 2.513 . S
O38 C36 1.246 . S
C39 O23 1.245 . S
C39 O24 1.259 . S
Tb40 O43 2.453 . S
Tb40 O44 2.596 . S
Tb40 O45 2.374 . S
Tb40 O53 2.343 . S
Tb40 O55 2.353 . S
Tb40 O57 2.427 . S
Tb40 O58 2.513 . S
C41 O45 1.251 . S
C41 O47 1.263 . S
Tb42 O44 2.343 . S
Tb42 O47 2.353 . S
Tb42 O50 2.427 . S
Tb42 O51 2.513 . S
Tb42 O52 2.453 . S
Tb42 O53 2.596 . S
Tb42 O54 2.374 . S
O43 Tb40 2.453 . S
O43 C59 1.245 . S
O44 Tb40 2.596 . S
O44 Tb42 2.343 . S
O44 C59 1.259 . S
O45 Tb40 2.374 . S
O45 C41 1.251 . S
C46 O50 1.275 . S
C46 O51 1.246 . S
O47 C41 1.263 . S
O47 Tb42 2.353 . S
C48 O52 1.245 . S
C48 O53 1.259 . S
C49 O54 1.250 . S
C49 O55 1.263 . S
O50 Tb42 2.427 . S
O50 C46 1.275 . S
O51 Tb42 2.513 . S
O51 C46 1.246 . S
O52 Tb42 2.453 . S
O52 C48 1.245 . S
O53 Tb40 2.343 . S
O53 Tb42 2.596 . S
O53 C48 1.259 . S
O54 Tb42 2.374 . S
O54 C49 1.250 . S
O55 Tb40 2.353 . S
O55 C49 1.263 . S
C56 O57 1.275 . S
C56 O58 1.246 . S
O57 Tb40 2.427 . S
O57 C56 1.275 . S
O58 Tb40 2.513 . S
O58 C56 1.246 . S
C59 O43 1.245 . S
C59 O44 1.259 . S
Tb60 O63 2.453 . S
Tb60 O64 2.596 . S
Tb60 O65 2.374 . S
Tb60 O73 2.343 . S
Tb60 O75 2.353 . S
Tb60 O77 2.427 . S
Tb60 O78 2.513 . S
C61 O65 1.251 . S
C61 O67 1.263 . S
Tb62 O64 2.343 . S
Tb62 O67 2.353 . S
Tb62 O70 2.427 . S
Tb62 O71 2.513 . S
Tb62 O72 2.453 . S
Tb62 O73 2.596 . S
Tb62 O74 2.374 . S
O63 Tb60 2.453 . S
O63 C79 1.245 . S
O64 Tb60 2.596 . S
O64 Tb62 2.343 . S
O64 C79 1.259 . S
O65 Tb60 2.374 . S
O65 C61 1.251 . S
C66 O70 1.275 . S
C66 O71 1.246 . S
O67 C61 1.263 . S
O67 Tb62 2.353 . S
C68 O72 1.245 . S
C68 O73 1.259 . S
C69 O74 1.250 . S
C69 O75 1.263 . S
O70 Tb62 2.427 . S
O70 C66 1.275 . S
O71 Tb62 2.513 . S
O71 C66 1.246 . S
O72 Tb62 2.453 . S
O72 C68 1.245 . S
O73 Tb60 2.343 . S
O73 Tb62 2.596 . S
O73 C68 1.259 . S
O74 Tb62 2.374 . S
O74 C69 1.250 . S
O75 Tb60 2.353 . S
O75 C69 1.263 . S
C76 O77 1.275 . S
C76 O78 1.246 . S
O77 Tb60 2.427 . S
O77 C76 1.275 . S
O78 Tb60 2.513 . S
O78 C76 1.246 . S
C79 O63 1.245 . S
C79 O64 1.259 . S
Tb80 O83 2.453 . S
Tb80 O84 2.596 . S
Tb80 O85 2.374 . S
Tb80 O93 2.343 . S
Tb80 O95 2.353 . S
Tb80 O97 2.427 . S
Tb80 O98 2.513 . S
C81 O85 1.251 . S
C81 O87 1.263 . S
Tb82 O84 2.343 . S
Tb82 O87 2.353 . S
Tb82 O90 2.427 . S
Tb82 O91 2.513 . S
Tb82 O92 2.453 . S
Tb82 O93 2.596 . S
Tb82 O94 2.374 . S
O83 Tb80 2.453 . S
O83 C99 1.245 . S
O84 Tb80 2.596 . S
O84 Tb82 2.343 . S
O84 C99 1.259 . S
O85 Tb80 2.374 . S
O85 C81 1.251 . S
C86 O90 1.275 . S
C86 O91 1.246 . S
O87 C81 1.263 . S
O87 Tb82 2.353 . S
C88 O92 1.245 . S
C88 O93 1.259 . S
C89 O94 1.250 . S
C89 O95 1.263 . S
O90 Tb82 2.427 . S
O90 C86 1.275 . S
O91 Tb82 2.513 . S
O91 C86 1.246 . S
O92 Tb82 2.453 . S
O92 C88 1.245 . S
O93 Tb80 2.343 . S
O93 Tb82 2.596 . S
O93 C88 1.259 . S
O94 Tb82 2.374 . S
O94 C89 1.250 . S
O95 Tb80 2.353 . S
O95 C89 1.263 . S
C96 O97 1.275 . S
C96 O98 1.246 . S
O97 Tb80 2.427 . S
O97 C96 1.275 . S
O98 Tb80 2.513 . S
O98 C96 1.246 . S
C99 O83 1.245 . S
C99 O84 1.259 . S
Tb100 O103 2.453 . S
Tb100 O104 2.596 . S
Tb100 O105 2.374 . S
Tb100 O113 2.343 . S
Tb100 O115 2.353 . S
Tb100 O117 2.427 . S
Tb100 O118 2.513 . S
C101 O105 1.251 . S
C101 O107 1.263 . S
Tb102 O104 2.343 . S
Tb102 O107 2.353 . S
Tb102 O110 2.427 . S
Tb102 O111 2.513 . S
Tb102 O112 2.453 . S
Tb102 O113 2.596 . S
Tb102 O114 2.374 . S
O103 Tb100 2.453 . S
O103 C119 1.245 . S
O104 Tb100 2.596 . S
O104 Tb102 2.343 . S
O104 C119 1.259 . S
O105 Tb100 2.374 . S
O105 C101 1.251 . S
C106 O110 1.275 . S
C106 O111 1.246 . S
O107 C101 1.263 . S
O107 Tb102 2.353 . S
C108 O112 1.245 . S
C108 O113 1.259 . S
C109 O114 1.250 . S
C109 O115 1.263 . S
O110 Tb102 2.427 . S
O110 C106 1.275 . S
O111 Tb102 2.513 . S
O111 C106 1.246 . S
O112 Tb102 2.453 . S
O112 C108 1.245 . S
O113 Tb100 2.343 . S
O113 Tb102 2.596 . S
O113 C108 1.259 . S
O114 Tb102 2.374 . S
O114 C109 1.250 . S
O115 Tb100 2.353 . S
O115 C109 1.263 . S
C116 O117 1.275 . S
C116 O118 1.246 . S
O117 Tb100 2.427 . S
O117 C116 1.275 . S
O118 Tb100 2.513 . S
O118 C116 1.246 . S
C119 O103 1.245 . S
C119 O104 1.259 . S
Tb120 O123 2.453 . S
Tb120 O124 2.596 . S
Tb120 O125 2.374 . S
Tb120 O133 2.343 . S
Tb120 O135 2.353 . S
Tb120 O137 2.427 . S
Tb120 O138 2.513 . S
C121 O125 1.251 . S
C121 O127 1.263 . S
Tb122 O124 2.343 . S
Tb122 O127 2.353 . S
Tb122 O130 2.427 . S
Tb122 O131 2.513 . S
Tb122 O132 2.453 . S
Tb122 O133 2.596 . S
Tb122 O134 2.374 . S
O123 Tb120 2.453 . S
O123 C139 1.245 . S
O124 Tb120 2.596 . S
O124 Tb122 2.343 . S
O124 C139 1.259 . S
O125 Tb120 2.374 . S
O125 C121 1.251 . S
C126 O130 1.275 . S
C126 O131 1.246 . S
O127 C121 1.263 . S
O127 Tb122 2.353 . S
C128 O132 1.245 . S
C128 O133 1.259 . S
C129 O134 1.250 . S
C129 O135 1.263 . S
O130 Tb122 2.427 . S
O130 C126 1.275 . S
O131 Tb122 2.513 . S
O131 C126 1.246 . S
O132 Tb122 2.453 . S
O132 C128 1.245 . S
O133 Tb120 2.343 . S
O133 Tb122 2.596 . S
O133 C128 1.259 . S
O134 Tb122 2.374 . S
O134 C129 1.250 . S
O135 Tb120 2.353 . S
O135 C129 1.263 . S
C136 O137 1.275 . S
C136 O138 1.246 . S
O137 Tb120 2.427 . S
O137 C136 1.275 . S
O138 Tb120 2.513 . S
O138 C136 1.246 . S
C139 O123 1.245 . S
C139 O124 1.259 . S
Tb140 O143 2.453 . S
Tb140 O144 2.596 . S
Tb140 O145 2.374 . S
Tb140 O153 2.343 . S
Tb140 O155 2.353 . S
Tb140 O157 2.427 . S
Tb140 O158 2.513 . S
C141 O145 1.251 . S
C141 O147 1.263 . S
Tb142 O144 2.343 . S
Tb142 O147 2.353 . S
Tb142 O150 2.427 . S
Tb142 O151 2.513 . S
Tb142 O152 2.453 . S
Tb142 O153 2.596 . S
Tb142 O154 2.374 . S
O143 Tb140 2.453 . S
O143 C159 1.245 . S
O144 Tb140 2.596 . S
O144 Tb142 2.343 . S
O144 C159 1.259 . S
O145 Tb140 2.374 . S
O145 C141 1.251 . S
C146 O150 1.275 . S
C146 O151 1.246 . S
O147 C141 1.263 . S
O147 Tb142 2.353 . S
C148 O152 1.245 . S
C148 O153 1.259 . S
C149 O154 1.250 . S
C149 O155 1.263 . S
O150 Tb142 2.427 . S
O150 C146 1.275 . S
O151 Tb142 2.513 . S
O151 C146 1.246 . S
O152 Tb142 2.453 . S
O152 C148 1.245 . S
O153 Tb140 2.343 . S
O153 Tb142 2.596 . S
O153 C148 1.259 . S
O154 Tb142 2.374 . S
O154 C149 1.250 . S
O155 Tb140 2.353 . S
O155 C149 1.263 . S
C156 O157 1.275 . S
C156 O158 1.246 . S
O157 Tb140 2.427 . S
O157 C156 1.275 . S
O158 Tb140 2.513 . S
O158 C156 1.246 . S
C159 O143 1.245 . S
C159 O144 1.259 . S
Tb160 O163 2.453 . S
Tb160 O164 2.596 . S
Tb160 O165 2.374 . S
Tb160 O173 2.343 . S
Tb160 O175 2.353 . S
Tb160 O177 2.427 . S
Tb160 O178 2.513 . S
C161 O165 1.251 . S
C161 O167 1.263 . S
Tb162 O164 2.343 . S
Tb162 O167 2.353 . S
Tb162 O170 2.427 . S
Tb162 O171 2.513 . S
Tb162 O172 2.453 . S
Tb162 O173 2.596 . S
Tb162 O174 2.374 . S
O163 Tb160 2.453 . S
O163 C179 1.245 . S
O164 Tb160 2.596 . S
O164 Tb162 2.343 . S
O164 C179 1.259 . S
O165 Tb160 2.374 . S
O165 C161 1.251 . S
C166 O170 1.275 . S
C166 O171 1.246 . S
O167 C161 1.263 . S
O167 Tb162 2.353 . S
C168 O172 1.245 . S
C168 O173 1.259 . S
C169 O174 1.250 . S
C169 O175 1.263 . S
O170 Tb162 2.427 . S
O170 C166 1.275 . S
O171 Tb162 2.513 . S
O171 C166 1.246 . S
O172 Tb162 2.453 . S
O172 C168 1.245 . S
O173 Tb160 2.343 . S
O173 Tb162 2.596 . S
O173 C168 1.259 . S
O174 Tb162 2.374 . S
O174 C169 1.250 . S
O175 Tb160 2.353 . S
O175 C169 1.263 . S
C176 O177 1.275 . S
C176 O178 1.246 . S
O177 Tb160 2.427 . S
O177 C176 1.275 . S
O178 Tb160 2.513 . S
O178 C176 1.246 . S
C179 O163 1.245 . S
C179 O164 1.259 . S
Tb180 O183 2.453 . S
Tb180 O184 2.596 . S
Tb180 O185 2.374 . S
Tb180 O193 2.343 . S
Tb180 O195 2.353 . S
Tb180 O197 2.427 . S
Tb180 O198 2.513 . S
C181 O185 1.251 . S
C181 O187 1.263 . S
Tb182 O184 2.343 . S
Tb182 O187 2.353 . S
Tb182 O190 2.427 . S
Tb182 O191 2.513 . S
Tb182 O192 2.453 . S
Tb182 O193 2.596 . S
Tb182 O194 2.374 . S
O183 Tb180 2.453 . S
O183 C199 1.245 . S
O184 Tb180 2.596 . S
O184 Tb182 2.343 . S
O184 C199 1.259 . S
O185 Tb180 2.374 . S
O185 C181 1.251 . S
C186 O190 1.275 . S
C186 O191 1.246 . S
O187 C181 1.263 . S
O187 Tb182 2.353 . S
C188 O192 1.245 . S
C188 O193 1.259 . S
C189 O194 1.250 . S
C189 O195 1.263 . S
O190 Tb182 2.427 . S
O190 C186 1.275 . S
O191 Tb182 2.513 . S
O191 C186 1.246 . S
O192 Tb182 2.453 . S
O192 C188 1.245 . S
O193 Tb180 2.343 . S
O193 Tb182 2.596 . S
O193 C188 1.259 . S
O194 Tb182 2.374 . S
O194 C189 1.250 . S
O195 Tb180 2.353 . S
O195 C189 1.263 . S
C196 O197 1.275 . S
C196 O198 1.246 . S
O197 Tb180 2.427 . S
O197 C196 1.275 . S
O198 Tb180 2.513 . S
O198 C196 1.246 . S
C199 O183 1.245 . S
C199 O184 1.259 . S
Tb200 O203 2.453 . S
Tb200 O204 2.596 . S
Tb200 O205 2.374 . S
Tb200 O213 2.343 . S
Tb200 O215 2.353 . S
Tb200 O217 2.427 . S
Tb200 O218 2.513 . S
C201 O205 1.251 . S
C201 O207 1.263 . S
Tb202 O204 2.343 . S
Tb202 O207 2.353 . S
Tb202 O210 2.427 . S
Tb202 O211 2.513 . S
Tb202 O212 2.453 . S
Tb202 O213 2.596 . S
Tb202 O214 2.374 . S
O203 Tb200 2.453 . S
O203 C219 1.245 . S
O204 Tb200 2.596 . S
O204 Tb202 2.343 . S
O204 C219 1.259 . S
O205 Tb200 2.374 . S
O205 C201 1.251 . S
C206 O210 1.275 . S
C206 O211 1.246 . S
O207 C201 1.263 . S
O207 Tb202 2.353 . S
C208 O212 1.245 . S
C208 O213 1.259 . S
C209 O214 1.250 . S
C209 O215 1.263 . S
O210 Tb202 2.427 . S
O210 C206 1.275 . S
O211 Tb202 2.513 . S
O211 C206 1.246 . S
O212 Tb202 2.453 . S
O212 C208 1.245 . S
O213 Tb200 2.343 . S
O213 Tb202 2.596 . S
O213 C208 1.259 . S
O214 Tb202 2.374 . S
O214 C209 1.250 . S
O215 Tb200 2.353 . S
O215 C209 1.263 . S
C216 O217 1.275 . S
C216 O218 1.246 . S
O217 Tb200 2.427 . S
O217 C216 1.275 . S
O218 Tb200 2.513 . S
O218 C216 1.246 . S
C219 O203 1.245 . S
C219 O204 1.259 . S
Tb220 O223 2.453 . S
Tb220 O224 2.596 . S
Tb220 O225 2.374 . S
Tb220 O233 2.343 . S
Tb220 O235 2.353 . S
Tb220 O237 2.427 . S
Tb220 O238 2.513 . S
C221 O225 1.251 . S
C221 O227 1.263 . S
Tb222 O224 2.343 . S
Tb222 O227 2.353 . S
Tb222 O230 2.427 . S
Tb222 O231 2.513 . S
Tb222 O232 2.453 . S
Tb222 O233 2.596 . S
Tb222 O234 2.374 . S
O223 Tb220 2.453 . S
O223 C239 1.245 . S
O224 Tb220 2.596 . S
O224 Tb222 2.343 . S
O224 C239 1.259 . S
O225 Tb220 2.374 . S
O225 C221 1.251 . S
C226 O230 1.275 . S
C226 O231 1.246 . S
O227 C221 1.263 . S
O227 Tb222 2.353 . S
C228 O232 1.245 . S
C228 O233 1.259 . S
C229 O234 1.250 . S
C229 O235 1.263 . S
O230 Tb222 2.427 . S
O230 C226 1.275 . S
O231 Tb222 2.513 . S
O231 C226 1.246 . S
O232 Tb222 2.453 . S
O232 C228 1.245 . S
O233 Tb220 2.343 . S
O233 Tb222 2.596 . S
O233 C228 1.259 . S
O234 Tb222 2.374 . S
O234 C229 1.250 . S
O235 Tb220 2.353 . S
O235 C229 1.263 . S
C236 O237 1.275 . S
C236 O238 1.246 . S
O237 Tb220 2.427 . S
O237 C236 1.275 . S
O238 Tb220 2.513 . S
O238 C236 1.246 . S
C239 O223 1.245 . S
C239 O224 1.259 . S
Tb240 O243 2.453 . S
Tb240 O244 2.596 . S
Tb240 O245 2.374 . S
Tb240 O253 2.343 . S
Tb240 O255 2.353 . S
Tb240 O257 2.427 . S
Tb240 O258 2.513 . S
C241 O245 1.251 . S
C241 O247 1.263 . S
Tb242 O244 2.343 . S
Tb242 O247 2.353 . S
Tb242 O250 2.427 . S
Tb242 O251 2.513 . S
Tb242 O252 2.453 . S
Tb242 O253 2.596 . S
Tb242 O254 2.374 . S
O243 Tb240 2.453 . S
O243 C259 1.245 . S
O244 Tb240 2.596 . S
O244 Tb242 2.343 . S
O244 C259 1.259 . S
O245 Tb240 2.374 . S
O245 C241 1.251 . S
C246 O250 1.275 . S
C246 O251 1.246 . S
O247 C241 1.263 . S
O247 Tb242 2.353 . S
C248 O252 1.245 . S
C248 O253 1.259 . S
C249 O254 1.250 . S
C249 O255 1.263 . S
O250 Tb242 2.427 . S
O250 C246 1.275 . S
O251 Tb242 2.513 . S
O251 C246 1.246 . S
O252 Tb242 2.453 . S
O252 C248 1.245 . S
O253 Tb240 2.343 . S
O253 Tb242 2.596 . S
O253 C248 1.259 . S
O254 Tb242 2.374 . S
O254 C249 1.250 . S
O255 Tb240 2.353 . S
O255 C249 1.263 . S
C256 O257 1.275 . S
C256 O258 1.246 . S
O257 Tb240 2.427 . S
O257 C256 1.275 . S
O258 Tb240 2.513 . S
O258 C256 1.246 . S
C259 O243 1.245 . S
C259 O244 1.259 . S
Tb260 O263 2.453 . S
Tb260 O264 2.596 . S
Tb260 O265 2.374 . S
Tb260 O273 2.343 . S
Tb260 O275 2.353 . S
Tb260 O277 2.427 . S
Tb260 O278 2.513 . S
C261 O265 1.251 . S
C261 O267 1.263 . S
Tb262 O264 2.343 . S
Tb262 O267 2.353 . S
Tb262 O270 2.427 . S
Tb262 O271 2.513 . S
Tb262 O272 2.453 . S
Tb262 O273 2.596 . S
Tb262 O274 2.374 . S
O263 Tb260 2.453 . S
O263 C279 1.245 . S
O264 Tb260 2.596 . S
O264 Tb262 2.343 . S
O264 C279 1.259 . S
O265 Tb260 2.374 . S
O265 C261 1.251 . S
C266 O270 1.275 . S
C266 O271 1.246 . S
O267 C261 1.263 . S
O267 Tb262 2.353 . S
C268 O272 1.245 . S
C268 O273 1.259 . S
C269 O274 1.250 . S
C269 O275 1.263 . S
O270 Tb262 2.427 . S
O270 C266 1.275 . S
O271 Tb262 2.513 . S
O271 C266 1.246 . S
O272 Tb262 2.453 . S
O272 C268 1.245 . S
O273 Tb260 2.343 . S
O273 Tb262 2.596 . S
O273 C268 1.259 . S
O274 Tb262 2.374 . S
O274 C269 1.250 . S
O275 Tb260 2.353 . S
O275 C269 1.263 . S
C276 O277 1.275 . S
C276 O278 1.246 . S
O277 Tb260 2.427 . S
O277 C276 1.275 . S
O278 Tb260 2.513 . S
O278 C276 1.246 . S
C279 O263 1.245 . S
C279 O264 1.259 . S
Tb280 O283 2.453 . S
Tb280 O284 2.596 . S
Tb280 O285 2.374 . S
Tb280 O293 2.343 . S
Tb280 O295 2.353 . S
Tb280 O297 2.427 . S
Tb280 O298 2.513 . S
C281 O285 1.251 . S
C281 O287 1.263 . S
Tb282 O284 2.343 . S
Tb282 O287 2.353 . S
Tb282 O290 2.427 . S
Tb282 O291 2.513 . S
Tb282 O292 2.453 . S
Tb282 O293 2.596 . S
Tb282 O294 2.374 . S
O283 Tb280 2.453 . S
O283 C299 1.245 . S
O284 Tb280 2.596 . S
O284 Tb282 2.343 . S
O284 C299 1.259 . S
O285 Tb280 2.374 . S
O285 C281 1.251 . S
C286 O290 1.275 . S
C286 O291 1.246 . S
O287 C281 1.263 . S
O287 Tb282 2.353 . S
C288 O292 1.245 . S
C288 O293 1.259 . S
C289 O294 1.250 . S
C289 O295 1.263 . S
O290 Tb282 2.427 . S
O290 C286 1.275 . S
O291 Tb282 2.513 . S
O291 C286 1.246 . S
O292 Tb282 2.453 . S
O292 C288 1.245 . S
O293 Tb280 2.343 . S
O293 Tb282 2.596 . S
O293 C288 1.259 . S
O294 Tb282 2.374 . S
O294 C289 1.250 . S
O295 Tb280 2.353 . S
O295 C289 1.263 . S
C296 O297 1.275 . S
C296 O298 1.246 . S
O297 Tb280 2.427 . S
O297 C296 1.275 . S
O298 Tb280 2.513 . S
O298 C296 1.246 . S
C299 O283 1.245 . S
C299 O284 1.259 . S
Tb300 O303 2.453 . S
Tb300 O304 2.596 . S
Tb300 O305 2.374 . S
Tb300 O313 2.343 . S
Tb300 O315 2.353 . S
Tb300 O317 2.427 1_655 S
Tb300 O318 2.513 . S
C301 O305 1.251 . S
C301 O307 1.263 . S
Tb302 O304 2.343 . S
Tb302 O307 2.353 . S
Tb302 O310 2.427 . S
Tb302 O311 2.513 . S
Tb302 O312 2.453 . S
Tb302 O313 2.596 . S
Tb302 O314 2.374 . S
O303 Tb300 2.453 . S
O303 C319 1.245 . S
O304 Tb300 2.596 . S
O304 Tb302 2.343 . S
O304 C319 1.259 . S
O305 Tb300 2.374 . S
O305 C301 1.251 . S
C306 O310 1.275 . S
C306 O311 1.246 . S
O307 C301 1.263 . S
O307 Tb302 2.353 . S
C308 O312 1.245 . S
C308 O313 1.259 . S
C309 O314 1.250 . S
C309 O315 1.263 . S
O310 Tb302 2.427 . S
O310 C306 1.275 . S
O311 Tb302 2.513 . S
O311 C306 1.246 . S
O312 Tb302 2.453 . S
O312 C308 1.245 . S
O313 Tb300 2.343 . S
O313 Tb302 2.596 . S
O313 C308 1.259 . S
O314 Tb302 2.374 . S
O314 C309 1.250 . S
O315 Tb300 2.353 . S
O315 C309 1.263 . S
C316 O317 1.275 . S
C316 O318 1.246 1_455 S
O317 Tb300 2.427 1_455 S
O317 C316 1.275 . S
O318 Tb300 2.513 . S
O318 C316 1.246 1_655 S
C319 O303 1.245 . S
C319 O304 1.259 . S
Tb320 O323 2.453 . S
Tb320 O324 2.596 . S
Tb320 O325 2.374 . S
Tb320 O333 2.343 . S
Tb320 O335 2.353 . S
Tb320 O337 2.427 . S
Tb320 O338 2.513 . S
C321 O325 1.251 . S
C321 O327 1.263 . S
Tb322 O324 2.343 . S
Tb322 O327 2.353 . S
Tb322 O330 2.427 . S
Tb322 O331 2.513 . S
Tb322 O332 2.453 . S
Tb322 O333 2.596 . S
Tb322 O334 2.374 . S
O323 Tb320 2.453 . S
O323 C339 1.245 . S
O324 Tb320 2.596 . S
O324 Tb322 2.343 . S
O324 C339 1.259 . S
O325 Tb320 2.374 . S
O325 C321 1.251 . S
C326 O330 1.275 . S
C326 O331 1.246 . S
O327 C321 1.263 . S
O327 Tb322 2.353 . S
C328 O332 1.245 . S
C328 O333 1.259 . S
C329 O334 1.250 . S
C329 O335 1.263 . S
O330 Tb322 2.427 . S
O330 C326 1.275 . S
O331 Tb322 2.513 . S
O331 C326 1.246 . S
O332 Tb322 2.453 . S
O332 C328 1.245 . S
O333 Tb320 2.343 . S
O333 Tb322 2.596 . S
O333 C328 1.259 . S
O334 Tb322 2.374 . S
O334 C329 1.250 . S
O335 Tb320 2.353 . S
O335 C329 1.263 . S
C336 O337 1.275 . S
C336 O338 1.246 . S
O337 Tb320 2.427 . S
O337 C336 1.275 . S
O338 Tb320 2.513 . S
O338 C336 1.246 . S
C339 O323 1.245 . S
C339 O324 1.259 . S
Tb340 O343 2.453 . S
Tb340 O344 2.596 . S
Tb340 O345 2.374 . S
Tb340 O353 2.343 . S
Tb340 O355 2.353 . S
Tb340 O357 2.427 1_545 S
Tb340 O358 2.513 . S
C341 O345 1.251 . S
C341 O347 1.263 . S
Tb342 O344 2.343 . S
Tb342 O347 2.353 . S
Tb342 O350 2.427 . S
Tb342 O351 2.513 . S
Tb342 O352 2.453 . S
Tb342 O353 2.596 . S
Tb342 O354 2.374 . S
O343 Tb340 2.453 . S
O343 C359 1.245 . S
O344 Tb340 2.596 . S
O344 Tb342 2.343 . S
O344 C359 1.259 . S
O345 Tb340 2.374 . S
O345 C341 1.251 . S
C346 O350 1.275 . S
C346 O351 1.246 . S
O347 C341 1.263 . S
O347 Tb342 2.353 . S
C348 O352 1.245 . S
C348 O353 1.259 . S
C349 O354 1.250 . S
C349 O355 1.263 . S
O350 Tb342 2.427 . S
O350 C346 1.275 . S
O351 Tb342 2.513 . S
O351 C346 1.246 . S
O352 Tb342 2.453 . S
O352 C348 1.245 . S
O353 Tb340 2.343 . S
O353 Tb342 2.596 . S
O353 C348 1.259 . S
O354 Tb342 2.374 . S
O354 C349 1.250 . S
O355 Tb340 2.353 . S
O355 C349 1.263 . S
C356 O357 1.275 . S
C356 O358 1.246 1_565 S
O357 Tb340 2.427 1_565 S
O357 C356 1.275 . S
O358 Tb340 2.513 . S
O358 C356 1.246 1_545 S
C359 O343 1.245 . S
C359 O344 1.259 . S
Tb360 O363 2.453 . S
Tb360 O364 2.596 . S
Tb360 O365 2.374 . S
Tb360 O373 2.343 . S
Tb360 O375 2.353 . S
Tb360 O377 2.427 . S
Tb360 O378 2.513 . S
C361 O365 1.251 . S
C361 O367 1.263 . S
Tb362 O364 2.343 . S
Tb362 O367 2.353 . S
Tb362 O370 2.427 1_545 S
Tb362 O371 2.513 . S
Tb362 O372 2.453 . S
Tb362 O373 2.596 . S
Tb362 O374 2.374 . S
O363 Tb360 2.453 . S
O363 C379 1.245 . S
O364 Tb360 2.596 . S
O364 Tb362 2.343 . S
O364 C379 1.259 . S
O365 Tb360 2.374 . S
O365 C361 1.251 . S
C366 O370 1.275 . S
C366 O371 1.246 1_565 S
O367 C361 1.263 . S
O367 Tb362 2.353 . S
C368 O372 1.245 . S
C368 O373 1.259 . S
C369 O374 1.250 . S
C369 O375 1.263 . S
O370 Tb362 2.427 1_565 S
O370 C366 1.275 . S
O371 Tb362 2.513 . S
O371 C366 1.246 1_545 S
O372 Tb362 2.453 . S
O372 C368 1.245 . S
O373 Tb360 2.343 . S
O373 Tb362 2.596 . S
O373 C368 1.259 . S
O374 Tb362 2.374 . S
O374 C369 1.250 . S
O375 Tb360 2.353 . S
O375 C369 1.263 . S
C376 O377 1.275 . S
C376 O378 1.246 . S
O377 Tb360 2.427 . S
O377 C376 1.275 . S
O378 Tb360 2.513 . S
O378 C376 1.246 . S
C379 O363 1.245 . S
C379 O364 1.259 . S
Tb380 O383 2.453 . S
Tb380 O384 2.596 . S
Tb380 O385 2.374 . S
Tb380 O393 2.343 . S
Tb380 O395 2.353 . S
Tb380 O397 2.427 . S
Tb380 O398 2.513 . S
C381 O385 1.251 . S
C381 O387 1.263 . S
Tb382 O384 2.343 . S
Tb382 O387 2.353 . S
Tb382 O390 2.427 1_655 S
Tb382 O391 2.513 . S
Tb382 O392 2.453 . S
Tb382 O393 2.596 . S
Tb382 O394 2.374 . S
O383 Tb380 2.453 . S
O383 C399 1.245 . S
O384 Tb380 2.596 . S
O384 Tb382 2.343 . S
O384 C399 1.259 . S
O385 Tb380 2.374 . S
O385 C381 1.251 . S
C386 O390 1.275 . S
C386 O391 1.246 1_455 S
O387 C381 1.263 . S
O387 Tb382 2.353 . S
C388 O392 1.245 . S
C388 O393 1.259 . S
C389 O394 1.250 . S
C389 O395 1.263 . S
O390 Tb382 2.427 1_455 S
O390 C386 1.275 . S
O391 Tb382 2.513 . S
O391 C386 1.246 1_655 S
O392 Tb382 2.453 . S
O392 C388 1.245 . S
O393 Tb380 2.343 . S
O393 Tb382 2.596 . S
O393 C388 1.259 . S
O394 Tb382 2.374 . S
O394 C389 1.250 . S
O395 Tb380 2.353 . S
O395 C389 1.263 . S
C396 O397 1.275 . S
C396 O398 1.246 . S
O397 Tb380 2.427 . S
O397 C396 1.275 . S
O398 Tb380 2.513 . S
O398 C396 1.246 . S
C399 O383 1.245 . S
C399 O384 1.259 . S
Tb400 O403 2.453 . S
Tb400 O404 2.596 . S
Tb400 O405 2.374 . S
Tb400 O413 2.343 . S
Tb400 O415 2.353 . S
Tb400 O417 2.427 . S
Tb400 O418 2.513 . S
C401 O405 1.251 . S
C401 O407 1.263 . S
Tb402 O404 2.343 . S
Tb402 O407 2.353 . S
Tb402 O410 2.427 . S
Tb402 O411 2.513 . S
Tb402 O412 2.453 . S
Tb402 O413 2.596 . S
Tb402 O414 2.374 . S
O403 Tb400 2.453 . S
O403 C419 1.245 . S
O404 Tb400 2.596 . S
O404 Tb402 2.343 . S
O404 C419 1.259 . S
O405 Tb400 2.374 . S
O405 C401 1.251 . S
C406 O410 1.275 . S
C406 O411 1.246 . S
O407 C401 1.263 . S
O407 Tb402 2.353 . S
C408 O412 1.245 . S
C408 O413 1.259 . S
C409 O414 1.250 . S
C409 O415 1.263 . S
O410 Tb402 2.427 . S
O410 C406 1.275 . S
O411 Tb402 2.513 . S
O411 C406 1.246 . S
O412 Tb402 2.453 . S
O412 C408 1.245 . S
O413 Tb400 2.343 . S
O413 Tb402 2.596 . S
O413 C408 1.259 . S
O414 Tb402 2.374 . S
O414 C409 1.250 . S
O415 Tb400 2.353 . S
O415 C409 1.263 . S
C416 O417 1.275 . S
C416 O418 1.246 . S
O417 Tb400 2.427 . S
O417 C416 1.275 . S
O418 Tb400 2.513 . S
O418 C416 1.246 . S
C419 O403 1.245 . S
C419 O404 1.259 . S
Tb420 O423 2.453 . S
Tb420 O424 2.596 . S
Tb420 O425 2.374 . S
Tb420 O433 2.343 1_556 S
Tb420 O435 2.353 . S
Tb420 O437 2.427 . S
Tb420 O438 2.538 . S
C421 O425 1.251 . S
C421 O427 1.263 1_556 S
Tb422 O424 2.343 1_554 S
Tb422 O427 2.353 . S
Tb422 O430 2.427 . S
Tb422 O431 2.532 . S
Tb422 O432 2.453 . S
Tb422 O433 2.596 . S
Tb422 O434 2.374 . S
O423 Tb420 2.453 . S
O423 C439 1.245 . S
O424 Tb420 2.596 . S
O424 Tb422 2.343 1_556 S
O424 C439 1.259 . S
O425 Tb420 2.374 . S
O425 C421 1.251 . S
C426 O430 1.274 1_556 S
C426 O431 1.245 1_556 S
O427 C421 1.263 1_554 S
O427 Tb422 2.353 . S
C428 O432 1.245 . S
C428 O433 1.259 . S
C429 O434 1.250 . S
C429 O435 1.263 1_554 S
O430 Tb422 2.427 . S
O430 C426 1.274 1_554 S
O431 Tb422 2.532 . S
O431 C426 1.245 1_554 S
O432 Tb422 2.453 . S
O432 C428 1.245 . S
O433 Tb420 2.343 1_554 S
O433 Tb422 2.596 . S
O433 C428 1.259 . S
O434 Tb422 2.374 . S
O434 C429 1.250 . S
O435 Tb420 2.353 . S
O435 C429 1.263 1_556 S
C436 O437 1.274 . S
C436 O438 1.245 . S
O437 Tb420 2.427 . S
O437 C436 1.274 . S
O438 Tb420 2.538 . S
O438 C436 1.245 . S
C439 O423 1.245 . S
C439 O424 1.259 . S
Tb440 O443 2.453 . S
Tb440 O444 2.596 . S
Tb440 O445 2.374 . S
Tb440 O453 2.343 1_556 S
Tb440 O455 2.353 . S
Tb440 O457 2.427 . S
Tb440 O458 2.538 . S
C441 O445 1.251 . S
C441 O447 1.263 1_556 S
Tb442 O444 2.343 1_554 S
Tb442 O447 2.353 . S
Tb442 O450 2.427 . S
Tb442 O451 2.532 . S
Tb442 O452 2.453 . S
Tb442 O453 2.596 . S
Tb442 O454 2.374 . S
O443 Tb440 2.453 . S
O443 C459 1.245 . S
O444 Tb440 2.596 . S
O444 Tb442 2.343 1_556 S
O444 C459 1.259 . S
O445 Tb440 2.374 . S
O445 C441 1.251 . S
C446 O450 1.274 1_556 S
C446 O451 1.245 1_556 S
O447 C441 1.263 1_554 S
O447 Tb442 2.353 . S
C448 O452 1.245 . S
C448 O453 1.259 . S
C449 O454 1.250 . S
C449 O455 1.263 1_554 S
O450 Tb442 2.427 . S
O450 C446 1.274 1_554 S
O451 Tb442 2.532 . S
O451 C446 1.245 1_554 S
O452 Tb442 2.453 . S
O452 C448 1.245 . S
O453 Tb440 2.343 1_554 S
O453 Tb442 2.596 . S
O453 C448 1.259 . S
O454 Tb442 2.374 . S
O454 C449 1.250 . S
O455 Tb440 2.353 . S
O455 C449 1.263 1_556 S
C456 O457 1.274 . S
C456 O458 1.245 . S
O457 Tb440 2.427 . S
O457 C456 1.274 . S
O458 Tb440 2.538 . S
O458 C456 1.245 . S
C459 O443 1.245 . S
C459 O444 1.259 . S
Tb460 O463 2.453 . S
Tb460 O464 2.596 . S
Tb460 O465 2.374 . S
Tb460 O473 2.343 1_556 S
Tb460 O475 2.353 . S
Tb460 O477 2.427 . S
Tb460 O478 2.538 . S
C461 O465 1.251 . S
C461 O467 1.263 1_556 S
Tb462 O464 2.343 1_554 S
Tb462 O467 2.353 . S
Tb462 O470 2.427 . S
Tb462 O471 2.532 . S
Tb462 O472 2.453 . S
Tb462 O473 2.596 . S
Tb462 O474 2.374 . S
O463 Tb460 2.453 . S
O463 C479 1.245 . S
O464 Tb460 2.596 . S
O464 Tb462 2.343 1_556 S
O464 C479 1.259 . S
O465 Tb460 2.374 . S
O465 C461 1.251 . S
C466 O470 1.274 1_556 S
C466 O471 1.245 1_556 S
O467 C461 1.263 1_554 S
O467 Tb462 2.353 . S
C468 O472 1.245 . S
C468 O473 1.259 . S
C469 O474 1.250 . S
C469 O475 1.263 1_554 S
O470 Tb462 2.427 . S
O470 C466 1.274 1_554 S
O471 Tb462 2.532 . S
O471 C466 1.245 1_554 S
O472 Tb462 2.453 . S
O472 C468 1.245 . S
O473 Tb460 2.343 1_554 S
O473 Tb462 2.596 . S
O473 C468 1.259 . S
O474 Tb462 2.374 . S
O474 C469 1.250 . S
O475 Tb460 2.353 . S
O475 C469 1.263 1_556 S
C476 O477 1.274 . S
C476 O478 1.245 . S
O477 Tb460 2.427 . S
O477 C476 1.274 . S
O478 Tb460 2.538 . S
O478 C476 1.245 . S
C479 O463 1.245 . S
C479 O464 1.259 . S
Tb480 O483 2.453 . S
Tb480 O484 2.596 . S
Tb480 O485 2.374 . S
Tb480 O493 2.343 . S
Tb480 O495 2.353 . S
Tb480 O497 2.427 1_565 S
Tb480 O498 2.513 . S
C481 O485 1.251 . S
C481 O487 1.263 . S
Tb482 O484 2.343 . S
Tb482 O487 2.353 . S
Tb482 O490 2.427 . S
Tb482 O491 2.513 . S
Tb482 O492 2.453 . S
Tb482 O493 2.596 . S
Tb482 O494 2.374 . S
O483 Tb480 2.453 . S
O483 C499 1.245 . S
O484 Tb480 2.596 . S
O484 Tb482 2.343 . S
O484 C499 1.259 . S
O485 Tb480 2.374 . S
O485 C481 1.251 . S
C486 O490 1.275 . S
C486 O491 1.246 . S
O487 C481 1.263 . S
O487 Tb482 2.353 . S
C488 O492 1.245 . S
C488 O493 1.259 . S
C489 O494 1.250 . S
C489 O495 1.263 . S
O490 Tb482 2.427 . S
O490 C486 1.275 . S
O491 Tb482 2.513 . S
O491 C486 1.246 . S
O492 Tb482 2.453 . S
O492 C488 1.245 . S
O493 Tb480 2.343 . S
O493 Tb482 2.596 . S
O493 C488 1.259 . S
O494 Tb482 2.374 . S
O494 C489 1.250 . S
O495 Tb480 2.353 . S
O495 C489 1.263 . S
C496 O497 1.275 . S
C496 O498 1.246 1_545 S
O497 Tb480 2.427 1_545 S
O497 C496 1.275 . S
O498 Tb480 2.513 . S
O498 C496 1.246 1_565 S
C499 O483 1.245 . S
C499 O484 1.259 . S
Tb500 O503 2.453 . S
Tb500 O504 2.596 . S
Tb500 O505 2.374 . S
Tb500 O513 2.343 . S
Tb500 O515 2.353 . S
Tb500 O517 2.427 1_455 S
Tb500 O518 2.513 . S
C501 O505 1.251 . S
C501 O507 1.263 . S
Tb502 O504 2.343 . S
Tb502 O507 2.353 . S
Tb502 O510 2.427 . S
Tb502 O511 2.513 . S
Tb502 O512 2.453 . S
Tb502 O513 2.596 . S
Tb502 O514 2.374 . S
O503 Tb500 2.453 . S
O503 C519 1.245 . S
O504 Tb500 2.596 . S
O504 Tb502 2.343 . S
O504 C519 1.259 . S
O505 Tb500 2.374 . S
O505 C501 1.251 . S
C506 O510 1.275 . S
C506 O511 1.246 . S
O507 C501 1.263 . S
O507 Tb502 2.353 . S
C508 O512 1.245 . S
C508 O513 1.259 . S
C509 O514 1.250 . S
C509 O515 1.263 . S
O510 Tb502 2.427 . S
O510 C506 1.275 . S
O511 Tb502 2.513 . S
O511 C506 1.246 . S
O512 Tb502 2.453 . S
O512 C508 1.245 . S
O513 Tb500 2.343 . S
O513 Tb502 2.596 . S
O513 C508 1.259 . S
O514 Tb502 2.374 . S
O514 C509 1.250 . S
O515 Tb500 2.353 . S
O515 C509 1.263 . S
C516 O517 1.275 . S
C516 O518 1.246 1_655 S
O517 Tb500 2.427 1_655 S
O517 C516 1.275 . S
O518 Tb500 2.513 . S
O518 C516 1.246 1_455 S
C519 O503 1.245 . S
C519 O504 1.259 . S
Tb520 O523 2.453 . S
Tb520 O524 2.596 . S
Tb520 O525 2.374 . S
Tb520 O533 2.343 . S
Tb520 O535 2.353 . S
Tb520 O537 2.427 . S
Tb520 O538 2.513 . S
C521 O525 1.251 . S
C521 O527 1.263 . S
Tb522 O524 2.343 . S
Tb522 O527 2.353 . S
Tb522 O530 2.427 . S
Tb522 O531 2.513 . S
Tb522 O532 2.453 . S
Tb522 O533 2.596 . S
Tb522 O534 2.374 . S
O523 Tb520 2.453 . S
O523 C539 1.245 . S
O524 Tb520 2.596 . S
O524 Tb522 2.343 . S
O524 C539 1.259 . S
O525 Tb520 2.374 . S
O525 C521 1.251 . S
C526 O530 1.275 . S
C526 O531 1.246 . S
O527 C521 1.263 . S
O527 Tb522 2.353 . S
C528 O532 1.245 . S
C528 O533 1.259 . S
C529 O534 1.250 . S
C529 O535 1.263 . S
O530 Tb522 2.427 . S
O530 C526 1.275 . S
O531 Tb522 2.513 . S
O531 C526 1.246 . S
O532 Tb522 2.453 . S
O532 C528 1.245 . S
O533 Tb520 2.343 . S
O533 Tb522 2.596 . S
O533 C528 1.259 . S
O534 Tb522 2.374 . S
O534 C529 1.250 . S
O535 Tb520 2.353 . S
O535 C529 1.263 . S
C536 O537 1.275 . S
C536 O538 1.246 . S
O537 Tb520 2.427 . S
O537 C536 1.275 . S
O538 Tb520 2.513 . S
O538 C536 1.246 . S
C539 O523 1.245 . S
C539 O524 1.259 . S
Tb540 O543 2.453 . S
Tb540 O544 2.596 . S
Tb540 O545 2.374 . S
Tb540 O553 2.343 1_556 S
Tb540 O555 2.353 . S
Tb540 O557 2.427 . S
Tb540 O558 2.532 . S
C541 O545 1.251 . S
C541 O547 1.263 1_556 S
Tb542 O544 2.343 1_554 S
Tb542 O547 2.353 . S
Tb542 O550 2.427 . S
Tb542 O551 2.538 . S
Tb542 O552 2.453 . S
Tb542 O553 2.596 . S
Tb542 O554 2.374 . S
O543 Tb540 2.453 . S
O543 C559 1.245 . S
O544 Tb540 2.596 . S
O544 Tb542 2.343 1_556 S
O544 C559 1.259 . S
O545 Tb540 2.374 . S
O545 C541 1.251 . S
C546 O550 1.274 . S
C546 O551 1.245 . S
O547 C541 1.263 1_554 S
O547 Tb542 2.353 . S
C548 O552 1.245 . S
C548 O553 1.259 . S
C549 O554 1.250 . S
C549 O555 1.263 1_554 S
O550 Tb542 2.427 . S
O550 C546 1.274 . S
O551 Tb542 2.538 . S
O551 C546 1.245 . S
O552 Tb542 2.453 . S
O552 C548 1.245 . S
O553 Tb540 2.343 1_554 S
O553 Tb542 2.596 . S
O553 C548 1.259 . S
O554 Tb542 2.374 . S
O554 C549 1.250 . S
O555 Tb540 2.353 . S
O555 C549 1.263 1_556 S
C556 O557 1.274 1_554 S
C556 O558 1.245 1_554 S
O557 Tb540 2.427 . S
O557 C556 1.274 1_556 S
O558 Tb540 2.532 . S
O558 C556 1.245 1_556 S
C559 O543 1.245 . S
C559 O544 1.259 . S
Tb560 O563 2.453 . S
Tb560 O564 2.596 . S
Tb560 O565 2.374 . S
Tb560 O573 2.343 1_556 S
Tb560 O575 2.353 . S
Tb560 O577 2.427 . S
Tb560 O578 2.532 . S
C561 O565 1.251 . S
C561 O567 1.263 1_556 S
Tb562 O564 2.343 1_554 S
Tb562 O567 2.353 . S
Tb562 O570 2.427 . S
Tb562 O571 2.538 . S
Tb562 O572 2.453 . S
Tb562 O573 2.596 . S
Tb562 O574 2.374 . S
O563 Tb560 2.453 . S
O563 C579 1.245 . S
O564 Tb560 2.596 . S
O564 Tb562 2.343 1_556 S
O564 C579 1.259 . S
O565 Tb560 2.374 . S
O565 C561 1.251 . S
C566 O570 1.274 . S
C566 O571 1.245 . S
O567 C561 1.263 1_554 S
O567 Tb562 2.353 . S
C568 O572 1.245 . S
C568 O573 1.259 . S
C569 O574 1.250 . S
C569 O575 1.263 1_554 S
O570 Tb562 2.427 . S
O570 C566 1.274 . S
O571 Tb562 2.538 . S
O571 C566 1.245 . S
O572 Tb562 2.453 . S
O572 C568 1.245 . S
O573 Tb560 2.343 1_554 S
O573 Tb562 2.596 . S
O573 C568 1.259 . S
O574 Tb562 2.374 . S
O574 C569 1.250 . S
O575 Tb560 2.353 . S
O575 C569 1.263 1_556 S
C576 O577 1.274 1_554 S
C576 O578 1.245 1_554 S
O577 Tb560 2.427 . S
O577 C576 1.274 1_556 S
O578 Tb560 2.532 . S
O578 C576 1.245 1_556 S
C579 O563 1.245 . S
C579 O564 1.259 . S
Tb580 O583 2.453 . S
Tb580 O584 2.596 . S
Tb580 O585 2.374 . S
Tb580 O593 2.343 1_556 S
Tb580 O595 2.353 . S
Tb580 O597 2.427 . S
Tb580 O598 2.532 . S
C581 O585 1.251 . S
C581 O587 1.263 1_556 S
Tb582 O584 2.343 1_554 S
Tb582 O587 2.353 . S
Tb582 O590 2.427 . S
Tb582 O591 2.538 . S
Tb582 O592 2.453 . S
Tb582 O593 2.596 . S
Tb582 O594 2.374 . S
O583 Tb580 2.453 . S
O583 C599 1.245 . S
O584 Tb580 2.596 . S
O584 Tb582 2.343 1_556 S
O584 C599 1.259 . S
O585 Tb580 2.374 . S
O585 C581 1.251 . S
C586 O590 1.274 . S
C586 O591 1.245 . S
O587 C581 1.263 1_554 S
O587 Tb582 2.353 . S
C588 O592 1.245 . S
C588 O593 1.259 . S
C589 O594 1.250 . S
C589 O595 1.263 1_554 S
O590 Tb582 2.427 . S
O590 C586 1.274 . S
O591 Tb582 2.538 . S
O591 C586 1.245 . S
O592 Tb582 2.453 . S
O592 C588 1.245 . S
O593 Tb580 2.343 1_554 S
O593 Tb582 2.596 . S
O593 C588 1.259 . S
O594 Tb582 2.374 . S
O594 C589 1.250 . S
O595 Tb580 2.353 . S
O595 C589 1.263 1_556 S
C596 O597 1.274 1_554 S
C596 O598 1.245 1_554 S
O597 Tb580 2.427 . S
O597 C596 1.274 1_556 S
O598 Tb580 2.532 . S
O598 C596 1.245 1_556 S
C599 O583 1.245 . S
C599 O584 1.259 . S
Tb600 O603 2.453 . S
Tb600 O604 2.596 . S
Tb600 O605 2.374 . S
Tb600 O613 2.343 . S
Tb600 O615 2.353 . S
Tb600 O617 2.427 . S
Tb600 O618 2.513 . S
C601 O605 1.251 . S
C601 O607 1.263 . S
Tb602 O604 2.343 . S
Tb602 O607 2.353 . S
Tb602 O610 2.427 . S
Tb602 O611 2.513 . S
Tb602 O612 2.453 . S
Tb602 O613 2.596 . S
Tb602 O614 2.374 . S
O603 Tb600 2.453 . S
O603 C619 1.245 . S
O604 Tb600 2.596 . S
O604 Tb602 2.343 . S
O604 C619 1.259 . S
O605 Tb600 2.374 . S
O605 C601 1.251 . S
C606 O610 1.275 . S
C606 O611 1.246 . S
O607 C601 1.263 . S
O607 Tb602 2.353 . S
C608 O612 1.245 . S
C608 O613 1.259 . S
C609 O614 1.250 . S
C609 O615 1.263 . S
O610 Tb602 2.427 . S
O610 C606 1.275 . S
O611 Tb602 2.513 . S
O611 C606 1.246 . S
O612 Tb602 2.453 . S
O612 C608 1.245 . S
O613 Tb600 2.343 . S
O613 Tb602 2.596 . S
O613 C608 1.259 . S
O614 Tb602 2.374 . S
O614 C609 1.250 . S
O615 Tb600 2.353 . S
O615 C609 1.263 . S
C616 O617 1.275 . S
C616 O618 1.246 . S
O617 Tb600 2.427 . S
O617 C616 1.275 . S
O618 Tb600 2.513 . S
O618 C616 1.246 . S
C619 O603 1.245 . S
C619 O604 1.259 . S
Tb620 O623 2.453 . S
Tb620 O624 2.596 . S
Tb620 O625 2.374 . S
Tb620 O633 2.343 . S
Tb620 O635 2.353 . S
Tb620 O637 2.427 . S
Tb620 O638 2.513 . S
C621 O625 1.251 . S
C621 O627 1.263 . S
Tb622 O624 2.343 . S
Tb622 O627 2.353 . S
Tb622 O630 2.427 . S
Tb622 O631 2.513 . S
Tb622 O632 2.453 . S
Tb622 O633 2.596 . S
Tb622 O634 2.374 . S
O623 Tb620 2.453 . S
O623 C639 1.245 . S
O624 Tb620 2.596 . S
O624 Tb622 2.343 . S
O624 C639 1.259 . S
O625 Tb620 2.374 . S
O625 C621 1.251 . S
C626 O630 1.275 . S
C626 O631 1.246 . S
O627 C621 1.263 . S
O627 Tb622 2.353 . S
C628 O632 1.245 . S
C628 O633 1.259 . S
C629 O634 1.250 . S
C629 O635 1.263 . S
O630 Tb622 2.427 . S
O630 C626 1.275 . S
O631 Tb622 2.513 . S
O631 C626 1.246 . S
O632 Tb622 2.453 . S
O632 C628 1.245 . S
O633 Tb620 2.343 . S
O633 Tb622 2.596 . S
O633 C628 1.259 . S
O634 Tb622 2.374 . S
O634 C629 1.250 . S
O635 Tb620 2.353 . S
O635 C629 1.263 . S
C636 O637 1.275 . S
C636 O638 1.246 . S
O637 Tb620 2.427 . S
O637 C636 1.275 . S
O638 Tb620 2.513 . S
O638 C636 1.246 . S
C639 O623 1.245 . S
C639 O624 1.259 . S
Tb640 O643 2.453 . S
Tb640 O644 2.596 . S
Tb640 O645 2.374 . S
Tb640 O653 2.343 . S
Tb640 O655 2.353 . S
Tb640 O657 2.427 . S
Tb640 O658 2.513 . S
C641 O645 1.251 . S
C641 O647 1.263 . S
Tb642 O644 2.343 . S
Tb642 O647 2.353 . S
Tb642 O650 2.427 . S
Tb642 O651 2.513 . S
Tb642 O652 2.453 . S
Tb642 O653 2.596 . S
Tb642 O654 2.374 . S
O643 Tb640 2.453 . S
O643 C659 1.245 . S
O644 Tb640 2.596 . S
O644 Tb642 2.343 . S
O644 C659 1.259 . S
O645 Tb640 2.374 . S
O645 C641 1.251 . S
C646 O650 1.275 . S
C646 O651 1.246 . S
O647 C641 1.263 . S
O647 Tb642 2.353 . S
C648 O652 1.245 . S
C648 O653 1.259 . S
C649 O654 1.250 . S
C649 O655 1.263 . S
O650 Tb642 2.427 . S
O650 C646 1.275 . S
O651 Tb642 2.513 . S
O651 C646 1.246 . S
O652 Tb642 2.453 . S
O652 C648 1.245 . S
O653 Tb640 2.343 . S
O653 Tb642 2.596 . S
O653 C648 1.259 . S
O654 Tb642 2.374 . S
O654 C649 1.250 . S
O655 Tb640 2.353 . S
O655 C649 1.263 . S
C656 O657 1.275 . S
C656 O658 1.246 . S
O657 Tb640 2.427 . S
O657 C656 1.275 . S
O658 Tb640 2.513 . S
O658 C656 1.246 . S
C659 O643 1.245 . S
C659 O644 1.259 . S
Tb660 O663 2.453 . S
Tb660 O664 2.596 . S
Tb660 O665 2.374 . S
Tb660 O673 2.343 . S
Tb660 O675 2.353 . S
Tb660 O677 2.427 . S
Tb660 O678 2.513 . S
C661 O665 1.251 . S
C661 O667 1.263 . S
Tb662 O664 2.343 . S
Tb662 O667 2.353 . S
Tb662 O670 2.427 1_455 S
Tb662 O671 2.513 . S
Tb662 O672 2.453 . S
Tb662 O673 2.596 . S
Tb662 O674 2.374 . S
O663 Tb660 2.453 . S
O663 C679 1.245 . S
O664 Tb660 2.596 . S
O664 Tb662 2.343 . S
O664 C679 1.259 . S
O665 Tb660 2.374 . S
O665 C661 1.251 . S
C666 O670 1.275 . S
C666 O671 1.246 1_655 S
O667 C661 1.263 . S
O667 Tb662 2.353 . S
C668 O672 1.245 . S
C668 O673 1.259 . S
C669 O674 1.250 . S
C669 O675 1.263 . S
O670 Tb662 2.427 1_655 S
O670 C666 1.275 . S
O671 Tb662 2.513 . S
O671 C666 1.246 1_455 S
O672 Tb662 2.453 . S
O672 C668 1.245 . S
O673 Tb660 2.343 . S
O673 Tb662 2.596 . S
O673 C668 1.259 . S
O674 Tb662 2.374 . S
O674 C669 1.250 . S
O675 Tb660 2.353 . S
O675 C669 1.263 . S
C676 O677 1.275 . S
C676 O678 1.246 . S
O677 Tb660 2.427 . S
O677 C676 1.275 . S
O678 Tb660 2.513 . S
O678 C676 1.246 . S
C679 O663 1.245 . S
C679 O664 1.259 . S
Tb680 O683 2.453 . S
Tb680 O684 2.596 . S
Tb680 O685 2.374 . S
Tb680 O693 2.343 . S
Tb680 O695 2.353 . S
Tb680 O697 2.427 . S
Tb680 O698 2.513 . S
C681 O685 1.251 . S
C681 O687 1.263 . S
Tb682 O684 2.343 . S
Tb682 O687 2.353 . S
Tb682 O690 2.427 . S
Tb682 O691 2.513 . S
Tb682 O692 2.453 . S
Tb682 O693 2.596 . S
Tb682 O694 2.374 . S
O683 Tb680 2.453 . S
O683 C699 1.245 . S
O684 Tb680 2.596 . S
O684 Tb682 2.343 . S
O684 C699 1.259 . S
O685 Tb680 2.374 . S
O685 C681 1.251 . S
C686 O690 1.275 . S
C686 O691 1.246 . S
O687 C681 1.263 . S
O687 Tb682 2.353 . S
C688 O692 1.245 . S
C688 O693 1.259 . S
C689 O694 1.250 . S
C689 O695 1.263 . S
O690 Tb682 2.427 . S
O690 C686 1.275 . S
O691 Tb682 2.513 . S
O691 C686 1.246 . S
O692 Tb682 2.453 . S
O692 C688 1.245 . S
O693 Tb680 2.343 . S
O693 Tb682 2.596 . S
O693 C688 1.259 . S
O694 Tb682 2.374 . S
O694 C689 1.250 . S
O695 Tb680 2.353 . S
O695 C689 1.263 . S
C696 O697 1.275 . S
C696 O698 1.246 . S
O697 Tb680 2.427 . S
O697 C696 1.275 . S
O698 Tb680 2.513 . S
O698 C696 1.246 . S
C699 O683 1.245 . S
C699 O684 1.259 . S
Tb700 O703 2.453 . S
Tb700 O704 2.596 . S
Tb700 O705 2.374 . S
Tb700 O713 2.343 . S
Tb700 O715 2.353 . S
Tb700 O717 2.427 . S
Tb700 O718 2.513 . S
C701 O705 1.251 . S
C701 O707 1.263 . S
Tb702 O704 2.343 . S
Tb702 O707 2.353 . S
Tb702 O710 2.427 1_565 S
Tb702 O711 2.513 . S
Tb702 O712 2.453 . S
Tb702 O713 2.596 . S
Tb702 O714 2.374 . S
O703 Tb700 2.453 . S
O703 C719 1.245 . S
O704 Tb700 2.596 . S
O704 Tb702 2.343 . S
O704 C719 1.259 . S
O705 Tb700 2.374 . S
O705 C701 1.251 . S
C706 O710 1.275 . S
C706 O711 1.246 1_545 S
O707 C701 1.263 . S
O707 Tb702 2.353 . S
C708 O712 1.245 . S
C708 O713 1.259 . S
C709 O714 1.250 . S
C709 O715 1.263 . S
O710 Tb702 2.427 1_545 S
O710 C706 1.275 . S
O711 Tb702 2.513 . S
O711 C706 1.246 1_565 S
O712 Tb702 2.453 . S
O712 C708 1.245 . S
O713 Tb700 2.343 . S
O713 Tb702 2.596 . S
O713 C708 1.259 . S
O714 Tb702 2.374 . S
O714 C709 1.250 . S
O715 Tb700 2.353 . S
O715 C709 1.263 . S
C716 O717 1.275 . S
C716 O718 1.246 . S
O717 Tb700 2.427 . S
O717 C716 1.275 . S
O718 Tb700 2.513 . S
O718 C716 1.246 . S
C719 O703 1.245 . S
C719 O704 1.259 . S
H720 C726 0.930 . S
H721 C729 0.930 . S
H722 C730 0.930 . S
H723 C731 0.930 . S
H724 C734 0.930 . S
H725 C735 0.930 . S
C726 H720 0.930 . S
C726 C727 1.355 . S
C726 C728 1.415 . S
C727 C726 1.355 . S
C727 C729 1.419 . S
C728 C726 1.415 . S
C728 C733 1.425 . S
C728 C735 1.409 . S
C729 H721 0.930 . S
C729 C727 1.419 . S
C729 C730 1.362 . S
C730 H722 0.930 . S
C730 C729 1.362 . S
C730 C733 1.409 . S
C731 H723 0.930 . S
C731 C732 1.355 . S
C731 C733 1.415 . S
C732 C731 1.355 . S
C732 C734 1.419 . S
C733 C728 1.425 . S
C733 C730 1.409 . S
C733 C731 1.415 . S
C734 H724 0.930 . S
C734 C732 1.419 . S
C734 C735 1.362 . S
C735 H725 0.930 . S
C735 C728 1.409 . S
C735 C734 1.362 . S
H736 C742 0.930 . S
H737 C745 0.930 . S
H738 C746 0.930 . S
H739 C747 0.930 . S
H740 C750 0.930 . S
H741 C751 0.930 . S
C742 H736 0.930 . S
C742 C743 1.355 . S
C742 C744 1.415 . S
C743 C742 1.355 . S
C743 C745 1.419 . S
C744 C742 1.415 . S
C744 C749 1.425 . S
C744 C751 1.409 . S
C745 H737 0.930 . S
C745 C743 1.419 . S
C745 C746 1.362 . S
C746 H738 0.930 . S
C746 C745 1.362 . S
C746 C749 1.409 . S
C747 H739 0.930 . S
C747 C748 1.355 1_545 S
C747 C749 1.415 . S
C748 C747 1.355 1_565 S
C748 C750 1.419 . S
C749 C744 1.425 . S
C749 C746 1.409 . S
C749 C747 1.415 . S
C750 H740 0.930 . S
C750 C748 1.419 . S
C750 C751 1.362 1_565 S
C751 H741 0.930 . S
C751 C744 1.409 . S
C751 C750 1.362 1_545 S
H752 C758 0.927 1_455 S
H753 C761 0.930 . S
H754 C762 0.930 . S
H755 C763 0.930 . S
H756 C766 0.930 . S
H757 C767 0.930 . S
C758 H752 0.927 1_655 S
C758 C759 1.347 1_655 S
C758 C760 1.426 . S
C759 C758 1.347 1_455 S
C759 C761 1.419 1_455 S
C760 C758 1.426 . S
C760 C765 1.425 . S
C760 C767 1.409 . S
C761 H753 0.930 . S
C761 C759 1.419 1_655 S
C761 C762 1.362 . S
C762 H754 0.930 . S
C762 C761 1.362 . S
C762 C765 1.409 . S
C763 H755 0.930 . S
C763 C764 1.355 . S
C763 C765 1.415 . S
C764 C763 1.355 . S
C764 C766 1.419 . S
C765 C760 1.425 . S
C765 C762 1.409 . S
C765 C763 1.415 . S
C766 H756 0.930 . S
C766 C764 1.419 . S
C766 C767 1.362 . S
C767 H757 0.930 . S
C767 C760 1.409 . S
C767 C766 1.362 . S
H768 C774 0.930 . S
H769 C777 0.930 . S
H770 C778 0.930 . S
H771 C779 0.930 . S
H772 C782 0.930 1_655 S
H773 C783 0.930 . S
C774 H768 0.930 . S
C774 C775 1.355 . S
C774 C776 1.415 . S
C775 C774 1.355 . S
C775 C777 1.419 . S
C776 C774 1.415 . S
C776 C781 1.425 . S
C776 C783 1.409 . S
C777 H769 0.930 . S
C777 C775 1.419 . S
C777 C778 1.362 . S
C778 H770 0.930 . S
C778 C777 1.362 . S
C778 C781 1.409 . S
C779 H771 0.930 . S
C779 C780 1.355 . S
C779 C781 1.415 . S
C780 C779 1.355 . S
C780 C782 1.419 . S
C781 C776 1.425 . S
C781 C778 1.409 . S
C781 C779 1.415 . S
C782 H772 0.930 1_455 S
C782 C780 1.419 . S
C782 C783 1.362 . S
C783 H773 0.930 . S
C783 C776 1.409 . S
C783 C782 1.362 . S
H784 C790 0.930 . S
H785 C793 0.930 . S
H786 C794 0.930 . S
H787 C795 0.930 1_545 S
H788 C798 0.930 . S
H789 C799 0.930 . S
C790 H784 0.930 . S
C790 C791 1.355 . S
C790 C792 1.415 . S
C791 C790 1.355 . S
C791 C793 1.419 . S
C792 C790 1.415 . S
C792 C797 1.425 . S
C792 C799 1.409 . S
C793 H785 0.930 . S
C793 C791 1.419 . S
C793 C794 1.362 . S
C794 H786 0.930 . S
C794 C793 1.362 . S
C794 C797 1.409 . S
C795 H787 0.930 1_565 S
C795 C796 1.355 1_565 S
C795 C797 1.415 . S
C796 C795 1.355 1_545 S
C796 C798 1.419 1_545 S
C797 C792 1.425 . S
C797 C794 1.409 . S
C797 C795 1.415 . S
C798 H788 0.930 . S
C798 C796 1.419 1_565 S
C798 C799 1.362 . S
C799 H789 0.930 . S
C799 C792 1.409 . S
C799 C798 1.362 . S
H800 C806 0.930 . S
H801 C809 0.930 . S
H802 C810 0.930 . S
H803 C811 0.930 . S
H804 C814 0.930 . S
H805 C815 0.930 . S
C806 H800 0.930 . S
C806 C807 1.355 1_455 S
C806 C808 1.415 . S
C807 C806 1.355 1_655 S
C807 C809 1.419 . S
C808 C806 1.415 . S
C808 C813 1.425 . S
C808 C815 1.409 . S
C809 H801 0.930 . S
C809 C807 1.419 . S
C809 C810 1.362 1_655 S
C810 H802 0.930 . S
C810 C809 1.362 1_455 S
C810 C813 1.409 . S
C811 H803 0.930 . S
C811 C812 1.355 . S
C811 C813 1.415 . S
C812 C811 1.355 . S
C812 C814 1.419 . S
C813 C808 1.425 . S
C813 C810 1.409 . S
C813 C811 1.415 . S
C814 H804 0.930 . S
C814 C812 1.419 . S
C814 C815 1.362 . S
C815 H805 0.930 . S
C815 C808 1.409 . S
C815 C814 1.362 . S
H816 C822 0.930 . S
H817 C825 0.930 . S
H818 C826 0.930 . S
H819 C827 0.930 . S
H820 C830 0.930 1_545 S
H821 C831 0.930 . S
C822 H816 0.930 . S
C822 C823 1.355 . S
C822 C824 1.415 . S
C823 C822 1.355 . S
C823 C825 1.419 . S
C824 C822 1.415 . S
C824 C829 1.425 . S
C824 C831 1.409 . S
C825 H817 0.930 . S
C825 C823 1.419 . S
C825 C826 1.362 . S
C826 H818 0.930 . S
C826 C825 1.362 . S
C826 C829 1.409 . S
C827 H819 0.930 . S
C827 C828 1.355 . S
C827 C829 1.415 . S
C828 C827 1.355 . S
C828 C830 1.419 . S
C829 C824 1.425 . S
C829 C826 1.409 . S
C829 C827 1.415 . S
C830 H820 0.930 1_565 S
C830 C828 1.419 . S
C830 C831 1.362 . S
C831 H821 0.930 . S
C831 C824 1.409 . S
C831 C830 1.362 . S
H832 C838 0.930 . S
H833 C841 0.930 . S
H834 C842 0.930 . S
H835 C843 0.930 . S
H836 C846 0.930 . S
H837 C847 0.930 . S
C838 H832 0.930 . S
C838 C839 1.355 1_565 S
C838 C840 1.415 . S
C839 C838 1.355 1_545 S
C839 C841 1.419 . S
C840 C838 1.415 . S
C840 C845 1.425 . S
C840 C847 1.409 . S
C841 H833 0.930 . S
C841 C839 1.419 . S
C841 C842 1.362 1_545 S
C842 H834 0.930 . S
C842 C841 1.362 1_565 S
C842 C845 1.409 . S
C843 H835 0.930 . S
C843 C844 1.355 . S
C843 C845 1.415 . S
C844 C843 1.355 . S
C844 C846 1.419 . S
C845 C840 1.425 . S
C845 C842 1.409 . S
C845 C843 1.415 . S
C846 H836 0.930 . S
C846 C844 1.419 . S
C846 C847 1.362 . S
C847 H837 0.930 . S
C847 C840 1.409 . S
C847 C846 1.362 . S
H848 C854 0.930 . S
H849 C857 0.930 . S
H850 C858 0.930 . S
H851 C859 0.930 . S
H852 C862 0.930 . S
H853 C863 0.930 . S
C854 H848 0.930 . S
C854 C855 1.355 1_455 S
C854 C856 1.415 . S
C855 C854 1.355 1_655 S
C855 C857 1.419 . S
C856 C854 1.415 . S
C856 C861 1.425 . S
C856 C863 1.409 . S
C857 H849 0.930 . S
C857 C855 1.419 . S
C857 C858 1.362 1_655 S
C858 H850 0.930 . S
C858 C857 1.362 1_455 S
C858 C861 1.409 . S
C859 H851 0.930 . S
C859 C860 1.355 . S
C859 C861 1.415 . S
C860 C859 1.355 . S
C860 C862 1.419 . S
C861 C856 1.425 . S
C861 C858 1.409 . S
C861 C859 1.415 . S
C862 H852 0.930 . S
C862 C860 1.419 . S
C862 C863 1.362 . S
C863 H853 0.930 . S
C863 C856 1.409 . S
C863 C862 1.362 . S
H864 C870 0.930 . S
H865 C873 0.930 . S
H866 C874 0.930 . S
H867 C875 0.930 . S
H868 C878 0.930 . S
H869 C879 0.930 . S
C870 H864 0.930 . S
C870 C871 1.355 . S
C870 C872 1.415 . S
C871 C870 1.355 . S
C871 C873 1.419 . S
C872 C870 1.415 . S
C872 C877 1.425 . S
C872 C879 1.409 . S
C873 H865 0.930 . S
C873 C871 1.419 . S
C873 C874 1.362 . S
C874 H866 0.930 . S
C874 C873 1.362 . S
C874 C877 1.409 . S
C875 H867 0.930 . S
C875 C876 1.355 . S
C875 C877 1.415 . S
C876 C875 1.355 . S
C876 C878 1.419 . S
C877 C872 1.425 . S
C877 C874 1.409 . S
C877 C875 1.415 . S
C878 H868 0.930 . S
C878 C876 1.419 . S
C878 C879 1.362 . S
C879 H869 0.930 . S
C879 C872 1.409 . S
C879 C878 1.362 . S
H880 C886 0.930 . S
H881 C889 0.930 . S
H882 C890 0.930 . S
H883 C891 0.923 1_565 S
H884 C894 0.930 . S
H885 C895 0.930 . S
C886 H880 0.930 . S
C886 C887 1.355 . S
C886 C888 1.415 . S
C887 C886 1.355 . S
C887 C889 1.419 . S
C888 C886 1.415 . S
C888 C893 1.425 . S
C888 C895 1.409 . S
C889 H881 0.930 . S
C889 C887 1.419 . S
C889 C890 1.362 . S
C890 H882 0.930 . S
C890 C889 1.362 . S
C890 C893 1.409 . S
C891 H883 0.923 1_545 S
C891 C892 1.335 1_545 S
C891 C893 1.442 . S
C892 C891 1.335 1_565 S
C892 C894 1.419 1_565 S
C893 C888 1.425 . S
C893 C890 1.409 . S
C893 C891 1.442 . S
C894 H884 0.930 . S
C894 C892 1.419 1_545 S
C894 C895 1.362 . S
C895 H885 0.930 . S
C895 C888 1.409 . S
C895 C894 1.362 . S
H896 C902 0.930 . S
H897 C905 0.930 . S
H898 C906 0.930 . S
H899 C907 0.930 . S
H900 C910 0.930 . S
H901 C911 0.930 . S
C902 H896 0.930 . S
C902 C903 1.355 . S
C902 C904 1.415 . S
C903 C902 1.355 . S
C903 C905 1.419 . S
C904 C902 1.415 . S
C904 C909 1.425 . S
C904 C911 1.409 . S
C905 H897 0.930 . S
C905 C903 1.419 . S
C905 C906 1.362 . S
C906 H898 0.930 . S
C906 C905 1.362 . S
C906 C909 1.409 . S
C907 H899 0.930 . S
C907 C908 1.355 1_655 S
C907 C909 1.415 . S
C908 C907 1.355 1_455 S
C908 C910 1.419 . S
C909 C904 1.425 . S
C909 C906 1.409 . S
C909 C907 1.415 . S
C910 H900 0.930 . S
C910 C908 1.419 . S
C910 C911 1.362 1_455 S
C911 H901 0.930 . S
C911 C904 1.409 . S
C911 C910 1.362 1_655 S
H912 C918 0.930 . S
H913 C921 0.930 . S
H914 C922 0.930 . S
H915 C923 0.930 . S
H916 C926 0.930 . S
H917 C927 0.930 . S
C918 H912 0.930 . S
C918 C919 1.355 . S
C918 C920 1.415 . S
C919 C918 1.355 . S
C919 C921 1.419 . S
C920 C918 1.415 . S
C920 C925 1.425 . S
C920 C927 1.409 . S
C921 H913 0.930 . S
C921 C919 1.419 . S
C921 C922 1.362 . S
C922 H914 0.930 . S
C922 C921 1.362 . S
C922 C925 1.409 . S
C923 H915 0.930 . S
C923 C924 1.355 . S
C923 C925 1.415 . S
C924 C923 1.355 . S
C924 C926 1.419 . S
C925 C920 1.425 . S
C925 C922 1.409 . S
C925 C923 1.415 . S
C926 H916 0.930 . S
C926 C924 1.419 . S
C926 C927 1.362 . S
C927 H917 0.930 . S
C927 C920 1.409 . S
C927 C926 1.362 . S
H928 C934 0.930 . S
H929 C937 0.930 . S
H930 C938 0.930 . S
H931 C939 0.930 . S
H932 C942 0.930 . S
H933 C943 0.930 . S
C934 H928 0.930 . S
C934 C935 1.355 . S
C934 C936 1.415 . S
C935 C934 1.355 . S
C935 C937 1.419 . S
C936 C934 1.415 . S
C936 C941 1.425 . S
C936 C943 1.409 . S
C937 H929 0.930 . S
C937 C935 1.419 . S
C937 C938 1.362 . S
C938 H930 0.930 . S
C938 C937 1.362 . S
C938 C941 1.409 . S
C939 H931 0.930 . S
C939 C940 1.355 . S
C939 C941 1.415 . S
C940 C939 1.355 . S
C940 C942 1.419 . S
C941 C936 1.425 . S
C941 C938 1.409 . S
C941 C939 1.415 . S
C942 H932 0.930 . S
C942 C940 1.419 . S
C942 C943 1.362 . S
C943 H933 0.930 . S
C943 C936 1.409 . S
C943 C942 1.362 . S
H944 C950 0.930 . S
H945 C953 0.930 . S
H946 C954 0.930 . S
H947 C955 0.930 . S
H948 C958 0.930 . S
H949 C959 0.930 . S
C950 H944 0.930 . S
C950 C951 1.355 . S
C950 C952 1.415 . S
C951 C950 1.355 . S
C951 C953 1.419 . S
C952 C950 1.415 . S
C952 C957 1.425 . S
C952 C959 1.409 . S
C953 H945 0.930 . S
C953 C951 1.419 . S
C953 C954 1.362 . S
C954 H946 0.930 . S
C954 C953 1.362 . S
C954 C957 1.409 . S
C955 H947 0.930 . S
C955 C956 1.355 . S
C955 C957 1.415 . S
C956 C955 1.355 . S
C956 C958 1.419 . S
C957 C952 1.425 . S
C957 C954 1.409 . S
C957 C955 1.415 . S
C958 H948 0.930 . S
C958 C956 1.419 . S
C958 C959 1.362 . S
C959 H949 0.930 . S
C959 C952 1.409 . S
C959 C958 1.362 . S
H960 C966 0.930 . S
H961 C969 0.930 . S
H962 C970 0.930 . S
H963 C971 0.930 . S
H964 C974 0.930 . S
H965 C975 0.930 . S
C966 H960 0.930 . S
C966 C967 1.355 . S
C966 C968 1.415 . S
C967 C966 1.355 . S
C967 C969 1.419 . S
C968 C966 1.415 . S
C968 C973 1.425 . S
C968 C975 1.409 . S
C969 H961 0.930 . S
C969 C967 1.419 . S
C969 C970 1.362 . S
C970 H962 0.930 . S
C970 C969 1.362 . S
C970 C973 1.409 . S
C971 H963 0.930 . S
C971 C972 1.355 . S
C971 C973 1.415 . S
C972 C971 1.355 . S
C972 C974 1.419 . S
C973 C968 1.425 . S
C973 C970 1.409 . S
C973 C971 1.415 . S
C974 H964 0.930 . S
C974 C972 1.419 . S
C974 C975 1.362 . S
C975 H965 0.930 . S
C975 C968 1.409 . S
C975 C974 1.362 . S
H976 C982 0.930 . S
H977 C985 0.930 . S
H978 C986 0.930 . S
H979 C987 0.930 . S
H980 C990 0.930 . S
H981 C991 0.930 . S
C982 H976 0.930 . S
C982 C983 1.355 . S
C982 C984 1.415 . S
C983 C982 1.355 . S
C983 C985 1.419 . S
C984 C982 1.415 . S
C984 C989 1.425 . S
C984 C991 1.409 . S
C985 H977 0.930 . S
C985 C983 1.419 . S
C985 C986 1.362 . S
C986 H978 0.930 . S
C986 C985 1.362 . S
C986 C989 1.409 . S
C987 H979 0.930 . S
C987 C988 1.355 . S
C987 C989 1.415 . S
C988 C987 1.355 . S
C988 C990 1.419 . S
C989 C984 1.425 . S
C989 C986 1.409 . S
C989 C987 1.415 . S
C990 H980 0.930 . S
C990 C988 1.419 . S
C990 C991 1.362 . S
C991 H981 0.930 . S
C991 C984 1.409 . S
C991 C990 1.362 . S
H992 C998 0.930 . S
H993 C1001 0.930 . S
H994 C1002 0.930 . S
H995 C1003 0.930 . S
H996 C1006 0.930 . S
H997 C1007 0.930 . S
C998 H992 0.930 . S
C998 C999 1.355 . S
C998 C1000 1.415 . S
C999 C998 1.355 . S
C999 C1001 1.419 . S
C1000 C998 1.415 . S
C1000 C1005 1.425 . S
C1000 C1007 1.409 . S
C1001 H993 0.930 . S
C1001 C999 1.419 . S
C1001 C1002 1.362 . S
C1002 H994 0.930 . S
C1002 C1001 1.362 . S
C1002 C1005 1.409 . S
C1003 H995 0.930 . S
C1003 C1004 1.355 . S
C1003 C1005 1.415 . S
C1004 C1003 1.355 . S
C1004 C1006 1.419 . S
C1005 C1000 1.425 . S
C1005 C1002 1.409 . S
C1005 C1003 1.415 . S
C1006 H996 0.930 . S
C1006 C1004 1.419 . S
C1006 C1007 1.362 . S
C1007 H997 0.930 . S
C1007 C1000 1.409 . S
C1007 C1006 1.362 . S
H1008 C1014 0.930 . S
H1009 C1017 0.930 . S
H1010 C1018 0.930 . S
H1011 C1019 0.930 . S
H1012 C1022 0.930 . S
H1013 C1023 0.930 . S
C1014 H1008 0.930 . S
C1014 C1015 1.355 . S
C1014 C1016 1.415 . S
C1015 C1014 1.355 . S
C1015 C1017 1.419 . S
C1016 C1014 1.415 . S
C1016 C1021 1.425 . S
C1016 C1023 1.409 . S
C1017 H1009 0.930 . S
C1017 C1015 1.419 . S
C1017 C1018 1.362 . S
C1018 H1010 0.930 . S
C1018 C1017 1.362 . S
C1018 C1021 1.409 . S
C1019 H1011 0.930 . S
C1019 C1020 1.355 . S
C1019 C1021 1.415 . S
C1020 C1019 1.355 . S
C1020 C1022 1.419 . S
C1021 C1016 1.425 . S
C1021 C1018 1.409 . S
C1021 C1019 1.415 . S
C1022 H1012 0.930 . S
C1022 C1020 1.419 . S
C1022 C1023 1.362 . S
C1023 H1013 0.930 . S
C1023 C1016 1.409 . S
C1023 C1022 1.362 . S
H1024 C1030 0.930 . S
H1025 C1033 0.930 . S
H1026 C1034 0.930 . S
H1027 C1035 0.930 . S
H1028 C1038 0.930 . S
H1029 C1039 0.930 . S
C1030 H1024 0.930 . S
C1030 C1031 1.355 . S
C1030 C1032 1.415 . S
C1031 C1030 1.355 . S
C1031 C1033 1.419 . S
C1032 C1030 1.415 . S
C1032 C1037 1.425 . S
C1032 C1039 1.409 . S
C1033 H1025 0.930 . S
C1033 C1031 1.419 . S
C1033 C1034 1.362 . S
C1034 H1026 0.930 . S
C1034 C1033 1.362 . S
C1034 C1037 1.409 . S
C1035 H1027 0.930 . S
C1035 C1036 1.355 . S
C1035 C1037 1.415 . S
C1036 C1035 1.355 . S
C1036 C1038 1.419 . S
C1037 C1032 1.425 . S
C1037 C1034 1.409 . S
C1037 C1035 1.415 . S
C1038 H1028 0.930 . S
C1038 C1036 1.419 . S
C1038 C1039 1.362 . S
C1039 H1029 0.930 . S
C1039 C1032 1.409 . S
C1039 C1038 1.362 . S
H1040 C1046 0.930 . S
H1041 C1049 0.930 . S
H1042 C1050 0.930 . S
H1043 C1051 0.930 . S
H1044 C1054 0.930 . S
H1045 C1055 0.930 . S
C1046 H1040 0.930 . S
C1046 C1047 1.355 . S
C1046 C1048 1.415 . S
C1047 C1046 1.355 . S
C1047 C1049 1.419 . S
C1048 C1046 1.415 . S
C1048 C1053 1.425 . S
C1048 C1055 1.409 . S
C1049 H1041 0.930 . S
C1049 C1047 1.419 . S
C1049 C1050 1.362 . S
C1050 H1042 0.930 . S
C1050 C1049 1.362 . S
C1050 C1053 1.409 . S
C1051 H1043 0.930 . S
C1051 C1052 1.355 . S
C1051 C1053 1.415 . S
C1052 C1051 1.355 . S
C1052 C1054 1.419 . S
C1053 C1048 1.425 . S
C1053 C1050 1.409 . S
C1053 C1051 1.415 . S
C1054 H1044 0.930 . S
C1054 C1052 1.419 . S
C1054 C1055 1.362 . S
C1055 H1045 0.930 . S
C1055 C1048 1.409 . S
C1055 C1054 1.362 . S
H1056 C1062 0.930 . S
H1057 C1065 0.924 1_556 S
H1058 C1066 0.931 1_556 S
H1059 C1067 0.930 1_556 S
H1060 C1070 0.930 . S
H1061 C1071 0.930 . S
C1062 H1056 0.930 . S
C1062 C1063 1.355 . S
C1062 C1064 1.415 . S
C1063 C1062 1.355 . S
C1063 C1065 1.427 . S
C1064 C1062 1.415 . S
C1064 C1069 1.425 . S
C1064 C1071 1.409 . S
C1065 H1057 0.924 1_554 S
C1065 C1063 1.427 . S
C1065 C1066 1.361 . S
C1066 H1058 0.931 1_554 S
C1066 C1065 1.361 . S
C1066 C1069 1.408 . S
C1067 H1059 0.930 1_554 S
C1067 C1068 1.355 . S
C1067 C1069 1.415 . S
C1068 C1067 1.355 . S
C1068 C1070 1.419 . S
C1069 C1064 1.425 . S
C1069 C1066 1.408 . S
C1069 C1067 1.415 . S
C1070 H1060 0.930 . S
C1070 C1068 1.419 . S
C1070 C1071 1.362 . S
C1071 H1061 0.930 . S
C1071 C1064 1.409 . S
C1071 C1070 1.362 . S
H1072 C1078 0.929 . S
H1073 C1081 0.930 . S
H1074 C1082 0.930 . S
H1075 C1083 0.930 . S
H1076 C1086 0.941 . S
H1077 C1087 0.930 . S
C1078 H1072 0.929 . S
C1078 C1079 1.355 . S
C1078 C1080 1.415 . S
C1079 C1078 1.355 . S
C1079 C1081 1.419 . S
C1080 C1078 1.415 . S
C1080 C1085 1.425 . S
C1080 C1087 1.409 1_554 S
C1081 H1073 0.930 . S
C1081 C1079 1.419 . S
C1081 C1082 1.362 . S
C1082 H1074 0.930 . S
C1082 C1081 1.362 . S
C1082 C1085 1.409 . S
C1083 H1075 0.930 . S
C1083 C1084 1.355 . S
C1083 C1085 1.415 . S
C1084 C1083 1.355 . S
C1084 C1086 1.409 1_554 S
C1085 C1080 1.425 . S
C1085 C1082 1.409 . S
C1085 C1083 1.415 . S
C1086 H1076 0.941 . S
C1086 C1084 1.409 1_556 S
C1086 C1087 1.365 . S
C1087 H1077 0.930 . S
C1087 C1080 1.409 1_556 S
C1087 C1086 1.365 . S
H1088 C1094 0.930 . S
H1089 C1097 0.930 . S
H1090 C1098 0.930 . S
H1091 C1099 0.930 . S
H1092 C1102 0.930 . S
H1093 C1103 0.930 . S
C1094 H1088 0.930 . S
C1094 C1095 1.355 1_556 S
C1094 C1096 1.415 . S
C1095 C1094 1.355 1_554 S
C1095 C1097 1.419 . S
C1096 C1094 1.415 . S
C1096 C1101 1.425 1_556 S
C1096 C1103 1.409 . S
C1097 H1089 0.930 . S
C1097 C1095 1.419 . S
C1097 C1098 1.362 . S
C1098 H1090 0.930 . S
C1098 C1097 1.362 . S
C1098 C1101 1.409 . S
C1099 H1091 0.930 . S
C1099 C1100 1.355 . S
C1099 C1101 1.415 . S
C1100 C1099 1.355 . S
C1100 C1102 1.419 1_554 S
C1101 C1096 1.425 1_554 S
C1101 C1098 1.409 . S
C1101 C1099 1.415 . S
C1102 H1092 0.930 . S
C1102 C1100 1.419 1_556 S
C1102 C1103 1.362 . S
C1103 H1093 0.930 . S
C1103 C1096 1.409 . S
C1103 C1102 1.362 . S
H1104 C1110 0.930 . S
H1105 C1113 0.930 . S
H1106 C1114 0.930 . S
H1107 C1115 0.930 . S
H1108 C1118 0.930 . S
H1109 C1119 0.930 . S
C1110 H1104 0.930 . S
C1110 C1111 1.355 . S
C1110 C1112 1.415 . S
C1111 C1110 1.355 . S
C1111 C1113 1.419 . S
C1112 C1110 1.415 . S
C1112 C1117 1.425 . S
C1112 C1119 1.409 . S
C1113 H1105 0.930 . S
C1113 C1111 1.419 . S
C1113 C1114 1.362 . S
C1114 H1106 0.930 . S
C1114 C1113 1.362 . S
C1114 C1117 1.409 . S
C1115 H1107 0.930 . S
C1115 C1116 1.355 . S
C1115 C1117 1.415 . S
C1116 C1115 1.355 . S
C1116 C1118 1.419 . S
C1117 C1112 1.425 . S
C1117 C1114 1.409 . S
C1117 C1115 1.415 . S
C1118 H1108 0.930 . S
C1118 C1116 1.419 . S
C1118 C1119 1.362 . S
C1119 H1109 0.930 . S
C1119 C1112 1.409 . S
C1119 C1118 1.362 . S
H1120 C1126 0.930 . S
H1121 C1129 0.930 . S
H1122 C1130 0.930 . S
H1123 C1131 0.930 . S
H1124 C1134 0.930 . S
H1125 C1135 0.930 . S
C1126 H1120 0.930 . S
C1126 C1127 1.355 . S
C1126 C1128 1.415 . S
C1127 C1126 1.355 . S
C1127 C1129 1.419 . S
C1128 C1126 1.415 . S
C1128 C1133 1.425 . S
C1128 C1135 1.409 . S
C1129 H1121 0.930 . S
C1129 C1127 1.419 . S
C1129 C1130 1.362 . S
C1130 H1122 0.930 . S
C1130 C1129 1.362 . S
C1130 C1133 1.409 . S
C1131 H1123 0.930 . S
C1131 C1132 1.355 . S
C1131 C1133 1.415 . S
C1132 C1131 1.355 . S
C1132 C1134 1.419 . S
C1133 C1128 1.425 . S
C1133 C1130 1.409 . S
C1133 C1131 1.415 . S
C1134 H1124 0.930 . S
C1134 C1132 1.419 . S
C1134 C1135 1.362 . S
C1135 H1125 0.930 . S
C1135 C1128 1.409 . S
C1135 C1134 1.362 . S
H1136 C1142 0.930 . S
H1137 C1145 0.930 . S
H1138 C1146 0.930 . S
H1139 C1147 0.930 . S
H1140 C1150 0.930 . S
H1141 C1151 0.930 . S
C1142 H1136 0.930 . S
C1142 C1143 1.355 . S
C1142 C1144 1.415 . S
C1143 C1142 1.355 . S
C1143 C1145 1.419 . S
C1144 C1142 1.415 . S
C1144 C1149 1.425 . S
C1144 C1151 1.409 . S
C1145 H1137 0.930 . S
C1145 C1143 1.419 . S
C1145 C1146 1.362 . S
C1146 H1138 0.930 . S
C1146 C1145 1.362 . S
C1146 C1149 1.409 . S
C1147 H1139 0.930 . S
C1147 C1148 1.355 . S
C1147 C1149 1.415 . S
C1148 C1147 1.355 . S
C1148 C1150 1.419 . S
C1149 C1144 1.425 . S
C1149 C1146 1.409 . S
C1149 C1147 1.415 . S
C1150 H1140 0.930 . S
C1150 C1148 1.419 . S
C1150 C1151 1.362 . S
C1151 H1141 0.930 . S
C1151 C1144 1.409 . S
C1151 C1150 1.362 . S
H1152 C1158 0.930 . S
H1153 C1161 0.930 . S
H1154 C1162 0.930 . S
H1155 C1163 0.930 . S
H1156 C1166 0.930 . S
H1157 C1167 0.930 . S
C1158 H1152 0.930 . S
C1158 C1159 1.355 . S
C1158 C1160 1.415 . S
C1159 C1158 1.355 . S
C1159 C1161 1.419 1_556 S
C1160 C1158 1.415 . S
C1160 C1165 1.425 1_556 S
C1160 C1167 1.409 . S
C1161 H1153 0.930 . S
C1161 C1159 1.419 1_554 S
C1161 C1162 1.362 . S
C1162 H1154 0.930 . S
C1162 C1161 1.362 . S
C1162 C1165 1.409 . S
C1163 H1155 0.930 . S
C1163 C1164 1.355 1_554 S
C1163 C1165 1.415 . S
C1164 C1163 1.355 1_556 S
C1164 C1166 1.419 . S
C1165 C1160 1.425 1_554 S
C1165 C1162 1.409 . S
C1165 C1163 1.415 . S
C1166 H1156 0.930 . S
C1166 C1164 1.419 . S
C1166 C1167 1.362 . S
C1167 H1157 0.930 . S
C1167 C1160 1.409 . S
C1167 C1166 1.362 . S
H1168 C1174 0.930 . S
H1169 C1177 0.930 . S
H1170 C1178 0.930 . S
H1171 C1179 0.930 . S
H1172 C1182 0.930 . S
H1173 C1183 0.930 . S
C1174 H1168 0.930 . S
C1174 C1175 1.355 . S
C1174 C1176 1.415 . S
C1175 C1174 1.355 . S
C1175 C1177 1.419 1_556 S
C1176 C1174 1.415 . S
C1176 C1181 1.425 1_556 S
C1176 C1183 1.409 . S
C1177 H1169 0.930 . S
C1177 C1175 1.419 1_554 S
C1177 C1178 1.362 . S
C1178 H1170 0.930 . S
C1178 C1177 1.362 . S
C1178 C1181 1.409 . S
C1179 H1171 0.930 . S
C1179 C1180 1.355 1_554 S
C1179 C1181 1.415 . S
C1180 C1179 1.355 1_556 S
C1180 C1182 1.419 . S
C1181 C1176 1.425 1_554 S
C1181 C1178 1.409 . S
C1181 C1179 1.415 . S
C1182 H1172 0.930 . S
C1182 C1180 1.419 . S
C1182 C1183 1.362 . S
C1183 H1173 0.930 . S
C1183 C1176 1.409 . S
C1183 C1182 1.362 . S
H1184 C1190 0.930 . S
H1185 C1193 0.930 . S
H1186 C1194 0.930 . S
H1187 C1195 0.930 . S
H1188 C1198 0.930 . S
H1189 C1199 0.930 . S
C1190 H1184 0.930 . S
C1190 C1191 1.355 . S
C1190 C1192 1.415 . S
C1191 C1190 1.355 . S
C1191 C1193 1.419 . S
C1192 C1190 1.415 . S
C1192 C1197 1.425 . S
C1192 C1199 1.409 . S
C1193 H1185 0.930 . S
C1193 C1191 1.419 . S
C1193 C1194 1.362 . S
C1194 H1186 0.930 . S
C1194 C1193 1.362 . S
C1194 C1197 1.409 . S
C1195 H1187 0.930 . S
C1195 C1196 1.355 . S
C1195 C1197 1.415 . S
C1196 C1195 1.355 . S
C1196 C1198 1.419 . S
C1197 C1192 1.425 . S
C1197 C1194 1.409 . S
C1197 C1195 1.415 . S
C1198 H1188 0.930 . S
C1198 C1196 1.419 . S
C1198 C1199 1.362 . S
C1199 H1189 0.930 . S
C1199 C1192 1.409 . S
C1199 C1198 1.362 . S
H1200 C1206 0.930 . S
H1201 C1209 0.930 . S
H1202 C1210 0.930 . S
H1203 C1211 0.930 . S
H1204 C1214 0.930 . S
H1205 C1215 0.930 . S
C1206 H1200 0.930 . S
C1206 C1207 1.355 . S
C1206 C1208 1.415 . S
C1207 C1206 1.355 . S
C1207 C1209 1.419 . S
C1208 C1206 1.415 . S
C1208 C1213 1.425 . S
C1208 C1215 1.409 . S
C1209 H1201 0.930 . S
C1209 C1207 1.419 . S
C1209 C1210 1.362 . S
C1210 H1202 0.930 . S
C1210 C1209 1.362 . S
C1210 C1213 1.409 . S
C1211 H1203 0.930 . S
C1211 C1212 1.355 . S
C1211 C1213 1.415 . S
C1212 C1211 1.355 . S
C1212 C1214 1.419 . S
C1213 C1208 1.425 . S
C1213 C1210 1.409 . S
C1213 C1211 1.415 . S
C1214 H1204 0.930 . S
C1214 C1212 1.419 . S
C1214 C1215 1.362 . S
C1215 H1205 0.930 . S
C1215 C1208 1.409 . S
C1215 C1214 1.362 . S
H1216 C1222 0.930 . S
H1217 C1225 0.930 . S
H1218 C1226 0.930 . S
H1219 C1227 0.930 . S
H1220 C1230 0.930 . S
H1221 C1231 0.930 . S
C1222 H1216 0.930 . S
C1222 C1223 1.355 . S
C1222 C1224 1.415 . S
C1223 C1222 1.355 . S
C1223 C1225 1.419 . S
C1224 C1222 1.415 . S
C1224 C1229 1.425 . S
C1224 C1231 1.409 . S
C1225 H1217 0.930 . S
C1225 C1223 1.419 . S
C1225 C1226 1.362 . S
C1226 H1218 0.930 . S
C1226 C1225 1.362 . S
C1226 C1229 1.409 . S
C1227 H1219 0.930 . S
C1227 C1228 1.355 . S
C1227 C1229 1.415 . S
C1228 C1227 1.355 . S
C1228 C1230 1.419 . S
C1229 C1224 1.425 . S
C1229 C1226 1.409 . S
C1229 C1227 1.415 . S
C1230 H1220 0.930 . S
C1230 C1228 1.419 . S
C1230 C1231 1.362 . S
C1231 H1221 0.930 . S
C1231 C1224 1.409 . S
C1231 C1230 1.362 . S
H1232 C1238 0.930 . S
H1233 C1241 0.930 . S
H1234 C1242 0.930 . S
H1235 C1243 0.930 . S
H1236 C1246 0.930 . S
H1237 C1247 0.930 . S
C1238 H1232 0.930 . S
C1238 C1239 1.355 . S
C1238 C1240 1.415 . S
C1239 C1238 1.355 . S
C1239 C1241 1.419 . S
C1240 C1238 1.415 . S
C1240 C1245 1.425 . S
C1240 C1247 1.409 . S
C1241 H1233 0.930 . S
C1241 C1239 1.419 . S
C1241 C1242 1.362 . S
C1242 H1234 0.930 . S
C1242 C1241 1.362 . S
C1242 C1245 1.409 . S
C1243 H1235 0.930 . S
C1243 C1244 1.355 . S
C1243 C1245 1.415 . S
C1244 C1243 1.355 . S
C1244 C1246 1.419 . S
C1245 C1240 1.425 . S
C1245 C1242 1.409 . S
C1245 C1243 1.415 . S
C1246 H1236 0.930 . S
C1246 C1244 1.419 . S
C1246 C1247 1.362 . S
C1247 H1237 0.930 . S
C1247 C1240 1.409 . S
C1247 C1246 1.362 . S
H1248 C1254 0.930 . S
H1249 C1257 0.930 . S
H1250 C1258 0.930 . S
H1251 C1259 0.930 . S
H1252 C1262 0.930 . S
H1253 C1263 0.930 . S
C1254 H1248 0.930 . S
C1254 C1255 1.355 . S
C1254 C1256 1.415 . S
C1255 C1254 1.355 . S
C1255 C1257 1.419 . S
C1256 C1254 1.415 . S
C1256 C1261 1.425 . S
C1256 C1263 1.409 . S
C1257 H1249 0.930 . S
C1257 C1255 1.419 . S
C1257 C1258 1.362 . S
C1258 H1250 0.930 . S
C1258 C1257 1.362 . S
C1258 C1261 1.409 . S
C1259 H1251 0.930 . S
C1259 C1260 1.355 . S
C1259 C1261 1.415 . S
C1260 C1259 1.355 . S
C1260 C1262 1.419 . S
C1261 C1256 1.425 . S
C1261 C1258 1.409 . S
C1261 C1259 1.415 . S
C1262 H1252 0.930 . S
C1262 C1260 1.419 . S
C1262 C1263 1.362 . S
C1263 H1253 0.930 . S
C1263 C1256 1.409 . S
C1263 C1262 1.362 . S
H1264 C1270 0.930 . S
H1265 C1273 0.930 . S
H1266 C1274 0.930 . S
H1267 C1275 0.930 . S
H1268 C1278 0.930 . S
H1269 C1279 0.930 . S
C1270 H1264 0.930 . S
C1270 C1271 1.355 . S
C1270 C1272 1.415 . S
C1271 C1270 1.355 . S
C1271 C1273 1.419 . S
C1272 C1270 1.415 . S
C1272 C1277 1.425 . S
C1272 C1279 1.409 . S
C1273 H1265 0.930 . S
C1273 C1271 1.419 . S
C1273 C1274 1.362 . S
C1274 H1266 0.930 . S
C1274 C1273 1.362 . S
C1274 C1277 1.409 . S
C1275 H1267 0.930 . S
C1275 C1276 1.355 . S
C1275 C1277 1.415 . S
C1276 C1275 1.355 . S
C1276 C1278 1.419 . S
C1277 C1272 1.425 . S
C1277 C1274 1.409 . S
C1277 C1275 1.415 . S
C1278 H1268 0.930 . S
C1278 C1276 1.419 . S
C1278 C1279 1.362 . S
C1279 H1269 0.930 . S
C1279 C1272 1.409 . S
C1279 C1278 1.362 . S
H1280 C1286 0.930 . S
H1281 C1289 0.930 . S
H1282 C1290 0.930 . S
H1283 C1291 0.930 . S
H1284 C1294 0.930 . S
H1285 C1295 0.930 . S
C1286 H1280 0.930 . S
C1286 C1287 1.355 . S
C1286 C1288 1.415 . S
C1287 C1286 1.355 . S
C1287 C1289 1.419 . S
C1288 C1286 1.415 . S
C1288 C1293 1.425 . S
C1288 C1295 1.409 . S
C1289 H1281 0.930 . S
C1289 C1287 1.419 . S
C1289 C1290 1.362 . S
C1290 H1282 0.930 . S
C1290 C1289 1.362 . S
C1290 C1293 1.409 . S
C1291 H1283 0.930 . S
C1291 C1292 1.355 . S
C1291 C1293 1.415 . S
C1292 C1291 1.355 . S
C1292 C1294 1.419 . S
C1293 C1288 1.425 . S
C1293 C1290 1.409 . S
C1293 C1291 1.415 . S
C1294 H1284 0.930 . S
C1294 C1292 1.419 . S
C1294 C1295 1.362 . S
C1295 H1285 0.930 . S
C1295 C1288 1.409 . S
C1295 C1294 1.362 . S
H1296 C1302 0.930 . S
H1297 C1305 0.930 . S
H1298 C1306 0.930 . S
H1299 C1307 0.930 . S
H1300 C1310 0.930 . S
H1301 C1311 0.930 . S
C1302 H1296 0.930 . S
C1302 C1303 1.355 . S
C1302 C1304 1.415 . S
C1303 C1302 1.355 . S
C1303 C1305 1.419 . S
C1304 C1302 1.415 . S
C1304 C1309 1.425 . S
C1304 C1311 1.409 . S
C1305 H1297 0.930 . S
C1305 C1303 1.419 . S
C1305 C1306 1.362 . S
C1306 H1298 0.930 . S
C1306 C1305 1.362 . S
C1306 C1309 1.409 . S
C1307 H1299 0.930 . S
C1307 C1308 1.355 . S
C1307 C1309 1.415 . S
C1308 C1307 1.355 . S
C1308 C1310 1.419 . S
C1309 C1304 1.425 . S
C1309 C1306 1.409 . S
C1309 C1307 1.415 . S
C1310 H1300 0.930 . S
C1310 C1308 1.419 . S
C1310 C1311 1.362 . S
C1311 H1301 0.930 . S
C1311 C1304 1.409 . S
C1311 C1310 1.362 . S
H1312 C1318 0.930 . S
H1313 C1321 0.930 1_545 S
H1314 C1322 0.930 . S
H1315 C1323 0.930 . S
H1316 C1326 0.930 . S
H1317 C1327 0.930 . S
C1318 H1312 0.930 . S
C1318 C1319 1.355 . S
C1318 C1320 1.415 . S
C1319 C1318 1.355 . S
C1319 C1321 1.419 . S
C1320 C1318 1.415 . S
C1320 C1325 1.425 . S
C1320 C1327 1.409 . S
C1321 H1313 0.930 1_565 S
C1321 C1319 1.419 . S
C1321 C1322 1.362 . S
C1322 H1314 0.930 . S
C1322 C1321 1.362 . S
C1322 C1325 1.409 . S
C1323 H1315 0.930 . S
C1323 C1324 1.355 . S
C1323 C1325 1.415 . S
C1324 C1323 1.355 . S
C1324 C1326 1.419 . S
C1325 C1320 1.425 . S
C1325 C1322 1.409 . S
C1325 C1323 1.415 . S
C1326 H1316 0.930 . S
C1326 C1324 1.419 . S
C1326 C1327 1.362 . S
C1327 H1317 0.930 . S
C1327 C1320 1.409 . S
C1327 C1326 1.362 . S
H1328 C1334 0.930 . S
H1329 C1337 0.930 . S
H1330 C1338 0.930 . S
H1331 C1339 0.930 1_655 S
H1332 C1342 0.930 . S
H1333 C1343 0.930 . S
C1334 H1328 0.930 . S
C1334 C1335 1.355 . S
C1334 C1336 1.415 . S
C1335 C1334 1.355 . S
C1335 C1337 1.419 . S
C1336 C1334 1.415 . S
C1336 C1341 1.425 . S
C1336 C1343 1.409 . S
C1337 H1329 0.930 . S
C1337 C1335 1.419 . S
C1337 C1338 1.362 . S
C1338 H1330 0.930 . S
C1338 C1337 1.362 . S
C1338 C1341 1.409 . S
C1339 H1331 0.930 1_455 S
C1339 C1340 1.355 . S
C1339 C1341 1.415 . S
C1340 C1339 1.355 . S
C1340 C1342 1.419 . S
C1341 C1336 1.425 . S
C1341 C1338 1.409 . S
C1341 C1339 1.415 . S
C1342 H1332 0.930 . S
C1342 C1340 1.419 . S
C1342 C1343 1.362 . S
C1343 H1333 0.930 . S
C1343 C1336 1.409 . S
C1343 C1342 1.362 . S
H1344 C1350 0.930 . S
H1345 C1353 0.930 . S
H1346 C1354 0.930 . S
H1347 C1355 0.930 . S
H1348 C1358 0.930 . S
H1349 C1359 0.930 . S
C1350 H1344 0.930 . S
C1350 C1351 1.355 . S
C1350 C1352 1.415 . S
C1351 C1350 1.355 . S
C1351 C1353 1.419 . S
C1352 C1350 1.415 . S
C1352 C1357 1.425 . S
C1352 C1359 1.409 . S
C1353 H1345 0.930 . S
C1353 C1351 1.419 . S
C1353 C1354 1.362 . S
C1354 H1346 0.930 . S
C1354 C1353 1.362 . S
C1354 C1357 1.409 . S
C1355 H1347 0.930 . S
C1355 C1356 1.355 . S
C1355 C1357 1.415 . S
C1356 C1355 1.355 . S
C1356 C1358 1.419 . S
C1357 C1352 1.425 . S
C1357 C1354 1.409 . S
C1357 C1355 1.415 . S
C1358 H1348 0.930 . S
C1358 C1356 1.419 . S
C1358 C1359 1.362 . S
C1359 H1349 0.930 . S
C1359 C1352 1.409 . S
C1359 C1358 1.362 . S
H1360 C1366 0.930 . S
H1361 C1369 0.930 . S
H1362 C1370 0.930 . S
H1363 C1371 0.930 . S
H1364 C1374 0.930 . S
H1365 C1375 0.930 . S
C1366 H1360 0.930 . S
C1366 C1367 1.355 1_545 S
C1366 C1368 1.415 . S
C1367 C1366 1.355 1_565 S
C1367 C1369 1.419 . S
C1368 C1366 1.415 . S
C1368 C1373 1.425 . S
C1368 C1375 1.409 . S
C1369 H1361 0.930 . S
C1369 C1367 1.419 . S
C1369 C1370 1.362 . S
C1370 H1362 0.930 . S
C1370 C1369 1.362 . S
C1370 C1373 1.409 1_565 S
C1371 H1363 0.930 . S
C1371 C1372 1.355 . S
C1371 C1373 1.415 . S
C1372 C1371 1.355 . S
C1372 C1374 1.419 . S
C1373 C1368 1.425 . S
C1373 C1370 1.409 1_545 S
C1373 C1371 1.415 . S
C1374 H1364 0.930 . S
C1374 C1372 1.419 . S
C1374 C1375 1.362 . S
C1375 H1365 0.930 . S
C1375 C1368 1.409 . S
C1375 C1374 1.362 . S
H1376 C1382 0.930 . S
H1377 C1385 0.930 . S
H1378 C1386 0.930 . S
H1379 C1387 0.930 1_455 S
H1380 C1390 0.930 . S
H1381 C1391 0.930 . S
C1382 H1376 0.930 . S
C1382 C1383 1.355 . S
C1382 C1384 1.415 . S
C1383 C1382 1.355 . S
C1383 C1385 1.419 . S
C1384 C1382 1.415 . S
C1384 C1389 1.425 . S
C1384 C1391 1.409 . S
C1385 H1377 0.930 . S
C1385 C1383 1.419 . S
C1385 C1386 1.362 . S
C1386 H1378 0.930 . S
C1386 C1385 1.362 . S
C1386 C1389 1.409 . S
C1387 H1379 0.930 1_655 S
C1387 C1388 1.355 . S
C1387 C1389 1.415 . S
C1388 C1387 1.355 . S
C1388 C1390 1.419 . S
C1389 C1384 1.425 . S
C1389 C1386 1.409 . S
C1389 C1387 1.415 . S
C1390 H1380 0.930 . S
C1390 C1388 1.419 . S
C1390 C1391 1.362 . S
C1391 H1381 0.930 . S
C1391 C1384 1.409 . S
C1391 C1390 1.362 . S
H1392 C1398 0.930 . S
H1393 C1401 0.930 . S
H1394 C1402 0.930 . S
H1395 C1403 0.930 . S
H1396 C1406 0.930 . S
H1397 C1407 0.930 . S
C1398 H1392 0.930 . S
C1398 C1399 1.355 . S
C1398 C1400 1.415 . S
C1399 C1398 1.355 . S
C1399 C1401 1.419 . S
C1400 C1398 1.415 . S
C1400 C1405 1.425 . S
C1400 C1407 1.409 . S
C1401 H1393 0.930 . S
C1401 C1399 1.419 . S
C1401 C1402 1.362 . S
C1402 H1394 0.930 . S
C1402 C1401 1.362 . S
C1402 C1405 1.409 . S
C1403 H1395 0.930 . S
C1403 C1404 1.355 . S
C1403 C1405 1.415 . S
C1404 C1403 1.355 . S
C1404 C1406 1.419 . S
C1405 C1400 1.425 . S
C1405 C1402 1.409 . S
C1405 C1403 1.415 . S
C1406 H1396 0.930 . S
C1406 C1404 1.419 . S
C1406 C1407 1.362 . S
C1407 H1397 0.930 . S
C1407 C1400 1.409 . S
C1407 C1406 1.362 . S
H1408 C1414 0.930 . S
H1409 C1417 0.930 . S
H1410 C1418 0.930 1_565 S
H1411 C1419 0.930 . S
H1412 C1422 0.930 . S
H1413 C1423 0.930 . S
C1414 H1408 0.930 . S
C1414 C1415 1.355 . S
C1414 C1416 1.415 . S
C1415 C1414 1.355 . S
C1415 C1417 1.419 . S
C1416 C1414 1.415 . S
C1416 C1421 1.425 . S
C1416 C1423 1.409 . S
C1417 H1409 0.930 . S
C1417 C1415 1.419 . S
C1417 C1418 1.362 . S
C1418 H1410 0.930 1_545 S
C1418 C1417 1.362 . S
C1418 C1421 1.409 . S
C1419 H1411 0.930 . S
C1419 C1420 1.355 1_565 S
C1419 C1421 1.415 1_565 S
C1420 C1419 1.355 1_545 S
C1420 C1422 1.419 . S
C1421 C1416 1.425 . S
C1421 C1418 1.409 . S
C1421 C1419 1.415 1_545 S
C1422 H1412 0.930 . S
C1422 C1420 1.419 . S
C1422 C1423 1.362 . S
C1423 H1413 0.930 . S
C1423 C1416 1.409 . S
C1423 C1422 1.362 . S
H1424 C1430 0.930 . S
H1425 C1433 0.930 . S
H1426 C1434 0.930 . S
H1427 C1435 0.930 1_455 S
H1428 C1438 0.930 . S
H1429 C1439 0.930 . S
C1430 H1424 0.930 . S
C1430 C1431 1.355 . S
C1430 C1432 1.415 . S
C1431 C1430 1.355 . S
C1431 C1433 1.419 . S
C1432 C1430 1.415 . S
C1432 C1437 1.425 . S
C1432 C1439 1.409 . S
C1433 H1425 0.930 . S
C1433 C1431 1.419 . S
C1433 C1434 1.362 . S
C1434 H1426 0.930 . S
C1434 C1433 1.362 . S
C1434 C1437 1.409 . S
C1435 H1427 0.930 1_655 S
C1435 C1436 1.355 . S
C1435 C1437 1.415 . S
C1436 C1435 1.355 . S
C1436 C1438 1.419 . S
C1437 C1432 1.425 . S
C1437 C1434 1.409 . S
C1437 C1435 1.415 . S
C1438 H1428 0.930 . S
C1438 C1436 1.419 . S
C1438 C1439 1.362 . S
C1439 H1429 0.930 . S
C1439 C1432 1.409 . S
C1439 C1438 1.362 . S
H1440 C1446 0.930 . S
H1441 C1449 0.930 . S
H1442 C1450 0.930 . S
H1443 C1451 0.930 . S
H1444 C1454 0.930 . S
H1445 C1455 0.930 . S
C1446 H1440 0.930 . S
C1446 C1447 1.355 . S
C1446 C1448 1.415 . S
C1447 C1446 1.355 . S
C1447 C1449 1.419 . S
C1448 C1446 1.415 . S
C1448 C1453 1.425 . S
C1448 C1455 1.409 . S
C1449 H1441 0.930 . S
C1449 C1447 1.419 . S
C1449 C1450 1.362 . S
C1450 H1442 0.930 . S
C1450 C1449 1.362 . S
C1450 C1453 1.409 . S
C1451 H1443 0.930 . S
C1451 C1452 1.355 . S
C1451 C1453 1.415 . S
C1452 C1451 1.355 . S
C1452 C1454 1.419 . S
C1453 C1448 1.425 . S
C1453 C1450 1.409 . S
C1453 C1451 1.415 . S
C1454 H1444 0.930 . S
C1454 C1452 1.419 . S
C1454 C1455 1.362 . S
C1455 H1445 0.930 . S
C1455 C1448 1.409 . S
C1455 C1454 1.362 . S
H1456 C1462 0.930 . S
H1457 C1465 0.930 . S
H1458 C1466 0.930 . S
H1459 C1467 0.930 . S
H1460 C1470 0.930 . S
H1461 C1471 0.930 1_545 S
C1462 H1456 0.930 . S
C1462 C1463 1.355 1_545 S
C1462 C1464 1.415 1_545 S
C1463 C1462 1.355 1_565 S
C1463 C1465 1.419 . S
C1464 C1462 1.415 1_565 S
C1464 C1469 1.425 . S
C1464 C1471 1.409 . S
C1465 H1457 0.930 . S
C1465 C1463 1.419 . S
C1465 C1466 1.362 . S
C1466 H1458 0.930 . S
C1466 C1465 1.362 . S
C1466 C1469 1.409 . S
C1467 H1459 0.930 . S
C1467 C1468 1.355 . S
C1467 C1469 1.415 . S
C1468 C1467 1.355 . S
C1468 C1470 1.419 . S
C1469 C1464 1.425 . S
C1469 C1466 1.409 . S
C1469 C1467 1.415 . S
C1470 H1460 0.930 . S
C1470 C1468 1.419 . S
C1470 C1471 1.362 . S
C1471 H1461 0.930 1_565 S
C1471 C1464 1.409 . S
C1471 C1470 1.362 . S
H1472 C1478 0.930 . S
H1473 C1481 0.930 . S
H1474 C1482 0.930 . S
H1475 C1483 0.930 . S
H1476 C1486 0.930 . S
H1477 C1487 0.930 . S
C1478 H1472 0.930 . S
C1478 C1479 1.349 1_455 S
C1478 C1480 1.415 . S
C1479 C1478 1.349 1_655 S
C1479 C1481 1.419 . S
C1480 C1478 1.415 . S
C1480 C1485 1.425 . S
C1480 C1487 1.409 . S
C1481 H1473 0.930 . S
C1481 C1479 1.419 . S
C1481 C1482 1.362 . S
C1482 H1474 0.930 . S
C1482 C1481 1.362 . S
C1482 C1485 1.409 1_655 S
C1483 H1475 0.930 . S
C1483 C1484 1.355 . S
C1483 C1485 1.415 . S
C1484 C1483 1.355 . S
C1484 C1486 1.419 . S
C1485 C1480 1.425 . S
C1485 C1482 1.409 1_455 S
C1485 C1483 1.415 . S
C1486 H1476 0.930 . S
C1486 C1484 1.419 . S
C1486 C1487 1.362 . S
C1487 H1477 0.930 . S
C1487 C1480 1.409 . S
C1487 C1486 1.362 . S
H1488 C1494 0.930 . S
H1489 C1497 0.930 . S
H1490 C1498 0.908 1_455 S
H1491 C1499 0.930 . S
H1492 C1502 0.930 . S
H1493 C1503 0.930 . S
C1494 H1488 0.930 . S
C1494 C1495 1.355 . S
C1494 C1496 1.415 1_655 S
C1495 C1494 1.355 . S
C1495 C1497 1.419 . S
C1496 C1494 1.415 1_455 S
C1496 C1501 1.425 . S
C1496 C1503 1.409 . S
C1497 H1489 0.930 . S
C1497 C1495 1.419 . S
C1497 C1498 1.393 . S
C1498 H1490 0.908 1_655 S
C1498 C1497 1.393 . S
C1498 C1501 1.401 1_655 S
C1499 H1491 0.930 . S
C1499 C1500 1.355 . S
C1499 C1501 1.415 . S
C1500 C1499 1.355 . S
C1500 C1502 1.419 . S
C1501 C1496 1.425 . S
C1501 C1498 1.401 1_455 S
C1501 C1499 1.415 . S
C1502 H1492 0.930 . S
C1502 C1500 1.419 . S
C1502 C1503 1.362 . S
C1503 H1493 0.930 . S
C1503 C1496 1.409 . S
C1503 C1502 1.362 . S
H1504 C1510 0.930 . S
H1505 C1513 0.930 . S
H1506 C1514 0.930 . S
H1507 C1515 0.930 . S
H1508 C1518 0.930 . S
H1509 C1519 0.930 . S
C1510 H1504 0.930 . S
C1510 C1511 1.355 . S
C1510 C1512 1.415 . S
C1511 C1510 1.355 . S
C1511 C1513 1.419 . S
C1512 C1510 1.415 . S
C1512 C1517 1.425 . S
C1512 C1519 1.409 . S
C1513 H1505 0.930 . S
C1513 C1511 1.419 . S
C1513 C1514 1.362 . S
C1514 H1506 0.930 . S
C1514 C1513 1.362 . S
C1514 C1517 1.409 . S
C1515 H1507 0.930 . S
C1515 C1516 1.355 . S
C1515 C1517 1.415 . S
C1516 C1515 1.355 . S
C1516 C1518 1.419 . S
C1517 C1512 1.425 . S
C1517 C1514 1.409 . S
C1517 C1515 1.415 . S
C1518 H1508 0.930 . S
C1518 C1516 1.419 . S
C1518 C1519 1.362 . S
C1519 H1509 0.930 . S
C1519 C1512 1.409 . S
C1519 C1518 1.362 . S
H1520 C1526 0.930 . S
H1521 C1529 0.930 . S
H1522 C1530 0.930 . S
H1523 C1531 0.930 . S
H1524 C1534 0.930 . S
H1525 C1535 0.930 . S
C1526 H1520 0.930 . S
C1526 C1527 1.355 . S
C1526 C1528 1.415 . S
C1527 C1526 1.355 . S
C1527 C1529 1.419 . S
C1528 C1526 1.415 . S
C1528 C1533 1.425 . S
C1528 C1535 1.409 1_565 S
C1529 H1521 0.930 . S
C1529 C1527 1.419 . S
C1529 C1530 1.362 . S
C1530 H1522 0.930 . S
C1530 C1529 1.362 . S
C1530 C1533 1.409 . S
C1531 H1523 0.930 . S
C1531 C1532 1.355 . S
C1531 C1533 1.415 1_545 S
C1532 C1531 1.355 . S
C1532 C1534 1.419 . S
C1533 C1528 1.425 . S
C1533 C1530 1.409 . S
C1533 C1531 1.415 1_565 S
C1534 H1524 0.930 . S
C1534 C1532 1.419 . S
C1534 C1535 1.362 . S
C1535 H1525 0.930 . S
C1535 C1528 1.409 1_545 S
C1535 C1534 1.362 . S
H1536 C1542 0.930 . S
H1537 C1545 0.930 . S
H1538 C1546 0.930 . S
H1539 C1547 0.930 1_655 S
H1540 C1550 0.930 . S
H1541 C1551 0.930 . S
C1542 H1536 0.930 . S
C1542 C1543 1.355 . S
C1542 C1544 1.415 . S
C1543 C1542 1.355 . S
C1543 C1545 1.419 . S
C1544 C1542 1.415 . S
C1544 C1549 1.425 . S
C1544 C1551 1.409 . S
C1545 H1537 0.930 . S
C1545 C1543 1.419 . S
C1545 C1546 1.362 . S
C1546 H1538 0.930 . S
C1546 C1545 1.362 . S
C1546 C1549 1.409 . S
C1547 H1539 0.930 1_455 S
C1547 C1548 1.355 . S
C1547 C1549 1.415 . S
C1548 C1547 1.355 . S
C1548 C1550 1.419 . S
C1549 C1544 1.425 . S
C1549 C1546 1.409 . S
C1549 C1547 1.415 . S
C1550 H1540 0.930 . S
C1550 C1548 1.419 . S
C1550 C1551 1.362 . S
C1551 H1541 0.930 . S
C1551 C1544 1.409 . S
C1551 C1550 1.362 . S
H1552 C1558 0.930 . S
H1553 C1561 0.930 . S
H1554 C1562 0.930 . S
H1555 C1563 0.930 . S
H1556 C1566 0.930 . S
H1557 C1567 0.930 . S
C1558 H1552 0.930 . S
C1558 C1559 1.355 . S
C1558 C1560 1.415 . S
C1559 C1558 1.355 . S
C1559 C1561 1.419 . S
C1560 C1558 1.415 . S
C1560 C1565 1.425 . S
C1560 C1567 1.409 . S
C1561 H1553 0.930 . S
C1561 C1559 1.419 . S
C1561 C1562 1.362 . S
C1562 H1554 0.930 . S
C1562 C1561 1.362 . S
C1562 C1565 1.409 . S
C1563 H1555 0.930 . S
C1563 C1564 1.355 . S
C1563 C1565 1.415 . S
C1564 C1563 1.355 . S
C1564 C1566 1.419 . S
C1565 C1560 1.425 . S
C1565 C1562 1.409 . S
C1565 C1563 1.415 . S
C1566 H1556 0.930 . S
C1566 C1564 1.419 . S
C1566 C1567 1.362 . S
C1567 H1557 0.930 . S
C1567 C1560 1.409 . S
C1567 C1566 1.362 . S
H1568 C1574 0.930 . S
H1569 C1577 0.930 . S
H1570 C1578 0.930 1_545 S
H1571 C1579 0.930 1_545 S
H1572 C1582 0.930 . S
H1573 C1583 0.930 . S
C1574 H1568 0.930 . S
C1574 C1575 1.355 . S
C1574 C1576 1.415 . S
C1575 C1574 1.355 . S
C1575 C1577 1.419 . S
C1576 C1574 1.415 . S
C1576 C1581 1.425 . S
C1576 C1583 1.409 . S
C1577 H1569 0.930 . S
C1577 C1575 1.419 . S
C1577 C1578 1.362 . S
C1578 H1570 0.930 1_565 S
C1578 C1577 1.362 . S
C1578 C1581 1.409 . S
C1579 H1571 0.930 1_565 S
C1579 C1580 1.355 . S
C1579 C1581 1.415 . S
C1580 C1579 1.355 . S
C1580 C1582 1.419 . S
C1581 C1576 1.425 . S
C1581 C1578 1.409 . S
C1581 C1579 1.415 . S
C1582 H1572 0.930 . S
C1582 C1580 1.419 . S
C1582 C1583 1.362 . S
C1583 H1573 0.930 . S
C1583 C1576 1.409 . S
C1583 C1582 1.362 . S
H1584 C1590 0.930 . S
H1585 C1593 0.930 . S
H1586 C1594 0.930 . S
H1587 C1595 0.930 . S
H1588 C1598 0.930 . S
H1589 C1599 0.930 . S
C1590 H1584 0.930 . S
C1590 C1591 1.355 . S
C1590 C1592 1.415 . S
C1591 C1590 1.355 . S
C1591 C1593 1.419 . S
C1592 C1590 1.415 . S
C1592 C1597 1.425 . S
C1592 C1599 1.409 . S
C1593 H1585 0.930 . S
C1593 C1591 1.419 . S
C1593 C1594 1.362 . S
C1594 H1586 0.930 . S
C1594 C1593 1.362 . S
C1594 C1597 1.409 . S
C1595 H1587 0.930 . S
C1595 C1596 1.355 . S
C1595 C1597 1.415 . S
C1596 C1595 1.355 . S
C1596 C1598 1.419 . S
C1597 C1592 1.425 . S
C1597 C1594 1.409 . S
C1597 C1595 1.415 . S
C1598 H1588 0.930 . S
C1598 C1596 1.419 . S
C1598 C1599 1.362 . S
C1599 H1589 0.930 . S
C1599 C1592 1.409 . S
C1599 C1598 1.362 . S
H1600 C1606 0.930 . S
H1601 C1609 0.930 . S
H1602 C1610 0.930 1_655 S
H1603 C1611 0.930 . S
H1604 C1614 0.930 . S
H1605 C1615 0.930 . S
C1606 H1600 0.930 . S
C1606 C1607 1.355 . S
C1606 C1608 1.415 . S
C1607 C1606 1.355 . S
C1607 C1609 1.419 1_455 S
C1608 C1606 1.415 . S
C1608 C1613 1.425 . S
C1608 C1615 1.409 . S
C1609 H1601 0.930 . S
C1609 C1607 1.419 1_655 S
C1609 C1610 1.362 1_655 S
C1610 H1602 0.930 1_455 S
C1610 C1609 1.362 1_455 S
C1610 C1613 1.409 . S
C1611 H1603 0.930 . S
C1611 C1612 1.355 . S
C1611 C1613 1.415 . S
C1612 C1611 1.355 . S
C1612 C1614 1.419 . S
C1613 C1608 1.425 . S
C1613 C1610 1.409 . S
C1613 C1611 1.415 . S
C1614 H1604 0.930 . S
C1614 C1612 1.419 . S
C1614 C1615 1.362 . S
C1615 H1605 0.930 . S
C1615 C1608 1.409 . S
C1615 C1614 1.362 . S
H1616 C1622 0.930 . S
H1617 C1625 0.930 . S
H1618 C1626 0.930 . S
H1619 C1627 0.930 . S
H1620 C1630 0.930 . S
H1621 C1631 0.930 . S
C1622 H1616 0.930 . S
C1622 C1623 1.355 . S
C1622 C1624 1.415 . S
C1623 C1622 1.355 . S
C1623 C1625 1.419 . S
C1624 C1622 1.415 . S
C1624 C1629 1.425 . S
C1624 C1631 1.409 . S
C1625 H1617 0.930 . S
C1625 C1623 1.419 . S
C1625 C1626 1.362 . S
C1626 H1618 0.930 . S
C1626 C1625 1.362 . S
C1626 C1629 1.409 . S
C1627 H1619 0.930 . S
C1627 C1628 1.355 . S
C1627 C1629 1.415 . S
C1628 C1627 1.355 . S
C1628 C1630 1.419 . S
C1629 C1624 1.425 . S
C1629 C1626 1.409 . S
C1629 C1627 1.415 . S
C1630 H1620 0.930 . S
C1630 C1628 1.419 . S
C1630 C1631 1.362 . S
C1631 H1621 0.930 . S
C1631 C1624 1.409 . S
C1631 C1630 1.362 . S
H1632 C1638 0.930 . S
H1633 C1641 0.930 . S
H1634 C1642 0.930 . S
H1635 C1643 0.930 . S
H1636 C1646 0.930 . S
H1637 C1647 0.930 . S
C1638 H1632 0.930 . S
C1638 C1639 1.355 . S
C1638 C1640 1.415 . S
C1639 C1638 1.355 . S
C1639 C1641 1.419 1_554 S
C1640 C1638 1.415 . S
C1640 C1645 1.425 1_554 S
C1640 C1647 1.409 1_565 S
C1641 H1633 0.930 . S
C1641 C1639 1.419 1_556 S
C1641 C1642 1.362 . S
C1642 H1634 0.930 . S
C1642 C1641 1.362 . S
C1642 C1645 1.409 . S
C1643 H1635 0.930 . S
C1643 C1644 1.355 . S
C1643 C1645 1.415 1_545 S
C1644 C1643 1.355 . S
C1644 C1646 1.419 1_556 S
C1645 C1640 1.425 1_556 S
C1645 C1642 1.409 . S
C1645 C1643 1.415 1_565 S
C1646 H1636 0.930 . S
C1646 C1644 1.419 1_554 S
C1646 C1647 1.362 . S
C1647 H1637 0.930 . S
C1647 C1640 1.409 1_545 S
C1647 C1646 1.362 . S
H1648 C1654 0.930 . S
H1649 C1657 0.930 . S
H1650 C1658 0.930 . S
H1651 C1659 0.930 . S
H1652 C1662 0.930 . S
H1653 C1663 0.930 1_455 S
C1654 H1648 0.930 . S
C1654 C1655 1.355 . S
C1654 C1656 1.415 . S
C1655 C1654 1.355 . S
C1655 C1657 1.419 1_554 S
C1656 C1654 1.415 . S
C1656 C1661 1.425 1_554 S
C1656 C1663 1.409 1_455 S
C1657 H1649 0.930 . S
C1657 C1655 1.419 1_556 S
C1657 C1658 1.362 . S
C1658 H1650 0.930 . S
C1658 C1657 1.362 . S
C1658 C1661 1.409 . S
C1659 H1651 0.930 . S
C1659 C1660 1.355 . S
C1659 C1661 1.415 1_655 S
C1660 C1659 1.355 . S
C1660 C1662 1.419 1_556 S
C1661 C1656 1.425 1_556 S
C1661 C1658 1.409 . S
C1661 C1659 1.415 1_455 S
C1662 H1652 0.930 . S
C1662 C1660 1.419 1_554 S
C1662 C1663 1.362 . S
C1663 H1653 0.930 1_655 S
C1663 C1656 1.409 1_655 S
C1663 C1662 1.362 . S
H1664 C1670 0.930 . S
H1665 C1673 0.930 . S
H1666 C1674 0.930 . S
H1667 C1675 0.930 . S
H1668 C1678 0.930 . S
H1669 C1679 0.930 . S
C1670 H1664 0.930 . S
C1670 C1671 1.355 1_554 S
C1670 C1672 1.415 . S
C1671 C1670 1.355 1_556 S
C1671 C1673 1.419 . S
C1672 C1670 1.415 . S
C1672 C1677 1.425 1_554 S
C1672 C1679 1.409 . S
C1673 H1665 0.930 . S
C1673 C1671 1.419 . S
C1673 C1674 1.362 . S
C1674 H1666 0.930 . S
C1674 C1673 1.362 . S
C1674 C1677 1.409 . S
C1675 H1667 0.930 . S
C1675 C1676 1.355 1_556 S
C1675 C1677 1.415 . S
C1676 C1675 1.355 1_554 S
C1676 C1678 1.419 . S
C1677 C1672 1.425 1_556 S
C1677 C1674 1.409 . S
C1677 C1675 1.415 . S
C1678 H1668 0.930 . S
C1678 C1676 1.419 . S
C1678 C1679 1.362 . S
C1679 H1669 0.930 . S
C1679 C1672 1.409 . S
C1679 C1678 1.362 . S
H1680 C1686 0.930 . S
H1681 C1689 0.930 . S
H1682 C1690 0.930 . S
H1683 C1691 0.930 1_565 S
H1684 C1694 0.930 . S
H1685 C1695 0.930 . S
C1686 H1680 0.930 . S
C1686 C1687 1.355 . S
C1686 C1688 1.415 . S
C1687 C1686 1.355 . S
C1687 C1689 1.419 . S
C1688 C1686 1.415 . S
C1688 C1693 1.425 . S
C1688 C1695 1.409 . S
C1689 H1681 0.930 . S
C1689 C1687 1.419 . S
C1689 C1690 1.362 . S
C1690 H1682 0.930 . S
C1690 C1689 1.362 . S
C1690 C1693 1.409 . S
C1691 H1683 0.930 1_545 S
C1691 C1692 1.355 . S
C1691 C1693 1.415 . S
C1692 C1691 1.355 . S
C1692 C1694 1.419 . S
C1693 C1688 1.425 . S
C1693 C1690 1.409 . S
C1693 C1691 1.415 . S
C1694 H1684 0.930 . S
C1694 C1692 1.419 . S
C1694 C1695 1.362 . S
C1695 H1685 0.930 . S
C1695 C1688 1.409 . S
C1695 C1694 1.362 . S
H1696 C1702 0.930 . S
H1697 C1705 0.930 . S
H1698 C1706 0.930 . S
H1699 C1707 0.930 . S
H1700 C1710 0.930 . S
H1701 C1711 0.930 1_455 S
C1702 H1696 0.930 . S
C1702 C1703 1.355 . S
C1702 C1704 1.415 . S
C1703 C1702 1.355 . S
C1703 C1705 1.419 . S
C1704 C1702 1.415 . S
C1704 C1709 1.425 . S
C1704 C1711 1.409 . S
C1705 H1697 0.930 . S
C1705 C1703 1.419 . S
C1705 C1706 1.362 . S
C1706 H1698 0.930 . S
C1706 C1705 1.362 . S
C1706 C1709 1.409 . S
C1707 H1699 0.930 . S
C1707 C1708 1.355 . S
C1707 C1709 1.415 . S
C1708 C1707 1.355 . S
C1708 C1710 1.419 1_655 S
C1709 C1704 1.425 . S
C1709 C1706 1.409 . S
C1709 C1707 1.415 . S
C1710 H1700 0.930 . S
C1710 C1708 1.419 1_455 S
C1710 C1711 1.362 1_455 S
C1711 H1701 0.930 1_655 S
C1711 C1704 1.409 . S
C1711 C1710 1.362 1_655 S
H1712 C1718 0.930 . S
H1713 C1721 0.930 . S
H1714 C1722 0.930 . S
H1715 C1723 0.930 . S
H1716 C1726 0.930 . S
H1717 C1727 0.930 . S
C1718 H1712 0.930 . S
C1718 C1719 1.355 . S
C1718 C1720 1.415 . S
C1719 C1718 1.355 . S
C1719 C1721 1.419 . S
C1720 C1718 1.415 . S
C1720 C1725 1.425 . S
C1720 C1727 1.409 . S
C1721 H1713 0.930 . S
C1721 C1719 1.419 . S
C1721 C1722 1.362 . S
C1722 H1714 0.930 . S
C1722 C1721 1.362 . S
C1722 C1725 1.409 . S
C1723 H1715 0.930 . S
C1723 C1724 1.355 . S
C1723 C1725 1.415 . S
C1724 C1723 1.355 . S
C1724 C1726 1.419 . S
C1725 C1720 1.425 . S
C1725 C1722 1.409 . S
C1725 C1723 1.415 . S
C1726 H1716 0.930 . S
C1726 C1724 1.419 . S
C1726 C1727 1.362 . S
C1727 H1717 0.930 . S
C1727 C1720 1.409 . S
C1727 C1726 1.362 . S
H1728 C1734 0.930 . S
H1729 C1737 0.930 . S
H1730 C1738 0.930 1_545 S
H1731 C1739 0.930 . S
H1732 C1742 0.930 . S
H1733 C1743 0.930 . S
C1734 H1728 0.930 . S
C1734 C1735 1.355 1_556 S
C1734 C1736 1.415 1_565 S
C1735 C1734 1.355 1_554 S
C1735 C1737 1.419 . S
C1736 C1734 1.415 1_545 S
C1736 C1741 1.425 1_556 S
C1736 C1743 1.409 . S
C1737 H1729 0.930 . S
C1737 C1735 1.419 . S
C1737 C1738 1.361 . S
C1738 H1730 0.930 1_565 S
C1738 C1737 1.361 . S
C1738 C1741 1.410 1_565 S
C1739 H1731 0.930 . S
C1739 C1740 1.355 1_554 S
C1739 C1741 1.415 . S
C1740 C1739 1.355 1_556 S
C1740 C1742 1.419 . S
C1741 C1736 1.425 1_554 S
C1741 C1738 1.410 1_545 S
C1741 C1739 1.415 . S
C1742 H1732 0.930 . S
C1742 C1740 1.419 . S
C1742 C1743 1.362 . S
C1743 H1733 0.930 . S
C1743 C1736 1.409 . S
C1743 C1742 1.362 . S
H1744 C1750 0.930 . S
H1745 C1753 0.930 . S
H1746 C1754 0.930 . S
H1747 C1755 0.930 . S
H1748 C1758 0.930 . S
H1749 C1759 0.930 . S
C1750 H1744 0.930 . S
C1750 C1751 1.355 . S
C1750 C1752 1.415 . S
C1751 C1750 1.355 . S
C1751 C1753 1.419 1_556 S
C1752 C1750 1.415 . S
C1752 C1757 1.425 1_556 S
C1752 C1759 1.409 1_655 S
C1753 H1745 0.930 . S
C1753 C1751 1.419 1_554 S
C1753 C1754 1.362 . S
C1754 H1746 0.930 . S
C1754 C1753 1.362 . S
C1754 C1757 1.409 . S
C1755 H1747 0.930 . S
C1755 C1756 1.355 . S
C1755 C1757 1.415 1_455 S
C1756 C1755 1.355 . S
C1756 C1758 1.419 1_554 S
C1757 C1752 1.425 1_554 S
C1757 C1754 1.409 . S
C1757 C1755 1.415 1_655 S
C1758 H1748 0.930 . S
C1758 C1756 1.419 1_556 S
C1758 C1759 1.362 . S
C1759 H1749 0.930 . S
C1759 C1752 1.409 1_455 S
C1759 C1758 1.362 . S
H1760 C1766 0.930 . S
H1761 C1769 0.930 . S
H1762 C1770 0.930 . S
H1763 C1771 0.930 . S
H1764 C1774 0.930 . S
H1765 C1775 0.930 . S
C1766 H1760 0.930 . S
C1766 C1767 1.355 . S
C1766 C1768 1.415 . S
C1767 C1766 1.355 . S
C1767 C1769 1.419 1_554 S
C1768 C1766 1.415 . S
C1768 C1773 1.425 1_554 S
C1768 C1775 1.409 . S
C1769 H1761 0.930 . S
C1769 C1767 1.419 1_556 S
C1769 C1770 1.362 . S
C1770 H1762 0.930 . S
C1770 C1769 1.362 . S
C1770 C1773 1.409 . S
C1771 H1763 0.930 . S
C1771 C1772 1.355 . S
C1771 C1773 1.415 . S
C1772 C1771 1.355 . S
C1772 C1774 1.419 1_556 S
C1773 C1768 1.425 1_556 S
C1773 C1770 1.409 . S
C1773 C1771 1.415 . S
C1774 H1764 0.930 . S
C1774 C1772 1.419 1_554 S
C1774 C1775 1.362 . S
C1775 H1765 0.930 . S
C1775 C1768 1.409 . S
C1775 C1774 1.362 . S
H1776 C1782 0.930 . S
H1777 C1785 0.930 . S
H1778 C1786 0.930 . S
H1779 C1787 0.930 . S
H1780 C1790 0.930 . S
H1781 C1791 0.930 . S
C1782 H1776 0.930 . S
C1782 C1783 1.355 . S
C1782 C1784 1.415 1_455 S
C1783 C1782 1.355 . S
C1783 C1785 1.419 . S
C1784 C1782 1.415 1_655 S
C1784 C1789 1.425 . S
C1784 C1791 1.409 . S
C1785 H1777 0.930 . S
C1785 C1783 1.419 . S
C1785 C1786 1.362 1_455 S
C1786 H1778 0.930 . S
C1786 C1785 1.362 1_655 S
C1786 C1789 1.409 . S
C1787 H1779 0.930 . S
C1787 C1788 1.355 . S
C1787 C1789 1.415 . S
C1788 C1787 1.355 . S
C1788 C1790 1.419 . S
C1789 C1784 1.425 . S
C1789 C1786 1.409 . S
C1789 C1787 1.415 . S
C1790 H1780 0.930 . S
C1790 C1788 1.419 . S
C1790 C1791 1.362 . S
C1791 H1781 0.930 . S
C1791 C1784 1.409 . S
C1791 C1790 1.362 . S
H1792 C1798 0.930 . S
H1793 C1801 0.930 . S
H1794 C1802 0.930 . S
H1795 C1803 0.930 . S
H1796 C1806 0.930 . S
H1797 C1807 0.930 . S
C1798 H1792 0.930 . S
C1798 C1799 1.355 . S
C1798 C1800 1.415 . S
C1799 C1798 1.355 . S
C1799 C1801 1.419 . S
C1800 C1798 1.415 . S
C1800 C1805 1.425 . S
C1800 C1807 1.409 . S
C1801 H1793 0.930 . S
C1801 C1799 1.419 . S
C1801 C1802 1.362 . S
C1802 H1794 0.930 . S
C1802 C1801 1.362 . S
C1802 C1805 1.409 . S
C1803 H1795 0.930 . S
C1803 C1804 1.355 . S
C1803 C1805 1.415 . S
C1804 C1803 1.355 . S
C1804 C1806 1.419 . S
C1805 C1800 1.425 . S
C1805 C1802 1.409 . S
C1805 C1803 1.415 . S
C1806 H1796 0.930 . S
C1806 C1804 1.419 . S
C1806 C1807 1.362 . S
C1807 H1797 0.930 . S
C1807 C1800 1.409 . S
C1807 C1806 1.362 . S
H1808 C1814 0.930 . S
H1809 C1817 0.930 . S
H1810 C1818 0.930 . S
H1811 C1819 0.930 . S
H1812 C1822 0.930 . S
H1813 C1823 0.930 . S
C1814 H1808 0.930 . S
C1814 C1815 1.355 . S
C1814 C1816 1.415 1_565 S
C1815 C1814 1.355 . S
C1815 C1817 1.419 . S
C1816 C1814 1.415 1_545 S
C1816 C1821 1.425 . S
C1816 C1823 1.409 . S
C1817 H1809 0.930 . S
C1817 C1815 1.419 . S
C1817 C1818 1.362 . S
C1818 H1810 0.930 . S
C1818 C1817 1.362 . S
C1818 C1821 1.409 1_565 S
C1819 H1811 0.930 . S
C1819 C1820 1.355 . S
C1819 C1821 1.415 . S
C1820 C1819 1.355 . S
C1820 C1822 1.419 . S
C1821 C1816 1.425 . S
C1821 C1818 1.409 1_545 S
C1821 C1819 1.415 . S
C1822 H1812 0.930 . S
C1822 C1820 1.419 . S
C1822 C1823 1.362 . S
C1823 H1813 0.930 . S
C1823 C1816 1.409 . S
C1823 C1822 1.362 . S
H1824 C1830 0.930 1_455 S
H1825 C1833 0.930 . S
H1826 C1834 0.930 . S
H1827 C1835 0.930 . S
H1828 C1838 0.930 . S
H1829 C1839 0.930 . S
C1830 H1824 0.930 1_655 S
C1830 C1831 1.355 . S
C1830 C1832 1.415 . S
C1831 C1830 1.355 . S
C1831 C1833 1.419 . S
C1832 C1830 1.415 . S
C1832 C1837 1.425 . S
C1832 C1839 1.409 . S
C1833 H1825 0.930 . S
C1833 C1831 1.419 . S
C1833 C1834 1.362 . S
C1834 H1826 0.930 . S
C1834 C1833 1.362 . S
C1834 C1837 1.409 . S
C1835 H1827 0.930 . S
C1835 C1836 1.355 . S
C1835 C1837 1.415 . S
C1836 C1835 1.355 . S
C1836 C1838 1.419 . S
C1837 C1832 1.425 . S
C1837 C1834 1.409 . S
C1837 C1835 1.415 . S
C1838 H1828 0.930 . S
C1838 C1836 1.419 . S
C1838 C1839 1.362 . S
C1839 H1829 0.930 . S
C1839 C1832 1.409 . S
C1839 C1838 1.362 . S
H1840 C1846 0.930 . S
H1841 C1849 0.930 . S
H1842 C1850 0.930 . S
H1843 C1851 0.930 . S
H1844 C1854 0.930 . S
H1845 C1855 0.930 . S
C1846 H1840 0.930 . S
C1846 C1847 1.355 . S
C1846 C1848 1.415 . S
C1847 C1846 1.355 . S
C1847 C1849 1.419 . S
C1848 C1846 1.415 . S
C1848 C1853 1.425 . S
C1848 C1855 1.409 . S
C1849 H1841 0.930 . S
C1849 C1847 1.419 . S
C1849 C1850 1.362 . S
C1850 H1842 0.930 . S
C1850 C1849 1.362 . S
C1850 C1853 1.409 . S
C1851 H1843 0.930 . S
C1851 C1852 1.355 . S
C1851 C1853 1.415 . S
C1852 C1851 1.355 . S
C1852 C1854 1.419 . S
C1853 C1848 1.425 . S
C1853 C1850 1.409 . S
C1853 C1851 1.415 . S
C1854 H1844 0.930 . S
C1854 C1852 1.419 . S
C1854 C1855 1.362 . S
C1855 H1845 0.930 . S
C1855 C1848 1.409 . S
C1855 C1854 1.362 . S
H1856 C1862 0.930 . S
H1857 C1865 0.930 . S
H1858 C1866 0.930 . S
H1859 C1867 0.930 . S
H1860 C1870 0.930 . S
H1861 C1871 0.930 1_565 S
C1862 H1856 0.930 . S
C1862 C1863 1.355 . S
C1862 C1864 1.415 . S
C1863 C1862 1.355 . S
C1863 C1865 1.419 . S
C1864 C1862 1.415 . S
C1864 C1869 1.425 . S
C1864 C1871 1.409 . S
C1865 H1857 0.930 . S
C1865 C1863 1.419 . S
C1865 C1866 1.362 . S
C1866 H1858 0.930 . S
C1866 C1865 1.362 . S
C1866 C1869 1.409 . S
C1867 H1859 0.930 . S
C1867 C1868 1.355 . S
C1867 C1869 1.415 . S
C1868 C1867 1.355 . S
C1868 C1870 1.419 1_545 S
C1869 C1864 1.425 . S
C1869 C1866 1.409 . S
C1869 C1867 1.415 . S
C1870 H1860 0.930 . S
C1870 C1868 1.419 1_565 S
C1870 C1871 1.362 1_565 S
C1871 H1861 0.930 1_545 S
C1871 C1864 1.409 . S
C1871 C1870 1.362 1_545 S
H1872 C1878 0.930 . S
H1873 C1881 0.930 . S
H1874 C1882 0.930 . S
H1875 C1883 0.930 . S
H1876 C1886 0.930 . S
H1877 C1887 0.930 . S
C1878 H1872 0.930 . S
C1878 C1879 1.355 . S
C1878 C1880 1.415 . S
C1879 C1878 1.355 . S
C1879 C1881 1.419 . S
C1880 C1878 1.415 . S
C1880 C1885 1.425 . S
C1880 C1887 1.409 . S
C1881 H1873 0.930 . S
C1881 C1879 1.419 . S
C1881 C1882 1.362 . S
C1882 H1874 0.930 . S
C1882 C1881 1.362 . S
C1882 C1885 1.409 . S
C1883 H1875 0.930 . S
C1883 C1884 1.355 . S
C1883 C1885 1.415 . S
C1884 C1883 1.355 . S
C1884 C1886 1.419 . S
C1885 C1880 1.425 . S
C1885 C1882 1.409 . S
C1885 C1883 1.415 . S
C1886 H1876 0.930 . S
C1886 C1884 1.419 . S
C1886 C1887 1.362 . S
C1887 H1877 0.930 . S
C1887 C1880 1.409 . S
C1887 C1886 1.362 . S
H1888 C1894 0.930 . S
H1889 C1897 0.930 . S
H1890 C1898 0.930 . S
H1891 C1899 0.930 . S
H1892 C1902 0.930 . S
H1893 C1903 0.930 . S
C1894 H1888 0.930 . S
C1894 C1895 1.355 . S
C1894 C1896 1.415 . S
C1895 C1894 1.355 . S
C1895 C1897 1.419 . S
C1896 C1894 1.415 . S
C1896 C1901 1.425 . S
C1896 C1903 1.409 . S
C1897 H1889 0.930 . S
C1897 C1895 1.419 . S
C1897 C1898 1.362 . S
C1898 H1890 0.930 . S
C1898 C1897 1.362 . S
C1898 C1901 1.409 . S
C1899 H1891 0.930 . S
C1899 C1900 1.355 . S
C1899 C1901 1.415 . S
C1900 C1899 1.355 . S
C1900 C1902 1.419 . S
C1901 C1896 1.425 . S
C1901 C1898 1.409 . S
C1901 C1899 1.415 . S
C1902 H1892 0.930 . S
C1902 C1900 1.419 . S
C1902 C1903 1.362 . S
C1903 H1893 0.930 . S
C1903 C1896 1.409 . S
C1903 C1902 1.362 . S
H1904 C1910 0.930 . S
H1905 C1913 0.930 . S
H1906 C1914 0.930 . S
H1907 C1915 0.930 . S
H1908 C1918 0.930 . S
H1909 C1919 0.930 . S
C1910 H1904 0.930 . S
C1910 C1911 1.355 . S
C1910 C1912 1.415 . S
C1911 C1910 1.355 . S
C1911 C1913 1.419 . S
C1912 C1910 1.415 . S
C1912 C1917 1.425 . S
C1912 C1919 1.409 . S
C1913 H1905 0.930 . S
C1913 C1911 1.419 . S
C1913 C1914 1.362 . S
C1914 H1906 0.930 . S
C1914 C1913 1.362 . S
C1914 C1917 1.409 . S
C1915 H1907 0.930 . S
C1915 C1916 1.355 . S
C1915 C1917 1.415 . S
C1916 C1915 1.355 . S
C1916 C1918 1.419 . S
C1917 C1912 1.425 . S
C1917 C1914 1.409 . S
C1917 C1915 1.415 . S
C1918 H1908 0.930 . S
C1918 C1916 1.419 . S
C1918 C1919 1.362 . S
C1919 H1909 0.930 . S
C1919 C1912 1.409 . S
C1919 C1918 1.362 . S
H1920 C1926 0.930 . S
H1921 C1929 0.930 . S
H1922 C1930 0.930 . S
H1923 C1931 0.930 . S
H1924 C1934 0.930 . S
H1925 C1935 0.930 . S
C1926 H1920 0.930 . S
C1926 C1927 1.355 . S
C1926 C1928 1.415 . S
C1927 C1926 1.355 . S
C1927 C1929 1.419 . S
C1928 C1926 1.415 . S
C1928 C1933 1.425 . S
C1928 C1935 1.409 . S
C1929 H1921 0.930 . S
C1929 C1927 1.419 . S
C1929 C1930 1.362 . S
C1930 H1922 0.930 . S
C1930 C1929 1.362 . S
C1930 C1933 1.409 . S
C1931 H1923 0.930 . S
C1931 C1932 1.355 . S
C1931 C1933 1.415 . S
C1932 C1931 1.355 . S
C1932 C1934 1.419 . S
C1933 C1928 1.425 . S
C1933 C1930 1.409 . S
C1933 C1931 1.415 . S
C1934 H1924 0.930 . S
C1934 C1932 1.419 . S
C1934 C1935 1.362 . S
C1935 H1925 0.930 . S
C1935 C1928 1.409 . S
C1935 C1934 1.362 . S
H1936 C1942 0.930 . S
H1937 C1945 0.930 . S
H1938 C1946 0.930 . S
H1939 C1947 0.930 . S
H1940 C1950 0.930 . S
H1941 C1951 0.930 . S
C1942 H1936 0.930 . S
C1942 C1943 1.355 . S
C1942 C1944 1.415 . S
C1943 C1942 1.355 . S
C1943 C1945 1.419 . S
C1944 C1942 1.415 . S
C1944 C1949 1.425 . S
C1944 C1951 1.409 . S
C1945 H1937 0.930 . S
C1945 C1943 1.419 . S
C1945 C1946 1.362 . S
C1946 H1938 0.930 . S
C1946 C1945 1.362 . S
C1946 C1949 1.409 . S
C1947 H1939 0.930 . S
C1947 C1948 1.355 . S
C1947 C1949 1.415 . S
C1948 C1947 1.355 . S
C1948 C1950 1.419 . S
C1949 C1944 1.425 . S
C1949 C1946 1.409 . S
C1949 C1947 1.415 . S
C1950 H1940 0.930 . S
C1950 C1948 1.419 . S
C1950 C1951 1.362 . S
C1951 H1941 0.930 . S
C1951 C1944 1.409 . S
C1951 C1950 1.362 . S
H1952 C1958 0.930 . S
H1953 C1961 0.930 . S
H1954 C1962 0.930 . S
H1955 C1963 0.930 . S
H1956 C1966 0.930 . S
H1957 C1967 0.930 . S
C1958 H1952 0.930 . S
C1958 C1959 1.355 . S
C1958 C1960 1.415 . S
C1959 C1958 1.355 . S
C1959 C1961 1.419 . S
C1960 C1958 1.415 . S
C1960 C1965 1.425 . S
C1960 C1967 1.409 . S
C1961 H1953 0.930 . S
C1961 C1959 1.419 . S
C1961 C1962 1.362 . S
C1962 H1954 0.930 . S
C1962 C1961 1.362 . S
C1962 C1965 1.409 . S
C1963 H1955 0.930 . S
C1963 C1964 1.355 . S
C1963 C1965 1.415 . S
C1964 C1963 1.355 . S
C1964 C1966 1.419 . S
C1965 C1960 1.425 . S
C1965 C1962 1.409 . S
C1965 C1963 1.415 . S
C1966 H1956 0.930 . S
C1966 C1964 1.419 . S
C1966 C1967 1.362 . S
C1967 H1957 0.930 . S
C1967 C1960 1.409 . S
C1967 C1966 1.362 . S
H1968 C1974 0.930 . S
H1969 C1977 0.930 . S
H1970 C1978 0.930 . S
H1971 C1979 0.930 . S
H1972 C1982 0.930 . S
H1973 C1983 0.930 . S
C1974 H1968 0.930 . S
C1974 C1975 1.355 . S
C1974 C1976 1.415 . S
C1975 C1974 1.355 . S
C1975 C1977 1.419 . S
C1976 C1974 1.415 . S
C1976 C1981 1.425 . S
C1976 C1983 1.409 . S
C1977 H1969 0.930 . S
C1977 C1975 1.419 . S
C1977 C1978 1.362 . S
C1978 H1970 0.930 . S
C1978 C1977 1.362 . S
C1978 C1981 1.409 . S
C1979 H1971 0.930 . S
C1979 C1980 1.355 . S
C1979 C1981 1.415 . S
C1980 C1979 1.355 . S
C1980 C1982 1.419 . S
C1981 C1976 1.425 . S
C1981 C1978 1.409 . S
C1981 C1979 1.415 . S
C1982 H1972 0.930 . S
C1982 C1980 1.419 . S
C1982 C1983 1.362 . S
C1983 H1973 0.930 . S
C1983 C1976 1.409 . S
C1983 C1982 1.362 . S
H1984 C1990 0.930 . S
H1985 C1993 0.930 . S
H1986 C1994 0.930 . S
H1987 C1995 0.930 . S
H1988 C1998 0.930 . S
H1989 C1999 0.930 . S
C1990 H1984 0.930 . S
C1990 C1991 1.355 . S
C1990 C1992 1.415 . S
C1991 C1990 1.355 . S
C1991 C1993 1.419 . S
C1992 C1990 1.415 . S
C1992 C1997 1.425 . S
C1992 C1999 1.409 . S
C1993 H1985 0.930 . S
C1993 C1991 1.419 . S
C1993 C1994 1.362 . S
C1994 H1986 0.930 . S
C1994 C1993 1.362 . S
C1994 C1997 1.409 . S
C1995 H1987 0.930 . S
C1995 C1996 1.355 . S
C1995 C1997 1.415 . S
C1996 C1995 1.355 . S
C1996 C1998 1.419 . S
C1997 C1992 1.425 . S
C1997 C1994 1.409 . S
C1997 C1995 1.415 . S
C1998 H1988 0.930 . S
C1998 C1996 1.419 . S
C1998 C1999 1.362 . S
C1999 H1989 0.930 . S
C1999 C1992 1.409 . S
C1999 C1998 1.362 . S
H2000 C2006 0.930 . S
H2001 C2009 0.930 . S
H2002 C2010 0.930 . S
H2003 C2011 0.930 . S
H2004 C2014 0.930 . S
H2005 C2015 0.930 . S
C2006 H2000 0.930 . S
C2006 C2007 1.355 . S
C2006 C2008 1.415 . S
C2007 C2006 1.355 . S
C2007 C2009 1.419 . S
C2008 C2006 1.415 . S
C2008 C2013 1.425 . S
C2008 C2015 1.409 . S
C2009 H2001 0.930 . S
C2009 C2007 1.419 . S
C2009 C2010 1.362 . S
C2010 H2002 0.930 . S
C2010 C2009 1.362 . S
C2010 C2013 1.409 . S
C2011 H2003 0.930 . S
C2011 C2012 1.355 . S
C2011 C2013 1.415 . S
C2012 C2011 1.355 . S
C2012 C2014 1.419 . S
C2013 C2008 1.425 . S
C2013 C2010 1.409 . S
C2013 C2011 1.415 . S
C2014 H2004 0.930 . S
C2014 C2012 1.419 . S
C2014 C2015 1.362 . S
C2015 H2005 0.930 . S
C2015 C2008 1.409 . S
C2015 C2014 1.362 . S
H2016 C2022 0.930 . S
H2017 C2025 0.930 . S
H2018 C2026 0.930 . S
H2019 C2027 0.930 . S
H2020 C2030 0.930 . S
H2021 C2031 0.930 . S
C2022 H2016 0.930 . S
C2022 C2023 1.355 . S
C2022 C2024 1.415 . S
C2023 C2022 1.355 . S
C2023 C2025 1.419 . S
C2024 C2022 1.415 . S
C2024 C2029 1.425 . S
C2024 C2031 1.409 . S
C2025 H2017 0.930 . S
C2025 C2023 1.419 . S
C2025 C2026 1.362 . S
C2026 H2018 0.930 . S
C2026 C2025 1.362 . S
C2026 C2029 1.409 . S
C2027 H2019 0.930 . S
C2027 C2028 1.355 . S
C2027 C2029 1.415 . S
C2028 C2027 1.355 . S
C2028 C2030 1.419 . S
C2029 C2024 1.425 . S
C2029 C2026 1.409 . S
C2029 C2027 1.415 . S
C2030 H2020 0.930 . S
C2030 C2028 1.419 . S
C2030 C2031 1.362 . S
C2031 H2021 0.930 . S
C2031 C2024 1.409 . S
C2031 C2030 1.362 . S
H2032 C2038 0.930 . S
H2033 C2041 0.930 . S
H2034 C2042 0.930 . S
H2035 C2043 0.930 . S
H2036 C2046 0.930 . S
H2037 C2047 0.930 . S
C2038 H2032 0.930 . S
C2038 C2039 1.355 . S
C2038 C2040 1.415 . S
C2039 C2038 1.355 . S
C2039 C2041 1.419 . S
C2040 C2038 1.415 . S
C2040 C2045 1.425 . S
C2040 C2047 1.409 . S
C2041 H2033 0.930 . S
C2041 C2039 1.419 . S
C2041 C2042 1.362 . S
C2042 H2034 0.930 . S
C2042 C2041 1.362 . S
C2042 C2045 1.409 . S
C2043 H2035 0.930 . S
C2043 C2044 1.355 . S
C2043 C2045 1.415 . S
C2044 C2043 1.355 . S
C2044 C2046 1.419 . S
C2045 C2040 1.425 . S
C2045 C2042 1.409 . S
C2045 C2043 1.415 . S
C2046 H2036 0.930 . S
C2046 C2044 1.419 . S
C2046 C2047 1.362 . S
C2047 H2037 0.930 . S
C2047 C2040 1.409 . S
C2047 C2046 1.362 . S
H2048 C2054 0.930 . S
H2049 C2057 0.930 . S
H2050 C2058 0.930 . S
H2051 C2059 0.930 . S
H2052 C2062 0.930 . S
H2053 C2063 0.930 . S
C2054 H2048 0.930 . S
C2054 C2055 1.355 . S
C2054 C2056 1.415 . S
C2055 C2054 1.355 . S
C2055 C2057 1.419 . S
C2056 C2054 1.415 . S
C2056 C2061 1.425 . S
C2056 C2063 1.409 . S
C2057 H2049 0.930 . S
C2057 C2055 1.419 . S
C2057 C2058 1.362 . S
C2058 H2050 0.930 . S
C2058 C2057 1.362 . S
C2058 C2061 1.409 . S
C2059 H2051 0.930 . S
C2059 C2060 1.355 . S
C2059 C2061 1.415 . S
C2060 C2059 1.355 . S
C2060 C2062 1.419 . S
C2061 C2056 1.425 . S
C2061 C2058 1.409 . S
C2061 C2059 1.415 . S
C2062 H2052 0.930 . S
C2062 C2060 1.419 . S
C2062 C2063 1.362 . S
C2063 H2053 0.930 . S
C2063 C2056 1.409 . S
C2063 C2062 1.362 . S
H2064 C2070 0.914 1_455 S
H2065 C2073 0.930 . S
H2066 C2074 0.930 . S
H2067 C2075 0.930 1_655 S
H2068 C2078 0.930 . S
H2069 C2079 0.930 . S
C2070 H2064 0.914 1_655 S
C2070 C2071 1.373 . S
C2070 C2072 1.411 1_655 S
C2071 C2070 1.373 . S
C2071 C2073 1.419 . S
C2072 C2070 1.411 1_455 S
C2072 C2077 1.425 1_455 S
C2072 C2079 1.409 . S
C2073 H2065 0.930 . S
C2073 C2071 1.419 . S
C2073 C2074 1.362 . S
C2074 H2066 0.930 . S
C2074 C2073 1.362 . S
C2074 C2077 1.409 . S
C2075 H2067 0.930 1_455 S
C2075 C2076 1.355 . S
C2075 C2077 1.415 1_455 S
C2076 C2075 1.355 . S
C2076 C2078 1.419 . S
C2077 C2072 1.425 1_655 S
C2077 C2074 1.409 . S
C2077 C2075 1.415 1_655 S
C2078 H2068 0.930 . S
C2078 C2076 1.419 . S
C2078 C2079 1.362 . S
C2079 H2069 0.930 . S
C2079 C2072 1.409 . S
C2079 C2078 1.362 . S
H2080 C2086 0.930 . S
H2081 C2089 0.930 . S
H2082 C2090 0.930 . S
H2083 C2091 0.930 . S
H2084 C2094 0.930 . S
H2085 C2095 0.930 . S
C2086 H2080 0.930 . S
C2086 C2087 1.355 . S
C2086 C2088 1.415 . S
C2087 C2086 1.355 . S
C2087 C2089 1.419 . S
C2088 C2086 1.415 . S
C2088 C2093 1.425 . S
C2088 C2095 1.409 . S
C2089 H2081 0.930 . S
C2089 C2087 1.419 . S
C2089 C2090 1.362 . S
C2090 H2082 0.930 . S
C2090 C2089 1.362 . S
C2090 C2093 1.409 . S
C2091 H2083 0.930 . S
C2091 C2092 1.355 . S
C2091 C2093 1.415 . S
C2092 C2091 1.355 . S
C2092 C2094 1.419 . S
C2093 C2088 1.425 . S
C2093 C2090 1.409 . S
C2093 C2091 1.415 . S
C2094 H2084 0.930 . S
C2094 C2092 1.419 . S
C2094 C2095 1.362 . S
C2095 H2085 0.930 . S
C2095 C2088 1.409 . S
C2095 C2094 1.362 . S
H2096 C2102 0.930 . S
H2097 C2105 0.930 . S
H2098 C2106 0.936 . S
H2099 C2107 0.930 . S
H2100 C2110 0.930 . S
H2101 C2111 0.930 1_545 S
C2102 H2096 0.930 . S
C2102 C2103 1.355 . S
C2102 C2104 1.415 . S
C2103 C2102 1.355 . S
C2103 C2105 1.419 . S
C2104 C2102 1.415 . S
C2104 C2109 1.425 1_545 S
C2104 C2111 1.409 1_545 S
C2105 H2097 0.930 . S
C2105 C2103 1.419 . S
C2105 C2106 1.359 1_545 S
C2106 H2098 0.936 . S
C2106 C2105 1.359 1_565 S
C2106 C2109 1.407 . S
C2107 H2099 0.930 . S
C2107 C2108 1.355 . S
C2107 C2109 1.415 . S
C2108 C2107 1.355 . S
C2108 C2110 1.419 . S
C2109 C2104 1.425 1_565 S
C2109 C2106 1.407 . S
C2109 C2107 1.415 . S
C2110 H2100 0.930 . S
C2110 C2108 1.419 . S
C2110 C2111 1.362 . S
C2111 H2101 0.930 1_565 S
C2111 C2104 1.409 1_565 S
C2111 C2110 1.362 . S
H2112 C2118 0.930 . S
H2113 C2121 0.930 . S
H2114 C2122 0.930 . S
H2115 C2123 0.930 . S
H2116 C2126 0.927 1_545 S
H2117 C2127 0.930 . S
C2118 H2112 0.930 . S
C2118 C2119 1.355 . S
C2118 C2120 1.415 . S
C2119 C2118 1.355 . S
C2119 C2121 1.419 . S
C2120 C2118 1.415 . S
C2120 C2125 1.425 1_545 S
C2120 C2127 1.409 . S
C2121 H2113 0.930 . S
C2121 C2119 1.419 . S
C2121 C2122 1.362 1_545 S
C2122 H2114 0.930 . S
C2122 C2121 1.362 1_565 S
C2122 C2125 1.409 . S
C2123 H2115 0.930 . S
C2123 C2124 1.355 . S
C2123 C2125 1.415 . S
C2124 C2123 1.355 . S
C2124 C2126 1.419 . S
C2125 C2120 1.425 1_565 S
C2125 C2122 1.409 . S
C2125 C2123 1.415 . S
C2126 H2116 0.927 1_565 S
C2126 C2124 1.419 . S
C2126 C2127 1.362 1_565 S
C2127 H2117 0.930 . S
C2127 C2120 1.409 . S
C2127 C2126 1.362 1_545 S
H2128 C2134 0.930 . S
H2129 C2137 0.930 . S
H2130 C2138 0.930 . S
H2131 C2139 0.930 . S
H2132 C2142 0.930 . S
H2133 C2143 0.930 . S
C2134 H2128 0.930 . S
C2134 C2135 1.355 . S
C2134 C2136 1.415 . S
C2135 C2134 1.355 . S
C2135 C2137 1.419 1_455 S
C2136 C2134 1.415 . S
C2136 C2141 1.425 1_455 S
C2136 C2143 1.409 . S
C2137 H2129 0.930 . S
C2137 C2135 1.419 1_655 S
C2137 C2138 1.362 . S
C2138 H2130 0.930 . S
C2138 C2137 1.362 . S
C2138 C2141 1.409 . S
C2139 H2131 0.930 . S
C2139 C2140 1.355 . S
C2139 C2141 1.415 . S
C2140 C2139 1.355 . S
C2140 C2142 1.419 1_655 S
C2141 C2136 1.425 1_655 S
C2141 C2138 1.409 . S
C2141 C2139 1.415 . S
C2142 H2132 0.930 . S
C2142 C2140 1.419 1_455 S
C2142 C2143 1.362 . S
C2143 H2133 0.930 . S
C2143 C2136 1.409 . S
C2143 C2142 1.362 . S
H2144 C2150 0.930 . S
H2145 C2153 0.930 . S
H2146 C2154 0.930 . S
H2147 C2155 0.930 . S
H2148 C2158 0.930 . S
H2149 C2159 0.930 . S
C2150 H2144 0.930 . S
C2150 C2151 1.355 . S
C2150 C2152 1.415 . S
C2151 C2150 1.355 . S
C2151 C2153 1.419 . S
C2152 C2150 1.415 . S
C2152 C2157 1.425 . S
C2152 C2159 1.409 . S
C2153 H2145 0.930 . S
C2153 C2151 1.419 . S
C2153 C2154 1.362 . S
C2154 H2146 0.930 . S
C2154 C2153 1.362 . S
C2154 C2157 1.409 . S
C2155 H2147 0.930 . S
C2155 C2156 1.355 . S
C2155 C2157 1.415 . S
C2156 C2155 1.355 . S
C2156 C2158 1.419 . S
C2157 C2152 1.425 . S
C2157 C2154 1.409 . S
C2157 C2155 1.415 . S
C2158 H2148 0.930 . S
C2158 C2156 1.419 . S
C2158 C2159 1.362 . S
C2159 H2149 0.930 . S
C2159 C2152 1.409 . S
C2159 C2158 1.362 . S
H2160 C2166 0.930 . S
H2161 C2169 0.930 . S
H2162 C2170 0.930 . S
H2163 C2171 0.930 . S
H2164 C2174 0.930 . S
H2165 C2175 0.930 . S
C2166 H2160 0.930 . S
C2166 C2167 1.355 . S
C2166 C2168 1.415 . S
C2167 C2166 1.355 . S
C2167 C2169 1.419 . S
C2168 C2166 1.415 . S
C2168 C2173 1.425 1_655 S
C2168 C2175 1.409 1_655 S
C2169 H2161 0.930 . S
C2169 C2167 1.419 . S
C2169 C2170 1.362 . S
C2170 H2162 0.930 . S
C2170 C2169 1.362 . S
C2170 C2173 1.409 1_655 S
C2171 H2163 0.930 . S
C2171 C2172 1.355 . S
C2171 C2173 1.415 . S
C2172 C2171 1.355 . S
C2172 C2174 1.419 . S
C2173 C2168 1.425 1_455 S
C2173 C2170 1.409 1_455 S
C2173 C2171 1.415 . S
C2174 H2164 0.930 . S
C2174 C2172 1.419 . S
C2174 C2175 1.362 . S
C2175 H2165 0.930 . S
C2175 C2168 1.409 1_455 S
C2175 C2174 1.362 . S
H2176 C2182 0.930 . S
H2177 C2185 0.930 . S
H2178 C2186 0.930 . S
H2179 C2187 0.930 . S
H2180 C2190 0.930 . S
H2181 C2191 0.930 . S
C2182 H2176 0.930 . S
C2182 C2183 1.355 . S
C2182 C2184 1.415 . S
C2183 C2182 1.355 . S
C2183 C2185 1.419 . S
C2184 C2182 1.415 . S
C2184 C2189 1.425 . S
C2184 C2191 1.409 . S
C2185 H2177 0.930 . S
C2185 C2183 1.419 . S
C2185 C2186 1.362 . S
C2186 H2178 0.930 . S
C2186 C2185 1.362 . S
C2186 C2189 1.409 . S
C2187 H2179 0.930 . S
C2187 C2188 1.355 . S
C2187 C2189 1.415 . S
C2188 C2187 1.355 . S
C2188 C2190 1.419 . S
C2189 C2184 1.425 . S
C2189 C2186 1.409 . S
C2189 C2187 1.415 . S
C2190 H2180 0.930 . S
C2190 C2188 1.419 . S
C2190 C2191 1.362 . S
C2191 H2181 0.930 . S
C2191 C2184 1.409 . S
C2191 C2190 1.362 . S
H2192 C2198 0.930 . S
H2193 C2201 0.930 . S
H2194 C2202 0.930 . S
H2195 C2203 0.930 . S
H2196 C2206 0.930 . S
H2197 C2207 0.930 . S
C2198 H2192 0.930 . S
C2198 C2199 1.355 . S
C2198 C2200 1.415 . S
C2199 C2198 1.355 . S
C2199 C2201 1.419 . S
C2200 C2198 1.415 . S
C2200 C2205 1.425 1_545 S
C2200 C2207 1.409 1_545 S
C2201 H2193 0.930 . S
C2201 C2199 1.419 . S
C2201 C2202 1.362 . S
C2202 H2194 0.930 . S
C2202 C2201 1.362 . S
C2202 C2205 1.409 1_545 S
C2203 H2195 0.930 . S
C2203 C2204 1.355 . S
C2203 C2205 1.415 . S
C2204 C2203 1.355 . S
C2204 C2206 1.419 . S
C2205 C2200 1.425 1_565 S
C2205 C2202 1.409 1_565 S
C2205 C2203 1.415 . S
C2206 H2196 0.930 . S
C2206 C2204 1.419 . S
C2206 C2207 1.362 . S
C2207 H2197 0.930 . S
C2207 C2200 1.409 1_565 S
C2207 C2206 1.362 . S
H2208 C2214 0.930 . S
H2209 C2217 0.930 . S
H2210 C2218 0.930 . S
H2211 C2219 0.930 . S
H2212 C2222 0.930 . S
H2213 C2223 0.930 . S
C2214 H2208 0.930 . S
C2214 C2215 1.355 . S
C2214 C2216 1.415 1_655 S
C2215 C2214 1.355 . S
C2215 C2217 1.419 . S
C2216 C2214 1.415 1_455 S
C2216 C2221 1.414 1_455 S
C2216 C2223 1.409 . S
C2217 H2209 0.930 . S
C2217 C2215 1.419 . S
C2217 C2218 1.362 . S
C2218 H2210 0.930 . S
C2218 C2217 1.362 . S
C2218 C2221 1.440 . S
C2219 H2211 0.930 . S
C2219 C2220 1.355 . S
C2219 C2221 1.396 1_455 S
C2220 C2219 1.355 . S
C2220 C2222 1.419 . S
C2221 C2216 1.414 1_655 S
C2221 C2218 1.440 . S
C2221 C2219 1.396 1_655 S
C2222 H2212 0.930 . S
C2222 C2220 1.419 . S
C2222 C2223 1.362 . S
C2223 H2213 0.930 . S
C2223 C2216 1.409 . S
C2223 C2222 1.362 . S
H2224 C2230 0.930 . S
H2225 C2233 0.930 . S
H2226 C2234 0.930 . S
H2227 C2235 0.930 . S
H2228 C2238 0.930 . S
H2229 C2239 0.930 . S
C2230 H2224 0.930 . S
C2230 C2231 1.355 . S
C2230 C2232 1.415 . S
C2231 C2230 1.355 . S
C2231 C2233 1.419 . S
C2232 C2230 1.415 . S
C2232 C2237 1.425 . S
C2232 C2239 1.409 . S
C2233 H2225 0.930 . S
C2233 C2231 1.419 . S
C2233 C2234 1.362 . S
C2234 H2226 0.930 . S
C2234 C2233 1.362 . S
C2234 C2237 1.409 . S
C2235 H2227 0.930 . S
C2235 C2236 1.355 . S
C2235 C2237 1.415 . S
C2236 C2235 1.355 . S
C2236 C2238 1.419 . S
C2237 C2232 1.425 . S
C2237 C2234 1.409 . S
C2237 C2235 1.415 . S
C2238 H2228 0.930 . S
C2238 C2236 1.419 . S
C2238 C2239 1.362 . S
C2239 H2229 0.930 . S
C2239 C2232 1.409 . S
C2239 C2238 1.362 . S
H2240 C2246 0.930 . S
H2241 C2249 0.930 . S
H2242 C2250 0.930 1_565 S
H2243 C2251 0.930 . S
H2244 C2254 0.930 . S
H2245 C2255 0.950 . S
C2246 H2240 0.930 . S
C2246 C2247 1.355 . S
C2246 C2248 1.415 . S
C2247 C2246 1.355 . S
C2247 C2249 1.419 . S
C2248 C2246 1.415 . S
C2248 C2253 1.425 1_545 S
C2248 C2255 1.409 . S
C2249 H2241 0.930 . S
C2249 C2247 1.419 . S
C2249 C2250 1.363 . S
C2250 H2242 0.930 1_545 S
C2250 C2249 1.363 . S
C2250 C2253 1.409 1_545 S
C2251 H2243 0.930 . S
C2251 C2252 1.355 . S
C2251 C2253 1.415 . S
C2252 C2251 1.355 . S
C2252 C2254 1.419 . S
C2253 C2248 1.425 1_565 S
C2253 C2250 1.409 1_565 S
C2253 C2251 1.415 . S
C2254 H2244 0.930 . S
C2254 C2252 1.419 . S
C2254 C2255 1.343 1_565 S
C2255 H2245 0.950 . S
C2255 C2248 1.409 . S
C2255 C2254 1.343 1_545 S
H2256 C2262 0.930 . S
H2257 C2265 0.930 . S
H2258 C2266 0.930 . S
H2259 C2267 0.930 . S
H2260 C2270 0.930 . S
H2261 C2271 0.930 . S
C2262 H2256 0.930 . S
C2262 C2263 1.355 . S
C2262 C2264 1.415 . S
C2263 C2262 1.355 . S
C2263 C2265 1.419 . S
C2264 C2262 1.415 . S
C2264 C2269 1.425 . S
C2264 C2271 1.409 . S
C2265 H2257 0.930 . S
C2265 C2263 1.419 . S
C2265 C2266 1.362 . S
C2266 H2258 0.930 . S
C2266 C2265 1.362 . S
C2266 C2269 1.409 . S
C2267 H2259 0.930 . S
C2267 C2268 1.355 . S
C2267 C2269 1.415 . S
C2268 C2267 1.355 . S
C2268 C2270 1.419 . S
C2269 C2264 1.425 . S
C2269 C2266 1.409 . S
C2269 C2267 1.415 . S
C2270 H2260 0.930 . S
C2270 C2268 1.419 . S
C2270 C2271 1.362 . S
C2271 H2261 0.930 . S
C2271 C2264 1.409 . S
C2271 C2270 1.362 . S
H2272 C2278 0.930 . S
H2273 C2281 0.930 . S
H2274 C2282 0.930 . S
H2275 C2283 0.930 . S
H2276 C2286 0.930 . S
H2277 C2287 0.930 . S
C2278 H2272 0.930 . S
C2278 C2279 1.355 . S
C2278 C2280 1.415 . S
C2279 C2278 1.355 . S
C2279 C2281 1.419 . S
C2280 C2278 1.415 . S
C2280 C2285 1.425 . S
C2280 C2287 1.409 . S
C2281 H2273 0.930 . S
C2281 C2279 1.419 . S
C2281 C2282 1.362 . S
C2282 H2274 0.930 . S
C2282 C2281 1.362 . S
C2282 C2285 1.409 . S
C2283 H2275 0.930 . S
C2283 C2284 1.355 . S
C2283 C2285 1.415 . S
C2284 C2283 1.355 . S
C2284 C2286 1.419 . S
C2285 C2280 1.425 . S
C2285 C2282 1.409 . S
C2285 C2283 1.415 . S
C2286 H2276 0.930 . S
C2286 C2284 1.419 . S
C2286 C2287 1.362 . S
C2287 H2277 0.930 . S
C2287 C2280 1.409 . S
C2287 C2286 1.362 . S
H2288 C2294 0.930 . S
H2289 C2297 0.930 . S
H2290 C2298 0.930 . S
H2291 C2299 0.930 . S
H2292 C2302 0.930 . S
H2293 C2303 0.930 . S
C2294 H2288 0.930 . S
C2294 C2295 1.355 . S
C2294 C2296 1.415 . S
C2295 C2294 1.355 . S
C2295 C2297 1.419 . S
C2296 C2294 1.415 . S
C2296 C2301 1.425 . S
C2296 C2303 1.409 . S
C2297 H2289 0.930 . S
C2297 C2295 1.419 . S
C2297 C2298 1.362 . S
C2298 H2290 0.930 . S
C2298 C2297 1.362 . S
C2298 C2301 1.409 . S
C2299 H2291 0.930 . S
C2299 C2300 1.355 . S
C2299 C2301 1.415 . S
C2300 C2299 1.355 . S
C2300 C2302 1.419 . S
C2301 C2296 1.425 . S
C2301 C2298 1.409 . S
C2301 C2299 1.415 . S
C2302 H2292 0.930 . S
C2302 C2300 1.419 . S
C2302 C2303 1.362 . S
C2303 H2293 0.930 . S
C2303 C2296 1.409 . S
C2303 C2302 1.362 . S
H2304 C2310 0.930 . S
H2305 C2313 0.930 . S
H2306 C2314 0.930 . S
H2307 C2315 0.930 . S
H2308 C2318 0.930 . S
H2309 C2319 0.930 . S
C2310 H2304 0.930 . S
C2310 C2311 1.355 . S
C2310 C2312 1.415 . S
C2311 C2310 1.355 . S
C2311 C2313 1.419 . S
C2312 C2310 1.415 . S
C2312 C2317 1.425 . S
C2312 C2319 1.409 . S
C2313 H2305 0.930 . S
C2313 C2311 1.419 . S
C2313 C2314 1.362 . S
C2314 H2306 0.930 . S
C2314 C2313 1.362 . S
C2314 C2317 1.409 . S
C2315 H2307 0.930 . S
C2315 C2316 1.355 . S
C2315 C2317 1.415 . S
C2316 C2315 1.355 . S
C2316 C2318 1.419 . S
C2317 C2312 1.425 . S
C2317 C2314 1.409 . S
C2317 C2315 1.415 . S
C2318 H2308 0.930 . S
C2318 C2316 1.419 . S
C2318 C2319 1.362 . S
C2319 H2309 0.930 . S
C2319 C2312 1.409 . S
C2319 C2318 1.362 . S
H2320 C2326 0.930 . S
H2321 C2329 0.930 . S
H2322 C2330 0.930 . S
H2323 C2331 0.930 . S
H2324 C2334 0.930 . S
H2325 C2335 0.930 . S
C2326 H2320 0.930 . S
C2326 C2327 1.355 . S
C2326 C2328 1.415 . S
C2327 C2326 1.355 . S
C2327 C2329 1.419 . S
C2328 C2326 1.415 . S
C2328 C2333 1.425 . S
C2328 C2335 1.409 . S
C2329 H2321 0.930 . S
C2329 C2327 1.419 . S
C2329 C2330 1.362 . S
C2330 H2322 0.930 . S
C2330 C2329 1.362 . S
C2330 C2333 1.409 . S
C2331 H2323 0.930 . S
C2331 C2332 1.355 . S
C2331 C2333 1.415 . S
C2332 C2331 1.355 . S
C2332 C2334 1.419 . S
C2333 C2328 1.425 . S
C2333 C2330 1.409 . S
C2333 C2331 1.415 . S
C2334 H2324 0.930 . S
C2334 C2332 1.419 . S
C2334 C2335 1.362 . S
C2335 H2325 0.930 . S
C2335 C2328 1.409 . S
C2335 C2334 1.362 . S
H2336 C2342 0.930 . S
H2337 C2345 0.930 . S
H2338 C2346 0.930 . S
H2339 C2347 0.930 . S
H2340 C2350 0.930 . S
H2341 C2351 0.930 . S
C2342 H2336 0.930 . S
C2342 C2343 1.355 . S
C2342 C2344 1.415 . S
C2343 C2342 1.355 . S
C2343 C2345 1.419 . S
C2344 C2342 1.415 . S
C2344 C2349 1.425 . S
C2344 C2351 1.409 . S
C2345 H2337 0.930 . S
C2345 C2343 1.419 . S
C2345 C2346 1.362 . S
C2346 H2338 0.930 . S
C2346 C2345 1.362 . S
C2346 C2349 1.409 . S
C2347 H2339 0.930 . S
C2347 C2348 1.355 . S
C2347 C2349 1.415 . S
C2348 C2347 1.355 . S
C2348 C2350 1.419 . S
C2349 C2344 1.425 . S
C2349 C2346 1.409 . S
C2349 C2347 1.415 . S
C2350 H2340 0.930 . S
C2350 C2348 1.419 . S
C2350 C2351 1.362 . S
C2351 H2341 0.930 . S
C2351 C2344 1.409 . S
C2351 C2350 1.362 . S
H2352 C2358 0.930 . S
H2353 C2361 0.930 . S
H2354 C2362 0.930 . S
H2355 C2363 0.930 . S
H2356 C2366 0.930 . S
H2357 C2367 0.930 . S
C2358 H2352 0.930 . S
C2358 C2359 1.355 . S
C2358 C2360 1.415 . S
C2359 C2358 1.355 . S
C2359 C2361 1.419 . S
C2360 C2358 1.415 . S
C2360 C2365 1.425 . S
C2360 C2367 1.409 . S
C2361 H2353 0.930 . S
C2361 C2359 1.419 . S
C2361 C2362 1.362 . S
C2362 H2354 0.930 . S
C2362 C2361 1.362 . S
C2362 C2365 1.409 . S
C2363 H2355 0.930 . S
C2363 C2364 1.355 . S
C2363 C2365 1.415 . S
C2364 C2363 1.355 . S
C2364 C2366 1.419 . S
C2365 C2360 1.425 . S
C2365 C2362 1.409 . S
C2365 C2363 1.415 . S
C2366 H2356 0.930 . S
C2366 C2364 1.419 . S
C2366 C2367 1.362 . S
C2367 H2357 0.930 . S
C2367 C2360 1.409 . S
C2367 C2366 1.362 . S
H2368 C2374 0.930 . S
H2369 C2377 0.930 . S
H2370 C2378 0.930 . S
H2371 C2379 0.930 . S
H2372 C2382 0.930 . S
H2373 C2383 0.930 . S
C2374 H2368 0.930 . S
C2374 C2375 1.355 . S
C2374 C2376 1.415 . S
C2375 C2374 1.355 . S
C2375 C2377 1.419 . S
C2376 C2374 1.415 . S
C2376 C2381 1.425 . S
C2376 C2383 1.409 . S
C2377 H2369 0.930 . S
C2377 C2375 1.419 . S
C2377 C2378 1.362 . S
C2378 H2370 0.930 . S
C2378 C2377 1.362 . S
C2378 C2381 1.409 . S
C2379 H2371 0.930 . S
C2379 C2380 1.355 . S
C2379 C2381 1.415 . S
C2380 C2379 1.355 . S
C2380 C2382 1.419 . S
C2381 C2376 1.425 . S
C2381 C2378 1.409 . S
C2381 C2379 1.415 . S
C2382 H2372 0.930 . S
C2382 C2380 1.419 . S
C2382 C2383 1.362 . S
C2383 H2373 0.930 . S
C2383 C2376 1.409 . S
C2383 C2382 1.362 . S
H2384 C2390 0.930 . S
H2385 C2393 0.930 . S
H2386 C2394 0.930 . S
H2387 C2395 0.930 . S
H2388 C2398 0.930 . S
H2389 C2399 0.930 . S
C2390 H2384 0.930 . S
C2390 C2391 1.355 . S
C2390 C2392 1.415 . S
C2391 C2390 1.355 . S
C2391 C2393 1.419 . S
C2392 C2390 1.415 . S
C2392 C2397 1.425 . S
C2392 C2399 1.409 . S
C2393 H2385 0.930 . S
C2393 C2391 1.419 . S
C2393 C2394 1.362 . S
C2394 H2386 0.930 . S
C2394 C2393 1.362 . S
C2394 C2397 1.409 . S
C2395 H2387 0.930 . S
C2395 C2396 1.355 . S
C2395 C2397 1.415 . S
C2396 C2395 1.355 . S
C2396 C2398 1.419 . S
C2397 C2392 1.425 . S
C2397 C2394 1.409 . S
C2397 C2395 1.415 . S
C2398 H2388 0.930 . S
C2398 C2396 1.419 . S
C2398 C2399 1.362 . S
C2399 H2389 0.930 . S
C2399 C2392 1.409 . S
C2399 C2398 1.362 . S
H2400 C2406 0.930 . S
H2401 C2409 0.930 . S
H2402 C2410 0.930 . S
H2403 C2411 0.930 . S
H2404 C2414 0.930 . S
H2405 C2415 0.930 . S
C2406 H2400 0.930 . S
C2406 C2407 1.355 . S
C2406 C2408 1.415 . S
C2407 C2406 1.355 . S
C2407 C2409 1.419 . S
C2408 C2406 1.415 . S
C2408 C2413 1.425 . S
C2408 C2415 1.409 . S
C2409 H2401 0.930 . S
C2409 C2407 1.419 . S
C2409 C2410 1.362 . S
C2410 H2402 0.930 . S
C2410 C2409 1.362 . S
C2410 C2413 1.409 . S
C2411 H2403 0.930 . S
C2411 C2412 1.355 . S
C2411 C2413 1.415 . S
C2412 C2411 1.355 . S
C2412 C2414 1.419 . S
C2413 C2408 1.425 . S
C2413 C2410 1.409 . S
C2413 C2411 1.415 . S
C2414 H2404 0.930 . S
C2414 C2412 1.419 . S
C2414 C2415 1.362 . S
C2415 H2405 0.930 . S
C2415 C2408 1.409 . S
C2415 C2414 1.362 . S
H2416 C2422 0.930 . S
H2417 C2425 0.930 . S
H2418 C2426 0.930 . S
H2419 C2427 0.930 . S
H2420 C2430 0.930 . S
H2421 C2431 0.930 . S
C2422 H2416 0.930 . S
C2422 C2423 1.355 . S
C2422 C2424 1.415 . S
C2423 C2422 1.355 . S
C2423 C2425 1.419 . S
C2424 C2422 1.415 . S
C2424 C2429 1.425 . S
C2424 C2431 1.409 . S
C2425 H2417 0.930 . S
C2425 C2423 1.419 . S
C2425 C2426 1.362 . S
C2426 H2418 0.930 . S
C2426 C2425 1.362 . S
C2426 C2429 1.409 . S
C2427 H2419 0.930 . S
C2427 C2428 1.355 . S
C2427 C2429 1.415 . S
C2428 C2427 1.355 . S
C2428 C2430 1.419 . S
C2429 C2424 1.425 . S
C2429 C2426 1.409 . S
C2429 C2427 1.415 . S
C2430 H2420 0.930 . S
C2430 C2428 1.419 . S
C2430 C2431 1.362 . S
C2431 H2421 0.930 . S
C2431 C2424 1.409 . S
C2431 C2430 1.362 . S
H2432 C2438 0.930 . S
H2433 C2441 0.930 . S
H2434 C2442 0.930 . S
H2435 C2443 0.930 . S
H2436 C2446 0.930 . S
H2437 C2447 0.930 . S
C2438 H2432 0.930 . S
C2438 C2439 1.355 . S
C2438 C2440 1.415 . S
C2439 C2438 1.355 . S
C2439 C2441 1.419 . S
C2440 C2438 1.415 . S
C2440 C2445 1.425 . S
C2440 C2447 1.409 . S
C2441 H2433 0.930 . S
C2441 C2439 1.419 . S
C2441 C2442 1.362 . S
C2442 H2434 0.930 . S
C2442 C2441 1.362 . S
C2442 C2445 1.409 . S
C2443 H2435 0.930 . S
C2443 C2444 1.355 . S
C2443 C2445 1.415 . S
C2444 C2443 1.355 . S
C2444 C2446 1.419 . S
C2445 C2440 1.425 . S
C2445 C2442 1.409 . S
C2445 C2443 1.415 . S
C2446 H2436 0.930 . S
C2446 C2444 1.419 . S
C2446 C2447 1.362 . S
C2447 H2437 0.930 . S
C2447 C2440 1.409 . S
C2447 C2446 1.362 . S
C727 C1 1.492 . S
C732 C46 1.428 1_545 S
C743 C6 1.460 1_655 S
C748 C21 1.474 . S
C759 C41 1.477 . S
C764 C26 1.421 . S
C775 C61 1.502 . S
C780 C86 1.438 1_455 S
C791 C106 1.443 . S
C796 C81 1.497 . S
C807 C101 1.501 . S
C812 C66 1.477 1_565 S
C823 C129 1.474 . S
C828 C176 1.425 1_565 S
C839 C149 1.462 . S
C844 C136 1.473 1_455 S
C855 C169 1.489 . S
C860 C156 1.436 . S
C871 C189 1.493 . S
C876 C216 1.488 1_655 S
C887 C236 1.445 . S
C892 C209 1.495 . S
C903 C196 1.500 1_545 S
C908 C229 1.476 . S
C919 C286 1.473 . S
C924 C241 1.508 . S
C935 C261 1.487 . S
C940 C246 1.467 . S
C951 C266 1.466 . S
C956 C281 1.512 . S
C967 C301 1.494 . S
C972 C326 1.509 . S
C983 C346 1.488 . S
C988 C321 1.513 . S
C999 C306 1.466 . S
C1004 C341 1.524 . S
C1015 C369 1.501 . S
C1020 C416 1.458 . S
C1031 C389 1.494 . S
C1036 C376 1.468 . S
C1047 C396 1.502 . S
C1052 C409 1.481 . S
C1063 C456 1.419 1_554 S
C1068 C429 1.425 . S
C1079 C449 1.438 . S
C1084 C476 1.398 1_554 S
C1095 C436 1.419 1_554 S
C1100 C469 1.401 . S
C1111 C481 1.509 . S
C1116 C526 1.479 . S
C1127 C501 1.502 . S
C1132 C486 1.488 . S
C1143 C521 1.492 . S
C1148 C506 1.501 . S
C1159 C541 1.401 . S
C1164 C566 1.420 1_556 S
C1175 C561 1.406 . S
C1180 C586 1.398 1_556 S
C1191 C581 1.422 . S
C1196 C546 1.423 1_556 S
C1207 C609 1.491 . S
C1212 C656 1.461 . S
C1223 C629 1.481 . S
C1228 C616 1.480 . S
C1239 C636 1.468 . S
C1244 C649 1.511 . S
C1255 C669 1.520 . S
C1260 C696 1.445 . S
C1271 C689 1.486 . S
C1276 C716 1.493 . S
C1287 C676 1.445 . S
C1292 C709 1.523 . S
C1303 C16 1.434 . S
C1308 C401 1.500 . S
C1319 C361 1.491 1_565 S
C1324 C36 1.467 . S
C1335 C56 1.466 . S
C1340 C381 1.492 1_455 S
C1351 C76 1.352 . S
C1356 C681 1.312 . S
C1367 C701 1.311 . S
C1372 C96 1.351 . S
C1383 C116 1.276 . S
C1388 C661 1.349 1_655 S
C1399 C529 1.481 . S
C1404 C126 1.441 . S
C1415 C146 1.433 . S
C1420 C489 1.496 1_545 S
C1431 C166 1.440 . S
C1436 C509 1.502 1_655 S
C1447 C329 1.338 . S
C1452 C186 1.276 . S
C1463 C349 1.362 1_565 S
C1468 C206 1.291 . S
C1479 C309 1.309 . S
C1484 C226 1.316 . S
C1495 C256 1.360 . S
C1500 C641 1.430 . S
C1511 C276 1.387 . S
C1516 C601 1.392 . S
C1527 C621 1.432 . S
C1532 C296 1.392 . S
C1543 C201 1.345 . S
C1548 C316 1.373 . S
C1559 C221 1.384 . S
C1564 C336 1.322 . S
C1575 C181 1.328 . S
C1580 C356 1.367 . S
C1591 C49 1.458 . S
C1596 C366 1.482 . S
C1607 C386 1.425 . S
C1612 C9 1.492 . S
C1623 C406 1.432 . S
C1628 C29 1.467 . S
C1639 C569 1.362 . S
C1644 C426 1.274 . S
C1655 C589 1.314 . S
C1660 C446 1.316 . S
C1671 C466 1.301 . S
C1676 C549 1.384 . S
C1687 C161 1.458 . S
C1692 C496 1.482 . S
C1703 C121 1.489 . S
C1708 C516 1.421 . S
C1719 C141 1.448 . S
C1724 C536 1.460 . S
C1735 C556 1.355 . S
C1740 C441 1.324 . S
C1751 C461 1.317 . S
C1756 C576 1.300 . S
C1767 C596 1.318 . S
C1772 C421 1.313 . S
C1783 C606 1.371 . S
C1788 C289 1.405 . S
C1799 C626 1.428 . S
C1804 C249 1.392 . S
C1815 C646 1.407 . S
C1820 C269 1.424 . S
C1831 C666 1.373 . S
C1836 C89 1.347 . S
C1847 C109 1.329 . S
C1852 C686 1.322 . S
C1863 C69 1.384 . S
C1868 C706 1.318 . S
C1879 C588 1.921 . S
C1884 C8 1.952 . S
C1895 C548 1.931 . S
C1900 C28 1.933 . S
C1911 C48 1.956 . S
C1916 C568 1.915 . S
C1927 C268 2.154 . S
C1932 C68 2.173 . S
C1943 C88 2.144 . S
C1948 C288 2.164 . S
C1959 C108 2.165 . S
C1964 C248 2.152 . S
C1975 C139 1.992 . S
C1980 C479 1.937 . S
C1991 C159 1.994 . S
C1996 C439 1.939 . S
C2007 C179 2.005 . S
C2012 C459 1.969 . S
C2023 C639 2.197 . S
C2028 C199 2.156 . S
C2039 C659 2.158 . S
C2044 C219 2.181 . S
C2055 C619 2.215 . S
C2060 C239 2.189 . S
C2071 C308 2.220 . S
C2076 C508 2.216 . S
C2087 C328 2.206 . S
C2092 C528 2.222 . S
C2103 C348 2.245 . S
C2108 C488 2.226 . S
C2119 C379 2.234 . S
C2124 C719 2.254 . S
C2135 C679 2.249 . S
C2140 C399 2.276 . S
C2151 C419 2.227 . S
C2156 C699 2.204 . S
C2167 C99 1.369 . S
C2172 C19 1.294 . S
C2183 C119 1.291 . S
C2188 C39 1.366 . S
C2199 C79 1.369 . S
C2204 C59 1.294 . S
C2215 C128 1.370 . S
C2220 C208 1.292 . S
C2231 C228 1.368 . S
C2236 C148 1.296 . S
C2247 C168 1.346 . S
C2252 C188 1.308 . S
C2263 C339 1.390 . S
C2268 C259 1.446 . S
C2279 C359 1.385 . S
C2284 C279 1.448 . S
C2295 C319 1.453 . S
C2300 C299 1.382 . S
C2311 C448 1.525 . S
C2316 C368 1.596 . S
C2327 C388 1.577 . S
C2332 C468 1.545 . S
C2343 C408 1.543 . S
C2348 C428 1.593 . S
C2359 C499 1.578 . S
C2364 C579 1.544 . S
C2375 C599 1.584 . S
C2380 C519 1.549 . S
C2391 C539 1.593 . S
C2396 C559 1.544 . S
C2407 C608 1.390 . S
C2412 C688 1.444 . S
C2423 C708 1.381 . S
C2428 C628 1.452 . S
C2439 C648 1.453 . S
C2444 C668 1.381 . S
