# Generated by pormake.
# Topology nfa, (4)-cn, num edge types: 1
# Building blocks:
#     Node 0, Type 0, BuildingBlock: ESEHIV_clean_sbu_0, # of connection points: 4
#     Node 1, Type 0, BuildingBlock: ESEHIV_clean_sbu_0, # of connection points: 4
#     Node 2, Type 0, BuildingBlock: ESEHIV_clean_sbu_0, # of connection points: 4
#     Node 3, Type 0, BuildingBlock: ESEHIV_clean_sbu_0, # of connection points: 4
#     Node 4, Type 0, BuildingBlock: ESEHIV_clean_sbu_0, # of connection points: 4
#     Node 5, Type 0, BuildingBlock: ESEHIV_clean_sbu_0, # of connection points: 4
#     Node 6, Type 0, BuildingBlock: ESEHIV_clean_sbu_0, # of connection points: 4
#     Node 7, Type 0, BuildingBlock: ESEHIV_clean_sbu_0, # of connection points: 4
#     Node 8, Type 0, BuildingBlock: ESEHIV_clean_sbu_0, # of connection points: 4
#     Node 9, Type 0, BuildingBlock: ESEHIV_clean_sbu_0, # of connection points: 4
#     Node 10, Type 0, BuildingBlock: ESEHIV_clean_sbu_0, # of connection points: 4
#     Node 11, Type 0, BuildingBlock: ESEHIV_clean_sbu_0, # of connection points: 4
#     Node 12, Type 0, BuildingBlock: ESEHIV_clean_sbu_0, # of connection points: 4
#     Node 13, Type 0, BuildingBlock: ESEHIV_clean_sbu_0, # of connection points: 4
#     Node 14, Type 0, BuildingBlock: ESEHIV_clean_sbu_0, # of connection points: 4
#     Node 15, Type 0, BuildingBlock: ESEHIV_clean_sbu_0, # of connection points: 4
#     Node 16, Type 0, BuildingBlock: ESEHIV_clean_sbu_0, # of connection points: 4
#     Node 17, Type 0, BuildingBlock: ESEHIV_clean_sbu_0, # of connection points: 4
#     Node 18, Type 0, BuildingBlock: ESEHIV_clean_sbu_0, # of connection points: 4
#     Node 19, Type 0, BuildingBlock: ESEHIV_clean_sbu_0, # of connection points: 4
#     Node 20, Type 0, BuildingBlock: ESEHIV_clean_sbu_0, # of connection points: 4
#     Node 21, Type 0, BuildingBlock: ESEHIV_clean_sbu_0, # of connection points: 4
#     Node 22, Type 0, BuildingBlock: ESEHIV_clean_sbu_0, # of connection points: 4
#     Node 23, Type 0, BuildingBlock: ESEHIV_clean_sbu_0, # of connection points: 4
#     Edge 24, Type (0, 0), BuildingBlock: ZUJKAS_clean_linker_0, # of connection points: 2
#     Edge 25, Type (0, 0), BuildingBlock: ZUJKAS_clean_linker_0, # of connection points: 2
#     Edge 26, Type (0, 0), BuildingBlock: ZUJKAS_clean_linker_0, # of connection points: 2
#     Edge 27, Type (0, 0), BuildingBlock: ZUJKAS_clean_linker_0, # of connection points: 2
#     Edge 28, Type (0, 0), BuildingBlock: ZUJKAS_clean_linker_0, # of connection points: 2
#     Edge 29, Type (0, 0), BuildingBlock: ZUJKAS_clean_linker_0, # of connection points: 2
#     Edge 30, Type (0, 0), BuildingBlock: ZUJKAS_clean_linker_0, # of connection points: 2
#     Edge 31, Type (0, 0), BuildingBlock: ZUJKAS_clean_linker_0, # of connection points: 2
#     Edge 32, Type (0, 0), BuildingBlock: ZUJKAS_clean_linker_0, # of connection points: 2
#     Edge 33, Type (0, 0), BuildingBlock: ZUJKAS_clean_linker_0, # of connection points: 2
#     Edge 34, Type (0, 0), BuildingBlock: ZUJKAS_clean_linker_0, # of connection points: 2
#     Edge 35, Type (0, 0), BuildingBlock: ZUJKAS_clean_linker_0, # of connection points: 2
#     Edge 36, Type (0, 0), BuildingBlock: ZUJKAS_clean_linker_0, # of connection points: 2
#     Edge 37, Type (0, 0), BuildingBlock: ZUJKAS_clean_linker_0, # of connection points: 2
#     Edge 38, Type (0, 0), BuildingBlock: ZUJKAS_clean_linker_0, # of connection points: 2
#     Edge 39, Type (0, 0), BuildingBlock: ZUJKAS_clean_linker_0, # of connection points: 2
#     Edge 40, Type (0, 0), BuildingBlock: ZUJKAS_clean_linker_0, # of connection points: 2
#     Edge 41, Type (0, 0), BuildingBlock: ZUJKAS_clean_linker_0, # of connection points: 2
#     Edge 42, Type (0, 0), BuildingBlock: ZUJKAS_clean_linker_0, # of connection points: 2
#     Edge 43, Type (0, 0), BuildingBlock: ZUJKAS_clean_linker_0, # of connection points: 2
#     Edge 44, Type (0, 0), BuildingBlock: ZUJKAS_clean_linker_0, # of connection points: 2
#     Edge 45, Type (0, 0), BuildingBlock: ZUJKAS_clean_linker_0, # of connection points: 2
#     Edge 46, Type (0, 0), BuildingBlock: ZUJKAS_clean_linker_0, # of connection points: 2
#     Edge 47, Type (0, 0), BuildingBlock: ZUJKAS_clean_linker_0, # of connection points: 2
#     Edge 48, Type (0, 0), BuildingBlock: ZUJKAS_clean_linker_0, # of connection points: 2
#     Edge 49, Type (0, 0), BuildingBlock: ZUJKAS_clean_linker_0, # of connection points: 2
#     Edge 50, Type (0, 0), BuildingBlock: ZUJKAS_clean_linker_0, # of connection points: 2
#     Edge 51, Type (0, 0), BuildingBlock: ZUJKAS_clean_linker_0, # of connection points: 2
#     Edge 52, Type (0, 0), BuildingBlock: ZUJKAS_clean_linker_0, # of connection points: 2
#     Edge 53, Type (0, 0), BuildingBlock: ZUJKAS_clean_linker_0, # of connection points: 2
#     Edge 54, Type (0, 0), BuildingBlock: ZUJKAS_clean_linker_0, # of connection points: 2
#     Edge 55, Type (0, 0), BuildingBlock: ZUJKAS_clean_linker_0, # of connection points: 2
#     Edge 56, Type (0, 0), BuildingBlock: ZUJKAS_clean_linker_0, # of connection points: 2
#     Edge 57, Type (0, 0), BuildingBlock: ZUJKAS_clean_linker_0, # of connection points: 2
#     Edge 58, Type (0, 0), BuildingBlock: ZUJKAS_clean_linker_0, # of connection points: 2
#     Edge 59, Type (0, 0), BuildingBlock: ZUJKAS_clean_linker_0, # of connection points: 2
#     Edge 60, Type (0, 0), BuildingBlock: ZUJKAS_clean_linker_0, # of connection points: 2
#     Edge 61, Type (0, 0), BuildingBlock: ZUJKAS_clean_linker_0, # of connection points: 2
#     Edge 62, Type (0, 0), BuildingBlock: ZUJKAS_clean_linker_0, # of connection points: 2
#     Edge 63, Type (0, 0), BuildingBlock: ZUJKAS_clean_linker_0, # of connection points: 2
#     Edge 64, Type (0, 0), BuildingBlock: ZUJKAS_clean_linker_0, # of connection points: 2
#     Edge 65, Type (0, 0), BuildingBlock: ZUJKAS_clean_linker_0, # of connection points: 2
#     Edge 66, Type (0, 0), BuildingBlock: ZUJKAS_clean_linker_0, # of connection points: 2
#     Edge 67, Type (0, 0), BuildingBlock: ZUJKAS_clean_linker_0, # of connection points: 2
#     Edge 68, Type (0, 0), BuildingBlock: ZUJKAS_clean_linker_0, # of connection points: 2
#     Edge 69, Type (0, 0), BuildingBlock: ZUJKAS_clean_linker_0, # of connection points: 2
#     Edge 70, Type (0, 0), BuildingBlock: ZUJKAS_clean_linker_0, # of connection points: 2
#     Edge 71, Type (0, 0), BuildingBlock: ZUJKAS_clean_linker_0, # of connection points: 2
# Relax obj value: 0.071
# Max RMSD: 0.178
# Mean RMSD: 0.159
data_MOF--net-nfa--node1-ESEHIV_clean_sbu_0--edge1-ZUJKAS_clean_linker_0
_symmetry_space_group_name_H-M    P1
_symmetry_Int_Tables_number       1
_symmetry_cell_setting            triclinic
loop_
_symmetry_equiv_pos_as_xyz
'x, y, z'
_cell_length_a     54.124982
_cell_length_b     59.229475
_cell_length_c     56.749194
_cell_angle_alpha  89.119616
_cell_angle_beta   89.30568
_cell_angle_gamma 91.243257
loop_
_atom_site_label
_atom_site_type_symbol
_atom_site_fract_x
_atom_site_fract_y
_atom_site_fract_z
_atom_type_partial_charge
Cu0 Cu 0.10595 0.38037 0.37848 0.0
N1 N 0.07249 0.37202 0.37851 0.0
N2 N 0.04028 0.34781 0.37888 0.0
C3 C 0.06426 0.35124 0.37289 0.0
C4 C 0.03304 0.3673 0.38856 0.0
C5 C 0.053 0.38226 0.38828 0.0
O6 O 0.12176 0.35523 0.39518 0.0
C7 C 0.10369 0.39878 0.33304 0.0
O8 O 0.08075 0.40164 0.33996 0.0
H9 H 0.07621 0.3383 0.36623 0.0
H10 H 0.05361 0.3989 0.39586 0.0
N11 N 0.11153 0.40778 0.39371 0.0
N12 N 0.12646 0.44303 0.39721 0.0
C13 C 0.12599 0.4243 0.3841 0.0
C14 C 0.10249 0.41636 0.41383 0.0
C15 C 0.1119 0.43813 0.41614 0.0
C16 C 0.11295 0.35081 0.41578 0.0
O17 O 0.09636 0.36436 0.42442 0.0
H18 H 0.13614 0.42259 0.36772 0.0
H19 H 0.08962 0.4077 0.42575 0.0
O20 O 0.11779 0.38719 0.34622 0.0
H21 H 0.01493 0.37022 0.39606 0.0
H22 H 0.10787 0.44962 0.43026 0.0
Cu23 Cu 0.8992 0.90849 0.63374 0.0
N24 N 0.89876 0.91298 0.60092 0.0
N25 N 0.88137 0.91774 0.56569 0.0
C26 C 0.87799 0.91781 0.58921 0.0
C27 C 0.90521 0.91244 0.56221 0.0
C28 C 0.916 0.90966 0.58404 0.0
O29 O 0.86734 0.92146 0.64445 0.0
C30 C 0.93044 0.87197 0.63634 0.0
O31 O 0.94497 0.88825 0.62788 0.0
H32 H 0.86026 0.92017 0.59773 0.0
H33 H 0.93483 0.90487 0.58722 0.0
N34 N 0.92443 0.9249 0.64866 0.0
N35 N 0.95243 0.93211 0.67639 0.0
C36 C 0.93246 0.91956 0.67035 0.0
C37 C 0.93978 0.94155 0.6406 0.0
C38 C 0.957 0.94616 0.65781 0.0
C39 C 0.86635 0.94279 0.6402 0.0
O40 O 0.88623 0.95293 0.63128 0.0
H41 H 0.92416 0.90619 0.68119 0.0
H42 H 0.93904 0.9492 0.62321 0.0
O43 O 0.90758 0.87629 0.64014 0.0
H44 H 0.91404 0.9104 0.54518 0.0
H45 H 0.97234 0.95815 0.65631 0.0
Cu46 Cu 0.36056 0.61983 0.89179 0.0
N47 N 0.3551 0.61281 0.86025 0.0
N48 N 0.35034 0.58959 0.8298 0.0
C49 C 0.35808 0.59181 0.85216 0.0
C50 C 0.34241 0.61025 0.82341 0.0
C51 C 0.34522 0.62454 0.84232 0.0
O52 O 0.35263 0.59086 0.90763 0.0
C53 C 0.40044 0.64878 0.88257 0.0
O54 O 0.38546 0.65469 0.86564 0.0
H55 H 0.36545 0.57828 0.86279 0.0
H56 H 0.33974 0.64196 0.84314 0.0
N57 N 0.34015 0.64255 0.90285 0.0
N58 N 0.32806 0.6705 0.92613 0.0
C59 C 0.34501 0.65453 0.92226 0.0
C60 C 0.31938 0.65118 0.89396 0.0
C61 C 0.3118 0.66839 0.90838 0.0
C62 C 0.3299 0.58606 0.91193 0.0
O63 O 0.31384 0.60231 0.9107 0.0
H64 H 0.36074 0.65145 0.93335 0.0
H65 H 0.31043 0.64545 0.87814 0.0
O66 O 0.39412 0.6321 0.896 0.0
H67 H 0.33428 0.61454 0.80664 0.0
H68 H 0.29585 0.67879 0.90569 0.0
Cu69 Cu 0.66035 0.12103 0.12747 0.0
N70 N 0.64203 0.14225 0.1105 0.0
N71 N 0.61664 0.17071 0.10283 0.0
C72 C 0.63463 0.1629 0.11695 0.0
C73 C 0.61289 0.15453 0.08675 0.0
C74 C 0.62825 0.13699 0.09169 0.0
O75 O 0.63771 0.10939 0.15247 0.0
C76 C 0.68063 0.10495 0.08549 0.0
O77 O 0.67836 0.12636 0.07971 0.0
H78 H 0.64112 0.17145 0.13247 0.0
H79 H 0.62805 0.12075 0.08323 0.0
N80 N 0.68979 0.13293 0.14026 0.0
N81 N 0.73098 0.13157 0.14444 0.0
C82 C 0.71188 0.13065 0.1294 0.0
C83 C 0.69527 0.13616 0.16309 0.0
C84 C 0.72056 0.13549 0.16567 0.0
C85 C 0.63024 0.12347 0.16769 0.0
O86 O 0.63909 0.14426 0.16668 0.0
H87 H 0.7138 0.12518 0.11147 0.0
H88 H 0.68204 0.13603 0.17746 0.0
O89 O 0.6723 0.09803 0.10557 0.0
H90 H 0.59843 0.15442 0.07373 0.0
H91 H 0.73019 0.13547 0.18227 0.0
Cu92 Cu 0.11519 0.59671 0.13043 0.0
N93 N 0.11241 0.56859 0.11599 0.0
N94 N 0.121 0.53194 0.11275 0.0
C95 C 0.11679 0.54908 0.12754 0.0
C96 C 0.11862 0.54093 0.09091 0.0
C97 C 0.11337 0.56354 0.09295 0.0
O98 O 0.13305 0.5894 0.15948 0.0
C99 C 0.11776 0.62495 0.09116 0.0
O100 O 0.09587 0.61522 0.089 0.0
H101 H 0.11957 0.54806 0.14635 0.0
H102 H 0.11269 0.57571 0.07861 0.0
N103 N 0.08419 0.60833 0.13747 0.0
N104 N 0.0557 0.63466 0.1425 0.0
C105 C 0.08004 0.63035 0.14095 0.0
C106 C 0.06173 0.59819 0.13692 0.0
C107 C 0.04407 0.61442 0.14003 0.0
C108 C 0.1214 0.58594 0.17897 0.0
O109 O 0.09869 0.59307 0.18104 0.0
H110 H 0.09464 0.64313 0.14087 0.0
H111 H 0.05844 0.58046 0.13356 0.0
O112 O 0.13108 0.61891 0.10852 0.0
H113 H 0.12226 0.53226 0.07462 0.0
H114 H 0.02425 0.61161 0.13989 0.0
Cu115 Cu 0.63607 0.89293 0.36297 0.0
N116 N 0.61468 0.91292 0.34816 0.0
N117 N 0.58607 0.92563 0.32337 0.0
C118 C 0.59964 0.90786 0.33017 0.0
C119 C 0.59293 0.94259 0.33772 0.0
C120 C 0.61053 0.93467 0.35303 0.0
O121 O 0.61967 0.86354 0.36405 0.0
C122 C 0.67507 0.90767 0.33217 0.0
O123 O 0.65789 0.91868 0.32093 0.0
H124 H 0.59892 0.89151 0.32206 0.0
H125 H 0.61959 0.94404 0.3668 0.0
N126 N 0.64192 0.90154 0.39387 0.0
N127 N 0.66431 0.90934 0.42566 0.0
C128 C 0.6638 0.90924 0.40191 0.0
C129 C 0.62798 0.89681 0.41317 0.0
C130 C 0.64179 0.90157 0.43286 0.0
C131 C 0.61641 0.85117 0.34619 0.0
O132 O 0.62732 0.85689 0.32609 0.0
H133 H 0.6797 0.91294 0.39063 0.0
H134 H 0.60971 0.88905 0.41295 0.0
O135 O 0.66864 0.89336 0.34816 0.0
H136 H 0.58552 0.95941 0.33749 0.0
H137 H 0.63612 0.89857 0.45102 0.0
Cu138 Cu 0.37078 0.3579 0.63527 0.0
N139 N 0.35283 0.3329 0.62415 0.0
N140 N 0.34713 0.3011 0.60382 0.0
C141 C 0.36196 0.31927 0.60755 0.0
C142 C 0.3276 0.30354 0.61855 0.0
C143 C 0.33125 0.32312 0.6312 0.0
O144 O 0.40549 0.34901 0.62997 0.0
C145 C 0.33638 0.39098 0.62833 0.0
O146 O 0.32393 0.3754 0.64049 0.0
H147 H 0.37946 0.32255 0.59859 0.0
H148 H 0.31937 0.32935 0.64498 0.0
N149 N 0.36593 0.36276 0.66753 0.0
N150 N 0.36012 0.38464 0.69885 0.0
C151 C 0.36966 0.38327 0.67686 0.0
C152 C 0.3539 0.35041 0.68434 0.0
C153 C 0.35045 0.36386 0.7038 0.0
C154 C 0.41219 0.33242 0.64301 0.0
O155 O 0.39683 0.3249 0.65956 0.0
H156 H 0.37802 0.3973 0.66703 0.0
H157 H 0.34679 0.33339 0.68212 0.0
O158 O 0.35832 0.38643 0.6213 0.0
H159 H 0.31222 0.29167 0.62066 0.0
H160 H 0.34019 0.35914 0.71967 0.0
Cu161 Cu 0.8807 0.11003 0.88708 0.0
N162 N 0.84891 0.10221 0.87646 0.0
N163 N 0.81378 0.08163 0.87396 0.0
C164 C 0.83536 0.08458 0.8853 0.0
C165 C 0.81367 0.09811 0.85727 0.0
C166 C 0.83527 0.11089 0.85895 0.0
O167 O 0.88126 0.09563 0.91842 0.0
C168 C 0.90599 0.11152 0.84488 0.0
O169 O 0.88877 0.1265 0.84164 0.0
H170 H 0.84161 0.07362 0.89934 0.0
H171 H 0.84068 0.1253 0.84801 0.0
N172 N 0.88641 0.14135 0.88908 0.0
N173 N 0.90833 0.17395 0.8889 0.0
C174 C 0.90908 0.15115 0.89009 0.0
C175 C 0.87061 0.15847 0.88722 0.0
C176 C 0.88405 0.17859 0.88723 0.0
C177 C 0.87485 0.10684 0.93644 0.0
O178 O 0.87381 0.12891 0.93451 0.0
H179 H 0.92582 0.14157 0.89128 0.0
H180 H 0.85083 0.15645 0.88531 0.0
O181 O 0.90572 0.10023 0.86426 0.0
H182 H 0.79904 0.10073 0.84474 0.0
H183 H 0.87652 0.19528 0.8853 0.0
Cu184 Cu 0.38276 0.12944 0.383 0.0
N185 N 0.40016 0.14175 0.35683 0.0
N186 N 0.42699 0.14365 0.32633 0.0
C187 C 0.41828 0.13127 0.34502 0.0
C188 C 0.41368 0.16271 0.32652 0.0
C189 C 0.39718 0.16147 0.34526 0.0
O190 O 0.37682 0.09767 0.37629 0.0
C191 C 0.4068 0.15524 0.416 0.0
O192 O 0.40837 0.16929 0.39788 0.0
H193 H 0.42494 0.11487 0.35022 0.0
H194 H 0.38394 0.17406 0.35005 0.0
N195 N 0.35253 0.14294 0.38941 0.0
N196 N 0.32198 0.15386 0.4134 0.0
C197 C 0.34228 0.14124 0.41107 0.0
C198 C 0.33815 0.15714 0.37726 0.0
C199 C 0.31924 0.16392 0.39206 0.0
C200 C 0.36017 0.09332 0.36123 0.0
O201 O 0.34746 0.11009 0.35253 0.0
H202 H 0.3504 0.13156 0.42518 0.0
H203 H 0.34139 0.16254 0.35919 0.0
O204 O 0.39997 0.13487 0.41238 0.0
H205 H 0.41536 0.17649 0.31383 0.0
H206 H 0.30479 0.17548 0.38747 0.0
Cu207 Cu 0.12305 0.12049 0.62276 0.0
N208 N 0.10857 0.13029 0.59454 0.0
N209 N 0.10371 0.15192 0.56214 0.0
C210 C 0.11745 0.14792 0.58141 0.0
C211 C 0.08532 0.13614 0.5632 0.0
C212 C 0.08842 0.12275 0.58314 0.0
O213 O 0.15529 0.13608 0.62161 0.0
C214 C 0.08287 0.11452 0.6527 0.0
O215 O 0.07777 0.09994 0.63615 0.0
H216 H 0.13343 0.15799 0.58623 0.0
H217 H 0.0768 0.10859 0.58886 0.0
N218 N 0.12699 0.08906 0.62431 0.0
N219 N 0.13137 0.05481 0.641 0.0
C220 C 0.13083 0.07734 0.64443 0.0
C221 C 0.12503 0.07349 0.6074 0.0
C222 C 0.12781 0.05236 0.61762 0.0
C223 C 0.17502 0.12575 0.61651 0.0
O224 O 0.17519 0.10367 0.61883 0.0
H225 H 0.13306 0.08536 0.66129 0.0
H226 H 0.12136 0.07721 0.58907 0.0
O227 O 0.10201 0.12735 0.65006 0.0
H228 H 0.07077 0.13425 0.55041 0.0
H229 H 0.1266 0.03644 0.60857 0.0
Cu230 Cu 0.14267 0.86355 0.88802 0.0
N231 N 0.16066 0.8729 0.86095 0.0
N232 N 0.16797 0.8917 0.8268 0.0
C233 C 0.1507 0.8825 0.84167 0.0
C234 C 0.18981 0.88711 0.83697 0.0
C235 C 0.18524 0.87554 0.85798 0.0
O236 O 0.10856 0.87066 0.88112 0.0
C237 C 0.16758 0.89715 0.916 0.0
O238 O 0.17017 0.90915 0.89644 0.0
H239 H 0.13103 0.88338 0.83905 0.0
H240 H 0.19878 0.87072 0.87088 0.0
N241 N 0.14551 0.83247 0.89399 0.0
N242 N 0.14788 0.79958 0.91403 0.0
C243 C 0.14417 0.82208 0.91534 0.0
C244 C 0.15027 0.81608 0.87858 0.0
C245 C 0.1517 0.79582 0.89083 0.0
C246 C 0.10235 0.89111 0.87808 0.0
O247 O 0.11773 0.90725 0.88456 0.0
H248 H 0.14044 0.83096 0.93147 0.0
H249 H 0.15285 0.81873 0.8598 0.0
O250 O 0.15546 0.87848 0.91582 0.0
H251 H 0.2078 0.89286 0.83054 0.0
H252 H 0.15575 0.77968 0.88317 0.0
Cu253 Cu 0.35098 0.88445 0.14529 0.0
N254 N 0.34575 0.85371 0.14029 0.0
N255 N 0.33931 0.82174 0.12056 0.0
C256 C 0.34269 0.84438 0.11902 0.0
C257 C 0.34034 0.81667 0.14383 0.0
C258 C 0.34426 0.83646 0.15597 0.0
O259 O 0.33949 0.89923 0.11674 0.0
C260 C 0.395 0.90984 0.15295 0.0
O261 O 0.38132 0.92719 0.14754 0.0
H262 H 0.34337 0.85406 0.1027 0.0
H263 H 0.3459 0.83818 0.17484 0.0
N264 N 0.33337 0.89355 0.17194 0.0
N265 N 0.32533 0.91083 0.20588 0.0
C266 C 0.34281 0.90544 0.18989 0.0
C267 C 0.30907 0.89104 0.17684 0.0
C268 C 0.30402 0.90181 0.19772 0.0
C269 C 0.32424 0.91527 0.11577 0.0
O270 O 0.31785 0.92552 0.1352 0.0
H271 H 0.36199 0.91074 0.19081 0.0
H272 H 0.2959 0.88248 0.16569 0.0
O273 O 0.38577 0.89 0.15132 0.0
H274 H 0.33816 0.79993 0.15158 0.0
H275 H 0.28604 0.90308 0.2061 0.0
Cu276 Cu 0.36682 0.35799 0.15521 0.0
N277 N 0.37686 0.32825 0.15154 0.0
N278 N 0.4031 0.30017 0.14578 0.0
C279 C 0.40026 0.32273 0.14641 0.0
C280 C 0.38047 0.29113 0.15076 0.0
C281 C 0.36431 0.30851 0.15432 0.0
O282 O 0.39353 0.3725 0.17287 0.0
C283 C 0.34283 0.35917 0.11323 0.0
O284 O 0.33589 0.33948 0.12229 0.0
H285 H 0.41504 0.33515 0.14384 0.0
H286 H 0.34485 0.30682 0.15865 0.0
N287 N 0.337 0.35995 0.17189 0.0
N288 N 0.29924 0.37314 0.17878 0.0
C289 C 0.3212 0.3767 0.16774 0.0
C290 C 0.32474 0.3452 0.18631 0.0
C291 C 0.30134 0.35331 0.19057 0.0
C292 C 0.39687 0.36342 0.19311 0.0
O293 O 0.38129 0.34738 0.20032 0.0
H294 H 0.32528 0.39053 0.15553 0.0
H295 H 0.33187 0.3293 0.19253 0.0
O296 O 0.3589 0.37092 0.12425 0.0
H297 H 0.37583 0.27327 0.15162 0.0
H298 H 0.28686 0.34499 0.20101 0.0
Cu299 Cu 0.90165 0.89524 0.10273 0.0
N300 N 0.90546 0.92406 0.08897 0.0
N301 N 0.89696 0.96095 0.08651 0.0
C302 C 0.90094 0.94302 0.10093 0.0
C303 C 0.89985 0.95293 0.0645 0.0
C304 C 0.90488 0.93021 0.06607 0.0
O305 O 0.87944 0.90021 0.1294 0.0
C306 C 0.9035 0.86889 0.06319 0.0
O307 O 0.9248 0.87989 0.06132 0.0
H308 H 0.89861 0.94306 0.11986 0.0
H309 H 0.9055 0.91869 0.0515 0.0
N310 N 0.93155 0.88345 0.11269 0.0
N311 N 0.95869 0.85675 0.12145 0.0
C312 C 0.93503 0.86126 0.11623 0.0
C313 C 0.95373 0.89355 0.11583 0.0
C314 C 0.97054 0.87708 0.12137 0.0
C315 C 0.88766 0.90266 0.15018 0.0
O316 O 0.91017 0.89626 0.15481 0.0
H317 H 0.92038 0.84867 0.11468 0.0
H318 H 0.95752 0.91147 0.11368 0.0
O319 O 0.88889 0.87359 0.08012 0.0
H320 H 0.89621 0.96214 0.04835 0.0
H321 H 0.99009 0.87982 0.12429 0.0
Cu322 Cu 0.13184 0.63098 0.62632 0.0
N323 N 0.15782 0.61529 0.64108 0.0
N324 N 0.18761 0.58965 0.64611 0.0
C325 C 0.16994 0.59771 0.63168 0.0
C326 C 0.18656 0.60285 0.66531 0.0
C327 C 0.16837 0.61863 0.66213 0.0
O328 O 0.14253 0.6333 0.59348 0.0
C329 C 0.0955 0.60824 0.65242 0.0
O330 O 0.11408 0.60552 0.66678 0.0
H331 H 0.16557 0.59076 0.61467 0.0
H332 H 0.16309 0.6315 0.67441 0.0
N333 N 0.125 0.66002 0.63799 0.0
N334 N 0.10253 0.69077 0.64568 0.0
C335 C 0.10321 0.67047 0.63501 0.0
C336 C 0.13861 0.67414 0.65119 0.0
C337 C 0.12492 0.69308 0.65584 0.0
C338 C 0.15979 0.64776 0.589 0.0
O339 O 0.16653 0.66167 0.60566 0.0
H340 H 0.08817 0.66327 0.62501 0.0
H341 H 0.15714 0.67091 0.6571 0.0
O342 O 0.10012 0.61552 0.63156 0.0
H343 H 0.19827 0.6014 0.68056 0.0
H344 H 0.13094 0.70728 0.66625 0.0
Cu345 Cu 0.6207 0.85294 0.87688 0.0
N346 N 0.61347 0.86408 0.8467 0.0
N347 N 0.61035 0.89058 0.81844 0.0
C348 C 0.62278 0.88367 0.83758 0.0
C349 C 0.59259 0.87467 0.81517 0.0
C350 C 0.59455 0.85835 0.83262 0.0
O351 O 0.63848 0.87785 0.89237 0.0
C352 C 0.58155 0.82279 0.88394 0.0
O353 O 0.59252 0.81407 0.86558 0.0
H354 H 0.63689 0.89377 0.846 0.0
H355 H 0.5818 0.84432 0.83572 0.0
N356 N 0.64078 0.8277 0.87637 0.0
N357 N 0.65147 0.79389 0.89037 0.0
C358 C 0.64339 0.81458 0.89567 0.0
C359 C 0.64796 0.81508 0.85809 0.0
C360 C 0.65449 0.79409 0.86671 0.0
C361 C 0.66109 0.88093 0.88611 0.0
O362 O 0.67111 0.86608 0.87217 0.0
H363 H 0.63654 0.81921 0.9129 0.0
H364 H 0.6461 0.81992 0.83975 0.0
O365 O 0.59014 0.84125 0.89234 0.0
H366 H 0.5784 0.87541 0.80192 0.0
H367 H 0.65932 0.77965 0.85628 0.0
Cu368 Cu 0.87026 0.12003 0.35266 0.0
N369 N 0.85297 0.14437 0.36494 0.0
N370 N 0.84998 0.1762 0.3855 0.0
C371 C 0.864 0.16415 0.37066 0.0
C372 C 0.82905 0.16372 0.3889 0.0
C373 C 0.83097 0.1441 0.37631 0.0
O374 O 0.90427 0.12675 0.361 0.0
C375 C 0.83615 0.08562 0.35947 0.0
O376 O 0.82352 0.09982 0.3466 0.0
H377 H 0.88294 0.16856 0.36601 0.0
H378 H 0.81818 0.12987 0.37731 0.0
N379 N 0.86661 0.11693 0.32017 0.0
N380 N 0.86223 0.09754 0.28689 0.0
C381 C 0.8704 0.0973 0.30926 0.0
C382 C 0.85573 0.13031 0.30418 0.0
C383 C 0.85305 0.11838 0.28355 0.0
C384 C 0.919 0.1369 0.34653 0.0
O385 O 0.91345 0.13747 0.32407 0.0
H386 H 0.87734 0.08255 0.31828 0.0
H387 H 0.84904 0.14702 0.30767 0.0
O388 O 0.85784 0.09142 0.36584 0.0
H389 H 0.81415 0.16775 0.4009 0.0
H390 H 0.84428 0.12435 0.26767 0.0
Cu391 Cu 0.64211 0.14252 0.6473 0.0
N392 N 0.6606 0.16914 0.64157 0.0
N393 N 0.66793 0.2034 0.62556 0.0
C394 C 0.65256 0.18526 0.62678 0.0
C395 C 0.68678 0.1985 0.63998 0.0
C396 C 0.6821 0.17733 0.65004 0.0
O397 O 0.60862 0.15126 0.63705 0.0
C398 C 0.67877 0.1108 0.64347 0.0
O399 O 0.6871 0.12391 0.66018 0.0
H400 H 0.63567 0.18365 0.61688 0.0
H401 H 0.69339 0.16875 0.66281 0.0
N402 N 0.64014 0.13413 0.67919 0.0
N403 N 0.63705 0.10957 0.7094 0.0
C404 C 0.63409 0.11291 0.68609 0.0
C405 C 0.64709 0.14482 0.69889 0.0
C406 C 0.64498 0.12967 0.71768 0.0
C407 C 0.59806 0.16534 0.65063 0.0
O408 O 0.6087 0.17019 0.67065 0.0
H409 H 0.6285 0.0999 0.67394 0.0
H410 H 0.65416 0.16203 0.69939 0.0
O411 O 0.65885 0.11634 0.63301 0.0
H412 H 0.70244 0.2096 0.64339 0.0
H413 H 0.65009 0.13285 0.73573 0.0
Cu414 Cu 0.1234 0.38478 0.88828 0.0
N415 N 0.09676 0.3984 0.87316 0.0
N416 N 0.06565 0.40157 0.84759 0.0
C417 C 0.08561 0.38973 0.8541 0.0
C418 C 0.06425 0.41842 0.86333 0.0
C419 C 0.0834 0.41638 0.8791 0.0
O420 O 0.11445 0.35255 0.88839 0.0
C421 C 0.15817 0.41429 0.86788 0.0
O422 O 0.13902 0.4275 0.86861 0.0
H423 H 0.09162 0.37447 0.84574 0.0
H424 H 0.08709 0.42704 0.89402 0.0
N425 N 0.1287 0.39448 0.91919 0.0
N426 N 0.15089 0.40221 0.95126 0.0
C427 C 0.15133 0.39502 0.92884 0.0
C428 C 0.11329 0.40185 0.93609 0.0
C429 C 0.12694 0.4064 0.95603 0.0
C430 C 0.09583 0.34692 0.90138 0.0
O431 O 0.0862 0.36227 0.91494 0.0
H432 H 0.16782 0.38969 0.9197 0.0
H433 H 0.09357 0.40362 0.93417 0.0
O434 O 0.15483 0.39335 0.87284 0.0
H435 H 0.05038 0.4313 0.86356 0.0
H436 H 0.11985 0.4124 0.97266 0.0
Cu437 Cu 0.36213 0.65273 0.36469 0.0
N438 N 0.33304 0.64394 0.34975 0.0
N439 N 0.29835 0.62351 0.34456 0.0
C440 C 0.31922 0.62601 0.3571 0.0
C441 C 0.29907 0.6407 0.32862 0.0
C442 C 0.32054 0.65331 0.33187 0.0
O443 O 0.35533 0.6458 0.39786 0.0
C444 C 0.39302 0.63939 0.3292 0.0
O445 O 0.37597 0.64989 0.31726 0.0
H446 H 0.32416 0.61542 0.37194 0.0
H447 H 0.32646 0.66829 0.32205 0.0
N448 N 0.37042 0.68322 0.35989 0.0
N449 N 0.39545 0.71359 0.35582 0.0
C450 C 0.39371 0.69137 0.36132 0.0
C451 C 0.35673 0.70084 0.35322 0.0
C452 C 0.37217 0.71966 0.35068 0.0
C453 C 0.3467 0.66084 0.41129 0.0
O454 O 0.34684 0.68194 0.40388 0.0
H455 H 0.40921 0.68089 0.36561 0.0
H456 H 0.33704 0.70005 0.35024 0.0
O457 O 0.39004 0.63688 0.3514 0.0
H458 H 0.28517 0.64394 0.31552 0.0
H459 H 0.36665 0.73645 0.34551 0.0
Cu460 Cu 0.89797 0.64111 0.85858 0.0
N461 N 0.90976 0.61223 0.85281 0.0
N462 N 0.91911 0.58222 0.83114 0.0
C463 C 0.9078 0.6023 0.83172 0.0
C464 C 0.92848 0.57936 0.85293 0.0
C465 C 0.92279 0.59796 0.86623 0.0
O466 O 0.90228 0.65644 0.82813 0.0
C467 C 0.86056 0.62684 0.88862 0.0
O468 O 0.8788 0.61438 0.89597 0.0
H469 H 0.89828 0.60987 0.81703 0.0
H470 H 0.92814 0.60101 0.88422 0.0
N471 N 0.91504 0.65615 0.88234 0.0
N472 N 0.92039 0.68001 0.91217 0.0
C473 C 0.90526 0.67291 0.89492 0.0
C474 C 0.93724 0.65239 0.89187 0.0
C475 C 0.94065 0.66717 0.91023 0.0
C476 C 0.9232 0.66562 0.82295 0.0
O477 O 0.93891 0.66938 0.83997 0.0
H478 H 0.88723 0.67965 0.89141 0.0
H479 H 0.94988 0.63965 0.88611 0.0
O480 O 0.86405 0.6393 0.87032 0.0
H481 H 0.93926 0.56517 0.85869 0.0
H482 H 0.95655 0.66798 0.92157 0.0
Cu483 Cu 0.63936 0.63332 0.12357 0.0
N484 N 0.67082 0.64313 0.11357 0.0
N485 N 0.70146 0.65028 0.08754 0.0
C486 C 0.67904 0.64045 0.09135 0.0
C487 C 0.70771 0.65945 0.10836 0.0
C488 C 0.68864 0.65514 0.12438 0.0
O489 O 0.61976 0.63664 0.09527 0.0
C490 C 0.65561 0.59831 0.15155 0.0
O491 O 0.67245 0.61382 0.15631 0.0
H492 H 0.66857 0.63146 0.0782 0.0
H493 H 0.68764 0.66071 0.14242 0.0
N494 N 0.62682 0.64989 0.14862 0.0
N495 N 0.60455 0.65632 0.18117 0.0
C496 C 0.61065 0.64119 0.16469 0.0
C497 C 0.63137 0.6713 0.15521 0.0
C498 C 0.61743 0.6754 0.17523 0.0
C499 C 0.61133 0.65594 0.08997 0.0
O500 O 0.61084 0.67147 0.1062 0.0
H501 H 0.60321 0.6241 0.16406 0.0
H502 H 0.6438 0.68309 0.14607 0.0
O503 O 0.6399 0.60251 0.13565 0.0
H504 H 0.72451 0.66909 0.11161 0.0
H505 H 0.61697 0.69106 0.18478 0.0
Cu506 Cu 0.6293 0.3962 0.38888 0.0
N507 N 0.62823 0.42663 0.37992 0.0
N508 N 0.62694 0.45624 0.35508 0.0
C509 C 0.63 0.43377 0.35735 0.0
C510 C 0.62322 0.46356 0.37725 0.0
C511 C 0.62388 0.44519 0.39256 0.0
O512 O 0.60942 0.38084 0.36508 0.0
C513 C 0.6795 0.40062 0.39972 0.0
O514 O 0.67396 0.42207 0.40042 0.0
H515 H 0.63336 0.42251 0.34287 0.0
H516 H 0.62103 0.44532 0.41145 0.0
N517 N 0.61635 0.39052 0.41912 0.0
N518 N 0.61505 0.37468 0.45516 0.0
C519 C 0.62591 0.37494 0.43367 0.0
C520 C 0.59865 0.40058 0.43183 0.0
C521 C 0.59767 0.39067 0.45409 0.0
C522 C 0.58703 0.38714 0.36423 0.0
O523 O 0.57914 0.4009 0.38048 0.0
H524 H 0.64069 0.36397 0.42852 0.0
H525 H 0.58763 0.4144 0.42559 0.0
O526 O 0.66351 0.38653 0.39195 0.0
H527 H 0.61963 0.4808 0.38204 0.0
H528 H 0.58563 0.39529 0.46851 0.0
Cu529 Cu 0.90422 0.37941 0.60161 0.0
N530 N 0.92245 0.36624 0.57729 0.0
N531 N 0.92923 0.34569 0.54528 0.0
C532 C 0.91236 0.35259 0.56108 0.0
C533 C 0.95088 0.35534 0.55159 0.0
C534 C 0.94657 0.36834 0.57122 0.0
O535 O 0.87021 0.37909 0.59019 0.0
C536 C 0.93056 0.35902 0.63821 0.0
O537 O 0.94793 0.35891 0.62191 0.0
H538 H 0.89296 0.34776 0.56086 0.0
H539 H 0.96002 0.37868 0.5803 0.0
N540 N 0.91483 0.40895 0.60758 0.0
N541 N 0.92307 0.43901 0.62973 0.0
C542 C 0.91248 0.41824 0.62894 0.0
C543 C 0.92745 0.42435 0.59423 0.0
C544 C 0.93238 0.44307 0.60785 0.0
C545 C 0.86613 0.39212 0.57261 0.0
O546 O 0.88385 0.40618 0.56542 0.0
H547 H 0.90329 0.40974 0.64373 0.0
H548 H 0.93311 0.42196 0.57611 0.0
O549 O 0.90877 0.36444 0.63229 0.0
H550 H 0.96833 0.35352 0.54237 0.0
H551 H 0.94264 0.45816 0.60231 0.0
H552 H 0.10116 0.34132 0.46152 0.0
H553 H 0.10511 0.30596 0.48319 0.0
H554 H 0.14083 0.27661 0.42302 0.0
H555 H 0.13642 0.31232 0.40072 0.0
H556 H 0.1045 0.24851 0.44198 0.0
H557 H 0.1642 0.27835 0.51373 0.0
H558 H 0.13757 0.29562 0.51091 0.0
H559 H 0.15984 0.29475 0.48709 0.0
C560 C 0.11019 0.32752 0.45285 0.0
C561 C 0.11857 0.3298 0.42932 0.0
C562 C 0.11258 0.30725 0.46541 0.0
C563 C 0.12364 0.28862 0.45499 0.0
C564 C 0.13239 0.2908 0.43156 0.0
H565 H 0.14754 0.17141 0.54839 0.0
H566 H 0.15417 0.20272 0.52024 0.0
C567 C 0.13001 0.31126 0.41886 0.0
C568 C 0.12459 0.26673 0.46841 0.0
H569 H 0.14007 0.2444 0.52202 0.0
C570 C 0.11262 0.24751 0.45933 0.0
C571 C 0.13549 0.26516 0.49094 0.0
C572 C 0.15022 0.28452 0.50112 0.0
C573 C 0.11022 0.22722 0.47258 0.0
C574 C 0.1195 0.22621 0.49584 0.0
C575 C 0.13254 0.24511 0.50441 0.0
C576 C 0.1155 0.20607 0.51184 0.0
C577 C 0.09781 0.20708 0.4614 0.0
C578 C 0.09155 0.19736 0.51671 0.0
C579 C 0.08773 0.1793 0.53273 0.0
C580 C 0.10772 0.16976 0.54465 0.0
C581 C 0.13168 0.17847 0.53974 0.0
C582 C 0.13551 0.19636 0.52354 0.0
H583 H 0.09962 0.20795 0.44188 0.0
H584 H 0.10574 0.191 0.46776 0.0
H585 H 0.0778 0.20692 0.4659 0.0
H586 H 0.07566 0.2049 0.50859 0.0
H587 H 0.06903 0.17329 0.53635 0.0
H588 H 0.95961 0.89336 0.70106 0.0
H589 H 0.98377 0.88868 0.73685 0.0
H590 H 1.00298 0.95969 0.73506 0.0
H591 H 0.97855 0.96457 0.69916 0.0
H592 H 0.03694 0.90141 0.74192 0.0
H593 H 0.97389 0.94531 0.80359 0.0
H594 H 0.96342 0.93404 0.77594 0.0
H595 H 0.98201 0.95946 0.77617 0.0
C596 C 0.96871 0.90806 0.7084 0.0
C597 C 0.96695 0.92942 0.69739 0.0
C598 C 0.98264 0.90531 0.72877 0.0
C599 C 0.99492 0.92387 0.73874 0.0
C600 C 0.9934 0.9452 0.72778 0.0
H601 H 0.08821 0.93286 0.86264 0.0
H602 H 0.06139 0.94137 0.82944 0.0
C603 C 0.9796 0.94794 0.70721 0.0
C604 C 0.0097 0.9206 0.76033 0.0
H605 H 0.01058 0.93094 0.81942 0.0
C606 C 0.03121 0.90787 0.75887 0.0
C607 C 1.00224 0.92919 0.78236 0.0
C608 C 0.97906 0.94268 0.78484 0.0
C609 C 0.04549 0.9035 0.77886 0.0
C610 C 0.03766 0.91152 0.80104 0.0
C611 C 0.01638 0.92461 0.80245 0.0
C612 C 0.05152 0.90649 0.82287 0.0
C613 C 0.06909 0.89064 0.77603 0.0
C614 C 0.05403 0.88411 0.83084 0.0
C615 C 0.06928 0.87915 0.84989 0.0
C616 C 0.08231 0.89652 0.86137 0.0
C617 C 0.0785 0.91905 0.85424 0.0
C618 C 0.06322 0.92397 0.83519 0.0
H619 H 0.07559 0.8906 0.75738 0.0
H620 H 0.08399 0.89799 0.78701 0.0
H621 H 0.06579 0.87285 0.78186 0.0
H622 H 0.04477 0.87039 0.82184 0.0
H623 H 0.0717 0.86163 0.85489 0.0
H624 H 0.32031 0.83136 0.07758 0.0
H625 H 0.31596 0.80588 0.0444 0.0
H626 H 0.34588 0.7518 0.08617 0.0
H627 H 0.3504 0.77723 0.11947 0.0
H628 H 0.35252 0.78346 0.02101 0.0
H629 H 0.28353 0.72242 0.05945 0.0
H630 H 0.28997 0.7496 0.07227 0.0
H631 H 0.31034 0.72649 0.07735 0.0
C632 C 0.32603 0.81408 0.07976 0.0
C633 C 0.33577 0.8064 0.10127 0.0
C634 C 0.3234 0.79949 0.06077 0.0
C635 C 0.3303 0.77685 0.06286 0.0
C636 C 0.33991 0.76906 0.0843 0.0
H637 H 0.36745 0.68612 0.95071 0.0
H638 H 0.36703 0.71227 0.98346 0.0
C639 C 0.34251 0.78364 0.10335 0.0
C640 C 0.3285 0.76175 0.04224 0.0
H641 H 0.30323 0.71185 0.0236 0.0
C642 C 0.34163 0.76787 0.02154 0.0
C643 C 0.31402 0.74155 0.04281 0.0
C644 C 0.29846 0.73468 0.06407 0.0
C645 C 0.34117 0.75409 1.00161 0.0
C646 C 0.32753 0.73343 1.00252 0.0
C647 C 0.31387 0.72758 0.023 0.0
C648 C 0.32761 0.71747 0.98258 0.0
C649 C 0.35513 0.7619 0.97969 0.0
C650 C 0.30549 0.71124 0.97149 0.0
C651 C 0.30561 0.69601 0.95284 0.0
C652 C 0.32785 0.68654 0.94507 0.0
C653 C 0.34994 0.69281 0.95634 0.0
C654 C 0.34979 0.70802 0.97492 0.0
H655 H 0.35854 0.78047 0.97951 0.0
H656 H 0.37333 0.75365 0.97912 0.0
H657 H 0.34491 0.7573 0.96354 0.0
H658 H 0.28812 0.71822 0.97722 0.0
H659 H 0.28824 0.69138 0.94479 0.0
H660 H 0.45389 0.17214 0.29731 0.0
H661 H 0.48654 0.16229 0.26959 0.0
H662 H 0.47765 0.09215 0.28982 0.0
H663 H 0.44458 0.10171 0.31736 0.0
H664 H 0.52725 0.10781 0.28902 0.0
H665 H 0.48036 0.13034 0.20592 0.0
H666 H 0.48014 0.15244 0.22723 0.0
H667 H 0.46385 0.12622 0.23357 0.0
C668 C 0.45849 0.15455 0.29571 0.0
C669 C 0.44632 0.13777 0.30971 0.0
C670 C 0.47725 0.14894 0.27977 0.0
C671 C 0.48435 0.12643 0.27734 0.0
C672 C 0.47244 0.10963 0.29131 0.0
H673 H 0.5917 0.09236 0.16492 0.0
H674 H 0.55575 0.08866 0.19193 0.0
C675 C 0.45357 0.11519 0.30721 0.0
C676 C 0.5049 0.12069 0.26092 0.0
H677 H 0.5242 0.12585 0.20345 0.0
C678 C 0.52645 0.11147 0.27026 0.0
C679 C 0.50378 0.12511 0.23637 0.0
C680 C 0.48071 0.13387 0.22509 0.0
C681 C 0.54731 0.10772 0.25593 0.0
C682 C 0.54671 0.11345 0.23164 0.0
C683 C 0.52472 0.12153 0.22207 0.0
C684 C 0.56936 0.11349 0.21647 0.0
C685 C 0.57004 0.09804 0.26699 0.0
C686 C 0.58898 0.12845 0.2214 0.0
C687 C 0.60926 0.13067 0.20604 0.0
C688 C 0.61054 0.1179 0.18539 0.0
C689 C 0.59138 0.1022 0.18085 0.0
C690 C 0.57079 0.1002 0.19617 0.0
H691 H 0.5654 0.08849 0.28351 0.0
H692 H 0.57964 0.08668 0.25465 0.0
H693 H 0.58303 0.11205 0.27143 0.0
H694 H 0.58816 0.13914 0.2367 0.0
H695 H 0.62367 0.14296 0.21002 0.0
H696 H 0.14109 0.75397 0.91122 0.0
H697 H 0.14063 0.72628 0.94353 0.0
H698 H 0.15404 0.77942 0.99307 0.0
H699 H 0.15485 0.80731 0.96083 0.0
H700 H 0.17699 0.71575 0.97764 0.0
H701 H 0.09104 0.74723 0.01921 0.0
H702 H 0.10058 0.75526 0.98961 0.0
H703 H 0.11543 0.76792 0.01443 0.0
C704 C 0.14419 0.75988 0.9289 0.0
C705 C 0.14787 0.78307 0.93323 0.0
C706 C 0.14386 0.74394 0.94742 0.0
C707 C 0.14703 0.75073 0.97081 0.0
C708 C 0.15111 0.77377 0.97524 0.0
H709 H 0.16028 0.65216 0.09008 0.0
H710 H 0.17017 0.68358 0.06227 0.0
C711 C 0.15149 0.78975 0.95671 0.0
C712 C 0.14549 0.73367 0.99045 0.0
H713 H 0.11009 0.71667 0.03807 0.0
C714 C 0.1625 0.71605 0.99099 0.0
C715 C 0.12651 0.73397 0.00782 0.0
C716 C 0.10719 0.75197 0.00777 0.0
C717 C 0.16078 0.6986 0.00816 0.0
C718 C 0.14162 0.69878 0.02533 0.0
C719 C 0.12492 0.71663 0.02505 0.0
C720 C 0.13675 0.67946 0.04206 0.0
C721 C 0.17883 0.67958 0.00726 0.0
C722 C 0.11476 0.66676 0.04003 0.0
C723 C 0.10914 0.64896 0.05572 0.0
C724 C 0.12527 0.64334 0.0741 0.0
C725 C 0.1475 0.65594 0.0761 0.0
C726 C 0.15318 0.67386 0.06018 0.0
H727 H 0.19044 0.6803 0.99098 0.0
H728 H 0.1912 0.68057 0.02268 0.0
H729 H 0.16884 0.66302 0.00822 0.0
H730 H 0.1018 0.67068 0.02622 0.0
H731 H 0.09185 0.63974 0.05349 0.0
H732 H 0.57004 0.96241 0.29906 0.0
H733 H 0.53983 0.96282 0.2673 0.0
H734 H 0.53118 0.89045 0.27326 0.0
H735 H 0.56087 0.88984 0.30519 0.0
H736 H 0.53875 0.90813 0.22577 0.0
H737 H 0.46393 0.95118 0.27465 0.0
H738 H 0.49401 0.9647 0.27463 0.0
H739 H 0.48931 0.93793 0.28943 0.0
C740 C 0.56154 0.9466 0.29384 0.0
C741 C 0.56803 0.9261 0.30477 0.0
C742 C 0.5443 0.94687 0.27562 0.0
C743 C 0.53318 0.92668 0.26803 0.0
C744 C 0.53962 0.90622 0.27881 0.0
H745 H 0.42538 0.87763 0.17081 0.0
H746 H 0.46072 0.88333 0.19646 0.0
C747 C 0.55674 0.90592 0.29703 0.0
C748 C 0.51491 0.92665 0.24874 0.0
H749 H 0.45616 0.94177 0.23528 0.0
C750 C 0.52073 0.91558 0.22776 0.0
C751 C 0.4915 0.93651 0.25136 0.0
C752 C 0.4841 0.94814 0.27376 0.0
C753 C 0.50366 0.91392 0.20938 0.0
C754 C 0.47993 0.92314 0.21228 0.0
C755 C 0.47436 0.93472 0.23304 0.0
C756 C 0.46006 0.91985 0.19471 0.0
C757 C 0.51129 0.90241 0.18699 0.0
C758 C 0.44778 0.93846 0.18518 0.0
C759 C 0.42737 0.93525 0.17059 0.0
C760 C 0.41873 0.91334 0.16536 0.0
C761 C 0.4316 0.89475 0.17431 0.0
C762 C 0.45194 0.89797 0.18892 0.0
H763 H 0.53168 0.90306 0.18445 0.0
H764 H 0.50535 0.88437 0.18805 0.0
H765 H 0.50261 0.91026 0.17133 0.0
H766 H 0.45365 0.95549 0.18949 0.0
H767 H 0.41787 0.94996 0.16409 0.0
H768 H 0.39194 0.28644 0.58944 0.0
H769 H 0.40027 0.25713 0.56087 0.0
H770 H 0.32208 0.24363 0.55443 0.0
H771 H 0.3135 0.27354 0.58265 0.0
H772 H 0.38776 0.21055 0.5602 0.0
H773 H 0.3449 0.25796 0.48637 0.0
H774 H 0.35203 0.27094 0.51409 0.0
H775 H 0.32545 0.25245 0.51179 0.0
C776 C 0.37644 0.27742 0.58186 0.0
C777 C 0.35198 0.28269 0.58807 0.0
C778 C 0.38128 0.26045 0.56568 0.0
C779 C 0.36182 0.24837 0.55525 0.0
C780 C 0.33739 0.25297 0.562 0.0
H781 H 0.38397 0.13699 0.45581 0.0
H782 H 0.3727 0.15738 0.49155 0.0
C783 C 0.33251 0.26997 0.57825 0.0
C784 C 0.36734 0.23176 0.5366 0.0
H785 H 0.3623 0.22307 0.47745 0.0
C786 C 0.382 0.21314 0.54214 0.0
C787 C 0.35996 0.23525 0.513 0.0
C788 C 0.34488 0.25529 0.50579 0.0
C789 C 0.38985 0.1982 0.52463 0.0
C790 C 0.38282 0.20198 0.50102 0.0
C791 C 0.36766 0.22024 0.4956 0.0
C792 C 0.39227 0.18828 0.48125 0.0
C793 C 0.40634 0.17899 0.53127 0.0
C794 C 0.40747 0.19867 0.46388 0.0
C795 C 0.41389 0.18713 0.4435 0.0
C796 C 0.40518 0.16492 0.43995 0.0
C797 C 0.3912 0.154 0.45805 0.0
C798 C 0.38466 0.16565 0.47849 0.0
H799 H 0.41299 0.18026 0.54966 0.0
H800 H 0.39594 0.16276 0.52959 0.0
H801 H 0.42258 0.1786 0.51914 0.0
H802 H 0.4136 0.21609 0.46569 0.0
H803 H 0.42467 0.19605 0.42995 0.0
H804 H 0.07827 0.14711 0.68691 0.0
H805 H 0.05083 0.14545 0.72184 0.0
H806 H 0.02649 0.07828 0.70325 0.0
H807 H 0.05285 0.08016 0.66831 0.0
H808 H 0.98839 0.10244 0.71268 0.0
H809 H 0.05536 0.11388 0.78483 0.0
H810 H 0.05667 0.13644 0.76335 0.0
H811 H 0.06494 0.1084 0.75492 0.0
C812 C 0.06715 0.13198 0.69043 0.0
C813 C 0.06758 0.11389 0.67467 0.0
C814 C 0.05162 0.13094 0.71052 0.0
C815 C 0.03668 0.11161 0.71544 0.0
C816 C 0.03769 0.09341 0.69994 0.0
H817 H 0.94613 0.08309 0.84388 0.0
H818 H 0.9787 0.0818 0.81316 0.0
C819 C 0.0528 0.09457 0.67984 0.0
C820 C 0.01865 0.11055 0.73561 0.0
H821 H 0.01257 0.1156 0.79544 0.0
C822 C 0.99382 0.10519 0.73077 0.0
C823 C 0.0256 0.11376 0.75936 0.0
C824 C 0.05213 0.11821 0.76601 0.0
C825 C 0.97581 0.10332 0.74874 0.0
C826 C 0.9825 0.10758 0.77232 0.0
C827 C 0.00739 0.11247 0.77736 0.0
C828 C 0.9635 0.1084 0.79152 0.0
C829 C 0.94973 0.0966 0.74224 0.0
C830 C 0.94443 0.12392 0.78977 0.0
C831 C 0.92587 0.12452 0.80699 0.0
C832 C 0.92594 0.1098 0.82672 0.0
C833 C 0.94537 0.09451 0.82883 0.0
C834 C 0.96404 0.09384 0.81136 0.0
H835 H 0.9493 0.0871 0.7255 0.0
H836 H 0.94068 0.08601 0.75631 0.0
H837 H 0.93876 0.11204 0.73969 0.0
H838 H 0.94386 0.13566 0.77497 0.0
H839 H 0.91147 0.13676 0.80479 0.0
H840 H 0.11313 0.50727 0.15281 0.0
H841 H 0.13736 0.47532 0.16666 0.0
H842 H 0.17981 0.47792 0.10182 0.0
H843 H 0.15535 0.50938 0.08774 0.0
H844 H 0.17157 0.43484 0.1165 0.0
H845 H 0.20604 0.4863 0.19078 0.0
H846 H 0.17325 0.48136 0.1911 0.0
H847 H 0.1875 0.49804 0.16766 0.0
C848 C 0.12739 0.50077 0.1414 0.0
C849 C 0.13241 0.51098 0.11924 0.0
C850 C 0.14132 0.48261 0.14938 0.0
C851 C 0.16084 0.47459 0.13554 0.0
C852 C 0.16491 0.48387 0.11286 0.0
H853 H 0.29841 0.41805 0.17001 0.0
H854 H 0.26245 0.44055 0.16099 0.0
C855 C 0.15081 0.50183 0.10477 0.0
C856 C 0.17817 0.45765 0.14503 0.0
H857 H 0.22108 0.44952 0.18784 0.0
C858 C 0.18224 0.43793 0.13222 0.0
C859 C 0.1923 0.46181 0.16544 0.0
C860 C 0.18978 0.48311 0.17944 0.0
C861 C 0.20045 0.42259 0.13889 0.0
C862 C 0.21462 0.42688 0.1592 0.0
C863 C 0.21005 0.44622 0.17239 0.0
C864 C 0.23599 0.4129 0.16571 0.0
C865 C 0.20513 0.40249 0.12358 0.0
C866 C 0.23304 0.38993 0.17187 0.0
C867 C 0.2537 0.37693 0.17694 0.0
C868 C 0.27763 0.38672 0.17593 0.0
C869 C 0.28032 0.4099 0.17055 0.0
C870 C 0.25975 0.42282 0.16552 0.0
H871 H 0.19636 0.4042 0.10606 0.0
H872 H 0.22526 0.40013 0.12091 0.0
H873 H 0.19734 0.38703 0.13243 0.0
H874 H 0.21481 0.38203 0.1725 0.0
H875 H 0.25101 0.35911 0.1809 0.0
H876 H 0.79996 0.06268 0.91595 0.0
H877 H 0.77072 0.03105 0.92276 0.0
H878 H 0.75791 0.02769 0.84799 0.0
H879 H 0.78631 0.05999 0.84132 0.0
H880 H 0.71607 0.0203 0.87068 0.0
H881 H 0.7863 0.9668 0.91283 0.0
H882 H 0.78125 0.99245 0.92834 0.0
H883 H 0.79419 0.99357 0.89893 0.0
C884 C 0.79085 0.05519 0.901 0.0
C885 C 0.79561 0.0637 0.87807 0.0
C886 C 0.77422 0.03699 0.90488 0.0
C887 C 0.7625 0.02643 0.88585 0.0
C888 C 0.76672 0.03538 0.86301 0.0
H889 H 0.70923 0.89041 0.8752 0.0
H890 H 0.73152 0.9263 0.87732 0.0
C891 C 0.78297 0.05387 0.85918 0.0
C892 C 0.74632 0.0058 0.88951 0.0
H893 H 0.74555 0.95194 0.9122 0.0
C894 C 0.72251 0.00537 0.87982 0.0
C895 C 0.7547 0.98614 0.90124 0.0
C896 C 0.78057 0.98462 0.91072 0.0
C897 C 0.70713 0.98585 0.88112 0.0
C898 C 0.71543 0.96631 0.8931 0.0
C899 C 0.739 0.96694 0.90324 0.0
C900 C 0.70134 0.9443 0.89315 0.0
C901 C 0.68266 0.98605 0.86865 0.0
C902 C 0.6769 0.94204 0.90186 0.0
C903 C 0.66384 0.92129 0.9005 0.0
C904 C 0.67508 0.90236 0.89062 0.0
C905 C 0.69984 0.90455 0.88286 0.0
C906 C 0.71271 0.92517 0.88407 0.0
H907 H 0.6816 1.00041 0.8559 0.0
H908 H 0.67945 0.97009 0.85902 0.0
H909 H 0.66754 0.98773 0.88183 0.0
H910 H 0.66784 0.95635 0.90951 0.0
H911 H 0.64482 0.92022 0.90665 0.0
H912 H 0.86179 0.04631 0.36472 0.0
H913 H 0.84443 0.00756 0.36313 0.0
H914 H 0.771 0.03416 0.3596 0.0
H915 H 0.78806 0.07253 0.36111 0.0
H916 H 0.77734 0.99498 0.39115 0.0
H917 H 0.81324 0.98397 0.29959 0.0
H918 H 0.83422 0.99278 0.32226 0.0
H919 H 0.81092 0.0116 0.31232 0.0
C920 C 0.84193 0.04378 0.36418 0.0
C921 C 0.82623 0.06238 0.36299 0.0
C922 C 0.83208 0.02171 0.36305 0.0
C923 C 0.80647 0.01808 0.36097 0.0
C924 C 0.79082 0.03662 0.36113 0.0
H925 H 0.69409 0.94242 0.30493 0.0
H926 H 0.732 0.96403 0.31202 0.0
C927 C 0.80059 0.05853 0.362 0.0
C928 C 0.79545 0.99533 0.35725 0.0
H929 H 0.78279 0.9581 0.31342 0.0
C930 C 0.77897 0.98647 0.37443 0.0
C931 C 0.79759 0.9845 0.3353 0.0
C932 C 0.81485 0.9936 0.31617 0.0
C933 C 0.76327 0.96797 0.36971 0.0
C934 C 0.7644 0.95785 0.34726 0.0
C935 C 0.78206 0.96581 0.33062 0.0
C936 C 0.74482 0.94171 0.33961 0.0
C937 C 0.74428 0.96063 0.38815 0.0
C938 C 0.74015 0.92121 0.35175 0.0
C939 C 0.71829 0.90883 0.34785 0.0
C940 C 0.70084 0.91673 0.33162 0.0
C941 C 0.70693 0.93596 0.31774 0.0
C942 C 0.72867 0.94836 0.32175 0.0
H943 H 0.74334 0.97259 0.40301 0.0
H944 H 0.72564 0.95912 0.38029 0.0
H945 H 0.74913 0.94384 0.39544 0.0
H946 H 0.75266 0.91548 0.36523 0.0
H947 H 0.71434 0.89394 0.35868 0.0
H948 H 0.75685 0.13284 0.10322 0.0
H949 H 0.79124 0.1085 0.09275 0.0
H950 H 0.79316 0.08335 0.16433 0.0
H951 H 0.75876 0.10726 0.17489 0.0
H952 H 0.84288 0.09818 0.11662 0.0
H953 H 0.77018 0.03055 0.11607 0.0
H954 H 0.76302 0.06018 0.11626 0.0
H955 H 0.77207 0.04619 0.14294 0.0
C956 C 0.765 0.12254 0.11686 0.0
C957 C 0.75479 0.12185 0.13983 0.0
C958 C 0.7847 0.10872 0.11086 0.0
C959 C 0.79452 0.09404 0.12775 0.0
C960 C 0.78578 0.09463 0.15109 0.0
H961 H 0.87364 0.97099 0.1279 0.0
H962 H 0.85132 1.00486 0.1368 0.0
C963 C 0.76615 0.10845 0.15711 0.0
C964 C 0.81116 0.07586 0.12045 0.0
H965 H 0.81168 0.01899 0.11206 0.0
C966 C 0.83616 0.08086 0.1155 0.0
C967 C 0.80218 0.05337 0.11885 0.0
C968 C 0.77535 0.04717 0.1236 0.0
C969 C 0.85267 0.06366 0.10977 0.0
C970 C 0.84372 0.04106 0.10858 0.0
C971 C 0.81856 0.03628 0.11304 0.0
C972 C 0.86 0.02178 0.10366 0.0
C973 C 0.87958 0.06969 0.10562 0.0
C974 C 0.87262 0.02005 0.08203 0.0
C975 C 0.88566 1.00051 0.07677 0.0
C976 C 0.88614 0.98221 0.09295 0.0
C977 C 0.8741 0.98451 0.11492 0.0
C978 C 0.86115 1.00397 0.12011 0.0
H979 H 0.88447 0.08664 0.1125 0.0
H980 H 0.89158 0.05701 0.11406 0.0
H981 H 0.88357 0.06987 0.08639 0.0
H982 H 0.87166 0.03342 0.06887 0.0
H983 H 0.89486 0.99957 0.0598 0.0
H984 H 0.20401 0.57336 0.60407 0.0
H985 H 0.23111 0.54115 0.59786 0.0
H986 H 0.23548 0.53071 0.67295 0.0
H987 H 0.20842 0.56266 0.6793 0.0
H988 H 0.28212 0.53296 0.61789 0.0
H989 H 0.21095 0.46852 0.64512 0.0
H990 H 0.20317 0.49674 0.63571 0.0
H991 H 0.21492 0.49183 0.66475 0.0
C992 C 0.21062 0.56417 0.61928 0.0
C993 C 0.20384 0.57072 0.64223 0.0
C994 C 0.2263 0.54581 0.61569 0.0
C995 C 0.23532 0.53334 0.63491 0.0
C996 C 0.22872 0.53993 0.65779 0.0
H997 H 0.31386 0.41177 0.66422 0.0
H998 H 0.29151 0.44697 0.66386 0.0
C999 C 0.21329 0.55836 0.6614 0.0
C1000 C 0.25114 0.51314 0.63129 0.0
H1001 H 0.25175 0.4559 0.64012 0.0
C1002 C 0.27546 0.51606 0.62256 0.0
C1003 C 0.24253 0.49105 0.63732 0.0
C1004 C 0.21641 0.48667 0.64608 0.0
C1005 C 0.29164 0.49767 0.62067 0.0
C1006 C 0.28314 0.47557 0.62715 0.0
C1007 C 0.25853 0.4727 0.63522 0.0
C1008 C 0.29949 0.45527 0.62725 0.0
C1009 C 0.31797 0.50229 0.61272 0.0
C1010 C 0.31234 0.4481 0.60695 0.0
C1011 C 0.32575 0.42786 0.60727 0.0
C1012 C 0.32612 0.4142 0.62776 0.0
C1013 C 0.31386 0.42178 0.64808 0.0
C1014 C 0.30094 0.44197 0.64787 0.0
H1015 H 0.3233 0.52042 0.61433 0.0
H1016 H 0.33101 0.49205 0.62313 0.0
H1017 H 0.31998 0.49773 0.59392 0.0
H1018 H 0.31128 0.45767 0.5906 0.0
H1019 H 0.33471 0.42236 0.59125 0.0
H1020 H 0.13389 0.46156 0.35389 0.0
H1021 H 0.15996 0.49453 0.34354 0.0
H1022 H 0.17586 0.50413 0.41707 0.0
H1023 H 0.14917 0.47133 0.42754 0.0
H1024 H 0.16932 0.54427 0.3938 0.0
H1025 H 0.23429 0.49159 0.34338 0.0
H1026 H 0.20319 0.49006 0.33286 0.0
H1027 H 0.21001 0.47948 0.36191 0.0
C1028 C 0.14289 0.47076 0.36785 0.0
C1029 C 0.13984 0.46372 0.39151 0.0
C1030 C 0.15783 0.48955 0.36191 0.0
C1031 C 0.17041 0.50144 0.37947 0.0
C1032 C 0.16647 0.4951 0.40321 0.0
H1033 H 0.30354 0.58196 0.36435 0.0
H1034 H 0.27122 0.55361 0.37247 0.0
C1035 C 0.15122 0.47642 0.4092 0.0
C1036 C 0.18839 0.51987 0.37301 0.0
H1037 H 0.24164 0.53108 0.34166 0.0
C1038 C 0.18512 0.54143 0.38238 0.0
C1039 C 0.20917 0.51605 0.3583 0.0
C1040 C 0.21457 0.49301 0.3487 0.0
C1041 C 0.20207 0.55926 0.37745 0.0
C1042 C 0.22257 0.5555 0.36241 0.0
C1043 C 0.22577 0.53398 0.35299 0.0
C1044 C 0.24188 0.57317 0.35739 0.0
C1045 C 0.19831 0.58173 0.38897 0.0
C1046 C 0.23622 0.59356 0.34592 0.0
C1047 C 0.25475 0.61002 0.34142 0.0
C1048 C 0.27927 0.60633 0.34823 0.0
C1049 C 0.28484 0.58565 0.35927 0.0
C1050 C 0.26638 0.5693 0.36379 0.0
H1051 H 0.18507 0.58034 0.40407 0.0
H1052 H 0.21611 0.58888 0.39535 0.0
H1053 H 0.1908 0.59377 0.37586 0.0
H1054 H 0.21752 0.59673 0.3404 0.0
H1055 H 0.24976 0.62575 0.33297 0.0
H1056 H 0.35243 0.54778 0.89574 0.0
H1057 H 0.33222 0.51103 0.88849 0.0
H1058 H 0.26497 0.53456 0.92036 0.0
H1059 H 0.28504 0.57086 0.92798 0.0
H1060 H 0.2728 0.49047 0.93179 0.0
H1061 H 0.28371 0.50439 0.83489 0.0
H1062 H 0.31159 0.50356 0.85168 0.0
H1063 H 0.29064 0.52631 0.85567 0.0
C1064 C 0.33356 0.54488 0.90178 0.0
C1065 C 0.3203 0.56234 0.91231 0.0
C1066 C 0.3219 0.52394 0.89734 0.0
C1067 C 0.29683 0.52015 0.90335 0.0
C1068 C 0.28424 0.53704 0.91538 0.0
H1069 H 0.17113 0.45587 0.85044 0.0
H1070 H 0.20904 0.47744 0.85777 0.0
C1071 C 0.29579 0.55785 0.91976 0.0
C1072 C 0.2828 0.49949 0.89602 0.0
H1073 H 0.25863 0.47375 0.84762 0.0
C1074 C 0.27004 0.48652 0.91339 0.0
C1075 C 0.27909 0.4944 0.87198 0.0
C1076 C 0.29179 0.50793 0.8524 0.0
C1077 C 0.25279 0.46948 0.90744 0.0
C1078 C 0.24838 0.46497 0.88338 0.0
C1079 C 0.26208 0.47713 0.86603 0.0
C1080 C 0.22727 0.4502 0.87594 0.0
C1081 C 0.23828 0.45748 0.92696 0.0
C1082 C 0.22519 0.42727 0.8827 0.0
C1083 C 0.20336 0.41477 0.87846 0.0
C1084 C 0.18326 0.42503 0.86735 0.0
C1085 C 0.18618 0.44746 0.85912 0.0
C1086 C 0.20791 0.45985 0.86331 0.0
H1087 H 0.24098 0.46557 0.94431 0.0
H1088 H 0.21822 0.45714 0.92303 0.0
H1089 H 0.2444 0.43977 0.92847 0.0
H1090 H 0.24006 0.41928 0.89205 0.0
H1091 H 0.20171 0.39757 0.88512 0.0
H1092 H 0.63626 0.75103 0.88082 0.0
H1093 H 0.62875 0.72025 0.90969 0.0
H1094 H 0.65601 0.76295 0.96493 0.0
H1095 H 0.66377 0.79357 0.93615 0.0
H1096 H 0.67242 0.71692 0.96697 0.0
H1097 H 0.57043 0.72383 0.95829 0.0
H1098 H 0.58824 0.72015 0.9317 0.0
H1099 H 0.59176 0.74575 0.94794 0.0
C1100 C 0.64121 0.75362 0.89901 0.0
C1101 C 0.65059 0.7747 0.90629 0.0
C1102 C 0.63666 0.73613 0.91552 0.0
C1103 C 0.64151 0.73945 0.93948 0.0
C1104 C 0.65205 0.76007 0.94653 0.0
H1105 H 0.59146 0.69462 0.07289 0.0
H1106 H 0.59706 0.71084 0.03337 0.0
C1107 C 0.65644 0.77754 0.93012 0.0
C1108 C 0.63456 0.7221 0.95763 0.0
H1109 H 0.58472 0.69897 0.98746 0.0
C1110 C 0.65328 0.71264 0.97124 0.0
C1111 C 0.60954 0.71681 0.96325 0.0
C1112 C 0.58872 0.72719 0.9497 0.0
C1113 C 0.64764 0.69863 0.99085 0.0
C1114 C 0.62259 0.69369 0.99681 0.0
C1115 C 0.60389 0.70256 0.9827 0.0
C1116 C 0.61553 0.68188 0.01924 0.0
C1117 C 0.66853 0.69018 0.00575 0.0
C1118 C 0.6229 0.65972 0.02412 0.0
C1119 C 0.61971 0.65035 0.04681 0.0
C1120 C 0.60906 0.66302 0.06493 0.0
C1121 C 0.59988 0.68446 0.05939 0.0
C1122 C 0.60307 0.69377 0.03678 0.0
H1123 H 0.68652 0.6985 1.00093 0.0
H1124 H 0.66469 0.693 0.02473 0.0
H1125 H 0.67026 0.67177 1.00319 0.0
H1126 H 0.63211 0.65006 0.0107 0.0
H1127 H 0.62699 0.63378 0.05045 0.0
H1128 H 0.53758 0.39316 0.36217 0.0
H1129 H 0.51069 0.38951 0.32833 0.0
H1130 H 0.57187 0.36672 0.28627 0.0
H1131 H 0.5992 0.37026 0.32047 0.0
H1132 H 0.51654 0.41277 0.28467 0.0
H1133 H 0.51604 0.31941 0.27428 0.0
H1134 H 0.52616 0.33271 0.30101 0.0
H1135 H 0.54565 0.33376 0.2752 0.0
C1136 C 0.54539 0.38711 0.34584 0.0
C1137 C 0.5706 0.38196 0.3441 0.0
C1138 C 0.52994 0.38513 0.32643 0.0
C1139 C 0.53918 0.37788 0.30471 0.0
C1140 C 0.56424 0.37215 0.30291 0.0
H1141 H 0.439 0.38887 0.18148 0.0
H1142 H 0.47638 0.39361 0.20544 0.0
C1143 C 0.57983 0.37411 0.32249 0.0
C1144 C 0.52229 0.37693 0.28418 0.0
H1145 H 0.49027 0.34017 0.24946 0.0
C1146 C 0.51106 0.39694 0.27667 0.0
C1147 C 0.51511 0.35628 0.27382 0.0
C1148 C 0.52617 0.33423 0.28148 0.0
C1149 C 0.49216 0.39674 0.25985 0.0
C1150 C 0.48437 0.37598 0.2501 0.0
C1151 C 0.49632 0.3561 0.25687 0.0
C1152 C 0.46191 0.37404 0.23526 0.0
C1153 C 0.4797 0.41853 0.2536 0.0
C1154 C 0.44138 0.36161 0.24403 0.0
C1155 C 0.42018 0.35896 0.23052 0.0
C1156 C 0.41888 0.36858 0.20774 0.0
C1157 C 0.4393 0.38141 0.19901 0.0
C1158 C 0.46068 0.38409 0.21267 0.0
H1159 H 0.48561 0.43261 0.26511 0.0
H1160 H 0.48436 0.42336 0.23508 0.0
H1161 H 0.4593 0.41634 0.25503 0.0
H1162 H 0.44179 0.35383 0.26142 0.0
H1163 H 0.40487 0.34901 0.23792 0.0
H1164 H 0.95055 0.30609 0.53616 0.0
H1165 H 0.93893 0.27949 0.50527 0.0
H1166 H 0.88638 0.32714 0.47862 0.0
H1167 H 0.89676 0.35273 0.51074 0.0
H1168 H 0.86516 0.28972 0.48049 0.0
H1169 H 0.95547 0.27296 0.43859 0.0
H1170 H 0.95623 0.26726 0.46957 0.0
H1171 H 0.95147 0.2957 0.45898 0.0
C1172 C 0.93681 0.31085 0.5234 0.0
C1173 C 0.92457 0.33134 0.52559 0.0
C1174 C 0.93033 0.2958 0.50557 0.0
C1175 C 0.91212 0.30137 0.48907 0.0
C1176 C 0.9005 0.32232 0.49097 0.0
H1177 H 0.88025 0.21078 0.37071 0.0
H1178 H 0.89505 0.24275 0.39416 0.0
C1179 C 0.90643 0.33699 0.50923 0.0
C1180 C 0.90342 0.28467 0.47132 0.0
H1181 H 0.92272 0.24615 0.43112 0.0
C1182 C 0.87785 0.28049 0.4695 0.0
C1183 C 0.91973 0.27272 0.45651 0.0
C1184 C 0.94721 0.27759 0.4558 0.0
C1185 C 0.86821 0.26442 0.45398 0.0
C1186 C 0.88458 0.25121 0.44061 0.0
C1187 C 0.91012 0.2559 0.4417 0.0
C1188 C 0.87556 0.23201 0.4261 0.0
C1189 C 0.84048 0.26211 0.45194 0.0
C1190 C 0.86 0.21511 0.43622 0.0
C1191 C 0.85114 0.19722 0.42275 0.0
C1192 C 0.85816 0.19539 0.39895 0.0
C1193 C 0.87435 0.21189 0.38895 0.0
C1194 C 0.88287 0.2301 0.40236 0.0
H1195 H 0.83138 0.27827 0.45598 0.0
H1196 H 0.83497 0.2569 0.43401 0.0
H1197 H 0.83343 0.24926 0.46492 0.0
H1198 H 0.85487 0.2156 0.4547 0.0
H1199 H 0.83935 0.18442 0.43118 0.0
H1200 H 0.90195 0.64644 0.78399 0.0
H1201 H 0.92284 0.63852 0.74659 0.0
H1202 H 0.98731 0.67595 0.76921 0.0
H1203 H 0.96642 0.68445 0.80618 0.0
H1204 H 0.98161 0.68028 0.72198 0.0
H1205 H 0.97501 0.59058 0.75096 0.0
H1206 H 0.9455 0.60275 0.74517 0.0
H1207 H 0.96414 0.61306 0.76891 0.0
C1208 C 0.92026 0.65362 0.78069 0.0
C1209 C 0.93266 0.66578 0.79827 0.0
C1210 C 0.93227 0.64891 0.75936 0.0
C1211 C 0.95691 0.65612 0.75534 0.0
C1212 C 0.96839 0.67004 0.77194 0.0
H1213 H 0.08021 0.59403 0.69603 0.0
H1214 H 0.04319 0.605 0.71714 0.0
C1215 C 0.9564 0.67485 0.79315 0.0
C1216 C 0.97189 0.64712 0.73556 0.0
H1217 H 0.99609 0.59823 0.71515 0.0
C1218 C 0.9846 0.66233 0.72025 0.0
C1219 C 0.97618 0.62371 0.73365 0.0
C1220 C 0.9647 0.60657 0.75067 0.0
C1221 C 1.00211 0.65486 0.70372 0.0
C1222 C 0.00634 0.63139 0.70181 0.0
C1223 C 0.99275 0.61617 0.71641 0.0
C1224 C 0.0271 0.62246 0.68743 0.0
C1225 C 0.01698 0.67234 0.68963 0.0
C1226 C 0.03003 0.6276 0.66325 0.0
C1227 C 0.05155 0.6215 0.65108 0.0
C1228 C 0.07032 0.60987 0.66283 0.0
C1229 C 0.06627 0.60311 0.68644 0.0
C1230 C 0.04502 0.60941 0.69859 0.0
H1231 H 0.01568 0.68941 0.69731 0.0
H1232 H 0.03678 0.6679 0.68868 0.0
H1233 H 0.0098 0.67324 0.67142 0.0
H1234 H 0.01615 0.63705 0.65401 0.0
H1235 H 0.05404 0.62695 0.63289 0.0
H1236 H 0.58424 0.35813 0.48958 0.0
H1237 H 0.59466 0.33163 0.52146 0.0
H1238 H 0.67042 0.33214 0.49706 0.0
H1239 H 0.66023 0.35874 0.46547 0.0
H1240 H 0.6155 0.28793 0.51331 0.0
H1241 H 0.67593 0.34141 0.56917 0.0
H1242 H 0.65478 0.35321 0.54814 0.0
H1243 H 0.68346 0.34174 0.53822 0.0
C1244 C 0.60317 0.35288 0.49129 0.0
C1245 C 0.62135 0.36041 0.47493 0.0
C1246 C 0.60909 0.3377 0.50942 0.0
C1247 C 0.63336 0.33008 0.51175 0.0
C1248 C 0.65166 0.33802 0.4958 0.0
H1249 H 0.7025 0.22907 0.60192 0.0
H1250 H 0.69464 0.26069 0.57457 0.0
C1251 C 0.64573 0.35302 0.47759 0.0
C1252 C 0.63916 0.31257 0.52971 0.0
H1253 H 0.67365 0.30225 0.57861 0.0
C1254 C 0.62808 0.29109 0.52769 0.0
C1255 C 0.65592 0.31665 0.54818 0.0
C1256 C 0.66813 0.33954 0.55127 0.0
C1257 C 0.63344 0.27346 0.5435 0.0
C1258 C 0.64977 0.27762 0.56236 0.0
C1259 C 0.66105 0.29909 0.56426 0.0
C1260 C 0.655 0.25988 0.58036 0.0
C1261 C 0.62201 0.25039 0.53941 0.0
C1262 C 0.63552 0.24954 0.59334 0.0
C1263 C 0.63996 0.23146 0.60866 0.0
C1264 C 0.66405 0.22359 0.61172 0.0
C1265 C 0.68379 0.23482 0.59986 0.0
C1266 C 0.67928 0.25281 0.58423 0.0
H1267 H 0.6165 0.24834 0.52075 0.0
H1268 H 0.63497 0.23679 0.54406 0.0
H1269 H 0.60512 0.24819 0.55056 0.0
H1270 H 0.61675 0.25515 0.59127 0.0
H1271 H 0.62447 0.22343 0.61797 0.0
H1272 H 0.01791 0.41469 0.8427 0.0
H1273 H 0.98988 0.40556 0.8105 0.0
H1274 H 0.04725 0.36806 0.77659 0.0
H1275 H 0.0754 0.37722 0.80842 0.0
H1276 H 0.9943 0.41509 0.76245 0.0
H1277 H 0.9895 0.32262 0.77807 0.0
H1278 H 1.00151 0.34199 0.79959 0.0
H1279 H 0.02063 0.33347 0.77527 0.0
C1280 C 0.02467 0.40459 0.82837 0.0
C1281 C 0.04901 0.39657 0.82841 0.0
C1282 C 0.00852 0.39928 0.81 0.0
C1283 C 0.01624 0.38571 0.79133 0.0
C1284 C 0.04059 0.37802 0.7911 0.0
H1285 H 0.97254 0.34151 0.65604 0.0
H1286 H 0.98972 0.3473 0.69506 0.0
C1287 C 0.05674 0.38332 0.8094 0.0
C1288 C 0.99924 0.38012 0.77164 0.0
H1289 H 0.97527 0.33588 0.74063 0.0
C1290 C 0.98982 0.39778 0.75787 0.0
C1291 C 0.99325 0.35753 0.76572 0.0
C1292 C 1.00153 0.33781 0.78057 0.0
C1293 C 0.97574 0.39347 0.73764 0.0
C1294 C 0.97055 0.37085 0.73121 0.0
C1295 C 0.97923 0.35321 0.74549 0.0
C1296 C 0.95825 0.36515 0.70859 0.0
C1297 C 0.9675 0.41319 0.72276 0.0
C1298 C 0.93429 0.37238 0.70339 0.0
C1299 C 0.9243 0.36898 0.68094 0.0
C1300 C 0.93811 0.35829 0.66332 0.0
C1301 C 0.96141 0.34986 0.66913 0.0
C1302 C 0.97131 0.3532 0.69148 0.0
H1303 H 0.97706 0.42924 0.72753 0.0
H1304 H 0.97089 0.41012 0.70375 0.0
H1305 H 0.94736 0.41534 0.72545 0.0
H1306 H 0.92361 0.38123 0.71644 0.0
H1307 H 0.90637 0.3758 0.67704 0.0
H1308 H 0.95413 0.70474 0.93653 0.0
H1309 H 0.94583 0.735 0.96417 0.0
H1310 H 0.86754 0.72548 0.95391 0.0
H1311 H 0.87557 0.69499 0.9266 0.0
H1312 H 0.88409 0.77074 0.94935 0.0
H1313 H 0.91738 0.73119 0.03195 0.0
H1314 H 0.93919 0.73052 0.00787 0.0
H1315 H 0.91034 0.71508 0.00601 0.0
C1316 C 0.93513 0.70879 0.94039 0.0
C1317 C 0.91557 0.69739 0.92916 0.0
C1318 C 0.93041 0.72612 0.95624 0.0
C1319 C 0.90605 0.73235 0.96129 0.0
C1320 C 0.88648 0.72094 0.95029 0.0
H1321 H 0.87226 0.83209 0.07041 0.0
H1322 H 0.8689 0.7984 0.04571 0.0
C1323 C 0.89116 0.70358 0.93451 0.0
C1324 C 0.90109 0.75155 0.97708 0.0
H1325 H 0.91091 0.77099 0.03265 0.0
C1326 C 0.8897 0.7707 0.96764 0.0
C1327 C 0.90806 0.75137 1.00103 0.0
C1328 C 0.91921 0.73086 0.01244 0.0
C1329 C 0.88617 0.79004 0.9812 0.0
C1330 C 0.89438 0.79029 0.00476 0.0
C1331 C 0.90472 0.77079 0.01454 0.0
C1332 C 0.89442 0.81122 0.01881 0.0
C1333 C 0.87401 0.8102 0.97013 0.0
C1334 C 0.90971 0.82957 0.01178 0.0
C1335 C 0.91175 0.84863 0.02583 0.0
C1336 C 0.89847 0.84984 0.04721 0.0
C1337 C 0.88251 0.83175 0.05392 0.0
C1338 C 0.88069 0.81247 0.03991 0.0
H1339 H 0.86286 0.80535 0.95462 0.0
H1340 H 0.86188 0.81864 0.98306 0.0
H1341 H 0.8885 0.82258 0.96408 0.0
H1342 H 0.92073 0.82884 0.99576 0.0
H1343 H 0.92424 0.86226 0.02018 0.0
H1344 H 0.40197 0.63875 0.28208 0.0
H1345 H 0.44166 0.63655 0.26184 0.0
H1346 H 0.47781 0.62674 0.32842 0.0
H1347 H 0.43781 0.62944 0.34906 0.0
H1348 H 0.50063 0.6597 0.30164 0.0
H1349 H 0.48558 0.58465 0.24684 0.0
H1350 H 0.46105 0.60417 0.24308 0.0
H1351 H 0.46561 0.59096 0.27147 0.0
C1352 C 0.41825 0.63571 0.29248 0.0
C1353 C 0.41668 0.63424 0.31721 0.0
C1354 C 0.44098 0.6343 0.28082 0.0
C1355 C 0.46273 0.63115 0.29353 0.0
C1356 C 0.46123 0.62901 0.31822 0.0
H1357 H 0.5959 0.61748 0.20588 0.0
H1358 H 0.56438 0.61048 0.23654 0.0
C1359 C 0.43835 0.63041 0.32998 0.0
C1360 C 0.48697 0.63205 0.2809 0.0
H1361 H 0.51659 0.61169 0.23251 0.0
C1362 C 0.50435 0.64893 0.28678 0.0
C1363 C 0.4921 0.61778 0.26175 0.0
C1364 C 0.47519 0.59822 0.25559 0.0
C1365 C 0.526 0.65275 0.27322 0.0
C1366 C 0.53008 0.63971 0.25287 0.0
C1367 C 0.51338 0.62199 0.24784 0.0
C1368 C 0.55085 0.64462 0.23597 0.0
C1369 C 0.54418 0.6708 0.28083 0.0
C1370 C 0.55396 0.66617 0.22546 0.0
C1371 C 0.57215 0.67025 0.20807 0.0
C1372 C 0.58726 0.65273 0.20046 0.0
C1373 C 0.58435 0.63125 0.2112 0.0
C1374 C 0.56639 0.62726 0.22878 0.0
H1375 H 0.5431 0.6733 0.30018 0.0
H1376 H 0.56344 0.66654 0.27598 0.0
H1377 H 0.53965 0.68706 0.27211 0.0
H1378 H 0.54177 0.6797 0.23012 0.0
H1379 H 0.57372 0.68685 0.19989 0.0
H1380 H 0.8633 0.98821 0.63534 0.0
H1381 H 0.82725 0.01164 0.63579 0.0
H1382 H 0.7806 0.95313 0.65051 0.0
H1383 H 0.81729 0.92892 0.6495 0.0
H1384 H 0.76059 0.9832 0.61589 0.0
H1385 H 0.78983 0.03091 0.694 0.0
H1386 H 0.81362 0.03093 0.67174 0.0
H1387 H 0.80384 1.00474 0.68589 0.0
C1388 C 0.8455 0.98006 0.63884 0.0
C1389 C 0.84346 0.95649 0.6426 0.0
C1390 C 0.82475 0.99368 0.63916 0.0
C1391 C 0.80107 0.9844 0.64354 0.0
C1392 C 0.79867 0.96081 0.64721 0.0
H1393 H 0.68804 0.08132 0.67852 0.0
H1394 H 0.71383 0.04815 0.67771 0.0
C1395 C 0.81969 0.94697 0.64683 0.0
C1396 C 0.77934 0.99978 0.64426 0.0
H1397 H 0.75988 0.04844 0.66955 0.0
C1398 C 0.76021 0.99729 0.62786 0.0
C1399 C 0.77852 0.01816 0.65994 0.0
C1400 C 0.79742 0.02124 0.67904 0.0
C1401 C 0.74089 0.013 0.62625 0.0
C1402 C 0.74089 0.03209 0.6411 0.0
C1403 C 0.7597 0.03409 0.65791 0.0
C1404 C 0.7216 0.0501 0.64021 0.0
C1405 C 0.72057 0.00877 0.60883 0.0
C1406 C 0.71623 0.06216 0.61926 0.0
C1407 C 0.7006 0.08098 0.61963 0.0
C1408 C 0.69045 0.08836 0.64102 0.0
C1409 C 0.69522 0.07587 0.66168 0.0
C1410 C 0.71025 0.05695 0.66126 0.0
H1411 H 0.71888 0.99059 0.60446 0.0
H1412 H 0.70248 0.01442 0.61573 0.0
H1413 H 0.72494 0.0183 0.59226 0.0
H1414 H 0.72507 0.05779 0.6028 0.0
H1415 H 0.69778 0.09057 0.60351 0.0
H1416 H 0.10294 0.57747 0.22323 0.0
H1417 H 0.11042 0.5448 0.24857 0.0
H1418 H 0.16639 0.52269 0.2 0.0
H1419 H 0.15872 0.55529 0.1742 0.0
H1420 H 0.13168 0.48951 0.21 0.0
H1421 H 0.16395 0.52573 0.29358 0.0
H1422 H 0.13622 0.53873 0.28371 0.0
H1423 H 0.16414 0.54182 0.26626 0.0
C1424 C 0.11733 0.56601 0.21816 0.0
C1425 C 0.13019 0.5691 0.1966 0.0
C1426 C 0.12167 0.54731 0.23279 0.0
C1427 C 0.13909 0.53122 0.22635 0.0
C1428 C 0.15287 0.53482 0.2054 0.0
H1429 H 0.15129 0.41527 0.32572 0.0
H1430 H 0.16455 0.44551 0.2979 0.0
C1431 C 0.1486 0.55363 0.19074 0.0
C1432 C 0.1407 0.5096 0.24015 0.0
H1433 H 0.14519 0.48832 0.29628 0.0
C1434 C 0.1352 0.48922 0.22877 0.0
C1435 C 0.14548 0.50902 0.26464 0.0
C1436 C 0.15304 0.52999 0.27771 0.0
C1437 C 0.13299 0.46861 0.24137 0.0
C1438 C 0.13575 0.46833 0.26616 0.0
C1439 C 0.14276 0.48846 0.27734 0.0
C1440 C 0.12904 0.44802 0.28104 0.0
C1441 C 0.12727 0.44736 0.22799 0.0
C1442 C 0.1048 0.43909 0.28069 0.0
C1443 C 0.09719 0.42197 0.29658 0.0
C1444 C 0.11361 0.41322 0.31325 0.0
C1445 C 0.13825 0.42138 0.31291 0.0
C1446 C 0.14581 0.4388 0.29712 0.0
H1447 H 0.13426 0.44876 0.20951 0.0
H1448 H 0.1355 0.43237 0.23656 0.0
H1449 H 0.10694 0.44465 0.22741 0.0
H1450 H 0.09133 0.44614 0.26885 0.0
H1451 H 0.07806 0.41622 0.29646 0.0
H1452 H 0.87272 0.89224 0.52744 0.0
H1453 H 0.83663 0.89399 0.50181 0.0
H1454 H 0.81114 0.95197 0.53956 0.0
H1455 H 0.8465 0.94933 0.56586 0.0
H1456 H 0.77514 0.92422 0.53575 0.0
H1457 H 0.81832 0.93208 0.44726 0.0
H1458 H 0.82873 0.90739 0.46247 0.0
H1459 H 0.836 0.93499 0.47382 0.0
C1460 C 0.85963 0.90559 0.52984 0.0
C1461 C 0.86234 0.92069 0.5485 0.0
C1462 C 0.83905 0.90669 0.51514 0.0
C1463 C 0.8212 0.92334 0.51842 0.0
C1464 C 0.82454 0.93895 0.53658 0.0
H1465 H 0.70033 0.94107 0.41865 0.0
H1466 H 0.73797 0.9463 0.44185 0.0
C1467 C 0.84476 0.93752 0.55156 0.0
C1468 C 0.79804 0.92338 0.50443 0.0
H1469 H 0.77547 0.92057 0.44854 0.0
C1470 C 0.7753 0.92369 0.51665 0.0
C1471 C 0.79803 0.92306 0.47947 0.0
C1472 C 0.8216 0.92462 0.46501 0.0
C1473 C 0.7527 0.92322 0.50477 0.0
C1474 C 0.75267 0.92136 0.47992 0.0
C1475 C 0.77539 0.92163 0.46761 0.0
C1476 C 0.72936 0.91881 0.4664 0.0
C1477 C 0.72916 0.92516 0.51907 0.0
C1478 C 0.71195 0.90165 0.47238 0.0
C1479 C 0.69025 0.89903 0.45949 0.0
C1480 C 0.6858 0.9131 0.43992 0.0
C1481 C 0.70334 0.93005 0.43369 0.0
C1482 C 0.72484 0.93298 0.44689 0.0
H1483 H 0.7325 0.93432 0.53571 0.0
H1484 H 0.71475 0.93412 0.50904 0.0
H1485 H 0.722 0.90799 0.5239 0.0
H1486 H 0.71532 0.88997 0.48678 0.0
H1487 H 0.67734 0.88549 0.46433 0.0
H1488 H 0.34728 0.54652 0.84696 0.0
H1489 H 0.34838 0.5118 0.8245 0.0
H1490 H 0.35125 0.55072 0.75968 0.0
H1491 H 0.35123 0.58574 0.78212 0.0
H1492 H 0.31637 0.49509 0.79102 0.0
H1493 H 0.4104 0.50958 0.75283 0.0
H1494 H 0.39863 0.52591 0.77692 0.0
H1495 H 0.38947 0.5321 0.74721 0.0
C1496 C 0.34851 0.54781 0.82795 0.0
C1497 C 0.34963 0.56904 0.81638 0.0
C1498 C 0.34886 0.52787 0.81512 0.0
C1499 C 0.35029 0.52863 0.79044 0.0
C1500 C 0.35065 0.54973 0.77875 0.0
H1501 H 0.35835 0.42782 0.68223 0.0
H1502 H 0.35513 0.46209 0.7051 0.0
C1503 C 0.35038 0.56974 0.79159 0.0
C1504 C 0.35143 0.50728 0.77706 0.0
H1505 H 0.3875 0.47816 0.73875 0.0
C1506 C 0.33194 0.49134 0.77962 0.0
C1507 C 0.37183 0.50236 0.76232 0.0
C1508 C 0.3939 0.51827 0.75976 0.0
C1509 C 0.33204 0.47085 0.76742 0.0
C1510 C 0.35238 0.46601 0.75257 0.0
C1511 C 0.3719 0.48191 0.75011 0.0
C1512 C 0.35363 0.44481 0.73895 0.0
C1513 C 0.31011 0.45482 0.77008 0.0
C1514 C 0.35396 0.42358 0.75036 0.0
C1515 C 0.35591 0.4038 0.73726 0.0
C1516 C 0.35784 0.40491 0.71252 0.0
C1517 C 0.35742 0.42624 0.70123 0.0
C1518 C 0.3554 0.44592 0.71429 0.0
H1519 H 0.29366 0.46332 0.77738 0.0
H1520 H 0.30518 0.44737 0.75288 0.0
H1521 H 0.31483 0.44085 0.78235 0.0
H1522 H 0.3531 0.42233 0.76941 0.0
H1523 H 0.35639 0.3877 0.74649 0.0
H1524 H 0.86244 0.1257 0.97822 0.0
H1525 H 0.83313 0.1109 0.00758 0.0
H1526 H 0.82882 0.04761 0.97107 0.0
H1527 H 0.85788 0.0627 0.94102 0.0
H1528 H 0.78495 0.06164 0.97745 0.0
H1529 H 0.82942 0.06953 0.06298 0.0
H1530 H 0.83282 0.09649 0.04853 0.0
H1531 H 0.84709 0.07207 0.03587 0.0
C1532 C 0.85587 0.10838 0.97673 0.0
C1533 C 0.86244 0.09549 0.9571 0.0
C1534 C 0.83917 0.09981 0.99376 0.0
C1535 C 0.82879 0.07798 0.99185 0.0
C1536 C 0.83659 0.06447 0.97309 0.0
H1537 H 0.71002 0.06968 0.09945 0.0
H1538 H 0.74499 0.05453 0.07697 0.0
C1539 C 0.85335 0.07309 0.95594 0.0
C1540 C 0.80719 0.07106 0.00719 0.0
H1541 H 0.78437 0.07694 0.06311 0.0
C1542 C 0.78506 0.06442 0.9963 0.0
C1543 C 0.80711 0.0738 0.03197 0.0
C1544 C 0.83054 0.0781 0.04545 0.0
C1545 C 0.76261 0.06288 0.00897 0.0
C1546 C 0.762 0.06891 0.03304 0.0
C1547 C 0.7845 0.07304 0.0445 0.0
C1548 C 0.73843 0.07441 0.04544 0.0
C1549 C 0.73965 0.05546 0.99614 0.0
C1550 C 0.72263 0.0901 0.03507 0.0
C1551 C 0.70254 0.09837 0.04761 0.0
C1552 C 0.69786 0.09153 0.07109 0.0
C1553 C 0.71287 0.075 0.08126 0.0
C1554 C 0.73305 0.06655 0.06853 0.0
H1555 H 0.74411 0.04248 0.9829 0.0
H1556 H 0.72522 0.04841 0.00841 0.0
H1557 H 0.73209 0.07012 0.98643 0.0
H1558 H 0.72661 0.09707 0.01765 0.0
H1559 H 0.69148 0.1112 0.0393 0.0
H1560 H 0.29186 0.18865 0.42464 0.0
H1561 H 0.26878 0.1933 0.4617 0.0
H1562 H 0.29652 0.13016 0.48783 0.0
H1563 H 0.31892 0.12507 0.45106 0.0
H1564 H 0.23233 0.16328 0.48258 0.0
H1565 H 0.31239 0.17469 0.5412 0.0
H1566 H 0.31463 0.17867 0.50961 0.0
H1567 H 0.3153 0.15074 0.52244 0.0
C1568 C 0.29294 0.17569 0.4382 0.0
C1569 C 0.30757 0.15658 0.43479 0.0
C1570 C 0.27988 0.17847 0.45945 0.0
C1571 C 0.28143 0.16235 0.47775 0.0
C1572 C 0.29563 0.14315 0.47424 0.0
H1573 H 0.2185 0.10824 0.6013 0.0
H1574 H 0.24508 0.1227 0.56928 0.0
C1575 C 0.30848 0.14028 0.45308 0.0
C1576 C 0.26729 0.16455 0.50017 0.0
H1577 H 0.27415 0.16195 0.55991 0.0
C1578 C 0.24139 0.16354 0.49952 0.0
C1579 C 0.27918 0.16504 0.52222 0.0
C1580 C 0.30691 0.16759 0.52398 0.0
C1581 C 0.22711 0.16122 0.52033 0.0
C1582 C 0.23911 0.1602 0.54238 0.0
C1583 C 0.26496 0.16261 0.54304 0.0
C1584 C 0.2254 0.15381 0.56446 0.0
C1585 C 0.19941 0.15845 0.51843 0.0
C1586 C 0.20626 0.16703 0.57331 0.0
C1587 C 0.19098 0.1588 0.59179 0.0
C1588 C 0.19453 0.13714 0.60164 0.0
C1589 C 0.21503 0.12487 0.59402 0.0
C1590 C 0.23029 0.13312 0.57566 0.0
H1591 H 0.1935 0.15582 0.49998 0.0
H1592 H 0.19251 0.14394 0.52945 0.0
H1593 H 0.19053 0.17391 0.52493 0.0
H1594 H 0.20249 0.18328 0.56529 0.0
H1595 H 0.17558 0.16886 0.59739 0.0
H1596 H 0.1466 0.01176 0.63438 0.0
H1597 H 0.1521 0.98241 0.66457 0.0
H1598 H 0.12892 0.02835 0.71823 0.0
H1599 H 0.12292 0.05761 0.68829 0.0
H1600 H 0.17302 0.00564 0.72877 0.0
H1601 H 0.09812 0.946 0.70221 0.0
H1602 H 0.11934 0.95481 0.67906 0.0
H1603 H 0.09961 0.97515 0.69235 0.0
C1604 C 0.14235 0.0156 0.65253 0.0
C1605 C 0.13436 0.03723 0.65874 0.0
C1606 C 0.14552 0.99875 0.66981 0.0
C1607 C 0.14073 1.0031 0.69367 0.0
C1608 C 0.13276 0.0246 0.69994 0.0
H1609 H 0.12545 0.91309 0.81497 0.0
H1610 H 0.11936 0.9389 0.78191 0.0
C1611 C 0.12949 0.04141 0.68272 0.0
C1612 C 0.14471 0.98556 0.71226 0.0
H1613 H 0.12451 0.93361 0.73255 0.0
C1614 C 0.16246 0.98986 0.72956 0.0
C1615 C 0.13072 0.96509 0.71345 0.0
C1616 C 0.11071 0.95995 0.69593 0.0
C1617 C 0.16673 0.97423 0.74789 0.0
C1618 C 0.15309 0.95356 0.74884 0.0
C1619 C 0.13516 0.94933 0.73167 0.0
C1620 C 0.15659 0.93654 0.76806 0.0
C1621 C 0.18541 0.98022 0.76644 0.0
C1622 C 0.17939 0.92605 0.77101 0.0
C1623 C 0.18297 0.911 0.7899 0.0
C1624 C 0.1638 0.90604 0.80632 0.0
C1625 C 0.14071 0.91613 0.8028 0.0
C1626 C 0.13716 0.93109 0.78386 0.0
H1627 H 0.19008 0.99858 0.76626 0.0
H1628 H 0.17841 0.97526 0.78429 0.0
H1629 H 0.20266 0.97096 0.76305 0.0
H1630 H 0.19452 0.92963 0.75875 0.0
H1631 H 0.20082 0.90334 0.79165 0.0
H1632 H 0.29038 0.94801 0.10654 0.0
H1633 H 0.26379 0.95106 0.07206 0.0
H1634 H 0.29961 0.89414 0.04108 0.0
H1635 H 0.32665 0.89139 0.07499 0.0
H1636 H 0.29033 0.9262 0.00832 0.0
H1637 H 0.20588 0.90806 0.06257 0.0
H1638 H 0.22327 0.93268 0.07115 0.0
H1639 H 0.23657 0.90524 0.07411 0.0
C1640 C 0.29284 0.93635 0.09223 0.0
C1641 C 0.31052 0.91934 0.09366 0.0
C1642 C 0.27746 0.938 0.07262 0.0
C1643 C 0.27926 0.92247 0.05424 0.0
C1644 C 0.29775 0.90623 0.0551 0.0
H1645 H 0.17293 0.87247 0.95667 0.0
H1646 H 0.19935 0.88128 0.98996 0.0
C1647 C 0.31324 0.9047 0.07455 0.0
C1648 C 0.2614 0.92233 0.03451 0.0
H1649 H 0.20025 0.91438 0.02195 0.0
C1650 C 0.2706 0.92378 0.01128 0.0
C1651 C 0.23568 0.91886 0.0384 0.0
C1652 C 0.22471 0.91591 0.06287 0.0
C1653 C 0.25493 0.92144 0.99186 0.0
C1654 C 0.22919 0.91813 0.99575 0.0
C1655 C 0.21993 0.91712 0.01898 0.0
C1656 C 0.21184 0.91387 0.9761 0.0
C1657 C 0.26627 0.92149 0.96743 0.0
C1658 C 0.20946 0.92953 0.95746 0.0
C1659 C 0.19447 0.92444 0.93822 0.0
C1660 C 0.18131 0.90373 0.93741 0.0
C1661 C 0.18281 0.88858 0.95665 0.0
C1662 C 0.19794 0.89359 0.97575 0.0
H1663 H 0.28649 0.91864 0.96786 0.0
H1664 H 0.25752 0.90826 0.95645 0.0
H1665 H 0.26339 0.93814 0.95879 0.0
H1666 H 0.21947 0.94555 0.95762 0.0
H1667 H 0.19357 0.93657 0.92379 0.0
H1668 H 0.39135 0.05728 0.36361 0.0
H1669 H 0.38705 0.02138 0.34271 0.0
H1670 H 0.31683 0.04209 0.31571 0.0
H1671 H 0.32092 0.07776 0.33639 0.0
H1672 H 0.31908 0.99488 0.33249 0.0
H1673 H 0.39408 0.02071 0.26886 0.0
H1674 H 0.40088 0.02194 0.29978 0.0
H1675 H 0.37888 0.04081 0.28738 0.0
C1676 C 0.37483 0.054 0.35354 0.0
C1677 C 0.35656 0.07043 0.3515 0.0
C1678 C 0.37246 0.03356 0.34152 0.0
C1679 C 0.35175 0.02923 0.32746 0.0
C1680 C 0.33298 0.04512 0.32641 0.0
H1681 H 0.29197 0.93871 0.22543 0.0
H1682 H 0.29909 0.96512 0.25743 0.0
C1683 C 0.3354 0.06554 0.3382 0.0
C1684 C 0.35001 0.00889 0.31259 0.0
H1685 H 0.37279 0.98666 0.26183 0.0
C1686 C 0.33098 0.9929 0.31718 0.0
C1687 C 0.36558 0.00637 0.29266 0.0
C1688 C 0.38595 0.02337 0.28665 0.0
C1689 C 0.32687 0.97458 0.30214 0.0
C1690 C 0.34178 0.97258 0.28163 0.0
C1691 C 0.36132 0.9882 0.2775 0.0
C1692 C 0.33678 0.95519 0.26355 0.0
C1693 C 0.30663 0.95756 0.30844 0.0
C1694 C 0.35565 0.941 0.25601 0.0
C1695 C 0.35168 0.92604 0.23753 0.0
C1696 C 0.32874 0.92496 0.22614 0.0
C1697 C 0.30969 0.93883 0.23406 0.0
C1698 C 0.31374 0.95391 0.25243 0.0
H1699 H 0.30287 0.95703 0.32774 0.0
H1700 H 0.28935 0.96248 0.29958 0.0
H1701 H 0.31145 0.94036 0.30269 0.0
H1702 H 0.37361 0.94171 0.26423 0.0
H1703 H 0.36665 0.91542 0.23204 0.0
H1704 H 0.59309 0.19561 0.07027 0.0
H1705 H 0.55931 0.22153 0.07753 0.0
H1706 H 0.56834 0.21247 0.15246 0.0
H1707 H 0.60215 0.18663 0.14527 0.0
H1708 H 0.5165 0.20778 0.10047 0.0
H1709 H 0.55953 0.28065 0.146 0.0
H1710 H 0.57738 0.26074 0.1295 0.0
H1711 H 0.5666 0.25368 0.15884 0.0
C1712 C 0.58819 0.19955 0.08827 0.0
C1713 C 0.60024 0.18907 0.10717 0.0
C1714 C 0.56892 0.21433 0.09241 0.0
C1715 C 0.56137 0.21901 0.11553 0.0
C1716 C 0.57416 0.20946 0.13448 0.0
H1717 H 0.41453 0.25776 0.16026 0.0
H1718 H 0.45311 0.23819 0.15281 0.0
C1719 C 0.59353 0.19471 0.13034 0.0
C1720 C 0.53852 0.23181 0.1197 0.0
H1721 H 0.51547 0.278 0.14694 0.0
C1722 C 0.51631 0.22321 0.11051 0.0
C1723 C 0.53832 0.25197 0.13271 0.0
C1724 C 0.56176 0.26246 0.14216 0.0
C1725 C 0.49385 0.23406 0.11424 0.0
C1726 C 0.49352 0.25384 0.12785 0.0
C1727 C 0.51577 0.26268 0.13672 0.0
C1728 C 0.47026 0.26577 0.13271 0.0
C1729 C 0.47071 0.22441 0.10332 0.0
C1730 C 0.46728 0.28787 0.12421 0.0
C1731 C 0.44523 0.29906 0.12837 0.0
C1732 C 0.42574 0.28843 0.14127 0.0
C1733 C 0.42892 0.26632 0.14993 0.0
C1734 C 0.451 0.25512 0.14575 0.0
H1735 H 0.47503 0.21261 0.08888 0.0
H1736 H 0.45976 0.21492 0.117 0.0
H1737 H 0.45907 0.23807 0.09619 0.0
H1738 H 0.48191 0.29635 0.11407 0.0
H1739 H 0.44337 0.31595 0.12117 0.0
H1740 H 0.95614 0.16567 0.87665 0.0
H1741 H 0.99123 0.19226 0.87659 0.0
H1742 H 0.94339 0.24514 0.89926 0.0
H1743 H 0.90814 0.21859 0.89976 0.0
H1744 H 0.97662 0.25792 0.86136 0.0
H1745 H 0.02513 0.21719 0.93608 0.0
H1746 H 0.01673 0.19893 0.91233 0.0
H1747 H 0.99299 0.21135 0.92995 0.0
C1748 C 0.953 0.18285 0.88194 0.0
C1749 C 0.92915 0.1898 0.88846 0.0
C1750 C 0.97317 0.19809 0.8818 0.0
C1751 C 0.97004 0.22065 0.88819 0.0
C1752 C 0.94627 0.2278 0.89428 0.0
H1753 H 0.0657 0.3266 0.93412 0.0
H1754 H 0.0377 0.29427 0.92905 0.0
C1755 C 0.92607 0.21256 0.89449 0.0
C1756 C 0.99151 0.2368 0.88867 0.0
H1757 H 0.04531 0.24847 0.91751 0.0
C1758 C 0.99175 0.25578 0.8735 0.0
C1759 C 0.01119 0.23405 0.9046 0.0
C1760 C 0.01156 0.2144 0.92183 0.0
C1761 C 0.01094 0.2722 0.87405 0.0
C1762 C 0.03055 0.2695 0.89008 0.0
C1763 C 0.03045 0.25038 0.90503 0.0
C1764 C 0.04974 0.28754 0.89343 0.0
C1765 C 0.00959 0.29277 0.85813 0.0
C1766 C 0.06656 0.29409 0.87536 0.0
C1767 C 0.08289 0.3126 0.8783 0.0
C1768 C 0.08248 0.32489 0.89931 0.0
C1769 C 0.06644 0.31754 0.91769 0.0
C1770 C 0.05038 0.29904 0.91483 0.0
H1771 H 0.9913 0.29409 0.8496 0.0
H1772 H 0.01327 0.30839 0.8682 0.0
H1773 H 0.02393 0.29182 0.84406 0.0
H1774 H 0.06663 0.28525 0.85879 0.0
H1775 H 0.0949 0.31794 0.86376 0.0
H1776 H 0.07541 0.67215 0.16233 0.0
H1777 H 0.05865 0.71016 0.16159 0.0
H1778 H 0.99487 0.68537 0.12433 0.0
H1779 H 0.01152 0.64733 0.12502 0.0
H1780 H 0.0486 0.73596 0.12249 0.0
H1781 H 0.96333 0.72186 0.17627 0.0
H1782 H 0.988 0.70183 0.17566 0.0
H1783 H 0.96597 0.70271 0.1522 0.0
C1784 C 0.05776 0.67476 0.15407 0.0
C1785 C 0.04482 0.65666 0.14373 0.0
C1786 C 0.04817 0.69649 0.15373 0.0
C1787 C 0.02537 0.70059 0.14315 0.0
C1788 C 0.01222 0.68253 0.13309 0.0
H1789 H 0.9413 0.81684 0.10465 0.0
H1790 H 0.95834 0.77953 0.11107 0.0
C1791 C 0.02177 0.66076 0.13349 0.0
C1792 C 0.01607 0.72398 0.14145 0.0
H1793 H 0.9666 0.7566 0.1545 0.0
C1794 C 0.03078 0.74053 0.12969 0.0
C1795 C 0.99281 0.72993 0.15085 0.0
C1796 C 0.9767 0.71321 0.16465 0.0
C1797 C 0.02255 0.76269 0.12646 0.0
C1798 C 0.99913 0.76853 0.13552 0.0
C1799 C 0.98455 0.75207 0.14755 0.0
C1800 C 0.98899 0.79139 0.13196 0.0
C1801 C 0.03863 0.77949 0.11272 0.0
C1802 C 1.00049 0.8105 0.14173 0.0
C1803 C 0.99067 0.83197 0.13822 0.0
C1804 C 0.96908 0.8347 0.12499 0.0
C1805 C 0.95766 0.81544 0.11529 0.0
C1806 C 0.96746 0.79404 0.11882 0.0
H1807 H 0.05352 0.77111 0.10269 0.0
H1808 H 0.02742 0.78943 0.1002 0.0
H1809 H 0.04744 0.79142 0.12512 0.0
H1810 H 0.01691 0.80878 0.15226 0.0
H1811 H 0.99975 0.84636 0.14618 0.0
H1812 H 0.43757 0.70682 0.38012 0.0
H1813 H 0.47594 0.72912 0.37746 0.0
H1814 H 0.44287 0.77407 0.32702 0.0
H1815 H 0.40433 0.75165 0.32936 0.0
H1816 H 0.506 0.73869 0.33739 0.0
H1817 H 0.4703 0.81669 0.37762 0.0
H1818 H 0.45392 0.78985 0.37986 0.0
H1819 H 0.45296 0.80635 0.35307 0.0
C1820 C 0.43841 0.72135 0.36833 0.0
C1821 C 0.41779 0.72738 0.35491 0.0
C1822 C 0.46038 0.73413 0.3669 0.0
C1823 C 0.46221 0.75332 0.35218 0.0
C1824 C 0.44172 0.7595 0.33878 0.0
H1825 H 0.59711 0.82717 0.30952 0.0
H1826 H 0.56065 0.80198 0.3106 0.0
C1827 C 0.41968 0.74669 0.34018 0.0
C1828 C 0.48569 0.76669 0.35083 0.0
H1829 H 0.51115 0.81851 0.36237 0.0
C1830 C 0.50717 0.75615 0.34283 0.0
C1831 C 0.48718 0.78937 0.35818 0.0
C1832 C 0.46494 0.80124 0.36787 0.0
C1833 C 0.53009 0.76776 0.34185 0.0
C1834 C 0.53148 0.79056 0.34885 0.0
C1835 C 0.51002 0.80105 0.35693 0.0
C1836 C 0.55502 0.80389 0.34833 0.0
C1837 C 0.5527 0.75541 0.33384 0.0
C1838 C 0.56407 0.81322 0.36919 0.0
C1839 C 0.58483 0.82766 0.36863 0.0
C1840 C 0.59692 0.83319 0.34715 0.0
C1841 C 0.58837 0.82314 0.32638 0.0
C1842 C 0.56753 0.8087 0.32696 0.0
H1843 H 0.54969 0.73679 0.33462 0.0
H1844 H 0.55718 0.76034 0.3153 0.0
H1845 H 0.56889 0.75989 0.34479 0.0
H1846 H 0.55469 0.80973 0.38587 0.0
H1847 H 0.59089 0.83508 0.38496 0.0
H1848 H 0.10573 0.73619 0.65219 0.0
H1849 H 0.07221 0.76311 0.65218 0.0
H1850 H 0.01973 0.70914 0.63907 0.0
H1851 H 0.05318 0.68192 0.63971 0.0
H1852 H 0.04119 0.77387 0.61638 0.0
H1853 H 0.98534 0.74113 0.69277 0.0
H1854 H 0.01669 0.73261 0.68732 0.0
H1855 H 0.9918 0.72085 0.67044 0.0
C1856 C 0.08707 0.72988 0.64965 0.0
C1857 C 0.0824 0.70671 0.64598 0.0
C1858 C 0.06782 0.7454 0.64951 0.0
C1859 C 0.0432 0.7383 0.64591 0.0
C1860 C 0.03838 0.71516 0.64232 0.0
H1861 H 0.9131 0.82777 0.62994 0.0
H1862 H 0.93801 0.79324 0.63236 0.0
C1863 C 0.05769 0.69958 0.64238 0.0
C1864 C 0.02306 0.75541 0.64486 0.0
H1865 H 0.96933 0.77215 0.67154 0.0
C1866 C 0.02546 0.77334 0.62841 0.0
C1867 C 1.00225 0.75483 0.66037 0.0
C1868 C 0.99883 0.73645 0.67887 0.0
C1869 C 0.0081 0.79071 0.62729 0.0
C1870 C 0.98775 0.79057 0.64326 0.0
C1871 C 0.98482 0.77231 0.65925 0.0
C1872 C 0.971 0.81039 0.64475 0.0
C1873 C 0.01184 0.80933 0.60905 0.0
C1874 C 0.98077 0.83129 0.65184 0.0
C1875 C 0.96669 0.85078 0.65052 0.0
C1876 C 0.94225 0.85005 0.64225 0.0
C1877 C 0.93175 0.82889 0.6366 0.0
C1878 C 0.94605 0.80919 0.63783 0.0
H1879 H 0.0241 0.80409 0.59437 0.0
H1880 H 0.9939 0.81456 0.60166 0.0
H1881 H 0.0206 0.82423 0.61746 0.0
H1882 H 0.99974 0.83271 0.6576 0.0
H1883 H 0.97535 0.86673 0.65519 0.0
H1884 H 0.04427 0.31621 0.34549 0.0
H1885 H 0.02418 0.27885 0.34534 0.0
H1886 H 0.98657 0.29352 0.41062 0.0
H1887 H 0.00631 0.33116 0.41051 0.0
H1888 H 0.0287 0.24511 0.37705 0.0
H1889 H 0.93012 0.26906 0.37228 0.0
H1890 H 0.95515 0.28919 0.36707 0.0
H1891 H 0.94646 0.28084 0.39665 0.0
C1892 C 0.03153 0.31152 0.35968 0.0
C1893 C 0.02678 0.32661 0.37795 0.0
C1894 C 0.02007 0.29018 0.3596 0.0
C1895 C 1.00368 0.2834 0.37786 0.0
C1896 C 0.99869 0.29852 0.39606 0.0
H1897 H 0.92198 0.1541 0.39099 0.0
H1898 H 0.94471 0.18829 0.40239 0.0
C1899 C 0.00998 0.32003 0.396 0.0
C1900 C 0.99278 0.26015 0.37805 0.0
H1901 H 0.93821 0.23021 0.37577 0.0
C1902 C 0.0089 0.24188 0.37687 0.0
C1903 C 0.96693 0.25588 0.37805 0.0
C1904 C 0.94863 0.27475 0.37838 0.0
C1905 C 0.99991 0.21959 0.37496 0.0
C1906 C 0.97416 0.21544 0.37419 0.0
C1907 C 0.95798 0.23352 0.37643 0.0
C1908 C 0.9636 0.19286 0.36881 0.0
C1909 C 0.018 0.20064 0.37346 0.0
C1910 C 0.96719 0.18383 0.34634 0.0
C1911 C 0.95408 0.16443 0.33967 0.0
C1912 C 0.93721 0.15365 0.3554 0.0
C1913 C 0.93497 0.16186 0.37848 0.0
C1914 C 0.94782 0.18149 0.38501 0.0
H1915 H 0.0364 0.2057 0.38035 0.0
H1916 H 0.01101 0.18549 0.38344 0.0
H1917 H 0.02042 0.1959 0.35474 0.0
H1918 H 0.97909 0.19252 0.33349 0.0
H1919 H 0.95618 0.15858 0.32178 0.0
H1920 H 0.42545 0.6759 0.85113 0.0
H1921 H 0.45758 0.70427 0.85896 0.0
H1922 H 0.45651 0.68467 0.93243 0.0
H1923 H 0.42421 0.65586 0.92462 0.0
H1924 H 0.452 0.73418 0.92094 0.0
H1925 H 0.53184 0.69464 0.87681 0.0
H1926 H 0.50398 0.69478 0.85988 0.0
H1927 H 0.50486 0.67857 0.88687 0.0
C1928 C 0.43231 0.67731 0.86891 0.0
C1929 C 0.42238 0.66349 0.88722 0.0
C1930 C 0.4507 0.69357 0.87335 0.0
C1931 C 0.45953 0.69658 0.89625 0.0
C1932 C 0.45002 0.68258 0.9146 0.0
H1933 H 0.58777 0.7867 0.91252 0.0
H1934 H 0.55726 0.7563 0.92059 0.0
C1935 C 0.43174 0.666 0.91008 0.0
C1936 C 0.47792 0.71502 0.90078 0.0
H1937 H 0.53595 0.73383 0.88497 0.0
C1938 C 0.4705 0.73401 0.91339 0.0
C1939 C 0.50208 0.71476 0.89105 0.0
C1940 C 0.51134 0.69453 0.87805 0.0
C1941 C 0.48627 0.7531 0.91566 0.0
C1942 C 0.51001 0.75327 0.90487 0.0
C1943 C 0.51774 0.73385 0.89315 0.0
C1944 C 0.52687 0.77358 0.90448 0.0
C1945 C 0.47732 0.77294 0.92946 0.0
C1946 C 0.51982 0.79383 0.8934 0.0
C1947 C 0.53723 0.81136 0.889 0.0
C1948 C 0.56192 0.80897 0.89569 0.0
C1949 C 0.56865 0.78927 0.90791 0.0
C1950 C 0.55129 0.77179 0.91229 0.0
H1951 H 0.46248 0.76777 0.94226 0.0
H1952 H 0.49269 0.78116 0.93916 0.0
H1953 H 0.46961 0.78558 0.9171 0.0
H1954 H 0.50131 0.79547 0.88664 0.0
H1955 H 0.53184 0.82599 0.87875 0.0
H1956 H 0.65265 0.91403 0.80877 0.0
H1957 H 0.65666 0.95216 0.79158 0.0
H1958 H 0.57727 0.9552 0.7868 0.0
H1959 H 0.57338 0.91678 0.80303 0.0
H1960 H 0.59679 0.9717 0.74872 0.0
H1961 H 0.64652 0.01077 0.82276 0.0
H1962 H 0.66322 0.9876 0.81105 0.0
H1963 H 0.63337 0.98257 0.82477 0.0
C1964 C 0.63612 0.92289 0.80396 0.0
C1965 C 0.61273 0.91247 0.80715 0.0
C1966 C 0.63838 0.94476 0.79439 0.0
C1967 C 0.61724 0.95687 0.78845 0.0
C1968 C 0.59387 0.9463 0.79134 0.0
H1969 H 0.62212 0.10234 0.75476 0.0
H1970 H 0.61619 0.06554 0.77497 0.0
C1971 C 0.59165 0.92429 0.80048 0.0
C1972 C 0.61942 0.98021 0.77842 0.0
H1973 H 0.64622 0.03226 0.78658 0.0
C1974 C 0.60743 0.98496 0.75716 0.0
C1975 C 0.63286 0.99776 0.7896 0.0
C1976 C 0.64447 0.99449 0.81342 0.0
C1977 C 0.60899 0.00647 0.74649 0.0
C1978 C 0.62379 0.02358 0.75683 0.0
C1979 C 0.6352 0.01908 0.77844 0.0
C1980 C 0.62809 0.04598 0.74513 0.0
C1981 C 0.59439 0.01066 0.7244 0.0
C1982 C 0.63735 0.04727 0.72194 0.0
C1983 C 0.6403 0.0681 0.71036 0.0
C1984 C 0.63472 0.08824 0.72189 0.0
C1985 C 0.62653 0.08708 0.74548 0.0
C1986 C 0.62313 0.0661 0.75698 0.0
H1987 H 0.57802 0.99906 0.72355 0.0
H1988 H 0.58795 0.02831 0.72334 0.0
H1989 H 0.60623 0.00748 0.70875 0.0
H1990 H 0.6422 0.0321 0.71269 0.0
H1991 H 0.6471 0.06842 0.69236 0.0
H1992 H 0.19756 0.4159 0.93987 0.0
H1993 H 0.23369 0.41547 0.96546 0.0
H1994 H 0.18773 0.39062 0.02325 0.0
H1995 H 0.1514 0.39201 0.99791 0.0
H1996 H 0.22133 0.41957 0.03902 0.0
H1997 H 0.26876 0.35909 0.98111 0.0
H1998 H 0.26219 0.38532 0.96657 0.0
H1999 H 0.23718 0.36692 0.97664 0.0
C2000 C 0.19519 0.41048 0.95809 0.0
C2001 C 0.17171 0.40374 0.96685 0.0
C2002 C 0.21588 0.41012 0.97267 0.0
C2003 C 0.21368 0.40238 0.99616 0.0
C2004 C 0.19002 0.39654 0.00519 0.0
H2005 H 0.31496 0.33491 0.08309 0.0
H2006 H 0.28613 0.34862 0.05406 0.0
C2007 C 0.16924 0.39734 0.99072 0.0
C2008 C 0.23598 0.39942 0.01109 0.0
H2009 H 0.29072 0.37181 0.01402 0.0
C2010 C 0.23657 0.40922 0.03351 0.0
C2011 C 0.25588 0.38577 0.00402 0.0
C2012 C 0.25594 0.37349 0.98089 0.0
C2013 C 0.25605 0.40528 0.04921 0.0
C2014 C 0.2759 0.39162 0.0421 0.0
C2015 C 0.27568 0.38246 0.01941 0.0
C2016 C 0.29524 0.384 0.05881 0.0
C2017 C 0.25451 0.41482 0.07368 0.0
C2018 C 0.31075 0.39925 0.07084 0.0
C2019 C 0.32742 0.39135 0.08778 0.0
C2020 C 0.3289 0.36808 0.09281 0.0
C2021 C 0.31426 0.35295 0.07981 0.0
C2022 C 0.2977 0.36078 0.06311 0.0
H2023 H 0.23578 0.42107 0.07787 0.0
H2024 H 0.25935 0.4019 0.08713 0.0
H2025 H 0.26784 0.42922 0.07504 0.0
H2026 H 0.30966 0.41723 0.06746 0.0
H2027 H 0.33838 0.40344 0.09753 0.0
H2028 H 0.89182 0.06124 0.28724 0.0
H2029 H 0.88778 0.02742 0.26352 0.0
H2030 H 0.82603 0.05612 0.22735 0.0
H2031 H 0.82964 0.09004 0.25141 0.0
H2032 H 0.84387 0.99834 0.26065 0.0
H2033 H 0.87358 0.03551 0.17371 0.0
H2034 H 0.88059 0.04924 0.20113 0.0
H2035 H 0.84976 0.04952 0.18989 0.0
C2036 C 0.8773 0.06043 0.27432 0.0
C2037 C 0.86099 0.07841 0.27138 0.0
C2038 C 0.87507 0.04107 0.26071 0.0
C2039 C 0.85666 0.03927 0.24365 0.0
C2040 C 0.84056 0.05727 0.24026 0.0
H2041 H 0.84815 0.92986 0.14161 0.0
H2042 H 0.83489 0.96166 0.16534 0.0
C2043 C 0.84272 0.0767 0.25398 0.0
C2044 C 0.85432 0.01824 0.22989 0.0
H2045 H 0.86579 0.99646 0.17566 0.0
C2046 C 0.84831 0.99794 0.24197 0.0
C2047 C 0.85984 0.0178 0.2055 0.0
C2048 C 0.86645 0.0391 0.19168 0.0
C2049 C 0.8484 0.97712 0.23044 0.0
C2050 C 0.85531 0.97652 0.20633 0.0
C2051 C 0.86031 0.99693 0.19406 0.0
C2052 C 0.85987 0.95499 0.19399 0.0
C2053 C 0.84134 0.95597 0.2443 0.0
C2054 C 0.87784 0.94027 0.20244 0.0
C2055 C 0.88539 0.92205 0.18897 0.0
C2056 C 0.87532 0.91825 0.16661 0.0
C2057 C 0.8562 0.93216 0.15881 0.0
C2058 C 0.84868 0.95045 0.17231 0.0
H2059 H 0.82847 0.95972 0.25906 0.0
H2060 H 0.8325 0.9431 0.23293 0.0
H2061 H 0.8582 0.9487 0.25202 0.0
H2062 H 0.88714 0.94363 0.21885 0.0
H2063 H 0.90018 0.91174 0.19552 0.0
H2064 H 0.18998 0.68081 0.57064 0.0
H2065 H 0.22152 0.67735 0.53994 0.0
H2066 H 0.19786 0.60839 0.52872 0.0
H2067 H 0.16582 0.61186 0.55942 0.0
H2068 H 0.25962 0.64623 0.5432 0.0
H2069 H 0.20573 0.63441 0.46117 0.0
H2070 H 0.19222 0.64574 0.48761 0.0
H2071 H 0.19774 0.61605 0.48576 0.0
C2072 C 0.19109 0.66504 0.5613 0.0
C2073 C 0.17539 0.64662 0.56744 0.0
C2074 C 0.20921 0.66306 0.54381 0.0
C2075 C 0.21209 0.64263 0.53203 0.0
C2076 C 0.19576 0.62443 0.53735 0.0
H2077 H 0.32548 0.6195 0.42263 0.0
H2078 H 0.29441 0.61132 0.45363 0.0
C2079 C 0.17742 0.62645 0.55486 0.0
C2080 C 0.23342 0.64025 0.51559 0.0
H2081 H 0.24912 0.63453 0.45754 0.0
C2082 C 0.25732 0.64348 0.52449 0.0
C2083 C 0.23043 0.63637 0.49125 0.0
C2084 C 0.20518 0.63307 0.48072 0.0
C2085 C 0.27824 0.64375 0.50962 0.0
C2086 C 0.27518 0.64101 0.48513 0.0
C2087 C 0.25141 0.63666 0.47634 0.0
C2088 C 0.29599 0.64487 0.46815 0.0
C2089 C 0.30342 0.64729 0.52023 0.0
C2090 C 0.30745 0.66631 0.46628 0.0
C2091 C 0.32512 0.67102 0.44865 0.0
C2092 C 0.33173 0.65439 0.43248 0.0
C2093 C 0.32104 0.6326 0.43499 0.0
C2094 C 0.30314 0.62794 0.45257 0.0
H2095 H 0.30348 0.64208 0.53913 0.0
H2096 H 0.31766 0.63768 0.51063 0.0
H2097 H 0.30863 0.6655 0.51909 0.0
H2098 H 0.30196 0.67973 0.47785 0.0
H2099 H 0.3329 0.688 0.44712 0.0
H2100 H 0.7513 0.65341 0.08174 0.0
H2101 H 0.77459 0.65225 0.04454 0.0
H2102 H 0.70638 0.64736 0.00633 0.0
H2103 H 0.68302 0.64861 0.04334 0.0
H2104 H 0.73772 0.61651 0.99192 0.0
H2105 H 0.78677 0.6994 0.99343 0.0
H2106 H 0.79194 0.68288 0.01959 0.0
H2107 H 0.76128 0.69225 0.01316 0.0
C2108 C 0.74126 0.65249 0.0654 0.0
C2109 C 0.71529 0.65099 0.06559 0.0
C2110 C 0.75459 0.65191 0.04411 0.0
C2111 C 0.74222 0.6501 0.02256 0.0
C2112 C 0.71631 0.64889 0.02271 0.0
H2113 H 0.82645 0.66066 0.88879 0.0
H2114 H 0.79434 0.66675 0.91887 0.0
C2115 C 0.70299 0.64943 0.04393 0.0
C2116 C 0.75623 0.64799 0.99999 0.0
H2117 H 0.80243 0.67243 0.96617 0.0
C2118 C 0.75166 0.62889 0.98618 0.0
C2119 C 0.77409 0.66433 0.99216 0.0
C2120 C 0.77864 0.68598 0.00523 0.0
C2121 C 0.76519 0.62521 0.96537 0.0
C2122 C 0.78419 0.64077 0.9584 0.0
C2123 C 0.78801 0.66038 0.97161 0.0
C2124 C 0.80158 0.63613 0.93868 0.0
C2125 C 0.75904 0.60458 0.95112 0.0
C2126 C 0.81608 0.6168 0.93964 0.0
C2127 C 0.83424 0.61326 0.92252 0.0
C2128 C 0.8385 0.62904 0.90407 0.0
C2129 C 0.82343 0.64806 0.90261 0.0
C2130 C 0.80522 0.65164 0.91988 0.0
H2131 H 0.73949 0.59896 0.95396 0.0
H2132 H 0.76223 0.60784 0.93199 0.0
H2133 H 0.77095 0.59053 0.95678 0.0
H2134 H 0.81403 0.60484 0.9542 0.0
H2135 H 0.84558 0.59849 0.92425 0.0
H2136 H 0.63834 0.50088 0.34926 0.0
H2137 H 0.64017 0.52244 0.3121 0.0
H2138 H 0.61801 0.46283 0.27441 0.0
H2139 H 0.61588 0.44126 0.31139 0.0
H2140 H 0.6592 0.48504 0.25457 0.0
H2141 H 0.58352 0.54471 0.27091 0.0
H2142 H 0.60604 0.54394 0.29388 0.0
H2143 H 0.58722 0.51925 0.28833 0.0
C2144 C 0.63351 0.49244 0.33313 0.0
C2145 C 0.62709 0.46929 0.33336 0.0
C2146 C 0.63454 0.50479 0.31189 0.0
C2147 C 0.62899 0.49429 0.29051 0.0
C2148 C 0.62237 0.47127 0.2907 0.0
H2149 H 0.61428 0.5712 0.15827 0.0
H2150 H 0.60697 0.54317 0.19002 0.0
C2151 C 0.62132 0.45893 0.31188 0.0
C2152 C 0.63121 0.50701 0.26782 0.0
H2153 H 0.61036 0.55331 0.23818 0.0
C2154 C 0.64837 0.49985 0.25089 0.0
C2155 C 0.6168 0.52611 0.26288 0.0
C2156 C 0.59718 0.53388 0.27984 0.0
C2157 C 0.65215 0.51179 0.22953 0.0
C2158 C 0.63862 0.53154 0.22512 0.0
C2159 C 0.62081 0.53822 0.24165 0.0
C2160 C 0.64377 0.54635 0.20424 0.0
C2161 C 0.67068 0.50323 0.21192 0.0
C2162 C 0.66697 0.55714 0.20151 0.0
C2163 C 0.67118 0.5731 0.18346 0.0
C2164 C 0.65227 0.57863 0.16777 0.0
C2165 C 0.62932 0.56713 0.16991 0.0
C2166 C 0.62506 0.55123 0.18812 0.0
H2167 H 0.67393 0.48491 0.21461 0.0
H2168 H 0.66444 0.50612 0.19358 0.0
H2169 H 0.68858 0.51241 0.21413 0.0
H2170 H 0.68154 0.55394 0.21396 0.0
H2171 H 0.68903 0.58172 0.18236 0.0
H2172 H 0.84899 0.42242 0.54082 0.0
H2173 H 0.81661 0.4168 0.51191 0.0
H2174 H 0.80077 0.35024 0.54082 0.0
H2175 H 0.8333 0.35588 0.57023 0.0
H2176 H 0.81734 0.38232 0.47829 0.0
H2177 H 0.73137 0.3773 0.53328 0.0
H2178 H 0.75991 0.38935 0.54414 0.0
H2179 H 0.75629 0.35932 0.54156 0.0
C2180 C 0.83837 0.40669 0.54137 0.0
C2181 C 0.84375 0.3896 0.55788 0.0
C2182 C 0.81988 0.40349 0.52474 0.0
C2183 C 0.80621 0.38312 0.52414 0.0
C2184 C 0.81084 0.36623 0.54112 0.0
H2185 H 0.68661 0.35951 0.42168 0.0
H2186 H 0.71846 0.35077 0.45074 0.0
C2187 C 0.82941 0.36948 0.55795 0.0
C2188 C 0.78843 0.37948 0.50464 0.0
H2189 H 0.72684 0.37559 0.49219 0.0
C2190 C 0.79757 0.3806 0.48136 0.0
C2191 C 0.76265 0.37691 0.5086 0.0
C2192 C 0.7518 0.37576 0.5332 0.0
C2193 C 0.78164 0.38018 0.462 0.0
C2194 C 0.75579 0.379 0.46594 0.0
C2195 C 0.74666 0.37658 0.48917 0.0
C2196 C 0.73804 0.38285 0.44651 0.0
C2197 C 0.79267 0.38146 0.43746 0.0
C2198 C 0.73864 0.4036 0.43421 0.0
C2199 C 0.72051 0.40863 0.41774 0.0
C2200 C 0.7013 0.39303 0.41311 0.0
C2201 C 0.70131 0.37179 0.4246 0.0
C2202 C 0.7194 0.36684 0.44136 0.0
H2203 H 0.8117 0.37477 0.43708 0.0
H2204 H 0.78117 0.37186 0.42482 0.0
H2205 H 0.7938 0.39938 0.43147 0.0
H2206 H 0.75254 0.41639 0.43812 0.0
H2207 H 0.72095 0.42519 0.40935 0.0
H2208 H 0.92637 0.53691 0.83188 0.0
H2209 H 0.92926 0.51206 0.79787 0.0
H2210 H 0.91859 0.56887 0.75108 0.0
H2211 H 0.91655 0.59393 0.78473 0.0
H2212 H 0.89288 0.50489 0.76278 0.0
H2213 H 0.98088 0.53875 0.7244 0.0
H2214 H 0.9701 0.54632 0.75338 0.0
H2215 H 0.95784 0.55984 0.72751 0.0
C2216 C 0.92501 0.5442 0.81437 0.0
C2217 C 0.92122 0.56748 0.81116 0.0
C2218 C 0.92652 0.52994 0.79494 0.0
C2219 C 0.92451 0.53869 0.77193 0.0
C2220 C 0.92067 0.56185 0.76865 0.0
H2221 H 0.92372 0.48478 0.63032 0.0
H2222 H 0.92406 0.50874 0.66521 0.0
C2223 C 0.91917 0.57611 0.788 0.0
C2224 C 0.92549 0.52357 0.75131 0.0
H2225 H 0.95713 0.51408 0.70007 0.0
C2226 C 0.90703 0.50674 0.74915 0.0
C2227 C 0.94384 0.52616 0.73343 0.0
C2228 C 0.96442 0.54362 0.73489 0.0
C2229 C 0.90607 0.49281 0.72934 0.0
C2230 C 0.92448 0.49536 0.71147 0.0
C2231 C 0.94302 0.5121 0.71373 0.0
C2232 C 0.92484 0.48086 0.6903 0.0
C2233 C 0.88483 0.47602 0.72743 0.0
C2234 C 0.92579 0.45728 0.69273 0.0
C2235 C 0.92549 0.44362 0.67288 0.0
C2236 C 0.92455 0.45325 0.65009 0.0
C2237 C 0.92449 0.4769 0.64762 0.0
C2238 C 0.9246 0.49057 0.66755 0.0
H2239 H 0.8688 0.48079 0.73856 0.0
H2240 H 0.87862 0.47456 0.70893 0.0
H2241 H 0.89089 0.45918 0.7336 0.0
H2242 H 0.92675 0.44943 0.71003 0.0
H2243 H 0.92617 0.42549 0.67538 0.0
H2244 H 0.56365 0.18253 0.67974 0.0
H2245 H 0.53396 0.21179 0.67114 0.0
H2246 H 0.55455 0.21049 0.59759 0.0
H2247 H 0.58463 0.18081 0.60621 0.0
H2248 H 0.54924 0.25485 0.65081 0.0
H2249 H 0.4767 0.21188 0.59783 0.0
H2250 H 0.49683 0.19627 0.617 0.0
H2251 H 0.50865 0.20814 0.58978 0.0
C2252 C 0.5615 0.188 0.66159 0.0
C2253 C 0.57646 0.17912 0.64366 0.0
C2254 C 0.54453 0.20488 0.65671 0.0
C2255 C 0.54189 0.21349 0.63373 0.0
C2256 C 0.55596 0.204 0.61545 0.0
H2257 H 0.43685 0.32379 0.60102 0.0
H2258 H 0.47053 0.29683 0.59524 0.0
C2259 C 0.57306 0.1869 0.62036 0.0
C2260 C 0.52583 0.23351 0.62985 0.0
H2261 H 0.47003 0.24966 0.60804 0.0
C2262 C 0.53208 0.25375 0.64118 0.0
C2263 C 0.50351 0.23233 0.61711 0.0
C2264 C 0.49578 0.21102 0.60475 0.0
C2265 C 0.51635 0.2724 0.64087 0.0
C2266 C 0.49332 0.27081 0.62933 0.0
C2267 C 0.48759 0.25098 0.61695 0.0
C2268 C 0.47403 0.28842 0.63229 0.0
C2269 C 0.52443 0.29359 0.65332 0.0
C2270 C 0.46481 0.29288 0.65494 0.0
C2271 C 0.44577 0.30816 0.65822 0.0
C2272 C 0.4353 0.31961 0.63899 0.0
C2273 C 0.44487 0.31567 0.61626 0.0
C2274 C 0.46392 0.30006 0.61293 0.0
H2275 H 0.5449 0.29503 0.65424 0.0
H2276 H 0.51743 0.30892 0.64434 0.0
H2277 H 0.51703 0.29301 0.67164 0.0
H2278 H 0.47184 0.28394 0.67016 0.0
H2279 H 0.4387 0.31054 0.67593 0.0
loop_
_geom_bond_atom_site_label_1
_geom_bond_atom_site_label_2
_geom_bond_distance
_geom_bond_site_symmetry_2
_ccdc_geom_bond_type
Cu0 N1 1.999 . S
Cu0 O6 1.974 . S
Cu0 N11 1.985 . S
Cu0 O20 1.959 . S
N1 Cu0 1.999 . S
N1 C3 1.263 . S
N1 C5 1.389 . S
N2 C3 1.358 . S
N2 C4 1.400 . S
C3 N1 1.263 . S
C3 N2 1.358 . S
C3 H9 0.930 . S
C4 N2 1.400 . S
C4 C5 1.351 . S
C4 H21 0.930 . S
C5 N1 1.389 . S
C5 C4 1.351 . S
C5 H10 0.930 . S
O6 Cu0 1.974 . S
O6 C16 1.282 . S
C7 O8 1.261 . S
C7 O20 1.251 . S
O8 C7 1.261 . S
H9 C3 0.930 . S
H10 C5 0.930 . S
N11 Cu0 1.985 . S
N11 C13 1.335 . S
N11 C14 1.390 . S
N12 C13 1.345 . S
N12 C15 1.336 . S
C13 N11 1.335 . S
C13 N12 1.345 . S
C13 H18 0.930 . S
C14 N11 1.390 . S
C14 C15 1.346 . S
C14 H19 0.930 . S
C15 N12 1.336 . S
C15 C14 1.346 . S
C15 H22 0.929 . S
C16 O6 1.282 . S
C16 O17 1.216 . S
O17 C16 1.216 . S
H18 C13 0.930 . S
H19 C14 0.930 . S
O20 Cu0 1.959 . S
O20 C7 1.251 . S
H21 C4 0.930 . S
H22 C15 0.929 . S
Cu23 N24 1.999 . S
Cu23 O29 1.974 . S
Cu23 N34 1.985 . S
Cu23 O43 1.959 . S
N24 Cu23 1.999 . S
N24 C26 1.263 . S
N24 C28 1.389 . S
N25 C26 1.358 . S
N25 C27 1.400 . S
C26 N24 1.263 . S
C26 N25 1.358 . S
C26 H32 0.930 . S
C27 N25 1.400 . S
C27 C28 1.351 . S
C27 H44 0.930 . S
C28 N24 1.389 . S
C28 C27 1.351 . S
C28 H33 0.930 . S
O29 Cu23 1.974 . S
O29 C39 1.282 . S
C30 O31 1.261 . S
C30 O43 1.251 . S
O31 C30 1.261 . S
H32 C26 0.930 . S
H33 C28 0.930 . S
N34 Cu23 1.985 . S
N34 C36 1.335 . S
N34 C37 1.390 . S
N35 C36 1.345 . S
N35 C38 1.336 . S
C36 N34 1.335 . S
C36 N35 1.345 . S
C36 H41 0.930 . S
C37 N34 1.390 . S
C37 C38 1.346 . S
C37 H42 0.930 . S
C38 N35 1.336 . S
C38 C37 1.346 . S
C38 H45 0.929 . S
C39 O29 1.282 . S
C39 O40 1.216 . S
O40 C39 1.216 . S
H41 C36 0.930 . S
H42 C37 0.930 . S
O43 Cu23 1.959 . S
O43 C30 1.251 . S
H44 C27 0.930 . S
H45 C38 0.929 . S
Cu46 N47 1.999 . S
Cu46 O52 1.974 . S
Cu46 N57 1.985 . S
Cu46 O66 1.959 . S
N47 Cu46 1.999 . S
N47 C49 1.263 . S
N47 C51 1.389 . S
N48 C49 1.358 . S
N48 C50 1.400 . S
C49 N47 1.263 . S
C49 N48 1.358 . S
C49 H55 0.930 . S
C50 N48 1.400 . S
C50 C51 1.351 . S
C50 H67 0.930 . S
C51 N47 1.389 . S
C51 C50 1.351 . S
C51 H56 0.930 . S
O52 Cu46 1.974 . S
O52 C62 1.282 . S
C53 O54 1.261 . S
C53 O66 1.251 . S
O54 C53 1.261 . S
H55 C49 0.930 . S
H56 C51 0.930 . S
N57 Cu46 1.985 . S
N57 C59 1.335 . S
N57 C60 1.390 . S
N58 C59 1.345 . S
N58 C61 1.336 . S
C59 N57 1.335 . S
C59 N58 1.345 . S
C59 H64 0.930 . S
C60 N57 1.390 . S
C60 C61 1.346 . S
C60 H65 0.930 . S
C61 N58 1.336 . S
C61 C60 1.346 . S
C61 H68 0.929 . S
C62 O52 1.282 . S
C62 O63 1.216 . S
O63 C62 1.216 . S
H64 C59 0.930 . S
H65 C60 0.930 . S
O66 Cu46 1.959 . S
O66 C53 1.251 . S
H67 C50 0.930 . S
H68 C61 0.929 . S
Cu69 N70 1.999 . S
Cu69 O75 1.974 . S
Cu69 N80 1.985 . S
Cu69 O89 1.959 . S
N70 Cu69 1.999 . S
N70 C72 1.263 . S
N70 C74 1.389 . S
N71 C72 1.358 . S
N71 C73 1.400 . S
C72 N70 1.263 . S
C72 N71 1.358 . S
C72 H78 0.930 . S
C73 N71 1.400 . S
C73 C74 1.351 . S
C73 H90 0.930 . S
C74 N70 1.389 . S
C74 C73 1.351 . S
C74 H79 0.930 . S
O75 Cu69 1.974 . S
O75 C85 1.282 . S
C76 O77 1.261 . S
C76 O89 1.251 . S
O77 C76 1.261 . S
H78 C72 0.930 . S
H79 C74 0.930 . S
N80 Cu69 1.985 . S
N80 C82 1.335 . S
N80 C83 1.390 . S
N81 C82 1.345 . S
N81 C84 1.336 . S
C82 N80 1.335 . S
C82 N81 1.345 . S
C82 H87 0.930 . S
C83 N80 1.390 . S
C83 C84 1.346 . S
C83 H88 0.930 . S
C84 N81 1.336 . S
C84 C83 1.346 . S
C84 H91 0.929 . S
C85 O75 1.282 . S
C85 O86 1.216 . S
O86 C85 1.216 . S
H87 C82 0.930 . S
H88 C83 0.930 . S
O89 Cu69 1.959 . S
O89 C76 1.251 . S
H90 C73 0.930 . S
H91 C84 0.929 . S
Cu92 N93 1.999 . S
Cu92 O98 1.974 . S
Cu92 N103 1.985 . S
Cu92 O112 1.959 . S
N93 Cu92 1.999 . S
N93 C95 1.263 . S
N93 C97 1.389 . S
N94 C95 1.358 . S
N94 C96 1.400 . S
C95 N93 1.263 . S
C95 N94 1.358 . S
C95 H101 0.930 . S
C96 N94 1.400 . S
C96 C97 1.351 . S
C96 H113 0.930 . S
C97 N93 1.389 . S
C97 C96 1.351 . S
C97 H102 0.930 . S
O98 Cu92 1.974 . S
O98 C108 1.282 . S
C99 O100 1.261 . S
C99 O112 1.251 . S
O100 C99 1.261 . S
H101 C95 0.930 . S
H102 C97 0.930 . S
N103 Cu92 1.985 . S
N103 C105 1.335 . S
N103 C106 1.390 . S
N104 C105 1.345 . S
N104 C107 1.336 . S
C105 N103 1.335 . S
C105 N104 1.345 . S
C105 H110 0.930 . S
C106 N103 1.390 . S
C106 C107 1.346 . S
C106 H111 0.930 . S
C107 N104 1.336 . S
C107 C106 1.346 . S
C107 H114 0.929 . S
C108 O98 1.282 . S
C108 O109 1.216 . S
O109 C108 1.216 . S
H110 C105 0.930 . S
H111 C106 0.930 . S
O112 Cu92 1.959 . S
O112 C99 1.251 . S
H113 C96 0.930 . S
H114 C107 0.929 . S
Cu115 N116 1.999 . S
Cu115 O121 1.974 . S
Cu115 N126 1.985 . S
Cu115 O135 1.959 . S
N116 Cu115 1.999 . S
N116 C118 1.263 . S
N116 C120 1.389 . S
N117 C118 1.358 . S
N117 C119 1.400 . S
C118 N116 1.263 . S
C118 N117 1.358 . S
C118 H124 0.930 . S
C119 N117 1.400 . S
C119 C120 1.351 . S
C119 H136 0.930 . S
C120 N116 1.389 . S
C120 C119 1.351 . S
C120 H125 0.930 . S
O121 Cu115 1.974 . S
O121 C131 1.282 . S
C122 O123 1.261 . S
C122 O135 1.251 . S
O123 C122 1.261 . S
H124 C118 0.930 . S
H125 C120 0.930 . S
N126 Cu115 1.985 . S
N126 C128 1.335 . S
N126 C129 1.390 . S
N127 C128 1.345 . S
N127 C130 1.336 . S
C128 N126 1.335 . S
C128 N127 1.345 . S
C128 H133 0.930 . S
C129 N126 1.390 . S
C129 C130 1.346 . S
C129 H134 0.930 . S
C130 N127 1.336 . S
C130 C129 1.346 . S
C130 H137 0.929 . S
C131 O121 1.282 . S
C131 O132 1.216 . S
O132 C131 1.216 . S
H133 C128 0.930 . S
H134 C129 0.930 . S
O135 Cu115 1.959 . S
O135 C122 1.251 . S
H136 C119 0.930 . S
H137 C130 0.929 . S
Cu138 N139 1.999 . S
Cu138 O144 1.974 . S
Cu138 N149 1.985 . S
Cu138 O158 1.959 . S
N139 Cu138 1.999 . S
N139 C141 1.263 . S
N139 C143 1.389 . S
N140 C141 1.358 . S
N140 C142 1.400 . S
C141 N139 1.263 . S
C141 N140 1.358 . S
C141 H147 0.930 . S
C142 N140 1.400 . S
C142 C143 1.351 . S
C142 H159 0.930 . S
C143 N139 1.389 . S
C143 C142 1.351 . S
C143 H148 0.930 . S
O144 Cu138 1.974 . S
O144 C154 1.282 . S
C145 O146 1.261 . S
C145 O158 1.251 . S
O146 C145 1.261 . S
H147 C141 0.930 . S
H148 C143 0.930 . S
N149 Cu138 1.985 . S
N149 C151 1.335 . S
N149 C152 1.390 . S
N150 C151 1.345 . S
N150 C153 1.336 . S
C151 N149 1.335 . S
C151 N150 1.345 . S
C151 H156 0.930 . S
C152 N149 1.390 . S
C152 C153 1.346 . S
C152 H157 0.930 . S
C153 N150 1.336 . S
C153 C152 1.346 . S
C153 H160 0.929 . S
C154 O144 1.282 . S
C154 O155 1.216 . S
O155 C154 1.216 . S
H156 C151 0.930 . S
H157 C152 0.930 . S
O158 Cu138 1.959 . S
O158 C145 1.251 . S
H159 C142 0.930 . S
H160 C153 0.929 . S
Cu161 N162 1.999 . S
Cu161 O167 1.974 . S
Cu161 N172 1.985 . S
Cu161 O181 1.959 . S
N162 Cu161 1.999 . S
N162 C164 1.263 . S
N162 C166 1.389 . S
N163 C164 1.358 . S
N163 C165 1.400 . S
C164 N162 1.263 . S
C164 N163 1.358 . S
C164 H170 0.930 . S
C165 N163 1.400 . S
C165 C166 1.351 . S
C165 H182 0.930 . S
C166 N162 1.389 . S
C166 C165 1.351 . S
C166 H171 0.930 . S
O167 Cu161 1.974 . S
O167 C177 1.282 . S
C168 O169 1.261 . S
C168 O181 1.251 . S
O169 C168 1.261 . S
H170 C164 0.930 . S
H171 C166 0.930 . S
N172 Cu161 1.985 . S
N172 C174 1.335 . S
N172 C175 1.390 . S
N173 C174 1.345 . S
N173 C176 1.336 . S
C174 N172 1.335 . S
C174 N173 1.345 . S
C174 H179 0.930 . S
C175 N172 1.390 . S
C175 C176 1.346 . S
C175 H180 0.930 . S
C176 N173 1.336 . S
C176 C175 1.346 . S
C176 H183 0.929 . S
C177 O167 1.282 . S
C177 O178 1.216 . S
O178 C177 1.216 . S
H179 C174 0.930 . S
H180 C175 0.930 . S
O181 Cu161 1.959 . S
O181 C168 1.251 . S
H182 C165 0.930 . S
H183 C176 0.929 . S
Cu184 N185 1.999 . S
Cu184 O190 1.974 . S
Cu184 N195 1.985 . S
Cu184 O204 1.959 . S
N185 Cu184 1.999 . S
N185 C187 1.263 . S
N185 C189 1.389 . S
N186 C187 1.358 . S
N186 C188 1.400 . S
C187 N185 1.263 . S
C187 N186 1.358 . S
C187 H193 0.930 . S
C188 N186 1.400 . S
C188 C189 1.351 . S
C188 H205 0.930 . S
C189 N185 1.389 . S
C189 C188 1.351 . S
C189 H194 0.930 . S
O190 Cu184 1.974 . S
O190 C200 1.282 . S
C191 O192 1.261 . S
C191 O204 1.251 . S
O192 C191 1.261 . S
H193 C187 0.930 . S
H194 C189 0.930 . S
N195 Cu184 1.985 . S
N195 C197 1.335 . S
N195 C198 1.390 . S
N196 C197 1.345 . S
N196 C199 1.336 . S
C197 N195 1.335 . S
C197 N196 1.345 . S
C197 H202 0.930 . S
C198 N195 1.390 . S
C198 C199 1.346 . S
C198 H203 0.930 . S
C199 N196 1.336 . S
C199 C198 1.346 . S
C199 H206 0.929 . S
C200 O190 1.282 . S
C200 O201 1.216 . S
O201 C200 1.216 . S
H202 C197 0.930 . S
H203 C198 0.930 . S
O204 Cu184 1.959 . S
O204 C191 1.251 . S
H205 C188 0.930 . S
H206 C199 0.929 . S
Cu207 N208 1.999 . S
Cu207 O213 1.974 . S
Cu207 N218 1.985 . S
Cu207 O227 1.959 . S
N208 Cu207 1.999 . S
N208 C210 1.263 . S
N208 C212 1.389 . S
N209 C210 1.358 . S
N209 C211 1.400 . S
C210 N208 1.263 . S
C210 N209 1.358 . S
C210 H216 0.930 . S
C211 N209 1.400 . S
C211 C212 1.351 . S
C211 H228 0.930 . S
C212 N208 1.389 . S
C212 C211 1.351 . S
C212 H217 0.930 . S
O213 Cu207 1.974 . S
O213 C223 1.282 . S
C214 O215 1.261 . S
C214 O227 1.251 . S
O215 C214 1.261 . S
H216 C210 0.930 . S
H217 C212 0.930 . S
N218 Cu207 1.985 . S
N218 C220 1.335 . S
N218 C221 1.390 . S
N219 C220 1.345 . S
N219 C222 1.336 . S
C220 N218 1.335 . S
C220 N219 1.345 . S
C220 H225 0.930 . S
C221 N218 1.390 . S
C221 C222 1.346 . S
C221 H226 0.930 . S
C222 N219 1.336 . S
C222 C221 1.346 . S
C222 H229 0.929 . S
C223 O213 1.282 . S
C223 O224 1.216 . S
O224 C223 1.216 . S
H225 C220 0.930 . S
H226 C221 0.930 . S
O227 Cu207 1.959 . S
O227 C214 1.251 . S
H228 C211 0.930 . S
H229 C222 0.929 . S
Cu230 N231 1.999 . S
Cu230 O236 1.974 . S
Cu230 N241 1.985 . S
Cu230 O250 1.959 . S
N231 Cu230 1.999 . S
N231 C233 1.263 . S
N231 C235 1.389 . S
N232 C233 1.358 . S
N232 C234 1.400 . S
C233 N231 1.263 . S
C233 N232 1.358 . S
C233 H239 0.930 . S
C234 N232 1.400 . S
C234 C235 1.351 . S
C234 H251 0.930 . S
C235 N231 1.389 . S
C235 C234 1.351 . S
C235 H240 0.930 . S
O236 Cu230 1.974 . S
O236 C246 1.282 . S
C237 O238 1.261 . S
C237 O250 1.251 . S
O238 C237 1.261 . S
H239 C233 0.930 . S
H240 C235 0.930 . S
N241 Cu230 1.985 . S
N241 C243 1.335 . S
N241 C244 1.390 . S
N242 C243 1.345 . S
N242 C245 1.336 . S
C243 N241 1.335 . S
C243 N242 1.345 . S
C243 H248 0.930 . S
C244 N241 1.390 . S
C244 C245 1.346 . S
C244 H249 0.930 . S
C245 N242 1.336 . S
C245 C244 1.346 . S
C245 H252 0.929 . S
C246 O236 1.282 . S
C246 O247 1.216 . S
O247 C246 1.216 . S
H248 C243 0.930 . S
H249 C244 0.930 . S
O250 Cu230 1.959 . S
O250 C237 1.251 . S
H251 C234 0.930 . S
H252 C245 0.929 . S
Cu253 N254 1.999 . S
Cu253 O259 1.974 . S
Cu253 N264 1.985 . S
Cu253 O273 1.959 . S
N254 Cu253 1.999 . S
N254 C256 1.263 . S
N254 C258 1.389 . S
N255 C256 1.358 . S
N255 C257 1.400 . S
C256 N254 1.263 . S
C256 N255 1.358 . S
C256 H262 0.930 . S
C257 N255 1.400 . S
C257 C258 1.351 . S
C257 H274 0.930 . S
C258 N254 1.389 . S
C258 C257 1.351 . S
C258 H263 0.930 . S
O259 Cu253 1.974 . S
O259 C269 1.282 . S
C260 O261 1.261 . S
C260 O273 1.251 . S
O261 C260 1.261 . S
H262 C256 0.930 . S
H263 C258 0.930 . S
N264 Cu253 1.985 . S
N264 C266 1.335 . S
N264 C267 1.390 . S
N265 C266 1.345 . S
N265 C268 1.336 . S
C266 N264 1.335 . S
C266 N265 1.345 . S
C266 H271 0.930 . S
C267 N264 1.390 . S
C267 C268 1.346 . S
C267 H272 0.930 . S
C268 N265 1.336 . S
C268 C267 1.346 . S
C268 H275 0.929 . S
C269 O259 1.282 . S
C269 O270 1.216 . S
O270 C269 1.216 . S
H271 C266 0.930 . S
H272 C267 0.930 . S
O273 Cu253 1.959 . S
O273 C260 1.251 . S
H274 C257 0.930 . S
H275 C268 0.929 . S
Cu276 N277 1.999 . S
Cu276 O282 1.974 . S
Cu276 N287 1.985 . S
Cu276 O296 1.959 . S
N277 Cu276 1.999 . S
N277 C279 1.263 . S
N277 C281 1.389 . S
N278 C279 1.358 . S
N278 C280 1.400 . S
C279 N277 1.263 . S
C279 N278 1.358 . S
C279 H285 0.930 . S
C280 N278 1.400 . S
C280 C281 1.351 . S
C280 H297 0.930 . S
C281 N277 1.389 . S
C281 C280 1.351 . S
C281 H286 0.930 . S
O282 Cu276 1.974 . S
O282 C292 1.282 . S
C283 O284 1.261 . S
C283 O296 1.251 . S
O284 C283 1.261 . S
H285 C279 0.930 . S
H286 C281 0.930 . S
N287 Cu276 1.985 . S
N287 C289 1.335 . S
N287 C290 1.390 . S
N288 C289 1.345 . S
N288 C291 1.336 . S
C289 N287 1.335 . S
C289 N288 1.345 . S
C289 H294 0.930 . S
C290 N287 1.390 . S
C290 C291 1.346 . S
C290 H295 0.930 . S
C291 N288 1.336 . S
C291 C290 1.346 . S
C291 H298 0.929 . S
C292 O282 1.282 . S
C292 O293 1.216 . S
O293 C292 1.216 . S
H294 C289 0.930 . S
H295 C290 0.930 . S
O296 Cu276 1.959 . S
O296 C283 1.251 . S
H297 C280 0.930 . S
H298 C291 0.929 . S
Cu299 N300 1.999 . S
Cu299 O305 1.974 . S
Cu299 N310 1.985 . S
Cu299 O319 1.959 . S
N300 Cu299 1.999 . S
N300 C302 1.263 . S
N300 C304 1.389 . S
N301 C302 1.358 . S
N301 C303 1.400 . S
C302 N300 1.263 . S
C302 N301 1.358 . S
C302 H308 0.930 . S
C303 N301 1.400 . S
C303 C304 1.351 . S
C303 H320 0.930 . S
C304 N300 1.389 . S
C304 C303 1.351 . S
C304 H309 0.930 . S
O305 Cu299 1.974 . S
O305 C315 1.282 . S
C306 O307 1.261 . S
C306 O319 1.251 . S
O307 C306 1.261 . S
H308 C302 0.930 . S
H309 C304 0.930 . S
N310 Cu299 1.985 . S
N310 C312 1.335 . S
N310 C313 1.390 . S
N311 C312 1.345 . S
N311 C314 1.336 . S
C312 N310 1.335 . S
C312 N311 1.345 . S
C312 H317 0.930 . S
C313 N310 1.390 . S
C313 C314 1.346 . S
C313 H318 0.930 . S
C314 N311 1.336 . S
C314 C313 1.346 . S
C314 H321 0.929 . S
C315 O305 1.282 . S
C315 O316 1.216 . S
O316 C315 1.216 . S
H317 C312 0.930 . S
H318 C313 0.930 . S
O319 Cu299 1.959 . S
O319 C306 1.251 . S
H320 C303 0.930 . S
H321 C314 0.929 . S
Cu322 N323 1.999 . S
Cu322 O328 1.974 . S
Cu322 N333 1.985 . S
Cu322 O342 1.959 . S
N323 Cu322 1.999 . S
N323 C325 1.263 . S
N323 C327 1.389 . S
N324 C325 1.358 . S
N324 C326 1.400 . S
C325 N323 1.263 . S
C325 N324 1.358 . S
C325 H331 0.930 . S
C326 N324 1.400 . S
C326 C327 1.351 . S
C326 H343 0.930 . S
C327 N323 1.389 . S
C327 C326 1.351 . S
C327 H332 0.930 . S
O328 Cu322 1.974 . S
O328 C338 1.282 . S
C329 O330 1.261 . S
C329 O342 1.251 . S
O330 C329 1.261 . S
H331 C325 0.930 . S
H332 C327 0.930 . S
N333 Cu322 1.985 . S
N333 C335 1.335 . S
N333 C336 1.390 . S
N334 C335 1.345 . S
N334 C337 1.336 . S
C335 N333 1.335 . S
C335 N334 1.345 . S
C335 H340 0.930 . S
C336 N333 1.390 . S
C336 C337 1.346 . S
C336 H341 0.930 . S
C337 N334 1.336 . S
C337 C336 1.346 . S
C337 H344 0.929 . S
C338 O328 1.282 . S
C338 O339 1.216 . S
O339 C338 1.216 . S
H340 C335 0.930 . S
H341 C336 0.930 . S
O342 Cu322 1.959 . S
O342 C329 1.251 . S
H343 C326 0.930 . S
H344 C337 0.929 . S
Cu345 N346 1.999 . S
Cu345 O351 1.974 . S
Cu345 N356 1.985 . S
Cu345 O365 1.959 . S
N346 Cu345 1.999 . S
N346 C348 1.263 . S
N346 C350 1.389 . S
N347 C348 1.358 . S
N347 C349 1.400 . S
C348 N346 1.263 . S
C348 N347 1.358 . S
C348 H354 0.930 . S
C349 N347 1.400 . S
C349 C350 1.351 . S
C349 H366 0.930 . S
C350 N346 1.389 . S
C350 C349 1.351 . S
C350 H355 0.930 . S
O351 Cu345 1.974 . S
O351 C361 1.282 . S
C352 O353 1.261 . S
C352 O365 1.251 . S
O353 C352 1.261 . S
H354 C348 0.930 . S
H355 C350 0.930 . S
N356 Cu345 1.985 . S
N356 C358 1.335 . S
N356 C359 1.390 . S
N357 C358 1.345 . S
N357 C360 1.336 . S
C358 N356 1.335 . S
C358 N357 1.345 . S
C358 H363 0.930 . S
C359 N356 1.390 . S
C359 C360 1.346 . S
C359 H364 0.930 . S
C360 N357 1.336 . S
C360 C359 1.346 . S
C360 H367 0.929 . S
C361 O351 1.282 . S
C361 O362 1.216 . S
O362 C361 1.216 . S
H363 C358 0.930 . S
H364 C359 0.930 . S
O365 Cu345 1.959 . S
O365 C352 1.251 . S
H366 C349 0.930 . S
H367 C360 0.929 . S
Cu368 N369 1.999 . S
Cu368 O374 1.974 . S
Cu368 N379 1.985 . S
Cu368 O388 1.959 . S
N369 Cu368 1.999 . S
N369 C371 1.263 . S
N369 C373 1.389 . S
N370 C371 1.358 . S
N370 C372 1.400 . S
C371 N369 1.263 . S
C371 N370 1.358 . S
C371 H377 0.930 . S
C372 N370 1.400 . S
C372 C373 1.351 . S
C372 H389 0.930 . S
C373 N369 1.389 . S
C373 C372 1.351 . S
C373 H378 0.930 . S
O374 Cu368 1.974 . S
O374 C384 1.282 . S
C375 O376 1.261 . S
C375 O388 1.251 . S
O376 C375 1.261 . S
H377 C371 0.930 . S
H378 C373 0.930 . S
N379 Cu368 1.985 . S
N379 C381 1.335 . S
N379 C382 1.390 . S
N380 C381 1.345 . S
N380 C383 1.336 . S
C381 N379 1.335 . S
C381 N380 1.345 . S
C381 H386 0.930 . S
C382 N379 1.390 . S
C382 C383 1.346 . S
C382 H387 0.930 . S
C383 N380 1.336 . S
C383 C382 1.346 . S
C383 H390 0.929 . S
C384 O374 1.282 . S
C384 O385 1.216 . S
O385 C384 1.216 . S
H386 C381 0.930 . S
H387 C382 0.930 . S
O388 Cu368 1.959 . S
O388 C375 1.251 . S
H389 C372 0.930 . S
H390 C383 0.929 . S
Cu391 N392 1.999 . S
Cu391 O397 1.974 . S
Cu391 N402 1.985 . S
Cu391 O411 1.959 . S
N392 Cu391 1.999 . S
N392 C394 1.263 . S
N392 C396 1.389 . S
N393 C394 1.358 . S
N393 C395 1.400 . S
C394 N392 1.263 . S
C394 N393 1.358 . S
C394 H400 0.930 . S
C395 N393 1.400 . S
C395 C396 1.351 . S
C395 H412 0.930 . S
C396 N392 1.389 . S
C396 C395 1.351 . S
C396 H401 0.930 . S
O397 Cu391 1.974 . S
O397 C407 1.282 . S
C398 O399 1.261 . S
C398 O411 1.251 . S
O399 C398 1.261 . S
H400 C394 0.930 . S
H401 C396 0.930 . S
N402 Cu391 1.985 . S
N402 C404 1.335 . S
N402 C405 1.390 . S
N403 C404 1.345 . S
N403 C406 1.336 . S
C404 N402 1.335 . S
C404 N403 1.345 . S
C404 H409 0.930 . S
C405 N402 1.390 . S
C405 C406 1.346 . S
C405 H410 0.930 . S
C406 N403 1.336 . S
C406 C405 1.346 . S
C406 H413 0.929 . S
C407 O397 1.282 . S
C407 O408 1.216 . S
O408 C407 1.216 . S
H409 C404 0.930 . S
H410 C405 0.930 . S
O411 Cu391 1.959 . S
O411 C398 1.251 . S
H412 C395 0.930 . S
H413 C406 0.929 . S
Cu414 N415 1.999 . S
Cu414 O420 1.974 . S
Cu414 N425 1.985 . S
Cu414 O434 1.959 . S
N415 Cu414 1.999 . S
N415 C417 1.263 . S
N415 C419 1.389 . S
N416 C417 1.358 . S
N416 C418 1.400 . S
C417 N415 1.263 . S
C417 N416 1.358 . S
C417 H423 0.930 . S
C418 N416 1.400 . S
C418 C419 1.351 . S
C418 H435 0.930 . S
C419 N415 1.389 . S
C419 C418 1.351 . S
C419 H424 0.930 . S
O420 Cu414 1.974 . S
O420 C430 1.282 . S
C421 O422 1.261 . S
C421 O434 1.251 . S
O422 C421 1.261 . S
H423 C417 0.930 . S
H424 C419 0.930 . S
N425 Cu414 1.985 . S
N425 C427 1.335 . S
N425 C428 1.390 . S
N426 C427 1.345 . S
N426 C429 1.336 . S
C427 N425 1.335 . S
C427 N426 1.345 . S
C427 H432 0.930 . S
C428 N425 1.390 . S
C428 C429 1.346 . S
C428 H433 0.930 . S
C429 N426 1.336 . S
C429 C428 1.346 . S
C429 H436 0.929 . S
C430 O420 1.282 . S
C430 O431 1.216 . S
O431 C430 1.216 . S
H432 C427 0.930 . S
H433 C428 0.930 . S
O434 Cu414 1.959 . S
O434 C421 1.251 . S
H435 C418 0.930 . S
H436 C429 0.929 . S
Cu437 N438 1.999 . S
Cu437 O443 1.974 . S
Cu437 N448 1.985 . S
Cu437 O457 1.959 . S
N438 Cu437 1.999 . S
N438 C440 1.263 . S
N438 C442 1.389 . S
N439 C440 1.358 . S
N439 C441 1.400 . S
C440 N438 1.263 . S
C440 N439 1.358 . S
C440 H446 0.930 . S
C441 N439 1.400 . S
C441 C442 1.351 . S
C441 H458 0.930 . S
C442 N438 1.389 . S
C442 C441 1.351 . S
C442 H447 0.930 . S
O443 Cu437 1.974 . S
O443 C453 1.282 . S
C444 O445 1.261 . S
C444 O457 1.251 . S
O445 C444 1.261 . S
H446 C440 0.930 . S
H447 C442 0.930 . S
N448 Cu437 1.985 . S
N448 C450 1.335 . S
N448 C451 1.390 . S
N449 C450 1.345 . S
N449 C452 1.336 . S
C450 N448 1.335 . S
C450 N449 1.345 . S
C450 H455 0.930 . S
C451 N448 1.390 . S
C451 C452 1.346 . S
C451 H456 0.930 . S
C452 N449 1.336 . S
C452 C451 1.346 . S
C452 H459 0.929 . S
C453 O443 1.282 . S
C453 O454 1.216 . S
O454 C453 1.216 . S
H455 C450 0.930 . S
H456 C451 0.930 . S
O457 Cu437 1.959 . S
O457 C444 1.251 . S
H458 C441 0.930 . S
H459 C452 0.929 . S
Cu460 N461 1.999 . S
Cu460 O466 1.974 . S
Cu460 N471 1.985 . S
Cu460 O480 1.959 . S
N461 Cu460 1.999 . S
N461 C463 1.263 . S
N461 C465 1.389 . S
N462 C463 1.358 . S
N462 C464 1.400 . S
C463 N461 1.263 . S
C463 N462 1.358 . S
C463 H469 0.930 . S
C464 N462 1.400 . S
C464 C465 1.351 . S
C464 H481 0.930 . S
C465 N461 1.389 . S
C465 C464 1.351 . S
C465 H470 0.930 . S
O466 Cu460 1.974 . S
O466 C476 1.282 . S
C467 O468 1.261 . S
C467 O480 1.251 . S
O468 C467 1.261 . S
H469 C463 0.930 . S
H470 C465 0.930 . S
N471 Cu460 1.985 . S
N471 C473 1.335 . S
N471 C474 1.390 . S
N472 C473 1.345 . S
N472 C475 1.336 . S
C473 N471 1.335 . S
C473 N472 1.345 . S
C473 H478 0.930 . S
C474 N471 1.390 . S
C474 C475 1.346 . S
C474 H479 0.930 . S
C475 N472 1.336 . S
C475 C474 1.346 . S
C475 H482 0.929 . S
C476 O466 1.282 . S
C476 O477 1.216 . S
O477 C476 1.216 . S
H478 C473 0.930 . S
H479 C474 0.930 . S
O480 Cu460 1.959 . S
O480 C467 1.251 . S
H481 C464 0.930 . S
H482 C475 0.929 . S
Cu483 N484 1.999 . S
Cu483 O489 1.974 . S
Cu483 N494 1.985 . S
Cu483 O503 1.959 . S
N484 Cu483 1.999 . S
N484 C486 1.263 . S
N484 C488 1.389 . S
N485 C486 1.358 . S
N485 C487 1.400 . S
C486 N484 1.263 . S
C486 N485 1.358 . S
C486 H492 0.930 . S
C487 N485 1.400 . S
C487 C488 1.351 . S
C487 H504 0.930 . S
C488 N484 1.389 . S
C488 C487 1.351 . S
C488 H493 0.930 . S
O489 Cu483 1.974 . S
O489 C499 1.282 . S
C490 O491 1.261 . S
C490 O503 1.251 . S
O491 C490 1.261 . S
H492 C486 0.930 . S
H493 C488 0.930 . S
N494 Cu483 1.985 . S
N494 C496 1.335 . S
N494 C497 1.390 . S
N495 C496 1.345 . S
N495 C498 1.336 . S
C496 N494 1.335 . S
C496 N495 1.345 . S
C496 H501 0.930 . S
C497 N494 1.390 . S
C497 C498 1.346 . S
C497 H502 0.930 . S
C498 N495 1.336 . S
C498 C497 1.346 . S
C498 H505 0.929 . S
C499 O489 1.282 . S
C499 O500 1.216 . S
O500 C499 1.216 . S
H501 C496 0.930 . S
H502 C497 0.930 . S
O503 Cu483 1.959 . S
O503 C490 1.251 . S
H504 C487 0.930 . S
H505 C498 0.929 . S
Cu506 N507 1.999 . S
Cu506 O512 1.974 . S
Cu506 N517 1.985 . S
Cu506 O526 1.959 . S
N507 Cu506 1.999 . S
N507 C509 1.263 . S
N507 C511 1.389 . S
N508 C509 1.358 . S
N508 C510 1.400 . S
C509 N507 1.263 . S
C509 N508 1.358 . S
C509 H515 0.930 . S
C510 N508 1.400 . S
C510 C511 1.351 . S
C510 H527 0.930 . S
C511 N507 1.389 . S
C511 C510 1.351 . S
C511 H516 0.930 . S
O512 Cu506 1.974 . S
O512 C522 1.282 . S
C513 O514 1.261 . S
C513 O526 1.251 . S
O514 C513 1.261 . S
H515 C509 0.930 . S
H516 C511 0.930 . S
N517 Cu506 1.985 . S
N517 C519 1.335 . S
N517 C520 1.390 . S
N518 C519 1.345 . S
N518 C521 1.336 . S
C519 N517 1.335 . S
C519 N518 1.345 . S
C519 H524 0.930 . S
C520 N517 1.390 . S
C520 C521 1.346 . S
C520 H525 0.930 . S
C521 N518 1.336 . S
C521 C520 1.346 . S
C521 H528 0.929 . S
C522 O512 1.282 . S
C522 O523 1.216 . S
O523 C522 1.216 . S
H524 C519 0.930 . S
H525 C520 0.930 . S
O526 Cu506 1.959 . S
O526 C513 1.251 . S
H527 C510 0.930 . S
H528 C521 0.929 . S
Cu529 N530 1.999 . S
Cu529 O535 1.974 . S
Cu529 N540 1.985 . S
Cu529 O549 1.959 . S
N530 Cu529 1.999 . S
N530 C532 1.263 . S
N530 C534 1.389 . S
N531 C532 1.358 . S
N531 C533 1.400 . S
C532 N530 1.263 . S
C532 N531 1.358 . S
C532 H538 0.930 . S
C533 N531 1.400 . S
C533 C534 1.351 . S
C533 H550 0.930 . S
C534 N530 1.389 . S
C534 C533 1.351 . S
C534 H539 0.930 . S
O535 Cu529 1.974 . S
O535 C545 1.282 . S
C536 O537 1.261 . S
C536 O549 1.251 . S
O537 C536 1.261 . S
H538 C532 0.930 . S
H539 C534 0.930 . S
N540 Cu529 1.985 . S
N540 C542 1.335 . S
N540 C543 1.390 . S
N541 C542 1.345 . S
N541 C544 1.336 . S
C542 N540 1.335 . S
C542 N541 1.345 . S
C542 H547 0.930 . S
C543 N540 1.390 . S
C543 C544 1.346 . S
C543 H548 0.930 . S
C544 N541 1.336 . S
C544 C543 1.346 . S
C544 H551 0.929 . S
C545 O535 1.282 . S
C545 O546 1.216 . S
O546 C545 1.216 . S
H547 C542 0.930 . S
H548 C543 0.930 . S
O549 Cu529 1.959 . S
O549 C536 1.251 . S
H550 C533 0.930 . S
H551 C544 0.929 . S
H552 C560 0.929 . S
H553 C562 0.930 . S
H554 C564 0.930 . S
H555 C567 0.929 . S
H556 C570 0.930 . S
H557 C572 0.960 . S
H558 C572 0.960 . S
H559 C572 0.960 . S
C560 H552 0.929 . S
C560 C561 1.377 . S
C560 C562 1.384 . S
C561 C560 1.377 . S
C561 C567 1.390 . S
C562 H553 0.930 . S
C562 C560 1.384 . S
C562 C563 1.372 . S
C563 C562 1.372 . S
C563 C564 1.400 . S
C563 C568 1.490 . S
C564 H554 0.930 . S
C564 C563 1.400 . S
C564 C567 1.386 . S
H565 C581 0.930 . S
H566 C582 0.931 . S
C567 H555 0.929 . S
C567 C561 1.390 . S
C567 C564 1.386 . S
C568 C563 1.490 . S
C568 C570 1.395 . S
C568 C571 1.403 . S
H569 C575 0.930 . S
C570 H556 0.930 . S
C570 C568 1.395 . S
C570 C573 1.403 . S
C571 C568 1.403 . S
C571 C572 1.524 . S
C571 C575 1.400 . S
C572 H557 0.960 . S
C572 H558 0.960 . S
C572 H559 0.960 . S
C572 C571 1.524 . S
C573 C570 1.403 . S
C573 C574 1.392 . S
C573 C577 1.495 . S
C574 C573 1.392 . S
C574 C575 1.385 . S
C574 C576 1.478 . S
C575 H569 0.930 . S
C575 C571 1.400 . S
C575 C574 1.385 . S
C576 C574 1.478 . S
C576 C578 1.381 . S
C576 C582 1.383 . S
C577 C573 1.495 . S
C577 H583 0.959 . S
C577 H584 0.961 . S
C577 H585 0.960 . S
C578 C576 1.381 . S
C578 C579 1.394 . S
C578 H586 0.930 . S
C579 C578 1.394 . S
C579 C580 1.383 . S
C579 H587 0.929 . S
C580 C579 1.383 . S
C580 C581 1.377 . S
C581 H565 0.930 . S
C581 C580 1.377 . S
C581 C582 1.379 . S
C582 H566 0.931 . S
C582 C576 1.383 . S
C582 C581 1.379 . S
H583 C577 0.959 . S
H584 C577 0.961 . S
H585 C577 0.960 . S
H586 C578 0.930 . S
H587 C579 0.929 . S
H588 C596 0.929 . S
H589 C598 0.930 . S
H590 C600 0.930 . S
H591 C603 0.929 . S
H592 C606 0.930 . S
H593 C608 0.960 . S
H594 C608 0.960 . S
H595 C608 0.960 . S
C596 H588 0.929 . S
C596 C597 1.377 . S
C596 C598 1.384 . S
C597 C596 1.377 . S
C597 C603 1.390 . S
C598 H589 0.930 . S
C598 C596 1.384 . S
C598 C599 1.372 . S
C599 C598 1.372 . S
C599 C600 1.400 . S
C599 C604 1.490 . S
C600 H590 0.930 . S
C600 C599 1.400 . S
C600 C603 1.386 . S
H601 C617 0.930 . S
H602 C618 0.931 . S
C603 H591 0.929 . S
C603 C597 1.390 . S
C603 C600 1.386 . S
C604 C599 1.490 . S
C604 C606 1.395 1_655 S
C604 C607 1.403 . S
H605 C611 0.930 . S
C606 H592 0.930 . S
C606 C604 1.395 1_455 S
C606 C609 1.403 . S
C607 C604 1.403 . S
C607 C608 1.524 . S
C607 C611 1.400 1_655 S
C608 H593 0.960 . S
C608 H594 0.960 . S
C608 H595 0.960 . S
C608 C607 1.524 . S
C609 C606 1.403 . S
C609 C610 1.392 . S
C609 C613 1.495 . S
C610 C609 1.392 . S
C610 C611 1.385 . S
C610 C612 1.478 . S
C611 H605 0.930 . S
C611 C607 1.400 1_455 S
C611 C610 1.385 . S
C612 C610 1.478 . S
C612 C614 1.381 . S
C612 C618 1.383 . S
C613 C609 1.495 . S
C613 H619 0.959 . S
C613 H620 0.961 . S
C613 H621 0.960 . S
C614 C612 1.381 . S
C614 C615 1.394 . S
C614 H622 0.930 . S
C615 C614 1.394 . S
C615 C616 1.383 . S
C615 H623 0.929 . S
C616 C615 1.383 . S
C616 C617 1.377 . S
C617 H601 0.930 . S
C617 C616 1.377 . S
C617 C618 1.379 . S
C618 H602 0.931 . S
C618 C612 1.383 . S
C618 C617 1.379 . S
H619 C613 0.959 . S
H620 C613 0.961 . S
H621 C613 0.960 . S
H622 C614 0.930 . S
H623 C615 0.929 . S
H624 C632 0.929 . S
H625 C634 0.930 . S
H626 C636 0.930 . S
H627 C639 0.929 . S
H628 C642 0.930 . S
H629 C644 0.960 . S
H630 C644 0.960 . S
H631 C644 0.960 . S
C632 H624 0.929 . S
C632 C633 1.377 . S
C632 C634 1.384 . S
C633 C632 1.377 . S
C633 C639 1.390 . S
C634 H625 0.930 . S
C634 C632 1.384 . S
C634 C635 1.372 . S
C635 C634 1.372 . S
C635 C636 1.400 . S
C635 C640 1.490 . S
C636 H626 0.930 . S
C636 C635 1.400 . S
C636 C639 1.386 . S
H637 C653 0.930 . S
H638 C654 0.931 . S
C639 H627 0.929 . S
C639 C633 1.390 . S
C639 C636 1.386 . S
C640 C635 1.490 . S
C640 C642 1.395 . S
C640 C643 1.403 . S
H641 C647 0.930 . S
C642 H628 0.930 . S
C642 C640 1.395 . S
C642 C645 1.403 1_554 S
C643 C640 1.403 . S
C643 C644 1.524 . S
C643 C647 1.400 . S
C644 H629 0.960 . S
C644 H630 0.960 . S
C644 H631 0.960 . S
C644 C643 1.524 . S
C645 C642 1.403 1_556 S
C645 C646 1.392 . S
C645 C649 1.495 . S
C646 C645 1.392 . S
C646 C647 1.385 1_556 S
C646 C648 1.478 . S
C647 H641 0.930 . S
C647 C643 1.400 . S
C647 C646 1.385 1_554 S
C648 C646 1.478 . S
C648 C650 1.381 . S
C648 C654 1.383 . S
C649 C645 1.495 . S
C649 H655 0.959 . S
C649 H656 0.961 . S
C649 H657 0.960 . S
C650 C648 1.381 . S
C650 C651 1.394 . S
C650 H658 0.930 . S
C651 C650 1.394 . S
C651 C652 1.383 . S
C651 H659 0.929 . S
C652 C651 1.383 . S
C652 C653 1.377 . S
C653 H637 0.930 . S
C653 C652 1.377 . S
C653 C654 1.379 . S
C654 H638 0.931 . S
C654 C648 1.383 . S
C654 C653 1.379 . S
H655 C649 0.959 . S
H656 C649 0.961 . S
H657 C649 0.960 . S
H658 C650 0.930 . S
H659 C651 0.929 . S
H660 C668 0.929 . S
H661 C670 0.930 . S
H662 C672 0.930 . S
H663 C675 0.929 . S
H664 C678 0.930 . S
H665 C680 0.960 . S
H666 C680 0.960 . S
H667 C680 0.960 . S
C668 H660 0.929 . S
C668 C669 1.377 . S
C668 C670 1.384 . S
C669 C668 1.377 . S
C669 C675 1.390 . S
C670 H661 0.930 . S
C670 C668 1.384 . S
C670 C671 1.372 . S
C671 C670 1.372 . S
C671 C672 1.400 . S
C671 C676 1.490 . S
C672 H662 0.930 . S
C672 C671 1.400 . S
C672 C675 1.386 . S
H673 C689 0.930 . S
H674 C690 0.931 . S
C675 H663 0.929 . S
C675 C669 1.390 . S
C675 C672 1.386 . S
C676 C671 1.490 . S
C676 C678 1.395 . S
C676 C679 1.403 . S
H677 C683 0.930 . S
C678 H664 0.930 . S
C678 C676 1.395 . S
C678 C681 1.403 . S
C679 C676 1.403 . S
C679 C680 1.524 . S
C679 C683 1.400 . S
C680 H665 0.960 . S
C680 H666 0.960 . S
C680 H667 0.960 . S
C680 C679 1.524 . S
C681 C678 1.403 . S
C681 C682 1.392 . S
C681 C685 1.495 . S
C682 C681 1.392 . S
C682 C683 1.385 . S
C682 C684 1.478 . S
C683 H677 0.930 . S
C683 C679 1.400 . S
C683 C682 1.385 . S
C684 C682 1.478 . S
C684 C686 1.381 . S
C684 C690 1.383 . S
C685 C681 1.495 . S
C685 H691 0.959 . S
C685 H692 0.961 . S
C685 H693 0.960 . S
C686 C684 1.381 . S
C686 C687 1.394 . S
C686 H694 0.930 . S
C687 C686 1.394 . S
C687 C688 1.383 . S
C687 H695 0.929 . S
C688 C687 1.383 . S
C688 C689 1.377 . S
C689 H673 0.930 . S
C689 C688 1.377 . S
C689 C690 1.379 . S
C690 H674 0.931 . S
C690 C684 1.383 . S
C690 C689 1.379 . S
H691 C685 0.959 . S
H692 C685 0.961 . S
H693 C685 0.960 . S
H694 C686 0.930 . S
H695 C687 0.929 . S
H696 C704 0.929 . S
H697 C706 0.930 . S
H698 C708 0.930 . S
H699 C711 0.929 . S
H700 C714 0.930 . S
H701 C716 0.960 . S
H702 C716 0.960 . S
H703 C716 0.960 . S
C704 H696 0.929 . S
C704 C705 1.377 . S
C704 C706 1.384 . S
C705 C704 1.377 . S
C705 C711 1.390 . S
C706 H697 0.930 . S
C706 C704 1.384 . S
C706 C707 1.372 . S
C707 C706 1.372 . S
C707 C708 1.400 . S
C707 C712 1.490 1_556 S
C708 H698 0.930 . S
C708 C707 1.400 . S
C708 C711 1.386 . S
H709 C725 0.930 . S
H710 C726 0.931 . S
C711 H699 0.929 . S
C711 C705 1.390 . S
C711 C708 1.386 . S
C712 C707 1.490 1_554 S
C712 C714 1.395 1_554 S
C712 C715 1.403 . S
H713 C719 0.930 . S
C714 H700 0.930 . S
C714 C712 1.395 1_556 S
C714 C717 1.403 1_556 S
C715 C712 1.403 . S
C715 C716 1.524 . S
C715 C719 1.400 . S
C716 H701 0.960 . S
C716 H702 0.960 . S
C716 H703 0.960 . S
C716 C715 1.524 . S
C717 C714 1.403 1_554 S
C717 C718 1.392 . S
C717 C721 1.496 . S
C718 C717 1.392 . S
C718 C719 1.385 . S
C718 C720 1.478 . S
C719 H713 0.930 . S
C719 C715 1.400 . S
C719 C718 1.385 . S
C720 C718 1.478 . S
C720 C722 1.381 . S
C720 C726 1.383 . S
C721 C717 1.496 . S
C721 H727 0.957 1_554 S
C721 H728 0.961 . S
C721 H729 0.961 . S
C722 C720 1.381 . S
C722 C723 1.394 . S
C722 H730 0.930 . S
C723 C722 1.394 . S
C723 C724 1.383 . S
C723 H731 0.929 . S
C724 C723 1.383 . S
C724 C725 1.377 . S
C725 H709 0.930 . S
C725 C724 1.377 . S
C725 C726 1.379 . S
C726 H710 0.931 . S
C726 C720 1.383 . S
C726 C725 1.379 . S
H727 C721 0.957 1_556 S
H728 C721 0.961 . S
H729 C721 0.961 . S
H730 C722 0.930 . S
H731 C723 0.929 . S
H732 C740 0.929 . S
H733 C742 0.930 . S
H734 C744 0.930 . S
H735 C747 0.929 . S
H736 C750 0.930 . S
H737 C752 0.960 . S
H738 C752 0.960 . S
H739 C752 0.960 . S
C740 H732 0.929 . S
C740 C741 1.377 . S
C740 C742 1.384 . S
C741 C740 1.377 . S
C741 C747 1.390 . S
C742 H733 0.930 . S
C742 C740 1.384 . S
C742 C743 1.372 . S
C743 C742 1.372 . S
C743 C744 1.400 . S
C743 C748 1.490 . S
C744 H734 0.930 . S
C744 C743 1.400 . S
C744 C747 1.386 . S
H745 C761 0.930 . S
H746 C762 0.931 . S
C747 H735 0.929 . S
C747 C741 1.390 . S
C747 C744 1.386 . S
C748 C743 1.490 . S
C748 C750 1.395 . S
C748 C751 1.403 . S
H749 C755 0.930 . S
C750 H736 0.930 . S
C750 C748 1.395 . S
C750 C753 1.403 . S
C751 C748 1.403 . S
C751 C752 1.524 . S
C751 C755 1.400 . S
C752 H737 0.960 . S
C752 H738 0.960 . S
C752 H739 0.960 . S
C752 C751 1.524 . S
C753 C750 1.403 . S
C753 C754 1.392 . S
C753 C757 1.495 . S
C754 C753 1.392 . S
C754 C755 1.385 . S
C754 C756 1.478 . S
C755 H749 0.930 . S
C755 C751 1.400 . S
C755 C754 1.385 . S
C756 C754 1.478 . S
C756 C758 1.381 . S
C756 C762 1.383 . S
C757 C753 1.495 . S
C757 H763 0.959 . S
C757 H764 0.961 . S
C757 H765 0.960 . S
C758 C756 1.381 . S
C758 C759 1.394 . S
C758 H766 0.930 . S
C759 C758 1.394 . S
C759 C760 1.383 . S
C759 H767 0.929 . S
C760 C759 1.383 . S
C760 C761 1.377 . S
C761 H745 0.930 . S
C761 C760 1.377 . S
C761 C762 1.379 . S
C762 H746 0.931 . S
C762 C756 1.383 . S
C762 C761 1.379 . S
H763 C757 0.959 . S
H764 C757 0.961 . S
H765 C757 0.960 . S
H766 C758 0.930 . S
H767 C759 0.929 . S
H768 C776 0.929 . S
H769 C778 0.930 . S
H770 C780 0.930 . S
H771 C783 0.929 . S
H772 C786 0.930 . S
H773 C788 0.960 . S
H774 C788 0.960 . S
H775 C788 0.960 . S
C776 H768 0.929 . S
C776 C777 1.377 . S
C776 C778 1.384 . S
C777 C776 1.377 . S
C777 C783 1.390 . S
C778 H769 0.930 . S
C778 C776 1.384 . S
C778 C779 1.372 . S
C779 C778 1.372 . S
C779 C780 1.400 . S
C779 C784 1.490 . S
C780 H770 0.930 . S
C780 C779 1.400 . S
C780 C783 1.386 . S
H781 C797 0.930 . S
H782 C798 0.931 . S
C783 H771 0.929 . S
C783 C777 1.390 . S
C783 C780 1.386 . S
C784 C779 1.490 . S
C784 C786 1.395 . S
C784 C787 1.403 . S
H785 C791 0.930 . S
C786 H772 0.930 . S
C786 C784 1.395 . S
C786 C789 1.403 . S
C787 C784 1.403 . S
C787 C788 1.524 . S
C787 C791 1.400 . S
C788 H773 0.960 . S
C788 H774 0.960 . S
C788 H775 0.960 . S
C788 C787 1.524 . S
C789 C786 1.403 . S
C789 C790 1.392 . S
C789 C793 1.495 . S
C790 C789 1.392 . S
C790 C791 1.385 . S
C790 C792 1.478 . S
C791 H785 0.930 . S
C791 C787 1.400 . S
C791 C790 1.385 . S
C792 C790 1.478 . S
C792 C794 1.381 . S
C792 C798 1.383 . S
C793 C789 1.495 . S
C793 H799 0.959 . S
C793 H800 0.961 . S
C793 H801 0.960 . S
C794 C792 1.381 . S
C794 C795 1.394 . S
C794 H802 0.930 . S
C795 C794 1.394 . S
C795 C796 1.383 . S
C795 H803 0.929 . S
C796 C795 1.383 . S
C796 C797 1.377 . S
C797 H781 0.930 . S
C797 C796 1.377 . S
C797 C798 1.379 . S
C798 H782 0.931 . S
C798 C792 1.383 . S
C798 C797 1.379 . S
H799 C793 0.959 . S
H800 C793 0.961 . S
H801 C793 0.960 . S
H802 C794 0.930 . S
H803 C795 0.929 . S
H804 C812 0.929 . S
H805 C814 0.930 . S
H806 C816 0.930 . S
H807 C819 0.929 . S
H808 C822 0.930 . S
H809 C824 0.960 . S
H810 C824 0.960 . S
H811 C824 0.960 . S
C812 H804 0.929 . S
C812 C813 1.377 . S
C812 C814 1.384 . S
C813 C812 1.377 . S
C813 C819 1.390 . S
C814 H805 0.930 . S
C814 C812 1.384 . S
C814 C815 1.372 . S
C815 C814 1.372 . S
C815 C816 1.400 . S
C815 C820 1.490 . S
C816 H806 0.930 . S
C816 C815 1.400 . S
C816 C819 1.386 . S
H817 C833 0.930 . S
H818 C834 0.931 . S
C819 H807 0.929 . S
C819 C813 1.390 . S
C819 C816 1.386 . S
C820 C815 1.490 . S
C820 C822 1.395 1_455 S
C820 C823 1.403 . S
H821 C827 0.930 1_455 S
C822 H808 0.930 . S
C822 C820 1.395 1_655 S
C822 C825 1.403 . S
C823 C820 1.403 . S
C823 C824 1.524 . S
C823 C827 1.400 1_455 S
C824 H809 0.960 . S
C824 H810 0.960 . S
C824 H811 0.960 . S
C824 C823 1.524 . S
C825 C822 1.403 . S
C825 C826 1.392 . S
C825 C829 1.495 . S
C826 C825 1.392 . S
C826 C827 1.385 . S
C826 C828 1.478 . S
C827 H821 0.930 1_655 S
C827 C823 1.400 1_655 S
C827 C826 1.385 . S
C828 C826 1.478 . S
C828 C830 1.381 . S
C828 C834 1.383 . S
C829 C825 1.495 . S
C829 H835 0.959 . S
C829 H836 0.961 . S
C829 H837 0.960 . S
C830 C828 1.381 . S
C830 C831 1.394 . S
C830 H838 0.930 . S
C831 C830 1.394 . S
C831 C832 1.383 . S
C831 H839 0.929 . S
C832 C831 1.383 . S
C832 C833 1.377 . S
C833 H817 0.930 . S
C833 C832 1.377 . S
C833 C834 1.379 . S
C834 H818 0.931 . S
C834 C828 1.383 . S
C834 C833 1.379 . S
H835 C829 0.959 . S
H836 C829 0.961 . S
H837 C829 0.960 . S
H838 C830 0.930 . S
H839 C831 0.929 . S
H840 C848 0.929 . S
H841 C850 0.930 . S
H842 C852 0.930 . S
H843 C855 0.929 . S
H844 C858 0.930 . S
H845 C860 0.960 . S
H846 C860 0.960 . S
H847 C860 0.960 . S
C848 H840 0.929 . S
C848 C849 1.377 . S
C848 C850 1.384 . S
C849 C848 1.377 . S
C849 C855 1.390 . S
C850 H841 0.930 . S
C850 C848 1.384 . S
C850 C851 1.372 . S
C851 C850 1.372 . S
C851 C852 1.400 . S
C851 C856 1.490 . S
C852 H842 0.930 . S
C852 C851 1.400 . S
C852 C855 1.386 . S
H853 C869 0.930 . S
H854 C870 0.931 . S
C855 H843 0.929 . S
C855 C849 1.390 . S
C855 C852 1.386 . S
C856 C851 1.490 . S
C856 C858 1.395 . S
C856 C859 1.403 . S
H857 C863 0.930 . S
C858 H844 0.930 . S
C858 C856 1.395 . S
C858 C861 1.403 . S
C859 C856 1.403 . S
C859 C860 1.524 . S
C859 C863 1.400 . S
C860 H845 0.960 . S
C860 H846 0.960 . S
C860 H847 0.960 . S
C860 C859 1.524 . S
C861 C858 1.403 . S
C861 C862 1.392 . S
C861 C865 1.495 . S
C862 C861 1.392 . S
C862 C863 1.385 . S
C862 C864 1.478 . S
C863 H857 0.930 . S
C863 C859 1.400 . S
C863 C862 1.385 . S
C864 C862 1.478 . S
C864 C866 1.381 . S
C864 C870 1.383 . S
C865 C861 1.495 . S
C865 H871 0.959 . S
C865 H872 0.961 . S
C865 H873 0.960 . S
C866 C864 1.381 . S
C866 C867 1.394 . S
C866 H874 0.930 . S
C867 C866 1.394 . S
C867 C868 1.383 . S
C867 H875 0.929 . S
C868 C867 1.383 . S
C868 C869 1.377 . S
C869 H853 0.930 . S
C869 C868 1.377 . S
C869 C870 1.379 . S
C870 H854 0.931 . S
C870 C864 1.383 . S
C870 C869 1.379 . S
H871 C865 0.959 . S
H872 C865 0.961 . S
H873 C865 0.960 . S
H874 C866 0.930 . S
H875 C867 0.929 . S
H876 C884 0.929 . S
H877 C886 0.930 . S
H878 C888 0.930 . S
H879 C891 0.929 . S
H880 C894 0.930 . S
H881 C896 0.960 . S
H882 C896 0.960 . S
H883 C896 0.960 . S
C884 H876 0.929 . S
C884 C885 1.377 . S
C884 C886 1.384 . S
C885 C884 1.377 . S
C885 C891 1.390 . S
C886 H877 0.930 . S
C886 C884 1.384 . S
C886 C887 1.372 . S
C887 C886 1.372 . S
C887 C888 1.400 . S
C887 C892 1.490 1_545 S
C888 H878 0.930 . S
C888 C887 1.400 . S
C888 C891 1.386 . S
H889 C905 0.930 . S
H890 C906 0.931 . S
C891 H879 0.929 . S
C891 C885 1.390 . S
C891 C888 1.386 . S
C892 C887 1.490 1_565 S
C892 C894 1.395 1_565 S
C892 C895 1.403 . S
H893 C899 0.930 . S
C894 H880 0.930 . S
C894 C892 1.395 1_545 S
C894 C897 1.403 1_545 S
C895 C892 1.403 . S
C895 C896 1.524 . S
C895 C899 1.400 . S
C896 H881 0.960 . S
C896 H882 0.960 . S
C896 H883 0.960 . S
C896 C895 1.524 . S
C897 C894 1.403 1_565 S
C897 C898 1.392 . S
C897 C901 1.495 . S
C898 C897 1.392 . S
C898 C899 1.385 . S
C898 C900 1.478 . S
C899 H893 0.930 . S
C899 C895 1.400 . S
C899 C898 1.385 . S
C900 C898 1.478 . S
C900 C902 1.381 . S
C900 C906 1.383 . S
C901 C897 1.495 . S
C901 H907 0.959 1_565 S
C901 H908 0.961 . S
C901 H909 0.960 . S
C902 C900 1.381 . S
C902 C903 1.394 . S
C902 H910 0.930 . S
C903 C902 1.394 . S
C903 C904 1.383 . S
C903 H911 0.929 . S
C904 C903 1.383 . S
C904 C905 1.377 . S
C905 H889 0.930 . S
C905 C904 1.377 . S
C905 C906 1.379 . S
C906 H890 0.931 . S
C906 C900 1.383 . S
C906 C905 1.379 . S
H907 C901 0.959 1_545 S
H908 C901 0.961 . S
H909 C901 0.960 . S
H910 C902 0.930 . S
H911 C903 0.929 . S
H912 C920 0.929 . S
H913 C922 0.930 . S
H914 C924 0.930 . S
H915 C927 0.929 . S
H916 C930 0.930 . S
H917 C932 0.960 . S
H918 C932 0.960 . S
H919 C932 0.960 1_545 S
C920 H912 0.929 . S
C920 C921 1.377 . S
C920 C922 1.384 . S
C921 C920 1.377 . S
C921 C927 1.390 . S
C922 H913 0.930 . S
C922 C920 1.384 . S
C922 C923 1.372 . S
C923 C922 1.372 . S
C923 C924 1.400 . S
C923 C928 1.490 . S
C924 H914 0.930 . S
C924 C923 1.400 . S
C924 C927 1.386 . S
H925 C941 0.930 . S
H926 C942 0.931 . S
C927 H915 0.929 . S
C927 C921 1.390 . S
C927 C924 1.386 . S
C928 C923 1.490 . S
C928 C930 1.395 . S
C928 C931 1.403 . S
H929 C935 0.930 . S
C930 H916 0.930 . S
C930 C928 1.395 . S
C930 C933 1.403 . S
C931 C928 1.403 . S
C931 C932 1.524 1_545 S
C931 C935 1.400 1_545 S
C932 H917 0.960 . S
C932 H918 0.960 . S
C932 H919 0.960 1_565 S
C932 C931 1.524 1_565 S
C933 C930 1.403 . S
C933 C934 1.392 1_545 S
C933 C937 1.495 . S
C934 C933 1.392 1_565 S
C934 C935 1.385 . S
C934 C936 1.478 . S
C935 H929 0.930 . S
C935 C931 1.400 1_565 S
C935 C934 1.385 . S
C936 C934 1.478 . S
C936 C938 1.381 . S
C936 C942 1.383 . S
C937 C933 1.495 . S
C937 H943 0.959 . S
C937 H944 0.961 . S
C937 H945 0.960 1_545 S
C938 C936 1.381 . S
C938 C939 1.394 . S
C938 H946 0.930 . S
C939 C938 1.394 . S
C939 C940 1.383 . S
C939 H947 0.929 . S
C940 C939 1.383 . S
C940 C941 1.377 . S
C941 H925 0.930 . S
C941 C940 1.377 . S
C941 C942 1.379 . S
C942 H926 0.931 . S
C942 C936 1.383 . S
C942 C941 1.379 . S
H943 C937 0.959 . S
H944 C937 0.961 . S
H945 C937 0.960 1_565 S
H946 C938 0.930 . S
H947 C939 0.929 . S
H948 C956 0.929 . S
H949 C958 0.930 . S
H950 C960 0.930 . S
H951 C963 0.929 . S
H952 C966 0.930 . S
H953 C968 0.960 . S
H954 C968 0.960 . S
H955 C968 0.960 . S
C956 H948 0.929 . S
C956 C957 1.377 . S
C956 C958 1.384 . S
C957 C956 1.377 . S
C957 C963 1.390 . S
C958 H949 0.930 . S
C958 C956 1.384 . S
C958 C959 1.372 . S
C959 C958 1.372 . S
C959 C960 1.400 . S
C959 C964 1.490 . S
C960 H950 0.930 . S
C960 C959 1.400 . S
C960 C963 1.386 . S
H961 C977 0.930 . S
H962 C978 0.931 . S
C963 H951 0.929 . S
C963 C957 1.390 . S
C963 C960 1.386 . S
C964 C959 1.490 . S
C964 C966 1.395 . S
C964 C967 1.403 1_545 S
H965 C971 0.930 . S
C966 H952 0.930 . S
C966 C964 1.395 . S
C966 C969 1.431 . S
C967 C964 1.403 1_565 S
C967 C968 1.524 . S
C967 C971 1.400 . S
C968 H953 0.960 . S
C968 H954 0.960 . S
C968 H955 0.960 . S
C968 C967 1.524 . S
C969 C966 1.431 . S
C969 C970 1.352 1_545 S
C969 C973 1.510 . S
C970 C969 1.352 1_565 S
C970 C971 1.385 . S
C970 C972 1.478 . S
C971 H965 0.930 . S
C971 C967 1.400 . S
C971 C970 1.385 . S
C972 C970 1.478 . S
C972 C974 1.381 . S
C972 C978 1.383 . S
C973 C969 1.510 . S
C973 H979 0.959 . S
C973 H980 0.961 . S
C973 H981 0.960 . S
C974 C972 1.381 . S
C974 C975 1.394 . S
C974 H982 0.930 . S
C975 C974 1.394 . S
C975 C976 1.383 . S
C975 H983 0.929 . S
C976 C975 1.383 . S
C976 C977 1.377 . S
C977 H961 0.930 . S
C977 C976 1.377 . S
C977 C978 1.379 . S
C978 H962 0.931 . S
C978 C972 1.383 . S
C978 C977 1.379 . S
H979 C973 0.959 . S
H980 C973 0.961 . S
H981 C973 0.960 . S
H982 C974 0.930 . S
H983 C975 0.929 . S
H984 C992 0.929 . S
H985 C994 0.930 . S
H986 C996 0.930 . S
H987 C999 0.929 . S
H988 C1002 0.930 . S
H989 C1004 0.960 . S
H990 C1004 0.960 . S
H991 C1004 0.960 . S
C992 H984 0.929 . S
C992 C993 1.377 . S
C992 C994 1.384 . S
C993 C992 1.377 . S
C993 C999 1.390 . S
C994 H985 0.930 . S
C994 C992 1.384 . S
C994 C995 1.372 . S
C995 C994 1.372 . S
C995 C996 1.400 . S
C995 C1000 1.490 . S
C996 H986 0.930 . S
C996 C995 1.400 . S
C996 C999 1.386 . S
H997 C1013 0.930 . S
H998 C1014 0.931 . S
C999 H987 0.929 . S
C999 C993 1.390 . S
C999 C996 1.386 . S
C1000 C995 1.490 . S
C1000 C1002 1.395 . S
C1000 C1003 1.403 . S
H1001 C1007 0.930 . S
C1002 H988 0.930 . S
C1002 C1000 1.395 . S
C1002 C1005 1.403 . S
C1003 C1000 1.403 . S
C1003 C1004 1.524 . S
C1003 C1007 1.400 . S
C1004 H989 0.960 . S
C1004 H990 0.960 . S
C1004 H991 0.960 . S
C1004 C1003 1.524 . S
C1005 C1002 1.403 . S
C1005 C1006 1.392 . S
C1005 C1009 1.495 . S
C1006 C1005 1.392 . S
C1006 C1007 1.385 . S
C1006 C1008 1.478 . S
C1007 H1001 0.930 . S
C1007 C1003 1.400 . S
C1007 C1006 1.385 . S
C1008 C1006 1.478 . S
C1008 C1010 1.381 . S
C1008 C1014 1.383 . S
C1009 C1005 1.495 . S
C1009 H1015 0.959 . S
C1009 H1016 0.961 . S
C1009 H1017 0.960 . S
C1010 C1008 1.381 . S
C1010 C1011 1.394 . S
C1010 H1018 0.930 . S
C1011 C1010 1.394 . S
C1011 C1012 1.383 . S
C1011 H1019 0.929 . S
C1012 C1011 1.383 . S
C1012 C1013 1.377 . S
C1013 H997 0.930 . S
C1013 C1012 1.377 . S
C1013 C1014 1.379 . S
C1014 H998 0.931 . S
C1014 C1008 1.383 . S
C1014 C1013 1.379 . S
H1015 C1009 0.959 . S
H1016 C1009 0.961 . S
H1017 C1009 0.960 . S
H1018 C1010 0.930 . S
H1019 C1011 0.929 . S
H1020 C1028 0.929 . S
H1021 C1030 0.930 . S
H1022 C1032 0.930 . S
H1023 C1035 0.929 . S
H1024 C1038 0.930 . S
H1025 C1040 0.960 . S
H1026 C1040 0.960 . S
H1027 C1040 0.960 . S
C1028 H1020 0.929 . S
C1028 C1029 1.377 . S
C1028 C1030 1.384 . S
C1029 C1028 1.377 . S
C1029 C1035 1.390 . S
C1030 H1021 0.930 . S
C1030 C1028 1.384 . S
C1030 C1031 1.372 . S
C1031 C1030 1.372 . S
C1031 C1032 1.400 . S
C1031 C1036 1.490 . S
C1032 H1022 0.930 . S
C1032 C1031 1.400 . S
C1032 C1035 1.386 . S
H1033 C1049 0.930 . S
H1034 C1050 0.931 . S
C1035 H1023 0.929 . S
C1035 C1029 1.390 . S
C1035 C1032 1.386 . S
C1036 C1031 1.490 . S
C1036 C1038 1.395 . S
C1036 C1039 1.403 . S
H1037 C1043 0.930 . S
C1038 H1024 0.930 . S
C1038 C1036 1.395 . S
C1038 C1041 1.403 . S
C1039 C1036 1.403 . S
C1039 C1040 1.524 . S
C1039 C1043 1.400 . S
C1040 H1025 0.960 . S
C1040 H1026 0.960 . S
C1040 H1027 0.960 . S
C1040 C1039 1.524 . S
C1041 C1038 1.403 . S
C1041 C1042 1.392 . S
C1041 C1045 1.495 . S
C1042 C1041 1.392 . S
C1042 C1043 1.385 . S
C1042 C1044 1.478 . S
C1043 H1037 0.930 . S
C1043 C1039 1.400 . S
C1043 C1042 1.385 . S
C1044 C1042 1.478 . S
C1044 C1046 1.381 . S
C1044 C1050 1.383 . S
C1045 C1041 1.495 . S
C1045 H1051 0.959 . S
C1045 H1052 0.961 . S
C1045 H1053 0.960 . S
C1046 C1044 1.381 . S
C1046 C1047 1.394 . S
C1046 H1054 0.930 . S
C1047 C1046 1.394 . S
C1047 C1048 1.383 . S
C1047 H1055 0.929 . S
C1048 C1047 1.383 . S
C1048 C1049 1.377 . S
C1049 H1033 0.930 . S
C1049 C1048 1.377 . S
C1049 C1050 1.379 . S
C1050 H1034 0.931 . S
C1050 C1044 1.383 . S
C1050 C1049 1.379 . S
H1051 C1045 0.959 . S
H1052 C1045 0.961 . S
H1053 C1045 0.960 . S
H1054 C1046 0.930 . S
H1055 C1047 0.929 . S
H1056 C1064 0.929 . S
H1057 C1066 0.930 . S
H1058 C1068 0.930 . S
H1059 C1071 0.929 . S
H1060 C1074 0.930 . S
H1061 C1076 0.960 . S
H1062 C1076 0.960 . S
H1063 C1076 0.960 . S
C1064 H1056 0.929 . S
C1064 C1065 1.377 . S
C1064 C1066 1.384 . S
C1065 C1064 1.377 . S
C1065 C1071 1.390 . S
C1066 H1057 0.930 . S
C1066 C1064 1.384 . S
C1066 C1067 1.372 . S
C1067 C1066 1.372 . S
C1067 C1068 1.400 . S
C1067 C1072 1.490 . S
C1068 H1058 0.930 . S
C1068 C1067 1.400 . S
C1068 C1071 1.386 . S
H1069 C1085 0.930 . S
H1070 C1086 0.931 . S
C1071 H1059 0.929 . S
C1071 C1065 1.390 . S
C1071 C1068 1.386 . S
C1072 C1067 1.490 . S
C1072 C1074 1.395 . S
C1072 C1075 1.403 . S
H1073 C1079 0.930 . S
C1074 H1060 0.930 . S
C1074 C1072 1.395 . S
C1074 C1077 1.403 . S
C1075 C1072 1.403 . S
C1075 C1076 1.524 . S
C1075 C1079 1.400 . S
C1076 H1061 0.960 . S
C1076 H1062 0.960 . S
C1076 H1063 0.960 . S
C1076 C1075 1.524 . S
C1077 C1074 1.403 . S
C1077 C1078 1.392 . S
C1077 C1081 1.495 . S
C1078 C1077 1.392 . S
C1078 C1079 1.385 . S
C1078 C1080 1.478 . S
C1079 H1073 0.930 . S
C1079 C1075 1.400 . S
C1079 C1078 1.385 . S
C1080 C1078 1.478 . S
C1080 C1082 1.381 . S
C1080 C1086 1.383 . S
C1081 C1077 1.495 . S
C1081 H1087 0.959 . S
C1081 H1088 0.961 . S
C1081 H1089 0.960 . S
C1082 C1080 1.381 . S
C1082 C1083 1.394 . S
C1082 H1090 0.930 . S
C1083 C1082 1.394 . S
C1083 C1084 1.383 . S
C1083 H1091 0.929 . S
C1084 C1083 1.383 . S
C1084 C1085 1.377 . S
C1085 H1069 0.930 . S
C1085 C1084 1.377 . S
C1085 C1086 1.379 . S
C1086 H1070 0.931 . S
C1086 C1080 1.383 . S
C1086 C1085 1.379 . S
H1087 C1081 0.959 . S
H1088 C1081 0.961 . S
H1089 C1081 0.960 . S
H1090 C1082 0.930 . S
H1091 C1083 0.929 . S
H1092 C1100 0.929 . S
H1093 C1102 0.930 . S
H1094 C1104 0.930 . S
H1095 C1107 0.929 . S
H1096 C1110 0.930 . S
H1097 C1112 0.960 . S
H1098 C1112 0.960 . S
H1099 C1112 0.960 . S
C1100 H1092 0.929 . S
C1100 C1101 1.377 . S
C1100 C1102 1.384 . S
C1101 C1100 1.377 . S
C1101 C1107 1.390 . S
C1102 H1093 0.930 . S
C1102 C1100 1.384 . S
C1102 C1103 1.372 . S
C1103 C1102 1.372 . S
C1103 C1104 1.400 . S
C1103 C1108 1.490 . S
C1104 H1094 0.930 . S
C1104 C1103 1.400 . S
C1104 C1107 1.386 . S
H1105 C1121 0.930 . S
H1106 C1122 0.931 . S
C1107 H1095 0.929 . S
C1107 C1101 1.390 . S
C1107 C1104 1.386 . S
C1108 C1103 1.490 . S
C1108 C1110 1.395 . S
C1108 C1111 1.403 1_556 S
H1109 C1115 0.930 . S
C1110 H1096 0.930 . S
C1110 C1108 1.395 . S
C1110 C1113 1.403 1_556 S
C1111 C1108 1.403 1_554 S
C1111 C1112 1.524 . S
C1111 C1115 1.400 . S
C1112 H1097 0.960 . S
C1112 H1098 0.960 . S
C1112 H1099 0.960 . S
C1112 C1111 1.524 . S
C1113 C1110 1.403 1_554 S
C1113 C1114 1.392 . S
C1113 C1117 1.489 1_554 S
C1114 C1113 1.392 . S
C1114 C1115 1.385 . S
C1114 C1116 1.478 . S
C1115 H1109 0.930 . S
C1115 C1111 1.400 . S
C1115 C1114 1.385 . S
C1116 C1114 1.478 . S
C1116 C1118 1.381 . S
C1116 C1122 1.383 . S
C1117 C1113 1.489 1_556 S
C1117 H1123 0.979 . S
C1117 H1124 0.952 1_556 S
C1117 H1125 0.956 1_556 S
C1118 C1116 1.381 . S
C1118 C1119 1.394 . S
C1118 H1126 0.930 . S
C1119 C1118 1.394 . S
C1119 C1120 1.383 . S
C1119 H1127 0.929 . S
C1120 C1119 1.383 . S
C1120 C1121 1.377 . S
C1121 H1105 0.930 . S
C1121 C1120 1.377 . S
C1121 C1122 1.379 . S
C1122 H1106 0.931 . S
C1122 C1116 1.383 . S
C1122 C1121 1.379 . S
H1123 C1117 0.979 . S
H1124 C1117 0.952 1_554 S
H1125 C1117 0.956 1_554 S
H1126 C1118 0.930 . S
H1127 C1119 0.929 . S
H1128 C1136 0.929 . S
H1129 C1138 0.930 . S
H1130 C1140 0.930 . S
H1131 C1143 0.929 . S
H1132 C1146 0.930 . S
H1133 C1148 0.960 . S
H1134 C1148 0.960 . S
H1135 C1148 0.960 . S
C1136 H1128 0.929 . S
C1136 C1137 1.377 . S
C1136 C1138 1.384 . S
C1137 C1136 1.377 . S
C1137 C1143 1.390 . S
C1138 H1129 0.930 . S
C1138 C1136 1.384 . S
C1138 C1139 1.372 . S
C1139 C1138 1.372 . S
C1139 C1140 1.400 . S
C1139 C1144 1.490 . S
C1140 H1130 0.930 . S
C1140 C1139 1.400 . S
C1140 C1143 1.386 . S
H1141 C1157 0.930 . S
H1142 C1158 0.931 . S
C1143 H1131 0.929 . S
C1143 C1137 1.390 . S
C1143 C1140 1.386 . S
C1144 C1139 1.490 . S
C1144 C1146 1.395 . S
C1144 C1147 1.403 . S
H1145 C1151 0.930 . S
C1146 H1132 0.930 . S
C1146 C1144 1.395 . S
C1146 C1149 1.403 . S
C1147 C1144 1.403 . S
C1147 C1148 1.524 . S
C1147 C1151 1.400 . S
C1148 H1133 0.960 . S
C1148 H1134 0.960 . S
C1148 H1135 0.960 . S
C1148 C1147 1.524 . S
C1149 C1146 1.403 . S
C1149 C1150 1.392 . S
C1149 C1153 1.495 . S
C1150 C1149 1.392 . S
C1150 C1151 1.385 . S
C1150 C1152 1.478 . S
C1151 H1145 0.930 . S
C1151 C1147 1.400 . S
C1151 C1150 1.385 . S
C1152 C1150 1.478 . S
C1152 C1154 1.381 . S
C1152 C1158 1.383 . S
C1153 C1149 1.495 . S
C1153 H1159 0.959 . S
C1153 H1160 0.961 . S
C1153 H1161 0.960 . S
C1154 C1152 1.381 . S
C1154 C1155 1.394 . S
C1154 H1162 0.930 . S
C1155 C1154 1.394 . S
C1155 C1156 1.383 . S
C1155 H1163 0.929 . S
C1156 C1155 1.383 . S
C1156 C1157 1.377 . S
C1157 H1141 0.930 . S
C1157 C1156 1.377 . S
C1157 C1158 1.379 . S
C1158 H1142 0.931 . S
C1158 C1152 1.383 . S
C1158 C1157 1.379 . S
H1159 C1153 0.959 . S
H1160 C1153 0.961 . S
H1161 C1153 0.960 . S
H1162 C1154 0.930 . S
H1163 C1155 0.929 . S
H1164 C1172 0.929 . S
H1165 C1174 0.930 . S
H1166 C1176 0.930 . S
H1167 C1179 0.929 . S
H1168 C1182 0.930 . S
H1169 C1184 0.960 . S
H1170 C1184 0.960 . S
H1171 C1184 0.960 . S
C1172 H1164 0.929 . S
C1172 C1173 1.377 . S
C1172 C1174 1.384 . S
C1173 C1172 1.377 . S
C1173 C1179 1.390 . S
C1174 H1165 0.930 . S
C1174 C1172 1.384 . S
C1174 C1175 1.372 . S
C1175 C1174 1.372 . S
C1175 C1176 1.400 . S
C1175 C1180 1.490 . S
C1176 H1166 0.930 . S
C1176 C1175 1.400 . S
C1176 C1179 1.386 . S
H1177 C1193 0.930 . S
H1178 C1194 0.931 . S
C1179 H1167 0.929 . S
C1179 C1173 1.390 . S
C1179 C1176 1.386 . S
C1180 C1175 1.490 . S
C1180 C1182 1.395 . S
C1180 C1183 1.403 . S
H1181 C1187 0.930 . S
C1182 H1168 0.930 . S
C1182 C1180 1.395 . S
C1182 C1185 1.403 . S
C1183 C1180 1.403 . S
C1183 C1184 1.524 . S
C1183 C1187 1.400 . S
C1184 H1169 0.960 . S
C1184 H1170 0.960 . S
C1184 H1171 0.960 . S
C1184 C1183 1.524 . S
C1185 C1182 1.403 . S
C1185 C1186 1.392 . S
C1185 C1189 1.495 . S
C1186 C1185 1.392 . S
C1186 C1187 1.385 . S
C1186 C1188 1.478 . S
C1187 H1181 0.930 . S
C1187 C1183 1.400 . S
C1187 C1186 1.385 . S
C1188 C1186 1.478 . S
C1188 C1190 1.381 . S
C1188 C1194 1.383 . S
C1189 C1185 1.495 . S
C1189 H1195 0.959 . S
C1189 H1196 0.961 . S
C1189 H1197 0.960 . S
C1190 C1188 1.381 . S
C1190 C1191 1.394 . S
C1190 H1198 0.930 . S
C1191 C1190 1.394 . S
C1191 C1192 1.383 . S
C1191 H1199 0.929 . S
C1192 C1191 1.383 . S
C1192 C1193 1.377 . S
C1193 H1177 0.930 . S
C1193 C1192 1.377 . S
C1193 C1194 1.379 . S
C1194 H1178 0.931 . S
C1194 C1188 1.383 . S
C1194 C1193 1.379 . S
H1195 C1189 0.959 . S
H1196 C1189 0.961 . S
H1197 C1189 0.960 . S
H1198 C1190 0.930 . S
H1199 C1191 0.929 . S
H1200 C1208 0.929 . S
H1201 C1210 0.930 . S
H1202 C1212 0.930 . S
H1203 C1215 0.929 . S
H1204 C1218 0.930 . S
H1205 C1220 0.960 . S
H1206 C1220 0.960 . S
H1207 C1220 0.960 . S
C1208 H1200 0.929 . S
C1208 C1209 1.377 . S
C1208 C1210 1.384 . S
C1209 C1208 1.377 . S
C1209 C1215 1.390 . S
C1210 H1201 0.930 . S
C1210 C1208 1.384 . S
C1210 C1211 1.372 . S
C1211 C1210 1.372 . S
C1211 C1212 1.400 . S
C1211 C1216 1.490 . S
C1212 H1202 0.930 . S
C1212 C1211 1.400 . S
C1212 C1215 1.386 . S
H1213 C1229 0.930 . S
H1214 C1230 0.931 . S
C1215 H1203 0.929 . S
C1215 C1209 1.390 . S
C1215 C1212 1.386 . S
C1216 C1211 1.490 . S
C1216 C1218 1.395 1_655 S
C1216 C1219 1.403 . S
H1217 C1223 0.930 . S
C1218 H1204 0.930 . S
C1218 C1216 1.395 1_455 S
C1218 C1221 1.403 . S
C1219 C1216 1.403 . S
C1219 C1220 1.524 . S
C1219 C1223 1.400 1_655 S
C1220 H1205 0.960 . S
C1220 H1206 0.960 . S
C1220 H1207 0.960 . S
C1220 C1219 1.524 . S
C1221 C1218 1.403 . S
C1221 C1222 1.392 . S
C1221 C1225 1.495 . S
C1222 C1221 1.392 . S
C1222 C1223 1.385 . S
C1222 C1224 1.478 . S
C1223 H1217 0.930 . S
C1223 C1219 1.400 1_455 S
C1223 C1222 1.385 . S
C1224 C1222 1.478 . S
C1224 C1226 1.381 . S
C1224 C1230 1.383 . S
C1225 C1221 1.495 . S
C1225 H1231 0.959 . S
C1225 H1232 0.961 . S
C1225 H1233 0.960 . S
C1226 C1224 1.381 . S
C1226 C1227 1.394 . S
C1226 H1234 0.930 . S
C1227 C1226 1.394 . S
C1227 C1228 1.383 . S
C1227 H1235 0.929 . S
C1228 C1227 1.383 . S
C1228 C1229 1.377 . S
C1229 H1213 0.930 . S
C1229 C1228 1.377 . S
C1229 C1230 1.379 . S
C1230 H1214 0.931 . S
C1230 C1224 1.383 . S
C1230 C1229 1.379 . S
H1231 C1225 0.959 . S
H1232 C1225 0.961 . S
H1233 C1225 0.960 . S
H1234 C1226 0.930 . S
H1235 C1227 0.929 . S
H1236 C1244 0.929 . S
H1237 C1246 0.930 . S
H1238 C1248 0.930 . S
H1239 C1251 0.929 . S
H1240 C1254 0.930 . S
H1241 C1256 0.960 . S
H1242 C1256 0.960 . S
H1243 C1256 0.960 . S
C1244 H1236 0.929 . S
C1244 C1245 1.377 . S
C1244 C1246 1.384 . S
C1245 C1244 1.377 . S
C1245 C1251 1.390 . S
C1246 H1237 0.930 . S
C1246 C1244 1.384 . S
C1246 C1247 1.372 . S
C1247 C1246 1.372 . S
C1247 C1248 1.400 . S
C1247 C1252 1.490 . S
C1248 H1238 0.930 . S
C1248 C1247 1.400 . S
C1248 C1251 1.386 . S
H1249 C1265 0.930 . S
H1250 C1266 0.931 . S
C1251 H1239 0.929 . S
C1251 C1245 1.390 . S
C1251 C1248 1.386 . S
C1252 C1247 1.490 . S
C1252 C1254 1.395 . S
C1252 C1255 1.403 . S
H1253 C1259 0.930 . S
C1254 H1240 0.930 . S
C1254 C1252 1.395 . S
C1254 C1257 1.403 . S
C1255 C1252 1.403 . S
C1255 C1256 1.524 . S
C1255 C1259 1.400 . S
C1256 H1241 0.960 . S
C1256 H1242 0.960 . S
C1256 H1243 0.960 . S
C1256 C1255 1.524 . S
C1257 C1254 1.403 . S
C1257 C1258 1.392 . S
C1257 C1261 1.495 . S
C1258 C1257 1.392 . S
C1258 C1259 1.385 . S
C1258 C1260 1.478 . S
C1259 H1253 0.930 . S
C1259 C1255 1.400 . S
C1259 C1258 1.385 . S
C1260 C1258 1.478 . S
C1260 C1262 1.381 . S
C1260 C1266 1.383 . S
C1261 C1257 1.495 . S
C1261 H1267 0.959 . S
C1261 H1268 0.961 . S
C1261 H1269 0.960 . S
C1262 C1260 1.381 . S
C1262 C1263 1.394 . S
C1262 H1270 0.930 . S
C1263 C1262 1.394 . S
C1263 C1264 1.383 . S
C1263 H1271 0.929 . S
C1264 C1263 1.383 . S
C1264 C1265 1.377 . S
C1265 H1249 0.930 . S
C1265 C1264 1.377 . S
C1265 C1266 1.379 . S
C1266 H1250 0.931 . S
C1266 C1260 1.383 . S
C1266 C1265 1.379 . S
H1267 C1261 0.959 . S
H1268 C1261 0.961 . S
H1269 C1261 0.960 . S
H1270 C1262 0.930 . S
H1271 C1263 0.929 . S
H1272 C1280 0.929 . S
H1273 C1282 0.930 . S
H1274 C1284 0.930 . S
H1275 C1287 0.929 . S
H1276 C1290 0.930 . S
H1277 C1292 0.960 . S
H1278 C1292 0.960 . S
H1279 C1292 0.960 1_455 S
C1280 H1272 0.929 . S
C1280 C1281 1.377 . S
C1280 C1282 1.384 . S
C1281 C1280 1.377 . S
C1281 C1287 1.390 . S
C1282 H1273 0.930 . S
C1282 C1280 1.384 . S
C1282 C1283 1.372 . S
C1283 C1282 1.372 . S
C1283 C1284 1.400 . S
C1283 C1288 1.490 . S
C1284 H1274 0.930 . S
C1284 C1283 1.400 . S
C1284 C1287 1.386 . S
H1285 C1301 0.930 . S
H1286 C1302 0.931 . S
C1287 H1275 0.929 . S
C1287 C1281 1.390 . S
C1287 C1284 1.386 . S
C1288 C1283 1.490 . S
C1288 C1290 1.395 . S
C1288 C1291 1.403 1_455 S
H1289 C1295 0.930 . S
C1290 H1276 0.930 . S
C1290 C1288 1.395 . S
C1290 C1293 1.403 1_455 S
C1291 C1288 1.403 1_655 S
C1291 C1292 1.524 . S
C1291 C1295 1.400 . S
C1292 H1277 0.960 . S
C1292 H1278 0.960 . S
C1292 H1279 0.960 1_655 S
C1292 C1291 1.524 . S
C1293 C1290 1.403 1_655 S
C1293 C1294 1.392 . S
C1293 C1297 1.495 . S
C1294 C1293 1.392 . S
C1294 C1295 1.385 . S
C1294 C1296 1.478 . S
C1295 H1289 0.930 . S
C1295 C1291 1.400 . S
C1295 C1294 1.385 . S
C1296 C1294 1.478 . S
C1296 C1298 1.381 . S
C1296 C1302 1.383 . S
C1297 C1293 1.495 . S
C1297 H1303 0.992 . S
C1297 H1304 0.961 . S
C1297 H1305 0.960 . S
C1298 C1296 1.381 . S
C1298 C1299 1.394 . S
C1298 H1306 0.930 . S
C1299 C1298 1.394 . S
C1299 C1300 1.383 . S
C1299 H1307 0.929 . S
C1300 C1299 1.383 . S
C1300 C1301 1.377 . S
C1301 H1285 0.930 . S
C1301 C1300 1.377 . S
C1301 C1302 1.379 . S
C1302 H1286 0.931 . S
C1302 C1296 1.383 . S
C1302 C1301 1.379 . S
H1303 C1297 0.992 . S
H1304 C1297 0.961 . S
H1305 C1297 0.960 . S
H1306 C1298 0.930 . S
H1307 C1299 0.929 . S
H1308 C1316 0.929 . S
H1309 C1318 0.930 . S
H1310 C1320 0.930 . S
H1311 C1323 0.929 . S
H1312 C1326 0.930 . S
H1313 C1328 0.960 1_554 S
H1314 C1328 0.960 . S
H1315 C1328 0.960 . S
C1316 H1308 0.929 . S
C1316 C1317 1.377 . S
C1316 C1318 1.384 . S
C1317 C1316 1.377 . S
C1317 C1323 1.390 . S
C1318 H1309 0.930 . S
C1318 C1316 1.384 . S
C1318 C1319 1.372 . S
C1319 C1318 1.372 . S
C1319 C1320 1.400 . S
C1319 C1324 1.490 . S
C1320 H1310 0.930 . S
C1320 C1319 1.400 . S
C1320 C1323 1.386 . S
H1321 C1337 0.930 . S
H1322 C1338 0.931 . S
C1323 H1311 0.929 . S
C1323 C1317 1.390 . S
C1323 C1320 1.386 . S
C1324 C1319 1.490 . S
C1324 C1326 1.395 . S
C1324 C1327 1.403 . S
H1325 C1331 0.930 . S
C1326 H1312 0.930 . S
C1326 C1324 1.395 . S
C1326 C1329 1.403 . S
C1327 C1324 1.403 . S
C1327 C1328 1.524 . S
C1327 C1331 1.400 1_556 S
C1328 H1313 0.960 1_556 S
C1328 H1314 0.960 . S
C1328 H1315 0.960 . S
C1328 C1327 1.524 . S
C1329 C1326 1.403 . S
C1329 C1330 1.392 1_556 S
C1329 C1333 1.495 . S
C1330 C1329 1.392 1_554 S
C1330 C1331 1.385 . S
C1330 C1332 1.478 . S
C1331 H1325 0.930 . S
C1331 C1327 1.400 1_554 S
C1331 C1330 1.385 . S
C1332 C1330 1.478 . S
C1332 C1334 1.381 . S
C1332 C1338 1.383 . S
C1333 C1329 1.495 . S
C1333 H1339 0.959 . S
C1333 H1340 0.961 1_556 S
C1333 H1341 0.960 . S
C1334 C1332 1.381 . S
C1334 C1335 1.394 . S
C1334 H1342 0.930 . S
C1335 C1334 1.394 . S
C1335 C1336 1.383 . S
C1335 H1343 0.929 . S
C1336 C1335 1.383 . S
C1336 C1337 1.377 . S
C1337 H1321 0.930 . S
C1337 C1336 1.377 . S
C1337 C1338 1.379 . S
C1338 H1322 0.931 . S
C1338 C1332 1.383 . S
C1338 C1337 1.379 . S
H1339 C1333 0.959 . S
H1340 C1333 0.961 1_554 S
H1341 C1333 0.960 . S
H1342 C1334 0.930 . S
H1343 C1335 0.929 . S
H1344 C1352 0.929 . S
H1345 C1354 0.930 . S
H1346 C1356 0.930 . S
H1347 C1359 0.929 . S
H1348 C1362 0.930 . S
H1349 C1364 0.960 . S
H1350 C1364 0.960 . S
H1351 C1364 0.960 . S
C1352 H1344 0.929 . S
C1352 C1353 1.377 . S
C1352 C1354 1.384 . S
C1353 C1352 1.377 . S
C1353 C1359 1.390 . S
C1354 H1345 0.930 . S
C1354 C1352 1.384 . S
C1354 C1355 1.372 . S
C1355 C1354 1.372 . S
C1355 C1356 1.400 . S
C1355 C1360 1.490 . S
C1356 H1346 0.930 . S
C1356 C1355 1.400 . S
C1356 C1359 1.386 . S
H1357 C1373 0.930 . S
H1358 C1374 0.931 . S
C1359 H1347 0.929 . S
C1359 C1353 1.390 . S
C1359 C1356 1.386 . S
C1360 C1355 1.490 . S
C1360 C1362 1.395 . S
C1360 C1363 1.403 . S
H1361 C1367 0.930 . S
C1362 H1348 0.930 . S
C1362 C1360 1.395 . S
C1362 C1365 1.403 . S
C1363 C1360 1.403 . S
C1363 C1364 1.524 . S
C1363 C1367 1.400 . S
C1364 H1349 0.960 . S
C1364 H1350 0.960 . S
C1364 H1351 0.960 . S
C1364 C1363 1.524 . S
C1365 C1362 1.403 . S
C1365 C1366 1.392 . S
C1365 C1369 1.495 . S
C1366 C1365 1.392 . S
C1366 C1367 1.385 . S
C1366 C1368 1.478 . S
C1367 H1361 0.930 . S
C1367 C1363 1.400 . S
C1367 C1366 1.385 . S
C1368 C1366 1.478 . S
C1368 C1370 1.381 . S
C1368 C1374 1.383 . S
C1369 C1365 1.495 . S
C1369 H1375 0.959 . S
C1369 H1376 0.961 . S
C1369 H1377 0.960 . S
C1370 C1368 1.381 . S
C1370 C1371 1.394 . S
C1370 H1378 0.930 . S
C1371 C1370 1.394 . S
C1371 C1372 1.383 . S
C1371 H1379 0.929 . S
C1372 C1371 1.383 . S
C1372 C1373 1.377 . S
C1373 H1357 0.930 . S
C1373 C1372 1.377 . S
C1373 C1374 1.379 . S
C1374 H1358 0.931 . S
C1374 C1368 1.383 . S
C1374 C1373 1.379 . S
H1375 C1369 0.959 . S
H1376 C1369 0.961 . S
H1377 C1369 0.960 . S
H1378 C1370 0.930 . S
H1379 C1371 0.929 . S
H1380 C1388 0.929 . S
H1381 C1390 0.930 . S
H1382 C1392 0.930 . S
H1383 C1395 0.929 . S
H1384 C1398 0.930 . S
H1385 C1400 0.960 . S
H1386 C1400 0.960 . S
H1387 C1400 0.960 . S
C1388 H1380 0.929 . S
C1388 C1389 1.377 . S
C1388 C1390 1.384 . S
C1389 C1388 1.377 . S
C1389 C1395 1.390 . S
C1390 H1381 0.930 . S
C1390 C1388 1.384 . S
C1390 C1391 1.372 . S
C1391 C1390 1.372 . S
C1391 C1392 1.400 . S
C1391 C1396 1.506 . S
C1392 H1382 0.930 . S
C1392 C1391 1.400 . S
C1392 C1395 1.386 . S
H1393 C1409 0.930 . S
H1394 C1410 0.931 . S
C1395 H1383 0.929 . S
C1395 C1389 1.390 . S
C1395 C1392 1.386 . S
C1396 C1391 1.506 . S
C1396 C1398 1.401 . S
C1396 C1399 1.381 1_565 S
H1397 C1403 0.930 . S
C1398 H1384 0.930 . S
C1398 C1396 1.401 . S
C1398 C1401 1.403 1_565 S
C1399 C1396 1.381 1_545 S
C1399 C1400 1.524 . S
C1399 C1403 1.400 . S
C1400 H1385 0.960 . S
C1400 H1386 0.960 . S
C1400 H1387 0.960 . S
C1400 C1399 1.524 . S
C1401 C1398 1.403 1_545 S
C1401 C1402 1.392 . S
C1401 C1405 1.488 1_545 S
C1402 C1401 1.392 . S
C1402 C1403 1.385 . S
C1402 C1404 1.478 . S
C1403 H1397 0.930 . S
C1403 C1399 1.400 . S
C1403 C1402 1.385 . S
C1404 C1402 1.478 . S
C1404 C1406 1.381 . S
C1404 C1410 1.383 . S
C1405 C1401 1.488 1_565 S
C1405 H1411 0.981 . S
C1405 H1412 0.961 . S
C1405 H1413 0.946 1_565 S
C1406 C1404 1.381 . S
C1406 C1407 1.394 . S
C1406 H1414 0.930 . S
C1407 C1406 1.394 . S
C1407 C1408 1.383 . S
C1407 H1415 0.929 . S
C1408 C1407 1.383 . S
C1408 C1409 1.377 . S
C1409 H1393 0.930 . S
C1409 C1408 1.377 . S
C1409 C1410 1.379 . S
C1410 H1394 0.931 . S
C1410 C1404 1.383 . S
C1410 C1409 1.379 . S
H1411 C1405 0.981 . S
H1412 C1405 0.961 . S
H1413 C1405 0.946 1_545 S
H1414 C1406 0.930 . S
H1415 C1407 0.929 . S
H1416 C1424 0.929 . S
H1417 C1426 0.930 . S
H1418 C1428 0.930 . S
H1419 C1431 0.929 . S
H1420 C1434 0.930 . S
H1421 C1436 0.960 . S
H1422 C1436 0.960 . S
H1423 C1436 0.960 . S
C1424 H1416 0.929 . S
C1424 C1425 1.377 . S
C1424 C1426 1.384 . S
C1425 C1424 1.377 . S
C1425 C1431 1.390 . S
C1426 H1417 0.930 . S
C1426 C1424 1.384 . S
C1426 C1427 1.372 . S
C1427 C1426 1.372 . S
C1427 C1428 1.400 . S
C1427 C1432 1.490 . S
C1428 H1418 0.930 . S
C1428 C1427 1.400 . S
C1428 C1431 1.386 . S
H1429 C1445 0.930 . S
H1430 C1446 0.931 . S
C1431 H1419 0.929 . S
C1431 C1425 1.390 . S
C1431 C1428 1.386 . S
C1432 C1427 1.490 . S
C1432 C1434 1.395 . S
C1432 C1435 1.403 . S
H1433 C1439 0.930 . S
C1434 H1420 0.930 . S
C1434 C1432 1.395 . S
C1434 C1437 1.403 . S
C1435 C1432 1.403 . S
C1435 C1436 1.524 . S
C1435 C1439 1.400 . S
C1436 H1421 0.960 . S
C1436 H1422 0.960 . S
C1436 H1423 0.960 . S
C1436 C1435 1.524 . S
C1437 C1434 1.403 . S
C1437 C1438 1.392 . S
C1437 C1441 1.495 . S
C1438 C1437 1.392 . S
C1438 C1439 1.385 . S
C1438 C1440 1.478 . S
C1439 H1433 0.930 . S
C1439 C1435 1.400 . S
C1439 C1438 1.385 . S
C1440 C1438 1.478 . S
C1440 C1442 1.381 . S
C1440 C1446 1.383 . S
C1441 C1437 1.495 . S
C1441 H1447 0.959 . S
C1441 H1448 0.961 . S
C1441 H1449 0.960 . S
C1442 C1440 1.381 . S
C1442 C1443 1.394 . S
C1442 H1450 0.930 . S
C1443 C1442 1.394 . S
C1443 C1444 1.383 . S
C1443 H1451 0.929 . S
C1444 C1443 1.383 . S
C1444 C1445 1.377 . S
C1445 H1429 0.930 . S
C1445 C1444 1.377 . S
C1445 C1446 1.379 . S
C1446 H1430 0.931 . S
C1446 C1440 1.383 . S
C1446 C1445 1.379 . S
H1447 C1441 0.959 . S
H1448 C1441 0.961 . S
H1449 C1441 0.960 . S
H1450 C1442 0.930 . S
H1451 C1443 0.929 . S
H1452 C1460 0.929 . S
H1453 C1462 0.930 . S
H1454 C1464 0.930 . S
H1455 C1467 0.929 . S
H1456 C1470 0.930 . S
H1457 C1472 0.960 . S
H1458 C1472 0.960 . S
H1459 C1472 0.960 . S
C1460 H1452 0.929 . S
C1460 C1461 1.377 . S
C1460 C1462 1.384 . S
C1461 C1460 1.377 . S
C1461 C1467 1.390 . S
C1462 H1453 0.930 . S
C1462 C1460 1.384 . S
C1462 C1463 1.372 . S
C1463 C1462 1.372 . S
C1463 C1464 1.400 . S
C1463 C1468 1.490 . S
C1464 H1454 0.930 . S
C1464 C1463 1.400 . S
C1464 C1467 1.386 . S
H1465 C1481 0.930 . S
H1466 C1482 0.931 . S
C1467 H1455 0.929 . S
C1467 C1461 1.390 . S
C1467 C1464 1.386 . S
C1468 C1463 1.490 . S
C1468 C1470 1.395 . S
C1468 C1471 1.403 . S
H1469 C1475 0.930 . S
C1470 H1456 0.930 . S
C1470 C1468 1.395 . S
C1470 C1473 1.403 . S
C1471 C1468 1.403 . S
C1471 C1472 1.524 . S
C1471 C1475 1.400 . S
C1472 H1457 0.960 . S
C1472 H1458 0.960 . S
C1472 H1459 0.960 . S
C1472 C1471 1.524 . S
C1473 C1470 1.403 . S
C1473 C1474 1.392 . S
C1473 C1477 1.495 . S
C1474 C1473 1.392 . S
C1474 C1475 1.385 . S
C1474 C1476 1.478 . S
C1475 H1469 0.930 . S
C1475 C1471 1.400 . S
C1475 C1474 1.385 . S
C1476 C1474 1.478 . S
C1476 C1478 1.381 . S
C1476 C1482 1.383 . S
C1477 C1473 1.495 . S
C1477 H1483 0.959 . S
C1477 H1484 0.961 . S
C1477 H1485 0.960 . S
C1478 C1476 1.381 . S
C1478 C1479 1.394 . S
C1478 H1486 0.930 . S
C1479 C1478 1.394 . S
C1479 C1480 1.383 . S
C1479 H1487 0.929 . S
C1480 C1479 1.383 . S
C1480 C1481 1.377 . S
C1481 H1465 0.930 . S
C1481 C1480 1.377 . S
C1481 C1482 1.379 . S
C1482 H1466 0.931 . S
C1482 C1476 1.383 . S
C1482 C1481 1.379 . S
H1483 C1477 0.959 . S
H1484 C1477 0.961 . S
H1485 C1477 0.960 . S
H1486 C1478 0.930 . S
H1487 C1479 0.929 . S
H1488 C1496 0.929 . S
H1489 C1498 0.930 . S
H1490 C1500 0.930 . S
H1491 C1503 0.929 . S
H1492 C1506 0.930 . S
H1493 C1508 0.960 . S
H1494 C1508 0.960 . S
H1495 C1508 0.960 . S
C1496 H1488 0.929 . S
C1496 C1497 1.377 . S
C1496 C1498 1.384 . S
C1497 C1496 1.377 . S
C1497 C1503 1.390 . S
C1498 H1489 0.930 . S
C1498 C1496 1.384 . S
C1498 C1499 1.372 . S
C1499 C1498 1.372 . S
C1499 C1500 1.400 . S
C1499 C1504 1.490 . S
C1500 H1490 0.930 . S
C1500 C1499 1.400 . S
C1500 C1503 1.386 . S
H1501 C1517 0.930 . S
H1502 C1518 0.931 . S
C1503 H1491 0.929 . S
C1503 C1497 1.390 . S
C1503 C1500 1.386 . S
C1504 C1499 1.490 . S
C1504 C1506 1.395 . S
C1504 C1507 1.403 . S
H1505 C1511 0.930 . S
C1506 H1492 0.930 . S
C1506 C1504 1.395 . S
C1506 C1509 1.403 . S
C1507 C1504 1.403 . S
C1507 C1508 1.524 . S
C1507 C1511 1.400 . S
C1508 H1493 0.960 . S
C1508 H1494 0.960 . S
C1508 H1495 0.960 . S
C1508 C1507 1.524 . S
C1509 C1506 1.403 . S
C1509 C1510 1.392 . S
C1509 C1513 1.495 . S
C1510 C1509 1.392 . S
C1510 C1511 1.385 . S
C1510 C1512 1.478 . S
C1511 H1505 0.930 . S
C1511 C1507 1.400 . S
C1511 C1510 1.385 . S
C1512 C1510 1.478 . S
C1512 C1514 1.381 . S
C1512 C1518 1.383 . S
C1513 C1509 1.495 . S
C1513 H1519 0.959 . S
C1513 H1520 0.961 . S
C1513 H1521 0.960 . S
C1514 C1512 1.381 . S
C1514 C1515 1.394 . S
C1514 H1522 0.930 . S
C1515 C1514 1.394 . S
C1515 C1516 1.383 . S
C1515 H1523 0.929 . S
C1516 C1515 1.383 . S
C1516 C1517 1.377 . S
C1517 H1501 0.930 . S
C1517 C1516 1.377 . S
C1517 C1518 1.379 . S
C1518 H1502 0.931 . S
C1518 C1512 1.383 . S
C1518 C1517 1.379 . S
H1519 C1513 0.959 . S
H1520 C1513 0.961 . S
H1521 C1513 0.960 . S
H1522 C1514 0.930 . S
H1523 C1515 0.929 . S
H1524 C1532 0.929 . S
H1525 C1534 0.930 . S
H1526 C1536 0.930 . S
H1527 C1539 0.929 . S
H1528 C1542 0.930 . S
H1529 C1544 0.960 . S
H1530 C1544 0.960 . S
H1531 C1544 0.960 . S
C1532 H1524 0.929 . S
C1532 C1533 1.377 . S
C1532 C1534 1.384 . S
C1533 C1532 1.377 . S
C1533 C1539 1.390 . S
C1534 H1525 0.930 . S
C1534 C1532 1.384 . S
C1534 C1535 1.372 . S
C1535 C1534 1.372 . S
C1535 C1536 1.400 . S
C1535 C1540 1.490 . S
C1536 H1526 0.930 . S
C1536 C1535 1.400 . S
C1536 C1539 1.386 . S
H1537 C1553 0.930 . S
H1538 C1554 0.931 . S
C1539 H1527 0.929 . S
C1539 C1533 1.390 . S
C1539 C1536 1.386 . S
C1540 C1535 1.490 . S
C1540 C1542 1.395 . S
C1540 C1543 1.403 1_556 S
H1541 C1547 0.930 . S
C1542 H1528 0.930 . S
C1542 C1540 1.395 . S
C1542 C1545 1.403 . S
C1543 C1540 1.403 1_554 S
C1543 C1544 1.524 . S
C1543 C1547 1.400 . S
C1544 H1529 0.960 . S
C1544 H1530 0.960 . S
C1544 H1531 0.960 . S
C1544 C1543 1.524 . S
C1545 C1542 1.403 . S
C1545 C1546 1.392 1_556 S
C1545 C1549 1.495 . S
C1546 C1545 1.392 1_554 S
C1546 C1547 1.385 . S
C1546 C1548 1.478 . S
C1547 H1541 0.930 . S
C1547 C1543 1.400 . S
C1547 C1546 1.385 . S
C1548 C1546 1.478 . S
C1548 C1550 1.381 . S
C1548 C1554 1.383 . S
C1549 C1545 1.495 . S
C1549 H1555 0.959 . S
C1549 H1556 0.961 . S
C1549 H1557 0.960 . S
C1550 C1548 1.381 . S
C1550 C1551 1.394 . S
C1550 H1558 0.930 . S
C1551 C1550 1.394 . S
C1551 C1552 1.383 . S
C1551 H1559 0.929 . S
C1552 C1551 1.383 . S
C1552 C1553 1.377 . S
C1553 H1537 0.930 . S
C1553 C1552 1.377 . S
C1553 C1554 1.379 . S
C1554 H1538 0.931 . S
C1554 C1548 1.383 . S
C1554 C1553 1.379 . S
H1555 C1549 0.959 . S
H1556 C1549 0.961 . S
H1557 C1549 0.960 . S
H1558 C1550 0.930 . S
H1559 C1551 0.929 . S
H1560 C1568 0.929 . S
H1561 C1570 0.930 . S
H1562 C1572 0.930 . S
H1563 C1575 0.929 . S
H1564 C1578 0.930 . S
H1565 C1580 0.960 . S
H1566 C1580 0.960 . S
H1567 C1580 0.960 . S
C1568 H1560 0.929 . S
C1568 C1569 1.377 . S
C1568 C1570 1.384 . S
C1569 C1568 1.377 . S
C1569 C1575 1.390 . S
C1570 H1561 0.930 . S
C1570 C1568 1.384 . S
C1570 C1571 1.372 . S
C1571 C1570 1.372 . S
C1571 C1572 1.400 . S
C1571 C1576 1.490 . S
C1572 H1562 0.930 . S
C1572 C1571 1.400 . S
C1572 C1575 1.386 . S
H1573 C1589 0.930 . S
H1574 C1590 0.931 . S
C1575 H1563 0.929 . S
C1575 C1569 1.390 . S
C1575 C1572 1.386 . S
C1576 C1571 1.490 . S
C1576 C1578 1.395 . S
C1576 C1579 1.403 . S
H1577 C1583 0.930 . S
C1578 H1564 0.930 . S
C1578 C1576 1.395 . S
C1578 C1581 1.403 . S
C1579 C1576 1.403 . S
C1579 C1580 1.524 . S
C1579 C1583 1.400 . S
C1580 H1565 0.960 . S
C1580 H1566 0.960 . S
C1580 H1567 0.960 . S
C1580 C1579 1.524 . S
C1581 C1578 1.403 . S
C1581 C1582 1.392 . S
C1581 C1585 1.495 . S
C1582 C1581 1.392 . S
C1582 C1583 1.385 . S
C1582 C1584 1.478 . S
C1583 H1577 0.930 . S
C1583 C1579 1.400 . S
C1583 C1582 1.385 . S
C1584 C1582 1.478 . S
C1584 C1586 1.381 . S
C1584 C1590 1.383 . S
C1585 C1581 1.495 . S
C1585 H1591 0.959 . S
C1585 H1592 0.961 . S
C1585 H1593 0.960 . S
C1586 C1584 1.381 . S
C1586 C1587 1.394 . S
C1586 H1594 0.930 . S
C1587 C1586 1.394 . S
C1587 C1588 1.383 . S
C1587 H1595 0.929 . S
C1588 C1587 1.383 . S
C1588 C1589 1.377 . S
C1589 H1573 0.930 . S
C1589 C1588 1.377 . S
C1589 C1590 1.379 . S
C1590 H1574 0.931 . S
C1590 C1584 1.383 . S
C1590 C1589 1.379 . S
H1591 C1585 0.959 . S
H1592 C1585 0.961 . S
H1593 C1585 0.960 . S
H1594 C1586 0.930 . S
H1595 C1587 0.929 . S
H1596 C1604 0.929 . S
H1597 C1606 0.930 . S
H1598 C1608 0.930 . S
H1599 C1611 0.929 . S
H1600 C1614 0.930 . S
H1601 C1616 0.960 1_565 S
H1602 C1616 0.960 . S
H1603 C1616 0.960 . S
C1604 H1596 0.929 . S
C1604 C1605 1.377 . S
C1604 C1606 1.384 . S
C1605 C1604 1.377 . S
C1605 C1611 1.390 . S
C1606 H1597 0.930 . S
C1606 C1604 1.384 . S
C1606 C1607 1.372 . S
C1607 C1606 1.372 . S
C1607 C1608 1.400 . S
C1607 C1612 1.490 . S
C1608 H1598 0.930 . S
C1608 C1607 1.400 . S
C1608 C1611 1.386 . S
H1609 C1625 0.930 . S
H1610 C1626 0.931 . S
C1611 H1599 0.929 . S
C1611 C1605 1.390 . S
C1611 C1608 1.386 . S
C1612 C1607 1.490 . S
C1612 C1614 1.395 . S
C1612 C1615 1.403 . S
H1613 C1619 0.930 . S
C1614 H1600 0.930 . S
C1614 C1612 1.395 . S
C1614 C1617 1.403 1_545 S
C1615 C1612 1.403 . S
C1615 C1616 1.524 . S
C1615 C1619 1.400 1_545 S
C1616 H1601 0.960 1_545 S
C1616 H1602 0.960 . S
C1616 H1603 0.960 . S
C1616 C1615 1.524 . S
C1617 C1614 1.403 1_565 S
C1617 C1618 1.392 . S
C1617 C1621 1.495 . S
C1618 C1617 1.392 . S
C1618 C1619 1.385 . S
C1618 C1620 1.478 . S
C1619 H1613 0.930 . S
C1619 C1615 1.400 1_565 S
C1619 C1618 1.385 . S
C1620 C1618 1.478 . S
C1620 C1622 1.381 . S
C1620 C1626 1.383 . S
C1621 C1617 1.495 . S
C1621 H1627 0.959 1_565 S
C1621 H1628 0.961 . S
C1621 H1629 0.960 . S
C1622 C1620 1.381 . S
C1622 C1623 1.394 . S
C1622 H1630 0.930 . S
C1623 C1622 1.394 . S
C1623 C1624 1.383 . S
C1623 H1631 0.929 . S
C1624 C1623 1.383 . S
C1624 C1625 1.377 . S
C1625 H1609 0.930 . S
C1625 C1624 1.377 . S
C1625 C1626 1.379 . S
C1626 H1610 0.931 . S
C1626 C1620 1.383 . S
C1626 C1625 1.379 . S
H1627 C1621 0.959 1_545 S
H1628 C1621 0.961 . S
H1629 C1621 0.960 . S
H1630 C1622 0.930 . S
H1631 C1623 0.929 . S
H1632 C1640 0.929 . S
H1633 C1642 0.930 . S
H1634 C1644 0.930 . S
H1635 C1647 0.929 . S
H1636 C1650 0.930 . S
H1637 C1652 0.960 . S
H1638 C1652 0.960 . S
H1639 C1652 0.960 . S
C1640 H1632 0.929 . S
C1640 C1641 1.377 . S
C1640 C1642 1.384 . S
C1641 C1640 1.377 . S
C1641 C1647 1.390 . S
C1642 H1633 0.930 . S
C1642 C1640 1.384 . S
C1642 C1643 1.372 . S
C1643 C1642 1.372 . S
C1643 C1644 1.400 . S
C1643 C1648 1.490 . S
C1644 H1634 0.930 . S
C1644 C1643 1.400 . S
C1644 C1647 1.386 . S
H1645 C1661 0.930 . S
H1646 C1662 0.931 . S
C1647 H1635 0.929 . S
C1647 C1641 1.390 . S
C1647 C1644 1.386 . S
C1648 C1643 1.490 . S
C1648 C1650 1.395 . S
C1648 C1651 1.403 . S
H1649 C1655 0.930 . S
C1650 H1636 0.930 . S
C1650 C1648 1.395 . S
C1650 C1653 1.403 1_554 S
C1651 C1648 1.403 . S
C1651 C1652 1.524 . S
C1651 C1655 1.400 . S
C1652 H1637 0.960 . S
C1652 H1638 0.960 . S
C1652 H1639 0.960 . S
C1652 C1651 1.524 . S
C1653 C1650 1.403 1_556 S
C1653 C1654 1.392 . S
C1653 C1657 1.495 . S
C1654 C1653 1.392 . S
C1654 C1655 1.385 1_556 S
C1654 C1656 1.478 . S
C1655 H1649 0.930 . S
C1655 C1651 1.400 . S
C1655 C1654 1.385 1_554 S
C1656 C1654 1.478 . S
C1656 C1658 1.381 . S
C1656 C1662 1.383 . S
C1657 C1653 1.495 . S
C1657 H1663 0.959 . S
C1657 H1664 0.961 . S
C1657 H1665 0.960 . S
C1658 C1656 1.381 . S
C1658 C1659 1.394 . S
C1658 H1666 0.930 . S
C1659 C1658 1.394 . S
C1659 C1660 1.383 . S
C1659 H1667 0.929 . S
C1660 C1659 1.383 . S
C1660 C1661 1.377 . S
C1661 H1645 0.930 . S
C1661 C1660 1.377 . S
C1661 C1662 1.379 . S
C1662 H1646 0.931 . S
C1662 C1656 1.383 . S
C1662 C1661 1.379 . S
H1663 C1657 0.959 . S
H1664 C1657 0.961 . S
H1665 C1657 0.960 . S
H1666 C1658 0.930 . S
H1667 C1659 0.929 . S
H1668 C1676 0.929 . S
H1669 C1678 0.930 . S
H1670 C1680 0.930 . S
H1671 C1683 0.929 . S
H1672 C1686 0.930 . S
H1673 C1688 0.960 . S
H1674 C1688 0.960 . S
H1675 C1688 0.960 . S
C1676 H1668 0.929 . S
C1676 C1677 1.377 . S
C1676 C1678 1.384 . S
C1677 C1676 1.377 . S
C1677 C1683 1.390 . S
C1678 H1669 0.930 . S
C1678 C1676 1.384 . S
C1678 C1679 1.372 . S
C1679 C1678 1.372 . S
C1679 C1680 1.400 . S
C1679 C1684 1.490 . S
C1680 H1670 0.930 . S
C1680 C1679 1.400 . S
C1680 C1683 1.386 . S
H1681 C1697 0.930 . S
H1682 C1698 0.931 . S
C1683 H1671 0.929 . S
C1683 C1677 1.390 . S
C1683 C1680 1.386 . S
C1684 C1679 1.490 . S
C1684 C1686 1.395 . S
C1684 C1687 1.403 . S
H1685 C1691 0.918 1_565 S
C1686 H1672 0.930 . S
C1686 C1684 1.395 . S
C1686 C1689 1.433 . S
C1687 C1684 1.403 . S
C1687 C1688 1.524 . S
C1687 C1691 1.400 . S
C1688 H1673 0.960 . S
C1688 H1674 0.960 . S
C1688 H1675 0.960 . S
C1688 C1687 1.524 . S
C1689 C1686 1.433 . S
C1689 C1690 1.380 1_545 S
C1689 C1693 1.480 1_545 S
C1690 C1689 1.380 1_565 S
C1690 C1691 1.385 1_565 S
C1690 C1692 1.478 . S
C1691 H1685 0.918 1_545 S
C1691 C1687 1.400 . S
C1691 C1690 1.385 1_545 S
C1692 C1690 1.478 . S
C1692 C1694 1.381 . S
C1692 C1698 1.383 . S
C1693 C1689 1.480 1_565 S
C1693 H1699 0.959 . S
C1693 H1700 0.961 . S
C1693 H1701 0.960 . S
C1694 C1692 1.381 . S
C1694 C1695 1.394 . S
C1694 H1702 0.930 . S
C1695 C1694 1.394 . S
C1695 C1696 1.383 . S
C1695 H1703 0.929 . S
C1696 C1695 1.383 . S
C1696 C1697 1.377 . S
C1697 H1681 0.930 . S
C1697 C1696 1.377 . S
C1697 C1698 1.379 . S
C1698 H1682 0.931 . S
C1698 C1692 1.383 . S
C1698 C1697 1.379 . S
H1699 C1693 0.959 . S
H1700 C1693 0.961 . S
H1701 C1693 0.960 . S
H1702 C1694 0.930 . S
H1703 C1695 0.929 . S
H1704 C1712 0.929 . S
H1705 C1714 0.930 . S
H1706 C1716 0.930 . S
H1707 C1719 0.929 . S
H1708 C1722 0.930 . S
H1709 C1724 0.960 . S
H1710 C1724 0.960 . S
H1711 C1724 0.960 . S
C1712 H1704 0.929 . S
C1712 C1713 1.377 . S
C1712 C1714 1.384 . S
C1713 C1712 1.377 . S
C1713 C1719 1.390 . S
C1714 H1705 0.930 . S
C1714 C1712 1.384 . S
C1714 C1715 1.372 . S
C1715 C1714 1.372 . S
C1715 C1716 1.400 . S
C1715 C1720 1.490 . S
C1716 H1706 0.930 . S
C1716 C1715 1.400 . S
C1716 C1719 1.386 . S
H1717 C1733 0.930 . S
H1718 C1734 0.931 . S
C1719 H1707 0.929 . S
C1719 C1713 1.390 . S
C1719 C1716 1.386 . S
C1720 C1715 1.490 . S
C1720 C1722 1.395 . S
C1720 C1723 1.403 . S
H1721 C1727 0.930 . S
C1722 H1708 0.930 . S
C1722 C1720 1.395 . S
C1722 C1725 1.403 . S
C1723 C1720 1.403 . S
C1723 C1724 1.524 . S
C1723 C1727 1.400 . S
C1724 H1709 0.960 . S
C1724 H1710 0.960 . S
C1724 H1711 0.960 . S
C1724 C1723 1.524 . S
C1725 C1722 1.403 . S
C1725 C1726 1.392 . S
C1725 C1729 1.495 . S
C1726 C1725 1.392 . S
C1726 C1727 1.385 . S
C1726 C1728 1.478 . S
C1727 H1721 0.930 . S
C1727 C1723 1.400 . S
C1727 C1726 1.385 . S
C1728 C1726 1.478 . S
C1728 C1730 1.381 . S
C1728 C1734 1.383 . S
C1729 C1725 1.495 . S
C1729 H1735 0.959 . S
C1729 H1736 0.961 . S
C1729 H1737 0.960 . S
C1730 C1728 1.381 . S
C1730 C1731 1.394 . S
C1730 H1738 0.930 . S
C1731 C1730 1.394 . S
C1731 C1732 1.383 . S
C1731 H1739 0.929 . S
C1732 C1731 1.383 . S
C1732 C1733 1.377 . S
C1733 H1717 0.930 . S
C1733 C1732 1.377 . S
C1733 C1734 1.379 . S
C1734 H1718 0.931 . S
C1734 C1728 1.383 . S
C1734 C1733 1.379 . S
H1735 C1729 0.959 . S
H1736 C1729 0.961 . S
H1737 C1729 0.960 . S
H1738 C1730 0.930 . S
H1739 C1731 0.929 . S
H1740 C1748 0.929 . S
H1741 C1750 0.930 . S
H1742 C1752 0.930 . S
H1743 C1755 0.929 . S
H1744 C1758 0.930 . S
H1745 C1760 0.960 . S
H1746 C1760 0.960 . S
H1747 C1760 0.960 . S
C1748 H1740 0.929 . S
C1748 C1749 1.377 . S
C1748 C1750 1.384 . S
C1749 C1748 1.377 . S
C1749 C1755 1.390 . S
C1750 H1741 0.930 . S
C1750 C1748 1.384 . S
C1750 C1751 1.372 . S
C1751 C1750 1.372 . S
C1751 C1752 1.400 . S
C1751 C1756 1.490 . S
C1752 H1742 0.930 . S
C1752 C1751 1.400 . S
C1752 C1755 1.386 . S
H1753 C1769 0.930 . S
H1754 C1770 0.931 . S
C1755 H1743 0.929 . S
C1755 C1749 1.390 . S
C1755 C1752 1.386 . S
C1756 C1751 1.490 . S
C1756 C1758 1.395 . S
C1756 C1759 1.403 1_655 S
H1757 C1763 0.930 . S
C1758 H1744 0.930 . S
C1758 C1756 1.395 . S
C1758 C1761 1.403 1_655 S
C1759 C1756 1.403 1_455 S
C1759 C1760 1.524 . S
C1759 C1763 1.400 . S
C1760 H1745 0.960 . S
C1760 H1746 0.960 . S
C1760 H1747 0.960 . S
C1760 C1759 1.524 . S
C1761 C1758 1.403 1_455 S
C1761 C1762 1.392 . S
C1761 C1765 1.495 . S
C1762 C1761 1.392 . S
C1762 C1763 1.385 . S
C1762 C1764 1.478 . S
C1763 H1757 0.930 . S
C1763 C1759 1.400 . S
C1763 C1762 1.385 . S
C1764 C1762 1.478 . S
C1764 C1766 1.381 . S
C1764 C1770 1.383 . S
C1765 C1761 1.495 . S
C1765 H1771 0.959 1_455 S
C1765 H1772 0.961 . S
C1765 H1773 0.960 . S
C1766 C1764 1.381 . S
C1766 C1767 1.394 . S
C1766 H1774 0.930 . S
C1767 C1766 1.394 . S
C1767 C1768 1.383 . S
C1767 H1775 0.929 . S
C1768 C1767 1.383 . S
C1768 C1769 1.377 . S
C1769 H1753 0.930 . S
C1769 C1768 1.377 . S
C1769 C1770 1.379 . S
C1770 H1754 0.931 . S
C1770 C1764 1.383 . S
C1770 C1769 1.379 . S
H1771 C1765 0.959 1_655 S
H1772 C1765 0.961 . S
H1773 C1765 0.960 . S
H1774 C1766 0.930 . S
H1775 C1767 0.929 . S
H1776 C1784 0.929 . S
H1777 C1786 0.930 . S
H1778 C1788 0.902 1_655 S
H1779 C1791 0.929 . S
H1780 C1794 0.930 . S
H1781 C1796 0.960 . S
H1782 C1796 0.960 . S
H1783 C1796 0.960 . S
C1784 H1776 0.929 . S
C1784 C1785 1.377 . S
C1784 C1786 1.384 . S
C1785 C1784 1.377 . S
C1785 C1791 1.390 . S
C1786 H1777 0.930 . S
C1786 C1784 1.384 . S
C1786 C1787 1.372 . S
C1787 C1786 1.372 . S
C1787 C1788 1.400 . S
C1787 C1792 1.490 . S
C1788 H1778 0.902 1_455 S
C1788 C1787 1.400 . S
C1788 C1791 1.386 . S
H1789 C1805 0.930 . S
H1790 C1806 0.931 . S
C1791 H1779 0.929 . S
C1791 C1785 1.390 . S
C1791 C1788 1.386 . S
C1792 C1787 1.490 . S
C1792 C1794 1.395 . S
C1792 C1795 1.403 1_455 S
H1793 C1799 0.930 . S
C1794 H1780 0.930 . S
C1794 C1792 1.395 . S
C1794 C1797 1.403 . S
C1795 C1792 1.403 1_655 S
C1795 C1796 1.524 . S
C1795 C1799 1.400 . S
C1796 H1781 0.960 . S
C1796 H1782 0.960 . S
C1796 H1783 0.960 . S
C1796 C1795 1.524 . S
C1797 C1794 1.403 . S
C1797 C1798 1.392 1_455 S
C1797 C1801 1.495 . S
C1798 C1797 1.392 1_655 S
C1798 C1799 1.385 . S
C1798 C1800 1.478 . S
C1799 H1793 0.930 . S
C1799 C1795 1.400 . S
C1799 C1798 1.385 . S
C1800 C1798 1.478 . S
C1800 C1802 1.381 . S
C1800 C1806 1.383 . S
C1801 C1797 1.495 . S
C1801 H1807 0.959 . S
C1801 H1808 0.961 . S
C1801 H1809 0.960 . S
C1802 C1800 1.381 . S
C1802 C1803 1.394 . S
C1802 H1810 0.930 . S
C1803 C1802 1.394 . S
C1803 C1804 1.383 . S
C1803 H1811 0.929 . S
C1804 C1803 1.383 . S
C1804 C1805 1.377 . S
C1805 H1789 0.930 . S
C1805 C1804 1.377 . S
C1805 C1806 1.379 . S
C1806 H1790 0.931 . S
C1806 C1800 1.383 . S
C1806 C1805 1.379 . S
H1807 C1801 0.959 . S
H1808 C1801 0.961 . S
H1809 C1801 0.960 . S
H1810 C1802 0.930 . S
H1811 C1803 0.929 . S
H1812 C1820 0.929 . S
H1813 C1822 0.930 . S
H1814 C1824 0.930 . S
H1815 C1827 0.929 . S
H1816 C1830 0.930 . S
H1817 C1832 0.960 . S
H1818 C1832 0.960 . S
H1819 C1832 0.960 . S
C1820 H1812 0.929 . S
C1820 C1821 1.377 . S
C1820 C1822 1.384 . S
C1821 C1820 1.377 . S
C1821 C1827 1.390 . S
C1822 H1813 0.930 . S
C1822 C1820 1.384 . S
C1822 C1823 1.372 . S
C1823 C1822 1.372 . S
C1823 C1824 1.400 . S
C1823 C1828 1.490 . S
C1824 H1814 0.930 . S
C1824 C1823 1.400 . S
C1824 C1827 1.386 . S
H1825 C1841 0.930 . S
H1826 C1842 0.931 . S
C1827 H1815 0.929 . S
C1827 C1821 1.390 . S
C1827 C1824 1.386 . S
C1828 C1823 1.490 . S
C1828 C1830 1.395 . S
C1828 C1831 1.403 . S
H1829 C1835 0.930 . S
C1830 H1816 0.930 . S
C1830 C1828 1.395 . S
C1830 C1833 1.403 . S
C1831 C1828 1.403 . S
C1831 C1832 1.524 . S
C1831 C1835 1.400 . S
C1832 H1817 0.960 . S
C1832 H1818 0.960 . S
C1832 H1819 0.960 . S
C1832 C1831 1.524 . S
C1833 C1830 1.403 . S
C1833 C1834 1.392 . S
C1833 C1837 1.495 . S
C1834 C1833 1.392 . S
C1834 C1835 1.385 . S
C1834 C1836 1.478 . S
C1835 H1829 0.930 . S
C1835 C1831 1.400 . S
C1835 C1834 1.385 . S
C1836 C1834 1.478 . S
C1836 C1838 1.381 . S
C1836 C1842 1.383 . S
C1837 C1833 1.495 . S
C1837 H1843 0.959 . S
C1837 H1844 0.961 . S
C1837 H1845 0.960 . S
C1838 C1836 1.381 . S
C1838 C1839 1.394 . S
C1838 H1846 0.930 . S
C1839 C1838 1.394 . S
C1839 C1840 1.383 . S
C1839 H1847 0.929 . S
C1840 C1839 1.383 . S
C1840 C1841 1.377 . S
C1841 H1825 0.930 . S
C1841 C1840 1.377 . S
C1841 C1842 1.379 . S
C1842 H1826 0.931 . S
C1842 C1836 1.383 . S
C1842 C1841 1.379 . S
H1843 C1837 0.959 . S
H1844 C1837 0.961 . S
H1845 C1837 0.960 . S
H1846 C1838 0.930 . S
H1847 C1839 0.929 . S
H1848 C1856 0.929 . S
H1849 C1858 0.930 . S
H1850 C1860 0.930 . S
H1851 C1863 0.929 . S
H1852 C1866 0.930 . S
H1853 C1868 0.960 . S
H1854 C1868 0.960 1_455 S
H1855 C1868 0.960 . S
C1856 H1848 0.929 . S
C1856 C1857 1.377 . S
C1856 C1858 1.384 . S
C1857 C1856 1.377 . S
C1857 C1863 1.390 . S
C1858 H1849 0.930 . S
C1858 C1856 1.384 . S
C1858 C1859 1.372 . S
C1859 C1858 1.372 . S
C1859 C1860 1.400 . S
C1859 C1864 1.490 . S
C1860 H1850 0.930 . S
C1860 C1859 1.400 . S
C1860 C1863 1.386 . S
H1861 C1877 0.930 . S
H1862 C1878 0.931 . S
C1863 H1851 0.929 . S
C1863 C1857 1.390 . S
C1863 C1860 1.386 . S
C1864 C1859 1.490 . S
C1864 C1866 1.395 . S
C1864 C1867 1.385 1_455 S
H1865 C1871 0.930 . S
C1866 H1852 0.930 . S
C1866 C1864 1.395 . S
C1866 C1869 1.403 . S
C1867 C1864 1.385 1_655 S
C1867 C1868 1.524 . S
C1867 C1871 1.418 . S
C1868 H1853 0.960 . S
C1868 H1854 0.960 1_655 S
C1868 H1855 0.960 . S
C1868 C1867 1.524 . S
C1869 C1866 1.403 . S
C1869 C1870 1.392 1_455 S
C1869 C1873 1.495 . S
C1870 C1869 1.392 1_655 S
C1870 C1871 1.385 . S
C1870 C1872 1.478 . S
C1871 H1865 0.930 . S
C1871 C1867 1.418 . S
C1871 C1870 1.385 . S
C1872 C1870 1.478 . S
C1872 C1874 1.381 . S
C1872 C1878 1.383 . S
C1873 C1869 1.495 . S
C1873 H1879 0.959 . S
C1873 H1880 0.961 1_455 S
C1873 H1881 0.960 . S
C1874 C1872 1.381 . S
C1874 C1875 1.394 . S
C1874 H1882 0.930 . S
C1875 C1874 1.394 . S
C1875 C1876 1.383 . S
C1875 H1883 0.929 . S
C1876 C1875 1.383 . S
C1876 C1877 1.377 . S
C1877 H1861 0.930 . S
C1877 C1876 1.377 . S
C1877 C1878 1.379 . S
C1878 H1862 0.931 . S
C1878 C1872 1.383 . S
C1878 C1877 1.379 . S
H1879 C1873 0.959 . S
H1880 C1873 0.961 1_655 S
H1881 C1873 0.960 . S
H1882 C1874 0.930 . S
H1883 C1875 0.929 . S
H1884 C1892 0.929 . S
H1885 C1894 0.930 . S
H1886 C1896 0.930 1_655 S
H1887 C1899 0.929 . S
H1888 C1902 0.930 . S
H1889 C1904 0.960 . S
H1890 C1904 0.960 . S
H1891 C1904 0.960 . S
C1892 H1884 0.929 . S
C1892 C1893 1.377 . S
C1892 C1894 1.384 . S
C1893 C1892 1.377 . S
C1893 C1899 1.390 . S
C1894 H1885 0.930 . S
C1894 C1892 1.384 . S
C1894 C1895 1.372 . S
C1895 C1894 1.372 . S
C1895 C1896 1.400 . S
C1895 C1900 1.490 1_455 S
C1896 H1886 0.930 1_455 S
C1896 C1895 1.400 . S
C1896 C1899 1.386 . S
H1897 C1913 0.930 . S
H1898 C1914 0.931 . S
C1899 H1887 0.929 . S
C1899 C1893 1.390 . S
C1899 C1896 1.386 . S
C1900 C1895 1.490 1_655 S
C1900 C1902 1.395 1_655 S
C1900 C1903 1.403 . S
H1901 C1907 0.930 . S
C1902 H1888 0.930 . S
C1902 C1900 1.395 1_455 S
C1902 C1905 1.403 1_455 S
C1903 C1900 1.403 . S
C1903 C1904 1.524 . S
C1903 C1907 1.400 . S
C1904 H1889 0.960 . S
C1904 H1890 0.960 . S
C1904 H1891 0.960 . S
C1904 C1903 1.524 . S
C1905 C1902 1.403 1_655 S
C1905 C1906 1.392 . S
C1905 C1909 1.481 1_655 S
C1906 C1905 1.392 . S
C1906 C1907 1.385 . S
C1906 C1908 1.478 . S
C1907 H1901 0.930 . S
C1907 C1903 1.400 . S
C1907 C1906 1.385 . S
C1908 C1906 1.478 . S
C1908 C1910 1.381 . S
C1908 C1914 1.383 . S
C1909 C1905 1.481 1_455 S
C1909 H1915 0.992 . S
C1909 H1916 0.941 1_455 S
C1909 H1917 0.963 . S
C1910 C1908 1.381 . S
C1910 C1911 1.394 . S
C1910 H1918 0.930 . S
C1911 C1910 1.394 . S
C1911 C1912 1.383 . S
C1911 H1919 0.929 . S
C1912 C1911 1.383 . S
C1912 C1913 1.377 . S
C1913 H1897 0.930 . S
C1913 C1912 1.377 . S
C1913 C1914 1.379 . S
C1914 H1898 0.931 . S
C1914 C1908 1.383 . S
C1914 C1913 1.379 . S
H1915 C1909 0.992 . S
H1916 C1909 0.941 1_655 S
H1917 C1909 0.963 . S
H1918 C1910 0.930 . S
H1919 C1911 0.929 . S
H1920 C1928 0.929 . S
H1921 C1930 0.930 . S
H1922 C1932 0.930 . S
H1923 C1935 0.929 . S
H1924 C1938 0.930 . S
H1925 C1940 0.960 . S
H1926 C1940 0.960 . S
H1927 C1940 0.960 . S
C1928 H1920 0.929 . S
C1928 C1929 1.377 . S
C1928 C1930 1.384 . S
C1929 C1928 1.377 . S
C1929 C1935 1.390 . S
C1930 H1921 0.930 . S
C1930 C1928 1.384 . S
C1930 C1931 1.372 . S
C1931 C1930 1.372 . S
C1931 C1932 1.400 . S
C1931 C1936 1.490 . S
C1932 H1922 0.930 . S
C1932 C1931 1.400 . S
C1932 C1935 1.386 . S
H1933 C1949 0.930 . S
H1934 C1950 0.931 . S
C1935 H1923 0.929 . S
C1935 C1929 1.390 . S
C1935 C1932 1.386 . S
C1936 C1931 1.490 . S
C1936 C1938 1.395 . S
C1936 C1939 1.403 . S
H1937 C1943 0.930 . S
C1938 H1924 0.930 . S
C1938 C1936 1.395 . S
C1938 C1941 1.403 . S
C1939 C1936 1.403 . S
C1939 C1940 1.524 . S
C1939 C1943 1.400 . S
C1940 H1925 0.960 . S
C1940 H1926 0.960 . S
C1940 H1927 0.960 . S
C1940 C1939 1.524 . S
C1941 C1938 1.403 . S
C1941 C1942 1.392 . S
C1941 C1945 1.495 . S
C1942 C1941 1.392 . S
C1942 C1943 1.385 . S
C1942 C1944 1.478 . S
C1943 H1937 0.930 . S
C1943 C1939 1.400 . S
C1943 C1942 1.385 . S
C1944 C1942 1.478 . S
C1944 C1946 1.381 . S
C1944 C1950 1.383 . S
C1945 C1941 1.495 . S
C1945 H1951 0.959 . S
C1945 H1952 0.961 . S
C1945 H1953 0.960 . S
C1946 C1944 1.381 . S
C1946 C1947 1.394 . S
C1946 H1954 0.930 . S
C1947 C1946 1.394 . S
C1947 C1948 1.383 . S
C1947 H1955 0.929 . S
C1948 C1947 1.383 . S
C1948 C1949 1.377 . S
C1949 H1933 0.930 . S
C1949 C1948 1.377 . S
C1949 C1950 1.379 . S
C1950 H1934 0.931 . S
C1950 C1944 1.383 . S
C1950 C1949 1.379 . S
H1951 C1945 0.959 . S
H1952 C1945 0.961 . S
H1953 C1945 0.960 . S
H1954 C1946 0.930 . S
H1955 C1947 0.929 . S
H1956 C1964 0.929 . S
H1957 C1966 0.930 . S
H1958 C1968 0.930 . S
H1959 C1971 0.929 . S
H1960 C1974 0.930 . S
H1961 C1976 0.960 . S
H1962 C1976 0.960 1_565 S
H1963 C1976 0.960 1_565 S
C1964 H1956 0.929 . S
C1964 C1965 1.377 . S
C1964 C1966 1.384 . S
C1965 C1964 1.377 . S
C1965 C1971 1.390 . S
C1966 H1957 0.930 . S
C1966 C1964 1.384 . S
C1966 C1967 1.372 . S
C1967 C1966 1.372 . S
C1967 C1968 1.400 . S
C1967 C1972 1.490 . S
C1968 H1958 0.930 . S
C1968 C1967 1.400 . S
C1968 C1971 1.386 . S
H1969 C1985 0.930 . S
H1970 C1986 0.931 . S
C1971 H1959 0.929 . S
C1971 C1965 1.390 . S
C1971 C1968 1.386 . S
C1972 C1967 1.490 . S
C1972 C1974 1.395 . S
C1972 C1975 1.403 . S
H1973 C1979 0.930 . S
C1974 H1960 0.930 . S
C1974 C1972 1.395 . S
C1974 C1977 1.403 . S
C1975 C1972 1.403 . S
C1975 C1976 1.524 1_565 S
C1975 C1979 1.400 1_565 S
C1976 H1961 0.960 . S
C1976 H1962 0.960 1_545 S
C1976 H1963 0.960 1_545 S
C1976 C1975 1.524 1_545 S
C1977 C1974 1.403 . S
C1977 C1978 1.392 1_565 S
C1977 C1981 1.495 . S
C1978 C1977 1.392 1_545 S
C1978 C1979 1.385 . S
C1978 C1980 1.478 . S
C1979 H1973 0.930 . S
C1979 C1975 1.400 1_545 S
C1979 C1978 1.385 . S
C1980 C1978 1.478 . S
C1980 C1982 1.381 . S
C1980 C1986 1.383 . S
C1981 C1977 1.495 . S
C1981 H1987 0.959 . S
C1981 H1988 0.961 . S
C1981 H1989 0.960 . S
C1982 C1980 1.381 . S
C1982 C1983 1.394 . S
C1982 H1990 0.930 . S
C1983 C1982 1.394 . S
C1983 C1984 1.383 . S
C1983 H1991 0.929 . S
C1984 C1983 1.383 . S
C1984 C1985 1.377 . S
C1985 H1969 0.930 . S
C1985 C1984 1.377 . S
C1985 C1986 1.379 . S
C1986 H1970 0.931 . S
C1986 C1980 1.383 . S
C1986 C1985 1.379 . S
H1987 C1981 0.959 . S
H1988 C1981 0.961 . S
H1989 C1981 0.960 . S
H1990 C1982 0.930 . S
H1991 C1983 0.929 . S
H1992 C2000 0.929 . S
H1993 C2002 0.930 . S
H1994 C2004 0.930 . S
H1995 C2007 0.929 . S
H1996 C2010 0.930 . S
H1997 C2012 0.960 . S
H1998 C2012 0.960 . S
H1999 C2012 0.960 . S
C2000 H1992 0.929 . S
C2000 C2001 1.377 . S
C2000 C2002 1.384 . S
C2001 C2000 1.377 . S
C2001 C2007 1.390 . S
C2002 H1993 0.930 . S
C2002 C2000 1.384 . S
C2002 C2003 1.372 . S
C2003 C2002 1.372 . S
C2003 C2004 1.400 . S
C2003 C2008 1.490 . S
C2004 H1994 0.930 . S
C2004 C2003 1.400 . S
C2004 C2007 1.386 . S
H2005 C2021 0.930 . S
H2006 C2022 0.931 . S
C2007 H1995 0.929 . S
C2007 C2001 1.390 . S
C2007 C2004 1.386 . S
C2008 C2003 1.490 . S
C2008 C2010 1.395 . S
C2008 C2011 1.403 . S
H2009 C2015 0.930 . S
C2010 H1996 0.930 . S
C2010 C2008 1.395 . S
C2010 C2013 1.403 1_556 S
C2011 C2008 1.403 . S
C2011 C2012 1.524 . S
C2011 C2015 1.400 1_556 S
C2012 H1997 0.960 . S
C2012 H1998 0.960 . S
C2012 H1999 0.960 . S
C2012 C2011 1.524 . S
C2013 C2010 1.403 1_554 S
C2013 C2014 1.392 . S
C2013 C2017 1.495 . S
C2014 C2013 1.392 . S
C2014 C2015 1.385 . S
C2014 C2016 1.478 . S
C2015 H2009 0.930 . S
C2015 C2011 1.400 1_554 S
C2015 C2014 1.385 . S
C2016 C2014 1.478 . S
C2016 C2018 1.381 . S
C2016 C2022 1.383 . S
C2017 C2013 1.495 . S
C2017 H2023 0.959 . S
C2017 H2024 0.961 . S
C2017 H2025 0.960 . S
C2018 C2016 1.381 . S
C2018 C2019 1.394 . S
C2018 H2026 0.930 . S
C2019 C2018 1.394 . S
C2019 C2020 1.383 . S
C2019 H2027 0.929 . S
C2020 C2019 1.383 . S
C2020 C2021 1.377 . S
C2021 H2005 0.930 . S
C2021 C2020 1.377 . S
C2021 C2022 1.379 . S
C2022 H2006 0.931 . S
C2022 C2016 1.383 . S
C2022 C2021 1.379 . S
H2023 C2017 0.959 . S
H2024 C2017 0.961 . S
H2025 C2017 0.960 . S
H2026 C2018 0.930 . S
H2027 C2019 0.929 . S
H2028 C2036 0.929 . S
H2029 C2038 0.930 . S
H2030 C2040 0.930 . S
H2031 C2043 0.929 . S
H2032 C2046 0.930 . S
H2033 C2048 0.960 . S
H2034 C2048 0.960 . S
H2035 C2048 0.960 . S
C2036 H2028 0.929 . S
C2036 C2037 1.377 . S
C2036 C2038 1.384 . S
C2037 C2036 1.377 . S
C2037 C2043 1.390 . S
C2038 H2029 0.930 . S
C2038 C2036 1.384 . S
C2038 C2039 1.372 . S
C2039 C2038 1.372 . S
C2039 C2040 1.400 . S
C2039 C2044 1.490 1_545 S
C2040 H2030 0.930 . S
C2040 C2039 1.400 . S
C2040 C2043 1.386 . S
H2041 C2057 0.930 . S
H2042 C2058 0.931 . S
C2043 H2031 0.929 . S
C2043 C2037 1.390 . S
C2043 C2040 1.386 . S
C2044 C2039 1.490 1_565 S
C2044 C2046 1.395 . S
C2044 C2047 1.403 1_565 S
H2045 C2051 0.930 . S
C2046 H2032 0.930 . S
C2046 C2044 1.395 . S
C2046 C2049 1.403 . S
C2047 C2044 1.403 1_545 S
C2047 C2048 1.524 . S
C2047 C2051 1.400 1_545 S
C2048 H2033 0.960 . S
C2048 H2034 0.960 . S
C2048 H2035 0.960 . S
C2048 C2047 1.524 . S
C2049 C2046 1.403 . S
C2049 C2050 1.392 . S
C2049 C2053 1.495 . S
C2050 C2049 1.392 . S
C2050 C2051 1.385 . S
C2050 C2052 1.478 . S
C2051 H2045 0.930 . S
C2051 C2047 1.400 1_565 S
C2051 C2050 1.385 . S
C2052 C2050 1.478 . S
C2052 C2054 1.381 . S
C2052 C2058 1.383 . S
C2053 C2049 1.495 . S
C2053 H2059 0.959 . S
C2053 H2060 0.961 . S
C2053 H2061 0.960 . S
C2054 C2052 1.381 . S
C2054 C2055 1.394 . S
C2054 H2062 0.930 . S
C2055 C2054 1.394 . S
C2055 C2056 1.383 . S
C2055 H2063 0.929 . S
C2056 C2055 1.383 . S
C2056 C2057 1.377 . S
C2057 H2041 0.930 . S
C2057 C2056 1.377 . S
C2057 C2058 1.379 . S
C2058 H2042 0.931 . S
C2058 C2052 1.383 . S
C2058 C2057 1.379 . S
H2059 C2053 0.959 . S
H2060 C2053 0.961 . S
H2061 C2053 0.960 . S
H2062 C2054 0.930 . S
H2063 C2055 0.929 . S
H2064 C2072 0.929 . S
H2065 C2074 0.930 . S
H2066 C2076 0.930 . S
H2067 C2079 0.929 . S
H2068 C2082 0.930 . S
H2069 C2084 0.960 . S
H2070 C2084 0.960 . S
H2071 C2084 0.960 . S
C2072 H2064 0.929 . S
C2072 C2073 1.377 . S
C2072 C2074 1.384 . S
C2073 C2072 1.377 . S
C2073 C2079 1.390 . S
C2074 H2065 0.930 . S
C2074 C2072 1.384 . S
C2074 C2075 1.372 . S
C2075 C2074 1.372 . S
C2075 C2076 1.400 . S
C2075 C2080 1.490 . S
C2076 H2066 0.930 . S
C2076 C2075 1.400 . S
C2076 C2079 1.386 . S
H2077 C2093 0.930 . S
H2078 C2094 0.931 . S
C2079 H2067 0.929 . S
C2079 C2073 1.390 . S
C2079 C2076 1.386 . S
C2080 C2075 1.490 . S
C2080 C2082 1.395 . S
C2080 C2083 1.403 . S
H2081 C2087 0.930 . S
C2082 H2068 0.930 . S
C2082 C2080 1.395 . S
C2082 C2085 1.403 . S
C2083 C2080 1.403 . S
C2083 C2084 1.524 . S
C2083 C2087 1.400 . S
C2084 H2069 0.960 . S
C2084 H2070 0.960 . S
C2084 H2071 0.960 . S
C2084 C2083 1.524 . S
C2085 C2082 1.403 . S
C2085 C2086 1.392 . S
C2085 C2089 1.495 . S
C2086 C2085 1.392 . S
C2086 C2087 1.385 . S
C2086 C2088 1.478 . S
C2087 H2081 0.930 . S
C2087 C2083 1.400 . S
C2087 C2086 1.385 . S
C2088 C2086 1.478 . S
C2088 C2090 1.381 . S
C2088 C2094 1.383 . S
C2089 C2085 1.495 . S
C2089 H2095 0.959 . S
C2089 H2096 0.961 . S
C2089 H2097 0.960 . S
C2090 C2088 1.381 . S
C2090 C2091 1.394 . S
C2090 H2098 0.930 . S
C2091 C2090 1.394 . S
C2091 C2092 1.383 . S
C2091 H2099 0.929 . S
C2092 C2091 1.383 . S
C2092 C2093 1.377 . S
C2093 H2077 0.930 . S
C2093 C2092 1.377 . S
C2093 C2094 1.379 . S
C2094 H2078 0.931 . S
C2094 C2088 1.383 . S
C2094 C2093 1.379 . S
H2095 C2089 0.959 . S
H2096 C2089 0.961 . S
H2097 C2089 0.960 . S
H2098 C2090 0.930 . S
H2099 C2091 0.929 . S
H2100 C2108 0.929 . S
H2101 C2110 0.930 . S
H2102 C2112 0.930 . S
H2103 C2115 0.929 . S
H2104 C2118 0.930 . S
H2105 C2120 0.960 . S
H2106 C2120 0.960 . S
H2107 C2120 0.960 . S
C2108 H2100 0.929 . S
C2108 C2109 1.377 . S
C2108 C2110 1.384 . S
C2109 C2108 1.377 . S
C2109 C2115 1.390 . S
C2110 H2101 0.930 . S
C2110 C2108 1.384 . S
C2110 C2111 1.372 . S
C2111 C2110 1.372 . S
C2111 C2112 1.400 . S
C2111 C2116 1.490 . S
C2112 H2102 0.930 . S
C2112 C2111 1.400 . S
C2112 C2115 1.386 . S
H2113 C2129 0.930 . S
H2114 C2130 0.931 . S
C2115 H2103 0.929 . S
C2115 C2109 1.390 . S
C2115 C2112 1.386 . S
C2116 C2111 1.490 . S
C2116 C2118 1.395 1_554 S
C2116 C2119 1.403 . S
H2117 C2123 0.930 . S
C2118 H2104 0.930 . S
C2118 C2116 1.395 1_556 S
C2118 C2121 1.403 . S
C2119 C2116 1.403 . S
C2119 C2120 1.524 . S
C2119 C2123 1.400 1_554 S
C2120 H2105 0.960 . S
C2120 H2106 0.960 . S
C2120 H2107 0.960 . S
C2120 C2119 1.524 . S
C2121 C2118 1.403 . S
C2121 C2122 1.392 . S
C2121 C2125 1.495 . S
C2122 C2121 1.392 . S
C2122 C2123 1.385 . S
C2122 C2124 1.478 . S
C2123 H2117 0.930 . S
C2123 C2119 1.400 1_556 S
C2123 C2122 1.385 . S
C2124 C2122 1.478 . S
C2124 C2126 1.381 . S
C2124 C2130 1.383 . S
C2125 C2121 1.495 . S
C2125 H2131 0.959 . S
C2125 H2132 0.961 . S
C2125 H2133 0.960 . S
C2126 C2124 1.381 . S
C2126 C2127 1.394 . S
C2126 H2134 0.930 . S
C2127 C2126 1.394 . S
C2127 C2128 1.383 . S
C2127 H2135 0.929 . S
C2128 C2127 1.383 . S
C2128 C2129 1.377 . S
C2129 H2113 0.930 . S
C2129 C2128 1.377 . S
C2129 C2130 1.379 . S
C2130 H2114 0.931 . S
C2130 C2124 1.383 . S
C2130 C2129 1.379 . S
H2131 C2125 0.959 . S
H2132 C2125 0.961 . S
H2133 C2125 0.960 . S
H2134 C2126 0.930 . S
H2135 C2127 0.929 . S
H2136 C2144 0.929 . S
H2137 C2146 0.930 . S
H2138 C2148 0.930 . S
H2139 C2151 0.929 . S
H2140 C2154 0.930 . S
H2141 C2156 0.960 . S
H2142 C2156 0.960 . S
H2143 C2156 0.960 . S
C2144 H2136 0.929 . S
C2144 C2145 1.377 . S
C2144 C2146 1.384 . S
C2145 C2144 1.377 . S
C2145 C2151 1.390 . S
C2146 H2137 0.930 . S
C2146 C2144 1.384 . S
C2146 C2147 1.372 . S
C2147 C2146 1.372 . S
C2147 C2148 1.400 . S
C2147 C2152 1.490 . S
C2148 H2138 0.930 . S
C2148 C2147 1.400 . S
C2148 C2151 1.386 . S
H2149 C2165 0.930 . S
H2150 C2166 0.931 . S
C2151 H2139 0.929 . S
C2151 C2145 1.390 . S
C2151 C2148 1.386 . S
C2152 C2147 1.490 . S
C2152 C2154 1.395 . S
C2152 C2155 1.403 . S
H2153 C2159 0.930 . S
C2154 H2140 0.930 . S
C2154 C2152 1.395 . S
C2154 C2157 1.403 . S
C2155 C2152 1.403 . S
C2155 C2156 1.524 . S
C2155 C2159 1.400 . S
C2156 H2141 0.960 . S
C2156 H2142 0.960 . S
C2156 H2143 0.960 . S
C2156 C2155 1.524 . S
C2157 C2154 1.403 . S
C2157 C2158 1.392 . S
C2157 C2161 1.495 . S
C2158 C2157 1.392 . S
C2158 C2159 1.385 . S
C2158 C2160 1.478 . S
C2159 H2153 0.930 . S
C2159 C2155 1.400 . S
C2159 C2158 1.385 . S
C2160 C2158 1.478 . S
C2160 C2162 1.381 . S
C2160 C2166 1.383 . S
C2161 C2157 1.495 . S
C2161 H2167 0.959 . S
C2161 H2168 0.961 . S
C2161 H2169 0.960 . S
C2162 C2160 1.381 . S
C2162 C2163 1.394 . S
C2162 H2170 0.930 . S
C2163 C2162 1.394 . S
C2163 C2164 1.383 . S
C2163 H2171 0.929 . S
C2164 C2163 1.383 . S
C2164 C2165 1.377 . S
C2165 H2149 0.930 . S
C2165 C2164 1.377 . S
C2165 C2166 1.379 . S
C2166 H2150 0.931 . S
C2166 C2160 1.383 . S
C2166 C2165 1.379 . S
H2167 C2161 0.959 . S
H2168 C2161 0.961 . S
H2169 C2161 0.960 . S
H2170 C2162 0.930 . S
H2171 C2163 0.929 . S
H2172 C2180 0.929 . S
H2173 C2182 0.930 . S
H2174 C2184 0.930 . S
H2175 C2187 0.929 . S
H2176 C2190 0.930 . S
H2177 C2192 0.960 . S
H2178 C2192 0.960 . S
H2179 C2192 0.960 . S
C2180 H2172 0.929 . S
C2180 C2181 1.377 . S
C2180 C2182 1.384 . S
C2181 C2180 1.377 . S
C2181 C2187 1.390 . S
C2182 H2173 0.930 . S
C2182 C2180 1.384 . S
C2182 C2183 1.372 . S
C2183 C2182 1.372 . S
C2183 C2184 1.400 . S
C2183 C2188 1.490 . S
C2184 H2174 0.930 . S
C2184 C2183 1.400 . S
C2184 C2187 1.386 . S
H2185 C2201 0.930 . S
H2186 C2202 0.931 . S
C2187 H2175 0.929 . S
C2187 C2181 1.390 . S
C2187 C2184 1.386 . S
C2188 C2183 1.490 . S
C2188 C2190 1.395 . S
C2188 C2191 1.403 . S
H2189 C2195 0.930 . S
C2190 H2176 0.930 . S
C2190 C2188 1.395 . S
C2190 C2193 1.403 . S
C2191 C2188 1.403 . S
C2191 C2192 1.524 . S
C2191 C2195 1.400 . S
C2192 H2177 0.960 . S
C2192 H2178 0.960 . S
C2192 H2179 0.960 . S
C2192 C2191 1.524 . S
C2193 C2190 1.403 . S
C2193 C2194 1.392 . S
C2193 C2197 1.495 . S
C2194 C2193 1.392 . S
C2194 C2195 1.385 . S
C2194 C2196 1.478 . S
C2195 H2189 0.930 . S
C2195 C2191 1.400 . S
C2195 C2194 1.385 . S
C2196 C2194 1.478 . S
C2196 C2198 1.381 . S
C2196 C2202 1.383 . S
C2197 C2193 1.495 . S
C2197 H2203 0.959 . S
C2197 H2204 0.961 . S
C2197 H2205 0.960 . S
C2198 C2196 1.381 . S
C2198 C2199 1.394 . S
C2198 H2206 0.930 . S
C2199 C2198 1.394 . S
C2199 C2200 1.383 . S
C2199 H2207 0.929 . S
C2200 C2199 1.383 . S
C2200 C2201 1.377 . S
C2201 H2185 0.930 . S
C2201 C2200 1.377 . S
C2201 C2202 1.379 . S
C2202 H2186 0.931 . S
C2202 C2196 1.383 . S
C2202 C2201 1.379 . S
H2203 C2197 0.959 . S
H2204 C2197 0.961 . S
H2205 C2197 0.960 . S
H2206 C2198 0.930 . S
H2207 C2199 0.929 . S
H2208 C2216 0.929 . S
H2209 C2218 0.930 . S
H2210 C2220 0.930 . S
H2211 C2223 0.929 . S
H2212 C2226 0.930 . S
H2213 C2228 0.960 . S
H2214 C2228 0.960 . S
H2215 C2228 0.960 . S
C2216 H2208 0.929 . S
C2216 C2217 1.377 . S
C2216 C2218 1.384 . S
C2217 C2216 1.377 . S
C2217 C2223 1.390 . S
C2218 H2209 0.930 . S
C2218 C2216 1.384 . S
C2218 C2219 1.372 . S
C2219 C2218 1.372 . S
C2219 C2220 1.400 . S
C2219 C2224 1.490 . S
C2220 H2210 0.930 . S
C2220 C2219 1.400 . S
C2220 C2223 1.386 . S
H2221 C2237 0.930 . S
H2222 C2238 0.931 . S
C2223 H2211 0.929 . S
C2223 C2217 1.390 . S
C2223 C2220 1.386 . S
C2224 C2219 1.490 . S
C2224 C2226 1.395 . S
C2224 C2227 1.403 . S
H2225 C2231 0.930 . S
C2226 H2212 0.930 . S
C2226 C2224 1.395 . S
C2226 C2229 1.403 . S
C2227 C2224 1.403 . S
C2227 C2228 1.524 . S
C2227 C2231 1.400 . S
C2228 H2213 0.960 . S
C2228 H2214 0.960 . S
C2228 H2215 0.960 . S
C2228 C2227 1.524 . S
C2229 C2226 1.403 . S
C2229 C2230 1.392 . S
C2229 C2233 1.495 . S
C2230 C2229 1.392 . S
C2230 C2231 1.385 . S
C2230 C2232 1.478 . S
C2231 H2225 0.930 . S
C2231 C2227 1.400 . S
C2231 C2230 1.385 . S
C2232 C2230 1.478 . S
C2232 C2234 1.381 . S
C2232 C2238 1.383 . S
C2233 C2229 1.495 . S
C2233 H2239 0.959 . S
C2233 H2240 0.961 . S
C2233 H2241 0.960 . S
C2234 C2232 1.381 . S
C2234 C2235 1.394 . S
C2234 H2242 0.930 . S
C2235 C2234 1.394 . S
C2235 C2236 1.383 . S
C2235 H2243 0.929 . S
C2236 C2235 1.383 . S
C2236 C2237 1.377 . S
C2237 H2221 0.930 . S
C2237 C2236 1.377 . S
C2237 C2238 1.379 . S
C2238 H2222 0.931 . S
C2238 C2232 1.383 . S
C2238 C2237 1.379 . S
H2239 C2233 0.959 . S
H2240 C2233 0.961 . S
H2241 C2233 0.960 . S
H2242 C2234 0.930 . S
H2243 C2235 0.929 . S
H2244 C2252 0.929 . S
H2245 C2254 0.930 . S
H2246 C2256 0.930 . S
H2247 C2259 0.929 . S
H2248 C2262 0.930 . S
H2249 C2264 0.960 . S
H2250 C2264 0.960 . S
H2251 C2264 0.960 . S
C2252 H2244 0.929 . S
C2252 C2253 1.377 . S
C2252 C2254 1.384 . S
C2253 C2252 1.377 . S
C2253 C2259 1.390 . S
C2254 H2245 0.930 . S
C2254 C2252 1.384 . S
C2254 C2255 1.372 . S
C2255 C2254 1.372 . S
C2255 C2256 1.400 . S
C2255 C2260 1.490 . S
C2256 H2246 0.930 . S
C2256 C2255 1.400 . S
C2256 C2259 1.386 . S
H2257 C2273 0.930 . S
H2258 C2274 0.931 . S
C2259 H2247 0.929 . S
C2259 C2253 1.390 . S
C2259 C2256 1.386 . S
C2260 C2255 1.490 . S
C2260 C2262 1.395 . S
C2260 C2263 1.403 . S
H2261 C2267 0.930 . S
C2262 H2248 0.930 . S
C2262 C2260 1.395 . S
C2262 C2265 1.403 . S
C2263 C2260 1.403 . S
C2263 C2264 1.524 . S
C2263 C2267 1.400 . S
C2264 H2249 0.960 . S
C2264 H2250 0.960 . S
C2264 H2251 0.960 . S
C2264 C2263 1.524 . S
C2265 C2262 1.403 . S
C2265 C2266 1.392 . S
C2265 C2269 1.495 . S
C2266 C2265 1.392 . S
C2266 C2267 1.385 . S
C2266 C2268 1.478 . S
C2267 H2261 0.930 . S
C2267 C2263 1.400 . S
C2267 C2266 1.385 . S
C2268 C2266 1.478 . S
C2268 C2270 1.381 . S
C2268 C2274 1.383 . S
C2269 C2265 1.495 . S
C2269 H2275 0.959 . S
C2269 H2276 0.961 . S
C2269 H2277 0.960 . S
C2270 C2268 1.381 . S
C2270 C2271 1.394 . S
C2270 H2278 0.930 . S
C2271 C2270 1.394 . S
C2271 C2272 1.383 . S
C2271 H2279 0.929 . S
C2272 C2271 1.383 . S
C2272 C2273 1.377 . S
C2273 H2257 0.930 . S
C2273 C2272 1.377 . S
C2273 C2274 1.379 . S
C2274 H2258 0.931 . S
C2274 C2268 1.383 . S
C2274 C2273 1.379 . S
H2275 C2269 0.959 . S
H2276 C2269 0.961 . S
H2277 C2269 0.960 . S
H2278 C2270 0.930 . S
H2279 C2271 0.929 . S
C561 C16 1.575 . S
C580 N209 1.568 . S
C597 N35 1.231 . S
C616 C246 1.235 . S
C633 N255 1.365 . S
C652 N58 1.360 . S
C669 N186 1.490 . S
C688 C85 1.501 . S
C705 N242 1.563 . S
C724 C99 1.587 . S
C741 N117 1.295 . S
C760 C260 1.302 . S
C777 N140 1.381 . S
C796 C191 1.405 . S
C813 C214 1.433 . S
C832 C168 1.429 . S
C849 N94 0.956 . S
C868 N288 0.973 . S
C885 N163 1.558 . S
C904 C361 1.579 . S
C921 C375 1.327 . S
C940 C122 1.322 . S
C957 N81 0.913 . S
C976 N301 0.934 . S
C993 N324 1.891 . S
C1012 C145 1.912 . S
C1029 N12 1.252 . S
C1048 N439 1.267 . S
C1065 C62 1.609 . S
C1084 C421 1.610 . S
C1101 N357 1.176 . S
C1120 C499 1.192 . S
C1137 C522 1.605 . S
C1156 C292 1.602 . S
C1173 N531 1.316 . S
C1192 N370 1.320 . S
C1209 C476 1.487 . S
C1228 C329 1.488 . S
C1245 N518 1.219 . S
C1264 N393 1.182 . S
C1281 N416 1.619 . S
C1300 C536 1.631 . S
C1317 N472 1.381 . S
C1336 C306 1.394 . S
C1353 C444 1.471 . S
C1372 N495 1.433 . S
C1389 C39 1.941 . S
C1408 C398 1.944 . S
C1425 C108 1.189 . S
C1444 C7 1.194 . S
C1461 N25 0.732 . S
C1480 N127 0.703 . S
C1497 N48 0.858 . S
C1516 N150 0.849 . S
C1533 C177 0.915 . S
C1552 C76 0.921 . S
C1569 N196 0.950 . S
C1588 C223 0.926 . S
C1605 N219 1.012 . S
C1624 N232 1.003 . S
C1641 C269 0.752 . S
C1660 C237 0.756 . S
C1677 C200 0.919 . S
C1696 N265 0.911 . S
C1713 N71 0.458 . S
C1732 N278 0.405 . S
C1749 N173 1.076 . S
C1768 C430 1.074 . S
C1785 N104 0.426 . S
C1804 N311 0.441 . S
C1821 N449 0.809 . S
C1840 C131 0.825 . S
C1857 N334 1.371 . S
C1876 C30 1.391 . S
C1893 N2 0.813 . S
C1912 C384 0.846 . S
C1929 C53 1.216 . S
C1948 C352 1.213 . S
C1965 N347 0.761 . S
C1984 N403 0.769 . S
C2001 N426 1.080 . S
C2020 C283 1.085 . S
C2037 N380 0.893 . S
C2056 C315 0.914 . S
C2073 C338 0.880 . S
C2092 C453 0.889 . S
C2109 N485 0.997 . S
C2128 C467 1.014 . S
C2145 N508 0.823 . S
C2164 C490 0.822 . S
C2181 C545 1.032 . S
C2200 C513 1.045 . S
C2217 N462 0.856 . S
C2236 N541 0.866 . S
C2253 C407 1.458 . S
C2272 C154 1.462 . S
