# Generated by pormake.
# Topology ths, (3)-cn, num edge types: 1
# Building blocks:
#     Node 0, Type 0, BuildingBlock: WUSLED_clean_sbu_0, # of connection points: 3
#     Node 1, Type 0, BuildingBlock: WUSLED_clean_sbu_0, # of connection points: 3
#     Node 2, Type 0, BuildingBlock: WUSLED_clean_sbu_0, # of connection points: 3
#     Node 3, Type 0, BuildingBlock: WUSLED_clean_sbu_0, # of connection points: 3
#     Node 4, Type 0, BuildingBlock: WUSLED_clean_sbu_0, # of connection points: 3
#     Node 5, Type 0, BuildingBlock: WUSLED_clean_sbu_0, # of connection points: 3
#     Node 6, Type 0, BuildingBlock: WUSLED_clean_sbu_0, # of connection points: 3
#     Node 7, Type 0, BuildingBlock: WUSLED_clean_sbu_0, # of connection points: 3
#     Edge 8, Type (0, 0), BuildingBlock: EZIPEK_clean_linker_0, # of connection points: 2
#     Edge 9, Type (0, 0), BuildingBlock: EZIPEK_clean_linker_0, # of connection points: 2
#     Edge 10, Type (0, 0), BuildingBlock: EZIPEK_clean_linker_0, # of connection points: 2
#     Edge 11, Type (0, 0), BuildingBlock: EZIPEK_clean_linker_0, # of connection points: 2
#     Edge 12, Type (0, 0), BuildingBlock: EZIPEK_clean_linker_0, # of connection points: 2
#     Edge 13, Type (0, 0), BuildingBlock: EZIPEK_clean_linker_0, # of connection points: 2
#     Edge 14, Type (0, 0), BuildingBlock: EZIPEK_clean_linker_0, # of connection points: 2
#     Edge 15, Type (0, 0), BuildingBlock: EZIPEK_clean_linker_0, # of connection points: 2
#     Edge 16, Type (0, 0), BuildingBlock: EZIPEK_clean_linker_0, # of connection points: 2
#     Edge 17, Type (0, 0), BuildingBlock: EZIPEK_clean_linker_0, # of connection points: 2
#     Edge 18, Type (0, 0), BuildingBlock: EZIPEK_clean_linker_0, # of connection points: 2
#     Edge 19, Type (0, 0), BuildingBlock: EZIPEK_clean_linker_0, # of connection points: 2
# Relax obj value: 0.000
# Max RMSD: 0.002
# Mean RMSD: 0.002
data_MOF--net-ths--node1-WUSLED_clean_sbu_0--edge1-EZIPEK_clean_linker_0
_symmetry_space_group_name_H-M    P1
_symmetry_Int_Tables_number       1
_symmetry_cell_setting            triclinic
loop_
_symmetry_equiv_pos_as_xyz
'x, y, z'
_cell_length_a     32.774591
_cell_length_b     32.854137
_cell_length_c     110.23646
_cell_angle_alpha  88.511184
_cell_angle_beta   90.634519
_cell_angle_gamma 90.835659
loop_
_atom_site_label
_atom_site_type_symbol
_atom_site_fract_x
_atom_site_fract_y
_atom_site_fract_z
_atom_type_partial_charge
C0 C 0.07956 0.8608 0.0457 0.0
C1 C 0.08088 0.89125 0.05441 0.0
C2 C 0.0799 0.94361 0.03839 0.0
C3 C 0.08105 0.93243 0.05078 0.0
C4 C 0.07844 0.91313 1.0297 0.0
C5 C 0.07827 0.87199 0.03334 0.0
U6 U 0.08138 0.77624 0.07012 0.0
O7 O 0.04909 0.71711 0.07111 0.0
O8 O 0.11606 0.71921 0.07098 0.0
C9 C 0.08294 0.69623 0.07057 0.0
C10 C 0.07994 0.81737 0.04935 0.0
C11 C 0.08331 0.66288 0.06184 0.0
C12 C 0.06083 0.63204 0.04301 0.0
C13 C 0.06098 0.66489 0.05087 0.0
C14 C 0.10589 0.59517 0.05682 0.0
C15 C 0.08318 0.59694 0.04596 0.0
C16 C 0.10587 0.62787 0.0647 0.0
C17 C 0.08335 0.80693 0.10367 0.0
C18 C 0.06695 0.76375 0.12128 0.0
C19 C 0.10216 0.82835 0.12394 0.0
C20 C 0.10136 0.83549 0.11138 0.0
C21 C 0.08487 0.79253 0.12898 0.0
C22 C 0.06633 0.77082 0.10868 0.0
C23 C 0.08219 0.81603 0.0905 0.0
O24 O 0.11375 0.80483 0.05466 0.0
O25 O 0.04686 0.80338 0.05477 0.0
O26 O 0.04847 0.80572 0.0847 0.0
O27 O 0.11544 0.80772 0.08455 0.0
H28 H 0.08192 0.88313 0.064 0.0
H29 H 0.08221 0.95558 0.0576 0.0
H30 H 0.07753 0.92124 1.02012 0.0
H31 H 0.07726 0.8489 1.0265 0.0
H32 H 0.04322 0.6339 0.03464 0.0
H33 H 0.04347 0.69165 0.04844 0.0
H34 H 0.12333 0.56834 0.05922 0.0
H35 H 0.1233 0.6257 0.0731 0.0
H36 H 0.05346 0.73595 0.12502 0.0
H37 H 0.1161 0.85087 0.12974 0.0
H38 H 0.11463 0.86349 0.10769 0.0
H39 H 0.05239 0.74831 0.10287 0.0
C40 C 0.49774 0.77527 0.29586 0.0
C41 C 0.4666 0.78005 0.30434 0.0
C42 C 0.41533 0.77484 0.28829 0.0
C43 C 0.42564 0.77989 0.30057 0.0
C44 C 0.44649 0.76991 0.27984 0.0
C45 C 0.48742 0.77014 0.2836 0.0
U46 U 0.58036 0.77519 0.32055 0.0
O47 O 0.63813 0.74194 0.32185 0.0
O48 O 0.63891 0.80873 0.32149 0.0
C49 C 0.6606 0.7754 0.32137 0.0
C50 C 0.54097 0.77546 0.29965 0.0
C51 C 0.69456 0.7757 0.31274 0.0
C52 C 0.72044 0.77617 0.29213 0.0
C53 C 0.6875 0.77592 0.30014 0.0
C54 C 0.76765 0.77596 0.30922 0.0
C55 C 0.76073 0.77619 0.29663 0.0
C56 C 0.73479 0.77572 0.31721 0.0
C57 C 0.54708 0.77354 0.35395 0.0
C58 C 0.5915 0.78648 0.3713 0.0
C59 C 0.52346 0.7585 0.37442 0.0
C60 C 0.51661 0.75924 0.36188 0.0
C61 C 0.56089 0.77213 0.37923 0.0
C62 C 0.58469 0.78705 0.35872 0.0
C63 C 0.53868 0.77419 0.34079 0.0
O64 O 0.55412 0.80878 0.30487 0.0
O65 O 0.55352 0.74202 0.30523 0.0
O66 O 0.54816 0.74104 0.33509 0.0
O67 O 0.54891 0.80786 0.33479 0.0
H68 H 0.47402 0.78394 0.31384 0.0
H69 H 0.40197 0.78372 0.30721 0.0
H70 H 0.43907 0.76594 0.27034 0.0
H71 H 0.51104 0.76633 0.27694 0.0
H72 H 0.71458 0.77637 0.28244 0.0
H73 H 0.65661 0.77591 0.29654 0.0
H74 H 0.79852 0.77597 0.31284 0.0
H75 H 0.74078 0.77553 0.32689 0.0
H76 H 0.62057 0.79711 0.37487 0.0
H77 H 0.49953 0.74733 0.38039 0.0
H78 H 0.48744 0.74868 0.35836 0.0
H79 H 0.60864 0.79807 0.35273 0.0
C80 C 0.58015 0.35888 0.54564 0.0
C81 C 0.56672 0.38856 0.55358 0.0
C82 C 0.58005 0.44165 0.53829 0.0
C83 C 0.56654 0.42969 0.5499 0.0
C84 C 0.59366 0.41203 0.53039 0.0
C85 C 0.59366 0.37092 0.53405 0.0
U86 U 0.58138 0.27432 0.57011 0.0
O87 O 0.54964 0.21493 0.57099 0.0
O88 O 0.6166 0.21761 0.57113 0.0
C89 C 0.5837 0.19435 0.57057 0.0
C90 C 0.58083 0.31546 0.54935 0.0
C91 C 0.58461 0.16108 0.56183 0.0
C92 C 0.56272 0.13026 0.54294 0.0
C93 C 0.56275 0.16316 0.55078 0.0
C94 C 0.60706 0.09322 0.55692 0.0
C95 C 0.58472 0.09503 0.546 0.0
C96 C 0.60693 0.12598 0.56478 0.0
C97 C 0.58079 0.30521 0.60364 0.0
C98 C 0.60151 0.26365 0.62117 0.0
C99 C 0.56656 0.32715 0.62403 0.0
C100 C 0.5642 0.33347 0.61146 0.0
C101 C 0.58567 0.29247 0.62898 0.0
C102 C 0.599 0.26992 0.60856 0.0
C103 C 0.5802 0.31419 0.59047 0.0
O104 O 0.61449 0.30335 0.55483 0.0
O105 O 0.54758 0.30089 0.55455 0.0
O106 O 0.54693 0.30321 0.58457 0.0
O107 O 0.61387 0.30641 0.58464 0.0
H108 H 0.55644 0.3799 0.56261 0.0
H109 H 0.55604 0.45221 0.55611 0.0
H110 H 0.60423 0.42078 0.52141 0.0
H111 H 0.60428 0.34849 0.52782 0.0
H112 H 0.54539 0.13214 0.53452 0.0
H113 H 0.54543 0.18997 0.54827 0.0
H114 H 0.62423 0.06628 0.5594 0.0
H115 H 0.62397 0.12376 0.57324 0.0
H116 H 0.6164 0.23674 0.62485 0.0
H117 H 0.55422 0.34969 0.62992 0.0
H118 H 0.55004 0.36085 0.60783 0.0
H119 H 0.61188 0.24765 0.60268 0.0
C120 C 1.00419 0.27652 0.79559 0.0
C121 C 0.9736 0.26129 0.80338 0.0
C122 C 0.92191 0.27545 0.7879 0.0
C123 C 0.93272 0.26063 0.79954 0.0
C124 C 0.9524 0.291 0.78016 0.0
C125 C 0.99328 0.29146 0.78398 0.0
U126 U 0.08684 0.27636 0.8203 0.0
O127 O 0.1448 0.24347 0.82159 0.0
O128 O 0.14518 0.31025 0.82131 0.0
C129 C 0.16707 0.27706 0.82116 0.0
C130 C 0.04745 0.27706 0.79941 0.0
C131 C 0.20105 0.27762 0.81253 0.0
C132 C 0.22698 0.27758 0.79194 0.0
C133 C 0.19402 0.27741 0.79994 0.0
C134 C 0.27417 0.27823 0.80903 0.0
C135 C 0.26727 0.27794 0.79645 0.0
C136 C 0.24128 0.27806 0.81701 0.0
C137 C 0.05302 0.27381 0.85368 0.0
C138 C 0.09695 0.2867 0.87115 0.0
C139 C 1.02866 0.25914 0.87409 0.0
C140 C 1.02224 0.25974 0.86153 0.0
C141 C 0.066 0.27266 0.87899 0.0
C142 C 0.09056 0.28715 0.85855 0.0
C143 C 0.04494 0.27463 0.84051 0.0
O144 O 0.06022 0.31036 0.80471 0.0
O145 O 0.0606 0.24359 0.80485 0.0
O146 O 0.05474 0.24167 0.83476 0.0
O147 O 0.05507 0.30848 0.83459 0.0
H148 H 0.98136 0.24985 0.81241 0.0
H149 H 0.90952 0.24864 0.80563 0.0
H150 H 0.94453 0.3026 0.77116 0.0
H151 H 1.01642 0.30343 0.77786 0.0
H152 H 0.22114 0.27737 0.78225 0.0
H153 H 0.16314 0.27704 0.79633 0.0
H154 H 0.30502 0.2785 0.81266 0.0
H155 H 0.24725 0.2782 0.82669 0.0
H156 H 0.12595 0.29725 0.87479 0.0
H157 H 1.00447 0.24821 0.88001 0.0
H158 H 0.99311 0.24933 0.85794 0.0
H159 H 0.11474 0.29802 0.85262 0.0
C160 C 0.08225 0.1961 1.01493 0.0
C161 C 0.06744 0.16589 1.00715 0.0
C162 C 0.08184 0.11358 1.02256 0.0
C163 C 0.06711 0.1249 1.01097 0.0
C164 C 0.09699 0.1437 0.03028 0.0
C165 C 0.09712 0.1847 1.02649 0.0
U166 U 0.08105 0.27989 0.99026 0.0
O167 O 0.04737 0.33741 0.98918 0.0
O168 O 0.1143 0.33851 0.98907 0.0
C169 C 0.0808 0.35996 0.98942 0.0
C170 C 0.08235 0.23948 1.01114 0.0
C171 C 0.0811 0.39352 0.99802 0.0
C172 C 0.08906 0.41923 1.01843 0.0
C173 C 0.08869 0.38662 1.01047 0.0
C174 C 0.07395 0.46576 1.00161 0.0
C175 C 0.08172 0.45903 1.01403 0.0
C176 C 0.07366 0.43324 0.99367 0.0
C177 C 0.07846 0.24769 0.95684 0.0
C178 C 0.09606 0.28946 0.93905 0.0
C179 C 0.05931 0.22556 0.93667 0.0
C180 C 0.05981 0.21913 0.94925 0.0
C181 C 0.07755 0.26065 0.93147 0.0
C182 C 0.09638 0.28311 0.95167 0.0
C183 C 0.07951 0.23919 0.97004 0.0
O184 O 0.11554 0.25286 1.00566 0.0
O185 O 0.04863 0.25255 1.00588 0.0
O186 O 0.04643 0.24829 0.97597 0.0
O187 O 0.1134 0.24926 0.97579 0.0
H188 H 0.05604 0.17404 0.99817 0.0
H189 H 0.05541 0.10199 1.0049 0.0
H190 H 0.10852 0.13544 0.03924 0.0
H191 H 0.10877 0.20754 0.03259 0.0
H192 H 0.0951 0.41351 1.028 0.0
H193 H 0.09441 0.35612 1.014 0.0
H194 H 0.0682 0.49624 0.99807 0.0
H195 H 0.06768 0.43911 0.9841 0.0
H196 H 0.11028 0.31671 0.93518 0.0
H197 H 0.0449 0.20303 0.93096 0.0
H198 H 0.04585 0.19164 0.95307 0.0
H199 H 0.11084 0.30561 0.95737 0.0
C200 C 0.16354 0.77458 0.26467 0.0
C201 C 0.19326 0.75636 0.25758 0.0
C202 C 0.24596 0.7746 0.27225 0.0
C203 C 0.23419 0.75623 0.26138 0.0
C204 C 0.21637 0.79309 0.27928 0.0
C205 C 0.17543 0.793 0.27552 0.0
U206 U 0.07999 0.77543 0.24015 0.0
O207 O 1.02081 0.74314 0.23938 0.0
O208 O 1.02285 0.80996 0.239 0.0
C209 C 0.9998 0.77691 0.2396 0.0
C210 C 0.12019 0.77494 0.2609 0.0
C211 C 0.96602 0.77741 0.24833 0.0
C212 C 0.93727 0.76121 0.26817 0.0
C213 C 0.97033 0.76131 0.2602 0.0
C214 C 0.89556 0.79386 0.25256 0.0
C215 C 0.89965 0.77738 0.26437 0.0
C216 C 0.9285 0.79382 0.2446 0.0
C217 C 0.11246 0.77624 0.20664 0.0
C218 C 0.06805 0.76313 0.1893 0.0
C219 C 0.13575 0.79194 0.18618 0.0
C220 C 0.14269 0.79104 0.19871 0.0
C221 C 0.09843 0.77798 0.18137 0.0
C222 C 0.07495 0.7624 0.20188 0.0
C223 C 0.12103 0.77547 0.2198 0.0
O224 O 0.10799 0.80853 0.25533 0.0
O225 O 0.10606 0.74173 0.25582 0.0
O226 O 0.1103 0.74203 0.22583 0.0
O227 O 0.11235 0.80884 0.22549 0.0
H228 H 0.18482 0.74224 0.24912 0.0
H229 H 0.2567 0.74194 0.25583 0.0
H230 H 0.22498 0.80745 0.28768 0.0
H231 H 0.15302 0.80735 0.28109 0.0
H232 H 0.94094 0.74845 0.27727 0.0
H233 H 0.99909 0.74865 0.26328 0.0
H234 H 0.86677 0.80649 0.24949 0.0
H235 H 0.9246 0.80641 0.23548 0.0
H236 H 0.03907 0.75223 0.18574 0.0
H237 H 0.15951 0.80349 0.1802 0.0
H238 H 0.17178 0.80187 0.20222 0.0
H239 H 0.05117 0.75099 0.20786 0.0
C240 C 0.58127 0.69436 0.51509 0.0
C241 C 0.58 0.66367 0.50645 0.0
C242 C 0.58083 0.61174 0.52259 0.0
C243 C 0.57977 0.62259 0.51018 0.0
C244 C 0.58213 0.64245 0.53121 0.0
C245 C 0.58234 0.6835 0.52747 0.0
U246 U 0.57999 0.77785 0.49038 0.0
O247 O 0.54649 0.83548 0.48933 0.0
O248 O 0.61341 0.83635 0.4891 0.0
C249 C 0.58 0.85792 0.4895 0.0
C250 C 0.58135 0.73768 0.51131 0.0
C251 C 0.58063 0.89146 0.49812 0.0
C252 C 0.58907 0.91708 0.51852 0.0
C253 C 0.58831 0.88448 0.51055 0.0
C254 C 0.57419 0.96377 0.50171 0.0
C255 C 0.58205 0.95695 0.51413 0.0
C256 C 0.5735 0.93126 0.49377 0.0
C257 C 0.57667 0.74558 0.457 0.0
C258 C 0.59312 0.7879 0.43922 0.0
C259 C 0.55725 0.72351 0.43684 0.0
C260 C 0.55824 0.71687 0.44941 0.0
C261 C 0.57478 0.75897 0.43164 0.0
C262 C 0.59393 0.78133 0.45183 0.0
C263 C 0.57798 0.73703 0.47019 0.0
O264 O 0.61447 0.75099 0.50578 0.0
O265 O 0.54759 0.7505 0.50603 0.0
O266 O 0.54504 0.74624 0.47617 0.0
O267 O 0.612 0.74702 0.47588 0.0
H268 H 0.57915 0.67153 0.49684 0.0
H269 H 0.57879 0.59925 0.50342 0.0
H270 H 0.58294 0.63459 0.54081 0.0
H271 H 0.58331 0.70678 0.53426 0.0
H272 H 0.59517 0.91129 0.52808 0.0
H273 H 0.5938 0.85392 0.51407 0.0
H274 H 0.56867 0.9943 0.49818 0.0
H275 H 0.56747 0.93719 0.48421 0.0
H276 H 0.6068 0.81543 0.43535 0.0
H277 H 0.54298 0.70088 0.43114 0.0
H278 H 0.54477 0.68913 0.45323 0.0
H279 H 0.60819 0.80395 0.45753 0.0
C280 C 0.66992 0.27218 0.76455 0.0
C281 C 0.70099 0.27338 0.75586 0.0
C282 C 0.75248 0.27262 0.77194 0.0
C283 C 0.74205 0.2736 0.75954 0.0
C284 C 0.72137 0.27122 0.7806 0.0
C285 C 0.68037 0.27101 0.77692 0.0
U286 U 0.58657 0.27307 0.74005 0.0
O287 O 0.52704 0.24142 0.7394 0.0
O288 O 0.52983 0.30822 0.73877 0.0
C289 C 0.50642 0.27545 0.7395 0.0
C290 C 0.62662 0.27272 0.76084 0.0
C291 C 0.47268 0.27667 0.74822 0.0
C292 C 0.44382 0.26147 0.7681 0.0
C293 C 0.47688 0.26105 0.76015 0.0
C294 C 0.40231 0.29373 0.75237 0.0
C295 C 0.40629 0.27769 0.76424 0.0
C296 C 0.43526 0.29316 0.74442 0.0
C297 C 0.61867 0.27186 0.70657 0.0
C298 C 0.57485 0.28833 0.68922 0.0
C299 C 0.64189 0.26045 0.68609 0.0
C300 C 0.64858 0.25859 0.69864 0.0
C301 C 0.60517 0.27572 0.68129 0.0
C302 C 0.58151 0.28633 0.70181 0.0
C303 C 0.62751 0.2715 0.7197 0.0
O304 O 0.6147 0.30621 0.75516 0.0
O305 O 0.61257 0.23946 0.75579 0.0
O306 O 0.61622 0.23844 0.72582 0.0
O307 O 0.6195 0.30521 0.72533 0.0
H308 H 0.69346 0.27433 0.74627 0.0
H309 H 0.76568 0.27471 0.75275 0.0
H310 H 0.7289 0.27044 0.7902 0.0
H311 H 0.65679 0.27011 0.78374 0.0
H312 H 0.44739 0.24904 0.77724 0.0
H313 H 0.50555 0.24831 0.76328 0.0
H314 H 0.3736 0.30638 0.74925 0.0
H315 H 0.43145 0.30538 0.73526 0.0
H316 H 0.54637 0.30025 0.68566 0.0
H317 H 0.66561 0.25065 0.6801 0.0
H318 H 0.6774 0.24732 0.70216 0.0
H319 H 0.558 0.2966 0.70779 0.0
C320 C 0.04856 0.50032 1.03004 0.0
C321 C 0.08234 0.49394 1.0224 0.0
C322 C 0.11492 0.55701 1.02944 0.0
C323 C 0.08264 0.56168 0.03774 0.0
N324 N 1.02167 0.5352 0.04731 0.0
N325 N 0.15049 0.51228 1.01608 0.0
C326 C 0.05026 0.53256 0.03843 0.0
C327 C 0.11633 0.52125 1.02244 0.0
N328 N 1.01428 0.47639 1.02898 0.0
N329 N 0.14369 0.58729 1.02804 0.0
H330 H 0.15261 0.48644 1.01083 0.0
H331 H 0.1779 0.52852 1.01675 0.0
H332 H 0.144 0.61357 0.03316 0.0
H333 H 0.16535 0.58796 1.0212 0.0
H334 H 0.98696 0.48226 0.03329 0.0
H335 H 1.01201 0.45229 1.02303 0.0
H336 H 1.00004 0.51246 0.0492 0.0
H337 H 1.02142 0.55884 0.05344 0.0
C338 C 0.85462 0.81256 0.27903 0.0
C339 C 0.86424 0.7769 0.27272 0.0
C340 C 0.80745 0.74004 0.28262 0.0
C341 C 0.79594 0.77655 0.2882 0.0
N342 N 0.80442 0.849 0.2904 0.0
N343 N 0.8469 0.70839 0.26703 0.0
C344 C 0.81842 0.81325 0.28604 0.0
C345 C 0.83981 0.74107 0.2741 0.0
N346 N 0.8807 0.84542 0.27856 0.0
N347 N 0.78827 0.70412 0.28578 0.0
H348 H 0.87077 0.70773 0.26085 0.0
H349 H 0.82742 0.68315 0.26658 0.0
H350 H 0.76416 0.70222 0.29187 0.0
H351 H 0.79817 0.67579 0.2831 0.0
H352 H 0.87792 0.87063 0.284 0.0
H353 H 0.90719 0.8462 0.27339 0.0
H354 H 0.81681 0.87744 0.28805 0.0
H355 H 0.77816 0.85065 0.29561 0.0
C356 C 0.61652 0.509 0.53536 0.0
C357 C 0.58011 0.48534 0.53436 0.0
C358 C 0.54347 0.54528 0.52648 0.0
C359 C 0.5806 0.56809 0.52659 0.0
N360 N 0.65361 0.5707 0.52943 0.0
N361 N 0.5103 0.47875 0.52751 0.0
C362 C 0.61748 0.54967 0.53058 0.0
C363 C 0.54393 0.50289 0.52951 0.0
N364 N 0.64989 0.49283 0.54116 0.0
N365 N 0.50757 0.56448 0.52386 0.0
H366 H 0.50922 0.44778 0.52985 0.0
H367 H 0.48454 0.48856 0.52273 0.0
H368 H 0.50608 0.59538 0.52148 0.0
H369 H 0.47899 0.55071 0.52492 0.0
H370 H 0.67581 0.5098 0.54342 0.0
H371 H 0.65055 0.46294 0.54458 0.0
H372 H 0.68203 0.55762 0.53091 0.0
H373 H 0.65547 0.60062 0.52606 0.0
C374 C 0.85432 0.30983 0.785 0.0
C375 C 0.8785 0.2747 0.78379 0.0
C376 C 0.8194 0.23738 0.77553 0.0
C377 C 0.79607 0.2734 0.7759 0.0
N378 N 0.79245 0.34548 0.77923 0.0
N379 N 0.88642 0.20686 0.77644 0.0
C380 C 0.81385 0.31009 0.78016 0.0
C381 C 0.86169 0.23896 0.77863 0.0
N382 N 0.86977 0.34258 0.79103 0.0
N383 N 0.80078 0.20139 0.7726 0.0
H384 H 0.9173 0.20656 0.77884 0.0
H385 H 0.87723 0.1818 0.77145 0.0
H386 H 0.77 0.19912 0.77017 0.0
H387 H 0.81487 0.17325 0.77346 0.0
H388 H 0.85232 0.36726 0.79344 0.0
H389 H 0.89955 0.34382 0.79446 0.0
H390 H 0.80513 0.37403 0.78092 0.0
H391 H 0.76268 0.34682 0.77581 0.0
C392 C 0.36121 0.31355 0.77873 0.0
C393 C 0.37082 0.27761 0.77256 0.0
C394 C 0.314 0.24119 0.78259 0.0
C395 C 0.3025 0.27795 0.78802 0.0
N396 N 0.311 0.3505 0.78995 0.0
N397 N 0.35343 0.20888 0.76711 0.0
C398 C 0.32499 0.31456 0.78573 0.0
C399 C 0.34637 0.24185 0.77407 0.0
N400 N 0.38732 0.34638 0.77816 0.0
N401 N 0.29483 0.2054 0.78587 0.0
H402 H 0.37728 0.20796 0.76094 0.0
H403 H 0.33392 0.18364 0.76675 0.0
H404 H 0.27072 0.20375 0.79197 0.0
H405 H 0.30474 0.17695 0.7833 0.0
H406 H 0.38454 0.37183 0.7835 0.0
H407 H 0.41382 0.34692 0.77299 0.0
H408 H 0.32341 0.37885 0.78751 0.0
H409 H 0.28473 0.35238 0.79515 0.0
C410 C 0.31529 0.80821 0.27329 0.0
C411 C 0.28942 0.77453 0.27631 0.0
C412 C 0.34677 0.73983 0.28645 0.0
C413 C 0.37182 0.77481 0.28424 0.0
N414 N 0.37887 0.8446 0.27718 0.0
N415 N 0.27832 0.71066 0.2871 0.0
C416 C 0.35579 0.80966 0.27808 0.0
C417 C 0.30455 0.74099 0.28329 0.0
N418 N 0.30136 0.83839 0.2656 0.0
N419 N 0.36369 0.70504 0.29121 0.0
H420 H 0.24745 0.70994 0.2847 0.0
H421 H 0.28634 0.6878 0.29336 0.0
H422 H 0.3944 0.70311 0.29372 0.0
H423 H 0.34823 0.67717 0.29182 0.0
H424 H 0.31999 0.86137 0.26192 0.0
H425 H 0.27161 0.83884 0.26214 0.0
H426 H 0.36755 0.87237 0.274 0.0
H427 H 0.40868 0.84677 0.28054 0.0
C428 C 0.54937 0.99851 0.53016 0.0
C429 C 0.58305 0.99184 0.52251 0.0
C430 C 0.61623 0.05462 0.52954 0.0
C431 C 0.584 0.05961 0.53783 0.0
N432 N 0.52285 0.03368 0.54742 0.0
N433 N 0.65133 1.00955 0.51616 0.0
C434 C 0.55139 0.03077 0.53854 0.0
C435 C 0.61729 1.01883 0.52254 0.0
N436 N 0.51488 0.97488 0.52912 0.0
N437 N 0.64529 0.08461 0.52814 0.0
H438 H 0.65318 0.98368 0.51091 0.0
H439 H 0.67888 1.02553 0.51683 0.0
H440 H 0.6459 0.11087 0.53327 0.0
H441 H 0.66695 0.08507 0.5213 0.0
H442 H 0.48764 0.98099 0.53344 0.0
H443 H 0.51237 0.95077 0.52317 0.0
H444 H 0.50104 1.01114 0.54933 0.0
H445 H 0.52282 0.05735 0.55355 0.0
C446 C 0.04425 1.01038 0.03502 0.0
C447 C 0.08047 0.98735 0.03448 0.0
C448 C 0.11671 0.04622 1.02529 0.0
C449 C 0.08135 0.07004 1.02666 0.0
N450 N 1.01326 0.07708 0.03429 0.0
N451 N 0.15274 0.98434 0.03084 0.0
C452 C 0.04559 0.05274 0.03195 0.0
C453 C 0.11717 1.00556 1.03008 0.0
N454 N 1.00827 0.99141 0.03809 0.0
N455 N 0.14949 0.06222 1.01915 0.0
H456 H 0.15421 0.95443 0.03421 0.0
H457 H 0.1813 0.99725 1.02904 0.0
H458 H 0.15059 0.09215 1.01575 0.0
H459 H 0.17435 0.04513 1.01662 0.0
H460 H 0.97999 1.00533 0.03736 0.0
H461 H 1.00616 0.96055 0.04052 0.0
H462 H 0.98817 0.06747 0.03937 0.0
H463 H 1.01278 0.10801 0.03191 0.0
C464 C 0.11285 0.75146 0.1607 0.0
C465 C 0.09165 0.77899 0.16799 0.0
C466 C 0.06004 0.80957 0.1497 0.0
C467 C 0.08536 0.78577 0.1424 0.0
N468 N 0.1395 0.73726 0.14084 0.0
N469 N 0.04867 0.83761 0.16949 0.0
C470 C 0.1126 0.75734 0.14786 0.0
C471 C 0.06597 0.80883 0.16251 0.0
N472 N 0.13255 0.71918 0.16605 0.0
N473 N 1.02975 0.83225 0.1444 0.0
H474 H 0.05215 0.83809 0.1789 0.0
H475 H 1.03355 0.86289 0.16588 0.0
H476 H 1.02443 0.83335 0.13505 0.0
H477 H 1.0076 0.84692 0.1493 0.0
H478 H 0.14499 0.69569 0.16119 0.0
H479 H 0.1332 0.71386 0.17543 0.0
H480 H 0.16321 0.71975 0.14441 0.0
H481 H 0.14023 0.74062 0.13142 0.0
C482 C 0.54708 0.79375 0.41269 0.0
C483 C 0.5741 0.76521 0.41821 0.0
C484 C 0.59297 0.7413 0.39814 0.0
C485 C 0.56761 0.7713 0.39262 0.0
N486 N 0.52735 0.83161 0.39443 0.0
N487 N 0.62913 0.71801 0.41628 0.0
C488 C 0.54676 0.79927 0.39985 0.0
C489 C 0.59904 0.74088 0.41095 0.0
N490 N 0.52048 0.81432 0.41968 0.0
N491 N 0.60985 0.7121 0.39123 0.0
H492 H 0.63455 0.71713 0.42563 0.0
H493 H 0.65105 0.70293 0.4114 0.0
H494 H 0.60624 0.71137 0.38183 0.0
H495 H 0.62471 0.68674 0.3949 0.0
H496 H 0.49691 0.83197 0.41609 0.0
H497 H 0.51981 0.81124 0.42912 0.0
H498 H 0.51521 0.85537 0.39924 0.0
H499 H 0.52664 0.83666 0.38504 0.0
C500 C 0.56635 0.25873 0.64896 0.0
C501 C 0.59075 0.28753 0.64238 0.0
C502 C 0.62104 0.31131 0.66143 0.0
C503 C 0.59943 0.2801 0.6679 0.0
N504 N 0.55615 0.22015 0.66779 0.0
N505 N 0.6465 0.33629 0.64203 0.0
C506 C 0.5733 0.25268 0.66165 0.0
C507 C 0.61957 0.31246 0.64853 0.0
N508 N 0.53571 0.23808 0.64314 0.0
N509 N 0.64194 0.34067 0.66762 0.0
H510 H 0.64655 0.33787 0.63257 0.0
H511 H 0.67109 0.35168 0.64596 0.0
H512 H 0.64364 0.341 0.67707 0.0
H513 H 0.65453 0.36667 0.66345 0.0
H514 H 0.51401 0.22003 0.64764 0.0
H515 H 0.52991 0.24153 0.63385 0.0
H516 H 0.54048 0.19661 0.66353 0.0
H517 H 0.56033 0.21492 0.67709 0.0
C518 C 0.10249 0.24177 0.91091 0.0
C519 C 0.07752 0.26659 0.91802 0.0
C520 C 0.05136 0.30052 0.89949 0.0
C521 C 0.07219 0.27212 0.8924 0.0
N522 N 0.11388 0.21244 0.89131 0.0
N523 N 1.02448 0.31644 0.91918 0.0
C524 C 0.09699 0.24197 0.89809 0.0
C525 C 0.0511 0.29534 0.91235 0.0
N526 N 0.13207 0.21866 0.91642 0.0
N527 N 1.03253 0.33295 0.89392 0.0
H528 H 1.02342 0.31363 0.92862 0.0
H529 H 1.00128 0.33431 0.91547 0.0
H530 H 1.03225 0.33774 0.88453 0.0
H531 H 1.02045 0.35698 0.89863 0.0
H532 H 0.15401 0.20319 0.91165 0.0
H533 H 0.13706 0.21791 0.92578 0.0
H534 H 0.1283 0.18698 0.89508 0.0
H535 H 0.11072 0.21157 0.88189 0.0
loop_
_geom_bond_atom_site_label_1
_geom_bond_atom_site_label_2
_geom_bond_distance
_geom_bond_site_symmetry_2
_ccdc_geom_bond_type
C0 C1 1.264 . S
C0 C5 1.479 . S
C0 C10 1.465 . S
C1 C0 1.264 . S
C1 C3 1.339 . S
C1 H28 0.931 . S
C2 C3 1.395 . S
C2 C4 1.320 . S
C3 C1 1.339 . S
C3 C2 1.395 . S
C3 H29 0.929 . S
C4 C2 1.320 . S
C4 C5 1.405 . S
C4 H30 0.930 1_554 S
C5 C0 1.479 . S
C5 C4 1.405 . S
C5 H31 0.931 . S
U6 O7 2.454 . S
U6 O8 2.458 . S
U6 C9 2.984 . S
U6 C10 2.847 . S
U6 C23 2.882 . S
U6 O24 2.441 . S
U6 O25 2.420 . S
U6 O26 2.455 . S
U6 O27 2.449 . S
O7 U6 2.454 . S
O7 C9 1.353 . S
O8 U6 2.458 . S
O8 C9 1.286 . S
C9 U6 2.984 . S
C9 O7 1.353 . S
C9 O8 1.286 . S
C9 C11 1.363 . S
C10 C0 1.465 . S
C10 U6 2.847 . S
C10 O24 1.249 . S
C10 O25 1.202 . S
C11 C9 1.363 . S
C11 C13 1.408 . S
C11 C16 1.342 . S
C12 C13 1.310 . S
C12 C15 1.461 . S
C12 H32 0.932 1_554 S
C13 C11 1.408 . S
C13 C12 1.310 . S
C13 H33 0.930 . S
C14 C15 1.474 . S
C14 C16 1.285 . S
C14 H34 0.929 . S
C15 C12 1.461 . S
C15 C14 1.474 . S
C16 C11 1.342 . S
C16 C14 1.285 . S
C16 H35 0.930 . S
C17 C20 1.424 . S
C17 C22 1.245 . S
C17 C23 1.428 . S
C18 C21 1.260 . S
C18 C22 1.477 . S
C18 H36 0.932 . S
C19 C20 1.384 . S
C19 C21 1.479 . S
C19 H37 0.929 . S
C20 C17 1.424 . S
C20 C19 1.384 . S
C20 H38 0.928 . S
C21 C18 1.260 . S
C21 C19 1.479 . S
C22 C17 1.245 . S
C22 C18 1.477 . S
C22 H39 0.932 . S
C23 U6 2.882 . S
C23 C17 1.428 . S
C23 O26 1.301 . S
C23 O27 1.282 . S
O24 U6 2.441 . S
O24 C10 1.249 . S
O25 U6 2.420 . S
O25 C10 1.202 . S
O26 U6 2.455 . S
O26 C23 1.301 . S
O27 U6 2.449 . S
O27 C23 1.282 . S
H28 C1 0.931 . S
H29 C3 0.929 . S
H30 C4 0.930 1_556 S
H31 C5 0.931 . S
H32 C12 0.932 1_556 S
H33 C13 0.930 . S
H34 C14 0.929 . S
H35 C16 0.930 . S
H36 C18 0.932 . S
H37 C19 0.929 . S
H38 C20 0.928 . S
H39 C22 0.932 . S
C40 C41 1.264 . S
C40 C45 1.479 . S
C40 C50 1.465 . S
C41 C40 1.264 . S
C41 C43 1.339 . S
C41 H68 0.931 . S
C42 C43 1.395 . S
C42 C44 1.320 . S
C43 C41 1.339 . S
C43 C42 1.395 . S
C43 H69 0.929 . S
C44 C42 1.320 . S
C44 C45 1.405 . S
C44 H70 0.930 . S
C45 C40 1.479 . S
C45 C44 1.405 . S
C45 H71 0.931 . S
U46 O47 2.454 . S
U46 O48 2.458 . S
U46 C49 2.984 . S
U46 C50 2.847 . S
U46 C63 2.882 . S
U46 O64 2.441 . S
U46 O65 2.420 . S
U46 O66 2.455 . S
U46 O67 2.449 . S
O47 U46 2.454 . S
O47 C49 1.353 . S
O48 U46 2.458 . S
O48 C49 1.286 . S
C49 U46 2.984 . S
C49 O47 1.353 . S
C49 O48 1.286 . S
C49 C51 1.363 . S
C50 C40 1.465 . S
C50 U46 2.847 . S
C50 O64 1.249 . S
C50 O65 1.202 . S
C51 C49 1.363 . S
C51 C53 1.408 . S
C51 C56 1.342 . S
C52 C53 1.310 . S
C52 C55 1.461 . S
C52 H72 0.932 . S
C53 C51 1.408 . S
C53 C52 1.310 . S
C53 H73 0.930 . S
C54 C55 1.474 . S
C54 C56 1.285 . S
C54 H74 0.929 . S
C55 C52 1.461 . S
C55 C54 1.474 . S
C56 C51 1.342 . S
C56 C54 1.285 . S
C56 H75 0.930 . S
C57 C60 1.424 . S
C57 C62 1.245 . S
C57 C63 1.428 . S
C58 C61 1.260 . S
C58 C62 1.477 . S
C58 H76 0.932 . S
C59 C60 1.384 . S
C59 C61 1.479 . S
C59 H77 0.929 . S
C60 C57 1.424 . S
C60 C59 1.384 . S
C60 H78 0.928 . S
C61 C58 1.260 . S
C61 C59 1.479 . S
C62 C57 1.245 . S
C62 C58 1.477 . S
C62 H79 0.932 . S
C63 U46 2.882 . S
C63 C57 1.428 . S
C63 O66 1.301 . S
C63 O67 1.282 . S
O64 U46 2.441 . S
O64 C50 1.249 . S
O65 U46 2.420 . S
O65 C50 1.202 . S
O66 U46 2.455 . S
O66 C63 1.301 . S
O67 U46 2.449 . S
O67 C63 1.282 . S
H68 C41 0.931 . S
H69 C43 0.929 . S
H70 C44 0.930 . S
H71 C45 0.931 . S
H72 C52 0.932 . S
H73 C53 0.930 . S
H74 C54 0.929 . S
H75 C56 0.930 . S
H76 C58 0.932 . S
H77 C59 0.929 . S
H78 C60 0.928 . S
H79 C62 0.932 . S
C80 C81 1.264 . S
C80 C85 1.479 . S
C80 C90 1.465 . S
C81 C80 1.264 . S
C81 C83 1.339 . S
C81 H108 0.931 . S
C82 C83 1.395 . S
C82 C84 1.320 . S
C83 C81 1.339 . S
C83 C82 1.395 . S
C83 H109 0.929 . S
C84 C82 1.320 . S
C84 C85 1.405 . S
C84 H110 0.930 . S
C85 C80 1.479 . S
C85 C84 1.405 . S
C85 H111 0.931 . S
U86 O87 2.454 . S
U86 O88 2.458 . S
U86 C89 2.984 . S
U86 C90 2.847 . S
U86 C103 2.882 . S
U86 O104 2.441 . S
U86 O105 2.420 . S
U86 O106 2.455 . S
U86 O107 2.449 . S
O87 U86 2.454 . S
O87 C89 1.353 . S
O88 U86 2.458 . S
O88 C89 1.286 . S
C89 U86 2.984 . S
C89 O87 1.353 . S
C89 O88 1.286 . S
C89 C91 1.363 . S
C90 C80 1.465 . S
C90 U86 2.847 . S
C90 O104 1.249 . S
C90 O105 1.202 . S
C91 C89 1.363 . S
C91 C93 1.408 . S
C91 C96 1.342 . S
C92 C93 1.310 . S
C92 C95 1.461 . S
C92 H112 0.932 . S
C93 C91 1.408 . S
C93 C92 1.310 . S
C93 H113 0.930 . S
C94 C95 1.474 . S
C94 C96 1.285 . S
C94 H114 0.929 . S
C95 C92 1.461 . S
C95 C94 1.474 . S
C96 C91 1.342 . S
C96 C94 1.285 . S
C96 H115 0.930 . S
C97 C100 1.424 . S
C97 C102 1.245 . S
C97 C103 1.428 . S
C98 C101 1.260 . S
C98 C102 1.477 . S
C98 H116 0.932 . S
C99 C100 1.384 . S
C99 C101 1.479 . S
C99 H117 0.929 . S
C100 C97 1.424 . S
C100 C99 1.384 . S
C100 H118 0.928 . S
C101 C98 1.260 . S
C101 C99 1.479 . S
C102 C97 1.245 . S
C102 C98 1.477 . S
C102 H119 0.932 . S
C103 U86 2.882 . S
C103 C97 1.428 . S
C103 O106 1.301 . S
C103 O107 1.282 . S
O104 U86 2.441 . S
O104 C90 1.249 . S
O105 U86 2.420 . S
O105 C90 1.202 . S
O106 U86 2.455 . S
O106 C103 1.301 . S
O107 U86 2.449 . S
O107 C103 1.282 . S
H108 C81 0.931 . S
H109 C83 0.929 . S
H110 C84 0.930 . S
H111 C85 0.931 . S
H112 C92 0.932 . S
H113 C93 0.930 . S
H114 C94 0.929 . S
H115 C96 0.930 . S
H116 C98 0.932 . S
H117 C99 0.929 . S
H118 C100 0.928 . S
H119 C102 0.932 . S
C120 C121 1.264 . S
C120 C125 1.479 . S
C120 C130 1.465 . S
C121 C120 1.264 . S
C121 C123 1.339 . S
C121 H148 0.931 . S
C122 C123 1.395 . S
C122 C124 1.320 . S
C123 C121 1.339 . S
C123 C122 1.395 . S
C123 H149 0.929 . S
C124 C122 1.320 . S
C124 C125 1.405 . S
C124 H150 0.930 . S
C125 C120 1.479 . S
C125 C124 1.405 . S
C125 H151 0.931 . S
U126 O127 2.454 . S
U126 O128 2.458 . S
U126 C129 2.984 . S
U126 C130 2.847 1_455 S
U126 C143 2.882 . S
U126 O144 2.441 . S
U126 O145 2.420 1_455 S
U126 O146 2.455 . S
U126 O147 2.449 . S
O127 U126 2.454 . S
O127 C129 1.353 . S
O128 U126 2.458 . S
O128 C129 1.286 . S
C129 U126 2.984 . S
C129 O127 1.353 . S
C129 O128 1.286 . S
C129 C131 1.363 . S
C130 C120 1.465 . S
C130 U126 2.847 1_655 S
C130 O144 1.249 1_655 S
C130 O145 1.202 . S
C131 C129 1.363 . S
C131 C133 1.408 . S
C131 C136 1.342 . S
C132 C133 1.310 . S
C132 C135 1.461 . S
C132 H152 0.932 . S
C133 C131 1.408 . S
C133 C132 1.310 . S
C133 H153 0.930 . S
C134 C135 1.474 . S
C134 C136 1.285 . S
C134 H154 0.929 . S
C135 C132 1.461 . S
C135 C134 1.474 . S
C136 C131 1.342 . S
C136 C134 1.285 . S
C136 H155 0.930 . S
C137 C140 1.424 . S
C137 C142 1.245 . S
C137 C143 1.428 . S
C138 C141 1.260 . S
C138 C142 1.477 . S
C138 H156 0.932 . S
C139 C140 1.384 . S
C139 C141 1.479 . S
C139 H157 0.929 1_455 S
C140 C137 1.424 . S
C140 C139 1.384 . S
C140 H158 0.932 . S
C141 C138 1.260 . S
C141 C139 1.479 . S
C142 C137 1.245 . S
C142 C138 1.477 . S
C142 H159 0.932 . S
C143 U126 2.882 . S
C143 C137 1.428 . S
C143 O146 1.301 . S
C143 O147 1.282 . S
O144 U126 2.441 . S
O144 C130 1.249 1_455 S
O145 U126 2.420 1_655 S
O145 C130 1.202 . S
O146 U126 2.455 . S
O146 C143 1.301 . S
O147 U126 2.449 . S
O147 C143 1.282 . S
H148 C121 0.931 . S
H149 C123 0.929 . S
H150 C124 0.930 . S
H151 C125 0.931 . S
H152 C132 0.932 . S
H153 C133 0.930 . S
H154 C134 0.929 . S
H155 C136 0.930 . S
H156 C138 0.932 . S
H157 C139 0.929 1_655 S
H158 C140 0.932 . S
H159 C142 0.932 . S
C160 C161 1.264 . S
C160 C165 1.479 . S
C160 C170 1.465 . S
C161 C160 1.264 . S
C161 C163 1.339 . S
C161 H188 0.931 . S
C162 C163 1.395 . S
C162 C164 1.320 . S
C163 C161 1.339 . S
C163 C162 1.395 . S
C163 H189 0.929 . S
C164 C162 1.320 . S
C164 C165 1.405 . S
C164 H190 0.930 1_556 S
C165 C160 1.479 . S
C165 C164 1.405 . S
C165 H191 0.931 . S
U166 O167 2.454 . S
U166 O168 2.458 . S
U166 C169 2.984 . S
U166 C170 2.847 . S
U166 C183 2.882 . S
U166 O184 2.441 . S
U166 O185 2.420 . S
U166 O186 2.455 . S
U166 O187 2.449 . S
O167 U166 2.454 . S
O167 C169 1.353 . S
O168 U166 2.458 . S
O168 C169 1.286 . S
C169 U166 2.984 . S
C169 O167 1.353 . S
C169 O168 1.286 . S
C169 C171 1.363 . S
C170 C160 1.465 . S
C170 U166 2.847 . S
C170 O184 1.249 . S
C170 O185 1.202 . S
C171 C169 1.363 . S
C171 C173 1.408 . S
C171 C176 1.342 . S
C172 C173 1.310 . S
C172 C175 1.461 . S
C172 H192 0.932 1_556 S
C173 C171 1.408 . S
C173 C172 1.310 . S
C173 H193 0.930 . S
C174 C175 1.474 . S
C174 C176 1.285 . S
C174 H194 0.929 . S
C175 C172 1.461 . S
C175 C174 1.474 . S
C176 C171 1.342 . S
C176 C174 1.285 . S
C176 H195 0.930 . S
C177 C180 1.424 . S
C177 C182 1.245 . S
C177 C183 1.428 . S
C178 C181 1.260 . S
C178 C182 1.477 . S
C178 H196 0.932 . S
C179 C180 1.384 . S
C179 C181 1.479 . S
C179 H197 0.929 . S
C180 C177 1.424 . S
C180 C179 1.384 . S
C180 H198 0.928 . S
C181 C178 1.260 . S
C181 C179 1.479 . S
C182 C177 1.245 . S
C182 C178 1.477 . S
C182 H199 0.932 . S
C183 U166 2.882 . S
C183 C177 1.428 . S
C183 O186 1.301 . S
C183 O187 1.282 . S
O184 U166 2.441 . S
O184 C170 1.249 . S
O185 U166 2.420 . S
O185 C170 1.202 . S
O186 U166 2.455 . S
O186 C183 1.301 . S
O187 U166 2.449 . S
O187 C183 1.282 . S
H188 C161 0.931 . S
H189 C163 0.929 . S
H190 C164 0.930 1_554 S
H191 C165 0.931 . S
H192 C172 0.932 1_554 S
H193 C173 0.930 . S
H194 C174 0.929 . S
H195 C176 0.930 . S
H196 C178 0.932 . S
H197 C179 0.929 . S
H198 C180 0.928 . S
H199 C182 0.932 . S
C200 C201 1.264 . S
C200 C205 1.479 . S
C200 C210 1.465 . S
C201 C200 1.264 . S
C201 C203 1.339 . S
C201 H228 0.931 . S
C202 C203 1.395 . S
C202 C204 1.320 . S
C203 C201 1.339 . S
C203 C202 1.395 . S
C203 H229 0.929 . S
C204 C202 1.320 . S
C204 C205 1.405 . S
C204 H230 0.930 . S
C205 C200 1.479 . S
C205 C204 1.405 . S
C205 H231 0.931 . S
U206 O207 2.454 . S
U206 O208 2.458 1_455 S
U206 C209 2.984 1_455 S
U206 C210 2.847 . S
U206 C223 2.882 . S
U206 O224 2.441 . S
U206 O225 2.420 . S
U206 O226 2.455 . S
U206 O227 2.449 . S
O207 U206 2.454 . S
O207 C209 1.353 1_455 S
O208 U206 2.458 1_655 S
O208 C209 1.286 . S
C209 U206 2.984 1_655 S
C209 O207 1.353 1_655 S
C209 O208 1.286 . S
C209 C211 1.363 . S
C210 C200 1.465 . S
C210 U206 2.847 . S
C210 O224 1.249 . S
C210 O225 1.202 . S
C211 C209 1.363 . S
C211 C213 1.408 . S
C211 C216 1.342 . S
C212 C213 1.310 . S
C212 C215 1.461 . S
C212 H232 0.932 . S
C213 C211 1.408 . S
C213 C212 1.310 . S
C213 H233 0.930 . S
C214 C215 1.474 . S
C214 C216 1.285 . S
C214 H234 0.929 . S
C215 C212 1.461 . S
C215 C214 1.474 . S
C216 C211 1.342 . S
C216 C214 1.285 . S
C216 H235 0.930 . S
C217 C220 1.424 . S
C217 C222 1.245 . S
C217 C223 1.428 . S
C218 C221 1.260 . S
C218 C222 1.477 . S
C218 H236 0.932 1_455 S
C219 C220 1.384 . S
C219 C221 1.479 . S
C219 H237 0.929 . S
C220 C217 1.424 . S
C220 C219 1.384 . S
C220 H238 0.928 . S
C221 C218 1.260 . S
C221 C219 1.479 . S
C222 C217 1.245 . S
C222 C218 1.477 . S
C222 H239 0.932 1_455 S
C223 U206 2.882 . S
C223 C217 1.428 . S
C223 O226 1.301 . S
C223 O227 1.282 . S
O224 U206 2.441 . S
O224 C210 1.249 . S
O225 U206 2.420 . S
O225 C210 1.202 . S
O226 U206 2.455 . S
O226 C223 1.301 . S
O227 U206 2.449 . S
O227 C223 1.282 . S
H228 C201 0.931 . S
H229 C203 0.929 . S
H230 C204 0.930 . S
H231 C205 0.931 . S
H232 C212 0.932 . S
H233 C213 0.930 . S
H234 C214 0.929 . S
H235 C216 0.930 . S
H236 C218 0.932 1_655 S
H237 C219 0.929 . S
H238 C220 0.928 . S
H239 C222 0.932 1_655 S
C240 C241 1.264 . S
C240 C245 1.479 . S
C240 C250 1.465 . S
C241 C240 1.264 . S
C241 C243 1.339 . S
C241 H268 0.931 . S
C242 C243 1.395 . S
C242 C244 1.320 . S
C243 C241 1.339 . S
C243 C242 1.395 . S
C243 H269 0.929 . S
C244 C242 1.320 . S
C244 C245 1.405 . S
C244 H270 0.930 . S
C245 C240 1.479 . S
C245 C244 1.405 . S
C245 H271 0.931 . S
U246 O247 2.454 . S
U246 O248 2.458 . S
U246 C249 2.984 . S
U246 C250 2.847 . S
U246 C263 2.882 . S
U246 O264 2.441 . S
U246 O265 2.420 . S
U246 O266 2.455 . S
U246 O267 2.449 . S
O247 U246 2.454 . S
O247 C249 1.353 . S
O248 U246 2.458 . S
O248 C249 1.286 . S
C249 U246 2.984 . S
C249 O247 1.353 . S
C249 O248 1.286 . S
C249 C251 1.363 . S
C250 C240 1.465 . S
C250 U246 2.847 . S
C250 O264 1.249 . S
C250 O265 1.202 . S
C251 C249 1.363 . S
C251 C253 1.408 . S
C251 C256 1.342 . S
C252 C253 1.310 . S
C252 C255 1.461 . S
C252 H272 0.932 . S
C253 C251 1.408 . S
C253 C252 1.310 . S
C253 H273 0.930 . S
C254 C255 1.474 . S
C254 C256 1.285 . S
C254 H274 0.929 . S
C255 C252 1.461 . S
C255 C254 1.474 . S
C256 C251 1.342 . S
C256 C254 1.285 . S
C256 H275 0.930 . S
C257 C260 1.424 . S
C257 C262 1.245 . S
C257 C263 1.428 . S
C258 C261 1.260 . S
C258 C262 1.477 . S
C258 H276 0.932 . S
C259 C260 1.384 . S
C259 C261 1.479 . S
C259 H277 0.929 . S
C260 C257 1.424 . S
C260 C259 1.384 . S
C260 H278 0.928 . S
C261 C258 1.260 . S
C261 C259 1.479 . S
C262 C257 1.245 . S
C262 C258 1.477 . S
C262 H279 0.932 . S
C263 U246 2.882 . S
C263 C257 1.428 . S
C263 O266 1.301 . S
C263 O267 1.282 . S
O264 U246 2.441 . S
O264 C250 1.249 . S
O265 U246 2.420 . S
O265 C250 1.202 . S
O266 U246 2.455 . S
O266 C263 1.301 . S
O267 U246 2.449 . S
O267 C263 1.282 . S
H268 C241 0.931 . S
H269 C243 0.929 . S
H270 C244 0.930 . S
H271 C245 0.931 . S
H272 C252 0.932 . S
H273 C253 0.930 . S
H274 C254 0.929 . S
H275 C256 0.930 . S
H276 C258 0.932 . S
H277 C259 0.929 . S
H278 C260 0.928 . S
H279 C262 0.932 . S
C280 C281 1.264 . S
C280 C285 1.479 . S
C280 C290 1.465 . S
C281 C280 1.264 . S
C281 C283 1.339 . S
C281 H308 0.931 . S
C282 C283 1.395 . S
C282 C284 1.320 . S
C283 C281 1.339 . S
C283 C282 1.395 . S
C283 H309 0.929 . S
C284 C282 1.320 . S
C284 C285 1.405 . S
C284 H310 0.930 . S
C285 C280 1.479 . S
C285 C284 1.405 . S
C285 H311 0.931 . S
U286 O287 2.454 . S
U286 O288 2.458 . S
U286 C289 2.984 . S
U286 C290 2.847 . S
U286 C303 2.882 . S
U286 O304 2.441 . S
U286 O305 2.420 . S
U286 O306 2.455 . S
U286 O307 2.449 . S
O287 U286 2.454 . S
O287 C289 1.353 . S
O288 U286 2.458 . S
O288 C289 1.286 . S
C289 U286 2.984 . S
C289 O287 1.353 . S
C289 O288 1.286 . S
C289 C291 1.363 . S
C290 C280 1.465 . S
C290 U286 2.847 . S
C290 O304 1.249 . S
C290 O305 1.202 . S
C291 C289 1.363 . S
C291 C293 1.408 . S
C291 C296 1.342 . S
C292 C293 1.310 . S
C292 C295 1.461 . S
C292 H312 0.932 . S
C293 C291 1.408 . S
C293 C292 1.310 . S
C293 H313 0.930 . S
C294 C295 1.474 . S
C294 C296 1.285 . S
C294 H314 0.929 . S
C295 C292 1.461 . S
C295 C294 1.474 . S
C296 C291 1.342 . S
C296 C294 1.285 . S
C296 H315 0.930 . S
C297 C300 1.424 . S
C297 C302 1.245 . S
C297 C303 1.428 . S
C298 C301 1.260 . S
C298 C302 1.477 . S
C298 H316 0.932 . S
C299 C300 1.384 . S
C299 C301 1.479 . S
C299 H317 0.929 . S
C300 C297 1.424 . S
C300 C299 1.384 . S
C300 H318 0.928 . S
C301 C298 1.260 . S
C301 C299 1.479 . S
C302 C297 1.245 . S
C302 C298 1.477 . S
C302 H319 0.932 . S
C303 U286 2.882 . S
C303 C297 1.428 . S
C303 O306 1.301 . S
C303 O307 1.282 . S
O304 U286 2.441 . S
O304 C290 1.249 . S
O305 U286 2.420 . S
O305 C290 1.202 . S
O306 U286 2.455 . S
O306 C303 1.301 . S
O307 U286 2.449 . S
O307 C303 1.282 . S
H308 C281 0.931 . S
H309 C283 0.929 . S
H310 C284 0.930 . S
H311 C285 0.931 . S
H312 C292 0.932 . S
H313 C293 0.930 . S
H314 C294 0.929 . S
H315 C296 0.930 . S
H316 C298 0.932 . S
H317 C299 0.929 . S
H318 C300 0.928 . S
H319 C302 0.932 . S
C320 C321 1.363 1_554 S
C320 C326 1.379 . S
C320 N328 1.356 . S
C321 C320 1.363 1_556 S
C321 C327 1.363 . S
C322 C323 1.363 1_556 S
C322 C327 1.379 . S
C322 N329 1.356 . S
C323 C322 1.363 1_554 S
C323 C326 1.363 . S
N324 C326 1.356 . S
N324 H336 0.984 1_455 S
N324 H337 0.985 . S
N325 C327 1.356 . S
N325 H330 0.984 . S
N325 H331 0.985 . S
C326 C320 1.379 . S
C326 C323 1.363 . S
C326 N324 1.356 . S
C327 C321 1.363 . S
C327 C322 1.379 . S
C327 N325 1.356 . S
N328 C320 1.356 . S
N328 H334 0.984 1_455 S
N328 H335 0.921 1_554 S
N329 C322 1.356 . S
N329 H332 0.926 1_556 S
N329 H333 0.985 . S
H330 N325 0.984 . S
H331 N325 0.985 . S
H332 N329 0.926 1_554 S
H333 N329 0.985 . S
H334 N328 0.984 1_655 S
H335 N328 0.921 1_556 S
H336 N324 0.984 1_655 S
H337 N324 0.985 . S
C338 C339 1.363 . S
C338 C344 1.379 . S
C338 N346 1.356 . S
C339 C338 1.363 . S
C339 C345 1.363 . S
C340 C341 1.363 . S
C340 C345 1.379 . S
C340 N347 1.356 . S
C341 C340 1.363 . S
C341 C344 1.363 . S
N342 C344 1.356 . S
N342 H354 0.984 . S
N342 H355 0.985 . S
N343 C345 1.356 . S
N343 H348 0.984 . S
N343 H349 0.985 . S
C344 C338 1.379 . S
C344 C341 1.363 . S
C344 N342 1.356 . S
C345 C339 1.363 . S
C345 C340 1.379 . S
C345 N343 1.356 . S
N346 C338 1.356 . S
N346 H352 0.984 . S
N346 H353 0.984 . S
N347 C340 1.356 . S
N347 H350 0.984 . S
N347 H351 0.985 . S
H348 N343 0.984 . S
H349 N343 0.985 . S
H350 N347 0.984 . S
H351 N347 0.985 . S
H352 N346 0.984 . S
H353 N346 0.984 . S
H354 N342 0.984 . S
H355 N342 0.985 . S
C356 C357 1.363 . S
C356 C362 1.379 . S
C356 N364 1.356 . S
C357 C356 1.363 . S
C357 C363 1.363 . S
C358 C359 1.363 . S
C358 C363 1.379 . S
C358 N365 1.356 . S
C359 C358 1.363 . S
C359 C362 1.363 . S
N360 C362 1.356 . S
N360 H372 0.984 . S
N360 H373 0.985 . S
N361 C363 1.356 . S
N361 H366 0.984 . S
N361 H367 0.985 . S
C362 C356 1.379 . S
C362 C359 1.363 . S
C362 N360 1.356 . S
C363 C357 1.363 . S
C363 C358 1.379 . S
C363 N361 1.356 . S
N364 C356 1.356 . S
N364 H370 0.984 . S
N364 H371 0.984 . S
N365 C358 1.356 . S
N365 H368 0.984 . S
N365 H369 0.985 . S
H366 N361 0.984 . S
H367 N361 0.985 . S
H368 N365 0.984 . S
H369 N365 0.985 . S
H370 N364 0.984 . S
H371 N364 0.984 . S
H372 N360 0.984 . S
H373 N360 0.985 . S
C374 C375 1.363 . S
C374 C380 1.379 . S
C374 N382 1.356 . S
C375 C374 1.363 . S
C375 C381 1.363 . S
C376 C377 1.363 . S
C376 C381 1.379 . S
C376 N383 1.356 . S
C377 C376 1.363 . S
C377 C380 1.363 . S
N378 C380 1.356 . S
N378 H390 0.984 . S
N378 H391 0.985 . S
N379 C381 1.356 . S
N379 H384 0.984 . S
N379 H385 0.985 . S
C380 C374 1.379 . S
C380 C377 1.363 . S
C380 N378 1.356 . S
C381 C375 1.363 . S
C381 C376 1.379 . S
C381 N379 1.356 . S
N382 C374 1.356 . S
N382 H388 0.984 . S
N382 H389 0.984 . S
N383 C376 1.356 . S
N383 H386 0.984 . S
N383 H387 0.985 . S
H384 N379 0.984 . S
H385 N379 0.985 . S
H386 N383 0.984 . S
H387 N383 0.985 . S
H388 N382 0.984 . S
H389 N382 0.984 . S
H390 N378 0.984 . S
H391 N378 0.985 . S
C392 C393 1.363 . S
C392 C398 1.379 . S
C392 N400 1.356 . S
C393 C392 1.363 . S
C393 C399 1.363 . S
C394 C395 1.363 . S
C394 C399 1.379 . S
C394 N401 1.356 . S
C395 C394 1.363 . S
C395 C398 1.363 . S
N396 C398 1.356 . S
N396 H408 0.984 . S
N396 H409 0.985 . S
N397 C399 1.356 . S
N397 H402 0.984 . S
N397 H403 0.985 . S
C398 C392 1.379 . S
C398 C395 1.363 . S
C398 N396 1.356 . S
C399 C393 1.363 . S
C399 C394 1.379 . S
C399 N397 1.356 . S
N400 C392 1.356 . S
N400 H406 0.984 . S
N400 H407 0.984 . S
N401 C394 1.356 . S
N401 H404 0.984 . S
N401 H405 0.985 . S
H402 N397 0.984 . S
H403 N397 0.985 . S
H404 N401 0.984 . S
H405 N401 0.985 . S
H406 N400 0.984 . S
H407 N400 0.984 . S
H408 N396 0.984 . S
H409 N396 0.985 . S
C410 C411 1.363 . S
C410 C416 1.379 . S
C410 N418 1.356 . S
C411 C410 1.363 . S
C411 C417 1.363 . S
C412 C413 1.363 . S
C412 C417 1.379 . S
C412 N419 1.356 . S
C413 C412 1.363 . S
C413 C416 1.363 . S
N414 C416 1.356 . S
N414 H426 0.984 . S
N414 H427 0.985 . S
N415 C417 1.356 . S
N415 H420 0.984 . S
N415 H421 0.985 . S
C416 C410 1.379 . S
C416 C413 1.363 . S
C416 N414 1.356 . S
C417 C411 1.363 . S
C417 C412 1.379 . S
C417 N415 1.356 . S
N418 C410 1.356 . S
N418 H424 0.984 . S
N418 H425 0.984 . S
N419 C412 1.356 . S
N419 H422 0.984 . S
N419 H423 0.985 . S
H420 N415 0.984 . S
H421 N415 0.985 . S
H422 N419 0.984 . S
H423 N419 0.985 . S
H424 N418 0.984 . S
H425 N418 0.984 . S
H426 N414 0.984 . S
H427 N414 0.985 . S
C428 C429 1.363 . S
C428 C434 1.379 1_565 S
C428 N436 1.356 . S
C429 C428 1.363 . S
C429 C435 1.363 . S
C430 C431 1.363 . S
C430 C435 1.379 1_545 S
C430 N437 1.356 . S
C431 C430 1.363 . S
C431 C434 1.363 . S
N432 C434 1.356 . S
N432 H444 0.984 . S
N432 H445 0.985 . S
N433 C435 1.356 . S
N433 H438 0.984 . S
N433 H439 0.985 . S
C434 C428 1.379 1_545 S
C434 C431 1.363 . S
C434 N432 1.356 . S
C435 C429 1.363 . S
C435 C430 1.379 1_565 S
C435 N433 1.356 . S
N436 C428 1.356 . S
N436 H442 0.984 . S
N436 H443 0.984 . S
N437 C430 1.356 . S
N437 H440 0.984 . S
N437 H441 0.985 . S
H438 N433 0.984 . S
H439 N433 0.985 . S
H440 N437 0.984 . S
H441 N437 0.985 . S
H442 N436 0.984 . S
H443 N436 0.984 . S
H444 N432 0.984 . S
H445 N432 0.985 . S
C446 C447 1.363 . S
C446 C452 1.379 1_565 S
C446 N454 1.356 . S
C447 C446 1.363 . S
C447 C453 1.363 1_554 S
C448 C449 1.363 . S
C448 C453 1.379 1_545 S
C448 N455 1.356 . S
C449 C448 1.363 . S
C449 C452 1.363 1_556 S
N450 C452 1.356 . S
N450 H462 0.984 1_455 S
N450 H463 0.985 1_554 S
N451 C453 1.356 . S
N451 H456 0.984 1_556 S
N451 H457 0.985 . S
C452 C446 1.379 1_545 S
C452 C449 1.363 1_554 S
C452 N450 1.356 . S
C453 C447 1.363 1_556 S
C453 C448 1.379 1_565 S
C453 N451 1.356 . S
N454 C446 1.356 . S
N454 H460 0.984 1_455 S
N454 H461 0.984 . S
N455 C448 1.356 . S
N455 H458 0.984 . S
N455 H459 0.985 . S
H456 N451 0.984 1_554 S
H457 N451 0.985 . S
H458 N455 0.984 . S
H459 N455 0.985 . S
H460 N454 0.984 1_655 S
H461 N454 0.984 . S
H462 N450 0.984 1_655 S
H463 N450 0.985 1_556 S
C464 C465 1.363 . S
C464 C470 1.379 . S
C464 N472 1.356 . S
C465 C464 1.363 . S
C465 C471 1.363 . S
C466 C467 1.363 . S
C466 C471 1.379 . S
C466 N473 1.356 . S
C467 C466 1.363 . S
C467 C470 1.363 . S
N468 C470 1.356 . S
N468 H480 0.984 . S
N468 H481 0.985 . S
N469 C471 1.356 . S
N469 H474 0.984 . S
N469 H475 0.985 1_455 S
C470 C464 1.379 . S
C470 C467 1.363 . S
C470 N468 1.356 . S
C471 C465 1.363 . S
C471 C466 1.379 . S
C471 N469 1.356 . S
N472 C464 1.356 . S
N472 H478 0.984 . S
N472 H479 0.984 . S
N473 C466 1.356 . S
N473 H476 0.984 . S
N473 H477 0.985 1_455 S
H474 N469 0.984 . S
H475 N469 0.985 1_655 S
H476 N473 0.984 . S
H477 N473 0.985 1_655 S
H478 N472 0.984 . S
H479 N472 0.984 . S
H480 N468 0.984 . S
H481 N468 0.985 . S
C482 C483 1.363 . S
C482 C488 1.379 . S
C482 N490 1.356 . S
C483 C482 1.363 . S
C483 C489 1.363 . S
C484 C485 1.363 . S
C484 C489 1.379 . S
C484 N491 1.356 . S
C485 C484 1.363 . S
C485 C488 1.363 . S
N486 C488 1.356 . S
N486 H498 0.984 . S
N486 H499 0.985 . S
N487 C489 1.356 . S
N487 H492 0.984 . S
N487 H493 0.985 . S
C488 C482 1.379 . S
C488 C485 1.363 . S
C488 N486 1.356 . S
C489 C483 1.363 . S
C489 C484 1.379 . S
C489 N487 1.356 . S
N490 C482 1.356 . S
N490 H496 0.984 . S
N490 H497 0.984 . S
N491 C484 1.356 . S
N491 H494 0.984 . S
N491 H495 0.985 . S
H492 N487 0.984 . S
H493 N487 0.985 . S
H494 N491 0.984 . S
H495 N491 0.985 . S
H496 N490 0.984 . S
H497 N490 0.984 . S
H498 N486 0.984 . S
H499 N486 0.985 . S
C500 C501 1.363 . S
C500 C506 1.379 . S
C500 N508 1.356 . S
C501 C500 1.363 . S
C501 C507 1.363 . S
C502 C503 1.363 . S
C502 C507 1.379 . S
C502 N509 1.356 . S
C503 C502 1.363 . S
C503 C506 1.363 . S
N504 C506 1.356 . S
N504 H516 0.984 . S
N504 H517 0.985 . S
N505 C507 1.356 . S
N505 H510 0.984 . S
N505 H511 0.985 . S
C506 C500 1.379 . S
C506 C503 1.363 . S
C506 N504 1.356 . S
C507 C501 1.363 . S
C507 C502 1.379 . S
C507 N505 1.356 . S
N508 C500 1.356 . S
N508 H514 0.984 . S
N508 H515 0.984 . S
N509 C502 1.356 . S
N509 H512 0.984 . S
N509 H513 0.985 . S
H510 N505 0.984 . S
H511 N505 0.985 . S
H512 N509 0.984 . S
H513 N509 0.985 . S
H514 N508 0.984 . S
H515 N508 0.984 . S
H516 N504 0.984 . S
H517 N504 0.985 . S
C518 C519 1.363 . S
C518 C524 1.379 . S
C518 N526 1.356 . S
C519 C518 1.363 . S
C519 C525 1.363 . S
C520 C521 1.363 . S
C520 C525 1.379 . S
C520 N527 1.356 . S
C521 C520 1.363 . S
C521 C524 1.363 . S
N522 C524 1.356 . S
N522 H534 0.984 . S
N522 H535 0.985 . S
N523 C525 1.356 . S
N523 H528 0.984 . S
N523 H529 0.985 . S
C524 C518 1.379 . S
C524 C521 1.363 . S
C524 N522 1.356 . S
C525 C519 1.363 . S
C525 C520 1.379 . S
C525 N523 1.356 . S
N526 C518 1.356 . S
N526 H532 0.984 . S
N526 H533 0.984 . S
N527 C520 1.356 . S
N527 H530 0.984 . S
N527 H531 0.985 . S
H528 N523 0.984 . S
H529 N523 0.985 . S
H530 N527 0.984 . S
H531 N527 0.985 . S
H532 N526 0.984 . S
H533 N526 0.984 . S
H534 N522 0.984 . S
H535 N522 0.985 . S
C321 C175 1.499 . S
C323 C15 1.499 . S
C339 C215 1.505 . S
C341 C55 1.504 . S
C357 C82 1.487 . S
C359 C242 1.505 . S
C375 C122 1.488 . S
C377 C282 1.509 . S
C393 C295 1.513 . S
C395 C135 1.511 . S
C411 C202 1.499 . S
C413 C42 1.485 . S
C429 C255 1.509 . S
C431 C95 1.508 . S
C447 C2 1.487 . S
C449 C162 1.486 . S
C465 C221 1.494 . S
C467 C21 1.490 . S
C483 C261 1.498 . S
C485 C61 1.487 . S
C501 C101 1.490 . S
C503 C301 1.501 . S
C519 C181 1.492 . S
C521 C141 1.485 . S
