# Generated by pormake.
# Topology snz, (6)-cn, num edge types: 1
# Building blocks:
#     Node 0, Type 0, BuildingBlock: BETDIP_clean_sbu_0, # of connection points: 6
#     Node 1, Type 0, BuildingBlock: BETDIP_clean_sbu_0, # of connection points: 6
#     Node 2, Type 0, BuildingBlock: BETDIP_clean_sbu_0, # of connection points: 6
#     Node 3, Type 0, BuildingBlock: BETDIP_clean_sbu_0, # of connection points: 6
#     Node 4, Type 0, BuildingBlock: BETDIP_clean_sbu_0, # of connection points: 6
#     Node 5, Type 0, BuildingBlock: BETDIP_clean_sbu_0, # of connection points: 6
#     Node 6, Type 0, BuildingBlock: BETDIP_clean_sbu_0, # of connection points: 6
#     Node 7, Type 0, BuildingBlock: BETDIP_clean_sbu_0, # of connection points: 6
#     Node 8, Type 0, BuildingBlock: BETDIP_clean_sbu_0, # of connection points: 6
#     Edge 9, Type (0, 0), BuildingBlock: OJICUG_clean_linker_0, # of connection points: 2
#     Edge 10, Type (0, 0), BuildingBlock: OJICUG_clean_linker_0, # of connection points: 2
#     Edge 11, Type (0, 0), BuildingBlock: OJICUG_clean_linker_0, # of connection points: 2
#     Edge 12, Type (0, 0), BuildingBlock: OJICUG_clean_linker_0, # of connection points: 2
#     Edge 13, Type (0, 0), BuildingBlock: OJICUG_clean_linker_0, # of connection points: 2
#     Edge 14, Type (0, 0), BuildingBlock: OJICUG_clean_linker_0, # of connection points: 2
#     Edge 15, Type (0, 0), BuildingBlock: OJICUG_clean_linker_0, # of connection points: 2
#     Edge 16, Type (0, 0), BuildingBlock: OJICUG_clean_linker_0, # of connection points: 2
#     Edge 17, Type (0, 0), BuildingBlock: OJICUG_clean_linker_0, # of connection points: 2
#     Edge 18, Type (0, 0), BuildingBlock: OJICUG_clean_linker_0, # of connection points: 2
#     Edge 19, Type (0, 0), BuildingBlock: OJICUG_clean_linker_0, # of connection points: 2
#     Edge 20, Type (0, 0), BuildingBlock: OJICUG_clean_linker_0, # of connection points: 2
#     Edge 21, Type (0, 0), BuildingBlock: OJICUG_clean_linker_0, # of connection points: 2
#     Edge 22, Type (0, 0), BuildingBlock: OJICUG_clean_linker_0, # of connection points: 2
#     Edge 23, Type (0, 0), BuildingBlock: OJICUG_clean_linker_0, # of connection points: 2
#     Edge 24, Type (0, 0), BuildingBlock: OJICUG_clean_linker_0, # of connection points: 2
#     Edge 25, Type (0, 0), BuildingBlock: OJICUG_clean_linker_0, # of connection points: 2
#     Edge 26, Type (0, 0), BuildingBlock: OJICUG_clean_linker_0, # of connection points: 2
#     Edge 27, Type (0, 0), BuildingBlock: OJICUG_clean_linker_0, # of connection points: 2
#     Edge 28, Type (0, 0), BuildingBlock: OJICUG_clean_linker_0, # of connection points: 2
#     Edge 29, Type (0, 0), BuildingBlock: OJICUG_clean_linker_0, # of connection points: 2
#     Edge 30, Type (0, 0), BuildingBlock: OJICUG_clean_linker_0, # of connection points: 2
#     Edge 31, Type (0, 0), BuildingBlock: OJICUG_clean_linker_0, # of connection points: 2
#     Edge 32, Type (0, 0), BuildingBlock: OJICUG_clean_linker_0, # of connection points: 2
#     Edge 33, Type (0, 0), BuildingBlock: OJICUG_clean_linker_0, # of connection points: 2
#     Edge 34, Type (0, 0), BuildingBlock: OJICUG_clean_linker_0, # of connection points: 2
#     Edge 35, Type (0, 0), BuildingBlock: OJICUG_clean_linker_0, # of connection points: 2
# Relax obj value: 0.199
# Max RMSD: 0.247
# Mean RMSD: 0.234
data_MOF--net-snz--node1-BETDIP_clean_sbu_0--edge1-OJICUG_clean_linker_0
_symmetry_space_group_name_H-M    P1
_symmetry_Int_Tables_number       1
_symmetry_cell_setting            triclinic
loop_
_symmetry_equiv_pos_as_xyz
'x, y, z'
_cell_length_a     52.443162
_cell_length_b     52.6995
_cell_length_c     10.623045
_cell_angle_alpha  89.946415
_cell_angle_beta   90.032531
_cell_angle_gamma 119.919
loop_
_atom_site_label
_atom_site_type_symbol
_atom_site_fract_x
_atom_site_fract_y
_atom_site_fract_z
_atom_type_partial_charge
Tb0 Tb 0.24267 0.47079 0.01879 0.0
Tb1 Tb 0.18571 0.46685 0.02116 0.0
C2 C 0.28677 0.4655 0.07482 0.0
C3 C 0.313 0.46238 0.10796 0.0
C4 C 0.31459 0.45063 0.22456 0.0
C5 C 0.33931 0.44821 0.25751 0.0
C6 C 0.36336 0.45687 0.17416 0.0
C7 C 0.36166 0.46875 0.05712 0.0
C8 C 0.33703 0.4716 0.02505 0.0
C9 C 0.22692 0.47835 0.78994 0.0
C10 C 0.18134 0.4079 0.96412 0.0
C11 C 0.14161 0.47327 0.99826 0.0
C12 C 0.13571 0.49747 0.98198 0.0
C13 C 0.15102 0.51965 0.89292 0.0
C14 C 0.14356 0.54133 0.87435 0.0
C15 C 0.12068 0.54107 0.94425 0.0
C16 C 0.10627 0.51953 0.03686 0.0
C17 C 0.11376 0.49789 0.05547 0.0
C18 C 0.20368 0.45975 0.24789 0.0
C19 C 0.23999 0.52936 0.04213 0.0
O20 O 0.26184 0.45234 0.13688 0.0
O21 O 0.28657 0.4814 0.98053 0.0
O22 O 0.2104 0.46065 0.87368 0.0
O23 O 0.25356 0.49193 0.83373 0.0
O24 O 0.2106 0.42202 0.98464 0.0
O25 O 0.16674 0.42201 0.96866 0.0
O26 O 0.15398 0.46756 0.90397 0.0
O27 O 0.15274 0.47227 0.10669 0.0
O28 O 0.21903 0.47813 0.1644 0.0
O29 O 0.1774 0.4441 0.20296 0.0
O30 O 0.21423 0.51336 0.98863 0.0
O31 O 0.25487 0.51629 0.08014 0.0
H32 H 0.29679 0.44357 0.29174 0.0
H33 H 0.33946 0.43976 0.35013 0.0
H34 H 0.3791 0.47546 0.98856 0.0
H35 H 0.3367 0.48082 0.93431 0.0
H36 H 0.16833 0.51996 0.83616 0.0
H37 H 0.15531 0.55799 0.80365 0.0
H38 H 0.08839 0.51866 0.09127 0.0
H39 H 0.10189 0.481 0.12519 0.0
Tb40 Tb 0.83317 0.71383 0.02053 0.0
Tb41 Tb 0.8367 0.66076 0.02279 0.0
C42 C 0.83873 0.76314 0.07623 0.0
C43 C 0.84199 0.79247 0.10892 0.0
C44 C 0.85487 0.8064 0.22324 0.0
C45 C 0.85754 0.83357 0.25543 0.0
C46 C 0.84796 0.8484 0.17356 0.0
C47 C 0.83491 0.83421 0.05891 0.0
C48 C 0.83185 0.80674 0.02762 0.0
C49 C 0.8255 0.69067 0.79159 0.0
C50 C 0.89616 0.71495 0.96603 0.0
C51 C 0.8297 0.61021 1.00096 0.0
C52 C 0.8054 0.58024 0.98294 0.0
C53 C 0.78372 0.57342 0.89091 0.0
C54 C 0.76209 0.54436 0.87069 0.0
C55 C 0.76188 0.52176 0.94199 0.0
C56 C 0.7829 0.52884 0.03743 0.0
C57 C 0.80449 0.55788 0.05761 0.0
C58 C 0.84396 0.68572 0.24953 0.0
C59 C 0.7742 0.65283 0.04258 0.0
O60 O 0.85209 0.75148 0.13764 0.0
O61 O 0.82247 0.74695 0.98295 0.0
O62 O 0.84319 0.6917 0.87543 0.0
O63 O 0.81204 0.70383 0.83526 0.0
O64 O 0.88214 0.73016 0.98642 0.0
O65 O 0.88181 0.68634 0.9706 0.0
O66 O 0.83614 0.6284 0.9067 0.0
O67 O 0.83017 0.62218 0.10896 0.0
O68 O 0.82556 0.68282 0.166 0.0
O69 O 0.85953 0.67501 0.20467 0.0
O70 O 0.79021 0.64332 0.98746 0.0
O71 O 0.78745 0.68054 0.08239 0.0
H72 H 0.86269 0.79611 0.28923 0.0
H73 H 0.86692 0.84263 0.34633 0.0
H74 H 0.82742 0.84447 0.99147 0.0
H75 H 0.82174 0.79677 0.93866 0.0
H76 H 0.78378 0.5904 0.83316 0.0
H77 H 0.74584 0.53951 0.79778 0.0
H78 H 0.78343 0.51187 0.09303 0.0
H79 H 0.82098 0.56283 0.12955 0.0
Tb80 Tb 0.59003 0.06088 0.01982 0.0
Tb81 Tb 0.64372 0.11685 0.02103 0.0
C82 C 0.54042 1.0173 0.07443 0.0
C83 C 0.51103 0.99106 0.10567 0.0
C84 C 0.49085 0.99356 0.18443 0.0
C85 C 0.4635 0.96893 0.21485 0.0
C86 C 0.45534 0.94059 0.16947 0.0
C87 C 0.47566 0.93831 0.08966 0.0
C88 C 0.50289 0.96307 0.05806 0.0
C89 C 0.6133 0.07608 0.79033 0.0
C90 C 0.58949 0.12254 0.96376 0.0
C91 C 0.69433 0.16039 0.99699 0.0
C92 C 0.72454 0.16618 0.98629 0.0
C93 C 0.73132 0.1474 0.91911 0.0
C94 C 0.76058 0.15471 0.90323 0.0
C95 C 0.78334 0.18083 0.95437 0.0
C96 C 0.77631 0.19882 0.02645 0.0
C97 C 0.74707 0.1915 0.04223 0.0
C98 C 0.61859 0.09956 0.2483 0.0
C99 C 0.65082 0.06207 0.04577 0.0
O100 O 0.55092 0.04287 0.12949 0.0
O101 O 0.55791 1.01664 0.98835 0.0
O102 O 0.6125 0.09274 0.87406 0.0
O103 O 0.5997 0.04959 0.83418 0.0
O104 O 0.57392 0.09353 0.98636 0.0
O105 O 0.61825 0.13639 0.96616 0.0
O106 O 0.67679 0.14701 0.90221 0.0
O107 O 0.68172 0.15036 0.10562 0.0
O108 O 0.62124 0.08396 0.16512 0.0
O109 O 0.62971 0.12575 0.20297 0.0
O110 O 0.66129 0.0877 0.99118 0.0
O111 O 0.623 0.0484 0.08582 0.0
H112 H 0.49611 1.01469 0.22245 0.0
H113 H 0.44867 0.97243 0.27337 0.0
H114 H 0.47094 0.91727 0.05291 0.0
H115 H 0.51779 0.96015 0.99724 0.0
H116 H 0.71414 0.12755 0.87638 0.0
H117 H 0.76546 0.1403 0.84861 0.0
H118 H 0.79342 0.2192 0.06586 0.0
H119 H 0.74207 0.20605 0.09522 0.0
Tb120 Tb 0.92559 1.03001 0.32347 0.0
Tb121 Tb 0.86882 1.02644 0.32594 0.0
C122 C 0.9695 1.02328 0.34615 0.0
C123 C 0.97534 0.99905 0.36215 0.0
C124 C 0.9601 0.97689 0.4514 0.0
C125 C 0.96758 0.95522 0.46981 0.0
C126 C 0.99042 0.95548 0.39955 0.0
C127 C 1.00474 0.97698 0.30671 0.0
C128 C 0.99722 0.9986 0.28827 0.0
C129 C 0.90788 1.03738 0.0967 0.0
C130 C 0.87128 0.96772 0.3011 0.0
C131 C 0.82492 1.03225 0.27168 0.0
C132 C 0.79859 1.03543 0.24023 0.0
C133 C 0.80117 0.05791 0.16038 0.0
C134 C 0.77654 0.06081 0.13037 0.0
C135 C 0.74809 0.04105 0.17729 0.0
C136 C 0.74572 1.01864 0.25813 0.0
C137 C 0.77048 1.01598 0.2893 0.0
C138 C 0.88455 1.01873 0.55496 0.0
C139 C 0.93051 0.08915 0.38124 0.0
O140 O 0.95719 1.02903 0.44057 0.0
O141 O 0.95837 1.02434 0.23779 0.0
O142 O 0.89231 1.01906 0.17996 0.0
O143 O 0.93416 0.05281 0.14181 0.0
O144 O 0.89687 0.98356 0.35607 0.0
O145 O 0.85671 0.98104 0.2621 0.0
O146 O 0.85053 0.04714 0.21586 0.0
O147 O 0.8243 1.01422 0.35799 0.0
O148 O 0.90101 1.03638 0.47109 0.0
O149 O 0.85789 1.00543 0.51146 0.0
O150 O 0.90122 0.07516 0.36112 0.0
O151 O 0.94493 0.07488 0.37613 0.0
H152 H 0.94285 0.9766 0.50847 0.0
H153 H 0.95592 0.93859 0.54071 0.0
H154 H 1.02259 0.97784 0.25204 0.0
H155 H 1.00904 1.01547 0.21842 0.0
H156 H 0.82238 0.0735 0.12129 0.0
H157 H 0.78015 0.07899 0.071 0.0
H158 H 0.72459 1.00263 0.29616 0.0
H159 H 0.76749 0.99834 0.3511 0.0
Tb160 Tb 0.27577 0.8366 0.32526 0.0
Tb161 Tb 0.27824 0.78291 0.32582 0.0
C162 C 0.28317 0.8872 0.35092 0.0
C163 C 0.30766 0.91718 0.36489 0.0
C164 C 0.33117 0.92399 0.44714 0.0
C165 C 0.35284 0.95311 0.46574 0.0
C166 C 0.35134 0.97572 0.40192 0.0
C167 C 0.32855 0.96864 0.31519 0.0
C168 C 0.30686 0.93957 0.29704 0.0
C169 C 0.2683 0.81202 0.0975 0.0
C170 C 0.33779 0.84333 0.30261 0.0
C171 C 0.27244 0.73356 0.26965 0.0
C172 C 0.26904 0.70421 0.23672 0.0
C173 C 0.25607 0.69036 0.1224 0.0
C174 C 0.25343 0.66324 0.08964 0.0
C175 C 0.26313 0.64842 0.17091 0.0
C176 C 0.27625 0.66252 0.28557 0.0
C177 C 0.27928 0.68995 0.31744 0.0
C178 C 0.28623 0.80614 0.55524 0.0
C179 C 0.21579 0.78256 0.38032 0.0
O180 O 0.2781 0.86922 0.44486 0.0
O181 O 0.28114 0.87501 0.24182 0.0
O182 O 0.28641 0.81424 0.18123 0.0
O183 O 0.25322 0.82326 0.14246 0.0
O184 O 0.32245 0.8537 0.35703 0.0
O185 O 0.32387 0.81567 0.26229 0.0
O186 O 0.25907 0.74527 0.20872 0.0
O187 O 0.28874 0.74966 0.36305 0.0
O188 O 0.26864 0.80523 0.47134 0.0
O189 O 0.29939 0.7927 0.51141 0.0
O190 O 0.22939 0.76703 0.35836 0.0
O191 O 0.23058 0.8112 0.37786 0.0
H192 H 0.33245 0.90696 0.4991 0.0
H193 H 0.37044 0.95801 0.53183 0.0
H194 H 0.32674 0.98564 0.26553 0.0
H195 H 0.28897 0.9346 0.23246 0.0
H196 H 0.24821 0.70067 0.05684 0.0
H197 H 0.24398 0.65422 0.99877 0.0
H198 H 0.28381 0.65225 0.35253 0.0
H199 H 0.28948 0.69989 0.40632 0.0
Tb200 Tb 0.468 0.37911 0.3317 0.0
Tb201 Tb 0.52113 0.43578 0.32958 0.0
C202 C 0.41763 0.33585 0.3653 0.0
C203 C 0.38711 0.32977 0.36291 0.0
C204 C 0.37746 0.34461 0.44217 0.0
C205 C 0.34776 0.33647 0.44559 0.0
C206 C 0.3273 0.31339 0.3699 0.0
C207 C 0.33732 0.29962 0.28631 0.0
C208 C 0.36695 0.30767 0.28334 0.0
C209 C 0.49181 0.39631 0.10232 0.0
C210 C 0.45961 0.43352 0.30348 0.0
C211 C 0.57037 0.47965 0.27262 0.0
C212 C 0.59964 0.5058 0.23934 0.0
C213 C 0.61305 0.50744 0.12279 0.0
C214 C 0.64007 0.53213 0.08973 0.0
C215 C 0.65524 0.55612 0.17288 0.0
C216 C 0.6416 0.55436 0.28987 0.0
C217 C 0.61426 0.52975 0.32207 0.0
C218 C 0.49823 0.42028 0.55973 0.0
C219 C 0.52293 0.37468 0.38609 0.0
O220 O 0.43442 0.35236 0.45667 0.0
O221 O 0.43122 0.34219 0.2571 0.0
O222 O 0.4895 0.41199 0.18637 0.0
O223 O 0.48078 0.37009 0.14726 0.0
O224 O 0.44934 0.40744 0.35354 0.0
O225 O 0.48782 0.44839 0.2686 0.0
O226 O 0.55852 0.45494 0.20987 0.0
O227 O 0.55447 0.47933 0.36812 0.0
O228 O 0.49962 0.40394 0.47599 0.0
O229 O 0.51104 0.44674 0.51542 0.0
O230 O 0.538 0.40357 0.35975 0.0
O231 O 0.49419 0.36058 0.38884 0.0
H232 H 0.39262 0.36185 0.50429 0.0
H233 H 0.34068 0.34732 0.51185 0.0
H234 H 0.32213 0.28208 0.22544 0.0
H235 H 0.37402 0.2961 0.22098 0.0
H236 H 0.60245 0.48969 0.05574 0.0
H237 H 0.64873 0.53231 0.99719 0.0
H238 H 0.65217 0.57175 0.35831 0.0
H239 H 0.60466 0.5294 0.41274 0.0
Tb240 Tb 0.58551 0.27011 0.69257 0.0
Tb241 Tb 0.527 0.22719 0.65346 0.0
C242 C 0.63688 0.31317 0.67529 0.0
C243 C 0.65458 0.34237 0.72838 0.0
C244 C 0.64362 0.353 0.82266 0.0
C245 C 0.66061 0.38187 0.86476 0.0
C246 C 0.68849 0.40025 0.81193 0.0
C247 C 0.6995 0.38905 0.72026 0.0
C248 C 0.68262 0.36035 0.67869 0.0
C249 C 0.57458 0.21787 0.77777 0.0
C250 C 0.54715 0.25801 0.91693 0.0
C251 C 0.47554 0.18425 0.67014 0.0
C252 C 0.45796 0.15494 0.61786 0.0
C253 C 0.46832 0.14493 0.51872 0.0
C254 C 0.45148 0.11605 0.47654 0.0
C255 C 0.4244 0.09704 0.53421 0.0
C256 C 0.41398 0.10756 0.63123 0.0
C257 C 0.4307 0.13628 0.67281 0.0
C258 C 0.53814 0.27952 0.56876 0.0
C259 C 0.56541 0.2391 0.42948 0.0
O260 O 0.61504 0.30948 0.60413 0.0
O261 O 0.62956 0.2912 0.75132 0.0
O262 O 0.56527 0.2224 0.67404 0.0
O263 O 0.59097 0.24281 0.83113 0.0
O264 O 0.56873 0.28013 0.85768 0.0
O265 O 0.52886 0.23444 0.8544 0.0
O266 O 0.49718 0.18806 0.74286 0.0
O267 O 0.48308 0.20608 0.59301 0.0
O268 O 0.54724 0.27483 0.67265 0.0
O269 O 0.5218 0.25467 0.51478 0.0
O270 O 0.54384 0.21701 0.48892 0.0
O271 O 0.58367 0.26271 0.49179 0.0
H272 H 0.62184 0.33923 0.86149 0.0
H273 H 0.65163 0.39008 0.93524 0.0
H274 H 0.72111 0.40261 0.67961 0.0
H275 H 0.69128 0.35233 0.60593 0.0
H276 H 0.48951 0.15921 0.47586 0.0
H277 H 0.45998 0.10835 0.40189 0.0
H278 H 0.39297 0.09347 0.67582 0.0
H279 H 0.42252 0.14381 0.74942 0.0
Tb280 Tb 1.03461 0.25618 0.69118 0.0
Tb281 Tb 0.07775 0.24099 0.65363 0.0
C282 C 0.9916 0.26468 0.67361 0.0
C283 C 0.9623 0.253 0.72702 0.0
C284 C 0.95373 0.23566 0.83616 0.0
C285 C 0.9249 0.22359 0.88045 0.0
C286 C 0.9045 0.22854 0.81486 0.0
C287 C 0.91352 0.24641 0.70728 0.0
C288 C 0.94222 0.25849 0.66365 0.0
C289 C 0.0869 0.29745 0.77724 0.0
C290 C 1.04628 0.22973 0.91591 0.0
C291 C 0.12148 0.23362 0.6702 0.0
C292 C 0.14978 0.24458 0.60777 0.0
C293 C 0.15964 0.26688 0.51703 0.0
C294 C 0.18755 0.27788 0.46368 0.0
C295 C 0.20572 0.26663 0.50072 0.0
C296 C 0.19543 0.24414 0.59103 0.0
C297 C 0.16766 0.23319 0.64381 0.0
C298 C 1.02545 0.19976 0.5671 0.0
C299 C 0.06559 0.26683 0.42778 0.0
O300 O 0.99526 0.24673 0.6018 0.0
O301 O 1.01367 0.27917 0.74974 0.0
O302 O 0.08247 0.28381 0.67335 0.0
O303 O 1.06182 0.28858 0.83078 0.0
O304 O 1.02418 0.22928 0.85608 0.0
O305 O 0.07009 0.23519 0.85408 0.0
O306 O 0.11846 0.25286 0.73557 0.0
O307 O 0.09826 0.21703 0.60292 0.0
O308 O 1.02985 0.21336 0.67122 0.0
O309 O 1.05058 0.20863 0.51361 0.0
O310 O 0.0877 0.26719 0.4869 0.0
O311 O 1.04197 0.26168 0.49031 0.0
H312 H 0.96912 0.23114 0.88551 0.0
H313 H 0.91832 0.20976 0.96334 0.0
H314 H 0.89829 0.25087 0.65628 0.0
H315 H 0.94864 0.27182 0.57921 0.0
H316 H 0.14595 0.27592 0.48878 0.0
H317 H 0.19491 0.29513 0.39391 0.0
H318 H 0.20915 0.23546 0.6235 0.0
H319 H 0.16032 0.21613 0.71456 0.0
Tb320 Tb 1.04812 0.71943 0.69093 0.0
Tb321 Tb 0.06352 0.77774 0.65373 0.0
C322 C 1.03985 0.66827 0.67131 0.0
C323 C 1.05016 0.64988 0.72815 0.0
C324 C 0.07135 0.66028 0.82427 0.0
C325 C 0.08257 0.64279 0.86833 0.0
C326 C 0.07281 0.61498 0.8156 0.0
C327 C 1.05082 0.60444 0.72278 0.0
C328 C 1.03966 0.62182 0.67924 0.0
C329 C 1.00686 0.73045 0.77826 0.0
C330 C 0.07443 0.75719 0.91645 0.0
C331 C 0.07184 0.82891 0.67319 0.0
C332 C 1.06156 0.84727 0.61577 0.0
C333 C 1.04026 0.83671 0.5201 0.0
C334 C 1.02898 0.85413 0.47579 0.0
C335 C 1.03879 0.88201 0.52784 0.0
C336 C 1.06091 0.89271 0.62008 0.0
C337 C 0.07214 0.87541 0.66387 0.0
C338 C 0.10467 0.76667 0.5661 0.0
C339 C 1.03714 0.73993 0.42826 0.0
O340 O 1.05938 0.69052 0.60659 0.0
O341 O 1.02391 0.67512 0.74204 0.0
O342 O 1.02054 0.73972 0.6742 0.0
O343 O 1.01568 0.71416 0.83135 0.0
O344 O 0.07456 0.73542 0.85739 0.0
O345 O 0.06937 0.77569 0.85412 0.0
O346 O 1.05224 0.80667 0.73771 0.0
O347 O 0.08785 0.82206 0.60293 0.0
O348 O 0.0911 0.75747 0.67046 0.0
O349 O 0.09582 0.78292 0.51303 0.0
O350 O 1.03706 0.76174 0.48731 0.0
O351 O 1.0422 0.72144 0.49057 0.0
H352 H 0.07967 0.68206 0.86253 0.0
H353 H 0.09958 0.65137 0.93976 0.0
H354 H 1.04261 0.58289 0.68218 0.0
H355 H 1.02328 0.6136 0.60508 0.0
H356 H 1.03188 0.81487 0.48247 0.0
H357 H 1.01186 0.84543 0.40482 0.0
H358 H 0.06916 0.91432 0.66014 0.0
H359 H 0.0886 0.88374 0.73769 0.0
C360 C 0.24254 0.49108 0.56247 0.0
C361 C 0.22057 0.47411 0.65131 0.0
H362 H 0.25468 0.49981 0.367 0.0
C363 C 0.19319 0.45206 0.60578 0.0
H364 H 0.26395 0.50815 0.59371 0.0
C365 C 0.18797 0.44711 0.47551 0.0
C366 C 0.20993 0.46411 0.38664 0.0
H367 H 0.17581 0.4384 0.67097 0.0
H368 H 0.16657 0.43001 0.44434 0.0
C369 C 0.23729 0.48619 0.43219 0.0
C370 C 0.81274 0.69355 0.56405 0.0
C371 C 0.82969 0.68848 0.65297 0.0
H372 H 0.804 0.69696 0.36852 0.0
C373 C 0.85167 0.68295 0.60751 0.0
H374 H 0.79572 0.69804 0.59522 0.0
C375 C 0.85658 0.68259 0.47723 0.0
C376 C 0.83963 0.68767 0.38828 0.0
H377 H 0.86531 0.67916 0.67276 0.0
H378 H 0.87364 0.67816 0.44612 0.0
C379 C 0.8176 0.69312 0.43377 0.0
C380 C 0.61034 0.06053 0.56291 0.0
C381 C 0.61559 0.08249 0.65174 0.0
H382 H 0.60688 0.04847 0.36747 0.0
C383 C 0.62138 0.10996 0.60621 0.0
H384 H 0.60566 1.03906 0.59415 0.0
C385 C 0.62183 0.11527 0.47592 0.0
C386 C 0.61657 0.09331 0.38707 0.0
H387 H 0.62532 0.12734 0.67141 0.0
H388 H 0.62647 0.13673 0.44471 0.0
C389 C 0.61086 0.06586 0.43264 0.0
C390 C 0.86895 1.00615 0.78236 0.0
C391 C 0.89095 1.02299 0.69348 0.0
H392 H 0.85679 0.99756 0.97779 0.0
C393 C 0.91841 0.04493 0.73885 0.0
H394 H 0.84748 0.98917 0.75122 0.0
C395 C 0.92366 0.0499 0.86909 0.0
C396 C 0.90165 1.03305 0.95799 0.0
H397 H 0.93582 0.05848 0.67357 0.0
H398 H 0.94512 0.06691 0.90022 0.0
C399 C 0.87422 1.01108 0.91256 0.0
C400 C 0.26056 0.81461 0.73928 0.0
C401 C 0.28217 0.80853 0.69389 0.0
H402 H 0.23901 0.82009 0.9006 0.0
C403 C 0.29889 0.80316 0.78296 0.0
H404 H 0.24711 0.81865 0.67395 0.0
C405 C 0.29415 0.80384 0.91327 0.0
C406 C 0.2725 0.80986 0.95869 0.0
H407 H 0.31563 0.79826 0.75189 0.0
H408 H 0.30758 0.79976 0.97857 0.0
C409 C 0.25578 0.81523 0.86959 0.0
C410 C 0.48987 0.38632 0.74402 0.0
C411 C 0.49578 0.41382 0.69847 0.0
H412 H 0.48435 0.35939 0.90548 0.0
C413 C 0.50082 0.4357 0.78747 0.0
H414 H 0.48607 0.36898 0.67879 0.0
C415 C 0.49997 0.43025 0.91786 0.0
C416 C 0.4941 0.40275 0.96346 0.0
H417 H 0.50558 0.4572 0.75628 0.0
H418 H 0.50383 0.44759 0.98309 0.0
C419 C 0.48907 0.38088 0.87439 0.0
C420 C 0.53849 0.22098 0.22791 0.0
C421 C 0.56265 0.24257 0.29424 0.0
H422 H 0.51353 0.20955 0.05874 0.0
C423 C 0.58051 0.27012 0.23799 0.0
H424 H 0.52406 0.19976 0.26951 0.0
C425 C 0.57407 0.27607 0.11846 0.0
C426 C 0.54991 0.25449 0.05213 0.0
H427 H 0.59905 0.28751 0.28753 0.0
H428 H 0.5885 0.2973 0.07691 0.0
C429 C 0.53206 0.22693 0.10833 0.0
C430 C 1.03453 0.25155 0.23597 0.0
C431 C 1.06202 0.26056 0.29268 0.0
H432 H 1.00722 0.23291 0.07451 0.0
C433 C 0.08331 0.25721 0.22723 0.0
H434 H 1.01736 0.25331 0.28495 0.0
C435 C 0.07711 0.24472 0.1081 0.0
C436 C 1.04966 0.23579 0.05119 0.0
H437 H 0.10446 0.26343 0.26924 0.0
H438 H 0.09428 0.24293 0.0593 0.0
C439 C 1.02835 0.23911 0.11666 0.0
C440 C 1.04679 0.76701 0.22704 0.0
C441 C 1.04327 0.74247 0.29304 0.0
H442 H 1.06125 0.79203 0.05858 0.0
C443 C 1.05215 0.72393 0.23676 0.0
H444 H 1.04066 0.78197 0.26868 0.0
C445 C 0.06471 0.73007 0.11759 0.0
C446 C 0.06824 0.75462 0.05163 0.0
H447 H 1.05024 0.70505 0.28606 0.0
H448 H 0.07084 0.71511 0.07595 0.0
C449 C 1.05935 0.77316 0.10788 0.0
C450 C 0.44142 0.46501 0.19007 0.0
C451 C 0.43703 0.44269 0.27549 0.0
H452 H 0.42246 0.4875 0.09239 0.0
C453 C 0.40863 0.42597 0.3276 0.0
H454 H 0.46272 0.47819 0.14628 0.0
C455 C 0.38538 0.43052 0.29411 0.0
C456 C 0.38929 0.45266 0.20877 0.0
H457 H 0.40386 0.40848 0.39342 0.0
H458 H 0.36402 0.4158 0.33393 0.0
C459 C 0.41797 0.47 0.15768 0.0
C460 C 0.8344 0.88946 0.15874 0.0
C461 C 0.85237 0.87857 0.20711 0.0
H462 H 0.82565 0.92551 0.14908 0.0
C463 C 0.87531 0.89725 0.28864 0.0
H464 H 0.81627 0.87611 0.09641 0.0
C465 C 0.87997 0.92501 0.32135 0.0
C466 C 0.8625 0.93619 0.27239 0.0
H467 H 0.89053 0.89096 0.32612 0.0
H468 H 0.8981 0.93807 0.38415 0.0
C469 C 0.83946 0.91784 0.19036 0.0
C470 C 0.41222 0.91339 0.32091 0.0
C471 C 0.42611 0.91389 0.20646 0.0
H472 H 0.3745 0.89112 0.44033 0.0
C473 C 0.41141 0.88874 0.12871 0.0
H474 H 0.42255 0.93139 0.38665 0.0
C475 C 0.38365 0.86472 0.16251 0.0
C476 C 0.36953 0.86515 0.27458 0.0
H477 H 0.42074 0.88788 0.03912 0.0
H478 H 0.37262 0.84653 0.09784 0.0
C479 C 0.38454 0.88977 0.35337 0.0
C480 C 0.56473 0.14009 0.80645 0.0
C481 C 0.57667 0.14142 0.92738 0.0
H482 H 0.55426 0.16277 0.66281 0.0
C483 C 0.58546 0.16699 0.99821 0.0
H484 H 0.55902 0.12139 0.74651 0.0
C485 C 0.58338 0.19067 0.94988 0.0
C486 C 0.57264 0.1901 0.82762 0.0
H487 H 0.59586 0.16948 0.08909 0.0
H488 H 0.59146 0.21013 0.00754 0.0
C489 C 0.56249 0.16407 0.75746 0.0
C490 C 0.11399 0.3331 0.95007 0.0
C491 C 0.11463 0.32338 0.82717 0.0
H492 H 0.13488 0.36648 0.09003 0.0
C493 C 0.14063 0.33982 0.75648 0.0
H494 H 0.09455 0.32128 0.00814 0.0
C495 C 0.16443 0.36614 0.80564 0.0
C496 C 0.16297 0.37629 0.92723 0.0
H497 H 0.14197 0.33323 0.66133 0.0
H498 H 0.18303 0.37954 0.74536 0.0
C499 C 0.1375 0.35895 0.99858 0.0
C500 C 0.97111 0.72195 0.95149 0.0
C501 C 0.98091 0.73232 0.82858 0.0
H502 H 0.93761 0.70961 0.09164 0.0
C503 C 0.96451 0.74198 0.75809 0.0
H504 H 0.9829 0.71426 0.0094 0.0
C505 C 0.93815 0.73959 0.80741 0.0
C506 C 0.92791 0.728 0.92901 0.0
H507 H 0.97115 0.7499 0.66292 0.0
H508 H 0.92478 0.74489 0.74724 0.0
C509 C 0.94521 0.71974 1.00018 0.0
C510 C 0.09463 0.58434 0.75588 0.0
C511 C 0.08647 0.59741 0.85075 0.0
H512 H 0.11154 0.55609 0.71146 0.0
C513 C 0.09083 0.59299 0.97743 0.0
H514 H 0.0918 0.58771 0.65738 0.0
C515 C 0.1025 0.57507 0.00855 0.0
C516 C 0.11017 0.5616 0.91328 0.0
H517 H 0.08457 0.60278 0.05211 0.0
H518 H 0.10537 0.57162 0.10685 0.0
C519 C 0.10629 0.56657 0.78678 0.0
C520 C 0.73696 0.48202 0.78373 0.0
C521 C 0.74139 0.49081 0.91026 0.0
H522 H 0.71638 0.44654 0.65398 0.0
C523 C 0.72745 0.46967 1.00512 0.0
H524 H 0.74779 0.49773 0.7087 0.0
C525 C 0.70967 0.44017 0.97368 0.0
C526 C 0.70579 0.43143 0.84703 0.0
H527 H 0.73045 0.47592 0.10346 0.0
H528 H 0.69959 0.42415 0.04824 0.0
C529 C 0.7193 0.45267 0.75248 0.0
C530 C 0.85123 0.20078 0.76396 0.0
C531 C 0.87352 0.21441 0.85442 0.0
H532 H 0.80526 0.17966 0.72493 0.0
C533 C 0.86598 0.21541 0.98031 0.0
H534 H 0.85653 0.1995 0.66644 0.0
C535 C 0.83651 0.20375 0.01423 0.0
C536 C 0.81427 0.19076 0.92278 0.0
H537 H 0.88287 0.22598 0.05145 0.0
H538 H 0.83112 0.20521 0.1114 0.0
C539 C 0.8219 0.1891 0.79773 0.0
C540 C 0.69721 0.06133 0.99422 0.0
C541 C 0.67266 0.0521 0.07384 0.0
H542 H 0.73875 0.06444 0.95975 0.0
C543 C 0.67227 1.03772 0.18628 0.0
H544 H 0.6985 0.0725 0.9068 0.0
C545 C 0.69627 1.03376 0.21956 0.0
C546 C 0.72137 0.04382 0.14094 0.0
H547 H 0.65413 1.03082 0.25155 0.0
H548 H 0.69545 1.02371 0.3094 0.0
C549 C 0.72082 0.05707 0.02619 0.0
C550 C 0.23568 0.59961 0.056 0.0
C551 C 0.25877 0.61834 0.13675 0.0
H552 H 0.21279 0.55876 0.96079 0.0
C553 C 0.27696 0.60759 0.18383 0.0
H554 H 0.22031 0.60583 0.01957 0.0
C555 C 0.27194 0.57926 0.15178 0.0
C556 C 0.24873 0.56085 0.07063 0.0
H557 H 0.29521 0.621 0.24548 0.0
H558 H 0.28591 0.57167 0.19213 0.0
C559 C 0.23105 0.57189 0.02285 0.0
C560 C 0.73137 0.60173 0.0194 0.0
C561 C 0.74262 0.63 0.07115 0.0
H562 H 0.69738 0.55719 0.01333 0.0
C563 C 0.72444 0.63412 0.15657 0.0
H564 H 0.74434 0.59713 0.9539 0.0
C565 C 0.69615 0.61059 0.18905 0.0
C566 C 0.68523 0.58209 0.13815 0.0
H567 H 0.73221 0.65529 0.20009 0.0
H568 H 0.68292 0.6149 0.25419 0.0
C569 C 0.70372 0.57841 0.05296 0.0
C570 C 1.01689 0.91255 0.58774 0.0
C571 C 1.025 0.89946 0.49281 0.0
H572 H 0.99987 0.94071 0.63227 0.0
C573 C 1.02046 0.90373 0.36618 0.0
H574 H 1.01985 0.90929 0.68621 0.0
C575 C 1.00865 0.92153 0.33515 0.0
C576 C 1.00101 0.93502 0.43047 0.0
H577 H 1.02668 0.89391 0.29146 0.0
H578 H 1.00564 0.92488 0.23688 0.0
C579 C 1.00508 0.9302 0.55693 0.0
C580 C 0.3955 0.04436 0.59209 0.0
C581 C 0.4073 0.06592 0.49802 0.0
H582 H 0.36843 0.999 0.63509 0.0
C583 C 0.40184 0.05758 0.37101 0.0
H584 H 0.39964 0.05022 0.69073 0.0
C585 C 0.38413 1.02812 0.33898 0.0
C586 C 0.3719 1.00663 0.43353 0.0
H587 H 0.41059 0.07387 0.2969 0.0
H588 H 0.3798 1.02215 0.24053 0.0
C589 C 0.37796 1.01503 0.56022 0.0
C590 C 0.25455 0.3092 0.44015 0.0
C591 C 0.23582 0.27879 0.45034 0.0
H592 H 0.29832 0.34413 0.40436 0.0
C593 C 0.2468 0.26 0.42244 0.0
H594 H 0.24669 0.32421 0.46184 0.0
C595 C 0.2763 0.27134 0.39212 0.0
C596 C 0.29541 0.30175 0.38733 0.0
H597 H 0.23275 0.23646 0.42782 0.0
H598 H 0.28434 0.25621 0.37785 0.0
C599 C 0.28413 0.3206 0.40878 0.0
C600 C 0.5302 0.30727 0.39625 0.0
C601 C 0.54025 0.3074 0.51949 0.0
H602 H 0.51819 0.32883 0.25686 0.0
C603 C 0.54979 0.3331 0.5914 0.0
H604 H 0.52257 0.28805 0.33736 0.0
C605 C 0.54756 0.35712 0.54315 0.0
C606 C 0.53632 0.35625 0.42112 0.0
H607 H 0.55745 0.33403 0.68688 0.0
H608 H 0.55265 0.37546 0.60448 0.0
C609 C 0.52818 0.33105 0.34852 0.0
C610 C 0.94775 0.13111 0.53931 0.0
C611 C 0.94914 0.12078 0.41803 0.0
H612 H 0.97031 0.16416 0.68304 0.0
C613 C 0.9747 0.13794 0.34677 0.0
H614 H 0.9291 0.11787 0.59961 0.0
C615 C 0.9983 0.1638 0.39495 0.0
C616 C 0.99769 0.17373 0.51748 0.0
H617 H 0.97727 0.13028 0.25557 0.0
H618 H 1.01776 0.17548 0.33689 0.0
C619 C 0.97165 0.15743 0.58814 0.0
C620 C 0.14687 0.75486 0.58553 0.0
C621 C 0.13084 0.76513 0.51614 0.0
H622 H 0.18634 0.75148 0.59595 0.0
C623 C 0.14114 0.77632 0.39463 0.0
H624 H 0.13982 0.74627 0.67957 0.0
C625 C 0.16714 0.77871 0.3464 0.0
C626 C 0.18402 0.76976 0.41648 0.0
H627 H 0.12966 0.78449 0.33753 0.0
H628 H 0.17511 0.78942 0.2562 0.0
C629 C 0.17331 0.75738 0.53656 0.0
loop_
_geom_bond_atom_site_label_1
_geom_bond_atom_site_label_2
_geom_bond_distance
_geom_bond_site_symmetry_2
_ccdc_geom_bond_type
Tb0 C2 2.809 . S
Tb0 O20 2.484 . S
Tb0 O21 2.440 . S
Tb0 O22 2.658 . S
Tb0 O23 2.409 1_554 S
Tb0 O24 2.378 . S
Tb0 O28 2.325 . S
Tb0 O31 2.341 . S
Tb1 C11 2.809 . S
Tb1 O22 2.325 . S
Tb1 O25 2.341 . S
Tb1 O26 2.484 . S
Tb1 O27 2.440 . S
Tb1 O28 2.658 . S
Tb1 O29 2.409 . S
Tb1 O30 2.378 . S
C2 Tb0 2.809 . S
C2 C3 1.514 . S
C2 O20 1.248 . S
C2 O21 1.266 . S
C3 C2 1.514 . S
C3 C4 1.359 . S
C3 C8 1.348 . S
C4 C3 1.359 . S
C4 C5 1.380 . S
C4 H32 0.929 . S
C5 C4 1.380 . S
C5 C6 1.347 . S
C5 H33 0.931 . S
C6 C5 1.347 . S
C6 C7 1.369 . S
C7 C6 1.369 . S
C7 C8 1.408 . S
C7 H34 0.930 . S
C8 C3 1.348 . S
C8 C7 1.408 . S
C8 H35 0.930 . S
C9 O22 1.281 1_556 S
C9 O23 1.254 . S
C10 O24 1.236 . S
C10 O25 1.266 . S
C11 Tb1 2.809 . S
C11 C12 1.514 . S
C11 O26 1.248 . S
C11 O27 1.266 . S
C12 C11 1.514 . S
C12 C13 1.359 1_554 S
C12 C17 1.348 . S
C13 C12 1.359 1_556 S
C13 C14 1.380 . S
C13 H36 0.929 . S
C14 C13 1.380 . S
C14 C15 1.347 1_556 S
C14 H37 0.931 . S
C15 C14 1.347 1_554 S
C15 C16 1.369 . S
C16 C15 1.369 . S
C16 C17 1.408 . S
C16 H38 0.930 . S
C17 C12 1.348 . S
C17 C16 1.408 . S
C17 H39 0.930 . S
C18 O28 1.281 . S
C18 O29 1.254 . S
C19 O30 1.236 . S
C19 O31 1.266 . S
O20 Tb0 2.484 . S
O20 C2 1.248 . S
O21 Tb0 2.440 . S
O21 C2 1.266 . S
O22 Tb0 2.658 . S
O22 Tb1 2.325 . S
O22 C9 1.281 1_554 S
O23 Tb0 2.409 1_556 S
O23 C9 1.254 . S
O24 Tb0 2.378 . S
O24 C10 1.236 . S
O25 Tb1 2.341 . S
O25 C10 1.266 . S
O26 Tb1 2.484 . S
O26 C11 1.248 . S
O27 Tb1 2.440 . S
O27 C11 1.266 . S
O28 Tb0 2.325 . S
O28 Tb1 2.658 . S
O28 C18 1.281 . S
O29 Tb1 2.409 . S
O29 C18 1.254 . S
O30 Tb1 2.378 . S
O30 C19 1.236 . S
O31 Tb0 2.341 . S
O31 C19 1.266 . S
H32 C4 0.929 . S
H33 C5 0.931 . S
H34 C7 0.930 . S
H35 C8 0.930 . S
H36 C13 0.929 . S
H37 C14 0.931 . S
H38 C16 0.930 . S
H39 C17 0.930 . S
Tb40 C42 2.809 . S
Tb40 O60 2.484 . S
Tb40 O61 2.440 . S
Tb40 O62 2.658 . S
Tb40 O63 2.409 1_554 S
Tb40 O64 2.378 . S
Tb40 O68 2.325 . S
Tb40 O71 2.341 . S
Tb41 C51 2.809 . S
Tb41 O62 2.325 . S
Tb41 O65 2.341 . S
Tb41 O66 2.484 . S
Tb41 O67 2.440 . S
Tb41 O68 2.658 . S
Tb41 O69 2.409 . S
Tb41 O70 2.378 . S
C42 Tb40 2.809 . S
C42 C43 1.514 . S
C42 O60 1.248 . S
C42 O61 1.266 . S
C43 C42 1.514 . S
C43 C44 1.359 . S
C43 C48 1.348 . S
C44 C43 1.359 . S
C44 C45 1.380 . S
C44 H72 0.929 . S
C45 C44 1.380 . S
C45 C46 1.347 . S
C45 H73 0.931 . S
C46 C45 1.347 . S
C46 C47 1.369 . S
C47 C46 1.369 . S
C47 C48 1.408 . S
C47 H74 0.930 . S
C48 C43 1.348 . S
C48 C47 1.408 . S
C48 H75 0.930 . S
C49 O62 1.281 1_556 S
C49 O63 1.254 . S
C50 O64 1.236 . S
C50 O65 1.266 . S
C51 Tb41 2.809 . S
C51 C52 1.514 . S
C51 O66 1.248 . S
C51 O67 1.266 . S
C52 C51 1.514 . S
C52 C53 1.359 1_554 S
C52 C57 1.348 . S
C53 C52 1.359 1_556 S
C53 C54 1.380 . S
C53 H76 0.929 . S
C54 C53 1.380 . S
C54 C55 1.347 1_556 S
C54 H77 0.931 . S
C55 C54 1.347 1_554 S
C55 C56 1.369 . S
C56 C55 1.369 . S
C56 C57 1.408 . S
C56 H78 0.930 . S
C57 C52 1.348 . S
C57 C56 1.408 . S
C57 H79 0.930 . S
C58 O68 1.281 . S
C58 O69 1.254 . S
C59 O70 1.236 . S
C59 O71 1.266 . S
O60 Tb40 2.484 . S
O60 C42 1.248 . S
O61 Tb40 2.440 . S
O61 C42 1.266 . S
O62 Tb40 2.658 . S
O62 Tb41 2.325 . S
O62 C49 1.281 1_554 S
O63 Tb40 2.409 1_556 S
O63 C49 1.254 . S
O64 Tb40 2.378 . S
O64 C50 1.236 . S
O65 Tb41 2.341 . S
O65 C50 1.266 . S
O66 Tb41 2.484 . S
O66 C51 1.248 . S
O67 Tb41 2.440 . S
O67 C51 1.266 . S
O68 Tb40 2.325 . S
O68 Tb41 2.658 . S
O68 C58 1.281 . S
O69 Tb41 2.409 . S
O69 C58 1.254 . S
O70 Tb41 2.378 . S
O70 C59 1.236 . S
O71 Tb40 2.341 . S
O71 C59 1.266 . S
H72 C44 0.929 . S
H73 C45 0.931 . S
H74 C47 0.930 . S
H75 C48 0.930 . S
H76 C53 0.929 . S
H77 C54 0.931 . S
H78 C56 0.930 . S
H79 C57 0.930 . S
Tb80 C82 2.809 . S
Tb80 O100 2.484 . S
Tb80 O101 2.440 . S
Tb80 O102 2.658 . S
Tb80 O103 2.409 1_554 S
Tb80 O104 2.378 . S
Tb80 O108 2.325 . S
Tb80 O111 2.341 . S
Tb81 C91 2.809 . S
Tb81 O102 2.325 . S
Tb81 O105 2.341 . S
Tb81 O106 2.484 . S
Tb81 O107 2.440 . S
Tb81 O108 2.658 . S
Tb81 O109 2.409 . S
Tb81 O110 2.378 . S
C82 Tb80 2.809 . S
C82 C83 1.518 1_545 S
C82 O100 1.248 . S
C82 O101 1.266 . S
C83 C82 1.518 1_565 S
C83 C84 1.348 1_565 S
C83 C88 1.355 . S
C84 C83 1.348 1_545 S
C84 C85 1.380 1_545 S
C84 H112 0.929 . S
C85 C84 1.380 1_565 S
C85 C86 1.347 . S
C85 H113 0.931 . S
C86 C85 1.347 . S
C86 C87 1.369 . S
C87 C86 1.369 . S
C87 C88 1.408 . S
C87 H114 0.930 . S
C88 C83 1.355 . S
C88 C87 1.408 . S
C88 H115 0.930 . S
C89 O102 1.281 1_556 S
C89 O103 1.254 . S
C90 O104 1.236 . S
C90 O105 1.266 . S
C91 Tb81 2.809 . S
C91 C92 1.514 . S
C91 O106 1.248 . S
C91 O107 1.266 . S
C92 C91 1.514 . S
C92 C93 1.359 1_554 S
C92 C97 1.348 . S
C93 C92 1.359 1_556 S
C93 C94 1.380 . S
C93 H116 0.929 . S
C94 C93 1.380 . S
C94 C95 1.347 1_556 S
C94 H117 0.931 . S
C95 C94 1.347 1_554 S
C95 C96 1.369 . S
C96 C95 1.369 . S
C96 C97 1.408 . S
C96 H118 0.930 . S
C97 C92 1.348 . S
C97 C96 1.408 . S
C97 H119 0.930 . S
C98 O108 1.281 . S
C98 O109 1.254 . S
C99 O110 1.236 . S
C99 O111 1.266 . S
O100 Tb80 2.484 . S
O100 C82 1.248 . S
O101 Tb80 2.440 . S
O101 C82 1.266 . S
O102 Tb80 2.658 . S
O102 Tb81 2.325 . S
O102 C89 1.281 1_554 S
O103 Tb80 2.409 1_556 S
O103 C89 1.254 . S
O104 Tb80 2.378 . S
O104 C90 1.236 . S
O105 Tb81 2.341 . S
O105 C90 1.266 . S
O106 Tb81 2.484 . S
O106 C91 1.248 . S
O107 Tb81 2.440 . S
O107 C91 1.266 . S
O108 Tb80 2.325 . S
O108 Tb81 2.658 . S
O108 C98 1.281 . S
O109 Tb81 2.409 . S
O109 C98 1.254 . S
O110 Tb81 2.378 . S
O110 C99 1.236 . S
O111 Tb80 2.341 . S
O111 C99 1.266 . S
H112 C84 0.929 . S
H113 C85 0.931 . S
H114 C87 0.930 . S
H115 C88 0.930 . S
H116 C93 0.929 . S
H117 C94 0.931 . S
H118 C96 0.930 . S
H119 C97 0.930 . S
Tb120 C122 2.809 . S
Tb120 O140 2.484 . S
Tb120 O141 2.440 . S
Tb120 O142 2.658 . S
Tb120 O143 2.409 1_554 S
Tb120 O144 2.378 . S
Tb120 O148 2.325 . S
Tb120 O151 2.341 1_565 S
Tb121 C131 2.809 1_565 S
Tb121 O142 2.325 . S
Tb121 O145 2.341 . S
Tb121 O146 2.484 1_565 S
Tb121 O147 2.440 1_565 S
Tb121 O148 2.658 . S
Tb121 O149 2.409 . S
Tb121 O150 2.378 1_565 S
C122 Tb120 2.809 . S
C122 C123 1.514 . S
C122 O140 1.248 . S
C122 O141 1.266 . S
C123 C122 1.514 . S
C123 C124 1.359 . S
C123 C128 1.348 . S
C124 C123 1.359 . S
C124 C125 1.380 . S
C124 H152 0.929 . S
C125 C124 1.380 . S
C125 C126 1.347 . S
C125 H153 0.931 . S
C126 C125 1.347 . S
C126 C127 1.369 . S
C127 C126 1.369 . S
C127 C128 1.408 . S
C127 H154 0.930 . S
C128 C123 1.348 . S
C128 C127 1.408 . S
C128 H155 0.930 . S
C129 O142 1.281 1_556 S
C129 O143 1.254 . S
C130 O144 1.236 . S
C130 O145 1.266 . S
C131 Tb121 2.809 1_545 S
C131 C132 1.514 . S
C131 O146 1.248 . S
C131 O147 1.266 . S
C132 C131 1.514 . S
C132 C133 1.359 . S
C132 C137 1.348 . S
C133 C132 1.359 . S
C133 C134 1.380 . S
C133 H156 0.929 1_554 S
C134 C133 1.380 . S
C134 C135 1.347 . S
C134 H157 0.931 1_554 S
C135 C134 1.347 . S
C135 C136 1.369 . S
C136 C135 1.369 . S
C136 C137 1.408 . S
C136 H158 0.930 . S
C137 C132 1.348 . S
C137 C136 1.408 . S
C137 H159 0.930 . S
C138 O148 1.281 . S
C138 O149 1.254 . S
C139 O150 1.236 . S
C139 O151 1.266 . S
O140 Tb120 2.484 . S
O140 C122 1.248 . S
O141 Tb120 2.440 . S
O141 C122 1.266 . S
O142 Tb120 2.658 . S
O142 Tb121 2.325 . S
O142 C129 1.281 1_554 S
O143 Tb120 2.409 1_556 S
O143 C129 1.254 . S
O144 Tb120 2.378 . S
O144 C130 1.236 . S
O145 Tb121 2.341 . S
O145 C130 1.266 . S
O146 Tb121 2.484 1_545 S
O146 C131 1.248 . S
O147 Tb121 2.440 1_545 S
O147 C131 1.266 . S
O148 Tb120 2.325 . S
O148 Tb121 2.658 . S
O148 C138 1.281 . S
O149 Tb121 2.409 . S
O149 C138 1.254 . S
O150 Tb121 2.378 1_545 S
O150 C139 1.236 . S
O151 Tb120 2.341 1_545 S
O151 C139 1.266 . S
H152 C124 0.929 . S
H153 C125 0.931 . S
H154 C127 0.930 . S
H155 C128 0.930 . S
H156 C133 0.929 1_556 S
H157 C134 0.931 1_556 S
H158 C136 0.930 . S
H159 C137 0.930 . S
Tb160 C162 2.809 . S
Tb160 O180 2.484 . S
Tb160 O181 2.440 . S
Tb160 O182 2.658 . S
Tb160 O183 2.409 1_554 S
Tb160 O184 2.378 . S
Tb160 O188 2.325 . S
Tb160 O191 2.341 . S
Tb161 C171 2.809 . S
Tb161 O182 2.325 . S
Tb161 O185 2.341 . S
Tb161 O186 2.484 . S
Tb161 O187 2.440 . S
Tb161 O188 2.658 . S
Tb161 O189 2.409 . S
Tb161 O190 2.378 . S
C162 Tb160 2.809 . S
C162 C163 1.514 . S
C162 O180 1.248 . S
C162 O181 1.266 . S
C163 C162 1.514 . S
C163 C164 1.359 . S
C163 C168 1.348 . S
C164 C163 1.359 . S
C164 C165 1.380 . S
C164 H192 0.929 . S
C165 C164 1.380 . S
C165 C166 1.347 . S
C165 H193 0.931 . S
C166 C165 1.347 . S
C166 C167 1.369 . S
C167 C166 1.369 . S
C167 C168 1.408 . S
C167 H194 0.930 . S
C168 C163 1.348 . S
C168 C167 1.408 . S
C168 H195 0.930 . S
C169 O182 1.281 1_556 S
C169 O183 1.254 . S
C170 O184 1.236 . S
C170 O185 1.266 . S
C171 Tb161 2.809 . S
C171 C172 1.514 . S
C171 O186 1.248 . S
C171 O187 1.266 . S
C172 C171 1.514 . S
C172 C173 1.359 . S
C172 C177 1.348 . S
C173 C172 1.359 . S
C173 C174 1.380 . S
C173 H196 0.929 1_554 S
C174 C173 1.380 . S
C174 C175 1.347 . S
C174 H197 0.931 1_554 S
C175 C174 1.347 . S
C175 C176 1.369 . S
C176 C175 1.369 . S
C176 C177 1.408 . S
C176 H198 0.930 . S
C177 C172 1.348 . S
C177 C176 1.408 . S
C177 H199 0.930 . S
C178 O188 1.281 . S
C178 O189 1.254 . S
C179 O190 1.236 . S
C179 O191 1.266 . S
O180 Tb160 2.484 . S
O180 C162 1.248 . S
O181 Tb160 2.440 . S
O181 C162 1.266 . S
O182 Tb160 2.658 . S
O182 Tb161 2.325 . S
O182 C169 1.281 1_554 S
O183 Tb160 2.409 1_556 S
O183 C169 1.254 . S
O184 Tb160 2.378 . S
O184 C170 1.236 . S
O185 Tb161 2.341 . S
O185 C170 1.266 . S
O186 Tb161 2.484 . S
O186 C171 1.248 . S
O187 Tb161 2.440 . S
O187 C171 1.266 . S
O188 Tb160 2.325 . S
O188 Tb161 2.658 . S
O188 C178 1.281 . S
O189 Tb161 2.409 . S
O189 C178 1.254 . S
O190 Tb161 2.378 . S
O190 C179 1.236 . S
O191 Tb160 2.341 . S
O191 C179 1.266 . S
H192 C164 0.929 . S
H193 C165 0.931 . S
H194 C167 0.930 . S
H195 C168 0.930 . S
H196 C173 0.929 1_556 S
H197 C174 0.931 1_556 S
H198 C176 0.930 . S
H199 C177 0.930 . S
Tb200 C202 2.809 . S
Tb200 O220 2.484 . S
Tb200 O221 2.440 . S
Tb200 O222 2.658 . S
Tb200 O223 2.409 1_554 S
Tb200 O224 2.378 . S
Tb200 O228 2.325 . S
Tb200 O231 2.341 . S
Tb201 C211 2.809 . S
Tb201 O222 2.325 . S
Tb201 O225 2.341 . S
Tb201 O226 2.484 . S
Tb201 O227 2.440 . S
Tb201 O228 2.658 . S
Tb201 O229 2.409 . S
Tb201 O230 2.378 . S
C202 Tb200 2.809 . S
C202 C203 1.514 . S
C202 O220 1.248 . S
C202 O221 1.266 . S
C203 C202 1.514 . S
C203 C204 1.359 . S
C203 C208 1.348 . S
C204 C203 1.359 . S
C204 C205 1.380 . S
C204 H232 0.929 . S
C205 C204 1.380 . S
C205 C206 1.347 . S
C205 H233 0.931 . S
C206 C205 1.347 . S
C206 C207 1.369 . S
C207 C206 1.369 . S
C207 C208 1.408 . S
C207 H234 0.930 . S
C208 C203 1.348 . S
C208 C207 1.408 . S
C208 H235 0.930 . S
C209 O222 1.281 1_556 S
C209 O223 1.254 . S
C210 O224 1.236 . S
C210 O225 1.266 . S
C211 Tb201 2.809 . S
C211 C212 1.514 . S
C211 O226 1.248 . S
C211 O227 1.266 . S
C212 C211 1.514 . S
C212 C213 1.359 . S
C212 C217 1.348 . S
C213 C212 1.359 . S
C213 C214 1.380 . S
C213 H236 0.929 1_554 S
C214 C213 1.380 . S
C214 C215 1.347 . S
C214 H237 0.931 1_554 S
C215 C214 1.347 . S
C215 C216 1.369 . S
C216 C215 1.369 . S
C216 C217 1.408 . S
C216 H238 0.930 . S
C217 C212 1.348 . S
C217 C216 1.408 . S
C217 H239 0.930 . S
C218 O228 1.281 . S
C218 O229 1.254 . S
C219 O230 1.236 . S
C219 O231 1.266 . S
O220 Tb200 2.484 . S
O220 C202 1.248 . S
O221 Tb200 2.440 . S
O221 C202 1.266 . S
O222 Tb200 2.658 . S
O222 Tb201 2.325 . S
O222 C209 1.281 1_554 S
O223 Tb200 2.409 1_556 S
O223 C209 1.254 . S
O224 Tb200 2.378 . S
O224 C210 1.236 . S
O225 Tb201 2.341 . S
O225 C210 1.266 . S
O226 Tb201 2.484 . S
O226 C211 1.248 . S
O227 Tb201 2.440 . S
O227 C211 1.266 . S
O228 Tb200 2.325 . S
O228 Tb201 2.658 . S
O228 C218 1.281 . S
O229 Tb201 2.409 . S
O229 C218 1.254 . S
O230 Tb201 2.378 . S
O230 C219 1.236 . S
O231 Tb200 2.341 . S
O231 C219 1.266 . S
H232 C204 0.929 . S
H233 C205 0.931 . S
H234 C207 0.930 . S
H235 C208 0.930 . S
H236 C213 0.929 1_556 S
H237 C214 0.931 1_556 S
H238 C216 0.930 . S
H239 C217 0.930 . S
Tb240 C242 2.809 . S
Tb240 O260 2.484 . S
Tb240 O261 2.440 . S
Tb240 O262 2.658 . S
Tb240 O263 2.409 . S
Tb240 O264 2.378 . S
Tb240 O268 2.325 . S
Tb240 O271 2.341 . S
Tb241 C251 2.809 . S
Tb241 O262 2.325 . S
Tb241 O265 2.341 . S
Tb241 O266 2.484 . S
Tb241 O267 2.440 . S
Tb241 O268 2.658 . S
Tb241 O269 2.409 . S
Tb241 O270 2.378 . S
C242 Tb240 2.809 . S
C242 C243 1.514 . S
C242 O260 1.248 . S
C242 O261 1.266 . S
C243 C242 1.514 . S
C243 C244 1.359 . S
C243 C248 1.348 . S
C244 C243 1.359 . S
C244 C245 1.380 . S
C244 H272 0.929 . S
C245 C244 1.380 . S
C245 C246 1.347 1_556 S
C245 H273 0.931 . S
C246 C245 1.347 1_554 S
C246 C247 1.369 1_554 S
C247 C246 1.369 1_556 S
C247 C248 1.408 . S
C247 H274 0.930 1_556 S
C248 C243 1.348 . S
C248 C247 1.408 . S
C248 H275 0.930 . S
C249 O262 1.281 . S
C249 O263 1.254 . S
C250 O264 1.236 . S
C250 O265 1.266 . S
C251 Tb241 2.809 . S
C251 C252 1.514 . S
C251 O266 1.248 . S
C251 O267 1.266 . S
C252 C251 1.514 . S
C252 C253 1.359 . S
C252 C257 1.348 . S
C253 C252 1.359 . S
C253 C254 1.380 . S
C253 H276 0.929 . S
C254 C253 1.380 . S
C254 C255 1.347 . S
C254 H277 0.931 . S
C255 C254 1.347 . S
C255 C256 1.369 . S
C256 C255 1.369 . S
C256 C257 1.408 . S
C256 H278 0.930 . S
C257 C252 1.348 . S
C257 C256 1.408 . S
C257 H279 0.930 . S
C258 O268 1.281 . S
C258 O269 1.254 . S
C259 O270 1.236 . S
C259 O271 1.266 . S
O260 Tb240 2.484 . S
O260 C242 1.248 . S
O261 Tb240 2.440 . S
O261 C242 1.266 . S
O262 Tb240 2.658 . S
O262 Tb241 2.325 . S
O262 C249 1.281 . S
O263 Tb240 2.409 . S
O263 C249 1.254 . S
O264 Tb240 2.378 . S
O264 C250 1.236 . S
O265 Tb241 2.341 . S
O265 C250 1.266 . S
O266 Tb241 2.484 . S
O266 C251 1.248 . S
O267 Tb241 2.440 . S
O267 C251 1.266 . S
O268 Tb240 2.325 . S
O268 Tb241 2.658 . S
O268 C258 1.281 . S
O269 Tb241 2.409 . S
O269 C258 1.254 . S
O270 Tb241 2.378 . S
O270 C259 1.236 . S
O271 Tb240 2.341 . S
O271 C259 1.266 . S
H272 C244 0.929 . S
H273 C245 0.931 . S
H274 C247 0.930 1_554 S
H275 C248 0.930 . S
H276 C253 0.929 . S
H277 C254 0.931 . S
H278 C256 0.930 . S
H279 C257 0.930 . S
Tb280 C282 2.809 . S
Tb280 O300 2.484 . S
Tb280 O301 2.440 . S
Tb280 O302 2.658 1_655 S
Tb280 O303 2.409 . S
Tb280 O304 2.378 . S
Tb280 O308 2.325 . S
Tb280 O311 2.341 . S
Tb281 C291 2.809 . S
Tb281 O302 2.325 . S
Tb281 O305 2.341 . S
Tb281 O306 2.484 . S
Tb281 O307 2.440 . S
Tb281 O308 2.658 1_455 S
Tb281 O309 2.409 1_455 S
Tb281 O310 2.378 . S
C282 Tb280 2.809 . S
C282 C283 1.514 . S
C282 O300 1.248 . S
C282 O301 1.266 . S
C283 C282 1.514 . S
C283 C284 1.359 . S
C283 C288 1.348 . S
C284 C283 1.359 . S
C284 C285 1.380 . S
C284 H312 0.929 . S
C285 C284 1.380 . S
C285 C286 1.347 1_556 S
C285 H313 0.931 . S
C286 C285 1.347 1_554 S
C286 C287 1.369 1_554 S
C287 C286 1.369 1_556 S
C287 C288 1.408 . S
C287 H314 0.930 1_556 S
C288 C283 1.348 . S
C288 C287 1.408 . S
C288 H315 0.930 . S
C289 O302 1.281 . S
C289 O303 1.254 1_455 S
C290 O304 1.236 . S
C290 O305 1.266 1_655 S
C291 Tb281 2.809 . S
C291 C292 1.514 . S
C291 O306 1.248 . S
C291 O307 1.266 . S
C292 C291 1.514 . S
C292 C293 1.359 . S
C292 C297 1.348 . S
C293 C292 1.359 . S
C293 C294 1.380 . S
C293 H316 0.929 . S
C294 C293 1.380 . S
C294 C295 1.347 . S
C294 H317 0.931 . S
C295 C294 1.347 . S
C295 C296 1.369 . S
C296 C295 1.369 . S
C296 C297 1.408 . S
C296 H318 0.930 . S
C297 C292 1.348 . S
C297 C296 1.408 . S
C297 H319 0.930 . S
C298 O308 1.281 . S
C298 O309 1.254 . S
C299 O310 1.236 . S
C299 O311 1.266 1_455 S
O300 Tb280 2.484 . S
O300 C282 1.248 . S
O301 Tb280 2.440 . S
O301 C282 1.266 . S
O302 Tb280 2.658 1_455 S
O302 Tb281 2.325 . S
O302 C289 1.281 . S
O303 Tb280 2.409 . S
O303 C289 1.254 1_655 S
O304 Tb280 2.378 . S
O304 C290 1.236 . S
O305 Tb281 2.341 . S
O305 C290 1.266 1_455 S
O306 Tb281 2.484 . S
O306 C291 1.248 . S
O307 Tb281 2.440 . S
O307 C291 1.266 . S
O308 Tb280 2.325 . S
O308 Tb281 2.658 1_655 S
O308 C298 1.281 . S
O309 Tb281 2.409 1_655 S
O309 C298 1.254 . S
O310 Tb281 2.378 . S
O310 C299 1.236 . S
O311 Tb280 2.341 . S
O311 C299 1.266 1_655 S
H312 C284 0.929 . S
H313 C285 0.931 . S
H314 C287 0.930 1_554 S
H315 C288 0.930 . S
H316 C293 0.929 . S
H317 C294 0.931 . S
H318 C296 0.930 . S
H319 C297 0.930 . S
Tb320 C322 2.809 1_655 S
Tb320 O340 2.484 1_655 S
Tb320 O341 2.440 . S
Tb320 O342 2.658 . S
Tb320 O343 2.409 . S
Tb320 O344 2.378 . S
Tb320 O348 2.325 1_655 S
Tb320 O351 2.341 . S
Tb321 C331 2.809 . S
Tb321 O342 2.325 . S
Tb321 O345 2.341 1_655 S
Tb321 O346 2.484 . S
Tb321 O347 2.440 1_655 S
Tb321 O348 2.658 1_655 S
Tb321 O349 2.409 1_655 S
Tb321 O350 2.378 . S
C322 Tb320 2.809 1_455 S
C322 C323 1.514 . S
C322 O340 1.248 . S
C322 O341 1.266 1_455 S
C323 C322 1.514 . S
C323 C324 1.359 . S
C323 C328 1.348 1_455 S
C324 C323 1.359 . S
C324 C325 1.380 . S
C324 H352 0.929 . S
C325 C324 1.380 . S
C325 C326 1.347 1_556 S
C325 H353 0.931 . S
C326 C325 1.347 1_554 S
C326 C327 1.411 1_554 S
C327 C326 1.411 1_556 S
C327 C328 1.380 1_455 S
C327 H354 0.918 1_456 S
C328 C323 1.348 1_655 S
C328 C327 1.380 1_655 S
C328 H355 0.930 . S
C329 O342 1.281 . S
C329 O343 1.254 . S
C330 O344 1.236 1_455 S
C330 O345 1.266 . S
C331 Tb321 2.809 . S
C331 C332 1.514 . S
C331 O346 1.248 . S
C331 O347 1.266 1_655 S
C332 C331 1.514 . S
C332 C333 1.359 . S
C332 C337 1.348 . S
C333 C332 1.359 . S
C333 C334 1.380 . S
C333 H356 0.929 . S
C334 C333 1.380 . S
C334 C335 1.347 . S
C334 H357 0.931 . S
C335 C334 1.347 . S
C335 C336 1.369 . S
C336 C335 1.369 . S
C336 C337 1.408 . S
C336 H358 0.935 . S
C337 C332 1.348 . S
C337 C336 1.408 . S
C337 H359 0.930 1_655 S
C338 O348 1.281 . S
C338 O349 1.254 . S
C339 O350 1.236 . S
C339 O351 1.266 . S
O340 Tb320 2.484 1_455 S
O340 C322 1.248 . S
O341 Tb320 2.440 . S
O341 C322 1.266 1_655 S
O342 Tb320 2.658 . S
O342 Tb321 2.325 . S
O342 C329 1.281 . S
O343 Tb320 2.409 . S
O343 C329 1.254 . S
O344 Tb320 2.378 . S
O344 C330 1.236 1_655 S
O345 Tb321 2.341 1_455 S
O345 C330 1.266 . S
O346 Tb321 2.484 . S
O346 C331 1.248 . S
O347 Tb321 2.440 1_455 S
O347 C331 1.266 1_455 S
O348 Tb320 2.325 1_455 S
O348 Tb321 2.658 1_455 S
O348 C338 1.281 . S
O349 Tb321 2.409 1_455 S
O349 C338 1.254 . S
O350 Tb321 2.378 . S
O350 C339 1.236 . S
O351 Tb320 2.341 . S
O351 C339 1.266 . S
H352 C324 0.929 . S
H353 C325 0.931 . S
H354 C327 0.918 1_654 S
H355 C328 0.930 . S
H356 C333 0.929 . S
H357 C334 0.931 . S
H358 C336 0.935 . S
H359 C337 0.930 1_455 S
C360 C361 1.387 . S
C360 H364 0.950 . S
C360 C369 1.390 . S
C361 C360 1.387 . S
C361 C363 1.387 . S
H362 C369 0.950 . S
C363 C361 1.387 . S
C363 C365 1.390 . S
C363 H367 0.950 . S
H364 C360 0.950 . S
C365 C363 1.390 . S
C365 C366 1.387 . S
C365 H368 0.950 . S
C366 C365 1.387 . S
C366 C369 1.387 . S
H367 C363 0.950 . S
H368 C365 0.950 . S
C369 C360 1.390 . S
C369 H362 0.950 . S
C369 C366 1.387 . S
C370 C371 1.387 . S
C370 H374 0.950 . S
C370 C379 1.390 . S
C371 C370 1.387 . S
C371 C373 1.387 . S
H372 C379 0.950 . S
C373 C371 1.387 . S
C373 C375 1.390 . S
C373 H377 0.950 . S
H374 C370 0.950 . S
C375 C373 1.390 . S
C375 C376 1.387 . S
C375 H378 0.950 . S
C376 C375 1.387 . S
C376 C379 1.387 . S
H377 C373 0.950 . S
H378 C375 0.950 . S
C379 C370 1.390 . S
C379 H372 0.950 . S
C379 C376 1.387 . S
C380 C381 1.387 . S
C380 H384 0.950 . S
C380 C389 1.390 . S
C381 C380 1.387 . S
C381 C383 1.387 . S
H382 C389 0.950 . S
C383 C381 1.387 . S
C383 C385 1.390 . S
C383 H387 0.950 . S
H384 C380 0.950 . S
C385 C383 1.390 . S
C385 C386 1.387 . S
C385 H388 0.950 . S
C386 C385 1.387 . S
C386 C389 1.387 . S
H387 C383 0.950 . S
H388 C385 0.950 . S
C389 C380 1.390 . S
C389 H382 0.950 . S
C389 C386 1.387 . S
C390 C391 1.387 . S
C390 H394 0.950 . S
C390 C399 1.390 . S
C391 C390 1.387 . S
C391 C393 1.387 1_565 S
H392 C399 0.950 . S
C393 C391 1.387 1_545 S
C393 C395 1.390 . S
C393 H397 0.950 . S
H394 C390 0.950 . S
C395 C393 1.390 . S
C395 C396 1.387 1_545 S
C395 H398 0.950 . S
C396 C395 1.387 1_565 S
C396 C399 1.387 . S
H397 C393 0.950 . S
H398 C395 0.950 . S
C399 C390 1.390 . S
C399 H392 0.950 . S
C399 C396 1.387 . S
C400 C401 1.387 . S
C400 H404 0.950 . S
C400 C409 1.390 . S
C401 C400 1.387 . S
C401 C403 1.387 . S
H402 C409 0.950 . S
C403 C401 1.387 . S
C403 C405 1.390 . S
C403 H407 0.950 . S
H404 C400 0.950 . S
C405 C403 1.390 . S
C405 C406 1.387 . S
C405 H408 0.950 . S
C406 C405 1.387 . S
C406 C409 1.387 . S
H407 C403 0.950 . S
H408 C405 0.950 . S
C409 C400 1.390 . S
C409 H402 0.950 . S
C409 C406 1.387 . S
C410 C411 1.387 . S
C410 H414 0.950 . S
C410 C419 1.390 . S
C411 C410 1.387 . S
C411 C413 1.387 . S
H412 C419 0.950 . S
C413 C411 1.387 . S
C413 C415 1.390 . S
C413 H417 0.950 . S
H414 C410 0.950 . S
C415 C413 1.390 . S
C415 C416 1.387 . S
C415 H418 0.950 . S
C416 C415 1.387 . S
C416 C419 1.387 . S
H417 C413 0.950 . S
H418 C415 0.950 . S
C419 C410 1.390 . S
C419 H412 0.950 . S
C419 C416 1.387 . S
C420 C421 1.387 . S
C420 H424 0.950 . S
C420 C429 1.390 . S
C421 C420 1.387 . S
C421 C423 1.387 . S
H422 C429 0.950 . S
C423 C421 1.387 . S
C423 C425 1.390 . S
C423 H427 0.950 . S
H424 C420 0.950 . S
C425 C423 1.390 . S
C425 C426 1.387 . S
C425 H428 0.950 . S
C426 C425 1.387 . S
C426 C429 1.387 . S
H427 C423 0.950 . S
H428 C425 0.950 . S
C429 C420 1.390 . S
C429 H422 0.950 . S
C429 C426 1.387 . S
C430 C431 1.387 1_655 S
C430 H434 0.950 . S
C430 C439 1.390 . S
C431 C430 1.387 1_455 S
C431 C433 1.387 . S
H432 C439 0.950 . S
C433 C431 1.387 . S
C433 C435 1.390 1_455 S
C433 H437 0.950 . S
H434 C430 0.950 . S
C435 C433 1.390 1_655 S
C435 C436 1.387 . S
C435 H438 0.954 1_654 S
C436 C435 1.387 . S
C436 C439 1.387 . S
H437 C433 0.950 . S
H438 C435 0.954 1_456 S
C439 C430 1.390 . S
C439 H432 0.950 . S
C439 C436 1.387 . S
C440 C441 1.378 1_455 S
C440 H444 0.942 . S
C440 C449 1.410 . S
C441 C440 1.378 1_655 S
C441 C443 1.387 . S
H442 C449 0.950 . S
C443 C441 1.387 . S
C443 C445 1.390 . S
C443 H447 0.950 . S
H444 C440 0.942 . S
C445 C443 1.390 . S
C445 C446 1.387 1_655 S
C445 H448 0.950 . S
C446 C445 1.387 1_455 S
C446 C449 1.387 . S
H447 C443 0.950 . S
H448 C445 0.950 . S
C449 C440 1.410 . S
C449 H442 0.950 . S
C449 C446 1.387 . S
C450 C451 1.387 . S
C450 H454 0.950 . S
C450 C459 1.390 . S
C451 C450 1.387 . S
C451 C453 1.387 . S
H452 C459 0.950 . S
C453 C451 1.387 . S
C453 C455 1.390 . S
C453 H457 0.950 . S
H454 C450 0.950 . S
C455 C453 1.390 . S
C455 C456 1.387 . S
C455 H458 0.950 . S
C456 C455 1.387 . S
C456 C459 1.387 . S
H457 C453 0.950 . S
H458 C455 0.950 . S
C459 C450 1.390 . S
C459 H452 0.950 . S
C459 C456 1.387 . S
C460 C461 1.387 . S
C460 H464 0.950 . S
C460 C469 1.390 . S
C461 C460 1.387 . S
C461 C463 1.387 . S
H462 C469 0.950 . S
C463 C461 1.387 . S
C463 C465 1.390 . S
C463 H467 0.950 . S
H464 C460 0.950 . S
C465 C463 1.390 . S
C465 C466 1.387 . S
C465 H468 0.950 . S
C466 C465 1.387 . S
C466 C469 1.387 . S
H467 C463 0.950 . S
H468 C465 0.950 . S
C469 C460 1.390 . S
C469 H462 0.950 . S
C469 C466 1.387 . S
C470 C471 1.387 . S
C470 H474 0.950 . S
C470 C479 1.390 . S
C471 C470 1.387 . S
C471 C473 1.387 . S
H472 C479 0.950 . S
C473 C471 1.387 . S
C473 C475 1.390 . S
C473 H477 0.950 . S
H474 C470 0.950 . S
C475 C473 1.390 . S
C475 C476 1.387 . S
C475 H478 0.950 . S
C476 C475 1.387 . S
C476 C479 1.387 . S
H477 C473 0.950 . S
H478 C475 0.950 . S
C479 C470 1.390 . S
C479 H472 0.950 . S
C479 C476 1.387 . S
C480 C481 1.387 1_556 S
C480 H484 0.950 . S
C480 C489 1.390 . S
C481 C480 1.387 1_554 S
C481 C483 1.387 . S
H482 C489 0.950 . S
C483 C481 1.387 . S
C483 C485 1.390 1_554 S
C483 H487 0.950 . S
H484 C480 0.950 . S
C485 C483 1.390 1_556 S
C485 C486 1.387 . S
C485 H488 0.950 . S
C486 C485 1.387 . S
C486 C489 1.387 . S
H487 C483 0.950 . S
H488 C485 0.950 . S
C489 C480 1.390 . S
C489 H482 0.950 . S
C489 C486 1.387 . S
C490 C491 1.387 . S
C490 H494 0.950 . S
C490 C499 1.390 1_556 S
C491 C490 1.387 . S
C491 C493 1.387 . S
H492 C499 0.950 . S
C493 C491 1.387 . S
C493 C495 1.390 . S
C493 H497 0.950 . S
H494 C490 0.950 . S
C495 C493 1.390 . S
C495 C496 1.387 1_556 S
C495 H498 0.950 . S
C496 C495 1.387 1_554 S
C496 C499 1.387 . S
H497 C493 0.950 . S
H498 C495 0.950 . S
C499 C490 1.390 1_554 S
C499 H492 0.950 . S
C499 C496 1.387 . S
C500 C501 1.387 . S
C500 H504 0.950 . S
C500 C509 1.390 . S
C501 C500 1.387 . S
C501 C503 1.387 . S
H502 C509 0.950 . S
C503 C501 1.387 . S
C503 C505 1.390 . S
C503 H507 0.950 . S
H504 C500 0.950 . S
C505 C503 1.390 . S
C505 C506 1.387 1_556 S
C505 H508 0.950 1_556 S
C506 C505 1.387 1_554 S
C506 C509 1.387 1_554 S
H507 C503 0.950 . S
H508 C505 0.950 1_554 S
C509 C500 1.390 . S
C509 H502 0.950 . S
C509 C506 1.387 1_556 S
C510 C511 1.387 1_556 S
C510 H514 0.950 . S
C510 C519 1.390 . S
C511 C510 1.387 1_554 S
C511 C513 1.387 . S
H512 C519 0.950 . S
C513 C511 1.387 . S
C513 C515 1.390 . S
C513 H517 0.950 . S
H514 C510 0.950 . S
C515 C513 1.390 . S
C515 C516 1.387 . S
C515 H518 0.950 . S
C516 C515 1.387 . S
C516 C519 1.387 1_554 S
H517 C513 0.950 . S
H518 C515 0.950 . S
C519 C510 1.390 . S
C519 H512 0.950 . S
C519 C516 1.387 1_556 S
C520 C521 1.387 1_556 S
C520 H524 0.950 . S
C520 C529 1.390 . S
C521 C520 1.387 1_554 S
C521 C523 1.387 . S
H522 C529 0.950 . S
C523 C521 1.387 . S
C523 C525 1.390 . S
C523 H527 0.950 . S
H524 C520 0.950 . S
C525 C523 1.390 . S
C525 C526 1.387 . S
C525 H528 0.950 . S
C526 C525 1.387 . S
C526 C529 1.387 1_554 S
H527 C523 0.950 . S
H528 C525 0.950 . S
C529 C520 1.390 . S
C529 H522 0.950 . S
C529 C526 1.387 1_556 S
C530 C531 1.387 1_556 S
C530 H534 0.950 . S
C530 C539 1.390 . S
C531 C530 1.387 1_554 S
C531 C533 1.387 . S
H532 C539 0.950 . S
C533 C531 1.387 . S
C533 C535 1.390 . S
C533 H537 0.950 . S
H534 C530 0.950 . S
C535 C533 1.390 . S
C535 C536 1.387 . S
C535 H538 0.950 . S
C536 C535 1.387 . S
C536 C539 1.387 1_554 S
H537 C533 0.950 . S
H538 C535 0.950 . S
C539 C530 1.390 . S
C539 H532 0.950 . S
C539 C536 1.387 1_556 S
C540 C541 1.387 . S
C540 H544 0.950 1_554 S
C540 C549 1.390 . S
C541 C540 1.387 . S
C541 C543 1.387 . S
H542 C549 0.950 1_556 S
C543 C541 1.387 . S
C543 C545 1.390 . S
C543 H547 0.950 . S
H544 C540 0.950 1_556 S
C545 C543 1.390 . S
C545 C546 1.387 . S
C545 H548 0.950 . S
C546 C545 1.387 . S
C546 C549 1.387 . S
H547 C543 0.950 . S
H548 C545 0.950 . S
C549 C540 1.390 . S
C549 H542 0.950 1_554 S
C549 C546 1.387 . S
C550 C551 1.387 . S
C550 H554 0.950 1_554 S
C550 C559 1.390 . S
C551 C550 1.387 . S
C551 C553 1.387 . S
H552 C559 0.950 1_556 S
C553 C551 1.387 . S
C553 C555 1.390 . S
C553 H557 0.950 . S
H554 C550 0.950 1_556 S
C555 C553 1.390 . S
C555 C556 1.387 . S
C555 H558 0.950 . S
C556 C555 1.387 . S
C556 C559 1.387 . S
H557 C553 0.950 . S
H558 C555 0.950 . S
C559 C550 1.390 . S
C559 H552 0.950 1_554 S
C559 C556 1.387 . S
C560 C561 1.387 . S
C560 H564 0.950 1_554 S
C560 C569 1.390 . S
C561 C560 1.387 . S
C561 C563 1.387 . S
H562 C569 0.950 1_556 S
C563 C561 1.387 . S
C563 C565 1.390 . S
C563 H567 0.950 . S
H564 C560 0.950 1_556 S
C565 C563 1.390 . S
C565 C566 1.387 . S
C565 H568 0.950 . S
C566 C565 1.387 . S
C566 C569 1.387 . S
H567 C563 0.950 . S
H568 C565 0.950 . S
C569 C560 1.390 . S
C569 H562 0.950 1_554 S
C569 C566 1.387 . S
C570 C571 1.387 . S
C570 H574 0.950 . S
C570 C579 1.390 . S
C571 C570 1.387 . S
C571 C573 1.387 . S
H572 C579 0.950 . S
C573 C571 1.387 . S
C573 C575 1.390 . S
C573 H577 0.950 . S
H574 C570 0.950 . S
C575 C573 1.390 . S
C575 C576 1.387 . S
C575 H578 0.950 . S
C576 C575 1.387 . S
C576 C579 1.387 . S
H577 C573 0.950 . S
H578 C575 0.950 . S
C579 C570 1.390 . S
C579 H572 0.950 . S
C579 C576 1.387 . S
C580 C581 1.387 . S
C580 H584 0.950 . S
C580 C589 1.390 1_545 S
C581 C580 1.387 . S
C581 C583 1.387 . S
H582 C589 0.950 . S
C583 C581 1.387 . S
C583 C585 1.390 . S
C583 H587 0.950 . S
H584 C580 0.950 . S
C585 C583 1.390 . S
C585 C586 1.387 1_545 S
C585 H588 0.950 1_545 S
C586 C585 1.387 1_565 S
C586 C589 1.387 . S
H587 C583 0.950 . S
H588 C585 0.950 1_565 S
C589 C580 1.390 1_565 S
C589 H582 0.950 . S
C589 C586 1.387 . S
C590 C591 1.387 . S
C590 H594 0.950 . S
C590 C599 1.390 . S
C591 C590 1.387 . S
C591 C593 1.387 . S
H592 C599 0.950 . S
C593 C591 1.387 . S
C593 C595 1.390 . S
C593 H597 0.950 . S
H594 C590 0.950 . S
C595 C593 1.390 . S
C595 C596 1.387 . S
C595 H598 0.950 . S
C596 C595 1.387 . S
C596 C599 1.387 . S
H597 C593 0.950 . S
H598 C595 0.950 . S
C599 C590 1.390 . S
C599 H592 0.950 . S
C599 C596 1.387 . S
C600 C601 1.387 . S
C600 H604 0.950 . S
C600 C609 1.390 . S
C601 C600 1.387 . S
C601 C603 1.387 . S
H602 C609 0.950 . S
C603 C601 1.387 . S
C603 C605 1.390 . S
C603 H607 0.950 . S
H604 C600 0.950 . S
C605 C603 1.390 . S
C605 C606 1.387 . S
C605 H608 0.950 . S
C606 C605 1.387 . S
C606 C609 1.387 . S
H607 C603 0.950 . S
H608 C605 0.950 . S
C609 C600 1.390 . S
C609 H602 0.950 . S
C609 C606 1.387 . S
C610 C611 1.387 . S
C610 H614 0.950 . S
C610 C619 1.390 . S
C611 C610 1.387 . S
C611 C613 1.387 . S
H612 C619 0.950 . S
C613 C611 1.387 . S
C613 C615 1.390 . S
C613 H617 0.950 . S
H614 C610 0.950 . S
C615 C613 1.390 . S
C615 C616 1.387 . S
C615 H618 0.950 . S
C616 C615 1.387 . S
C616 C619 1.387 . S
H617 C613 0.950 . S
H618 C615 0.950 . S
C619 C610 1.390 . S
C619 H612 0.950 . S
C619 C616 1.387 . S
C620 C621 1.387 . S
C620 H624 0.950 . S
C620 C629 1.390 . S
C621 C620 1.387 . S
C621 C623 1.387 . S
H622 C629 0.950 . S
C623 C621 1.387 . S
C623 C625 1.390 . S
C623 H627 0.950 . S
H624 C620 0.950 . S
C625 C623 1.390 . S
C625 C626 1.387 . S
C625 H628 0.950 . S
C626 C625 1.387 . S
C626 C629 1.387 . S
H627 C623 0.950 . S
H628 C625 0.950 . S
C629 C620 1.390 . S
C629 H622 0.950 . S
C629 C626 1.387 . S
C361 C9 1.539 . S
C366 C18 1.539 . S
C371 C49 1.538 . S
C376 C58 1.538 . S
C381 C89 1.539 . S
C386 C98 1.539 . S
C391 C138 1.537 . S
C396 C129 1.537 . S
C401 C178 1.538 . S
C406 C169 1.538 . S
C411 C218 1.539 . S
C416 C209 1.539 . S
C421 C259 1.497 . S
C426 C250 1.497 1_554 S
C431 C299 1.496 . S
C436 C290 1.496 1_554 S
C441 C339 1.498 . S
C446 C330 1.498 1_554 S
C451 C210 2.781 . S
C456 C6 2.680 . S
C461 C46 2.680 . S
C466 C130 2.781 . S
C471 C86 2.678 . S
C476 C170 2.779 . S
C481 C90 2.313 . S
C486 C249 2.549 . S
C491 C289 2.550 . S
C496 C10 2.316 . S
C501 C329 2.551 . S
C506 C50 2.316 . S
C511 C326 1.127 . S
C516 C15 1.135 . S
C521 C55 1.136 . S
C526 C246 1.127 . S
C531 C286 1.127 . S
C536 C95 1.136 . S
C541 C99 2.781 . S
C546 C135 2.681 . S
C551 C175 2.680 . S
C556 C19 2.781 . S
C561 C59 2.781 . S
C566 C215 2.681 . S
C571 C335 1.128 . S
C576 C126 1.139 . S
C581 C255 1.128 . S
C586 C166 1.138 . S
C591 C295 1.129 . S
C596 C206 1.138 . S
C601 C258 2.549 . S
C606 C219 2.313 . S
C611 C139 2.314 . S
C616 C298 2.550 . S
C621 C338 2.550 . S
C626 C179 2.315 . S
