# Generated by pormake.
# Topology ukb, (4)-cn, num edge types: 1
# Building blocks:
#     Node 0, Type 0, BuildingBlock: CEKHIL_clean_sbu_0, # of connection points: 4
#     Node 1, Type 0, BuildingBlock: CEKHIL_clean_sbu_0, # of connection points: 4
#     Node 2, Type 0, BuildingBlock: CEKHIL_clean_sbu_0, # of connection points: 4
#     Node 3, Type 0, BuildingBlock: CEKHIL_clean_sbu_0, # of connection points: 4
#     Node 4, Type 0, BuildingBlock: CEKHIL_clean_sbu_0, # of connection points: 4
#     Node 5, Type 0, BuildingBlock: CEKHIL_clean_sbu_0, # of connection points: 4
#     Node 6, Type 0, BuildingBlock: CEKHIL_clean_sbu_0, # of connection points: 4
#     Node 7, Type 0, BuildingBlock: CEKHIL_clean_sbu_0, # of connection points: 4
#     Node 8, Type 0, BuildingBlock: CEKHIL_clean_sbu_0, # of connection points: 4
#     Node 9, Type 0, BuildingBlock: CEKHIL_clean_sbu_0, # of connection points: 4
#     Node 10, Type 0, BuildingBlock: CEKHIL_clean_sbu_0, # of connection points: 4
#     Node 11, Type 0, BuildingBlock: CEKHIL_clean_sbu_0, # of connection points: 4
#     Node 12, Type 0, BuildingBlock: CEKHIL_clean_sbu_0, # of connection points: 4
#     Node 13, Type 0, BuildingBlock: CEKHIL_clean_sbu_0, # of connection points: 4
#     Node 14, Type 0, BuildingBlock: CEKHIL_clean_sbu_0, # of connection points: 4
#     Node 15, Type 0, BuildingBlock: CEKHIL_clean_sbu_0, # of connection points: 4
#     Edge 16, Type (0, 0), BuildingBlock: XIVTED_clean_linker_0, # of connection points: 2
#     Edge 17, Type (0, 0), BuildingBlock: XIVTED_clean_linker_0, # of connection points: 2
#     Edge 18, Type (0, 0), BuildingBlock: XIVTED_clean_linker_0, # of connection points: 2
#     Edge 19, Type (0, 0), BuildingBlock: XIVTED_clean_linker_0, # of connection points: 2
#     Edge 20, Type (0, 0), BuildingBlock: XIVTED_clean_linker_0, # of connection points: 2
#     Edge 21, Type (0, 0), BuildingBlock: XIVTED_clean_linker_0, # of connection points: 2
#     Edge 22, Type (0, 0), BuildingBlock: XIVTED_clean_linker_0, # of connection points: 2
#     Edge 23, Type (0, 0), BuildingBlock: XIVTED_clean_linker_0, # of connection points: 2
#     Edge 24, Type (0, 0), BuildingBlock: XIVTED_clean_linker_0, # of connection points: 2
#     Edge 25, Type (0, 0), BuildingBlock: XIVTED_clean_linker_0, # of connection points: 2
#     Edge 26, Type (0, 0), BuildingBlock: XIVTED_clean_linker_0, # of connection points: 2
#     Edge 27, Type (0, 0), BuildingBlock: XIVTED_clean_linker_0, # of connection points: 2
#     Edge 28, Type (0, 0), BuildingBlock: XIVTED_clean_linker_0, # of connection points: 2
#     Edge 29, Type (0, 0), BuildingBlock: XIVTED_clean_linker_0, # of connection points: 2
#     Edge 30, Type (0, 0), BuildingBlock: XIVTED_clean_linker_0, # of connection points: 2
#     Edge 31, Type (0, 0), BuildingBlock: XIVTED_clean_linker_0, # of connection points: 2
#     Edge 32, Type (0, 0), BuildingBlock: XIVTED_clean_linker_0, # of connection points: 2
#     Edge 33, Type (0, 0), BuildingBlock: XIVTED_clean_linker_0, # of connection points: 2
#     Edge 34, Type (0, 0), BuildingBlock: XIVTED_clean_linker_0, # of connection points: 2
#     Edge 35, Type (0, 0), BuildingBlock: XIVTED_clean_linker_0, # of connection points: 2
#     Edge 36, Type (0, 0), BuildingBlock: XIVTED_clean_linker_0, # of connection points: 2
#     Edge 37, Type (0, 0), BuildingBlock: XIVTED_clean_linker_0, # of connection points: 2
#     Edge 38, Type (0, 0), BuildingBlock: XIVTED_clean_linker_0, # of connection points: 2
#     Edge 39, Type (0, 0), BuildingBlock: XIVTED_clean_linker_0, # of connection points: 2
#     Edge 40, Type (0, 0), BuildingBlock: XIVTED_clean_linker_0, # of connection points: 2
#     Edge 41, Type (0, 0), BuildingBlock: XIVTED_clean_linker_0, # of connection points: 2
#     Edge 42, Type (0, 0), BuildingBlock: XIVTED_clean_linker_0, # of connection points: 2
#     Edge 43, Type (0, 0), BuildingBlock: XIVTED_clean_linker_0, # of connection points: 2
#     Edge 44, Type (0, 0), BuildingBlock: XIVTED_clean_linker_0, # of connection points: 2
#     Edge 45, Type (0, 0), BuildingBlock: XIVTED_clean_linker_0, # of connection points: 2
#     Edge 46, Type (0, 0), BuildingBlock: XIVTED_clean_linker_0, # of connection points: 2
#     Edge 47, Type (0, 0), BuildingBlock: XIVTED_clean_linker_0, # of connection points: 2
# Relax obj value: 0.092
# Max RMSD: 0.049
# Mean RMSD: 0.049
data_MOF--net-ukb--node1-CEKHIL_clean_sbu_0--edge1-XIVTED_clean_linker_0
_symmetry_space_group_name_H-M    P1
_symmetry_Int_Tables_number       1
_symmetry_cell_setting            triclinic
loop_
_symmetry_equiv_pos_as_xyz
'x, y, z'
_cell_length_a     43.912147
_cell_length_b     43.903695
_cell_length_c     37.648717
_cell_angle_alpha  90.003156
_cell_angle_beta   89.979561
_cell_angle_gamma 89.99965
loop_
_atom_site_label
_atom_site_type_symbol
_atom_site_fract_x
_atom_site_fract_y
_atom_site_fract_z
_atom_type_partial_charge
Co0 Co 0.53151 0.17792 0.17229 0.0
O1 O 0.50926 0.14093 0.16431 0.0
O2 O 0.50641 0.16943 0.21295 0.0
C3 C 0.52287 0.19849 0.11867 0.0
O4 O 0.54978 0.21776 0.18953 0.0
Co5 Co 0.58851 0.1943 0.1272 0.0
O6 O 0.58449 0.23478 0.15039 0.0
C7 C 0.5927 0.14699 0.18252 0.0
C8 C 0.4976 0.14538 0.19559 0.0
C9 C 0.56827 0.23829 0.17818 0.0
O10 O 0.56612 0.15432 0.19406 0.0
O11 O 0.6044 0.15821 0.15424 0.0
O12 O 0.50224 0.20055 0.14334 0.0
O13 O 0.54626 0.18195 0.12619 0.0
Co14 Co 0.32296 0.53461 0.66031 0.0
O15 O 0.36014 0.51194 0.65625 0.0
O16 O 0.32791 0.50939 0.70164 0.0
C17 C 0.30661 0.52595 0.60482 0.0
O18 O 0.2821 0.55318 0.67323 0.0
Co19 Co 0.31016 0.59159 0.61379 0.0
O20 O 0.26814 0.58835 0.63311 0.0
C21 C 0.35297 0.59574 0.674 0.0
C22 C 0.35298 0.50014 0.68676 0.0
C23 C 0.26256 0.57195 0.66028 0.0
O24 O 0.34502 0.56902 0.68451 0.0
O25 O 0.34382 0.60755 0.64478 0.0
O26 O 0.30246 0.50548 0.6293 0.0
O27 O 0.32264 0.54932 0.61389 0.0
Co28 Co 0.96641 0.31894 0.16345 0.0
O29 O 0.98872 0.35616 0.15908 0.0
O30 O 0.98962 0.32573 0.2062 0.0
C31 C 0.97829 0.30122 0.10952 0.0
O32 O 0.9476 0.27832 0.1768 0.0
Co33 Co 0.91216 0.30442 0.11388 0.0
O34 O 0.91522 0.26279 0.13437 0.0
C35 C 0.9039 0.34762 0.17315 0.0
C36 C -0.00081 0.35039 0.19059 0.0
C37 C 0.93003 0.25811 0.16297 0.0
O38 O 0.93077 0.34131 0.18446 0.0
O39 O 0.89311 0.33718 0.14397 0.0
O40 O 0.99711 0.29754 0.13579 0.0
O41 O 0.95432 0.31736 0.11588 0.0
Co42 Co 0.17165 0.96021 0.66546 0.0
O43 O 0.13594 0.98472 0.65832 0.0
O44 O 0.16538 0.98558 0.70629 0.0
C45 C 0.19216 0.96799 0.61171 0.0
O46 O 0.21054 0.93975 0.682 0.0
Co47 Co 0.18463 0.90257 0.6202 0.0
O48 O 0.22552 0.90421 0.6428 0.0
C49 C 0.13804 0.90048 0.67663 0.0
C50 C 0.14178 0.9961 0.68944 0.0
C51 C 0.23003 0.92025 0.67053 0.0
O52 O 0.14641 0.92694 0.68755 0.0
O53 O 0.14857 0.88805 0.64839 0.0
O54 O 0.19554 0.98828 0.63653 0.0
O55 O 0.17439 0.94544 0.61912 0.0
Co56 Co 0.52877 0.32376 0.83078 0.0
O57 O 0.50624 0.361 0.83495 0.0
O58 O 0.50361 0.32893 0.78941 0.0
C59 C 0.51999 0.30745 0.88632 0.0
O60 O 0.54723 0.28286 0.81778 0.0
Co61 Co 0.58566 0.31086 0.8773 0.0
O62 O 0.58211 0.26879 0.85821 0.0
C63 C 0.58969 0.35426 0.81762 0.0
C64 C 0.4945 0.35403 0.80436 0.0
C65 C 0.5658 0.26323 0.83097 0.0
O66 O 0.56323 0.34593 0.80671 0.0
O67 O 0.60138 0.34508 0.84689 0.0
O68 O 0.49958 0.30327 0.86181 0.0
O69 O 0.54341 0.32338 0.87721 0.0
Co70 Co 0.17385 0.53539 0.3218 0.0
O71 O 0.1365 0.51325 0.3279 0.0
O72 O 0.16654 0.51082 0.2805 0.0
C73 C 0.19283 0.52574 0.3759 0.0
O74 O 0.21435 0.55333 0.30644 0.0
Co75 Co 0.19002 0.59149 0.36837 0.0
O76 O 0.23111 0.58711 0.34676 0.0
C77 C 0.14434 0.59725 0.31133 0.0
C78 C 0.14212 0.50165 0.29683 0.0
C79 C 0.235 0.57116 0.31883 0.0
O80 O 0.15127 0.57057 0.29973 0.0
O81 O 0.15514 0.60844 0.34011 0.0
O82 O 0.19532 0.50549 0.35088 0.0
O83 O 0.17676 0.54948 0.36835 0.0
Co84 Co 0.96322 0.17348 0.82633 0.0
O85 O 0.98832 0.13808 0.8306 0.0
O86 O 0.98523 0.16736 0.78261 0.0
C87 C 0.97581 0.19332 0.87901 0.0
O88 O 0.9411 0.21224 0.81266 0.0
Co89 Co 0.90999 0.18559 0.87825 0.0
O90 O 0.90909 0.22666 0.856 0.0
C91 C 0.9025 0.1405 0.82076 0.0
C92 C 0.99717 0.14387 0.79841 0.0
C93 C 0.92254 0.23149 0.82653 0.0
O94 O 0.92853 0.14817 0.80795 0.0
O95 O 0.89209 0.151 0.85011 0.0
O96 O 0.9933 0.1977 0.85165 0.0
O97 O 0.95281 0.17541 0.87444 0.0
Co98 Co 0.32609 0.95861 0.32964 0.0
O99 O 0.36447 0.97914 0.33422 0.0
O100 O 0.33277 0.98378 0.28858 0.0
C101 C 0.30968 0.96785 0.38502 0.0
O102 O 0.28432 0.94255 0.31621 0.0
Co103 Co 0.30968 0.90217 0.37551 0.0
O104 O 0.26797 0.90846 0.35639 0.0
C105 C 0.3526 0.89588 0.31562 0.0
C106 C 0.35816 0.99161 0.30381 0.0
C107 C 0.26352 0.9252 0.32922 0.0
O108 O 0.34637 0.92312 0.30535 0.0
O109 O 0.34247 0.88438 0.34457 0.0
O110 O 0.30701 0.98867 0.36067 0.0
O111 O 0.3245 0.94368 0.37597 0.0
Co112 Co 0.46195 0.82082 0.83146 0.0
O113 O 0.4825 0.85911 0.8352 0.0
O114 O 0.48294 0.82919 0.78762 0.0
C115 C 0.477 0.80301 0.88419 0.0
O116 O 0.44483 0.77944 0.8184 0.0
Co117 Co 0.41063 0.80274 0.88355 0.0
O118 O 0.41481 0.76161 0.86193 0.0
C119 C 0.39764 0.84613 0.82569 0.0
C120 C 0.49201 0.85409 0.80309 0.0
C121 C 0.42885 0.75813 0.83257 0.0
O122 O 0.42438 0.8415 0.81294 0.0
O123 O 0.38854 0.83471 0.85516 0.0
O124 O 0.49484 0.80076 0.8568 0.0
O125 O 0.45196 0.81797 0.87964 0.0
Co126 Co 0.68087 0.46605 0.33338 0.0
O127 O 0.64421 0.48912 0.33944 0.0
O128 O 0.67228 0.48803 0.29035 0.0
C129 C 0.70146 0.47916 0.38544 0.0
O130 O 0.72036 0.44634 0.3176 0.0
Co131 Co 0.69765 0.41293 0.38332 0.0
O132 O 0.73799 0.41444 0.35933 0.0
C133 C 0.6509 0.40373 0.32813 0.0
C134 C 0.64853 0.49842 0.30711 0.0
C135 C 0.74107 0.42864 0.33003 0.0
O136 O 0.65689 0.43025 0.31547 0.0
O137 O 0.66297 0.39348 0.35671 0.0
O138 O 0.70413 0.49714 0.35821 0.0
O139 O 0.6848 0.45518 0.38118 0.0
Co140 Co 0.03297 0.67145 0.82975 0.0
O141 O 0.01529 0.63177 0.83531 0.0
O142 O 0.00685 0.66312 0.78998 0.0
C143 C 0.02399 0.68777 0.88519 0.0
O144 O 0.04619 0.71407 0.81547 0.0
Co145 Co 0.08937 0.69123 0.87393 0.0
O146 O 0.08038 0.73232 0.85443 0.0
C147 C 0.09649 0.6478 0.81467 0.0
C148 C 0.00127 0.63733 0.80565 0.0
C149 C 0.06281 0.73577 0.82778 0.0
O150 O 0.06904 0.65313 0.80448 0.0
O151 O 0.10778 0.65845 0.84347 0.0
O152 O 0.00252 0.68888 0.8615 0.0
O153 O 0.04878 0.67427 0.87559 0.0
Co154 Co 0.82066 0.033 0.33086 0.0
O155 O 0.85861 0.01178 0.33534 0.0
O156 O 0.82697 0.00803 0.28952 0.0
C157 C 0.80414 0.02375 0.38618 0.0
O158 O 0.77923 0.05009 0.31762 0.0
Co159 Co 0.80573 0.08946 0.37746 0.0
O160 O 0.76383 0.08402 0.35853 0.0
C161 C 0.84898 0.09505 0.31784 0.0
C162 C 0.85227 -0.0002 0.3047 0.0
C163 C 0.75889 0.06771 0.33111 0.0
O164 O 0.84174 0.06824 0.30699 0.0
O165 O 0.83928 0.10646 0.34705 0.0
O166 O 0.80092 0.00313 0.36169 0.0
O167 O 0.81947 0.04761 0.37723 0.0
Co168 Co 0.46836 0.66991 0.16175 0.0
O169 O 0.49059 0.63255 0.1576 0.0
O170 O 0.48972 0.66217 0.20543 0.0
C171 C 0.48256 0.68872 0.10917 0.0
O172 O 0.4495 0.7104 0.17537 0.0
Co173 Co 0.41638 0.68653 0.10986 0.0
O174 O 0.41873 0.72753 0.1322 0.0
C175 C 0.40521 0.64189 0.16701 0.0
C176 C 0.49988 0.63779 0.18975 0.0
C177 C 0.43262 0.7312 0.16161 0.0
O178 O 0.43168 0.64749 0.18004 0.0
O179 O 0.39579 0.65324 0.13765 0.0
O180 O 0.50034 0.69162 0.13652 0.0
O181 O 0.45818 0.67272 0.11366 0.0
Co182 Co 0.81685 0.4663 0.67221 0.0
O183 O 0.85681 0.48369 0.67249 0.0
O184 O 0.82307 0.48764 0.71634 0.0
C185 C 0.80439 0.48168 0.6175 0.0
O186 O 0.77355 0.45201 0.68106 0.0
Co187 Co 0.79956 0.41559 0.61874 0.0
O188 O 0.75751 0.4214 0.63711 0.0
C189 C 0.83875 0.40119 0.68015 0.0
C190 C 0.84993 0.49398 0.70377 0.0
C191 C 0.75267 0.4363 0.66562 0.0
O192 O 0.83352 0.42772 0.6932 0.0
O193 O 0.8295 0.39289 0.64936 0.0
O194 O 0.80118 0.5001 0.64423 0.0
O195 O 0.81714 0.4558 0.62411 0.0
Co196 Co 0.03384 0.82755 0.16285 0.0
O197 O 0.01191 0.86514 0.1584 0.0
O198 O 0.00928 0.83367 0.20451 0.0
C199 C 0.02422 0.81024 0.108 0.0
O200 O 0.05167 0.78646 0.17618 0.0
Co201 Co 0.09 0.81314 0.11554 0.0
O202 O 0.08538 0.77126 0.13492 0.0
C203 C 0.09577 0.85654 0.17493 0.0
C204 C 0.00032 0.85868 0.18924 0.0
C205 C 0.0694 0.76625 0.16259 0.0
O206 O 0.06903 0.84925 0.18599 0.0
O207 O 0.10706 0.84681 0.14568 0.0
O208 O 0.00392 0.8071 0.13287 0.0
O209 O 0.04791 0.82614 0.11621 0.0
Co210 Co 0.67104 0.0333 0.66895 0.0
O211 O 0.63287 0.0126 0.66307 0.0
O212 O 0.66319 0.00872 0.71009 0.0
C213 C 0.68921 0.02349 0.61448 0.0
O214 O 0.71226 0.04965 0.684 0.0
Co215 Co 0.68867 0.08926 0.62297 0.0
O216 O 0.72974 0.08344 0.64413 0.0
C217 C 0.64357 0.09594 0.6805 0.0
C218 C 0.63825 0.0007 0.69403 0.0
C219 C 0.73336 0.067 0.67172 0.0
O220 O 0.64986 0.069 0.69173 0.0
O221 O 0.65446 0.10706 0.65172 0.0
O222 O 0.69121 0.00293 0.63922 0.0
O223 O 0.67404 0.04769 0.62256 0.0
H224 H 0.46471 0.10208 0.16072 0.0
H225 H 0.40409 0.02264 0.33623 0.0
H226 H 0.48107 0.13924 0.26513 0.0
H227 H 0.35846 0.01242 0.23539 0.0
H228 H 0.43722 0.06123 0.30979 0.0
H229 H 0.4298 0.06487 0.1869 0.0
C230 C 0.46091 0.1024 0.18915 0.0
C231 C 0.47577 0.12365 0.21088 0.0
C232 C 0.4199 0.05057 0.29352 0.0
C233 C 0.43631 0.08112 0.24086 0.0
C234 C 0.40114 0.02845 0.30848 0.0
C235 C 0.37858 0.01436 0.28788 0.0
C236 C 0.41636 0.05824 0.25759 0.0
C237 C 0.37558 0.02282 0.25215 0.0
C238 C 0.44094 0.08128 0.204 0.0
C239 C 0.46998 0.12325 0.24748 0.0
N240 N 0.39444 0.04414 0.23801 0.0
N241 N 0.45086 0.10208 0.26142 0.0
H242 H 0.39757 0.46632 0.65555 0.0
H243 H 0.46063 0.3984 0.83574 0.0
H244 H 0.35261 0.48155 0.75597 0.0
H245 H 0.47708 0.35495 0.73469 0.0
H246 H 0.42425 0.43258 0.80702 0.0
H247 H 0.43053 0.4287 0.68411 0.0
C248 C 0.39467 0.46173 0.68362 0.0
C249 C 0.37249 0.47709 0.70355 0.0
C250 C 0.4357 0.41544 0.79121 0.0
C251 C 0.4101 0.43441 0.73624 0.0
C252 C 0.45654 0.39606 0.8075 0.0
C253 C 0.4719 0.37398 0.78745 0.0
C254 C 0.43066 0.41302 0.75454 0.0
C255 C 0.46566 0.37172 0.75104 0.0
C256 C 0.41333 0.44017 0.6998 0.0
C257 C 0.36947 0.47017 0.73972 0.0
N258 N 0.44568 0.39126 0.73561 0.0
N259 N 0.38831 0.44949 0.75505 0.0
H260 H 0.01501 0.35408 0.26089 0.0
H261 H 0.14149 0.48138 0.22837 0.0
H262 H 0.03354 0.39353 0.1581 0.0
H263 H 0.09726 0.46921 0.32982 0.0
H264 H 0.10776 0.44283 0.2029 0.0
H265 H 0.0511 0.39017 0.2876 0.0
C266 C 0.02676 0.37022 0.244 0.0
C267 C 0.02124 0.37104 0.20735 0.0
C268 C 0.10546 0.44866 0.23073 0.0
C269 C 0.06242 0.41184 0.23742 0.0
C270 C 0.12469 0.47057 0.24526 0.0
C271 C 0.12195 0.47858 0.28114 0.0
C272 C 0.08366 0.43443 0.25237 0.0
C273 C 0.09989 0.46384 0.30192 0.0
C274 C 0.04719 0.3908 0.25921 0.0
C275 C 0.03699 0.39234 0.18654 0.0
N276 N 0.08159 0.44233 0.28724 0.0
N277 N 0.05695 0.41185 0.20187 0.0
H278 H 0.14284 0.01757 0.75736 0.0
H279 H 0.01121 0.1404 0.72758 0.0
H280 H 0.0969 0.02886 0.65683 0.0
H281 H 0.03522 0.1035 0.8301 0.0
H282 H 0.04856 0.1062 0.69988 0.0
H283 H 0.10941 0.05611 0.78324 0.0
C284 C 0.12578 0.02824 0.74072 0.0
C285 C 0.12238 0.01988 0.70503 0.0
C286 C 0.04561 0.10573 0.72844 0.0
C287 C 0.08432 0.06397 0.73433 0.0
C288 C 0.02444 0.12523 0.7442 0.0
C289 C 0.02004 0.12451 0.78107 0.0
C290 C 0.06265 0.08586 0.74987 0.0
C291 C 0.03772 0.10453 0.80151 0.0
C292 C 0.1067 0.05016 0.7555 0.0
C293 C 0.10003 0.03449 0.68459 0.0
N294 N 0.05829 0.08601 0.78563 0.0
N295 N 0.08176 0.05589 0.69956 0.0
H296 H 0.50717 0.85741 0.73261 0.0
H297 H 0.63643 0.98169 0.76291 0.0
H298 H 0.52503 0.89888 0.83448 0.0
H299 H 0.59214 0.9698 0.66149 0.0
H300 H 0.60076 0.94529 0.78911 0.0
H301 H 0.54335 0.893 0.70523 0.0
C302 C 0.51869 0.87399 0.74914 0.0
C303 C 0.51311 0.87537 0.78576 0.0
C304 C 0.59885 0.95073 0.76113 0.0
C305 C 0.55446 0.91554 0.75494 0.0
C306 C 0.61921 0.97137 0.74618 0.0
C307 C 0.61704 0.9788 0.71009 0.0
C308 C 0.57652 0.93715 0.73968 0.0
C309 C 0.59437 0.9648 0.68953 0.0
C310 C 0.53919 0.89427 0.73355 0.0
C311 C 0.52856 0.89721 0.80609 0.0
N312 N 0.575 0.94447 0.70461 0.0
N313 N 0.5487 0.91635 0.79042 0.0
H314 H 0.5332 0.59277 0.15883 0.0
H315 H 0.60463 0.53234 0.33943 0.0
H316 H 0.51644 0.63635 0.25978 0.0
H317 H 0.64391 0.51294 0.23675 0.0
H318 H 0.56851 0.56698 0.31107 0.0
H319 H 0.5702 0.55935 0.18745 0.0
C320 C 0.53724 0.59523 0.18707 0.0
C321 C 0.52176 0.61729 0.20705 0.0
C322 C 0.58512 0.55522 0.29481 0.0
C323 C 0.56392 0.57916 0.23984 0.0
C324 C 0.60563 0.53539 0.3109 0.0
C325 C 0.62718 0.51976 0.29031 0.0
C326 C 0.58594 0.55907 0.25785 0.0
C327 C 0.62765 0.52462 0.25354 0.0
C328 C 0.55847 0.57627 0.20331 0.0
C329 C 0.52796 0.61963 0.24346 0.0
N330 N 0.60713 0.54374 0.23839 0.0
N331 N 0.54852 0.60064 0.2588 0.0
H332 H 0.95028 0.65039 0.7676 0.0
H333 H 0.9108 0.48544 0.70886 0.0
H334 H 0.00135 0.57562 0.81213 0.0
H335 H 0.83833 0.54535 0.74194 0.0
H336 H 0.94787 0.5199 0.73661 0.0
H337 H 0.91176 0.614 0.74659 0.0
C338 C 0.95345 0.6263 0.77264 0.0
C339 C 0.97889 0.61579 0.79142 0.0
C340 C 0.92381 0.52524 0.73803 0.0
C341 C 0.93554 0.57456 0.76741 0.0
C342 C 0.90279 0.50576 0.72225 0.0
C343 C 0.87169 0.51275 0.72338 0.0
C344 C 0.91358 0.55228 0.75378 0.0
C345 C 0.8622 0.53924 0.74089 0.0
C346 C 0.93143 0.60573 0.76103 0.0
C347 C 0.98193 0.58448 0.79772 0.0
N348 N 0.88321 0.55849 0.75494 0.0
N349 N 0.96063 0.56478 0.78528 0.0
H350 H 0.8975 0.96752 0.33661 0.0
H351 H 0.96692 0.90326 0.15745 0.0
H352 H 0.85421 0.98215 0.23512 0.0
H353 H 0.98213 0.85955 0.2586 0.0
H354 H 0.92934 0.93664 0.18549 0.0
H355 H 0.93274 0.9318 0.30846 0.0
C356 C 0.89545 0.96319 0.30839 0.0
C357 C 0.87305 0.97779 0.28805 0.0
C358 C 0.94084 0.91965 0.20146 0.0
C359 C 0.91329 0.93731 0.25581 0.0
C360 C 0.96237 0.90075 0.18558 0.0
C361 C 0.97764 0.87875 0.20585 0.0
C362 C 0.93501 0.91682 0.23793 0.0
C363 C 0.9708 0.87625 0.24209 0.0
C364 C 0.91543 0.94273 0.29243 0.0
C365 C 0.87119 0.97128 0.25168 0.0
N366 N 0.9501 0.89528 0.2571 0.0
N367 N 0.89129 0.95166 0.23658 0.0
H368 H 0.55357 0.24699 0.24814 0.0
H369 H 0.6328 0.41049 0.259 0.0
H370 H 0.59394 0.29247 0.15796 0.0
H371 H 0.62449 0.34991 0.34889 0.0
H372 H 0.60635 0.37305 0.22227 0.0
H373 H 0.56745 0.29044 0.28547 0.0
C374 C 0.56492 0.26629 0.23604 0.0
C375 C 0.57295 0.26594 0.19993 0.0
C376 C 0.61005 0.36816 0.25013 0.0
C377 C 0.58872 0.31563 0.24249 0.0
C378 C 0.62503 0.38954 0.2712 0.0
C379 C 0.63127 0.38316 0.30704 0.0
C380 C 0.60093 0.34034 0.26505 0.0
C381 C 0.62054 0.35563 0.32131 0.0
C382 C 0.57293 0.29098 0.25742 0.0
C383 C 0.58765 0.2916 0.18575 0.0
N384 N 0.60603 0.33513 0.30021 0.0
N385 N 0.5952 0.31536 0.20712 0.0
H386 H 0.21225 0.6046 0.63923 0.0
H387 H 0.14641 0.61471 0.83366 0.0
H388 H 0.24704 0.55051 0.72606 0.0
H389 H 0.09309 0.64098 0.74238 0.0
H390 H 0.18324 0.59052 0.79419 0.0
H391 H 0.16788 0.61761 0.67552 0.0
C392 C 0.21043 0.59516 0.66573 0.0
C393 C 0.23366 0.57676 0.67976 0.0
C394 C 0.16329 0.60121 0.78276 0.0
C395 C 0.18313 0.5918 0.72143 0.0
C396 C 0.14233 0.61513 0.80528 0.0
C397 C 0.11682 0.63008 0.79124 0.0
C398 C 0.15908 0.60277 0.74585 0.0
C399 C 0.1125 0.62971 0.75429 0.0
C400 C 0.18504 0.60254 0.68637 0.0
C401 C 0.22988 0.56498 0.71416 0.0
N402 N 0.13372 0.6167 0.73277 0.0
N403 N 0.20536 0.57307 0.73398 0.0
H404 H 0.8838 0.14382 0.33706 0.0
H405 H 0.89823 0.20736 0.14158 0.0
H406 H 0.85641 0.09115 0.24567 0.0
H407 H 0.94941 0.24365 0.22995 0.0
H408 H 0.88416 0.16354 0.17817 0.0
H409 H 0.90945 0.17971 0.29771 0.0
C410 C 0.88343 0.13966 0.30869 0.0
C411 C 0.86769 0.11465 0.29458 0.0
C412 C 0.89882 0.18091 0.18933 0.0
C413 C 0.89671 0.15587 0.24931 0.0
C414 C 0.9068 0.20599 0.1685 0.0
C415 C 0.92466 0.22951 0.18285 0.0
C416 C 0.90844 0.17955 0.22487 0.0
C417 C 0.93535 0.22628 0.2178 0.0
C418 C 0.89818 0.16011 0.28623 0.0
C419 C 0.86823 0.1102 0.25765 0.0
N420 N 0.92671 0.20203 0.23774 0.0
N421 N 0.88208 0.13091 0.2362 0.0
H422 H 0.28267 0.89144 0.65027 0.0
H423 H 0.34343 0.8716 0.84647 0.0
H424 H 0.24019 0.93589 0.73983 0.0
H425 H 0.40126 0.85919 0.75478 0.0
H426 H 0.30475 0.89446 0.8081 0.0
H427 H 0.32602 0.87833 0.6881 0.0
C428 C 0.28255 0.89864 0.67779 0.0
C429 C 0.25767 0.9146 0.69196 0.0
C430 C 0.32608 0.88707 0.7965 0.0
C431 C 0.30698 0.89941 0.73539 0.0
C432 C 0.34813 0.87395 0.81836 0.0
C433 C 0.37554 0.86326 0.80381 0.0
C434 C 0.33126 0.889 0.75976 0.0
C435 C 0.38045 0.86707 0.76719 0.0
C436 C 0.30734 0.89125 0.69932 0.0
C437 C 0.25885 0.92353 0.72777 0.0
N438 N 0.35834 0.87923 0.74634 0.0
N439 N 0.28291 0.91546 0.74837 0.0
H440 H 0.59699 0.21244 0.85327 0.0
H441 H 0.60999 0.14516 0.65981 0.0
H442 H 0.54536 0.24772 0.76472 0.0
H443 H 0.63482 0.09289 0.75247 0.0
H444 H 0.58479 0.1822 0.69818 0.0
H445 H 0.60981 0.16758 0.81777 0.0
C446 C 0.58806 0.21063 0.82654 0.0
C447 C 0.57042 0.23414 0.81181 0.0
C448 C 0.59537 0.16242 0.71013 0.0
C449 C 0.58523 0.183 0.77102 0.0
C450 C 0.60985 0.14132 0.68824 0.0
C451 C 0.62478 0.11609 0.70301 0.0
C452 C 0.59635 0.15862 0.74714 0.0
C453 C 0.62363 0.11207 0.73999 0.0
C454 C 0.5953 0.18496 0.80634 0.0
C455 C 0.55923 0.23035 0.77714 0.0
N456 N 0.61012 0.13343 0.76088 0.0
N457 N 0.56721 0.20552 0.75776 0.0
H458 H 0.35227 0.61454 0.14533 0.0
H459 H 0.28859 0.59742 0.34039 0.0
H460 H 0.40845 0.62876 0.23799 0.0
H461 H 0.24606 0.55417 0.2501 0.0
H462 H 0.33314 0.6085 0.30363 0.0
H463 H 0.31342 0.5914 0.18312 0.0
C464 C 0.35661 0.61247 0.17355 0.0
C465 C 0.38353 0.6239 0.18854 0.0
C466 C 0.3142 0.59624 0.29202 0.0
C467 C 0.33899 0.59782 0.23198 0.0
C468 C 0.28871 0.59001 0.31295 0.0
C469 C 0.26341 0.57513 0.29822 0.0
C470 C 0.31417 0.58796 0.25598 0.0
C471 C 0.26497 0.56581 0.26257 0.0
C472 C 0.33444 0.59919 0.1951 0.0
C473 C 0.388 0.62037 0.22527 0.0
N474 N 0.28973 0.57278 0.24253 0.0
N475 N 0.36573 0.60808 0.24582 0.0
H476 H 0.84819 0.40288 0.75205 0.0
H477 H 0.93673 0.24413 0.75735 0.0
H478 H 0.86635 0.3483 0.65897 0.0
H479 H 0.8906 0.28189 0.84868 0.0
H480 H 0.91987 0.2876 0.72217 0.0
H481 H 0.87228 0.36372 0.78876 0.0
C482 C 0.85747 0.38282 0.73927 0.0
C483 C 0.85504 0.37874 0.70238 0.0
C484 C 0.9136 0.28642 0.74996 0.0
C485 C 0.88272 0.33408 0.74422 0.0
C486 C 0.92331 0.26169 0.77016 0.0
C487 C 0.91482 0.25917 0.80602 0.0
C488 C 0.89551 0.309 0.76573 0.0
C489 C 0.89744 0.28272 0.82108 0.0
C490 C 0.87109 0.36047 0.76028 0.0
C491 C 0.86745 0.35227 0.68732 0.0
N492 N 0.88826 0.30664 0.80081 0.0
N493 N 0.88074 0.33093 0.70831 0.0
H494 H 0.14489 0.89105 0.15598 0.0
H495 H 0.21132 0.89575 0.35029 0.0
H496 H 0.09222 0.86313 0.24717 0.0
H497 H 0.24907 0.9483 0.26383 0.0
H498 H 0.16614 0.88582 0.3142 0.0
H499 H 0.18194 0.9146 0.19567 0.0
C500 C 0.14094 0.89021 0.18437 0.0
C501 C 0.11564 0.87481 0.19832 0.0
C502 C 0.18413 0.8999 0.30337 0.0
C503 C 0.15819 0.90133 0.24395 0.0
C504 C 0.20999 0.90551 0.32391 0.0
C505 C 0.2343 0.92248 0.30989 0.0
C506 C 0.18276 0.91099 0.26842 0.0
C507 C 0.2311 0.93482 0.27567 0.0
C508 C 0.16206 0.90374 0.20703 0.0
C509 C 0.11148 0.87469 0.2353 0.0
N510 N 0.20604 0.92843 0.25593 0.0
N511 N 0.13286 0.88727 0.25691 0.0
H512 H 0.38865 0.64431 0.65619 0.0
H513 H 0.3981 0.70634 0.85283 0.0
H514 H 0.35917 0.59105 0.74624 0.0
H515 H 0.44955 0.74472 0.76583 0.0
H516 H 0.38575 0.66247 0.81547 0.0
H517 H 0.41335 0.67995 0.69662 0.0
C518 C 0.38766 0.63994 0.68449 0.0
C519 C 0.37155 0.61488 0.69789 0.0
C520 C 0.4001 0.68032 0.80479 0.0
C521 C 0.39944 0.65583 0.74442 0.0
C522 C 0.40711 0.70542 0.82606 0.0
C523 C 0.42449 0.72956 0.81231 0.0
C524 C 0.41026 0.67953 0.76942 0.0
C525 C 0.43577 0.72691 0.77752 0.0
C526 C 0.40185 0.66026 0.70758 0.0
C527 C 0.37129 0.61015 0.73479 0.0
N528 N 0.4281 0.70259 0.75716 0.0
N529 N 0.38458 0.63076 0.75685 0.0
H530 H 0.91051 0.35965 0.24412 0.0
H531 H 0.75045 0.44482 0.26072 0.0
H532 H 0.85082 0.3766 0.15514 0.0
H533 H 0.79378 0.39884 0.34866 0.0
H534 H 0.79302 0.43029 0.2227 0.0
H535 H 0.87359 0.38438 0.28331 0.0
C536 C 0.88987 0.36895 0.2327 0.0
C537 C 0.8836 0.36577 0.19629 0.0
C538 C 0.79329 0.42361 0.25039 0.0
C539 C 0.84142 0.39409 0.24102 0.0
C540 C 0.76905 0.43197 0.27221 0.0
C541 C 0.76832 0.42273 0.30792 0.0
C542 C 0.81716 0.40613 0.26438 0.0
C543 C 0.7932 0.40618 0.32122 0.0
C544 C 0.86878 0.3829 0.25515 0.0
C545 C 0.85645 0.37824 0.18306 0.0
N546 N 0.81657 0.39828 0.29939 0.0
N547 N 0.83631 0.39176 0.20545 0.0
H548 H 0.03997 0.74812 0.76161 0.0
H549 H 0.12594 0.90793 0.74753 0.0
H550 H 0.08887 0.78974 0.84852 0.0
H551 H 0.10385 0.85101 0.65763 0.0
H552 H 0.09917 0.8721 0.78636 0.0
H553 H 0.05 0.79324 0.72552 0.0
C554 C 0.05236 0.76692 0.77337 0.0
C555 C 0.06414 0.76485 0.80796 0.0
C556 C 0.09982 0.86777 0.75805 0.0
C557 C 0.07563 0.8165 0.76671 0.0
C558 C 0.11496 0.88825 0.73584 0.0
C559 C 0.11759 0.88215 0.69935 0.0
C560 C 0.08698 0.84125 0.74359 0.0
C561 C 0.10284 0.85632 0.68568 0.0
C562 C 0.05814 0.79262 0.75267 0.0
C563 C 0.07982 0.79009 0.82178 0.0
N564 N 0.0884 0.83668 0.70786 0.0
N565 N 0.0854 0.81475 0.80097 0.0
H566 H 0.64101 0.11247 0.16093 0.0
H567 H 0.70691 0.09622 0.35432 0.0
H568 H 0.58857 0.13598 0.25398 0.0
H569 H 0.74417 0.04783 0.26436 0.0
H570 H 0.66177 0.1083 0.3191 0.0
H571 H 0.67739 0.08581 0.19873 0.0
C572 C 0.63695 0.11168 0.1893 0.0
C573 C 0.61197 0.12681 0.20439 0.0
C574 C 0.67962 0.09463 0.30727 0.0
C575 C 0.65376 0.0967 0.24788 0.0
C576 C 0.70547 0.08782 0.32732 0.0
C577 C 0.72963 0.07142 0.3121 0.0
C578 C 0.67814 0.08538 0.27161 0.0
C579 C 0.72629 0.0608 0.27713 0.0
C580 C 0.65769 0.09637 0.21087 0.0
C581 C 0.60762 0.12474 0.24126 0.0
N582 N 0.70127 0.06839 0.2579 0.0
N583 N 0.62866 0.11046 0.26186 0.0
H584 H 0.45182 0.74403 0.2291 0.0
H585 H 0.36101 0.90126 0.24369 0.0
H586 H 0.40109 0.78263 0.14169 0.0
H587 H 0.3849 0.84501 0.33353 0.0
H588 H 0.38585 0.86436 0.20428 0.0
H589 H 0.4378 0.78769 0.26552 0.0
C590 C 0.438 0.76181 0.21736 0.0
C591 C 0.42723 0.75936 0.18235 0.0
C592 C 0.38588 0.86035 0.23267 0.0
C593 C 0.41116 0.80949 0.22412 0.0
C594 C 0.37187 0.88142 0.25518 0.0
C595 C 0.37062 0.876 0.29192 0.0
C596 C 0.39905 0.83398 0.2471 0.0
C597 C 0.385 0.8499 0.30534 0.0
C598 C 0.42996 0.78671 0.23827 0.0
C599 C 0.40959 0.78334 0.16865 0.0
N600 N 0.39852 0.82982 0.28293 0.0
N601 N 0.40191 0.80734 0.18967 0.0
H602 H 0.70177 0.40551 0.64263 0.0
H603 H 0.6367 0.39135 0.83701 0.0
H604 H 0.73615 0.45794 0.73106 0.0
H605 H 0.58586 0.36133 0.74537 0.0
H606 H 0.67167 0.41839 0.79783 0.0
H607 H 0.65723 0.39189 0.67822 0.0
C608 C 0.69978 0.41457 0.66929 0.0
C609 C 0.72311 0.43244 0.68406 0.0
C610 C 0.65264 0.40626 0.78624 0.0
C611 C 0.67233 0.41665 0.725 0.0
C612 C 0.63273 0.3907 0.80862 0.0
C613 C 0.60855 0.37378 0.7944 0.0
C614 C 0.64875 0.40442 0.74928 0.0
C615 C 0.60429 0.37402 0.75743 0.0
C616 C 0.6743 0.4068 0.68958 0.0
C617 C 0.71903 0.44376 0.71864 0.0
N618 N 0.62453 0.38866 0.73606 0.0
N619 N 0.69444 0.43525 0.7381 0.0
H620 H 0.1101 0.64583 0.33259 0.0
H621 H 0.09891 0.71468 0.13969 0.0
H622 H 0.13549 0.59453 0.23936 0.0
H623 H 0.04894 0.75109 0.22897 0.0
H624 H 0.11043 0.66922 0.17467 0.0
H625 H 0.0852 0.6833 0.29459 0.0
C626 C 0.11009 0.64226 0.30411 0.0
C627 C 0.12518 0.61723 0.28907 0.0
C628 C 0.09658 0.68699 0.18639 0.0
C629 C 0.09713 0.66028 0.24537 0.0
C630 C 0.09008 0.71301 0.16649 0.0
C631 C 0.07332 0.73699 0.18157 0.0
C632 C 0.08661 0.68512 0.22176 0.0
C633 C 0.06219 0.73336 0.21629 0.0
C634 C 0.0958 0.66362 0.28242 0.0
C635 C 0.12419 0.61356 0.25205 0.0
N636 N 0.06942 0.70814 0.23537 0.0
N637 N 0.11088 0.63518 0.23137 0.0
H638 H 0.90788 0.12713 0.74998 0.0
H639 H 0.74481 0.04718 0.73936 0.0
H640 H 0.85079 0.11024 0.84134 0.0
H641 H 0.78707 0.09362 0.65101 0.0
H642 H 0.78979 0.05791 0.77538 0.0
H643 H 0.8699 0.10234 0.71237 0.0
C644 C 0.88765 0.11774 0.76228 0.0
C645 C 0.8823 0.12118 0.79885 0.0
C646 C 0.7893 0.06543 0.74799 0.0
C647 C 0.83887 0.09284 0.75589 0.0
C648 C 0.76369 0.05926 0.72733 0.0
C649 C 0.76195 0.06994 0.69221 0.0
C650 C 0.81347 0.08213 0.73337 0.0
C651 C 0.78723 0.08535 0.67809 0.0
C652 C 0.86594 0.10374 0.74072 0.0
C653 C 0.85567 0.10849 0.81323 0.0
N654 N 0.81188 0.09117 0.69881 0.0
N655 N 0.83483 0.09507 0.79166 0.0
H656 H 0.56935 0.21058 0.07342 0.0
H657 H 0.47118 0.27829 0.91677 0.0
H658 H 0.47288 0.22513 0.08765 0.0
H659 H 0.56471 0.30384 0.93585 0.0
H660 H 0.47019 0.25294 0.9751 0.0
H661 H 0.56716 0.23854 0.01779 0.0
C662 C 0.54766 0.2197 0.06486 0.0
C663 C 0.52126 0.21568 0.08521 0.0
C664 C 0.49077 0.26432 0.9664 0.0
C665 C 0.51858 0.24739 0.02125 0.0
C666 C 0.49142 0.27859 0.93321 0.0
C667 C 0.51814 0.29294 0.92146 0.0
C668 C 0.5172 0.26403 0.98733 0.0
C669 C 0.54368 0.29291 0.94375 0.0
C670 C 0.54647 0.23574 0.03314 0.0
C671 C 0.49376 0.22794 0.07272 0.0
N672 N 0.54267 0.27841 0.97546 0.0
N673 N 0.49303 0.24313 0.0412 0.0
H674 H 0.22103 0.47574 0.40475 0.0
H675 H 0.30163 0.5713 0.55616 0.0
H676 H 0.20326 0.57116 0.42323 0.0
H677 H 0.27748 0.47723 0.57434 0.0
H678 H 0.27455 0.56975 0.49979 0.0
H679 H 0.25003 0.47404 0.46071 0.0
C680 C 0.22327 0.49626 0.42051 0.0
C681 C 0.20986 0.52366 0.4094 0.0
C682 C 0.27522 0.54945 0.51613 0.0
C683 C 0.24305 0.52194 0.47237 0.0
C684 C 0.29071 0.55026 0.54824 0.0
C685 C 0.29147 0.52443 0.57007 0.0
C686 C 0.2608 0.52249 0.50546 0.0
C687 C 0.27712 0.4977 0.55831 0.0
C688 C 0.23966 0.49523 0.45231 0.0
C689 C 0.21326 0.54959 0.43073 0.0
N690 N 0.26233 0.49735 0.52658 0.0
N691 N 0.22975 0.54815 0.46104 0.0
H692 H 0.96286 0.32342 0.04483 0.0
H693 H 0.96522 0.17066 0.94474 0.0
H694 H 0.00372 0.24578 0.09637 0.0
H695 H 0.99778 0.25059 0.89001 0.0
H696 H 0.97133 0.19743 0.00153 0.0
H697 H 0.96767 0.29722 0.98747 0.0
C698 C 0.97298 0.30092 0.04392 0.0
C699 C 0.9829 0.28656 0.07504 0.0
C700 C 0.97742 0.20889 0.97705 0.0
C701 C 0.98777 0.2566 0.01034 0.0
C702 C 0.97377 0.19381 0.94482 0.0
C703 C 0.98101 0.20862 0.91299 0.0
C704 C 0.98736 0.2392 0.9771 0.0
C705 C 0.99211 0.23851 0.91421 0.0
C706 C 0.97587 0.28618 0.01136 0.0
C707 C 0.99595 0.25751 0.07275 0.0
N708 N 0.99442 0.25317 0.94587 0.0
N709 N 0.99749 0.24311 0.04087 0.0
H710 H 0.2824 0.01775 0.41517 0.0
H711 H 0.20111 0.92163 0.56507 0.0
H712 H 0.30091 0.92236 0.43286 0.0
H713 H 0.22267 0.01639 0.5826 0.0
H714 H 0.23083 0.92278 0.51046 0.0
H715 H 0.25415 0.01915 0.47159 0.0
C716 C 0.28056 0.99718 0.43092 0.0
C717 C 0.2938 0.96985 0.41933 0.0
C718 C 0.2291 0.9433 0.52631 0.0
C719 C 0.26147 0.97124 0.48297 0.0
C720 C 0.21207 0.94271 0.5574 0.0
C721 C 0.20962 0.96893 0.57842 0.0
C722 C 0.24331 0.97043 0.51581 0.0
C723 C 0.22422 0.99566 0.56713 0.0
C724 C 0.2646 0.99804 0.46301 0.0
C725 C 0.29094 0.94387 0.4407 0.0
N726 N 0.24038 0.99583 0.5363 0.0
N727 N 0.27481 0.94513 0.47133 0.0
H728 H 0.46301 0.82251 0.95054 0.0
H729 H 0.47238 0.6676 0.04273 0.0
H730 H 0.50571 0.7487 0.89362 0.0
H731 H 0.50488 0.74604 0.1003 0.0
H732 H 0.47757 0.69621 0.98702 0.0
H733 H 0.47114 0.79478 0.00638 0.0
C734 C 0.47427 0.80056 0.94995 0.0
C735 C 0.4837 0.78767 0.91777 0.0
C736 C 0.48397 0.7069 0.01186 0.0
C737 C 0.49237 0.75597 0.98073 0.0
C738 C 0.48087 0.69077 0.04346 0.0
C739 C 0.48825 0.70468 0.07577 0.0
C740 C 0.49343 0.73735 0.01299 0.0
C741 C 0.49916 0.73466 0.07568 0.0
C742 C 0.47907 0.78496 0.98165 0.0
C743 C 0.49827 0.75929 0.91811 0.0
N744 N 0.50082 0.75037 0.04466 0.0
N745 N 0.50163 0.74397 0.94919 0.0
H746 H 0.82811 0.46666 0.5534 0.0
H747 H 0.6784 0.46984 0.45111 0.0
H748 H 0.75126 0.51091 0.60269 0.0
H749 H 0.75825 0.50245 0.3963 0.0
H750 H 0.70451 0.47772 0.50798 0.0
H751 H 0.80356 0.47291 0.49523 0.0
C752 C 0.80622 0.47799 0.55179 0.0
C753 C 0.7915 0.48828 0.58252 0.0
C754 C 0.71608 0.48349 0.48346 0.0
C755 C 0.76335 0.4947 0.51696 0.0
C756 C 0.70139 0.4788 0.4512 0.0
C757 C 0.7164 0.48548 0.41934 0.0
C758 C 0.74624 0.49387 0.48356 0.0
C759 C 0.74606 0.49716 0.42054 0.0
C760 C 0.79242 0.48168 0.51879 0.0
C761 C 0.76325 0.50283 0.57938 0.0
N762 N 0.76041 0.50041 0.4523 0.0
N763 N 0.74964 0.50501 0.5471 0.0
H764 H 0.06916 0.8036 0.05902 0.0
H765 H 0.97349 0.71355 0.91561 0.0
H766 H 0.97587 0.77848 0.0805 0.0
H767 H 0.06995 0.70005 0.93135 0.0
H768 H 0.97192 0.74386 0.97051 0.0
H769 H 0.0678 0.77303 0.00514 0.0
C770 C 0.04833 0.79173 0.05236 0.0
C771 C 0.02266 0.79329 0.0744 0.0
C772 C 0.9933 0.73406 0.96184 0.0
C773 C 0.02094 0.75855 0.01262 0.0
C774 C 0.99426 0.71689 0.93063 0.0
C775 C 0.02194 0.70449 0.91891 0.0
C776 C 0.02032 0.73921 0.98075 0.0
C777 C 0.04817 0.70932 0.93931 0.0
C778 C 0.04764 0.77421 0.02168 0.0
C779 C 0.9962 0.77763 0.06425 0.0
N780 N 0.04677 0.72658 0.96907 0.0
N781 N 0.99594 0.76087 0.03387 0.0
H782 H 0.71687 0.97321 0.58538 0.0
H783 H 0.79831 0.06889 0.4349 0.0
H784 H 0.69937 0.06868 0.56682 0.0
H785 H 0.77474 0.97477 0.41603 0.0
H786 H 0.7705 0.06716 0.49071 0.0
H787 H 0.74574 0.97135 0.52929 0.0
C788 C 0.71911 0.9937 0.56956 0.0
C789 C 0.70589 0.02118 0.58074 0.0
C790 C 0.77143 0.04688 0.47435 0.0
C791 C 0.7389 0.01926 0.51761 0.0
C792 C 0.78735 0.04779 0.44253 0.0
C793 C 0.78853 0.022 0.42066 0.0
C794 C 0.75696 0.01987 0.48471 0.0
C795 C 0.7741 0.99521 0.4321 0.0
C796 C 0.73541 0.99257 0.53768 0.0
C797 C 0.70926 0.04705 0.55931 0.0
N798 N 0.75886 0.99476 0.46358 0.0
N799 N 0.72568 0.04551 0.52895 0.0
loop_
_geom_bond_atom_site_label_1
_geom_bond_atom_site_label_2
_geom_bond_distance
_geom_bond_site_symmetry_2
_ccdc_geom_bond_type
Co0 O1 2.216 . S
Co0 O2 2.091 . S
Co0 O4 2.004 . S
Co0 O10 2.021 . S
Co0 O12 2.137 . S
Co0 O13 2.244 . S
O1 Co0 2.216 . S
O1 C8 1.247 . S
O2 Co0 2.091 . S
O2 C8 1.261 . S
C3 O12 1.247 . S
C3 O13 1.272 . S
O4 Co0 2.004 . S
O4 C9 1.259 . S
Co5 O6 2.061 . S
Co5 O11 2.052 . S
Co5 O13 2.135 . S
O6 Co5 2.061 . S
O6 C9 1.235 . S
C7 O10 1.238 . S
C7 O11 1.241 . S
C8 O1 1.247 . S
C8 O2 1.261 . S
C9 O4 1.259 . S
C9 O6 1.235 . S
O10 Co0 2.021 . S
O10 C7 1.238 . S
O11 Co5 2.052 . S
O11 C7 1.241 . S
O12 Co0 2.137 . S
O12 C3 1.247 . S
O13 Co0 2.244 . S
O13 C3 1.272 . S
O13 Co5 2.135 . S
Co14 O15 2.216 . S
Co14 O16 2.091 . S
Co14 O18 2.004 . S
Co14 O24 2.021 . S
Co14 O26 2.137 . S
Co14 O27 2.244 . S
O15 Co14 2.216 . S
O15 C22 1.247 . S
O16 Co14 2.091 . S
O16 C22 1.261 . S
C17 O26 1.247 . S
C17 O27 1.272 . S
O18 Co14 2.004 . S
O18 C23 1.259 . S
Co19 O20 2.061 . S
Co19 O25 2.052 . S
Co19 O27 2.135 . S
O20 Co19 2.061 . S
O20 C23 1.235 . S
C21 O24 1.238 . S
C21 O25 1.241 . S
C22 O15 1.247 . S
C22 O16 1.261 . S
C23 O18 1.259 . S
C23 O20 1.235 . S
O24 Co14 2.021 . S
O24 C21 1.238 . S
O25 Co19 2.052 . S
O25 C21 1.241 . S
O26 Co14 2.137 . S
O26 C17 1.247 . S
O27 Co14 2.244 . S
O27 C17 1.272 . S
O27 Co19 2.135 . S
Co28 O29 2.216 1_655 S
Co28 O30 2.091 1_655 S
Co28 O32 2.004 . S
Co28 O38 2.021 . S
Co28 O40 2.137 1_655 S
Co28 O41 2.244 . S
O29 Co28 2.216 1_455 S
O29 C36 1.247 . S
O30 Co28 2.091 1_455 S
O30 C36 1.261 . S
C31 O40 1.247 1_655 S
C31 O41 1.272 . S
O32 Co28 2.004 . S
O32 C37 1.259 . S
Co33 O34 2.061 . S
Co33 O39 2.052 . S
Co33 O41 2.135 . S
O34 Co33 2.061 . S
O34 C37 1.235 . S
C35 O38 1.238 . S
C35 O39 1.241 . S
C36 O29 1.247 . S
C36 O30 1.261 . S
C37 O32 1.259 . S
C37 O34 1.235 . S
O38 Co28 2.021 . S
O38 C35 1.238 . S
O39 Co33 2.052 . S
O39 C35 1.241 . S
O40 Co28 2.137 1_455 S
O40 C31 1.247 1_455 S
O41 Co28 2.244 . S
O41 C31 1.272 . S
O41 Co33 2.135 . S
Co42 O43 2.216 1_565 S
Co42 O44 2.091 1_565 S
Co42 O46 2.004 . S
Co42 O52 2.021 . S
Co42 O54 2.137 1_565 S
Co42 O55 2.244 . S
O43 Co42 2.216 1_545 S
O43 C50 1.247 . S
O44 Co42 2.091 1_545 S
O44 C50 1.261 . S
C45 O54 1.247 1_565 S
C45 O55 1.272 . S
O46 Co42 2.004 . S
O46 C51 1.259 . S
Co47 O48 2.061 . S
Co47 O53 2.052 . S
Co47 O55 2.135 . S
O48 Co47 2.061 . S
O48 C51 1.235 . S
C49 O52 1.238 . S
C49 O53 1.241 . S
C50 O43 1.247 . S
C50 O44 1.261 . S
C51 O46 1.259 . S
C51 O48 1.235 . S
O52 Co42 2.021 . S
O52 C49 1.238 . S
O53 Co47 2.052 . S
O53 C49 1.241 . S
O54 Co42 2.137 1_545 S
O54 C45 1.247 1_545 S
O55 Co42 2.244 . S
O55 C45 1.272 . S
O55 Co47 2.135 . S
Co56 O57 2.216 . S
Co56 O58 2.091 . S
Co56 O60 2.004 . S
Co56 O66 2.021 . S
Co56 O68 2.137 . S
Co56 O69 2.244 . S
O57 Co56 2.216 . S
O57 C64 1.247 . S
O58 Co56 2.091 . S
O58 C64 1.261 . S
C59 O68 1.247 . S
C59 O69 1.272 . S
O60 Co56 2.004 . S
O60 C65 1.259 . S
Co61 O62 2.061 . S
Co61 O67 2.052 . S
Co61 O69 2.135 . S
O62 Co61 2.061 . S
O62 C65 1.235 . S
C63 O66 1.238 . S
C63 O67 1.241 . S
C64 O57 1.247 . S
C64 O58 1.261 . S
C65 O60 1.259 . S
C65 O62 1.235 . S
O66 Co56 2.021 . S
O66 C63 1.238 . S
O67 Co61 2.052 . S
O67 C63 1.241 . S
O68 Co56 2.137 . S
O68 C59 1.247 . S
O69 Co56 2.244 . S
O69 C59 1.272 . S
O69 Co61 2.135 . S
Co70 O71 2.216 . S
Co70 O72 2.091 . S
Co70 O74 2.004 . S
Co70 O80 2.021 . S
Co70 O82 2.137 . S
Co70 O83 2.244 . S
O71 Co70 2.216 . S
O71 C78 1.247 . S
O72 Co70 2.091 . S
O72 C78 1.261 . S
C73 O82 1.247 . S
C73 O83 1.272 . S
O74 Co70 2.004 . S
O74 C79 1.259 . S
Co75 O76 2.061 . S
Co75 O81 2.052 . S
Co75 O83 2.135 . S
O76 Co75 2.061 . S
O76 C79 1.235 . S
C77 O80 1.238 . S
C77 O81 1.241 . S
C78 O71 1.247 . S
C78 O72 1.261 . S
C79 O74 1.259 . S
C79 O76 1.235 . S
O80 Co70 2.021 . S
O80 C77 1.238 . S
O81 Co75 2.052 . S
O81 C77 1.241 . S
O82 Co70 2.137 . S
O82 C73 1.247 . S
O83 Co70 2.244 . S
O83 C73 1.272 . S
O83 Co75 2.135 . S
Co84 O85 2.216 1_655 S
Co84 O86 2.091 1_655 S
Co84 O88 2.004 . S
Co84 O94 2.021 . S
Co84 O96 2.137 1_655 S
Co84 O97 2.244 . S
O85 Co84 2.216 1_455 S
O85 C92 1.247 . S
O86 Co84 2.091 1_455 S
O86 C92 1.261 . S
C87 O96 1.247 1_655 S
C87 O97 1.272 . S
O88 Co84 2.004 . S
O88 C93 1.259 . S
Co89 O90 2.061 . S
Co89 O95 2.052 . S
Co89 O97 2.135 . S
O90 Co89 2.061 . S
O90 C93 1.235 . S
C91 O94 1.238 . S
C91 O95 1.241 . S
C92 O85 1.247 . S
C92 O86 1.261 . S
C93 O88 1.259 . S
C93 O90 1.235 . S
O94 Co84 2.021 . S
O94 C91 1.238 . S
O95 Co89 2.052 . S
O95 C91 1.241 . S
O96 Co84 2.137 1_455 S
O96 C87 1.247 1_455 S
O97 Co84 2.244 . S
O97 C87 1.272 . S
O97 Co89 2.135 . S
Co98 O99 2.216 1_565 S
Co98 O100 2.091 1_565 S
Co98 O102 2.004 . S
Co98 O108 2.021 . S
Co98 O110 2.137 1_565 S
Co98 O111 2.244 . S
O99 Co98 2.216 1_545 S
O99 C106 1.247 . S
O100 Co98 2.091 1_545 S
O100 C106 1.261 . S
C101 O110 1.247 1_565 S
C101 O111 1.272 . S
O102 Co98 2.004 . S
O102 C107 1.259 . S
Co103 O104 2.061 . S
Co103 O109 2.052 . S
Co103 O111 2.135 . S
O104 Co103 2.061 . S
O104 C107 1.235 . S
C105 O108 1.238 . S
C105 O109 1.241 . S
C106 O99 1.247 . S
C106 O100 1.261 . S
C107 O102 1.259 . S
C107 O104 1.235 . S
O108 Co98 2.021 . S
O108 C105 1.238 . S
O109 Co103 2.052 . S
O109 C105 1.241 . S
O110 Co98 2.137 1_545 S
O110 C101 1.247 1_545 S
O111 Co98 2.244 . S
O111 C101 1.272 . S
O111 Co103 2.135 . S
Co112 O113 2.216 . S
Co112 O114 2.091 . S
Co112 O116 2.004 . S
Co112 O122 2.021 . S
Co112 O124 2.137 . S
Co112 O125 2.244 . S
O113 Co112 2.216 . S
O113 C120 1.247 . S
O114 Co112 2.091 . S
O114 C120 1.261 . S
C115 O124 1.247 . S
C115 O125 1.272 . S
O116 Co112 2.004 . S
O116 C121 1.259 . S
Co117 O118 2.061 . S
Co117 O123 2.052 . S
Co117 O125 2.135 . S
O118 Co117 2.061 . S
O118 C121 1.235 . S
C119 O122 1.238 . S
C119 O123 1.241 . S
C120 O113 1.247 . S
C120 O114 1.261 . S
C121 O116 1.259 . S
C121 O118 1.235 . S
O122 Co112 2.021 . S
O122 C119 1.238 . S
O123 Co117 2.052 . S
O123 C119 1.241 . S
O124 Co112 2.137 . S
O124 C115 1.247 . S
O125 Co112 2.244 . S
O125 C115 1.272 . S
O125 Co117 2.135 . S
Co126 O127 2.216 . S
Co126 O128 2.091 . S
Co126 O130 2.004 . S
Co126 O136 2.021 . S
Co126 O138 2.137 . S
Co126 O139 2.244 . S
O127 Co126 2.216 . S
O127 C134 1.247 . S
O128 Co126 2.091 . S
O128 C134 1.261 . S
C129 O138 1.247 . S
C129 O139 1.272 . S
O130 Co126 2.004 . S
O130 C135 1.259 . S
Co131 O132 2.061 . S
Co131 O137 2.052 . S
Co131 O139 2.135 . S
O132 Co131 2.061 . S
O132 C135 1.235 . S
C133 O136 1.238 . S
C133 O137 1.241 . S
C134 O127 1.247 . S
C134 O128 1.261 . S
C135 O130 1.259 . S
C135 O132 1.235 . S
O136 Co126 2.021 . S
O136 C133 1.238 . S
O137 Co131 2.052 . S
O137 C133 1.241 . S
O138 Co126 2.137 . S
O138 C129 1.247 . S
O139 Co126 2.244 . S
O139 C129 1.272 . S
O139 Co131 2.135 . S
Co140 O141 2.216 1_455 S
Co140 O142 2.091 1_455 S
Co140 O144 2.004 . S
Co140 O150 2.021 . S
Co140 O152 2.137 1_455 S
Co140 O153 2.244 . S
O141 Co140 2.216 1_655 S
O141 C148 1.247 . S
O142 Co140 2.091 1_655 S
O142 C148 1.261 . S
C143 O152 1.247 1_455 S
C143 O153 1.272 . S
O144 Co140 2.004 . S
O144 C149 1.259 . S
Co145 O146 2.061 . S
Co145 O151 2.052 . S
Co145 O153 2.135 . S
O146 Co145 2.061 . S
O146 C149 1.235 . S
C147 O150 1.238 . S
C147 O151 1.241 . S
C148 O141 1.247 . S
C148 O142 1.261 . S
C149 O144 1.259 . S
C149 O146 1.235 . S
O150 Co140 2.021 . S
O150 C147 1.238 . S
O151 Co145 2.052 . S
O151 C147 1.241 . S
O152 Co140 2.137 1_655 S
O152 C143 1.247 1_655 S
O153 Co140 2.244 . S
O153 C143 1.272 . S
O153 Co145 2.135 . S
Co154 O155 2.216 1_545 S
Co154 O156 2.091 1_545 S
Co154 O158 2.004 . S
Co154 O164 2.021 . S
Co154 O166 2.137 1_545 S
Co154 O167 2.244 . S
O155 Co154 2.216 1_565 S
O155 C162 1.247 . S
O156 Co154 2.091 1_565 S
O156 C162 1.261 . S
C157 O166 1.247 1_545 S
C157 O167 1.272 . S
O158 Co154 2.004 . S
O158 C163 1.259 . S
Co159 O160 2.061 . S
Co159 O165 2.052 . S
Co159 O167 2.135 . S
O160 Co159 2.061 . S
O160 C163 1.235 . S
C161 O164 1.238 . S
C161 O165 1.241 . S
C162 O155 1.247 . S
C162 O156 1.261 . S
C163 O158 1.259 . S
C163 O160 1.235 . S
O164 Co154 2.021 . S
O164 C161 1.238 . S
O165 Co159 2.052 . S
O165 C161 1.241 . S
O166 Co154 2.137 1_565 S
O166 C157 1.247 1_565 S
O167 Co154 2.244 . S
O167 C157 1.272 . S
O167 Co159 2.135 . S
Co168 O169 2.216 . S
Co168 O170 2.091 . S
Co168 O172 2.004 . S
Co168 O178 2.021 . S
Co168 O180 2.137 . S
Co168 O181 2.244 . S
O169 Co168 2.216 . S
O169 C176 1.247 . S
O170 Co168 2.091 . S
O170 C176 1.261 . S
C171 O180 1.247 . S
C171 O181 1.272 . S
O172 Co168 2.004 . S
O172 C177 1.259 . S
Co173 O174 2.061 . S
Co173 O179 2.052 . S
Co173 O181 2.135 . S
O174 Co173 2.061 . S
O174 C177 1.235 . S
C175 O178 1.238 . S
C175 O179 1.241 . S
C176 O169 1.247 . S
C176 O170 1.261 . S
C177 O172 1.259 . S
C177 O174 1.235 . S
O178 Co168 2.021 . S
O178 C175 1.238 . S
O179 Co173 2.052 . S
O179 C175 1.241 . S
O180 Co168 2.137 . S
O180 C171 1.247 . S
O181 Co168 2.244 . S
O181 C171 1.272 . S
O181 Co173 2.135 . S
Co182 O183 2.216 . S
Co182 O184 2.091 . S
Co182 O186 2.004 . S
Co182 O192 2.021 . S
Co182 O194 2.137 . S
Co182 O195 2.244 . S
O183 Co182 2.216 . S
O183 C190 1.247 . S
O184 Co182 2.091 . S
O184 C190 1.261 . S
C185 O194 1.247 . S
C185 O195 1.272 . S
O186 Co182 2.004 . S
O186 C191 1.259 . S
Co187 O188 2.061 . S
Co187 O193 2.052 . S
Co187 O195 2.135 . S
O188 Co187 2.061 . S
O188 C191 1.235 . S
C189 O192 1.238 . S
C189 O193 1.241 . S
C190 O183 1.247 . S
C190 O184 1.261 . S
C191 O186 1.259 . S
C191 O188 1.235 . S
O192 Co182 2.021 . S
O192 C189 1.238 . S
O193 Co187 2.052 . S
O193 C189 1.241 . S
O194 Co182 2.137 . S
O194 C185 1.247 . S
O195 Co182 2.244 . S
O195 C185 1.272 . S
O195 Co187 2.135 . S
Co196 O197 2.216 1_455 S
Co196 O198 2.091 1_455 S
Co196 O200 2.004 . S
Co196 O206 2.021 . S
Co196 O208 2.137 1_455 S
Co196 O209 2.244 . S
O197 Co196 2.216 1_655 S
O197 C204 1.247 . S
O198 Co196 2.091 1_655 S
O198 C204 1.261 . S
C199 O208 1.247 1_455 S
C199 O209 1.272 . S
O200 Co196 2.004 . S
O200 C205 1.259 . S
Co201 O202 2.061 . S
Co201 O207 2.052 . S
Co201 O209 2.135 . S
O202 Co201 2.061 . S
O202 C205 1.235 . S
C203 O206 1.238 . S
C203 O207 1.241 . S
C204 O197 1.247 . S
C204 O198 1.261 . S
C205 O200 1.259 . S
C205 O202 1.235 . S
O206 Co196 2.021 . S
O206 C203 1.238 . S
O207 Co201 2.052 . S
O207 C203 1.241 . S
O208 Co196 2.137 1_655 S
O208 C199 1.247 1_655 S
O209 Co196 2.244 . S
O209 C199 1.272 . S
O209 Co201 2.135 . S
Co210 O211 2.216 1_545 S
Co210 O212 2.091 1_545 S
Co210 O214 2.004 . S
Co210 O220 2.021 . S
Co210 O222 2.137 1_545 S
Co210 O223 2.244 . S
O211 Co210 2.216 1_565 S
O211 C218 1.247 . S
O212 Co210 2.091 1_565 S
O212 C218 1.261 . S
C213 O222 1.247 1_545 S
C213 O223 1.272 . S
O214 Co210 2.004 . S
O214 C219 1.259 . S
Co215 O216 2.061 . S
Co215 O221 2.052 . S
Co215 O223 2.135 . S
O216 Co215 2.061 . S
O216 C219 1.235 . S
C217 O220 1.238 . S
C217 O221 1.241 . S
C218 O211 1.247 . S
C218 O212 1.261 . S
C219 O214 1.259 . S
C219 O216 1.235 . S
O220 Co210 2.021 . S
O220 C217 1.238 . S
O221 Co215 2.052 . S
O221 C217 1.241 . S
O222 Co210 2.137 1_565 S
O222 C213 1.247 1_565 S
O223 Co210 2.244 . S
O223 C213 1.272 . S
O223 Co215 2.135 . S
H224 C230 0.930 . S
H225 C234 0.930 . S
H226 C239 0.929 . S
H227 C237 0.929 . S
H228 C232 0.929 . S
H229 C238 0.929 . S
C230 H224 0.930 . S
C230 C231 1.367 . S
C230 C238 1.378 . S
C231 C230 1.367 . S
C231 C239 1.433 . S
C232 H228 0.929 . S
C232 C234 1.378 . S
C232 C236 1.350 . S
C233 C236 1.463 . S
C233 C238 1.350 . S
C233 N241 1.427 . S
C234 H225 0.930 . S
C234 C232 1.378 . S
C234 C235 1.367 . S
C235 C234 1.367 . S
C235 C237 1.433 . S
C236 C232 1.350 . S
C236 C233 1.463 . S
C236 N240 1.427 . S
C237 H227 0.929 . S
C237 C235 1.433 . S
C237 N240 1.384 . S
C238 H229 0.929 . S
C238 C230 1.378 . S
C238 C233 1.350 . S
C239 H226 0.929 . S
C239 C231 1.433 . S
C239 N241 1.384 . S
N240 C236 1.427 . S
N240 C237 1.384 . S
N241 C233 1.427 . S
N241 C239 1.384 . S
H242 C248 0.930 . S
H243 C252 0.930 . S
H244 C257 0.929 . S
H245 C255 0.929 . S
H246 C250 0.929 . S
H247 C256 0.929 . S
C248 H242 0.930 . S
C248 C249 1.367 . S
C248 C256 1.378 . S
C249 C248 1.367 . S
C249 C257 1.433 . S
C250 H246 0.929 . S
C250 C252 1.378 . S
C250 C254 1.350 . S
C251 C254 1.463 . S
C251 C256 1.350 . S
C251 N259 1.427 . S
C252 H243 0.930 . S
C252 C250 1.378 . S
C252 C253 1.367 . S
C253 C252 1.367 . S
C253 C255 1.433 . S
C254 C250 1.350 . S
C254 C251 1.463 . S
C254 N258 1.427 . S
C255 H245 0.929 . S
C255 C253 1.433 . S
C255 N258 1.384 . S
C256 H247 0.929 . S
C256 C248 1.378 . S
C256 C251 1.350 . S
C257 H244 0.929 . S
C257 C249 1.433 . S
C257 N259 1.384 . S
N258 C254 1.427 . S
N258 C255 1.384 . S
N259 C251 1.427 . S
N259 C257 1.384 . S
H260 C266 0.930 . S
H261 C270 0.930 . S
H262 C275 0.929 . S
H263 C273 0.929 . S
H264 C268 0.929 . S
H265 C274 0.929 . S
C266 H260 0.930 . S
C266 C267 1.367 . S
C266 C274 1.378 . S
C267 C266 1.367 . S
C267 C275 1.433 . S
C268 H264 0.929 . S
C268 C270 1.378 . S
C268 C272 1.350 . S
C269 C272 1.463 . S
C269 C274 1.350 . S
C269 N277 1.427 . S
C270 H261 0.930 . S
C270 C268 1.378 . S
C270 C271 1.367 . S
C271 C270 1.367 . S
C271 C273 1.433 . S
C272 C268 1.350 . S
C272 C269 1.463 . S
C272 N276 1.427 . S
C273 H263 0.929 . S
C273 C271 1.433 . S
C273 N276 1.384 . S
C274 H265 0.929 . S
C274 C266 1.378 . S
C274 C269 1.350 . S
C275 H262 0.929 . S
C275 C267 1.433 . S
C275 N277 1.384 . S
N276 C272 1.427 . S
N276 C273 1.384 . S
N277 C269 1.427 . S
N277 C275 1.384 . S
H278 C284 0.930 . S
H279 C288 0.930 . S
H280 C293 0.929 . S
H281 C291 0.929 . S
H282 C286 0.929 . S
H283 C292 0.929 . S
C284 H278 0.930 . S
C284 C285 1.367 . S
C284 C292 1.378 . S
C285 C284 1.367 . S
C285 C293 1.433 . S
C286 H282 0.929 . S
C286 C288 1.378 . S
C286 C290 1.350 . S
C287 C290 1.463 . S
C287 C292 1.350 . S
C287 N295 1.427 . S
C288 H279 0.930 . S
C288 C286 1.378 . S
C288 C289 1.367 . S
C289 C288 1.367 . S
C289 C291 1.433 . S
C290 C286 1.350 . S
C290 C287 1.463 . S
C290 N294 1.427 . S
C291 H281 0.929 . S
C291 C289 1.433 . S
C291 N294 1.384 . S
C292 H283 0.929 . S
C292 C284 1.378 . S
C292 C287 1.350 . S
C293 H280 0.929 . S
C293 C285 1.433 . S
C293 N295 1.384 . S
N294 C290 1.427 . S
N294 C291 1.384 . S
N295 C287 1.427 . S
N295 C293 1.384 . S
H296 C302 0.930 . S
H297 C306 0.930 . S
H298 C311 0.929 . S
H299 C309 0.929 . S
H300 C304 0.929 . S
H301 C310 0.929 . S
C302 H296 0.930 . S
C302 C303 1.367 . S
C302 C310 1.378 . S
C303 C302 1.367 . S
C303 C311 1.433 . S
C304 H300 0.929 . S
C304 C306 1.378 . S
C304 C308 1.350 . S
C305 C308 1.463 . S
C305 C310 1.350 . S
C305 N313 1.427 . S
C306 H297 0.930 . S
C306 C304 1.378 . S
C306 C307 1.367 . S
C307 C306 1.367 . S
C307 C309 1.433 . S
C308 C304 1.350 . S
C308 C305 1.463 . S
C308 N312 1.427 . S
C309 H299 0.929 . S
C309 C307 1.433 . S
C309 N312 1.384 . S
C310 H301 0.929 . S
C310 C302 1.378 . S
C310 C305 1.350 . S
C311 H298 0.929 . S
C311 C303 1.433 . S
C311 N313 1.384 . S
N312 C308 1.427 . S
N312 C309 1.384 . S
N313 C305 1.427 . S
N313 C311 1.384 . S
H314 C320 0.930 . S
H315 C324 0.930 . S
H316 C329 0.929 . S
H317 C327 0.929 . S
H318 C322 0.929 . S
H319 C328 0.929 . S
C320 H314 0.930 . S
C320 C321 1.367 . S
C320 C328 1.378 . S
C321 C320 1.367 . S
C321 C329 1.433 . S
C322 H318 0.929 . S
C322 C324 1.378 . S
C322 C326 1.350 . S
C323 C326 1.463 . S
C323 C328 1.350 . S
C323 N331 1.427 . S
C324 H315 0.930 . S
C324 C322 1.378 . S
C324 C325 1.367 . S
C325 C324 1.367 . S
C325 C327 1.433 . S
C326 C322 1.350 . S
C326 C323 1.463 . S
C326 N330 1.427 . S
C327 H317 0.929 . S
C327 C325 1.433 . S
C327 N330 1.384 . S
C328 H319 0.929 . S
C328 C320 1.378 . S
C328 C323 1.350 . S
C329 H316 0.929 . S
C329 C321 1.433 . S
C329 N331 1.384 . S
N330 C326 1.427 . S
N330 C327 1.384 . S
N331 C323 1.427 . S
N331 C329 1.384 . S
H332 C338 0.930 . S
H333 C342 0.930 . S
H334 C347 0.929 . S
H335 C345 0.929 . S
H336 C340 0.929 . S
H337 C346 0.929 . S
C338 H332 0.930 . S
C338 C339 1.367 . S
C338 C346 1.378 . S
C339 C338 1.367 . S
C339 C347 1.433 . S
C340 H336 0.929 . S
C340 C342 1.378 . S
C340 C344 1.350 . S
C341 C344 1.463 . S
C341 C346 1.350 . S
C341 N349 1.427 . S
C342 H333 0.930 . S
C342 C340 1.378 . S
C342 C343 1.367 . S
C343 C342 1.367 . S
C343 C345 1.433 . S
C344 C340 1.350 . S
C344 C341 1.463 . S
C344 N348 1.427 . S
C345 H335 0.929 . S
C345 C343 1.433 . S
C345 N348 1.384 . S
C346 H337 0.929 . S
C346 C338 1.378 . S
C346 C341 1.350 . S
C347 H334 0.929 . S
C347 C339 1.433 . S
C347 N349 1.384 . S
N348 C344 1.427 . S
N348 C345 1.384 . S
N349 C341 1.427 . S
N349 C347 1.384 . S
H350 C356 0.930 . S
H351 C360 0.930 . S
H352 C365 0.929 . S
H353 C363 0.929 . S
H354 C358 0.929 . S
H355 C364 0.929 . S
C356 H350 0.930 . S
C356 C357 1.367 . S
C356 C364 1.378 . S
C357 C356 1.367 . S
C357 C365 1.433 . S
C358 H354 0.929 . S
C358 C360 1.378 . S
C358 C362 1.350 . S
C359 C362 1.463 . S
C359 C364 1.350 . S
C359 N367 1.427 . S
C360 H351 0.930 . S
C360 C358 1.378 . S
C360 C361 1.367 . S
C361 C360 1.367 . S
C361 C363 1.433 . S
C362 C358 1.350 . S
C362 C359 1.463 . S
C362 N366 1.427 . S
C363 H353 0.929 . S
C363 C361 1.433 . S
C363 N366 1.384 . S
C364 H355 0.929 . S
C364 C356 1.378 . S
C364 C359 1.350 . S
C365 H352 0.929 . S
C365 C357 1.433 . S
C365 N367 1.384 . S
N366 C362 1.427 . S
N366 C363 1.384 . S
N367 C359 1.427 . S
N367 C365 1.384 . S
H368 C374 0.930 . S
H369 C378 0.930 . S
H370 C383 0.929 . S
H371 C381 0.929 . S
H372 C376 0.929 . S
H373 C382 0.929 . S
C374 H368 0.930 . S
C374 C375 1.367 . S
C374 C382 1.378 . S
C375 C374 1.367 . S
C375 C383 1.433 . S
C376 H372 0.929 . S
C376 C378 1.378 . S
C376 C380 1.350 . S
C377 C380 1.463 . S
C377 C382 1.350 . S
C377 N385 1.427 . S
C378 H369 0.930 . S
C378 C376 1.378 . S
C378 C379 1.367 . S
C379 C378 1.367 . S
C379 C381 1.433 . S
C380 C376 1.350 . S
C380 C377 1.463 . S
C380 N384 1.427 . S
C381 H371 0.929 . S
C381 C379 1.433 . S
C381 N384 1.384 . S
C382 H373 0.929 . S
C382 C374 1.378 . S
C382 C377 1.350 . S
C383 H370 0.929 . S
C383 C375 1.433 . S
C383 N385 1.384 . S
N384 C380 1.427 . S
N384 C381 1.384 . S
N385 C377 1.427 . S
N385 C383 1.384 . S
H386 C392 0.930 . S
H387 C396 0.930 . S
H388 C401 0.929 . S
H389 C399 0.929 . S
H390 C394 0.929 . S
H391 C400 0.929 . S
C392 H386 0.930 . S
C392 C393 1.367 . S
C392 C400 1.378 . S
C393 C392 1.367 . S
C393 C401 1.433 . S
C394 H390 0.929 . S
C394 C396 1.378 . S
C394 C398 1.350 . S
C395 C398 1.463 . S
C395 C400 1.350 . S
C395 N403 1.427 . S
C396 H387 0.930 . S
C396 C394 1.378 . S
C396 C397 1.367 . S
C397 C396 1.367 . S
C397 C399 1.433 . S
C398 C394 1.350 . S
C398 C395 1.463 . S
C398 N402 1.427 . S
C399 H389 0.929 . S
C399 C397 1.433 . S
C399 N402 1.384 . S
C400 H391 0.929 . S
C400 C392 1.378 . S
C400 C395 1.350 . S
C401 H388 0.929 . S
C401 C393 1.433 . S
C401 N403 1.384 . S
N402 C398 1.427 . S
N402 C399 1.384 . S
N403 C395 1.427 . S
N403 C401 1.384 . S
H404 C410 0.930 . S
H405 C414 0.930 . S
H406 C419 0.929 . S
H407 C417 0.929 . S
H408 C412 0.929 . S
H409 C418 0.929 . S
C410 H404 0.930 . S
C410 C411 1.367 . S
C410 C418 1.378 . S
C411 C410 1.367 . S
C411 C419 1.433 . S
C412 H408 0.929 . S
C412 C414 1.378 . S
C412 C416 1.350 . S
C413 C416 1.463 . S
C413 C418 1.350 . S
C413 N421 1.427 . S
C414 H405 0.930 . S
C414 C412 1.378 . S
C414 C415 1.367 . S
C415 C414 1.367 . S
C415 C417 1.433 . S
C416 C412 1.350 . S
C416 C413 1.463 . S
C416 N420 1.427 . S
C417 H407 0.929 . S
C417 C415 1.433 . S
C417 N420 1.384 . S
C418 H409 0.929 . S
C418 C410 1.378 . S
C418 C413 1.350 . S
C419 H406 0.929 . S
C419 C411 1.433 . S
C419 N421 1.384 . S
N420 C416 1.427 . S
N420 C417 1.384 . S
N421 C413 1.427 . S
N421 C419 1.384 . S
H422 C428 0.930 . S
H423 C432 0.930 . S
H424 C437 0.929 . S
H425 C435 0.929 . S
H426 C430 0.929 . S
H427 C436 0.929 . S
C428 H422 0.930 . S
C428 C429 1.367 . S
C428 C436 1.378 . S
C429 C428 1.367 . S
C429 C437 1.433 . S
C430 H426 0.929 . S
C430 C432 1.378 . S
C430 C434 1.350 . S
C431 C434 1.463 . S
C431 C436 1.350 . S
C431 N439 1.427 . S
C432 H423 0.930 . S
C432 C430 1.378 . S
C432 C433 1.367 . S
C433 C432 1.367 . S
C433 C435 1.433 . S
C434 C430 1.350 . S
C434 C431 1.463 . S
C434 N438 1.427 . S
C435 H425 0.929 . S
C435 C433 1.433 . S
C435 N438 1.384 . S
C436 H427 0.929 . S
C436 C428 1.378 . S
C436 C431 1.350 . S
C437 H424 0.929 . S
C437 C429 1.433 . S
C437 N439 1.384 . S
N438 C434 1.427 . S
N438 C435 1.384 . S
N439 C431 1.427 . S
N439 C437 1.384 . S
H440 C446 0.930 . S
H441 C450 0.930 . S
H442 C455 0.929 . S
H443 C453 0.929 . S
H444 C448 0.929 . S
H445 C454 0.929 . S
C446 H440 0.930 . S
C446 C447 1.367 . S
C446 C454 1.378 . S
C447 C446 1.367 . S
C447 C455 1.433 . S
C448 H444 0.929 . S
C448 C450 1.378 . S
C448 C452 1.350 . S
C449 C452 1.463 . S
C449 C454 1.350 . S
C449 N457 1.427 . S
C450 H441 0.930 . S
C450 C448 1.378 . S
C450 C451 1.367 . S
C451 C450 1.367 . S
C451 C453 1.433 . S
C452 C448 1.350 . S
C452 C449 1.463 . S
C452 N456 1.427 . S
C453 H443 0.929 . S
C453 C451 1.433 . S
C453 N456 1.384 . S
C454 H445 0.929 . S
C454 C446 1.378 . S
C454 C449 1.350 . S
C455 H442 0.929 . S
C455 C447 1.433 . S
C455 N457 1.384 . S
N456 C452 1.427 . S
N456 C453 1.384 . S
N457 C449 1.427 . S
N457 C455 1.384 . S
H458 C464 0.930 . S
H459 C468 0.930 . S
H460 C473 0.929 . S
H461 C471 0.929 . S
H462 C466 0.929 . S
H463 C472 0.929 . S
C464 H458 0.930 . S
C464 C465 1.367 . S
C464 C472 1.378 . S
C465 C464 1.367 . S
C465 C473 1.433 . S
C466 H462 0.929 . S
C466 C468 1.378 . S
C466 C470 1.350 . S
C467 C470 1.463 . S
C467 C472 1.350 . S
C467 N475 1.427 . S
C468 H459 0.930 . S
C468 C466 1.378 . S
C468 C469 1.367 . S
C469 C468 1.367 . S
C469 C471 1.433 . S
C470 C466 1.350 . S
C470 C467 1.463 . S
C470 N474 1.427 . S
C471 H461 0.929 . S
C471 C469 1.433 . S
C471 N474 1.384 . S
C472 H463 0.929 . S
C472 C464 1.378 . S
C472 C467 1.350 . S
C473 H460 0.929 . S
C473 C465 1.433 . S
C473 N475 1.384 . S
N474 C470 1.427 . S
N474 C471 1.384 . S
N475 C467 1.427 . S
N475 C473 1.384 . S
H476 C482 0.930 . S
H477 C486 0.930 . S
H478 C491 0.929 . S
H479 C489 0.929 . S
H480 C484 0.929 . S
H481 C490 0.929 . S
C482 H476 0.930 . S
C482 C483 1.367 . S
C482 C490 1.378 . S
C483 C482 1.367 . S
C483 C491 1.433 . S
C484 H480 0.929 . S
C484 C486 1.378 . S
C484 C488 1.350 . S
C485 C488 1.463 . S
C485 C490 1.350 . S
C485 N493 1.427 . S
C486 H477 0.930 . S
C486 C484 1.378 . S
C486 C487 1.367 . S
C487 C486 1.367 . S
C487 C489 1.433 . S
C488 C484 1.350 . S
C488 C485 1.463 . S
C488 N492 1.427 . S
C489 H479 0.929 . S
C489 C487 1.433 . S
C489 N492 1.384 . S
C490 H481 0.929 . S
C490 C482 1.378 . S
C490 C485 1.350 . S
C491 H478 0.929 . S
C491 C483 1.433 . S
C491 N493 1.384 . S
N492 C488 1.427 . S
N492 C489 1.384 . S
N493 C485 1.427 . S
N493 C491 1.384 . S
H494 C500 0.930 . S
H495 C504 0.930 . S
H496 C509 0.929 . S
H497 C507 0.929 . S
H498 C502 0.929 . S
H499 C508 0.929 . S
C500 H494 0.930 . S
C500 C501 1.367 . S
C500 C508 1.378 . S
C501 C500 1.367 . S
C501 C509 1.433 . S
C502 H498 0.929 . S
C502 C504 1.378 . S
C502 C506 1.350 . S
C503 C506 1.463 . S
C503 C508 1.350 . S
C503 N511 1.427 . S
C504 H495 0.930 . S
C504 C502 1.378 . S
C504 C505 1.367 . S
C505 C504 1.367 . S
C505 C507 1.433 . S
C506 C502 1.350 . S
C506 C503 1.463 . S
C506 N510 1.427 . S
C507 H497 0.929 . S
C507 C505 1.433 . S
C507 N510 1.384 . S
C508 H499 0.929 . S
C508 C500 1.378 . S
C508 C503 1.350 . S
C509 H496 0.929 . S
C509 C501 1.433 . S
C509 N511 1.384 . S
N510 C506 1.427 . S
N510 C507 1.384 . S
N511 C503 1.427 . S
N511 C509 1.384 . S
H512 C518 0.930 . S
H513 C522 0.930 . S
H514 C527 0.929 . S
H515 C525 0.929 . S
H516 C520 0.929 . S
H517 C526 0.929 . S
C518 H512 0.930 . S
C518 C519 1.367 . S
C518 C526 1.378 . S
C519 C518 1.367 . S
C519 C527 1.433 . S
C520 H516 0.929 . S
C520 C522 1.378 . S
C520 C524 1.350 . S
C521 C524 1.463 . S
C521 C526 1.350 . S
C521 N529 1.427 . S
C522 H513 0.930 . S
C522 C520 1.378 . S
C522 C523 1.367 . S
C523 C522 1.367 . S
C523 C525 1.433 . S
C524 C520 1.350 . S
C524 C521 1.463 . S
C524 N528 1.427 . S
C525 H515 0.929 . S
C525 C523 1.433 . S
C525 N528 1.384 . S
C526 H517 0.929 . S
C526 C518 1.378 . S
C526 C521 1.350 . S
C527 H514 0.929 . S
C527 C519 1.433 . S
C527 N529 1.384 . S
N528 C524 1.427 . S
N528 C525 1.384 . S
N529 C521 1.427 . S
N529 C527 1.384 . S
H530 C536 0.930 . S
H531 C540 0.930 . S
H532 C545 0.929 . S
H533 C543 0.929 . S
H534 C538 0.929 . S
H535 C544 0.929 . S
C536 H530 0.930 . S
C536 C537 1.367 . S
C536 C544 1.378 . S
C537 C536 1.367 . S
C537 C545 1.433 . S
C538 H534 0.929 . S
C538 C540 1.378 . S
C538 C542 1.350 . S
C539 C542 1.463 . S
C539 C544 1.350 . S
C539 N547 1.427 . S
C540 H531 0.930 . S
C540 C538 1.378 . S
C540 C541 1.367 . S
C541 C540 1.367 . S
C541 C543 1.433 . S
C542 C538 1.350 . S
C542 C539 1.463 . S
C542 N546 1.427 . S
C543 H533 0.929 . S
C543 C541 1.433 . S
C543 N546 1.384 . S
C544 H535 0.929 . S
C544 C536 1.378 . S
C544 C539 1.350 . S
C545 H532 0.929 . S
C545 C537 1.433 . S
C545 N547 1.384 . S
N546 C542 1.427 . S
N546 C543 1.384 . S
N547 C539 1.427 . S
N547 C545 1.384 . S
H548 C554 0.930 . S
H549 C558 0.930 . S
H550 C563 0.929 . S
H551 C561 0.929 . S
H552 C556 0.929 . S
H553 C562 0.929 . S
C554 H548 0.930 . S
C554 C555 1.367 . S
C554 C562 1.378 . S
C555 C554 1.367 . S
C555 C563 1.433 . S
C556 H552 0.929 . S
C556 C558 1.378 . S
C556 C560 1.350 . S
C557 C560 1.463 . S
C557 C562 1.350 . S
C557 N565 1.427 . S
C558 H549 0.930 . S
C558 C556 1.378 . S
C558 C559 1.367 . S
C559 C558 1.367 . S
C559 C561 1.433 . S
C560 C556 1.350 . S
C560 C557 1.463 . S
C560 N564 1.427 . S
C561 H551 0.929 . S
C561 C559 1.433 . S
C561 N564 1.384 . S
C562 H553 0.929 . S
C562 C554 1.378 . S
C562 C557 1.350 . S
C563 H550 0.929 . S
C563 C555 1.433 . S
C563 N565 1.384 . S
N564 C560 1.427 . S
N564 C561 1.384 . S
N565 C557 1.427 . S
N565 C563 1.384 . S
H566 C572 0.930 . S
H567 C576 0.930 . S
H568 C581 0.929 . S
H569 C579 0.929 . S
H570 C574 0.929 . S
H571 C580 0.929 . S
C572 H566 0.930 . S
C572 C573 1.367 . S
C572 C580 1.378 . S
C573 C572 1.367 . S
C573 C581 1.433 . S
C574 H570 0.929 . S
C574 C576 1.378 . S
C574 C578 1.350 . S
C575 C578 1.463 . S
C575 C580 1.350 . S
C575 N583 1.427 . S
C576 H567 0.930 . S
C576 C574 1.378 . S
C576 C577 1.367 . S
C577 C576 1.367 . S
C577 C579 1.433 . S
C578 C574 1.350 . S
C578 C575 1.463 . S
C578 N582 1.427 . S
C579 H569 0.929 . S
C579 C577 1.433 . S
C579 N582 1.384 . S
C580 H571 0.929 . S
C580 C572 1.378 . S
C580 C575 1.350 . S
C581 H568 0.929 . S
C581 C573 1.433 . S
C581 N583 1.384 . S
N582 C578 1.427 . S
N582 C579 1.384 . S
N583 C575 1.427 . S
N583 C581 1.384 . S
H584 C590 0.930 . S
H585 C594 0.930 . S
H586 C599 0.929 . S
H587 C597 0.929 . S
H588 C592 0.929 . S
H589 C598 0.929 . S
C590 H584 0.930 . S
C590 C591 1.367 . S
C590 C598 1.378 . S
C591 C590 1.367 . S
C591 C599 1.433 . S
C592 H588 0.929 . S
C592 C594 1.378 . S
C592 C596 1.350 . S
C593 C596 1.463 . S
C593 C598 1.350 . S
C593 N601 1.427 . S
C594 H585 0.930 . S
C594 C592 1.378 . S
C594 C595 1.367 . S
C595 C594 1.367 . S
C595 C597 1.433 . S
C596 C592 1.350 . S
C596 C593 1.463 . S
C596 N600 1.427 . S
C597 H587 0.929 . S
C597 C595 1.433 . S
C597 N600 1.384 . S
C598 H589 0.929 . S
C598 C590 1.378 . S
C598 C593 1.350 . S
C599 H586 0.929 . S
C599 C591 1.433 . S
C599 N601 1.384 . S
N600 C596 1.427 . S
N600 C597 1.384 . S
N601 C593 1.427 . S
N601 C599 1.384 . S
H602 C608 0.930 . S
H603 C612 0.930 . S
H604 C617 0.929 . S
H605 C615 0.929 . S
H606 C610 0.929 . S
H607 C616 0.929 . S
C608 H602 0.930 . S
C608 C609 1.367 . S
C608 C616 1.378 . S
C609 C608 1.367 . S
C609 C617 1.433 . S
C610 H606 0.929 . S
C610 C612 1.378 . S
C610 C614 1.350 . S
C611 C614 1.463 . S
C611 C616 1.350 . S
C611 N619 1.427 . S
C612 H603 0.930 . S
C612 C610 1.378 . S
C612 C613 1.367 . S
C613 C612 1.367 . S
C613 C615 1.433 . S
C614 C610 1.350 . S
C614 C611 1.463 . S
C614 N618 1.427 . S
C615 H605 0.929 . S
C615 C613 1.433 . S
C615 N618 1.384 . S
C616 H607 0.929 . S
C616 C608 1.378 . S
C616 C611 1.350 . S
C617 H604 0.929 . S
C617 C609 1.433 . S
C617 N619 1.384 . S
N618 C614 1.427 . S
N618 C615 1.384 . S
N619 C611 1.427 . S
N619 C617 1.384 . S
H620 C626 0.930 . S
H621 C630 0.930 . S
H622 C635 0.929 . S
H623 C633 0.929 . S
H624 C628 0.929 . S
H625 C634 0.929 . S
C626 H620 0.930 . S
C626 C627 1.367 . S
C626 C634 1.378 . S
C627 C626 1.367 . S
C627 C635 1.433 . S
C628 H624 0.929 . S
C628 C630 1.378 . S
C628 C632 1.350 . S
C629 C632 1.463 . S
C629 C634 1.350 . S
C629 N637 1.427 . S
C630 H621 0.930 . S
C630 C628 1.378 . S
C630 C631 1.367 . S
C631 C630 1.367 . S
C631 C633 1.433 . S
C632 C628 1.350 . S
C632 C629 1.463 . S
C632 N636 1.427 . S
C633 H623 0.929 . S
C633 C631 1.433 . S
C633 N636 1.384 . S
C634 H625 0.929 . S
C634 C626 1.378 . S
C634 C629 1.350 . S
C635 H622 0.929 . S
C635 C627 1.433 . S
C635 N637 1.384 . S
N636 C632 1.427 . S
N636 C633 1.384 . S
N637 C629 1.427 . S
N637 C635 1.384 . S
H638 C644 0.930 . S
H639 C648 0.930 . S
H640 C653 0.929 . S
H641 C651 0.929 . S
H642 C646 0.929 . S
H643 C652 0.929 . S
C644 H638 0.930 . S
C644 C645 1.367 . S
C644 C652 1.378 . S
C645 C644 1.367 . S
C645 C653 1.433 . S
C646 H642 0.929 . S
C646 C648 1.378 . S
C646 C650 1.350 . S
C647 C650 1.463 . S
C647 C652 1.350 . S
C647 N655 1.427 . S
C648 H639 0.930 . S
C648 C646 1.378 . S
C648 C649 1.367 . S
C649 C648 1.367 . S
C649 C651 1.433 . S
C650 C646 1.350 . S
C650 C647 1.463 . S
C650 N654 1.427 . S
C651 H641 0.929 . S
C651 C649 1.433 . S
C651 N654 1.384 . S
C652 H643 0.929 . S
C652 C644 1.378 . S
C652 C647 1.350 . S
C653 H640 0.929 . S
C653 C645 1.433 . S
C653 N655 1.384 . S
N654 C650 1.427 . S
N654 C651 1.384 . S
N655 C647 1.427 . S
N655 C653 1.384 . S
H656 C662 0.930 . S
H657 C666 0.930 . S
H658 C671 0.929 . S
H659 C669 0.929 . S
H660 C664 0.929 . S
H661 C670 0.929 . S
C662 H656 0.930 . S
C662 C663 1.367 . S
C662 C670 1.378 . S
C663 C662 1.367 . S
C663 C671 1.433 . S
C664 H660 0.929 . S
C664 C666 1.378 . S
C664 C668 1.350 . S
C665 C668 1.463 1_554 S
C665 C670 1.350 . S
C665 N673 1.427 . S
C666 H657 0.930 . S
C666 C664 1.378 . S
C666 C667 1.367 . S
C667 C666 1.367 . S
C667 C669 1.433 . S
C668 C664 1.350 . S
C668 C665 1.463 1_556 S
C668 N672 1.427 . S
C669 H659 0.929 . S
C669 C667 1.433 . S
C669 N672 1.384 . S
C670 H661 0.929 . S
C670 C662 1.378 . S
C670 C665 1.350 . S
C671 H658 0.929 . S
C671 C663 1.433 . S
C671 N673 1.384 . S
N672 C668 1.427 . S
N672 C669 1.384 . S
N673 C665 1.427 . S
N673 C671 1.384 . S
H674 C680 0.930 . S
H675 C684 0.930 . S
H676 C689 0.929 . S
H677 C687 0.929 . S
H678 C682 0.929 . S
H679 C688 0.929 . S
C680 H674 0.930 . S
C680 C681 1.367 . S
C680 C688 1.378 . S
C681 C680 1.367 . S
C681 C689 1.433 . S
C682 H678 0.929 . S
C682 C684 1.378 . S
C682 C686 1.350 . S
C683 C686 1.463 . S
C683 C688 1.350 . S
C683 N691 1.427 . S
C684 H675 0.930 . S
C684 C682 1.378 . S
C684 C685 1.367 . S
C685 C684 1.367 . S
C685 C687 1.433 . S
C686 C682 1.350 . S
C686 C683 1.463 . S
C686 N690 1.427 . S
C687 H677 0.929 . S
C687 C685 1.433 . S
C687 N690 1.384 . S
C688 H679 0.929 . S
C688 C680 1.378 . S
C688 C683 1.350 . S
C689 H676 0.929 . S
C689 C681 1.433 . S
C689 N691 1.384 . S
N690 C686 1.427 . S
N690 C687 1.384 . S
N691 C683 1.427 . S
N691 C689 1.384 . S
H692 C698 0.930 . S
H693 C702 0.930 . S
H694 C707 0.929 . S
H695 C705 0.929 . S
H696 C700 0.929 . S
H697 C706 0.929 . S
C698 H692 0.930 . S
C698 C699 1.367 1_455 S
C698 C706 1.378 . S
C699 C698 1.367 1_655 S
C699 C707 1.433 . S
C700 H696 0.929 . S
C700 C702 1.378 . S
C700 C704 1.350 . S
C701 C704 1.463 1_554 S
C701 C706 1.350 1_655 S
C701 N709 1.427 . S
C702 H693 0.930 . S
C702 C700 1.378 . S
C702 C703 1.367 . S
C703 C702 1.367 . S
C703 C705 1.433 1_655 S
C704 C700 1.350 . S
C704 C701 1.463 1_556 S
C704 N708 1.427 1_655 S
C705 H695 0.929 . S
C705 C703 1.433 1_455 S
C705 N708 1.384 . S
C706 H697 0.929 . S
C706 C698 1.378 . S
C706 C701 1.350 1_455 S
C707 H694 0.929 . S
C707 C699 1.433 . S
C707 N709 1.384 . S
N708 C704 1.427 1_455 S
N708 C705 1.384 . S
N709 C701 1.427 . S
N709 C707 1.384 . S
H710 C716 0.930 . S
H711 C720 0.930 . S
H712 C725 0.929 . S
H713 C723 0.929 . S
H714 C718 0.929 . S
H715 C724 0.929 . S
C716 H710 0.930 . S
C716 C717 1.367 1_545 S
C716 C724 1.378 . S
C717 C716 1.367 1_565 S
C717 C725 1.433 . S
C718 H714 0.929 . S
C718 C720 1.378 . S
C718 C722 1.350 . S
C719 C722 1.463 . S
C719 C724 1.350 1_565 S
C719 N727 1.427 . S
C720 H711 0.930 . S
C720 C718 1.378 . S
C720 C721 1.367 . S
C721 C720 1.367 . S
C721 C723 1.433 1_565 S
C722 C718 1.350 . S
C722 C719 1.463 . S
C722 N726 1.427 1_565 S
C723 H713 0.929 . S
C723 C721 1.433 1_545 S
C723 N726 1.384 . S
C724 H715 0.929 . S
C724 C716 1.378 . S
C724 C719 1.350 1_545 S
C725 H712 0.929 . S
C725 C717 1.433 . S
C725 N727 1.384 . S
N726 C722 1.427 1_545 S
N726 C723 1.384 . S
N727 C719 1.427 . S
N727 C725 1.384 . S
H728 C734 0.930 . S
H729 C738 0.930 . S
H730 C743 0.929 . S
H731 C741 0.929 . S
H732 C736 0.929 . S
H733 C742 0.929 . S
C734 H728 0.930 . S
C734 C735 1.367 . S
C734 C742 1.378 . S
C735 C734 1.367 . S
C735 C743 1.433 . S
C736 H732 0.929 . S
C736 C738 1.378 . S
C736 C740 1.350 . S
C737 C740 1.463 1_556 S
C737 C742 1.350 . S
C737 N745 1.427 . S
C738 H729 0.930 . S
C738 C736 1.378 . S
C738 C739 1.367 . S
C739 C738 1.367 . S
C739 C741 1.433 . S
C740 C736 1.350 . S
C740 C737 1.463 1_554 S
C740 N744 1.427 . S
C741 H731 0.929 . S
C741 C739 1.433 . S
C741 N744 1.384 . S
C742 H733 0.929 . S
C742 C734 1.378 . S
C742 C737 1.350 . S
C743 H730 0.929 . S
C743 C735 1.433 . S
C743 N745 1.384 . S
N744 C740 1.427 . S
N744 C741 1.384 . S
N745 C737 1.427 . S
N745 C743 1.384 . S
H746 C752 0.930 . S
H747 C756 0.930 . S
H748 C761 0.929 . S
H749 C759 0.929 . S
H750 C754 0.929 . S
H751 C760 0.929 . S
C752 H746 0.930 . S
C752 C753 1.367 . S
C752 C760 1.378 . S
C753 C752 1.367 . S
C753 C761 1.433 . S
C754 H750 0.929 . S
C754 C756 1.378 . S
C754 C758 1.350 . S
C755 C758 1.463 . S
C755 C760 1.350 . S
C755 N763 1.427 . S
C756 H747 0.930 . S
C756 C754 1.378 . S
C756 C757 1.367 . S
C757 C756 1.367 . S
C757 C759 1.433 . S
C758 C754 1.350 . S
C758 C755 1.463 . S
C758 N762 1.427 . S
C759 H749 0.929 . S
C759 C757 1.433 . S
C759 N762 1.384 . S
C760 H751 0.929 . S
C760 C752 1.378 . S
C760 C755 1.350 . S
C761 H748 0.929 . S
C761 C753 1.433 . S
C761 N763 1.384 . S
N762 C758 1.427 . S
N762 C759 1.384 . S
N763 C755 1.427 . S
N763 C761 1.384 . S
H764 C770 0.930 . S
H765 C774 0.930 . S
H766 C779 0.929 . S
H767 C777 0.929 . S
H768 C772 0.929 . S
H769 C778 0.929 . S
C770 H764 0.930 . S
C770 C771 1.367 . S
C770 C778 1.378 . S
C771 C770 1.367 . S
C771 C779 1.433 1_455 S
C772 H768 0.929 . S
C772 C774 1.378 . S
C772 C776 1.350 1_655 S
C773 C776 1.463 1_554 S
C773 C778 1.350 . S
C773 N781 1.427 1_455 S
C774 H765 0.930 . S
C774 C772 1.378 . S
C774 C775 1.367 1_655 S
C775 C774 1.367 1_455 S
C775 C777 1.433 . S
C776 C772 1.350 1_455 S
C776 C773 1.463 1_556 S
C776 N780 1.427 . S
C777 H767 0.929 . S
C777 C775 1.433 . S
C777 N780 1.384 . S
C778 H769 0.929 . S
C778 C770 1.378 . S
C778 C773 1.350 . S
C779 H766 0.929 . S
C779 C771 1.433 1_655 S
C779 N781 1.384 . S
N780 C776 1.427 . S
N780 C777 1.384 . S
N781 C773 1.427 1_655 S
N781 C779 1.384 . S
H782 C788 0.930 . S
H783 C792 0.930 . S
H784 C797 0.929 . S
H785 C795 0.929 . S
H786 C790 0.929 . S
H787 C796 0.929 . S
C788 H782 0.930 . S
C788 C789 1.367 1_565 S
C788 C796 1.378 . S
C789 C788 1.367 1_545 S
C789 C797 1.433 . S
C790 H786 0.929 . S
C790 C792 1.378 . S
C790 C794 1.350 . S
C791 C794 1.463 . S
C791 C796 1.350 1_545 S
C791 N799 1.427 . S
C792 H783 0.930 . S
C792 C790 1.378 . S
C792 C793 1.367 . S
C793 C792 1.367 . S
C793 C795 1.433 1_545 S
C794 C790 1.350 . S
C794 C791 1.463 . S
C794 N798 1.427 1_545 S
C795 H785 0.929 . S
C795 C793 1.433 1_565 S
C795 N798 1.384 . S
C796 H787 0.929 . S
C796 C788 1.378 . S
C796 C791 1.350 1_565 S
C797 H784 0.929 . S
C797 C789 1.433 . S
C797 N799 1.384 . S
N798 C794 1.427 1_565 S
N798 C795 1.384 . S
N799 C791 1.427 . S
N799 C797 1.384 . S
C231 C8 1.320 . S
C235 C106 1.317 . S
C249 C22 1.319 . S
C253 C64 1.317 . S
C267 C36 1.316 . S
C271 C78 1.318 . S
C285 C50 1.318 . S
C289 C92 1.316 . S
C303 C120 1.317 . S
C307 C218 1.317 . S
C321 C176 1.317 . S
C325 C134 1.319 . S
C339 C148 1.319 . S
C343 C190 1.316 . S
C357 C162 1.319 . S
C361 C204 1.317 . S
C375 C9 1.429 . S
C379 C133 1.449 . S
C393 C23 1.420 . S
C397 C147 1.445 . S
C411 C161 1.436 . S
C415 C37 1.430 . S
C429 C51 1.424 . S
C433 C119 1.437 . S
C447 C65 1.425 . S
C451 C217 1.437 . S
C465 C175 1.442 . S
C469 C79 1.420 . S
C483 C189 1.449 . S
C487 C93 1.428 . S
C501 C203 1.439 . S
C505 C107 1.422 . S
C519 C21 1.437 . S
C523 C121 1.424 . S
C537 C35 1.441 . S
C541 C135 1.435 . S
C555 C149 1.435 . S
C559 C49 1.444 . S
C573 C7 1.436 . S
C577 C163 1.430 . S
C591 C177 1.422 . S
C595 C105 1.448 . S
C609 C191 1.422 . S
C613 C63 1.440 . S
C627 C77 1.438 . S
C631 C205 1.424 . S
C645 C91 1.449 . S
C649 C219 1.427 . S
C663 C3 1.607 . S
C667 C59 1.608 . S
C681 C73 1.609 . S
C685 C17 1.607 . S
C699 C31 1.607 . S
C703 C87 1.606 . S
C717 C101 1.608 . S
C721 C45 1.606 . S
C735 C115 1.606 . S
C739 C171 1.607 . S
C753 C185 1.608 . S
C757 C129 1.606 . S
C771 C199 1.606 . S
C775 C143 1.608 . S
C789 C213 1.608 . S
C793 C157 1.606 . S
