# Generated by pormake.
# Topology uos, (4)-cn, num edge types: 1
# Building blocks:
#     Node 0, Type 0, BuildingBlock: AZAVOO_clean_sbu_0, # of connection points: 4
#     Node 1, Type 0, BuildingBlock: AZAVOO_clean_sbu_0, # of connection points: 4
#     Node 2, Type 0, BuildingBlock: AZAVOO_clean_sbu_0, # of connection points: 4
#     Node 3, Type 0, BuildingBlock: AZAVOO_clean_sbu_0, # of connection points: 4
#     Node 4, Type 0, BuildingBlock: AZAVOO_clean_sbu_0, # of connection points: 4
#     Node 5, Type 0, BuildingBlock: AZAVOO_clean_sbu_0, # of connection points: 4
#     Node 6, Type 0, BuildingBlock: AZAVOO_clean_sbu_0, # of connection points: 4
#     Node 7, Type 0, BuildingBlock: AZAVOO_clean_sbu_0, # of connection points: 4
#     Node 8, Type 0, BuildingBlock: AZAVOO_clean_sbu_0, # of connection points: 4
#     Node 9, Type 0, BuildingBlock: AZAVOO_clean_sbu_0, # of connection points: 4
#     Node 10, Type 0, BuildingBlock: AZAVOO_clean_sbu_0, # of connection points: 4
#     Node 11, Type 0, BuildingBlock: AZAVOO_clean_sbu_0, # of connection points: 4
#     Node 12, Type 0, BuildingBlock: AZAVOO_clean_sbu_0, # of connection points: 4
#     Node 13, Type 0, BuildingBlock: AZAVOO_clean_sbu_0, # of connection points: 4
#     Node 14, Type 0, BuildingBlock: AZAVOO_clean_sbu_0, # of connection points: 4
#     Node 15, Type 0, BuildingBlock: AZAVOO_clean_sbu_0, # of connection points: 4
#     Node 16, Type 0, BuildingBlock: AZAVOO_clean_sbu_0, # of connection points: 4
#     Node 17, Type 0, BuildingBlock: AZAVOO_clean_sbu_0, # of connection points: 4
#     Node 18, Type 0, BuildingBlock: AZAVOO_clean_sbu_0, # of connection points: 4
#     Node 19, Type 0, BuildingBlock: AZAVOO_clean_sbu_0, # of connection points: 4
#     Node 20, Type 0, BuildingBlock: AZAVOO_clean_sbu_0, # of connection points: 4
#     Node 21, Type 0, BuildingBlock: AZAVOO_clean_sbu_0, # of connection points: 4
#     Node 22, Type 0, BuildingBlock: AZAVOO_clean_sbu_0, # of connection points: 4
#     Node 23, Type 0, BuildingBlock: AZAVOO_clean_sbu_0, # of connection points: 4
#     Node 24, Type 0, BuildingBlock: AZAVOO_clean_sbu_0, # of connection points: 4
#     Node 25, Type 0, BuildingBlock: AZAVOO_clean_sbu_0, # of connection points: 4
#     Node 26, Type 0, BuildingBlock: AZAVOO_clean_sbu_0, # of connection points: 4
#     Node 27, Type 0, BuildingBlock: AZAVOO_clean_sbu_0, # of connection points: 4
#     Node 28, Type 0, BuildingBlock: AZAVOO_clean_sbu_0, # of connection points: 4
#     Node 29, Type 0, BuildingBlock: AZAVOO_clean_sbu_0, # of connection points: 4
#     Node 30, Type 0, BuildingBlock: AZAVOO_clean_sbu_0, # of connection points: 4
#     Node 31, Type 0, BuildingBlock: AZAVOO_clean_sbu_0, # of connection points: 4
#     Edge 32, Type (0, 0), BuildingBlock: UVAHIK_clean_linker_0, # of connection points: 2
#     Edge 33, Type (0, 0), BuildingBlock: UVAHIK_clean_linker_0, # of connection points: 2
#     Edge 34, Type (0, 0), BuildingBlock: UVAHIK_clean_linker_0, # of connection points: 2
#     Edge 35, Type (0, 0), BuildingBlock: UVAHIK_clean_linker_0, # of connection points: 2
#     Edge 36, Type (0, 0), BuildingBlock: UVAHIK_clean_linker_0, # of connection points: 2
#     Edge 37, Type (0, 0), BuildingBlock: UVAHIK_clean_linker_0, # of connection points: 2
#     Edge 38, Type (0, 0), BuildingBlock: UVAHIK_clean_linker_0, # of connection points: 2
#     Edge 39, Type (0, 0), BuildingBlock: UVAHIK_clean_linker_0, # of connection points: 2
#     Edge 40, Type (0, 0), BuildingBlock: UVAHIK_clean_linker_0, # of connection points: 2
#     Edge 41, Type (0, 0), BuildingBlock: UVAHIK_clean_linker_0, # of connection points: 2
#     Edge 42, Type (0, 0), BuildingBlock: UVAHIK_clean_linker_0, # of connection points: 2
#     Edge 43, Type (0, 0), BuildingBlock: UVAHIK_clean_linker_0, # of connection points: 2
#     Edge 44, Type (0, 0), BuildingBlock: UVAHIK_clean_linker_0, # of connection points: 2
#     Edge 45, Type (0, 0), BuildingBlock: UVAHIK_clean_linker_0, # of connection points: 2
#     Edge 46, Type (0, 0), BuildingBlock: UVAHIK_clean_linker_0, # of connection points: 2
#     Edge 47, Type (0, 0), BuildingBlock: UVAHIK_clean_linker_0, # of connection points: 2
#     Edge 48, Type (0, 0), BuildingBlock: UVAHIK_clean_linker_0, # of connection points: 2
#     Edge 49, Type (0, 0), BuildingBlock: UVAHIK_clean_linker_0, # of connection points: 2
#     Edge 50, Type (0, 0), BuildingBlock: UVAHIK_clean_linker_0, # of connection points: 2
#     Edge 51, Type (0, 0), BuildingBlock: UVAHIK_clean_linker_0, # of connection points: 2
#     Edge 52, Type (0, 0), BuildingBlock: UVAHIK_clean_linker_0, # of connection points: 2
#     Edge 53, Type (0, 0), BuildingBlock: UVAHIK_clean_linker_0, # of connection points: 2
#     Edge 54, Type (0, 0), BuildingBlock: UVAHIK_clean_linker_0, # of connection points: 2
#     Edge 55, Type (0, 0), BuildingBlock: UVAHIK_clean_linker_0, # of connection points: 2
#     Edge 56, Type (0, 0), BuildingBlock: UVAHIK_clean_linker_0, # of connection points: 2
#     Edge 57, Type (0, 0), BuildingBlock: UVAHIK_clean_linker_0, # of connection points: 2
#     Edge 58, Type (0, 0), BuildingBlock: UVAHIK_clean_linker_0, # of connection points: 2
#     Edge 59, Type (0, 0), BuildingBlock: UVAHIK_clean_linker_0, # of connection points: 2
#     Edge 60, Type (0, 0), BuildingBlock: UVAHIK_clean_linker_0, # of connection points: 2
#     Edge 61, Type (0, 0), BuildingBlock: UVAHIK_clean_linker_0, # of connection points: 2
#     Edge 62, Type (0, 0), BuildingBlock: UVAHIK_clean_linker_0, # of connection points: 2
#     Edge 63, Type (0, 0), BuildingBlock: UVAHIK_clean_linker_0, # of connection points: 2
#     Edge 64, Type (0, 0), BuildingBlock: UVAHIK_clean_linker_0, # of connection points: 2
#     Edge 65, Type (0, 0), BuildingBlock: UVAHIK_clean_linker_0, # of connection points: 2
#     Edge 66, Type (0, 0), BuildingBlock: UVAHIK_clean_linker_0, # of connection points: 2
#     Edge 67, Type (0, 0), BuildingBlock: UVAHIK_clean_linker_0, # of connection points: 2
#     Edge 68, Type (0, 0), BuildingBlock: UVAHIK_clean_linker_0, # of connection points: 2
#     Edge 69, Type (0, 0), BuildingBlock: UVAHIK_clean_linker_0, # of connection points: 2
#     Edge 70, Type (0, 0), BuildingBlock: UVAHIK_clean_linker_0, # of connection points: 2
#     Edge 71, Type (0, 0), BuildingBlock: UVAHIK_clean_linker_0, # of connection points: 2
#     Edge 72, Type (0, 0), BuildingBlock: UVAHIK_clean_linker_0, # of connection points: 2
#     Edge 73, Type (0, 0), BuildingBlock: UVAHIK_clean_linker_0, # of connection points: 2
#     Edge 74, Type (0, 0), BuildingBlock: UVAHIK_clean_linker_0, # of connection points: 2
#     Edge 75, Type (0, 0), BuildingBlock: UVAHIK_clean_linker_0, # of connection points: 2
#     Edge 76, Type (0, 0), BuildingBlock: UVAHIK_clean_linker_0, # of connection points: 2
#     Edge 77, Type (0, 0), BuildingBlock: UVAHIK_clean_linker_0, # of connection points: 2
#     Edge 78, Type (0, 0), BuildingBlock: UVAHIK_clean_linker_0, # of connection points: 2
#     Edge 79, Type (0, 0), BuildingBlock: UVAHIK_clean_linker_0, # of connection points: 2
#     Edge 80, Type (0, 0), BuildingBlock: UVAHIK_clean_linker_0, # of connection points: 2
#     Edge 81, Type (0, 0), BuildingBlock: UVAHIK_clean_linker_0, # of connection points: 2
#     Edge 82, Type (0, 0), BuildingBlock: UVAHIK_clean_linker_0, # of connection points: 2
#     Edge 83, Type (0, 0), BuildingBlock: UVAHIK_clean_linker_0, # of connection points: 2
#     Edge 84, Type (0, 0), BuildingBlock: UVAHIK_clean_linker_0, # of connection points: 2
#     Edge 85, Type (0, 0), BuildingBlock: UVAHIK_clean_linker_0, # of connection points: 2
#     Edge 86, Type (0, 0), BuildingBlock: UVAHIK_clean_linker_0, # of connection points: 2
#     Edge 87, Type (0, 0), BuildingBlock: UVAHIK_clean_linker_0, # of connection points: 2
#     Edge 88, Type (0, 0), BuildingBlock: UVAHIK_clean_linker_0, # of connection points: 2
#     Edge 89, Type (0, 0), BuildingBlock: UVAHIK_clean_linker_0, # of connection points: 2
#     Edge 90, Type (0, 0), BuildingBlock: UVAHIK_clean_linker_0, # of connection points: 2
#     Edge 91, Type (0, 0), BuildingBlock: UVAHIK_clean_linker_0, # of connection points: 2
#     Edge 92, Type (0, 0), BuildingBlock: UVAHIK_clean_linker_0, # of connection points: 2
#     Edge 93, Type (0, 0), BuildingBlock: UVAHIK_clean_linker_0, # of connection points: 2
#     Edge 94, Type (0, 0), BuildingBlock: UVAHIK_clean_linker_0, # of connection points: 2
#     Edge 95, Type (0, 0), BuildingBlock: UVAHIK_clean_linker_0, # of connection points: 2
# Relax obj value: 0.089
# Max RMSD: 0.115
# Mean RMSD: 0.115
data_MOF--net-uos--node1-AZAVOO_clean_sbu_0--edge1-UVAHIK_clean_linker_0
_symmetry_space_group_name_H-M    P1
_symmetry_Int_Tables_number       1
_symmetry_cell_setting            triclinic
loop_
_symmetry_equiv_pos_as_xyz
'x, y, z'
_cell_length_a     112.08645
_cell_length_b     111.71649
_cell_length_c     31.130068
_cell_angle_alpha  89.770248
_cell_angle_beta   90.132507
_cell_angle_gamma 90.13186
loop_
_atom_site_label
_atom_site_type_symbol
_atom_site_fract_x
_atom_site_fract_y
_atom_site_fract_z
_atom_type_partial_charge
Mg0 Mg 0.15291 0.14581 0.10204 0.0
O1 O 0.14353 0.13865 0.16352 0.0
O2 O 0.15206 0.148 0.2191 0.0
Mg3 Mg 0.16624 0.16105 0.19496 0.0
C4 C 0.14454 0.14051 0.20395 0.0
C5 C 0.13877 0.12616 0.04993 0.0
O6 O 0.14624 0.11927 0.07116 0.0
O7 O 0.14259 0.1636 0.10583 0.0
O8 O 0.15167 0.1722 0.16194 0.0
O9 O 0.1676 0.13203 0.10948 0.0
O10 O 0.16815 0.15009 0.13736 0.0
C11 C 0.14395 0.17239 0.13168 0.0
C12 C 0.17318 0.13987 0.13261 0.0
O13 O 0.13884 0.13736 0.05725 0.0
Mg14 Mg 0.06866 0.90538 0.35787 0.0
O15 O 0.0762 0.89503 0.41733 0.0
O16 O 0.06714 0.9031 0.47428 0.0
Mg17 Mg 0.05447 0.91798 0.4539 0.0
C18 C 0.07443 0.89562 0.45798 0.0
C19 C 0.08705 0.88991 0.30344 0.0
O20 O 0.09476 0.8951 0.32925 0.0
O21 O 0.05071 0.89536 0.36268 0.0
O22 O 0.04263 0.90415 0.42001 0.0
O23 O 0.08291 0.9196 0.3636 0.0
O24 O 0.0656 0.9203 0.39674 0.0
C25 C 0.04209 0.89671 0.38903 0.0
C26 C 0.0759 0.92505 0.39006 0.0
O27 O 0.07596 0.8918 0.30893 0.0
Mg28 Mg 0.30833 0.82168 0.60946 0.0
O29 O 0.31806 0.82871 0.67041 0.0
O30 O 0.30982 0.81933 0.72661 0.0
Mg31 Mg 0.29562 0.80622 0.70337 0.0
C32 C 0.31726 0.82683 0.71093 0.0
C33 C 0.31859 0.83931 0.54166 0.0
O34 O 0.30767 0.84325 0.5473 0.0
O35 O 0.31874 0.80389 0.61236 0.0
O36 O 0.31016 0.79534 0.66975 0.0
O37 O 0.29366 0.8354 0.61836 0.0
O38 O 0.29329 0.81723 0.64576 0.0
C39 C 0.31766 0.79518 0.6389 0.0
C40 C 0.28823 0.82747 0.6416 0.0
O41 O 0.32213 0.83045 0.56412 0.0
Mg42 Mg 0.39491 0.06191 0.85426 0.0
O43 O 0.38737 0.07152 0.91465 0.0
O44 O 0.39667 0.06344 0.97136 0.0
Mg45 Mg 0.41007 0.04948 0.94932 0.0
C46 C 0.38911 0.07073 0.95527 0.0
C47 C 0.37514 0.07546 0.80055 0.0
O48 O 0.36836 0.06803 0.82247 0.0
O49 O 0.41248 0.07268 0.85802 0.0
O50 O 0.42089 0.06422 0.91597 0.0
O51 O 0.38145 0.04685 0.86232 0.0
O52 O 0.39937 0.04697 0.89122 0.0
C53 C 0.42107 0.07174 0.88497 0.0
C54 C 0.3893 0.04164 0.88653 0.0
O55 O 0.38631 0.07556 0.80789 0.0
Mg56 Mg 0.15239 0.8207 0.86448 0.0
O57 O 0.14249 0.82806 0.80383 0.0
O58 O 0.15065 0.8187 0.74775 0.0
Mg59 Mg 0.16485 0.80554 0.77004 0.0
C60 C 0.14327 0.82621 0.7633 0.0
C61 C 0.13801 0.84003 0.91902 0.0
O62 O 0.14446 0.84753 0.89617 0.0
O63 O 0.14196 0.80287 0.86137 0.0
O64 O 0.15041 0.79446 0.80379 0.0
O65 O 0.16717 0.83447 0.85591 0.0
O66 O 0.16723 0.81649 0.82743 0.0
C67 C 0.14298 0.79422 0.83482 0.0
C68 C 0.17241 0.82667 0.83181 0.0
O69 O 0.13882 0.82886 0.91157 0.0
Mg70 Mg 0.39386 0.90488 0.11086 0.0
O71 O 0.38656 0.89495 0.05075 0.0
O72 O 0.39596 0.90281 -0.00605 0.0
Mg73 Mg 0.40931 0.91694 0.01596 0.0
C74 C 0.38838 0.89555 0.01018 0.0
C75 C 0.37668 0.8957 0.18109 0.0
O76 O 0.37351 0.90691 0.1754 0.0
O77 O 0.41143 0.89416 0.10893 0.0
O78 O 0.42001 0.90237 0.05089 0.0
O79 O 0.38041 0.91975 0.10078 0.0
O80 O 0.39846 0.91974 0.07332 0.0
C81 C 0.4201 0.895 0.08238 0.0
C82 C 0.38834 0.92498 0.07712 0.0
O83 O 0.38494 0.89147 0.1576 0.0
Mg84 Mg 0.30943 0.1448 0.35608 0.0
O85 O 0.31946 0.13751 0.29611 0.0
O86 O 0.31182 0.1472 0.23942 0.0
Mg87 Mg 0.29779 0.16057 0.26099 0.0
C88 C 0.31895 0.1395 0.25556 0.0
C89 C 0.31738 0.13102 0.43596 0.0
O90 O 0.30568 0.13137 0.43796 0.0
O91 O 0.3203 0.16239 0.35449 0.0
O92 O 0.31229 0.17116 0.29639 0.0
O93 O 0.29449 0.13138 0.3459 0.0
O94 O 0.29482 0.14949 0.31801 0.0
C95 C 0.31957 0.17115 0.32801 0.0
C96 C 0.28947 0.13937 0.32169 0.0
O97 O 0.32248 0.13578 0.40357 0.0
Mg98 Mg 0.06916 0.0612 0.60619 0.0
O99 O 0.07652 0.07171 0.54701 0.0
O100 O 0.06691 0.06426 0.48997 0.0
Mg101 Mg 0.0539 0.04966 0.51035 0.0
C102 C 0.07452 0.07143 0.50645 0.0
C103 C 0.08227 0.06912 0.68721 0.0
O104 O 0.082 0.05736 0.68894 0.0
O105 O 0.05148 0.07169 0.60424 0.0
O106 O 0.04277 0.06354 0.54662 0.0
O107 O 0.08292 0.04675 0.59729 0.0
O108 O 0.06518 0.04651 0.56688 0.0
C109 C 0.04265 0.07074 0.57838 0.0
C110 C 0.07544 0.04153 0.57175 0.0
O111 O 0.07763 0.07428 0.6547 0.0
Mg112 Mg 0.80974 0.82111 0.86427 0.0
O113 O 0.81913 0.82863 0.80328 0.0
O114 O 0.81061 0.81957 0.74707 0.0
Mg115 Mg 0.79653 0.8063 0.7702 0.0
C116 C 0.81812 0.82699 0.76272 0.0
C117 C 0.82399 0.84059 0.91696 0.0
O118 O 0.8167 0.84761 0.89551 0.0
O119 O 0.82014 0.80339 0.8595 0.0
O120 O 0.81126 0.79517 0.80219 0.0
O121 O 0.79494 0.83483 0.85753 0.0
O122 O 0.79456 0.8169 0.82862 0.0
C123 C 0.81893 0.79485 0.83259 0.0
C124 C 0.78944 0.82705 0.83396 0.0
O125 O 0.82375 0.82939 0.90959 0.0
Mg126 Mg 0.8955 0.06137 0.61331 0.0
O127 O 0.8881 0.07136 0.5532 0.0
O128 O 0.89762 0.06375 0.49651 0.0
Mg129 Mg 0.91097 0.04961 0.51829 0.0
C130 C 0.88997 0.07088 0.51265 0.0
C131 C 0.87685 0.07158 0.67764 0.0
O132 O 0.87187 0.06146 0.66585 0.0
O133 O 0.91306 0.07223 0.61104 0.0
O134 O 0.92172 0.06402 0.55355 0.0
O135 O 0.8821 0.04636 0.60349 0.0
O136 O 0.90009 0.04665 0.57557 0.0
C137 C 0.92181 0.07137 0.58488 0.0
C138 C 0.88999 0.04132 0.57938 0.0
O139 O 0.88666 0.07467 0.66017 0.0
Mg140 Mg 0.65372 0.14688 0.36397 0.0
O141 O 0.64398 0.13984 0.30299 0.0
O142 O 0.65206 0.14952 0.24712 0.0
Mg143 Mg 0.66626 0.16261 0.27043 0.0
C144 C 0.64473 0.14188 0.26254 0.0
C145 C 0.63941 0.12703 0.41574 0.0
O146 O 0.64631 0.12002 0.39294 0.0
O147 O 0.64324 0.16461 0.36127 0.0
O148 O 0.65184 0.17351 0.3047 0.0
O149 O 0.66842 0.1332 0.35514 0.0
O150 O 0.66866 0.15134 0.32744 0.0
C151 C 0.64433 0.1735 0.33553 0.0
C152 C 0.67374 0.14111 0.33139 0.0
O153 O 0.63995 0.13829 0.40958 0.0
Mg154 Mg 0.56898 0.90397 0.10836 0.0
O155 O 0.57665 0.89353 0.05008 0.0
O156 O 0.56669 0.9001 -0.0078 0.0
Mg157 Mg 0.55359 0.91467 0.01113 0.0
C158 C 0.5745 0.89334 0.00964 0.0
C159 C 0.58302 0.89652 0.18854 0.0
O160 O 0.58309 0.90828 0.18896 0.0
O161 O 0.55146 0.893 0.10704 0.0
O162 O 0.54279 0.90066 0.0482 0.0
O163 O 0.58231 0.91891 0.09816 0.0
O164 O 0.56453 0.91832 0.06812 0.0
C165 C 0.54274 0.8936 0.08055 0.0
C166 C 0.57457 0.92376 0.07259 0.0
O167 O 0.57782 0.89124 0.15747 0.0
Mg168 Mg 0.80994 0.14429 0.10928 0.0
O169 O 0.81952 0.13715 0.17053 0.0
O170 O 0.81141 0.14665 0.22637 0.0
Mg171 Mg 0.79747 0.15995 0.2026 0.0
C172 C 0.81873 0.13905 0.21099 0.0
C173 C 0.81927 0.12754 0.03842 0.0
O174 O 0.80784 0.12498 0.04069 0.0
O175 O 0.82067 0.16195 0.11162 0.0
O176 O 0.81221 0.17063 0.1687 0.0
O177 O 0.79499 0.1308 0.11848 0.0
O178 O 0.79497 0.14898 0.14528 0.0
C179 C 0.81971 0.17068 0.13788 0.0
C180 C 0.7897 0.13884 0.14135 0.0
O181 O 0.82354 0.13527 0.06424 0.0
Mg182 Mg 0.57003 0.06203 0.86057 0.0
O183 O 0.57767 0.07232 0.91977 0.0
O184 O 0.56822 0.06469 0.97697 0.0
Mg185 Mg 0.55496 0.05032 0.95686 0.0
C186 C 0.57581 0.07188 0.9604 0.0
C187 C 0.58245 0.06991 0.77825 0.0
O188 O 0.58157 0.0582 0.77593 0.0
O189 O 0.55244 0.07271 0.86315 0.0
O190 O 0.54403 0.06456 0.9215 0.0
O191 O 0.58367 0.04731 0.86867 0.0
O192 O 0.56612 0.04739 0.90031 0.0
C193 C 0.54382 0.07185 0.88983 0.0
C194 C 0.57627 0.04226 0.89496 0.0
O195 O 0.57845 0.07508 0.81164 0.0
Mg196 Mg 0.654 0.82009 0.60626 0.0
O197 O 0.64392 0.82739 0.66585 0.0
O198 O 0.65111 0.81748 0.72292 0.0
Mg199 Mg 0.66562 0.80454 0.70191 0.0
C200 C 0.64409 0.8252 0.70627 0.0
C201 C 0.64085 0.83986 0.55093 0.0
O202 O 0.64838 0.84668 0.57212 0.0
O203 O 0.64334 0.80237 0.60832 0.0
O204 O 0.65138 0.79367 0.66648 0.0
O205 O 0.66877 0.83371 0.61627 0.0
O206 O 0.6686 0.81566 0.64478 0.0
C207 C 0.64413 0.79362 0.63478 0.0
C208 C 0.67382 0.82585 0.64096 0.0
O209 O 0.6406 0.82869 0.55911 0.0
Mg210 Mg 0.89446 0.90467 0.35991 0.0
O211 O 0.88706 0.89481 0.42021 0.0
O212 O 0.89652 0.90275 0.47669 0.0
Mg213 Mg 0.90974 0.91702 0.45448 0.0
C214 C 0.88893 0.89546 0.46076 0.0
C215 C 0.88119 0.89658 0.2802 0.0
O216 O 0.88183 0.90831 0.27795 0.0
O217 O 0.91207 0.894 0.36312 0.0
O218 O 0.92067 0.90263 0.42016 0.0
O219 O 0.88094 0.91951 0.36815 0.0
O220 O 0.89891 0.91956 0.39675 0.0
C221 C 0.92082 0.89512 0.38929 0.0
C222 C 0.88881 0.9248 0.39197 0.0
O223 O 0.88567 0.89139 0.31297 0.0
Mg224 Mg 0.65237 0.64427 0.60732 0.0
O225 O 0.64263 0.63714 0.66826 0.0
O226 O 0.65087 0.6466 0.72418 0.0
Mg227 Mg 0.66502 0.65977 0.70091 0.0
C228 C 0.64345 0.63906 0.70873 0.0
C229 C 0.64386 0.63157 0.52709 0.0
O230 O 0.65548 0.63275 0.52337 0.0
O231 O 0.64185 0.66198 0.60957 0.0
O232 O 0.65043 0.67059 0.66676 0.0
O233 O 0.66709 0.63063 0.61626 0.0
O234 O 0.66733 0.64874 0.64374 0.0
C235 C 0.64292 0.6707 0.63583 0.0
C236 C 0.67247 0.63856 0.63956 0.0
O237 O 0.63892 0.63544 0.5611 0.0
Mg238 Mg 0.56843 0.40435 0.8595 0.0
O239 O 0.57641 0.39447 0.91902 0.0
O240 O 0.56707 0.40195 0.9763 0.0
Mg241 Mg 0.55341 0.41587 0.95584 0.0
C242 C 0.57473 0.39493 0.95969 0.0
C243 C 0.58772 0.39298 0.79928 0.0
O244 O 0.59382 0.40183 0.81639 0.0
O245 O 0.55107 0.39324 0.86322 0.0
O246 O 0.5427 0.40126 0.92166 0.0
O247 O 0.58159 0.41965 0.86744 0.0
O248 O 0.56391 0.41902 0.8977 0.0
C249 C 0.54253 0.39392 0.89032 0.0
C250 C 0.57383 0.42458 0.89244 0.0
O251 O 0.57707 0.39116 0.81194 0.0
Mg252 Mg 0.80992 0.31985 0.11089 0.0
O253 O 0.81986 0.32714 0.17116 0.0
O254 O 0.81214 0.31749 0.22775 0.0
Mg255 Mg 0.79816 0.30403 0.20566 0.0
C256 C 0.81929 0.3252 0.21172 0.0
C257 C 0.81866 0.33666 0.03876 0.0
O258 O 0.80727 0.3392 0.04246 0.0
O259 O 0.82075 0.30229 0.11279 0.0
O260 O 0.8127 0.29351 0.17074 0.0
O261 O 0.79502 0.33323 0.1209 0.0
O262 O 0.79523 0.31508 0.14847 0.0
C263 C 0.82001 0.29354 0.13931 0.0
C264 C 0.78995 0.32521 0.14481 0.0
O265 O 0.82316 0.32894 0.06425 0.0
Mg266 Mg 0.89358 0.5621 0.36024 0.0
O267 O 0.88632 0.57186 0.42059 0.0
O268 O 0.89576 0.56389 0.47718 0.0
Mg269 Mg 0.90906 0.54984 0.45484 0.0
C270 C 0.88818 0.57117 0.46115 0.0
C271 C 0.87785 0.57056 0.28581 0.0
O272 O 0.87636 0.5589 0.28752 0.0
O273 O 0.91116 0.57288 0.36262 0.0
O274 O 0.91976 0.56452 0.4204 0.0
O275 O 0.88011 0.54718 0.36955 0.0
O276 O 0.89818 0.54718 0.39731 0.0
C277 C 0.91984 0.57197 0.38919 0.0
C278 C 0.88805 0.54191 0.39312 0.0
O279 O 0.88461 0.57545 0.31366 0.0
Mg280 Mg 0.65334 0.32081 0.36405 0.0
O281 O 0.6439 0.3278 0.30237 0.0
O282 O 0.65205 0.31807 0.24711 0.0
Mg283 Mg 0.66599 0.30486 0.27173 0.0
C284 C 0.64474 0.32575 0.26203 0.0
C285 C 0.64451 0.33664 0.43731 0.0
O286 O 0.65617 0.33784 0.4376 0.0
O287 O 0.64256 0.30319 0.36198 0.0
O288 O 0.65128 0.29424 0.30604 0.0
O289 O 0.66826 0.33428 0.35493 0.0
O290 O 0.66836 0.31604 0.32859 0.0
C291 C 0.64366 0.29429 0.33651 0.0
C292 C 0.6736 0.32621 0.33236 0.0
O293 O 0.63978 0.33002 0.40867 0.0
Mg294 Mg 0.89416 0.40456 0.6129 0.0
O295 O 0.88678 0.39484 0.55235 0.0
O296 O 0.8962 0.40282 0.49579 0.0
Mg297 Mg 0.90964 0.41679 0.51822 0.0
C298 C 0.88859 0.39555 0.51178 0.0
C299 C 0.87555 0.39398 0.6771 0.0
O300 O 0.87072 0.4043 0.66684 0.0
O301 O 0.91166 0.39372 0.61032 0.0
O302 O 0.92022 0.40205 0.55247 0.0
O303 O 0.88082 0.4196 0.60352 0.0
O304 O 0.89884 0.41946 0.57577 0.0
C305 C 0.92029 0.39458 0.58364 0.0
C306 C 0.88877 0.42478 0.57971 0.0
O307 O 0.88524 0.39096 0.6589 0.0
Mg308 Mg 0.80884 0.64563 0.86119 0.0
O309 O 0.81854 0.63824 0.80085 0.0
O310 O 0.81055 0.64761 0.7441 0.0
Mg311 Mg 0.79658 0.66098 0.76615 0.0
C312 C 0.81782 0.64004 0.76024 0.0
C313 C 0.82048 0.62647 0.92191 0.0
O314 O 0.81114 0.62056 0.90764 0.0
O315 O 0.81957 0.66325 0.85785 0.0
O316 O 0.81125 0.67176 0.79982 0.0
O317 O 0.7939 0.63209 0.85254 0.0
O318 O 0.79397 0.65013 0.824 0.0
C319 C 0.8187 0.67189 0.83093 0.0
C320 C 0.78872 0.63997 0.82835 0.0
O321 O 0.82245 0.63696 0.9074 0.0
Mg322 Mg 0.56708 0.56112 0.11131 0.0
O323 O 0.57442 0.57148 0.05182 0.0
O324 O 0.56506 0.56367 -0.00519 0.0
Mg325 Mg 0.55223 0.54891 0.01547 0.0
C326 C 0.57252 0.57101 0.01121 0.0
C327 C 0.58616 0.57578 0.16435 0.0
O328 O 0.59332 0.56965 0.13938 0.0
O329 O 0.54922 0.5713 0.10782 0.0
O330 O 0.54081 0.56277 0.05033 0.0
O331 O 0.58115 0.54679 0.10395 0.0
O332 O 0.5636 0.5464 0.07202 0.0
C333 C 0.54049 0.57011 0.08163 0.0
C334 C 0.57392 0.54161 0.0774 0.0
O335 O 0.57494 0.57468 0.1593 0.0
Mg336 Mg 0.30989 0.32044 0.36179 0.0
O337 O 0.31935 0.32775 0.30052 0.0
O338 O 0.31093 0.31832 0.24488 0.0
Mg339 Mg 0.29695 0.30503 0.26855 0.0
C340 C 0.31836 0.32588 0.26006 0.0
C341 C 0.31839 0.33343 0.4412 0.0
O342 O 0.30674 0.33238 0.44449 0.0
O343 O 0.3205 0.30279 0.35866 0.0
O344 O 0.31173 0.29423 0.30173 0.0
O345 O 0.2951 0.33404 0.35385 0.0
O346 O 0.2948 0.31596 0.32601 0.0
C347 C 0.31936 0.2941 0.33226 0.0
C348 C 0.28966 0.32613 0.33062 0.0
O349 O 0.3234 0.32932 0.40767 0.0
Mg350 Mg 0.39281 0.56093 0.10608 0.0
O351 O 0.38545 0.5714 0.04675 0.0
O352 O 0.39494 0.56387 -0.01017 0.0
Mg353 Mg 0.40787 0.54925 0.01033 0.0
C354 C 0.3874 0.57108 0.0062 0.0
C355 C 0.3802 0.56891 0.1877 0.0
O356 O 0.38075 0.55717 0.19006 0.0
O357 O 0.41056 0.57139 0.10398 0.0
O358 O 0.41909 0.56313 0.04641 0.0
O359 O 0.37894 0.54648 0.09734 0.0
O360 O 0.39662 0.5462 0.06686 0.0
C361 C 0.41934 0.57038 0.07804 0.0
C362 C 0.38634 0.54124 0.07178 0.0
O363 O 0.38448 0.57405 0.15453 0.0
Mg364 Mg 0.15402 0.64478 0.85951 0.0
O365 O 0.14391 0.63772 0.79923 0.0
O366 O 0.1516 0.64747 0.74278 0.0
Mg367 Mg 0.1657 0.66078 0.76498 0.0
C368 C 0.14441 0.63977 0.75872 0.0
C369 C 0.1458 0.62946 0.93589 0.0
O370 O 0.15748 0.62846 0.93571 0.0
O371 O 0.14328 0.6624 0.85844 0.0
O372 O 0.15125 0.67127 0.80052 0.0
O373 O 0.1688 0.6313 0.84869 0.0
O374 O 0.16865 0.64952 0.82161 0.0
C375 C 0.144 0.6712 0.83212 0.0
C376 C 0.17386 0.63933 0.82474 0.0
O377 O 0.14087 0.63567 0.90639 0.0
Mg378 Mg 0.06932 0.40438 0.61131 0.0
O379 O 0.0768 0.39405 0.55223 0.0
O380 O 0.06763 0.40185 0.49465 0.0
Mg381 Mg 0.05465 0.41643 0.51453 0.0
C382 C 0.07503 0.39454 0.51153 0.0
C383 C 0.08839 0.39011 0.66588 0.0
O384 O 0.09555 0.39658 0.64175 0.0
O385 O 0.05152 0.39402 0.6077 0.0
O386 O 0.04334 0.40229 0.54907 0.0
O387 O 0.08329 0.41891 0.60383 0.0
O388 O 0.0658 0.41905 0.5715 0.0
C389 C 0.04296 0.39499 0.58069 0.0
C390 C 0.07604 0.424 0.57703 0.0
O391 O 0.07718 0.39087 0.65982 0.0
Mg392 Mg 0.30935 0.64556 0.60026 0.0
O393 O 0.31863 0.6382 0.66183 0.0
O394 O 0.30991 0.6472 0.71755 0.0
Mg395 Mg 0.29584 0.66033 0.69358 0.0
C396 C 0.3175 0.63985 0.70233 0.0
C397 C 0.32383 0.62604 0.54909 0.0
O398 O 0.31666 0.61903 0.57112 0.0
O399 O 0.31967 0.6634 0.60526 0.0
O400 O 0.3106 0.67155 0.66213 0.0
O401 O 0.2946 0.63171 0.60663 0.0
O402 O 0.29408 0.64967 0.6352 0.0
C403 C 0.31834 0.67194 0.63211 0.0
C404 C 0.28902 0.63947 0.62987 0.0
O405 O 0.32346 0.63728 0.55559 0.0
Mg406 Mg 0.0684 0.56147 0.35709 0.0
O407 O 0.07612 0.57117 0.41723 0.0
O408 O 0.06669 0.56332 0.47401 0.0
Mg409 Mg 0.05314 0.5494 0.45247 0.0
C410 C 0.07435 0.5705 0.45784 0.0
C411 C 0.08804 0.57372 0.2997 0.0
O412 O 0.09433 0.56524 0.31833 0.0
O413 O 0.05098 0.57241 0.36044 0.0
O414 O 0.04247 0.56412 0.41844 0.0
O415 O 0.08166 0.54633 0.36525 0.0
O416 O 0.06387 0.54658 0.39473 0.0
C417 C 0.04238 0.57158 0.38725 0.0
C418 C 0.07388 0.5412 0.38987 0.0
O419 O 0.07715 0.57496 0.31031 0.0
Mg420 Mg 0.15319 0.31999 0.10999 0.0
O421 O 0.14332 0.32695 0.17068 0.0
O422 O 0.1512 0.31706 0.22652 0.0
Mg423 Mg 0.1653 0.30392 0.20361 0.0
C424 C 0.14397 0.32478 0.21109 0.0
C425 C 0.14507 0.33342 0.03021 0.0
O426 O 0.15673 0.33256 0.02738 0.0
O427 O 0.14245 0.30234 0.11128 0.0
O428 O 0.15087 0.29329 0.16798 0.0
O429 O 0.168 0.33353 0.12008 0.0
O430 O 0.16796 0.31531 0.1472 0.0
C431 C 0.14343 0.29338 0.13683 0.0
C432 C 0.17317 0.32552 0.14378 0.0
O433 O 0.13998 0.32908 0.06336 0.0
Mg434 Mg 0.39356 0.40533 0.85737 0.0
O435 O 0.38585 0.39518 0.91678 0.0
O436 O 0.39467 0.40332 0.97426 0.0
Mg437 Mg 0.40762 0.41797 0.95392 0.0
C438 C 0.38741 0.39584 0.95753 0.0
C439 C 0.37483 0.39046 0.80383 0.0
O440 O 0.36756 0.39676 0.82784 0.0
O441 O 0.41137 0.3952 0.86302 0.0
O442 O 0.41923 0.40381 0.9214 0.0
O443 O 0.37944 0.41959 0.86242 0.0
O444 O 0.39675 0.42036 0.89586 0.0
C445 C 0.4198 0.39637 0.89043 0.0
C446 C 0.38646 0.42508 0.8889 0.0
O447 O 0.38602 0.39152 0.80966 0.0
C448 C 0.27222 0.14676 0.27846 0.0
C449 C 0.27808 0.13716 0.29867 0.0
C450 C 0.26129 0.14508 0.25788 0.0
C451 C 0.235 0.12507 0.25316 0.0
H452 H 0.22803 0.14449 0.15268 0.0
C453 C 0.18975 0.12587 0.15507 0.0
C454 C 0.185 0.1375 0.15226 0.0
C455 C 0.20127 0.12403 0.17174 0.0
C456 C 0.22988 0.13896 0.18058 0.0
H457 H 0.27698 0.11819 0.31311 0.0
H458 H 0.25783 0.11518 0.27629 0.0
H459 H 0.24818 0.14426 0.18205 0.0
H460 H 0.18859 0.15626 0.16496 0.0
H461 H 0.20861 0.15304 0.1929 0.0
H462 H 0.21652 0.11982 0.25115 0.0
C463 C 0.26171 0.12406 0.2768 0.0
C464 C 0.2414 0.13888 0.19764 0.0
C465 C 0.27271 0.12577 0.2977 0.0
C466 C 0.19193 0.14718 0.16681 0.0
C467 C 0.20343 0.14537 0.18261 0.0
C468 C 0.22345 0.12503 0.2356 0.0
C469 C 0.25587 0.13372 0.25656 0.0
C470 C 0.24404 0.13227 0.23505 0.0
C471 C 0.20827 0.13381 0.1849 0.0
C472 C 0.22073 0.13228 0.19995 0.0
H473 H 0.27594 0.15571 0.27923 0.0
H474 H 0.25696 0.15281 0.24379 0.0
H475 H 0.23669 0.1199 0.28205 0.0
H476 H 0.18462 0.11824 0.14414 0.0
H477 H 0.20482 0.11503 0.17323 0.0
C478 C 0.08749 0.94428 0.39091 0.0
C479 C 0.07939 0.93643 0.41096 0.0
C480 C 0.08967 0.95567 0.40801 0.0
C481 C 0.08695 0.97396 0.50627 0.0
H482 H 0.08205 0.00059 0.42793 0.0
C483 C 0.0886 0.02356 0.56145 0.0
C484 C 0.07845 0.03019 0.54951 0.0
C485 C 0.09082 0.01235 0.54309 0.0
C486 C 0.08353 -0.00676 0.45011 0.0
H487 H 0.06787 0.93412 0.46618 0.0
H488 H 0.07175 0.95382 0.49616 0.0
H489 H 0.08245 0.98014 0.40013 0.0
H490 H 0.06287 0.03026 0.50806 0.0
H491 H 0.06689 0.01097 0.47552 0.0
H492 H 0.08772 -0.01296 0.55641 0.0
C493 C 0.07633 0.95124 0.46702 0.0
C494 C 0.08385 0.98155 0.43417 0.0
C495 C 0.07401 0.93997 0.44958 0.0
C496 C 0.07081 0.02551 0.51787 0.0
C497 C 0.07313 0.01443 0.49906 0.0
C498 C 0.0868 -0.01434 0.52213 0.0
C499 C 0.08398 0.95933 0.44597 0.0
C500 C 0.08527 0.97176 0.46221 0.0
C501 C 0.08306 0.00764 0.51188 0.0
C502 C 0.08479 -0.0046 0.49435 0.0
H503 H 0.09176 0.94181 0.36107 0.0
H504 H 0.09566 0.96169 0.39123 0.0
H505 H 0.08813 0.96659 0.52859 0.0
H506 H 0.09465 0.02688 0.58586 0.0
H507 H 0.09857 0.00732 0.55349 0.0
C508 C 0.1899 0.81964 0.78968 0.0
C509 C 0.18384 0.82912 0.80948 0.0
C510 C 0.20079 0.82153 0.76927 0.0
C511 C 0.22677 0.84184 0.76416 0.0
H512 H 0.23363 0.82277 0.66335 0.0
C513 C 0.27176 0.84139 0.66489 0.0
C514 C 0.27653 0.82978 0.66203 0.0
C515 C 0.26032 0.84319 0.68201 0.0
C516 C 0.23182 0.8282 0.69134 0.0
H517 H 0.1846 0.84809 0.82363 0.0
H518 H 0.20374 0.85147 0.78717 0.0
H519 H 0.21354 0.82281 0.69292 0.0
H520 H 0.27306 0.811 0.67525 0.0
H521 H 0.25316 0.81413 0.704 0.0
H522 H 0.24523 0.84715 0.76208 0.0
C523 C 0.2 0.84252 0.78779 0.0
C524 C 0.22033 0.82819 0.70849 0.0
C525 C 0.18902 0.84061 0.80849 0.0
C526 C 0.26971 0.82006 0.67711 0.0
C527 C 0.25828 0.82183 0.69339 0.0
C528 C 0.23829 0.84197 0.74652 0.0
C529 C 0.20599 0.83298 0.76773 0.0
C530 C 0.21774 0.83464 0.74605 0.0
C531 C 0.25341 0.83337 0.69562 0.0
C532 C 0.24097 0.83484 0.71077 0.0
H533 H 0.18635 0.81062 0.79055 0.0
H534 H 0.20526 0.81389 0.75538 0.0
H535 H 0.22511 0.84689 0.79314 0.0
H536 H 0.27681 0.84905 0.65355 0.0
H537 H 0.25673 0.85217 0.68343 0.0
C538 C 0.39652 0.02401 0.92831 0.0
C539 C 0.38699 0.03009 0.90868 0.0
C540 C 0.39475 0.013 0.94846 0.0
C541 C 0.37449 -0.01313 0.95341 0.0
H542 H 0.3939 0.97956 0.05344 0.0
C543 C 0.37468 0.94168 0.05329 0.0
C544 C 0.38619 0.9367 0.05603 0.0
C545 C 0.37303 0.95318 0.03583 0.0
C546 C 0.38838 0.9815 0.02565 0.0
H547 H 0.36806 0.02926 0.89464 0.0
H548 H 0.36489 0.00994 0.93076 0.0
H549 H 0.39389 -0.00021 0.02411 0.0
H550 H 0.40491 0.93981 0.04211 0.0
H551 H 0.40202 0.95982 0.01276 0.0
H552 H 0.36902 0.96839 0.95558 0.0
C553 C 0.37378 0.01373 0.93013 0.0
C554 C 0.38842 -0.00693 0.00861 0.0
C555 C 0.37558 0.02482 0.90963 0.0
C556 C 0.39592 0.94334 0.04037 0.0
C557 C 0.3943 0.95483 0.02374 0.0
C558 C 0.37433 0.97527 0.97096 0.0
C559 C 0.38337 0.0077 0.94995 0.0
C560 C 0.38181 -0.00418 0.97137 0.0
C561 C 0.38288 0.95992 0.02173 0.0
C562 C 0.38157 0.97243 0.00644 0.0
H563 H 0.40548 0.02765 0.9275 0.0
H564 H 0.40243 0.00851 0.96217 0.0
H565 H 0.36933 -0.01136 0.92467 0.0
H566 H 0.36701 0.93677 0.06507 0.0
H567 H 0.36414 0.95694 0.03458 0.0
C568 C 0.77276 0.84096 0.81176 0.0
C569 C 0.77759 0.82937 0.8144 0.0
C570 C 0.76125 0.84275 0.79494 0.0
C571 C 0.73276 0.82768 0.78543 0.0
H572 H 0.72613 0.84622 0.68258 0.0
C573 C 0.69099 0.81888 0.68552 0.0
C574 C 0.68508 0.82831 0.6645 0.0
C575 C 0.70179 0.82081 0.7067 0.0
C576 C 0.72775 0.84121 0.71184 0.0
H577 H 0.77415 0.8106 0.80135 0.0
H578 H 0.75414 0.8137 0.77319 0.0
H579 H 0.74618 0.84664 0.7144 0.0
H580 H 0.68595 0.84724 0.64922 0.0
H581 H 0.70488 0.85069 0.68703 0.0
H582 H 0.71452 0.82217 0.78334 0.0
C583 C 0.75925 0.82141 0.78369 0.0
C584 C 0.73924 0.84144 0.72993 0.0
C585 C 0.77075 0.81966 0.79962 0.0
C586 C 0.69027 0.83979 0.66525 0.0
C587 C 0.70114 0.84175 0.68672 0.0
C588 C 0.7213 0.82757 0.76781 0.0
C589 C 0.75434 0.83293 0.78148 0.0
C590 C 0.7419 0.83437 0.76609 0.0
C591 C 0.70702 0.83226 0.70779 0.0
C592 C 0.71873 0.83397 0.72989 0.0
H593 H 0.77783 0.84862 0.82287 0.0
H594 H 0.75763 0.85172 0.7935 0.0
H595 H 0.73456 0.82227 0.81367 0.0
H596 H 0.68741 0.80987 0.68496 0.0
H597 H 0.70617 0.8132 0.72144 0.0
C598 C 0.89637 0.94326 0.42758 0.0
C599 C 0.88663 0.93659 0.41206 0.0
C600 C 0.89475 0.9548 0.44338 0.0
C601 C 0.87484 0.9753 0.49472 0.0
H602 H 0.89445 -0.00025 0.44104 0.0
C603 C 0.87627 0.02467 0.55547 0.0
C604 C 0.88768 0.02992 0.55656 0.0
C605 C 0.87443 0.01366 0.5348 0.0
C606 C 0.88897 -0.00695 0.45668 0.0
H607 H 0.86747 0.93668 0.4023 0.0
H608 H 0.8646 0.95694 0.43139 0.0
H609 H 0.89437 0.97952 0.4123 0.0
H610 H 0.90614 0.02759 0.53754 0.0
H611 H 0.90304 0.00855 0.50254 0.0
H612 H 0.86992 -0.01133 0.54062 0.0
C613 C 0.87349 0.95316 0.43066 0.0
C614 C 0.88887 0.98148 0.43996 0.0
C615 C 0.87514 0.94161 0.41401 0.0
C616 C 0.89718 0.02394 0.53668 0.0
C617 C 0.89538 0.01299 0.51634 0.0
C618 C 0.87506 -0.01311 0.51194 0.0
C619 C 0.88334 0.95991 0.44468 0.0
C620 C 0.88204 0.97244 0.45938 0.0
C621 C 0.88399 0.00769 0.51494 0.0
C622 C 0.8824 -0.00418 0.49379 0.0
H623 H 0.90534 0.93971 0.4264 0.0
H624 H 0.90246 0.9598 0.45433 0.0
H625 H 0.86952 0.96844 0.51028 0.0
H626 H 0.86877 0.02904 0.57061 0.0
H627 H 0.86554 0.00987 0.53417 0.0
C628 C 0.69132 0.14816 0.2893 0.0
C629 C 0.68513 0.13867 0.30891 0.0
C630 C 0.70219 0.14624 0.26886 0.0
C631 C 0.7278 0.12553 0.26329 0.0
H632 H 0.73516 0.14495 0.16321 0.0
C633 C 0.77284 0.12526 0.16467 0.0
C634 C 0.77791 0.13677 0.16158 0.0
C635 C 0.76133 0.12371 0.18165 0.0
C636 C 0.73321 0.13942 0.19101 0.0
H637 H 0.68559 0.11963 0.32256 0.0
H638 H 0.70466 0.1162 0.28601 0.0
H639 H 0.71509 0.14522 0.19283 0.0
H640 H 0.7749 0.15562 0.17421 0.0
H641 H 0.7549 0.15291 0.20275 0.0
H642 H 0.7461 0.11979 0.26094 0.0
C643 C 0.70107 0.12518 0.28686 0.0
C644 C 0.72173 0.13962 0.20821 0.0
C645 C 0.69013 0.12713 0.30761 0.0
C646 C 0.77132 0.14663 0.17625 0.0
C647 C 0.75982 0.1451 0.1924 0.0
C648 C 0.73931 0.12522 0.24562 0.0
C649 C 0.70722 0.13474 0.26709 0.0
C650 C 0.71896 0.13301 0.24547 0.0
C651 C 0.75466 0.13367 0.19489 0.0
C652 C 0.74218 0.13246 0.21011 0.0
H653 H 0.68788 0.15721 0.29036 0.0
H654 H 0.70677 0.15389 0.25515 0.0
H655 H 0.72601 0.12035 0.29205 0.0
H656 H 0.7777 0.1175 0.15363 0.0
H657 H 0.75751 0.1148 0.18329 0.0
C658 C 0.58651 0.02232 0.89779 0.0
C659 C 0.57912 0.03087 0.91721 0.0
C660 C 0.58773 0.01086 0.91586 0.0
C661 C 0.57087 -0.00967 -0.01349 0.0
H662 H 0.59933 0.9707 0.98277 0.0
C663 C 0.58738 0.94191 0.0582 0.0
C664 C 0.57689 0.93532 0.05037 0.0
C665 C 0.58883 0.95342 0.04073 0.0
C666 C 0.59133 0.9761 0.98428 0.0
H667 H 0.5682 0.0345 0.97294 0.0
H668 H 0.57047 0.01477 0.00475 0.0
H669 H 0.60015 -0.0085 0.95753 0.0
H670 H 0.55994 0.93555 0.01658 0.0
H671 H 0.5626 0.95526 -0.01456 0.0
H672 H 0.56206 0.97516 0.01376 0.0
C673 C 0.57496 0.01667 0.9747 0.0
C674 C 0.59178 -0.01202 0.96948 0.0
C675 C 0.57365 0.02803 0.95645 0.0
C676 C 0.56814 0.9403 0.02335 0.0
C677 C 0.56961 0.95171 0.00579 0.0
C678 C 0.57043 0.97853 0.00121 0.0
C679 C 0.58166 0.00779 0.95393 0.0
C680 C 0.58153 -0.00476 0.97043 0.0
C681 C 0.57982 0.95856 0.01511 0.0
C682 C 0.58061 0.97121 0.0 0.0
H683 H 0.59085 0.02427 0.8675 0.0
H684 H 0.59295 0.00425 0.89892 0.0
H685 H 0.56274 -0.00446 -0.01287 0.0
H686 H 0.59429 0.93835 0.07895 0.0
H687 H 0.59679 0.95847 0.04869 0.0
C688 C 0.69097 0.64611 0.67484 0.0
C689 C 0.68424 0.63635 0.65982 0.0
C690 C 0.70247 0.64445 0.69088 0.0
C691 C 0.72282 0.62449 0.74367 0.0
H692 H 0.74723 0.64402 0.68955 0.0
C693 C 0.77212 0.62609 0.8051 0.0
C694 C 0.77729 0.63757 0.80584 0.0
C695 C 0.76112 0.62418 0.78443 0.0
C696 C 0.74053 0.63855 0.70529 0.0
H697 H 0.68419 0.6171 0.65123 0.0
H698 H 0.70439 0.61417 0.68074 0.0
H699 H 0.72706 0.6439 0.66033 0.0
H700 H 0.77482 0.65607 0.78632 0.0
H701 H 0.75583 0.65282 0.75128 0.0
H702 H 0.73616 0.61964 0.7901 0.0
C703 C 0.70068 0.6231 0.67942 0.0
C704 C 0.72901 0.63843 0.68831 0.0
C705 C 0.68917 0.62479 0.66253 0.0
C706 C 0.77124 0.64706 0.78571 0.0
C707 C 0.76032 0.64518 0.76536 0.0
C708 C 0.73438 0.62473 0.76113 0.0
C709 C 0.70749 0.63298 0.69294 0.0
C710 C 0.71998 0.63164 0.7079 0.0
C711 C 0.7551 0.63372 0.7642 0.0
C712 C 0.74329 0.63205 0.74281 0.0
H713 H 0.68749 0.65514 0.67308 0.0
H714 H 0.70751 0.6522 0.70144 0.0
H715 H 0.71598 0.6192 0.75936 0.0
H716 H 0.77655 0.6186 0.82045 0.0
H717 H 0.75739 0.61523 0.78405 0.0
C718 C 0.56697 0.44146 0.93856 0.0
C719 C 0.57602 0.43625 0.91377 0.0
C720 C 0.5684 0.45286 0.95589 0.0
C721 C 0.56976 0.47963 0.96037 0.0
H722 H 0.5987 0.4915 0.0139 0.0
C723 C 0.57261 0.52841 0.01301 0.0
C724 C 0.57722 0.53058 0.05418 0.0
C725 C 0.57426 0.51735 -0.00674 0.0
C726 C 0.59055 0.4883 -0.00087 0.0
H727 H 0.59387 0.43889 0.88872 0.0
H728 H 0.59633 0.45902 0.91877 0.0
H729 H 0.598 0.47095 -0.01349 0.0
H730 H 0.58783 0.52315 0.10596 0.0
H731 H 0.59049 0.5036 0.0719 0.0
H732 H 0.56212 0.49665 0.97386 0.0
C733 C 0.58815 0.45415 0.92507 0.0
C734 C 0.59019 0.47657 0.9831 0.0
C735 C 0.58673 0.44264 0.90773 0.0
C736 C 0.58415 0.52169 0.07419 0.0
C737 C 0.58569 0.51051 0.0546 0.0
C738 C 0.57012 0.49127 0.97627 0.0
C739 C 0.57888 0.45947 0.94862 0.0
C740 C 0.57972 0.47206 0.96402 0.0
C741 C 0.58043 0.50809 0.01442 0.0
C742 C 0.58048 0.49578 -0.00396 0.0
H743 H 0.55857 0.4369 0.94377 0.0
H744 H 0.56117 0.45657 0.97458 0.0
H745 H 0.56161 0.47654 0.94524 0.0
H746 H 0.56758 0.53521 -0.00387 0.0
H747 H 0.57041 0.51595 0.96171 0.0
C748 C 0.69208 0.31843 0.29814 0.0
C749 C 0.68541 0.32829 0.31234 0.0
C750 C 0.7036 0.31999 0.28224 0.0
C751 C 0.72406 0.34 0.22915 0.0
H752 H 0.74838 0.3203 0.28284 0.0
C753 C 0.77332 0.33886 0.16862 0.0
C754 C 0.77856 0.32744 0.16756 0.0
C755 C 0.76232 0.34061 0.18919 0.0
C756 C 0.74171 0.3258 0.26719 0.0
H757 H 0.68547 0.34758 0.31967 0.0
H758 H 0.7057 0.35033 0.29046 0.0
H759 H 0.72821 0.32032 0.31172 0.0
H760 H 0.77621 0.30887 0.18651 0.0
H761 H 0.7572 0.31183 0.22135 0.0
H762 H 0.73742 0.34502 0.18319 0.0
C763 C 0.70194 0.3414 0.29228 0.0
C764 C 0.73018 0.32586 0.28397 0.0
C765 C 0.69041 0.33982 0.30901 0.0
C766 C 0.77258 0.31784 0.18735 0.0
C767 C 0.76164 0.31955 0.20759 0.0
C768 C 0.73562 0.33982 0.21188 0.0
C769 C 0.7087 0.33145 0.27953 0.0
C770 C 0.72118 0.33273 0.26457 0.0
C771 C 0.75635 0.33095 0.20897 0.0
C772 C 0.7445 0.33246 0.23006 0.0
H773 H 0.68855 0.30942 0.30038 0.0
H774 H 0.70859 0.31219 0.27225 0.0
H775 H 0.71725 0.34535 0.2136 0.0
H776 H 0.7777 0.34643 0.15354 0.0
H777 H 0.75855 0.34951 0.18979 0.0
C778 C 0.89612 0.44238 0.53793 0.0
C779 C 0.88654 0.4363 0.55731 0.0
C780 C 0.89441 0.45342 0.51792 0.0
C781 C 0.87421 0.47953 0.51347 0.0
H782 H 0.89375 0.48727 0.41444 0.0
C783 C 0.87441 0.52504 0.41585 0.0
C784 C 0.88591 0.53011 0.41359 0.0
C785 C 0.87278 0.51347 0.43267 0.0
C786 C 0.88819 0.48521 0.44196 0.0
H787 H 0.86761 0.4371 0.57084 0.0
H788 H 0.86454 0.45645 0.53493 0.0
H789 H 0.89371 0.46694 0.44291 0.0
H790 H 0.90463 0.52705 0.42767 0.0
H791 H 0.90178 0.50692 0.45593 0.0
H792 H 0.86871 0.49797 0.51188 0.0
C793 C 0.87342 0.45266 0.53571 0.0
C794 C 0.88822 0.47359 0.4585 0.0
C795 C 0.87516 0.44155 0.55608 0.0
C796 C 0.89566 0.52347 0.42907 0.0
C797 C 0.89405 0.5119 0.44505 0.0
C798 C 0.87406 0.49118 0.49641 0.0
C799 C 0.88305 0.45872 0.51631 0.0
C800 C 0.88156 0.47067 0.49537 0.0
C801 C 0.88264 0.50674 0.44658 0.0
C802 C 0.88134 0.49417 0.46129 0.0
H803 H 0.90506 0.43873 0.53893 0.0
H804 H 0.90212 0.45793 0.50449 0.0
H805 H 0.869 0.47764 0.54195 0.0
H806 H 0.86673 0.52995 0.40418 0.0
H807 H 0.86389 0.50965 0.43356 0.0
C808 C 0.27293 0.33995 0.30842 0.0
C809 C 0.27784 0.32838 0.31083 0.0
C810 C 0.26139 0.34168 0.29193 0.0
C811 C 0.23299 0.3264 0.28336 0.0
H812 H 0.22572 0.34558 0.18263 0.0
C813 C 0.1906 0.31824 0.18626 0.0
C814 C 0.18457 0.32782 0.16659 0.0
C815 C 0.20154 0.32003 0.20665 0.0
C816 C 0.22753 0.34038 0.21133 0.0
H817 H 0.2745 0.3096 0.2975 0.0
H818 H 0.25442 0.31262 0.26982 0.0
H819 H 0.24595 0.34585 0.21293 0.0
H820 H 0.18535 0.34684 0.15291 0.0
H821 H 0.20452 0.35003 0.18937 0.0
H822 H 0.21476 0.32087 0.28227 0.0
C823 C 0.25951 0.32034 0.28032 0.0
C824 C 0.23912 0.34053 0.22853 0.0
C825 C 0.27105 0.31864 0.29596 0.0
C826 C 0.18976 0.33928 0.1679 0.0
C827 C 0.20077 0.34109 0.18859 0.0
C828 C 0.22144 0.32637 0.26664 0.0
C829 C 0.25451 0.33183 0.27853 0.0
C830 C 0.24201 0.33324 0.26388 0.0
C831 C 0.20678 0.33146 0.20828 0.0
C832 C 0.21863 0.33302 0.2295 0.0
H833 H 0.27796 0.34762 0.31961 0.0
H834 H 0.2577 0.35063 0.29082 0.0
H835 H 0.23497 0.32083 0.31105 0.0
H836 H 0.18701 0.30924 0.18521 0.0
H837 H 0.20602 0.31232 0.22032 0.0
C838 C 0.37317 0.5232 0.06188 0.0
C839 C 0.38323 0.52993 0.04947 0.0
C840 C 0.37088 0.51199 0.04339 0.0
C841 C 0.37772 0.4931 0.94961 0.0
H842 H 0.37415 0.46626 0.02801 0.0
C843 C 0.37452 0.44405 0.89027 0.0
C844 C 0.38293 0.43644 0.90979 0.0
C845 C 0.37217 0.45537 0.90752 0.0
C846 C 0.37503 0.47368 0.00571 0.0
H847 H 0.39854 0.53019 0.00699 0.0
H848 H 0.39439 0.51095 0.97427 0.0
H849 H 0.37435 0.4867 0.05609 0.0
H850 H 0.39489 0.43451 0.96415 0.0
H851 H 0.39071 0.45408 -0.00563 0.0
H852 H 0.37875 0.48008 0.89938 0.0
C853 C 0.38828 0.51431 -0.00171 0.0
C854 C 0.37506 0.48537 0.02174 0.0
C855 C 0.39068 0.52537 0.01722 0.0
C856 C 0.38849 0.44016 0.94796 0.0
C857 C 0.386 0.45136 0.96556 0.0
C858 C 0.37752 0.48142 0.93353 0.0
C859 C 0.37847 0.50741 0.01158 0.0
C860 C 0.37672 0.49518 -0.00603 0.0
C861 C 0.37801 0.4592 0.9451 0.0
C862 C 0.37649 0.47157 0.96153 0.0
H863 H 0.36727 0.52641 0.08676 0.0
H864 H 0.36323 0.50687 0.05419 0.0
H865 H 0.37894 0.5005 0.92745 0.0
H866 H 0.37009 0.44145 0.86078 0.0
H867 H 0.36591 0.46121 0.89118 0.0
C868 C 0.27245 0.62538 0.65219 0.0
C869 C 0.27719 0.63704 0.64928 0.0
C870 C 0.26098 0.62349 0.66908 0.0
C871 C 0.2324 0.63838 0.67921 0.0
H872 H 0.22612 0.61941 0.78126 0.0
C873 C 0.191 0.6466 0.78075 0.0
C874 C 0.1851 0.63703 0.80108 0.0
C875 C 0.20175 0.64481 0.7593 0.0
C876 C 0.22765 0.62454 0.75222 0.0
H877 H 0.27361 0.65579 0.66185 0.0
H878 H 0.25368 0.65249 0.69016 0.0
H879 H 0.24607 0.61922 0.74893 0.0
H880 H 0.18594 0.61802 0.81493 0.0
H881 H 0.20479 0.61483 0.77671 0.0
H882 H 0.21417 0.64381 0.68209 0.0
C883 C 0.25883 0.64483 0.6798 0.0
C884 C 0.23908 0.62444 0.73383 0.0
C885 C 0.27029 0.64669 0.66379 0.0
C886 C 0.19025 0.62557 0.79944 0.0
C887 C 0.20107 0.62376 0.77773 0.0
C888 C 0.22101 0.63838 0.69715 0.0
C889 C 0.25401 0.63325 0.68233 0.0
C890 C 0.24162 0.63167 0.69797 0.0
C891 C 0.20694 0.63338 0.75728 0.0
C892 C 0.21857 0.63181 0.73479 0.0
H893 H 0.27758 0.61777 0.6413 0.0
H894 H 0.25743 0.61447 0.67076 0.0
H895 H 0.23411 0.64391 0.65118 0.0
H896 H 0.18745 0.65559 0.78203 0.0
H897 H 0.20612 0.65251 0.74506 0.0
C898 C 0.07475 0.4372 0.51231 0.0
C899 C 0.07922 0.43513 0.55378 0.0
C900 C 0.07617 0.44835 0.49253 0.0
C901 C 0.0916 0.47792 0.49897 0.0
H902 H 0.06259 0.48879 0.4432 0.0
C903 C 0.06711 0.52405 0.4356 0.0
C904 C 0.07618 0.52954 0.4114 0.0
C905 C 0.06872 0.51268 0.45329 0.0
C906 C 0.07075 0.48595 0.45887 0.0
H907 H 0.08937 0.44283 0.60611 0.0
H908 H 0.09164 0.46251 0.57197 0.0
H909 H 0.06353 0.46867 0.47227 0.0
H910 H 0.09423 0.52743 0.38775 0.0
H911 H 0.097 0.50736 0.4184 0.0
H912 H 0.09863 0.4955 0.48639 0.0
C913 C 0.08713 0.45547 0.55446 0.0
C914 C 0.07136 0.47431 0.47503 0.0
C915 C 0.08581 0.44421 0.57409 0.0
C916 C 0.08707 0.52346 0.40627 0.0
C917 C 0.08867 0.51199 0.42398 0.0
C918 C 0.09098 0.48964 0.48268 0.0
C919 C 0.08198 0.45778 0.51395 0.0
C920 C 0.08176 0.47012 0.49544 0.0
C921 C 0.0794 0.50638 0.44699 0.0
C922 C 0.08048 0.49383 0.46287 0.0
H923 H 0.06999 0.43027 0.49522 0.0
H924 H 0.07244 0.44966 0.46075 0.0
H925 H 0.09977 0.47496 0.51425 0.0
H926 H 0.05859 0.52838 0.44011 0.0
H927 H 0.06147 0.50875 0.47153 0.0
C928 C 0.13085 0.1086 0.00863 0.0
C929 C 0.13126 0.12105 0.01503 0.0
C930 C 0.12454 0.10374 0.97399 0.0
C931 C 0.11325 0.11117 0.86568 0.0
H932 H 0.09544 0.08164 0.87972 0.0
C933 C 0.08696 0.08853 0.72539 0.0
C934 C 0.08757 0.07596 0.72349 0.0
C935 C 0.09162 0.09471 0.7609 0.0
C936 C 0.10047 0.08983 0.87506 0.0
H937 H 0.12513 0.13813 -0.00982 0.0
H938 H 0.11408 0.12962 0.92965 0.0
H939 H 0.10449 0.0911 0.94214 0.0
H940 H 0.09384 0.06011 0.75712 0.0
H941 H 0.10205 0.07081 0.81805 0.0
H942 H 0.10938 0.10977 0.79836 0.0
C943 C 0.11874 0.12363 0.95137 0.0
C944 C 0.10565 0.09527 0.91096 0.0
C945 C 0.125 0.1285 -0.01372 0.0
C946 C 0.0931 0.06978 0.75752 0.0
C947 C 0.09775 0.07593 0.79278 0.0
C948 C 0.10809 0.1057 0.82964 0.0
C949 C 0.1185 0.11119 0.94463 0.0
C950 C 0.11226 0.10592 0.9067 0.0
C951 C 0.09698 0.08846 0.79528 0.0
C952 C 0.10179 0.09484 0.83377 0.0
H953 H 0.13558 0.10258 0.03003 0.0
H954 H 0.12468 0.09413 0.96957 0.0
H955 H 0.11837 0.11931 0.86115 0.0
H956 H 0.08274 0.09357 0.69976 0.0
H957 H 0.09082 0.10437 0.7618 0.0
C958 C 0.12655 0.83639 -0.0127 0.0
C959 C 0.13097 0.84442 0.95621 0.0
C960 C 0.12092 0.8406 0.02441 0.0
C961 C 0.10565 0.86685 0.07081 0.0
H962 H 0.1157 0.85349 0.18022 0.0
C963 C 0.08344 0.88014 0.23181 0.0
C964 C 0.0913 0.88307 0.26552 0.0
C965 C 0.08768 0.87471 0.19433 0.0
C966 C 0.1128 0.85732 0.14994 0.0
H967 H 0.13253 0.86321 0.93927 0.0
H968 H 0.12256 0.87054 0.00366 0.0
H969 H 0.12396 0.84557 0.11353 0.0
H970 H 0.10973 0.8822 0.28663 0.0
H971 H 0.11707 0.87259 0.22155 0.0
H972 H 0.09458 0.87868 0.10725 0.0
C973 C 0.12349 0.86097 -0.00063 0.0
C974 C 0.11745 0.85271 0.11169 0.0
C975 C 0.12925 0.85676 0.9625 0.0
C976 C 0.10342 0.88008 0.26135 0.0
C977 C 0.10763 0.87453 0.22408 0.0
C978 C 0.10089 0.87136 0.10904 0.0
C979 C 0.11942 0.85295 0.03112 0.0
C980 C 0.11402 0.85749 0.07166 0.0
C981 C 0.09985 0.87194 0.18983 0.0
C982 C 0.10449 0.86673 0.1491 0.0
H983 H 0.12773 0.82683 0.98358 0.0
H984 H 0.11777 0.83419 0.04799 0.0
H985 H 0.10276 0.87068 0.04052 0.0
H986 H 0.07405 0.88233 0.23385 0.0
H987 H 0.08143 0.87272 0.16874 0.0
C988 C 0.36139 0.89329 0.2388 0.0
C989 C 0.37123 0.88863 0.21656 0.0
C990 C 0.3567 0.88734 0.27449 0.0
C991 C 0.35553 0.85822 0.33185 0.0
H992 H 0.34546 0.87829 0.42642 0.0
C993 C 0.33665 0.83916 0.49324 0.0
C994 C 0.32619 0.84478 0.50776 0.0
C995 C 0.34324 0.8441 0.45913 0.0
C996 C 0.34818 0.87255 0.40025 0.0
H997 H 0.38363 0.87379 0.21384 0.0
H998 H 0.37545 0.86338 0.27675 0.0
H999 H 0.35473 0.88738 0.36367 0.0
H1000 H 0.31461 0.8601 0.49826 0.0
H1001 H 0.32606 0.86868 0.43952 0.0
H1002 H 0.34886 0.84338 0.36881 0.0
C1003 C 0.37133 0.87165 0.26624 0.0
C1004 C 0.35347 0.87776 0.36414 0.0
C1005 C 0.37604 0.87762 0.23022 0.0
C1006 C 0.32262 0.85553 0.48801 0.0
C1007 C 0.32923 0.8605 0.45439 0.0
C1008 C 0.35025 0.85298 0.36823 0.0
C1009 C 0.36172 0.87656 0.28928 0.0
C1010 C 0.35698 0.87072 0.329 0.0
C1011 C 0.33958 0.85483 0.43928 0.0
C1012 C 0.34629 0.86012 0.40247 0.0
H1013 H 0.35736 0.90167 0.22898 0.0
H1014 H 0.3491 0.89125 0.29063 0.0
H1015 H 0.35808 0.85253 0.30537 0.0
H1016 H 0.33962 0.83084 0.50764 0.0
H1017 H 0.35121 0.83955 0.44841 0.0
C1018 C 0.3575 0.08295 0.75864 0.0
C1019 C 0.36992 0.08275 0.76511 0.0
C1020 C 0.35254 0.08909 0.72366 0.0
C1021 C 0.35969 0.10026 0.61487 0.0
H1022 H 0.33011 0.11775 0.62821 0.0
C1023 C 0.3368 0.12633 0.47403 0.0
C1024 C 0.32427 0.12562 0.47205 0.0
C1025 C 0.34303 0.12167 0.50957 0.0
C1026 C 0.33831 0.11281 0.62375 0.0
H1027 H 0.38685 0.08904 0.73996 0.0
H1028 H 0.37817 0.09979 0.67886 0.0
H1029 H 0.33969 0.1089 0.69095 0.0
H1030 H 0.30855 0.11915 0.50548 0.0
H1031 H 0.31931 0.11095 0.56647 0.0
H1032 H 0.35818 0.10403 0.54745 0.0
C1033 C 0.37228 0.09511 0.70079 0.0
C1034 C 0.34382 0.10774 0.65982 0.0
C1035 C 0.37725 0.08902 0.73602 0.0
C1036 C 0.31818 0.11996 0.50596 0.0
C1037 C 0.32436 0.11532 0.54125 0.0
C1038 C 0.35414 0.10531 0.57865 0.0
C1039 C 0.35986 0.09516 0.69402 0.0
C1040 C 0.35449 0.10125 0.65584 0.0
C1041 C 0.33686 0.11622 0.54389 0.0
C1042 C 0.34327 0.11149 0.58253 0.0
H1043 H 0.35158 0.07821 0.78028 0.0
H1044 H 0.34296 0.08881 0.71924 0.0
H1045 H 0.36784 0.09523 0.61055 0.0
H1046 H 0.34178 0.13064 0.4485 0.0
H1047 H 0.35264 0.12257 0.51057 0.0
C1048 C 0.83755 0.83795 0.98099 0.0
C1049 C 0.83152 0.84555 0.95207 0.0
C1050 C 0.84385 0.84269 0.01604 0.0
C1051 C 0.85755 0.87072 0.0566 0.0
H1052 H 0.85323 0.85641 0.16924 0.0
C1053 C 0.87037 0.89605 0.20992 0.0
C1054 C 0.87574 0.88979 0.24411 0.0
C1055 C 0.86562 0.88996 0.1747 0.0
C1056 C 0.85468 0.86042 0.13795 0.0
H1057 H 0.82763 0.8641 0.93695 0.0
H1058 H 0.8386 0.87232 -0.00232 0.0
H1059 H 0.84411 0.84705 0.10629 0.0
H1060 H 0.88014 0.87211 0.26822 0.0
H1061 H 0.87188 0.86141 0.20622 0.0
H1062 H 0.86803 0.8841 0.08796 0.0
C1063 C 0.83853 0.8627 -0.00673 0.0
C1064 C 0.84945 0.85505 0.10183 0.0
C1065 C 0.83218 0.85798 0.95848 0.0
C1066 C 0.87606 0.87721 0.24246 0.0
C1067 C 0.87129 0.87108 0.20697 0.0
C1068 C 0.86279 0.87605 0.09257 0.0
C1069 C 0.84435 0.85513 0.02276 0.0
C1070 C 0.85065 0.86025 0.06079 0.0
C1071 C 0.86613 0.87741 0.1724 0.0
C1072 C 0.86126 0.87111 0.13387 0.0
H1073 H 0.83722 0.82833 0.97709 0.0
H1074 H 0.84833 0.8366 0.03788 0.0
H1075 H 0.85887 0.87483 0.0254 0.0
H1076 H 0.86985 0.90573 0.21014 0.0
H1077 H 0.86147 0.89514 0.14928 0.0
C1078 C 0.82206 0.11219 0.98111 0.0
C1079 C 0.8267 0.12184 0.00472 0.0
C1080 C 0.82859 0.10707 0.94776 0.0
C1081 C 0.85238 0.11331 0.86947 0.0
H1082 H 0.85174 0.07885 0.85529 0.0
C1083 C 0.87763 0.08826 0.73222 0.0
C1084 C 0.87157 0.07853 0.71352 0.0
C1085 C 0.87294 0.09402 0.76848 0.0
C1086 C 0.85192 0.0885 0.85847 0.0
H1087 H 0.84195 0.13365 0.0118 0.0
H1088 H 0.85341 0.12468 0.95308 0.0
H1089 H 0.8425 0.08777 0.9181 0.0
H1090 H 0.85559 0.06758 0.71739 0.0
H1091 H 0.84742 0.07765 0.77964 0.0
H1092 H 0.86167 0.11401 0.80928 0.0
C1093 C 0.84466 0.12112 0.96053 0.0
C1094 C 0.84664 0.09362 0.89461 0.0
C1095 C 0.83813 0.1262 -0.00566 0.0
C1096 C 0.86058 0.07496 0.73109 0.0
C1097 C 0.85592 0.08069 0.76711 0.0
C1098 C 0.85766 0.10818 0.8331 0.0
C1099 C 0.83994 0.11149 0.93681 0.0
C1100 C 0.8466 0.10609 0.90024 0.0
C1101 C 0.86211 0.09016 0.78683 0.0
C1102 C 0.85729 0.09571 0.82675 0.0
H1103 H 0.81329 0.1086 -0.01188 0.0
H1104 H 0.8246 0.09978 0.92987 0.0
H1105 H 0.85243 0.12296 0.87268 0.0
H1106 H 0.88613 0.09124 0.71955 0.0
H1107 H 0.87797 0.10126 0.78287 0.0
C1108 C 0.59252 0.07052 0.70663 0.0
C1109 C 0.58775 0.07673 0.74182 0.0
C1110 C 0.59725 0.07667 0.67143 0.0
C1111 C 0.60932 0.10605 0.63652 0.0
H1112 H 0.60403 0.09284 0.523 0.0
C1113 C 0.62634 0.12942 0.48091 0.0
C1114 C 0.63195 0.12194 0.45084 0.0
C1115 C 0.62009 0.12454 0.51582 0.0
C1116 C 0.60566 0.09661 0.55447 0.0
H1117 H 0.58435 0.09439 0.76757 0.0
H1118 H 0.59256 0.10521 0.70564 0.0
H1119 H 0.59481 0.08336 0.58521 0.0
H1120 H 0.63513 0.10343 0.43357 0.0
H1121 H 0.62422 0.09496 0.4941 0.0
H1122 H 0.62022 0.11929 0.60551 0.0
C1123 C 0.59271 0.09552 0.7056 0.0
C1124 C 0.60038 0.09116 0.59024 0.0
C1125 C 0.58796 0.08932 0.74104 0.0
C1126 C 0.63091 0.10947 0.45601 0.0
C1127 C 0.6246 0.1046 0.49068 0.0
C1128 C 0.61457 0.11154 0.60062 0.0
C1129 C 0.59734 0.08925 0.67015 0.0
C1130 C 0.60229 0.09567 0.63188 0.0
C1131 C 0.61921 0.11206 0.5213 0.0
C1132 C 0.61296 0.10677 0.55921 0.0
H1133 H 0.59261 0.06082 0.70613 0.0
H1134 H 0.60097 0.07152 0.6453 0.0
H1135 H 0.61108 0.10972 0.66805 0.0
H1136 H 0.62697 0.13907 0.47798 0.0
H1137 H 0.61594 0.13054 0.53854 0.0
C1138 C 0.62682 0.83762 0.48799 0.0
C1139 C 0.63348 0.84502 0.51564 0.0
C1140 C 0.62054 0.84252 0.45309 0.0
C1141 C 0.60814 0.87109 0.41144 0.0
H1142 H 0.61023 0.85586 0.29999 0.0
C1143 C 0.59471 0.89601 0.25711 0.0
C1144 C 0.58857 0.88977 0.22469 0.0
C1145 C 0.5996 0.88996 0.29229 0.0
C1146 C 0.60941 0.86014 0.33098 0.0
H1147 H 0.63856 0.86341 0.52852 0.0
H1148 H 0.62765 0.87189 0.46802 0.0
H1149 H 0.61953 0.84639 0.36257 0.0
H1150 H 0.58294 0.87216 0.20374 0.0
H1151 H 0.59144 0.86154 0.26564 0.0
H1152 H 0.5981 0.88484 0.38011 0.0
C1153 C 0.62719 0.86232 0.47336 0.0
C1154 C 0.61474 0.85471 0.3669 0.0
C1155 C 0.63351 0.85743 0.50802 0.0
C1156 C 0.58762 0.87724 0.2281 0.0
C1157 C 0.59253 0.87115 0.26352 0.0
C1158 C 0.6028 0.87648 0.37567 0.0
C1159 C 0.6207 0.85493 0.44522 0.0
C1160 C 0.61433 0.86022 0.40748 0.0
C1161 C 0.59848 0.87747 0.29632 0.0
C1162 C 0.60352 0.8712 0.33478 0.0
H1163 H 0.6266 0.82802 0.49286 0.0
H1164 H 0.61553 0.83658 0.43234 0.0
H1165 H 0.60743 0.87546 0.44232 0.0
H1166 H 0.59572 0.90565 0.25549 0.0
H1167 H 0.60435 0.89511 0.31629 0.0
C1168 C 0.62434 0.62567 0.49196 0.0
C1169 C 0.63688 0.62621 0.49128 0.0
C1170 C 0.61798 0.62097 0.45687 0.0
C1171 C 0.62152 0.61448 0.34043 0.0
H1172 H 0.59441 0.59333 0.35628 0.0
C1173 C 0.60353 0.5846 0.20425 0.0
C1174 C 0.59113 0.58302 0.20019 0.0
C1175 C 0.60835 0.59074 0.23933 0.0
C1176 C 0.60187 0.59936 0.35126 0.0
H1177 H 0.65254 0.62195 0.45342 0.0
H1178 H 0.64157 0.6137 0.39318 0.0
H1179 H 0.60412 0.60227 0.41889 0.0
H1180 H 0.57406 0.58685 0.22978 0.0
H1181 H 0.58251 0.59761 0.29106 0.0
H1182 H 0.61941 0.61146 0.27298 0.0
C1183 C 0.63657 0.61711 0.42022 0.0
C1184 C 0.60743 0.60449 0.38719 0.0
C1185 C 0.64289 0.62178 0.45507 0.0
C1186 C 0.58366 0.58791 0.23184 0.0
C1187 C 0.5885 0.59401 0.26715 0.0
C1188 C 0.61599 0.60935 0.30463 0.0
C1189 C 0.62404 0.61675 0.42034 0.0
C1190 C 0.61747 0.61196 0.38226 0.0
C1191 C 0.60092 0.59544 0.27145 0.0
C1192 C 0.60621 0.60157 0.30956 0.0
H1193 H 0.61943 0.62901 0.51932 0.0
H1194 H 0.60833 0.62087 0.45801 0.0
H1195 H 0.62904 0.62042 0.33526 0.0
H1196 H 0.60956 0.58094 0.1806 0.0
H1197 H 0.61796 0.59154 0.24181 0.0
C1198 C 0.6046 0.38843 0.74936 0.0
C1199 C 0.59285 0.38612 0.7629 0.0
C1200 C 0.60925 0.38282 0.71303 0.0
C1201 C 0.6052 0.3572 0.63897 0.0
H1202 H 0.6248 0.37678 0.56385 0.0
C1203 C 0.62522 0.33969 0.47781 0.0
C1204 C 0.6373 0.34258 0.47108 0.0
C1205 C 0.61882 0.34498 0.51152 0.0
C1206 C 0.61941 0.37115 0.58458 0.0
H1207 H 0.5769 0.37578 0.74927 0.0
H1208 H 0.58503 0.36599 0.68555 0.0
H1209 H 0.61565 0.3857 0.62683 0.0
H1210 H 0.65203 0.35346 0.49417 0.0
H1211 H 0.64095 0.36261 0.55227 0.0
H1212 H 0.60909 0.34262 0.59651 0.0
C1213 C 0.59066 0.37212 0.7033 0.0
C1214 C 0.61417 0.37626 0.62083 0.0
C1215 C 0.58598 0.37776 0.7398 0.0
C1216 C 0.64274 0.35101 0.49829 0.0
C1217 C 0.63636 0.35633 0.53156 0.0
C1218 C 0.61045 0.35207 0.60252 0.0
C1219 C 0.60229 0.37474 0.68905 0.0
C1220 C 0.60719 0.36932 0.649 0.0
C1221 C 0.62434 0.35337 0.53882 0.0
C1222 C 0.6178 0.35895 0.57532 0.0
H1223 H 0.61019 0.39474 0.76646 0.0
H1224 H 0.61833 0.38486 0.70366 0.0
H1225 H 0.59992 0.35157 0.66003 0.0
H1226 H 0.62077 0.33321 0.4575 0.0
H1227 H 0.60955 0.34255 0.51607 0.0
C1228 C 0.87618 0.37672 0.72975 0.0
C1229 C 0.8701 0.38652 0.71154 0.0
C1230 C 0.87121 0.3703 0.76424 0.0
C1231 C 0.8424 0.36427 0.81857 0.0
H1232 H 0.86172 0.35683 0.9186 0.0
C1233 C 0.82065 0.35143 0.97863 0.0
C1234 C 0.8257 0.34217 0.00337 0.0
C1235 C 0.82667 0.35614 0.94314 0.0
C1236 C 0.85623 0.35869 0.89072 0.0
H1237 H 0.85391 0.39708 0.71498 0.0
H1238 H 0.84529 0.38594 0.7745 0.0
H1239 H 0.87102 0.36589 0.85521 0.0
H1240 H 0.84124 0.33083 0.0107 0.0
H1241 H 0.85177 0.33903 0.94817 0.0
H1242 H 0.82762 0.35718 0.85373 0.0
C1243 C 0.85387 0.38314 0.76215 0.0
C1244 C 0.86157 0.36388 0.85436 0.0
C1245 C 0.85885 0.38958 0.72806 0.0
C1246 C 0.83711 0.33797 -0.00764 0.0
C1247 C 0.84315 0.34269 0.95657 0.0
C1248 C 0.83709 0.35908 0.85471 0.0
C1249 C 0.85999 0.37347 0.78091 0.0
C1250 C 0.85466 0.36694 0.81815 0.0
C1251 C 0.8379 0.35171 0.93108 0.0
C1252 C 0.84387 0.35643 0.89163 0.0
H1253 H 0.88488 0.37414 0.71789 0.0
H1254 H 0.87612 0.36284 0.77775 0.0
H1255 H 0.83685 0.36628 0.79093 0.0
H1256 H 0.81194 0.35499 -0.01364 0.0
H1257 H 0.82246 0.36328 0.92504 0.0
C1258 C 0.86399 0.57184 0.22301 0.0
C1259 C 0.87226 0.57749 0.25027 0.0
C1260 C 0.85923 0.57784 0.18752 0.0
C1261 C 0.8543 0.60776 0.13907 0.0
H1262 H 0.85034 0.5891 0.03517 0.0
C1263 C 0.83662 0.62814 0.97828 0.0
C1264 C 0.82792 0.62126 0.95687 0.0
C1265 C 0.84298 0.62333 0.01318 0.0
C1266 C 0.85131 0.59443 0.06396 0.0
H1267 H 0.88177 0.59408 0.26205 0.0
H1268 H 0.87348 0.6046 0.19948 0.0
H1269 H 0.85945 0.57998 0.09823 0.0
H1270 H 0.81927 0.60388 0.95508 0.0
H1271 H 0.83031 0.59556 0.01543 0.0
H1272 H 0.84605 0.62221 0.10448 0.0
C1273 C 0.87064 0.5955 0.20591 0.0
C1274 C 0.85652 0.58919 0.10023 0.0
C1275 C 0.87541 0.58947 0.24172 0.0
C1276 C 0.82591 0.60943 0.97065 0.0
C1277 C 0.8323 0.60463 0.00522 0.0
C1278 C 0.84909 0.61303 0.1026 0.0
C1279 C 0.86263 0.58967 0.17796 0.0
C1280 C 0.85788 0.59569 0.13857 0.0
C1281 C 0.84087 0.61152 0.02715 0.0
C1282 C 0.84733 0.60635 0.06484 0.0
H1283 H 0.86124 0.56268 0.22879 0.0
H1284 H 0.85285 0.57316 0.16745 0.0
H1285 H 0.85515 0.61302 0.16807 0.0
H1286 H 0.83837 0.63729 0.96858 0.0
H1287 H 0.84958 0.62885 0.02913 0.0
C1288 C 0.31919 0.34365 0.51242 0.0
C1289 C 0.3253 0.33891 0.47696 0.0
C1290 C 0.32541 0.34842 0.5473 0.0
C1291 C 0.35456 0.36076 0.58143 0.0
H1292 H 0.34188 0.35452 0.6952 0.0
C1293 C 0.37762 0.37794 0.73739 0.0
C1294 C 0.37001 0.38306 0.76811 0.0
C1295 C 0.37293 0.3717 0.70214 0.0
C1296 C 0.34551 0.35642 0.66367 0.0
H1297 H 0.34283 0.33566 0.45023 0.0
H1298 H 0.35377 0.34398 0.51163 0.0
H1299 H 0.33248 0.34537 0.63287 0.0
H1300 H 0.35148 0.38543 0.7861 0.0
H1301 H 0.34335 0.37459 0.72499 0.0
H1302 H 0.36754 0.37192 0.61252 0.0
C1303 C 0.34411 0.34404 0.51214 0.0
C1304 C 0.3401 0.35118 0.62785 0.0
C1305 C 0.33785 0.33924 0.47701 0.0
C1306 C 0.35762 0.38158 0.76318 0.0
C1307 C 0.35295 0.3753 0.72817 0.0
C1308 C 0.35999 0.36601 0.6174 0.0
C1309 C 0.33795 0.34857 0.54797 0.0
C1310 C 0.3444 0.35345 0.58615 0.0
C1311 C 0.36053 0.37036 0.69697 0.0
C1312 C 0.3554 0.36407 0.65892 0.0
H1313 H 0.30953 0.34366 0.51348 0.0
H1314 H 0.32035 0.35207 0.57376 0.0
H1315 H 0.35806 0.36278 0.54983 0.0
H1316 H 0.38721 0.37892 0.74014 0.0
H1317 H 0.37903 0.36791 0.67896 0.0
C1318 C 0.33721 0.62849 0.48461 0.0
C1319 C 0.33135 0.62099 0.51427 0.0
C1320 C 0.34346 0.62363 0.44981 0.0
C1321 C 0.35731 0.59554 0.41099 0.0
H1322 H 0.3525 0.60916 0.29749 0.0
C1323 C 0.3699 0.56959 0.25887 0.0
C1324 C 0.37498 0.57577 0.22394 0.0
C1325 C 0.36527 0.57577 0.29397 0.0
C1326 C 0.35409 0.60535 0.32901 0.0
H1327 H 0.32773 0.60247 0.531 0.0
H1328 H 0.33862 0.59405 0.47072 0.0
H1329 H 0.3435 0.61875 0.35997 0.0
H1330 H 0.37903 0.5934 0.19851 0.0
H1331 H 0.37099 0.60427 0.26026 0.0
H1332 H 0.36782 0.58213 0.38031 0.0
C1333 C 0.33845 0.60368 0.47434 0.0
C1334 C 0.34893 0.61084 0.36487 0.0
C1335 C 0.33215 0.60853 0.50888 0.0
C1336 C 0.37517 0.58836 0.22484 0.0
C1337 C 0.37053 0.59458 0.26019 0.0
C1338 C 0.36249 0.59009 0.37526 0.0
C1339 C 0.34409 0.61116 0.44407 0.0
C1340 C 0.35031 0.60589 0.40625 0.0
C1341 C 0.36561 0.58835 0.29541 0.0
C1342 C 0.36079 0.59477 0.33366 0.0
H1343 H 0.33677 0.63813 0.48772 0.0
H1344 H 0.3478 0.62965 0.42737 0.0
H1345 H 0.35877 0.59162 0.44243 0.0
H1346 H 0.3695 0.5599 0.25927 0.0
H1347 H 0.36132 0.57065 0.31992 0.0
C1348 C 0.14459 0.61658 0.00166 0.0
C1349 C 0.13881 0.62397 0.97149 0.0
C1350 C 0.13844 0.61191 0.03691 0.0
C1351 C 0.1083 0.60535 0.07985 0.0
H1352 H 0.12535 0.60432 0.18836 0.0
C1353 C 0.08638 0.5887 0.23903 0.0
C1354 C 0.09338 0.58095 0.26437 0.0
C1355 C 0.09138 0.59482 0.20393 0.0
C1356 C 0.12047 0.60445 0.15828 0.0
H1357 H 0.12186 0.63202 0.95443 0.0
H1358 H 0.11107 0.62389 0.01648 0.0
H1359 H 0.13486 0.61313 0.12556 0.0
H1360 H 0.11119 0.57376 0.27289 0.0
H1361 H 0.11985 0.58436 0.21212 0.0
H1362 H 0.09392 0.59657 0.11284 0.0
C1363 C 0.1204 0.62166 0.01254 0.0
C1364 C 0.12594 0.6095 0.12216 0.0
C1365 C 0.12659 0.62635 0.97702 0.0
C1366 C 0.10553 0.57967 0.25424 0.0
C1367 C 0.11052 0.58581 0.21942 0.0
C1368 C 0.1028 0.6003 0.11614 0.0
C1369 C 0.1263 0.61451 0.04329 0.0
C1370 C 0.12003 0.60983 0.08224 0.0
C1371 C 0.10351 0.59341 0.19358 0.0
C1372 C 0.10891 0.5996 0.15566 0.0
H1373 H 0.15397 0.61444 -0.00168 0.0
H1374 H 0.14323 0.60621 0.05925 0.0
H1375 H 0.1035 0.60538 0.04962 0.0
H1376 H 0.07698 0.58988 0.24584 0.0
H1377 H 0.08575 0.60069 0.18498 0.0
C1378 C 0.08577 0.37744 0.73245 0.0
C1379 C 0.09332 0.38283 0.70185 0.0
C1380 C 0.09054 0.37127 0.76786 0.0
C1381 C 0.11825 0.35669 0.80705 0.0
H1382 H 0.10524 0.36233 0.9205 0.0
C1383 C 0.14435 0.34394 0.9592 0.0
C1384 C 0.1382 0.33893 -0.0057 0.0
C1385 C 0.13816 0.34872 0.92415 0.0
C1386 C 0.10888 0.36052 0.88901 0.0
H1387 H 0.11182 0.38573 0.6843 0.0
H1388 H 0.12008 0.37502 0.74569 0.0
H1389 H 0.09573 0.37141 0.85759 0.0
H1390 H 0.12064 0.33522 0.0202 0.0
H1391 H 0.10977 0.34355 0.95853 0.0
H1392 H 0.13143 0.34588 0.83819 0.0
C1393 C 0.11048 0.37548 0.74228 0.0
C1394 C 0.10342 0.36572 0.8529 0.0
C1395 C 0.10572 0.38169 0.70711 0.0
C1396 C 0.12565 0.33901 -0.00629 0.0
C1397 C 0.11943 0.34382 0.95842 0.0
C1398 C 0.12367 0.35148 0.84301 0.0
C1399 C 0.10296 0.37026 0.77333 0.0
C1400 C 0.10816 0.36403 0.81152 0.0
C1401 C 0.12562 0.34861 0.92295 0.0
C1402 C 0.1192 0.35349 0.88458 0.0
H1403 H 0.07617 0.37815 0.72946 0.0
H1404 H 0.08449 0.36726 0.79091 0.0
H1405 H 0.12199 0.35497 0.77563 0.0
H1406 H 0.15401 0.34414 0.95856 0.0
H1407 H 0.14325 0.35257 0.89797 0.0
C1408 C 0.13404 0.27838 0.08696 0.0
C1409 C 0.13665 0.28221 0.12891 0.0
C1410 C 0.13003 0.26664 0.07962 0.0
C1411 C 0.11892 0.23901 0.135 0.0
H1412 H 0.13897 0.22235 0.05356 0.0
C1413 C 0.1352 0.19121 0.16026 0.0
C1414 C 0.13724 0.18365 0.12509 0.0
C1415 C 0.13097 0.20283 0.15406 0.0
C1416 C 0.13306 0.22685 0.07569 0.0
H1417 H 0.13617 0.27714 0.19616 0.0
H1418 H 0.12914 0.2569 0.18358 0.0
H1419 H 0.1388 0.24416 0.05428 0.0
H1420 H 0.13585 0.18213 0.0559 0.0
H1421 H 0.12856 0.20263 0.0449 0.0
H1422 H 0.11372 0.22168 0.15807 0.0
C1423 C 0.13017 0.26282 0.1562 0.0
C1424 C 0.13295 0.23938 0.0761 0.0
C1425 C 0.13429 0.27443 0.16345 0.0
C1426 C 0.1343 0.18774 0.08364 0.0
C1427 C 0.13022 0.19949 0.07733 0.0
C1428 C 0.11904 0.22649 0.13465 0.0
C1429 C 0.12839 0.25863 0.11416 0.0
C1430 C 0.12628 0.24561 0.107 0.0
C1431 C 0.12881 0.20726 0.11245 0.0
C1432 C 0.1265 0.22027 0.10621 0.0
H1433 H 0.13582 0.28416 0.05971 0.0
H1434 H 0.12864 0.26371 0.04687 0.0
H1435 H 0.11349 0.24353 0.15866 0.0
H1436 H 0.13735 0.1883 0.19261 0.0
H1437 H 0.13012 0.20858 0.18182 0.0
C1438 C 0.9397 0.88634 0.41741 0.0
C1439 C 0.93209 0.88851 0.38233 0.0
C1440 C 0.95138 0.88246 0.41102 0.0
C1441 C 0.9751 0.88559 0.33203 0.0
H1442 H -0.00735 0.86677 0.41576 0.0
C1443 C 0.02663 0.88727 0.34102 0.0
C1444 C 0.03066 0.89026 0.38243 0.0
C1445 C 0.01489 0.88324 0.33465 0.0
C1446 C -0.01212 0.87199 0.39189 0.0
H1447 H 0.93052 0.88756 0.31306 0.0
H1448 H 0.95108 0.88078 0.30172 0.0
H1449 H 0.97088 0.86619 0.41543 0.0
H1450 H 0.02586 0.89056 0.44983 0.0
H1451 H 0.00559 0.88343 0.43891 0.0
H1452 H -0.0079 0.89183 0.30984 0.0
C1453 C 0.94797 0.88215 0.33424 0.0
C1454 C 0.97541 0.87166 0.39171 0.0
C1455 C 0.93617 0.88592 0.34072 0.0
C1456 C 0.02301 0.88838 0.41751 0.0
C1457 C 0.0114 0.8842 0.41125 0.0
C1458 C -0.0124 0.8859 0.33215 0.0
C1459 C 0.95581 0.88072 0.3693 0.0
C1460 C 0.96886 0.87886 0.36299 0.0
C1461 C 0.00706 0.88192 0.36967 0.0
C1462 C -0.00589 0.87948 0.36326 0.0
H1463 H 0.93681 0.88822 0.44988 0.0
H1464 H 0.95716 0.88159 0.43878 0.0
H1465 H 0.97036 0.89132 0.30967 0.0
H1466 H 0.03231 0.88868 0.31335 0.0
H1467 H 0.01183 0.88149 0.30225 0.0
C1468 C 0.32453 0.77828 0.59254 0.0
C1469 C 0.32436 0.78397 0.63269 0.0
C1470 C 0.32789 0.76621 0.58947 0.0
C1471 C 0.32721 0.73969 0.65965 0.0
H1472 H 0.3414 0.72313 0.56331 0.0
C1473 C 0.32925 0.68909 0.66398 0.0
C1474 C 0.32503 0.68325 0.62715 0.0
C1475 C 0.33267 0.7011 0.66214 0.0
C1476 C 0.33741 0.72764 0.59042 0.0
H1477 H 0.3287 0.78202 0.70012 0.0
H1478 H 0.3351 0.76128 0.69457 0.0
H1479 H 0.34122 0.7451 0.5645 0.0
H1480 H 0.32183 0.68507 0.55886 0.0
H1481 H 0.32748 0.70627 0.5557 0.0
H1482 H 0.32299 0.72249 0.6851 0.0
C1483 C 0.33222 0.76587 0.66567 0.0
C1484 C 0.33731 0.74022 0.5911 0.0
C1485 C 0.32867 0.7778 0.66884 0.0
C1486 C 0.32517 0.68937 0.58764 0.0
C1487 C 0.32839 0.70151 0.5859 0.0
C1488 C 0.32731 0.72723 0.65898 0.0
C1489 C 0.33124 0.75972 0.62647 0.0
C1490 C 0.33218 0.7464 0.62581 0.0
C1491 C 0.33164 0.70766 0.62362 0.0
C1492 C 0.33239 0.721 0.62444 0.0
H1493 H 0.32114 0.78282 0.56426 0.0
H1494 H 0.32701 0.76176 0.55877 0.0
H1495 H 0.32282 0.74407 0.68626 0.0
H1496 H 0.32929 0.68454 0.69479 0.0
H1497 H 0.33548 0.70543 0.69156 0.0
C1498 C 0.43822 0.07842 0.83933 0.0
C1499 C 0.43224 0.07856 0.87893 0.0
C1500 C 0.4503 0.08173 0.83699 0.0
C1501 C 0.47615 0.08145 0.90979 0.0
H1502 H 0.49359 0.09466 0.81316 0.0
C1503 C 0.52658 0.08315 0.91852 0.0
C1504 C 0.53263 0.07854 0.88287 0.0
C1505 C 0.51466 0.08663 0.9151 0.0
C1506 C 0.48883 0.09095 0.84036 0.0
H1507 H 0.43369 0.08341 0.94595 0.0
H1508 H 0.45445 0.08976 0.94158 0.0
H1509 H 0.47168 0.09471 0.81233 0.0
H1510 H 0.53128 0.0747 0.81495 0.0
H1511 H 0.51025 0.08046 0.80905 0.0
H1512 H 0.49304 0.07729 0.93738 0.0
C1513 C 0.45007 0.08667 0.91262 0.0
C1514 C 0.47629 0.09097 0.83989 0.0
C1515 C 0.43813 0.08316 0.91509 0.0
C1516 C 0.52683 0.07834 0.84283 0.0
C1517 C 0.51477 0.08162 0.83953 0.0
C1518 C 0.48857 0.08142 0.91026 0.0
C1519 C 0.4565 0.08535 0.87417 0.0
C1520 C 0.4698 0.0862 0.87468 0.0
C1521 C 0.50841 0.08527 0.87617 0.0
C1522 C 0.49512 0.08615 0.87564 0.0
H1523 H 0.43389 0.07478 0.81109 0.0
H1524 H 0.45496 0.08059 0.80686 0.0
H1525 H 0.47153 0.07732 0.93656 0.0
H1526 H 0.53088 0.08346 0.94971 0.0
H1527 H 0.51016 0.08975 0.94369 0.0
C1528 C 0.1316 0.77702 0.80544 0.0
C1529 C 0.13632 0.78295 0.84131 0.0
C1530 C 0.12819 0.76502 0.80829 0.0
C1531 C 0.12446 0.73867 0.88182 0.0
H1532 H 0.13757 0.72196 0.78387 0.0
C1533 C 0.13758 0.68811 0.87924 0.0
C1534 C 0.13717 0.68229 0.83935 0.0
C1535 C 0.13416 0.70016 0.88249 0.0
C1536 C 0.13359 0.72641 0.81114 0.0
H1537 H 0.14043 0.7813 0.90902 0.0
H1538 H 0.1348 0.76013 0.91388 0.0
H1539 H 0.13739 0.74354 0.78421 0.0
H1540 H 0.13176 0.68396 0.77285 0.0
H1541 H 0.12524 0.70466 0.77884 0.0
H1542 H 0.12109 0.72129 0.90918 0.0
C1543 C 0.13348 0.7648 0.88371 0.0
C1544 C 0.13349 0.73888 0.81133 0.0
C1545 C 0.1367 0.77694 0.881 0.0
C1546 C 0.13222 0.68828 0.80391 0.0
C1547 C 0.12861 0.70019 0.8073 0.0
C1548 C 0.12457 0.72609 0.88163 0.0
C1549 C 0.12973 0.75856 0.8468 0.0
C1550 C 0.12895 0.74522 0.8466 0.0
C1551 C 0.13017 0.70649 0.84597 0.0
C1552 C 0.12917 0.71981 0.84621 0.0
H1553 H 0.13117 0.78149 0.77452 0.0
H1554 H 0.12498 0.76062 0.77954 0.0
H1555 H 0.12089 0.74326 0.9095 0.0
H1556 H 0.14148 0.6837 0.90693 0.0
H1557 H 0.13549 0.70472 0.91276 0.0
C1558 C 0.43708 0.8833 0.05379 0.0
C1559 C 0.43122 0.8882 0.08933 0.0
C1560 C 0.44896 0.87967 0.05698 0.0
C1561 C 0.475 0.87561 0.13127 0.0
H1562 H 0.49218 0.8879 0.03254 0.0
C1563 C 0.52573 0.88768 0.1282 0.0
C1564 C 0.53158 0.8869 0.08845 0.0
C1565 C 0.51364 0.8845 0.13166 0.0
C1566 C 0.48759 0.88415 0.06006 0.0
H1567 H 0.43285 0.89246 0.15683 0.0
H1568 H 0.45382 0.88647 0.16228 0.0
H1569 H 0.47068 0.88825 0.03256 0.0
H1570 H 0.52987 0.88108 0.02252 0.0
H1571 H 0.50907 0.875 0.02892 0.0
H1572 H 0.49219 0.87195 0.15919 0.0
C1573 C 0.44918 0.88516 0.13211 0.0
C1574 C 0.47516 0.88435 0.06007 0.0
C1575 C 0.43716 0.88858 0.12907 0.0
C1576 C 0.52553 0.88181 0.05348 0.0
C1577 C 0.51358 0.87846 0.05709 0.0
C1578 C 0.48754 0.87543 0.13128 0.0
C1579 C 0.45537 0.88119 0.09551 0.0
C1580 C 0.46865 0.8801 0.09559 0.0
C1581 C 0.50728 0.8804 0.09547 0.0
C1582 C 0.49398 0.87972 0.09559 0.0
H1583 H 0.43266 0.88286 0.02283 0.0
H1584 H 0.45331 0.87629 0.02847 0.0
H1585 H 0.47028 0.87225 0.15916 0.0
H1586 H 0.53018 0.8917 0.15552 0.0
H1587 H 0.50909 0.88613 0.16171 0.0
C1588 C 0.3312 0.18836 0.29974 0.0
C1589 C 0.32639 0.18229 0.33522 0.0
C1590 C 0.33473 0.20031 0.30316 0.0
C1591 C 0.33873 0.22623 0.37757 0.0
H1592 H 0.32537 0.24353 0.28067 0.0
C1593 C 0.32603 0.27688 0.37794 0.0
C1594 C 0.32617 0.28293 0.33831 0.0
C1595 C 0.32939 0.26479 0.38036 0.0
C1596 C 0.32943 0.23892 0.30764 0.0
H1597 H 0.32226 0.18361 0.4029 0.0
H1598 H 0.32811 0.20469 0.40879 0.0
H1599 H 0.32546 0.22196 0.28012 0.0
H1600 H 0.33102 0.28161 0.27129 0.0
H1601 H 0.33748 0.26085 0.2758 0.0
H1602 H 0.34231 0.24344 0.4055 0.0
C1603 C 0.32939 0.20016 0.37846 0.0
C1604 C 0.32947 0.22646 0.30732 0.0
C1605 C 0.32606 0.18808 0.37517 0.0
C1606 C 0.33078 0.27711 0.30217 0.0
C1607 C 0.33435 0.26517 0.30473 0.0
C1608 C 0.33869 0.23882 0.37787 0.0
C1609 C 0.33322 0.20657 0.3419 0.0
C1610 C 0.33409 0.2199 0.34221 0.0
C1611 C 0.33306 0.25864 0.34323 0.0
C1612 C 0.33401 0.24531 0.34284 0.0
H1613 H 0.33161 0.18407 0.26863 0.0
H1614 H 0.33798 0.20485 0.27467 0.0
H1615 H 0.34236 0.22147 0.40498 0.0
H1616 H 0.32238 0.28115 0.40616 0.0
H1617 H 0.32826 0.26007 0.41053 0.0
C1618 C 0.94043 0.08079 0.55719 0.0
C1619 C 0.93301 0.07814 0.59227 0.0
C1620 C 0.95209 0.08479 0.56362 0.0
C1621 C 0.97621 0.08108 0.64095 0.0
H1622 H -0.00679 0.10106 0.55926 0.0
C1623 C 0.02763 0.07975 0.62872 0.0
C1624 C 0.0314 0.07728 0.58663 0.0
C1625 C 0.01596 0.08372 0.63643 0.0
C1626 C -0.01141 0.09552 0.58256 0.0
H1627 H 0.93174 0.07831 0.66169 0.0
H1628 H 0.95229 0.08529 0.67309 0.0
H1629 H 0.97144 0.1014 0.56078 0.0
H1630 H 0.02623 0.07789 0.51953 0.0
H1631 H 0.00608 0.08491 0.53277 0.0
H1632 H -0.00665 0.07476 0.66126 0.0
C1633 C 0.94904 0.08423 0.64054 0.0
C1634 C 0.97612 0.09571 0.58344 0.0
C1635 C 0.93725 0.08034 0.63403 0.0
C1636 C 0.02358 0.07967 0.55234 0.0
C1637 C 0.01203 0.08378 0.55995 0.0
C1638 C -0.0113 0.08091 0.64013 0.0
C1639 C 0.9567 0.08615 0.60536 0.0
C1640 C 0.96976 0.08811 0.61136 0.0
C1641 C 0.00794 0.08549 0.60212 0.0
C1642 C -0.00498 0.08775 0.60968 0.0
H1643 H 0.9374 0.07921 0.52462 0.0
H1644 H 0.95773 0.08605 0.53575 0.0
H1645 H 0.97162 0.07504 0.66266 0.0
H1646 H 0.03344 0.07794 0.65582 0.0
H1647 H 0.01309 0.08503 0.66927 0.0
C1648 C 0.82563 0.68891 0.87686 0.0
C1649 C 0.82557 0.68304 0.83703 0.0
C1650 C 0.82906 0.70098 0.87948 0.0
C1651 C 0.8286 0.72711 0.80776 0.0
H1652 H 0.84239 0.74423 0.90395 0.0
C1653 C 0.82995 0.77773 0.80141 0.0
C1654 C 0.82567 0.78361 0.83797 0.0
C1655 C 0.83352 0.76579 0.80377 0.0
C1656 C 0.83851 0.73956 0.87687 0.0
H1657 H 0.83023 0.68466 0.76984 0.0
H1658 H 0.83675 0.70541 0.77465 0.0
H1659 H 0.84238 0.72225 0.9039 0.0
H1660 H 0.82252 0.78195 0.90629 0.0
H1661 H 0.8284 0.76086 0.91034 0.0
H1662 H 0.82428 0.74415 0.78126 0.0
C1663 C 0.83373 0.70095 0.8036 0.0
C1664 C 0.83851 0.72698 0.87684 0.0
C1665 C 0.83011 0.68902 0.80087 0.0
C1666 C 0.82589 0.77762 0.87771 0.0
C1667 C 0.82926 0.76554 0.87996 0.0
C1668 C 0.82858 0.73957 0.80781 0.0
C1669 C 0.8326 0.70728 0.84234 0.0
C1670 C 0.83352 0.72061 0.84222 0.0
C1671 C 0.83258 0.75933 0.84254 0.0
C1672 C 0.83351 0.74601 0.8423 0.0
H1673 H 0.82206 0.6845 0.90513 0.0
H1674 H 0.82807 0.70557 0.90983 0.0
H1675 H 0.82432 0.72257 0.78117 0.0
H1676 H 0.82993 0.78219 0.77044 0.0
H1677 H 0.83639 0.76143 0.77458 0.0
C1678 C 0.63532 0.19242 0.30814 0.0
C1679 C 0.63757 0.18468 0.34288 0.0
C1680 C 0.63104 0.20397 0.31502 0.0
C1681 C 0.63324 0.22753 0.39461 0.0
H1682 H 0.61352 0.24464 0.31248 0.0
C1683 C 0.63415 0.2791 0.38556 0.0
C1684 C 0.6368 0.28313 0.34382 0.0
C1685 C 0.63011 0.26734 0.39239 0.0
C1686 C 0.61898 0.24 0.33593 0.0
H1687 H 0.63645 0.18275 0.41203 0.0
H1688 H 0.62905 0.20311 0.42423 0.0
H1689 H 0.61377 0.22279 0.31213 0.0
H1690 H 0.63638 0.27839 0.2764 0.0
H1691 H 0.62927 0.25811 0.28808 0.0
H1692 H 0.63898 0.24472 0.41679 0.0
C1693 C 0.63061 0.20018 0.3916 0.0
C1694 C 0.61913 0.22748 0.33573 0.0
C1695 C 0.63475 0.1885 0.38462 0.0
C1696 C 0.63445 0.27553 0.30895 0.0
C1697 C 0.6303 0.2639 0.31568 0.0
C1698 C 0.63311 0.24006 0.39479 0.0
C1699 C 0.62901 0.20815 0.3569 0.0
C1700 C 0.62665 0.22111 0.36383 0.0
C1701 C 0.62848 0.2595 0.35754 0.0
C1702 C 0.62638 0.24644 0.36419 0.0
H1703 H 0.63736 0.18972 0.27558 0.0
H1704 H 0.63005 0.20987 0.28756 0.0
H1705 H 0.63921 0.22292 0.4165 0.0
H1706 H 0.63593 0.28474 0.41306 0.0
H1707 H 0.6287 0.26424 0.425 0.0
C1708 C 0.82644 0.27658 0.09251 0.0
C1709 C 0.82683 0.28243 0.13233 0.0
C1710 C 0.82979 0.2645 0.08945 0.0
C1711 C 0.83006 0.23832 0.16117 0.0
H1712 H 0.84259 0.22126 0.06298 0.0
C1713 C 0.83137 0.1877 0.16716 0.0
C1714 C 0.82657 0.18182 0.13132 0.0
C1715 C 0.83496 0.19964 0.16426 0.0
C1716 C 0.83907 0.22591 0.09062 0.0
H1717 H 0.83214 0.28079 0.19894 0.0
H1718 H 0.83854 0.26004 0.19329 0.0
H1719 H 0.84265 0.24324 0.06313 0.0
H1720 H 0.82249 0.18351 0.0636 0.0
H1721 H 0.82844 0.20459 0.05864 0.0
H1722 H 0.82605 0.22126 0.18821 0.0
C1723 C 0.83524 0.26451 0.16472 0.0
C1724 C 0.8391 0.23849 0.09071 0.0
C1725 C 0.8317 0.27644 0.16792 0.0
C1726 C 0.82629 0.18782 0.09159 0.0
C1727 C 0.82968 0.19991 0.08883 0.0
C1728 C 0.83002 0.22586 0.16107 0.0
C1729 C 0.83368 0.25818 0.12612 0.0
C1730 C 0.83457 0.24485 0.12605 0.0
C1731 C 0.83352 0.20611 0.12571 0.0
C1732 C 0.83449 0.21944 0.12586 0.0
H1733 H 0.82259 0.28098 0.0647 0.0
H1734 H 0.82846 0.25993 0.05921 0.0
H1735 H 0.82613 0.24283 0.18838 0.0
H1736 H 0.83172 0.18323 0.19812 0.0
H1737 H 0.83823 0.204 0.193 0.0
C1738 C 0.63652 0.68783 0.58919 0.0
C1739 C 0.63622 0.68191 0.62907 0.0
C1740 C 0.63328 0.69993 0.58615 0.0
C1741 C 0.63336 0.72601 0.65779 0.0
H1742 H 0.62095 0.74332 0.55927 0.0
C1743 C 0.6323 0.7766 0.66344 0.0
C1744 C 0.63728 0.7825 0.62786 0.0
C1745 C 0.62862 0.7647 0.66041 0.0
C1746 C 0.62443 0.7386 0.587 0.0
H1747 H 0.63117 0.68348 0.69582 0.0
H1748 H 0.62491 0.70429 0.69021 0.0
H1749 H 0.62067 0.72135 0.55968 0.0
H1750 H 0.64157 0.7809 0.5604 0.0
H1751 H 0.63546 0.75986 0.55523 0.0
H1752 H 0.63751 0.743 0.68472 0.0
C1753 C 0.62809 0.69984 0.66158 0.0
C1754 C 0.62428 0.72601 0.58724 0.0
C1755 C 0.63154 0.68788 0.66477 0.0
C1756 C 0.63765 0.77656 0.58819 0.0
C1757 C 0.63416 0.76451 0.58531 0.0
C1758 C 0.6335 0.73847 0.65757 0.0
C1759 C 0.62957 0.70623 0.62288 0.0
C1760 C 0.62878 0.71957 0.6227 0.0
C1761 C 0.63014 0.75829 0.622 0.0
C1762 C 0.62908 0.74497 0.62224 0.0
H1763 H 0.64022 0.68343 0.5613 0.0
H1764 H 0.63455 0.70454 0.55584 0.0
H1765 H 0.63728 0.72143 0.68509 0.0
H1766 H 0.63186 0.78102 0.69433 0.0
H1767 H 0.62523 0.76031 0.68898 0.0
C1768 C 0.52542 0.38743 0.84416 0.0
C1769 C 0.53139 0.3871 0.88388 0.0
C1770 C 0.5133 0.3843 0.84161 0.0
C1771 C 0.4876 0.38543 0.91377 0.0
H1772 H 0.46965 0.37226 0.81837 0.0
C1773 C 0.4371 0.38557 0.92189 0.0
C1774 C 0.4311 0.38977 0.88525 0.0
C1775 C 0.44894 0.38183 0.91931 0.0
C1776 C 0.47455 0.37598 0.84521 0.0
H1777 H 0.52988 0.38206 0.95082 0.0
H1778 H 0.50901 0.37608 0.94609 0.0
H1779 H 0.49154 0.37152 0.81765 0.0
H1780 H 0.43247 0.39267 0.81666 0.0
H1781 H 0.4534 0.38653 0.81223 0.0
H1782 H 0.47091 0.39037 0.94073 0.0
C1783 C 0.51346 0.37914 0.9172 0.0
C1784 C 0.48708 0.37554 0.84481 0.0
C1785 C 0.52544 0.38244 0.91988 0.0
C1786 C 0.4369 0.38938 0.84533 0.0
C1787 C 0.44889 0.38586 0.84286 0.0
C1788 C 0.47519 0.38591 0.9141 0.0
C1789 C 0.50704 0.38071 0.87869 0.0
C1790 C 0.49375 0.38028 0.87918 0.0
C1791 C 0.4552 0.38253 0.88024 0.0
C1792 C 0.46845 0.38121 0.87992 0.0
H1793 H 0.52979 0.39111 0.81604 0.0
H1794 H 0.50864 0.38561 0.81144 0.0
H1795 H 0.4924 0.38952 0.94016 0.0
H1796 H 0.43278 0.38569 0.95299 0.0
H1797 H 0.45337 0.37895 0.94852 0.0
C1798 C 0.93683 0.57857 0.34259 0.0
C1799 C 0.93099 0.57878 0.38247 0.0
C1800 C 0.94888 0.5819 0.33959 0.0
C1801 C 0.97501 0.58184 0.41113 0.0
H1802 H -0.00795 0.59478 0.31311 0.0
C1803 C 0.02547 0.58321 0.41677 0.0
C1804 C 0.0313 0.57848 0.38084 0.0
C1805 C 0.01358 0.58682 0.414 0.0
C1806 C -0.01259 0.59115 0.34071 0.0
H1807 H 0.93268 0.58376 0.4493 0.0
H1808 H 0.95341 0.59015 0.44376 0.0
H1809 H 0.97015 0.59484 0.31348 0.0
H1810 H 0.02959 0.57455 0.31309 0.0
H1811 H 0.0086 0.58054 0.30836 0.0
H1812 H -0.00799 0.57773 0.43793 0.0
C1813 C 0.94893 0.58699 0.41509 0.0
C1814 C 0.97486 0.59118 0.34092 0.0
C1815 C 0.93701 0.58346 0.41823 0.0
C1816 C 0.02531 0.5783 0.34116 0.0
C1817 C 0.01328 0.58171 0.33853 0.0
C1818 C -0.01256 0.58181 0.41093 0.0
C1819 C 0.95522 0.58561 0.37637 0.0
C1820 C 0.96851 0.58649 0.3762 0.0
C1821 C 0.00713 0.58547 0.37549 0.0
C1822 C -0.00616 0.58643 0.37578 0.0
H1823 H 0.9324 0.57487 0.31465 0.0
H1824 H 0.95343 0.58071 0.30926 0.0
H1825 H 0.9705 0.57779 0.43829 0.0
H1826 H 0.02992 0.5835 0.44769 0.0
H1827 H 0.00925 0.59003 0.4428 0.0
C1828 C 0.9372 0.38296 0.55424 0.0
C1829 C 0.93138 0.38771 0.59014 0.0
C1830 C 0.94912 0.37946 0.55692 0.0
C1831 C 0.97543 0.37547 0.6296 0.0
H1832 H -0.008 0.38932 0.53215 0.0
C1833 C 0.02592 0.38841 0.62714 0.0
C1834 C 0.03169 0.38837 0.58714 0.0
C1835 C 0.01387 0.38506 0.63023 0.0
C1836 C -0.01241 0.38513 0.55925 0.0
H1837 H 0.93311 0.39174 0.6578 0.0
H1838 H 0.95415 0.38593 0.66239 0.0
H1839 H 0.97049 0.38906 0.53291 0.0
H1840 H 0.0299 0.38365 0.52009 0.0
H1841 H 0.0092 0.37723 0.52571 0.0
H1842 H -0.00722 0.37192 0.65634 0.0
C1843 C 0.94945 0.38468 0.63231 0.0
C1844 C 0.97517 0.38498 0.55969 0.0
C1845 C 0.93739 0.38799 0.62977 0.0
C1846 C 0.02561 0.38386 0.55124 0.0
C1847 C 0.01371 0.3803 0.55444 0.0
C1848 C -0.01203 0.3756 0.62913 0.0
C1849 C 0.9556 0.38094 0.59532 0.0
C1850 C 0.96888 0.38018 0.5948 0.0
C1851 C 0.00748 0.38148 0.5934 0.0
C1852 C -0.0058 0.38047 0.59388 0.0
H1853 H 0.93273 0.38261 0.52337 0.0
H1854 H 0.95347 0.37629 0.52811 0.0
H1855 H 0.97087 0.3717 0.65717 0.0
H1856 H 0.0304 0.39196 0.65523 0.0
H1857 H 0.00938 0.3861 0.66073 0.0
C1858 C 0.43836 0.57924 0.05141 0.0
C1859 C 0.43066 0.57689 0.08597 0.0
C1860 C 0.45 0.58322 0.05862 0.0
C1861 C 0.47359 0.58007 0.13821 0.0
H1862 H 0.49097 0.59994 0.05723 0.0
C1863 C 0.5251 0.57912 0.13048 0.0
C1864 C 0.52915 0.57659 0.08879 0.0
C1865 C 0.51334 0.58302 0.13707 0.0
C1866 C 0.48625 0.59443 0.08035 0.0
H1867 H 0.4289 0.57752 0.15522 0.0
H1868 H 0.44941 0.58442 0.16798 0.0
H1869 H 0.46919 0.60005 0.05668 0.0
H1870 H 0.52442 0.57701 0.02126 0.0
H1871 H 0.50414 0.58389 0.03256 0.0
H1872 H 0.49064 0.57398 0.16036 0.0
C1873 C 0.44638 0.58316 0.13524 0.0
C1874 C 0.47377 0.59449 0.08003 0.0
C1875 C 0.43462 0.57931 0.12794 0.0
C1876 C 0.52154 0.57884 0.05378 0.0
C1877 C 0.50992 0.58287 0.06028 0.0
C1878 C 0.48608 0.58002 0.13854 0.0
C1879 C 0.4543 0.58485 0.10065 0.0
C1880 C 0.46729 0.58692 0.1077 0.0
C1881 C 0.50553 0.58464 0.10203 0.0
C1882 C 0.49255 0.58682 0.10838 0.0
H1883 H 0.43555 0.5775 0.01869 0.0
H1884 H 0.45584 0.58429 0.03121 0.0
H1885 H 0.46889 0.57407 0.15977 0.0
H1886 H 0.53074 0.57741 0.15809 0.0
H1887 H 0.51024 0.58438 0.16961 0.0
C1888 C 0.13853 0.13524 0.27933 0.0
C1889 C 0.13695 0.13372 0.23479 0.0
C1890 C 0.13162 0.1288 0.30877 0.0
C1891 C 0.11286 0.10161 0.31881 0.0
H1892 H 0.10208 0.11677 0.42367 0.0
C1893 C 0.07928 0.07872 0.43219 0.0
C1894 C 0.08141 0.0793 0.47674 0.0
C1895 C 0.08597 0.0856 0.40346 0.0
C1896 C 0.10514 0.11237 0.39478 0.0
H1897 H 0.12669 0.12423 0.18651 0.0
H1898 H 0.11449 0.1131 0.23798 0.0
H1899 H 0.11358 0.12832 0.37139 0.0
H1900 H 0.09219 0.08783 0.52584 0.0
H1901 H 0.10393 0.0999 0.47537 0.0
H1902 H 0.10436 0.08569 0.34208 0.0
C1903 C 0.12124 0.11918 0.25008 0.0
C1904 C 0.11173 0.11899 0.36474 0.0
C1905 C 0.12819 0.12561 0.22052 0.0
C1906 C 0.0903 0.08715 0.4918 0.0
C1907 C 0.097 0.0941 0.46288 0.0
C1908 C 0.10624 0.09502 0.34874 0.0
C1909 C 0.12289 0.12067 0.29463 0.0
C1910 C 0.11568 0.1137 0.32633 0.0
C1911 C 0.09498 0.0933 0.41831 0.0
C1912 C 0.10227 0.10031 0.38707 0.0
H1913 H 0.14521 0.14135 0.29169 0.0
H1914 H 0.1333 0.13006 0.34273 0.0
H1915 H 0.11593 0.09716 0.29006 0.0
H1916 H 0.07247 0.07286 0.4192 0.0
H1917 H 0.08402 0.08492 0.36945 0.0
C1918 C 0.08964 0.87944 0.4733 0.0
C1919 C 0.08116 0.88771 0.48804 0.0
C1920 C 0.09611 0.87236 0.50252 0.0
C1921 C 0.09583 0.86159 0.61615 0.0
H1922 H 0.12957 0.8564 0.59724 0.0
C1923 C 0.12723 0.84145 0.74667 0.0
C1924 C 0.13567 0.83304 0.73257 0.0
C1925 C 0.12036 0.84794 0.71691 0.0
C1926 C 0.12013 0.85766 0.60284 0.0
H1927 H 0.07284 0.89492 0.54541 0.0
H1928 H 0.08413 0.88282 0.59566 0.0
H1929 H 0.11799 0.86761 0.54438 0.0
H1930 H 0.14335 0.82485 0.67576 0.0
H1931 H 0.13141 0.83604 0.62456 0.0
H1932 H 0.09801 0.85173 0.67485 0.0
C1933 C 0.08569 0.88161 0.56164 0.0
C1934 C 0.11347 0.86407 0.5724 0.0
C1935 C 0.07925 0.88864 0.53261 0.0
C1936 C 0.13699 0.83126 0.68805 0.0
C1937 C 0.13019 0.83775 0.65849 0.0
C1938 C 0.10249 0.85522 0.64666 0.0
C1939 C 0.09422 0.87339 0.54712 0.0
C1940 C 0.10123 0.86615 0.57868 0.0
C1941 C 0.12182 0.84621 0.67242 0.0
C1942 C 0.11473 0.85317 0.6404 0.0
H1943 H 0.09134 0.87847 0.43926 0.0
H1944 H 0.10253 0.86603 0.49014 0.0
H1945 H 0.08638 0.86284 0.6218 0.0
H1946 H 0.12598 0.84308 0.78064 0.0
H1947 H 0.11404 0.85446 0.72872 0.0
C1948 C 0.37283 0.87966 -0.00425 0.0
C1949 C 0.38139 0.88784 0.9804 0.0
C1950 C 0.36613 0.87268 0.96707 0.0
C1951 C 0.36575 0.86186 0.85404 0.0
H1952 H 0.33202 0.85703 0.87528 0.0
C1953 C 0.33356 0.84186 0.72646 0.0
C1954 C 0.325 0.8336 0.74126 0.0
C1955 C 0.34064 0.84829 0.75562 0.0
C1956 C 0.34146 0.85818 0.86906 0.0
H1957 H 0.38958 0.89502 0.92255 0.0
H1958 H 0.37787 0.88307 0.87305 0.0
H1959 H 0.34399 0.86826 0.92673 0.0
H1960 H 0.31731 0.82559 0.79863 0.0
H1961 H 0.32963 0.83668 0.84894 0.0
H1962 H 0.36317 0.85185 0.79615 0.0
C1963 C 0.37644 0.88186 0.90719 0.0
C1964 C 0.34834 0.86461 0.89866 0.0
C1965 C 0.38312 0.8888 0.93573 0.0
C1966 C 0.32376 0.83189 0.78588 0.0
C1967 C 0.33078 0.83832 0.81489 0.0
C1968 C 0.35886 0.85546 0.82437 0.0
C1969 C 0.36783 0.87373 0.92238 0.0
C1970 C 0.36057 0.86656 0.89152 0.0
C1971 C 0.33928 0.84663 0.80021 0.0
C1972 C 0.34663 0.85354 0.8315 0.0
H1973 H 0.37127 0.87865 0.02989 0.0
H1974 H 0.35968 0.86641 0.97995 0.0
H1975 H 0.37518 0.86301 0.84776 0.0
H1976 H 0.33476 0.84343 0.69239 0.0
H1977 H 0.34703 0.8547 0.74323 0.0
C1978 C 0.37371 0.08665 0.97032 0.0
C1979 C 0.38209 0.07827 -0.01466 0.0
C1980 C 0.36707 0.09352 -0.00068 0.0
C1981 C 0.36673 0.10362 0.11331 0.0
H1982 H 0.33321 0.10942 0.09092 0.0
C1983 C 0.33482 0.12401 0.24051 0.0
C1984 C 0.32661 0.13259 0.22555 0.0
C1985 C 0.34177 0.11747 0.21147 0.0
C1986 C 0.34259 0.10798 0.0975 0.0
H1987 H 0.39 0.07058 0.04296 0.0
H1988 H 0.37839 0.08233 0.09293 0.0
H1989 H 0.34497 0.09819 0.03916 0.0
H1990 H 0.31944 0.14104 0.16801 0.0
H1991 H 0.33152 0.12974 0.11802 0.0
H1992 H 0.36431 0.11335 0.17184 0.0
C1993 C 0.37705 0.08379 0.05885 0.0
C1994 C 0.34935 0.10156 0.06771 0.0
C1995 C 0.38368 0.07697 0.03001 0.0
C1996 C 0.32561 0.13449 0.18092 0.0
C1997 C 0.3325 0.12794 0.15206 0.0
C1998 C 0.35996 0.11001 0.14317 0.0
C1999 C 0.36865 0.09216 0.044 0.0
C2000 C 0.36151 0.09928 0.0752 0.0
C2001 C 0.34062 0.11931 0.16686 0.0
C2002 C 0.34781 0.11229 0.13561 0.0
H2003 H 0.37226 0.08792 0.9362 0.0
H2004 H 0.36076 0.09998 -0.01331 0.0
H2005 H 0.37611 0.1022 0.1199 0.0
H2006 H 0.33583 0.1223 0.27459 0.0
H2007 H 0.34789 0.11081 0.22394 0.0
C2008 C 0.8839 0.88867 0.5355 0.0
C2009 C 0.88197 0.88779 0.49091 0.0
C2010 C 0.87723 0.88182 0.56441 0.0
C2011 C 0.84886 0.86507 0.57426 0.0
H2012 H 0.86387 0.85189 0.67637 0.0
C2013 C 0.82426 0.83242 0.68767 0.0
C2014 C 0.82573 0.8339 0.73227 0.0
C2015 C 0.83122 0.83889 0.65853 0.0
C2016 C 0.85951 0.85563 0.64828 0.0
H2017 H 0.87151 0.8788 0.44195 0.0
H2018 H 0.85992 0.86671 0.49253 0.0
H2019 H 0.87587 0.86293 0.62424 0.0
H2020 H 0.83582 0.84339 0.78099 0.0
H2021 H 0.84799 0.85476 0.72991 0.0
H2022 H 0.83251 0.85775 0.59828 0.0
C2023 C 0.86654 0.87286 0.50507 0.0
C2024 C 0.86639 0.86195 0.61831 0.0
C2025 C 0.87323 0.87975 0.47602 0.0
C2026 C 0.83444 0.84201 0.74692 0.0
C2027 C 0.84146 0.84848 0.71763 0.0
C2028 C 0.84198 0.85873 0.60417 0.0
C2029 C 0.86843 0.87385 0.54968 0.0
C2030 C 0.86116 0.86678 0.58094 0.0
C2031 C 0.83989 0.84703 0.67305 0.0
C2032 C 0.84722 0.85393 0.64158 0.0
H2033 H 0.89052 0.89477 0.54835 0.0
H2034 H 0.87882 0.88297 0.59847 0.0
H2035 H 0.84447 0.86884 0.5463 0.0
H2036 H 0.81768 0.82624 0.67501 0.0
H2037 H 0.82989 0.8374 0.62449 0.0
C2038 C 0.82496 0.13379 0.28617 0.0
C2039 C 0.82636 0.13222 0.2416 0.0
C2040 C 0.83195 0.12737 0.31543 0.0
C2041 C 0.86021 0.11073 0.32586 0.0
H2042 H 0.84532 0.09746 0.4279 0.0
C2043 C 0.88478 0.07773 0.43809 0.0
C2044 C 0.88293 0.07855 0.48271 0.0
C2045 C 0.87804 0.08458 0.40935 0.0
C2046 C 0.84967 0.10125 0.39992 0.0
H2047 H 0.83633 0.12263 0.19307 0.0
H2048 H 0.84854 0.11138 0.24435 0.0
H2049 H 0.83329 0.10853 0.37598 0.0
H2050 H 0.87255 0.0874 0.53191 0.0
H2051 H 0.86085 0.0995 0.4816 0.0
H2052 H 0.8766 0.10348 0.3498 0.0
C2053 C 0.84205 0.11767 0.25651 0.0
C2054 C 0.84276 0.10757 0.37005 0.0
C2055 C 0.83501 0.12408 0.2271 0.0
C2056 C 0.8742 0.08651 0.49781 0.0
C2057 C 0.86745 0.0934 0.46892 0.0
C2058 C 0.86714 0.10443 0.35579 0.0
C2059 C 0.84056 0.11921 0.30105 0.0
C2060 C 0.84793 0.11238 0.3326 0.0
C2061 C 0.86926 0.09249 0.42428 0.0
C2062 C 0.86195 0.09956 0.39316 0.0
H2063 H 0.81843 0.13998 0.2987 0.0
H2064 H 0.83068 0.12891 0.34944 0.0
H2065 H 0.86453 0.11447 0.29773 0.0
H2066 H 0.89137 0.07168 0.42508 0.0
H2067 H 0.87957 0.08347 0.37526 0.0
C2068 C 0.62886 0.12644 0.24628 0.0
C2069 C 0.63713 0.13505 0.23191 0.0
C2070 C 0.62202 0.11988 0.2168 0.0
C2071 C 0.61182 0.11993 0.10274 0.0
H2072 H 0.60647 0.08612 0.12359 0.0
C2073 C 0.59123 0.08795 0.97495 0.0
C2074 C 0.58277 0.07964 -0.00988 0.0
C2075 C 0.59785 0.09496 0.00385 0.0
C2076 C 0.60779 0.09558 0.11743 0.0
H2077 H 0.6446 0.14347 0.17492 0.0
H2078 H 0.63289 0.13198 0.12405 0.0
H2079 H 0.61768 0.09787 0.17573 0.0
H2080 H 0.5746 0.07235 0.0479 0.0
H2081 H 0.58601 0.08449 0.09757 0.0
H2082 H 0.60198 0.11758 0.0442 0.0
C2083 C 0.63151 0.13041 0.15803 0.0
C2084 C 0.61419 0.10233 0.14745 0.0
C2085 C 0.6383 0.13697 0.18737 0.0
C2086 C 0.58105 0.07859 0.03479 0.0
C2087 C 0.58767 0.08552 0.06349 0.0
C2088 C 0.60544 0.11316 0.07262 0.0
C2089 C 0.6233 0.12175 0.17225 0.0
C2090 C 0.61628 0.11461 0.14058 0.0
C2091 C 0.5962 0.09373 0.0485 0.0
C2092 C 0.60331 0.10091 0.07969 0.0
H2093 H 0.62769 0.12473 0.28029 0.0
H2094 H 0.61567 0.11338 0.22896 0.0
H2095 H 0.6131 0.12939 0.0966 0.0
H2096 H 0.5928 0.089 0.94082 0.0
H2097 H 0.60441 0.10117 -0.00873 0.0
C2098 C 0.63288 0.82684 0.77529 0.0
C2099 C 0.63613 0.83189 0.73557 0.0
C2100 C 0.62602 0.83327 0.80456 0.0
C2101 C 0.60673 0.86034 0.81481 0.0
H2102 H 0.61259 0.85508 0.93622 0.0
C2103 C 0.57631 0.88146 0.9422 0.0
C2104 C 0.58136 0.8853 0.98115 0.0
C2105 C 0.58293 0.87467 0.91324 0.0
C2106 C 0.6109 0.8568 0.90251 0.0
H2107 H 0.63463 0.84766 0.69527 0.0
H2108 H 0.62301 0.85913 0.74698 0.0
H2109 H 0.62436 0.84441 0.88356 0.0
H2110 H 0.5973 0.8849 0.02052 0.0
H2111 H 0.60908 0.87342 0.96927 0.0
H2112 H 0.59373 0.87321 0.83371 0.0
C2113 C 0.62549 0.85005 0.75519 0.0
C2114 C 0.61755 0.85049 0.8721 0.0
C2115 C 0.6322 0.84349 0.72549 0.0
C2116 C 0.59314 0.88199 -0.00911 0.0
C2117 C 0.59987 0.87537 0.96145 0.0
C2118 C 0.60022 0.86679 0.84521 0.0
C2119 C 0.62238 0.84506 0.79537 0.0
C2120 C 0.61549 0.85207 0.82776 0.0
C2121 C 0.5949 0.87172 0.92193 0.0
C2122 C 0.60211 0.86503 0.88956 0.0
H2123 H 0.63565 0.81785 0.78383 0.0
H2124 H 0.62355 0.82895 0.83443 0.0
H2125 H 0.60476 0.86176 0.78113 0.0
H2126 H 0.56719 0.88374 0.93397 0.0
H2127 H 0.57861 0.87176 0.88393 0.0
C2128 C 0.58831 0.58668 -0.00373 0.0
C2129 C 0.5794 0.57883 0.98135 0.0
C2130 C 0.59506 0.59353 0.96722 0.0
C2131 C 0.60442 0.59411 0.85322 0.0
H2132 H 0.61196 0.6274 0.87501 0.0
C2133 C 0.62697 0.62427 0.72487 0.0
C2134 C 0.63575 0.63232 0.73933 0.0
C2135 C 0.61988 0.61793 0.7543 0.0
C2136 C 0.61005 0.61807 0.8686 0.0
H2137 H 0.57047 0.5723 0.92393 0.0
H2138 H 0.5821 0.5842 0.87394 0.0
H2139 H 0.60029 0.61607 0.92736 0.0
H2140 H 0.64393 0.63993 0.79641 0.0
H2141 H 0.63179 0.62883 0.84719 0.0
H2142 H 0.61424 0.59603 0.79472 0.0
C2143 C 0.58403 0.58495 0.90794 0.0
C2144 C 0.60336 0.61158 0.89868 0.0
C2145 C 0.57729 0.57817 0.9368 0.0
C2146 C 0.63723 0.63387 0.7839 0.0
C2147 C 0.63019 0.62754 0.81319 0.0
C2148 C 0.61114 0.60057 0.82324 0.0
C2149 C 0.59307 0.59263 0.92265 0.0
C2150 C 0.60043 0.59953 0.89129 0.0
C2151 C 0.62142 0.61948 0.79888 0.0
C2152 C 0.61405 0.61265 0.83048 0.0
H2153 H 0.5902 0.58742 0.0303 0.0
H2154 H 0.60201 0.59933 0.97959 0.0
H2155 H 0.60248 0.58478 0.84682 0.0
H2156 H 0.62554 0.62286 0.69084 0.0
H2157 H 0.61311 0.6119 0.74208 0.0
C2158 C 0.6288 0.34099 0.24509 0.0
C2159 C 0.63723 0.33258 0.23102 0.0
C2160 C 0.62197 0.34751 0.21538 0.0
C2161 C 0.61201 0.34753 0.10115 0.0
H2162 H 0.60597 0.38114 0.12231 0.0
C2163 C 0.59055 0.37928 0.97391 0.0
C2164 C 0.58193 0.38733 -0.01071 0.0
C2165 C 0.59738 0.3724 0.00264 0.0
C2166 C 0.60749 0.37173 0.11606 0.0
H2167 H 0.64502 0.32446 0.17433 0.0
H2168 H 0.6333 0.33588 0.123 0.0
H2169 H 0.61742 0.36953 0.17433 0.0
H2170 H 0.57371 0.39427 0.04723 0.0
H2171 H 0.58547 0.38232 0.09664 0.0
H2172 H 0.6021 0.3498 0.04268 0.0
C2173 C 0.6318 0.33733 0.15693 0.0
C2174 C 0.61403 0.36506 0.146 0.0
C2175 C 0.6386 0.33081 0.18653 0.0
C2176 C 0.58028 0.38824 0.03399 0.0
C2177 C 0.58709 0.38142 0.06252 0.0
C2178 C 0.60549 0.35422 0.07111 0.0
C2179 C 0.62341 0.34578 0.17089 0.0
C2180 C 0.61635 0.35286 0.13906 0.0
C2181 C 0.59578 0.37347 0.04732 0.0
C2182 C 0.60309 0.36639 0.07832 0.0
H2183 H 0.62747 0.34256 0.27904 0.0
H2184 H 0.61548 0.35383 0.22733 0.0
H2185 H 0.61349 0.33812 0.09496 0.0
H2186 H 0.59208 0.37835 0.93975 0.0
H2187 H 0.60405 0.36639 -0.01011 0.0
C2188 C 0.88323 0.38914 0.43705 0.0
C2189 C 0.88163 0.38791 0.48171 0.0
C2190 C 0.87668 0.38217 0.40823 0.0
C2191 C 0.84918 0.36396 0.39919 0.0
H2192 H 0.86437 0.35208 0.29599 0.0
C2193 C 0.82588 0.33039 0.28642 0.0
C2194 C 0.8269 0.33221 0.24179 0.0
C2195 C 0.83268 0.33708 0.31529 0.0
C2196 C 0.85996 0.35544 0.3244 0.0
H2197 H 0.87185 0.37822 0.53086 0.0
H2198 H 0.8605 0.3659 0.48041 0.0
H2199 H 0.876 0.36357 0.34782 0.0
H2200 H 0.83607 0.34253 0.19273 0.0
H2201 H 0.84799 0.35428 0.24338 0.0
H2202 H 0.83315 0.35578 0.37583 0.0
C2203 C 0.86675 0.37242 0.46777 0.0
C2204 C 0.86663 0.36203 0.35419 0.0
C2205 C 0.8733 0.37944 0.49674 0.0
C2206 C 0.83505 0.34087 0.22683 0.0
C2207 C 0.84191 0.34756 0.25586 0.0
C2208 C 0.84252 0.35735 0.36948 0.0
C2209 C 0.86835 0.37371 0.42311 0.0
C2210 C 0.86132 0.36641 0.39195 0.0
C2211 C 0.84074 0.3458 0.30048 0.0
C2212 C 0.84783 0.353 0.3317 0.0
H2213 H 0.8895 0.3956 0.42409 0.0
H2214 H 0.87802 0.38358 0.37414 0.0
H2215 H 0.84473 0.36735 0.42747 0.0
H2216 H 0.81975 0.32379 0.29932 0.0
H2217 H 0.83169 0.33535 0.34936 0.0
C2218 C 0.82422 0.63472 0.6856 0.0
C2219 C 0.82545 0.6331 0.73027 0.0
C2220 C 0.83115 0.62817 0.65685 0.0
C2221 C 0.85902 0.61089 0.64791 0.0
H2222 H 0.84397 0.59813 0.54547 0.0
C2223 C 0.88305 0.57775 0.5358 0.0
C2224 C 0.88124 0.57879 0.49116 0.0
C2225 C 0.87642 0.58461 0.56455 0.0
C2226 C 0.84836 0.60177 0.57357 0.0
H2227 H 0.8351 0.6233 0.77954 0.0
H2228 H 0.84722 0.61181 0.72911 0.0
H2229 H 0.83212 0.60935 0.59697 0.0
H2230 H 0.87106 0.58804 0.44195 0.0
H2231 H 0.85957 0.60015 0.49225 0.0
H2232 H 0.87528 0.60335 0.62446 0.0
C2233 C 0.84089 0.61825 0.7165 0.0
C2234 C 0.84155 0.60818 0.60321 0.0
C2235 C 0.83391 0.62479 0.74541 0.0
C2236 C 0.87267 0.58698 0.47606 0.0
C2237 C 0.86603 0.59387 0.50495 0.0
C2238 C 0.86585 0.6045 0.61821 0.0
C2239 C 0.83954 0.61982 0.67184 0.0
C2240 C 0.84679 0.61282 0.64076 0.0
C2241 C 0.8678 0.59274 0.5496 0.0
C2242 C 0.8606 0.59983 0.58066 0.0
H2243 H 0.81785 0.64105 0.67257 0.0
H2244 H 0.83 0.62976 0.62274 0.0
H2245 H 0.86338 0.61449 0.67614 0.0
H2246 H 0.88952 0.57153 0.5488 0.0
H2247 H 0.87791 0.58334 0.59865 0.0
C2248 C 0.33441 0.3411 0.24319 0.0
C2249 C 0.32586 0.33275 0.22914 0.0
C2250 C 0.34126 0.34759 0.21342 0.0
C2251 C 0.34142 0.3574 0.0995 0.0
H2252 H 0.37518 0.3626 0.11928 0.0
C2253 C 0.37212 0.37962 0.9717 0.0
C2254 C 0.38055 0.38792 -0.01291 0.0
C2255 C 0.36559 0.37244 0.00039 0.0
C2256 C 0.36574 0.36133 0.11341 0.0
H2257 H 0.31794 0.32464 0.17243 0.0
H2258 H 0.32986 0.33583 0.1211 0.0
H2259 H 0.36353 0.3513 0.17167 0.0
H2260 H 0.38867 0.39509 0.04505 0.0
H2261 H 0.37728 0.38281 0.09442 0.0
H2262 H 0.3436 0.36752 0.04144 0.0
C2263 C 0.33118 0.3375 0.15503 0.0
C2264 C 0.35905 0.35486 0.14353 0.0
C2265 C 0.32439 0.33102 0.18464 0.0
C2266 C 0.38231 0.38879 0.03178 0.0
C2267 C 0.37582 0.38166 0.06028 0.0
C2268 C 0.3481 0.3639 0.06942 0.0
C2269 C 0.33968 0.3459 0.16895 0.0
C2270 C 0.34681 0.35284 0.13703 0.0
C2271 C 0.36736 0.37339 0.04509 0.0
C2272 C 0.36034 0.36601 0.07607 0.0
H2273 H 0.33578 0.34269 0.27714 0.0
H2274 H 0.34766 0.35407 0.22523 0.0
H2275 H 0.33197 0.35615 0.09372 0.0
H2276 H 0.37053 0.37869 0.93754 0.0
H2277 H 0.35923 0.36609 -0.01246 0.0
C2278 C 0.37158 0.58667 -0.00889 0.0
C2279 C 0.38056 0.57893 0.97633 0.0
C2280 C 0.36491 0.59357 0.96199 0.0
C2281 C 0.35593 0.59453 0.8474 0.0
H2282 H 0.34821 0.62767 0.87041 0.0
C2283 C 0.33392 0.62509 0.71899 0.0
C2284 C 0.32505 0.63302 0.73319 0.0
C2285 C 0.34088 0.61867 0.74863 0.0
C2286 C 0.35017 0.61839 0.86365 0.0
H2287 H 0.38967 0.57267 0.91909 0.0
H2288 H 0.37817 0.58467 0.86902 0.0
H2289 H 0.35971 0.61621 0.92296 0.0
H2290 H 0.31657 0.64033 0.79002 0.0
H2291 H 0.32849 0.62908 0.84114 0.0
H2292 H 0.34635 0.59663 0.78831 0.0
C2293 C 0.37613 0.58528 0.90294 0.0
C2294 C 0.35676 0.61182 0.89384 0.0
C2295 C 0.38279 0.57844 0.93186 0.0
C2296 C 0.32334 0.63436 0.77771 0.0
C2297 C 0.33026 0.62795 0.80721 0.0
C2298 C 0.34932 0.60107 0.81729 0.0
C2299 C 0.36703 0.59285 0.91749 0.0
C2300 C 0.35976 0.59982 0.88602 0.0
C2301 C 0.33912 0.62002 0.79316 0.0
C2302 C 0.34636 0.6131 0.82496 0.0
H2303 H 0.36961 0.58728 0.02506 0.0
H2304 H 0.35791 0.59928 0.97425 0.0
H2305 H 0.35792 0.58524 0.84063 0.0
H2306 H 0.33551 0.62384 0.685 0.0
H2307 H 0.34772 0.61274 0.73662 0.0
C2308 C 0.12845 0.62435 0.74342 0.0
C2309 C 0.13669 0.63292 0.72857 0.0
C2310 C 0.12145 0.61781 0.71432 0.0
C2311 C 0.11076 0.618 0.60086 0.0
H2312 H 0.10539 0.58417 0.62133 0.0
C2313 C 0.08989 0.58639 0.47286 0.0
C2314 C 0.08144 0.57805 0.48785 0.0
C2315 C 0.09658 0.59328 0.5019 0.0
C2316 C 0.10671 0.59364 0.6153 0.0
H2317 H 0.14396 0.64129 0.67114 0.0
H2318 H 0.132 0.62985 0.62097 0.0
H2319 H 0.11679 0.59582 0.67326 0.0
H2320 H 0.07339 0.57052 0.54545 0.0
H2321 H 0.08493 0.58247 0.59545 0.0
H2322 H 0.10075 0.61576 0.54268 0.0
C2323 C 0.13075 0.62829 0.65502 0.0
C2324 C 0.11322 0.60033 0.64519 0.0
C2325 C 0.13769 0.63481 0.68397 0.0
C2326 C 0.07983 0.57681 0.53251 0.0
C2327 C 0.08651 0.58362 0.56137 0.0
C2328 C 0.10428 0.61129 0.57089 0.0
C2329 C 0.12255 0.61968 0.66971 0.0
C2330 C 0.11534 0.6126 0.63839 0.0
C2331 C 0.09501 0.59191 0.54653 0.0
C2332 C 0.10216 0.59903 0.57778 0.0
H2333 H 0.12741 0.62266 0.7775 0.0
H2334 H 0.11512 0.61135 0.72682 0.0
H2335 H 0.11206 0.62746 0.59482 0.0
H2336 H 0.09138 0.58758 0.43874 0.0
H2337 H 0.10312 0.59953 0.48941 0.0
C2338 C 0.13759 0.32957 0.28625 0.0
C2339 C 0.13637 0.33153 0.24172 0.0
C2340 C 0.13079 0.33603 0.31564 0.0
C2341 C 0.10324 0.35375 0.32622 0.0
H2342 H 0.11864 0.36596 0.42888 0.0
C2343 C 0.08017 0.38758 0.43744 0.0
C2344 C 0.08186 0.38663 0.48216 0.0
C2345 C 0.08663 0.38046 0.40911 0.0
C2346 C 0.11415 0.36247 0.40075 0.0
H2347 H 0.12687 0.34183 0.19343 0.0
H2348 H 0.11495 0.35314 0.24496 0.0
H2349 H 0.13021 0.35456 0.37697 0.0
H2350 H 0.09173 0.37727 0.53196 0.0
H2351 H 0.10296 0.36467 0.48228 0.0
H2352 H 0.08718 0.36161 0.34998 0.0
C2353 C 0.12117 0.34651 0.25695 0.0
C2354 C 0.12079 0.35596 0.37087 0.0
C2355 C 0.12804 0.34007 0.22741 0.0
C2356 C 0.09019 0.37827 0.49777 0.0
C2357 C 0.09668 0.37109 0.46925 0.0
C2358 C 0.09659 0.36022 0.35616 0.0
C2359 C 0.12253 0.34461 0.30145 0.0
C2360 C 0.11543 0.35156 0.33315 0.0
C2361 C 0.09498 0.37212 0.42451 0.0
C2362 C 0.10197 0.36473 0.3937 0.0
H2363 H 0.14387 0.32306 0.29866 0.0
H2364 H 0.13193 0.3342 0.34959 0.0
H2365 H 0.09879 0.35032 0.2979 0.0
H2366 H 0.07389 0.39394 0.42401 0.0
H2367 H 0.08523 0.38169 0.37494 0.0
loop_
_geom_bond_atom_site_label_1
_geom_bond_atom_site_label_2
_geom_bond_distance
_geom_bond_site_symmetry_2
_ccdc_geom_bond_type
Mg0 O1 2.028 . S
Mg0 O7 1.986 . S
Mg0 O9 2.114 . S
Mg0 O10 2.251 . S
Mg0 O13 2.010 . S
O1 Mg0 2.028 . S
O1 C4 1.250 . S
O2 Mg3 2.028 . S
O2 C4 1.248 . S
Mg3 O2 2.028 . S
Mg3 O8 2.032 . S
Mg3 O10 2.079 . S
C4 O1 1.250 . S
C4 O2 1.248 . S
C5 O6 1.264 . S
C5 O13 1.249 . S
O6 C5 1.264 . S
O7 Mg0 1.986 . S
O7 C11 1.246 . S
O8 Mg3 2.032 . S
O8 C11 1.259 . S
O9 Mg0 2.114 . S
O9 C12 1.252 . S
O10 Mg0 2.251 . S
O10 Mg3 2.079 . S
O10 C12 1.273 . S
C11 O7 1.246 . S
C11 O8 1.259 . S
C12 O9 1.252 . S
C12 O10 1.273 . S
O13 Mg0 2.010 . S
O13 C5 1.249 . S
Mg14 O15 2.028 . S
Mg14 O21 1.986 . S
Mg14 O23 2.114 . S
Mg14 O24 2.251 . S
Mg14 O27 2.010 . S
O15 Mg14 2.028 . S
O15 C18 1.250 . S
O16 Mg17 2.028 . S
O16 C18 1.248 . S
Mg17 O16 2.028 . S
Mg17 O22 2.032 . S
Mg17 O24 2.079 . S
C18 O15 1.250 . S
C18 O16 1.248 . S
C19 O20 1.264 . S
C19 O27 1.249 . S
O20 C19 1.264 . S
O21 Mg14 1.986 . S
O21 C25 1.246 . S
O22 Mg17 2.032 . S
O22 C25 1.259 . S
O23 Mg14 2.114 . S
O23 C26 1.252 . S
O24 Mg14 2.251 . S
O24 Mg17 2.079 . S
O24 C26 1.273 . S
C25 O21 1.246 . S
C25 O22 1.259 . S
C26 O23 1.252 . S
C26 O24 1.273 . S
O27 Mg14 2.010 . S
O27 C19 1.249 . S
Mg28 O29 2.028 . S
Mg28 O35 1.986 . S
Mg28 O37 2.114 . S
Mg28 O38 2.251 . S
Mg28 O41 2.010 . S
O29 Mg28 2.028 . S
O29 C32 1.250 . S
O30 Mg31 2.028 . S
O30 C32 1.248 . S
Mg31 O30 2.028 . S
Mg31 O36 2.032 . S
Mg31 O38 2.079 . S
C32 O29 1.250 . S
C32 O30 1.248 . S
C33 O34 1.264 . S
C33 O41 1.249 . S
O34 C33 1.264 . S
O35 Mg28 1.986 . S
O35 C39 1.246 . S
O36 Mg31 2.032 . S
O36 C39 1.259 . S
O37 Mg28 2.114 . S
O37 C40 1.252 . S
O38 Mg28 2.251 . S
O38 Mg31 2.079 . S
O38 C40 1.273 . S
C39 O35 1.246 . S
C39 O36 1.259 . S
C40 O37 1.252 . S
C40 O38 1.273 . S
O41 Mg28 2.010 . S
O41 C33 1.249 . S
Mg42 O43 2.028 . S
Mg42 O49 1.986 . S
Mg42 O51 2.114 . S
Mg42 O52 2.251 . S
Mg42 O55 2.010 . S
O43 Mg42 2.028 . S
O43 C46 1.250 . S
O44 Mg45 2.028 . S
O44 C46 1.248 . S
Mg45 O44 2.028 . S
Mg45 O50 2.032 . S
Mg45 O52 2.079 . S
C46 O43 1.250 . S
C46 O44 1.248 . S
C47 O48 1.264 . S
C47 O55 1.249 . S
O48 C47 1.264 . S
O49 Mg42 1.986 . S
O49 C53 1.246 . S
O50 Mg45 2.032 . S
O50 C53 1.259 . S
O51 Mg42 2.114 . S
O51 C54 1.252 . S
O52 Mg42 2.251 . S
O52 Mg45 2.079 . S
O52 C54 1.273 . S
C53 O49 1.246 . S
C53 O50 1.259 . S
C54 O51 1.252 . S
C54 O52 1.273 . S
O55 Mg42 2.010 . S
O55 C47 1.249 . S
Mg56 O57 2.028 . S
Mg56 O63 1.986 . S
Mg56 O65 2.114 . S
Mg56 O66 2.251 . S
Mg56 O69 2.010 . S
O57 Mg56 2.028 . S
O57 C60 1.250 . S
O58 Mg59 2.028 . S
O58 C60 1.248 . S
Mg59 O58 2.028 . S
Mg59 O64 2.032 . S
Mg59 O66 2.079 . S
C60 O57 1.250 . S
C60 O58 1.248 . S
C61 O62 1.264 . S
C61 O69 1.249 . S
O62 C61 1.264 . S
O63 Mg56 1.986 . S
O63 C67 1.246 . S
O64 Mg59 2.032 . S
O64 C67 1.259 . S
O65 Mg56 2.114 . S
O65 C68 1.252 . S
O66 Mg56 2.251 . S
O66 Mg59 2.079 . S
O66 C68 1.273 . S
C67 O63 1.246 . S
C67 O64 1.259 . S
C68 O65 1.252 . S
C68 O66 1.273 . S
O69 Mg56 2.010 . S
O69 C61 1.249 . S
Mg70 O71 2.028 . S
Mg70 O77 1.986 . S
Mg70 O79 2.114 . S
Mg70 O80 2.251 . S
Mg70 O83 2.010 . S
O71 Mg70 2.028 . S
O71 C74 1.250 . S
O72 Mg73 2.028 . S
O72 C74 1.248 . S
Mg73 O72 2.028 . S
Mg73 O78 2.032 . S
Mg73 O80 2.079 . S
C74 O71 1.250 . S
C74 O72 1.248 . S
C75 O76 1.264 . S
C75 O83 1.249 . S
O76 C75 1.264 . S
O77 Mg70 1.986 . S
O77 C81 1.246 . S
O78 Mg73 2.032 . S
O78 C81 1.259 . S
O79 Mg70 2.114 . S
O79 C82 1.252 . S
O80 Mg70 2.251 . S
O80 Mg73 2.079 . S
O80 C82 1.273 . S
C81 O77 1.246 . S
C81 O78 1.259 . S
C82 O79 1.252 . S
C82 O80 1.273 . S
O83 Mg70 2.010 . S
O83 C75 1.249 . S
Mg84 O85 2.028 . S
Mg84 O91 1.986 . S
Mg84 O93 2.114 . S
Mg84 O94 2.251 . S
Mg84 O97 2.010 . S
O85 Mg84 2.028 . S
O85 C88 1.250 . S
O86 Mg87 2.028 . S
O86 C88 1.248 . S
Mg87 O86 2.028 . S
Mg87 O92 2.032 . S
Mg87 O94 2.079 . S
C88 O85 1.250 . S
C88 O86 1.248 . S
C89 O90 1.264 . S
C89 O97 1.249 . S
O90 C89 1.264 . S
O91 Mg84 1.986 . S
O91 C95 1.246 . S
O92 Mg87 2.032 . S
O92 C95 1.259 . S
O93 Mg84 2.114 . S
O93 C96 1.252 . S
O94 Mg84 2.251 . S
O94 Mg87 2.079 . S
O94 C96 1.273 . S
C95 O91 1.246 . S
C95 O92 1.259 . S
C96 O93 1.252 . S
C96 O94 1.273 . S
O97 Mg84 2.010 . S
O97 C89 1.249 . S
Mg98 O99 2.028 . S
Mg98 O105 1.986 . S
Mg98 O107 2.114 . S
Mg98 O108 2.251 . S
Mg98 O111 2.010 . S
O99 Mg98 2.028 . S
O99 C102 1.250 . S
O100 Mg101 2.028 . S
O100 C102 1.248 . S
Mg101 O100 2.028 . S
Mg101 O106 2.032 . S
Mg101 O108 2.079 . S
C102 O99 1.250 . S
C102 O100 1.248 . S
C103 O104 1.264 . S
C103 O111 1.249 . S
O104 C103 1.264 . S
O105 Mg98 1.986 . S
O105 C109 1.246 . S
O106 Mg101 2.032 . S
O106 C109 1.259 . S
O107 Mg98 2.114 . S
O107 C110 1.252 . S
O108 Mg98 2.251 . S
O108 Mg101 2.079 . S
O108 C110 1.273 . S
C109 O105 1.246 . S
C109 O106 1.259 . S
C110 O107 1.252 . S
C110 O108 1.273 . S
O111 Mg98 2.010 . S
O111 C103 1.249 . S
Mg112 O113 2.028 . S
Mg112 O119 1.986 . S
Mg112 O121 2.114 . S
Mg112 O122 2.251 . S
Mg112 O125 2.010 . S
O113 Mg112 2.028 . S
O113 C116 1.250 . S
O114 Mg115 2.028 . S
O114 C116 1.248 . S
Mg115 O114 2.028 . S
Mg115 O120 2.032 . S
Mg115 O122 2.079 . S
C116 O113 1.250 . S
C116 O114 1.248 . S
C117 O118 1.264 . S
C117 O125 1.249 . S
O118 C117 1.264 . S
O119 Mg112 1.986 . S
O119 C123 1.246 . S
O120 Mg115 2.032 . S
O120 C123 1.259 . S
O121 Mg112 2.114 . S
O121 C124 1.252 . S
O122 Mg112 2.251 . S
O122 Mg115 2.079 . S
O122 C124 1.273 . S
C123 O119 1.246 . S
C123 O120 1.259 . S
C124 O121 1.252 . S
C124 O122 1.273 . S
O125 Mg112 2.010 . S
O125 C117 1.249 . S
Mg126 O127 2.028 . S
Mg126 O133 1.986 . S
Mg126 O135 2.114 . S
Mg126 O136 2.251 . S
Mg126 O139 2.010 . S
O127 Mg126 2.028 . S
O127 C130 1.250 . S
O128 Mg129 2.028 . S
O128 C130 1.248 . S
Mg129 O128 2.028 . S
Mg129 O134 2.032 . S
Mg129 O136 2.079 . S
C130 O127 1.250 . S
C130 O128 1.248 . S
C131 O132 1.264 . S
C131 O139 1.249 . S
O132 C131 1.264 . S
O133 Mg126 1.986 . S
O133 C137 1.246 . S
O134 Mg129 2.032 . S
O134 C137 1.259 . S
O135 Mg126 2.114 . S
O135 C138 1.252 . S
O136 Mg126 2.251 . S
O136 Mg129 2.079 . S
O136 C138 1.273 . S
C137 O133 1.246 . S
C137 O134 1.259 . S
C138 O135 1.252 . S
C138 O136 1.273 . S
O139 Mg126 2.010 . S
O139 C131 1.249 . S
Mg140 O141 2.028 . S
Mg140 O147 1.986 . S
Mg140 O149 2.114 . S
Mg140 O150 2.251 . S
Mg140 O153 2.010 . S
O141 Mg140 2.028 . S
O141 C144 1.250 . S
O142 Mg143 2.028 . S
O142 C144 1.248 . S
Mg143 O142 2.028 . S
Mg143 O148 2.032 . S
Mg143 O150 2.079 . S
C144 O141 1.250 . S
C144 O142 1.248 . S
C145 O146 1.264 . S
C145 O153 1.249 . S
O146 C145 1.264 . S
O147 Mg140 1.986 . S
O147 C151 1.246 . S
O148 Mg143 2.032 . S
O148 C151 1.259 . S
O149 Mg140 2.114 . S
O149 C152 1.252 . S
O150 Mg140 2.251 . S
O150 Mg143 2.079 . S
O150 C152 1.273 . S
C151 O147 1.246 . S
C151 O148 1.259 . S
C152 O149 1.252 . S
C152 O150 1.273 . S
O153 Mg140 2.010 . S
O153 C145 1.249 . S
Mg154 O155 2.028 . S
Mg154 O161 1.986 . S
Mg154 O163 2.114 . S
Mg154 O164 2.251 . S
Mg154 O167 2.010 . S
O155 Mg154 2.028 . S
O155 C158 1.250 . S
O156 Mg157 2.028 . S
O156 C158 1.248 . S
Mg157 O156 2.028 . S
Mg157 O162 2.032 . S
Mg157 O164 2.079 . S
C158 O155 1.250 . S
C158 O156 1.248 . S
C159 O160 1.264 . S
C159 O167 1.249 . S
O160 C159 1.264 . S
O161 Mg154 1.986 . S
O161 C165 1.246 . S
O162 Mg157 2.032 . S
O162 C165 1.259 . S
O163 Mg154 2.114 . S
O163 C166 1.252 . S
O164 Mg154 2.251 . S
O164 Mg157 2.079 . S
O164 C166 1.273 . S
C165 O161 1.246 . S
C165 O162 1.259 . S
C166 O163 1.252 . S
C166 O164 1.273 . S
O167 Mg154 2.010 . S
O167 C159 1.249 . S
Mg168 O169 2.028 . S
Mg168 O175 1.986 . S
Mg168 O177 2.114 . S
Mg168 O178 2.251 . S
Mg168 O181 2.010 . S
O169 Mg168 2.028 . S
O169 C172 1.250 . S
O170 Mg171 2.028 . S
O170 C172 1.248 . S
Mg171 O170 2.028 . S
Mg171 O176 2.032 . S
Mg171 O178 2.079 . S
C172 O169 1.250 . S
C172 O170 1.248 . S
C173 O174 1.264 . S
C173 O181 1.249 . S
O174 C173 1.264 . S
O175 Mg168 1.986 . S
O175 C179 1.246 . S
O176 Mg171 2.032 . S
O176 C179 1.259 . S
O177 Mg168 2.114 . S
O177 C180 1.252 . S
O178 Mg168 2.251 . S
O178 Mg171 2.079 . S
O178 C180 1.273 . S
C179 O175 1.246 . S
C179 O176 1.259 . S
C180 O177 1.252 . S
C180 O178 1.273 . S
O181 Mg168 2.010 . S
O181 C173 1.249 . S
Mg182 O183 2.028 . S
Mg182 O189 1.986 . S
Mg182 O191 2.114 . S
Mg182 O192 2.251 . S
Mg182 O195 2.010 . S
O183 Mg182 2.028 . S
O183 C186 1.250 . S
O184 Mg185 2.028 . S
O184 C186 1.248 . S
Mg185 O184 2.028 . S
Mg185 O190 2.032 . S
Mg185 O192 2.079 . S
C186 O183 1.250 . S
C186 O184 1.248 . S
C187 O188 1.264 . S
C187 O195 1.249 . S
O188 C187 1.264 . S
O189 Mg182 1.986 . S
O189 C193 1.246 . S
O190 Mg185 2.032 . S
O190 C193 1.259 . S
O191 Mg182 2.114 . S
O191 C194 1.252 . S
O192 Mg182 2.251 . S
O192 Mg185 2.079 . S
O192 C194 1.273 . S
C193 O189 1.246 . S
C193 O190 1.259 . S
C194 O191 1.252 . S
C194 O192 1.273 . S
O195 Mg182 2.010 . S
O195 C187 1.249 . S
Mg196 O197 2.028 . S
Mg196 O203 1.986 . S
Mg196 O205 2.114 . S
Mg196 O206 2.251 . S
Mg196 O209 2.010 . S
O197 Mg196 2.028 . S
O197 C200 1.250 . S
O198 Mg199 2.028 . S
O198 C200 1.248 . S
Mg199 O198 2.028 . S
Mg199 O204 2.032 . S
Mg199 O206 2.079 . S
C200 O197 1.250 . S
C200 O198 1.248 . S
C201 O202 1.264 . S
C201 O209 1.249 . S
O202 C201 1.264 . S
O203 Mg196 1.986 . S
O203 C207 1.246 . S
O204 Mg199 2.032 . S
O204 C207 1.259 . S
O205 Mg196 2.114 . S
O205 C208 1.252 . S
O206 Mg196 2.251 . S
O206 Mg199 2.079 . S
O206 C208 1.273 . S
C207 O203 1.246 . S
C207 O204 1.259 . S
C208 O205 1.252 . S
C208 O206 1.273 . S
O209 Mg196 2.010 . S
O209 C201 1.249 . S
Mg210 O211 2.028 . S
Mg210 O217 1.986 . S
Mg210 O219 2.114 . S
Mg210 O220 2.251 . S
Mg210 O223 2.010 . S
O211 Mg210 2.028 . S
O211 C214 1.250 . S
O212 Mg213 2.028 . S
O212 C214 1.248 . S
Mg213 O212 2.028 . S
Mg213 O218 2.032 . S
Mg213 O220 2.079 . S
C214 O211 1.250 . S
C214 O212 1.248 . S
C215 O216 1.264 . S
C215 O223 1.249 . S
O216 C215 1.264 . S
O217 Mg210 1.986 . S
O217 C221 1.246 . S
O218 Mg213 2.032 . S
O218 C221 1.259 . S
O219 Mg210 2.114 . S
O219 C222 1.252 . S
O220 Mg210 2.251 . S
O220 Mg213 2.079 . S
O220 C222 1.273 . S
C221 O217 1.246 . S
C221 O218 1.259 . S
C222 O219 1.252 . S
C222 O220 1.273 . S
O223 Mg210 2.010 . S
O223 C215 1.249 . S
Mg224 O225 2.028 . S
Mg224 O231 1.986 . S
Mg224 O233 2.114 . S
Mg224 O234 2.251 . S
Mg224 O237 2.010 . S
O225 Mg224 2.028 . S
O225 C228 1.250 . S
O226 Mg227 2.028 . S
O226 C228 1.248 . S
Mg227 O226 2.028 . S
Mg227 O232 2.032 . S
Mg227 O234 2.079 . S
C228 O225 1.250 . S
C228 O226 1.248 . S
C229 O230 1.264 . S
C229 O237 1.249 . S
O230 C229 1.264 . S
O231 Mg224 1.986 . S
O231 C235 1.246 . S
O232 Mg227 2.032 . S
O232 C235 1.259 . S
O233 Mg224 2.114 . S
O233 C236 1.252 . S
O234 Mg224 2.251 . S
O234 Mg227 2.079 . S
O234 C236 1.273 . S
C235 O231 1.246 . S
C235 O232 1.259 . S
C236 O233 1.252 . S
C236 O234 1.273 . S
O237 Mg224 2.010 . S
O237 C229 1.249 . S
Mg238 O239 2.028 . S
Mg238 O245 1.986 . S
Mg238 O247 2.114 . S
Mg238 O248 2.251 . S
Mg238 O251 2.010 . S
O239 Mg238 2.028 . S
O239 C242 1.250 . S
O240 Mg241 2.028 . S
O240 C242 1.248 . S
Mg241 O240 2.028 . S
Mg241 O246 2.032 . S
Mg241 O248 2.079 . S
C242 O239 1.250 . S
C242 O240 1.248 . S
C243 O244 1.264 . S
C243 O251 1.249 . S
O244 C243 1.264 . S
O245 Mg238 1.986 . S
O245 C249 1.246 . S
O246 Mg241 2.032 . S
O246 C249 1.259 . S
O247 Mg238 2.114 . S
O247 C250 1.252 . S
O248 Mg238 2.251 . S
O248 Mg241 2.079 . S
O248 C250 1.273 . S
C249 O245 1.246 . S
C249 O246 1.259 . S
C250 O247 1.252 . S
C250 O248 1.273 . S
O251 Mg238 2.010 . S
O251 C243 1.249 . S
Mg252 O253 2.028 . S
Mg252 O259 1.986 . S
Mg252 O261 2.114 . S
Mg252 O262 2.251 . S
Mg252 O265 2.010 . S
O253 Mg252 2.028 . S
O253 C256 1.250 . S
O254 Mg255 2.028 . S
O254 C256 1.248 . S
Mg255 O254 2.028 . S
Mg255 O260 2.032 . S
Mg255 O262 2.079 . S
C256 O253 1.250 . S
C256 O254 1.248 . S
C257 O258 1.264 . S
C257 O265 1.249 . S
O258 C257 1.264 . S
O259 Mg252 1.986 . S
O259 C263 1.246 . S
O260 Mg255 2.032 . S
O260 C263 1.259 . S
O261 Mg252 2.114 . S
O261 C264 1.252 . S
O262 Mg252 2.251 . S
O262 Mg255 2.079 . S
O262 C264 1.273 . S
C263 O259 1.246 . S
C263 O260 1.259 . S
C264 O261 1.252 . S
C264 O262 1.273 . S
O265 Mg252 2.010 . S
O265 C257 1.249 . S
Mg266 O267 2.028 . S
Mg266 O273 1.986 . S
Mg266 O275 2.114 . S
Mg266 O276 2.251 . S
Mg266 O279 2.010 . S
O267 Mg266 2.028 . S
O267 C270 1.250 . S
O268 Mg269 2.028 . S
O268 C270 1.248 . S
Mg269 O268 2.028 . S
Mg269 O274 2.032 . S
Mg269 O276 2.079 . S
C270 O267 1.250 . S
C270 O268 1.248 . S
C271 O272 1.264 . S
C271 O279 1.249 . S
O272 C271 1.264 . S
O273 Mg266 1.986 . S
O273 C277 1.246 . S
O274 Mg269 2.032 . S
O274 C277 1.259 . S
O275 Mg266 2.114 . S
O275 C278 1.252 . S
O276 Mg266 2.251 . S
O276 Mg269 2.079 . S
O276 C278 1.273 . S
C277 O273 1.246 . S
C277 O274 1.259 . S
C278 O275 1.252 . S
C278 O276 1.273 . S
O279 Mg266 2.010 . S
O279 C271 1.249 . S
Mg280 O281 2.028 . S
Mg280 O287 1.986 . S
Mg280 O289 2.114 . S
Mg280 O290 2.251 . S
Mg280 O293 2.010 . S
O281 Mg280 2.028 . S
O281 C284 1.250 . S
O282 Mg283 2.028 . S
O282 C284 1.248 . S
Mg283 O282 2.028 . S
Mg283 O288 2.032 . S
Mg283 O290 2.079 . S
C284 O281 1.250 . S
C284 O282 1.248 . S
C285 O286 1.264 . S
C285 O293 1.249 . S
O286 C285 1.264 . S
O287 Mg280 1.986 . S
O287 C291 1.246 . S
O288 Mg283 2.032 . S
O288 C291 1.259 . S
O289 Mg280 2.114 . S
O289 C292 1.252 . S
O290 Mg280 2.251 . S
O290 Mg283 2.079 . S
O290 C292 1.273 . S
C291 O287 1.246 . S
C291 O288 1.259 . S
C292 O289 1.252 . S
C292 O290 1.273 . S
O293 Mg280 2.010 . S
O293 C285 1.249 . S
Mg294 O295 2.028 . S
Mg294 O301 1.986 . S
Mg294 O303 2.114 . S
Mg294 O304 2.251 . S
Mg294 O307 2.010 . S
O295 Mg294 2.028 . S
O295 C298 1.250 . S
O296 Mg297 2.028 . S
O296 C298 1.248 . S
Mg297 O296 2.028 . S
Mg297 O302 2.032 . S
Mg297 O304 2.079 . S
C298 O295 1.250 . S
C298 O296 1.248 . S
C299 O300 1.264 . S
C299 O307 1.249 . S
O300 C299 1.264 . S
O301 Mg294 1.986 . S
O301 C305 1.246 . S
O302 Mg297 2.032 . S
O302 C305 1.259 . S
O303 Mg294 2.114 . S
O303 C306 1.252 . S
O304 Mg294 2.251 . S
O304 Mg297 2.079 . S
O304 C306 1.273 . S
C305 O301 1.246 . S
C305 O302 1.259 . S
C306 O303 1.252 . S
C306 O304 1.273 . S
O307 Mg294 2.010 . S
O307 C299 1.249 . S
Mg308 O309 2.028 . S
Mg308 O315 1.986 . S
Mg308 O317 2.114 . S
Mg308 O318 2.251 . S
Mg308 O321 2.010 . S
O309 Mg308 2.028 . S
O309 C312 1.250 . S
O310 Mg311 2.028 . S
O310 C312 1.248 . S
Mg311 O310 2.028 . S
Mg311 O316 2.032 . S
Mg311 O318 2.079 . S
C312 O309 1.250 . S
C312 O310 1.248 . S
C313 O314 1.264 . S
C313 O321 1.249 . S
O314 C313 1.264 . S
O315 Mg308 1.986 . S
O315 C319 1.246 . S
O316 Mg311 2.032 . S
O316 C319 1.259 . S
O317 Mg308 2.114 . S
O317 C320 1.252 . S
O318 Mg308 2.251 . S
O318 Mg311 2.079 . S
O318 C320 1.273 . S
C319 O315 1.246 . S
C319 O316 1.259 . S
C320 O317 1.252 . S
C320 O318 1.273 . S
O321 Mg308 2.010 . S
O321 C313 1.249 . S
Mg322 O323 2.028 . S
Mg322 O329 1.986 . S
Mg322 O331 2.114 . S
Mg322 O332 2.251 . S
Mg322 O335 2.010 . S
O323 Mg322 2.028 . S
O323 C326 1.250 . S
O324 Mg325 2.028 . S
O324 C326 1.248 . S
Mg325 O324 2.028 . S
Mg325 O330 2.032 . S
Mg325 O332 2.079 . S
C326 O323 1.250 . S
C326 O324 1.248 . S
C327 O328 1.264 . S
C327 O335 1.249 . S
O328 C327 1.264 . S
O329 Mg322 1.986 . S
O329 C333 1.246 . S
O330 Mg325 2.032 . S
O330 C333 1.259 . S
O331 Mg322 2.114 . S
O331 C334 1.252 . S
O332 Mg322 2.251 . S
O332 Mg325 2.079 . S
O332 C334 1.273 . S
C333 O329 1.246 . S
C333 O330 1.259 . S
C334 O331 1.252 . S
C334 O332 1.273 . S
O335 Mg322 2.010 . S
O335 C327 1.249 . S
Mg336 O337 2.028 . S
Mg336 O343 1.986 . S
Mg336 O345 2.114 . S
Mg336 O346 2.251 . S
Mg336 O349 2.010 . S
O337 Mg336 2.028 . S
O337 C340 1.250 . S
O338 Mg339 2.028 . S
O338 C340 1.248 . S
Mg339 O338 2.028 . S
Mg339 O344 2.032 . S
Mg339 O346 2.079 . S
C340 O337 1.250 . S
C340 O338 1.248 . S
C341 O342 1.264 . S
C341 O349 1.249 . S
O342 C341 1.264 . S
O343 Mg336 1.986 . S
O343 C347 1.246 . S
O344 Mg339 2.032 . S
O344 C347 1.259 . S
O345 Mg336 2.114 . S
O345 C348 1.252 . S
O346 Mg336 2.251 . S
O346 Mg339 2.079 . S
O346 C348 1.273 . S
C347 O343 1.246 . S
C347 O344 1.259 . S
C348 O345 1.252 . S
C348 O346 1.273 . S
O349 Mg336 2.010 . S
O349 C341 1.249 . S
Mg350 O351 2.028 . S
Mg350 O357 1.986 . S
Mg350 O359 2.114 . S
Mg350 O360 2.251 . S
Mg350 O363 2.010 . S
O351 Mg350 2.028 . S
O351 C354 1.250 . S
O352 Mg353 2.028 . S
O352 C354 1.248 . S
Mg353 O352 2.028 . S
Mg353 O358 2.032 . S
Mg353 O360 2.079 . S
C354 O351 1.250 . S
C354 O352 1.248 . S
C355 O356 1.264 . S
C355 O363 1.249 . S
O356 C355 1.264 . S
O357 Mg350 1.986 . S
O357 C361 1.246 . S
O358 Mg353 2.032 . S
O358 C361 1.259 . S
O359 Mg350 2.114 . S
O359 C362 1.252 . S
O360 Mg350 2.251 . S
O360 Mg353 2.079 . S
O360 C362 1.273 . S
C361 O357 1.246 . S
C361 O358 1.259 . S
C362 O359 1.252 . S
C362 O360 1.273 . S
O363 Mg350 2.010 . S
O363 C355 1.249 . S
Mg364 O365 2.028 . S
Mg364 O371 1.986 . S
Mg364 O373 2.114 . S
Mg364 O374 2.251 . S
Mg364 O377 2.010 . S
O365 Mg364 2.028 . S
O365 C368 1.250 . S
O366 Mg367 2.028 . S
O366 C368 1.248 . S
Mg367 O366 2.028 . S
Mg367 O372 2.032 . S
Mg367 O374 2.079 . S
C368 O365 1.250 . S
C368 O366 1.248 . S
C369 O370 1.264 . S
C369 O377 1.249 . S
O370 C369 1.264 . S
O371 Mg364 1.986 . S
O371 C375 1.246 . S
O372 Mg367 2.032 . S
O372 C375 1.259 . S
O373 Mg364 2.114 . S
O373 C376 1.252 . S
O374 Mg364 2.251 . S
O374 Mg367 2.079 . S
O374 C376 1.273 . S
C375 O371 1.246 . S
C375 O372 1.259 . S
C376 O373 1.252 . S
C376 O374 1.273 . S
O377 Mg364 2.010 . S
O377 C369 1.249 . S
Mg378 O379 2.028 . S
Mg378 O385 1.986 . S
Mg378 O387 2.114 . S
Mg378 O388 2.251 . S
Mg378 O391 2.010 . S
O379 Mg378 2.028 . S
O379 C382 1.250 . S
O380 Mg381 2.028 . S
O380 C382 1.248 . S
Mg381 O380 2.028 . S
Mg381 O386 2.032 . S
Mg381 O388 2.079 . S
C382 O379 1.250 . S
C382 O380 1.248 . S
C383 O384 1.264 . S
C383 O391 1.249 . S
O384 C383 1.264 . S
O385 Mg378 1.986 . S
O385 C389 1.246 . S
O386 Mg381 2.032 . S
O386 C389 1.259 . S
O387 Mg378 2.114 . S
O387 C390 1.252 . S
O388 Mg378 2.251 . S
O388 Mg381 2.079 . S
O388 C390 1.273 . S
C389 O385 1.246 . S
C389 O386 1.259 . S
C390 O387 1.252 . S
C390 O388 1.273 . S
O391 Mg378 2.010 . S
O391 C383 1.249 . S
Mg392 O393 2.028 . S
Mg392 O399 1.986 . S
Mg392 O401 2.114 . S
Mg392 O402 2.251 . S
Mg392 O405 2.010 . S
O393 Mg392 2.028 . S
O393 C396 1.250 . S
O394 Mg395 2.028 . S
O394 C396 1.248 . S
Mg395 O394 2.028 . S
Mg395 O400 2.032 . S
Mg395 O402 2.079 . S
C396 O393 1.250 . S
C396 O394 1.248 . S
C397 O398 1.264 . S
C397 O405 1.249 . S
O398 C397 1.264 . S
O399 Mg392 1.986 . S
O399 C403 1.246 . S
O400 Mg395 2.032 . S
O400 C403 1.259 . S
O401 Mg392 2.114 . S
O401 C404 1.252 . S
O402 Mg392 2.251 . S
O402 Mg395 2.079 . S
O402 C404 1.273 . S
C403 O399 1.246 . S
C403 O400 1.259 . S
C404 O401 1.252 . S
C404 O402 1.273 . S
O405 Mg392 2.010 . S
O405 C397 1.249 . S
Mg406 O407 2.028 . S
Mg406 O413 1.986 . S
Mg406 O415 2.114 . S
Mg406 O416 2.251 . S
Mg406 O419 2.010 . S
O407 Mg406 2.028 . S
O407 C410 1.250 . S
O408 Mg409 2.028 . S
O408 C410 1.248 . S
Mg409 O408 2.028 . S
Mg409 O414 2.032 . S
Mg409 O416 2.079 . S
C410 O407 1.250 . S
C410 O408 1.248 . S
C411 O412 1.264 . S
C411 O419 1.249 . S
O412 C411 1.264 . S
O413 Mg406 1.986 . S
O413 C417 1.246 . S
O414 Mg409 2.032 . S
O414 C417 1.259 . S
O415 Mg406 2.114 . S
O415 C418 1.252 . S
O416 Mg406 2.251 . S
O416 Mg409 2.079 . S
O416 C418 1.273 . S
C417 O413 1.246 . S
C417 O414 1.259 . S
C418 O415 1.252 . S
C418 O416 1.273 . S
O419 Mg406 2.010 . S
O419 C411 1.249 . S
Mg420 O421 2.028 . S
Mg420 O427 1.986 . S
Mg420 O429 2.114 . S
Mg420 O430 2.251 . S
Mg420 O433 2.010 . S
O421 Mg420 2.028 . S
O421 C424 1.250 . S
O422 Mg423 2.028 . S
O422 C424 1.248 . S
Mg423 O422 2.028 . S
Mg423 O428 2.032 . S
Mg423 O430 2.079 . S
C424 O421 1.250 . S
C424 O422 1.248 . S
C425 O426 1.264 . S
C425 O433 1.249 . S
O426 C425 1.264 . S
O427 Mg420 1.986 . S
O427 C431 1.246 . S
O428 Mg423 2.032 . S
O428 C431 1.259 . S
O429 Mg420 2.114 . S
O429 C432 1.252 . S
O430 Mg420 2.251 . S
O430 Mg423 2.079 . S
O430 C432 1.273 . S
C431 O427 1.246 . S
C431 O428 1.259 . S
C432 O429 1.252 . S
C432 O430 1.273 . S
O433 Mg420 2.010 . S
O433 C425 1.249 . S
Mg434 O435 2.028 . S
Mg434 O441 1.986 . S
Mg434 O443 2.114 . S
Mg434 O444 2.251 . S
Mg434 O447 2.010 . S
O435 Mg434 2.028 . S
O435 C438 1.250 . S
O436 Mg437 2.028 . S
O436 C438 1.248 . S
Mg437 O436 2.028 . S
Mg437 O442 2.032 . S
Mg437 O444 2.079 . S
C438 O435 1.250 . S
C438 O436 1.248 . S
C439 O440 1.264 . S
C439 O447 1.249 . S
O440 C439 1.264 . S
O441 Mg434 1.986 . S
O441 C445 1.246 . S
O442 Mg437 2.032 . S
O442 C445 1.259 . S
O443 Mg434 2.114 . S
O443 C446 1.252 . S
O444 Mg434 2.251 . S
O444 Mg437 2.079 . S
O444 C446 1.273 . S
C445 O441 1.246 . S
C445 O442 1.259 . S
C446 O443 1.252 . S
C446 O444 1.273 . S
O447 Mg434 2.010 . S
O447 C439 1.249 . S
C448 C449 1.349 . S
C448 C450 1.327 . S
C448 H473 0.950 . S
C449 C448 1.349 . S
C449 C465 1.349 . S
C450 C448 1.327 . S
C450 C469 1.429 . S
C450 H474 0.950 . S
C451 C468 1.574 . S
C451 C470 1.368 . S
C451 H475 0.949 . S
H452 C456 0.949 . S
C453 C454 1.349 . S
C453 C455 1.327 . S
C453 H476 0.950 . S
C454 C453 1.349 . S
C454 C466 1.349 . S
C455 C453 1.327 . S
C455 C471 1.429 . S
C455 H477 0.950 . S
C456 H452 0.949 . S
C456 C464 1.574 . S
C456 C472 1.368 . S
H457 C465 0.950 . S
H458 C463 0.950 . S
H459 C464 0.949 . S
H460 C466 0.950 . S
H461 C467 0.950 . S
H462 C468 0.949 . S
C463 H458 0.950 . S
C463 C465 1.327 . S
C463 C469 1.429 . S
C464 C456 1.574 . S
C464 H459 0.949 . S
C464 C470 1.368 . S
C465 C449 1.349 . S
C465 H457 0.950 . S
C465 C463 1.327 . S
C466 C454 1.349 . S
C466 H460 0.950 . S
C466 C467 1.327 . S
C467 H461 0.950 . S
C467 C466 1.327 . S
C467 C471 1.429 . S
C468 C451 1.574 . S
C468 H462 0.949 . S
C468 C472 1.368 . S
C469 C450 1.429 . S
C469 C463 1.429 . S
C469 C470 1.523 . S
C470 C451 1.368 . S
C470 C464 1.368 . S
C470 C469 1.523 . S
C471 C455 1.429 . S
C471 C467 1.429 . S
C471 C472 1.523 . S
C472 C456 1.368 . S
C472 C468 1.368 . S
C472 C471 1.523 . S
H473 C448 0.950 . S
H474 C450 0.950 . S
H475 C451 0.949 . S
H476 C453 0.950 . S
H477 C455 0.950 . S
C478 C479 1.349 . S
C478 C480 1.327 . S
C478 H503 0.950 . S
C479 C478 1.349 . S
C479 C495 1.349 . S
C480 C478 1.327 . S
C480 C499 1.429 . S
C480 H504 0.950 . S
C481 C498 1.574 1_565 S
C481 C500 1.368 . S
C481 H505 0.949 . S
H482 C486 0.949 . S
C483 C484 1.349 . S
C483 C485 1.327 . S
C483 H506 0.950 . S
C484 C483 1.349 . S
C484 C496 1.349 . S
C485 C483 1.327 . S
C485 C501 1.429 . S
C485 H507 0.950 . S
C486 H482 0.949 . S
C486 C494 1.574 1_545 S
C486 C502 1.368 . S
H487 C495 0.950 . S
H488 C493 0.950 . S
H489 C494 0.949 . S
H490 C496 0.950 . S
H491 C497 0.950 . S
H492 C498 0.949 . S
C493 H488 0.950 . S
C493 C495 1.327 . S
C493 C499 1.429 . S
C494 C486 1.574 1_565 S
C494 H489 0.949 . S
C494 C500 1.368 . S
C495 C479 1.349 . S
C495 H487 0.950 . S
C495 C493 1.327 . S
C496 C484 1.349 . S
C496 H490 0.950 . S
C496 C497 1.327 . S
C497 H491 0.950 . S
C497 C496 1.327 . S
C497 C501 1.429 . S
C498 C481 1.574 1_545 S
C498 H492 0.949 . S
C498 C502 1.368 . S
C499 C480 1.429 . S
C499 C493 1.429 . S
C499 C500 1.523 . S
C500 C481 1.368 . S
C500 C494 1.368 . S
C500 C499 1.523 . S
C501 C485 1.429 . S
C501 C497 1.429 . S
C501 C502 1.523 . S
C502 C486 1.368 . S
C502 C498 1.368 . S
C502 C501 1.523 . S
H503 C478 0.950 . S
H504 C480 0.950 . S
H505 C481 0.949 . S
H506 C483 0.950 . S
H507 C485 0.950 . S
C508 C509 1.349 . S
C508 C510 1.327 . S
C508 H533 0.950 . S
C509 C508 1.349 . S
C509 C525 1.349 . S
C510 C508 1.327 . S
C510 C529 1.429 . S
C510 H534 0.950 . S
C511 C528 1.574 . S
C511 C530 1.368 . S
C511 H535 0.949 . S
H512 C516 0.949 . S
C513 C514 1.349 . S
C513 C515 1.327 . S
C513 H536 0.950 . S
C514 C513 1.349 . S
C514 C526 1.349 . S
C515 C513 1.327 . S
C515 C531 1.429 . S
C515 H537 0.950 . S
C516 H512 0.949 . S
C516 C524 1.574 . S
C516 C532 1.368 . S
H517 C525 0.950 . S
H518 C523 0.950 . S
H519 C524 0.949 . S
H520 C526 0.950 . S
H521 C527 0.950 . S
H522 C528 0.949 . S
C523 H518 0.950 . S
C523 C525 1.327 . S
C523 C529 1.429 . S
C524 C516 1.574 . S
C524 H519 0.949 . S
C524 C530 1.368 . S
C525 C509 1.349 . S
C525 H517 0.950 . S
C525 C523 1.327 . S
C526 C514 1.349 . S
C526 H520 0.950 . S
C526 C527 1.327 . S
C527 H521 0.950 . S
C527 C526 1.327 . S
C527 C531 1.429 . S
C528 C511 1.574 . S
C528 H522 0.949 . S
C528 C532 1.368 . S
C529 C510 1.429 . S
C529 C523 1.429 . S
C529 C530 1.523 . S
C530 C511 1.368 . S
C530 C524 1.368 . S
C530 C529 1.523 . S
C531 C515 1.429 . S
C531 C527 1.429 . S
C531 C532 1.523 . S
C532 C516 1.368 . S
C532 C528 1.368 . S
C532 C531 1.523 . S
H533 C508 0.950 . S
H534 C510 0.950 . S
H535 C511 0.949 . S
H536 C513 0.950 . S
H537 C515 0.950 . S
C538 C539 1.349 . S
C538 C540 1.327 . S
C538 H563 0.950 . S
C539 C538 1.349 . S
C539 C555 1.349 . S
C540 C538 1.327 . S
C540 C559 1.429 . S
C540 H564 0.950 . S
C541 C558 1.574 1_545 S
C541 C560 1.368 1_554 S
C541 H565 0.949 . S
H542 C546 0.949 . S
C543 C544 1.349 . S
C543 C545 1.327 . S
C543 H566 0.950 . S
C544 C543 1.349 . S
C544 C556 1.349 . S
C545 C543 1.327 . S
C545 C561 1.429 . S
C545 H567 0.950 . S
C546 H542 0.949 . S
C546 C554 1.574 1_565 S
C546 C562 1.368 1_556 S
H547 C555 0.950 . S
H548 C553 0.950 1_554 S
H549 C554 0.949 . S
H550 C556 0.950 . S
H551 C557 0.950 1_556 S
H552 C558 0.949 . S
C553 H548 0.950 1_556 S
C553 C555 1.327 . S
C553 C559 1.429 . S
C554 C546 1.574 1_545 S
C554 H549 0.949 . S
C554 C560 1.368 . S
C555 C539 1.349 . S
C555 H547 0.950 . S
C555 C553 1.327 . S
C556 C544 1.349 . S
C556 H550 0.950 . S
C556 C557 1.327 . S
C557 H551 0.950 1_554 S
C557 C556 1.327 . S
C557 C561 1.429 . S
C558 C541 1.574 1_565 S
C558 H552 0.949 . S
C558 C562 1.368 . S
C559 C540 1.429 . S
C559 C553 1.429 . S
C559 C560 1.523 . S
C560 C541 1.368 1_556 S
C560 C554 1.368 . S
C560 C559 1.523 . S
C561 C545 1.429 . S
C561 C557 1.429 . S
C561 C562 1.523 . S
C562 C546 1.368 1_554 S
C562 C558 1.368 . S
C562 C561 1.523 . S
H563 C538 0.950 . S
H564 C540 0.950 . S
H565 C541 0.949 . S
H566 C543 0.950 . S
H567 C545 0.950 . S
C568 C569 1.349 . S
C568 C570 1.327 . S
C568 H593 0.950 . S
C569 C568 1.349 . S
C569 C585 1.349 . S
C570 C568 1.327 . S
C570 C589 1.429 . S
C570 H594 0.950 . S
C571 C588 1.574 . S
C571 C590 1.368 . S
C571 H595 0.949 . S
H572 C576 0.949 . S
C573 C574 1.349 . S
C573 C575 1.327 . S
C573 H596 0.950 . S
C574 C573 1.349 . S
C574 C586 1.349 . S
C575 C573 1.327 . S
C575 C591 1.429 . S
C575 H597 0.950 . S
C576 H572 0.949 . S
C576 C584 1.574 . S
C576 C592 1.368 . S
H577 C585 0.950 . S
H578 C583 0.950 . S
H579 C584 0.949 . S
H580 C586 0.950 . S
H581 C587 0.950 . S
H582 C588 0.949 . S
C583 H578 0.950 . S
C583 C585 1.327 . S
C583 C589 1.429 . S
C584 C576 1.574 . S
C584 H579 0.949 . S
C584 C590 1.368 . S
C585 C569 1.349 . S
C585 H577 0.950 . S
C585 C583 1.327 . S
C586 C574 1.349 . S
C586 H580 0.950 . S
C586 C587 1.327 . S
C587 H581 0.950 . S
C587 C586 1.327 . S
C587 C591 1.429 . S
C588 C571 1.574 . S
C588 H582 0.949 . S
C588 C592 1.368 . S
C589 C570 1.429 . S
C589 C583 1.429 . S
C589 C590 1.523 . S
C590 C571 1.368 . S
C590 C584 1.368 . S
C590 C589 1.523 . S
C591 C575 1.429 . S
C591 C587 1.429 . S
C591 C592 1.523 . S
C592 C576 1.368 . S
C592 C588 1.368 . S
C592 C591 1.523 . S
H593 C568 0.950 . S
H594 C570 0.950 . S
H595 C571 0.949 . S
H596 C573 0.950 . S
H597 C575 0.950 . S
C598 C599 1.349 . S
C598 C600 1.327 . S
C598 H623 0.950 . S
C599 C598 1.349 . S
C599 C615 1.349 . S
C600 C598 1.327 . S
C600 C619 1.429 . S
C600 H624 0.950 . S
C601 C618 1.574 1_565 S
C601 C620 1.368 . S
C601 H625 0.949 . S
H602 C606 0.949 . S
C603 C604 1.349 . S
C603 C605 1.327 . S
C603 H626 0.950 . S
C604 C603 1.349 . S
C604 C616 1.349 . S
C605 C603 1.327 . S
C605 C621 1.429 . S
C605 H627 0.950 . S
C606 H602 0.949 . S
C606 C614 1.574 1_545 S
C606 C622 1.368 . S
H607 C615 0.950 . S
H608 C613 0.950 . S
H609 C614 0.949 . S
H610 C616 0.950 . S
H611 C617 0.950 . S
H612 C618 0.949 . S
C613 H608 0.950 . S
C613 C615 1.327 . S
C613 C619 1.429 . S
C614 C606 1.574 1_565 S
C614 H609 0.949 . S
C614 C620 1.368 . S
C615 C599 1.349 . S
C615 H607 0.950 . S
C615 C613 1.327 . S
C616 C604 1.349 . S
C616 H610 0.950 . S
C616 C617 1.327 . S
C617 H611 0.950 . S
C617 C616 1.327 . S
C617 C621 1.429 . S
C618 C601 1.574 1_545 S
C618 H612 0.949 . S
C618 C622 1.368 . S
C619 C600 1.429 . S
C619 C613 1.429 . S
C619 C620 1.523 . S
C620 C601 1.368 . S
C620 C614 1.368 . S
C620 C619 1.523 . S
C621 C605 1.429 . S
C621 C617 1.429 . S
C621 C622 1.523 . S
C622 C606 1.368 . S
C622 C618 1.368 . S
C622 C621 1.523 . S
H623 C598 0.950 . S
H624 C600 0.950 . S
H625 C601 0.949 . S
H626 C603 0.950 . S
H627 C605 0.950 . S
C628 C629 1.349 . S
C628 C630 1.327 . S
C628 H653 0.950 . S
C629 C628 1.349 . S
C629 C645 1.349 . S
C630 C628 1.327 . S
C630 C649 1.429 . S
C630 H654 0.950 . S
C631 C648 1.574 . S
C631 C650 1.368 . S
C631 H655 0.949 . S
H632 C636 0.949 . S
C633 C634 1.349 . S
C633 C635 1.327 . S
C633 H656 0.950 . S
C634 C633 1.349 . S
C634 C646 1.349 . S
C635 C633 1.327 . S
C635 C651 1.429 . S
C635 H657 0.950 . S
C636 H632 0.949 . S
C636 C644 1.574 . S
C636 C652 1.368 . S
H637 C645 0.950 . S
H638 C643 0.950 . S
H639 C644 0.949 . S
H640 C646 0.950 . S
H641 C647 0.950 . S
H642 C648 0.949 . S
C643 H638 0.950 . S
C643 C645 1.327 . S
C643 C649 1.429 . S
C644 C636 1.574 . S
C644 H639 0.949 . S
C644 C650 1.368 . S
C645 C629 1.349 . S
C645 H637 0.950 . S
C645 C643 1.327 . S
C646 C634 1.349 . S
C646 H640 0.950 . S
C646 C647 1.327 . S
C647 H641 0.950 . S
C647 C646 1.327 . S
C647 C651 1.429 . S
C648 C631 1.574 . S
C648 H642 0.949 . S
C648 C652 1.368 . S
C649 C630 1.429 . S
C649 C643 1.429 . S
C649 C650 1.523 . S
C650 C631 1.368 . S
C650 C644 1.368 . S
C650 C649 1.523 . S
C651 C635 1.429 . S
C651 C647 1.429 . S
C651 C652 1.523 . S
C652 C636 1.368 . S
C652 C648 1.368 . S
C652 C651 1.523 . S
H653 C628 0.950 . S
H654 C630 0.950 . S
H655 C631 0.949 . S
H656 C633 0.950 . S
H657 C635 0.950 . S
C658 C659 1.349 . S
C658 C660 1.327 . S
C658 H683 0.950 . S
C659 C658 1.349 . S
C659 C675 1.349 . S
C660 C658 1.327 . S
C660 C679 1.429 . S
C660 H684 0.950 . S
C661 C678 1.574 1_545 S
C661 C680 1.368 1_554 S
C661 H685 0.949 . S
H662 C666 0.949 . S
C663 C664 1.349 . S
C663 C665 1.327 . S
C663 H686 0.950 . S
C664 C663 1.349 . S
C664 C676 1.349 . S
C665 C663 1.327 . S
C665 C681 1.429 . S
C665 H687 0.950 . S
C666 H662 0.949 . S
C666 C674 1.574 1_565 S
C666 C682 1.368 1_556 S
H667 C675 0.950 . S
H668 C673 0.950 1_554 S
H669 C674 0.949 . S
H670 C676 0.950 . S
H671 C677 0.950 1_556 S
H672 C678 0.949 . S
C673 H668 0.950 1_556 S
C673 C675 1.327 . S
C673 C679 1.429 . S
C674 C666 1.574 1_545 S
C674 H669 0.949 . S
C674 C680 1.368 . S
C675 C659 1.349 . S
C675 H667 0.950 . S
C675 C673 1.327 . S
C676 C664 1.349 . S
C676 H670 0.950 . S
C676 C677 1.327 . S
C677 H671 0.950 1_554 S
C677 C676 1.327 . S
C677 C681 1.429 . S
C678 C661 1.574 1_565 S
C678 H672 0.949 . S
C678 C682 1.368 . S
C679 C660 1.429 . S
C679 C673 1.429 . S
C679 C680 1.523 . S
C680 C661 1.368 1_556 S
C680 C674 1.368 . S
C680 C679 1.523 . S
C681 C665 1.429 . S
C681 C677 1.429 . S
C681 C682 1.523 . S
C682 C666 1.368 1_554 S
C682 C678 1.368 . S
C682 C681 1.523 . S
H683 C658 0.950 . S
H684 C660 0.950 . S
H685 C661 0.949 . S
H686 C663 0.950 . S
H687 C665 0.950 . S
C688 C689 1.349 . S
C688 C690 1.327 . S
C688 H713 0.950 . S
C689 C688 1.349 . S
C689 C705 1.349 . S
C690 C688 1.327 . S
C690 C709 1.429 . S
C690 H714 0.950 . S
C691 C708 1.574 . S
C691 C710 1.368 . S
C691 H715 0.949 . S
H692 C696 0.949 . S
C693 C694 1.349 . S
C693 C695 1.327 . S
C693 H716 0.950 . S
C694 C693 1.349 . S
C694 C706 1.349 . S
C695 C693 1.327 . S
C695 C711 1.429 . S
C695 H717 0.950 . S
C696 H692 0.949 . S
C696 C704 1.574 . S
C696 C712 1.368 . S
H697 C705 0.950 . S
H698 C703 0.950 . S
H699 C704 0.949 . S
H700 C706 0.950 . S
H701 C707 0.950 . S
H702 C708 0.949 . S
C703 H698 0.950 . S
C703 C705 1.327 . S
C703 C709 1.429 . S
C704 C696 1.574 . S
C704 H699 0.949 . S
C704 C710 1.368 . S
C705 C689 1.349 . S
C705 H697 0.950 . S
C705 C703 1.327 . S
C706 C694 1.349 . S
C706 H700 0.950 . S
C706 C707 1.327 . S
C707 H701 0.950 . S
C707 C706 1.327 . S
C707 C711 1.429 . S
C708 C691 1.574 . S
C708 H702 0.949 . S
C708 C712 1.368 . S
C709 C690 1.429 . S
C709 C703 1.429 . S
C709 C710 1.523 . S
C710 C691 1.368 . S
C710 C704 1.368 . S
C710 C709 1.523 . S
C711 C695 1.429 . S
C711 C707 1.429 . S
C711 C712 1.523 . S
C712 C696 1.368 . S
C712 C708 1.368 . S
C712 C711 1.523 . S
H713 C688 0.950 . S
H714 C690 0.950 . S
H715 C691 0.949 . S
H716 C693 0.950 . S
H717 C695 0.950 . S
C718 C719 1.349 . S
C718 C720 1.327 . S
C718 H743 0.950 . S
C719 C718 1.349 . S
C719 C735 1.349 . S
C720 C718 1.327 . S
C720 C739 1.429 . S
C720 H744 0.950 1_556 S
C721 C738 1.574 . S
C721 C740 1.368 . S
C721 H745 0.949 . S
H722 C726 0.949 . S
C723 C724 1.349 . S
C723 C725 1.327 . S
C723 H746 0.950 . S
C724 C723 1.349 . S
C724 C736 1.349 . S
C725 C723 1.327 . S
C725 C741 1.429 . S
C725 H747 0.950 1_554 S
C726 H722 0.949 . S
C726 C734 1.574 . S
C726 C742 1.368 . S
H727 C735 0.950 . S
H728 C733 0.950 . S
H729 C734 0.949 . S
H730 C736 0.950 . S
H731 C737 0.950 . S
H732 C738 0.949 . S
C733 H728 0.950 . S
C733 C735 1.327 . S
C733 C739 1.429 . S
C734 C726 1.574 . S
C734 H729 0.949 . S
C734 C740 1.368 1_554 S
C735 C719 1.349 . S
C735 H727 0.950 . S
C735 C733 1.327 . S
C736 C724 1.349 . S
C736 H730 0.950 . S
C736 C737 1.327 . S
C737 H731 0.950 . S
C737 C736 1.327 . S
C737 C741 1.429 . S
C738 C721 1.574 . S
C738 H732 0.949 . S
C738 C742 1.368 1_556 S
C739 C720 1.429 . S
C739 C733 1.429 . S
C739 C740 1.523 . S
C740 C721 1.368 . S
C740 C734 1.368 1_556 S
C740 C739 1.523 . S
C741 C725 1.429 . S
C741 C737 1.429 . S
C741 C742 1.523 . S
C742 C726 1.368 . S
C742 C738 1.368 1_554 S
C742 C741 1.523 . S
H743 C718 0.950 . S
H744 C720 0.950 1_554 S
H745 C721 0.949 . S
H746 C723 0.950 . S
H747 C725 0.950 1_556 S
C748 C749 1.349 . S
C748 C750 1.327 . S
C748 H773 0.950 . S
C749 C748 1.349 . S
C749 C765 1.349 . S
C750 C748 1.327 . S
C750 C769 1.429 . S
C750 H774 0.950 . S
C751 C768 1.574 . S
C751 C770 1.368 . S
C751 H775 0.949 . S
H752 C756 0.949 . S
C753 C754 1.349 . S
C753 C755 1.327 . S
C753 H776 0.950 . S
C754 C753 1.349 . S
C754 C766 1.349 . S
C755 C753 1.327 . S
C755 C771 1.429 . S
C755 H777 0.950 . S
C756 H752 0.949 . S
C756 C764 1.574 . S
C756 C772 1.368 . S
H757 C765 0.950 . S
H758 C763 0.950 . S
H759 C764 0.949 . S
H760 C766 0.950 . S
H761 C767 0.950 . S
H762 C768 0.949 . S
C763 H758 0.950 . S
C763 C765 1.327 . S
C763 C769 1.429 . S
C764 C756 1.574 . S
C764 H759 0.949 . S
C764 C770 1.368 . S
C765 C749 1.349 . S
C765 H757 0.950 . S
C765 C763 1.327 . S
C766 C754 1.349 . S
C766 H760 0.950 . S
C766 C767 1.327 . S
C767 H761 0.950 . S
C767 C766 1.327 . S
C767 C771 1.429 . S
C768 C751 1.574 . S
C768 H762 0.949 . S
C768 C772 1.368 . S
C769 C750 1.429 . S
C769 C763 1.429 . S
C769 C770 1.523 . S
C770 C751 1.368 . S
C770 C764 1.368 . S
C770 C769 1.523 . S
C771 C755 1.429 . S
C771 C767 1.429 . S
C771 C772 1.523 . S
C772 C756 1.368 . S
C772 C768 1.368 . S
C772 C771 1.523 . S
H773 C748 0.950 . S
H774 C750 0.950 . S
H775 C751 0.949 . S
H776 C753 0.950 . S
H777 C755 0.950 . S
C778 C779 1.349 . S
C778 C780 1.327 . S
C778 H803 0.950 . S
C779 C778 1.349 . S
C779 C795 1.349 . S
C780 C778 1.327 . S
C780 C799 1.429 . S
C780 H804 0.950 . S
C781 C798 1.574 . S
C781 C800 1.368 . S
C781 H805 0.949 . S
H782 C786 0.949 . S
C783 C784 1.349 . S
C783 C785 1.327 . S
C783 H806 0.950 . S
C784 C783 1.349 . S
C784 C796 1.349 . S
C785 C783 1.327 . S
C785 C801 1.429 . S
C785 H807 0.950 . S
C786 H782 0.949 . S
C786 C794 1.574 . S
C786 C802 1.368 . S
H787 C795 0.950 . S
H788 C793 0.950 . S
H789 C794 0.949 . S
H790 C796 0.950 . S
H791 C797 0.950 . S
H792 C798 0.949 . S
C793 H788 0.950 . S
C793 C795 1.327 . S
C793 C799 1.429 . S
C794 C786 1.574 . S
C794 H789 0.949 . S
C794 C800 1.368 . S
C795 C779 1.349 . S
C795 H787 0.950 . S
C795 C793 1.327 . S
C796 C784 1.349 . S
C796 H790 0.950 . S
C796 C797 1.327 . S
C797 H791 0.950 . S
C797 C796 1.327 . S
C797 C801 1.429 . S
C798 C781 1.574 . S
C798 H792 0.949 . S
C798 C802 1.368 . S
C799 C780 1.429 . S
C799 C793 1.429 . S
C799 C800 1.523 . S
C800 C781 1.368 . S
C800 C794 1.368 . S
C800 C799 1.523 . S
C801 C785 1.429 . S
C801 C797 1.429 . S
C801 C802 1.523 . S
C802 C786 1.368 . S
C802 C798 1.368 . S
C802 C801 1.523 . S
H803 C778 0.950 . S
H804 C780 0.950 . S
H805 C781 0.949 . S
H806 C783 0.950 . S
H807 C785 0.950 . S
C808 C809 1.349 . S
C808 C810 1.327 . S
C808 H833 0.950 . S
C809 C808 1.349 . S
C809 C825 1.349 . S
C810 C808 1.327 . S
C810 C829 1.429 . S
C810 H834 0.950 . S
C811 C828 1.574 . S
C811 C830 1.368 . S
C811 H835 0.949 . S
H812 C816 0.949 . S
C813 C814 1.349 . S
C813 C815 1.327 . S
C813 H836 0.950 . S
C814 C813 1.349 . S
C814 C826 1.349 . S
C815 C813 1.327 . S
C815 C831 1.429 . S
C815 H837 0.950 . S
C816 H812 0.949 . S
C816 C824 1.574 . S
C816 C832 1.368 . S
H817 C825 0.950 . S
H818 C823 0.950 . S
H819 C824 0.949 . S
H820 C826 0.950 . S
H821 C827 0.950 . S
H822 C828 0.949 . S
C823 H818 0.950 . S
C823 C825 1.327 . S
C823 C829 1.429 . S
C824 C816 1.574 . S
C824 H819 0.949 . S
C824 C830 1.368 . S
C825 C809 1.349 . S
C825 H817 0.950 . S
C825 C823 1.327 . S
C826 C814 1.349 . S
C826 H820 0.950 . S
C826 C827 1.327 . S
C827 H821 0.950 . S
C827 C826 1.327 . S
C827 C831 1.429 . S
C828 C811 1.574 . S
C828 H822 0.949 . S
C828 C832 1.368 . S
C829 C810 1.429 . S
C829 C823 1.429 . S
C829 C830 1.523 . S
C830 C811 1.368 . S
C830 C824 1.368 . S
C830 C829 1.523 . S
C831 C815 1.429 . S
C831 C827 1.429 . S
C831 C832 1.523 . S
C832 C816 1.368 . S
C832 C828 1.368 . S
C832 C831 1.523 . S
H833 C808 0.950 . S
H834 C810 0.950 . S
H835 C811 0.949 . S
H836 C813 0.950 . S
H837 C815 0.950 . S
C838 C839 1.349 . S
C838 C840 1.327 . S
C838 H863 0.950 . S
C839 C838 1.349 . S
C839 C855 1.349 . S
C840 C838 1.327 . S
C840 C859 1.429 . S
C840 H864 0.950 . S
C841 C858 1.574 . S
C841 C860 1.368 1_556 S
C841 H865 0.949 . S
H842 C846 0.949 . S
C843 C844 1.349 . S
C843 C845 1.327 . S
C843 H866 0.950 . S
C844 C843 1.349 . S
C844 C856 1.349 . S
C845 C843 1.327 . S
C845 C861 1.429 . S
C845 H867 0.950 . S
C846 H842 0.949 . S
C846 C854 1.574 . S
C846 C862 1.368 1_554 S
H847 C855 0.937 1_556 S
H848 C853 0.950 1_556 S
H849 C854 0.949 . S
H850 C856 0.937 1_554 S
H851 C857 0.950 1_554 S
H852 C858 0.949 . S
C853 H848 0.950 1_554 S
C853 C855 1.327 . S
C853 C859 1.429 . S
C854 C846 1.574 . S
C854 H849 0.949 . S
C854 C860 1.368 . S
C855 C839 1.349 . S
C855 H847 0.937 1_554 S
C855 C853 1.327 . S
C856 C844 1.349 . S
C856 H850 0.937 1_556 S
C856 C857 1.327 . S
C857 H851 0.950 1_556 S
C857 C856 1.327 . S
C857 C861 1.429 . S
C858 C841 1.574 . S
C858 H852 0.949 . S
C858 C862 1.368 . S
C859 C840 1.429 . S
C859 C853 1.429 . S
C859 C860 1.523 . S
C860 C841 1.368 1_554 S
C860 C854 1.368 . S
C860 C859 1.523 . S
C861 C845 1.429 . S
C861 C857 1.429 . S
C861 C862 1.523 . S
C862 C846 1.368 1_556 S
C862 C858 1.368 . S
C862 C861 1.523 . S
H863 C838 0.950 . S
H864 C840 0.950 . S
H865 C841 0.949 . S
H866 C843 0.950 . S
H867 C845 0.950 . S
C868 C869 1.349 . S
C868 C870 1.327 . S
C868 H893 0.950 . S
C869 C868 1.349 . S
C869 C885 1.349 . S
C870 C868 1.327 . S
C870 C889 1.429 . S
C870 H894 0.950 . S
C871 C888 1.574 . S
C871 C890 1.368 . S
C871 H895 0.949 . S
H872 C876 0.949 . S
C873 C874 1.349 . S
C873 C875 1.327 . S
C873 H896 0.950 . S
C874 C873 1.349 . S
C874 C886 1.349 . S
C875 C873 1.327 . S
C875 C891 1.429 . S
C875 H897 0.950 . S
C876 H872 0.949 . S
C876 C884 1.574 . S
C876 C892 1.368 . S
H877 C885 0.950 . S
H878 C883 0.950 . S
H879 C884 0.949 . S
H880 C886 0.950 . S
H881 C887 0.950 . S
H882 C888 0.949 . S
C883 H878 0.950 . S
C883 C885 1.327 . S
C883 C889 1.429 . S
C884 C876 1.574 . S
C884 H879 0.949 . S
C884 C890 1.368 . S
C885 C869 1.349 . S
C885 H877 0.950 . S
C885 C883 1.327 . S
C886 C874 1.349 . S
C886 H880 0.950 . S
C886 C887 1.327 . S
C887 H881 0.950 . S
C887 C886 1.327 . S
C887 C891 1.429 . S
C888 C871 1.574 . S
C888 H882 0.949 . S
C888 C892 1.368 . S
C889 C870 1.429 . S
C889 C883 1.429 . S
C889 C890 1.523 . S
C890 C871 1.368 . S
C890 C884 1.368 . S
C890 C889 1.523 . S
C891 C875 1.429 . S
C891 C887 1.429 . S
C891 C892 1.523 . S
C892 C876 1.368 . S
C892 C888 1.368 . S
C892 C891 1.523 . S
H893 C868 0.950 . S
H894 C870 0.950 . S
H895 C871 0.949 . S
H896 C873 0.950 . S
H897 C875 0.950 . S
C898 C899 1.349 . S
C898 C900 1.327 . S
C898 H923 0.950 . S
C899 C898 1.349 . S
C899 C915 1.349 . S
C900 C898 1.327 . S
C900 C919 1.429 . S
C900 H924 0.950 . S
C901 C918 1.574 . S
C901 C920 1.368 . S
C901 H925 0.949 . S
H902 C906 0.949 . S
C903 C904 1.349 . S
C903 C905 1.327 . S
C903 H926 0.950 . S
C904 C903 1.349 . S
C904 C916 1.349 . S
C905 C903 1.327 . S
C905 C921 1.429 . S
C905 H927 0.950 . S
C906 H902 0.949 . S
C906 C914 1.574 . S
C906 C922 1.368 . S
H907 C915 0.950 . S
H908 C913 0.950 . S
H909 C914 0.949 . S
H910 C916 0.950 . S
H911 C917 0.950 . S
H912 C918 0.949 . S
C913 H908 0.950 . S
C913 C915 1.327 . S
C913 C919 1.429 . S
C914 C906 1.574 . S
C914 H909 0.949 . S
C914 C920 1.368 . S
C915 C899 1.349 . S
C915 H907 0.950 . S
C915 C913 1.327 . S
C916 C904 1.349 . S
C916 H910 0.950 . S
C916 C917 1.327 . S
C917 H911 0.950 . S
C917 C916 1.327 . S
C917 C921 1.429 . S
C918 C901 1.574 . S
C918 H912 0.949 . S
C918 C922 1.368 . S
C919 C900 1.429 . S
C919 C913 1.429 . S
C919 C920 1.523 . S
C920 C901 1.368 . S
C920 C914 1.368 . S
C920 C919 1.523 . S
C921 C905 1.429 . S
C921 C917 1.429 . S
C921 C922 1.523 . S
C922 C906 1.368 . S
C922 C918 1.368 . S
C922 C921 1.523 . S
H923 C898 0.950 . S
H924 C900 0.950 . S
H925 C901 0.949 . S
H926 C903 0.950 . S
H927 C905 0.950 . S
C928 C929 1.349 . S
C928 C930 1.327 1_554 S
C928 H953 0.950 . S
C929 C928 1.349 . S
C929 C945 1.349 1_554 S
C930 C928 1.327 1_556 S
C930 C949 1.429 . S
C930 H954 0.950 . S
C931 C948 1.574 . S
C931 C950 1.368 . S
C931 H955 0.949 . S
H932 C936 0.949 . S
C933 C934 1.349 . S
C933 C935 1.327 . S
C933 H956 0.950 . S
C934 C933 1.349 . S
C934 C946 1.349 . S
C935 C933 1.327 . S
C935 C951 1.429 . S
C935 H957 0.950 . S
C936 H932 0.949 . S
C936 C944 1.574 . S
C936 C952 1.368 . S
H937 C945 0.950 . S
H938 C943 0.950 . S
H939 C944 0.949 . S
H940 C946 0.950 . S
H941 C947 0.950 . S
H942 C948 0.949 . S
C943 H938 0.950 . S
C943 C945 1.327 . S
C943 C949 1.429 . S
C944 C936 1.574 . S
C944 H939 0.949 . S
C944 C950 1.368 . S
C945 C929 1.349 1_556 S
C945 H937 0.950 . S
C945 C943 1.327 . S
C946 C934 1.349 . S
C946 H940 0.950 . S
C946 C947 1.327 . S
C947 H941 0.950 . S
C947 C946 1.327 . S
C947 C951 1.429 . S
C948 C931 1.574 . S
C948 H942 0.949 . S
C948 C952 1.368 . S
C949 C930 1.429 . S
C949 C943 1.429 . S
C949 C950 1.523 . S
C950 C931 1.368 . S
C950 C944 1.368 . S
C950 C949 1.523 . S
C951 C935 1.429 . S
C951 C947 1.429 . S
C951 C952 1.523 . S
C952 C936 1.368 . S
C952 C948 1.368 . S
C952 C951 1.523 . S
H953 C928 0.950 . S
H954 C930 0.950 . S
H955 C931 0.949 . S
H956 C933 0.950 . S
H957 C935 0.950 . S
C958 C959 1.349 1_554 S
C958 C960 1.327 . S
C958 H983 0.950 . S
C959 C958 1.349 1_556 S
C959 C975 1.349 . S
C960 C958 1.327 . S
C960 C979 1.429 . S
C960 H984 0.950 . S
C961 C978 1.574 . S
C961 C980 1.368 . S
C961 H985 0.949 . S
H962 C966 0.949 . S
C963 C964 1.349 . S
C963 C965 1.327 . S
C963 H986 0.950 . S
C964 C963 1.349 . S
C964 C976 1.349 . S
C965 C963 1.327 . S
C965 C981 1.429 . S
C965 H987 0.950 . S
C966 H962 0.949 . S
C966 C974 1.574 . S
C966 C982 1.368 . S
H967 C975 0.950 . S
H968 C973 0.949 . S
H969 C974 0.949 . S
H970 C976 0.950 . S
H971 C977 0.950 . S
H972 C978 0.949 . S
C973 H968 0.949 . S
C973 C975 1.327 1_554 S
C973 C979 1.429 . S
C974 C966 1.574 . S
C974 H969 0.949 . S
C974 C980 1.368 . S
C975 C959 1.349 . S
C975 H967 0.950 . S
C975 C973 1.327 1_556 S
C976 C964 1.349 . S
C976 H970 0.950 . S
C976 C977 1.327 . S
C977 H971 0.950 . S
C977 C976 1.327 . S
C977 C981 1.429 . S
C978 C961 1.574 . S
C978 H972 0.949 . S
C978 C982 1.368 . S
C979 C960 1.429 . S
C979 C973 1.429 . S
C979 C980 1.523 . S
C980 C961 1.368 . S
C980 C974 1.368 . S
C980 C979 1.523 . S
C981 C965 1.429 . S
C981 C977 1.429 . S
C981 C982 1.523 . S
C982 C966 1.368 . S
C982 C978 1.368 . S
C982 C981 1.523 . S
H983 C958 0.950 . S
H984 C960 0.950 . S
H985 C961 0.949 . S
H986 C963 0.950 . S
H987 C965 0.950 . S
C988 C989 1.349 . S
C988 C990 1.327 . S
C988 H1013 0.950 . S
C989 C988 1.349 . S
C989 C1005 1.349 . S
C990 C988 1.327 . S
C990 C1009 1.429 . S
C990 H1014 0.950 . S
C991 C1008 1.574 . S
C991 C1010 1.368 . S
C991 H1015 0.949 . S
H992 C996 0.949 . S
C993 C994 1.349 . S
C993 C995 1.327 . S
C993 H1016 0.950 . S
C994 C993 1.349 . S
C994 C1006 1.349 . S
C995 C993 1.327 . S
C995 C1011 1.429 . S
C995 H1017 0.950 . S
C996 H992 0.949 . S
C996 C1004 1.574 . S
C996 C1012 1.368 . S
H997 C1005 0.950 . S
H998 C1003 0.950 . S
H999 C1004 0.949 . S
H1000 C1006 0.950 . S
H1001 C1007 0.950 . S
H1002 C1008 0.949 . S
C1003 H998 0.950 . S
C1003 C1005 1.327 . S
C1003 C1009 1.429 . S
C1004 C996 1.574 . S
C1004 H999 0.949 . S
C1004 C1010 1.368 . S
C1005 C989 1.349 . S
C1005 H997 0.950 . S
C1005 C1003 1.327 . S
C1006 C994 1.349 . S
C1006 H1000 0.950 . S
C1006 C1007 1.327 . S
C1007 H1001 0.950 . S
C1007 C1006 1.327 . S
C1007 C1011 1.429 . S
C1008 C991 1.574 . S
C1008 H1002 0.949 . S
C1008 C1012 1.368 . S
C1009 C990 1.429 . S
C1009 C1003 1.429 . S
C1009 C1010 1.523 . S
C1010 C991 1.368 . S
C1010 C1004 1.368 . S
C1010 C1009 1.523 . S
C1011 C995 1.429 . S
C1011 C1007 1.429 . S
C1011 C1012 1.523 . S
C1012 C996 1.368 . S
C1012 C1008 1.368 . S
C1012 C1011 1.523 . S
H1013 C988 0.950 . S
H1014 C990 0.950 . S
H1015 C991 0.949 . S
H1016 C993 0.950 . S
H1017 C995 0.950 . S
C1018 C1019 1.349 . S
C1018 C1020 1.327 . S
C1018 H1043 0.950 . S
C1019 C1018 1.349 . S
C1019 C1035 1.349 . S
C1020 C1018 1.327 . S
C1020 C1039 1.429 . S
C1020 H1044 0.950 . S
C1021 C1038 1.574 . S
C1021 C1040 1.368 . S
C1021 H1045 0.949 . S
H1022 C1026 0.949 . S
C1023 C1024 1.349 . S
C1023 C1025 1.327 . S
C1023 H1046 0.950 . S
C1024 C1023 1.349 . S
C1024 C1036 1.349 . S
C1025 C1023 1.327 . S
C1025 C1041 1.429 . S
C1025 H1047 0.950 . S
C1026 H1022 0.949 . S
C1026 C1034 1.574 . S
C1026 C1042 1.368 . S
H1027 C1035 0.950 . S
H1028 C1033 0.950 . S
H1029 C1034 0.949 . S
H1030 C1036 0.950 . S
H1031 C1037 0.950 . S
H1032 C1038 0.949 . S
C1033 H1028 0.950 . S
C1033 C1035 1.327 . S
C1033 C1039 1.429 . S
C1034 C1026 1.574 . S
C1034 H1029 0.949 . S
C1034 C1040 1.368 . S
C1035 C1019 1.349 . S
C1035 H1027 0.950 . S
C1035 C1033 1.327 . S
C1036 C1024 1.349 . S
C1036 H1030 0.950 . S
C1036 C1037 1.327 . S
C1037 H1031 0.950 . S
C1037 C1036 1.327 . S
C1037 C1041 1.429 . S
C1038 C1021 1.574 . S
C1038 H1032 0.949 . S
C1038 C1042 1.368 . S
C1039 C1020 1.429 . S
C1039 C1033 1.429 . S
C1039 C1040 1.523 . S
C1040 C1021 1.368 . S
C1040 C1034 1.368 . S
C1040 C1039 1.523 . S
C1041 C1025 1.429 . S
C1041 C1037 1.429 . S
C1041 C1042 1.523 . S
C1042 C1026 1.368 . S
C1042 C1038 1.368 . S
C1042 C1041 1.523 . S
H1043 C1018 0.950 . S
H1044 C1020 0.950 . S
H1045 C1021 0.949 . S
H1046 C1023 0.950 . S
H1047 C1025 0.950 . S
C1048 C1049 1.349 1_554 S
C1048 C1050 1.327 . S
C1048 H1073 0.950 . S
C1049 C1048 1.349 1_556 S
C1049 C1065 1.349 . S
C1050 C1048 1.327 . S
C1050 C1069 1.429 . S
C1050 H1074 0.950 . S
C1051 C1068 1.574 . S
C1051 C1070 1.368 . S
C1051 H1075 0.949 . S
H1052 C1056 0.949 . S
C1053 C1054 1.349 . S
C1053 C1055 1.327 . S
C1053 H1076 0.950 . S
C1054 C1053 1.349 . S
C1054 C1066 1.349 . S
C1055 C1053 1.327 . S
C1055 C1071 1.429 . S
C1055 H1077 0.950 . S
C1056 H1052 0.949 . S
C1056 C1064 1.574 . S
C1056 C1072 1.368 . S
H1057 C1065 0.950 . S
H1058 C1063 0.950 . S
H1059 C1064 0.949 . S
H1060 C1066 0.950 . S
H1061 C1067 0.950 . S
H1062 C1068 0.949 . S
C1063 H1058 0.950 . S
C1063 C1065 1.327 1_554 S
C1063 C1069 1.429 . S
C1064 C1056 1.574 . S
C1064 H1059 0.949 . S
C1064 C1070 1.368 . S
C1065 C1049 1.349 . S
C1065 H1057 0.950 . S
C1065 C1063 1.327 1_556 S
C1066 C1054 1.349 . S
C1066 H1060 0.950 . S
C1066 C1067 1.327 . S
C1067 H1061 0.950 . S
C1067 C1066 1.327 . S
C1067 C1071 1.429 . S
C1068 C1051 1.574 . S
C1068 H1062 0.949 . S
C1068 C1072 1.368 . S
C1069 C1050 1.429 . S
C1069 C1063 1.429 . S
C1069 C1070 1.523 . S
C1070 C1051 1.368 . S
C1070 C1064 1.368 . S
C1070 C1069 1.523 . S
C1071 C1055 1.429 . S
C1071 C1067 1.429 . S
C1071 C1072 1.523 . S
C1072 C1056 1.368 . S
C1072 C1068 1.368 . S
C1072 C1071 1.523 . S
H1073 C1048 0.950 . S
H1074 C1050 0.950 . S
H1075 C1051 0.949 . S
H1076 C1053 0.950 . S
H1077 C1055 0.950 . S
C1078 C1079 1.349 . S
C1078 C1080 1.327 1_554 S
C1078 H1103 0.950 . S
C1079 C1078 1.349 . S
C1079 C1095 1.349 . S
C1080 C1078 1.327 1_556 S
C1080 C1099 1.429 . S
C1080 H1104 0.950 . S
C1081 C1098 1.574 . S
C1081 C1100 1.368 . S
C1081 H1105 0.949 . S
H1082 C1086 0.949 . S
C1083 C1084 1.349 . S
C1083 C1085 1.327 . S
C1083 H1106 0.950 . S
C1084 C1083 1.349 . S
C1084 C1096 1.349 . S
C1085 C1083 1.327 . S
C1085 C1101 1.429 . S
C1085 H1107 0.950 . S
C1086 H1082 0.949 . S
C1086 C1094 1.574 . S
C1086 C1102 1.368 . S
H1087 C1095 0.950 . S
H1088 C1093 0.950 . S
H1089 C1094 0.949 . S
H1090 C1096 0.950 . S
H1091 C1097 0.950 . S
H1092 C1098 0.949 . S
C1093 H1088 0.950 . S
C1093 C1095 1.327 1_556 S
C1093 C1099 1.429 . S
C1094 C1086 1.574 . S
C1094 H1089 0.949 . S
C1094 C1100 1.368 . S
C1095 C1079 1.349 . S
C1095 H1087 0.950 . S
C1095 C1093 1.327 1_554 S
C1096 C1084 1.349 . S
C1096 H1090 0.950 . S
C1096 C1097 1.327 . S
C1097 H1091 0.950 . S
C1097 C1096 1.327 . S
C1097 C1101 1.429 . S
C1098 C1081 1.574 . S
C1098 H1092 0.949 . S
C1098 C1102 1.368 . S
C1099 C1080 1.429 . S
C1099 C1093 1.429 . S
C1099 C1100 1.523 . S
C1100 C1081 1.368 . S
C1100 C1094 1.368 . S
C1100 C1099 1.523 . S
C1101 C1085 1.429 . S
C1101 C1097 1.429 . S
C1101 C1102 1.523 . S
C1102 C1086 1.368 . S
C1102 C1098 1.368 . S
C1102 C1101 1.523 . S
H1103 C1078 0.950 . S
H1104 C1080 0.950 . S
H1105 C1081 0.949 . S
H1106 C1083 0.950 . S
H1107 C1085 0.950 . S
C1108 C1109 1.349 . S
C1108 C1110 1.327 . S
C1108 H1133 0.950 . S
C1109 C1108 1.349 . S
C1109 C1125 1.349 . S
C1110 C1108 1.327 . S
C1110 C1129 1.429 . S
C1110 H1134 0.950 . S
C1111 C1128 1.574 . S
C1111 C1130 1.368 . S
C1111 H1135 0.949 . S
H1112 C1116 0.949 . S
C1113 C1114 1.349 . S
C1113 C1115 1.327 . S
C1113 H1136 0.950 . S
C1114 C1113 1.349 . S
C1114 C1126 1.349 . S
C1115 C1113 1.327 . S
C1115 C1131 1.429 . S
C1115 H1137 0.950 . S
C1116 H1112 0.949 . S
C1116 C1124 1.574 . S
C1116 C1132 1.368 . S
H1117 C1125 0.950 . S
H1118 C1123 0.950 . S
H1119 C1124 0.949 . S
H1120 C1126 0.950 . S
H1121 C1127 0.950 . S
H1122 C1128 0.949 . S
C1123 H1118 0.950 . S
C1123 C1125 1.327 . S
C1123 C1129 1.429 . S
C1124 C1116 1.574 . S
C1124 H1119 0.949 . S
C1124 C1130 1.368 . S
C1125 C1109 1.349 . S
C1125 H1117 0.950 . S
C1125 C1123 1.327 . S
C1126 C1114 1.349 . S
C1126 H1120 0.950 . S
C1126 C1127 1.327 . S
C1127 H1121 0.950 . S
C1127 C1126 1.327 . S
C1127 C1131 1.429 . S
C1128 C1111 1.574 . S
C1128 H1122 0.949 . S
C1128 C1132 1.368 . S
C1129 C1110 1.429 . S
C1129 C1123 1.429 . S
C1129 C1130 1.523 . S
C1130 C1111 1.368 . S
C1130 C1124 1.368 . S
C1130 C1129 1.523 . S
C1131 C1115 1.429 . S
C1131 C1127 1.429 . S
C1131 C1132 1.523 . S
C1132 C1116 1.368 . S
C1132 C1128 1.368 . S
C1132 C1131 1.523 . S
H1133 C1108 0.950 . S
H1134 C1110 0.950 . S
H1135 C1111 0.949 . S
H1136 C1113 0.950 . S
H1137 C1115 0.950 . S
C1138 C1139 1.349 . S
C1138 C1140 1.327 . S
C1138 H1163 0.950 . S
C1139 C1138 1.349 . S
C1139 C1155 1.349 . S
C1140 C1138 1.327 . S
C1140 C1159 1.429 . S
C1140 H1164 0.950 . S
C1141 C1158 1.574 . S
C1141 C1160 1.368 . S
C1141 H1165 0.949 . S
H1142 C1146 0.949 . S
C1143 C1144 1.349 . S
C1143 C1145 1.327 . S
C1143 H1166 0.950 . S
C1144 C1143 1.349 . S
C1144 C1156 1.349 . S
C1145 C1143 1.327 . S
C1145 C1161 1.429 . S
C1145 H1167 0.950 . S
C1146 H1142 0.949 . S
C1146 C1154 1.574 . S
C1146 C1162 1.368 . S
H1147 C1155 0.950 . S
H1148 C1153 0.950 . S
H1149 C1154 0.949 . S
H1150 C1156 0.950 . S
H1151 C1157 0.950 . S
H1152 C1158 0.949 . S
C1153 H1148 0.950 . S
C1153 C1155 1.327 . S
C1153 C1159 1.429 . S
C1154 C1146 1.574 . S
C1154 H1149 0.949 . S
C1154 C1160 1.368 . S
C1155 C1139 1.349 . S
C1155 H1147 0.950 . S
C1155 C1153 1.327 . S
C1156 C1144 1.349 . S
C1156 H1150 0.950 . S
C1156 C1157 1.327 . S
C1157 H1151 0.950 . S
C1157 C1156 1.327 . S
C1157 C1161 1.429 . S
C1158 C1141 1.574 . S
C1158 H1152 0.949 . S
C1158 C1162 1.368 . S
C1159 C1140 1.429 . S
C1159 C1153 1.429 . S
C1159 C1160 1.523 . S
C1160 C1141 1.368 . S
C1160 C1154 1.368 . S
C1160 C1159 1.523 . S
C1161 C1145 1.429 . S
C1161 C1157 1.429 . S
C1161 C1162 1.523 . S
C1162 C1146 1.368 . S
C1162 C1158 1.368 . S
C1162 C1161 1.523 . S
H1163 C1138 0.950 . S
H1164 C1140 0.950 . S
H1165 C1141 0.949 . S
H1166 C1143 0.950 . S
H1167 C1145 0.950 . S
C1168 C1169 1.349 . S
C1168 C1170 1.327 . S
C1168 H1193 0.950 . S
C1169 C1168 1.349 . S
C1169 C1185 1.349 . S
C1170 C1168 1.327 . S
C1170 C1189 1.429 . S
C1170 H1194 0.950 . S
C1171 C1188 1.574 . S
C1171 C1190 1.368 . S
C1171 H1195 0.949 . S
H1172 C1176 0.949 . S
C1173 C1174 1.349 . S
C1173 C1175 1.327 . S
C1173 H1196 0.950 . S
C1174 C1173 1.349 . S
C1174 C1186 1.349 . S
C1175 C1173 1.327 . S
C1175 C1191 1.429 . S
C1175 H1197 0.950 . S
C1176 H1172 0.949 . S
C1176 C1184 1.574 . S
C1176 C1192 1.368 . S
H1177 C1185 0.950 . S
H1178 C1183 0.950 . S
H1179 C1184 0.949 . S
H1180 C1186 0.950 . S
H1181 C1187 0.950 . S
H1182 C1188 0.949 . S
C1183 H1178 0.950 . S
C1183 C1185 1.327 . S
C1183 C1189 1.429 . S
C1184 C1176 1.574 . S
C1184 H1179 0.949 . S
C1184 C1190 1.368 . S
C1185 C1169 1.349 . S
C1185 H1177 0.950 . S
C1185 C1183 1.327 . S
C1186 C1174 1.349 . S
C1186 H1180 0.950 . S
C1186 C1187 1.327 . S
C1187 H1181 0.950 . S
C1187 C1186 1.327 . S
C1187 C1191 1.429 . S
C1188 C1171 1.574 . S
C1188 H1182 0.949 . S
C1188 C1192 1.368 . S
C1189 C1170 1.429 . S
C1189 C1183 1.429 . S
C1189 C1190 1.523 . S
C1190 C1171 1.368 . S
C1190 C1184 1.368 . S
C1190 C1189 1.523 . S
C1191 C1175 1.429 . S
C1191 C1187 1.429 . S
C1191 C1192 1.523 . S
C1192 C1176 1.368 . S
C1192 C1188 1.368 . S
C1192 C1191 1.523 . S
H1193 C1168 0.950 . S
H1194 C1170 0.950 . S
H1195 C1171 0.949 . S
H1196 C1173 0.950 . S
H1197 C1175 0.950 . S
C1198 C1199 1.349 . S
C1198 C1200 1.327 . S
C1198 H1223 0.950 . S
C1199 C1198 1.349 . S
C1199 C1215 1.349 . S
C1200 C1198 1.327 . S
C1200 C1219 1.429 . S
C1200 H1224 0.950 . S
C1201 C1218 1.574 . S
C1201 C1220 1.368 . S
C1201 H1225 0.949 . S
H1202 C1206 0.949 . S
C1203 C1204 1.349 . S
C1203 C1205 1.327 . S
C1203 H1226 0.950 . S
C1204 C1203 1.349 . S
C1204 C1216 1.349 . S
C1205 C1203 1.327 . S
C1205 C1221 1.429 . S
C1205 H1227 0.950 . S
C1206 H1202 0.949 . S
C1206 C1214 1.574 . S
C1206 C1222 1.368 . S
H1207 C1215 0.950 . S
H1208 C1213 0.950 . S
H1209 C1214 0.949 . S
H1210 C1216 0.950 . S
H1211 C1217 0.950 . S
H1212 C1218 0.949 . S
C1213 H1208 0.950 . S
C1213 C1215 1.327 . S
C1213 C1219 1.429 . S
C1214 C1206 1.574 . S
C1214 H1209 0.949 . S
C1214 C1220 1.368 . S
C1215 C1199 1.349 . S
C1215 H1207 0.950 . S
C1215 C1213 1.327 . S
C1216 C1204 1.349 . S
C1216 H1210 0.950 . S
C1216 C1217 1.327 . S
C1217 H1211 0.950 . S
C1217 C1216 1.327 . S
C1217 C1221 1.429 . S
C1218 C1201 1.574 . S
C1218 H1212 0.949 . S
C1218 C1222 1.368 . S
C1219 C1200 1.429 . S
C1219 C1213 1.429 . S
C1219 C1220 1.523 . S
C1220 C1201 1.368 . S
C1220 C1214 1.368 . S
C1220 C1219 1.523 . S
C1221 C1205 1.429 . S
C1221 C1217 1.429 . S
C1221 C1222 1.523 . S
C1222 C1206 1.368 . S
C1222 C1218 1.368 . S
C1222 C1221 1.523 . S
H1223 C1198 0.950 . S
H1224 C1200 0.950 . S
H1225 C1201 0.949 . S
H1226 C1203 0.950 . S
H1227 C1205 0.950 . S
C1228 C1229 1.349 . S
C1228 C1230 1.327 . S
C1228 H1253 0.950 . S
C1229 C1228 1.349 . S
C1229 C1245 1.349 . S
C1230 C1228 1.327 . S
C1230 C1249 1.429 . S
C1230 H1254 0.950 . S
C1231 C1248 1.574 . S
C1231 C1250 1.368 . S
C1231 H1255 0.949 . S
H1232 C1236 0.949 . S
C1233 C1234 1.349 . S
C1233 C1235 1.327 1_554 S
C1233 H1256 0.950 . S
C1234 C1233 1.349 . S
C1234 C1246 1.349 . S
C1235 C1233 1.327 1_556 S
C1235 C1251 1.429 . S
C1235 H1257 0.950 . S
C1236 H1232 0.949 . S
C1236 C1244 1.574 . S
C1236 C1252 1.368 . S
H1237 C1245 0.950 . S
H1238 C1243 0.950 . S
H1239 C1244 0.949 . S
H1240 C1246 0.950 . S
H1241 C1247 0.950 . S
H1242 C1248 0.949 . S
C1243 H1238 0.950 . S
C1243 C1245 1.327 . S
C1243 C1249 1.429 . S
C1244 C1236 1.574 . S
C1244 H1239 0.949 . S
C1244 C1250 1.368 . S
C1245 C1229 1.349 . S
C1245 H1237 0.950 . S
C1245 C1243 1.327 . S
C1246 C1234 1.349 . S
C1246 H1240 0.950 . S
C1246 C1247 1.327 1_554 S
C1247 H1241 0.950 . S
C1247 C1246 1.327 1_556 S
C1247 C1251 1.429 . S
C1248 C1231 1.574 . S
C1248 H1242 0.949 . S
C1248 C1252 1.368 . S
C1249 C1230 1.429 . S
C1249 C1243 1.429 . S
C1249 C1250 1.523 . S
C1250 C1231 1.368 . S
C1250 C1244 1.368 . S
C1250 C1249 1.523 . S
C1251 C1235 1.429 . S
C1251 C1247 1.429 . S
C1251 C1252 1.523 . S
C1252 C1236 1.368 . S
C1252 C1248 1.368 . S
C1252 C1251 1.523 . S
H1253 C1228 0.950 . S
H1254 C1230 0.950 . S
H1255 C1231 0.949 . S
H1256 C1233 0.950 . S
H1257 C1235 0.950 . S
C1258 C1259 1.349 . S
C1258 C1260 1.327 . S
C1258 H1283 0.950 . S
C1259 C1258 1.349 . S
C1259 C1275 1.349 . S
C1260 C1258 1.327 . S
C1260 C1279 1.429 . S
C1260 H1284 0.950 . S
C1261 C1278 1.574 . S
C1261 C1280 1.368 . S
C1261 H1285 0.949 . S
H1262 C1266 0.949 . S
C1263 C1264 1.349 . S
C1263 C1265 1.327 1_556 S
C1263 H1286 0.950 . S
C1264 C1263 1.349 . S
C1264 C1276 1.349 . S
C1265 C1263 1.327 1_554 S
C1265 C1281 1.429 . S
C1265 H1287 0.950 . S
C1266 H1262 0.949 . S
C1266 C1274 1.574 . S
C1266 C1282 1.368 . S
H1267 C1275 0.950 . S
H1268 C1273 0.950 . S
H1269 C1274 0.949 . S
H1270 C1276 0.950 . S
H1271 C1277 0.950 . S
H1272 C1278 0.949 . S
C1273 H1268 0.950 . S
C1273 C1275 1.327 . S
C1273 C1279 1.429 . S
C1274 C1266 1.574 . S
C1274 H1269 0.949 . S
C1274 C1280 1.368 . S
C1275 C1259 1.349 . S
C1275 H1267 0.950 . S
C1275 C1273 1.327 . S
C1276 C1264 1.349 . S
C1276 H1270 0.950 . S
C1276 C1277 1.327 1_556 S
C1277 H1271 0.950 . S
C1277 C1276 1.327 1_554 S
C1277 C1281 1.429 . S
C1278 C1261 1.574 . S
C1278 H1272 0.949 . S
C1278 C1282 1.368 . S
C1279 C1260 1.429 . S
C1279 C1273 1.429 . S
C1279 C1280 1.523 . S
C1280 C1261 1.368 . S
C1280 C1274 1.368 . S
C1280 C1279 1.523 . S
C1281 C1265 1.429 . S
C1281 C1277 1.429 . S
C1281 C1282 1.523 . S
C1282 C1266 1.368 . S
C1282 C1278 1.368 . S
C1282 C1281 1.523 . S
H1283 C1258 0.950 . S
H1284 C1260 0.950 . S
H1285 C1261 0.949 . S
H1286 C1263 0.950 . S
H1287 C1265 0.950 . S
C1288 C1289 1.349 . S
C1288 C1290 1.327 . S
C1288 H1313 0.950 . S
C1289 C1288 1.349 . S
C1289 C1305 1.349 . S
C1290 C1288 1.327 . S
C1290 C1309 1.429 . S
C1290 H1314 0.950 . S
C1291 C1308 1.574 . S
C1291 C1310 1.368 . S
C1291 H1315 0.949 . S
H1292 C1296 0.949 . S
C1293 C1294 1.349 . S
C1293 C1295 1.327 . S
C1293 H1316 0.950 . S
C1294 C1293 1.349 . S
C1294 C1306 1.349 . S
C1295 C1293 1.327 . S
C1295 C1311 1.429 . S
C1295 H1317 0.950 . S
C1296 H1292 0.949 . S
C1296 C1304 1.574 . S
C1296 C1312 1.368 . S
H1297 C1305 0.950 . S
H1298 C1303 0.950 . S
H1299 C1304 0.949 . S
H1300 C1306 0.950 . S
H1301 C1307 0.950 . S
H1302 C1308 0.949 . S
C1303 H1298 0.950 . S
C1303 C1305 1.327 . S
C1303 C1309 1.429 . S
C1304 C1296 1.574 . S
C1304 H1299 0.949 . S
C1304 C1310 1.368 . S
C1305 C1289 1.349 . S
C1305 H1297 0.950 . S
C1305 C1303 1.327 . S
C1306 C1294 1.349 . S
C1306 H1300 0.950 . S
C1306 C1307 1.327 . S
C1307 H1301 0.950 . S
C1307 C1306 1.327 . S
C1307 C1311 1.429 . S
C1308 C1291 1.574 . S
C1308 H1302 0.949 . S
C1308 C1312 1.368 . S
C1309 C1290 1.429 . S
C1309 C1303 1.429 . S
C1309 C1310 1.523 . S
C1310 C1291 1.368 . S
C1310 C1304 1.368 . S
C1310 C1309 1.523 . S
C1311 C1295 1.429 . S
C1311 C1307 1.429 . S
C1311 C1312 1.523 . S
C1312 C1296 1.368 . S
C1312 C1308 1.368 . S
C1312 C1311 1.523 . S
H1313 C1288 0.950 . S
H1314 C1290 0.950 . S
H1315 C1291 0.949 . S
H1316 C1293 0.950 . S
H1317 C1295 0.950 . S
C1318 C1319 1.349 . S
C1318 C1320 1.327 . S
C1318 H1343 0.950 . S
C1319 C1318 1.349 . S
C1319 C1335 1.349 . S
C1320 C1318 1.327 . S
C1320 C1339 1.429 . S
C1320 H1344 0.950 . S
C1321 C1338 1.574 . S
C1321 C1340 1.368 . S
C1321 H1345 0.949 . S
H1322 C1326 0.949 . S
C1323 C1324 1.349 . S
C1323 C1325 1.327 . S
C1323 H1346 0.950 . S
C1324 C1323 1.349 . S
C1324 C1336 1.349 . S
C1325 C1323 1.327 . S
C1325 C1341 1.429 . S
C1325 H1347 0.950 . S
C1326 H1322 0.949 . S
C1326 C1334 1.574 . S
C1326 C1342 1.368 . S
H1327 C1335 0.950 . S
H1328 C1333 0.950 . S
H1329 C1334 0.949 . S
H1330 C1336 0.950 . S
H1331 C1337 0.950 . S
H1332 C1338 0.949 . S
C1333 H1328 0.950 . S
C1333 C1335 1.327 . S
C1333 C1339 1.429 . S
C1334 C1326 1.574 . S
C1334 H1329 0.949 . S
C1334 C1340 1.368 . S
C1335 C1319 1.349 . S
C1335 H1327 0.950 . S
C1335 C1333 1.327 . S
C1336 C1324 1.349 . S
C1336 H1330 0.950 . S
C1336 C1337 1.327 . S
C1337 H1331 0.950 . S
C1337 C1336 1.327 . S
C1337 C1341 1.429 . S
C1338 C1321 1.574 . S
C1338 H1332 0.949 . S
C1338 C1342 1.368 . S
C1339 C1320 1.429 . S
C1339 C1333 1.429 . S
C1339 C1340 1.523 . S
C1340 C1321 1.368 . S
C1340 C1334 1.368 . S
C1340 C1339 1.523 . S
C1341 C1325 1.429 . S
C1341 C1337 1.429 . S
C1341 C1342 1.523 . S
C1342 C1326 1.368 . S
C1342 C1338 1.368 . S
C1342 C1341 1.523 . S
H1343 C1318 0.950 . S
H1344 C1320 0.950 . S
H1345 C1321 0.949 . S
H1346 C1323 0.950 . S
H1347 C1325 0.950 . S
C1348 C1349 1.349 . S
C1348 C1350 1.327 1_556 S
C1348 H1373 0.950 . S
C1349 C1348 1.349 . S
C1349 C1365 1.349 . S
C1350 C1348 1.327 1_554 S
C1350 C1369 1.429 . S
C1350 H1374 0.950 . S
C1351 C1368 1.574 . S
C1351 C1370 1.368 . S
C1351 H1375 0.949 . S
H1352 C1356 0.949 . S
C1353 C1354 1.349 . S
C1353 C1355 1.327 . S
C1353 H1376 0.950 . S
C1354 C1353 1.349 . S
C1354 C1366 1.349 . S
C1355 C1353 1.327 . S
C1355 C1371 1.429 . S
C1355 H1377 0.950 . S
C1356 H1352 0.949 . S
C1356 C1364 1.574 . S
C1356 C1372 1.368 . S
H1357 C1365 0.950 . S
H1358 C1363 0.950 . S
H1359 C1364 0.949 . S
H1360 C1366 0.950 . S
H1361 C1367 0.950 . S
H1362 C1368 0.949 . S
C1363 H1358 0.950 . S
C1363 C1365 1.327 1_554 S
C1363 C1369 1.429 . S
C1364 C1356 1.574 . S
C1364 H1359 0.949 . S
C1364 C1370 1.368 . S
C1365 C1349 1.349 . S
C1365 H1357 0.950 . S
C1365 C1363 1.327 1_556 S
C1366 C1354 1.349 . S
C1366 H1360 0.950 . S
C1366 C1367 1.327 . S
C1367 H1361 0.950 . S
C1367 C1366 1.327 . S
C1367 C1371 1.429 . S
C1368 C1351 1.574 . S
C1368 H1362 0.949 . S
C1368 C1372 1.368 . S
C1369 C1350 1.429 . S
C1369 C1363 1.429 . S
C1369 C1370 1.523 . S
C1370 C1351 1.368 . S
C1370 C1364 1.368 . S
C1370 C1369 1.523 . S
C1371 C1355 1.429 . S
C1371 C1367 1.429 . S
C1371 C1372 1.523 . S
C1372 C1356 1.368 . S
C1372 C1368 1.368 . S
C1372 C1371 1.523 . S
H1373 C1348 0.950 . S
H1374 C1350 0.950 . S
H1375 C1351 0.949 . S
H1376 C1353 0.950 . S
H1377 C1355 0.950 . S
C1378 C1379 1.349 . S
C1378 C1380 1.327 . S
C1378 H1403 0.950 . S
C1379 C1378 1.349 . S
C1379 C1395 1.349 . S
C1380 C1378 1.327 . S
C1380 C1399 1.429 . S
C1380 H1404 0.950 . S
C1381 C1398 1.574 . S
C1381 C1400 1.368 . S
C1381 H1405 0.949 . S
H1382 C1386 0.949 . S
C1383 C1384 1.349 1_556 S
C1383 C1385 1.327 . S
C1383 H1406 0.950 . S
C1384 C1383 1.349 1_554 S
C1384 C1396 1.349 . S
C1385 C1383 1.327 . S
C1385 C1401 1.429 . S
C1385 H1407 0.950 . S
C1386 H1382 0.949 . S
C1386 C1394 1.574 . S
C1386 C1402 1.368 . S
H1387 C1395 0.950 . S
H1388 C1393 0.950 . S
H1389 C1394 0.949 . S
H1390 C1396 0.950 . S
H1391 C1397 0.950 . S
H1392 C1398 0.949 . S
C1393 H1388 0.950 . S
C1393 C1395 1.327 . S
C1393 C1399 1.429 . S
C1394 C1386 1.574 . S
C1394 H1389 0.949 . S
C1394 C1400 1.368 . S
C1395 C1379 1.349 . S
C1395 H1387 0.950 . S
C1395 C1393 1.327 . S
C1396 C1384 1.349 . S
C1396 H1390 0.950 . S
C1396 C1397 1.327 1_554 S
C1397 H1391 0.950 . S
C1397 C1396 1.327 1_556 S
C1397 C1401 1.429 . S
C1398 C1381 1.574 . S
C1398 H1392 0.949 . S
C1398 C1402 1.368 . S
C1399 C1380 1.429 . S
C1399 C1393 1.429 . S
C1399 C1400 1.523 . S
C1400 C1381 1.368 . S
C1400 C1394 1.368 . S
C1400 C1399 1.523 . S
C1401 C1385 1.429 . S
C1401 C1397 1.429 . S
C1401 C1402 1.523 . S
C1402 C1386 1.368 . S
C1402 C1398 1.368 . S
C1402 C1401 1.523 . S
H1403 C1378 0.950 . S
H1404 C1380 0.950 . S
H1405 C1381 0.949 . S
H1406 C1383 0.950 . S
H1407 C1385 0.950 . S
C1408 C1409 1.349 . S
C1408 C1410 1.327 . S
C1408 H1433 0.950 . S
C1409 C1408 1.349 . S
C1409 C1425 1.349 . S
C1410 C1408 1.327 . S
C1410 C1429 1.429 . S
C1410 H1434 0.950 . S
C1411 C1428 1.574 . S
C1411 C1430 1.368 . S
C1411 H1435 0.949 . S
H1412 C1416 0.949 . S
C1413 C1414 1.349 . S
C1413 C1415 1.327 . S
C1413 H1436 0.950 . S
C1414 C1413 1.349 . S
C1414 C1426 1.349 . S
C1415 C1413 1.327 . S
C1415 C1431 1.429 . S
C1415 H1437 0.950 . S
C1416 H1412 0.949 . S
C1416 C1424 1.574 . S
C1416 C1432 1.368 . S
H1417 C1425 0.950 . S
H1418 C1423 0.950 . S
H1419 C1424 0.949 . S
H1420 C1426 0.950 . S
H1421 C1427 0.950 . S
H1422 C1428 0.949 . S
C1423 H1418 0.950 . S
C1423 C1425 1.327 . S
C1423 C1429 1.429 . S
C1424 C1416 1.574 . S
C1424 H1419 0.949 . S
C1424 C1430 1.368 . S
C1425 C1409 1.349 . S
C1425 H1417 0.950 . S
C1425 C1423 1.327 . S
C1426 C1414 1.349 . S
C1426 H1420 0.950 . S
C1426 C1427 1.327 . S
C1427 H1421 0.950 . S
C1427 C1426 1.327 . S
C1427 C1431 1.429 . S
C1428 C1411 1.574 . S
C1428 H1422 0.949 . S
C1428 C1432 1.368 . S
C1429 C1410 1.429 . S
C1429 C1423 1.429 . S
C1429 C1430 1.523 . S
C1430 C1411 1.368 . S
C1430 C1424 1.368 . S
C1430 C1429 1.523 . S
C1431 C1415 1.429 . S
C1431 C1427 1.429 . S
C1431 C1432 1.523 . S
C1432 C1416 1.368 . S
C1432 C1428 1.368 . S
C1432 C1431 1.523 . S
H1433 C1408 0.950 . S
H1434 C1410 0.950 . S
H1435 C1411 0.949 . S
H1436 C1413 0.950 . S
H1437 C1415 0.950 . S
C1438 C1439 1.349 . S
C1438 C1440 1.327 . S
C1438 H1463 0.950 . S
C1439 C1438 1.349 . S
C1439 C1455 1.349 . S
C1440 C1438 1.327 . S
C1440 C1459 1.429 . S
C1440 H1464 0.950 . S
C1441 C1458 1.574 1_655 S
C1441 C1460 1.368 . S
C1441 H1465 0.949 . S
H1442 C1446 0.949 . S
C1443 C1444 1.349 . S
C1443 C1445 1.327 . S
C1443 H1466 0.950 . S
C1444 C1443 1.349 . S
C1444 C1456 1.349 . S
C1445 C1443 1.327 . S
C1445 C1461 1.429 . S
C1445 H1467 0.950 . S
C1446 H1442 0.949 . S
C1446 C1454 1.574 1_455 S
C1446 C1462 1.368 . S
H1447 C1455 0.950 . S
H1448 C1453 0.950 . S
H1449 C1454 0.949 . S
H1450 C1456 0.950 . S
H1451 C1457 0.950 . S
H1452 C1458 0.949 . S
C1453 H1448 0.950 . S
C1453 C1455 1.327 . S
C1453 C1459 1.429 . S
C1454 C1446 1.574 1_655 S
C1454 H1449 0.949 . S
C1454 C1460 1.368 . S
C1455 C1439 1.349 . S
C1455 H1447 0.950 . S
C1455 C1453 1.327 . S
C1456 C1444 1.349 . S
C1456 H1450 0.950 . S
C1456 C1457 1.327 . S
C1457 H1451 0.950 . S
C1457 C1456 1.327 . S
C1457 C1461 1.429 . S
C1458 C1441 1.574 1_455 S
C1458 H1452 0.949 . S
C1458 C1462 1.368 . S
C1459 C1440 1.429 . S
C1459 C1453 1.429 . S
C1459 C1460 1.523 . S
C1460 C1441 1.368 . S
C1460 C1454 1.368 . S
C1460 C1459 1.523 . S
C1461 C1445 1.429 . S
C1461 C1457 1.429 . S
C1461 C1462 1.523 . S
C1462 C1446 1.368 . S
C1462 C1458 1.368 . S
C1462 C1461 1.523 . S
H1463 C1438 0.950 . S
H1464 C1440 0.950 . S
H1465 C1441 0.949 . S
H1466 C1443 0.950 . S
H1467 C1445 0.950 . S
C1468 C1469 1.349 . S
C1468 C1470 1.327 . S
C1468 H1493 0.950 . S
C1469 C1468 1.349 . S
C1469 C1485 1.349 . S
C1470 C1468 1.327 . S
C1470 C1489 1.429 . S
C1470 H1494 0.950 . S
C1471 C1488 1.574 . S
C1471 C1490 1.368 . S
C1471 H1495 0.949 . S
H1472 C1476 0.949 . S
C1473 C1474 1.349 . S
C1473 C1475 1.327 . S
C1473 H1496 0.950 . S
C1474 C1473 1.349 . S
C1474 C1486 1.349 . S
C1475 C1473 1.327 . S
C1475 C1491 1.429 . S
C1475 H1497 0.950 . S
C1476 H1472 0.949 . S
C1476 C1484 1.574 . S
C1476 C1492 1.368 . S
H1477 C1485 0.950 . S
H1478 C1483 0.950 . S
H1479 C1484 0.949 . S
H1480 C1486 0.950 . S
H1481 C1487 0.950 . S
H1482 C1488 0.949 . S
C1483 H1478 0.950 . S
C1483 C1485 1.327 . S
C1483 C1489 1.429 . S
C1484 C1476 1.574 . S
C1484 H1479 0.949 . S
C1484 C1490 1.368 . S
C1485 C1469 1.349 . S
C1485 H1477 0.950 . S
C1485 C1483 1.327 . S
C1486 C1474 1.349 . S
C1486 H1480 0.950 . S
C1486 C1487 1.327 . S
C1487 H1481 0.950 . S
C1487 C1486 1.327 . S
C1487 C1491 1.429 . S
C1488 C1471 1.574 . S
C1488 H1482 0.949 . S
C1488 C1492 1.368 . S
C1489 C1470 1.429 . S
C1489 C1483 1.429 . S
C1489 C1490 1.523 . S
C1490 C1471 1.368 . S
C1490 C1484 1.368 . S
C1490 C1489 1.523 . S
C1491 C1475 1.429 . S
C1491 C1487 1.429 . S
C1491 C1492 1.523 . S
C1492 C1476 1.368 . S
C1492 C1488 1.368 . S
C1492 C1491 1.523 . S
H1493 C1468 0.950 . S
H1494 C1470 0.950 . S
H1495 C1471 0.949 . S
H1496 C1473 0.950 . S
H1497 C1475 0.950 . S
C1498 C1499 1.349 . S
C1498 C1500 1.327 . S
C1498 H1523 0.950 . S
C1499 C1498 1.349 . S
C1499 C1515 1.349 . S
C1500 C1498 1.327 . S
C1500 C1519 1.429 . S
C1500 H1524 0.950 . S
C1501 C1518 1.574 . S
C1501 C1520 1.368 . S
C1501 H1525 0.949 . S
H1502 C1506 0.949 . S
C1503 C1504 1.349 . S
C1503 C1505 1.327 . S
C1503 H1526 0.950 . S
C1504 C1503 1.349 . S
C1504 C1516 1.349 . S
C1505 C1503 1.327 . S
C1505 C1521 1.429 . S
C1505 H1527 0.950 . S
C1506 H1502 0.949 . S
C1506 C1514 1.574 . S
C1506 C1522 1.368 . S
H1507 C1515 0.950 . S
H1508 C1513 0.950 . S
H1509 C1514 0.949 . S
H1510 C1516 0.950 . S
H1511 C1517 0.950 . S
H1512 C1518 0.949 . S
C1513 H1508 0.950 . S
C1513 C1515 1.327 . S
C1513 C1519 1.429 . S
C1514 C1506 1.574 . S
C1514 H1509 0.949 . S
C1514 C1520 1.368 . S
C1515 C1499 1.349 . S
C1515 H1507 0.950 . S
C1515 C1513 1.327 . S
C1516 C1504 1.349 . S
C1516 H1510 0.950 . S
C1516 C1517 1.327 . S
C1517 H1511 0.950 . S
C1517 C1516 1.327 . S
C1517 C1521 1.429 . S
C1518 C1501 1.574 . S
C1518 H1512 0.949 . S
C1518 C1522 1.368 . S
C1519 C1500 1.429 . S
C1519 C1513 1.429 . S
C1519 C1520 1.523 . S
C1520 C1501 1.368 . S
C1520 C1514 1.368 . S
C1520 C1519 1.523 . S
C1521 C1505 1.429 . S
C1521 C1517 1.429 . S
C1521 C1522 1.523 . S
C1522 C1506 1.368 . S
C1522 C1518 1.368 . S
C1522 C1521 1.523 . S
H1523 C1498 0.950 . S
H1524 C1500 0.950 . S
H1525 C1501 0.949 . S
H1526 C1503 0.950 . S
H1527 C1505 0.950 . S
C1528 C1529 1.349 . S
C1528 C1530 1.327 . S
C1528 H1553 0.950 . S
C1529 C1528 1.349 . S
C1529 C1545 1.349 . S
C1530 C1528 1.327 . S
C1530 C1549 1.429 . S
C1530 H1554 0.950 . S
C1531 C1548 1.574 . S
C1531 C1550 1.368 . S
C1531 H1555 0.949 . S
H1532 C1536 0.949 . S
C1533 C1534 1.349 . S
C1533 C1535 1.327 . S
C1533 H1556 0.950 . S
C1534 C1533 1.349 . S
C1534 C1546 1.349 . S
C1535 C1533 1.327 . S
C1535 C1551 1.429 . S
C1535 H1557 0.950 . S
C1536 H1532 0.949 . S
C1536 C1544 1.574 . S
C1536 C1552 1.368 . S
H1537 C1545 0.950 . S
H1538 C1543 0.950 . S
H1539 C1544 0.949 . S
H1540 C1546 0.950 . S
H1541 C1547 0.950 . S
H1542 C1548 0.949 . S
C1543 H1538 0.950 . S
C1543 C1545 1.327 . S
C1543 C1549 1.429 . S
C1544 C1536 1.574 . S
C1544 H1539 0.949 . S
C1544 C1550 1.368 . S
C1545 C1529 1.349 . S
C1545 H1537 0.950 . S
C1545 C1543 1.327 . S
C1546 C1534 1.349 . S
C1546 H1540 0.950 . S
C1546 C1547 1.327 . S
C1547 H1541 0.950 . S
C1547 C1546 1.327 . S
C1547 C1551 1.429 . S
C1548 C1531 1.574 . S
C1548 H1542 0.949 . S
C1548 C1552 1.368 . S
C1549 C1530 1.429 . S
C1549 C1543 1.429 . S
C1549 C1550 1.523 . S
C1550 C1531 1.368 . S
C1550 C1544 1.368 . S
C1550 C1549 1.523 . S
C1551 C1535 1.429 . S
C1551 C1547 1.429 . S
C1551 C1552 1.523 . S
C1552 C1536 1.368 . S
C1552 C1548 1.368 . S
C1552 C1551 1.523 . S
H1553 C1528 0.950 . S
H1554 C1530 0.950 . S
H1555 C1531 0.949 . S
H1556 C1533 0.950 . S
H1557 C1535 0.950 . S
C1558 C1559 1.349 . S
C1558 C1560 1.327 . S
C1558 H1583 0.950 . S
C1559 C1558 1.349 . S
C1559 C1575 1.349 . S
C1560 C1558 1.327 . S
C1560 C1579 1.429 . S
C1560 H1584 0.950 . S
C1561 C1578 1.574 . S
C1561 C1580 1.368 . S
C1561 H1585 0.949 . S
H1562 C1566 0.949 . S
C1563 C1564 1.349 . S
C1563 C1565 1.327 . S
C1563 H1586 0.950 . S
C1564 C1563 1.349 . S
C1564 C1576 1.349 . S
C1565 C1563 1.327 . S
C1565 C1581 1.429 . S
C1565 H1587 0.950 . S
C1566 H1562 0.949 . S
C1566 C1574 1.574 . S
C1566 C1582 1.368 . S
H1567 C1575 0.950 . S
H1568 C1573 0.950 . S
H1569 C1574 0.949 . S
H1570 C1576 0.950 . S
H1571 C1577 0.950 . S
H1572 C1578 0.949 . S
C1573 H1568 0.950 . S
C1573 C1575 1.327 . S
C1573 C1579 1.429 . S
C1574 C1566 1.574 . S
C1574 H1569 0.949 . S
C1574 C1580 1.368 . S
C1575 C1559 1.349 . S
C1575 H1567 0.950 . S
C1575 C1573 1.327 . S
C1576 C1564 1.349 . S
C1576 H1570 0.950 . S
C1576 C1577 1.327 . S
C1577 H1571 0.950 . S
C1577 C1576 1.327 . S
C1577 C1581 1.429 . S
C1578 C1561 1.574 . S
C1578 H1572 0.949 . S
C1578 C1582 1.368 . S
C1579 C1560 1.429 . S
C1579 C1573 1.429 . S
C1579 C1580 1.523 . S
C1580 C1561 1.368 . S
C1580 C1574 1.368 . S
C1580 C1579 1.523 . S
C1581 C1565 1.429 . S
C1581 C1577 1.429 . S
C1581 C1582 1.523 . S
C1582 C1566 1.368 . S
C1582 C1578 1.368 . S
C1582 C1581 1.523 . S
H1583 C1558 0.950 . S
H1584 C1560 0.950 . S
H1585 C1561 0.949 . S
H1586 C1563 0.950 . S
H1587 C1565 0.950 . S
C1588 C1589 1.349 . S
C1588 C1590 1.327 . S
C1588 H1613 0.950 . S
C1589 C1588 1.349 . S
C1589 C1605 1.349 . S
C1590 C1588 1.327 . S
C1590 C1609 1.429 . S
C1590 H1614 0.950 . S
C1591 C1608 1.574 . S
C1591 C1610 1.368 . S
C1591 H1615 0.949 . S
H1592 C1596 0.949 . S
C1593 C1594 1.349 . S
C1593 C1595 1.327 . S
C1593 H1616 0.950 . S
C1594 C1593 1.349 . S
C1594 C1606 1.349 . S
C1595 C1593 1.327 . S
C1595 C1611 1.429 . S
C1595 H1617 0.950 . S
C1596 H1592 0.949 . S
C1596 C1604 1.574 . S
C1596 C1612 1.368 . S
H1597 C1605 0.950 . S
H1598 C1603 0.950 . S
H1599 C1604 0.949 . S
H1600 C1606 0.950 . S
H1601 C1607 0.950 . S
H1602 C1608 0.949 . S
C1603 H1598 0.950 . S
C1603 C1605 1.327 . S
C1603 C1609 1.429 . S
C1604 C1596 1.574 . S
C1604 H1599 0.949 . S
C1604 C1610 1.368 . S
C1605 C1589 1.349 . S
C1605 H1597 0.950 . S
C1605 C1603 1.327 . S
C1606 C1594 1.349 . S
C1606 H1600 0.950 . S
C1606 C1607 1.327 . S
C1607 H1601 0.950 . S
C1607 C1606 1.327 . S
C1607 C1611 1.429 . S
C1608 C1591 1.574 . S
C1608 H1602 0.949 . S
C1608 C1612 1.368 . S
C1609 C1590 1.429 . S
C1609 C1603 1.429 . S
C1609 C1610 1.523 . S
C1610 C1591 1.368 . S
C1610 C1604 1.368 . S
C1610 C1609 1.523 . S
C1611 C1595 1.429 . S
C1611 C1607 1.429 . S
C1611 C1612 1.523 . S
C1612 C1596 1.368 . S
C1612 C1608 1.368 . S
C1612 C1611 1.523 . S
H1613 C1588 0.950 . S
H1614 C1590 0.950 . S
H1615 C1591 0.949 . S
H1616 C1593 0.950 . S
H1617 C1595 0.950 . S
C1618 C1619 1.349 . S
C1618 C1620 1.327 . S
C1618 H1643 0.950 . S
C1619 C1618 1.349 . S
C1619 C1635 1.349 . S
C1620 C1618 1.327 . S
C1620 C1639 1.429 . S
C1620 H1644 0.950 . S
C1621 C1638 1.574 1_655 S
C1621 C1640 1.368 . S
C1621 H1645 0.949 . S
H1622 C1626 0.949 . S
C1623 C1624 1.349 . S
C1623 C1625 1.327 . S
C1623 H1646 0.950 . S
C1624 C1623 1.349 . S
C1624 C1636 1.349 . S
C1625 C1623 1.327 . S
C1625 C1641 1.429 . S
C1625 H1647 0.950 . S
C1626 H1622 0.949 . S
C1626 C1634 1.574 1_455 S
C1626 C1642 1.368 . S
H1627 C1635 0.950 . S
H1628 C1633 0.950 . S
H1629 C1634 0.949 . S
H1630 C1636 0.950 . S
H1631 C1637 0.950 . S
H1632 C1638 0.949 . S
C1633 H1628 0.950 . S
C1633 C1635 1.327 . S
C1633 C1639 1.429 . S
C1634 C1626 1.574 1_655 S
C1634 H1629 0.949 . S
C1634 C1640 1.368 . S
C1635 C1619 1.349 . S
C1635 H1627 0.950 . S
C1635 C1633 1.327 . S
C1636 C1624 1.349 . S
C1636 H1630 0.950 . S
C1636 C1637 1.327 . S
C1637 H1631 0.950 . S
C1637 C1636 1.327 . S
C1637 C1641 1.429 . S
C1638 C1621 1.574 1_455 S
C1638 H1632 0.949 . S
C1638 C1642 1.368 . S
C1639 C1620 1.429 . S
C1639 C1633 1.429 . S
C1639 C1640 1.523 . S
C1640 C1621 1.368 . S
C1640 C1634 1.368 . S
C1640 C1639 1.523 . S
C1641 C1625 1.429 . S
C1641 C1637 1.429 . S
C1641 C1642 1.523 . S
C1642 C1626 1.368 . S
C1642 C1638 1.368 . S
C1642 C1641 1.523 . S
H1643 C1618 0.950 . S
H1644 C1620 0.950 . S
H1645 C1621 0.949 . S
H1646 C1623 0.950 . S
H1647 C1625 0.950 . S
C1648 C1649 1.349 . S
C1648 C1650 1.327 . S
C1648 H1673 0.950 . S
C1649 C1648 1.349 . S
C1649 C1665 1.349 . S
C1650 C1648 1.327 . S
C1650 C1669 1.429 . S
C1650 H1674 0.950 . S
C1651 C1668 1.574 . S
C1651 C1670 1.368 . S
C1651 H1675 0.949 . S
H1652 C1656 0.949 . S
C1653 C1654 1.349 . S
C1653 C1655 1.327 . S
C1653 H1676 0.950 . S
C1654 C1653 1.349 . S
C1654 C1666 1.349 . S
C1655 C1653 1.327 . S
C1655 C1671 1.429 . S
C1655 H1677 0.950 . S
C1656 H1652 0.949 . S
C1656 C1664 1.574 . S
C1656 C1672 1.368 . S
H1657 C1665 0.950 . S
H1658 C1663 0.950 . S
H1659 C1664 0.949 . S
H1660 C1666 0.950 . S
H1661 C1667 0.950 . S
H1662 C1668 0.949 . S
C1663 H1658 0.950 . S
C1663 C1665 1.327 . S
C1663 C1669 1.429 . S
C1664 C1656 1.574 . S
C1664 H1659 0.949 . S
C1664 C1670 1.368 . S
C1665 C1649 1.349 . S
C1665 H1657 0.950 . S
C1665 C1663 1.327 . S
C1666 C1654 1.349 . S
C1666 H1660 0.950 . S
C1666 C1667 1.327 . S
C1667 H1661 0.950 . S
C1667 C1666 1.327 . S
C1667 C1671 1.429 . S
C1668 C1651 1.574 . S
C1668 H1662 0.949 . S
C1668 C1672 1.368 . S
C1669 C1650 1.429 . S
C1669 C1663 1.429 . S
C1669 C1670 1.523 . S
C1670 C1651 1.368 . S
C1670 C1664 1.368 . S
C1670 C1669 1.523 . S
C1671 C1655 1.429 . S
C1671 C1667 1.429 . S
C1671 C1672 1.523 . S
C1672 C1656 1.368 . S
C1672 C1668 1.368 . S
C1672 C1671 1.523 . S
H1673 C1648 0.950 . S
H1674 C1650 0.950 . S
H1675 C1651 0.949 . S
H1676 C1653 0.950 . S
H1677 C1655 0.950 . S
C1678 C1679 1.349 . S
C1678 C1680 1.327 . S
C1678 H1703 0.950 . S
C1679 C1678 1.349 . S
C1679 C1695 1.349 . S
C1680 C1678 1.327 . S
C1680 C1699 1.429 . S
C1680 H1704 0.950 . S
C1681 C1698 1.574 . S
C1681 C1700 1.368 . S
C1681 H1705 0.949 . S
H1682 C1686 0.949 . S
C1683 C1684 1.349 . S
C1683 C1685 1.327 . S
C1683 H1706 0.950 . S
C1684 C1683 1.349 . S
C1684 C1696 1.349 . S
C1685 C1683 1.327 . S
C1685 C1701 1.429 . S
C1685 H1707 0.950 . S
C1686 H1682 0.949 . S
C1686 C1694 1.574 . S
C1686 C1702 1.368 . S
H1687 C1695 0.950 . S
H1688 C1693 0.950 . S
H1689 C1694 0.949 . S
H1690 C1696 0.950 . S
H1691 C1697 0.950 . S
H1692 C1698 0.949 . S
C1693 H1688 0.950 . S
C1693 C1695 1.327 . S
C1693 C1699 1.429 . S
C1694 C1686 1.574 . S
C1694 H1689 0.949 . S
C1694 C1700 1.368 . S
C1695 C1679 1.349 . S
C1695 H1687 0.950 . S
C1695 C1693 1.327 . S
C1696 C1684 1.349 . S
C1696 H1690 0.950 . S
C1696 C1697 1.327 . S
C1697 H1691 0.950 . S
C1697 C1696 1.327 . S
C1697 C1701 1.429 . S
C1698 C1681 1.574 . S
C1698 H1692 0.949 . S
C1698 C1702 1.368 . S
C1699 C1680 1.429 . S
C1699 C1693 1.429 . S
C1699 C1700 1.523 . S
C1700 C1681 1.368 . S
C1700 C1694 1.368 . S
C1700 C1699 1.523 . S
C1701 C1685 1.429 . S
C1701 C1697 1.429 . S
C1701 C1702 1.523 . S
C1702 C1686 1.368 . S
C1702 C1698 1.368 . S
C1702 C1701 1.523 . S
H1703 C1678 0.950 . S
H1704 C1680 0.950 . S
H1705 C1681 0.949 . S
H1706 C1683 0.950 . S
H1707 C1685 0.950 . S
C1708 C1709 1.349 . S
C1708 C1710 1.327 . S
C1708 H1733 0.950 . S
C1709 C1708 1.349 . S
C1709 C1725 1.349 . S
C1710 C1708 1.327 . S
C1710 C1729 1.429 . S
C1710 H1734 0.950 . S
C1711 C1728 1.574 . S
C1711 C1730 1.368 . S
C1711 H1735 0.949 . S
H1712 C1716 0.949 . S
C1713 C1714 1.349 . S
C1713 C1715 1.327 . S
C1713 H1736 0.950 . S
C1714 C1713 1.349 . S
C1714 C1726 1.349 . S
C1715 C1713 1.327 . S
C1715 C1731 1.429 . S
C1715 H1737 0.950 . S
C1716 H1712 0.949 . S
C1716 C1724 1.574 . S
C1716 C1732 1.368 . S
H1717 C1725 0.950 . S
H1718 C1723 0.950 . S
H1719 C1724 0.949 . S
H1720 C1726 0.950 . S
H1721 C1727 0.950 . S
H1722 C1728 0.949 . S
C1723 H1718 0.950 . S
C1723 C1725 1.327 . S
C1723 C1729 1.429 . S
C1724 C1716 1.574 . S
C1724 H1719 0.949 . S
C1724 C1730 1.368 . S
C1725 C1709 1.349 . S
C1725 H1717 0.950 . S
C1725 C1723 1.327 . S
C1726 C1714 1.349 . S
C1726 H1720 0.950 . S
C1726 C1727 1.327 . S
C1727 H1721 0.950 . S
C1727 C1726 1.327 . S
C1727 C1731 1.429 . S
C1728 C1711 1.574 . S
C1728 H1722 0.949 . S
C1728 C1732 1.368 . S
C1729 C1710 1.429 . S
C1729 C1723 1.429 . S
C1729 C1730 1.523 . S
C1730 C1711 1.368 . S
C1730 C1724 1.368 . S
C1730 C1729 1.523 . S
C1731 C1715 1.429 . S
C1731 C1727 1.429 . S
C1731 C1732 1.523 . S
C1732 C1716 1.368 . S
C1732 C1728 1.368 . S
C1732 C1731 1.523 . S
H1733 C1708 0.950 . S
H1734 C1710 0.950 . S
H1735 C1711 0.949 . S
H1736 C1713 0.950 . S
H1737 C1715 0.950 . S
C1738 C1739 1.349 . S
C1738 C1740 1.327 . S
C1738 H1763 0.950 . S
C1739 C1738 1.349 . S
C1739 C1755 1.349 . S
C1740 C1738 1.327 . S
C1740 C1759 1.429 . S
C1740 H1764 0.950 . S
C1741 C1758 1.574 . S
C1741 C1760 1.368 . S
C1741 H1765 0.949 . S
H1742 C1746 0.949 . S
C1743 C1744 1.349 . S
C1743 C1745 1.327 . S
C1743 H1766 0.950 . S
C1744 C1743 1.349 . S
C1744 C1756 1.349 . S
C1745 C1743 1.327 . S
C1745 C1761 1.429 . S
C1745 H1767 0.950 . S
C1746 H1742 0.949 . S
C1746 C1754 1.574 . S
C1746 C1762 1.368 . S
H1747 C1755 0.950 . S
H1748 C1753 0.950 . S
H1749 C1754 0.949 . S
H1750 C1756 0.950 . S
H1751 C1757 0.950 . S
H1752 C1758 0.949 . S
C1753 H1748 0.950 . S
C1753 C1755 1.327 . S
C1753 C1759 1.429 . S
C1754 C1746 1.574 . S
C1754 H1749 0.949 . S
C1754 C1760 1.368 . S
C1755 C1739 1.349 . S
C1755 H1747 0.950 . S
C1755 C1753 1.327 . S
C1756 C1744 1.349 . S
C1756 H1750 0.950 . S
C1756 C1757 1.327 . S
C1757 H1751 0.950 . S
C1757 C1756 1.327 . S
C1757 C1761 1.429 . S
C1758 C1741 1.574 . S
C1758 H1752 0.949 . S
C1758 C1762 1.368 . S
C1759 C1740 1.429 . S
C1759 C1753 1.429 . S
C1759 C1760 1.523 . S
C1760 C1741 1.368 . S
C1760 C1754 1.368 . S
C1760 C1759 1.523 . S
C1761 C1745 1.429 . S
C1761 C1757 1.429 . S
C1761 C1762 1.523 . S
C1762 C1746 1.368 . S
C1762 C1758 1.368 . S
C1762 C1761 1.523 . S
H1763 C1738 0.950 . S
H1764 C1740 0.950 . S
H1765 C1741 0.949 . S
H1766 C1743 0.950 . S
H1767 C1745 0.950 . S
C1768 C1769 1.349 . S
C1768 C1770 1.327 . S
C1768 H1793 0.950 . S
C1769 C1768 1.349 . S
C1769 C1785 1.349 . S
C1770 C1768 1.327 . S
C1770 C1789 1.429 . S
C1770 H1794 0.950 . S
C1771 C1788 1.574 . S
C1771 C1790 1.368 . S
C1771 H1795 0.949 . S
H1772 C1776 0.949 . S
C1773 C1774 1.349 . S
C1773 C1775 1.327 . S
C1773 H1796 0.950 . S
C1774 C1773 1.349 . S
C1774 C1786 1.349 . S
C1775 C1773 1.327 . S
C1775 C1791 1.429 . S
C1775 H1797 0.950 . S
C1776 H1772 0.949 . S
C1776 C1784 1.574 . S
C1776 C1792 1.368 . S
H1777 C1785 0.950 . S
H1778 C1783 0.950 . S
H1779 C1784 0.949 . S
H1780 C1786 0.950 . S
H1781 C1787 0.950 . S
H1782 C1788 0.949 . S
C1783 H1778 0.950 . S
C1783 C1785 1.327 . S
C1783 C1789 1.429 . S
C1784 C1776 1.574 . S
C1784 H1779 0.949 . S
C1784 C1790 1.368 . S
C1785 C1769 1.349 . S
C1785 H1777 0.950 . S
C1785 C1783 1.327 . S
C1786 C1774 1.349 . S
C1786 H1780 0.950 . S
C1786 C1787 1.327 . S
C1787 H1781 0.950 . S
C1787 C1786 1.327 . S
C1787 C1791 1.429 . S
C1788 C1771 1.574 . S
C1788 H1782 0.949 . S
C1788 C1792 1.368 . S
C1789 C1770 1.429 . S
C1789 C1783 1.429 . S
C1789 C1790 1.523 . S
C1790 C1771 1.368 . S
C1790 C1784 1.368 . S
C1790 C1789 1.523 . S
C1791 C1775 1.429 . S
C1791 C1787 1.429 . S
C1791 C1792 1.523 . S
C1792 C1776 1.368 . S
C1792 C1788 1.368 . S
C1792 C1791 1.523 . S
H1793 C1768 0.950 . S
H1794 C1770 0.950 . S
H1795 C1771 0.949 . S
H1796 C1773 0.950 . S
H1797 C1775 0.950 . S
C1798 C1799 1.349 . S
C1798 C1800 1.327 . S
C1798 H1823 0.950 . S
C1799 C1798 1.349 . S
C1799 C1815 1.349 . S
C1800 C1798 1.327 . S
C1800 C1819 1.429 . S
C1800 H1824 0.950 . S
C1801 C1818 1.574 1_655 S
C1801 C1820 1.368 . S
C1801 H1825 0.949 . S
H1802 C1806 0.949 . S
C1803 C1804 1.349 . S
C1803 C1805 1.327 . S
C1803 H1826 0.950 . S
C1804 C1803 1.349 . S
C1804 C1816 1.349 . S
C1805 C1803 1.327 . S
C1805 C1821 1.429 . S
C1805 H1827 0.950 . S
C1806 H1802 0.949 . S
C1806 C1814 1.574 1_455 S
C1806 C1822 1.368 . S
H1807 C1815 0.950 . S
H1808 C1813 0.950 . S
H1809 C1814 0.949 . S
H1810 C1816 0.950 . S
H1811 C1817 0.950 . S
H1812 C1818 0.949 . S
C1813 H1808 0.950 . S
C1813 C1815 1.327 . S
C1813 C1819 1.429 . S
C1814 C1806 1.574 1_655 S
C1814 H1809 0.949 . S
C1814 C1820 1.368 . S
C1815 C1799 1.349 . S
C1815 H1807 0.950 . S
C1815 C1813 1.327 . S
C1816 C1804 1.349 . S
C1816 H1810 0.950 . S
C1816 C1817 1.327 . S
C1817 H1811 0.950 . S
C1817 C1816 1.327 . S
C1817 C1821 1.429 . S
C1818 C1801 1.574 1_455 S
C1818 H1812 0.949 . S
C1818 C1822 1.368 . S
C1819 C1800 1.429 . S
C1819 C1813 1.429 . S
C1819 C1820 1.523 . S
C1820 C1801 1.368 . S
C1820 C1814 1.368 . S
C1820 C1819 1.523 . S
C1821 C1805 1.429 . S
C1821 C1817 1.429 . S
C1821 C1822 1.523 . S
C1822 C1806 1.368 . S
C1822 C1818 1.368 . S
C1822 C1821 1.523 . S
H1823 C1798 0.950 . S
H1824 C1800 0.950 . S
H1825 C1801 0.949 . S
H1826 C1803 0.950 . S
H1827 C1805 0.950 . S
C1828 C1829 1.349 . S
C1828 C1830 1.327 . S
C1828 H1853 0.950 . S
C1829 C1828 1.349 . S
C1829 C1845 1.349 . S
C1830 C1828 1.327 . S
C1830 C1849 1.429 . S
C1830 H1854 0.950 . S
C1831 C1848 1.574 1_655 S
C1831 C1850 1.368 . S
C1831 H1855 0.949 . S
H1832 C1836 0.949 . S
C1833 C1834 1.349 . S
C1833 C1835 1.327 . S
C1833 H1856 0.950 . S
C1834 C1833 1.349 . S
C1834 C1846 1.349 . S
C1835 C1833 1.327 . S
C1835 C1851 1.429 . S
C1835 H1857 0.950 . S
C1836 H1832 0.949 . S
C1836 C1844 1.574 1_455 S
C1836 C1852 1.368 . S
H1837 C1845 0.950 . S
H1838 C1843 0.950 . S
H1839 C1844 0.949 . S
H1840 C1846 0.950 . S
H1841 C1847 0.950 . S
H1842 C1848 0.949 . S
C1843 H1838 0.950 . S
C1843 C1845 1.327 . S
C1843 C1849 1.429 . S
C1844 C1836 1.574 1_655 S
C1844 H1839 0.949 . S
C1844 C1850 1.368 . S
C1845 C1829 1.349 . S
C1845 H1837 0.950 . S
C1845 C1843 1.327 . S
C1846 C1834 1.349 . S
C1846 H1840 0.950 . S
C1846 C1847 1.327 . S
C1847 H1841 0.950 . S
C1847 C1846 1.327 . S
C1847 C1851 1.429 . S
C1848 C1831 1.574 1_455 S
C1848 H1842 0.949 . S
C1848 C1852 1.368 . S
C1849 C1830 1.429 . S
C1849 C1843 1.429 . S
C1849 C1850 1.523 . S
C1850 C1831 1.368 . S
C1850 C1844 1.368 . S
C1850 C1849 1.523 . S
C1851 C1835 1.429 . S
C1851 C1847 1.429 . S
C1851 C1852 1.523 . S
C1852 C1836 1.368 . S
C1852 C1848 1.368 . S
C1852 C1851 1.523 . S
H1853 C1828 0.950 . S
H1854 C1830 0.950 . S
H1855 C1831 0.949 . S
H1856 C1833 0.950 . S
H1857 C1835 0.950 . S
C1858 C1859 1.349 . S
C1858 C1860 1.327 . S
C1858 H1883 0.950 . S
C1859 C1858 1.349 . S
C1859 C1875 1.349 . S
C1860 C1858 1.327 . S
C1860 C1879 1.429 . S
C1860 H1884 0.950 . S
C1861 C1878 1.574 . S
C1861 C1880 1.368 . S
C1861 H1885 0.949 . S
H1862 C1866 0.949 . S
C1863 C1864 1.349 . S
C1863 C1865 1.327 . S
C1863 H1886 0.950 . S
C1864 C1863 1.349 . S
C1864 C1876 1.349 . S
C1865 C1863 1.327 . S
C1865 C1881 1.429 . S
C1865 H1887 0.950 . S
C1866 H1862 0.949 . S
C1866 C1874 1.574 . S
C1866 C1882 1.368 . S
H1867 C1875 0.950 . S
H1868 C1873 0.950 . S
H1869 C1874 0.949 . S
H1870 C1876 0.950 . S
H1871 C1877 0.950 . S
H1872 C1878 0.949 . S
C1873 H1868 0.950 . S
C1873 C1875 1.327 . S
C1873 C1879 1.429 . S
C1874 C1866 1.574 . S
C1874 H1869 0.949 . S
C1874 C1880 1.368 . S
C1875 C1859 1.349 . S
C1875 H1867 0.950 . S
C1875 C1873 1.327 . S
C1876 C1864 1.349 . S
C1876 H1870 0.950 . S
C1876 C1877 1.327 . S
C1877 H1871 0.950 . S
C1877 C1876 1.327 . S
C1877 C1881 1.429 . S
C1878 C1861 1.574 . S
C1878 H1872 0.949 . S
C1878 C1882 1.368 . S
C1879 C1860 1.429 . S
C1879 C1873 1.429 . S
C1879 C1880 1.523 . S
C1880 C1861 1.368 . S
C1880 C1874 1.368 . S
C1880 C1879 1.523 . S
C1881 C1865 1.429 . S
C1881 C1877 1.429 . S
C1881 C1882 1.523 . S
C1882 C1866 1.368 . S
C1882 C1878 1.368 . S
C1882 C1881 1.523 . S
H1883 C1858 0.950 . S
H1884 C1860 0.950 . S
H1885 C1861 0.949 . S
H1886 C1863 0.950 . S
H1887 C1865 0.950 . S
C1888 C1889 1.349 . S
C1888 C1890 1.327 . S
C1888 H1913 0.950 . S
C1889 C1888 1.349 . S
C1889 C1905 1.349 . S
C1890 C1888 1.327 . S
C1890 C1909 1.429 . S
C1890 H1914 0.950 . S
C1891 C1908 1.574 . S
C1891 C1910 1.368 . S
C1891 H1915 0.949 . S
H1892 C1896 0.949 . S
C1893 C1894 1.349 . S
C1893 C1895 1.327 . S
C1893 H1916 0.950 . S
C1894 C1893 1.349 . S
C1894 C1906 1.349 . S
C1895 C1893 1.327 . S
C1895 C1911 1.429 . S
C1895 H1917 0.950 . S
C1896 H1892 0.949 . S
C1896 C1904 1.574 . S
C1896 C1912 1.368 . S
H1897 C1905 0.950 . S
H1898 C1903 0.950 . S
H1899 C1904 0.949 . S
H1900 C1906 0.950 . S
H1901 C1907 0.950 . S
H1902 C1908 0.949 . S
C1903 H1898 0.950 . S
C1903 C1905 1.327 . S
C1903 C1909 1.429 . S
C1904 C1896 1.574 . S
C1904 H1899 0.949 . S
C1904 C1910 1.368 . S
C1905 C1889 1.349 . S
C1905 H1897 0.950 . S
C1905 C1903 1.327 . S
C1906 C1894 1.349 . S
C1906 H1900 0.950 . S
C1906 C1907 1.327 . S
C1907 H1901 0.950 . S
C1907 C1906 1.327 . S
C1907 C1911 1.429 . S
C1908 C1891 1.574 . S
C1908 H1902 0.949 . S
C1908 C1912 1.368 . S
C1909 C1890 1.429 . S
C1909 C1903 1.429 . S
C1909 C1910 1.523 . S
C1910 C1891 1.368 . S
C1910 C1904 1.368 . S
C1910 C1909 1.523 . S
C1911 C1895 1.429 . S
C1911 C1907 1.429 . S
C1911 C1912 1.523 . S
C1912 C1896 1.368 . S
C1912 C1908 1.368 . S
C1912 C1911 1.523 . S
H1913 C1888 0.950 . S
H1914 C1890 0.950 . S
H1915 C1891 0.949 . S
H1916 C1893 0.950 . S
H1917 C1895 0.950 . S
C1918 C1919 1.349 . S
C1918 C1920 1.327 . S
C1918 H1943 0.950 . S
C1919 C1918 1.349 . S
C1919 C1935 1.349 . S
C1920 C1918 1.327 . S
C1920 C1939 1.429 . S
C1920 H1944 0.950 . S
C1921 C1938 1.574 . S
C1921 C1940 1.368 . S
C1921 H1945 0.949 . S
H1922 C1926 0.949 . S
C1923 C1924 1.349 . S
C1923 C1925 1.327 . S
C1923 H1946 0.950 . S
C1924 C1923 1.349 . S
C1924 C1936 1.349 . S
C1925 C1923 1.327 . S
C1925 C1941 1.429 . S
C1925 H1947 0.950 . S
C1926 H1922 0.949 . S
C1926 C1934 1.574 . S
C1926 C1942 1.368 . S
H1927 C1935 0.950 . S
H1928 C1933 0.950 . S
H1929 C1934 0.949 . S
H1930 C1936 0.950 . S
H1931 C1937 0.950 . S
H1932 C1938 0.949 . S
C1933 H1928 0.950 . S
C1933 C1935 1.327 . S
C1933 C1939 1.429 . S
C1934 C1926 1.574 . S
C1934 H1929 0.949 . S
C1934 C1940 1.368 . S
C1935 C1919 1.349 . S
C1935 H1927 0.950 . S
C1935 C1933 1.327 . S
C1936 C1924 1.349 . S
C1936 H1930 0.950 . S
C1936 C1937 1.327 . S
C1937 H1931 0.950 . S
C1937 C1936 1.327 . S
C1937 C1941 1.429 . S
C1938 C1921 1.574 . S
C1938 H1932 0.949 . S
C1938 C1942 1.368 . S
C1939 C1920 1.429 . S
C1939 C1933 1.429 . S
C1939 C1940 1.523 . S
C1940 C1921 1.368 . S
C1940 C1934 1.368 . S
C1940 C1939 1.523 . S
C1941 C1925 1.429 . S
C1941 C1937 1.429 . S
C1941 C1942 1.523 . S
C1942 C1926 1.368 . S
C1942 C1938 1.368 . S
C1942 C1941 1.523 . S
H1943 C1918 0.950 . S
H1944 C1920 0.950 . S
H1945 C1921 0.949 . S
H1946 C1923 0.950 . S
H1947 C1925 0.950 . S
C1948 C1949 1.349 . S
C1948 C1950 1.327 1_554 S
C1948 H1973 0.950 . S
C1949 C1948 1.349 . S
C1949 C1965 1.349 1_554 S
C1950 C1948 1.327 1_556 S
C1950 C1969 1.429 . S
C1950 H1974 0.950 . S
C1951 C1968 1.574 . S
C1951 C1970 1.368 . S
C1951 H1975 0.949 . S
H1952 C1956 0.949 . S
C1953 C1954 1.349 . S
C1953 C1955 1.327 . S
C1953 H1976 0.950 . S
C1954 C1953 1.349 . S
C1954 C1966 1.349 . S
C1955 C1953 1.327 . S
C1955 C1971 1.429 . S
C1955 H1977 0.950 . S
C1956 H1952 0.949 . S
C1956 C1964 1.574 . S
C1956 C1972 1.368 . S
H1957 C1965 0.950 . S
H1958 C1963 0.950 . S
H1959 C1964 0.949 . S
H1960 C1966 0.950 . S
H1961 C1967 0.950 . S
H1962 C1968 0.949 . S
C1963 H1958 0.950 . S
C1963 C1965 1.327 . S
C1963 C1969 1.429 . S
C1964 C1956 1.574 . S
C1964 H1959 0.949 . S
C1964 C1970 1.368 . S
C1965 C1949 1.349 1_556 S
C1965 H1957 0.950 . S
C1965 C1963 1.327 . S
C1966 C1954 1.349 . S
C1966 H1960 0.950 . S
C1966 C1967 1.327 . S
C1967 H1961 0.950 . S
C1967 C1966 1.327 . S
C1967 C1971 1.429 . S
C1968 C1951 1.574 . S
C1968 H1962 0.949 . S
C1968 C1972 1.368 . S
C1969 C1950 1.429 . S
C1969 C1963 1.429 . S
C1969 C1970 1.523 . S
C1970 C1951 1.368 . S
C1970 C1964 1.368 . S
C1970 C1969 1.523 . S
C1971 C1955 1.429 . S
C1971 C1967 1.429 . S
C1971 C1972 1.523 . S
C1972 C1956 1.368 . S
C1972 C1968 1.368 . S
C1972 C1971 1.523 . S
H1973 C1948 0.950 . S
H1974 C1950 0.950 . S
H1975 C1951 0.949 . S
H1976 C1953 0.950 . S
H1977 C1955 0.950 . S
C1978 C1979 1.349 . S
C1978 C1980 1.327 1_556 S
C1978 H2003 0.950 . S
C1979 C1978 1.349 . S
C1979 C1995 1.349 1_556 S
C1980 C1978 1.327 1_554 S
C1980 C1999 1.429 . S
C1980 H2004 0.950 . S
C1981 C1998 1.574 . S
C1981 C2000 1.368 . S
C1981 H2005 0.949 . S
H1982 C1986 0.949 . S
C1983 C1984 1.349 . S
C1983 C1985 1.327 . S
C1983 H2006 0.950 . S
C1984 C1983 1.349 . S
C1984 C1996 1.349 . S
C1985 C1983 1.327 . S
C1985 C2001 1.429 . S
C1985 H2007 0.950 . S
C1986 H1982 0.949 . S
C1986 C1994 1.574 . S
C1986 C2002 1.368 . S
H1987 C1995 0.950 . S
H1988 C1993 0.950 . S
H1989 C1994 0.949 . S
H1990 C1996 0.950 . S
H1991 C1997 0.950 . S
H1992 C1998 0.949 . S
C1993 H1988 0.950 . S
C1993 C1995 1.327 . S
C1993 C1999 1.429 . S
C1994 C1986 1.574 . S
C1994 H1989 0.949 . S
C1994 C2000 1.368 . S
C1995 C1979 1.349 1_554 S
C1995 H1987 0.950 . S
C1995 C1993 1.327 . S
C1996 C1984 1.349 . S
C1996 H1990 0.950 . S
C1996 C1997 1.327 . S
C1997 H1991 0.950 . S
C1997 C1996 1.327 . S
C1997 C2001 1.429 . S
C1998 C1981 1.574 . S
C1998 H1992 0.949 . S
C1998 C2002 1.368 . S
C1999 C1980 1.429 . S
C1999 C1993 1.429 . S
C1999 C2000 1.523 . S
C2000 C1981 1.368 . S
C2000 C1994 1.368 . S
C2000 C1999 1.523 . S
C2001 C1985 1.429 . S
C2001 C1997 1.429 . S
C2001 C2002 1.523 . S
C2002 C1986 1.368 . S
C2002 C1998 1.368 . S
C2002 C2001 1.523 . S
H2003 C1978 0.950 . S
H2004 C1980 0.950 . S
H2005 C1981 0.949 . S
H2006 C1983 0.950 . S
H2007 C1985 0.950 . S
C2008 C2009 1.349 . S
C2008 C2010 1.327 . S
C2008 H2033 0.950 . S
C2009 C2008 1.349 . S
C2009 C2025 1.349 . S
C2010 C2008 1.327 . S
C2010 C2029 1.429 . S
C2010 H2034 0.950 . S
C2011 C2028 1.574 . S
C2011 C2030 1.368 . S
C2011 H2035 0.949 . S
H2012 C2016 0.949 . S
C2013 C2014 1.349 . S
C2013 C2015 1.327 . S
C2013 H2036 0.950 . S
C2014 C2013 1.349 . S
C2014 C2026 1.349 . S
C2015 C2013 1.327 . S
C2015 C2031 1.429 . S
C2015 H2037 0.950 . S
C2016 H2012 0.949 . S
C2016 C2024 1.574 . S
C2016 C2032 1.368 . S
H2017 C2025 0.950 . S
H2018 C2023 0.950 . S
H2019 C2024 0.949 . S
H2020 C2026 0.950 . S
H2021 C2027 0.950 . S
H2022 C2028 0.949 . S
C2023 H2018 0.950 . S
C2023 C2025 1.327 . S
C2023 C2029 1.429 . S
C2024 C2016 1.574 . S
C2024 H2019 0.949 . S
C2024 C2030 1.368 . S
C2025 C2009 1.349 . S
C2025 H2017 0.950 . S
C2025 C2023 1.327 . S
C2026 C2014 1.349 . S
C2026 H2020 0.950 . S
C2026 C2027 1.327 . S
C2027 H2021 0.950 . S
C2027 C2026 1.327 . S
C2027 C2031 1.429 . S
C2028 C2011 1.574 . S
C2028 H2022 0.949 . S
C2028 C2032 1.368 . S
C2029 C2010 1.429 . S
C2029 C2023 1.429 . S
C2029 C2030 1.523 . S
C2030 C2011 1.368 . S
C2030 C2024 1.368 . S
C2030 C2029 1.523 . S
C2031 C2015 1.429 . S
C2031 C2027 1.429 . S
C2031 C2032 1.523 . S
C2032 C2016 1.368 . S
C2032 C2028 1.368 . S
C2032 C2031 1.523 . S
H2033 C2008 0.950 . S
H2034 C2010 0.950 . S
H2035 C2011 0.949 . S
H2036 C2013 0.950 . S
H2037 C2015 0.950 . S
C2038 C2039 1.349 . S
C2038 C2040 1.327 . S
C2038 H2063 0.950 . S
C2039 C2038 1.349 . S
C2039 C2055 1.349 . S
C2040 C2038 1.327 . S
C2040 C2059 1.429 . S
C2040 H2064 0.950 . S
C2041 C2058 1.574 . S
C2041 C2060 1.368 . S
C2041 H2065 0.949 . S
H2042 C2046 0.949 . S
C2043 C2044 1.349 . S
C2043 C2045 1.327 . S
C2043 H2066 0.950 . S
C2044 C2043 1.349 . S
C2044 C2056 1.349 . S
C2045 C2043 1.327 . S
C2045 C2061 1.429 . S
C2045 H2067 0.950 . S
C2046 H2042 0.949 . S
C2046 C2054 1.574 . S
C2046 C2062 1.368 . S
H2047 C2055 0.950 . S
H2048 C2053 0.950 . S
H2049 C2054 0.949 . S
H2050 C2056 0.950 . S
H2051 C2057 0.950 . S
H2052 C2058 0.949 . S
C2053 H2048 0.950 . S
C2053 C2055 1.327 . S
C2053 C2059 1.429 . S
C2054 C2046 1.574 . S
C2054 H2049 0.949 . S
C2054 C2060 1.368 . S
C2055 C2039 1.349 . S
C2055 H2047 0.950 . S
C2055 C2053 1.327 . S
C2056 C2044 1.349 . S
C2056 H2050 0.950 . S
C2056 C2057 1.327 . S
C2057 H2051 0.950 . S
C2057 C2056 1.327 . S
C2057 C2061 1.429 . S
C2058 C2041 1.574 . S
C2058 H2052 0.949 . S
C2058 C2062 1.368 . S
C2059 C2040 1.429 . S
C2059 C2053 1.429 . S
C2059 C2060 1.523 . S
C2060 C2041 1.368 . S
C2060 C2054 1.368 . S
C2060 C2059 1.523 . S
C2061 C2045 1.429 . S
C2061 C2057 1.429 . S
C2061 C2062 1.523 . S
C2062 C2046 1.368 . S
C2062 C2058 1.368 . S
C2062 C2061 1.523 . S
H2063 C2038 0.950 . S
H2064 C2040 0.950 . S
H2065 C2041 0.949 . S
H2066 C2043 0.950 . S
H2067 C2045 0.950 . S
C2068 C2069 1.349 . S
C2068 C2070 1.327 . S
C2068 H2093 0.950 . S
C2069 C2068 1.349 . S
C2069 C2085 1.349 . S
C2070 C2068 1.327 . S
C2070 C2089 1.429 . S
C2070 H2094 0.950 . S
C2071 C2088 1.574 . S
C2071 C2090 1.368 . S
C2071 H2095 0.949 . S
H2072 C2076 0.949 . S
C2073 C2074 1.349 . S
C2073 C2075 1.327 1_556 S
C2073 H2096 0.950 . S
C2074 C2073 1.349 . S
C2074 C2086 1.349 . S
C2075 C2073 1.327 1_554 S
C2075 C2091 1.429 . S
C2075 H2097 0.950 . S
C2076 H2072 0.949 . S
C2076 C2084 1.574 . S
C2076 C2092 1.368 . S
H2077 C2085 0.950 . S
H2078 C2083 0.950 . S
H2079 C2084 0.949 . S
H2080 C2086 0.950 . S
H2081 C2087 0.950 . S
H2082 C2088 0.949 . S
C2083 H2078 0.950 . S
C2083 C2085 1.327 . S
C2083 C2089 1.429 . S
C2084 C2076 1.574 . S
C2084 H2079 0.949 . S
C2084 C2090 1.368 . S
C2085 C2069 1.349 . S
C2085 H2077 0.950 . S
C2085 C2083 1.327 . S
C2086 C2074 1.349 . S
C2086 H2080 0.950 . S
C2086 C2087 1.327 1_556 S
C2087 H2081 0.950 . S
C2087 C2086 1.327 1_554 S
C2087 C2091 1.429 . S
C2088 C2071 1.574 . S
C2088 H2082 0.949 . S
C2088 C2092 1.368 . S
C2089 C2070 1.429 . S
C2089 C2083 1.429 . S
C2089 C2090 1.523 . S
C2090 C2071 1.368 . S
C2090 C2084 1.368 . S
C2090 C2089 1.523 . S
C2091 C2075 1.429 . S
C2091 C2087 1.429 . S
C2091 C2092 1.523 . S
C2092 C2076 1.368 . S
C2092 C2088 1.368 . S
C2092 C2091 1.523 . S
H2093 C2068 0.950 . S
H2094 C2070 0.950 . S
H2095 C2071 0.949 . S
H2096 C2073 0.950 . S
H2097 C2075 0.950 . S
C2098 C2099 1.349 . S
C2098 C2100 1.327 . S
C2098 H2123 0.950 . S
C2099 C2098 1.349 . S
C2099 C2115 1.349 . S
C2100 C2098 1.327 . S
C2100 C2119 1.429 . S
C2100 H2124 0.950 . S
C2101 C2118 1.574 . S
C2101 C2120 1.368 . S
C2101 H2125 0.949 . S
H2102 C2106 0.949 . S
C2103 C2104 1.349 1_556 S
C2103 C2105 1.327 . S
C2103 H2126 0.950 . S
C2104 C2103 1.349 1_554 S
C2104 C2116 1.349 . S
C2105 C2103 1.327 . S
C2105 C2121 1.429 . S
C2105 H2127 0.950 . S
C2106 H2102 0.949 . S
C2106 C2114 1.574 . S
C2106 C2122 1.368 . S
H2107 C2115 0.950 . S
H2108 C2113 0.950 . S
H2109 C2114 0.949 . S
H2110 C2116 0.950 . S
H2111 C2117 0.954 . S
H2112 C2118 0.949 . S
C2113 H2108 0.950 . S
C2113 C2115 1.327 . S
C2113 C2119 1.429 . S
C2114 C2106 1.574 . S
C2114 H2109 0.949 . S
C2114 C2120 1.368 . S
C2115 C2099 1.349 . S
C2115 H2107 0.950 . S
C2115 C2113 1.327 . S
C2116 C2104 1.349 . S
C2116 H2110 0.950 . S
C2116 C2117 1.327 1_554 S
C2117 H2111 0.954 . S
C2117 C2116 1.327 1_556 S
C2117 C2121 1.429 . S
C2118 C2101 1.574 . S
C2118 H2112 0.949 . S
C2118 C2122 1.368 . S
C2119 C2100 1.429 . S
C2119 C2113 1.429 . S
C2119 C2120 1.523 . S
C2120 C2101 1.368 . S
C2120 C2114 1.368 . S
C2120 C2119 1.523 . S
C2121 C2105 1.429 . S
C2121 C2117 1.429 . S
C2121 C2122 1.523 . S
C2122 C2106 1.368 . S
C2122 C2118 1.368 . S
C2122 C2121 1.523 . S
H2123 C2098 0.950 . S
H2124 C2100 0.950 . S
H2125 C2101 0.949 . S
H2126 C2103 0.950 . S
H2127 C2105 0.950 . S
C2128 C2129 1.349 . S
C2128 C2130 1.327 1_554 S
C2128 H2153 0.950 . S
C2129 C2128 1.349 . S
C2129 C2145 1.349 1_554 S
C2130 C2128 1.327 1_556 S
C2130 C2149 1.429 . S
C2130 H2154 0.950 . S
C2131 C2148 1.574 . S
C2131 C2150 1.368 . S
C2131 H2155 0.949 . S
H2132 C2136 0.949 . S
C2133 C2134 1.349 . S
C2133 C2135 1.327 . S
C2133 H2156 0.950 . S
C2134 C2133 1.349 . S
C2134 C2146 1.349 . S
C2135 C2133 1.327 . S
C2135 C2151 1.429 . S
C2135 H2157 0.950 . S
C2136 H2132 0.949 . S
C2136 C2144 1.574 . S
C2136 C2152 1.368 . S
H2137 C2145 0.950 . S
H2138 C2143 0.950 . S
H2139 C2144 0.949 . S
H2140 C2146 0.950 . S
H2141 C2147 0.950 . S
H2142 C2148 0.949 . S
C2143 H2138 0.950 . S
C2143 C2145 1.327 . S
C2143 C2149 1.429 . S
C2144 C2136 1.574 . S
C2144 H2139 0.949 . S
C2144 C2150 1.368 . S
C2145 C2129 1.349 1_556 S
C2145 H2137 0.950 . S
C2145 C2143 1.327 . S
C2146 C2134 1.349 . S
C2146 H2140 0.950 . S
C2146 C2147 1.327 . S
C2147 H2141 0.950 . S
C2147 C2146 1.327 . S
C2147 C2151 1.429 . S
C2148 C2131 1.574 . S
C2148 H2142 0.949 . S
C2148 C2152 1.368 . S
C2149 C2130 1.429 . S
C2149 C2143 1.429 . S
C2149 C2150 1.523 . S
C2150 C2131 1.368 . S
C2150 C2144 1.368 . S
C2150 C2149 1.523 . S
C2151 C2135 1.429 . S
C2151 C2147 1.429 . S
C2151 C2152 1.523 . S
C2152 C2136 1.368 . S
C2152 C2148 1.368 . S
C2152 C2151 1.523 . S
H2153 C2128 0.950 . S
H2154 C2130 0.950 . S
H2155 C2131 0.949 . S
H2156 C2133 0.950 . S
H2157 C2135 0.950 . S
C2158 C2159 1.349 . S
C2158 C2160 1.327 . S
C2158 H2183 0.950 . S
C2159 C2158 1.349 . S
C2159 C2175 1.349 . S
C2160 C2158 1.327 . S
C2160 C2179 1.429 . S
C2160 H2184 0.950 . S
C2161 C2178 1.574 . S
C2161 C2180 1.368 . S
C2161 H2185 0.949 . S
H2162 C2166 0.949 . S
C2163 C2164 1.349 . S
C2163 C2165 1.327 1_556 S
C2163 H2186 0.950 . S
C2164 C2163 1.349 . S
C2164 C2176 1.349 1_556 S
C2165 C2163 1.327 1_554 S
C2165 C2181 1.429 . S
C2165 H2187 0.950 . S
C2166 H2162 0.949 . S
C2166 C2174 1.574 . S
C2166 C2182 1.368 . S
H2167 C2175 0.950 . S
H2168 C2173 0.950 . S
H2169 C2174 0.949 . S
H2170 C2176 0.950 . S
H2171 C2177 0.950 . S
H2172 C2178 0.949 . S
C2173 H2168 0.950 . S
C2173 C2175 1.327 . S
C2173 C2179 1.429 . S
C2174 C2166 1.574 . S
C2174 H2169 0.949 . S
C2174 C2180 1.368 . S
C2175 C2159 1.349 . S
C2175 H2167 0.950 . S
C2175 C2173 1.327 . S
C2176 C2164 1.349 1_554 S
C2176 H2170 0.950 . S
C2176 C2177 1.327 . S
C2177 H2171 0.950 . S
C2177 C2176 1.327 . S
C2177 C2181 1.429 . S
C2178 C2161 1.574 . S
C2178 H2172 0.949 . S
C2178 C2182 1.368 . S
C2179 C2160 1.429 . S
C2179 C2173 1.429 . S
C2179 C2180 1.523 . S
C2180 C2161 1.368 . S
C2180 C2174 1.368 . S
C2180 C2179 1.523 . S
C2181 C2165 1.429 . S
C2181 C2177 1.429 . S
C2181 C2182 1.523 . S
C2182 C2166 1.368 . S
C2182 C2178 1.368 . S
C2182 C2181 1.523 . S
H2183 C2158 0.950 . S
H2184 C2160 0.950 . S
H2185 C2161 0.949 . S
H2186 C2163 0.950 . S
H2187 C2165 0.950 . S
C2188 C2189 1.349 . S
C2188 C2190 1.327 . S
C2188 H2213 0.950 . S
C2189 C2188 1.349 . S
C2189 C2205 1.349 . S
C2190 C2188 1.327 . S
C2190 C2209 1.429 . S
C2190 H2214 0.950 . S
C2191 C2208 1.574 . S
C2191 C2210 1.368 . S
C2191 H2215 0.949 . S
H2192 C2196 0.949 . S
C2193 C2194 1.349 . S
C2193 C2195 1.327 . S
C2193 H2216 0.950 . S
C2194 C2193 1.349 . S
C2194 C2206 1.349 . S
C2195 C2193 1.327 . S
C2195 C2211 1.429 . S
C2195 H2217 0.950 . S
C2196 H2192 0.949 . S
C2196 C2204 1.574 . S
C2196 C2212 1.368 . S
H2197 C2205 0.950 . S
H2198 C2203 0.950 . S
H2199 C2204 0.949 . S
H2200 C2206 0.950 . S
H2201 C2207 0.950 . S
H2202 C2208 0.949 . S
C2203 H2198 0.950 . S
C2203 C2205 1.327 . S
C2203 C2209 1.429 . S
C2204 C2196 1.574 . S
C2204 H2199 0.949 . S
C2204 C2210 1.368 . S
C2205 C2189 1.349 . S
C2205 H2197 0.950 . S
C2205 C2203 1.327 . S
C2206 C2194 1.349 . S
C2206 H2200 0.950 . S
C2206 C2207 1.327 . S
C2207 H2201 0.950 . S
C2207 C2206 1.327 . S
C2207 C2211 1.429 . S
C2208 C2191 1.574 . S
C2208 H2202 0.949 . S
C2208 C2212 1.368 . S
C2209 C2190 1.429 . S
C2209 C2203 1.429 . S
C2209 C2210 1.523 . S
C2210 C2191 1.368 . S
C2210 C2204 1.368 . S
C2210 C2209 1.523 . S
C2211 C2195 1.429 . S
C2211 C2207 1.429 . S
C2211 C2212 1.523 . S
C2212 C2196 1.368 . S
C2212 C2208 1.368 . S
C2212 C2211 1.523 . S
H2213 C2188 0.950 . S
H2214 C2190 0.950 . S
H2215 C2191 0.949 . S
H2216 C2193 0.950 . S
H2217 C2195 0.950 . S
C2218 C2219 1.349 . S
C2218 C2220 1.327 . S
C2218 H2243 0.950 . S
C2219 C2218 1.349 . S
C2219 C2235 1.349 . S
C2220 C2218 1.327 . S
C2220 C2239 1.429 . S
C2220 H2244 0.950 . S
C2221 C2238 1.574 . S
C2221 C2240 1.368 . S
C2221 H2245 0.949 . S
H2222 C2226 0.949 . S
C2223 C2224 1.349 . S
C2223 C2225 1.327 . S
C2223 H2246 0.950 . S
C2224 C2223 1.349 . S
C2224 C2236 1.349 . S
C2225 C2223 1.327 . S
C2225 C2241 1.429 . S
C2225 H2247 0.950 . S
C2226 H2222 0.949 . S
C2226 C2234 1.574 . S
C2226 C2242 1.368 . S
H2227 C2235 0.950 . S
H2228 C2233 0.950 . S
H2229 C2234 0.949 . S
H2230 C2236 0.950 . S
H2231 C2237 0.950 . S
H2232 C2238 0.949 . S
C2233 H2228 0.950 . S
C2233 C2235 1.327 . S
C2233 C2239 1.429 . S
C2234 C2226 1.574 . S
C2234 H2229 0.949 . S
C2234 C2240 1.368 . S
C2235 C2219 1.349 . S
C2235 H2227 0.950 . S
C2235 C2233 1.327 . S
C2236 C2224 1.349 . S
C2236 H2230 0.950 . S
C2236 C2237 1.327 . S
C2237 H2231 0.950 . S
C2237 C2236 1.327 . S
C2237 C2241 1.429 . S
C2238 C2221 1.574 . S
C2238 H2232 0.949 . S
C2238 C2242 1.368 . S
C2239 C2220 1.429 . S
C2239 C2233 1.429 . S
C2239 C2240 1.523 . S
C2240 C2221 1.368 . S
C2240 C2234 1.368 . S
C2240 C2239 1.523 . S
C2241 C2225 1.429 . S
C2241 C2237 1.429 . S
C2241 C2242 1.523 . S
C2242 C2226 1.368 . S
C2242 C2238 1.368 . S
C2242 C2241 1.523 . S
H2243 C2218 0.950 . S
H2244 C2220 0.950 . S
H2245 C2221 0.949 . S
H2246 C2223 0.950 . S
H2247 C2225 0.950 . S
C2248 C2249 1.349 . S
C2248 C2250 1.327 . S
C2248 H2273 0.950 . S
C2249 C2248 1.349 . S
C2249 C2265 1.349 . S
C2250 C2248 1.327 . S
C2250 C2269 1.429 . S
C2250 H2274 0.950 . S
C2251 C2268 1.574 . S
C2251 C2270 1.368 . S
C2251 H2275 0.949 . S
H2252 C2256 0.949 . S
C2253 C2254 1.349 . S
C2253 C2255 1.327 1_556 S
C2253 H2276 0.950 . S
C2254 C2253 1.349 . S
C2254 C2266 1.349 1_556 S
C2255 C2253 1.327 1_554 S
C2255 C2271 1.429 . S
C2255 H2277 0.950 . S
C2256 H2252 0.949 . S
C2256 C2264 1.574 . S
C2256 C2272 1.368 . S
H2257 C2265 0.950 . S
H2258 C2263 0.950 . S
H2259 C2264 0.949 . S
H2260 C2266 0.950 . S
H2261 C2267 0.950 . S
H2262 C2268 0.949 . S
C2263 H2258 0.950 . S
C2263 C2265 1.327 . S
C2263 C2269 1.429 . S
C2264 C2256 1.574 . S
C2264 H2259 0.949 . S
C2264 C2270 1.368 . S
C2265 C2249 1.349 . S
C2265 H2257 0.950 . S
C2265 C2263 1.327 . S
C2266 C2254 1.349 1_554 S
C2266 H2260 0.950 . S
C2266 C2267 1.327 . S
C2267 H2261 0.950 . S
C2267 C2266 1.327 . S
C2267 C2271 1.429 . S
C2268 C2251 1.574 . S
C2268 H2262 0.949 . S
C2268 C2272 1.368 . S
C2269 C2250 1.429 . S
C2269 C2263 1.429 . S
C2269 C2270 1.523 . S
C2270 C2251 1.368 . S
C2270 C2264 1.368 . S
C2270 C2269 1.523 . S
C2271 C2255 1.429 . S
C2271 C2267 1.429 . S
C2271 C2272 1.523 . S
C2272 C2256 1.368 . S
C2272 C2268 1.368 . S
C2272 C2271 1.523 . S
H2273 C2248 0.950 . S
H2274 C2250 0.950 . S
H2275 C2251 0.949 . S
H2276 C2253 0.950 . S
H2277 C2255 0.950 . S
C2278 C2279 1.349 . S
C2278 C2280 1.327 1_554 S
C2278 H2303 0.950 . S
C2279 C2278 1.349 . S
C2279 C2295 1.349 1_554 S
C2280 C2278 1.327 1_556 S
C2280 C2299 1.429 . S
C2280 H2304 0.950 . S
C2281 C2298 1.574 . S
C2281 C2300 1.368 . S
C2281 H2305 0.949 . S
H2282 C2286 0.949 . S
C2283 C2284 1.349 . S
C2283 C2285 1.327 . S
C2283 H2306 0.950 . S
C2284 C2283 1.349 . S
C2284 C2296 1.349 . S
C2285 C2283 1.327 . S
C2285 C2301 1.429 . S
C2285 H2307 0.950 . S
C2286 H2282 0.949 . S
C2286 C2294 1.574 . S
C2286 C2302 1.368 . S
H2287 C2295 0.950 . S
H2288 C2293 0.950 . S
H2289 C2294 0.949 . S
H2290 C2296 0.950 . S
H2291 C2297 0.950 . S
H2292 C2298 0.949 . S
C2293 H2288 0.950 . S
C2293 C2295 1.327 . S
C2293 C2299 1.429 . S
C2294 C2286 1.574 . S
C2294 H2289 0.949 . S
C2294 C2300 1.368 . S
C2295 C2279 1.349 1_556 S
C2295 H2287 0.950 . S
C2295 C2293 1.327 . S
C2296 C2284 1.349 . S
C2296 H2290 0.950 . S
C2296 C2297 1.327 . S
C2297 H2291 0.950 . S
C2297 C2296 1.327 . S
C2297 C2301 1.429 . S
C2298 C2281 1.574 . S
C2298 H2292 0.949 . S
C2298 C2302 1.368 . S
C2299 C2280 1.429 . S
C2299 C2293 1.429 . S
C2299 C2300 1.523 . S
C2300 C2281 1.368 . S
C2300 C2294 1.368 . S
C2300 C2299 1.523 . S
C2301 C2285 1.429 . S
C2301 C2297 1.429 . S
C2301 C2302 1.523 . S
C2302 C2286 1.368 . S
C2302 C2298 1.368 . S
C2302 C2301 1.523 . S
H2303 C2278 0.950 . S
H2304 C2280 0.950 . S
H2305 C2281 0.949 . S
H2306 C2283 0.950 . S
H2307 C2285 0.950 . S
C2308 C2309 1.349 . S
C2308 C2310 1.327 . S
C2308 H2333 0.950 . S
C2309 C2308 1.349 . S
C2309 C2325 1.349 . S
C2310 C2308 1.327 . S
C2310 C2329 1.429 . S
C2310 H2334 0.950 . S
C2311 C2328 1.574 . S
C2311 C2330 1.368 . S
C2311 H2335 0.949 . S
H2312 C2316 0.949 . S
C2313 C2314 1.349 . S
C2313 C2315 1.327 . S
C2313 H2336 0.950 . S
C2314 C2313 1.349 . S
C2314 C2326 1.349 . S
C2315 C2313 1.327 . S
C2315 C2331 1.429 . S
C2315 H2337 0.950 . S
C2316 H2312 0.949 . S
C2316 C2324 1.574 . S
C2316 C2332 1.368 . S
H2317 C2325 0.950 . S
H2318 C2323 0.950 . S
H2319 C2324 0.949 . S
H2320 C2326 0.950 . S
H2321 C2327 0.950 . S
H2322 C2328 0.949 . S
C2323 H2318 0.950 . S
C2323 C2325 1.327 . S
C2323 C2329 1.429 . S
C2324 C2316 1.574 . S
C2324 H2319 0.949 . S
C2324 C2330 1.368 . S
C2325 C2309 1.349 . S
C2325 H2317 0.950 . S
C2325 C2323 1.327 . S
C2326 C2314 1.349 . S
C2326 H2320 0.950 . S
C2326 C2327 1.327 . S
C2327 H2321 0.950 . S
C2327 C2326 1.327 . S
C2327 C2331 1.429 . S
C2328 C2311 1.574 . S
C2328 H2322 0.949 . S
C2328 C2332 1.368 . S
C2329 C2310 1.429 . S
C2329 C2323 1.429 . S
C2329 C2330 1.523 . S
C2330 C2311 1.368 . S
C2330 C2324 1.368 . S
C2330 C2329 1.523 . S
C2331 C2315 1.429 . S
C2331 C2327 1.429 . S
C2331 C2332 1.523 . S
C2332 C2316 1.368 . S
C2332 C2328 1.368 . S
C2332 C2331 1.523 . S
H2333 C2308 0.950 . S
H2334 C2310 0.950 . S
H2335 C2311 0.949 . S
H2336 C2313 0.950 . S
H2337 C2315 0.950 . S
C2338 C2339 1.349 . S
C2338 C2340 1.327 . S
C2338 H2363 0.950 . S
C2339 C2338 1.349 . S
C2339 C2355 1.349 . S
C2340 C2338 1.327 . S
C2340 C2359 1.429 . S
C2340 H2364 0.950 . S
C2341 C2358 1.574 . S
C2341 C2360 1.368 . S
C2341 H2365 0.949 . S
H2342 C2346 0.949 . S
C2343 C2344 1.349 . S
C2343 C2345 1.327 . S
C2343 H2366 0.950 . S
C2344 C2343 1.349 . S
C2344 C2356 1.349 . S
C2345 C2343 1.327 . S
C2345 C2361 1.429 . S
C2345 H2367 0.950 . S
C2346 H2342 0.949 . S
C2346 C2354 1.574 . S
C2346 C2362 1.368 . S
H2347 C2355 0.950 . S
H2348 C2353 0.950 . S
H2349 C2354 0.949 . S
H2350 C2356 0.950 . S
H2351 C2357 0.950 . S
H2352 C2358 0.949 . S
C2353 H2348 0.950 . S
C2353 C2355 1.327 . S
C2353 C2359 1.429 . S
C2354 C2346 1.574 . S
C2354 H2349 0.949 . S
C2354 C2360 1.368 . S
C2355 C2339 1.349 . S
C2355 H2347 0.950 . S
C2355 C2353 1.327 . S
C2356 C2344 1.349 . S
C2356 H2350 0.950 . S
C2356 C2357 1.327 . S
C2357 H2351 0.950 . S
C2357 C2356 1.327 . S
C2357 C2361 1.429 . S
C2358 C2341 1.574 . S
C2358 H2352 0.949 . S
C2358 C2362 1.368 . S
C2359 C2340 1.429 . S
C2359 C2353 1.429 . S
C2359 C2360 1.523 . S
C2360 C2341 1.368 . S
C2360 C2354 1.368 . S
C2360 C2359 1.523 . S
C2361 C2345 1.429 . S
C2361 C2357 1.429 . S
C2361 C2362 1.523 . S
C2362 C2346 1.368 . S
C2362 C2358 1.368 . S
C2362 C2361 1.523 . S
H2363 C2338 0.950 . S
H2364 C2340 0.950 . S
H2365 C2341 0.949 . S
H2366 C2343 0.950 . S
H2367 C2345 0.950 . S
C449 C96 1.415 . S
C454 C12 1.415 . S
C479 C26 1.415 . S
C484 C110 1.415 . S
C509 C68 1.415 . S
C514 C40 1.415 . S
C539 C54 1.415 . S
C544 C82 1.415 . S
C569 C124 1.415 . S
C574 C208 1.415 . S
C599 C222 1.415 . S
C604 C138 1.415 . S
C629 C152 1.415 . S
C634 C180 1.415 . S
C659 C194 1.415 . S
C664 C166 1.415 . S
C689 C236 1.415 . S
C694 C320 1.415 . S
C719 C250 1.415 . S
C724 C334 1.415 . S
C749 C292 1.415 . S
C754 C264 1.415 . S
C779 C306 1.415 . S
C784 C278 1.415 . S
C809 C348 1.415 . S
C814 C432 1.415 . S
C839 C362 1.415 . S
C844 C446 1.415 . S
C869 C404 1.415 . S
C874 C376 1.415 . S
C899 C390 1.415 . S
C904 C418 1.415 . S
C929 C5 1.249 . S
C934 C103 1.249 . S
C959 C61 1.249 . S
C964 C19 1.249 . S
C989 C75 1.249 . S
C994 C33 1.249 . S
C1019 C47 1.249 . S
C1024 C89 1.249 . S
C1049 C117 1.249 . S
C1054 C215 1.249 . S
C1079 C173 1.249 . S
C1084 C131 1.249 . S
C1109 C187 1.249 . S
C1114 C145 1.249 . S
C1139 C201 1.249 . S
C1144 C159 1.249 . S
C1169 C229 1.249 . S
C1174 C327 1.249 . S
C1199 C243 1.249 . S
C1204 C285 1.249 . S
C1229 C299 1.249 . S
C1234 C257 1.249 . S
C1259 C271 1.249 . S
C1264 C313 1.249 . S
C1289 C341 1.249 . S
C1294 C439 1.249 . S
C1319 C397 1.249 . S
C1324 C355 1.249 . S
C1349 C369 1.249 . S
C1354 C411 1.249 . S
C1379 C383 1.249 . S
C1384 C425 1.249 . S
C1409 C431 1.448 . S
C1414 C11 1.448 . S
C1439 C221 1.448 . S
C1444 C25 1.448 . S
C1469 C39 1.448 . S
C1474 C403 1.448 . S
C1499 C53 1.448 . S
C1504 C193 1.448 . S
C1529 C67 1.448 . S
C1534 C375 1.448 . S
C1559 C81 1.448 . S
C1564 C165 1.448 . S
C1589 C95 1.448 . S
C1594 C347 1.448 . S
C1619 C137 1.448 . S
C1624 C109 1.448 . S
C1649 C319 1.448 . S
C1654 C123 1.448 . S
C1679 C151 1.448 . S
C1684 C291 1.448 . S
C1709 C263 1.448 . S
C1714 C179 1.448 . S
C1739 C235 1.448 . S
C1744 C207 1.448 . S
C1769 C249 1.448 . S
C1774 C445 1.448 . S
C1799 C277 1.448 . S
C1804 C417 1.448 . S
C1829 C305 1.448 . S
C1834 C389 1.448 . S
C1859 C361 1.448 . S
C1864 C333 1.448 . S
C1889 C4 0.861 . S
C1894 C102 0.861 . S
C1919 C18 0.861 . S
C1924 C60 0.861 . S
C1949 C74 0.861 . S
C1954 C32 0.861 . S
C1979 C46 0.861 . S
C1984 C88 0.861 . S
C2009 C214 0.861 . S
C2014 C116 0.861 . S
C2039 C172 0.861 . S
C2044 C130 0.861 . S
C2069 C144 0.861 . S
C2074 C186 0.861 . S
C2099 C200 0.861 . S
C2104 C158 0.861 . S
C2129 C326 0.861 . S
C2134 C228 0.861 . S
C2159 C284 0.861 . S
C2164 C242 0.861 . S
C2189 C298 0.861 . S
C2194 C256 0.861 . S
C2219 C312 0.861 . S
C2224 C270 0.861 . S
C2249 C340 0.861 . S
C2254 C438 0.861 . S
C2279 C354 0.861 . S
C2284 C396 0.861 . S
C2309 C368 0.861 . S
C2314 C410 0.861 . S
C2339 C424 0.861 . S
C2344 C382 0.861 . S
