# Generated by pormake.
# Topology qtz, (4)-cn, num edge types: 1
# Building blocks:
#     Node 0, Type 0, BuildingBlock: QUQFOY_clean_sbu_1, # of connection points: 4
#     Node 1, Type 0, BuildingBlock: QUQFOY_clean_sbu_1, # of connection points: 4
#     Node 2, Type 0, BuildingBlock: QUQFOY_clean_sbu_1, # of connection points: 4
#     Edge 3, Type (0, 0), BuildingBlock: MIFKUJ_clean_linker_0, # of connection points: 2
#     Edge 4, Type (0, 0), BuildingBlock: MIFKUJ_clean_linker_0, # of connection points: 2
#     Edge 5, Type (0, 0), BuildingBlock: MIFKUJ_clean_linker_0, # of connection points: 2
#     Edge 6, Type (0, 0), BuildingBlock: MIFKUJ_clean_linker_0, # of connection points: 2
#     Edge 7, Type (0, 0), BuildingBlock: MIFKUJ_clean_linker_0, # of connection points: 2
#     Edge 8, Type (0, 0), BuildingBlock: MIFKUJ_clean_linker_0, # of connection points: 2
# Relax obj value: 0.036
# Max RMSD: 0.130
# Mean RMSD: 0.104
data_MOF--net-qtz--node1-QUQFOY_clean_sbu_1--edge1-MIFKUJ_clean_linker_0
_symmetry_space_group_name_H-M    P1
_symmetry_Int_Tables_number       1
_symmetry_cell_setting            triclinic
loop_
_symmetry_equiv_pos_as_xyz
'x, y, z'
_cell_length_a     28.880058
_cell_length_b     33.241984
_cell_length_c     38.49075
_cell_angle_alpha  89.845217
_cell_angle_beta   90.100091
_cell_angle_gamma 120.67163
loop_
_atom_site_label
_atom_site_type_symbol
_atom_site_fract_x
_atom_site_fract_y
_atom_site_fract_z
_atom_type_partial_charge
O0 O 0.92396 0.47356 0.13738 0.0
Cd1 Cd 0.97434 0.46154 0.16807 0.0
Cd2 Cd 0.03464 0.55494 0.16845 0.0
O3 O 0.97029 0.55043 0.14174 0.0
O4 O 0.93183 0.39561 0.18456 0.0
O5 O 0.9637 0.45656 0.21987 0.0
C6 C 0.93686 0.41175 0.21562 0.0
C7 C 0.06888 0.60413 0.2165 0.0
C8 C 0.92982 0.51328 0.13027 0.0
C9 C 0.0818 0.50376 0.13327 0.0
O10 O 0.08716 0.54333 0.14001 0.0
O11 O 0.04054 0.46644 0.14378 0.0
O12 O 0.07682 0.62061 0.18532 0.0
O13 O 0.04079 0.55929 0.22052 0.0
O14 O 0.54261 0.08219 0.47037 0.0
Cd15 Cd 0.47235 0.03999 0.497 0.0
Cd16 Cd 0.5187 0.98226 0.4994 0.0
O17 O 0.57974 0.03829 0.47242 0.0
O18 O 0.44459 0.08245 0.50781 0.0
O19 O 0.47008 0.05051 0.54835 0.0
C20 C 0.4525 0.07811 0.54022 0.0
C21 C 0.54134 0.94336 0.54075 0.0
C22 C 0.58118 0.07567 0.46311 0.0
C23 C 0.4089 0.94483 0.46514 0.0
O24 O 0.44712 0.93868 0.47432 0.0
O25 O 0.41073 0.98313 0.47145 0.0
O26 O 0.54668 0.93934 0.50796 0.0
O27 O 0.52499 0.97125 0.5504 0.0
O28 O 0.46261 0.54256 0.85741 0.0
Cd29 Cd 0.5298 0.5619 0.82751 0.0
Cd30 Cd 0.48383 0.46492 0.82719 0.0
O31 O 0.42267 0.46568 0.85433 0.0
O32 O 0.55588 0.62891 0.81725 0.0
O33 O 0.52946 0.57509 0.77633 0.0
C34 C 0.54675 0.61803 0.78486 0.0
C35 C 0.46304 0.40708 0.7854 0.0
C36 C 0.42366 0.5022 0.86518 0.0
C37 C 0.59285 0.52474 0.86188 0.0
O38 O 0.5534 0.48447 0.85458 0.0
O39 O 0.59301 0.56137 0.85212 0.0
O40 O 0.45703 0.39757 0.8181 0.0
O41 O 0.47921 0.44959 0.77606 0.0
H42 H 0.34132 0.42273 0.89512 0.0
H43 H 0.28124 0.41838 0.94167 0.0
H44 H 0.35283 0.56826 0.93797 0.0
H45 H 0.41304 0.57305 0.89179 0.0
H46 H 0.35022 0.53714 1.00352 0.0
H47 H 0.22725 0.49673 0.90717 0.0
H48 H 0.17643 0.45099 0.85596 0.0
H49 H 0.09801 0.32629 0.9182 0.0
H50 H 0.14894 0.37122 0.96972 0.0
H51 H 0.17024 0.57578 0.1018 0.0
H52 H 0.22788 0.57027 0.05819 0.0
H53 H 0.13998 0.41999 0.06855 0.0
H54 H 0.08138 0.42508 0.11186 0.0
H55 H 0.15063 0.44493 1.0019 0.0
H56 H 0.26874 0.4854 0.09903 0.0
H57 H 0.31927 0.53046 0.15053 0.0
H58 H 0.40715 0.65361 0.0876 0.0
H59 H 0.3566 0.60946 0.03578 0.0
C60 C 0.34368 0.45469 0.90382 0.0
C61 C 0.38222 0.49826 0.88983 0.0
C62 C 0.30933 0.45212 0.93044 0.0
C63 C 0.31276 0.49304 0.94333 0.0
C64 C 0.34981 0.53631 0.92855 0.0
C65 C 0.38405 0.53892 0.90202 0.0
C66 C 0.27982 0.49139 0.97337 0.0
C67 C 0.30654 0.51738 1.00306 0.0
C68 C 0.22296 0.46427 0.97316 0.0
C69 C 0.19237 0.43724 0.9422 0.0
C70 C 0.19954 0.45948 0.90987 0.0
C71 C 0.17064 0.43372 0.8808 0.0
C72 C 0.13414 0.38574 0.8838 0.0
C73 C 0.12637 0.36344 0.9159 0.0
C74 C 0.15521 0.38904 0.94505 0.0
C75 C 0.16359 0.54156 0.09523 0.0
C76 C 0.12107 0.50087 0.11029 0.0
C77 C 0.19672 0.53848 0.07033 0.0
C78 C 0.18841 0.49471 0.06023 0.0
C79 C 0.14703 0.4541 0.07593 0.0
C80 C 0.11375 0.45713 0.1008 0.0
C81 C 0.22102 0.49141 0.03188 0.0
C82 C 0.1943 0.46441 1.00253 0.0
C83 C 0.27795 0.51747 0.03244 0.0
C84 C 0.30854 0.54417 0.06355 0.0
C85 C 0.29854 0.52218 0.09621 0.0
C86 C 0.32724 0.54755 0.12546 0.0
C87 C 0.36631 0.59489 0.12235 0.0
C88 C 0.37684 0.61694 0.08997 0.0
C89 C 0.34822 0.59175 0.06064 0.0
H90 H 0.38849 0.61447 0.14503 0.0
H91 H 0.11179 0.36585 0.86127 0.0
H92 H 0.91727 0.32302 0.2222 0.0
H93 H 0.86774 0.267 0.26851 0.0
H94 H 0.84494 0.37058 0.32052 0.0
H95 H 0.89769 0.42765 0.27523 0.0
H96 H 0.85752 0.32258 0.36705 0.0
H97 H 0.74557 0.28011 0.26563 0.0
H98 H 0.72115 0.25938 0.20412 0.0
H99 H 0.73782 0.13895 0.21643 0.0
H100 H 0.76297 0.15929 0.27793 0.0
H101 H 0.61033 0.16691 0.45342 0.0
H102 H 0.6814 0.22461 0.4158 0.0
H103 H 0.72616 0.12346 0.38787 0.0
H104 H 0.65532 0.06542 0.42589 0.0
H105 H 0.70633 0.16762 0.3308 0.0
H106 H 0.80913 0.20995 0.43667 0.0
H107 H 0.82626 0.23199 0.49849 0.0
H108 H 0.81738 0.35486 0.47775 0.0
H109 H 0.79944 0.33322 0.41586 0.0
C110 C 0.90216 0.33392 0.24375 0.0
C111 C 0.9108 0.37945 0.24505 0.0
C112 C 0.87352 0.3018 0.2701 0.0
C113 C 0.85108 0.31398 0.29758 0.0
C114 C 0.86153 0.36014 0.29956 0.0
C115 C 0.89157 0.39273 0.27366 0.0
C116 C 0.81515 0.27826 0.32345 0.0
C117 C 0.8242 0.28889 0.35903 0.0
C118 C 0.77193 0.23387 0.31321 0.0
C119 C 0.75671 0.22151 0.27626 0.0
C120 C 0.74437 0.24939 0.25515 0.0
C121 C 0.73036 0.23768 0.2203 0.0
C122 C 0.72809 0.19795 0.20635 0.0
C123 C 0.73968 0.16976 0.22725 0.0
C124 C 0.75378 0.18134 0.26211 0.0
C125 C 0.63563 0.15701 0.43958 0.0
C126 C 0.62707 0.11151 0.44253 0.0
C127 C 0.67639 0.19013 0.41824 0.0
C128 C 0.70911 0.17832 0.39921 0.0
C129 C 0.70137 0.13322 0.40249 0.0
C130 C 0.66102 0.10019 0.42426 0.0
C131 C 0.74871 0.21215 0.3741 0.0
C132 C 0.74009 0.20116 0.33869 0.0
C133 C 0.79136 0.2565 0.38448 0.0
C134 C 0.80253 0.26975 0.42166 0.0
C135 C 0.81041 0.24148 0.44533 0.0
C136 C 0.82035 0.25394 0.48038 0.0
C137 C 0.8228 0.29475 0.49205 0.0
C138 C 0.81545 0.32325 0.46867 0.0
C139 C 0.80547 0.31093 0.4336 0.0
H140 H 0.83049 0.30433 0.5192 0.0
H141 H 0.71723 0.18895 0.17937 0.0
H142 H 0.54402 0.94873 0.61201 0.0
H143 H 0.55233 0.89614 0.65311 0.0
H144 H 0.56577 0.81925 0.56755 0.0
H145 H 0.55821 0.87167 0.52648 0.0
H146 H 0.48754 0.76288 0.61739 0.0
H147 H 0.6736 0.88603 0.612 0.0
H148 H 0.74885 0.9675 0.61615 0.0
H149 H 0.71006 0.97258 0.72309 0.0
H150 H 0.63405 0.8913 0.71943 0.0
H151 H 0.54323 0.6108 0.71377 0.0
H152 H 0.54936 0.66856 0.67153 0.0
H153 H 0.56891 0.76216 0.7552 0.0
H154 H 0.56489 0.70554 0.79726 0.0
H155 H 0.63211 0.81092 0.70529 0.0
H156 H 0.44559 0.69233 0.71218 0.0
H157 H 0.36677 0.61236 0.71 0.0
H158 H 0.40093 0.60023 0.60328 0.0
H159 H 0.48041 0.67995 0.60497 0.0
C160 C 0.54935 0.92094 0.602 0.0
C161 C 0.55044 0.91439 0.566 0.0
C162 C 0.55416 0.891 0.62548 0.0
C163 C 0.55966 0.85384 0.6133 0.0
C164 C 0.56149 0.84767 0.57744 0.0
C165 C 0.55736 0.87783 0.55403 0.0
C166 C 0.5612 0.82006 0.6378 0.0
C167 C 0.51952 0.77317 0.63633 0.0
C168 C 0.60209 0.8339 0.66309 0.0
C169 C 0.64779 0.88274 0.66533 0.0
C170 C 0.6808 0.90466 0.63631 0.0
C171 C 0.72366 0.95077 0.63859 0.0
C172 C 0.73414 0.97525 0.66983 0.0
C173 C 0.70185 0.95361 0.69889 0.0
C174 C 0.65891 0.9075 0.69673 0.0
C175 C 0.54925 0.64385 0.72309 0.0
C176 C 0.55334 0.65349 0.75885 0.0
C177 C 0.55244 0.67675 0.69895 0.0
C178 C 0.55863 0.71949 0.71017 0.0
C179 C 0.56409 0.72953 0.74584 0.0
C180 C 0.56164 0.69699 0.76989 0.0
C181 C 0.55832 0.75342 0.68499 0.0
C182 C 0.60014 0.80042 0.68634 0.0
C183 C 0.517 0.73985 0.65992 0.0
C184 C 0.46928 0.6919 0.65882 0.0
C185 C 0.43653 0.67246 0.68833 0.0
C186 C 0.3917 0.62721 0.68717 0.0
C187 C 0.37895 0.60118 0.65655 0.0
C188 C 0.41092 0.6204 0.627 0.0
C189 C 0.45584 0.66562 0.62803 0.0
H190 H 0.34421 0.56615 0.6557 0.0
H191 H 0.76735 0.01095 0.67155 0.0
H192 H 0.60747 0.45396 0.88396 0.0
H193 H 0.668 0.45716 0.92947 0.0
H194 H 0.73497 0.60599 0.93894 0.0
H195 H 0.67451 0.60329 0.89306 0.0
H196 H 0.8123 0.57929 0.94469 0.0
H197 H 0.64133 0.53756 0.99429 0.0
H198 H 0.54234 0.49236 0.99892 0.0
H199 H 0.54638 0.36643 0.01568 0.0
H200 H 0.6454 0.41079 0.01061 0.0
H201 H 0.93032 0.59222 0.10911 0.0
H202 H 0.87449 0.59837 0.0641 0.0
H203 H 0.7894 0.44865 0.05064 0.0
H204 H 0.84434 0.44201 0.096 0.0
H205 H 0.72159 0.48111 0.04827 0.0
H206 H 0.8914 0.52143 0.99581 0.0
H207 H 0.99029 0.5657 0.99015 0.0
H208 H 0.98855 0.69341 0.97831 0.0
H209 H 0.88964 0.64994 0.98437 0.0
C210 C 0.63556 0.48757 0.89529 0.0
C211 C 0.63564 0.52831 0.88517 0.0
C212 C 0.67003 0.48927 0.92139 0.0
C213 C 0.70507 0.53162 0.93803 0.0
C214 C 0.70788 0.5729 0.92653 0.0
C215 C 0.67333 0.57127 0.90031 0.0
C216 C 0.73621 0.53197 0.96873 0.0
C217 C 0.79257 0.55844 0.96758 0.0
C218 C 0.71028 0.50416 0.99833 0.0
C219 C 0.65076 0.47745 1.00178 0.0
C220 C 0.62109 0.50018 0.99872 0.0
C221 C 0.56498 0.47472 1.00145 0.0
C222 C 0.53808 0.42654 0.00752 0.0
C223 C 0.56727 0.40375 0.01095 0.0
C224 C 0.62339 0.42904 0.00818 0.0
C225 C 0.89932 0.5605 0.09689 0.0
C226 C 0.89209 0.51663 0.10599 0.0
C227 C 0.86765 0.56414 0.07102 0.0
C228 C 0.82851 0.52406 0.05357 0.0
C229 C 0.81958 0.48006 0.06366 0.0
C230 C 0.85107 0.47634 0.0896 0.0
C231 C 0.79784 0.52789 0.02411 0.0
C232 C 0.74145 0.50224 0.02551 0.0
C233 C 0.82379 0.55637 0.99475 0.0
C234 C 0.8832 0.58251 0.99092 0.0
C235 C 0.91215 0.55901 0.99226 0.0
C236 C 0.96819 0.58394 0.98894 0.0
C237 C 0.9957 0.63236 0.98397 0.0
C238 C 0.9672 0.65592 0.98222 0.0
C239 C 0.91115 0.63115 0.98558 0.0
H240 H 0.03909 0.6516 0.9814 0.0
H241 H 0.49463 0.40689 0.00962 0.0
H242 H 0.34662 0.95391 0.41582 0.0
H243 H 0.27896 0.89237 0.37862 0.0
H244 H 0.29932 0.78941 0.43425 0.0
H245 H 0.36911 0.85124 0.47 0.0
H246 H 0.3011 0.77434 0.37083 0.0
H247 H 0.18084 0.79985 0.43929 0.0
H248 H 0.14492 0.84498 0.46719 0.0
H249 H 0.12282 0.8903 0.36717 0.0
H250 H 0.15928 0.84593 0.33868 0.0
H251 H 0.08383 0.58224 0.28259 0.0
H252 H 0.13172 0.6368 0.33027 0.0
H253 H 0.15611 0.75219 0.26567 0.0
H254 H 0.10907 0.69816 0.21784 0.0
H255 H 0.12565 0.75599 0.33666 0.0
H256 H 0.25361 0.73337 0.27032 0.0
H257 H 0.28726 0.68553 0.24407 0.0
H258 H 0.29062 0.63065 0.34456 0.0
H259 H 0.25622 0.67771 0.37133 0.0
C260 C 0.336 0.91803 0.42037 0.0
C261 C 0.3632 0.90732 0.44566 0.0
C262 C 0.29706 0.88275 0.39923 0.0
C263 C 0.2834 0.83593 0.40374 0.0
C264 C 0.30917 0.82516 0.43004 0.0
C265 C 0.34897 0.8605 0.45055 0.0
C266 C 0.24565 0.79876 0.37942 0.0
C267 C 0.26226 0.76986 0.36406 0.0
C268 C 0.19525 0.79316 0.36983 0.0
C269 C 0.17322 0.81985 0.38687 0.0
C270 C 0.16869 0.81971 0.42325 0.0
C271 C 0.14816 0.84511 0.43917 0.0
C272 C 0.13171 0.87057 0.41897 0.0
C273 C 0.13562 0.87059 0.38279 0.0
C274 C 0.15615 0.84527 0.36674 0.0
C275 C 0.09883 0.61916 0.27871 0.0
C276 C 0.09307 0.636 0.24642 0.0
C277 C 0.12617 0.65023 0.30592 0.0
C278 C 0.14756 0.69847 0.30136 0.0
C279 C 0.13976 0.71508 0.26968 0.0
C280 C 0.11315 0.68418 0.24235 0.0
C281 C 0.18138 0.73209 0.32859 0.0
C282 C 0.16417 0.76033 0.34415 0.0
C283 C 0.23087 0.73672 0.33883 0.0
C284 C 0.25175 0.70861 0.32275 0.0
C285 C 0.26106 0.71078 0.28676 0.0
C286 C 0.28036 0.68387 0.2718 0.0
C287 C 0.29091 0.65495 0.29262 0.0
C288 C 0.28232 0.65299 0.32846 0.0
C289 C 0.26295 0.67978 0.34354 0.0
H290 H 0.30586 0.63416 0.28099 0.0
H291 H 0.11583 0.89022 0.43135 0.0
H292 H 0.45186 0.3222 0.79891 0.0
H293 H 0.44424 0.26388 0.75724 0.0
H294 H 0.44694 0.3503 0.67266 0.0
H295 H 0.45562 0.40966 0.71435 0.0
H296 H 0.36468 0.24849 0.66893 0.0
H297 H 0.55525 0.3546 0.68494 0.0
H298 H 0.63793 0.39966 0.71963 0.0
H299 H 0.61564 0.27245 0.7643 0.0
H300 H 0.53229 0.22666 0.73024 0.0
H301 H 0.42356 0.14344 0.52943 0.0
H302 H 0.41835 0.19502 0.57202 0.0
H303 H 0.45784 0.12845 0.65376 0.0
H304 H 0.46456 0.07728 0.61091 0.0
H305 H 0.51648 0.21925 0.66018 0.0
H306 H 0.32917 0.11191 0.64444 0.0
H307 H 0.24435 0.06452 0.61228 0.0
H308 H 0.25662 0.18935 0.57019 0.0
H309 H 0.34196 0.23752 0.60173 0.0
C310 C 0.4504 0.32876 0.77147 0.0
C311 C 0.45448 0.37064 0.7599 0.0
C312 C 0.44615 0.29539 0.74772 0.0
C313 C 0.44528 0.30294 0.71196 0.0
C314 C 0.44753 0.34393 0.70023 0.0
C315 C 0.45263 0.37779 0.72402 0.0
C316 C 0.44413 0.26864 0.68698 0.0
C317 C 0.39806 0.24243 0.66656 0.0
C318 C 0.48703 0.25982 0.68492 0.0
C319 C 0.53721 0.28726 0.70534 0.0
C320 C 0.56768 0.33627 0.70242 0.0
C321 C 0.61473 0.36193 0.72191 0.0
C322 C 0.63194 0.33894 0.74424 0.0
C323 C 0.6022 0.29022 0.74704 0.0
C324 C 0.55508 0.26439 0.72763 0.0
C325 C 0.43058 0.13932 0.55651 0.0
C326 C 0.4445 0.1062 0.56677 0.0
C327 C 0.42729 0.16877 0.58091 0.0
C328 C 0.43711 0.16538 0.61622 0.0
C329 C 0.45004 0.13171 0.62666 0.0
C330 C 0.45367 0.10236 0.60218 0.0
C331 C 0.43689 0.19877 0.64177 0.0
C332 C 0.48283 0.22497 0.66243 0.0
C333 C 0.39353 0.20713 0.6443 0.0
C334 C 0.34226 0.17831 0.62521 0.0
C335 C 0.31403 0.12926 0.6281 0.0
C336 C 0.26581 0.10225 0.61002 0.0
C337 C 0.24518 0.1239 0.58913 0.0
C338 C 0.27269 0.17263 0.58634 0.0
C339 C 0.32096 0.1998 0.60435 0.0
H340 H 0.20783 0.10294 0.57517 0.0
H341 H 0.66839 0.35887 0.75929 0.0
loop_
_geom_bond_atom_site_label_1
_geom_bond_atom_site_label_2
_geom_bond_distance
_geom_bond_site_symmetry_2
_ccdc_geom_bond_type
O0 Cd1 2.223 . S
O0 C8 1.315 . S
Cd1 O0 2.223 . S
Cd1 O4 2.297 . S
Cd1 O5 2.439 . S
Cd1 O11 2.240 1_655 S
Cd2 O3 2.240 1_455 S
Cd2 O10 2.223 . S
Cd2 O12 2.297 . S
Cd2 O13 2.439 . S
O3 Cd2 2.240 1_655 S
O3 C8 1.279 . S
O4 Cd1 2.297 . S
O4 C6 1.247 . S
O5 Cd1 2.439 . S
O5 C6 1.208 . S
C6 O4 1.247 . S
C6 O5 1.208 . S
C7 O12 1.247 . S
C7 O13 1.208 . S
C8 O0 1.315 . S
C8 O3 1.279 . S
C9 O10 1.315 . S
C9 O11 1.279 . S
O10 Cd2 2.223 . S
O10 C9 1.315 . S
O11 Cd1 2.240 1_455 S
O11 C9 1.279 . S
O12 Cd2 2.297 . S
O12 C7 1.247 . S
O13 Cd2 2.439 . S
O13 C7 1.208 . S
O14 Cd15 2.223 . S
O14 C22 1.315 . S
Cd15 O14 2.223 . S
Cd15 O18 2.297 . S
Cd15 O19 2.439 . S
Cd15 O25 2.240 1_545 S
Cd16 O17 2.240 1_565 S
Cd16 O24 2.223 . S
Cd16 O26 2.297 . S
Cd16 O27 2.439 . S
O17 Cd16 2.240 1_545 S
O17 C22 1.279 . S
O18 Cd15 2.297 . S
O18 C20 1.247 . S
O19 Cd15 2.439 . S
O19 C20 1.208 . S
C20 O18 1.247 . S
C20 O19 1.208 . S
C21 O26 1.247 . S
C21 O27 1.208 . S
C22 O14 1.315 . S
C22 O17 1.279 . S
C23 O24 1.315 . S
C23 O25 1.279 . S
O24 Cd16 2.223 . S
O24 C23 1.315 . S
O25 Cd15 2.240 1_565 S
O25 C23 1.279 . S
O26 Cd16 2.297 . S
O26 C21 1.247 . S
O27 Cd16 2.439 . S
O27 C21 1.208 . S
O28 Cd29 2.223 . S
O28 C36 1.315 . S
Cd29 O28 2.223 . S
Cd29 O32 2.297 . S
Cd29 O33 2.439 . S
Cd29 O39 2.240 . S
Cd30 O31 2.240 . S
Cd30 O38 2.223 . S
Cd30 O40 2.297 . S
Cd30 O41 2.439 . S
O31 Cd30 2.240 . S
O31 C36 1.279 . S
O32 Cd29 2.297 . S
O32 C34 1.247 . S
O33 Cd29 2.439 . S
O33 C34 1.208 . S
C34 O32 1.247 . S
C34 O33 1.208 . S
C35 O40 1.247 . S
C35 O41 1.208 . S
C36 O28 1.315 . S
C36 O31 1.279 . S
C37 O38 1.315 . S
C37 O39 1.279 . S
O38 Cd30 2.223 . S
O38 C37 1.315 . S
O39 Cd29 2.240 . S
O39 C37 1.279 . S
O40 Cd30 2.297 . S
O40 C35 1.247 . S
O41 Cd30 2.439 . S
O41 C35 1.208 . S
H42 C60 0.951 . S
H43 C62 0.951 . S
H44 C64 0.950 . S
H45 C65 0.950 . S
H46 C67 0.950 . S
H47 C70 0.950 . S
H48 C71 0.950 . S
H49 C73 0.950 . S
H50 C74 0.950 . S
H51 C75 0.951 . S
H52 C77 0.951 . S
H53 C79 0.950 . S
H54 C80 0.950 . S
H55 C82 0.950 . S
H56 C85 0.950 . S
H57 C86 0.950 . S
H58 C88 0.950 . S
H59 C89 0.950 . S
C60 H42 0.951 . S
C60 C61 1.366 . S
C60 C62 1.388 . S
C61 C60 1.366 . S
C61 C65 1.385 . S
C62 H43 0.951 . S
C62 C60 1.388 . S
C62 C63 1.366 . S
C63 C62 1.366 . S
C63 C64 1.414 . S
C63 C66 1.499 . S
C64 H44 0.950 . S
C64 C63 1.414 . S
C64 C65 1.374 . S
C65 H45 0.950 . S
C65 C61 1.385 . S
C65 C64 1.374 . S
C66 C63 1.499 . S
C66 C67 1.373 1_556 S
C66 C68 1.389 . S
C67 H46 0.950 . S
C67 C66 1.373 1_554 S
C67 C83 1.377 . S
C68 C66 1.389 . S
C68 C69 1.524 . S
C68 C82 1.377 . S
C69 C68 1.524 . S
C69 C70 1.397 . S
C69 C74 1.363 . S
C70 H47 0.950 . S
C70 C69 1.397 . S
C70 C71 1.334 . S
C71 H48 0.950 . S
C71 C70 1.334 . S
C71 C72 1.287 . S
C72 C71 1.287 . S
C72 C73 1.524 . S
C72 H91 0.913 . S
C73 H49 0.950 . S
C73 C72 1.524 . S
C73 C74 1.415 . S
C74 H50 0.950 . S
C74 C69 1.363 . S
C74 C73 1.415 . S
C75 H51 0.951 . S
C75 C76 1.366 . S
C75 C77 1.388 . S
C76 C75 1.366 . S
C76 C80 1.385 . S
C77 H52 0.951 . S
C77 C75 1.388 . S
C77 C78 1.366 . S
C78 C77 1.366 . S
C78 C79 1.414 . S
C78 C81 1.499 . S
C79 H53 0.950 . S
C79 C78 1.414 . S
C79 C80 1.374 . S
C80 H54 0.950 . S
C80 C76 1.385 . S
C80 C79 1.374 . S
C81 C78 1.499 . S
C81 C82 1.373 1_554 S
C81 C83 1.389 . S
C82 H55 0.950 . S
C82 C68 1.377 . S
C82 C81 1.373 1_556 S
C83 C67 1.377 . S
C83 C81 1.389 . S
C83 C84 1.524 . S
C84 C83 1.524 . S
C84 C85 1.397 . S
C84 C89 1.363 . S
C85 H56 0.950 . S
C85 C84 1.397 . S
C85 C86 1.334 . S
C86 H57 0.950 . S
C86 C85 1.334 . S
C86 C87 1.287 . S
C87 C86 1.287 . S
C87 C88 1.524 . S
C87 H90 0.999 . S
C88 H58 0.950 . S
C88 C87 1.524 . S
C88 C89 1.415 . S
C89 H59 0.950 . S
C89 C84 1.363 . S
C89 C88 1.415 . S
H90 C87 0.999 . S
H91 C72 0.913 . S
H92 C110 0.951 . S
H93 C112 0.951 . S
H94 C114 0.950 . S
H95 C115 0.950 . S
H96 C117 0.950 . S
H97 C120 0.950 . S
H98 C121 0.950 . S
H99 C123 0.950 . S
H100 C124 0.950 . S
H101 C125 0.951 . S
H102 C127 0.951 . S
H103 C129 0.950 . S
H104 C130 0.950 . S
H105 C132 0.950 . S
H106 C135 0.950 . S
H107 C136 0.950 . S
H108 C138 0.950 . S
H109 C139 0.950 . S
C110 H92 0.951 . S
C110 C111 1.366 . S
C110 C112 1.388 . S
C111 C110 1.366 . S
C111 C115 1.385 . S
C112 H93 0.951 . S
C112 C110 1.388 . S
C112 C113 1.366 . S
C113 C112 1.366 . S
C113 C114 1.414 . S
C113 C116 1.499 . S
C114 H94 0.950 . S
C114 C113 1.414 . S
C114 C115 1.374 . S
C115 H95 0.950 . S
C115 C111 1.385 . S
C115 C114 1.374 . S
C116 C113 1.499 . S
C116 C117 1.373 . S
C116 C118 1.389 . S
C117 H96 0.950 . S
C117 C116 1.373 . S
C117 C133 1.377 . S
C118 C116 1.389 . S
C118 C119 1.524 . S
C118 C132 1.377 . S
C119 C118 1.524 . S
C119 C120 1.397 . S
C119 C124 1.363 . S
C120 H97 0.950 . S
C120 C119 1.397 . S
C120 C121 1.334 . S
C121 H98 0.950 . S
C121 C120 1.334 . S
C121 C122 1.287 . S
C122 C121 1.287 . S
C122 C123 1.524 . S
C122 H141 0.913 . S
C123 H99 0.950 . S
C123 C122 1.524 . S
C123 C124 1.415 . S
C124 H100 0.950 . S
C124 C119 1.363 . S
C124 C123 1.415 . S
C125 H101 0.951 . S
C125 C126 1.366 . S
C125 C127 1.388 . S
C126 C125 1.366 . S
C126 C130 1.385 . S
C127 H102 0.951 . S
C127 C125 1.388 . S
C127 C128 1.366 . S
C128 C127 1.366 . S
C128 C129 1.414 . S
C128 C131 1.499 . S
C129 H103 0.950 . S
C129 C128 1.414 . S
C129 C130 1.374 . S
C130 H104 0.950 . S
C130 C126 1.385 . S
C130 C129 1.374 . S
C131 C128 1.499 . S
C131 C132 1.373 . S
C131 C133 1.389 . S
C132 H105 0.950 . S
C132 C118 1.377 . S
C132 C131 1.373 . S
C133 C117 1.377 . S
C133 C131 1.389 . S
C133 C134 1.524 . S
C134 C133 1.524 . S
C134 C135 1.397 . S
C134 C139 1.363 . S
C135 H106 0.950 . S
C135 C134 1.397 . S
C135 C136 1.334 . S
C136 H107 0.950 . S
C136 C135 1.334 . S
C136 C137 1.287 . S
C137 C136 1.287 . S
C137 C138 1.524 . S
C137 H140 0.999 . S
C138 H108 0.950 . S
C138 C137 1.524 . S
C138 C139 1.415 . S
C139 H109 0.950 . S
C139 C134 1.363 . S
C139 C138 1.415 . S
H140 C137 0.999 . S
H141 C122 0.913 . S
H142 C160 0.951 . S
H143 C162 0.951 . S
H144 C164 0.950 . S
H145 C165 0.950 . S
H146 C167 0.950 . S
H147 C170 0.950 . S
H148 C171 0.950 . S
H149 C173 0.950 . S
H150 C174 0.950 . S
H151 C175 0.951 . S
H152 C177 0.951 . S
H153 C179 0.950 . S
H154 C180 0.950 . S
H155 C182 0.950 . S
H156 C185 0.950 . S
H157 C186 0.950 . S
H158 C188 0.950 . S
H159 C189 0.950 . S
C160 H142 0.951 . S
C160 C161 1.366 . S
C160 C162 1.388 . S
C161 C160 1.366 . S
C161 C165 1.385 . S
C162 H143 0.951 . S
C162 C160 1.388 . S
C162 C163 1.366 . S
C163 C162 1.366 . S
C163 C164 1.414 . S
C163 C166 1.499 . S
C164 H144 0.950 . S
C164 C163 1.414 . S
C164 C165 1.374 . S
C165 H145 0.950 . S
C165 C161 1.385 . S
C165 C164 1.374 . S
C166 C163 1.499 . S
C166 C167 1.373 . S
C166 C168 1.389 . S
C167 H146 0.950 . S
C167 C166 1.373 . S
C167 C183 1.377 . S
C168 C166 1.389 . S
C168 C169 1.524 . S
C168 C182 1.377 . S
C169 C168 1.524 . S
C169 C170 1.397 . S
C169 C174 1.363 . S
C170 H147 0.950 . S
C170 C169 1.397 . S
C170 C171 1.334 . S
C171 H148 0.950 . S
C171 C170 1.334 . S
C171 C172 1.287 . S
C172 C171 1.287 . S
C172 C173 1.524 . S
C172 H191 0.913 . S
C173 H149 0.950 . S
C173 C172 1.524 . S
C173 C174 1.415 . S
C174 H150 0.950 . S
C174 C169 1.363 . S
C174 C173 1.415 . S
C175 H151 0.951 . S
C175 C176 1.366 . S
C175 C177 1.388 . S
C176 C175 1.366 . S
C176 C180 1.385 . S
C177 H152 0.951 . S
C177 C175 1.388 . S
C177 C178 1.366 . S
C178 C177 1.366 . S
C178 C179 1.414 . S
C178 C181 1.499 . S
C179 H153 0.950 . S
C179 C178 1.414 . S
C179 C180 1.374 . S
C180 H154 0.950 . S
C180 C176 1.385 . S
C180 C179 1.374 . S
C181 C178 1.499 . S
C181 C182 1.373 . S
C181 C183 1.389 . S
C182 H155 0.950 . S
C182 C168 1.377 . S
C182 C181 1.373 . S
C183 C167 1.377 . S
C183 C181 1.389 . S
C183 C184 1.524 . S
C184 C183 1.524 . S
C184 C185 1.397 . S
C184 C189 1.363 . S
C185 H156 0.950 . S
C185 C184 1.397 . S
C185 C186 1.334 . S
C186 H157 0.950 . S
C186 C185 1.334 . S
C186 C187 1.287 . S
C187 C186 1.287 . S
C187 C188 1.524 . S
C187 H190 0.999 . S
C188 H158 0.950 . S
C188 C187 1.524 . S
C188 C189 1.415 . S
C189 H159 0.950 . S
C189 C184 1.363 . S
C189 C188 1.415 . S
H190 C187 0.999 . S
H191 C172 0.913 . S
H192 C210 0.951 . S
H193 C212 0.951 . S
H194 C214 0.950 . S
H195 C215 0.950 . S
H196 C217 0.950 . S
H197 C220 0.950 . S
H198 C221 0.950 . S
H199 C223 0.950 . S
H200 C224 0.950 . S
H201 C225 0.951 . S
H202 C227 0.951 . S
H203 C229 0.950 . S
H204 C230 0.950 . S
H205 C232 0.950 . S
H206 C235 0.950 . S
H207 C236 0.950 . S
H208 C238 0.950 . S
H209 C239 0.950 . S
C210 H192 0.951 . S
C210 C211 1.366 . S
C210 C212 1.388 . S
C211 C210 1.366 . S
C211 C215 1.385 . S
C212 H193 0.951 . S
C212 C210 1.388 . S
C212 C213 1.366 . S
C213 C212 1.366 . S
C213 C214 1.414 . S
C213 C216 1.499 . S
C214 H194 0.950 . S
C214 C213 1.414 . S
C214 C215 1.374 . S
C215 H195 0.950 . S
C215 C211 1.385 . S
C215 C214 1.374 . S
C216 C213 1.499 . S
C216 C217 1.373 . S
C216 C218 1.383 1_556 S
C217 H196 0.950 . S
C217 C216 1.373 . S
C217 C233 1.377 . S
C218 C216 1.383 1_554 S
C218 C219 1.526 . S
C218 C232 1.382 . S
C219 C218 1.526 . S
C219 C220 1.397 . S
C219 C224 1.363 . S
C220 H197 0.950 . S
C220 C219 1.397 . S
C220 C221 1.334 . S
C221 H198 0.950 . S
C221 C220 1.334 . S
C221 C222 1.287 . S
C222 C221 1.287 . S
C222 C223 1.524 . S
C222 H241 0.913 . S
C223 H199 0.950 . S
C223 C222 1.524 . S
C223 C224 1.415 . S
C224 H200 0.950 . S
C224 C219 1.363 . S
C224 C223 1.415 . S
C225 H201 0.951 . S
C225 C226 1.366 . S
C225 C227 1.388 . S
C226 C225 1.366 . S
C226 C230 1.385 . S
C227 H202 0.951 . S
C227 C225 1.388 . S
C227 C228 1.366 . S
C228 C227 1.366 . S
C228 C229 1.414 . S
C228 C231 1.499 . S
C229 H203 0.950 . S
C229 C228 1.414 . S
C229 C230 1.374 . S
C230 H204 0.950 . S
C230 C226 1.385 . S
C230 C229 1.374 . S
C231 C228 1.499 . S
C231 C232 1.373 . S
C231 C233 1.389 1_554 S
C232 H205 0.950 . S
C232 C218 1.382 . S
C232 C231 1.373 . S
C233 C217 1.377 . S
C233 C231 1.389 1_556 S
C233 C234 1.524 . S
C234 C233 1.524 . S
C234 C235 1.397 . S
C234 C239 1.363 . S
C235 H206 0.950 . S
C235 C234 1.397 . S
C235 C236 1.334 . S
C236 H207 0.950 . S
C236 C235 1.334 . S
C236 C237 1.287 . S
C237 C236 1.287 . S
C237 C238 1.524 . S
C237 H240 0.999 1_655 S
C238 H208 0.950 . S
C238 C237 1.524 . S
C238 C239 1.415 . S
C239 H209 0.950 . S
C239 C234 1.363 . S
C239 C238 1.415 . S
H240 C237 0.999 1_455 S
H241 C222 0.913 . S
H242 C260 0.951 . S
H243 C262 0.951 . S
H244 C264 0.950 . S
H245 C265 0.950 . S
H246 C267 0.950 . S
H247 C270 0.950 . S
H248 C271 0.950 . S
H249 C273 0.950 . S
H250 C274 0.950 . S
H251 C275 0.951 . S
H252 C277 0.951 . S
H253 C279 0.950 . S
H254 C280 0.950 . S
H255 C282 0.950 . S
H256 C285 0.950 . S
H257 C286 0.950 . S
H258 C288 0.950 . S
H259 C289 0.950 . S
C260 H242 0.951 . S
C260 C261 1.366 . S
C260 C262 1.388 . S
C261 C260 1.366 . S
C261 C265 1.385 . S
C262 H243 0.951 . S
C262 C260 1.388 . S
C262 C263 1.366 . S
C263 C262 1.366 . S
C263 C264 1.414 . S
C263 C266 1.499 . S
C264 H244 0.950 . S
C264 C263 1.414 . S
C264 C265 1.374 . S
C265 H245 0.950 . S
C265 C261 1.385 . S
C265 C264 1.374 . S
C266 C263 1.499 . S
C266 C267 1.373 . S
C266 C268 1.389 . S
C267 H246 0.950 . S
C267 C266 1.373 . S
C267 C283 1.377 . S
C268 C266 1.389 . S
C268 C269 1.524 . S
C268 C282 1.377 . S
C269 C268 1.524 . S
C269 C270 1.397 . S
C269 C274 1.363 . S
C270 H247 0.950 . S
C270 C269 1.397 . S
C270 C271 1.334 . S
C271 H248 0.950 . S
C271 C270 1.334 . S
C271 C272 1.287 . S
C272 C271 1.287 . S
C272 C273 1.524 . S
C272 H291 0.913 . S
C273 H249 0.950 . S
C273 C272 1.524 . S
C273 C274 1.415 . S
C274 H250 0.950 . S
C274 C269 1.363 . S
C274 C273 1.415 . S
C275 H251 0.951 . S
C275 C276 1.366 . S
C275 C277 1.388 . S
C276 C275 1.366 . S
C276 C280 1.385 . S
C277 H252 0.951 . S
C277 C275 1.388 . S
C277 C278 1.366 . S
C278 C277 1.366 . S
C278 C279 1.414 . S
C278 C281 1.499 . S
C279 H253 0.950 . S
C279 C278 1.414 . S
C279 C280 1.374 . S
C280 H254 0.950 . S
C280 C276 1.385 . S
C280 C279 1.374 . S
C281 C278 1.499 . S
C281 C282 1.373 . S
C281 C283 1.389 . S
C282 H255 0.950 . S
C282 C268 1.377 . S
C282 C281 1.373 . S
C283 C267 1.377 . S
C283 C281 1.389 . S
C283 C284 1.524 . S
C284 C283 1.524 . S
C284 C285 1.397 . S
C284 C289 1.363 . S
C285 H256 0.950 . S
C285 C284 1.397 . S
C285 C286 1.334 . S
C286 H257 0.950 . S
C286 C285 1.334 . S
C286 C287 1.287 . S
C287 C286 1.287 . S
C287 C288 1.524 . S
C287 H290 0.999 . S
C288 H258 0.950 . S
C288 C287 1.524 . S
C288 C289 1.415 . S
C289 H259 0.950 . S
C289 C284 1.363 . S
C289 C288 1.415 . S
H290 C287 0.999 . S
H291 C272 0.913 . S
H292 C310 0.951 . S
H293 C312 0.951 . S
H294 C314 0.950 . S
H295 C315 0.950 . S
H296 C317 0.950 . S
H297 C320 0.950 . S
H298 C321 0.950 . S
H299 C323 0.950 . S
H300 C324 0.950 . S
H301 C325 0.951 . S
H302 C327 0.951 . S
H303 C329 0.950 . S
H304 C330 0.950 . S
H305 C332 0.950 . S
H306 C335 0.950 . S
H307 C336 0.950 . S
H308 C338 0.950 . S
H309 C339 0.950 . S
C310 H292 0.951 . S
C310 C311 1.366 . S
C310 C312 1.388 . S
C311 C310 1.366 . S
C311 C315 1.385 . S
C312 H293 0.951 . S
C312 C310 1.388 . S
C312 C313 1.366 . S
C313 C312 1.366 . S
C313 C314 1.414 . S
C313 C316 1.499 . S
C314 H294 0.950 . S
C314 C313 1.414 . S
C314 C315 1.374 . S
C315 H295 0.950 . S
C315 C311 1.385 . S
C315 C314 1.374 . S
C316 C313 1.499 . S
C316 C317 1.373 . S
C316 C318 1.389 . S
C317 H296 0.950 . S
C317 C316 1.373 . S
C317 C333 1.377 . S
C318 C316 1.389 . S
C318 C319 1.524 . S
C318 C332 1.377 . S
C319 C318 1.524 . S
C319 C320 1.397 . S
C319 C324 1.363 . S
C320 H297 0.950 . S
C320 C319 1.397 . S
C320 C321 1.334 . S
C321 H298 0.950 . S
C321 C320 1.334 . S
C321 C322 1.287 . S
C322 C321 1.287 . S
C322 C323 1.524 . S
C322 H341 0.913 . S
C323 H299 0.950 . S
C323 C322 1.524 . S
C323 C324 1.415 . S
C324 H300 0.950 . S
C324 C319 1.363 . S
C324 C323 1.415 . S
C325 H301 0.951 . S
C325 C326 1.366 . S
C325 C327 1.388 . S
C326 C325 1.366 . S
C326 C330 1.385 . S
C327 H302 0.951 . S
C327 C325 1.388 . S
C327 C328 1.366 . S
C328 C327 1.366 . S
C328 C329 1.414 . S
C328 C331 1.499 . S
C329 H303 0.950 . S
C329 C328 1.414 . S
C329 C330 1.374 . S
C330 H304 0.950 . S
C330 C326 1.385 . S
C330 C329 1.374 . S
C331 C328 1.499 . S
C331 C332 1.373 . S
C331 C333 1.389 . S
C332 H305 0.950 . S
C332 C318 1.377 . S
C332 C331 1.373 . S
C333 C317 1.377 . S
C333 C331 1.389 . S
C333 C334 1.524 . S
C334 C333 1.524 . S
C334 C335 1.397 . S
C334 C339 1.363 . S
C335 H306 0.950 . S
C335 C334 1.397 . S
C335 C336 1.334 . S
C336 H307 0.950 . S
C336 C335 1.334 . S
C336 C337 1.287 . S
C337 C336 1.287 . S
C337 C338 1.524 . S
C337 H340 0.999 . S
C338 H308 0.950 . S
C338 C337 1.524 . S
C338 C339 1.415 . S
C339 H309 0.950 . S
C339 C334 1.363 . S
C339 C338 1.415 . S
H340 C337 0.999 . S
H341 C322 0.913 . S
C61 C36 1.687 . S
C76 C9 1.698 . S
C111 C6 1.537 . S
C126 C22 1.529 . S
C161 C21 1.356 . S
C176 C34 1.352 . S
C211 C37 1.687 . S
C226 C8 1.702 . S
C261 C23 1.528 . S
C276 C7 1.536 . S
C311 C35 1.349 . S
C326 C20 1.353 . S
