# Generated by pormake.
# Topology wne, (6)-cn, num edge types: 1
# Building blocks:
#     Node 0, Type 0, BuildingBlock: JUFBIX_clean_sbu_0, # of connection points: 6
#     Node 1, Type 0, BuildingBlock: JUFBIX_clean_sbu_0, # of connection points: 6
#     Node 2, Type 0, BuildingBlock: JUFBIX_clean_sbu_0, # of connection points: 6
#     Node 3, Type 0, BuildingBlock: JUFBIX_clean_sbu_0, # of connection points: 6
#     Node 4, Type 0, BuildingBlock: JUFBIX_clean_sbu_0, # of connection points: 6
#     Node 5, Type 0, BuildingBlock: JUFBIX_clean_sbu_0, # of connection points: 6
#     Node 6, Type 0, BuildingBlock: JUFBIX_clean_sbu_0, # of connection points: 6
#     Node 7, Type 0, BuildingBlock: JUFBIX_clean_sbu_0, # of connection points: 6
#     Node 8, Type 0, BuildingBlock: JUFBIX_clean_sbu_0, # of connection points: 6
#     Node 9, Type 0, BuildingBlock: JUFBIX_clean_sbu_0, # of connection points: 6
#     Node 10, Type 0, BuildingBlock: JUFBIX_clean_sbu_0, # of connection points: 6
#     Node 11, Type 0, BuildingBlock: JUFBIX_clean_sbu_0, # of connection points: 6
#     Node 12, Type 0, BuildingBlock: JUFBIX_clean_sbu_0, # of connection points: 6
#     Node 13, Type 0, BuildingBlock: JUFBIX_clean_sbu_0, # of connection points: 6
#     Node 14, Type 0, BuildingBlock: JUFBIX_clean_sbu_0, # of connection points: 6
#     Node 15, Type 0, BuildingBlock: JUFBIX_clean_sbu_0, # of connection points: 6
#     Node 16, Type 0, BuildingBlock: JUFBIX_clean_sbu_0, # of connection points: 6
#     Node 17, Type 0, BuildingBlock: JUFBIX_clean_sbu_0, # of connection points: 6
#     Node 18, Type 0, BuildingBlock: JUFBIX_clean_sbu_0, # of connection points: 6
#     Node 19, Type 0, BuildingBlock: JUFBIX_clean_sbu_0, # of connection points: 6
#     Node 20, Type 0, BuildingBlock: JUFBIX_clean_sbu_0, # of connection points: 6
#     Node 21, Type 0, BuildingBlock: JUFBIX_clean_sbu_0, # of connection points: 6
#     Node 22, Type 0, BuildingBlock: JUFBIX_clean_sbu_0, # of connection points: 6
#     Node 23, Type 0, BuildingBlock: JUFBIX_clean_sbu_0, # of connection points: 6
#     Node 24, Type 0, BuildingBlock: JUFBIX_clean_sbu_0, # of connection points: 6
#     Node 25, Type 0, BuildingBlock: JUFBIX_clean_sbu_0, # of connection points: 6
#     Node 26, Type 0, BuildingBlock: JUFBIX_clean_sbu_0, # of connection points: 6
#     Node 27, Type 0, BuildingBlock: JUFBIX_clean_sbu_0, # of connection points: 6
#     Node 28, Type 0, BuildingBlock: JUFBIX_clean_sbu_0, # of connection points: 6
#     Node 29, Type 0, BuildingBlock: JUFBIX_clean_sbu_0, # of connection points: 6
#     Node 30, Type 0, BuildingBlock: JUFBIX_clean_sbu_0, # of connection points: 6
#     Node 31, Type 0, BuildingBlock: JUFBIX_clean_sbu_0, # of connection points: 6
#     Node 32, Type 0, BuildingBlock: JUFBIX_clean_sbu_0, # of connection points: 6
#     Node 33, Type 0, BuildingBlock: JUFBIX_clean_sbu_0, # of connection points: 6
#     Node 34, Type 0, BuildingBlock: JUFBIX_clean_sbu_0, # of connection points: 6
#     Node 35, Type 0, BuildingBlock: JUFBIX_clean_sbu_0, # of connection points: 6
#     Edge 36, Type (0, 0), BuildingBlock: OJICUG_clean_linker_0, # of connection points: 2
#     Edge 37, Type (0, 0), BuildingBlock: OJICUG_clean_linker_0, # of connection points: 2
#     Edge 38, Type (0, 0), BuildingBlock: OJICUG_clean_linker_0, # of connection points: 2
#     Edge 39, Type (0, 0), BuildingBlock: OJICUG_clean_linker_0, # of connection points: 2
#     Edge 40, Type (0, 0), BuildingBlock: OJICUG_clean_linker_0, # of connection points: 2
#     Edge 41, Type (0, 0), BuildingBlock: OJICUG_clean_linker_0, # of connection points: 2
#     Edge 42, Type (0, 0), BuildingBlock: OJICUG_clean_linker_0, # of connection points: 2
#     Edge 43, Type (0, 0), BuildingBlock: OJICUG_clean_linker_0, # of connection points: 2
#     Edge 44, Type (0, 0), BuildingBlock: OJICUG_clean_linker_0, # of connection points: 2
#     Edge 45, Type (0, 0), BuildingBlock: OJICUG_clean_linker_0, # of connection points: 2
#     Edge 46, Type (0, 0), BuildingBlock: OJICUG_clean_linker_0, # of connection points: 2
#     Edge 47, Type (0, 0), BuildingBlock: OJICUG_clean_linker_0, # of connection points: 2
#     Edge 48, Type (0, 0), BuildingBlock: OJICUG_clean_linker_0, # of connection points: 2
#     Edge 49, Type (0, 0), BuildingBlock: OJICUG_clean_linker_0, # of connection points: 2
#     Edge 50, Type (0, 0), BuildingBlock: OJICUG_clean_linker_0, # of connection points: 2
#     Edge 51, Type (0, 0), BuildingBlock: OJICUG_clean_linker_0, # of connection points: 2
#     Edge 52, Type (0, 0), BuildingBlock: OJICUG_clean_linker_0, # of connection points: 2
#     Edge 53, Type (0, 0), BuildingBlock: OJICUG_clean_linker_0, # of connection points: 2
#     Edge 54, Type (0, 0), BuildingBlock: OJICUG_clean_linker_0, # of connection points: 2
#     Edge 55, Type (0, 0), BuildingBlock: OJICUG_clean_linker_0, # of connection points: 2
#     Edge 56, Type (0, 0), BuildingBlock: OJICUG_clean_linker_0, # of connection points: 2
#     Edge 57, Type (0, 0), BuildingBlock: OJICUG_clean_linker_0, # of connection points: 2
#     Edge 58, Type (0, 0), BuildingBlock: OJICUG_clean_linker_0, # of connection points: 2
#     Edge 59, Type (0, 0), BuildingBlock: OJICUG_clean_linker_0, # of connection points: 2
#     Edge 60, Type (0, 0), BuildingBlock: OJICUG_clean_linker_0, # of connection points: 2
#     Edge 61, Type (0, 0), BuildingBlock: OJICUG_clean_linker_0, # of connection points: 2
#     Edge 62, Type (0, 0), BuildingBlock: OJICUG_clean_linker_0, # of connection points: 2
#     Edge 63, Type (0, 0), BuildingBlock: OJICUG_clean_linker_0, # of connection points: 2
#     Edge 64, Type (0, 0), BuildingBlock: OJICUG_clean_linker_0, # of connection points: 2
#     Edge 65, Type (0, 0), BuildingBlock: OJICUG_clean_linker_0, # of connection points: 2
#     Edge 66, Type (0, 0), BuildingBlock: OJICUG_clean_linker_0, # of connection points: 2
#     Edge 67, Type (0, 0), BuildingBlock: OJICUG_clean_linker_0, # of connection points: 2
#     Edge 68, Type (0, 0), BuildingBlock: OJICUG_clean_linker_0, # of connection points: 2
#     Edge 69, Type (0, 0), BuildingBlock: OJICUG_clean_linker_0, # of connection points: 2
#     Edge 70, Type (0, 0), BuildingBlock: OJICUG_clean_linker_0, # of connection points: 2
#     Edge 71, Type (0, 0), BuildingBlock: OJICUG_clean_linker_0, # of connection points: 2
#     Edge 72, Type (0, 0), BuildingBlock: OJICUG_clean_linker_0, # of connection points: 2
#     Edge 73, Type (0, 0), BuildingBlock: OJICUG_clean_linker_0, # of connection points: 2
#     Edge 74, Type (0, 0), BuildingBlock: OJICUG_clean_linker_0, # of connection points: 2
#     Edge 75, Type (0, 0), BuildingBlock: OJICUG_clean_linker_0, # of connection points: 2
#     Edge 76, Type (0, 0), BuildingBlock: OJICUG_clean_linker_0, # of connection points: 2
#     Edge 77, Type (0, 0), BuildingBlock: OJICUG_clean_linker_0, # of connection points: 2
#     Edge 78, Type (0, 0), BuildingBlock: OJICUG_clean_linker_0, # of connection points: 2
#     Edge 79, Type (0, 0), BuildingBlock: OJICUG_clean_linker_0, # of connection points: 2
#     Edge 80, Type (0, 0), BuildingBlock: OJICUG_clean_linker_0, # of connection points: 2
#     Edge 81, Type (0, 0), BuildingBlock: OJICUG_clean_linker_0, # of connection points: 2
#     Edge 82, Type (0, 0), BuildingBlock: OJICUG_clean_linker_0, # of connection points: 2
#     Edge 83, Type (0, 0), BuildingBlock: OJICUG_clean_linker_0, # of connection points: 2
#     Edge 84, Type (0, 0), BuildingBlock: OJICUG_clean_linker_0, # of connection points: 2
#     Edge 85, Type (0, 0), BuildingBlock: OJICUG_clean_linker_0, # of connection points: 2
#     Edge 86, Type (0, 0), BuildingBlock: OJICUG_clean_linker_0, # of connection points: 2
#     Edge 87, Type (0, 0), BuildingBlock: OJICUG_clean_linker_0, # of connection points: 2
#     Edge 88, Type (0, 0), BuildingBlock: OJICUG_clean_linker_0, # of connection points: 2
#     Edge 89, Type (0, 0), BuildingBlock: OJICUG_clean_linker_0, # of connection points: 2
#     Edge 90, Type (0, 0), BuildingBlock: OJICUG_clean_linker_0, # of connection points: 2
#     Edge 91, Type (0, 0), BuildingBlock: OJICUG_clean_linker_0, # of connection points: 2
#     Edge 92, Type (0, 0), BuildingBlock: OJICUG_clean_linker_0, # of connection points: 2
#     Edge 93, Type (0, 0), BuildingBlock: OJICUG_clean_linker_0, # of connection points: 2
#     Edge 94, Type (0, 0), BuildingBlock: OJICUG_clean_linker_0, # of connection points: 2
#     Edge 95, Type (0, 0), BuildingBlock: OJICUG_clean_linker_0, # of connection points: 2
#     Edge 96, Type (0, 0), BuildingBlock: OJICUG_clean_linker_0, # of connection points: 2
#     Edge 97, Type (0, 0), BuildingBlock: OJICUG_clean_linker_0, # of connection points: 2
#     Edge 98, Type (0, 0), BuildingBlock: OJICUG_clean_linker_0, # of connection points: 2
#     Edge 99, Type (0, 0), BuildingBlock: OJICUG_clean_linker_0, # of connection points: 2
#     Edge 100, Type (0, 0), BuildingBlock: OJICUG_clean_linker_0, # of connection points: 2
#     Edge 101, Type (0, 0), BuildingBlock: OJICUG_clean_linker_0, # of connection points: 2
#     Edge 102, Type (0, 0), BuildingBlock: OJICUG_clean_linker_0, # of connection points: 2
#     Edge 103, Type (0, 0), BuildingBlock: OJICUG_clean_linker_0, # of connection points: 2
#     Edge 104, Type (0, 0), BuildingBlock: OJICUG_clean_linker_0, # of connection points: 2
#     Edge 105, Type (0, 0), BuildingBlock: OJICUG_clean_linker_0, # of connection points: 2
#     Edge 106, Type (0, 0), BuildingBlock: OJICUG_clean_linker_0, # of connection points: 2
#     Edge 107, Type (0, 0), BuildingBlock: OJICUG_clean_linker_0, # of connection points: 2
#     Edge 108, Type (0, 0), BuildingBlock: OJICUG_clean_linker_0, # of connection points: 2
#     Edge 109, Type (0, 0), BuildingBlock: OJICUG_clean_linker_0, # of connection points: 2
#     Edge 110, Type (0, 0), BuildingBlock: OJICUG_clean_linker_0, # of connection points: 2
#     Edge 111, Type (0, 0), BuildingBlock: OJICUG_clean_linker_0, # of connection points: 2
#     Edge 112, Type (0, 0), BuildingBlock: OJICUG_clean_linker_0, # of connection points: 2
#     Edge 113, Type (0, 0), BuildingBlock: OJICUG_clean_linker_0, # of connection points: 2
#     Edge 114, Type (0, 0), BuildingBlock: OJICUG_clean_linker_0, # of connection points: 2
#     Edge 115, Type (0, 0), BuildingBlock: OJICUG_clean_linker_0, # of connection points: 2
#     Edge 116, Type (0, 0), BuildingBlock: OJICUG_clean_linker_0, # of connection points: 2
#     Edge 117, Type (0, 0), BuildingBlock: OJICUG_clean_linker_0, # of connection points: 2
#     Edge 118, Type (0, 0), BuildingBlock: OJICUG_clean_linker_0, # of connection points: 2
#     Edge 119, Type (0, 0), BuildingBlock: OJICUG_clean_linker_0, # of connection points: 2
#     Edge 120, Type (0, 0), BuildingBlock: OJICUG_clean_linker_0, # of connection points: 2
#     Edge 121, Type (0, 0), BuildingBlock: OJICUG_clean_linker_0, # of connection points: 2
#     Edge 122, Type (0, 0), BuildingBlock: OJICUG_clean_linker_0, # of connection points: 2
#     Edge 123, Type (0, 0), BuildingBlock: OJICUG_clean_linker_0, # of connection points: 2
#     Edge 124, Type (0, 0), BuildingBlock: OJICUG_clean_linker_0, # of connection points: 2
#     Edge 125, Type (0, 0), BuildingBlock: OJICUG_clean_linker_0, # of connection points: 2
#     Edge 126, Type (0, 0), BuildingBlock: OJICUG_clean_linker_0, # of connection points: 2
#     Edge 127, Type (0, 0), BuildingBlock: OJICUG_clean_linker_0, # of connection points: 2
#     Edge 128, Type (0, 0), BuildingBlock: OJICUG_clean_linker_0, # of connection points: 2
#     Edge 129, Type (0, 0), BuildingBlock: OJICUG_clean_linker_0, # of connection points: 2
#     Edge 130, Type (0, 0), BuildingBlock: OJICUG_clean_linker_0, # of connection points: 2
#     Edge 131, Type (0, 0), BuildingBlock: OJICUG_clean_linker_0, # of connection points: 2
#     Edge 132, Type (0, 0), BuildingBlock: OJICUG_clean_linker_0, # of connection points: 2
#     Edge 133, Type (0, 0), BuildingBlock: OJICUG_clean_linker_0, # of connection points: 2
#     Edge 134, Type (0, 0), BuildingBlock: OJICUG_clean_linker_0, # of connection points: 2
#     Edge 135, Type (0, 0), BuildingBlock: OJICUG_clean_linker_0, # of connection points: 2
#     Edge 136, Type (0, 0), BuildingBlock: OJICUG_clean_linker_0, # of connection points: 2
#     Edge 137, Type (0, 0), BuildingBlock: OJICUG_clean_linker_0, # of connection points: 2
#     Edge 138, Type (0, 0), BuildingBlock: OJICUG_clean_linker_0, # of connection points: 2
#     Edge 139, Type (0, 0), BuildingBlock: OJICUG_clean_linker_0, # of connection points: 2
#     Edge 140, Type (0, 0), BuildingBlock: OJICUG_clean_linker_0, # of connection points: 2
#     Edge 141, Type (0, 0), BuildingBlock: OJICUG_clean_linker_0, # of connection points: 2
#     Edge 142, Type (0, 0), BuildingBlock: OJICUG_clean_linker_0, # of connection points: 2
#     Edge 143, Type (0, 0), BuildingBlock: OJICUG_clean_linker_0, # of connection points: 2
# Relax obj value: 0.307
# Max RMSD: 0.218
# Mean RMSD: 0.218
data_MOF--net-wne--node1-JUFBIX_clean_sbu_0--edge1-OJICUG_clean_linker_0
_symmetry_space_group_name_H-M    P1
_symmetry_Int_Tables_number       1
_symmetry_cell_setting            triclinic
loop_
_symmetry_equiv_pos_as_xyz
'x, y, z'
_cell_length_a     53.967432
_cell_length_b     53.96956
_cell_length_c     27.63453
_cell_angle_alpha  90.045089
_cell_angle_beta   89.913338
_cell_angle_gamma 119.98764
loop_
_atom_site_label
_atom_site_type_symbol
_atom_site_fract_x
_atom_site_fract_y
_atom_site_fract_z
_atom_type_partial_charge
Co0 Co 0.26185 0.23479 0.07943 0.0
C1 C 0.31511 0.25633 1.0261 0.0
Co2 Co 0.29896 0.24145 0.1231 0.0
C3 C 0.20926 0.23729 0.05196 0.0
C4 C 0.22476 0.2213 0.99573 0.0
N5 N 0.22973 0.2301 0.04219 0.0
N6 N 0.19215 0.2336 1.01318 0.0
C7 C 0.20211 0.22361 0.97793 0.0
H8 H 0.20778 0.24633 0.08609 0.0
H9 H 0.23743 0.21447 0.97541 0.0
C10 C 0.25079 0.22321 0.1819 0.0
N11 N 0.32963 0.24765 0.15937 0.0
C12 C 0.34481 0.23468 0.15102 0.0
C13 C 0.33652 0.25822 0.20464 0.0
N14 N 0.35902 0.23431 0.19051 0.0
C15 C 0.35451 0.24973 0.22417 0.0
C16 C 0.29319 0.28916 0.11656 0.0
O17 O 0.23859 0.22405 0.14224 0.0
O18 O 0.2764 0.22873 0.17932 0.0
O19 O 0.30756 0.27912 0.13611 0.0
O20 O 0.27218 0.27332 0.0896 0.0
O21 O 0.32322 0.25486 0.06838 0.0
H22 H 0.32623 0.26801 0.22417 0.0
H23 H 0.34159 0.22152 0.11942 0.0
O24 O 0.2882 0.24747 1.01999 0.0
O25 O 0.25166 0.19476 0.06793 0.0
O26 O 0.2895 0.20253 0.1093 0.0
C27 C 0.26777 0.18553 0.08421 0.0
H28 H 0.19382 0.21871 0.94139 0.0
H29 H 0.36035 0.25121 0.26197 0.0
Co30 Co 0.80957 0.03385 0.07749 0.0
C31 C 0.78788 0.06508 1.02317 0.0
Co32 Co 0.80206 0.06382 0.12076 0.0
C33 C 0.80731 0.97899 0.05032 0.0
C34 C 0.82539 1.01119 0.99545 0.0
N35 N 0.81495 1.00677 0.0409 0.0
N36 N 0.81228 0.96601 1.01222 0.0
C37 C 0.82367 0.98644 0.97785 0.0
H38 H 0.79716 0.96813 0.08369 0.0
H39 H 0.83312 0.03101 0.97572 0.0
C40 C 0.82033 0.03434 0.18062 0.0
N41 N 0.79538 0.08826 0.15603 0.0
C42 C 0.80725 0.11585 0.14417 0.0
C43 C 0.78809 0.08662 0.20304 0.0
N44 N 0.81124 0.13227 0.18305 0.0
C45 C 0.79805 0.11393 0.21994 0.0
C46 C 0.75475 1.01037 0.11296 0.0
O47 O 0.82018 0.02154 0.14097 0.0
O48 O 0.81422 0.05399 0.17768 0.0
O49 O 0.76415 0.03469 0.13251 0.0
O50 O 0.77111 1.00543 0.08694 0.0
O51 O 0.78914 0.07456 0.06542 0.0
H52 H 0.78021 0.0676 0.22511 0.0
H53 H 0.81721 0.12409 0.10937 0.0
O54 O 0.79699 0.0472 1.01722 0.0
O55 O 0.84949 0.0638 0.06644 0.0
O56 O 0.84144 0.09362 0.10808 0.0
C57 C 0.85862 0.08901 0.08308 0.0
H58 H 0.83008 0.98361 0.94207 0.0
H59 H 0.79969 0.11988 0.25773 0.0
Co60 Co 1.00937 0.78257 0.08303 0.0
C61 C 0.97772 0.72914 1.03044 0.0
Co62 Co 0.97958 0.74561 0.12767 0.0
C63 C 0.06387 0.83529 0.05535 0.0
C64 C 0.03242 0.8197 0.99917 0.0
N65 N 0.03634 0.81464 0.04551 0.0
N66 N 0.07713 0.85262 1.01674 0.0
C67 C 0.05724 0.84262 0.98149 0.0
H68 H 0.07441 0.83674 0.08938 0.0
H69 H 1.01296 0.80692 0.97888 0.0
C70 C 1.00956 0.79406 0.18547 0.0
N71 N 0.95536 0.71497 0.16441 0.0
C72 C 0.92733 0.69931 0.15551 0.0
C73 C 0.95878 0.70861 0.21018 0.0
N74 N 0.91249 0.6853 0.195 0.0
C75 C 0.93221 0.69047 0.22937 0.0
C76 C 0.03317 0.75197 0.11982 0.0
O77 O 1.02224 0.80602 0.14544 0.0
O78 O 0.98952 0.76841 0.18363 0.0
O79 O 1.00907 0.73745 0.14038 0.0
O80 O 0.0377 0.77256 0.09232 0.0
O81 O 0.96868 0.72112 0.07306 0.0
H82 H 0.97866 0.71938 0.23015 0.0
H83 H 0.91754 0.7021 0.12333 0.0
O84 O 0.99542 0.75609 1.02383 0.0
O85 O 0.97954 0.79253 0.07232 0.0
O86 O 0.94979 0.75472 0.11417 0.0
C87 C 0.95434 0.77638 0.08898 0.0
H88 H 0.06058 0.85103 0.94503 0.0
H89 H 0.92755 0.68497 0.26727 0.0
Co90 Co 0.24565 0.25188 0.48719 0.0
C91 C 0.2674 0.30519 0.53976 0.0
Co92 Co 0.25324 0.28881 0.44242 0.0
C93 C 0.24751 0.19938 0.51522 0.0
C94 C 0.23138 0.21495 0.57114 0.0
N95 N 0.24044 0.21991 0.5248 0.0
N96 N 0.24351 0.18223 0.554 0.0
C97 C 0.23343 0.19218 0.5891 0.0
H98 H 0.25671 0.1979 0.48125 0.0
H99 H 0.22456 0.22769 0.59126 0.0
C100 C 0.23464 0.2404 0.38454 0.0
N101 N 0.25982 0.31953 0.40606 0.0
C102 C 0.2482 0.33555 0.41755 0.0
C103 C 0.26663 0.32447 0.35878 0.0
N104 N 0.24388 0.34747 0.37832 0.0
C105 C 0.2566 0.34167 0.34144 0.0
C106 C 0.30036 0.28258 0.45082 0.0
O107 O 0.2352 0.22836 0.42457 0.0
O108 O 0.24052 0.26611 0.38648 0.0
O109 O 0.29088 0.29704 0.42988 0.0
O110 O 0.28416 0.262 0.47825 0.0
O111 O 0.26671 0.31319 0.49708 0.0
H112 H 0.27418 0.31291 0.33698 0.0
H113 H 0.23859 0.33437 0.4525 0.0
O114 O 0.25792 0.27823 0.5465 0.0
O115 O 0.20576 0.24186 0.49762 0.0
O116 O 0.21413 0.27967 0.45552 0.0
C117 C 0.19682 0.25797 0.48051 0.0
H118 H 0.22832 0.18383 0.6256 0.0
H119 H 0.25458 0.34544 0.30354 0.0
Co120 Co 0.79361 1.00306 0.48753 0.0
C121 C 0.74032 0.97161 0.54067 0.0
Co122 Co 0.75679 0.97289 0.44345 0.0
C123 C 0.84609 0.05811 0.51482 0.0
C124 C 0.83116 0.0264 0.5706 0.0
N125 N 0.82574 0.03042 0.52456 0.0
N126 N 0.86358 0.07139 0.55327 0.0
C127 C 0.85401 0.05127 0.5882 0.0
H128 H 0.84729 0.06868 0.48091 0.0
H129 H 0.81876 1.00677 0.59071 0.0
C130 C 0.80483 1.00253 0.38459 0.0
N131 N 0.72607 0.94844 0.40765 0.0
C132 C 0.71017 0.92085 0.41932 0.0
C133 C 0.72073 0.95024 0.36058 0.0
N134 N 0.69787 0.90456 0.38028 0.0
C135 C 0.70335 0.923 0.34345 0.0
C136 C 0.7625 0.02622 0.45011 0.0
O137 O 0.81693 1.01564 0.42431 0.0
O138 O 0.77931 0.98237 0.38722 0.0
O139 O 0.74833 1.00198 0.42998 0.0
O140 O 0.78326 0.03124 0.47757 0.0
O141 O 0.73249 0.9624 0.49818 0.0
H142 H 0.73204 0.96932 0.33869 0.0
H143 H 0.7116 0.91248 0.45414 0.0
O144 O 0.76724 0.98942 0.54727 0.0
O145 O 0.80385 0.97327 0.49904 0.0
O146 O 0.7661 0.94315 0.45753 0.0
C147 C 0.78784 0.94795 0.48273 0.0
H148 H 0.86279 0.05438 0.62435 0.0
H149 H 0.69921 0.91714 0.30562 0.0
Co150 Co 0.04453 0.80121 0.48982 0.0
C151 C 0.0762 0.77978 0.54361 0.0
Co152 Co 0.07448 0.7936 0.44633 0.0
C153 C 0.99019 0.79989 0.51696 0.0
C154 C 1.02163 0.81598 0.57314 0.0
N155 N 1.0177 0.80677 0.52692 0.0
N156 N 0.97694 0.80417 0.55539 0.0
C157 C 0.99683 0.81422 0.59064 0.0
H158 H 0.97963 0.79061 0.483 0.0
H159 H 0.04108 0.8227 0.5935 0.0
C160 C 0.04432 0.81151 0.38726 0.0
N161 N 0.09844 0.7866 0.41001 0.0
C162 C 0.12655 0.79912 0.41819 0.0
C163 C 0.09451 0.77561 0.36501 0.0
N164 N 0.14094 0.7988 0.37884 0.0
C165 C 0.12085 0.78341 0.34544 0.0
C166 C 1.02088 0.74633 0.45539 0.0
O167 O 0.03198 0.81175 0.42716 0.0
O168 O 0.06389 0.80523 0.38958 0.0
O169 O 0.04524 0.75557 0.43606 0.0
O170 O 1.01589 0.76286 0.48078 0.0
O171 O 0.08594 0.78123 0.50143 0.0
H172 H 0.07442 0.76599 0.34563 0.0
H173 H 0.13669 0.81251 0.44947 0.0
O174 O 0.05808 0.78859 0.54948 0.0
O175 O 0.07474 0.84105 0.50031 0.0
O176 O 0.10422 0.83284 0.45781 0.0
C177 C 0.09983 0.85007 0.48309 0.0
H178 H 0.99348 0.81948 0.62699 0.0
H179 H 0.12511 0.78152 0.30771 0.0
Co180 Co 0.75534 0.79245 0.94586 0.0
C181 C 0.80362 0.80963 0.88711 0.0
Co182 Co 0.79234 0.79886 0.98932 0.0
C183 C 0.71021 0.79972 0.91898 0.0
C184 C 0.71971 0.77866 0.86244 0.0
N185 N 0.72497 0.78652 0.90928 0.0
N186 N 0.69893 0.80394 0.87884 0.0
C187 C 0.7037 0.78962 0.8434 0.0
H188 H 0.71196 0.81036 0.95308 0.0
H189 H 0.73042 0.76968 0.84187 0.0
C190 C 0.73897 0.77831 0.04254 0.0
N191 N 0.82396 0.80336 1.02707 0.0
C192 C 0.84449 0.79629 1.0174 0.0
C193 C 0.82856 0.81182 0.07372 0.0
N194 N 0.86126 0.79971 0.05644 0.0
C195 C 0.85109 0.80941 0.09177 0.0
C196 C 0.78762 0.84871 0.98285 0.0
O197 O 0.73123 0.78063 1.0005 0.0
O198 O 0.76565 0.78619 0.04861 0.0
O199 O 0.80284 0.83889 1.00074 0.0
O200 O 0.76606 0.83205 0.95711 0.0
O201 O 0.816 0.80955 0.92699 0.0
H202 H 0.81574 0.81851 0.09394 0.0
H203 H 0.84625 0.78755 0.98314 0.0
O204 O 0.77786 0.80359 0.88947 0.0
O205 O 0.74532 0.75429 0.93569 0.0
O206 O 0.78184 0.76027 0.97927 0.0
C207 C 0.75988 0.74426 0.95441 0.0
H208 H 0.70012 0.79101 0.8052 0.0
H209 H 0.85917 0.81408 0.12846 0.0
Co210 Co 0.24974 0.9676 0.94524 0.0
C211 C 0.23319 0.9988 0.88556 0.0
Co212 Co 0.24482 0.99955 0.98772 0.0
C213 C 0.24099 0.91409 0.91871 0.0
C214 C 0.26459 0.94491 0.86378 0.0
N215 N 0.25479 0.94216 0.90948 0.0
N216 N 0.23924 0.89875 0.8794 0.0
C217 C 0.25472 0.91801 0.8449 0.0
H218 H 0.22812 0.90491 0.95089 0.0
H219 H 0.27468 0.96473 0.84357 0.0
C220 C 0.26503 0.96705 0.04219 0.0
N221 N 0.24103 0.02764 1.02445 0.0
C222 C 0.24814 0.05517 1.01398 0.0
C223 C 0.23254 0.02427 0.07108 0.0
N224 N 0.24468 0.06894 0.05251 0.0
C225 C 0.23495 0.04939 0.08832 0.0
C226 C 0.19425 0.94492 0.98404 0.0
O227 O 0.26241 0.95627 1.00052 0.0
O228 O 0.25736 0.98606 0.04737 0.0
O229 O 0.20437 0.97042 1.00027 0.0
O230 O 0.21062 0.93937 0.95882 0.0
O231 O 0.2343 1.01206 0.92509 0.0
H232 H 0.22572 1.00494 0.09183 0.0
H233 H 0.25683 0.0653 0.97947 0.0
O234 O 0.23786 0.97813 0.88841 0.0
O235 O 0.28757 0.99527 0.93242 0.0
O236 O 0.28377 0.02704 0.97622 0.0
C237 C 0.29883 0.02021 0.95022 0.0
H238 H 0.25527 0.91304 0.80707 0.0
H239 H 0.23023 0.05314 0.12479 0.0
Co240 Co 0.07543 0.28998 0.94259 0.0
C241 C 0.0448 0.2423 0.8821 0.0
Co242 Co 0.04411 0.25241 0.98464 0.0
C243 C 0.12816 0.33554 0.91502 0.0
C244 C 0.09652 0.32804 0.86164 0.0
N245 N 0.10003 0.32079 0.90672 0.0
N246 N 0.14289 0.34972 0.87559 0.0
C247 C 0.12309 0.34573 0.84208 0.0
H248 H 0.13791 0.33185 0.94638 0.0
H249 H 0.07646 0.31809 0.84214 0.0
C250 C 0.07646 0.30546 0.03952 0.0
N251 N 1.01656 0.22012 1.02157 0.0
C252 C 0.98874 0.1999 1.01228 0.0
C253 C 1.02074 0.21461 0.06748 0.0
N254 N 0.97555 0.18245 0.0509 0.0
C255 C 0.99587 0.19189 0.08544 0.0
C256 C 0.09932 0.25771 0.97955 0.0
O257 O 0.0872 0.31357 0.99788 0.0
O258 O 0.05745 0.27872 0.04469 0.0
O259 O 0.074 0.24215 0.99642 0.0
O260 O 0.10433 0.27941 0.95405 0.0
O261 O 0.03197 0.22943 0.92157 0.0
H262 H 0.04048 0.2269 0.08729 0.0
H263 H 0.97801 0.1988 0.97862 0.0
O264 O 0.06455 0.26802 0.88539 0.0
O265 O 0.04713 0.29993 0.93256 0.0
O266 O 1.01588 0.26273 0.97416 0.0
C267 C 1.02225 0.28513 0.95021 0.0
H268 H 0.12755 0.35162 0.80429 0.0
H269 H 0.99288 0.18312 0.1216 0.0
Co270 Co 0.8037 0.7466 0.62276 0.0
C271 C 0.82 0.79401 0.68362 0.0
Co272 Co 0.8095 0.78418 0.58121 0.0
C273 C 0.81198 0.70164 0.6501 0.0
C274 C 0.78694 0.70817 0.7032 0.0
N275 N 0.79798 0.71582 0.6583 0.0
N276 N 0.81247 0.68733 0.68937 0.0
C277 C 0.79617 0.69077 0.72272 0.0
H278 H 0.82568 0.70568 0.61892 0.0
H279 H 0.77629 0.71763 0.72261 0.0
C280 C 0.78971 0.73151 0.52572 0.0
N281 N 0.81402 0.81648 0.54458 0.0
C282 C 0.8064 0.83668 0.55394 0.0
C283 C 0.82401 0.82218 0.49882 0.0
N284 N 0.81095 0.85432 0.51549 0.0
C285 C 0.82203 0.84499 0.481 0.0
C286 C 0.85979 0.77964 0.58655 0.0
O287 O 0.79248 0.72329 0.56715 0.0
O288 O 0.79699 0.75816 0.52097 0.0
O289 O 0.84983 0.79497 0.56953 0.0
O290 O 0.8432 0.7578 0.61174 0.0
O291 O 0.81996 0.80692 0.64432 0.0
H292 H 0.83165 0.81 0.47904 0.0
H293 H 0.79661 0.8377 0.58754 0.0
O294 O 0.81422 0.76834 0.68016 0.0
O295 O 0.76532 0.736 0.63248 0.0
O296 O 0.77065 0.77324 0.59174 0.0
C297 C 0.75482 0.75047 0.61508 0.0
H298 H 0.79443 0.68456 0.76037 0.0
H299 H 0.82808 0.85393 0.44498 0.0
Co300 Co 0.29951 0.06566 0.62546 0.0
C301 C 0.25114 0.03465 0.68353 0.0
Co302 Co 0.26282 0.03509 0.58116 0.0
C303 C 0.3446 0.11856 0.65349 0.0
C304 C 0.33615 0.08726 0.70812 0.0
N305 N 0.32982 0.09044 0.66221 0.0
N306 N 0.35787 0.13356 0.69324 0.0
C307 C 0.35329 0.11398 0.72759 0.0
H308 H 0.34153 0.12808 0.62121 0.0
H309 H 0.32586 0.06732 0.728 0.0
C310 C 0.31617 0.06758 0.52842 0.0
N311 N 0.23115 1.00762 0.54346 0.0
C312 C 0.2105 0.9801 0.55345 0.0
C313 C 0.22659 1.01118 0.49666 0.0
N314 N 0.1937 0.96651 0.51449 0.0
C315 C 0.204 0.98618 0.47887 0.0
C316 C 0.26769 0.08966 0.58661 0.0
O317 O 0.3241 0.07708 0.57083 0.0
O318 O 0.28936 0.04932 0.52208 0.0
O319 O 0.252 0.06439 0.56991 0.0
O320 O 0.28942 0.09465 0.61191 0.0
O321 O 0.23929 0.02187 0.64353 0.0
H322 H 0.23946 0.03055 0.47616 0.0
H323 H 0.20864 0.96982 0.58795 0.0
O324 O 0.27658 0.05513 0.68151 0.0
O325 O 0.30869 0.03702 0.63825 0.0
O326 O 0.27368 1.00736 0.59112 0.0
C327 C 0.29462 1.01268 0.61834 0.0
H328 H 0.35839 0.11866 0.76557 0.0
H329 H 0.19594 0.98261 0.44217 0.0
Co330 Co 0.98259 0.24478 0.62017 0.0
C331 C 1.01247 0.2265 0.67856 0.0
Co332 Co 1.01219 0.23737 0.57559 0.0
C333 C 0.93064 0.23939 0.64511 0.0
C334 C 0.96019 0.25822 0.70358 0.0
N335 N 0.95832 0.25134 0.65634 0.0
N336 N 0.91441 0.23486 0.68451 0.0
C337 C 0.93296 0.24787 0.72118 0.0
H338 H 0.92225 0.22971 0.61022 0.0
H339 H 0.97936 0.26601 0.72521 0.0
C340 C 0.98056 0.25901 0.5227 0.0
N341 N 0.0392 0.23221 0.53826 0.0
C342 C 0.06684 0.23942 0.54786 0.0
C343 C 0.03506 0.22265 0.49226 0.0
N344 N 0.08001 0.23504 0.50938 0.0
C345 C 0.05985 0.22448 0.47454 0.0
C346 C 0.95727 0.18834 0.58228 0.0
O347 O 0.97168 0.25808 0.56536 0.0
O348 O 0.99818 0.24966 0.51596 0.0
O349 O 0.98238 0.1974 0.5652 0.0
O350 O 0.95275 0.20557 0.60728 0.0
O351 O 1.02517 0.22703 0.63857 0.0
H352 H 1.01542 0.21547 0.47227 0.0
H353 H 0.07749 0.24885 0.58169 0.0
O354 O 0.99256 0.23225 0.67638 0.0
O355 O 1.01183 0.28249 0.63238 0.0
O356 O 0.04044 0.27587 0.58442 0.0
C357 C 0.03583 0.29203 0.61158 0.0
H358 H 0.92725 0.24583 0.75914 0.0
H359 H 0.06289 0.21871 0.43839 0.0
Co360 Co 0.92871 0.57105 0.41649 0.0
C361 C 0.98221 0.59198 0.36402 0.0
Co362 Co 0.96528 0.57655 0.46052 0.0
C363 C 0.87624 0.57371 0.38869 0.0
C364 C 0.89272 0.55914 0.3318 0.0
N365 N 0.89708 0.56708 0.37871 0.0
N366 N 0.8595 0.5705 0.3496 0.0
C367 C 0.87007 0.56141 0.31395 0.0
H368 H 0.87415 0.58191 0.42329 0.0
H369 H 0.90574 0.5528 0.31129 0.0
C370 C 0.91682 0.55905 0.51845 0.0
N371 N 0.99541 0.58181 0.49739 0.0
C372 C 1.01017 0.56845 0.48857 0.0
C373 C 1.00171 0.59126 0.54337 0.0
N374 N 1.02343 0.56669 0.52829 0.0
C375 C 1.01882 0.58164 0.56276 0.0
C376 C 0.96087 0.62509 0.45446 0.0
O377 O 0.905 0.56026 0.47862 0.0
O378 O 0.94228 0.56407 0.51633 0.0
O379 O 0.97469 0.61435 0.47367 0.0
O380 O 0.93965 0.60973 0.42748 0.0
O381 O 0.98993 0.58975 0.40621 0.0
H382 H 0.99146 0.60094 0.5633 0.0
H383 H 1.00714 0.55592 0.45619 0.0
O384 O 0.95548 0.58383 0.35766 0.0
O385 O 0.91791 0.53086 0.40427 0.0
O386 O 0.95505 0.53754 0.44657 0.0
C387 C 0.93342 0.52103 0.4209 0.0
H388 H 0.86214 0.55701 0.27716 0.0
H389 H 1.02397 0.58206 0.60072 0.0
Co390 Co 0.47583 0.36804 0.41127 0.0
C391 C 0.45415 0.39955 0.35839 0.0
Co392 Co 0.46817 0.3975 0.4558 0.0
C393 C 0.47451 0.3138 0.38401 0.0
C394 C 0.49012 0.345 0.32738 0.0
N395 N 0.4814 0.3413 0.3739 0.0
N396 N 0.47829 0.30033 0.34542 0.0
C397 C 0.48805 0.32006 0.30988 0.0
H398 H 0.46554 0.3034 0.41823 0.0
H399 H 0.49664 0.36435 0.30681 0.0
C400 C 0.48633 0.36754 0.51407 0.0
N401 N 0.46078 0.42101 0.49248 0.0
C402 C 0.47286 0.44911 0.48471 0.0
C403 C 0.44953 0.4166 0.53736 0.0
N404 N 0.47205 0.46309 0.52427 0.0
C405 C 0.45674 0.44269 0.55731 0.0
C406 C 0.42111 0.34376 0.44675 0.0
O407 O 0.48597 0.355 0.47405 0.0
O408 O 0.48066 0.38753 0.51202 0.0
O409 O 0.43051 0.36771 0.46759 0.0
O410 O 0.43742 0.33941 0.41954 0.0
O411 O 0.45488 0.40846 0.40101 0.0
H412 H 0.44012 0.3964 0.55642 0.0
H413 H 0.4863 0.4596 0.45361 0.0
O414 O 0.46365 0.38205 0.35184 0.0
O415 O 0.51579 0.39829 0.40146 0.0
O416 O 0.50717 0.42775 0.4432 0.0
C417 C 0.5246 0.42344 0.4183 0.0
H418 H 0.49291 0.31653 0.27336 0.0
H419 H 0.45458 0.44662 0.59509 0.0
Co420 Co 0.67857 0.11801 0.41054 0.0
C421 C 0.64726 0.0651 0.35632 0.0
Co422 Co 0.64887 0.08062 0.45417 0.0
C423 C 0.73333 0.17061 0.38326 0.0
C424 C 0.70128 0.1562 0.32816 0.0
N425 N 0.70558 0.15041 0.37382 0.0
N426 N 0.7464 0.18834 0.34498 0.0
C427 C 0.72607 0.17912 0.31046 0.0
H428 H 0.74412 0.17149 0.41675 0.0
H429 H 0.68153 0.14397 0.30835 0.0
C430 C 0.67838 0.12835 0.51386 0.0
N431 N 0.62452 0.04951 0.48952 0.0
C432 C 0.5969 0.03369 0.47791 0.0
C433 C 0.62633 0.04378 0.53639 0.0
N434 N 0.58062 0.02104 0.51685 0.0
C435 C 0.59909 0.02625 0.55349 0.0
C436 C 0.70231 0.08692 0.44577 0.0
O437 O 0.69119 0.14088 0.47415 0.0
O438 O 0.65858 0.10265 0.51101 0.0
O439 O 0.67818 0.07212 0.46605 0.0
O440 O 0.70692 0.10789 0.4192 0.0
O441 O 0.6382 0.05684 0.39877 0.0
H442 H 0.64542 0.05495 0.55828 0.0
H443 H 0.58851 0.03543 0.44331 0.0
O444 O 0.66488 0.09212 0.35025 0.0
O445 O 0.64873 0.12809 0.40034 0.0
O446 O 0.61897 0.09001 0.44159 0.0
C447 C 0.62355 0.11192 0.41703 0.0
H448 H 0.72902 0.18816 0.27453 0.0
H449 H 0.59325 0.02178 0.5913 0.0
Co450 Co 0.91037 0.58556 0.82453 0.0
C451 C 0.93179 0.63763 0.87981 0.0
Co452 Co 0.91811 0.62323 0.78137 0.0
C453 C 0.91641 0.53548 0.85418 0.0
C454 C 0.88288 0.53735 0.89222 0.0
N455 N 0.90362 0.55175 0.85912 0.0
N456 N 0.90419 0.51155 0.88233 0.0
C457 C 0.88306 0.51285 0.9061 0.0
H458 H 0.93385 0.54062 0.82933 0.0
H459 H 0.86815 0.54396 0.90515 0.0
C460 C 0.9 0.57617 0.72095 0.0
N461 N 0.92596 0.65498 0.74668 0.0
C462 C 0.91354 0.67068 0.75496 0.0
C463 C 0.93781 0.66272 0.70234 0.0
N464 N 0.9147 0.68608 0.71608 0.0
C465 C 0.93065 0.6818 0.68316 0.0
C466 C 0.96514 0.61618 0.78952 0.0
O467 O 0.90048 0.56362 0.7604 0.0
O468 O 0.90566 0.60181 0.72397 0.0
O469 O 0.9557 0.63089 0.76935 0.0
O470 O 0.94887 0.59533 0.81642 0.0
O471 O 0.93125 0.64627 0.83747 0.0
H472 H 0.94759 0.65239 0.68291 0.0
H473 H 0.89965 0.6671 0.78569 0.0
O474 O 0.92217 0.61051 0.88556 0.0
O475 O 0.87047 0.57615 0.83384 0.0
O476 O 0.87931 0.61478 0.79404 0.0
C477 C 0.86179 0.59277 0.81811 0.0
H478 H 0.86875 0.4972 0.93208 0.0
H479 H 0.93329 0.68855 0.6457 0.0
Co480 Co 0.45843 0.33345 0.81998 0.0
C481 C 0.40636 0.30238 0.87514 0.0
Co482 Co 0.42081 0.30357 0.77666 0.0
C483 C 0.50793 0.38947 0.85169 0.0
C484 C 0.50659 0.3537 0.88735 0.0
N485 N 0.49204 0.36033 0.85509 0.0
N486 N 0.53177 0.40095 0.87994 0.0
C487 C 0.53084 0.3783 0.90219 0.0
H488 H 0.50259 0.40203 0.82788 0.0
H489 H 0.50026 0.33223 0.89911 0.0
C490 C 0.46803 0.33305 0.71636 0.0
N491 N 0.38917 0.27963 0.74183 0.0
C492 C 0.37325 0.25166 0.75107 0.0
C493 C 0.38174 0.28322 0.69695 0.0
N494 N 0.35804 0.23694 0.71237 0.0
C495 C 0.36267 0.25676 0.67846 0.0
C496 C 0.42741 0.35746 0.78606 0.0
O497 O 0.48054 0.34582 0.756 0.0
O498 O 0.44235 0.31312 0.71916 0.0
O499 O 0.41267 0.33335 0.76575 0.0
O500 O 0.44849 0.36211 0.81234 0.0
O501 O 0.39776 0.29319 0.8328 0.0
H502 H 0.39232 0.30305 0.67681 0.0
H503 H 0.37666 0.24171 0.78246 0.0
O504 O 0.43342 0.32005 0.88085 0.0
O505 O 0.46795 0.30303 0.82885 0.0
O506 O 0.42962 0.27326 0.78846 0.0
C507 C 0.45155 0.27778 0.81278 0.0
H508 H 0.54657 0.37946 0.92776 0.0
H509 H 0.35623 0.25216 0.64092 0.0
Co510 Co 0.70977 0.1326 0.82075 0.0
C511 C 0.74088 0.11045 0.87395 0.0
Co512 Co 0.73947 0.12515 0.77652 0.0
C513 C 0.65507 0.13073 0.84816 0.0
C514 C 0.68659 0.14684 0.90421 0.0
N515 N 0.68266 0.13777 0.8579 0.0
N516 N 0.64179 0.13478 0.88682 0.0
C517 C 0.66174 0.14485 0.92197 0.0
H518 H 0.6445 0.12153 0.81417 0.0
H519 H 0.70609 0.15365 0.92445 0.0
C520 C 0.71023 0.14402 0.71773 0.0
N521 N 0.76381 0.11854 0.74071 0.0
C522 C 0.79138 0.1301 0.75256 0.0
C523 C 0.76222 0.11182 0.69344 0.0
N524 N 0.80786 0.13455 0.71354 0.0
C525 C 0.78954 0.12187 0.67646 0.0
C526 C 0.68594 0.07811 0.78372 0.0
O527 O 0.69726 0.14332 0.75752 0.0
O528 O 0.73012 0.13824 0.72027 0.0
O529 O 0.71006 0.08768 0.76327 0.0
O530 O 0.68138 0.09419 0.8112 0.0
O531 O 0.7498 0.1113 0.83135 0.0
H532 H 0.74325 0.10434 0.67138 0.0
H533 H 0.79957 0.13956 0.78765 0.0
O534 O 0.72339 0.11998 0.88051 0.0
O535 O 0.73971 0.17246 0.8318 0.0
O536 O 0.76946 0.16413 0.79039 0.0
C537 C 0.76494 0.18138 0.81536 0.0
H538 H 0.65842 0.15 0.95841 0.0
H539 H 0.79552 0.12397 0.63862 0.0
Co540 Co 0.42256 0.1267 0.27977 0.0
C541 C 0.47017 0.14401 0.21963 0.0
Co542 Co 0.46022 0.13403 0.3225 0.0
C543 C 0.37621 0.13278 0.25271 0.0
C544 C 0.38402 0.10875 0.1994 0.0
N545 N 0.39149 0.11995 0.24419 0.0
N546 N 0.36127 0.13239 0.21373 0.0
C547 C 0.36552 0.1167 0.18026 0.0
H548 H 0.37981 0.14637 0.28386 0.0
H549 H 0.39416 0.09883 0.17981 0.0
C550 C 0.40749 0.11336 0.37741 0.0
N551 N 0.49268 0.13929 0.35908 0.0
C552 C 0.51281 0.13163 0.34939 0.0
C553 C 0.49846 0.14919 0.40487 0.0
N554 N 0.53048 0.13605 0.38763 0.0
C555 C 0.52129 0.14709 0.42239 0.0
C556 C 0.45441 0.18328 0.31576 0.0
O557 O 0.39906 0.11471 0.33535 0.0
O558 O 0.43439 0.12194 0.3828 0.0
O559 O 0.47037 0.17408 0.33272 0.0
O560 O 0.43254 0.16608 0.29108 0.0
O561 O 0.48293 0.14415 0.25921 0.0
H562 H 0.48627 0.1567 0.42492 0.0
H563 H 0.51366 0.12179 0.31575 0.0
O564 O 0.44441 0.13798 0.22259 0.0
O565 O 0.41331 0.08854 0.26954 0.0
O566 O 0.44999 0.09547 0.31361 0.0
C567 C 0.4283 0.07907 0.28851 0.0
H568 H 0.35909 0.11466 0.1427 0.0
H569 H 0.53026 0.15297 0.45838 0.0
Co570 Co 0.91962 0.30714 0.27708 0.0
C571 C 0.90109 0.33663 0.21843 0.0
Co572 Co 0.91206 0.3367 0.32141 0.0
C573 C 0.91476 0.25537 0.25245 0.0
C574 C 0.93361 0.28498 0.19399 0.0
N575 N 0.92644 0.28302 0.24112 0.0
N576 N 0.9107 0.23921 0.21317 0.0
C577 C 0.92372 0.2578 0.17652 0.0
H578 H 0.90488 0.24687 0.28721 0.0
H579 H 0.94131 0.30413 0.1723 0.0
C580 C 0.93401 0.3054 0.37451 0.0
N581 N 0.90667 0.36357 0.35862 0.0
C582 C 0.91369 0.39116 0.34895 0.0
C583 C 0.89734 0.35947 0.4048 0.0
N584 N 0.90938 0.40428 0.38753 0.0
C585 C 0.89917 0.38425 0.42257 0.0
C586 C 0.86328 0.28165 0.31516 0.0
O587 O 0.93316 0.29653 0.33189 0.0
O588 O 0.92449 0.32288 0.38117 0.0
O589 O 0.87224 0.30679 0.33193 0.0
O590 O 0.88056 0.27712 0.29029 0.0
O591 O 0.90161 0.34945 0.25826 0.0
H592 H 0.89047 0.33992 0.42495 0.0
H593 H 0.92306 0.40184 0.31508 0.0
O594 O 0.90687 0.31675 0.22089 0.0
O595 O 0.95715 0.33657 0.26448 0.0
O596 O 0.95042 0.3651 0.31242 0.0
C597 C 0.96657 0.36061 0.28505 0.0
H598 H 0.92195 0.25209 0.1386 0.0
H599 H 0.89384 0.38746 0.45895 0.0
Co600 Co 0.74031 0.62364 0.27778 0.0
C601 C 0.7098 0.57542 0.21954 0.0
Co602 Co 0.71029 0.58675 0.32235 0.0
C603 C 0.79293 0.66955 0.25055 0.0
C604 C 0.76183 0.6607 0.19541 0.0
N605 N 0.76491 0.65423 0.2413 0.0
N606 N 0.80806 0.6834 0.2112 0.0
C607 C 0.78857 0.67853 0.17653 0.0
H608 H 0.80246 0.66658 0.28292 0.0
H609 H 0.74204 0.65015 0.17518 0.0
C610 C 0.74231 0.64001 0.37517 0.0
N611 N 0.68281 0.55476 0.35978 0.0
C612 C 0.6553 0.53418 0.34945 0.0
C613 C 0.68611 0.55 0.40661 0.0
N614 N 0.64146 0.51723 0.3882 0.0
C615 C 0.66097 0.52736 0.42404 0.0
C616 C 0.76519 0.59235 0.31655 0.0
O617 O 0.75134 0.64807 0.33255 0.0
O618 O 0.72452 0.61308 0.3817 0.0
O619 O 0.73991 0.57621 0.33305 0.0
O620 O 0.76979 0.61406 0.29143 0.0
O621 O 0.69711 0.56346 0.2596 0.0
H622 H 0.70535 0.5628 0.42739 0.0
H623 H 0.64518 0.53252 0.31487 0.0
O624 O 0.73018 0.60091 0.22157 0.0
O625 O 0.7112 0.63233 0.26495 0.0
O626 O 0.68235 0.59741 0.31312 0.0
C627 C 0.6871 0.61808 0.28564 0.0
H628 H 0.79346 0.68399 0.13867 0.0
H629 H 0.65717 0.51919 0.4607 0.0
Co630 Co 0.46898 0.07881 0.95755 0.0
C631 C 0.48608 0.12698 1.01659 0.0
Co632 Co 0.47503 0.11595 0.91449 0.0
C633 C 0.47608 0.03323 0.98526 0.0
C634 C 0.4527 0.04137 0.03941 0.0
N635 N 0.46311 0.04835 0.99404 0.0
N636 N 0.47656 0.0189 1.02449 0.0
C637 C 0.4613 0.02337 0.05855 0.0
H638 H 0.48919 0.03661 0.9535 0.0
H639 H 0.44291 0.05156 0.05922 0.0
C640 C 0.45448 0.06267 0.86094 0.0
N641 N 0.47933 0.14773 0.87676 0.0
C642 C 0.47197 0.1681 0.88623 0.0
C643 C 0.4877 0.15232 0.83004 0.0
N644 N 0.47512 0.18474 0.84701 0.0
C645 C 0.48496 0.17463 0.81179 0.0
C646 C 0.52497 0.11096 0.91984 0.0
O647 O 0.45702 0.05478 0.90277 0.0
O648 O 0.46221 0.08935 0.85521 0.0
O649 O 0.51517 0.12638 0.90258 0.0
O650 O 0.50836 0.0894 0.94568 0.0
O651 O 0.48584 0.13941 0.97683 0.0
H652 H 0.49452 0.13959 0.80987 0.0
H653 H 0.46319 0.16983 0.92049 0.0
O654 O 0.48023 0.10126 1.0141 0.0
O655 O 0.43078 0.0688 0.9681 0.0
O656 O 0.43641 0.1054 0.92514 0.0
C657 C 0.42055 0.0833 0.94989 0.0
H658 H 0.45999 1.01746 0.0963 0.0
H659 H 0.4895 0.18261 0.77502 0.0
Co660 Co 0.96526 0.39925 0.95423 0.0
C661 C 0.91711 0.36828 1.01435 0.0
Co662 Co 0.92839 0.36679 0.91307 0.0
C663 C 1.00857 0.45244 0.98412 0.0
C664 C 1.00072 0.42053 0.03726 0.0
N665 N 0.99523 0.4242 0.99103 0.0
N666 N 1.01915 0.4667 1.02559 0.0
C667 C 1.01541 0.44691 0.05888 0.0
H668 H 1.00624 0.46218 0.9515 0.0
H669 H 0.99082 0.40018 0.05593 0.0
C670 C 0.98183 0.39972 0.85867 0.0
N671 N 0.89674 0.3388 0.87583 0.0
C672 C 0.87637 0.31109 0.88538 0.0
C673 C 0.89157 0.34282 0.82963 0.0
N674 N 0.85913 0.29781 0.84663 0.0
C675 C 0.86888 0.31795 0.81174 0.0
C676 C 0.93246 0.42159 0.91483 0.0
O677 O 0.98993 0.41005 0.90051 0.0
O678 O 0.95498 0.38106 0.8532 0.0
O679 O 0.91655 0.39555 0.90158 0.0
O680 O 0.9552 0.428 0.93815 0.0
O681 O 0.9052 0.35387 0.97563 0.0
H682 H 0.90394 0.36251 0.80968 0.0
H683 H 0.87489 0.30054 0.91943 0.0
O684 O 0.94207 0.38945 1.01034 0.0
O685 O 0.97473 0.37123 0.96888 0.0
O686 O 0.94011 0.33945 0.92383 0.0
C687 C 0.96164 0.34638 0.95068 0.0
H688 H 1.01874 0.45076 0.09742 0.0
H689 H 0.86028 0.31488 0.77546 0.0
Co690 Co 0.64337 0.57397 0.95649 0.0
C691 C 0.67429 0.55722 1.01696 0.0
Co692 Co 0.67568 0.56923 0.91511 0.0
C693 C 0.58995 0.56581 0.98286 0.0
C694 C 0.6209 0.58928 0.0376 0.0
N695 N 0.61798 0.5791 0.99216 0.0
N696 N 0.57472 0.56484 1.02191 0.0
C697 C 0.5941 0.58023 0.05626 0.0
H698 H 0.58057 0.55286 0.95086 0.0
H699 H 0.64072 0.59922 0.05779 0.0
C700 C 0.6434 0.58976 0.86007 0.0
N701 N 0.70381 0.5655 0.87843 0.0
C702 C 0.73142 0.57288 0.88874 0.0
C703 C 0.70048 0.55706 0.83178 0.0
N704 N 0.74526 0.56964 0.85009 0.0
C705 C 0.72569 0.55976 0.81438 0.0
C706 C 0.62101 0.51876 0.91705 0.0
O707 O 0.63296 0.58775 0.90182 0.0
O708 O 0.66189 0.58137 0.85496 0.0
O709 O 0.64702 0.52882 0.90367 0.0
O710 O 0.61463 0.5351 0.94058 0.0
O711 O 0.68835 0.55923 0.97794 0.0
H712 H 0.6811 0.55009 0.81112 0.0
H713 H 0.74156 0.58163 0.9232 0.0
O714 O 0.65301 0.56092 1.01329 0.0
O715 O 0.67151 0.61159 0.97105 0.0
O716 O 0.7029 0.60802 0.92579 0.0
C717 C 0.69636 0.62289 0.95275 0.0
H718 H 0.58916 0.58129 0.09394 0.0
H719 H 0.72949 0.55513 0.77787 0.0
Co720 Co 0.59424 0.90278 0.74282 0.0
C721 C 0.64719 0.92512 0.68896 0.0
Co722 Co 0.63147 0.91074 0.78684 0.0
C723 C 0.54122 0.90417 0.71636 0.0
C724 C 0.55575 0.88686 0.66074 0.0
N725 N 0.56164 0.89698 0.70639 0.0
N726 N 0.52323 0.89925 0.67843 0.0
C727 C 0.53254 0.88836 0.64358 0.0
H728 H 0.54034 0.91401 0.74999 0.0
H729 H 0.5681 0.87957 0.64059 0.0
C730 C 0.58372 0.89198 0.84627 0.0
N731 N 0.66279 0.91806 0.82189 0.0
C732 C 0.67957 0.90755 0.80894 0.0
C733 C 0.66829 0.92492 0.86903 0.0
N734 N 0.69258 0.90383 0.84721 0.0
C735 C 0.68667 0.91599 0.88486 0.0
C736 C 0.62447 0.95745 0.77884 0.0
O737 O 0.57136 0.8924 0.8065 0.0
O738 O 0.60939 0.89778 0.84358 0.0
O739 O 0.63916 0.94818 0.79958 0.0
O740 O 0.60393 0.94114 0.75151 0.0
O741 O 0.6553 0.92455 0.73157 0.0
H742 H 0.65652 0.93178 0.89181 0.0
H743 H 0.67824 0.89814 0.77375 0.0
O744 O 0.62012 0.91519 0.68247 0.0
O745 O 0.58466 0.86295 0.73246 0.0
O746 O 0.62296 0.87176 0.77338 0.0
C747 C 0.60119 0.85428 0.74869 0.0
H748 H 0.52336 0.88217 0.60776 0.0
H749 H 0.69117 0.91413 0.92244 0.0
Co750 Co 0.14072 0.70079 0.74872 0.0
C751 C 0.11962 0.73199 0.69431 0.0
Co752 Co 0.13285 0.73043 0.7926 0.0
C753 C 0.13414 0.6449 0.71532 0.0
C754 C 0.16861 0.68098 0.68025 0.0
N755 N 0.1475 0.67409 0.71286 0.0
N756 N 0.14639 0.63364 0.68613 0.0
C757 C 0.16813 0.65649 0.6643 0.0
H758 H 0.11626 0.63213 0.73908 0.0
H759 H 0.18376 0.70254 0.66895 0.0
C760 C 0.15099 0.70117 0.85222 0.0
N761 N 0.12481 0.75396 0.82802 0.0
C762 C 0.13668 0.78199 0.81959 0.0
C763 C 0.11335 0.7498 0.8727 0.0
N764 N 0.13564 0.79622 0.85864 0.0
C765 C 0.12027 0.77598 0.8919 0.0
C766 C 0.08587 0.67639 0.78324 0.0
O767 O 0.15047 0.68823 0.81256 0.0
O768 O 0.14523 0.72108 0.84957 0.0
O769 O 0.09522 0.70036 0.80404 0.0
O770 O 0.10222 0.67205 0.75613 0.0
O771 O 0.11984 0.74075 0.73688 0.0
H772 H 0.10407 0.72976 0.89225 0.0
H773 H 0.15025 0.79234 0.78856 0.0
O774 O 0.12923 0.71452 0.68819 0.0
O775 O 0.18055 0.73123 0.74019 0.0
O776 O 0.17177 0.76096 0.7805 0.0
C777 C 0.18928 0.75645 0.75634 0.0
H778 H 0.18267 0.65555 0.63829 0.0
H779 H 0.118 0.78014 0.92953 0.0
Co780 Co 0.34319 0.44886 0.7458 0.0
C781 C 0.31227 0.39688 0.68988 0.0
Co782 Co 0.31205 0.4113 0.78747 0.0
C783 C 0.39949 0.49888 0.71555 0.0
C784 C 0.36388 0.49676 0.67803 0.0
N785 N 0.37042 0.48255 0.71113 0.0
N786 N 0.41096 0.52271 0.68716 0.0
C787 C 0.38842 0.52126 0.66372 0.0
H788 H 0.41194 0.49387 0.74018 0.0
H789 H 0.34249 0.49003 0.66535 0.0
C790 C 0.34133 0.45818 0.84873 0.0
N791 N 0.28786 0.37969 0.8221 0.0
C792 C 0.25985 0.36389 0.8132 0.0
C793 C 0.2916 0.37205 0.86672 0.0
N794 N 0.24527 0.34859 0.85197 0.0
C795 C 0.26522 0.35296 0.88543 0.0
C796 C 0.36619 0.4175 0.78096 0.0
O797 O 0.35542 0.47049 0.8099 0.0
O798 O 0.32046 0.43302 0.84484 0.0
O799 O 0.34186 0.40356 0.80102 0.0
O800 O 0.37147 0.43839 0.7536 0.0
O801 O 0.30281 0.38815 0.73203 0.0
H802 H 0.31153 0.38247 0.88659 0.0
H803 H 0.24981 0.36739 0.78207 0.0
O804 O 0.32979 0.42402 0.68441 0.0
O805 O 0.31334 0.45918 0.73732 0.0
O806 O 0.28166 0.41966 0.77273 0.0
C807 C 0.28744 0.44258 0.75035 0.0
H808 H 0.3896 0.5368 0.63768 0.0
H809 H 0.26078 0.34638 0.92295 0.0
Co810 Co 0.57926 0.91976 0.15272 0.0
C811 C 0.60074 0.97297 0.20641 0.0
Co812 Co 0.58563 0.95686 0.10927 0.0
C813 C 0.58147 0.86678 0.18004 0.0
C814 C 0.56495 0.88205 0.23577 0.0
N815 N 0.57441 0.88739 0.18969 0.0
N816 N 0.57707 0.84924 0.21858 0.0
C817 C 0.56668 0.85905 0.25345 0.0
H818 H 0.59076 0.86541 0.1461 0.0
H819 H 0.55786 0.89458 0.25585 0.0
C820 C 0.56762 0.9089 0.04991 0.0
N821 N 0.59195 0.98766 0.07332 0.0
C822 C 0.57943 1.00316 0.08244 0.0
C823 C 0.6024 0.99469 1.02798 0.0
N824 N 0.57916 1.01773 0.04338 0.0
C825 C 0.59424 1.0131 1.00918 0.0
C826 C 0.63356 0.95128 0.11557 0.0
O827 O 0.56853 0.89665 0.08952 0.0
O828 O 0.57295 0.93444 0.05272 0.0
O829 O 0.62331 0.9655 0.09623 0.0
O830 O 0.61784 0.93011 0.1424 0.0
O831 O 0.59904 0.981 0.16418 0.0
H832 H 0.61188 0.98427 1.00793 0.0
H833 H 0.5664 0.99992 0.11427 0.0
O834 O 0.59202 0.94607 0.21249 0.0
O835 O 0.53917 0.90959 0.16444 0.0
O836 O 0.54666 0.9474 0.12321 0.0
C837 C 0.5298 0.92564 0.14848 0.0
H838 H 0.56092 0.85032 0.28964 0.0
H839 H 0.5956 0.01912 0.97148 0.0
Co840 Co 0.12621 0.66945 0.15913 0.0
C841 C 0.07408 0.63919 0.21423 0.0
Co842 Co 0.08864 0.64037 0.11565 0.0
C843 C 0.17933 0.72369 0.18478 0.0
C844 C 0.16523 0.69191 0.24039 0.0
N845 N 0.15909 0.69608 0.19487 0.0
N846 N 0.19744 0.73676 0.22247 0.0
C847 C 0.18842 0.71671 0.25741 0.0
H848 H 0.17988 0.73444 0.15139 0.0
H849 H 0.15298 0.67232 0.26067 0.0
C850 C 0.13579 0.66895 0.05544 0.0
N851 N 0.05678 0.61632 0.08173 0.0
C852 C 0.03937 0.5895 0.09645 0.0
C853 C 0.05058 0.61692 0.03472 0.0
N854 N 1.02509 0.57218 0.05947 0.0
C855 C 0.03101 0.58952 1.0208 0.0
C856 C 0.09579 0.69402 0.12448 0.0
O857 O 0.14842 0.68181 0.09501 0.0
O858 O 0.11007 0.64919 0.05838 0.0
O859 O 0.08102 0.67014 0.10357 0.0
O860 O 0.11644 0.69818 0.1515 0.0
O861 O 0.06554 0.63073 0.17171 0.0
H862 H 0.06245 0.63491 1.01073 0.0
H863 H 0.04118 0.58182 0.13172 0.0
O864 O 0.10119 0.65609 0.22016 0.0
O865 O 0.13586 0.63927 0.16818 0.0
O866 O 0.09708 0.60986 0.12816 0.0
C867 C 0.11917 0.61415 0.15181 0.0
H868 H 0.19763 0.71996 0.29323 0.0
H869 H 1.0256 0.58233 0.98371 0.0
Co870 Co 0.37521 0.46509 0.15458 0.0
C871 C 0.40737 0.44434 0.20824 0.0
Co872 Co 0.40497 0.45751 0.1106 0.0
C873 C 0.32079 0.46357 0.18196 0.0
C874 C 0.35264 0.48063 0.23744 0.0
N875 N 0.34841 0.47072 0.19165 0.0
N876 N 0.30772 0.46832 0.22018 0.0
C877 C 0.32792 0.47905 0.25496 0.0
H878 H 0.31008 0.4539 0.14829 0.0
H879 H 0.37228 0.48786 0.25745 0.0
C880 C 0.3746 0.47497 0.0517 0.0
N881 N 0.42879 0.45035 0.07429 0.0
C882 C 0.45688 0.46271 0.08245 0.0
C883 C 0.42476 0.43924 1.02937 0.0
N884 N 0.47119 0.4622 0.04312 0.0
C885 C 0.45105 0.44682 1.0098 0.0
C886 C 0.35151 0.41013 0.12051 0.0
O887 O 0.36211 0.4749 0.09162 0.0
O888 O 0.3945 0.46917 0.05398 0.0
O889 O 0.37561 0.41951 0.10012 0.0
O890 O 0.34677 0.42654 0.14674 0.0
O891 O 0.41642 0.44513 0.16573 0.0
H892 H 0.40466 0.42967 1.01003 0.0
H893 H 0.46709 0.47615 0.11365 0.0
O894 O 0.38942 0.45333 0.21443 0.0
O895 O 0.40517 0.50506 0.16392 0.0
O896 O 0.4348 0.49677 0.12205 0.0
C897 C 0.43029 0.51408 0.14683 0.0
H898 H 0.32493 0.48508 0.29094 0.0
H899 H 0.45525 0.44484 0.97208 0.0
Co900 Co 0.08798 0.46028 0.61005 0.0
C901 C 0.13504 0.47816 0.54881 0.0
Co902 Co 0.12559 0.46707 0.65195 0.0
C903 C 0.04032 0.46476 0.58506 0.0
C904 C 0.04893 0.44197 0.53047 0.0
N905 N 0.05641 0.45293 0.5754 0.0
N906 N 1.02488 0.46412 0.54661 0.0
C907 C 0.02959 0.44909 0.51241 0.0
H908 H 0.04361 0.47795 0.61666 0.0
H909 H 0.05956 0.43284 0.51007 0.0
C910 C 0.07337 0.44564 0.70774 0.0
N911 N 0.15913 0.47322 0.68695 0.0
C912 C 0.17453 0.45939 0.68417 0.0
C913 C 0.17386 0.49437 0.7192 0.0
N914 N 0.19825 0.4714 0.71281 0.0
C915 C 0.19772 0.49346 0.73462 0.0
C916 C 0.11904 0.51621 0.64758 0.0
O917 O 0.06463 0.4461 0.66551 0.0
O918 O 0.10057 0.4556 0.71328 0.0
O919 O 0.13585 0.50717 0.66054 0.0
O920 O 0.09617 0.49893 0.62523 0.0
O921 O 0.14736 0.47649 0.5877 0.0
H922 H 0.1679 0.50985 0.73063 0.0
H923 H 0.16895 0.44134 0.66058 0.0
O924 O 0.10984 0.4738 0.55274 0.0
O925 O 0.08045 0.42284 0.59609 0.0
O926 O 0.11521 0.42859 0.64412 0.0
C927 C 0.0946 0.41282 0.61653 0.0
H928 H 1.02296 0.44718 0.47498 0.0
H929 H 0.21349 0.50793 0.76023 0.0
Co930 Co 0.5834 0.63533 0.61102 0.0
C931 C 0.5665 0.66593 0.54988 0.0
Co932 Co 0.57897 0.6681 0.65165 0.0
C933 C 0.57526 0.58182 0.58521 0.0
C934 C 0.59894 0.61273 0.53044 0.0
N935 N 0.58856 0.60984 0.57575 0.0
N936 N 0.57449 0.56658 0.54636 0.0
C937 C 0.59001 0.58592 0.512 0.0
H938 H 0.56218 0.57247 0.61712 0.0
H939 H 0.60895 0.63253 0.51016 0.0
C940 C 0.59917 0.63569 0.70741 0.0
N941 N 0.57521 0.69647 0.68802 0.0
C942 C 0.58291 0.72428 0.67828 0.0
C943 C 0.56576 0.69263 0.73411 0.0
N944 N 0.57892 0.73775 0.71681 0.0
C945 C 0.56814 0.71765 0.75174 0.0
C946 C 0.52836 0.61318 0.65047 0.0
O947 O 0.59701 0.62502 0.66584 0.0
O948 O 0.59113 0.65448 0.71215 0.0
O949 O 0.5384 0.63927 0.6635 0.0
O950 O 0.54466 0.60677 0.62697 0.0
O951 O 0.56874 0.68036 0.58852 0.0
H952 H 0.55818 0.67296 0.75422 0.0
H953 H 0.5923 0.73476 0.6443 0.0
O954 O 0.5704 0.64479 0.55405 0.0
O955 O 0.62096 0.6632 0.59649 0.0
O956 O 0.61809 0.6954 0.64049 0.0
C957 C 0.63274 0.68818 0.6142 0.0
H958 H 0.59122 0.58095 0.4744 0.0
H959 H 0.56253 0.72088 0.7879 0.0
Co960 Co 0.40512 0.95471 0.61436 0.0
C961 C 0.37481 0.9068 0.55542 0.0
Co962 Co 0.37511 0.91757 0.65829 0.0
C963 C 0.45751 1.0006 0.58907 0.0
C964 C 0.42756 0.99103 0.5316 0.0
N965 N 0.4297 0.98541 0.57841 0.0
N966 N 0.47346 1.01272 0.54958 0.0
C967 C 0.45471 1.00784 0.51357 0.0
H968 H 0.46612 0.99877 0.62338 0.0
H969 H 0.40818 0.9802 0.51036 0.0
C970 C 0.40723 0.97059 0.71176 0.0
N971 N 0.34776 0.88567 0.69561 0.0
C972 C 0.32004 0.86556 0.68581 0.0
C973 C 0.35135 0.8807 0.74219 0.0
N974 N 0.30635 0.8487 0.72468 0.0
C975 C 0.32615 0.85838 0.76005 0.0
C976 C 0.42967 0.92276 0.65139 0.0
O977 O 0.41647 0.9787 0.66934 0.0
O978 O 0.38924 0.94371 0.71801 0.0
O979 O 0.40457 0.90693 0.66868 0.0
O980 O 0.4344 0.94461 0.62659 0.0
O981 O 0.36207 0.89442 0.59524 0.0
H982 H 0.37084 0.89319 0.76256 0.0
H983 H 0.30969 0.86422 0.65161 0.0
O984 O 0.39474 0.93243 0.55794 0.0
O985 O 0.37643 0.96396 0.60283 0.0
O986 O 0.3472 0.92827 0.64936 0.0
C987 C 0.35223 0.94942 0.62295 0.0
H988 H 0.46017 1.01203 0.47558 0.0
H989 H 0.3225 0.85013 0.79665 0.0
Co990 Co 0.13444 0.41388 0.28672 0.0
C991 C 0.15227 0.46186 0.34534 0.0
Co992 Co 0.14164 0.45081 0.24232 0.0
C993 C 0.14016 0.36745 0.31093 0.0
C994 C 0.1212 0.37785 0.36978 0.0
N995 N 0.12816 0.3831 0.32259 0.0
N996 N 0.1445 0.35544 0.35001 0.0
C997 C 0.13147 0.36081 0.38692 0.0
H998 H 0.14992 0.36891 0.27602 0.0
H999 H 0.11333 0.38908 0.3917 0.0
C1000 C 0.12036 0.3977 0.18905 0.0
N1001 N 0.14643 0.4829 0.20536 0.0
C1002 C 0.13913 0.50319 0.21578 0.0
C1003 C 0.15538 0.48829 0.159 0.0
N1004 N 0.14286 0.52061 0.17748 0.0
C1005 C 0.15307 0.51108 0.14189 0.0
C1006 C 0.19083 0.44527 0.24873 0.0
O1007 O 0.12108 0.38967 0.23172 0.0
O1008 O 0.12971 0.42467 0.1825 0.0
O1009 O 0.18173 0.46134 0.23192 0.0
O1010 O 0.1736 0.4234 0.27342 0.0
O1011 O 0.15161 0.47395 0.30542 0.0
H1012 H 0.16239 0.47588 0.13835 0.0
H1013 H 0.13004 0.50435 0.25006 0.0
O1014 O 0.14698 0.43634 0.34303 0.0
O1015 O 0.09679 0.40532 0.29955 0.0
O1016 O 0.10309 0.44026 0.25128 0.0
C1017 C 0.08709 0.41965 0.27882 0.0
H1018 H 0.13337 0.35685 0.42477 0.0
H1019 H 0.15826 0.51982 0.10564 0.0
Co1020 Co 0.62967 0.72892 0.28774 0.0
C1021 C 0.5817 0.69889 0.34621 0.0
Co1022 Co 0.59287 0.6993 0.24311 0.0
C1023 C 0.67661 0.78067 0.31193 0.0
C1024 C 0.6657 0.7513 0.37079 0.0
N1025 N 0.66045 0.75312 0.32368 0.0
N1026 N 0.68899 0.79696 0.35093 0.0
C1027 C 0.68329 0.77852 0.38784 0.0
H1028 H 0.67529 0.78907 0.27707 0.0
H1029 H 0.6542 0.73227 0.39274 0.0
C1030 C 0.64598 0.73089 0.19031 0.0
N1031 N 0.56081 0.67217 0.20585 0.0
C1032 C 0.5404 0.64457 0.21585 0.0
C1033 C 0.55582 0.67584 0.15933 0.0
N1034 N 0.52332 0.63102 0.17717 0.0
C1035 C 0.53318 0.6508 0.14171 0.0
C1036 C 0.59871 0.75438 0.24952 0.0
O1037 O 0.65389 0.73961 0.23299 0.0
O1038 O 0.61903 0.71342 0.18348 0.0
O1039 O 0.58255 0.72917 0.23282 0.0
O1040 O 0.62046 0.75887 0.27444 0.0
O1041 O 0.56964 0.68611 0.30627 0.0
H1042 H 0.56847 0.69526 0.13886 0.0
H1043 H 0.53897 0.63419 0.25007 0.0
O1044 O 0.60719 0.71914 0.34392 0.0
O1045 O 0.63807 0.69968 0.30039 0.0
O1046 O 0.60336 0.67113 0.25176 0.0
C1047 C 0.62394 0.67574 0.27934 0.0
H1048 H 0.68742 0.78441 0.42566 0.0
H1049 H 0.52484 0.64724 0.1052 0.0
Co1050 Co 0.31307 0.90951 0.29188 0.0
C1051 C 0.34314 0.89191 0.35183 0.0
Co1052 Co 0.34431 0.90341 0.24925 0.0
C1053 C 0.25994 0.90201 0.31827 0.0
C1054 C 0.29103 0.92559 0.37276 0.0
N1055 N 0.288 0.91527 0.32741 0.0
N1056 N 0.24481 0.90119 0.35734 0.0
C1057 C 0.26427 0.91664 0.39155 0.0
H1058 H 0.25049 0.88892 0.28643 0.0
H1059 H 0.31088 0.9355 0.39286 0.0
C1060 C 0.3122 0.92397 0.19452 0.0
N1061 N 0.37216 0.899 0.21255 0.0
C1062 C 0.39986 0.90639 0.22234 0.0
C1063 C 0.36837 0.88984 0.16629 0.0
N1064 N 0.41329 0.90244 0.18375 0.0
C1065 C 0.39336 0.89212 0.14861 0.0
C1066 C 0.28955 0.85372 0.25377 0.0
O1067 O 0.30221 0.92242 0.23654 0.0
O1068 O 0.33071 0.91562 0.18918 0.0
O1069 O 0.31499 0.86327 0.23776 0.0
O1070 O 0.28427 0.87051 0.27838 0.0
O1071 O 0.35659 0.89292 0.3125 0.0
H1072 H 0.34882 0.8827 0.14602 0.0
H1073 H 0.41035 0.91566 0.25635 0.0
O1074 O 0.32294 0.89724 0.34867 0.0
O1075 O 0.34147 0.94727 0.30469 0.0
O1076 O 0.37213 0.94224 0.25966 0.0
C1077 C 0.36616 0.9578 0.28601 0.0
H1078 H 0.25941 0.9178 0.42924 0.0
H1079 H 0.39676 0.88694 0.11224 0.0
C1080 C 0.24522 0.13909 0.03493 0.0
C1081 C 0.26182 0.15549 0.0746 0.0
H1082 H 0.22749 0.09906 0.9958 0.0
C1083 C 0.27359 0.14306 0.10505 0.0
H1084 H 0.23597 0.14789 1.0104 0.0
C1085 C 0.26833 0.11508 0.09709 0.0
C1086 C 0.25181 0.09868 0.05758 0.0
H1087 H 0.28658 0.15484 0.13583 0.0
H1088 H 0.27721 0.10612 0.12204 0.0
C1089 C 0.24057 0.11119 1.0262 0.0
C1090 C 0.9312 0.15725 0.10072 0.0
C1091 C 0.94582 0.15972 0.05703 0.0
H1092 H 0.89293 0.13354 0.14297 0.0
C1093 C 0.93137 0.13848 1.02157 0.0
H1094 H 0.94152 0.17309 0.12892 0.0
C1095 C 0.90342 0.11524 1.03012 0.0
C1096 C 0.88881 0.11298 0.07384 0.0
H1097 H 0.94198 0.13945 0.98776 0.0
H1098 H 0.89308 0.0992 1.00221 0.0
C1099 C 0.90318 0.13453 0.10874 0.0
C1100 C 0.88365 0.77636 0.10213 0.0
C1101 C 0.88381 0.79259 0.06211 0.0
H1102 H 0.90507 0.75819 0.14135 0.0
C1103 C 0.90738 0.80333 1.03037 0.0
H1104 H 0.86588 0.76781 0.1273 0.0
C1105 C 0.93049 0.79855 0.03923 0.0
C1106 C 0.93027 0.78226 0.07937 0.0
H1107 H 0.9083 0.81612 0.99953 0.0
H1108 H 0.94844 0.80744 1.01441 0.0
C1109 C 0.90624 0.77092 0.11022 0.0
C1110 C 0.12447 0.25346 0.46021 0.0
C1111 C 0.10963 0.2417 0.50384 0.0
H1112 H 0.16298 0.26764 0.41885 0.0
C1113 C 0.12383 0.2352 0.54015 0.0
H1114 H 0.11435 0.25879 0.43144 0.0
C1115 C 0.1518 0.23983 0.5325 0.0
C1116 C 0.16664 0.25181 0.48885 0.0
H1117 H 0.11303 0.2259 0.57397 0.0
H1118 H 0.16199 0.23438 0.56103 0.0
C1119 C 0.15251 0.25868 0.45306 0.0
C1120 C 0.80617 0.92168 0.53611 0.0
C1121 C 0.79409 0.92402 0.49222 0.0
H1122 H 0.82017 0.8973 0.57871 0.0
C1123 C 0.78703 0.90248 0.45731 0.0
H1124 H 0.81175 0.9377 0.56403 0.0
C1125 C 0.79216 0.87968 0.46548 0.0
C1126 C 0.80404 0.87711 0.50931 0.0
H1127 H 0.77798 0.90355 0.42295 0.0
H1128 H 0.78674 0.86387 0.43726 0.0
C1129 C 0.81073 0.89834 0.54479 0.0
C1130 C 0.12418 0.89636 0.53251 0.0
C1131 C 0.12405 0.88008 0.49233 0.0
H1132 H 0.14678 0.9362 0.57201 0.0
C1133 C 0.14797 0.89261 0.46119 0.0
H1134 H 0.10635 0.88746 0.55758 0.0
C1135 C 0.17074 0.92059 0.46904 0.0
C1136 C 0.17094 0.93685 0.50911 0.0
H1137 H 0.14892 0.88091 0.43003 0.0
H1138 H 0.1884 0.92962 0.44363 0.0
C1139 C 0.14747 0.9242 0.54112 0.0
C1140 C 0.79465 0.92207 0.96202 0.0
C1141 C 0.80535 0.93633 1.00643 0.0
H1142 H 0.78095 0.88393 0.91996 0.0
C1143 C 0.81049 0.92144 0.04338 0.0
H1144 H 0.79035 0.9327 0.93273 0.0
C1145 C 0.80552 0.89335 0.03566 0.0
C1146 C 0.79455 0.87911 0.99123 0.0
H1147 H 0.81896 0.93178 0.07783 0.0
H1148 H 0.80983 0.8826 0.06474 0.0
C1149 C 0.78911 0.89395 0.95474 0.0
C1150 C 0.14798 0.92164 0.03411 0.0
C1151 C 0.16391 0.92144 0.99365 0.0
H1152 H 0.10822 0.8995 0.07414 0.0
C1153 C 0.15084 0.89757 0.96247 0.0
H1154 H 0.15729 0.93942 0.05922 0.0
C1155 C 0.12275 0.87514 0.9706 0.0
C1156 C 0.10685 0.87519 1.01098 0.0
H1157 H 0.16224 0.89636 0.93108 0.0
H1158 H 0.11338 0.85751 0.94519 0.0
C1159 C 0.11995 0.89863 0.04299 0.0
C1160 C 0.14596 0.23029 0.03895 0.0
C1161 C 0.16963 0.24085 1.00734 0.0
H1162 H 0.10494 0.22645 0.05458 0.0
C1163 C 0.16979 0.25692 0.96705 0.0
H1164 H 0.14496 0.21758 0.06998 0.0
C1165 C 0.14725 0.26242 0.95863 0.0
C1166 C 0.12315 0.25134 0.98938 0.0
H1167 H 0.18756 0.26532 0.94189 0.0
H1168 H 0.14853 0.27509 0.92733 0.0
C1169 C 0.12288 0.23515 1.02977 0.0
C1170 C 0.93414 0.80713 0.52832 0.0
C1171 C 0.94723 0.79711 0.56095 0.0
H1172 H 0.8968 0.81038 0.51121 0.0
C1173 C 0.93131 0.78156 0.60159 0.0
H1174 H 0.94588 0.81941 0.49695 0.0
C1175 C 0.90319 0.77595 0.60934 0.0
C1176 C 0.89015 0.78642 0.57751 0.0
H1177 H 0.94068 0.77356 0.62746 0.0
H1178 H 0.89175 0.76362 0.64092 0.0
C1179 C 0.90611 0.80218 0.53682 0.0
C1180 C 0.24531 0.1133 0.5366 0.0
C1181 C 0.26132 0.11343 0.57708 0.0
H1182 H 0.22785 0.1355 0.49658 0.0
C1183 C 0.27214 0.13725 0.60832 0.0
H1184 H 0.23683 0.09552 0.51147 0.0
C1185 C 0.26654 0.15972 0.60023 0.0
C1186 C 0.25066 0.1597 0.55982 0.0
H1187 H 0.28465 0.13836 0.63973 0.0
H1188 H 0.27474 0.17734 0.62566 0.0
C1189 C 0.24037 0.13632 0.52774 0.0
C1190 C 0.93054 0.14334 0.53019 0.0
C1191 C 0.93331 0.15812 0.57388 0.0
H1192 H 0.90581 0.1046 0.48865 0.0
C1193 C 0.91226 0.1439 0.60964 0.0
H1194 H 0.94621 0.15358 0.50167 0.0
C1195 C 0.88947 0.11586 0.60242 0.0
C1196 C 0.88646 0.10106 0.55877 0.0
H1197 H 0.91369 0.15431 0.64387 0.0
H1198 H 0.87398 0.10569 0.6312 0.0
C1199 C 0.90723 0.11535 0.52248 0.0
C1200 C 0.91109 0.47504 0.37044 0.0
C1201 C 0.92699 0.49086 0.41108 0.0
H1202 H 0.89378 0.43544 0.33013 0.0
C1203 C 0.93776 0.4778 0.44226 0.0
H1204 H 0.90264 0.48436 0.34534 0.0
C1205 C 0.93225 0.44977 0.43397 0.0
C1206 C 0.9165 0.43397 0.39342 0.0
H1207 H 0.95018 0.48913 0.4738 0.0
H1208 H 0.94042 0.44034 0.45939 0.0
C1209 C 0.90623 0.4471 0.3614 0.0
C1210 C 0.59518 0.49437 0.43288 0.0
C1211 C 0.6117 0.49453 0.39319 0.0
H1212 H 0.55522 0.47262 0.47126 0.0
C1213 C 0.59917 0.47106 0.36121 0.0
H1214 H 0.6041 0.51201 0.45828 0.0
C1215 C 0.57122 0.44782 0.36948 0.0
C1216 C 0.55469 0.44772 0.40928 0.0
H1217 H 0.61134 0.47032 0.33062 0.0
H1218 H 0.56246 0.42998 0.34446 0.0
C1219 C 0.56709 0.47165 0.44036 0.0
C1220 C 0.55565 0.11661 0.43654 0.0
C1221 C 0.55313 0.12893 0.39317 0.0
H1222 H 0.57934 0.10169 0.47782 0.0
C1223 C 0.57416 0.13566 0.3573 0.0
H1224 H 0.53995 0.11113 0.465 0.0
C1225 C 0.59731 0.13075 0.36514 0.0
C1226 C 0.59964 0.11824 0.40853 0.0
H1227 H 0.5731 0.1454 0.32372 0.0
H1228 H 0.61322 0.13644 0.33696 0.0
C1229 C 0.57827 0.11108 0.44384 0.0
C1230 C 0.81524 0.56991 0.86683 0.0
C1231 C 0.83183 0.58705 0.82771 0.0
H1232 H 0.77507 0.55169 0.90563 0.0
C1233 C 0.81963 0.59933 0.79794 0.0
H1234 H 0.82387 0.56024 0.89081 0.0
C1235 C 0.79161 0.59399 0.806 0.0
C1236 C 0.77503 0.57692 0.84498 0.0
H1237 H 0.83158 0.61272 0.76761 0.0
H1238 H 0.78275 0.60321 0.78155 0.0
C1239 C 0.78736 0.56521 0.87569 0.0
C1240 C 0.47895 0.23118 0.87185 0.0
C1241 C 0.4678 0.20719 0.84104 0.0
H1242 H 0.48339 0.27249 0.8866 0.0
C1243 C 0.45114 0.20663 0.80138 0.0
H1244 H 0.49212 0.23248 0.90234 0.0
C1245 C 0.44565 0.22919 0.7928 0.0
C1246 C 0.4574 0.25363 0.8227 0.0
H1247 H 0.4423 0.18857 0.77683 0.0
H1248 H 0.43256 0.22769 0.76201 0.0
C1249 C 0.47414 0.25424 0.86246 0.0
C1250 C 0.81054 0.22559 0.78934 0.0
C1251 C 0.78904 0.21145 0.82445 0.0
H1252 H 0.84929 0.26361 0.76882 0.0
C1253 C 0.79153 0.22613 0.86814 0.0
H1254 H 0.80934 0.21527 0.75512 0.0
C1255 C 0.81498 0.25397 0.87645 0.0
C1256 C 0.83619 0.26819 0.84078 0.0
H1257 H 0.77553 0.21594 0.89618 0.0
H1258 H 0.81615 0.26468 0.91022 0.0
C1259 C 0.83348 0.25347 0.79715 0.0
C1260 C 0.4497 0.22618 0.29282 0.0
C1261 C 0.46065 0.2135 0.32445 0.0
H1262 H 0.44696 0.26347 0.27443 0.0
C1263 C 0.47676 0.2298 0.36458 0.0
H1264 H 0.43712 0.21446 0.26166 0.0
C1265 C 0.48165 0.25782 0.37271 0.0
C1266 C 0.47124 0.2706 0.34023 0.0
H1267 H 0.48536 0.22079 0.39001 0.0
H1268 H 0.49423 0.26981 0.40364 0.0
C1269 C 0.45527 0.25433 0.30017 0.0
C1270 C 0.79071 0.21404 0.29541 0.0
C1271 C 0.77607 0.2111 0.33924 0.0
H1272 H 0.8291 0.23816 0.25367 0.0
C1273 C 0.79049 0.23178 0.37549 0.0
H1274 H 0.78039 0.1986 0.26667 0.0
C1275 C 0.81849 0.25501 0.3676 0.0
C1276 C 0.83312 0.25772 0.32376 0.0
H1277 H 0.77984 0.23039 0.40945 0.0
H1278 H 0.82884 0.27065 0.39608 0.0
C1279 C 0.81878 0.23673 0.28802 0.0
C1280 C 0.78932 0.57018 0.36619 0.0
C1281 C 0.78944 0.58662 0.32631 0.0
H1282 H 0.81183 0.5529 0.40585 0.0
C1283 C 0.81374 0.59854 0.29599 0.0
H1284 H 0.77121 0.56084 0.39066 0.0
C1285 C 0.83664 0.59358 0.30429 0.0
C1286 C 0.8366 0.57723 0.34403 0.0
H1287 H 0.81492 0.61144 0.26509 0.0
H1288 H 0.85458 0.60261 0.27945 0.0
C1289 C 0.81273 0.56584 0.37526 0.0
C1290 C 0.59898 0.13792 0.86047 0.0
C1291 C 0.61208 0.12769 0.89264 0.0
H1292 H 0.56176 0.14154 0.84419 0.0
C1293 C 0.59623 0.11204 0.93329 0.0
H1294 H 0.61065 0.15029 0.82912 0.0
C1295 C 0.56819 0.1066 0.94153 0.0
C1296 C 0.55517 0.11734 0.91019 0.0
H1297 H 0.60561 0.10389 0.95884 0.0
H1298 H 0.55683 0.09424 0.97313 0.0
C1299 C 0.57104 0.13313 0.86944 0.0
C1300 C 0.88979 0.45997 0.89099 0.0
C1301 C 0.91143 0.48894 0.88686 0.0
H1302 H 0.87921 0.41618 0.90168 0.0
C1303 C 0.94004 0.49527 0.89028 0.0
H1304 H 0.86753 0.45423 0.88846 0.0
C1305 C 0.94671 0.47348 0.8991 0.0
C1306 C 0.92506 0.44451 0.90355 0.0
H1307 H 0.95724 0.51724 0.88772 0.0
H1308 H 0.96899 0.47936 0.90239 0.0
C1309 C 0.89649 0.43809 0.89847 0.0
C1310 C 0.60488 0.4669 0.89627 0.0
C1311 C 0.59811 0.48854 0.90527 0.0
H1312 H 0.5892 0.42227 0.88188 0.0
C1313 C 0.56895 0.48085 0.90359 0.0
H1314 H 0.62694 0.47182 0.89725 0.0
C1315 C 0.54733 0.45251 0.89333 0.0
C1316 C 0.55408 0.43077 0.88581 0.0
H1317 H 0.56277 0.49682 0.91017 0.0
H1318 H 0.5252 0.44738 0.89286 0.0
C1319 C 0.5832 0.43843 0.88745 0.0
C1320 C 0.58267 0.80935 0.69613 0.0
C1321 C 0.59549 0.82427 0.73937 0.0
H1322 H 0.56818 0.77063 0.65423 0.0
C1323 C 0.60354 0.81034 0.77372 0.0
H1324 H 0.57629 0.81934 0.66865 0.0
C1325 C 0.59856 0.78243 0.76571 0.0
C1326 C 0.58588 0.76748 0.72256 0.0
H1327 H 0.61318 0.82082 0.80757 0.0
H1328 H 0.60466 0.77241 0.79355 0.0
C1329 C 0.57827 0.78151 0.68758 0.0
C1330 C 0.23563 0.77994 0.70736 0.0
C1331 C 0.21934 0.78048 0.747 0.0
H1332 H 0.27568 0.80158 0.66824 0.0
C1333 C 0.23202 0.80464 0.77752 0.0
H1334 H 0.22663 0.76188 0.68281 0.0
C1335 C 0.26025 0.82699 0.76965 0.0
C1336 C 0.27651 0.82648 0.73011 0.0
H1337 H 0.2203 0.80604 0.80827 0.0
H1338 H 0.26948 0.84485 0.79461 0.0
C1339 C 0.26367 0.8028 0.69868 0.0
C1340 C 0.24952 0.48491 0.7203 0.0
C1341 C 0.22037 0.46361 0.71904 0.0
H1342 H 0.29319 0.49513 0.72995 0.0
C1343 C 0.21348 0.43512 0.72748 0.0
H1344 H 0.25566 0.50705 0.71406 0.0
C1345 C 0.23505 0.42832 0.73808 0.0
C1346 C 0.26427 0.4497 0.73925 0.0
H1347 H 0.19131 0.41823 0.72737 0.0
H1348 H 0.22882 0.40623 0.74519 0.0
C1349 C 0.2711 0.47804 0.72949 0.0
C1350 C 0.45914 0.92621 0.13804 0.0
C1351 C 0.44306 0.90969 0.17786 0.0
H1352 H 0.49859 0.94448 0.09821 0.0
C1353 C 0.45585 0.89842 0.20856 0.0
H1354 H 0.44995 0.93508 0.11353 0.0
C1355 C 0.48368 0.90307 0.19892 0.0
C1356 C 0.49977 0.91969 0.15896 0.0
H1357 H 0.44398 0.88531 0.23915 0.0
H1358 H 0.49268 0.89379 0.22298 0.0
C1359 C 0.48708 0.93148 0.12917 0.0
C1360 C 0.11738 0.5686 0.12401 0.0
C1361 C 0.12524 0.59002 0.15942 0.0
H1362 H 0.11684 0.53015 0.10188 0.0
C1363 C 0.13841 0.58767 0.20194 0.0
H1364 H 0.10748 0.56971 0.09065 0.0
C1365 C 0.14328 0.56445 0.20887 0.0
C1366 C 0.13586 0.54337 0.17287 0.0
H1367 H 0.14467 0.60365 0.23014 0.0
H1368 H 0.15354 0.56336 0.2418 0.0
C1369 C 0.12287 0.54591 0.13038 0.0
C1370 C 0.47748 0.58844 0.20422 0.0
C1371 C 0.50077 0.60127 0.1719 0.0
H1372 H 0.43669 0.55142 0.2212 0.0
C1373 C 0.50064 0.58506 0.1318 0.0
H1374 H 0.47676 0.60039 0.23515 0.0
C1375 C 0.47809 0.55692 0.12425 0.0
C1376 C 0.45434 0.54421 0.15572 0.0
H1377 H 0.51817 0.59425 0.10616 0.0
H1378 H 0.47905 0.54524 0.09307 0.0
C1379 C 0.4544 0.56045 0.1959 0.0
C1380 C 0.16062 0.59646 0.67754 0.0
C1381 C 0.13903 0.60389 0.67945 0.0
H1382 H 0.17141 0.56344 0.6672 0.0
C1383 C 0.11062 0.58204 0.67143 0.0
H1384 H 0.18272 0.61269 0.68346 0.0
C1385 C 0.10416 0.55379 0.66061 0.0
C1386 C 0.12583 0.54636 0.65883 0.0
H1387 H 0.0935 0.587 0.67207 0.0
H1388 H 0.0821 0.5377 0.65385 0.0
C1389 C 0.15411 0.56814 0.66814 0.0
C1390 C 0.47624 0.5964 0.671 0.0
C1391 C 0.49825 0.5901 0.66267 0.0
H1392 H 0.43138 0.58001 0.6846 0.0
C1393 C 0.49105 0.56107 0.66506 0.0
H1394 H 0.48078 0.61833 0.66944 0.0
C1395 C 0.46283 0.53914 0.6752 0.0
C1396 C 0.44069 0.54541 0.6819 0.0
H1397 H 0.50731 0.55523 0.65901 0.0
H1398 H 0.45809 0.51714 0.6761 0.0
C1399 C 0.44787 0.57439 0.67969 0.0
C1400 C 0.47987 0.89979 0.71011 0.0
C1401 C 0.50024 0.90588 0.67326 0.0
H1402 H 0.44121 0.89943 0.73189 0.0
C1403 C 0.49684 0.91728 0.62952 0.0
H1404 H 0.48163 0.89077 0.74404 0.0
C1405 C 0.47406 0.92258 0.62282 0.0
C1406 C 0.45342 0.91617 0.65919 0.0
H1407 H 0.51203 0.9223 0.60035 0.0
H1408 H 0.47234 0.93133 0.58856 0.0
C1409 C 0.45655 0.9045 0.70292 0.0
C1410 C 0.23519 0.44475 0.27631 0.0
C1411 C 0.22109 0.45164 0.24049 0.0
H1412 H 0.27333 0.44461 0.29804 0.0
C1413 C 0.23597 0.46366 0.1969 0.0
H1414 H 0.22467 0.43571 0.31045 0.0
C1415 C 0.26395 0.46827 0.18932 0.0
C1416 C 0.27811 0.46173 0.22566 0.0
H1417 H 0.22581 0.4691 0.16833 0.0
H1418 H 0.27479 0.47757 0.15552 0.0
C1419 C 0.26324 0.44996 0.26925 0.0
C1420 C 0.60007 0.80003 0.27577 0.0
C1421 C 0.59273 0.77856 0.2406 0.0
H1422 H 0.60098 0.83886 0.29646 0.0
C1423 C 0.58071 0.78128 0.1969 0.0
H1424 H 0.6091 0.79871 0.30998 0.0
C1425 C 0.57651 0.80489 0.18866 0.0
C1426 C 0.5835 0.82607 0.22439 0.0
H1427 H 0.57492 0.76535 0.16876 0.0
H1428 H 0.56713 0.80621 0.15485 0.0
C1429 C 0.5953 0.82311 0.26804 0.0
C1430 C 0.26626 0.8074 0.20449 0.0
C1431 C 0.26591 0.82351 0.2445 0.0
H1432 H 0.24427 0.76745 0.16516 0.0
C1433 C 0.24198 0.81069 0.27558 0.0
H1434 H 0.28414 0.81655 0.17952 0.0
C1435 C 0.21959 0.78256 0.26779 0.0
C1436 C 0.21982 0.7665 0.22784 0.0
H1437 H 0.24073 0.82227 0.30665 0.0
H1438 H 0.20189 0.77325 0.29311 0.0
C1439 C 0.24332 0.77938 0.19593 0.0
C1440 C 0.37541 0.20185 0.16427 0.0
C1441 C 0.36249 0.21026 0.19966 0.0
H1442 H 0.38393 0.16934 0.13979 0.0
C1443 C 0.34696 0.1914 0.23736 0.0
H1444 H 0.38683 0.21594 0.13433 0.0
C1445 C 0.3444 0.16451 0.23952 0.0
C1446 C 0.35738 0.15614 0.20419 0.0
H1447 H 0.33589 0.19703 0.26403 0.0
H1448 H 0.33307 0.15046 0.26954 0.0
C1449 C 0.37283 0.17496 0.16641 0.0
C1450 C 0.83606 0.17822 0.22485 0.0
C1451 C 0.83575 0.16005 0.18873 0.0
H1452 H 0.86019 0.21756 0.26148 0.0
C1453 C 0.86088 0.16787 0.1618 0.0
H1454 H 0.81705 0.17257 0.24603 0.0
C1455 C 0.88581 0.19339 0.17098 0.0
C1456 C 0.88612 0.21152 0.20719 0.0
H1457 H 0.8617 0.15404 0.13437 0.0
H1458 H 0.90482 0.19906 0.1498 0.0
C1459 C 0.86099 0.20373 0.23404 0.0
C1460 C 0.83939 0.67053 0.16765 0.0
C1461 C 0.83568 0.68674 0.20367 0.0
H1462 H 0.86674 0.65605 0.13863 0.0
C1463 C 0.85663 0.70028 0.23937 0.0
H1464 H 0.82297 0.65897 0.14084 0.0
C1465 C 0.88098 0.6977 0.23912 0.0
C1466 C 0.88475 0.68158 0.20298 0.0
H1467 H 0.85364 0.71221 0.2681 0.0
H1468 H 0.89742 0.7093 0.26589 0.0
C1469 C 0.86374 0.66794 0.16741 0.0
C1470 C 0.19395 0.36913 0.32785 0.0
C1471 C 0.16904 0.35217 0.35546 0.0
H1472 H 0.23771 0.38146 0.31478 0.0
C1473 C 0.16956 0.33457 0.39182 0.0
H1474 H 0.19462 0.38359 0.30023 0.0
C1475 C 0.19447 0.33385 0.40049 0.0
C1476 C 0.21938 0.35079 0.37288 0.0
H1477 H 0.15072 0.32149 0.41353 0.0
H1478 H 0.19381 0.31941 0.42813 0.0
C1479 C 0.21887 0.3684 0.3365 0.0
C1480 C 0.71059 0.843 0.39247 0.0
C1481 C 0.69258 0.82487 0.35651 0.0
H1482 H 0.72629 0.88253 0.42873 0.0
C1483 C 0.67546 0.83288 0.32961 0.0
H1484 H 0.72377 0.83717 0.41365 0.0
C1485 C 0.67641 0.85859 0.33859 0.0
C1486 C 0.6944 0.87671 0.37458 0.0
H1487 H 0.66071 0.81908 0.30233 0.0
H1488 H 0.66321 0.86441 0.31744 0.0
C1489 C 0.71154 0.86872 0.40145 0.0
C1490 C 0.21414 0.85767 0.40289 0.0
C1491 C 0.21742 0.8768 0.36575 0.0
H1492 H 0.18722 0.81644 0.43423 0.0
C1493 C 0.19626 0.8685 0.33019 0.0
H1494 H 0.23076 0.86321 0.4296 0.0
C1495 C 0.17204 0.84151 0.33186 0.0
C1496 C 0.16863 0.82248 0.36928 0.0
H1497 H 0.19894 0.88278 0.3006 0.0
H1498 H 0.15538 0.83602 0.30525 0.0
C1499 C 0.18994 0.83068 0.40453 0.0
C1500 C 0.71467 0.85427 0.8974 0.0
C1501 C 0.69697 0.82905 0.87113 0.0
H1502 H 0.7277 0.89831 0.909 0.0
C1503 C 0.67954 0.8295 0.83445 0.0
H1504 H 0.7291 0.85494 0.92505 0.0
C1505 C 0.67926 0.85454 0.82484 0.0
C1506 C 0.69646 0.87963 0.85186 0.0
H1507 H 0.666 0.81042 0.81362 0.0
H1508 H 0.66465 0.85371 0.79738 0.0
C1509 C 0.71437 0.87932 0.88783 0.0
C1510 C 0.16763 0.84534 0.8338 0.0
C1511 C 0.15929 0.82382 0.86872 0.0
H1512 H 0.20065 0.88591 0.80853 0.0
C1513 C 0.17839 0.82675 0.90569 0.0
H1514 H 0.15335 0.84299 0.80443 0.0
C1515 C 0.20566 0.85055 0.90696 0.0
C1516 C 0.21419 0.87179 0.8715 0.0
H1517 H 0.17278 0.80992 0.93204 0.0
H1518 H 0.22006 0.85277 0.93606 0.0
C1519 C 0.19492 0.86915 0.83508 0.0
C1520 C 0.1726 0.33603 0.82896 0.0
C1521 C 0.17002 0.35232 0.86619 0.0
H1522 H 0.19858 0.32068 0.79716 0.0
C1523 C 0.19146 0.36493 0.90131 0.0
H1524 H 0.15574 0.32516 0.80256 0.0
C1525 C 0.21518 0.36135 0.89935 0.0
C1526 C 0.21787 0.34523 0.86194 0.0
H1527 H 0.18932 0.37687 0.93096 0.0
H1528 H 0.23205 0.3723 0.92571 0.0
C1529 C 0.19636 0.33249 0.82694 0.0
C1530 C 0.85503 0.6997 0.73748 0.0
C1531 C 0.83683 0.68446 0.69894 0.0
H1532 H 0.8955 0.71355 0.77139 0.0
C1533 C 0.84605 0.67227 0.66356 0.0
H1534 H 0.84877 0.71025 0.76416 0.0
C1535 C 0.87302 0.67511 0.66672 0.0
C1536 C 0.89113 0.69011 0.70552 0.0
H1537 H 0.83248 0.66111 0.63299 0.0
H1538 H 0.87917 0.66444 0.64013 0.0
C1539 C 0.88201 0.70254 0.74065 0.0
C1540 C 0.37348 0.18198 0.66562 0.0
C1541 C 0.3604 0.16082 0.70116 0.0
H1542 H 0.38171 0.22267 0.63997 0.0
C1543 C 0.34401 0.16393 0.7376 0.0
H1544 H 0.38555 0.17946 0.6366 0.0
C1545 C 0.34094 0.188 0.73857 0.0
C1546 C 0.35423 0.20928 0.70325 0.0
H1547 H 0.33279 0.14732 0.7643 0.0
H1548 H 0.32908 0.19066 0.76782 0.0
C1549 C 0.37036 0.206 0.66653 0.0
C1550 C 0.87899 0.18534 0.66225 0.0
C1551 C 0.88682 0.21005 0.69032 0.0
H1552 H 0.84795 0.14152 0.64903 0.0
C1553 C 0.86889 0.20903 0.72755 0.0
H1554 H 0.89263 0.18502 0.63394 0.0
C1555 C 0.84354 0.18385 0.73653 0.0
C1556 C 0.83564 0.15918 0.7083 0.0
H1557 H 0.87456 0.22769 0.74968 0.0
H1558 H 0.8299 0.18419 0.76481 0.0
C1559 C 0.85364 0.16017 0.67121 0.0
C1560 C 1.01031 0.52268 0.57271 0.0
C1561 C 1.02624 0.54212 0.53592 0.0
H1562 H 0.99607 0.48122 0.60309 0.0
C1563 C 0.03916 0.53409 0.49995 0.0
H1564 H 0.99923 0.52802 0.5998 0.0
C1565 C 0.03633 0.50708 0.50074 0.0
C1566 C 1.02068 0.48775 0.53782 0.0
H1567 H 0.05089 0.54863 0.47069 0.0
H1568 H 0.04755 0.50182 0.47379 0.0
C1569 C 1.00755 0.49567 0.57359 0.0
C1570 C 0.53087 0.53629 0.50099 0.0
C1571 C 0.54997 0.53931 0.538 0.0
H1572 H 0.48963 0.50966 0.46966 0.0
C1573 C 0.54153 0.51812 0.57354 0.0
H1574 H 0.53653 0.55298 0.47436 0.0
C1575 C 0.51448 0.49401 0.57182 0.0
C1576 C 0.49553 0.49078 0.53439 0.0
H1577 H 0.55578 0.52065 0.60308 0.0
H1578 H 0.50891 0.47725 0.5983 0.0
C1579 C 0.50381 0.51223 0.49935 0.0
C1580 C 0.54472 0.03486 0.49692 0.0
C1581 C 0.55273 1.01746 0.523 0.0
H1582 H 0.51332 0.04746 0.48624 0.0
C1583 C 0.53462 0.99916 0.55877 0.0
H1584 H 0.55851 0.04983 0.46981 0.0
C1585 C 0.509 0.99828 0.56851 0.0
C1586 C 0.50108 1.01579 0.54262 0.0
H1587 H 0.54043 0.98573 0.57929 0.0
H1588 H 0.49522 0.98337 0.59569 0.0
C1589 C 0.5191 0.03397 0.50666 0.0
C1590 C 0.54718 0.03451 0.07038 0.0
C1591 C 0.55509 0.02124 0.03488 0.0
H1592 H 0.51485 0.04296 0.09621 0.0
C1593 C 0.53562 1.0051 0.99834 0.0
H1594 H 0.56174 0.04636 0.09951 0.0
C1595 C 0.50857 1.0022 0.99752 0.0
C1596 C 0.50067 1.01547 1.033 0.0
H1597 H 0.54088 0.99374 0.97167 0.0
H1598 H 0.494 0.99033 0.96841 0.0
C1599 C 0.52013 0.03162 0.06954 0.0
C1600 C 0.99944 0.49866 1.01508 0.0
C1601 C 1.01967 0.49273 0.03637 0.0
H1602 H 0.98533 0.52909 1.00641 0.0
C1603 C 0.03932 0.51171 0.0696 0.0
H1604 H 0.98309 0.48357 0.99096 0.0
C1605 C 0.03987 0.53713 0.07948 0.0
C1606 C 1.02073 0.5439 0.05612 0.0
H1607 H 0.05464 0.50717 0.08677 0.0
H1608 H 0.05631 0.55202 0.10361 0.0
C1609 C 1.0002 0.52426 1.02453 0.0
C1610 C 0.5022 0.50487 0.99603 0.0
C1611 C 0.49886 0.48585 1.03343 0.0
H1612 H 0.52893 0.54622 0.96494 0.0
C1613 C 0.52016 0.49412 0.06873 0.0
H1614 H 0.48554 0.49931 0.96939 0.0
C1615 C 0.54423 0.52119 0.06723 0.0
C1616 C 0.54741 0.54032 1.03016 0.0
H1617 H 0.51748 0.47989 0.09842 0.0
H1618 H 0.56082 0.52681 0.09402 0.0
C1619 C 0.5263 0.53193 0.99449 0.0
C1620 C 0.36762 0.28328 0.99962 0.0
C1621 C 0.33812 0.26909 0.9868 0.0
H1622 H 0.41187 0.30503 0.97639 0.0
C1623 C 0.33188 0.26715 0.93714 0.0
H1624 H 0.37376 0.28557 0.03736 0.0
C1625 C 0.35406 0.27823 0.90204 0.0
C1626 C 0.38355 0.29212 0.9148 0.0
H1627 H 0.30983 0.25663 0.92522 0.0
H1628 H 0.34789 0.27575 0.8643 0.0
C1629 C 0.38982 0.29469 0.96451 0.0
C1630 C 0.77726 0.0717 0.93416 0.0
C1631 C 0.77486 0.0752 0.98404 0.0
H1632 H 0.76888 0.07986 0.86164 0.0
C1633 C 0.75999 0.08978 0.99746 0.0
H1634 H 0.78833 0.06078 0.92172 0.0
C1635 C 0.7484 0.10064 0.96286 0.0
C1636 C 0.75142 0.09777 0.91298 0.0
H1637 H 0.75728 0.09301 0.03535 0.0
H1638 H 0.73754 0.11175 0.97531 0.0
C1639 C 0.76598 0.08287 0.89954 0.0
C1640 C 0.94106 0.65428 0.96921 0.0
C1641 C 0.94446 0.66048 0.91943 0.0
H1642 H 0.94841 0.67045 0.04202 0.0
C1643 C 0.95993 0.68997 0.90653 0.0
H1644 H 0.92947 0.63225 0.98123 0.0
C1645 C 0.97118 0.71219 0.94152 0.0
C1646 C 0.96722 0.70603 0.99125 0.0
H1647 H 0.96338 0.69612 0.86875 0.0
H1648 H 0.98259 0.73423 0.92945 0.0
C1649 C 0.95202 0.67654 1.00423 0.0
C1650 C 0.29431 0.35783 0.56565 0.0
C1651 C 0.27988 0.32836 0.57881 0.0
H1652 H 0.31597 0.40217 0.58841 0.0
C1653 C 0.27742 0.32227 0.62856 0.0
H1654 H 0.29699 0.36385 0.52782 0.0
C1655 C 0.28824 0.34455 0.6634 0.0
C1656 C 0.30236 0.37403 0.65033 0.0
H1657 H 0.26669 0.30026 0.64074 0.0
H1658 H 0.28534 0.33845 0.7012 0.0
C1659 C 0.30544 0.38016 0.60054 0.0
C1660 C 0.66486 0.93482 0.60007 0.0
C1661 C 0.6705 0.93803 0.65001 0.0
H1662 H 0.68178 0.94242 0.52776 0.0
C1663 C 0.69988 0.95352 0.66372 0.0
H1664 H 0.64296 0.92323 0.58742 0.0
C1665 C 0.7225 0.96493 0.62935 0.0
C1666 C 0.71688 0.96112 0.57944 0.0
H1667 H 0.70561 0.95683 0.70167 0.0
H1668 H 0.7444 0.9763 0.64202 0.0
C1669 C 0.6875 0.94593 0.5657 0.0
C1670 C 0.10132 0.75244 0.57003 0.0
C1671 C 0.08609 0.76673 0.58291 0.0
H1672 H 0.12332 0.73019 0.5931 0.0
C1673 C 0.08135 0.76826 0.63256 0.0
H1674 H 0.10546 0.7504 0.5323 0.0
C1675 C 0.09197 0.75671 0.66759 0.0
C1676 C 0.10751 0.74272 0.65475 0.0
H1677 H 0.06983 0.77881 0.64452 0.0
H1678 H 0.08799 0.75891 0.70533 0.0
C1679 C 0.11163 0.74057 0.60504 0.0
C1680 C 0.66365 0.73934 0.10168 0.0
C1681 C 0.66932 0.7415 0.15157 0.0
H1682 H 0.68057 0.74907 1.02944 0.0
C1683 C 0.69865 0.7553 0.16538 0.0
H1684 H 0.64175 0.72906 0.08903 0.0
C1685 C 0.72126 0.7667 0.13105 0.0
C1686 C 0.71561 0.76522 0.0812 0.0
H1687 H 0.70434 0.75746 0.20333 0.0
H1688 H 0.74317 0.77715 0.1437 0.0
C1689 C 0.68626 0.75108 0.06738 0.0
C1690 C 0.29244 0.94212 0.06949 0.0
C1691 C 0.2781 0.95737 0.08181 0.0
H1692 H 0.31465 0.92025 0.09346 0.0
C1693 C 0.27636 0.96224 0.13136 0.0
H1694 H 0.29459 0.93789 1.03186 0.0
C1695 C 0.28771 0.95166 0.16685 0.0
C1696 C 0.30178 0.93615 0.15457 0.0
H1697 H 0.26573 0.97375 0.1429 0.0
H1698 H 0.28531 0.95567 0.2045 0.0
C1699 C 0.30421 0.93196 0.10496 0.0
C1700 C 0.11171 0.38044 0.10007 0.0
C1701 C 0.10801 0.37451 0.14991 0.0
H1702 H 0.10509 0.36397 1.02756 0.0
C1703 C 0.09265 0.34506 0.16321 0.0
H1704 H 0.1232 0.40242 0.08774 0.0
C1705 C 0.08182 0.32263 0.12848 0.0
C1706 C 0.0862 0.32857 0.07869 0.0
H1707 H 0.089 0.33914 0.20107 0.0
H1708 H 0.0705 0.30065 0.1408 0.0
C1709 C 0.10123 0.35802 0.0654 0.0
C1710 C 0.76213 0.67912 0.49918 0.0
C1711 C 0.7766 0.70861 0.48626 0.0
H1712 H 0.73987 0.63485 0.47626 0.0
C1713 C 0.77847 0.71481 0.43653 0.0
H1714 H 0.75981 0.673 0.53695 0.0
C1715 C 0.76713 0.69256 0.4015 0.0
C1716 C 0.75298 0.66307 0.41446 0.0
H1717 H 0.7892 0.73685 0.42452 0.0
H1718 H 0.76962 0.69863 0.36371 0.0
C1719 C 0.75043 0.65689 0.46421 0.0
C1720 C 0.33301 0.07403 0.43943 0.0
C1721 C 0.33924 0.07804 0.48914 0.0
H1722 H 0.34902 0.08181 0.36656 0.0
C1723 C 0.36874 0.09321 0.50197 0.0
H1724 H 0.31096 0.06262 0.4275 0.0
C1725 C 0.39095 0.1041 0.46682 0.0
C1726 C 0.38468 0.10072 0.41708 0.0
H1727 H 0.37486 0.09683 0.53973 0.0
H1728 H 0.413 0.11567 0.47871 0.0
C1729 C 0.35519 0.08527 0.40431 0.0
C1730 C 0.97323 0.26932 0.43396 0.0
C1731 C 0.96999 0.2718 0.4839 0.0
H1732 H 0.96465 0.27752 0.36164 0.0
C1733 C 0.95535 0.28655 0.49766 0.0
H1734 H 0.98418 0.25834 0.42128 0.0
C1735 C 0.94421 0.29799 0.46329 0.0
C1736 C 0.94685 0.29491 0.41335 0.0
H1737 H 0.95231 0.28929 0.53562 0.0
H1738 H 0.93308 0.30879 0.47597 0.0
C1739 C 0.96178 0.28044 0.3996 0.0
C1740 C 1.0218 0.61587 0.24075 0.0
C1741 C 0.05119 0.62877 0.25375 0.0
H1742 H 0.9775 0.59472 0.26345 0.0
C1743 C 0.05723 0.62997 0.30343 0.0
H1744 H 1.01582 0.61443 0.20302 0.0
C1745 C 0.03486 0.61818 0.33824 0.0
C1746 C 1.00545 0.60498 0.32514 0.0
H1747 H 0.0792 0.63947 0.31546 0.0
H1748 H 0.0408 0.6194 0.37595 0.0
C1749 C 0.99947 0.60442 0.27556 0.0
C1750 C 0.42647 0.4244 0.33231 0.0
C1751 C 0.44139 0.40984 0.31921 0.0
H1752 H 0.40393 0.44617 0.3095 0.0
C1753 C 0.44396 0.40623 0.26944 0.0
H1754 H 0.42367 0.42769 0.37013 0.0
C1755 C 0.43272 0.41724 0.23453 0.0
C1756 C 0.41805 0.43206 0.2476 0.0
H1757 H 0.45506 0.39529 0.25731 0.0
H1758 H 0.43568 0.41409 0.19672 0.0
C1759 C 0.4149 0.43509 0.29739 0.0
C1760 C 0.63945 0.04801 0.26713 0.0
C1761 C 0.63687 0.04203 0.31698 0.0
H1762 H 0.63026 0.0316 0.19451 0.0
C1763 C 0.62286 1.01256 0.33016 0.0
H1764 H 0.64987 0.07 0.25487 0.0
C1765 C 0.6117 0.99019 0.29537 0.0
C1766 C 0.61365 0.99615 0.24555 0.0
H1767 H 0.62034 1.00658 0.368 0.0
H1768 H 0.60109 0.96819 0.30765 0.0
C1769 C 0.62795 0.02562 0.23235 0.0
C1770 C 0.41535 0.9877 0.8007 0.0
C1771 C 0.41775 0.99368 0.75089 0.0
H1772 H 0.42489 1.00418 0.87322 0.0
C1773 C 0.43171 0.0231 0.73754 0.0
H1774 H 0.40493 0.96572 0.813 0.0
C1775 C 0.44305 0.04549 0.77223 0.0
C1776 C 0.44136 0.03952 0.82199 0.0
H1777 H 0.43404 0.02902 0.69968 0.0
H1778 H 0.45364 0.06747 0.75991 0.0
C1779 C 0.42706 1.0101 0.83537 0.0
C1780 C 1.02103 0.41668 0.7346 0.0
C1781 C 0.05052 0.43273 0.74743 0.0
H1782 H 0.97675 0.39359 0.7576 0.0
C1783 C 0.05667 0.43661 0.79717 0.0
H1784 H 1.01492 0.41283 0.69684 0.0
C1785 C 0.03438 0.42563 0.83218 0.0
C1786 C 1.00488 0.40992 0.8193 0.0
H1787 H 0.07868 0.44865 0.80915 0.0
H1788 H 0.04046 0.42968 0.86993 0.0
C1789 C 0.99877 0.40539 0.76962 0.0
C1790 C 0.6085 0.62907 0.79701 0.0
C1791 C 0.61178 0.62571 0.74738 0.0
H1792 H 0.61542 0.62048 0.87019 0.0
C1793 C 0.6268 0.61112 0.73512 0.0
H1794 H 0.59723 0.63995 0.80853 0.0
C1795 C 0.63769 0.60008 0.77064 0.0
C1796 C 0.63369 0.60271 0.82025 0.0
H1797 H 0.63012 0.608 0.69746 0.0
H1798 H 0.64871 0.58896 0.7591 0.0
C1799 C 0.61901 0.61764 0.83254 0.0
C1800 C 0.2194 0.23706 0.29672 0.0
C1801 C 0.23084 0.22771 0.33411 0.0
H1802 H 0.21557 0.24234 0.22007 0.0
C1803 C 0.24436 0.21237 0.31973 0.0
H1804 H 0.2092 0.24937 0.3059 0.0
C1805 C 0.24827 0.20864 0.27004 0.0
C1806 C 0.23848 0.21967 0.23263 0.0
H1807 H 0.25408 0.20537 0.34668 0.0
H1808 H 0.26074 0.19861 0.26084 0.0
C1809 C 0.22292 0.23294 0.24704 0.0
C1810 C 0.81143 0.99737 0.24672 0.0
C1811 C 0.82416 0.02605 0.23164 0.0
H1812 H 0.79588 0.96768 0.30628 0.0
C1813 C 0.83504 0.04715 0.26868 0.0
H1814 H 0.80214 0.98038 0.22012 0.0
C1815 C 0.83179 0.03992 0.31858 0.0
C1816 C 0.81707 1.01119 0.33368 0.0
H1817 H 0.84464 0.06954 0.25904 0.0
H1818 H 0.8387 0.05685 0.34517 0.0
C1819 C 0.80777 0.99013 0.29663 0.0
C1820 C 0.04782 0.82178 0.24939 0.0
C1821 C 1.01885 0.80673 0.23578 0.0
H1822 H 0.07839 0.83533 0.30747 0.0
C1823 C 0.99834 0.7977 0.27367 0.0
H1824 H 0.06432 0.82851 0.22199 0.0
C1825 C 1.00638 0.80191 0.32313 0.0
C1826 C 0.03531 0.8149 0.33675 0.0
H1827 H 0.97576 0.78561 0.26505 0.0
H1828 H 0.98984 0.79282 0.35055 0.0
C1829 C 0.05585 0.82555 0.29885 0.0
C1830 C 0.8343 0.79555 0.77168 0.0
C1831 C 0.82351 0.80584 0.7347 0.0
H1832 H 0.83769 0.78936 0.84815 0.0
C1833 C 0.81072 0.82176 0.74967 0.0
H1834 H 0.84398 0.78282 0.76204 0.0
C1835 C 0.80686 0.82521 0.79951 0.0
C1836 C 0.81605 0.81336 0.83648 0.0
H1837 H 0.80154 0.82953 0.72302 0.0
H1838 H 0.79491 0.83572 0.80916 0.0
C1839 C 0.83088 0.79942 0.82152 0.0
C1840 C 0.24331 0.03705 0.82151 0.0
C1841 C 0.23035 1.00806 0.83483 0.0
H1842 H 0.25959 0.06797 0.7638 0.0
C1843 C 0.21985 0.98772 0.79665 0.0
H1844 H 0.25225 0.05347 0.84912 0.0
C1845 C 0.22368 0.996 0.74727 0.0
C1846 C 0.23864 0.02504 0.73396 0.0
H1847 H 0.21003 0.96514 0.80497 0.0
H1848 H 0.21699 0.97964 0.71967 0.0
C1849 C 0.24759 0.04534 0.77213 0.0
C1850 C 1.00032 0.21097 0.76638 0.0
C1851 C 1.02128 0.22284 0.72919 0.0
H1852 H 0.99078 0.20664 0.84297 0.0
C1853 C 0.05006 0.23688 0.74396 0.0
H1854 H 0.97785 0.2004 0.75694 0.0
C1855 C 0.05743 0.24077 0.79378 0.0
C1856 C 0.03642 0.23041 0.83099 0.0
H1857 H 0.06691 0.24698 0.71722 0.0
H1858 H 0.07984 0.25357 0.80323 0.0
C1859 C 1.0077 0.21444 0.81619 0.0
C1860 C 0.9092 0.54782 0.65604 0.0
C1861 C 0.89658 0.56405 0.67015 0.0
H1862 H 0.92499 0.53323 0.59747 0.0
C1863 C 0.88605 0.57423 0.63259 0.0
H1864 H 0.91815 0.54009 0.68318 0.0
C1865 C 0.88961 0.56999 0.583 0.0
C1866 C 0.9043 0.55576 0.5689 0.0
H1867 H 0.8765 0.58716 0.64158 0.0
H1868 H 0.883 0.57997 0.55588 0.0
C1869 C 0.91318 0.54399 0.60645 0.0
C1870 C 0.47493 0.32923 0.57836 0.0
C1871 C 0.48935 0.35818 0.56453 0.0
H1872 H 0.45729 0.29879 0.63661 0.0
C1873 C 0.50089 0.37872 0.60232 0.0
H1874 H 0.46507 0.31272 0.55105 0.0
C1875 C 0.49673 0.37076 0.65184 0.0
C1876 C 0.48036 0.34189 0.66566 0.0
H1877 H 0.51173 0.4013 0.59354 0.0
H1878 H 0.50434 0.38737 0.67914 0.0
C1879 C 0.47034 0.32129 0.62788 0.0
C1880 C 0.66576 0.13057 0.60197 0.0
C1881 C 0.68684 0.14046 0.56487 0.0
H1882 H 0.65604 0.12459 0.67848 0.0
C1883 C 0.71555 0.15587 0.5799 0.0
H1884 H 0.64333 0.11817 0.59237 0.0
C1885 C 0.7228 0.15925 0.62978 0.0
C1886 C 0.70172 0.14781 0.66688 0.0
H1887 H 0.73252 0.16326 0.55325 0.0
H1888 H 0.74523 0.16938 0.63937 0.0
C1889 C 0.673 0.13435 0.65185 0.0
C1890 C 0.49771 0.13404 0.15421 0.0
C1891 C 0.48223 0.14738 0.16876 0.0
H1892 H 0.5113 0.11759 0.09518 0.0
C1893 C 0.47238 0.15842 0.13149 0.0
H1894 H 0.50509 0.12464 0.18111 0.0
C1895 C 0.47624 0.15473 0.08176 0.0
C1896 C 0.48971 0.13937 0.06723 0.0
H1897 H 0.45996 0.16848 0.14083 0.0
H1898 H 0.46654 0.16181 0.0549 0.0
C1899 C 0.50113 0.12991 0.10448 0.0
C1900 C 0.9115 0.37398 0.15251 0.0
C1901 C 0.89749 0.34526 0.16763 0.0
H1902 H 0.92822 0.40357 0.09296 0.0
C1903 C 0.88582 0.32416 0.13066 0.0
H1904 H 0.92146 0.39092 0.17909 0.0
C1905 C 0.88946 0.33136 0.08077 0.0
C1906 C 0.9054 0.36004 0.06565 0.0
H1907 H 0.87526 0.30172 0.14037 0.0
H1908 H 0.88175 0.31435 0.05422 0.0
C1909 C 0.91552 0.38118 0.10261 0.0
C1910 C 0.6712 0.54814 0.15561 0.0
C1911 C 0.70022 0.56297 0.16906 0.0
H1912 H 0.64044 0.53453 0.09778 0.0
C1913 C 0.72058 0.57187 0.13095 0.0
H1914 H 0.65479 0.54151 0.18315 0.0
C1915 C 0.71238 0.56759 0.08153 0.0
C1916 C 0.68342 0.55469 0.06803 0.0
H1917 H 0.7432 0.58379 0.13935 0.0
H1918 H 0.72887 0.57641 0.05399 0.0
C1919 C 0.66301 0.54431 0.10617 0.0
C1920 C 0.55637 0.90226 0.91186 0.0
C1921 C 0.57152 0.88859 0.89718 0.0
H1922 H 0.543 0.91892 0.97093 0.0
C1923 C 0.58113 0.87734 0.93454 0.0
H1924 H 0.54921 0.91189 0.88499 0.0
C1925 C 0.5773 0.88106 0.98433 0.0
C1926 C 0.5641 0.89668 0.99898 0.0
H1927 H 0.59334 0.86706 0.92521 0.0
H1928 H 0.58679 0.87374 1.01117 0.0
C1929 C 0.55296 0.9064 0.96164 0.0
C1930 C 0.16298 0.7063 0.98977 0.0
C1931 C 0.14784 0.67753 1.00456 0.0
H1932 H 0.17611 0.73611 0.93054 0.0
C1933 C 0.13809 0.65653 0.96744 0.0
H1934 H 0.17026 0.72317 1.01655 0.0
C1935 C 0.1417 0.6639 0.91765 0.0
C1936 C 0.15482 0.69266 0.90291 0.0
H1937 H 0.1259 0.63407 0.97696 0.0
H1938 H 0.13208 0.64702 0.89093 0.0
C1939 C 0.16618 0.71367 0.94 0.0
C1940 C 0.3863 0.48987 0.96373 0.0
C1941 C 0.36552 0.47819 1.00117 0.0
H1942 H 0.39544 0.49381 0.88707 0.0
C1943 C 0.33666 0.46396 0.98691 0.0
H1944 H 0.40883 0.50059 0.97286 0.0
C1945 C 0.32902 0.45971 0.93726 0.0
C1946 C 0.34986 0.46988 0.89982 0.0
H1947 H 0.31997 0.45402 1.01396 0.0
H1948 H 0.30656 0.44686 0.92817 0.0
C1949 C 0.37865 0.48605 0.91411 0.0
C1950 C 0.13641 0.49178 0.46011 0.0
C1951 C 0.14676 0.48133 0.49757 0.0
H1952 H 0.13069 0.49504 0.38341 0.0
C1953 C 0.16318 0.46896 0.48315 0.0
H1954 H 0.12335 0.50118 0.46923 0.0
C1955 C 0.16712 0.46522 0.43346 0.0
C1956 C 0.15531 0.47413 0.396 0.0
H1957 H 0.17109 0.46011 0.51014 0.0
H1958 H 0.17807 0.45363 0.4243 0.0
C1959 C 0.14076 0.48846 0.41041 0.0
C1960 C 0.55575 0.66082 0.41151 0.0
C1961 C 0.56953 0.68964 0.39694 0.0
H1962 H 0.54381 0.63092 0.47044 0.0
C1963 C 0.57824 0.71043 0.43431 0.0
H1964 H 0.54938 0.64414 0.38458 0.0
C1965 C 0.57487 0.70289 0.48405 0.0
C1966 C 0.56309 0.67421 0.4986 0.0
H1967 H 0.58942 0.73294 0.42501 0.0
H1968 H 0.58355 0.71975 0.51092 0.0
C1969 C 0.55279 0.6533 0.46125 0.0
C1970 C 0.3872 0.90392 0.46763 0.0
C1971 C 0.36612 0.89463 0.50464 0.0
H1972 H 0.397 0.90974 0.39117 0.0
C1973 C 0.33738 0.88011 0.48963 0.0
H1974 H 0.40965 0.91565 0.47729 0.0
C1975 C 0.33018 0.87707 0.43979 0.0
C1976 C 0.35133 0.88801 0.40279 0.0
H1977 H 0.32047 0.87323 0.51628 0.0
H1978 H 0.30781 0.8676 0.43019 0.0
C1979 C 0.37999 0.90048 0.41777 0.0
C1980 C 0.31756 0.3346 0.16252 0.0
C1981 C 0.30317 0.31974 0.12063 0.0
H1982 H 0.34373 0.3756 0.19519 0.0
C1983 C 0.3018 0.33489 0.08035 0.0
H1984 H 0.31889 0.32327 0.19387 0.0
C1985 C 0.31659 0.36475 0.08072 0.0
C1986 C 0.33193 0.37946 0.12193 0.0
H1987 H 0.29101 0.32377 0.04752 0.0
H1988 H 0.31695 0.37632 0.04844 0.0
C1989 C 0.33162 0.36435 0.16332 0.0
C1990 C 0.67929 0.95874 0.15046 0.0
C1991 C 0.66427 0.96165 0.1114 0.0
H1992 H 0.72062 0.97273 0.18198 0.0
C1993 C 0.67936 0.97797 0.07101 0.0
H1994 H 0.66803 0.94644 0.18217 0.0
C1995 C 0.7091 0.99238 0.07069 0.0
C1996 C 0.72404 0.991 0.11101 0.0
H1997 H 0.66819 0.98051 0.04055 0.0
H1998 H 0.72048 1.00588 0.04007 0.0
C1999 C 0.70918 0.97374 0.15055 0.0
C2000 C 0.06644 0.7395 0.07988 0.0
C2001 C 0.05411 0.74249 0.12265 0.0
H2002 H 0.08932 0.72086 0.04691 0.0
C2003 C 0.05905 0.73292 0.16671 0.0
H2004 H 0.06252 0.74655 0.04547 0.0
C2005 C 0.07518 0.71929 0.16768 0.0
C2006 C 0.08556 0.71432 0.12438 0.0
H2007 H 0.04955 0.73501 0.19993 0.0
H2008 H 0.07772 0.71076 0.20164 0.0
C2009 C 0.08166 0.72491 0.0806 0.0
C2010 C 0.37602 0.31611 0.49269 0.0
C2011 C 0.39061 0.32308 0.44843 0.0
H2012 H 0.33515 0.29631 0.52776 0.0
C2013 C 0.37533 0.31343 0.40493 0.0
H2014 H 0.38761 0.32365 0.52647 0.0
C2015 C 0.34551 0.2988 0.40554 0.0
C2016 C 0.33093 0.29279 0.44975 0.0
H2017 H 0.38639 0.31901 0.37043 0.0
H2018 H 0.33388 0.29314 0.37164 0.0
C2019 C 0.34623 0.30051 0.49337 0.0
C2020 C 0.73998 0.0489 0.40354 0.0
C2021 C 0.75229 0.04662 0.4467 0.0
H2022 H 0.71496 0.06469 0.36962 0.0
C2023 C 0.75099 0.06074 0.48853 0.0
H2024 H 0.74067 0.03799 0.37106 0.0
C2025 C 0.73558 0.07518 0.48807 0.0
C2026 C 0.72237 0.0764 0.44535 0.0
H2027 H 0.76011 0.0589 0.52232 0.0
H2028 H 0.73313 0.08446 0.52125 0.0
C2029 C 0.72542 0.0641 0.40272 0.0
C2030 C 1.00542 0.70083 0.49653 0.0
C2031 C 1.00167 0.71565 0.45836 0.0
H2032 H 0.99487 0.66006 0.5255 0.0
C2033 C 0.98181 0.70075 0.42181 0.0
H2034 H 1.02083 0.71226 0.52492 0.0
C2035 C 0.96664 0.67086 0.42236 0.0
C2036 C 0.97178 0.6559 0.45899 0.0
H2037 H 0.9789 0.71214 0.3921 0.0
H2038 H 0.95231 0.65955 0.39266 0.0
C2039 C 0.99063 0.67111 0.49681 0.0
C2040 C 0.74058 0.6683 0.92957 0.0
C2041 C 0.71592 0.65373 0.95856 0.0
H2042 H 0.77434 0.70932 0.90542 0.0
C2043 C 0.70813 0.66935 0.9895 0.0
H2044 H 0.74703 0.65672 0.90542 0.0
C2045 C 0.72348 0.699 0.98903 0.0
C2046 C 0.74697 0.71345 0.95811 0.0
H2047 H 0.68942 0.65874 1.01254 0.0
H2048 H 0.71642 0.71072 1.01167 0.0
C2049 C 0.75611 0.6982 0.92937 0.0
C2050 C 0.34438 0.06509 0.97139 0.0
C2051 C 0.32983 0.03942 0.94492 0.0
H2052 H 0.38541 0.09969 0.99372 0.0
C2053 C 0.34558 0.03034 0.91699 0.0
H2054 H 0.33272 0.07256 0.99318 0.0
C2055 C 0.37522 0.04545 0.91804 0.0
C2056 C 0.38965 0.07011 0.94634 0.0
H2057 H 0.33507 1.01084 0.89585 0.0
H2058 H 0.38694 0.03743 0.89766 0.0
C2059 C 0.37433 0.0805 0.97193 0.0
C2060 C 0.96296 0.30166 0.93048 0.0
C2061 C 0.97402 0.32766 0.95596 0.0
H2062 H 0.96985 0.26723 0.90876 0.0
C2063 C 0.99942 0.33764 0.98255 0.0
H2064 H 0.9434 0.2935 0.90974 0.0
C2065 C 1.0145 0.32308 0.98105 0.0
C2066 C 1.00425 0.29804 0.95377 0.0
H2067 H 1.00843 0.35743 1.00287 0.0
H2068 H 0.03461 0.33176 1.00041 0.0
C2069 C 0.97801 0.28675 0.92967 0.0
C2070 C 0.70857 0.74931 0.63117 0.0
C2071 C 0.72381 0.73693 0.61158 0.0
H2072 H 0.66697 0.74322 0.64769 0.0
C2073 C 0.70923 0.71031 0.58865 0.0
H2074 H 0.71973 0.77003 0.64864 0.0
C2075 C 0.67961 0.69548 0.58694 0.0
C2076 C 0.66391 0.70671 0.60914 0.0
H2077 H 0.72082 0.70074 0.57262 0.0
H2078 H 0.66907 0.67458 0.56997 0.0
C2079 C 0.67858 0.73407 0.6304 0.0
C2080 C 0.31713 0.95964 0.5835 0.0
C2081 C 0.33299 0.96086 0.62431 0.0
H2082 H 0.29133 0.97477 0.55041 0.0
C2083 C 0.33347 0.97644 0.66516 0.0
H2084 H 0.31689 0.9478 0.55165 0.0
C2085 C 0.3196 0.99229 0.66419 0.0
C2086 C 0.30468 0.99218 0.62265 0.0
H2087 H 0.34597 0.97769 0.69671 0.0
H2088 H 0.32144 1.00547 0.69512 0.0
C2089 C 0.30258 0.97493 0.58296 0.0
C2090 C 0.07405 0.36775 0.56963 0.0
C2091 C 0.08458 0.38228 0.61347 0.0
H2092 H 0.05098 0.32693 0.53487 0.0
C2093 C 0.08206 0.36692 0.65595 0.0
H2094 H 0.07575 0.37935 0.53665 0.0
C2095 C 0.06716 0.33711 0.65524 0.0
C2096 C 0.05576 0.32264 0.6117 0.0
H2097 H 0.08982 0.37789 0.69021 0.0
H2098 H 0.06364 0.32538 0.68875 0.0
C2099 C 0.06009 0.33799 0.56863 0.0
C2100 C 1.00996 0.63381 0.74264 0.0
C2101 C 0.99565 0.626 0.78717 0.0
H2102 H 0.0506 0.65525 0.70681 0.0
C2103 C 1.01124 0.63163 0.8303 0.0
H2104 H 0.99814 0.62978 0.70913 0.0
C2105 C 0.04106 0.64701 0.82912 0.0
C2106 C 0.05535 0.6558 0.78468 0.0
H2107 H 1.00041 0.62603 0.86501 0.0
H2108 H 0.05291 0.65299 0.8628 0.0
C2109 C 0.03976 0.64821 0.74136 0.0
C2110 C 0.41673 0.39191 0.74478 0.0
C2111 C 0.41663 0.37738 0.78678 0.0
H2112 H 0.40138 0.41733 0.71076 0.0
C2113 C 0.40271 0.37892 0.82854 0.0
H2114 H 0.42723 0.39061 0.7122 0.0
C2115 C 0.3874 0.3934 0.82746 0.0
C2116 C 0.38648 0.40706 0.78492 0.0
H2117 H 0.40224 0.36746 0.86105 0.0
H2118 H 0.3754 0.393 0.85922 0.0
C2119 C 0.4021 0.40716 0.74411 0.0
C2120 C 0.65318 0.03226 0.82381 0.0
C2121 C 0.66516 0.04764 0.78098 0.0
H2122 H 0.63098 0.99071 0.85678 0.0
C2123 C 0.66037 0.03313 0.73691 0.0
H2124 H 0.65703 0.04322 0.85823 0.0
C2125 C 0.64472 1.00336 0.73596 0.0
C2126 C 0.63467 0.98799 0.77927 0.0
H2127 H 0.66966 0.04475 0.70365 0.0
H2128 H 0.64225 0.99234 0.70194 0.0
C2129 C 0.63844 1.00244 0.8231 0.0
C2130 C 0.39768 0.03344 0.32893 0.0
C2131 C 0.41662 0.04834 0.29116 0.0
H2132 H 0.36697 0.99264 0.35717 0.0
C2133 C 0.42165 0.03347 0.25454 0.0
H2134 H 0.39363 0.04484 0.35735 0.0
C2135 C 0.40665 1.00356 0.25462 0.0
C2136 C 0.38623 0.98857 0.29086 0.0
H2137 H 0.4362 0.0449 0.2251 0.0
H2138 H 0.40974 0.99229 0.22488 0.0
C2139 C 0.3825 1.00372 0.32875 0.0
C2140 C 1.01135 0.39068 0.23981 0.0
C2141 C 0.99707 0.38088 0.28401 0.0
H2142 H 0.052 0.41214 0.20407 0.0
C2143 C 1.01258 0.38703 0.32728 0.0
H2144 H 0.9995 0.38578 0.20619 0.0
C2145 C 0.04233 0.40106 0.32599 0.0
C2146 C 0.05665 0.40988 0.28159 0.0
H2147 H 1.00168 0.37916 0.3616 0.0
H2148 H 0.05409 0.40406 0.35929 0.0
C2149 C 0.04115 0.40569 0.2387 0.0
C2150 C 0.63898 0.64581 0.32422 0.0
C2151 C 0.63476 0.65589 0.28013 0.0
H2152 H 0.65833 0.62454 0.35994 0.0
C2153 C 0.64504 0.6506 0.23701 0.0
H2154 H 0.63138 0.65009 0.35777 0.0
C2155 C 0.66125 0.63705 0.23837 0.0
C2156 C 0.66637 0.62785 0.28267 0.0
H2157 H 0.64226 0.65872 0.2028 0.0
H2158 H 0.67058 0.63463 0.2052 0.0
C2159 C 0.65427 0.63129 0.32535 0.0
loop_
_geom_bond_atom_site_label_1
_geom_bond_atom_site_label_2
_geom_bond_distance
_geom_bond_site_symmetry_2
_ccdc_geom_bond_type
Co0 N5 2.057 . S
Co0 O17 2.021 . S
Co0 O20 2.062 . S
Co0 O24 2.117 1_554 S
Co0 O25 2.020 . S
C1 O21 1.259 1_556 S
C1 O24 1.258 . S
Co2 N11 2.057 . S
Co2 O18 2.117 . S
Co2 O19 2.020 . S
Co2 O21 2.021 . S
Co2 O26 2.062 . S
C3 N5 1.316 . S
C3 N6 1.347 1_554 S
C3 H8 0.931 . S
C4 N5 1.375 1_556 S
C4 C7 1.350 . S
C4 H9 0.930 . S
N5 Co0 2.057 . S
N5 C3 1.316 . S
N5 C4 1.375 1_554 S
N6 C3 1.347 1_556 S
N6 C7 1.373 . S
C7 C4 1.350 . S
C7 N6 1.373 . S
C7 H28 0.931 . S
H8 C3 0.931 . S
H9 C4 0.930 . S
C10 O17 1.259 . S
C10 O18 1.258 . S
N11 Co2 2.057 . S
N11 C12 1.316 . S
N11 C13 1.375 . S
C12 N11 1.316 . S
C12 N14 1.347 . S
C12 H23 0.931 . S
C13 N11 1.375 . S
C13 C15 1.350 . S
C13 H22 0.930 . S
N14 C12 1.347 . S
N14 C15 1.373 . S
C15 C13 1.350 . S
C15 N14 1.373 . S
C15 H29 0.931 . S
C16 O19 1.256 . S
C16 O20 1.255 . S
O17 Co0 2.021 . S
O17 C10 1.259 . S
O18 Co2 2.117 . S
O18 C10 1.258 . S
O19 Co2 2.020 . S
O19 C16 1.256 . S
O20 Co0 2.062 . S
O20 C16 1.255 . S
O21 C1 1.259 1_554 S
O21 Co2 2.021 . S
H22 C13 0.930 . S
H23 C12 0.931 . S
O24 Co0 2.117 1_556 S
O24 C1 1.258 . S
O25 Co0 2.020 . S
O25 C27 1.256 . S
O26 Co2 2.062 . S
O26 C27 1.255 . S
C27 O25 1.256 . S
C27 O26 1.255 . S
H28 C7 0.931 . S
H29 C15 0.931 . S
Co30 N35 2.057 1_545 S
Co30 O47 2.021 1_545 S
Co30 O50 2.062 1_545 S
Co30 O54 2.117 1_554 S
Co30 O55 2.020 . S
C31 O51 1.259 1_556 S
C31 O54 1.258 . S
Co32 N41 2.057 . S
Co32 O48 2.117 . S
Co32 O49 2.020 . S
Co32 O51 2.021 . S
Co32 O56 2.062 . S
C33 N35 1.316 . S
C33 N36 1.347 1_554 S
C33 H38 0.931 . S
C34 N35 1.375 1_556 S
C34 C37 1.350 . S
C34 H39 0.930 . S
N35 Co30 2.057 1_565 S
N35 C33 1.316 . S
N35 C34 1.375 1_554 S
N36 C33 1.347 1_556 S
N36 C37 1.373 . S
C37 C34 1.350 . S
C37 N36 1.373 . S
C37 H58 0.931 . S
H38 C33 0.931 . S
H39 C34 0.930 . S
C40 O47 1.259 1_545 S
C40 O48 1.258 . S
N41 Co32 2.057 . S
N41 C42 1.316 . S
N41 C43 1.375 . S
C42 N41 1.316 . S
C42 N44 1.347 . S
C42 H53 0.931 . S
C43 N41 1.375 . S
C43 C45 1.350 . S
C43 H52 0.930 . S
N44 C42 1.347 . S
N44 C45 1.373 . S
C45 C43 1.350 . S
C45 N44 1.373 . S
C45 H59 0.931 . S
C46 O49 1.256 1_565 S
C46 O50 1.255 . S
O47 Co30 2.021 1_565 S
O47 C40 1.259 1_565 S
O48 Co32 2.117 . S
O48 C40 1.258 . S
O49 Co32 2.020 . S
O49 C46 1.256 1_545 S
O50 Co30 2.062 1_565 S
O50 C46 1.255 . S
O51 C31 1.259 1_554 S
O51 Co32 2.021 . S
H52 C43 0.930 . S
H53 C42 0.931 . S
O54 Co30 2.117 1_556 S
O54 C31 1.258 . S
O55 Co30 2.020 . S
O55 C57 1.256 . S
O56 Co32 2.062 . S
O56 C57 1.255 . S
C57 O55 1.256 . S
C57 O56 1.255 . S
H58 C37 0.931 . S
H59 C45 0.931 . S
Co60 N65 2.057 1_655 S
Co60 O77 2.021 1_655 S
Co60 O80 2.062 1_655 S
Co60 O84 2.117 1_554 S
Co60 O85 2.020 . S
C61 O81 1.259 1_556 S
C61 O84 1.258 . S
Co62 N71 2.057 . S
Co62 O78 2.117 . S
Co62 O79 2.020 . S
Co62 O81 2.021 . S
Co62 O86 2.062 . S
C63 N65 1.316 . S
C63 N66 1.347 1_554 S
C63 H68 0.931 . S
C64 N65 1.375 1_556 S
C64 C67 1.350 . S
C64 H69 0.930 . S
N65 Co60 2.057 1_455 S
N65 C63 1.316 . S
N65 C64 1.375 1_554 S
N66 C63 1.347 1_556 S
N66 C67 1.373 . S
C67 C64 1.350 . S
C67 N66 1.373 . S
C67 H88 0.931 . S
H68 C63 0.931 . S
H69 C64 0.930 . S
C70 O77 1.259 1_655 S
C70 O78 1.258 . S
N71 Co62 2.057 . S
N71 C72 1.316 . S
N71 C73 1.375 . S
C72 N71 1.316 . S
C72 N74 1.347 . S
C72 H83 0.931 . S
C73 N71 1.375 . S
C73 C75 1.350 . S
C73 H82 0.930 . S
N74 C72 1.347 . S
N74 C75 1.373 . S
C75 C73 1.350 . S
C75 N74 1.373 . S
C75 H89 0.931 . S
C76 O79 1.256 1_455 S
C76 O80 1.255 . S
O77 Co60 2.021 1_455 S
O77 C70 1.259 1_455 S
O78 Co62 2.117 . S
O78 C70 1.258 . S
O79 Co62 2.020 . S
O79 C76 1.256 1_655 S
O80 Co60 2.062 1_455 S
O80 C76 1.255 . S
O81 C61 1.259 1_554 S
O81 Co62 2.021 . S
H82 C73 0.930 . S
H83 C72 0.931 . S
O84 Co60 2.117 1_556 S
O84 C61 1.258 . S
O85 Co60 2.020 . S
O85 C87 1.256 . S
O86 Co62 2.062 . S
O86 C87 1.255 . S
C87 O85 1.256 . S
C87 O86 1.255 . S
H88 C67 0.931 . S
H89 C75 0.931 . S
Co90 N95 2.057 . S
Co90 O107 2.021 . S
Co90 O110 2.062 . S
Co90 O114 2.117 . S
Co90 O115 2.020 . S
C91 O111 1.259 . S
C91 O114 1.258 . S
Co92 N101 2.057 . S
Co92 O108 2.117 . S
Co92 O109 2.020 . S
Co92 O111 2.021 . S
Co92 O116 2.062 . S
C93 N95 1.316 . S
C93 N96 1.347 . S
C93 H98 0.931 . S
C94 N95 1.375 . S
C94 C97 1.350 . S
C94 H99 0.930 . S
N95 Co90 2.057 . S
N95 C93 1.316 . S
N95 C94 1.375 . S
N96 C93 1.347 . S
N96 C97 1.373 . S
C97 C94 1.350 . S
C97 N96 1.373 . S
C97 H118 0.931 . S
H98 C93 0.931 . S
H99 C94 0.930 . S
C100 O107 1.259 . S
C100 O108 1.258 . S
N101 Co92 2.057 . S
N101 C102 1.316 . S
N101 C103 1.375 . S
C102 N101 1.316 . S
C102 N104 1.347 . S
C102 H113 0.931 . S
C103 N101 1.375 . S
C103 C105 1.350 . S
C103 H112 0.930 . S
N104 C102 1.347 . S
N104 C105 1.373 . S
C105 C103 1.350 . S
C105 N104 1.373 . S
C105 H119 0.931 . S
C106 O109 1.256 . S
C106 O110 1.255 . S
O107 Co90 2.021 . S
O107 C100 1.259 . S
O108 Co92 2.117 . S
O108 C100 1.258 . S
O109 Co92 2.020 . S
O109 C106 1.256 . S
O110 Co90 2.062 . S
O110 C106 1.255 . S
O111 C91 1.259 . S
O111 Co92 2.021 . S
H112 C103 0.930 . S
H113 C102 0.931 . S
O114 Co90 2.117 . S
O114 C91 1.258 . S
O115 Co90 2.020 . S
O115 C117 1.256 . S
O116 Co92 2.062 . S
O116 C117 1.255 . S
C117 O115 1.256 . S
C117 O116 1.255 . S
H118 C97 0.931 . S
H119 C105 0.931 . S
Co120 N125 2.057 1_565 S
Co120 O137 2.021 1_565 S
Co120 O140 2.062 1_565 S
Co120 O144 2.117 . S
Co120 O145 2.020 . S
C121 O141 1.259 . S
C121 O144 1.258 . S
Co122 N131 2.057 . S
Co122 O138 2.117 . S
Co122 O139 2.020 . S
Co122 O141 2.021 . S
Co122 O146 2.062 . S
C123 N125 1.316 . S
C123 N126 1.347 . S
C123 H128 0.931 . S
C124 N125 1.375 . S
C124 C127 1.350 . S
C124 H129 0.930 . S
N125 Co120 2.057 1_545 S
N125 C123 1.316 . S
N125 C124 1.375 . S
N126 C123 1.347 . S
N126 C127 1.373 . S
C127 C124 1.350 . S
C127 N126 1.373 . S
C127 H148 0.931 . S
H128 C123 0.931 . S
H129 C124 0.930 . S
C130 O137 1.259 1_565 S
C130 O138 1.258 . S
N131 Co122 2.057 . S
N131 C132 1.316 . S
N131 C133 1.375 . S
C132 N131 1.316 . S
C132 N134 1.347 . S
C132 H143 0.931 . S
C133 N131 1.375 . S
C133 C135 1.350 . S
C133 H142 0.930 . S
N134 C132 1.347 . S
N134 C135 1.373 . S
C135 C133 1.350 . S
C135 N134 1.373 . S
C135 H149 0.931 . S
C136 O139 1.256 1_545 S
C136 O140 1.255 . S
O137 Co120 2.021 1_545 S
O137 C130 1.259 1_545 S
O138 Co122 2.117 . S
O138 C130 1.258 . S
O139 Co122 2.020 . S
O139 C136 1.256 1_565 S
O140 Co120 2.062 1_545 S
O140 C136 1.255 . S
O141 C121 1.259 . S
O141 Co122 2.021 . S
H142 C133 0.930 . S
H143 C132 0.931 . S
O144 Co120 2.117 . S
O144 C121 1.258 . S
O145 Co120 2.020 . S
O145 C147 1.256 . S
O146 Co122 2.062 . S
O146 C147 1.255 . S
C147 O145 1.256 . S
C147 O146 1.255 . S
H148 C127 0.931 . S
H149 C135 0.931 . S
Co150 N155 2.057 1_455 S
Co150 O167 2.021 1_455 S
Co150 O170 2.062 1_455 S
Co150 O174 2.117 . S
Co150 O175 2.020 . S
C151 O171 1.259 . S
C151 O174 1.258 . S
Co152 N161 2.057 . S
Co152 O168 2.117 . S
Co152 O169 2.020 . S
Co152 O171 2.021 . S
Co152 O176 2.062 . S
C153 N155 1.316 . S
C153 N156 1.347 . S
C153 H158 0.931 . S
C154 N155 1.375 . S
C154 C157 1.350 . S
C154 H159 0.930 . S
N155 Co150 2.057 1_655 S
N155 C153 1.316 . S
N155 C154 1.375 . S
N156 C153 1.347 . S
N156 C157 1.373 . S
C157 C154 1.350 . S
C157 N156 1.373 . S
C157 H178 0.931 . S
H158 C153 0.931 . S
H159 C154 0.930 . S
C160 O167 1.259 1_455 S
C160 O168 1.258 . S
N161 Co152 2.057 . S
N161 C162 1.316 . S
N161 C163 1.375 . S
C162 N161 1.316 . S
C162 N164 1.347 . S
C162 H173 0.931 . S
C163 N161 1.375 . S
C163 C165 1.350 . S
C163 H172 0.930 . S
N164 C162 1.347 . S
N164 C165 1.373 . S
C165 C163 1.350 . S
C165 N164 1.373 . S
C165 H179 0.931 . S
C166 O169 1.256 1_655 S
C166 O170 1.255 . S
O167 Co150 2.021 1_655 S
O167 C160 1.259 1_655 S
O168 Co152 2.117 . S
O168 C160 1.258 . S
O169 Co152 2.020 . S
O169 C166 1.256 1_455 S
O170 Co150 2.062 1_655 S
O170 C166 1.255 . S
O171 C151 1.259 . S
O171 Co152 2.021 . S
H172 C163 0.930 . S
H173 C162 0.931 . S
O174 Co150 2.117 . S
O174 C151 1.258 . S
O175 Co150 2.020 . S
O175 C177 1.256 . S
O176 Co152 2.062 . S
O176 C177 1.255 . S
C177 O175 1.256 . S
C177 O176 1.255 . S
H178 C157 0.931 . S
H179 C165 0.931 . S
Co180 N185 2.057 . S
Co180 O197 2.021 . S
Co180 O200 2.062 . S
Co180 O204 2.117 . S
Co180 O205 2.020 . S
C181 O201 1.259 . S
C181 O204 1.258 . S
Co182 N191 2.057 . S
Co182 O198 2.117 1_556 S
Co182 O199 2.020 . S
Co182 O201 2.021 . S
Co182 O206 2.062 . S
C183 N185 1.316 . S
C183 N186 1.347 . S
C183 H188 0.931 . S
C184 N185 1.375 . S
C184 C187 1.350 . S
C184 H189 0.930 . S
N185 Co180 2.057 . S
N185 C183 1.316 . S
N185 C184 1.375 . S
N186 C183 1.347 . S
N186 C187 1.373 . S
C187 C184 1.350 . S
C187 N186 1.373 . S
C187 H208 0.931 . S
H188 C183 0.931 . S
H189 C184 0.930 . S
C190 O197 1.259 1_554 S
C190 O198 1.258 . S
N191 Co182 2.057 . S
N191 C192 1.316 . S
N191 C193 1.375 1_556 S
C192 N191 1.316 . S
C192 N194 1.347 1_556 S
C192 H203 0.931 . S
C193 N191 1.375 1_554 S
C193 C195 1.350 . S
C193 H202 0.930 . S
N194 C192 1.347 1_554 S
N194 C195 1.373 . S
C195 C193 1.350 . S
C195 N194 1.373 . S
C195 H209 0.931 . S
C196 O199 1.256 . S
C196 O200 1.255 . S
O197 Co180 2.021 . S
O197 C190 1.259 1_556 S
O198 Co182 2.117 1_554 S
O198 C190 1.258 . S
O199 Co182 2.020 . S
O199 C196 1.256 . S
O200 Co180 2.062 . S
O200 C196 1.255 . S
O201 C181 1.259 . S
O201 Co182 2.021 . S
H202 C193 0.930 . S
H203 C192 0.931 . S
O204 Co180 2.117 . S
O204 C181 1.258 . S
O205 Co180 2.020 . S
O205 C207 1.256 . S
O206 Co182 2.062 . S
O206 C207 1.255 . S
C207 O205 1.256 . S
C207 O206 1.255 . S
H208 C187 0.931 . S
H209 C195 0.931 . S
Co210 N215 2.057 . S
Co210 O227 2.021 . S
Co210 O230 2.062 . S
Co210 O234 2.117 . S
Co210 O235 2.020 . S
C211 O231 1.259 1_565 S
C211 O234 1.258 . S
Co212 N221 2.057 1_565 S
Co212 O228 2.117 1_556 S
Co212 O229 2.020 . S
Co212 O231 2.021 1_565 S
Co212 O236 2.062 1_565 S
C213 N215 1.316 . S
C213 N216 1.347 . S
C213 H218 0.931 . S
C214 N215 1.375 . S
C214 C217 1.350 . S
C214 H219 0.930 . S
N215 Co210 2.057 . S
N215 C213 1.316 . S
N215 C214 1.375 . S
N216 C213 1.347 . S
N216 C217 1.373 . S
C217 C214 1.350 . S
C217 N216 1.373 . S
C217 H238 0.931 . S
H218 C213 0.931 . S
H219 C214 0.930 . S
C220 O227 1.259 1_554 S
C220 O228 1.258 . S
N221 Co212 2.057 1_545 S
N221 C222 1.316 . S
N221 C223 1.375 1_556 S
C222 N221 1.316 . S
C222 N224 1.347 1_556 S
C222 H233 0.931 . S
C223 N221 1.375 1_554 S
C223 C225 1.350 . S
C223 H232 0.930 . S
N224 C222 1.347 1_554 S
N224 C225 1.373 . S
C225 C223 1.350 . S
C225 N224 1.373 . S
C225 H239 0.931 . S
C226 O229 1.256 . S
C226 O230 1.255 . S
O227 Co210 2.021 . S
O227 C220 1.259 1_556 S
O228 Co212 2.117 1_554 S
O228 C220 1.258 . S
O229 Co212 2.020 . S
O229 C226 1.256 . S
O230 Co210 2.062 . S
O230 C226 1.255 . S
O231 C211 1.259 1_545 S
O231 Co212 2.021 1_545 S
H232 C223 0.930 . S
H233 C222 0.931 . S
O234 Co210 2.117 . S
O234 C211 1.258 . S
O235 Co210 2.020 . S
O235 C237 1.256 1_565 S
O236 Co212 2.062 1_545 S
O236 C237 1.255 . S
C237 O235 1.256 1_545 S
C237 O236 1.255 . S
H238 C217 0.931 . S
H239 C225 0.931 . S
Co240 N245 2.057 . S
Co240 O257 2.021 . S
Co240 O260 2.062 . S
Co240 O264 2.117 . S
Co240 O265 2.020 . S
C241 O261 1.259 1_455 S
C241 O264 1.258 . S
Co242 N251 2.057 1_455 S
Co242 O258 2.117 1_556 S
Co242 O259 2.020 . S
Co242 O261 2.021 1_455 S
Co242 O266 2.062 1_455 S
C243 N245 1.316 . S
C243 N246 1.347 . S
C243 H248 0.931 . S
C244 N245 1.375 . S
C244 C247 1.350 . S
C244 H249 0.930 . S
N245 Co240 2.057 . S
N245 C243 1.316 . S
N245 C244 1.375 . S
N246 C243 1.347 . S
N246 C247 1.373 . S
C247 C244 1.350 . S
C247 N246 1.373 . S
C247 H268 0.931 . S
H248 C243 0.931 . S
H249 C244 0.930 . S
C250 O257 1.259 1_554 S
C250 O258 1.258 . S
N251 Co242 2.057 1_655 S
N251 C252 1.316 . S
N251 C253 1.375 1_556 S
C252 N251 1.316 . S
C252 N254 1.347 1_556 S
C252 H263 0.931 . S
C253 N251 1.375 1_554 S
C253 C255 1.350 . S
C253 H262 0.930 . S
N254 C252 1.347 1_554 S
N254 C255 1.373 . S
C255 C253 1.350 . S
C255 N254 1.373 . S
C255 H269 0.931 . S
C256 O259 1.256 . S
C256 O260 1.255 . S
O257 Co240 2.021 . S
O257 C250 1.259 1_556 S
O258 Co242 2.117 1_554 S
O258 C250 1.258 . S
O259 Co242 2.020 . S
O259 C256 1.256 . S
O260 Co240 2.062 . S
O260 C256 1.255 . S
O261 C241 1.259 1_655 S
O261 Co242 2.021 1_655 S
H262 C253 0.930 . S
H263 C252 0.931 . S
O264 Co240 2.117 . S
O264 C241 1.258 . S
O265 Co240 2.020 . S
O265 C267 1.256 1_455 S
O266 Co242 2.062 1_655 S
O266 C267 1.255 . S
C267 O265 1.256 1_655 S
C267 O266 1.255 . S
H268 C247 0.931 . S
H269 C255 0.931 . S
Co270 N275 2.057 . S
Co270 O287 2.021 . S
Co270 O290 2.062 . S
Co270 O294 2.117 . S
Co270 O295 2.020 . S
C271 O291 1.259 . S
C271 O294 1.258 . S
Co272 N281 2.057 . S
Co272 O288 2.117 . S
Co272 O289 2.020 . S
Co272 O291 2.021 . S
Co272 O296 2.062 . S
C273 N275 1.316 . S
C273 N276 1.347 . S
C273 H278 0.931 . S
C274 N275 1.375 . S
C274 C277 1.350 . S
C274 H279 0.930 . S
N275 Co270 2.057 . S
N275 C273 1.316 . S
N275 C274 1.375 . S
N276 C273 1.347 . S
N276 C277 1.373 . S
C277 C274 1.350 . S
C277 N276 1.373 . S
C277 H298 0.931 . S
H278 C273 0.931 . S
H279 C274 0.930 . S
C280 O287 1.259 . S
C280 O288 1.258 . S
N281 Co272 2.057 . S
N281 C282 1.316 . S
N281 C283 1.375 . S
C282 N281 1.316 . S
C282 N284 1.347 . S
C282 H293 0.931 . S
C283 N281 1.375 . S
C283 C285 1.350 . S
C283 H292 0.930 . S
N284 C282 1.347 . S
N284 C285 1.373 . S
C285 C283 1.350 . S
C285 N284 1.373 . S
C285 H299 0.931 . S
C286 O289 1.256 . S
C286 O290 1.255 . S
O287 Co270 2.021 . S
O287 C280 1.259 . S
O288 Co272 2.117 . S
O288 C280 1.258 . S
O289 Co272 2.020 . S
O289 C286 1.256 . S
O290 Co270 2.062 . S
O290 C286 1.255 . S
O291 C271 1.259 . S
O291 Co272 2.021 . S
H292 C283 0.930 . S
H293 C282 0.931 . S
O294 Co270 2.117 . S
O294 C271 1.258 . S
O295 Co270 2.020 . S
O295 C297 1.256 . S
O296 Co272 2.062 . S
O296 C297 1.255 . S
C297 O295 1.256 . S
C297 O296 1.255 . S
H298 C277 0.931 . S
H299 C285 0.931 . S
Co300 N305 2.057 . S
Co300 O317 2.021 . S
Co300 O320 2.062 . S
Co300 O324 2.117 . S
Co300 O325 2.020 . S
C301 O321 1.259 1_545 S
C301 O324 1.258 . S
Co302 N311 2.057 1_545 S
Co302 O318 2.117 . S
Co302 O319 2.020 . S
Co302 O321 2.021 1_545 S
Co302 O326 2.062 1_545 S
C303 N305 1.316 . S
C303 N306 1.347 . S
C303 H308 0.931 . S
C304 N305 1.375 . S
C304 C307 1.350 . S
C304 H309 0.930 . S
N305 Co300 2.057 . S
N305 C303 1.316 . S
N305 C304 1.375 . S
N306 C303 1.347 . S
N306 C307 1.373 . S
C307 C304 1.350 . S
C307 N306 1.373 . S
C307 H328 0.931 . S
H308 C303 0.931 . S
H309 C304 0.930 . S
C310 O317 1.259 . S
C310 O318 1.258 . S
N311 Co302 2.057 1_565 S
N311 C312 1.316 . S
N311 C313 1.375 . S
C312 N311 1.316 . S
C312 N314 1.347 . S
C312 H323 0.931 . S
C313 N311 1.375 . S
C313 C315 1.350 . S
C313 H322 0.930 . S
N314 C312 1.347 . S
N314 C315 1.373 . S
C315 C313 1.350 . S
C315 N314 1.373 . S
C315 H329 0.931 . S
C316 O319 1.256 . S
C316 O320 1.255 . S
O317 Co300 2.021 . S
O317 C310 1.259 . S
O318 Co302 2.117 . S
O318 C310 1.258 . S
O319 Co302 2.020 . S
O319 C316 1.256 . S
O320 Co300 2.062 . S
O320 C316 1.255 . S
O321 C301 1.259 1_565 S
O321 Co302 2.021 1_565 S
H322 C313 0.930 . S
H323 C312 0.931 . S
O324 Co300 2.117 . S
O324 C301 1.258 . S
O325 Co300 2.020 . S
O325 C327 1.256 1_545 S
O326 Co302 2.062 1_565 S
O326 C327 1.255 . S
C327 O325 1.256 1_565 S
C327 O326 1.255 . S
H328 C307 0.931 . S
H329 C315 0.931 . S
Co330 N335 2.057 . S
Co330 O347 2.021 . S
Co330 O350 2.062 . S
Co330 O354 2.117 . S
Co330 O355 2.020 . S
C331 O351 1.259 1_655 S
C331 O354 1.258 . S
Co332 N341 2.057 1_655 S
Co332 O348 2.117 . S
Co332 O349 2.020 . S
Co332 O351 2.021 1_655 S
Co332 O356 2.062 1_655 S
C333 N335 1.316 . S
C333 N336 1.347 . S
C333 H338 0.931 . S
C334 N335 1.375 . S
C334 C337 1.350 . S
C334 H339 0.930 . S
N335 Co330 2.057 . S
N335 C333 1.316 . S
N335 C334 1.375 . S
N336 C333 1.347 . S
N336 C337 1.373 . S
C337 C334 1.350 . S
C337 N336 1.373 . S
C337 H358 0.931 . S
H338 C333 0.931 . S
H339 C334 0.930 . S
C340 O347 1.259 . S
C340 O348 1.258 . S
N341 Co332 2.057 1_455 S
N341 C342 1.316 . S
N341 C343 1.375 . S
C342 N341 1.316 . S
C342 N344 1.347 . S
C342 H353 0.931 . S
C343 N341 1.375 . S
C343 C345 1.350 . S
C343 H352 0.930 . S
N344 C342 1.347 . S
N344 C345 1.373 . S
C345 C343 1.350 . S
C345 N344 1.373 . S
C345 H359 0.931 . S
C346 O349 1.256 . S
C346 O350 1.255 . S
O347 Co330 2.021 . S
O347 C340 1.259 . S
O348 Co332 2.117 . S
O348 C340 1.258 . S
O349 Co332 2.020 . S
O349 C346 1.256 . S
O350 Co330 2.062 . S
O350 C346 1.255 . S
O351 C331 1.259 1_455 S
O351 Co332 2.021 1_455 S
H352 C343 0.930 . S
H353 C342 0.931 . S
O354 Co330 2.117 . S
O354 C331 1.258 . S
O355 Co330 2.020 . S
O355 C357 1.256 1_655 S
O356 Co332 2.062 1_455 S
O356 C357 1.255 . S
C357 O355 1.256 1_455 S
C357 O356 1.255 . S
H358 C337 0.931 . S
H359 C345 0.931 . S
Co360 N365 2.057 . S
Co360 O377 2.021 . S
Co360 O380 2.062 . S
Co360 O384 2.117 . S
Co360 O385 2.020 . S
C361 O381 1.259 . S
C361 O384 1.258 . S
Co362 N371 2.057 . S
Co362 O378 2.117 . S
Co362 O379 2.020 . S
Co362 O381 2.021 . S
Co362 O386 2.062 . S
C363 N365 1.316 . S
C363 N366 1.347 . S
C363 H368 0.931 . S
C364 N365 1.375 . S
C364 C367 1.350 . S
C364 H369 0.930 . S
N365 Co360 2.057 . S
N365 C363 1.316 . S
N365 C364 1.375 . S
N366 C363 1.347 . S
N366 C367 1.373 . S
C367 C364 1.350 . S
C367 N366 1.373 . S
C367 H388 0.931 . S
H368 C363 0.931 . S
H369 C364 0.930 . S
C370 O377 1.259 . S
C370 O378 1.258 . S
N371 Co362 2.057 . S
N371 C372 1.316 . S
N371 C373 1.375 . S
C372 N371 1.316 . S
C372 N374 1.347 . S
C372 H383 0.931 . S
C373 N371 1.375 . S
C373 C375 1.350 . S
C373 H382 0.930 . S
N374 C372 1.347 . S
N374 C375 1.373 . S
C375 C373 1.350 . S
C375 N374 1.373 . S
C375 H389 0.931 . S
C376 O379 1.256 . S
C376 O380 1.255 . S
O377 Co360 2.021 . S
O377 C370 1.259 . S
O378 Co362 2.117 . S
O378 C370 1.258 . S
O379 Co362 2.020 . S
O379 C376 1.256 . S
O380 Co360 2.062 . S
O380 C376 1.255 . S
O381 C361 1.259 . S
O381 Co362 2.021 . S
H382 C373 0.930 . S
H383 C372 0.931 . S
O384 Co360 2.117 . S
O384 C361 1.258 . S
O385 Co360 2.020 . S
O385 C387 1.256 . S
O386 Co362 2.062 . S
O386 C387 1.255 . S
C387 O385 1.256 . S
C387 O386 1.255 . S
H388 C367 0.931 . S
H389 C375 0.931 . S
Co390 N395 2.057 . S
Co390 O407 2.021 . S
Co390 O410 2.062 . S
Co390 O414 2.117 . S
Co390 O415 2.020 . S
C391 O411 1.259 . S
C391 O414 1.258 . S
Co392 N401 2.057 . S
Co392 O408 2.117 . S
Co392 O409 2.020 . S
Co392 O411 2.021 . S
Co392 O416 2.062 . S
C393 N395 1.316 . S
C393 N396 1.347 . S
C393 H398 0.931 . S
C394 N395 1.375 . S
C394 C397 1.350 . S
C394 H399 0.930 . S
N395 Co390 2.057 . S
N395 C393 1.316 . S
N395 C394 1.375 . S
N396 C393 1.347 . S
N396 C397 1.373 . S
C397 C394 1.350 . S
C397 N396 1.373 . S
C397 H418 0.931 . S
H398 C393 0.931 . S
H399 C394 0.930 . S
C400 O407 1.259 . S
C400 O408 1.258 . S
N401 Co392 2.057 . S
N401 C402 1.316 . S
N401 C403 1.375 . S
C402 N401 1.316 . S
C402 N404 1.347 . S
C402 H413 0.931 . S
C403 N401 1.375 . S
C403 C405 1.350 . S
C403 H412 0.930 . S
N404 C402 1.347 . S
N404 C405 1.373 . S
C405 C403 1.350 . S
C405 N404 1.373 . S
C405 H419 0.931 . S
C406 O409 1.256 . S
C406 O410 1.255 . S
O407 Co390 2.021 . S
O407 C400 1.259 . S
O408 Co392 2.117 . S
O408 C400 1.258 . S
O409 Co392 2.020 . S
O409 C406 1.256 . S
O410 Co390 2.062 . S
O410 C406 1.255 . S
O411 C391 1.259 . S
O411 Co392 2.021 . S
H412 C403 0.930 . S
H413 C402 0.931 . S
O414 Co390 2.117 . S
O414 C391 1.258 . S
O415 Co390 2.020 . S
O415 C417 1.256 . S
O416 Co392 2.062 . S
O416 C417 1.255 . S
C417 O415 1.256 . S
C417 O416 1.255 . S
H418 C397 0.931 . S
H419 C405 0.931 . S
Co420 N425 2.057 . S
Co420 O437 2.021 . S
Co420 O440 2.062 . S
Co420 O444 2.117 . S
Co420 O445 2.020 . S
C421 O441 1.259 . S
C421 O444 1.258 . S
Co422 N431 2.057 . S
Co422 O438 2.117 . S
Co422 O439 2.020 . S
Co422 O441 2.021 . S
Co422 O446 2.062 . S
C423 N425 1.316 . S
C423 N426 1.347 . S
C423 H428 0.931 . S
C424 N425 1.375 . S
C424 C427 1.350 . S
C424 H429 0.930 . S
N425 Co420 2.057 . S
N425 C423 1.316 . S
N425 C424 1.375 . S
N426 C423 1.347 . S
N426 C427 1.373 . S
C427 C424 1.350 . S
C427 N426 1.373 . S
C427 H448 0.931 . S
H428 C423 0.931 . S
H429 C424 0.930 . S
C430 O437 1.259 . S
C430 O438 1.258 . S
N431 Co422 2.057 . S
N431 C432 1.316 . S
N431 C433 1.375 . S
C432 N431 1.316 . S
C432 N434 1.347 . S
C432 H443 0.931 . S
C433 N431 1.375 . S
C433 C435 1.350 . S
C433 H442 0.930 . S
N434 C432 1.347 . S
N434 C435 1.373 . S
C435 C433 1.350 . S
C435 N434 1.373 . S
C435 H449 0.931 . S
C436 O439 1.256 . S
C436 O440 1.255 . S
O437 Co420 2.021 . S
O437 C430 1.259 . S
O438 Co422 2.117 . S
O438 C430 1.258 . S
O439 Co422 2.020 . S
O439 C436 1.256 . S
O440 Co420 2.062 . S
O440 C436 1.255 . S
O441 C421 1.259 . S
O441 Co422 2.021 . S
H442 C433 0.930 . S
H443 C432 0.931 . S
O444 Co420 2.117 . S
O444 C421 1.258 . S
O445 Co420 2.020 . S
O445 C447 1.256 . S
O446 Co422 2.062 . S
O446 C447 1.255 . S
C447 O445 1.256 . S
C447 O446 1.255 . S
H448 C427 0.931 . S
H449 C435 0.931 . S
Co450 N455 2.057 . S
Co450 O467 2.021 . S
Co450 O470 2.062 . S
Co450 O474 2.117 . S
Co450 O475 2.020 . S
C451 O471 1.259 . S
C451 O474 1.258 . S
Co452 N461 2.057 . S
Co452 O468 2.117 . S
Co452 O469 2.020 . S
Co452 O471 2.021 . S
Co452 O476 2.062 . S
C453 N455 1.316 . S
C453 N456 1.347 . S
C453 H458 0.931 . S
C454 N455 1.375 . S
C454 C457 1.350 . S
C454 H459 0.930 . S
N455 Co450 2.057 . S
N455 C453 1.316 . S
N455 C454 1.375 . S
N456 C453 1.347 . S
N456 C457 1.373 . S
C457 C454 1.350 . S
C457 N456 1.373 . S
C457 H478 0.931 . S
H458 C453 0.931 . S
H459 C454 0.930 . S
C460 O467 1.259 . S
C460 O468 1.258 . S
N461 Co452 2.057 . S
N461 C462 1.316 . S
N461 C463 1.375 . S
C462 N461 1.316 . S
C462 N464 1.347 . S
C462 H473 0.931 . S
C463 N461 1.375 . S
C463 C465 1.350 . S
C463 H472 0.930 . S
N464 C462 1.347 . S
N464 C465 1.373 . S
C465 C463 1.350 . S
C465 N464 1.373 . S
C465 H479 0.931 . S
C466 O469 1.256 . S
C466 O470 1.255 . S
O467 Co450 2.021 . S
O467 C460 1.259 . S
O468 Co452 2.117 . S
O468 C460 1.258 . S
O469 Co452 2.020 . S
O469 C466 1.256 . S
O470 Co450 2.062 . S
O470 C466 1.255 . S
O471 C451 1.259 . S
O471 Co452 2.021 . S
H472 C463 0.930 . S
H473 C462 0.931 . S
O474 Co450 2.117 . S
O474 C451 1.258 . S
O475 Co450 2.020 . S
O475 C477 1.256 . S
O476 Co452 2.062 . S
O476 C477 1.255 . S
C477 O475 1.256 . S
C477 O476 1.255 . S
H478 C457 0.931 . S
H479 C465 0.931 . S
Co480 N485 2.057 . S
Co480 O497 2.021 . S
Co480 O500 2.062 . S
Co480 O504 2.117 . S
Co480 O505 2.020 . S
C481 O501 1.259 . S
C481 O504 1.258 . S
Co482 N491 2.057 . S
Co482 O498 2.117 . S
Co482 O499 2.020 . S
Co482 O501 2.021 . S
Co482 O506 2.062 . S
C483 N485 1.316 . S
C483 N486 1.347 . S
C483 H488 0.931 . S
C484 N485 1.375 . S
C484 C487 1.350 . S
C484 H489 0.930 . S
N485 Co480 2.057 . S
N485 C483 1.316 . S
N485 C484 1.375 . S
N486 C483 1.347 . S
N486 C487 1.373 . S
C487 C484 1.350 . S
C487 N486 1.373 . S
C487 H508 0.931 . S
H488 C483 0.931 . S
H489 C484 0.930 . S
C490 O497 1.259 . S
C490 O498 1.258 . S
N491 Co482 2.057 . S
N491 C492 1.316 . S
N491 C493 1.375 . S
C492 N491 1.316 . S
C492 N494 1.347 . S
C492 H503 0.931 . S
C493 N491 1.375 . S
C493 C495 1.350 . S
C493 H502 0.930 . S
N494 C492 1.347 . S
N494 C495 1.373 . S
C495 C493 1.350 . S
C495 N494 1.373 . S
C495 H509 0.931 . S
C496 O499 1.256 . S
C496 O500 1.255 . S
O497 Co480 2.021 . S
O497 C490 1.259 . S
O498 Co482 2.117 . S
O498 C490 1.258 . S
O499 Co482 2.020 . S
O499 C496 1.256 . S
O500 Co480 2.062 . S
O500 C496 1.255 . S
O501 C481 1.259 . S
O501 Co482 2.021 . S
H502 C493 0.930 . S
H503 C492 0.931 . S
O504 Co480 2.117 . S
O504 C481 1.258 . S
O505 Co480 2.020 . S
O505 C507 1.256 . S
O506 Co482 2.062 . S
O506 C507 1.255 . S
C507 O505 1.256 . S
C507 O506 1.255 . S
H508 C487 0.931 . S
H509 C495 0.931 . S
Co510 N515 2.057 . S
Co510 O527 2.021 . S
Co510 O530 2.062 . S
Co510 O534 2.117 . S
Co510 O535 2.020 . S
C511 O531 1.259 . S
C511 O534 1.258 . S
Co512 N521 2.057 . S
Co512 O528 2.117 . S
Co512 O529 2.020 . S
Co512 O531 2.021 . S
Co512 O536 2.062 . S
C513 N515 1.316 . S
C513 N516 1.347 . S
C513 H518 0.931 . S
C514 N515 1.375 . S
C514 C517 1.350 . S
C514 H519 0.930 . S
N515 Co510 2.057 . S
N515 C513 1.316 . S
N515 C514 1.375 . S
N516 C513 1.347 . S
N516 C517 1.373 . S
C517 C514 1.350 . S
C517 N516 1.373 . S
C517 H538 0.931 . S
H518 C513 0.931 . S
H519 C514 0.930 . S
C520 O527 1.259 . S
C520 O528 1.258 . S
N521 Co512 2.057 . S
N521 C522 1.316 . S
N521 C523 1.375 . S
C522 N521 1.316 . S
C522 N524 1.347 . S
C522 H533 0.931 . S
C523 N521 1.375 . S
C523 C525 1.350 . S
C523 H532 0.930 . S
N524 C522 1.347 . S
N524 C525 1.373 . S
C525 C523 1.350 . S
C525 N524 1.373 . S
C525 H539 0.931 . S
C526 O529 1.256 . S
C526 O530 1.255 . S
O527 Co510 2.021 . S
O527 C520 1.259 . S
O528 Co512 2.117 . S
O528 C520 1.258 . S
O529 Co512 2.020 . S
O529 C526 1.256 . S
O530 Co510 2.062 . S
O530 C526 1.255 . S
O531 C511 1.259 . S
O531 Co512 2.021 . S
H532 C523 0.930 . S
H533 C522 0.931 . S
O534 Co510 2.117 . S
O534 C511 1.258 . S
O535 Co510 2.020 . S
O535 C537 1.256 . S
O536 Co512 2.062 . S
O536 C537 1.255 . S
C537 O535 1.256 . S
C537 O536 1.255 . S
H538 C517 0.931 . S
H539 C525 0.931 . S
Co540 N545 2.057 . S
Co540 O557 2.021 . S
Co540 O560 2.062 . S
Co540 O564 2.117 . S
Co540 O565 2.020 . S
C541 O561 1.259 . S
C541 O564 1.258 . S
Co542 N551 2.057 . S
Co542 O558 2.117 . S
Co542 O559 2.020 . S
Co542 O561 2.021 . S
Co542 O566 2.062 . S
C543 N545 1.316 . S
C543 N546 1.347 . S
C543 H548 0.931 . S
C544 N545 1.375 . S
C544 C547 1.350 . S
C544 H549 0.930 . S
N545 Co540 2.057 . S
N545 C543 1.316 . S
N545 C544 1.375 . S
N546 C543 1.347 . S
N546 C547 1.373 . S
C547 C544 1.350 . S
C547 N546 1.373 . S
C547 H568 0.931 . S
H548 C543 0.931 . S
H549 C544 0.930 . S
C550 O557 1.259 . S
C550 O558 1.258 . S
N551 Co542 2.057 . S
N551 C552 1.316 . S
N551 C553 1.375 . S
C552 N551 1.316 . S
C552 N554 1.347 . S
C552 H563 0.931 . S
C553 N551 1.375 . S
C553 C555 1.350 . S
C553 H562 0.930 . S
N554 C552 1.347 . S
N554 C555 1.373 . S
C555 C553 1.350 . S
C555 N554 1.373 . S
C555 H569 0.931 . S
C556 O559 1.256 . S
C556 O560 1.255 . S
O557 Co540 2.021 . S
O557 C550 1.259 . S
O558 Co542 2.117 . S
O558 C550 1.258 . S
O559 Co542 2.020 . S
O559 C556 1.256 . S
O560 Co540 2.062 . S
O560 C556 1.255 . S
O561 C541 1.259 . S
O561 Co542 2.021 . S
H562 C553 0.930 . S
H563 C552 0.931 . S
O564 Co540 2.117 . S
O564 C541 1.258 . S
O565 Co540 2.020 . S
O565 C567 1.256 . S
O566 Co542 2.062 . S
O566 C567 1.255 . S
C567 O565 1.256 . S
C567 O566 1.255 . S
H568 C547 0.931 . S
H569 C555 0.931 . S
Co570 N575 2.057 . S
Co570 O587 2.021 . S
Co570 O590 2.062 . S
Co570 O594 2.117 . S
Co570 O595 2.020 . S
C571 O591 1.259 . S
C571 O594 1.258 . S
Co572 N581 2.057 . S
Co572 O588 2.117 . S
Co572 O589 2.020 . S
Co572 O591 2.021 . S
Co572 O596 2.062 . S
C573 N575 1.316 . S
C573 N576 1.347 . S
C573 H578 0.931 . S
C574 N575 1.375 . S
C574 C577 1.350 . S
C574 H579 0.930 . S
N575 Co570 2.057 . S
N575 C573 1.316 . S
N575 C574 1.375 . S
N576 C573 1.347 . S
N576 C577 1.373 . S
C577 C574 1.350 . S
C577 N576 1.373 . S
C577 H598 0.931 . S
H578 C573 0.931 . S
H579 C574 0.930 . S
C580 O587 1.259 . S
C580 O588 1.258 . S
N581 Co572 2.057 . S
N581 C582 1.316 . S
N581 C583 1.375 . S
C582 N581 1.316 . S
C582 N584 1.347 . S
C582 H593 0.931 . S
C583 N581 1.375 . S
C583 C585 1.350 . S
C583 H592 0.930 . S
N584 C582 1.347 . S
N584 C585 1.373 . S
C585 C583 1.350 . S
C585 N584 1.373 . S
C585 H599 0.931 . S
C586 O589 1.256 . S
C586 O590 1.255 . S
O587 Co570 2.021 . S
O587 C580 1.259 . S
O588 Co572 2.117 . S
O588 C580 1.258 . S
O589 Co572 2.020 . S
O589 C586 1.256 . S
O590 Co570 2.062 . S
O590 C586 1.255 . S
O591 C571 1.259 . S
O591 Co572 2.021 . S
H592 C583 0.930 . S
H593 C582 0.931 . S
O594 Co570 2.117 . S
O594 C571 1.258 . S
O595 Co570 2.020 . S
O595 C597 1.256 . S
O596 Co572 2.062 . S
O596 C597 1.255 . S
C597 O595 1.256 . S
C597 O596 1.255 . S
H598 C577 0.931 . S
H599 C585 0.931 . S
Co600 N605 2.057 . S
Co600 O617 2.021 . S
Co600 O620 2.062 . S
Co600 O624 2.117 . S
Co600 O625 2.020 . S
C601 O621 1.259 . S
C601 O624 1.258 . S
Co602 N611 2.057 . S
Co602 O618 2.117 . S
Co602 O619 2.020 . S
Co602 O621 2.021 . S
Co602 O626 2.062 . S
C603 N605 1.316 . S
C603 N606 1.347 . S
C603 H608 0.931 . S
C604 N605 1.375 . S
C604 C607 1.350 . S
C604 H609 0.930 . S
N605 Co600 2.057 . S
N605 C603 1.316 . S
N605 C604 1.375 . S
N606 C603 1.347 . S
N606 C607 1.373 . S
C607 C604 1.350 . S
C607 N606 1.373 . S
C607 H628 0.931 . S
H608 C603 0.931 . S
H609 C604 0.930 . S
C610 O617 1.259 . S
C610 O618 1.258 . S
N611 Co602 2.057 . S
N611 C612 1.316 . S
N611 C613 1.375 . S
C612 N611 1.316 . S
C612 N614 1.347 . S
C612 H623 0.931 . S
C613 N611 1.375 . S
C613 C615 1.350 . S
C613 H622 0.930 . S
N614 C612 1.347 . S
N614 C615 1.373 . S
C615 C613 1.350 . S
C615 N614 1.373 . S
C615 H629 0.931 . S
C616 O619 1.256 . S
C616 O620 1.255 . S
O617 Co600 2.021 . S
O617 C610 1.259 . S
O618 Co602 2.117 . S
O618 C610 1.258 . S
O619 Co602 2.020 . S
O619 C616 1.256 . S
O620 Co600 2.062 . S
O620 C616 1.255 . S
O621 C601 1.259 . S
O621 Co602 2.021 . S
H622 C613 0.930 . S
H623 C612 0.931 . S
O624 Co600 2.117 . S
O624 C601 1.258 . S
O625 Co600 2.020 . S
O625 C627 1.256 . S
O626 Co602 2.062 . S
O626 C627 1.255 . S
C627 O625 1.256 . S
C627 O626 1.255 . S
H628 C607 0.931 . S
H629 C615 0.931 . S
Co630 N635 2.057 . S
Co630 O647 2.021 . S
Co630 O650 2.062 . S
Co630 O654 2.117 . S
Co630 O655 2.020 . S
C631 O651 1.259 . S
C631 O654 1.258 . S
Co632 N641 2.057 . S
Co632 O648 2.117 . S
Co632 O649 2.020 . S
Co632 O651 2.021 . S
Co632 O656 2.062 . S
C633 N635 1.316 . S
C633 N636 1.347 . S
C633 H638 0.931 . S
C634 N635 1.375 1_554 S
C634 C637 1.350 . S
C634 H639 0.930 . S
N635 Co630 2.057 . S
N635 C633 1.316 . S
N635 C634 1.375 1_556 S
N636 C633 1.347 . S
N636 C637 1.373 1_556 S
C637 C634 1.350 . S
C637 N636 1.373 1_554 S
C637 H658 0.931 . S
H638 C633 0.931 . S
H639 C634 0.930 . S
C640 O647 1.259 . S
C640 O648 1.258 . S
N641 Co632 2.057 . S
N641 C642 1.316 . S
N641 C643 1.375 . S
C642 N641 1.316 . S
C642 N644 1.347 . S
C642 H653 0.931 . S
C643 N641 1.375 . S
C643 C645 1.350 . S
C643 H652 0.930 . S
N644 C642 1.347 . S
N644 C645 1.373 . S
C645 C643 1.350 . S
C645 N644 1.373 . S
C645 H659 0.931 . S
C646 O649 1.256 . S
C646 O650 1.255 . S
O647 Co630 2.021 . S
O647 C640 1.259 . S
O648 Co632 2.117 . S
O648 C640 1.258 . S
O649 Co632 2.020 . S
O649 C646 1.256 . S
O650 Co630 2.062 . S
O650 C646 1.255 . S
O651 C631 1.259 . S
O651 Co632 2.021 . S
H652 C643 0.930 . S
H653 C642 0.931 . S
O654 Co630 2.117 . S
O654 C631 1.258 . S
O655 Co630 2.020 . S
O655 C657 1.256 . S
O656 Co632 2.062 . S
O656 C657 1.255 . S
C657 O655 1.256 . S
C657 O656 1.255 . S
H658 C637 0.931 . S
H659 C645 0.931 . S
Co660 N665 2.057 . S
Co660 O677 2.021 . S
Co660 O680 2.062 . S
Co660 O684 2.117 . S
Co660 O685 2.020 . S
C661 O681 1.259 . S
C661 O684 1.258 . S
Co662 N671 2.057 . S
Co662 O678 2.117 . S
Co662 O679 2.020 . S
Co662 O681 2.021 . S
Co662 O686 2.062 . S
C663 N665 1.316 . S
C663 N666 1.347 . S
C663 H668 0.931 . S
C664 N665 1.375 1_554 S
C664 C667 1.350 . S
C664 H669 0.930 . S
N665 Co660 2.057 . S
N665 C663 1.316 . S
N665 C664 1.375 1_556 S
N666 C663 1.347 . S
N666 C667 1.373 1_556 S
C667 C664 1.350 . S
C667 N666 1.373 1_554 S
C667 H688 0.931 . S
H668 C663 0.931 . S
H669 C664 0.930 . S
C670 O677 1.259 . S
C670 O678 1.258 . S
N671 Co662 2.057 . S
N671 C672 1.316 . S
N671 C673 1.375 . S
C672 N671 1.316 . S
C672 N674 1.347 . S
C672 H683 0.931 . S
C673 N671 1.375 . S
C673 C675 1.350 . S
C673 H682 0.930 . S
N674 C672 1.347 . S
N674 C675 1.373 . S
C675 C673 1.350 . S
C675 N674 1.373 . S
C675 H689 0.931 . S
C676 O679 1.256 . S
C676 O680 1.255 . S
O677 Co660 2.021 . S
O677 C670 1.259 . S
O678 Co662 2.117 . S
O678 C670 1.258 . S
O679 Co662 2.020 . S
O679 C676 1.256 . S
O680 Co660 2.062 . S
O680 C676 1.255 . S
O681 C661 1.259 . S
O681 Co662 2.021 . S
H682 C673 0.930 . S
H683 C672 0.931 . S
O684 Co660 2.117 . S
O684 C661 1.258 . S
O685 Co660 2.020 . S
O685 C687 1.256 . S
O686 Co662 2.062 . S
O686 C687 1.255 . S
C687 O685 1.256 . S
C687 O686 1.255 . S
H688 C667 0.931 . S
H689 C675 0.931 . S
Co690 N695 2.057 . S
Co690 O707 2.021 . S
Co690 O710 2.062 . S
Co690 O714 2.117 . S
Co690 O715 2.020 . S
C691 O711 1.259 . S
C691 O714 1.258 . S
Co692 N701 2.057 . S
Co692 O708 2.117 . S
Co692 O709 2.020 . S
Co692 O711 2.021 . S
Co692 O716 2.062 . S
C693 N695 1.316 . S
C693 N696 1.347 . S
C693 H698 0.931 . S
C694 N695 1.375 1_554 S
C694 C697 1.350 . S
C694 H699 0.930 . S
N695 Co690 2.057 . S
N695 C693 1.316 . S
N695 C694 1.375 1_556 S
N696 C693 1.347 . S
N696 C697 1.373 1_556 S
C697 C694 1.350 . S
C697 N696 1.373 1_554 S
C697 H718 0.931 . S
H698 C693 0.931 . S
H699 C694 0.930 . S
C700 O707 1.259 . S
C700 O708 1.258 . S
N701 Co692 2.057 . S
N701 C702 1.316 . S
N701 C703 1.375 . S
C702 N701 1.316 . S
C702 N704 1.347 . S
C702 H713 0.931 . S
C703 N701 1.375 . S
C703 C705 1.350 . S
C703 H712 0.930 . S
N704 C702 1.347 . S
N704 C705 1.373 . S
C705 C703 1.350 . S
C705 N704 1.373 . S
C705 H719 0.931 . S
C706 O709 1.256 . S
C706 O710 1.255 . S
O707 Co690 2.021 . S
O707 C700 1.259 . S
O708 Co692 2.117 . S
O708 C700 1.258 . S
O709 Co692 2.020 . S
O709 C706 1.256 . S
O710 Co690 2.062 . S
O710 C706 1.255 . S
O711 C691 1.259 . S
O711 Co692 2.021 . S
H712 C703 0.930 . S
H713 C702 0.931 . S
O714 Co690 2.117 . S
O714 C691 1.258 . S
O715 Co690 2.020 . S
O715 C717 1.256 . S
O716 Co692 2.062 . S
O716 C717 1.255 . S
C717 O715 1.256 . S
C717 O716 1.255 . S
H718 C697 0.931 . S
H719 C705 0.931 . S
Co720 N725 2.057 . S
Co720 O737 2.021 . S
Co720 O740 2.062 . S
Co720 O744 2.117 . S
Co720 O745 2.020 . S
C721 O741 1.259 . S
C721 O744 1.258 . S
Co722 N731 2.057 . S
Co722 O738 2.117 . S
Co722 O739 2.020 . S
Co722 O741 2.021 . S
Co722 O746 2.062 . S
C723 N725 1.316 . S
C723 N726 1.347 . S
C723 H728 0.931 . S
C724 N725 1.375 . S
C724 C727 1.350 . S
C724 H729 0.930 . S
N725 Co720 2.057 . S
N725 C723 1.316 . S
N725 C724 1.375 . S
N726 C723 1.347 . S
N726 C727 1.373 . S
C727 C724 1.350 . S
C727 N726 1.373 . S
C727 H748 0.931 . S
H728 C723 0.931 . S
H729 C724 0.930 . S
C730 O737 1.259 . S
C730 O738 1.258 . S
N731 Co722 2.057 . S
N731 C732 1.316 . S
N731 C733 1.375 . S
C732 N731 1.316 . S
C732 N734 1.347 . S
C732 H743 0.931 . S
C733 N731 1.375 . S
C733 C735 1.350 . S
C733 H742 0.930 . S
N734 C732 1.347 . S
N734 C735 1.373 . S
C735 C733 1.350 . S
C735 N734 1.373 . S
C735 H749 0.931 . S
C736 O739 1.256 . S
C736 O740 1.255 . S
O737 Co720 2.021 . S
O737 C730 1.259 . S
O738 Co722 2.117 . S
O738 C730 1.258 . S
O739 Co722 2.020 . S
O739 C736 1.256 . S
O740 Co720 2.062 . S
O740 C736 1.255 . S
O741 C721 1.259 . S
O741 Co722 2.021 . S
H742 C733 0.930 . S
H743 C732 0.931 . S
O744 Co720 2.117 . S
O744 C721 1.258 . S
O745 Co720 2.020 . S
O745 C747 1.256 . S
O746 Co722 2.062 . S
O746 C747 1.255 . S
C747 O745 1.256 . S
C747 O746 1.255 . S
H748 C727 0.931 . S
H749 C735 0.931 . S
Co750 N755 2.057 . S
Co750 O767 2.021 . S
Co750 O770 2.062 . S
Co750 O774 2.117 . S
Co750 O775 2.020 . S
C751 O771 1.259 . S
C751 O774 1.258 . S
Co752 N761 2.057 . S
Co752 O768 2.117 . S
Co752 O769 2.020 . S
Co752 O771 2.021 . S
Co752 O776 2.062 . S
C753 N755 1.316 . S
C753 N756 1.347 . S
C753 H758 0.931 . S
C754 N755 1.375 . S
C754 C757 1.350 . S
C754 H759 0.930 . S
N755 Co750 2.057 . S
N755 C753 1.316 . S
N755 C754 1.375 . S
N756 C753 1.347 . S
N756 C757 1.373 . S
C757 C754 1.350 . S
C757 N756 1.373 . S
C757 H778 0.931 . S
H758 C753 0.931 . S
H759 C754 0.930 . S
C760 O767 1.259 . S
C760 O768 1.258 . S
N761 Co752 2.057 . S
N761 C762 1.316 . S
N761 C763 1.375 . S
C762 N761 1.316 . S
C762 N764 1.347 . S
C762 H773 0.931 . S
C763 N761 1.375 . S
C763 C765 1.350 . S
C763 H772 0.930 . S
N764 C762 1.347 . S
N764 C765 1.373 . S
C765 C763 1.350 . S
C765 N764 1.373 . S
C765 H779 0.931 . S
C766 O769 1.256 . S
C766 O770 1.255 . S
O767 Co750 2.021 . S
O767 C760 1.259 . S
O768 Co752 2.117 . S
O768 C760 1.258 . S
O769 Co752 2.020 . S
O769 C766 1.256 . S
O770 Co750 2.062 . S
O770 C766 1.255 . S
O771 C751 1.259 . S
O771 Co752 2.021 . S
H772 C763 0.930 . S
H773 C762 0.931 . S
O774 Co750 2.117 . S
O774 C751 1.258 . S
O775 Co750 2.020 . S
O775 C777 1.256 . S
O776 Co752 2.062 . S
O776 C777 1.255 . S
C777 O775 1.256 . S
C777 O776 1.255 . S
H778 C757 0.931 . S
H779 C765 0.931 . S
Co780 N785 2.057 . S
Co780 O797 2.021 . S
Co780 O800 2.062 . S
Co780 O804 2.117 . S
Co780 O805 2.020 . S
C781 O801 1.259 . S
C781 O804 1.258 . S
Co782 N791 2.057 . S
Co782 O798 2.117 . S
Co782 O799 2.020 . S
Co782 O801 2.021 . S
Co782 O806 2.062 . S
C783 N785 1.316 . S
C783 N786 1.347 . S
C783 H788 0.931 . S
C784 N785 1.375 . S
C784 C787 1.350 . S
C784 H789 0.930 . S
N785 Co780 2.057 . S
N785 C783 1.316 . S
N785 C784 1.375 . S
N786 C783 1.347 . S
N786 C787 1.373 . S
C787 C784 1.350 . S
C787 N786 1.373 . S
C787 H808 0.931 . S
H788 C783 0.931 . S
H789 C784 0.930 . S
C790 O797 1.259 . S
C790 O798 1.258 . S
N791 Co782 2.057 . S
N791 C792 1.316 . S
N791 C793 1.375 . S
C792 N791 1.316 . S
C792 N794 1.347 . S
C792 H803 0.931 . S
C793 N791 1.375 . S
C793 C795 1.350 . S
C793 H802 0.930 . S
N794 C792 1.347 . S
N794 C795 1.373 . S
C795 C793 1.350 . S
C795 N794 1.373 . S
C795 H809 0.931 . S
C796 O799 1.256 . S
C796 O800 1.255 . S
O797 Co780 2.021 . S
O797 C790 1.259 . S
O798 Co782 2.117 . S
O798 C790 1.258 . S
O799 Co782 2.020 . S
O799 C796 1.256 . S
O800 Co780 2.062 . S
O800 C796 1.255 . S
O801 C781 1.259 . S
O801 Co782 2.021 . S
H802 C793 0.930 . S
H803 C792 0.931 . S
O804 Co780 2.117 . S
O804 C781 1.258 . S
O805 Co780 2.020 . S
O805 C807 1.256 . S
O806 Co782 2.062 . S
O806 C807 1.255 . S
C807 O805 1.256 . S
C807 O806 1.255 . S
H808 C787 0.931 . S
H809 C795 0.931 . S
Co810 N815 2.057 . S
Co810 O827 2.021 . S
Co810 O830 2.062 . S
Co810 O834 2.117 . S
Co810 O835 2.020 . S
C811 O831 1.259 . S
C811 O834 1.258 . S
Co812 N821 2.057 . S
Co812 O828 2.117 . S
Co812 O829 2.020 . S
Co812 O831 2.021 . S
Co812 O836 2.062 . S
C813 N815 1.316 . S
C813 N816 1.347 . S
C813 H818 0.931 . S
C814 N815 1.375 . S
C814 C817 1.350 . S
C814 H819 0.930 . S
N815 Co810 2.057 . S
N815 C813 1.316 . S
N815 C814 1.375 . S
N816 C813 1.347 . S
N816 C817 1.373 . S
C817 C814 1.350 . S
C817 N816 1.373 . S
C817 H838 0.931 . S
H818 C813 0.931 . S
H819 C814 0.930 . S
C820 O827 1.259 . S
C820 O828 1.258 . S
N821 Co812 2.057 . S
N821 C822 1.316 . S
N821 C823 1.375 1_554 S
C822 N821 1.316 . S
C822 N824 1.347 . S
C822 H833 0.931 . S
C823 N821 1.375 1_556 S
C823 C825 1.350 . S
C823 H832 0.930 . S
N824 C822 1.347 . S
N824 C825 1.373 1_554 S
C825 C823 1.350 . S
C825 N824 1.373 1_556 S
C825 H839 0.931 . S
C826 O829 1.256 . S
C826 O830 1.255 . S
O827 Co810 2.021 . S
O827 C820 1.259 . S
O828 Co812 2.117 . S
O828 C820 1.258 . S
O829 Co812 2.020 . S
O829 C826 1.256 . S
O830 Co810 2.062 . S
O830 C826 1.255 . S
O831 C811 1.259 . S
O831 Co812 2.021 . S
H832 C823 0.930 . S
H833 C822 0.931 . S
O834 Co810 2.117 . S
O834 C811 1.258 . S
O835 Co810 2.020 . S
O835 C837 1.256 . S
O836 Co812 2.062 . S
O836 C837 1.255 . S
C837 O835 1.256 . S
C837 O836 1.255 . S
H838 C817 0.931 . S
H839 C825 0.931 . S
Co840 N845 2.057 . S
Co840 O857 2.021 . S
Co840 O860 2.062 . S
Co840 O864 2.117 . S
Co840 O865 2.020 . S
C841 O861 1.259 . S
C841 O864 1.258 . S
Co842 N851 2.057 . S
Co842 O858 2.117 . S
Co842 O859 2.020 . S
Co842 O861 2.021 . S
Co842 O866 2.062 . S
C843 N845 1.316 . S
C843 N846 1.347 . S
C843 H848 0.931 . S
C844 N845 1.375 . S
C844 C847 1.350 . S
C844 H849 0.930 . S
N845 Co840 2.057 . S
N845 C843 1.316 . S
N845 C844 1.375 . S
N846 C843 1.347 . S
N846 C847 1.373 . S
C847 C844 1.350 . S
C847 N846 1.373 . S
C847 H868 0.931 . S
H848 C843 0.931 . S
H849 C844 0.930 . S
C850 O857 1.259 . S
C850 O858 1.258 . S
N851 Co842 2.057 . S
N851 C852 1.316 . S
N851 C853 1.375 1_554 S
C852 N851 1.316 . S
C852 N854 1.347 . S
C852 H863 0.931 . S
C853 N851 1.375 1_556 S
C853 C855 1.350 . S
C853 H862 0.930 . S
N854 C852 1.347 . S
N854 C855 1.373 1_554 S
C855 C853 1.350 . S
C855 N854 1.373 1_556 S
C855 H869 0.931 . S
C856 O859 1.256 . S
C856 O860 1.255 . S
O857 Co840 2.021 . S
O857 C850 1.259 . S
O858 Co842 2.117 . S
O858 C850 1.258 . S
O859 Co842 2.020 . S
O859 C856 1.256 . S
O860 Co840 2.062 . S
O860 C856 1.255 . S
O861 C841 1.259 . S
O861 Co842 2.021 . S
H862 C853 0.930 . S
H863 C852 0.931 . S
O864 Co840 2.117 . S
O864 C841 1.258 . S
O865 Co840 2.020 . S
O865 C867 1.256 . S
O866 Co842 2.062 . S
O866 C867 1.255 . S
C867 O865 1.256 . S
C867 O866 1.255 . S
H868 C847 0.931 . S
H869 C855 0.931 . S
Co870 N875 2.057 . S
Co870 O887 2.021 . S
Co870 O890 2.062 . S
Co870 O894 2.117 . S
Co870 O895 2.020 . S
C871 O891 1.259 . S
C871 O894 1.258 . S
Co872 N881 2.057 . S
Co872 O888 2.117 . S
Co872 O889 2.020 . S
Co872 O891 2.021 . S
Co872 O896 2.062 . S
C873 N875 1.316 . S
C873 N876 1.347 . S
C873 H878 0.931 . S
C874 N875 1.375 . S
C874 C877 1.350 . S
C874 H879 0.930 . S
N875 Co870 2.057 . S
N875 C873 1.316 . S
N875 C874 1.375 . S
N876 C873 1.347 . S
N876 C877 1.373 . S
C877 C874 1.350 . S
C877 N876 1.373 . S
C877 H898 0.931 . S
H878 C873 0.931 . S
H879 C874 0.930 . S
C880 O887 1.259 . S
C880 O888 1.258 . S
N881 Co872 2.057 . S
N881 C882 1.316 . S
N881 C883 1.375 1_554 S
C882 N881 1.316 . S
C882 N884 1.347 . S
C882 H893 0.931 . S
C883 N881 1.375 1_556 S
C883 C885 1.350 . S
C883 H892 0.930 . S
N884 C882 1.347 . S
N884 C885 1.373 1_554 S
C885 C883 1.350 . S
C885 N884 1.373 1_556 S
C885 H899 0.931 . S
C886 O889 1.256 . S
C886 O890 1.255 . S
O887 Co870 2.021 . S
O887 C880 1.259 . S
O888 Co872 2.117 . S
O888 C880 1.258 . S
O889 Co872 2.020 . S
O889 C886 1.256 . S
O890 Co870 2.062 . S
O890 C886 1.255 . S
O891 C871 1.259 . S
O891 Co872 2.021 . S
H892 C883 0.930 . S
H893 C882 0.931 . S
O894 Co870 2.117 . S
O894 C871 1.258 . S
O895 Co870 2.020 . S
O895 C897 1.256 . S
O896 Co872 2.062 . S
O896 C897 1.255 . S
C897 O895 1.256 . S
C897 O896 1.255 . S
H898 C877 0.931 . S
H899 C885 0.931 . S
Co900 N905 2.057 . S
Co900 O917 2.021 . S
Co900 O920 2.062 . S
Co900 O924 2.117 . S
Co900 O925 2.020 . S
C901 O921 1.259 . S
C901 O924 1.258 . S
Co902 N911 2.057 . S
Co902 O918 2.117 . S
Co902 O919 2.020 . S
Co902 O921 2.021 . S
Co902 O926 2.062 . S
C903 N905 1.316 . S
C903 N906 1.347 . S
C903 H908 0.931 . S
C904 N905 1.375 . S
C904 C907 1.350 . S
C904 H909 0.930 . S
N905 Co900 2.057 . S
N905 C903 1.316 . S
N905 C904 1.375 . S
N906 C903 1.347 . S
N906 C907 1.373 . S
C907 C904 1.350 . S
C907 N906 1.373 . S
C907 H928 0.931 . S
H908 C903 0.931 . S
H909 C904 0.930 . S
C910 O917 1.259 . S
C910 O918 1.258 . S
N911 Co902 2.057 . S
N911 C912 1.316 . S
N911 C913 1.375 . S
C912 N911 1.316 . S
C912 N914 1.347 . S
C912 H923 0.931 . S
C913 N911 1.375 . S
C913 C915 1.350 . S
C913 H922 0.930 . S
N914 C912 1.347 . S
N914 C915 1.373 . S
C915 C913 1.350 . S
C915 N914 1.373 . S
C915 H929 0.931 . S
C916 O919 1.256 . S
C916 O920 1.255 . S
O917 Co900 2.021 . S
O917 C910 1.259 . S
O918 Co902 2.117 . S
O918 C910 1.258 . S
O919 Co902 2.020 . S
O919 C916 1.256 . S
O920 Co900 2.062 . S
O920 C916 1.255 . S
O921 C901 1.259 . S
O921 Co902 2.021 . S
H922 C913 0.930 . S
H923 C912 0.931 . S
O924 Co900 2.117 . S
O924 C901 1.258 . S
O925 Co900 2.020 . S
O925 C927 1.256 . S
O926 Co902 2.062 . S
O926 C927 1.255 . S
C927 O925 1.256 . S
C927 O926 1.255 . S
H928 C907 0.931 . S
H929 C915 0.931 . S
Co930 N935 2.057 . S
Co930 O947 2.021 . S
Co930 O950 2.062 . S
Co930 O954 2.117 . S
Co930 O955 2.020 . S
C931 O951 1.259 . S
C931 O954 1.258 . S
Co932 N941 2.057 . S
Co932 O948 2.117 . S
Co932 O949 2.020 . S
Co932 O951 2.021 . S
Co932 O956 2.062 . S
C933 N935 1.316 . S
C933 N936 1.347 . S
C933 H938 0.931 . S
C934 N935 1.375 . S
C934 C937 1.350 . S
C934 H939 0.930 . S
N935 Co930 2.057 . S
N935 C933 1.316 . S
N935 C934 1.375 . S
N936 C933 1.347 . S
N936 C937 1.373 . S
C937 C934 1.350 . S
C937 N936 1.373 . S
C937 H958 0.931 . S
H938 C933 0.931 . S
H939 C934 0.930 . S
C940 O947 1.259 . S
C940 O948 1.258 . S
N941 Co932 2.057 . S
N941 C942 1.316 . S
N941 C943 1.375 . S
C942 N941 1.316 . S
C942 N944 1.347 . S
C942 H953 0.931 . S
C943 N941 1.375 . S
C943 C945 1.350 . S
C943 H952 0.930 . S
N944 C942 1.347 . S
N944 C945 1.373 . S
C945 C943 1.350 . S
C945 N944 1.373 . S
C945 H959 0.931 . S
C946 O949 1.256 . S
C946 O950 1.255 . S
O947 Co930 2.021 . S
O947 C940 1.259 . S
O948 Co932 2.117 . S
O948 C940 1.258 . S
O949 Co932 2.020 . S
O949 C946 1.256 . S
O950 Co930 2.062 . S
O950 C946 1.255 . S
O951 C931 1.259 . S
O951 Co932 2.021 . S
H952 C943 0.930 . S
H953 C942 0.931 . S
O954 Co930 2.117 . S
O954 C931 1.258 . S
O955 Co930 2.020 . S
O955 C957 1.256 . S
O956 Co932 2.062 . S
O956 C957 1.255 . S
C957 O955 1.256 . S
C957 O956 1.255 . S
H958 C937 0.931 . S
H959 C945 0.931 . S
Co960 N965 2.057 . S
Co960 O977 2.021 . S
Co960 O980 2.062 . S
Co960 O984 2.117 . S
Co960 O985 2.020 . S
C961 O981 1.259 . S
C961 O984 1.258 . S
Co962 N971 2.057 . S
Co962 O978 2.117 . S
Co962 O979 2.020 . S
Co962 O981 2.021 . S
Co962 O986 2.062 . S
C963 N965 1.316 . S
C963 N966 1.347 . S
C963 H968 0.931 . S
C964 N965 1.375 . S
C964 C967 1.350 . S
C964 H969 0.930 . S
N965 Co960 2.057 . S
N965 C963 1.316 . S
N965 C964 1.375 . S
N966 C963 1.347 . S
N966 C967 1.373 . S
C967 C964 1.350 . S
C967 N966 1.373 . S
C967 H988 0.931 . S
H968 C963 0.931 . S
H969 C964 0.930 . S
C970 O977 1.259 . S
C970 O978 1.258 . S
N971 Co962 2.057 . S
N971 C972 1.316 . S
N971 C973 1.375 . S
C972 N971 1.316 . S
C972 N974 1.347 . S
C972 H983 0.931 . S
C973 N971 1.375 . S
C973 C975 1.350 . S
C973 H982 0.930 . S
N974 C972 1.347 . S
N974 C975 1.373 . S
C975 C973 1.350 . S
C975 N974 1.373 . S
C975 H989 0.931 . S
C976 O979 1.256 . S
C976 O980 1.255 . S
O977 Co960 2.021 . S
O977 C970 1.259 . S
O978 Co962 2.117 . S
O978 C970 1.258 . S
O979 Co962 2.020 . S
O979 C976 1.256 . S
O980 Co960 2.062 . S
O980 C976 1.255 . S
O981 C961 1.259 . S
O981 Co962 2.021 . S
H982 C973 0.930 . S
H983 C972 0.931 . S
O984 Co960 2.117 . S
O984 C961 1.258 . S
O985 Co960 2.020 . S
O985 C987 1.256 . S
O986 Co962 2.062 . S
O986 C987 1.255 . S
C987 O985 1.256 . S
C987 O986 1.255 . S
H988 C967 0.931 . S
H989 C975 0.931 . S
Co990 N995 2.057 . S
Co990 O1007 2.021 . S
Co990 O1010 2.062 . S
Co990 O1014 2.117 . S
Co990 O1015 2.020 . S
C991 O1011 1.259 . S
C991 O1014 1.258 . S
Co992 N1001 2.057 . S
Co992 O1008 2.117 . S
Co992 O1009 2.020 . S
Co992 O1011 2.021 . S
Co992 O1016 2.062 . S
C993 N995 1.316 . S
C993 N996 1.347 . S
C993 H998 0.931 . S
C994 N995 1.375 . S
C994 C997 1.350 . S
C994 H999 0.930 . S
N995 Co990 2.057 . S
N995 C993 1.316 . S
N995 C994 1.375 . S
N996 C993 1.347 . S
N996 C997 1.373 . S
C997 C994 1.350 . S
C997 N996 1.373 . S
C997 H1018 0.931 . S
H998 C993 0.931 . S
H999 C994 0.930 . S
C1000 O1007 1.259 . S
C1000 O1008 1.258 . S
N1001 Co992 2.057 . S
N1001 C1002 1.316 . S
N1001 C1003 1.375 . S
C1002 N1001 1.316 . S
C1002 N1004 1.347 . S
C1002 H1013 0.931 . S
C1003 N1001 1.375 . S
C1003 C1005 1.350 . S
C1003 H1012 0.930 . S
N1004 C1002 1.347 . S
N1004 C1005 1.373 . S
C1005 C1003 1.350 . S
C1005 N1004 1.373 . S
C1005 H1019 0.931 . S
C1006 O1009 1.256 . S
C1006 O1010 1.255 . S
O1007 Co990 2.021 . S
O1007 C1000 1.259 . S
O1008 Co992 2.117 . S
O1008 C1000 1.258 . S
O1009 Co992 2.020 . S
O1009 C1006 1.256 . S
O1010 Co990 2.062 . S
O1010 C1006 1.255 . S
O1011 C991 1.259 . S
O1011 Co992 2.021 . S
H1012 C1003 0.930 . S
H1013 C1002 0.931 . S
O1014 Co990 2.117 . S
O1014 C991 1.258 . S
O1015 Co990 2.020 . S
O1015 C1017 1.256 . S
O1016 Co992 2.062 . S
O1016 C1017 1.255 . S
C1017 O1015 1.256 . S
C1017 O1016 1.255 . S
H1018 C997 0.931 . S
H1019 C1005 0.931 . S
Co1020 N1025 2.057 . S
Co1020 O1037 2.021 . S
Co1020 O1040 2.062 . S
Co1020 O1044 2.117 . S
Co1020 O1045 2.020 . S
C1021 O1041 1.259 . S
C1021 O1044 1.258 . S
Co1022 N1031 2.057 . S
Co1022 O1038 2.117 . S
Co1022 O1039 2.020 . S
Co1022 O1041 2.021 . S
Co1022 O1046 2.062 . S
C1023 N1025 1.316 . S
C1023 N1026 1.347 . S
C1023 H1028 0.931 . S
C1024 N1025 1.375 . S
C1024 C1027 1.350 . S
C1024 H1029 0.930 . S
N1025 Co1020 2.057 . S
N1025 C1023 1.316 . S
N1025 C1024 1.375 . S
N1026 C1023 1.347 . S
N1026 C1027 1.373 . S
C1027 C1024 1.350 . S
C1027 N1026 1.373 . S
C1027 H1048 0.931 . S
H1028 C1023 0.931 . S
H1029 C1024 0.930 . S
C1030 O1037 1.259 . S
C1030 O1038 1.258 . S
N1031 Co1022 2.057 . S
N1031 C1032 1.316 . S
N1031 C1033 1.375 . S
C1032 N1031 1.316 . S
C1032 N1034 1.347 . S
C1032 H1043 0.931 . S
C1033 N1031 1.375 . S
C1033 C1035 1.350 . S
C1033 H1042 0.930 . S
N1034 C1032 1.347 . S
N1034 C1035 1.373 . S
C1035 C1033 1.350 . S
C1035 N1034 1.373 . S
C1035 H1049 0.931 . S
C1036 O1039 1.256 . S
C1036 O1040 1.255 . S
O1037 Co1020 2.021 . S
O1037 C1030 1.259 . S
O1038 Co1022 2.117 . S
O1038 C1030 1.258 . S
O1039 Co1022 2.020 . S
O1039 C1036 1.256 . S
O1040 Co1020 2.062 . S
O1040 C1036 1.255 . S
O1041 C1021 1.259 . S
O1041 Co1022 2.021 . S
H1042 C1033 0.930 . S
H1043 C1032 0.931 . S
O1044 Co1020 2.117 . S
O1044 C1021 1.258 . S
O1045 Co1020 2.020 . S
O1045 C1047 1.256 . S
O1046 Co1022 2.062 . S
O1046 C1047 1.255 . S
C1047 O1045 1.256 . S
C1047 O1046 1.255 . S
H1048 C1027 0.931 . S
H1049 C1035 0.931 . S
Co1050 N1055 2.057 . S
Co1050 O1067 2.021 . S
Co1050 O1070 2.062 . S
Co1050 O1074 2.117 . S
Co1050 O1075 2.020 . S
C1051 O1071 1.259 . S
C1051 O1074 1.258 . S
Co1052 N1061 2.057 . S
Co1052 O1068 2.117 . S
Co1052 O1069 2.020 . S
Co1052 O1071 2.021 . S
Co1052 O1076 2.062 . S
C1053 N1055 1.316 . S
C1053 N1056 1.347 . S
C1053 H1058 0.931 . S
C1054 N1055 1.375 . S
C1054 C1057 1.350 . S
C1054 H1059 0.930 . S
N1055 Co1050 2.057 . S
N1055 C1053 1.316 . S
N1055 C1054 1.375 . S
N1056 C1053 1.347 . S
N1056 C1057 1.373 . S
C1057 C1054 1.350 . S
C1057 N1056 1.373 . S
C1057 H1078 0.931 . S
H1058 C1053 0.931 . S
H1059 C1054 0.930 . S
C1060 O1067 1.259 . S
C1060 O1068 1.258 . S
N1061 Co1052 2.057 . S
N1061 C1062 1.316 . S
N1061 C1063 1.375 . S
C1062 N1061 1.316 . S
C1062 N1064 1.347 . S
C1062 H1073 0.931 . S
C1063 N1061 1.375 . S
C1063 C1065 1.350 . S
C1063 H1072 0.930 . S
N1064 C1062 1.347 . S
N1064 C1065 1.373 . S
C1065 C1063 1.350 . S
C1065 N1064 1.373 . S
C1065 H1079 0.931 . S
C1066 O1069 1.256 . S
C1066 O1070 1.255 . S
O1067 Co1050 2.021 . S
O1067 C1060 1.259 . S
O1068 Co1052 2.117 . S
O1068 C1060 1.258 . S
O1069 Co1052 2.020 . S
O1069 C1066 1.256 . S
O1070 Co1050 2.062 . S
O1070 C1066 1.255 . S
O1071 C1051 1.259 . S
O1071 Co1052 2.021 . S
H1072 C1063 0.930 . S
H1073 C1062 0.931 . S
O1074 Co1050 2.117 . S
O1074 C1051 1.258 . S
O1075 Co1050 2.020 . S
O1075 C1077 1.256 . S
O1076 Co1052 2.062 . S
O1076 C1077 1.255 . S
C1077 O1075 1.256 . S
C1077 O1076 1.255 . S
H1078 C1057 0.931 . S
H1079 C1065 0.931 . S
C1080 C1081 1.387 1_556 S
C1080 H1084 0.950 . S
C1080 C1089 1.390 . S
C1081 C1080 1.387 1_554 S
C1081 C1083 1.387 . S
H1082 C1089 0.950 . S
C1083 C1081 1.387 . S
C1083 C1085 1.390 . S
C1083 H1087 0.950 . S
H1084 C1080 0.950 . S
C1085 C1083 1.390 . S
C1085 C1086 1.387 . S
C1085 H1088 0.950 . S
C1086 C1085 1.387 . S
C1086 C1089 1.387 1_554 S
H1087 C1083 0.950 . S
H1088 C1085 0.950 . S
C1089 C1080 1.390 . S
C1089 H1082 0.950 . S
C1089 C1086 1.387 1_556 S
C1090 C1091 1.387 . S
C1090 H1094 0.950 . S
C1090 C1099 1.390 . S
C1091 C1090 1.387 . S
C1091 C1093 1.387 1_554 S
H1092 C1099 0.950 . S
C1093 C1091 1.387 1_556 S
C1093 C1095 1.390 . S
C1093 H1097 0.950 . S
H1094 C1090 0.950 . S
C1095 C1093 1.390 . S
C1095 C1096 1.387 1_556 S
C1095 H1098 0.950 . S
C1096 C1095 1.387 1_554 S
C1096 C1099 1.387 . S
H1097 C1093 0.950 . S
H1098 C1095 0.950 . S
C1099 C1090 1.390 . S
C1099 H1092 0.950 . S
C1099 C1096 1.387 . S
C1100 C1101 1.387 . S
C1100 H1104 0.950 . S
C1100 C1109 1.390 . S
C1101 C1100 1.387 . S
C1101 C1103 1.387 1_554 S
H1102 C1109 0.950 . S
C1103 C1101 1.387 1_556 S
C1103 C1105 1.390 1_556 S
C1103 H1107 0.950 . S
H1104 C1100 0.950 . S
C1105 C1103 1.390 1_554 S
C1105 C1106 1.387 . S
C1105 H1108 0.950 1_554 S
C1106 C1105 1.387 . S
C1106 C1109 1.387 . S
H1107 C1103 0.950 . S
H1108 C1105 0.950 1_556 S
C1109 C1100 1.390 . S
C1109 H1102 0.950 . S
C1109 C1106 1.387 . S
C1110 C1111 1.387 . S
C1110 H1114 0.950 . S
C1110 C1119 1.390 . S
C1111 C1110 1.387 . S
C1111 C1113 1.387 . S
H1112 C1119 0.950 . S
C1113 C1111 1.387 . S
C1113 C1115 1.390 . S
C1113 H1117 0.950 . S
H1114 C1110 0.950 . S
C1115 C1113 1.390 . S
C1115 C1116 1.387 . S
C1115 H1118 0.950 . S
C1116 C1115 1.387 . S
C1116 C1119 1.387 . S
H1117 C1113 0.950 . S
H1118 C1115 0.950 . S
C1119 C1110 1.390 . S
C1119 H1112 0.950 . S
C1119 C1116 1.387 . S
C1120 C1121 1.387 . S
C1120 H1124 0.950 . S
C1120 C1129 1.390 . S
C1121 C1120 1.387 . S
C1121 C1123 1.387 . S
H1122 C1129 0.950 . S
C1123 C1121 1.387 . S
C1123 C1125 1.390 . S
C1123 H1127 0.950 . S
H1124 C1120 0.950 . S
C1125 C1123 1.390 . S
C1125 C1126 1.387 . S
C1125 H1128 0.950 . S
C1126 C1125 1.387 . S
C1126 C1129 1.387 . S
H1127 C1123 0.950 . S
H1128 C1125 0.950 . S
C1129 C1120 1.390 . S
C1129 H1122 0.950 . S
C1129 C1126 1.387 . S
C1130 C1131 1.387 . S
C1130 H1134 0.950 . S
C1130 C1139 1.390 . S
C1131 C1130 1.387 . S
C1131 C1133 1.387 . S
H1132 C1139 0.950 . S
C1133 C1131 1.387 . S
C1133 C1135 1.390 . S
C1133 H1137 0.950 . S
H1134 C1130 0.950 . S
C1135 C1133 1.390 . S
C1135 C1136 1.387 . S
C1135 H1138 0.950 . S
C1136 C1135 1.387 . S
C1136 C1139 1.387 . S
H1137 C1133 0.950 . S
H1138 C1135 0.950 . S
C1139 C1130 1.390 . S
C1139 H1132 0.950 . S
C1139 C1136 1.387 . S
C1140 C1141 1.387 . S
C1140 H1144 0.950 . S
C1140 C1149 1.390 . S
C1141 C1140 1.387 . S
C1141 C1143 1.387 1_556 S
H1142 C1149 0.950 . S
C1143 C1141 1.387 1_554 S
C1143 C1145 1.390 . S
C1143 H1147 0.950 . S
H1144 C1140 0.950 . S
C1145 C1143 1.390 . S
C1145 C1146 1.387 1_554 S
C1145 H1148 0.950 . S
C1146 C1145 1.387 1_556 S
C1146 C1149 1.387 . S
H1147 C1143 0.950 . S
H1148 C1145 0.950 . S
C1149 C1140 1.390 . S
C1149 H1142 0.950 . S
C1149 C1146 1.387 . S
C1150 C1151 1.387 1_554 S
C1150 H1154 0.950 . S
C1150 C1159 1.390 . S
C1151 C1150 1.387 1_556 S
C1151 C1153 1.387 . S
H1152 C1159 0.950 . S
C1153 C1151 1.387 . S
C1153 C1155 1.390 . S
C1153 H1157 0.950 . S
H1154 C1150 0.950 . S
C1155 C1153 1.390 . S
C1155 C1156 1.387 . S
C1155 H1158 0.950 . S
C1156 C1155 1.387 . S
C1156 C1159 1.387 1_556 S
H1157 C1153 0.950 . S
H1158 C1155 0.950 . S
C1159 C1150 1.390 . S
C1159 H1152 0.950 . S
C1159 C1156 1.387 1_554 S
C1160 C1161 1.387 . S
C1160 H1164 0.950 1_556 S
C1160 C1169 1.390 . S
C1161 C1160 1.387 . S
C1161 C1163 1.387 . S
H1162 C1169 0.950 . S
C1163 C1161 1.387 . S
C1163 C1165 1.390 . S
C1163 H1167 0.950 . S
H1164 C1160 0.950 1_554 S
C1165 C1163 1.390 . S
C1165 C1166 1.387 . S
C1165 H1168 0.950 . S
C1166 C1165 1.387 . S
C1166 C1169 1.387 . S
H1167 C1163 0.950 . S
H1168 C1165 0.950 . S
C1169 C1160 1.390 . S
C1169 H1162 0.950 . S
C1169 C1166 1.387 . S
C1170 C1171 1.387 . S
C1170 H1174 0.950 . S
C1170 C1179 1.390 . S
C1171 C1170 1.387 . S
C1171 C1173 1.387 . S
H1172 C1179 0.950 . S
C1173 C1171 1.387 . S
C1173 C1175 1.390 . S
C1173 H1177 0.950 . S
H1174 C1170 0.950 . S
C1175 C1173 1.390 . S
C1175 C1176 1.387 . S
C1175 H1178 0.950 . S
C1176 C1175 1.387 . S
C1176 C1179 1.387 . S
H1177 C1173 0.950 . S
H1178 C1175 0.950 . S
C1179 C1170 1.390 . S
C1179 H1172 0.950 . S
C1179 C1176 1.387 . S
C1180 C1181 1.387 . S
C1180 H1184 0.950 . S
C1180 C1189 1.390 . S
C1181 C1180 1.387 . S
C1181 C1183 1.387 . S
H1182 C1189 0.950 . S
C1183 C1181 1.387 . S
C1183 C1185 1.390 . S
C1183 H1187 0.950 . S
H1184 C1180 0.950 . S
C1185 C1183 1.390 . S
C1185 C1186 1.387 . S
C1185 H1188 0.950 . S
C1186 C1185 1.387 . S
C1186 C1189 1.387 . S
H1187 C1183 0.950 . S
H1188 C1185 0.950 . S
C1189 C1180 1.390 . S
C1189 H1182 0.950 . S
C1189 C1186 1.387 . S
C1190 C1191 1.387 . S
C1190 H1194 0.950 . S
C1190 C1199 1.390 . S
C1191 C1190 1.387 . S
C1191 C1193 1.387 . S
H1192 C1199 0.950 . S
C1193 C1191 1.387 . S
C1193 C1195 1.390 . S
C1193 H1197 0.950 . S
H1194 C1190 0.950 . S
C1195 C1193 1.390 . S
C1195 C1196 1.387 . S
C1195 H1198 0.950 . S
C1196 C1195 1.387 . S
C1196 C1199 1.387 . S
H1197 C1193 0.950 . S
H1198 C1195 0.950 . S
C1199 C1190 1.390 . S
C1199 H1192 0.950 . S
C1199 C1196 1.387 . S
C1200 C1201 1.387 . S
C1200 H1204 0.950 . S
C1200 C1209 1.390 . S
C1201 C1200 1.387 . S
C1201 C1203 1.387 . S
H1202 C1209 0.950 . S
C1203 C1201 1.387 . S
C1203 C1205 1.390 . S
C1203 H1207 0.950 . S
H1204 C1200 0.950 . S
C1205 C1203 1.390 . S
C1205 C1206 1.387 . S
C1205 H1208 0.950 . S
C1206 C1205 1.387 . S
C1206 C1209 1.387 . S
H1207 C1203 0.950 . S
H1208 C1205 0.950 . S
C1209 C1200 1.390 . S
C1209 H1202 0.950 . S
C1209 C1206 1.387 . S
C1210 C1211 1.387 . S
C1210 H1214 0.950 . S
C1210 C1219 1.390 . S
C1211 C1210 1.387 . S
C1211 C1213 1.387 . S
H1212 C1219 0.950 . S
C1213 C1211 1.387 . S
C1213 C1215 1.390 . S
C1213 H1217 0.950 . S
H1214 C1210 0.950 . S
C1215 C1213 1.390 . S
C1215 C1216 1.387 . S
C1215 H1218 0.950 . S
C1216 C1215 1.387 . S
C1216 C1219 1.387 . S
H1217 C1213 0.950 . S
H1218 C1215 0.950 . S
C1219 C1210 1.390 . S
C1219 H1212 0.950 . S
C1219 C1216 1.387 . S
C1220 C1221 1.387 . S
C1220 H1224 0.950 . S
C1220 C1229 1.390 . S
C1221 C1220 1.387 . S
C1221 C1223 1.387 . S
H1222 C1229 0.950 . S
C1223 C1221 1.387 . S
C1223 C1225 1.390 . S
C1223 H1227 0.950 . S
H1224 C1220 0.950 . S
C1225 C1223 1.390 . S
C1225 C1226 1.387 . S
C1225 H1228 0.950 . S
C1226 C1225 1.387 . S
C1226 C1229 1.387 . S
H1227 C1223 0.950 . S
H1228 C1225 0.950 . S
C1229 C1220 1.390 . S
C1229 H1222 0.950 . S
C1229 C1226 1.387 . S
C1230 C1231 1.387 . S
C1230 H1234 0.950 . S
C1230 C1239 1.390 . S
C1231 C1230 1.387 . S
C1231 C1233 1.387 . S
H1232 C1239 0.950 . S
C1233 C1231 1.387 . S
C1233 C1235 1.390 . S
C1233 H1237 0.950 . S
H1234 C1230 0.950 . S
C1235 C1233 1.390 . S
C1235 C1236 1.387 . S
C1235 H1238 0.950 . S
C1236 C1235 1.387 . S
C1236 C1239 1.387 . S
H1237 C1233 0.950 . S
H1238 C1235 0.950 . S
C1239 C1230 1.390 . S
C1239 H1232 0.950 . S
C1239 C1236 1.387 . S
C1240 C1241 1.387 . S
C1240 H1244 0.950 . S
C1240 C1249 1.390 . S
C1241 C1240 1.387 . S
C1241 C1243 1.387 . S
H1242 C1249 0.950 . S
C1243 C1241 1.387 . S
C1243 C1245 1.390 . S
C1243 H1247 0.950 . S
H1244 C1240 0.950 . S
C1245 C1243 1.390 . S
C1245 C1246 1.387 . S
C1245 H1248 0.950 . S
C1246 C1245 1.387 . S
C1246 C1249 1.387 . S
H1247 C1243 0.950 . S
H1248 C1245 0.950 . S
C1249 C1240 1.390 . S
C1249 H1242 0.950 . S
C1249 C1246 1.387 . S
C1250 C1251 1.387 . S
C1250 H1254 0.950 . S
C1250 C1259 1.390 . S
C1251 C1250 1.387 . S
C1251 C1253 1.387 . S
H1252 C1259 0.950 . S
C1253 C1251 1.387 . S
C1253 C1255 1.390 . S
C1253 H1257 0.950 . S
H1254 C1250 0.950 . S
C1255 C1253 1.390 . S
C1255 C1256 1.387 . S
C1255 H1258 0.950 . S
C1256 C1255 1.387 . S
C1256 C1259 1.387 . S
H1257 C1253 0.950 . S
H1258 C1255 0.950 . S
C1259 C1250 1.390 . S
C1259 H1252 0.950 . S
C1259 C1256 1.387 . S
C1260 C1261 1.387 . S
C1260 H1264 0.950 . S
C1260 C1269 1.390 . S
C1261 C1260 1.387 . S
C1261 C1263 1.387 . S
H1262 C1269 0.950 . S
C1263 C1261 1.387 . S
C1263 C1265 1.390 . S
C1263 H1267 0.950 . S
H1264 C1260 0.950 . S
C1265 C1263 1.390 . S
C1265 C1266 1.387 . S
C1265 H1268 0.950 . S
C1266 C1265 1.387 . S
C1266 C1269 1.387 . S
H1267 C1263 0.950 . S
H1268 C1265 0.950 . S
C1269 C1260 1.390 . S
C1269 H1262 0.950 . S
C1269 C1266 1.387 . S
C1270 C1271 1.387 . S
C1270 H1274 0.950 . S
C1270 C1279 1.390 . S
C1271 C1270 1.387 . S
C1271 C1273 1.387 . S
H1272 C1279 0.950 . S
C1273 C1271 1.387 . S
C1273 C1275 1.390 . S
C1273 H1277 0.950 . S
H1274 C1270 0.950 . S
C1275 C1273 1.390 . S
C1275 C1276 1.387 . S
C1275 H1278 0.950 . S
C1276 C1275 1.387 . S
C1276 C1279 1.387 . S
H1277 C1273 0.950 . S
H1278 C1275 0.950 . S
C1279 C1270 1.390 . S
C1279 H1272 0.950 . S
C1279 C1276 1.387 . S
C1280 C1281 1.387 . S
C1280 H1284 0.950 . S
C1280 C1289 1.390 . S
C1281 C1280 1.387 . S
C1281 C1283 1.387 . S
H1282 C1289 0.950 . S
C1283 C1281 1.387 . S
C1283 C1285 1.390 . S
C1283 H1287 0.950 . S
H1284 C1280 0.950 . S
C1285 C1283 1.390 . S
C1285 C1286 1.387 . S
C1285 H1288 0.950 . S
C1286 C1285 1.387 . S
C1286 C1289 1.387 . S
H1287 C1283 0.950 . S
H1288 C1285 0.950 . S
C1289 C1280 1.390 . S
C1289 H1282 0.950 . S
C1289 C1286 1.387 . S
C1290 C1291 1.387 . S
C1290 H1294 0.950 . S
C1290 C1299 1.390 . S
C1291 C1290 1.387 . S
C1291 C1293 1.387 . S
H1292 C1299 0.950 . S
C1293 C1291 1.387 . S
C1293 C1295 1.390 . S
C1293 H1297 0.950 . S
H1294 C1290 0.950 . S
C1295 C1293 1.390 . S
C1295 C1296 1.387 . S
C1295 H1298 0.950 . S
C1296 C1295 1.387 . S
C1296 C1299 1.387 . S
H1297 C1293 0.950 . S
H1298 C1295 0.950 . S
C1299 C1290 1.390 . S
C1299 H1292 0.950 . S
C1299 C1296 1.387 . S
C1300 C1301 1.387 . S
C1300 H1304 0.950 . S
C1300 C1309 1.390 . S
C1301 C1300 1.387 . S
C1301 C1303 1.387 . S
H1302 C1309 0.950 . S
C1303 C1301 1.387 . S
C1303 C1305 1.390 . S
C1303 H1307 0.950 . S
H1304 C1300 0.950 . S
C1305 C1303 1.390 . S
C1305 C1306 1.387 . S
C1305 H1308 0.950 . S
C1306 C1305 1.387 . S
C1306 C1309 1.387 . S
H1307 C1303 0.950 . S
H1308 C1305 0.950 . S
C1309 C1300 1.390 . S
C1309 H1302 0.950 . S
C1309 C1306 1.387 . S
C1310 C1311 1.387 . S
C1310 H1314 0.950 . S
C1310 C1319 1.390 . S
C1311 C1310 1.387 . S
C1311 C1313 1.387 . S
H1312 C1319 0.950 . S
C1313 C1311 1.387 . S
C1313 C1315 1.390 . S
C1313 H1317 0.950 . S
H1314 C1310 0.950 . S
C1315 C1313 1.390 . S
C1315 C1316 1.387 . S
C1315 H1318 0.950 . S
C1316 C1315 1.387 . S
C1316 C1319 1.387 . S
H1317 C1313 0.950 . S
H1318 C1315 0.950 . S
C1319 C1310 1.390 . S
C1319 H1312 0.950 . S
C1319 C1316 1.387 . S
C1320 C1321 1.387 . S
C1320 H1324 0.950 . S
C1320 C1329 1.390 . S
C1321 C1320 1.387 . S
C1321 C1323 1.387 . S
H1322 C1329 0.950 . S
C1323 C1321 1.387 . S
C1323 C1325 1.390 . S
C1323 H1327 0.950 . S
H1324 C1320 0.950 . S
C1325 C1323 1.390 . S
C1325 C1326 1.387 . S
C1325 H1328 0.950 . S
C1326 C1325 1.387 . S
C1326 C1329 1.387 . S
H1327 C1323 0.950 . S
H1328 C1325 0.950 . S
C1329 C1320 1.390 . S
C1329 H1322 0.950 . S
C1329 C1326 1.387 . S
C1330 C1331 1.387 . S
C1330 H1334 0.950 . S
C1330 C1339 1.390 . S
C1331 C1330 1.387 . S
C1331 C1333 1.387 . S
H1332 C1339 0.950 . S
C1333 C1331 1.387 . S
C1333 C1335 1.390 . S
C1333 H1337 0.950 . S
H1334 C1330 0.950 . S
C1335 C1333 1.390 . S
C1335 C1336 1.387 . S
C1335 H1338 0.950 . S
C1336 C1335 1.387 . S
C1336 C1339 1.387 . S
H1337 C1333 0.950 . S
H1338 C1335 0.950 . S
C1339 C1330 1.390 . S
C1339 H1332 0.950 . S
C1339 C1336 1.387 . S
C1340 C1341 1.387 . S
C1340 H1344 0.950 . S
C1340 C1349 1.390 . S
C1341 C1340 1.387 . S
C1341 C1343 1.387 . S
H1342 C1349 0.950 . S
C1343 C1341 1.387 . S
C1343 C1345 1.390 . S
C1343 H1347 0.950 . S
H1344 C1340 0.950 . S
C1345 C1343 1.390 . S
C1345 C1346 1.387 . S
C1345 H1348 0.950 . S
C1346 C1345 1.387 . S
C1346 C1349 1.387 . S
H1347 C1343 0.950 . S
H1348 C1345 0.950 . S
C1349 C1340 1.390 . S
C1349 H1342 0.950 . S
C1349 C1346 1.387 . S
C1350 C1351 1.387 . S
C1350 H1354 0.950 . S
C1350 C1359 1.390 . S
C1351 C1350 1.387 . S
C1351 C1353 1.387 . S
H1352 C1359 0.950 . S
C1353 C1351 1.387 . S
C1353 C1355 1.390 . S
C1353 H1357 0.950 . S
H1354 C1350 0.950 . S
C1355 C1353 1.390 . S
C1355 C1356 1.387 . S
C1355 H1358 0.950 . S
C1356 C1355 1.387 . S
C1356 C1359 1.387 . S
H1357 C1353 0.950 . S
H1358 C1355 0.950 . S
C1359 C1350 1.390 . S
C1359 H1352 0.950 . S
C1359 C1356 1.387 . S
C1360 C1361 1.387 . S
C1360 H1364 0.950 . S
C1360 C1369 1.390 . S
C1361 C1360 1.387 . S
C1361 C1363 1.387 . S
H1362 C1369 0.950 . S
C1363 C1361 1.387 . S
C1363 C1365 1.390 . S
C1363 H1367 0.950 . S
H1364 C1360 0.950 . S
C1365 C1363 1.390 . S
C1365 C1366 1.387 . S
C1365 H1368 0.950 . S
C1366 C1365 1.387 . S
C1366 C1369 1.387 . S
H1367 C1363 0.950 . S
H1368 C1365 0.950 . S
C1369 C1360 1.390 . S
C1369 H1362 0.950 . S
C1369 C1366 1.387 . S
C1370 C1371 1.387 . S
C1370 H1374 0.950 . S
C1370 C1379 1.390 . S
C1371 C1370 1.387 . S
C1371 C1373 1.387 . S
H1372 C1379 0.950 . S
C1373 C1371 1.387 . S
C1373 C1375 1.390 . S
C1373 H1377 0.950 . S
H1374 C1370 0.950 . S
C1375 C1373 1.390 . S
C1375 C1376 1.387 . S
C1375 H1378 0.950 . S
C1376 C1375 1.387 . S
C1376 C1379 1.387 . S
H1377 C1373 0.950 . S
H1378 C1375 0.950 . S
C1379 C1370 1.390 . S
C1379 H1372 0.950 . S
C1379 C1376 1.387 . S
C1380 C1381 1.387 . S
C1380 H1384 0.950 . S
C1380 C1389 1.390 . S
C1381 C1380 1.387 . S
C1381 C1383 1.387 . S
H1382 C1389 0.950 . S
C1383 C1381 1.387 . S
C1383 C1385 1.390 . S
C1383 H1387 0.950 . S
H1384 C1380 0.950 . S
C1385 C1383 1.390 . S
C1385 C1386 1.387 . S
C1385 H1388 0.950 . S
C1386 C1385 1.387 . S
C1386 C1389 1.387 . S
H1387 C1383 0.950 . S
H1388 C1385 0.950 . S
C1389 C1380 1.390 . S
C1389 H1382 0.950 . S
C1389 C1386 1.387 . S
C1390 C1391 1.387 . S
C1390 H1394 0.950 . S
C1390 C1399 1.390 . S
C1391 C1390 1.387 . S
C1391 C1393 1.387 . S
H1392 C1399 0.950 . S
C1393 C1391 1.387 . S
C1393 C1395 1.390 . S
C1393 H1397 0.950 . S
H1394 C1390 0.950 . S
C1395 C1393 1.390 . S
C1395 C1396 1.387 . S
C1395 H1398 0.950 . S
C1396 C1395 1.387 . S
C1396 C1399 1.387 . S
H1397 C1393 0.950 . S
H1398 C1395 0.950 . S
C1399 C1390 1.390 . S
C1399 H1392 0.950 . S
C1399 C1396 1.387 . S
C1400 C1401 1.387 . S
C1400 H1404 0.950 . S
C1400 C1409 1.390 . S
C1401 C1400 1.387 . S
C1401 C1403 1.387 . S
H1402 C1409 0.950 . S
C1403 C1401 1.387 . S
C1403 C1405 1.390 . S
C1403 H1407 0.950 . S
H1404 C1400 0.950 . S
C1405 C1403 1.390 . S
C1405 C1406 1.387 . S
C1405 H1408 0.950 . S
C1406 C1405 1.387 . S
C1406 C1409 1.387 . S
H1407 C1403 0.950 . S
H1408 C1405 0.950 . S
C1409 C1400 1.390 . S
C1409 H1402 0.950 . S
C1409 C1406 1.387 . S
C1410 C1411 1.387 . S
C1410 H1414 0.950 . S
C1410 C1419 1.390 . S
C1411 C1410 1.387 . S
C1411 C1413 1.387 . S
H1412 C1419 0.950 . S
C1413 C1411 1.387 . S
C1413 C1415 1.390 . S
C1413 H1417 0.950 . S
H1414 C1410 0.950 . S
C1415 C1413 1.390 . S
C1415 C1416 1.387 . S
C1415 H1418 0.950 . S
C1416 C1415 1.387 . S
C1416 C1419 1.387 . S
H1417 C1413 0.950 . S
H1418 C1415 0.950 . S
C1419 C1410 1.390 . S
C1419 H1412 0.950 . S
C1419 C1416 1.387 . S
C1420 C1421 1.387 . S
C1420 H1424 0.950 . S
C1420 C1429 1.390 . S
C1421 C1420 1.387 . S
C1421 C1423 1.387 . S
H1422 C1429 0.950 . S
C1423 C1421 1.387 . S
C1423 C1425 1.390 . S
C1423 H1427 0.950 . S
H1424 C1420 0.950 . S
C1425 C1423 1.390 . S
C1425 C1426 1.387 . S
C1425 H1428 0.950 . S
C1426 C1425 1.387 . S
C1426 C1429 1.387 . S
H1427 C1423 0.950 . S
H1428 C1425 0.950 . S
C1429 C1420 1.390 . S
C1429 H1422 0.950 . S
C1429 C1426 1.387 . S
C1430 C1431 1.387 . S
C1430 H1434 0.950 . S
C1430 C1439 1.390 . S
C1431 C1430 1.387 . S
C1431 C1433 1.387 . S
H1432 C1439 0.950 . S
C1433 C1431 1.387 . S
C1433 C1435 1.390 . S
C1433 H1437 0.950 . S
H1434 C1430 0.950 . S
C1435 C1433 1.390 . S
C1435 C1436 1.387 . S
C1435 H1438 0.950 . S
C1436 C1435 1.387 . S
C1436 C1439 1.387 . S
H1437 C1433 0.950 . S
H1438 C1435 0.950 . S
C1439 C1430 1.390 . S
C1439 H1432 0.950 . S
C1439 C1436 1.387 . S
C1440 C1441 1.387 . S
C1440 H1444 0.950 . S
C1440 C1449 1.390 . S
C1441 C1440 1.387 . S
C1441 C1443 1.387 . S
H1442 C1449 0.950 . S
C1443 C1441 1.387 . S
C1443 C1445 1.390 . S
C1443 H1447 0.950 . S
H1444 C1440 0.950 . S
C1445 C1443 1.390 . S
C1445 C1446 1.387 . S
C1445 H1448 0.950 . S
C1446 C1445 1.387 . S
C1446 C1449 1.387 . S
H1447 C1443 0.950 . S
H1448 C1445 0.950 . S
C1449 C1440 1.390 . S
C1449 H1442 0.950 . S
C1449 C1446 1.387 . S
C1450 C1451 1.387 . S
C1450 H1454 0.950 . S
C1450 C1459 1.390 . S
C1451 C1450 1.387 . S
C1451 C1453 1.387 . S
H1452 C1459 0.950 . S
C1453 C1451 1.387 . S
C1453 C1455 1.390 . S
C1453 H1457 0.950 . S
H1454 C1450 0.950 . S
C1455 C1453 1.390 . S
C1455 C1456 1.387 . S
C1455 H1458 0.950 . S
C1456 C1455 1.387 . S
C1456 C1459 1.387 . S
H1457 C1453 0.950 . S
H1458 C1455 0.950 . S
C1459 C1450 1.390 . S
C1459 H1452 0.950 . S
C1459 C1456 1.387 . S
C1460 C1461 1.387 . S
C1460 H1464 0.950 . S
C1460 C1469 1.390 . S
C1461 C1460 1.387 . S
C1461 C1463 1.387 . S
H1462 C1469 0.950 . S
C1463 C1461 1.387 . S
C1463 C1465 1.390 . S
C1463 H1467 0.950 . S
H1464 C1460 0.950 . S
C1465 C1463 1.390 . S
C1465 C1466 1.387 . S
C1465 H1468 0.950 . S
C1466 C1465 1.387 . S
C1466 C1469 1.387 . S
H1467 C1463 0.950 . S
H1468 C1465 0.950 . S
C1469 C1460 1.390 . S
C1469 H1462 0.950 . S
C1469 C1466 1.387 . S
C1470 C1471 1.387 . S
C1470 H1474 0.950 . S
C1470 C1479 1.390 . S
C1471 C1470 1.387 . S
C1471 C1473 1.387 . S
H1472 C1479 0.950 . S
C1473 C1471 1.387 . S
C1473 C1475 1.390 . S
C1473 H1477 0.950 . S
H1474 C1470 0.950 . S
C1475 C1473 1.390 . S
C1475 C1476 1.387 . S
C1475 H1478 0.950 . S
C1476 C1475 1.387 . S
C1476 C1479 1.387 . S
H1477 C1473 0.950 . S
H1478 C1475 0.950 . S
C1479 C1470 1.390 . S
C1479 H1472 0.950 . S
C1479 C1476 1.387 . S
C1480 C1481 1.387 . S
C1480 H1484 0.950 . S
C1480 C1489 1.390 . S
C1481 C1480 1.387 . S
C1481 C1483 1.387 . S
H1482 C1489 0.950 . S
C1483 C1481 1.387 . S
C1483 C1485 1.390 . S
C1483 H1487 0.950 . S
H1484 C1480 0.950 . S
C1485 C1483 1.390 . S
C1485 C1486 1.387 . S
C1485 H1488 0.950 . S
C1486 C1485 1.387 . S
C1486 C1489 1.387 . S
H1487 C1483 0.950 . S
H1488 C1485 0.950 . S
C1489 C1480 1.390 . S
C1489 H1482 0.950 . S
C1489 C1486 1.387 . S
C1490 C1491 1.387 . S
C1490 H1494 0.950 . S
C1490 C1499 1.390 . S
C1491 C1490 1.387 . S
C1491 C1493 1.387 . S
H1492 C1499 0.950 . S
C1493 C1491 1.387 . S
C1493 C1495 1.390 . S
C1493 H1497 0.950 . S
H1494 C1490 0.950 . S
C1495 C1493 1.390 . S
C1495 C1496 1.387 . S
C1495 H1498 0.950 . S
C1496 C1495 1.387 . S
C1496 C1499 1.387 . S
H1497 C1493 0.950 . S
H1498 C1495 0.950 . S
C1499 C1490 1.390 . S
C1499 H1492 0.950 . S
C1499 C1496 1.387 . S
C1500 C1501 1.387 . S
C1500 H1504 0.950 . S
C1500 C1509 1.390 . S
C1501 C1500 1.387 . S
C1501 C1503 1.387 . S
H1502 C1509 0.950 . S
C1503 C1501 1.387 . S
C1503 C1505 1.390 . S
C1503 H1507 0.950 . S
H1504 C1500 0.950 . S
C1505 C1503 1.390 . S
C1505 C1506 1.387 . S
C1505 H1508 0.950 . S
C1506 C1505 1.387 . S
C1506 C1509 1.387 . S
H1507 C1503 0.950 . S
H1508 C1505 0.950 . S
C1509 C1500 1.390 . S
C1509 H1502 0.950 . S
C1509 C1506 1.387 . S
C1510 C1511 1.387 . S
C1510 H1514 0.950 . S
C1510 C1519 1.390 . S
C1511 C1510 1.387 . S
C1511 C1513 1.387 . S
H1512 C1519 0.950 . S
C1513 C1511 1.387 . S
C1513 C1515 1.390 . S
C1513 H1517 0.950 . S
H1514 C1510 0.950 . S
C1515 C1513 1.390 . S
C1515 C1516 1.387 . S
C1515 H1518 0.950 . S
C1516 C1515 1.387 . S
C1516 C1519 1.387 . S
H1517 C1513 0.950 . S
H1518 C1515 0.950 . S
C1519 C1510 1.390 . S
C1519 H1512 0.950 . S
C1519 C1516 1.387 . S
C1520 C1521 1.387 . S
C1520 H1524 0.950 . S
C1520 C1529 1.390 . S
C1521 C1520 1.387 . S
C1521 C1523 1.387 . S
H1522 C1529 0.950 . S
C1523 C1521 1.387 . S
C1523 C1525 1.390 . S
C1523 H1527 0.950 . S
H1524 C1520 0.950 . S
C1525 C1523 1.390 . S
C1525 C1526 1.387 . S
C1525 H1528 0.950 . S
C1526 C1525 1.387 . S
C1526 C1529 1.387 . S
H1527 C1523 0.950 . S
H1528 C1525 0.950 . S
C1529 C1520 1.390 . S
C1529 H1522 0.950 . S
C1529 C1526 1.387 . S
C1530 C1531 1.387 . S
C1530 H1534 0.950 . S
C1530 C1539 1.390 . S
C1531 C1530 1.387 . S
C1531 C1533 1.387 . S
H1532 C1539 0.950 . S
C1533 C1531 1.387 . S
C1533 C1535 1.390 . S
C1533 H1537 0.950 . S
H1534 C1530 0.950 . S
C1535 C1533 1.390 . S
C1535 C1536 1.387 . S
C1535 H1538 0.950 . S
C1536 C1535 1.387 . S
C1536 C1539 1.387 . S
H1537 C1533 0.950 . S
H1538 C1535 0.950 . S
C1539 C1530 1.390 . S
C1539 H1532 0.950 . S
C1539 C1536 1.387 . S
C1540 C1541 1.387 . S
C1540 H1544 0.950 . S
C1540 C1549 1.390 . S
C1541 C1540 1.387 . S
C1541 C1543 1.387 . S
H1542 C1549 0.950 . S
C1543 C1541 1.387 . S
C1543 C1545 1.390 . S
C1543 H1547 0.950 . S
H1544 C1540 0.950 . S
C1545 C1543 1.390 . S
C1545 C1546 1.387 . S
C1545 H1548 0.950 . S
C1546 C1545 1.387 . S
C1546 C1549 1.387 . S
H1547 C1543 0.950 . S
H1548 C1545 0.950 . S
C1549 C1540 1.390 . S
C1549 H1542 0.950 . S
C1549 C1546 1.387 . S
C1550 C1551 1.387 . S
C1550 H1554 0.950 . S
C1550 C1559 1.390 . S
C1551 C1550 1.387 . S
C1551 C1553 1.387 . S
H1552 C1559 0.950 . S
C1553 C1551 1.387 . S
C1553 C1555 1.390 . S
C1553 H1557 0.950 . S
H1554 C1550 0.950 . S
C1555 C1553 1.390 . S
C1555 C1556 1.387 . S
C1555 H1558 0.950 . S
C1556 C1555 1.387 . S
C1556 C1559 1.387 . S
H1557 C1553 0.950 . S
H1558 C1555 0.950 . S
C1559 C1550 1.390 . S
C1559 H1552 0.950 . S
C1559 C1556 1.387 . S
C1560 C1561 1.387 1_655 S
C1560 H1564 0.950 . S
C1560 C1569 1.390 . S
C1561 C1560 1.387 1_455 S
C1561 C1563 1.387 . S
H1562 C1569 0.950 . S
C1563 C1561 1.387 . S
C1563 C1565 1.390 . S
C1563 H1567 0.950 . S
H1564 C1560 0.950 . S
C1565 C1563 1.390 . S
C1565 C1566 1.387 1_455 S
C1565 H1568 0.950 . S
C1566 C1565 1.387 1_655 S
C1566 C1569 1.387 . S
H1567 C1563 0.950 . S
H1568 C1565 0.950 . S
C1569 C1560 1.390 . S
C1569 H1562 0.950 . S
C1569 C1566 1.387 . S
C1570 C1571 1.387 . S
C1570 H1574 0.950 . S
C1570 C1579 1.390 . S
C1571 C1570 1.387 . S
C1571 C1573 1.387 . S
H1572 C1579 0.950 . S
C1573 C1571 1.387 . S
C1573 C1575 1.390 . S
C1573 H1577 0.950 . S
H1574 C1570 0.950 . S
C1575 C1573 1.390 . S
C1575 C1576 1.387 . S
C1575 H1578 0.950 . S
C1576 C1575 1.387 . S
C1576 C1579 1.387 . S
H1577 C1573 0.950 . S
H1578 C1575 0.950 . S
C1579 C1570 1.390 . S
C1579 H1572 0.950 . S
C1579 C1576 1.387 . S
C1580 C1581 1.387 1_545 S
C1580 H1584 0.950 . S
C1580 C1589 1.390 . S
C1581 C1580 1.387 1_565 S
C1581 C1583 1.387 . S
H1582 C1589 0.950 . S
C1583 C1581 1.387 . S
C1583 C1585 1.390 . S
C1583 H1587 0.950 . S
H1584 C1580 0.950 . S
C1585 C1583 1.390 . S
C1585 C1586 1.387 1_565 S
C1585 H1588 0.950 . S
C1586 C1585 1.387 1_545 S
C1586 C1589 1.387 . S
H1587 C1583 0.950 . S
H1588 C1585 0.950 . S
C1589 C1580 1.390 . S
C1589 H1582 0.950 . S
C1589 C1586 1.387 . S
C1590 C1591 1.387 . S
C1590 H1594 0.950 . S
C1590 C1599 1.390 1_554 S
C1591 C1590 1.387 . S
C1591 C1593 1.387 1_545 S
H1592 C1599 0.950 . S
C1593 C1591 1.387 1_565 S
C1593 C1595 1.390 1_554 S
C1593 H1597 0.950 . S
H1594 C1590 0.950 . S
C1595 C1593 1.390 1_556 S
C1595 C1596 1.387 . S
C1595 H1598 0.950 . S
C1596 C1595 1.387 . S
C1596 C1599 1.387 1_565 S
H1597 C1593 0.950 . S
H1598 C1595 0.950 . S
C1599 C1590 1.390 1_556 S
C1599 H1592 0.950 . S
C1599 C1596 1.387 1_545 S
C1600 C1601 1.383 1_655 S
C1600 H1604 0.950 . S
C1600 C1609 1.395 . S
C1601 C1600 1.383 1_455 S
C1601 C1603 1.387 1_556 S
H1602 C1609 0.950 . S
C1603 C1601 1.387 1_554 S
C1603 C1605 1.395 . S
C1603 H1607 0.950 . S
H1604 C1600 0.950 . S
C1605 C1603 1.395 . S
C1605 C1606 1.383 1_455 S
C1605 H1608 0.950 . S
C1606 C1605 1.383 1_655 S
C1606 C1609 1.387 1_554 S
H1607 C1603 0.950 . S
H1608 C1605 0.950 . S
C1609 C1600 1.395 . S
C1609 H1602 0.950 . S
C1609 C1606 1.387 1_556 S
C1610 C1611 1.387 1_556 S
C1610 H1614 0.950 . S
C1610 C1619 1.390 . S
C1611 C1610 1.387 1_554 S
C1611 C1613 1.387 . S
H1612 C1619 0.950 . S
C1613 C1611 1.387 . S
C1613 C1615 1.390 . S
C1613 H1617 0.950 . S
H1614 C1610 0.950 . S
C1615 C1613 1.390 . S
C1615 C1616 1.387 1_554 S
C1615 H1618 0.950 . S
C1616 C1615 1.387 1_556 S
C1616 C1619 1.387 . S
H1617 C1613 0.950 . S
H1618 C1615 0.950 . S
C1619 C1610 1.390 . S
C1619 H1612 0.950 . S
C1619 C1616 1.387 . S
C1620 C1621 1.387 . S
C1620 H1624 0.950 . S
C1620 C1629 1.390 . S
C1621 C1620 1.387 . S
C1621 C1623 1.387 . S
H1622 C1629 0.950 . S
C1623 C1621 1.387 . S
C1623 C1625 1.390 . S
C1623 H1627 0.950 . S
H1624 C1620 0.950 . S
C1625 C1623 1.390 . S
C1625 C1626 1.387 . S
C1625 H1628 0.950 . S
C1626 C1625 1.387 . S
C1626 C1629 1.387 . S
H1627 C1623 0.950 . S
H1628 C1625 0.950 . S
C1629 C1620 1.390 . S
C1629 H1622 0.950 . S
C1629 C1626 1.387 . S
C1630 C1631 1.387 . S
C1630 H1634 0.950 . S
C1630 C1639 1.390 . S
C1631 C1630 1.387 . S
C1631 C1633 1.387 . S
H1632 C1639 0.950 . S
C1633 C1631 1.387 . S
C1633 C1635 1.390 . S
C1633 H1637 0.950 . S
H1634 C1630 0.950 . S
C1635 C1633 1.390 . S
C1635 C1636 1.387 . S
C1635 H1638 0.950 . S
C1636 C1635 1.387 . S
C1636 C1639 1.387 . S
H1637 C1633 0.950 . S
H1638 C1635 0.950 . S
C1639 C1630 1.390 . S
C1639 H1632 0.950 . S
C1639 C1636 1.387 . S
C1640 C1641 1.387 . S
C1640 H1644 0.950 . S
C1640 C1649 1.390 . S
C1641 C1640 1.387 . S
C1641 C1643 1.387 . S
H1642 C1649 0.950 . S
C1643 C1641 1.387 . S
C1643 C1645 1.390 . S
C1643 H1647 0.950 . S
H1644 C1640 0.950 . S
C1645 C1643 1.390 . S
C1645 C1646 1.387 . S
C1645 H1648 0.950 . S
C1646 C1645 1.387 . S
C1646 C1649 1.387 . S
H1647 C1643 0.950 . S
H1648 C1645 0.950 . S
C1649 C1640 1.390 . S
C1649 H1642 0.950 . S
C1649 C1646 1.387 . S
C1650 C1651 1.387 . S
C1650 H1654 0.950 . S
C1650 C1659 1.390 . S
C1651 C1650 1.387 . S
C1651 C1653 1.387 . S
H1652 C1659 0.950 . S
C1653 C1651 1.387 . S
C1653 C1655 1.390 . S
C1653 H1657 0.950 . S
H1654 C1650 0.950 . S
C1655 C1653 1.390 . S
C1655 C1656 1.387 . S
C1655 H1658 0.950 . S
C1656 C1655 1.387 . S
C1656 C1659 1.387 . S
H1657 C1653 0.950 . S
H1658 C1655 0.950 . S
C1659 C1650 1.390 . S
C1659 H1652 0.950 . S
C1659 C1656 1.387 . S
C1660 C1661 1.387 . S
C1660 H1664 0.950 . S
C1660 C1669 1.390 . S
C1661 C1660 1.387 . S
C1661 C1663 1.387 . S
H1662 C1669 0.950 . S
C1663 C1661 1.387 . S
C1663 C1665 1.390 . S
C1663 H1667 0.950 . S
H1664 C1660 0.950 . S
C1665 C1663 1.390 . S
C1665 C1666 1.387 . S
C1665 H1668 0.950 . S
C1666 C1665 1.387 . S
C1666 C1669 1.387 . S
H1667 C1663 0.950 . S
H1668 C1665 0.950 . S
C1669 C1660 1.390 . S
C1669 H1662 0.950 . S
C1669 C1666 1.387 . S
C1670 C1671 1.387 . S
C1670 H1674 0.950 . S
C1670 C1679 1.390 . S
C1671 C1670 1.387 . S
C1671 C1673 1.387 . S
H1672 C1679 0.950 . S
C1673 C1671 1.387 . S
C1673 C1675 1.390 . S
C1673 H1677 0.950 . S
H1674 C1670 0.950 . S
C1675 C1673 1.390 . S
C1675 C1676 1.387 . S
C1675 H1678 0.950 . S
C1676 C1675 1.387 . S
C1676 C1679 1.387 . S
H1677 C1673 0.950 . S
H1678 C1675 0.950 . S
C1679 C1670 1.390 . S
C1679 H1672 0.950 . S
C1679 C1676 1.387 . S
C1680 C1681 1.387 . S
C1680 H1684 0.950 . S
C1680 C1689 1.390 . S
C1681 C1680 1.387 . S
C1681 C1683 1.387 . S
H1682 C1689 0.950 . S
C1683 C1681 1.387 . S
C1683 C1685 1.390 . S
C1683 H1687 0.950 . S
H1684 C1680 0.950 . S
C1685 C1683 1.390 . S
C1685 C1686 1.387 . S
C1685 H1688 0.950 . S
C1686 C1685 1.387 . S
C1686 C1689 1.387 . S
H1687 C1683 0.950 . S
H1688 C1685 0.950 . S
C1689 C1680 1.390 . S
C1689 H1682 0.950 . S
C1689 C1686 1.387 . S
C1690 C1691 1.387 . S
C1690 H1694 0.950 . S
C1690 C1699 1.390 . S
C1691 C1690 1.387 . S
C1691 C1693 1.387 . S
H1692 C1699 0.950 . S
C1693 C1691 1.387 . S
C1693 C1695 1.390 . S
C1693 H1697 0.950 . S
H1694 C1690 0.950 . S
C1695 C1693 1.390 . S
C1695 C1696 1.387 . S
C1695 H1698 0.950 . S
C1696 C1695 1.387 . S
C1696 C1699 1.387 . S
H1697 C1693 0.950 . S
H1698 C1695 0.950 . S
C1699 C1690 1.390 . S
C1699 H1692 0.950 . S
C1699 C1696 1.387 . S
C1700 C1701 1.387 . S
C1700 H1704 0.950 . S
C1700 C1709 1.390 . S
C1701 C1700 1.387 . S
C1701 C1703 1.387 . S
H1702 C1709 0.950 . S
C1703 C1701 1.387 . S
C1703 C1705 1.390 . S
C1703 H1707 0.950 . S
H1704 C1700 0.950 . S
C1705 C1703 1.390 . S
C1705 C1706 1.387 . S
C1705 H1708 0.950 . S
C1706 C1705 1.387 . S
C1706 C1709 1.387 . S
H1707 C1703 0.950 . S
H1708 C1705 0.950 . S
C1709 C1700 1.390 . S
C1709 H1702 0.950 . S
C1709 C1706 1.387 . S
C1710 C1711 1.387 . S
C1710 H1714 0.950 . S
C1710 C1719 1.390 . S
C1711 C1710 1.387 . S
C1711 C1713 1.387 . S
H1712 C1719 0.950 . S
C1713 C1711 1.387 . S
C1713 C1715 1.390 . S
C1713 H1717 0.950 . S
H1714 C1710 0.950 . S
C1715 C1713 1.390 . S
C1715 C1716 1.387 . S
C1715 H1718 0.950 . S
C1716 C1715 1.387 . S
C1716 C1719 1.387 . S
H1717 C1713 0.950 . S
H1718 C1715 0.950 . S
C1719 C1710 1.390 . S
C1719 H1712 0.950 . S
C1719 C1716 1.387 . S
C1720 C1721 1.387 . S
C1720 H1724 0.950 . S
C1720 C1729 1.390 . S
C1721 C1720 1.387 . S
C1721 C1723 1.387 . S
H1722 C1729 0.950 . S
C1723 C1721 1.387 . S
C1723 C1725 1.390 . S
C1723 H1727 0.950 . S
H1724 C1720 0.950 . S
C1725 C1723 1.390 . S
C1725 C1726 1.387 . S
C1725 H1728 0.950 . S
C1726 C1725 1.387 . S
C1726 C1729 1.387 . S
H1727 C1723 0.950 . S
H1728 C1725 0.950 . S
C1729 C1720 1.390 . S
C1729 H1722 0.950 . S
C1729 C1726 1.387 . S
C1730 C1731 1.387 . S
C1730 H1734 0.950 . S
C1730 C1739 1.390 . S
C1731 C1730 1.387 . S
C1731 C1733 1.387 . S
H1732 C1739 0.950 . S
C1733 C1731 1.387 . S
C1733 C1735 1.390 . S
C1733 H1737 0.950 . S
H1734 C1730 0.950 . S
C1735 C1733 1.390 . S
C1735 C1736 1.387 . S
C1735 H1738 0.950 . S
C1736 C1735 1.387 . S
C1736 C1739 1.387 . S
H1737 C1733 0.950 . S
H1738 C1735 0.950 . S
C1739 C1730 1.390 . S
C1739 H1732 0.950 . S
C1739 C1736 1.387 . S
C1740 C1741 1.387 . S
C1740 H1744 0.950 . S
C1740 C1749 1.390 1_455 S
C1741 C1740 1.387 . S
C1741 C1743 1.387 . S
H1742 C1749 0.950 . S
C1743 C1741 1.387 . S
C1743 C1745 1.390 1_455 S
C1743 H1747 0.950 . S
H1744 C1740 0.950 . S
C1745 C1743 1.390 1_655 S
C1745 C1746 1.387 . S
C1745 H1748 0.950 . S
C1746 C1745 1.387 . S
C1746 C1749 1.387 . S
H1747 C1743 0.950 . S
H1748 C1745 0.950 . S
C1749 C1740 1.390 1_655 S
C1749 H1742 0.950 . S
C1749 C1746 1.387 . S
C1750 C1751 1.387 . S
C1750 H1754 0.950 . S
C1750 C1759 1.390 . S
C1751 C1750 1.387 . S
C1751 C1753 1.387 . S
H1752 C1759 0.950 . S
C1753 C1751 1.387 . S
C1753 C1755 1.390 . S
C1753 H1757 0.950 . S
H1754 C1750 0.950 . S
C1755 C1753 1.390 . S
C1755 C1756 1.387 . S
C1755 H1758 0.950 . S
C1756 C1755 1.387 . S
C1756 C1759 1.387 . S
H1757 C1753 0.950 . S
H1758 C1755 0.950 . S
C1759 C1750 1.390 . S
C1759 H1752 0.950 . S
C1759 C1756 1.387 . S
C1760 C1761 1.387 . S
C1760 H1764 0.950 . S
C1760 C1769 1.390 1_545 S
C1761 C1760 1.387 . S
C1761 C1763 1.387 . S
H1762 C1769 0.950 . S
C1763 C1761 1.387 . S
C1763 C1765 1.390 1_545 S
C1763 H1767 0.950 . S
H1764 C1760 0.950 . S
C1765 C1763 1.390 1_565 S
C1765 C1766 1.387 . S
C1765 H1768 0.950 . S
C1766 C1765 1.387 . S
C1766 C1769 1.387 . S
H1767 C1763 0.950 . S
H1768 C1765 0.950 . S
C1769 C1760 1.390 1_565 S
C1769 H1762 0.950 . S
C1769 C1766 1.387 . S
C1770 C1771 1.387 . S
C1770 H1774 0.950 . S
C1770 C1779 1.390 1_565 S
C1771 C1770 1.387 . S
C1771 C1773 1.387 . S
H1772 C1779 0.950 . S
C1773 C1771 1.387 . S
C1773 C1775 1.390 1_565 S
C1773 H1777 0.950 . S
H1774 C1770 0.950 . S
C1775 C1773 1.390 1_545 S
C1775 C1776 1.387 . S
C1775 H1778 0.950 . S
C1776 C1775 1.387 . S
C1776 C1779 1.387 . S
H1777 C1773 0.950 . S
H1778 C1775 0.950 . S
C1779 C1770 1.390 1_545 S
C1779 H1772 0.950 . S
C1779 C1776 1.387 . S
C1780 C1781 1.387 . S
C1780 H1784 0.950 . S
C1780 C1789 1.390 1_455 S
C1781 C1780 1.387 . S
C1781 C1783 1.387 . S
H1782 C1789 0.950 . S
C1783 C1781 1.387 . S
C1783 C1785 1.390 1_455 S
C1783 H1787 0.950 . S
H1784 C1780 0.950 . S
C1785 C1783 1.390 1_655 S
C1785 C1786 1.387 . S
C1785 H1788 0.950 . S
C1786 C1785 1.387 . S
C1786 C1789 1.387 . S
H1787 C1783 0.950 . S
H1788 C1785 0.950 . S
C1789 C1780 1.390 1_655 S
C1789 H1782 0.950 . S
C1789 C1786 1.387 . S
C1790 C1791 1.387 . S
C1790 H1794 0.950 . S
C1790 C1799 1.390 . S
C1791 C1790 1.387 . S
C1791 C1793 1.387 . S
H1792 C1799 0.950 . S
C1793 C1791 1.387 . S
C1793 C1795 1.390 . S
C1793 H1797 0.950 . S
H1794 C1790 0.950 . S
C1795 C1793 1.390 . S
C1795 C1796 1.387 . S
C1795 H1798 0.950 . S
C1796 C1795 1.387 . S
C1796 C1799 1.387 . S
H1797 C1793 0.950 . S
H1798 C1795 0.950 . S
C1799 C1790 1.390 . S
C1799 H1792 0.950 . S
C1799 C1796 1.387 . S
C1800 C1801 1.387 . S
C1800 H1804 0.950 . S
C1800 C1809 1.390 . S
C1801 C1800 1.387 . S
C1801 C1803 1.387 . S
H1802 C1809 0.950 . S
C1803 C1801 1.387 . S
C1803 C1805 1.390 . S
C1803 H1807 0.950 . S
H1804 C1800 0.950 . S
C1805 C1803 1.390 . S
C1805 C1806 1.387 . S
C1805 H1808 0.950 . S
C1806 C1805 1.387 . S
C1806 C1809 1.387 . S
H1807 C1803 0.950 . S
H1808 C1805 0.950 . S
C1809 C1800 1.390 . S
C1809 H1802 0.950 . S
C1809 C1806 1.387 . S
C1810 C1811 1.363 1_565 S
C1810 H1814 0.971 . S
C1810 C1819 1.395 . S
C1811 C1810 1.363 1_545 S
C1811 C1813 1.387 . S
H1812 C1819 0.950 . S
C1813 C1811 1.387 . S
C1813 C1815 1.395 . S
C1813 H1817 0.950 . S
H1814 C1810 0.971 . S
C1815 C1813 1.395 . S
C1815 C1816 1.363 1_545 S
C1815 H1818 0.971 . S
C1816 C1815 1.363 1_565 S
C1816 C1819 1.387 . S
H1817 C1813 0.950 . S
H1818 C1815 0.971 . S
C1819 C1810 1.395 . S
C1819 H1812 0.950 . S
C1819 C1816 1.387 . S
C1820 C1821 1.401 . S
C1820 H1824 0.960 . S
C1820 C1829 1.388 1_655 S
C1821 C1820 1.401 . S
C1821 C1823 1.387 . S
H1822 C1829 0.950 . S
C1823 C1821 1.387 . S
C1823 C1825 1.388 1_655 S
C1823 H1827 0.950 . S
H1824 C1820 0.960 . S
C1825 C1823 1.388 1_455 S
C1825 C1826 1.401 . S
C1825 H1828 0.960 . S
C1826 C1825 1.401 . S
C1826 C1829 1.387 . S
H1827 C1823 0.950 . S
H1828 C1825 0.960 . S
C1829 C1820 1.388 1_455 S
C1829 H1822 0.950 . S
C1829 C1826 1.387 . S
C1830 C1831 1.387 . S
C1830 H1834 0.950 . S
C1830 C1839 1.390 . S
C1831 C1830 1.387 . S
C1831 C1833 1.387 . S
H1832 C1839 0.950 . S
C1833 C1831 1.387 . S
C1833 C1835 1.390 . S
C1833 H1837 0.950 . S
H1834 C1830 0.950 . S
C1835 C1833 1.390 . S
C1835 C1836 1.387 . S
C1835 H1838 0.950 . S
C1836 C1835 1.387 . S
C1836 C1839 1.387 . S
H1837 C1833 0.950 . S
H1838 C1835 0.950 . S
C1839 C1830 1.390 . S
C1839 H1832 0.950 . S
C1839 C1836 1.387 . S
C1840 C1841 1.387 1_545 S
C1840 H1844 0.950 . S
C1840 C1849 1.390 . S
C1841 C1840 1.387 1_565 S
C1841 C1843 1.387 . S
H1842 C1849 0.950 . S
C1843 C1841 1.387 . S
C1843 C1845 1.390 . S
C1843 H1847 0.950 . S
H1844 C1840 0.950 . S
C1845 C1843 1.390 . S
C1845 C1846 1.387 1_565 S
C1845 H1848 0.950 . S
C1846 C1845 1.387 1_545 S
C1846 C1849 1.387 . S
H1847 C1843 0.950 . S
H1848 C1845 0.950 . S
C1849 C1840 1.390 . S
C1849 H1842 0.950 . S
C1849 C1846 1.387 . S
C1850 C1851 1.387 . S
C1850 H1854 0.950 . S
C1850 C1859 1.390 . S
C1851 C1850 1.387 . S
C1851 C1853 1.387 1_655 S
H1852 C1859 0.950 . S
C1853 C1851 1.387 1_455 S
C1853 C1855 1.390 . S
C1853 H1857 0.950 . S
H1854 C1850 0.950 . S
C1855 C1853 1.390 . S
C1855 C1856 1.387 . S
C1855 H1858 0.950 . S
C1856 C1855 1.387 . S
C1856 C1859 1.387 1_455 S
H1857 C1853 0.950 . S
H1858 C1855 0.950 . S
C1859 C1850 1.390 . S
C1859 H1852 0.950 . S
C1859 C1856 1.387 1_655 S
C1860 C1861 1.387 . S
C1860 H1864 0.950 . S
C1860 C1869 1.390 . S
C1861 C1860 1.387 . S
C1861 C1863 1.387 . S
H1862 C1869 0.950 . S
C1863 C1861 1.387 . S
C1863 C1865 1.390 . S
C1863 H1867 0.950 . S
H1864 C1860 0.950 . S
C1865 C1863 1.390 . S
C1865 C1866 1.387 . S
C1865 H1868 0.950 . S
C1866 C1865 1.387 . S
C1866 C1869 1.387 . S
H1867 C1863 0.950 . S
H1868 C1865 0.950 . S
C1869 C1860 1.390 . S
C1869 H1862 0.950 . S
C1869 C1866 1.387 . S
C1870 C1871 1.387 . S
C1870 H1874 0.950 . S
C1870 C1879 1.390 . S
C1871 C1870 1.387 . S
C1871 C1873 1.387 . S
H1872 C1879 0.950 . S
C1873 C1871 1.387 . S
C1873 C1875 1.390 . S
C1873 H1877 0.950 . S
H1874 C1870 0.950 . S
C1875 C1873 1.390 . S
C1875 C1876 1.387 . S
C1875 H1878 0.950 . S
C1876 C1875 1.387 . S
C1876 C1879 1.387 . S
H1877 C1873 0.950 . S
H1878 C1875 0.950 . S
C1879 C1870 1.390 . S
C1879 H1872 0.950 . S
C1879 C1876 1.387 . S
C1880 C1881 1.387 . S
C1880 H1884 0.950 . S
C1880 C1889 1.390 . S
C1881 C1880 1.387 . S
C1881 C1883 1.387 . S
H1882 C1889 0.950 . S
C1883 C1881 1.387 . S
C1883 C1885 1.390 . S
C1883 H1887 0.950 . S
H1884 C1880 0.950 . S
C1885 C1883 1.390 . S
C1885 C1886 1.387 . S
C1885 H1888 0.950 . S
C1886 C1885 1.387 . S
C1886 C1889 1.387 . S
H1887 C1883 0.950 . S
H1888 C1885 0.950 . S
C1889 C1880 1.390 . S
C1889 H1882 0.950 . S
C1889 C1886 1.387 . S
C1890 C1891 1.387 . S
C1890 H1894 0.950 . S
C1890 C1899 1.390 . S
C1891 C1890 1.387 . S
C1891 C1893 1.387 . S
H1892 C1899 0.950 . S
C1893 C1891 1.387 . S
C1893 C1895 1.390 . S
C1893 H1897 0.950 . S
H1894 C1890 0.950 . S
C1895 C1893 1.390 . S
C1895 C1896 1.387 . S
C1895 H1898 0.950 . S
C1896 C1895 1.387 . S
C1896 C1899 1.387 . S
H1897 C1893 0.950 . S
H1898 C1895 0.950 . S
C1899 C1890 1.390 . S
C1899 H1892 0.950 . S
C1899 C1896 1.387 . S
C1900 C1901 1.387 . S
C1900 H1904 0.950 . S
C1900 C1909 1.390 . S
C1901 C1900 1.387 . S
C1901 C1903 1.387 . S
H1902 C1909 0.950 . S
C1903 C1901 1.387 . S
C1903 C1905 1.390 . S
C1903 H1907 0.950 . S
H1904 C1900 0.950 . S
C1905 C1903 1.390 . S
C1905 C1906 1.387 . S
C1905 H1908 0.950 . S
C1906 C1905 1.387 . S
C1906 C1909 1.387 . S
H1907 C1903 0.950 . S
H1908 C1905 0.950 . S
C1909 C1900 1.390 . S
C1909 H1902 0.950 . S
C1909 C1906 1.387 . S
C1910 C1911 1.387 . S
C1910 H1914 0.950 . S
C1910 C1919 1.390 . S
C1911 C1910 1.387 . S
C1911 C1913 1.387 . S
H1912 C1919 0.950 . S
C1913 C1911 1.387 . S
C1913 C1915 1.390 . S
C1913 H1917 0.950 . S
H1914 C1910 0.950 . S
C1915 C1913 1.390 . S
C1915 C1916 1.387 . S
C1915 H1918 0.950 . S
C1916 C1915 1.387 . S
C1916 C1919 1.387 . S
H1917 C1913 0.950 . S
H1918 C1915 0.950 . S
C1919 C1910 1.390 . S
C1919 H1912 0.950 . S
C1919 C1916 1.387 . S
C1920 C1921 1.387 . S
C1920 H1924 0.950 . S
C1920 C1929 1.390 . S
C1921 C1920 1.387 . S
C1921 C1923 1.387 . S
H1922 C1929 0.950 . S
C1923 C1921 1.387 . S
C1923 C1925 1.390 . S
C1923 H1927 0.950 . S
H1924 C1920 0.950 . S
C1925 C1923 1.390 . S
C1925 C1926 1.387 . S
C1925 H1928 0.950 . S
C1926 C1925 1.387 . S
C1926 C1929 1.387 . S
H1927 C1923 0.950 . S
H1928 C1925 0.950 . S
C1929 C1920 1.390 . S
C1929 H1922 0.950 . S
C1929 C1926 1.387 . S
C1930 C1931 1.387 . S
C1930 H1934 0.950 . S
C1930 C1939 1.390 . S
C1931 C1930 1.387 . S
C1931 C1933 1.387 . S
H1932 C1939 0.950 . S
C1933 C1931 1.387 . S
C1933 C1935 1.390 . S
C1933 H1937 0.950 . S
H1934 C1930 0.950 . S
C1935 C1933 1.390 . S
C1935 C1936 1.387 . S
C1935 H1938 0.950 . S
C1936 C1935 1.387 . S
C1936 C1939 1.387 . S
H1937 C1933 0.950 . S
H1938 C1935 0.950 . S
C1939 C1930 1.390 . S
C1939 H1932 0.950 . S
C1939 C1936 1.387 . S
C1940 C1941 1.387 . S
C1940 H1944 0.950 . S
C1940 C1949 1.390 . S
C1941 C1940 1.387 . S
C1941 C1943 1.387 . S
H1942 C1949 0.950 . S
C1943 C1941 1.387 . S
C1943 C1945 1.390 . S
C1943 H1947 0.950 . S
H1944 C1940 0.950 . S
C1945 C1943 1.390 . S
C1945 C1946 1.387 . S
C1945 H1948 0.950 . S
C1946 C1945 1.387 . S
C1946 C1949 1.387 . S
H1947 C1943 0.950 . S
H1948 C1945 0.950 . S
C1949 C1940 1.390 . S
C1949 H1942 0.950 . S
C1949 C1946 1.387 . S
C1950 C1951 1.387 . S
C1950 H1954 0.950 . S
C1950 C1959 1.390 . S
C1951 C1950 1.387 . S
C1951 C1953 1.387 . S
H1952 C1959 0.950 . S
C1953 C1951 1.387 . S
C1953 C1955 1.390 . S
C1953 H1957 0.950 . S
H1954 C1950 0.950 . S
C1955 C1953 1.390 . S
C1955 C1956 1.387 . S
C1955 H1958 0.950 . S
C1956 C1955 1.387 . S
C1956 C1959 1.387 . S
H1957 C1953 0.950 . S
H1958 C1955 0.950 . S
C1959 C1950 1.390 . S
C1959 H1952 0.950 . S
C1959 C1956 1.387 . S
C1960 C1961 1.387 . S
C1960 H1964 0.950 . S
C1960 C1969 1.390 . S
C1961 C1960 1.387 . S
C1961 C1963 1.387 . S
H1962 C1969 0.950 . S
C1963 C1961 1.387 . S
C1963 C1965 1.390 . S
C1963 H1967 0.950 . S
H1964 C1960 0.950 . S
C1965 C1963 1.390 . S
C1965 C1966 1.387 . S
C1965 H1968 0.950 . S
C1966 C1965 1.387 . S
C1966 C1969 1.387 . S
H1967 C1963 0.950 . S
H1968 C1965 0.950 . S
C1969 C1960 1.390 . S
C1969 H1962 0.950 . S
C1969 C1966 1.387 . S
C1970 C1971 1.387 . S
C1970 H1974 0.950 . S
C1970 C1979 1.390 . S
C1971 C1970 1.387 . S
C1971 C1973 1.387 . S
H1972 C1979 0.950 . S
C1973 C1971 1.387 . S
C1973 C1975 1.390 . S
C1973 H1977 0.950 . S
H1974 C1970 0.950 . S
C1975 C1973 1.390 . S
C1975 C1976 1.387 . S
C1975 H1978 0.950 . S
C1976 C1975 1.387 . S
C1976 C1979 1.387 . S
H1977 C1973 0.950 . S
H1978 C1975 0.950 . S
C1979 C1970 1.390 . S
C1979 H1972 0.950 . S
C1979 C1976 1.387 . S
C1980 C1981 1.387 . S
C1980 H1984 0.950 . S
C1980 C1989 1.390 . S
C1981 C1980 1.387 . S
C1981 C1983 1.387 . S
H1982 C1989 0.950 . S
C1983 C1981 1.387 . S
C1983 C1985 1.390 . S
C1983 H1987 0.950 . S
H1984 C1980 0.950 . S
C1985 C1983 1.390 . S
C1985 C1986 1.387 . S
C1985 H1988 0.950 . S
C1986 C1985 1.387 . S
C1986 C1989 1.387 . S
H1987 C1983 0.950 . S
H1988 C1985 0.950 . S
C1989 C1980 1.390 . S
C1989 H1982 0.950 . S
C1989 C1986 1.387 . S
C1990 C1991 1.387 . S
C1990 H1994 0.950 . S
C1990 C1999 1.390 . S
C1991 C1990 1.387 . S
C1991 C1993 1.387 . S
H1992 C1999 0.950 . S
C1993 C1991 1.387 . S
C1993 C1995 1.390 . S
C1993 H1997 0.950 . S
H1994 C1990 0.950 . S
C1995 C1993 1.390 . S
C1995 C1996 1.387 . S
C1995 H1998 0.950 . S
C1996 C1995 1.387 . S
C1996 C1999 1.387 . S
H1997 C1993 0.950 . S
H1998 C1995 0.950 . S
C1999 C1990 1.390 . S
C1999 H1992 0.950 . S
C1999 C1996 1.387 . S
C2000 C2001 1.387 . S
C2000 H2004 0.950 . S
C2000 C2009 1.390 . S
C2001 C2000 1.387 . S
C2001 C2003 1.387 . S
H2002 C2009 0.950 . S
C2003 C2001 1.387 . S
C2003 C2005 1.390 . S
C2003 H2007 0.950 . S
H2004 C2000 0.950 . S
C2005 C2003 1.390 . S
C2005 C2006 1.387 . S
C2005 H2008 0.950 . S
C2006 C2005 1.387 . S
C2006 C2009 1.387 . S
H2007 C2003 0.950 . S
H2008 C2005 0.950 . S
C2009 C2000 1.390 . S
C2009 H2002 0.950 . S
C2009 C2006 1.387 . S
C2010 C2011 1.387 . S
C2010 H2014 0.950 . S
C2010 C2019 1.390 . S
C2011 C2010 1.387 . S
C2011 C2013 1.387 . S
H2012 C2019 0.950 . S
C2013 C2011 1.387 . S
C2013 C2015 1.390 . S
C2013 H2017 0.950 . S
H2014 C2010 0.950 . S
C2015 C2013 1.390 . S
C2015 C2016 1.387 . S
C2015 H2018 0.950 . S
C2016 C2015 1.387 . S
C2016 C2019 1.387 . S
H2017 C2013 0.950 . S
H2018 C2015 0.950 . S
C2019 C2010 1.390 . S
C2019 H2012 0.950 . S
C2019 C2016 1.387 . S
C2020 C2021 1.387 . S
C2020 H2024 0.950 . S
C2020 C2029 1.390 . S
C2021 C2020 1.387 . S
C2021 C2023 1.387 . S
H2022 C2029 0.950 . S
C2023 C2021 1.387 . S
C2023 C2025 1.390 . S
C2023 H2027 0.950 . S
H2024 C2020 0.950 . S
C2025 C2023 1.390 . S
C2025 C2026 1.387 . S
C2025 H2028 0.950 . S
C2026 C2025 1.387 . S
C2026 C2029 1.387 . S
H2027 C2023 0.950 . S
H2028 C2025 0.950 . S
C2029 C2020 1.390 . S
C2029 H2022 0.950 . S
C2029 C2026 1.387 . S
C2030 C2031 1.387 . S
C2030 H2034 0.950 1_655 S
C2030 C2039 1.390 . S
C2031 C2030 1.387 . S
C2031 C2033 1.387 . S
H2032 C2039 0.950 . S
C2033 C2031 1.387 . S
C2033 C2035 1.390 . S
C2033 H2037 0.950 . S
H2034 C2030 0.950 1_455 S
C2035 C2033 1.390 . S
C2035 C2036 1.387 . S
C2035 H2038 0.950 . S
C2036 C2035 1.387 . S
C2036 C2039 1.387 . S
H2037 C2033 0.950 . S
H2038 C2035 0.950 . S
C2039 C2030 1.390 . S
C2039 H2032 0.950 . S
C2039 C2036 1.387 . S
C2040 C2041 1.387 . S
C2040 H2044 0.950 . S
C2040 C2049 1.390 . S
C2041 C2040 1.387 . S
C2041 C2043 1.387 . S
H2042 C2049 0.950 . S
C2043 C2041 1.387 . S
C2043 C2045 1.390 . S
C2043 H2047 0.950 . S
H2044 C2040 0.950 . S
C2045 C2043 1.390 . S
C2045 C2046 1.387 . S
C2045 H2048 0.950 . S
C2046 C2045 1.387 . S
C2046 C2049 1.387 . S
H2047 C2043 0.950 . S
H2048 C2045 0.950 . S
C2049 C2040 1.390 . S
C2049 H2042 0.950 . S
C2049 C2046 1.387 . S
C2050 C2051 1.387 . S
C2050 H2054 0.950 . S
C2050 C2059 1.390 . S
C2051 C2050 1.387 . S
C2051 C2053 1.387 . S
H2052 C2059 0.950 . S
C2053 C2051 1.387 . S
C2053 C2055 1.390 . S
C2053 H2057 0.950 . S
H2054 C2050 0.950 . S
C2055 C2053 1.390 . S
C2055 C2056 1.387 . S
C2055 H2058 0.950 . S
C2056 C2055 1.387 . S
C2056 C2059 1.387 . S
H2057 C2053 0.950 . S
H2058 C2055 0.950 . S
C2059 C2050 1.390 . S
C2059 H2052 0.950 . S
C2059 C2056 1.387 . S
C2060 C2061 1.387 . S
C2060 H2064 0.950 . S
C2060 C2069 1.390 . S
C2061 C2060 1.387 . S
C2061 C2063 1.387 . S
H2062 C2069 0.950 . S
C2063 C2061 1.387 . S
C2063 C2065 1.390 . S
C2063 H2067 0.950 . S
H2064 C2060 0.950 . S
C2065 C2063 1.390 . S
C2065 C2066 1.387 . S
C2065 H2068 0.950 . S
C2066 C2065 1.387 . S
C2066 C2069 1.387 . S
H2067 C2063 0.950 . S
H2068 C2065 0.950 . S
C2069 C2060 1.390 . S
C2069 H2062 0.950 . S
C2069 C2066 1.387 . S
C2070 C2071 1.387 . S
C2070 H2074 0.950 . S
C2070 C2079 1.390 . S
C2071 C2070 1.387 . S
C2071 C2073 1.387 . S
H2072 C2079 0.950 . S
C2073 C2071 1.387 . S
C2073 C2075 1.390 . S
C2073 H2077 0.950 . S
H2074 C2070 0.950 . S
C2075 C2073 1.390 . S
C2075 C2076 1.387 . S
C2075 H2078 0.950 . S
C2076 C2075 1.387 . S
C2076 C2079 1.387 . S
H2077 C2073 0.950 . S
H2078 C2075 0.950 . S
C2079 C2070 1.390 . S
C2079 H2072 0.950 . S
C2079 C2076 1.387 . S
C2080 C2081 1.387 . S
C2080 H2084 0.950 . S
C2080 C2089 1.390 . S
C2081 C2080 1.387 . S
C2081 C2083 1.387 . S
H2082 C2089 0.950 . S
C2083 C2081 1.387 . S
C2083 C2085 1.390 . S
C2083 H2087 0.950 . S
H2084 C2080 0.950 . S
C2085 C2083 1.390 . S
C2085 C2086 1.387 . S
C2085 H2088 0.950 . S
C2086 C2085 1.387 . S
C2086 C2089 1.387 . S
H2087 C2083 0.950 . S
H2088 C2085 0.950 . S
C2089 C2080 1.390 . S
C2089 H2082 0.950 . S
C2089 C2086 1.387 . S
C2090 C2091 1.387 . S
C2090 H2094 0.950 . S
C2090 C2099 1.390 . S
C2091 C2090 1.387 . S
C2091 C2093 1.387 . S
H2092 C2099 0.950 1_655 S
C2093 C2091 1.387 . S
C2093 C2095 1.390 . S
C2093 H2097 0.950 . S
H2094 C2090 0.950 . S
C2095 C2093 1.390 . S
C2095 C2096 1.387 . S
C2095 H2098 0.950 . S
C2096 C2095 1.387 . S
C2096 C2099 1.387 . S
H2097 C2093 0.950 . S
H2098 C2095 0.950 . S
C2099 C2090 1.390 . S
C2099 H2092 0.950 1_455 S
C2099 C2096 1.387 . S
C2100 C2101 1.387 . S
C2100 H2104 0.950 . S
C2100 C2109 1.390 1_655 S
C2101 C2100 1.387 . S
C2101 C2103 1.387 . S
H2102 C2109 0.950 . S
C2103 C2101 1.387 . S
C2103 C2105 1.390 1_655 S
C2103 H2107 0.950 . S
H2104 C2100 0.950 . S
C2105 C2103 1.390 1_455 S
C2105 C2106 1.387 . S
C2105 H2108 0.950 . S
C2106 C2105 1.387 . S
C2106 C2109 1.387 . S
H2107 C2103 0.950 . S
H2108 C2105 0.950 . S
C2109 C2100 1.390 1_455 S
C2109 H2102 0.950 . S
C2109 C2106 1.387 . S
C2110 C2111 1.387 . S
C2110 H2114 0.950 . S
C2110 C2119 1.390 . S
C2111 C2110 1.387 . S
C2111 C2113 1.387 . S
H2112 C2119 0.950 . S
C2113 C2111 1.387 . S
C2113 C2115 1.390 . S
C2113 H2117 0.950 . S
H2114 C2110 0.950 . S
C2115 C2113 1.390 . S
C2115 C2116 1.387 . S
C2115 H2118 0.950 . S
C2116 C2115 1.387 . S
C2116 C2119 1.387 . S
H2117 C2113 0.950 . S
H2118 C2115 0.950 . S
C2119 C2110 1.390 . S
C2119 H2112 0.950 . S
C2119 C2116 1.387 . S
C2120 C2121 1.387 . S
C2120 H2124 0.950 . S
C2120 C2129 1.390 1_545 S
C2121 C2120 1.387 . S
C2121 C2123 1.387 . S
H2122 C2129 0.950 . S
C2123 C2121 1.387 . S
C2123 C2125 1.390 1_545 S
C2123 H2127 0.950 . S
H2124 C2120 0.950 . S
C2125 C2123 1.390 1_565 S
C2125 C2126 1.387 . S
C2125 H2128 0.950 . S
C2126 C2125 1.387 . S
C2126 C2129 1.387 . S
H2127 C2123 0.950 . S
H2128 C2125 0.950 . S
C2129 C2120 1.390 1_565 S
C2129 H2122 0.950 . S
C2129 C2126 1.387 . S
C2130 C2131 1.387 . S
C2130 H2134 0.950 . S
C2130 C2139 1.390 1_545 S
C2131 C2130 1.387 . S
C2131 C2133 1.387 . S
H2132 C2139 0.950 . S
C2133 C2131 1.387 . S
C2133 C2135 1.390 1_545 S
C2133 H2137 0.950 . S
H2134 C2130 0.950 . S
C2135 C2133 1.390 1_565 S
C2135 C2136 1.387 . S
C2135 H2138 0.950 . S
C2136 C2135 1.387 . S
C2136 C2139 1.387 . S
H2137 C2133 0.950 . S
H2138 C2135 0.950 . S
C2139 C2130 1.390 1_565 S
C2139 H2132 0.950 . S
C2139 C2136 1.387 . S
C2140 C2141 1.387 . S
C2140 H2144 0.950 . S
C2140 C2149 1.390 1_655 S
C2141 C2140 1.387 . S
C2141 C2143 1.387 . S
H2142 C2149 0.950 . S
C2143 C2141 1.387 . S
C2143 C2145 1.390 1_655 S
C2143 H2147 0.950 . S
H2144 C2140 0.950 . S
C2145 C2143 1.390 1_455 S
C2145 C2146 1.387 . S
C2145 H2148 0.950 . S
C2146 C2145 1.387 . S
C2146 C2149 1.387 . S
H2147 C2143 0.950 . S
H2148 C2145 0.950 . S
C2149 C2140 1.390 1_455 S
C2149 H2142 0.950 . S
C2149 C2146 1.387 . S
C2150 C2151 1.387 . S
C2150 H2154 0.950 . S
C2150 C2159 1.390 . S
C2151 C2150 1.387 . S
C2151 C2153 1.387 . S
H2152 C2159 0.950 . S
C2153 C2151 1.387 . S
C2153 C2155 1.390 . S
C2153 H2157 0.950 . S
H2154 C2150 0.950 . S
C2155 C2153 1.390 . S
C2155 C2156 1.387 . S
C2155 H2158 0.950 . S
C2156 C2155 1.387 . S
C2156 C2159 1.387 . S
H2157 C2153 0.950 . S
H2158 C2155 0.950 . S
C2159 C2150 1.390 . S
C2159 H2152 0.950 . S
C2159 C2156 1.387 . S
C1081 C27 1.460 . S
C1086 N224 1.482 . S
C1091 N254 1.478 . S
C1096 C57 1.456 . S
C1101 N194 1.478 . S
C1106 C87 1.457 . S
C1111 N344 1.479 . S
C1116 C117 1.456 . S
C1121 C147 1.459 . S
C1126 N284 1.481 . S
C1131 C177 1.459 . S
C1136 N314 1.481 . S
C1141 N36 1.482 . S
C1146 C196 1.460 . S
C1151 C226 1.456 . S
C1156 N66 1.478 . S
C1161 N6 1.479 . S
C1166 C256 1.457 . S
C1171 N156 1.479 . S
C1176 C286 1.457 . S
C1181 C316 1.456 . S
C1186 N96 1.479 . S
C1191 C346 1.456 . S
C1196 N126 1.478 . S
C1201 C387 1.459 . S
C1206 N584 1.482 . S
C1211 N614 1.478 . S
C1216 C417 1.456 . S
C1221 N554 1.478 . S
C1226 C447 1.456 . S
C1231 C477 1.459 . S
C1236 N704 1.482 . S
C1241 N644 1.481 . S
C1246 C507 1.460 . S
C1251 C537 1.456 . S
C1256 N674 1.478 . S
C1261 C556 1.460 . S
C1266 N396 1.482 . S
C1271 N426 1.481 . S
C1276 C586 1.459 . S
C1281 C616 1.456 . S
C1286 N366 1.478 . S
C1291 N516 1.479 . S
C1296 C646 1.456 . S
C1301 N456 1.480 . S
C1306 C676 1.458 . S
C1311 C706 1.459 . S
C1316 N486 1.480 . S
C1321 C747 1.460 . S
C1326 N944 1.482 . S
C1331 C777 1.459 . S
C1336 N974 1.481 . S
C1341 N914 1.481 . S
C1346 C807 1.458 . S
C1351 N1064 1.479 . S
C1356 C837 1.456 . S
C1361 C867 1.456 . S
C1366 N1004 1.479 . S
C1371 N1034 1.481 . S
C1376 C897 1.459 . S
C1381 N756 1.481 . S
C1386 C916 1.459 . S
C1391 C946 1.458 . S
C1396 N786 1.479 . S
C1401 N726 1.479 . S
C1406 C976 1.457 . S
C1411 C1006 1.460 . S
C1416 N876 1.482 . S
C1421 C1036 1.459 . S
C1426 N816 1.481 . S
C1431 C1066 1.456 . S
C1436 N846 1.478 . S
C1441 N14 1.096 . S
C1446 N546 1.096 . S
C1451 N44 1.101 . S
C1456 N576 1.101 . S
C1461 N606 1.096 . S
C1466 N74 1.096 . S
C1471 N996 1.101 . S
C1476 N104 1.101 . S
C1481 N1026 1.095 . S
C1486 N134 1.095 . S
C1491 N1056 1.097 . S
C1496 N164 1.097 . S
C1501 N186 1.102 . S
C1506 N734 1.102 . S
C1511 N764 1.098 . S
C1516 N216 1.098 . S
C1521 N246 1.095 . S
C1526 N794 1.095 . S
C1531 N276 1.100 . S
C1536 N464 1.100 . S
C1541 N306 1.101 . S
C1546 N494 1.101 . S
C1551 N336 1.102 . S
C1556 N524 1.102 . S
C1561 N374 1.101 1_455 S
C1566 N906 1.101 1_655 S
C1571 N936 1.096 . S
C1576 N404 1.096 . S
C1581 N434 1.095 1_565 S
C1586 N966 1.095 1_545 S
C1591 N824 1.100 1_545 S
C1596 N636 1.100 1_565 S
C1601 N666 1.102 1_455 S
C1606 N854 1.102 1_655 S
C1611 N884 1.101 . S
C1616 N696 1.101 . S
C1621 C1 2.270 . S
C1626 C481 2.271 . S
C1631 C31 2.270 . S
C1636 C511 2.270 . S
C1641 C451 2.269 . S
C1646 C61 2.269 . S
C1651 C91 2.269 . S
C1656 C781 2.269 . S
C1661 C721 2.270 . S
C1666 C121 2.270 . S
C1671 C151 2.271 . S
C1676 C751 2.271 . S
C1681 C1030 2.269 . S
C1686 C190 2.269 . S
C1691 C220 2.271 . S
C1696 C1060 2.270 . S
C1701 C1000 2.269 . S
C1706 C250 2.269 . S
C1711 C280 2.269 . S
C1716 C610 2.269 . S
C1721 C310 2.269 . S
C1726 C550 2.269 . S
C1731 C340 2.270 . S
C1736 C580 2.271 . S
C1741 C841 2.270 . S
C1746 C361 2.270 . S
C1751 C391 2.269 . S
C1756 C871 2.270 . S
C1761 C421 2.269 . S
C1766 C811 2.269 . S
C1771 C970 2.272 . S
C1776 C640 2.272 . S
C1781 C910 2.270 . S
C1786 C670 2.270 . S
C1791 C940 2.269 . S
C1796 C700 2.269 . S
C1801 C100 1.907 . S
C1806 C10 1.907 . S
C1811 C40 1.907 . S
C1816 C130 1.907 . S
C1821 C70 1.907 . S
C1826 C160 1.907 . S
C1831 C271 1.907 . S
C1836 C181 1.907 . S
C1841 C211 1.907 . S
C1846 C301 1.906 . S
C1851 C331 1.906 . S
C1856 C241 1.907 . S
C1861 C460 1.907 . S
C1866 C370 1.907 . S
C1871 C400 1.906 . S
C1876 C490 1.907 . S
C1881 C430 1.907 . S
C1886 C520 1.907 . S
C1891 C541 1.907 . S
C1896 C631 1.907 1_554 S
C1901 C571 1.907 . S
C1906 C661 1.907 1_554 S
C1911 C601 1.907 . S
C1916 C691 1.907 1_554 S
C1921 C730 1.906 . S
C1926 C820 1.907 1_556 S
C1931 C850 1.907 1_556 S
C1936 C760 1.907 . S
C1941 C880 1.907 1_556 S
C1946 C790 1.907 . S
C1951 C901 1.906 . S
C1956 C991 1.907 . S
C1961 C1021 1.907 . S
C1966 C931 1.907 . S
C1971 C961 1.907 . S
C1976 C1051 1.908 . S
C1981 C16 1.687 . S
C1986 C886 1.687 . S
C1991 C826 1.686 . S
C1996 C46 1.687 . S
C2001 C76 1.687 . S
C2006 C856 1.687 . S
C2011 C406 1.687 . S
C2016 C106 1.686 . S
C2021 C136 1.688 . S
C2026 C436 1.687 . S
C2031 C166 1.687 . S
C2036 C376 1.687 . S
C2041 C717 1.687 . S
C2046 C207 1.687 . S
C2051 C237 1.687 . S
C2056 C657 1.687 . S
C2061 C687 1.688 . S
C2066 C267 1.687 . S
C2071 C297 1.687 . S
C2076 C957 1.686 . S
C2081 C987 1.687 . S
C2086 C327 1.688 . S
C2091 C927 1.686 . S
C2096 C357 1.686 . S
C2101 C466 1.687 . S
C2106 C766 1.686 . S
C2111 C496 1.687 . S
C2116 C796 1.687 . S
C2121 C526 1.686 . S
C2126 C736 1.686 . S
C2131 C567 1.686 . S
C2136 C1077 1.686 . S
C2141 C597 1.686 . S
C2146 C1017 1.687 . S
C2151 C1047 1.687 . S
C2156 C627 1.688 . S
