# Generated by pormake.
# Topology nfa, (4)-cn, num edge types: 1
# Building blocks:
#     Node 0, Type 0, BuildingBlock: KOZSID_clean_sbu_0, # of connection points: 4
#     Node 1, Type 0, BuildingBlock: KOZSID_clean_sbu_0, # of connection points: 4
#     Node 2, Type 0, BuildingBlock: KOZSID_clean_sbu_0, # of connection points: 4
#     Node 3, Type 0, BuildingBlock: KOZSID_clean_sbu_0, # of connection points: 4
#     Node 4, Type 0, BuildingBlock: KOZSID_clean_sbu_0, # of connection points: 4
#     Node 5, Type 0, BuildingBlock: KOZSID_clean_sbu_0, # of connection points: 4
#     Node 6, Type 0, BuildingBlock: KOZSID_clean_sbu_0, # of connection points: 4
#     Node 7, Type 0, BuildingBlock: KOZSID_clean_sbu_0, # of connection points: 4
#     Node 8, Type 0, BuildingBlock: KOZSID_clean_sbu_0, # of connection points: 4
#     Node 9, Type 0, BuildingBlock: KOZSID_clean_sbu_0, # of connection points: 4
#     Node 10, Type 0, BuildingBlock: KOZSID_clean_sbu_0, # of connection points: 4
#     Node 11, Type 0, BuildingBlock: KOZSID_clean_sbu_0, # of connection points: 4
#     Node 12, Type 0, BuildingBlock: KOZSID_clean_sbu_0, # of connection points: 4
#     Node 13, Type 0, BuildingBlock: KOZSID_clean_sbu_0, # of connection points: 4
#     Node 14, Type 0, BuildingBlock: KOZSID_clean_sbu_0, # of connection points: 4
#     Node 15, Type 0, BuildingBlock: KOZSID_clean_sbu_0, # of connection points: 4
#     Node 16, Type 0, BuildingBlock: KOZSID_clean_sbu_0, # of connection points: 4
#     Node 17, Type 0, BuildingBlock: KOZSID_clean_sbu_0, # of connection points: 4
#     Node 18, Type 0, BuildingBlock: KOZSID_clean_sbu_0, # of connection points: 4
#     Node 19, Type 0, BuildingBlock: KOZSID_clean_sbu_0, # of connection points: 4
#     Node 20, Type 0, BuildingBlock: KOZSID_clean_sbu_0, # of connection points: 4
#     Node 21, Type 0, BuildingBlock: KOZSID_clean_sbu_0, # of connection points: 4
#     Node 22, Type 0, BuildingBlock: KOZSID_clean_sbu_0, # of connection points: 4
#     Node 23, Type 0, BuildingBlock: KOZSID_clean_sbu_0, # of connection points: 4
#     Edge 24, Type (0, 0), BuildingBlock: KIFKEQ_clean_linker_1, # of connection points: 2
#     Edge 25, Type (0, 0), BuildingBlock: KIFKEQ_clean_linker_1, # of connection points: 2
#     Edge 26, Type (0, 0), BuildingBlock: KIFKEQ_clean_linker_1, # of connection points: 2
#     Edge 27, Type (0, 0), BuildingBlock: KIFKEQ_clean_linker_1, # of connection points: 2
#     Edge 28, Type (0, 0), BuildingBlock: KIFKEQ_clean_linker_1, # of connection points: 2
#     Edge 29, Type (0, 0), BuildingBlock: KIFKEQ_clean_linker_1, # of connection points: 2
#     Edge 30, Type (0, 0), BuildingBlock: KIFKEQ_clean_linker_1, # of connection points: 2
#     Edge 31, Type (0, 0), BuildingBlock: KIFKEQ_clean_linker_1, # of connection points: 2
#     Edge 32, Type (0, 0), BuildingBlock: KIFKEQ_clean_linker_1, # of connection points: 2
#     Edge 33, Type (0, 0), BuildingBlock: KIFKEQ_clean_linker_1, # of connection points: 2
#     Edge 34, Type (0, 0), BuildingBlock: KIFKEQ_clean_linker_1, # of connection points: 2
#     Edge 35, Type (0, 0), BuildingBlock: KIFKEQ_clean_linker_1, # of connection points: 2
#     Edge 36, Type (0, 0), BuildingBlock: KIFKEQ_clean_linker_1, # of connection points: 2
#     Edge 37, Type (0, 0), BuildingBlock: KIFKEQ_clean_linker_1, # of connection points: 2
#     Edge 38, Type (0, 0), BuildingBlock: KIFKEQ_clean_linker_1, # of connection points: 2
#     Edge 39, Type (0, 0), BuildingBlock: KIFKEQ_clean_linker_1, # of connection points: 2
#     Edge 40, Type (0, 0), BuildingBlock: KIFKEQ_clean_linker_1, # of connection points: 2
#     Edge 41, Type (0, 0), BuildingBlock: KIFKEQ_clean_linker_1, # of connection points: 2
#     Edge 42, Type (0, 0), BuildingBlock: KIFKEQ_clean_linker_1, # of connection points: 2
#     Edge 43, Type (0, 0), BuildingBlock: KIFKEQ_clean_linker_1, # of connection points: 2
#     Edge 44, Type (0, 0), BuildingBlock: KIFKEQ_clean_linker_1, # of connection points: 2
#     Edge 45, Type (0, 0), BuildingBlock: KIFKEQ_clean_linker_1, # of connection points: 2
#     Edge 46, Type (0, 0), BuildingBlock: KIFKEQ_clean_linker_1, # of connection points: 2
#     Edge 47, Type (0, 0), BuildingBlock: KIFKEQ_clean_linker_1, # of connection points: 2
#     Edge 48, Type (0, 0), BuildingBlock: KIFKEQ_clean_linker_1, # of connection points: 2
#     Edge 49, Type (0, 0), BuildingBlock: KIFKEQ_clean_linker_1, # of connection points: 2
#     Edge 50, Type (0, 0), BuildingBlock: KIFKEQ_clean_linker_1, # of connection points: 2
#     Edge 51, Type (0, 0), BuildingBlock: KIFKEQ_clean_linker_1, # of connection points: 2
#     Edge 52, Type (0, 0), BuildingBlock: KIFKEQ_clean_linker_1, # of connection points: 2
#     Edge 53, Type (0, 0), BuildingBlock: KIFKEQ_clean_linker_1, # of connection points: 2
#     Edge 54, Type (0, 0), BuildingBlock: KIFKEQ_clean_linker_1, # of connection points: 2
#     Edge 55, Type (0, 0), BuildingBlock: KIFKEQ_clean_linker_1, # of connection points: 2
#     Edge 56, Type (0, 0), BuildingBlock: KIFKEQ_clean_linker_1, # of connection points: 2
#     Edge 57, Type (0, 0), BuildingBlock: KIFKEQ_clean_linker_1, # of connection points: 2
#     Edge 58, Type (0, 0), BuildingBlock: KIFKEQ_clean_linker_1, # of connection points: 2
#     Edge 59, Type (0, 0), BuildingBlock: KIFKEQ_clean_linker_1, # of connection points: 2
#     Edge 60, Type (0, 0), BuildingBlock: KIFKEQ_clean_linker_1, # of connection points: 2
#     Edge 61, Type (0, 0), BuildingBlock: KIFKEQ_clean_linker_1, # of connection points: 2
#     Edge 62, Type (0, 0), BuildingBlock: KIFKEQ_clean_linker_1, # of connection points: 2
#     Edge 63, Type (0, 0), BuildingBlock: KIFKEQ_clean_linker_1, # of connection points: 2
#     Edge 64, Type (0, 0), BuildingBlock: KIFKEQ_clean_linker_1, # of connection points: 2
#     Edge 65, Type (0, 0), BuildingBlock: KIFKEQ_clean_linker_1, # of connection points: 2
#     Edge 66, Type (0, 0), BuildingBlock: KIFKEQ_clean_linker_1, # of connection points: 2
#     Edge 67, Type (0, 0), BuildingBlock: KIFKEQ_clean_linker_1, # of connection points: 2
#     Edge 68, Type (0, 0), BuildingBlock: KIFKEQ_clean_linker_1, # of connection points: 2
#     Edge 69, Type (0, 0), BuildingBlock: KIFKEQ_clean_linker_1, # of connection points: 2
#     Edge 70, Type (0, 0), BuildingBlock: KIFKEQ_clean_linker_1, # of connection points: 2
#     Edge 71, Type (0, 0), BuildingBlock: KIFKEQ_clean_linker_1, # of connection points: 2
# Relax obj value: 0.045
# Max RMSD: 0.139
# Mean RMSD: 0.108
data_MOF--net-nfa--node1-KOZSID_clean_sbu_0--edge1-KIFKEQ_clean_linker_1
_symmetry_space_group_name_H-M    P1
_symmetry_Int_Tables_number       1
_symmetry_cell_setting            triclinic
loop_
_symmetry_equiv_pos_as_xyz
'x, y, z'
_cell_length_a     50.080302
_cell_length_b     51.10675
_cell_length_c     51.977607
_cell_angle_alpha  89.069401
_cell_angle_beta   87.899094
_cell_angle_gamma 86.923603
loop_
_atom_site_label
_atom_site_type_symbol
_atom_site_fract_x
_atom_site_fract_y
_atom_site_fract_z
_atom_type_partial_charge
C0 C 0.05532 0.36766 0.37481 0.0
C1 C 0.03118 0.37419 0.38774 0.0
C2 C 0.03482 0.39635 0.40116 0.0
C3 C 0.06089 0.40199 0.3959 0.0
N4 N 0.07405 0.38512 0.37943 0.0
Co5 Co 0.11319 0.38413 0.36928 0.0
N6 N 0.11925 0.41504 0.39129 0.0
C7 C 0.10069 0.42882 0.40588 0.0
C8 C 0.11044 0.44994 0.41766 0.0
C9 C 0.13668 0.45005 0.40966 0.0
C10 C 0.14139 0.42893 0.39335 0.0
N11 N 0.15247 0.38255 0.35979 0.0
C12 C 0.17165 0.39913 0.36543 0.0
C13 C 0.19629 0.39128 0.35418 0.0
C14 C 0.1925 0.36915 0.34074 0.0
C15 C 0.16588 0.36476 0.34445 0.0
N16 N 0.10702 0.3538 0.34662 0.0
C17 C 0.1252 0.34115 0.33072 0.0
C18 C 0.11511 0.32092 0.3178 0.0
C19 C 0.08906 0.32028 0.32633 0.0
C20 C 0.08484 0.3401 0.3442 0.0
N21 N 0.10625 0.40873 0.34007 0.0
C22 C 0.1013 0.4471 0.30082 0.0
C23 C 0.11819 0.4247 0.2974 0.0
C24 C 0.12024 0.40587 0.31705 0.0
C25 C 0.08589 0.44932 0.32369 0.0
C26 C 0.08859 0.43001 0.34286 0.0
N27 N 0.12 0.35954 0.39851 0.0
C28 C 0.13376 0.31619 0.4139 0.0
C29 C 0.12226 0.32155 0.43824 0.0
C30 C 0.11102 0.3467 0.4428 0.0
C31 C 0.11015 0.36525 0.42283 0.0
C32 C 0.1327 0.33543 0.39454 0.0
H33 H 0.10069 0.38381 0.42739 0.0
H34 H 0.1417 0.33012 0.37636 0.0
H35 H 0.13372 0.38947 0.31332 0.0
H36 H 0.07668 0.43311 0.36001 0.0
C37 C 0.07408 0.42188 0.40746 0.0
C38 C 0.06013 0.34384 0.35976 0.0
C39 C 0.16694 0.42353 0.37954 0.0
C40 C 0.15226 0.34646 0.331 0.0
H41 H 0.01303 0.36363 0.38823 0.0
H42 H 0.02047 0.40651 0.41406 0.0
H43 H 0.09959 0.46395 0.43008 0.0
H44 H 0.15066 0.46437 0.41479 0.0
H45 H 0.21489 0.40105 0.3547 0.0
H46 H 0.2071 0.35838 0.32857 0.0
H47 H 0.12577 0.30742 0.30473 0.0
H48 H 0.07503 0.30616 0.32082 0.0
H49 H 0.13004 0.4218 0.27972 0.0
H50 H 0.07249 0.46632 0.32724 0.0
H51 H 0.14332 0.29714 0.40972 0.0
H52 H 0.10196 0.35178 0.46142 0.0
C53 C 0.88321 0.79749 0.62279 0.0
C54 C 0.87852 0.77432 0.63604 0.0
C55 C 0.85685 0.77949 0.65224 0.0
C56 C 0.84968 0.80543 0.64797 0.0
N57 N 0.86494 0.81694 0.62949 0.0
Co58 Co 0.86394 0.85506 0.61954 0.0
N59 N 0.83419 0.86357 0.64541 0.0
C60 C 0.8212 0.84639 0.66076 0.0
C61 C 0.80013 0.85767 0.67492 0.0
C62 C 0.79912 0.88348 0.66766 0.0
C63 C 0.8197 0.88642 0.64941 0.0
N64 N 0.86431 0.89341 0.61079 0.0
C65 C 0.84791 0.9137 0.61917 0.0
C66 C 0.85497 0.93723 0.60771 0.0
C67 C 0.87631 0.93152 0.59136 0.0
C68 C 0.88109 0.90497 0.59365 0.0
N69 N 0.89246 0.84635 0.59255 0.0
C70 C 0.9029 0.86295 0.57486 0.0
C71 C 0.92258 0.8514 0.55919 0.0
C72 C 0.92521 0.82604 0.56771 0.0
C73 C 0.90687 0.82358 0.58819 0.0
N74 N 0.83628 0.85025 0.59394 0.0
C75 C 0.79161 0.85004 0.56303 0.0
C76 C 0.81174 0.86734 0.55771 0.0
C77 C 0.83404 0.86676 0.57299 0.0
C78 C 0.79498 0.83157 0.58275 0.0
C79 C 0.81733 0.83205 0.59795 0.0
N80 N 0.89134 0.85978 0.64525 0.0
C81 C 0.93653 0.869 0.6555 0.0
C82 C 0.93208 0.86049 0.68087 0.0
C83 C 0.90668 0.85259 0.68834 0.0
C84 C 0.88678 0.85242 0.6704 0.0
C85 C 0.9159 0.86875 0.63815 0.0
H86 H 0.86807 0.84557 0.67721 0.0
H87 H 0.92041 0.87542 0.61899 0.0
H88 H 0.84879 0.88037 0.56788 0.0
H89 H 0.81828 0.81799 0.61325 0.0
C90 C 0.82936 0.81981 0.66145 0.0
C91 C 0.90591 0.80041 0.60485 0.0
C92 C 0.82389 0.91102 0.63558 0.0
C93 C 0.8977 0.88993 0.57684 0.0
H94 H 0.89001 0.75582 0.63454 0.0
H95 H 0.84791 0.76616 0.66603 0.0
H96 H 0.7868 0.84817 0.68853 0.0
H97 H 0.78454 0.89839 0.67456 0.0
H98 H 0.84502 0.9564 0.6098 0.0
H99 H 0.88602 0.94487 0.57811 0.0
H100 H 0.93491 0.86075 0.54459 0.0
H101 H 0.94 0.81152 0.56052 0.0
H102 H 0.81009 0.88148 0.54201 0.0
H103 H 0.77989 0.81756 0.58712 0.0
H104 H 0.95584 0.8757 0.64903 0.0
H105 H 0.90237 0.84569 0.7078 0.0
C106 C 0.44382 0.60499 0.90623 0.0
C107 C 0.46398 0.59249 0.92014 0.0
C108 C 0.45192 0.57492 0.93623 0.0
C109 C 0.42519 0.57786 0.93127 0.0
N110 N 0.41958 0.59573 0.91249 0.0
Co111 Co 0.38337 0.6087 0.90125 0.0
N112 N 0.36537 0.58397 0.92565 0.0
C113 C 0.37706 0.56651 0.94212 0.0
C114 C 0.35942 0.55023 0.95413 0.0
C115 C 0.33519 0.55714 0.944 0.0
C116 C 0.33958 0.57736 0.92654 0.0
N117 N 0.34717 0.62255 0.891 0.0
C118 C 0.32305 0.61281 0.89652 0.0
C119 C 0.30259 0.62759 0.8851 0.0
C120 C 0.31444 0.64712 0.87132 0.0
C121 C 0.34133 0.64308 0.87511 0.0
N122 N 0.40119 0.63227 0.87567 0.0
C123 C 0.38924 0.64877 0.85847 0.0
C124 C 0.40698 0.66219 0.84328 0.0
C125 C 0.43166 0.65406 0.85161 0.0
C126 C 0.42745 0.63617 0.87154 0.0
N127 N 0.38366 0.58138 0.87445 0.0
C128 C 0.38307 0.54235 0.8366 0.0
C129 C 0.37196 0.56764 0.83216 0.0
C130 C 0.37249 0.58668 0.85113 0.0
C131 C 0.39449 0.53701 0.86042 0.0
C132 C 0.39457 0.55662 0.8789 0.0
N133 N 0.38319 0.63622 0.92816 0.0
C134 C 0.38358 0.68192 0.94001 0.0
C135 C 0.38554 0.67511 0.966 0.0
C136 C 0.38605 0.64856 0.97279 0.0
C137 C 0.3851 0.62963 0.95375 0.0
C138 C 0.38212 0.66239 0.92161 0.0
H139 H 0.38624 0.60981 0.96034 0.0
H140 H 0.38029 0.66908 0.90222 0.0
H141 H 0.36352 0.60552 0.84659 0.0
H142 H 0.40345 0.55128 0.89671 0.0
C143 C 0.40485 0.5647 0.94429 0.0
C144 C 0.4483 0.62682 0.88867 0.0
C145 C 0.31957 0.58754 0.90896 0.0
C146 C 0.36151 0.654 0.85977 0.0
H147 H 0.48506 0.59626 0.91917 0.0
H148 H 0.46139 0.56211 0.95039 0.0
H149 H 0.36388 0.53435 0.96759 0.0
H150 H 0.31663 0.54766 0.94796 0.0
H151 H 0.28156 0.62371 0.88537 0.0
H152 H 0.30481 0.66114 0.85834 0.0
H153 H 0.40247 0.67724 0.82896 0.0
H154 H 0.4505 0.66159 0.84488 0.0
H155 H 0.36247 0.57273 0.81423 0.0
H156 H 0.40365 0.51785 0.86477 0.0
H157 H 0.38282 0.70231 0.93388 0.0
H158 H 0.38776 0.64235 0.99272 0.0
C159 C 0.60811 0.19002 0.12803 0.0
C160 C 0.61428 0.2136 0.13873 0.0
C161 C 0.62967 0.20749 0.15945 0.0
C162 C 0.63226 0.18064 0.16017 0.0
N163 N 0.61991 0.16947 0.14084 0.0
Co164 Co 0.6186 0.13127 0.13512 0.0
N165 N 0.64816 0.12321 0.15881 0.0
C166 C 0.6568 0.13899 0.17682 0.0
C167 C 0.67864 0.12813 0.18916 0.0
C168 C 0.68405 0.10412 0.17807 0.0
C169 C 0.66505 0.10171 0.15962 0.0
N170 N 0.61744 0.09314 0.12965 0.0
C171 C 0.63694 0.07427 0.133 0.0
C172 C 0.62866 0.04993 0.12629 0.0
C173 C 0.60293 0.05397 0.1182 0.0
C174 C 0.59707 0.08044 0.12051 0.0
N175 N 0.58892 0.13896 0.11137 0.0
C176 C 0.57193 0.12144 0.10333 0.0
C177 C 0.55274 0.13236 0.08771 0.0
C178 C 0.55757 0.15845 0.08623 0.0
C179 C 0.57954 0.16208 0.10114 0.0
N180 N 0.64486 0.13363 0.1063 0.0
C181 C 0.68506 0.13308 0.06699 0.0
C182 C 0.6613 0.12021 0.06409 0.0
C183 C 0.6415 0.12078 0.08386 0.0
C184 C 0.68782 0.14676 0.08985 0.0
C185 C 0.66757 0.14685 0.10911 0.0
N186 N 0.5925 0.12878 0.16413 0.0
C187 C 0.55343 0.14647 0.18764 0.0
C188 C 0.55601 0.12667 0.20648 0.0
C189 C 0.57709 0.10761 0.20336 0.0
C190 C 0.59509 0.10905 0.18213 0.0
C191 C 0.57172 0.14713 0.16676 0.0
H192 H 0.61129 0.09431 0.1804 0.0
H193 H 0.569 0.16266 0.15282 0.0
H194 H 0.62368 0.11037 0.08118 0.0
H195 H 0.67067 0.15711 0.12659 0.0
C196 C 0.64828 0.16551 0.17694 0.0
C197 C 0.58767 0.18804 0.10864 0.0
C198 C 0.66301 0.07902 0.14315 0.0
C199 C 0.57599 0.09464 0.10893 0.0
H200 H 0.60744 0.23315 0.13279 0.0
H201 H 0.63809 0.22103 0.17232 0.0
H202 H 0.69039 0.13728 0.20323 0.0
H203 H 0.70039 0.09035 0.18266 0.0
H204 H 0.64015 0.03139 0.12683 0.0
H205 H 0.59069 0.03959 0.11008 0.0
H206 H 0.53711 0.12255 0.07849 0.0
H207 H 0.54551 0.17323 0.07618 0.0
H208 H 0.65795 0.10973 0.04666 0.0
H209 H 0.70584 0.15678 0.09324 0.0
H210 H 0.53722 0.16135 0.18885 0.0
H211 H 0.58001 0.09199 0.21746 0.0
C212 C 0.11695 0.61759 0.17431 0.0
C213 C 0.12494 0.62482 0.19835 0.0
C214 C 0.14197 0.64457 0.19425 0.0
C215 C 0.14346 0.64819 0.16805 0.0
N216 N 0.1279 0.63233 0.1552 0.0
Co217 Co 0.12553 0.62933 0.11693 0.0
N218 N 0.15266 0.65644 0.11067 0.0
C219 C 0.16594 0.66909 0.12852 0.0
C220 C 0.18154 0.68818 0.11828 0.0
C221 C 0.17743 0.68822 0.09244 0.0
C222 C 0.15956 0.669 0.08846 0.0
N223 N 0.12335 0.62611 0.07873 0.0
C224 C 0.13379 0.64122 0.05972 0.0
C225 C 0.12681 0.63332 0.03558 0.0
C226 C 0.11063 0.61286 0.03956 0.0
C227 C 0.10876 0.60948 0.06579 0.0
N228 N 0.09813 0.60256 0.12305 0.0
C229 C 0.08473 0.59013 0.10515 0.0
C230 C 0.06772 0.57224 0.11539 0.0
C231 C 0.07087 0.5729 0.14135 0.0
C232 C 0.08974 0.59117 0.14535 0.0
N233 N 0.09676 0.65757 0.11667 0.0
C234 C 0.05726 0.6989 0.11496 0.0
C235 C 0.05495 0.67616 0.1008 0.0
C236 C 0.07476 0.65586 0.10197 0.0
C237 C 0.07961 0.70051 0.13 0.0
C238 C 0.09888 0.67984 0.1306 0.0
N239 N 0.15436 0.60103 0.1173 0.0
C240 C 0.17087 0.55688 0.10704 0.0
C241 C 0.19334 0.55949 0.12173 0.0
C242 C 0.19635 0.58341 0.13353 0.0
C243 C 0.17691 0.60375 0.13094 0.0
C244 C 0.15173 0.57772 0.10516 0.0
H245 H 0.18051 0.62137 0.14046 0.0
H246 H 0.13479 0.57433 0.09413 0.0
H247 H 0.07194 0.63906 0.09071 0.0
H248 H 0.11547 0.68251 0.14225 0.0
C249 C 0.16084 0.66474 0.15485 0.0
C250 C 0.10093 0.59516 0.17031 0.0
C251 C 0.14765 0.66496 0.06383 0.0
C252 C 0.09072 0.59359 0.07887 0.0
H253 H 0.11976 0.6161 0.21684 0.0
H254 H 0.15285 0.65434 0.20857 0.0
H255 H 0.19332 0.70149 0.12853 0.0
H256 H 0.18571 0.7016 0.07833 0.0
H257 H 0.1318 0.64235 0.01717 0.0
H258 H 0.10016 0.60275 0.02517 0.0
H259 H 0.05547 0.55936 0.10515 0.0
H260 H 0.06127 0.56058 0.15566 0.0
H261 H 0.03784 0.67389 0.08904 0.0
H262 H 0.08255 0.71788 0.141 0.0
H263 H 0.16773 0.53865 0.09753 0.0
H264 H 0.21374 0.58651 0.14467 0.0
C265 C 0.63436 0.89464 0.42816 0.0
C266 C 0.62252 0.90835 0.44885 0.0
C267 C 0.60875 0.92982 0.4388 0.0
C268 C 0.61276 0.92802 0.41262 0.0
N269 N 0.62785 0.90647 0.40562 0.0
Co270 Co 0.6386 0.89659 0.36991 0.0
N271 N 0.61053 0.92069 0.35573 0.0
C272 C 0.59764 0.9411 0.36758 0.0
C273 C 0.57811 0.95295 0.35272 0.0
C274 C 0.57886 0.93891 0.3303 0.0
C275 C 0.59883 0.91936 0.33289 0.0
N276 N 0.64928 0.88717 0.3341 0.0
C277 C 0.63437 0.88907 0.31301 0.0
C278 C 0.64863 0.87935 0.29157 0.0
C279 C 0.6735 0.87109 0.29983 0.0
C280 C 0.6729 0.87617 0.32575 0.0
N281 N 0.66679 0.87227 0.38376 0.0
C282 C 0.68831 0.862 0.37035 0.0
C283 C 0.70469 0.84605 0.38509 0.0
C284 C 0.69299 0.84666 0.40932 0.0
C285 C 0.66998 0.8631 0.40808 0.0
N286 N 0.61344 0.86852 0.37154 0.0
C287 C 0.57637 0.82914 0.37211 0.0
C288 C 0.60252 0.82447 0.36194 0.0
C289 C 0.62071 0.84433 0.36194 0.0
C290 C 0.56945 0.8539 0.38238 0.0
C291 C 0.58816 0.87323 0.38184 0.0
N292 N 0.6637 0.92479 0.36839 0.0
C293 C 0.69697 0.94883 0.38872 0.0
C294 C 0.6982 0.96634 0.36775 0.0
C295 C 0.68211 0.96222 0.34679 0.0
C296 C 0.66501 0.94137 0.3475 0.0
C297 C 0.67971 0.92833 0.38865 0.0
H298 H 0.65262 0.93881 0.33126 0.0
H299 H 0.67924 0.91546 0.40519 0.0
H300 H 0.64062 0.84018 0.35393 0.0
H301 H 0.58194 0.8922 0.38935 0.0
C302 C 0.59991 0.94408 0.39414 0.0
C303 C 0.65457 0.87292 0.43092 0.0
C304 C 0.60682 0.89995 0.31343 0.0
C305 C 0.69078 0.86525 0.34353 0.0
H306 H 0.62436 0.90373 0.46913 0.0
H307 H 0.59687 0.94468 0.44933 0.0
H308 H 0.56383 0.96871 0.35817 0.0
H309 H 0.56601 0.94228 0.31415 0.0
H310 H 0.64176 0.87785 0.2722 0.0
H311 H 0.68937 0.86093 0.28863 0.0
H312 H 0.7228 0.83504 0.37893 0.0
H313 H 0.70109 0.83687 0.42614 0.0
H314 H 0.609 0.80556 0.35417 0.0
H315 H 0.54943 0.85868 0.39008 0.0
H316 H 0.70939 0.95081 0.40513 0.0
H317 H 0.68227 0.9753 0.3302 0.0
C318 C 0.36608 0.38091 0.70236 0.0
C319 C 0.35321 0.37415 0.72544 0.0
C320 C 0.33838 0.3533 0.72054 0.0
C321 C 0.34288 0.34857 0.69484 0.0
N322 N 0.36011 0.36484 0.68306 0.0
Co323 Co 0.37042 0.36625 0.64535 0.0
N324 N 0.34668 0.33713 0.63773 0.0
C325 C 0.33064 0.32438 0.65467 0.0
C326 C 0.31801 0.30423 0.64405 0.0
C327 C 0.32701 0.30364 0.61895 0.0
C328 C 0.3447 0.32351 0.61576 0.0
N329 N 0.38053 0.36782 0.60762 0.0
C330 C 0.37497 0.35147 0.58844 0.0
C331 C 0.38715 0.35869 0.56517 0.0
C332 C 0.40129 0.38009 0.56989 0.0
C333 C 0.39701 0.38468 0.59565 0.0
N334 N 0.39443 0.39514 0.65297 0.0
C335 C 0.41064 0.40765 0.63601 0.0
C336 C 0.42422 0.42706 0.64678 0.0
C337 C 0.41582 0.42731 0.67205 0.0
C338 C 0.39742 0.40805 0.67519 0.0
N339 N 0.40026 0.33975 0.65058 0.0
C340 C 0.43996 0.2986 0.65223 0.0
C341 C 0.44456 0.32182 0.63861 0.0
C342 C 0.42467 0.34205 0.63818 0.0
C343 C 0.41568 0.29692 0.66609 0.0
C344 C 0.39635 0.31758 0.6651 0.0
N345 N 0.34049 0.39275 0.64011 0.0
C346 C 0.32456 0.43589 0.62572 0.0
C347 C 0.29952 0.43276 0.6378 0.0
C348 C 0.29506 0.40883 0.65015 0.0
C349 C 0.31555 0.38926 0.65093 0.0
C350 C 0.34454 0.41578 0.62702 0.0
H351 H 0.31084 0.37171 0.66091 0.0
H352 H 0.36322 0.41953 0.61766 0.0
H353 H 0.42927 0.3591 0.62722 0.0
H354 H 0.37812 0.31482 0.67567 0.0
C355 C 0.32972 0.33031 0.68086 0.0
C356 C 0.38229 0.40376 0.69928 0.0
C357 C 0.36023 0.32773 0.59191 0.0
C358 C 0.41076 0.40239 0.60971 0.0
H359 H 0.35375 0.38378 0.74378 0.0
H360 H 0.32509 0.34342 0.73391 0.0
H361 H 0.30473 0.29087 0.65366 0.0
H362 H 0.32182 0.28966 0.60477 0.0
H363 H 0.38679 0.3489 0.54691 0.0
H364 H 0.41429 0.39021 0.55643 0.0
H365 H 0.43781 0.44014 0.6372 0.0
H366 H 0.42193 0.44068 0.6864 0.0
H367 H 0.46335 0.32434 0.6281 0.0
H368 H 0.41112 0.27934 0.67694 0.0
H369 H 0.32885 0.45383 0.61535 0.0
H370 H 0.27608 0.40539 0.65994 0.0
C371 C 0.8593 0.10957 0.9319 0.0
C372 C 0.86424 0.0931 0.95287 0.0
C373 C 0.88705 0.07836 0.94678 0.0
C374 C 0.89468 0.08654 0.9225 0.0
N375 N 0.87839 0.10597 0.91282 0.0
Co376 Co 0.88087 0.12188 0.87724 0.0
N377 N 0.91399 0.09955 0.86793 0.0
C378 C 0.92684 0.08177 0.88335 0.0
C379 C 0.94947 0.07005 0.87209 0.0
C380 C 0.95157 0.08135 0.8482 0.0
C381 C 0.93006 0.09951 0.84628 0.0
N382 N 0.88278 0.13714 0.8414 0.0
C383 C 0.90153 0.13332 0.82205 0.0
C384 C 0.89548 0.1488 0.80061 0.0
C385 C 0.87216 0.16274 0.80653 0.0
C386 C 0.86533 0.15522 0.83119 0.0
N387 N 0.84837 0.14492 0.88686 0.0
C388 C 0.83638 0.16368 0.87195 0.0
C389 C 0.81435 0.17617 0.88358 0.0
C390 C 0.8119 0.1645 0.90727 0.0
C391 C 0.83259 0.14539 0.90865 0.0
N392 N 0.90412 0.14898 0.88923 0.0
C393 C 0.94242 0.18495 0.90005 0.0
C394 C 0.92057 0.19246 0.8852 0.0
C395 C 0.90172 0.17426 0.88007 0.0
C396 C 0.94378 0.15983 0.9109 0.0
C397 C 0.92437 0.14239 0.90553 0.0
N398 N 0.85763 0.09463 0.86543 0.0
C399 C 0.81429 0.08253 0.85205 0.0
C400 C 0.82015 0.05651 0.85939 0.0
C401 C 0.84591 0.04949 0.86723 0.0
C402 C 0.8642 0.06866 0.87 0.0
C403 C 0.83339 0.10115 0.85494 0.0
H404 H 0.88314 0.062 0.87681 0.0
H405 H 0.82771 0.12081 0.84952 0.0
H406 H 0.88593 0.18081 0.86798 0.0
H407 H 0.92669 0.12346 0.91417 0.0
C408 C 0.91685 0.07624 0.9082 0.0
C409 C 0.83562 0.12745 0.93059 0.0
C410 C 0.92603 0.11645 0.82363 0.0
C411 C 0.84461 0.16713 0.84624 0.0
H412 H 0.85229 0.09155 0.97056 0.0
H413 H 0.89667 0.06316 0.95848 0.0
H414 H 0.96293 0.05516 0.88032 0.0
H415 H 0.9673 0.07685 0.83387 0.0
H416 H 0.90708 0.15061 0.78277 0.0
H417 H 0.86206 0.17751 0.79468 0.0
H418 H 0.80107 0.19127 0.87544 0.0
H419 H 0.79624 0.16905 0.92166 0.0
H420 H 0.91872 0.21186 0.87652 0.0
H421 H 0.96011 0.15346 0.92302 0.0
H422 H 0.79471 0.08877 0.84534 0.0
H423 H 0.85171 0.02933 0.87209 0.0
C424 C 0.30861 0.11561 0.41951 0.0
C425 C 0.28339 0.12639 0.41407 0.0
C426 C 0.28622 0.14055 0.39174 0.0
C427 C 0.31287 0.13757 0.38481 0.0
N428 N 0.32718 0.12186 0.40105 0.0
Co429 Co 0.36689 0.11381 0.39932 0.0
N430 N 0.37161 0.13713 0.3682 0.0
C431 C 0.35226 0.15157 0.35612 0.0
C432 C 0.36131 0.16432 0.33436 0.0
C433 C 0.38793 0.15716 0.33205 0.0
C434 C 0.39356 0.14035 0.3526 0.0
N435 N 0.40664 0.10601 0.3978 0.0
C436 C 0.42533 0.11258 0.3796 0.0
C437 C 0.45059 0.10205 0.3853 0.0
C438 C 0.4477 0.08796 0.40765 0.0
C439 C 0.42097 0.09064 0.4143 0.0
N440 N 0.36211 0.09024 0.43027 0.0
C441 C 0.38144 0.07547 0.44204 0.0
C442 C 0.37242 0.06238 0.46358 0.0
C443 C 0.34584 0.06956 0.46605 0.0
C444 C 0.34011 0.08666 0.44573 0.0
N445 N 0.36251 0.08387 0.37601 0.0
C446 C 0.36233 0.04438 0.33853 0.0
C447 C 0.37734 0.0408 0.3606 0.0
C448 C 0.37707 0.06058 0.37897 0.0
C449 C 0.34629 0.06749 0.33633 0.0
C450 C 0.34652 0.08667 0.35518 0.0
N451 N 0.3713 0.14383 0.42253 0.0
C452 C 0.38708 0.16088 0.46214 0.0
C453 C 0.37288 0.18486 0.45826 0.0
C454 C 0.35871 0.1882 0.43566 0.0
C455 C 0.35826 0.16769 0.41822 0.0
C456 C 0.38613 0.14089 0.44415 0.0
H457 H 0.34673 0.17147 0.40167 0.0
H458 H 0.39723 0.12308 0.44837 0.0
H459 H 0.38937 0.05685 0.39504 0.0
H460 H 0.33403 0.10385 0.35215 0.0
C461 C 0.32543 0.15096 0.36446 0.0
C462 C 0.3141 0.10058 0.44303 0.0
C463 C 0.41972 0.12694 0.35574 0.0
C464 C 0.40831 0.07669 0.43414 0.0
H465 H 0.26502 0.12476 0.42548 0.0
H466 H 0.27086 0.15243 0.38224 0.0
H467 H 0.34972 0.17654 0.32119 0.0
H468 H 0.40152 0.163 0.31659 0.0
H469 H 0.46902 0.10356 0.37398 0.0
H470 H 0.46303 0.07614 0.41724 0.0
H471 H 0.38407 0.05011 0.47667 0.0
H472 H 0.33248 0.06365 0.48165 0.0
H473 H 0.39003 0.02322 0.36332 0.0
H474 H 0.3337 0.07092 0.31997 0.0
H475 H 0.39887 0.15746 0.47904 0.0
H476 H 0.34726 0.20632 0.43172 0.0
C477 C 0.18076 0.11562 0.61516 0.0
C478 C 0.20395 0.12814 0.61993 0.0
C479 C 0.19895 0.14196 0.64199 0.0
C480 C 0.17313 0.13709 0.64941 0.0
N481 N 0.16146 0.1205 0.63377 0.0
Co482 Co 0.1233 0.11016 0.63616 0.0
N483 N 0.11532 0.1319 0.66766 0.0
C484 C 0.13267 0.1464 0.67988 0.0
C485 C 0.12193 0.15817 0.70168 0.0
C486 C 0.09637 0.15022 0.70392 0.0
C487 C 0.09301 0.13389 0.68332 0.0
N488 N 0.08487 0.10062 0.63796 0.0
C489 C 0.06523 0.1059 0.65617 0.0
C490 C 0.04173 0.09433 0.65039 0.0
C491 C 0.04669 0.08132 0.62789 0.0
C492 C 0.07285 0.08546 0.62122 0.0
N493 N 0.13157 0.08756 0.6053 0.0
C494 C 0.11463 0.07194 0.59398 0.0
C495 C 0.1256 0.05935 0.57273 0.0
C496 C 0.15099 0.06767 0.57006 0.0
C497 C 0.15406 0.08494 0.58996 0.0
N498 N 0.13293 0.08002 0.65912 0.0
C499 C 0.14027 0.04043 0.69682 0.0
C500 C 0.12394 0.03693 0.67607 0.0
C501 C 0.12069 0.05678 0.65748 0.0
C502 C 0.15424 0.0633 0.69742 0.0
C503 C 0.15046 0.08259 0.67844 0.0
N504 N 0.1138 0.14041 0.61325 0.0
C505 C 0.10036 0.15703 0.57159 0.0
C506 C 0.10974 0.18161 0.57675 0.0
C507 C 0.11911 0.18573 0.60125 0.0
C508 C 0.12091 0.16509 0.61904 0.0
C509 C 0.10229 0.13693 0.5901 0.0
H510 H 0.12889 0.16948 0.63703 0.0
H511 H 0.09517 0.11853 0.58491 0.0
H512 H 0.10754 0.05321 0.64243 0.0
H513 H 0.16139 0.0997 0.68023 0.0
C514 C 0.15901 0.14834 0.67051 0.0
C515 C 0.17784 0.09995 0.59228 0.0
C516 C 0.06852 0.12013 0.67998 0.0
C517 C 0.08762 0.07228 0.60167 0.0
H518 H 0.22238 0.12771 0.60837 0.0
H519 H 0.21234 0.15454 0.65119 0.0
H520 H 0.13167 0.17067 0.71464 0.0
H521 H 0.08196 0.1555 0.71923 0.0
H522 H 0.02318 0.0943 0.66169 0.0
H523 H 0.03327 0.06906 0.61832 0.0
H524 H 0.11586 0.04669 0.55991 0.0
H525 H 0.1652 0.06242 0.55459 0.0
H526 H 0.11281 0.01944 0.67467 0.0
H527 H 0.16775 0.06654 0.71272 0.0
H528 H 0.09261 0.15288 0.553 0.0
H529 H 0.12564 0.20471 0.60657 0.0
C530 C 0.12325 0.9118 0.86548 0.0
C531 C 0.10785 0.93462 0.87062 0.0
C532 C 0.09088 0.929 0.89086 0.0
C533 C 0.09685 0.90317 0.89686 0.0
N534 N 0.11696 0.89207 0.88195 0.0
Co535 Co 0.13106 0.85459 0.88281 0.0
N536 N 0.10479 0.84574 0.91138 0.0
C537 C 0.08581 0.86204 0.92271 0.0
C538 C 0.07219 0.85078 0.94299 0.0
C539 C 0.08353 0.826 0.94516 0.0
C540 C 0.10342 0.82357 0.92591 0.0
N541 N 0.14497 0.81711 0.88351 0.0
C542 C 0.13936 0.79766 0.9005 0.0
C543 C 0.15395 0.77453 0.89471 0.0
C544 C 0.16995 0.77977 0.87365 0.0
C545 C 0.16414 0.80565 0.86778 0.0
N546 N 0.15759 0.86342 0.85456 0.0
C547 C 0.1766 0.8471 0.84331 0.0
C548 C 0.19136 0.85874 0.82404 0.0
C549 C 0.18088 0.88389 0.82256 0.0
C550 C 0.16022 0.88606 0.84108 0.0
N551 N 0.15701 0.86297 0.90886 0.0
C552 C 0.19261 0.8712 0.94822 0.0
C553 C 0.20108 0.85743 0.9261 0.0
C554 C 0.18306 0.85344 0.9069 0.0
C555 C 0.16623 0.88155 0.9498 0.0
C556 C 0.14904 0.87749 0.92996 0.0
N557 N 0.105 0.8463 0.85668 0.0
C558 C 0.09562 0.83104 0.81431 0.0
C559 C 0.06909 0.84066 0.81708 0.0
C560 C 0.06053 0.85204 0.84035 0.0
C561 C 0.07864 0.85461 0.8597 0.0
C562 C 0.11305 0.83378 0.83435 0.0
H563 H 0.0709 0.86408 0.87661 0.0
H564 H 0.13302 0.82612 0.83107 0.0
H565 H 0.19055 0.84224 0.89086 0.0
H566 H 0.12924 0.88584 0.93242 0.0
C567 C 0.08299 0.88847 0.91536 0.0
C568 C 0.14246 0.90937 0.84383 0.0
C569 C 0.12198 0.80075 0.92342 0.0
C570 C 0.17853 0.82044 0.84979 0.0
H571 H 0.10839 0.95319 0.86036 0.0
H572 H 0.07547 0.94196 0.89964 0.0
H573 H 0.05671 0.85988 0.95546 0.0
H574 H 0.07839 0.81172 0.95985 0.0
H575 H 0.15374 0.75609 0.90526 0.0
H576 H 0.18497 0.76664 0.86451 0.0
H577 H 0.20716 0.84975 0.81186 0.0
H578 H 0.18712 0.89874 0.80887 0.0
H579 H 0.2215 0.84955 0.92357 0.0
H580 H 0.1585 0.89216 0.96657 0.0
H581 H 0.10296 0.82165 0.79671 0.0
H582 H 0.04015 0.85992 0.84332 0.0
C583 C 0.39297 0.91532 0.17239 0.0
C584 C 0.40602 0.93828 0.16759 0.0
C585 C 0.42021 0.93499 0.14487 0.0
C586 C 0.41519 0.91027 0.13717 0.0
N587 N 0.39831 0.89765 0.15339 0.0
Co588 Co 0.38767 0.86049 0.1506 0.0
N589 N 0.40841 0.8557 0.11697 0.0
C590 C 0.42234 0.87402 0.10401 0.0
C591 C 0.43227 0.86611 0.08034 0.0
C592 C 0.42381 0.8414 0.07773 0.0
C593 C 0.40937 0.83549 0.10022 0.0
N594 N 0.37798 0.82305 0.14841 0.0
C595 C 0.3832 0.80536 0.12946 0.0
C596 C 0.37336 0.78118 0.13609 0.0
C597 C 0.36079 0.78392 0.1597 0.0
C598 C 0.36388 0.80941 0.16625 0.0
N599 N 0.36585 0.86558 0.1835 0.0
C600 C 0.35053 0.84781 0.1956 0.0
C601 C 0.33763 0.85692 0.21764 0.0
C602 C 0.34529 0.88196 0.2199 0.0
C603 C 0.36267 0.88663 0.1991 0.0
N604 N 0.35606 0.87195 0.13086 0.0
C605 C 0.3155 0.88115 0.0957 0.0
C606 C 0.31218 0.86357 0.11624 0.0
C607 C 0.33264 0.85933 0.13361 0.0
C608 C 0.33821 0.89576 0.09439 0.0
C609 C 0.35796 0.89113 0.11227 0.0
N610 N 0.41951 0.84909 0.1703 0.0
C611 C 0.43844 0.83301 0.21001 0.0
C612 C 0.46333 0.84215 0.20239 0.0
C613 C 0.46647 0.85267 0.1776 0.0
C614 C 0.44453 0.8558 0.16197 0.0
C615 C 0.417 0.83638 0.19363 0.0
H616 H 0.44822 0.86471 0.14368 0.0
H617 H 0.39842 0.82936 0.20065 0.0
H618 H 0.32961 0.84497 0.14841 0.0
H619 H 0.37505 0.90254 0.10997 0.0
C620 C 0.42535 0.89865 0.11447 0.0
C621 C 0.37646 0.91094 0.19566 0.0
C622 C 0.39608 0.81089 0.10442 0.0
C623 C 0.35099 0.82195 0.18728 0.0
H624 H 0.40558 0.95552 0.17944 0.0
H625 H 0.43282 0.94891 0.13518 0.0
H626 H 0.44376 0.87722 0.06637 0.0
H627 H 0.42743 0.82941 0.06089 0.0
H628 H 0.37447 0.76358 0.12471 0.0
H629 H 0.34975 0.76937 0.17032 0.0
H630 H 0.32489 0.84631 0.23095 0.0
H631 H 0.3393 0.8951 0.23544 0.0
H632 H 0.29464 0.85205 0.11802 0.0
H633 H 0.34115 0.91004 0.07904 0.0
H634 H 0.43528 0.82406 0.22884 0.0
H635 H 0.48539 0.85999 0.17075 0.0
C636 C 0.34323 0.39745 0.1483 0.0
C637 C 0.32266 0.39095 0.16542 0.0
C638 C 0.3255 0.36451 0.1695 0.0
C639 C 0.34757 0.35646 0.15471 0.0
N640 N 0.3594 0.37629 0.14194 0.0
Co641 Co 0.3906 0.37349 0.11666 0.0
N642 N 0.39244 0.33427 0.11954 0.0
C643 C 0.37624 0.31913 0.13407 0.0
C644 C 0.38349 0.29289 0.1331 0.0
C645 C 0.40602 0.29123 0.11747 0.0
C646 C 0.41116 0.31664 0.10982 0.0
N647 N 0.42167 0.37068 0.0912 0.0
C648 C 0.43734 0.34943 0.08409 0.0
C649 C 0.45765 0.35594 0.06669 0.0
C650 C 0.45508 0.38246 0.06306 0.0
C651 C 0.43343 0.39051 0.07841 0.0
N652 N 0.38887 0.41272 0.11388 0.0
C653 C 0.40542 0.42783 0.09972 0.0
C654 C 0.39824 0.45405 0.10059 0.0
C655 C 0.37539 0.45577 0.11572 0.0
C656 C 0.36998 0.43036 0.12328 0.0
N657 N 0.41599 0.37472 0.14524 0.0
C658 C 0.45346 0.37416 0.18475 0.0
C659 C 0.45675 0.38963 0.16253 0.0
C660 C 0.43797 0.38963 0.14322 0.0
C661 C 0.43082 0.35932 0.18695 0.0
C662 C 0.41256 0.35991 0.16722 0.0
N663 N 0.36514 0.37229 0.0882 0.0
C664 C 0.34854 0.3892 0.04766 0.0
C665 C 0.32598 0.37428 0.05032 0.0
C666 C 0.32385 0.35774 0.07188 0.0
C667 C 0.34352 0.35694 0.0903 0.0
C668 C 0.36771 0.38791 0.06665 0.0
H669 H 0.34055 0.34402 0.10626 0.0
H670 H 0.38415 0.40013 0.06371 0.0
H671 H 0.44186 0.4016 0.12671 0.0
H672 H 0.39592 0.34801 0.17017 0.0
C673 C 0.35592 0.33032 0.15022 0.0
C674 C 0.34543 0.42359 0.13715 0.0
C675 C 0.43519 0.32327 0.09508 0.0
C676 C 0.42545 0.41662 0.08333 0.0
H677 H 0.30672 0.40389 0.17333 0.0
H678 H 0.31229 0.35243 0.18087 0.0
H679 H 0.37421 0.277 0.14342 0.0
H680 H 0.41791 0.27348 0.11294 0.0
H681 H 0.4733 0.34298 0.0583 0.0
H682 H 0.46819 0.39455 0.05158 0.0
H683 H 0.40764 0.46989 0.09029 0.0
H684 H 0.36349 0.47362 0.1197 0.0
H685 H 0.47405 0.40132 0.15972 0.0
H686 H 0.42701 0.34736 0.20394 0.0
H687 H 0.35111 0.40238 0.03133 0.0
H688 H 0.30705 0.34535 0.07457 0.0
C689 C 0.92084 0.87345 0.09887 0.0
C690 C 0.9431 0.8789 0.08342 0.0
C691 C 0.93655 0.90134 0.06998 0.0
C692 C 0.91078 0.90826 0.07794 0.0
N693 N 0.90055 0.89177 0.09593 0.0
Co694 Co 0.86344 0.89369 0.11199 0.0
N695 N 0.85316 0.92571 0.09087 0.0
C696 C 0.86866 0.93798 0.07305 0.0
C697 C 0.85652 0.96016 0.06267 0.0
C698 C 0.83194 0.9625 0.07485 0.0
C699 C 0.83049 0.94145 0.09198 0.0
N700 N 0.82636 0.89559 0.12801 0.0
C701 C 0.80627 0.91417 0.12544 0.0
C702 C 0.78379 0.90841 0.14046 0.0
C703 C 0.79011 0.88566 0.15346 0.0
C704 C 0.81593 0.87881 0.1456 0.0
N705 N 0.87367 0.86176 0.13316 0.0
C706 C 0.85816 0.84947 0.15094 0.0
C707 C 0.87055 0.8277 0.16187 0.0
C708 C 0.89535 0.8257 0.15012 0.0
C709 C 0.89658 0.84643 0.13258 0.0
N710 N 0.87535 0.91648 0.13934 0.0
C711 C 0.88916 0.951 0.17779 0.0
C712 C 0.87528 0.92862 0.18406 0.0
C713 C 0.8685 0.91188 0.16469 0.0
C714 C 0.89676 0.95527 0.152 0.0
C715 C 0.88993 0.9378 0.13332 0.0
N716 N 0.85167 0.8708 0.0846 0.0
C717 C 0.83282 0.8306 0.07186 0.0
C718 C 0.84152 0.83466 0.04635 0.0
C719 C 0.85389 0.85788 0.04008 0.0
C720 C 0.85873 0.87548 0.05932 0.0
C721 C 0.83788 0.8489 0.0905 0.0
H722 H 0.86876 0.89243 0.05327 0.0
H723 H 0.83106 0.84453 0.10962 0.0
H724 H 0.85739 0.89555 0.17068 0.0
H725 H 0.89625 0.94227 0.11409 0.0
C726 C 0.89521 0.92923 0.06787 0.0
C727 C 0.91946 0.84997 0.11502 0.0
C728 C 0.80797 0.93815 0.11007 0.0
C729 C 0.83151 0.85796 0.15582 0.0
H730 H 0.9619 0.8675 0.08162 0.0
H731 H 0.94885 0.91107 0.05561 0.0
H732 H 0.8649 0.97356 0.0486 0.0
H733 H 0.8171 0.97836 0.07199 0.0
H734 H 0.76501 0.91985 0.14229 0.0
H735 H 0.77768 0.87575 0.16759 0.0
H736 H 0.86228 0.81447 0.17616 0.0
H737 H 0.9106 0.81037 0.15362 0.0
H738 H 0.86943 0.92404 0.20382 0.0
H739 H 0.90728 0.97243 0.14599 0.0
H740 H 0.823 0.81297 0.07768 0.0
H741 H 0.86023 0.86235 0.02042 0.0
C742 C 0.15501 0.60125 0.65602 0.0
C743 C 0.1733 0.60535 0.67474 0.0
C744 C 0.17144 0.63155 0.67973 0.0
C745 C 0.15218 0.64187 0.66384 0.0
N746 N 0.14112 0.62371 0.64946 0.0
Co747 Co 0.1143 0.63013 0.62204 0.0
N748 N 0.11379 0.66899 0.62706 0.0
C749 C 0.1283 0.6821 0.6436 0.0
C750 C 0.12175 0.7085 0.64419 0.0
C751 C 0.10129 0.71234 0.62765 0.0
C752 C 0.0966 0.68797 0.61794 0.0
N753 N 0.08784 0.6366 0.59431 0.0
C754 C 0.07371 0.65896 0.58793 0.0
C755 C 0.0561 0.65488 0.56856 0.0
C756 C 0.05876 0.62886 0.56294 0.0
C757 C 0.07771 0.61858 0.57916 0.0
N758 N 0.11434 0.59126 0.61737 0.0
C759 C 0.09942 0.57827 0.60111 0.0
C760 C 0.10472 0.55169 0.60142 0.0
C761 C 0.12462 0.54748 0.61846 0.0
C762 C 0.1303 0.57186 0.62763 0.0
N763 N 0.08434 0.62847 0.64786 0.0
C764 C 0.03799 0.63588 0.67943 0.0
C765 C 0.03806 0.62001 0.65783 0.0
C766 C 0.06138 0.61651 0.64242 0.0
C767 C 0.06194 0.6462 0.68611 0.0
C768 C 0.08481 0.64197 0.67036 0.0
N769 N 0.14421 0.6321 0.59612 0.0
C770 C 0.16643 0.61779 0.55633 0.0
C771 C 0.18805 0.63307 0.56073 0.0
C772 C 0.18724 0.64805 0.58296 0.0
C773 C 0.16534 0.64729 0.6002 0.0
C774 C 0.14485 0.61766 0.57409 0.0
H775 H 0.16619 0.65894 0.61683 0.0
H776 H 0.12905 0.60558 0.56965 0.0
H777 H 0.06008 0.60492 0.62572 0.0
H778 H 0.10234 0.65064 0.67632 0.0
C779 C 0.14569 0.66865 0.66034 0.0
C780 C 0.15278 0.57603 0.64385 0.0
C781 C 0.07416 0.68341 0.60189 0.0
C782 C 0.08322 0.59181 0.58346 0.0
H783 H 0.18716 0.59099 0.68322 0.0
H784 H 0.1835 0.64199 0.69259 0.0
H785 H 0.12986 0.72296 0.65627 0.0
H786 H 0.09024 0.73073 0.62396 0.0
H787 H 0.04178 0.66885 0.56026 0.0
H788 H 0.04698 0.6184 0.54986 0.0
H789 H 0.0962 0.53726 0.58959 0.0
H790 H 0.13461 0.5287 0.62268 0.0
H791 H 0.01996 0.61129 0.6522 0.0
H792 H 0.06295 0.6579 0.70322 0.0
H793 H 0.16602 0.60613 0.53914 0.0
H794 H 0.20367 0.65999 0.58734 0.0
C795 C 0.65844 0.80796 0.90738 0.0
C796 C 0.67793 0.7878 0.90456 0.0
C797 C 0.68501 0.78693 0.87895 0.0
C798 C 0.66938 0.80646 0.86768 0.0
N799 N 0.65339 0.82032 0.88469 0.0
Co800 Co 0.62471 0.84788 0.87671 0.0
N801 N 0.63187 0.84392 0.83872 0.0
C802 C 0.6505 0.82764 0.82689 0.0
C803 C 0.65229 0.83121 0.80069 0.0
C804 C 0.63431 0.8515 0.79557 0.0
C805 C 0.6225 0.85904 0.81903 0.0
N806 N 0.59542 0.8747 0.86886 0.0
C807 C 0.58904 0.88605 0.84608 0.0
C808 C 0.56792 0.90459 0.84882 0.0
C809 C 0.56119 0.9055 0.87451 0.0
C810 C 0.57849 0.88747 0.88587 0.0
N811 N 0.61814 0.8525 0.91461 0.0
C812 C 0.60091 0.87008 0.92649 0.0
C813 C 0.60012 0.86746 0.95282 0.0
C814 C 0.61734 0.84653 0.95795 0.0
C815 C 0.62756 0.83761 0.93436 0.0
N816 N 0.65083 0.87568 0.87638 0.0
C817 C 0.68661 0.91618 0.87203 0.0
C818 C 0.66122 0.92056 0.88359 0.0
C819 C 0.64383 0.90013 0.88571 0.0
C820 C 0.69398 0.89115 0.86311 0.0
C821 C 0.67596 0.87136 0.86548 0.0
N822 N 0.59871 0.82005 0.87707 0.0
C823 C 0.55997 0.80041 0.89659 0.0
C824 C 0.56647 0.77698 0.8838 0.0
C825 C 0.58842 0.77601 0.86645 0.0
C826 C 0.60405 0.79763 0.86332 0.0
C827 C 0.57616 0.82162 0.89283 0.0
H828 H 0.62071 0.79546 0.85012 0.0
H829 H 0.57049 0.83878 0.90349 0.0
H830 H 0.62477 0.90469 0.89473 0.0
H831 H 0.68275 0.85288 0.858 0.0
C832 C 0.66732 0.81062 0.84113 0.0
C833 C 0.64329 0.81306 0.93135 0.0
C834 C 0.60448 0.88216 0.82211 0.0
C835 C 0.58237 0.88529 0.91237 0.0
H836 H 0.68536 0.77442 0.91931 0.0
H837 H 0.69881 0.77283 0.8695 0.0
H838 H 0.66592 0.8211 0.78709 0.0
H839 H 0.63102 0.86043 0.77685 0.0
H840 H 0.55935 0.91712 0.83393 0.0
H841 H 0.54667 0.91894 0.88393 0.0
H842 H 0.58711 0.87818 0.96651 0.0
H843 H 0.62079 0.83779 0.97673 0.0
H844 H 0.65485 0.93959 0.89118 0.0
H845 H 0.71344 0.88689 0.85387 0.0
H846 H 0.54302 0.80216 0.91011 0.0
H847 H 0.5937 0.75856 0.85543 0.0
C848 C 0.93459 0.17435 0.38094 0.0
C849 C 0.95659 0.16887 0.39601 0.0
C850 C 0.95176 0.14648 0.4096 0.0
C851 C 0.92709 0.13966 0.40232 0.0
N852 N 0.916 0.15609 0.38453 0.0
Co853 Co 0.87898 0.1551 0.37102 0.0
N854 N 0.87147 0.1227 0.39188 0.0
C855 C 0.88834 0.10933 0.40774 0.0
C856 C 0.87828 0.08694 0.41814 0.0
C857 C 0.85372 0.08557 0.40789 0.0
C858 C 0.85023 0.1073 0.39176 0.0
N859 N 0.84165 0.15473 0.35828 0.0
C860 C 0.82281 0.13683 0.36217 0.0
C861 C 0.79966 0.14388 0.34928 0.0
C862 C 0.80412 0.16689 0.33659 0.0
C863 C 0.82963 0.17257 0.34239 0.0
N864 N 0.88684 0.18677 0.3493 0.0
C865 C 0.8705 0.19912 0.33228 0.0
C866 C 0.88151 0.21998 0.3198 0.0
C867 C 0.90625 0.22129 0.32967 0.0
C868 C 0.90878 0.20122 0.34791 0.0
N869 N 0.89232 0.13224 0.34246 0.0
C870 C 0.90449 0.09437 0.30476 0.0
C871 C 0.8877 0.11633 0.29946 0.0
C872 C 0.88195 0.13496 0.31848 0.0
C873 C 0.91667 0.09268 0.32845 0.0
C874 C 0.9106 0.11187 0.34679 0.0
N875 N 0.86574 0.17794 0.39975 0.0
C876 C 0.84853 0.22031 0.41475 0.0
C877 C 0.856 0.21391 0.4398 0.0
C878 C 0.86643 0.18855 0.44479 0.0
C879 C 0.87095 0.17101 0.4247 0.0
C880 C 0.85326 0.20202 0.39519 0.0
H881 H 0.87968 0.15234 0.42981 0.0
H882 H 0.84745 0.20813 0.37641 0.0
H883 H 0.86829 0.15083 0.31368 0.0
H884 H 0.92023 0.10929 0.36462 0.0
C885 C 0.91364 0.11822 0.41219 0.0
C886 C 0.93169 0.19771 0.36444 0.0
C887 C 0.82671 0.11207 0.37627 0.0
C888 C 0.84403 0.1923 0.33042 0.0
H889 H 0.97411 0.18016 0.39753 0.0
H890 H 0.96445 0.13667 0.42359 0.0
H891 H 0.88787 0.07303 0.43126 0.0
H892 H 0.84005 0.07012 0.41156 0.0
H893 H 0.78175 0.13306 0.34831 0.0
H894 H 0.79087 0.1775 0.32361 0.0
H895 H 0.87229 0.23323 0.30586 0.0
H896 H 0.92051 0.23586 0.32458 0.0
H897 H 0.87792 0.11845 0.28124 0.0
H898 H 0.93029 0.07622 0.33309 0.0
H899 H 0.83973 0.23956 0.41012 0.0
H900 H 0.87255 0.18258 0.46388 0.0
C901 C 0.56917 0.11962 0.6294 0.0
C902 C 0.54597 0.11483 0.61686 0.0
C903 C 0.55198 0.09385 0.60139 0.0
C904 C 0.57841 0.08714 0.60526 0.0
N905 N 0.58952 0.10218 0.62274 0.0
Co906 Co 0.62805 0.10102 0.63228 0.0
N907 N 0.6374 0.07133 0.60824 0.0
C908 C 0.62067 0.0594 0.59287 0.0
C909 C 0.63255 0.03851 0.57983 0.0
C910 C 0.65822 0.0365 0.5879 0.0
C911 C 0.66044 0.05634 0.6055 0.0
N912 N 0.66672 0.10046 0.64118 0.0
C913 C 0.68713 0.08299 0.63481 0.0
C914 C 0.71066 0.08911 0.64614 0.0
C915 C 0.70483 0.11101 0.66034 0.0
C916 C 0.67818 0.11697 0.65705 0.0
N917 N 0.61858 0.12998 0.65707 0.0
C918 C 0.63509 0.14106 0.67325 0.0
C919 C 0.62283 0.16071 0.68777 0.0
C920 C 0.59703 0.16259 0.68008 0.0
C921 C 0.59516 0.144 0.66116 0.0
N922 N 0.62116 0.07487 0.66002 0.0
C923 C 0.61522 0.03489 0.69742 0.0
C924 C 0.63102 0.05598 0.70177 0.0
C925 C 0.63361 0.07565 0.68301 0.0
C926 C 0.60174 0.03464 0.67439 0.0
C927 C 0.6049 0.05468 0.65616 0.0
N928 N 0.63486 0.12722 0.60442 0.0
C929 C 0.64702 0.1707 0.59099 0.0
C930 C 0.63853 0.16669 0.56614 0.0
C931 C 0.62923 0.14227 0.56049 0.0
C932 C 0.62754 0.12302 0.57972 0.0
C933 C 0.64531 0.15075 0.60961 0.0
H934 H 0.61964 0.10516 0.5742 0.0
H935 H 0.65213 0.15502 0.62817 0.0
H936 H 0.64613 0.09107 0.68738 0.0
H937 H 0.59443 0.05308 0.63886 0.0
C938 C 0.59362 0.06756 0.59207 0.0
C939 C 0.57145 0.14193 0.64612 0.0
C940 C 0.68433 0.05917 0.62021 0.0
C941 C 0.6626 0.13492 0.67192 0.0
H942 H 0.5269 0.12581 0.61822 0.0
H943 H 0.53887 0.08505 0.58828 0.0
H944 H 0.62341 0.02575 0.56669 0.0
H945 H 0.6734 0.02167 0.58211 0.0
H946 H 0.72981 0.07831 0.64538 0.0
H947 H 0.71802 0.12041 0.67294 0.0
H948 H 0.63188 0.17305 0.70137 0.0
H949 H 0.5816 0.17674 0.68685 0.0
H950 H 0.64145 0.05732 0.71956 0.0
H951 H 0.58938 0.01864 0.67002 0.0
H952 H 0.65487 0.18919 0.5961 0.0
H953 H 0.62237 0.13828 0.54149 0.0
C954 C 0.15735 0.39477 0.91983 0.0
C955 C 0.14929 0.40865 0.94175 0.0
C956 C 0.12552 0.42159 0.93651 0.0
C957 C 0.12045 0.41495 0.91179 0.0
N958 N 0.13937 0.39824 0.90098 0.0
Co959 Co 0.1407 0.38477 0.86482 0.0
N960 N 0.10646 0.40501 0.85663 0.0
C961 C 0.09137 0.42098 0.87257 0.0
C962 C 0.06859 0.43155 0.86181 0.0
C963 C 0.06888 0.42147 0.83766 0.0
C964 C 0.09189 0.40518 0.83511 0.0
N965 N 0.1422 0.3715 0.82861 0.0
C966 C 0.12437 0.37509 0.80965 0.0
C967 C 0.13279 0.36155 0.7876 0.0
C968 C 0.15667 0.34888 0.79282 0.0
C969 C 0.16145 0.35527 0.81766 0.0
N970 N 0.17476 0.3643 0.87308 0.0
C971 C 0.18962 0.34804 0.85727 0.0
C972 C 0.21219 0.33711 0.86813 0.0
C973 C 0.21197 0.34723 0.89225 0.0
C974 C 0.18922 0.36389 0.89465 0.0
N975 N 0.11969 0.35465 0.87618 0.0
C976 C 0.08705 0.31287 0.889 0.0
C977 C 0.11082 0.30873 0.87433 0.0
C978 C 0.12666 0.32975 0.86811 0.0
C979 C 0.08055 0.33809 0.89799 0.0
C980 C 0.09712 0.35841 0.89163 0.0
N981 N 0.16174 0.41493 0.85367 0.0
C982 C 0.20364 0.43129 0.83767 0.0
C983 C 0.1967 0.45592 0.84794 0.0
C984 C 0.171 0.46034 0.85881 0.0
C985 C 0.15393 0.43977 0.8613 0.0
C986 C 0.18581 0.41127 0.84046 0.0
H987 H 0.13505 0.44425 0.87059 0.0
H988 H 0.19236 0.39276 0.83272 0.0
H989 H 0.14419 0.32544 0.85644 0.0
H990 H 0.09088 0.37708 0.899 0.0
C991 C 0.09872 0.42493 0.89786 0.0
C992 C 0.1828 0.37957 0.91745 0.0
C993 C 0.09868 0.3899 0.81208 0.0
C994 C 0.18276 0.34479 0.83178 0.0
H995 H 0.15979 0.40976 0.95949 0.0
H996 H 0.11367 0.43477 0.94902 0.0
H997 H 0.05335 0.44466 0.87064 0.0
H998 H 0.05368 0.42537 0.82362 0.0
H999 H 0.12244 0.36036 0.76978 0.0
H1000 H 0.16869 0.33587 0.78028 0.0
H1001 H 0.22736 0.32391 0.85932 0.0
H1002 H 0.22713 0.34322 0.90631 0.0
H1003 H 0.11711 0.28944 0.86736 0.0
H1004 H 0.06225 0.34251 0.90919 0.0
H1005 H 0.2231 0.42721 0.82838 0.0
H1006 H 0.16459 0.47912 0.86694 0.0
C1007 C 0.36462 0.62542 0.42939 0.0
C1008 C 0.37525 0.61376 0.45129 0.0
C1009 C 0.39637 0.59761 0.44312 0.0
C1010 C 0.39737 0.60034 0.41681 0.0
N1011 N 0.37847 0.61768 0.40776 0.0
Co1012 Co 0.37145 0.62677 0.37088 0.0
N1013 N 0.40011 0.60061 0.35867 0.0
C1014 C 0.41509 0.58363 0.37312 0.0
C1015 C 0.43417 0.56922 0.35903 0.0
C1016 C 0.43165 0.57803 0.33423 0.0
C1017 C 0.41114 0.59735 0.33475 0.0
N1018 N 0.36475 0.63611 0.33399 0.0
C1019 C 0.37955 0.6294 0.31258 0.0
C1020 C 0.36938 0.64153 0.29068 0.0
C1021 C 0.34767 0.65698 0.29866 0.0
C1022 C 0.34593 0.65347 0.32485 0.0
N1023 N 0.34258 0.65275 0.38304 0.0
C1024 C 0.32682 0.66888 0.36844 0.0
C1025 C 0.30799 0.68363 0.38246 0.0
C1026 C 0.31152 0.67601 0.40745 0.0
C1027 C 0.33236 0.65699 0.40712 0.0
N1028 N 0.39829 0.65411 0.3713 0.0
C1029 C 0.4371 0.69231 0.37022 0.0
C1030 C 0.4114 0.6982 0.36142 0.0
C1031 C 0.39253 0.67896 0.36201 0.0
C1032 C 0.44297 0.66698 0.37966 0.0
C1033 C 0.42343 0.64842 0.38016 0.0
N1034 N 0.34459 0.59934 0.37047 0.0
C1035 C 0.30089 0.5854 0.35973 0.0
C1036 C 0.30575 0.56101 0.37174 0.0
C1037 C 0.3305 0.55617 0.38296 0.0
C1038 C 0.34942 0.57535 0.38207 0.0
C1039 C 0.32036 0.60408 0.35934 0.0
H1040 H 0.36768 0.57034 0.3912 0.0
H1041 H 0.31524 0.62225 0.35005 0.0
H1042 H 0.37349 0.68458 0.3546 0.0
H1043 H 0.4292 0.62954 0.38767 0.0
C1044 C 0.41352 0.58466 0.40002 0.0
C1045 C 0.33993 0.6417 0.42976 0.0
C1046 C 0.40492 0.61419 0.31278 0.0
C1047 C 0.32898 0.66836 0.34158 0.0
H1048 H 0.36781 0.61591 0.471 0.0
H1049 H 0.40864 0.58443 0.45484 0.0
H1050 H 0.44926 0.55524 0.36615 0.0
H1051 H 0.44433 0.57203 0.31783 0.0
H1052 H 0.37747 0.64034 0.27113 0.0
H1053 H 0.33557 0.67032 0.28695 0.0
H1054 H 0.29282 0.69748 0.37529 0.0
H1055 H 0.29948 0.68284 0.42397 0.0
H1056 H 0.40596 0.71748 0.35368 0.0
H1057 H 0.46251 0.66154 0.38698 0.0
H1058 H 0.28221 0.5901 0.35042 0.0
H1059 H 0.33522 0.53779 0.39287 0.0
C1060 C 0.76913 0.63924 0.85089 0.0
C1061 C 0.74373 0.65015 0.84664 0.0
C1062 C 0.74659 0.66852 0.82746 0.0
C1063 C 0.77351 0.6678 0.82134 0.0
N1064 N 0.78786 0.64948 0.83485 0.0
Co1065 Co 0.82775 0.64425 0.83549 0.0
N1066 N 0.8327 0.67389 0.8104 0.0
C1067 C 0.81332 0.68842 0.79845 0.0
C1068 C 0.82303 0.70549 0.7802 0.0
C1069 C 0.85019 0.70104 0.77998 0.0
C1070 C 0.85539 0.68154 0.79823 0.0
N1071 N 0.86757 0.64004 0.83762 0.0
C1072 C 0.88684 0.65259 0.82431 0.0
C1073 C 0.91223 0.64394 0.83167 0.0
C1074 C 0.90879 0.62477 0.84991 0.0
C1075 C 0.88164 0.62287 0.85268 0.0
N1076 N 0.82289 0.61366 0.8593 0.0
C1077 C 0.84211 0.59681 0.86846 0.0
C1078 C 0.83229 0.57803 0.88487 0.0
C1079 C 0.8053 0.58367 0.8867 0.0
C1080 C 0.80032 0.60563 0.87125 0.0
N1081 N 0.82858 0.62028 0.80578 0.0
C1082 C 0.83399 0.59066 0.76067 0.0
C1083 C 0.8518 0.58637 0.78047 0.0
C1084 C 0.84852 0.601 0.80286 0.0
C1085 C 0.81272 0.60909 0.76416 0.0
C1086 C 0.81048 0.6237 0.78667 0.0
N1087 N 0.82705 0.66829 0.86495 0.0
C1088 C 0.8377 0.67745 0.90875 0.0
C1089 C 0.82655 0.70295 0.90635 0.0
C1090 C 0.81516 0.71064 0.88315 0.0
C1091 C 0.81552 0.69311 0.8629 0.0
C1092 C 0.83783 0.66056 0.8879 0.0
H1093 H 0.80638 0.70011 0.84577 0.0
H1094 H 0.84687 0.6414 0.89074 0.0
H1095 H 0.86267 0.59658 0.81732 0.0
H1096 H 0.79421 0.63793 0.78782 0.0
C1097 C 0.78623 0.68505 0.80435 0.0
C1098 C 0.77496 0.62074 0.87167 0.0
C1099 C 0.882 0.66965 0.8021 0.0
C1100 C 0.86905 0.6025 0.8657 0.0
H1101 H 0.7253 0.64585 0.857 0.0
H1102 H 0.73109 0.68165 0.81975 0.0
H1103 H 0.81169 0.71898 0.76798 0.0
H1104 H 0.86455 0.71047 0.76736 0.0
H1105 H 0.93128 0.64977 0.82368 0.0
H1106 H 0.92427 0.61252 0.85881 0.0
H1107 H 0.84359 0.56335 0.89583 0.0
H1108 H 0.79116 0.57388 0.89924 0.0
H1109 H 0.8682 0.57171 0.77872 0.0
H1110 H 0.79833 0.61277 0.74928 0.0
H1111 H 0.84687 0.67075 0.92641 0.0
H1112 H 0.80596 0.73015 0.88062 0.0
C1113 C 0.62178 0.57598 0.13881 0.0
C1114 C 0.60945 0.55255 0.13598 0.0
C1115 C 0.59249 0.55628 0.11613 0.0
C1116 C 0.59528 0.5817 0.10812 0.0
N1117 N 0.61341 0.5943 0.12131 0.0
Co1118 Co 0.6217 0.63218 0.11768 0.0
N1119 N 0.59685 0.63769 0.0884 0.0
C1120 C 0.58239 0.61947 0.07754 0.0
C1121 C 0.56975 0.62828 0.05585 0.0
C1122 C 0.57726 0.65339 0.05214 0.0
C1123 C 0.59394 0.65846 0.07198 0.0
N1124 N 0.62875 0.67032 0.11511 0.0
C1125 C 0.62125 0.68835 0.0971 0.0
C1126 C 0.63055 0.71277 0.1021 0.0
C1127 C 0.64517 0.70981 0.12373 0.0
C1128 C 0.64382 0.68389 0.13069 0.0
N1129 N 0.64786 0.62643 0.14571 0.0
C1130 C 0.66379 0.64429 0.1551 0.0
C1131 C 0.67991 0.63452 0.17413 0.0
C1132 C 0.67374 0.60894 0.17724 0.0
C1133 C 0.654 0.60467 0.15995 0.0
N1134 N 0.65072 0.62397 0.09179 0.0
C1135 C 0.68323 0.621 0.04681 0.0
C1136 C 0.68813 0.63885 0.06595 0.0
C1137 C 0.67189 0.63975 0.08842 0.0
C1138 C 0.66396 0.60272 0.05197 0.0
C1139 C 0.64814 0.60445 0.07447 0.0
N1140 N 0.59234 0.64046 0.14338 0.0
C1141 C 0.57705 0.65503 0.18573 0.0
C1142 C 0.5514 0.64682 0.18166 0.0
C1143 C 0.54635 0.63646 0.15777 0.0
C1144 C 0.56684 0.63358 0.13909 0.0
C1145 C 0.59705 0.65186 0.16638 0.0
H1146 H 0.56157 0.62508 0.12162 0.0
H1147 H 0.61625 0.65835 0.17069 0.0
H1148 H 0.67592 0.65422 0.10219 0.0
H1149 H 0.6331 0.59056 0.07672 0.0
C1150 C 0.58196 0.59401 0.08769 0.0
C1151 C 0.64047 0.58021 0.159 0.0
C1152 C 0.60815 0.68246 0.07355 0.0
C1153 C 0.66045 0.67076 0.14819 0.0
H1154 H 0.61219 0.53471 0.14729 0.0
H1155 H 0.57953 0.5422 0.10856 0.0
H1156 H 0.55735 0.61742 0.04366 0.0
H1157 H 0.57178 0.66623 0.03621 0.0
H1158 H 0.62823 0.73045 0.09047 0.0
H1159 H 0.65697 0.72434 0.13222 0.0
H1160 H 0.69362 0.64503 0.18524 0.0
H1161 H 0.68212 0.59522 0.19123 0.0
H1162 H 0.70332 0.65302 0.06304 0.0
H1163 H 0.66032 0.58774 0.0382 0.0
H1164 H 0.58177 0.66359 0.20383 0.0
H1165 H 0.52688 0.62955 0.15373 0.0
C1166 C 0.69868 0.37347 0.38398 0.0
C1167 C 0.72317 0.36042 0.37827 0.0
C1168 C 0.71986 0.34589 0.35695 0.0
C1169 C 0.69364 0.35071 0.35094 0.0
N1170 N 0.68005 0.36787 0.36683 0.0
Co1171 Co 0.6408 0.37826 0.36657 0.0
N1172 N 0.63549 0.35529 0.33638 0.0
C1173 C 0.65435 0.3399 0.32379 0.0
C1174 C 0.6451 0.32769 0.30284 0.0
C1175 C 0.6189 0.33624 0.3016 0.0
C1176 C 0.6137 0.35325 0.32193 0.0
N1177 N 0.60144 0.38816 0.36671 0.0
C1178 C 0.58272 0.38241 0.34973 0.0
C1179 C 0.55782 0.39406 0.35645 0.0
C1180 C 0.56099 0.40796 0.37822 0.0
C1181 C 0.58752 0.40408 0.38354 0.0
N1182 N 0.64618 0.40177 0.39628 0.0
C1183 C 0.62749 0.41793 0.40817 0.0
C1184 C 0.63705 0.43142 0.42815 0.0
C1185 C 0.66332 0.42308 0.42939 0.0
C1186 C 0.66821 0.40477 0.41012 0.0
N1187 N 0.64769 0.40756 0.34211 0.0
C1188 C 0.65254 0.44693 0.30392 0.0
C1189 C 0.63602 0.45112 0.32585 0.0
C1190 C 0.63396 0.43137 0.34458 0.0
C1191 C 0.66759 0.42319 0.30204 0.0
C1192 C 0.66503 0.40402 0.32129 0.0
N1193 N 0.63395 0.34888 0.39105 0.0
C1194 C 0.61857 0.33373 0.43309 0.0
C1195 C 0.63034 0.30876 0.42863 0.0
C1196 C 0.64277 0.30384 0.4046 0.0
C1197 C 0.64433 0.324 0.38625 0.0
C1198 C 0.62033 0.35325 0.41407 0.0
H1199 H 0.65463 0.31908 0.3686 0.0
H1200 H 0.611 0.37186 0.4187 0.0
H1201 H 0.62058 0.43557 0.36053 0.0
H1202 H 0.67685 0.38628 0.3186 0.0
C1203 C 0.68087 0.33841 0.33135 0.0
C1204 C 0.69365 0.38969 0.40673 0.0
C1205 C 0.5881 0.36781 0.32604 0.0
C1206 C 0.60058 0.41778 0.40197 0.0
H1207 H 0.74137 0.3607 0.38881 0.0
H1208 H 0.73459 0.3327 0.34748 0.0
H1209 H 0.65629 0.31474 0.28961 0.0
H1210 H 0.60529 0.33105 0.28703 0.0
H1211 H 0.53949 0.39343 0.34616 0.0
H1212 H 0.54604 0.42052 0.38819 0.0
H1213 H 0.62597 0.44489 0.44096 0.0
H1214 H 0.67711 0.42916 0.44341 0.0
H1215 H 0.62393 0.46921 0.32817 0.0
H1216 H 0.68113 0.41928 0.28566 0.0
H1217 H 0.60818 0.33826 0.45125 0.0
H1218 H 0.65215 0.28475 0.40025 0.0
C1219 C 0.88973 0.45092 0.60997 0.0
C1220 C 0.90381 0.47171 0.59996 0.0
C1221 C 0.92643 0.46106 0.58768 0.0
C1222 C 0.9249 0.43446 0.59068 0.0
N1223 N 0.90245 0.42774 0.60373 0.0
Co1224 Co 0.89269 0.39157 0.61259 0.0
N1225 N 0.91876 0.37675 0.58663 0.0
C1226 C 0.93987 0.38841 0.5758 0.0
C1227 C 0.95311 0.37315 0.55729 0.0
C1228 C 0.93923 0.35066 0.5565 0.0
C1229 C 0.91835 0.35363 0.5746 0.0
N1230 N 0.88339 0.3553 0.62135 0.0
C1231 C 0.88625 0.33392 0.60644 0.0
C1232 C 0.876 0.3123 0.61898 0.0
C1233 C 0.86643 0.32075 0.64272 0.0
C1234 C 0.87128 0.34696 0.64322 0.0
N1235 N 0.8664 0.4061 0.63864 0.0
C1236 C 0.85529 0.39259 0.65842 0.0
C1237 C 0.83813 0.40787 0.67372 0.0
C1238 C 0.83883 0.43257 0.66318 0.0
C1239 C 0.85653 0.43104 0.64191 0.0
N1240 N 0.86523 0.39378 0.58665 0.0
C1241 C 0.82727 0.39374 0.54823 0.0
C1242 C 0.82144 0.38398 0.57307 0.0
C1243 C 0.84059 0.38429 0.59197 0.0
C1244 C 0.85233 0.40414 0.54333 0.0
C1245 C 0.87097 0.40391 0.5627 0.0
N1246 N 0.92026 0.38938 0.63849 0.0
C1247 C 0.94251 0.40923 0.67289 0.0
C1248 C 0.96044 0.38735 0.67486 0.0
C1249 C 0.95752 0.36627 0.65839 0.0
C1250 C 0.93735 0.36768 0.64036 0.0
C1251 C 0.92271 0.40984 0.6547 0.0
H1252 H 0.93568 0.3513 0.62777 0.0
H1253 H 0.90943 0.42702 0.65377 0.0
H1254 H 0.83565 0.37634 0.61078 0.0
H1255 H 0.89023 0.41153 0.55812 0.0
C1256 C 0.94222 0.41537 0.57885 0.0
C1257 C 0.86675 0.45413 0.62828 0.0
C1258 C 0.89859 0.33425 0.58053 0.0
C1259 C 0.85903 0.36523 0.66026 0.0
H1260 H 0.89868 0.49243 0.60206 0.0
H1261 H 0.94189 0.47149 0.57744 0.0
H1262 H 0.96968 0.37842 0.54465 0.0
H1263 H 0.94357 0.33424 0.54386 0.0
H1264 H 0.87493 0.29271 0.6117 0.0
H1265 H 0.8555 0.30955 0.65704 0.0
H1266 H 0.8263 0.40177 0.69038 0.0
H1267 H 0.82826 0.44988 0.67091 0.0
H1268 H 0.80245 0.37557 0.57778 0.0
H1269 H 0.85764 0.41233 0.52461 0.0
H1270 H 0.94355 0.42578 0.68549 0.0
H1271 H 0.971 0.349 0.65908 0.0
H1272 H 0.13304 0.32543 0.48915 0.0
H1273 H 0.10835 0.27111 0.43298 0.0
H1274 H 0.12923 0.29173 0.52276 0.0
H1275 H 0.10499 0.23726 0.46651 0.0
H1276 H 0.07323 0.19476 0.53982 0.0
H1277 H 0.07648 0.22842 0.50608 0.0
H1278 H 0.15251 0.24908 0.53423 0.0
H1279 H 0.14961 0.21527 0.56754 0.0
C1280 C 0.12685 0.30627 0.48401 0.0
C1281 C 0.12108 0.30085 0.45846 0.0
C1282 C 0.12483 0.28695 0.50319 0.0
C1283 C 0.11679 0.26189 0.49723 0.0
C1284 C 0.11101 0.25647 0.47168 0.0
C1285 C 0.11323 0.27573 0.45246 0.0
C1286 C 0.09071 0.20636 0.5387 0.0
C1287 C 0.11106 0.20242 0.55652 0.0
C1288 C 0.09255 0.22563 0.5194 0.0
C1289 C 0.1147 0.24142 0.51762 0.0
C1290 C 0.135 0.2375 0.5354 0.0
C1291 C 0.13325 0.21818 0.55455 0.0
H1292 H 0.9835 0.84092 0.67285 0.0
H1293 H 0.9295 0.87609 0.73076 0.0
H1294 H 0.01795 0.83432 0.70485 0.0
H1295 H 0.9638 0.86961 0.76261 0.0
H1296 H 0.01717 0.82712 0.81905 0.0
H1297 H 0.98511 0.83182 0.78491 0.0
H1298 H 0.04712 0.85866 0.73247 0.0
H1299 H 0.07929 0.85381 0.7667 0.0
C1300 C 0.97918 0.84761 0.69231 0.0
C1301 C 0.95381 0.85886 0.69941 0.0
C1302 C 0.99883 0.84376 0.71061 0.0
C1303 C 0.9934 0.8511 0.73629 0.0
C1304 C 0.96833 0.86317 0.7431 0.0
C1305 C 0.94874 0.86698 0.72487 0.0
C1306 C 0.02396 0.83387 0.80018 0.0
C1307 C 0.05062 0.84029 0.79555 0.0
C1308 C 0.00562 0.83666 0.78069 0.0
C1309 C 0.01354 0.84601 0.75616 0.0
C1310 C 0.04049 0.85131 0.75116 0.0
C1311 C 0.05889 0.84848 0.77071 0.0
H1312 H 0.35172 0.79573 0.08119 0.0
H1313 H 0.4375 0.78251 0.08049 0.0
H1314 H 0.34907 0.76301 0.04749 0.0
H1315 H 0.43502 0.75025 0.04629 0.0
H1316 H 0.41819 0.71633 0.96567 0.0
H1317 H 0.42098 0.74962 0.99878 0.0
H1318 H 0.35902 0.71315 0.04426 0.0
H1319 H 0.3564 0.67978 0.0113 0.0
C1320 C 0.36999 0.78588 0.07365 0.0
C1321 C 0.39482 0.79172 0.0832 0.0
C1322 C 0.36849 0.76716 0.05447 0.0
C1323 C 0.39185 0.75412 0.04423 0.0
C1324 C 0.41673 0.76018 0.05363 0.0
C1325 C 0.41817 0.7786 0.07314 0.0
C1326 C 0.40512 0.71553 0.98271 0.0
C1327 C 0.38706 0.69549 0.98592 0.0
C1328 C 0.40684 0.73445 0.00171 0.0
C1329 C 0.39019 0.73399 0.02407 0.0
C1330 C 0.37197 0.71409 0.02714 0.0
C1331 C 0.37058 0.69492 0.00838 0.0
H1332 H 0.42079 0.09806 0.31224 0.0
H1333 H 0.46417 0.15544 0.3509 0.0
H1334 H 0.45419 0.09751 0.27652 0.0
H1335 H 0.49793 0.15479 0.31552 0.0
H1336 H 0.5355 0.16825 0.23484 0.0
H1337 H 0.50276 0.16809 0.27065 0.0
H1338 H 0.50083 0.08392 0.26605 0.0
H1339 H 0.53306 0.08417 0.22958 0.0
C1340 C 0.43761 0.11048 0.31301 0.0
C1341 C 0.44009 0.12676 0.33416 0.0
C1342 C 0.45682 0.11007 0.29272 0.0
C1343 C 0.47884 0.12607 0.29312 0.0
C1344 C 0.48113 0.14243 0.3144 0.0
C1345 C 0.46194 0.14276 0.33471 0.0
C1346 C 0.52799 0.14969 0.24132 0.0
C1347 C 0.53685 0.12623 0.22917 0.0
C1348 C 0.5094 0.14958 0.26208 0.0
C1349 C 0.49909 0.126 0.27129 0.0
C1350 C 0.50812 0.10248 0.25931 0.0
C1351 C 0.52683 0.10258 0.23856 0.0
H1352 H 0.16349 0.7961 0.95538 0.0
H1353 H 0.08843 0.76319 0.93965 0.0
H1354 H 0.1702 0.76439 0.99074 0.0
H1355 H 0.09503 0.73121 0.97479 0.0
H1356 H 0.10288 0.6951 0.05503 0.0
H1357 H 0.09645 0.72921 0.0219 0.0
H1358 H 0.17931 0.71691 0.99655 0.0
H1359 H 0.18557 0.68297 0.03001 0.0
C1360 C 0.14845 0.78203 0.95967 0.0
C1361 C 0.12538 0.782 0.9452 0.0
C1362 C 0.1523 0.76385 0.97972 0.0
C1363 C 0.13311 0.74535 0.98558 0.0
C1364 C 0.10997 0.74548 0.971 0.0
C1365 C 0.10619 0.76362 0.9509 0.0
C1366 C 0.11968 0.69998 0.04244 0.0
C1367 C 0.14473 0.68678 0.04495 0.0
C1368 C 0.11601 0.7193 0.02342 0.0
C1369 C 0.13735 0.72568 0.00655 0.0
C1370 C 0.16258 0.71265 0.00945 0.0
C1371 C 0.1662 0.69326 0.02847 0.0
H1372 H 0.60184 0.90418 0.26144 0.0
H1373 H 0.56608 0.87104 0.33034 0.0
H1374 H 0.56805 0.88507 0.23574 0.0
H1375 H 0.53243 0.85153 0.30489 0.0
H1376 H 0.45848 0.85719 0.25241 0.0
H1377 H 0.49422 0.86803 0.28017 0.0
H1378 H 0.55297 0.84249 0.22166 0.0
H1379 H 0.51709 0.83153 0.1938 0.0
C1380 C 0.58695 0.89242 0.27095 0.0
C1381 C 0.58658 0.88866 0.29769 0.0
C1382 C 0.56772 0.8814 0.25633 0.0
C1383 C 0.54775 0.86659 0.2683 0.0
C1384 C 0.54748 0.86292 0.29515 0.0
C1385 C 0.5667 0.87398 0.3097 0.0
C1386 C 0.47901 0.85312 0.24576 0.0
C1387 C 0.48499 0.84369 0.22085 0.0
C1388 C 0.4995 0.85943 0.26164 0.0
C1389 C 0.52636 0.85644 0.25292 0.0
C1390 C 0.5324 0.84549 0.22865 0.0
C1391 C 0.5119 0.83914 0.21277 0.0
H1392 H 0.38861 0.28106 0.59435 0.0
H1393 H 0.3368 0.32781 0.54532 0.0
H1394 H 0.39272 0.2466 0.562 0.0
H1395 H 0.34037 0.29331 0.51296 0.0
H1396 H 0.37466 0.23801 0.45017 0.0
H1397 H 0.37199 0.27246 0.48223 0.0
H1398 H 0.3667 0.21396 0.54286 0.0
H1399 H 0.36937 0.17954 0.51083 0.0
C1400 C 0.37807 0.28381 0.57658 0.0
C1401 C 0.36254 0.30698 0.5721 0.0
C1402 C 0.38027 0.2641 0.55812 0.0
C1403 C 0.3669 0.26715 0.5348 0.0
C1404 C 0.35127 0.29044 0.53048 0.0
C1405 C 0.34907 0.31013 0.54899 0.0
C1406 C 0.3728 0.23249 0.47033 0.0
C1407 C 0.37224 0.20594 0.47786 0.0
C1408 C 0.37123 0.25227 0.48874 0.0
C1409 C 0.36906 0.24605 0.51518 0.0
C1410 C 0.36876 0.21949 0.52271 0.0
C1411 C 0.37032 0.19972 0.50431 0.0
H1412 H 0.07315 0.09892 0.72818 0.0
H1413 H 0.01704 0.14116 0.67976 0.0
H1414 H 0.03898 0.09826 0.76326 0.0
H1415 H 0.98255 0.13979 0.71448 0.0
H1416 H 0.92253 0.10143 0.77359 0.0
H1417 H 0.95698 0.10291 0.73885 0.0
H1418 H 0.01193 0.13273 0.79185 0.0
H1419 H 0.97712 0.13201 0.82635 0.0
C1420 C 0.05345 0.10799 0.72509 0.0
C1421 C 0.04758 0.11984 0.70123 0.0
C1422 C 0.03395 0.10766 0.74512 0.0
C1423 C 0.00804 0.11883 0.74155 0.0
C1424 C 0.00223 0.13076 0.71768 0.0
C1425 C 0.0219 0.13155 0.69784 0.0
C1426 C 0.94192 0.10849 0.77768 0.0
C1427 C 0.94713 0.11686 0.80252 0.0
C1428 C 0.96159 0.10935 0.75785 0.0
C1429 C 0.98712 0.11801 0.76262 0.0
C1430 C 0.99249 0.12587 0.78763 0.0
C1431 C 0.97262 0.1255 0.80733 0.0
H1432 H 0.21609 0.52735 0.08452 0.0
H1433 H 0.21632 0.54217 0.16604 0.0
H1434 H 0.25157 0.49318 0.08938 0.0
H1435 H 0.25134 0.50767 0.1711 0.0
H1436 H 0.33606 0.46864 0.16406 0.0
H1437 H 0.29792 0.50032 0.16088 0.0
H1438 H 0.26246 0.45034 0.10663 0.0
H1439 H 0.30128 0.4193 0.10927 0.0
C1440 C 0.22347 0.523 0.10354 0.0
C1441 C 0.21363 0.53755 0.12486 0.0
C1442 C 0.24375 0.50338 0.10637 0.0
C1443 C 0.25446 0.49775 0.13063 0.0
C1444 C 0.24398 0.51184 0.15206 0.0
C1445 C 0.22388 0.53157 0.14918 0.0
C1446 C 0.31999 0.46457 0.15156 0.0
C1447 C 0.3215 0.44189 0.1367 0.0
C1448 C 0.29807 0.48252 0.14984 0.0
C1449 C 0.27711 0.47795 0.1334 0.0
C1450 C 0.27842 0.45472 0.11912 0.0
C1451 C 0.30044 0.43686 0.12076 0.0
H1452 H 0.78188 0.048 0.82429 0.0
H1453 H 0.81102 0.02147 0.898 0.0
H1454 H 0.74851 0.01456 0.82686 0.0
H1455 H 0.77801 0.98833 0.90049 0.0
H1456 H 0.73969 0.91309 0.88177 0.0
H1457 H 0.77116 0.94769 0.87751 0.0
H1458 H 0.70772 0.00204 0.85302 0.0
H1459 H 0.6762 0.96703 0.85659 0.0
C1460 C 0.78105 0.03515 0.84104 0.0
C1461 C 0.79933 0.03701 0.86072 0.0
C1462 C 0.76198 0.01609 0.84254 0.0
C1463 C 0.76094 0.99867 0.86373 0.0
C1464 C 0.77876 0.00108 0.88365 0.0
C1465 C 0.7977 0.02003 0.88218 0.0
C1466 C 0.7325 0.93235 0.87525 0.0
C1467 C 0.70552 0.9374 0.86955 0.0
C1468 C 0.75045 0.95221 0.87304 0.0
C1469 C 0.74183 0.97757 0.86508 0.0
C1470 C 0.7149 0.98262 0.85907 0.0
C1471 C 0.69686 0.96271 0.86138 0.0
H1472 H 0.77642 0.11125 0.39803 0.0
H1473 H 0.83349 0.06639 0.35022 0.0
H1474 H 0.74436 0.077 0.39487 0.0
H1475 H 0.80187 0.03166 0.34742 0.0
H1476 H 0.72948 0.98577 0.32806 0.0
H1477 H 0.7596 0.02175 0.32932 0.0
H1478 H 0.73814 0.03287 0.40981 0.0
H1479 H 0.70736 0.99775 0.40828 0.0
C1480 C 0.78199 0.09396 0.38686 0.0
C1481 C 0.80719 0.09134 0.37426 0.0
C1482 C 0.76379 0.07428 0.38515 0.0
C1483 C 0.77051 0.05152 0.37088 0.0
C1484 C 0.79586 0.04905 0.35825 0.0
C1485 C 0.81403 0.06877 0.35996 0.0
C1486 C 0.73094 0.99613 0.34593 0.0
C1487 C 0.71606 0.98875 0.36809 0.0
C1488 C 0.74845 0.01656 0.34673 0.0
C1489 C 0.75141 0.03019 0.36969 0.0
C1490 C 0.73621 0.02303 0.39173 0.0
C1491 C 0.71877 0.00263 0.39093 0.0
H1492 H 0.68439 0.04362 0.17741 0.0
H1493 H 0.69146 0.07064 0.09859 0.0
H1494 H 0.72029 0.01008 0.1691 0.0
H1495 H 0.7276 0.03732 0.09009 0.0
H1496 H 0.7678 0.95458 0.07876 0.0
H1497 H 0.73329 0.98963 0.08678 0.0
H1498 H 0.76839 0.00533 0.15935 0.0
H1499 H 0.80254 0.97002 0.15126 0.0
C1500 C 0.69405 0.04256 0.15843 0.0
C1501 C 0.6857 0.05977 0.13871 0.0
C1502 C 0.71454 0.02344 0.15363 0.0
C1503 C 0.72686 0.0211 0.12894 0.0
C1504 C 0.71836 0.03846 0.10923 0.0
C1505 C 0.69789 0.05759 0.11408 0.0
C1506 C 0.76806 0.96574 0.09629 0.0
C1507 C 0.78766 0.95993 0.11438 0.0
C1508 C 0.74848 0.98581 0.10087 0.0
C1509 C 0.74812 0.00028 0.1237 0.0
C1510 C 0.76793 0.99438 0.14172 0.0
C1511 C 0.78751 0.97434 0.13709 0.0
H1512 H 0.15449 0.5295 0.67024 0.0
H1513 H 0.20131 0.5779 0.61932 0.0
H1514 H 0.1906 0.49513 0.66899 0.0
H1515 H 0.23753 0.54365 0.6179 0.0
H1516 H 0.30574 0.48532 0.64342 0.0
H1517 H 0.27094 0.52058 0.64577 0.0
H1518 H 0.21073 0.46451 0.63608 0.0
H1519 H 0.24545 0.4293 0.63327 0.0
C1520 C 0.17266 0.53271 0.65893 0.0
C1521 C 0.17529 0.55604 0.64475 0.0
C1522 C 0.1932 0.51309 0.65806 0.0
C1523 C 0.21681 0.51662 0.64317 0.0
C1524 C 0.21967 0.54043 0.62965 0.0
C1525 C 0.19903 0.55996 0.63041 0.0
C1526 C 0.28512 0.48053 0.6414 0.0
C1527 C 0.27842 0.45442 0.63819 0.0
C1528 C 0.26518 0.50074 0.64287 0.0
C1529 C 0.23809 0.49529 0.64131 0.0
C1530 C 0.2314 0.46926 0.63783 0.0
C1531 C 0.25132 0.44909 0.63622 0.0
H1532 H 0.2152 0.42174 0.4025 0.0
H1533 H 0.16416 0.47067 0.35459 0.0
H1534 H 0.24869 0.45506 0.40071 0.0
H1535 H 0.19754 0.50408 0.35258 0.0
H1536 H 0.25121 0.56853 0.37855 0.0
H1537 H 0.21776 0.53552 0.38042 0.0
H1538 H 0.28016 0.47469 0.36942 0.0
H1539 H 0.31361 0.50765 0.36718 0.0
C1540 C 0.21131 0.43964 0.39151 0.0
C1541 C 0.18735 0.44369 0.37851 0.0
C1542 C 0.23044 0.45866 0.39038 0.0
C1543 C 0.22584 0.48223 0.37643 0.0
C1544 C 0.20162 0.48629 0.36369 0.0
C1545 C 0.18258 0.46719 0.3647 0.0
C1546 C 0.25782 0.54816 0.37621 0.0
C1547 C 0.2852 0.54084 0.37271 0.0
C1548 C 0.23861 0.52921 0.37735 0.0
C1549 C 0.24626 0.50243 0.37512 0.0
C1550 C 0.2736 0.4951 0.37161 0.0
C1551 C 0.2928 0.51404 0.37035 0.0
H1552 H 0.33484 0.54705 0.8781 0.0
H1553 H 0.26527 0.58662 0.9139 0.0
H1554 H 0.30642 0.51622 0.85824 0.0
H1555 H 0.2366 0.55559 0.89445 0.0
H1556 H 0.19018 0.50907 0.84051 0.0
H1557 H 0.22083 0.54205 0.85248 0.0
H1558 H 0.27895 0.48061 0.87352 0.0
H1559 H 0.24842 0.44778 0.8617 0.0
C1560 C 0.31339 0.54906 0.88161 0.0
C1561 C 0.30204 0.56908 0.8973 0.0
C1562 C 0.29716 0.53147 0.87033 0.0
C1563 C 0.26928 0.53358 0.87469 0.0
C1564 C 0.25798 0.55379 0.89036 0.0
C1565 C 0.27427 0.5714 0.90162 0.0
C1566 C 0.20966 0.50266 0.84737 0.0
C1567 C 0.21683 0.47585 0.8503 0.0
C1568 C 0.22713 0.52151 0.8543 0.0
C1569 C 0.25213 0.51389 0.86423 0.0
C1570 C 0.25992 0.4871 0.86572 0.0
C1571 C 0.24245 0.46827 0.85883 0.0
H1572 H 0.60005 0.78376 0.93675 0.0
H1573 H 0.67688 0.79483 0.96844 0.0
H1574 H 0.59129 0.75001 0.96946 0.0
H1575 H 0.66819 0.76138 0.00159 0.0
H1576 H 0.6537 0.68471 0.04419 0.0
H1577 H 0.66279 0.71451 0.00793 0.0
H1578 H 0.58188 0.74817 0.0158 0.0
H1579 H 0.57293 0.71793 0.05178 0.0
C1580 C 0.61506 0.77875 0.95075 0.0
C1581 C 0.63912 0.79159 0.95024 0.0
C1582 C 0.61004 0.75962 0.96952 0.0
C1583 C 0.629 0.75306 0.98818 0.0
C1584 C 0.65332 0.76573 0.98729 0.0
C1585 C 0.65831 0.78488 0.96848 0.0
C1586 C 0.63789 0.69835 0.03784 0.0
C1587 C 0.61262 0.69911 0.05041 0.0
C1588 C 0.64309 0.71549 0.01728 0.0
C1589 C 0.62309 0.73377 0.00903 0.0
C1590 C 0.5976 0.73409 0.02145 0.0
C1591 C 0.59244 0.71692 0.04203 0.0
H1592 H 0.54153 0.34257 0.32495 0.0
H1593 H 0.59034 0.39522 0.28089 0.0
H1594 H 0.50888 0.34431 0.29089 0.0
H1595 H 0.55811 0.39676 0.24647 0.0
H1596 H 0.48052 0.41481 0.20335 0.0
H1597 H 0.51291 0.41334 0.23734 0.0
H1598 H 0.50413 0.33011 0.24698 0.0
H1599 H 0.47186 0.33154 0.21296 0.0
C1600 C 0.54517 0.35448 0.30788 0.0
C1601 C 0.56819 0.36889 0.30545 0.0
C1602 C 0.52664 0.35538 0.28831 0.0
C1603 C 0.53083 0.3707 0.26589 0.0
C1604 C 0.55404 0.38506 0.26358 0.0
C1605 C 0.57256 0.3841 0.28315 0.0
C1606 C 0.48567 0.39614 0.21254 0.0
C1607 C 0.47346 0.37331 0.2054 0.0
C1608 C 0.50426 0.3953 0.23207 0.0
C1609 C 0.51112 0.37161 0.24499 0.0
C1610 C 0.499 0.34877 0.23778 0.0
C1611 C 0.48045 0.34961 0.21824 0.0
H1612 H 0.90623 0.28123 0.57673 0.0
H1613 H 0.87181 0.34965 0.53824 0.0
H1614 H 0.891 0.25352 0.54285 0.0
H1615 H 0.85648 0.32212 0.5042 0.0
H1616 H 0.87068 0.26443 0.43484 0.0
H1617 H 0.87791 0.29472 0.46931 0.0
H1618 H 0.84875 0.23873 0.5253 0.0
H1619 H 0.84123 0.20846 0.49077 0.0
C1620 C 0.895 0.2902 0.56118 0.0
C1621 C 0.88966 0.31735 0.56016 0.0
C1622 C 0.88625 0.27443 0.54185 0.0
C1623 C 0.87227 0.28565 0.52105 0.0
C1624 C 0.86722 0.31295 0.51997 0.0
C1625 C 0.8759 0.32866 0.53938 0.0
C1626 C 0.86505 0.25888 0.45442 0.0
C1627 C 0.85561 0.23395 0.46012 0.0
C1628 C 0.8693 0.2762 0.47417 0.0
C1629 C 0.86426 0.26889 0.49999 0.0
C1630 C 0.85331 0.24463 0.50558 0.0
C1631 C 0.84896 0.22735 0.48583 0.0
H1632 H 0.92766 0.69604 0.79749 0.0
H1633 H 0.88123 0.64092 0.75899 0.0
H1634 H 0.96404 0.6892 0.76525 0.0
H1635 H 0.91708 0.63455 0.72605 0.0
H1636 H 0.00084 0.60241 0.69773 0.0
H1637 H 0.96094 0.61311 0.72469 0.0
H1638 H 0.9787 0.695 0.72127 0.0
H1639 H 0.01889 0.68408 0.69486 0.0
C1640 C 0.92513 0.68297 0.78166 0.0
C1641 C 0.90199 0.66892 0.78052 0.0
C1642 C 0.94582 0.67907 0.76317 0.0
C1643 C 0.94355 0.66116 0.74316 0.0
C1644 C 0.91965 0.64812 0.74144 0.0
C1645 C 0.89905 0.65194 0.76004 0.0
C1646 C 0.99601 0.62269 0.70261 0.0
C1647 C 0.01304 0.64237 0.69456 0.0
C1648 C 0.97311 0.62888 0.71791 0.0
C1649 C 0.96668 0.65493 0.72522 0.0
C1650 C 0.98334 0.6747 0.7164 0.0
C1651 C 0.00633 0.66847 0.7013 0.0
H1652 H 0.64174 0.31417 0.47912 0.0
H1653 H 0.61986 0.25707 0.42444 0.0
H1654 H 0.64448 0.28018 0.51251 0.0
H1655 H 0.62195 0.2231 0.45791 0.0
H1656 H 0.65556 0.16357 0.51569 0.0
H1657 H 0.65349 0.19809 0.48279 0.0
H1658 H 0.61825 0.25224 0.53908 0.0
H1659 H 0.62096 0.21778 0.57205 0.0
C1660 C 0.63712 0.2944 0.47436 0.0
C1661 C 0.63058 0.28827 0.44918 0.0
C1662 C 0.63867 0.2749 0.49349 0.0
C1663 C 0.63353 0.24883 0.48793 0.0
C1664 C 0.62658 0.24283 0.46279 0.0
C1665 C 0.62524 0.2623 0.44361 0.0
C1666 C 0.64741 0.18287 0.52099 0.0
C1667 C 0.63846 0.188 0.54643 0.0
C1668 C 0.64608 0.20264 0.50212 0.0
C1669 C 0.63554 0.22796 0.5082 0.0
C1670 C 0.62684 0.23311 0.53376 0.0
C1671 C 0.62838 0.21337 0.55267 0.0
H1672 H 0.10126 0.41279 0.76441 0.0
H1673 H 0.05207 0.3649 0.81352 0.0
H1674 H 0.06898 0.41108 0.73028 0.0
H1675 H 0.01926 0.36359 0.77981 0.0
H1676 H 0.97839 0.34611 0.70534 0.0
H1677 H 0.01265 0.34596 0.73761 0.0
H1678 H 0.02456 0.42763 0.72063 0.0
H1679 H 0.99124 0.42747 0.68775 0.0
C1680 C 0.08344 0.40194 0.7678 0.0
C1681 C 0.07904 0.3889 0.79138 0.0
C1682 C 0.06488 0.40106 0.74839 0.0
C1683 C 0.04147 0.38718 0.75226 0.0
C1684 C 0.03721 0.37412 0.776 0.0
C1685 C 0.05582 0.375 0.79537 0.0
C1686 C 0.98859 0.36392 0.70825 0.0
C1687 C 0.98194 0.38682 0.69399 0.0
C1688 C 0.00801 0.36393 0.72698 0.0
C1689 C 0.02133 0.38682 0.73184 0.0
C1690 C 0.01494 0.40958 0.71728 0.0
C1691 C 0.99556 0.40957 0.6986 0.0
H1692 H 0.84165 0.75313 0.90256 0.0
H1693 H 0.81425 0.69532 0.95756 0.0
H1694 H 0.84438 0.78448 0.93708 0.0
H1695 H 0.81732 0.72676 0.99235 0.0
H1696 H 0.79918 0.80368 0.03966 0.0
H1697 H 0.79508 0.77087 0.00647 0.0
H1698 H 0.87351 0.78749 0.97518 0.0
H1699 H 0.87794 0.81971 0.00846 0.0
C1700 C 0.83606 0.74721 0.92205 0.0
C1701 C 0.82773 0.72185 0.92744 0.0
C1702 C 0.83784 0.76506 0.9418 0.0
C1703 C 0.83117 0.75796 0.96735 0.0
C1704 C 0.82245 0.73272 0.97277 0.0
C1705 C 0.82091 0.71472 0.95297 0.0
C1706 C 0.81564 0.80013 0.02586 0.0
C1707 C 0.83876 0.81453 0.02652 0.0
C1708 C 0.81327 0.78138 0.00689 0.0
C1709 C 0.83389 0.77686 0.98819 0.0
C1710 C 0.85712 0.79095 0.9891 0.0
C1711 C 0.85957 0.80948 0.0081 0.0
H1712 H 0.40996 0.6011 0.26223 0.0
H1713 H 0.44848 0.64125 0.32182 0.0
H1714 H 0.44565 0.61259 0.23125 0.0
H1715 H 0.48442 0.65265 0.29099 0.0
H1716 H 0.55707 0.63391 0.23249 0.0
H1717 H 0.52148 0.62814 0.26512 0.0
H1718 H 0.46256 0.65389 0.21027 0.0
H1719 H 0.49809 0.66017 0.17776 0.0
C1720 C 0.42607 0.61249 0.26853 0.0
C1721 C 0.4266 0.62056 0.2941 0.0
C1722 C 0.44636 0.61915 0.25091 0.0
C1723 C 0.46763 0.6337 0.25873 0.0
C1724 C 0.46829 0.64138 0.28451 0.0
C1725 C 0.44785 0.63491 0.30206 0.0
C1726 C 0.53659 0.63901 0.22759 0.0
C1727 C 0.53035 0.64723 0.20247 0.0
C1728 C 0.51623 0.63559 0.24623 0.0
C1729 C 0.4893 0.6402 0.24004 0.0
C1730 C 0.48315 0.6497 0.21536 0.0
C1731 C 0.50348 0.6533 0.19679 0.0
H1732 H 0.77483 0.90868 0.6154 0.0
H1733 H 0.82418 0.96012 0.65543 0.0
H1734 H 0.73988 0.94411 0.61225 0.0
H1735 H 0.78972 0.99586 0.65143 0.0
H1736 H 0.73648 0.05638 0.60262 0.0
H1737 H 0.76975 0.01985 0.60811 0.0
H1738 H 0.70962 0.97442 0.64663 0.0
H1739 H 0.67663 0.01142 0.64208 0.0
C1740 C 0.77802 0.92756 0.62364 0.0
C1741 C 0.80214 0.93195 0.63539 0.0
C1742 C 0.75815 0.94773 0.62182 0.0
C1743 C 0.76235 0.97266 0.63138 0.0
C1744 C 0.78623 0.97684 0.64368 0.0
C1745 C 0.80583 0.95651 0.64599 0.0
C1746 C 0.73056 0.03865 0.61247 0.0
C1747 C 0.70429 0.03674 0.62238 0.0
C1748 C 0.74947 0.01784 0.61558 0.0
C1749 C 0.74219 0.99452 0.62797 0.0
C1750 C 0.71566 0.99226 0.63706 0.0
C1751 C 0.69689 0.01331 0.63446 0.0
H1752 H 0.12953 0.54894 0.16807 0.0
H1753 H 0.0713 0.59311 0.2153 0.0
H1754 H 0.1289 0.51253 0.19917 0.0
H1755 H 0.07094 0.55698 0.24696 0.0
H1756 H 0.05763 0.47595 0.28357 0.0
H1757 H 0.0571 0.51186 0.25195 0.0
H1758 H 0.14316 0.50263 0.24255 0.0
H1759 H 0.14367 0.46683 0.274 0.0
C1760 C 0.11672 0.55076 0.18529 0.0
C1761 C 0.10061 0.57362 0.18962 0.0
C1762 C 0.11642 0.53007 0.20311 0.0
C1763 C 0.09995 0.53192 0.22559 0.0
C1764 C 0.08364 0.55487 0.22973 0.0
C1765 C 0.08396 0.57558 0.21183 0.0
C1766 C 0.07641 0.48169 0.27479 0.0
C1767 C 0.10067 0.46847 0.28117 0.0
C1768 C 0.07612 0.50226 0.25674 0.0
C1769 C 0.10008 0.51005 0.24472 0.0
C1770 C 0.12431 0.49681 0.25112 0.0
C1771 C 0.1246 0.47627 0.26912 0.0
H1772 H 0.75722 0.89235 0.55925 0.0
H1773 H 0.77041 0.81231 0.53483 0.0
H1774 H 0.71808 0.89753 0.5327 0.0
H1775 H 0.73199 0.81766 0.50711 0.0
H1776 H 0.65576 0.83112 0.46462 0.0
H1777 H 0.6846 0.82476 0.50171 0.0
H1778 H 0.71402 0.90199 0.4878 0.0
H1779 H 0.68487 0.90829 0.45179 0.0
C1780 C 0.75159 0.87589 0.54813 0.0
C1781 C 0.76685 0.8521 0.5486 0.0
C1782 C 0.72927 0.8788 0.53292 0.0
C1783 C 0.72213 0.85814 0.51745 0.0
C1784 C 0.73674 0.83389 0.51896 0.0
C1785 C 0.75885 0.83084 0.53459 0.0
C1786 C 0.66792 0.84684 0.47018 0.0
C1787 C 0.6681 0.87022 0.45573 0.0
C1788 C 0.68457 0.84319 0.49114 0.0
C1789 C 0.70165 0.86285 0.49773 0.0
C1790 C 0.7008 0.88662 0.48371 0.0
C1791 C 0.68419 0.89025 0.46297 0.0
H1792 H 0.37445 0.48999 0.84334 0.0
H1793 H 0.39101 0.54802 0.78435 0.0
H1794 H 0.37421 0.45642 0.81049 0.0
H1795 H 0.39047 0.51454 0.75156 0.0
H1796 H 0.35952 0.45318 0.69801 0.0
H1797 H 0.35934 0.4866 0.73128 0.0
H1798 H 0.40484 0.43263 0.77979 0.0
H1799 H 0.40476 0.39928 0.74639 0.0
C1800 C 0.37826 0.49558 0.82341 0.0
C1801 C 0.38277 0.52178 0.81656 0.0
C1802 C 0.37808 0.47632 0.80456 0.0
C1803 C 0.38229 0.48276 0.77836 0.0
C1804 C 0.38675 0.50895 0.77151 0.0
C1805 C 0.38702 0.52818 0.79034 0.0
C1806 C 0.36941 0.44859 0.71585 0.0
C1807 C 0.38198 0.42374 0.71985 0.0
C1808 C 0.36945 0.46769 0.73483 0.0
C1809 C 0.38207 0.46231 0.75824 0.0
C1810 C 0.39463 0.43732 0.76215 0.0
C1811 C 0.39469 0.41827 0.74308 0.0
H1812 H 0.83542 0.14864 0.97841 0.0
H1813 H 0.78736 0.10569 0.92851 0.0
H1814 H 0.79916 0.14959 0.01147 0.0
H1815 H 0.75084 0.10673 0.96129 0.0
H1816 H 0.70236 0.0914 0.03677 0.0
H1817 H 0.73873 0.0894 0.00419 0.0
H1818 H 0.75425 0.17003 0.0187 0.0
H1819 H 0.71774 0.17218 0.05102 0.0
C1820 C 0.81706 0.13932 0.97467 0.0
C1821 C 0.81408 0.12699 0.95112 0.0
C1822 C 0.79623 0.14 0.99345 0.0
C1823 C 0.77199 0.12828 0.98906 0.0
C1824 C 0.76928 0.11569 0.96546 0.0
C1825 C 0.79008 0.11514 0.94666 0.0
C1826 C 0.71328 0.10883 0.03281 0.0
C1827 C 0.70699 0.13196 0.04663 0.0
C1828 C 0.73422 0.10765 0.01414 0.0
C1829 C 0.74955 0.12952 0.00885 0.0
C1830 C 0.74321 0.15266 0.02257 0.0
C1831 C 0.72221 0.15388 0.04115 0.0
H1832 H 0.29938 0.14075 0.4751 0.0
H1833 H 0.28316 0.06074 0.45947 0.0
H1834 H 0.26687 0.14096 0.51151 0.0
H1835 H 0.2503 0.06079 0.4956 0.0
H1836 H 0.21487 0.06116 0.57825 0.0
H1837 H 0.24783 0.06147 0.54223 0.0
H1838 H 0.21939 0.14015 0.52179 0.0
H1839 H 0.18679 0.13971 0.55812 0.0
C1840 C 0.28867 0.12327 0.47948 0.0
C1841 C 0.29378 0.10068 0.46473 0.0
C1842 C 0.26998 0.12336 0.50022 0.0
C1843 C 0.25597 0.10084 0.50663 0.0
C1844 C 0.261 0.07833 0.49154 0.0
C1845 C 0.27966 0.07829 0.47078 0.0
C1846 C 0.21583 0.07846 0.56601 0.0
C1847 C 0.19837 0.10036 0.57077 0.0
C1848 C 0.23453 0.07864 0.54529 0.0
C1849 C 0.23624 0.1008 0.52894 0.0
C1850 C 0.21888 0.12285 0.53407 0.0
C1851 C 0.20015 0.12262 0.55477 0.0
H1852 H 0.14414 0.98684 0.69411 0.0
H1853 H 0.13916 0.05034 0.74823 0.0
H1854 H 0.14492 0.95523 0.72985 0.0
H1855 H 0.13977 0.01885 0.78387 0.0
H1856 H 0.16847 0.95468 0.84066 0.0
H1857 H 0.16902 0.98633 0.80471 0.0
H1858 H 0.11527 0.9395 0.76407 0.0
H1859 H 0.11542 0.90776 0.79988 0.0
C1860 C 0.14313 0.99402 0.71363 0.0
C1861 C 0.1417 0.02106 0.71835 0.0
C1862 C 0.14351 0.97595 0.7341 0.0
C1863 C 0.14238 0.98454 0.75971 0.0
C1864 C 0.14111 0.01158 0.76439 0.0
C1865 C 0.14078 0.02963 0.74395 0.0
C1866 C 0.15676 0.95143 0.824 0.0
C1867 C 0.14181 0.92914 0.82279 0.0
C1868 C 0.15696 0.96945 0.80351 0.0
C1869 C 0.1422 0.9654 0.78151 0.0
C1870 C 0.12714 0.943 0.78055 0.0
C1871 C 0.127 0.92499 0.80103 0.0
H1872 H 0.32872 0.87522 0.04523 0.0
H1873 H 0.26095 0.88874 0.09802 0.0
H1874 H 0.29859 0.87394 0.0094 0.0
H1875 H 0.23069 0.88787 0.06186 0.0
H1876 H 0.19546 0.91313 0.98035 0.0
H1877 H 0.22433 0.91663 0.01689 0.0
H1878 H 0.26053 0.83986 0.00095 0.0
H1879 H 0.23087 0.83547 0.96538 0.0
C1880 C 0.30737 0.87831 0.04905 0.0
C1881 C 0.29704 0.88219 0.07425 0.0
C1882 C 0.29022 0.87741 0.02864 0.0
C1883 C 0.26249 0.88079 0.03305 0.0
C1884 C 0.25209 0.88535 0.05813 0.0
C1885 C 0.26928 0.88575 0.0787 0.0
C1886 C 0.20927 0.8968 0.9848 0.0
C1887 C 0.21082 0.87401 0.96981 0.0
C1888 C 0.22581 0.89891 0.00564 0.0
C1889 C 0.24453 0.87853 0.01151 0.0
C1890 C 0.24634 0.85591 0.99653 0.0
C1891 C 0.2295 0.85355 0.97603 0.0
H1892 H 0.36493 0.05337 0.28648 0.0
H1893 H 0.36375 0.99068 0.34315 0.0
H1894 H 0.36844 0.02138 0.25215 0.0
H1895 H 0.367 0.95859 0.30877 0.0
H1896 H 0.40072 0.9082 0.24164 0.0
H1897 H 0.3974 0.94034 0.27621 0.0
H1898 H 0.34365 0.98977 0.23097 0.0
H1899 H 0.34771 0.95774 0.19631 0.0
C1900 C 0.36508 0.03274 0.29162 0.0
C1901 C 0.36396 0.02463 0.31762 0.0
C1902 C 0.36709 0.01435 0.27189 0.0
C1903 C 0.36797 0.98732 0.27759 0.0
C1904 C 0.3668 0.97921 0.30361 0.0
C1905 C 0.36488 0.99762 0.32336 0.0
C1906 C 0.3883 0.92603 0.23923 0.0
C1907 C 0.37456 0.93071 0.21644 0.0
C1908 C 0.38621 0.94436 0.25903 0.0
C1909 C 0.37021 0.96772 0.25648 0.0
C1910 C 0.35645 0.97224 0.23352 0.0
C1911 C 0.35862 0.95391 0.21371 0.0
H1912 H 0.57667 0.21769 0.06547 0.0
H1913 H 0.5533 0.20793 0.14557 0.0
H1914 H 0.54105 0.25234 0.06094 0.0
H1915 H 0.51785 0.242 0.14123 0.0
H1916 H 0.47176 0.31951 0.13198 0.0
H1917 H 0.51102 0.28901 0.13425 0.0
H1918 H 0.49136 0.25585 0.06176 0.0
H1919 H 0.4523 0.28689 0.05951 0.0
C1920 C 0.56407 0.22322 0.08209 0.0
C1921 C 0.56775 0.21046 0.10588 0.0
C1922 C 0.54363 0.24282 0.07952 0.0
C1923 C 0.5267 0.24997 0.10077 0.0
C1924 C 0.5308 0.23731 0.1246 0.0
C1925 C 0.55103 0.21775 0.1271 0.0
C1926 C 0.47607 0.30573 0.11655 0.0
C1927 C 0.45925 0.30522 0.09566 0.0
C1928 C 0.4984 0.28827 0.11782 0.0
C1929 C 0.50423 0.26993 0.09823 0.0
C1930 C 0.48757 0.26992 0.077 0.0
C1931 C 0.46518 0.28744 0.07576 0.0
H1932 H 0.99533 0.17242 0.89196 0.0
H1933 H 0.93967 0.23669 0.91292 0.0
H1934 H 0.03226 0.20178 0.89211 0.0
H1935 H 0.97675 0.26611 0.91314 0.0
H1936 H 0.05553 0.30363 0.93227 0.0
H1937 H 0.02113 0.27168 0.93761 0.0
H1938 H 0.04224 0.24153 0.86209 0.0
H1939 H 0.07574 0.27404 0.85608 0.0
C1940 C 0.99111 0.19274 0.89704 0.0
C1941 C 0.96473 0.20237 0.90245 0.0
C1942 C 0.01216 0.2095 0.89696 0.0
C1943 C 0.00724 0.2361 0.90262 0.0
C1944 C 0.981 0.24559 0.90892 0.0
C1945 C 0.95985 0.22887 0.90862 0.0
C1946 C 0.0528 0.29028 0.91673 0.0
C1947 C 0.06833 0.29158 0.89365 0.0
C1948 C 0.0332 0.27196 0.91989 0.0
C1949 C 0.02912 0.25428 0.90024 0.0
C1950 C 0.04526 0.25481 0.87763 0.0
C1951 C 0.06455 0.27337 0.87428 0.0
H1952 H 0.03691 0.72858 0.15503 0.0
H1953 H 0.03113 0.71904 0.07301 0.0
H1954 H 0.00447 0.76575 0.15364 0.0
H1955 H 0.99839 0.75623 0.07168 0.0
H1956 H 0.91849 0.80512 0.08808 0.0
H1957 H 0.95207 0.76838 0.08713 0.0
H1958 H 0.00144 0.81099 0.1366 0.0
H1959 H 0.96756 0.84745 0.13763 0.0
C1960 C 0.02885 0.73453 0.13666 0.0
C1961 C 0.0367 0.72092 0.11411 0.0
C1962 C 0.01028 0.75585 0.13587 0.0
C1963 C 0.99903 0.76404 0.11252 0.0
C1964 C 0.00656 0.75024 0.09 0.0
C1965 C 0.02524 0.72891 0.09077 0.0
C1966 C 0.93672 0.80655 0.09847 0.0
C1967 C 0.94075 0.82885 0.11285 0.0
C1968 C 0.95592 0.78567 0.09789 0.0
C1969 C 0.97934 0.78677 0.11187 0.0
C1970 C 0.98345 0.80945 0.1259 0.0
C1971 C 0.96428 0.83034 0.12638 0.0
H1972 H 0.49006 0.68643 0.3552 0.0
H1973 H 0.43039 0.7437 0.38421 0.0
H1974 H 0.52386 0.71921 0.35551 0.0
H1975 H 0.46405 0.77656 0.38412 0.0
H1976 H 0.53811 0.81787 0.40921 0.0
H1977 H 0.50451 0.78518 0.40806 0.0
H1978 H 0.53557 0.76078 0.33317 0.0
H1979 H 0.56893 0.79386 0.33401 0.0
C1980 C 0.48418 0.70601 0.36167 0.0
C1981 C 0.45755 0.71243 0.36977 0.0
C1982 C 0.50348 0.72485 0.36162 0.0
C1983 C 0.49667 0.75049 0.3699 0.0
C1984 C 0.47002 0.75692 0.37788 0.0
C1985 C 0.45067 0.73816 0.3777 0.0
C1986 C 0.53766 0.80575 0.39235 0.0
C1987 C 0.5563 0.8086 0.37169 0.0
C1988 C 0.51838 0.78697 0.39173 0.0
C1989 C 0.51731 0.7704 0.37051 0.0
C1990 C 0.53606 0.77303 0.34994 0.0
C1991 C 0.55525 0.79195 0.35048 0.0
H1992 H 0.05508 0.71665 0.56453 0.0
H1993 H 0.03918 0.69035 0.64256 0.0
H1994 H 0.01346 0.74421 0.56618 0.0
H1995 H 0.99762 0.71809 0.64447 0.0
H1996 H 0.94166 0.79485 0.64273 0.0
H1997 H 0.98275 0.76642 0.64306 0.0
H1998 H 0.96402 0.73591 0.56919 0.0
H1999 H 0.92288 0.76418 0.56916 0.0
C2000 C 0.0426 0.7169 0.58201 0.0
C2001 C 0.04994 0.70135 0.60331 0.0
C2002 C 0.01882 0.7325 0.58296 0.0
C2003 C 0.00221 0.73307 0.60537 0.0
C2004 C 0.01008 0.71808 0.62699 0.0
C2005 C 0.03374 0.70226 0.62592 0.0
C2006 C 0.94632 0.78177 0.62679 0.0
C2007 C 0.92949 0.78168 0.60581 0.0
C2008 C 0.96971 0.76556 0.62695 0.0
C2009 C 0.97668 0.74918 0.60602 0.0
C2010 C 0.95934 0.74865 0.58537 0.0
C2011 C 0.93583 0.76464 0.58537 0.0
H2012 H 0.06867 0.29479 0.3798 0.0
H2013 H 0.00901 0.34476 0.34282 0.0
H2014 H 0.03793 0.25894 0.38161 0.0
H2015 H 0.97797 0.30919 0.34509 0.0
H2016 H 0.92209 0.24764 0.38097 0.0
H2017 H 0.9531 0.28322 0.38028 0.0
H2018 H 0.01588 0.23053 0.34894 0.0
H2019 H 0.98459 0.19516 0.34917 0.0
C2020 C 0.04888 0.29805 0.37221 0.0
C2021 C 0.04098 0.32251 0.36146 0.0
C2022 C 0.03137 0.2776 0.37316 0.0
C2023 C 0.00552 0.28133 0.3636 0.0
C2024 C 0.99764 0.30587 0.3529 0.0
C2025 C 0.01532 0.32619 0.3516 0.0
C2026 C 0.94256 0.24377 0.37402 0.0
C2027 C 0.95111 0.21874 0.36528 0.0
C2028 C 0.96023 0.26407 0.37352 0.0
C2029 C 0.98689 0.25963 0.36456 0.0
C2030 C 0.99552 0.23444 0.35617 0.0
C2031 C 0.9777 0.21424 0.3563 0.0
H2032 H 0.44615 0.66506 0.92383 0.0
H2033 H 0.49694 0.62924 0.86405 0.0
H2034 H 0.47689 0.70046 0.92683 0.0
H2035 H 0.52775 0.66472 0.8667 0.0
H2036 H 0.58515 0.72601 0.88888 0.0
H2037 H 0.559 0.68722 0.89449 0.0
H2038 H 0.48613 0.73646 0.89551 0.0
H2039 H 0.51214 0.77515 0.88955 0.0
C2040 C 0.46433 0.66456 0.91184 0.0
C2041 C 0.4695 0.64471 0.89377 0.0
C2042 C 0.48174 0.68481 0.91336 0.0
C2043 C 0.50452 0.68543 0.89681 0.0
C2044 C 0.51045 0.66459 0.87982 0.0
C2045 C 0.49295 0.64436 0.87826 0.0
C2046 C 0.56353 0.72852 0.8902 0.0
C2047 C 0.55067 0.75361 0.88853 0.0
C2048 C 0.54863 0.70634 0.89354 0.0
C2049 C 0.52059 0.70887 0.89548 0.0
C2050 C 0.50776 0.73398 0.8945 0.0
C2051 C 0.52264 0.75613 0.89103 0.0
H2052 H 0.5809 0.88801 0.77581 0.0
H2053 H 0.63168 0.92587 0.82731 0.0
H2054 H 0.58345 0.92527 0.74561 0.0
H2055 H 0.63401 0.96338 0.79757 0.0
H2056 H 0.65552 0.01121 0.72492 0.0
H2057 H 0.65293 0.97426 0.75497 0.0
H2058 H 0.56829 0.97164 0.74258 0.0
H2059 H 0.57085 0.00869 0.71256 0.0
C2060 C 0.59259 0.90439 0.78052 0.0
C2061 C 0.60623 0.90428 0.80356 0.0
C2062 C 0.59393 0.92574 0.76344 0.0
C2063 C 0.60894 0.94728 0.76921 0.0
C2064 C 0.62257 0.94698 0.79241 0.0
C2065 C 0.62117 0.92567 0.80945 0.0
C2066 C 0.63629 0.00298 0.72885 0.0
C2067 C 0.61339 0.01292 0.71637 0.0
C2068 C 0.63482 0.98177 0.74604 0.0
C2069 C 0.61041 0.96998 0.75111 0.0
C2070 C 0.58747 0.98002 0.73876 0.0
C2071 C 0.58894 0.00126 0.72159 0.0
H2072 H 0.22773 0.40711 0.91648 0.0
H2073 H 0.18285 0.3537 0.96366 0.0
H2074 H 0.26203 0.40709 0.94888 0.0
H2075 H 0.21732 0.35293 0.99594 0.0
H2076 H 0.2717 0.37622 0.05925 0.0
H2077 H 0.23672 0.37878 0.02778 0.0
H2078 H 0.297 0.37885 0.96614 0.0
H2079 H 0.33196 0.37659 0.99768 0.0
C2080 C 0.22529 0.39545 0.93393 0.0
C2081 C 0.20276 0.38054 0.93783 0.0
C2082 C 0.24497 0.39522 0.95237 0.0
C2083 C 0.24256 0.37993 0.97505 0.0
C2084 C 0.2197 0.36522 0.97893 0.0
C2085 C 0.20001 0.36553 0.96048 0.0
C2086 C 0.27749 0.37661 0.03897 0.0
C2087 C 0.30466 0.3761 0.031 0.0
C2088 C 0.25741 0.37807 0.0209 0.0
C2089 C 0.26396 0.37897 0.99436 0.0
C2090 C 0.29115 0.37861 0.9864 0.0
C2091 C 0.31124 0.37726 0.00449 0.0
H2092 H 0.8992 0.04291 0.31621 0.0
H2093 H 0.91506 0.09614 0.25276 0.0
H2094 H 0.89861 0.00668 0.28621 0.0
H2095 H 0.91449 0.05974 0.22268 0.0
H2096 H 0.93327 0.98045 0.18131 0.0
H2097 H 0.94016 0.01457 0.21241 0.0
H2098 H 0.86473 0.99897 0.25088 0.0
H2099 H 0.85709 0.96582 0.21936 0.0
C2100 C 0.9031 0.04673 0.29589 0.0
C2101 C 0.90718 0.07227 0.28673 0.0
C2102 C 0.90257 0.02607 0.27877 0.0
C2103 C 0.90642 0.03053 0.25222 0.0
C2104 C 0.91163 0.05584 0.24311 0.0
C2105 C 0.9118 0.07662 0.26024 0.0
C2106 C 0.91803 0.98439 0.19627 0.0
C2107 C 0.89457 0.97035 0.19774 0.0
C2108 C 0.9221 0.00381 0.2141 0.0
C2109 C 0.90301 0.00924 0.23399 0.0
C2110 C 0.87992 0.99486 0.23589 0.0
C2111 C 0.87565 0.97576 0.21788 0.0
H2112 H 0.21503 0.67545 0.54387 0.0
H2113 H 0.21369 0.59147 0.53621 0.0
H2114 H 0.25333 0.67612 0.51363 0.0
H2115 H 0.25207 0.59215 0.50592 0.0
H2116 H 0.2977 0.6112 0.4293 0.0
H2117 H 0.2616 0.60814 0.46204 0.0
H2118 H 0.30087 0.66192 0.50966 0.0
H2119 H 0.33669 0.66518 0.47644 0.0
C2120 C 0.2231 0.6571 0.53591 0.0
C2121 C 0.21133 0.63341 0.54236 0.0
C2122 C 0.24507 0.65748 0.51865 0.0
C2123 C 0.25574 0.63418 0.50747 0.0
C2124 C 0.24407 0.61046 0.51401 0.0
C2125 C 0.22208 0.61008 0.53128 0.0
C2126 C 0.29858 0.62207 0.44696 0.0
C2127 C 0.3197 0.63833 0.45069 0.0
C2128 C 0.27809 0.62027 0.46569 0.0
C2129 C 0.2784 0.63482 0.48839 0.0
C2130 C 0.29996 0.65072 0.49223 0.0
C2131 C 0.32049 0.65247 0.47345 0.0
H2132 H 0.6601 0.61706 0.00067 0.0
H2133 H 0.73605 0.62874 0.03444 0.0
H2134 H 0.68132 0.61845 0.95787 0.0
H2135 H 0.75737 0.63028 0.99135 0.0
H2136 H 0.77991 0.65636 0.90874 0.0
H2137 H 0.75744 0.6578 0.95141 0.0
H2138 H 0.71366 0.59048 0.93235 0.0
H2139 H 0.73612 0.58941 0.88965 0.0
C2140 C 0.68142 0.61965 0.99895 0.0
C2141 C 0.69652 0.62237 0.02094 0.0
C2142 C 0.69353 0.62053 0.97443 0.0
C2143 C 0.721 0.62427 0.97129 0.0
C2144 C 0.73607 0.62757 0.99321 0.0
C2145 C 0.72393 0.62664 0.01785 0.0
C2146 C 0.76523 0.64214 0.91376 0.0
C2147 C 0.75945 0.62285 0.89624 0.0
C2148 C 0.75259 0.64279 0.93812 0.0
C2149 C 0.73389 0.62419 0.94521 0.0
C2150 C 0.72778 0.60523 0.92731 0.0
C2151 C 0.74053 0.60454 0.90298 0.0
H2152 H 0.65423 0.50023 0.3075 0.0
H2153 H 0.65178 0.43822 0.25229 0.0
H2154 H 0.65281 0.53267 0.27253 0.0
H2155 H 0.6501 0.47057 0.21738 0.0
H2156 H 0.67084 0.53444 0.15877 0.0
H2157 H 0.6759 0.50241 0.19412 0.0
H2158 H 0.62141 0.55072 0.24199 0.0
H2159 H 0.6171 0.58282 0.20672 0.0
C2160 C 0.65334 0.49355 0.2879 0.0
C2161 C 0.65313 0.46667 0.28266 0.0
C2162 C 0.65247 0.51212 0.26786 0.0
C2163 C 0.65125 0.50423 0.24214 0.0
C2164 C 0.65145 0.47732 0.23691 0.0
C2165 C 0.65241 0.45876 0.25693 0.0
C2166 C 0.66009 0.53803 0.17695 0.0
C2167 C 0.64356 0.5608 0.18026 0.0
C2168 C 0.66283 0.51976 0.19711 0.0
C2169 C 0.64904 0.52399 0.2209 0.0
C2170 C 0.63262 0.54702 0.22408 0.0
C2171 C 0.62996 0.56528 0.20394 0.0
H2172 H 0.83715 0.38227 0.49728 0.0
H2173 H 0.7727 0.40276 0.55202 0.0
H2174 H 0.80511 0.38119 0.46315 0.0
H2175 H 0.74065 0.4013 0.5179 0.0
H2176 H 0.68908 0.3691 0.45512 0.0
H2177 H 0.7213 0.36967 0.48945 0.0
H2178 H 0.775 0.41158 0.43878 0.0
H2179 H 0.74263 0.41087 0.40456 0.0
C2180 C 0.81619 0.38678 0.50202 0.0
C2181 C 0.80758 0.39276 0.52744 0.0
C2182 C 0.79781 0.3861 0.48244 0.0
C2183 C 0.77031 0.39121 0.48776 0.0
C2184 C 0.76165 0.39695 0.51319 0.0
C2185 C 0.78004 0.39776 0.53277 0.0
C2186 C 0.70783 0.37837 0.45145 0.0
C2187 C 0.7136 0.38975 0.42727 0.0
C2188 C 0.7262 0.37883 0.47107 0.0
C2189 C 0.75076 0.39064 0.46686 0.0
C2190 C 0.75645 0.40203 0.44256 0.0
C2191 C 0.73797 0.4017 0.423 0.0
H2192 H 0.79745 0.56237 0.73732 0.0
H2193 H 0.87891 0.58577 0.73 0.0
H2194 H 0.80541 0.53358 0.70047 0.0
H2195 H 0.88675 0.5579 0.69251 0.0
H2196 H 0.90076 0.4747 0.66034 0.0
H2197 H 0.89231 0.51187 0.68846 0.0
H2198 H 0.81503 0.52749 0.65518 0.0
H2199 H 0.82355 0.48929 0.62736 0.0
C2200 C 0.81686 0.56174 0.72738 0.0
C2201 C 0.83772 0.57582 0.73661 0.0
C2202 C 0.82141 0.54543 0.70618 0.0
C2203 C 0.84682 0.54321 0.69369 0.0
C2204 C 0.86713 0.55869 0.70205 0.0
C2205 C 0.86269 0.57466 0.72344 0.0
C2206 C 0.88226 0.48649 0.65866 0.0
C2207 C 0.86283 0.47943 0.64172 0.0
C2208 C 0.87741 0.50788 0.67467 0.0
C2209 C 0.85298 0.52275 0.67408 0.0
C2210 C 0.83394 0.51628 0.65626 0.0
C2211 C 0.83882 0.49468 0.64021 0.0
H2212 H 0.57648 0.18883 0.62208 0.0
H2213 H 0.52195 0.14509 0.66974 0.0
H2214 H 0.54488 0.22708 0.62348 0.0
H2215 H 0.48991 0.18312 0.67093 0.0
H2216 H 0.45491 0.26531 0.69164 0.0
H2217 H 0.48615 0.22705 0.68946 0.0
H2218 H 0.50097 0.24219 0.60832 0.0
H2219 H 0.46969 0.28038 0.61047 0.0
C2220 C 0.55749 0.18746 0.63259 0.0
C2221 C 0.55134 0.16423 0.64566 0.0
C2222 C 0.5394 0.20922 0.63336 0.0
C2223 C 0.51489 0.20814 0.64734 0.0
C2224 C 0.50875 0.18466 0.66025 0.0
C2225 C 0.52687 0.16288 0.65942 0.0
C2226 C 0.46474 0.2604 0.67331 0.0
C2227 C 0.45984 0.27594 0.65124 0.0
C2228 C 0.48259 0.23844 0.67205 0.0
C2229 C 0.49597 0.23153 0.6487 0.0
C2230 C 0.49124 0.24718 0.62668 0.0
C2231 C 0.47337 0.26912 0.62793 0.0
loop_
_geom_bond_atom_site_label_1
_geom_bond_atom_site_label_2
_geom_bond_distance
_geom_bond_site_symmetry_2
_ccdc_geom_bond_type
C0 C1 1.443 . S
C0 N4 1.376 . S
C0 C38 1.389 . S
C1 C0 1.443 . S
C1 C2 1.340 . S
C1 H41 0.951 . S
C2 C1 1.340 . S
C2 C3 1.439 . S
C2 H42 0.950 . S
C3 C2 1.439 . S
C3 N4 1.374 . S
C3 C37 1.395 . S
N4 C0 1.376 . S
N4 C3 1.374 . S
N4 Co5 2.008 . S
Co5 N4 2.008 . S
Co5 N6 1.995 . S
Co5 N11 2.008 . S
Co5 N16 1.995 . S
Co5 N21 2.282 . S
Co5 N27 2.282 . S
N6 Co5 1.995 . S
N6 C7 1.376 . S
N6 C10 1.383 . S
C7 N6 1.376 . S
C7 C8 1.446 . S
C7 C37 1.391 . S
C8 C7 1.446 . S
C8 C9 1.339 . S
C8 H43 0.949 . S
C9 C8 1.339 . S
C9 C10 1.439 . S
C9 H44 0.950 . S
C10 N6 1.383 . S
C10 C9 1.439 . S
C10 C39 1.392 . S
N11 Co5 2.008 . S
N11 C12 1.376 . S
N11 C15 1.374 . S
C12 N11 1.376 . S
C12 C13 1.443 . S
C12 C39 1.389 . S
C13 C12 1.443 . S
C13 C14 1.340 . S
C13 H45 0.951 . S
C14 C13 1.340 . S
C14 C15 1.439 . S
C14 H46 0.950 . S
C15 N11 1.374 . S
C15 C14 1.439 . S
C15 C40 1.395 . S
N16 Co5 1.995 . S
N16 C17 1.376 . S
N16 C20 1.383 . S
C17 N16 1.376 . S
C17 C18 1.446 . S
C17 C40 1.391 . S
C18 C17 1.446 . S
C18 C19 1.339 . S
C18 H47 0.949 . S
C19 C18 1.339 . S
C19 C20 1.439 . S
C19 H48 0.950 . S
C20 N16 1.383 . S
C20 C19 1.439 . S
C20 C38 1.392 . S
N21 Co5 2.282 . S
N21 C24 1.332 . S
N21 C26 1.332 . S
C22 C23 1.386 . S
C22 C25 1.388 . S
C23 C22 1.386 . S
C23 C24 1.382 . S
C23 H49 0.950 . S
C24 N21 1.332 . S
C24 C23 1.382 . S
C24 H35 0.952 . S
C25 C22 1.388 . S
C25 C26 1.382 . S
C25 H50 0.950 . S
C26 N21 1.332 . S
C26 C25 1.382 . S
C26 H36 0.948 . S
N27 Co5 2.282 . S
N27 C31 1.332 . S
N27 C32 1.332 . S
C28 C29 1.388 . S
C28 C32 1.382 . S
C28 H51 0.950 . S
C29 C28 1.388 . S
C29 C30 1.386 . S
C30 C29 1.386 . S
C30 C31 1.382 . S
C30 H52 0.950 . S
C31 N27 1.332 . S
C31 C30 1.382 . S
C31 H33 0.952 . S
C32 N27 1.332 . S
C32 C28 1.382 . S
C32 H34 0.948 . S
H33 C31 0.952 . S
H34 C32 0.948 . S
H35 C24 0.952 . S
H36 C26 0.948 . S
C37 C3 1.395 . S
C37 C7 1.391 . S
C38 C0 1.389 . S
C38 C20 1.392 . S
C39 C10 1.392 . S
C39 C12 1.389 . S
C40 C15 1.395 . S
C40 C17 1.391 . S
H41 C1 0.951 . S
H42 C2 0.950 . S
H43 C8 0.949 . S
H44 C9 0.950 . S
H45 C13 0.951 . S
H46 C14 0.950 . S
H47 C18 0.949 . S
H48 C19 0.950 . S
H49 C23 0.950 . S
H50 C25 0.950 . S
H51 C28 0.950 . S
H52 C30 0.950 . S
C53 C54 1.443 . S
C53 N57 1.376 . S
C53 C91 1.389 . S
C54 C53 1.443 . S
C54 C55 1.340 . S
C54 H94 0.951 . S
C55 C54 1.340 . S
C55 C56 1.439 . S
C55 H95 0.950 . S
C56 C55 1.439 . S
C56 N57 1.374 . S
C56 C90 1.395 . S
N57 C53 1.376 . S
N57 C56 1.374 . S
N57 Co58 2.008 . S
Co58 N57 2.008 . S
Co58 N59 1.995 . S
Co58 N64 2.008 . S
Co58 N69 1.995 . S
Co58 N74 2.282 . S
Co58 N80 2.282 . S
N59 Co58 1.995 . S
N59 C60 1.376 . S
N59 C63 1.383 . S
C60 N59 1.376 . S
C60 C61 1.446 . S
C60 C90 1.391 . S
C61 C60 1.446 . S
C61 C62 1.339 . S
C61 H96 0.949 . S
C62 C61 1.339 . S
C62 C63 1.439 . S
C62 H97 0.950 . S
C63 N59 1.383 . S
C63 C62 1.439 . S
C63 C92 1.392 . S
N64 Co58 2.008 . S
N64 C65 1.376 . S
N64 C68 1.374 . S
C65 N64 1.376 . S
C65 C66 1.443 . S
C65 C92 1.389 . S
C66 C65 1.443 . S
C66 C67 1.340 . S
C66 H98 0.951 . S
C67 C66 1.340 . S
C67 C68 1.439 . S
C67 H99 0.950 . S
C68 N64 1.374 . S
C68 C67 1.439 . S
C68 C93 1.395 . S
N69 Co58 1.995 . S
N69 C70 1.376 . S
N69 C73 1.383 . S
C70 N69 1.376 . S
C70 C71 1.446 . S
C70 C93 1.391 . S
C71 C70 1.446 . S
C71 C72 1.339 . S
C71 H100 0.949 . S
C72 C71 1.339 . S
C72 C73 1.439 . S
C72 H101 0.950 . S
C73 N69 1.383 . S
C73 C72 1.439 . S
C73 C91 1.392 . S
N74 Co58 2.282 . S
N74 C77 1.332 . S
N74 C79 1.332 . S
C75 C76 1.386 . S
C75 C78 1.388 . S
C76 C75 1.386 . S
C76 C77 1.382 . S
C76 H102 0.950 . S
C77 N74 1.332 . S
C77 C76 1.382 . S
C77 H88 0.952 . S
C78 C75 1.388 . S
C78 C79 1.382 . S
C78 H103 0.950 . S
C79 N74 1.332 . S
C79 C78 1.382 . S
C79 H89 0.948 . S
N80 Co58 2.282 . S
N80 C84 1.332 . S
N80 C85 1.332 . S
C81 C82 1.388 . S
C81 C85 1.382 . S
C81 H104 0.950 . S
C82 C81 1.388 . S
C82 C83 1.386 . S
C83 C82 1.386 . S
C83 C84 1.382 . S
C83 H105 0.950 . S
C84 N80 1.332 . S
C84 C83 1.382 . S
C84 H86 0.952 . S
C85 N80 1.332 . S
C85 C81 1.382 . S
C85 H87 0.948 . S
H86 C84 0.952 . S
H87 C85 0.948 . S
H88 C77 0.952 . S
H89 C79 0.948 . S
C90 C56 1.395 . S
C90 C60 1.391 . S
C91 C53 1.389 . S
C91 C73 1.392 . S
C92 C63 1.392 . S
C92 C65 1.389 . S
C93 C68 1.395 . S
C93 C70 1.391 . S
H94 C54 0.951 . S
H95 C55 0.950 . S
H96 C61 0.949 . S
H97 C62 0.950 . S
H98 C66 0.951 . S
H99 C67 0.950 . S
H100 C71 0.949 . S
H101 C72 0.950 . S
H102 C76 0.950 . S
H103 C78 0.950 . S
H104 C81 0.950 . S
H105 C83 0.950 . S
C106 C107 1.443 . S
C106 N110 1.376 . S
C106 C144 1.389 . S
C107 C106 1.443 . S
C107 C108 1.340 . S
C107 H147 0.951 . S
C108 C107 1.340 . S
C108 C109 1.439 . S
C108 H148 0.950 . S
C109 C108 1.439 . S
C109 N110 1.374 . S
C109 C143 1.395 . S
N110 C106 1.376 . S
N110 C109 1.374 . S
N110 Co111 2.008 . S
Co111 N110 2.008 . S
Co111 N112 1.995 . S
Co111 N117 2.008 . S
Co111 N122 1.995 . S
Co111 N127 2.282 . S
Co111 N133 2.282 . S
N112 Co111 1.995 . S
N112 C113 1.376 . S
N112 C116 1.383 . S
C113 N112 1.376 . S
C113 C114 1.446 . S
C113 C143 1.391 . S
C114 C113 1.446 . S
C114 C115 1.339 . S
C114 H149 0.949 . S
C115 C114 1.339 . S
C115 C116 1.439 . S
C115 H150 0.950 . S
C116 N112 1.383 . S
C116 C115 1.439 . S
C116 C145 1.392 . S
N117 Co111 2.008 . S
N117 C118 1.376 . S
N117 C121 1.374 . S
C118 N117 1.376 . S
C118 C119 1.443 . S
C118 C145 1.389 . S
C119 C118 1.443 . S
C119 C120 1.340 . S
C119 H151 0.951 . S
C120 C119 1.340 . S
C120 C121 1.439 . S
C120 H152 0.950 . S
C121 N117 1.374 . S
C121 C120 1.439 . S
C121 C146 1.395 . S
N122 Co111 1.995 . S
N122 C123 1.376 . S
N122 C126 1.383 . S
C123 N122 1.376 . S
C123 C124 1.446 . S
C123 C146 1.391 . S
C124 C123 1.446 . S
C124 C125 1.339 . S
C124 H153 0.949 . S
C125 C124 1.339 . S
C125 C126 1.439 . S
C125 H154 0.950 . S
C126 N122 1.383 . S
C126 C125 1.439 . S
C126 C144 1.392 . S
N127 Co111 2.282 . S
N127 C130 1.332 . S
N127 C132 1.332 . S
C128 C129 1.386 . S
C128 C131 1.388 . S
C129 C128 1.386 . S
C129 C130 1.382 . S
C129 H155 0.950 . S
C130 N127 1.332 . S
C130 C129 1.382 . S
C130 H141 0.952 . S
C131 C128 1.388 . S
C131 C132 1.382 . S
C131 H156 0.950 . S
C132 N127 1.332 . S
C132 C131 1.382 . S
C132 H142 0.948 . S
N133 Co111 2.282 . S
N133 C137 1.332 . S
N133 C138 1.332 . S
C134 C135 1.388 . S
C134 C138 1.382 . S
C134 H157 0.950 . S
C135 C134 1.388 . S
C135 C136 1.386 . S
C136 C135 1.386 . S
C136 C137 1.382 . S
C136 H158 0.950 . S
C137 N133 1.332 . S
C137 C136 1.382 . S
C137 H139 0.952 . S
C138 N133 1.332 . S
C138 C134 1.382 . S
C138 H140 0.948 . S
H139 C137 0.952 . S
H140 C138 0.948 . S
H141 C130 0.952 . S
H142 C132 0.948 . S
C143 C109 1.395 . S
C143 C113 1.391 . S
C144 C106 1.389 . S
C144 C126 1.392 . S
C145 C116 1.392 . S
C145 C118 1.389 . S
C146 C121 1.395 . S
C146 C123 1.391 . S
H147 C107 0.951 . S
H148 C108 0.950 . S
H149 C114 0.949 . S
H150 C115 0.950 . S
H151 C119 0.951 . S
H152 C120 0.950 . S
H153 C124 0.949 . S
H154 C125 0.950 . S
H155 C129 0.950 . S
H156 C131 0.950 . S
H157 C134 0.950 . S
H158 C136 0.950 . S
C159 C160 1.443 . S
C159 N163 1.376 . S
C159 C197 1.389 . S
C160 C159 1.443 . S
C160 C161 1.340 . S
C160 H200 0.951 . S
C161 C160 1.340 . S
C161 C162 1.439 . S
C161 H201 0.950 . S
C162 C161 1.439 . S
C162 N163 1.374 . S
C162 C196 1.395 . S
N163 C159 1.376 . S
N163 C162 1.374 . S
N163 Co164 2.008 . S
Co164 N163 2.008 . S
Co164 N165 1.995 . S
Co164 N170 2.008 . S
Co164 N175 1.995 . S
Co164 N180 2.282 . S
Co164 N186 2.282 . S
N165 Co164 1.995 . S
N165 C166 1.376 . S
N165 C169 1.383 . S
C166 N165 1.376 . S
C166 C167 1.446 . S
C166 C196 1.391 . S
C167 C166 1.446 . S
C167 C168 1.339 . S
C167 H202 0.949 . S
C168 C167 1.339 . S
C168 C169 1.439 . S
C168 H203 0.950 . S
C169 N165 1.383 . S
C169 C168 1.439 . S
C169 C198 1.392 . S
N170 Co164 2.008 . S
N170 C171 1.376 . S
N170 C174 1.374 . S
C171 N170 1.376 . S
C171 C172 1.443 . S
C171 C198 1.389 . S
C172 C171 1.443 . S
C172 C173 1.340 . S
C172 H204 0.951 . S
C173 C172 1.340 . S
C173 C174 1.439 . S
C173 H205 0.950 . S
C174 N170 1.374 . S
C174 C173 1.439 . S
C174 C199 1.395 . S
N175 Co164 1.995 . S
N175 C176 1.376 . S
N175 C179 1.383 . S
C176 N175 1.376 . S
C176 C177 1.446 . S
C176 C199 1.391 . S
C177 C176 1.446 . S
C177 C178 1.339 . S
C177 H206 0.949 . S
C178 C177 1.339 . S
C178 C179 1.439 . S
C178 H207 0.950 . S
C179 N175 1.383 . S
C179 C178 1.439 . S
C179 C197 1.392 . S
N180 Co164 2.282 . S
N180 C183 1.332 . S
N180 C185 1.332 . S
C181 C182 1.386 . S
C181 C184 1.388 . S
C182 C181 1.386 . S
C182 C183 1.382 . S
C182 H208 0.950 . S
C183 N180 1.332 . S
C183 C182 1.382 . S
C183 H194 0.952 . S
C184 C181 1.388 . S
C184 C185 1.382 . S
C184 H209 0.950 . S
C185 N180 1.332 . S
C185 C184 1.382 . S
C185 H195 0.948 . S
N186 Co164 2.282 . S
N186 C190 1.332 . S
N186 C191 1.332 . S
C187 C188 1.388 . S
C187 C191 1.382 . S
C187 H210 0.950 . S
C188 C187 1.388 . S
C188 C189 1.386 . S
C189 C188 1.386 . S
C189 C190 1.382 . S
C189 H211 0.950 . S
C190 N186 1.332 . S
C190 C189 1.382 . S
C190 H192 0.952 . S
C191 N186 1.332 . S
C191 C187 1.382 . S
C191 H193 0.948 . S
H192 C190 0.952 . S
H193 C191 0.948 . S
H194 C183 0.952 . S
H195 C185 0.948 . S
C196 C162 1.395 . S
C196 C166 1.391 . S
C197 C159 1.389 . S
C197 C179 1.392 . S
C198 C169 1.392 . S
C198 C171 1.389 . S
C199 C174 1.395 . S
C199 C176 1.391 . S
H200 C160 0.951 . S
H201 C161 0.950 . S
H202 C167 0.949 . S
H203 C168 0.950 . S
H204 C172 0.951 . S
H205 C173 0.950 . S
H206 C177 0.949 . S
H207 C178 0.950 . S
H208 C182 0.950 . S
H209 C184 0.950 . S
H210 C187 0.950 . S
H211 C189 0.950 . S
C212 C213 1.443 . S
C212 N216 1.376 . S
C212 C250 1.389 . S
C213 C212 1.443 . S
C213 C214 1.340 . S
C213 H253 0.951 . S
C214 C213 1.340 . S
C214 C215 1.439 . S
C214 H254 0.950 . S
C215 C214 1.439 . S
C215 N216 1.374 . S
C215 C249 1.395 . S
N216 C212 1.376 . S
N216 C215 1.374 . S
N216 Co217 2.008 . S
Co217 N216 2.008 . S
Co217 N218 1.995 . S
Co217 N223 2.008 . S
Co217 N228 1.995 . S
Co217 N233 2.282 . S
Co217 N239 2.282 . S
N218 Co217 1.995 . S
N218 C219 1.376 . S
N218 C222 1.383 . S
C219 N218 1.376 . S
C219 C220 1.446 . S
C219 C249 1.391 . S
C220 C219 1.446 . S
C220 C221 1.339 . S
C220 H255 0.949 . S
C221 C220 1.339 . S
C221 C222 1.439 . S
C221 H256 0.950 . S
C222 N218 1.383 . S
C222 C221 1.439 . S
C222 C251 1.392 . S
N223 Co217 2.008 . S
N223 C224 1.376 . S
N223 C227 1.374 . S
C224 N223 1.376 . S
C224 C225 1.443 . S
C224 C251 1.389 . S
C225 C224 1.443 . S
C225 C226 1.340 . S
C225 H257 0.951 . S
C226 C225 1.340 . S
C226 C227 1.439 . S
C226 H258 0.950 . S
C227 N223 1.374 . S
C227 C226 1.439 . S
C227 C252 1.395 . S
N228 Co217 1.995 . S
N228 C229 1.376 . S
N228 C232 1.383 . S
C229 N228 1.376 . S
C229 C230 1.446 . S
C229 C252 1.391 . S
C230 C229 1.446 . S
C230 C231 1.339 . S
C230 H259 0.949 . S
C231 C230 1.339 . S
C231 C232 1.439 . S
C231 H260 0.950 . S
C232 N228 1.383 . S
C232 C231 1.439 . S
C232 C250 1.392 . S
N233 Co217 2.282 . S
N233 C236 1.332 . S
N233 C238 1.332 . S
C234 C235 1.386 . S
C234 C237 1.388 . S
C235 C234 1.386 . S
C235 C236 1.382 . S
C235 H261 0.950 . S
C236 N233 1.332 . S
C236 C235 1.382 . S
C236 H247 0.952 . S
C237 C234 1.388 . S
C237 C238 1.382 . S
C237 H262 0.950 . S
C238 N233 1.332 . S
C238 C237 1.382 . S
C238 H248 0.948 . S
N239 Co217 2.282 . S
N239 C243 1.332 . S
N239 C244 1.332 . S
C240 C241 1.388 . S
C240 C244 1.382 . S
C240 H263 0.950 . S
C241 C240 1.388 . S
C241 C242 1.386 . S
C242 C241 1.386 . S
C242 C243 1.382 . S
C242 H264 0.950 . S
C243 N239 1.332 . S
C243 C242 1.382 . S
C243 H245 0.952 . S
C244 N239 1.332 . S
C244 C240 1.382 . S
C244 H246 0.948 . S
H245 C243 0.952 . S
H246 C244 0.948 . S
H247 C236 0.952 . S
H248 C238 0.948 . S
C249 C215 1.395 . S
C249 C219 1.391 . S
C250 C212 1.389 . S
C250 C232 1.392 . S
C251 C222 1.392 . S
C251 C224 1.389 . S
C252 C227 1.395 . S
C252 C229 1.391 . S
H253 C213 0.951 . S
H254 C214 0.950 . S
H255 C220 0.949 . S
H256 C221 0.950 . S
H257 C225 0.951 . S
H258 C226 0.950 . S
H259 C230 0.949 . S
H260 C231 0.950 . S
H261 C235 0.950 . S
H262 C237 0.950 . S
H263 C240 0.950 . S
H264 C242 0.950 . S
C265 C266 1.443 . S
C265 N269 1.376 . S
C265 C303 1.389 . S
C266 C265 1.443 . S
C266 C267 1.340 . S
C266 H306 0.951 . S
C267 C266 1.340 . S
C267 C268 1.439 . S
C267 H307 0.950 . S
C268 C267 1.439 . S
C268 N269 1.374 . S
C268 C302 1.395 . S
N269 C265 1.376 . S
N269 C268 1.374 . S
N269 Co270 2.008 . S
Co270 N269 2.008 . S
Co270 N271 1.995 . S
Co270 N276 2.008 . S
Co270 N281 1.995 . S
Co270 N286 2.282 . S
Co270 N292 2.282 . S
N271 Co270 1.995 . S
N271 C272 1.376 . S
N271 C275 1.383 . S
C272 N271 1.376 . S
C272 C273 1.446 . S
C272 C302 1.391 . S
C273 C272 1.446 . S
C273 C274 1.339 . S
C273 H308 0.949 . S
C274 C273 1.339 . S
C274 C275 1.439 . S
C274 H309 0.950 . S
C275 N271 1.383 . S
C275 C274 1.439 . S
C275 C304 1.392 . S
N276 Co270 2.008 . S
N276 C277 1.376 . S
N276 C280 1.374 . S
C277 N276 1.376 . S
C277 C278 1.443 . S
C277 C304 1.389 . S
C278 C277 1.443 . S
C278 C279 1.340 . S
C278 H310 0.951 . S
C279 C278 1.340 . S
C279 C280 1.439 . S
C279 H311 0.950 . S
C280 N276 1.374 . S
C280 C279 1.439 . S
C280 C305 1.395 . S
N281 Co270 1.995 . S
N281 C282 1.376 . S
N281 C285 1.383 . S
C282 N281 1.376 . S
C282 C283 1.446 . S
C282 C305 1.391 . S
C283 C282 1.446 . S
C283 C284 1.339 . S
C283 H312 0.949 . S
C284 C283 1.339 . S
C284 C285 1.439 . S
C284 H313 0.950 . S
C285 N281 1.383 . S
C285 C284 1.439 . S
C285 C303 1.392 . S
N286 Co270 2.282 . S
N286 C289 1.332 . S
N286 C291 1.332 . S
C287 C288 1.386 . S
C287 C290 1.388 . S
C288 C287 1.386 . S
C288 C289 1.382 . S
C288 H314 0.950 . S
C289 N286 1.332 . S
C289 C288 1.382 . S
C289 H300 0.952 . S
C290 C287 1.388 . S
C290 C291 1.382 . S
C290 H315 0.950 . S
C291 N286 1.332 . S
C291 C290 1.382 . S
C291 H301 0.948 . S
N292 Co270 2.282 . S
N292 C296 1.332 . S
N292 C297 1.332 . S
C293 C294 1.388 . S
C293 C297 1.382 . S
C293 H316 0.950 . S
C294 C293 1.388 . S
C294 C295 1.386 . S
C295 C294 1.386 . S
C295 C296 1.382 . S
C295 H317 0.950 . S
C296 N292 1.332 . S
C296 C295 1.382 . S
C296 H298 0.952 . S
C297 N292 1.332 . S
C297 C293 1.382 . S
C297 H299 0.948 . S
H298 C296 0.952 . S
H299 C297 0.948 . S
H300 C289 0.952 . S
H301 C291 0.948 . S
C302 C268 1.395 . S
C302 C272 1.391 . S
C303 C265 1.389 . S
C303 C285 1.392 . S
C304 C275 1.392 . S
C304 C277 1.389 . S
C305 C280 1.395 . S
C305 C282 1.391 . S
H306 C266 0.951 . S
H307 C267 0.950 . S
H308 C273 0.949 . S
H309 C274 0.950 . S
H310 C278 0.951 . S
H311 C279 0.950 . S
H312 C283 0.949 . S
H313 C284 0.950 . S
H314 C288 0.950 . S
H315 C290 0.950 . S
H316 C293 0.950 . S
H317 C295 0.950 . S
C318 C319 1.443 . S
C318 N322 1.376 . S
C318 C356 1.389 . S
C319 C318 1.443 . S
C319 C320 1.340 . S
C319 H359 0.951 . S
C320 C319 1.340 . S
C320 C321 1.439 . S
C320 H360 0.950 . S
C321 C320 1.439 . S
C321 N322 1.374 . S
C321 C355 1.395 . S
N322 C318 1.376 . S
N322 C321 1.374 . S
N322 Co323 2.008 . S
Co323 N322 2.008 . S
Co323 N324 1.995 . S
Co323 N329 2.008 . S
Co323 N334 1.995 . S
Co323 N339 2.282 . S
Co323 N345 2.282 . S
N324 Co323 1.995 . S
N324 C325 1.376 . S
N324 C328 1.383 . S
C325 N324 1.376 . S
C325 C326 1.446 . S
C325 C355 1.391 . S
C326 C325 1.446 . S
C326 C327 1.339 . S
C326 H361 0.949 . S
C327 C326 1.339 . S
C327 C328 1.439 . S
C327 H362 0.950 . S
C328 N324 1.383 . S
C328 C327 1.439 . S
C328 C357 1.392 . S
N329 Co323 2.008 . S
N329 C330 1.376 . S
N329 C333 1.374 . S
C330 N329 1.376 . S
C330 C331 1.443 . S
C330 C357 1.389 . S
C331 C330 1.443 . S
C331 C332 1.340 . S
C331 H363 0.951 . S
C332 C331 1.340 . S
C332 C333 1.439 . S
C332 H364 0.950 . S
C333 N329 1.374 . S
C333 C332 1.439 . S
C333 C358 1.395 . S
N334 Co323 1.995 . S
N334 C335 1.376 . S
N334 C338 1.383 . S
C335 N334 1.376 . S
C335 C336 1.446 . S
C335 C358 1.391 . S
C336 C335 1.446 . S
C336 C337 1.339 . S
C336 H365 0.949 . S
C337 C336 1.339 . S
C337 C338 1.439 . S
C337 H366 0.950 . S
C338 N334 1.383 . S
C338 C337 1.439 . S
C338 C356 1.392 . S
N339 Co323 2.282 . S
N339 C342 1.332 . S
N339 C344 1.332 . S
C340 C341 1.386 . S
C340 C343 1.388 . S
C341 C340 1.386 . S
C341 C342 1.382 . S
C341 H367 0.950 . S
C342 N339 1.332 . S
C342 C341 1.382 . S
C342 H353 0.952 . S
C343 C340 1.388 . S
C343 C344 1.382 . S
C343 H368 0.950 . S
C344 N339 1.332 . S
C344 C343 1.382 . S
C344 H354 0.948 . S
N345 Co323 2.282 . S
N345 C349 1.332 . S
N345 C350 1.332 . S
C346 C347 1.388 . S
C346 C350 1.382 . S
C346 H369 0.950 . S
C347 C346 1.388 . S
C347 C348 1.386 . S
C348 C347 1.386 . S
C348 C349 1.382 . S
C348 H370 0.950 . S
C349 N345 1.332 . S
C349 C348 1.382 . S
C349 H351 0.952 . S
C350 N345 1.332 . S
C350 C346 1.382 . S
C350 H352 0.948 . S
H351 C349 0.952 . S
H352 C350 0.948 . S
H353 C342 0.952 . S
H354 C344 0.948 . S
C355 C321 1.395 . S
C355 C325 1.391 . S
C356 C318 1.389 . S
C356 C338 1.392 . S
C357 C328 1.392 . S
C357 C330 1.389 . S
C358 C333 1.395 . S
C358 C335 1.391 . S
H359 C319 0.951 . S
H360 C320 0.950 . S
H361 C326 0.949 . S
H362 C327 0.950 . S
H363 C331 0.951 . S
H364 C332 0.950 . S
H365 C336 0.949 . S
H366 C337 0.950 . S
H367 C341 0.950 . S
H368 C343 0.950 . S
H369 C346 0.950 . S
H370 C348 0.950 . S
C371 C372 1.443 . S
C371 N375 1.376 . S
C371 C409 1.389 . S
C372 C371 1.443 . S
C372 C373 1.340 . S
C372 H412 0.951 . S
C373 C372 1.340 . S
C373 C374 1.439 . S
C373 H413 0.950 . S
C374 C373 1.439 . S
C374 N375 1.374 . S
C374 C408 1.395 . S
N375 C371 1.376 . S
N375 C374 1.374 . S
N375 Co376 2.008 . S
Co376 N375 2.008 . S
Co376 N377 1.995 . S
Co376 N382 2.008 . S
Co376 N387 1.995 . S
Co376 N392 2.282 . S
Co376 N398 2.282 . S
N377 Co376 1.995 . S
N377 C378 1.376 . S
N377 C381 1.383 . S
C378 N377 1.376 . S
C378 C379 1.446 . S
C378 C408 1.391 . S
C379 C378 1.446 . S
C379 C380 1.339 . S
C379 H414 0.949 . S
C380 C379 1.339 . S
C380 C381 1.439 . S
C380 H415 0.950 . S
C381 N377 1.383 . S
C381 C380 1.439 . S
C381 C410 1.392 . S
N382 Co376 2.008 . S
N382 C383 1.376 . S
N382 C386 1.374 . S
C383 N382 1.376 . S
C383 C384 1.443 . S
C383 C410 1.389 . S
C384 C383 1.443 . S
C384 C385 1.340 . S
C384 H416 0.951 . S
C385 C384 1.340 . S
C385 C386 1.439 . S
C385 H417 0.950 . S
C386 N382 1.374 . S
C386 C385 1.439 . S
C386 C411 1.395 . S
N387 Co376 1.995 . S
N387 C388 1.376 . S
N387 C391 1.383 . S
C388 N387 1.376 . S
C388 C389 1.446 . S
C388 C411 1.391 . S
C389 C388 1.446 . S
C389 C390 1.339 . S
C389 H418 0.949 . S
C390 C389 1.339 . S
C390 C391 1.439 . S
C390 H419 0.950 . S
C391 N387 1.383 . S
C391 C390 1.439 . S
C391 C409 1.392 . S
N392 Co376 2.282 . S
N392 C395 1.332 . S
N392 C397 1.332 . S
C393 C394 1.386 . S
C393 C396 1.388 . S
C394 C393 1.386 . S
C394 C395 1.382 . S
C394 H420 0.950 . S
C395 N392 1.332 . S
C395 C394 1.382 . S
C395 H406 0.952 . S
C396 C393 1.388 . S
C396 C397 1.382 . S
C396 H421 0.950 . S
C397 N392 1.332 . S
C397 C396 1.382 . S
C397 H407 0.948 . S
N398 Co376 2.282 . S
N398 C402 1.332 . S
N398 C403 1.332 . S
C399 C400 1.388 . S
C399 C403 1.382 . S
C399 H422 0.950 . S
C400 C399 1.388 . S
C400 C401 1.386 . S
C401 C400 1.386 . S
C401 C402 1.382 . S
C401 H423 0.950 . S
C402 N398 1.332 . S
C402 C401 1.382 . S
C402 H404 0.952 . S
C403 N398 1.332 . S
C403 C399 1.382 . S
C403 H405 0.948 . S
H404 C402 0.952 . S
H405 C403 0.948 . S
H406 C395 0.952 . S
H407 C397 0.948 . S
C408 C374 1.395 . S
C408 C378 1.391 . S
C409 C371 1.389 . S
C409 C391 1.392 . S
C410 C381 1.392 . S
C410 C383 1.389 . S
C411 C386 1.395 . S
C411 C388 1.391 . S
H412 C372 0.951 . S
H413 C373 0.950 . S
H414 C379 0.949 . S
H415 C380 0.950 . S
H416 C384 0.951 . S
H417 C385 0.950 . S
H418 C389 0.949 . S
H419 C390 0.950 . S
H420 C394 0.950 . S
H421 C396 0.950 . S
H422 C399 0.950 . S
H423 C401 0.950 . S
C424 C425 1.443 . S
C424 N428 1.376 . S
C424 C462 1.389 . S
C425 C424 1.443 . S
C425 C426 1.340 . S
C425 H465 0.951 . S
C426 C425 1.340 . S
C426 C427 1.439 . S
C426 H466 0.950 . S
C427 C426 1.439 . S
C427 N428 1.374 . S
C427 C461 1.395 . S
N428 C424 1.376 . S
N428 C427 1.374 . S
N428 Co429 2.008 . S
Co429 N428 2.008 . S
Co429 N430 1.995 . S
Co429 N435 2.008 . S
Co429 N440 1.995 . S
Co429 N445 2.282 . S
Co429 N451 2.282 . S
N430 Co429 1.995 . S
N430 C431 1.376 . S
N430 C434 1.383 . S
C431 N430 1.376 . S
C431 C432 1.446 . S
C431 C461 1.391 . S
C432 C431 1.446 . S
C432 C433 1.339 . S
C432 H467 0.949 . S
C433 C432 1.339 . S
C433 C434 1.439 . S
C433 H468 0.950 . S
C434 N430 1.383 . S
C434 C433 1.439 . S
C434 C463 1.392 . S
N435 Co429 2.008 . S
N435 C436 1.376 . S
N435 C439 1.374 . S
C436 N435 1.376 . S
C436 C437 1.443 . S
C436 C463 1.389 . S
C437 C436 1.443 . S
C437 C438 1.340 . S
C437 H469 0.951 . S
C438 C437 1.340 . S
C438 C439 1.439 . S
C438 H470 0.950 . S
C439 N435 1.374 . S
C439 C438 1.439 . S
C439 C464 1.395 . S
N440 Co429 1.995 . S
N440 C441 1.376 . S
N440 C444 1.383 . S
C441 N440 1.376 . S
C441 C442 1.446 . S
C441 C464 1.391 . S
C442 C441 1.446 . S
C442 C443 1.339 . S
C442 H471 0.949 . S
C443 C442 1.339 . S
C443 C444 1.439 . S
C443 H472 0.950 . S
C444 N440 1.383 . S
C444 C443 1.439 . S
C444 C462 1.392 . S
N445 Co429 2.282 . S
N445 C448 1.332 . S
N445 C450 1.332 . S
C446 C447 1.386 . S
C446 C449 1.388 . S
C447 C446 1.386 . S
C447 C448 1.382 . S
C447 H473 0.950 . S
C448 N445 1.332 . S
C448 C447 1.382 . S
C448 H459 0.952 . S
C449 C446 1.388 . S
C449 C450 1.382 . S
C449 H474 0.950 . S
C450 N445 1.332 . S
C450 C449 1.382 . S
C450 H460 0.948 . S
N451 Co429 2.282 . S
N451 C455 1.332 . S
N451 C456 1.332 . S
C452 C453 1.388 . S
C452 C456 1.382 . S
C452 H475 0.950 . S
C453 C452 1.388 . S
C453 C454 1.386 . S
C454 C453 1.386 . S
C454 C455 1.382 . S
C454 H476 0.950 . S
C455 N451 1.332 . S
C455 C454 1.382 . S
C455 H457 0.952 . S
C456 N451 1.332 . S
C456 C452 1.382 . S
C456 H458 0.948 . S
H457 C455 0.952 . S
H458 C456 0.948 . S
H459 C448 0.952 . S
H460 C450 0.948 . S
C461 C427 1.395 . S
C461 C431 1.391 . S
C462 C424 1.389 . S
C462 C444 1.392 . S
C463 C434 1.392 . S
C463 C436 1.389 . S
C464 C439 1.395 . S
C464 C441 1.391 . S
H465 C425 0.951 . S
H466 C426 0.950 . S
H467 C432 0.949 . S
H468 C433 0.950 . S
H469 C437 0.951 . S
H470 C438 0.950 . S
H471 C442 0.949 . S
H472 C443 0.950 . S
H473 C447 0.950 . S
H474 C449 0.950 . S
H475 C452 0.950 . S
H476 C454 0.950 . S
C477 C478 1.443 . S
C477 N481 1.376 . S
C477 C515 1.389 . S
C478 C477 1.443 . S
C478 C479 1.340 . S
C478 H518 0.951 . S
C479 C478 1.340 . S
C479 C480 1.439 . S
C479 H519 0.950 . S
C480 C479 1.439 . S
C480 N481 1.374 . S
C480 C514 1.395 . S
N481 C477 1.376 . S
N481 C480 1.374 . S
N481 Co482 2.008 . S
Co482 N481 2.008 . S
Co482 N483 1.995 . S
Co482 N488 2.008 . S
Co482 N493 1.995 . S
Co482 N498 2.282 . S
Co482 N504 2.282 . S
N483 Co482 1.995 . S
N483 C484 1.376 . S
N483 C487 1.383 . S
C484 N483 1.376 . S
C484 C485 1.446 . S
C484 C514 1.391 . S
C485 C484 1.446 . S
C485 C486 1.339 . S
C485 H520 0.949 . S
C486 C485 1.339 . S
C486 C487 1.439 . S
C486 H521 0.950 . S
C487 N483 1.383 . S
C487 C486 1.439 . S
C487 C516 1.392 . S
N488 Co482 2.008 . S
N488 C489 1.376 . S
N488 C492 1.374 . S
C489 N488 1.376 . S
C489 C490 1.443 . S
C489 C516 1.389 . S
C490 C489 1.443 . S
C490 C491 1.340 . S
C490 H522 0.951 . S
C491 C490 1.340 . S
C491 C492 1.439 . S
C491 H523 0.950 . S
C492 N488 1.374 . S
C492 C491 1.439 . S
C492 C517 1.395 . S
N493 Co482 1.995 . S
N493 C494 1.376 . S
N493 C497 1.383 . S
C494 N493 1.376 . S
C494 C495 1.446 . S
C494 C517 1.391 . S
C495 C494 1.446 . S
C495 C496 1.339 . S
C495 H524 0.949 . S
C496 C495 1.339 . S
C496 C497 1.439 . S
C496 H525 0.950 . S
C497 N493 1.383 . S
C497 C496 1.439 . S
C497 C515 1.392 . S
N498 Co482 2.282 . S
N498 C501 1.332 . S
N498 C503 1.332 . S
C499 C500 1.386 . S
C499 C502 1.388 . S
C500 C499 1.386 . S
C500 C501 1.382 . S
C500 H526 0.950 . S
C501 N498 1.332 . S
C501 C500 1.382 . S
C501 H512 0.952 . S
C502 C499 1.388 . S
C502 C503 1.382 . S
C502 H527 0.950 . S
C503 N498 1.332 . S
C503 C502 1.382 . S
C503 H513 0.948 . S
N504 Co482 2.282 . S
N504 C508 1.332 . S
N504 C509 1.332 . S
C505 C506 1.388 . S
C505 C509 1.382 . S
C505 H528 0.950 . S
C506 C505 1.388 . S
C506 C507 1.386 . S
C507 C506 1.386 . S
C507 C508 1.382 . S
C507 H529 0.950 . S
C508 N504 1.332 . S
C508 C507 1.382 . S
C508 H510 0.952 . S
C509 N504 1.332 . S
C509 C505 1.382 . S
C509 H511 0.948 . S
H510 C508 0.952 . S
H511 C509 0.948 . S
H512 C501 0.952 . S
H513 C503 0.948 . S
C514 C480 1.395 . S
C514 C484 1.391 . S
C515 C477 1.389 . S
C515 C497 1.392 . S
C516 C487 1.392 . S
C516 C489 1.389 . S
C517 C492 1.395 . S
C517 C494 1.391 . S
H518 C478 0.951 . S
H519 C479 0.950 . S
H520 C485 0.949 . S
H521 C486 0.950 . S
H522 C490 0.951 . S
H523 C491 0.950 . S
H524 C495 0.949 . S
H525 C496 0.950 . S
H526 C500 0.950 . S
H527 C502 0.950 . S
H528 C505 0.950 . S
H529 C507 0.950 . S
C530 C531 1.443 . S
C530 N534 1.376 . S
C530 C568 1.389 . S
C531 C530 1.443 . S
C531 C532 1.340 . S
C531 H571 0.951 . S
C532 C531 1.340 . S
C532 C533 1.439 . S
C532 H572 0.950 . S
C533 C532 1.439 . S
C533 N534 1.374 . S
C533 C567 1.395 . S
N534 C530 1.376 . S
N534 C533 1.374 . S
N534 Co535 2.008 . S
Co535 N534 2.008 . S
Co535 N536 1.995 . S
Co535 N541 2.008 . S
Co535 N546 1.995 . S
Co535 N551 2.282 . S
Co535 N557 2.282 . S
N536 Co535 1.995 . S
N536 C537 1.376 . S
N536 C540 1.383 . S
C537 N536 1.376 . S
C537 C538 1.446 . S
C537 C567 1.391 . S
C538 C537 1.446 . S
C538 C539 1.339 . S
C538 H573 0.949 . S
C539 C538 1.339 . S
C539 C540 1.439 . S
C539 H574 0.950 . S
C540 N536 1.383 . S
C540 C539 1.439 . S
C540 C569 1.392 . S
N541 Co535 2.008 . S
N541 C542 1.376 . S
N541 C545 1.374 . S
C542 N541 1.376 . S
C542 C543 1.443 . S
C542 C569 1.389 . S
C543 C542 1.443 . S
C543 C544 1.340 . S
C543 H575 0.951 . S
C544 C543 1.340 . S
C544 C545 1.439 . S
C544 H576 0.950 . S
C545 N541 1.374 . S
C545 C544 1.439 . S
C545 C570 1.395 . S
N546 Co535 1.995 . S
N546 C547 1.376 . S
N546 C550 1.383 . S
C547 N546 1.376 . S
C547 C548 1.446 . S
C547 C570 1.391 . S
C548 C547 1.446 . S
C548 C549 1.339 . S
C548 H577 0.949 . S
C549 C548 1.339 . S
C549 C550 1.439 . S
C549 H578 0.950 . S
C550 N546 1.383 . S
C550 C549 1.439 . S
C550 C568 1.392 . S
N551 Co535 2.282 . S
N551 C554 1.332 . S
N551 C556 1.332 . S
C552 C553 1.386 . S
C552 C555 1.388 . S
C553 C552 1.386 . S
C553 C554 1.382 . S
C553 H579 0.950 . S
C554 N551 1.332 . S
C554 C553 1.382 . S
C554 H565 0.952 . S
C555 C552 1.388 . S
C555 C556 1.382 . S
C555 H580 0.950 . S
C556 N551 1.332 . S
C556 C555 1.382 . S
C556 H566 0.948 . S
N557 Co535 2.282 . S
N557 C561 1.332 . S
N557 C562 1.332 . S
C558 C559 1.388 . S
C558 C562 1.382 . S
C558 H581 0.950 . S
C559 C558 1.388 . S
C559 C560 1.386 . S
C560 C559 1.386 . S
C560 C561 1.382 . S
C560 H582 0.950 . S
C561 N557 1.332 . S
C561 C560 1.382 . S
C561 H563 0.952 . S
C562 N557 1.332 . S
C562 C558 1.382 . S
C562 H564 0.948 . S
H563 C561 0.952 . S
H564 C562 0.948 . S
H565 C554 0.952 . S
H566 C556 0.948 . S
C567 C533 1.395 . S
C567 C537 1.391 . S
C568 C530 1.389 . S
C568 C550 1.392 . S
C569 C540 1.392 . S
C569 C542 1.389 . S
C570 C545 1.395 . S
C570 C547 1.391 . S
H571 C531 0.951 . S
H572 C532 0.950 . S
H573 C538 0.949 . S
H574 C539 0.950 . S
H575 C543 0.951 . S
H576 C544 0.950 . S
H577 C548 0.949 . S
H578 C549 0.950 . S
H579 C553 0.950 . S
H580 C555 0.950 . S
H581 C558 0.950 . S
H582 C560 0.950 . S
C583 C584 1.443 . S
C583 N587 1.376 . S
C583 C621 1.389 . S
C584 C583 1.443 . S
C584 C585 1.340 . S
C584 H624 0.951 . S
C585 C584 1.340 . S
C585 C586 1.439 . S
C585 H625 0.950 . S
C586 C585 1.439 . S
C586 N587 1.374 . S
C586 C620 1.395 . S
N587 C583 1.376 . S
N587 C586 1.374 . S
N587 Co588 2.008 . S
Co588 N587 2.008 . S
Co588 N589 1.995 . S
Co588 N594 2.008 . S
Co588 N599 1.995 . S
Co588 N604 2.282 . S
Co588 N610 2.282 . S
N589 Co588 1.995 . S
N589 C590 1.376 . S
N589 C593 1.383 . S
C590 N589 1.376 . S
C590 C591 1.446 . S
C590 C620 1.391 . S
C591 C590 1.446 . S
C591 C592 1.339 . S
C591 H626 0.949 . S
C592 C591 1.339 . S
C592 C593 1.439 . S
C592 H627 0.950 . S
C593 N589 1.383 . S
C593 C592 1.439 . S
C593 C622 1.392 . S
N594 Co588 2.008 . S
N594 C595 1.376 . S
N594 C598 1.374 . S
C595 N594 1.376 . S
C595 C596 1.443 . S
C595 C622 1.389 . S
C596 C595 1.443 . S
C596 C597 1.340 . S
C596 H628 0.951 . S
C597 C596 1.340 . S
C597 C598 1.439 . S
C597 H629 0.950 . S
C598 N594 1.374 . S
C598 C597 1.439 . S
C598 C623 1.395 . S
N599 Co588 1.995 . S
N599 C600 1.376 . S
N599 C603 1.383 . S
C600 N599 1.376 . S
C600 C601 1.446 . S
C600 C623 1.391 . S
C601 C600 1.446 . S
C601 C602 1.339 . S
C601 H630 0.949 . S
C602 C601 1.339 . S
C602 C603 1.439 . S
C602 H631 0.950 . S
C603 N599 1.383 . S
C603 C602 1.439 . S
C603 C621 1.392 . S
N604 Co588 2.282 . S
N604 C607 1.332 . S
N604 C609 1.332 . S
C605 C606 1.386 . S
C605 C608 1.388 . S
C606 C605 1.386 . S
C606 C607 1.382 . S
C606 H632 0.950 . S
C607 N604 1.332 . S
C607 C606 1.382 . S
C607 H618 0.952 . S
C608 C605 1.388 . S
C608 C609 1.382 . S
C608 H633 0.950 . S
C609 N604 1.332 . S
C609 C608 1.382 . S
C609 H619 0.948 . S
N610 Co588 2.282 . S
N610 C614 1.332 . S
N610 C615 1.332 . S
C611 C612 1.388 . S
C611 C615 1.382 . S
C611 H634 0.950 . S
C612 C611 1.388 . S
C612 C613 1.386 . S
C613 C612 1.386 . S
C613 C614 1.382 . S
C613 H635 0.950 . S
C614 N610 1.332 . S
C614 C613 1.382 . S
C614 H616 0.952 . S
C615 N610 1.332 . S
C615 C611 1.382 . S
C615 H617 0.948 . S
H616 C614 0.952 . S
H617 C615 0.948 . S
H618 C607 0.952 . S
H619 C609 0.948 . S
C620 C586 1.395 . S
C620 C590 1.391 . S
C621 C583 1.389 . S
C621 C603 1.392 . S
C622 C593 1.392 . S
C622 C595 1.389 . S
C623 C598 1.395 . S
C623 C600 1.391 . S
H624 C584 0.951 . S
H625 C585 0.950 . S
H626 C591 0.949 . S
H627 C592 0.950 . S
H628 C596 0.951 . S
H629 C597 0.950 . S
H630 C601 0.949 . S
H631 C602 0.950 . S
H632 C606 0.950 . S
H633 C608 0.950 . S
H634 C611 0.950 . S
H635 C613 0.950 . S
C636 C637 1.443 . S
C636 N640 1.376 . S
C636 C674 1.389 . S
C637 C636 1.443 . S
C637 C638 1.340 . S
C637 H677 0.951 . S
C638 C637 1.340 . S
C638 C639 1.439 . S
C638 H678 0.950 . S
C639 C638 1.439 . S
C639 N640 1.374 . S
C639 C673 1.395 . S
N640 C636 1.376 . S
N640 C639 1.374 . S
N640 Co641 2.008 . S
Co641 N640 2.008 . S
Co641 N642 1.995 . S
Co641 N647 2.008 . S
Co641 N652 1.995 . S
Co641 N657 2.282 . S
Co641 N663 2.282 . S
N642 Co641 1.995 . S
N642 C643 1.376 . S
N642 C646 1.383 . S
C643 N642 1.376 . S
C643 C644 1.446 . S
C643 C673 1.391 . S
C644 C643 1.446 . S
C644 C645 1.339 . S
C644 H679 0.949 . S
C645 C644 1.339 . S
C645 C646 1.439 . S
C645 H680 0.950 . S
C646 N642 1.383 . S
C646 C645 1.439 . S
C646 C675 1.392 . S
N647 Co641 2.008 . S
N647 C648 1.376 . S
N647 C651 1.374 . S
C648 N647 1.376 . S
C648 C649 1.443 . S
C648 C675 1.389 . S
C649 C648 1.443 . S
C649 C650 1.340 . S
C649 H681 0.951 . S
C650 C649 1.340 . S
C650 C651 1.439 . S
C650 H682 0.950 . S
C651 N647 1.374 . S
C651 C650 1.439 . S
C651 C676 1.395 . S
N652 Co641 1.995 . S
N652 C653 1.376 . S
N652 C656 1.383 . S
C653 N652 1.376 . S
C653 C654 1.446 . S
C653 C676 1.391 . S
C654 C653 1.446 . S
C654 C655 1.339 . S
C654 H683 0.949 . S
C655 C654 1.339 . S
C655 C656 1.439 . S
C655 H684 0.950 . S
C656 N652 1.383 . S
C656 C655 1.439 . S
C656 C674 1.392 . S
N657 Co641 2.282 . S
N657 C660 1.332 . S
N657 C662 1.332 . S
C658 C659 1.386 . S
C658 C661 1.388 . S
C659 C658 1.386 . S
C659 C660 1.382 . S
C659 H685 0.950 . S
C660 N657 1.332 . S
C660 C659 1.382 . S
C660 H671 0.952 . S
C661 C658 1.388 . S
C661 C662 1.382 . S
C661 H686 0.950 . S
C662 N657 1.332 . S
C662 C661 1.382 . S
C662 H672 0.948 . S
N663 Co641 2.282 . S
N663 C667 1.332 . S
N663 C668 1.332 . S
C664 C665 1.388 . S
C664 C668 1.382 . S
C664 H687 0.950 . S
C665 C664 1.388 . S
C665 C666 1.386 . S
C666 C665 1.386 . S
C666 C667 1.382 . S
C666 H688 0.950 . S
C667 N663 1.332 . S
C667 C666 1.382 . S
C667 H669 0.952 . S
C668 N663 1.332 . S
C668 C664 1.382 . S
C668 H670 0.948 . S
H669 C667 0.952 . S
H670 C668 0.948 . S
H671 C660 0.952 . S
H672 C662 0.948 . S
C673 C639 1.395 . S
C673 C643 1.391 . S
C674 C636 1.389 . S
C674 C656 1.392 . S
C675 C646 1.392 . S
C675 C648 1.389 . S
C676 C651 1.395 . S
C676 C653 1.391 . S
H677 C637 0.951 . S
H678 C638 0.950 . S
H679 C644 0.949 . S
H680 C645 0.950 . S
H681 C649 0.951 . S
H682 C650 0.950 . S
H683 C654 0.949 . S
H684 C655 0.950 . S
H685 C659 0.950 . S
H686 C661 0.950 . S
H687 C664 0.950 . S
H688 C666 0.950 . S
C689 C690 1.443 . S
C689 N693 1.376 . S
C689 C727 1.389 . S
C690 C689 1.443 . S
C690 C691 1.340 . S
C690 H730 0.951 . S
C691 C690 1.340 . S
C691 C692 1.439 . S
C691 H731 0.950 . S
C692 C691 1.439 . S
C692 N693 1.374 . S
C692 C726 1.395 . S
N693 C689 1.376 . S
N693 C692 1.374 . S
N693 Co694 2.008 . S
Co694 N693 2.008 . S
Co694 N695 1.995 . S
Co694 N700 2.008 . S
Co694 N705 1.995 . S
Co694 N710 2.282 . S
Co694 N716 2.282 . S
N695 Co694 1.995 . S
N695 C696 1.376 . S
N695 C699 1.383 . S
C696 N695 1.376 . S
C696 C697 1.446 . S
C696 C726 1.391 . S
C697 C696 1.446 . S
C697 C698 1.339 . S
C697 H732 0.949 . S
C698 C697 1.339 . S
C698 C699 1.439 . S
C698 H733 0.950 . S
C699 N695 1.383 . S
C699 C698 1.439 . S
C699 C728 1.392 . S
N700 Co694 2.008 . S
N700 C701 1.376 . S
N700 C704 1.374 . S
C701 N700 1.376 . S
C701 C702 1.443 . S
C701 C728 1.389 . S
C702 C701 1.443 . S
C702 C703 1.340 . S
C702 H734 0.951 . S
C703 C702 1.340 . S
C703 C704 1.439 . S
C703 H735 0.950 . S
C704 N700 1.374 . S
C704 C703 1.439 . S
C704 C729 1.395 . S
N705 Co694 1.995 . S
N705 C706 1.376 . S
N705 C709 1.383 . S
C706 N705 1.376 . S
C706 C707 1.446 . S
C706 C729 1.391 . S
C707 C706 1.446 . S
C707 C708 1.339 . S
C707 H736 0.949 . S
C708 C707 1.339 . S
C708 C709 1.439 . S
C708 H737 0.950 . S
C709 N705 1.383 . S
C709 C708 1.439 . S
C709 C727 1.392 . S
N710 Co694 2.282 . S
N710 C713 1.332 . S
N710 C715 1.332 . S
C711 C712 1.386 . S
C711 C714 1.388 . S
C712 C711 1.386 . S
C712 C713 1.382 . S
C712 H738 0.950 . S
C713 N710 1.332 . S
C713 C712 1.382 . S
C713 H724 0.952 . S
C714 C711 1.388 . S
C714 C715 1.382 . S
C714 H739 0.950 . S
C715 N710 1.332 . S
C715 C714 1.382 . S
C715 H725 0.948 . S
N716 Co694 2.282 . S
N716 C720 1.332 . S
N716 C721 1.332 . S
C717 C718 1.388 . S
C717 C721 1.382 . S
C717 H740 0.950 . S
C718 C717 1.388 . S
C718 C719 1.386 . S
C719 C718 1.386 . S
C719 C720 1.382 . S
C719 H741 0.950 . S
C720 N716 1.332 . S
C720 C719 1.382 . S
C720 H722 0.952 . S
C721 N716 1.332 . S
C721 C717 1.382 . S
C721 H723 0.948 . S
H722 C720 0.952 . S
H723 C721 0.948 . S
H724 C713 0.952 . S
H725 C715 0.948 . S
C726 C692 1.395 . S
C726 C696 1.391 . S
C727 C689 1.389 . S
C727 C709 1.392 . S
C728 C699 1.392 . S
C728 C701 1.389 . S
C729 C704 1.395 . S
C729 C706 1.391 . S
H730 C690 0.951 . S
H731 C691 0.950 . S
H732 C697 0.949 . S
H733 C698 0.950 . S
H734 C702 0.951 . S
H735 C703 0.950 . S
H736 C707 0.949 . S
H737 C708 0.950 . S
H738 C712 0.950 . S
H739 C714 0.950 . S
H740 C717 0.950 . S
H741 C719 0.950 . S
C742 C743 1.443 . S
C742 N746 1.376 . S
C742 C780 1.389 . S
C743 C742 1.443 . S
C743 C744 1.340 . S
C743 H783 0.951 . S
C744 C743 1.340 . S
C744 C745 1.439 . S
C744 H784 0.950 . S
C745 C744 1.439 . S
C745 N746 1.374 . S
C745 C779 1.395 . S
N746 C742 1.376 . S
N746 C745 1.374 . S
N746 Co747 2.008 . S
Co747 N746 2.008 . S
Co747 N748 1.995 . S
Co747 N753 2.008 . S
Co747 N758 1.995 . S
Co747 N763 2.282 . S
Co747 N769 2.282 . S
N748 Co747 1.995 . S
N748 C749 1.376 . S
N748 C752 1.383 . S
C749 N748 1.376 . S
C749 C750 1.446 . S
C749 C779 1.391 . S
C750 C749 1.446 . S
C750 C751 1.339 . S
C750 H785 0.949 . S
C751 C750 1.339 . S
C751 C752 1.439 . S
C751 H786 0.950 . S
C752 N748 1.383 . S
C752 C751 1.439 . S
C752 C781 1.392 . S
N753 Co747 2.008 . S
N753 C754 1.376 . S
N753 C757 1.374 . S
C754 N753 1.376 . S
C754 C755 1.443 . S
C754 C781 1.389 . S
C755 C754 1.443 . S
C755 C756 1.340 . S
C755 H787 0.951 . S
C756 C755 1.340 . S
C756 C757 1.439 . S
C756 H788 0.950 . S
C757 N753 1.374 . S
C757 C756 1.439 . S
C757 C782 1.395 . S
N758 Co747 1.995 . S
N758 C759 1.376 . S
N758 C762 1.383 . S
C759 N758 1.376 . S
C759 C760 1.446 . S
C759 C782 1.391 . S
C760 C759 1.446 . S
C760 C761 1.339 . S
C760 H789 0.949 . S
C761 C760 1.339 . S
C761 C762 1.439 . S
C761 H790 0.950 . S
C762 N758 1.383 . S
C762 C761 1.439 . S
C762 C780 1.392 . S
N763 Co747 2.282 . S
N763 C766 1.332 . S
N763 C768 1.332 . S
C764 C765 1.386 . S
C764 C767 1.388 . S
C765 C764 1.386 . S
C765 C766 1.382 . S
C765 H791 0.950 . S
C766 N763 1.332 . S
C766 C765 1.382 . S
C766 H777 0.952 . S
C767 C764 1.388 . S
C767 C768 1.382 . S
C767 H792 0.950 . S
C768 N763 1.332 . S
C768 C767 1.382 . S
C768 H778 0.948 . S
N769 Co747 2.282 . S
N769 C773 1.332 . S
N769 C774 1.332 . S
C770 C771 1.388 . S
C770 C774 1.382 . S
C770 H793 0.950 . S
C771 C770 1.388 . S
C771 C772 1.386 . S
C772 C771 1.386 . S
C772 C773 1.382 . S
C772 H794 0.950 . S
C773 N769 1.332 . S
C773 C772 1.382 . S
C773 H775 0.952 . S
C774 N769 1.332 . S
C774 C770 1.382 . S
C774 H776 0.948 . S
H775 C773 0.952 . S
H776 C774 0.948 . S
H777 C766 0.952 . S
H778 C768 0.948 . S
C779 C745 1.395 . S
C779 C749 1.391 . S
C780 C742 1.389 . S
C780 C762 1.392 . S
C781 C752 1.392 . S
C781 C754 1.389 . S
C782 C757 1.395 . S
C782 C759 1.391 . S
H783 C743 0.951 . S
H784 C744 0.950 . S
H785 C750 0.949 . S
H786 C751 0.950 . S
H787 C755 0.951 . S
H788 C756 0.950 . S
H789 C760 0.949 . S
H790 C761 0.950 . S
H791 C765 0.950 . S
H792 C767 0.950 . S
H793 C770 0.950 . S
H794 C772 0.950 . S
C795 C796 1.443 . S
C795 N799 1.376 . S
C795 C833 1.389 . S
C796 C795 1.443 . S
C796 C797 1.340 . S
C796 H836 0.951 . S
C797 C796 1.340 . S
C797 C798 1.439 . S
C797 H837 0.950 . S
C798 C797 1.439 . S
C798 N799 1.374 . S
C798 C832 1.395 . S
N799 C795 1.376 . S
N799 C798 1.374 . S
N799 Co800 2.008 . S
Co800 N799 2.008 . S
Co800 N801 1.995 . S
Co800 N806 2.008 . S
Co800 N811 1.995 . S
Co800 N816 2.282 . S
Co800 N822 2.282 . S
N801 Co800 1.995 . S
N801 C802 1.376 . S
N801 C805 1.383 . S
C802 N801 1.376 . S
C802 C803 1.446 . S
C802 C832 1.391 . S
C803 C802 1.446 . S
C803 C804 1.339 . S
C803 H838 0.949 . S
C804 C803 1.339 . S
C804 C805 1.439 . S
C804 H839 0.950 . S
C805 N801 1.383 . S
C805 C804 1.439 . S
C805 C834 1.392 . S
N806 Co800 2.008 . S
N806 C807 1.376 . S
N806 C810 1.374 . S
C807 N806 1.376 . S
C807 C808 1.443 . S
C807 C834 1.389 . S
C808 C807 1.443 . S
C808 C809 1.340 . S
C808 H840 0.951 . S
C809 C808 1.340 . S
C809 C810 1.439 . S
C809 H841 0.950 . S
C810 N806 1.374 . S
C810 C809 1.439 . S
C810 C835 1.395 . S
N811 Co800 1.995 . S
N811 C812 1.376 . S
N811 C815 1.383 . S
C812 N811 1.376 . S
C812 C813 1.446 . S
C812 C835 1.391 . S
C813 C812 1.446 . S
C813 C814 1.339 . S
C813 H842 0.949 . S
C814 C813 1.339 . S
C814 C815 1.439 . S
C814 H843 0.950 . S
C815 N811 1.383 . S
C815 C814 1.439 . S
C815 C833 1.392 . S
N816 Co800 2.282 . S
N816 C819 1.332 . S
N816 C821 1.332 . S
C817 C818 1.386 . S
C817 C820 1.388 . S
C818 C817 1.386 . S
C818 C819 1.382 . S
C818 H844 0.950 . S
C819 N816 1.332 . S
C819 C818 1.382 . S
C819 H830 0.952 . S
C820 C817 1.388 . S
C820 C821 1.382 . S
C820 H845 0.950 . S
C821 N816 1.332 . S
C821 C820 1.382 . S
C821 H831 0.948 . S
N822 Co800 2.282 . S
N822 C826 1.332 . S
N822 C827 1.332 . S
C823 C824 1.388 . S
C823 C827 1.382 . S
C823 H846 0.950 . S
C824 C823 1.388 . S
C824 C825 1.386 . S
C825 C824 1.386 . S
C825 C826 1.382 . S
C825 H847 0.950 . S
C826 N822 1.332 . S
C826 C825 1.382 . S
C826 H828 0.952 . S
C827 N822 1.332 . S
C827 C823 1.382 . S
C827 H829 0.948 . S
H828 C826 0.952 . S
H829 C827 0.948 . S
H830 C819 0.952 . S
H831 C821 0.948 . S
C832 C798 1.395 . S
C832 C802 1.391 . S
C833 C795 1.389 . S
C833 C815 1.392 . S
C834 C805 1.392 . S
C834 C807 1.389 . S
C835 C810 1.395 . S
C835 C812 1.391 . S
H836 C796 0.951 . S
H837 C797 0.950 . S
H838 C803 0.949 . S
H839 C804 0.950 . S
H840 C808 0.951 . S
H841 C809 0.950 . S
H842 C813 0.949 . S
H843 C814 0.950 . S
H844 C818 0.950 . S
H845 C820 0.950 . S
H846 C823 0.950 . S
H847 C825 0.950 . S
C848 C849 1.443 . S
C848 N852 1.376 . S
C848 C886 1.389 . S
C849 C848 1.443 . S
C849 C850 1.340 . S
C849 H889 0.951 . S
C850 C849 1.340 . S
C850 C851 1.439 . S
C850 H890 0.950 . S
C851 C850 1.439 . S
C851 N852 1.374 . S
C851 C885 1.395 . S
N852 C848 1.376 . S
N852 C851 1.374 . S
N852 Co853 2.008 . S
Co853 N852 2.008 . S
Co853 N854 1.995 . S
Co853 N859 2.008 . S
Co853 N864 1.995 . S
Co853 N869 2.282 . S
Co853 N875 2.282 . S
N854 Co853 1.995 . S
N854 C855 1.376 . S
N854 C858 1.383 . S
C855 N854 1.376 . S
C855 C856 1.446 . S
C855 C885 1.391 . S
C856 C855 1.446 . S
C856 C857 1.339 . S
C856 H891 0.949 . S
C857 C856 1.339 . S
C857 C858 1.439 . S
C857 H892 0.950 . S
C858 N854 1.383 . S
C858 C857 1.439 . S
C858 C887 1.392 . S
N859 Co853 2.008 . S
N859 C860 1.376 . S
N859 C863 1.374 . S
C860 N859 1.376 . S
C860 C861 1.443 . S
C860 C887 1.389 . S
C861 C860 1.443 . S
C861 C862 1.340 . S
C861 H893 0.951 . S
C862 C861 1.340 . S
C862 C863 1.439 . S
C862 H894 0.950 . S
C863 N859 1.374 . S
C863 C862 1.439 . S
C863 C888 1.395 . S
N864 Co853 1.995 . S
N864 C865 1.376 . S
N864 C868 1.383 . S
C865 N864 1.376 . S
C865 C866 1.446 . S
C865 C888 1.391 . S
C866 C865 1.446 . S
C866 C867 1.339 . S
C866 H895 0.949 . S
C867 C866 1.339 . S
C867 C868 1.439 . S
C867 H896 0.950 . S
C868 N864 1.383 . S
C868 C867 1.439 . S
C868 C886 1.392 . S
N869 Co853 2.282 . S
N869 C872 1.332 . S
N869 C874 1.332 . S
C870 C871 1.386 . S
C870 C873 1.388 . S
C871 C870 1.386 . S
C871 C872 1.382 . S
C871 H897 0.950 . S
C872 N869 1.332 . S
C872 C871 1.382 . S
C872 H883 0.952 . S
C873 C870 1.388 . S
C873 C874 1.382 . S
C873 H898 0.950 . S
C874 N869 1.332 . S
C874 C873 1.382 . S
C874 H884 0.948 . S
N875 Co853 2.282 . S
N875 C879 1.332 . S
N875 C880 1.332 . S
C876 C877 1.388 . S
C876 C880 1.382 . S
C876 H899 0.950 . S
C877 C876 1.388 . S
C877 C878 1.386 . S
C878 C877 1.386 . S
C878 C879 1.382 . S
C878 H900 0.950 . S
C879 N875 1.332 . S
C879 C878 1.382 . S
C879 H881 0.952 . S
C880 N875 1.332 . S
C880 C876 1.382 . S
C880 H882 0.948 . S
H881 C879 0.952 . S
H882 C880 0.948 . S
H883 C872 0.952 . S
H884 C874 0.948 . S
C885 C851 1.395 . S
C885 C855 1.391 . S
C886 C848 1.389 . S
C886 C868 1.392 . S
C887 C858 1.392 . S
C887 C860 1.389 . S
C888 C863 1.395 . S
C888 C865 1.391 . S
H889 C849 0.951 . S
H890 C850 0.950 . S
H891 C856 0.949 . S
H892 C857 0.950 . S
H893 C861 0.951 . S
H894 C862 0.950 . S
H895 C866 0.949 . S
H896 C867 0.950 . S
H897 C871 0.950 . S
H898 C873 0.950 . S
H899 C876 0.950 . S
H900 C878 0.950 . S
C901 C902 1.443 . S
C901 N905 1.376 . S
C901 C939 1.389 . S
C902 C901 1.443 . S
C902 C903 1.340 . S
C902 H942 0.951 . S
C903 C902 1.340 . S
C903 C904 1.439 . S
C903 H943 0.950 . S
C904 C903 1.439 . S
C904 N905 1.374 . S
C904 C938 1.395 . S
N905 C901 1.376 . S
N905 C904 1.374 . S
N905 Co906 2.008 . S
Co906 N905 2.008 . S
Co906 N907 1.995 . S
Co906 N912 2.008 . S
Co906 N917 1.995 . S
Co906 N922 2.282 . S
Co906 N928 2.282 . S
N907 Co906 1.995 . S
N907 C908 1.376 . S
N907 C911 1.383 . S
C908 N907 1.376 . S
C908 C909 1.446 . S
C908 C938 1.391 . S
C909 C908 1.446 . S
C909 C910 1.339 . S
C909 H944 0.949 . S
C910 C909 1.339 . S
C910 C911 1.439 . S
C910 H945 0.950 . S
C911 N907 1.383 . S
C911 C910 1.439 . S
C911 C940 1.392 . S
N912 Co906 2.008 . S
N912 C913 1.376 . S
N912 C916 1.374 . S
C913 N912 1.376 . S
C913 C914 1.443 . S
C913 C940 1.389 . S
C914 C913 1.443 . S
C914 C915 1.340 . S
C914 H946 0.951 . S
C915 C914 1.340 . S
C915 C916 1.439 . S
C915 H947 0.950 . S
C916 N912 1.374 . S
C916 C915 1.439 . S
C916 C941 1.395 . S
N917 Co906 1.995 . S
N917 C918 1.376 . S
N917 C921 1.383 . S
C918 N917 1.376 . S
C918 C919 1.446 . S
C918 C941 1.391 . S
C919 C918 1.446 . S
C919 C920 1.339 . S
C919 H948 0.949 . S
C920 C919 1.339 . S
C920 C921 1.439 . S
C920 H949 0.950 . S
C921 N917 1.383 . S
C921 C920 1.439 . S
C921 C939 1.392 . S
N922 Co906 2.282 . S
N922 C925 1.332 . S
N922 C927 1.332 . S
C923 C924 1.386 . S
C923 C926 1.388 . S
C924 C923 1.386 . S
C924 C925 1.382 . S
C924 H950 0.950 . S
C925 N922 1.332 . S
C925 C924 1.382 . S
C925 H936 0.952 . S
C926 C923 1.388 . S
C926 C927 1.382 . S
C926 H951 0.950 . S
C927 N922 1.332 . S
C927 C926 1.382 . S
C927 H937 0.948 . S
N928 Co906 2.282 . S
N928 C932 1.332 . S
N928 C933 1.332 . S
C929 C930 1.388 . S
C929 C933 1.382 . S
C929 H952 0.950 . S
C930 C929 1.388 . S
C930 C931 1.386 . S
C931 C930 1.386 . S
C931 C932 1.382 . S
C931 H953 0.950 . S
C932 N928 1.332 . S
C932 C931 1.382 . S
C932 H934 0.952 . S
C933 N928 1.332 . S
C933 C929 1.382 . S
C933 H935 0.948 . S
H934 C932 0.952 . S
H935 C933 0.948 . S
H936 C925 0.952 . S
H937 C927 0.948 . S
C938 C904 1.395 . S
C938 C908 1.391 . S
C939 C901 1.389 . S
C939 C921 1.392 . S
C940 C911 1.392 . S
C940 C913 1.389 . S
C941 C916 1.395 . S
C941 C918 1.391 . S
H942 C902 0.951 . S
H943 C903 0.950 . S
H944 C909 0.949 . S
H945 C910 0.950 . S
H946 C914 0.951 . S
H947 C915 0.950 . S
H948 C919 0.949 . S
H949 C920 0.950 . S
H950 C924 0.950 . S
H951 C926 0.950 . S
H952 C929 0.950 . S
H953 C931 0.950 . S
C954 C955 1.443 . S
C954 N958 1.376 . S
C954 C992 1.389 . S
C955 C954 1.443 . S
C955 C956 1.340 . S
C955 H995 0.951 . S
C956 C955 1.340 . S
C956 C957 1.439 . S
C956 H996 0.950 . S
C957 C956 1.439 . S
C957 N958 1.374 . S
C957 C991 1.395 . S
N958 C954 1.376 . S
N958 C957 1.374 . S
N958 Co959 2.008 . S
Co959 N958 2.008 . S
Co959 N960 1.995 . S
Co959 N965 2.008 . S
Co959 N970 1.995 . S
Co959 N975 2.282 . S
Co959 N981 2.282 . S
N960 Co959 1.995 . S
N960 C961 1.376 . S
N960 C964 1.383 . S
C961 N960 1.376 . S
C961 C962 1.446 . S
C961 C991 1.391 . S
C962 C961 1.446 . S
C962 C963 1.339 . S
C962 H997 0.949 . S
C963 C962 1.339 . S
C963 C964 1.439 . S
C963 H998 0.950 . S
C964 N960 1.383 . S
C964 C963 1.439 . S
C964 C993 1.392 . S
N965 Co959 2.008 . S
N965 C966 1.376 . S
N965 C969 1.374 . S
C966 N965 1.376 . S
C966 C967 1.443 . S
C966 C993 1.389 . S
C967 C966 1.443 . S
C967 C968 1.340 . S
C967 H999 0.951 . S
C968 C967 1.340 . S
C968 C969 1.439 . S
C968 H1000 0.950 . S
C969 N965 1.374 . S
C969 C968 1.439 . S
C969 C994 1.395 . S
N970 Co959 1.995 . S
N970 C971 1.376 . S
N970 C974 1.383 . S
C971 N970 1.376 . S
C971 C972 1.446 . S
C971 C994 1.391 . S
C972 C971 1.446 . S
C972 C973 1.339 . S
C972 H1001 0.949 . S
C973 C972 1.339 . S
C973 C974 1.439 . S
C973 H1002 0.950 . S
C974 N970 1.383 . S
C974 C973 1.439 . S
C974 C992 1.392 . S
N975 Co959 2.282 . S
N975 C978 1.332 . S
N975 C980 1.332 . S
C976 C977 1.386 . S
C976 C979 1.388 . S
C977 C976 1.386 . S
C977 C978 1.382 . S
C977 H1003 0.950 . S
C978 N975 1.332 . S
C978 C977 1.382 . S
C978 H989 0.952 . S
C979 C976 1.388 . S
C979 C980 1.382 . S
C979 H1004 0.950 . S
C980 N975 1.332 . S
C980 C979 1.382 . S
C980 H990 0.948 . S
N981 Co959 2.282 . S
N981 C985 1.332 . S
N981 C986 1.332 . S
C982 C983 1.388 . S
C982 C986 1.382 . S
C982 H1005 0.950 . S
C983 C982 1.388 . S
C983 C984 1.386 . S
C984 C983 1.386 . S
C984 C985 1.382 . S
C984 H1006 0.950 . S
C985 N981 1.332 . S
C985 C984 1.382 . S
C985 H987 0.952 . S
C986 N981 1.332 . S
C986 C982 1.382 . S
C986 H988 0.948 . S
H987 C985 0.952 . S
H988 C986 0.948 . S
H989 C978 0.952 . S
H990 C980 0.948 . S
C991 C957 1.395 . S
C991 C961 1.391 . S
C992 C954 1.389 . S
C992 C974 1.392 . S
C993 C964 1.392 . S
C993 C966 1.389 . S
C994 C969 1.395 . S
C994 C971 1.391 . S
H995 C955 0.951 . S
H996 C956 0.950 . S
H997 C962 0.949 . S
H998 C963 0.950 . S
H999 C967 0.951 . S
H1000 C968 0.950 . S
H1001 C972 0.949 . S
H1002 C973 0.950 . S
H1003 C977 0.950 . S
H1004 C979 0.950 . S
H1005 C982 0.950 . S
H1006 C984 0.950 . S
C1007 C1008 1.443 . S
C1007 N1011 1.376 . S
C1007 C1045 1.389 . S
C1008 C1007 1.443 . S
C1008 C1009 1.340 . S
C1008 H1048 0.951 . S
C1009 C1008 1.340 . S
C1009 C1010 1.439 . S
C1009 H1049 0.950 . S
C1010 C1009 1.439 . S
C1010 N1011 1.374 . S
C1010 C1044 1.395 . S
N1011 C1007 1.376 . S
N1011 C1010 1.374 . S
N1011 Co1012 2.008 . S
Co1012 N1011 2.008 . S
Co1012 N1013 1.995 . S
Co1012 N1018 2.008 . S
Co1012 N1023 1.995 . S
Co1012 N1028 2.282 . S
Co1012 N1034 2.282 . S
N1013 Co1012 1.995 . S
N1013 C1014 1.376 . S
N1013 C1017 1.383 . S
C1014 N1013 1.376 . S
C1014 C1015 1.446 . S
C1014 C1044 1.391 . S
C1015 C1014 1.446 . S
C1015 C1016 1.339 . S
C1015 H1050 0.949 . S
C1016 C1015 1.339 . S
C1016 C1017 1.439 . S
C1016 H1051 0.950 . S
C1017 N1013 1.383 . S
C1017 C1016 1.439 . S
C1017 C1046 1.392 . S
N1018 Co1012 2.008 . S
N1018 C1019 1.376 . S
N1018 C1022 1.374 . S
C1019 N1018 1.376 . S
C1019 C1020 1.443 . S
C1019 C1046 1.389 . S
C1020 C1019 1.443 . S
C1020 C1021 1.340 . S
C1020 H1052 0.951 . S
C1021 C1020 1.340 . S
C1021 C1022 1.439 . S
C1021 H1053 0.950 . S
C1022 N1018 1.374 . S
C1022 C1021 1.439 . S
C1022 C1047 1.395 . S
N1023 Co1012 1.995 . S
N1023 C1024 1.376 . S
N1023 C1027 1.383 . S
C1024 N1023 1.376 . S
C1024 C1025 1.446 . S
C1024 C1047 1.391 . S
C1025 C1024 1.446 . S
C1025 C1026 1.339 . S
C1025 H1054 0.949 . S
C1026 C1025 1.339 . S
C1026 C1027 1.439 . S
C1026 H1055 0.950 . S
C1027 N1023 1.383 . S
C1027 C1026 1.439 . S
C1027 C1045 1.392 . S
N1028 Co1012 2.282 . S
N1028 C1031 1.332 . S
N1028 C1033 1.332 . S
C1029 C1030 1.386 . S
C1029 C1032 1.388 . S
C1030 C1029 1.386 . S
C1030 C1031 1.382 . S
C1030 H1056 0.950 . S
C1031 N1028 1.332 . S
C1031 C1030 1.382 . S
C1031 H1042 0.952 . S
C1032 C1029 1.388 . S
C1032 C1033 1.382 . S
C1032 H1057 0.950 . S
C1033 N1028 1.332 . S
C1033 C1032 1.382 . S
C1033 H1043 0.948 . S
N1034 Co1012 2.282 . S
N1034 C1038 1.332 . S
N1034 C1039 1.332 . S
C1035 C1036 1.388 . S
C1035 C1039 1.382 . S
C1035 H1058 0.950 . S
C1036 C1035 1.388 . S
C1036 C1037 1.386 . S
C1037 C1036 1.386 . S
C1037 C1038 1.382 . S
C1037 H1059 0.950 . S
C1038 N1034 1.332 . S
C1038 C1037 1.382 . S
C1038 H1040 0.952 . S
C1039 N1034 1.332 . S
C1039 C1035 1.382 . S
C1039 H1041 0.948 . S
H1040 C1038 0.952 . S
H1041 C1039 0.948 . S
H1042 C1031 0.952 . S
H1043 C1033 0.948 . S
C1044 C1010 1.395 . S
C1044 C1014 1.391 . S
C1045 C1007 1.389 . S
C1045 C1027 1.392 . S
C1046 C1017 1.392 . S
C1046 C1019 1.389 . S
C1047 C1022 1.395 . S
C1047 C1024 1.391 . S
H1048 C1008 0.951 . S
H1049 C1009 0.950 . S
H1050 C1015 0.949 . S
H1051 C1016 0.950 . S
H1052 C1020 0.951 . S
H1053 C1021 0.950 . S
H1054 C1025 0.949 . S
H1055 C1026 0.950 . S
H1056 C1030 0.950 . S
H1057 C1032 0.950 . S
H1058 C1035 0.950 . S
H1059 C1037 0.950 . S
C1060 C1061 1.443 . S
C1060 N1064 1.376 . S
C1060 C1098 1.389 . S
C1061 C1060 1.443 . S
C1061 C1062 1.340 . S
C1061 H1101 0.951 . S
C1062 C1061 1.340 . S
C1062 C1063 1.439 . S
C1062 H1102 0.950 . S
C1063 C1062 1.439 . S
C1063 N1064 1.374 . S
C1063 C1097 1.395 . S
N1064 C1060 1.376 . S
N1064 C1063 1.374 . S
N1064 Co1065 2.008 . S
Co1065 N1064 2.008 . S
Co1065 N1066 1.995 . S
Co1065 N1071 2.008 . S
Co1065 N1076 1.995 . S
Co1065 N1081 2.282 . S
Co1065 N1087 2.282 . S
N1066 Co1065 1.995 . S
N1066 C1067 1.376 . S
N1066 C1070 1.383 . S
C1067 N1066 1.376 . S
C1067 C1068 1.446 . S
C1067 C1097 1.391 . S
C1068 C1067 1.446 . S
C1068 C1069 1.339 . S
C1068 H1103 0.949 . S
C1069 C1068 1.339 . S
C1069 C1070 1.439 . S
C1069 H1104 0.950 . S
C1070 N1066 1.383 . S
C1070 C1069 1.439 . S
C1070 C1099 1.392 . S
N1071 Co1065 2.008 . S
N1071 C1072 1.376 . S
N1071 C1075 1.374 . S
C1072 N1071 1.376 . S
C1072 C1073 1.443 . S
C1072 C1099 1.389 . S
C1073 C1072 1.443 . S
C1073 C1074 1.340 . S
C1073 H1105 0.951 . S
C1074 C1073 1.340 . S
C1074 C1075 1.439 . S
C1074 H1106 0.950 . S
C1075 N1071 1.374 . S
C1075 C1074 1.439 . S
C1075 C1100 1.395 . S
N1076 Co1065 1.995 . S
N1076 C1077 1.376 . S
N1076 C1080 1.383 . S
C1077 N1076 1.376 . S
C1077 C1078 1.446 . S
C1077 C1100 1.391 . S
C1078 C1077 1.446 . S
C1078 C1079 1.339 . S
C1078 H1107 0.949 . S
C1079 C1078 1.339 . S
C1079 C1080 1.439 . S
C1079 H1108 0.950 . S
C1080 N1076 1.383 . S
C1080 C1079 1.439 . S
C1080 C1098 1.392 . S
N1081 Co1065 2.282 . S
N1081 C1084 1.332 . S
N1081 C1086 1.332 . S
C1082 C1083 1.386 . S
C1082 C1085 1.388 . S
C1083 C1082 1.386 . S
C1083 C1084 1.382 . S
C1083 H1109 0.950 . S
C1084 N1081 1.332 . S
C1084 C1083 1.382 . S
C1084 H1095 0.952 . S
C1085 C1082 1.388 . S
C1085 C1086 1.382 . S
C1085 H1110 0.950 . S
C1086 N1081 1.332 . S
C1086 C1085 1.382 . S
C1086 H1096 0.948 . S
N1087 Co1065 2.282 . S
N1087 C1091 1.332 . S
N1087 C1092 1.332 . S
C1088 C1089 1.388 . S
C1088 C1092 1.382 . S
C1088 H1111 0.950 . S
C1089 C1088 1.388 . S
C1089 C1090 1.386 . S
C1090 C1089 1.386 . S
C1090 C1091 1.382 . S
C1090 H1112 0.950 . S
C1091 N1087 1.332 . S
C1091 C1090 1.382 . S
C1091 H1093 0.952 . S
C1092 N1087 1.332 . S
C1092 C1088 1.382 . S
C1092 H1094 0.948 . S
H1093 C1091 0.952 . S
H1094 C1092 0.948 . S
H1095 C1084 0.952 . S
H1096 C1086 0.948 . S
C1097 C1063 1.395 . S
C1097 C1067 1.391 . S
C1098 C1060 1.389 . S
C1098 C1080 1.392 . S
C1099 C1070 1.392 . S
C1099 C1072 1.389 . S
C1100 C1075 1.395 . S
C1100 C1077 1.391 . S
H1101 C1061 0.951 . S
H1102 C1062 0.950 . S
H1103 C1068 0.949 . S
H1104 C1069 0.950 . S
H1105 C1073 0.951 . S
H1106 C1074 0.950 . S
H1107 C1078 0.949 . S
H1108 C1079 0.950 . S
H1109 C1083 0.950 . S
H1110 C1085 0.950 . S
H1111 C1088 0.950 . S
H1112 C1090 0.950 . S
C1113 C1114 1.443 . S
C1113 N1117 1.376 . S
C1113 C1151 1.389 . S
C1114 C1113 1.443 . S
C1114 C1115 1.340 . S
C1114 H1154 0.951 . S
C1115 C1114 1.340 . S
C1115 C1116 1.439 . S
C1115 H1155 0.950 . S
C1116 C1115 1.439 . S
C1116 N1117 1.374 . S
C1116 C1150 1.395 . S
N1117 C1113 1.376 . S
N1117 C1116 1.374 . S
N1117 Co1118 2.008 . S
Co1118 N1117 2.008 . S
Co1118 N1119 1.995 . S
Co1118 N1124 2.008 . S
Co1118 N1129 1.995 . S
Co1118 N1134 2.282 . S
Co1118 N1140 2.282 . S
N1119 Co1118 1.995 . S
N1119 C1120 1.376 . S
N1119 C1123 1.383 . S
C1120 N1119 1.376 . S
C1120 C1121 1.446 . S
C1120 C1150 1.391 . S
C1121 C1120 1.446 . S
C1121 C1122 1.339 . S
C1121 H1156 0.949 . S
C1122 C1121 1.339 . S
C1122 C1123 1.439 . S
C1122 H1157 0.950 . S
C1123 N1119 1.383 . S
C1123 C1122 1.439 . S
C1123 C1152 1.392 . S
N1124 Co1118 2.008 . S
N1124 C1125 1.376 . S
N1124 C1128 1.374 . S
C1125 N1124 1.376 . S
C1125 C1126 1.443 . S
C1125 C1152 1.389 . S
C1126 C1125 1.443 . S
C1126 C1127 1.340 . S
C1126 H1158 0.951 . S
C1127 C1126 1.340 . S
C1127 C1128 1.439 . S
C1127 H1159 0.950 . S
C1128 N1124 1.374 . S
C1128 C1127 1.439 . S
C1128 C1153 1.395 . S
N1129 Co1118 1.995 . S
N1129 C1130 1.376 . S
N1129 C1133 1.383 . S
C1130 N1129 1.376 . S
C1130 C1131 1.446 . S
C1130 C1153 1.391 . S
C1131 C1130 1.446 . S
C1131 C1132 1.339 . S
C1131 H1160 0.949 . S
C1132 C1131 1.339 . S
C1132 C1133 1.439 . S
C1132 H1161 0.950 . S
C1133 N1129 1.383 . S
C1133 C1132 1.439 . S
C1133 C1151 1.392 . S
N1134 Co1118 2.282 . S
N1134 C1137 1.332 . S
N1134 C1139 1.332 . S
C1135 C1136 1.386 . S
C1135 C1138 1.388 . S
C1136 C1135 1.386 . S
C1136 C1137 1.382 . S
C1136 H1162 0.950 . S
C1137 N1134 1.332 . S
C1137 C1136 1.382 . S
C1137 H1148 0.952 . S
C1138 C1135 1.388 . S
C1138 C1139 1.382 . S
C1138 H1163 0.950 . S
C1139 N1134 1.332 . S
C1139 C1138 1.382 . S
C1139 H1149 0.948 . S
N1140 Co1118 2.282 . S
N1140 C1144 1.332 . S
N1140 C1145 1.332 . S
C1141 C1142 1.388 . S
C1141 C1145 1.382 . S
C1141 H1164 0.950 . S
C1142 C1141 1.388 . S
C1142 C1143 1.386 . S
C1143 C1142 1.386 . S
C1143 C1144 1.382 . S
C1143 H1165 0.950 . S
C1144 N1140 1.332 . S
C1144 C1143 1.382 . S
C1144 H1146 0.952 . S
C1145 N1140 1.332 . S
C1145 C1141 1.382 . S
C1145 H1147 0.948 . S
H1146 C1144 0.952 . S
H1147 C1145 0.948 . S
H1148 C1137 0.952 . S
H1149 C1139 0.948 . S
C1150 C1116 1.395 . S
C1150 C1120 1.391 . S
C1151 C1113 1.389 . S
C1151 C1133 1.392 . S
C1152 C1123 1.392 . S
C1152 C1125 1.389 . S
C1153 C1128 1.395 . S
C1153 C1130 1.391 . S
H1154 C1114 0.951 . S
H1155 C1115 0.950 . S
H1156 C1121 0.949 . S
H1157 C1122 0.950 . S
H1158 C1126 0.951 . S
H1159 C1127 0.950 . S
H1160 C1131 0.949 . S
H1161 C1132 0.950 . S
H1162 C1136 0.950 . S
H1163 C1138 0.950 . S
H1164 C1141 0.950 . S
H1165 C1143 0.950 . S
C1166 C1167 1.443 . S
C1166 N1170 1.376 . S
C1166 C1204 1.389 . S
C1167 C1166 1.443 . S
C1167 C1168 1.340 . S
C1167 H1207 0.951 . S
C1168 C1167 1.340 . S
C1168 C1169 1.439 . S
C1168 H1208 0.950 . S
C1169 C1168 1.439 . S
C1169 N1170 1.374 . S
C1169 C1203 1.395 . S
N1170 C1166 1.376 . S
N1170 C1169 1.374 . S
N1170 Co1171 2.008 . S
Co1171 N1170 2.008 . S
Co1171 N1172 1.995 . S
Co1171 N1177 2.008 . S
Co1171 N1182 1.995 . S
Co1171 N1187 2.282 . S
Co1171 N1193 2.282 . S
N1172 Co1171 1.995 . S
N1172 C1173 1.376 . S
N1172 C1176 1.383 . S
C1173 N1172 1.376 . S
C1173 C1174 1.446 . S
C1173 C1203 1.391 . S
C1174 C1173 1.446 . S
C1174 C1175 1.339 . S
C1174 H1209 0.949 . S
C1175 C1174 1.339 . S
C1175 C1176 1.439 . S
C1175 H1210 0.950 . S
C1176 N1172 1.383 . S
C1176 C1175 1.439 . S
C1176 C1205 1.392 . S
N1177 Co1171 2.008 . S
N1177 C1178 1.376 . S
N1177 C1181 1.374 . S
C1178 N1177 1.376 . S
C1178 C1179 1.443 . S
C1178 C1205 1.389 . S
C1179 C1178 1.443 . S
C1179 C1180 1.340 . S
C1179 H1211 0.951 . S
C1180 C1179 1.340 . S
C1180 C1181 1.439 . S
C1180 H1212 0.950 . S
C1181 N1177 1.374 . S
C1181 C1180 1.439 . S
C1181 C1206 1.395 . S
N1182 Co1171 1.995 . S
N1182 C1183 1.376 . S
N1182 C1186 1.383 . S
C1183 N1182 1.376 . S
C1183 C1184 1.446 . S
C1183 C1206 1.391 . S
C1184 C1183 1.446 . S
C1184 C1185 1.339 . S
C1184 H1213 0.949 . S
C1185 C1184 1.339 . S
C1185 C1186 1.439 . S
C1185 H1214 0.950 . S
C1186 N1182 1.383 . S
C1186 C1185 1.439 . S
C1186 C1204 1.392 . S
N1187 Co1171 2.282 . S
N1187 C1190 1.332 . S
N1187 C1192 1.332 . S
C1188 C1189 1.386 . S
C1188 C1191 1.388 . S
C1189 C1188 1.386 . S
C1189 C1190 1.382 . S
C1189 H1215 0.950 . S
C1190 N1187 1.332 . S
C1190 C1189 1.382 . S
C1190 H1201 0.952 . S
C1191 C1188 1.388 . S
C1191 C1192 1.382 . S
C1191 H1216 0.950 . S
C1192 N1187 1.332 . S
C1192 C1191 1.382 . S
C1192 H1202 0.948 . S
N1193 Co1171 2.282 . S
N1193 C1197 1.332 . S
N1193 C1198 1.332 . S
C1194 C1195 1.388 . S
C1194 C1198 1.382 . S
C1194 H1217 0.950 . S
C1195 C1194 1.388 . S
C1195 C1196 1.386 . S
C1196 C1195 1.386 . S
C1196 C1197 1.382 . S
C1196 H1218 0.950 . S
C1197 N1193 1.332 . S
C1197 C1196 1.382 . S
C1197 H1199 0.952 . S
C1198 N1193 1.332 . S
C1198 C1194 1.382 . S
C1198 H1200 0.948 . S
H1199 C1197 0.952 . S
H1200 C1198 0.948 . S
H1201 C1190 0.952 . S
H1202 C1192 0.948 . S
C1203 C1169 1.395 . S
C1203 C1173 1.391 . S
C1204 C1166 1.389 . S
C1204 C1186 1.392 . S
C1205 C1176 1.392 . S
C1205 C1178 1.389 . S
C1206 C1181 1.395 . S
C1206 C1183 1.391 . S
H1207 C1167 0.951 . S
H1208 C1168 0.950 . S
H1209 C1174 0.949 . S
H1210 C1175 0.950 . S
H1211 C1179 0.951 . S
H1212 C1180 0.950 . S
H1213 C1184 0.949 . S
H1214 C1185 0.950 . S
H1215 C1189 0.950 . S
H1216 C1191 0.950 . S
H1217 C1194 0.950 . S
H1218 C1196 0.950 . S
C1219 C1220 1.443 . S
C1219 N1223 1.376 . S
C1219 C1257 1.389 . S
C1220 C1219 1.443 . S
C1220 C1221 1.340 . S
C1220 H1260 0.951 . S
C1221 C1220 1.340 . S
C1221 C1222 1.439 . S
C1221 H1261 0.950 . S
C1222 C1221 1.439 . S
C1222 N1223 1.374 . S
C1222 C1256 1.395 . S
N1223 C1219 1.376 . S
N1223 C1222 1.374 . S
N1223 Co1224 2.008 . S
Co1224 N1223 2.008 . S
Co1224 N1225 1.995 . S
Co1224 N1230 2.008 . S
Co1224 N1235 1.995 . S
Co1224 N1240 2.282 . S
Co1224 N1246 2.282 . S
N1225 Co1224 1.995 . S
N1225 C1226 1.376 . S
N1225 C1229 1.383 . S
C1226 N1225 1.376 . S
C1226 C1227 1.446 . S
C1226 C1256 1.391 . S
C1227 C1226 1.446 . S
C1227 C1228 1.339 . S
C1227 H1262 0.949 . S
C1228 C1227 1.339 . S
C1228 C1229 1.439 . S
C1228 H1263 0.950 . S
C1229 N1225 1.383 . S
C1229 C1228 1.439 . S
C1229 C1258 1.392 . S
N1230 Co1224 2.008 . S
N1230 C1231 1.376 . S
N1230 C1234 1.374 . S
C1231 N1230 1.376 . S
C1231 C1232 1.443 . S
C1231 C1258 1.389 . S
C1232 C1231 1.443 . S
C1232 C1233 1.340 . S
C1232 H1264 0.951 . S
C1233 C1232 1.340 . S
C1233 C1234 1.439 . S
C1233 H1265 0.950 . S
C1234 N1230 1.374 . S
C1234 C1233 1.439 . S
C1234 C1259 1.395 . S
N1235 Co1224 1.995 . S
N1235 C1236 1.376 . S
N1235 C1239 1.383 . S
C1236 N1235 1.376 . S
C1236 C1237 1.446 . S
C1236 C1259 1.391 . S
C1237 C1236 1.446 . S
C1237 C1238 1.339 . S
C1237 H1266 0.949 . S
C1238 C1237 1.339 . S
C1238 C1239 1.439 . S
C1238 H1267 0.950 . S
C1239 N1235 1.383 . S
C1239 C1238 1.439 . S
C1239 C1257 1.392 . S
N1240 Co1224 2.282 . S
N1240 C1243 1.332 . S
N1240 C1245 1.332 . S
C1241 C1242 1.386 . S
C1241 C1244 1.388 . S
C1242 C1241 1.386 . S
C1242 C1243 1.382 . S
C1242 H1268 0.950 . S
C1243 N1240 1.332 . S
C1243 C1242 1.382 . S
C1243 H1254 0.952 . S
C1244 C1241 1.388 . S
C1244 C1245 1.382 . S
C1244 H1269 0.950 . S
C1245 N1240 1.332 . S
C1245 C1244 1.382 . S
C1245 H1255 0.948 . S
N1246 Co1224 2.282 . S
N1246 C1250 1.332 . S
N1246 C1251 1.332 . S
C1247 C1248 1.388 . S
C1247 C1251 1.382 . S
C1247 H1270 0.950 . S
C1248 C1247 1.388 . S
C1248 C1249 1.386 . S
C1249 C1248 1.386 . S
C1249 C1250 1.382 . S
C1249 H1271 0.950 . S
C1250 N1246 1.332 . S
C1250 C1249 1.382 . S
C1250 H1252 0.952 . S
C1251 N1246 1.332 . S
C1251 C1247 1.382 . S
C1251 H1253 0.948 . S
H1252 C1250 0.952 . S
H1253 C1251 0.948 . S
H1254 C1243 0.952 . S
H1255 C1245 0.948 . S
C1256 C1222 1.395 . S
C1256 C1226 1.391 . S
C1257 C1219 1.389 . S
C1257 C1239 1.392 . S
C1258 C1229 1.392 . S
C1258 C1231 1.389 . S
C1259 C1234 1.395 . S
C1259 C1236 1.391 . S
H1260 C1220 0.951 . S
H1261 C1221 0.950 . S
H1262 C1227 0.949 . S
H1263 C1228 0.950 . S
H1264 C1232 0.951 . S
H1265 C1233 0.950 . S
H1266 C1237 0.949 . S
H1267 C1238 0.950 . S
H1268 C1242 0.950 . S
H1269 C1244 0.950 . S
H1270 C1247 0.950 . S
H1271 C1249 0.950 . S
H1272 C1280 0.950 . S
H1273 C1285 0.950 . S
H1274 C1282 0.950 . S
H1275 C1284 0.950 . S
H1276 C1286 0.950 . S
H1277 C1288 0.950 . S
H1278 C1290 0.950 . S
H1279 C1291 0.950 . S
C1280 H1272 0.950 . S
C1280 C1281 1.386 . S
C1280 C1282 1.391 . S
C1281 C1280 1.386 . S
C1281 C1285 1.393 . S
C1282 H1274 0.950 . S
C1282 C1280 1.391 . S
C1282 C1283 1.400 . S
C1283 C1282 1.400 . S
C1283 C1284 1.398 . S
C1283 C1289 1.491 . S
C1284 H1275 0.950 . S
C1284 C1283 1.398 . S
C1284 C1285 1.391 . S
C1285 H1273 0.950 . S
C1285 C1281 1.393 . S
C1285 C1284 1.391 . S
C1286 H1276 0.950 . S
C1286 C1287 1.386 . S
C1286 C1288 1.391 . S
C1287 C1286 1.386 . S
C1287 C1291 1.393 . S
C1288 H1277 0.950 . S
C1288 C1286 1.391 . S
C1288 C1289 1.400 . S
C1289 C1283 1.491 . S
C1289 C1288 1.400 . S
C1289 C1290 1.398 . S
C1290 H1278 0.950 . S
C1290 C1289 1.398 . S
C1290 C1291 1.391 . S
C1291 H1279 0.950 . S
C1291 C1287 1.393 . S
C1291 C1290 1.391 . S
H1292 C1300 0.950 . S
H1293 C1305 0.950 . S
H1294 C1302 0.950 1_455 S
H1295 C1304 0.950 . S
H1296 C1306 0.950 . S
H1297 C1308 0.974 . S
H1298 C1310 0.950 . S
H1299 C1311 0.950 . S
C1300 H1292 0.950 . S
C1300 C1301 1.386 . S
C1300 C1302 1.391 . S
C1301 C1300 1.386 . S
C1301 C1305 1.393 . S
C1302 H1294 0.950 1_655 S
C1302 C1300 1.391 . S
C1302 C1303 1.400 . S
C1303 C1302 1.400 . S
C1303 C1304 1.398 . S
C1303 C1309 1.491 1_655 S
C1304 H1295 0.950 . S
C1304 C1303 1.398 . S
C1304 C1305 1.391 . S
C1305 H1293 0.950 . S
C1305 C1301 1.393 . S
C1305 C1304 1.391 . S
C1306 H1296 0.950 . S
C1306 C1307 1.386 . S
C1306 C1308 1.374 1_455 S
C1307 C1306 1.386 . S
C1307 C1311 1.393 . S
C1308 H1297 0.974 . S
C1308 C1306 1.374 1_655 S
C1308 C1309 1.395 1_655 S
C1309 C1303 1.491 1_455 S
C1309 C1308 1.395 1_455 S
C1309 C1310 1.398 . S
C1310 H1298 0.950 . S
C1310 C1309 1.398 . S
C1310 C1311 1.391 . S
C1311 H1299 0.950 . S
C1311 C1307 1.393 . S
C1311 C1310 1.391 . S
H1312 C1320 0.950 . S
H1313 C1325 0.950 . S
H1314 C1322 0.950 . S
H1315 C1324 0.950 . S
H1316 C1326 0.950 . S
H1317 C1328 0.950 . S
H1318 C1330 0.950 . S
H1319 C1331 0.950 . S
C1320 H1312 0.950 . S
C1320 C1321 1.386 . S
C1320 C1322 1.391 . S
C1321 C1320 1.386 . S
C1321 C1325 1.393 . S
C1322 H1314 0.950 . S
C1322 C1320 1.391 . S
C1322 C1323 1.400 . S
C1323 C1322 1.400 . S
C1323 C1324 1.398 . S
C1323 C1329 1.491 . S
C1324 H1315 0.950 . S
C1324 C1323 1.398 . S
C1324 C1325 1.391 . S
C1325 H1313 0.950 . S
C1325 C1321 1.393 . S
C1325 C1324 1.391 . S
C1326 H1316 0.950 . S
C1326 C1327 1.386 . S
C1326 C1328 1.391 1_556 S
C1327 C1326 1.386 . S
C1327 C1331 1.393 1_556 S
C1328 H1317 0.950 . S
C1328 C1326 1.391 1_554 S
C1328 C1329 1.400 . S
C1329 C1323 1.491 . S
C1329 C1328 1.400 . S
C1329 C1330 1.398 . S
C1330 H1318 0.950 . S
C1330 C1329 1.398 . S
C1330 C1331 1.391 . S
C1331 H1319 0.950 . S
C1331 C1327 1.393 1_554 S
C1331 C1330 1.391 . S
H1332 C1340 0.950 . S
H1333 C1345 0.950 . S
H1334 C1342 0.950 . S
H1335 C1344 0.950 . S
H1336 C1346 0.950 . S
H1337 C1348 0.950 . S
H1338 C1350 0.950 . S
H1339 C1351 0.950 . S
C1340 H1332 0.950 . S
C1340 C1341 1.386 . S
C1340 C1342 1.391 . S
C1341 C1340 1.386 . S
C1341 C1345 1.393 . S
C1342 H1334 0.950 . S
C1342 C1340 1.391 . S
C1342 C1343 1.400 . S
C1343 C1342 1.400 . S
C1343 C1344 1.398 . S
C1343 C1349 1.491 . S
C1344 H1335 0.950 . S
C1344 C1343 1.398 . S
C1344 C1345 1.391 . S
C1345 H1333 0.950 . S
C1345 C1341 1.393 . S
C1345 C1344 1.391 . S
C1346 H1336 0.950 . S
C1346 C1347 1.386 . S
C1346 C1348 1.391 . S
C1347 C1346 1.386 . S
C1347 C1351 1.393 . S
C1348 H1337 0.950 . S
C1348 C1346 1.391 . S
C1348 C1349 1.400 . S
C1349 C1343 1.491 . S
C1349 C1348 1.400 . S
C1349 C1350 1.398 . S
C1350 H1338 0.950 . S
C1350 C1349 1.398 . S
C1350 C1351 1.391 . S
C1351 H1339 0.950 . S
C1351 C1347 1.393 . S
C1351 C1350 1.391 . S
H1352 C1360 0.950 . S
H1353 C1365 0.950 . S
H1354 C1362 0.927 1_554 S
H1355 C1364 0.950 . S
H1356 C1366 0.950 . S
H1357 C1368 0.950 1_556 S
H1358 C1370 0.950 . S
H1359 C1371 0.950 . S
C1360 H1352 0.950 . S
C1360 C1361 1.386 . S
C1360 C1362 1.391 . S
C1361 C1360 1.386 . S
C1361 C1365 1.393 . S
C1362 H1354 0.927 1_556 S
C1362 C1360 1.391 . S
C1362 C1363 1.400 . S
C1363 C1362 1.400 . S
C1363 C1364 1.398 . S
C1363 C1369 1.491 1_556 S
C1364 H1355 0.950 . S
C1364 C1363 1.398 . S
C1364 C1365 1.391 . S
C1365 H1353 0.950 . S
C1365 C1361 1.393 . S
C1365 C1364 1.391 . S
C1366 H1356 0.950 . S
C1366 C1367 1.386 . S
C1366 C1368 1.391 . S
C1367 C1366 1.386 . S
C1367 C1371 1.393 . S
C1368 H1357 0.950 1_554 S
C1368 C1366 1.391 . S
C1368 C1369 1.400 . S
C1369 C1363 1.491 1_554 S
C1369 C1368 1.400 . S
C1369 C1370 1.398 . S
C1370 H1358 0.950 . S
C1370 C1369 1.398 . S
C1370 C1371 1.391 . S
C1371 H1359 0.950 . S
C1371 C1367 1.393 . S
C1371 C1370 1.391 . S
H1372 C1380 0.950 . S
H1373 C1385 0.950 . S
H1374 C1382 0.950 . S
H1375 C1384 0.950 . S
H1376 C1386 0.950 . S
H1377 C1388 0.950 . S
H1378 C1390 0.950 . S
H1379 C1391 0.950 . S
C1380 H1372 0.950 . S
C1380 C1381 1.386 . S
C1380 C1382 1.391 . S
C1381 C1380 1.386 . S
C1381 C1385 1.393 . S
C1382 H1374 0.950 . S
C1382 C1380 1.391 . S
C1382 C1383 1.400 . S
C1383 C1382 1.400 . S
C1383 C1384 1.398 . S
C1383 C1389 1.491 . S
C1384 H1375 0.950 . S
C1384 C1383 1.398 . S
C1384 C1385 1.391 . S
C1385 H1373 0.950 . S
C1385 C1381 1.393 . S
C1385 C1384 1.391 . S
C1386 H1376 0.950 . S
C1386 C1387 1.386 . S
C1386 C1388 1.391 . S
C1387 C1386 1.386 . S
C1387 C1391 1.393 . S
C1388 H1377 0.950 . S
C1388 C1386 1.391 . S
C1388 C1389 1.400 . S
C1389 C1383 1.491 . S
C1389 C1388 1.400 . S
C1389 C1390 1.398 . S
C1390 H1378 0.950 . S
C1390 C1389 1.398 . S
C1390 C1391 1.391 . S
C1391 H1379 0.950 . S
C1391 C1387 1.393 . S
C1391 C1390 1.391 . S
H1392 C1400 0.950 . S
H1393 C1405 0.950 . S
H1394 C1402 0.950 . S
H1395 C1404 0.950 . S
H1396 C1406 0.950 . S
H1397 C1408 0.950 . S
H1398 C1410 0.950 . S
H1399 C1411 0.950 . S
C1400 H1392 0.950 . S
C1400 C1401 1.386 . S
C1400 C1402 1.391 . S
C1401 C1400 1.386 . S
C1401 C1405 1.393 . S
C1402 H1394 0.950 . S
C1402 C1400 1.391 . S
C1402 C1403 1.400 . S
C1403 C1402 1.400 . S
C1403 C1404 1.398 . S
C1403 C1409 1.491 . S
C1404 H1395 0.950 . S
C1404 C1403 1.398 . S
C1404 C1405 1.391 . S
C1405 H1393 0.950 . S
C1405 C1401 1.393 . S
C1405 C1404 1.391 . S
C1406 H1396 0.950 . S
C1406 C1407 1.386 . S
C1406 C1408 1.391 . S
C1407 C1406 1.386 . S
C1407 C1411 1.393 . S
C1408 H1397 0.950 . S
C1408 C1406 1.391 . S
C1408 C1409 1.400 . S
C1409 C1403 1.491 . S
C1409 C1408 1.400 . S
C1409 C1410 1.398 . S
C1410 H1398 0.950 . S
C1410 C1409 1.398 . S
C1410 C1411 1.391 . S
C1411 H1399 0.950 . S
C1411 C1407 1.393 . S
C1411 C1410 1.391 . S
H1412 C1420 0.950 . S
H1413 C1425 0.950 . S
H1414 C1422 0.950 . S
H1415 C1424 0.950 1_655 S
H1416 C1426 0.950 . S
H1417 C1428 0.950 . S
H1418 C1430 0.950 1_455 S
H1419 C1431 0.950 . S
C1420 H1412 0.950 . S
C1420 C1421 1.386 . S
C1420 C1422 1.391 . S
C1421 C1420 1.386 . S
C1421 C1425 1.393 . S
C1422 H1414 0.950 . S
C1422 C1420 1.391 . S
C1422 C1423 1.400 . S
C1423 C1422 1.400 . S
C1423 C1424 1.398 . S
C1423 C1429 1.491 1_455 S
C1424 H1415 0.950 1_455 S
C1424 C1423 1.398 . S
C1424 C1425 1.391 . S
C1425 H1413 0.950 . S
C1425 C1421 1.393 . S
C1425 C1424 1.391 . S
C1426 H1416 0.950 . S
C1426 C1427 1.386 . S
C1426 C1428 1.391 . S
C1427 C1426 1.386 . S
C1427 C1431 1.393 . S
C1428 H1417 0.950 . S
C1428 C1426 1.391 . S
C1428 C1429 1.400 . S
C1429 C1423 1.491 1_655 S
C1429 C1428 1.400 . S
C1429 C1430 1.398 . S
C1430 H1418 0.950 1_655 S
C1430 C1429 1.398 . S
C1430 C1431 1.391 . S
C1431 H1419 0.950 . S
C1431 C1427 1.393 . S
C1431 C1430 1.391 . S
H1432 C1440 0.950 . S
H1433 C1445 0.950 . S
H1434 C1442 0.950 . S
H1435 C1444 0.950 . S
H1436 C1446 0.950 . S
H1437 C1448 0.950 . S
H1438 C1450 0.950 . S
H1439 C1451 0.950 . S
C1440 H1432 0.950 . S
C1440 C1441 1.386 . S
C1440 C1442 1.391 . S
C1441 C1440 1.386 . S
C1441 C1445 1.393 . S
C1442 H1434 0.950 . S
C1442 C1440 1.391 . S
C1442 C1443 1.400 . S
C1443 C1442 1.400 . S
C1443 C1444 1.398 . S
C1443 C1449 1.491 . S
C1444 H1435 0.950 . S
C1444 C1443 1.398 . S
C1444 C1445 1.391 . S
C1445 H1433 0.950 . S
C1445 C1441 1.393 . S
C1445 C1444 1.391 . S
C1446 H1436 0.950 . S
C1446 C1447 1.386 . S
C1446 C1448 1.391 . S
C1447 C1446 1.386 . S
C1447 C1451 1.393 . S
C1448 H1437 0.950 . S
C1448 C1446 1.391 . S
C1448 C1449 1.400 . S
C1449 C1443 1.491 . S
C1449 C1448 1.400 . S
C1449 C1450 1.398 . S
C1450 H1438 0.950 . S
C1450 C1449 1.398 . S
C1450 C1451 1.391 . S
C1451 H1439 0.950 . S
C1451 C1447 1.393 . S
C1451 C1450 1.391 . S
H1452 C1460 0.950 . S
H1453 C1465 0.950 . S
H1454 C1462 0.950 . S
H1455 C1464 0.950 . S
H1456 C1466 0.950 . S
H1457 C1468 0.950 . S
H1458 C1470 0.950 . S
H1459 C1471 0.950 . S
C1460 H1452 0.950 . S
C1460 C1461 1.386 . S
C1460 C1462 1.391 . S
C1461 C1460 1.386 . S
C1461 C1465 1.393 . S
C1462 H1454 0.950 . S
C1462 C1460 1.391 . S
C1462 C1463 1.400 1_545 S
C1463 C1462 1.400 1_565 S
C1463 C1464 1.398 . S
C1463 C1469 1.491 . S
C1464 H1455 0.950 . S
C1464 C1463 1.398 . S
C1464 C1465 1.391 1_565 S
C1465 H1453 0.950 . S
C1465 C1461 1.393 . S
C1465 C1464 1.391 1_545 S
C1466 H1456 0.950 . S
C1466 C1467 1.386 . S
C1466 C1468 1.391 . S
C1467 C1466 1.386 . S
C1467 C1471 1.393 . S
C1468 H1457 0.950 . S
C1468 C1466 1.391 . S
C1468 C1469 1.400 . S
C1469 C1463 1.491 . S
C1469 C1468 1.400 . S
C1469 C1470 1.398 . S
C1470 H1458 0.950 . S
C1470 C1469 1.398 . S
C1470 C1471 1.391 . S
C1471 H1459 0.950 . S
C1471 C1467 1.393 . S
C1471 C1470 1.391 . S
H1472 C1480 0.950 . S
H1473 C1485 0.950 . S
H1474 C1482 0.950 . S
H1475 C1484 0.950 . S
H1476 C1486 0.950 . S
H1477 C1488 0.950 . S
H1478 C1490 0.950 . S
H1479 C1491 0.950 . S
C1480 H1472 0.950 . S
C1480 C1481 1.386 . S
C1480 C1482 1.391 . S
C1481 C1480 1.386 . S
C1481 C1485 1.393 . S
C1482 H1474 0.950 . S
C1482 C1480 1.391 . S
C1482 C1483 1.400 . S
C1483 C1482 1.400 . S
C1483 C1484 1.398 . S
C1483 C1489 1.491 . S
C1484 H1475 0.950 . S
C1484 C1483 1.398 . S
C1484 C1485 1.391 . S
C1485 H1473 0.950 . S
C1485 C1481 1.393 . S
C1485 C1484 1.391 . S
C1486 H1476 0.950 . S
C1486 C1487 1.386 1_545 S
C1486 C1488 1.391 . S
C1487 C1486 1.386 1_565 S
C1487 C1491 1.393 . S
C1488 H1477 0.950 . S
C1488 C1486 1.391 . S
C1488 C1489 1.400 . S
C1489 C1483 1.491 . S
C1489 C1488 1.400 . S
C1489 C1490 1.398 . S
C1490 H1478 0.950 . S
C1490 C1489 1.398 . S
C1490 C1491 1.391 1_545 S
C1491 H1479 0.950 . S
C1491 C1487 1.393 . S
C1491 C1490 1.391 1_565 S
H1492 C1500 0.950 . S
H1493 C1505 0.950 . S
H1494 C1502 0.950 . S
H1495 C1504 0.950 . S
H1496 C1506 0.950 . S
H1497 C1508 0.950 . S
H1498 C1510 0.950 . S
H1499 C1511 0.950 . S
C1500 H1492 0.950 . S
C1500 C1501 1.386 . S
C1500 C1502 1.391 . S
C1501 C1500 1.386 . S
C1501 C1505 1.393 . S
C1502 H1494 0.950 . S
C1502 C1500 1.391 . S
C1502 C1503 1.400 . S
C1503 C1502 1.400 . S
C1503 C1504 1.398 . S
C1503 C1509 1.491 . S
C1504 H1495 0.950 . S
C1504 C1503 1.398 . S
C1504 C1505 1.391 . S
C1505 H1493 0.950 . S
C1505 C1501 1.393 . S
C1505 C1504 1.391 . S
C1506 H1496 0.950 . S
C1506 C1507 1.386 . S
C1506 C1508 1.391 1_565 S
C1507 C1506 1.386 . S
C1507 C1511 1.393 . S
C1508 H1497 0.950 . S
C1508 C1506 1.391 1_545 S
C1508 C1509 1.400 . S
C1509 C1503 1.491 . S
C1509 C1508 1.400 . S
C1509 C1510 1.398 1_545 S
C1510 H1498 0.950 . S
C1510 C1509 1.398 1_565 S
C1510 C1511 1.391 . S
C1511 H1499 0.950 . S
C1511 C1507 1.393 . S
C1511 C1510 1.391 . S
H1512 C1520 0.950 . S
H1513 C1525 0.950 . S
H1514 C1522 0.950 . S
H1515 C1524 0.950 . S
H1516 C1526 0.950 . S
H1517 C1528 0.950 . S
H1518 C1530 0.950 . S
H1519 C1531 0.950 . S
C1520 H1512 0.950 . S
C1520 C1521 1.386 . S
C1520 C1522 1.391 . S
C1521 C1520 1.386 . S
C1521 C1525 1.393 . S
C1522 H1514 0.950 . S
C1522 C1520 1.391 . S
C1522 C1523 1.400 . S
C1523 C1522 1.400 . S
C1523 C1524 1.398 . S
C1523 C1529 1.491 . S
C1524 H1515 0.950 . S
C1524 C1523 1.398 . S
C1524 C1525 1.391 . S
C1525 H1513 0.950 . S
C1525 C1521 1.393 . S
C1525 C1524 1.391 . S
C1526 H1516 0.950 . S
C1526 C1527 1.386 . S
C1526 C1528 1.391 . S
C1527 C1526 1.386 . S
C1527 C1531 1.393 . S
C1528 H1517 0.950 . S
C1528 C1526 1.391 . S
C1528 C1529 1.400 . S
C1529 C1523 1.491 . S
C1529 C1528 1.400 . S
C1529 C1530 1.398 . S
C1530 H1518 0.950 . S
C1530 C1529 1.398 . S
C1530 C1531 1.391 . S
C1531 H1519 0.950 . S
C1531 C1527 1.393 . S
C1531 C1530 1.391 . S
H1532 C1540 0.950 . S
H1533 C1545 0.950 . S
H1534 C1542 0.950 . S
H1535 C1544 0.950 . S
H1536 C1546 0.950 . S
H1537 C1548 0.950 . S
H1538 C1550 0.950 . S
H1539 C1551 0.950 . S
C1540 H1532 0.950 . S
C1540 C1541 1.386 . S
C1540 C1542 1.391 . S
C1541 C1540 1.386 . S
C1541 C1545 1.393 . S
C1542 H1534 0.950 . S
C1542 C1540 1.391 . S
C1542 C1543 1.400 . S
C1543 C1542 1.400 . S
C1543 C1544 1.398 . S
C1543 C1549 1.491 . S
C1544 H1535 0.950 . S
C1544 C1543 1.398 . S
C1544 C1545 1.391 . S
C1545 H1533 0.950 . S
C1545 C1541 1.393 . S
C1545 C1544 1.391 . S
C1546 H1536 0.950 . S
C1546 C1547 1.386 . S
C1546 C1548 1.391 . S
C1547 C1546 1.386 . S
C1547 C1551 1.393 . S
C1548 H1537 0.950 . S
C1548 C1546 1.391 . S
C1548 C1549 1.400 . S
C1549 C1543 1.491 . S
C1549 C1548 1.400 . S
C1549 C1550 1.398 . S
C1550 H1538 0.950 . S
C1550 C1549 1.398 . S
C1550 C1551 1.391 . S
C1551 H1539 0.950 . S
C1551 C1547 1.393 . S
C1551 C1550 1.391 . S
H1552 C1560 0.950 . S
H1553 C1565 0.950 . S
H1554 C1562 0.950 . S
H1555 C1564 0.950 . S
H1556 C1566 0.950 . S
H1557 C1568 0.950 . S
H1558 C1570 0.950 . S
H1559 C1571 0.950 . S
C1560 H1552 0.950 . S
C1560 C1561 1.386 . S
C1560 C1562 1.391 . S
C1561 C1560 1.386 . S
C1561 C1565 1.393 . S
C1562 H1554 0.950 . S
C1562 C1560 1.391 . S
C1562 C1563 1.400 . S
C1563 C1562 1.400 . S
C1563 C1564 1.398 . S
C1563 C1569 1.491 . S
C1564 H1555 0.950 . S
C1564 C1563 1.398 . S
C1564 C1565 1.391 . S
C1565 H1553 0.950 . S
C1565 C1561 1.393 . S
C1565 C1564 1.391 . S
C1566 H1556 0.950 . S
C1566 C1567 1.386 . S
C1566 C1568 1.391 . S
C1567 C1566 1.386 . S
C1567 C1571 1.393 . S
C1568 H1557 0.950 . S
C1568 C1566 1.391 . S
C1568 C1569 1.400 . S
C1569 C1563 1.491 . S
C1569 C1568 1.400 . S
C1569 C1570 1.398 . S
C1570 H1558 0.950 . S
C1570 C1569 1.398 . S
C1570 C1571 1.391 . S
C1571 H1559 0.950 . S
C1571 C1567 1.393 . S
C1571 C1570 1.391 . S
H1572 C1580 0.950 . S
H1573 C1585 0.950 . S
H1574 C1582 0.950 . S
H1575 C1584 0.950 . S
H1576 C1586 0.950 . S
H1577 C1588 0.950 . S
H1578 C1590 0.950 . S
H1579 C1591 0.950 . S
C1580 H1572 0.950 . S
C1580 C1581 1.386 . S
C1580 C1582 1.391 . S
C1581 C1580 1.386 . S
C1581 C1585 1.393 . S
C1582 H1574 0.950 . S
C1582 C1580 1.391 . S
C1582 C1583 1.400 . S
C1583 C1582 1.400 . S
C1583 C1584 1.398 . S
C1583 C1589 1.491 1_556 S
C1584 H1575 0.950 . S
C1584 C1583 1.398 . S
C1584 C1585 1.391 . S
C1585 H1573 0.950 . S
C1585 C1581 1.393 . S
C1585 C1584 1.391 . S
C1586 H1576 0.950 . S
C1586 C1587 1.386 . S
C1586 C1588 1.391 . S
C1587 C1586 1.386 . S
C1587 C1591 1.393 . S
C1588 H1577 0.950 . S
C1588 C1586 1.391 . S
C1588 C1589 1.400 . S
C1589 C1583 1.491 1_554 S
C1589 C1588 1.400 . S
C1589 C1590 1.398 . S
C1590 H1578 0.950 . S
C1590 C1589 1.398 . S
C1590 C1591 1.391 . S
C1591 H1579 0.950 . S
C1591 C1587 1.393 . S
C1591 C1590 1.391 . S
H1592 C1600 0.950 . S
H1593 C1605 0.950 . S
H1594 C1602 0.950 . S
H1595 C1604 0.950 . S
H1596 C1606 0.950 . S
H1597 C1608 0.950 . S
H1598 C1610 0.950 . S
H1599 C1611 0.950 . S
C1600 H1592 0.950 . S
C1600 C1601 1.386 . S
C1600 C1602 1.391 . S
C1601 C1600 1.386 . S
C1601 C1605 1.393 . S
C1602 H1594 0.950 . S
C1602 C1600 1.391 . S
C1602 C1603 1.400 . S
C1603 C1602 1.400 . S
C1603 C1604 1.398 . S
C1603 C1609 1.491 . S
C1604 H1595 0.950 . S
C1604 C1603 1.398 . S
C1604 C1605 1.391 . S
C1605 H1593 0.950 . S
C1605 C1601 1.393 . S
C1605 C1604 1.391 . S
C1606 H1596 0.950 . S
C1606 C1607 1.386 . S
C1606 C1608 1.391 . S
C1607 C1606 1.386 . S
C1607 C1611 1.393 . S
C1608 H1597 0.950 . S
C1608 C1606 1.391 . S
C1608 C1609 1.400 . S
C1609 C1603 1.491 . S
C1609 C1608 1.400 . S
C1609 C1610 1.398 . S
C1610 H1598 0.950 . S
C1610 C1609 1.398 . S
C1610 C1611 1.391 . S
C1611 H1599 0.950 . S
C1611 C1607 1.393 . S
C1611 C1610 1.391 . S
H1612 C1620 0.950 . S
H1613 C1625 0.950 . S
H1614 C1622 0.950 . S
H1615 C1624 0.950 . S
H1616 C1626 0.950 . S
H1617 C1628 0.950 . S
H1618 C1630 0.950 . S
H1619 C1631 0.950 . S
C1620 H1612 0.950 . S
C1620 C1621 1.386 . S
C1620 C1622 1.391 . S
C1621 C1620 1.386 . S
C1621 C1625 1.393 . S
C1622 H1614 0.950 . S
C1622 C1620 1.391 . S
C1622 C1623 1.400 . S
C1623 C1622 1.400 . S
C1623 C1624 1.398 . S
C1623 C1629 1.491 . S
C1624 H1615 0.950 . S
C1624 C1623 1.398 . S
C1624 C1625 1.391 . S
C1625 H1613 0.950 . S
C1625 C1621 1.393 . S
C1625 C1624 1.391 . S
C1626 H1616 0.950 . S
C1626 C1627 1.386 . S
C1626 C1628 1.391 . S
C1627 C1626 1.386 . S
C1627 C1631 1.393 . S
C1628 H1617 0.950 . S
C1628 C1626 1.391 . S
C1628 C1629 1.400 . S
C1629 C1623 1.491 . S
C1629 C1628 1.400 . S
C1629 C1630 1.398 . S
C1630 H1618 0.950 . S
C1630 C1629 1.398 . S
C1630 C1631 1.391 . S
C1631 H1619 0.950 . S
C1631 C1627 1.393 . S
C1631 C1630 1.391 . S
H1632 C1640 0.950 . S
H1633 C1645 0.950 . S
H1634 C1642 0.950 . S
H1635 C1644 0.950 . S
H1636 C1646 0.950 . S
H1637 C1648 0.950 . S
H1638 C1650 0.950 . S
H1639 C1651 0.950 . S
C1640 H1632 0.950 . S
C1640 C1641 1.386 . S
C1640 C1642 1.391 . S
C1641 C1640 1.386 . S
C1641 C1645 1.393 . S
C1642 H1634 0.950 . S
C1642 C1640 1.391 . S
C1642 C1643 1.400 . S
C1643 C1642 1.400 . S
C1643 C1644 1.398 . S
C1643 C1649 1.491 . S
C1644 H1635 0.950 . S
C1644 C1643 1.398 . S
C1644 C1645 1.391 . S
C1645 H1633 0.950 . S
C1645 C1641 1.393 . S
C1645 C1644 1.391 . S
C1646 H1636 0.950 . S
C1646 C1647 1.386 . S
C1646 C1648 1.391 1_455 S
C1647 C1646 1.386 . S
C1647 C1651 1.393 . S
C1648 H1637 0.950 . S
C1648 C1646 1.391 1_655 S
C1648 C1649 1.400 . S
C1649 C1643 1.491 . S
C1649 C1648 1.400 . S
C1649 C1650 1.398 . S
C1650 H1638 0.950 . S
C1650 C1649 1.398 . S
C1650 C1651 1.391 1_655 S
C1651 H1639 0.950 . S
C1651 C1647 1.393 . S
C1651 C1650 1.391 1_455 S
H1652 C1660 0.950 . S
H1653 C1665 0.950 . S
H1654 C1662 0.950 . S
H1655 C1664 0.950 . S
H1656 C1666 0.950 . S
H1657 C1668 0.950 . S
H1658 C1670 0.950 . S
H1659 C1671 0.950 . S
C1660 H1652 0.950 . S
C1660 C1661 1.386 . S
C1660 C1662 1.391 . S
C1661 C1660 1.386 . S
C1661 C1665 1.393 . S
C1662 H1654 0.950 . S
C1662 C1660 1.391 . S
C1662 C1663 1.400 . S
C1663 C1662 1.400 . S
C1663 C1664 1.398 . S
C1663 C1669 1.491 . S
C1664 H1655 0.950 . S
C1664 C1663 1.398 . S
C1664 C1665 1.391 . S
C1665 H1653 0.950 . S
C1665 C1661 1.393 . S
C1665 C1664 1.391 . S
C1666 H1656 0.950 . S
C1666 C1667 1.386 . S
C1666 C1668 1.391 . S
C1667 C1666 1.386 . S
C1667 C1671 1.393 . S
C1668 H1657 0.950 . S
C1668 C1666 1.391 . S
C1668 C1669 1.400 . S
C1669 C1663 1.491 . S
C1669 C1668 1.400 . S
C1669 C1670 1.398 . S
C1670 H1658 0.950 . S
C1670 C1669 1.398 . S
C1670 C1671 1.391 . S
C1671 H1659 0.950 . S
C1671 C1667 1.393 . S
C1671 C1670 1.391 . S
H1672 C1680 0.950 . S
H1673 C1685 0.950 . S
H1674 C1682 0.950 . S
H1675 C1684 0.950 . S
H1676 C1686 0.949 . S
H1677 C1688 0.950 . S
H1678 C1690 0.950 . S
H1679 C1691 0.950 . S
C1680 H1672 0.950 . S
C1680 C1681 1.386 . S
C1680 C1682 1.391 . S
C1681 C1680 1.386 . S
C1681 C1685 1.393 . S
C1682 H1674 0.950 . S
C1682 C1680 1.391 . S
C1682 C1683 1.400 . S
C1683 C1682 1.400 . S
C1683 C1684 1.398 . S
C1683 C1689 1.491 . S
C1684 H1675 0.950 . S
C1684 C1683 1.398 . S
C1684 C1685 1.391 . S
C1685 H1673 0.950 . S
C1685 C1681 1.393 . S
C1685 C1684 1.391 . S
C1686 H1676 0.949 . S
C1686 C1687 1.386 . S
C1686 C1688 1.391 1_655 S
C1687 C1686 1.386 . S
C1687 C1691 1.393 . S
C1688 H1677 0.950 . S
C1688 C1686 1.391 1_455 S
C1688 C1689 1.400 . S
C1689 C1683 1.491 . S
C1689 C1688 1.400 . S
C1689 C1690 1.398 1_455 S
C1690 H1678 0.950 . S
C1690 C1689 1.398 1_655 S
C1690 C1691 1.391 . S
C1691 H1679 0.950 . S
C1691 C1687 1.393 . S
C1691 C1690 1.391 . S
H1692 C1700 0.950 . S
H1693 C1705 0.950 . S
H1694 C1702 0.950 . S
H1695 C1704 0.950 . S
H1696 C1706 0.950 . S
H1697 C1708 0.950 . S
H1698 C1710 0.950 . S
H1699 C1711 0.950 . S
C1700 H1692 0.950 . S
C1700 C1701 1.386 . S
C1700 C1702 1.391 . S
C1701 C1700 1.386 . S
C1701 C1705 1.393 . S
C1702 H1694 0.950 . S
C1702 C1700 1.391 . S
C1702 C1703 1.400 . S
C1703 C1702 1.400 . S
C1703 C1704 1.398 . S
C1703 C1709 1.491 . S
C1704 H1695 0.950 . S
C1704 C1703 1.398 . S
C1704 C1705 1.391 . S
C1705 H1693 0.950 . S
C1705 C1701 1.393 . S
C1705 C1704 1.391 . S
C1706 H1696 0.950 . S
C1706 C1707 1.386 . S
C1706 C1708 1.391 . S
C1707 C1706 1.386 . S
C1707 C1711 1.393 . S
C1708 H1697 0.950 . S
C1708 C1706 1.391 . S
C1708 C1709 1.400 1_554 S
C1709 C1703 1.491 . S
C1709 C1708 1.400 1_556 S
C1709 C1710 1.398 . S
C1710 H1698 0.950 . S
C1710 C1709 1.398 . S
C1710 C1711 1.391 1_556 S
C1711 H1699 0.950 . S
C1711 C1707 1.393 . S
C1711 C1710 1.391 1_554 S
H1712 C1720 0.950 . S
H1713 C1725 0.950 . S
H1714 C1722 0.950 . S
H1715 C1724 0.950 . S
H1716 C1726 0.950 . S
H1717 C1728 0.950 . S
H1718 C1730 0.950 . S
H1719 C1731 0.950 . S
C1720 H1712 0.950 . S
C1720 C1721 1.386 . S
C1720 C1722 1.391 . S
C1721 C1720 1.386 . S
C1721 C1725 1.393 . S
C1722 H1714 0.950 . S
C1722 C1720 1.391 . S
C1722 C1723 1.400 . S
C1723 C1722 1.400 . S
C1723 C1724 1.398 . S
C1723 C1729 1.491 . S
C1724 H1715 0.950 . S
C1724 C1723 1.398 . S
C1724 C1725 1.391 . S
C1725 H1713 0.950 . S
C1725 C1721 1.393 . S
C1725 C1724 1.391 . S
C1726 H1716 0.950 . S
C1726 C1727 1.386 . S
C1726 C1728 1.391 . S
C1727 C1726 1.386 . S
C1727 C1731 1.393 . S
C1728 H1717 0.950 . S
C1728 C1726 1.391 . S
C1728 C1729 1.400 . S
C1729 C1723 1.491 . S
C1729 C1728 1.400 . S
C1729 C1730 1.398 . S
C1730 H1718 0.950 . S
C1730 C1729 1.398 . S
C1730 C1731 1.391 . S
C1731 H1719 0.950 . S
C1731 C1727 1.393 . S
C1731 C1730 1.391 . S
H1732 C1740 0.950 . S
H1733 C1745 0.950 . S
H1734 C1742 0.950 . S
H1735 C1744 0.950 . S
H1736 C1746 0.950 . S
H1737 C1748 0.950 . S
H1738 C1750 0.950 . S
H1739 C1751 0.950 . S
C1740 H1732 0.950 . S
C1740 C1741 1.386 . S
C1740 C1742 1.391 . S
C1741 C1740 1.386 . S
C1741 C1745 1.393 . S
C1742 H1734 0.950 . S
C1742 C1740 1.391 . S
C1742 C1743 1.400 . S
C1743 C1742 1.400 . S
C1743 C1744 1.398 . S
C1743 C1749 1.491 . S
C1744 H1735 0.950 . S
C1744 C1743 1.398 . S
C1744 C1745 1.391 . S
C1745 H1733 0.950 . S
C1745 C1741 1.393 . S
C1745 C1744 1.391 . S
C1746 H1736 0.950 . S
C1746 C1747 1.386 . S
C1746 C1748 1.391 . S
C1747 C1746 1.386 . S
C1747 C1751 1.393 . S
C1748 H1737 0.950 . S
C1748 C1746 1.391 . S
C1748 C1749 1.400 1_545 S
C1749 C1743 1.491 . S
C1749 C1748 1.400 1_565 S
C1749 C1750 1.398 . S
C1750 H1738 0.950 . S
C1750 C1749 1.398 . S
C1750 C1751 1.391 1_565 S
C1751 H1739 0.950 . S
C1751 C1747 1.393 . S
C1751 C1750 1.391 1_545 S
H1752 C1760 0.950 . S
H1753 C1765 0.950 . S
H1754 C1762 0.950 . S
H1755 C1764 0.950 . S
H1756 C1766 0.950 . S
H1757 C1768 0.950 . S
H1758 C1770 0.950 . S
H1759 C1771 0.950 . S
C1760 H1752 0.950 . S
C1760 C1761 1.386 . S
C1760 C1762 1.391 . S
C1761 C1760 1.386 . S
C1761 C1765 1.393 . S
C1762 H1754 0.950 . S
C1762 C1760 1.391 . S
C1762 C1763 1.400 . S
C1763 C1762 1.400 . S
C1763 C1764 1.398 . S
C1763 C1769 1.491 . S
C1764 H1755 0.950 . S
C1764 C1763 1.398 . S
C1764 C1765 1.391 . S
C1765 H1753 0.950 . S
C1765 C1761 1.393 . S
C1765 C1764 1.391 . S
C1766 H1756 0.950 . S
C1766 C1767 1.386 . S
C1766 C1768 1.391 . S
C1767 C1766 1.386 . S
C1767 C1771 1.393 . S
C1768 H1757 0.950 . S
C1768 C1766 1.391 . S
C1768 C1769 1.400 . S
C1769 C1763 1.491 . S
C1769 C1768 1.400 . S
C1769 C1770 1.398 . S
C1770 H1758 0.950 . S
C1770 C1769 1.398 . S
C1770 C1771 1.391 . S
C1771 H1759 0.950 . S
C1771 C1767 1.393 . S
C1771 C1770 1.391 . S
H1772 C1780 0.950 . S
H1773 C1785 0.950 . S
H1774 C1782 0.950 . S
H1775 C1784 0.950 . S
H1776 C1786 0.950 . S
H1777 C1788 0.950 . S
H1778 C1790 0.950 . S
H1779 C1791 0.950 . S
C1780 H1772 0.950 . S
C1780 C1781 1.386 . S
C1780 C1782 1.391 . S
C1781 C1780 1.386 . S
C1781 C1785 1.393 . S
C1782 H1774 0.950 . S
C1782 C1780 1.391 . S
C1782 C1783 1.400 . S
C1783 C1782 1.400 . S
C1783 C1784 1.398 . S
C1783 C1789 1.491 . S
C1784 H1775 0.950 . S
C1784 C1783 1.398 . S
C1784 C1785 1.391 . S
C1785 H1773 0.950 . S
C1785 C1781 1.393 . S
C1785 C1784 1.391 . S
C1786 H1776 0.950 . S
C1786 C1787 1.386 . S
C1786 C1788 1.391 . S
C1787 C1786 1.386 . S
C1787 C1791 1.393 . S
C1788 H1777 0.950 . S
C1788 C1786 1.391 . S
C1788 C1789 1.400 . S
C1789 C1783 1.491 . S
C1789 C1788 1.400 . S
C1789 C1790 1.398 . S
C1790 H1778 0.950 . S
C1790 C1789 1.398 . S
C1790 C1791 1.391 . S
C1791 H1779 0.950 . S
C1791 C1787 1.393 . S
C1791 C1790 1.391 . S
H1792 C1800 0.950 . S
H1793 C1805 0.950 . S
H1794 C1802 0.950 . S
H1795 C1804 0.950 . S
H1796 C1806 0.950 . S
H1797 C1808 0.950 . S
H1798 C1810 0.950 . S
H1799 C1811 0.950 . S
C1800 H1792 0.950 . S
C1800 C1801 1.386 . S
C1800 C1802 1.391 . S
C1801 C1800 1.386 . S
C1801 C1805 1.393 . S
C1802 H1794 0.950 . S
C1802 C1800 1.391 . S
C1802 C1803 1.400 . S
C1803 C1802 1.400 . S
C1803 C1804 1.398 . S
C1803 C1809 1.491 . S
C1804 H1795 0.950 . S
C1804 C1803 1.398 . S
C1804 C1805 1.391 . S
C1805 H1793 0.950 . S
C1805 C1801 1.393 . S
C1805 C1804 1.391 . S
C1806 H1796 0.950 . S
C1806 C1807 1.386 . S
C1806 C1808 1.391 . S
C1807 C1806 1.386 . S
C1807 C1811 1.393 . S
C1808 H1797 0.950 . S
C1808 C1806 1.391 . S
C1808 C1809 1.400 . S
C1809 C1803 1.491 . S
C1809 C1808 1.400 . S
C1809 C1810 1.398 . S
C1810 H1798 0.950 . S
C1810 C1809 1.398 . S
C1810 C1811 1.391 . S
C1811 H1799 0.950 . S
C1811 C1807 1.393 . S
C1811 C1810 1.391 . S
H1812 C1820 0.950 . S
H1813 C1825 0.950 . S
H1814 C1822 0.950 . S
H1815 C1824 0.950 . S
H1816 C1826 0.950 . S
H1817 C1828 0.950 . S
H1818 C1830 0.934 1_556 S
H1819 C1831 0.950 . S
C1820 H1812 0.950 . S
C1820 C1821 1.386 . S
C1820 C1822 1.391 . S
C1821 C1820 1.386 . S
C1821 C1825 1.393 . S
C1822 H1814 0.950 . S
C1822 C1820 1.391 . S
C1822 C1823 1.400 . S
C1823 C1822 1.400 . S
C1823 C1824 1.398 . S
C1823 C1829 1.491 . S
C1824 H1815 0.950 . S
C1824 C1823 1.398 . S
C1824 C1825 1.391 . S
C1825 H1813 0.950 . S
C1825 C1821 1.393 . S
C1825 C1824 1.391 . S
C1826 H1816 0.950 . S
C1826 C1827 1.386 . S
C1826 C1828 1.391 . S
C1827 C1826 1.386 . S
C1827 C1831 1.393 . S
C1828 H1817 0.950 . S
C1828 C1826 1.391 . S
C1828 C1829 1.400 1_554 S
C1829 C1823 1.491 . S
C1829 C1828 1.400 1_556 S
C1829 C1830 1.394 1_556 S
C1830 H1818 0.934 1_554 S
C1830 C1829 1.394 1_554 S
C1830 C1831 1.412 . S
C1831 H1819 0.950 . S
C1831 C1827 1.393 . S
C1831 C1830 1.412 . S
H1832 C1840 0.950 . S
H1833 C1845 0.950 . S
H1834 C1842 0.950 . S
H1835 C1844 0.950 . S
H1836 C1846 0.950 . S
H1837 C1848 0.950 . S
H1838 C1850 0.950 . S
H1839 C1851 0.950 . S
C1840 H1832 0.950 . S
C1840 C1841 1.386 . S
C1840 C1842 1.391 . S
C1841 C1840 1.386 . S
C1841 C1845 1.393 . S
C1842 H1834 0.950 . S
C1842 C1840 1.391 . S
C1842 C1843 1.400 . S
C1843 C1842 1.400 . S
C1843 C1844 1.398 . S
C1843 C1849 1.491 . S
C1844 H1835 0.950 . S
C1844 C1843 1.398 . S
C1844 C1845 1.391 . S
C1845 H1833 0.950 . S
C1845 C1841 1.393 . S
C1845 C1844 1.391 . S
C1846 H1836 0.950 . S
C1846 C1847 1.386 . S
C1846 C1848 1.391 . S
C1847 C1846 1.386 . S
C1847 C1851 1.393 . S
C1848 H1837 0.950 . S
C1848 C1846 1.391 . S
C1848 C1849 1.400 . S
C1849 C1843 1.491 . S
C1849 C1848 1.400 . S
C1849 C1850 1.398 . S
C1850 H1838 0.950 . S
C1850 C1849 1.398 . S
C1850 C1851 1.391 . S
C1851 H1839 0.950 . S
C1851 C1847 1.393 . S
C1851 C1850 1.391 . S
H1852 C1860 0.950 . S
H1853 C1865 0.950 . S
H1854 C1862 0.950 . S
H1855 C1864 0.950 . S
H1856 C1866 0.950 . S
H1857 C1868 0.950 . S
H1858 C1870 0.950 . S
H1859 C1871 0.950 . S
C1860 H1852 0.950 . S
C1860 C1861 1.386 1_565 S
C1860 C1862 1.391 . S
C1861 C1860 1.386 1_545 S
C1861 C1865 1.393 . S
C1862 H1854 0.950 . S
C1862 C1860 1.391 . S
C1862 C1863 1.400 . S
C1863 C1862 1.400 . S
C1863 C1864 1.398 1_565 S
C1863 C1869 1.491 . S
C1864 H1855 0.950 . S
C1864 C1863 1.398 1_545 S
C1864 C1865 1.391 . S
C1865 H1853 0.950 . S
C1865 C1861 1.393 . S
C1865 C1864 1.391 . S
C1866 H1856 0.950 . S
C1866 C1867 1.386 . S
C1866 C1868 1.391 . S
C1867 C1866 1.386 . S
C1867 C1871 1.393 . S
C1868 H1857 0.950 . S
C1868 C1866 1.391 . S
C1868 C1869 1.400 . S
C1869 C1863 1.491 . S
C1869 C1868 1.400 . S
C1869 C1870 1.398 . S
C1870 H1858 0.950 . S
C1870 C1869 1.398 . S
C1870 C1871 1.391 . S
C1871 H1859 0.950 . S
C1871 C1867 1.393 . S
C1871 C1870 1.391 . S
H1872 C1880 0.950 . S
H1873 C1885 0.950 . S
H1874 C1882 0.950 . S
H1875 C1884 0.950 . S
H1876 C1886 0.950 . S
H1877 C1888 0.950 . S
H1878 C1890 0.950 . S
H1879 C1891 0.950 . S
C1880 H1872 0.950 . S
C1880 C1881 1.386 . S
C1880 C1882 1.391 . S
C1881 C1880 1.386 . S
C1881 C1885 1.393 . S
C1882 H1874 0.950 . S
C1882 C1880 1.391 . S
C1882 C1883 1.400 . S
C1883 C1882 1.400 . S
C1883 C1884 1.398 . S
C1883 C1889 1.491 . S
C1884 H1875 0.950 . S
C1884 C1883 1.398 . S
C1884 C1885 1.391 . S
C1885 H1873 0.950 . S
C1885 C1881 1.393 . S
C1885 C1884 1.391 . S
C1886 H1876 0.950 . S
C1886 C1887 1.386 . S
C1886 C1888 1.390 1_556 S
C1887 C1886 1.386 . S
C1887 C1891 1.393 . S
C1888 H1877 0.950 . S
C1888 C1886 1.390 1_554 S
C1888 C1889 1.400 . S
C1889 C1883 1.491 . S
C1889 C1888 1.400 . S
C1889 C1890 1.398 1_554 S
C1890 H1878 0.950 . S
C1890 C1889 1.398 1_556 S
C1890 C1891 1.391 . S
C1891 H1879 0.950 . S
C1891 C1887 1.393 . S
C1891 C1890 1.391 . S
H1892 C1900 0.950 . S
H1893 C1905 0.950 . S
H1894 C1902 0.950 . S
H1895 C1904 0.950 . S
H1896 C1906 0.950 . S
H1897 C1908 0.950 . S
H1898 C1910 0.948 1_545 S
H1899 C1911 0.950 . S
C1900 H1892 0.950 . S
C1900 C1901 1.386 . S
C1900 C1902 1.391 . S
C1901 C1900 1.386 . S
C1901 C1905 1.393 1_545 S
C1902 H1894 0.950 . S
C1902 C1900 1.391 . S
C1902 C1903 1.400 1_545 S
C1903 C1902 1.400 1_565 S
C1903 C1904 1.398 . S
C1903 C1909 1.491 . S
C1904 H1895 0.950 . S
C1904 C1903 1.398 . S
C1904 C1905 1.391 . S
C1905 H1893 0.950 . S
C1905 C1901 1.393 1_565 S
C1905 C1904 1.391 . S
C1906 H1896 0.950 . S
C1906 C1907 1.386 . S
C1906 C1908 1.391 . S
C1907 C1906 1.386 . S
C1907 C1911 1.393 . S
C1908 H1897 0.950 . S
C1908 C1906 1.391 . S
C1908 C1909 1.400 . S
C1909 C1903 1.491 . S
C1909 C1908 1.400 . S
C1909 C1910 1.398 . S
C1910 H1898 0.948 1_565 S
C1910 C1909 1.398 . S
C1910 C1911 1.391 . S
C1911 H1899 0.950 . S
C1911 C1907 1.393 . S
C1911 C1910 1.391 . S
H1912 C1920 0.950 . S
H1913 C1925 0.950 . S
H1914 C1922 0.950 . S
H1915 C1924 0.950 . S
H1916 C1926 0.950 . S
H1917 C1928 0.950 . S
H1918 C1930 0.950 . S
H1919 C1931 0.950 . S
C1920 H1912 0.950 . S
C1920 C1921 1.386 . S
C1920 C1922 1.391 . S
C1921 C1920 1.386 . S
C1921 C1925 1.393 . S
C1922 H1914 0.950 . S
C1922 C1920 1.391 . S
C1922 C1923 1.400 . S
C1923 C1922 1.400 . S
C1923 C1924 1.398 . S
C1923 C1929 1.491 . S
C1924 H1915 0.950 . S
C1924 C1923 1.398 . S
C1924 C1925 1.391 . S
C1925 H1913 0.950 . S
C1925 C1921 1.393 . S
C1925 C1924 1.391 . S
C1926 H1916 0.950 . S
C1926 C1927 1.386 . S
C1926 C1928 1.391 . S
C1927 C1926 1.386 . S
C1927 C1931 1.393 . S
C1928 H1917 0.950 . S
C1928 C1926 1.391 . S
C1928 C1929 1.400 . S
C1929 C1923 1.491 . S
C1929 C1928 1.400 . S
C1929 C1930 1.398 . S
C1930 H1918 0.950 . S
C1930 C1929 1.398 . S
C1930 C1931 1.391 . S
C1931 H1919 0.950 . S
C1931 C1927 1.393 . S
C1931 C1930 1.391 . S
H1932 C1940 0.950 . S
H1933 C1945 0.950 . S
H1934 C1942 0.950 1_455 S
H1935 C1944 0.950 . S
H1936 C1946 0.950 . S
H1937 C1948 0.966 . S
H1938 C1950 0.950 . S
H1939 C1951 0.950 . S
C1940 H1932 0.950 . S
C1940 C1941 1.386 . S
C1940 C1942 1.391 . S
C1941 C1940 1.386 . S
C1941 C1945 1.393 . S
C1942 H1934 0.950 1_655 S
C1942 C1940 1.391 . S
C1942 C1943 1.400 . S
C1943 C1942 1.400 . S
C1943 C1944 1.398 . S
C1943 C1949 1.491 1_655 S
C1944 H1935 0.950 . S
C1944 C1943 1.398 . S
C1944 C1945 1.391 . S
C1945 H1933 0.950 . S
C1945 C1941 1.393 . S
C1945 C1944 1.391 . S
C1946 H1936 0.950 . S
C1946 C1947 1.386 . S
C1946 C1948 1.391 . S
C1947 C1946 1.386 . S
C1947 C1951 1.393 . S
C1948 H1937 0.966 . S
C1948 C1946 1.391 . S
C1948 C1949 1.400 . S
C1949 C1943 1.491 1_455 S
C1949 C1948 1.400 . S
C1949 C1950 1.398 . S
C1950 H1938 0.950 . S
C1950 C1949 1.398 . S
C1950 C1951 1.391 . S
C1951 H1939 0.950 . S
C1951 C1947 1.393 . S
C1951 C1950 1.391 . S
H1952 C1960 0.950 . S
H1953 C1965 0.950 . S
H1954 C1962 0.950 . S
H1955 C1964 0.950 . S
H1956 C1966 0.950 . S
H1957 C1968 0.950 . S
H1958 C1970 0.950 . S
H1959 C1971 0.950 . S
C1960 H1952 0.950 . S
C1960 C1961 1.386 . S
C1960 C1962 1.391 1_455 S
C1961 C1960 1.386 . S
C1961 C1965 1.393 . S
C1962 H1954 0.950 . S
C1962 C1960 1.391 1_655 S
C1962 C1963 1.400 . S
C1963 C1962 1.400 . S
C1963 C1964 1.398 1_655 S
C1963 C1969 1.491 . S
C1964 H1955 0.950 . S
C1964 C1963 1.398 1_455 S
C1964 C1965 1.391 . S
C1965 H1953 0.950 . S
C1965 C1961 1.393 . S
C1965 C1964 1.391 . S
C1966 H1956 0.950 . S
C1966 C1967 1.386 . S
C1966 C1968 1.391 . S
C1967 C1966 1.386 . S
C1967 C1971 1.393 . S
C1968 H1957 0.950 . S
C1968 C1966 1.391 . S
C1968 C1969 1.400 . S
C1969 C1963 1.491 . S
C1969 C1968 1.400 . S
C1969 C1970 1.398 . S
C1970 H1958 0.950 . S
C1970 C1969 1.398 . S
C1970 C1971 1.391 . S
C1971 H1959 0.950 . S
C1971 C1967 1.393 . S
C1971 C1970 1.391 . S
H1972 C1980 0.950 . S
H1973 C1985 0.950 . S
H1974 C1982 0.950 . S
H1975 C1984 0.950 . S
H1976 C1986 0.950 . S
H1977 C1988 0.950 . S
H1978 C1990 0.950 . S
H1979 C1991 0.950 . S
C1980 H1972 0.950 . S
C1980 C1981 1.386 . S
C1980 C1982 1.391 . S
C1981 C1980 1.386 . S
C1981 C1985 1.393 . S
C1982 H1974 0.950 . S
C1982 C1980 1.391 . S
C1982 C1983 1.400 . S
C1983 C1982 1.400 . S
C1983 C1984 1.398 . S
C1983 C1989 1.491 . S
C1984 H1975 0.950 . S
C1984 C1983 1.398 . S
C1984 C1985 1.391 . S
C1985 H1973 0.950 . S
C1985 C1981 1.393 . S
C1985 C1984 1.391 . S
C1986 H1976 0.950 . S
C1986 C1987 1.386 . S
C1986 C1988 1.391 . S
C1987 C1986 1.386 . S
C1987 C1991 1.393 . S
C1988 H1977 0.950 . S
C1988 C1986 1.391 . S
C1988 C1989 1.400 . S
C1989 C1983 1.491 . S
C1989 C1988 1.400 . S
C1989 C1990 1.398 . S
C1990 H1978 0.950 . S
C1990 C1989 1.398 . S
C1990 C1991 1.391 . S
C1991 H1979 0.950 . S
C1991 C1987 1.393 . S
C1991 C1990 1.391 . S
H1992 C2000 0.950 . S
H1993 C2005 0.950 . S
H1994 C2002 0.950 . S
H1995 C2004 0.950 1_655 S
H1996 C2006 0.950 . S
H1997 C2008 0.950 . S
H1998 C2010 0.950 . S
H1999 C2011 0.950 . S
C2000 H1992 0.950 . S
C2000 C2001 1.386 . S
C2000 C2002 1.391 . S
C2001 C2000 1.386 . S
C2001 C2005 1.393 . S
C2002 H1994 0.950 . S
C2002 C2000 1.391 . S
C2002 C2003 1.400 . S
C2003 C2002 1.400 . S
C2003 C2004 1.398 . S
C2003 C2009 1.491 1_455 S
C2004 H1995 0.950 1_455 S
C2004 C2003 1.398 . S
C2004 C2005 1.391 . S
C2005 H1993 0.950 . S
C2005 C2001 1.393 . S
C2005 C2004 1.391 . S
C2006 H1996 0.950 . S
C2006 C2007 1.386 . S
C2006 C2008 1.391 . S
C2007 C2006 1.386 . S
C2007 C2011 1.393 . S
C2008 H1997 0.950 . S
C2008 C2006 1.391 . S
C2008 C2009 1.400 . S
C2009 C2003 1.491 1_655 S
C2009 C2008 1.400 . S
C2009 C2010 1.398 . S
C2010 H1998 0.950 . S
C2010 C2009 1.398 . S
C2010 C2011 1.391 . S
C2011 H1999 0.950 . S
C2011 C2007 1.393 . S
C2011 C2010 1.391 . S
H2012 C2020 0.950 . S
H2013 C2025 0.950 . S
H2014 C2022 0.950 . S
H2015 C2024 0.950 . S
H2016 C2026 0.950 . S
H2017 C2028 0.950 . S
H2018 C2030 0.950 1_455 S
H2019 C2031 0.950 . S
C2020 H2012 0.950 . S
C2020 C2021 1.386 . S
C2020 C2022 1.391 . S
C2021 C2020 1.386 . S
C2021 C2025 1.393 . S
C2022 H2014 0.950 . S
C2022 C2020 1.391 . S
C2022 C2023 1.400 . S
C2023 C2022 1.400 . S
C2023 C2024 1.398 1_455 S
C2023 C2029 1.491 1_455 S
C2024 H2015 0.950 . S
C2024 C2023 1.398 1_655 S
C2024 C2025 1.391 1_655 S
C2025 H2013 0.950 . S
C2025 C2021 1.393 . S
C2025 C2024 1.391 1_455 S
C2026 H2016 0.950 . S
C2026 C2027 1.386 . S
C2026 C2028 1.391 . S
C2027 C2026 1.386 . S
C2027 C2031 1.393 . S
C2028 H2017 0.950 . S
C2028 C2026 1.391 . S
C2028 C2029 1.400 . S
C2029 C2023 1.491 1_655 S
C2029 C2028 1.400 . S
C2029 C2030 1.398 . S
C2030 H2018 0.950 1_655 S
C2030 C2029 1.398 . S
C2030 C2031 1.391 . S
C2031 H2019 0.950 . S
C2031 C2027 1.393 . S
C2031 C2030 1.391 . S
H2032 C2040 0.950 . S
H2033 C2045 0.950 . S
H2034 C2042 0.950 . S
H2035 C2044 0.950 . S
H2036 C2046 0.950 . S
H2037 C2048 0.950 . S
H2038 C2050 0.950 . S
H2039 C2051 0.950 . S
C2040 H2032 0.950 . S
C2040 C2041 1.386 . S
C2040 C2042 1.391 . S
C2041 C2040 1.386 . S
C2041 C2045 1.393 . S
C2042 H2034 0.950 . S
C2042 C2040 1.391 . S
C2042 C2043 1.400 . S
C2043 C2042 1.400 . S
C2043 C2044 1.398 . S
C2043 C2049 1.491 . S
C2044 H2035 0.950 . S
C2044 C2043 1.398 . S
C2044 C2045 1.391 . S
C2045 H2033 0.950 . S
C2045 C2041 1.393 . S
C2045 C2044 1.391 . S
C2046 H2036 0.950 . S
C2046 C2047 1.386 . S
C2046 C2048 1.391 . S
C2047 C2046 1.386 . S
C2047 C2051 1.393 . S
C2048 H2037 0.950 . S
C2048 C2046 1.391 . S
C2048 C2049 1.400 . S
C2049 C2043 1.491 . S
C2049 C2048 1.400 . S
C2049 C2050 1.398 . S
C2050 H2038 0.950 . S
C2050 C2049 1.398 . S
C2050 C2051 1.391 . S
C2051 H2039 0.950 . S
C2051 C2047 1.393 . S
C2051 C2050 1.391 . S
H2052 C2060 0.950 . S
H2053 C2065 0.950 . S
H2054 C2062 0.950 . S
H2055 C2064 0.950 . S
H2056 C2066 0.950 . S
H2057 C2068 0.950 . S
H2058 C2070 0.950 . S
H2059 C2071 0.950 . S
C2060 H2052 0.950 . S
C2060 C2061 1.386 . S
C2060 C2062 1.391 . S
C2061 C2060 1.386 . S
C2061 C2065 1.393 . S
C2062 H2054 0.950 . S
C2062 C2060 1.391 . S
C2062 C2063 1.400 . S
C2063 C2062 1.400 . S
C2063 C2064 1.398 . S
C2063 C2069 1.491 . S
C2064 H2055 0.950 . S
C2064 C2063 1.398 . S
C2064 C2065 1.391 . S
C2065 H2053 0.950 . S
C2065 C2061 1.393 . S
C2065 C2064 1.391 . S
C2066 H2056 0.950 . S
C2066 C2067 1.386 . S
C2066 C2068 1.391 1_545 S
C2067 C2066 1.386 . S
C2067 C2071 1.393 1_545 S
C2068 H2057 0.950 . S
C2068 C2066 1.391 1_565 S
C2068 C2069 1.400 . S
C2069 C2063 1.491 . S
C2069 C2068 1.400 . S
C2069 C2070 1.398 . S
C2070 H2058 0.950 . S
C2070 C2069 1.398 . S
C2070 C2071 1.391 . S
C2071 H2059 0.950 . S
C2071 C2067 1.393 1_565 S
C2071 C2070 1.391 . S
H2072 C2080 0.950 . S
H2073 C2085 0.950 . S
H2074 C2082 0.950 . S
H2075 C2084 0.987 . S
H2076 C2086 0.950 . S
H2077 C2088 0.950 . S
H2078 C2090 0.950 . S
H2079 C2091 0.950 . S
C2080 H2072 0.950 . S
C2080 C2081 1.386 . S
C2080 C2082 1.391 . S
C2081 C2080 1.386 . S
C2081 C2085 1.393 . S
C2082 H2074 0.950 . S
C2082 C2080 1.391 . S
C2082 C2083 1.400 . S
C2083 C2082 1.400 . S
C2083 C2084 1.398 . S
C2083 C2089 1.491 . S
C2084 H2075 0.987 . S
C2084 C2083 1.398 . S
C2084 C2085 1.391 . S
C2085 H2073 0.950 . S
C2085 C2081 1.393 . S
C2085 C2084 1.391 . S
C2086 H2076 0.950 . S
C2086 C2087 1.386 . S
C2086 C2088 1.391 . S
C2087 C2086 1.386 . S
C2087 C2091 1.393 . S
C2088 H2077 0.950 . S
C2088 C2086 1.391 . S
C2088 C2089 1.400 1_554 S
C2089 C2083 1.491 . S
C2089 C2088 1.400 1_556 S
C2089 C2090 1.398 . S
C2090 H2078 0.950 . S
C2090 C2089 1.398 . S
C2090 C2091 1.391 1_556 S
C2091 H2079 0.950 . S
C2091 C2087 1.393 . S
C2091 C2090 1.391 1_554 S
H2092 C2100 0.950 . S
H2093 C2105 0.950 . S
H2094 C2102 0.950 . S
H2095 C2104 0.950 . S
H2096 C2106 0.950 . S
H2097 C2108 0.950 . S
H2098 C2110 0.950 . S
H2099 C2111 0.950 . S
C2100 H2092 0.950 . S
C2100 C2101 1.386 . S
C2100 C2102 1.391 . S
C2101 C2100 1.386 . S
C2101 C2105 1.393 . S
C2102 H2094 0.950 . S
C2102 C2100 1.391 . S
C2102 C2103 1.400 . S
C2103 C2102 1.400 . S
C2103 C2104 1.398 . S
C2103 C2109 1.491 . S
C2104 H2095 0.950 . S
C2104 C2103 1.398 . S
C2104 C2105 1.391 . S
C2105 H2093 0.950 . S
C2105 C2101 1.393 . S
C2105 C2104 1.391 . S
C2106 H2096 0.950 . S
C2106 C2107 1.386 . S
C2106 C2108 1.391 1_565 S
C2107 C2106 1.386 . S
C2107 C2111 1.393 . S
C2108 H2097 0.950 . S
C2108 C2106 1.391 1_545 S
C2108 C2109 1.400 . S
C2109 C2103 1.491 . S
C2109 C2108 1.400 . S
C2109 C2110 1.398 1_545 S
C2110 H2098 0.950 . S
C2110 C2109 1.398 1_565 S
C2110 C2111 1.391 . S
C2111 H2099 0.950 . S
C2111 C2107 1.393 . S
C2111 C2110 1.391 . S
H2112 C2120 0.950 . S
H2113 C2125 0.950 . S
H2114 C2122 0.950 . S
H2115 C2124 0.950 . S
H2116 C2126 0.950 . S
H2117 C2128 0.950 . S
H2118 C2130 0.950 . S
H2119 C2131 0.950 . S
C2120 H2112 0.950 . S
C2120 C2121 1.386 . S
C2120 C2122 1.391 . S
C2121 C2120 1.386 . S
C2121 C2125 1.393 . S
C2122 H2114 0.950 . S
C2122 C2120 1.391 . S
C2122 C2123 1.400 . S
C2123 C2122 1.400 . S
C2123 C2124 1.398 . S
C2123 C2129 1.491 . S
C2124 H2115 0.950 . S
C2124 C2123 1.398 . S
C2124 C2125 1.391 . S
C2125 H2113 0.950 . S
C2125 C2121 1.393 . S
C2125 C2124 1.391 . S
C2126 H2116 0.950 . S
C2126 C2127 1.386 . S
C2126 C2128 1.391 . S
C2127 C2126 1.386 . S
C2127 C2131 1.393 . S
C2128 H2117 0.950 . S
C2128 C2126 1.391 . S
C2128 C2129 1.400 . S
C2129 C2123 1.491 . S
C2129 C2128 1.400 . S
C2129 C2130 1.398 . S
C2130 H2118 0.950 . S
C2130 C2129 1.398 . S
C2130 C2131 1.391 . S
C2131 H2119 0.950 . S
C2131 C2127 1.393 . S
C2131 C2130 1.391 . S
H2132 C2140 0.950 . S
H2133 C2145 0.950 . S
H2134 C2142 0.950 . S
H2135 C2144 0.950 . S
H2136 C2146 0.950 . S
H2137 C2148 0.950 . S
H2138 C2150 0.950 . S
H2139 C2151 0.950 . S
C2140 H2132 0.950 . S
C2140 C2141 1.386 . S
C2140 C2142 1.391 1_554 S
C2141 C2140 1.386 . S
C2141 C2145 1.393 . S
C2142 H2134 0.950 . S
C2142 C2140 1.391 1_556 S
C2142 C2143 1.400 . S
C2143 C2142 1.400 . S
C2143 C2144 1.398 1_556 S
C2143 C2149 1.491 . S
C2144 H2135 0.950 . S
C2144 C2143 1.398 1_554 S
C2144 C2145 1.391 . S
C2145 H2133 0.950 . S
C2145 C2141 1.393 . S
C2145 C2144 1.391 . S
C2146 H2136 0.950 . S
C2146 C2147 1.386 . S
C2146 C2148 1.391 . S
C2147 C2146 1.386 . S
C2147 C2151 1.393 . S
C2148 H2137 0.950 . S
C2148 C2146 1.391 . S
C2148 C2149 1.400 . S
C2149 C2143 1.491 . S
C2149 C2148 1.400 . S
C2149 C2150 1.398 . S
C2150 H2138 0.950 . S
C2150 C2149 1.398 . S
C2150 C2151 1.391 . S
C2151 H2139 0.950 . S
C2151 C2147 1.393 . S
C2151 C2150 1.391 . S
H2152 C2160 0.950 . S
H2153 C2165 0.950 . S
H2154 C2162 0.950 . S
H2155 C2164 0.950 . S
H2156 C2166 0.950 . S
H2157 C2168 0.950 . S
H2158 C2170 0.950 . S
H2159 C2171 0.950 . S
C2160 H2152 0.950 . S
C2160 C2161 1.386 . S
C2160 C2162 1.391 . S
C2161 C2160 1.386 . S
C2161 C2165 1.393 . S
C2162 H2154 0.950 . S
C2162 C2160 1.391 . S
C2162 C2163 1.400 . S
C2163 C2162 1.400 . S
C2163 C2164 1.398 . S
C2163 C2169 1.491 . S
C2164 H2155 0.950 . S
C2164 C2163 1.398 . S
C2164 C2165 1.391 . S
C2165 H2153 0.950 . S
C2165 C2161 1.393 . S
C2165 C2164 1.391 . S
C2166 H2156 0.950 . S
C2166 C2167 1.386 . S
C2166 C2168 1.391 . S
C2167 C2166 1.386 . S
C2167 C2171 1.393 . S
C2168 H2157 0.950 . S
C2168 C2166 1.391 . S
C2168 C2169 1.400 . S
C2169 C2163 1.491 . S
C2169 C2168 1.400 . S
C2169 C2170 1.398 . S
C2170 H2158 0.950 . S
C2170 C2169 1.398 . S
C2170 C2171 1.391 . S
C2171 H2159 0.950 . S
C2171 C2167 1.393 . S
C2171 C2170 1.391 . S
H2172 C2180 0.950 . S
H2173 C2185 0.950 . S
H2174 C2182 0.950 . S
H2175 C2184 0.950 . S
H2176 C2186 0.950 . S
H2177 C2188 0.950 . S
H2178 C2190 0.950 . S
H2179 C2191 0.950 . S
C2180 H2172 0.950 . S
C2180 C2181 1.386 . S
C2180 C2182 1.391 . S
C2181 C2180 1.386 . S
C2181 C2185 1.393 . S
C2182 H2174 0.950 . S
C2182 C2180 1.391 . S
C2182 C2183 1.400 . S
C2183 C2182 1.400 . S
C2183 C2184 1.398 . S
C2183 C2189 1.491 . S
C2184 H2175 0.950 . S
C2184 C2183 1.398 . S
C2184 C2185 1.391 . S
C2185 H2173 0.950 . S
C2185 C2181 1.393 . S
C2185 C2184 1.391 . S
C2186 H2176 0.950 . S
C2186 C2187 1.386 . S
C2186 C2188 1.391 . S
C2187 C2186 1.386 . S
C2187 C2191 1.393 . S
C2188 H2177 0.950 . S
C2188 C2186 1.391 . S
C2188 C2189 1.400 . S
C2189 C2183 1.491 . S
C2189 C2188 1.400 . S
C2189 C2190 1.398 . S
C2190 H2178 0.950 . S
C2190 C2189 1.398 . S
C2190 C2191 1.391 . S
C2191 H2179 0.950 . S
C2191 C2187 1.393 . S
C2191 C2190 1.391 . S
H2192 C2200 0.950 . S
H2193 C2205 0.950 . S
H2194 C2202 0.950 . S
H2195 C2204 0.950 . S
H2196 C2206 0.950 . S
H2197 C2208 0.950 . S
H2198 C2210 0.950 . S
H2199 C2211 0.950 . S
C2200 H2192 0.950 . S
C2200 C2201 1.386 . S
C2200 C2202 1.391 . S
C2201 C2200 1.386 . S
C2201 C2205 1.393 . S
C2202 H2194 0.950 . S
C2202 C2200 1.391 . S
C2202 C2203 1.400 . S
C2203 C2202 1.400 . S
C2203 C2204 1.398 . S
C2203 C2209 1.491 . S
C2204 H2195 0.950 . S
C2204 C2203 1.398 . S
C2204 C2205 1.391 . S
C2205 H2193 0.950 . S
C2205 C2201 1.393 . S
C2205 C2204 1.391 . S
C2206 H2196 0.950 . S
C2206 C2207 1.386 . S
C2206 C2208 1.391 . S
C2207 C2206 1.386 . S
C2207 C2211 1.393 . S
C2208 H2197 0.950 . S
C2208 C2206 1.391 . S
C2208 C2209 1.400 . S
C2209 C2203 1.491 . S
C2209 C2208 1.400 . S
C2209 C2210 1.398 . S
C2210 H2198 0.950 . S
C2210 C2209 1.398 . S
C2210 C2211 1.391 . S
C2211 H2199 0.950 . S
C2211 C2207 1.393 . S
C2211 C2210 1.391 . S
H2212 C2220 0.950 . S
H2213 C2225 0.950 . S
H2214 C2222 0.950 . S
H2215 C2224 0.950 . S
H2216 C2226 0.950 . S
H2217 C2228 0.950 . S
H2218 C2230 0.950 . S
H2219 C2231 0.950 . S
C2220 H2212 0.950 . S
C2220 C2221 1.386 . S
C2220 C2222 1.391 . S
C2221 C2220 1.386 . S
C2221 C2225 1.393 . S
C2222 H2214 0.950 . S
C2222 C2220 1.391 . S
C2222 C2223 1.400 . S
C2223 C2222 1.400 . S
C2223 C2224 1.398 . S
C2223 C2229 1.491 . S
C2224 H2215 0.950 . S
C2224 C2223 1.398 . S
C2224 C2225 1.391 . S
C2225 H2213 0.950 . S
C2225 C2221 1.393 . S
C2225 C2224 1.391 . S
C2226 H2216 0.950 . S
C2226 C2227 1.386 . S
C2226 C2228 1.391 . S
C2227 C2226 1.386 . S
C2227 C2231 1.393 . S
C2228 H2217 0.950 . S
C2228 C2226 1.391 . S
C2228 C2229 1.400 . S
C2229 C2223 1.491 . S
C2229 C2228 1.400 . S
C2229 C2230 1.398 . S
C2230 H2218 0.950 . S
C2230 C2229 1.398 . S
C2230 C2231 1.391 . S
C2231 H2219 0.950 . S
C2231 C2227 1.393 . S
C2231 C2230 1.391 . S
C1281 C29 1.408 . S
C1287 C506 1.405 . S
C1301 C82 1.199 . S
C1307 C559 1.199 . S
C1321 C622 1.702 . S
C1327 C135 1.708 . S
C1341 C463 1.667 . S
C1347 C188 1.668 . S
C1361 C569 1.497 . S
C1367 C251 1.496 . S
C1381 C304 1.255 . S
C1387 C612 1.261 . S
C1401 C357 1.585 . S
C1407 C453 1.583 . S
C1421 C516 1.737 . S
C1427 C410 1.737 . S
C1441 C241 1.504 . S
C1447 C674 1.504 . S
C1461 C400 1.241 . S
C1467 C817 1.238 . S
C1481 C887 1.690 . S
C1487 C294 1.692 . S
C1501 C198 1.519 . S
C1507 C728 1.521 . S
C1521 C780 1.577 . S
C1527 C347 1.578 . S
C1541 C39 1.614 . S
C1547 C1036 1.612 . S
C1561 C145 1.260 . S
C1567 C983 1.259 . S
C1581 C833 1.453 . S
C1587 C1152 1.451 . S
C1601 C1205 1.569 . S
C1607 C658 1.569 . S
C1621 C1258 1.219 . S
C1627 C877 1.224 . S
C1641 C1099 1.241 . S
C1647 C764 1.243 . S
C1661 C1195 1.466 . S
C1667 C930 1.465 . S
C1681 C993 1.719 . S
C1687 C1248 1.719 . S
C1701 C1089 1.238 . S
C1707 C718 1.235 . S
C1721 C1046 1.364 . S
C1727 C1142 1.364 . S
C1741 C92 1.548 . S
C1747 C940 1.547 . S
C1761 C250 1.145 . S
C1767 C22 1.142 . S
C1781 C75 0.899 . S
C1787 C303 0.897 . S
C1801 C128 1.315 . S
C1807 C356 1.323 . S
C1821 C409 1.322 . S
C1827 C181 1.316 . S
C1841 C462 1.408 . S
C1847 C515 1.408 . S
C1861 C499 1.132 . S
C1867 C568 1.130 . S
C1881 C605 0.887 . S
C1887 C552 0.888 . S
C1901 C446 1.253 . S
C1907 C621 1.262 . S
C1921 C197 1.195 . S
C1927 C675 1.190 . S
C1941 C393 0.905 . S
C1947 C976 0.906 . S
C1961 C234 1.224 . S
C1967 C727 1.227 . S
C1981 C1029 1.204 . S
C1987 C287 1.205 . S
C2001 C781 1.171 . S
C2007 C91 1.172 . S
C2021 C38 1.257 . S
C2027 C886 1.263 . S
C2041 C144 0.822 . S
C2047 C824 0.824 . S
C2061 C834 1.120 . S
C2067 C923 1.120 . S
C2081 C992 1.202 . S
C2087 C665 1.202 . S
C2101 C870 0.878 . S
C2107 C711 0.881 . S
C2121 C771 0.993 . S
C2127 C1045 0.993 . S
C2141 C1135 0.972 . S
C2147 C1098 0.979 . S
C2161 C1188 1.133 . S
C2167 C1151 1.131 . S
C2181 C1241 1.320 . S
C2187 C1204 1.330 . S
C2201 C1082 0.908 . S
C2207 C1257 0.917 . S
C2221 C939 1.213 . S
C2227 C340 1.214 . S
