# Generated by pormake.
# Topology zni, (4)-cn, num edge types: 1
# Building blocks:
#     Node 0, Type 0, BuildingBlock: KUFVIS_clean_sbu_0, # of connection points: 4
#     Node 1, Type 0, BuildingBlock: KUFVIS_clean_sbu_0, # of connection points: 4
#     Node 2, Type 0, BuildingBlock: KUFVIS_clean_sbu_0, # of connection points: 4
#     Node 3, Type 0, BuildingBlock: KUFVIS_clean_sbu_0, # of connection points: 4
#     Node 4, Type 0, BuildingBlock: KUFVIS_clean_sbu_0, # of connection points: 4
#     Node 5, Type 0, BuildingBlock: KUFVIS_clean_sbu_0, # of connection points: 4
#     Node 6, Type 0, BuildingBlock: KUFVIS_clean_sbu_0, # of connection points: 4
#     Node 7, Type 0, BuildingBlock: KUFVIS_clean_sbu_0, # of connection points: 4
#     Node 8, Type 0, BuildingBlock: KUFVIS_clean_sbu_0, # of connection points: 4
#     Node 9, Type 0, BuildingBlock: KUFVIS_clean_sbu_0, # of connection points: 4
#     Node 10, Type 0, BuildingBlock: KUFVIS_clean_sbu_0, # of connection points: 4
#     Node 11, Type 0, BuildingBlock: KUFVIS_clean_sbu_0, # of connection points: 4
#     Node 12, Type 0, BuildingBlock: KUFVIS_clean_sbu_0, # of connection points: 4
#     Node 13, Type 0, BuildingBlock: KUFVIS_clean_sbu_0, # of connection points: 4
#     Node 14, Type 0, BuildingBlock: KUFVIS_clean_sbu_0, # of connection points: 4
#     Node 15, Type 0, BuildingBlock: KUFVIS_clean_sbu_0, # of connection points: 4
#     Node 16, Type 0, BuildingBlock: KUFVIS_clean_sbu_0, # of connection points: 4
#     Node 17, Type 0, BuildingBlock: KUFVIS_clean_sbu_0, # of connection points: 4
#     Node 18, Type 0, BuildingBlock: KUFVIS_clean_sbu_0, # of connection points: 4
#     Node 19, Type 0, BuildingBlock: KUFVIS_clean_sbu_0, # of connection points: 4
#     Node 20, Type 0, BuildingBlock: KUFVIS_clean_sbu_0, # of connection points: 4
#     Node 21, Type 0, BuildingBlock: KUFVIS_clean_sbu_0, # of connection points: 4
#     Node 22, Type 0, BuildingBlock: KUFVIS_clean_sbu_0, # of connection points: 4
#     Node 23, Type 0, BuildingBlock: KUFVIS_clean_sbu_0, # of connection points: 4
#     Node 24, Type 0, BuildingBlock: KUFVIS_clean_sbu_0, # of connection points: 4
#     Node 25, Type 0, BuildingBlock: KUFVIS_clean_sbu_0, # of connection points: 4
#     Node 26, Type 0, BuildingBlock: KUFVIS_clean_sbu_0, # of connection points: 4
#     Node 27, Type 0, BuildingBlock: KUFVIS_clean_sbu_0, # of connection points: 4
#     Node 28, Type 0, BuildingBlock: KUFVIS_clean_sbu_0, # of connection points: 4
#     Node 29, Type 0, BuildingBlock: KUFVIS_clean_sbu_0, # of connection points: 4
#     Node 30, Type 0, BuildingBlock: KUFVIS_clean_sbu_0, # of connection points: 4
#     Node 31, Type 0, BuildingBlock: KUFVIS_clean_sbu_0, # of connection points: 4
#     Edge 32, Type (0, 0), BuildingBlock: KIFKEQ_clean_linker_1, # of connection points: 2
#     Edge 33, Type (0, 0), BuildingBlock: KIFKEQ_clean_linker_1, # of connection points: 2
#     Edge 34, Type (0, 0), BuildingBlock: KIFKEQ_clean_linker_1, # of connection points: 2
#     Edge 35, Type (0, 0), BuildingBlock: KIFKEQ_clean_linker_1, # of connection points: 2
#     Edge 36, Type (0, 0), BuildingBlock: KIFKEQ_clean_linker_1, # of connection points: 2
#     Edge 37, Type (0, 0), BuildingBlock: KIFKEQ_clean_linker_1, # of connection points: 2
#     Edge 38, Type (0, 0), BuildingBlock: KIFKEQ_clean_linker_1, # of connection points: 2
#     Edge 39, Type (0, 0), BuildingBlock: KIFKEQ_clean_linker_1, # of connection points: 2
#     Edge 40, Type (0, 0), BuildingBlock: KIFKEQ_clean_linker_1, # of connection points: 2
#     Edge 41, Type (0, 0), BuildingBlock: KIFKEQ_clean_linker_1, # of connection points: 2
#     Edge 42, Type (0, 0), BuildingBlock: KIFKEQ_clean_linker_1, # of connection points: 2
#     Edge 43, Type (0, 0), BuildingBlock: KIFKEQ_clean_linker_1, # of connection points: 2
#     Edge 44, Type (0, 0), BuildingBlock: KIFKEQ_clean_linker_1, # of connection points: 2
#     Edge 45, Type (0, 0), BuildingBlock: KIFKEQ_clean_linker_1, # of connection points: 2
#     Edge 46, Type (0, 0), BuildingBlock: KIFKEQ_clean_linker_1, # of connection points: 2
#     Edge 47, Type (0, 0), BuildingBlock: KIFKEQ_clean_linker_1, # of connection points: 2
#     Edge 48, Type (0, 0), BuildingBlock: KIFKEQ_clean_linker_1, # of connection points: 2
#     Edge 49, Type (0, 0), BuildingBlock: KIFKEQ_clean_linker_1, # of connection points: 2
#     Edge 50, Type (0, 0), BuildingBlock: KIFKEQ_clean_linker_1, # of connection points: 2
#     Edge 51, Type (0, 0), BuildingBlock: KIFKEQ_clean_linker_1, # of connection points: 2
#     Edge 52, Type (0, 0), BuildingBlock: KIFKEQ_clean_linker_1, # of connection points: 2
#     Edge 53, Type (0, 0), BuildingBlock: KIFKEQ_clean_linker_1, # of connection points: 2
#     Edge 54, Type (0, 0), BuildingBlock: KIFKEQ_clean_linker_1, # of connection points: 2
#     Edge 55, Type (0, 0), BuildingBlock: KIFKEQ_clean_linker_1, # of connection points: 2
#     Edge 56, Type (0, 0), BuildingBlock: KIFKEQ_clean_linker_1, # of connection points: 2
#     Edge 57, Type (0, 0), BuildingBlock: KIFKEQ_clean_linker_1, # of connection points: 2
#     Edge 58, Type (0, 0), BuildingBlock: KIFKEQ_clean_linker_1, # of connection points: 2
#     Edge 59, Type (0, 0), BuildingBlock: KIFKEQ_clean_linker_1, # of connection points: 2
#     Edge 60, Type (0, 0), BuildingBlock: KIFKEQ_clean_linker_1, # of connection points: 2
#     Edge 61, Type (0, 0), BuildingBlock: KIFKEQ_clean_linker_1, # of connection points: 2
#     Edge 62, Type (0, 0), BuildingBlock: KIFKEQ_clean_linker_1, # of connection points: 2
#     Edge 63, Type (0, 0), BuildingBlock: KIFKEQ_clean_linker_1, # of connection points: 2
#     Edge 64, Type (0, 0), BuildingBlock: KIFKEQ_clean_linker_1, # of connection points: 2
#     Edge 65, Type (0, 0), BuildingBlock: KIFKEQ_clean_linker_1, # of connection points: 2
#     Edge 66, Type (0, 0), BuildingBlock: KIFKEQ_clean_linker_1, # of connection points: 2
#     Edge 67, Type (0, 0), BuildingBlock: KIFKEQ_clean_linker_1, # of connection points: 2
#     Edge 68, Type (0, 0), BuildingBlock: KIFKEQ_clean_linker_1, # of connection points: 2
#     Edge 69, Type (0, 0), BuildingBlock: KIFKEQ_clean_linker_1, # of connection points: 2
#     Edge 70, Type (0, 0), BuildingBlock: KIFKEQ_clean_linker_1, # of connection points: 2
#     Edge 71, Type (0, 0), BuildingBlock: KIFKEQ_clean_linker_1, # of connection points: 2
#     Edge 72, Type (0, 0), BuildingBlock: KIFKEQ_clean_linker_1, # of connection points: 2
#     Edge 73, Type (0, 0), BuildingBlock: KIFKEQ_clean_linker_1, # of connection points: 2
#     Edge 74, Type (0, 0), BuildingBlock: KIFKEQ_clean_linker_1, # of connection points: 2
#     Edge 75, Type (0, 0), BuildingBlock: KIFKEQ_clean_linker_1, # of connection points: 2
#     Edge 76, Type (0, 0), BuildingBlock: KIFKEQ_clean_linker_1, # of connection points: 2
#     Edge 77, Type (0, 0), BuildingBlock: KIFKEQ_clean_linker_1, # of connection points: 2
#     Edge 78, Type (0, 0), BuildingBlock: KIFKEQ_clean_linker_1, # of connection points: 2
#     Edge 79, Type (0, 0), BuildingBlock: KIFKEQ_clean_linker_1, # of connection points: 2
#     Edge 80, Type (0, 0), BuildingBlock: KIFKEQ_clean_linker_1, # of connection points: 2
#     Edge 81, Type (0, 0), BuildingBlock: KIFKEQ_clean_linker_1, # of connection points: 2
#     Edge 82, Type (0, 0), BuildingBlock: KIFKEQ_clean_linker_1, # of connection points: 2
#     Edge 83, Type (0, 0), BuildingBlock: KIFKEQ_clean_linker_1, # of connection points: 2
#     Edge 84, Type (0, 0), BuildingBlock: KIFKEQ_clean_linker_1, # of connection points: 2
#     Edge 85, Type (0, 0), BuildingBlock: KIFKEQ_clean_linker_1, # of connection points: 2
#     Edge 86, Type (0, 0), BuildingBlock: KIFKEQ_clean_linker_1, # of connection points: 2
#     Edge 87, Type (0, 0), BuildingBlock: KIFKEQ_clean_linker_1, # of connection points: 2
#     Edge 88, Type (0, 0), BuildingBlock: KIFKEQ_clean_linker_1, # of connection points: 2
#     Edge 89, Type (0, 0), BuildingBlock: KIFKEQ_clean_linker_1, # of connection points: 2
#     Edge 90, Type (0, 0), BuildingBlock: KIFKEQ_clean_linker_1, # of connection points: 2
#     Edge 91, Type (0, 0), BuildingBlock: KIFKEQ_clean_linker_1, # of connection points: 2
#     Edge 92, Type (0, 0), BuildingBlock: KIFKEQ_clean_linker_1, # of connection points: 2
#     Edge 93, Type (0, 0), BuildingBlock: KIFKEQ_clean_linker_1, # of connection points: 2
#     Edge 94, Type (0, 0), BuildingBlock: KIFKEQ_clean_linker_1, # of connection points: 2
#     Edge 95, Type (0, 0), BuildingBlock: KIFKEQ_clean_linker_1, # of connection points: 2
# Relax obj value: 0.217
# Max RMSD: 0.099
# Mean RMSD: 0.099
data_MOF--net-zni--node1-KUFVIS_clean_sbu_0--edge1-KIFKEQ_clean_linker_1
_symmetry_space_group_name_H-M    P1
_symmetry_Int_Tables_number       1
_symmetry_cell_setting            triclinic
loop_
_symmetry_equiv_pos_as_xyz
'x, y, z'
_cell_length_a     58.96816
_cell_length_b     58.982327
_cell_length_c     30.030151
_cell_angle_alpha  90.010627
_cell_angle_beta   89.999884
_cell_angle_gamma 89.997131
loop_
_atom_site_label
_atom_site_type_symbol
_atom_site_fract_x
_atom_site_fract_y
_atom_site_fract_z
_atom_type_partial_charge
Mn0 Mn 0.09892 0.0996 0.40857 0.0
Mn1 Mn 0.07557 0.05707 0.4679 0.0
C2 C 0.11697 0.08559 0.47097 0.0
C3 C 0.10423 0.13792 0.39394 0.0
C4 C 0.09781 0.05037 0.37796 0.0
O5 O 0.0658 0.10045 0.38956 0.0
O6 O 0.0514 0.07296 0.43376 0.0
C7 C 0.04719 0.08328 0.5309 0.0
N8 N 0.06437 0.06831 0.52343 0.0
C9 C 0.07145 0.06457 0.60202 0.0
C10 C 0.0538 0.0799 0.61053 0.0
C11 C 0.04161 0.08928 0.57481 0.0
C12 C 0.07604 0.05898 0.55759 0.0
H13 H 0.03789 0.09068 0.50356 0.0
C14 C 0.04918 0.0889 0.40491 0.0
O15 O 0.10768 0.12262 0.36359 0.0
O16 O 0.09692 0.13099 0.43237 0.0
N17 N 0.09764 0.04124 0.50286 0.0
C18 C 0.11529 0.02816 0.48884 0.0
C19 C 0.1298 0.01828 0.52043 0.0
C20 C 0.12605 0.02199 0.56604 0.0
C21 C 0.10778 0.03553 0.57967 0.0
C22 C 0.09374 0.04474 0.54669 0.0
H23 H 0.11841 0.02546 0.45381 0.0
O24 O 0.12862 0.09569 0.44009 0.0
O25 O 0.09546 0.08342 0.46319 0.0
O26 O 0.104 0.07085 0.37271 0.0
O27 O 0.08683 0.04346 0.41199 0.0
C28 C 0.10328 0.04068 0.62463 0.0
C29 C 0.0851 0.05516 0.6358 0.0
H30 H 0.04962 0.08478 0.64433 0.0
H31 H 0.02804 0.1012 0.5811 0.0
H32 H 0.14394 0.00795 0.50964 0.0
H33 H 0.13742 0.01453 0.59028 0.0
H34 H 0.11389 0.03385 0.65084 0.0
H35 H 0.08201 0.05925 0.67044 0.0
Mn36 Mn 0.14725 0.85042 0.65435 0.0
Mn37 Mn 0.18906 0.82633 0.7146 0.0
C38 C 0.16104 0.86807 0.71737 0.0
C39 C 0.10893 0.85605 0.6395 0.0
C40 C 0.19682 0.84925 0.62567 0.0
O41 O 0.1462 0.81747 0.63446 0.0
O42 O 0.17337 0.80264 0.67885 0.0
C43 C 0.16195 0.79754 0.77534 0.0
N44 N 0.17719 0.81462 0.76919 0.0
C45 C 0.18047 0.82058 0.84821 0.0
C46 C 0.16488 0.80301 0.85538 0.0
C47 C 0.1556 0.79144 0.81878 0.0
C48 C 0.18643 0.8257 0.80419 0.0
H49 H 0.15464 0.7887 0.74733 0.0
C50 C 0.15764 0.80071 0.6495 0.0
O51 O 0.1243 0.85965 0.60933 0.0
O52 O 0.1158 0.84845 0.67772 0.0
N53 N 0.20475 0.84784 0.75109 0.0
C54 C 0.21811 0.86554 0.73834 0.0
C55 C 0.22792 0.87951 0.77094 0.0
C56 C 0.22388 0.87517 0.81624 0.0
C57 C 0.21006 0.85686 0.82855 0.0
C58 C 0.20093 0.84338 0.79461 0.0
H59 H 0.2211 0.86908 0.70356 0.0
O60 O 0.15122 0.87993 0.68647 0.0
O61 O 0.16301 0.84655 0.70942 0.0
O62 O 0.1764 0.85544 0.61927 0.0
O63 O 0.20324 0.83812 0.65985 0.0
C64 C 0.20458 0.8518 0.87311 0.0
C65 C 0.18983 0.83365 0.88294 0.0
H66 H 0.15973 0.79843 0.88881 0.0
H67 H 0.14347 0.77793 0.82404 0.0
H68 H 0.23847 0.89367 0.76117 0.0
H69 H 0.23129 0.88613 0.84126 0.0
H70 H 0.21135 0.86196 0.90006 0.0
H71 H 0.18548 0.83013 0.9173 0.0
Mn72 Mn 0.38991 0.90034 0.90627 0.0
Mn73 Mn 0.41239 0.94085 0.97203 0.0
C74 C 0.37282 0.90993 0.97282 0.0
C75 C 0.38615 0.86275 0.88442 0.0
C76 C 0.38826 0.95075 0.88509 0.0
O77 O 0.42265 0.90241 0.88465 0.0
O78 O 0.43668 0.92765 0.9343 0.0
C79 C 0.44274 0.91334 0.02903 0.0
N80 N 0.42478 0.92771 0.02491 0.0
C81 C 0.41857 0.92763 0.10413 0.0
C82 C 0.43703 0.91287 0.1092 0.0
C83 C 0.44916 0.90571 0.07148 0.0
C84 C 0.41313 0.93491 0.06104 0.0
H85 H 0.45203 0.90765 0.00012 0.0
C86 C 0.43907 0.91356 0.90201 0.0
O87 O 0.381 0.8793 0.8578 0.0
O88 O 0.39435 0.868 0.92318 0.0
N89 N 0.39005 0.95396 0.01051 0.0
C90 C 0.37164 0.96675 -0.00043 0.0
C91 C 0.35711 0.9745 0.03336 0.0
C92 C 0.36162 0.96897 0.07798 0.0
C93 C 0.38066 0.95576 0.08843 0.0
C94 C 0.39466 0.94871 0.0534 0.0
H95 H 0.36796 0.97087 0.96529 0.0
O96 O 0.36088 0.90077 0.94125 0.0
O97 O 0.39387 0.91385 0.96335 0.0
O98 O 0.38237 0.93043 0.87693 0.0
O99 O 0.39991 0.95641 0.91915 0.0
C100 C 0.38597 0.94885 0.13212 0.0
C101 C 0.40494 0.93484 0.13998 0.0
H102 H 0.44187 0.90672 0.14183 0.0
H103 H 0.46336 0.89423 0.07511 0.0
H104 H 0.34238 0.98459 0.02501 0.0
H105 H 0.35024 0.97477 0.1039 0.0
H106 H 0.37539 0.95396 0.15986 0.0
H107 H 0.40865 0.92938 0.17363 0.0
Mn108 Mn 0.34706 0.1411 0.16023 0.0
Mn109 Mn 0.30382 0.16215 0.22102 0.0
C110 C 0.33488 0.12276 0.22386 0.0
C111 C 0.38544 0.13778 0.14393 0.0
C112 C 0.2976 0.1397 0.13132 0.0
O113 O 0.34587 0.17413 0.14104 0.0
O114 O 0.31797 0.18712 0.18607 0.0
C115 C 0.32904 0.19213 0.28273 0.0
N116 N 0.31506 0.17406 0.276 0.0
C117 C 0.31286 0.16676 0.35474 0.0
C118 C 0.32718 0.18532 0.36249 0.0
C119 C 0.33529 0.19806 0.32632 0.0
C120 C 0.30695 0.16184 0.31061 0.0
H121 H 0.33547 0.20187 0.25505 0.0
C122 C 0.33355 0.19012 0.15671 0.0
O123 O 0.36999 0.13347 0.11434 0.0
O124 O 0.3786 0.14479 0.18265 0.0
N125 N 0.28977 0.13922 0.25678 0.0
C126 C 0.27766 0.12077 0.24341 0.0
C127 C 0.26911 0.1057 0.27547 0.0
C128 C 0.27319 0.10969 0.32088 0.0
C129 C 0.28578 0.12875 0.33384 0.0
C130 C 0.29366 0.14332 0.30042 0.0
H131 H 0.27474 0.11745 0.20853 0.0
O132 O 0.34512 0.11138 0.19275 0.0
O133 O 0.33123 0.14394 0.21517 0.0
O134 O 0.31832 0.13463 0.12534 0.0
O135 O 0.29022 0.15004 0.16572 0.0
C136 C 0.2913 0.13353 0.37851 0.0
C137 C 0.30479 0.15255 0.38897 0.0
H138 H 0.33228 0.18979 0.39603 0.0
H139 H 0.34644 0.21234 0.33202 0.0
H140 H 0.25955 0.09094 0.26519 0.0
H141 H 0.26679 0.09788 0.34548 0.0
H142 H 0.28552 0.12251 0.40505 0.0
H143 H 0.30919 0.15587 0.42338 0.0
Mn144 Mn 0.0986 0.89539 0.08583 0.0
Mn145 Mn 0.0754 0.9386 0.02819 0.0
C146 C 0.11681 0.90999 0.02421 0.0
C147 C 0.10353 0.85691 0.09922 0.0
C148 C 0.09751 0.94422 0.11857 0.0
O149 O 0.06549 0.89453 0.10474 0.0
O150 O 0.05109 0.92225 0.06112 0.0
C151 C 0.04716 0.91338 0.96342 0.0
N152 N 0.06433 0.92821 0.97192 0.0
C153 C 0.07149 0.93328 0.89365 0.0
C154 C 0.05384 0.91811 0.88408 0.0
C155 C 0.04162 0.90814 0.91912 0.0
C156 C 0.07603 0.93812 0.93844 0.0
H157 H 0.03781 0.90553 0.99022 0.0
C158 C 0.04886 0.90608 0.08946 0.0
O159 O 0.10719 0.87196 0.12994 0.0
O160 O 0.09634 0.86418 0.06094 0.0
N161 N 0.09759 0.95489 0.99439 0.0
C162 C 0.11529 0.96765 0.00933 0.0
C163 C 0.12987 0.97799 0.97847 0.0
C164 C 0.12615 0.97508 0.93262 0.0
C165 C 0.10785 0.96185 0.91804 0.0
C166 C 0.09374 0.95213 0.95034 0.0
H167 H 0.11837 0.96975 0.04453 0.0
O168 O 0.12834 0.89945 0.05469 0.0
O169 O 0.09526 0.91215 0.03182 0.0
O170 O 0.10384 0.92373 0.12287 0.0
O171 O 0.08647 0.95145 0.0849 0.0
C172 C 0.10339 0.95747 0.87275 0.0
C173 C 0.08519 0.94324 0.86056 0.0
H174 H 0.0497 0.9138 0.84997 0.0
H175 H 0.02805 0.89633 0.912 0.0
H176 H 0.14404 0.98808 0.98999 0.0
H177 H 0.13758 0.9829 0.90893 0.0
H178 H 0.11404 0.96472 0.84704 0.0
H179 H 0.08214 0.93974 0.82566 0.0
Mn180 Mn 0.35843 0.84307 0.34849 0.0
Mn181 Mn 0.31546 0.82037 0.28918 0.0
C182 C 0.34503 0.86112 0.2857 0.0
C183 C 0.39698 0.84673 0.36325 0.0
C184 C 0.30899 0.84397 0.3779 0.0
O185 O 0.35806 0.81023 0.36893 0.0
O186 O 0.33057 0.79614 0.32447 0.0
C187 C 0.34129 0.79078 0.22775 0.0
N188 N 0.32654 0.80824 0.23429 0.0
C189 C 0.32255 0.814 0.15534 0.0
C190 C 0.33761 0.79601 0.14778 0.0
C191 C 0.34702 0.78436 0.18415 0.0
C192 C 0.31723 0.81944 0.19952 0.0
H193 H 0.34868 0.78186 0.25559 0.0
C194 C 0.3462 0.79379 0.35387 0.0
O195 O 0.38182 0.85126 0.39333 0.0
O196 O 0.38974 0.83953 0.325 0.0
N197 N 0.30017 0.84233 0.25306 0.0
C198 C 0.28746 0.86045 0.26609 0.0
C199 C 0.27769 0.87457 0.2337 0.0
C200 C 0.28109 0.86993 0.18831 0.0
C201 C 0.29421 0.85117 0.1757 0.0
C202 C 0.30335 0.83757 0.20945 0.0
H203 H 0.28496 0.86421 0.30093 0.0
O204 O 0.35571 0.87261 0.31605 0.0
O205 O 0.34228 0.83969 0.29371 0.0
O206 O 0.32963 0.84957 0.38369 0.0
O207 O 0.30205 0.83269 0.34427 0.0
C208 C 0.29904 0.84578 0.13099 0.0
C209 C 0.31316 0.82718 0.12081 0.0
H210 H 0.34228 0.79118 0.11421 0.0
H211 H 0.35875 0.77053 0.17859 0.0
H212 H 0.26768 0.88908 0.2437 0.0
H213 H 0.27374 0.88101 0.16344 0.0
H214 H 0.29227 0.85604 0.10419 0.0
H215 H 0.31704 0.82342 0.08633 0.0
Mn216 Mn 0.39746 0.10905 0.60054 0.0
Mn217 Mn 0.42015 0.06465 0.54544 0.0
C218 C 0.37978 0.09453 0.53816 0.0
C219 C 0.39389 0.14782 0.61281 0.0
C220 C 0.39594 0.06032 0.63402 0.0
O221 O 0.43019 0.10887 0.62182 0.0
O222 O 0.44428 0.08026 0.58015 0.0
C223 C 0.45053 0.08876 0.48282 0.0
N224 N 0.43282 0.0744 0.49005 0.0
C225 C 0.42757 0.06881 0.41133 0.0
C226 C 0.44581 0.08346 0.40307 0.0
C227 C 0.45733 0.09347 0.43898 0.0
C228 C 0.42174 0.06449 0.45574 0.0
H229 H 0.45935 0.09662 0.51029 0.0
C230 C 0.44661 0.09653 0.6082 0.0
O231 O 0.38911 0.13314 0.64361 0.0
O232 O 0.40128 0.13998 0.57511 0.0
N233 N 0.39827 0.04885 0.50995 0.0
C234 C 0.3799 0.03666 0.52349 0.0
C235 C 0.36588 0.02638 0.49151 0.0
C236 C 0.37088 0.02876 0.44602 0.0
C237 C 0.38989 0.04138 0.4329 0.0
C238 C 0.40337 0.05105 0.46627 0.0
H239 H 0.37585 0.03494 0.55839 0.0
O240 O 0.36814 0.10586 0.56738 0.0
O241 O 0.40112 0.09177 0.54711 0.0
O242 O 0.39052 0.08111 0.63782 0.0
O243 O 0.4073 0.05251 0.60125 0.0
C244 C 0.39566 0.0452 0.38799 0.0
C245 C 0.41451 0.05886 0.37721 0.0
H246 H 0.45095 0.08735 0.36929 0.0
H247 H 0.47136 0.10489 0.43287 0.0
H248 H 0.35118 0.01677 0.5019 0.0
H249 H 0.35989 0.02102 0.42145 0.0
H250 H 0.38551 0.03799 0.36147 0.0
H251 H 0.41857 0.06195 0.34256 0.0
Mn252 Mn 0.14136 0.14735 0.84014 0.0
Mn253 Mn 0.18628 0.16962 0.7861 0.0
C254 C 0.15671 0.12916 0.77914 0.0
C255 C 0.1026 0.14275 0.85066 0.0
C256 C 0.18987 0.1462 0.87525 0.0
O257 O 0.14063 0.18025 0.8596 0.0
O258 O 0.17076 0.19374 0.8214 0.0
C259 C 0.16236 0.20056 0.72423 0.0
N260 N 0.17659 0.18269 0.73102 0.0
C261 C 0.18196 0.17778 0.65215 0.0
C262 C 0.16745 0.19619 0.64435 0.0
C263 C 0.15762 0.20762 0.68056 0.0
C264 C 0.18634 0.17172 0.69642 0.0
H265 H 0.15462 0.20932 0.75189 0.0
C266 C 0.15373 0.1964 0.84762 0.0
O267 O 0.117 0.13895 0.88249 0.0
O268 O 0.11068 0.14998 0.81304 0.0
N269 N 0.20191 0.14785 0.75004 0.0
C270 C 0.21378 0.12918 0.76307 0.0
C271 C 0.22384 0.11522 0.73075 0.0
C272 C 0.2215 0.12054 0.68539 0.0
C273 C 0.2091 0.13977 0.67276 0.0
C274 C 0.19966 0.15319 0.70648 0.0
H275 H 0.21531 0.12482 0.79782 0.0
O276 O 0.14559 0.11767 0.80888 0.0
O277 O 0.15912 0.15064 0.78719 0.0
O278 O 0.16889 0.14177 0.87936 0.0
O279 O 0.19838 0.1563 0.8416 0.0
C280 C 0.20524 0.1458 0.628 0.0
C281 C 0.19172 0.16482 0.61771 0.0
H282 H 0.16353 0.20153 0.61071 0.0
H283 H 0.14631 0.22178 0.67481 0.0
H284 H 0.23321 0.1003 0.74075 0.0
H285 H 0.22907 0.10958 0.66054 0.0
H286 H 0.2123 0.13572 0.60122 0.0
H287 H 0.18859 0.16908 0.58316 0.0
Mn288 Mn 0.89865 0.89685 0.57997 0.0
Mn289 Mn 0.92219 0.94006 0.52283 0.0
C290 C 0.8807 0.91156 0.51812 0.0
C291 C 0.89351 0.85833 0.59304 0.0
C292 C 0.89926 0.94582 0.61238 0.0
O293 O 0.93165 0.89584 0.59948 0.0
O294 O 0.94622 0.92388 0.55694 0.0
C295 C 0.95112 0.9146 0.45961 0.0
N296 N 0.93388 0.92949 0.46719 0.0
C297 C 0.92765 0.93435 0.38857 0.0
C298 C 0.94538 0.91914 0.37994 0.0
C299 C 0.95717 0.90923 0.41563 0.0
C300 C 0.92259 0.93932 0.43309 0.0
H301 H 0.96013 0.9068 0.4869 0.0
C302 C 0.94832 0.90758 0.58502 0.0
O303 O 0.88983 0.87331 0.62388 0.0
O304 O 0.90086 0.86569 0.55496 0.0
N305 N 0.90038 0.95624 0.48788 0.0
C306 C 0.88254 0.96908 0.50188 0.0
C307 C 0.86835 0.97938 0.47026 0.0
C308 C 0.87261 0.97635 0.42463 0.0
C309 C 0.89106 0.96305 0.41101 0.0
C310 C 0.90476 0.95338 0.44404 0.0
H311 H 0.87905 0.97128 0.53691 0.0
O312 O 0.86905 0.90103 0.54845 0.0
O313 O 0.90225 0.91362 0.52591 0.0
O314 O 0.89329 0.92523 0.61693 0.0
O315 O 0.91042 0.95308 0.57887 0.0
C316 C 0.89606 0.95857 0.36598 0.0
C317 C 0.91437 0.94427 0.35477 0.0
H318 H 0.94992 0.91474 0.34607 0.0
H319 H 0.9708 0.89739 0.40924 0.0
H320 H 0.85407 0.98952 0.48103 0.0
H321 H 0.86149 0.98414 0.40034 0.0
H322 H 0.88575 0.96578 0.33972 0.0
H323 H 0.91784 0.94069 0.32005 0.0
Mn324 Mn 0.84942 0.14413 0.33902 0.0
Mn325 Mn 0.807 0.16859 0.28112 0.0
C326 C 0.83459 0.12656 0.27675 0.0
C327 C 0.88786 0.13831 0.35202 0.0
C328 C 0.8005 0.14644 0.37126 0.0
O329 O 0.85107 0.17714 0.35843 0.0
O330 O 0.82379 0.19233 0.31476 0.0
C331 C 0.83321 0.19644 0.21726 0.0
N332 N 0.81794 0.17959 0.22522 0.0
C333 C 0.81317 0.17277 0.14676 0.0
C334 C 0.8288 0.19008 0.13774 0.0
C335 C 0.83885 0.20197 0.17315 0.0
C336 C 0.80796 0.16822 0.19138 0.0
H337 H 0.84111 0.20552 0.24435 0.0
C338 C 0.8399 0.19407 0.34335 0.0
O339 O 0.87285 0.13486 0.38293 0.0
O340 O 0.88057 0.14576 0.31397 0.0
N341 N 0.79033 0.14693 0.24669 0.0
C342 C 0.77704 0.12953 0.26114 0.0
C343 C 0.76652 0.11529 0.22987 0.0
C344 C 0.76981 0.11906 0.18414 0.0
C345 C 0.78359 0.13705 0.17007 0.0
C346 C 0.79345 0.15083 0.20275 0.0
H347 H 0.77464 0.12642 0.29625 0.0
O348 O 0.8447 0.11461 0.30718 0.0
O349 O 0.83287 0.14807 0.28497 0.0
O350 O 0.82082 0.13956 0.3759 0.0
O351 O 0.79369 0.15765 0.33746 0.0
C352 C 0.78834 0.14153 0.12494 0.0
C353 C 0.80309 0.1594 0.11328 0.0
H354 H 0.83341 0.19422 0.10378 0.0
H355 H 0.85101 0.21529 0.16646 0.0
H356 H 0.75601 0.10136 0.24099 0.0
H357 H 0.76185 0.10789 0.16013 0.0
H358 H 0.781 0.13112 0.09894 0.0
H359 H 0.80687 0.16247 0.0785 0.0
Mn360 Mn 0.59587 0.09676 0.08122 0.0
Mn361 Mn 0.57207 0.05394 0.0236 0.0
C362 C 0.61472 0.08081 0.02162 0.0
C363 C 0.60201 0.13525 0.0924 0.0
C364 C 0.59251 0.04828 0.1155 0.0
O365 O 0.56259 0.09918 0.09784 0.0
O366 O 0.54788 0.07128 0.05511 0.0
C367 C 0.54556 0.0798 0.95704 0.0
N368 N 0.56209 0.06442 0.96664 0.0
C369 C 0.57015 0.05882 0.88885 0.0
C370 C 0.55318 0.07454 0.87814 0.0
C371 C 0.54083 0.08506 0.91239 0.0
C372 C 0.5739 0.05399 0.93392 0.0
H373 H 0.53614 0.08807 0.98324 0.0
C374 C 0.54582 0.08786 0.08258 0.0
O375 O 0.60454 0.12072 0.12451 0.0
O376 O 0.59526 0.12747 0.05424 0.0
N377 N 0.59408 0.03668 0.9912 0.0
C378 C 0.61106 0.02332 0.00724 0.0
C379 C 0.62566 0.0123 0.9773 0.0
C380 C 0.62268 0.01517 0.93124 0.0
C381 C 0.6051 0.02904 0.91552 0.0
C382 C 0.59094 0.03941 0.94693 0.0
H383 H 0.61357 0.02124 0.04262 0.0
O384 O 0.62598 0.09114 0.05276 0.0
O385 O 0.59294 0.07957 0.02756 0.0
O386 O 0.59922 0.06866 0.11994 0.0
O387 O 0.58203 0.0411 0.08108 0.0
C388 C 0.60141 0.03338 0.86996 0.0
C389 C 0.58393 0.04823 0.85663 0.0
H390 H 0.54965 0.07886 0.84377 0.0
H391 H 0.52777 0.0973 0.9044 0.0
H392 H 0.63926 0.00173 0.9897 0.0
H393 H 0.63411 0.00682 0.90826 0.0
H394 H 0.61211 0.02562 0.84491 0.0
H395 H 0.58146 0.05168 0.82153 0.0
Mn396 Mn 0.63975 0.86099 0.83951 0.0
Mn397 Mn 0.68107 0.83873 0.77576 0.0
C398 C 0.6562 0.88232 0.78292 0.0
C399 C 0.60132 0.86747 0.85172 0.0
C400 C 0.68859 0.85452 0.87055 0.0
O401 O 0.63624 0.82717 0.85049 0.0
O402 O 0.66345 0.81401 0.80458 0.0
C403 C 0.65121 0.81764 0.70812 0.0
N404 N 0.66846 0.83204 0.71856 0.0
C405 C 0.67358 0.84215 0.64158 0.0
C406 C 0.65598 0.8273 0.62997 0.0
C407 C 0.64468 0.81508 0.66342 0.0
C408 C 0.67919 0.84416 0.68672 0.0
H409 H 0.64246 0.80821 0.7337 0.0
C410 C 0.64716 0.81096 0.83223 0.0
O411 O 0.61584 0.86831 0.88426 0.0
O412 O 0.60911 0.86237 0.81268 0.0
N413 N 0.69918 0.8607 0.7451 0.0
C414 C 0.7152 0.87494 0.76197 0.0
C415 C 0.72816 0.88834 0.73285 0.0
C416 C 0.72454 0.88692 0.6867 0.0
C417 C 0.708 0.87209 0.67007 0.0
C418 C 0.69574 0.85903 0.7007 0.0
H419 H 0.71805 0.8761 0.79734 0.0
O420 O 0.64615 0.89225 0.81604 0.0
O421 O 0.65675 0.8604 0.78542 0.0
O422 O 0.66835 0.86125 0.87767 0.0
O423 O 0.69533 0.84589 0.83377 0.0
C424 C 0.70294 0.87003 0.62439 0.0
C425 C 0.68567 0.85514 0.61018 0.0
H426 H 0.65092 0.82526 0.59553 0.0
H427 H 0.63099 0.80368 0.65476 0.0
H428 H 0.74086 0.89978 0.74596 0.0
H429 H 0.73444 0.89742 0.66437 0.0
H430 H 0.71201 0.88004 0.59996 0.0
H431 H 0.68173 0.85392 0.57502 0.0
Mn432 Mn 0.8923 0.10109 0.90371 0.0
Mn433 Mn 0.91654 0.05807 0.96023 0.0
C434 C 0.87494 0.08624 0.96618 0.0
C435 C 0.88694 0.13966 0.89148 0.0
C436 C 0.89348 0.05224 0.87079 0.0
O437 O 0.92516 0.10237 0.88335 0.0
O438 O 0.94021 0.07455 0.92585 0.0
C439 C 0.94551 0.08362 0.02322 0.0
N440 N 0.92834 0.06863 0.01578 0.0
C441 C 0.92243 0.06356 0.09445 0.0
C442 C 0.94008 0.07889 0.10294 0.0
C443 C 0.95167 0.08895 0.06716 0.0
C444 C 0.91725 0.05864 0.04996 0.0
H445 H 0.95437 0.09153 0.99586 0.0
C446 C 0.94201 0.09079 0.89756 0.0
O447 O 0.88305 0.12483 0.86045 0.0
O448 O 0.89455 0.13212 0.92921 0.0
N449 N 0.89501 0.04162 0.99535 0.0
C450 C 0.87723 0.02867 0.98148 0.0
C451 C 0.86322 0.01821 0.01321 0.0
C452 C 0.86761 0.0212 0.05881 0.0
C453 C 0.88599 0.03463 0.07228 0.0
C454 C 0.8995 0.04446 0.03915 0.0
H455 H 0.87364 0.02651 0.94648 0.0
O456 O 0.86294 0.09665 0.93624 0.0
O457 O 0.89638 0.08427 0.95746 0.0
O458 O 0.88703 0.07271 0.86647 0.0
O459 O 0.90477 0.04512 0.90424 0.0
C460 C 0.8911 0.03908 0.11728 0.0
C461 C 0.90934 0.05349 0.12835 0.0
H462 H 0.94471 0.08327 0.13678 0.0
H463 H 0.96524 0.10088 0.07345 0.0
H464 H 0.84899 0.00798 0.00256 0.0
H465 H 0.85662 0.01329 0.08319 0.0
H466 H 0.88092 0.03175 0.14362 0.0
H467 H 0.9129 0.05704 0.16305 0.0
Mn468 Mn 0.64673 0.15115 0.6676 0.0
Mn469 Mn 0.69048 0.17434 0.72358 0.0
C470 C 0.66284 0.13218 0.72681 0.0
C471 C 0.6081 0.1456 0.65692 0.0
C472 C 0.69513 0.15309 0.6322 0.0
O473 O 0.64482 0.18441 0.65056 0.0
O474 O 0.67346 0.1987 0.69185 0.0
C475 C 0.66552 0.20182 0.78998 0.0
N476 N 0.68057 0.18498 0.78049 0.0
C477 C 0.68671 0.17757 0.85838 0.0
C478 C 0.67134 0.19489 0.86896 0.0
C479 C 0.66071 0.20707 0.83461 0.0
C480 C 0.69109 0.17331 0.8133 0.0
H481 H 0.65717 0.21112 0.76372 0.0
C482 C 0.65664 0.201 0.66503 0.0
O483 O 0.62253 0.14277 0.62474 0.0
O484 O 0.61606 0.15234 0.69496 0.0
N485 N 0.70754 0.15227 0.75622 0.0
C486 C 0.72046 0.1349 0.74038 0.0
C487 C 0.73148 0.12041 0.7705 0.0
C488 C 0.72907 0.1239 0.81653 0.0
C489 C 0.71567 0.14187 0.83204 0.0
C490 C 0.70527 0.1559 0.80045 0.0
H491 H 0.72219 0.132 0.70505 0.0
O492 O 0.65198 0.12105 0.69618 0.0
O493 O 0.66436 0.15395 0.72087 0.0
O494 O 0.67453 0.14703 0.62837 0.0
O495 O 0.70281 0.16364 0.66612 0.0
C496 C 0.7118 0.14609 0.87759 0.0
C497 C 0.69736 0.16395 0.89075 0.0
H498 H 0.66739 0.19882 0.90334 0.0
H499 H 0.64874 0.22038 0.84251 0.0
H500 H 0.74169 0.10649 0.75828 0.0
H501 H 0.73742 0.11254 0.83966 0.0
H502 H 0.7196 0.13551 0.90278 0.0
H503 H 0.69426 0.16681 0.92586 0.0
Mn504 Mn 0.60886 0.89169 0.40528 0.0
Mn505 Mn 0.58446 0.93209 0.46817 0.0
C506 C 0.62905 0.90869 0.46279 0.0
C507 C 0.61628 0.85352 0.39248 0.0
C508 C 0.60061 0.93999 0.37353 0.0
O509 O 0.57516 0.88738 0.39281 0.0
O510 O 0.56059 0.91289 0.44081 0.0
C511 C 0.56523 0.90224 0.53787 0.0
N512 N 0.57875 0.91999 0.52615 0.0
C513 C 0.58905 0.92669 0.60255 0.0
C514 C 0.5751 0.90861 0.61548 0.0
C515 C 0.56324 0.89626 0.58296 0.0
C516 C 0.59053 0.93174 0.55708 0.0
H517 H 0.55609 0.89269 0.51297 0.0
C518 C 0.5584 0.89694 0.41215 0.0
O519 O 0.61718 0.86828 0.3604 0.0
O520 O 0.61066 0.86092 0.43158 0.0
N521 N 0.60573 0.95165 0.49722 0.0
C522 C 0.61904 0.96812 0.47909 0.0
C523 C 0.63208 0.98202 0.50714 0.0
C524 C 0.63118 0.97896 0.5535 0.0
C525 C 0.6172 0.96203 0.57142 0.0
C526 C 0.60451 0.94876 0.54183 0.0
H527 H 0.61963 0.9707 0.44351 0.0
O528 O 0.63967 0.89878 0.4303 0.0
O529 O 0.60717 0.90861 0.45928 0.0
O530 O 0.60914 0.92036 0.36764 0.0
O531 O 0.59046 0.94597 0.40932 0.0
C532 C 0.61567 0.95752 0.61741 0.0
C533 C 0.60169 0.9398 0.63294 0.0
H534 H 0.57348 0.90397 0.65024 0.0
H535 H 0.55254 0.88219 0.59266 0.0
H536 H 0.64279 0.99508 0.49306 0.0
H537 H 0.64136 0.98962 0.575 0.0
H538 H 0.62541 0.96739 0.64108 0.0
H539 H 0.60089 0.9363 0.66832 0.0
Mn540 Mn 0.84987 0.84794 0.15347 0.0
Mn541 Mn 0.80744 0.82456 0.21307 0.0
C542 C 0.83502 0.86656 0.21445 0.0
C543 C 0.88825 0.85395 0.14029 0.0
C544 C 0.80067 0.8457 0.12237 0.0
O545 O 0.8518 0.81476 0.13639 0.0
O546 O 0.8235 0.80045 0.17866 0.0
C547 C 0.83429 0.79648 0.27556 0.0
N548 N 0.81903 0.81344 0.26839 0.0
C549 C 0.81546 0.82034 0.34708 0.0
C550 C 0.83106 0.8029 0.35528 0.0
C551 C 0.8405 0.79092 0.31935 0.0
C552 C 0.80964 0.82491 0.30276 0.0
H553 H 0.84175 0.78733 0.24809 0.0
C554 C 0.83998 0.79819 0.15098 0.0
O555 O 0.87328 0.85663 0.10901 0.0
O556 O 0.88098 0.8471 0.17875 0.0
N557 N 0.79149 0.84641 0.2484 0.0
C558 C 0.77836 0.86408 0.23468 0.0
C559 C 0.76844 0.87844 0.26649 0.0
C560 C 0.77223 0.87456 0.31203 0.0
C561 C 0.78592 0.85636 0.32536 0.0
C562 C 0.79515 0.84245 0.29216 0.0
H563 H 0.77572 0.86738 0.19973 0.0
O564 O 0.84487 0.87798 0.18296 0.0
O565 O 0.83341 0.84488 0.20792 0.0
O566 O 0.82125 0.85137 0.11617 0.0
O567 O 0.79352 0.83582 0.15746 0.0
C568 C 0.79126 0.85183 0.37022 0.0
C569 C 0.80598 0.83381 0.38108 0.0
H570 H 0.83612 0.79874 0.38898 0.0
H571 H 0.85265 0.77751 0.3254 0.0
H572 H 0.75806 0.89258 0.25593 0.0
H573 H 0.76476 0.88583 0.33645 0.0
H574 H 0.78441 0.86232 0.39659 0.0
H575 H 0.81023 0.83072 0.41564 0.0
Mn576 Mn 0.59895 0.60898 0.89276 0.0
Mn577 Mn 0.57642 0.56528 0.95015 0.0
C578 C 0.61723 0.59471 0.95466 0.0
C579 C 0.60264 0.64767 0.87968 0.0
C580 C 0.59943 0.56003 0.86048 0.0
O581 O 0.56598 0.60898 0.87304 0.0
O582 O 0.55197 0.58105 0.91655 0.0
C583 C 0.54733 0.59015 0.014 0.0
N584 N 0.56475 0.57553 0.00604 0.0
C585 C 0.57122 0.57042 0.08454 0.0
C586 C 0.55329 0.58534 0.09355 0.0
C587 C 0.5413 0.59524 0.05812 0.0
C588 C 0.57626 0.56572 0.0399 0.0
H589 H 0.53815 0.59793 0.9869 0.0
C590 C 0.54953 0.59711 0.88807 0.0
O591 O 0.60699 0.63284 0.84888 0.0
O592 O 0.59564 0.64002 0.91779 0.0
N593 N 0.59864 0.54941 0.98466 0.0
C594 C 0.61664 0.53691 0.97031 0.0
C595 C 0.63106 0.52669 0.00166 0.0
C596 C 0.62684 0.52945 0.04737 0.0
C597 C 0.60821 0.5424 0.06134 0.0
C598 C 0.59429 0.55199 0.02858 0.0
H599 H 0.6201 0.5349 0.93523 0.0
O600 O 0.62864 0.60573 0.92463 0.0
O601 O 0.59578 0.5921 0.94671 0.0
O602 O 0.6052 0.58069 0.85593 0.0
O603 O 0.58825 0.55266 0.89387 0.0
C604 C 0.60323 0.5466 0.10648 0.0
C605 C 0.58472 0.56056 0.11808 0.0
H606 H 0.54876 0.58953 0.12753 0.0
H607 H 0.52752 0.60687 0.06481 0.0
H608 H 0.64547 0.51683 0.99061 0.0
H609 H 0.63814 0.52175 0.07144 0.0
H610 H 0.61373 0.53946 0.13254 0.0
H611 H 0.58127 0.56395 0.15288 0.0
Mn612 Mn 0.63919 0.3461 0.14338 0.0
Mn613 Mn 0.68224 0.32391 0.2032 0.0
C614 C 0.65252 0.36453 0.2059 0.0
C615 C 0.60061 0.34954 0.12852 0.0
C616 C 0.6886 0.34681 0.11373 0.0
O617 O 0.63966 0.31311 0.12382 0.0
O618 O 0.66713 0.29937 0.16879 0.0
C619 C 0.65661 0.29475 0.2657 0.0
N620 N 0.67126 0.31223 0.25853 0.0
C621 C 0.67525 0.31874 0.33727 0.0
C622 C 0.66028 0.30075 0.34548 0.0
C623 C 0.65093 0.28871 0.30953 0.0
C624 C 0.68053 0.32379 0.29289 0.0
H625 H 0.64925 0.28553 0.2382 0.0
C626 C 0.65149 0.29678 0.13947 0.0
O627 O 0.61576 0.35395 0.09836 0.0
O628 O 0.60788 0.34261 0.16696 0.0
N629 N 0.69749 0.34624 0.23853 0.0
C630 C 0.71012 0.36428 0.22485 0.0
C631 C 0.71983 0.37875 0.25672 0.0
C632 C 0.71645 0.37453 0.30227 0.0
C633 C 0.70341 0.35584 0.31556 0.0
C634 C 0.69433 0.34188 0.2823 0.0
H635 H 0.7126 0.36773 0.18988 0.0
O636 O 0.64183 0.37584 0.1753 0.0
O637 O 0.65538 0.3431 0.19817 0.0
O638 O 0.66796 0.35244 0.10797 0.0
O639 O 0.69557 0.33577 0.14763 0.0
C640 C 0.6986 0.35085 0.36046 0.0
C641 C 0.68458 0.33228 0.37131 0.0
H642 H 0.65564 0.2962 0.37922 0.0
H643 H 0.63927 0.27488 0.3156 0.0
H644 H 0.72978 0.3932 0.2462 0.0
H645 H 0.72377 0.38587 0.32674 0.0
H646 H 0.70533 0.36139 0.38689 0.0
H647 H 0.68072 0.32883 0.40592 0.0
Mn648 Mn 0.89874 0.39273 0.40314 0.0
Mn649 Mn 0.92152 0.4369 0.45881 0.0
C650 C 0.88059 0.40791 0.46435 0.0
C651 C 0.89363 0.3541 0.39168 0.0
C652 C 0.89867 0.44145 0.36925 0.0
O653 O 0.93174 0.39166 0.38417 0.0
O654 O 0.94558 0.42116 0.42381 0.0
C655 C 0.95163 0.41214 0.52099 0.0
N656 N 0.93404 0.42669 0.51402 0.0
C657 C 0.92865 0.43171 0.59286 0.0
C658 C 0.94677 0.41686 0.60084 0.0
C659 C 0.9583 0.40705 0.56474 0.0
C660 C 0.92298 0.43643 0.54853 0.0
H661 H 0.96047 0.40442 0.4934 0.0
C662 C 0.94806 0.40433 0.39702 0.0
O663 O 0.89014 0.36872 0.36011 0.0
O664 O 0.90085 0.36187 0.42955 0.0
N665 N 0.89975 0.45268 0.4946 0.0
C666 C 0.88136 0.46492 0.48131 0.0
C667 C 0.86732 0.475 0.51345 0.0
C668 C 0.87226 0.47232 0.5589 0.0
C669 C 0.89121 0.45955 0.5718 0.0
C670 C 0.90474 0.4501 0.53825 0.0
H671 H 0.87728 0.46673 0.44647 0.0
O672 O 0.86901 0.39717 0.4342 0.0
O673 O 0.90211 0.41009 0.45652 0.0
O674 O 0.89373 0.42061 0.36458 0.0
O675 O 0.90883 0.44951 0.40324 0.0
C676 C 0.89685 0.45534 0.61663 0.0
C677 C 0.91558 0.44147 0.62715 0.0
H678 H 0.95179 0.41266 0.63454 0.0
H679 H 0.97223 0.39548 0.57063 0.0
H680 H 0.85261 0.48467 0.50324 0.0
H681 H 0.86124 0.47991 0.58361 0.0
H682 H 0.88668 0.4624 0.64328 0.0
H683 H 0.91954 0.43807 0.66174 0.0
Mn684 Mn 0.85423 0.64784 0.65452 0.0
Mn685 Mn 0.81028 0.67172 0.70899 0.0
C686 C 0.83864 0.63026 0.71594 0.0
C687 C 0.8928 0.6423 0.64306 0.0
C688 C 0.80569 0.64831 0.61974 0.0
O689 O 0.85562 0.68073 0.6344 0.0
O690 O 0.82685 0.69545 0.67486 0.0
C691 C 0.835 0.70114 0.77247 0.0
N692 N 0.82018 0.68386 0.76473 0.0
C693 C 0.81427 0.67834 0.84329 0.0
C694 C 0.8294 0.69612 0.85207 0.0
C695 C 0.8398 0.70757 0.81649 0.0
C696 C 0.80988 0.6729 0.79871 0.0
H697 H 0.84317 0.7099 0.74527 0.0
C698 C 0.84354 0.69743 0.64764 0.0
O699 O 0.87809 0.63866 0.61172 0.0
O700 O 0.88516 0.64991 0.68076 0.0
N701 N 0.79366 0.65021 0.74386 0.0
C702 C 0.78098 0.63227 0.72982 0.0
C703 C 0.77024 0.61838 0.76139 0.0
C704 C 0.77267 0.62305 0.80701 0.0
C705 C 0.78582 0.6416 0.82066 0.0
C706 C 0.79594 0.65499 0.78767 0.0
H707 H 0.77924 0.62847 0.69481 0.0
O708 O 0.8495 0.61842 0.68636 0.0
O709 O 0.83678 0.65178 0.7077 0.0
O710 O 0.82635 0.64244 0.61631 0.0
O711 O 0.79793 0.65951 0.65275 0.0
C712 C 0.7897 0.64701 0.86572 0.0
C713 C 0.80389 0.66539 0.87702 0.0
H714 H 0.83336 0.70096 0.88599 0.0
H715 H 0.85159 0.72124 0.82301 0.0
H716 H 0.76022 0.60402 0.7506 0.0
H717 H 0.76454 0.61216 0.83127 0.0
H718 H 0.78212 0.63694 0.89196 0.0
H719 H 0.80701 0.66917 0.91179 0.0
Mn720 Mn 0.60415 0.39996 0.58382 0.0
Mn721 Mn 0.58194 0.44169 0.52067 0.0
C722 C 0.62183 0.41118 0.51882 0.0
C723 C 0.60787 0.36179 0.60211 0.0
C724 C 0.6053 0.44996 0.60906 0.0
O725 O 0.57124 0.40124 0.60431 0.0
O726 O 0.55747 0.42772 0.55697 0.0
C727 C 0.55202 0.41509 0.46114 0.0
N728 N 0.56989 0.42947 0.46664 0.0
C729 C 0.57652 0.43085 0.38761 0.0
C730 C 0.55816 0.41611 0.38111 0.0
C731 C 0.54586 0.40821 0.41804 0.0
C732 C 0.58169 0.43738 0.43129 0.0
H733 H 0.54261 0.40884 0.48943 0.0
C734 C 0.55492 0.41286 0.58784 0.0
O735 O 0.61247 0.37766 0.63069 0.0
O736 O 0.60033 0.3681 0.56346 0.0
N737 N 0.6044 0.4556 0.48361 0.0
C738 C 0.62269 0.46827 0.49584 0.0
C739 C 0.63737 0.47668 0.46293 0.0
C740 C 0.63312 0.47194 0.41785 0.0
C741 C 0.61421 0.45884 0.40607 0.0
C742 C 0.60005 0.45111 0.44029 0.0
H743 H 0.62616 0.47177 0.53046 0.0
O744 O 0.63354 0.40147 0.55009 0.0
O745 O 0.60066 0.41472 0.52786 0.0
O746 O 0.611 0.42947 0.61622 0.0
O747 O 0.59411 0.45625 0.57483 0.0
C748 C 0.60917 0.4527 0.36182 0.0
C749 C 0.59031 0.43876 0.35258 0.0
H750 H 0.55353 0.41053 0.34796 0.0
H751 H 0.53174 0.39674 0.41331 0.0
H752 H 0.652 0.48667 0.4723 0.0
H753 H 0.64462 0.47825 0.3926 0.0
H754 H 0.61987 0.45835 0.33468 0.0
H755 H 0.5868 0.4339 0.31849 0.0
Mn756 Mn 0.85014 0.35121 0.83676 0.0
Mn757 Mn 0.80831 0.32778 0.77557 0.0
C758 C 0.83685 0.36912 0.77357 0.0
C759 C 0.88845 0.35644 0.85231 0.0
C760 C 0.80047 0.35039 0.86483 0.0
O761 O 0.85074 0.31814 0.85616 0.0
O762 O 0.82367 0.30375 0.81093 0.0
C763 C 0.83533 0.29909 0.71446 0.0
N764 N 0.82026 0.3163 0.72084 0.0
C765 C 0.81747 0.32292 0.64195 0.0
C766 C 0.83291 0.30523 0.63455 0.0
C767 C 0.84185 0.29326 0.67097 0.0
C768 C 0.81134 0.32776 0.686 0.0
H769 H 0.8424 0.28995 0.74235 0.0
C770 C 0.83926 0.30154 0.8405 0.0
O771 O 0.87298 0.36009 0.88227 0.0
O772 O 0.88168 0.34898 0.81391 0.0
N773 N 0.79297 0.34969 0.7394 0.0
C774 C 0.77973 0.36743 0.75242 0.0
C775 C 0.77024 0.38175 0.72005 0.0
C776 C 0.7745 0.37773 0.67471 0.0
C777 C 0.78818 0.35938 0.66213 0.0
C778 C 0.79698 0.34553 0.69583 0.0
H779 H 0.7766 0.37074 0.78724 0.0
O780 O 0.84665 0.38084 0.80472 0.0
O781 O 0.83456 0.34765 0.7815 0.0
O782 O 0.82091 0.35645 0.87141 0.0
O783 O 0.79405 0.33937 0.83047 0.0
C784 C 0.79388 0.35462 0.61753 0.0
C785 C 0.80847 0.33637 0.60744 0.0
H786 H 0.8382 0.30086 0.60109 0.0
H787 H 0.85386 0.27966 0.66555 0.0
H788 H 0.7598 0.39596 0.73004 0.0
H789 H 0.76735 0.38897 0.64988 0.0
H790 H 0.78738 0.36508 0.59077 0.0
H791 H 0.81298 0.33309 0.57307 0.0
Mn792 Mn 0.89794 0.59966 0.08355 0.0
Mn793 Mn 0.92032 0.55646 0.02451 0.0
C794 C 0.87924 0.58535 0.02218 0.0
C795 C 0.89273 0.63808 0.09724 0.0
C796 C 0.8985 0.55048 0.11474 0.0
O797 O 0.93113 0.60059 0.10123 0.0
O798 O 0.94474 0.57181 0.05927 0.0
C799 C 0.94953 0.5823 0.96237 0.0
N800 N 0.93205 0.56761 0.96933 0.0
C801 C 0.92542 0.5641 0.89054 0.0
C802 C 0.94339 0.57912 0.88256 0.0
C803 C 0.9555 0.58824 0.91864 0.0
C804 C 0.92045 0.55852 0.93482 0.0
H805 H 0.95879 0.58951 0.98996 0.0
C806 C 0.9474 0.58824 0.08695 0.0
O807 O 0.88964 0.62303 0.1282 0.0
O808 O 0.89964 0.63085 0.05874 0.0
N809 N 0.89815 0.54115 0.98889 0.0
C810 C 0.88005 0.52854 0.00238 0.0
C811 C 0.86555 0.51901 0.97037 0.0
C812 C 0.86974 0.52261 0.92488 0.0
C813 C 0.8884 0.53574 0.91179 0.0
C814 C 0.90242 0.5446 0.94518 0.0
H815 H 0.87654 0.52602 0.03729 0.0
O816 O 0.86791 0.59554 0.05341 0.0
O817 O 0.90083 0.58312 0.02916 0.0
O818 O 0.89344 0.57121 0.12061 0.0
O819 O 0.9084 0.54295 0.07998 0.0
C820 C 0.8933 0.54084 0.86699 0.0
C821 C 0.91183 0.55498 0.85636 0.0
H822 H 0.94788 0.58397 0.8489 0.0
H823 H 0.96932 0.59993 0.91276 0.0
H824 H 0.85107 0.50905 0.98074 0.0
H825 H 0.85836 0.51544 0.9003 0.0
H826 H 0.88274 0.53426 0.84046 0.0
H827 H 0.91522 0.55905 0.82183 0.0
Mn828 Mn 0.65123 0.64258 0.33173 0.0
Mn829 Mn 0.69357 0.66535 0.27098 0.0
C830 C 0.66351 0.62514 0.26724 0.0
C831 C 0.613 0.63818 0.34864 0.0
C832 C 0.70083 0.64206 0.35972 0.0
O833 O 0.65181 0.67549 0.35238 0.0
O834 O 0.6788 0.68962 0.30659 0.0
C835 C 0.66758 0.69506 0.21008 0.0
N836 N 0.68201 0.67731 0.21634 0.0
C837 C 0.68457 0.67073 0.13739 0.0
C838 C 0.66976 0.68896 0.13013 0.0
C839 C 0.66125 0.70118 0.16664 0.0
C840 C 0.69053 0.66561 0.18141 0.0
H841 H 0.66085 0.70441 0.23803 0.0
C842 C 0.66348 0.69196 0.33665 0.0
O843 O 0.6287 0.6339 0.37773 0.0
O844 O 0.61949 0.64586 0.31018 0.0
N845 N 0.70824 0.64305 0.23465 0.0
C846 C 0.7209 0.62488 0.24754 0.0
C847 C 0.7299 0.61029 0.21508 0.0
C848 C 0.72575 0.6145 0.16977 0.0
C849 C 0.71264 0.63329 0.15731 0.0
C850 C 0.70431 0.64737 0.19111 0.0
H851 H 0.72395 0.62143 0.28234 0.0
O852 O 0.6536 0.61326 0.29803 0.0
O853 O 0.66666 0.64635 0.27651 0.0
O854 O 0.68033 0.6361 0.36552 0.0
O855 O 0.70754 0.65334 0.32592 0.0
C856 C 0.70708 0.63829 0.11275 0.0
C857 C 0.6931 0.65702 0.10279 0.0
H858 H 0.66462 0.69356 0.0967 0.0
H859 H 0.64973 0.71521 0.1613 0.0
H860 H 0.7399 0.59575 0.22496 0.0
H861 H 0.73252 0.60308 0.14486 0.0
H862 H 0.71321 0.62766 0.08592 0.0
H863 H 0.68868 0.66051 0.06845 0.0
Mn864 Mn 0.38771 0.39005 0.08827 0.0
Mn865 Mn 0.4107 0.43073 0.02389 0.0
C866 C 0.36637 0.40721 0.03248 0.0
C867 C 0.38009 0.35196 0.10133 0.0
C868 C 0.39622 0.43855 0.11935 0.0
O869 O 0.42154 0.38544 0.09789 0.0
O870 O 0.43512 0.41221 0.05151 0.0
C871 C 0.42995 0.40031 0.95511 0.0
N872 N 0.4163 0.41805 0.96631 0.0
C873 C 0.40551 0.42371 0.88984 0.0
C874 C 0.41958 0.40561 0.87745 0.0
C875 C 0.43177 0.3938 0.91026 0.0
C876 C 0.40421 0.42927 0.9351 0.0
H877 H 0.43934 0.39117 0.98021 0.0
C878 C 0.43792 0.39582 0.079 0.0
O879 O 0.38013 0.36662 0.13364 0.0
O880 O 0.38497 0.35939 0.06189 0.0
N881 N 0.38903 0.44967 0.99436 0.0
C882 C 0.3756 0.46618 0.01198 0.0
C883 C 0.36236 0.47969 0.98355 0.0
C884 C 0.36313 0.47614 0.93732 0.0
C885 C 0.37717 0.45912 0.91991 0.0
C886 C 0.3901 0.4463 0.94986 0.0
H887 H 0.37498 0.46902 0.04742 0.0
O888 O 0.35645 0.39749 0.066 0.0
O889 O 0.38832 0.40706 0.03415 0.0
O890 O 0.3888 0.41857 0.12635 0.0
O891 O 0.40472 0.44514 0.08236 0.0
C892 C 0.37852 0.45409 0.8741 0.0
C893 C 0.3926 0.43632 0.85911 0.0
H894 H 0.42105 0.40057 0.84288 0.0
H895 H 0.44256 0.37973 0.901 0.0
H896 H 0.35156 0.49279 -0.00275 0.0
H897 H 0.35277 0.48648 0.91553 0.0
H898 H 0.36858 0.46359 0.85019 0.0
H899 H 0.39326 0.43242 0.82388 0.0
Mn900 Mn 0.34964 0.65144 0.82473 0.0
Mn901 Mn 0.30687 0.67245 0.76312 0.0
C902 C 0.33476 0.63046 0.76666 0.0
C903 C 0.38824 0.64689 0.83757 0.0
C904 C 0.30115 0.65524 0.85781 0.0
O905 O 0.35063 0.68525 0.83815 0.0
O906 O 0.32413 0.69815 0.78986 0.0
C907 C 0.33259 0.69555 0.69159 0.0
N908 N 0.3171 0.6797 0.70439 0.0
C909 C 0.31137 0.66784 0.62851 0.0
C910 C 0.32705 0.68423 0.61451 0.0
C911 C 0.33772 0.69812 0.64621 0.0
C912 C 0.30665 0.6663 0.67413 0.0
H913 H 0.34116 0.70595 0.71585 0.0
C914 C 0.33985 0.7013 0.81885 0.0
O915 O 0.37354 0.64474 0.86951 0.0
O916 O 0.38055 0.65245 0.79862 0.0
N917 N 0.28976 0.6488 0.73515 0.0
C918 C 0.27666 0.6325 0.75444 0.0
C919 C 0.26572 0.61641 0.72749 0.0
C920 C 0.2684 0.61721 0.68105 0.0
C921 C 0.282 0.6341 0.66195 0.0
C922 C 0.29229 0.64983 0.69045 0.0
H923 H 0.27472 0.63165 0.79015 0.0
O924 O 0.34532 0.62039 0.79903 0.0
O925 O 0.33279 0.65228 0.77051 0.0
O926 O 0.32136 0.64813 0.86275 0.0
O927 O 0.2942 0.66515 0.82252 0.0
C928 C 0.28618 0.63561 0.61585 0.0
C929 C 0.30083 0.65248 0.59914 0.0
H930 H 0.3313 0.68605 0.5796 0.0
H931 H 0.35003 0.71063 0.63572 0.0
H932 H 0.25535 0.60335 0.7425 0.0
H933 H 0.26011 0.60462 0.66041 0.0
H934 H 0.27848 0.62365 0.59302 0.0
H935 H 0.3042 0.65323 0.56371 0.0
Mn936 Mn 0.10272 0.60104 0.58474 0.0
Mn937 Mn 0.07903 0.55717 0.52964 0.0
C938 C 0.12041 0.58561 0.52315 0.0
C939 C 0.10825 0.63964 0.59617 0.0
C940 C 0.10195 0.5524 0.61912 0.0
O941 O 0.06981 0.6026 0.60421 0.0
O942 O 0.05529 0.57342 0.56461 0.0
C943 C 0.04916 0.58211 0.46732 0.0
N944 N 0.06656 0.56735 0.47437 0.0
C945 C 0.07167 0.56188 0.39558 0.0
C946 C 0.05376 0.57695 0.3875 0.0
C947 C 0.04245 0.5871 0.42354 0.0
C948 C 0.07739 0.55727 0.43994 0.0
H949 H 0.0405 0.59008 0.49486 0.0
C950 C 0.05321 0.59026 0.59149 0.0
O951 O 0.11176 0.62496 0.62762 0.0
O952 O 0.1009 0.63195 0.55833 0.0
N953 N 0.10049 0.54093 0.49396 0.0
C954 C 0.11872 0.52847 0.50732 0.0
C955 C 0.13255 0.51805 0.47523 0.0
C956 C 0.12755 0.52061 0.42977 0.0
C957 C 0.10876 0.5336 0.41681 0.0
C958 C 0.09545 0.5434 0.4503 0.0
H959 H 0.12282 0.52673 0.54217 0.0
O960 O 0.13225 0.59616 0.55317 0.0
O961 O 0.0989 0.58369 0.53141 0.0
O962 O 0.10744 0.57313 0.6234 0.0
O963 O 0.09152 0.54449 0.58532 0.0
C964 C 0.10308 0.53768 0.37196 0.0
C965 C 0.08452 0.55177 0.36135 0.0
H966 H 0.04871 0.58107 0.35377 0.0
H967 H 0.02868 0.59884 0.41757 0.0
H968 H 0.14712 0.5082 0.48549 0.0
H969 H 0.1384 0.51274 0.40511 0.0
H970 H 0.11307 0.53035 0.34534 0.0
H971 H 0.08053 0.55507 0.32674 0.0
Mn972 Mn 0.14752 0.34758 0.33376 0.0
Mn973 Mn 0.19055 0.32376 0.27646 0.0
C974 C 0.16329 0.36597 0.27339 0.0
C975 C 0.10909 0.35398 0.34555 0.0
C976 C 0.19631 0.34514 0.36718 0.0
O977 O 0.14511 0.31445 0.351 0.0
O978 O 0.17394 0.29989 0.3105 0.0
C979 C 0.16433 0.29553 0.21317 0.0
N980 N 0.17961 0.31242 0.22079 0.0
C981 C 0.18439 0.31878 0.14217 0.0
C982 C 0.16878 0.30139 0.13352 0.0
C983 C 0.15872 0.28972 0.16918 0.0
C984 C 0.18959 0.32359 0.18669 0.0
H985 H 0.15641 0.28661 0.24043 0.0
C986 C 0.15708 0.29779 0.33731 0.0
O987 O 0.12382 0.35656 0.37729 0.0
O988 O 0.11663 0.34703 0.30732 0.0
N989 N 0.20707 0.34533 0.24152 0.0
C990 C 0.2201 0.36302 0.25555 0.0
C991 C 0.23058 0.3771 0.22398 0.0
C992 C 0.22745 0.37294 0.17834 0.0
C993 C 0.21384 0.35473 0.16468 0.0
C994 C 0.20404 0.34111 0.19767 0.0
H995 H 0.22224 0.36652 0.29056 0.0
O996 O 0.15314 0.37752 0.30437 0.0
O997 O 0.1646 0.34427 0.28001 0.0
O998 O 0.17568 0.35086 0.37234 0.0
O999 O 0.20387 0.33519 0.3325 0.0
C1000 C 0.20915 0.34993 0.11965 0.0
C1001 C 0.19447 0.33194 0.1084 0.0
H1002 H 0.16419 0.29705 0.09965 0.0
H1003 H 0.14657 0.27637 0.16278 0.0
H1004 H 0.24088 0.39125 0.23479 0.0
H1005 H 0.23535 0.384 0.15409 0.0
H1006 H 0.21647 0.36019 0.09342 0.0
H1007 H 0.19072 0.32865 0.07369 0.0
Mn1008 Mn 0.40359 0.59446 0.41426 0.0
Mn1009 Mn 0.42772 0.5511 0.46991 0.0
C1010 C 0.38509 0.57782 0.4736 0.0
C1011 C 0.39673 0.63289 0.40391 0.0
C1012 C 0.40667 0.5461 0.37876 0.0
O1013 O 0.43672 0.59751 0.39763 0.0
O1014 O 0.45151 0.56829 0.43662 0.0
C1015 C 0.4557 0.57684 0.53437 0.0
N1016 N 0.43896 0.56149 0.52606 0.0
C1017 C 0.43276 0.5556 0.60443 0.0
C1018 C 0.45 0.57126 0.61379 0.0
C1019 C 0.46151 0.58192 0.5786 0.0
C1020 C 0.42794 0.55094 0.55968 0.0
H1021 H 0.46451 0.5852 0.50748 0.0
C1022 C 0.45348 0.58552 0.41068 0.0
O1023 O 0.3945 0.61846 0.37155 0.0
O1024 O 0.40358 0.62506 0.44198 0.0
N1025 N 0.4063 0.53398 0.50407 0.0
C1026 C 0.38873 0.52097 0.48945 0.0
C1027 C 0.37479 0.50993 0.52054 0.0
C1028 C 0.37899 0.51248 0.5663 0.0
C1029 C 0.39708 0.52608 0.58057 0.0
C1030 C 0.41055 0.53647 0.54804 0.0
H1031 H 0.3852 0.51926 0.45436 0.0
O1032 O 0.37362 0.5881 0.44269 0.0
O1033 O 0.40688 0.57686 0.46749 0.0
O1034 O 0.40085 0.56672 0.37434 0.0
O1035 O 0.41648 0.53824 0.41333 0.0
C1036 C 0.40191 0.5302 0.62581 0.0
C1037 C 0.41976 0.54492 0.63772 0.0
H1038 H 0.45435 0.57544 0.64787 0.0
H1039 H 0.47476 0.59411 0.58556 0.0
H1040 H 0.36073 0.49963 0.50927 0.0
H1041 H 0.36805 0.50413 0.59019 0.0
H1042 H 0.39178 0.5224 0.6517 0.0
H1043 H 0.42308 0.54821 0.6726 0.0
Mn1044 Mn 0.14672 0.64554 0.15335 0.0
Mn1045 Mn 0.18763 0.67126 0.21282 0.0
C1046 C 0.16246 0.62757 0.2146 0.0
C1047 C 0.10849 0.63844 0.14051 0.0
C1048 C 0.19437 0.65261 0.1193 0.0
O1049 O 0.14384 0.67887 0.13594 0.0
O1050 O 0.16765 0.69496 0.18623 0.0
C1051 C 0.16193 0.69342 0.28559 0.0
N1052 N 0.17784 0.67818 0.27207 0.0
C1053 C 0.18561 0.66734 0.34785 0.0
C1054 C 0.16926 0.6829 0.36249 0.0
C1055 C 0.1574 0.69602 0.33121 0.0
C1056 C 0.18961 0.6657 0.30197 0.0
H1057 H 0.15267 0.70337 0.26175 0.0
C1058 C 0.1524 0.69609 0.15569 0.0
O1059 O 0.12348 0.63605 0.10918 0.0
O1060 O 0.11564 0.6456 0.17886 0.0
N1061 N 0.20699 0.64923 0.24037 0.0
C1062 C 0.2211 0.6339 0.22072 0.0
C1063 C 0.2336 0.61886 0.24737 0.0
C1064 C 0.23143 0.61967 0.29391 0.0
C1065 C 0.21679 0.63554 0.3134 0.0
C1066 C 0.2049 0.65024 0.28517 0.0
H1067 H 0.22272 0.63304 0.18498 0.0
O1068 O 0.15271 0.6157 0.18361 0.0
O1069 O 0.16328 0.64918 0.20729 0.0
O1070 O 0.1753 0.64269 0.11612 0.0
O1071 O 0.20007 0.66462 0.15291 0.0
C1072 C 0.21317 0.63703 0.35969 0.0
C1073 C 0.19763 0.65295 0.37691 0.0
H1074 H 0.16553 0.68476 0.39762 0.0
H1075 H 0.14469 0.70802 0.34221 0.0
H1076 H 0.2448 0.60659 0.23206 0.0
H1077 H 0.24096 0.60791 0.31433 0.0
H1078 H 0.22208 0.62584 0.38232 0.0
H1079 H 0.1948 0.65375 0.41251 0.0
Mn1080 Mn 0.09904 0.39634 0.91108 0.0
Mn1081 Mn 0.07617 0.44012 0.96772 0.0
C1082 C 0.11774 0.4119 0.9713 0.0
C1083 C 0.10475 0.35779 0.8995 0.0
C1084 C 0.09782 0.44507 0.87707 0.0
O1085 O 0.06583 0.39459 0.89387 0.0
O1086 O 0.05192 0.42393 0.93385 0.0
C1087 C 0.04723 0.41486 0.03127 0.0
N1088 N 0.0645 0.42969 0.0235 0.0
C1089 C 0.07081 0.43472 0.10207 0.0
C1090 C 0.05305 0.41957 0.11088 0.0
C1091 C 0.04121 0.40961 0.07532 0.0
C1092 C 0.07584 0.43958 0.05749 0.0
H1093 H 0.03817 0.40701 0.0041 0.0
C1094 C 0.04942 0.40698 0.90739 0.0
O1095 O 0.10755 0.37243 0.8677 0.0
O1096 O 0.09789 0.36549 0.93768 0.0
N1097 N 0.09809 0.45627 0.0025 0.0
C1098 C 0.11609 0.46882 0.98837 0.0
C1099 C 0.13036 0.47912 0.01986 0.0
C1100 C 0.12604 0.47632 0.06552 0.0
C1101 C 0.10749 0.46321 0.07929 0.0
C1102 C 0.09371 0.45356 0.04638 0.0
H1103 H 0.11971 0.47071 0.95336 0.0
O1104 O 0.12908 0.40141 0.94046 0.0
O1105 O 0.09606 0.41366 0.96466 0.0
O1106 O 0.103 0.42429 0.87221 0.0
O1107 O 0.08798 0.45298 0.91156 0.0
C1108 C 0.1025 0.45887 0.12437 0.0
C1109 C 0.08415 0.44467 0.13575 0.0
H1110 H 0.04852 0.41527 0.1448 0.0
H1111 H 0.02755 0.39782 0.08185 0.0
H1112 H 0.14477 0.48904 0.00897 0.0
H1113 H 0.13724 0.48409 0.08972 0.0
H1114 H 0.11287 0.46609 0.15054 0.0
H1115 H 0.08069 0.44118 0.17051 0.0
Mn1116 Mn 0.35443 0.36064 0.65483 0.0
Mn1117 Mn 0.3132 0.33735 0.71742 0.0
C1118 C 0.3379 0.38107 0.7126 0.0
C1119 C 0.39273 0.36749 0.64227 0.0
C1120 C 0.30569 0.35411 0.62333 0.0
O1121 O 0.35812 0.32696 0.64225 0.0
O1122 O 0.33107 0.31308 0.68774 0.0
C1123 C 0.34301 0.31573 0.78449 0.0
N1124 N 0.32573 0.33017 0.77445 0.0
C1125 C 0.32043 0.33954 0.85175 0.0
C1126 C 0.33806 0.32465 0.86294 0.0
C1127 C 0.34947 0.31277 0.82913 0.0
C1128 C 0.31489 0.34195 0.80666 0.0
H1129 H 0.35184 0.30657 0.75863 0.0
C1130 C 0.34736 0.31046 0.6599 0.0
O1131 O 0.37804 0.36861 0.61008 0.0
O1132 O 0.38519 0.36195 0.6813 0.0
N1133 N 0.29493 0.35894 0.74874 0.0
C1134 C 0.27894 0.37333 0.73226 0.0
C1135 C 0.26595 0.38649 0.76176 0.0
C1136 C 0.26949 0.38466 0.80788 0.0
C1137 C 0.286 0.36967 0.8241 0.0
C1138 C 0.29832 0.35689 0.7931 0.0
H1139 H 0.27614 0.37479 0.69691 0.0
O1140 O 0.34786 0.39155 0.68003 0.0
O1141 O 0.33746 0.35921 0.70886 0.0
O1142 O 0.32584 0.3612 0.61681 0.0
O1143 O 0.29896 0.34494 0.6596 0.0
C1144 C 0.29099 0.36721 0.86973 0.0
C1145 C 0.30825 0.35222 0.88353 0.0
H1146 H 0.34307 0.3223 0.89734 0.0
H1147 H 0.36318 0.30134 0.83748 0.0
H1148 H 0.25327 0.39804 0.74897 0.0
H1149 H 0.25956 0.39496 0.8305 0.0
H1150 H 0.28186 0.37699 0.89445 0.0
H1151 H 0.31214 0.35069 0.91866 0.0
H1152 H 0.0886 0.00487 0.3759 0.0
H1153 H 0.11762 0.05909 0.29735 0.0
H1154 H 0.09237 0.97927 0.31273 0.0
H1155 H 0.12163 0.03332 0.23456 0.0
H1156 H 0.08979 0.98995 0.12089 0.0
H1157 H 0.09373 0.01522 0.18448 0.0
H1158 H 0.11994 0.95993 0.26349 0.0
H1159 H 0.11575 0.93447 0.20017 0.0
C1160 C 0.09606 0.01127 0.34544 0.0
C1161 C 0.10252 0.03413 0.34158 0.0
C1162 C 0.09837 0.99655 0.30934 0.0
C1163 C 0.10714 0.00438 0.26865 0.0
C1164 C 0.11452 0.02694 0.26535 0.0
C1165 C 0.11228 0.04165 0.30146 0.0
C1166 C 0.0966 0.98319 0.15165 0.0
C1167 C 0.1022 0.96011 0.15553 0.0
C1168 C 0.09901 0.99773 0.188 0.0
C1169 C 0.10703 0.98949 0.22898 0.0
C1170 C 0.11345 0.96665 0.23242 0.0
C1171 C 0.11114 0.95212 0.19604 0.0
H1172 H 0.1896 0.86793 0.54331 0.0
H1173 H 0.24251 0.84154 0.62864 0.0
H1174 H 0.2169 0.8717 0.48284 0.0
H1175 H 0.26953 0.84493 0.56798 0.0
H1176 H 0.31704 0.86436 0.45839 0.0
H1177 H 0.29 0.87084 0.51841 0.0
H1178 H 0.23632 0.84344 0.4366 0.0
H1179 H 0.26311 0.83735 0.37634 0.0
C1180 C 0.20707 0.86316 0.54939 0.0
C1181 C 0.21378 0.85411 0.59067 0.0
C1182 C 0.22267 0.86525 0.51466 0.0
C1183 C 0.24529 0.85843 0.52057 0.0
C1184 C 0.25226 0.85052 0.5625 0.0
C1185 C 0.23669 0.84839 0.59718 0.0
C1186 C 0.29942 0.85999 0.45294 0.0
C1187 C 0.29232 0.85003 0.41272 0.0
C1188 C 0.28396 0.86365 0.48741 0.0
C1189 C 0.2611 0.85751 0.48231 0.0
C1190 C 0.25379 0.84856 0.4414 0.0
C1191 C 0.26922 0.84487 0.40698 0.0
H1192 H 0.3778 0.07092 0.71539 0.0
H1193 H 0.3996 0.01413 0.63484 0.0
H1194 H 0.37057 0.04526 0.77743 0.0
H1195 H 0.39265 0.98868 0.69702 0.0
H1196 H 0.36602 0.94519 0.80583 0.0
H1197 H 0.36294 0.97246 0.74535 0.0
H1198 H 0.39593 0.02306 0.82668 0.0
H1199 H 0.39878 0.99598 0.88755 0.0
C1200 C 0.38084 0.05297 0.7107 0.0
C1201 C 0.38953 0.04461 0.67026 0.0
C1202 C 0.37676 0.03831 0.74633 0.0
C1203 C 0.38112 0.01501 0.74211 0.0
C1204 C 0.38888 0.00654 0.70112 0.0
C1205 C 0.39307 0.02117 0.6656 0.0
C1206 C 0.37227 0.96224 0.81122 0.0
C1207 C 0.38302 0.96827 0.85135 0.0
C1208 C 0.37057 0.97781 0.77644 0.0
C1209 C 0.37947 -0.00024 0.7811 0.0
C1210 C 0.38882 0.00628 0.82219 0.0
C1211 C 0.39057 0.9907 0.85699 0.0
H1212 H 0.18075 0.1513 0.96288 0.0
H1213 H 0.23263 0.12875 0.87183 0.0
H1214 H 0.20651 0.14614 0.02503 0.0
H1215 H 0.25797 0.12145 0.93415 0.0
H1216 H 0.30695 0.14225 0.04347 0.0
H1217 H 0.28057 0.14053 0.982 0.0
H1218 H 0.22629 0.12437 0.07391 0.0
H1219 H 0.25274 0.12813 0.13591 0.0
C1220 C 0.19757 0.14464 0.95644 0.0
C1221 C 0.20486 0.14062 0.91272 0.0
C1222 C 0.21234 0.14144 0.99214 0.0
C1223 C 0.23457 0.13348 0.985 0.0
C1224 C 0.24131 0.12826 0.94112 0.0
C1225 C 0.22675 0.13223 0.9053 0.0
C1226 C 0.2894 0.13808 0.05041 0.0
C1227 C 0.28181 0.13544 0.09435 0.0
C1228 C 0.2742 0.13688 0.01502 0.0
C1229 C 0.25107 0.13237 0.02256 0.0
C1230 C 0.24378 0.12849 0.06664 0.0
C1231 C 0.25893 0.13041 0.10225 0.0
H1232 H 0.87818 0.93666 0.6916 0.0
H1233 H 0.90776 0.99144 0.6154 0.0
H1234 H 0.87214 0.96242 0.75382 0.0
H1235 H 0.90201 0.01701 0.678 0.0
H1236 H 0.87626 0.06171 0.78812 0.0
H1237 H 0.87333 0.03604 0.72475 0.0
H1238 H 0.89814 0.98104 0.80628 0.0
H1239 H 0.90074 0.00647 0.86977 0.0
C1240 C 0.88325 0.95421 0.68791 0.0
C1241 C 0.89373 0.96191 0.64862 0.0
C1242 C 0.87983 0.96893 0.72367 0.0
C1243 C 0.88674 0.99166 0.72089 0.0
C1244 C 0.89631 -0.00039 0.68099 0.0
C1245 C 0.89978 0.9849 0.64523 0.0
C1246 C 0.88075 0.04407 0.79277 0.0
C1247 C 0.889 0.03621 0.83394 0.0
C1248 C 0.87918 0.02941 0.75637 0.0
C1249 C 0.88568 0.0066 0.76047 0.0
C1250 C 0.89283 -0.0015 0.80216 0.0
C1251 C 0.89448 0.01314 0.83849 0.0
H1252 H 0.75506 0.15576 0.37281 0.0
H1253 H 0.80937 0.12856 0.45362 0.0
H1254 H 0.72965 0.15396 0.4365 0.0
H1255 H 0.78373 0.12646 0.5171 0.0
H1256 H 0.74085 0.16098 0.62822 0.0
H1257 H 0.7659 0.15554 0.56471 0.0
H1258 H 0.71012 0.12826 0.48841 0.0
H1259 H 0.68488 0.134 0.55157 0.0
C1260 C 0.76152 0.14909 0.40393 0.0
C1261 C 0.78435 0.14258 0.40819 0.0
C1262 C 0.74689 0.14792 0.44037 0.0
C1263 C 0.75477 0.14024 0.48186 0.0
C1264 C 0.77729 0.13276 0.48566 0.0
C1265 C 0.79193 0.13386 0.44918 0.0
C1266 C 0.73391 0.15369 0.59804 0.0
C1267 C 0.71078 0.14817 0.5949 0.0
C1268 C 0.74834 0.15039 0.56176 0.0
C1269 C 0.73994 0.14155 0.52156 0.0
C1270 C 0.71699 0.13537 0.51883 0.0
C1271 C 0.70257 0.13859 0.55512 0.0
H1272 H 0.58703 0.98442 0.37314 0.0
H1273 H 0.61734 0.93283 0.28971 0.0
H1274 H 0.58718 0.01063 0.31046 0.0
H1275 H 0.61774 0.95921 0.22745 0.0
H1276 H 0.58464 0.00258 0.11685 0.0
H1277 H 0.58859 0.97683 0.17969 0.0
H1278 H 0.61329 0.0319 0.26118 0.0
H1279 H 0.60906 0.05784 0.19859 0.0
C1280 C 0.59388 0.9787 0.34161 0.0
C1281 C 0.602 0.95644 0.33643 0.0
C1282 C 0.59411 0.99378 0.3058 0.0
C1283 C 0.60239 0.98691 0.26405 0.0
C1284 C 0.61099 0.96486 0.25911 0.0
C1285 C 0.61084 0.9498 0.29491 0.0
C1286 C 0.59102 0.00922 0.14806 0.0
C1287 C 0.59639 0.03232 0.15271 0.0
C1288 C 0.59343 0.99442 0.18398 0.0
C1289 C 0.60119 0.00239 0.22534 0.0
C1290 C 0.60702 0.02536 0.2298 0.0
C1291 C 0.60471 0.04016 0.19383 0.0
H1292 H 0.68016 0.8468 0.95794 0.0
H1293 H 0.73364 0.86482 0.86655 0.0
H1294 H 0.70724 0.84592 0.01879 0.0
H1295 H 0.76052 0.86611 0.92773 0.0
H1296 H 0.80844 0.8407 0.03413 0.0
H1297 H 0.78135 0.844 0.97373 0.0
H1298 H 0.72968 0.86454 0.06806 0.0
H1299 H 0.75653 0.85912 0.12866 0.0
C1300 C 0.69769 0.85111 0.95117 0.0
C1301 C 0.70485 0.85583 0.90763 0.0
C1302 C 0.71326 0.85081 0.98614 0.0
C1303 C 0.73628 0.85593 0.97859 0.0
C1304 C 0.74316 0.86146 0.93498 0.0
C1305 C 0.7277 0.86099 0.8998 0.0
C1306 C 0.79128 0.84601 0.04173 0.0
C1307 C 0.78451 0.84963 0.08591 0.0
C1308 C 0.7757 0.84812 0.00704 0.0
C1309 C 0.75312 0.85459 0.01558 0.0
C1310 C 0.74667 0.85896 0.05997 0.0
C1311 C 0.7621 0.85611 0.09481 0.0
H1312 H 0.62522 0.44302 0.69033 0.0
H1313 H 0.59678 0.49556 0.60672 0.0
H1314 H 0.62856 0.47004 0.75126 0.0
H1315 H 0.59979 0.52236 0.66796 0.0
H1316 H 0.61878 0.56943 0.77959 0.0
H1317 H 0.62535 0.54323 0.71816 0.0
H1318 H 0.59959 0.48811 0.79824 0.0
H1319 H 0.59336 0.51408 0.85987 0.0
C1320 C 0.61994 0.46037 0.68468 0.0
C1321 C 0.61039 0.46702 0.64378 0.0
C1322 C 0.62178 0.47581 0.71971 0.0
C1323 C 0.61419 0.49822 0.71453 0.0
C1324 C 0.60592 0.50523 0.67288 0.0
C1325 C 0.60404 0.4898 0.63786 0.0
C1326 C 0.61477 0.55167 0.78434 0.0
C1327 C 0.60529 0.54391 0.82454 0.0
C1328 C 0.61847 0.5367 0.74906 0.0
C1329 C 0.61289 0.51366 0.75333 0.0
C1330 C 0.6043 0.50573 0.79409 0.0
C1331 C 0.60053 0.52068 0.8293 0.0
H1332 H 0.80762 0.3696 0.94672 0.0
H1333 H 0.75484 0.34217 0.86236 0.0
H1334 H 0.78037 0.37359 0.0072 0.0
H1335 H 0.72785 0.34579 0.92309 0.0
H1336 H 0.68036 0.36624 0.03242 0.0
H1337 H 0.70728 0.37205 0.9719 0.0
H1338 H 0.76115 0.34568 0.05448 0.0
H1339 H 0.73449 0.34025 0.11521 0.0
C1340 C 0.79019 0.36464 0.94085 0.0
C1341 C 0.7835 0.35526 0.89983 0.0
C1342 C 0.77462 0.36685 0.9756 0.0
C1343 C 0.75205 0.35982 0.97001 0.0
C1344 C 0.74509 0.35154 0.92833 0.0
C1345 C 0.76064 0.34929 0.89361 0.0
C1346 C 0.698 0.36195 0.03792 0.0
C1347 C 0.7052 0.35249 0.07853 0.0
C1348 C 0.71338 0.36522 0.00316 0.0
C1349 C 0.73627 0.35918 0.00835 0.0
C1350 C 0.74366 0.35071 0.04959 0.0
C1351 C 0.72831 0.3474 0.08429 0.0
H1352 H 0.8836 0.48509 0.37306 0.0
H1353 H 0.90332 0.43228 0.28153 0.0
H1354 H 0.87833 0.51113 0.31104 0.0
H1355 H 0.90015 0.45856 0.21978 0.0
H1356 H 0.88502 0.50628 0.10957 0.0
H1357 H 0.87978 0.47985 0.17105 0.0
H1358 H 0.89926 0.53262 0.26386 0.0
H1359 H 0.90244 0.55918 0.20273 0.0
C1360 C 0.88684 0.47913 0.33955 0.0
C1361 C 0.89387 0.45678 0.33191 0.0
C1362 C 0.88407 0.49408 0.30392 0.0
C1363 C 0.88912 0.4872 0.26006 0.0
C1364 C 0.89564 0.46454 0.25267 0.0
C1365 C 0.89766 0.44943 0.28814 0.0
C1366 C 0.88778 0.51217 0.14329 0.0
C1367 C 0.8941 0.53468 0.15156 0.0
C1368 C 0.885 0.49701 0.17861 0.0
C1369 C 0.88928 0.50388 0.22279 0.0
C1370 C 0.89526 0.52664 0.23072 0.0
C1371 C 0.89731 0.54191 0.19558 0.0
H1372 H 0.69243 0.62215 0.44035 0.0
H1373 H 0.74634 0.65128 0.36107 0.0
H1374 H 0.71811 0.61932 0.50353 0.0
H1375 H 0.77184 0.64866 0.42459 0.0
H1376 H 0.8165 0.62884 0.5398 0.0
H1377 H 0.79159 0.62256 0.47633 0.0
H1378 H 0.73506 0.64889 0.55179 0.0
H1379 H 0.7598 0.65494 0.61557 0.0
C1380 C 0.70982 0.62768 0.43612 0.0
C1381 C 0.71723 0.63726 0.39575 0.0
C1382 C 0.72447 0.62613 0.47245 0.0
C1383 C 0.74685 0.634 0.4691 0.0
C1384 C 0.75468 0.64234 0.42805 0.0
C1385 C 0.74002 0.64396 0.39173 0.0
C1386 C 0.79871 0.63306 0.54313 0.0
C1387 C 0.79019 0.64264 0.58268 0.0
C1388 C 0.78449 0.62952 0.50667 0.0
C1389 C 0.76145 0.63534 0.50907 0.0
C1390 C 0.75272 0.64403 0.54913 0.0
C1391 C 0.76695 0.64767 0.58556 0.0
H1392 H 0.40465 0.42892 0.2058 0.0
H1393 H 0.38754 0.48405 0.11759 0.0
H1394 H 0.4063 0.45502 0.26808 0.0
H1395 H 0.38709 0.51009 0.1804 0.0
H1396 H 0.41236 0.55566 0.29134 0.0
H1397 H 0.40912 0.52986 0.22866 0.0
H1398 H 0.38746 0.47656 0.31836 0.0
H1399 H 0.39281 0.50205 0.38115 0.0
C1400 C 0.40075 0.44664 0.20003 0.0
C1401 C 0.39595 0.45451 0.157 0.0
C1402 C 0.40148 0.46165 0.23585 0.0
C1403 C 0.39672 0.48484 0.22976 0.0
C1404 C 0.39137 0.49253 0.18656 0.0
C1405 C 0.39139 0.47759 0.15046 0.0
C1406 C 0.40685 0.5384 0.29741 0.0
C1407 C 0.4029 0.53076 0.34092 0.0
C1408 C 0.40479 0.52359 0.26142 0.0
C1409 C 0.39804 0.50093 0.26802 0.0
C1410 C 0.39331 0.49362 0.31175 0.0
C1411 C 0.39612 0.50827 0.34786 0.0
H1412 H 0.1864 0.63457 0.0368 0.0
H1413 H 0.23867 0.66641 0.11621 0.0
H1414 H 0.21218 0.63326 0.97347 0.0
H1415 H 0.26429 0.66529 0.05259 0.0
H1416 H 0.31068 0.6403 0.94198 0.0
H1417 H 0.28496 0.6377 0.00515 0.0
H1418 H 0.22989 0.66157 0.92277 0.0
H1419 H 0.2555 0.66397 0.8592 0.0
C1420 C 0.2034 0.64118 0.04089 0.0
C1421 C 0.21043 0.65069 0.0816 0.0
C1422 C 0.21811 0.64055 0.00448 0.0
C1423 C 0.24019 0.64925 0.00806 0.0
C1424 C 0.24741 0.65827 0.04898 0.0
C1425 C 0.23267 0.65904 0.08534 0.0
C1426 C 0.29306 0.64485 0.93712 0.0
C1427 C 0.28519 0.65247 0.89548 0.0
C1428 C 0.27837 0.64347 0.97344 0.0
C1429 C 0.25548 0.64954 0.96893 0.0
C1430 C 0.24744 0.65661 0.92712 0.0
C1431 C 0.26215 0.65811 0.89079 0.0
H1432 H 0.11219 0.48899 0.8808 0.0
H1433 H 0.09336 0.43585 0.78928 0.0
H1434 H 0.11827 0.51474 0.81861 0.0
H1435 H 0.09731 0.46185 0.72729 0.0
H1436 H 0.11518 0.5081 0.61668 0.0
H1437 H 0.11893 0.48225 0.67948 0.0
H1438 H 0.09913 0.53639 0.76895 0.0
H1439 H 0.0975 0.56236 0.70653 0.0
C1440 C 0.10925 0.48291 0.84727 0.0
C1441 C 0.10234 0.46051 0.83969 0.0
C1442 C 0.11251 0.4977 0.81151 0.0
C1443 C 0.10811 0.49062 0.7675 0.0
C1444 C 0.10143 0.46798 0.76027 0.0
C1445 C 0.09892 0.45304 0.79589 0.0
C1446 C 0.11209 0.51443 0.65 0.0
C1447 C 0.10609 0.53714 0.65693 0.0
C1448 C 0.11397 0.4996 0.68607 0.0
C1449 C 0.10904 0.50699 0.72967 0.0
C1450 C 0.10354 0.52998 0.73633 0.0
C1451 C 0.10241 0.54493 0.70044 0.0
H1452 H 0.18758 0.33964 0.45491 0.0
H1453 H 0.24028 0.35923 0.36305 0.0
H1454 H 0.21392 0.34307 0.5166 0.0
H1455 H 0.26634 0.3648 0.42491 0.0
H1456 H 0.31491 0.34696 0.53622 0.0
H1457 H 0.28842 0.34609 0.47449 0.0
H1458 H 0.23405 0.36509 0.5641 0.0
H1459 H 0.26045 0.36381 0.62625 0.0
C1460 C 0.20475 0.34522 0.44819 0.0
C1461 C 0.21199 0.34911 0.40439 0.0
C1462 C 0.21989 0.34741 0.48361 0.0
C1463 C 0.24246 0.35424 0.47618 0.0
C1464 C 0.24935 0.35892 0.43216 0.0
C1465 C 0.23438 0.35598 0.39659 0.0
C1466 C 0.29728 0.35102 0.5425 0.0
C1467 C 0.28968 0.35542 0.58589 0.0
C1468 C 0.28203 0.35074 0.50701 0.0
C1469 C 0.25889 0.35554 0.51386 0.0
C1470 C 0.25154 0.36072 0.55737 0.0
C1471 C 0.2667 0.36024 0.59309 0.0
H1472 H 0.10233 0.17299 0.45331 0.0
H1473 H 0.11973 0.15701 0.31709 0.0
H1474 H 0.1155 0.21181 0.44221 0.0
H1475 H 0.13247 0.19586 0.30578 0.0
H1476 H 0.17751 0.25766 0.31518 0.0
H1477 H 0.16399 0.21949 0.33011 0.0
H1478 H 0.10678 0.24685 0.40211 0.0
H1479 H 0.12047 0.28515 0.38801 0.0
C1480 C 0.10869 0.17785 0.42085 0.0
C1481 C 0.11008 0.16193 0.38611 0.0
C1482 C 0.1162 0.20009 0.41448 0.0
C1483 C 0.12525 0.20685 0.37327 0.0
C1484 C 0.12601 0.19106 0.33821 0.0
C1485 C 0.11853 0.16885 0.34457 0.0
C1486 C 0.16216 0.25562 0.3346 0.0
C1487 C 0.15006 0.27456 0.35022 0.0
C1488 C 0.15431 0.2337 0.3428 0.0
C1489 C 0.13415 0.23015 0.36678 0.0
C1490 C 0.12242 0.24902 0.3837 0.0
C1491 C 0.13028 0.27098 0.37551 0.0
H1492 H 0.96145 0.8707 0.63452 0.0
H1493 H 0.98813 0.92899 0.56456 0.0
H1494 H -3e-05 0.8574 0.64806 0.0
H1495 H 0.0265 0.91587 0.57889 0.0
H1496 H 0.07386 0.85298 0.69859 0.0
H1497 H 0.03492 0.86588 0.68829 0.0
H1498 H 0.05069 0.88522 0.55301 0.0
H1499 H 0.08972 0.87276 0.56359 0.0
C1500 C 0.97548 0.88088 0.62262 0.0
C1501 C 0.97162 0.90087 0.5982 0.0
C1502 C 0.99758 0.87324 0.63043 0.0
C1503 C 0.01629 0.88543 0.61404 0.0
C1504 C 0.01244 0.90583 0.5911 0.0
C1505 C 0.9904 0.91345 0.58324 0.0
C1506 C 0.06896 0.85982 0.66653 0.0
C1507 C 0.08488 0.86192 0.63192 0.0
C1508 C 0.04663 0.86717 0.66062 0.0
C1509 C 0.03975 0.87677 0.61998 0.0
C1510 C 0.05556 0.87831 0.58502 0.0
C1511 C 0.07788 0.87098 0.59094 0.0
H1512 H 0.40645 0.82424 0.91539 0.0
H1513 H 0.35349 0.84802 0.828 0.0
H1514 H 0.39619 0.78511 0.89848 0.0
H1515 H 0.34193 0.80928 0.81367 0.0
H1516 H 0.33639 0.73803 0.76438 0.0
H1517 H 0.34946 0.77627 0.77805 0.0
H1518 H 0.37026 0.75676 0.9109 0.0
H1519 H 0.35882 0.71788 0.89538 0.0
C1520 C 0.39255 0.82102 0.89265 0.0
C1521 C 0.38089 0.83908 0.87267 0.0
C1522 C 0.38644 0.7986 0.8833 0.0
C1523 C 0.3681 0.79378 0.85471 0.0
C1524 C 0.35649 0.81206 0.83491 0.0
C1525 C 0.36302 0.83439 0.8433 0.0
C1526 C 0.34382 0.74188 0.79646 0.0
C1527 C 0.34663 0.7249 0.82875 0.0
C1528 C 0.35118 0.76397 0.80456 0.0
C1529 C 0.3609 0.76992 0.84578 0.0
C1530 C 0.36336 0.7529 0.87838 0.0
C1531 C 0.35657 0.7306 0.86973 0.0
H1532 H 0.40439 0.12431 0.06555 0.0
H1533 H 0.42101 0.14026 0.20216 0.0
H1534 H 0.44348 0.11289 0.0523 0.0
H1535 H 0.46011 0.12837 0.1891 0.0
H1536 H 0.50565 0.06805 0.0589 0.0
H1537 H 0.4675 0.0814 0.07448 0.0
H1538 H 0.4949 0.13786 0.14865 0.0
H1539 H 0.53323 0.12429 0.13388 0.0
C1540 C 0.41643 0.1255 0.09269 0.0
C1541 C 0.4096 0.13308 0.13494 0.0
C1542 C 0.43879 0.11878 0.0852 0.0
C1543 C 0.45482 0.11943 0.11982 0.0
C1544 C 0.44819 0.12777 0.1617 0.0
C1545 C 0.42578 0.13454 0.16919 0.0
C1546 C 0.50363 0.08322 0.07882 0.0
C1547 C 0.52259 0.0951 0.09501 0.0
C1548 C 0.48172 0.09099 0.08742 0.0
C1549 C 0.47818 0.11085 0.11233 0.0
C1550 C 0.49707 0.12244 0.12953 0.0
C1551 C 0.51904 0.11466 0.12096 0.0
H1552 H 0.13362 0.72559 0.21358 0.0
H1553 H 0.14958 0.71689 0.07456 0.0
H1554 H 0.11967 0.76351 0.19898 0.0
H1555 H 0.1364 0.75563 0.05958 0.0
H1556 H 0.09467 0.82089 0.04426 0.0
H1557 H 0.10467 0.78114 0.05646 0.0
H1558 H 0.13515 0.79918 0.18256 0.0
H1559 H 0.12439 0.8384 0.17117 0.0
C1560 C 0.13444 0.73199 0.17993 0.0
C1561 C 0.14311 0.7186 0.14537 0.0
C1562 C 0.12645 0.75377 0.17145 0.0
C1563 C 0.12731 0.76287 0.12824 0.0
C1564 C 0.13537 0.74913 0.09324 0.0
C1565 C 0.14303 0.72706 0.10173 0.0
C1566 C 0.10331 0.81624 0.07474 0.0
C1567 C 0.10862 0.83272 0.1069 0.0
C1568 C 0.10921 0.79351 0.08157 0.0
C1569 C 0.12064 0.78688 0.12057 0.0
C1570 C 0.12591 0.8035 0.15258 0.0
C1571 C 0.11984 0.82608 0.14596 0.0
H1572 H 0.54531 0.8597 0.36322 0.0
H1573 H 0.51857 0.9156 0.44029 0.0
H1574 H 0.5068 0.84542 0.35228 0.0
H1575 H 0.4804 0.90163 0.42859 0.0
H1576 H 0.41715 0.86 0.44073 0.0
H1577 H 0.45667 0.87053 0.45206 0.0
H1578 H 0.47124 0.85459 0.31455 0.0
H1579 H 0.43178 0.8435 0.30351 0.0
C1580 C 0.53127 0.86906 0.37748 0.0
C1581 C 0.5351 0.88877 0.40278 0.0
C1582 C 0.50921 0.86088 0.37116 0.0
C1583 C 0.49055 0.87225 0.39 0.0
C1584 C 0.49441 0.89216 0.4145 0.0
C1585 C 0.51636 0.90028 0.42088 0.0
C1586 C 0.42884 0.85851 0.41304 0.0
C1587 C 0.42133 0.85107 0.37117 0.0
C1588 C 0.45146 0.86469 0.41944 0.0
C1589 C 0.46705 0.86369 0.38404 0.0
C1590 C 0.45971 0.85544 0.34256 0.0
C1591 C 0.43707 0.84917 0.33621 0.0
H1592 H 0.38047 0.16882 0.68915 0.0
H1593 H 0.39769 0.18204 0.55173 0.0
H1594 H 0.37039 0.20851 0.69907 0.0
H1595 H 0.38711 0.22179 0.56145 0.0
H1596 H 0.38422 0.29632 0.61102 0.0
H1597 H 0.39721 0.2574 0.59952 0.0
H1598 H 0.33963 0.23259 0.67391 0.0
H1599 H 0.32689 0.27117 0.68609 0.0
C1600 C 0.38219 0.18023 0.66109 0.0
C1601 C 0.38972 0.17228 0.61959 0.0
C1602 C 0.37627 0.20295 0.66669 0.0
C1603 C 0.37765 0.21824 0.63087 0.0
C1604 C 0.38596 0.21046 0.58973 0.0
C1605 C 0.39194 0.18768 0.58414 0.0
C1606 C 0.37427 0.28255 0.62469 0.0
C1607 C 0.35457 0.28694 0.64971 0.0
C1608 C 0.3817 0.26026 0.61802 0.0
C1609 C 0.3696 0.24194 0.63628 0.0
C1610 C 0.34963 0.24634 0.66026 0.0
C1611 C 0.34223 0.26852 0.66694 0.0
H1612 H 0.06889 0.14575 0.78825 0.0
H1613 H 0.08154 0.12716 0.92523 0.0
H1614 H 0.02962 0.13293 0.79564 0.0
H1615 H 0.0424 0.11469 0.93267 0.0
H1616 H 0.95481 0.1279 0.8482 0.0
H1617 H 0.99334 0.14154 0.83512 0.0
H1618 H 0.02011 0.08284 0.9031 0.0
H1619 H 0.98186 0.06931 0.9167 0.0
C1620 C 0.06322 0.1392 0.82005 0.0
C1621 C 0.07832 0.13733 0.8561 0.0
C1622 C 0.04075 0.13189 0.82426 0.0
C1623 C 0.03305 0.12251 0.86452 0.0
C1624 C 0.04798 0.12139 0.90092 0.0
C1625 C 0.07036 0.12871 0.89676 0.0
C1626 C 0.96891 0.11773 0.85984 0.0
C1627 C 0.96518 0.09761 0.88393 0.0
C1628 C 0.99098 0.12557 0.85229 0.0
C1629 C 0.0097 0.11345 0.86877 0.0
C1630 C 0.00599 0.09282 0.89092 0.0
C1631 C 0.98402 0.08499 0.89841 0.0
H1632 H 0.88063 0.71052 0.59849 0.0
H1633 H 0.82168 0.73716 0.66646 0.0
H1634 H 0.89364 0.74913 0.5842 0.0
H1635 H 0.83455 0.77551 0.65155 0.0
H1636 H 0.87745 0.83854 0.66869 0.0
H1637 H 0.86549 0.79938 0.67879 0.0
H1638 H 0.88458 0.78432 0.54307 0.0
H1639 H 0.89691 0.82355 0.53311 0.0
C1640 C 0.87027 0.72454 0.60982 0.0
C1641 C 0.85017 0.72067 0.63395 0.0
C1642 C 0.87773 0.74667 0.60156 0.0
C1643 C 0.86529 0.76534 0.61732 0.0
C1644 C 0.84478 0.76146 0.63985 0.0
C1645 C 0.83731 0.73942 0.64807 0.0
C1646 C 0.87927 0.82686 0.64109 0.0
C1647 C 0.88805 0.83415 0.60007 0.0
C1648 C 0.87225 0.80445 0.64676 0.0
C1649 C 0.87382 0.78883 0.61154 0.0
C1650 C 0.88323 0.79594 0.57087 0.0
C1651 C 0.89025 0.81841 0.56517 0.0
H1652 H 0.90777 0.12228 0.42768 0.0
H1653 H 0.92244 0.14122 0.29169 0.0
H1654 H 0.947 0.11037 0.43757 0.0
H1655 H 0.96165 0.12887 0.30137 0.0
H1656 H 0.03558 0.12541 0.35475 0.0
H1657 H 0.99684 0.13814 0.34111 0.0
H1658 H 0.97116 0.07966 0.41145 0.0
H1659 H 0.00969 0.0671 0.4258 0.0
C1660 C 0.91939 0.12397 0.39994 0.0
C1661 C 0.912 0.13263 0.35889 0.0
C1662 C 0.94183 0.11697 0.40548 0.0
C1663 C 0.95737 0.11843 0.37008 0.0
C1664 C 0.95012 0.12764 0.32934 0.0
C1665 C 0.92765 0.13466 0.32379 0.0
C1666 C 0.02168 0.11511 0.36688 0.0
C1667 C 0.02582 0.0953 0.39168 0.0
C1668 C -0.00053 0.12242 0.359 0.0
C1669 C 0.98095 0.11008 0.37575 0.0
C1670 C 0.98508 0.08983 0.39898 0.0
C1671 C 0.00721 0.08254 0.40688 0.0
H1672 H 0.67338 0.25764 0.16246 0.0
H1673 H 0.61585 0.28257 0.08766 0.0
H1674 H 0.66105 0.21893 0.14921 0.0
H1675 H 0.60336 0.24369 0.07511 0.0
H1676 H 0.6174 0.15615 0.16759 0.0
H1677 H 0.62973 0.19537 0.17558 0.0
H1678 H 0.61316 0.20796 0.03763 0.0
H1679 H 0.60043 0.1688 0.02982 0.0
C1680 C 0.6582 0.25492 0.14288 0.0
C1681 C 0.64554 0.2733 0.12639 0.0
C1682 C 0.65104 0.23269 0.13563 0.0
C1683 C 0.63105 0.22827 0.11174 0.0
C1684 C 0.61889 0.24655 0.09355 0.0
C1685 C 0.62605 0.26885 0.1008 0.0
C1686 C 0.61623 0.16732 0.13906 0.0
C1687 C 0.60798 0.15939 0.09809 0.0
C1688 C 0.62348 0.18973 0.14352 0.0
C1689 C 0.62265 0.20469 0.10708 0.0
C1690 C 0.6139 0.19689 0.06636 0.0
C1691 C 0.60665 0.17444 0.06189 0.0
H1692 H 0.56789 0.86667 0.78909 0.0
H1693 H 0.5802 0.88142 0.92798 0.0
H1694 H 0.52854 0.87859 0.79751 0.0
H1695 H 0.5407 0.89303 0.93652 0.0
H1696 H 0.47779 0.93607 0.925 0.0
H1697 H 0.51669 0.92453 0.91129 0.0
H1698 H 0.49289 0.8674 0.83443 0.0
H1699 H 0.45374 0.87905 0.84767 0.0
C1700 C 0.56214 0.87227 0.82154 0.0
C1701 C 0.57715 0.87318 0.85789 0.0
C1702 C 0.53957 0.87902 0.82634 0.0
C1703 C 0.53158 0.88691 0.86755 0.0
C1704 C 0.54649 0.88739 0.90412 0.0
C1705 C 0.56905 0.88058 0.89935 0.0
C1706 C 0.48076 0.92118 0.9047 0.0
C1707 C 0.46256 0.9084 0.88771 0.0
C1708 C 0.5031 0.91447 0.8972 0.0
C1709 C 0.50784 0.89484 0.87248 0.0
C1710 C 0.48975 0.88264 0.85359 0.0
C1711 C 0.46732 0.88934 0.86113 0.0
H1712 H 0.81666 0.26235 0.82107 0.0
H1713 H 0.87591 0.28762 0.89 0.0
H1714 H 0.82885 0.22371 0.83521 0.0
H1715 H 0.88827 0.24871 0.90349 0.0
H1716 H 0.89085 0.17401 0.95216 0.0
H1717 H 0.87895 0.21342 0.94334 0.0
H1718 H 0.85917 0.19944 0.80755 0.0
H1719 H 0.87065 0.16005 0.81657 0.0
C1720 C 0.83223 0.25971 0.83951 0.0
C1721 C 0.84538 0.27817 0.85411 0.0
C1722 C 0.8393 0.23751 0.84729 0.0
C1723 C 0.85972 0.23315 0.86979 0.0
C1724 C 0.87243 0.25153 0.88612 0.0
C1725 C 0.86533 0.27383 0.87836 0.0
C1726 C 0.8841 0.17941 0.92033 0.0
C1727 C 0.88157 0.16391 0.8851 0.0
C1728 C 0.87735 0.202 0.91528 0.0
C1729 C 0.86789 0.20949 0.87492 0.0
C1730 C 0.86596 0.19409 0.83937 0.0
C1731 C 0.87271 0.17155 0.84441 0.0
H1732 H 0.5872 0.12988 0.58214 0.0
H1733 H 0.57438 0.14811 0.71925 0.0
H1734 H 0.54795 0.11772 0.57423 0.0
H1735 H 0.53507 0.1356 0.71143 0.0
H1736 H 0.48588 0.07408 0.58832 0.0
H1737 H 0.5245 0.08644 0.60234 0.0
H1738 H 0.49932 0.14528 0.6722 0.0
H1739 H 0.46046 0.13282 0.65874 0.0
C1740 C 0.57597 0.13138 0.61054 0.0
C1741 C 0.58389 0.13989 0.65133 0.0
C1742 C 0.55353 0.12423 0.60612 0.0
C1743 C 0.5385 0.12545 0.64238 0.0
C1744 C 0.54624 0.13454 0.68287 0.0
C1745 C 0.56875 0.14166 0.68733 0.0
C1746 C 0.48847 0.08952 0.60715 0.0
C1747 C 0.46998 0.10253 0.62207 0.0
C1748 C 0.51065 0.09669 0.61486 0.0
C1749 C 0.51493 0.11702 0.6377 0.0
C1750 C 0.49654 0.12952 0.65453 0.0
C1751 C 0.47427 0.12236 0.64677 0.0
H1752 H 0.68543 0.73107 0.31392 0.0
H1753 H 0.6285 0.70609 0.39042 0.0
H1754 H 0.67373 0.76977 0.32904 0.0
H1755 H 0.61668 0.74504 0.40501 0.0
H1756 H 0.63047 0.83334 0.31553 0.0
H1757 H 0.64219 0.79404 0.30518 0.0
H1758 H 0.62797 0.78024 0.44368 0.0
H1759 H 0.61592 0.81946 0.45392 0.0
C1760 C 0.67051 0.73378 0.33426 0.0
C1761 C 0.65783 0.71538 0.3507 0.0
C1762 C 0.66371 0.75601 0.3426 0.0
C1763 C 0.6441 0.76045 0.36761 0.0
C1764 C 0.63191 0.74214 0.38569 0.0
C1765 C 0.6387 0.71982 0.3773 0.0
C1766 C 0.62973 0.8219 0.34369 0.0
C1767 C 0.62231 0.8295 0.38551 0.0
C1768 C 0.6366 0.79943 0.33787 0.0
C1769 C 0.63618 0.78411 0.37374 0.0
C1770 C 0.62834 0.79161 0.41537 0.0
C1771 C 0.62152 0.81409 0.42122 0.0
H1772 H 0.9226 0.85233 0.20119 0.0
H1773 H 0.9082 0.86943 0.06414 0.0
H1774 H 0.96156 0.86536 0.19171 0.0
H1775 H 0.94725 0.88204 0.05446 0.0
H1776 H 0.00909 0.92681 0.06631 0.0
H1777 H 0.97072 0.91354 0.07983 0.0
H1778 H 0.99705 0.85629 0.15313 0.0
H1779 H 0.03559 0.86974 0.14033 0.0
C1780 C 0.92783 0.85862 0.16889 0.0
C1781 C 0.91232 0.85994 0.13343 0.0
C1782 C 0.95016 0.86603 0.16347 0.0
C1783 C 0.95743 0.87493 0.12248 0.0
C1784 C 0.94205 0.87568 0.08672 0.0
C1785 C 0.91973 0.86828 0.09214 0.0
C1786 C 0.00678 0.91151 0.08572 0.0
C1787 C 0.02552 0.89931 0.10204 0.0
C1788 C 0.98474 0.9038 0.09312 0.0
C1789 C 0.98086 0.88369 0.11699 0.0
C1790 C -0.00051 0.8719 0.13474 0.0
C1791 C 0.02159 0.87962 0.12735 0.0
H1792 H 0.61071 0.79608 0.88136 0.0
H1793 H 0.66774 0.77204 0.804 0.0
H1794 H 0.59831 0.75698 0.89242 0.0
H1795 H 0.6556 0.73323 0.81584 0.0
H1796 H 0.61576 0.66849 0.80282 0.0
H1797 H 0.62536 0.70828 0.79223 0.0
H1798 H 0.60913 0.72181 0.93002 0.0
H1799 H 0.59901 0.68203 0.94036 0.0
C1800 C 0.62072 0.78251 0.86706 0.0
C1801 C 0.64019 0.78728 0.84164 0.0
C1802 C 0.61362 0.7601 0.87349 0.0
C1803 C 0.62584 0.74201 0.85463 0.0
C1804 C 0.64552 0.74679 0.83002 0.0
C1805 C 0.65258 0.7691 0.82355 0.0
C1806 C 0.61405 0.67998 0.83076 0.0
C1807 C 0.60674 0.67211 0.87247 0.0
C1808 C 0.6197 0.70276 0.82478 0.0
C1809 C 0.61826 0.71817 0.86043 0.0
C1810 C 0.61028 0.71042 0.90182 0.0
C1811 C 0.60457 0.68761 0.90777 0.0
H1812 H 0.45218 0.35902 0.12781 0.0
H1813 H 0.47718 0.41528 0.04958 0.0
H1814 H 0.49105 0.34587 0.13871 0.0
H1815 H 0.51577 0.40244 0.0613 0.0
H1816 H 0.58039 0.36241 0.0508 0.0
H1817 H 0.54068 0.37209 0.03894 0.0
H1818 H 0.52611 0.35623 0.17649 0.0
H1819 H 0.56575 0.34601 0.18804 0.0
C1820 C 0.46591 0.36868 0.11323 0.0
C1821 C 0.46148 0.3882 0.08773 0.0
C1822 C 0.4882 0.36116 0.11956 0.0
C1823 C 0.50651 0.37299 0.10055 0.0
C1824 C 0.50206 0.39264 0.07562 0.0
C1825 C 0.47986 0.40012 0.06922 0.0
C1826 C 0.56867 0.36078 0.07839 0.0
C1827 C 0.57622 0.35357 0.1204 0.0
C1828 C 0.54594 0.36647 0.07169 0.0
C1829 C 0.53026 0.36518 0.10691 0.0
C1830 C 0.53769 0.35726 0.14857 0.0
C1831 C 0.56044 0.35149 0.15523 0.0
H1832 H 0.81934 0.23416 0.32231 0.0
H1833 H 0.87686 0.20657 0.39348 0.0
H1834 H 0.83328 0.27226 0.33589 0.0
H1835 H 0.89094 0.24493 0.40646 0.0
H1836 H 0.89583 0.32014 0.45361 0.0
H1837 H 0.88261 0.28108 0.44539 0.0
H1838 H 0.86535 0.29452 0.3081 0.0
H1839 H 0.87818 0.3335 0.31642 0.0
C1840 C 0.83488 0.23617 0.34113 0.0
C1841 C 0.84705 0.21722 0.35649 0.0
C1842 C 0.84296 0.25806 0.3486 0.0
C1843 C 0.86341 0.26157 0.37157 0.0
C1844 C 0.87511 0.24274 0.38868 0.0
C1845 C 0.86702 0.22076 0.3812 0.0
C1846 C 0.88941 0.31466 0.42157 0.0
C1847 C 0.88792 0.32991 0.38571 0.0
C1848 C 0.88187 0.2923 0.41688 0.0
C1849 C 0.87266 0.28483 0.37629 0.0
C1850 C 0.87191 0.29991 0.34008 0.0
C1851 C 0.87944 0.3222 0.34474 0.0
H1852 H 0.913 0.62611 0.56801 0.0
H1853 H 0.92705 0.64476 0.70443 0.0
H1854 H 0.95196 0.61332 0.55922 0.0
H1855 H 0.96611 0.63158 0.69574 0.0
H1856 H 0.04027 0.62701 0.64163 0.0
H1857 H 0.00176 0.64027 0.65571 0.0
H1858 H 0.97506 0.58182 0.58674 0.0
H1859 H 0.01338 0.56868 0.57198 0.0
C1860 C 0.92444 0.62757 0.59609 0.0
C1861 C 0.91694 0.63638 0.63695 0.0
C1862 C 0.94672 0.62005 0.59116 0.0
C1863 C 0.96202 0.62115 0.62698 0.0
C1864 C 0.95473 0.63058 0.66752 0.0
C1865 C 0.93236 0.6381 0.67248 0.0
C1866 C 0.0262 0.61682 0.62991 0.0
C1867 C 0.02999 0.59686 0.60529 0.0
C1868 C 0.00413 0.62443 0.63808 0.0
C1869 C 0.9854 0.61227 0.62176 0.0
C1870 C 0.98917 0.59183 0.5989 0.0
C1871 C 0.01117 0.58421 0.59076 0.0
H1872 H 0.61963 0.21412 0.61592 0.0
H1873 H 0.67764 0.24091 0.68667 0.0
H1874 H 0.60657 0.25258 0.60131 0.0
H1875 H 0.6648 0.27925 0.67115 0.0
H1876 H 0.62333 0.34364 0.68001 0.0
H1877 H 0.63462 0.30454 0.69396 0.0
H1878 H 0.61569 0.28659 0.55948 0.0
H1879 H 0.6039 0.32561 0.54587 0.0
C1880 C 0.62977 0.22816 0.62791 0.0
C1881 C 0.64969 0.22434 0.65262 0.0
C1882 C 0.62227 0.25024 0.61943 0.0
C1883 C 0.63452 0.26899 0.63541 0.0
C1884 C 0.65471 0.26518 0.65915 0.0
C1885 C 0.66219 0.24314 0.66769 0.0
C1886 C 0.62136 0.33131 0.65357 0.0
C1887 C 0.61277 0.33772 0.61182 0.0
C1888 C 0.62802 0.30893 0.66142 0.0
C1889 C 0.6263 0.29249 0.62766 0.0
C1890 C 0.61709 0.29879 0.5863 0.0
C1891 C 0.61038 0.32117 0.57847 0.0
H1892 H 0.00974 0.42846 0.929 0.0
H1893 H 0.03589 0.37015 0.85825 0.0
H1894 H 0.97124 0.4156 0.91485 0.0
H1895 H 0.9973 0.35712 0.84498 0.0
H1896 H 0.9237 0.35329 0.79372 0.0
H1897 H 0.96266 0.36597 0.80462 0.0
H1898 H 0.94655 0.38517 0.93984 0.0
H1899 H 0.90747 0.37294 0.92864 0.0
C1900 C 0.00733 0.41297 0.9102 0.0
C1901 C 0.02601 0.40034 0.89489 0.0
C1902 C 0.98522 0.40549 0.90247 0.0
C1903 C 0.9812 0.38519 0.87927 0.0
C1904 C -0.0002 0.3729 0.86275 0.0
C1905 C 0.02195 0.38038 0.87045 0.0
C1906 C 0.92852 0.36005 0.8259 0.0
C1907 C 0.9125 0.36217 0.86031 0.0
C1908 C 0.95087 0.36727 0.83216 0.0
C1909 C 0.95767 0.37676 0.87297 0.0
C1910 C 0.94175 0.37834 0.90772 0.0
C1911 C 0.9194 0.37114 0.90144 0.0
H1912 H 0.87595 0.78523 0.09889 0.0
H1913 H 0.81978 0.75822 0.17487 0.0
H1914 H 0.88958 0.74686 0.08537 0.0
H1915 H 0.83322 0.71995 0.16052 0.0
H1916 H 0.89386 0.67259 0.03659 0.0
H1917 H 0.88058 0.71144 0.04683 0.0
H1918 H 0.86512 0.6967 0.18446 0.0
H1919 H 0.87795 0.65781 0.17403 0.0
C1920 C 0.8663 0.77115 0.11219 0.0
C1921 C 0.84681 0.77489 0.13823 0.0
C1922 C 0.87412 0.74914 0.10433 0.0
C1923 C 0.86264 0.73039 0.12232 0.0
C1924 C 0.84272 0.73408 0.14699 0.0
C1925 C 0.8349 0.75605 0.15487 0.0
C1926 C 0.88781 0.67772 0.06913 0.0
C1927 C 0.88687 0.66213 0.10448 0.0
C1928 C 0.88024 0.69998 0.07499 0.0
C1929 C 0.87157 0.70707 0.11631 0.0
C1930 C 0.87126 0.69162 0.15196 0.0
C1931 C 0.87881 0.6694 0.1461 0.0
H1932 H 0.59479 0.62259 0.42621 0.0
H1933 H 0.57709 0.64094 0.29132 0.0
H1934 H 0.556 0.61011 0.43933 0.0
H1935 H 0.53832 0.628 0.30419 0.0
H1936 H 0.46568 0.62257 0.36093 0.0
H1937 H 0.50382 0.63644 0.34593 0.0
H1938 H 0.5319 0.57891 0.41581 0.0
H1939 H 0.49386 0.56524 0.4317 0.0
C1940 C 0.58258 0.62407 0.39942 0.0
C1941 C 0.58901 0.63269 0.3577 0.0
C1942 C 0.5604 0.61673 0.40681 0.0
C1943 C 0.54415 0.61779 0.37263 0.0
C1944 C 0.5504 0.62706 0.33128 0.0
C1945 C 0.57262 0.63445 0.3239 0.0
C1946 C 0.47997 0.61275 0.37283 0.0
C1947 C 0.47663 0.59281 0.39774 0.0
C1948 C 0.50185 0.6207 0.3641 0.0
C1949 C 0.52089 0.60891 0.38007 0.0
C1950 C 0.51757 0.58864 0.40382 0.0
C1951 C 0.49573 0.5807 0.41259 0.0
H1952 H 0.3784 0.31828 0.03928 0.0
H1953 H 0.36736 0.33159 0.17914 0.0
H1954 H 0.36614 0.27918 0.04979 0.0
H1955 H 0.35543 0.29234 0.18976 0.0
H1956 H 0.31223 0.22897 0.18371 0.0
H1957 H 0.32347 0.26789 0.16891 0.0
H1958 H 0.37844 0.24401 0.08622 0.0
H1959 H 0.36706 0.20496 0.10035 0.0
C1960 C 0.37352 0.31281 0.07236 0.0
C1961 C 0.37382 0.328 0.10842 0.0
C1962 C 0.36657 0.29039 0.07836 0.0
C1963 C 0.35971 0.28272 0.12053 0.0
C1964 C 0.36028 0.29786 0.15671 0.0
C1965 C 0.36727 0.32028 0.15072 0.0
C1966 C 0.32657 0.23194 0.16193 0.0
C1967 C 0.33879 0.21375 0.1434 0.0
C1968 C 0.33311 0.25428 0.1538 0.0
C1969 C 0.35201 0.259 0.12689 0.0
C1970 C 0.36373 0.24091 0.10696 0.0
C1971 C 0.35721 0.21851 0.11513 0.0
H1972 H 0.4089 0.63312 0.91424 0.0
H1973 H 0.42221 0.64811 0.77582 0.0
H1974 H 0.44814 0.62105 0.92367 0.0
H1975 H 0.46139 0.63567 0.78512 0.0
H1976 H 0.53581 0.63268 0.83555 0.0
H1977 H 0.4971 0.64568 0.82274 0.0
H1978 H 0.47149 0.58911 0.89892 0.0
H1979 H 0.51001 0.57624 0.91238 0.0
C1980 C 0.42023 0.63396 0.8859 0.0
C1981 C 0.41245 0.64151 0.84429 0.0
C1982 C 0.44266 0.62686 0.8912 0.0
C1983 C 0.45778 0.62716 0.85499 0.0
C1984 C 0.45017 0.63535 0.81368 0.0
C1985 C 0.42772 0.64243 0.80837 0.0
C1986 C 0.52193 0.62284 0.84915 0.0
C1987 C 0.5261 0.60347 0.87526 0.0
C1988 C 0.49974 0.63031 0.84176 0.0
C1989 C 0.48128 0.6186 0.86035 0.0
C1990 C 0.4854 0.59878 0.88497 0.0
C1991 C 0.50752 0.59129 0.89232 0.0
H1992 H 0.12378 0.66004 0.67155 0.0
H1993 H 0.1055 0.67389 0.53487 0.0
H1994 H 0.13571 0.69924 0.68078 0.0
H1995 H 0.11783 0.7132 0.54399 0.0
H1996 H 0.17957 0.76114 0.66887 0.0
H1997 H 0.16698 0.72273 0.6537 0.0
H1998 H 0.10845 0.74879 0.58404 0.0
H1999 H 0.12119 0.78748 0.59863 0.0
C2000 C 0.12223 0.67148 0.6435 0.0
C2001 C 0.11379 0.66385 0.60244 0.0
C2002 C 0.12924 0.69391 0.64868 0.0
C2003 C 0.128 0.70923 0.61292 0.0
C2004 C 0.11893 0.7018 0.57218 0.0
C2005 C 0.11191 0.67929 0.56696 0.0
C2006 C 0.16412 0.75879 0.64991 0.0
C2007 C 0.15131 0.77748 0.63531 0.0
C2008 C 0.15682 0.73673 0.64151 0.0
C2009 C 0.13652 0.73274 0.61835 0.0
C2010 C 0.12419 0.75134 0.60193 0.0
C2011 C 0.1315 0.77351 0.61034 0.0
H2012 H 0.07494 0.35211 0.28413 0.0
H2013 H 0.08895 0.37002 0.42095 0.0
H2014 H 0.03586 0.36504 0.29307 0.0
H2015 H 0.04987 0.38258 0.43003 0.0
H2016 H 0.96177 0.3681 0.34629 0.0
H2017 H 0.0005 0.35548 0.33258 0.0
H2018 H 0.02608 0.41382 0.40354 0.0
H2019 H 0.9875 0.42632 0.41795 0.0
C2020 C 0.06961 0.3586 0.31622 0.0
C2021 C 0.08502 0.36011 0.35182 0.0
C2022 C 0.04723 0.36596 0.32134 0.0
C2023 C 0.03985 0.37503 0.36211 0.0
C2024 C 0.05517 0.37608 0.39794 0.0
C2025 C 0.0775 0.3687 0.39285 0.0
C2026 C 0.97563 0.37841 0.35855 0.0
C2027 C 0.97145 0.39816 0.38356 0.0
C2028 C 0.99784 0.37117 0.35059 0.0
C2029 C 0.01632 0.3835 0.3675 0.0
C2030 C 0.01217 0.4037 0.39089 0.0
C2031 C 0.99001 0.41095 0.39881 0.0
H2032 H 0.39747 0.66641 0.46681 0.0
H2033 H 0.38135 0.65362 0.32867 0.0
H2034 H 0.38428 0.70547 0.45875 0.0
H2035 H 0.36856 0.69264 0.3205 0.0
H2036 H 0.38159 0.78006 0.40687 0.0
H2037 H 0.39409 0.74129 0.4208 0.0
H2038 H 0.33679 0.71586 0.34641 0.0
H2039 H 0.32444 0.75444 0.33181 0.0
C2040 C 0.39132 0.672 0.43464 0.0
C2041 C 0.39038 0.65694 0.39838 0.0
C2042 C 0.38381 0.69436 0.43003 0.0
C2043 C 0.37517 0.70205 0.38913 0.0
C2044 C 0.3747 0.68709 0.35269 0.0
C2045 C 0.38222 0.66478 0.35727 0.0
C2046 C 0.37146 0.76621 0.39397 0.0
C2047 C 0.35211 0.77043 0.36784 0.0
C2048 C 0.37863 0.74399 0.40204 0.0
C2049 C 0.36661 0.72555 0.38412 0.0
C2050 C 0.3467 0.72974 0.35981 0.0
C2051 C 0.33953 0.75189 0.35176 0.0
H2052 H 0.98678 0.5666 0.06401 0.0
H2053 H 0.96137 0.62392 0.1388 0.0
H2054 H 0.02544 0.57883 0.07865 0.0
H2055 H 0.00013 0.63632 0.15261 0.0
H2056 H 0.08883 0.62242 0.06449 0.0
H2057 H 0.04981 0.6098 0.05442 0.0
H2058 H 0.03515 0.62655 0.19152 0.0
H2059 H 0.07409 0.63959 0.20136 0.0
C2060 C 0.98939 0.58172 0.08384 0.0
C2061 C 0.97088 0.59432 0.10002 0.0
C2062 C 0.01159 0.58883 0.09189 0.0
C2063 C 0.01585 0.6087 0.11629 0.0
C2064 C 0.99742 0.62087 0.13388 0.0
C2065 C 0.97518 0.61376 0.12585 0.0
C2066 C 0.07725 0.62354 0.09239 0.0
C2067 C 0.08453 0.632 0.13369 0.0
C2068 C 0.05494 0.61612 0.08675 0.0
C2069 C 0.03943 0.61699 0.12229 0.0
C2070 C 0.04663 0.62581 0.1634 0.0
C2071 C 0.06895 0.63324 0.16905 0.0
H2072 H 0.17615 0.23567 0.82715 0.0
H2073 H 0.11764 0.21036 0.89849 0.0
H2074 H 0.164 0.27433 0.84182 0.0
H2075 H 0.10538 0.24918 0.91248 0.0
H2076 H 0.10255 0.32367 0.96101 0.0
H2077 H 0.1152 0.28449 0.95214 0.0
H2078 H 0.13288 0.29831 0.81519 0.0
H2079 H 0.12058 0.33745 0.82418 0.0
C2080 C 0.16081 0.23829 0.8463 0.0
C2081 C 0.14781 0.21981 0.86135 0.0
C2082 C 0.15375 0.26049 0.85438 0.0
C2083 C 0.13356 0.26479 0.87773 0.0
C2084 C 0.12106 0.2464 0.89449 0.0
C2085 C 0.12809 0.22414 0.88636 0.0
C2086 C 0.10899 0.31828 0.92893 0.0
C2087 C 0.11062 0.33365 0.89331 0.0
C2088 C 0.1162 0.29584 0.92386 0.0
C2089 C 0.12525 0.28838 0.88312 0.0
C2090 C 0.1264 0.30366 0.84727 0.0
C2091 C 0.11916 0.32604 0.8523 0.0
H2092 H 0.42659 0.36692 0.70413 0.0
H2093 H 0.41329 0.38134 0.56547 0.0
H2094 H 0.46594 0.37863 0.69437 0.0
H2095 H 0.45274 0.39272 0.55559 0.0
H2096 H 0.54028 0.37835 0.64217 0.0
H2097 H 0.50115 0.367 0.65645 0.0
H2098 H 0.47725 0.42402 0.57939 0.0
H2099 H 0.51613 0.43524 0.56456 0.0
C2100 C 0.43212 0.37241 0.67147 0.0
C2101 C 0.41684 0.37327 0.63555 0.0
C2102 C 0.45467 0.37905 0.66589 0.0
C2103 C 0.46239 0.38675 0.62432 0.0
C2104 C 0.44718 0.38723 0.58824 0.0
C2105 C 0.42464 0.38055 0.59379 0.0
C2106 C 0.52669 0.38866 0.62877 0.0
C2107 C 0.53141 0.40762 0.60191 0.0
C2108 C 0.50427 0.38214 0.63697 0.0
C2109 C 0.48615 0.39444 0.61847 0.0
C2110 C 0.49086 0.41391 0.59326 0.0
C2111 C 0.5132 0.42043 0.58509 0.0
H2112 H 0.1581 0.0721 0.50588 0.0
H2113 H 0.09441 0.10406 0.53866 0.0
H2114 H 0.17204 0.08037 0.5819 0.0
H2115 H 0.10739 0.11077 0.61368 0.0
H2116 H 0.14272 0.15241 0.70808 0.0
H2117 H 0.13786 0.13914 0.6327 0.0
H2118 H 0.16185 0.07277 0.67102 0.0
H2119 H 0.16866 0.08698 0.74733 0.0
C2120 C 0.14695 0.08022 0.52968 0.0
C2121 C 0.12499 0.08689 0.5171 0.0
C2122 C 0.15481 0.0848 0.57292 0.0
C2123 C 0.1408 0.09634 0.60327 0.0
C2124 C 0.11863 0.10208 0.59078 0.0
C2125 C 0.11106 0.09791 0.54799 0.0
C2126 C 0.14812 0.13533 0.70013 0.0
C2127 C 0.15689 0.12098 0.733 0.0
C2128 C 0.14496 0.1276 0.6571 0.0
C2129 C 0.14925 0.10488 0.64632 0.0
C2130 C 0.15863 0.09043 0.67863 0.0
C2131 C 0.16235 0.09846 0.72206 0.0
H2132 H 0.14283 0.84552 0.78533 0.0
H2133 H 0.17441 0.90929 0.75189 0.0
H2134 H 0.13629 0.85855 0.86032 0.0
H2135 H 0.16598 0.92341 0.82767 0.0
H2136 H 0.09427 0.89354 0.95447 0.0
H2137 H 0.10773 0.88776 0.87955 0.0
H2138 H 0.17311 0.91513 0.91592 0.0
H2139 H 0.15857 0.92289 0.99165 0.0
C2140 C 0.14897 0.86218 0.79453 0.0
C2141 C 0.15988 0.8761 0.76349 0.0
C2142 C 0.14484 0.86982 0.83729 0.0
C2143 C 0.15033 0.8921 0.84948 0.0
C2144 C 0.16175 0.9061 0.81896 0.0
C2145 C 0.16641 0.89813 0.77584 0.0
C2146 C 0.11114 0.89941 0.94612 0.0
C2147 C 0.1251 0.90946 0.97821 0.0
C2148 C 0.11902 0.8957 0.90339 0.0
C2149 C 0.14155 0.90069 0.89224 0.0
C2150 C 0.1556 0.9113 0.92381 0.0
C2151 C 0.14739 0.91558 0.9669 0.0
H2152 H 0.39804 0.88778 0.03172 0.0
H2153 H 0.3332 0.92085 0.01698 0.0
H2154 H 0.38936 0.87866 0.10797 0.0
H2155 H 0.32347 0.91011 0.09426 0.0
H2156 H 0.33026 0.90222 0.25327 0.0
H2157 H 0.33473 0.91605 0.17615 0.0
H2158 H 0.3644 0.85165 0.13953 0.0
H2159 H 0.36175 0.83903 0.21575 0.0
C2160 C 0.3819 0.89329 0.04518 0.0
C2161 C 0.36655 0.9056 0.01919 0.0
C2162 C 0.37674 0.88772 0.0887 0.0
C2163 C 0.35558 0.89336 0.10691 0.0
C2164 C 0.33998 0.90571 0.08101 0.0
C2165 C 0.34541 0.91168 0.03701 0.0
C2166 C 0.33757 0.89118 0.22828 0.0
C2167 C 0.34507 0.86936 0.23974 0.0
C2168 C 0.33994 0.89895 0.18435 0.0
C2169 C 0.35004 0.88497 0.15198 0.0
C2170 C 0.35692 0.86301 0.16379 0.0
C2171 C 0.35504 0.85558 0.20732 0.0
H2172 H 0.33866 0.08003 0.50503 0.0
H2173 H 0.40288 0.10953 0.46794 0.0
H2174 H 0.32547 0.08401 0.42728 0.0
H2175 H 0.39078 0.11173 0.39129 0.0
H2176 H 0.35507 0.14772 0.28585 0.0
H2177 H 0.36301 0.13821 0.36222 0.0
H2178 H 0.33316 0.07199 0.34321 0.0
H2179 H 0.32369 0.08242 0.26553 0.0
C2180 C 0.35007 0.08673 0.48003 0.0
C2181 C 0.37198 0.09389 0.49186 0.0
C2182 C 0.34267 0.0888 0.43577 0.0
C2183 C 0.35709 0.09827 0.40346 0.0
C2184 C 0.37917 0.10464 0.41554 0.0
C2185 C 0.38626 0.10306 0.45934 0.0
C2186 C 0.34959 0.13133 0.29809 0.0
C2187 C 0.33819 0.11603 0.27038 0.0
C2188 C 0.35447 0.12574 0.34172 0.0
C2189 C 0.349 0.10424 0.35844 0.0
C2190 C 0.33742 0.08873 0.33101 0.0
C2191 C 0.33217 0.09458 0.28681 0.0
H2192 H 0.82204 0.90847 0.24628 0.0
H2193 H 0.85287 0.84496 0.28409 0.0
H2194 H 0.83089 0.9239 0.32089 0.0
H2195 H 0.85994 0.85938 0.35791 0.0
H2196 H 0.9032 0.89576 0.44758 0.0
H2197 H 0.88923 0.88959 0.37306 0.0
H2198 H 0.82379 0.91613 0.41114 0.0
H2199 H 0.83877 0.92425 0.48635 0.0
C2200 C 0.82994 0.89765 0.27096 0.0
C2201 C 0.83615 0.87532 0.26012 0.0
C2202 C 0.83486 0.90638 0.31341 0.0
C2203 C 0.84624 0.89283 0.34475 0.0
C2204 C 0.85137 0.87027 0.33419 0.0
C2205 C 0.84693 0.86185 0.29211 0.0
C2206 C 0.88623 0.90147 0.43962 0.0
C2207 C 0.87234 0.9113 0.47211 0.0
C2208 C 0.87808 0.89755 0.39712 0.0
C2209 C 0.85537 0.90212 0.38666 0.0
C2210 C 0.84143 0.91264 0.4185 0.0
C2211 C 0.8499 0.91713 0.46131 0.0
H2212 H 0.89834 0.10305 0.03447 0.0
H2213 H 0.83378 0.07302 0.00139 0.0
H2214 H 0.88619 0.10844 0.11031 0.0
H2215 H 0.82049 0.08045 0.07813 0.0
H2216 H 0.82069 0.08565 0.24134 0.0
H2217 H 0.82834 0.0721 0.16482 0.0
H2218 H 0.85849 0.13693 0.13346 0.0
H2219 H 0.85273 0.14933 0.20903 0.0
C2220 C 0.88168 0.09699 0.04388 0.0
C2221 C 0.86731 0.08681 0.01266 0.0
C2222 C 0.87453 0.1005 0.08717 0.0
C2223 C 0.85227 0.0952 0.09987 0.0
C2224 C 0.83779 0.08453 0.0691 0.0
C2225 C 0.84529 0.08044 0.02542 0.0
C2226 C 0.82867 0.0969 0.21754 0.0
C2227 C 0.83551 0.11876 0.23041 0.0
C2228 C 0.83289 0.08926 0.17399 0.0
C2229 C 0.84421 0.10341 0.14353 0.0
C2230 C 0.85008 0.1255 0.15638 0.0
C2231 C 0.84638 0.13279 0.19951 0.0
H2232 H 0.67555 0.08931 0.75252 0.0
H2233 H 0.64879 0.15273 0.80119 0.0
H2234 H 0.66712 0.07165 0.82523 0.0
H2235 H 0.64233 0.13598 0.87344 0.0
H2236 H 0.59396 0.09674 0.94904 0.0
H2237 H 0.61026 0.10444 0.87695 0.0
H2238 H 0.6746 0.07781 0.92122 0.0
H2239 H 0.65735 0.06819 0.99383 0.0
C2240 C 0.66893 0.09967 0.77932 0.0
C2241 C 0.66354 0.12258 0.77188 0.0
C2242 C 0.66425 0.08964 0.8207 0.0
C2243 C 0.65405 0.10253 0.85452 0.0
C2244 C 0.6502 0.12572 0.84778 0.0
C2245 C 0.65431 0.13545 0.80661 0.0
C2246 C 0.61114 0.09113 0.94276 0.0
C2247 C 0.62411 0.081 0.97635 0.0
C2248 C 0.62062 0.09597 0.9017 0.0
C2249 C 0.64369 0.09191 0.89394 0.0
C2250 C 0.6567 0.08088 0.92657 0.0
C2251 C 0.6469 0.0755 0.96787 0.0
H2252 H 0.65685 0.93827 0.5095 0.0
H2253 H 0.62356 0.8733 0.51533 0.0
H2254 H 0.66483 0.93592 0.59003 0.0
H2255 H 0.63308 0.86979 0.59294 0.0
H2256 H 0.62055 0.87633 0.7311 0.0
H2257 H 0.61638 0.88613 0.65379 0.0
H2258 H 0.68159 0.91974 0.65611 0.0
H2259 H 0.68451 0.91155 0.73648 0.0
C2260 C 0.65167 0.92339 0.52795 0.0
C2261 C 0.63865 0.90647 0.50741 0.0
C2262 C 0.65636 0.92191 0.57375 0.0
C2263 C 0.64846 0.90322 0.59852 0.0
C2264 C 0.63813 0.88512 0.5758 0.0
C2265 C 0.63293 0.88692 0.53107 0.0
C2266 C 0.63381 0.8862 0.71536 0.0
C2267 C 0.65333 0.8923 0.73875 0.0
C2268 C 0.63162 0.89157 0.67078 0.0
C2269 C 0.64934 0.90244 0.6479 0.0
C2270 C 0.66789 0.91081 0.67249 0.0
C2271 C 0.66973 0.90597 0.71818 0.0
H2272 H 0.59495 0.61076 0.02494 0.0
H2273 H 0.65855 0.58023 0.98692 0.0
H2274 H 0.60777 0.61381 0.10096 0.0
H2275 H 0.67252 0.58509 0.06397 0.0
H2276 H 0.67513 0.58488 0.22591 0.0
H2277 H 0.66557 0.57409 0.14849 0.0
H2278 H 0.63579 0.64027 0.12842 0.0
H2279 H 0.64358 0.65002 0.20473 0.0
C2280 C 0.6116 0.60425 0.03323 0.0
C2281 C 0.62548 0.59454 0.00066 0.0
C2282 C 0.61912 0.60634 0.07664 0.0
C2283 C 0.64126 0.59996 0.08821 0.0
C2284 C 0.65529 0.58993 0.05586 0.0
C2285 C 0.64744 0.58734 0.012 0.0
C2286 C 0.66669 0.59697 0.20443 0.0
C2287 C 0.6606 0.61847 0.22059 0.0
C2288 C 0.6614 0.59092 0.16036 0.0
C2289 C 0.64975 0.60629 0.13275 0.0
C2290 C 0.64438 0.62789 0.14908 0.0
C2291 C 0.64921 0.63365 0.19265 0.0
H2292 H 0.59698 0.39031 0.45753 0.0
H2293 H 0.66195 0.42255 0.4767 0.0
H2294 H 0.60638 0.38221 0.38118 0.0
H2295 H 0.6724 0.41272 0.39927 0.0
H2296 H 0.66689 0.40572 0.23901 0.0
H2297 H 0.66173 0.41942 0.31614 0.0
H2298 H 0.63199 0.35487 0.35135 0.0
H2299 H 0.63535 0.34235 0.27521 0.0
C2300 C 0.61328 0.39592 0.44502 0.0
C2301 C 0.62848 0.40767 0.47234 0.0
C2302 C 0.61884 0.39093 0.40143 0.0
C2303 C 0.64027 0.39652 0.38445 0.0
C2304 C 0.6557 0.40838 0.41159 0.0
C2305 C 0.64985 0.41383 0.45567 0.0
C2306 C 0.65941 0.39462 0.2637 0.0
C2307 C 0.65208 0.37279 0.25187 0.0
C2308 C 0.65666 0.40232 0.30763 0.0
C2309 C 0.64632 0.38825 0.33956 0.0
C2310 C 0.63964 0.36628 0.3274 0.0
C2311 C 0.64191 0.35892 0.28391 0.0
H2312 H 0.82343 0.40999 0.7373 0.0
H2313 H 0.85618 0.34638 0.70718 0.0
H2314 H 0.8319 0.42336 0.66097 0.0
H2315 H 0.86297 0.35869 0.63183 0.0
H2316 H 0.90366 0.39268 0.53453 0.0
H2317 H 0.89075 0.38797 0.61008 0.0
H2318 H 0.82471 0.41363 0.57352 0.0
H2319 H 0.83868 0.42041 0.49702 0.0
C2320 C 0.83181 0.39874 0.71403 0.0
C2321 C 0.83861 0.37696 0.7274 0.0
C2322 C 0.8365 0.40627 0.67061 0.0
C2323 C 0.84825 0.39209 0.64086 0.0
C2324 C 0.85418 0.37011 0.65424 0.0
C2325 C 0.84996 0.36289 0.69722 0.0
C2326 C 0.88674 0.39841 0.54287 0.0
C2327 C 0.87245 0.40773 0.51049 0.0
C2328 C 0.87919 0.39532 0.58602 0.0
C2329 C 0.85665 0.40015 0.5974 0.0
C2330 C 0.84223 0.40996 0.56548 0.0
C2331 C 0.85012 0.41366 0.52193 0.0
H2332 H 0.9017 0.60266 0.95314 0.0
H2333 H 0.83729 0.57316 0.98924 0.0
H2334 H 0.88808 0.60963 0.8787 0.0
H2335 H 0.82272 0.58187 0.91386 0.0
H2336 H 0.82524 0.58852 0.74753 0.0
H2337 H 0.83196 0.57388 0.82353 0.0
H2338 H 0.85809 0.63938 0.86225 0.0
H2339 H 0.85334 0.65301 0.78708 0.0
C2340 C 0.88476 0.59703 0.94465 0.0
C2341 C 0.8708 0.58663 0.97632 0.0
C2342 C 0.87682 0.60138 0.90219 0.0
C2343 C 0.85429 0.59654 0.89088 0.0
C2344 C 0.84023 0.58559 0.92195 0.0
C2345 C 0.84846 0.58077 0.96482 0.0
C2346 C 0.83196 0.59975 0.77285 0.0
C2347 C 0.83811 0.6221 0.76206 0.0
C2348 C 0.83563 0.59147 0.8161 0.0
C2349 C 0.84562 0.60553 0.84839 0.0
C2350 C 0.85049 0.62816 0.83786 0.0
C2351 C 0.8474 0.63611 0.79496 0.0
H2352 H 0.30979 0.41031 0.75949 0.0
H2353 H 0.37284 0.37349 0.76542 0.0
H2354 H 0.31243 0.41795 0.84012 0.0
H2355 H 0.37675 0.38263 0.84311 0.0
H2356 H 0.3701 0.371 0.98127 0.0
H2357 H 0.35969 0.367 0.90421 0.0
H2358 H 0.32943 0.43383 0.90612 0.0
H2359 H 0.33815 0.43664 0.98627 0.0
C2360 C 0.32432 0.40426 0.77798 0.0
C2361 C 0.34056 0.39042 0.75738 0.0
C2362 C 0.32598 0.40875 0.82385 0.0
C2363 C 0.34419 0.39981 0.84867 0.0
C2364 C 0.36172 0.38853 0.82594 0.0
C2365 C 0.35971 0.38356 0.78115 0.0
C2366 C 0.36082 0.38466 0.96551 0.0
C2367 C 0.35586 0.40458 0.98868 0.0
C2368 C 0.35511 0.38257 0.92106 0.0
C2369 C 0.34507 0.40074 0.89806 0.0
C2370 C 0.33773 0.41976 0.92254 0.0
C2371 C 0.34289 0.42153 0.96811 0.0
H2372 H 0.32199 0.58736 0.74167 0.0
H2373 H 0.35183 0.64945 0.69339 0.0
H2374 H 0.33145 0.56879 0.67016 0.0
H2375 H 0.35954 0.63184 0.62245 0.0
H2376 H 0.40628 0.59212 0.54718 0.0
H2377 H 0.39022 0.59914 0.61971 0.0
H2378 H 0.32512 0.57526 0.57382 0.0
H2379 H 0.34214 0.56598 0.50088 0.0
C2380 C 0.32966 0.59721 0.71523 0.0
C2381 C 0.33549 0.62004 0.7223 0.0
C2382 C 0.33494 0.58667 0.67455 0.0
C2383 C 0.34626 0.59895 0.6412 0.0
C2384 C 0.35085 0.62202 0.64775 0.0
C2385 C 0.34606 0.63224 0.68814 0.0
C2386 C 0.38899 0.58679 0.55319 0.0
C2387 C 0.37575 0.57755 0.51899 0.0
C2388 C 0.37965 0.59125 0.59456 0.0
C2389 C 0.35644 0.5879 0.60202 0.0
C2390 C 0.34314 0.57773 0.56878 0.0
C2391 C 0.3528 0.57258 0.52723 0.0
H2392 H 0.16246 0.57392 0.48986 0.0
H2393 H 0.09689 0.60042 0.45311 0.0
H2394 H 0.17624 0.58152 0.41354 0.0
H2395 H 0.1095 0.60555 0.37758 0.0
H2396 H 0.142 0.64875 0.28158 0.0
H2397 H 0.13584 0.63568 0.35649 0.0
H2398 H 0.17021 0.57288 0.32593 0.0
H2399 H 0.17825 0.58726 0.25009 0.0
C2400 C 0.15083 0.58048 0.4651 0.0
C2401 C 0.12838 0.58585 0.4768 0.0
C2402 C 0.15862 0.58464 0.42162 0.0
C2403 C 0.14397 0.5943 0.38991 0.0
C2404 C 0.12129 0.59839 0.40143 0.0
C2405 C 0.11387 0.59496 0.44458 0.0
C2406 C 0.1492 0.63259 0.29118 0.0
C2407 C 0.16135 0.61939 0.26069 0.0
C2408 C 0.14525 0.62486 0.33392 0.0
C2409 C 0.15219 0.60309 0.34676 0.0
C2410 C 0.16479 0.58979 0.31676 0.0
C2411 C 0.16925 0.59789 0.27359 0.0
H2412 H 0.14706 0.34444 0.20205 0.0
H2413 H 0.17639 0.40812 0.24318 0.0
H2414 H 0.14082 0.35927 0.12824 0.0
H2415 H 0.16823 0.42396 0.16861 0.0
H2416 H 0.16027 0.42399 0.00113 0.0
H2417 H 0.17597 0.41573 0.07574 0.0
H2418 H 0.11056 0.39043 0.11695 0.0
H2419 H 0.09582 0.3967 0.04308 0.0
C2420 C 0.15299 0.36141 0.19474 0.0
C2421 C 0.16304 0.37484 0.22772 0.0
C2422 C 0.14903 0.37005 0.15264 0.0
C2423 C 0.15384 0.39279 0.14307 0.0
C2424 C 0.16459 0.40629 0.17533 0.0
C2425 C 0.1691 0.39733 0.21776 0.0
C2426 C 0.14929 0.41715 0.02673 0.0
C2427 C 0.12663 0.41168 0.01697 0.0
C2428 C 0.15819 0.41258 0.0692 0.0
C2429 C 0.14443 0.40238 0.10171 0.0
C2430 C 0.12153 0.39821 0.09235 0.0
C2431 C 0.11295 0.4022 0.05021 0.0
loop_
_geom_bond_atom_site_label_1
_geom_bond_atom_site_label_2
_geom_bond_distance
_geom_bond_site_symmetry_2
_ccdc_geom_bond_type
Mn0 O5 2.095 . S
Mn0 O15 2.162 . S
Mn0 O16 2.297 . S
Mn0 O24 2.385 . S
Mn0 O25 2.209 . S
Mn0 O26 2.094 . S
Mn1 O6 2.121 . S
Mn1 N8 2.257 . S
Mn1 N17 2.282 . S
Mn1 O25 2.215 . S
Mn1 O27 2.117 . S
C2 O24 1.234 . S
C2 O25 1.283 . S
C3 O15 1.281 . S
C3 O16 1.236 . S
C4 O26 1.240 . S
C4 O27 1.264 . S
O5 Mn0 2.095 . S
O5 C14 1.250 . S
O6 Mn1 2.121 . S
O6 C14 1.258 . S
C7 N8 1.326 . S
C7 C11 1.460 . S
C7 H13 0.929 . S
N8 Mn1 2.257 . S
N8 C7 1.326 . S
N8 C12 1.362 . S
C9 C10 1.258 . S
C9 C12 1.431 . S
C9 C29 1.449 . S
C10 C9 1.258 . S
C10 C11 1.477 . S
C10 H30 0.931 . S
C11 C7 1.460 . S
C11 C10 1.477 . S
C11 H31 0.930 . S
C12 N8 1.362 . S
C12 C9 1.431 . S
C12 C22 1.476 . S
H13 C7 0.929 . S
C14 O5 1.250 . S
C14 O6 1.258 . S
O15 Mn0 2.162 . S
O15 C3 1.281 . S
O16 Mn0 2.297 . S
O16 C3 1.236 . S
N17 Mn1 2.282 . S
N17 C18 1.328 . S
N17 C22 1.318 . S
C18 N17 1.328 . S
C18 C19 1.457 . S
C18 H23 0.929 . S
C19 C18 1.457 . S
C19 C20 1.291 . S
C19 H32 0.931 . S
C20 C19 1.291 . S
C20 C21 1.373 . S
C20 H33 0.929 . S
C21 C20 1.373 . S
C21 C22 1.396 . S
C21 C28 1.403 . S
C22 C12 1.476 . S
C22 N17 1.318 . S
C22 C21 1.396 . S
H23 C18 0.929 . S
O24 Mn0 2.385 . S
O24 C2 1.234 . S
O25 Mn0 2.209 . S
O25 Mn1 2.215 . S
O25 C2 1.283 . S
O26 Mn0 2.094 . S
O26 C4 1.240 . S
O27 Mn1 2.117 . S
O27 C4 1.264 . S
C28 C21 1.403 . S
C28 C29 1.399 . S
C28 H34 0.929 . S
C29 C9 1.449 . S
C29 C28 1.399 . S
C29 H35 0.930 . S
H30 C10 0.931 . S
H31 C11 0.930 . S
H32 C19 0.931 . S
H33 C20 0.929 . S
H34 C28 0.929 . S
H35 C29 0.930 . S
Mn36 O41 2.095 . S
Mn36 O51 2.162 . S
Mn36 O52 2.297 . S
Mn36 O60 2.385 . S
Mn36 O61 2.209 . S
Mn36 O62 2.094 . S
Mn37 O42 2.121 . S
Mn37 N44 2.257 . S
Mn37 N53 2.282 . S
Mn37 O61 2.215 . S
Mn37 O63 2.117 . S
C38 O60 1.234 . S
C38 O61 1.283 . S
C39 O51 1.281 . S
C39 O52 1.236 . S
C40 O62 1.240 . S
C40 O63 1.264 . S
O41 Mn36 2.095 . S
O41 C50 1.250 . S
O42 Mn37 2.121 . S
O42 C50 1.258 . S
C43 N44 1.326 . S
C43 C47 1.460 . S
C43 H49 0.929 . S
N44 Mn37 2.257 . S
N44 C43 1.326 . S
N44 C48 1.362 . S
C45 C46 1.258 . S
C45 C48 1.431 . S
C45 C65 1.449 . S
C46 C45 1.258 . S
C46 C47 1.477 . S
C46 H66 0.931 . S
C47 C43 1.460 . S
C47 C46 1.477 . S
C47 H67 0.930 . S
C48 N44 1.362 . S
C48 C45 1.431 . S
C48 C58 1.476 . S
H49 C43 0.929 . S
C50 O41 1.250 . S
C50 O42 1.258 . S
O51 Mn36 2.162 . S
O51 C39 1.281 . S
O52 Mn36 2.297 . S
O52 C39 1.236 . S
N53 Mn37 2.282 . S
N53 C54 1.328 . S
N53 C58 1.318 . S
C54 N53 1.328 . S
C54 C55 1.457 . S
C54 H59 0.929 . S
C55 C54 1.457 . S
C55 C56 1.291 . S
C55 H68 0.931 . S
C56 C55 1.291 . S
C56 C57 1.373 . S
C56 H69 0.929 . S
C57 C56 1.373 . S
C57 C58 1.396 . S
C57 C64 1.403 . S
C58 C48 1.476 . S
C58 N53 1.318 . S
C58 C57 1.396 . S
H59 C54 0.929 . S
O60 Mn36 2.385 . S
O60 C38 1.234 . S
O61 Mn36 2.209 . S
O61 Mn37 2.215 . S
O61 C38 1.283 . S
O62 Mn36 2.094 . S
O62 C40 1.240 . S
O63 Mn37 2.117 . S
O63 C40 1.264 . S
C64 C57 1.403 . S
C64 C65 1.399 . S
C64 H70 0.929 . S
C65 C45 1.449 . S
C65 C64 1.399 . S
C65 H71 0.930 . S
H66 C46 0.931 . S
H67 C47 0.930 . S
H68 C55 0.931 . S
H69 C56 0.929 . S
H70 C64 0.929 . S
H71 C65 0.930 . S
Mn72 O77 2.095 . S
Mn72 O87 2.162 . S
Mn72 O88 2.297 . S
Mn72 O96 2.385 . S
Mn72 O97 2.209 . S
Mn72 O98 2.094 . S
Mn73 O78 2.121 . S
Mn73 N80 2.257 1_556 S
Mn73 N89 2.282 . S
Mn73 O97 2.215 . S
Mn73 O99 2.117 . S
C74 O96 1.234 . S
C74 O97 1.283 . S
C75 O87 1.281 . S
C75 O88 1.236 . S
C76 O98 1.240 . S
C76 O99 1.264 . S
O77 Mn72 2.095 . S
O77 C86 1.250 . S
O78 Mn73 2.121 . S
O78 C86 1.258 . S
C79 N80 1.326 . S
C79 C83 1.460 . S
C79 H85 0.929 . S
N80 Mn73 2.257 1_554 S
N80 C79 1.326 . S
N80 C84 1.362 . S
C81 C82 1.258 . S
C81 C84 1.431 . S
C81 C101 1.449 . S
C82 C81 1.258 . S
C82 C83 1.477 . S
C82 H102 0.931 . S
C83 C79 1.460 . S
C83 C82 1.477 . S
C83 H103 0.930 . S
C84 N80 1.362 . S
C84 C81 1.431 . S
C84 C94 1.476 . S
H85 C79 0.929 . S
C86 O77 1.250 . S
C86 O78 1.258 . S
O87 Mn72 2.162 . S
O87 C75 1.281 . S
O88 Mn72 2.297 . S
O88 C75 1.236 . S
N89 Mn73 2.282 . S
N89 C90 1.328 . S
N89 C94 1.318 1_556 S
C90 N89 1.328 . S
C90 C91 1.457 1_556 S
C90 H95 0.929 . S
C91 C90 1.457 1_554 S
C91 C92 1.291 . S
C91 H104 0.931 . S
C92 C91 1.291 . S
C92 C93 1.373 . S
C92 H105 0.929 . S
C93 C92 1.373 . S
C93 C94 1.396 . S
C93 C100 1.403 . S
C94 C84 1.476 . S
C94 N89 1.318 1_554 S
C94 C93 1.396 . S
H95 C90 0.929 . S
O96 Mn72 2.385 . S
O96 C74 1.234 . S
O97 Mn72 2.209 . S
O97 Mn73 2.215 . S
O97 C74 1.283 . S
O98 Mn72 2.094 . S
O98 C76 1.240 . S
O99 Mn73 2.117 . S
O99 C76 1.264 . S
C100 C93 1.403 . S
C100 C101 1.399 . S
C100 H106 0.929 . S
C101 C81 1.449 . S
C101 C100 1.399 . S
C101 H107 0.930 . S
H102 C82 0.931 . S
H103 C83 0.930 . S
H104 C91 0.931 . S
H105 C92 0.929 . S
H106 C100 0.929 . S
H107 C101 0.930 . S
Mn108 O113 2.095 . S
Mn108 O123 2.162 . S
Mn108 O124 2.297 . S
Mn108 O132 2.385 . S
Mn108 O133 2.209 . S
Mn108 O134 2.094 . S
Mn109 O114 2.121 . S
Mn109 N116 2.257 . S
Mn109 N125 2.282 . S
Mn109 O133 2.215 . S
Mn109 O135 2.117 . S
C110 O132 1.234 . S
C110 O133 1.283 . S
C111 O123 1.281 . S
C111 O124 1.236 . S
C112 O134 1.240 . S
C112 O135 1.264 . S
O113 Mn108 2.095 . S
O113 C122 1.250 . S
O114 Mn109 2.121 . S
O114 C122 1.258 . S
C115 N116 1.326 . S
C115 C119 1.460 . S
C115 H121 0.929 . S
N116 Mn109 2.257 . S
N116 C115 1.326 . S
N116 C120 1.362 . S
C117 C118 1.258 . S
C117 C120 1.431 . S
C117 C137 1.449 . S
C118 C117 1.258 . S
C118 C119 1.477 . S
C118 H138 0.931 . S
C119 C115 1.460 . S
C119 C118 1.477 . S
C119 H139 0.930 . S
C120 N116 1.362 . S
C120 C117 1.431 . S
C120 C130 1.476 . S
H121 C115 0.929 . S
C122 O113 1.250 . S
C122 O114 1.258 . S
O123 Mn108 2.162 . S
O123 C111 1.281 . S
O124 Mn108 2.297 . S
O124 C111 1.236 . S
N125 Mn109 2.282 . S
N125 C126 1.328 . S
N125 C130 1.318 . S
C126 N125 1.328 . S
C126 C127 1.457 . S
C126 H131 0.929 . S
C127 C126 1.457 . S
C127 C128 1.291 . S
C127 H140 0.931 . S
C128 C127 1.291 . S
C128 C129 1.373 . S
C128 H141 0.929 . S
C129 C128 1.373 . S
C129 C130 1.396 . S
C129 C136 1.403 . S
C130 C120 1.476 . S
C130 N125 1.318 . S
C130 C129 1.396 . S
H131 C126 0.929 . S
O132 Mn108 2.385 . S
O132 C110 1.234 . S
O133 Mn108 2.209 . S
O133 Mn109 2.215 . S
O133 C110 1.283 . S
O134 Mn108 2.094 . S
O134 C112 1.240 . S
O135 Mn109 2.117 . S
O135 C112 1.264 . S
C136 C129 1.403 . S
C136 C137 1.399 . S
C136 H142 0.929 . S
C137 C117 1.449 . S
C137 C136 1.399 . S
C137 H143 0.930 . S
H138 C118 0.931 . S
H139 C119 0.930 . S
H140 C127 0.931 . S
H141 C128 0.929 . S
H142 C136 0.929 . S
H143 C137 0.930 . S
Mn144 O149 2.095 . S
Mn144 O159 2.162 . S
Mn144 O160 2.297 . S
Mn144 O168 2.385 . S
Mn144 O169 2.209 . S
Mn144 O170 2.094 . S
Mn145 O150 2.121 . S
Mn145 N152 2.257 1_554 S
Mn145 N161 2.282 . S
Mn145 O169 2.215 . S
Mn145 O171 2.117 . S
C146 O168 1.234 . S
C146 O169 1.283 . S
C147 O159 1.281 . S
C147 O160 1.236 . S
C148 O170 1.240 . S
C148 O171 1.264 . S
O149 Mn144 2.095 . S
O149 C158 1.250 . S
O150 Mn145 2.121 . S
O150 C158 1.258 . S
C151 N152 1.326 . S
C151 C155 1.460 . S
C151 H157 0.929 . S
N152 Mn145 2.257 1_556 S
N152 C151 1.326 . S
N152 C156 1.362 . S
C153 C154 1.258 . S
C153 C156 1.431 . S
C153 C173 1.449 . S
C154 C153 1.258 . S
C154 C155 1.477 . S
C154 H174 0.931 . S
C155 C151 1.460 . S
C155 C154 1.477 . S
C155 H175 0.930 . S
C156 N152 1.362 . S
C156 C153 1.431 . S
C156 C166 1.476 . S
H157 C151 0.929 . S
C158 O149 1.250 . S
C158 O150 1.258 . S
O159 Mn144 2.162 . S
O159 C147 1.281 . S
O160 Mn144 2.297 . S
O160 C147 1.236 . S
N161 Mn145 2.282 . S
N161 C162 1.328 . S
N161 C166 1.318 1_554 S
C162 N161 1.328 . S
C162 C163 1.457 1_554 S
C162 H167 0.929 . S
C163 C162 1.457 1_556 S
C163 C164 1.291 . S
C163 H176 0.931 . S
C164 C163 1.291 . S
C164 C165 1.373 . S
C164 H177 0.929 . S
C165 C164 1.373 . S
C165 C166 1.396 . S
C165 C172 1.403 . S
C166 C156 1.476 . S
C166 N161 1.318 1_556 S
C166 C165 1.396 . S
H167 C162 0.929 . S
O168 Mn144 2.385 . S
O168 C146 1.234 . S
O169 Mn144 2.209 . S
O169 Mn145 2.215 . S
O169 C146 1.283 . S
O170 Mn144 2.094 . S
O170 C148 1.240 . S
O171 Mn145 2.117 . S
O171 C148 1.264 . S
C172 C165 1.403 . S
C172 C173 1.399 . S
C172 H178 0.929 . S
C173 C153 1.449 . S
C173 C172 1.399 . S
C173 H179 0.930 . S
H174 C154 0.931 . S
H175 C155 0.930 . S
H176 C163 0.931 . S
H177 C164 0.929 . S
H178 C172 0.929 . S
H179 C173 0.930 . S
Mn180 O185 2.095 . S
Mn180 O195 2.162 . S
Mn180 O196 2.297 . S
Mn180 O204 2.385 . S
Mn180 O205 2.209 . S
Mn180 O206 2.094 . S
Mn181 O186 2.121 . S
Mn181 N188 2.257 . S
Mn181 N197 2.282 . S
Mn181 O205 2.215 . S
Mn181 O207 2.117 . S
C182 O204 1.234 . S
C182 O205 1.283 . S
C183 O195 1.281 . S
C183 O196 1.236 . S
C184 O206 1.240 . S
C184 O207 1.264 . S
O185 Mn180 2.095 . S
O185 C194 1.250 . S
O186 Mn181 2.121 . S
O186 C194 1.258 . S
C187 N188 1.326 . S
C187 C191 1.460 . S
C187 H193 0.929 . S
N188 Mn181 2.257 . S
N188 C187 1.326 . S
N188 C192 1.362 . S
C189 C190 1.258 . S
C189 C192 1.431 . S
C189 C209 1.449 . S
C190 C189 1.258 . S
C190 C191 1.477 . S
C190 H210 0.931 . S
C191 C187 1.460 . S
C191 C190 1.477 . S
C191 H211 0.930 . S
C192 N188 1.362 . S
C192 C189 1.431 . S
C192 C202 1.476 . S
H193 C187 0.929 . S
C194 O185 1.250 . S
C194 O186 1.258 . S
O195 Mn180 2.162 . S
O195 C183 1.281 . S
O196 Mn180 2.297 . S
O196 C183 1.236 . S
N197 Mn181 2.282 . S
N197 C198 1.328 . S
N197 C202 1.318 . S
C198 N197 1.328 . S
C198 C199 1.457 . S
C198 H203 0.929 . S
C199 C198 1.457 . S
C199 C200 1.291 . S
C199 H212 0.931 . S
C200 C199 1.291 . S
C200 C201 1.373 . S
C200 H213 0.929 . S
C201 C200 1.373 . S
C201 C202 1.396 . S
C201 C208 1.403 . S
C202 C192 1.476 . S
C202 N197 1.318 . S
C202 C201 1.396 . S
H203 C198 0.929 . S
O204 Mn180 2.385 . S
O204 C182 1.234 . S
O205 Mn180 2.209 . S
O205 Mn181 2.215 . S
O205 C182 1.283 . S
O206 Mn180 2.094 . S
O206 C184 1.240 . S
O207 Mn181 2.117 . S
O207 C184 1.264 . S
C208 C201 1.403 . S
C208 C209 1.399 . S
C208 H214 0.929 . S
C209 C189 1.449 . S
C209 C208 1.399 . S
C209 H215 0.930 . S
H210 C190 0.931 . S
H211 C191 0.930 . S
H212 C199 0.931 . S
H213 C200 0.929 . S
H214 C208 0.929 . S
H215 C209 0.930 . S
Mn216 O221 2.095 . S
Mn216 O231 2.162 . S
Mn216 O232 2.297 . S
Mn216 O240 2.385 . S
Mn216 O241 2.209 . S
Mn216 O242 2.094 . S
Mn217 O222 2.121 . S
Mn217 N224 2.257 . S
Mn217 N233 2.282 . S
Mn217 O241 2.215 . S
Mn217 O243 2.117 . S
C218 O240 1.234 . S
C218 O241 1.283 . S
C219 O231 1.281 . S
C219 O232 1.236 . S
C220 O242 1.240 . S
C220 O243 1.264 . S
O221 Mn216 2.095 . S
O221 C230 1.250 . S
O222 Mn217 2.121 . S
O222 C230 1.258 . S
C223 N224 1.326 . S
C223 C227 1.460 . S
C223 H229 0.929 . S
N224 Mn217 2.257 . S
N224 C223 1.326 . S
N224 C228 1.362 . S
C225 C226 1.258 . S
C225 C228 1.431 . S
C225 C245 1.449 . S
C226 C225 1.258 . S
C226 C227 1.477 . S
C226 H246 0.931 . S
C227 C223 1.460 . S
C227 C226 1.477 . S
C227 H247 0.930 . S
C228 N224 1.362 . S
C228 C225 1.431 . S
C228 C238 1.476 . S
H229 C223 0.929 . S
C230 O221 1.250 . S
C230 O222 1.258 . S
O231 Mn216 2.162 . S
O231 C219 1.281 . S
O232 Mn216 2.297 . S
O232 C219 1.236 . S
N233 Mn217 2.282 . S
N233 C234 1.328 . S
N233 C238 1.318 . S
C234 N233 1.328 . S
C234 C235 1.457 . S
C234 H239 0.929 . S
C235 C234 1.457 . S
C235 C236 1.291 . S
C235 H248 0.931 . S
C236 C235 1.291 . S
C236 C237 1.373 . S
C236 H249 0.929 . S
C237 C236 1.373 . S
C237 C238 1.396 . S
C237 C244 1.403 . S
C238 C228 1.476 . S
C238 N233 1.318 . S
C238 C237 1.396 . S
H239 C234 0.929 . S
O240 Mn216 2.385 . S
O240 C218 1.234 . S
O241 Mn216 2.209 . S
O241 Mn217 2.215 . S
O241 C218 1.283 . S
O242 Mn216 2.094 . S
O242 C220 1.240 . S
O243 Mn217 2.117 . S
O243 C220 1.264 . S
C244 C237 1.403 . S
C244 C245 1.399 . S
C244 H250 0.929 . S
C245 C225 1.449 . S
C245 C244 1.399 . S
C245 H251 0.930 . S
H246 C226 0.931 . S
H247 C227 0.930 . S
H248 C235 0.931 . S
H249 C236 0.929 . S
H250 C244 0.929 . S
H251 C245 0.930 . S
Mn252 O257 2.095 . S
Mn252 O267 2.162 . S
Mn252 O268 2.297 . S
Mn252 O276 2.385 . S
Mn252 O277 2.209 . S
Mn252 O278 2.094 . S
Mn253 O258 2.121 . S
Mn253 N260 2.257 . S
Mn253 N269 2.282 . S
Mn253 O277 2.215 . S
Mn253 O279 2.117 . S
C254 O276 1.234 . S
C254 O277 1.283 . S
C255 O267 1.281 . S
C255 O268 1.236 . S
C256 O278 1.240 . S
C256 O279 1.264 . S
O257 Mn252 2.095 . S
O257 C266 1.250 . S
O258 Mn253 2.121 . S
O258 C266 1.258 . S
C259 N260 1.326 . S
C259 C263 1.460 . S
C259 H265 0.929 . S
N260 Mn253 2.257 . S
N260 C259 1.326 . S
N260 C264 1.362 . S
C261 C262 1.258 . S
C261 C264 1.431 . S
C261 C281 1.449 . S
C262 C261 1.258 . S
C262 C263 1.477 . S
C262 H282 0.931 . S
C263 C259 1.460 . S
C263 C262 1.477 . S
C263 H283 0.930 . S
C264 N260 1.362 . S
C264 C261 1.431 . S
C264 C274 1.476 . S
H265 C259 0.929 . S
C266 O257 1.250 . S
C266 O258 1.258 . S
O267 Mn252 2.162 . S
O267 C255 1.281 . S
O268 Mn252 2.297 . S
O268 C255 1.236 . S
N269 Mn253 2.282 . S
N269 C270 1.328 . S
N269 C274 1.318 . S
C270 N269 1.328 . S
C270 C271 1.457 . S
C270 H275 0.929 . S
C271 C270 1.457 . S
C271 C272 1.291 . S
C271 H284 0.931 . S
C272 C271 1.291 . S
C272 C273 1.373 . S
C272 H285 0.929 . S
C273 C272 1.373 . S
C273 C274 1.396 . S
C273 C280 1.403 . S
C274 C264 1.476 . S
C274 N269 1.318 . S
C274 C273 1.396 . S
H275 C270 0.929 . S
O276 Mn252 2.385 . S
O276 C254 1.234 . S
O277 Mn252 2.209 . S
O277 Mn253 2.215 . S
O277 C254 1.283 . S
O278 Mn252 2.094 . S
O278 C256 1.240 . S
O279 Mn253 2.117 . S
O279 C256 1.264 . S
C280 C273 1.403 . S
C280 C281 1.399 . S
C280 H286 0.929 . S
C281 C261 1.449 . S
C281 C280 1.399 . S
C281 H287 0.930 . S
H282 C262 0.931 . S
H283 C263 0.930 . S
H284 C271 0.931 . S
H285 C272 0.929 . S
H286 C280 0.929 . S
H287 C281 0.930 . S
Mn288 O293 2.095 . S
Mn288 O303 2.162 . S
Mn288 O304 2.297 . S
Mn288 O312 2.385 . S
Mn288 O313 2.209 . S
Mn288 O314 2.094 . S
Mn289 O294 2.121 . S
Mn289 N296 2.257 . S
Mn289 N305 2.282 . S
Mn289 O313 2.215 . S
Mn289 O315 2.117 . S
C290 O312 1.234 . S
C290 O313 1.283 . S
C291 O303 1.281 . S
C291 O304 1.236 . S
C292 O314 1.240 . S
C292 O315 1.264 . S
O293 Mn288 2.095 . S
O293 C302 1.250 . S
O294 Mn289 2.121 . S
O294 C302 1.258 . S
C295 N296 1.326 . S
C295 C299 1.460 . S
C295 H301 0.929 . S
N296 Mn289 2.257 . S
N296 C295 1.326 . S
N296 C300 1.362 . S
C297 C298 1.258 . S
C297 C300 1.431 . S
C297 C317 1.449 . S
C298 C297 1.258 . S
C298 C299 1.477 . S
C298 H318 0.931 . S
C299 C295 1.460 . S
C299 C298 1.477 . S
C299 H319 0.930 . S
C300 N296 1.362 . S
C300 C297 1.431 . S
C300 C310 1.476 . S
H301 C295 0.929 . S
C302 O293 1.250 . S
C302 O294 1.258 . S
O303 Mn288 2.162 . S
O303 C291 1.281 . S
O304 Mn288 2.297 . S
O304 C291 1.236 . S
N305 Mn289 2.282 . S
N305 C306 1.328 . S
N305 C310 1.318 . S
C306 N305 1.328 . S
C306 C307 1.457 . S
C306 H311 0.929 . S
C307 C306 1.457 . S
C307 C308 1.291 . S
C307 H320 0.931 . S
C308 C307 1.291 . S
C308 C309 1.373 . S
C308 H321 0.929 . S
C309 C308 1.373 . S
C309 C310 1.396 . S
C309 C316 1.403 . S
C310 C300 1.476 . S
C310 N305 1.318 . S
C310 C309 1.396 . S
H311 C306 0.929 . S
O312 Mn288 2.385 . S
O312 C290 1.234 . S
O313 Mn288 2.209 . S
O313 Mn289 2.215 . S
O313 C290 1.283 . S
O314 Mn288 2.094 . S
O314 C292 1.240 . S
O315 Mn289 2.117 . S
O315 C292 1.264 . S
C316 C309 1.403 . S
C316 C317 1.399 . S
C316 H322 0.929 . S
C317 C297 1.449 . S
C317 C316 1.399 . S
C317 H323 0.930 . S
H318 C298 0.931 . S
H319 C299 0.930 . S
H320 C307 0.931 . S
H321 C308 0.929 . S
H322 C316 0.929 . S
H323 C317 0.930 . S
Mn324 O329 2.095 . S
Mn324 O339 2.162 . S
Mn324 O340 2.297 . S
Mn324 O348 2.385 . S
Mn324 O349 2.209 . S
Mn324 O350 2.094 . S
Mn325 O330 2.121 . S
Mn325 N332 2.257 . S
Mn325 N341 2.282 . S
Mn325 O349 2.215 . S
Mn325 O351 2.117 . S
C326 O348 1.234 . S
C326 O349 1.283 . S
C327 O339 1.281 . S
C327 O340 1.236 . S
C328 O350 1.240 . S
C328 O351 1.264 . S
O329 Mn324 2.095 . S
O329 C338 1.250 . S
O330 Mn325 2.121 . S
O330 C338 1.258 . S
C331 N332 1.326 . S
C331 C335 1.460 . S
C331 H337 0.929 . S
N332 Mn325 2.257 . S
N332 C331 1.326 . S
N332 C336 1.362 . S
C333 C334 1.258 . S
C333 C336 1.431 . S
C333 C353 1.449 . S
C334 C333 1.258 . S
C334 C335 1.477 . S
C334 H354 0.931 . S
C335 C331 1.460 . S
C335 C334 1.477 . S
C335 H355 0.930 . S
C336 N332 1.362 . S
C336 C333 1.431 . S
C336 C346 1.476 . S
H337 C331 0.929 . S
C338 O329 1.250 . S
C338 O330 1.258 . S
O339 Mn324 2.162 . S
O339 C327 1.281 . S
O340 Mn324 2.297 . S
O340 C327 1.236 . S
N341 Mn325 2.282 . S
N341 C342 1.328 . S
N341 C346 1.318 . S
C342 N341 1.328 . S
C342 C343 1.457 . S
C342 H347 0.929 . S
C343 C342 1.457 . S
C343 C344 1.291 . S
C343 H356 0.931 . S
C344 C343 1.291 . S
C344 C345 1.373 . S
C344 H357 0.929 . S
C345 C344 1.373 . S
C345 C346 1.396 . S
C345 C352 1.403 . S
C346 C336 1.476 . S
C346 N341 1.318 . S
C346 C345 1.396 . S
H347 C342 0.929 . S
O348 Mn324 2.385 . S
O348 C326 1.234 . S
O349 Mn324 2.209 . S
O349 Mn325 2.215 . S
O349 C326 1.283 . S
O350 Mn324 2.094 . S
O350 C328 1.240 . S
O351 Mn325 2.117 . S
O351 C328 1.264 . S
C352 C345 1.403 . S
C352 C353 1.399 . S
C352 H358 0.929 . S
C353 C333 1.449 . S
C353 C352 1.399 . S
C353 H359 0.930 . S
H354 C334 0.931 . S
H355 C335 0.930 . S
H356 C343 0.931 . S
H357 C344 0.929 . S
H358 C352 0.929 . S
H359 C353 0.930 . S
Mn360 O365 2.095 . S
Mn360 O375 2.162 . S
Mn360 O376 2.297 . S
Mn360 O384 2.385 . S
Mn360 O385 2.209 . S
Mn360 O386 2.094 . S
Mn361 O366 2.121 . S
Mn361 N368 2.257 1_554 S
Mn361 N377 2.282 . S
Mn361 O385 2.215 . S
Mn361 O387 2.117 . S
C362 O384 1.234 . S
C362 O385 1.283 . S
C363 O375 1.281 . S
C363 O376 1.236 . S
C364 O386 1.240 . S
C364 O387 1.264 . S
O365 Mn360 2.095 . S
O365 C374 1.250 . S
O366 Mn361 2.121 . S
O366 C374 1.258 . S
C367 N368 1.326 . S
C367 C371 1.460 . S
C367 H373 0.929 . S
N368 Mn361 2.257 1_556 S
N368 C367 1.326 . S
N368 C372 1.362 . S
C369 C370 1.258 . S
C369 C372 1.431 . S
C369 C389 1.449 . S
C370 C369 1.258 . S
C370 C371 1.477 . S
C370 H390 0.931 . S
C371 C367 1.460 . S
C371 C370 1.477 . S
C371 H391 0.930 . S
C372 N368 1.362 . S
C372 C369 1.431 . S
C372 C382 1.476 . S
H373 C367 0.929 . S
C374 O365 1.250 . S
C374 O366 1.258 . S
O375 Mn360 2.162 . S
O375 C363 1.281 . S
O376 Mn360 2.297 . S
O376 C363 1.236 . S
N377 Mn361 2.282 . S
N377 C378 1.328 . S
N377 C382 1.318 1_554 S
C378 N377 1.328 . S
C378 C379 1.457 1_554 S
C378 H383 0.929 . S
C379 C378 1.457 1_556 S
C379 C380 1.291 . S
C379 H392 0.931 . S
C380 C379 1.291 . S
C380 C381 1.373 . S
C380 H393 0.929 . S
C381 C380 1.373 . S
C381 C382 1.396 . S
C381 C388 1.403 . S
C382 C372 1.476 . S
C382 N377 1.318 1_556 S
C382 C381 1.396 . S
H383 C378 0.929 . S
O384 Mn360 2.385 . S
O384 C362 1.234 . S
O385 Mn360 2.209 . S
O385 Mn361 2.215 . S
O385 C362 1.283 . S
O386 Mn360 2.094 . S
O386 C364 1.240 . S
O387 Mn361 2.117 . S
O387 C364 1.264 . S
C388 C381 1.403 . S
C388 C389 1.399 . S
C388 H394 0.929 . S
C389 C369 1.449 . S
C389 C388 1.399 . S
C389 H395 0.930 . S
H390 C370 0.931 . S
H391 C371 0.930 . S
H392 C379 0.931 . S
H393 C380 0.929 . S
H394 C388 0.929 . S
H395 C389 0.930 . S
Mn396 O401 2.095 . S
Mn396 O411 2.162 . S
Mn396 O412 2.297 . S
Mn396 O420 2.385 . S
Mn396 O421 2.209 . S
Mn396 O422 2.094 . S
Mn397 O402 2.121 . S
Mn397 N404 2.257 . S
Mn397 N413 2.282 . S
Mn397 O421 2.215 . S
Mn397 O423 2.117 . S
C398 O420 1.234 . S
C398 O421 1.283 . S
C399 O411 1.281 . S
C399 O412 1.236 . S
C400 O422 1.240 . S
C400 O423 1.264 . S
O401 Mn396 2.095 . S
O401 C410 1.250 . S
O402 Mn397 2.121 . S
O402 C410 1.258 . S
C403 N404 1.326 . S
C403 C407 1.460 . S
C403 H409 0.929 . S
N404 Mn397 2.257 . S
N404 C403 1.326 . S
N404 C408 1.362 . S
C405 C406 1.258 . S
C405 C408 1.431 . S
C405 C425 1.449 . S
C406 C405 1.258 . S
C406 C407 1.477 . S
C406 H426 0.931 . S
C407 C403 1.460 . S
C407 C406 1.477 . S
C407 H427 0.930 . S
C408 N404 1.362 . S
C408 C405 1.431 . S
C408 C418 1.476 . S
H409 C403 0.929 . S
C410 O401 1.250 . S
C410 O402 1.258 . S
O411 Mn396 2.162 . S
O411 C399 1.281 . S
O412 Mn396 2.297 . S
O412 C399 1.236 . S
N413 Mn397 2.282 . S
N413 C414 1.328 . S
N413 C418 1.318 . S
C414 N413 1.328 . S
C414 C415 1.457 . S
C414 H419 0.929 . S
C415 C414 1.457 . S
C415 C416 1.291 . S
C415 H428 0.931 . S
C416 C415 1.291 . S
C416 C417 1.373 . S
C416 H429 0.929 . S
C417 C416 1.373 . S
C417 C418 1.396 . S
C417 C424 1.403 . S
C418 C408 1.476 . S
C418 N413 1.318 . S
C418 C417 1.396 . S
H419 C414 0.929 . S
O420 Mn396 2.385 . S
O420 C398 1.234 . S
O421 Mn396 2.209 . S
O421 Mn397 2.215 . S
O421 C398 1.283 . S
O422 Mn396 2.094 . S
O422 C400 1.240 . S
O423 Mn397 2.117 . S
O423 C400 1.264 . S
C424 C417 1.403 . S
C424 C425 1.399 . S
C424 H430 0.929 . S
C425 C405 1.449 . S
C425 C424 1.399 . S
C425 H431 0.930 . S
H426 C406 0.931 . S
H427 C407 0.930 . S
H428 C415 0.931 . S
H429 C416 0.929 . S
H430 C424 0.929 . S
H431 C425 0.930 . S
Mn432 O437 2.095 . S
Mn432 O447 2.162 . S
Mn432 O448 2.297 . S
Mn432 O456 2.385 . S
Mn432 O457 2.209 . S
Mn432 O458 2.094 . S
Mn433 O438 2.121 . S
Mn433 N440 2.257 1_556 S
Mn433 N449 2.282 . S
Mn433 O457 2.215 . S
Mn433 O459 2.117 . S
C434 O456 1.234 . S
C434 O457 1.283 . S
C435 O447 1.281 . S
C435 O448 1.236 . S
C436 O458 1.240 . S
C436 O459 1.264 . S
O437 Mn432 2.095 . S
O437 C446 1.250 . S
O438 Mn433 2.121 . S
O438 C446 1.258 . S
C439 N440 1.326 . S
C439 C443 1.460 . S
C439 H445 0.929 . S
N440 Mn433 2.257 1_554 S
N440 C439 1.326 . S
N440 C444 1.362 . S
C441 C442 1.258 . S
C441 C444 1.431 . S
C441 C461 1.449 . S
C442 C441 1.258 . S
C442 C443 1.477 . S
C442 H462 0.931 . S
C443 C439 1.460 . S
C443 C442 1.477 . S
C443 H463 0.930 . S
C444 N440 1.362 . S
C444 C441 1.431 . S
C444 C454 1.476 . S
H445 C439 0.929 . S
C446 O437 1.250 . S
C446 O438 1.258 . S
O447 Mn432 2.162 . S
O447 C435 1.281 . S
O448 Mn432 2.297 . S
O448 C435 1.236 . S
N449 Mn433 2.282 . S
N449 C450 1.328 . S
N449 C454 1.318 1_556 S
C450 N449 1.328 . S
C450 C451 1.457 1_556 S
C450 H455 0.929 . S
C451 C450 1.457 1_554 S
C451 C452 1.291 . S
C451 H464 0.931 . S
C452 C451 1.291 . S
C452 C453 1.373 . S
C452 H465 0.929 . S
C453 C452 1.373 . S
C453 C454 1.396 . S
C453 C460 1.403 . S
C454 C444 1.476 . S
C454 N449 1.318 1_554 S
C454 C453 1.396 . S
H455 C450 0.929 . S
O456 Mn432 2.385 . S
O456 C434 1.234 . S
O457 Mn432 2.209 . S
O457 Mn433 2.215 . S
O457 C434 1.283 . S
O458 Mn432 2.094 . S
O458 C436 1.240 . S
O459 Mn433 2.117 . S
O459 C436 1.264 . S
C460 C453 1.403 . S
C460 C461 1.399 . S
C460 H466 0.929 . S
C461 C441 1.449 . S
C461 C460 1.399 . S
C461 H467 0.930 . S
H462 C442 0.931 . S
H463 C443 0.930 . S
H464 C451 0.931 . S
H465 C452 0.929 . S
H466 C460 0.929 . S
H467 C461 0.930 . S
Mn468 O473 2.095 . S
Mn468 O483 2.162 . S
Mn468 O484 2.297 . S
Mn468 O492 2.385 . S
Mn468 O493 2.209 . S
Mn468 O494 2.094 . S
Mn469 O474 2.121 . S
Mn469 N476 2.257 . S
Mn469 N485 2.282 . S
Mn469 O493 2.215 . S
Mn469 O495 2.117 . S
C470 O492 1.234 . S
C470 O493 1.283 . S
C471 O483 1.281 . S
C471 O484 1.236 . S
C472 O494 1.240 . S
C472 O495 1.264 . S
O473 Mn468 2.095 . S
O473 C482 1.250 . S
O474 Mn469 2.121 . S
O474 C482 1.258 . S
C475 N476 1.326 . S
C475 C479 1.460 . S
C475 H481 0.929 . S
N476 Mn469 2.257 . S
N476 C475 1.326 . S
N476 C480 1.362 . S
C477 C478 1.258 . S
C477 C480 1.431 . S
C477 C497 1.449 . S
C478 C477 1.258 . S
C478 C479 1.477 . S
C478 H498 0.931 . S
C479 C475 1.460 . S
C479 C478 1.477 . S
C479 H499 0.930 . S
C480 N476 1.362 . S
C480 C477 1.431 . S
C480 C490 1.476 . S
H481 C475 0.929 . S
C482 O473 1.250 . S
C482 O474 1.258 . S
O483 Mn468 2.162 . S
O483 C471 1.281 . S
O484 Mn468 2.297 . S
O484 C471 1.236 . S
N485 Mn469 2.282 . S
N485 C486 1.328 . S
N485 C490 1.318 . S
C486 N485 1.328 . S
C486 C487 1.457 . S
C486 H491 0.929 . S
C487 C486 1.457 . S
C487 C488 1.291 . S
C487 H500 0.931 . S
C488 C487 1.291 . S
C488 C489 1.373 . S
C488 H501 0.929 . S
C489 C488 1.373 . S
C489 C490 1.396 . S
C489 C496 1.403 . S
C490 C480 1.476 . S
C490 N485 1.318 . S
C490 C489 1.396 . S
H491 C486 0.929 . S
O492 Mn468 2.385 . S
O492 C470 1.234 . S
O493 Mn468 2.209 . S
O493 Mn469 2.215 . S
O493 C470 1.283 . S
O494 Mn468 2.094 . S
O494 C472 1.240 . S
O495 Mn469 2.117 . S
O495 C472 1.264 . S
C496 C489 1.403 . S
C496 C497 1.399 . S
C496 H502 0.929 . S
C497 C477 1.449 . S
C497 C496 1.399 . S
C497 H503 0.930 . S
H498 C478 0.931 . S
H499 C479 0.930 . S
H500 C487 0.931 . S
H501 C488 0.929 . S
H502 C496 0.929 . S
H503 C497 0.930 . S
Mn504 O509 2.095 . S
Mn504 O519 2.162 . S
Mn504 O520 2.297 . S
Mn504 O528 2.385 . S
Mn504 O529 2.209 . S
Mn504 O530 2.094 . S
Mn505 O510 2.121 . S
Mn505 N512 2.257 . S
Mn505 N521 2.282 . S
Mn505 O529 2.215 . S
Mn505 O531 2.117 . S
C506 O528 1.234 . S
C506 O529 1.283 . S
C507 O519 1.281 . S
C507 O520 1.236 . S
C508 O530 1.240 . S
C508 O531 1.264 . S
O509 Mn504 2.095 . S
O509 C518 1.250 . S
O510 Mn505 2.121 . S
O510 C518 1.258 . S
C511 N512 1.326 . S
C511 C515 1.460 . S
C511 H517 0.929 . S
N512 Mn505 2.257 . S
N512 C511 1.326 . S
N512 C516 1.362 . S
C513 C514 1.258 . S
C513 C516 1.431 . S
C513 C533 1.449 . S
C514 C513 1.258 . S
C514 C515 1.477 . S
C514 H534 0.931 . S
C515 C511 1.460 . S
C515 C514 1.477 . S
C515 H535 0.930 . S
C516 N512 1.362 . S
C516 C513 1.431 . S
C516 C526 1.476 . S
H517 C511 0.929 . S
C518 O509 1.250 . S
C518 O510 1.258 . S
O519 Mn504 2.162 . S
O519 C507 1.281 . S
O520 Mn504 2.297 . S
O520 C507 1.236 . S
N521 Mn505 2.282 . S
N521 C522 1.328 . S
N521 C526 1.318 . S
C522 N521 1.328 . S
C522 C523 1.457 . S
C522 H527 0.929 . S
C523 C522 1.457 . S
C523 C524 1.291 . S
C523 H536 0.931 . S
C524 C523 1.291 . S
C524 C525 1.373 . S
C524 H537 0.929 . S
C525 C524 1.373 . S
C525 C526 1.396 . S
C525 C532 1.403 . S
C526 C516 1.476 . S
C526 N521 1.318 . S
C526 C525 1.396 . S
H527 C522 0.929 . S
O528 Mn504 2.385 . S
O528 C506 1.234 . S
O529 Mn504 2.209 . S
O529 Mn505 2.215 . S
O529 C506 1.283 . S
O530 Mn504 2.094 . S
O530 C508 1.240 . S
O531 Mn505 2.117 . S
O531 C508 1.264 . S
C532 C525 1.403 . S
C532 C533 1.399 . S
C532 H538 0.929 . S
C533 C513 1.449 . S
C533 C532 1.399 . S
C533 H539 0.930 . S
H534 C514 0.931 . S
H535 C515 0.930 . S
H536 C523 0.931 . S
H537 C524 0.929 . S
H538 C532 0.929 . S
H539 C533 0.930 . S
Mn540 O545 2.095 . S
Mn540 O555 2.162 . S
Mn540 O556 2.297 . S
Mn540 O564 2.385 . S
Mn540 O565 2.209 . S
Mn540 O566 2.094 . S
Mn541 O546 2.121 . S
Mn541 N548 2.257 . S
Mn541 N557 2.282 . S
Mn541 O565 2.215 . S
Mn541 O567 2.117 . S
C542 O564 1.234 . S
C542 O565 1.283 . S
C543 O555 1.281 . S
C543 O556 1.236 . S
C544 O566 1.240 . S
C544 O567 1.264 . S
O545 Mn540 2.095 . S
O545 C554 1.250 . S
O546 Mn541 2.121 . S
O546 C554 1.258 . S
C547 N548 1.326 . S
C547 C551 1.460 . S
C547 H553 0.929 . S
N548 Mn541 2.257 . S
N548 C547 1.326 . S
N548 C552 1.362 . S
C549 C550 1.258 . S
C549 C552 1.431 . S
C549 C569 1.449 . S
C550 C549 1.258 . S
C550 C551 1.477 . S
C550 H570 0.931 . S
C551 C547 1.460 . S
C551 C550 1.477 . S
C551 H571 0.930 . S
C552 N548 1.362 . S
C552 C549 1.431 . S
C552 C562 1.476 . S
H553 C547 0.929 . S
C554 O545 1.250 . S
C554 O546 1.258 . S
O555 Mn540 2.162 . S
O555 C543 1.281 . S
O556 Mn540 2.297 . S
O556 C543 1.236 . S
N557 Mn541 2.282 . S
N557 C558 1.328 . S
N557 C562 1.318 . S
C558 N557 1.328 . S
C558 C559 1.457 . S
C558 H563 0.929 . S
C559 C558 1.457 . S
C559 C560 1.291 . S
C559 H572 0.931 . S
C560 C559 1.291 . S
C560 C561 1.373 . S
C560 H573 0.929 . S
C561 C560 1.373 . S
C561 C562 1.396 . S
C561 C568 1.403 . S
C562 C552 1.476 . S
C562 N557 1.318 . S
C562 C561 1.396 . S
H563 C558 0.929 . S
O564 Mn540 2.385 . S
O564 C542 1.234 . S
O565 Mn540 2.209 . S
O565 Mn541 2.215 . S
O565 C542 1.283 . S
O566 Mn540 2.094 . S
O566 C544 1.240 . S
O567 Mn541 2.117 . S
O567 C544 1.264 . S
C568 C561 1.403 . S
C568 C569 1.399 . S
C568 H574 0.929 . S
C569 C549 1.449 . S
C569 C568 1.399 . S
C569 H575 0.930 . S
H570 C550 0.931 . S
H571 C551 0.930 . S
H572 C559 0.931 . S
H573 C560 0.929 . S
H574 C568 0.929 . S
H575 C569 0.930 . S
Mn576 O581 2.095 . S
Mn576 O591 2.162 . S
Mn576 O592 2.297 . S
Mn576 O600 2.385 . S
Mn576 O601 2.209 . S
Mn576 O602 2.094 . S
Mn577 O582 2.121 . S
Mn577 N584 2.257 1_556 S
Mn577 N593 2.282 . S
Mn577 O601 2.215 . S
Mn577 O603 2.117 . S
C578 O600 1.234 . S
C578 O601 1.283 . S
C579 O591 1.281 . S
C579 O592 1.236 . S
C580 O602 1.240 . S
C580 O603 1.264 . S
O581 Mn576 2.095 . S
O581 C590 1.250 . S
O582 Mn577 2.121 . S
O582 C590 1.258 . S
C583 N584 1.326 . S
C583 C587 1.460 . S
C583 H589 0.929 . S
N584 Mn577 2.257 1_554 S
N584 C583 1.326 . S
N584 C588 1.362 . S
C585 C586 1.258 . S
C585 C588 1.431 . S
C585 C605 1.449 . S
C586 C585 1.258 . S
C586 C587 1.477 . S
C586 H606 0.931 . S
C587 C583 1.460 . S
C587 C586 1.477 . S
C587 H607 0.930 . S
C588 N584 1.362 . S
C588 C585 1.431 . S
C588 C598 1.476 . S
H589 C583 0.929 . S
C590 O581 1.250 . S
C590 O582 1.258 . S
O591 Mn576 2.162 . S
O591 C579 1.281 . S
O592 Mn576 2.297 . S
O592 C579 1.236 . S
N593 Mn577 2.282 . S
N593 C594 1.328 . S
N593 C598 1.318 1_556 S
C594 N593 1.328 . S
C594 C595 1.457 1_556 S
C594 H599 0.929 . S
C595 C594 1.457 1_554 S
C595 C596 1.291 . S
C595 H608 0.931 . S
C596 C595 1.291 . S
C596 C597 1.373 . S
C596 H609 0.929 . S
C597 C596 1.373 . S
C597 C598 1.396 . S
C597 C604 1.403 . S
C598 C588 1.476 . S
C598 N593 1.318 1_554 S
C598 C597 1.396 . S
H599 C594 0.929 . S
O600 Mn576 2.385 . S
O600 C578 1.234 . S
O601 Mn576 2.209 . S
O601 Mn577 2.215 . S
O601 C578 1.283 . S
O602 Mn576 2.094 . S
O602 C580 1.240 . S
O603 Mn577 2.117 . S
O603 C580 1.264 . S
C604 C597 1.403 . S
C604 C605 1.399 . S
C604 H610 0.929 . S
C605 C585 1.449 . S
C605 C604 1.399 . S
C605 H611 0.930 . S
H606 C586 0.931 . S
H607 C587 0.930 . S
H608 C595 0.931 . S
H609 C596 0.929 . S
H610 C604 0.929 . S
H611 C605 0.930 . S
Mn612 O617 2.095 . S
Mn612 O627 2.162 . S
Mn612 O628 2.297 . S
Mn612 O636 2.385 . S
Mn612 O637 2.209 . S
Mn612 O638 2.094 . S
Mn613 O618 2.121 . S
Mn613 N620 2.257 . S
Mn613 N629 2.282 . S
Mn613 O637 2.215 . S
Mn613 O639 2.117 . S
C614 O636 1.234 . S
C614 O637 1.283 . S
C615 O627 1.281 . S
C615 O628 1.236 . S
C616 O638 1.240 . S
C616 O639 1.264 . S
O617 Mn612 2.095 . S
O617 C626 1.250 . S
O618 Mn613 2.121 . S
O618 C626 1.258 . S
C619 N620 1.326 . S
C619 C623 1.460 . S
C619 H625 0.929 . S
N620 Mn613 2.257 . S
N620 C619 1.326 . S
N620 C624 1.362 . S
C621 C622 1.258 . S
C621 C624 1.431 . S
C621 C641 1.449 . S
C622 C621 1.258 . S
C622 C623 1.477 . S
C622 H642 0.931 . S
C623 C619 1.460 . S
C623 C622 1.477 . S
C623 H643 0.930 . S
C624 N620 1.362 . S
C624 C621 1.431 . S
C624 C634 1.476 . S
H625 C619 0.929 . S
C626 O617 1.250 . S
C626 O618 1.258 . S
O627 Mn612 2.162 . S
O627 C615 1.281 . S
O628 Mn612 2.297 . S
O628 C615 1.236 . S
N629 Mn613 2.282 . S
N629 C630 1.328 . S
N629 C634 1.318 . S
C630 N629 1.328 . S
C630 C631 1.457 . S
C630 H635 0.929 . S
C631 C630 1.457 . S
C631 C632 1.291 . S
C631 H644 0.931 . S
C632 C631 1.291 . S
C632 C633 1.373 . S
C632 H645 0.929 . S
C633 C632 1.373 . S
C633 C634 1.396 . S
C633 C640 1.403 . S
C634 C624 1.476 . S
C634 N629 1.318 . S
C634 C633 1.396 . S
H635 C630 0.929 . S
O636 Mn612 2.385 . S
O636 C614 1.234 . S
O637 Mn612 2.209 . S
O637 Mn613 2.215 . S
O637 C614 1.283 . S
O638 Mn612 2.094 . S
O638 C616 1.240 . S
O639 Mn613 2.117 . S
O639 C616 1.264 . S
C640 C633 1.403 . S
C640 C641 1.399 . S
C640 H646 0.929 . S
C641 C621 1.449 . S
C641 C640 1.399 . S
C641 H647 0.930 . S
H642 C622 0.931 . S
H643 C623 0.930 . S
H644 C631 0.931 . S
H645 C632 0.929 . S
H646 C640 0.929 . S
H647 C641 0.930 . S
Mn648 O653 2.095 . S
Mn648 O663 2.162 . S
Mn648 O664 2.297 . S
Mn648 O672 2.385 . S
Mn648 O673 2.209 . S
Mn648 O674 2.094 . S
Mn649 O654 2.121 . S
Mn649 N656 2.257 . S
Mn649 N665 2.282 . S
Mn649 O673 2.215 . S
Mn649 O675 2.117 . S
C650 O672 1.234 . S
C650 O673 1.283 . S
C651 O663 1.281 . S
C651 O664 1.236 . S
C652 O674 1.240 . S
C652 O675 1.264 . S
O653 Mn648 2.095 . S
O653 C662 1.250 . S
O654 Mn649 2.121 . S
O654 C662 1.258 . S
C655 N656 1.326 . S
C655 C659 1.460 . S
C655 H661 0.929 . S
N656 Mn649 2.257 . S
N656 C655 1.326 . S
N656 C660 1.362 . S
C657 C658 1.258 . S
C657 C660 1.431 . S
C657 C677 1.449 . S
C658 C657 1.258 . S
C658 C659 1.477 . S
C658 H678 0.931 . S
C659 C655 1.460 . S
C659 C658 1.477 . S
C659 H679 0.930 . S
C660 N656 1.362 . S
C660 C657 1.431 . S
C660 C670 1.476 . S
H661 C655 0.929 . S
C662 O653 1.250 . S
C662 O654 1.258 . S
O663 Mn648 2.162 . S
O663 C651 1.281 . S
O664 Mn648 2.297 . S
O664 C651 1.236 . S
N665 Mn649 2.282 . S
N665 C666 1.328 . S
N665 C670 1.318 . S
C666 N665 1.328 . S
C666 C667 1.457 . S
C666 H671 0.929 . S
C667 C666 1.457 . S
C667 C668 1.291 . S
C667 H680 0.931 . S
C668 C667 1.291 . S
C668 C669 1.373 . S
C668 H681 0.929 . S
C669 C668 1.373 . S
C669 C670 1.396 . S
C669 C676 1.403 . S
C670 C660 1.476 . S
C670 N665 1.318 . S
C670 C669 1.396 . S
H671 C666 0.929 . S
O672 Mn648 2.385 . S
O672 C650 1.234 . S
O673 Mn648 2.209 . S
O673 Mn649 2.215 . S
O673 C650 1.283 . S
O674 Mn648 2.094 . S
O674 C652 1.240 . S
O675 Mn649 2.117 . S
O675 C652 1.264 . S
C676 C669 1.403 . S
C676 C677 1.399 . S
C676 H682 0.929 . S
C677 C657 1.449 . S
C677 C676 1.399 . S
C677 H683 0.930 . S
H678 C658 0.931 . S
H679 C659 0.930 . S
H680 C667 0.931 . S
H681 C668 0.929 . S
H682 C676 0.929 . S
H683 C677 0.930 . S
Mn684 O689 2.095 . S
Mn684 O699 2.162 . S
Mn684 O700 2.297 . S
Mn684 O708 2.385 . S
Mn684 O709 2.209 . S
Mn684 O710 2.094 . S
Mn685 O690 2.121 . S
Mn685 N692 2.257 . S
Mn685 N701 2.282 . S
Mn685 O709 2.215 . S
Mn685 O711 2.117 . S
C686 O708 1.234 . S
C686 O709 1.283 . S
C687 O699 1.281 . S
C687 O700 1.236 . S
C688 O710 1.240 . S
C688 O711 1.264 . S
O689 Mn684 2.095 . S
O689 C698 1.250 . S
O690 Mn685 2.121 . S
O690 C698 1.258 . S
C691 N692 1.326 . S
C691 C695 1.460 . S
C691 H697 0.929 . S
N692 Mn685 2.257 . S
N692 C691 1.326 . S
N692 C696 1.362 . S
C693 C694 1.258 . S
C693 C696 1.431 . S
C693 C713 1.449 . S
C694 C693 1.258 . S
C694 C695 1.477 . S
C694 H714 0.931 . S
C695 C691 1.460 . S
C695 C694 1.477 . S
C695 H715 0.930 . S
C696 N692 1.362 . S
C696 C693 1.431 . S
C696 C706 1.476 . S
H697 C691 0.929 . S
C698 O689 1.250 . S
C698 O690 1.258 . S
O699 Mn684 2.162 . S
O699 C687 1.281 . S
O700 Mn684 2.297 . S
O700 C687 1.236 . S
N701 Mn685 2.282 . S
N701 C702 1.328 . S
N701 C706 1.318 . S
C702 N701 1.328 . S
C702 C703 1.457 . S
C702 H707 0.929 . S
C703 C702 1.457 . S
C703 C704 1.291 . S
C703 H716 0.931 . S
C704 C703 1.291 . S
C704 C705 1.373 . S
C704 H717 0.929 . S
C705 C704 1.373 . S
C705 C706 1.396 . S
C705 C712 1.403 . S
C706 C696 1.476 . S
C706 N701 1.318 . S
C706 C705 1.396 . S
H707 C702 0.929 . S
O708 Mn684 2.385 . S
O708 C686 1.234 . S
O709 Mn684 2.209 . S
O709 Mn685 2.215 . S
O709 C686 1.283 . S
O710 Mn684 2.094 . S
O710 C688 1.240 . S
O711 Mn685 2.117 . S
O711 C688 1.264 . S
C712 C705 1.403 . S
C712 C713 1.399 . S
C712 H718 0.929 . S
C713 C693 1.449 . S
C713 C712 1.399 . S
C713 H719 0.930 . S
H714 C694 0.931 . S
H715 C695 0.930 . S
H716 C703 0.931 . S
H717 C704 0.929 . S
H718 C712 0.929 . S
H719 C713 0.930 . S
Mn720 O725 2.095 . S
Mn720 O735 2.162 . S
Mn720 O736 2.297 . S
Mn720 O744 2.385 . S
Mn720 O745 2.209 . S
Mn720 O746 2.094 . S
Mn721 O726 2.121 . S
Mn721 N728 2.257 . S
Mn721 N737 2.282 . S
Mn721 O745 2.215 . S
Mn721 O747 2.117 . S
C722 O744 1.234 . S
C722 O745 1.283 . S
C723 O735 1.281 . S
C723 O736 1.236 . S
C724 O746 1.240 . S
C724 O747 1.264 . S
O725 Mn720 2.095 . S
O725 C734 1.250 . S
O726 Mn721 2.121 . S
O726 C734 1.258 . S
C727 N728 1.326 . S
C727 C731 1.460 . S
C727 H733 0.929 . S
N728 Mn721 2.257 . S
N728 C727 1.326 . S
N728 C732 1.362 . S
C729 C730 1.258 . S
C729 C732 1.431 . S
C729 C749 1.449 . S
C730 C729 1.258 . S
C730 C731 1.477 . S
C730 H750 0.931 . S
C731 C727 1.460 . S
C731 C730 1.477 . S
C731 H751 0.930 . S
C732 N728 1.362 . S
C732 C729 1.431 . S
C732 C742 1.476 . S
H733 C727 0.929 . S
C734 O725 1.250 . S
C734 O726 1.258 . S
O735 Mn720 2.162 . S
O735 C723 1.281 . S
O736 Mn720 2.297 . S
O736 C723 1.236 . S
N737 Mn721 2.282 . S
N737 C738 1.328 . S
N737 C742 1.318 . S
C738 N737 1.328 . S
C738 C739 1.457 . S
C738 H743 0.929 . S
C739 C738 1.457 . S
C739 C740 1.291 . S
C739 H752 0.931 . S
C740 C739 1.291 . S
C740 C741 1.373 . S
C740 H753 0.929 . S
C741 C740 1.373 . S
C741 C742 1.396 . S
C741 C748 1.403 . S
C742 C732 1.476 . S
C742 N737 1.318 . S
C742 C741 1.396 . S
H743 C738 0.929 . S
O744 Mn720 2.385 . S
O744 C722 1.234 . S
O745 Mn720 2.209 . S
O745 Mn721 2.215 . S
O745 C722 1.283 . S
O746 Mn720 2.094 . S
O746 C724 1.240 . S
O747 Mn721 2.117 . S
O747 C724 1.264 . S
C748 C741 1.403 . S
C748 C749 1.399 . S
C748 H754 0.929 . S
C749 C729 1.449 . S
C749 C748 1.399 . S
C749 H755 0.930 . S
H750 C730 0.931 . S
H751 C731 0.930 . S
H752 C739 0.931 . S
H753 C740 0.929 . S
H754 C748 0.929 . S
H755 C749 0.930 . S
Mn756 O761 2.095 . S
Mn756 O771 2.162 . S
Mn756 O772 2.297 . S
Mn756 O780 2.385 . S
Mn756 O781 2.209 . S
Mn756 O782 2.094 . S
Mn757 O762 2.121 . S
Mn757 N764 2.257 . S
Mn757 N773 2.282 . S
Mn757 O781 2.215 . S
Mn757 O783 2.117 . S
C758 O780 1.234 . S
C758 O781 1.283 . S
C759 O771 1.281 . S
C759 O772 1.236 . S
C760 O782 1.240 . S
C760 O783 1.264 . S
O761 Mn756 2.095 . S
O761 C770 1.250 . S
O762 Mn757 2.121 . S
O762 C770 1.258 . S
C763 N764 1.326 . S
C763 C767 1.460 . S
C763 H769 0.929 . S
N764 Mn757 2.257 . S
N764 C763 1.326 . S
N764 C768 1.362 . S
C765 C766 1.258 . S
C765 C768 1.431 . S
C765 C785 1.449 . S
C766 C765 1.258 . S
C766 C767 1.477 . S
C766 H786 0.931 . S
C767 C763 1.460 . S
C767 C766 1.477 . S
C767 H787 0.930 . S
C768 N764 1.362 . S
C768 C765 1.431 . S
C768 C778 1.476 . S
H769 C763 0.929 . S
C770 O761 1.250 . S
C770 O762 1.258 . S
O771 Mn756 2.162 . S
O771 C759 1.281 . S
O772 Mn756 2.297 . S
O772 C759 1.236 . S
N773 Mn757 2.282 . S
N773 C774 1.328 . S
N773 C778 1.318 . S
C774 N773 1.328 . S
C774 C775 1.457 . S
C774 H779 0.929 . S
C775 C774 1.457 . S
C775 C776 1.291 . S
C775 H788 0.931 . S
C776 C775 1.291 . S
C776 C777 1.373 . S
C776 H789 0.929 . S
C777 C776 1.373 . S
C777 C778 1.396 . S
C777 C784 1.403 . S
C778 C768 1.476 . S
C778 N773 1.318 . S
C778 C777 1.396 . S
H779 C774 0.929 . S
O780 Mn756 2.385 . S
O780 C758 1.234 . S
O781 Mn756 2.209 . S
O781 Mn757 2.215 . S
O781 C758 1.283 . S
O782 Mn756 2.094 . S
O782 C760 1.240 . S
O783 Mn757 2.117 . S
O783 C760 1.264 . S
C784 C777 1.403 . S
C784 C785 1.399 . S
C784 H790 0.929 . S
C785 C765 1.449 . S
C785 C784 1.399 . S
C785 H791 0.930 . S
H786 C766 0.931 . S
H787 C767 0.930 . S
H788 C775 0.931 . S
H789 C776 0.929 . S
H790 C784 0.929 . S
H791 C785 0.930 . S
Mn792 O797 2.095 . S
Mn792 O807 2.162 . S
Mn792 O808 2.297 . S
Mn792 O816 2.385 . S
Mn792 O817 2.209 . S
Mn792 O818 2.094 . S
Mn793 O798 2.121 . S
Mn793 N800 2.257 1_554 S
Mn793 N809 2.282 . S
Mn793 O817 2.215 . S
Mn793 O819 2.117 . S
C794 O816 1.234 . S
C794 O817 1.283 . S
C795 O807 1.281 . S
C795 O808 1.236 . S
C796 O818 1.240 . S
C796 O819 1.264 . S
O797 Mn792 2.095 . S
O797 C806 1.250 . S
O798 Mn793 2.121 . S
O798 C806 1.258 . S
C799 N800 1.326 . S
C799 C803 1.460 . S
C799 H805 0.929 . S
N800 Mn793 2.257 1_556 S
N800 C799 1.326 . S
N800 C804 1.362 . S
C801 C802 1.258 . S
C801 C804 1.431 . S
C801 C821 1.449 . S
C802 C801 1.258 . S
C802 C803 1.477 . S
C802 H822 0.931 . S
C803 C799 1.460 . S
C803 C802 1.477 . S
C803 H823 0.930 . S
C804 N800 1.362 . S
C804 C801 1.431 . S
C804 C814 1.476 . S
H805 C799 0.929 . S
C806 O797 1.250 . S
C806 O798 1.258 . S
O807 Mn792 2.162 . S
O807 C795 1.281 . S
O808 Mn792 2.297 . S
O808 C795 1.236 . S
N809 Mn793 2.282 . S
N809 C810 1.328 . S
N809 C814 1.318 1_554 S
C810 N809 1.328 . S
C810 C811 1.457 1_554 S
C810 H815 0.929 . S
C811 C810 1.457 1_556 S
C811 C812 1.291 . S
C811 H824 0.931 . S
C812 C811 1.291 . S
C812 C813 1.373 . S
C812 H825 0.929 . S
C813 C812 1.373 . S
C813 C814 1.396 . S
C813 C820 1.403 . S
C814 C804 1.476 . S
C814 N809 1.318 1_556 S
C814 C813 1.396 . S
H815 C810 0.929 . S
O816 Mn792 2.385 . S
O816 C794 1.234 . S
O817 Mn792 2.209 . S
O817 Mn793 2.215 . S
O817 C794 1.283 . S
O818 Mn792 2.094 . S
O818 C796 1.240 . S
O819 Mn793 2.117 . S
O819 C796 1.264 . S
C820 C813 1.403 . S
C820 C821 1.399 . S
C820 H826 0.929 . S
C821 C801 1.449 . S
C821 C820 1.399 . S
C821 H827 0.930 . S
H822 C802 0.931 . S
H823 C803 0.930 . S
H824 C811 0.931 . S
H825 C812 0.929 . S
H826 C820 0.929 . S
H827 C821 0.930 . S
Mn828 O833 2.095 . S
Mn828 O843 2.162 . S
Mn828 O844 2.297 . S
Mn828 O852 2.385 . S
Mn828 O853 2.209 . S
Mn828 O854 2.094 . S
Mn829 O834 2.121 . S
Mn829 N836 2.257 . S
Mn829 N845 2.282 . S
Mn829 O853 2.215 . S
Mn829 O855 2.117 . S
C830 O852 1.234 . S
C830 O853 1.283 . S
C831 O843 1.281 . S
C831 O844 1.236 . S
C832 O854 1.240 . S
C832 O855 1.264 . S
O833 Mn828 2.095 . S
O833 C842 1.250 . S
O834 Mn829 2.121 . S
O834 C842 1.258 . S
C835 N836 1.326 . S
C835 C839 1.460 . S
C835 H841 0.929 . S
N836 Mn829 2.257 . S
N836 C835 1.326 . S
N836 C840 1.362 . S
C837 C838 1.258 . S
C837 C840 1.431 . S
C837 C857 1.449 . S
C838 C837 1.258 . S
C838 C839 1.477 . S
C838 H858 0.931 . S
C839 C835 1.460 . S
C839 C838 1.477 . S
C839 H859 0.930 . S
C840 N836 1.362 . S
C840 C837 1.431 . S
C840 C850 1.476 . S
H841 C835 0.929 . S
C842 O833 1.250 . S
C842 O834 1.258 . S
O843 Mn828 2.162 . S
O843 C831 1.281 . S
O844 Mn828 2.297 . S
O844 C831 1.236 . S
N845 Mn829 2.282 . S
N845 C846 1.328 . S
N845 C850 1.318 . S
C846 N845 1.328 . S
C846 C847 1.457 . S
C846 H851 0.929 . S
C847 C846 1.457 . S
C847 C848 1.291 . S
C847 H860 0.931 . S
C848 C847 1.291 . S
C848 C849 1.373 . S
C848 H861 0.929 . S
C849 C848 1.373 . S
C849 C850 1.396 . S
C849 C856 1.403 . S
C850 C840 1.476 . S
C850 N845 1.318 . S
C850 C849 1.396 . S
H851 C846 0.929 . S
O852 Mn828 2.385 . S
O852 C830 1.234 . S
O853 Mn828 2.209 . S
O853 Mn829 2.215 . S
O853 C830 1.283 . S
O854 Mn828 2.094 . S
O854 C832 1.240 . S
O855 Mn829 2.117 . S
O855 C832 1.264 . S
C856 C849 1.403 . S
C856 C857 1.399 . S
C856 H862 0.929 . S
C857 C837 1.449 . S
C857 C856 1.399 . S
C857 H863 0.930 . S
H858 C838 0.931 . S
H859 C839 0.930 . S
H860 C847 0.931 . S
H861 C848 0.929 . S
H862 C856 0.929 . S
H863 C857 0.930 . S
Mn864 O869 2.095 . S
Mn864 O879 2.162 . S
Mn864 O880 2.297 . S
Mn864 O888 2.385 . S
Mn864 O889 2.209 . S
Mn864 O890 2.094 . S
Mn865 O870 2.121 . S
Mn865 N872 2.257 1_554 S
Mn865 N881 2.282 . S
Mn865 O889 2.215 . S
Mn865 O891 2.117 . S
C866 O888 1.234 . S
C866 O889 1.283 . S
C867 O879 1.281 . S
C867 O880 1.236 . S
C868 O890 1.240 . S
C868 O891 1.264 . S
O869 Mn864 2.095 . S
O869 C878 1.250 . S
O870 Mn865 2.121 . S
O870 C878 1.258 . S
C871 N872 1.326 . S
C871 C875 1.460 . S
C871 H877 0.929 . S
N872 Mn865 2.257 1_556 S
N872 C871 1.326 . S
N872 C876 1.362 . S
C873 C874 1.258 . S
C873 C876 1.431 . S
C873 C893 1.449 . S
C874 C873 1.258 . S
C874 C875 1.477 . S
C874 H894 0.931 . S
C875 C871 1.460 . S
C875 C874 1.477 . S
C875 H895 0.930 . S
C876 N872 1.362 . S
C876 C873 1.431 . S
C876 C886 1.476 . S
H877 C871 0.929 . S
C878 O869 1.250 . S
C878 O870 1.258 . S
O879 Mn864 2.162 . S
O879 C867 1.281 . S
O880 Mn864 2.297 . S
O880 C867 1.236 . S
N881 Mn865 2.282 . S
N881 C882 1.328 . S
N881 C886 1.318 1_554 S
C882 N881 1.328 . S
C882 C883 1.457 1_554 S
C882 H887 0.929 . S
C883 C882 1.457 1_556 S
C883 C884 1.291 . S
C883 H896 0.931 . S
C884 C883 1.291 . S
C884 C885 1.373 . S
C884 H897 0.929 . S
C885 C884 1.373 . S
C885 C886 1.396 . S
C885 C892 1.403 . S
C886 C876 1.476 . S
C886 N881 1.318 1_556 S
C886 C885 1.396 . S
H887 C882 0.929 . S
O888 Mn864 2.385 . S
O888 C866 1.234 . S
O889 Mn864 2.209 . S
O889 Mn865 2.215 . S
O889 C866 1.283 . S
O890 Mn864 2.094 . S
O890 C868 1.240 . S
O891 Mn865 2.117 . S
O891 C868 1.264 . S
C892 C885 1.403 . S
C892 C893 1.399 . S
C892 H898 0.929 . S
C893 C873 1.449 . S
C893 C892 1.399 . S
C893 H899 0.930 . S
H894 C874 0.931 . S
H895 C875 0.930 . S
H896 C883 0.931 . S
H897 C884 0.929 . S
H898 C892 0.929 . S
H899 C893 0.930 . S
Mn900 O905 2.095 . S
Mn900 O915 2.162 . S
Mn900 O916 2.297 . S
Mn900 O924 2.385 . S
Mn900 O925 2.209 . S
Mn900 O926 2.094 . S
Mn901 O906 2.121 . S
Mn901 N908 2.257 . S
Mn901 N917 2.282 . S
Mn901 O925 2.215 . S
Mn901 O927 2.117 . S
C902 O924 1.234 . S
C902 O925 1.283 . S
C903 O915 1.281 . S
C903 O916 1.236 . S
C904 O926 1.240 . S
C904 O927 1.264 . S
O905 Mn900 2.095 . S
O905 C914 1.250 . S
O906 Mn901 2.121 . S
O906 C914 1.258 . S
C907 N908 1.326 . S
C907 C911 1.460 . S
C907 H913 0.929 . S
N908 Mn901 2.257 . S
N908 C907 1.326 . S
N908 C912 1.362 . S
C909 C910 1.258 . S
C909 C912 1.431 . S
C909 C929 1.449 . S
C910 C909 1.258 . S
C910 C911 1.477 . S
C910 H930 0.931 . S
C911 C907 1.460 . S
C911 C910 1.477 . S
C911 H931 0.930 . S
C912 N908 1.362 . S
C912 C909 1.431 . S
C912 C922 1.476 . S
H913 C907 0.929 . S
C914 O905 1.250 . S
C914 O906 1.258 . S
O915 Mn900 2.162 . S
O915 C903 1.281 . S
O916 Mn900 2.297 . S
O916 C903 1.236 . S
N917 Mn901 2.282 . S
N917 C918 1.328 . S
N917 C922 1.318 . S
C918 N917 1.328 . S
C918 C919 1.457 . S
C918 H923 0.929 . S
C919 C918 1.457 . S
C919 C920 1.291 . S
C919 H932 0.931 . S
C920 C919 1.291 . S
C920 C921 1.373 . S
C920 H933 0.929 . S
C921 C920 1.373 . S
C921 C922 1.396 . S
C921 C928 1.403 . S
C922 C912 1.476 . S
C922 N917 1.318 . S
C922 C921 1.396 . S
H923 C918 0.929 . S
O924 Mn900 2.385 . S
O924 C902 1.234 . S
O925 Mn900 2.209 . S
O925 Mn901 2.215 . S
O925 C902 1.283 . S
O926 Mn900 2.094 . S
O926 C904 1.240 . S
O927 Mn901 2.117 . S
O927 C904 1.264 . S
C928 C921 1.403 . S
C928 C929 1.399 . S
C928 H934 0.929 . S
C929 C909 1.449 . S
C929 C928 1.399 . S
C929 H935 0.930 . S
H930 C910 0.931 . S
H931 C911 0.930 . S
H932 C919 0.931 . S
H933 C920 0.929 . S
H934 C928 0.929 . S
H935 C929 0.930 . S
Mn936 O941 2.095 . S
Mn936 O951 2.162 . S
Mn936 O952 2.297 . S
Mn936 O960 2.385 . S
Mn936 O961 2.209 . S
Mn936 O962 2.094 . S
Mn937 O942 2.121 . S
Mn937 N944 2.257 . S
Mn937 N953 2.282 . S
Mn937 O961 2.215 . S
Mn937 O963 2.117 . S
C938 O960 1.234 . S
C938 O961 1.283 . S
C939 O951 1.281 . S
C939 O952 1.236 . S
C940 O962 1.240 . S
C940 O963 1.264 . S
O941 Mn936 2.095 . S
O941 C950 1.250 . S
O942 Mn937 2.121 . S
O942 C950 1.258 . S
C943 N944 1.326 . S
C943 C947 1.460 . S
C943 H949 0.929 . S
N944 Mn937 2.257 . S
N944 C943 1.326 . S
N944 C948 1.362 . S
C945 C946 1.258 . S
C945 C948 1.431 . S
C945 C965 1.449 . S
C946 C945 1.258 . S
C946 C947 1.477 . S
C946 H966 0.931 . S
C947 C943 1.460 . S
C947 C946 1.477 . S
C947 H967 0.930 . S
C948 N944 1.362 . S
C948 C945 1.431 . S
C948 C958 1.476 . S
H949 C943 0.929 . S
C950 O941 1.250 . S
C950 O942 1.258 . S
O951 Mn936 2.162 . S
O951 C939 1.281 . S
O952 Mn936 2.297 . S
O952 C939 1.236 . S
N953 Mn937 2.282 . S
N953 C954 1.328 . S
N953 C958 1.318 . S
C954 N953 1.328 . S
C954 C955 1.457 . S
C954 H959 0.929 . S
C955 C954 1.457 . S
C955 C956 1.291 . S
C955 H968 0.931 . S
C956 C955 1.291 . S
C956 C957 1.373 . S
C956 H969 0.929 . S
C957 C956 1.373 . S
C957 C958 1.396 . S
C957 C964 1.403 . S
C958 C948 1.476 . S
C958 N953 1.318 . S
C958 C957 1.396 . S
H959 C954 0.929 . S
O960 Mn936 2.385 . S
O960 C938 1.234 . S
O961 Mn936 2.209 . S
O961 Mn937 2.215 . S
O961 C938 1.283 . S
O962 Mn936 2.094 . S
O962 C940 1.240 . S
O963 Mn937 2.117 . S
O963 C940 1.264 . S
C964 C957 1.403 . S
C964 C965 1.399 . S
C964 H970 0.929 . S
C965 C945 1.449 . S
C965 C964 1.399 . S
C965 H971 0.930 . S
H966 C946 0.931 . S
H967 C947 0.930 . S
H968 C955 0.931 . S
H969 C956 0.929 . S
H970 C964 0.929 . S
H971 C965 0.930 . S
Mn972 O977 2.095 . S
Mn972 O987 2.162 . S
Mn972 O988 2.297 . S
Mn972 O996 2.385 . S
Mn972 O997 2.209 . S
Mn972 O998 2.094 . S
Mn973 O978 2.121 . S
Mn973 N980 2.257 . S
Mn973 N989 2.282 . S
Mn973 O997 2.215 . S
Mn973 O999 2.117 . S
C974 O996 1.234 . S
C974 O997 1.283 . S
C975 O987 1.281 . S
C975 O988 1.236 . S
C976 O998 1.240 . S
C976 O999 1.264 . S
O977 Mn972 2.095 . S
O977 C986 1.250 . S
O978 Mn973 2.121 . S
O978 C986 1.258 . S
C979 N980 1.326 . S
C979 C983 1.460 . S
C979 H985 0.929 . S
N980 Mn973 2.257 . S
N980 C979 1.326 . S
N980 C984 1.362 . S
C981 C982 1.258 . S
C981 C984 1.431 . S
C981 C1001 1.449 . S
C982 C981 1.258 . S
C982 C983 1.477 . S
C982 H1002 0.931 . S
C983 C979 1.460 . S
C983 C982 1.477 . S
C983 H1003 0.930 . S
C984 N980 1.362 . S
C984 C981 1.431 . S
C984 C994 1.476 . S
H985 C979 0.929 . S
C986 O977 1.250 . S
C986 O978 1.258 . S
O987 Mn972 2.162 . S
O987 C975 1.281 . S
O988 Mn972 2.297 . S
O988 C975 1.236 . S
N989 Mn973 2.282 . S
N989 C990 1.328 . S
N989 C994 1.318 . S
C990 N989 1.328 . S
C990 C991 1.457 . S
C990 H995 0.929 . S
C991 C990 1.457 . S
C991 C992 1.291 . S
C991 H1004 0.931 . S
C992 C991 1.291 . S
C992 C993 1.373 . S
C992 H1005 0.929 . S
C993 C992 1.373 . S
C993 C994 1.396 . S
C993 C1000 1.403 . S
C994 C984 1.476 . S
C994 N989 1.318 . S
C994 C993 1.396 . S
H995 C990 0.929 . S
O996 Mn972 2.385 . S
O996 C974 1.234 . S
O997 Mn972 2.209 . S
O997 Mn973 2.215 . S
O997 C974 1.283 . S
O998 Mn972 2.094 . S
O998 C976 1.240 . S
O999 Mn973 2.117 . S
O999 C976 1.264 . S
C1000 C993 1.403 . S
C1000 C1001 1.399 . S
C1000 H1006 0.929 . S
C1001 C981 1.449 . S
C1001 C1000 1.399 . S
C1001 H1007 0.930 . S
H1002 C982 0.931 . S
H1003 C983 0.930 . S
H1004 C991 0.931 . S
H1005 C992 0.929 . S
H1006 C1000 0.929 . S
H1007 C1001 0.930 . S
Mn1008 O1013 2.095 . S
Mn1008 O1023 2.162 . S
Mn1008 O1024 2.297 . S
Mn1008 O1032 2.385 . S
Mn1008 O1033 2.209 . S
Mn1008 O1034 2.094 . S
Mn1009 O1014 2.121 . S
Mn1009 N1016 2.257 . S
Mn1009 N1025 2.282 . S
Mn1009 O1033 2.215 . S
Mn1009 O1035 2.117 . S
C1010 O1032 1.234 . S
C1010 O1033 1.283 . S
C1011 O1023 1.281 . S
C1011 O1024 1.236 . S
C1012 O1034 1.240 . S
C1012 O1035 1.264 . S
O1013 Mn1008 2.095 . S
O1013 C1022 1.250 . S
O1014 Mn1009 2.121 . S
O1014 C1022 1.258 . S
C1015 N1016 1.326 . S
C1015 C1019 1.460 . S
C1015 H1021 0.929 . S
N1016 Mn1009 2.257 . S
N1016 C1015 1.326 . S
N1016 C1020 1.362 . S
C1017 C1018 1.258 . S
C1017 C1020 1.431 . S
C1017 C1037 1.449 . S
C1018 C1017 1.258 . S
C1018 C1019 1.477 . S
C1018 H1038 0.931 . S
C1019 C1015 1.460 . S
C1019 C1018 1.477 . S
C1019 H1039 0.930 . S
C1020 N1016 1.362 . S
C1020 C1017 1.431 . S
C1020 C1030 1.476 . S
H1021 C1015 0.929 . S
C1022 O1013 1.250 . S
C1022 O1014 1.258 . S
O1023 Mn1008 2.162 . S
O1023 C1011 1.281 . S
O1024 Mn1008 2.297 . S
O1024 C1011 1.236 . S
N1025 Mn1009 2.282 . S
N1025 C1026 1.328 . S
N1025 C1030 1.318 . S
C1026 N1025 1.328 . S
C1026 C1027 1.457 . S
C1026 H1031 0.929 . S
C1027 C1026 1.457 . S
C1027 C1028 1.291 . S
C1027 H1040 0.931 . S
C1028 C1027 1.291 . S
C1028 C1029 1.373 . S
C1028 H1041 0.929 . S
C1029 C1028 1.373 . S
C1029 C1030 1.396 . S
C1029 C1036 1.403 . S
C1030 C1020 1.476 . S
C1030 N1025 1.318 . S
C1030 C1029 1.396 . S
H1031 C1026 0.929 . S
O1032 Mn1008 2.385 . S
O1032 C1010 1.234 . S
O1033 Mn1008 2.209 . S
O1033 Mn1009 2.215 . S
O1033 C1010 1.283 . S
O1034 Mn1008 2.094 . S
O1034 C1012 1.240 . S
O1035 Mn1009 2.117 . S
O1035 C1012 1.264 . S
C1036 C1029 1.403 . S
C1036 C1037 1.399 . S
C1036 H1042 0.929 . S
C1037 C1017 1.449 . S
C1037 C1036 1.399 . S
C1037 H1043 0.930 . S
H1038 C1018 0.931 . S
H1039 C1019 0.930 . S
H1040 C1027 0.931 . S
H1041 C1028 0.929 . S
H1042 C1036 0.929 . S
H1043 C1037 0.930 . S
Mn1044 O1049 2.095 . S
Mn1044 O1059 2.162 . S
Mn1044 O1060 2.297 . S
Mn1044 O1068 2.385 . S
Mn1044 O1069 2.209 . S
Mn1044 O1070 2.094 . S
Mn1045 O1050 2.121 . S
Mn1045 N1052 2.257 . S
Mn1045 N1061 2.282 . S
Mn1045 O1069 2.215 . S
Mn1045 O1071 2.117 . S
C1046 O1068 1.234 . S
C1046 O1069 1.283 . S
C1047 O1059 1.281 . S
C1047 O1060 1.236 . S
C1048 O1070 1.240 . S
C1048 O1071 1.264 . S
O1049 Mn1044 2.095 . S
O1049 C1058 1.250 . S
O1050 Mn1045 2.121 . S
O1050 C1058 1.258 . S
C1051 N1052 1.326 . S
C1051 C1055 1.460 . S
C1051 H1057 0.929 . S
N1052 Mn1045 2.257 . S
N1052 C1051 1.326 . S
N1052 C1056 1.362 . S
C1053 C1054 1.258 . S
C1053 C1056 1.431 . S
C1053 C1073 1.449 . S
C1054 C1053 1.258 . S
C1054 C1055 1.477 . S
C1054 H1074 0.931 . S
C1055 C1051 1.460 . S
C1055 C1054 1.477 . S
C1055 H1075 0.930 . S
C1056 N1052 1.362 . S
C1056 C1053 1.431 . S
C1056 C1066 1.476 . S
H1057 C1051 0.929 . S
C1058 O1049 1.250 . S
C1058 O1050 1.258 . S
O1059 Mn1044 2.162 . S
O1059 C1047 1.281 . S
O1060 Mn1044 2.297 . S
O1060 C1047 1.236 . S
N1061 Mn1045 2.282 . S
N1061 C1062 1.328 . S
N1061 C1066 1.318 . S
C1062 N1061 1.328 . S
C1062 C1063 1.457 . S
C1062 H1067 0.929 . S
C1063 C1062 1.457 . S
C1063 C1064 1.291 . S
C1063 H1076 0.931 . S
C1064 C1063 1.291 . S
C1064 C1065 1.373 . S
C1064 H1077 0.929 . S
C1065 C1064 1.373 . S
C1065 C1066 1.396 . S
C1065 C1072 1.403 . S
C1066 C1056 1.476 . S
C1066 N1061 1.318 . S
C1066 C1065 1.396 . S
H1067 C1062 0.929 . S
O1068 Mn1044 2.385 . S
O1068 C1046 1.234 . S
O1069 Mn1044 2.209 . S
O1069 Mn1045 2.215 . S
O1069 C1046 1.283 . S
O1070 Mn1044 2.094 . S
O1070 C1048 1.240 . S
O1071 Mn1045 2.117 . S
O1071 C1048 1.264 . S
C1072 C1065 1.403 . S
C1072 C1073 1.399 . S
C1072 H1078 0.929 . S
C1073 C1053 1.449 . S
C1073 C1072 1.399 . S
C1073 H1079 0.930 . S
H1074 C1054 0.931 . S
H1075 C1055 0.930 . S
H1076 C1063 0.931 . S
H1077 C1064 0.929 . S
H1078 C1072 0.929 . S
H1079 C1073 0.930 . S
Mn1080 O1085 2.095 . S
Mn1080 O1095 2.162 . S
Mn1080 O1096 2.297 . S
Mn1080 O1104 2.385 . S
Mn1080 O1105 2.209 . S
Mn1080 O1106 2.094 . S
Mn1081 O1086 2.121 . S
Mn1081 N1088 2.257 1_556 S
Mn1081 N1097 2.282 . S
Mn1081 O1105 2.215 . S
Mn1081 O1107 2.117 . S
C1082 O1104 1.234 . S
C1082 O1105 1.283 . S
C1083 O1095 1.281 . S
C1083 O1096 1.236 . S
C1084 O1106 1.240 . S
C1084 O1107 1.264 . S
O1085 Mn1080 2.095 . S
O1085 C1094 1.250 . S
O1086 Mn1081 2.121 . S
O1086 C1094 1.258 . S
C1087 N1088 1.326 . S
C1087 C1091 1.460 . S
C1087 H1093 0.929 . S
N1088 Mn1081 2.257 1_554 S
N1088 C1087 1.326 . S
N1088 C1092 1.362 . S
C1089 C1090 1.258 . S
C1089 C1092 1.431 . S
C1089 C1109 1.449 . S
C1090 C1089 1.258 . S
C1090 C1091 1.477 . S
C1090 H1110 0.931 . S
C1091 C1087 1.460 . S
C1091 C1090 1.477 . S
C1091 H1111 0.930 . S
C1092 N1088 1.362 . S
C1092 C1089 1.431 . S
C1092 C1102 1.476 . S
H1093 C1087 0.929 . S
C1094 O1085 1.250 . S
C1094 O1086 1.258 . S
O1095 Mn1080 2.162 . S
O1095 C1083 1.281 . S
O1096 Mn1080 2.297 . S
O1096 C1083 1.236 . S
N1097 Mn1081 2.282 . S
N1097 C1098 1.328 . S
N1097 C1102 1.318 1_556 S
C1098 N1097 1.328 . S
C1098 C1099 1.457 1_556 S
C1098 H1103 0.929 . S
C1099 C1098 1.457 1_554 S
C1099 C1100 1.291 . S
C1099 H1112 0.931 . S
C1100 C1099 1.291 . S
C1100 C1101 1.373 . S
C1100 H1113 0.929 . S
C1101 C1100 1.373 . S
C1101 C1102 1.396 . S
C1101 C1108 1.403 . S
C1102 C1092 1.476 . S
C1102 N1097 1.318 1_554 S
C1102 C1101 1.396 . S
H1103 C1098 0.929 . S
O1104 Mn1080 2.385 . S
O1104 C1082 1.234 . S
O1105 Mn1080 2.209 . S
O1105 Mn1081 2.215 . S
O1105 C1082 1.283 . S
O1106 Mn1080 2.094 . S
O1106 C1084 1.240 . S
O1107 Mn1081 2.117 . S
O1107 C1084 1.264 . S
C1108 C1101 1.403 . S
C1108 C1109 1.399 . S
C1108 H1114 0.929 . S
C1109 C1089 1.449 . S
C1109 C1108 1.399 . S
C1109 H1115 0.930 . S
H1110 C1090 0.931 . S
H1111 C1091 0.930 . S
H1112 C1099 0.931 . S
H1113 C1100 0.929 . S
H1114 C1108 0.929 . S
H1115 C1109 0.930 . S
Mn1116 O1121 2.095 . S
Mn1116 O1131 2.162 . S
Mn1116 O1132 2.297 . S
Mn1116 O1140 2.385 . S
Mn1116 O1141 2.209 . S
Mn1116 O1142 2.094 . S
Mn1117 O1122 2.121 . S
Mn1117 N1124 2.257 . S
Mn1117 N1133 2.282 . S
Mn1117 O1141 2.215 . S
Mn1117 O1143 2.117 . S
C1118 O1140 1.234 . S
C1118 O1141 1.283 . S
C1119 O1131 1.281 . S
C1119 O1132 1.236 . S
C1120 O1142 1.240 . S
C1120 O1143 1.264 . S
O1121 Mn1116 2.095 . S
O1121 C1130 1.250 . S
O1122 Mn1117 2.121 . S
O1122 C1130 1.258 . S
C1123 N1124 1.326 . S
C1123 C1127 1.460 . S
C1123 H1129 0.929 . S
N1124 Mn1117 2.257 . S
N1124 C1123 1.326 . S
N1124 C1128 1.362 . S
C1125 C1126 1.258 . S
C1125 C1128 1.431 . S
C1125 C1145 1.449 . S
C1126 C1125 1.258 . S
C1126 C1127 1.477 . S
C1126 H1146 0.931 . S
C1127 C1123 1.460 . S
C1127 C1126 1.477 . S
C1127 H1147 0.930 . S
C1128 N1124 1.362 . S
C1128 C1125 1.431 . S
C1128 C1138 1.476 . S
H1129 C1123 0.929 . S
C1130 O1121 1.250 . S
C1130 O1122 1.258 . S
O1131 Mn1116 2.162 . S
O1131 C1119 1.281 . S
O1132 Mn1116 2.297 . S
O1132 C1119 1.236 . S
N1133 Mn1117 2.282 . S
N1133 C1134 1.328 . S
N1133 C1138 1.318 . S
C1134 N1133 1.328 . S
C1134 C1135 1.457 . S
C1134 H1139 0.929 . S
C1135 C1134 1.457 . S
C1135 C1136 1.291 . S
C1135 H1148 0.931 . S
C1136 C1135 1.291 . S
C1136 C1137 1.373 . S
C1136 H1149 0.929 . S
C1137 C1136 1.373 . S
C1137 C1138 1.396 . S
C1137 C1144 1.403 . S
C1138 C1128 1.476 . S
C1138 N1133 1.318 . S
C1138 C1137 1.396 . S
H1139 C1134 0.929 . S
O1140 Mn1116 2.385 . S
O1140 C1118 1.234 . S
O1141 Mn1116 2.209 . S
O1141 Mn1117 2.215 . S
O1141 C1118 1.283 . S
O1142 Mn1116 2.094 . S
O1142 C1120 1.240 . S
O1143 Mn1117 2.117 . S
O1143 C1120 1.264 . S
C1144 C1137 1.403 . S
C1144 C1145 1.399 . S
C1144 H1150 0.929 . S
C1145 C1125 1.449 . S
C1145 C1144 1.399 . S
C1145 H1151 0.930 . S
H1146 C1126 0.931 . S
H1147 C1127 0.930 . S
H1148 C1135 0.931 . S
H1149 C1136 0.929 . S
H1150 C1144 0.929 . S
H1151 C1145 0.930 . S
H1152 C1160 0.950 . S
H1153 C1165 0.950 . S
H1154 C1162 0.950 . S
H1155 C1164 0.950 . S
H1156 C1166 0.950 . S
H1157 C1168 0.950 . S
H1158 C1170 0.950 . S
H1159 C1171 0.950 . S
C1160 H1152 0.950 . S
C1160 C1161 1.386 . S
C1160 C1162 1.391 . S
C1161 C1160 1.386 . S
C1161 C1165 1.393 . S
C1162 H1154 0.950 . S
C1162 C1160 1.391 . S
C1162 C1163 1.400 . S
C1163 C1162 1.400 . S
C1163 C1164 1.398 . S
C1163 C1169 1.491 1_545 S
C1164 H1155 0.950 . S
C1164 C1163 1.398 . S
C1164 C1165 1.391 . S
C1165 H1153 0.950 . S
C1165 C1161 1.393 . S
C1165 C1164 1.391 . S
C1166 H1156 0.950 . S
C1166 C1167 1.386 . S
C1166 C1168 1.391 . S
C1167 C1166 1.386 . S
C1167 C1171 1.393 . S
C1168 H1157 0.950 . S
C1168 C1166 1.391 . S
C1168 C1169 1.400 . S
C1169 C1163 1.491 1_565 S
C1169 C1168 1.400 . S
C1169 C1170 1.398 . S
C1170 H1158 0.950 . S
C1170 C1169 1.398 . S
C1170 C1171 1.391 . S
C1171 H1159 0.950 . S
C1171 C1167 1.393 . S
C1171 C1170 1.391 . S
H1172 C1180 0.950 . S
H1173 C1185 0.950 . S
H1174 C1182 0.950 . S
H1175 C1184 0.950 . S
H1176 C1186 0.950 . S
H1177 C1188 0.950 . S
H1178 C1190 0.950 . S
H1179 C1191 0.950 . S
C1180 H1172 0.950 . S
C1180 C1181 1.386 . S
C1180 C1182 1.391 . S
C1181 C1180 1.386 . S
C1181 C1185 1.393 . S
C1182 H1174 0.950 . S
C1182 C1180 1.391 . S
C1182 C1183 1.400 . S
C1183 C1182 1.400 . S
C1183 C1184 1.398 . S
C1183 C1189 1.491 . S
C1184 H1175 0.950 . S
C1184 C1183 1.398 . S
C1184 C1185 1.391 . S
C1185 H1173 0.950 . S
C1185 C1181 1.393 . S
C1185 C1184 1.391 . S
C1186 H1176 0.950 . S
C1186 C1187 1.386 . S
C1186 C1188 1.391 . S
C1187 C1186 1.386 . S
C1187 C1191 1.393 . S
C1188 H1177 0.950 . S
C1188 C1186 1.391 . S
C1188 C1189 1.400 . S
C1189 C1183 1.491 . S
C1189 C1188 1.400 . S
C1189 C1190 1.398 . S
C1190 H1178 0.950 . S
C1190 C1189 1.398 . S
C1190 C1191 1.391 . S
C1191 H1179 0.950 . S
C1191 C1187 1.393 . S
C1191 C1190 1.391 . S
H1192 C1200 0.950 . S
H1193 C1205 0.950 . S
H1194 C1202 0.950 . S
H1195 C1204 0.950 1_565 S
H1196 C1206 0.950 . S
H1197 C1208 0.950 . S
H1198 C1210 0.950 1_545 S
H1199 C1211 0.950 . S
C1200 H1192 0.950 . S
C1200 C1201 1.386 . S
C1200 C1202 1.391 . S
C1201 C1200 1.386 . S
C1201 C1205 1.393 . S
C1202 H1194 0.950 . S
C1202 C1200 1.391 . S
C1202 C1203 1.400 . S
C1203 C1202 1.400 . S
C1203 C1204 1.398 . S
C1203 C1209 1.491 1_545 S
C1204 H1195 0.950 1_545 S
C1204 C1203 1.398 . S
C1204 C1205 1.391 . S
C1205 H1193 0.950 . S
C1205 C1201 1.393 . S
C1205 C1204 1.391 . S
C1206 H1196 0.950 . S
C1206 C1207 1.386 . S
C1206 C1208 1.391 . S
C1207 C1206 1.386 . S
C1207 C1211 1.393 . S
C1208 H1197 0.950 . S
C1208 C1206 1.391 . S
C1208 C1209 1.400 . S
C1209 C1203 1.491 1_565 S
C1209 C1208 1.400 . S
C1209 C1210 1.398 . S
C1210 H1198 0.950 1_565 S
C1210 C1209 1.398 . S
C1210 C1211 1.391 . S
C1211 H1199 0.950 . S
C1211 C1207 1.393 . S
C1211 C1210 1.391 . S
H1212 C1220 0.950 . S
H1213 C1225 0.950 . S
H1214 C1222 0.950 1_554 S
H1215 C1224 0.950 . S
H1216 C1226 0.950 . S
H1217 C1228 0.950 1_556 S
H1218 C1230 0.950 . S
H1219 C1231 0.950 . S
C1220 H1212 0.950 . S
C1220 C1221 1.386 . S
C1220 C1222 1.391 . S
C1221 C1220 1.386 . S
C1221 C1225 1.393 . S
C1222 H1214 0.950 1_556 S
C1222 C1220 1.391 . S
C1222 C1223 1.400 . S
C1223 C1222 1.400 . S
C1223 C1224 1.398 . S
C1223 C1229 1.491 1_556 S
C1224 H1215 0.950 . S
C1224 C1223 1.398 . S
C1224 C1225 1.391 . S
C1225 H1213 0.950 . S
C1225 C1221 1.393 . S
C1225 C1224 1.391 . S
C1226 H1216 0.950 . S
C1226 C1227 1.386 . S
C1226 C1228 1.391 . S
C1227 C1226 1.386 . S
C1227 C1231 1.393 . S
C1228 H1217 0.950 1_554 S
C1228 C1226 1.391 . S
C1228 C1229 1.400 . S
C1229 C1223 1.491 1_554 S
C1229 C1228 1.400 . S
C1229 C1230 1.398 . S
C1230 H1218 0.950 . S
C1230 C1229 1.398 . S
C1230 C1231 1.391 . S
C1231 H1219 0.950 . S
C1231 C1227 1.393 . S
C1231 C1230 1.391 . S
H1232 C1240 0.950 . S
H1233 C1245 0.950 . S
H1234 C1242 0.950 . S
H1235 C1244 0.950 1_545 S
H1236 C1246 0.950 . S
H1237 C1248 0.950 . S
H1238 C1250 0.950 1_565 S
H1239 C1251 0.950 . S
C1240 H1232 0.950 . S
C1240 C1241 1.386 . S
C1240 C1242 1.391 . S
C1241 C1240 1.386 . S
C1241 C1245 1.393 . S
C1242 H1234 0.950 . S
C1242 C1240 1.391 . S
C1242 C1243 1.400 . S
C1243 C1242 1.400 . S
C1243 C1244 1.398 . S
C1243 C1249 1.491 1_565 S
C1244 H1235 0.950 1_565 S
C1244 C1243 1.398 . S
C1244 C1245 1.391 . S
C1245 H1233 0.950 . S
C1245 C1241 1.393 . S
C1245 C1244 1.391 . S
C1246 H1236 0.950 . S
C1246 C1247 1.386 . S
C1246 C1248 1.391 . S
C1247 C1246 1.386 . S
C1247 C1251 1.393 . S
C1248 H1237 0.950 . S
C1248 C1246 1.391 . S
C1248 C1249 1.400 . S
C1249 C1243 1.491 1_545 S
C1249 C1248 1.400 . S
C1249 C1250 1.398 . S
C1250 H1238 0.950 1_545 S
C1250 C1249 1.398 . S
C1250 C1251 1.391 . S
C1251 H1239 0.950 . S
C1251 C1247 1.393 . S
C1251 C1250 1.391 . S
H1252 C1260 0.950 . S
H1253 C1265 0.950 . S
H1254 C1262 0.950 . S
H1255 C1264 0.950 . S
H1256 C1266 0.950 . S
H1257 C1268 0.950 . S
H1258 C1270 0.950 . S
H1259 C1271 0.950 . S
C1260 H1252 0.950 . S
C1260 C1261 1.386 . S
C1260 C1262 1.391 . S
C1261 C1260 1.386 . S
C1261 C1265 1.393 . S
C1262 H1254 0.950 . S
C1262 C1260 1.391 . S
C1262 C1263 1.400 . S
C1263 C1262 1.400 . S
C1263 C1264 1.398 . S
C1263 C1269 1.491 . S
C1264 H1255 0.950 . S
C1264 C1263 1.398 . S
C1264 C1265 1.391 . S
C1265 H1253 0.950 . S
C1265 C1261 1.393 . S
C1265 C1264 1.391 . S
C1266 H1256 0.950 . S
C1266 C1267 1.386 . S
C1266 C1268 1.391 . S
C1267 C1266 1.386 . S
C1267 C1271 1.393 . S
C1268 H1257 0.950 . S
C1268 C1266 1.391 . S
C1268 C1269 1.400 . S
C1269 C1263 1.491 . S
C1269 C1268 1.400 . S
C1269 C1270 1.398 . S
C1270 H1258 0.950 . S
C1270 C1269 1.398 . S
C1270 C1271 1.391 . S
C1271 H1259 0.950 . S
C1271 C1267 1.393 . S
C1271 C1270 1.391 . S
H1272 C1280 0.950 . S
H1273 C1285 0.950 . S
H1274 C1282 0.941 1_545 S
H1275 C1284 0.950 . S
H1276 C1286 0.950 . S
H1277 C1288 0.941 1_565 S
H1278 C1290 0.950 . S
H1279 C1291 0.950 . S
C1280 H1272 0.950 . S
C1280 C1281 1.386 . S
C1280 C1282 1.391 . S
C1281 C1280 1.386 . S
C1281 C1285 1.393 . S
C1282 H1274 0.941 1_565 S
C1282 C1280 1.391 . S
C1282 C1283 1.400 . S
C1283 C1282 1.400 . S
C1283 C1284 1.398 . S
C1283 C1289 1.491 1_565 S
C1284 H1275 0.950 . S
C1284 C1283 1.398 . S
C1284 C1285 1.391 . S
C1285 H1273 0.950 . S
C1285 C1281 1.393 . S
C1285 C1284 1.391 . S
C1286 H1276 0.950 . S
C1286 C1287 1.386 . S
C1286 C1288 1.391 . S
C1287 C1286 1.386 . S
C1287 C1291 1.393 . S
C1288 H1277 0.941 1_545 S
C1288 C1286 1.391 . S
C1288 C1289 1.400 . S
C1289 C1283 1.491 1_545 S
C1289 C1288 1.400 . S
C1289 C1290 1.398 . S
C1290 H1278 0.950 . S
C1290 C1289 1.398 . S
C1290 C1291 1.391 . S
C1291 H1279 0.950 . S
C1291 C1287 1.393 . S
C1291 C1290 1.391 . S
H1292 C1300 0.950 . S
H1293 C1305 0.950 . S
H1294 C1302 0.950 1_554 S
H1295 C1304 0.950 . S
H1296 C1306 0.950 . S
H1297 C1308 0.950 1_556 S
H1298 C1310 0.950 . S
H1299 C1311 0.950 . S
C1300 H1292 0.950 . S
C1300 C1301 1.386 . S
C1300 C1302 1.391 . S
C1301 C1300 1.386 . S
C1301 C1305 1.393 . S
C1302 H1294 0.950 1_556 S
C1302 C1300 1.391 . S
C1302 C1303 1.400 . S
C1303 C1302 1.400 . S
C1303 C1304 1.398 . S
C1303 C1309 1.491 1_556 S
C1304 H1295 0.950 . S
C1304 C1303 1.398 . S
C1304 C1305 1.391 . S
C1305 H1293 0.950 . S
C1305 C1301 1.393 . S
C1305 C1304 1.391 . S
C1306 H1296 0.950 . S
C1306 C1307 1.386 . S
C1306 C1308 1.391 . S
C1307 C1306 1.386 . S
C1307 C1311 1.393 . S
C1308 H1297 0.950 1_554 S
C1308 C1306 1.391 . S
C1308 C1309 1.400 . S
C1309 C1303 1.491 1_554 S
C1309 C1308 1.400 . S
C1309 C1310 1.398 . S
C1310 H1298 0.950 . S
C1310 C1309 1.398 . S
C1310 C1311 1.391 . S
C1311 H1299 0.950 . S
C1311 C1307 1.393 . S
C1311 C1310 1.391 . S
H1312 C1320 0.950 . S
H1313 C1325 0.950 . S
H1314 C1322 0.950 . S
H1315 C1324 0.950 . S
H1316 C1326 0.950 . S
H1317 C1328 0.950 . S
H1318 C1330 0.950 . S
H1319 C1331 0.950 . S
C1320 H1312 0.950 . S
C1320 C1321 1.386 . S
C1320 C1322 1.391 . S
C1321 C1320 1.386 . S
C1321 C1325 1.393 . S
C1322 H1314 0.950 . S
C1322 C1320 1.391 . S
C1322 C1323 1.400 . S
C1323 C1322 1.400 . S
C1323 C1324 1.398 . S
C1323 C1329 1.491 . S
C1324 H1315 0.950 . S
C1324 C1323 1.398 . S
C1324 C1325 1.391 . S
C1325 H1313 0.950 . S
C1325 C1321 1.393 . S
C1325 C1324 1.391 . S
C1326 H1316 0.950 . S
C1326 C1327 1.386 . S
C1326 C1328 1.391 . S
C1327 C1326 1.386 . S
C1327 C1331 1.393 . S
C1328 H1317 0.950 . S
C1328 C1326 1.391 . S
C1328 C1329 1.400 . S
C1329 C1323 1.491 . S
C1329 C1328 1.400 . S
C1329 C1330 1.398 . S
C1330 H1318 0.950 . S
C1330 C1329 1.398 . S
C1330 C1331 1.391 . S
C1331 H1319 0.950 . S
C1331 C1327 1.393 . S
C1331 C1330 1.391 . S
H1332 C1340 0.950 . S
H1333 C1345 0.950 . S
H1334 C1342 0.950 1_554 S
H1335 C1344 0.950 . S
H1336 C1346 0.950 . S
H1337 C1348 0.950 1_556 S
H1338 C1350 0.950 . S
H1339 C1351 0.950 . S
C1340 H1332 0.950 . S
C1340 C1341 1.386 . S
C1340 C1342 1.391 . S
C1341 C1340 1.386 . S
C1341 C1345 1.393 . S
C1342 H1334 0.950 1_556 S
C1342 C1340 1.391 . S
C1342 C1343 1.400 . S
C1343 C1342 1.400 . S
C1343 C1344 1.398 . S
C1343 C1349 1.491 1_556 S
C1344 H1335 0.950 . S
C1344 C1343 1.398 . S
C1344 C1345 1.391 . S
C1345 H1333 0.950 . S
C1345 C1341 1.393 . S
C1345 C1344 1.391 . S
C1346 H1336 0.950 . S
C1346 C1347 1.386 . S
C1346 C1348 1.391 . S
C1347 C1346 1.386 . S
C1347 C1351 1.393 . S
C1348 H1337 0.950 1_554 S
C1348 C1346 1.391 . S
C1348 C1349 1.400 . S
C1349 C1343 1.491 1_554 S
C1349 C1348 1.400 . S
C1349 C1350 1.398 . S
C1350 H1338 0.950 . S
C1350 C1349 1.398 . S
C1350 C1351 1.391 . S
C1351 H1339 0.950 . S
C1351 C1347 1.393 . S
C1351 C1350 1.391 . S
H1352 C1360 0.950 . S
H1353 C1365 0.950 . S
H1354 C1362 0.950 . S
H1355 C1364 0.950 . S
H1356 C1366 0.950 . S
H1357 C1368 0.950 . S
H1358 C1370 0.950 . S
H1359 C1371 0.950 . S
C1360 H1352 0.950 . S
C1360 C1361 1.386 . S
C1360 C1362 1.391 . S
C1361 C1360 1.386 . S
C1361 C1365 1.393 . S
C1362 H1354 0.950 . S
C1362 C1360 1.391 . S
C1362 C1363 1.400 . S
C1363 C1362 1.400 . S
C1363 C1364 1.398 . S
C1363 C1369 1.491 . S
C1364 H1355 0.950 . S
C1364 C1363 1.398 . S
C1364 C1365 1.391 . S
C1365 H1353 0.950 . S
C1365 C1361 1.393 . S
C1365 C1364 1.391 . S
C1366 H1356 0.950 . S
C1366 C1367 1.386 . S
C1366 C1368 1.391 . S
C1367 C1366 1.386 . S
C1367 C1371 1.393 . S
C1368 H1357 0.950 . S
C1368 C1366 1.391 . S
C1368 C1369 1.400 . S
C1369 C1363 1.491 . S
C1369 C1368 1.400 . S
C1369 C1370 1.398 . S
C1370 H1358 0.950 . S
C1370 C1369 1.398 . S
C1370 C1371 1.391 . S
C1371 H1359 0.950 . S
C1371 C1367 1.393 . S
C1371 C1370 1.391 . S
H1372 C1380 0.950 . S
H1373 C1385 0.950 . S
H1374 C1382 0.950 . S
H1375 C1384 0.950 . S
H1376 C1386 0.950 . S
H1377 C1388 0.950 . S
H1378 C1390 0.950 . S
H1379 C1391 0.950 . S
C1380 H1372 0.950 . S
C1380 C1381 1.386 . S
C1380 C1382 1.391 . S
C1381 C1380 1.386 . S
C1381 C1385 1.393 . S
C1382 H1374 0.950 . S
C1382 C1380 1.391 . S
C1382 C1383 1.400 . S
C1383 C1382 1.400 . S
C1383 C1384 1.398 . S
C1383 C1389 1.491 . S
C1384 H1375 0.950 . S
C1384 C1383 1.398 . S
C1384 C1385 1.391 . S
C1385 H1373 0.950 . S
C1385 C1381 1.393 . S
C1385 C1384 1.391 . S
C1386 H1376 0.950 . S
C1386 C1387 1.386 . S
C1386 C1388 1.391 . S
C1387 C1386 1.386 . S
C1387 C1391 1.393 . S
C1388 H1377 0.950 . S
C1388 C1386 1.391 . S
C1388 C1389 1.400 . S
C1389 C1383 1.491 . S
C1389 C1388 1.400 . S
C1389 C1390 1.398 . S
C1390 H1378 0.950 . S
C1390 C1389 1.398 . S
C1390 C1391 1.391 . S
C1391 H1379 0.950 . S
C1391 C1387 1.393 . S
C1391 C1390 1.391 . S
H1392 C1400 0.950 . S
H1393 C1405 0.950 . S
H1394 C1402 0.950 . S
H1395 C1404 0.950 . S
H1396 C1406 0.950 . S
H1397 C1408 0.950 . S
H1398 C1410 0.950 . S
H1399 C1411 0.950 . S
C1400 H1392 0.950 . S
C1400 C1401 1.386 . S
C1400 C1402 1.391 . S
C1401 C1400 1.386 . S
C1401 C1405 1.393 . S
C1402 H1394 0.950 . S
C1402 C1400 1.391 . S
C1402 C1403 1.400 . S
C1403 C1402 1.400 . S
C1403 C1404 1.398 . S
C1403 C1409 1.491 . S
C1404 H1395 0.950 . S
C1404 C1403 1.398 . S
C1404 C1405 1.391 . S
C1405 H1393 0.950 . S
C1405 C1401 1.393 . S
C1405 C1404 1.391 . S
C1406 H1396 0.950 . S
C1406 C1407 1.386 . S
C1406 C1408 1.391 . S
C1407 C1406 1.386 . S
C1407 C1411 1.393 . S
C1408 H1397 0.950 . S
C1408 C1406 1.391 . S
C1408 C1409 1.400 . S
C1409 C1403 1.491 . S
C1409 C1408 1.400 . S
C1409 C1410 1.398 . S
C1410 H1398 0.950 . S
C1410 C1409 1.398 . S
C1410 C1411 1.391 . S
C1411 H1399 0.950 . S
C1411 C1407 1.393 . S
C1411 C1410 1.391 . S
H1412 C1420 0.950 . S
H1413 C1425 0.950 . S
H1414 C1422 0.950 1_556 S
H1415 C1424 0.950 . S
H1416 C1426 0.950 . S
H1417 C1428 0.950 1_554 S
H1418 C1430 0.950 . S
H1419 C1431 0.950 . S
C1420 H1412 0.950 . S
C1420 C1421 1.386 . S
C1420 C1422 1.391 . S
C1421 C1420 1.386 . S
C1421 C1425 1.393 . S
C1422 H1414 0.950 1_554 S
C1422 C1420 1.391 . S
C1422 C1423 1.400 . S
C1423 C1422 1.400 . S
C1423 C1424 1.398 . S
C1423 C1429 1.491 1_554 S
C1424 H1415 0.950 . S
C1424 C1423 1.398 . S
C1424 C1425 1.391 . S
C1425 H1413 0.950 . S
C1425 C1421 1.393 . S
C1425 C1424 1.391 . S
C1426 H1416 0.950 . S
C1426 C1427 1.386 . S
C1426 C1428 1.391 . S
C1427 C1426 1.386 . S
C1427 C1431 1.393 . S
C1428 H1417 0.950 1_556 S
C1428 C1426 1.391 . S
C1428 C1429 1.400 . S
C1429 C1423 1.491 1_556 S
C1429 C1428 1.400 . S
C1429 C1430 1.398 . S
C1430 H1418 0.950 . S
C1430 C1429 1.398 . S
C1430 C1431 1.391 . S
C1431 H1419 0.950 . S
C1431 C1427 1.393 . S
C1431 C1430 1.391 . S
H1432 C1440 0.950 . S
H1433 C1445 0.950 . S
H1434 C1442 0.950 . S
H1435 C1444 0.950 . S
H1436 C1446 0.950 . S
H1437 C1448 0.950 . S
H1438 C1450 0.950 . S
H1439 C1451 0.950 . S
C1440 H1432 0.950 . S
C1440 C1441 1.386 . S
C1440 C1442 1.391 . S
C1441 C1440 1.386 . S
C1441 C1445 1.393 . S
C1442 H1434 0.950 . S
C1442 C1440 1.391 . S
C1442 C1443 1.400 . S
C1443 C1442 1.400 . S
C1443 C1444 1.398 . S
C1443 C1449 1.491 . S
C1444 H1435 0.950 . S
C1444 C1443 1.398 . S
C1444 C1445 1.391 . S
C1445 H1433 0.950 . S
C1445 C1441 1.393 . S
C1445 C1444 1.391 . S
C1446 H1436 0.950 . S
C1446 C1447 1.386 . S
C1446 C1448 1.391 . S
C1447 C1446 1.386 . S
C1447 C1451 1.393 . S
C1448 H1437 0.950 . S
C1448 C1446 1.391 . S
C1448 C1449 1.400 . S
C1449 C1443 1.491 . S
C1449 C1448 1.400 . S
C1449 C1450 1.398 . S
C1450 H1438 0.950 . S
C1450 C1449 1.398 . S
C1450 C1451 1.391 . S
C1451 H1439 0.950 . S
C1451 C1447 1.393 . S
C1451 C1450 1.391 . S
H1452 C1460 0.950 . S
H1453 C1465 0.950 . S
H1454 C1462 0.950 . S
H1455 C1464 0.950 . S
H1456 C1466 0.950 . S
H1457 C1468 0.950 . S
H1458 C1470 0.950 . S
H1459 C1471 0.950 . S
C1460 H1452 0.950 . S
C1460 C1461 1.386 . S
C1460 C1462 1.391 . S
C1461 C1460 1.386 . S
C1461 C1465 1.393 . S
C1462 H1454 0.950 . S
C1462 C1460 1.391 . S
C1462 C1463 1.400 . S
C1463 C1462 1.400 . S
C1463 C1464 1.398 . S
C1463 C1469 1.491 . S
C1464 H1455 0.950 . S
C1464 C1463 1.398 . S
C1464 C1465 1.391 . S
C1465 H1453 0.950 . S
C1465 C1461 1.393 . S
C1465 C1464 1.391 . S
C1466 H1456 0.950 . S
C1466 C1467 1.386 . S
C1466 C1468 1.391 . S
C1467 C1466 1.386 . S
C1467 C1471 1.393 . S
C1468 H1457 0.950 . S
C1468 C1466 1.391 . S
C1468 C1469 1.400 . S
C1469 C1463 1.491 . S
C1469 C1468 1.400 . S
C1469 C1470 1.398 . S
C1470 H1458 0.950 . S
C1470 C1469 1.398 . S
C1470 C1471 1.391 . S
C1471 H1459 0.950 . S
C1471 C1467 1.393 . S
C1471 C1470 1.391 . S
H1472 C1480 0.950 . S
H1473 C1485 0.950 . S
H1474 C1482 0.950 . S
H1475 C1484 0.950 . S
H1476 C1486 0.950 . S
H1477 C1488 0.950 . S
H1478 C1490 0.950 . S
H1479 C1491 0.950 . S
C1480 H1472 0.950 . S
C1480 C1481 1.386 . S
C1480 C1482 1.391 . S
C1481 C1480 1.386 . S
C1481 C1485 1.393 . S
C1482 H1474 0.950 . S
C1482 C1480 1.391 . S
C1482 C1483 1.400 . S
C1483 C1482 1.400 . S
C1483 C1484 1.398 . S
C1483 C1489 1.491 . S
C1484 H1475 0.950 . S
C1484 C1483 1.398 . S
C1484 C1485 1.391 . S
C1485 H1473 0.950 . S
C1485 C1481 1.393 . S
C1485 C1484 1.391 . S
C1486 H1476 0.950 . S
C1486 C1487 1.386 . S
C1486 C1488 1.391 . S
C1487 C1486 1.386 . S
C1487 C1491 1.393 . S
C1488 H1477 0.950 . S
C1488 C1486 1.391 . S
C1488 C1489 1.400 . S
C1489 C1483 1.491 . S
C1489 C1488 1.400 . S
C1489 C1490 1.398 . S
C1490 H1478 0.950 . S
C1490 C1489 1.398 . S
C1490 C1491 1.391 . S
C1491 H1479 0.950 . S
C1491 C1487 1.393 . S
C1491 C1490 1.391 . S
H1492 C1500 0.950 . S
H1493 C1505 0.950 . S
H1494 C1502 0.950 . S
H1495 C1504 0.950 . S
H1496 C1506 0.950 . S
H1497 C1508 0.950 . S
H1498 C1510 0.950 . S
H1499 C1511 0.950 . S
C1500 H1492 0.950 . S
C1500 C1501 1.386 . S
C1500 C1502 1.391 . S
C1501 C1500 1.386 . S
C1501 C1505 1.393 . S
C1502 H1494 0.950 . S
C1502 C1500 1.391 . S
C1502 C1503 1.400 . S
C1503 C1502 1.400 . S
C1503 C1504 1.398 . S
C1503 C1509 1.491 1_655 S
C1504 H1495 0.950 . S
C1504 C1503 1.398 . S
C1504 C1505 1.391 . S
C1505 H1493 0.950 . S
C1505 C1501 1.393 . S
C1505 C1504 1.391 . S
C1506 H1496 0.950 . S
C1506 C1507 1.386 . S
C1506 C1508 1.391 . S
C1507 C1506 1.386 . S
C1507 C1511 1.393 . S
C1508 H1497 0.950 . S
C1508 C1506 1.391 . S
C1508 C1509 1.400 . S
C1509 C1503 1.491 1_455 S
C1509 C1508 1.400 . S
C1509 C1510 1.398 . S
C1510 H1498 0.950 . S
C1510 C1509 1.398 . S
C1510 C1511 1.391 . S
C1511 H1499 0.950 . S
C1511 C1507 1.393 . S
C1511 C1510 1.391 . S
H1512 C1520 0.950 . S
H1513 C1525 0.950 . S
H1514 C1522 0.950 . S
H1515 C1524 0.950 . S
H1516 C1526 0.950 . S
H1517 C1528 0.950 . S
H1518 C1530 0.950 . S
H1519 C1531 0.950 . S
C1520 H1512 0.950 . S
C1520 C1521 1.386 . S
C1520 C1522 1.391 . S
C1521 C1520 1.386 . S
C1521 C1525 1.393 . S
C1522 H1514 0.950 . S
C1522 C1520 1.391 . S
C1522 C1523 1.400 . S
C1523 C1522 1.400 . S
C1523 C1524 1.398 . S
C1523 C1529 1.491 . S
C1524 H1515 0.950 . S
C1524 C1523 1.398 . S
C1524 C1525 1.391 . S
C1525 H1513 0.950 . S
C1525 C1521 1.393 . S
C1525 C1524 1.391 . S
C1526 H1516 0.950 . S
C1526 C1527 1.386 . S
C1526 C1528 1.391 . S
C1527 C1526 1.386 . S
C1527 C1531 1.393 . S
C1528 H1517 0.950 . S
C1528 C1526 1.391 . S
C1528 C1529 1.400 . S
C1529 C1523 1.491 . S
C1529 C1528 1.400 . S
C1529 C1530 1.398 . S
C1530 H1518 0.950 . S
C1530 C1529 1.398 . S
C1530 C1531 1.391 . S
C1531 H1519 0.950 . S
C1531 C1527 1.393 . S
C1531 C1530 1.391 . S
H1532 C1540 0.950 . S
H1533 C1545 0.950 . S
H1534 C1542 0.950 . S
H1535 C1544 0.950 . S
H1536 C1546 0.950 . S
H1537 C1548 0.950 . S
H1538 C1550 0.950 . S
H1539 C1551 0.950 . S
C1540 H1532 0.950 . S
C1540 C1541 1.386 . S
C1540 C1542 1.391 . S
C1541 C1540 1.386 . S
C1541 C1545 1.393 . S
C1542 H1534 0.950 . S
C1542 C1540 1.391 . S
C1542 C1543 1.400 . S
C1543 C1542 1.400 . S
C1543 C1544 1.398 . S
C1543 C1549 1.491 . S
C1544 H1535 0.950 . S
C1544 C1543 1.398 . S
C1544 C1545 1.391 . S
C1545 H1533 0.950 . S
C1545 C1541 1.393 . S
C1545 C1544 1.391 . S
C1546 H1536 0.950 . S
C1546 C1547 1.386 . S
C1546 C1548 1.391 . S
C1547 C1546 1.386 . S
C1547 C1551 1.393 . S
C1548 H1537 0.950 . S
C1548 C1546 1.391 . S
C1548 C1549 1.400 . S
C1549 C1543 1.491 . S
C1549 C1548 1.400 . S
C1549 C1550 1.398 . S
C1550 H1538 0.950 . S
C1550 C1549 1.398 . S
C1550 C1551 1.391 . S
C1551 H1539 0.950 . S
C1551 C1547 1.393 . S
C1551 C1550 1.391 . S
H1552 C1560 0.950 . S
H1553 C1565 0.950 . S
H1554 C1562 0.950 . S
H1555 C1564 0.950 . S
H1556 C1566 0.950 . S
H1557 C1568 0.950 . S
H1558 C1570 0.950 . S
H1559 C1571 0.950 . S
C1560 H1552 0.950 . S
C1560 C1561 1.386 . S
C1560 C1562 1.391 . S
C1561 C1560 1.386 . S
C1561 C1565 1.393 . S
C1562 H1554 0.950 . S
C1562 C1560 1.391 . S
C1562 C1563 1.400 . S
C1563 C1562 1.400 . S
C1563 C1564 1.398 . S
C1563 C1569 1.491 . S
C1564 H1555 0.950 . S
C1564 C1563 1.398 . S
C1564 C1565 1.391 . S
C1565 H1553 0.950 . S
C1565 C1561 1.393 . S
C1565 C1564 1.391 . S
C1566 H1556 0.950 . S
C1566 C1567 1.386 . S
C1566 C1568 1.391 . S
C1567 C1566 1.386 . S
C1567 C1571 1.393 . S
C1568 H1557 0.950 . S
C1568 C1566 1.391 . S
C1568 C1569 1.400 . S
C1569 C1563 1.491 . S
C1569 C1568 1.400 . S
C1569 C1570 1.398 . S
C1570 H1558 0.950 . S
C1570 C1569 1.398 . S
C1570 C1571 1.391 . S
C1571 H1559 0.950 . S
C1571 C1567 1.393 . S
C1571 C1570 1.391 . S
H1572 C1580 0.950 . S
H1573 C1585 0.950 . S
H1574 C1582 0.950 . S
H1575 C1584 0.950 . S
H1576 C1586 0.950 . S
H1577 C1588 0.950 . S
H1578 C1590 0.950 . S
H1579 C1591 0.950 . S
C1580 H1572 0.950 . S
C1580 C1581 1.386 . S
C1580 C1582 1.391 . S
C1581 C1580 1.386 . S
C1581 C1585 1.393 . S
C1582 H1574 0.950 . S
C1582 C1580 1.391 . S
C1582 C1583 1.400 . S
C1583 C1582 1.400 . S
C1583 C1584 1.398 . S
C1583 C1589 1.491 . S
C1584 H1575 0.950 . S
C1584 C1583 1.398 . S
C1584 C1585 1.391 . S
C1585 H1573 0.950 . S
C1585 C1581 1.393 . S
C1585 C1584 1.391 . S
C1586 H1576 0.950 . S
C1586 C1587 1.386 . S
C1586 C1588 1.391 . S
C1587 C1586 1.386 . S
C1587 C1591 1.393 . S
C1588 H1577 0.950 . S
C1588 C1586 1.391 . S
C1588 C1589 1.400 . S
C1589 C1583 1.491 . S
C1589 C1588 1.400 . S
C1589 C1590 1.398 . S
C1590 H1578 0.950 . S
C1590 C1589 1.398 . S
C1590 C1591 1.391 . S
C1591 H1579 0.950 . S
C1591 C1587 1.393 . S
C1591 C1590 1.391 . S
H1592 C1600 0.950 . S
H1593 C1605 0.950 . S
H1594 C1602 0.950 . S
H1595 C1604 0.950 . S
H1596 C1606 0.950 . S
H1597 C1608 0.950 . S
H1598 C1610 0.950 . S
H1599 C1611 0.950 . S
C1600 H1592 0.950 . S
C1600 C1601 1.386 . S
C1600 C1602 1.391 . S
C1601 C1600 1.386 . S
C1601 C1605 1.393 . S
C1602 H1594 0.950 . S
C1602 C1600 1.391 . S
C1602 C1603 1.400 . S
C1603 C1602 1.400 . S
C1603 C1604 1.398 . S
C1603 C1609 1.491 . S
C1604 H1595 0.950 . S
C1604 C1603 1.398 . S
C1604 C1605 1.391 . S
C1605 H1593 0.950 . S
C1605 C1601 1.393 . S
C1605 C1604 1.391 . S
C1606 H1596 0.950 . S
C1606 C1607 1.386 . S
C1606 C1608 1.391 . S
C1607 C1606 1.386 . S
C1607 C1611 1.393 . S
C1608 H1597 0.950 . S
C1608 C1606 1.391 . S
C1608 C1609 1.400 . S
C1609 C1603 1.491 . S
C1609 C1608 1.400 . S
C1609 C1610 1.398 . S
C1610 H1598 0.950 . S
C1610 C1609 1.398 . S
C1610 C1611 1.391 . S
C1611 H1599 0.950 . S
C1611 C1607 1.393 . S
C1611 C1610 1.391 . S
H1612 C1620 0.950 . S
H1613 C1625 0.950 . S
H1614 C1622 0.950 . S
H1615 C1624 0.950 . S
H1616 C1626 0.950 . S
H1617 C1628 0.950 . S
H1618 C1630 0.950 . S
H1619 C1631 0.950 . S
C1620 H1612 0.950 . S
C1620 C1621 1.386 . S
C1620 C1622 1.391 . S
C1621 C1620 1.386 . S
C1621 C1625 1.393 . S
C1622 H1614 0.950 . S
C1622 C1620 1.391 . S
C1622 C1623 1.400 . S
C1623 C1622 1.400 . S
C1623 C1624 1.398 . S
C1623 C1629 1.491 1_455 S
C1624 H1615 0.950 . S
C1624 C1623 1.398 . S
C1624 C1625 1.391 . S
C1625 H1613 0.950 . S
C1625 C1621 1.393 . S
C1625 C1624 1.391 . S
C1626 H1616 0.950 . S
C1626 C1627 1.386 . S
C1626 C1628 1.391 . S
C1627 C1626 1.386 . S
C1627 C1631 1.393 . S
C1628 H1617 0.950 . S
C1628 C1626 1.391 . S
C1628 C1629 1.400 . S
C1629 C1623 1.491 1_655 S
C1629 C1628 1.400 . S
C1629 C1630 1.398 . S
C1630 H1618 0.950 . S
C1630 C1629 1.398 . S
C1630 C1631 1.391 . S
C1631 H1619 0.950 . S
C1631 C1627 1.393 . S
C1631 C1630 1.391 . S
H1632 C1640 0.950 . S
H1633 C1645 0.950 . S
H1634 C1642 0.950 . S
H1635 C1644 0.950 . S
H1636 C1646 0.950 . S
H1637 C1648 0.950 . S
H1638 C1650 0.950 . S
H1639 C1651 0.950 . S
C1640 H1632 0.950 . S
C1640 C1641 1.386 . S
C1640 C1642 1.391 . S
C1641 C1640 1.386 . S
C1641 C1645 1.393 . S
C1642 H1634 0.950 . S
C1642 C1640 1.391 . S
C1642 C1643 1.400 . S
C1643 C1642 1.400 . S
C1643 C1644 1.398 . S
C1643 C1649 1.491 . S
C1644 H1635 0.950 . S
C1644 C1643 1.398 . S
C1644 C1645 1.391 . S
C1645 H1633 0.950 . S
C1645 C1641 1.393 . S
C1645 C1644 1.391 . S
C1646 H1636 0.950 . S
C1646 C1647 1.386 . S
C1646 C1648 1.391 . S
C1647 C1646 1.386 . S
C1647 C1651 1.393 . S
C1648 H1637 0.950 . S
C1648 C1646 1.391 . S
C1648 C1649 1.400 . S
C1649 C1643 1.491 . S
C1649 C1648 1.400 . S
C1649 C1650 1.398 . S
C1650 H1638 0.950 . S
C1650 C1649 1.398 . S
C1650 C1651 1.391 . S
C1651 H1639 0.950 . S
C1651 C1647 1.393 . S
C1651 C1650 1.391 . S
H1652 C1660 0.950 . S
H1653 C1665 0.950 . S
H1654 C1662 0.950 . S
H1655 C1664 0.950 . S
H1656 C1666 0.950 . S
H1657 C1668 0.950 . S
H1658 C1670 0.950 . S
H1659 C1671 0.950 . S
C1660 H1652 0.950 . S
C1660 C1661 1.386 . S
C1660 C1662 1.391 . S
C1661 C1660 1.386 . S
C1661 C1665 1.393 . S
C1662 H1654 0.950 . S
C1662 C1660 1.391 . S
C1662 C1663 1.400 . S
C1663 C1662 1.400 . S
C1663 C1664 1.398 . S
C1663 C1669 1.491 1_655 S
C1664 H1655 0.950 . S
C1664 C1663 1.398 . S
C1664 C1665 1.391 . S
C1665 H1653 0.950 . S
C1665 C1661 1.393 . S
C1665 C1664 1.391 . S
C1666 H1656 0.950 . S
C1666 C1667 1.386 . S
C1666 C1668 1.391 . S
C1667 C1666 1.386 . S
C1667 C1671 1.393 . S
C1668 H1657 0.950 . S
C1668 C1666 1.391 . S
C1668 C1669 1.400 . S
C1669 C1663 1.491 1_455 S
C1669 C1668 1.400 . S
C1669 C1670 1.398 . S
C1670 H1658 0.950 . S
C1670 C1669 1.398 . S
C1670 C1671 1.391 . S
C1671 H1659 0.950 . S
C1671 C1667 1.393 . S
C1671 C1670 1.391 . S
H1672 C1680 0.950 . S
H1673 C1685 0.950 . S
H1674 C1682 0.950 . S
H1675 C1684 0.950 . S
H1676 C1686 0.950 . S
H1677 C1688 0.950 . S
H1678 C1690 0.950 . S
H1679 C1691 0.950 . S
C1680 H1672 0.950 . S
C1680 C1681 1.386 . S
C1680 C1682 1.391 . S
C1681 C1680 1.386 . S
C1681 C1685 1.393 . S
C1682 H1674 0.950 . S
C1682 C1680 1.391 . S
C1682 C1683 1.400 . S
C1683 C1682 1.400 . S
C1683 C1684 1.398 . S
C1683 C1689 1.491 . S
C1684 H1675 0.950 . S
C1684 C1683 1.398 . S
C1684 C1685 1.391 . S
C1685 H1673 0.950 . S
C1685 C1681 1.393 . S
C1685 C1684 1.391 . S
C1686 H1676 0.950 . S
C1686 C1687 1.386 . S
C1686 C1688 1.391 . S
C1687 C1686 1.386 . S
C1687 C1691 1.393 . S
C1688 H1677 0.950 . S
C1688 C1686 1.391 . S
C1688 C1689 1.400 . S
C1689 C1683 1.491 . S
C1689 C1688 1.400 . S
C1689 C1690 1.398 . S
C1690 H1678 0.950 . S
C1690 C1689 1.398 . S
C1690 C1691 1.391 . S
C1691 H1679 0.950 . S
C1691 C1687 1.393 . S
C1691 C1690 1.391 . S
H1692 C1700 0.950 . S
H1693 C1705 0.950 . S
H1694 C1702 0.950 . S
H1695 C1704 0.950 . S
H1696 C1706 0.950 . S
H1697 C1708 0.950 . S
H1698 C1710 0.950 . S
H1699 C1711 0.950 . S
C1700 H1692 0.950 . S
C1700 C1701 1.386 . S
C1700 C1702 1.391 . S
C1701 C1700 1.386 . S
C1701 C1705 1.393 . S
C1702 H1694 0.950 . S
C1702 C1700 1.391 . S
C1702 C1703 1.400 . S
C1703 C1702 1.400 . S
C1703 C1704 1.398 . S
C1703 C1709 1.491 . S
C1704 H1695 0.950 . S
C1704 C1703 1.398 . S
C1704 C1705 1.391 . S
C1705 H1693 0.950 . S
C1705 C1701 1.393 . S
C1705 C1704 1.391 . S
C1706 H1696 0.950 . S
C1706 C1707 1.386 . S
C1706 C1708 1.391 . S
C1707 C1706 1.386 . S
C1707 C1711 1.393 . S
C1708 H1697 0.950 . S
C1708 C1706 1.391 . S
C1708 C1709 1.400 . S
C1709 C1703 1.491 . S
C1709 C1708 1.400 . S
C1709 C1710 1.398 . S
C1710 H1698 0.950 . S
C1710 C1709 1.398 . S
C1710 C1711 1.391 . S
C1711 H1699 0.950 . S
C1711 C1707 1.393 . S
C1711 C1710 1.391 . S
H1712 C1720 0.950 . S
H1713 C1725 0.950 . S
H1714 C1722 0.950 . S
H1715 C1724 0.950 . S
H1716 C1726 0.950 . S
H1717 C1728 0.950 . S
H1718 C1730 0.950 . S
H1719 C1731 0.950 . S
C1720 H1712 0.950 . S
C1720 C1721 1.386 . S
C1720 C1722 1.391 . S
C1721 C1720 1.386 . S
C1721 C1725 1.393 . S
C1722 H1714 0.950 . S
C1722 C1720 1.391 . S
C1722 C1723 1.400 . S
C1723 C1722 1.400 . S
C1723 C1724 1.398 . S
C1723 C1729 1.491 . S
C1724 H1715 0.950 . S
C1724 C1723 1.398 . S
C1724 C1725 1.391 . S
C1725 H1713 0.950 . S
C1725 C1721 1.393 . S
C1725 C1724 1.391 . S
C1726 H1716 0.950 . S
C1726 C1727 1.386 . S
C1726 C1728 1.391 . S
C1727 C1726 1.386 . S
C1727 C1731 1.393 . S
C1728 H1717 0.950 . S
C1728 C1726 1.391 . S
C1728 C1729 1.400 . S
C1729 C1723 1.491 . S
C1729 C1728 1.400 . S
C1729 C1730 1.398 . S
C1730 H1718 0.950 . S
C1730 C1729 1.398 . S
C1730 C1731 1.391 . S
C1731 H1719 0.950 . S
C1731 C1727 1.393 . S
C1731 C1730 1.391 . S
H1732 C1740 0.950 . S
H1733 C1745 0.950 . S
H1734 C1742 0.950 . S
H1735 C1744 0.950 . S
H1736 C1746 0.950 . S
H1737 C1748 0.950 . S
H1738 C1750 0.950 . S
H1739 C1751 0.950 . S
C1740 H1732 0.950 . S
C1740 C1741 1.386 . S
C1740 C1742 1.391 . S
C1741 C1740 1.386 . S
C1741 C1745 1.393 . S
C1742 H1734 0.950 . S
C1742 C1740 1.391 . S
C1742 C1743 1.400 . S
C1743 C1742 1.400 . S
C1743 C1744 1.398 . S
C1743 C1749 1.491 . S
C1744 H1735 0.950 . S
C1744 C1743 1.398 . S
C1744 C1745 1.391 . S
C1745 H1733 0.950 . S
C1745 C1741 1.393 . S
C1745 C1744 1.391 . S
C1746 H1736 0.950 . S
C1746 C1747 1.386 . S
C1746 C1748 1.391 . S
C1747 C1746 1.386 . S
C1747 C1751 1.393 . S
C1748 H1737 0.950 . S
C1748 C1746 1.391 . S
C1748 C1749 1.400 . S
C1749 C1743 1.491 . S
C1749 C1748 1.400 . S
C1749 C1750 1.398 . S
C1750 H1738 0.950 . S
C1750 C1749 1.398 . S
C1750 C1751 1.391 . S
C1751 H1739 0.950 . S
C1751 C1747 1.393 . S
C1751 C1750 1.391 . S
H1752 C1760 0.950 . S
H1753 C1765 0.950 . S
H1754 C1762 0.950 . S
H1755 C1764 0.950 . S
H1756 C1766 0.950 . S
H1757 C1768 0.950 . S
H1758 C1770 0.950 . S
H1759 C1771 0.950 . S
C1760 H1752 0.950 . S
C1760 C1761 1.386 . S
C1760 C1762 1.391 . S
C1761 C1760 1.386 . S
C1761 C1765 1.393 . S
C1762 H1754 0.950 . S
C1762 C1760 1.391 . S
C1762 C1763 1.400 . S
C1763 C1762 1.400 . S
C1763 C1764 1.398 . S
C1763 C1769 1.491 . S
C1764 H1755 0.950 . S
C1764 C1763 1.398 . S
C1764 C1765 1.391 . S
C1765 H1753 0.950 . S
C1765 C1761 1.393 . S
C1765 C1764 1.391 . S
C1766 H1756 0.950 . S
C1766 C1767 1.386 . S
C1766 C1768 1.391 . S
C1767 C1766 1.386 . S
C1767 C1771 1.393 . S
C1768 H1757 0.950 . S
C1768 C1766 1.391 . S
C1768 C1769 1.400 . S
C1769 C1763 1.491 . S
C1769 C1768 1.400 . S
C1769 C1770 1.398 . S
C1770 H1758 0.950 . S
C1770 C1769 1.398 . S
C1770 C1771 1.391 . S
C1771 H1759 0.950 . S
C1771 C1767 1.393 . S
C1771 C1770 1.391 . S
H1772 C1780 0.950 . S
H1773 C1785 0.950 . S
H1774 C1782 0.950 . S
H1775 C1784 0.950 . S
H1776 C1786 0.950 . S
H1777 C1788 0.950 . S
H1778 C1790 0.950 . S
H1779 C1791 0.950 . S
C1780 H1772 0.950 . S
C1780 C1781 1.386 . S
C1780 C1782 1.391 . S
C1781 C1780 1.386 . S
C1781 C1785 1.393 . S
C1782 H1774 0.950 . S
C1782 C1780 1.391 . S
C1782 C1783 1.400 . S
C1783 C1782 1.400 . S
C1783 C1784 1.398 . S
C1783 C1789 1.491 1_655 S
C1784 H1775 0.950 . S
C1784 C1783 1.398 . S
C1784 C1785 1.391 . S
C1785 H1773 0.950 . S
C1785 C1781 1.393 . S
C1785 C1784 1.391 . S
C1786 H1776 0.950 . S
C1786 C1787 1.386 . S
C1786 C1788 1.391 . S
C1787 C1786 1.386 . S
C1787 C1791 1.393 . S
C1788 H1777 0.950 . S
C1788 C1786 1.391 . S
C1788 C1789 1.400 . S
C1789 C1783 1.491 1_455 S
C1789 C1788 1.400 . S
C1789 C1790 1.398 . S
C1790 H1778 0.950 . S
C1790 C1789 1.398 . S
C1790 C1791 1.391 . S
C1791 H1779 0.950 . S
C1791 C1787 1.393 . S
C1791 C1790 1.391 . S
H1792 C1800 0.950 . S
H1793 C1805 0.950 . S
H1794 C1802 0.950 . S
H1795 C1804 0.950 . S
H1796 C1806 0.950 . S
H1797 C1808 0.950 . S
H1798 C1810 0.950 . S
H1799 C1811 0.950 . S
C1800 H1792 0.950 . S
C1800 C1801 1.386 . S
C1800 C1802 1.391 . S
C1801 C1800 1.386 . S
C1801 C1805 1.393 . S
C1802 H1794 0.950 . S
C1802 C1800 1.391 . S
C1802 C1803 1.400 . S
C1803 C1802 1.400 . S
C1803 C1804 1.398 . S
C1803 C1809 1.491 . S
C1804 H1795 0.950 . S
C1804 C1803 1.398 . S
C1804 C1805 1.391 . S
C1805 H1793 0.950 . S
C1805 C1801 1.393 . S
C1805 C1804 1.391 . S
C1806 H1796 0.950 . S
C1806 C1807 1.386 . S
C1806 C1808 1.391 . S
C1807 C1806 1.386 . S
C1807 C1811 1.393 . S
C1808 H1797 0.950 . S
C1808 C1806 1.391 . S
C1808 C1809 1.400 . S
C1809 C1803 1.491 . S
C1809 C1808 1.400 . S
C1809 C1810 1.398 . S
C1810 H1798 0.950 . S
C1810 C1809 1.398 . S
C1810 C1811 1.391 . S
C1811 H1799 0.950 . S
C1811 C1807 1.393 . S
C1811 C1810 1.391 . S
H1812 C1820 0.950 . S
H1813 C1825 0.950 . S
H1814 C1822 0.950 . S
H1815 C1824 0.950 . S
H1816 C1826 0.950 . S
H1817 C1828 0.950 . S
H1818 C1830 0.950 . S
H1819 C1831 0.950 . S
C1820 H1812 0.950 . S
C1820 C1821 1.386 . S
C1820 C1822 1.391 . S
C1821 C1820 1.386 . S
C1821 C1825 1.393 . S
C1822 H1814 0.950 . S
C1822 C1820 1.391 . S
C1822 C1823 1.400 . S
C1823 C1822 1.400 . S
C1823 C1824 1.398 . S
C1823 C1829 1.491 . S
C1824 H1815 0.950 . S
C1824 C1823 1.398 . S
C1824 C1825 1.391 . S
C1825 H1813 0.950 . S
C1825 C1821 1.393 . S
C1825 C1824 1.391 . S
C1826 H1816 0.950 . S
C1826 C1827 1.386 . S
C1826 C1828 1.391 . S
C1827 C1826 1.386 . S
C1827 C1831 1.393 . S
C1828 H1817 0.950 . S
C1828 C1826 1.391 . S
C1828 C1829 1.400 . S
C1829 C1823 1.491 . S
C1829 C1828 1.400 . S
C1829 C1830 1.398 . S
C1830 H1818 0.950 . S
C1830 C1829 1.398 . S
C1830 C1831 1.391 . S
C1831 H1819 0.950 . S
C1831 C1827 1.393 . S
C1831 C1830 1.391 . S
H1832 C1840 0.950 . S
H1833 C1845 0.950 . S
H1834 C1842 0.950 . S
H1835 C1844 0.950 . S
H1836 C1846 0.950 . S
H1837 C1848 0.950 . S
H1838 C1850 0.950 . S
H1839 C1851 0.950 . S
C1840 H1832 0.950 . S
C1840 C1841 1.386 . S
C1840 C1842 1.391 . S
C1841 C1840 1.386 . S
C1841 C1845 1.393 . S
C1842 H1834 0.950 . S
C1842 C1840 1.391 . S
C1842 C1843 1.400 . S
C1843 C1842 1.400 . S
C1843 C1844 1.398 . S
C1843 C1849 1.491 . S
C1844 H1835 0.950 . S
C1844 C1843 1.398 . S
C1844 C1845 1.391 . S
C1845 H1833 0.950 . S
C1845 C1841 1.393 . S
C1845 C1844 1.391 . S
C1846 H1836 0.950 . S
C1846 C1847 1.386 . S
C1846 C1848 1.391 . S
C1847 C1846 1.386 . S
C1847 C1851 1.393 . S
C1848 H1837 0.950 . S
C1848 C1846 1.391 . S
C1848 C1849 1.400 . S
C1849 C1843 1.491 . S
C1849 C1848 1.400 . S
C1849 C1850 1.398 . S
C1850 H1838 0.950 . S
C1850 C1849 1.398 . S
C1850 C1851 1.391 . S
C1851 H1839 0.950 . S
C1851 C1847 1.393 . S
C1851 C1850 1.391 . S
H1852 C1860 0.950 . S
H1853 C1865 0.950 . S
H1854 C1862 0.950 . S
H1855 C1864 0.950 . S
H1856 C1866 0.950 . S
H1857 C1868 0.950 . S
H1858 C1870 0.950 . S
H1859 C1871 0.950 . S
C1860 H1852 0.950 . S
C1860 C1861 1.386 . S
C1860 C1862 1.391 . S
C1861 C1860 1.386 . S
C1861 C1865 1.393 . S
C1862 H1854 0.950 . S
C1862 C1860 1.391 . S
C1862 C1863 1.400 . S
C1863 C1862 1.400 . S
C1863 C1864 1.398 . S
C1863 C1869 1.491 1_655 S
C1864 H1855 0.950 . S
C1864 C1863 1.398 . S
C1864 C1865 1.391 . S
C1865 H1853 0.950 . S
C1865 C1861 1.393 . S
C1865 C1864 1.391 . S
C1866 H1856 0.950 . S
C1866 C1867 1.386 . S
C1866 C1868 1.391 . S
C1867 C1866 1.386 . S
C1867 C1871 1.393 . S
C1868 H1857 0.950 . S
C1868 C1866 1.391 . S
C1868 C1869 1.400 . S
C1869 C1863 1.491 1_455 S
C1869 C1868 1.400 . S
C1869 C1870 1.398 . S
C1870 H1858 0.950 . S
C1870 C1869 1.398 . S
C1870 C1871 1.391 . S
C1871 H1859 0.950 . S
C1871 C1867 1.393 . S
C1871 C1870 1.391 . S
H1872 C1880 0.950 . S
H1873 C1885 0.950 . S
H1874 C1882 0.950 . S
H1875 C1884 0.950 . S
H1876 C1886 0.950 . S
H1877 C1888 0.950 . S
H1878 C1890 0.950 . S
H1879 C1891 0.950 . S
C1880 H1872 0.950 . S
C1880 C1881 1.386 . S
C1880 C1882 1.391 . S
C1881 C1880 1.386 . S
C1881 C1885 1.393 . S
C1882 H1874 0.950 . S
C1882 C1880 1.391 . S
C1882 C1883 1.400 . S
C1883 C1882 1.400 . S
C1883 C1884 1.398 . S
C1883 C1889 1.491 . S
C1884 H1875 0.950 . S
C1884 C1883 1.398 . S
C1884 C1885 1.391 . S
C1885 H1873 0.950 . S
C1885 C1881 1.393 . S
C1885 C1884 1.391 . S
C1886 H1876 0.950 . S
C1886 C1887 1.386 . S
C1886 C1888 1.391 . S
C1887 C1886 1.386 . S
C1887 C1891 1.393 . S
C1888 H1877 0.950 . S
C1888 C1886 1.391 . S
C1888 C1889 1.400 . S
C1889 C1883 1.491 . S
C1889 C1888 1.400 . S
C1889 C1890 1.398 . S
C1890 H1878 0.950 . S
C1890 C1889 1.398 . S
C1890 C1891 1.391 . S
C1891 H1879 0.950 . S
C1891 C1887 1.393 . S
C1891 C1890 1.391 . S
H1892 C1900 0.950 . S
H1893 C1905 0.950 . S
H1894 C1902 0.950 . S
H1895 C1904 0.950 . S
H1896 C1906 0.950 . S
H1897 C1908 0.950 . S
H1898 C1910 0.950 . S
H1899 C1911 0.950 . S
C1900 H1892 0.950 . S
C1900 C1901 1.386 . S
C1900 C1902 1.391 . S
C1901 C1900 1.386 . S
C1901 C1905 1.393 . S
C1902 H1894 0.950 . S
C1902 C1900 1.391 . S
C1902 C1903 1.400 . S
C1903 C1902 1.400 . S
C1903 C1904 1.398 . S
C1903 C1909 1.491 1_455 S
C1904 H1895 0.950 . S
C1904 C1903 1.398 . S
C1904 C1905 1.391 . S
C1905 H1893 0.950 . S
C1905 C1901 1.393 . S
C1905 C1904 1.391 . S
C1906 H1896 0.950 . S
C1906 C1907 1.386 . S
C1906 C1908 1.391 . S
C1907 C1906 1.386 . S
C1907 C1911 1.393 . S
C1908 H1897 0.950 . S
C1908 C1906 1.391 . S
C1908 C1909 1.400 . S
C1909 C1903 1.491 1_655 S
C1909 C1908 1.400 . S
C1909 C1910 1.398 . S
C1910 H1898 0.950 . S
C1910 C1909 1.398 . S
C1910 C1911 1.391 . S
C1911 H1899 0.950 . S
C1911 C1907 1.393 . S
C1911 C1910 1.391 . S
H1912 C1920 0.950 . S
H1913 C1925 0.950 . S
H1914 C1922 0.950 . S
H1915 C1924 0.950 . S
H1916 C1926 0.950 . S
H1917 C1928 0.950 . S
H1918 C1930 0.950 . S
H1919 C1931 0.950 . S
C1920 H1912 0.950 . S
C1920 C1921 1.386 . S
C1920 C1922 1.391 . S
C1921 C1920 1.386 . S
C1921 C1925 1.393 . S
C1922 H1914 0.950 . S
C1922 C1920 1.391 . S
C1922 C1923 1.400 . S
C1923 C1922 1.400 . S
C1923 C1924 1.398 . S
C1923 C1929 1.491 . S
C1924 H1915 0.950 . S
C1924 C1923 1.398 . S
C1924 C1925 1.391 . S
C1925 H1913 0.950 . S
C1925 C1921 1.393 . S
C1925 C1924 1.391 . S
C1926 H1916 0.950 . S
C1926 C1927 1.386 . S
C1926 C1928 1.391 . S
C1927 C1926 1.386 . S
C1927 C1931 1.393 . S
C1928 H1917 0.950 . S
C1928 C1926 1.391 . S
C1928 C1929 1.400 . S
C1929 C1923 1.491 . S
C1929 C1928 1.400 . S
C1929 C1930 1.398 . S
C1930 H1918 0.950 . S
C1930 C1929 1.398 . S
C1930 C1931 1.391 . S
C1931 H1919 0.950 . S
C1931 C1927 1.393 . S
C1931 C1930 1.391 . S
H1932 C1940 0.950 . S
H1933 C1945 0.950 . S
H1934 C1942 0.950 . S
H1935 C1944 0.950 . S
H1936 C1946 0.950 . S
H1937 C1948 0.950 . S
H1938 C1950 0.950 . S
H1939 C1951 0.950 . S
C1940 H1932 0.950 . S
C1940 C1941 1.386 . S
C1940 C1942 1.391 . S
C1941 C1940 1.386 . S
C1941 C1945 1.393 . S
C1942 H1934 0.950 . S
C1942 C1940 1.391 . S
C1942 C1943 1.400 . S
C1943 C1942 1.400 . S
C1943 C1944 1.398 . S
C1943 C1949 1.491 . S
C1944 H1935 0.950 . S
C1944 C1943 1.398 . S
C1944 C1945 1.391 . S
C1945 H1933 0.950 . S
C1945 C1941 1.393 . S
C1945 C1944 1.391 . S
C1946 H1936 0.950 . S
C1946 C1947 1.386 . S
C1946 C1948 1.391 . S
C1947 C1946 1.386 . S
C1947 C1951 1.393 . S
C1948 H1937 0.950 . S
C1948 C1946 1.391 . S
C1948 C1949 1.400 . S
C1949 C1943 1.491 . S
C1949 C1948 1.400 . S
C1949 C1950 1.398 . S
C1950 H1938 0.950 . S
C1950 C1949 1.398 . S
C1950 C1951 1.391 . S
C1951 H1939 0.950 . S
C1951 C1947 1.393 . S
C1951 C1950 1.391 . S
H1952 C1960 0.950 . S
H1953 C1965 0.950 . S
H1954 C1962 0.950 . S
H1955 C1964 0.950 . S
H1956 C1966 0.950 . S
H1957 C1968 0.950 . S
H1958 C1970 0.950 . S
H1959 C1971 0.950 . S
C1960 H1952 0.950 . S
C1960 C1961 1.386 . S
C1960 C1962 1.391 . S
C1961 C1960 1.386 . S
C1961 C1965 1.393 . S
C1962 H1954 0.950 . S
C1962 C1960 1.391 . S
C1962 C1963 1.400 . S
C1963 C1962 1.400 . S
C1963 C1964 1.398 . S
C1963 C1969 1.491 . S
C1964 H1955 0.950 . S
C1964 C1963 1.398 . S
C1964 C1965 1.391 . S
C1965 H1953 0.950 . S
C1965 C1961 1.393 . S
C1965 C1964 1.391 . S
C1966 H1956 0.950 . S
C1966 C1967 1.386 . S
C1966 C1968 1.391 . S
C1967 C1966 1.386 . S
C1967 C1971 1.393 . S
C1968 H1957 0.950 . S
C1968 C1966 1.391 . S
C1968 C1969 1.400 . S
C1969 C1963 1.491 . S
C1969 C1968 1.400 . S
C1969 C1970 1.398 . S
C1970 H1958 0.950 . S
C1970 C1969 1.398 . S
C1970 C1971 1.391 . S
C1971 H1959 0.950 . S
C1971 C1967 1.393 . S
C1971 C1970 1.391 . S
H1972 C1980 0.950 . S
H1973 C1985 0.950 . S
H1974 C1982 0.950 . S
H1975 C1984 0.950 . S
H1976 C1986 0.950 . S
H1977 C1988 0.950 . S
H1978 C1990 0.950 . S
H1979 C1991 0.950 . S
C1980 H1972 0.950 . S
C1980 C1981 1.386 . S
C1980 C1982 1.391 . S
C1981 C1980 1.386 . S
C1981 C1985 1.393 . S
C1982 H1974 0.950 . S
C1982 C1980 1.391 . S
C1982 C1983 1.400 . S
C1983 C1982 1.400 . S
C1983 C1984 1.398 . S
C1983 C1989 1.491 . S
C1984 H1975 0.950 . S
C1984 C1983 1.398 . S
C1984 C1985 1.391 . S
C1985 H1973 0.950 . S
C1985 C1981 1.393 . S
C1985 C1984 1.391 . S
C1986 H1976 0.950 . S
C1986 C1987 1.386 . S
C1986 C1988 1.391 . S
C1987 C1986 1.386 . S
C1987 C1991 1.393 . S
C1988 H1977 0.950 . S
C1988 C1986 1.391 . S
C1988 C1989 1.400 . S
C1989 C1983 1.491 . S
C1989 C1988 1.400 . S
C1989 C1990 1.398 . S
C1990 H1978 0.950 . S
C1990 C1989 1.398 . S
C1990 C1991 1.391 . S
C1991 H1979 0.950 . S
C1991 C1987 1.393 . S
C1991 C1990 1.391 . S
H1992 C2000 0.950 . S
H1993 C2005 0.950 . S
H1994 C2002 0.950 . S
H1995 C2004 0.950 . S
H1996 C2006 0.950 . S
H1997 C2008 0.950 . S
H1998 C2010 0.950 . S
H1999 C2011 0.950 . S
C2000 H1992 0.950 . S
C2000 C2001 1.386 . S
C2000 C2002 1.391 . S
C2001 C2000 1.386 . S
C2001 C2005 1.393 . S
C2002 H1994 0.950 . S
C2002 C2000 1.391 . S
C2002 C2003 1.400 . S
C2003 C2002 1.400 . S
C2003 C2004 1.398 . S
C2003 C2009 1.491 . S
C2004 H1995 0.950 . S
C2004 C2003 1.398 . S
C2004 C2005 1.391 . S
C2005 H1993 0.950 . S
C2005 C2001 1.393 . S
C2005 C2004 1.391 . S
C2006 H1996 0.950 . S
C2006 C2007 1.386 . S
C2006 C2008 1.391 . S
C2007 C2006 1.386 . S
C2007 C2011 1.393 . S
C2008 H1997 0.950 . S
C2008 C2006 1.391 . S
C2008 C2009 1.400 . S
C2009 C2003 1.491 . S
C2009 C2008 1.400 . S
C2009 C2010 1.398 . S
C2010 H1998 0.950 . S
C2010 C2009 1.398 . S
C2010 C2011 1.391 . S
C2011 H1999 0.950 . S
C2011 C2007 1.393 . S
C2011 C2010 1.391 . S
H2012 C2020 0.950 . S
H2013 C2025 0.950 . S
H2014 C2022 0.950 . S
H2015 C2024 0.950 . S
H2016 C2026 0.950 . S
H2017 C2028 0.950 . S
H2018 C2030 0.950 . S
H2019 C2031 0.950 . S
C2020 H2012 0.950 . S
C2020 C2021 1.386 . S
C2020 C2022 1.391 . S
C2021 C2020 1.386 . S
C2021 C2025 1.393 . S
C2022 H2014 0.950 . S
C2022 C2020 1.391 . S
C2022 C2023 1.400 . S
C2023 C2022 1.400 . S
C2023 C2024 1.398 . S
C2023 C2029 1.491 1_455 S
C2024 H2015 0.950 . S
C2024 C2023 1.398 . S
C2024 C2025 1.391 . S
C2025 H2013 0.950 . S
C2025 C2021 1.393 . S
C2025 C2024 1.391 . S
C2026 H2016 0.950 . S
C2026 C2027 1.386 . S
C2026 C2028 1.391 . S
C2027 C2026 1.386 . S
C2027 C2031 1.393 . S
C2028 H2017 0.950 . S
C2028 C2026 1.391 . S
C2028 C2029 1.400 . S
C2029 C2023 1.491 1_655 S
C2029 C2028 1.400 . S
C2029 C2030 1.398 . S
C2030 H2018 0.950 . S
C2030 C2029 1.398 . S
C2030 C2031 1.391 . S
C2031 H2019 0.950 . S
C2031 C2027 1.393 . S
C2031 C2030 1.391 . S
H2032 C2040 0.950 . S
H2033 C2045 0.950 . S
H2034 C2042 0.950 . S
H2035 C2044 0.950 . S
H2036 C2046 0.950 . S
H2037 C2048 0.950 . S
H2038 C2050 0.950 . S
H2039 C2051 0.950 . S
C2040 H2032 0.950 . S
C2040 C2041 1.386 . S
C2040 C2042 1.391 . S
C2041 C2040 1.386 . S
C2041 C2045 1.393 . S
C2042 H2034 0.950 . S
C2042 C2040 1.391 . S
C2042 C2043 1.400 . S
C2043 C2042 1.400 . S
C2043 C2044 1.398 . S
C2043 C2049 1.491 . S
C2044 H2035 0.950 . S
C2044 C2043 1.398 . S
C2044 C2045 1.391 . S
C2045 H2033 0.950 . S
C2045 C2041 1.393 . S
C2045 C2044 1.391 . S
C2046 H2036 0.950 . S
C2046 C2047 1.386 . S
C2046 C2048 1.391 . S
C2047 C2046 1.386 . S
C2047 C2051 1.393 . S
C2048 H2037 0.950 . S
C2048 C2046 1.391 . S
C2048 C2049 1.400 . S
C2049 C2043 1.491 . S
C2049 C2048 1.400 . S
C2049 C2050 1.398 . S
C2050 H2038 0.950 . S
C2050 C2049 1.398 . S
C2050 C2051 1.391 . S
C2051 H2039 0.950 . S
C2051 C2047 1.393 . S
C2051 C2050 1.391 . S
H2052 C2060 0.950 . S
H2053 C2065 0.950 . S
H2054 C2062 0.950 . S
H2055 C2064 0.950 . S
H2056 C2066 0.950 . S
H2057 C2068 0.950 . S
H2058 C2070 0.950 . S
H2059 C2071 0.950 . S
C2060 H2052 0.950 . S
C2060 C2061 1.386 . S
C2060 C2062 1.391 . S
C2061 C2060 1.386 . S
C2061 C2065 1.393 . S
C2062 H2054 0.950 . S
C2062 C2060 1.391 . S
C2062 C2063 1.400 . S
C2063 C2062 1.400 . S
C2063 C2064 1.398 . S
C2063 C2069 1.491 1_655 S
C2064 H2055 0.950 . S
C2064 C2063 1.398 . S
C2064 C2065 1.391 . S
C2065 H2053 0.950 . S
C2065 C2061 1.393 . S
C2065 C2064 1.391 . S
C2066 H2056 0.950 . S
C2066 C2067 1.386 . S
C2066 C2068 1.391 . S
C2067 C2066 1.386 . S
C2067 C2071 1.393 . S
C2068 H2057 0.950 . S
C2068 C2066 1.391 . S
C2068 C2069 1.400 . S
C2069 C2063 1.491 1_455 S
C2069 C2068 1.400 . S
C2069 C2070 1.398 . S
C2070 H2058 0.950 . S
C2070 C2069 1.398 . S
C2070 C2071 1.391 . S
C2071 H2059 0.950 . S
C2071 C2067 1.393 . S
C2071 C2070 1.391 . S
H2072 C2080 0.950 . S
H2073 C2085 0.950 . S
H2074 C2082 0.950 . S
H2075 C2084 0.950 . S
H2076 C2086 0.950 . S
H2077 C2088 0.950 . S
H2078 C2090 0.950 . S
H2079 C2091 0.950 . S
C2080 H2072 0.950 . S
C2080 C2081 1.386 . S
C2080 C2082 1.391 . S
C2081 C2080 1.386 . S
C2081 C2085 1.393 . S
C2082 H2074 0.950 . S
C2082 C2080 1.391 . S
C2082 C2083 1.400 . S
C2083 C2082 1.400 . S
C2083 C2084 1.398 . S
C2083 C2089 1.491 . S
C2084 H2075 0.950 . S
C2084 C2083 1.398 . S
C2084 C2085 1.391 . S
C2085 H2073 0.950 . S
C2085 C2081 1.393 . S
C2085 C2084 1.391 . S
C2086 H2076 0.950 . S
C2086 C2087 1.386 . S
C2086 C2088 1.391 . S
C2087 C2086 1.386 . S
C2087 C2091 1.393 . S
C2088 H2077 0.950 . S
C2088 C2086 1.391 . S
C2088 C2089 1.400 . S
C2089 C2083 1.491 . S
C2089 C2088 1.400 . S
C2089 C2090 1.398 . S
C2090 H2078 0.950 . S
C2090 C2089 1.398 . S
C2090 C2091 1.391 . S
C2091 H2079 0.950 . S
C2091 C2087 1.393 . S
C2091 C2090 1.391 . S
H2092 C2100 0.950 . S
H2093 C2105 0.950 . S
H2094 C2102 0.950 . S
H2095 C2104 0.950 . S
H2096 C2106 0.950 . S
H2097 C2108 0.950 . S
H2098 C2110 0.950 . S
H2099 C2111 0.950 . S
C2100 H2092 0.950 . S
C2100 C2101 1.386 . S
C2100 C2102 1.391 . S
C2101 C2100 1.386 . S
C2101 C2105 1.393 . S
C2102 H2094 0.950 . S
C2102 C2100 1.391 . S
C2102 C2103 1.400 . S
C2103 C2102 1.400 . S
C2103 C2104 1.398 . S
C2103 C2109 1.491 . S
C2104 H2095 0.950 . S
C2104 C2103 1.398 . S
C2104 C2105 1.391 . S
C2105 H2093 0.950 . S
C2105 C2101 1.393 . S
C2105 C2104 1.391 . S
C2106 H2096 0.950 . S
C2106 C2107 1.386 . S
C2106 C2108 1.391 . S
C2107 C2106 1.386 . S
C2107 C2111 1.393 . S
C2108 H2097 0.950 . S
C2108 C2106 1.391 . S
C2108 C2109 1.400 . S
C2109 C2103 1.491 . S
C2109 C2108 1.400 . S
C2109 C2110 1.398 . S
C2110 H2098 0.950 . S
C2110 C2109 1.398 . S
C2110 C2111 1.391 . S
C2111 H2099 0.950 . S
C2111 C2107 1.393 . S
C2111 C2110 1.391 . S
H2112 C2120 0.950 . S
H2113 C2125 0.950 . S
H2114 C2122 0.950 . S
H2115 C2124 0.950 . S
H2116 C2126 0.950 . S
H2117 C2128 0.950 . S
H2118 C2130 0.950 . S
H2119 C2131 0.950 . S
C2120 H2112 0.950 . S
C2120 C2121 1.386 . S
C2120 C2122 1.391 . S
C2121 C2120 1.386 . S
C2121 C2125 1.393 . S
C2122 H2114 0.950 . S
C2122 C2120 1.391 . S
C2122 C2123 1.400 . S
C2123 C2122 1.400 . S
C2123 C2124 1.398 . S
C2123 C2129 1.491 . S
C2124 H2115 0.950 . S
C2124 C2123 1.398 . S
C2124 C2125 1.391 . S
C2125 H2113 0.950 . S
C2125 C2121 1.393 . S
C2125 C2124 1.391 . S
C2126 H2116 0.950 . S
C2126 C2127 1.386 . S
C2126 C2128 1.391 . S
C2127 C2126 1.386 . S
C2127 C2131 1.393 . S
C2128 H2117 0.950 . S
C2128 C2126 1.391 . S
C2128 C2129 1.400 . S
C2129 C2123 1.491 . S
C2129 C2128 1.400 . S
C2129 C2130 1.398 . S
C2130 H2118 0.950 . S
C2130 C2129 1.398 . S
C2130 C2131 1.391 . S
C2131 H2119 0.950 . S
C2131 C2127 1.393 . S
C2131 C2130 1.391 . S
H2132 C2140 0.950 . S
H2133 C2145 0.950 . S
H2134 C2142 0.950 . S
H2135 C2144 0.950 . S
H2136 C2146 0.950 . S
H2137 C2148 0.950 . S
H2138 C2150 0.950 . S
H2139 C2151 0.950 . S
C2140 H2132 0.950 . S
C2140 C2141 1.386 . S
C2140 C2142 1.391 . S
C2141 C2140 1.386 . S
C2141 C2145 1.393 . S
C2142 H2134 0.950 . S
C2142 C2140 1.391 . S
C2142 C2143 1.400 . S
C2143 C2142 1.400 . S
C2143 C2144 1.398 . S
C2143 C2149 1.491 . S
C2144 H2135 0.950 . S
C2144 C2143 1.398 . S
C2144 C2145 1.391 . S
C2145 H2133 0.950 . S
C2145 C2141 1.393 . S
C2145 C2144 1.391 . S
C2146 H2136 0.950 . S
C2146 C2147 1.386 . S
C2146 C2148 1.391 . S
C2147 C2146 1.386 . S
C2147 C2151 1.393 . S
C2148 H2137 0.950 . S
C2148 C2146 1.391 . S
C2148 C2149 1.400 . S
C2149 C2143 1.491 . S
C2149 C2148 1.400 . S
C2149 C2150 1.398 . S
C2150 H2138 0.950 . S
C2150 C2149 1.398 . S
C2150 C2151 1.391 . S
C2151 H2139 0.950 . S
C2151 C2147 1.393 . S
C2151 C2150 1.391 . S
H2152 C2160 0.950 . S
H2153 C2165 0.950 . S
H2154 C2162 0.950 . S
H2155 C2164 0.950 . S
H2156 C2166 0.950 . S
H2157 C2168 0.950 . S
H2158 C2170 0.950 . S
H2159 C2171 0.950 . S
C2160 H2152 0.950 . S
C2160 C2161 1.386 . S
C2160 C2162 1.391 . S
C2161 C2160 1.386 . S
C2161 C2165 1.393 . S
C2162 H2154 0.950 . S
C2162 C2160 1.391 . S
C2162 C2163 1.400 . S
C2163 C2162 1.400 . S
C2163 C2164 1.398 . S
C2163 C2169 1.491 . S
C2164 H2155 0.950 . S
C2164 C2163 1.398 . S
C2164 C2165 1.391 . S
C2165 H2153 0.950 . S
C2165 C2161 1.393 . S
C2165 C2164 1.391 . S
C2166 H2156 0.950 . S
C2166 C2167 1.386 . S
C2166 C2168 1.391 . S
C2167 C2166 1.386 . S
C2167 C2171 1.393 . S
C2168 H2157 0.950 . S
C2168 C2166 1.391 . S
C2168 C2169 1.400 . S
C2169 C2163 1.491 . S
C2169 C2168 1.400 . S
C2169 C2170 1.398 . S
C2170 H2158 0.950 . S
C2170 C2169 1.398 . S
C2170 C2171 1.391 . S
C2171 H2159 0.950 . S
C2171 C2167 1.393 . S
C2171 C2170 1.391 . S
H2172 C2180 0.950 . S
H2173 C2185 0.950 . S
H2174 C2182 0.950 . S
H2175 C2184 0.950 . S
H2176 C2186 0.950 . S
H2177 C2188 0.950 . S
H2178 C2190 0.950 . S
H2179 C2191 0.950 . S
C2180 H2172 0.950 . S
C2180 C2181 1.386 . S
C2180 C2182 1.391 . S
C2181 C2180 1.386 . S
C2181 C2185 1.393 . S
C2182 H2174 0.950 . S
C2182 C2180 1.391 . S
C2182 C2183 1.400 . S
C2183 C2182 1.400 . S
C2183 C2184 1.398 . S
C2183 C2189 1.491 . S
C2184 H2175 0.950 . S
C2184 C2183 1.398 . S
C2184 C2185 1.391 . S
C2185 H2173 0.950 . S
C2185 C2181 1.393 . S
C2185 C2184 1.391 . S
C2186 H2176 0.950 . S
C2186 C2187 1.386 . S
C2186 C2188 1.391 . S
C2187 C2186 1.386 . S
C2187 C2191 1.393 . S
C2188 H2177 0.950 . S
C2188 C2186 1.391 . S
C2188 C2189 1.400 . S
C2189 C2183 1.491 . S
C2189 C2188 1.400 . S
C2189 C2190 1.398 . S
C2190 H2178 0.950 . S
C2190 C2189 1.398 . S
C2190 C2191 1.391 . S
C2191 H2179 0.950 . S
C2191 C2187 1.393 . S
C2191 C2190 1.391 . S
H2192 C2200 0.950 . S
H2193 C2205 0.950 . S
H2194 C2202 0.950 . S
H2195 C2204 0.950 . S
H2196 C2206 0.950 . S
H2197 C2208 0.950 . S
H2198 C2210 0.950 . S
H2199 C2211 0.950 . S
C2200 H2192 0.950 . S
C2200 C2201 1.386 . S
C2200 C2202 1.391 . S
C2201 C2200 1.386 . S
C2201 C2205 1.393 . S
C2202 H2194 0.950 . S
C2202 C2200 1.391 . S
C2202 C2203 1.400 . S
C2203 C2202 1.400 . S
C2203 C2204 1.398 . S
C2203 C2209 1.491 . S
C2204 H2195 0.950 . S
C2204 C2203 1.398 . S
C2204 C2205 1.391 . S
C2205 H2193 0.950 . S
C2205 C2201 1.393 . S
C2205 C2204 1.391 . S
C2206 H2196 0.950 . S
C2206 C2207 1.386 . S
C2206 C2208 1.391 . S
C2207 C2206 1.386 . S
C2207 C2211 1.393 . S
C2208 H2197 0.950 . S
C2208 C2206 1.391 . S
C2208 C2209 1.400 . S
C2209 C2203 1.491 . S
C2209 C2208 1.400 . S
C2209 C2210 1.398 . S
C2210 H2198 0.950 . S
C2210 C2209 1.398 . S
C2210 C2211 1.391 . S
C2211 H2199 0.950 . S
C2211 C2207 1.393 . S
C2211 C2210 1.391 . S
H2212 C2220 0.950 . S
H2213 C2225 0.950 . S
H2214 C2222 0.950 . S
H2215 C2224 0.950 . S
H2216 C2226 0.950 . S
H2217 C2228 0.950 . S
H2218 C2230 0.950 . S
H2219 C2231 0.950 . S
C2220 H2212 0.950 . S
C2220 C2221 1.386 . S
C2220 C2222 1.391 . S
C2221 C2220 1.386 . S
C2221 C2225 1.393 . S
C2222 H2214 0.950 . S
C2222 C2220 1.391 . S
C2222 C2223 1.400 . S
C2223 C2222 1.400 . S
C2223 C2224 1.398 . S
C2223 C2229 1.491 . S
C2224 H2215 0.950 . S
C2224 C2223 1.398 . S
C2224 C2225 1.391 . S
C2225 H2213 0.950 . S
C2225 C2221 1.393 . S
C2225 C2224 1.391 . S
C2226 H2216 0.950 . S
C2226 C2227 1.386 . S
C2226 C2228 1.391 . S
C2227 C2226 1.386 . S
C2227 C2231 1.393 . S
C2228 H2217 0.950 . S
C2228 C2226 1.391 . S
C2228 C2229 1.400 . S
C2229 C2223 1.491 . S
C2229 C2228 1.400 . S
C2229 C2230 1.398 . S
C2230 H2218 0.950 . S
C2230 C2229 1.398 . S
C2230 C2231 1.391 . S
C2231 H2219 0.950 . S
C2231 C2227 1.393 . S
C2231 C2230 1.391 . S
H2232 C2240 0.950 . S
H2233 C2245 0.950 . S
H2234 C2242 0.950 . S
H2235 C2244 0.950 . S
H2236 C2246 0.950 . S
H2237 C2248 0.950 . S
H2238 C2250 0.950 . S
H2239 C2251 0.950 . S
C2240 H2232 0.950 . S
C2240 C2241 1.386 . S
C2240 C2242 1.391 . S
C2241 C2240 1.386 . S
C2241 C2245 1.393 . S
C2242 H2234 0.950 . S
C2242 C2240 1.391 . S
C2242 C2243 1.400 . S
C2243 C2242 1.400 . S
C2243 C2244 1.398 . S
C2243 C2249 1.491 . S
C2244 H2235 0.950 . S
C2244 C2243 1.398 . S
C2244 C2245 1.391 . S
C2245 H2233 0.950 . S
C2245 C2241 1.393 . S
C2245 C2244 1.391 . S
C2246 H2236 0.950 . S
C2246 C2247 1.386 . S
C2246 C2248 1.391 . S
C2247 C2246 1.386 . S
C2247 C2251 1.393 . S
C2248 H2237 0.950 . S
C2248 C2246 1.391 . S
C2248 C2249 1.400 . S
C2249 C2243 1.491 . S
C2249 C2248 1.400 . S
C2249 C2250 1.398 . S
C2250 H2238 0.950 . S
C2250 C2249 1.398 . S
C2250 C2251 1.391 . S
C2251 H2239 0.950 . S
C2251 C2247 1.393 . S
C2251 C2250 1.391 . S
H2252 C2260 0.950 . S
H2253 C2265 0.950 . S
H2254 C2262 0.950 . S
H2255 C2264 0.950 . S
H2256 C2266 0.950 . S
H2257 C2268 0.950 . S
H2258 C2270 0.950 . S
H2259 C2271 0.950 . S
C2260 H2252 0.950 . S
C2260 C2261 1.386 . S
C2260 C2262 1.391 . S
C2261 C2260 1.386 . S
C2261 C2265 1.393 . S
C2262 H2254 0.950 . S
C2262 C2260 1.391 . S
C2262 C2263 1.400 . S
C2263 C2262 1.400 . S
C2263 C2264 1.398 . S
C2263 C2269 1.491 . S
C2264 H2255 0.950 . S
C2264 C2263 1.398 . S
C2264 C2265 1.391 . S
C2265 H2253 0.950 . S
C2265 C2261 1.393 . S
C2265 C2264 1.391 . S
C2266 H2256 0.950 . S
C2266 C2267 1.386 . S
C2266 C2268 1.391 . S
C2267 C2266 1.386 . S
C2267 C2271 1.393 . S
C2268 H2257 0.950 . S
C2268 C2266 1.391 . S
C2268 C2269 1.400 . S
C2269 C2263 1.491 . S
C2269 C2268 1.400 . S
C2269 C2270 1.398 . S
C2270 H2258 0.950 . S
C2270 C2269 1.398 . S
C2270 C2271 1.391 . S
C2271 H2259 0.950 . S
C2271 C2267 1.393 . S
C2271 C2270 1.391 . S
H2272 C2280 0.950 . S
H2273 C2285 0.950 . S
H2274 C2282 0.950 . S
H2275 C2284 0.950 . S
H2276 C2286 0.950 . S
H2277 C2288 0.950 . S
H2278 C2290 0.950 . S
H2279 C2291 0.950 . S
C2280 H2272 0.950 . S
C2280 C2281 1.386 . S
C2280 C2282 1.391 . S
C2281 C2280 1.386 . S
C2281 C2285 1.393 . S
C2282 H2274 0.950 . S
C2282 C2280 1.391 . S
C2282 C2283 1.400 . S
C2283 C2282 1.400 . S
C2283 C2284 1.398 . S
C2283 C2289 1.491 . S
C2284 H2275 0.950 . S
C2284 C2283 1.398 . S
C2284 C2285 1.391 . S
C2285 H2273 0.950 . S
C2285 C2281 1.393 . S
C2285 C2284 1.391 . S
C2286 H2276 0.950 . S
C2286 C2287 1.386 . S
C2286 C2288 1.391 . S
C2287 C2286 1.386 . S
C2287 C2291 1.393 . S
C2288 H2277 0.950 . S
C2288 C2286 1.391 . S
C2288 C2289 1.400 . S
C2289 C2283 1.491 . S
C2289 C2288 1.400 . S
C2289 C2290 1.398 . S
C2290 H2278 0.950 . S
C2290 C2289 1.398 . S
C2290 C2291 1.391 . S
C2291 H2279 0.950 . S
C2291 C2287 1.393 . S
C2291 C2290 1.391 . S
H2292 C2300 0.950 . S
H2293 C2305 0.950 . S
H2294 C2302 0.950 . S
H2295 C2304 0.950 . S
H2296 C2306 0.950 . S
H2297 C2308 0.950 . S
H2298 C2310 0.950 . S
H2299 C2311 0.950 . S
C2300 H2292 0.950 . S
C2300 C2301 1.386 . S
C2300 C2302 1.391 . S
C2301 C2300 1.386 . S
C2301 C2305 1.393 . S
C2302 H2294 0.950 . S
C2302 C2300 1.391 . S
C2302 C2303 1.400 . S
C2303 C2302 1.400 . S
C2303 C2304 1.398 . S
C2303 C2309 1.491 . S
C2304 H2295 0.950 . S
C2304 C2303 1.398 . S
C2304 C2305 1.391 . S
C2305 H2293 0.950 . S
C2305 C2301 1.393 . S
C2305 C2304 1.391 . S
C2306 H2296 0.950 . S
C2306 C2307 1.386 . S
C2306 C2308 1.391 . S
C2307 C2306 1.386 . S
C2307 C2311 1.393 . S
C2308 H2297 0.950 . S
C2308 C2306 1.391 . S
C2308 C2309 1.400 . S
C2309 C2303 1.491 . S
C2309 C2308 1.400 . S
C2309 C2310 1.398 . S
C2310 H2298 0.950 . S
C2310 C2309 1.398 . S
C2310 C2311 1.391 . S
C2311 H2299 0.950 . S
C2311 C2307 1.393 . S
C2311 C2310 1.391 . S
H2312 C2320 0.950 . S
H2313 C2325 0.950 . S
H2314 C2322 0.950 . S
H2315 C2324 0.950 . S
H2316 C2326 0.950 . S
H2317 C2328 0.950 . S
H2318 C2330 0.950 . S
H2319 C2331 0.950 . S
C2320 H2312 0.950 . S
C2320 C2321 1.386 . S
C2320 C2322 1.391 . S
C2321 C2320 1.386 . S
C2321 C2325 1.393 . S
C2322 H2314 0.950 . S
C2322 C2320 1.391 . S
C2322 C2323 1.400 . S
C2323 C2322 1.400 . S
C2323 C2324 1.398 . S
C2323 C2329 1.491 . S
C2324 H2315 0.950 . S
C2324 C2323 1.398 . S
C2324 C2325 1.391 . S
C2325 H2313 0.950 . S
C2325 C2321 1.393 . S
C2325 C2324 1.391 . S
C2326 H2316 0.950 . S
C2326 C2327 1.386 . S
C2326 C2328 1.391 . S
C2327 C2326 1.386 . S
C2327 C2331 1.393 . S
C2328 H2317 0.950 . S
C2328 C2326 1.391 . S
C2328 C2329 1.400 . S
C2329 C2323 1.491 . S
C2329 C2328 1.400 . S
C2329 C2330 1.398 . S
C2330 H2318 0.950 . S
C2330 C2329 1.398 . S
C2330 C2331 1.391 . S
C2331 H2319 0.950 . S
C2331 C2327 1.393 . S
C2331 C2330 1.391 . S
H2332 C2340 0.950 . S
H2333 C2345 0.950 . S
H2334 C2342 0.950 . S
H2335 C2344 0.950 . S
H2336 C2346 0.950 . S
H2337 C2348 0.950 . S
H2338 C2350 0.950 . S
H2339 C2351 0.950 . S
C2340 H2332 0.950 . S
C2340 C2341 1.386 . S
C2340 C2342 1.391 . S
C2341 C2340 1.386 . S
C2341 C2345 1.393 . S
C2342 H2334 0.950 . S
C2342 C2340 1.391 . S
C2342 C2343 1.400 . S
C2343 C2342 1.400 . S
C2343 C2344 1.398 . S
C2343 C2349 1.491 . S
C2344 H2335 0.950 . S
C2344 C2343 1.398 . S
C2344 C2345 1.391 . S
C2345 H2333 0.950 . S
C2345 C2341 1.393 . S
C2345 C2344 1.391 . S
C2346 H2336 0.950 . S
C2346 C2347 1.386 . S
C2346 C2348 1.391 . S
C2347 C2346 1.386 . S
C2347 C2351 1.393 . S
C2348 H2337 0.950 . S
C2348 C2346 1.391 . S
C2348 C2349 1.400 . S
C2349 C2343 1.491 . S
C2349 C2348 1.400 . S
C2349 C2350 1.398 . S
C2350 H2338 0.950 . S
C2350 C2349 1.398 . S
C2350 C2351 1.391 . S
C2351 H2339 0.950 . S
C2351 C2347 1.393 . S
C2351 C2350 1.391 . S
H2352 C2360 0.950 . S
H2353 C2365 0.950 . S
H2354 C2362 0.950 . S
H2355 C2364 0.950 . S
H2356 C2366 0.950 . S
H2357 C2368 0.950 . S
H2358 C2370 0.950 . S
H2359 C2371 0.950 . S
C2360 H2352 0.950 . S
C2360 C2361 1.386 . S
C2360 C2362 1.391 . S
C2361 C2360 1.386 . S
C2361 C2365 1.393 . S
C2362 H2354 0.950 . S
C2362 C2360 1.391 . S
C2362 C2363 1.400 . S
C2363 C2362 1.400 . S
C2363 C2364 1.398 . S
C2363 C2369 1.491 . S
C2364 H2355 0.950 . S
C2364 C2363 1.398 . S
C2364 C2365 1.391 . S
C2365 H2353 0.950 . S
C2365 C2361 1.393 . S
C2365 C2364 1.391 . S
C2366 H2356 0.950 . S
C2366 C2367 1.386 . S
C2366 C2368 1.391 . S
C2367 C2366 1.386 . S
C2367 C2371 1.393 . S
C2368 H2357 0.950 . S
C2368 C2366 1.391 . S
C2368 C2369 1.400 . S
C2369 C2363 1.491 . S
C2369 C2368 1.400 . S
C2369 C2370 1.398 . S
C2370 H2358 0.950 . S
C2370 C2369 1.398 . S
C2370 C2371 1.391 . S
C2371 H2359 0.950 . S
C2371 C2367 1.393 . S
C2371 C2370 1.391 . S
H2372 C2380 0.950 . S
H2373 C2385 0.950 . S
H2374 C2382 0.950 . S
H2375 C2384 0.950 . S
H2376 C2386 0.950 . S
H2377 C2388 0.950 . S
H2378 C2390 0.950 . S
H2379 C2391 0.950 . S
C2380 H2372 0.950 . S
C2380 C2381 1.386 . S
C2380 C2382 1.391 . S
C2381 C2380 1.386 . S
C2381 C2385 1.393 . S
C2382 H2374 0.950 . S
C2382 C2380 1.391 . S
C2382 C2383 1.400 . S
C2383 C2382 1.400 . S
C2383 C2384 1.398 . S
C2383 C2389 1.491 . S
C2384 H2375 0.950 . S
C2384 C2383 1.398 . S
C2384 C2385 1.391 . S
C2385 H2373 0.950 . S
C2385 C2381 1.393 . S
C2385 C2384 1.391 . S
C2386 H2376 0.950 . S
C2386 C2387 1.386 . S
C2386 C2388 1.391 . S
C2387 C2386 1.386 . S
C2387 C2391 1.393 . S
C2388 H2377 0.950 . S
C2388 C2386 1.391 . S
C2388 C2389 1.400 . S
C2389 C2383 1.491 . S
C2389 C2388 1.400 . S
C2389 C2390 1.398 . S
C2390 H2378 0.950 . S
C2390 C2389 1.398 . S
C2390 C2391 1.391 . S
C2391 H2379 0.950 . S
C2391 C2387 1.393 . S
C2391 C2390 1.391 . S
H2392 C2400 0.950 . S
H2393 C2405 0.950 . S
H2394 C2402 0.950 . S
H2395 C2404 0.950 . S
H2396 C2406 0.950 . S
H2397 C2408 0.950 . S
H2398 C2410 0.950 . S
H2399 C2411 0.950 . S
C2400 H2392 0.950 . S
C2400 C2401 1.386 . S
C2400 C2402 1.391 . S
C2401 C2400 1.386 . S
C2401 C2405 1.393 . S
C2402 H2394 0.950 . S
C2402 C2400 1.391 . S
C2402 C2403 1.400 . S
C2403 C2402 1.400 . S
C2403 C2404 1.398 . S
C2403 C2409 1.491 . S
C2404 H2395 0.950 . S
C2404 C2403 1.398 . S
C2404 C2405 1.391 . S
C2405 H2393 0.950 . S
C2405 C2401 1.393 . S
C2405 C2404 1.391 . S
C2406 H2396 0.950 . S
C2406 C2407 1.386 . S
C2406 C2408 1.391 . S
C2407 C2406 1.386 . S
C2407 C2411 1.393 . S
C2408 H2397 0.950 . S
C2408 C2406 1.391 . S
C2408 C2409 1.400 . S
C2409 C2403 1.491 . S
C2409 C2408 1.400 . S
C2409 C2410 1.398 . S
C2410 H2398 0.950 . S
C2410 C2409 1.398 . S
C2410 C2411 1.391 . S
C2411 H2399 0.950 . S
C2411 C2407 1.393 . S
C2411 C2410 1.391 . S
H2412 C2420 0.950 . S
H2413 C2425 0.950 . S
H2414 C2422 0.950 . S
H2415 C2424 0.950 . S
H2416 C2426 0.950 . S
H2417 C2428 0.950 . S
H2418 C2430 0.950 . S
H2419 C2431 0.950 . S
C2420 H2412 0.950 . S
C2420 C2421 1.386 . S
C2420 C2422 1.391 . S
C2421 C2420 1.386 . S
C2421 C2425 1.393 . S
C2422 H2414 0.950 . S
C2422 C2420 1.391 . S
C2422 C2423 1.400 . S
C2423 C2422 1.400 . S
C2423 C2424 1.398 . S
C2423 C2429 1.491 . S
C2424 H2415 0.950 . S
C2424 C2423 1.398 . S
C2424 C2425 1.391 . S
C2425 H2413 0.950 . S
C2425 C2421 1.393 . S
C2425 C2424 1.391 . S
C2426 H2416 0.950 . S
C2426 C2427 1.386 . S
C2426 C2428 1.391 . S
C2427 C2426 1.386 . S
C2427 C2431 1.393 . S
C2428 H2417 0.950 . S
C2428 C2426 1.391 . S
C2428 C2429 1.400 . S
C2429 C2423 1.491 . S
C2429 C2428 1.400 . S
C2429 C2430 1.398 . S
C2430 H2418 0.950 . S
C2430 C2429 1.398 . S
C2430 C2431 1.391 . S
C2431 H2419 0.950 . S
C2431 C2427 1.393 . S
C2431 C2430 1.391 . S
C1161 C4 1.402 . S
C1167 C148 1.401 . S
C1181 C40 1.406 . S
C1187 C184 1.396 . S
C1201 C220 1.406 . S
C1207 C76 1.398 . S
C1221 C256 1.409 . S
C1227 C112 1.394 . S
C1241 C292 1.394 . S
C1247 C436 1.409 . S
C1261 C328 1.409 . S
C1267 C472 1.393 . S
C1281 C508 1.407 . S
C1287 C364 1.396 . S
C1301 C400 1.395 . S
C1307 C544 1.409 . S
C1321 C724 1.404 . S
C1327 C580 1.400 . S
C1341 C760 1.406 . S
C1347 C616 1.396 . S
C1361 C652 1.396 . S
C1367 C796 1.408 . S
C1381 C832 1.402 . S
C1387 C688 1.400 . S
C1401 C868 1.398 . S
C1407 C1012 1.406 . S
C1421 C1048 1.394 . S
C1427 C904 1.410 . S
C1441 C1084 1.409 . S
C1447 C940 1.394 . S
C1461 C976 1.395 . S
C1467 C1120 1.409 . S
C1481 C3 1.506 . S
C1487 C986 1.463 . S
C1501 C302 1.445 . S
C1507 C39 1.495 . S
C1521 C75 1.509 . S
C1527 C914 1.469 . S
C1541 C111 1.496 . S
C1547 C374 1.446 . S
C1561 C1058 1.450 . S
C1567 C147 1.496 . S
C1581 C518 1.449 . S
C1587 C183 1.499 . S
C1601 C219 1.503 . S
C1607 C1130 1.464 . S
C1621 C255 1.509 . S
C1627 C446 1.472 . S
C1641 C698 1.466 . S
C1647 C291 1.505 . S
C1661 C327 1.503 . S
C1667 C14 1.456 . S
C1681 C626 1.447 . S
C1687 C363 1.497 . S
C1701 C399 1.500 . S
C1707 C86 1.457 . S
C1721 C770 1.455 . S
C1727 C435 1.502 . S
C1741 C471 1.508 . S
C1747 C230 1.472 . S
C1761 C842 1.447 . S
C1767 C507 1.498 . S
C1781 C543 1.506 . S
C1787 C158 1.468 . S
C1801 C410 1.452 . S
C1807 C579 1.500 . S
C1821 C878 1.450 . S
C1827 C615 1.499 . S
C1841 C338 1.467 . S
C1847 C651 1.505 . S
C1861 C687 1.499 . S
C1867 C950 1.457 . S
C1881 C482 1.450 . S
C1887 C723 1.499 . S
C1901 C1094 1.458 . S
C1907 C759 1.500 . S
C1921 C554 1.446 . S
C1927 C795 1.497 . S
C1941 C831 1.499 . S
C1947 C1022 1.455 . S
C1961 C867 1.504 . S
C1967 C122 1.465 . S
C1981 C903 1.499 . S
C1987 C590 1.449 . S
C2001 C939 1.509 . S
C2007 C50 1.472 . S
C2021 C975 1.498 . S
C2027 C662 1.448 . S
C2041 C1011 1.495 . S
C2047 C194 1.445 . S
C2061 C806 1.446 . S
C2067 C1047 1.496 . S
C2081 C266 1.451 . S
C2087 C1083 1.500 . S
C2101 C1119 1.496 . S
C2107 C734 1.445 . S
C2121 C2 1.025 . S
C2127 C254 1.031 . S
C2141 C38 1.037 . S
C2147 C146 1.022 1_556 S
C2161 C74 1.031 1_554 S
C2167 C182 1.035 . S
C2181 C218 1.023 . S
C2187 C110 1.034 . S
C2201 C542 1.033 . S
C2207 C290 1.033 . S
C2221 C434 1.027 1_554 S
C2227 C326 1.027 . S
C2241 C470 1.024 . S
C2247 C362 1.038 1_556 S
C2261 C506 1.038 . S
C2267 C398 1.025 . S
C2281 C578 1.031 1_554 S
C2287 C830 1.035 . S
C2301 C722 1.037 . S
C2307 C614 1.028 . S
C2321 C758 1.030 . S
C2327 C650 1.025 . S
C2341 C794 1.038 1_556 S
C2347 C686 1.027 . S
C2361 C1118 1.038 . S
C2367 C866 1.025 1_556 S
C2381 C902 1.025 . S
C2387 C1010 1.038 . S
C2401 C938 1.037 . S
C2407 C1046 1.028 . S
C2421 C974 1.025 . S
C2427 C1082 1.029 1_554 S
