# Generated by pormake.
# Topology whw, (6)-cn, num edge types: 1
# Building blocks:
#     Node 0, Type 0, BuildingBlock: KUMJIN_clean_sbu_0, # of connection points: 6
#     Node 1, Type 0, BuildingBlock: KUMJIN_clean_sbu_0, # of connection points: 6
#     Node 2, Type 0, BuildingBlock: KUMJIN_clean_sbu_0, # of connection points: 6
#     Node 3, Type 0, BuildingBlock: KUMJIN_clean_sbu_0, # of connection points: 6
#     Node 4, Type 0, BuildingBlock: KUMJIN_clean_sbu_0, # of connection points: 6
#     Node 5, Type 0, BuildingBlock: KUMJIN_clean_sbu_0, # of connection points: 6
#     Node 6, Type 0, BuildingBlock: KUMJIN_clean_sbu_0, # of connection points: 6
#     Node 7, Type 0, BuildingBlock: KUMJIN_clean_sbu_0, # of connection points: 6
#     Node 8, Type 0, BuildingBlock: KUMJIN_clean_sbu_0, # of connection points: 6
#     Node 9, Type 0, BuildingBlock: KUMJIN_clean_sbu_0, # of connection points: 6
#     Node 10, Type 0, BuildingBlock: KUMJIN_clean_sbu_0, # of connection points: 6
#     Node 11, Type 0, BuildingBlock: KUMJIN_clean_sbu_0, # of connection points: 6
#     Node 12, Type 0, BuildingBlock: KUMJIN_clean_sbu_0, # of connection points: 6
#     Node 13, Type 0, BuildingBlock: KUMJIN_clean_sbu_0, # of connection points: 6
#     Node 14, Type 0, BuildingBlock: KUMJIN_clean_sbu_0, # of connection points: 6
#     Node 15, Type 0, BuildingBlock: KUMJIN_clean_sbu_0, # of connection points: 6
#     Edge 16, Type (0, 0), BuildingBlock: UVAHIK_clean_linker_0, # of connection points: 2
#     Edge 17, Type (0, 0), BuildingBlock: UVAHIK_clean_linker_0, # of connection points: 2
#     Edge 18, Type (0, 0), BuildingBlock: UVAHIK_clean_linker_0, # of connection points: 2
#     Edge 19, Type (0, 0), BuildingBlock: UVAHIK_clean_linker_0, # of connection points: 2
#     Edge 20, Type (0, 0), BuildingBlock: UVAHIK_clean_linker_0, # of connection points: 2
#     Edge 21, Type (0, 0), BuildingBlock: UVAHIK_clean_linker_0, # of connection points: 2
#     Edge 22, Type (0, 0), BuildingBlock: UVAHIK_clean_linker_0, # of connection points: 2
#     Edge 23, Type (0, 0), BuildingBlock: UVAHIK_clean_linker_0, # of connection points: 2
#     Edge 24, Type (0, 0), BuildingBlock: UVAHIK_clean_linker_0, # of connection points: 2
#     Edge 25, Type (0, 0), BuildingBlock: UVAHIK_clean_linker_0, # of connection points: 2
#     Edge 26, Type (0, 0), BuildingBlock: UVAHIK_clean_linker_0, # of connection points: 2
#     Edge 27, Type (0, 0), BuildingBlock: UVAHIK_clean_linker_0, # of connection points: 2
#     Edge 28, Type (0, 0), BuildingBlock: UVAHIK_clean_linker_0, # of connection points: 2
#     Edge 29, Type (0, 0), BuildingBlock: UVAHIK_clean_linker_0, # of connection points: 2
#     Edge 30, Type (0, 0), BuildingBlock: UVAHIK_clean_linker_0, # of connection points: 2
#     Edge 31, Type (0, 0), BuildingBlock: UVAHIK_clean_linker_0, # of connection points: 2
#     Edge 32, Type (0, 0), BuildingBlock: UVAHIK_clean_linker_0, # of connection points: 2
#     Edge 33, Type (0, 0), BuildingBlock: UVAHIK_clean_linker_0, # of connection points: 2
#     Edge 34, Type (0, 0), BuildingBlock: UVAHIK_clean_linker_0, # of connection points: 2
#     Edge 35, Type (0, 0), BuildingBlock: UVAHIK_clean_linker_0, # of connection points: 2
#     Edge 36, Type (0, 0), BuildingBlock: UVAHIK_clean_linker_0, # of connection points: 2
#     Edge 37, Type (0, 0), BuildingBlock: UVAHIK_clean_linker_0, # of connection points: 2
#     Edge 38, Type (0, 0), BuildingBlock: UVAHIK_clean_linker_0, # of connection points: 2
#     Edge 39, Type (0, 0), BuildingBlock: UVAHIK_clean_linker_0, # of connection points: 2
#     Edge 40, Type (0, 0), BuildingBlock: UVAHIK_clean_linker_0, # of connection points: 2
#     Edge 41, Type (0, 0), BuildingBlock: UVAHIK_clean_linker_0, # of connection points: 2
#     Edge 42, Type (0, 0), BuildingBlock: UVAHIK_clean_linker_0, # of connection points: 2
#     Edge 43, Type (0, 0), BuildingBlock: UVAHIK_clean_linker_0, # of connection points: 2
#     Edge 44, Type (0, 0), BuildingBlock: UVAHIK_clean_linker_0, # of connection points: 2
#     Edge 45, Type (0, 0), BuildingBlock: UVAHIK_clean_linker_0, # of connection points: 2
#     Edge 46, Type (0, 0), BuildingBlock: UVAHIK_clean_linker_0, # of connection points: 2
#     Edge 47, Type (0, 0), BuildingBlock: UVAHIK_clean_linker_0, # of connection points: 2
#     Edge 48, Type (0, 0), BuildingBlock: UVAHIK_clean_linker_0, # of connection points: 2
#     Edge 49, Type (0, 0), BuildingBlock: UVAHIK_clean_linker_0, # of connection points: 2
#     Edge 50, Type (0, 0), BuildingBlock: UVAHIK_clean_linker_0, # of connection points: 2
#     Edge 51, Type (0, 0), BuildingBlock: UVAHIK_clean_linker_0, # of connection points: 2
#     Edge 52, Type (0, 0), BuildingBlock: UVAHIK_clean_linker_0, # of connection points: 2
#     Edge 53, Type (0, 0), BuildingBlock: UVAHIK_clean_linker_0, # of connection points: 2
#     Edge 54, Type (0, 0), BuildingBlock: UVAHIK_clean_linker_0, # of connection points: 2
#     Edge 55, Type (0, 0), BuildingBlock: UVAHIK_clean_linker_0, # of connection points: 2
#     Edge 56, Type (0, 0), BuildingBlock: UVAHIK_clean_linker_0, # of connection points: 2
#     Edge 57, Type (0, 0), BuildingBlock: UVAHIK_clean_linker_0, # of connection points: 2
#     Edge 58, Type (0, 0), BuildingBlock: UVAHIK_clean_linker_0, # of connection points: 2
#     Edge 59, Type (0, 0), BuildingBlock: UVAHIK_clean_linker_0, # of connection points: 2
#     Edge 60, Type (0, 0), BuildingBlock: UVAHIK_clean_linker_0, # of connection points: 2
#     Edge 61, Type (0, 0), BuildingBlock: UVAHIK_clean_linker_0, # of connection points: 2
#     Edge 62, Type (0, 0), BuildingBlock: UVAHIK_clean_linker_0, # of connection points: 2
#     Edge 63, Type (0, 0), BuildingBlock: UVAHIK_clean_linker_0, # of connection points: 2
# Relax obj value: 0.268
# Max RMSD: 0.251
# Mean RMSD: 0.213
data_MOF--net-whw--node1-KUMJIN_clean_sbu_0--edge1-UVAHIK_clean_linker_0
_symmetry_space_group_name_H-M    P1
_symmetry_Int_Tables_number       1
_symmetry_cell_setting            triclinic
loop_
_symmetry_equiv_pos_as_xyz
'x, y, z'
_cell_length_a     61.24203
_cell_length_b     61.274928
_cell_length_c     40.399439
_cell_angle_alpha  99.061819
_cell_angle_beta   94.260223
_cell_angle_gamma 100.09603
loop_
_atom_site_label
_atom_site_type_symbol
_atom_site_fract_x
_atom_site_fract_y
_atom_site_fract_z
_atom_type_partial_charge
Eu0 Eu 0.03588 0.15579 0.18518 0.0
C1 C 0.94369 0.11229 0.1382 0.0
C2 C 0.92579 0.14416 0.13346 0.0
C3 C 0.91079 0.10811 0.09802 0.0
C4 C 0.94258 0.13475 0.14901 0.0
C5 C 0.9275 0.09874 0.11291 0.0
C6 C 0.91 0.13075 0.10814 0.0
C7 C 0.94404 0.06681 0.12045 0.0
N8 N 0.96002 0.10341 0.15281 0.0
C9 C 0.95952 0.08069 0.1454 0.0
C10 C 0.92809 0.07592 0.10382 0.0
Eu11 Eu 0.98323 0.12706 0.1993 0.0
N12 N 0.95785 0.14745 0.17415 0.0
C13 C 0.95748 0.16998 0.18322 0.0
C14 C 0.92528 0.16687 0.14355 0.0
C15 C 0.94133 0.17985 0.16823 0.0
H16 H 0.97029 0.07269 0.15971 0.0
H17 H 0.9414 0.19763 0.17567 0.0
H18 H 0.89701 0.13775 0.09627 0.0
H19 H 0.94404 0.04894 0.11477 0.0
H20 H 0.96985 0.18124 0.20097 0.0
H21 H 0.08004 0.09144 0.21984 0.0
H22 H 0.91274 0.17463 0.13209 0.0
H23 H 0.04841 0.21201 0.20697 0.0
H24 H 0.04881 0.10562 0.19452 0.0
H25 H 0.0784 0.24092 0.24088 0.0
H26 H 0.89828 0.09791 0.07873 0.0
H27 H 0.11164 0.11808 0.2542 0.0
H28 H 0.12937 0.15792 0.27913 0.0
H29 H 0.91586 0.06503 0.08479 0.0
H30 H 0.12854 0.19834 0.28581 0.0
N31 N 0.06216 0.13999 0.21449 0.0
C32 C 0.06228 0.11745 0.20955 0.0
C33 C 0.09788 0.12443 0.24316 0.0
C34 C 0.0977 0.14753 0.24809 0.0
C35 C 0.08007 0.10933 0.22382 0.0
C36 C 0.07941 0.15495 0.23308 0.0
H37 H 0.10961 0.22938 0.27192 0.0
N38 N 0.06165 0.1845 0.22095 0.0
C39 C 0.07868 0.22325 0.24023 0.0
C40 C 0.07897 0.17778 0.23684 0.0
C41 C 0.06166 0.20687 0.22133 0.0
C42 C 0.09625 0.21664 0.25768 0.0
C43 C 0.09674 0.19371 0.25574 0.0
O44 O 0.05159 0.17926 0.15457 0.0
O45 O 0.00075 0.14341 0.15849 0.0
O46 O 0.00219 0.10116 0.17422 0.0
O47 O 0.02744 0.12299 0.14795 0.0
O48 O 0.0145 0.17749 0.16354 0.0
O49 O 0.05983 0.14549 0.15106 0.0
O50 O 0.97384 0.09539 0.21763 0.0
O51 O 0.01982 0.13463 0.22053 0.0
O52 O 0.02366 0.17835 0.22684 0.0
O53 O 0.98721 0.16112 0.23297 0.0
O54 O -0.00308 0.13347 0.2549 0.0
O55 O 0.95144 0.11936 0.21968 0.0
C56 C -0.0017 0.16183 0.14838 0.0
C57 C 0.07854 0.17023 0.11615 0.0
C58 C 0.09763 0.15841 0.06783 0.0
C59 C 0.08256 0.15314 0.09111 0.0
C60 C 0.10864 0.18075 0.06962 0.0
C61 C 0.08946 0.19254 0.11747 0.0
C62 C 0.10451 0.19773 0.09432 0.0
C63 C 0.01578 0.1033 0.15064 0.0
C64 C 0.06311 0.16489 0.141 0.0
C65 C 0.11474 0.18634 0.27123 0.0
C66 C 0.11524 0.16332 0.26735 0.0
C67 C 0.01815 0.13678 0.25269 0.0
C68 C 0.94842 0.09417 0.25909 0.0
C69 C 0.94166 0.10978 0.28369 0.0
C70 C 0.93304 0.10287 0.31238 0.0
C71 C 0.93175 0.08042 0.3168 0.0
C72 C 0.94712 0.07182 0.26397 0.0
C73 C 0.93895 0.06504 0.2928 0.0
C74 C 0.00468 0.17787 0.24067 0.0
C75 C 0.95502 0.10016 0.22693 0.0
H76 H 0.07388 0.13592 0.08949 0.0
H77 H 0.1201 0.18508 0.05146 0.0
H78 H 0.0865 0.20591 0.1366 0.0
H79 H 0.1129 0.21494 0.09541 0.0
H80 H 0.94239 0.12706 0.28014 0.0
H81 H 0.92528 0.07484 0.33893 0.0
H82 H 0.95207 0.05949 0.24515 0.0
H83 H 0.93791 0.04776 0.29634 0.0
Eu84 Eu 0.14429 0.77972 0.33166 0.0
C85 C 0.17732 0.68838 0.3337 0.0
C86 C 0.14878 0.65906 0.30051 0.0
C87 C 0.18736 0.65419 0.3048 0.0
C88 C 0.15523 0.68048 0.32102 0.0
C89 C 0.19354 0.67507 0.32645 0.0
C90 C 0.16503 0.64622 0.29181 0.0
C91 C 0.22023 0.70282 0.36547 0.0
N92 N 0.18269 0.70839 0.3551 0.0
C93 C 0.20353 0.71531 0.37213 0.0
C94 C 0.21529 0.68274 0.3422 0.0
Eu95 Eu 0.15351 0.7284 0.36544 0.0
N96 N 0.13984 0.69301 0.33062 0.0
C97 C 0.11761 0.68434 0.32282 0.0
C98 C 0.12608 0.65078 0.29049 0.0
C99 C 0.11041 0.66334 0.30214 0.0
H100 H 0.20731 0.73079 0.39024 0.0
H101 H 0.09278 0.65685 0.29528 0.0
H102 H 0.1604 0.6298 0.27593 0.0
H103 H 0.23685 0.70861 0.3784 0.0
H104 H 0.1053 0.69379 0.33182 0.0
H105 H 0.20507 0.84437 0.41691 0.0
H106 H 0.12045 0.63444 0.27469 0.0
H107 H 0.09196 0.7809 0.30393 0.0
H108 H 0.19206 0.80895 0.37767 0.0
H109 H 0.06397 0.80519 0.31347 0.0
H110 H 0.19961 0.6438 0.29874 0.0
H111 H 0.179 0.87004 0.43178 0.0
H112 H 0.14058 0.87867 0.42391 0.0
H113 H 0.22821 0.67298 0.33732 0.0
H114 H 0.10222 0.86802 0.39595 0.0
N115 N 0.15853 0.81379 0.37007 0.0
C116 C 0.18034 0.81978 0.3835 0.0
C117 C 0.1731 0.85437 0.41438 0.0
C118 C 0.15098 0.84855 0.39981 0.0
C119 C 0.18786 0.83996 0.40602 0.0
C120 C 0.14414 0.82793 0.37738 0.0
H121 H 0.07353 0.84071 0.35472 0.0
N122 N 0.11676 0.80213 0.34014 0.0
C123 C 0.08036 0.81005 0.32739 0.0
C124 C 0.12257 0.82189 0.36192 0.0
C125 C 0.09622 0.79634 0.32206 0.0
C126 C 0.08581 0.83007 0.35071 0.0
C127 C 0.10721 0.83635 0.36806 0.0
O128 O 0.13548 0.78288 0.27942 0.0
O129 O 0.14522 0.7432 0.32051 0.0
O130 O 0.18055 0.73748 0.33315 0.0
O131 O 0.18063 0.77586 0.33746 0.0
O132 O 0.11942 0.75384 0.29509 0.0
O133 O 0.16799 0.79917 0.30456 0.0
O134 O 0.16394 0.72636 0.41723 0.0
O135 O 0.15107 0.76441 0.37667 0.0
O136 O 0.11533 0.76973 0.36053 0.0
O137 O 0.11697 0.73204 0.36333 0.0
O138 O 0.17617 0.75535 0.40444 0.0
O139 O 0.13221 0.7066 0.39271 0.0
C140 C 0.12838 0.73682 0.29923 0.0
C141 C 0.15088 0.81766 0.26551 0.0
C142 C 0.14179 0.83647 0.21866 0.0
C143 C 0.14574 0.81703 0.23085 0.0
C144 C 0.14295 0.85647 0.24189 0.0
C145 C 0.15212 0.83784 0.28809 0.0
C146 C 0.14816 0.8571 0.27628 0.0
C147 C 0.1905 0.75823 0.33237 0.0
C148 C 0.15381 0.79693 0.27793 0.0
C149 C 0.1138 0.85673 0.39079 0.0
C150 C 0.13564 0.8628 0.40668 0.0
C151 C 0.16571 0.77161 0.40131 0.0
C152 C 0.15078 0.6927 0.43584 0.0
C153 C 0.14165 0.69023 0.46595 0.0
C154 C 0.14693 0.67386 0.4839 0.0
C155 C 0.16129 0.65973 0.47164 0.0
C156 C 0.16499 0.67845 0.4233 0.0
C157 C 0.1702 0.66197 0.44122 0.0
C158 C 0.10739 0.74996 0.36853 0.0
C159 C 0.14647 0.71138 0.41969 0.0
H160 H 0.14494 0.80144 0.21348 0.0
H161 H 0.13951 0.87159 0.23359 0.0
H162 H 0.15601 0.83871 0.31486 0.0
H163 H 0.14896 0.87256 0.29388 0.0
H164 H 0.13082 0.70139 0.47585 0.0
H165 H 0.16559 0.64709 0.4856 0.0
H166 H 0.17229 0.68025 0.40013 0.0
H167 H 0.18132 0.65111 0.43173 0.0
Eu168 Eu 0.52655 0.85245 0.58478 0.0
C169 C 0.6142 0.89006 0.56823 0.0
C170 C 0.62813 0.8595 0.53583 0.0
C171 C 0.63782 0.89732 0.52366 0.0
C172 C 0.61519 0.86728 0.56114 0.0
C173 C 0.62634 0.90537 0.55033 0.0
C174 C 0.63872 0.87446 0.51644 0.0
C175 C 0.61871 0.93596 0.59026 0.0
N176 N 0.60349 0.8976 0.59478 0.0
C177 C 0.60713 0.9203 0.60738 0.0
C178 C 0.62781 0.92847 0.56102 0.0
Eu179 Eu 0.58368 0.86873 0.62108 0.0
N180 N 0.60501 0.85301 0.58043 0.0
C181 C 0.60892 0.83154 0.57784 0.0
C182 C 0.63072 0.83704 0.53145 0.0
C183 C 0.62147 0.82316 0.55301 0.0
H184 H 0.6012 0.92654 0.63095 0.0
H185 H 0.62408 0.80599 0.55062 0.0
H186 H 0.64839 0.86865 0.49661 0.0
H187 H 0.62083 0.9538 0.59991 0.0
H188 H 0.60259 0.82066 0.59482 0.0
H189 H 0.50001 0.91732 0.67365 0.0
H190 H 0.64048 0.83048 0.51228 0.0
H191 H 0.50368 0.79821 0.55949 0.0
H192 H 0.52452 0.90188 0.63449 0.0
H193 H 0.47043 0.77127 0.56879 0.0
H194 H 0.64694 0.90882 0.50945 0.0
H195 H 0.46617 0.89274 0.68606 0.0
H196 H 0.44145 0.85462 0.6762 0.0
H197 H 0.63704 0.94067 0.548 0.0
H198 H 0.43346 0.81507 0.64792 0.0
N199 N 0.50532 0.86875 0.62509 0.0
C200 C 0.50999 0.89094 0.63965 0.0
C201 C 0.47695 0.88585 0.66878 0.0
C202 C 0.4719 0.86326 0.65312 0.0
C203 C 0.49604 0.89977 0.6619 0.0
C204 C 0.4865 0.8551 0.63084 0.0
H205 H 0.44417 0.78388 0.60804 0.0
N206 N 0.49637 0.82533 0.59374 0.0
C207 C 0.47354 0.78849 0.58201 0.0
C208 C 0.48199 0.83275 0.6149 0.0
C209 C 0.49232 0.80369 0.57686 0.0
C210 C 0.45874 0.79568 0.60415 0.0
C211 C 0.4628 0.81806 0.62084 0.0
O212 O 0.50378 0.84239 0.53838 0.0
O213 O 0.56203 0.85582 0.56997 0.0
O214 O 0.56787 0.89926 0.62349 0.0
O215 O 0.54594 0.88485 0.5743 0.0
O216 O 0.53935 0.82659 0.54852 0.0
O217 O 0.51202 0.87757 0.56344 0.0
O218 O 0.6147 0.88956 0.64615 0.0
O219 O 0.54796 0.8652 0.63325 0.0
O220 O 0.5332 0.82625 0.61517 0.0
O221 O 0.57199 0.83127 0.61935 0.0
O222 O 0.57114 0.87386 0.67366 0.0
O223 O 0.60383 0.85693 0.65911 0.0
C224 C 0.55958 0.83734 0.54849 0.0
C225 C 0.47873 0.86699 0.52738 0.0
C226 C 0.45813 0.88593 0.49019 0.0
C227 C 0.47813 0.88381 0.50786 0.0
C228 C 0.43816 0.87265 0.49701 0.0
C229 C 0.45888 0.85401 0.53383 0.0
C230 C 0.43859 0.85732 0.51929 0.0
C231 C 0.55611 0.90207 0.59675 0.0
C232 C 0.50074 0.86302 0.53837 0.0
C233 C 0.44828 0.82612 0.64305 0.0
C234 C 0.45282 0.84865 0.65914 0.0
C235 C 0.54995 0.86828 0.66563 0.0
C236 C 0.61794 0.88785 0.70362 0.0
C237 C 0.61067 0.87528 0.72808 0.0
C238 C 0.61037 0.88571 0.76153 0.0
C239 C 0.6164 0.90929 0.76995 0.0
C240 C 0.62422 0.91141 0.71261 0.0
C241 C 0.62315 0.92202 0.74549 0.0
C242 C 0.55222 0.82056 0.62488 0.0
C243 C 0.61681 0.87666 0.66819 0.0
H244 H 0.49381 0.89438 0.50547 0.0
H245 H 0.42214 0.87308 0.48434 0.0
H246 H 0.4591 0.84123 0.5495 0.0
H247 H 0.42316 0.84719 0.52398 0.0
H248 H 0.60512 0.85725 0.72096 0.0
H249 H 0.61669 0.91788 0.79558 0.0
H250 H 0.62956 0.92169 0.69414 0.0
H251 H 0.62786 0.94016 0.75214 0.0
Eu252 Eu 0.38694 0.20503 0.97479 0.0
C253 C 0.4388 0.30558 0.97805 0.0
C254 C 0.41297 0.33005 0.99536 0.0
C255 C 0.45276 0.34502 1.00232 0.0
C256 C 0.41692 0.30876 0.98079 0.0
C257 C 0.45686 0.32375 0.98901 0.0
C258 C 0.43092 0.34814 1.00556 0.0
C259 C 0.4821 0.29887 0.97228 0.0
N260 N 0.44249 0.28474 0.96548 0.0
C261 C 0.46383 0.28132 0.96183 0.0
C262 C 0.47862 0.32013 0.98606 0.0
Eu263 Eu 0.40983 0.25764 0.94306 0.0
N264 N 0.39967 0.29091 0.97109 0.0
C265 C 0.37834 0.2932 0.97658 0.0
C266 C 0.39109 0.33252 0.99997 0.0
C267 C 0.37378 0.31397 0.99093 0.0
H268 H 0.46673 0.26514 0.94985 0.0
H269 H 0.35685 0.31564 0.99509 0.0
H270 H 0.42809 0.36461 1.01644 0.0
H271 H 0.49882 0.29621 0.96867 0.0
H272 H 0.36458 0.2792 0.97062 0.0
H273 H 0.43354 0.14478 0.91233 0.0
H274 H 0.38743 0.34858 1.01112 0.0
H275 H 0.33306 0.19706 0.98555 0.0
H276 H 0.42865 0.17899 0.94931 0.0
H277 H 0.2982 0.16962 0.96399 0.0
H278 H 0.46643 0.35915 1.01053 0.0
H279 H 0.40063 0.11773 0.88228 0.0
H280 H 0.35895 0.10607 0.87247 0.0
H281 H 0.49283 0.33374 0.99384 0.0
H282 H 0.322 0.11281 0.88652 0.0
N283 N 0.39317 0.17214 0.93981 0.0
C284 C 0.41403 0.16747 0.93659 0.0
C285 C 0.39834 0.13285 0.89848 0.0
C286 C 0.37699 0.13702 0.90348 0.0
C287 C 0.41694 0.14801 0.9155 0.0
C288 C 0.37493 0.15705 0.92463 0.0
H289 H 0.2992 0.13627 0.92109 0.0
N290 N 0.35309 0.17983 0.95402 0.0
C291 C 0.3138 0.16709 0.95454 0.0
C292 C 0.3542 0.161 0.93205 0.0
C293 C 0.33348 0.18256 0.96666 0.0
C294 C 0.31443 0.14833 0.93026 0.0
C295 C 0.33487 0.14484 0.91919 0.0
O296 O 0.37434 0.19699 1.02142 0.0
O297 O 0.39707 0.24208 0.98516 0.0
O298 O 0.43565 0.24951 0.98068 0.0
O299 O 0.42423 0.21201 0.98579 0.0
O300 O 0.3726 0.22978 1.01202 0.0
O301 O 0.40563 0.18832 1.00764 0.0
O302 O 0.4324 0.26039 0.90376 0.0
O303 O 0.40746 0.21999 0.9376 0.0
O304 O 0.3605 0.21215 0.93715 0.0
O305 O 0.37208 0.25019 0.93252 0.0
O306 O 0.39933 0.23267 0.895 0.0
O307 O 0.40304 0.27632 0.90319 0.0
C308 C 0.38575 0.24797 1.00851 0.0
C309 C 0.3851 0.16543 0.03996 0.0
C310 C 0.39171 0.14211 0.08168 0.0
C311 C 0.39669 0.1624 0.06944 0.0
C312 C 0.37526 0.12456 0.06321 0.0
C313 C 0.36887 0.14784 1.02161 0.0
C314 C 0.36404 0.12742 0.03324 0.0
C315 C 0.43838 0.23129 0.99304 0.0
C316 C 0.39074 0.18707 0.02889 0.0
C317 C 0.33668 0.12533 0.89692 0.0
C318 C 0.35772 0.12146 0.88897 0.0
C319 C 0.4014 0.2148 0.90649 0.0
C320 C 0.4329 0.29164 0.87471 0.0
C321 C 0.42559 0.29471 0.84235 0.0
C322 C 0.43626 0.31302 0.82885 0.0
C323 C 0.4545 0.32809 0.84777 0.0
C324 C 0.45107 0.30695 0.89314 0.0
C325 C 0.46185 0.32501 0.87977 0.0
C326 C 0.35728 0.23101 0.92685 0.0
C327 C 0.42081 0.27274 0.88856 0.0
H328 H 0.40968 0.17596 0.08276 0.0
H329 H 0.37075 0.1088 0.07218 0.0
H330 H 0.35996 0.14988 0.99853 0.0
H331 H 0.35141 0.11386 1.0192 0.0
H332 H 0.41147 0.28305 0.82788 0.0
H333 H 0.46326 0.34208 0.83759 0.0
H334 H 0.45706 0.30524 0.91777 0.0
H335 H 0.47593 0.33662 0.89426 0.0
Eu336 Eu 0.05368 0.88241 0.84147 0.0
C337 C 0.95977 0.82503 0.83451 0.0
C338 C 0.93218 0.84704 0.8201 0.0
C339 C 0.92406 0.80636 0.80348 0.0
C340 C 0.95348 0.84595 0.83502 0.0
C341 C 0.94475 0.80506 0.81966 0.0
C342 C 0.91783 0.82726 0.80363 0.0
C343 C 0.97019 0.78364 0.842 0.0
N344 N 0.97969 0.824 0.85094 0.0
C345 C 0.98458 0.80373 0.85632 0.0
C346 C 0.9504 0.78428 0.82303 0.0
Eu347 Eu 0.00155 0.85921 0.87631 0.0
N348 N 0.9674 0.86498 0.85174 0.0
C349 C 0.96055 0.88521 0.85604 0.0
C350 C 0.92552 0.86791 0.82317 0.0
C351 C 0.93962 0.88699 0.84162 0.0
H352 H -6e-05 0.80321 0.87101 0.0
H353 H 0.93438 0.9031 0.84478 0.0
H354 H 0.90151 0.82789 0.79187 0.0
H355 H 0.97427 0.76769 0.84594 0.0
H356 H 0.97091 0.90012 0.87067 0.0
H357 H 0.11548 0.83963 0.89471 0.0
H358 H 0.90928 0.86938 0.81213 0.0
H359 H 0.0589 0.93597 0.83322 0.0
H360 H 0.08091 0.84247 0.86202 0.0
H361 H 0.08517 0.97224 0.85277 0.0
H362 H 0.91242 0.79121 0.79173 0.0
H363 H 0.14181 0.87415 0.92244 0.0
H364 H 0.15228 0.9164 0.93226 0.0
H365 H 0.93919 0.76863 0.8122 0.0
H366 H 0.14408 0.95259 0.92075 0.0
N367 N 0.08687 0.87832 0.87215 0.0
C368 C 0.0921 0.85772 0.87402 0.0
C369 C 0.12651 0.87552 0.90829 0.0
C370 C 0.12169 0.89655 0.90461 0.0
C371 C 0.11175 0.856 0.89258 0.0
C372 C 0.10147 0.89738 0.88613 0.0
H373 H 0.11925 0.97356 0.89065 0.0
N374 N 0.07765 0.91749 0.86077 0.0
C375 C 0.08855 0.95704 0.86087 0.0
C376 C 0.09674 0.91766 0.8801 0.0
C377 C 0.07374 0.93658 0.84988 0.0
C378 C 0.10773 0.95772 0.88233 0.0
C379 C 0.11223 0.93781 0.89177 0.0
O380 O 0.06077 0.89271 0.79336 0.0
O381 O 0.01706 0.87502 0.83691 0.0
O382 O 0.00757 0.83559 0.83028 0.0
O383 O 0.04591 0.84438 0.83222 0.0
O384 O 0.02937 0.89497 0.80601 0.0
O385 O 0.06991 0.86213 0.80512 0.0
O386 O -0.00087 0.83852 0.91564 0.0
O387 O 0.03905 0.86148 0.87815 0.0
O388 O 0.046 0.90908 0.88334 0.0
O389 O 0.0076 0.89734 0.88621 0.0
O390 O 0.02608 0.86972 0.92291 0.0
O391 O 0.98013 0.86574 0.91592 0.0
C392 C 0.0109 0.88336 0.81217 0.0
C393 C 0.09129 0.88076 0.76851 0.0
C394 C 0.11327 0.87296 0.72178 0.0
C395 C 0.09302 0.86946 0.73607 0.0
C396 C 0.13168 0.88815 0.74008 0.0
C397 C 0.10976 0.8959 0.7865 0.0
C398 C 0.12985 0.89963 0.77219 0.0
C399 C 0.02657 0.83153 0.81977 0.0
C400 C 0.07036 0.8758 0.78352 0.0
C401 C 0.13203 0.93726 0.91132 0.0
C402 C 0.13671 0.91666 0.91783 0.0
C403 C 0.04401 0.8677 0.90947 0.0
C404 C 0.96608 0.83551 0.94328 0.0
C405 C 0.9637 0.83956 0.97784 0.0
C406 C 0.94576 0.82717 0.9908 0.0
C407 C 0.93046 0.81037 0.96885 0.0
C408 C 0.95049 0.81885 0.92174 0.0
C409 C 0.93288 0.80625 0.93452 0.0
C410 C 0.02661 0.91214 0.89449 0.0
C411 C 0.98473 0.84917 0.93054 0.0
H412 H 0.07879 0.85755 0.72233 0.0
H413 H 0.14742 0.8912 0.72944 0.0
H414 H 0.10867 0.90468 0.81157 0.0
H415 H 0.14409 0.91133 0.78609 0.0
H416 H 0.97558 0.85262 0.99452 0.0
H417 H 0.91673 0.8003 0.9783 0.0
H418 H 0.95173 0.81556 0.89515 0.0
H419 H 0.92102 0.7933 0.91775 0.0
Eu420 Eu 0.41242 0.7938 0.11392 0.0
C421 C 0.40066 0.70252 0.13948 0.0
C422 C 0.36195 0.68631 0.12157 0.0
C423 C 0.39053 0.66495 0.10578 0.0
C424 C 0.37862 0.70445 0.13824 0.0
C425 C 0.40673 0.68216 0.12519 0.0
C426 C 0.36811 0.6671 0.10375 0.0
C427 C 0.44297 0.69555 0.15602 0.0
N428 N 0.41592 0.71966 0.1578 0.0
C429 C 0.43632 0.71576 0.16839 0.0
C430 C 0.4285 0.67915 0.13285 0.0
Eu431 Eu 0.40394 0.75375 0.1782 0.0
N432 N 0.37341 0.72297 0.15668 0.0
C433 C 0.35186 0.72241 0.16414 0.0
C434 C 0.33965 0.68736 0.12526 0.0
C435 C 0.33464 0.70514 0.14761 0.0
H436 H 0.44712 0.72775 0.18765 0.0
H437 H 0.31754 0.70544 0.15246 0.0
H438 H 0.35558 0.65323 0.09019 0.0
H439 H 0.45909 0.69246 0.16475 0.0
H440 H 0.34772 0.73549 0.18249 0.0
H441 H 0.48279 0.85813 0.17598 0.0
H442 H 0.32634 0.67384 0.11285 0.0
H443 H 0.36611 0.80356 0.07162 0.0
H444 H 0.46381 0.82048 0.14612 0.0
H445 H 0.34329 0.83331 0.07393 0.0
H446 H 0.39499 0.64946 0.09383 0.0
H447 H 0.46116 0.88843 0.18866 0.0
H448 H 0.42457 0.90149 0.18229 0.0
H449 H 0.43375 0.6636 0.12306 0.0
H450 H 0.38611 0.89448 0.15494 0.0
N451 N 0.43187 0.82948 0.14173 0.0
C452 C 0.45429 0.83367 0.15106 0.0
C453 C 0.45282 0.87203 0.17516 0.0
C454 C 0.43009 0.86793 0.16376 0.0
C455 C 0.4651 0.85499 0.16796 0.0
C456 C 0.4201 0.84633 0.14613 0.0
H457 H 0.35581 0.86925 0.11367 0.0
N458 N 0.39047 0.82213 0.11099 0.0
C459 C 0.3587 0.83602 0.09025 0.0
C460 C 0.39858 0.84245 0.1306 0.0
C461 C 0.37166 0.8193 0.08888 0.0
C462 C 0.36578 0.85625 0.11282 0.0
C463 C 0.38632 0.85997 0.13251 0.0
O464 O 0.40806 0.78774 0.05801 0.0
O465 O 0.4074 0.75779 0.12374 0.0
O466 O 0.44071 0.76502 0.17514 0.0
O467 O 0.44355 0.78071 0.126 0.0
O468 O 0.38668 0.76523 0.08538 0.0
O469 O 0.43912 0.80572 0.08297 0.0
O470 O 0.42591 0.75261 0.22392 0.0
O471 O 0.41634 0.78899 0.16854 0.0
O472 O 0.37879 0.7945 0.1328 0.0
O473 O 0.37146 0.76393 0.1617 0.0
O474 O 0.39613 0.78527 0.20768 0.0
O475 O 0.39092 0.74332 0.22423 0.0
C476 C 0.39225 0.7493 0.0998 0.0
C477 C 0.42864 0.81463 0.02827 0.0
C478 C 0.44075 0.82906 0.97595 0.0
C479 C 0.44072 0.81297 0.99865 0.0
C480 C 0.42789 0.8458 0.98337 0.0
C481 C 0.41688 0.83227 0.03405 0.0
C482 C 0.41631 0.84739 1.01181 0.0
C483 C 0.45169 0.77127 0.15022 0.0
C484 C 0.42764 0.79856 0.05364 0.0
C485 C 0.39544 0.88094 0.15258 0.0
C486 C 0.41735 0.88494 0.16812 0.0
C487 C 0.40774 0.79946 0.19219 0.0
C488 C 0.4136 0.72489 0.25861 0.0
C489 C 0.41998 0.72656 0.29436 0.0
C490 C 0.42231 0.70683 0.30886 0.0
C491 C 0.4189 0.68618 0.28652 0.0
C492 C 0.40994 0.7035 0.2385 0.0
C493 C 0.41286 0.68458 0.25213 0.0
C494 C 0.36542 0.77989 0.14637 0.0
C495 C 0.41022 0.74463 0.24123 0.0
H496 H 0.45023 0.79971 0.99378 0.0
H497 H 0.4268 0.85804 0.96695 0.0
H498 H 0.40796 0.83442 0.05603 0.0
H499 H 0.40683 0.86068 1.0168 0.0
H500 H 0.42258 0.7428 0.31065 0.0
H501 H 0.42086 0.6709 0.29578 0.0
H502 H 0.40458 0.70129 0.2119 0.0
H503 H 0.41017 0.66833 0.23582 0.0
Eu504 Eu 0.48886 0.12059 0.46006 0.0
C505 C 0.58039 0.09218 0.44588 0.0
C506 C 0.60601 0.11839 0.48863 0.0
C507 C 0.61227 0.08029 0.47237 0.0
C508 C 0.58651 0.11323 0.46574 0.0
C509 C 0.59372 0.07576 0.44801 0.0
C510 C 0.61839 0.10158 0.49268 0.0
C511 C 0.5718 0.05326 0.39816 0.0
N512 N 0.56279 0.0886 0.42195 0.0
C513 C 0.55926 0.07018 0.39686 0.0
C514 C 0.58879 0.05583 0.42431 0.0
Eu515 Eu 0.54212 0.11782 0.42118 0.0
N516 N 0.57459 0.12926 0.4604 0.0
C517 C 0.58236 0.15121 0.47516 0.0
C518 C 0.61315 0.14056 0.50545 0.0
C519 C 0.60153 0.15713 0.49811 0.0
H520 H 0.54616 0.06826 0.37656 0.0
H521 H 0.60727 0.17447 0.51019 0.0
H522 H 0.63327 0.10518 0.5104 0.0
H523 H 0.56839 0.03829 0.37895 0.0
H524 H 0.57377 0.16437 0.46991 0.0
H525 H 0.42619 0.04413 0.40619 0.0
H526 H 0.62806 0.14522 0.52316 0.0
H527 H 0.4722 0.17112 0.47562 0.0
H528 H 0.45601 0.06705 0.44758 0.0
H529 H 0.44923 0.19286 0.44627 0.0
H530 H 0.62255 0.0678 0.47468 0.0
H531 H 0.40745 0.06161 0.3638 0.0
H532 H 0.40112 0.09705 0.34397 0.0
H533 H 0.59863 0.04282 0.42508 0.0
H534 H 0.40746 0.13843 0.35513 0.0
N535 N 0.45658 0.09703 0.42643 0.0
C536 C 0.44881 0.07491 0.42841 0.0
C537 C 0.421 0.07172 0.38144 0.0
C538 C 0.42677 0.09494 0.38271 0.0
C539 C 0.43154 0.0618 0.40529 0.0
C540 C 0.44449 0.10732 0.40633 0.0
H541 H 0.42491 0.17446 0.39414 0.0
N542 N 0.46329 0.14148 0.43832 0.0
C543 C 0.44904 0.17541 0.43596 0.0
C544 C 0.44799 0.13045 0.41255 0.0
C545 C 0.46233 0.16309 0.45222 0.0
C546 C 0.43537 0.16498 0.40658 0.0
C547 C 0.43394 0.14195 0.3954 0.0
O548 O 0.4843 0.1421 0.5066 0.0
O549 O 0.52629 0.12677 0.46784 0.0
O550 O 0.53016 0.08459 0.43723 0.0
O551 O 0.49226 0.08479 0.44096 0.0
O552 O 0.50935 0.10834 0.49982 0.0
O553 O 0.46981 0.10643 0.49732 0.0
O554 O 0.54473 0.11503 0.36717 0.0
O555 O 0.50668 0.12171 0.41464 0.0
O556 O 0.50456 0.15634 0.45491 0.0
O557 O 0.53946 0.15407 0.43636 0.0
O558 O 0.51639 0.09803 0.3791 0.0
O559 O 0.56732 0.14099 0.40177 0.0
C560 C 0.52866 0.11731 0.49295 0.0
C561 C 0.45167 0.13022 0.53174 0.0
C562 C 0.432 0.13498 0.58168 0.0
C563 C 0.4512 0.13139 0.56642 0.0
C564 C 0.41303 0.13703 0.56134 0.0
C565 C 0.43267 0.13206 0.5116 0.0
C566 C 0.4134 0.13549 0.52647 0.0
C567 C 0.5095 0.07461 0.43943 0.0
C568 C 0.47186 0.12567 0.51736 0.0
C569 C 0.41798 0.12985 0.36921 0.0
C570 C 0.41439 0.1063 0.36285 0.0
C571 C 0.5003 0.1081 0.38763 0.0
C572 C 0.58049 0.12534 0.35183 0.0
C573 C 0.58137 0.13035 0.31936 0.0
C574 C 0.59767 0.12373 0.29954 0.0
C575 C 0.61308 0.1119 0.31249 0.0
C576 C 0.59612 0.11381 0.36478 0.0
C577 C 0.61232 0.10705 0.34505 0.0
C578 C 0.52411 0.16557 0.44639 0.0
C579 C 0.56218 0.13093 0.37066 0.0
H580 H 0.4658 0.12909 0.5814 0.0
H581 H 0.39803 0.14011 0.57233 0.0
H582 H 0.43266 0.1306 0.48455 0.0
H583 H 0.39872 0.13698 0.51097 0.0
H584 H 0.56906 0.139 0.30927 0.0
H585 H 0.62588 0.1067 0.29761 0.0
H586 H 0.59575 0.10993 0.38991 0.0
H587 H 0.62428 0.09804 0.35501 0.0
Eu588 Eu 0.11453 0.21917 0.66149 0.0
C589 C 0.17443 0.29672 0.72668 0.0
C590 C 0.15023 0.32308 0.74295 0.0
C591 C 0.18241 0.32196 0.78096 0.0
C592 C 0.1556 0.30562 0.71945 0.0
C593 C 0.18854 0.30565 0.75691 0.0
C594 C 0.16325 0.33059 0.77406 0.0
C595 C 0.21592 0.28508 0.73494 0.0
N596 N 0.18031 0.2812 0.70286 0.0
C597 C 0.20155 0.27694 0.70544 0.0
C598 C 0.20912 0.299 0.76124 0.0
Eu599 Eu 0.15444 0.26754 0.65389 0.0
N600 N 0.14347 0.29844 0.68875 0.0
C601 C 0.12708 0.3096 0.67932 0.0
C602 C 0.13242 0.33319 0.7341 0.0
C603 C 0.1211 0.3267 0.70195 0.0
H604 H 0.20767 0.26723 0.68472 0.0
H605 H 0.10788 0.33508 0.69436 0.0
H606 H 0.15917 0.34377 0.79241 0.0
H607 H 0.23237 0.28092 0.73708 0.0
H608 H 0.11858 0.30608 0.65426 0.0
H609 H 0.16958 0.1626 0.6139 0.0
H610 H 0.12784 0.3466 0.75145 0.0
H611 H 0.06042 0.21751 0.63745 0.0
H612 H 0.16105 0.19819 0.64105 0.0
H613 H 0.02865 0.19037 0.60439 0.0
H614 H 0.19291 0.32873 0.8044 0.0
H615 H 0.13916 0.13202 0.58506 0.0
H616 H 0.09848 0.11879 0.56589 0.0
H617 H 0.22043 0.3056 0.78393 0.0
H618 H 0.06048 0.12673 0.56185 0.0
N619 N 0.12591 0.18821 0.6293 0.0
C620 C 0.14748 0.18514 0.62939 0.0
C621 C 0.13523 0.14767 0.59739 0.0
C622 C 0.11323 0.15114 0.59628 0.0
C623 C 0.15244 0.16488 0.6136 0.0
C624 C 0.109 0.17189 0.61262 0.0
H625 H 0.03447 0.15351 0.57526 0.0
N626 N 0.08419 0.19691 0.62482 0.0
C627 C 0.04518 0.18636 0.60541 0.0
C628 C 0.08763 0.17655 0.60975 0.0
C629 C 0.06323 0.20178 0.6237 0.0
C630 C 0.04852 0.16554 0.58913 0.0
C631 C 0.06988 0.16034 0.59132 0.0
O632 O 0.08703 0.20874 0.69012 0.0
O633 O 0.13295 0.2526 0.6919 0.0
O634 O 0.17285 0.24106 0.66864 0.0
O635 O 0.14655 0.22082 0.69554 0.0
O636 O 0.09842 0.24647 0.68916 0.0
O637 O 0.11613 0.19302 0.69201 0.0
O638 O 0.18652 0.27444 0.63379 0.0
O639 O 0.13855 0.23221 0.62645 0.0
O640 O 0.09887 0.23507 0.62127 0.0
O641 O 0.12099 0.27089 0.6301 0.0
O642 O 0.14968 0.25474 0.59697 0.0
O643 O 0.16503 0.29915 0.63621 0.0
C644 C 0.11631 0.25982 0.70434 0.0
C645 C 0.09874 0.19889 0.74199 0.0
C646 C 0.1114 0.18827 0.79475 0.0
C647 C 0.10983 0.18525 0.75944 0.0
C648 C 0.10162 0.2051 0.81247 0.0
C649 C 0.08907 0.2156 0.76019 0.0
C650 C 0.09056 0.21865 0.79524 0.0
C651 C 0.16753 0.2284 0.69139 0.0
C652 C 0.09766 0.19567 0.70498 0.0
C653 C 0.07393 0.13943 0.57594 0.0
C654 C 0.09554 0.13485 0.57839 0.0
C655 C 0.1397 0.23417 0.59502 0.0
C656 C 0.18713 0.29601 0.5906 0.0
C657 C 0.16973 0.29766 0.56692 0.0
C658 C 0.17359 0.29834 0.53334 0.0
C659 C 0.19505 0.29776 0.52357 0.0
C660 C 0.20852 0.29567 0.58055 0.0
C661 C 0.21244 0.29658 0.54717 0.0
C662 C 0.10373 0.25576 0.61475 0.0
C663 C 0.18307 0.29331 0.62527 0.0
H664 H 0.11737 0.17239 0.74553 0.0
H665 H 0.10206 0.20747 0.83967 0.0
H666 H 0.08039 0.22639 0.74746 0.0
H667 H 0.08302 0.23149 0.80909 0.0
H668 H 0.15312 0.29788 0.57428 0.0
H669 H 0.19841 0.29852 0.49778 0.0
H670 H 0.22212 0.2944 0.59846 0.0
H671 H 0.22897 0.29625 0.53952 0.0
Eu672 Eu 0.91489 0.2911 0.615 0.0
C673 C 0.91145 0.19688 0.64335 0.0
C674 C 0.87391 0.17944 0.6188 0.0
C675 C 0.90382 0.15826 0.61317 0.0
C676 C 0.88922 0.19823 0.637 0.0
C677 C 0.91872 0.17651 0.63284 0.0
C678 C 0.88148 0.15977 0.60599 0.0
C679 C 0.95398 0.19254 0.666 0.0
N680 N 0.92551 0.21475 0.66243 0.0
C681 C 0.94601 0.21235 0.67575 0.0
C682 C 0.94046 0.17472 0.64379 0.0
Eu683 Eu 0.91098 0.24814 0.6761 0.0
N684 N 0.88228 0.2173 0.65045 0.0
C685 C 0.86003 0.21788 0.64873 0.0
C686 C 0.85132 0.18069 0.61498 0.0
C687 C 0.84431 0.19985 0.63053 0.0
H688 H 0.95662 0.2262 0.69272 0.0
H689 H 0.82676 0.20066 0.62883 0.0
H690 H 0.87001 0.14532 0.59163 0.0
H691 H 0.97054 0.19106 0.67557 0.0
H692 H 0.85404 0.23192 0.66173 0.0
H693 H 0.98316 0.35921 0.67428 0.0
H694 H 0.83907 0.16666 0.60112 0.0
H695 H 0.86522 0.29546 0.57753 0.0
H696 H 0.96584 0.32074 0.64663 0.0
H697 H 0.84091 0.32377 0.57691 0.0
H698 H 0.90921 0.14262 0.6044 0.0
H699 H 0.96043 0.38891 0.68167 0.0
H700 H 0.92344 0.40042 0.67122 0.0
H701 H 0.94663 0.15933 0.63637 0.0
H702 H 0.8846 0.39071 0.64506 0.0
N703 N 0.93335 0.32816 0.63919 0.0
C704 C 0.95566 0.33342 0.64962 0.0
C705 C 0.95272 0.37202 0.66935 0.0
C706 C 0.93018 0.36685 0.65674 0.0
C707 C 0.9656 0.3553 0.66524 0.0
C708 C 0.92094 0.34453 0.64115 0.0
H709 H 0.85379 0.36226 0.60936 0.0
N710 N 0.89113 0.31761 0.61087 0.0
C711 C 0.85717 0.32824 0.59125 0.0
C712 C 0.89909 0.33906 0.62675 0.0
C713 C 0.87096 0.3123 0.59155 0.0
C714 C 0.86449 0.34994 0.60964 0.0
C715 C 0.88587 0.35574 0.62711 0.0
O716 O 0.90987 0.28463 0.55919 0.0
O717 O 0.90872 0.25513 0.62276 0.0
O718 O 0.93908 0.24549 0.64511 0.0
O719 O 0.94787 0.28168 0.63246 0.0
O720 O 0.88784 0.26329 0.58628 0.0
O721 O 0.94157 0.30179 0.58333 0.0
O722 O 0.929 0.24745 0.72521 0.0
O723 O 0.91784 0.28405 0.66813 0.0
O724 O 0.88466 0.29447 0.64302 0.0
O725 O 0.88045 0.2648 0.67474 0.0
O726 O 0.93618 0.27684 0.70838 0.0
O727 O 0.89335 0.23803 0.71872 0.0
C728 C 0.89299 0.24691 0.5999 0.0
C729 C 0.93024 0.31174 0.52975 0.0
C730 C 0.94189 0.32712 0.478 0.0
C731 C 0.94201 0.31057 0.49987 0.0
C732 C 0.92928 0.34393 0.48652 0.0
C733 C 0.91846 0.32931 0.53649 0.0
C734 C 0.91786 0.34499 0.51514 0.0
C735 C 0.95339 0.26299 0.64055 0.0
C736 C 0.92948 0.29518 0.55434 0.0
C737 C 0.89462 0.37774 0.64403 0.0
C738 C 0.91674 0.38328 0.65885 0.0
C739 C 0.93217 0.29269 0.69274 0.0
C740 C 0.91328 0.21995 0.75752 0.0
C741 C 0.92029 0.22237 0.79311 0.0
C742 C 0.92145 0.20294 0.80878 0.0
C743 C 0.91618 0.18173 0.78771 0.0
C744 C 0.90801 0.19818 0.73853 0.0
C745 C 0.90962 0.17943 0.75336 0.0
C746 C 0.87362 0.2816 0.66212 0.0
C747 C 0.91147 0.23945 0.73912 0.0
H748 H 0.95136 0.29725 0.4941 0.0
H749 H 0.92809 0.3565 0.47071 0.0
H750 H 0.90949 0.33093 0.55846 0.0
H751 H 0.90841 0.35823 0.5209 0.0
H752 H 0.92434 0.239 0.80839 0.0
H753 H 0.91717 0.16657 0.79793 0.0
H754 H 0.90257 0.19559 0.71188 0.0
H755 H 0.90561 0.16282 0.73801 0.0
Eu756 Eu 0.61843 0.71782 0.15766 0.0
C757 C 0.67583 0.80527 0.21895 0.0
C758 C 0.64917 0.82831 0.23758 0.0
C759 C 0.68626 0.83568 0.26736 0.0
C760 C 0.65464 0.81046 0.21486 0.0
C761 C 0.69198 0.81838 0.24467 0.0
C762 C 0.6649 0.84055 0.26395 0.0
C763 C 0.71942 0.79826 0.22188 0.0
N764 N 0.68122 0.78846 0.19679 0.0
C765 C 0.70304 0.78567 0.19707 0.0
C766 C 0.71379 0.81442 0.24619 0.0
Eu767 Eu 0.65293 0.76944 0.15288 0.0
N768 N 0.63971 0.79879 0.18845 0.0
C769 C 0.61906 0.80445 0.18416 0.0
C770 C 0.62813 0.83379 0.233 0.0
C771 C 0.61309 0.82185 0.20616 0.0
H772 H 0.7081 0.7734 0.17843 0.0
H773 H 0.59667 0.82592 0.20252 0.0
H774 H 0.66085 0.85421 0.28145 0.0
H775 H 0.73641 0.79548 0.22216 0.0
H776 H 0.60635 0.79556 0.16473 0.0
H777 H 0.68742 0.67809 0.11407 0.0
H778 H 0.62338 0.8473 0.24994 0.0
H779 H 0.56526 0.70614 0.12727 0.0
H780 H 0.6711 0.70925 0.14043 0.0
H781 H 0.53876 0.67581 0.08883 0.0
H782 H 0.69842 0.84575 0.28726 0.0
H783 H 0.6631 0.64372 0.08173 0.0
H784 H 0.62471 0.62358 0.05746 0.0
H785 H 0.72658 0.82425 0.26537 0.0
H786 H 0.58459 0.62375 0.04848 0.0
N787 N 0.63744 0.69278 0.12516 0.0
C788 C 0.66006 0.69437 0.12739 0.0
C789 C 0.65572 0.65732 0.09382 0.0
C790 C 0.63264 0.65612 0.09023 0.0
C791 C 0.66949 0.67671 0.11197 0.0
C792 C 0.62386 0.67436 0.10635 0.0
H793 H 0.55259 0.64351 0.05892 0.0
N794 N 0.59362 0.6929 0.11514 0.0
C795 C 0.5564 0.67558 0.09116 0.0
C796 C 0.60137 0.67471 0.10045 0.0
C797 C 0.57137 0.69308 0.11194 0.0
C798 C 0.56425 0.65724 0.07463 0.0
C799 C 0.58693 0.65648 0.07948 0.0
O800 O 0.5898 0.70215 0.18042 0.0
O801 O 0.63389 0.75165 0.19036 0.0
O802 O 0.6732 0.74751 0.17781 0.0
O803 O 0.64817 0.71996 0.19523 0.0
O804 O 0.59993 0.74122 0.18988 0.0
O805 O 0.62046 0.6889 0.18177 0.0
O806 O 0.68335 0.77119 0.12823 0.0
O807 O 0.64085 0.73378 0.12251 0.0
O808 O 0.59834 0.73551 0.12558 0.0
O809 O 0.61925 0.77169 0.12683 0.0
O810 O 0.64372 0.75997 0.09623 0.0
O811 O 0.66802 0.80082 0.13787 0.0
C812 C 0.61673 0.7565 0.20412 0.0
C813 C 0.59601 0.68068 0.22288 0.0
C814 C 0.60852 0.66845 0.27394 0.0
C815 C 0.61346 0.67748 0.24515 0.0
C816 C 0.58629 0.66309 0.28098 0.0
C817 C 0.57383 0.67519 0.2301 0.0
C818 C 0.56903 0.66655 0.25918 0.0
C819 C 0.66828 0.73189 0.19647 0.0
C820 C 0.60016 0.68705 0.19017 0.0
C821 C 0.59547 0.63795 0.06448 0.0
C822 C 0.61827 0.63777 0.06981 0.0
C823 C 0.63849 0.73832 0.09213 0.0
C824 C 0.6894 0.797 0.0916 0.0
C825 C 0.67249 0.79819 0.06708 0.0
C826 C 0.67757 0.80079 0.03462 0.0
C827 C 0.69979 0.80279 0.027 0.0
C828 C 0.71154 0.79909 0.08392 0.0
C829 C 0.71671 0.8021 0.05169 0.0
C830 C 0.60097 0.75596 0.11794 0.0
C831 C 0.68412 0.79211 0.12458 0.0
H832 H 0.63067 0.6813 0.23977 0.0
H833 H 0.58233 0.65603 0.30328 0.0
H834 H 0.56017 0.67711 0.21282 0.0
H835 H 0.55191 0.66216 0.26451 0.0
H836 H 0.65536 0.79664 0.07293 0.0
H837 H 0.70408 0.80519 1.00211 0.0
H838 H 0.72474 0.79814 0.10273 0.0
H839 H 0.73381 0.80373 0.04578 0.0
Eu840 Eu 0.63938 0.27989 0.8279 0.0
C841 C 0.67736 0.19078 0.83107 0.0
C842 C 0.65167 0.16005 0.79534 0.0
C843 C 0.69095 0.15816 0.80397 0.0
C844 C 0.65599 0.18143 0.81614 0.0
C845 C 0.69498 0.17901 0.82579 0.0
C846 C 0.66934 0.14872 0.78874 0.0
C847 C 0.7187 0.2081 0.86688 0.0
N848 N 0.68058 0.21064 0.85275 0.0
C849 C 0.70065 0.219 0.8716 0.0
C850 C 0.71593 0.18813 0.8436 0.0
Eu851 Eu 0.64917 0.22794 0.8597 0.0
N852 N 0.63918 0.19252 0.82376 0.0
C853 C 0.61752 0.18247 0.81335 0.0
C854 C 0.62961 0.15031 0.78285 0.0
C855 C 0.61243 0.16145 0.79229 0.0
H856 H 0.70285 0.23438 0.88972 0.0
H857 H 0.59526 0.15384 0.78342 0.0
H858 H 0.66636 0.13234 0.77269 0.0
H859 H 0.73469 0.21503 0.88131 0.0
H860 H 0.60407 0.19081 0.82072 0.0
H861 H 0.69959 0.34438 0.91417 0.0
H862 H 0.6256 0.13395 0.76674 0.0
H863 H 0.58711 0.28204 0.80064 0.0
H864 H 0.6874 0.31126 0.86988 0.0
H865 H 0.55771 0.30363 0.8165 0.0
H866 H 0.7043 0.14892 0.79945 0.0
H867 H 0.67187 0.36537 0.93846 0.0
H868 H 0.63208 0.37065 0.93751 0.0
H869 H 0.72988 0.17959 0.84027 0.0
H870 H 0.59339 0.35959 0.91086 0.0
N871 N 0.65293 0.31278 0.86896 0.0
C872 C 0.67504 0.32009 0.87994 0.0
C873 C 0.66638 0.35073 0.9189 0.0
C874 C 0.64389 0.34388 0.90637 0.0
C875 C 0.68207 0.33897 0.90521 0.0
C876 C 0.63765 0.32469 0.88089 0.0
H877 H 0.56559 0.3349 0.86525 0.0
N878 N 0.61098 0.30066 0.84044 0.0
C879 C 0.574 0.3079 0.83078 0.0
C880 C 0.61595 0.31845 0.8661 0.0
C881 C 0.59064 0.29578 0.82179 0.0
C882 C 0.57848 0.32549 0.85837 0.0
C883 C 0.59979 0.33123 0.87607 0.0
O884 O 0.63045 0.28417 0.77634 0.0
O885 O 0.6412 0.24371 0.8154 0.0
O886 O 0.67647 0.23798 0.82827 0.0
O887 O 0.67596 0.27634 0.83302 0.0
O888 O 0.61608 0.25442 0.7883 0.0
O889 O 0.66183 0.30246 0.80316 0.0
O890 O 0.65661 0.2259 0.91246 0.0
O891 O 0.64616 0.2637 0.87175 0.0
O892 O 0.61016 0.26732 0.85448 0.0
O893 O 0.61209 0.22937 0.85303 0.0
O894 O 0.67073 0.25467 0.90062 0.0
O895 O 0.62705 0.20463 0.88379 0.0
C896 C 0.62527 0.23752 0.79239 0.0
C897 C 0.64296 0.32025 0.7651 0.0
C898 C 0.63429 0.33994 0.71919 0.0
C899 C 0.64059 0.32113 0.73054 0.0
C900 C 0.63038 0.35781 0.74314 0.0
C901 C 0.63912 0.33829 0.78851 0.0
C902 C 0.63288 0.35698 0.77751 0.0
C903 C 0.68618 0.25891 0.82806 0.0
C904 C 0.64782 0.29977 0.77622 0.0
C905 C 0.60562 0.3497 0.90256 0.0
C906 C 0.62765 0.356 0.91772 0.0
C907 C 0.66052 0.27094 0.8967 0.0
C908 C 0.64501 0.19088 0.92764 0.0
C909 C 0.63682 0.1875 0.95816 0.0
C910 C 0.6432 0.17089 0.97499 0.0
C911 C 0.65791 0.15769 0.96076 0.0
C912 C 0.6594 0.1774 0.91351 0.0
C913 C 0.66583 0.16089 0.93007 0.0
C914 C 0.60183 0.24673 0.85929 0.0
C915 C 0.63976 0.20965 0.91235 0.0
H916 H 0.64362 0.30713 0.71261 0.0
H917 H 0.62498 0.3723 0.73535 0.0
H918 H 0.64072 0.33785 0.81521 0.0
H919 H 0.62973 0.37076 0.79567 0.0
H920 H 0.62555 0.19788 0.96877 0.0
H921 H 0.66354 0.1451 0.97355 0.0
H922 H 0.66591 0.17984 0.89008 0.0
H923 H 0.67718 0.15072 0.91931 0.0
Eu924 Eu 0.88554 0.70474 0.47901 0.0
C925 C 0.93568 0.80348 0.47925 0.0
C926 C 0.91096 0.82992 0.49232 0.0
C927 C 0.95102 0.84251 0.50433 0.0
C928 C 0.91407 0.80797 0.47936 0.0
C929 C 0.95429 0.82089 0.49123 0.0
C930 C 0.92945 0.84699 0.50501 0.0
C931 C 0.9785 0.79481 0.47489 0.0
N932 N 0.93866 0.78243 0.46661 0.0
C933 C 0.95971 0.77809 0.46338 0.0
C934 C 0.97578 0.81626 0.48912 0.0
Eu935 Eu 0.90563 0.75623 0.44439 0.0
N936 N 0.89622 0.79128 0.46647 0.0
C937 C 0.87508 0.79579 0.46556 0.0
C938 C 0.88932 0.83431 0.49188 0.0
C939 C 0.87135 0.8172 0.47838 0.0
H940 H 0.96194 0.76145 0.45232 0.0
H941 H 0.85454 0.82047 0.47784 0.0
H942 H 0.92726 0.86385 0.51501 0.0
H943 H -0.00496 0.79113 0.47268 0.0
H944 H 0.86069 0.78322 0.45562 0.0
H945 H 0.94147 0.65241 0.42306 0.0
H946 H 0.88632 0.8509 0.5017 0.0
H947 H 0.83052 0.69076 0.4827 0.0
H948 H 0.93148 0.68469 0.45905 0.0
H949 H 0.79872 0.66067 0.45637 0.0
H950 H 0.96511 0.85601 0.5137 0.0
H951 H 0.9119 0.62286 0.38937 0.0
H952 H 0.87104 0.60714 0.37411 0.0
H953 H 0.9904 0.82924 0.49792 0.0
H954 H 0.83212 0.60948 0.38295 0.0
N955 N 0.8965 0.67388 0.44567 0.0
C956 C 0.91834 0.6719 0.44477 0.0
C957 C 0.90739 0.63701 0.40521 0.0
C958 C 0.88501 0.63859 0.40751 0.0
C959 C 0.92411 0.6536 0.42428 0.0
C960 C 0.88004 0.65746 0.42831 0.0
H961 H 0.80502 0.62918 0.41397 0.0
N962 N 0.85418 0.67689 0.4542 0.0
C963 C 0.81532 0.66012 0.44921 0.0
C964 C 0.85818 0.65902 0.43269 0.0
C965 C 0.83329 0.67708 0.46403 0.0
C966 C 0.81894 0.6424 0.42523 0.0
C967 C 0.84063 0.64143 0.41719 0.0
O968 O 0.87041 0.69515 0.5231 0.0
O969 O 0.89323 0.74168 0.48705 0.0
O970 O 0.92879 0.75402 0.49012 0.0
O971 O 0.92239 0.7163 0.49553 0.0
O972 O 0.86939 0.72947 0.51355 0.0
O973 O 0.90347 0.68912 0.51457 0.0
O974 O 0.92896 0.75375 0.40633 0.0
O975 O 0.9055 0.71889 0.44036 0.0
O976 O 0.85829 0.71049 0.44175 0.0
O977 O 0.86775 0.74859 0.43695 0.0
O978 O 0.89201 0.72998 0.39883 0.0
O979 O 0.9032 0.77417 0.40207 0.0
C980 C 0.88193 0.74808 0.51003 0.0
C981 C 0.88153 0.664 0.54253 0.0
C982 C 0.88704 0.63963 0.58323 0.0
C983 C 0.8919 0.66057 0.57276 0.0
C984 C 0.87189 0.62195 0.56257 0.0
C985 C 0.86649 0.64625 0.52209 0.0
C986 C 0.86173 0.62529 0.53213 0.0
C987 C 0.93411 0.73695 0.50331 0.0
C988 C 0.88701 0.68622 0.53296 0.0
C989 C 0.8454 0.62304 0.39537 0.0
C990 C 0.86755 0.62167 0.39042 0.0
C991 C 0.89758 0.71299 0.4098 0.0
C992 C 0.93543 0.78305 0.37338 0.0
C993 C 0.92681 0.79168 0.346 0.0
C994 C 0.94098 0.80595 0.32938 0.0
C995 C 0.96378 0.81201 0.34085 0.0
C996 C 0.95851 0.78833 0.38315 0.0
C997 C 0.97248 0.80313 0.36748 0.0
C998 C 0.85356 0.72901 0.43216 0.0
C999 C 0.92027 0.76713 0.38906 0.0
H1000 H 0.90387 0.67427 0.58804 0.0
H1001 H 0.86761 0.60569 0.57018 0.0
H1002 H 0.8584 0.64855 0.49857 0.0
H1003 H 0.85002 0.61165 0.5164 0.0
H1004 H 0.9092 0.78684 0.33708 0.0
H1005 H 0.97506 0.82275 0.32812 0.0
H1006 H 0.96601 0.78063 0.40206 0.0
H1007 H 0.99022 0.80717 0.37533 0.0
Eu1008 Eu 0.53578 0.65181 0.68446 0.0
C1009 C 0.44156 0.60843 0.63486 0.0
C1010 C 0.4259 0.64019 0.6221 0.0
C1011 C 0.41012 0.60275 0.59158 0.0
C1012 C 0.44155 0.63137 0.64124 0.0
C1013 C 0.42531 0.59387 0.61066 0.0
C1014 C 0.4105 0.62585 0.59715 0.0
C1015 C 0.43826 0.56226 0.6283 0.0
N1016 N 0.4564 0.60004 0.65348 0.0
C1017 C 0.45397 0.57719 0.65177 0.0
C1018 C 0.42412 0.57064 0.60716 0.0
Eu1019 Eu 0.48128 0.62607 0.69578 0.0
N1020 N 0.45641 0.64499 0.66615 0.0
C1021 C 0.4564 0.66772 0.67191 0.0
C1022 C 0.42596 0.66321 0.62856 0.0
C1023 C 0.4413 0.677 0.65348 0.0
H1024 H 0.4642 0.5701 0.66851 0.0
H1025 H 0.44177 0.69497 0.65822 0.0
H1026 H 0.39849 0.63244 0.58238 0.0
H1027 H 0.43695 0.54427 0.62683 0.0
H1028 H 0.46859 0.67955 0.68912 0.0
H1029 H 0.57067 0.58204 0.72124 0.0
H1030 H 0.41431 0.67054 0.61431 0.0
H1031 H 0.55196 0.70782 0.71135 0.0
H1032 H 0.54167 0.59959 0.69692 0.0
H1033 H 0.5834 0.73388 0.74655 0.0
H1034 H 0.39771 0.59182 0.57286 0.0
H1035 H 0.60477 0.60582 0.7535 0.0
H1036 H 0.62643 0.64441 0.77759 0.0
H1037 H 0.4118 0.55901 0.58912 0.0
H1038 H 0.62934 0.68547 0.78581 0.0
N1039 N 0.55894 0.63316 0.71477 0.0
C1040 C 0.55637 0.61026 0.71069 0.0
C1041 C 0.59206 0.61367 0.74273 0.0
C1042 C 0.59447 0.63713 0.7473 0.0
C1043 C 0.57282 0.6002 0.72459 0.0
C1044 C 0.57742 0.64654 0.73275 0.0
H1045 H 0.6132 0.71887 0.77509 0.0
N1046 N 0.56253 0.67825 0.72279 0.0
C1047 C 0.58227 0.71588 0.74454 0.0
C1048 C 0.57901 0.6697 0.73752 0.0
C1049 C 0.56429 0.70105 0.7251 0.0
C1050 C 0.59907 0.70734 0.76051 0.0
C1051 C 0.59775 0.68403 0.75678 0.0
O1052 O 0.55554 0.67545 0.65792 0.0
O1053 O 0.50099 0.64084 0.65614 0.0
O1054 O 0.49726 0.59908 0.66549 0.0
O1055 O 0.52871 0.6188 0.64804 0.0
O1056 O 0.51683 0.67403 0.65864 0.0
O1057 O 0.55926 0.63997 0.65104 0.0
O1058 O 0.47432 0.5966 0.71987 0.0
O1059 O 0.51744 0.63225 0.7199 0.0
O1060 O 0.52294 0.67645 0.72189 0.0
O1061 O 0.48529 0.66181 0.72521 0.0
O1062 O 0.49327 0.63593 0.75191 0.0
O1063 O 0.44936 0.61771 0.71564 0.0
C1064 C 0.49967 0.6591 0.64489 0.0
C1065 C 0.58269 0.66457 0.62129 0.0
C1066 C 0.60215 0.65163 0.5741 0.0
C1067 C 0.58506 0.64769 0.59478 0.0
C1068 C 0.61686 0.67257 0.58019 0.0
C1069 C 0.59728 0.68546 0.62693 0.0
C1070 C 0.61437 0.68938 0.60644 0.0
C1071 C 0.51405 0.60015 0.64663 0.0
C1072 C 0.56578 0.65999 0.64409 0.0
C1073 C 0.61478 0.67472 0.77111 0.0
C1074 C 0.61317 0.65134 0.76632 0.0
C1075 C 0.51449 0.63688 0.75159 0.0
C1076 C 0.44832 0.59631 0.75986 0.0
C1077 C 0.4451 0.61402 0.78436 0.0
C1078 C 0.43911 0.6097 0.81574 0.0
C1079 C 0.43632 0.58772 0.82271 0.0
C1080 C 0.44531 0.57432 0.76686 0.0
C1081 C 0.43933 0.57007 0.79823 0.0
C1082 C 0.50338 0.67794 0.73284 0.0
C1083 C 0.45459 0.60013 0.72674 0.0
H1084 H 0.5736 0.63163 0.59011 0.0
H1085 H 0.62987 0.67618 0.56398 0.0
H1086 H 0.59568 0.69857 0.64749 0.0
H1087 H 0.62564 0.7055 0.6108 0.0
H1088 H 0.44735 0.63108 0.77922 0.0
H1089 H 0.43155 0.58424 0.84693 0.0
H1090 H 0.44757 0.56044 0.74803 0.0
H1091 H 0.43699 0.55309 0.80353 0.0
Eu1092 Eu 0.02687 0.35233 0.08447 0.0
C1093 C 0.11496 0.38172 0.06842 0.0
C1094 C 0.12925 0.34871 0.04554 0.0
C1095 C 0.14012 0.38354 1.02448 0.0
C1096 C 0.11595 0.35925 0.06785 0.0
C1097 C 0.12779 0.39428 0.04762 0.0
C1098 C 0.14076 0.36078 1.02333 0.0
C1099 C 0.11833 0.42794 0.07742 0.0
N1100 N 0.10306 0.3918 0.09121 0.0
C1101 C 0.10604 0.41489 0.09747 0.0
C1102 C 0.12883 0.41753 0.05179 0.0
Eu1103 Eu 0.08181 0.36803 0.12393 0.0
N1104 N 0.105 0.34802 0.09015 0.0
C1105 C 0.10852 0.3269 0.09317 0.0
C1106 C 0.13116 0.32649 0.04679 0.0
C1107 C 0.12108 0.3157 0.07109 0.0
H1108 H 0.09896 0.42376 0.11796 0.0
H1109 H 0.12328 0.29882 0.07326 0.0
H1110 H 0.15083 0.35284 1.00592 0.0
H1111 H 0.11989 0.44606 0.08211 0.0
H1112 H 0.10224 0.31839 0.11284 0.0
H1113 H -0.00211 0.42248 0.15862 0.0
H1114 H 0.14109 0.31783 0.02997 0.0
H1115 H -0.00047 0.29938 0.06036 0.0
H1116 H 0.02168 0.40452 0.12133 0.0
H1117 H 0.96687 0.27393 0.07452 0.0
H1118 H 0.14982 0.39289 1.00814 0.0
H1119 H 0.96708 0.39913 0.18072 0.0
H1120 H 0.94483 0.36091 0.18171 0.0
H1121 H 0.13859 0.42771 0.03648 0.0
H1122 H 0.93658 0.32034 0.15921 0.0
N1123 N 0.00599 0.37106 0.12337 0.0
C1124 C 0.00903 0.39397 0.13144 0.0
C1125 C 0.97781 0.39109 0.16461 0.0
C1126 C 0.97398 0.36769 0.15497 0.0
C1127 C -0.00481 0.40431 0.15227 0.0
C1128 C 0.98831 0.35805 0.13358 0.0
H1129 H 0.94442 0.28787 0.11881 0.0
N1130 N -0.00371 0.32693 0.09761 0.0
C1131 C 0.97146 0.29108 0.08793 0.0
C1132 C 0.98351 0.33526 0.12065 0.0
C1133 C 0.98994 0.30549 0.08004 0.0
C1134 C 0.95889 0.29899 0.11301 0.0
C1135 C 0.96451 0.32146 0.12915 0.0
O1136 O 0.00488 0.3387 0.03796 0.0
O1137 O 0.06274 0.35671 0.07124 0.0
O1138 O 0.06502 0.39777 0.12231 0.0
O1139 O 0.04615 0.38373 0.07094 0.0
O1140 O 0.04123 0.32647 0.05085 0.0
O1141 O 0.01176 0.37459 0.05677 0.0
O1142 O 0.09836 0.3984 0.15764 0.0
O1143 O 0.04574 0.36761 0.13567 0.0
O1144 O 0.03388 0.32173 0.10462 0.0
O1145 O 0.07115 0.33115 0.12757 0.0
O1146 O 0.06665 0.35562 0.16868 0.0
O1147 O 0.11069 0.36771 0.15951 0.0
C1148 C 0.06106 0.33799 0.05056 0.0
C1149 C 0.97819 0.36009 1.02219 0.0
C1150 C 0.95503 0.37451 0.98239 0.0
C1151 C 0.97592 0.37447 0.99914 0.0
C1152 C 0.93599 0.36138 0.99182 0.0
C1153 C 0.9592 0.34706 0.03144 0.0
C1154 C 0.93811 0.34804 1.01661 0.0
C1155 C 0.05613 0.40088 0.09346 0.0
C1156 C 0.00087 0.35831 0.03381 0.0
C1157 C 0.95111 0.33073 0.15216 0.0
C1158 C 0.95579 0.35383 0.16496 0.0
C1159 C 0.04677 0.35965 0.16344 0.0
C1160 C 0.11685 0.39627 0.20884 0.0
C1161 C 0.10828 0.38249 0.23124 0.0
C1162 C 0.11207 0.39026 0.26627 0.0
C1163 C 0.12394 0.41232 0.2783 0.0
C1164 C 0.12855 0.41817 0.22134 0.0
C1165 C 0.13195 0.42618 0.2559 0.0
C1166 C 0.05195 0.31676 0.11941 0.0
C1167 C 0.11284 0.38902 0.17224 0.0
H1168 H 0.99081 0.38486 0.99305 0.0
H1169 H 0.9196 0.36058 0.97914 0.0
H1170 H 0.96069 0.33595 0.0495 0.0
H1171 H 0.92342 0.33779 1.02338 0.0
H1172 H 0.09877 0.3658 0.22138 0.0
H1173 H 0.12768 0.41873 0.30503 0.0
H1174 H 0.13494 0.42915 0.20426 0.0
H1175 H 0.14108 0.44308 0.26538 0.0
Eu1176 Eu 0.55318 0.37999 0.33688 0.0
C1177 C 0.45571 0.32147 0.34176 0.0
C1178 C 0.42933 0.34582 0.33332 0.0
C1179 C 0.4168 0.3052 0.32286 0.0
C1180 C 0.45105 0.34292 0.34323 0.0
C1181 C 0.43861 0.30237 0.33172 0.0
C1182 C 0.41219 0.32687 0.32351 0.0
C1183 C 0.46582 0.27906 0.34049 0.0
N1184 N 0.47703 0.31929 0.34989 0.0
C1185 C 0.48219 0.29848 0.35032 0.0
C1186 C 0.44393 0.281 0.33105 0.0
Eu1187 Eu 0.50287 0.35292 0.37163 0.0
N1188 N 0.4681 0.36087 0.35226 0.0
C1189 C 0.46459 0.38219 0.35146 0.0
C1190 C 0.42559 0.36765 0.33288 0.0
C1191 C 0.44334 0.38589 0.34174 0.0
H1192 H 0.49895 0.29693 0.35852 0.0
H1193 H 0.44066 0.40282 0.3411 0.0
H1194 H 0.39536 0.32878 0.31607 0.0
H1195 H 0.47005 0.26263 0.34056 0.0
H1196 H 0.47808 0.39649 0.35803 0.0
H1197 H 0.61608 0.33433 0.3792 0.0
H1198 H 0.40916 0.37059 0.3253 0.0
H1199 H 0.55863 0.43485 0.33424 0.0
H1200 H 0.58123 0.33867 0.34849 0.0
H1201 H 0.58497 0.47049 0.35768 0.0
H1202 H 0.40342 0.29074 0.31519 0.0
H1203 H 0.64198 0.36784 0.41119 0.0
H1204 H 0.65207 0.40998 0.42681 0.0
H1205 H 0.43124 0.26592 0.3236 0.0
H1206 H 0.64374 0.44709 0.42064 0.0
N1207 N 0.58675 0.3742 0.36417 0.0
C1208 C 0.59234 0.35345 0.36237 0.0
C1209 C 0.62663 0.36984 0.39787 0.0
C1210 C 0.6216 0.39122 0.39746 0.0
C1211 C 0.6121 0.3509 0.37976 0.0
C1212 C 0.60132 0.39288 0.37993 0.0
H1213 H 0.61901 0.46979 0.39428 0.0
N1214 N 0.57747 0.41462 0.35808 0.0
C1215 C 0.58835 0.45466 0.36342 0.0
C1216 C 0.59657 0.41375 0.3767 0.0
C1217 C 0.57354 0.43455 0.35015 0.0
C1218 C 0.60752 0.4542 0.38414 0.0
C1219 C 0.61202 0.43355 0.3906 0.0
O1220 O 0.56065 0.39377 0.29151 0.0
O1221 O 0.51666 0.36879 0.33028 0.0
O1222 O 0.50734 0.33081 0.32347 0.0
O1223 O 0.54518 0.34194 0.31915 0.0
O1224 O 0.5277 0.39527 0.30789 0.0
O1225 O 0.56941 0.36175 0.29817 0.0
O1226 O 0.50303 0.33736 0.41658 0.0
O1227 O 0.53987 0.3645 0.37972 0.0
O1228 O 0.54736 0.40518 0.38135 0.0
O1229 O 0.51049 0.39104 0.38957 0.0
O1230 O 0.52747 0.33217 0.38729 0.0
O1231 O 0.48641 0.36559 0.4151 0.0
C1232 C 0.51006 0.3809 0.31067 0.0
C1233 C 0.59146 0.3833 0.26528 0.0
C1234 C 0.614 0.37819 0.21853 0.0
C1235 C 0.59429 0.37211 0.23326 0.0
C1236 C 0.63105 0.39526 0.23641 0.0
C1237 C 0.60872 0.40012 0.28307 0.0
C1238 C 0.62846 0.40601 0.26864 0.0
C1239 C 0.52571 0.32829 0.30928 0.0
C1240 C 0.57031 0.37727 0.27937 0.0
C1241 C 0.63176 0.43205 0.40945 0.0
C1242 C 0.63651 0.41092 0.41296 0.0
C1243 C 0.54522 0.34744 0.38978 0.0
C1244 C 0.47119 0.33759 0.44565 0.0
C1245 C 0.46627 0.34544 0.47822 0.0
C1246 C 0.44856 0.3333 0.49205 0.0
C1247 C 0.43562 0.31352 0.4728 0.0
C1248 C 0.45839 0.31746 0.42736 0.0
C1249 C 0.44055 0.30569 0.4406 0.0
C1250 C 0.52869 0.40705 0.39525 0.0
C1251 C 0.49029 0.34978 0.43167 0.0
H1252 H 0.58096 0.35909 0.21949 0.0
H1253 H 0.64641 0.40016 0.22549 0.0
H1254 H 0.60689 0.40878 0.30788 0.0
H1255 H 0.64172 0.41905 0.28235 0.0
H1256 H 0.4764 0.36066 0.49293 0.0
H1257 H 0.42222 0.30359 0.48315 0.0
H1258 H 0.46238 0.31037 0.40325 0.0
H1259 H 0.4309 0.29015 0.42617 0.0
Eu1260 Eu 0.98928 0.62087 0.95781 0.0
C1261 C 0.07973 0.58868 0.94795 0.0
C1262 C 0.10648 0.61404 0.99004 0.0
C1263 C 0.11013 0.57497 0.97519 0.0
C1264 C 0.08699 0.60971 0.96724 0.0
C1265 C 0.09175 0.57129 0.9507 0.0
C1266 C 0.11749 0.59635 0.99488 0.0
C1267 C 0.0691 0.54943 0.90103 0.0
N1268 N 0.06235 0.58594 0.92391 0.0
C1269 C 0.05786 0.56728 0.89921 0.0
C1270 C 0.08577 0.55122 0.92739 0.0
Eu1271 Eu 0.0437 0.61661 0.922 0.0
N1272 N 0.07641 0.62652 0.96096 0.0
C1273 C 0.08583 0.64839 0.97409 0.0
C1274 C 0.11511 0.63624 1.00568 0.0
C1275 C 0.10506 0.65355 0.99695 0.0
H1276 H 0.045 0.56591 0.87876 0.0
H1277 H 0.11206 0.67089 1.00787 0.0
H1278 H 0.13232 0.59929 1.01258 0.0
H1279 H 0.06494 0.53435 0.88208 0.0
H1280 H 0.07839 0.66203 0.96746 0.0
H1281 H 0.92326 0.54501 0.92628 0.0
H1282 H 0.13007 0.64028 1.02325 0.0
H1283 H 0.97917 0.67454 0.96375 0.0
H1284 H 0.95761 0.56854 0.9565 0.0
H1285 H 0.9528 0.69447 0.93817 0.0
H1286 H 0.11941 0.56174 0.97799 0.0
H1287 H 0.89871 0.56101 0.88929 0.0
H1288 H 0.88947 0.59499 0.86871 0.0
H1289 H 0.0946 0.53747 0.92858 0.0
H1290 H 0.89756 0.63599 0.87197 0.0
N1291 N 0.95474 0.59708 0.93321 0.0
C1292 C 0.9479 0.5756 0.939 0.0
C1293 C 0.91424 0.57132 0.90172 0.0
C1294 C 0.91982 0.59407 0.89924 0.0
C1295 C 0.92806 0.56222 0.92248 0.0
C1296 C 0.9403 0.60681 0.91592 0.0
H1297 H 0.92072 0.6732 0.89854 0.0
N1298 N 0.9635 0.64196 0.93678 0.0
C1299 C 0.95054 0.67634 0.93164 0.0
C1300 C 0.94492 0.6299 0.91749 0.0
C1301 C 0.96554 0.66486 0.94594 0.0
C1302 C 0.93253 0.66428 0.90924 0.0
C1303 C 0.9291 0.64078 0.90277 0.0
O1304 O 0.98731 0.64695 1.00087 0.0
O1305 O 0.02677 0.628 0.96656 0.0
O1306 O 0.03034 0.58465 0.9407 0.0
O1307 O 0.99194 0.58456 0.94052 0.0
O1308 O 0.00982 0.61049 0.99957 0.0
O1309 O 0.97393 0.61179 1.00157 0.0
O1310 O 0.04809 0.61375 0.86841 0.0
O1311 O 0.00767 0.61811 0.91244 0.0
O1312 O 0.00248 0.6511 0.93415 0.0
O1313 O 0.04038 0.65289 0.94062 0.0
O1314 O 0.01958 0.59621 0.87803 0.0
O1315 O 0.06983 0.63973 0.90433 0.0
C1316 C 0.02905 0.61981 0.99291 0.0
C1317 C 0.95677 0.63801 0.03279 0.0
C1318 C 0.9369 0.64127 0.08296 0.0
C1319 C 0.95621 0.63818 0.06743 0.0
C1320 C 0.91813 0.64426 0.06308 0.0
C1321 C 0.93778 0.64057 1.0133 0.0
C1322 C 0.91861 0.64384 0.02848 0.0
C1323 C 0.00942 0.57463 0.94145 0.0
C1324 C 0.97641 0.63248 1.01721 0.0
C1325 C 0.90967 0.62793 0.88387 0.0
C1326 C 0.90504 0.6046 0.88207 0.0
C1327 C 0.00208 0.60422 0.88541 0.0
C1328 C 0.08421 0.62571 0.8545 0.0
C1329 C 0.08473 0.63204 0.82288 0.0
C1330 C 0.10246 0.62901 0.80394 0.0
C1331 C 0.1198 0.61948 0.81687 0.0
C1332 C 0.10133 0.61592 0.86733 0.0
C1333 C 0.11911 0.61281 0.84842 0.0
C1334 C 0.02295 0.66203 0.93367 0.0
C1335 C 0.06549 0.62975 0.87314 0.0
H1336 H 0.97065 0.63521 0.08202 0.0
H1337 H 0.90312 0.64712 0.07424 0.0
H1338 H 0.93755 0.63963 0.9864 0.0
H1339 H 0.904 0.64589 1.01335 0.0
H1340 H 0.07144 0.63967 0.81316 0.0
H1341 H 0.13364 0.61698 0.80243 0.0
H1342 H 0.10097 0.61082 0.89179 0.0
H1343 H 0.13238 0.60528 0.85822 0.0
C1344 C 0.08551 0.13582 1.0111 0.0
C1345 C 0.10095 0.1413 0.03983 0.0
C1346 C 0.09151 0.12561 0.98066 0.0
C1347 C 0.14346 0.13013 0.94224 0.0
H1348 H 0.10031 0.10957 0.86367 0.0
C1349 C 0.13492 0.182 0.84423 0.0
C1350 C 0.12205 0.17322 0.8133 0.0
C1351 C 0.14058 0.16767 0.86559 0.0
C1352 C 0.11302 0.11474 0.88492 0.0
H1353 H 0.13342 0.13808 0.06108 0.0
H1354 H 0.14372 0.11926 1.00814 0.0
H1355 H 0.09163 0.09852 0.91684 0.0
H1356 H 0.10768 0.1425 0.77834 0.0
H1357 H 0.11802 0.11737 0.81548 0.0
H1358 H 0.16454 0.14694 0.91055 0.0
C1359 C 0.12727 0.12343 1.0086 0.0
C1360 C 0.10785 0.10862 0.91568 0.0
C1361 C 0.12138 0.13405 0.03893 0.0
C1362 C 0.11736 0.14978 0.8023 0.0
C1363 C 0.12318 0.13537 0.82365 0.0
C1364 C 0.14881 0.13584 0.91136 0.0
C1365 C 0.11306 0.12063 0.97859 0.0
C1366 C 0.1221 0.11808 0.94527 0.0
C1367 C 0.13361 0.14418 0.85639 0.0
C1368 C 0.13275 0.13007 0.88319 0.0
H1369 H 0.06968 0.14141 1.01142 0.0
H1370 H 0.08005 0.12393 0.95828 0.0
H1371 H 0.15514 0.13752 0.96422 0.0
H1372 H 0.13934 0.20001 0.85291 0.0
H1373 H 0.14858 0.17525 0.89055 0.0
C1374 C 0.14424 0.85474 0.16729 0.0
C1375 C 0.13613 0.83603 0.18203 0.0
C1376 C 0.13767 0.85525 0.13363 0.0
C1377 C 0.09262 0.82876 0.0653 0.0
H1378 H 0.13073 0.86374 1.01232 0.0
C1379 C 0.06172 0.83912 0.93213 0.0
C1380 C 0.06217 0.86179 0.92981 0.0
C1381 C 0.07436 0.83342 0.95859 0.0
C1382 C 0.11999 0.8538 0.02678 0.0
H1383 H 0.11527 0.80273 0.17229 0.0
H1384 H 0.10459 0.80316 0.11314 0.0
H1385 H 0.1458 0.8576 0.06706 0.0
H1386 H 0.07648 0.89625 0.95211 0.0
H1387 H 0.09947 0.88631 0.99767 0.0
H1388 H 0.06688 0.82497 1.02481 0.0
C1389 C 0.11558 0.81778 0.1279 0.0
C1390 C 0.12851 0.85041 0.05828 0.0
C1391 C 0.12196 0.81739 0.16178 0.0
C1392 C 0.07637 0.87866 0.95306 0.0
C1393 C 0.0894 0.87295 0.9791 0.0
C1394 C 0.08425 0.83183 0.03359 0.0
C1395 C 0.12305 0.83688 0.11351 0.0
C1396 C 0.11479 0.8383 0.07835 0.0
C1397 C 0.08778 0.85033 0.9829 0.0
C1398 C 0.09772 0.84475 1.01433 0.0
H1399 H 0.15552 0.86923 0.18189 0.0
H1400 H 0.14358 0.8704 0.12379 0.0
H1401 H 0.08137 0.8197 0.0801 0.0
H1402 H 0.05038 0.82591 0.91491 0.0
H1403 H 0.07284 0.81587 0.96101 0.0
C1404 C 0.40393 0.83613 0.22461 0.0
C1405 C 0.41756 0.82183 0.21053 0.0
C1406 C 0.41321 0.85505 0.24877 0.0
C1407 C 0.46157 0.87001 0.31263 0.0
H1408 H 0.43256 0.91966 0.34395 0.0
C1409 C 0.47877 0.90407 0.44619 0.0
C1410 C 0.45874 0.89862 0.46108 0.0
C1411 C 0.47831 0.90847 0.41345 0.0
C1412 C 0.4411 0.90614 0.33519 0.0
H1413 H 0.45121 0.8156 0.2102 0.0
H1414 H 0.46782 0.84967 0.2493 0.0
H1415 H 0.42358 0.89969 0.28566 0.0
H1416 H 0.42331 0.89984 0.45505 0.0
H1417 H 0.42242 0.90481 0.3968 0.0
H1418 H 0.47835 0.87553 0.36183 0.0
C1419 C 0.44994 0.84625 0.24282 0.0
C1420 C 0.43586 0.89457 0.30197 0.0
C1421 C 0.44054 0.82697 0.2198 0.0
C1422 C 0.43892 0.90193 0.44406 0.0
C1423 C 0.43843 0.90554 0.4107 0.0
C1424 C 0.46705 0.88172 0.34525 0.0
C1425 C 0.43628 0.85983 0.25914 0.0
C1426 C 0.44534 0.87571 0.29082 0.0
C1427 C 0.4579 0.90674 0.3943 0.0
C1428 C 0.45623 0.89929 0.35741 0.0
H1429 H 0.38601 0.83193 0.21848 0.0
H1430 H 0.40203 0.86477 0.26109 0.0
H1431 H 0.46888 0.8553 0.30577 0.0
H1432 H 0.49486 0.90282 0.45761 0.0
H1433 H 0.49373 0.91021 0.40168 0.0
C1434 C 0.42977 0.19577 0.88069 0.0
C1435 C 0.40721 0.19626 0.88382 0.0
C1436 C 0.43583 0.18248 0.85289 0.0
C1437 C 0.41541 0.13929 0.7773 0.0
H1438 H 0.45199 0.18101 0.73172 0.0
C1439 C 0.41305 0.12812 0.63315 0.0
C1440 C 0.43213 0.1369 0.61875 0.0
C1441 C 0.41305 0.13089 0.66811 0.0
C1442 C 0.44229 0.16882 0.74419 0.0
H1443 H 0.37328 0.18312 0.86182 0.0
H1444 H 0.38381 0.15946 0.81327 0.0
H1445 H 0.44712 0.19214 0.79044 0.0
H1446 H 0.46645 0.1549 0.62998 0.0
H1447 H 0.46679 0.15857 0.69054 0.0
H1448 H 0.41021 0.11611 0.73066 0.0
C1449 C 0.39677 0.16894 0.83246 0.0
C1450 C 0.43949 0.17525 0.77794 0.0
C1451 C 0.39073 0.18246 0.86004 0.0
C1452 C 0.45148 0.14772 0.64009 0.0
C1453 C 0.4516 0.1501 0.67494 0.0
C1454 C 0.41848 0.13268 0.74352 0.0
C1455 C 0.41939 0.16968 0.82788 0.0
C1456 C 0.42557 0.1608 0.79453 0.0
C1457 C 0.43223 0.14223 0.68941 0.0
C1458 C 0.43144 0.14765 0.72633 0.0
H1459 H 0.44268 0.20681 0.8985 0.0
H1460 H 0.45337 0.18334 0.84979 0.0
H1461 H 0.4046 0.12789 0.78968 0.0
H1462 H 0.39803 0.11929 0.61745 0.0
H1463 H 0.39774 0.12482 0.67834 0.0
C1464 C 0.92286 0.79611 0.27035 0.0
C1465 C 0.93286 0.81267 0.29789 0.0
C1466 C 0.91982 0.80173 0.23837 0.0
C1467 C 0.9459 0.84406 0.19122 0.0
H1468 H 0.90119 0.81085 0.11968 0.0
C1469 C 0.96109 0.83326 0.05145 0.0
C1470 C 0.94296 0.83149 0.02715 0.0
C1471 C 0.95787 0.83511 0.08556 0.0
C1472 C 0.91361 0.82062 0.13942 0.0
H1473 H 0.94559 0.84826 0.31463 0.0
H1474 H 0.93951 0.85833 0.25898 0.0
H1475 H 0.89646 0.80669 0.17775 0.0
H1476 H 0.90765 0.83192 1.01945 0.0
H1477 H 0.90205 0.83548 0.07904 0.0
H1478 H 0.96304 0.858 0.15289 0.0
C1479 C 0.93471 0.84089 0.26174 0.0
C1480 C 0.91102 0.81801 0.17269 0.0
C1481 C 0.93804 0.8352 0.2936 0.0
C1482 C 0.92181 0.83278 0.03767 0.0
C1483 C 0.91861 0.83479 0.07175 0.0
C1484 C 0.94841 0.8468 0.158 0.0
C1485 C 0.92652 0.82408 0.2335 0.0
C1486 C 0.92741 0.82928 0.19889 0.0
C1487 C 0.93648 0.83541 0.096 0.0
C1488 C 0.93257 0.83469 0.13164 0.0
H1489 H 0.91891 0.77858 0.27304 0.0
H1490 H 0.91365 0.7883 0.21721 0.0
H1491 H 0.95903 0.8528 0.21065 0.0
H1492 H 0.97755 0.83222 0.04398 0.0
H1493 H 0.97196 0.83531 0.10354 0.0
C1494 C 0.94754 0.21496 0.86484 0.0
C1495 C 0.92736 0.20299 0.84643 0.0
C1496 C 0.95444 0.21093 0.89754 0.0
C1497 C 0.93485 0.17589 0.96663 0.0
H1498 H -0.00383 0.19651 1.00487 0.0
C1499 C 0.97493 0.14721 0.08944 0.0
C1500 C 0.9878 0.16472 0.1139 0.0
C1501 C 0.96673 0.15127 0.05732 0.0
C1502 C 0.9789 0.19054 0.99474 0.0
H1503 H 0.89845 0.17783 0.84989 0.0
H1504 H 0.91012 0.1705 0.9046 0.0
H1505 H 0.98419 0.20531 0.95062 0.0
H1506 H 0.00237 0.20034 0.12157 0.0
H1507 H 0.98953 0.20679 0.06628 0.0
H1508 H 0.93011 0.16045 1.01079 0.0
C1509 C 0.921 0.18335 0.89501 0.0
C1510 C 0.97179 0.19582 0.96313 0.0
C1511 C 0.91411 0.18754 0.86279 0.0
C1512 C 0.99245 0.18618 0.10423 0.0
C1513 C 0.98508 0.19 0.07201 0.0
C1514 C 0.94214 0.17019 0.99786 0.0
C1515 C 0.94158 0.19457 0.91341 0.0
C1516 C 0.94944 0.18884 0.94804 0.0
C1517 C 0.97199 0.17275 0.04769 0.0
C1518 C 0.9643 0.17755 1.01288 0.0
H1519 H 0.95853 0.22681 0.85342 0.0
H1520 H 0.97016 0.22065 0.90995 0.0
H1521 H 0.91742 0.17019 0.95767 0.0
H1522 H 0.97146 0.13028 0.09475 0.0
H1523 H 0.95681 0.13734 0.03956 0.0
C1524 C 0.5989 0.20751 0.75441 0.0
C1525 C 0.62096 0.21685 0.7675 0.0
C1526 C 0.59444 0.19033 0.72649 0.0
C1527 C 0.61619 0.17596 0.64937 0.0
H1528 H 0.56794 0.12412 0.63596 0.0
C1529 C 0.55363 0.14766 0.53259 0.0
C1530 C 0.54711 0.12465 0.51959 0.0
C1531 C 0.56876 0.1549 0.56131 0.0
C1532 C 0.58183 0.13818 0.63937 0.0
H1533 H 0.65574 0.21582 0.76246 0.0
H1534 H 0.6479 0.18599 0.71241 0.0
H1535 H 0.58294 0.14277 0.69321 0.0
H1536 H 0.55041 0.09101 0.52629 0.0
H1537 H 0.5768 0.10373 0.57753 0.0
H1538 H 0.61379 0.17253 0.59553 0.0
C1539 C 0.63413 0.19156 0.72444 0.0
C1540 C 0.59031 0.14886 0.67203 0.0
C1541 C 0.63858 0.20847 0.75296 0.0
C1542 C 0.55577 0.10888 0.53566 0.0
C1543 C 0.57075 0.11612 0.56476 0.0
C1544 C 0.6075 0.16547 0.6167 0.0
C1545 C 0.61202 0.18273 0.71063 0.0
C1546 C 0.60703 0.16826 0.67722 0.0
C1547 C 0.57709 0.13918 0.57803 0.0
C1548 C 0.58976 0.14696 0.61152 0.0
H1549 H 0.58515 0.21401 0.76518 0.0
H1550 H 0.57727 0.18402 0.71597 0.0
H1551 H 0.62888 0.1911 0.65281 0.0
H1552 H 0.54652 0.16 0.52104 0.0
H1553 H 0.57301 0.17274 0.57146 0.0
C1554 C 0.57757 0.84875 0.4957 0.0
C1555 C 0.57123 0.83257 0.51637 0.0
C1556 C 0.58479 0.84263 0.46317 0.0
C1557 C 0.60416 0.79452 0.40616 0.0
H1558 H 0.58811 0.82454 0.33312 0.0
C1559 C 0.63158 0.77062 0.26757 0.0
C1560 C 0.61568 0.76954 0.23976 0.0
C1561 C 0.62799 0.77961 0.30126 0.0
C1562 C 0.59282 0.81578 0.35298 0.0
H1563 H 0.5673 0.79694 0.51719 0.0
H1564 H 0.58011 0.7865 0.46213 0.0
H1565 H 0.57897 0.83736 0.3901 0.0
H1566 H 0.58357 0.77788 0.22716 0.0
H1567 H 0.57796 0.79432 0.28439 0.0
H1568 H 0.61799 0.77293 0.36903 0.0
C1569 C 0.57996 0.80409 0.47083 0.0
C1570 C 0.58766 0.82338 0.38626 0.0
C1571 C 0.5725 0.81014 0.5029 0.0
C1572 C 0.59647 0.7785 0.24732 0.0
C1573 C 0.5932 0.78803 0.28062 0.0
C1574 C 0.60964 0.78716 0.37302 0.0
C1575 C 0.58605 0.82003 0.44967 0.0
C1576 C 0.59289 0.81278 0.41382 0.0
C1577 C 0.60858 0.78846 0.30878 0.0
C1578 C 0.60388 0.79737 0.34529 0.0
H1579 H 0.57637 0.86613 0.50424 0.0
H1580 H 0.58932 0.85577 0.44853 0.0
H1581 H 0.60894 0.78575 0.42598 0.0
H1582 H 0.64644 0.76368 0.26354 0.0
H1583 H 0.64053 0.77952 0.32155 0.0
C1584 C 0.63446 0.67999 0.32562 0.0
C1585 C 0.62601 0.66382 0.297 0.0
C1586 C 0.64092 0.67306 0.35546 0.0
C1587 C 0.64021 0.62421 0.39917 0.0
H1588 H 0.59441 0.65022 0.44364 0.0
C1589 C 0.62431 0.63064 0.53598 0.0
C1590 C 0.60347 0.63519 0.54389 0.0
C1591 C 0.62756 0.62321 0.50266 0.0
C1592 C 0.60684 0.64235 0.4312 0.0
H1593 H 0.62168 0.62873 0.27441 0.0
H1594 H 0.63261 0.61651 0.32669 0.0
H1595 H 0.60774 0.66383 0.39466 0.0
H1596 H 0.56868 0.63131 0.5251 0.0
H1597 H 0.57432 0.61817 0.46678 0.0
H1598 H 0.63924 0.60283 0.43661 0.0
C1599 C 0.63437 0.63438 0.32645 0.0
C1600 C 0.61499 0.65066 0.40369 0.0
C1601 C 0.62805 0.64135 0.29654 0.0
C1602 C 0.58501 0.62826 0.51942 0.0
C1603 C 0.58826 0.62075 0.48606 0.0
C1604 C 0.63217 0.61597 0.42726 0.0
C1605 C 0.6384 0.64994 0.35665 0.0
C1606 C 0.63201 0.642 0.38774 0.0
C1607 C 0.61 0.62051 0.47711 0.0
C1608 C 0.61551 0.62514 0.44365 0.0
H1609 H 0.63305 0.69744 0.32623 0.0
H1610 H 0.64445 0.68538 0.3785 0.0
H1611 H 0.65294 0.61692 0.38664 0.0
H1612 H 0.63862 0.63533 0.55483 0.0
H1613 H 0.64443 0.62281 0.49658 0.0
C1614 C 0.62128 0.32154 0.65897 0.0
C1615 C 0.63118 0.34085 0.68257 0.0
C1616 C 0.61686 0.32295 0.62497 0.0
C1617 C 0.60385 0.36299 0.57267 0.0
H1618 H 0.61509 0.31979 0.49796 0.0
C1619 C 0.57292 0.36897 0.43773 0.0
C1620 C 0.5628 0.34847 0.4173 0.0
C1621 C 0.58621 0.36917 0.46752 0.0
C1622 C 0.61169 0.33193 0.51851 0.0
H1623 H 0.6454 0.37644 0.68835 0.0
H1624 H 0.6371 0.37893 0.6293 0.0
H1625 H 0.62815 0.31708 0.55555 0.0
H1626 H 0.55925 0.31223 0.41102 0.0
H1627 H 0.58149 0.31243 0.4634 0.0
H1628 H 0.58638 0.37718 0.53639 0.0
C1629 C 0.63263 0.36279 0.63724 0.0
C1630 C 0.61923 0.33037 0.55146 0.0
C1631 C 0.63725 0.36136 0.67109 0.0
C1632 C 0.56699 0.32828 0.42632 0.0
C1633 C 0.57992 0.32844 0.4563 0.0
C1634 C 0.59604 0.36436 0.53988 0.0
C1635 C 0.62208 0.3437 0.61396 0.0
C1636 C 0.61523 0.34581 0.57884 0.0
C1637 C 0.58913 0.34885 0.47787 0.0
C1638 C 0.59964 0.34872 0.51232 0.0
H1639 H 0.61617 0.30551 0.66691 0.0
H1640 H 0.60854 0.308 0.60756 0.0
H1641 H 0.60025 0.37492 0.59338 0.0
H1642 H 0.56978 0.38478 0.43153 0.0
H1643 H 0.59347 0.38524 0.48306 0.0
C1644 C 0.97093 0.38535 0.93075 0.0
C1645 C 0.9538 0.3855 0.95213 0.0
C1646 C 0.96841 0.39155 0.89931 0.0
C1647 C 0.92264 0.38263 0.83589 0.0
H1648 H 0.9724 0.39322 0.78272 0.0
C1649 C 0.95584 0.32521 0.73113 0.0
C1650 C 0.93612 0.31614 0.70996 0.0
C1651 C 0.9577 0.34571 0.75286 0.0
C1652 C 0.95818 0.39062 0.79703 0.0
H1653 H 0.92158 0.39483 0.95839 0.0
H1654 H 0.91679 0.40489 0.90242 0.0
H1655 H 0.97582 0.41209 0.84132 0.0
H1656 H 0.9036 0.3216 0.69362 0.0
H1657 H 0.90648 0.35722 0.73153 0.0
H1658 H 0.90559 0.35987 0.79272 0.0
C1659 C 0.93222 0.39995 0.91036 0.0
C1660 C 0.96009 0.40142 0.83053 0.0
C1661 C 0.93485 0.39393 0.94225 0.0
C1662 C 0.91882 0.3283 0.70968 0.0
C1663 C 0.92058 0.34873 0.73127 0.0
C1664 C 0.92063 0.37209 0.80238 0.0
C1665 C 0.94851 0.39768 0.88791 0.0
C1666 C 0.94307 0.39587 0.85107 0.0
C1667 C 0.93968 0.35719 0.75408 0.0
C1668 C 0.93902 0.37462 0.78355 0.0
H1669 H 0.98565 0.37863 0.93678 0.0
H1670 H 0.98122 0.38918 0.88273 0.0
H1671 H 0.90914 0.37795 0.85078 0.0
H1672 H 0.96932 0.31592 0.73202 0.0
H1673 H 0.97251 0.35157 0.7706 0.0
C1674 C 0.88827 0.682 0.36093 0.0
C1675 C 0.90431 0.6957 0.38555 0.0
C1676 C 0.89485 0.66974 0.3325 0.0
C1677 C 0.93885 0.67799 0.27903 0.0
H1678 H 0.91051 0.61922 0.22929 0.0
C1679 C 0.95531 0.65185 0.14241 0.0
C1680 C 0.93641 0.64162 0.11978 0.0
C1681 C 0.95435 0.65371 0.17713 0.0
C1682 C 0.91853 0.63571 0.24282 0.0
H1683 H 0.93962 0.70735 0.40055 0.0
H1684 H 0.95125 0.68601 0.35064 0.0
H1685 H 0.90316 0.63034 0.28766 0.0
H1686 H 0.90213 0.62391 0.116 0.0
H1687 H 0.90005 0.62831 0.17641 0.0
H1688 H 0.95305 0.68418 0.23408 0.0
C1689 C 0.93363 0.68435 0.35357 0.0
C1690 C 0.91442 0.64197 0.27626 0.0
C1691 C 0.92702 0.6964 0.38216 0.0
C1692 C 0.91683 0.63242 0.1327 0.0
C1693 C 0.91578 0.63457 0.16744 0.0
C1694 C 0.94274 0.67187 0.24561 0.0
C1695 C 0.91759 0.67159 0.3279 0.0
C1696 C 0.92426 0.66333 0.29445 0.0
C1697 C 0.93438 0.64571 0.19011 0.0
C1698 C 0.93231 0.65082 0.22683 0.0
H1699 H 0.87067 0.6817 0.36288 0.0
H1700 H 0.88214 0.66027 0.31294 0.0
H1701 H 0.94631 0.69475 0.29219 0.0
H1702 H 0.97068 0.65918 0.13345 0.0
H1703 H 0.96915 0.66197 0.1938 0.0
C1704 C 0.46233 0.344 0.55308 0.0
C1705 C 0.44456 0.33968 0.52747 0.0
C1706 C 0.45807 0.34504 0.58665 0.0
C1707 C 0.41533 0.32041 0.63427 0.0
H1708 H 0.45116 0.35988 0.71089 0.0
C1709 C 0.42677 0.29861 0.76726 0.0
C1710 C 0.42911 0.31631 0.7947 0.0
C1711 C 0.42411 0.30286 0.73442 0.0
C1712 C 0.44075 0.34895 0.68975 0.0
H1713 H 0.40869 0.33521 0.51675 0.0
H1714 H 0.40125 0.33704 0.57553 0.0
H1715 H 0.45625 0.36738 0.6542 0.0
H1716 H 0.42828 0.35166 0.80989 0.0
H1717 H 0.42346 0.35907 0.75249 0.0
H1718 H 0.4002 0.30166 0.66983 0.0
C1719 C 0.41837 0.3392 0.5696 0.0
C1720 C 0.44383 0.35314 0.65738 0.0
C1721 C 0.42263 0.33823 0.5361 0.0
C1722 C 0.42695 0.33787 0.789 0.0
C1723 C 0.42422 0.34209 0.75628 0.0
C1724 C 0.41231 0.31616 0.66667 0.0
C1725 C 0.436 0.34177 0.59497 0.0
C1726 C 0.43132 0.33877 0.62938 0.0
C1727 C 0.42367 0.32484 0.72875 0.0
C1728 C 0.42516 0.33027 0.69464 0.0
H1729 H 0.47938 0.34499 0.54703 0.0
H1730 H 0.47195 0.34692 0.6058 0.0
H1731 H 0.40572 0.30885 0.61299 0.0
H1732 H 0.42844 0.28185 0.77113 0.0
H1733 H 0.42381 0.28928 0.71359 0.0
C1734 C 0.48804 0.68451 0.60572 0.0
C1735 C 0.48757 0.66234 0.6118 0.0
C1736 C 0.47991 0.68917 0.5744 0.0
C1737 C 0.44673 0.66315 0.48862 0.0
H1738 H 0.47365 0.72 0.46538 0.0
C1739 C 0.41461 0.68935 0.36131 0.0
C1740 C 0.42765 0.70589 0.34642 0.0
C1741 C 0.42114 0.68458 0.39342 0.0
C1742 C 0.46579 0.70389 0.47065 0.0
H1743 H 0.47715 0.62748 0.58794 0.0
H1744 H 0.46284 0.63542 0.53324 0.0
H1745 H 0.48601 0.7099 0.51807 0.0
H1746 H 0.45828 0.73051 0.35568 0.0
H1747 H 0.46987 0.72242 0.41102 0.0
H1748 H 0.42727 0.65658 0.44053 0.0
C1749 C 0.46959 0.64951 0.55314 0.0
C1750 C 0.47281 0.6981 0.50195 0.0
C1751 C 0.47783 0.64482 0.58488 0.0
C1752 C 0.44739 0.71796 0.36598 0.0
C1753 C 0.45411 0.71304 0.39821 0.0
C1754 C 0.43983 0.66884 0.45709 0.0
C1755 C 0.47087 0.67192 0.54678 0.0
C1756 C 0.46339 0.67766 0.51212 0.0
C1757 C 0.44139 0.69585 0.41274 0.0
C1758 C 0.44903 0.68951 0.44709 0.0
H1759 H 0.49517 0.69865 0.62543 0.0
H1760 H 0.48081 0.70664 0.5721 0.0
H1761 H 0.43866 0.64729 0.4946 0.0
H1762 H 0.39932 0.67945 0.34747 0.0
H1763 H 0.41005 0.67172 0.4027 0.0
C1764 C 0.14082 0.70889 0.2567 0.0
C1765 C 0.12372 0.71639 0.274 0.0
C1766 C 0.13546 0.69388 0.22606 0.0
C1767 C 0.11278 0.65738 0.16134 0.0
H1768 H 0.07281 0.68752 0.11412 0.0
C1769 C 0.05443 0.61488 0.04095 0.0
C1770 C 0.04713 0.62874 1.01974 0.0
C1771 C 0.06939 0.62434 0.06953 0.0
C1772 C 0.08442 0.67905 0.1262 0.0
H1773 H 0.08809 0.71276 0.27571 0.0
H1774 H 0.07871 0.68582 0.22334 0.0
H1775 H 0.08879 0.70392 0.17044 0.0
H1776 H 0.04923 0.663 1.01126 0.0
H1777 H 0.07677 0.67927 0.05879 0.0
H1778 H 0.10842 0.63249 0.1164 0.0
C1779 C 0.09612 0.69177 0.23274 0.0
C1780 C 0.09327 0.68833 0.15888 0.0
C1781 C 0.10143 0.70714 0.26254 0.0
C1782 C 0.05512 0.65196 0.02691 0.0
C1783 C 0.07062 0.66128 0.05452 0.0
C1784 C 0.10405 0.64809 0.12802 0.0
C1785 C 0.11302 0.6863 0.21314 0.0
C1786 C 0.10676 0.67719 0.17717 0.0
C1787 C 0.07722 0.64778 0.07707 0.0
C1788 C 0.0893 0.65859 0.11041 0.0
H1789 H 0.15816 0.71614 0.26518 0.0
H1790 H 0.14869 0.68989 0.21119 0.0
H1791 H 0.12342 0.64873 0.17506 0.0
H1792 H 0.04793 0.59692 0.03608 0.0
H1793 H 0.07375 0.61345 0.0866 0.0
C1794 C 0.09904 0.28454 0.74822 0.0
C1795 C 0.11564 0.27168 0.74065 0.0
C1796 C 0.09587 0.29339 0.78187 0.0
C1797 C 0.10682 0.28541 0.8731 0.0
H1798 H 0.08516 0.34117 0.89437 0.0
C1799 C 0.07287 0.31054 1.00448 0.0
C1800 C 0.07282 0.33314 1.01864 0.0
C1801 C 0.07992 0.30434 0.97222 0.0
C1802 C 0.09134 0.32561 0.88943 0.0
H1803 H 0.14155 0.25774 0.76444 0.0
H1804 H 0.13588 0.2726 0.8228 0.0
H1805 H 0.09404 0.32866 0.8373 0.0
H1806 H 0.08016 0.36697 1.00783 0.0
H1807 H 0.09307 0.35647 0.95223 0.0
H1808 H 0.10436 0.28236 0.92508 0.0
C1809 C 0.1254 0.27635 0.80249 0.0
C1810 C 0.09628 0.31817 0.856 0.0
C1811 C 0.12892 0.26794 0.76863 0.0
C1812 C 0.08038 0.34943 0.99874 0.0
C1813 C 0.08749 0.34321 0.96617 0.0
C1814 C 0.10176 0.29277 0.90643 0.0
C1815 C 0.10866 0.28926 0.81011 0.0
C1816 C 0.10406 0.29778 0.84676 0.0
C1817 C 0.08721 0.32037 0.95173 0.0
C1818 C 0.0937 0.31302 0.91567 0.0
H1819 H 0.08813 0.28762 0.72781 0.0
H1820 H 0.08267 0.30288 0.78565 0.0
H1821 H 0.1125 0.26958 0.86789 0.0
H1822 H 0.06676 0.29728 1.01821 0.0
H1823 H 0.07876 0.28659 0.96293 0.0
C1824 C 0.02693 0.28374 0.13234 0.0
C1825 C 0.04839 0.29682 0.13609 0.0
C1826 C 0.01868 0.27456 0.15919 0.0
C1827 C 0.00112 0.25821 0.2192 0.0
H1828 H 0.03625 0.27819 0.30579 0.0
C1829 C 0.02394 0.20957 0.28524 0.0
C1830 C 0.00392 0.19646 0.2682 0.0
C1831 C 0.0237 0.23048 0.3044 0.0
C1832 C 0.0259 0.27301 0.28193 0.0
H1833 H 0.08045 0.3043 0.16629 0.0
H1834 H 0.06726 0.2849 0.21099 0.0
H1835 H 0.05004 0.29143 0.25647 0.0
H1836 H 0.96785 0.19162 0.26682 0.0
H1837 H 0.96832 0.22928 0.29812 0.0
H1838 H 0.97664 0.24068 0.24425 0.0
C1839 C 0.0555 0.28474 0.18959 0.0
C1840 C 0.03423 0.27985 0.25315 0.0
C1841 C 0.06337 0.29525 0.16328 0.0
C1842 C 0.98368 0.20225 0.27719 0.0
C1843 C 0.98401 0.22357 0.29617 0.0
C1844 C 0.99259 0.25208 0.24794 0.0
C1845 C 0.03245 0.27642 0.18946 0.0
C1846 C 0.02265 0.27121 0.22087 0.0
C1847 C 0.00418 0.23941 0.30094 0.0
C1848 C 0.00606 0.25699 0.27899 0.0
H1849 H 0.01551 0.28303 0.11043 0.0
H1850 H 0.00104 0.2678 0.15635 0.0
H1851 H 0.99099 0.25118 0.19571 0.0
H1852 H 0.0398 0.20444 0.28198 0.0
H1853 H 0.03965 0.2413 0.31355 0.0
C1854 C 0.96542 0.72337 0.53155 0.0
C1855 C 0.95483 0.74122 0.52609 0.0
C1856 C 0.9884 0.72771 0.54054 0.0
C1857 C 0.03997 0.76134 0.52857 0.0
H1858 H 0.01952 0.73995 0.43355 0.0
C1859 C 0.0952 0.74183 0.4225 0.0
C1860 C 0.09082 0.74984 0.3925 0.0
C1861 C 0.08175 0.74466 0.4484 0.0
C1862 C 0.02542 0.74621 0.45988 0.0
H1863 H 0.95799 0.77757 0.53613 0.0
H1864 H -0.00169 0.78473 0.54823 0.0
H1865 H 0.99316 0.73685 0.47516 0.0
H1866 H 0.06972 0.7678 0.36607 0.0
H1867 H 0.04505 0.77166 0.41103 0.0
H1868 H 0.07252 0.77054 0.51254 0.0
C1869 C 0.98923 0.76761 0.54587 0.0
C1870 C 0.01049 0.74411 0.48371 0.0
C1871 C 0.9662 0.76343 0.5377 0.0
C1872 C 0.07293 0.76098 0.38873 0.0
C1873 C 0.05914 0.76344 0.41446 0.0
C1874 C 0.05516 0.76321 0.50445 0.0
C1875 C 0.00054 0.74953 0.54153 0.0
C1876 C 0.01767 0.75133 0.51818 0.0
C1877 C 0.06356 0.75532 0.44445 0.0
C1878 C 0.04785 0.75556 0.47002 0.0
H1879 H 0.95679 0.70605 0.52452 0.0
H1880 H -0.00307 0.71355 0.5387 0.0
H1881 H 0.04557 0.76746 0.555 0.0
H1882 H 0.10953 0.73411 0.42654 0.0
H1883 H 0.08528 0.73811 0.47121 0.0
C1884 C 0.48729 0.71113 0.75684 0.0
C1885 C 0.50339 0.69766 0.75871 0.0
C1886 C 0.4919 0.73324 0.77459 0.0
C1887 C 0.5118 0.78109 0.78595 0.0
H1888 H 0.57154 0.78187 0.76001 0.0
C1889 C 0.56932 0.81206 0.6779 0.0
C1890 C 0.55139 0.80743 0.65239 0.0
C1891 C 0.56585 0.80774 0.71015 0.0
C1892 C 0.55506 0.7825 0.76773 0.0
H1893 H 0.53498 0.69529 0.78459 0.0
H1894 H 0.54013 0.73117 0.82077 0.0
H1895 H 0.55817 0.75854 0.79888 0.0
H1896 H 0.51666 0.79149 0.63917 0.0
H1897 H 0.51096 0.78256 0.69467 0.0
H1898 H 0.50848 0.80361 0.75149 0.0
C1899 C 0.52522 0.72604 0.80317 0.0
C1900 C 0.54711 0.76894 0.79042 0.0
C1901 C 0.52193 0.705 0.78298 0.0
C1902 C 0.53073 0.79559 0.65843 0.0
C1903 C 0.52731 0.7911 0.69052 0.0
C1904 C 0.51968 0.79453 0.76296 0.0
C1905 C 0.51243 0.7417 0.79501 0.0
C1906 C 0.52414 0.7653 0.79516 0.0
C1907 C 0.54454 0.79813 0.71708 0.0
C1908 C 0.54041 0.7932 0.75089 0.0
H1909 H 0.47259 0.70573 0.73887 0.0
H1910 H 0.48072 0.7442 0.76849 0.0
H1911 H 0.49472 0.7804 0.79165 0.0
H1912 H 0.58562 0.8206 0.67387 0.0
H1913 H 0.57963 0.81267 0.72988 0.0
C1914 C 0.57577 0.26421 0.89381 0.0
C1915 C 0.58333 0.24466 0.88046 0.0
C1916 C 0.56491 0.265 0.92267 0.0
C1917 C 0.55273 0.23337 0.99325 0.0
H1918 H 0.50927 0.27196 1.00405 0.0
C1919 C 0.46915 0.21365 1.01368 0.0
C1920 C 0.45872 0.23234 1.01515 0.0
C1921 C 0.49133 0.21665 0.02708 0.0
C1922 C 0.52185 0.2616 1.00245 0.0
H1923 H 0.5822 0.20944 0.88367 0.0
H1924 H 0.56086 0.21011 0.93216 0.0
H1925 H 0.53032 0.27241 0.95721 0.0
H1926 H 0.46048 0.26682 0.0397 0.0
H1927 H 0.49904 0.27172 0.0634 0.0
H1928 H 0.54115 0.22021 0.03635 0.0
C1929 C 0.56524 0.22548 0.9221 0.0
C1930 C 0.53406 0.26181 0.97507 0.0
C1931 C 0.57699 0.22493 0.89377 0.0
C1932 C 0.46873 0.2525 0.03655 0.0
C1933 C 0.4906 0.25505 0.0511 0.0
C1934 C 0.53969 0.23251 1.02019 0.0
C1935 C 0.56002 0.24583 0.9378 0.0
C1936 C 0.54908 0.24715 0.96933 0.0
C1937 C 0.50306 0.23853 0.04029 0.0
C1938 C 0.52323 0.24579 1.02389 0.0
H1939 H 0.58015 0.27971 0.88416 0.0
H1940 H 0.56144 0.28109 0.93389 0.0
H1941 H 0.56481 0.22245 0.99031 0.0
H1942 H 0.46122 0.19751 0.99889 0.0
H1943 H 0.50015 0.20297 1.02056 0.0
C1944 C 0.00599 0.79833 0.77892 0.0
C1945 C 0.02611 0.81028 0.79703 0.0
C1946 C 0.00391 0.77557 0.76573 0.0
C1947 C 0.03375 0.72893 0.78154 0.0
H1948 H 0.98482 0.71875 0.83638 0.0
C1949 C 0.0336 0.6716 0.88024 0.0
C1950 C 0.02524 0.67818 0.9106 0.0
C1951 C 0.03104 0.68251 0.85326 0.0
C1952 C -0.00135 0.72146 0.82132 0.0
H1953 H 0.06108 0.80966 0.80877 0.0
H1954 H 0.0573 0.77009 0.788 0.0
H1955 H 0.98404 0.7443 0.79691 0.0
H1956 H 0.00781 0.70203 0.93752 0.0
H1957 H 0.005 0.72319 0.89092 0.0
H1958 H 0.04934 0.70767 0.80851 0.0
C1959 C 0.0429 0.77767 0.78367 0.0
C1960 C -0.00198 0.73575 0.7979 0.0
C1961 C 0.04509 0.80049 0.79625 0.0
C1962 C 0.01483 0.69689 0.91437 0.0
C1963 C 0.01283 0.70857 0.88749 0.0
C1964 C 0.03457 0.71491 0.80537 0.0
C1965 C 0.0216 0.76449 0.77222 0.0
C1966 C 0.01667 0.74146 0.78032 0.0
C1967 C 0.02047 0.70102 0.85634 0.0
C1968 C 0.0177 0.71233 0.82707 0.0
H1969 H 0.99133 0.80594 0.77763 0.0
H1970 H 0.98758 0.76612 0.75513 0.0
H1971 H 0.04788 0.7321 0.76721 0.0
H1972 H 0.04024 0.65663 0.87616 0.0
H1973 H 0.0365 0.67572 0.82955 0.0
C1974 C 0.56982 0.77391 0.09881 0.0
C1975 C 0.58422 0.75871 0.09193 0.0
C1976 C 0.54777 0.76779 0.0834 0.0
C1977 C 0.51224 0.71086 0.06132 0.0
H1978 H 0.52737 0.71172 0.15561 0.0
C1979 C 0.46743 0.74808 0.10821 0.0
C1980 C 0.46923 0.75897 0.14163 0.0
C1981 C 0.47434 0.72787 0.10061 0.0
C1982 C 0.52271 0.71176 0.12923 0.0
H1983 H 0.58701 0.72742 0.06044 0.0
H1984 H 0.55235 0.72166 0.02836 0.0
H1985 H 0.54903 0.73937 0.12804 0.0
H1986 H 0.4825 0.75935 0.19287 0.0
H1987 H 0.4984 0.72573 0.17884 0.0
H1988 H 0.48565 0.68388 0.06606 0.0
C1989 C 0.55714 0.73718 0.04646 0.0
C1990 C 0.53474 0.72803 0.11369 0.0
C1991 C 0.57802 0.741 0.06424 0.0
C1992 C 0.48126 0.75128 0.16674 0.0
C1993 C 0.48948 0.73153 0.15881 0.0
C1994 C 0.49985 0.69597 0.07931 0.0
C1995 C 0.54099 0.74618 0.06341 0.0
C1996 C 0.52804 0.72908 0.07976 0.0
C1997 C 0.48637 0.71948 0.12533 0.0
C1998 C 0.50097 0.70304 0.11449 0.0
H1999 H 0.57407 0.78783 0.11974 0.0
H2000 H 0.53538 0.7766 0.09413 0.0
H2001 H 0.50873 0.70899 0.03425 0.0
H2002 H 0.4582 0.7536 0.08815 0.0
H2003 H 0.47089 0.71952 0.07461 0.0
C2004 C 0.5461 0.19669 0.42369 0.0
C2005 C 0.52748 0.1889 0.44002 0.0
C2006 C 0.54473 0.21227 0.40253 0.0
C2007 C 0.52926 0.25417 0.37171 0.0
H2008 H 0.50687 0.2169 0.28438 0.0
C2009 C 0.5444 0.29819 0.28246 0.0
C2010 C 0.52485 0.30687 0.28653 0.0
C2011 C 0.54307 0.27494 0.27828 0.0
C2012 C 0.51321 0.22731 0.30857 0.0
H2013 H 0.49611 0.19649 0.45524 0.0
H2014 H 0.4932 0.22308 0.41678 0.0
H2015 H 0.50694 0.19985 0.33583 0.0
H2016 H 0.48869 0.29872 0.27705 0.0
H2017 H 0.48684 0.25857 0.27328 0.0
H2018 H 0.53574 0.28156 0.34527 0.0
C2019 C 0.50816 0.21603 0.41905 0.0
C2020 C 0.51298 0.21777 0.33779 0.0
C2021 C 0.50972 0.20062 0.44066 0.0
C2022 C 0.50411 0.29234 0.27663 0.0
C2023 C 0.503 0.2692 0.27348 0.0
C2024 C 0.52956 0.26363 0.34276 0.0
C2025 C 0.52504 0.22053 0.39828 0.0
C2026 C 0.52139 0.23119 0.36921 0.0
C2027 C 0.52255 0.26135 0.28135 0.0
C2028 C 0.52221 0.25017 0.31089 0.0
H2029 H 0.56063 0.18884 0.42381 0.0
H2030 H 0.55816 0.21625 0.38716 0.0
H2031 H 0.53581 0.2646 0.39583 0.0
H2032 H 0.56068 0.30904 0.28804 0.0
H2033 H 0.5584 0.26868 0.28195 0.0
C2034 C 0.1015 0.28054 0.57134 0.0
C2035 C 0.09328 0.26053 0.58333 0.0
C2036 C 0.09122 0.28501 0.54169 0.0
C2037 C 0.0297 0.26803 0.53423 0.0
H2038 H 0.05235 0.30213 0.6228 0.0
C2039 C 0.98405 0.24246 0.63037 0.0
C2040 C 0.9767 0.26182 0.64478 0.0
C2041 C 0.0057 0.24468 0.62144 0.0
C2042 C 0.04564 0.29228 0.59838 0.0
H2043 H 0.07259 0.2272 0.56779 0.0
H2044 H 0.05425 0.23659 0.51796 0.0
H2045 H 0.06893 0.31214 0.57394 0.0
H2046 H 0.98681 0.296 0.67172 0.0
H2047 H 0.02386 0.30028 0.65435 0.0
H2048 H 0.00471 0.24926 0.55803 0.0
C2049 C 0.0677 0.24905 0.53251 0.0
C2050 C 0.05487 0.29824 0.56991 0.0
C2051 C 0.0775 0.24388 0.56189 0.0
C2052 C 0.99208 0.28147 0.65804 0.0
C2053 C 0.01347 0.2837 0.64853 0.0
C2054 C 0.01939 0.26248 0.56221 0.0
C2055 C 0.07013 0.27195 0.52936 0.0
C2056 C 0.05071 0.28232 0.53968 0.0
C2057 C 0.01849 0.2665 0.62467 0.0
C2058 C 0.02882 0.27312 0.59504 0.0
H2059 H 0.11512 0.29304 0.58528 0.0
H2060 H 0.09596 0.30164 0.53548 0.0
H2061 H 0.02416 0.25731 0.51002 0.0
H2062 H 0.97247 0.22672 0.62157 0.0
H2063 H 0.01032 0.23055 0.60565 0.0
C2064 C 0.00956 0.06116 0.13054 0.0
C2065 C 0.01813 0.08322 0.12593 0.0
C2066 C 0.01082 0.04258 0.10602 0.0
C2067 C 0.04215 0.02414 0.03548 0.0
H2068 H 0.98905 0.97871 1.0049 0.0
C2069 C 0.04018 0.95294 0.92102 0.0
C2070 C 0.02615 0.93211 0.92031 0.0
C2071 C 0.03946 0.97141 0.94611 0.0
C2072 C 0.00424 0.99092 1.01343 0.0
H2073 H 0.03553 0.10275 0.09213 0.0
H2074 H 0.0382 0.07042 0.05007 0.0
H2075 H 0.98775 0.00999 0.04947 0.0
H2076 H 0.00109 0.91402 0.94632 0.0
H2077 H 0.0006 0.94547 0.99064 0.0
H2078 H 0.05892 0.00491 1.00036 0.0
C2079 C 0.03027 0.06752 0.07249 0.0
C2080 C 0.00339 0.00898 0.039 0.0
C2081 C 0.0287 0.08608 0.09669 0.0
C2082 C 0.01177 0.93 0.94564 0.0
C2083 C 0.01142 0.94821 0.9711 0.0
C2084 C 0.04313 0.00586 1.01031 0.0
C2085 C 0.02116 0.04554 0.07665 0.0
C2086 C 0.0223 0.02589 0.05022 0.0
C2087 C 0.02506 0.96934 0.97165 0.0
C2088 C 0.02415 0.98895 0.9987 0.0
H2089 H 0.00198 0.05817 0.15315 0.0
H2090 H 0.00394 0.02583 0.11023 0.0
H2091 H 0.05708 0.03678 0.04379 0.0
H2092 H 0.05138 0.95512 0.90187 0.0
H2093 H 0.05002 0.98736 0.94508 0.0
C2094 C 0.22173 0.74436 0.3056 0.0
C2095 C 0.21346 0.76197 0.32391 0.0
C2096 C 0.24171 0.74894 0.2916 0.0
C2097 C 0.26926 0.79535 0.25628 0.0
H2098 H 0.30827 0.75382 0.22944 0.0
C2099 C 0.34101 0.80445 0.17038 0.0
C2100 C 0.34316 0.78398 0.15111 0.0
C2101 C 0.32332 0.80505 0.19003 0.0
C2102 C 0.29728 0.76544 0.23664 0.0
H2103 H 0.2209 0.79737 0.34644 0.0
H2104 H 0.25602 0.80531 0.32226 0.0
H2105 H 0.28643 0.74852 0.27657 0.0
H2106 H 0.32682 0.74979 0.13062 0.0
H2107 H 0.29562 0.75082 0.16466 0.0
H2108 H 0.28018 0.81216 0.21608 0.0
C2109 C 0.24673 0.78819 0.31779 0.0
C2110 C 0.28505 0.76254 0.26373 0.0
C2111 C 0.22662 0.78365 0.33147 0.0
C2112 C 0.32555 0.76549 0.14626 0.0
C2113 C 0.30786 0.76608 0.16571 0.0
C2114 C 0.28169 0.79836 0.22935 0.0
C2115 C 0.25367 0.77116 0.29603 0.0
C2116 C 0.27038 0.77704 0.27305 0.0
C2117 C 0.30782 0.78524 0.18979 0.0
C2118 C 0.29512 0.78294 0.2187 0.0
H2119 H 0.21199 0.72741 0.29981 0.0
H2120 H 0.24666 0.73545 0.2749 0.0
H2121 H 0.25783 0.80662 0.26264 0.0
H2122 H 0.35444 0.81897 0.17389 0.0
H2123 H 0.32333 0.82007 0.20822 0.0
C2124 C 0.51786 0.0362 0.43335 0.0
C2125 C 0.50624 0.05224 0.44818 0.0
C2126 C 0.52023 0.01789 0.44877 0.0
C2127 C 0.52919 0.01024 0.53309 0.0
H2128 H 0.52832 0.94789 0.49543 0.0
C2129 C 0.54932 0.94109 0.606 0.0
C2130 C 0.55816 0.92412 0.5873 0.0
C2131 C 0.5451 0.95922 0.59125 0.0
C2132 C 0.52897 0.9654 0.50606 0.0
H2133 H 0.48575 0.0608 0.48808 0.0
H2134 H 0.48985 0.02869 0.51497 0.0
H2135 H 0.51105 0.9712 0.46181 0.0
H2136 H 0.57269 0.91377 0.54152 0.0
H2137 H 0.56662 0.94611 0.51657 0.0
H2138 H 0.54765 0.00461 0.57705 0.0
C2139 C 0.49724 0.03034 0.49171 0.0
C2140 C 0.51883 0.97851 0.48701 0.0
C2141 C 0.49478 0.04853 0.47618 0.0
C2142 C 0.56549 0.92669 0.55592 0.0
C2143 C 0.56194 0.94504 0.54169 0.0
C2144 C 0.53951 0.99715 0.5521 0.0
C2145 C 0.51101 0.01572 0.47912 0.0
C2146 C 0.51904 0.00101 0.50035 0.0
C2147 C 0.55012 0.9604 0.55811 0.0
C2148 C 0.53974 0.97474 0.53847 0.0
H2149 H 0.52616 0.0385 0.41115 0.0
H2150 H 0.53084 0.00663 0.43864 0.0
H2151 H 0.52983 0.02779 0.54347 0.0
H2152 H 0.54379 0.9393 0.63045 0.0
H2153 H 0.53612 0.97105 0.60445 0.0
C2154 C 0.33882 0.24006 0.87501 0.0
C2155 C 0.33702 0.22999 0.90382 0.0
C2156 C 0.32023 0.23819 0.85174 0.0
C2157 C 0.2614 0.20637 0.82678 0.0
H2158 H 0.25856 0.25471 0.77611 0.0
C2159 C 0.18224 0.21865 0.74594 0.0
C2160 C 0.18579 0.22329 0.71354 0.0
C2161 C 0.20027 0.21743 0.76873 0.0
C2162 C 0.25919 0.24102 0.78996 0.0
H2163 H 0.3142 0.21052 0.93127 0.0
H2164 H 0.28144 0.20803 0.89169 0.0
H2165 H 0.29031 0.25756 0.81744 0.0
H2166 H 0.21078 0.22835 0.67877 0.0
H2167 H 0.24221 0.2271 0.71889 0.0
H2168 H 0.22952 0.19046 0.7999 0.0
C2169 C 0.29735 0.21671 0.88616 0.0
C2170 C 0.27752 0.24252 0.81359 0.0
C2171 C 0.31614 0.21819 0.90909 0.0
C2172 C 0.20753 0.22533 0.70381 0.0
C2173 C 0.22555 0.22459 0.72674 0.0
C2174 C 0.2428 0.20512 0.80359 0.0
C2175 C 0.29909 0.22663 0.85698 0.0
C2176 C 0.27909 0.22513 0.83223 0.0
C2177 C 0.22218 0.22107 0.75964 0.0
C2178 C 0.24162 0.22234 0.78472 0.0
H2179 H 0.35483 0.24889 0.86993 0.0
H2180 H 0.32264 0.24555 0.82932 0.0
H2181 H 0.26198 0.19239 0.83998 0.0
H2182 H 0.1657 0.21697 0.75424 0.0
H2183 H 0.1972 0.21467 0.79394 0.0
C2184 C 0.72328 0.28408 0.83478 0.0
C2185 C 0.70965 0.26309 0.82209 0.0
C2186 C 0.74492 0.28886 0.82605 0.0
C2187 C 0.78731 0.26398 0.77976 0.0
H2188 H 0.79385 0.31895 0.74183 0.0
C2189 C 0.83365 0.27082 0.66696 0.0
C2190 C 0.85303 0.28739 0.67351 0.0
C2191 C 0.81676 0.27181 0.68793 0.0
C2192 C 0.79231 0.30373 0.75265 0.0
H2193 H 0.70831 0.22985 0.7931 0.0
H2194 H 0.74571 0.23842 0.77655 0.0
H2195 H 0.76586 0.31191 0.78076 0.0
H2196 H 0.8684 0.32004 0.70258 0.0
H2197 H 0.83869 0.32184 0.73931 0.0
H2198 H 0.81286 0.25526 0.74988 0.0
C2199 C 0.73998 0.25114 0.79369 0.0
C2200 C 0.77654 0.29976 0.77519 0.0
C2201 C 0.71845 0.2463 0.80279 0.0
C2202 C 0.85387 0.30675 0.69764 0.0
C2203 C 0.8369 0.30782 0.71865 0.0
C2204 C 0.80284 0.26783 0.75697 0.0
C2205 C 0.75307 0.27278 0.80415 0.0
C2206 C 0.77328 0.2794 0.78779 0.0
C2207 C 0.8191 0.28956 0.71525 0.0
C2208 C 0.80472 0.28727 0.74229 0.0
H2209 H 0.71711 0.29701 0.85075 0.0
H2210 H 0.75488 0.30546 0.8351 0.0
H2211 H 0.78546 0.2484 0.78968 0.0
H2212 H 0.83235 0.25625 0.64741 0.0
H2213 H 0.80268 0.25792 0.68437 0.0
C2214 C 0.82127 0.70572 0.39296 0.0
C2215 C 0.83248 0.72691 0.41046 0.0
C2216 C 0.80302 0.70399 0.36909 0.0
C2217 C 0.7788 0.73843 0.31423 0.0
H2218 H 0.72559 0.6921 0.30435 0.0
C2219 C 0.69711 0.74671 0.24459 0.0
C2220 C 0.68601 0.72844 0.22044 0.0
C2221 C 0.71513 0.7445 0.26603 0.0
C2222 C 0.7405 0.70492 0.30658 0.0
H2223 H 0.83255 0.76273 0.41746 0.0
H2224 H 0.80063 0.75973 0.37671 0.0
H2225 H 0.75659 0.69219 0.34639 0.0
H2226 H 0.68359 0.69301 0.20112 0.0
H2227 H 0.71512 0.6888 0.2397 0.0
H2228 H 0.76253 0.75153 0.27518 0.0
C2229 C 0.80625 0.74447 0.38076 0.0
C2230 C 0.75822 0.70501 0.33062 0.0
C2231 C 0.8245 0.74619 0.40443 0.0
C2232 C 0.69223 0.7074 0.21935 0.0
C2233 C 0.71018 0.70503 0.24129 0.0
C2234 C 0.7611 0.73844 0.29049 0.0
C2235 C 0.79562 0.72343 0.36222 0.0
C2236 C 0.77736 0.72209 0.33521 0.0
C2237 C 0.72205 0.72373 0.26435 0.0
C2238 C 0.7416 0.72198 0.28692 0.0
H2239 H 0.82717 0.69051 0.3965 0.0
H2240 H 0.79529 0.68754 0.35512 0.0
H2241 H 0.79357 0.75143 0.31638 0.0
H2242 H 0.69164 0.76269 0.2472 0.0
H2243 H 0.72354 0.75902 0.28423 0.0
C2244 C 0.50024 0.56034 0.61489 0.0
C2245 C 0.51703 0.57972 0.62282 0.0
C2246 C 0.50248 0.54197 0.59081 0.0
C2247 C 0.53623 0.52551 0.52026 0.0
H2248 H 0.50613 0.46549 0.52712 0.0
C2249 C 0.54748 0.44423 0.43108 0.0
C2250 C 0.52808 0.42786 0.41969 0.0
C2251 C 0.54693 0.46307 0.45558 0.0
C2252 C 0.51451 0.48216 0.52465 0.0
H2253 H 0.55027 0.59408 0.61239 0.0
H2254 H 0.55472 0.56175 0.57184 0.0
H2255 H 0.50439 0.49691 0.57111 0.0
H2256 H 0.49275 0.41896 0.42505 0.0
H2257 H 0.49189 0.45158 0.46754 0.0
H2258 H 0.54672 0.51037 0.47398 0.0
C2259 C 0.53918 0.5611 0.58311 0.0
C2260 C 0.51345 0.50033 0.54992 0.0
C2261 C 0.53668 0.5797 0.60675 0.0
C2262 C 0.50809 0.43106 0.43318 0.0
C2263 C 0.50759 0.44976 0.45778 0.0
C2264 C 0.53752 0.50725 0.49517 0.0
C2265 C 0.52196 0.54201 0.57435 0.0
C2266 C 0.52406 0.52239 0.54802 0.0
C2267 C 0.52702 0.46592 0.46958 0.0
C2268 C 0.52645 0.48536 0.49682 0.0
H2269 H 0.48512 0.55925 0.62672 0.0
H2270 H 0.48859 0.52792 0.58471 0.0
H2271 H 0.54437 0.54215 0.51734 0.0
H2272 H 0.56324 0.44227 0.42169 0.0
H2273 H 0.56225 0.47509 0.46425 0.0
C2274 C 0.01717 0.53632 0.9375 0.0
C2275 C 0.00634 0.55301 0.95242 0.0
C2276 C 0.02223 0.52004 0.95557 0.0
C2277 C 0.01417 0.49645 0.03296 0.0
H2278 H 0.0768 0.49333 0.02981 0.0
C2279 C 0.05452 0.44141 0.10922 0.0
C2280 C 0.05779 0.42337 0.08532 0.0
C2281 C 0.05253 0.46177 0.09917 0.0
C2282 C 0.05945 0.49453 0.03135 0.0
H2283 H 0.98954 0.56448 0.99534 0.0
H2284 H -0.00189 0.5359 0.02688 0.0
H2285 H 0.05983 0.51638 0.99508 0.0
H2286 H 0.06454 0.41275 0.03399 0.0
H2287 H 0.06178 0.44851 1.01665 0.0
H2288 H 0.01376 0.47421 0.06874 0.0
C2289 C 0.00291 0.53534 1.00154 0.0
C2290 C 0.04962 0.50722 1.01108 0.0
C2291 C -0.00216 0.55157 0.98339 0.0
C2292 C 0.06146 0.42644 0.05246 0.0
C2293 C 0.06024 0.44691 0.04275 0.0
C2294 C 0.02406 0.48393 0.05348 0.0
C2295 C 0.01641 0.52047 0.98861 0.0
C2296 C 0.02674 0.50763 1.01093 0.0
C2297 C 0.05467 0.46426 0.06557 0.0
C2298 C 0.04655 0.48237 0.05195 0.0
H2299 H 0.02308 0.53685 0.91304 0.0
H2300 H 0.03202 0.50816 0.94469 0.0
H2301 H -0.00346 0.49665 0.03335 0.0
H2302 H 0.05197 0.43926 0.13486 0.0
H2303 H 0.04811 0.47506 0.11694 0.0
C2304 C 0.02606 0.16203 0.31038 0.0
C2305 C 0.03415 0.14794 0.28471 0.0
C2306 C 0.03812 0.17077 0.3424 0.0
C2307 C 0.08456 0.16214 0.40501 0.0
H2308 H 0.07723 0.22036 0.45106 0.0
C2309 C 0.12138 0.1982 0.5494 0.0
C2310 C 0.12679 0.22173 0.56069 0.0
C2311 C 0.11037 0.18846 0.51646 0.0
C2312 C 0.07984 0.20411 0.43894 0.0
H2313 H 0.05994 0.12826 0.27833 0.0
H2314 H 0.08191 0.14425 0.33286 0.0
H2315 H 0.05956 0.2061 0.39412 0.0
H2316 H 0.12825 0.25286 0.54091 0.0
H2317 H 0.1096 0.23669 0.4856 0.0
H2318 H 0.10518 0.16044 0.45002 0.0
C2319 C 0.06651 0.14989 0.32711 0.0
C2320 C 0.06924 0.19562 0.40575 0.0
C2321 C 0.05426 0.14125 0.29467 0.0
C2322 C 0.12282 0.23477 0.53553 0.0
C2323 C 0.11198 0.2253 0.5029 0.0
C2324 C 0.09513 0.17063 0.43845 0.0
C2325 C 0.05879 0.1651 0.35191 0.0
C2326 C 0.07119 0.17437 0.38769 0.0
C2327 C 0.10503 0.20183 0.49236 0.0
C2328 C 0.09315 0.19195 0.4564 0.0
H2329 H 0.00958 0.16578 0.30634 0.0
H2330 H 0.03048 0.18133 0.36034 0.0
H2331 H 0.08665 0.14568 0.39295 0.0
H2332 H 0.12707 0.18721 0.56471 0.0
H2333 H 0.10637 0.1703 0.50985 0.0
C2334 C 0.1417 0.79491 0.43343 0.0
C2335 C 0.16147 0.78624 0.43214 0.0
C2336 C 0.13547 0.80467 0.4639 0.0
C2337 C 0.14118 0.80115 0.55277 0.0
H2338 H 0.12037 0.85784 0.56641 0.0
C2339 C 0.13303 0.8487 0.68385 0.0
C2340 C 0.11549 0.86049 0.68815 0.0
C2341 C 0.13618 0.83806 0.65192 0.0
C2342 C 0.12575 0.84178 0.5628 0.0
H2343 H 0.19057 0.78167 0.46229 0.0
H2344 H 0.1795 0.79853 0.51596 0.0
H2345 H 0.13213 0.84386 0.51182 0.0
H2346 H 0.08699 0.86986 0.66284 0.0
H2347 H 0.09259 0.85131 0.60657 0.0
H2348 H 0.13475 0.79892 0.60356 0.0
C2349 C 0.16889 0.79777 0.49297 0.0
C2350 C 0.13262 0.83389 0.53166 0.0
C2351 C 0.17531 0.78834 0.46225 0.0
C2352 C 0.10067 0.86088 0.66007 0.0
C2353 C 0.10396 0.8504 0.62795 0.0
C2354 C 0.13418 0.80894 0.58379 0.0
C2355 C 0.14868 0.80561 0.49406 0.0
C2356 C 0.14082 0.81374 0.52664 0.0
C2357 C 0.12194 0.83912 0.62351 0.0
C2358 C 0.12681 0.82957 0.58939 0.0
H2359 H 0.1304 0.79345 0.41133 0.0
H2360 H 0.11973 0.81045 0.46401 0.0
H2361 H 0.14687 0.78524 0.54918 0.0
H2362 H 0.14449 0.84796 0.70522 0.0
H2363 H 0.15029 0.82968 0.64935 0.0
C2364 C 0.46571 0.85158 0.94029 0.0
C2365 C 0.45403 0.83042 0.94508 0.0
C2366 C 0.47477 0.85495 0.90986 0.0
C2367 C 0.47451 0.82838 0.81678 0.0
H2368 H 0.52325 0.87844 0.82104 0.0
C2369 C 0.51693 0.84617 0.692 0.0
C2370 C 0.53404 0.86506 0.69295 0.0
C2371 C 0.50583 0.84215 0.721 0.0
C2372 C 0.5095 0.86443 0.81815 0.0
H2373 H 0.44347 0.79594 0.91963 0.0
H2374 H 0.46002 0.80143 0.867 0.0
H2375 H 0.50824 0.87051 0.87158 0.0
H2376 H 0.55266 0.89423 0.72699 0.0
H2377 H 0.53408 0.88793 0.77581 0.0
H2378 H 0.4758 0.8223 0.76318 0.0
C2379 C 0.46182 0.81581 0.887 0.0
C2380 C 0.50058 0.85979 0.84828 0.0
C2381 C 0.45254 0.81246 0.91777 0.0
C2382 C 0.53937 0.87965 0.72434 0.0
C2383 C 0.52857 0.87564 0.75324 0.0
C2384 C 0.48335 0.83315 0.78637 0.0
C2385 C 0.47304 0.83729 0.88204 0.0
C2386 C 0.4828 0.84166 0.84872 0.0
C2387 C 0.51174 0.85643 0.75307 0.0
C2388 C 0.5013 0.85133 0.78593 0.0
H2389 H 0.4673 0.86608 0.96012 0.0
H2390 H 0.48257 0.87192 0.90809 0.0
H2391 H 0.46079 0.81433 0.81494 0.0
H2392 H 0.51261 0.83387 0.66925 0.0
H2393 H 0.49302 0.82724 0.71799 0.0
C2394 C 0.482 0.13405 0.35916 0.0
C2395 C 0.48426 0.11197 0.36172 0.0
C2396 C 0.46984 0.13827 0.33113 0.0
C2397 C 0.4307 0.11046 0.25595 0.0
H2398 H 0.4591 0.16074 0.2169 0.0
C2399 C 0.40873 0.11895 0.11873 0.0
C2400 C 0.40322 0.13966 0.11411 0.0
C2401 C 0.41855 0.11646 0.14983 0.0
C2402 C 0.45097 0.14675 0.2277 0.0
H2403 H 0.4758 0.07703 0.33783 0.0
H2404 H 0.45477 0.0843 0.28836 0.0
H2405 H 0.47464 0.15481 0.27144 0.0
H2406 H 0.40418 0.17415 0.13854 0.0
H2407 H 0.42199 0.16986 0.19237 0.0
H2408 H 0.4075 0.10204 0.21155 0.0
C2409 C 0.4618 0.09832 0.30828 0.0
C2410 C 0.4597 0.14343 0.25898 0.0
C2411 C 0.47388 0.09411 0.33641 0.0
C2412 C 0.40845 0.15802 0.14098 0.0
C2413 C 0.41857 0.1556 0.17188 0.0
C2414 C 0.42216 0.11363 0.22452 0.0
C2415 C 0.46011 0.1205 0.305 0.0
C2416 C 0.44976 0.12512 0.27327 0.0
C2417 C 0.4233 0.1347 0.17669 0.0
C2418 C 0.43233 0.13166 0.21007 0.0
H2419 H 0.49026 0.14814 0.37824 0.0
H2420 H 0.46856 0.15549 0.32955 0.0
H2421 H 0.42247 0.09644 0.26659 0.0
H2422 H 0.40544 0.10464 0.09837 0.0
H2423 H 0.42242 0.10027 0.15294 0.0
C2424 C 0.89546 0.78614 0.54732 0.0
C2425 C 0.89377 0.76275 0.54129 0.0
C2426 C 0.90842 0.79944 0.57597 0.0
C2427 C 0.95058 0.79608 0.64754 0.0
H2428 H 0.93524 0.85278 0.68546 0.0
C2429 C 0.0056 0.8545 0.76025 0.0
C2430 C -0.00371 0.86928 0.78279 0.0
C2431 C 0.99303 0.84164 0.73126 0.0
C2432 C 0.93961 0.8368 0.67581 0.0
H2433 H 0.90365 0.73478 0.56135 0.0
H2434 H 0.9245 0.75728 0.6121 0.0
H2435 H 0.91363 0.83035 0.63528 0.0
H2436 H 0.96717 0.88398 0.79028 0.0
H2437 H 0.9441 0.85984 0.74186 0.0
H2438 H 0.97535 0.80154 0.68944 0.0
C2439 C 0.91702 0.76592 0.59419 0.0
C2440 C 0.92741 0.82405 0.64622 0.0
C2441 C 0.90462 0.75283 0.5652 0.0
C2442 C 0.97427 0.87159 0.77483 0.0
C2443 C 0.96131 0.85815 0.74625 0.0
C2444 C 0.96232 0.80848 0.67764 0.0
C2445 C 0.91937 0.78953 0.60006 0.0
C2446 C 0.9327 0.80347 0.63145 0.0
C2447 C 0.97052 0.84297 0.72379 0.0
C2448 C 0.95721 0.8292 0.69224 0.0
H2449 H 0.88666 0.79421 0.53024 0.0
H2450 H 0.90985 0.81751 0.57897 0.0
H2451 H 0.95575 0.78069 0.63695 0.0
H2452 H 0.02294 0.8532 0.76469 0.0
H2453 H 0.00134 0.83107 0.7144 0.0
C2454 C 0.91413 0.22225 0.56693 0.0
C2455 C 0.89341 0.2262 0.57655 0.0
C2456 C 0.91526 0.20788 0.53713 0.0
C2457 C 0.8891 0.16144 0.47491 0.0
H2458 H 0.92111 0.193 0.41165 0.0
C2459 C 0.9036 0.11351 0.34756 0.0
C2460 C 0.92506 0.11889 0.33762 0.0
C2461 C 0.89663 0.12764 0.37353 0.0
C2462 C 0.91228 0.18389 0.42906 0.0
H2463 H 0.85766 0.21747 0.56383 0.0
H2464 H 0.85962 0.19088 0.51217 0.0
H2465 H 0.91498 0.21381 0.46579 0.0
H2466 H 0.95579 0.14352 0.34563 0.0
H2467 H 0.9441 0.16783 0.3921 0.0
H2468 H 0.88749 0.13132 0.43952 0.0
C2469 C 0.87488 0.19931 0.52766 0.0
C2470 C 0.90867 0.19582 0.45987 0.0
C2471 C 0.87375 0.21423 0.55721 0.0
C2472 C 0.93915 0.13908 0.35301 0.0
C2473 C 0.93235 0.15304 0.37943 0.0
C2474 C 0.89303 0.14941 0.44434 0.0
C2475 C 0.8957 0.19693 0.51679 0.0
C2476 C 0.8974 0.18458 0.48315 0.0
C2477 C 0.91117 0.1472 0.39052 0.0
C2478 C 0.905 0.16043 0.42128 0.0
H2479 H 0.92957 0.23185 0.58056 0.0
H2480 H 0.93147 0.20618 0.52908 0.0
H2481 H 0.88047 0.15254 0.49273 0.0
H2482 H 0.89232 0.09819 0.33551 0.0
H2483 H 0.88 0.12295 0.38075 0.0
C2484 C 0.6289 0.14557 1.01436 0.0
C2485 C 0.6348 0.16746 1.00751 0.0
C2486 C 0.62252 0.14219 0.04573 0.0
C2487 C 0.60134 0.16624 0.12199 0.0
H2488 H 0.6346 0.12722 0.16291 0.0
C2489 C 0.59778 0.1512 0.25995 0.0
C2490 C 0.5986 0.12926 0.26543 0.0
C2491 C 0.60014 0.15676 0.22807 0.0
C2492 C 0.62494 0.13788 0.15165 0.0
H2493 H 0.63773 0.20301 0.02771 0.0
H2494 H 0.62617 0.19691 0.08275 0.0
H2495 H 0.64235 0.13574 0.1078 0.0
H2496 H 0.60088 0.09557 0.24181 0.0
H2497 H 0.60466 0.10515 0.18594 0.0
H2498 H 0.58372 0.16812 0.16596 0.0
C2499 C 0.62659 0.18249 0.06364 0.0
C2500 C 0.62945 0.14283 0.12022 0.0
C2501 C 0.63317 0.18592 0.0322 0.0
C2502 C 0.60074 0.11272 0.23831 0.0
C2503 C 0.60289 0.11822 0.20644 0.0
C2504 C 0.59667 0.16114 0.15355 0.0
C2505 C 0.62177 0.1606 0.0708 0.0
C2506 C 0.61748 0.15673 0.10491 0.0
C2507 C 0.60323 0.14042 0.20122 0.0
C2508 C 0.60823 0.14661 0.16836 0.0
H2509 H 0.62943 0.13102 0.99556 0.0
H2510 H 0.6185 0.12513 0.05062 0.0
H2511 H 0.59196 0.17706 0.11054 0.0
H2512 H 0.59612 0.16422 0.28058 0.0
H2513 H 0.60042 0.17401 0.22478 0.0
C2514 C 0.61401 0.85132 0.78531 0.0
C2515 C 0.60615 0.87167 0.78788 0.0
C2516 C 0.61353 0.83958 0.81189 0.0
C2517 C 0.5962 0.8333 0.89473 0.0
H2518 H 0.65734 0.82511 0.9103 0.0
C2519 C 0.64541 0.81725 1.01547 0.0
C2520 C 0.6598 0.80194 1.00883 0.0
C2521 C 0.6316 0.82152 0.98916 0.0
C2522 C 0.64013 0.82697 0.90599 0.0
H2523 H 0.58957 0.89445 0.81933 0.0
H2524 H 0.5903 0.87442 0.86729 0.0
H2525 H 0.64652 0.84178 0.8627 0.0
H2526 H 0.66903 0.77686 0.9712 0.0
H2527 H 0.64496 0.78442 0.9251 0.0
H2528 H 0.59036 0.81894 0.93934 0.0
C2529 C 0.59634 0.86754 0.84411 0.0
C2530 C 0.63395 0.83654 0.87885 0.0
C2531 C 0.59631 0.87914 0.81695 0.0
C2532 C 0.65844 0.78914 0.97656 0.0
C2533 C 0.64456 0.79327 0.95042 0.0
C2534 C 0.60252 0.82376 0.9224 0.0
C2535 C 0.60594 0.84827 0.84214 0.0
C2536 C 0.61187 0.83929 0.87248 0.0
C2537 C 0.6321 0.81042 0.95622 0.0
C2538 C 0.62444 0.82012 0.92758 0.0
H2539 H 0.62202 0.84506 0.76375 0.0
H2540 H 0.62076 0.82455 0.80974 0.0
H2541 H 0.57915 0.83558 0.89033 0.0
H2542 H 0.64612 0.82715 0.04036 0.0
H2543 H 0.62218 0.83489 0.99402 0.0
C2544 C 0.55032 0.63994 0.79428 0.0
C2545 C 0.53006 0.6465 0.78475 0.0
C2546 C 0.56302 0.64886 0.82632 0.0
C2547 C 0.56566 0.69459 0.90561 0.0
H2548 H 0.60839 0.66382 0.94487 0.0
C2549 C 0.6216 0.73792 0.03213 0.0
C2550 C 0.62819 0.72527 0.05656 0.0
C2551 C 0.61055 0.72775 0.99978 0.0
C2552 C 0.59646 0.67279 0.93476 0.0
H2553 H 0.50555 0.66421 0.8069 0.0
H2554 H 0.52665 0.6792 0.8611 0.0
H2555 H 0.58795 0.64761 0.88959 0.0
H2556 H 0.63477 0.69218 0.05809 0.0
H2557 H 0.61353 0.67363 1.00424 0.0
H2558 H 0.57361 0.71943 0.95081 0.0
C2559 C 0.53427 0.66884 0.84289 0.0
C2560 C 0.58469 0.66345 0.90225 0.0
C2561 C 0.52188 0.66002 0.81103 0.0
C2562 C 0.62628 0.70208 0.04404 0.0
C2563 C 0.61505 0.69164 1.01149 0.0
C2564 C 0.57736 0.70388 0.93793 0.0
C2565 C 0.5555 0.66396 0.85153 0.0
C2566 C 0.56884 0.67404 0.88663 0.0
C2567 C 0.60621 0.70418 0.98868 0.0
C2568 C 0.59324 0.69339 0.95359 0.0
H2569 H 0.55582 0.62685 0.77799 0.0
H2570 H 0.5787 0.64355 0.83132 0.0
H2571 H 0.55415 0.70396 0.89543 0.0
H2572 H 0.62387 0.75606 0.03861 0.0
H2573 H 0.60553 0.73874 0.98337 0.0
C2574 C 0.6217 0.38046 0.15939 0.0
C2575 C 0.61668 0.36727 0.18418 0.0
C2576 C 0.62549 0.37052 0.12737 0.0
C2577 C 0.61866 0.31587 0.06949 0.0
H2578 H 0.6664 0.34841 0.02797 0.0
C2579 C 0.63424 0.28737 0.93291 0.0
C2580 C 0.65627 0.28606 0.92677 0.0
C2581 C 0.62948 0.29829 0.96361 0.0
C2582 C 0.65314 0.33909 0.03937 0.0
H2583 H 0.61108 0.33337 0.19505 0.0
H2584 H 0.61845 0.31589 0.13922 0.0
H2585 H 0.6574 0.36457 0.0832 0.0
H2586 H 0.69077 0.29558 0.94784 0.0
H2587 H 0.68258 0.3154 1.00192 0.0
H2588 H 0.6148 0.29015 1.02583 0.0
C2589 C 0.61905 0.33388 0.14425 0.0
C2590 C 0.64776 0.34844 0.07081 0.0
C2591 C 0.61492 0.34384 0.17622 0.0
C2592 C 0.67365 0.29657 0.95182 0.0
C2593 C 0.66894 0.30785 0.98264 0.0
C2594 C 0.62405 0.30652 0.03803 0.0
C2595 C 0.6247 0.34718 0.11959 0.0
C2596 C 0.6304 0.337 0.08621 0.0
C2597 C 0.64672 0.30825 0.98908 0.0
C2598 C 0.64129 0.3181 1.02263 0.0
H2599 H 0.62274 0.39852 0.16486 0.0
H2600 H 0.62915 0.38117 0.10873 0.0
H2601 H 0.60511 0.30665 0.08046 0.0
H2602 H 0.62049 0.27906 0.91475 0.0
H2603 H 0.61222 0.29851 0.96764 0.0
C2604 C 0.01987 0.37236 0.20674 0.0
C2605 C 0.03022 0.35565 0.18953 0.0
C2606 C 0.00875 0.36904 0.23605 0.0
C2607 C 0.99374 0.32397 0.29358 0.0
H2608 H 0.98015 0.37413 0.35381 0.0
C2609 C 0.95261 0.31021 0.41961 0.0
C2610 C 0.95441 0.32844 0.44647 0.0
C2611 C 0.96108 0.3132 0.38828 0.0
C2612 C 0.98411 0.35974 0.33791 0.0
H2613 H 0.03866 0.32364 0.19366 0.0
H2614 H 0.02089 0.31807 0.24329 0.0
H2615 H -0.00463 0.38021 0.30161 0.0
H2616 H 0.96781 0.36417 0.46048 0.0
H2617 H 0.98283 0.36917 0.4078 0.0
H2618 H 0.98344 0.30369 0.33045 0.0
C2619 C 0.01929 0.33306 0.23343 0.0
C2620 C 0.99269 0.36326 0.30694 0.0
C2621 C 0.02971 0.3362 0.20409 0.0
C2622 C 0.96579 0.34953 0.44081 0.0
C2623 C 0.9743 0.3525 0.40983 0.0
C2624 C 0.98554 0.32053 0.32471 0.0
C2625 C 0.0084 0.34924 0.25062 0.0
C2626 C -0.00199 0.34552 0.28381 0.0
C2627 C 0.97189 0.33457 0.38226 0.0
C2628 C 0.98055 0.3383 0.34802 0.0
H2629 H 0.02132 0.38849 0.1987 0.0
H2630 H 0.00097 0.38243 0.2476 0.0
H2631 H -0.00347 0.30923 0.27721 0.0
H2632 H 0.94376 0.29376 0.4222 0.0
H2633 H 0.95841 0.29866 0.36843 0.0
C2634 C -0.00297 0.62306 0.8369 0.0
C2635 C 0.98757 0.60874 0.85793 0.0
C2636 C 0.98431 0.62726 0.80958 0.0
C2637 C 0.93345 0.6034 0.75204 0.0
H2638 H 0.94659 0.66166 0.7242 0.0
C2639 C 0.90512 0.61649 0.61898 0.0
C2640 C 0.89755 0.63649 0.61591 0.0
C2641 C 0.91493 0.61359 0.64988 0.0
C2642 C 0.94248 0.64539 0.73183 0.0
H2643 H 0.95833 0.58526 0.8647 0.0
H2644 H 0.93494 0.594 0.81837 0.0
H2645 H 0.96415 0.65639 0.77749 0.0
H2646 H 0.89416 0.66909 0.64288 0.0
H2647 H 0.91125 0.66403 0.69672 0.0
H2648 H 0.91129 0.59265 0.7067 0.0
C2649 C 0.95227 0.60229 0.82327 0.0
C2650 C 0.95275 0.64226 0.76221 0.0
C2651 C 0.96535 0.59773 0.85033 0.0
C2652 C 0.90009 0.65358 0.64432 0.0
C2653 C 0.90988 0.65069 0.67518 0.0
C2654 C 0.92295 0.60662 0.72183 0.0
C2655 C 0.96169 0.61715 0.80256 0.0
C2656 C 0.94872 0.6211 0.77235 0.0
C2657 C 0.91732 0.63063 0.67833 0.0
C2658 C 0.92764 0.62753 0.71115 0.0
H2659 H 0.01456 0.63041 0.8408 0.0
H2660 H 0.99249 0.6379 0.79338 0.0
H2661 H 0.93012 0.58683 0.75885 0.0
H2662 H 0.90376 0.60319 0.59739 0.0
H2663 H 0.92093 0.59813 0.65135 0.0
C2664 C 0.47854 0.35114 0.27839 0.0
C2665 C 0.49325 0.37172 0.28056 0.0
C2666 C 0.46514 0.34066 0.24897 0.0
C2667 C 0.46523 0.32882 0.16135 0.0
H2668 H 0.40067 0.31388 0.15547 0.0
C2669 C 0.41589 0.27922 0.03887 0.0
C2670 C 0.39502 0.26564 0.03845 0.0
C2671 C 0.42639 0.294 0.0675 0.0
C2672 C 0.41867 0.31752 0.15664 0.0
H2673 H 0.50582 0.39707 0.25117 0.0
H2674 H 0.48309 0.37797 0.19839 0.0
H2675 H 0.42169 0.33708 0.20635 0.0
H2676 H 0.36923 0.25581 0.07 0.0
H2677 H 0.38838 0.27998 0.12159 0.0
H2678 H 0.4629 0.30782 0.11354 0.0
C2679 C 0.4814 0.37056 0.22092 0.0
C2680 C 0.43065 0.33116 0.18567 0.0
C2681 C 0.49429 0.38151 0.25121 0.0
C2682 C 0.38505 0.26663 0.06879 0.0
C2683 C 0.39609 0.28065 0.09846 0.0
C2684 C 0.45336 0.31464 0.13277 0.0
C2685 C 0.4667 0.35 0.21975 0.0
C2686 C 0.45398 0.33717 0.18803 0.0
C2687 C 0.41713 0.29452 0.09826 0.0
C2688 C 0.4298 0.309 0.12962 0.0
H2689 H 0.47793 0.34223 0.29864 0.0
H2690 H 0.45437 0.32454 0.24864 0.0
H2691 H 0.48329 0.33261 0.16314 0.0
H2692 H 0.42473 0.2779 1.01736 0.0
H2693 H 0.44214 0.30458 0.06528 0.0
C2694 C 0.41231 0.71995 0.07585 0.0
C2695 C 0.39239 0.72809 0.07742 0.0
C2696 C 0.41566 0.70534 0.0476 0.0
C2697 C 0.38999 0.67204 0.96542 0.0
H2698 H 0.4485 0.69339 0.93871 0.0
C2699 C 0.41603 0.63709 0.83751 0.0
C2700 C 0.43531 0.62794 0.84129 0.0
C2701 C 0.41056 0.65178 0.86426 0.0
C2702 C 0.43211 0.68736 0.94587 0.0
H2703 H 0.3595 0.72602 0.05211 0.0
H2704 H 0.36551 0.70092 1.00175 0.0
H2705 H 0.43796 0.71059 0.99221 0.0
H2706 H 0.46486 0.62777 0.87398 0.0
H2707 H 0.45553 0.65378 0.92081 0.0
H2708 H 0.38426 0.64881 0.91884 0.0
C2709 C 0.37846 0.70547 1.02273 0.0
C2710 C 0.42614 0.69696 0.97658 0.0
C2711 C 0.37498 0.71977 0.05151 0.0
C2712 C 0.44987 0.6347 0.87093 0.0
C2713 C 0.44458 0.6496 0.89746 0.0
C2714 C 0.39593 0.66252 0.93453 0.0
C2715 C 0.39935 0.69925 1.01985 0.0
C2716 C 0.40522 0.68905 0.98698 0.0
C2717 C 0.42451 0.6576 0.89473 0.0
C2718 C 0.41718 0.66985 0.92486 0.0
H2719 H 0.42584 0.726 0.09554 0.0
H2720 H 0.43163 0.7001 0.04652 0.0
H2721 H 0.37376 0.6657 0.97281 0.0
H2722 H 0.4047 0.63197 0.8146 0.0
H2723 H 0.39511 0.65796 0.86161 0.0
C2724 C 0.11644 0.65954 0.51634 0.0
C2725 C 0.1378 0.6721 0.51594 0.0
C2726 C 0.10775 0.65782 0.54693 0.0
C2727 C 0.11564 0.68238 0.63769 0.0
H2728 H 0.09358 0.62093 0.64885 0.0
C2729 C 0.12072 0.65154 0.76405 0.0
C2730 C 0.10264 0.63606 0.77086 0.0
C2731 C 0.1206 0.65863 0.73293 0.0
C2732 C 0.09923 0.63823 0.64596 0.0
H2733 H 0.16655 0.69365 0.5459 0.0
H2734 H 0.15161 0.69036 0.59979 0.0
H2735 H 0.10128 0.62881 0.59332 0.0
H2736 H 0.07006 0.61615 0.75146 0.0
H2737 H 0.07008 0.62814 0.69645 0.0
H2738 H 0.11458 0.69153 0.69086 0.0
C2739 C 0.14145 0.68196 0.57668 0.0
C2740 C 0.10361 0.64276 0.61418 0.0
C2741 C 0.15014 0.68362 0.54607 0.0
C2742 C 0.08425 0.62801 0.74647 0.0
C2743 C 0.08424 0.63487 0.71519 0.0
C2744 C 0.11133 0.67782 0.66956 0.0
C2745 C 0.12032 0.66875 0.5774 0.0
C2746 C 0.11244 0.66476 0.60993 0.0
C2747 C 0.10249 0.65011 0.70811 0.0
C2748 C 0.10368 0.65562 0.67404 0.0
H2749 H 0.10665 0.6509 0.49304 0.0
H2750 H 0.09133 0.64773 0.54682 0.0
H2751 H 0.12212 0.69954 0.63493 0.0
H2752 H 0.13486 0.6582 0.78285 0.0
H2753 H 0.13497 0.67023 0.7279 0.0
C2754 C 0.10737 0.35212 0.28277 0.0
C2755 C 0.10555 0.37488 0.29033 0.0
C2756 C 0.10555 0.33865 0.30752 0.0
C2757 C 0.09461 0.33673 0.3968 0.0
H2758 H 0.14571 0.30729 0.39534 0.0
C2759 C 0.14461 0.3186 0.51317 0.0
C2760 C 0.15553 0.3002 0.50834 0.0
C2761 C 0.13106 0.32296 0.48653 0.0
C2762 C 0.131 0.31486 0.39589 0.0
H2763 H 0.09758 0.40046 0.32873 0.0
H2764 H 0.09591 0.37735 0.37256 0.0
H2765 H 0.13507 0.32366 0.3476 0.0
H2766 H 0.15884 0.2704 0.47395 0.0
H2767 H 0.13476 0.27764 0.42761 0.0
H2768 H 0.09161 0.32884 0.44641 0.0
C2769 C 0.09848 0.36984 0.34739 0.0
C2770 C 0.12485 0.32427 0.36836 0.0
C2771 C 0.09985 0.38322 0.32238 0.0
C2772 C 0.15092 0.28495 0.47787 0.0
C2773 C 0.13717 0.28911 0.45146 0.0
C2774 C 0.10089 0.32732 0.42463 0.0
C2775 C 0.10241 0.34774 0.34059 0.0
C2776 C 0.10674 0.33553 0.36854 0.0
C2777 C 0.12816 0.30883 0.4549 0.0
C2778 C 0.11931 0.31648 0.4245 0.0
H2779 H 0.11174 0.34499 0.25847 0.0
H2780 H 0.10805 0.32147 0.30127 0.0
H2781 H 0.08056 0.34529 0.39764 0.0
H2782 H 0.14786 0.33048 0.53667 0.0
H2783 H 0.12435 0.33829 0.48996 0.0
loop_
_geom_bond_atom_site_label_1
_geom_bond_atom_site_label_2
_geom_bond_distance
_geom_bond_site_symmetry_2
_ccdc_geom_bond_type
Eu0 N31 2.657 . S
Eu0 N38 2.609 . S
Eu0 O44 2.558 . S
Eu0 O45 2.612 1_455 S
Eu0 O47 2.339 . S
Eu0 O48 2.563 . S
Eu0 O49 2.419 . S
Eu0 O51 2.380 . S
Eu0 O52 2.432 . S
Eu0 C64 2.848 . S
C1 C4 1.429 . S
C1 C5 1.411 . S
C1 N8 1.377 . S
C2 C4 1.420 . S
C2 C6 1.423 . S
C2 C14 1.392 . S
C3 C5 1.420 . S
C3 C6 1.351 . S
C3 H26 0.931 . S
C4 C1 1.429 . S
C4 C2 1.420 . S
C4 N12 1.362 . S
C5 C1 1.411 . S
C5 C3 1.420 . S
C5 C10 1.395 . S
C6 C2 1.423 . S
C6 C3 1.351 . S
C6 H18 0.930 . S
C7 C9 1.400 . S
C7 C10 1.386 . S
C7 H19 0.930 . S
N8 C1 1.377 . S
N8 C9 1.321 . S
N8 Eu11 2.609 . S
C9 C7 1.400 . S
C9 N8 1.321 . S
C9 H16 0.930 . S
C10 C5 1.395 . S
C10 C7 1.386 . S
C10 H29 0.930 . S
Eu11 N8 2.609 . S
Eu11 N12 2.657 . S
Eu11 O45 2.380 . S
Eu11 O46 2.432 . S
Eu11 O50 2.558 . S
Eu11 O51 2.612 1_655 S
Eu11 O53 2.339 . S
Eu11 O54 2.563 1_655 S
Eu11 O55 2.419 . S
Eu11 C75 2.848 . S
N12 C4 1.362 . S
N12 Eu11 2.657 . S
N12 C13 1.334 . S
C13 N12 1.334 . S
C13 C15 1.413 . S
C13 H20 0.929 . S
C14 C2 1.392 . S
C14 C15 1.367 . S
C14 H22 0.930 . S
C15 C13 1.413 . S
C15 C14 1.367 . S
C15 H17 0.930 . S
H16 C9 0.930 . S
H17 C15 0.930 . S
H18 C6 0.930 . S
H19 C7 0.930 . S
H20 C13 0.929 . S
H21 C35 0.930 . S
H22 C14 0.930 . S
H23 C41 0.930 . S
H24 C32 0.929 . S
H25 C39 0.930 . S
H26 C3 0.931 . S
H27 C33 0.930 . S
H28 C66 0.930 . S
H29 C10 0.930 . S
H30 C65 0.931 . S
N31 Eu0 2.657 . S
N31 C32 1.334 . S
N31 C36 1.362 . S
C32 H24 0.929 . S
C32 N31 1.334 . S
C32 C35 1.413 . S
C33 H27 0.930 . S
C33 C34 1.392 . S
C33 C35 1.367 . S
C34 C33 1.392 . S
C34 C36 1.420 . S
C34 C66 1.423 . S
C35 H21 0.930 . S
C35 C32 1.413 . S
C35 C33 1.367 . S
C36 N31 1.362 . S
C36 C34 1.420 . S
C36 C40 1.429 . S
H37 C42 0.930 . S
N38 Eu0 2.609 . S
N38 C40 1.377 . S
N38 C41 1.321 . S
C39 H25 0.930 . S
C39 C41 1.400 . S
C39 C42 1.386 . S
C40 C36 1.429 . S
C40 N38 1.377 . S
C40 C43 1.411 . S
C41 H23 0.930 . S
C41 N38 1.321 . S
C41 C39 1.400 . S
C42 H37 0.930 . S
C42 C39 1.386 . S
C42 C43 1.395 . S
C43 C40 1.411 . S
C43 C42 1.395 . S
C43 C65 1.420 . S
O44 Eu0 2.558 . S
O44 C64 1.257 . S
O45 Eu0 2.612 1_655 S
O45 Eu11 2.380 . S
O45 C56 1.276 . S
O46 Eu11 2.432 . S
O46 C63 1.264 1_655 S
O47 Eu0 2.339 . S
O47 C63 1.254 . S
O48 Eu0 2.563 . S
O48 C56 1.235 1_455 S
O49 Eu0 2.419 . S
O49 C64 1.249 . S
O50 Eu11 2.558 . S
O50 C75 1.257 . S
O51 Eu0 2.380 . S
O51 Eu11 2.612 1_455 S
O51 C67 1.276 . S
O52 Eu0 2.432 . S
O52 C74 1.264 . S
O53 Eu11 2.339 . S
O53 C74 1.254 1_655 S
O54 Eu11 2.563 1_455 S
O54 C67 1.235 . S
O55 Eu11 2.419 . S
O55 C75 1.249 . S
C56 O45 1.276 . S
C56 O48 1.235 1_655 S
C57 C59 1.393 . S
C57 C61 1.395 . S
C57 C64 1.492 . S
C58 C59 1.392 1_556 S
C58 C60 1.386 . S
C59 C57 1.393 . S
C59 C58 1.392 1_554 S
C59 H76 0.930 . S
C60 C58 1.386 . S
C60 C62 1.395 1_556 S
C60 H77 0.930 . S
C61 C57 1.395 . S
C61 C62 1.379 . S
C61 H78 0.930 . S
C62 C60 1.395 1_554 S
C62 C61 1.379 . S
C62 H79 0.930 . S
C63 O46 1.264 1_455 S
C63 O47 1.254 . S
C64 Eu0 2.848 . S
C64 O44 1.257 . S
C64 O49 1.249 . S
C64 C57 1.492 . S
C65 H30 0.931 . S
C65 C43 1.420 . S
C65 C66 1.351 . S
C66 H28 0.930 . S
C66 C34 1.423 . S
C66 C65 1.351 . S
C67 O51 1.276 . S
C67 O54 1.235 . S
C68 C69 1.393 . S
C68 C72 1.395 . S
C68 C75 1.492 . S
C69 C68 1.393 . S
C69 C70 1.392 . S
C69 H80 0.930 . S
C70 C69 1.392 . S
C70 C71 1.386 . S
C71 C70 1.386 . S
C71 C73 1.395 . S
C71 H81 0.930 . S
C72 C68 1.395 . S
C72 C73 1.379 . S
C72 H82 0.930 . S
C73 C71 1.395 . S
C73 C72 1.379 . S
C73 H83 0.930 . S
C74 O52 1.264 . S
C74 O53 1.254 1_455 S
C75 Eu11 2.848 . S
C75 O50 1.257 . S
C75 O55 1.249 . S
C75 C68 1.492 . S
H76 C59 0.930 . S
H77 C60 0.930 . S
H78 C61 0.930 . S
H79 C62 0.930 . S
H80 C69 0.930 . S
H81 C71 0.930 . S
H82 C72 0.930 . S
H83 C73 0.930 . S
Eu84 N115 2.657 . S
Eu84 N122 2.609 . S
Eu84 O128 2.558 . S
Eu84 O129 2.612 . S
Eu84 O131 2.339 . S
Eu84 O132 2.563 . S
Eu84 O133 2.419 . S
Eu84 O135 2.380 . S
Eu84 O136 2.432 . S
Eu84 C148 2.848 . S
C85 C88 1.429 . S
C85 C89 1.411 . S
C85 N92 1.377 . S
C86 C88 1.420 . S
C86 C90 1.423 . S
C86 C98 1.392 . S
C87 C89 1.420 . S
C87 C90 1.351 . S
C87 H110 0.931 . S
C88 C85 1.429 . S
C88 C86 1.420 . S
C88 N96 1.362 . S
C89 C85 1.411 . S
C89 C87 1.420 . S
C89 C94 1.395 . S
C90 C86 1.423 . S
C90 C87 1.351 . S
C90 H102 0.930 . S
C91 C93 1.400 . S
C91 C94 1.386 . S
C91 H103 0.930 . S
N92 C85 1.377 . S
N92 C93 1.321 . S
N92 Eu95 2.609 . S
C93 C91 1.400 . S
C93 N92 1.321 . S
C93 H100 0.930 . S
C94 C89 1.395 . S
C94 C91 1.386 . S
C94 H113 0.930 . S
Eu95 N92 2.609 . S
Eu95 N96 2.657 . S
Eu95 O129 2.380 . S
Eu95 O130 2.432 . S
Eu95 O134 2.558 . S
Eu95 O135 2.612 . S
Eu95 O137 2.339 . S
Eu95 O138 2.563 . S
Eu95 O139 2.419 . S
Eu95 C159 2.848 . S
N96 C88 1.362 . S
N96 Eu95 2.657 . S
N96 C97 1.334 . S
C97 N96 1.334 . S
C97 C99 1.413 . S
C97 H104 0.929 . S
C98 C86 1.392 . S
C98 C99 1.367 . S
C98 H106 0.930 . S
C99 C97 1.413 . S
C99 C98 1.367 . S
C99 H101 0.930 . S
H100 C93 0.930 . S
H101 C99 0.930 . S
H102 C90 0.930 . S
H103 C91 0.930 . S
H104 C97 0.929 . S
H105 C119 0.930 . S
H106 C98 0.930 . S
H107 C125 0.930 . S
H108 C116 0.929 . S
H109 C123 0.930 . S
H110 C87 0.931 . S
H111 C117 0.930 . S
H112 C150 0.930 . S
H113 C94 0.930 . S
H114 C149 0.931 . S
N115 Eu84 2.657 . S
N115 C116 1.334 . S
N115 C120 1.362 . S
C116 H108 0.929 . S
C116 N115 1.334 . S
C116 C119 1.413 . S
C117 H111 0.930 . S
C117 C118 1.392 . S
C117 C119 1.367 . S
C118 C117 1.392 . S
C118 C120 1.420 . S
C118 C150 1.423 . S
C119 H105 0.930 . S
C119 C116 1.413 . S
C119 C117 1.367 . S
C120 N115 1.362 . S
C120 C118 1.420 . S
C120 C124 1.429 . S
H121 C126 0.930 . S
N122 Eu84 2.609 . S
N122 C124 1.377 . S
N122 C125 1.321 . S
C123 H109 0.930 . S
C123 C125 1.400 . S
C123 C126 1.386 . S
C124 C120 1.429 . S
C124 N122 1.377 . S
C124 C127 1.411 . S
C125 H107 0.930 . S
C125 N122 1.321 . S
C125 C123 1.400 . S
C126 H121 0.930 . S
C126 C123 1.386 . S
C126 C127 1.395 . S
C127 C124 1.411 . S
C127 C126 1.395 . S
C127 C149 1.420 . S
O128 Eu84 2.558 . S
O128 C148 1.257 . S
O129 Eu84 2.612 . S
O129 Eu95 2.380 . S
O129 C140 1.276 . S
O130 Eu95 2.432 . S
O130 C147 1.264 . S
O131 Eu84 2.339 . S
O131 C147 1.254 . S
O132 Eu84 2.563 . S
O132 C140 1.235 . S
O133 Eu84 2.419 . S
O133 C148 1.249 . S
O134 Eu95 2.558 . S
O134 C159 1.257 . S
O135 Eu84 2.380 . S
O135 Eu95 2.612 . S
O135 C151 1.276 . S
O136 Eu84 2.432 . S
O136 C158 1.264 . S
O137 Eu95 2.339 . S
O137 C158 1.254 . S
O138 Eu95 2.563 . S
O138 C151 1.235 . S
O139 Eu95 2.419 . S
O139 C159 1.249 . S
C140 O129 1.276 . S
C140 O132 1.235 . S
C141 C143 1.393 . S
C141 C145 1.395 . S
C141 C148 1.492 . S
C142 C143 1.392 . S
C142 C144 1.386 . S
C143 C141 1.393 . S
C143 C142 1.392 . S
C143 H160 0.930 . S
C144 C142 1.386 . S
C144 C146 1.395 . S
C144 H161 0.930 . S
C145 C141 1.395 . S
C145 C146 1.379 . S
C145 H162 0.930 . S
C146 C144 1.395 . S
C146 C145 1.379 . S
C146 H163 0.930 . S
C147 O130 1.264 . S
C147 O131 1.254 . S
C148 Eu84 2.848 . S
C148 O128 1.257 . S
C148 O133 1.249 . S
C148 C141 1.492 . S
C149 H114 0.931 . S
C149 C127 1.420 . S
C149 C150 1.351 . S
C150 H112 0.930 . S
C150 C118 1.423 . S
C150 C149 1.351 . S
C151 O135 1.276 . S
C151 O138 1.235 . S
C152 C153 1.393 . S
C152 C156 1.395 . S
C152 C159 1.492 . S
C153 C152 1.393 . S
C153 C154 1.392 . S
C153 H164 0.930 . S
C154 C153 1.392 . S
C154 C155 1.386 . S
C155 C154 1.386 . S
C155 C157 1.395 . S
C155 H165 0.930 . S
C156 C152 1.395 . S
C156 C157 1.379 . S
C156 H166 0.930 . S
C157 C155 1.395 . S
C157 C156 1.379 . S
C157 H167 0.930 . S
C158 O136 1.264 . S
C158 O137 1.254 . S
C159 Eu95 2.848 . S
C159 O134 1.257 . S
C159 O139 1.249 . S
C159 C152 1.492 . S
H160 C143 0.930 . S
H161 C144 0.930 . S
H162 C145 0.930 . S
H163 C146 0.930 . S
H164 C153 0.930 . S
H165 C155 0.930 . S
H166 C156 0.930 . S
H167 C157 0.930 . S
Eu168 N199 2.657 . S
Eu168 N206 2.609 . S
Eu168 O212 2.558 . S
Eu168 O213 2.612 . S
Eu168 O215 2.339 . S
Eu168 O216 2.563 . S
Eu168 O217 2.419 . S
Eu168 O219 2.380 . S
Eu168 O220 2.432 . S
Eu168 C232 2.848 . S
C169 C172 1.429 . S
C169 C173 1.411 . S
C169 N176 1.377 . S
C170 C172 1.420 . S
C170 C174 1.423 . S
C170 C182 1.392 . S
C171 C173 1.420 . S
C171 C174 1.351 . S
C171 H194 0.931 . S
C172 C169 1.429 . S
C172 C170 1.420 . S
C172 N180 1.362 . S
C173 C169 1.411 . S
C173 C171 1.420 . S
C173 C178 1.395 . S
C174 C170 1.423 . S
C174 C171 1.351 . S
C174 H186 0.930 . S
C175 C177 1.400 . S
C175 C178 1.386 . S
C175 H187 0.930 . S
N176 C169 1.377 . S
N176 C177 1.321 . S
N176 Eu179 2.609 . S
C177 C175 1.400 . S
C177 N176 1.321 . S
C177 H184 0.930 . S
C178 C173 1.395 . S
C178 C175 1.386 . S
C178 H197 0.930 . S
Eu179 N176 2.609 . S
Eu179 N180 2.657 . S
Eu179 O213 2.380 . S
Eu179 O214 2.432 . S
Eu179 O218 2.558 . S
Eu179 O219 2.612 . S
Eu179 O221 2.339 . S
Eu179 O222 2.563 . S
Eu179 O223 2.419 . S
Eu179 C243 2.848 . S
N180 C172 1.362 . S
N180 Eu179 2.657 . S
N180 C181 1.334 . S
C181 N180 1.334 . S
C181 C183 1.413 . S
C181 H188 0.929 . S
C182 C170 1.392 . S
C182 C183 1.367 . S
C182 H190 0.930 . S
C183 C181 1.413 . S
C183 C182 1.367 . S
C183 H185 0.930 . S
H184 C177 0.930 . S
H185 C183 0.930 . S
H186 C174 0.930 . S
H187 C175 0.930 . S
H188 C181 0.929 . S
H189 C203 0.930 . S
H190 C182 0.930 . S
H191 C209 0.930 . S
H192 C200 0.929 . S
H193 C207 0.930 . S
H194 C171 0.931 . S
H195 C201 0.930 . S
H196 C234 0.930 . S
H197 C178 0.930 . S
H198 C233 0.931 . S
N199 Eu168 2.657 . S
N199 C200 1.334 . S
N199 C204 1.362 . S
C200 H192 0.929 . S
C200 N199 1.334 . S
C200 C203 1.413 . S
C201 H195 0.930 . S
C201 C202 1.392 . S
C201 C203 1.367 . S
C202 C201 1.392 . S
C202 C204 1.420 . S
C202 C234 1.423 . S
C203 H189 0.930 . S
C203 C200 1.413 . S
C203 C201 1.367 . S
C204 N199 1.362 . S
C204 C202 1.420 . S
C204 C208 1.429 . S
H205 C210 0.930 . S
N206 Eu168 2.609 . S
N206 C208 1.377 . S
N206 C209 1.321 . S
C207 H193 0.930 . S
C207 C209 1.400 . S
C207 C210 1.386 . S
C208 C204 1.429 . S
C208 N206 1.377 . S
C208 C211 1.411 . S
C209 H191 0.930 . S
C209 N206 1.321 . S
C209 C207 1.400 . S
C210 H205 0.930 . S
C210 C207 1.386 . S
C210 C211 1.395 . S
C211 C208 1.411 . S
C211 C210 1.395 . S
C211 C233 1.420 . S
O212 Eu168 2.558 . S
O212 C232 1.257 . S
O213 Eu168 2.612 . S
O213 Eu179 2.380 . S
O213 C224 1.276 . S
O214 Eu179 2.432 . S
O214 C231 1.264 . S
O215 Eu168 2.339 . S
O215 C231 1.254 . S
O216 Eu168 2.563 . S
O216 C224 1.235 . S
O217 Eu168 2.419 . S
O217 C232 1.249 . S
O218 Eu179 2.558 . S
O218 C243 1.257 . S
O219 Eu168 2.380 . S
O219 Eu179 2.612 . S
O219 C235 1.276 . S
O220 Eu168 2.432 . S
O220 C242 1.264 . S
O221 Eu179 2.339 . S
O221 C242 1.254 . S
O222 Eu179 2.563 . S
O222 C235 1.235 . S
O223 Eu179 2.419 . S
O223 C243 1.249 . S
C224 O213 1.276 . S
C224 O216 1.235 . S
C225 C227 1.393 . S
C225 C229 1.395 . S
C225 C232 1.492 . S
C226 C227 1.392 . S
C226 C228 1.386 . S
C227 C225 1.393 . S
C227 C226 1.392 . S
C227 H244 0.930 . S
C228 C226 1.386 . S
C228 C230 1.395 . S
C228 H245 0.930 . S
C229 C225 1.395 . S
C229 C230 1.379 . S
C229 H246 0.930 . S
C230 C228 1.395 . S
C230 C229 1.379 . S
C230 H247 0.930 . S
C231 O214 1.264 . S
C231 O215 1.254 . S
C232 Eu168 2.848 . S
C232 O212 1.257 . S
C232 O217 1.249 . S
C232 C225 1.492 . S
C233 H198 0.931 . S
C233 C211 1.420 . S
C233 C234 1.351 . S
C234 H196 0.930 . S
C234 C202 1.423 . S
C234 C233 1.351 . S
C235 O219 1.276 . S
C235 O222 1.235 . S
C236 C237 1.393 . S
C236 C240 1.395 . S
C236 C243 1.492 . S
C237 C236 1.393 . S
C237 C238 1.392 . S
C237 H248 0.930 . S
C238 C237 1.392 . S
C238 C239 1.386 . S
C239 C238 1.386 . S
C239 C241 1.395 . S
C239 H249 0.930 . S
C240 C236 1.395 . S
C240 C241 1.379 . S
C240 H250 0.930 . S
C241 C239 1.395 . S
C241 C240 1.379 . S
C241 H251 0.930 . S
C242 O220 1.264 . S
C242 O221 1.254 . S
C243 Eu179 2.848 . S
C243 O218 1.257 . S
C243 O223 1.249 . S
C243 C236 1.492 . S
H244 C227 0.930 . S
H245 C228 0.930 . S
H246 C229 0.930 . S
H247 C230 0.930 . S
H248 C237 0.930 . S
H249 C239 0.930 . S
H250 C240 0.930 . S
H251 C241 0.930 . S
Eu252 N283 2.657 . S
Eu252 N290 2.609 . S
Eu252 O296 2.558 . S
Eu252 O297 2.612 . S
Eu252 O299 2.339 . S
Eu252 O300 2.563 . S
Eu252 O301 2.419 . S
Eu252 O303 2.380 . S
Eu252 O304 2.432 . S
Eu252 C316 2.848 . S
C253 C256 1.429 . S
C253 C257 1.411 . S
C253 N260 1.377 . S
C254 C256 1.420 . S
C254 C258 1.423 . S
C254 C266 1.392 . S
C255 C257 1.420 . S
C255 C258 1.351 . S
C255 H278 0.931 . S
C256 C253 1.429 . S
C256 C254 1.420 . S
C256 N264 1.362 . S
C257 C253 1.411 . S
C257 C255 1.420 . S
C257 C262 1.395 . S
C258 C254 1.423 . S
C258 C255 1.351 . S
C258 H270 0.930 . S
C259 C261 1.400 . S
C259 C262 1.386 . S
C259 H271 0.930 . S
N260 C253 1.377 . S
N260 C261 1.321 . S
N260 Eu263 2.609 . S
C261 C259 1.400 . S
C261 N260 1.321 . S
C261 H268 0.930 . S
C262 C257 1.395 . S
C262 C259 1.386 . S
C262 H281 0.930 . S
Eu263 N260 2.609 . S
Eu263 N264 2.657 . S
Eu263 O297 2.380 . S
Eu263 O298 2.432 . S
Eu263 O302 2.558 . S
Eu263 O303 2.612 . S
Eu263 O305 2.339 . S
Eu263 O306 2.563 . S
Eu263 O307 2.419 . S
Eu263 C327 2.848 . S
N264 C256 1.362 . S
N264 Eu263 2.657 . S
N264 C265 1.334 . S
C265 N264 1.334 . S
C265 C267 1.413 . S
C265 H272 0.929 . S
C266 C254 1.392 . S
C266 C267 1.367 . S
C266 H274 0.930 . S
C267 C265 1.413 . S
C267 C266 1.367 . S
C267 H269 0.930 . S
H268 C261 0.930 . S
H269 C267 0.930 . S
H270 C258 0.930 . S
H271 C259 0.930 . S
H272 C265 0.929 . S
H273 C287 0.930 . S
H274 C266 0.930 . S
H275 C293 0.930 . S
H276 C284 0.929 . S
H277 C291 0.930 . S
H278 C255 0.931 . S
H279 C285 0.930 . S
H280 C318 0.930 . S
H281 C262 0.930 . S
H282 C317 0.931 . S
N283 Eu252 2.657 . S
N283 C284 1.334 . S
N283 C288 1.362 . S
C284 H276 0.929 . S
C284 N283 1.334 . S
C284 C287 1.413 . S
C285 H279 0.930 . S
C285 C286 1.392 . S
C285 C287 1.367 . S
C286 C285 1.392 . S
C286 C288 1.420 . S
C286 C318 1.423 . S
C287 H273 0.930 . S
C287 C284 1.413 . S
C287 C285 1.367 . S
C288 N283 1.362 . S
C288 C286 1.420 . S
C288 C292 1.429 . S
H289 C294 0.930 . S
N290 Eu252 2.609 . S
N290 C292 1.377 . S
N290 C293 1.321 . S
C291 H277 0.930 . S
C291 C293 1.400 . S
C291 C294 1.386 . S
C292 C288 1.429 . S
C292 N290 1.377 . S
C292 C295 1.411 . S
C293 H275 0.930 . S
C293 N290 1.321 . S
C293 C291 1.400 . S
C294 H289 0.930 . S
C294 C291 1.386 . S
C294 C295 1.395 . S
C295 C292 1.411 . S
C295 C294 1.395 . S
C295 C317 1.420 . S
O296 Eu252 2.558 . S
O296 C316 1.257 . S
O297 Eu252 2.612 . S
O297 Eu263 2.380 . S
O297 C308 1.276 . S
O298 Eu263 2.432 . S
O298 C315 1.264 . S
O299 Eu252 2.339 . S
O299 C315 1.254 . S
O300 Eu252 2.563 . S
O300 C308 1.235 . S
O301 Eu252 2.419 . S
O301 C316 1.249 . S
O302 Eu263 2.558 . S
O302 C327 1.257 . S
O303 Eu252 2.380 . S
O303 Eu263 2.612 . S
O303 C319 1.276 . S
O304 Eu252 2.432 . S
O304 C326 1.264 . S
O305 Eu263 2.339 . S
O305 C326 1.254 . S
O306 Eu263 2.563 . S
O306 C319 1.235 . S
O307 Eu263 2.419 . S
O307 C327 1.249 . S
C308 O297 1.276 . S
C308 O300 1.235 . S
C309 C311 1.393 . S
C309 C313 1.395 . S
C309 C316 1.492 1_554 S
C310 C311 1.392 . S
C310 C312 1.386 . S
C311 C309 1.393 . S
C311 C310 1.392 . S
C311 H328 0.930 . S
C312 C310 1.386 . S
C312 C314 1.395 . S
C312 H329 0.930 . S
C313 C309 1.395 . S
C313 C314 1.379 . S
C313 H330 0.930 . S
C314 C312 1.395 . S
C314 C313 1.379 . S
C314 H331 0.930 . S
C315 O298 1.264 . S
C315 O299 1.254 . S
C316 Eu252 2.848 . S
C316 O296 1.257 . S
C316 O301 1.249 . S
C316 C309 1.492 1_556 S
C317 H282 0.931 . S
C317 C295 1.420 . S
C317 C318 1.351 . S
C318 H280 0.930 . S
C318 C286 1.423 . S
C318 C317 1.351 . S
C319 O303 1.276 . S
C319 O306 1.235 . S
C320 C321 1.393 . S
C320 C324 1.395 . S
C320 C327 1.492 . S
C321 C320 1.393 . S
C321 C322 1.392 . S
C321 H332 0.930 . S
C322 C321 1.392 . S
C322 C323 1.386 . S
C323 C322 1.386 . S
C323 C325 1.395 . S
C323 H333 0.930 . S
C324 C320 1.395 . S
C324 C325 1.379 . S
C324 H334 0.930 . S
C325 C323 1.395 . S
C325 C324 1.379 . S
C325 H335 0.930 . S
C326 O304 1.264 . S
C326 O305 1.254 . S
C327 Eu263 2.848 . S
C327 O302 1.257 . S
C327 O307 1.249 . S
C327 C320 1.492 . S
H328 C311 0.930 . S
H329 C312 0.930 . S
H330 C313 0.930 . S
H331 C314 0.930 . S
H332 C321 0.930 . S
H333 C323 0.930 . S
H334 C324 0.930 . S
H335 C325 0.930 . S
Eu336 N367 2.657 . S
Eu336 N374 2.609 . S
Eu336 O380 2.558 . S
Eu336 O381 2.612 . S
Eu336 O383 2.339 . S
Eu336 O384 2.563 . S
Eu336 O385 2.419 . S
Eu336 O387 2.380 . S
Eu336 O388 2.432 . S
Eu336 C400 2.848 . S
C337 C340 1.429 . S
C337 C341 1.411 . S
C337 N344 1.377 . S
C338 C340 1.420 . S
C338 C342 1.423 . S
C338 C350 1.392 . S
C339 C341 1.420 . S
C339 C342 1.351 . S
C339 H362 0.931 . S
C340 C337 1.429 . S
C340 C338 1.420 . S
C340 N348 1.362 . S
C341 C337 1.411 . S
C341 C339 1.420 . S
C341 C346 1.395 . S
C342 C338 1.423 . S
C342 C339 1.351 . S
C342 H354 0.930 . S
C343 C345 1.400 . S
C343 C346 1.386 . S
C343 H355 0.930 . S
N344 C337 1.377 . S
N344 C345 1.321 . S
N344 Eu347 2.609 1_655 S
C345 C343 1.400 . S
C345 N344 1.321 . S
C345 H352 0.930 . S
C346 C341 1.395 . S
C346 C343 1.386 . S
C346 H365 0.930 . S
Eu347 N344 2.609 1_455 S
Eu347 N348 2.657 1_455 S
Eu347 O381 2.380 . S
Eu347 O382 2.432 . S
Eu347 O386 2.558 1_455 S
Eu347 O387 2.612 . S
Eu347 O389 2.339 . S
Eu347 O390 2.563 . S
Eu347 O391 2.419 1_455 S
Eu347 C411 2.848 1_455 S
N348 C340 1.362 . S
N348 Eu347 2.657 1_655 S
N348 C349 1.334 . S
C349 N348 1.334 . S
C349 C351 1.413 . S
C349 H356 0.929 . S
C350 C338 1.392 . S
C350 C351 1.367 . S
C350 H358 0.930 . S
C351 C349 1.413 . S
C351 C350 1.367 . S
C351 H353 0.930 . S
H352 C345 0.930 . S
H353 C351 0.930 . S
H354 C342 0.930 . S
H355 C343 0.930 . S
H356 C349 0.929 . S
H357 C371 0.930 . S
H358 C350 0.930 . S
H359 C377 0.930 . S
H360 C368 0.929 . S
H361 C375 0.930 . S
H362 C339 0.931 . S
H363 C369 0.930 . S
H364 C402 0.930 . S
H365 C346 0.930 . S
H366 C401 0.931 . S
N367 Eu336 2.657 . S
N367 C368 1.334 . S
N367 C372 1.362 . S
C368 H360 0.929 . S
C368 N367 1.334 . S
C368 C371 1.413 . S
C369 H363 0.930 . S
C369 C370 1.392 . S
C369 C371 1.367 . S
C370 C369 1.392 . S
C370 C372 1.420 . S
C370 C402 1.423 . S
C371 H357 0.930 . S
C371 C368 1.413 . S
C371 C369 1.367 . S
C372 N367 1.362 . S
C372 C370 1.420 . S
C372 C376 1.429 . S
H373 C378 0.930 . S
N374 Eu336 2.609 . S
N374 C376 1.377 . S
N374 C377 1.321 . S
C375 H361 0.930 . S
C375 C377 1.400 . S
C375 C378 1.386 . S
C376 C372 1.429 . S
C376 N374 1.377 . S
C376 C379 1.411 . S
C377 H359 0.930 . S
C377 N374 1.321 . S
C377 C375 1.400 . S
C378 H373 0.930 . S
C378 C375 1.386 . S
C378 C379 1.395 . S
C379 C376 1.411 . S
C379 C378 1.395 . S
C379 C401 1.420 . S
O380 Eu336 2.558 . S
O380 C400 1.257 . S
O381 Eu336 2.612 . S
O381 Eu347 2.380 . S
O381 C392 1.276 . S
O382 Eu347 2.432 . S
O382 C399 1.264 . S
O383 Eu336 2.339 . S
O383 C399 1.254 . S
O384 Eu336 2.563 . S
O384 C392 1.235 . S
O385 Eu336 2.419 . S
O385 C400 1.249 . S
O386 Eu347 2.558 1_655 S
O386 C411 1.257 . S
O387 Eu336 2.380 . S
O387 Eu347 2.612 . S
O387 C403 1.276 . S
O388 Eu336 2.432 . S
O388 C410 1.264 . S
O389 Eu347 2.339 . S
O389 C410 1.254 . S
O390 Eu347 2.563 . S
O390 C403 1.235 . S
O391 Eu347 2.419 1_655 S
O391 C411 1.249 . S
C392 O381 1.276 . S
C392 O384 1.235 . S
C393 C395 1.393 . S
C393 C397 1.395 . S
C393 C400 1.492 . S
C394 C395 1.392 . S
C394 C396 1.386 . S
C395 C393 1.393 . S
C395 C394 1.392 . S
C395 H412 0.930 . S
C396 C394 1.386 . S
C396 C398 1.395 . S
C396 H413 0.930 . S
C397 C393 1.395 . S
C397 C398 1.379 . S
C397 H414 0.930 . S
C398 C396 1.395 . S
C398 C397 1.379 . S
C398 H415 0.930 . S
C399 O382 1.264 . S
C399 O383 1.254 . S
C400 Eu336 2.848 . S
C400 O380 1.257 . S
C400 O385 1.249 . S
C400 C393 1.492 . S
C401 H366 0.931 . S
C401 C379 1.420 . S
C401 C402 1.351 . S
C402 H364 0.930 . S
C402 C370 1.423 . S
C402 C401 1.351 . S
C403 O387 1.276 . S
C403 O390 1.235 . S
C404 C405 1.393 . S
C404 C408 1.395 . S
C404 C411 1.492 . S
C405 C404 1.393 . S
C405 C406 1.392 1_556 S
C405 H416 0.930 . S
C406 C405 1.392 1_554 S
C406 C407 1.386 . S
C407 C406 1.386 . S
C407 C409 1.395 1_554 S
C407 H417 0.930 . S
C408 C404 1.395 . S
C408 C409 1.379 . S
C408 H418 0.930 . S
C409 C407 1.395 1_556 S
C409 C408 1.379 . S
C409 H419 0.930 . S
C410 O388 1.264 . S
C410 O389 1.254 . S
C411 Eu347 2.848 1_655 S
C411 O386 1.257 . S
C411 O391 1.249 . S
C411 C404 1.492 . S
H412 C395 0.930 . S
H413 C396 0.930 . S
H414 C397 0.930 . S
H415 C398 0.930 . S
H416 C405 0.930 . S
H417 C407 0.930 . S
H418 C408 0.930 . S
H419 C409 0.930 . S
Eu420 N451 2.657 . S
Eu420 N458 2.609 . S
Eu420 O464 2.558 . S
Eu420 O465 2.612 . S
Eu420 O467 2.339 . S
Eu420 O468 2.563 . S
Eu420 O469 2.419 . S
Eu420 O471 2.380 . S
Eu420 O472 2.432 . S
Eu420 C484 2.848 . S
C421 C424 1.429 . S
C421 C425 1.411 . S
C421 N428 1.377 . S
C422 C424 1.420 . S
C422 C426 1.423 . S
C422 C434 1.392 . S
C423 C425 1.420 . S
C423 C426 1.351 . S
C423 H446 0.931 . S
C424 C421 1.429 . S
C424 C422 1.420 . S
C424 N432 1.362 . S
C425 C421 1.411 . S
C425 C423 1.420 . S
C425 C430 1.395 . S
C426 C422 1.423 . S
C426 C423 1.351 . S
C426 H438 0.930 . S
C427 C429 1.400 . S
C427 C430 1.386 . S
C427 H439 0.930 . S
N428 C421 1.377 . S
N428 C429 1.321 . S
N428 Eu431 2.609 . S
C429 C427 1.400 . S
C429 N428 1.321 . S
C429 H436 0.930 . S
C430 C425 1.395 . S
C430 C427 1.386 . S
C430 H449 0.930 . S
Eu431 N428 2.609 . S
Eu431 N432 2.657 . S
Eu431 O465 2.380 . S
Eu431 O466 2.432 . S
Eu431 O470 2.558 . S
Eu431 O471 2.612 . S
Eu431 O473 2.339 . S
Eu431 O474 2.563 . S
Eu431 O475 2.419 . S
Eu431 C495 2.848 . S
N432 C424 1.362 . S
N432 Eu431 2.657 . S
N432 C433 1.334 . S
C433 N432 1.334 . S
C433 C435 1.413 . S
C433 H440 0.929 . S
C434 C422 1.392 . S
C434 C435 1.367 . S
C434 H442 0.930 . S
C435 C433 1.413 . S
C435 C434 1.367 . S
C435 H437 0.930 . S
H436 C429 0.930 . S
H437 C435 0.930 . S
H438 C426 0.930 . S
H439 C427 0.930 . S
H440 C433 0.929 . S
H441 C455 0.930 . S
H442 C434 0.930 . S
H443 C461 0.930 . S
H444 C452 0.929 . S
H445 C459 0.930 . S
H446 C423 0.931 . S
H447 C453 0.930 . S
H448 C486 0.930 . S
H449 C430 0.930 . S
H450 C485 0.931 . S
N451 Eu420 2.657 . S
N451 C452 1.334 . S
N451 C456 1.362 . S
C452 H444 0.929 . S
C452 N451 1.334 . S
C452 C455 1.413 . S
C453 H447 0.930 . S
C453 C454 1.392 . S
C453 C455 1.367 . S
C454 C453 1.392 . S
C454 C456 1.420 . S
C454 C486 1.423 . S
C455 H441 0.930 . S
C455 C452 1.413 . S
C455 C453 1.367 . S
C456 N451 1.362 . S
C456 C454 1.420 . S
C456 C460 1.429 . S
H457 C462 0.930 . S
N458 Eu420 2.609 . S
N458 C460 1.377 . S
N458 C461 1.321 . S
C459 H445 0.930 . S
C459 C461 1.400 . S
C459 C462 1.386 . S
C460 C456 1.429 . S
C460 N458 1.377 . S
C460 C463 1.411 . S
C461 H443 0.930 . S
C461 N458 1.321 . S
C461 C459 1.400 . S
C462 H457 0.930 . S
C462 C459 1.386 . S
C462 C463 1.395 . S
C463 C460 1.411 . S
C463 C462 1.395 . S
C463 C485 1.420 . S
O464 Eu420 2.558 . S
O464 C484 1.257 . S
O465 Eu420 2.612 . S
O465 Eu431 2.380 . S
O465 C476 1.276 . S
O466 Eu431 2.432 . S
O466 C483 1.264 . S
O467 Eu420 2.339 . S
O467 C483 1.254 . S
O468 Eu420 2.563 . S
O468 C476 1.235 . S
O469 Eu420 2.419 . S
O469 C484 1.249 . S
O470 Eu431 2.558 . S
O470 C495 1.257 . S
O471 Eu420 2.380 . S
O471 Eu431 2.612 . S
O471 C487 1.276 . S
O472 Eu420 2.432 . S
O472 C494 1.264 . S
O473 Eu431 2.339 . S
O473 C494 1.254 . S
O474 Eu431 2.563 . S
O474 C487 1.235 . S
O475 Eu431 2.419 . S
O475 C495 1.249 . S
C476 O465 1.276 . S
C476 O468 1.235 . S
C477 C479 1.393 1_554 S
C477 C481 1.395 . S
C477 C484 1.492 . S
C478 C479 1.392 . S
C478 C480 1.386 . S
C479 C477 1.393 1_556 S
C479 C478 1.392 . S
C479 H496 0.922 1_556 S
C480 C478 1.386 . S
C480 C482 1.395 . S
C480 H497 0.930 . S
C481 C477 1.395 . S
C481 C482 1.379 1_554 S
C481 H498 0.930 . S
C482 C480 1.395 . S
C482 C481 1.379 1_556 S
C482 H499 0.930 . S
C483 O466 1.264 . S
C483 O467 1.254 . S
C484 Eu420 2.848 . S
C484 O464 1.257 . S
C484 O469 1.249 . S
C484 C477 1.492 . S
C485 H450 0.931 . S
C485 C463 1.420 . S
C485 C486 1.351 . S
C486 H448 0.930 . S
C486 C454 1.423 . S
C486 C485 1.351 . S
C487 O471 1.276 . S
C487 O474 1.235 . S
C488 C489 1.393 . S
C488 C492 1.395 . S
C488 C495 1.492 . S
C489 C488 1.393 . S
C489 C490 1.392 . S
C489 H500 0.930 . S
C490 C489 1.392 . S
C490 C491 1.386 . S
C491 C490 1.386 . S
C491 C493 1.395 . S
C491 H501 0.930 . S
C492 C488 1.395 . S
C492 C493 1.379 . S
C492 H502 0.930 . S
C493 C491 1.395 . S
C493 C492 1.379 . S
C493 H503 0.930 . S
C494 O472 1.264 . S
C494 O473 1.254 . S
C495 Eu431 2.848 . S
C495 O470 1.257 . S
C495 O475 1.249 . S
C495 C488 1.492 . S
H496 C479 0.922 1_554 S
H497 C480 0.930 . S
H498 C481 0.930 . S
H499 C482 0.930 . S
H500 C489 0.930 . S
H501 C491 0.930 . S
H502 C492 0.930 . S
H503 C493 0.930 . S
Eu504 N535 2.657 . S
Eu504 N542 2.609 . S
Eu504 O548 2.558 . S
Eu504 O549 2.612 . S
Eu504 O551 2.339 . S
Eu504 O552 2.563 . S
Eu504 O553 2.419 . S
Eu504 O555 2.380 . S
Eu504 O556 2.432 . S
Eu504 C568 2.848 . S
C505 C508 1.429 . S
C505 C509 1.411 . S
C505 N512 1.377 . S
C506 C508 1.420 . S
C506 C510 1.423 . S
C506 C518 1.392 . S
C507 C509 1.420 . S
C507 C510 1.351 . S
C507 H530 0.931 . S
C508 C505 1.429 . S
C508 C506 1.420 . S
C508 N516 1.362 . S
C509 C505 1.411 . S
C509 C507 1.420 . S
C509 C514 1.395 . S
C510 C506 1.423 . S
C510 C507 1.351 . S
C510 H522 0.930 . S
C511 C513 1.400 . S
C511 C514 1.386 . S
C511 H523 0.930 . S
N512 C505 1.377 . S
N512 C513 1.321 . S
N512 Eu515 2.609 . S
C513 C511 1.400 . S
C513 N512 1.321 . S
C513 H520 0.930 . S
C514 C509 1.395 . S
C514 C511 1.386 . S
C514 H533 0.930 . S
Eu515 N512 2.609 . S
Eu515 N516 2.657 . S
Eu515 O549 2.380 . S
Eu515 O550 2.432 . S
Eu515 O554 2.558 . S
Eu515 O555 2.612 . S
Eu515 O557 2.339 . S
Eu515 O558 2.563 . S
Eu515 O559 2.419 . S
Eu515 C579 2.848 . S
N516 C508 1.362 . S
N516 Eu515 2.657 . S
N516 C517 1.334 . S
C517 N516 1.334 . S
C517 C519 1.413 . S
C517 H524 0.929 . S
C518 C506 1.392 . S
C518 C519 1.367 . S
C518 H526 0.930 . S
C519 C517 1.413 . S
C519 C518 1.367 . S
C519 H521 0.930 . S
H520 C513 0.930 . S
H521 C519 0.930 . S
H522 C510 0.930 . S
H523 C511 0.930 . S
H524 C517 0.929 . S
H525 C539 0.930 . S
H526 C518 0.930 . S
H527 C545 0.930 . S
H528 C536 0.929 . S
H529 C543 0.930 . S
H530 C507 0.931 . S
H531 C537 0.930 . S
H532 C570 0.930 . S
H533 C514 0.930 . S
H534 C569 0.931 . S
N535 Eu504 2.657 . S
N535 C536 1.334 . S
N535 C540 1.362 . S
C536 H528 0.929 . S
C536 N535 1.334 . S
C536 C539 1.413 . S
C537 H531 0.930 . S
C537 C538 1.392 . S
C537 C539 1.367 . S
C538 C537 1.392 . S
C538 C540 1.420 . S
C538 C570 1.423 . S
C539 H525 0.930 . S
C539 C536 1.413 . S
C539 C537 1.367 . S
C540 N535 1.362 . S
C540 C538 1.420 . S
C540 C544 1.429 . S
H541 C546 0.930 . S
N542 Eu504 2.609 . S
N542 C544 1.377 . S
N542 C545 1.321 . S
C543 H529 0.930 . S
C543 C545 1.400 . S
C543 C546 1.386 . S
C544 C540 1.429 . S
C544 N542 1.377 . S
C544 C547 1.411 . S
C545 H527 0.930 . S
C545 N542 1.321 . S
C545 C543 1.400 . S
C546 H541 0.930 . S
C546 C543 1.386 . S
C546 C547 1.395 . S
C547 C544 1.411 . S
C547 C546 1.395 . S
C547 C569 1.420 . S
O548 Eu504 2.558 . S
O548 C568 1.257 . S
O549 Eu504 2.612 . S
O549 Eu515 2.380 . S
O549 C560 1.276 . S
O550 Eu515 2.432 . S
O550 C567 1.264 . S
O551 Eu504 2.339 . S
O551 C567 1.254 . S
O552 Eu504 2.563 . S
O552 C560 1.235 . S
O553 Eu504 2.419 . S
O553 C568 1.249 . S
O554 Eu515 2.558 . S
O554 C579 1.257 . S
O555 Eu504 2.380 . S
O555 Eu515 2.612 . S
O555 C571 1.276 . S
O556 Eu504 2.432 . S
O556 C578 1.264 . S
O557 Eu515 2.339 . S
O557 C578 1.254 . S
O558 Eu515 2.563 . S
O558 C571 1.235 . S
O559 Eu515 2.419 . S
O559 C579 1.249 . S
C560 O549 1.276 . S
C560 O552 1.235 . S
C561 C563 1.393 . S
C561 C565 1.395 . S
C561 C568 1.492 . S
C562 C563 1.392 . S
C562 C564 1.386 . S
C563 C561 1.393 . S
C563 C562 1.392 . S
C563 H580 0.930 . S
C564 C562 1.386 . S
C564 C566 1.395 . S
C564 H581 0.930 . S
C565 C561 1.395 . S
C565 C566 1.379 . S
C565 H582 0.930 . S
C566 C564 1.395 . S
C566 C565 1.379 . S
C566 H583 0.930 . S
C567 O550 1.264 . S
C567 O551 1.254 . S
C568 Eu504 2.848 . S
C568 O548 1.257 . S
C568 O553 1.249 . S
C568 C561 1.492 . S
C569 H534 0.931 . S
C569 C547 1.420 . S
C569 C570 1.351 . S
C570 H532 0.930 . S
C570 C538 1.423 . S
C570 C569 1.351 . S
C571 O555 1.276 . S
C571 O558 1.235 . S
C572 C573 1.393 . S
C572 C576 1.395 . S
C572 C579 1.492 . S
C573 C572 1.393 . S
C573 C574 1.392 . S
C573 H584 0.930 . S
C574 C573 1.392 . S
C574 C575 1.386 . S
C575 C574 1.386 . S
C575 C577 1.395 . S
C575 H585 0.930 . S
C576 C572 1.395 . S
C576 C577 1.379 . S
C576 H586 0.930 . S
C577 C575 1.395 . S
C577 C576 1.379 . S
C577 H587 0.930 . S
C578 O556 1.264 . S
C578 O557 1.254 . S
C579 Eu515 2.848 . S
C579 O554 1.257 . S
C579 O559 1.249 . S
C579 C572 1.492 . S
H580 C563 0.930 . S
H581 C564 0.930 . S
H582 C565 0.930 . S
H583 C566 0.930 . S
H584 C573 0.930 . S
H585 C575 0.930 . S
H586 C576 0.930 . S
H587 C577 0.930 . S
Eu588 N619 2.657 . S
Eu588 N626 2.609 . S
Eu588 O632 2.558 . S
Eu588 O633 2.612 . S
Eu588 O635 2.339 . S
Eu588 O636 2.563 . S
Eu588 O637 2.419 . S
Eu588 O639 2.380 . S
Eu588 O640 2.432 . S
Eu588 C652 2.848 . S
C589 C592 1.429 . S
C589 C593 1.411 . S
C589 N596 1.377 . S
C590 C592 1.420 . S
C590 C594 1.423 . S
C590 C602 1.392 . S
C591 C593 1.420 . S
C591 C594 1.351 . S
C591 H614 0.931 . S
C592 C589 1.429 . S
C592 C590 1.420 . S
C592 N600 1.362 . S
C593 C589 1.411 . S
C593 C591 1.420 . S
C593 C598 1.395 . S
C594 C590 1.423 . S
C594 C591 1.351 . S
C594 H606 0.930 . S
C595 C597 1.400 . S
C595 C598 1.386 . S
C595 H607 0.930 . S
N596 C589 1.377 . S
N596 C597 1.321 . S
N596 Eu599 2.609 . S
C597 C595 1.400 . S
C597 N596 1.321 . S
C597 H604 0.930 . S
C598 C593 1.395 . S
C598 C595 1.386 . S
C598 H617 0.930 . S
Eu599 N596 2.609 . S
Eu599 N600 2.657 . S
Eu599 O633 2.380 . S
Eu599 O634 2.432 . S
Eu599 O638 2.558 . S
Eu599 O639 2.612 . S
Eu599 O641 2.339 . S
Eu599 O642 2.563 . S
Eu599 O643 2.419 . S
Eu599 C663 2.848 . S
N600 C592 1.362 . S
N600 Eu599 2.657 . S
N600 C601 1.334 . S
C601 N600 1.334 . S
C601 C603 1.413 . S
C601 H608 0.929 . S
C602 C590 1.392 . S
C602 C603 1.367 . S
C602 H610 0.930 . S
C603 C601 1.413 . S
C603 C602 1.367 . S
C603 H605 0.930 . S
H604 C597 0.930 . S
H605 C603 0.930 . S
H606 C594 0.930 . S
H607 C595 0.930 . S
H608 C601 0.929 . S
H609 C623 0.930 . S
H610 C602 0.930 . S
H611 C629 0.930 . S
H612 C620 0.929 . S
H613 C627 0.930 . S
H614 C591 0.931 . S
H615 C621 0.930 . S
H616 C654 0.930 . S
H617 C598 0.930 . S
H618 C653 0.931 . S
N619 Eu588 2.657 . S
N619 C620 1.334 . S
N619 C624 1.362 . S
C620 H612 0.929 . S
C620 N619 1.334 . S
C620 C623 1.413 . S
C621 H615 0.930 . S
C621 C622 1.392 . S
C621 C623 1.367 . S
C622 C621 1.392 . S
C622 C624 1.420 . S
C622 C654 1.423 . S
C623 H609 0.930 . S
C623 C620 1.413 . S
C623 C621 1.367 . S
C624 N619 1.362 . S
C624 C622 1.420 . S
C624 C628 1.429 . S
H625 C630 0.930 . S
N626 Eu588 2.609 . S
N626 C628 1.377 . S
N626 C629 1.321 . S
C627 H613 0.930 . S
C627 C629 1.400 . S
C627 C630 1.386 . S
C628 C624 1.429 . S
C628 N626 1.377 . S
C628 C631 1.411 . S
C629 H611 0.930 . S
C629 N626 1.321 . S
C629 C627 1.400 . S
C630 H625 0.930 . S
C630 C627 1.386 . S
C630 C631 1.395 . S
C631 C628 1.411 . S
C631 C630 1.395 . S
C631 C653 1.420 . S
O632 Eu588 2.558 . S
O632 C652 1.257 . S
O633 Eu588 2.612 . S
O633 Eu599 2.380 . S
O633 C644 1.276 . S
O634 Eu599 2.432 . S
O634 C651 1.264 . S
O635 Eu588 2.339 . S
O635 C651 1.254 . S
O636 Eu588 2.563 . S
O636 C644 1.235 . S
O637 Eu588 2.419 . S
O637 C652 1.249 . S
O638 Eu599 2.558 . S
O638 C663 1.257 . S
O639 Eu588 2.380 . S
O639 Eu599 2.612 . S
O639 C655 1.276 . S
O640 Eu588 2.432 . S
O640 C662 1.264 . S
O641 Eu599 2.339 . S
O641 C662 1.254 . S
O642 Eu599 2.563 . S
O642 C655 1.235 . S
O643 Eu599 2.419 . S
O643 C663 1.249 . S
C644 O633 1.276 . S
C644 O636 1.235 . S
C645 C647 1.393 . S
C645 C649 1.395 . S
C645 C652 1.492 . S
C646 C647 1.392 . S
C646 C648 1.386 . S
C647 C645 1.393 . S
C647 C646 1.392 . S
C647 H664 0.930 . S
C648 C646 1.386 . S
C648 C650 1.395 . S
C648 H665 0.930 . S
C649 C645 1.395 . S
C649 C650 1.379 . S
C649 H666 0.930 . S
C650 C648 1.395 . S
C650 C649 1.379 . S
C650 H667 0.930 . S
C651 O634 1.264 . S
C651 O635 1.254 . S
C652 Eu588 2.848 . S
C652 O632 1.257 . S
C652 O637 1.249 . S
C652 C645 1.492 . S
C653 H618 0.931 . S
C653 C631 1.420 . S
C653 C654 1.351 . S
C654 H616 0.930 . S
C654 C622 1.423 . S
C654 C653 1.351 . S
C655 O639 1.276 . S
C655 O642 1.235 . S
C656 C657 1.393 . S
C656 C660 1.395 . S
C656 C663 1.492 . S
C657 C656 1.393 . S
C657 C658 1.392 . S
C657 H668 0.930 . S
C658 C657 1.392 . S
C658 C659 1.386 . S
C659 C658 1.386 . S
C659 C661 1.395 . S
C659 H669 0.930 . S
C660 C656 1.395 . S
C660 C661 1.379 . S
C660 H670 0.930 . S
C661 C659 1.395 . S
C661 C660 1.379 . S
C661 H671 0.930 . S
C662 O640 1.264 . S
C662 O641 1.254 . S
C663 Eu599 2.848 . S
C663 O638 1.257 . S
C663 O643 1.249 . S
C663 C656 1.492 . S
H664 C647 0.930 . S
H665 C648 0.930 . S
H666 C649 0.930 . S
H667 C650 0.930 . S
H668 C657 0.930 . S
H669 C659 0.930 . S
H670 C660 0.930 . S
H671 C661 0.930 . S
Eu672 N703 2.657 . S
Eu672 N710 2.609 . S
Eu672 O716 2.558 . S
Eu672 O717 2.612 . S
Eu672 O719 2.339 . S
Eu672 O720 2.563 . S
Eu672 O721 2.419 . S
Eu672 O723 2.380 . S
Eu672 O724 2.432 . S
Eu672 C736 2.848 . S
C673 C676 1.429 . S
C673 C677 1.411 . S
C673 N680 1.377 . S
C674 C676 1.420 . S
C674 C678 1.423 . S
C674 C686 1.392 . S
C675 C677 1.420 . S
C675 C678 1.351 . S
C675 H698 0.931 . S
C676 C673 1.429 . S
C676 C674 1.420 . S
C676 N684 1.362 . S
C677 C673 1.411 . S
C677 C675 1.420 . S
C677 C682 1.395 . S
C678 C674 1.423 . S
C678 C675 1.351 . S
C678 H690 0.930 . S
C679 C681 1.400 . S
C679 C682 1.386 . S
C679 H691 0.930 . S
N680 C673 1.377 . S
N680 C681 1.321 . S
N680 Eu683 2.609 . S
C681 C679 1.400 . S
C681 N680 1.321 . S
C681 H688 0.930 . S
C682 C677 1.395 . S
C682 C679 1.386 . S
C682 H701 0.930 . S
Eu683 N680 2.609 . S
Eu683 N684 2.657 . S
Eu683 O717 2.380 . S
Eu683 O718 2.432 . S
Eu683 O722 2.558 . S
Eu683 O723 2.612 . S
Eu683 O725 2.339 . S
Eu683 O726 2.563 . S
Eu683 O727 2.419 . S
Eu683 C747 2.848 . S
N684 C676 1.362 . S
N684 Eu683 2.657 . S
N684 C685 1.334 . S
C685 N684 1.334 . S
C685 C687 1.413 . S
C685 H692 0.929 . S
C686 C674 1.392 . S
C686 C687 1.367 . S
C686 H694 0.930 . S
C687 C685 1.413 . S
C687 C686 1.367 . S
C687 H689 0.930 . S
H688 C681 0.930 . S
H689 C687 0.930 . S
H690 C678 0.930 . S
H691 C679 0.930 . S
H692 C685 0.929 . S
H693 C707 0.930 . S
H694 C686 0.930 . S
H695 C713 0.930 . S
H696 C704 0.929 . S
H697 C711 0.930 . S
H698 C675 0.931 . S
H699 C705 0.930 . S
H700 C738 0.930 . S
H701 C682 0.930 . S
H702 C737 0.931 . S
N703 Eu672 2.657 . S
N703 C704 1.334 . S
N703 C708 1.362 . S
C704 H696 0.929 . S
C704 N703 1.334 . S
C704 C707 1.413 . S
C705 H699 0.930 . S
C705 C706 1.392 . S
C705 C707 1.367 . S
C706 C705 1.392 . S
C706 C708 1.420 . S
C706 C738 1.423 . S
C707 H693 0.930 . S
C707 C704 1.413 . S
C707 C705 1.367 . S
C708 N703 1.362 . S
C708 C706 1.420 . S
C708 C712 1.429 . S
H709 C714 0.930 . S
N710 Eu672 2.609 . S
N710 C712 1.377 . S
N710 C713 1.321 . S
C711 H697 0.930 . S
C711 C713 1.400 . S
C711 C714 1.386 . S
C712 C708 1.429 . S
C712 N710 1.377 . S
C712 C715 1.411 . S
C713 H695 0.930 . S
C713 N710 1.321 . S
C713 C711 1.400 . S
C714 H709 0.930 . S
C714 C711 1.386 . S
C714 C715 1.395 . S
C715 C712 1.411 . S
C715 C714 1.395 . S
C715 C737 1.420 . S
O716 Eu672 2.558 . S
O716 C736 1.257 . S
O717 Eu672 2.612 . S
O717 Eu683 2.380 . S
O717 C728 1.276 . S
O718 Eu683 2.432 . S
O718 C735 1.264 . S
O719 Eu672 2.339 . S
O719 C735 1.254 . S
O720 Eu672 2.563 . S
O720 C728 1.235 . S
O721 Eu672 2.419 . S
O721 C736 1.249 . S
O722 Eu683 2.558 . S
O722 C747 1.257 . S
O723 Eu672 2.380 . S
O723 Eu683 2.612 . S
O723 C739 1.276 . S
O724 Eu672 2.432 . S
O724 C746 1.264 . S
O725 Eu683 2.339 . S
O725 C746 1.254 . S
O726 Eu683 2.563 . S
O726 C739 1.235 . S
O727 Eu683 2.419 . S
O727 C747 1.249 . S
C728 O717 1.276 . S
C728 O720 1.235 . S
C729 C731 1.393 . S
C729 C733 1.395 . S
C729 C736 1.492 . S
C730 C731 1.392 . S
C730 C732 1.386 . S
C731 C729 1.393 . S
C731 C730 1.392 . S
C731 H748 0.930 . S
C732 C730 1.386 . S
C732 C734 1.395 . S
C732 H749 0.930 . S
C733 C729 1.395 . S
C733 C734 1.379 . S
C733 H750 0.930 . S
C734 C732 1.395 . S
C734 C733 1.379 . S
C734 H751 0.930 . S
C735 O718 1.264 . S
C735 O719 1.254 . S
C736 Eu672 2.848 . S
C736 O716 1.257 . S
C736 O721 1.249 . S
C736 C729 1.492 . S
C737 H702 0.931 . S
C737 C715 1.420 . S
C737 C738 1.351 . S
C738 H700 0.930 . S
C738 C706 1.423 . S
C738 C737 1.351 . S
C739 O723 1.276 . S
C739 O726 1.235 . S
C740 C741 1.393 . S
C740 C744 1.395 . S
C740 C747 1.492 . S
C741 C740 1.393 . S
C741 C742 1.392 . S
C741 H752 0.930 . S
C742 C741 1.392 . S
C742 C743 1.386 . S
C743 C742 1.386 . S
C743 C745 1.395 . S
C743 H753 0.930 . S
C744 C740 1.395 . S
C744 C745 1.379 . S
C744 H754 0.930 . S
C745 C743 1.395 . S
C745 C744 1.379 . S
C745 H755 0.930 . S
C746 O724 1.264 . S
C746 O725 1.254 . S
C747 Eu683 2.848 . S
C747 O722 1.257 . S
C747 O727 1.249 . S
C747 C740 1.492 . S
H748 C731 0.930 . S
H749 C732 0.930 . S
H750 C733 0.930 . S
H751 C734 0.930 . S
H752 C741 0.930 . S
H753 C743 0.930 . S
H754 C744 0.930 . S
H755 C745 0.930 . S
Eu756 N787 2.657 . S
Eu756 N794 2.609 . S
Eu756 O800 2.558 . S
Eu756 O801 2.612 . S
Eu756 O803 2.339 . S
Eu756 O804 2.563 . S
Eu756 O805 2.419 . S
Eu756 O807 2.380 . S
Eu756 O808 2.432 . S
Eu756 C820 2.848 . S
C757 C760 1.429 . S
C757 C761 1.411 . S
C757 N764 1.377 . S
C758 C760 1.420 . S
C758 C762 1.423 . S
C758 C770 1.392 . S
C759 C761 1.420 . S
C759 C762 1.351 . S
C759 H782 0.931 . S
C760 C757 1.429 . S
C760 C758 1.420 . S
C760 N768 1.362 . S
C761 C757 1.411 . S
C761 C759 1.420 . S
C761 C766 1.395 . S
C762 C758 1.423 . S
C762 C759 1.351 . S
C762 H774 0.930 . S
C763 C765 1.400 . S
C763 C766 1.386 . S
C763 H775 0.930 . S
N764 C757 1.377 . S
N764 C765 1.321 . S
N764 Eu767 2.609 . S
C765 C763 1.400 . S
C765 N764 1.321 . S
C765 H772 0.930 . S
C766 C761 1.395 . S
C766 C763 1.386 . S
C766 H785 0.930 . S
Eu767 N764 2.609 . S
Eu767 N768 2.657 . S
Eu767 O801 2.380 . S
Eu767 O802 2.432 . S
Eu767 O806 2.558 . S
Eu767 O807 2.612 . S
Eu767 O809 2.339 . S
Eu767 O810 2.563 . S
Eu767 O811 2.419 . S
Eu767 C831 2.848 . S
N768 C760 1.362 . S
N768 Eu767 2.657 . S
N768 C769 1.334 . S
C769 N768 1.334 . S
C769 C771 1.413 . S
C769 H776 0.929 . S
C770 C758 1.392 . S
C770 C771 1.367 . S
C770 H778 0.930 . S
C771 C769 1.413 . S
C771 C770 1.367 . S
C771 H773 0.930 . S
H772 C765 0.930 . S
H773 C771 0.930 . S
H774 C762 0.930 . S
H775 C763 0.930 . S
H776 C769 0.929 . S
H777 C791 0.930 . S
H778 C770 0.930 . S
H779 C797 0.930 . S
H780 C788 0.929 . S
H781 C795 0.930 . S
H782 C759 0.931 . S
H783 C789 0.930 . S
H784 C822 0.930 . S
H785 C766 0.930 . S
H786 C821 0.931 . S
N787 Eu756 2.657 . S
N787 C788 1.334 . S
N787 C792 1.362 . S
C788 H780 0.929 . S
C788 N787 1.334 . S
C788 C791 1.413 . S
C789 H783 0.930 . S
C789 C790 1.392 . S
C789 C791 1.367 . S
C790 C789 1.392 . S
C790 C792 1.420 . S
C790 C822 1.423 . S
C791 H777 0.930 . S
C791 C788 1.413 . S
C791 C789 1.367 . S
C792 N787 1.362 . S
C792 C790 1.420 . S
C792 C796 1.429 . S
H793 C798 0.930 . S
N794 Eu756 2.609 . S
N794 C796 1.377 . S
N794 C797 1.321 . S
C795 H781 0.930 . S
C795 C797 1.400 . S
C795 C798 1.386 . S
C796 C792 1.429 . S
C796 N794 1.377 . S
C796 C799 1.411 . S
C797 H779 0.930 . S
C797 N794 1.321 . S
C797 C795 1.400 . S
C798 H793 0.930 . S
C798 C795 1.386 . S
C798 C799 1.395 . S
C799 C796 1.411 . S
C799 C798 1.395 . S
C799 C821 1.420 . S
O800 Eu756 2.558 . S
O800 C820 1.257 . S
O801 Eu756 2.612 . S
O801 Eu767 2.380 . S
O801 C812 1.276 . S
O802 Eu767 2.432 . S
O802 C819 1.264 . S
O803 Eu756 2.339 . S
O803 C819 1.254 . S
O804 Eu756 2.563 . S
O804 C812 1.235 . S
O805 Eu756 2.419 . S
O805 C820 1.249 . S
O806 Eu767 2.558 . S
O806 C831 1.257 . S
O807 Eu756 2.380 . S
O807 Eu767 2.612 . S
O807 C823 1.276 . S
O808 Eu756 2.432 . S
O808 C830 1.264 . S
O809 Eu767 2.339 . S
O809 C830 1.254 . S
O810 Eu767 2.563 . S
O810 C823 1.235 . S
O811 Eu767 2.419 . S
O811 C831 1.249 . S
C812 O801 1.276 . S
C812 O804 1.235 . S
C813 C815 1.393 . S
C813 C817 1.395 . S
C813 C820 1.492 . S
C814 C815 1.392 . S
C814 C816 1.386 . S
C815 C813 1.393 . S
C815 C814 1.392 . S
C815 H832 0.930 . S
C816 C814 1.386 . S
C816 C818 1.395 . S
C816 H833 0.930 . S
C817 C813 1.395 . S
C817 C818 1.379 . S
C817 H834 0.930 . S
C818 C816 1.395 . S
C818 C817 1.379 . S
C818 H835 0.930 . S
C819 O802 1.264 . S
C819 O803 1.254 . S
C820 Eu756 2.848 . S
C820 O800 1.257 . S
C820 O805 1.249 . S
C820 C813 1.492 . S
C821 H786 0.931 . S
C821 C799 1.420 . S
C821 C822 1.351 . S
C822 H784 0.930 . S
C822 C790 1.423 . S
C822 C821 1.351 . S
C823 O807 1.276 . S
C823 O810 1.235 . S
C824 C825 1.393 . S
C824 C828 1.395 . S
C824 C831 1.492 . S
C825 C824 1.393 . S
C825 C826 1.392 1_554 S
C825 H836 0.930 . S
C826 C825 1.392 1_556 S
C826 C827 1.386 . S
C827 C826 1.386 . S
C827 C829 1.395 1_556 S
C827 H837 0.930 . S
C828 C824 1.395 . S
C828 C829 1.379 . S
C828 H838 0.930 . S
C829 C827 1.395 1_554 S
C829 C828 1.379 . S
C829 H839 0.930 . S
C830 O808 1.264 . S
C830 O809 1.254 . S
C831 Eu767 2.848 . S
C831 O806 1.257 . S
C831 O811 1.249 . S
C831 C824 1.492 . S
H832 C815 0.930 . S
H833 C816 0.930 . S
H834 C817 0.930 . S
H835 C818 0.930 . S
H836 C825 0.930 . S
H837 C827 0.930 . S
H838 C828 0.930 . S
H839 C829 0.930 . S
Eu840 N871 2.657 . S
Eu840 N878 2.609 . S
Eu840 O884 2.558 . S
Eu840 O885 2.612 . S
Eu840 O887 2.339 . S
Eu840 O888 2.563 . S
Eu840 O889 2.419 . S
Eu840 O891 2.380 . S
Eu840 O892 2.432 . S
Eu840 C904 2.848 . S
C841 C844 1.429 . S
C841 C845 1.411 . S
C841 N848 1.377 . S
C842 C844 1.420 . S
C842 C846 1.423 . S
C842 C854 1.392 . S
C843 C845 1.420 . S
C843 C846 1.351 . S
C843 H866 0.931 . S
C844 C841 1.429 . S
C844 C842 1.420 . S
C844 N852 1.362 . S
C845 C841 1.411 . S
C845 C843 1.420 . S
C845 C850 1.395 . S
C846 C842 1.423 . S
C846 C843 1.351 . S
C846 H858 0.930 . S
C847 C849 1.400 . S
C847 C850 1.386 . S
C847 H859 0.930 . S
N848 C841 1.377 . S
N848 C849 1.321 . S
N848 Eu851 2.609 . S
C849 C847 1.400 . S
C849 N848 1.321 . S
C849 H856 0.930 . S
C850 C845 1.395 . S
C850 C847 1.386 . S
C850 H869 0.930 . S
Eu851 N848 2.609 . S
Eu851 N852 2.657 . S
Eu851 O885 2.380 . S
Eu851 O886 2.432 . S
Eu851 O890 2.558 . S
Eu851 O891 2.612 . S
Eu851 O893 2.339 . S
Eu851 O894 2.563 . S
Eu851 O895 2.419 . S
Eu851 C915 2.848 . S
N852 C844 1.362 . S
N852 Eu851 2.657 . S
N852 C853 1.334 . S
C853 N852 1.334 . S
C853 C855 1.413 . S
C853 H860 0.929 . S
C854 C842 1.392 . S
C854 C855 1.367 . S
C854 H862 0.930 . S
C855 C853 1.413 . S
C855 C854 1.367 . S
C855 H857 0.930 . S
H856 C849 0.930 . S
H857 C855 0.930 . S
H858 C846 0.930 . S
H859 C847 0.930 . S
H860 C853 0.929 . S
H861 C875 0.930 . S
H862 C854 0.930 . S
H863 C881 0.930 . S
H864 C872 0.929 . S
H865 C879 0.930 . S
H866 C843 0.931 . S
H867 C873 0.930 . S
H868 C906 0.930 . S
H869 C850 0.930 . S
H870 C905 0.931 . S
N871 Eu840 2.657 . S
N871 C872 1.334 . S
N871 C876 1.362 . S
C872 H864 0.929 . S
C872 N871 1.334 . S
C872 C875 1.413 . S
C873 H867 0.930 . S
C873 C874 1.392 . S
C873 C875 1.367 . S
C874 C873 1.392 . S
C874 C876 1.420 . S
C874 C906 1.423 . S
C875 H861 0.930 . S
C875 C872 1.413 . S
C875 C873 1.367 . S
C876 N871 1.362 . S
C876 C874 1.420 . S
C876 C880 1.429 . S
H877 C882 0.930 . S
N878 Eu840 2.609 . S
N878 C880 1.377 . S
N878 C881 1.321 . S
C879 H865 0.930 . S
C879 C881 1.400 . S
C879 C882 1.386 . S
C880 C876 1.429 . S
C880 N878 1.377 . S
C880 C883 1.411 . S
C881 H863 0.930 . S
C881 N878 1.321 . S
C881 C879 1.400 . S
C882 H877 0.930 . S
C882 C879 1.386 . S
C882 C883 1.395 . S
C883 C880 1.411 . S
C883 C882 1.395 . S
C883 C905 1.420 . S
O884 Eu840 2.558 . S
O884 C904 1.257 . S
O885 Eu840 2.612 . S
O885 Eu851 2.380 . S
O885 C896 1.276 . S
O886 Eu851 2.432 . S
O886 C903 1.264 . S
O887 Eu840 2.339 . S
O887 C903 1.254 . S
O888 Eu840 2.563 . S
O888 C896 1.235 . S
O889 Eu840 2.419 . S
O889 C904 1.249 . S
O890 Eu851 2.558 . S
O890 C915 1.257 . S
O891 Eu840 2.380 . S
O891 Eu851 2.612 . S
O891 C907 1.276 . S
O892 Eu840 2.432 . S
O892 C914 1.264 . S
O893 Eu851 2.339 . S
O893 C914 1.254 . S
O894 Eu851 2.563 . S
O894 C907 1.235 . S
O895 Eu851 2.419 . S
O895 C915 1.249 . S
C896 O885 1.276 . S
C896 O888 1.235 . S
C897 C899 1.393 . S
C897 C901 1.395 . S
C897 C904 1.492 . S
C898 C899 1.392 . S
C898 C900 1.386 . S
C899 C897 1.393 . S
C899 C898 1.392 . S
C899 H916 0.930 . S
C900 C898 1.386 . S
C900 C902 1.395 . S
C900 H917 0.930 . S
C901 C897 1.395 . S
C901 C902 1.379 . S
C901 H918 0.930 . S
C902 C900 1.395 . S
C902 C901 1.379 . S
C902 H919 0.930 . S
C903 O886 1.264 . S
C903 O887 1.254 . S
C904 Eu840 2.848 . S
C904 O884 1.257 . S
C904 O889 1.249 . S
C904 C897 1.492 . S
C905 H870 0.931 . S
C905 C883 1.420 . S
C905 C906 1.351 . S
C906 H868 0.930 . S
C906 C874 1.423 . S
C906 C905 1.351 . S
C907 O891 1.276 . S
C907 O894 1.235 . S
C908 C909 1.393 . S
C908 C912 1.395 . S
C908 C915 1.492 . S
C909 C908 1.393 . S
C909 C910 1.392 . S
C909 H920 0.930 . S
C910 C909 1.392 . S
C910 C911 1.386 . S
C911 C910 1.386 . S
C911 C913 1.395 . S
C911 H921 0.930 1_556 S
C912 C908 1.395 . S
C912 C913 1.379 . S
C912 H922 0.930 . S
C913 C911 1.395 . S
C913 C912 1.379 . S
C913 H923 0.930 . S
C914 O892 1.264 . S
C914 O893 1.254 . S
C915 Eu851 2.848 . S
C915 O890 1.257 . S
C915 O895 1.249 . S
C915 C908 1.492 . S
H916 C899 0.930 . S
H917 C900 0.930 . S
H918 C901 0.930 . S
H919 C902 0.930 . S
H920 C909 0.930 . S
H921 C911 0.930 1_554 S
H922 C912 0.930 . S
H923 C913 0.930 . S
Eu924 N955 2.657 . S
Eu924 N962 2.609 . S
Eu924 O968 2.558 . S
Eu924 O969 2.612 . S
Eu924 O971 2.339 . S
Eu924 O972 2.563 . S
Eu924 O973 2.419 . S
Eu924 O975 2.380 . S
Eu924 O976 2.432 . S
Eu924 C988 2.848 . S
C925 C928 1.429 . S
C925 C929 1.411 . S
C925 N932 1.377 . S
C926 C928 1.420 . S
C926 C930 1.423 . S
C926 C938 1.392 . S
C927 C929 1.420 . S
C927 C930 1.351 . S
C927 H950 0.931 . S
C928 C925 1.429 . S
C928 C926 1.420 . S
C928 N936 1.362 . S
C929 C925 1.411 . S
C929 C927 1.420 . S
C929 C934 1.395 . S
C930 C926 1.423 . S
C930 C927 1.351 . S
C930 H942 0.930 . S
C931 C933 1.400 . S
C931 C934 1.386 . S
C931 H943 0.930 1_655 S
N932 C925 1.377 . S
N932 C933 1.321 . S
N932 Eu935 2.609 . S
C933 C931 1.400 . S
C933 N932 1.321 . S
C933 H940 0.930 . S
C934 C929 1.395 . S
C934 C931 1.386 . S
C934 H953 0.930 . S
Eu935 N932 2.609 . S
Eu935 N936 2.657 . S
Eu935 O969 2.380 . S
Eu935 O970 2.432 . S
Eu935 O974 2.558 . S
Eu935 O975 2.612 . S
Eu935 O977 2.339 . S
Eu935 O978 2.563 . S
Eu935 O979 2.419 . S
Eu935 C999 2.848 . S
N936 C928 1.362 . S
N936 Eu935 2.657 . S
N936 C937 1.334 . S
C937 N936 1.334 . S
C937 C939 1.413 . S
C937 H944 0.929 . S
C938 C926 1.392 . S
C938 C939 1.367 . S
C938 H946 0.930 . S
C939 C937 1.413 . S
C939 C938 1.367 . S
C939 H941 0.930 . S
H940 C933 0.930 . S
H941 C939 0.930 . S
H942 C930 0.930 . S
H943 C931 0.930 1_455 S
H944 C937 0.929 . S
H945 C959 0.930 . S
H946 C938 0.930 . S
H947 C965 0.930 . S
H948 C956 0.929 . S
H949 C963 0.930 . S
H950 C927 0.931 . S
H951 C957 0.930 . S
H952 C990 0.930 . S
H953 C934 0.930 . S
H954 C989 0.931 . S
N955 Eu924 2.657 . S
N955 C956 1.334 . S
N955 C960 1.362 . S
C956 H948 0.929 . S
C956 N955 1.334 . S
C956 C959 1.413 . S
C957 H951 0.930 . S
C957 C958 1.392 . S
C957 C959 1.367 . S
C958 C957 1.392 . S
C958 C960 1.420 . S
C958 C990 1.423 . S
C959 H945 0.930 . S
C959 C956 1.413 . S
C959 C957 1.367 . S
C960 N955 1.362 . S
C960 C958 1.420 . S
C960 C964 1.429 . S
H961 C966 0.930 . S
N962 Eu924 2.609 . S
N962 C964 1.377 . S
N962 C965 1.321 . S
C963 H949 0.930 . S
C963 C965 1.400 . S
C963 C966 1.386 . S
C964 C960 1.429 . S
C964 N962 1.377 . S
C964 C967 1.411 . S
C965 H947 0.930 . S
C965 N962 1.321 . S
C965 C963 1.400 . S
C966 H961 0.930 . S
C966 C963 1.386 . S
C966 C967 1.395 . S
C967 C964 1.411 . S
C967 C966 1.395 . S
C967 C989 1.420 . S
O968 Eu924 2.558 . S
O968 C988 1.257 . S
O969 Eu924 2.612 . S
O969 Eu935 2.380 . S
O969 C980 1.276 . S
O970 Eu935 2.432 . S
O970 C987 1.264 . S
O971 Eu924 2.339 . S
O971 C987 1.254 . S
O972 Eu924 2.563 . S
O972 C980 1.235 . S
O973 Eu924 2.419 . S
O973 C988 1.249 . S
O974 Eu935 2.558 . S
O974 C999 1.257 . S
O975 Eu924 2.380 . S
O975 Eu935 2.612 . S
O975 C991 1.276 . S
O976 Eu924 2.432 . S
O976 C998 1.264 . S
O977 Eu935 2.339 . S
O977 C998 1.254 . S
O978 Eu935 2.563 . S
O978 C991 1.235 . S
O979 Eu935 2.419 . S
O979 C999 1.249 . S
C980 O969 1.276 . S
C980 O972 1.235 . S
C981 C983 1.393 . S
C981 C985 1.395 . S
C981 C988 1.492 . S
C982 C983 1.392 . S
C982 C984 1.386 . S
C983 C981 1.393 . S
C983 C982 1.392 . S
C983 H1000 0.930 . S
C984 C982 1.386 . S
C984 C986 1.395 . S
C984 H1001 0.930 . S
C985 C981 1.395 . S
C985 C986 1.379 . S
C985 H1002 0.930 . S
C986 C984 1.395 . S
C986 C985 1.379 . S
C986 H1003 0.930 . S
C987 O970 1.264 . S
C987 O971 1.254 . S
C988 Eu924 2.848 . S
C988 O968 1.257 . S
C988 O973 1.249 . S
C988 C981 1.492 . S
C989 H954 0.931 . S
C989 C967 1.420 . S
C989 C990 1.351 . S
C990 H952 0.930 . S
C990 C958 1.423 . S
C990 C989 1.351 . S
C991 O975 1.276 . S
C991 O978 1.235 . S
C992 C993 1.393 . S
C992 C996 1.395 . S
C992 C999 1.492 . S
C993 C992 1.393 . S
C993 C994 1.392 . S
C993 H1004 0.930 . S
C994 C993 1.392 . S
C994 C995 1.386 . S
C995 C994 1.386 . S
C995 C997 1.395 . S
C995 H1005 0.930 . S
C996 C992 1.395 . S
C996 C997 1.379 . S
C996 H1006 0.930 . S
C997 C995 1.395 . S
C997 C996 1.379 . S
C997 H1007 0.930 . S
C998 O976 1.264 . S
C998 O977 1.254 . S
C999 Eu935 2.848 . S
C999 O974 1.257 . S
C999 O979 1.249 . S
C999 C992 1.492 . S
H1000 C983 0.930 . S
H1001 C984 0.930 . S
H1002 C985 0.930 . S
H1003 C986 0.930 . S
H1004 C993 0.930 . S
H1005 C995 0.930 . S
H1006 C996 0.930 . S
H1007 C997 0.930 . S
Eu1008 N1039 2.657 . S
Eu1008 N1046 2.609 . S
Eu1008 O1052 2.558 . S
Eu1008 O1053 2.612 . S
Eu1008 O1055 2.339 . S
Eu1008 O1056 2.563 . S
Eu1008 O1057 2.419 . S
Eu1008 O1059 2.380 . S
Eu1008 O1060 2.432 . S
Eu1008 C1072 2.848 . S
C1009 C1012 1.429 . S
C1009 C1013 1.411 . S
C1009 N1016 1.377 . S
C1010 C1012 1.420 . S
C1010 C1014 1.423 . S
C1010 C1022 1.392 . S
C1011 C1013 1.420 . S
C1011 C1014 1.351 . S
C1011 H1034 0.931 . S
C1012 C1009 1.429 . S
C1012 C1010 1.420 . S
C1012 N1020 1.362 . S
C1013 C1009 1.411 . S
C1013 C1011 1.420 . S
C1013 C1018 1.395 . S
C1014 C1010 1.423 . S
C1014 C1011 1.351 . S
C1014 H1026 0.930 . S
C1015 C1017 1.400 . S
C1015 C1018 1.386 . S
C1015 H1027 0.930 . S
N1016 C1009 1.377 . S
N1016 C1017 1.321 . S
N1016 Eu1019 2.609 . S
C1017 C1015 1.400 . S
C1017 N1016 1.321 . S
C1017 H1024 0.930 . S
C1018 C1013 1.395 . S
C1018 C1015 1.386 . S
C1018 H1037 0.930 . S
Eu1019 N1016 2.609 . S
Eu1019 N1020 2.657 . S
Eu1019 O1053 2.380 . S
Eu1019 O1054 2.432 . S
Eu1019 O1058 2.558 . S
Eu1019 O1059 2.612 . S
Eu1019 O1061 2.339 . S
Eu1019 O1062 2.563 . S
Eu1019 O1063 2.419 . S
Eu1019 C1083 2.848 . S
N1020 C1012 1.362 . S
N1020 Eu1019 2.657 . S
N1020 C1021 1.334 . S
C1021 N1020 1.334 . S
C1021 C1023 1.413 . S
C1021 H1028 0.929 . S
C1022 C1010 1.392 . S
C1022 C1023 1.367 . S
C1022 H1030 0.930 . S
C1023 C1021 1.413 . S
C1023 C1022 1.367 . S
C1023 H1025 0.930 . S
H1024 C1017 0.930 . S
H1025 C1023 0.930 . S
H1026 C1014 0.930 . S
H1027 C1015 0.930 . S
H1028 C1021 0.929 . S
H1029 C1043 0.930 . S
H1030 C1022 0.930 . S
H1031 C1049 0.930 . S
H1032 C1040 0.929 . S
H1033 C1047 0.930 . S
H1034 C1011 0.931 . S
H1035 C1041 0.930 . S
H1036 C1074 0.930 . S
H1037 C1018 0.930 . S
H1038 C1073 0.931 . S
N1039 Eu1008 2.657 . S
N1039 C1040 1.334 . S
N1039 C1044 1.362 . S
C1040 H1032 0.929 . S
C1040 N1039 1.334 . S
C1040 C1043 1.413 . S
C1041 H1035 0.930 . S
C1041 C1042 1.392 . S
C1041 C1043 1.367 . S
C1042 C1041 1.392 . S
C1042 C1044 1.420 . S
C1042 C1074 1.423 . S
C1043 H1029 0.930 . S
C1043 C1040 1.413 . S
C1043 C1041 1.367 . S
C1044 N1039 1.362 . S
C1044 C1042 1.420 . S
C1044 C1048 1.429 . S
H1045 C1050 0.930 . S
N1046 Eu1008 2.609 . S
N1046 C1048 1.377 . S
N1046 C1049 1.321 . S
C1047 H1033 0.930 . S
C1047 C1049 1.400 . S
C1047 C1050 1.386 . S
C1048 C1044 1.429 . S
C1048 N1046 1.377 . S
C1048 C1051 1.411 . S
C1049 H1031 0.930 . S
C1049 N1046 1.321 . S
C1049 C1047 1.400 . S
C1050 H1045 0.930 . S
C1050 C1047 1.386 . S
C1050 C1051 1.395 . S
C1051 C1048 1.411 . S
C1051 C1050 1.395 . S
C1051 C1073 1.420 . S
O1052 Eu1008 2.558 . S
O1052 C1072 1.257 . S
O1053 Eu1008 2.612 . S
O1053 Eu1019 2.380 . S
O1053 C1064 1.276 . S
O1054 Eu1019 2.432 . S
O1054 C1071 1.264 . S
O1055 Eu1008 2.339 . S
O1055 C1071 1.254 . S
O1056 Eu1008 2.563 . S
O1056 C1064 1.235 . S
O1057 Eu1008 2.419 . S
O1057 C1072 1.249 . S
O1058 Eu1019 2.558 . S
O1058 C1083 1.257 . S
O1059 Eu1008 2.380 . S
O1059 Eu1019 2.612 . S
O1059 C1075 1.276 . S
O1060 Eu1008 2.432 . S
O1060 C1082 1.264 . S
O1061 Eu1019 2.339 . S
O1061 C1082 1.254 . S
O1062 Eu1019 2.563 . S
O1062 C1075 1.235 . S
O1063 Eu1019 2.419 . S
O1063 C1083 1.249 . S
C1064 O1053 1.276 . S
C1064 O1056 1.235 . S
C1065 C1067 1.393 . S
C1065 C1069 1.395 . S
C1065 C1072 1.492 . S
C1066 C1067 1.392 . S
C1066 C1068 1.386 . S
C1067 C1065 1.393 . S
C1067 C1066 1.392 . S
C1067 H1084 0.930 . S
C1068 C1066 1.386 . S
C1068 C1070 1.395 . S
C1068 H1085 0.930 . S
C1069 C1065 1.395 . S
C1069 C1070 1.379 . S
C1069 H1086 0.930 . S
C1070 C1068 1.395 . S
C1070 C1069 1.379 . S
C1070 H1087 0.930 . S
C1071 O1054 1.264 . S
C1071 O1055 1.254 . S
C1072 Eu1008 2.848 . S
C1072 O1052 1.257 . S
C1072 O1057 1.249 . S
C1072 C1065 1.492 . S
C1073 H1038 0.931 . S
C1073 C1051 1.420 . S
C1073 C1074 1.351 . S
C1074 H1036 0.930 . S
C1074 C1042 1.423 . S
C1074 C1073 1.351 . S
C1075 O1059 1.276 . S
C1075 O1062 1.235 . S
C1076 C1077 1.393 . S
C1076 C1080 1.395 . S
C1076 C1083 1.492 . S
C1077 C1076 1.393 . S
C1077 C1078 1.392 . S
C1077 H1088 0.930 . S
C1078 C1077 1.392 . S
C1078 C1079 1.386 . S
C1079 C1078 1.386 . S
C1079 C1081 1.395 . S
C1079 H1089 0.930 . S
C1080 C1076 1.395 . S
C1080 C1081 1.379 . S
C1080 H1090 0.930 . S
C1081 C1079 1.395 . S
C1081 C1080 1.379 . S
C1081 H1091 0.930 . S
C1082 O1060 1.264 . S
C1082 O1061 1.254 . S
C1083 Eu1019 2.848 . S
C1083 O1058 1.257 . S
C1083 O1063 1.249 . S
C1083 C1076 1.492 . S
H1084 C1067 0.930 . S
H1085 C1068 0.930 . S
H1086 C1069 0.930 . S
H1087 C1070 0.930 . S
H1088 C1077 0.930 . S
H1089 C1079 0.930 . S
H1090 C1080 0.930 . S
H1091 C1081 0.930 . S
Eu1092 N1123 2.657 1_455 S
Eu1092 N1130 2.609 1_455 S
Eu1092 O1136 2.558 1_455 S
Eu1092 O1137 2.612 . S
Eu1092 O1139 2.339 . S
Eu1092 O1140 2.563 . S
Eu1092 O1141 2.407 1_455 S
Eu1092 O1143 2.380 . S
Eu1092 O1144 2.432 . S
Eu1092 C1156 2.848 1_455 S
C1093 C1096 1.429 . S
C1093 C1097 1.411 . S
C1093 N1100 1.377 . S
C1094 C1096 1.420 . S
C1094 C1098 1.423 . S
C1094 C1106 1.392 . S
C1095 C1097 1.420 . S
C1095 C1098 1.351 . S
C1095 H1118 0.931 . S
C1096 C1093 1.429 . S
C1096 C1094 1.420 . S
C1096 N1104 1.362 . S
C1097 C1093 1.411 . S
C1097 C1095 1.420 . S
C1097 C1102 1.395 . S
C1098 C1094 1.423 . S
C1098 C1095 1.351 . S
C1098 H1110 0.930 . S
C1099 C1101 1.400 . S
C1099 C1102 1.386 . S
C1099 H1111 0.930 . S
N1100 C1093 1.377 . S
N1100 C1101 1.321 . S
N1100 Eu1103 2.609 . S
C1101 C1099 1.400 . S
C1101 N1100 1.321 . S
C1101 H1108 0.930 . S
C1102 C1097 1.395 . S
C1102 C1099 1.386 . S
C1102 H1121 0.930 . S
Eu1103 N1100 2.609 . S
Eu1103 N1104 2.657 . S
Eu1103 O1137 2.380 . S
Eu1103 O1138 2.432 . S
Eu1103 O1142 2.558 . S
Eu1103 O1143 2.612 . S
Eu1103 O1145 2.339 . S
Eu1103 O1146 2.563 . S
Eu1103 O1147 2.419 . S
Eu1103 C1167 2.848 . S
N1104 C1096 1.362 . S
N1104 Eu1103 2.657 . S
N1104 C1105 1.334 . S
C1105 N1104 1.334 . S
C1105 C1107 1.413 . S
C1105 H1112 0.929 . S
C1106 C1094 1.392 . S
C1106 C1107 1.367 . S
C1106 H1114 0.930 . S
C1107 C1105 1.413 . S
C1107 C1106 1.367 . S
C1107 H1109 0.930 . S
H1108 C1101 0.930 . S
H1109 C1107 0.930 . S
H1110 C1098 0.930 . S
H1111 C1099 0.930 . S
H1112 C1105 0.929 . S
H1113 C1127 0.930 . S
H1114 C1106 0.930 . S
H1115 C1133 0.930 . S
H1116 C1124 0.929 1_455 S
H1117 C1131 0.930 . S
H1118 C1095 0.931 . S
H1119 C1125 0.930 . S
H1120 C1158 0.930 . S
H1121 C1102 0.930 . S
H1122 C1157 0.931 . S
N1123 Eu1092 2.657 1_655 S
N1123 C1124 1.334 . S
N1123 C1128 1.362 . S
C1124 H1116 0.929 1_655 S
C1124 N1123 1.334 . S
C1124 C1127 1.413 . S
C1125 H1119 0.930 . S
C1125 C1126 1.392 . S
C1125 C1127 1.367 . S
C1126 C1125 1.392 . S
C1126 C1128 1.420 . S
C1126 C1158 1.423 . S
C1127 H1113 0.930 . S
C1127 C1124 1.413 . S
C1127 C1125 1.367 . S
C1128 N1123 1.362 . S
C1128 C1126 1.420 . S
C1128 C1132 1.429 . S
H1129 C1134 0.930 . S
N1130 Eu1092 2.609 1_655 S
N1130 C1132 1.377 . S
N1130 C1133 1.321 . S
C1131 H1117 0.930 . S
C1131 C1133 1.400 . S
C1131 C1134 1.386 . S
C1132 C1128 1.429 . S
C1132 N1130 1.377 . S
C1132 C1135 1.411 . S
C1133 H1115 0.930 . S
C1133 N1130 1.321 . S
C1133 C1131 1.400 . S
C1134 H1129 0.930 . S
C1134 C1131 1.386 . S
C1134 C1135 1.395 . S
C1135 C1132 1.411 . S
C1135 C1134 1.395 . S
C1135 C1157 1.420 . S
O1136 Eu1092 2.558 1_655 S
O1136 C1156 1.257 . S
O1137 Eu1092 2.612 . S
O1137 Eu1103 2.380 . S
O1137 C1148 1.276 . S
O1138 Eu1103 2.432 . S
O1138 C1155 1.264 . S
O1139 Eu1092 2.339 . S
O1139 C1155 1.254 . S
O1140 Eu1092 2.563 . S
O1140 C1148 1.235 . S
O1141 Eu1092 2.407 1_655 S
O1141 C1156 1.252 . S
O1142 Eu1103 2.558 . S
O1142 C1167 1.257 . S
O1143 Eu1092 2.380 . S
O1143 Eu1103 2.612 . S
O1143 C1159 1.276 . S
O1144 Eu1092 2.432 . S
O1144 C1166 1.264 . S
O1145 Eu1103 2.339 . S
O1145 C1166 1.254 . S
O1146 Eu1103 2.563 . S
O1146 C1159 1.235 . S
O1147 Eu1103 2.419 . S
O1147 C1167 1.249 . S
C1148 O1137 1.276 . S
C1148 O1140 1.235 . S
C1149 C1151 1.393 . S
C1149 C1153 1.395 . S
C1149 C1156 1.492 1_556 S
C1150 C1151 1.392 . S
C1150 C1152 1.386 . S
C1151 C1149 1.393 . S
C1151 C1150 1.392 . S
C1151 H1168 0.930 . S
C1152 C1150 1.386 . S
C1152 C1154 1.395 . S
C1152 H1169 0.930 . S
C1153 C1149 1.395 . S
C1153 C1154 1.379 . S
C1153 H1170 0.930 . S
C1154 C1152 1.395 . S
C1154 C1153 1.379 . S
C1154 H1171 0.930 . S
C1155 O1138 1.264 . S
C1155 O1139 1.254 . S
C1156 Eu1092 2.848 1_655 S
C1156 O1136 1.257 . S
C1156 O1141 1.252 . S
C1156 C1149 1.492 1_554 S
C1157 H1122 0.931 . S
C1157 C1135 1.420 . S
C1157 C1158 1.351 . S
C1158 H1120 0.930 . S
C1158 C1126 1.423 . S
C1158 C1157 1.351 . S
C1159 O1143 1.276 . S
C1159 O1146 1.235 . S
C1160 C1161 1.393 . S
C1160 C1164 1.395 . S
C1160 C1167 1.492 . S
C1161 C1160 1.393 . S
C1161 C1162 1.392 . S
C1161 H1172 0.930 . S
C1162 C1161 1.392 . S
C1162 C1163 1.386 . S
C1163 C1162 1.386 . S
C1163 C1165 1.395 . S
C1163 H1173 0.930 . S
C1164 C1160 1.395 . S
C1164 C1165 1.379 . S
C1164 H1174 0.930 . S
C1165 C1163 1.395 . S
C1165 C1164 1.379 . S
C1165 H1175 0.930 . S
C1166 O1144 1.264 . S
C1166 O1145 1.254 . S
C1167 Eu1103 2.848 . S
C1167 O1142 1.257 . S
C1167 O1147 1.249 . S
C1167 C1160 1.492 . S
H1168 C1151 0.930 . S
H1169 C1152 0.930 . S
H1170 C1153 0.930 . S
H1171 C1154 0.930 . S
H1172 C1161 0.930 . S
H1173 C1163 0.930 . S
H1174 C1164 0.930 . S
H1175 C1165 0.930 . S
Eu1176 N1207 2.657 . S
Eu1176 N1214 2.609 . S
Eu1176 O1220 2.558 . S
Eu1176 O1221 2.612 . S
Eu1176 O1223 2.339 . S
Eu1176 O1224 2.563 . S
Eu1176 O1225 2.419 . S
Eu1176 O1227 2.380 . S
Eu1176 O1228 2.432 . S
Eu1176 C1240 2.848 . S
C1177 C1180 1.429 . S
C1177 C1181 1.411 . S
C1177 N1184 1.377 . S
C1178 C1180 1.420 . S
C1178 C1182 1.423 . S
C1178 C1190 1.392 . S
C1179 C1181 1.420 . S
C1179 C1182 1.351 . S
C1179 H1202 0.931 . S
C1180 C1177 1.429 . S
C1180 C1178 1.420 . S
C1180 N1188 1.362 . S
C1181 C1177 1.411 . S
C1181 C1179 1.420 . S
C1181 C1186 1.395 . S
C1182 C1178 1.423 . S
C1182 C1179 1.351 . S
C1182 H1194 0.930 . S
C1183 C1185 1.400 . S
C1183 C1186 1.386 . S
C1183 H1195 0.930 . S
N1184 C1177 1.377 . S
N1184 C1185 1.321 . S
N1184 Eu1187 2.609 . S
C1185 C1183 1.400 . S
C1185 N1184 1.321 . S
C1185 H1192 0.930 . S
C1186 C1181 1.395 . S
C1186 C1183 1.386 . S
C1186 H1205 0.930 . S
Eu1187 N1184 2.609 . S
Eu1187 N1188 2.657 . S
Eu1187 O1221 2.380 . S
Eu1187 O1222 2.432 . S
Eu1187 O1226 2.558 . S
Eu1187 O1227 2.612 . S
Eu1187 O1229 2.339 . S
Eu1187 O1230 2.563 . S
Eu1187 O1231 2.419 . S
Eu1187 C1251 2.848 . S
N1188 C1180 1.362 . S
N1188 Eu1187 2.657 . S
N1188 C1189 1.334 . S
C1189 N1188 1.334 . S
C1189 C1191 1.413 . S
C1189 H1196 0.929 . S
C1190 C1178 1.392 . S
C1190 C1191 1.367 . S
C1190 H1198 0.930 . S
C1191 C1189 1.413 . S
C1191 C1190 1.367 . S
C1191 H1193 0.930 . S
H1192 C1185 0.930 . S
H1193 C1191 0.930 . S
H1194 C1182 0.930 . S
H1195 C1183 0.930 . S
H1196 C1189 0.929 . S
H1197 C1211 0.930 . S
H1198 C1190 0.930 . S
H1199 C1217 0.930 . S
H1200 C1208 0.929 . S
H1201 C1215 0.930 . S
H1202 C1179 0.931 . S
H1203 C1209 0.930 . S
H1204 C1242 0.930 . S
H1205 C1186 0.930 . S
H1206 C1241 0.931 . S
N1207 Eu1176 2.657 . S
N1207 C1208 1.334 . S
N1207 C1212 1.362 . S
C1208 H1200 0.929 . S
C1208 N1207 1.334 . S
C1208 C1211 1.413 . S
C1209 H1203 0.930 . S
C1209 C1210 1.392 . S
C1209 C1211 1.367 . S
C1210 C1209 1.392 . S
C1210 C1212 1.420 . S
C1210 C1242 1.423 . S
C1211 H1197 0.930 . S
C1211 C1208 1.413 . S
C1211 C1209 1.367 . S
C1212 N1207 1.362 . S
C1212 C1210 1.420 . S
C1212 C1216 1.429 . S
H1213 C1218 0.930 . S
N1214 Eu1176 2.609 . S
N1214 C1216 1.377 . S
N1214 C1217 1.321 . S
C1215 H1201 0.930 . S
C1215 C1217 1.400 . S
C1215 C1218 1.386 . S
C1216 C1212 1.429 . S
C1216 N1214 1.377 . S
C1216 C1219 1.411 . S
C1217 H1199 0.930 . S
C1217 N1214 1.321 . S
C1217 C1215 1.400 . S
C1218 H1213 0.930 . S
C1218 C1215 1.386 . S
C1218 C1219 1.395 . S
C1219 C1216 1.411 . S
C1219 C1218 1.395 . S
C1219 C1241 1.420 . S
O1220 Eu1176 2.558 . S
O1220 C1240 1.257 . S
O1221 Eu1176 2.612 . S
O1221 Eu1187 2.380 . S
O1221 C1232 1.276 . S
O1222 Eu1187 2.432 . S
O1222 C1239 1.264 . S
O1223 Eu1176 2.339 . S
O1223 C1239 1.254 . S
O1224 Eu1176 2.563 . S
O1224 C1232 1.235 . S
O1225 Eu1176 2.419 . S
O1225 C1240 1.249 . S
O1226 Eu1187 2.558 . S
O1226 C1251 1.257 . S
O1227 Eu1176 2.380 . S
O1227 Eu1187 2.612 . S
O1227 C1243 1.276 . S
O1228 Eu1176 2.432 . S
O1228 C1250 1.264 . S
O1229 Eu1187 2.339 . S
O1229 C1250 1.254 . S
O1230 Eu1187 2.563 . S
O1230 C1243 1.235 . S
O1231 Eu1187 2.419 . S
O1231 C1251 1.249 . S
C1232 O1221 1.276 . S
C1232 O1224 1.235 . S
C1233 C1235 1.393 . S
C1233 C1237 1.395 . S
C1233 C1240 1.492 . S
C1234 C1235 1.392 . S
C1234 C1236 1.386 . S
C1235 C1233 1.393 . S
C1235 C1234 1.392 . S
C1235 H1252 0.930 . S
C1236 C1234 1.386 . S
C1236 C1238 1.395 . S
C1236 H1253 0.930 . S
C1237 C1233 1.395 . S
C1237 C1238 1.379 . S
C1237 H1254 0.930 . S
C1238 C1236 1.395 . S
C1238 C1237 1.379 . S
C1238 H1255 0.930 . S
C1239 O1222 1.264 . S
C1239 O1223 1.254 . S
C1240 Eu1176 2.848 . S
C1240 O1220 1.257 . S
C1240 O1225 1.249 . S
C1240 C1233 1.492 . S
C1241 H1206 0.931 . S
C1241 C1219 1.420 . S
C1241 C1242 1.351 . S
C1242 H1204 0.930 . S
C1242 C1210 1.423 . S
C1242 C1241 1.351 . S
C1243 O1227 1.276 . S
C1243 O1230 1.235 . S
C1244 C1245 1.393 . S
C1244 C1248 1.395 . S
C1244 C1251 1.492 . S
C1245 C1244 1.393 . S
C1245 C1246 1.392 . S
C1245 H1256 0.930 . S
C1246 C1245 1.392 . S
C1246 C1247 1.386 . S
C1247 C1246 1.386 . S
C1247 C1249 1.395 . S
C1247 H1257 0.930 . S
C1248 C1244 1.395 . S
C1248 C1249 1.379 . S
C1248 H1258 0.930 . S
C1249 C1247 1.395 . S
C1249 C1248 1.379 . S
C1249 H1259 0.930 . S
C1250 O1228 1.264 . S
C1250 O1229 1.254 . S
C1251 Eu1187 2.848 . S
C1251 O1226 1.257 . S
C1251 O1231 1.249 . S
C1251 C1244 1.492 . S
H1252 C1235 0.930 . S
H1253 C1236 0.930 . S
H1254 C1237 0.930 . S
H1255 C1238 0.930 . S
H1256 C1245 0.930 . S
H1257 C1247 0.930 . S
H1258 C1248 0.930 . S
H1259 C1249 0.930 . S
Eu1260 N1291 2.657 . S
Eu1260 N1298 2.609 . S
Eu1260 O1304 2.558 . S
Eu1260 O1305 2.612 1_655 S
Eu1260 O1307 2.339 1_655 S
Eu1260 O1308 2.563 1_655 S
Eu1260 O1309 2.419 . S
Eu1260 O1311 2.380 1_655 S
Eu1260 O1312 2.432 1_655 S
Eu1260 C1324 2.848 . S
C1261 C1264 1.429 . S
C1261 C1265 1.411 . S
C1261 N1268 1.377 . S
C1262 C1264 1.420 . S
C1262 C1266 1.423 . S
C1262 C1274 1.392 . S
C1263 C1265 1.420 . S
C1263 C1266 1.351 . S
C1263 H1286 0.931 . S
C1264 C1261 1.429 . S
C1264 C1262 1.420 . S
C1264 N1272 1.362 . S
C1265 C1261 1.411 . S
C1265 C1263 1.420 . S
C1265 C1270 1.395 . S
C1266 C1262 1.423 . S
C1266 C1263 1.351 . S
C1266 H1278 0.930 . S
C1267 C1269 1.400 . S
C1267 C1270 1.386 . S
C1267 H1279 0.930 . S
N1268 C1261 1.377 . S
N1268 C1269 1.321 . S
N1268 Eu1271 2.609 . S
C1269 C1267 1.400 . S
C1269 N1268 1.321 . S
C1269 H1276 0.930 . S
C1270 C1265 1.395 . S
C1270 C1267 1.386 . S
C1270 H1289 0.930 . S
Eu1271 N1268 2.609 . S
Eu1271 N1272 2.657 . S
Eu1271 O1305 2.380 . S
Eu1271 O1306 2.432 . S
Eu1271 O1310 2.558 . S
Eu1271 O1311 2.612 . S
Eu1271 O1313 2.339 . S
Eu1271 O1314 2.563 . S
Eu1271 O1315 2.419 . S
Eu1271 C1335 2.848 . S
N1272 C1264 1.362 . S
N1272 Eu1271 2.657 . S
N1272 C1273 1.334 . S
C1273 N1272 1.334 . S
C1273 C1275 1.413 . S
C1273 H1280 0.929 . S
C1274 C1262 1.392 . S
C1274 C1275 1.367 . S
C1274 H1282 0.930 . S
C1275 C1273 1.413 . S
C1275 C1274 1.367 . S
C1275 H1277 0.930 . S
H1276 C1269 0.930 . S
H1277 C1275 0.930 . S
H1278 C1266 0.930 . S
H1279 C1267 0.930 . S
H1280 C1273 0.929 . S
H1281 C1295 0.930 . S
H1282 C1274 0.930 . S
H1283 C1301 0.930 . S
H1284 C1292 0.929 . S
H1285 C1299 0.930 . S
H1286 C1263 0.931 . S
H1287 C1293 0.930 . S
H1288 C1326 0.930 . S
H1289 C1270 0.930 . S
H1290 C1325 0.931 . S
N1291 Eu1260 2.657 . S
N1291 C1292 1.334 . S
N1291 C1296 1.362 . S
C1292 H1284 0.929 . S
C1292 N1291 1.334 . S
C1292 C1295 1.413 . S
C1293 H1287 0.930 . S
C1293 C1294 1.392 . S
C1293 C1295 1.367 . S
C1294 C1293 1.392 . S
C1294 C1296 1.420 . S
C1294 C1326 1.423 . S
C1295 H1281 0.930 . S
C1295 C1292 1.413 . S
C1295 C1293 1.367 . S
C1296 N1291 1.362 . S
C1296 C1294 1.420 . S
C1296 C1300 1.429 . S
H1297 C1302 0.930 . S
N1298 Eu1260 2.609 . S
N1298 C1300 1.377 . S
N1298 C1301 1.321 . S
C1299 H1285 0.930 . S
C1299 C1301 1.400 . S
C1299 C1302 1.386 . S
C1300 C1296 1.429 . S
C1300 N1298 1.377 . S
C1300 C1303 1.411 . S
C1301 H1283 0.930 . S
C1301 N1298 1.321 . S
C1301 C1299 1.400 . S
C1302 H1297 0.930 . S
C1302 C1299 1.386 . S
C1302 C1303 1.395 . S
C1303 C1300 1.411 . S
C1303 C1302 1.395 . S
C1303 C1325 1.420 . S
O1304 Eu1260 2.558 . S
O1304 C1324 1.257 . S
O1305 Eu1260 2.612 1_455 S
O1305 Eu1271 2.380 . S
O1305 C1316 1.276 . S
O1306 Eu1271 2.432 . S
O1306 C1323 1.264 . S
O1307 Eu1260 2.339 1_455 S
O1307 C1323 1.254 . S
O1308 Eu1260 2.563 1_455 S
O1308 C1316 1.235 . S
O1309 Eu1260 2.419 . S
O1309 C1324 1.249 . S
O1310 Eu1271 2.558 . S
O1310 C1335 1.257 . S
O1311 Eu1260 2.380 1_455 S
O1311 Eu1271 2.612 . S
O1311 C1327 1.276 . S
O1312 Eu1260 2.432 1_455 S
O1312 C1334 1.264 . S
O1313 Eu1271 2.339 . S
O1313 C1334 1.254 . S
O1314 Eu1271 2.563 . S
O1314 C1327 1.235 . S
O1315 Eu1271 2.419 . S
O1315 C1335 1.249 . S
C1316 O1305 1.276 . S
C1316 O1308 1.235 . S
C1317 C1319 1.393 . S
C1317 C1321 1.395 . S
C1317 C1324 1.492 1_554 S
C1318 C1319 1.392 . S
C1318 C1320 1.386 . S
C1319 C1317 1.393 . S
C1319 C1318 1.392 . S
C1319 H1336 0.930 . S
C1320 C1318 1.386 . S
C1320 C1322 1.395 . S
C1320 H1337 0.930 . S
C1321 C1317 1.395 . S
C1321 C1322 1.379 . S
C1321 H1338 0.930 . S
C1322 C1320 1.395 . S
C1322 C1321 1.379 . S
C1322 H1339 0.930 . S
C1323 O1306 1.264 . S
C1323 O1307 1.254 . S
C1324 Eu1260 2.848 . S
C1324 O1304 1.257 . S
C1324 O1309 1.249 . S
C1324 C1317 1.492 1_556 S
C1325 H1290 0.931 . S
C1325 C1303 1.420 . S
C1325 C1326 1.351 . S
C1326 H1288 0.930 . S
C1326 C1294 1.423 . S
C1326 C1325 1.351 . S
C1327 O1311 1.276 . S
C1327 O1314 1.235 . S
C1328 C1329 1.393 . S
C1328 C1332 1.395 . S
C1328 C1335 1.492 . S
C1329 C1328 1.393 . S
C1329 C1330 1.392 . S
C1329 H1340 0.930 . S
C1330 C1329 1.392 . S
C1330 C1331 1.386 . S
C1331 C1330 1.386 . S
C1331 C1333 1.395 . S
C1331 H1341 0.930 . S
C1332 C1328 1.395 . S
C1332 C1333 1.379 . S
C1332 H1342 0.930 . S
C1333 C1331 1.395 . S
C1333 C1332 1.379 . S
C1333 H1343 0.930 . S
C1334 O1312 1.264 . S
C1334 O1313 1.254 . S
C1335 Eu1271 2.848 . S
C1335 O1310 1.257 . S
C1335 O1315 1.249 . S
C1335 C1328 1.492 . S
H1336 C1319 0.930 . S
H1337 C1320 0.930 . S
H1338 C1321 0.930 . S
H1339 C1322 0.930 . S
H1340 C1329 0.930 . S
H1341 C1331 0.930 . S
H1342 C1332 0.930 . S
H1343 C1333 0.930 . S
C1344 C1345 1.349 . S
C1344 C1346 1.327 . S
C1344 H1369 0.950 . S
C1345 C1344 1.349 . S
C1345 C1361 1.349 . S
C1346 C1344 1.327 . S
C1346 C1365 1.429 . S
C1346 H1370 0.950 . S
C1347 C1364 1.574 . S
C1347 C1366 1.368 . S
C1347 H1371 0.949 . S
H1348 C1352 0.949 . S
C1349 C1350 1.349 . S
C1349 C1351 1.327 . S
C1349 H1372 0.950 . S
C1350 C1349 1.349 . S
C1350 C1362 1.349 . S
C1351 C1349 1.327 . S
C1351 C1367 1.429 . S
C1351 H1373 0.950 . S
C1352 H1348 0.949 . S
C1352 C1360 1.574 . S
C1352 C1368 1.368 . S
H1353 C1361 0.950 1_554 S
H1354 C1359 0.950 . S
H1355 C1360 0.949 . S
H1356 C1362 0.950 . S
H1357 C1363 0.950 . S
H1358 C1364 0.949 . S
C1359 H1354 0.950 . S
C1359 C1361 1.327 . S
C1359 C1365 1.429 . S
C1360 C1352 1.574 . S
C1360 H1355 0.949 . S
C1360 C1366 1.368 . S
C1361 C1345 1.349 . S
C1361 H1353 0.950 1_556 S
C1361 C1359 1.327 . S
C1362 C1350 1.349 . S
C1362 H1356 0.950 . S
C1362 C1363 1.327 . S
C1363 H1357 0.950 . S
C1363 C1362 1.327 . S
C1363 C1367 1.429 . S
C1364 C1347 1.574 . S
C1364 H1358 0.949 . S
C1364 C1368 1.368 . S
C1365 C1346 1.429 . S
C1365 C1359 1.429 . S
C1365 C1366 1.523 . S
C1366 C1347 1.368 . S
C1366 C1360 1.368 . S
C1366 C1365 1.523 . S
C1367 C1351 1.429 . S
C1367 C1363 1.429 . S
C1367 C1368 1.523 . S
C1368 C1352 1.368 . S
C1368 C1364 1.368 . S
C1368 C1367 1.523 . S
H1369 C1344 0.950 . S
H1370 C1346 0.950 . S
H1371 C1347 0.949 . S
H1372 C1349 0.950 . S
H1373 C1351 0.950 . S
C1374 C1375 1.349 . S
C1374 C1376 1.327 . S
C1374 H1399 0.950 . S
C1375 C1374 1.349 . S
C1375 C1391 1.349 . S
C1376 C1374 1.327 . S
C1376 C1395 1.429 . S
C1376 H1400 0.950 . S
C1377 C1394 1.574 . S
C1377 C1396 1.368 . S
C1377 H1401 0.949 . S
H1378 C1382 0.949 . S
C1379 C1380 1.349 . S
C1379 C1381 1.327 . S
C1379 H1402 0.950 . S
C1380 C1379 1.349 . S
C1380 C1392 1.349 . S
C1381 C1379 1.327 . S
C1381 C1397 1.429 . S
C1381 H1403 0.950 1_556 S
C1382 H1378 0.949 . S
C1382 C1390 1.574 . S
C1382 C1398 1.368 . S
H1383 C1391 0.950 . S
H1384 C1389 0.950 . S
H1385 C1390 0.949 . S
H1386 C1392 0.950 . S
H1387 C1393 0.950 . S
H1388 C1394 0.949 . S
C1389 H1384 0.950 . S
C1389 C1391 1.327 . S
C1389 C1395 1.429 . S
C1390 C1382 1.574 . S
C1390 H1385 0.949 . S
C1390 C1396 1.368 . S
C1391 C1375 1.349 . S
C1391 H1383 0.950 . S
C1391 C1389 1.327 . S
C1392 C1380 1.349 . S
C1392 H1386 0.950 . S
C1392 C1393 1.327 . S
C1393 H1387 0.950 . S
C1393 C1392 1.327 . S
C1393 C1397 1.429 . S
C1394 C1377 1.574 . S
C1394 H1388 0.949 . S
C1394 C1398 1.368 . S
C1395 C1376 1.429 . S
C1395 C1389 1.429 . S
C1395 C1396 1.523 . S
C1396 C1377 1.368 . S
C1396 C1390 1.368 . S
C1396 C1395 1.523 . S
C1397 C1381 1.429 . S
C1397 C1393 1.429 . S
C1397 C1398 1.523 1_556 S
C1398 C1382 1.368 . S
C1398 C1394 1.368 . S
C1398 C1397 1.523 1_554 S
H1399 C1374 0.950 . S
H1400 C1376 0.950 . S
H1401 C1377 0.949 . S
H1402 C1379 0.950 . S
H1403 C1381 0.950 1_554 S
C1404 C1405 1.349 . S
C1404 C1406 1.327 . S
C1404 H1429 0.950 . S
C1405 C1404 1.349 . S
C1405 C1421 1.349 . S
C1406 C1404 1.327 . S
C1406 C1425 1.429 . S
C1406 H1430 0.950 . S
C1407 C1424 1.574 . S
C1407 C1426 1.368 . S
C1407 H1431 0.949 . S
H1408 C1412 0.949 . S
C1409 C1410 1.349 . S
C1409 C1411 1.327 . S
C1409 H1432 0.950 . S
C1410 C1409 1.349 . S
C1410 C1422 1.349 . S
C1411 C1409 1.327 . S
C1411 C1427 1.429 . S
C1411 H1433 0.950 . S
C1412 H1408 0.949 . S
C1412 C1420 1.574 . S
C1412 C1428 1.368 . S
H1413 C1421 0.950 . S
H1414 C1419 0.950 . S
H1415 C1420 0.949 . S
H1416 C1422 0.950 . S
H1417 C1423 0.950 . S
H1418 C1424 0.949 . S
C1419 H1414 0.950 . S
C1419 C1421 1.327 . S
C1419 C1425 1.429 . S
C1420 C1412 1.574 . S
C1420 H1415 0.949 . S
C1420 C1426 1.368 . S
C1421 C1405 1.349 . S
C1421 H1413 0.950 . S
C1421 C1419 1.327 . S
C1422 C1410 1.349 . S
C1422 H1416 0.950 . S
C1422 C1423 1.327 . S
C1423 H1417 0.950 . S
C1423 C1422 1.327 . S
C1423 C1427 1.429 . S
C1424 C1407 1.574 . S
C1424 H1418 0.949 . S
C1424 C1428 1.368 . S
C1425 C1406 1.429 . S
C1425 C1419 1.429 . S
C1425 C1426 1.523 . S
C1426 C1407 1.368 . S
C1426 C1420 1.368 . S
C1426 C1425 1.523 . S
C1427 C1411 1.429 . S
C1427 C1423 1.429 . S
C1427 C1428 1.523 . S
C1428 C1412 1.368 . S
C1428 C1424 1.368 . S
C1428 C1427 1.523 . S
H1429 C1404 0.950 . S
H1430 C1406 0.950 . S
H1431 C1407 0.949 . S
H1432 C1409 0.950 . S
H1433 C1411 0.950 . S
C1434 C1435 1.349 . S
C1434 C1436 1.327 . S
C1434 H1459 0.950 . S
C1435 C1434 1.349 . S
C1435 C1451 1.349 . S
C1436 C1434 1.327 . S
C1436 C1455 1.429 . S
C1436 H1460 0.950 . S
C1437 C1454 1.574 . S
C1437 C1456 1.368 . S
C1437 H1461 0.949 . S
H1438 C1442 0.949 . S
C1439 C1440 1.349 . S
C1439 C1441 1.327 . S
C1439 H1462 0.950 . S
C1440 C1439 1.349 . S
C1440 C1452 1.349 . S
C1441 C1439 1.327 . S
C1441 C1457 1.429 . S
C1441 H1463 0.950 . S
C1442 H1438 0.949 . S
C1442 C1450 1.574 . S
C1442 C1458 1.368 . S
H1443 C1451 0.950 . S
H1444 C1449 0.950 . S
H1445 C1450 0.949 . S
H1446 C1452 0.950 . S
H1447 C1453 0.950 . S
H1448 C1454 0.949 . S
C1449 H1444 0.950 . S
C1449 C1451 1.327 . S
C1449 C1455 1.429 . S
C1450 C1442 1.574 . S
C1450 H1445 0.949 . S
C1450 C1456 1.368 . S
C1451 C1435 1.349 . S
C1451 H1443 0.950 . S
C1451 C1449 1.327 . S
C1452 C1440 1.349 . S
C1452 H1446 0.950 . S
C1452 C1453 1.327 . S
C1453 H1447 0.950 . S
C1453 C1452 1.327 . S
C1453 C1457 1.429 . S
C1454 C1437 1.574 . S
C1454 H1448 0.949 . S
C1454 C1458 1.368 . S
C1455 C1436 1.429 . S
C1455 C1449 1.429 . S
C1455 C1456 1.523 . S
C1456 C1437 1.368 . S
C1456 C1450 1.368 . S
C1456 C1455 1.523 . S
C1457 C1441 1.429 . S
C1457 C1453 1.429 . S
C1457 C1458 1.523 . S
C1458 C1442 1.368 . S
C1458 C1454 1.368 . S
C1458 C1457 1.523 . S
H1459 C1434 0.950 . S
H1460 C1436 0.950 . S
H1461 C1437 0.949 . S
H1462 C1439 0.950 . S
H1463 C1441 0.950 . S
C1464 C1465 1.349 . S
C1464 C1466 1.327 . S
C1464 H1489 0.950 . S
C1465 C1464 1.349 . S
C1465 C1481 1.349 . S
C1466 C1464 1.327 . S
C1466 C1485 1.429 . S
C1466 H1490 0.950 . S
C1467 C1484 1.574 . S
C1467 C1486 1.368 . S
C1467 H1491 0.949 . S
H1468 C1472 0.949 . S
C1469 C1470 1.349 . S
C1469 C1471 1.327 . S
C1469 H1492 0.950 . S
C1470 C1469 1.349 . S
C1470 C1482 1.349 . S
C1471 C1469 1.327 . S
C1471 C1487 1.429 . S
C1471 H1493 0.950 . S
C1472 H1468 0.949 . S
C1472 C1480 1.574 . S
C1472 C1488 1.368 . S
H1473 C1481 0.950 . S
H1474 C1479 0.950 . S
H1475 C1480 0.949 . S
H1476 C1482 0.950 . S
H1477 C1483 0.950 . S
H1478 C1484 0.949 . S
C1479 H1474 0.950 . S
C1479 C1481 1.327 . S
C1479 C1485 1.429 . S
C1480 C1472 1.574 . S
C1480 H1475 0.949 . S
C1480 C1486 1.368 . S
C1481 C1465 1.349 . S
C1481 H1473 0.950 . S
C1481 C1479 1.327 . S
C1482 C1470 1.349 . S
C1482 H1476 0.950 . S
C1482 C1483 1.327 . S
C1483 H1477 0.950 . S
C1483 C1482 1.327 . S
C1483 C1487 1.429 . S
C1484 C1467 1.574 . S
C1484 H1478 0.949 . S
C1484 C1488 1.368 . S
C1485 C1466 1.429 . S
C1485 C1479 1.429 . S
C1485 C1486 1.523 . S
C1486 C1467 1.368 . S
C1486 C1480 1.368 . S
C1486 C1485 1.523 . S
C1487 C1471 1.429 . S
C1487 C1483 1.429 . S
C1487 C1488 1.523 . S
C1488 C1472 1.368 . S
C1488 C1484 1.368 . S
C1488 C1487 1.523 . S
H1489 C1464 0.950 . S
H1490 C1466 0.950 . S
H1491 C1467 0.949 . S
H1492 C1469 0.950 . S
H1493 C1471 0.950 . S
C1494 C1495 1.349 . S
C1494 C1496 1.327 . S
C1494 H1519 0.950 . S
C1495 C1494 1.349 . S
C1495 C1511 1.349 . S
C1496 C1494 1.327 . S
C1496 C1515 1.429 . S
C1496 H1520 0.950 . S
C1497 C1514 1.574 . S
C1497 C1516 1.368 . S
C1497 H1521 0.949 . S
H1498 C1502 0.949 . S
C1499 C1500 1.349 . S
C1499 C1501 1.327 . S
C1499 H1522 0.950 . S
C1500 C1499 1.349 . S
C1500 C1512 1.349 . S
C1501 C1499 1.327 . S
C1501 C1517 1.429 1_554 S
C1501 H1523 0.950 . S
C1502 H1498 0.949 . S
C1502 C1510 1.574 . S
C1502 C1518 1.368 . S
H1503 C1511 0.950 . S
H1504 C1509 0.950 . S
H1505 C1510 0.949 . S
H1506 C1512 0.950 . S
H1507 C1513 0.950 . S
H1508 C1514 0.949 . S
C1509 H1504 0.950 . S
C1509 C1511 1.327 . S
C1509 C1515 1.429 . S
C1510 C1502 1.574 . S
C1510 H1505 0.949 . S
C1510 C1516 1.368 . S
C1511 C1495 1.349 . S
C1511 H1503 0.950 . S
C1511 C1509 1.327 . S
C1512 C1500 1.349 . S
C1512 H1506 0.950 . S
C1512 C1513 1.327 1_554 S
C1513 H1507 0.950 . S
C1513 C1512 1.327 1_556 S
C1513 C1517 1.429 . S
C1514 C1497 1.574 . S
C1514 H1508 0.949 . S
C1514 C1518 1.368 . S
C1515 C1496 1.429 . S
C1515 C1509 1.429 . S
C1515 C1516 1.523 . S
C1516 C1497 1.368 . S
C1516 C1510 1.368 . S
C1516 C1515 1.523 . S
C1517 C1501 1.429 1_556 S
C1517 C1513 1.429 . S
C1517 C1518 1.523 . S
C1518 C1502 1.368 . S
C1518 C1514 1.368 . S
C1518 C1517 1.523 . S
H1519 C1494 0.950 . S
H1520 C1496 0.950 . S
H1521 C1497 0.949 . S
H1522 C1499 0.950 . S
H1523 C1501 0.950 . S
C1524 C1525 1.349 . S
C1524 C1526 1.327 . S
C1524 H1549 0.950 . S
C1525 C1524 1.349 . S
C1525 C1541 1.349 . S
C1526 C1524 1.327 . S
C1526 C1545 1.429 . S
C1526 H1550 0.950 . S
C1527 C1544 1.574 . S
C1527 C1546 1.368 . S
C1527 H1551 0.949 . S
H1528 C1532 0.949 . S
C1529 C1530 1.349 . S
C1529 C1531 1.327 . S
C1529 H1552 0.950 . S
C1530 C1529 1.349 . S
C1530 C1542 1.349 . S
C1531 C1529 1.327 . S
C1531 C1547 1.429 . S
C1531 H1553 0.950 . S
C1532 H1528 0.949 . S
C1532 C1540 1.574 . S
C1532 C1548 1.368 . S
H1533 C1541 0.950 . S
H1534 C1539 0.950 . S
H1535 C1540 0.949 . S
H1536 C1542 0.950 . S
H1537 C1543 0.950 . S
H1538 C1544 0.949 . S
C1539 H1534 0.950 . S
C1539 C1541 1.327 . S
C1539 C1545 1.429 . S
C1540 C1532 1.574 . S
C1540 H1535 0.949 . S
C1540 C1546 1.368 . S
C1541 C1525 1.349 . S
C1541 H1533 0.950 . S
C1541 C1539 1.327 . S
C1542 C1530 1.349 . S
C1542 H1536 0.950 . S
C1542 C1543 1.327 . S
C1543 H1537 0.950 . S
C1543 C1542 1.327 . S
C1543 C1547 1.429 . S
C1544 C1527 1.574 . S
C1544 H1538 0.949 . S
C1544 C1548 1.368 . S
C1545 C1526 1.429 . S
C1545 C1539 1.429 . S
C1545 C1546 1.523 . S
C1546 C1527 1.368 . S
C1546 C1540 1.368 . S
C1546 C1545 1.523 . S
C1547 C1531 1.429 . S
C1547 C1543 1.429 . S
C1547 C1548 1.523 . S
C1548 C1532 1.368 . S
C1548 C1544 1.368 . S
C1548 C1547 1.523 . S
H1549 C1524 0.950 . S
H1550 C1526 0.950 . S
H1551 C1527 0.949 . S
H1552 C1529 0.950 . S
H1553 C1531 0.950 . S
C1554 C1555 1.349 . S
C1554 C1556 1.327 . S
C1554 H1579 0.950 . S
C1555 C1554 1.349 . S
C1555 C1571 1.349 . S
C1556 C1554 1.327 . S
C1556 C1575 1.429 . S
C1556 H1580 0.950 . S
C1557 C1574 1.574 . S
C1557 C1576 1.368 . S
C1557 H1581 0.949 . S
H1558 C1562 0.949 . S
C1559 C1560 1.349 . S
C1559 C1561 1.327 . S
C1559 H1582 0.950 . S
C1560 C1559 1.349 . S
C1560 C1572 1.349 . S
C1561 C1559 1.327 . S
C1561 C1577 1.429 . S
C1561 H1583 0.950 . S
C1562 H1558 0.949 . S
C1562 C1570 1.574 . S
C1562 C1578 1.368 . S
H1563 C1571 0.950 . S
H1564 C1569 0.950 . S
H1565 C1570 0.949 . S
H1566 C1572 0.950 . S
H1567 C1573 0.950 . S
H1568 C1574 0.949 . S
C1569 H1564 0.950 . S
C1569 C1571 1.327 . S
C1569 C1575 1.429 . S
C1570 C1562 1.574 . S
C1570 H1565 0.949 . S
C1570 C1576 1.368 . S
C1571 C1555 1.349 . S
C1571 H1563 0.950 . S
C1571 C1569 1.327 . S
C1572 C1560 1.349 . S
C1572 H1566 0.950 . S
C1572 C1573 1.327 . S
C1573 H1567 0.950 . S
C1573 C1572 1.327 . S
C1573 C1577 1.429 . S
C1574 C1557 1.574 . S
C1574 H1568 0.949 . S
C1574 C1578 1.368 . S
C1575 C1556 1.429 . S
C1575 C1569 1.429 . S
C1575 C1576 1.523 . S
C1576 C1557 1.368 . S
C1576 C1570 1.368 . S
C1576 C1575 1.523 . S
C1577 C1561 1.429 . S
C1577 C1573 1.429 . S
C1577 C1578 1.523 . S
C1578 C1562 1.368 . S
C1578 C1574 1.368 . S
C1578 C1577 1.523 . S
H1579 C1554 0.950 . S
H1580 C1556 0.950 . S
H1581 C1557 0.949 . S
H1582 C1559 0.950 . S
H1583 C1561 0.950 . S
C1584 C1585 1.349 . S
C1584 C1586 1.327 . S
C1584 H1609 0.950 . S
C1585 C1584 1.349 . S
C1585 C1601 1.349 . S
C1586 C1584 1.327 . S
C1586 C1605 1.429 . S
C1586 H1610 0.950 . S
C1587 C1604 1.574 . S
C1587 C1606 1.368 . S
C1587 H1611 0.949 . S
H1588 C1592 0.949 . S
C1589 C1590 1.349 . S
C1589 C1591 1.327 . S
C1589 H1612 0.950 . S
C1590 C1589 1.349 . S
C1590 C1602 1.349 . S
C1591 C1589 1.327 . S
C1591 C1607 1.429 . S
C1591 H1613 0.950 . S
C1592 H1588 0.949 . S
C1592 C1600 1.574 . S
C1592 C1608 1.368 . S
H1593 C1601 0.950 . S
H1594 C1599 0.950 . S
H1595 C1600 0.949 . S
H1596 C1602 0.950 . S
H1597 C1603 0.950 . S
H1598 C1604 0.949 . S
C1599 H1594 0.950 . S
C1599 C1601 1.327 . S
C1599 C1605 1.429 . S
C1600 C1592 1.574 . S
C1600 H1595 0.949 . S
C1600 C1606 1.368 . S
C1601 C1585 1.349 . S
C1601 H1593 0.950 . S
C1601 C1599 1.327 . S
C1602 C1590 1.349 . S
C1602 H1596 0.950 . S
C1602 C1603 1.327 . S
C1603 H1597 0.950 . S
C1603 C1602 1.327 . S
C1603 C1607 1.429 . S
C1604 C1587 1.574 . S
C1604 H1598 0.949 . S
C1604 C1608 1.368 . S
C1605 C1586 1.429 . S
C1605 C1599 1.429 . S
C1605 C1606 1.523 . S
C1606 C1587 1.368 . S
C1606 C1600 1.368 . S
C1606 C1605 1.523 . S
C1607 C1591 1.429 . S
C1607 C1603 1.429 . S
C1607 C1608 1.523 . S
C1608 C1592 1.368 . S
C1608 C1604 1.368 . S
C1608 C1607 1.523 . S
H1609 C1584 0.950 . S
H1610 C1586 0.950 . S
H1611 C1587 0.949 . S
H1612 C1589 0.950 . S
H1613 C1591 0.950 . S
C1614 C1615 1.349 . S
C1614 C1616 1.327 . S
C1614 H1639 0.950 . S
C1615 C1614 1.349 . S
C1615 C1631 1.349 . S
C1616 C1614 1.327 . S
C1616 C1635 1.429 . S
C1616 H1640 0.950 . S
C1617 C1634 1.574 . S
C1617 C1636 1.368 . S
C1617 H1641 0.949 . S
H1618 C1622 0.949 . S
C1619 C1620 1.349 . S
C1619 C1621 1.327 . S
C1619 H1642 0.950 . S
C1620 C1619 1.349 . S
C1620 C1632 1.349 . S
C1621 C1619 1.327 . S
C1621 C1637 1.429 . S
C1621 H1643 0.950 . S
C1622 H1618 0.949 . S
C1622 C1630 1.574 . S
C1622 C1638 1.368 . S
H1623 C1631 0.950 . S
H1624 C1629 0.950 . S
H1625 C1630 0.949 . S
H1626 C1632 0.950 . S
H1627 C1633 0.950 . S
H1628 C1634 0.949 . S
C1629 H1624 0.950 . S
C1629 C1631 1.327 . S
C1629 C1635 1.429 . S
C1630 C1622 1.574 . S
C1630 H1625 0.949 . S
C1630 C1636 1.368 . S
C1631 C1615 1.349 . S
C1631 H1623 0.950 . S
C1631 C1629 1.327 . S
C1632 C1620 1.349 . S
C1632 H1626 0.950 . S
C1632 C1633 1.327 . S
C1633 H1627 0.950 . S
C1633 C1632 1.327 . S
C1633 C1637 1.429 . S
C1634 C1617 1.574 . S
C1634 H1628 0.949 . S
C1634 C1638 1.368 . S
C1635 C1616 1.429 . S
C1635 C1629 1.429 . S
C1635 C1636 1.523 . S
C1636 C1617 1.368 . S
C1636 C1630 1.368 . S
C1636 C1635 1.523 . S
C1637 C1621 1.429 . S
C1637 C1633 1.429 . S
C1637 C1638 1.523 . S
C1638 C1622 1.368 . S
C1638 C1634 1.368 . S
C1638 C1637 1.523 . S
H1639 C1614 0.950 . S
H1640 C1616 0.950 . S
H1641 C1617 0.949 . S
H1642 C1619 0.950 . S
H1643 C1621 0.950 . S
C1644 C1645 1.349 . S
C1644 C1646 1.327 . S
C1644 H1669 0.950 . S
C1645 C1644 1.349 . S
C1645 C1661 1.349 . S
C1646 C1644 1.327 . S
C1646 C1665 1.429 . S
C1646 H1670 0.950 . S
C1647 C1664 1.574 . S
C1647 C1666 1.368 . S
C1647 H1671 0.949 . S
H1648 C1652 0.949 . S
C1649 C1650 1.349 . S
C1649 C1651 1.327 . S
C1649 H1672 0.950 . S
C1650 C1649 1.349 . S
C1650 C1662 1.349 . S
C1651 C1649 1.327 . S
C1651 C1667 1.429 . S
C1651 H1673 0.950 . S
C1652 H1648 0.949 . S
C1652 C1660 1.574 . S
C1652 C1668 1.368 . S
H1653 C1661 0.950 . S
H1654 C1659 0.950 . S
H1655 C1660 0.949 . S
H1656 C1662 0.950 . S
H1657 C1663 0.950 . S
H1658 C1664 0.949 . S
C1659 H1654 0.950 . S
C1659 C1661 1.327 . S
C1659 C1665 1.429 . S
C1660 C1652 1.574 . S
C1660 H1655 0.949 . S
C1660 C1666 1.368 . S
C1661 C1645 1.349 . S
C1661 H1653 0.950 . S
C1661 C1659 1.327 . S
C1662 C1650 1.349 . S
C1662 H1656 0.950 . S
C1662 C1663 1.327 . S
C1663 H1657 0.950 . S
C1663 C1662 1.327 . S
C1663 C1667 1.429 . S
C1664 C1647 1.574 . S
C1664 H1658 0.949 . S
C1664 C1668 1.368 . S
C1665 C1646 1.429 . S
C1665 C1659 1.429 . S
C1665 C1666 1.523 . S
C1666 C1647 1.368 . S
C1666 C1660 1.368 . S
C1666 C1665 1.523 . S
C1667 C1651 1.429 . S
C1667 C1663 1.429 . S
C1667 C1668 1.523 . S
C1668 C1652 1.368 . S
C1668 C1664 1.368 . S
C1668 C1667 1.523 . S
H1669 C1644 0.950 . S
H1670 C1646 0.950 . S
H1671 C1647 0.949 . S
H1672 C1649 0.950 . S
H1673 C1651 0.950 . S
C1674 C1675 1.349 . S
C1674 C1676 1.327 . S
C1674 H1699 0.950 . S
C1675 C1674 1.349 . S
C1675 C1691 1.349 . S
C1676 C1674 1.327 . S
C1676 C1695 1.429 . S
C1676 H1700 0.950 . S
C1677 C1694 1.574 . S
C1677 C1696 1.368 . S
C1677 H1701 0.949 . S
H1678 C1682 0.949 . S
C1679 C1680 1.349 . S
C1679 C1681 1.327 . S
C1679 H1702 0.950 . S
C1680 C1679 1.349 . S
C1680 C1692 1.349 . S
C1681 C1679 1.327 . S
C1681 C1697 1.429 . S
C1681 H1703 0.950 . S
C1682 H1678 0.949 . S
C1682 C1690 1.574 . S
C1682 C1698 1.368 . S
H1683 C1691 0.950 . S
H1684 C1689 0.950 . S
H1685 C1690 0.949 . S
H1686 C1692 0.950 . S
H1687 C1693 0.950 . S
H1688 C1694 0.949 . S
C1689 H1684 0.950 . S
C1689 C1691 1.327 . S
C1689 C1695 1.429 . S
C1690 C1682 1.574 . S
C1690 H1685 0.949 . S
C1690 C1696 1.368 . S
C1691 C1675 1.349 . S
C1691 H1683 0.950 . S
C1691 C1689 1.327 . S
C1692 C1680 1.349 . S
C1692 H1686 0.950 . S
C1692 C1693 1.327 . S
C1693 H1687 0.950 . S
C1693 C1692 1.327 . S
C1693 C1697 1.429 . S
C1694 C1677 1.574 . S
C1694 H1688 0.949 . S
C1694 C1698 1.368 . S
C1695 C1676 1.429 . S
C1695 C1689 1.429 . S
C1695 C1696 1.523 . S
C1696 C1677 1.368 . S
C1696 C1690 1.368 . S
C1696 C1695 1.523 . S
C1697 C1681 1.429 . S
C1697 C1693 1.429 . S
C1697 C1698 1.523 . S
C1698 C1682 1.368 . S
C1698 C1694 1.368 . S
C1698 C1697 1.523 . S
H1699 C1674 0.950 . S
H1700 C1676 0.950 . S
H1701 C1677 0.949 . S
H1702 C1679 0.950 . S
H1703 C1681 0.950 . S
C1704 C1705 1.349 . S
C1704 C1706 1.327 . S
C1704 H1729 0.950 . S
C1705 C1704 1.349 . S
C1705 C1721 1.349 . S
C1706 C1704 1.327 . S
C1706 C1725 1.429 . S
C1706 H1730 0.950 . S
C1707 C1724 1.574 . S
C1707 C1726 1.368 . S
C1707 H1731 0.949 . S
H1708 C1712 0.949 . S
C1709 C1710 1.349 . S
C1709 C1711 1.327 . S
C1709 H1732 0.950 . S
C1710 C1709 1.349 . S
C1710 C1722 1.349 . S
C1711 C1709 1.327 . S
C1711 C1727 1.429 . S
C1711 H1733 0.950 . S
C1712 H1708 0.949 . S
C1712 C1720 1.574 . S
C1712 C1728 1.368 . S
H1713 C1721 0.950 . S
H1714 C1719 0.950 . S
H1715 C1720 0.949 . S
H1716 C1722 0.950 . S
H1717 C1723 0.950 . S
H1718 C1724 0.949 . S
C1719 H1714 0.950 . S
C1719 C1721 1.327 . S
C1719 C1725 1.429 . S
C1720 C1712 1.574 . S
C1720 H1715 0.949 . S
C1720 C1726 1.368 . S
C1721 C1705 1.349 . S
C1721 H1713 0.950 . S
C1721 C1719 1.327 . S
C1722 C1710 1.349 . S
C1722 H1716 0.950 . S
C1722 C1723 1.327 . S
C1723 H1717 0.950 . S
C1723 C1722 1.327 . S
C1723 C1727 1.429 . S
C1724 C1707 1.574 . S
C1724 H1718 0.949 . S
C1724 C1728 1.368 . S
C1725 C1706 1.429 . S
C1725 C1719 1.429 . S
C1725 C1726 1.523 . S
C1726 C1707 1.368 . S
C1726 C1720 1.368 . S
C1726 C1725 1.523 . S
C1727 C1711 1.429 . S
C1727 C1723 1.429 . S
C1727 C1728 1.523 . S
C1728 C1712 1.368 . S
C1728 C1724 1.368 . S
C1728 C1727 1.523 . S
H1729 C1704 0.950 . S
H1730 C1706 0.950 . S
H1731 C1707 0.949 . S
H1732 C1709 0.950 . S
H1733 C1711 0.950 . S
C1734 C1735 1.349 . S
C1734 C1736 1.327 . S
C1734 H1759 0.950 . S
C1735 C1734 1.349 . S
C1735 C1751 1.349 . S
C1736 C1734 1.327 . S
C1736 C1755 1.429 . S
C1736 H1760 0.950 . S
C1737 C1754 1.574 . S
C1737 C1756 1.368 . S
C1737 H1761 0.949 . S
H1738 C1742 0.949 . S
C1739 C1740 1.349 . S
C1739 C1741 1.327 . S
C1739 H1762 0.950 . S
C1740 C1739 1.349 . S
C1740 C1752 1.349 . S
C1741 C1739 1.327 . S
C1741 C1757 1.429 . S
C1741 H1763 0.950 . S
C1742 H1738 0.949 . S
C1742 C1750 1.574 . S
C1742 C1758 1.368 . S
H1743 C1751 0.950 . S
H1744 C1749 0.950 . S
H1745 C1750 0.949 . S
H1746 C1752 0.950 . S
H1747 C1753 0.950 . S
H1748 C1754 0.949 . S
C1749 H1744 0.950 . S
C1749 C1751 1.327 . S
C1749 C1755 1.429 . S
C1750 C1742 1.574 . S
C1750 H1745 0.949 . S
C1750 C1756 1.368 . S
C1751 C1735 1.349 . S
C1751 H1743 0.950 . S
C1751 C1749 1.327 . S
C1752 C1740 1.349 . S
C1752 H1746 0.950 . S
C1752 C1753 1.327 . S
C1753 H1747 0.950 . S
C1753 C1752 1.327 . S
C1753 C1757 1.429 . S
C1754 C1737 1.574 . S
C1754 H1748 0.949 . S
C1754 C1758 1.368 . S
C1755 C1736 1.429 . S
C1755 C1749 1.429 . S
C1755 C1756 1.523 . S
C1756 C1737 1.368 . S
C1756 C1750 1.368 . S
C1756 C1755 1.523 . S
C1757 C1741 1.429 . S
C1757 C1753 1.429 . S
C1757 C1758 1.523 . S
C1758 C1742 1.368 . S
C1758 C1754 1.368 . S
C1758 C1757 1.523 . S
H1759 C1734 0.950 . S
H1760 C1736 0.950 . S
H1761 C1737 0.949 . S
H1762 C1739 0.950 . S
H1763 C1741 0.950 . S
C1764 C1765 1.349 . S
C1764 C1766 1.327 . S
C1764 H1789 0.950 . S
C1765 C1764 1.349 . S
C1765 C1781 1.349 . S
C1766 C1764 1.327 . S
C1766 C1785 1.429 . S
C1766 H1790 0.950 . S
C1767 C1784 1.574 . S
C1767 C1786 1.368 . S
C1767 H1791 0.949 . S
H1768 C1772 0.949 . S
C1769 C1770 1.349 1_554 S
C1769 C1771 1.327 . S
C1769 H1792 0.950 . S
C1770 C1769 1.349 1_556 S
C1770 C1782 1.349 1_556 S
C1771 C1769 1.327 . S
C1771 C1787 1.429 . S
C1771 H1793 0.950 . S
C1772 H1768 0.949 . S
C1772 C1780 1.574 . S
C1772 C1788 1.368 . S
H1773 C1781 0.950 . S
H1774 C1779 0.950 . S
H1775 C1780 0.949 . S
H1776 C1782 0.950 1_556 S
H1777 C1783 0.950 . S
H1778 C1784 0.949 . S
C1779 H1774 0.950 . S
C1779 C1781 1.327 . S
C1779 C1785 1.429 . S
C1780 C1772 1.574 . S
C1780 H1775 0.949 . S
C1780 C1786 1.368 . S
C1781 C1765 1.349 . S
C1781 H1773 0.950 . S
C1781 C1779 1.327 . S
C1782 C1770 1.349 1_554 S
C1782 H1776 0.950 1_554 S
C1782 C1783 1.327 . S
C1783 H1777 0.950 . S
C1783 C1782 1.327 . S
C1783 C1787 1.429 . S
C1784 C1767 1.574 . S
C1784 H1778 0.949 . S
C1784 C1788 1.368 . S
C1785 C1766 1.429 . S
C1785 C1779 1.429 . S
C1785 C1786 1.523 . S
C1786 C1767 1.368 . S
C1786 C1780 1.368 . S
C1786 C1785 1.523 . S
C1787 C1771 1.429 . S
C1787 C1783 1.429 . S
C1787 C1788 1.523 . S
C1788 C1772 1.368 . S
C1788 C1784 1.368 . S
C1788 C1787 1.523 . S
H1789 C1764 0.950 . S
H1790 C1766 0.950 . S
H1791 C1767 0.949 . S
H1792 C1769 0.950 . S
H1793 C1771 0.950 . S
C1794 C1795 1.349 . S
C1794 C1796 1.327 . S
C1794 H1819 0.950 . S
C1795 C1794 1.349 . S
C1795 C1811 1.349 . S
C1796 C1794 1.327 . S
C1796 C1815 1.429 . S
C1796 H1820 0.950 . S
C1797 C1814 1.574 . S
C1797 C1816 1.368 . S
C1797 H1821 0.949 . S
H1798 C1802 0.949 . S
C1799 C1800 1.349 . S
C1799 C1801 1.327 . S
C1799 H1822 0.950 1_556 S
C1800 C1799 1.349 . S
C1800 C1812 1.349 . S
C1801 C1799 1.327 . S
C1801 C1817 1.429 . S
C1801 H1823 0.950 . S
C1802 H1798 0.949 . S
C1802 C1810 1.574 . S
C1802 C1818 1.368 . S
H1803 C1811 0.950 . S
H1804 C1809 0.950 . S
H1805 C1810 0.949 . S
H1806 C1812 0.950 . S
H1807 C1813 0.950 . S
H1808 C1814 0.949 . S
C1809 H1804 0.950 . S
C1809 C1811 1.327 . S
C1809 C1815 1.429 . S
C1810 C1802 1.574 . S
C1810 H1805 0.949 . S
C1810 C1816 1.368 . S
C1811 C1795 1.349 . S
C1811 H1803 0.950 . S
C1811 C1809 1.327 . S
C1812 C1800 1.349 . S
C1812 H1806 0.950 . S
C1812 C1813 1.327 . S
C1813 H1807 0.950 . S
C1813 C1812 1.327 . S
C1813 C1817 1.429 . S
C1814 C1797 1.574 . S
C1814 H1808 0.949 . S
C1814 C1818 1.368 . S
C1815 C1796 1.429 . S
C1815 C1809 1.429 . S
C1815 C1816 1.523 . S
C1816 C1797 1.368 . S
C1816 C1810 1.368 . S
C1816 C1815 1.523 . S
C1817 C1801 1.429 . S
C1817 C1813 1.429 . S
C1817 C1818 1.523 . S
C1818 C1802 1.368 . S
C1818 C1814 1.368 . S
C1818 C1817 1.523 . S
H1819 C1794 0.950 . S
H1820 C1796 0.950 . S
H1821 C1797 0.949 . S
H1822 C1799 0.950 1_554 S
H1823 C1801 0.950 . S
C1824 C1825 1.349 . S
C1824 C1826 1.327 . S
C1824 H1849 0.950 . S
C1825 C1824 1.349 . S
C1825 C1841 1.349 . S
C1826 C1824 1.327 . S
C1826 C1845 1.429 . S
C1826 H1850 0.950 . S
C1827 C1844 1.574 . S
C1827 C1846 1.368 . S
C1827 H1851 0.949 . S
H1828 C1832 0.949 . S
C1829 C1830 1.349 . S
C1829 C1831 1.327 . S
C1829 H1852 0.950 . S
C1830 C1829 1.349 . S
C1830 C1842 1.371 . S
C1831 C1829 1.327 . S
C1831 C1847 1.429 . S
C1831 H1853 0.950 . S
C1832 H1828 0.949 . S
C1832 C1840 1.574 . S
C1832 C1848 1.368 . S
H1833 C1841 0.950 . S
H1834 C1839 0.950 . S
H1835 C1840 0.949 . S
H1836 C1842 0.926 1_655 S
H1837 C1843 0.961 . S
H1838 C1844 0.949 . S
C1839 H1834 0.950 . S
C1839 C1841 1.327 . S
C1839 C1845 1.429 . S
C1840 C1832 1.574 . S
C1840 H1835 0.949 . S
C1840 C1846 1.368 . S
C1841 C1825 1.349 . S
C1841 H1833 0.950 . S
C1841 C1839 1.327 . S
C1842 C1830 1.371 . S
C1842 H1836 0.926 1_455 S
C1842 C1843 1.330 . S
C1843 H1837 0.961 . S
C1843 C1842 1.330 . S
C1843 C1847 1.429 . S
C1844 C1827 1.574 . S
C1844 H1838 0.949 . S
C1844 C1848 1.368 . S
C1845 C1826 1.429 . S
C1845 C1839 1.429 . S
C1845 C1846 1.523 . S
C1846 C1827 1.368 . S
C1846 C1840 1.368 . S
C1846 C1845 1.523 . S
C1847 C1831 1.429 . S
C1847 C1843 1.429 . S
C1847 C1848 1.523 . S
C1848 C1832 1.368 . S
C1848 C1844 1.368 . S
C1848 C1847 1.523 . S
H1849 C1824 0.950 . S
H1850 C1826 0.950 . S
H1851 C1827 0.949 . S
H1852 C1829 0.950 . S
H1853 C1831 0.950 . S
C1854 C1855 1.349 . S
C1854 C1856 1.327 . S
C1854 H1879 0.950 . S
C1855 C1854 1.349 . S
C1855 C1871 1.349 . S
C1856 C1854 1.327 . S
C1856 C1875 1.429 . S
C1856 H1880 0.950 . S
C1857 C1874 1.574 . S
C1857 C1876 1.368 . S
C1857 H1881 0.949 . S
H1858 C1862 0.949 . S
C1859 C1860 1.349 . S
C1859 C1861 1.327 . S
C1859 H1882 0.950 . S
C1860 C1859 1.349 . S
C1860 C1872 1.349 . S
C1861 C1859 1.327 . S
C1861 C1877 1.429 . S
C1861 H1883 0.950 . S
C1862 H1858 0.949 . S
C1862 C1870 1.574 . S
C1862 C1878 1.368 . S
H1863 C1871 0.950 . S
H1864 C1869 0.950 . S
H1865 C1870 0.949 . S
H1866 C1872 0.950 . S
H1867 C1873 0.950 . S
H1868 C1874 0.949 . S
C1869 H1864 0.950 . S
C1869 C1871 1.327 . S
C1869 C1875 1.429 . S
C1870 C1862 1.574 . S
C1870 H1865 0.949 . S
C1870 C1876 1.368 . S
C1871 C1855 1.349 . S
C1871 H1863 0.950 . S
C1871 C1869 1.327 . S
C1872 C1860 1.349 . S
C1872 H1866 0.950 . S
C1872 C1873 1.327 . S
C1873 H1867 0.950 . S
C1873 C1872 1.327 . S
C1873 C1877 1.429 . S
C1874 C1857 1.574 . S
C1874 H1868 0.949 . S
C1874 C1878 1.368 . S
C1875 C1856 1.429 . S
C1875 C1869 1.429 . S
C1875 C1876 1.523 1_655 S
C1876 C1857 1.368 . S
C1876 C1870 1.368 . S
C1876 C1875 1.523 1_455 S
C1877 C1861 1.429 . S
C1877 C1873 1.429 . S
C1877 C1878 1.523 . S
C1878 C1862 1.368 . S
C1878 C1874 1.368 . S
C1878 C1877 1.523 . S
H1879 C1854 0.950 . S
H1880 C1856 0.950 . S
H1881 C1857 0.949 . S
H1882 C1859 0.950 . S
H1883 C1861 0.950 . S
C1884 C1885 1.349 . S
C1884 C1886 1.327 . S
C1884 H1909 0.950 . S
C1885 C1884 1.349 . S
C1885 C1901 1.349 . S
C1886 C1884 1.327 . S
C1886 C1905 1.429 . S
C1886 H1910 0.950 . S
C1887 C1904 1.574 . S
C1887 C1906 1.368 . S
C1887 H1911 0.949 . S
H1888 C1892 0.949 . S
C1889 C1890 1.349 . S
C1889 C1891 1.327 . S
C1889 H1912 0.950 . S
C1890 C1889 1.349 . S
C1890 C1902 1.349 . S
C1891 C1889 1.327 . S
C1891 C1907 1.429 . S
C1891 H1913 0.950 . S
C1892 H1888 0.949 . S
C1892 C1900 1.574 . S
C1892 C1908 1.368 . S
H1893 C1901 0.950 . S
H1894 C1899 0.950 . S
H1895 C1900 0.949 . S
H1896 C1902 0.950 . S
H1897 C1903 0.950 . S
H1898 C1904 0.949 . S
C1899 H1894 0.950 . S
C1899 C1901 1.327 . S
C1899 C1905 1.429 . S
C1900 C1892 1.574 . S
C1900 H1895 0.949 . S
C1900 C1906 1.368 . S
C1901 C1885 1.349 . S
C1901 H1893 0.950 . S
C1901 C1899 1.327 . S
C1902 C1890 1.349 . S
C1902 H1896 0.950 . S
C1902 C1903 1.327 . S
C1903 H1897 0.950 . S
C1903 C1902 1.327 . S
C1903 C1907 1.429 . S
C1904 C1887 1.574 . S
C1904 H1898 0.949 . S
C1904 C1908 1.368 . S
C1905 C1886 1.429 . S
C1905 C1899 1.429 . S
C1905 C1906 1.523 . S
C1906 C1887 1.368 . S
C1906 C1900 1.368 . S
C1906 C1905 1.523 . S
C1907 C1891 1.429 . S
C1907 C1903 1.429 . S
C1907 C1908 1.523 . S
C1908 C1892 1.368 . S
C1908 C1904 1.368 . S
C1908 C1907 1.523 . S
H1909 C1884 0.950 . S
H1910 C1886 0.950 . S
H1911 C1887 0.949 . S
H1912 C1889 0.950 . S
H1913 C1891 0.950 . S
C1914 C1915 1.349 . S
C1914 C1916 1.327 . S
C1914 H1939 0.950 . S
C1915 C1914 1.349 . S
C1915 C1931 1.349 . S
C1916 C1914 1.327 . S
C1916 C1935 1.429 . S
C1916 H1940 0.950 . S
C1917 C1934 1.574 . S
C1917 C1936 1.368 . S
C1917 H1941 0.949 . S
H1918 C1922 0.949 . S
C1919 C1920 1.349 . S
C1919 C1921 1.327 . S
C1919 H1942 0.950 . S
C1920 C1919 1.349 . S
C1920 C1932 1.349 . S
C1921 C1919 1.327 . S
C1921 C1937 1.429 . S
C1921 H1943 0.950 . S
C1922 H1918 0.949 . S
C1922 C1930 1.574 . S
C1922 C1938 1.368 . S
H1923 C1931 0.950 . S
H1924 C1929 0.950 . S
H1925 C1930 0.949 . S
H1926 C1932 0.950 . S
H1927 C1933 0.950 . S
H1928 C1934 0.949 . S
C1929 H1924 0.950 . S
C1929 C1931 1.327 . S
C1929 C1935 1.429 . S
C1930 C1922 1.574 . S
C1930 H1925 0.949 . S
C1930 C1936 1.368 . S
C1931 C1915 1.349 . S
C1931 H1923 0.950 . S
C1931 C1929 1.327 . S
C1932 C1920 1.349 . S
C1932 H1926 0.950 . S
C1932 C1933 1.327 . S
C1933 H1927 0.950 . S
C1933 C1932 1.327 . S
C1933 C1937 1.429 . S
C1934 C1917 1.574 . S
C1934 H1928 0.949 . S
C1934 C1938 1.368 . S
C1935 C1916 1.429 . S
C1935 C1929 1.429 . S
C1935 C1936 1.523 . S
C1936 C1917 1.368 . S
C1936 C1930 1.368 . S
C1936 C1935 1.523 . S
C1937 C1921 1.429 . S
C1937 C1933 1.429 . S
C1937 C1938 1.523 . S
C1938 C1922 1.368 . S
C1938 C1934 1.368 . S
C1938 C1937 1.523 . S
H1939 C1914 0.950 . S
H1940 C1916 0.950 . S
H1941 C1917 0.949 . S
H1942 C1919 0.950 . S
H1943 C1921 0.950 . S
C1944 C1945 1.349 . S
C1944 C1946 1.327 . S
C1944 H1969 0.950 . S
C1945 C1944 1.349 . S
C1945 C1961 1.349 . S
C1946 C1944 1.327 . S
C1946 C1965 1.429 . S
C1946 H1970 0.950 . S
C1947 C1964 1.574 . S
C1947 C1966 1.368 . S
C1947 H1971 0.949 . S
H1948 C1952 0.949 . S
C1949 C1950 1.349 . S
C1949 C1951 1.327 . S
C1949 H1972 0.950 . S
C1950 C1949 1.349 . S
C1950 C1962 1.349 . S
C1951 C1949 1.327 . S
C1951 C1967 1.429 . S
C1951 H1973 0.950 . S
C1952 H1948 0.949 . S
C1952 C1960 1.574 . S
C1952 C1968 1.368 . S
H1953 C1961 0.950 . S
H1954 C1959 0.950 . S
H1955 C1960 0.949 . S
H1956 C1962 0.950 . S
H1957 C1963 0.950 . S
H1958 C1964 0.949 . S
C1959 H1954 0.950 . S
C1959 C1961 1.327 . S
C1959 C1965 1.429 . S
C1960 C1952 1.574 . S
C1960 H1955 0.949 . S
C1960 C1966 1.368 . S
C1961 C1945 1.349 . S
C1961 H1953 0.950 . S
C1961 C1959 1.327 . S
C1962 C1950 1.349 . S
C1962 H1956 0.950 . S
C1962 C1963 1.327 . S
C1963 H1957 0.950 . S
C1963 C1962 1.327 . S
C1963 C1967 1.429 . S
C1964 C1947 1.574 . S
C1964 H1958 0.949 . S
C1964 C1968 1.368 . S
C1965 C1946 1.429 . S
C1965 C1959 1.429 . S
C1965 C1966 1.523 . S
C1966 C1947 1.368 . S
C1966 C1960 1.368 . S
C1966 C1965 1.523 . S
C1967 C1951 1.429 . S
C1967 C1963 1.429 . S
C1967 C1968 1.523 . S
C1968 C1952 1.368 . S
C1968 C1964 1.368 . S
C1968 C1967 1.523 . S
H1969 C1944 0.950 . S
H1970 C1946 0.950 . S
H1971 C1947 0.949 . S
H1972 C1949 0.950 . S
H1973 C1951 0.950 . S
C1974 C1975 1.349 . S
C1974 C1976 1.327 . S
C1974 H1999 0.950 . S
C1975 C1974 1.349 . S
C1975 C1991 1.349 . S
C1976 C1974 1.327 . S
C1976 C1995 1.429 . S
C1976 H2000 0.950 . S
C1977 C1994 1.574 . S
C1977 C1996 1.368 . S
C1977 H2001 0.949 . S
H1978 C1982 0.949 . S
C1979 C1980 1.349 . S
C1979 C1981 1.327 . S
C1979 H2002 0.950 . S
C1980 C1979 1.349 . S
C1980 C1992 1.349 . S
C1981 C1979 1.327 . S
C1981 C1997 1.429 . S
C1981 H2003 0.950 . S
C1982 H1978 0.949 . S
C1982 C1990 1.574 . S
C1982 C1998 1.368 . S
H1983 C1991 0.950 . S
H1984 C1989 0.950 . S
H1985 C1990 0.949 . S
H1986 C1992 0.950 . S
H1987 C1993 0.950 . S
H1988 C1994 0.949 . S
C1989 H1984 0.950 . S
C1989 C1991 1.327 . S
C1989 C1995 1.429 . S
C1990 C1982 1.574 . S
C1990 H1985 0.949 . S
C1990 C1996 1.368 . S
C1991 C1975 1.349 . S
C1991 H1983 0.950 . S
C1991 C1989 1.327 . S
C1992 C1980 1.349 . S
C1992 H1986 0.950 . S
C1992 C1993 1.327 . S
C1993 H1987 0.950 . S
C1993 C1992 1.327 . S
C1993 C1997 1.429 . S
C1994 C1977 1.574 . S
C1994 H1988 0.949 . S
C1994 C1998 1.368 . S
C1995 C1976 1.429 . S
C1995 C1989 1.429 . S
C1995 C1996 1.523 . S
C1996 C1977 1.368 . S
C1996 C1990 1.368 . S
C1996 C1995 1.523 . S
C1997 C1981 1.429 . S
C1997 C1993 1.429 . S
C1997 C1998 1.523 . S
C1998 C1982 1.368 . S
C1998 C1994 1.368 . S
C1998 C1997 1.523 . S
H1999 C1974 0.950 . S
H2000 C1976 0.950 . S
H2001 C1977 0.949 . S
H2002 C1979 0.950 . S
H2003 C1981 0.950 . S
C2004 C2005 1.349 . S
C2004 C2006 1.327 . S
C2004 H2029 0.950 . S
C2005 C2004 1.349 . S
C2005 C2021 1.349 . S
C2006 C2004 1.327 . S
C2006 C2025 1.429 . S
C2006 H2030 0.950 . S
C2007 C2024 1.574 . S
C2007 C2026 1.368 . S
C2007 H2031 0.949 . S
H2008 C2012 0.949 . S
C2009 C2010 1.349 . S
C2009 C2011 1.327 . S
C2009 H2032 0.950 . S
C2010 C2009 1.349 . S
C2010 C2022 1.349 . S
C2011 C2009 1.327 . S
C2011 C2027 1.429 . S
C2011 H2033 0.950 . S
C2012 H2008 0.949 . S
C2012 C2020 1.574 . S
C2012 C2028 1.368 . S
H2013 C2021 0.950 . S
H2014 C2019 0.950 . S
H2015 C2020 0.949 . S
H2016 C2022 0.950 . S
H2017 C2023 0.950 . S
H2018 C2024 0.949 . S
C2019 H2014 0.950 . S
C2019 C2021 1.327 . S
C2019 C2025 1.429 . S
C2020 C2012 1.574 . S
C2020 H2015 0.949 . S
C2020 C2026 1.368 . S
C2021 C2005 1.349 . S
C2021 H2013 0.950 . S
C2021 C2019 1.327 . S
C2022 C2010 1.349 . S
C2022 H2016 0.950 . S
C2022 C2023 1.327 . S
C2023 H2017 0.950 . S
C2023 C2022 1.327 . S
C2023 C2027 1.429 . S
C2024 C2007 1.574 . S
C2024 H2018 0.949 . S
C2024 C2028 1.368 . S
C2025 C2006 1.429 . S
C2025 C2019 1.429 . S
C2025 C2026 1.523 . S
C2026 C2007 1.368 . S
C2026 C2020 1.368 . S
C2026 C2025 1.523 . S
C2027 C2011 1.429 . S
C2027 C2023 1.429 . S
C2027 C2028 1.523 . S
C2028 C2012 1.368 . S
C2028 C2024 1.368 . S
C2028 C2027 1.523 . S
H2029 C2004 0.950 . S
H2030 C2006 0.950 . S
H2031 C2007 0.949 . S
H2032 C2009 0.950 . S
H2033 C2011 0.950 . S
C2034 C2035 1.349 . S
C2034 C2036 1.327 . S
C2034 H2059 0.950 . S
C2035 C2034 1.349 . S
C2035 C2051 1.349 . S
C2036 C2034 1.327 . S
C2036 C2055 1.429 . S
C2036 H2060 0.950 . S
C2037 C2054 1.574 . S
C2037 C2056 1.368 . S
C2037 H2061 0.949 . S
H2038 C2042 0.949 . S
C2039 C2040 1.349 . S
C2039 C2041 1.327 . S
C2039 H2062 0.950 . S
C2040 C2039 1.349 . S
C2040 C2052 1.349 . S
C2041 C2039 1.327 . S
C2041 C2057 1.429 . S
C2041 H2063 0.950 . S
C2042 H2038 0.949 . S
C2042 C2050 1.574 . S
C2042 C2058 1.368 . S
H2043 C2051 0.950 . S
H2044 C2049 0.950 . S
H2045 C2050 0.949 . S
H2046 C2052 0.950 . S
H2047 C2053 0.950 . S
H2048 C2054 0.955 . S
C2049 H2044 0.950 . S
C2049 C2051 1.327 . S
C2049 C2055 1.429 . S
C2050 C2042 1.574 . S
C2050 H2045 0.949 . S
C2050 C2056 1.368 . S
C2051 C2035 1.349 . S
C2051 H2043 0.950 . S
C2051 C2049 1.327 . S
C2052 C2040 1.349 . S
C2052 H2046 0.950 . S
C2052 C2053 1.327 . S
C2053 H2047 0.950 . S
C2053 C2052 1.327 . S
C2053 C2057 1.429 . S
C2054 C2037 1.574 . S
C2054 H2048 0.955 . S
C2054 C2058 1.368 . S
C2055 C2036 1.429 . S
C2055 C2049 1.429 . S
C2055 C2056 1.523 . S
C2056 C2037 1.368 . S
C2056 C2050 1.368 . S
C2056 C2055 1.523 . S
C2057 C2041 1.429 . S
C2057 C2053 1.429 . S
C2057 C2058 1.523 1_655 S
C2058 C2042 1.368 . S
C2058 C2054 1.368 . S
C2058 C2057 1.523 1_455 S
H2059 C2034 0.950 . S
H2060 C2036 0.950 . S
H2061 C2037 0.949 . S
H2062 C2039 0.950 . S
H2063 C2041 0.950 . S
C2064 C2065 1.349 1_655 S
C2064 C2066 1.327 1_655 S
C2064 H2089 0.950 . S
C2065 C2064 1.349 1_455 S
C2065 C2081 1.349 . S
C2066 C2064 1.327 1_455 S
C2066 C2085 1.429 . S
C2066 H2090 0.950 1_455 S
C2067 C2084 1.574 . S
C2067 C2086 1.368 1_556 S
C2067 H2091 0.946 . S
H2068 C2072 0.944 . S
C2069 C2070 1.349 . S
C2069 C2071 1.327 . S
C2069 H2092 0.950 . S
C2070 C2069 1.349 . S
C2070 C2082 1.349 . S
C2071 C2069 1.327 . S
C2071 C2087 1.429 . S
C2071 H2093 0.950 . S
C2072 H2068 0.944 . S
C2072 C2080 1.551 1_556 S
C2072 C2088 1.397 . S
H2073 C2081 0.950 . S
H2074 C2079 0.950 . S
H2075 C2080 0.964 . S
H2076 C2082 0.950 . S
H2077 C2083 0.950 . S
H2078 C2084 0.949 . S
C2079 H2074 0.950 . S
C2079 C2081 1.327 . S
C2079 C2085 1.429 . S
C2080 C2072 1.551 1_554 S
C2080 H2075 0.964 . S
C2080 C2086 1.368 1_565 S
C2081 C2065 1.349 . S
C2081 H2073 0.950 . S
C2081 C2079 1.327 . S
C2082 C2070 1.349 . S
C2082 H2076 0.950 . S
C2082 C2083 1.327 . S
C2083 H2077 0.950 . S
C2083 C2082 1.327 . S
C2083 C2087 1.429 . S
C2084 C2067 1.574 . S
C2084 H2078 0.949 . S
C2084 C2088 1.368 1_545 S
C2085 C2066 1.429 . S
C2085 C2079 1.429 . S
C2085 C2086 1.523 . S
C2086 C2067 1.368 1_554 S
C2086 C2080 1.368 1_545 S
C2086 C2085 1.523 . S
C2087 C2071 1.429 . S
C2087 C2083 1.429 . S
C2087 C2088 1.523 . S
C2088 C2072 1.397 . S
C2088 C2084 1.368 1_565 S
C2088 C2087 1.523 . S
H2089 C2064 0.950 . S
H2090 C2066 0.950 1_655 S
H2091 C2067 0.946 . S
H2092 C2069 0.950 . S
H2093 C2071 0.950 . S
C2094 C2095 1.349 . S
C2094 C2096 1.327 . S
C2094 H2119 0.950 . S
C2095 C2094 1.349 . S
C2095 C2111 1.349 . S
C2096 C2094 1.327 . S
C2096 C2115 1.429 . S
C2096 H2120 0.950 . S
C2097 C2114 1.574 . S
C2097 C2116 1.368 . S
C2097 H2121 0.949 . S
H2098 C2102 0.949 . S
C2099 C2100 1.349 . S
C2099 C2101 1.327 . S
C2099 H2122 0.950 . S
C2100 C2099 1.349 . S
C2100 C2112 1.349 . S
C2101 C2099 1.327 . S
C2101 C2117 1.429 . S
C2101 H2123 0.950 . S
C2102 H2098 0.949 . S
C2102 C2110 1.574 . S
C2102 C2118 1.368 . S
H2103 C2111 0.950 . S
H2104 C2109 0.950 . S
H2105 C2110 0.949 . S
H2106 C2112 0.950 . S
H2107 C2113 0.950 . S
H2108 C2114 0.949 . S
C2109 H2104 0.950 . S
C2109 C2111 1.327 . S
C2109 C2115 1.429 . S
C2110 C2102 1.574 . S
C2110 H2105 0.949 . S
C2110 C2116 1.368 . S
C2111 C2095 1.349 . S
C2111 H2103 0.950 . S
C2111 C2109 1.327 . S
C2112 C2100 1.349 . S
C2112 H2106 0.950 . S
C2112 C2113 1.327 . S
C2113 H2107 0.950 . S
C2113 C2112 1.327 . S
C2113 C2117 1.429 . S
C2114 C2097 1.574 . S
C2114 H2108 0.949 . S
C2114 C2118 1.368 . S
C2115 C2096 1.429 . S
C2115 C2109 1.429 . S
C2115 C2116 1.523 . S
C2116 C2097 1.368 . S
C2116 C2110 1.368 . S
C2116 C2115 1.523 . S
C2117 C2101 1.429 . S
C2117 C2113 1.429 . S
C2117 C2118 1.523 . S
C2118 C2102 1.368 . S
C2118 C2114 1.368 . S
C2118 C2117 1.523 . S
H2119 C2094 0.950 . S
H2120 C2096 0.950 . S
H2121 C2097 0.949 . S
H2122 C2099 0.950 . S
H2123 C2101 0.950 . S
C2124 C2125 1.349 . S
C2124 C2126 1.327 . S
C2124 H2149 0.950 . S
C2125 C2124 1.349 . S
C2125 C2141 1.349 . S
C2126 C2124 1.327 . S
C2126 C2145 1.429 . S
C2126 H2150 0.950 . S
C2127 C2144 1.574 . S
C2127 C2146 1.368 . S
C2127 H2151 0.949 . S
H2128 C2132 0.949 . S
C2129 C2130 1.349 . S
C2129 C2131 1.327 . S
C2129 H2152 0.950 . S
C2130 C2129 1.349 . S
C2130 C2142 1.349 . S
C2131 C2129 1.327 . S
C2131 C2147 1.429 . S
C2131 H2153 0.950 . S
C2132 H2128 0.949 . S
C2132 C2140 1.574 . S
C2132 C2148 1.368 . S
H2133 C2141 0.950 . S
H2134 C2139 0.950 . S
H2135 C2140 0.949 . S
H2136 C2142 0.950 . S
H2137 C2143 0.950 . S
H2138 C2144 0.949 . S
C2139 H2134 0.950 . S
C2139 C2141 1.327 . S
C2139 C2145 1.429 . S
C2140 C2132 1.574 . S
C2140 H2135 0.949 . S
C2140 C2146 1.368 1_565 S
C2141 C2125 1.349 . S
C2141 H2133 0.950 . S
C2141 C2139 1.327 . S
C2142 C2130 1.349 . S
C2142 H2136 0.950 . S
C2142 C2143 1.327 . S
C2143 H2137 0.950 . S
C2143 C2142 1.327 . S
C2143 C2147 1.429 . S
C2144 C2127 1.574 . S
C2144 H2138 0.949 . S
C2144 C2148 1.368 1_545 S
C2145 C2126 1.429 . S
C2145 C2139 1.429 . S
C2145 C2146 1.523 . S
C2146 C2127 1.368 . S
C2146 C2140 1.368 1_545 S
C2146 C2145 1.523 . S
C2147 C2131 1.429 . S
C2147 C2143 1.429 . S
C2147 C2148 1.523 . S
C2148 C2132 1.368 . S
C2148 C2144 1.368 1_565 S
C2148 C2147 1.523 . S
H2149 C2124 0.950 . S
H2150 C2126 0.950 . S
H2151 C2127 0.949 . S
H2152 C2129 0.950 . S
H2153 C2131 0.950 . S
C2154 C2155 1.349 . S
C2154 C2156 1.327 . S
C2154 H2179 0.950 . S
C2155 C2154 1.349 . S
C2155 C2171 1.349 . S
C2156 C2154 1.327 . S
C2156 C2175 1.429 . S
C2156 H2180 0.950 . S
C2157 C2174 1.574 . S
C2157 C2176 1.368 . S
C2157 H2181 0.949 . S
H2158 C2162 0.949 . S
C2159 C2160 1.349 . S
C2159 C2161 1.327 . S
C2159 H2182 0.950 . S
C2160 C2159 1.349 . S
C2160 C2172 1.349 . S
C2161 C2159 1.327 . S
C2161 C2177 1.429 . S
C2161 H2183 0.950 . S
C2162 H2158 0.949 . S
C2162 C2170 1.574 . S
C2162 C2178 1.368 . S
H2163 C2171 0.950 . S
H2164 C2169 0.950 . S
H2165 C2170 0.949 . S
H2166 C2172 0.950 . S
H2167 C2173 0.950 . S
H2168 C2174 0.949 . S
C2169 H2164 0.950 . S
C2169 C2171 1.327 . S
C2169 C2175 1.429 . S
C2170 C2162 1.574 . S
C2170 H2165 0.949 . S
C2170 C2176 1.368 . S
C2171 C2155 1.349 . S
C2171 H2163 0.950 . S
C2171 C2169 1.327 . S
C2172 C2160 1.349 . S
C2172 H2166 0.950 . S
C2172 C2173 1.327 . S
C2173 H2167 0.950 . S
C2173 C2172 1.327 . S
C2173 C2177 1.429 . S
C2174 C2157 1.574 . S
C2174 H2168 0.949 . S
C2174 C2178 1.368 . S
C2175 C2156 1.429 . S
C2175 C2169 1.429 . S
C2175 C2176 1.523 . S
C2176 C2157 1.368 . S
C2176 C2170 1.368 . S
C2176 C2175 1.523 . S
C2177 C2161 1.429 . S
C2177 C2173 1.429 . S
C2177 C2178 1.523 . S
C2178 C2162 1.368 . S
C2178 C2174 1.368 . S
C2178 C2177 1.523 . S
H2179 C2154 0.950 . S
H2180 C2156 0.950 . S
H2181 C2157 0.949 . S
H2182 C2159 0.950 . S
H2183 C2161 0.950 . S
C2184 C2185 1.349 . S
C2184 C2186 1.327 . S
C2184 H2209 0.950 . S
C2185 C2184 1.349 . S
C2185 C2201 1.349 . S
C2186 C2184 1.327 . S
C2186 C2205 1.429 . S
C2186 H2210 0.950 . S
C2187 C2204 1.574 . S
C2187 C2206 1.368 . S
C2187 H2211 0.949 . S
H2188 C2192 0.949 . S
C2189 C2190 1.349 . S
C2189 C2191 1.327 . S
C2189 H2212 0.950 . S
C2190 C2189 1.349 . S
C2190 C2202 1.349 . S
C2191 C2189 1.327 . S
C2191 C2207 1.429 . S
C2191 H2213 0.950 . S
C2192 H2188 0.949 . S
C2192 C2200 1.574 . S
C2192 C2208 1.368 . S
H2193 C2201 0.950 . S
H2194 C2199 0.950 . S
H2195 C2200 0.949 . S
H2196 C2202 0.950 . S
H2197 C2203 0.950 . S
H2198 C2204 0.949 . S
C2199 H2194 0.950 . S
C2199 C2201 1.327 . S
C2199 C2205 1.429 . S
C2200 C2192 1.574 . S
C2200 H2195 0.949 . S
C2200 C2206 1.368 . S
C2201 C2185 1.349 . S
C2201 H2193 0.950 . S
C2201 C2199 1.327 . S
C2202 C2190 1.349 . S
C2202 H2196 0.950 . S
C2202 C2203 1.327 . S
C2203 H2197 0.950 . S
C2203 C2202 1.327 . S
C2203 C2207 1.429 . S
C2204 C2187 1.574 . S
C2204 H2198 0.949 . S
C2204 C2208 1.368 . S
C2205 C2186 1.429 . S
C2205 C2199 1.429 . S
C2205 C2206 1.523 . S
C2206 C2187 1.368 . S
C2206 C2200 1.368 . S
C2206 C2205 1.523 . S
C2207 C2191 1.429 . S
C2207 C2203 1.429 . S
C2207 C2208 1.523 . S
C2208 C2192 1.368 . S
C2208 C2204 1.368 . S
C2208 C2207 1.523 . S
H2209 C2184 0.950 . S
H2210 C2186 0.950 . S
H2211 C2187 0.949 . S
H2212 C2189 0.950 . S
H2213 C2191 0.950 . S
C2214 C2215 1.349 . S
C2214 C2216 1.327 . S
C2214 H2239 0.950 . S
C2215 C2214 1.349 . S
C2215 C2231 1.349 . S
C2216 C2214 1.327 . S
C2216 C2235 1.429 . S
C2216 H2240 0.950 . S
C2217 C2234 1.574 . S
C2217 C2236 1.368 . S
C2217 H2241 0.949 . S
H2218 C2222 0.949 . S
C2219 C2220 1.349 . S
C2219 C2221 1.327 . S
C2219 H2242 0.950 . S
C2220 C2219 1.349 . S
C2220 C2232 1.349 . S
C2221 C2219 1.327 . S
C2221 C2237 1.429 . S
C2221 H2243 0.950 . S
C2222 H2218 0.949 . S
C2222 C2230 1.574 . S
C2222 C2238 1.368 . S
H2223 C2231 0.950 . S
H2224 C2229 0.950 . S
H2225 C2230 0.949 . S
H2226 C2232 0.950 . S
H2227 C2233 0.950 . S
H2228 C2234 0.949 . S
C2229 H2224 0.950 . S
C2229 C2231 1.327 . S
C2229 C2235 1.429 . S
C2230 C2222 1.574 . S
C2230 H2225 0.949 . S
C2230 C2236 1.368 . S
C2231 C2215 1.349 . S
C2231 H2223 0.950 . S
C2231 C2229 1.327 . S
C2232 C2220 1.349 . S
C2232 H2226 0.950 . S
C2232 C2233 1.327 . S
C2233 H2227 0.950 . S
C2233 C2232 1.327 . S
C2233 C2237 1.429 . S
C2234 C2217 1.574 . S
C2234 H2228 0.949 . S
C2234 C2238 1.368 . S
C2235 C2216 1.429 . S
C2235 C2229 1.429 . S
C2235 C2236 1.523 . S
C2236 C2217 1.368 . S
C2236 C2230 1.368 . S
C2236 C2235 1.523 . S
C2237 C2221 1.429 . S
C2237 C2233 1.429 . S
C2237 C2238 1.523 . S
C2238 C2222 1.368 . S
C2238 C2234 1.368 . S
C2238 C2237 1.523 . S
H2239 C2214 0.950 . S
H2240 C2216 0.950 . S
H2241 C2217 0.949 . S
H2242 C2219 0.950 . S
H2243 C2221 0.950 . S
C2244 C2245 1.349 . S
C2244 C2246 1.327 . S
C2244 H2269 0.950 . S
C2245 C2244 1.349 . S
C2245 C2261 1.349 . S
C2246 C2244 1.327 . S
C2246 C2265 1.429 . S
C2246 H2270 0.950 . S
C2247 C2264 1.574 . S
C2247 C2266 1.368 . S
C2247 H2271 0.949 . S
H2248 C2252 0.949 . S
C2249 C2250 1.349 . S
C2249 C2251 1.327 . S
C2249 H2272 0.950 . S
C2250 C2249 1.349 . S
C2250 C2262 1.349 . S
C2251 C2249 1.327 . S
C2251 C2267 1.429 . S
C2251 H2273 0.950 . S
C2252 H2248 0.949 . S
C2252 C2260 1.574 . S
C2252 C2268 1.368 . S
H2253 C2261 0.950 . S
H2254 C2259 0.950 . S
H2255 C2260 0.949 . S
H2256 C2262 0.950 . S
H2257 C2263 0.950 . S
H2258 C2264 0.949 . S
C2259 H2254 0.950 . S
C2259 C2261 1.327 . S
C2259 C2265 1.429 . S
C2260 C2252 1.574 . S
C2260 H2255 0.949 . S
C2260 C2266 1.368 . S
C2261 C2245 1.349 . S
C2261 H2253 0.950 . S
C2261 C2259 1.327 . S
C2262 C2250 1.349 . S
C2262 H2256 0.950 . S
C2262 C2263 1.327 . S
C2263 H2257 0.950 . S
C2263 C2262 1.327 . S
C2263 C2267 1.429 . S
C2264 C2247 1.574 . S
C2264 H2258 0.949 . S
C2264 C2268 1.368 . S
C2265 C2246 1.429 . S
C2265 C2259 1.429 . S
C2265 C2266 1.523 . S
C2266 C2247 1.368 . S
C2266 C2260 1.368 . S
C2266 C2265 1.523 . S
C2267 C2251 1.429 . S
C2267 C2263 1.429 . S
C2267 C2268 1.523 . S
C2268 C2252 1.368 . S
C2268 C2264 1.368 . S
C2268 C2267 1.523 . S
H2269 C2244 0.950 . S
H2270 C2246 0.950 . S
H2271 C2247 0.949 . S
H2272 C2249 0.950 . S
H2273 C2251 0.950 . S
C2274 C2275 1.349 . S
C2274 C2276 1.327 . S
C2274 H2299 0.950 . S
C2275 C2274 1.349 . S
C2275 C2291 1.349 . S
C2276 C2274 1.327 . S
C2276 C2295 1.429 . S
C2276 H2300 0.950 . S
C2277 C2294 1.574 . S
C2277 C2296 1.368 1_554 S
C2277 H2301 0.949 . S
H2278 C2282 0.949 . S
C2279 C2280 1.349 . S
C2279 C2281 1.327 . S
C2279 H2302 0.950 . S
C2280 C2279 1.349 . S
C2280 C2292 1.349 . S
C2281 C2279 1.327 . S
C2281 C2297 1.429 . S
C2281 H2303 0.950 . S
C2282 H2278 0.949 . S
C2282 C2290 1.574 . S
C2282 C2298 1.368 1_556 S
H2283 C2291 0.950 . S
H2284 C2289 0.950 . S
H2285 C2290 0.949 . S
H2286 C2292 0.950 . S
H2287 C2293 0.950 . S
H2288 C2294 0.949 . S
C2289 H2284 0.950 . S
C2289 C2291 1.327 . S
C2289 C2295 1.429 . S
C2290 C2282 1.574 . S
C2290 H2285 0.949 . S
C2290 C2296 1.368 . S
C2291 C2275 1.349 . S
C2291 H2283 0.950 . S
C2291 C2289 1.327 . S
C2292 C2280 1.349 . S
C2292 H2286 0.950 . S
C2292 C2293 1.327 . S
C2293 H2287 0.950 . S
C2293 C2292 1.327 . S
C2293 C2297 1.429 . S
C2294 C2277 1.574 . S
C2294 H2288 0.949 . S
C2294 C2298 1.368 . S
C2295 C2276 1.429 . S
C2295 C2289 1.429 . S
C2295 C2296 1.523 . S
C2296 C2277 1.368 1_556 S
C2296 C2290 1.368 . S
C2296 C2295 1.523 . S
C2297 C2281 1.429 . S
C2297 C2293 1.429 . S
C2297 C2298 1.523 . S
C2298 C2282 1.368 1_554 S
C2298 C2294 1.368 . S
C2298 C2297 1.523 . S
H2299 C2274 0.950 . S
H2300 C2276 0.950 . S
H2301 C2277 0.949 . S
H2302 C2279 0.950 . S
H2303 C2281 0.950 . S
C2304 C2305 1.349 . S
C2304 C2306 1.327 . S
C2304 H2329 0.950 . S
C2305 C2304 1.349 . S
C2305 C2321 1.349 . S
C2306 C2304 1.327 . S
C2306 C2325 1.429 . S
C2306 H2330 0.950 . S
C2307 C2324 1.574 . S
C2307 C2326 1.368 . S
C2307 H2331 0.949 . S
H2308 C2312 0.949 . S
C2309 C2310 1.349 . S
C2309 C2311 1.327 . S
C2309 H2332 0.950 . S
C2310 C2309 1.349 . S
C2310 C2322 1.349 . S
C2311 C2309 1.327 . S
C2311 C2327 1.429 . S
C2311 H2333 0.950 . S
C2312 H2308 0.949 . S
C2312 C2320 1.574 . S
C2312 C2328 1.368 . S
H2313 C2321 0.950 . S
H2314 C2319 0.950 . S
H2315 C2320 0.949 . S
H2316 C2322 0.950 . S
H2317 C2323 0.950 . S
H2318 C2324 0.949 . S
C2319 H2314 0.950 . S
C2319 C2321 1.327 . S
C2319 C2325 1.429 . S
C2320 C2312 1.574 . S
C2320 H2315 0.949 . S
C2320 C2326 1.368 . S
C2321 C2305 1.349 . S
C2321 H2313 0.950 . S
C2321 C2319 1.327 . S
C2322 C2310 1.349 . S
C2322 H2316 0.950 . S
C2322 C2323 1.327 . S
C2323 H2317 0.950 . S
C2323 C2322 1.327 . S
C2323 C2327 1.429 . S
C2324 C2307 1.574 . S
C2324 H2318 0.949 . S
C2324 C2328 1.368 . S
C2325 C2306 1.429 . S
C2325 C2319 1.429 . S
C2325 C2326 1.523 . S
C2326 C2307 1.368 . S
C2326 C2320 1.368 . S
C2326 C2325 1.523 . S
C2327 C2311 1.429 . S
C2327 C2323 1.429 . S
C2327 C2328 1.523 . S
C2328 C2312 1.368 . S
C2328 C2324 1.368 . S
C2328 C2327 1.523 . S
H2329 C2304 0.950 . S
H2330 C2306 0.950 . S
H2331 C2307 0.949 . S
H2332 C2309 0.950 . S
H2333 C2311 0.950 . S
C2334 C2335 1.349 . S
C2334 C2336 1.327 . S
C2334 H2359 0.950 . S
C2335 C2334 1.349 . S
C2335 C2351 1.349 . S
C2336 C2334 1.327 . S
C2336 C2355 1.429 . S
C2336 H2360 0.950 . S
C2337 C2354 1.574 . S
C2337 C2356 1.368 . S
C2337 H2361 0.949 . S
H2338 C2342 0.949 . S
C2339 C2340 1.349 . S
C2339 C2341 1.327 . S
C2339 H2362 0.950 . S
C2340 C2339 1.349 . S
C2340 C2352 1.349 . S
C2341 C2339 1.327 . S
C2341 C2357 1.429 . S
C2341 H2363 0.950 . S
C2342 H2338 0.949 . S
C2342 C2350 1.574 . S
C2342 C2358 1.368 . S
H2343 C2351 0.950 . S
H2344 C2349 0.950 . S
H2345 C2350 0.949 . S
H2346 C2352 0.950 . S
H2347 C2353 0.950 . S
H2348 C2354 0.949 . S
C2349 H2344 0.950 . S
C2349 C2351 1.327 . S
C2349 C2355 1.429 . S
C2350 C2342 1.574 . S
C2350 H2345 0.949 . S
C2350 C2356 1.368 . S
C2351 C2335 1.349 . S
C2351 H2343 0.950 . S
C2351 C2349 1.327 . S
C2352 C2340 1.349 . S
C2352 H2346 0.950 . S
C2352 C2353 1.327 . S
C2353 H2347 0.950 . S
C2353 C2352 1.327 . S
C2353 C2357 1.429 . S
C2354 C2337 1.574 . S
C2354 H2348 0.949 . S
C2354 C2358 1.368 . S
C2355 C2336 1.429 . S
C2355 C2349 1.429 . S
C2355 C2356 1.523 . S
C2356 C2337 1.368 . S
C2356 C2350 1.368 . S
C2356 C2355 1.523 . S
C2357 C2341 1.429 . S
C2357 C2353 1.429 . S
C2357 C2358 1.523 . S
C2358 C2342 1.368 . S
C2358 C2354 1.368 . S
C2358 C2357 1.523 . S
H2359 C2334 0.950 . S
H2360 C2336 0.950 . S
H2361 C2337 0.949 . S
H2362 C2339 0.950 . S
H2363 C2341 0.950 . S
C2364 C2365 1.349 . S
C2364 C2366 1.327 . S
C2364 H2389 0.950 . S
C2365 C2364 1.349 . S
C2365 C2381 1.349 . S
C2366 C2364 1.327 . S
C2366 C2385 1.429 . S
C2366 H2390 0.950 . S
C2367 C2384 1.574 . S
C2367 C2386 1.368 . S
C2367 H2391 0.949 . S
H2368 C2372 0.949 . S
C2369 C2370 1.349 . S
C2369 C2371 1.327 . S
C2369 H2392 0.950 . S
C2370 C2369 1.349 . S
C2370 C2382 1.349 . S
C2371 C2369 1.327 . S
C2371 C2387 1.429 . S
C2371 H2393 0.950 . S
C2372 H2368 0.949 . S
C2372 C2380 1.574 . S
C2372 C2388 1.368 . S
H2373 C2381 0.950 . S
H2374 C2379 0.950 . S
H2375 C2380 0.949 . S
H2376 C2382 0.950 . S
H2377 C2383 0.950 . S
H2378 C2384 0.949 . S
C2379 H2374 0.950 . S
C2379 C2381 1.327 . S
C2379 C2385 1.429 . S
C2380 C2372 1.574 . S
C2380 H2375 0.949 . S
C2380 C2386 1.368 . S
C2381 C2365 1.349 . S
C2381 H2373 0.950 . S
C2381 C2379 1.327 . S
C2382 C2370 1.349 . S
C2382 H2376 0.950 . S
C2382 C2383 1.327 . S
C2383 H2377 0.950 . S
C2383 C2382 1.327 . S
C2383 C2387 1.429 . S
C2384 C2367 1.574 . S
C2384 H2378 0.949 . S
C2384 C2388 1.368 . S
C2385 C2366 1.429 . S
C2385 C2379 1.429 . S
C2385 C2386 1.523 . S
C2386 C2367 1.368 . S
C2386 C2380 1.368 . S
C2386 C2385 1.523 . S
C2387 C2371 1.429 . S
C2387 C2383 1.429 . S
C2387 C2388 1.523 . S
C2388 C2372 1.368 . S
C2388 C2384 1.368 . S
C2388 C2387 1.523 . S
H2389 C2364 0.950 . S
H2390 C2366 0.950 . S
H2391 C2367 0.949 . S
H2392 C2369 0.950 . S
H2393 C2371 0.950 . S
C2394 C2395 1.349 . S
C2394 C2396 1.327 . S
C2394 H2419 0.950 . S
C2395 C2394 1.349 . S
C2395 C2411 1.349 . S
C2396 C2394 1.327 . S
C2396 C2415 1.429 . S
C2396 H2420 0.950 . S
C2397 C2414 1.574 . S
C2397 C2416 1.368 . S
C2397 H2421 0.949 . S
H2398 C2402 0.949 . S
C2399 C2400 1.349 . S
C2399 C2401 1.327 . S
C2399 H2422 0.950 . S
C2400 C2399 1.349 . S
C2400 C2412 1.349 . S
C2401 C2399 1.327 . S
C2401 C2417 1.429 . S
C2401 H2423 0.950 . S
C2402 H2398 0.949 . S
C2402 C2410 1.574 . S
C2402 C2418 1.368 . S
H2403 C2411 0.950 . S
H2404 C2409 0.950 . S
H2405 C2410 0.949 . S
H2406 C2412 0.950 . S
H2407 C2413 0.950 . S
H2408 C2414 0.949 . S
C2409 H2404 0.950 . S
C2409 C2411 1.327 . S
C2409 C2415 1.429 . S
C2410 C2402 1.574 . S
C2410 H2405 0.949 . S
C2410 C2416 1.368 . S
C2411 C2395 1.349 . S
C2411 H2403 0.950 . S
C2411 C2409 1.327 . S
C2412 C2400 1.349 . S
C2412 H2406 0.950 . S
C2412 C2413 1.327 . S
C2413 H2407 0.950 . S
C2413 C2412 1.327 . S
C2413 C2417 1.429 . S
C2414 C2397 1.574 . S
C2414 H2408 0.949 . S
C2414 C2418 1.368 . S
C2415 C2396 1.429 . S
C2415 C2409 1.429 . S
C2415 C2416 1.523 . S
C2416 C2397 1.368 . S
C2416 C2410 1.368 . S
C2416 C2415 1.523 . S
C2417 C2401 1.429 . S
C2417 C2413 1.429 . S
C2417 C2418 1.523 . S
C2418 C2402 1.368 . S
C2418 C2414 1.368 . S
C2418 C2417 1.523 . S
H2419 C2394 0.950 . S
H2420 C2396 0.950 . S
H2421 C2397 0.949 . S
H2422 C2399 0.950 . S
H2423 C2401 0.950 . S
C2424 C2425 1.349 . S
C2424 C2426 1.327 . S
C2424 H2449 0.950 . S
C2425 C2424 1.349 . S
C2425 C2441 1.349 . S
C2426 C2424 1.327 . S
C2426 C2445 1.429 . S
C2426 H2450 0.950 . S
C2427 C2444 1.574 . S
C2427 C2446 1.368 . S
C2427 H2451 0.949 . S
H2428 C2432 0.949 . S
C2429 C2430 1.349 . S
C2429 C2431 1.327 1_455 S
C2429 H2452 0.950 . S
C2430 C2429 1.349 . S
C2430 C2442 1.349 1_455 S
C2431 C2429 1.327 1_655 S
C2431 C2447 1.429 . S
C2431 H2453 0.950 1_655 S
C2432 H2428 0.949 . S
C2432 C2440 1.574 . S
C2432 C2448 1.368 . S
H2433 C2441 0.950 . S
H2434 C2439 0.950 . S
H2435 C2440 0.949 . S
H2436 C2442 0.950 . S
H2437 C2443 0.950 . S
H2438 C2444 0.949 . S
C2439 H2434 0.950 . S
C2439 C2441 1.327 . S
C2439 C2445 1.429 . S
C2440 C2432 1.574 . S
C2440 H2435 0.949 . S
C2440 C2446 1.368 . S
C2441 C2425 1.349 . S
C2441 H2433 0.950 . S
C2441 C2439 1.327 . S
C2442 C2430 1.349 1_655 S
C2442 H2436 0.950 . S
C2442 C2443 1.327 . S
C2443 H2437 0.950 . S
C2443 C2442 1.327 . S
C2443 C2447 1.429 . S
C2444 C2427 1.574 . S
C2444 H2438 0.949 . S
C2444 C2448 1.368 . S
C2445 C2426 1.429 . S
C2445 C2439 1.429 . S
C2445 C2446 1.523 . S
C2446 C2427 1.368 . S
C2446 C2440 1.368 . S
C2446 C2445 1.523 . S
C2447 C2431 1.429 . S
C2447 C2443 1.429 . S
C2447 C2448 1.523 . S
C2448 C2432 1.368 . S
C2448 C2444 1.368 . S
C2448 C2447 1.523 . S
H2449 C2424 0.950 . S
H2450 C2426 0.950 . S
H2451 C2427 0.949 . S
H2452 C2429 0.950 . S
H2453 C2431 0.950 1_455 S
C2454 C2455 1.349 . S
C2454 C2456 1.327 . S
C2454 H2479 0.950 . S
C2455 C2454 1.349 . S
C2455 C2471 1.349 . S
C2456 C2454 1.327 . S
C2456 C2475 1.429 . S
C2456 H2480 0.950 . S
C2457 C2474 1.574 . S
C2457 C2476 1.368 . S
C2457 H2481 0.949 . S
H2458 C2462 0.949 . S
C2459 C2460 1.349 . S
C2459 C2461 1.327 . S
C2459 H2482 0.950 . S
C2460 C2459 1.349 . S
C2460 C2472 1.349 . S
C2461 C2459 1.327 . S
C2461 C2477 1.429 . S
C2461 H2483 0.950 . S
C2462 H2458 0.949 . S
C2462 C2470 1.574 . S
C2462 C2478 1.368 . S
H2463 C2471 0.950 . S
H2464 C2469 0.950 . S
H2465 C2470 0.949 . S
H2466 C2472 0.950 . S
H2467 C2473 0.950 . S
H2468 C2474 0.949 . S
C2469 H2464 0.950 . S
C2469 C2471 1.327 . S
C2469 C2475 1.429 . S
C2470 C2462 1.574 . S
C2470 H2465 0.949 . S
C2470 C2476 1.368 . S
C2471 C2455 1.349 . S
C2471 H2463 0.950 . S
C2471 C2469 1.327 . S
C2472 C2460 1.349 . S
C2472 H2466 0.950 . S
C2472 C2473 1.327 . S
C2473 H2467 0.950 . S
C2473 C2472 1.327 . S
C2473 C2477 1.429 . S
C2474 C2457 1.574 . S
C2474 H2468 0.949 . S
C2474 C2478 1.368 . S
C2475 C2456 1.429 . S
C2475 C2469 1.429 . S
C2475 C2476 1.523 . S
C2476 C2457 1.368 . S
C2476 C2470 1.368 . S
C2476 C2475 1.523 . S
C2477 C2461 1.429 . S
C2477 C2473 1.429 . S
C2477 C2478 1.523 . S
C2478 C2462 1.368 . S
C2478 C2474 1.368 . S
C2478 C2477 1.523 . S
H2479 C2454 0.950 . S
H2480 C2456 0.950 . S
H2481 C2457 0.949 . S
H2482 C2459 0.950 . S
H2483 C2461 0.950 . S
C2484 C2485 1.349 . S
C2484 C2486 1.327 . S
C2484 H2509 0.950 1_554 S
C2485 C2484 1.349 . S
C2485 C2501 1.349 . S
C2486 C2484 1.327 . S
C2486 C2505 1.429 . S
C2486 H2510 0.950 . S
C2487 C2504 1.574 . S
C2487 C2506 1.368 . S
C2487 H2511 0.949 . S
H2488 C2492 0.949 . S
C2489 C2490 1.349 . S
C2489 C2491 1.327 . S
C2489 H2512 0.950 . S
C2490 C2489 1.349 . S
C2490 C2502 1.349 . S
C2491 C2489 1.327 . S
C2491 C2507 1.429 . S
C2491 H2513 0.950 . S
C2492 H2488 0.949 . S
C2492 C2500 1.574 . S
C2492 C2508 1.368 . S
H2493 C2501 0.950 . S
H2494 C2499 0.950 . S
H2495 C2500 0.949 . S
H2496 C2502 0.950 . S
H2497 C2503 0.950 . S
H2498 C2504 0.949 . S
C2499 H2494 0.950 . S
C2499 C2501 1.327 . S
C2499 C2505 1.429 . S
C2500 C2492 1.574 . S
C2500 H2495 0.949 . S
C2500 C2506 1.368 . S
C2501 C2485 1.349 . S
C2501 H2493 0.950 . S
C2501 C2499 1.327 . S
C2502 C2490 1.349 . S
C2502 H2496 0.950 . S
C2502 C2503 1.327 . S
C2503 H2497 0.950 . S
C2503 C2502 1.327 . S
C2503 C2507 1.429 . S
C2504 C2487 1.574 . S
C2504 H2498 0.949 . S
C2504 C2508 1.368 . S
C2505 C2486 1.429 . S
C2505 C2499 1.429 . S
C2505 C2506 1.523 . S
C2506 C2487 1.368 . S
C2506 C2500 1.368 . S
C2506 C2505 1.523 . S
C2507 C2491 1.429 . S
C2507 C2503 1.429 . S
C2507 C2508 1.523 . S
C2508 C2492 1.368 . S
C2508 C2504 1.368 . S
C2508 C2507 1.523 . S
H2509 C2484 0.950 1_556 S
H2510 C2486 0.950 . S
H2511 C2487 0.949 . S
H2512 C2489 0.950 . S
H2513 C2491 0.950 . S
C2514 C2515 1.349 . S
C2514 C2516 1.327 . S
C2514 H2539 0.950 . S
C2515 C2514 1.349 . S
C2515 C2531 1.349 . S
C2516 C2514 1.327 . S
C2516 C2535 1.429 . S
C2516 H2540 0.950 . S
C2517 C2534 1.574 . S
C2517 C2536 1.368 . S
C2517 H2541 0.949 . S
H2518 C2522 0.949 . S
C2519 C2520 1.349 . S
C2519 C2521 1.327 . S
C2519 H2542 0.950 . S
C2520 C2519 1.349 . S
C2520 C2532 1.349 . S
C2521 C2519 1.327 . S
C2521 C2537 1.429 . S
C2521 H2543 0.950 . S
C2522 H2518 0.949 . S
C2522 C2530 1.574 . S
C2522 C2538 1.368 . S
H2523 C2531 0.950 . S
H2524 C2529 0.950 . S
H2525 C2530 0.949 . S
H2526 C2532 0.950 . S
H2527 C2533 0.950 . S
H2528 C2534 0.949 . S
C2529 H2524 0.950 . S
C2529 C2531 1.327 . S
C2529 C2535 1.429 . S
C2530 C2522 1.574 . S
C2530 H2525 0.949 . S
C2530 C2536 1.368 . S
C2531 C2515 1.349 . S
C2531 H2523 0.950 . S
C2531 C2529 1.327 . S
C2532 C2520 1.349 . S
C2532 H2526 0.950 . S
C2532 C2533 1.327 . S
C2533 H2527 0.950 . S
C2533 C2532 1.327 . S
C2533 C2537 1.429 . S
C2534 C2517 1.574 . S
C2534 H2528 0.949 . S
C2534 C2538 1.368 . S
C2535 C2516 1.429 . S
C2535 C2529 1.429 . S
C2535 C2536 1.523 . S
C2536 C2517 1.368 . S
C2536 C2530 1.368 . S
C2536 C2535 1.523 . S
C2537 C2521 1.429 . S
C2537 C2533 1.429 . S
C2537 C2538 1.523 . S
C2538 C2522 1.368 . S
C2538 C2534 1.368 . S
C2538 C2537 1.523 . S
H2539 C2514 0.950 . S
H2540 C2516 0.950 . S
H2541 C2517 0.949 . S
H2542 C2519 0.950 . S
H2543 C2521 0.950 . S
C2544 C2545 1.349 . S
C2544 C2546 1.327 . S
C2544 H2569 0.950 . S
C2545 C2544 1.349 . S
C2545 C2561 1.349 . S
C2546 C2544 1.327 . S
C2546 C2565 1.429 . S
C2546 H2570 0.950 . S
C2547 C2564 1.574 . S
C2547 C2566 1.368 . S
C2547 H2571 0.949 . S
H2548 C2552 0.949 . S
C2549 C2550 1.349 . S
C2549 C2551 1.327 1_554 S
C2549 H2572 0.950 . S
C2550 C2549 1.349 . S
C2550 C2562 1.349 1_554 S
C2551 C2549 1.327 1_556 S
C2551 C2567 1.429 . S
C2551 H2573 0.950 . S
C2552 H2548 0.949 . S
C2552 C2560 1.574 . S
C2552 C2568 1.368 . S
H2553 C2561 0.950 . S
H2554 C2559 0.950 . S
H2555 C2560 0.949 . S
H2556 C2562 0.950 1_554 S
H2557 C2563 0.950 . S
H2558 C2564 0.949 . S
C2559 H2554 0.950 . S
C2559 C2561 1.327 . S
C2559 C2565 1.429 . S
C2560 C2552 1.574 . S
C2560 H2555 0.949 . S
C2560 C2566 1.368 . S
C2561 C2545 1.349 . S
C2561 H2553 0.950 . S
C2561 C2559 1.327 . S
C2562 C2550 1.349 1_556 S
C2562 H2556 0.950 1_556 S
C2562 C2563 1.327 . S
C2563 H2557 0.950 . S
C2563 C2562 1.327 . S
C2563 C2567 1.429 . S
C2564 C2547 1.574 . S
C2564 H2558 0.949 . S
C2564 C2568 1.368 . S
C2565 C2546 1.429 . S
C2565 C2559 1.429 . S
C2565 C2566 1.523 . S
C2566 C2547 1.368 . S
C2566 C2560 1.368 . S
C2566 C2565 1.523 . S
C2567 C2551 1.429 . S
C2567 C2563 1.429 . S
C2567 C2568 1.523 . S
C2568 C2552 1.368 . S
C2568 C2564 1.368 . S
C2568 C2567 1.523 . S
H2569 C2544 0.950 . S
H2570 C2546 0.950 . S
H2571 C2547 0.949 . S
H2572 C2549 0.950 . S
H2573 C2551 0.950 . S
C2574 C2575 1.349 . S
C2574 C2576 1.327 . S
C2574 H2599 0.950 . S
C2575 C2574 1.349 . S
C2575 C2591 1.349 . S
C2576 C2574 1.327 . S
C2576 C2595 1.429 . S
C2576 H2600 0.950 . S
C2577 C2594 1.574 . S
C2577 C2596 1.368 . S
C2577 H2601 0.949 . S
H2578 C2582 0.949 . S
C2579 C2580 1.349 . S
C2579 C2581 1.327 . S
C2579 H2602 0.950 . S
C2580 C2579 1.349 . S
C2580 C2592 1.349 . S
C2581 C2579 1.327 . S
C2581 C2597 1.429 . S
C2581 H2603 0.950 . S
C2582 H2578 0.949 . S
C2582 C2590 1.574 . S
C2582 C2598 1.368 . S
H2583 C2591 0.950 . S
H2584 C2589 0.950 . S
H2585 C2590 0.949 . S
H2586 C2592 0.950 . S
H2587 C2593 0.950 . S
H2588 C2594 0.949 . S
C2589 H2584 0.950 . S
C2589 C2591 1.327 . S
C2589 C2595 1.429 . S
C2590 C2582 1.574 . S
C2590 H2585 0.949 . S
C2590 C2596 1.368 . S
C2591 C2575 1.349 . S
C2591 H2583 0.950 . S
C2591 C2589 1.327 . S
C2592 C2580 1.349 . S
C2592 H2586 0.950 . S
C2592 C2593 1.327 . S
C2593 H2587 0.950 . S
C2593 C2592 1.327 . S
C2593 C2597 1.429 . S
C2594 C2577 1.574 . S
C2594 H2588 0.949 . S
C2594 C2598 1.368 . S
C2595 C2576 1.429 . S
C2595 C2589 1.429 . S
C2595 C2596 1.523 . S
C2596 C2577 1.368 . S
C2596 C2590 1.368 . S
C2596 C2595 1.523 . S
C2597 C2581 1.429 . S
C2597 C2593 1.429 . S
C2597 C2598 1.523 1_556 S
C2598 C2582 1.368 . S
C2598 C2594 1.368 . S
C2598 C2597 1.523 1_554 S
H2599 C2574 0.950 . S
H2600 C2576 0.950 . S
H2601 C2577 0.949 . S
H2602 C2579 0.950 . S
H2603 C2581 0.950 . S
C2604 C2605 1.349 . S
C2604 C2606 1.327 1_455 S
C2604 H2629 0.950 1_455 S
C2605 C2604 1.349 . S
C2605 C2621 1.349 . S
C2606 C2604 1.327 1_655 S
C2606 C2625 1.429 . S
C2606 H2630 0.950 . S
C2607 C2624 1.574 . S
C2607 C2626 1.368 . S
C2607 H2631 0.927 1_655 S
H2608 C2612 0.949 . S
C2609 C2610 1.349 . S
C2609 C2611 1.327 . S
C2609 H2632 0.950 . S
C2610 C2609 1.349 . S
C2610 C2622 1.349 . S
C2611 C2609 1.327 . S
C2611 C2627 1.429 . S
C2611 H2633 0.950 . S
C2612 H2608 0.949 . S
C2612 C2620 1.574 . S
C2612 C2628 1.368 . S
H2613 C2621 0.950 . S
H2614 C2619 0.950 . S
H2615 C2620 0.949 . S
H2616 C2622 0.950 . S
H2617 C2623 0.950 . S
H2618 C2624 0.949 . S
C2619 H2614 0.950 . S
C2619 C2621 1.327 . S
C2619 C2625 1.429 1_455 S
C2620 C2612 1.574 . S
C2620 H2615 0.949 . S
C2620 C2626 1.368 . S
C2621 C2605 1.349 . S
C2621 H2613 0.950 . S
C2621 C2619 1.327 . S
C2622 C2610 1.349 . S
C2622 H2616 0.950 . S
C2622 C2623 1.327 . S
C2623 H2617 0.950 . S
C2623 C2622 1.327 . S
C2623 C2627 1.429 . S
C2624 C2607 1.574 . S
C2624 H2618 0.949 . S
C2624 C2628 1.368 . S
C2625 C2606 1.429 . S
C2625 C2619 1.429 1_655 S
C2625 C2626 1.523 . S
C2626 C2607 1.368 . S
C2626 C2620 1.368 . S
C2626 C2625 1.523 . S
C2627 C2611 1.429 . S
C2627 C2623 1.429 . S
C2627 C2628 1.523 . S
C2628 C2612 1.368 . S
C2628 C2624 1.368 . S
C2628 C2627 1.523 . S
H2629 C2604 0.950 1_655 S
H2630 C2606 0.950 . S
H2631 C2607 0.927 1_455 S
H2632 C2609 0.950 . S
H2633 C2611 0.950 . S
C2634 C2635 1.349 1_455 S
C2634 C2636 1.327 1_455 S
C2634 H2659 0.950 . S
C2635 C2634 1.349 1_655 S
C2635 C2651 1.349 . S
C2636 C2634 1.327 1_655 S
C2636 C2655 1.429 . S
C2636 H2660 0.950 1_655 S
C2637 C2654 1.574 . S
C2637 C2656 1.368 . S
C2637 H2661 0.949 . S
H2638 C2642 0.949 . S
C2639 C2640 1.349 . S
C2639 C2641 1.327 . S
C2639 H2662 0.950 . S
C2640 C2639 1.349 . S
C2640 C2652 1.349 . S
C2641 C2639 1.327 . S
C2641 C2657 1.429 . S
C2641 H2663 0.950 . S
C2642 H2638 0.949 . S
C2642 C2650 1.574 . S
C2642 C2658 1.368 . S
H2643 C2651 0.950 . S
H2644 C2649 0.950 . S
H2645 C2650 0.949 . S
H2646 C2652 0.950 . S
H2647 C2653 0.950 . S
H2648 C2654 0.949 . S
C2649 H2644 0.950 . S
C2649 C2651 1.327 . S
C2649 C2655 1.429 . S
C2650 C2642 1.574 . S
C2650 H2645 0.949 . S
C2650 C2656 1.368 . S
C2651 C2635 1.349 . S
C2651 H2643 0.950 . S
C2651 C2649 1.327 . S
C2652 C2640 1.349 . S
C2652 H2646 0.950 . S
C2652 C2653 1.327 . S
C2653 H2647 0.950 . S
C2653 C2652 1.327 . S
C2653 C2657 1.429 . S
C2654 C2637 1.574 . S
C2654 H2648 0.949 . S
C2654 C2658 1.368 . S
C2655 C2636 1.429 . S
C2655 C2649 1.429 . S
C2655 C2656 1.523 . S
C2656 C2637 1.368 . S
C2656 C2650 1.368 . S
C2656 C2655 1.523 . S
C2657 C2641 1.429 . S
C2657 C2653 1.429 . S
C2657 C2658 1.523 . S
C2658 C2642 1.368 . S
C2658 C2654 1.368 . S
C2658 C2657 1.523 . S
H2659 C2634 0.950 . S
H2660 C2636 0.950 1_455 S
H2661 C2637 0.949 . S
H2662 C2639 0.950 . S
H2663 C2641 0.950 . S
C2664 C2665 1.349 . S
C2664 C2666 1.327 . S
C2664 H2689 0.950 . S
C2665 C2664 1.349 . S
C2665 C2681 1.349 . S
C2666 C2664 1.327 . S
C2666 C2685 1.429 . S
C2666 H2690 0.950 . S
C2667 C2684 1.574 . S
C2667 C2686 1.368 . S
C2667 H2691 0.949 . S
H2668 C2672 0.949 . S
C2669 C2670 1.349 . S
C2669 C2671 1.327 . S
C2669 H2692 0.950 1_554 S
C2670 C2669 1.349 . S
C2670 C2682 1.349 . S
C2671 C2669 1.327 . S
C2671 C2687 1.429 . S
C2671 H2693 0.950 . S
C2672 H2668 0.949 . S
C2672 C2680 1.574 . S
C2672 C2688 1.368 . S
H2673 C2681 0.950 . S
H2674 C2679 0.950 . S
H2675 C2680 0.949 . S
H2676 C2682 0.950 . S
H2677 C2683 0.950 . S
H2678 C2684 0.949 . S
C2679 H2674 0.950 . S
C2679 C2681 1.327 . S
C2679 C2685 1.429 . S
C2680 C2672 1.574 . S
C2680 H2675 0.949 . S
C2680 C2686 1.368 . S
C2681 C2665 1.349 . S
C2681 H2673 0.950 . S
C2681 C2679 1.327 . S
C2682 C2670 1.349 . S
C2682 H2676 0.950 . S
C2682 C2683 1.327 . S
C2683 H2677 0.950 . S
C2683 C2682 1.327 . S
C2683 C2687 1.429 . S
C2684 C2667 1.574 . S
C2684 H2678 0.949 . S
C2684 C2688 1.368 . S
C2685 C2666 1.429 . S
C2685 C2679 1.429 . S
C2685 C2686 1.523 . S
C2686 C2667 1.368 . S
C2686 C2680 1.368 . S
C2686 C2685 1.523 . S
C2687 C2671 1.429 . S
C2687 C2683 1.429 . S
C2687 C2688 1.523 . S
C2688 C2672 1.368 . S
C2688 C2684 1.368 . S
C2688 C2687 1.523 . S
H2689 C2664 0.950 . S
H2690 C2666 0.950 . S
H2691 C2667 0.949 . S
H2692 C2669 0.950 1_556 S
H2693 C2671 0.950 . S
C2694 C2695 1.349 . S
C2694 C2696 1.327 . S
C2694 H2719 0.950 . S
C2695 C2694 1.349 . S
C2695 C2711 1.349 . S
C2696 C2694 1.327 . S
C2696 C2715 1.429 1_554 S
C2696 H2720 0.950 . S
C2697 C2714 1.574 . S
C2697 C2716 1.368 . S
C2697 H2721 0.949 . S
H2698 C2702 0.949 . S
C2699 C2700 1.349 . S
C2699 C2701 1.327 . S
C2699 H2722 0.950 . S
C2700 C2699 1.349 . S
C2700 C2712 1.349 . S
C2701 C2699 1.327 . S
C2701 C2717 1.429 . S
C2701 H2723 0.950 . S
C2702 H2698 0.949 . S
C2702 C2710 1.574 . S
C2702 C2718 1.368 . S
H2703 C2711 0.950 . S
H2704 C2709 0.950 . S
H2705 C2710 0.949 . S
H2706 C2712 0.950 . S
H2707 C2713 0.950 . S
H2708 C2714 0.949 . S
C2709 H2704 0.950 . S
C2709 C2711 1.327 1_556 S
C2709 C2715 1.429 . S
C2710 C2702 1.574 . S
C2710 H2705 0.949 . S
C2710 C2716 1.368 . S
C2711 C2695 1.349 . S
C2711 H2703 0.950 . S
C2711 C2709 1.327 1_554 S
C2712 C2700 1.349 . S
C2712 H2706 0.950 . S
C2712 C2713 1.327 . S
C2713 H2707 0.950 . S
C2713 C2712 1.327 . S
C2713 C2717 1.429 . S
C2714 C2697 1.574 . S
C2714 H2708 0.949 . S
C2714 C2718 1.368 . S
C2715 C2696 1.429 1_556 S
C2715 C2709 1.429 . S
C2715 C2716 1.523 . S
C2716 C2697 1.368 . S
C2716 C2710 1.368 . S
C2716 C2715 1.523 . S
C2717 C2701 1.429 . S
C2717 C2713 1.429 . S
C2717 C2718 1.523 . S
C2718 C2702 1.368 . S
C2718 C2714 1.368 . S
C2718 C2717 1.523 . S
H2719 C2694 0.950 . S
H2720 C2696 0.950 . S
H2721 C2697 0.949 . S
H2722 C2699 0.950 . S
H2723 C2701 0.950 . S
C2724 C2725 1.349 . S
C2724 C2726 1.327 . S
C2724 H2749 0.950 . S
C2725 C2724 1.349 . S
C2725 C2741 1.349 . S
C2726 C2724 1.327 . S
C2726 C2745 1.429 . S
C2726 H2750 0.950 . S
C2727 C2744 1.574 . S
C2727 C2746 1.368 . S
C2727 H2751 0.949 . S
H2728 C2732 0.949 . S
C2729 C2730 1.349 . S
C2729 C2731 1.327 . S
C2729 H2752 0.950 . S
C2730 C2729 1.349 . S
C2730 C2742 1.349 . S
C2731 C2729 1.327 . S
C2731 C2747 1.429 . S
C2731 H2753 0.950 . S
C2732 H2728 0.949 . S
C2732 C2740 1.574 . S
C2732 C2748 1.368 . S
H2733 C2741 0.950 . S
H2734 C2739 0.950 . S
H2735 C2740 0.949 . S
H2736 C2742 0.950 . S
H2737 C2743 0.950 . S
H2738 C2744 0.949 . S
C2739 H2734 0.950 . S
C2739 C2741 1.327 . S
C2739 C2745 1.429 . S
C2740 C2732 1.574 . S
C2740 H2735 0.949 . S
C2740 C2746 1.368 . S
C2741 C2725 1.349 . S
C2741 H2733 0.950 . S
C2741 C2739 1.327 . S
C2742 C2730 1.349 . S
C2742 H2736 0.950 . S
C2742 C2743 1.327 . S
C2743 H2737 0.950 . S
C2743 C2742 1.327 . S
C2743 C2747 1.429 . S
C2744 C2727 1.574 . S
C2744 H2738 0.949 . S
C2744 C2748 1.368 . S
C2745 C2726 1.429 . S
C2745 C2739 1.429 . S
C2745 C2746 1.523 . S
C2746 C2727 1.368 . S
C2746 C2740 1.368 . S
C2746 C2745 1.523 . S
C2747 C2731 1.429 . S
C2747 C2743 1.429 . S
C2747 C2748 1.523 . S
C2748 C2732 1.368 . S
C2748 C2744 1.368 . S
C2748 C2747 1.523 . S
H2749 C2724 0.950 . S
H2750 C2726 0.950 . S
H2751 C2727 0.949 . S
H2752 C2729 0.950 . S
H2753 C2731 0.950 . S
C2754 C2755 1.349 . S
C2754 C2756 1.327 . S
C2754 H2779 0.950 . S
C2755 C2754 1.349 . S
C2755 C2771 1.349 . S
C2756 C2754 1.327 . S
C2756 C2775 1.429 . S
C2756 H2780 0.950 . S
C2757 C2774 1.574 . S
C2757 C2776 1.368 . S
C2757 H2781 0.949 . S
H2758 C2762 0.949 . S
C2759 C2760 1.349 . S
C2759 C2761 1.327 . S
C2759 H2782 0.950 . S
C2760 C2759 1.349 . S
C2760 C2772 1.349 . S
C2761 C2759 1.327 . S
C2761 C2777 1.429 . S
C2761 H2783 0.950 . S
C2762 H2758 0.949 . S
C2762 C2770 1.574 . S
C2762 C2778 1.368 . S
H2763 C2771 0.950 . S
H2764 C2769 0.950 . S
H2765 C2770 0.949 . S
H2766 C2772 0.950 . S
H2767 C2773 0.950 . S
H2768 C2774 0.949 . S
C2769 H2764 0.950 . S
C2769 C2771 1.327 . S
C2769 C2775 1.429 . S
C2770 C2762 1.574 . S
C2770 H2765 0.949 . S
C2770 C2776 1.368 . S
C2771 C2755 1.349 . S
C2771 H2763 0.950 . S
C2771 C2769 1.327 . S
C2772 C2760 1.349 . S
C2772 H2766 0.950 . S
C2772 C2773 1.327 . S
C2773 H2767 0.950 . S
C2773 C2772 1.327 . S
C2773 C2777 1.429 . S
C2774 C2757 1.574 . S
C2774 H2768 0.949 . S
C2774 C2778 1.368 . S
C2775 C2756 1.429 . S
C2775 C2769 1.429 . S
C2775 C2776 1.523 . S
C2776 C2757 1.368 . S
C2776 C2770 1.368 . S
C2776 C2775 1.523 . S
C2777 C2761 1.429 . S
C2777 C2773 1.429 . S
C2777 C2778 1.523 . S
C2778 C2762 1.368 . S
C2778 C2774 1.368 . S
C2778 C2777 1.523 . S
H2779 C2754 0.950 . S
H2780 C2756 0.950 . S
H2781 C2757 0.949 . S
H2782 C2759 0.950 . S
H2783 C2761 0.950 . S
C1345 C58 0.840 . S
C1350 C646 0.834 . S
C1375 C142 1.321 . S
C1380 C403 1.563 . S
C1405 C487 0.598 . S
C1410 C226 0.733 . S
C1435 C319 1.564 . S
C1440 C562 1.318 . S
C1465 C994 1.008 . S
C1470 C406 1.004 . S
C1495 C742 2.391 . S
C1500 C56 2.709 . S
C1525 C896 1.988 . S
C1530 C560 2.000 . S
C1555 C224 3.166 . S
C1560 C812 3.142 . S
C1585 C814 0.834 . S
C1590 C1066 0.840 . S
C1615 C898 1.321 . S
C1620 C1243 1.563 . S
C1645 C1150 0.733 . S
C1650 C739 0.598 . S
C1675 C991 1.564 . S
C1680 C1318 1.318 . S
C1705 C1246 1.004 . S
C1710 C322 1.008 . S
C1735 C1064 2.709 . S
C1740 C490 2.391 . S
C1765 C140 1.988 . S
C1770 C1316 2.000 . S
C1795 C644 3.142 . S
C1800 C1148 3.166 1_556 S
C1825 C1166 0.302 . S
C1830 C74 0.814 . S
C1855 C987 0.880 . S
C1860 C158 0.368 . S
C1885 C1082 0.814 . S
C1890 C242 0.302 . S
C1915 C914 0.368 . S
C1920 C315 0.880 . S
C1945 C399 0.868 . S
C1950 C1334 0.384 . S
C1975 C830 0.771 . S
C1980 C483 0.742 . S
C2005 C578 0.384 . S
C2010 C1239 0.868 . S
C2035 C662 0.771 . S
C2040 C735 0.742 . S
C2065 C63 1.665 . S
C2070 C410 1.672 . S
C2095 C147 1.004 . S
C2100 C494 1.002 . S
C2125 C567 0.806 . S
C2130 C231 0.803 . S
C2155 C326 1.347 . S
C2160 C651 1.354 . S
C2185 C903 1.004 . S
C2190 C746 1.002 . S
C2215 C998 1.347 . S
C2220 C819 1.354 . S
C2245 C1071 1.666 . S
C2250 C1250 1.673 . S
C2275 C1323 0.806 . S
C2280 C1155 0.803 . S
C2305 C67 2.771 . S
C2310 C655 2.731 . S
C2335 C151 1.270 . S
C2340 C394 1.272 . S
C2365 C478 2.071 . S
C2370 C235 2.062 . S
C2395 C571 1.287 . S
C2400 C310 1.293 . S
C2425 C980 1.963 . S
C2430 C392 1.962 . S
C2455 C728 0.707 . S
C2460 C70 0.706 . S
C2485 C910 0.738 1_554 S
C2490 C574 0.738 . S
C2515 C238 0.381 . S
C2520 C826 0.514 . S
C2545 C1075 2.771 . S
C2550 C823 2.731 . S
C2575 C1234 1.272 . S
C2580 C907 1.270 . S
C2605 C1159 2.063 . S
C2610 C730 2.071 . S
C2635 C1327 1.287 1_655 S
C2640 C982 1.293 . S
C2665 C1232 1.962 . S
C2670 C308 1.963 1_554 S
C2695 C476 0.707 . S
C2700 C1078 0.706 . S
C2725 C154 0.738 . S
C2730 C1330 0.738 . S
C2755 C1162 0.381 . S
C2760 C658 0.514 . S
