# Generated by pormake.
# Topology snk, (6)-cn, num edge types: 1
# Building blocks:
#     Node 0, Type 0, BuildingBlock: CUWYAW_clean_sbu_0, # of connection points: 6
#     Node 1, Type 0, BuildingBlock: CUWYAW_clean_sbu_0, # of connection points: 6
#     Node 2, Type 0, BuildingBlock: CUWYAW_clean_sbu_0, # of connection points: 6
#     Node 3, Type 0, BuildingBlock: CUWYAW_clean_sbu_0, # of connection points: 6
#     Node 4, Type 0, BuildingBlock: CUWYAW_clean_sbu_0, # of connection points: 6
#     Node 5, Type 0, BuildingBlock: CUWYAW_clean_sbu_0, # of connection points: 6
#     Node 6, Type 0, BuildingBlock: CUWYAW_clean_sbu_0, # of connection points: 6
#     Node 7, Type 0, BuildingBlock: CUWYAW_clean_sbu_0, # of connection points: 6
#     Edge 8, Type (0, 0), BuildingBlock: UVAHIK_clean_linker_0, # of connection points: 2
#     Edge 9, Type (0, 0), BuildingBlock: UVAHIK_clean_linker_0, # of connection points: 2
#     Edge 10, Type (0, 0), BuildingBlock: UVAHIK_clean_linker_0, # of connection points: 2
#     Edge 11, Type (0, 0), BuildingBlock: UVAHIK_clean_linker_0, # of connection points: 2
#     Edge 12, Type (0, 0), BuildingBlock: UVAHIK_clean_linker_0, # of connection points: 2
#     Edge 13, Type (0, 0), BuildingBlock: UVAHIK_clean_linker_0, # of connection points: 2
#     Edge 14, Type (0, 0), BuildingBlock: UVAHIK_clean_linker_0, # of connection points: 2
#     Edge 15, Type (0, 0), BuildingBlock: UVAHIK_clean_linker_0, # of connection points: 2
#     Edge 16, Type (0, 0), BuildingBlock: UVAHIK_clean_linker_0, # of connection points: 2
#     Edge 17, Type (0, 0), BuildingBlock: UVAHIK_clean_linker_0, # of connection points: 2
#     Edge 18, Type (0, 0), BuildingBlock: UVAHIK_clean_linker_0, # of connection points: 2
#     Edge 19, Type (0, 0), BuildingBlock: UVAHIK_clean_linker_0, # of connection points: 2
#     Edge 20, Type (0, 0), BuildingBlock: UVAHIK_clean_linker_0, # of connection points: 2
#     Edge 21, Type (0, 0), BuildingBlock: UVAHIK_clean_linker_0, # of connection points: 2
#     Edge 22, Type (0, 0), BuildingBlock: UVAHIK_clean_linker_0, # of connection points: 2
#     Edge 23, Type (0, 0), BuildingBlock: UVAHIK_clean_linker_0, # of connection points: 2
#     Edge 24, Type (0, 0), BuildingBlock: UVAHIK_clean_linker_0, # of connection points: 2
#     Edge 25, Type (0, 0), BuildingBlock: UVAHIK_clean_linker_0, # of connection points: 2
#     Edge 26, Type (0, 0), BuildingBlock: UVAHIK_clean_linker_0, # of connection points: 2
#     Edge 27, Type (0, 0), BuildingBlock: UVAHIK_clean_linker_0, # of connection points: 2
#     Edge 28, Type (0, 0), BuildingBlock: UVAHIK_clean_linker_0, # of connection points: 2
#     Edge 29, Type (0, 0), BuildingBlock: UVAHIK_clean_linker_0, # of connection points: 2
#     Edge 30, Type (0, 0), BuildingBlock: UVAHIK_clean_linker_0, # of connection points: 2
#     Edge 31, Type (0, 0), BuildingBlock: UVAHIK_clean_linker_0, # of connection points: 2
# Relax obj value: 0.069
# Max RMSD: 0.134
# Mean RMSD: 0.114
data_MOF--net-snk--node1-CUWYAW_clean_sbu_0--edge1-UVAHIK_clean_linker_0
_symmetry_space_group_name_H-M    P1
_symmetry_Int_Tables_number       1
_symmetry_cell_setting            triclinic
loop_
_symmetry_equiv_pos_as_xyz
'x, y, z'
_cell_length_a     50.010776
_cell_length_b     50.034041
_cell_length_c     30.088673
_cell_angle_alpha  95.964773
_cell_angle_beta   95.976904
_cell_angle_gamma 90.648251
loop_
_atom_site_label
_atom_site_type_symbol
_atom_site_fract_x
_atom_site_fract_y
_atom_site_fract_z
_atom_type_partial_charge
C0 C 0.03421 0.02174 0.64275 0.0
Eu1 Eu 0.01331 0.01439 0.55908 0.0
C2 C 0.02875 0.01632 0.68815 0.0
C3 C 1.00245 0.01259 0.69908 0.0
C4 C 0.99789 0.00887 0.74323 0.0
C5 C 0.01958 0.00869 0.77708 0.0
C6 C 0.04589 0.01192 0.76553 0.0
C7 C 0.05039 0.01571 0.72153 0.0
C8 C 0.97718 0.04541 0.51648 0.0
C9 C 0.96173 0.97198 0.54499 0.0
C10 C 0.97045 0.98289 0.38016 0.0
Eu11 Eu 0.99077 0.9912 0.46409 0.0
C12 C 0.97597 0.98805 0.33467 0.0
C13 C 1.00228 0.99176 0.32375 0.0
C14 C 0.00686 0.99534 0.27955 0.0
C15 C 0.9852 0.99541 0.24564 0.0
C16 C 0.95888 0.99217 0.25716 0.0
C17 C 0.95436 0.98852 0.3012 0.0
C18 C 0.02666 0.96035 0.50768 0.0
C19 C 0.04205 0.03394 0.47806 0.0
O20 O 0.03937 1.00101 0.61497 0.0
O21 O 0.01894 0.03916 0.62336 0.0
O22 O 0.99779 0.05501 0.54342 0.0
O23 O 0.97563 0.02016 0.51536 0.0
O24 O 0.98225 0.98325 0.5722 0.0
O25 O 0.95857 0.97518 0.50171 0.0
O26 O 0.96481 0.00369 0.40735 0.0
O27 O 0.98596 0.96593 0.40023 0.0
O28 O 0.00579 0.95065 0.48148 0.0
O29 O 0.02837 0.9855 0.50775 0.0
O30 O 0.0216 0.02252 0.45089 0.0
O31 O 0.04524 0.03083 0.52136 0.0
H32 H 0.98547 0.01284 0.67364 0.0
H33 H 0.97742 0.00611 0.75086 0.0
H34 H 0.06302 0.01223 0.79077 0.0
H35 H 0.07082 0.0186 0.71371 0.0
H36 H 0.01925 0.99164 0.34925 0.0
H37 H 0.02734 0.99811 0.27194 0.0
H38 H 0.94176 0.99177 0.23188 0.0
H39 H 0.93392 0.98566 0.309 0.0
C40 C 0.22634 0.77576 0.90846 0.0
Eu41 Eu 0.23448 0.76083 0.82553 0.0
C42 C 0.23853 0.77576 0.95538 0.0
C43 C 0.24952 0.75241 0.97144 0.0
C44 C 0.25692 0.7516 0.01746 0.0
C45 C 0.25359 0.77414 0.0484 0.0
C46 C 0.24399 0.79791 0.03175 0.0
C47 C 0.23646 0.79866 0.98579 0.0
C48 C 0.20243 0.72548 0.76951 0.0
C49 C 0.28028 0.71516 0.8205 0.0
C50 C 0.26588 0.71793 0.65543 0.0
Eu51 Eu 0.25489 0.74184 0.73231 0.0
C52 C 0.26836 0.72461 0.60952 0.0
C53 C 0.26418 0.75079 0.5979 0.0
C54 C 0.26549 0.75647 0.55352 0.0
C55 C 0.27099 0.73604 0.52001 0.0
C56 C 0.27534 0.70989 0.53215 0.0
C57 C 0.27402 0.70426 0.57646 0.0
C58 C 0.27735 0.78806 0.77549 0.0
C59 C 0.21142 0.78872 0.73891 0.0
O60 O 0.23676 0.79195 0.88289 0.0
O61 O 0.21857 0.75239 0.88695 0.0
O62 O 0.1932 0.74481 0.79524 0.0
O63 O 0.22759 0.7252 0.77564 0.0
O64 O 0.26823 0.73342 0.84607 0.0
O65 O 0.27641 0.71294 0.77606 0.0
O66 O 0.24159 0.7191 0.66811 0.0
O67 O 0.28438 0.72808 0.68696 0.0
O68 O 0.2737 0.7834 0.73204 0.0
O69 O 0.27115 0.76758 0.79326 0.0
O70 O 0.21932 0.76743 0.71401 0.0
O71 O 0.21862 0.79298 0.7828 0.0
H72 H 0.25142 0.73443 0.9487 0.0
H73 H 0.26407 0.73288 0.02892 0.0
H74 H 0.24171 0.81585 0.05436 0.0
H75 H 0.22809 0.8169 0.97418 0.0
H76 H 0.2597 0.76675 0.62305 0.0
H77 H 0.26232 0.77688 0.54553 0.0
H78 H 0.27919 0.69358 0.5072 0.0
H79 H 0.27709 0.68388 0.58478 0.0
C80 C 0.46659 0.00854 0.88949 0.0
Eu81 Eu 0.49144 0.00952 0.97039 0.0
C82 C 0.47246 0.00554 0.84226 0.0
C83 C 0.4986 0.00935 0.83069 0.0
C84 C 0.50337 0.00806 0.78542 0.0
C85 C 0.48206 0.00293 0.75091 0.0
C86 C 0.45602 0.99853 0.76292 0.0
C87 C 0.4513 0.99985 0.80811 0.0
C88 C 0.53521 0.03991 1.00521 0.0
C89 C 0.53905 0.96515 0.9761 0.0
C90 C 0.54317 0.99737 0.14452 0.0
Eu91 Eu 0.5184 0.99634 0.06356 0.0
C92 C 0.53709 1.00013 0.19163 0.0
C93 C 0.51088 0.99618 0.20282 0.0
C94 C 0.5059 0.9973 0.24797 0.0
C95 C 0.52706 1.0024 0.28274 0.0
C96 C 0.55316 0.00694 0.27112 0.0
C97 C 0.5581 0.00579 0.22605 0.0
C98 C 0.47526 0.96542 0.02838 0.0
C99 C 0.47038 0.04037 0.0577 0.0
O100 O 0.46927 0.98723 0.91132 0.0
O101 O 0.47577 0.03056 0.91386 0.0
O102 O 0.51535 0.0492 0.98058 0.0
O103 O 0.53188 0.01528 1.00702 0.0
O104 O 0.51703 0.97313 0.95309 0.0
O105 O 0.5465 0.97532 0.01804 0.0
O106 O 0.54024 0.01871 0.12285 0.0
O107 O 0.53431 0.9753 0.11994 0.0
O108 O 0.49527 0.95645 0.05309 0.0
O109 O 0.47799 0.99017 0.02678 0.0
O110 O 0.49238 0.03245 0.08087 0.0
O111 O 0.4632 0.03039 0.01562 0.0
H112 H 0.51522 0.01377 0.85663 0.0
H113 H 0.52362 0.01177 0.7775 0.0
H114 H 0.43922 0.99405 0.73737 0.0
H115 H 0.431 0.99675 0.8164 0.0
H116 H 0.49438 0.99178 0.17665 0.0
H117 H 0.48561 0.99349 0.25559 0.0
H118 H 0.56985 0.01141 0.29689 0.0
H119 H 0.57844 0.00902 0.21806 0.0
C120 C 0.23852 0.21796 0.13506 0.0
Eu121 Eu 0.24364 0.24019 0.21799 0.0
C122 C 0.2404 0.22438 0.08872 0.0
C123 C 0.22152 0.21275 0.05426 0.0
C124 C 0.22335 0.21738 1.00967 0.0
C125 C 0.2442 0.23374 0.99851 0.0
C126 C 0.26288 0.24578 0.03331 0.0
C127 C 0.261 0.24114 0.07803 0.0
C128 C 0.21168 0.27772 0.25493 0.0
C129 C 0.28501 0.29248 0.23149 0.0
C130 C 0.26937 0.28722 0.39608 0.0
Eu131 Eu 0.26424 0.26497 0.31315 0.0
C132 C 0.26732 0.28089 0.44241 0.0
C133 C 0.28609 0.29258 0.47699 0.0
C134 C 0.28411 0.28802 0.52158 0.0
C135 C 0.26321 0.27168 0.53261 0.0
C136 C 0.24463 0.25959 0.49769 0.0
C137 C 0.24666 0.26416 0.45299 0.0
C138 C 0.29617 0.22735 0.27624 0.0
C139 C 0.2228 0.21263 0.29929 0.0
O140 O 0.26091 0.21826 0.16188 0.0
O141 O 0.21844 0.22815 0.15521 0.0
O142 O 0.20261 0.25689 0.22814 0.0
O143 O 0.237 0.27887 0.25836 0.0
O144 O 0.2746 0.27133 0.20492 0.0
O145 O 0.28063 0.29653 0.27426 0.0
O146 O 0.24705 0.28709 0.36916 0.0
O147 O 0.2894 0.27681 0.37606 0.0
O148 O 0.30526 0.24815 0.30308 0.0
O149 O 0.27085 0.22628 0.2729 0.0
O150 O 0.23304 0.23383 0.32598 0.0
O151 O 0.22752 0.20854 0.25672 0.0
H152 H 0.20542 0.19984 0.06182 0.0
H153 H 0.20834 0.20818 0.98391 0.0
H154 H 0.27931 0.25831 0.02592 0.0
H155 H 0.27584 0.25033 0.10408 0.0
H156 H 0.30223 0.30547 0.46952 0.0
H157 H 0.29905 0.29725 0.54742 0.0
H158 H 0.22817 0.24708 0.50499 0.0
H159 H 0.2319 0.25492 0.42685 0.0
C160 C 0.74562 0.29155 0.36849 0.0
Eu161 Eu 0.75073 0.26355 0.29206 0.0
C162 C 0.74505 0.28658 0.41575 0.0
C163 C 0.74302 0.26035 0.42781 0.0
C164 C 0.74272 0.25595 0.47297 0.0
C165 C 0.74452 0.27772 0.50693 0.0
C166 C 0.74662 0.30396 0.49448 0.0
C167 C 0.74688 0.30832 0.44933 0.0
C168 C 0.72844 0.21458 0.26361 0.0
C169 C 0.79396 0.21694 0.2827 0.0
C170 C 0.76279 0.216 0.11321 0.0
Eu171 Eu 0.76368 0.23867 0.19568 0.0
C172 C 0.75739 0.2222 0.0664 0.0
C173 C 0.75811 0.24873 0.05521 0.0
C174 C 0.75508 0.25387 1.01005 0.0
C175 C 0.75131 0.23254 0.97536 0.0
C176 C 0.7498 0.20609 0.98705 0.0
C177 C 0.75285 0.201 0.03209 0.0
C178 C 0.79734 0.27823 0.23764 0.0
C179 C 0.72161 0.2879 0.20279 0.0
O180 O 0.76877 0.28792 0.35214 0.0
O181 O 0.72511 0.28189 0.34041 0.0
O182 O 0.73356 0.22317 0.30577 0.0
O183 O 0.73204 0.23314 0.23975 0.0
O184 O 0.78875 0.24021 0.3051 0.0
O185 O 0.78227 0.20936 0.24166 0.0
O186 O 0.74226 0.21544 0.1367 0.0
O187 O 0.78416 0.22751 0.1364 0.0
O188 O 0.80536 0.25833 0.21151 0.0
O189 O 0.77235 0.27691 0.23803 0.0
O190 O 0.73429 0.27059 0.17638 0.0
O191 O 0.72527 0.28939 0.24731 0.0
H192 H 0.74165 0.24329 0.4023 0.0
H193 H 0.74077 0.23551 0.4812 0.0
H194 H 0.74847 0.32117 0.51968 0.0
H195 H 0.74864 0.3287 0.44064 0.0
H196 H 0.76159 0.26539 0.08131 0.0
H197 H 0.75651 0.27446 1.00231 0.0
H198 H 0.7464 0.18923 0.96133 0.0
H199 H 0.75212 0.1804 0.04011 0.0
C200 C 0.73517 0.7181 0.62903 0.0
Eu201 Eu 0.74104 0.7401 0.71211 0.0
C202 C 0.73727 0.72444 0.58271 0.0
C203 C 0.71835 0.71301 0.54815 0.0
C204 C 0.72039 0.71754 0.50357 0.0
C205 C 0.74151 0.73359 0.49251 0.0
C206 C 0.76023 0.74544 0.52741 0.0
C207 C 0.75815 0.7409 0.57212 0.0
C208 C 0.70985 0.77788 0.75025 0.0
C209 C 0.78301 0.79207 0.72546 0.0
C210 C 0.76913 0.78615 0.89033 0.0
Eu211 Eu 0.7628 0.76435 0.80714 0.0
C212 C 0.76688 0.77983 0.9366 0.0
C213 C 0.78583 0.79111 0.97125 0.0
C214 C 0.78365 0.78659 0.0158 0.0
C215 C 0.76238 0.7707 0.02673 0.0
C216 C 0.74362 0.759 0.99174 0.0
C217 C 0.74583 0.76354 0.94707 0.0
C218 C 0.79384 0.72655 0.76835 0.0
C219 C 0.7206 0.71272 0.79412 0.0
O220 O 0.75754 0.71767 0.6557 0.0
O221 O 0.71546 0.72895 0.64937 0.0
O222 O 0.70037 0.75727 0.72328 0.0
O223 O 0.73518 0.77873 0.75318 0.0
O224 O 0.77221 0.77112 0.69876 0.0
O225 O 0.77898 0.79596 0.76837 0.0
O226 O 0.74678 0.78708 0.86374 0.0
O227 O 0.78859 0.77488 0.86986 0.0
O228 O 0.80347 0.74727 0.7949 0.0
O229 O 0.76855 0.72575 0.7661 0.0
O230 O 0.73151 0.73365 0.82064 0.0
O231 O 0.72454 0.70869 0.75116 0.0
H232 H 0.70204 0.70032 0.55563 0.0
H233 H 0.70534 0.70849 0.47774 0.0
H234 H 0.77687 0.75773 0.5201 0.0
H235 H 0.77303 0.74993 0.59825 0.0
H236 H 0.80226 0.80366 0.96386 0.0
H237 H 0.79872 0.79552 0.0417 0.0
H238 H 0.72687 0.74684 0.99895 0.0
H239 H 0.73092 0.75464 0.92087 0.0
C240 C 0.53772 0.51553 0.1441 0.0
Eu241 Eu 0.51492 0.51309 0.06169 0.0
C242 C 0.53107 0.51265 0.19 0.0
C243 C 0.50704 0.52235 0.2053 0.0
C244 C 0.50188 0.52029 0.24971 0.0
C245 C 0.52055 0.50831 0.27948 0.0
C246 C 0.54433 0.49821 0.26363 0.0
C247 C 0.54952 0.50041 0.21938 0.0
C248 C 0.47574 0.54465 0.02845 0.0
C249 C 0.46329 0.47067 0.04643 0.0
C250 C 0.46701 0.4914 0.88336 0.0
Eu251 Eu 0.48969 0.49403 0.96586 0.0
C252 C 0.47374 0.4942 0.83748 0.0
C253 C 0.49781 0.48449 0.82237 0.0
C254 C 0.50306 0.48649 0.77798 0.0
C255 C 0.48444 0.4984 0.74805 0.0
C256 C 0.46061 0.5085 0.76371 0.0
C257 C 0.45533 0.50638 0.80793 0.0
C258 C 0.52894 0.46256 0.99934 0.0
C259 C 0.54127 0.5365 0.98109 0.0
O260 O 0.53637 0.49362 0.11608 0.0
O261 O 0.52846 0.53649 0.12531 0.0
O262 O 0.49625 0.55381 0.05601 0.0
O263 O 0.47568 0.51936 0.02283 0.0
O264 O 0.48445 0.48097 0.07313 0.0
O265 O 0.45881 0.47594 1.00414 0.0
O266 O 0.46827 0.51336 0.91126 0.0
O267 O 0.47627 0.4705 0.90231 0.0
O268 O 0.50842 0.45331 0.97188 0.0
O269 O 0.52891 0.48784 1.00464 0.0
O270 O 0.52011 0.52619 0.95442 0.0
O271 O 0.54578 0.53122 0.02337 0.0
H272 H 0.49238 0.53169 0.18308 0.0
H273 H 0.48322 0.52796 0.26069 0.0
H274 H 0.55927 0.48915 0.28574 0.0
H275 H 0.56818 0.4928 0.20822 0.0
H276 H 0.51245 0.47521 0.84471 0.0
H277 H 0.52175 0.47882 0.76714 0.0
H278 H 0.44571 0.51752 0.74147 0.0
H279 H 0.43664 0.51398 0.81895 0.0
C280 C 0.96099 0.49555 0.3803 0.0
Eu281 Eu 0.98594 0.50292 0.46149 0.0
C282 C 0.9676 0.49431 0.33352 0.0
C283 C 0.99312 0.50227 0.32358 0.0
C284 C 0.99858 0.50227 0.27881 0.0
C285 C 0.97863 0.49426 0.24314 0.0
C286 C 0.95322 0.48592 0.25351 0.0
C287 C 0.94779 0.48598 0.29823 0.0
C288 C 0.02797 0.53728 0.48831 0.0
C289 C 0.03602 0.46219 0.47547 0.0
C290 C 0.03915 0.50442 0.63905 0.0
Eu291 Eu 0.01438 0.49764 0.55768 0.0
C292 C 0.0326 0.50597 0.6859 0.0
C293 C 0.0071 0.49814 0.69614 0.0
C294 C 1.00177 0.49832 0.74101 0.0
C295 C 0.02183 0.50638 0.77648 0.0
C296 C 0.0472 0.51462 0.76582 0.0
C297 C 0.0525 0.51438 0.72101 0.0
C298 C 0.97206 0.46349 0.52994 0.0
C299 C 0.9647 0.53878 0.54383 0.0
O300 O 0.96926 0.47581 0.40322 0.0
O301 O 0.96435 0.51903 0.40394 0.0
O302 O 0.00784 0.54285 0.46038 0.0
O303 O 0.02629 0.51337 0.49671 0.0
O304 O 0.01291 0.46676 0.45196 0.0
O305 O 0.04356 0.476 0.51485 0.0
O306 O 0.03154 0.52437 0.61611 0.0
O307 O 0.03514 0.481 0.61542 0.0
O308 O 0.99233 0.45738 0.55714 0.0
O309 O 0.97413 0.4875 0.52254 0.0
O310 O 0.98772 0.53396 0.56737 0.0
O311 O 0.95703 0.52503 0.50443 0.0
H312 H 0.00872 0.50872 0.35043 0.0
H313 H 0.01846 0.50847 0.27214 0.0
H314 H 0.93726 0.47995 0.22705 0.0
H315 H 0.92794 0.47987 0.30526 0.0
H316 H 0.99143 0.49163 0.66945 0.0
H317 H 0.98191 0.49219 0.74791 0.0
H318 H 0.06324 0.52063 0.79212 0.0
H319 H 0.07234 0.52038 0.71377 0.0
C320 C 0.08071 0.06725 0.48802 0.0
C321 C 0.06183 0.05083 0.45934 0.0
C322 C 0.09875 0.08389 0.47048 0.0
C323 C 0.1092 0.11533 0.36656 0.0
H324 H 0.18159 0.12831 0.42543 0.0
C325 C 0.19048 0.17315 0.2888 0.0
C326 C 0.2057 0.1929 0.3177 0.0
C327 C 0.17352 0.15522 0.30588 0.0
C328 C 0.16138 0.12503 0.40881 0.0
H329 H 0.04755 0.03865 0.38952 0.0
H330 H 0.0794 0.06703 0.35894 0.0
H331 H 0.15119 0.09779 0.45504 0.0
H332 H 0.2153 0.2089 0.38745 0.0
H333 H 0.18585 0.17747 0.41721 0.0
H334 H 0.11963 0.14233 0.31999 0.0
C335 C 0.07989 0.06762 0.39509 0.0
C336 C 0.14387 0.10757 0.42584 0.0
C337 C 0.06169 0.05116 0.41265 0.0
C338 C 0.20385 0.194 0.36419 0.0
C339 C 0.18708 0.17588 0.38131 0.0
C340 C 0.12679 0.13257 0.34932 0.0
C341 C 0.09856 0.08438 0.42375 0.0
C342 C 0.11748 0.10255 0.40507 0.0
C343 C 0.17154 0.15642 0.35231 0.0
C344 C 0.15304 0.13771 0.37033 0.0
H345 H 0.08128 0.06766 0.52417 0.0
H346 H 0.11247 0.09678 0.49371 0.0
H347 H 0.08892 0.11244 0.35009 0.0
H348 H 0.19136 0.17173 0.25282 0.0
H349 H 0.16202 0.14029 0.28271 0.0
C350 C 0.07028 0.95496 0.55476 0.0
C351 C 0.04569 0.94396 0.53353 0.0
C352 C 0.0884 0.93901 0.57838 0.0
C353 C 0.10463 0.86742 0.58826 0.0
H354 H 0.14803 0.89648 0.6972 0.0
C355 C 0.17979 0.82746 0.74194 0.0
C356 C 0.19359 0.80796 0.71667 0.0
C357 C 0.16219 0.84483 0.72047 0.0
C358 C 0.13589 0.88796 0.66705 0.0
H359 H 0.02039 0.90799 0.5212 0.0
H360 H 0.05153 0.88036 0.5631 0.0
H361 H 0.11576 0.92502 0.65932 0.0
H362 H 0.20037 0.79206 0.64897 0.0
H363 H 0.17038 0.82261 0.61178 0.0
H364 H 0.12397 0.83018 0.59663 0.0
C365 C 0.0573 0.90105 0.56072 0.0
C366 C 0.11762 0.90445 0.64496 0.0
C367 C 0.03934 0.91691 0.53689 0.0
C368 C 0.18984 0.80662 0.66954 0.0
C369 C 0.17247 0.82408 0.64814 0.0
C370 C 0.12272 0.85094 0.61044 0.0
C371 C 0.08221 0.91177 0.58142 0.0
C372 C 0.10173 0.89439 0.60524 0.0
C373 C 0.15814 0.84322 0.67324 0.0
C374 C 0.1387 0.86097 0.65005 0.0
H375 H 0.07569 0.97577 0.55256 0.0
H376 H 0.10748 0.94791 0.5934 0.0
H377 H 0.09307 0.85901 0.55745 0.0
H378 H 0.18216 0.82899 0.77831 0.0
H379 H 0.15131 0.8591 0.74094 0.0
C380 C 0.29489 0.81385 0.84736 0.0
C381 C 0.29281 0.81089 0.80034 0.0
C382 C 0.31176 0.83358 0.87183 0.0
C383 C 0.35535 0.89308 0.86265 0.0
H384 H 0.39354 0.86861 0.96933 0.0
C385 C 0.45568 0.9209 0.99643 0.0
C386 C 0.45352 0.94886 1.00268 0.0
C387 C 0.43531 0.90525 0.97076 0.0
C388 C 0.38333 0.87566 0.93935 0.0
H389 H 0.30599 0.82652 0.74156 0.0
H390 H 0.33695 0.86016 0.78438 0.0
H391 H 0.35905 0.84002 0.92564 0.0
H392 H 0.4287 0.98268 0.98761 0.0
H393 H 0.3925 0.9553 0.94425 0.0
H394 H 0.381 0.92812 0.8752 0.0
C395 C 0.32481 0.84789 0.80248 0.0
C396 C 0.3631 0.85947 0.91471 0.0
C397 C 0.30725 0.82853 0.77792 0.0
C398 C 0.43073 0.96106 0.98315 0.0
C399 C 0.41016 0.94541 0.95801 0.0
C400 C 0.37598 0.90915 0.88699 0.0
C401 C 0.32773 0.85014 0.84978 0.0
C402 C 0.34877 0.868 0.87617 0.0
C403 C 0.41221 0.91732 0.95156 0.0
C404 C 0.39021 0.90056 0.92559 0.0
H405 H 0.28418 0.80033 0.86541 0.0
H406 H 0.3129 0.83524 0.90815 0.0
H407 H 0.34459 0.90034 0.83332 0.0
H408 H 0.47329 0.91115 1.01078 0.0
H409 H 0.4378 0.88372 0.96565 0.0
C410 C 0.46189 0.07573 0.11966 0.0
C411 C 0.45235 0.05929 0.0804 0.0
C412 C 0.44474 0.09357 0.14102 0.0
C413 C 0.37837 0.12648 0.12202 0.0
H414 H 0.38782 0.14144 0.25182 0.0
C415 C 0.30203 0.18546 0.22509 0.0
C416 C 0.31334 0.20705 0.25495 0.0
C417 C 0.31859 0.1669 0.20391 0.0
C418 C 0.38503 0.13747 0.21553 0.0
H419 H 0.41724 0.04825 0.0332 0.0
H420 H 0.38714 0.07843 0.07122 0.0
H421 H 0.41732 0.10989 0.21471 0.0
H422 H 0.3507 0.22579 0.28706 0.0
H423 H 0.37957 0.19292 0.25103 0.0
H424 H 0.3455 0.15361 0.12338 0.0
C425 C 0.40804 0.07836 0.08489 0.0
C426 C 0.40204 0.11953 0.19414 0.0
C427 C 0.42529 0.06088 0.06315 0.0
C428 C 0.34144 0.20937 0.26411 0.0
C429 C 0.35795 0.19055 0.24362 0.0
C430 C 0.36108 0.14405 0.14353 0.0
C431 C 0.41751 0.09506 0.12406 0.0
C432 C 0.3991 0.1139 0.14701 0.0
C433 C 0.3467 0.16927 0.21305 0.0
C434 C 0.36437 0.14985 0.19043 0.0
H435 H 0.48271 0.07509 0.13359 0.0
H436 H 0.453 0.10642 0.17054 0.0
H437 H 0.37572 0.12315 0.08569 0.0
H438 H 0.28042 0.183 0.21791 0.0
H439 H 0.30944 0.15052 0.18074 0.0
C440 C 0.92273 0.93907 0.53466 0.0
C441 C 0.94191 0.95504 0.56353 0.0
C442 C 0.90478 0.92222 0.55195 0.0
C443 C 0.87339 0.91137 0.65438 0.0
H444 H 0.86266 0.8381 0.59866 0.0
C445 C 0.81569 0.83125 0.73506 0.0
C446 C 0.79986 0.8118 0.70657 0.0
C447 C 0.83232 0.84924 0.71739 0.0
C448 C 0.86503 0.85859 0.61427 0.0
H449 H 0.9569 0.96609 0.63343 0.0
H450 H 0.92541 0.93685 0.66352 0.0
H451 H 0.89253 0.86866 0.56825 0.0
H452 H 0.78868 0.79649 0.63691 0.0
H453 H 0.81708 0.82819 0.60606 0.0
H454 H 0.84566 0.90151 0.70007 0.0
C455 C 0.92427 0.93741 0.62748 0.0
C456 C 0.88226 0.87611 0.59686 0.0
C457 C 0.94241 0.95407 0.61018 0.0
C458 C 0.80076 0.81104 0.65991 0.0
C459 C 0.81722 0.82918 0.6422 0.0
C460 C 0.85595 0.89393 0.67159 0.0
C461 C 0.9054 0.92111 0.59854 0.0
C462 C 0.88672 0.90267 0.61678 0.0
C463 C 0.8334 0.84841 0.6707 0.0
C464 C 0.8516 0.86724 0.65189 0.0
H465 H 0.92176 0.93926 0.49857 0.0
H466 H 0.8903 0.91013 0.5288 0.0
H467 H 0.87615 0.93182 0.67016 0.0
H468 H 0.81564 0.83231 0.77119 0.0
H469 H 0.84476 0.86343 0.74051 0.0
C470 C 0.96109 0.09018 0.49693 0.0
C471 C 0.95757 0.06211 0.49233 0.0
C472 C 0.94278 0.1062 0.4741 0.0
C473 C 0.89415 0.10585 0.37498 0.0
H474 H 0.86506 0.16782 0.44034 0.0
C475 C 0.81239 0.17107 0.2909 0.0
C476 C 0.81298 0.19876 0.30489 0.0
C477 C 0.82961 0.15381 0.31338 0.0
C478 C 0.87328 0.15089 0.42128 0.0
H479 H 0.93187 0.02879 0.46092 0.0
H480 H 0.90025 0.05682 0.41969 0.0
H481 H 0.89594 0.13896 0.48013 0.0
H482 H 0.83265 0.23022 0.35248 0.0
H483 H 0.86331 0.20049 0.39042 0.0
H484 H 0.8723 0.11813 0.31584 0.0
C485 C 0.91723 0.06635 0.441 0.0
C486 C 0.89086 0.13425 0.44425 0.0
C487 C 0.93533 0.05034 0.46449 0.0
C488 C 0.8315 0.20892 0.34119 0.0
C489 C 0.84897 0.19177 0.36319 0.0
C490 C 0.87686 0.12273 0.3518 0.0
C491 C 0.92075 0.09446 0.44573 0.0
C492 C 0.90153 0.11162 0.42134 0.0
C493 C 0.84809 0.16391 0.35 0.0
C494 C 0.86624 0.14557 0.3746 0.0
H495 H 0.97804 0.09982 0.5182 0.0
H496 H 0.94607 0.1278 0.47812 0.0
H497 H 0.90229 0.08864 0.35644 0.0
H498 H 0.79818 0.1626 0.26326 0.0
H499 H 0.82799 0.13248 0.30256 0.0
C500 C 0.69199 0.18066 0.26483 0.0
C501 C 0.71459 0.18928 0.24591 0.0
C502 C 0.67518 0.16023 0.24154 0.0
C503 C 0.65443 0.13634 0.1253 0.0
H504 H 0.61558 0.0803 0.17332 0.0
C505 C 0.57732 0.04277 0.0568 0.0
C506 C 0.55735 0.05582 0.03131 0.0
C507 C 0.59764 0.05757 0.08397 0.0
C508 C 0.62643 0.09581 0.15952 0.0
H509 H 0.73975 0.18138 0.19206 0.0
H510 H 0.71042 0.14578 0.15105 0.0
H511 H 0.65109 0.10651 0.22164 0.0
H512 H 0.5431 0.09433 0.01308 0.0
H513 H 0.57913 0.12044 0.06042 0.0
H514 H 0.62971 0.12592 0.06342 0.0
C515 C 0.70512 0.15523 0.18291 0.0
C516 C 0.64658 0.1108 0.18713 0.0
C517 C 0.72177 0.17563 0.20608 0.0
C518 C 0.55834 0.08388 0.03245 0.0
C519 C 0.57888 0.09873 0.05942 0.0
C520 C 0.63419 0.12155 0.09789 0.0
C521 C 0.68104 0.14827 0.19937 0.0
C522 C 0.66074 0.13117 0.17018 0.0
C523 C 0.59852 0.08566 0.08569 0.0
C524 C 0.61998 0.10123 0.11479 0.0
H525 H 0.68625 0.19102 0.29572 0.0
H526 H 0.6567 0.15517 0.25493 0.0
H527 H 0.66475 0.15227 0.11163 0.0
H528 H 0.57711 0.02109 0.05619 0.0
H529 H 0.61278 0.04704 0.10341 0.0
C530 C 0.70474 0.81962 0.80215 0.0
C531 C 0.69303 0.79815 0.77246 0.0
C532 C 0.68854 0.83815 0.82424 0.0
C533 C 0.62222 0.86783 0.81538 0.0
H534 H 0.63313 0.88172 0.94522 0.0
C535 C 0.5468 0.92953 0.91421 0.0
C536 C 0.55677 0.94599 0.9532 0.0
C537 C 0.56363 0.91161 0.89233 0.0
C538 C 0.63003 0.87851 0.9089 0.0
H539 H 0.65531 0.77959 0.74157 0.0
H540 H 0.62705 0.81241 0.77919 0.0
H541 H 0.66275 0.85123 0.90612 0.0
H542 H 0.59228 0.95686 0.99955 0.0
H543 H 0.62187 0.92649 0.9606 0.0
H544 H 0.5901 0.89555 0.81758 0.0
C545 C 0.64872 0.8147 0.78577 0.0
C546 C 0.64698 0.86092 0.88659 0.0
C547 C 0.66488 0.79592 0.76437 0.0
C548 C 0.58393 0.94425 0.96979 0.0
C549 C 0.60088 0.92667 0.94751 0.0
C550 C 0.60556 0.88578 0.83757 0.0
C551 C 0.66038 0.83585 0.81618 0.0
C552 C 0.64309 0.85528 0.83967 0.0
C553 C 0.59098 0.91004 0.90848 0.0
C554 C 0.60908 0.89123 0.88472 0.0
H555 H 0.72639 0.82204 0.80847 0.0
H556 H 0.698 0.85444 0.84725 0.0
H557 H 0.61899 0.864 0.7791 0.0
H558 H 0.52589 0.93026 0.90082 0.0
H559 H 0.55505 0.8988 0.86299 0.0
C560 C 0.58091 0.56872 0.99071 0.0
C561 C 0.56082 0.55363 0.96235 0.0
C562 C 0.59894 0.58528 0.97294 0.0
C563 C 0.62864 0.59575 0.86878 0.0
H564 H 0.64273 0.66849 0.92508 0.0
C565 C 0.68698 0.67432 0.78553 0.0
C566 C 0.70374 0.69323 0.8135 0.0
C567 C 0.67025 0.65674 0.80394 0.0
C568 C 0.63942 0.64811 0.90927 0.0
H569 H 0.54422 0.54392 0.89287 0.0
H570 H 0.57579 0.57262 0.86201 0.0
H571 H 0.61272 0.63877 0.95704 0.0
H572 H 0.71657 0.70792 0.88291 0.0
H573 H 0.68806 0.67694 0.91495 0.0
H574 H 0.65557 0.60484 0.82135 0.0
C575 C 0.5776 0.57161 0.89799 0.0
C576 C 0.62212 0.63109 0.92759 0.0
C577 C 0.5594 0.55528 0.91576 0.0
C578 C 0.70372 0.69381 0.86032 0.0
C579 C 0.6872 0.67609 0.87873 0.0
C580 C 0.64616 0.61267 0.85067 0.0
C581 C 0.59749 0.58691 0.92637 0.0
C582 C 0.61642 0.60476 0.90745 0.0
C583 C 0.67002 0.65746 0.85082 0.0
C584 C 0.65171 0.63916 0.87053 0.0
H585 H 0.58257 0.56796 0.02673 0.0
H586 H 0.61419 0.59665 0.99565 0.0
H587 H 0.62492 0.57544 0.8528 0.0
H588 H 0.68635 0.67343 0.74931 0.0
H589 H 0.65706 0.64299 0.78127 0.0
C590 C 0.69769 0.33167 0.20477 0.0
C591 C 0.70305 0.30682 0.18157 0.0
C592 C 0.68015 0.34954 0.18457 0.0
C593 C 0.64472 0.36242 0.07287 0.0
H594 H 0.60125 0.40822 0.14721 0.0
C595 C 0.5497 0.41788 1.00684 0.0
C596 C 0.55022 0.44578 0.01901 0.0
C597 C 0.5695 0.40179 0.02591 0.0
C598 C 0.61342 0.39563 0.12618 0.0
H599 H 0.69394 0.28097 0.11933 0.0
H600 H 0.66235 0.31129 0.08499 0.0
H601 H 0.63293 0.37799 0.18218 0.0
H602 H 0.57216 0.47881 0.05979 0.0
H603 H 0.60611 0.45036 0.09486 0.0
H604 H 0.62389 0.37932 0.01671 0.0
C605 C 0.67239 0.31768 0.11807 0.0
C606 C 0.63176 0.37839 0.14614 0.0
C607 C 0.69039 0.3001 0.1379 0.0
C608 C 0.57101 0.45731 0.05038 0.0
C609 C 0.59045 0.44111 0.0703 0.0
C610 C 0.62594 0.37921 0.0529 0.0
C611 C 0.66704 0.34274 0.14101 0.0
C612 C 0.64771 0.36148 0.1198 0.0
C613 C 0.58985 0.41322 0.05815 0.0
C614 C 0.61017 0.39596 0.07939 0.0
H615 H 0.70738 0.33752 0.23832 0.0
H616 H 0.67715 0.3688 0.2031 0.0
H617 H 0.65697 0.3503 0.05137 0.0
H618 H 0.53397 0.40847 0.9826 0.0
H619 H 0.56862 0.3803 0.01616 0.0
C620 C 0.93368 0.45307 0.47172 0.0
C621 C 0.95189 0.44443 0.50557 0.0
C622 C 0.91617 0.43478 0.44508 0.0
C623 C 0.90622 0.36167 0.41113 0.0
H624 H 0.83817 0.38583 0.35741 0.0
C625 C 0.84293 0.29618 0.26873 0.0
C626 C 0.8149 0.29774 0.267 0.0
C627 C 0.85933 0.31409 0.2987 0.0
C628 C 0.85684 0.37846 0.3726 0.0
H629 H 0.96516 0.41042 0.54041 0.0
H630 H 0.93322 0.37846 0.49565 0.0
H631 H 0.86536 0.41586 0.41239 0.0
H632 H 0.78185 0.31958 0.29344 0.0
H633 H 0.81007 0.34924 0.34801 0.0
H634 H 0.89675 0.32361 0.37352 0.0
C635 C 0.93332 0.39915 0.48812 0.0
C636 C 0.87278 0.39597 0.40366 0.0
C637 C 0.95141 0.41744 0.51409 0.0
C638 C 0.80347 0.31767 0.29483 0.0
C639 C 0.81974 0.33499 0.32563 0.0
C640 C 0.88989 0.34386 0.38096 0.0
C641 C 0.91583 0.40753 0.45271 0.0
C642 C 0.8979 0.388 0.42271 0.0
C643 C 0.84791 0.33348 0.32802 0.0
C644 C 0.86514 0.35214 0.36086 0.0
H645 H 0.9335 0.47389 0.46479 0.0
H646 H 0.90348 0.44202 0.41768 0.0
H647 H 0.92558 0.35488 0.42459 0.0
H648 H 0.85216 0.28109 0.24715 0.0
H649 H 0.88091 0.31273 0.2987 0.0
C650 C 0.83852 0.7098 0.74975 0.0
C651 C 0.81042 0.70673 0.74449 0.0
C652 C 0.85443 0.69158 0.72657 0.0
C653 C 0.85283 0.62335 0.66336 0.0
H654 H 0.91835 0.64981 0.62287 0.0
C655 C 0.91892 0.55829 0.54837 0.0
C656 C 0.94646 0.55863 0.56381 0.0
C657 C 0.90161 0.57643 0.56869 0.0
C658 C 0.90015 0.64215 0.63413 0.0
H659 H 0.77686 0.6819 0.71164 0.0
H660 H 0.80448 0.65065 0.66953 0.0
H661 H 0.8892 0.6812 0.66099 0.0
H662 H 0.97751 0.5786 0.61201 0.0
H663 H 0.94736 0.61055 0.64677 0.0
H664 H 0.86375 0.5843 0.63537 0.0
C665 C 0.81439 0.66683 0.6922 0.0
C666 C 0.88348 0.66009 0.65624 0.0
C667 C 0.79849 0.6849 0.71596 0.0
C668 C 0.95639 0.57777 0.5994 0.0
C669 C 0.93917 0.59615 0.61918 0.0
C670 C 0.86935 0.60546 0.64063 0.0
C671 C 0.84261 0.66998 0.69707 0.0
C672 C 0.85974 0.65091 0.67173 0.0
C673 C 0.91158 0.59554 0.60426 0.0
C674 C 0.89333 0.61465 0.62627 0.0
H675 H 0.84828 0.72634 0.77186 0.0
H676 H 0.87606 0.69437 0.73216 0.0
H677 H 0.83497 0.61541 0.67527 0.0
H678 H 0.91065 0.54373 0.52112 0.0
H679 H 0.88044 0.57564 0.55639 0.0
C680 C 0.30203 0.31158 0.16559 0.0
C681 C 0.30175 0.31219 0.21236 0.0
C682 C 0.31844 0.32952 0.14742 0.0
C683 C 0.35864 0.39346 0.17595 0.0
H684 H 0.39282 0.36781 0.07014 0.0
C685 C 0.4451 0.45183 0.11167 0.0
C686 C 0.44378 0.45345 0.06508 0.0
C687 C 0.42699 0.43534 0.12932 0.0
C688 C 0.38322 0.37536 0.09943 0.0
H689 H 0.31853 0.33225 0.27672 0.0
H690 H 0.34765 0.36306 0.2452 0.0
H691 H 0.36304 0.33772 0.10176 0.0
H692 H 0.42228 0.43894 1.00058 0.0
H693 H 0.39083 0.40996 0.03145 0.0
H694 H 0.37948 0.43095 0.17402 0.0
C695 C 0.33475 0.34913 0.22237 0.0
C696 C 0.36604 0.35813 0.11756 0.0
C697 C 0.31812 0.33133 0.24053 0.0
C698 C 0.42386 0.4382 0.0366 0.0
C699 C 0.40593 0.42148 0.05425 0.0
C700 C 0.37604 0.41061 0.15805 0.0
C701 C 0.33525 0.3484 0.17553 0.0
C702 C 0.35346 0.36692 0.15608 0.0
C703 C 0.40729 0.41984 0.10081 0.0
C704 C 0.38852 0.40176 0.11957 0.0
H705 H 0.28949 0.29729 0.14284 0.0
H706 H 0.31779 0.32865 0.11122 0.0
H707 H 0.34902 0.40117 0.20511 0.0
H708 H 0.46015 0.46332 0.13464 0.0
H709 H 0.42872 0.43434 0.1653 0.0
C710 C 0.43391 0.55019 0.97706 0.0
C711 C 0.45465 0.56157 1.00856 0.0
C712 C 0.4147 0.5665 0.95683 0.0
C713 C 0.40201 0.63854 0.93934 0.0
H714 H 0.32938 0.6113 0.90182 0.0
C715 C 0.31231 0.70482 0.88578 0.0
C716 C 0.29936 0.69701 0.84254 0.0
C717 C 0.33103 0.6881 0.90611 0.0
C718 C 0.34964 0.61907 0.91206 0.0
H719 H 0.47095 0.59873 0.04521 0.0
H720 H 0.43672 0.627 1.01218 0.0
H721 H 0.36206 0.58269 0.93862 0.0
H722 H 0.29539 0.66532 0.78718 0.0
H723 H 0.32754 0.63569 0.82358 0.0
H724 H 0.38891 0.67534 0.91426 0.0
C725 C 0.4358 0.60569 1.0012 0.0
C726 C 0.3685 0.60265 0.93287 0.0
C727 C 0.45534 0.58944 0.0206 0.0
C728 C 0.30513 0.67192 0.82043 0.0
C729 C 0.3234 0.65493 0.84124 0.0
C730 C 0.38296 0.6551 0.91946 0.0
C731 C 0.41536 0.59454 0.96854 0.0
C732 C 0.39504 0.61209 0.9467 0.0
C733 C 0.33668 0.66301 0.88405 0.0
C734 C 0.35668 0.64547 0.90548 0.0
H735 H 0.43269 0.5287 0.96758 0.0
H736 H 0.39962 0.55705 0.93148 0.0
H737 H 0.42229 0.64647 0.94835 0.0
H738 H 0.30836 0.72408 0.90359 0.0
H739 H 0.34098 0.69469 0.93922 0.0
C740 C 0.19845 0.68722 0.70965 0.0
C741 C 0.18603 0.70699 0.73636 0.0
C742 C 0.18313 0.67005 0.67715 0.0
C743 C 0.11418 0.66023 0.61676 0.0
H744 H 0.13768 0.58691 0.59532 0.0
C745 C 0.05057 0.58229 0.49551 0.0
C746 C 0.04908 0.55643 0.50915 0.0
C747 C 0.06965 0.60099 0.51761 0.0
C748 C 0.13065 0.60723 0.60118 0.0
H749 H 0.14799 0.7239 0.75171 0.0
H750 H 0.12088 0.69268 0.69717 0.0
H751 H 0.16512 0.61877 0.64705 0.0
H752 H 0.06666 0.52926 0.55503 0.0
H753 H 0.09862 0.56214 0.59554 0.0
H754 H 0.07857 0.64802 0.57386 0.0
C755 C 0.14254 0.69124 0.69941 0.0
C756 C 0.14669 0.62572 0.63033 0.0
C757 C 0.158 0.70893 0.73108 0.0
C758 C 0.06729 0.54922 0.54424 0.0
C759 C 0.08589 0.56802 0.56702 0.0
C760 C 0.09779 0.64153 0.5885 0.0
C761 C 0.15495 0.67166 0.67185 0.0
C762 C 0.13853 0.6524 0.63889 0.0
C763 C 0.08715 0.59425 0.55429 0.0
C764 C 0.10566 0.6147 0.58086 0.0
H765 H 0.22005 0.68501 0.71378 0.0
H766 H 0.19349 0.65558 0.65619 0.0
H767 H 0.10751 0.68073 0.62167 0.0
H768 H 0.03686 0.58815 0.4681 0.0
H769 H 0.07045 0.62078 0.50623 0.0
C770 C 0.20579 0.31913 0.30722 0.0
C771 C 0.19449 0.29726 0.27804 0.0
C772 C 0.1893 0.33688 0.33032 0.0
C773 C 0.11947 0.34252 0.36326 0.0
H774 H 0.13821 0.41848 0.38582 0.0
C775 C 0.04503 0.42359 0.41953 0.0
C776 C 0.05456 0.44265 0.45551 0.0
C777 C 0.06259 0.40553 0.39985 0.0
C778 C 0.13287 0.39726 0.38007 0.0
H779 H 0.15714 0.27728 0.24888 0.0
H780 H 0.12836 0.30871 0.28748 0.0
H781 H 0.16787 0.38797 0.3467 0.0
H782 H 0.09001 0.45774 0.49899 0.0
H783 H 0.12078 0.4264 0.46394 0.0
H784 H 0.08401 0.35213 0.39542 0.0
C785 C 0.14993 0.31176 0.29404 0.0
C786 C 0.1499 0.37972 0.35779 0.0
C787 C 0.16643 0.29385 0.27148 0.0
C788 C 0.08203 0.44323 0.47142 0.0
C789 C 0.09968 0.42543 0.45123 0.0
C790 C 0.10229 0.36012 0.38493 0.0
C791 C 0.16111 0.33338 0.32417 0.0
C792 C 0.14337 0.3521 0.34887 0.0
C793 C 0.09011 0.4064 0.41526 0.0
C794 C 0.10877 0.38767 0.39342 0.0
H795 H 0.22738 0.32238 0.31255 0.0
H796 H 0.19872 0.35309 0.35352 0.0
H797 H 0.11401 0.32134 0.35804 0.0
H798 H 0.02396 0.42259 0.40656 0.0
H799 H 0.05471 0.39119 0.37196 0.0
C800 C 0.9941 0.01975 0.84429 0.0
C801 C 0.01495 0.00593 0.82454 0.0
C802 C 0.99076 0.0184 0.88963 0.0
C803 C 0.02798 0.00334 0.99683 0.0
H804 H 0.95682 0.99895 0.03616 0.0
C805 C 0.0107 0.98426 0.17849 0.0
C806 C 0.98984 0.9981 0.19817 0.0
C807 C 0.01406 0.98555 0.13314 0.0
C808 C 0.97684 1.0005 0.02584 0.0
H809 H 0.048 0.97904 0.83672 0.0
H810 H 0.0421 0.97659 0.91562 0.0
H811 H 0.96161 0.99988 0.95654 0.0
H812 H 0.95678 0.02495 0.18585 0.0
H813 H 0.9627 0.02731 0.10695 0.0
H814 H 0.04321 0.00396 0.06614 0.0
C815 C 0.02867 0.98893 0.89632 0.0
C816 C 0.97958 1.00101 0.98013 0.0
C817 C 0.03202 0.9903 0.85104 0.0
C818 C 0.97277 0.01368 0.17159 0.0
C819 C 0.97613 0.01499 0.1263 0.0
C820 C 0.02524 0.00283 0.04255 0.0
C821 C 0.00815 0.00316 0.91634 0.0
C822 C 0.00519 1.00243 0.96501 0.0
C823 C 0.99666 1.00074 0.10634 0.0
C824 C 0.99963 1.00142 0.05767 0.0
H825 H 0.98082 0.03227 0.82507 0.0
H826 H 0.97495 0.02988 0.90403 0.0
H827 H 0.048 0.00489 0.98651 0.0
H828 H 0.02399 0.97178 0.19778 0.0
H829 H 0.02988 0.97406 0.11878 0.0
C830 C 0.25274 0.75878 0.45265 0.0
C831 C 0.27164 0.74175 0.47241 0.0
C832 C 0.25274 0.76336 0.40753 0.0
C833 C 0.27556 0.7339 0.30014 0.0
H834 H 0.26 0.8044 0.26257 0.0
C835 C 0.27963 0.75725 0.11614 0.0
C836 C 0.25841 0.77234 0.09783 0.0
C837 C 0.28304 0.75446 0.16223 0.0
C838 C 0.26418 0.78453 0.27244 0.0
H839 H 0.30586 0.7168 0.46023 0.0
H840 H 0.30587 0.7248 0.38167 0.0
H841 H 0.26256 0.79782 0.34207 0.0
H842 H 0.22405 0.79614 0.11418 0.0
H843 H 0.23018 0.7915 0.19418 0.0
H844 H 0.27701 0.72059 0.23044 0.0
C845 C 0.29074 0.73427 0.40086 0.0
C846 C 0.26561 0.78075 0.31806 0.0
C847 C 0.29074 0.72969 0.44597 0.0
C848 C 0.24097 0.78484 0.12702 0.0
C849 C 0.24444 0.78213 0.17303 0.0
C850 C 0.27417 0.7377 0.25451 0.0
C851 C 0.27164 0.75105 0.38095 0.0
C852 C 0.2711 0.75533 0.3325 0.0
C853 C 0.26538 0.76674 0.19123 0.0
C854 C 0.26823 0.76301 0.24003 0.0
H855 H 0.23748 0.76807 0.47172 0.0
H856 H 0.23747 0.77607 0.39321 0.0
H857 H 0.27944 0.71396 0.30989 0.0
H858 H 0.29368 0.74762 0.09487 0.0
H859 H 0.29961 0.74275 0.17521 0.0
C860 C 0.46809 0.01415 0.67224 0.0
C861 C 0.48677 0.00271 0.70266 0.0
C862 C 0.47238 0.01403 0.627 0.0
C863 C 0.52583 0.00743 0.55021 0.0
H864 H 0.46584 0.99333 0.45779 0.0
C865 C 0.54074 0.99095 0.36135 0.0
C866 C 0.52215 1.00244 0.33086 0.0
C867 C 0.53632 0.99099 0.40651 0.0
C868 C 0.48277 0.99763 0.48316 0.0
H869 H 0.52457 0.98191 0.70884 0.0
H870 H 0.53206 0.98172 0.62996 0.0
H871 H 0.45848 0.99322 0.53662 0.0
H872 H 0.48432 0.02319 0.32445 0.0
H873 H 0.4766 0.02325 0.40324 0.0
H874 H 0.55012 0.01185 0.49677 0.0
C875 C 0.51422 0.99112 0.64128 0.0
C876 C 0.47855 0.99755 0.52843 0.0
C877 C 0.50992 0.99122 0.68658 0.0
C878 C 0.49891 0.01386 0.34678 0.0
C879 C 0.49448 0.01389 0.39202 0.0
C880 C 0.53005 0.00751 0.50494 0.0
C881 C 0.49549 1.0025 0.61087 0.0
C882 C 0.50002 1.00245 0.56258 0.0
C883 C 0.51316 1.0025 0.42252 0.0
C884 C 0.50859 0.00259 0.47079 0.0
H885 H 0.45028 0.02365 0.68352 0.0
H886 H 0.45775 0.02341 0.6048 0.0
H887 H 0.54276 0.01173 0.57557 0.0
H888 H 0.55859 0.9815 0.35018 0.0
H889 H 0.5509 0.9816 0.42877 0.0
C890 C 0.24162 0.21623 0.9167 0.0
C891 C 0.24657 0.23777 0.95067 0.0
C892 C 0.24349 0.21993 0.87171 0.0
C893 C 0.24222 0.27249 0.79369 0.0
H894 H 0.27419 0.21764 0.71644 0.0
C895 C 0.2656 0.28924 0.61438 0.0
C896 C 0.26071 0.26769 0.58042 0.0
C897 C 0.26365 0.28557 0.65936 0.0
C898 C 0.2649 0.23301 0.73739 0.0
H899 H 0.25741 0.28016 0.96367 0.0
H900 H 0.26117 0.28651 0.88519 0.0
H901 H 0.27171 0.21145 0.79521 0.0
H902 H 0.24989 0.22529 0.56743 0.0
H903 H 0.24601 0.21898 0.64589 0.0
H904 H 0.23541 0.29405 0.73585 0.0
C905 C 0.25551 0.26679 0.89338 0.0
C906 C 0.2635 0.22947 0.78261 0.0
C907 C 0.25365 0.26308 0.93846 0.0
C908 C 0.2536 0.24238 0.59263 0.0
C909 C 0.25168 0.23869 0.6377 0.0
C910 C 0.24362 0.27603 0.74846 0.0
C911 C 0.25041 0.24526 0.85942 0.0
C912 C 0.25213 0.24916 0.81135 0.0
C913 C 0.25673 0.26024 0.67165 0.0
C914 C 0.25499 0.25633 0.71972 0.0
H915 H 0.23646 0.19637 0.9249 0.0
H916 H 0.23916 0.20296 0.84645 0.0
H917 H 0.23294 0.28786 0.81464 0.0
H918 H 0.27077 0.3091 0.60618 0.0
H919 H 0.26795 0.30255 0.68461 0.0
C920 C 0.73564 0.25954 0.91155 0.0
C921 C 0.7498 0.23764 0.9272 0.0
C922 C 0.73433 0.26411 0.86621 0.0
C923 C 0.74283 0.22982 0.75322 0.0
H924 H 0.7495 0.30234 0.72048 0.0
C925 C 0.75818 0.25148 0.57244 0.0
C926 C 0.74435 0.2731 0.55512 0.0
C927 C 0.7582 0.24729 0.61771 0.0
C928 C 0.74729 0.28198 0.729 0.0
H929 H 0.77433 0.20385 0.90742 0.0
H930 H 0.77204 0.21178 0.82873 0.0
H931 H 0.7506 0.29494 0.79953 0.0
H932 H 0.71927 0.30698 0.57203 0.0
H933 H 0.7194 0.29971 0.65093 0.0
H934 H 0.73965 0.21685 0.68275 0.0
C935 C 0.76146 0.22513 0.85121 0.0
C936 C 0.7479 0.27774 0.77437 0.0
C937 C 0.76276 0.22058 0.89643 0.0
C938 C 0.7305 0.29039 0.5843 0.0
C939 C 0.73056 0.28621 0.6296 0.0
C940 C 0.74224 0.23406 0.7079 0.0
C941 C 0.74717 0.24691 0.83543 0.0
C942 C 0.74582 0.25158 0.78709 0.0
C943 C 0.74442 0.26461 0.6469 0.0
C944 C 0.74458 0.26018 0.69519 0.0
H945 H 0.72519 0.27292 0.93419 0.0
H946 H 0.72288 0.28089 0.85515 0.0
H947 H 0.74068 0.20945 0.76168 0.0
H948 H 0.76944 0.23803 0.5512 0.0
H949 H 0.76944 0.2307 0.63002 0.0
C950 C 0.73891 0.71599 0.41072 0.0
C951 C 0.74409 0.73751 0.44468 0.0
C952 C 0.74097 0.71959 0.36573 0.0
C953 C 0.74072 0.77209 0.28765 0.0
H954 H 0.77191 0.71661 0.21053 0.0
C955 C 0.76489 0.78827 0.1085 0.0
C956 C 0.75967 0.76678 0.07451 0.0
C957 C 0.76276 0.78467 0.15346 0.0
C958 C 0.76284 0.73216 0.23145 0.0
H959 H 0.75552 0.77976 0.45765 0.0
H960 H 0.75959 0.78593 0.3792 0.0
H961 H 0.76915 0.71055 0.28929 0.0
H962 H 0.74808 0.72458 0.06143 0.0
H963 H 0.74389 0.71839 0.13985 0.0
H964 H 0.73443 0.79371 0.22981 0.0
C965 C 0.75362 0.76631 0.38739 0.0
C966 C 0.76128 0.7287 0.27666 0.0
C967 C 0.75158 0.7627 0.43246 0.0
C968 C 0.75205 0.74162 0.08666 0.0
C969 C 0.74995 0.738 0.1317 0.0
C970 C 0.74229 0.77556 0.24244 0.0
C971 C 0.74829 0.7448 0.35343 0.0
C972 C 0.75019 0.74862 0.30536 0.0
C973 C 0.75533 0.75947 0.1657 0.0
C974 C 0.75338 0.75564 0.21375 0.0
H975 H 0.73345 0.69622 0.41892 0.0
H976 H 0.73645 0.70265 0.34049 0.0
H977 H 0.73165 0.78765 0.30856 0.0
H978 H 0.77046 0.80803 0.10035 0.0
H979 H 0.76731 0.80159 0.17874 0.0
C980 C 0.49977 0.4777 0.67543 0.0
C981 C 0.48945 0.49982 0.7004 0.0
C982 C 0.50333 0.4786 0.63008 0.0
C983 C 0.50995 0.52576 0.54447 0.0
H984 H 0.48927 0.46327 0.45997 0.0
C985 C 0.50537 0.52896 0.35226 0.0
C986 C 0.51565 0.50685 0.32717 0.0
C987 C 0.5019 0.52801 0.39763 0.0
C988 C 0.49541 0.4808 0.48317 0.0
H989 H 0.47543 0.54052 0.69747 0.0
H990 H 0.48135 0.542 0.61833 0.0
H991 H 0.48449 0.46189 0.53955 0.0
H992 H 0.52968 0.46615 0.32993 0.0
H993 H 0.52391 0.46459 0.40912 0.0
H994 H 0.52087 0.54466 0.4881 0.0
C995 C 0.48682 0.52397 0.63382 0.0
C996 C 0.4927 0.48 0.52884 0.0
C997 C 0.48317 0.52302 0.6791 0.0
C998 C 0.52197 0.48363 0.34838 0.0
C999 C 0.51841 0.48264 0.39369 0.0
C1000 C 0.51266 0.52655 0.49881 0.0
C1001 C 0.49676 0.5017 0.60864 0.0
C1002 C 0.49993 0.50247 0.56008 0.0
C1003 C 0.50851 0.50489 0.41899 0.0
C1004 C 0.50542 0.50409 0.46757 0.0
H1005 H 0.50458 0.45943 0.69067 0.0
H1006 H 0.51132 0.46121 0.61184 0.0
H1007 H 0.51609 0.54329 0.56767 0.0
H1008 H 0.50053 0.54725 0.33708 0.0
H1009 H 0.49394 0.54539 0.41595 0.0
C1010 C 1.00188 0.48418 0.83737 0.0
C1011 C 0.01661 0.50565 0.82436 0.0
C1012 C 0.99778 0.48301 0.88249 0.0
C1013 C 0.99883 0.52508 0.99198 0.0
H1014 H 0.00424 0.45654 0.04132 0.0
C1015 C 0.9988 0.51659 0.18259 0.0
C1016 C 0.98401 0.49507 0.19537 0.0
C1017 C 0.00307 0.5178 0.13755 0.0
C1018 C 1.00236 0.47581 0.02801 0.0
H1019 H 0.03808 0.54307 0.8489 0.0
H1020 H 0.0313 0.54084 0.92751 0.0
H1021 H 0.01062 0.45897 0.9626 0.0
H1022 H 0.96266 0.45764 0.17053 0.0
H1023 H 0.96973 0.45998 0.09207 0.0
H1024 H 0.99056 0.54192 0.0574 0.0
C1025 C 0.02273 0.52495 0.90277 0.0
C1026 C 0.006 0.4772 0.98278 0.0
C1027 C 0.02688 0.52608 0.85767 0.0
C1028 C 0.97389 0.47466 0.16192 0.0
C1029 C 0.97821 0.47585 0.11692 0.0
C1030 C 0.99519 0.52369 0.03722 0.0
C1031 C 0.00825 0.50332 0.91586 0.0
C1032 C 0.00427 0.50185 0.9641 0.0
C1033 C 0.99274 0.49751 0.10405 0.0
C1034 C 0.99688 0.49903 0.05588 0.0
H1035 H 0.9939 0.46794 0.81278 0.0
H1036 H 0.98626 0.46622 0.89118 0.0
H1037 H 0.99695 0.54434 0.97867 0.0
H1038 H 0.00668 0.53281 0.20728 0.0
H1039 H 0.01463 0.53463 0.12904 0.0
loop_
_geom_bond_atom_site_label_1
_geom_bond_atom_site_label_2
_geom_bond_distance
_geom_bond_site_symmetry_2
_ccdc_geom_bond_type
C0 Eu1 2.835 1_655 S
C0 C2 1.500 . S
C0 O20 1.272 1_655 S
C0 O21 1.260 . S
Eu1 C0 2.835 1_455 S
Eu1 O20 2.486 . S
Eu1 O21 2.480 1_455 S
Eu1 O22 2.430 1_455 S
Eu1 O23 2.670 1_455 S
Eu1 O24 2.394 1_445 S
Eu1 O29 2.355 1_545 S
Eu1 O31 2.374 . S
C2 C0 1.500 . S
C2 C3 1.377 . S
C2 C7 1.374 1_645 S
C3 C2 1.377 . S
C3 C4 1.395 . S
C3 H32 0.931 . S
C4 C3 1.395 . S
C4 C5 1.383 . S
C4 H33 0.931 . S
C5 C4 1.383 . S
C5 C6 1.394 1_545 S
C6 C5 1.394 1_565 S
C6 C7 1.375 1_655 S
C6 H34 0.931 1_655 S
C7 C2 1.374 1_465 S
C7 C6 1.375 1_455 S
C7 H35 0.936 . S
C8 O22 1.259 . S
C8 O23 1.270 . S
C9 O24 1.251 . S
C9 O25 1.251 . S
C10 Eu11 2.835 1_455 S
C10 C12 1.500 . S
C10 O26 1.265 1_455 S
C10 O27 1.260 . S
Eu11 C10 2.835 1_655 S
Eu11 O23 2.355 1_565 S
Eu11 O25 2.374 . S
Eu11 O26 2.480 . S
Eu11 O27 2.480 1_655 S
Eu11 O28 2.430 1_655 S
Eu11 O29 2.670 1_655 S
Eu11 O30 2.394 1_665 S
C12 C10 1.500 . S
C12 C13 1.377 . S
C12 C17 1.377 1_465 S
C13 C12 1.377 . S
C13 C14 1.395 . S
C13 H36 0.931 . S
C14 C13 1.395 . S
C14 C15 1.383 . S
C14 H37 0.931 . S
C15 C14 1.383 . S
C15 C16 1.394 1_565 S
C16 C15 1.394 1_545 S
C16 C17 1.378 1_455 S
C16 H38 0.931 1_455 S
C17 C12 1.377 1_645 S
C17 C16 1.378 1_655 S
C17 H39 0.931 . S
C18 O28 1.259 . S
C18 O29 1.270 . S
C19 O30 1.251 . S
C19 O31 1.251 . S
O20 C0 1.272 1_455 S
O20 Eu1 2.486 . S
O21 C0 1.260 . S
O21 Eu1 2.480 1_655 S
O22 Eu1 2.430 1_655 S
O22 C8 1.259 . S
O23 Eu1 2.670 1_655 S
O23 C8 1.270 . S
O23 Eu11 2.355 1_545 S
O24 Eu1 2.394 1_665 S
O24 C9 1.251 . S
O25 C9 1.251 . S
O25 Eu11 2.374 . S
O26 C10 1.265 1_655 S
O26 Eu11 2.480 . S
O27 C10 1.260 . S
O27 Eu11 2.480 1_455 S
O28 Eu11 2.430 1_455 S
O28 C18 1.259 . S
O29 Eu1 2.355 1_565 S
O29 Eu11 2.670 1_455 S
O29 C18 1.270 . S
O30 Eu11 2.394 1_445 S
O30 C19 1.251 . S
O31 Eu1 2.374 . S
O31 C19 1.251 . S
H32 C3 0.931 . S
H33 C4 0.931 . S
H34 C6 0.931 1_455 S
H35 C7 0.936 . S
H36 C13 0.931 . S
H37 C14 0.931 . S
H38 C16 0.931 1_655 S
H39 C17 0.931 . S
C40 Eu41 2.835 . S
C40 C42 1.500 . S
C40 O60 1.257 . S
C40 O61 1.260 . S
Eu41 C40 2.835 . S
Eu41 O60 2.473 . S
Eu41 O61 2.480 . S
Eu41 O62 2.430 . S
Eu41 O63 2.670 . S
Eu41 O64 2.394 . S
Eu41 O69 2.355 . S
Eu41 O71 2.374 . S
C42 C40 1.500 . S
C42 C43 1.377 . S
C42 C47 1.377 . S
C43 C42 1.377 . S
C43 C44 1.395 . S
C43 H72 0.931 . S
C44 C43 1.395 . S
C44 C45 1.383 1_556 S
C44 H73 0.931 1_556 S
C45 C44 1.383 1_554 S
C45 C46 1.394 . S
C46 C45 1.394 . S
C46 C47 1.378 1_554 S
C46 H74 0.931 . S
C47 C42 1.377 . S
C47 C46 1.378 1_556 S
C47 H75 0.931 . S
C48 O62 1.259 . S
C48 O63 1.270 . S
C49 O64 1.251 . S
C49 O65 1.251 . S
C50 Eu51 2.835 . S
C50 C52 1.500 . S
C50 O66 1.257 . S
C50 O67 1.260 . S
Eu51 C50 2.835 . S
Eu51 O63 2.355 . S
Eu51 O65 2.374 . S
Eu51 O66 2.473 . S
Eu51 O67 2.480 . S
Eu51 O68 2.430 . S
Eu51 O69 2.670 . S
Eu51 O70 2.394 . S
C52 C50 1.500 . S
C52 C53 1.377 . S
C52 C57 1.377 . S
C53 C52 1.377 . S
C53 C54 1.395 . S
C53 H76 0.931 . S
C54 C53 1.395 . S
C54 C55 1.383 . S
C54 H77 0.931 . S
C55 C54 1.383 . S
C55 C56 1.394 . S
C56 C55 1.394 . S
C56 C57 1.378 . S
C56 H78 0.931 . S
C57 C52 1.377 . S
C57 C56 1.378 . S
C57 H79 0.931 . S
C58 O68 1.259 . S
C58 O69 1.270 . S
C59 O70 1.251 . S
C59 O71 1.251 . S
O60 C40 1.257 . S
O60 Eu41 2.473 . S
O61 C40 1.260 . S
O61 Eu41 2.480 . S
O62 Eu41 2.430 . S
O62 C48 1.259 . S
O63 Eu41 2.670 . S
O63 C48 1.270 . S
O63 Eu51 2.355 . S
O64 Eu41 2.394 . S
O64 C49 1.251 . S
O65 C49 1.251 . S
O65 Eu51 2.374 . S
O66 C50 1.257 . S
O66 Eu51 2.473 . S
O67 C50 1.260 . S
O67 Eu51 2.480 . S
O68 Eu51 2.430 . S
O68 C58 1.259 . S
O69 Eu41 2.355 . S
O69 Eu51 2.670 . S
O69 C58 1.270 . S
O70 Eu51 2.394 . S
O70 C59 1.251 . S
O71 Eu41 2.374 . S
O71 C59 1.251 . S
H72 C43 0.931 . S
H73 C44 0.931 1_554 S
H74 C46 0.931 . S
H75 C47 0.931 . S
H76 C53 0.931 . S
H77 C54 0.931 . S
H78 C56 0.931 . S
H79 C57 0.931 . S
C80 Eu81 2.835 . S
C80 C82 1.500 . S
C80 O100 1.257 1_545 S
C80 O101 1.260 . S
Eu81 C80 2.835 . S
Eu81 O100 2.473 1_545 S
Eu81 O101 2.480 . S
Eu81 O102 2.430 . S
Eu81 O103 2.670 1_556 S
Eu81 O104 2.394 1_545 S
Eu81 O109 2.355 1_545 S
Eu81 O111 2.356 1_556 S
C82 C80 1.500 . S
C82 C83 1.377 . S
C82 C87 1.377 1_545 S
C83 C82 1.377 . S
C83 C84 1.395 . S
C83 H112 0.931 . S
C84 C83 1.395 . S
C84 C85 1.383 1_545 S
C84 H113 0.931 . S
C85 C84 1.383 1_565 S
C85 C86 1.394 . S
C86 C85 1.394 . S
C86 C87 1.378 . S
C86 H114 0.931 . S
C87 C82 1.377 1_565 S
C87 C86 1.378 . S
C87 H115 0.931 . S
C88 O102 1.259 1_554 S
C88 O103 1.270 . S
C89 O104 1.251 . S
C89 O105 1.269 . S
C90 Eu91 2.835 . S
C90 C92 1.500 . S
C90 O106 1.257 1_565 S
C90 O107 1.260 . S
Eu91 C90 2.835 . S
Eu91 O103 2.355 1_565 S
Eu91 O105 2.360 1_554 S
Eu91 O106 2.473 1_565 S
Eu91 O107 2.480 . S
Eu91 O108 2.430 . S
Eu91 O109 2.670 1_554 S
Eu91 O110 2.394 1_565 S
C92 C90 1.500 . S
C92 C93 1.377 . S
C92 C97 1.377 1_565 S
C93 C92 1.377 . S
C93 C94 1.395 . S
C93 H116 0.931 . S
C94 C93 1.395 . S
C94 C95 1.383 1_565 S
C94 H117 0.931 . S
C95 C94 1.383 1_545 S
C95 C96 1.394 . S
C96 C95 1.394 . S
C96 C97 1.378 . S
C96 H118 0.931 . S
C97 C92 1.377 1_545 S
C97 C96 1.378 . S
C97 H119 0.931 . S
C98 O108 1.259 1_556 S
C98 O109 1.270 . S
C99 O110 1.251 . S
C99 O111 1.275 . S
O100 C80 1.257 1_565 S
O100 Eu81 2.473 1_565 S
O101 C80 1.260 . S
O101 Eu81 2.480 . S
O102 Eu81 2.430 . S
O102 C88 1.259 1_556 S
O103 Eu81 2.670 1_554 S
O103 C88 1.270 . S
O103 Eu91 2.355 1_545 S
O104 Eu81 2.394 1_565 S
O104 C89 1.251 . S
O105 C89 1.269 . S
O105 Eu91 2.360 1_556 S
O106 C90 1.257 1_545 S
O106 Eu91 2.473 1_545 S
O107 C90 1.260 . S
O107 Eu91 2.480 . S
O108 Eu91 2.430 . S
O108 C98 1.259 1_554 S
O109 Eu81 2.355 1_565 S
O109 Eu91 2.670 1_556 S
O109 C98 1.270 . S
O110 Eu91 2.394 1_545 S
O110 C99 1.251 . S
O111 Eu81 2.356 1_554 S
O111 C99 1.275 . S
H112 C83 0.931 . S
H113 C84 0.931 . S
H114 C86 0.931 . S
H115 C87 0.931 . S
H116 C93 0.931 . S
H117 C94 0.931 . S
H118 C96 0.931 . S
H119 C97 0.931 . S
C120 Eu121 2.835 . S
C120 C122 1.500 . S
C120 O140 1.257 . S
C120 O141 1.260 . S
Eu121 C120 2.835 . S
Eu121 O140 2.473 . S
Eu121 O141 2.480 . S
Eu121 O142 2.430 . S
Eu121 O143 2.670 . S
Eu121 O144 2.394 . S
Eu121 O149 2.355 . S
Eu121 O151 2.374 . S
C122 C120 1.500 . S
C122 C123 1.377 . S
C122 C127 1.377 . S
C123 C122 1.377 . S
C123 C124 1.395 1_554 S
C123 H152 0.931 . S
C124 C123 1.395 1_556 S
C124 C125 1.383 . S
C124 H153 0.931 . S
C125 C124 1.383 . S
C125 C126 1.394 . S
C126 C125 1.394 . S
C126 C127 1.378 1_556 S
C126 H154 0.931 . S
C127 C122 1.377 . S
C127 C126 1.378 1_554 S
C127 H155 0.931 . S
C128 O142 1.259 . S
C128 O143 1.270 . S
C129 O144 1.251 . S
C129 O145 1.251 . S
C130 Eu131 2.835 . S
C130 C132 1.500 . S
C130 O146 1.257 . S
C130 O147 1.260 . S
Eu131 C130 2.835 . S
Eu131 O143 2.355 . S
Eu131 O145 2.374 . S
Eu131 O146 2.473 . S
Eu131 O147 2.480 . S
Eu131 O148 2.430 . S
Eu131 O149 2.670 . S
Eu131 O150 2.394 . S
C132 C130 1.500 . S
C132 C133 1.377 . S
C132 C137 1.377 . S
C133 C132 1.377 . S
C133 C134 1.395 . S
C133 H156 0.931 . S
C134 C133 1.395 . S
C134 C135 1.383 . S
C134 H157 0.931 . S
C135 C134 1.383 . S
C135 C136 1.394 . S
C136 C135 1.394 . S
C136 C137 1.378 . S
C136 H158 0.931 . S
C137 C132 1.377 . S
C137 C136 1.378 . S
C137 H159 0.931 . S
C138 O148 1.259 . S
C138 O149 1.270 . S
C139 O150 1.251 . S
C139 O151 1.251 . S
O140 C120 1.257 . S
O140 Eu121 2.473 . S
O141 C120 1.260 . S
O141 Eu121 2.480 . S
O142 Eu121 2.430 . S
O142 C128 1.259 . S
O143 Eu121 2.670 . S
O143 C128 1.270 . S
O143 Eu131 2.355 . S
O144 Eu121 2.394 . S
O144 C129 1.251 . S
O145 C129 1.251 . S
O145 Eu131 2.374 . S
O146 C130 1.257 . S
O146 Eu131 2.473 . S
O147 C130 1.260 . S
O147 Eu131 2.480 . S
O148 Eu131 2.430 . S
O148 C138 1.259 . S
O149 Eu121 2.355 . S
O149 Eu131 2.670 . S
O149 C138 1.270 . S
O150 Eu131 2.394 . S
O150 C139 1.251 . S
O151 Eu121 2.374 . S
O151 C139 1.251 . S
H152 C123 0.931 . S
H153 C124 0.931 . S
H154 C126 0.931 . S
H155 C127 0.931 . S
H156 C133 0.931 . S
H157 C134 0.931 . S
H158 C136 0.931 . S
H159 C137 0.931 . S
C160 Eu161 2.835 . S
C160 C162 1.500 . S
C160 O180 1.257 . S
C160 O181 1.260 . S
Eu161 C160 2.835 . S
Eu161 O180 2.473 . S
Eu161 O181 2.480 . S
Eu161 O182 2.430 . S
Eu161 O183 2.670 . S
Eu161 O184 2.394 . S
Eu161 O189 2.355 . S
Eu161 O191 2.374 . S
C162 C160 1.500 . S
C162 C163 1.377 . S
C162 C167 1.377 . S
C163 C162 1.377 . S
C163 C164 1.395 . S
C163 H192 0.931 . S
C164 C163 1.395 . S
C164 C165 1.383 . S
C164 H193 0.931 . S
C165 C164 1.383 . S
C165 C166 1.394 . S
C166 C165 1.394 . S
C166 C167 1.378 . S
C166 H194 0.931 . S
C167 C162 1.377 . S
C167 C166 1.378 . S
C167 H195 0.931 . S
C168 O182 1.259 . S
C168 O183 1.270 . S
C169 O184 1.251 . S
C169 O185 1.251 . S
C170 Eu171 2.835 . S
C170 C172 1.500 . S
C170 O186 1.257 . S
C170 O187 1.260 . S
Eu171 C170 2.835 . S
Eu171 O183 2.355 . S
Eu171 O185 2.374 . S
Eu171 O186 2.473 . S
Eu171 O187 2.480 . S
Eu171 O188 2.430 . S
Eu171 O189 2.670 . S
Eu171 O190 2.394 . S
C172 C170 1.500 . S
C172 C173 1.377 . S
C172 C177 1.377 . S
C173 C172 1.377 . S
C173 C174 1.395 . S
C173 H196 0.931 . S
C174 C173 1.395 . S
C174 C175 1.383 1_554 S
C174 H197 0.931 1_554 S
C175 C174 1.383 1_556 S
C175 C176 1.394 . S
C176 C175 1.394 . S
C176 C177 1.378 1_556 S
C176 H198 0.931 . S
C177 C172 1.377 . S
C177 C176 1.378 1_554 S
C177 H199 0.931 . S
C178 O188 1.259 . S
C178 O189 1.270 . S
C179 O190 1.251 . S
C179 O191 1.251 . S
O180 C160 1.257 . S
O180 Eu161 2.473 . S
O181 C160 1.260 . S
O181 Eu161 2.480 . S
O182 Eu161 2.430 . S
O182 C168 1.259 . S
O183 Eu161 2.670 . S
O183 C168 1.270 . S
O183 Eu171 2.355 . S
O184 Eu161 2.394 . S
O184 C169 1.251 . S
O185 C169 1.251 . S
O185 Eu171 2.374 . S
O186 C170 1.257 . S
O186 Eu171 2.473 . S
O187 C170 1.260 . S
O187 Eu171 2.480 . S
O188 Eu171 2.430 . S
O188 C178 1.259 . S
O189 Eu161 2.355 . S
O189 Eu171 2.670 . S
O189 C178 1.270 . S
O190 Eu171 2.394 . S
O190 C179 1.251 . S
O191 Eu161 2.374 . S
O191 C179 1.251 . S
H192 C163 0.931 . S
H193 C164 0.931 . S
H194 C166 0.931 . S
H195 C167 0.931 . S
H196 C173 0.931 . S
H197 C174 0.931 1_556 S
H198 C176 0.931 . S
H199 C177 0.931 . S
C200 Eu201 2.835 . S
C200 C202 1.500 . S
C200 O220 1.257 . S
C200 O221 1.260 . S
Eu201 C200 2.835 . S
Eu201 O220 2.473 . S
Eu201 O221 2.480 . S
Eu201 O222 2.430 . S
Eu201 O223 2.670 . S
Eu201 O224 2.394 . S
Eu201 O229 2.355 . S
Eu201 O231 2.374 . S
C202 C200 1.500 . S
C202 C203 1.377 . S
C202 C207 1.377 . S
C203 C202 1.377 . S
C203 C204 1.395 . S
C203 H232 0.931 . S
C204 C203 1.395 . S
C204 C205 1.383 . S
C204 H233 0.931 . S
C205 C204 1.383 . S
C205 C206 1.394 . S
C206 C205 1.394 . S
C206 C207 1.378 . S
C206 H234 0.931 . S
C207 C202 1.377 . S
C207 C206 1.378 . S
C207 H235 0.931 . S
C208 O222 1.259 . S
C208 O223 1.270 . S
C209 O224 1.251 . S
C209 O225 1.251 . S
C210 Eu211 2.835 . S
C210 C212 1.500 . S
C210 O226 1.257 . S
C210 O227 1.260 . S
Eu211 C210 2.835 . S
Eu211 O223 2.355 . S
Eu211 O225 2.374 . S
Eu211 O226 2.473 . S
Eu211 O227 2.480 . S
Eu211 O228 2.430 . S
Eu211 O229 2.670 . S
Eu211 O230 2.394 . S
C212 C210 1.500 . S
C212 C213 1.377 . S
C212 C217 1.377 . S
C213 C212 1.377 . S
C213 C214 1.395 1_556 S
C213 H236 0.931 . S
C214 C213 1.395 1_554 S
C214 C215 1.383 . S
C214 H237 0.931 . S
C215 C214 1.383 . S
C215 C216 1.394 . S
C216 C215 1.394 . S
C216 C217 1.378 1_554 S
C216 H238 0.931 . S
C217 C212 1.377 . S
C217 C216 1.378 1_556 S
C217 H239 0.931 . S
C218 O228 1.259 . S
C218 O229 1.270 . S
C219 O230 1.251 . S
C219 O231 1.251 . S
O220 C200 1.257 . S
O220 Eu201 2.473 . S
O221 C200 1.260 . S
O221 Eu201 2.480 . S
O222 Eu201 2.430 . S
O222 C208 1.259 . S
O223 Eu201 2.670 . S
O223 C208 1.270 . S
O223 Eu211 2.355 . S
O224 Eu201 2.394 . S
O224 C209 1.251 . S
O225 C209 1.251 . S
O225 Eu211 2.374 . S
O226 C210 1.257 . S
O226 Eu211 2.473 . S
O227 C210 1.260 . S
O227 Eu211 2.480 . S
O228 Eu211 2.430 . S
O228 C218 1.259 . S
O229 Eu201 2.355 . S
O229 Eu211 2.670 . S
O229 C218 1.270 . S
O230 Eu211 2.394 . S
O230 C219 1.251 . S
O231 Eu201 2.374 . S
O231 C219 1.251 . S
H232 C203 0.931 . S
H233 C204 0.931 . S
H234 C206 0.931 . S
H235 C207 0.931 . S
H236 C213 0.931 . S
H237 C214 0.931 . S
H238 C216 0.931 . S
H239 C217 0.931 . S
C240 Eu241 2.835 . S
C240 C242 1.500 . S
C240 O260 1.257 . S
C240 O261 1.260 . S
Eu241 C240 2.835 . S
Eu241 O260 2.473 . S
Eu241 O261 2.480 . S
Eu241 O262 2.430 . S
Eu241 O263 2.670 1_554 S
Eu241 O264 2.394 . S
Eu241 O269 2.355 . S
Eu241 O271 2.374 . S
C242 C240 1.500 . S
C242 C243 1.377 . S
C242 C247 1.377 . S
C243 C242 1.377 . S
C243 C244 1.395 . S
C243 H272 0.931 . S
C244 C243 1.395 . S
C244 C245 1.383 . S
C244 H273 0.931 . S
C245 C244 1.383 . S
C245 C246 1.394 . S
C246 C245 1.394 . S
C246 C247 1.378 . S
C246 H274 0.931 . S
C247 C242 1.377 . S
C247 C246 1.378 . S
C247 H275 0.931 . S
C248 O262 1.259 1_556 S
C248 O263 1.270 . S
C249 O264 1.251 . S
C249 O265 1.251 1_554 S
C250 Eu251 2.835 . S
C250 C252 1.500 . S
C250 O266 1.257 . S
C250 O267 1.260 . S
Eu251 C250 2.835 . S
Eu251 O263 2.355 . S
Eu251 O265 2.374 . S
Eu251 O266 2.473 . S
Eu251 O267 2.480 . S
Eu251 O268 2.430 . S
Eu251 O269 2.670 1_556 S
Eu251 O270 2.394 . S
C252 C250 1.500 . S
C252 C253 1.377 . S
C252 C257 1.377 . S
C253 C252 1.377 . S
C253 C254 1.395 . S
C253 H276 0.931 . S
C254 C253 1.395 . S
C254 C255 1.383 . S
C254 H277 0.931 . S
C255 C254 1.383 . S
C255 C256 1.394 . S
C256 C255 1.394 . S
C256 C257 1.378 . S
C256 H278 0.931 . S
C257 C252 1.377 . S
C257 C256 1.378 . S
C257 H279 0.931 . S
C258 O268 1.259 1_554 S
C258 O269 1.270 . S
C259 O270 1.251 . S
C259 O271 1.251 1_556 S
O260 C240 1.257 . S
O260 Eu241 2.473 . S
O261 C240 1.260 . S
O261 Eu241 2.480 . S
O262 Eu241 2.430 . S
O262 C248 1.259 1_554 S
O263 Eu241 2.670 1_556 S
O263 C248 1.270 . S
O263 Eu251 2.355 . S
O264 Eu241 2.394 . S
O264 C249 1.251 . S
O265 C249 1.251 1_556 S
O265 Eu251 2.374 . S
O266 C250 1.257 . S
O266 Eu251 2.473 . S
O267 C250 1.260 . S
O267 Eu251 2.480 . S
O268 Eu251 2.430 . S
O268 C258 1.259 1_556 S
O269 Eu241 2.355 . S
O269 Eu251 2.670 1_554 S
O269 C258 1.270 . S
O270 Eu251 2.394 . S
O270 C259 1.251 . S
O271 Eu241 2.374 . S
O271 C259 1.251 1_554 S
H272 C243 0.931 . S
H273 C244 0.931 . S
H274 C246 0.931 . S
H275 C247 0.931 . S
H276 C253 0.931 . S
H277 C254 0.931 . S
H278 C256 0.931 . S
H279 C257 0.931 . S
C280 Eu281 2.835 1_455 S
C280 C282 1.500 . S
C280 O300 1.257 1_455 S
C280 O301 1.260 . S
Eu281 C280 2.835 1_655 S
Eu281 O300 2.473 . S
Eu281 O301 2.480 1_655 S
Eu281 O302 2.430 1_655 S
Eu281 O303 2.670 1_655 S
Eu281 O304 2.394 1_655 S
Eu281 O309 2.355 . S
Eu281 O311 2.374 . S
C282 C280 1.500 . S
C282 C283 1.377 . S
C282 C287 1.373 1_455 S
C283 C282 1.377 . S
C283 C284 1.395 . S
C283 H312 0.931 . S
C284 C283 1.395 . S
C284 C285 1.383 . S
C284 H313 0.931 . S
C285 C284 1.383 . S
C285 C286 1.394 . S
C286 C285 1.394 . S
C286 C287 1.374 1_455 S
C286 H314 0.931 1_455 S
C287 C282 1.373 1_655 S
C287 C286 1.374 1_655 S
C287 H315 0.939 . S
C288 O302 1.259 . S
C288 O303 1.270 . S
C289 O304 1.251 . S
C289 O305 1.251 . S
C290 Eu291 2.835 1_655 S
C290 C292 1.500 . S
C290 O306 1.257 1_655 S
C290 O307 1.260 . S
Eu291 C290 2.835 1_455 S
Eu291 O303 2.355 . S
Eu291 O305 2.374 . S
Eu291 O306 2.473 . S
Eu291 O307 2.480 1_455 S
Eu291 O308 2.430 1_455 S
Eu291 O309 2.670 1_455 S
Eu291 O310 2.394 1_455 S
C292 C290 1.500 . S
C292 C293 1.377 . S
C292 C297 1.370 1_655 S
C293 C292 1.377 . S
C293 C294 1.395 . S
C293 H316 0.931 . S
C294 C293 1.395 . S
C294 C295 1.383 . S
C294 H317 0.931 . S
C295 C294 1.383 . S
C295 C296 1.394 . S
C296 C295 1.394 . S
C296 C297 1.372 1_655 S
C296 H318 0.931 1_655 S
C297 C292 1.370 1_455 S
C297 C296 1.372 1_455 S
C297 H319 0.944 . S
C298 O308 1.259 . S
C298 O309 1.270 . S
C299 O310 1.251 . S
C299 O311 1.251 . S
O300 C280 1.257 1_655 S
O300 Eu281 2.473 . S
O301 C280 1.260 . S
O301 Eu281 2.480 1_455 S
O302 Eu281 2.430 1_455 S
O302 C288 1.259 . S
O303 Eu281 2.670 1_455 S
O303 C288 1.270 . S
O303 Eu291 2.355 . S
O304 Eu281 2.394 1_455 S
O304 C289 1.251 . S
O305 C289 1.251 . S
O305 Eu291 2.374 . S
O306 C290 1.257 1_455 S
O306 Eu291 2.473 . S
O307 C290 1.260 . S
O307 Eu291 2.480 1_655 S
O308 Eu291 2.430 1_655 S
O308 C298 1.259 . S
O309 Eu281 2.355 . S
O309 Eu291 2.670 1_655 S
O309 C298 1.270 . S
O310 Eu291 2.394 1_655 S
O310 C299 1.251 . S
O311 Eu281 2.374 . S
O311 C299 1.251 . S
H312 C283 0.931 . S
H313 C284 0.931 . S
H314 C286 0.931 1_655 S
H315 C287 0.939 . S
H316 C293 0.931 . S
H317 C294 0.931 . S
H318 C296 0.931 1_455 S
H319 C297 0.944 . S
C320 C321 1.349 . S
C320 C322 1.327 . S
C320 H345 0.950 . S
C321 C320 1.349 . S
C321 C337 1.349 . S
C322 C320 1.327 . S
C322 C341 1.429 . S
C322 H346 0.950 . S
C323 C340 1.574 . S
C323 C342 1.368 . S
C323 H347 0.949 . S
H324 C328 0.949 . S
C325 C326 1.349 . S
C325 C327 1.327 . S
C325 H348 0.950 . S
C326 C325 1.349 . S
C326 C338 1.349 . S
C327 C325 1.327 . S
C327 C343 1.429 . S
C327 H349 0.950 . S
C328 H324 0.949 . S
C328 C336 1.574 . S
C328 C344 1.368 . S
H329 C337 0.950 . S
H330 C335 0.950 . S
H331 C336 0.949 . S
H332 C338 0.950 . S
H333 C339 0.950 . S
H334 C340 0.949 . S
C335 H330 0.950 . S
C335 C337 1.327 . S
C335 C341 1.429 . S
C336 C328 1.574 . S
C336 H331 0.949 . S
C336 C342 1.368 . S
C337 C321 1.349 . S
C337 H329 0.950 . S
C337 C335 1.327 . S
C338 C326 1.349 . S
C338 H332 0.950 . S
C338 C339 1.327 . S
C339 H333 0.950 . S
C339 C338 1.327 . S
C339 C343 1.429 . S
C340 C323 1.574 . S
C340 H334 0.949 . S
C340 C344 1.368 . S
C341 C322 1.429 . S
C341 C335 1.429 . S
C341 C342 1.523 . S
C342 C323 1.368 . S
C342 C336 1.368 . S
C342 C341 1.523 . S
C343 C327 1.429 . S
C343 C339 1.429 . S
C343 C344 1.523 . S
C344 C328 1.368 . S
C344 C340 1.368 . S
C344 C343 1.523 . S
H345 C320 0.950 . S
H346 C322 0.950 . S
H347 C323 0.949 . S
H348 C325 0.950 . S
H349 C327 0.950 . S
C350 C351 1.349 . S
C350 C352 1.327 . S
C350 H375 0.950 . S
C351 C350 1.349 . S
C351 C367 1.349 . S
C352 C350 1.327 . S
C352 C371 1.429 . S
C352 H376 0.950 . S
C353 C370 1.574 . S
C353 C372 1.368 . S
C353 H377 0.949 . S
H354 C358 0.949 . S
C355 C356 1.349 . S
C355 C357 1.327 . S
C355 H378 0.950 . S
C356 C355 1.349 . S
C356 C368 1.349 . S
C357 C355 1.327 . S
C357 C373 1.429 . S
C357 H379 0.950 . S
C358 H354 0.949 . S
C358 C366 1.574 . S
C358 C374 1.368 . S
H359 C367 0.950 . S
H360 C365 0.950 . S
H361 C366 0.949 . S
H362 C368 0.950 . S
H363 C369 0.950 . S
H364 C370 0.949 . S
C365 H360 0.950 . S
C365 C367 1.327 . S
C365 C371 1.429 . S
C366 C358 1.574 . S
C366 H361 0.949 . S
C366 C372 1.368 . S
C367 C351 1.349 . S
C367 H359 0.950 . S
C367 C365 1.327 . S
C368 C356 1.349 . S
C368 H362 0.950 . S
C368 C369 1.327 . S
C369 H363 0.950 . S
C369 C368 1.327 . S
C369 C373 1.429 . S
C370 C353 1.574 . S
C370 H364 0.949 . S
C370 C374 1.368 . S
C371 C352 1.429 . S
C371 C365 1.429 . S
C371 C372 1.523 . S
C372 C353 1.368 . S
C372 C366 1.368 . S
C372 C371 1.523 . S
C373 C357 1.429 . S
C373 C369 1.429 . S
C373 C374 1.523 . S
C374 C358 1.368 . S
C374 C370 1.368 . S
C374 C373 1.523 . S
H375 C350 0.950 . S
H376 C352 0.950 . S
H377 C353 0.949 . S
H378 C355 0.950 . S
H379 C357 0.950 . S
C380 C381 1.349 . S
C380 C382 1.327 . S
C380 H405 0.950 . S
C381 C380 1.349 . S
C381 C397 1.349 . S
C382 C380 1.327 . S
C382 C401 1.429 . S
C382 H406 0.950 . S
C383 C400 1.574 . S
C383 C402 1.368 . S
C383 H407 0.949 . S
H384 C388 0.949 . S
C385 C386 1.349 . S
C385 C387 1.327 . S
C385 H408 0.950 . S
C386 C385 1.349 . S
C386 C398 1.349 . S
C387 C385 1.327 . S
C387 C403 1.429 . S
C387 H409 0.950 . S
C388 H384 0.949 . S
C388 C396 1.574 . S
C388 C404 1.368 . S
H389 C397 0.950 . S
H390 C395 0.950 . S
H391 C396 0.949 . S
H392 C398 0.950 1_554 S
H393 C399 0.950 . S
H394 C400 0.949 . S
C395 H390 0.950 . S
C395 C397 1.327 . S
C395 C401 1.429 . S
C396 C388 1.574 . S
C396 H391 0.949 . S
C396 C402 1.368 . S
C397 C381 1.349 . S
C397 H389 0.950 . S
C397 C395 1.327 . S
C398 C386 1.349 . S
C398 H392 0.950 1_556 S
C398 C399 1.327 . S
C399 H393 0.950 . S
C399 C398 1.327 . S
C399 C403 1.429 . S
C400 C383 1.574 . S
C400 H394 0.949 . S
C400 C404 1.368 . S
C401 C382 1.429 . S
C401 C395 1.429 . S
C401 C402 1.523 . S
C402 C383 1.368 . S
C402 C396 1.368 . S
C402 C401 1.523 . S
C403 C387 1.429 . S
C403 C399 1.429 . S
C403 C404 1.523 . S
C404 C388 1.368 . S
C404 C400 1.368 . S
C404 C403 1.523 . S
H405 C380 0.950 . S
H406 C382 0.950 . S
H407 C383 0.949 . S
H408 C385 0.950 . S
H409 C387 0.950 . S
C410 C411 1.349 . S
C410 C412 1.327 . S
C410 H435 0.950 . S
C411 C410 1.349 . S
C411 C427 1.349 . S
C412 C410 1.327 . S
C412 C431 1.429 . S
C412 H436 0.950 . S
C413 C430 1.574 . S
C413 C432 1.368 . S
C413 H437 0.949 . S
H414 C418 0.949 . S
C415 C416 1.349 . S
C415 C417 1.327 . S
C415 H438 0.950 . S
C416 C415 1.349 . S
C416 C428 1.349 . S
C417 C415 1.327 . S
C417 C433 1.429 . S
C417 H439 0.950 . S
C418 H414 0.949 . S
C418 C426 1.574 . S
C418 C434 1.368 . S
H419 C427 0.950 . S
H420 C425 0.950 . S
H421 C426 0.949 . S
H422 C428 0.950 . S
H423 C429 0.950 . S
H424 C430 0.949 . S
C425 H420 0.950 . S
C425 C427 1.327 . S
C425 C431 1.429 . S
C426 C418 1.574 . S
C426 H421 0.949 . S
C426 C432 1.368 . S
C427 C411 1.349 . S
C427 H419 0.950 . S
C427 C425 1.327 . S
C428 C416 1.349 . S
C428 H422 0.950 . S
C428 C429 1.327 . S
C429 H423 0.950 . S
C429 C428 1.327 . S
C429 C433 1.429 . S
C430 C413 1.574 . S
C430 H424 0.949 . S
C430 C434 1.368 . S
C431 C412 1.429 . S
C431 C425 1.429 . S
C431 C432 1.523 . S
C432 C413 1.368 . S
C432 C426 1.368 . S
C432 C431 1.523 . S
C433 C417 1.429 . S
C433 C429 1.429 . S
C433 C434 1.523 . S
C434 C418 1.368 . S
C434 C430 1.368 . S
C434 C433 1.523 . S
H435 C410 0.950 . S
H436 C412 0.950 . S
H437 C413 0.949 . S
H438 C415 0.950 . S
H439 C417 0.950 . S
C440 C441 1.349 . S
C440 C442 1.327 . S
C440 H465 0.950 . S
C441 C440 1.349 . S
C441 C457 1.349 . S
C442 C440 1.327 . S
C442 C461 1.429 . S
C442 H466 0.950 . S
C443 C460 1.574 . S
C443 C462 1.368 . S
C443 H467 0.949 . S
H444 C448 0.949 . S
C445 C446 1.349 . S
C445 C447 1.327 . S
C445 H468 0.950 . S
C446 C445 1.349 . S
C446 C458 1.349 . S
C447 C445 1.327 . S
C447 C463 1.429 . S
C447 H469 0.950 . S
C448 H444 0.949 . S
C448 C456 1.574 . S
C448 C464 1.368 . S
H449 C457 0.950 . S
H450 C455 0.950 . S
H451 C456 0.949 . S
H452 C458 0.950 . S
H453 C459 0.950 . S
H454 C460 0.949 . S
C455 H450 0.950 . S
C455 C457 1.327 . S
C455 C461 1.429 . S
C456 C448 1.574 . S
C456 H451 0.949 . S
C456 C462 1.368 . S
C457 C441 1.349 . S
C457 H449 0.950 . S
C457 C455 1.327 . S
C458 C446 1.349 . S
C458 H452 0.950 . S
C458 C459 1.327 . S
C459 H453 0.950 . S
C459 C458 1.327 . S
C459 C463 1.429 . S
C460 C443 1.574 . S
C460 H454 0.949 . S
C460 C464 1.368 . S
C461 C442 1.429 . S
C461 C455 1.429 . S
C461 C462 1.523 . S
C462 C443 1.368 . S
C462 C456 1.368 . S
C462 C461 1.523 . S
C463 C447 1.429 . S
C463 C459 1.429 . S
C463 C464 1.523 . S
C464 C448 1.368 . S
C464 C460 1.368 . S
C464 C463 1.523 . S
H465 C440 0.950 . S
H466 C442 0.950 . S
H467 C443 0.949 . S
H468 C445 0.950 . S
H469 C447 0.950 . S
C470 C471 1.349 . S
C470 C472 1.327 . S
C470 H495 0.950 . S
C471 C470 1.349 . S
C471 C487 1.349 . S
C472 C470 1.327 . S
C472 C491 1.429 . S
C472 H496 0.950 . S
C473 C490 1.574 . S
C473 C492 1.368 . S
C473 H497 0.949 . S
H474 C478 0.949 . S
C475 C476 1.349 . S
C475 C477 1.327 . S
C475 H498 0.950 . S
C476 C475 1.349 . S
C476 C488 1.349 . S
C477 C475 1.327 . S
C477 C493 1.429 . S
C477 H499 0.950 . S
C478 H474 0.949 . S
C478 C486 1.574 . S
C478 C494 1.368 . S
H479 C487 0.950 . S
H480 C485 0.950 . S
H481 C486 0.949 . S
H482 C488 0.950 . S
H483 C489 0.950 . S
H484 C490 0.949 . S
C485 H480 0.950 . S
C485 C487 1.327 . S
C485 C491 1.429 . S
C486 C478 1.574 . S
C486 H481 0.949 . S
C486 C492 1.368 . S
C487 C471 1.349 . S
C487 H479 0.950 . S
C487 C485 1.327 . S
C488 C476 1.349 . S
C488 H482 0.950 . S
C488 C489 1.327 . S
C489 H483 0.950 . S
C489 C488 1.327 . S
C489 C493 1.429 . S
C490 C473 1.574 . S
C490 H484 0.949 . S
C490 C494 1.368 . S
C491 C472 1.429 . S
C491 C485 1.429 . S
C491 C492 1.523 . S
C492 C473 1.368 . S
C492 C486 1.368 . S
C492 C491 1.523 . S
C493 C477 1.429 . S
C493 C489 1.429 . S
C493 C494 1.523 . S
C494 C478 1.368 . S
C494 C490 1.368 . S
C494 C493 1.523 . S
H495 C470 0.950 . S
H496 C472 0.950 . S
H497 C473 0.949 . S
H498 C475 0.950 . S
H499 C477 0.950 . S
C500 C501 1.349 . S
C500 C502 1.327 . S
C500 H525 0.950 . S
C501 C500 1.349 . S
C501 C517 1.349 . S
C502 C500 1.327 . S
C502 C521 1.429 . S
C502 H526 0.950 . S
C503 C520 1.574 . S
C503 C522 1.368 . S
C503 H527 0.949 . S
H504 C508 0.949 . S
C505 C506 1.349 . S
C505 C507 1.327 . S
C505 H528 0.968 . S
C506 C505 1.349 . S
C506 C518 1.349 . S
C507 C505 1.327 . S
C507 C523 1.429 . S
C507 H529 0.950 . S
C508 H504 0.949 . S
C508 C516 1.574 . S
C508 C524 1.368 . S
H509 C517 0.950 . S
H510 C515 0.950 . S
H511 C516 0.949 . S
H512 C518 0.950 . S
H513 C519 0.950 . S
H514 C520 0.949 . S
C515 H510 0.950 . S
C515 C517 1.327 . S
C515 C521 1.429 . S
C516 C508 1.574 . S
C516 H511 0.949 . S
C516 C522 1.368 . S
C517 C501 1.349 . S
C517 H509 0.950 . S
C517 C515 1.327 . S
C518 C506 1.349 . S
C518 H512 0.950 . S
C518 C519 1.327 . S
C519 H513 0.950 . S
C519 C518 1.327 . S
C519 C523 1.429 . S
C520 C503 1.574 . S
C520 H514 0.949 . S
C520 C524 1.368 . S
C521 C502 1.429 . S
C521 C515 1.429 . S
C521 C522 1.523 . S
C522 C503 1.368 . S
C522 C516 1.368 . S
C522 C521 1.523 . S
C523 C507 1.429 . S
C523 C519 1.429 . S
C523 C524 1.523 . S
C524 C508 1.368 . S
C524 C520 1.368 . S
C524 C523 1.523 . S
H525 C500 0.950 . S
H526 C502 0.950 . S
H527 C503 0.949 . S
H528 C505 0.968 . S
H529 C507 0.950 . S
C530 C531 1.349 . S
C530 C532 1.327 . S
C530 H555 0.950 . S
C531 C530 1.349 . S
C531 C547 1.349 . S
C532 C530 1.327 . S
C532 C551 1.429 . S
C532 H556 0.950 . S
C533 C550 1.574 . S
C533 C552 1.368 . S
C533 H557 0.949 . S
H534 C538 0.949 . S
C535 C536 1.349 . S
C535 C537 1.327 . S
C535 H558 0.950 . S
C536 C535 1.349 . S
C536 C548 1.349 . S
C537 C535 1.327 . S
C537 C553 1.429 . S
C537 H559 0.950 . S
C538 H534 0.949 . S
C538 C546 1.574 . S
C538 C554 1.368 . S
H539 C547 0.950 . S
H540 C545 0.950 . S
H541 C546 0.949 . S
H542 C548 0.950 . S
H543 C549 0.950 . S
H544 C550 0.949 . S
C545 H540 0.950 . S
C545 C547 1.327 . S
C545 C551 1.429 . S
C546 C538 1.574 . S
C546 H541 0.949 . S
C546 C552 1.368 . S
C547 C531 1.349 . S
C547 H539 0.950 . S
C547 C545 1.327 . S
C548 C536 1.349 . S
C548 H542 0.950 . S
C548 C549 1.327 . S
C549 H543 0.950 . S
C549 C548 1.327 . S
C549 C553 1.429 . S
C550 C533 1.574 . S
C550 H544 0.949 . S
C550 C554 1.368 . S
C551 C532 1.429 . S
C551 C545 1.429 . S
C551 C552 1.523 . S
C552 C533 1.368 . S
C552 C546 1.368 . S
C552 C551 1.523 . S
C553 C537 1.429 . S
C553 C549 1.429 . S
C553 C554 1.523 . S
C554 C538 1.368 . S
C554 C550 1.368 . S
C554 C553 1.523 . S
H555 C530 0.950 . S
H556 C532 0.950 . S
H557 C533 0.949 . S
H558 C535 0.950 . S
H559 C537 0.950 . S
C560 C561 1.349 . S
C560 C562 1.327 . S
C560 H585 0.945 1_556 S
C561 C560 1.349 . S
C561 C577 1.349 . S
C562 C560 1.327 . S
C562 C581 1.429 . S
C562 H586 0.950 . S
C563 C580 1.574 . S
C563 C582 1.368 . S
C563 H587 0.949 . S
H564 C568 0.949 . S
C565 C566 1.349 . S
C565 C567 1.327 . S
C565 H588 0.950 . S
C566 C565 1.349 . S
C566 C578 1.349 . S
C567 C565 1.327 . S
C567 C583 1.429 . S
C567 H589 0.950 . S
C568 H564 0.949 . S
C568 C576 1.574 . S
C568 C584 1.368 . S
H569 C577 0.950 . S
H570 C575 0.950 . S
H571 C576 0.949 . S
H572 C578 0.950 . S
H573 C579 0.950 . S
H574 C580 0.949 . S
C575 H570 0.950 . S
C575 C577 1.327 . S
C575 C581 1.429 . S
C576 C568 1.574 . S
C576 H571 0.949 . S
C576 C582 1.368 . S
C577 C561 1.349 . S
C577 H569 0.950 . S
C577 C575 1.327 . S
C578 C566 1.349 . S
C578 H572 0.950 . S
C578 C579 1.327 . S
C579 H573 0.950 . S
C579 C578 1.327 . S
C579 C583 1.429 . S
C580 C563 1.574 . S
C580 H574 0.949 . S
C580 C584 1.368 . S
C581 C562 1.429 . S
C581 C575 1.429 . S
C581 C582 1.523 . S
C582 C563 1.368 . S
C582 C576 1.368 . S
C582 C581 1.523 . S
C583 C567 1.429 . S
C583 C579 1.429 . S
C583 C584 1.523 . S
C584 C568 1.368 . S
C584 C580 1.368 . S
C584 C583 1.523 . S
H585 C560 0.945 1_554 S
H586 C562 0.950 . S
H587 C563 0.949 . S
H588 C565 0.950 . S
H589 C567 0.950 . S
C590 C591 1.349 . S
C590 C592 1.327 . S
C590 H615 0.950 . S
C591 C590 1.349 . S
C591 C607 1.349 . S
C592 C590 1.327 . S
C592 C611 1.429 . S
C592 H616 0.950 . S
C593 C610 1.574 . S
C593 C612 1.368 . S
C593 H617 0.949 . S
H594 C598 0.949 . S
C595 C596 1.349 . S
C595 C597 1.327 . S
C595 H618 0.950 . S
C596 C595 1.349 . S
C596 C608 1.349 . S
C597 C595 1.327 . S
C597 C613 1.429 . S
C597 H619 0.950 . S
C598 H594 0.949 . S
C598 C606 1.574 . S
C598 C614 1.368 . S
H599 C607 0.950 . S
H600 C605 0.950 . S
H601 C606 0.949 . S
H602 C608 0.950 . S
H603 C609 0.950 . S
H604 C610 0.949 . S
C605 H600 0.950 . S
C605 C607 1.327 . S
C605 C611 1.429 . S
C606 C598 1.574 . S
C606 H601 0.949 . S
C606 C612 1.368 . S
C607 C591 1.349 . S
C607 H599 0.950 . S
C607 C605 1.327 . S
C608 C596 1.349 . S
C608 H602 0.950 . S
C608 C609 1.327 . S
C609 H603 0.950 . S
C609 C608 1.327 . S
C609 C613 1.429 . S
C610 C593 1.574 . S
C610 H604 0.949 . S
C610 C614 1.368 . S
C611 C592 1.429 . S
C611 C605 1.429 . S
C611 C612 1.523 . S
C612 C593 1.368 . S
C612 C606 1.368 . S
C612 C611 1.523 . S
C613 C597 1.429 . S
C613 C609 1.429 . S
C613 C614 1.523 . S
C614 C598 1.368 . S
C614 C610 1.368 . S
C614 C613 1.523 . S
H615 C590 0.950 . S
H616 C592 0.950 . S
H617 C593 0.949 . S
H618 C595 0.950 . S
H619 C597 0.950 . S
C620 C621 1.349 . S
C620 C622 1.327 . S
C620 H645 0.950 . S
C621 C620 1.349 . S
C621 C637 1.349 . S
C622 C620 1.327 . S
C622 C641 1.429 . S
C622 H646 0.950 . S
C623 C640 1.574 . S
C623 C642 1.368 . S
C623 H647 0.949 . S
H624 C628 0.949 . S
C625 C626 1.349 . S
C625 C627 1.327 . S
C625 H648 0.950 . S
C626 C625 1.349 . S
C626 C638 1.349 . S
C627 C625 1.327 . S
C627 C643 1.429 . S
C627 H649 0.950 . S
C628 H624 0.949 . S
C628 C636 1.574 . S
C628 C644 1.368 . S
H629 C637 0.950 . S
H630 C635 0.950 . S
H631 C636 0.949 . S
H632 C638 0.950 . S
H633 C639 0.950 . S
H634 C640 0.949 . S
C635 H630 0.950 . S
C635 C637 1.327 . S
C635 C641 1.429 . S
C636 C628 1.574 . S
C636 H631 0.949 . S
C636 C642 1.368 . S
C637 C621 1.349 . S
C637 H629 0.950 . S
C637 C635 1.327 . S
C638 C626 1.349 . S
C638 H632 0.950 . S
C638 C639 1.327 . S
C639 H633 0.950 . S
C639 C638 1.327 . S
C639 C643 1.429 . S
C640 C623 1.574 . S
C640 H634 0.949 . S
C640 C644 1.368 . S
C641 C622 1.429 . S
C641 C635 1.429 . S
C641 C642 1.523 . S
C642 C623 1.368 . S
C642 C636 1.368 . S
C642 C641 1.523 . S
C643 C627 1.429 . S
C643 C639 1.429 . S
C643 C644 1.523 . S
C644 C628 1.368 . S
C644 C640 1.368 . S
C644 C643 1.523 . S
H645 C620 0.950 . S
H646 C622 0.950 . S
H647 C623 0.949 . S
H648 C625 0.950 . S
H649 C627 0.950 . S
C650 C651 1.349 . S
C650 C652 1.327 . S
C650 H675 0.950 . S
C651 C650 1.349 . S
C651 C667 1.349 . S
C652 C650 1.327 . S
C652 C671 1.429 . S
C652 H676 0.950 . S
C653 C670 1.574 . S
C653 C672 1.368 . S
C653 H677 0.949 . S
H654 C658 0.949 . S
C655 C656 1.349 . S
C655 C657 1.327 . S
C655 H678 0.950 . S
C656 C655 1.349 . S
C656 C668 1.349 . S
C657 C655 1.327 . S
C657 C673 1.429 . S
C657 H679 0.950 . S
C658 H654 0.949 . S
C658 C666 1.574 . S
C658 C674 1.368 . S
H659 C667 0.950 . S
H660 C665 0.950 . S
H661 C666 0.949 . S
H662 C668 0.950 . S
H663 C669 0.950 . S
H664 C670 0.949 . S
C665 H660 0.950 . S
C665 C667 1.327 . S
C665 C671 1.429 . S
C666 C658 1.574 . S
C666 H661 0.949 . S
C666 C672 1.368 . S
C667 C651 1.349 . S
C667 H659 0.950 . S
C667 C665 1.327 . S
C668 C656 1.349 . S
C668 H662 0.950 . S
C668 C669 1.327 . S
C669 H663 0.950 . S
C669 C668 1.327 . S
C669 C673 1.429 . S
C670 C653 1.574 . S
C670 H664 0.949 . S
C670 C674 1.368 . S
C671 C652 1.429 . S
C671 C665 1.429 . S
C671 C672 1.523 . S
C672 C653 1.368 . S
C672 C666 1.368 . S
C672 C671 1.523 . S
C673 C657 1.429 . S
C673 C669 1.429 . S
C673 C674 1.523 . S
C674 C658 1.368 . S
C674 C670 1.368 . S
C674 C673 1.523 . S
H675 C650 0.950 . S
H676 C652 0.950 . S
H677 C653 0.949 . S
H678 C655 0.950 . S
H679 C657 0.950 . S
C680 C681 1.349 . S
C680 C682 1.327 . S
C680 H705 0.950 . S
C681 C680 1.349 . S
C681 C697 1.349 . S
C682 C680 1.327 . S
C682 C701 1.429 . S
C682 H706 0.950 . S
C683 C700 1.574 . S
C683 C702 1.368 . S
C683 H707 0.949 . S
H684 C688 0.949 . S
C685 C686 1.349 . S
C685 C687 1.327 . S
C685 H708 0.950 . S
C686 C685 1.349 . S
C686 C698 1.349 . S
C687 C685 1.327 . S
C687 C703 1.429 . S
C687 H709 0.950 . S
C688 H684 0.949 . S
C688 C696 1.574 . S
C688 C704 1.368 . S
H689 C697 0.950 . S
H690 C695 0.950 . S
H691 C696 0.949 . S
H692 C698 0.965 . S
H693 C699 0.950 . S
H694 C700 0.949 . S
C695 H690 0.950 . S
C695 C697 1.327 . S
C695 C701 1.429 . S
C696 C688 1.574 . S
C696 H691 0.949 . S
C696 C702 1.368 . S
C697 C681 1.349 . S
C697 H689 0.950 . S
C697 C695 1.327 . S
C698 C686 1.349 . S
C698 H692 0.965 . S
C698 C699 1.327 . S
C699 H693 0.950 . S
C699 C698 1.327 . S
C699 C703 1.429 . S
C700 C683 1.574 . S
C700 H694 0.949 . S
C700 C704 1.368 . S
C701 C682 1.429 . S
C701 C695 1.429 . S
C701 C702 1.523 . S
C702 C683 1.368 . S
C702 C696 1.368 . S
C702 C701 1.523 . S
C703 C687 1.429 . S
C703 C699 1.429 . S
C703 C704 1.523 . S
C704 C688 1.368 . S
C704 C700 1.368 . S
C704 C703 1.523 . S
H705 C680 0.950 . S
H706 C682 0.950 . S
H707 C683 0.949 . S
H708 C685 0.950 . S
H709 C687 0.950 . S
C710 C711 1.349 . S
C710 C712 1.327 . S
C710 H735 0.950 . S
C711 C710 1.349 . S
C711 C727 1.349 . S
C712 C710 1.327 . S
C712 C731 1.429 . S
C712 H736 0.950 . S
C713 C730 1.574 . S
C713 C732 1.368 . S
C713 H737 0.949 . S
H714 C718 0.949 . S
C715 C716 1.349 . S
C715 C717 1.327 . S
C715 H738 0.950 . S
C716 C715 1.349 . S
C716 C728 1.349 . S
C717 C715 1.327 . S
C717 C733 1.429 . S
C717 H739 0.950 . S
C718 H714 0.949 . S
C718 C726 1.574 . S
C718 C734 1.368 . S
H719 C727 0.950 1_554 S
H720 C725 0.950 . S
H721 C726 0.949 . S
H722 C728 0.950 . S
H723 C729 0.950 . S
H724 C730 0.949 . S
C725 H720 0.950 . S
C725 C727 1.327 . S
C725 C731 1.429 . S
C726 C718 1.574 . S
C726 H721 0.949 . S
C726 C732 1.368 . S
C727 C711 1.349 . S
C727 H719 0.950 1_556 S
C727 C725 1.327 . S
C728 C716 1.349 . S
C728 H722 0.950 . S
C728 C729 1.327 . S
C729 H723 0.950 . S
C729 C728 1.327 . S
C729 C733 1.429 . S
C730 C713 1.574 . S
C730 H724 0.949 . S
C730 C734 1.368 . S
C731 C712 1.429 . S
C731 C725 1.429 . S
C731 C732 1.523 . S
C732 C713 1.368 . S
C732 C726 1.368 . S
C732 C731 1.523 . S
C733 C717 1.429 . S
C733 C729 1.429 . S
C733 C734 1.523 . S
C734 C718 1.368 . S
C734 C730 1.368 . S
C734 C733 1.523 . S
H735 C710 0.950 . S
H736 C712 0.950 . S
H737 C713 0.949 . S
H738 C715 0.950 . S
H739 C717 0.950 . S
C740 C741 1.349 . S
C740 C742 1.327 . S
C740 H765 0.950 . S
C741 C740 1.349 . S
C741 C757 1.349 . S
C742 C740 1.327 . S
C742 C761 1.429 . S
C742 H766 0.950 . S
C743 C760 1.574 . S
C743 C762 1.368 . S
C743 H767 0.949 . S
H744 C748 0.949 . S
C745 C746 1.349 . S
C745 C747 1.327 . S
C745 H768 0.950 . S
C746 C745 1.349 . S
C746 C758 1.349 . S
C747 C745 1.327 . S
C747 C763 1.429 . S
C747 H769 0.950 . S
C748 H744 0.949 . S
C748 C756 1.574 . S
C748 C764 1.368 . S
H749 C757 0.950 . S
H750 C755 0.950 . S
H751 C756 0.949 . S
H752 C758 0.950 . S
H753 C759 0.950 . S
H754 C760 0.949 . S
C755 H750 0.950 . S
C755 C757 1.327 . S
C755 C761 1.429 . S
C756 C748 1.574 . S
C756 H751 0.949 . S
C756 C762 1.368 . S
C757 C741 1.349 . S
C757 H749 0.950 . S
C757 C755 1.327 . S
C758 C746 1.349 . S
C758 H752 0.950 . S
C758 C759 1.327 . S
C759 H753 0.950 . S
C759 C758 1.327 . S
C759 C763 1.429 . S
C760 C743 1.574 . S
C760 H754 0.949 . S
C760 C764 1.368 . S
C761 C742 1.429 . S
C761 C755 1.429 . S
C761 C762 1.523 . S
C762 C743 1.368 . S
C762 C756 1.368 . S
C762 C761 1.523 . S
C763 C747 1.429 . S
C763 C759 1.429 . S
C763 C764 1.523 . S
C764 C748 1.368 . S
C764 C760 1.368 . S
C764 C763 1.523 . S
H765 C740 0.950 . S
H766 C742 0.950 . S
H767 C743 0.949 . S
H768 C745 0.950 . S
H769 C747 0.950 . S
C770 C771 1.349 . S
C770 C772 1.327 . S
C770 H795 0.950 . S
C771 C770 1.349 . S
C771 C787 1.349 . S
C772 C770 1.327 . S
C772 C791 1.429 . S
C772 H796 0.950 . S
C773 C790 1.574 . S
C773 C792 1.368 . S
C773 H797 0.949 . S
H774 C778 0.949 . S
C775 C776 1.349 . S
C775 C777 1.327 . S
C775 H798 0.950 . S
C776 C775 1.349 . S
C776 C788 1.349 . S
C777 C775 1.327 . S
C777 C793 1.429 . S
C777 H799 0.950 . S
C778 H774 0.949 . S
C778 C786 1.574 . S
C778 C794 1.368 . S
H779 C787 0.950 . S
H780 C785 0.950 . S
H781 C786 0.949 . S
H782 C788 0.950 . S
H783 C789 0.950 . S
H784 C790 0.949 . S
C785 H780 0.950 . S
C785 C787 1.327 . S
C785 C791 1.429 . S
C786 C778 1.574 . S
C786 H781 0.949 . S
C786 C792 1.368 . S
C787 C771 1.349 . S
C787 H779 0.950 . S
C787 C785 1.327 . S
C788 C776 1.349 . S
C788 H782 0.950 . S
C788 C789 1.327 . S
C789 H783 0.950 . S
C789 C788 1.327 . S
C789 C793 1.429 . S
C790 C773 1.574 . S
C790 H784 0.949 . S
C790 C794 1.368 . S
C791 C772 1.429 . S
C791 C785 1.429 . S
C791 C792 1.523 . S
C792 C773 1.368 . S
C792 C786 1.368 . S
C792 C791 1.523 . S
C793 C777 1.429 . S
C793 C789 1.429 . S
C793 C794 1.523 . S
C794 C778 1.368 . S
C794 C790 1.368 . S
C794 C793 1.523 . S
H795 C770 0.950 . S
H796 C772 0.950 . S
H797 C773 0.949 . S
H798 C775 0.950 . S
H799 C777 0.950 . S
C800 C801 1.349 . S
C800 C802 1.327 . S
C800 H825 0.950 . S
C801 C800 1.349 . S
C801 C817 1.349 1_545 S
C802 C800 1.327 . S
C802 C821 1.429 . S
C802 H826 0.950 . S
C803 C820 1.574 1_556 S
C803 C822 1.368 1_465 S
C803 H827 0.949 . S
H804 C808 0.949 . S
C805 C806 1.349 . S
C805 C807 1.327 . S
C805 H828 0.950 . S
C806 C805 1.349 . S
C806 C818 1.349 1_565 S
C807 C805 1.327 . S
C807 C823 1.429 . S
C807 H829 0.950 . S
C808 H804 0.949 . S
C808 C816 1.574 1_554 S
C808 C824 1.368 1_645 S
H809 C817 0.950 . S
H810 C815 0.950 1_455 S
H811 C816 0.949 . S
H812 C818 0.950 . S
H813 C819 0.950 1_655 S
H814 C820 0.949 . S
C815 H810 0.950 1_655 S
C815 C817 1.327 . S
C815 C821 1.429 1_565 S
C816 C808 1.574 1_556 S
C816 H811 0.949 . S
C816 C822 1.368 . S
C817 C801 1.349 1_565 S
C817 H809 0.950 . S
C817 C815 1.327 . S
C818 C806 1.349 1_545 S
C818 H812 0.950 . S
C818 C819 1.327 . S
C819 H813 0.950 1_455 S
C819 C818 1.327 . S
C819 C823 1.429 1_545 S
C820 C803 1.574 1_554 S
C820 H814 0.949 . S
C820 C824 1.368 . S
C821 C802 1.429 . S
C821 C815 1.429 1_545 S
C821 C822 1.523 . S
C822 C803 1.368 1_645 S
C822 C816 1.368 . S
C822 C821 1.523 . S
C823 C807 1.429 . S
C823 C819 1.429 1_565 S
C823 C824 1.523 . S
C824 C808 1.368 1_465 S
C824 C820 1.368 . S
C824 C823 1.523 . S
H825 C800 0.950 . S
H826 C802 0.950 . S
H827 C803 0.949 . S
H828 C805 0.950 . S
H829 C807 0.950 . S
C830 C831 1.349 . S
C830 C832 1.327 . S
C830 H855 0.950 . S
C831 C830 1.349 . S
C831 C847 1.349 . S
C832 C830 1.327 . S
C832 C851 1.429 . S
C832 H856 0.950 . S
C833 C850 1.574 . S
C833 C852 1.368 . S
C833 H857 0.949 . S
H834 C838 0.949 . S
C835 C836 1.349 . S
C835 C837 1.327 . S
C835 H858 0.950 . S
C836 C835 1.349 . S
C836 C848 1.349 . S
C837 C835 1.327 . S
C837 C853 1.429 . S
C837 H859 0.950 . S
C838 H834 0.949 . S
C838 C846 1.574 . S
C838 C854 1.368 . S
H839 C847 0.950 . S
H840 C845 0.950 . S
H841 C846 0.949 . S
H842 C848 0.950 . S
H843 C849 0.950 . S
H844 C850 0.949 . S
C845 H840 0.950 . S
C845 C847 1.327 . S
C845 C851 1.429 . S
C846 C838 1.574 . S
C846 H841 0.949 . S
C846 C852 1.368 . S
C847 C831 1.349 . S
C847 H839 0.950 . S
C847 C845 1.327 . S
C848 C836 1.349 . S
C848 H842 0.950 . S
C848 C849 1.327 . S
C849 H843 0.950 . S
C849 C848 1.327 . S
C849 C853 1.429 . S
C850 C833 1.574 . S
C850 H844 0.949 . S
C850 C854 1.368 . S
C851 C832 1.429 . S
C851 C845 1.429 . S
C851 C852 1.523 . S
C852 C833 1.368 . S
C852 C846 1.368 . S
C852 C851 1.523 . S
C853 C837 1.429 . S
C853 C849 1.429 . S
C853 C854 1.523 . S
C854 C838 1.368 . S
C854 C850 1.368 . S
C854 C853 1.523 . S
H855 C830 0.950 . S
H856 C832 0.950 . S
H857 C833 0.949 . S
H858 C835 0.950 . S
H859 C837 0.950 . S
C860 C861 1.349 . S
C860 C862 1.327 . S
C860 H885 0.950 . S
C861 C860 1.349 . S
C861 C877 1.349 1_565 S
C862 C860 1.327 . S
C862 C881 1.429 . S
C862 H886 0.950 . S
C863 C880 1.574 . S
C863 C882 1.368 1_545 S
C863 H887 0.949 . S
H864 C868 0.949 . S
C865 C866 1.349 . S
C865 C867 1.327 . S
C865 H888 0.950 . S
C866 C865 1.349 . S
C866 C878 1.349 1_545 S
C867 C865 1.327 . S
C867 C883 1.429 . S
C867 H889 0.950 . S
C868 H864 0.949 . S
C868 C876 1.574 . S
C868 C884 1.368 1_565 S
H869 C877 0.950 . S
H870 C875 0.950 . S
H871 C876 0.949 . S
H872 C878 0.950 . S
H873 C879 0.950 . S
H874 C880 0.949 . S
C875 H870 0.950 . S
C875 C877 1.327 . S
C875 C881 1.429 1_545 S
C876 C868 1.574 . S
C876 H871 0.949 . S
C876 C882 1.368 . S
C877 C861 1.349 1_545 S
C877 H869 0.950 . S
C877 C875 1.327 . S
C878 C866 1.349 1_565 S
C878 H872 0.950 . S
C878 C879 1.327 . S
C879 H873 0.950 . S
C879 C878 1.327 . S
C879 C883 1.429 1_565 S
C880 C863 1.574 . S
C880 H874 0.949 . S
C880 C884 1.368 . S
C881 C862 1.429 . S
C881 C875 1.429 1_565 S
C881 C882 1.523 . S
C882 C863 1.368 1_565 S
C882 C876 1.368 . S
C882 C881 1.523 . S
C883 C867 1.429 . S
C883 C879 1.429 1_545 S
C883 C884 1.523 . S
C884 C868 1.368 1_545 S
C884 C880 1.368 . S
C884 C883 1.523 . S
H885 C860 0.950 . S
H886 C862 0.950 . S
H887 C863 0.949 . S
H888 C865 0.950 . S
H889 C867 0.950 . S
C890 C891 1.349 . S
C890 C892 1.327 . S
C890 H915 0.950 . S
C891 C890 1.349 . S
C891 C907 1.349 . S
C892 C890 1.327 . S
C892 C911 1.429 . S
C892 H916 0.950 . S
C893 C910 1.574 . S
C893 C912 1.368 . S
C893 H917 0.949 . S
H894 C898 0.949 . S
C895 C896 1.349 . S
C895 C897 1.327 . S
C895 H918 0.950 . S
C896 C895 1.349 . S
C896 C908 1.349 . S
C897 C895 1.327 . S
C897 C913 1.429 . S
C897 H919 0.950 . S
C898 H894 0.949 . S
C898 C906 1.574 . S
C898 C914 1.368 . S
H899 C907 0.950 . S
H900 C905 0.950 . S
H901 C906 0.949 . S
H902 C908 0.950 . S
H903 C909 0.950 . S
H904 C910 0.949 . S
C905 H900 0.950 . S
C905 C907 1.327 . S
C905 C911 1.429 . S
C906 C898 1.574 . S
C906 H901 0.949 . S
C906 C912 1.368 . S
C907 C891 1.349 . S
C907 H899 0.950 . S
C907 C905 1.327 . S
C908 C896 1.349 . S
C908 H902 0.950 . S
C908 C909 1.327 . S
C909 H903 0.950 . S
C909 C908 1.327 . S
C909 C913 1.429 . S
C910 C893 1.574 . S
C910 H904 0.949 . S
C910 C914 1.368 . S
C911 C892 1.429 . S
C911 C905 1.429 . S
C911 C912 1.523 . S
C912 C893 1.368 . S
C912 C906 1.368 . S
C912 C911 1.523 . S
C913 C897 1.429 . S
C913 C909 1.429 . S
C913 C914 1.523 . S
C914 C898 1.368 . S
C914 C910 1.368 . S
C914 C913 1.523 . S
H915 C890 0.950 . S
H916 C892 0.950 . S
H917 C893 0.949 . S
H918 C895 0.950 . S
H919 C897 0.950 . S
C920 C921 1.349 . S
C920 C922 1.327 . S
C920 H945 0.950 . S
C921 C920 1.349 . S
C921 C937 1.349 . S
C922 C920 1.327 . S
C922 C941 1.429 . S
C922 H946 0.950 . S
C923 C940 1.574 . S
C923 C942 1.368 . S
C923 H947 0.949 . S
H924 C928 0.949 . S
C925 C926 1.349 . S
C925 C927 1.327 . S
C925 H948 0.950 . S
C926 C925 1.349 . S
C926 C938 1.349 . S
C927 C925 1.327 . S
C927 C943 1.429 . S
C927 H949 0.950 . S
C928 H924 0.949 . S
C928 C936 1.574 . S
C928 C944 1.368 . S
H929 C937 0.950 . S
H930 C935 0.950 . S
H931 C936 0.949 . S
H932 C938 0.950 . S
H933 C939 0.950 . S
H934 C940 0.949 . S
C935 H930 0.950 . S
C935 C937 1.327 . S
C935 C941 1.429 . S
C936 C928 1.574 . S
C936 H931 0.949 . S
C936 C942 1.368 . S
C937 C921 1.349 . S
C937 H929 0.950 . S
C937 C935 1.327 . S
C938 C926 1.349 . S
C938 H932 0.950 . S
C938 C939 1.327 . S
C939 H933 0.950 . S
C939 C938 1.327 . S
C939 C943 1.429 . S
C940 C923 1.574 . S
C940 H934 0.949 . S
C940 C944 1.368 . S
C941 C922 1.429 . S
C941 C935 1.429 . S
C941 C942 1.523 . S
C942 C923 1.368 . S
C942 C936 1.368 . S
C942 C941 1.523 . S
C943 C927 1.429 . S
C943 C939 1.429 . S
C943 C944 1.523 . S
C944 C928 1.368 . S
C944 C940 1.368 . S
C944 C943 1.523 . S
H945 C920 0.950 . S
H946 C922 0.950 . S
H947 C923 0.949 . S
H948 C925 0.950 . S
H949 C927 0.950 . S
C950 C951 1.349 . S
C950 C952 1.327 . S
C950 H975 0.950 . S
C951 C950 1.349 . S
C951 C967 1.349 . S
C952 C950 1.327 . S
C952 C971 1.429 . S
C952 H976 0.950 . S
C953 C970 1.574 . S
C953 C972 1.368 . S
C953 H977 0.949 . S
H954 C958 0.949 . S
C955 C956 1.349 . S
C955 C957 1.327 . S
C955 H978 0.950 . S
C956 C955 1.349 . S
C956 C968 1.349 . S
C957 C955 1.327 . S
C957 C973 1.429 . S
C957 H979 0.950 . S
C958 H954 0.949 . S
C958 C966 1.574 . S
C958 C974 1.368 . S
H959 C967 0.950 . S
H960 C965 0.950 . S
H961 C966 0.949 . S
H962 C968 0.950 . S
H963 C969 0.950 . S
H964 C970 0.949 . S
C965 H960 0.950 . S
C965 C967 1.327 . S
C965 C971 1.429 . S
C966 C958 1.574 . S
C966 H961 0.949 . S
C966 C972 1.368 . S
C967 C951 1.349 . S
C967 H959 0.950 . S
C967 C965 1.327 . S
C968 C956 1.349 . S
C968 H962 0.950 . S
C968 C969 1.327 . S
C969 H963 0.950 . S
C969 C968 1.327 . S
C969 C973 1.429 . S
C970 C953 1.574 . S
C970 H964 0.949 . S
C970 C974 1.368 . S
C971 C952 1.429 . S
C971 C965 1.429 . S
C971 C972 1.523 . S
C972 C953 1.368 . S
C972 C966 1.368 . S
C972 C971 1.523 . S
C973 C957 1.429 . S
C973 C969 1.429 . S
C973 C974 1.523 . S
C974 C958 1.368 . S
C974 C970 1.368 . S
C974 C973 1.523 . S
H975 C950 0.950 . S
H976 C952 0.950 . S
H977 C953 0.949 . S
H978 C955 0.950 . S
H979 C957 0.950 . S
C980 C981 1.349 . S
C980 C982 1.327 . S
C980 H1005 0.950 . S
C981 C980 1.349 . S
C981 C997 1.349 . S
C982 C980 1.327 . S
C982 C1001 1.429 . S
C982 H1006 0.950 . S
C983 C1000 1.574 . S
C983 C1002 1.368 . S
C983 H1007 0.949 . S
H984 C988 0.949 . S
C985 C986 1.349 . S
C985 C987 1.327 . S
C985 H1008 0.950 . S
C986 C985 1.349 . S
C986 C998 1.349 . S
C987 C985 1.327 . S
C987 C1003 1.429 . S
C987 H1009 0.950 . S
C988 H984 0.949 . S
C988 C996 1.574 . S
C988 C1004 1.368 . S
H989 C997 0.950 . S
H990 C995 0.950 . S
H991 C996 0.949 . S
H992 C998 0.950 . S
H993 C999 0.950 . S
H994 C1000 0.949 . S
C995 H990 0.950 . S
C995 C997 1.327 . S
C995 C1001 1.429 . S
C996 C988 1.574 . S
C996 H991 0.949 . S
C996 C1002 1.368 . S
C997 C981 1.349 . S
C997 H989 0.950 . S
C997 C995 1.327 . S
C998 C986 1.349 . S
C998 H992 0.950 . S
C998 C999 1.327 . S
C999 H993 0.950 . S
C999 C998 1.327 . S
C999 C1003 1.429 . S
C1000 C983 1.574 . S
C1000 H994 0.949 . S
C1000 C1004 1.368 . S
C1001 C982 1.429 . S
C1001 C995 1.429 . S
C1001 C1002 1.523 . S
C1002 C983 1.368 . S
C1002 C996 1.368 . S
C1002 C1001 1.523 . S
C1003 C987 1.429 . S
C1003 C999 1.429 . S
C1003 C1004 1.523 . S
C1004 C988 1.368 . S
C1004 C1000 1.368 . S
C1004 C1003 1.523 . S
H1005 C980 0.950 . S
H1006 C982 0.950 . S
H1007 C983 0.949 . S
H1008 C985 0.950 . S
H1009 C987 0.950 . S
C1010 C1011 1.349 . S
C1010 C1012 1.327 1_655 S
C1010 H1035 0.950 1_655 S
C1011 C1010 1.349 . S
C1011 C1027 1.349 . S
C1012 C1010 1.327 1_455 S
C1012 C1031 1.429 1_455 S
C1012 H1036 0.950 . S
C1013 C1030 1.574 1_556 S
C1013 C1032 1.368 . S
C1013 H1037 0.949 . S
H1014 C1018 0.949 . S
C1015 C1016 1.349 . S
C1015 C1017 1.327 1_455 S
C1015 H1038 0.950 1_455 S
C1016 C1015 1.349 . S
C1016 C1028 1.349 . S
C1017 C1015 1.327 1_655 S
C1017 C1033 1.429 1_655 S
C1017 H1039 0.950 . S
C1018 H1014 0.949 . S
C1018 C1026 1.574 1_554 S
C1018 C1034 1.368 . S
H1019 C1027 0.950 . S
H1020 C1025 0.950 . S
H1021 C1026 0.949 . S
H1022 C1028 0.950 . S
H1023 C1029 0.950 . S
H1024 C1030 0.949 . S
C1025 H1020 0.950 . S
C1025 C1027 1.327 . S
C1025 C1031 1.429 . S
C1026 C1018 1.574 1_556 S
C1026 H1021 0.949 . S
C1026 C1032 1.368 1_455 S
C1027 C1011 1.349 . S
C1027 H1019 0.950 . S
C1027 C1025 1.327 . S
C1028 C1016 1.349 . S
C1028 H1022 0.950 . S
C1028 C1029 1.327 . S
C1029 H1023 0.950 . S
C1029 C1028 1.327 . S
C1029 C1033 1.429 . S
C1030 C1013 1.574 1_554 S
C1030 H1024 0.949 . S
C1030 C1034 1.368 1_655 S
C1031 C1012 1.429 1_655 S
C1031 C1025 1.429 . S
C1031 C1032 1.523 . S
C1032 C1013 1.368 . S
C1032 C1026 1.368 1_655 S
C1032 C1031 1.523 . S
C1033 C1017 1.429 1_455 S
C1033 C1029 1.429 . S
C1033 C1034 1.523 . S
C1034 C1018 1.368 . S
C1034 C1030 1.368 1_455 S
C1034 C1033 1.523 . S
H1035 C1010 0.950 1_455 S
H1036 C1012 0.950 . S
H1037 C1013 0.949 . S
H1038 C1015 0.950 1_655 S
H1039 C1017 0.950 . S
C321 C19 2.048 . S
C326 C139 2.043 . S
C351 C18 1.495 . S
C356 C59 1.524 . S
C381 C58 0.908 . S
C386 C98 0.911 . S
C411 C99 1.524 . S
C416 C138 1.490 . S
C441 C9 2.050 . S
C446 C209 2.054 . S
C471 C8 1.495 . S
C476 C169 1.524 . S
C501 C168 0.908 . S
C506 C88 0.906 . S
C531 C208 1.495 . S
C536 C89 1.528 . S
C561 C259 2.049 . S
C566 C219 2.050 . S
C591 C179 1.524 . S
C596 C258 1.494 . S
C621 C298 0.908 . S
C626 C178 0.910 . S
C651 C218 1.495 . S
C656 C299 1.527 . S
C681 C129 2.049 . S
C686 C249 2.047 . S
C711 C248 1.495 . S
C716 C49 1.525 . S
C741 C48 0.908 . S
C746 C288 0.905 . S
C771 C128 1.495 . S
C776 C289 1.521 . S
C801 C5 1.439 . S
C806 C15 1.439 . S
C831 C55 1.404 . S
C836 C45 1.404 . S
C861 C85 1.405 . S
C866 C95 1.405 . S
C891 C125 1.439 . S
C896 C135 1.439 . S
C921 C175 1.405 . S
C926 C165 1.405 . S
C951 C205 1.439 . S
C956 C215 1.439 . S
C981 C255 1.439 . S
C986 C245 1.439 . S
C1011 C295 1.405 . S
C1016 C285 1.405 . S
