# Generated by pormake.
# Topology svf, (7)-cn, num edge types: 1
# Building blocks:
#     Node 0, Type 0, BuildingBlock: NUHQUE_clean_sbu_2, # of connection points: 7
#     Node 1, Type 0, BuildingBlock: NUHQUE_clean_sbu_2, # of connection points: 7
#     Node 2, Type 0, BuildingBlock: NUHQUE_clean_sbu_2, # of connection points: 7
#     Node 3, Type 0, BuildingBlock: NUHQUE_clean_sbu_2, # of connection points: 7
#     Node 4, Type 0, BuildingBlock: NUHQUE_clean_sbu_2, # of connection points: 7
#     Node 5, Type 0, BuildingBlock: NUHQUE_clean_sbu_2, # of connection points: 7
#     Node 6, Type 0, BuildingBlock: NUHQUE_clean_sbu_2, # of connection points: 7
#     Node 7, Type 0, BuildingBlock: NUHQUE_clean_sbu_2, # of connection points: 7
#     Edge 8, Type (0, 0), BuildingBlock: MIFKUJ_clean_linker_0, # of connection points: 2
#     Edge 9, Type (0, 0), BuildingBlock: MIFKUJ_clean_linker_0, # of connection points: 2
#     Edge 10, Type (0, 0), BuildingBlock: MIFKUJ_clean_linker_0, # of connection points: 2
#     Edge 11, Type (0, 0), BuildingBlock: MIFKUJ_clean_linker_0, # of connection points: 2
#     Edge 12, Type (0, 0), BuildingBlock: MIFKUJ_clean_linker_0, # of connection points: 2
#     Edge 13, Type (0, 0), BuildingBlock: MIFKUJ_clean_linker_0, # of connection points: 2
#     Edge 14, Type (0, 0), BuildingBlock: MIFKUJ_clean_linker_0, # of connection points: 2
#     Edge 15, Type (0, 0), BuildingBlock: MIFKUJ_clean_linker_0, # of connection points: 2
#     Edge 16, Type (0, 0), BuildingBlock: MIFKUJ_clean_linker_0, # of connection points: 2
#     Edge 17, Type (0, 0), BuildingBlock: MIFKUJ_clean_linker_0, # of connection points: 2
#     Edge 18, Type (0, 0), BuildingBlock: MIFKUJ_clean_linker_0, # of connection points: 2
#     Edge 19, Type (0, 0), BuildingBlock: MIFKUJ_clean_linker_0, # of connection points: 2
#     Edge 20, Type (0, 0), BuildingBlock: MIFKUJ_clean_linker_0, # of connection points: 2
#     Edge 21, Type (0, 0), BuildingBlock: MIFKUJ_clean_linker_0, # of connection points: 2
#     Edge 22, Type (0, 0), BuildingBlock: MIFKUJ_clean_linker_0, # of connection points: 2
#     Edge 23, Type (0, 0), BuildingBlock: MIFKUJ_clean_linker_0, # of connection points: 2
#     Edge 24, Type (0, 0), BuildingBlock: MIFKUJ_clean_linker_0, # of connection points: 2
#     Edge 25, Type (0, 0), BuildingBlock: MIFKUJ_clean_linker_0, # of connection points: 2
#     Edge 26, Type (0, 0), BuildingBlock: MIFKUJ_clean_linker_0, # of connection points: 2
#     Edge 27, Type (0, 0), BuildingBlock: MIFKUJ_clean_linker_0, # of connection points: 2
#     Edge 28, Type (0, 0), BuildingBlock: MIFKUJ_clean_linker_0, # of connection points: 2
#     Edge 29, Type (0, 0), BuildingBlock: MIFKUJ_clean_linker_0, # of connection points: 2
#     Edge 30, Type (0, 0), BuildingBlock: MIFKUJ_clean_linker_0, # of connection points: 2
#     Edge 31, Type (0, 0), BuildingBlock: MIFKUJ_clean_linker_0, # of connection points: 2
#     Edge 32, Type (0, 0), BuildingBlock: MIFKUJ_clean_linker_0, # of connection points: 2
#     Edge 33, Type (0, 0), BuildingBlock: MIFKUJ_clean_linker_0, # of connection points: 2
#     Edge 34, Type (0, 0), BuildingBlock: MIFKUJ_clean_linker_0, # of connection points: 2
#     Edge 35, Type (0, 0), BuildingBlock: MIFKUJ_clean_linker_0, # of connection points: 2
# Relax obj value: 0.236
# Max RMSD: 0.222
# Mean RMSD: 0.216
data_MOF--net-svf--node1-NUHQUE_clean_sbu_2--edge1-MIFKUJ_clean_linker_0
_symmetry_space_group_name_H-M    P1
_symmetry_Int_Tables_number       1
_symmetry_cell_setting            triclinic
loop_
_symmetry_equiv_pos_as_xyz
'x, y, z'
_cell_length_a     60.163149
_cell_length_b     60.10771
_cell_length_c     28.351779
_cell_angle_alpha  97.209805
_cell_angle_beta   89.96649
_cell_angle_gamma 90.12629
loop_
_atom_site_label
_atom_site_type_symbol
_atom_site_fract_x
_atom_site_fract_y
_atom_site_fract_z
_atom_type_partial_charge
O0 O 0.11643 0.35038 0.93979 0.0
Tb1 Tb 0.09605 0.37885 0.96709 0.0
Eu2 Eu 0.1354 0.38062 0.02115 0.0
C3 C 0.11278 0.34079 0.89643 0.0
O4 O 0.12679 0.32589 0.87583 0.0
C5 C 0.12741 0.41152 0.92852 0.0
O6 O 0.14523 0.40793 0.07573 0.0
C7 C 0.16868 0.35204 0.02118 0.0
C8 C 0.13003 0.41759 0.1039 0.0
O9 O 0.10884 0.41374 0.09596 0.0
C10 C 0.08604 0.36722 0.06693 0.0
C11 C 0.18002 0.33078 0.0325 0.0
C12 C 0.18585 0.31531 0.99309 0.0
C13 C 0.19849 0.29608 0.99768 0.0
C14 C 0.20509 0.2918 0.04324 0.0
C15 C 0.19996 0.30662 0.08422 0.0
C16 C 0.18754 0.3265 0.07861 0.0
O17 O 0.11195 0.3968 0.91445 0.0
O18 O 0.13787 0.40943 0.96972 0.0
O19 O 0.06748 0.39758 0.95172 0.0
O20 O 0.09211 0.41086 1.00704 0.0
C21 C 0.07335 0.41427 0.98459 0.0
O22 O 0.10753 0.37172 0.07352 0.0
O23 O 0.07809 0.36515 0.02346 0.0
O24 O 0.16607 0.36936 0.05369 0.0
O25 O 0.15335 0.35091 0.98774 0.0
H26 H 0.18141 0.31894 0.9578 0.0
H27 H 0.21463 0.27683 0.04691 0.0
H28 H 0.18386 0.33839 0.10953 0.0
O29 O 0.61472 0.16594 0.13072 0.0
Tb30 Tb 0.59911 0.13525 0.09804 0.0
Eu31 Eu 0.63883 0.13058 0.04317 0.0
C32 C 0.60929 0.17434 0.17402 0.0
O33 O 0.62091 0.19093 0.19638 0.0
C34 C 0.62998 0.10088 0.13567 0.0
O35 O 0.65043 0.10319 0.99141 0.0
C36 C 0.6707 0.16075 0.04714 0.0
C37 C 0.63463 0.091 0.97034 0.0
O38 O 0.614 0.09369 0.98483 0.0
C39 C 0.59074 0.1432 0.99384 0.0
C40 C 0.68066 0.18291 0.03754 0.0
C41 C 0.68431 0.1984 0.07815 0.0
C42 C 0.69484 0.21894 0.0755 0.0
C43 C 0.7008 0.22473 0.03097 0.0
C44 C 0.70028 0.20916 0.98934 0.0
C45 C 0.68952 0.18799 0.99282 0.0
O46 O 0.61549 0.11669 0.14928 0.0
O47 O 0.6407 0.10209 0.0946 0.0
O48 O 0.56755 0.12195 0.1158 0.0
O49 O 0.59143 0.10196 0.06832 0.0
C50 C 0.57188 0.10268 0.08933 0.0
O51 O 0.61181 0.13723 0.98737 0.0
O52 O 0.58301 0.14716 0.0373 0.0
O53 O 0.66947 0.14363 0.01366 0.0
O54 O 0.65476 0.16071 0.07929 0.0
H55 H 0.67995 0.19385 0.1128 0.0
H56 H 0.70683 0.24161 0.02978 0.0
H57 H 0.68861 0.1755 0.96188 0.0
O58 O 0.84989 0.60208 0.13495 0.0
Tb59 Tb 0.87606 0.60903 0.08671 0.0
Eu60 Eu 0.88778 0.64656 0.02623 0.0
C61 C 0.85171 0.60937 0.1804 0.0
O62 O 0.86103 0.62894 0.19322 0.0
C63 C 0.91363 0.64157 0.12489 0.0
O64 O 0.91219 0.65522 0.97392 0.0
C65 C 0.85677 0.67706 0.03601 0.0
C66 C 0.92444 0.63824 0.9568 0.0
O67 O 0.92317 0.61923 0.97495 0.0
C68 C 0.86742 0.59871 0.97819 0.0
C69 C 0.83434 0.68612 0.02509 0.0
C70 C 0.81979 0.68982 0.06388 0.0
C71 C 0.79958 0.70094 0.06077 0.0
C72 C 0.7933 0.70793 0.01741 0.0
C73 C 0.80738 0.70523 0.97741 0.0
C74 C 0.82813 0.69401 0.98134 0.0
O75 O 0.89407 0.63397 0.136 0.0
O76 O 0.9163 0.64648 0.08114 0.0
O77 O 0.89145 0.57872 0.10516 0.0
O78 O 0.90641 0.59654 0.05215 0.0
C79 C 0.90788 0.57932 0.07545 0.0
O80 O 0.87983 0.61616 0.97286 0.0
O81 O 0.85863 0.59695 0.02019 0.0
O82 O 0.87337 0.67751 1.00597 0.0
O83 O 0.85787 0.66029 0.06207 0.0
H84 H 0.82491 0.68518 0.098 0.0
H85 H 0.77734 0.71607 0.01519 0.0
H86 H 0.83954 0.69224 0.95157 0.0
O87 O 0.35359 0.91298 0.93303 0.0
Tb88 Tb 0.37781 0.90261 0.98189 0.0
Eu89 Eu 0.38949 0.86484 0.04293 0.0
C90 C 0.35519 0.90631 0.88728 0.0
O91 O 0.36505 0.88725 0.87256 0.0
C92 C 0.41373 0.86856 0.94195 0.0
O93 O 0.41127 0.85662 0.1002 0.0
C94 C 0.35549 0.83778 0.03578 0.0
C95 C 0.42613 0.87204 0.11287 0.0
O96 O 0.42874 0.88866 0.08736 0.0
C97 C 0.36959 0.91206 0.08936 0.0
C98 C 0.3336 0.8273 0.04617 0.0
C99 C 0.31889 0.82415 1.00774 0.0
C100 C 0.29976 0.81079 1.00826 0.0
C101 C 0.29407 0.80242 0.05089 0.0
C102 C 0.30715 0.80684 0.09235 0.0
C103 C 0.3277 0.81858 0.08913 0.0
O104 O 0.39423 0.87671 0.93214 0.0
O105 O 0.41686 0.86338 0.98535 0.0
O106 O 0.39331 0.93395 0.96917 0.0
O107 O 0.40965 0.9128 0.01355 0.0
C108 C 0.41079 0.93145 0.99496 0.0
O109 O 0.38473 0.89688 0.09343 0.0
O110 O 0.35925 0.9118 0.04836 0.0
O111 O 0.3737 0.83373 0.05892 0.0
O112 O 0.35622 0.85636 0.0152 0.0
H113 H 0.32304 0.83171 0.97616 0.0
H114 H 0.27958 0.7918 0.05191 0.0
H115 H 0.33869 0.82115 0.11956 0.0
O116 O 0.10089 0.667 0.6438 0.0
Tb117 Tb 0.10109 0.63725 0.59218 0.0
Eu118 Eu 0.14025 0.62924 0.53256 0.0
C119 C 0.10935 0.66612 0.68619 0.0
O120 O 0.1303 0.66045 0.68943 0.0
C121 C 0.13312 0.60079 0.6242 0.0
O122 O 0.14913 0.60734 0.46848 0.0
C123 C 0.16897 0.66204 0.54301 0.0
C124 C 0.13496 0.59098 0.4609 0.0
O125 O 0.11946 0.58855 0.49236 0.0
C126 C 0.09292 0.6436 0.487 0.0
C127 C 0.18063 0.68302 0.53236 0.0
C128 C 0.18587 0.69845 0.57209 0.0
C129 C 0.19811 0.71807 0.5682 0.0
C130 C 0.2051 0.72239 0.52283 0.0
C131 C 0.20078 0.70725 0.48189 0.0
C132 C 0.18844 0.68732 0.48674 0.0
O133 O 0.12131 0.61862 0.63927 0.0
O134 O 0.14213 0.6002 0.58124 0.0
O135 O 0.06783 0.62475 0.60375 0.0
O136 O 0.09211 0.60376 0.56336 0.0
C137 C 0.07192 0.60512 0.57975 0.0
O138 O 0.11202 0.63322 0.47889 0.0
O139 O 0.08839 0.65212 0.53083 0.0
O140 O 0.17295 0.64267 0.51736 0.0
O141 O 0.14934 0.6632 0.56434 0.0
H142 H 0.18113 0.69444 0.60694 0.0
H143 H 0.21427 0.73761 0.51908 0.0
H144 H 0.18524 0.67529 0.45575 0.0
O145 O 0.35323 0.09701 0.63233 0.0
Tb146 Tb 0.37714 0.10722 0.58246 0.0
Eu147 Eu 0.38911 0.14713 0.5252 0.0
C148 C 0.35446 0.10466 0.67769 0.0
O149 O 0.36133 0.12525 0.69057 0.0
C150 C 0.41326 0.14144 0.62716 0.0
O151 O 0.41283 0.15257 0.46816 0.0
C152 C 0.35342 0.1712 0.52075 0.0
C153 C 0.43027 0.1396 0.46775 0.0
O154 O 0.43289 0.12724 0.50234 0.0
C155 C 0.37148 0.09962 0.47526 0.0
C156 C 0.33283 0.18513 0.51773 0.0
C157 C 0.31902 0.18885 0.55784 0.0
C158 C 0.29925 0.2014 0.55752 0.0
C159 C 0.29263 0.20919 0.51477 0.0
C160 C 0.30569 0.20548 0.47321 0.0
C161 C 0.32621 0.19384 0.47537 0.0
O162 O 0.39488 0.13059 0.63548 0.0
O163 O 0.41489 0.15029 0.58675 0.0
O164 O 0.39083 0.07414 0.5866 0.0
O165 O 0.41027 0.09879 0.55669 0.0
C166 C 0.40986 0.07855 0.56801 0.0
O167 O 0.38713 0.11473 0.4746 0.0
O168 O 0.35964 0.09992 0.51436 0.0
O169 O 0.3729 0.17725 0.5051 0.0
O170 O 0.35379 0.15294 0.54247 0.0
H171 H 0.32386 0.18195 0.58982 0.0
H172 H 0.27751 0.21889 0.51399 0.0
H173 H 0.33652 0.19087 0.44389 0.0
O174 O 0.85855 0.41356 0.42956 0.0
Tb175 Tb 0.88034 0.40235 0.48188 0.0
Eu176 Eu 0.89022 0.365 0.54834 0.0
C177 C 0.86281 0.40838 0.38417 0.0
O178 O 0.8741 0.39019 0.36966 0.0
C179 C 0.91535 0.3677 0.44695 0.0
O180 O 0.91493 0.36081 0.6046 0.0
C181 C 0.85917 0.33412 0.53941 0.0
C182 C 0.92599 0.37906 0.62031 0.0
O183 O 0.92347 0.39733 0.60009 0.0
C184 C 0.86774 0.41314 0.58853 0.0
C185 C 0.83608 0.32555 0.54854 0.0
C186 C 0.82129 0.32411 0.50989 0.0
C187 C 0.80104 0.31243 0.50975 0.0
C188 C 0.7946 0.30358 0.55124 0.0
C189 C 0.8083 0.30495 0.59186 0.0
C190 C 0.82939 0.31594 0.59009 0.0
O191 O 0.89541 0.37437 0.43629 0.0
O192 O 0.91853 0.36402 0.49158 0.0
O193 O 0.89816 0.43236 0.46913 0.0
O194 O 0.91195 0.41088 0.51621 0.0
C195 C 0.91467 0.42919 0.49707 0.0
O196 O 0.87982 0.39606 0.59755 0.0
O197 O 0.8608 0.41452 0.54496 0.0
O198 O 0.87507 0.33461 0.57142 0.0
O199 O 0.86124 0.34997 0.51128 0.0
H200 H 0.82615 0.33145 0.47847 0.0
H201 H 0.77889 0.29484 0.55157 0.0
H202 H 0.84067 0.31636 0.61992 0.0
O203 O 0.60491 0.84677 0.42424 0.0
Tb204 Tb 0.59906 0.87659 0.4737 0.0
Eu205 Eu 0.63924 0.88264 0.53194 0.0
C206 C 0.61223 0.84925 0.38166 0.0
O207 O 0.63083 0.86039 0.37807 0.0
C208 C 0.63223 0.9124 0.44029 0.0
O209 O 0.64835 0.90683 0.59277 0.0
C210 C 0.66527 0.84847 0.5358 0.0
C211 C 0.63551 0.92431 0.59709 0.0
O212 O 0.62148 0.92698 0.56294 0.0
C213 C 0.59134 0.86989 0.57777 0.0
C214 C 0.68029 0.82877 0.53806 0.0
C215 C 0.68543 0.81575 0.49509 0.0
C216 C 0.7003 0.79782 0.49338 0.0
C217 C 0.70993 0.79258 0.53567 0.0
C218 C 0.704 0.80383 0.58069 0.0
C219 C 0.68944 0.82268 0.58123 0.0
O220 O 0.61517 0.89918 0.42913 0.0
O221 O 0.6447 0.90899 0.47771 0.0
O222 O 0.56669 0.8899 0.45828 0.0
O223 O 0.5892 0.90796 0.51002 0.0
C224 C 0.57008 0.9082 0.48842 0.0
O225 O 0.60997 0.88142 0.58468 0.0
O226 O 0.58668 0.86097 0.53425 0.0
O227 O 0.67024 0.86867 0.55653 0.0
O228 O 0.64701 0.84725 0.50952 0.0
H229 H 0.67794 0.81984 0.46249 0.0
H230 H 0.72253 0.77968 0.53282 0.0
H231 H 0.68478 0.83222 0.61468 0.0
H232 H 0.0477 0.43559 0.92592 0.0
H233 H 0.02334 0.46788 0.94927 0.0
H234 H 0.04319 0.46812 0.09561 0.0
H235 H 0.06822 0.43659 0.07224 0.0
H236 H 0.99367 0.46388 0.06558 0.0
H237 H 0.06107 0.50356 0.05973 0.0
H238 H 0.09587 0.51747 0.02901 0.0
H239 H 0.05924 0.55296 0.93255 0.0
H240 H 0.02421 0.53714 0.95851 0.0
H241 H 0.92495 0.55695 0.1437 0.0
H242 H 0.95701 0.53179 0.13619 0.0
H243 H 0.96298 0.54057 0.98772 0.0
H244 H 0.93185 0.56694 0.99613 0.0
H245 H 0.00245 0.54221 0.03035 0.0
H246 H 0.93757 0.49027 0.02384 0.0
H247 H 0.90256 0.47851 0.05918 0.0
H248 H 0.93651 0.47253 0.1902 0.0
H249 H 0.97158 0.48453 0.15571 0.0
C250 C 0.04701 0.44284 0.96288 0.0
C251 C 0.05969 0.43396 0.99745 0.0
C252 C 0.0333 0.4612 0.97605 0.0
C253 C 0.03184 0.47028 0.02394 0.0
C254 C 0.04443 0.46131 0.05847 0.0
C255 C 0.05866 0.44346 0.04512 0.0
C256 C 0.01554 0.48776 0.0384 0.0
C257 C 0.99571 0.4811 0.0585 0.0
C258 C 0.01847 0.51008 0.02866 0.0
C259 C 0.0398 0.51842 0.01033 0.0
C260 C 0.06032 0.5134 0.03039 0.0
C261 C 0.08018 0.52167 0.01373 0.0
C262 C 0.07979 0.53578 0.97823 0.0
C263 C 0.05953 0.54164 0.95937 0.0
C264 C 0.03966 0.53274 0.97459 0.0
C265 C 0.93315 0.55337 0.10956 0.0
C266 C 0.92614 0.56351 0.07035 0.0
C267 C 0.95133 0.53904 0.10525 0.0
C268 C 0.96202 0.53409 0.06122 0.0
C269 C 0.95491 0.54427 0.02198 0.0
C270 C 0.93716 0.55913 0.02668 0.0
C271 C 0.98045 0.51805 0.05556 0.0
C272 C 1.00063 0.52496 0.03732 0.0
C273 C 0.97806 0.49603 0.0672 0.0
C274 C 0.95717 0.48805 0.08712 0.0
C275 C 0.93753 0.48633 0.06008 0.0
C276 C 0.91768 0.4797 0.08001 0.0
C277 C 0.91732 0.47472 0.12687 0.0
C278 C 0.93682 0.47631 0.15387 0.0
C279 C 0.95668 0.48295 0.13411 0.0
H280 H 0.90193 0.46968 0.14229 0.0
H281 H 0.09516 0.54238 0.96575 0.0
H282 H 0.41291 0.97263 0.96615 0.0
H283 H 0.44339 0.99959 0.97931 0.0
H284 H 0.48056 0.95275 0.05188 0.0
H285 H 0.44982 0.92586 0.03969 0.0
H286 H 0.48025 0.99368 0.10105 0.0
H287 H 0.49909 0.96297 0.94173 0.0
H288 H 0.49329 0.95014 0.85658 0.0
H289 H 0.46974 0.0155 0.83518 0.0
H290 H 0.47576 0.02883 0.9202 0.0
H291 H 0.58049 0.05922 0.09432 0.0
H292 H 0.55478 0.02759 0.07478 0.0
H293 H 0.50382 0.07348 0.04087 0.0
H294 H 0.52916 0.10522 0.06264 0.0
H295 H 0.51423 0.03073 0.97145 0.0
H296 H 0.5 0.06126 0.13499 0.0
H297 H 0.51309 0.07283 0.21646 0.0
H298 H 0.52913 1.00464 0.23191 0.0
H299 H 0.51815 0.99285 0.1487 0.0
C300 C 0.42765 0.96809 0.98465 0.0
C301 C 0.42919 0.94732 1.00194 0.0
C302 C 0.44505 0.98337 0.99184 0.0
C303 C 0.46427 0.97791 0.01586 0.0
C304 C 0.46585 0.95711 0.03306 0.0
C305 C 0.44836 0.94186 0.02614 0.0
C306 C 0.4821 0.99456 0.02527 0.0
C307 C 0.48798 1.00153 0.07272 0.0
C308 C 0.49189 1.00484 0.98817 0.0
C309 C 0.48769 0.99682 0.93734 0.0
C310 C 0.4925 0.97454 0.91893 0.0
C311 C 0.48923 0.9672 0.87067 0.0
C312 C 0.48097 0.98193 0.84053 0.0
C313 C 0.47609 1.0041 0.85857 0.0
C314 C 0.47955 0.01159 0.90674 0.0
C315 C 0.56367 0.0624 0.08327 0.0
C316 C 0.5563 0.08432 0.08085 0.0
C317 C 0.54921 0.04449 0.07184 0.0
C318 C 0.52762 0.04849 0.05666 0.0
C319 C 0.52051 0.07036 0.05274 0.0
C320 C 0.53473 0.08833 0.06571 0.0
C321 C 0.51201 0.02992 0.04699 0.0
C322 C 0.50659 0.02268 0.99962 0.0
C323 C 0.50291 0.01922 0.08419 0.0
C324 C 0.5087 0.02622 0.13495 0.0
C325 C 0.5068 0.04875 0.15518 0.0
C326 C 0.51381 0.05537 0.2018 0.0
C327 C 0.52176 0.03949 0.2295 0.0
C328 C 0.52299 0.01695 0.21038 0.0
C329 C 0.5166 0.01032 0.16326 0.0
H330 H 0.52697 0.04466 0.26576 0.0
H331 H 0.47844 0.9762 0.80318 0.0
H332 H 0.02869 0.6059 0.55416 0.0
H333 H 0.0036 0.57363 0.54098 0.0
H334 H 0.05612 0.53038 0.57952 0.0
H335 H 0.08158 0.56241 0.58911 0.0
H336 H 0.03415 0.50966 0.50994 0.0
H337 H 0.01132 0.55383 0.66069 0.0
H338 H 0.99864 0.58878 0.70828 0.0
H339 H 0.94263 0.59158 0.61538 0.0
H340 H 0.95505 0.55681 0.56719 0.0
H341 H 0.95564 0.4213 0.53202 0.0
H342 H 0.98494 0.44938 0.55346 0.0
H343 H 0.94135 0.50114 0.51517 0.0
H344 H 0.91261 0.47326 0.49233 0.0
H345 H 0.96128 0.5149 0.59252 0.0
H346 H 0.9825 0.47655 0.4382 0.0
H347 H 0.99266 0.44329 0.3823 0.0
H348 H 0.04869 0.4315 0.4695 0.0
H349 H 0.03869 0.46455 0.52624 0.0
C350 C 0.03467 0.58946 0.55988 0.0
C351 C 0.05663 0.58638 0.57352 0.0
C352 C 0.02045 0.57108 0.55236 0.0
C353 C 0.02785 0.54972 0.5606 0.0
C354 C 0.05005 0.54672 0.5733 0.0
C355 C 0.06446 0.56494 0.57912 0.0
C356 C 0.01239 0.53058 0.55708 0.0
C357 C 0.01834 0.51066 0.52855 0.0
C358 C 0.99164 0.53208 0.58069 0.0
C359 C 0.98406 0.5527 0.61053 0.0
C360 C 0.99628 0.56189 0.65055 0.0
C361 C 0.98915 0.58167 0.67758 0.0
C362 C 0.96978 0.5923 0.665 0.0
C363 C 0.95755 0.58326 0.62527 0.0
C364 C 0.96459 0.5635 0.59819 0.0
C365 C 0.95259 0.4387 0.52779 0.0
C366 C 0.93232 0.44533 0.50955 0.0
C367 C 0.96921 0.45461 0.53996 0.0
C368 C 0.96539 0.47715 0.53444 0.0
C369 C 0.94473 0.4837 0.51818 0.0
C370 C 0.92843 0.46785 0.50509 0.0
C371 C 0.98273 0.49429 0.54441 0.0
C372 C 0.97725 0.51376 0.57454 0.0
C373 C 0.00354 0.49258 0.52112 0.0
C374 C 0.0097 0.47285 0.48675 0.0
C375 C 0.9969 0.46677 0.44561 0.0
C376 C 0.00264 0.44798 0.41375 0.0
C377 C 0.02126 0.43524 0.42243 0.0
C378 C 0.03424 0.44134 0.46288 0.0
C379 C 0.02855 0.46011 0.49489 0.0
H380 H 0.02565 0.42068 0.39775 0.0
H381 H 0.96426 0.60757 0.68601 0.0
H382 H 0.52629 0.9112 0.46422 0.0
H383 H 0.50268 0.94456 0.48083 0.0
H384 H 0.55849 0.98224 0.54512 0.0
H385 H 0.58178 0.94912 0.52993 0.0
H386 H 0.52243 0.99031 0.59816 0.0
H387 H 0.54287 0.98924 0.43777 0.0
H388 H 0.54892 0.97296 0.35461 0.0
H389 H 0.47866 0.96331 0.33589 0.0
H390 H 0.47214 0.97903 0.41896 0.0
H391 H 0.45314 0.09023 0.56513 0.0
H392 H 0.48508 0.06472 0.55598 0.0
H393 H 0.44074 0.008 0.55095 0.0
H394 H 0.40874 0.03335 0.5608 0.0
H395 H 0.4773 0.01623 0.46917 0.0
H396 H 0.46065 0.01314 0.63964 0.0
H397 H 0.45731 0.03131 0.72219 0.0
H398 H 0.52512 0.0535 0.71922 0.0
H399 H 0.52871 0.03585 0.63616 0.0
C400 C 0.53338 0.92664 0.48183 0.0
C401 C 0.55564 0.92771 0.49606 0.0
C402 C 0.52002 0.94559 0.49126 0.0
C403 C 0.52902 0.96575 0.514 0.0
C404 C 0.5513 0.96677 0.52789 0.0
C405 C 0.56451 0.94786 0.51902 0.0
C406 C 0.51517 0.98586 0.52292 0.0
C407 C 0.51277 0.9962 0.56989 0.0
C408 C 0.50321 0.99387 0.4857 0.0
C409 C 0.50702 0.9851 0.43495 0.0
C410 C 0.52869 0.9835 0.41602 0.0
C411 C 0.5322 0.97438 0.36879 0.0
C412 C 0.51417 0.96707 0.33988 0.0
C413 C 0.4926 0.96904 0.3581 0.0
C414 C 0.48898 0.97803 0.40532 0.0
C415 C 0.45032 0.0723 0.56234 0.0
C416 C 0.42874 0.0635 0.56339 0.0
C417 C 0.46848 0.05791 0.55774 0.0
C418 C 0.46501 0.03477 0.55383 0.0
C419 C 0.44347 0.02596 0.55475 0.0
C420 C 0.42535 0.04033 0.5602 0.0
C421 C 0.48361 0.01944 0.54439 0.0
C422 C 0.4872 0.0104 0.49715 0.0
C423 C 0.49703 0.0131 0.58116 0.0
C424 C 0.49481 0.02355 0.63126 0.0
C425 C 0.47474 0.0222 0.65623 0.0
C426 C 0.47283 0.03233 0.70324 0.0
C427 C 0.49096 0.04365 0.72588 0.0
C428 C 0.51107 0.04476 0.70162 0.0
C429 C 0.51305 0.0347 0.65457 0.0
H430 H 0.48944 0.05148 0.76226 0.0
H431 H 0.51688 0.95991 0.30338 0.0
H432 H 0.14037 0.59975 0.37048 0.0
H433 H 0.14462 0.57117 0.30048 0.0
H434 H 0.13772 0.51908 0.39187 0.0
H435 H 0.13333 0.54715 0.46055 0.0
H436 H 0.17608 0.51716 0.33412 0.0
H437 H 0.09674 0.53579 0.33897 0.0
H438 H 0.06433 0.55949 0.32809 0.0
H439 H 0.07954 0.55713 0.17961 0.0
H440 H 0.11271 0.53422 0.18997 0.0
H441 H 0.11219 0.41978 0.19146 0.0
H442 H 0.12111 0.44818 0.25875 0.0
H443 H 0.17142 0.47572 0.17393 0.0
H444 H 0.16343 0.44696 0.10797 0.0
H445 H 0.11607 0.49337 0.21886 0.0
H446 H 0.1991 0.4719 0.23073 0.0
H447 H 0.2263 0.44499 0.25518 0.0
H448 H 0.19497 0.44825 0.392 0.0
H449 H 0.16707 0.47456 0.36761 0.0
C450 C 0.1399 0.58209 0.37485 0.0
C451 C 0.13682 0.57506 0.4197 0.0
C452 C 0.14222 0.56609 0.33548 0.0
C453 C 0.14173 0.54347 0.34213 0.0
C454 C 0.13828 0.53668 0.38698 0.0
C455 C 0.13568 0.5525 0.42575 0.0
C456 C 0.14498 0.52604 0.30345 0.0
C457 C 0.16332 0.51213 0.3078 0.0
C458 C 0.12767 0.51966 0.27112 0.0
C459 C 0.10776 0.53382 0.26558 0.0
C460 C 0.09362 0.54077 0.30423 0.0
C461 C 0.07499 0.55402 0.29812 0.0
C462 C 0.06999 0.55999 0.25329 0.0
C463 C 0.08356 0.55269 0.21444 0.0
C464 C 0.10234 0.53967 0.22048 0.0
C465 C 0.12561 0.43157 0.18821 0.0
C466 C 0.13694 0.43198 0.14523 0.0
C467 C 0.13092 0.44728 0.22649 0.0
C468 C 0.14723 0.46335 0.22089 0.0
C469 C 0.15953 0.46266 0.17899 0.0
C470 C 0.15463 0.44668 0.14127 0.0
C471 C 0.14672 0.48431 0.25116 0.0
C472 C 0.12911 0.49878 0.24424 0.0
C473 C 0.16396 0.49078 0.28315 0.0
C474 C 0.18068 0.47475 0.29687 0.0
C475 C 0.19767 0.46648 0.26554 0.0
C476 C 0.21329 0.45141 0.27951 0.0
C477 C 0.21228 0.44479 0.325 0.0
C478 C 0.19566 0.45325 0.35666 0.0
C479 C 0.1799 0.46816 0.34271 0.0
H480 H 0.22446 0.4332 0.33581 0.0
H481 H 0.05551 0.57016 0.24858 0.0
H482 H 0.42257 0.1476 0.37655 0.0
H483 H 0.45018 0.14575 0.31212 0.0
H484 H 0.49981 0.1241 0.40623 0.0
H485 H 0.47261 0.12584 0.47012 0.0
H486 H 0.50486 0.16758 0.37033 0.0
H487 H 0.48756 0.08966 0.32594 0.0
H488 H 0.46335 0.05768 0.29771 0.0
H489 H 0.45377 0.08404 0.16535 0.0
H490 H 0.47748 0.11659 0.19329 0.0
H491 H 0.60783 0.15796 0.25904 0.0
H492 H 0.57458 0.14517 0.29835 0.0
H493 H 0.53439 0.15863 0.17913 0.0
H494 H 0.56766 0.17098 0.13952 0.0
H495 H 0.52081 0.11949 0.21883 0.0
H496 H 0.54023 0.1975 0.26763 0.0
H497 H 0.56359 0.22933 0.30138 0.0
H498 H 0.56867 0.20109 0.43275 0.0
H499 H 0.54588 0.16879 0.39938 0.0
C500 C 0.43937 0.1423 0.38306 0.0
C501 C 0.44583 0.13739 0.42821 0.0
C502 C 0.45488 0.14087 0.34625 0.0
C503 C 0.47677 0.13467 0.35486 0.0
C504 C 0.4828 0.12862 0.39918 0.0
C505 C 0.46738 0.12986 0.43561 0.0
C506 C 0.49456 0.13892 0.3222 0.0
C507 C 0.50852 0.15698 0.33734 0.0
C508 C 0.49852 0.12532 0.27882 0.0
C509 C 0.48401 0.10587 0.26212 0.0
C510 C 0.47996 0.08893 0.29119 0.0
C511 C 0.46638 0.07063 0.27516 0.0
C512 C 0.45691 0.0689 0.22989 0.0
C513 C 0.461 0.08548 0.20054 0.0
C514 C 0.47451 0.10388 0.21647 0.0
C515 C 0.59189 0.15791 0.24126 0.0
C516 C 0.59 0.16547 0.19671 0.0
C517 C 0.57305 0.15048 0.26335 0.0
C518 C 0.55214 0.15111 0.24151 0.0
C519 C 0.55042 0.15793 0.19624 0.0
C520 C 0.5693 0.16514 0.17399 0.0
C521 C 0.53185 0.14756 0.26849 0.0
C522 C 0.51717 0.13004 0.25183 0.0
C523 C 0.52724 0.16142 0.31139 0.0
C524 C 0.5416 0.18055 0.3307 0.0
C525 C 0.54662 0.19789 0.30343 0.0
C526 C 0.55972 0.21605 0.32255 0.0
C527 C 0.56767 0.21719 0.36911 0.0
C528 C 0.56259 0.20015 0.39662 0.0
C529 C 0.54963 0.18189 0.37758 0.0
H530 H 0.57771 0.23133 0.38393 0.0
H531 H 0.44651 0.05465 0.21743 0.0
H532 H 0.89645 0.41835 0.32657 0.0
H533 H 0.90128 0.45342 0.29182 0.0
H534 H 0.83762 0.47641 0.34855 0.0
H535 H 0.83278 0.44155 0.38366 0.0
H536 H 0.84455 0.47604 0.24776 0.0
H537 H 0.88184 0.50721 0.40359 0.0
H538 H 0.91168 0.51116 0.46363 0.0
H539 H 0.96093 0.50383 0.35304 0.0
H540 H 0.93126 0.50068 0.29237 0.0
H541 H 0.82159 0.58595 0.22553 0.0
H542 H 0.8288 0.55081 0.25819 0.0
H543 H 0.89869 0.55651 0.22617 0.0
H544 H 0.89169 0.59272 0.19834 0.0
H545 H 0.89588 0.53887 0.30095 0.0
H546 H 0.86218 0.51912 0.1492 0.0
H547 H 0.83497 0.51999 0.08432 0.0
H548 H 0.7825 0.50329 0.17659 0.0
H549 H 0.80941 0.5023 0.24191 0.0
C550 C 0.88329 0.43072 0.33062 0.0
C551 C 0.86391 0.42719 0.35649 0.0
C552 C 0.88634 0.45085 0.3118 0.0
C553 C 0.86994 0.46739 0.3184 0.0
C554 C 0.85051 0.46375 0.34372 0.0
C555 C 0.84758 0.44382 0.36297 0.0
C556 C 0.87146 0.48753 0.29458 0.0
C557 C 0.85574 0.48985 0.2593 0.0
C558 C 0.88693 0.50482 0.3078 0.0
C559 C 0.90442 0.50326 0.34368 0.0
C560 C 0.89904 0.50597 0.3922 0.0
C561 C 0.91594 0.50829 0.4263 0.0
C562 C 0.93824 0.50752 0.41216 0.0
C563 C 0.94367 0.5043 0.36391 0.0
C564 C 0.92684 0.50235 0.32969 0.0
C565 C 0.83851 0.57996 0.22719 0.0
C566 C 0.8561 0.59174 0.20982 0.0
C567 C 0.84261 0.55974 0.24473 0.0
C568 C 0.86415 0.55061 0.24265 0.0
C569 C 0.88192 0.5631 0.22763 0.0
C570 C 0.87793 0.58375 0.21193 0.0
C571 C 0.86797 0.52801 0.25597 0.0
C572 C 0.88491 0.52502 0.28853 0.0
C573 C 0.85403 0.50976 0.23917 0.0
C574 C 0.83775 0.5108 0.20039 0.0
C575 C 0.84481 0.5158 0.15566 0.0
C576 C 0.82946 0.51623 0.1188 0.0
C577 C 0.80701 0.51174 0.12636 0.0
C578 C 0.79988 0.50675 0.17076 0.0
C579 C 0.81518 0.50617 0.20765 0.0
H580 H 0.79515 0.51209 0.09778 0.0
H581 H 0.95136 0.50969 0.43841 0.0
H582 H 0.58265 0.81817 0.34646 0.0
H583 H 0.54706 0.82536 0.30943 0.0
H584 H 0.56497 0.89496 0.31045 0.0
H585 H 0.60115 0.8876 0.34499 0.0
H586 H 0.51924 0.88276 0.35351 0.0
H587 H 0.56565 0.87347 0.21411 0.0
H588 H 0.59409 0.8553 0.15978 0.0
H589 H 0.55496 0.79502 0.13927 0.0
H590 H 0.52648 0.81271 0.19427 0.0
H591 H 0.44674 0.90712 0.16405 0.0
H592 H 0.47306 0.90478 0.22866 0.0
H593 H 0.45874 0.83427 0.22524 0.0
H594 H 0.43246 0.8363 0.16039 0.0
H595 H 0.50144 0.84897 0.18905 0.0
H596 H 0.45225 0.86017 0.31966 0.0
H597 H 0.42211 0.87975 0.36642 0.0
H598 H 0.46414 0.93711 0.40116 0.0
H599 H 0.49443 0.91833 0.35259 0.0
C600 C 0.57924 0.83479 0.33725 0.0
C601 C 0.59449 0.85227 0.34816 0.0
C602 C 0.55889 0.83896 0.31709 0.0
C603 C 0.55349 0.86075 0.30862 0.0
C604 C 0.56896 0.87815 0.31771 0.0
C605 C 0.58962 0.87383 0.33671 0.0
C606 C 0.53185 0.86474 0.28824 0.0
C607 C 0.51525 0.87573 0.31739 0.0
C608 C 0.52692 0.85507 0.24161 0.0
C609 C 0.54412 0.8443 0.20891 0.0
C610 C 0.56327 0.85623 0.19856 0.0
C611 C 0.57936 0.84605 0.16751 0.0
C612 C 0.57639 0.82398 0.14625 0.0
C613 C 0.55728 0.81209 0.1559 0.0
C614 C 0.54117 0.82218 0.18701 0.0
C615 C 0.44885 0.89126 0.17792 0.0
C616 C 0.43846 0.87166 0.15654 0.0
C617 C 0.46338 0.89012 0.21539 0.0
C618 C 0.46754 0.86943 0.23119 0.0
C619 C 0.45536 0.85037 0.21334 0.0
C620 C 0.4407 0.8515 0.17607 0.0
C621 C 0.48863 0.86651 0.25437 0.0
C622 C 0.50526 0.8559 0.2254 0.0
C623 C 0.49336 0.8767 0.30075 0.0
C624 C 0.47561 0.88789 0.33177 0.0
C625 C 0.45507 0.8771 0.33663 0.0
C626 C 0.43792 0.88809 0.36339 0.0
C627 C 0.44118 0.90977 0.38634 0.0
C628 C 0.46165 0.92043 0.38282 0.0
C629 C 0.47882 0.90962 0.35561 0.0
H630 H 0.4279 0.91826 0.4071 0.0
H631 H 0.58886 0.81613 0.12218 0.0
H632 H 0.87974 0.45691 0.58507 0.0
H633 H 0.88178 0.48768 0.65106 0.0
H634 H 0.85422 0.44419 0.74592 0.0
H635 H 0.85305 0.41319 0.68042 0.0
H636 H 0.83368 0.48787 0.75265 0.0
H637 H 0.90712 0.45549 0.74978 0.0
H638 H 0.94256 0.44359 0.711 0.0
H639 H 0.95687 0.51164 0.6898 0.0
H640 H 0.92124 0.52392 0.72743 0.0
H641 H 0.8469 0.5569 0.97429 0.0
H642 H 0.84852 0.52546 0.91001 0.0
H643 H 0.88864 0.56525 0.82636 0.0
H644 H 0.88707 0.59656 0.89011 0.0
H645 H 0.90427 0.52343 0.81315 0.0
H646 H 0.83362 0.55617 0.80112 0.0
H647 H 0.7972 0.57152 0.82821 0.0
H648 H 0.77772 0.50724 0.86572 0.0
H649 H 0.81423 0.49157 0.83946 0.0
C650 C 0.87368 0.45404 0.61979 0.0
C651 C 0.86559 0.43267 0.62699 0.0
C652 C 0.87515 0.47161 0.65779 0.0
C653 C 0.8682 0.46848 0.70401 0.0
C654 C 0.8597 0.44724 0.7109 0.0
C655 C 0.85885 0.4295 0.67325 0.0
C656 C 0.86921 0.48729 0.74489 0.0
C657 C 0.8492 0.49531 0.76629 0.0
C658 C 0.88936 0.4979 0.76187 0.0
C659 C 0.91122 0.49059 0.74075 0.0
C660 C 0.91767 0.46791 0.73642 0.0
C661 C 0.93782 0.46109 0.71462 0.0
C662 C 0.95184 0.47682 0.69751 0.0
C663 C 0.9459 0.49945 0.70277 0.0
C664 C 0.92572 0.50635 0.72433 0.0
C665 C 0.85581 0.55913 0.94202 0.0
C666 C 0.86642 0.57971 0.93762 0.0
C667 C 0.85687 0.54098 0.90509 0.0
C668 C 0.8686 0.5427 0.86242 0.0
C669 C 0.87947 0.56313 0.8584 0.0
C670 C 0.87831 0.58127 0.89508 0.0
C671 C 0.86864 0.52373 0.82141 0.0
C672 C 0.88879 0.5158 0.79982 0.0
C673 C 0.84863 0.51355 0.803 0.0
C674 C 0.8267 0.52278 0.81886 0.0
C675 C 0.82163 0.54536 0.81552 0.0
C676 C 0.80097 0.55411 0.83066 0.0
C677 C 0.78517 0.54038 0.84881 0.0
C678 C 0.79 0.51785 0.85175 0.0
C679 C 0.81066 0.50903 0.83673 0.0
H680 H 0.76917 0.54718 0.86048 0.0
H681 H 0.96736 0.4715 0.68036 0.0
H682 H 0.59653 0.88253 0.67496 0.0
H683 H 0.56858 0.88381 0.7384 0.0
H684 H 0.51923 0.85818 0.63557 0.0
H685 H 0.54709 0.85694 0.57217 0.0
H686 H 0.50162 0.89174 0.69596 0.0
H687 H 0.54601 0.82548 0.72257 0.0
H688 H 0.58207 0.80843 0.73868 0.0
H689 H 0.5899 0.85537 0.86485 0.0
H690 H 0.55395 0.87278 0.84928 0.0
H691 H 0.41186 0.86628 0.84351 0.0
H692 H 0.44217 0.86744 0.78631 0.0
H693 H 0.48961 0.87346 0.90117 0.0
H694 H 0.45929 0.87071 0.95794 0.0
H695 H 0.51092 0.8531 0.83896 0.0
H696 H 0.47082 0.91796 0.82674 0.0
H697 H 0.44232 0.94609 0.81464 0.0
H698 H 0.43213 0.91491 0.67159 0.0
H699 H 0.46034 0.88641 0.68297 0.0
C700 C 0.5798 0.87689 0.66573 0.0
C701 C 0.57446 0.86929 0.61783 0.0
C702 C 0.56365 0.87758 0.70244 0.0
C703 C 0.5414 0.87077 0.69287 0.0
C704 C 0.53606 0.86343 0.64491 0.0
C705 C 0.55222 0.86256 0.60832 0.0
C706 C 0.52361 0.87149 0.7319 0.0
C707 C 0.50346 0.88284 0.72671 0.0
C708 C 0.52625 0.86149 0.77444 0.0
C709 C 0.54734 0.85041 0.78472 0.0
C710 C 0.55542 0.83212 0.75377 0.0
C711 C 0.57584 0.82242 0.76278 0.0
C712 C 0.58827 0.83081 0.80276 0.0
C713 C 0.58024 0.84886 0.83394 0.0
C714 C 0.55982 0.85861 0.82512 0.0
C715 C 0.42875 0.86757 0.85672 0.0
C716 C 0.43277 0.86799 0.90593 0.0
C717 C 0.44635 0.86862 0.82365 0.0
C718 C 0.46887 0.87103 0.83818 0.0
C719 C 0.47283 0.87145 0.88757 0.0
C720 C 0.45525 0.86983 0.92053 0.0
C721 C 0.488 0.87256 0.80223 0.0
C722 C 0.50859 0.86182 0.80813 0.0
C723 C 0.4862 0.88422 0.76144 0.0
C724 C 0.46767 0.89995 0.75585 0.0
C725 C 0.4623 0.9169 0.79292 0.0
C726 C 0.44624 0.93296 0.78614 0.0
C727 C 0.43554 0.93233 0.7423 0.0
C728 C 0.4405 0.9154 0.70548 0.0
C729 C 0.4565 0.89927 0.71211 0.0
H730 H 0.42354 0.94506 0.73676 0.0
H731 H 0.6041 0.82333 0.80957 0.0
H732 H 0.11993 0.45749 0.95545 0.0
H733 H 0.11912 0.4884 0.90554 0.0
H734 H 0.13936 0.44245 0.78458 0.0
H735 H 0.13927 0.41161 0.83387 0.0
H736 H 0.16191 0.47976 0.78128 0.0
H737 H 0.08819 0.46267 0.80477 0.0
H738 H 0.05036 0.45735 0.83369 0.0
H739 H 0.04258 0.52843 0.86629 0.0
H740 H 0.08143 0.53429 0.84389 0.0
H741 H 0.14868 0.55623 0.60213 0.0
H742 H 0.14704 0.52484 0.64983 0.0
H743 H 0.11774 0.56826 0.76543 0.0
H744 H 0.11858 0.59926 0.71715 0.0
H745 H 0.09868 0.53109 0.76901 0.0
H746 H 0.17951 0.54231 0.74955 0.0
H747 H 0.21368 0.54268 0.7013 0.0
H748 H 0.20009 0.47548 0.63694 0.0
H749 H 0.16578 0.47484 0.68435 0.0
C750 C 0.12467 0.45395 0.91842 0.0
C751 C 0.13043 0.43165 0.89983 0.0
C752 C 0.1239 0.47183 0.88928 0.0
C753 C 0.1292 0.46849 0.84003 0.0
C754 C 0.13526 0.44625 0.8219 0.0
C755 C 0.13539 0.42834 0.85061 0.0
C756 C 0.12902 0.48769 0.80752 0.0
C757 C 0.14787 0.49087 0.77919 0.0
C758 C 0.11074 0.50258 0.80251 0.0
C759 C 0.08836 0.4989 0.82335 0.0
C760 C 0.07904 0.47721 0.82046 0.0
C761 C 0.05729 0.47408 0.83594 0.0
C762 C 0.04423 0.49253 0.85273 0.0
C763 C 0.05297 0.51413 0.85465 0.0
C764 C 0.07502 0.51733 0.84124 0.0
C765 C 0.14218 0.55935 0.63796 0.0
C766 C 0.13424 0.58108 0.65508 0.0
C767 C 0.14131 0.54106 0.66601 0.0
C768 C 0.13278 0.5434 0.71331 0.0
C769 C 0.12464 0.56512 0.72995 0.0
C770 C 0.12531 0.58327 0.70185 0.0
C771 C 0.13195 0.52379 0.74516 0.0
C772 C 0.11282 0.52035 0.77282 0.0
C773 C 0.14948 0.50803 0.74847 0.0
C774 C 0.17004 0.50863 0.72013 0.0
C775 C 0.18379 0.52769 0.72492 0.0
C776 C 0.20317 0.52793 0.69773 0.0
C777 C 0.20903 0.50914 0.666 0.0
C778 C 0.19554 0.49004 0.66144 0.0
C779 C 0.17614 0.48973 0.68844 0.0
H780 H 0.22404 0.50936 0.64502 0.0
H781 H 0.02723 0.49012 0.86364 0.0
H782 H 0.4568 0.15825 0.62167 0.0
H783 H 0.48809 0.15621 0.67701 0.0
H784 H 0.44621 0.12133 0.76689 0.0
H785 H 0.41513 0.12365 0.71252 0.0
H786 H 0.46718 0.14804 0.82326 0.0
H787 H 0.49496 0.09626 0.69692 0.0
H788 H 0.50931 0.07915 0.61936 0.0
H789 H 0.55923 0.13042 0.6227 0.0
H790 H 0.54522 0.14787 0.70039 0.0
H791 H 0.54966 0.12377 0.98788 0.0
H792 H 0.52271 0.1203 0.92327 0.0
H793 H 0.56652 0.15691 0.84045 0.0
H794 H 0.59464 0.15851 0.90427 0.0
H795 H 0.54524 0.12918 0.77984 0.0
H796 H 0.51424 0.17969 0.91248 0.0
H797 H 0.50356 0.18796 0.99694 0.0
H798 H 0.45995 0.13085 0.98254 0.0
H799 H 0.47049 0.12218 0.89811 0.0
C800 C 0.45409 0.15036 0.65349 0.0
C801 C 0.43277 0.14169 0.66242 0.0
C802 C 0.47232 0.14887 0.68521 0.0
C803 C 0.47016 0.13855 0.72732 0.0
C804 C 0.44891 0.12967 0.73566 0.0
C805 C 0.43081 0.13112 0.70412 0.0
C806 C 0.48906 0.13817 0.76423 0.0
C807 C 0.48413 0.14366 0.81304 0.0
C808 C 0.51174 0.1327 0.7529 0.0
C809 C 0.51871 0.12366 0.70408 0.0
C810 C 0.50868 0.10419 0.68067 0.0
C811 C 0.51686 0.09432 0.63681 0.0
C812 C 0.53504 0.10378 0.6159 0.0
C813 C 0.54507 0.12317 0.63878 0.0
C814 C 0.53702 0.13306 0.68274 0.0
C815 C 0.55363 0.13127 0.95609 0.0
C816 C 0.57435 0.142 0.95249 0.0
C817 C 0.5379 0.12946 0.91874 0.0
C818 C 0.54149 0.13931 0.87659 0.0
C819 C 0.56262 0.1494 0.87222 0.0
C820 C 0.57883 0.15048 0.90917 0.0
C821 C 0.52323 0.13936 0.83822 0.0
C822 C 0.52827 0.1338 0.78947 0.0
C823 C 0.5005 0.14425 0.84941 0.0
C824 C 0.49315 0.15031 0.89914 0.0
C825 C 0.50228 0.169 0.92733 0.0
C826 C 0.4963 0.17371 0.9752 0.0
C827 C 0.48109 0.15993 0.99509 0.0
C828 C 0.47169 0.14152 0.96707 0.0
C829 C 0.4776 0.13675 0.91919 0.0
H830 H 0.47659 0.16353 0.03222 0.0
H831 H 0.54143 0.09601 0.58211 0.0
H832 H 0.61435 0.96381 0.61206 0.0
H833 H 0.61641 0.99076 0.6832 0.0
H834 H 0.65631 0.9449 0.7527 0.0
H835 H 0.6544 0.91746 0.68113 0.0
H836 H 0.61416 0.97959 0.80112 0.0
H837 H 0.68979 0.97183 0.73545 0.0
H838 H 0.71539 0.96417 0.66734 0.0
H839 H 0.687 0.01861 0.60326 0.0
H840 H 0.66107 0.0264 0.67083 0.0
H841 H 0.66812 0.06217 0.95212 0.0
H842 H 0.67225 0.03569 0.87989 0.0
H843 H 0.61744 0.06701 0.81544 0.0
H844 H 0.61238 0.09274 0.8889 0.0
H845 H 0.66975 0.03723 0.76882 0.0
H846 H 0.58926 0.03912 0.82501 0.0
H847 H 0.56181 0.04565 0.88996 0.0
H848 H 0.59736 1.00074 0.96906 0.0
H849 H 0.6255 0.99467 0.90521 0.0
C850 C 0.62328 0.9593 0.64265 0.0
C851 C 0.63491 0.93913 0.64106 0.0
C852 C 0.62422 0.97451 0.68311 0.0
C853 C 0.63671 0.9695 0.72187 0.0
C854 C 0.64677 0.94867 0.72227 0.0
C855 C 0.64591 0.93336 0.68151 0.0
C856 C 0.64171 0.98774 0.7579 0.0
C857 C 0.6266 0.99204 0.79508 0.0
C858 C 0.65757 1.00385 0.74806 0.0
C859 C 0.67345 0.99958 0.70795 0.0
C860 C 0.68894 0.98207 0.70668 0.0
C861 C 0.70352 0.97773 0.66823 0.0
C862 C 0.7028 0.99088 0.63096 0.0
C863 C 0.68755 0.00845 0.63216 0.0
C864 C 0.67294 0.01286 0.67056 0.0
C865 C 0.65729 0.06351 0.92207 0.0
C866 C 0.63933 0.07823 0.92567 0.0
C867 C 0.65987 0.04882 0.88098 0.0
C868 C 0.64469 0.04941 0.8439 0.0
C869 C 0.62882 0.06635 0.84484 0.0
C870 C 0.62578 0.08061 0.88652 0.0
C871 C 0.64196 0.02922 0.81164 0.0
C872 C 0.65753 0.02465 0.77537 0.0
C873 C 0.62638 0.01289 0.82216 0.0
C874 C 0.60984 0.01702 0.86108 0.0
C875 C 0.59149 0.03105 0.85673 0.0
C876 C 0.57577 0.03462 0.89327 0.0
C877 C 0.57794 0.02377 0.93382 0.0
C878 C 0.59583 0.00932 0.93786 0.0
C879 C 0.61173 1.00593 0.90165 0.0
H880 H 0.56568 0.02642 0.96193 0.0
H881 H 0.71408 0.98748 0.60119 0.0
H882 H 0.08796 0.6262 0.67809 0.0
H883 H 0.0547 0.6176 0.71919 0.0
H884 H 0.06202 0.67909 0.81409 0.0
H885 H 0.09543 0.68858 0.77016 0.0
H886 H 0.04722 0.62895 0.84531 0.0
H887 H 0.03325 0.68989 0.74677 0.0
H888 H 0.03354 0.7069 0.67209 0.0
H889 H 0.99689 0.65076 0.60251 0.0
H890 H 0.99707 0.63311 0.67647 0.0
H891 H 0.95217 0.67218 0.9462 0.0
H892 H 0.98182 0.67137 0.88693 0.0
H893 H 0.95758 0.60776 0.81828 0.0
H894 H 0.92841 0.60803 0.87894 0.0
H895 H 0.97904 0.65119 0.7641 0.0
H896 H 0.9898 0.59082 0.85929 0.0
H897 H 0.98732 0.57304 0.93293 0.0
H898 H 0.02859 0.62487 1.00516 0.0
H899 H 0.03074 0.64333 0.93227 0.0
C900 C 0.08296 0.63779 0.70789 0.0
C901 C 0.09396 0.65829 0.7202 0.0
C902 C 0.0639 0.63276 0.73148 0.0
C903 C 0.05596 0.64801 0.76849 0.0
C904 C 0.06812 0.66739 0.78478 0.0
C905 C 0.08709 0.6727 0.76012 0.0
C906 C 0.03396 0.64441 0.78686 0.0
C907 C 0.03228 0.63385 0.82784 0.0
C908 C 0.01473 0.64972 0.76187 0.0
C909 C 0.01567 0.6599 0.71687 0.0
C910 C 0.02577 0.6809 0.71527 0.0
C911 C 0.02573 0.69073 0.67311 0.0
C912 C 0.01536 0.67986 0.63247 0.0
C913 C 0.00504 0.65911 0.6339 0.0
C914 C 0.00517 0.64916 0.67589 0.0
C915 C 0.95293 0.65839 0.91769 0.0
C916 C 0.93877 0.63993 0.91695 0.0
C917 C 0.96962 0.65797 0.88403 0.0
C918 C 0.97171 0.63932 0.8494 0.0
C919 C 0.95604 0.62205 0.84545 0.0
C920 C 0.93968 0.62217 0.87993 0.0
C921 C 0.99239 0.6366 0.82347 0.0
C922 C 0.99397 0.6458 0.7809 0.0
C923 C 0.0115 0.62958 0.84635 0.0
C924 C 0.01011 0.61867 0.89049 0.0
C925 C 0.99802 0.59865 0.89109 0.0
C926 C 0.99673 0.5884 0.93265 0.0
C927 C 0.00773 0.59786 0.97374 0.0
C928 C 0.02002 0.6176 0.97334 0.0
C929 C 0.02124 0.62798 0.93192 0.0
H930 H 0.0068 0.58985 1.00582 0.0
H931 H 0.01521 0.68758 0.59997 0.0
H932 H 0.32799 0.08803 0.7425 0.0
H933 H 0.33576 0.05474 0.78188 0.0
H934 H 0.40099 0.04963 0.71784 0.0
H935 H 0.39347 0.08332 0.6799 0.0
H936 H 0.37507 0.01035 0.70014 0.0
H937 H 0.40127 0.06006 0.8307 0.0
H938 H 0.40049 0.09442 0.88817 0.0
H939 H 0.33928 0.07303 0.94636 0.0
H940 H 0.33957 0.03862 0.88888 0.0
H941 H 0.38738 0.91354 0.82426 0.0
H942 H 0.39405 0.9486 0.79141 0.0
H943 H 0.33232 0.97513 0.85173 0.0
H944 H 0.32607 0.94044 0.88683 0.0
H945 H 0.36629 1.00392 0.87194 0.0
H946 H 0.34018 0.95425 0.73412 0.0
H947 H 0.34282 0.92021 0.67618 0.0
H948 H 0.40594 0.94221 0.62839 0.0
H949 H 0.40404 0.97607 0.68709 0.0
C950 C 0.34414 0.0801 0.73815 0.0
C951 C 0.3601 0.08784 0.70835 0.0
C952 C 0.34858 0.06117 0.76034 0.0
C953 C 0.36891 0.04983 0.75241 0.0
C954 C 0.38523 0.05819 0.72416 0.0
C955 C 0.38091 0.0773 0.70264 0.0
C956 C 0.3721 0.02824 0.77063 0.0
C957 C 0.37367 0.00883 0.73777 0.0
C958 C 0.37032 0.02654 0.81958 0.0
C959 C 0.37042 0.04679 0.85541 0.0
C960 C 0.38761 0.06271 0.85571 0.0
C961 C 0.38727 0.08219 0.88827 0.0
C962 C 0.36984 0.08592 0.92088 0.0
C963 C 0.35279 0.0701 0.92113 0.0
C964 C 0.35307 0.05057 0.88865 0.0
C965 C 0.37485 0.92655 0.82906 0.0
C966 C 0.35591 0.92425 0.85707 0.0
C967 C 0.37884 0.94661 0.81071 0.0
C968 C 0.36365 0.9643 0.81893 0.0
C969 C 0.34426 0.96162 0.84516 0.0
C970 C 0.3405 0.94177 0.86445 0.0
C971 C 0.36801 0.98589 0.80124 0.0
C972 C 0.3681 1.00533 0.83435 0.0
C973 C 0.37155 0.98753 0.75241 0.0
C974 C 0.37217 0.96754 0.71577 0.0
C975 C 0.35475 0.95175 0.71164 0.0
C976 C 0.35611 0.93246 0.67864 0.0
C977 C 0.37461 0.92897 0.64883 0.0
C978 C 0.39167 0.94488 0.65165 0.0
C979 C 0.39046 0.96412 0.68483 0.0
H980 H 0.37566 0.914 0.62339 0.0
H981 H 0.36955 0.10105 0.94596 0.0
H982 H 0.92262 0.38726 0.71604 0.0
H983 H 0.95323 0.38581 0.77333 0.0
H984 H 0.99901 0.37011 0.65628 0.0
H985 H 0.96846 0.37075 0.59991 0.0
H986 H 1.00013 0.33999 0.71475 0.0
H987 H 0.00446 0.42292 0.73181 0.0
H988 H 0.98941 0.46116 0.7507 0.0
H989 H 0.96579 0.44497 0.88522 0.0
H990 H 0.98134 0.4068 0.86764 0.0
H991 H 0.10931 0.34871 0.80391 0.0
H992 H 0.07545 0.35989 0.7643 0.0
H993 H 0.0385 0.35876 0.89446 0.0
H994 H 0.0719 0.34706 0.93346 0.0
H995 H 0.02914 0.39687 0.84181 0.0
H996 H 0.03628 0.31561 0.82328 0.0
H997 H 0.05496 0.27953 0.79898 0.0
H998 H 0.0577 0.29413 0.65466 0.0
H999 H 0.03961 0.33057 0.67833 0.0
C1000 C 0.93932 0.38341 0.70319 0.0
C1001 C 0.94357 0.37843 0.65445 0.0
C1002 C 0.9567 0.38298 0.73556 0.0
C1003 C 0.97826 0.37786 0.71879 0.0
C1004 C 0.98241 0.37401 0.66972 0.0
C1005 C 0.9651 0.37417 0.6377 0.0
C1006 C 0.99618 0.37343 0.75121 0.0
C1007 C 0.00662 0.35254 0.74219 0.0
C1008 C 0.00388 0.38947 0.78822 0.0
C1009 C 0.99384 0.41202 0.79823 0.0
C1010 C 0.99592 0.4275 0.76526 0.0
C1011 C 0.98739 0.44917 0.77582 0.0
C1012 C 0.97644 0.45543 0.8189 0.0
C1013 C 0.97421 0.44008 0.85178 0.0
C1014 C 0.98301 0.41848 0.8417 0.0
C1015 C 0.09391 0.35085 0.82378 0.0
C1016 C 0.09302 0.34722 0.8716 0.0
C1017 C 0.07479 0.35746 0.8015 0.0
C1018 C 0.05473 0.36026 0.82691 0.0
C1019 C 0.05397 0.35698 0.87476 0.0
C1020 C 0.07297 0.35027 0.89682 0.0
C1021 C 0.034 0.36413 0.80234 0.0
C1022 C 0.02266 0.38446 0.8141 0.0
C1023 C 0.02569 0.34781 0.76661 0.0
C1024 C 0.03686 0.32597 0.75275 0.0
C1025 C 0.04116 0.31128 0.78652 0.0
C1026 C 0.05161 0.29073 0.77282 0.0
C1027 C 0.05758 0.28457 0.72534 0.0
C1028 C 0.05314 0.29894 0.69145 0.0
C1029 C 0.04283 0.31956 0.70501 0.0
H1030 H 0.0656 0.26862 0.71478 0.0
H1031 H 0.96977 0.4722 0.82688 0.0
H1032 H 0.40218 0.94279 0.11279 0.0
H1033 H 0.40285 0.97422 0.17646 0.0
H1034 H 0.33671 0.9568 0.21836 0.0
H1035 H 0.33562 0.92616 0.15209 0.0
H1036 H 0.33797 0.99853 0.22883 0.0
H1037 H 0.39328 0.94682 0.28119 0.0
H1038 H 0.42767 0.92426 0.27285 0.0
H1039 H 0.4655 0.983 0.25277 0.0
H1040 H 0.43141 1.00588 0.26103 0.0
H1041 H 0.34012 0.06534 0.45838 0.0
H1042 H 0.33983 0.0338 0.3939 0.0
H1043 H 0.40027 0.05853 0.33747 0.0
H1044 H 0.40046 0.09005 0.40084 0.0
H1045 H 0.40284 0.01342 0.33588 0.0
H1046 H 0.35255 0.06477 0.28208 0.0
H1047 H 0.32062 0.09048 0.28415 0.0
H1048 H 0.27599 0.0359 0.29872 0.0
H1049 H 0.30775 0.0099 0.29752 0.0
C1050 C 0.38766 0.94583 0.13531 0.0
C1051 C 0.36874 0.93205 0.12686 0.0
C1052 C 0.38819 0.9637 0.1726 0.0
C1053 C 0.3701 0.96794 0.20416 0.0
C1054 C 0.35105 0.95418 0.19525 0.0
C1055 C 0.35034 0.93659 0.1571 0.0
C1056 C 0.37061 0.98698 0.24516 0.0
C1057 C 0.35204 1.00128 0.25274 0.0
C1058 C 0.38928 0.99182 0.2758 0.0
C1059 C 0.40975 0.978 0.27125 0.0
C1060 C 0.40892 0.95488 0.27477 0.0
C1061 C 0.42835 0.94205 0.27007 0.0
C1062 C 0.44868 0.95217 0.26186 0.0
C1063 C 0.4497 0.97517 0.25881 0.0
C1064 C 0.43036 0.98808 0.2637 0.0
C1065 C 0.35325 0.06419 0.43206 0.0
C1066 C 0.37017 0.08057 0.43506 0.0
C1067 C 0.35311 0.04604 0.39504 0.0
C1068 C 0.37003 0.04353 0.36019 0.0
C1069 C 0.38701 0.05978 0.36354 0.0
C1070 C 0.38698 0.07803 0.39995 0.0
C1071 C 0.36996 0.02431 0.31999 0.0
C1072 C 0.38864 0.01023 0.31241 0.0
C1073 C 0.35165 0.01989 0.28873 0.0
C1074 C 0.33253 0.03546 0.2904 0.0
C1075 C 0.33595 0.0583 0.28633 0.0
C1076 C 0.31788 0.07291 0.28721 0.0
C1077 C 0.29629 0.06484 0.29174 0.0
C1078 C 0.29273 0.04213 0.29536 0.0
C1079 C 0.31076 0.02745 0.29459 0.0
H1080 H 0.28231 0.07618 0.2923 0.0
H1081 H 0.46372 0.94229 0.25839 0.0
H1082 H 0.04022 0.37101 0.06791 0.0
H1083 H 0.01445 0.37472 0.13528 0.0
H1084 H 0.06909 0.36931 0.23107 0.0
H1085 H 0.09514 0.36609 0.16348 0.0
H1086 H 0.03541 0.34432 0.25718 0.0
H1087 H 0.04098 0.42016 0.2364 0.0
H1088 H 0.04233 0.45373 0.19455 0.0
H1089 H 0.97575 0.44054 0.14407 0.0
H1090 H 0.97387 0.40712 0.1862 0.0
H1091 H 0.96138 0.36422 0.45981 0.0
H1092 H 0.99161 0.36756 0.4028 0.0
H1093 H 0.94359 0.3765 0.29427 0.0
H1094 H 0.91352 0.37356 0.35123 0.0
H1095 H 0.97727 0.40298 0.28049 0.0
H1096 H 0.97626 0.32356 0.30629 0.0
H1097 H 0.97915 0.29276 0.35592 0.0
H1098 H 0.04334 0.31685 0.40538 0.0
H1099 H 0.04072 0.34788 0.35632 0.0
C1100 C 0.04692 0.37035 0.10315 0.0
C1101 C 0.07007 0.36767 0.10921 0.0
C1102 C 0.03199 0.37279 0.14222 0.0
C1103 C 0.03937 0.3724 0.1894 0.0
C1104 C 0.06251 0.36962 0.19562 0.0
C1105 C 0.07756 0.36763 0.15652 0.0
C1106 C 0.02289 0.37394 0.23127 0.0
C1107 C 0.02292 0.35738 0.26232 0.0
C1108 C 0.00641 0.39097 0.2397 0.0
C1109 C 0.00733 0.41103 0.21417 0.0
C1110 C 0.02664 0.42439 0.21624 0.0
C1111 C 0.02747 0.44348 0.1927 0.0
C1112 C 0.0091 0.44936 0.16688 0.0
C1113 C 0.98989 0.43614 0.16447 0.0
C1114 C 0.98889 0.41716 0.18834 0.0
C1115 C 0.95711 0.36658 0.42369 0.0
C1116 C 0.93448 0.3681 0.41083 0.0
C1117 C 0.97464 0.36852 0.39055 0.0
C1118 C 0.97048 0.37184 0.34264 0.0
C1119 C 0.94788 0.37383 0.33022 0.0
C1120 C 0.93041 0.37196 0.36329 0.0
C1121 C 0.98919 0.3727 0.30536 0.0
C1122 C 0.98968 0.38985 0.27524 0.0
C1123 C 0.00669 0.35662 0.29872 0.0
C1124 C 0.0082 0.33806 0.32807 0.0
C1125 C 0.99092 0.32231 0.32796 0.0
C1126 C 0.99253 0.30483 0.35594 0.0
C1127 C 0.01139 0.30288 0.38387 0.0
C1128 C 0.02873 0.31839 0.3838 0.0
C1129 C 0.0272 0.3359 0.3559 0.0
H1130 H 0.0126 0.28932 0.4055 0.0
H1131 H 0.00975 0.46417 0.14887 0.0
H1132 H 0.65334 0.05937 0.11868 0.0
H1133 H 0.6535 0.0277 0.16647 0.0
H1134 H 0.60941 0.06427 0.26763 0.0
H1135 H 0.60954 0.0956 0.221 0.0
H1136 H 0.6337 0.04604 0.31895 0.0
H1137 H 0.59546 0.01331 0.1857 0.0
H1138 H 0.58438 0.99814 0.10434 0.0
H1139 H 0.6397 0.9528 0.09496 0.0
H1140 H 0.65138 0.96797 0.17605 0.0
H1141 H 0.60991 0.95278 0.45275 0.0
H1142 H 0.60906 0.98319 0.4027 0.0
H1143 H 0.65823 0.9487 0.31052 0.0
H1144 H 0.65855 0.9179 0.36044 0.0
H1145 H 0.6307 0.9657 0.25474 0.0
H1146 H 0.66425 1.00384 0.40249 0.0
H1147 H 0.66487 0.01924 0.48746 0.0
H1148 H 0.60408 0.05462 0.47004 0.0
H1149 H 0.60297 0.03925 0.38528 0.0
C1150 C 0.64383 0.06086 0.15134 0.0
C1151 C 0.63177 0.08088 0.16544 0.0
C1152 C 0.64368 0.04233 0.17888 0.0
C1153 C 0.63144 0.04276 0.22201 0.0
C1154 C 0.61937 0.06276 0.23558 0.0
C1155 C 0.61948 0.08108 0.20826 0.0
C1156 C 0.63166 0.02337 0.25411 0.0
C1157 C 0.63283 0.02853 0.30417 0.0
C1158 C 0.6303 0.99995 0.23704 0.0
C1159 C 0.62459 0.99214 0.18674 0.0
C1160 C 0.60558 1.00046 0.16597 0.0
C1161 C 0.5991 0.99176 0.11996 0.0
C1162 C 0.6114 0.97461 0.09439 0.0
C1163 C 0.63026 0.96618 0.11471 0.0
C1164 C 0.63684 0.97486 0.16068 0.0
C1165 C 0.62106 0.95183 0.42256 0.0
C1166 C 0.63497 0.93281 0.41253 0.0
C1167 C 0.62059 0.96955 0.39337 0.0
C1168 C 0.63401 0.96937 0.35208 0.0
C1169 C 0.64773 0.95013 0.34177 0.0
C1170 C 0.64817 0.93235 0.37106 0.0
C1171 C 0.63331 0.98847 0.31926 0.0
C1172 C 0.6319 0.98324 0.26911 0.0
C1173 C 0.63316 0.01192 0.33629 0.0
C1174 C 0.63344 0.02021 0.3877 0.0
C1175 C 0.6509 0.0147 0.41695 0.0
C1176 C 0.65136 0.02347 0.46504 0.0
C1177 C 0.6345 0.03785 0.48415 0.0
C1178 C 0.6171 0.04344 0.45527 0.0
C1179 C 0.61655 0.0347 0.40724 0.0
H1180 H 0.63495 0.04471 0.52131 0.0
H1181 H 0.60626 0.96777 0.05892 0.0
H1182 H 0.04766 0.65205 0.49522 0.0
H1183 H 0.019 0.64876 0.43319 0.0
H1184 H 0.06903 0.63019 0.32692 0.0
H1185 H 0.09772 0.63314 0.38907 0.0
H1186 H 0.04211 0.6576 0.29178 0.0
H1187 H 0.03051 0.59187 0.35791 0.0
H1188 H 0.02378 0.5646 0.41441 0.0
H1189 H 0.96112 0.59567 0.45319 0.0
H1190 H 0.9676 0.62344 0.3975 0.0
H1191 H 0.95893 0.63715 0.10687 0.0
H1192 H 0.98951 0.63407 0.16245 0.0
H1193 H 0.94352 0.64412 0.27982 0.0
H1194 H 0.91272 0.64526 0.22361 0.0
H1195 H 0.97083 0.61762 0.3057 0.0
H1196 H 0.98975 0.68612 0.23134 0.0
H1197 H 0.99991 0.70581 0.16296 0.0
H1198 H 0.05366 0.65971 0.12847 0.0
H1199 H 0.04369 0.63969 0.19633 0.0
C1200 C 0.05273 0.64748 0.45864 0.0
C1201 C 0.07542 0.64329 0.44779 0.0
C1202 C 0.03609 0.64531 0.42283 0.0
C1203 C 0.04136 0.63909 0.37437 0.0
C1204 C 0.06407 0.6351 0.36346 0.0
C1205 C 0.08067 0.63689 0.39937 0.0
C1206 C 0.02344 0.63754 0.33538 0.0
C1207 C 0.0266 0.64871 0.29505 0.0
C1208 C 0.00306 0.62562 0.3378 0.0
C1209 C 0.99968 0.60997 0.37384 0.0
C1210 C 0.01546 0.59319 0.37908 0.0
C1211 C 0.01165 0.57755 0.41081 0.0
C1212 C 0.99202 0.57839 0.43729 0.0
C1213 C 0.97631 0.59505 0.4326 0.0
C1214 C 0.98005 0.61076 0.40097 0.0
C1215 C 0.95528 0.63906 0.14457 0.0
C1216 C 0.93302 0.64205 0.16011 0.0
C1217 C 0.97307 0.63746 0.177 0.0
C1218 C 0.9697 0.63969 0.22693 0.0
C1219 C 0.94733 0.64249 0.24222 0.0
C1220 C 0.92947 0.64339 0.20969 0.0
C1221 C 0.9889 0.63882 0.26313 0.0
C1222 C 0.98612 0.62692 0.30287 0.0
C1223 C 0.01007 0.6493 0.25924 0.0
C1224 C 0.01584 0.66134 0.21854 0.0
C1225 C 0.00366 0.68017 0.209 0.0
C1226 C 0.0094 0.69137 0.17036 0.0
C1227 C 0.02738 0.68398 0.14133 0.0
C1228 C 0.03971 0.6654 0.15091 0.0
C1229 C 0.03404 0.65414 0.18943 0.0
H1230 H 0.03179 0.69268 0.11146 0.0
H1231 H 0.9889 0.56603 0.46116 0.0
H1232 H 0.26626 0.1953 0.42712 0.0
H1233 H 0.24952 0.21244 0.36163 0.0
H1234 H 0.30795 0.25342 0.35402 0.0
H1235 H 0.32486 0.23596 0.41953 0.0
H1236 H 0.27065 0.27876 0.35183 0.0
H1237 H 0.29522 0.20946 0.26702 0.0
H1238 H 0.29884 0.1684 0.24985 0.0
H1239 H 0.22811 0.16202 0.23311 0.0
H1240 H 0.224 0.20304 0.25099 0.0
H1241 H 0.23512 0.32453 0.13983 0.0
H1242 H 0.25403 0.30811 0.20396 0.0
H1243 H 0.20401 0.25631 0.19708 0.0
H1244 H 0.18588 0.27223 0.13171 0.0
H1245 H 0.2389 0.23628 0.20633 0.0
H1246 H 0.21355 0.30481 0.29554 0.0
H1247 H 0.20912 0.3455 0.31876 0.0
H1248 H 0.27991 0.3531 0.33204 0.0
H1249 H 0.28478 0.31253 0.30818 0.0
C1250 C 0.27576 0.20767 0.41094 0.0
C1251 C 0.2971 0.21398 0.42853 0.0
C1252 C 0.26611 0.21755 0.37326 0.0
C1253 C 0.27731 0.23437 0.35199 0.0
C1254 C 0.29878 0.24054 0.36925 0.0
C1255 C 0.3086 0.23036 0.40657 0.0
C1256 C 0.26628 0.24596 0.31331 0.0
C1257 C 0.26403 0.26945 0.31963 0.0
C1258 C 0.25687 0.23405 0.27156 0.0
C1259 C 0.25929 0.20935 0.26078 0.0
C1260 C 0.28041 0.19931 0.26009 0.0
C1261 C 0.28255 0.17603 0.25016 0.0
C1262 C 0.26371 0.16261 0.24049 0.0
C1263 C 0.24269 0.17244 0.24066 0.0
C1264 C 0.24044 0.19571 0.25067 0.0
C1265 C 0.22774 0.31008 0.15308 0.0
C1266 C 0.20841 0.30026 0.13123 0.0
C1267 C 0.23869 0.3005 0.19003 0.0
C1268 C 0.23061 0.28081 0.207 0.0
C1269 C 0.21097 0.27137 0.18562 0.0
C1270 C 0.20025 0.28077 0.14841 0.0
C1271 C 0.2429 0.26935 0.24481 0.0
C1272 C 0.24544 0.24576 0.23838 0.0
C1273 C 0.25241 0.28118 0.28677 0.0
C1274 C 0.24953 0.30568 0.29938 0.0
C1275 C 0.22818 0.31521 0.3028 0.0
C1276 C 0.22559 0.33824 0.31621 0.0
C1277 C 0.24423 0.35189 0.32668 0.0
C1278 C 0.26549 0.34253 0.32376 0.0
C1279 C 0.26817 0.31953 0.31025 0.0
H1280 H 0.24218 0.36971 0.33721 0.0
H1281 H 0.26541 0.14459 0.23277 0.0
H1282 H 0.67301 0.22851 0.16147 0.0
H1283 H 0.68836 0.24745 0.23599 0.0
H1284 H 0.74919 0.26042 0.16347 0.0
H1285 H 0.73456 0.24069 0.09 0.0
H1286 H 0.75779 0.24215 0.24017 0.0
H1287 H 0.70971 0.30128 0.20166 0.0
H1288 H 0.67391 0.31817 0.18355 0.0
H1289 H 0.64822 0.30587 0.31922 0.0
H1290 H 0.6837 0.28842 0.33775 0.0
H1291 H 0.81624 0.30705 0.41707 0.0
H1292 H 0.79558 0.2962 0.34497 0.0
H1293 H 0.73544 0.29219 0.42631 0.0
H1294 H 0.75538 0.30626 0.4987 0.0
H1295 H 0.7246 0.30478 0.34757 0.0
H1296 H 0.77198 0.24499 0.38561 0.0
H1297 H 0.80735 0.22712 0.40353 0.0
H1298 H 0.83367 0.23945 0.26839 0.0
H1299 H 0.79864 0.25775 0.25001 0.0
C1300 C 0.68961 0.23551 0.16139 0.0
C1301 C 0.70248 0.23307 0.11958 0.0
C1302 C 0.69829 0.24653 0.20393 0.0
C1303 C 0.71991 0.25547 0.20534 0.0
C1304 C 0.73246 0.25369 0.16332 0.0
C1305 C 0.72392 0.24259 0.12107 0.0
C1306 C 0.73036 0.26515 0.25088 0.0
C1307 C 0.75066 0.25606 0.26333 0.0
C1308 C 0.72063 0.28271 0.28205 0.0
C1309 C 0.69931 0.29327 0.27086 0.0
C1310 C 0.69636 0.30195 0.22745 0.0
C1311 C 0.67612 0.31165 0.21712 0.0
C1312 C 0.65878 0.31303 0.25014 0.0
C1313 C 0.66165 0.30474 0.29361 0.0
C1314 C 0.68181 0.29492 0.30403 0.0
C1315 C 0.79849 0.30478 0.42016 0.0
C1316 C 0.78776 0.30747 0.46475 0.0
C1317 C 0.78672 0.29795 0.37847 0.0
C1318 C 0.76409 0.29236 0.38011 0.0
C1319 C 0.75299 0.29597 0.424 0.0
C1320 C 0.7646 0.3037 0.4657 0.0
C1321 C 0.75235 0.2821 0.33635 0.0
C1322 C 0.73174 0.29089 0.32443 0.0
C1323 C 0.76169 0.26409 0.30558 0.0
C1324 C 0.78272 0.25291 0.31662 0.0
C1325 C 0.78535 0.24401 0.35984 0.0
C1326 C 0.80535 0.23381 0.37008 0.0
C1327 C 0.82275 0.2322 0.33716 0.0
C1328 C 0.82019 0.24074 0.29389 0.0
C1329 C 0.80027 0.25102 0.28355 0.0
H1330 H 0.83821 0.22429 0.34515 0.0
H1331 H 0.64314 0.32057 0.24211 0.0
H1332 H 0.70559 0.75228 0.47397 0.0
H1333 H 0.71777 0.73096 0.39921 0.0
H1334 H 0.71959 0.79177 0.33325 0.0
H1335 H 0.70808 0.81334 0.40801 0.0
H1336 H 0.70185 0.75229 0.27333 0.0
H1337 H 0.76602 0.77755 0.37232 0.0
H1338 H 0.78393 0.78122 0.45119 0.0
H1339 H 0.78374 0.70959 0.44781 0.0
H1340 H 0.76557 0.70556 0.36906 0.0
H1341 H 0.78003 0.74126 0.08933 0.0
H1342 H 0.75998 0.75272 0.16316 0.0
H1343 H 0.76962 0.68709 0.20609 0.0
H1344 H 0.78953 0.67529 0.1316 0.0
H1345 H 0.77891 0.72312 0.27911 0.0
H1346 H 0.71936 0.6974 0.17404 0.0
H1347 H 0.70059 0.69412 0.09615 0.0
H1348 H 0.69126 0.76548 0.11135 0.0
H1349 H 0.71011 0.76917 0.18929 0.0
C1350 C 0.70856 0.76113 0.44355 0.0
C1351 C 0.70608 0.78457 0.44712 0.0
C1352 C 0.71525 0.74888 0.40078 0.0
C1353 C 0.7195 0.75983 0.36084 0.0
C1354 C 0.71612 0.78302 0.36361 0.0
C1355 C 0.70959 0.79531 0.40641 0.0
C1356 C 0.73002 0.74774 0.31799 0.0
C1357 C 0.71865 0.74587 0.27453 0.0
C1358 C 0.75177 0.73902 0.31986 0.0
C1359 C 0.76445 0.74125 0.36497 0.0
C1360 C 0.76993 0.76259 0.38834 0.0
C1361 C 0.78004 0.76474 0.43305 0.0
C1362 C 0.78495 0.74565 0.45452 0.0
C1363 C 0.77995 0.72436 0.43109 0.0
C1364 C 0.76979 0.72212 0.38637 0.0
C1365 C 0.77754 0.7291 0.11398 0.0
C1366 C 0.78615 0.70728 0.10435 0.0
C1367 C 0.76625 0.73573 0.15634 0.0
C1368 C 0.76326 0.72069 0.18989 0.0
C1369 C 0.77186 0.69893 0.18065 0.0
C1370 C 0.78314 0.69223 0.1381 0.0
C1371 C 0.75084 0.72792 0.2342 0.0
C1372 C 0.76191 0.72901 0.27798 0.0
C1373 C 0.72874 0.73576 0.23266 0.0
C1374 C 0.71611 0.73356 0.18743 0.0
C1375 C 0.71322 0.71238 0.16081 0.0
C1376 C 0.70261 0.71045 0.11665 0.0
C1377 C 0.69474 0.72959 0.09881 0.0
C1378 C 0.69731 0.75067 0.12529 0.0
C1379 C 0.70787 0.75268 0.16956 0.0
H1380 H 0.68665 0.72808 0.06446 0.0
H1381 H 0.79263 0.74735 0.4893 0.0
H1382 H 0.32855 0.78288 0.15761 0.0
H1383 H 0.31155 0.76556 0.22333 0.0
H1384 H 0.2482 0.79395 0.19296 0.0
H1385 H 0.26512 0.81155 0.12882 0.0
H1386 H 0.25125 0.79645 0.28372 0.0
H1387 H 0.26249 0.73589 0.15851 0.0
H1388 H 0.28411 0.71132 0.09915 0.0
H1389 H 0.32568 0.69176 0.20988 0.0
H1390 H 0.30439 0.71636 0.26986 0.0
H1391 H 0.18128 0.7305 0.41534 0.0
H1392 H 0.1995 0.74707 0.35039 0.0
H1393 H 0.26137 0.71632 0.38304 0.0
H1394 H 0.24291 0.69941 0.44718 0.0
H1395 H 0.25988 0.71505 0.29194 0.0
H1396 H 0.24754 0.77571 0.41753 0.0
H1397 H 0.22609 0.80122 0.47548 0.0
H1398 H 0.18612 0.82109 0.36256 0.0
H1399 H 0.20724 0.79559 0.30399 0.0
C1400 C 0.31111 0.78577 0.16553 0.0
C1401 C 0.29832 0.79865 0.13735 0.0
C1402 C 0.30122 0.77555 0.20288 0.0
C1403 C 0.27825 0.77789 0.21323 0.0
C1404 C 0.26582 0.79157 0.18629 0.0
C1405 C 0.27561 0.80168 0.14922 0.0
C1406 C 0.26691 0.76617 0.25137 0.0
C1407 C 0.25302 0.77858 0.28499 0.0
C1408 C 0.26919 0.74287 0.25444 0.0
C1409 C 0.28201 0.72811 0.21855 0.0
C1410 C 0.27634 0.72645 0.17013 0.0
C1411 C 0.2885 0.7125 0.1364 0.0
C1412 C 0.3063 0.70003 0.15072 0.0
C1413 C 0.31191 0.70144 0.19884 0.0
C1414 C 0.29979 0.71536 0.23271 0.0
C1415 C 0.19859 0.72669 0.40763 0.0
C1416 C 0.21039 0.71299 0.43572 0.0
C1417 C 0.20922 0.73659 0.37091 0.0
C1418 C 0.23217 0.73352 0.3616 0.0
C1419 C 0.24375 0.71918 0.38879 0.0
C1420 C 0.2331 0.70926 0.42541 0.0
C1421 C 0.24417 0.74533 0.32438 0.0
C1422 C 0.25815 0.73293 0.29083 0.0
C1423 C 0.24188 0.76867 0.32123 0.0
C1424 C 0.22881 0.78357 0.35648 0.0
C1425 C 0.23404 0.78537 0.40514 0.0
C1426 C 0.22198 0.79987 0.43807 0.0
C1427 C 0.20471 0.81272 0.42273 0.0
C1428 C 0.19947 0.8111 0.37441 0.0
C1429 C 0.2115 0.79666 0.34133 0.0
H1430 H 0.19542 0.82396 0.44827 0.0
H1431 H 0.3157 0.68924 0.12456 0.0
H1432 H 0.71098 0.82587 0.67361 0.0
H1433 H 0.72696 0.81058 0.74216 0.0
H1434 H 0.73612 0.74679 0.65612 0.0
H1435 H 0.71722 0.76053 0.5916 0.0
H1436 H 0.72821 0.73555 0.72941 0.0
H1437 H 0.78035 0.79597 0.70309 0.0
H1438 H 0.79299 0.83492 0.70062 0.0
H1439 H 0.76992 0.85318 0.84359 0.0
H1440 H 0.75699 0.81442 0.8467 0.0
H1441 H 0.80663 0.68756 0.88125 0.0
H1442 H 0.78917 0.70409 0.81504 0.0
H1443 H 0.77219 0.76298 0.91121 0.0
H1444 H 0.79042 0.74722 0.97576 0.0
H1445 H 0.78319 0.77706 0.83645 0.0
H1446 H 0.73316 0.71642 0.8633 0.0
H1447 H 0.72089 0.67744 0.86677 0.0
H1448 H 0.74111 0.65934 0.72178 0.0
H1449 H 0.75363 0.69814 0.71758 0.0
C1450 C 0.71606 0.80848 0.66936 0.0
C1451 C 0.71324 0.79501 0.62516 0.0
C1452 C 0.72581 0.79974 0.7088 0.0
C1453 C 0.73384 0.77742 0.70511 0.0
C1454 C 0.73049 0.76402 0.66133 0.0
C1455 C 0.71998 0.77234 0.62307 0.0
C1456 C 0.74512 0.7673 0.74581 0.0
C1457 C 0.74059 0.74473 0.75186 0.0
C1458 C 0.76069 0.77894 0.77778 0.0
C1459 C 0.76745 0.80241 0.77484 0.0
C1460 C 0.77776 0.80837 0.73374 0.0
C1461 C 0.78503 0.8304 0.73231 0.0
C1462 C 0.78219 0.84653 0.77186 0.0
C1463 C 0.77204 0.8407 0.81292 0.0
C1464 C 0.76474 0.81873 0.81452 0.0
C1465 C 0.79957 0.70421 0.88795 0.0
C1466 C 0.79995 0.71587 0.93431 0.0
C1467 C 0.78915 0.71357 0.85011 0.0
C1468 C 0.77868 0.73481 0.85761 0.0
C1469 C 0.77987 0.74664 0.90361 0.0
C1470 C 0.79036 0.73747 0.94092 0.0
C1471 C 0.76686 0.74525 0.8184 0.0
C1472 C 0.77107 0.7679 0.81321 0.0
C1473 C 0.75115 0.73363 0.78696 0.0
C1474 C 0.7446 0.71011 0.79037 0.0
C1475 C 0.73524 0.70405 0.83238 0.0
C1476 C 0.72816 0.68201 0.8344 0.0
C1477 C 0.73029 0.66591 0.79458 0.0
C1478 C 0.73952 0.6718 0.75265 0.0
C1479 C 0.7466 0.69381 0.75043 0.0
H1480 H 0.72472 0.64888 0.79617 0.0
H1481 H 0.78792 0.86354 0.77074 0.0
H1482 H 0.17516 0.72772 0.65284 0.0
H1483 H 0.1893 0.74635 0.728 0.0
H1484 H 0.24977 0.76298 0.65823 0.0
H1485 H 0.23689 0.74229 0.58434 0.0
H1486 H 0.26008 0.74538 0.73044 0.0
H1487 H 0.2047 0.80115 0.70535 0.0
H1488 H 0.167 0.81556 0.69389 0.0
H1489 H 0.14639 0.79535 0.82717 0.0
H1490 H 0.18378 0.78033 0.83894 0.0
H1491 H 0.31451 0.80794 0.91516 0.0
H1492 H 0.29392 0.79823 0.84309 0.0
H1493 H 0.23549 0.78576 0.92405 0.0
H1494 H 0.25496 0.79936 0.99735 0.0
H1495 H 0.2224 0.80013 0.84923 0.0
H1496 H 0.27632 0.74337 0.87346 0.0
H1497 H 0.31376 0.72866 0.88665 0.0
H1498 H 0.33626 0.74969 0.75544 0.0
H1499 H 0.29912 0.76492 0.74191 0.0
C1500 C 0.19156 0.73517 0.65336 0.0
C1501 C 0.20497 0.73298 0.61217 0.0
C1502 C 0.19946 0.74629 0.69645 0.0
C1503 C 0.22062 0.75624 0.69909 0.0
C1504 C 0.2334 0.75537 0.65737 0.0
C1505 C 0.22583 0.74371 0.61468 0.0
C1506 C 0.23065 0.76536 0.74566 0.0
C1507 C 0.25191 0.75769 0.75592 0.0
C1508 C 0.21962 0.78053 0.78033 0.0
C1509 C 0.19703 0.78935 0.77273 0.0
C1510 C 0.19208 0.79953 0.73196 0.0
C1511 C 0.17075 0.80784 0.72544 0.0
C1512 C 0.15429 0.80631 0.7597 0.0
C1513 C 0.15912 0.79647 0.80057 0.0
C1514 C 0.18037 0.78803 0.80715 0.0
C1515 C 0.29707 0.80413 0.91855 0.0
C1516 C 0.28667 0.80464 0.96333 0.0
C1517 C 0.28538 0.79785 0.87661 0.0
C1518 C 0.26338 0.79022 0.8778 0.0
C1519 C 0.25261 0.79118 0.922 0.0
C1520 C 0.264 0.79861 0.96421 0.0
C1521 C 0.25205 0.78066 0.833 0.0
C1522 C 0.23052 0.78795 0.82344 0.0
C1523 C 0.26269 0.76493 0.79888 0.0
C1524 C 0.28495 0.75541 0.80684 0.0
C1525 C 0.28928 0.74494 0.84753 0.0
C1526 C 0.31046 0.73654 0.85508 0.0
C1527 C 0.32738 0.73827 0.82194 0.0
C1528 C 0.32315 0.74838 0.78111 0.0
C1529 C 0.30204 0.7569 0.77349 0.0
H1530 H 0.34376 0.73175 0.82785 0.0
H1531 H 0.13782 0.8128 0.75463 0.0
H1532 H 0.23941 0.27656 0.98036 0.0
H1533 H 0.25314 0.25635 0.90608 0.0
H1534 H 0.1892 0.26311 0.84082 0.0
H1535 H 0.17495 0.28244 0.91586 0.0
H1536 H 0.20793 0.22273 0.80842 0.0
H1537 H 0.23097 0.30052 0.82003 0.0
H1538 H 0.24759 0.33528 0.86092 0.0
H1539 H 0.30887 0.30059 0.87761 0.0
H1540 H 0.29258 0.26565 0.83668 0.0
H1541 H 0.25355 0.20575 0.56977 0.0
H1542 H 0.23337 0.21832 0.64329 0.0
H1543 H 0.29506 0.22169 0.7213 0.0
H1544 H 0.31536 0.21089 0.64825 0.0
H1545 H 0.27433 0.25783 0.74462 0.0
H1546 H 0.25117 0.17945 0.73363 0.0
H1547 H 0.23391 0.14436 0.6959 0.0
H1548 H 0.1729 0.17934 0.67832 0.0
H1549 H 0.18981 0.2146 0.71611 0.0
C1550 C 0.22804 0.27329 0.95069 0.0
C1551 C 0.2061 0.28142 0.95412 0.0
C1552 C 0.23601 0.26191 0.90795 0.0
C1553 C 0.22237 0.25865 0.86741 0.0
C1554 C 0.20011 0.26558 0.87141 0.0
C1555 C 0.19206 0.27684 0.91427 0.0
C1556 C 0.23184 0.24955 0.8203 0.0
C1557 C 0.22233 0.23048 0.79417 0.0
C1558 C 0.25065 0.25954 0.8016 0.0
C1559 C 0.26056 0.28054 0.82553 0.0
C1560 C 0.24798 0.30034 0.83251 0.0
C1561 C 0.25734 0.32006 0.85562 0.0
C1562 C 0.27927 0.32014 0.8719 0.0
C1563 C 0.29191 0.30052 0.86491 0.0
C1564 C 0.28266 0.28078 0.84161 0.0
C1565 C 0.26287 0.20927 0.60253 0.0
C1566 C 0.28624 0.20725 0.60259 0.0
C1567 C 0.2512 0.21612 0.64483 0.0
C1568 C 0.26259 0.22082 0.68828 0.0
C1569 C 0.28578 0.21819 0.68846 0.0
C1570 C 0.29742 0.21171 0.64639 0.0
C1571 C 0.25108 0.23032 0.73308 0.0
C1572 C 0.26001 0.24983 0.75865 0.0
C1573 C 0.23179 0.22064 0.751 0.0
C1574 C 0.22182 0.19965 0.72717 0.0
C1575 C 0.23414 0.17967 0.72133 0.0
C1576 C 0.22439 0.15974 0.70013 0.0
C1577 C 0.20234 0.15964 0.68459 0.0
C1578 C 0.18998 0.17945 0.69033 0.0
C1579 C 0.19961 0.19938 0.71175 0.0
H1580 H 0.19483 0.1442 0.66821 0.0
H1581 H 0.28647 0.33541 0.88989 0.0
H1582 H 0.78673 0.26431 0.59043 0.0
H1583 H 0.76776 0.24871 0.65463 0.0
H1584 H 0.7917 0.30343 0.75444 0.0
H1585 H 0.81027 0.3198 0.68924 0.0
H1586 H 0.79562 0.26481 0.79077 0.0
H1587 H 0.735 0.29945 0.71956 0.0
H1588 H 0.71006 0.30814 0.65535 0.0
H1589 H 0.6926 0.23852 0.62481 0.0
H1590 H 0.71754 0.22939 0.68871 0.0
H1591 H 0.73615 0.23809 0.98639 0.0
H1592 H 0.75102 0.25486 0.92171 0.0
H1593 H 0.71283 0.20957 0.82306 0.0
H1594 H 0.69372 0.19554 0.89054 0.0
H1595 H 0.71596 0.24339 0.78308 0.0
H1596 H 0.77881 0.20911 0.85512 0.0
H1597 H 0.80434 0.20213 0.91985 0.0
H1598 H 0.8186 0.27258 0.94799 0.0
H1599 H 0.79313 0.27997 0.88368 0.0
C1600 C 0.78789 0.27335 0.62586 0.0
C1601 C 0.7999 0.29378 0.63385 0.0
C1602 C 0.77684 0.2643 0.66286 0.0
C1603 C 0.77755 0.27501 0.70982 0.0
C1604 C 0.79046 0.29481 0.71862 0.0
C1605 C 0.80136 0.30412 0.68124 0.0
C1606 C 0.76579 0.26487 0.74956 0.0
C1607 C 0.77811 0.26041 0.78924 0.0
C1608 C 0.743 0.25836 0.74765 0.0
C1609 C 0.72832 0.26371 0.70862 0.0
C1610 C 0.726 0.28596 0.69886 0.0
C1611 C 0.71181 0.29098 0.66262 0.0
C1612 C 0.6998 0.27388 0.63593 0.0
C1613 C 0.70193 0.25174 0.64549 0.0
C1614 C 0.71606 0.24664 0.68178 0.0
C1615 C 0.7298 0.23198 0.95151 0.0
C1616 C 0.71242 0.21587 0.94538 0.0
C1617 C 0.73946 0.24115 0.91333 0.0
C1618 C 0.73427 0.2332 0.86589 0.0
C1619 C 0.71761 0.2163 0.85883 0.0
C1620 C 0.70675 0.20793 0.89781 0.0
C1621 C 0.74585 0.24307 0.82489 0.0
C1622 C 0.7335 0.24754 0.78475 0.0
C1623 C 0.76876 0.24961 0.8262 0.0
C1624 C 0.78399 0.24507 0.86485 0.0
C1625 C 0.78735 0.22309 0.87527 0.0
C1626 C 0.80181 0.21907 0.91184 0.0
C1627 C 0.81305 0.2369 0.93806 0.0
C1628 C 0.8099 0.25879 0.92768 0.0
C1629 C 0.79551 0.26289 0.89112 0.0
H1630 H 0.82422 0.23375 0.96637 0.0
H1631 H 0.68881 0.2778 0.60792 0.0
loop_
_geom_bond_atom_site_label_1
_geom_bond_atom_site_label_2
_geom_bond_distance
_geom_bond_site_symmetry_2
_ccdc_geom_bond_type
O0 Tb1 2.292 . S
O0 C3 1.255 . S
Tb1 O0 2.292 . S
Tb1 O17 2.326 . S
Tb1 O19 2.500 . S
Tb1 O20 2.473 1_556 S
Tb1 O23 2.324 1_556 S
Eu2 O6 2.292 . S
Eu2 C7 2.852 . S
Eu2 O18 2.324 1_554 S
Eu2 O22 2.326 . S
Eu2 O24 2.500 . S
Eu2 O25 2.473 . S
C3 O0 1.255 . S
C3 O4 1.247 . S
O4 C3 1.247 . S
C5 O17 1.242 . S
C5 O18 1.258 . S
O6 Eu2 2.292 . S
O6 C8 1.255 . S
C7 Eu2 2.852 . S
C7 C11 1.503 . S
C7 O24 1.273 . S
C7 O25 1.257 . S
C8 O6 1.255 . S
C8 O9 1.247 . S
O9 C8 1.247 . S
C10 O22 1.242 . S
C10 O23 1.258 . S
C11 C7 1.503 . S
C11 C12 1.379 1_554 S
C11 C16 1.392 . S
C12 C11 1.379 1_556 S
C12 C13 1.404 . S
C12 H26 0.929 . S
C13 C12 1.404 . S
C13 C14 1.389 1_556 S
C14 C13 1.389 1_554 S
C14 C15 1.399 . S
C14 H27 0.931 . S
C15 C14 1.399 . S
C15 C16 1.390 . S
C16 C11 1.392 . S
C16 C15 1.390 . S
C16 H28 0.929 . S
O17 Tb1 2.326 . S
O17 C5 1.242 . S
O18 Eu2 2.324 1_556 S
O18 C5 1.258 . S
O19 Tb1 2.500 . S
O19 C21 1.273 . S
O20 Tb1 2.473 1_554 S
O20 C21 1.257 1_554 S
C21 O19 1.273 . S
C21 O20 1.257 1_556 S
O22 Eu2 2.326 . S
O22 C10 1.242 . S
O23 Tb1 2.324 1_554 S
O23 C10 1.258 . S
O24 Eu2 2.500 . S
O24 C7 1.273 . S
O25 Eu2 2.473 . S
O25 C7 1.257 . S
H26 C12 0.929 . S
H27 C14 0.931 . S
H28 C16 0.929 . S
O29 Tb30 2.292 . S
O29 C32 1.255 . S
Tb30 O29 2.292 . S
Tb30 O46 2.326 . S
Tb30 O48 2.500 . S
Tb30 O49 2.473 . S
Tb30 O52 2.324 . S
Eu31 O35 2.292 . S
Eu31 C36 2.852 1_556 S
Eu31 O47 2.324 1_556 S
Eu31 O51 2.326 . S
Eu31 O53 2.500 . S
Eu31 O54 2.473 1_556 S
C32 O29 1.255 . S
C32 O33 1.247 . S
O33 C32 1.247 . S
C34 O46 1.242 . S
C34 O47 1.258 . S
O35 Eu31 2.292 . S
O35 C37 1.255 . S
C36 Eu31 2.852 1_554 S
C36 C40 1.503 . S
C36 O53 1.273 1_554 S
C36 O54 1.257 . S
C37 O35 1.255 . S
C37 O38 1.247 . S
O38 C37 1.247 . S
C39 O51 1.242 . S
C39 O52 1.258 1_556 S
C40 C36 1.503 . S
C40 C41 1.379 . S
C40 C45 1.392 1_554 S
C41 C40 1.379 . S
C41 C42 1.404 . S
C41 H55 0.929 . S
C42 C41 1.404 . S
C42 C43 1.389 . S
C43 C42 1.389 . S
C43 C44 1.399 1_554 S
C43 H56 0.931 . S
C44 C43 1.399 1_556 S
C44 C45 1.390 . S
C45 C40 1.392 1_556 S
C45 C44 1.390 . S
C45 H57 0.929 . S
O46 Tb30 2.326 . S
O46 C34 1.242 . S
O47 Eu31 2.324 1_554 S
O47 C34 1.258 . S
O48 Tb30 2.500 . S
O48 C50 1.273 . S
O49 Tb30 2.473 . S
O49 C50 1.257 . S
C50 O48 1.273 . S
C50 O49 1.257 . S
O51 Eu31 2.326 . S
O51 C39 1.242 . S
O52 Tb30 2.324 . S
O52 C39 1.258 1_554 S
O53 Eu31 2.500 . S
O53 C36 1.273 1_556 S
O54 Eu31 2.473 1_554 S
O54 C36 1.257 . S
H55 C41 0.929 . S
H56 C43 0.931 . S
H57 C45 0.929 . S
O58 Tb59 2.292 . S
O58 C61 1.255 . S
Tb59 O58 2.292 . S
Tb59 O75 2.326 . S
Tb59 O77 2.500 . S
Tb59 O78 2.473 . S
Tb59 O81 2.324 1_554 S
Eu60 O64 2.292 1_554 S
Eu60 C65 2.852 . S
Eu60 O76 2.324 . S
Eu60 O80 2.326 1_554 S
Eu60 O82 2.500 1_554 S
Eu60 O83 2.473 . S
C61 O58 1.255 . S
C61 O62 1.247 . S
O62 C61 1.247 . S
C63 O75 1.242 . S
C63 O76 1.258 . S
O64 Eu60 2.292 1_556 S
O64 C66 1.255 . S
C65 Eu60 2.852 . S
C65 C69 1.503 . S
C65 O82 1.273 1_554 S
C65 O83 1.257 . S
C66 O64 1.255 . S
C66 O67 1.247 . S
O67 C66 1.247 . S
C68 O80 1.242 . S
C68 O81 1.258 . S
C69 C65 1.503 . S
C69 C70 1.379 . S
C69 C74 1.392 1_554 S
C70 C69 1.379 . S
C70 C71 1.404 . S
C70 H84 0.929 . S
C71 C70 1.404 . S
C71 C72 1.389 . S
C72 C71 1.389 . S
C72 C73 1.399 1_554 S
C72 H85 0.931 . S
C73 C72 1.399 1_556 S
C73 C74 1.390 . S
C74 C69 1.392 1_556 S
C74 C73 1.390 . S
C74 H86 0.929 . S
O75 Tb59 2.326 . S
O75 C63 1.242 . S
O76 Eu60 2.324 . S
O76 C63 1.258 . S
O77 Tb59 2.500 . S
O77 C79 1.273 . S
O78 Tb59 2.473 . S
O78 C79 1.257 . S
C79 O77 1.273 . S
C79 O78 1.257 . S
O80 Eu60 2.326 1_556 S
O80 C68 1.242 . S
O81 Tb59 2.324 1_556 S
O81 C68 1.258 . S
O82 Eu60 2.500 1_556 S
O82 C65 1.273 1_556 S
O83 Eu60 2.473 . S
O83 C65 1.257 . S
H84 C70 0.929 . S
H85 C72 0.931 . S
H86 C74 0.929 . S
O87 Tb88 2.292 . S
O87 C90 1.255 . S
Tb88 O87 2.292 . S
Tb88 O104 2.326 . S
Tb88 O106 2.500 . S
Tb88 O107 2.473 1_556 S
Tb88 O110 2.324 1_556 S
Eu89 O93 2.292 . S
Eu89 C94 2.852 . S
Eu89 O105 2.324 1_554 S
Eu89 O109 2.326 . S
Eu89 O111 2.500 . S
Eu89 O112 2.473 1_554 S
C90 O87 1.255 . S
C90 O91 1.247 . S
O91 C90 1.247 . S
C92 O104 1.242 . S
C92 O105 1.258 . S
O93 Eu89 2.292 . S
O93 C95 1.255 . S
C94 Eu89 2.852 . S
C94 C98 1.503 . S
C94 O111 1.273 . S
C94 O112 1.257 1_554 S
C95 O93 1.255 . S
C95 O96 1.247 . S
O96 C95 1.247 . S
C97 O109 1.242 . S
C97 O110 1.258 . S
C98 C94 1.503 . S
C98 C99 1.379 1_554 S
C98 C103 1.392 . S
C99 C98 1.379 1_556 S
C99 C100 1.404 . S
C99 H113 0.929 . S
C100 C99 1.404 . S
C100 C101 1.389 1_556 S
C101 C100 1.389 1_554 S
C101 C102 1.399 . S
C101 H114 0.931 . S
C102 C101 1.399 . S
C102 C103 1.390 . S
C103 C98 1.392 . S
C103 C102 1.390 . S
C103 H115 0.929 . S
O104 Tb88 2.326 . S
O104 C92 1.242 . S
O105 Eu89 2.324 1_556 S
O105 C92 1.258 . S
O106 Tb88 2.500 . S
O106 C108 1.273 . S
O107 Tb88 2.473 1_554 S
O107 C108 1.257 1_554 S
C108 O106 1.273 . S
C108 O107 1.257 1_556 S
O109 Eu89 2.326 . S
O109 C97 1.242 . S
O110 Tb88 2.324 1_554 S
O110 C97 1.258 . S
O111 Eu89 2.500 . S
O111 C94 1.273 . S
O112 Eu89 2.473 1_556 S
O112 C94 1.257 1_556 S
H113 C99 0.929 . S
H114 C101 0.931 . S
H115 C103 0.929 . S
O116 Tb117 2.292 . S
O116 C119 1.255 . S
Tb117 O116 2.292 . S
Tb117 O133 2.326 . S
Tb117 O135 2.500 . S
Tb117 O136 2.473 . S
Tb117 O139 2.324 . S
Eu118 O122 2.292 . S
Eu118 C123 2.852 . S
Eu118 O134 2.324 . S
Eu118 O138 2.326 . S
Eu118 O140 2.500 . S
Eu118 O141 2.473 . S
C119 O116 1.255 . S
C119 O120 1.247 . S
O120 C119 1.247 . S
C121 O133 1.242 . S
C121 O134 1.258 . S
O122 Eu118 2.292 . S
O122 C124 1.255 . S
C123 Eu118 2.852 . S
C123 C127 1.503 . S
C123 O140 1.273 . S
C123 O141 1.257 . S
C124 O122 1.255 . S
C124 O125 1.247 . S
O125 C124 1.247 . S
C126 O138 1.242 . S
C126 O139 1.258 . S
C127 C123 1.503 . S
C127 C128 1.379 . S
C127 C132 1.392 . S
C128 C127 1.379 . S
C128 C129 1.404 . S
C128 H142 0.929 . S
C129 C128 1.404 . S
C129 C130 1.389 . S
C130 C129 1.389 . S
C130 C131 1.399 . S
C130 H143 0.931 . S
C131 C130 1.399 . S
C131 C132 1.390 . S
C132 C127 1.392 . S
C132 C131 1.390 . S
C132 H144 0.929 . S
O133 Tb117 2.326 . S
O133 C121 1.242 . S
O134 Eu118 2.324 . S
O134 C121 1.258 . S
O135 Tb117 2.500 . S
O135 C137 1.273 . S
O136 Tb117 2.473 . S
O136 C137 1.257 . S
C137 O135 1.273 . S
C137 O136 1.257 . S
O138 Eu118 2.326 . S
O138 C126 1.242 . S
O139 Tb117 2.324 . S
O139 C126 1.258 . S
O140 Eu118 2.500 . S
O140 C123 1.273 . S
O141 Eu118 2.473 . S
O141 C123 1.257 . S
H142 C128 0.929 . S
H143 C130 0.931 . S
H144 C132 0.929 . S
O145 Tb146 2.292 . S
O145 C148 1.255 . S
Tb146 O145 2.292 . S
Tb146 O162 2.326 . S
Tb146 O164 2.500 . S
Tb146 O165 2.473 . S
Tb146 O168 2.324 . S
Eu147 O151 2.292 . S
Eu147 C152 2.852 . S
Eu147 O163 2.324 . S
Eu147 O167 2.326 . S
Eu147 O169 2.500 . S
Eu147 O170 2.473 . S
C148 O145 1.255 . S
C148 O149 1.247 . S
O149 C148 1.247 . S
C150 O162 1.242 . S
C150 O163 1.258 . S
O151 Eu147 2.292 . S
O151 C153 1.255 . S
C152 Eu147 2.852 . S
C152 C156 1.503 . S
C152 O169 1.273 . S
C152 O170 1.257 . S
C153 O151 1.255 . S
C153 O154 1.247 . S
O154 C153 1.247 . S
C155 O167 1.242 . S
C155 O168 1.258 . S
C156 C152 1.503 . S
C156 C157 1.379 . S
C156 C161 1.392 . S
C157 C156 1.379 . S
C157 C158 1.404 . S
C157 H171 0.929 . S
C158 C157 1.404 . S
C158 C159 1.389 . S
C159 C158 1.389 . S
C159 C160 1.399 . S
C159 H172 0.931 . S
C160 C159 1.399 . S
C160 C161 1.390 . S
C161 C156 1.392 . S
C161 C160 1.390 . S
C161 H173 0.929 . S
O162 Tb146 2.326 . S
O162 C150 1.242 . S
O163 Eu147 2.324 . S
O163 C150 1.258 . S
O164 Tb146 2.500 . S
O164 C166 1.273 . S
O165 Tb146 2.473 . S
O165 C166 1.257 . S
C166 O164 1.273 . S
C166 O165 1.257 . S
O167 Eu147 2.326 . S
O167 C155 1.242 . S
O168 Tb146 2.324 . S
O168 C155 1.258 . S
O169 Eu147 2.500 . S
O169 C152 1.273 . S
O170 Eu147 2.473 . S
O170 C152 1.257 . S
H171 C157 0.929 . S
H172 C159 0.931 . S
H173 C161 0.929 . S
O174 Tb175 2.292 . S
O174 C177 1.255 . S
Tb175 O174 2.292 . S
Tb175 O191 2.326 . S
Tb175 O193 2.500 . S
Tb175 O194 2.473 . S
Tb175 O197 2.324 . S
Eu176 O180 2.292 . S
Eu176 C181 2.852 . S
Eu176 O192 2.324 . S
Eu176 O196 2.326 . S
Eu176 O198 2.500 . S
Eu176 O199 2.473 . S
C177 O174 1.255 . S
C177 O178 1.247 . S
O178 C177 1.247 . S
C179 O191 1.242 . S
C179 O192 1.258 . S
O180 Eu176 2.292 . S
O180 C182 1.255 . S
C181 Eu176 2.852 . S
C181 C185 1.503 . S
C181 O198 1.273 . S
C181 O199 1.257 . S
C182 O180 1.255 . S
C182 O183 1.247 . S
O183 C182 1.247 . S
C184 O196 1.242 . S
C184 O197 1.258 . S
C185 C181 1.503 . S
C185 C186 1.379 . S
C185 C190 1.392 . S
C186 C185 1.379 . S
C186 C187 1.404 . S
C186 H200 0.929 . S
C187 C186 1.404 . S
C187 C188 1.389 . S
C188 C187 1.389 . S
C188 C189 1.399 . S
C188 H201 0.931 . S
C189 C188 1.399 . S
C189 C190 1.390 . S
C190 C185 1.392 . S
C190 C189 1.390 . S
C190 H202 0.929 . S
O191 Tb175 2.326 . S
O191 C179 1.242 . S
O192 Eu176 2.324 . S
O192 C179 1.258 . S
O193 Tb175 2.500 . S
O193 C195 1.273 . S
O194 Tb175 2.473 . S
O194 C195 1.257 . S
C195 O193 1.273 . S
C195 O194 1.257 . S
O196 Eu176 2.326 . S
O196 C184 1.242 . S
O197 Tb175 2.324 . S
O197 C184 1.258 . S
O198 Eu176 2.500 . S
O198 C181 1.273 . S
O199 Eu176 2.473 . S
O199 C181 1.257 . S
H200 C186 0.929 . S
H201 C188 0.931 . S
H202 C190 0.929 . S
O203 Tb204 2.292 . S
O203 C206 1.255 . S
Tb204 O203 2.292 . S
Tb204 O220 2.326 . S
Tb204 O222 2.500 . S
Tb204 O223 2.473 . S
Tb204 O226 2.324 . S
Eu205 O209 2.292 . S
Eu205 C210 2.852 . S
Eu205 O221 2.324 . S
Eu205 O225 2.326 . S
Eu205 O227 2.500 . S
Eu205 O228 2.473 . S
C206 O203 1.255 . S
C206 O207 1.247 . S
O207 C206 1.247 . S
C208 O220 1.242 . S
C208 O221 1.258 . S
O209 Eu205 2.292 . S
O209 C211 1.255 . S
C210 Eu205 2.852 . S
C210 C214 1.503 . S
C210 O227 1.273 . S
C210 O228 1.257 . S
C211 O209 1.255 . S
C211 O212 1.247 . S
O212 C211 1.247 . S
C213 O225 1.242 . S
C213 O226 1.258 . S
C214 C210 1.503 . S
C214 C215 1.379 . S
C214 C219 1.392 . S
C215 C214 1.379 . S
C215 C216 1.404 . S
C215 H229 0.929 . S
C216 C215 1.404 . S
C216 C217 1.389 . S
C217 C216 1.389 . S
C217 C218 1.399 . S
C217 H230 0.931 . S
C218 C217 1.399 . S
C218 C219 1.390 . S
C219 C214 1.392 . S
C219 C218 1.390 . S
C219 H231 0.929 . S
O220 Tb204 2.326 . S
O220 C208 1.242 . S
O221 Eu205 2.324 . S
O221 C208 1.258 . S
O222 Tb204 2.500 . S
O222 C224 1.273 . S
O223 Tb204 2.473 . S
O223 C224 1.257 . S
C224 O222 1.273 . S
C224 O223 1.257 . S
O225 Eu205 2.326 . S
O225 C213 1.242 . S
O226 Tb204 2.324 . S
O226 C213 1.258 . S
O227 Eu205 2.500 . S
O227 C210 1.273 . S
O228 Eu205 2.473 . S
O228 C210 1.257 . S
H229 C215 0.929 . S
H230 C217 0.931 . S
H231 C219 0.929 . S
H232 C250 0.951 . S
H233 C252 0.951 . S
H234 C254 0.950 . S
H235 C255 0.950 . S
H236 C257 0.950 . S
H237 C260 0.950 1_554 S
H238 C261 0.950 . S
H239 C263 0.950 . S
H240 C264 0.950 . S
H241 C265 0.951 . S
H242 C267 0.951 . S
H243 C269 0.950 1_556 S
H244 C270 0.950 1_556 S
H245 C272 0.950 1_556 S
H246 C275 0.950 . S
H247 C276 0.950 . S
H248 C278 0.950 . S
H249 C279 0.950 . S
C250 H232 0.951 . S
C250 C251 1.366 . S
C250 C252 1.388 . S
C251 C250 1.366 . S
C251 C255 1.385 1_556 S
C252 H233 0.951 . S
C252 C250 1.388 . S
C252 C253 1.366 1_556 S
C253 C252 1.366 1_554 S
C253 C254 1.414 . S
C253 C256 1.499 . S
C254 H234 0.950 . S
C254 C253 1.414 . S
C254 C255 1.374 . S
C255 H235 0.950 . S
C255 C251 1.385 1_554 S
C255 C254 1.374 . S
C256 C253 1.499 . S
C256 C257 1.373 1_455 S
C256 C258 1.389 1_554 S
C257 H236 0.950 . S
C257 C256 1.373 1_655 S
C257 C273 1.377 . S
C258 C256 1.389 1_556 S
C258 C259 1.524 . S
C258 C272 1.377 1_456 S
C259 C258 1.524 . S
C259 C260 1.397 . S
C259 C264 1.363 . S
C260 H237 0.950 1_556 S
C260 C259 1.397 . S
C260 C261 1.334 . S
C261 H238 0.950 . S
C261 C260 1.334 . S
C261 C262 1.287 . S
C262 C261 1.287 . S
C262 C263 1.524 . S
C262 H281 0.913 . S
C263 H239 0.950 . S
C263 C262 1.524 . S
C263 C264 1.415 . S
C264 H240 0.950 . S
C264 C259 1.363 . S
C264 C263 1.415 . S
C265 H241 0.951 . S
C265 C266 1.366 . S
C265 C267 1.388 . S
C266 C265 1.366 . S
C266 C270 1.385 . S
C267 H242 0.951 . S
C267 C265 1.388 . S
C267 C268 1.366 . S
C268 C267 1.366 . S
C268 C269 1.414 . S
C268 C271 1.499 . S
C269 H243 0.950 1_554 S
C269 C268 1.414 . S
C269 C270 1.374 . S
C270 H244 0.950 1_554 S
C270 C266 1.385 . S
C270 C269 1.374 . S
C271 C268 1.499 . S
C271 C272 1.373 . S
C271 C273 1.389 . S
C272 H245 0.950 1_554 S
C272 C258 1.377 1_654 S
C272 C271 1.373 . S
C273 C257 1.377 . S
C273 C271 1.389 . S
C273 C274 1.524 . S
C274 C273 1.524 . S
C274 C275 1.397 . S
C274 C279 1.363 . S
C275 H246 0.950 . S
C275 C274 1.397 . S
C275 C276 1.334 . S
C276 H247 0.950 . S
C276 C275 1.334 . S
C276 C277 1.287 . S
C277 C276 1.287 . S
C277 C278 1.524 . S
C277 H280 0.999 . S
C278 H248 0.950 . S
C278 C277 1.524 . S
C278 C279 1.415 . S
C279 H249 0.950 . S
C279 C274 1.363 . S
C279 C278 1.415 . S
H280 C277 0.999 . S
H281 C262 0.913 . S
H282 C300 0.951 . S
H283 C302 0.951 . S
H284 C304 0.950 . S
H285 C305 0.950 . S
H286 C307 0.950 . S
H287 C310 0.950 . S
H288 C311 0.950 . S
H289 C313 0.950 . S
H290 C314 0.950 . S
H291 C315 0.951 . S
H292 C317 0.951 . S
H293 C319 0.950 . S
H294 C320 0.950 . S
H295 C322 0.950 . S
H296 C325 0.950 . S
H297 C326 0.950 . S
H298 C328 0.950 . S
H299 C329 0.950 1_565 S
C300 H282 0.951 . S
C300 C301 1.366 . S
C300 C302 1.388 . S
C301 C300 1.366 . S
C301 C305 1.385 1_556 S
C302 H283 0.951 . S
C302 C300 1.388 . S
C302 C303 1.366 1_556 S
C303 C302 1.366 1_554 S
C303 C304 1.414 . S
C303 C306 1.499 . S
C304 H284 0.950 . S
C304 C303 1.414 . S
C304 C305 1.374 . S
C305 H285 0.950 . S
C305 C301 1.385 1_554 S
C305 C304 1.374 . S
C306 C303 1.499 . S
C306 C307 1.373 . S
C306 C308 1.389 1_564 S
C307 H286 0.950 . S
C307 C306 1.373 . S
C307 C323 1.377 1_565 S
C308 C306 1.389 1_546 S
C308 C309 1.524 1_545 S
C308 C322 1.377 . S
C309 C308 1.524 1_565 S
C309 C310 1.397 . S
C309 C314 1.363 1_565 S
C310 H287 0.950 . S
C310 C309 1.397 . S
C310 C311 1.334 . S
C311 H288 0.950 . S
C311 C310 1.334 . S
C311 C312 1.287 . S
C312 C311 1.287 . S
C312 C313 1.524 1_565 S
C312 H331 0.913 . S
C313 H289 0.950 . S
C313 C312 1.524 1_545 S
C313 C314 1.415 . S
C314 H290 0.950 . S
C314 C309 1.363 1_545 S
C314 C313 1.415 . S
C315 H291 0.951 . S
C315 C316 1.366 . S
C315 C317 1.388 . S
C316 C315 1.366 . S
C316 C320 1.385 . S
C317 H292 0.951 . S
C317 C315 1.388 . S
C317 C318 1.366 . S
C318 C317 1.366 . S
C318 C319 1.414 . S
C318 C321 1.499 . S
C319 H293 0.950 . S
C319 C318 1.414 . S
C319 C320 1.374 . S
C320 H294 0.950 . S
C320 C316 1.385 . S
C320 C319 1.374 . S
C321 C318 1.499 . S
C321 C322 1.373 1_554 S
C321 C323 1.389 . S
C322 H295 0.950 . S
C322 C308 1.377 . S
C322 C321 1.373 1_556 S
C323 C307 1.377 1_545 S
C323 C321 1.389 . S
C323 C324 1.524 . S
C324 C323 1.524 . S
C324 C325 1.397 . S
C324 C329 1.363 . S
C325 H296 0.950 . S
C325 C324 1.397 . S
C325 C326 1.334 . S
C326 H297 0.950 . S
C326 C325 1.334 . S
C326 C327 1.287 . S
C327 C326 1.287 . S
C327 C328 1.524 . S
C327 H330 0.999 . S
C328 H298 0.950 . S
C328 C327 1.524 . S
C328 C329 1.415 . S
C329 H299 0.950 1_545 S
C329 C324 1.363 . S
C329 C328 1.415 . S
H330 C327 0.999 . S
H331 C312 0.913 . S
H332 C350 0.951 . S
H333 C352 0.951 . S
H334 C354 0.950 . S
H335 C355 0.950 . S
H336 C357 0.950 . S
H337 C360 0.950 1_455 S
H338 C361 0.950 . S
H339 C363 0.950 . S
H340 C364 0.950 . S
H341 C365 0.951 . S
H342 C367 0.951 . S
H343 C369 0.950 . S
H344 C370 0.950 . S
H345 C372 0.950 . S
H346 C375 0.950 . S
H347 C376 0.950 1_655 S
H348 C378 0.950 . S
H349 C379 0.950 . S
C350 H332 0.951 . S
C350 C351 1.366 . S
C350 C352 1.388 . S
C351 C350 1.366 . S
C351 C355 1.385 . S
C352 H333 0.951 . S
C352 C350 1.388 . S
C352 C353 1.366 . S
C353 C352 1.366 . S
C353 C354 1.414 . S
C353 C356 1.499 . S
C354 H334 0.950 . S
C354 C353 1.414 . S
C354 C355 1.374 . S
C355 H335 0.950 . S
C355 C351 1.385 . S
C355 C354 1.374 . S
C356 C353 1.499 . S
C356 C357 1.373 . S
C356 C358 1.389 1_455 S
C357 H336 0.950 . S
C357 C356 1.373 . S
C357 C373 1.377 . S
C358 C356 1.389 1_655 S
C358 C359 1.524 . S
C358 C372 1.377 . S
C359 C358 1.524 . S
C359 C360 1.397 . S
C359 C364 1.363 . S
C360 H337 0.950 1_655 S
C360 C359 1.397 . S
C360 C361 1.334 . S
C361 H338 0.950 . S
C361 C360 1.334 . S
C361 C362 1.287 . S
C362 C361 1.287 . S
C362 C363 1.524 . S
C362 H381 0.913 . S
C363 H339 0.950 . S
C363 C362 1.524 . S
C363 C364 1.415 . S
C364 H340 0.950 . S
C364 C359 1.363 . S
C364 C363 1.415 . S
C365 H341 0.951 . S
C365 C366 1.366 . S
C365 C367 1.388 . S
C366 C365 1.366 . S
C366 C370 1.385 . S
C367 H342 0.951 . S
C367 C365 1.388 . S
C367 C368 1.366 . S
C368 C367 1.366 . S
C368 C369 1.414 . S
C368 C371 1.499 . S
C369 H343 0.950 . S
C369 C368 1.414 . S
C369 C370 1.374 . S
C370 H344 0.950 . S
C370 C366 1.385 . S
C370 C369 1.374 . S
C371 C368 1.499 . S
C371 C372 1.373 . S
C371 C373 1.389 1_655 S
C372 H345 0.950 . S
C372 C358 1.377 . S
C372 C371 1.373 . S
C373 C357 1.377 . S
C373 C371 1.389 1_455 S
C373 C374 1.524 . S
C374 C373 1.524 . S
C374 C375 1.397 1_455 S
C374 C379 1.363 . S
C375 H346 0.950 . S
C375 C374 1.397 1_655 S
C375 C376 1.334 1_655 S
C376 H347 0.950 1_455 S
C376 C375 1.334 1_455 S
C376 C377 1.287 . S
C377 C376 1.287 . S
C377 C378 1.524 . S
C377 H380 0.999 . S
C378 H348 0.950 . S
C378 C377 1.524 . S
C378 C379 1.415 . S
C379 H349 0.950 . S
C379 C374 1.363 . S
C379 C378 1.415 . S
H380 C377 0.999 . S
H381 C362 0.913 . S
H382 C400 0.951 . S
H383 C402 0.951 . S
H384 C404 0.950 . S
H385 C405 0.950 . S
H386 C407 0.950 . S
H387 C410 0.950 . S
H388 C411 0.950 . S
H389 C413 0.950 . S
H390 C414 0.950 . S
H391 C415 0.951 . S
H392 C417 0.951 . S
H393 C419 0.950 . S
H394 C420 0.950 . S
H395 C422 0.950 . S
H396 C425 0.950 . S
H397 C426 0.950 . S
H398 C428 0.950 . S
H399 C429 0.950 . S
C400 H382 0.951 . S
C400 C401 1.366 . S
C400 C402 1.388 . S
C401 C400 1.366 . S
C401 C405 1.385 . S
C402 H383 0.951 . S
C402 C400 1.388 . S
C402 C403 1.366 . S
C403 C402 1.366 . S
C403 C404 1.414 . S
C403 C406 1.499 . S
C404 H384 0.950 . S
C404 C403 1.414 . S
C404 C405 1.374 . S
C405 H385 0.950 . S
C405 C401 1.385 . S
C405 C404 1.374 . S
C406 C403 1.499 . S
C406 C407 1.373 . S
C406 C408 1.389 . S
C407 H386 0.950 . S
C407 C406 1.373 . S
C407 C423 1.377 1_565 S
C408 C406 1.389 . S
C408 C409 1.524 . S
C408 C422 1.377 . S
C409 C408 1.524 . S
C409 C410 1.397 . S
C409 C414 1.363 . S
C410 H387 0.950 . S
C410 C409 1.397 . S
C410 C411 1.334 . S
C411 H388 0.950 . S
C411 C410 1.334 . S
C411 C412 1.287 . S
C412 C411 1.287 . S
C412 C413 1.524 . S
C412 H431 0.913 . S
C413 H389 0.950 . S
C413 C412 1.524 . S
C413 C414 1.415 . S
C414 H390 0.950 . S
C414 C409 1.363 . S
C414 C413 1.415 . S
C415 H391 0.951 . S
C415 C416 1.366 . S
C415 C417 1.388 . S
C416 C415 1.366 . S
C416 C420 1.385 . S
C417 H392 0.951 . S
C417 C415 1.388 . S
C417 C418 1.366 . S
C418 C417 1.366 . S
C418 C419 1.414 . S
C418 C421 1.499 . S
C419 H393 0.950 . S
C419 C418 1.414 . S
C419 C420 1.374 . S
C420 H394 0.950 . S
C420 C416 1.385 . S
C420 C419 1.374 . S
C421 C418 1.499 . S
C421 C422 1.373 1_545 S
C421 C423 1.389 . S
C422 H395 0.950 . S
C422 C408 1.377 . S
C422 C421 1.373 1_565 S
C423 C407 1.377 1_545 S
C423 C421 1.389 . S
C423 C424 1.524 . S
C424 C423 1.524 . S
C424 C425 1.397 . S
C424 C429 1.363 . S
C425 H396 0.950 . S
C425 C424 1.397 . S
C425 C426 1.334 . S
C426 H397 0.950 . S
C426 C425 1.334 . S
C426 C427 1.287 . S
C427 C426 1.287 . S
C427 C428 1.524 . S
C427 H430 0.999 . S
C428 H398 0.950 . S
C428 C427 1.524 . S
C428 C429 1.415 . S
C429 H399 0.950 . S
C429 C424 1.363 . S
C429 C428 1.415 . S
H430 C427 0.999 . S
H431 C412 0.913 . S
H432 C450 0.951 . S
H433 C452 0.951 . S
H434 C454 0.950 . S
H435 C455 0.950 . S
H436 C457 0.950 . S
H437 C460 0.950 . S
H438 C461 0.950 . S
H439 C463 0.950 . S
H440 C464 0.950 . S
H441 C465 0.951 . S
H442 C467 0.951 . S
H443 C469 0.950 . S
H444 C470 0.950 . S
H445 C472 0.950 . S
H446 C475 0.950 . S
H447 C476 0.950 . S
H448 C478 0.950 . S
H449 C479 0.950 . S
C450 H432 0.951 . S
C450 C451 1.366 . S
C450 C452 1.388 . S
C451 C450 1.366 . S
C451 C455 1.385 . S
C452 H433 0.951 . S
C452 C450 1.388 . S
C452 C453 1.366 . S
C453 C452 1.366 . S
C453 C454 1.414 . S
C453 C456 1.499 . S
C454 H434 0.950 . S
C454 C453 1.414 . S
C454 C455 1.374 . S
C455 H435 0.950 . S
C455 C451 1.385 . S
C455 C454 1.374 . S
C456 C453 1.499 . S
C456 C457 1.373 . S
C456 C458 1.389 . S
C457 H436 0.950 . S
C457 C456 1.373 . S
C457 C473 1.377 . S
C458 C456 1.389 . S
C458 C459 1.524 . S
C458 C472 1.377 . S
C459 C458 1.524 . S
C459 C460 1.397 . S
C459 C464 1.363 . S
C460 H437 0.950 . S
C460 C459 1.397 . S
C460 C461 1.334 . S
C461 H438 0.950 . S
C461 C460 1.334 . S
C461 C462 1.287 . S
C462 C461 1.287 . S
C462 C463 1.524 . S
C462 H481 0.913 . S
C463 H439 0.950 . S
C463 C462 1.524 . S
C463 C464 1.415 . S
C464 H440 0.950 . S
C464 C459 1.363 . S
C464 C463 1.415 . S
C465 H441 0.951 . S
C465 C466 1.366 . S
C465 C467 1.388 . S
C466 C465 1.366 . S
C466 C470 1.385 . S
C467 H442 0.951 . S
C467 C465 1.388 . S
C467 C468 1.366 . S
C468 C467 1.366 . S
C468 C469 1.414 . S
C468 C471 1.499 . S
C469 H443 0.950 . S
C469 C468 1.414 . S
C469 C470 1.374 . S
C470 H444 0.950 . S
C470 C466 1.385 . S
C470 C469 1.374 . S
C471 C468 1.499 . S
C471 C472 1.373 . S
C471 C473 1.389 . S
C472 H445 0.950 . S
C472 C458 1.377 . S
C472 C471 1.373 . S
C473 C457 1.377 . S
C473 C471 1.389 . S
C473 C474 1.524 . S
C474 C473 1.524 . S
C474 C475 1.397 . S
C474 C479 1.363 . S
C475 H446 0.950 . S
C475 C474 1.397 . S
C475 C476 1.334 . S
C476 H447 0.950 . S
C476 C475 1.334 . S
C476 C477 1.287 . S
C477 C476 1.287 . S
C477 C478 1.524 . S
C477 H480 0.999 . S
C478 H448 0.950 . S
C478 C477 1.524 . S
C478 C479 1.415 . S
C479 H449 0.950 . S
C479 C474 1.363 . S
C479 C478 1.415 . S
H480 C477 0.999 . S
H481 C462 0.913 . S
H482 C500 0.951 . S
H483 C502 0.951 . S
H484 C504 0.950 . S
H485 C505 0.950 . S
H486 C507 0.950 . S
H487 C510 0.950 . S
H488 C511 0.950 . S
H489 C513 0.950 . S
H490 C514 0.950 . S
H491 C515 0.951 . S
H492 C517 0.951 . S
H493 C519 0.950 . S
H494 C520 0.950 . S
H495 C522 0.950 . S
H496 C525 0.950 . S
H497 C526 0.950 . S
H498 C528 0.950 . S
H499 C529 0.950 . S
C500 H482 0.951 . S
C500 C501 1.366 . S
C500 C502 1.388 . S
C501 C500 1.366 . S
C501 C505 1.385 . S
C502 H483 0.951 . S
C502 C500 1.388 . S
C502 C503 1.366 . S
C503 C502 1.366 . S
C503 C504 1.414 . S
C503 C506 1.499 . S
C504 H484 0.950 . S
C504 C503 1.414 . S
C504 C505 1.374 . S
C505 H485 0.950 . S
C505 C501 1.385 . S
C505 C504 1.374 . S
C506 C503 1.499 . S
C506 C507 1.373 . S
C506 C508 1.389 . S
C507 H486 0.950 . S
C507 C506 1.373 . S
C507 C523 1.377 . S
C508 C506 1.389 . S
C508 C509 1.524 . S
C508 C522 1.377 . S
C509 C508 1.524 . S
C509 C510 1.397 . S
C509 C514 1.363 . S
C510 H487 0.950 . S
C510 C509 1.397 . S
C510 C511 1.334 . S
C511 H488 0.950 . S
C511 C510 1.334 . S
C511 C512 1.287 . S
C512 C511 1.287 . S
C512 C513 1.524 . S
C512 H531 0.913 . S
C513 H489 0.950 . S
C513 C512 1.524 . S
C513 C514 1.415 . S
C514 H490 0.950 . S
C514 C509 1.363 . S
C514 C513 1.415 . S
C515 H491 0.951 . S
C515 C516 1.366 . S
C515 C517 1.388 . S
C516 C515 1.366 . S
C516 C520 1.385 . S
C517 H492 0.951 . S
C517 C515 1.388 . S
C517 C518 1.366 . S
C518 C517 1.366 . S
C518 C519 1.414 . S
C518 C521 1.499 . S
C519 H493 0.950 . S
C519 C518 1.414 . S
C519 C520 1.374 . S
C520 H494 0.950 . S
C520 C516 1.385 . S
C520 C519 1.374 . S
C521 C518 1.499 . S
C521 C522 1.373 . S
C521 C523 1.389 . S
C522 H495 0.950 . S
C522 C508 1.377 . S
C522 C521 1.373 . S
C523 C507 1.377 . S
C523 C521 1.389 . S
C523 C524 1.524 . S
C524 C523 1.524 . S
C524 C525 1.397 . S
C524 C529 1.363 . S
C525 H496 0.950 . S
C525 C524 1.397 . S
C525 C526 1.334 . S
C526 H497 0.950 . S
C526 C525 1.334 . S
C526 C527 1.287 . S
C527 C526 1.287 . S
C527 C528 1.524 . S
C527 H530 0.999 . S
C528 H498 0.950 . S
C528 C527 1.524 . S
C528 C529 1.415 . S
C529 H499 0.950 . S
C529 C524 1.363 . S
C529 C528 1.415 . S
H530 C527 0.999 . S
H531 C512 0.913 . S
H532 C550 0.951 . S
H533 C552 0.951 . S
H534 C554 0.950 . S
H535 C555 0.950 . S
H536 C557 0.950 . S
H537 C560 0.950 . S
H538 C561 0.950 . S
H539 C563 0.950 . S
H540 C564 0.950 . S
H541 C565 0.951 . S
H542 C567 0.951 . S
H543 C569 0.950 . S
H544 C570 0.950 . S
H545 C572 0.950 . S
H546 C575 0.950 . S
H547 C576 0.950 . S
H548 C578 0.950 . S
H549 C579 0.950 . S
C550 H532 0.951 . S
C550 C551 1.366 . S
C550 C552 1.388 . S
C551 C550 1.366 . S
C551 C555 1.385 . S
C552 H533 0.951 . S
C552 C550 1.388 . S
C552 C553 1.366 . S
C553 C552 1.366 . S
C553 C554 1.414 . S
C553 C556 1.499 . S
C554 H534 0.950 . S
C554 C553 1.414 . S
C554 C555 1.374 . S
C555 H535 0.950 . S
C555 C551 1.385 . S
C555 C554 1.374 . S
C556 C553 1.499 . S
C556 C557 1.373 . S
C556 C558 1.389 . S
C557 H536 0.950 . S
C557 C556 1.373 . S
C557 C573 1.377 . S
C558 C556 1.389 . S
C558 C559 1.524 . S
C558 C572 1.377 . S
C559 C558 1.524 . S
C559 C560 1.397 . S
C559 C564 1.363 . S
C560 H537 0.950 . S
C560 C559 1.397 . S
C560 C561 1.334 . S
C561 H538 0.950 . S
C561 C560 1.334 . S
C561 C562 1.287 . S
C562 C561 1.287 . S
C562 C563 1.524 . S
C562 H581 0.913 . S
C563 H539 0.950 . S
C563 C562 1.524 . S
C563 C564 1.415 . S
C564 H540 0.950 . S
C564 C559 1.363 . S
C564 C563 1.415 . S
C565 H541 0.951 . S
C565 C566 1.366 . S
C565 C567 1.388 . S
C566 C565 1.366 . S
C566 C570 1.385 . S
C567 H542 0.951 . S
C567 C565 1.388 . S
C567 C568 1.366 . S
C568 C567 1.366 . S
C568 C569 1.414 . S
C568 C571 1.499 . S
C569 H543 0.950 . S
C569 C568 1.414 . S
C569 C570 1.374 . S
C570 H544 0.950 . S
C570 C566 1.385 . S
C570 C569 1.374 . S
C571 C568 1.499 . S
C571 C572 1.373 . S
C571 C573 1.389 . S
C572 H545 0.950 . S
C572 C558 1.377 . S
C572 C571 1.373 . S
C573 C557 1.377 . S
C573 C571 1.389 . S
C573 C574 1.524 . S
C574 C573 1.524 . S
C574 C575 1.397 . S
C574 C579 1.363 . S
C575 H546 0.950 . S
C575 C574 1.397 . S
C575 C576 1.334 . S
C576 H547 0.950 . S
C576 C575 1.334 . S
C576 C577 1.287 . S
C577 C576 1.287 . S
C577 C578 1.524 . S
C577 H580 0.999 . S
C578 H548 0.950 . S
C578 C577 1.524 . S
C578 C579 1.415 . S
C579 H549 0.950 . S
C579 C574 1.363 . S
C579 C578 1.415 . S
H580 C577 0.999 . S
H581 C562 0.913 . S
H582 C600 0.951 . S
H583 C602 0.951 . S
H584 C604 0.950 . S
H585 C605 0.950 . S
H586 C607 0.950 . S
H587 C610 0.950 . S
H588 C611 0.950 . S
H589 C613 0.950 . S
H590 C614 0.950 . S
H591 C615 0.951 . S
H592 C617 0.951 . S
H593 C619 0.950 . S
H594 C620 0.950 . S
H595 C622 0.950 . S
H596 C625 0.950 . S
H597 C626 0.950 . S
H598 C628 0.950 . S
H599 C629 0.950 . S
C600 H582 0.951 . S
C600 C601 1.366 . S
C600 C602 1.388 . S
C601 C600 1.366 . S
C601 C605 1.385 . S
C602 H583 0.951 . S
C602 C600 1.388 . S
C602 C603 1.366 . S
C603 C602 1.366 . S
C603 C604 1.414 . S
C603 C606 1.499 . S
C604 H584 0.950 . S
C604 C603 1.414 . S
C604 C605 1.374 . S
C605 H585 0.950 . S
C605 C601 1.385 . S
C605 C604 1.374 . S
C606 C603 1.499 . S
C606 C607 1.373 . S
C606 C608 1.389 . S
C607 H586 0.950 . S
C607 C606 1.373 . S
C607 C623 1.377 . S
C608 C606 1.389 . S
C608 C609 1.524 . S
C608 C622 1.377 . S
C609 C608 1.524 . S
C609 C610 1.397 . S
C609 C614 1.363 . S
C610 H587 0.950 . S
C610 C609 1.397 . S
C610 C611 1.334 . S
C611 H588 0.950 . S
C611 C610 1.334 . S
C611 C612 1.287 . S
C612 C611 1.287 . S
C612 C613 1.524 . S
C612 H631 0.913 . S
C613 H589 0.950 . S
C613 C612 1.524 . S
C613 C614 1.415 . S
C614 H590 0.950 . S
C614 C609 1.363 . S
C614 C613 1.415 . S
C615 H591 0.951 . S
C615 C616 1.366 . S
C615 C617 1.388 . S
C616 C615 1.366 . S
C616 C620 1.385 . S
C617 H592 0.951 . S
C617 C615 1.388 . S
C617 C618 1.366 . S
C618 C617 1.366 . S
C618 C619 1.414 . S
C618 C621 1.499 . S
C619 H593 0.950 . S
C619 C618 1.414 . S
C619 C620 1.374 . S
C620 H594 0.950 . S
C620 C616 1.385 . S
C620 C619 1.374 . S
C621 C618 1.499 . S
C621 C622 1.373 . S
C621 C623 1.389 . S
C622 H595 0.950 . S
C622 C608 1.377 . S
C622 C621 1.373 . S
C623 C607 1.377 . S
C623 C621 1.389 . S
C623 C624 1.524 . S
C624 C623 1.524 . S
C624 C625 1.397 . S
C624 C629 1.363 . S
C625 H596 0.950 . S
C625 C624 1.397 . S
C625 C626 1.334 . S
C626 H597 0.950 . S
C626 C625 1.334 . S
C626 C627 1.287 . S
C627 C626 1.287 . S
C627 C628 1.524 . S
C627 H630 0.999 . S
C628 H598 0.950 . S
C628 C627 1.524 . S
C628 C629 1.415 . S
C629 H599 0.950 . S
C629 C624 1.363 . S
C629 C628 1.415 . S
H630 C627 0.999 . S
H631 C612 0.913 . S
H632 C650 0.951 . S
H633 C652 0.951 . S
H634 C654 0.950 . S
H635 C655 0.950 . S
H636 C657 0.950 . S
H637 C660 0.950 . S
H638 C661 0.950 . S
H639 C663 0.950 . S
H640 C664 0.950 . S
H641 C665 0.951 . S
H642 C667 0.951 . S
H643 C669 0.950 . S
H644 C670 0.950 . S
H645 C672 0.950 . S
H646 C675 0.950 . S
H647 C676 0.950 . S
H648 C678 0.950 . S
H649 C679 0.950 . S
C650 H632 0.951 . S
C650 C651 1.366 . S
C650 C652 1.388 . S
C651 C650 1.366 . S
C651 C655 1.385 . S
C652 H633 0.951 . S
C652 C650 1.388 . S
C652 C653 1.366 . S
C653 C652 1.366 . S
C653 C654 1.414 . S
C653 C656 1.499 . S
C654 H634 0.950 . S
C654 C653 1.414 . S
C654 C655 1.374 . S
C655 H635 0.950 . S
C655 C651 1.385 . S
C655 C654 1.374 . S
C656 C653 1.499 . S
C656 C657 1.373 . S
C656 C658 1.389 . S
C657 H636 0.950 . S
C657 C656 1.373 . S
C657 C673 1.377 . S
C658 C656 1.389 . S
C658 C659 1.524 . S
C658 C672 1.377 . S
C659 C658 1.524 . S
C659 C660 1.397 . S
C659 C664 1.363 . S
C660 H637 0.950 . S
C660 C659 1.397 . S
C660 C661 1.334 . S
C661 H638 0.950 . S
C661 C660 1.334 . S
C661 C662 1.287 . S
C662 C661 1.287 . S
C662 C663 1.524 . S
C662 H681 0.913 . S
C663 H639 0.950 . S
C663 C662 1.524 . S
C663 C664 1.415 . S
C664 H640 0.950 . S
C664 C659 1.363 . S
C664 C663 1.415 . S
C665 H641 0.951 . S
C665 C666 1.366 . S
C665 C667 1.388 . S
C666 C665 1.366 . S
C666 C670 1.385 . S
C667 H642 0.951 . S
C667 C665 1.388 . S
C667 C668 1.366 . S
C668 C667 1.366 . S
C668 C669 1.414 . S
C668 C671 1.499 . S
C669 H643 0.950 . S
C669 C668 1.414 . S
C669 C670 1.374 . S
C670 H644 0.950 . S
C670 C666 1.385 . S
C670 C669 1.374 . S
C671 C668 1.499 . S
C671 C672 1.373 . S
C671 C673 1.389 . S
C672 H645 0.950 . S
C672 C658 1.377 . S
C672 C671 1.373 . S
C673 C657 1.377 . S
C673 C671 1.389 . S
C673 C674 1.524 . S
C674 C673 1.524 . S
C674 C675 1.397 . S
C674 C679 1.363 . S
C675 H646 0.950 . S
C675 C674 1.397 . S
C675 C676 1.334 . S
C676 H647 0.950 . S
C676 C675 1.334 . S
C676 C677 1.287 . S
C677 C676 1.287 . S
C677 C678 1.524 . S
C677 H680 0.999 . S
C678 H648 0.950 . S
C678 C677 1.524 . S
C678 C679 1.415 . S
C679 H649 0.950 . S
C679 C674 1.363 . S
C679 C678 1.415 . S
H680 C677 0.999 . S
H681 C662 0.913 . S
H682 C700 0.951 . S
H683 C702 0.951 . S
H684 C704 0.950 . S
H685 C705 0.950 . S
H686 C707 0.950 . S
H687 C710 0.950 . S
H688 C711 0.950 . S
H689 C713 0.950 . S
H690 C714 0.950 . S
H691 C715 0.951 . S
H692 C717 0.951 . S
H693 C719 0.950 . S
H694 C720 0.950 . S
H695 C722 0.950 . S
H696 C725 0.950 . S
H697 C726 0.950 . S
H698 C728 0.950 . S
H699 C729 0.950 . S
C700 H682 0.951 . S
C700 C701 1.366 . S
C700 C702 1.388 . S
C701 C700 1.366 . S
C701 C705 1.385 . S
C702 H683 0.951 . S
C702 C700 1.388 . S
C702 C703 1.366 . S
C703 C702 1.366 . S
C703 C704 1.414 . S
C703 C706 1.499 . S
C704 H684 0.950 . S
C704 C703 1.414 . S
C704 C705 1.374 . S
C705 H685 0.950 . S
C705 C701 1.385 . S
C705 C704 1.374 . S
C706 C703 1.499 . S
C706 C707 1.373 . S
C706 C708 1.389 . S
C707 H686 0.950 . S
C707 C706 1.373 . S
C707 C723 1.377 . S
C708 C706 1.389 . S
C708 C709 1.524 . S
C708 C722 1.377 . S
C709 C708 1.524 . S
C709 C710 1.397 . S
C709 C714 1.363 . S
C710 H687 0.950 . S
C710 C709 1.397 . S
C710 C711 1.334 . S
C711 H688 0.950 . S
C711 C710 1.334 . S
C711 C712 1.287 . S
C712 C711 1.287 . S
C712 C713 1.524 . S
C712 H731 0.913 . S
C713 H689 0.950 . S
C713 C712 1.524 . S
C713 C714 1.415 . S
C714 H690 0.950 . S
C714 C709 1.363 . S
C714 C713 1.415 . S
C715 H691 0.951 . S
C715 C716 1.366 . S
C715 C717 1.388 . S
C716 C715 1.366 . S
C716 C720 1.385 . S
C717 H692 0.951 . S
C717 C715 1.388 . S
C717 C718 1.366 . S
C718 C717 1.366 . S
C718 C719 1.414 . S
C718 C721 1.499 . S
C719 H693 0.950 . S
C719 C718 1.414 . S
C719 C720 1.374 . S
C720 H694 0.950 . S
C720 C716 1.385 . S
C720 C719 1.374 . S
C721 C718 1.499 . S
C721 C722 1.373 . S
C721 C723 1.389 . S
C722 H695 0.950 . S
C722 C708 1.377 . S
C722 C721 1.373 . S
C723 C707 1.377 . S
C723 C721 1.389 . S
C723 C724 1.524 . S
C724 C723 1.524 . S
C724 C725 1.397 . S
C724 C729 1.363 . S
C725 H696 0.950 . S
C725 C724 1.397 . S
C725 C726 1.334 . S
C726 H697 0.950 . S
C726 C725 1.334 . S
C726 C727 1.287 . S
C727 C726 1.287 . S
C727 C728 1.524 . S
C727 H730 0.999 . S
C728 H698 0.950 . S
C728 C727 1.524 . S
C728 C729 1.415 . S
C729 H699 0.950 . S
C729 C724 1.363 . S
C729 C728 1.415 . S
H730 C727 0.999 . S
H731 C712 0.913 . S
H732 C750 0.951 . S
H733 C752 0.951 . S
H734 C754 0.950 . S
H735 C755 0.950 . S
H736 C757 0.950 . S
H737 C760 0.950 . S
H738 C761 0.950 . S
H739 C763 0.950 . S
H740 C764 0.950 . S
H741 C765 0.951 . S
H742 C767 0.951 . S
H743 C769 0.950 . S
H744 C770 0.950 . S
H745 C772 0.950 . S
H746 C775 0.950 . S
H747 C776 0.950 . S
H748 C778 0.950 . S
H749 C779 0.950 . S
C750 H732 0.951 . S
C750 C751 1.366 . S
C750 C752 1.388 . S
C751 C750 1.366 . S
C751 C755 1.385 . S
C752 H733 0.951 . S
C752 C750 1.388 . S
C752 C753 1.366 . S
C753 C752 1.366 . S
C753 C754 1.414 . S
C753 C756 1.499 . S
C754 H734 0.950 . S
C754 C753 1.414 . S
C754 C755 1.374 . S
C755 H735 0.950 . S
C755 C751 1.385 . S
C755 C754 1.374 . S
C756 C753 1.499 . S
C756 C757 1.373 . S
C756 C758 1.389 . S
C757 H736 0.950 . S
C757 C756 1.373 . S
C757 C773 1.377 . S
C758 C756 1.389 . S
C758 C759 1.524 . S
C758 C772 1.377 . S
C759 C758 1.524 . S
C759 C760 1.397 . S
C759 C764 1.363 . S
C760 H737 0.950 . S
C760 C759 1.397 . S
C760 C761 1.334 . S
C761 H738 0.950 . S
C761 C760 1.334 . S
C761 C762 1.287 . S
C762 C761 1.287 . S
C762 C763 1.524 . S
C762 H781 0.913 . S
C763 H739 0.950 . S
C763 C762 1.524 . S
C763 C764 1.415 . S
C764 H740 0.950 . S
C764 C759 1.363 . S
C764 C763 1.415 . S
C765 H741 0.951 . S
C765 C766 1.366 . S
C765 C767 1.388 . S
C766 C765 1.366 . S
C766 C770 1.385 . S
C767 H742 0.951 . S
C767 C765 1.388 . S
C767 C768 1.366 . S
C768 C767 1.366 . S
C768 C769 1.414 . S
C768 C771 1.499 . S
C769 H743 0.950 . S
C769 C768 1.414 . S
C769 C770 1.374 . S
C770 H744 0.950 . S
C770 C766 1.385 . S
C770 C769 1.374 . S
C771 C768 1.499 . S
C771 C772 1.373 . S
C771 C773 1.389 . S
C772 H745 0.950 . S
C772 C758 1.377 . S
C772 C771 1.373 . S
C773 C757 1.377 . S
C773 C771 1.389 . S
C773 C774 1.524 . S
C774 C773 1.524 . S
C774 C775 1.397 . S
C774 C779 1.363 . S
C775 H746 0.950 . S
C775 C774 1.397 . S
C775 C776 1.334 . S
C776 H747 0.950 . S
C776 C775 1.334 . S
C776 C777 1.287 . S
C777 C776 1.287 . S
C777 C778 1.524 . S
C777 H780 0.999 . S
C778 H748 0.950 . S
C778 C777 1.524 . S
C778 C779 1.415 . S
C779 H749 0.950 . S
C779 C774 1.363 . S
C779 C778 1.415 . S
H780 C777 0.999 . S
H781 C762 0.913 . S
H782 C800 0.951 . S
H783 C802 0.951 . S
H784 C804 0.950 . S
H785 C805 0.950 . S
H786 C807 0.950 . S
H787 C810 0.950 . S
H788 C811 0.950 . S
H789 C813 0.950 . S
H790 C814 0.950 . S
H791 C815 0.951 . S
H792 C817 0.951 . S
H793 C819 0.950 . S
H794 C820 0.950 . S
H795 C822 0.950 . S
H796 C825 0.950 . S
H797 C826 0.950 . S
H798 C828 0.950 . S
H799 C829 0.950 . S
C800 H782 0.951 . S
C800 C801 1.366 . S
C800 C802 1.388 . S
C801 C800 1.366 . S
C801 C805 1.385 . S
C802 H783 0.951 . S
C802 C800 1.388 . S
C802 C803 1.366 . S
C803 C802 1.366 . S
C803 C804 1.414 . S
C803 C806 1.499 . S
C804 H784 0.950 . S
C804 C803 1.414 . S
C804 C805 1.374 . S
C805 H785 0.950 . S
C805 C801 1.385 . S
C805 C804 1.374 . S
C806 C803 1.499 . S
C806 C807 1.373 . S
C806 C808 1.389 . S
C807 H786 0.950 . S
C807 C806 1.373 . S
C807 C823 1.377 . S
C808 C806 1.389 . S
C808 C809 1.524 . S
C808 C822 1.377 . S
C809 C808 1.524 . S
C809 C810 1.397 . S
C809 C814 1.363 . S
C810 H787 0.950 . S
C810 C809 1.397 . S
C810 C811 1.334 . S
C811 H788 0.950 . S
C811 C810 1.334 . S
C811 C812 1.287 . S
C812 C811 1.287 . S
C812 C813 1.524 . S
C812 H831 0.913 . S
C813 H789 0.950 . S
C813 C812 1.524 . S
C813 C814 1.415 . S
C814 H790 0.950 . S
C814 C809 1.363 . S
C814 C813 1.415 . S
C815 H791 0.951 . S
C815 C816 1.366 . S
C815 C817 1.388 . S
C816 C815 1.366 . S
C816 C820 1.385 . S
C817 H792 0.951 . S
C817 C815 1.388 . S
C817 C818 1.366 . S
C818 C817 1.366 . S
C818 C819 1.414 . S
C818 C821 1.499 . S
C819 H793 0.950 . S
C819 C818 1.414 . S
C819 C820 1.374 . S
C820 H794 0.950 . S
C820 C816 1.385 . S
C820 C819 1.374 . S
C821 C818 1.499 . S
C821 C822 1.373 . S
C821 C823 1.389 . S
C822 H795 0.950 . S
C822 C808 1.377 . S
C822 C821 1.373 . S
C823 C807 1.377 . S
C823 C821 1.389 . S
C823 C824 1.524 . S
C824 C823 1.524 . S
C824 C825 1.397 . S
C824 C829 1.363 . S
C825 H796 0.950 . S
C825 C824 1.397 . S
C825 C826 1.334 . S
C826 H797 0.950 . S
C826 C825 1.334 . S
C826 C827 1.287 . S
C827 C826 1.287 . S
C827 C828 1.524 . S
C827 H830 0.999 1_556 S
C828 H798 0.950 . S
C828 C827 1.524 . S
C828 C829 1.415 . S
C829 H799 0.950 . S
C829 C824 1.363 . S
C829 C828 1.415 . S
H830 C827 0.999 1_554 S
H831 C812 0.913 . S
H832 C850 0.951 . S
H833 C852 0.951 . S
H834 C854 0.950 . S
H835 C855 0.950 . S
H836 C857 0.950 . S
H837 C860 0.950 . S
H838 C861 0.950 . S
H839 C863 0.950 . S
H840 C864 0.950 . S
H841 C865 0.951 . S
H842 C867 0.951 . S
H843 C869 0.950 . S
H844 C870 0.950 . S
H845 C872 0.950 . S
H846 C875 0.950 . S
H847 C876 0.950 . S
H848 C878 0.950 . S
H849 C879 0.950 . S
C850 H832 0.951 . S
C850 C851 1.366 . S
C850 C852 1.388 . S
C851 C850 1.366 . S
C851 C855 1.385 . S
C852 H833 0.951 . S
C852 C850 1.388 . S
C852 C853 1.366 . S
C853 C852 1.366 . S
C853 C854 1.414 . S
C853 C856 1.499 . S
C854 H834 0.950 . S
C854 C853 1.414 . S
C854 C855 1.374 . S
C855 H835 0.950 . S
C855 C851 1.385 . S
C855 C854 1.374 . S
C856 C853 1.499 . S
C856 C857 1.373 . S
C856 C858 1.389 . S
C857 H836 0.950 . S
C857 C856 1.373 . S
C857 C873 1.377 1_565 S
C858 C856 1.389 . S
C858 C859 1.524 . S
C858 C872 1.377 1_565 S
C859 C858 1.524 . S
C859 C860 1.397 . S
C859 C864 1.363 1_565 S
C860 H837 0.950 . S
C860 C859 1.397 . S
C860 C861 1.334 . S
C861 H838 0.950 . S
C861 C860 1.334 . S
C861 C862 1.287 . S
C862 C861 1.287 . S
C862 C863 1.524 1_565 S
C862 H881 0.913 . S
C863 H839 0.950 . S
C863 C862 1.524 1_545 S
C863 C864 1.415 . S
C864 H840 0.950 . S
C864 C859 1.363 1_545 S
C864 C863 1.415 . S
C865 H841 0.951 . S
C865 C866 1.366 . S
C865 C867 1.388 . S
C866 C865 1.366 . S
C866 C870 1.385 . S
C867 H842 0.951 . S
C867 C865 1.388 . S
C867 C868 1.366 . S
C868 C867 1.366 . S
C868 C869 1.414 . S
C868 C871 1.499 . S
C869 H843 0.950 . S
C869 C868 1.414 . S
C869 C870 1.374 . S
C870 H844 0.950 . S
C870 C866 1.385 . S
C870 C869 1.374 . S
C871 C868 1.499 . S
C871 C872 1.373 . S
C871 C873 1.389 . S
C872 H845 0.950 . S
C872 C858 1.377 1_545 S
C872 C871 1.373 . S
C873 C857 1.377 1_545 S
C873 C871 1.389 . S
C873 C874 1.524 . S
C874 C873 1.524 . S
C874 C875 1.397 . S
C874 C879 1.363 1_545 S
C875 H846 0.950 . S
C875 C874 1.397 . S
C875 C876 1.334 . S
C876 H847 0.950 . S
C876 C875 1.334 . S
C876 C877 1.287 . S
C877 C876 1.287 . S
C877 C878 1.524 1_545 S
C877 H880 0.999 . S
C878 H848 0.950 . S
C878 C877 1.524 1_565 S
C878 C879 1.415 . S
C879 H849 0.950 . S
C879 C874 1.363 1_565 S
C879 C878 1.415 . S
H880 C877 0.999 . S
H881 C862 0.913 . S
H882 C900 0.951 . S
H883 C902 0.951 . S
H884 C904 0.950 . S
H885 C905 0.950 . S
H886 C907 0.950 . S
H887 C910 0.950 . S
H888 C911 0.950 . S
H889 C913 0.950 . S
H890 C914 0.950 . S
H891 C915 0.951 . S
H892 C917 0.951 . S
H893 C919 0.950 . S
H894 C920 0.950 . S
H895 C922 0.950 . S
H896 C925 0.950 . S
H897 C926 0.950 . S
H898 C928 0.950 . S
H899 C929 0.950 . S
C900 H882 0.951 . S
C900 C901 1.366 . S
C900 C902 1.388 . S
C901 C900 1.366 . S
C901 C905 1.385 . S
C902 H883 0.951 . S
C902 C900 1.388 . S
C902 C903 1.366 . S
C903 C902 1.366 . S
C903 C904 1.414 . S
C903 C906 1.499 . S
C904 H884 0.950 . S
C904 C903 1.414 . S
C904 C905 1.374 . S
C905 H885 0.950 . S
C905 C901 1.385 . S
C905 C904 1.374 . S
C906 C903 1.499 . S
C906 C907 1.373 . S
C906 C908 1.389 . S
C907 H886 0.950 . S
C907 C906 1.373 . S
C907 C923 1.377 . S
C908 C906 1.389 . S
C908 C909 1.524 . S
C908 C922 1.377 1_455 S
C909 C908 1.524 . S
C909 C910 1.397 . S
C909 C914 1.363 1_455 S
C910 H887 0.950 . S
C910 C909 1.397 . S
C910 C911 1.334 . S
C911 H888 0.950 . S
C911 C910 1.334 . S
C911 C912 1.287 . S
C912 C911 1.287 . S
C912 C913 1.524 1_455 S
C912 H931 0.913 . S
C913 H889 0.950 . S
C913 C912 1.524 1_655 S
C913 C914 1.415 . S
C914 H890 0.950 . S
C914 C909 1.363 1_655 S
C914 C913 1.415 . S
C915 H891 0.951 . S
C915 C916 1.366 . S
C915 C917 1.388 . S
C916 C915 1.366 . S
C916 C920 1.385 . S
C917 H892 0.951 . S
C917 C915 1.388 . S
C917 C918 1.366 . S
C918 C917 1.366 . S
C918 C919 1.414 . S
C918 C921 1.499 . S
C919 H893 0.950 . S
C919 C918 1.414 . S
C919 C920 1.374 . S
C920 H894 0.950 . S
C920 C916 1.385 . S
C920 C919 1.374 . S
C921 C918 1.499 . S
C921 C922 1.373 . S
C921 C923 1.389 1_655 S
C922 H895 0.950 . S
C922 C908 1.377 1_655 S
C922 C921 1.373 . S
C923 C907 1.377 . S
C923 C921 1.389 1_455 S
C923 C924 1.524 . S
C924 C923 1.524 . S
C924 C925 1.397 1_455 S
C924 C929 1.363 . S
C925 H896 0.950 . S
C925 C924 1.397 1_655 S
C925 C926 1.334 . S
C926 H897 0.950 . S
C926 C925 1.334 . S
C926 C927 1.287 1_655 S
C927 C926 1.287 1_455 S
C927 C928 1.524 . S
C927 H930 0.999 . S
C928 H898 0.950 . S
C928 C927 1.524 . S
C928 C929 1.415 . S
C929 H899 0.950 . S
C929 C924 1.363 . S
C929 C928 1.415 . S
H930 C927 0.999 . S
H931 C912 0.913 . S
H932 C950 0.951 . S
H933 C952 0.951 . S
H934 C954 0.950 . S
H935 C955 0.950 . S
H936 C957 0.954 . S
H937 C960 0.950 . S
H938 C961 0.950 . S
H939 C963 0.950 . S
H940 C964 0.950 . S
H941 C965 0.951 . S
H942 C967 0.951 . S
H943 C969 0.950 . S
H944 C970 0.950 . S
H945 C972 0.954 . S
H946 C975 0.950 . S
H947 C976 0.950 . S
H948 C978 0.950 . S
H949 C979 0.950 . S
C950 H932 0.951 . S
C950 C951 1.366 . S
C950 C952 1.388 . S
C951 C950 1.366 . S
C951 C955 1.385 . S
C952 H933 0.951 . S
C952 C950 1.388 . S
C952 C953 1.366 . S
C953 C952 1.366 . S
C953 C954 1.414 . S
C953 C956 1.499 . S
C954 H934 0.950 . S
C954 C953 1.414 . S
C954 C955 1.374 . S
C955 H935 0.950 . S
C955 C951 1.385 . S
C955 C954 1.374 . S
C956 C953 1.499 . S
C956 C957 1.368 1_545 S
C956 C958 1.389 . S
C957 H936 0.954 . S
C957 C956 1.368 1_565 S
C957 C973 1.383 . S
C958 C956 1.389 . S
C958 C959 1.524 . S
C958 C972 1.382 . S
C959 C958 1.524 . S
C959 C960 1.397 . S
C959 C964 1.363 . S
C960 H937 0.950 . S
C960 C959 1.397 . S
C960 C961 1.334 . S
C961 H938 0.950 . S
C961 C960 1.334 . S
C961 C962 1.287 . S
C962 C961 1.287 . S
C962 C963 1.524 . S
C962 H981 0.913 . S
C963 H939 0.950 . S
C963 C962 1.524 . S
C963 C964 1.415 . S
C964 H940 0.950 . S
C964 C959 1.363 . S
C964 C963 1.415 . S
C965 H941 0.951 . S
C965 C966 1.366 . S
C965 C967 1.388 . S
C966 C965 1.366 . S
C966 C970 1.385 . S
C967 H942 0.951 . S
C967 C965 1.388 . S
C967 C968 1.366 . S
C968 C967 1.366 . S
C968 C969 1.414 . S
C968 C971 1.499 . S
C969 H943 0.950 . S
C969 C968 1.414 . S
C969 C970 1.374 . S
C970 H944 0.950 . S
C970 C966 1.385 . S
C970 C969 1.374 . S
C971 C968 1.499 . S
C971 C972 1.368 1_565 S
C971 C973 1.389 . S
C972 H945 0.954 . S
C972 C958 1.382 . S
C972 C971 1.368 1_545 S
C973 C957 1.383 . S
C973 C971 1.389 . S
C973 C974 1.524 . S
C974 C973 1.524 . S
C974 C975 1.397 . S
C974 C979 1.363 . S
C975 H946 0.950 . S
C975 C974 1.397 . S
C975 C976 1.334 . S
C976 H947 0.950 . S
C976 C975 1.334 . S
C976 C977 1.287 . S
C977 C976 1.287 . S
C977 C978 1.524 . S
C977 H980 0.999 . S
C978 H948 0.950 . S
C978 C977 1.524 . S
C978 C979 1.415 . S
C979 H949 0.950 . S
C979 C974 1.363 . S
C979 C978 1.415 . S
H980 C977 0.999 . S
H981 C962 0.913 . S
H982 C1000 0.951 . S
H983 C1002 0.951 . S
H984 C1004 0.950 . S
H985 C1005 0.950 . S
H986 C1007 0.950 . S
H987 C1010 0.950 . S
H988 C1011 0.950 . S
H989 C1013 0.950 . S
H990 C1014 0.950 . S
H991 C1015 0.951 . S
H992 C1017 0.951 . S
H993 C1019 0.950 . S
H994 C1020 0.950 . S
H995 C1022 0.950 . S
H996 C1025 0.950 . S
H997 C1026 0.950 . S
H998 C1028 0.950 . S
H999 C1029 0.950 . S
C1000 H982 0.951 . S
C1000 C1001 1.366 . S
C1000 C1002 1.388 . S
C1001 C1000 1.366 . S
C1001 C1005 1.385 . S
C1002 H983 0.951 . S
C1002 C1000 1.388 . S
C1002 C1003 1.366 . S
C1003 C1002 1.366 . S
C1003 C1004 1.414 . S
C1003 C1006 1.499 . S
C1004 H984 0.950 . S
C1004 C1003 1.414 . S
C1004 C1005 1.374 . S
C1005 H985 0.950 . S
C1005 C1001 1.385 . S
C1005 C1004 1.374 . S
C1006 C1003 1.499 . S
C1006 C1007 1.373 . S
C1006 C1008 1.389 . S
C1007 H986 0.950 . S
C1007 C1006 1.373 . S
C1007 C1023 1.377 1_655 S
C1008 C1006 1.389 . S
C1008 C1009 1.524 . S
C1008 C1022 1.377 1_655 S
C1009 C1008 1.524 . S
C1009 C1010 1.397 . S
C1009 C1014 1.363 . S
C1010 H987 0.950 . S
C1010 C1009 1.397 . S
C1010 C1011 1.334 . S
C1011 H988 0.950 . S
C1011 C1010 1.334 . S
C1011 C1012 1.287 . S
C1012 C1011 1.287 . S
C1012 C1013 1.524 . S
C1012 H1031 0.913 . S
C1013 H989 0.950 . S
C1013 C1012 1.524 . S
C1013 C1014 1.415 . S
C1014 H990 0.950 . S
C1014 C1009 1.363 . S
C1014 C1013 1.415 . S
C1015 H991 0.951 . S
C1015 C1016 1.366 . S
C1015 C1017 1.388 . S
C1016 C1015 1.366 . S
C1016 C1020 1.385 . S
C1017 H992 0.951 . S
C1017 C1015 1.388 . S
C1017 C1018 1.366 . S
C1018 C1017 1.366 . S
C1018 C1019 1.414 . S
C1018 C1021 1.499 . S
C1019 H993 0.950 . S
C1019 C1018 1.414 . S
C1019 C1020 1.374 . S
C1020 H994 0.950 . S
C1020 C1016 1.385 . S
C1020 C1019 1.374 . S
C1021 C1018 1.499 . S
C1021 C1022 1.373 . S
C1021 C1023 1.389 . S
C1022 H995 0.950 . S
C1022 C1008 1.377 1_455 S
C1022 C1021 1.373 . S
C1023 C1007 1.377 1_455 S
C1023 C1021 1.389 . S
C1023 C1024 1.524 . S
C1024 C1023 1.524 . S
C1024 C1025 1.397 . S
C1024 C1029 1.363 . S
C1025 H996 0.950 . S
C1025 C1024 1.397 . S
C1025 C1026 1.334 . S
C1026 H997 0.950 . S
C1026 C1025 1.334 . S
C1026 C1027 1.287 . S
C1027 C1026 1.287 . S
C1027 C1028 1.524 . S
C1027 H1030 0.999 . S
C1028 H998 0.950 . S
C1028 C1027 1.524 . S
C1028 C1029 1.415 . S
C1029 H999 0.950 . S
C1029 C1024 1.363 . S
C1029 C1028 1.415 . S
H1030 C1027 0.999 . S
H1031 C1012 0.913 . S
H1032 C1050 0.951 . S
H1033 C1052 0.951 . S
H1034 C1054 0.950 . S
H1035 C1055 0.950 . S
H1036 C1057 0.950 . S
H1037 C1060 0.950 . S
H1038 C1061 0.950 . S
H1039 C1063 0.950 . S
H1040 C1064 0.950 . S
H1041 C1065 0.951 . S
H1042 C1067 0.951 . S
H1043 C1069 0.950 . S
H1044 C1070 0.950 . S
H1045 C1072 0.950 . S
H1046 C1075 0.950 . S
H1047 C1076 0.950 . S
H1048 C1078 0.950 . S
H1049 C1079 0.950 . S
C1050 H1032 0.951 . S
C1050 C1051 1.366 . S
C1050 C1052 1.388 . S
C1051 C1050 1.366 . S
C1051 C1055 1.385 . S
C1052 H1033 0.951 . S
C1052 C1050 1.388 . S
C1052 C1053 1.366 . S
C1053 C1052 1.366 . S
C1053 C1054 1.414 . S
C1053 C1056 1.499 . S
C1054 H1034 0.950 . S
C1054 C1053 1.414 . S
C1054 C1055 1.374 . S
C1055 H1035 0.950 . S
C1055 C1051 1.385 . S
C1055 C1054 1.374 . S
C1056 C1053 1.499 . S
C1056 C1057 1.373 . S
C1056 C1058 1.389 . S
C1057 H1036 0.950 . S
C1057 C1056 1.373 . S
C1057 C1073 1.377 1_565 S
C1058 C1056 1.389 . S
C1058 C1059 1.524 . S
C1058 C1072 1.377 1_565 S
C1059 C1058 1.524 . S
C1059 C1060 1.397 . S
C1059 C1064 1.363 . S
C1060 H1037 0.950 . S
C1060 C1059 1.397 . S
C1060 C1061 1.334 . S
C1061 H1038 0.950 . S
C1061 C1060 1.334 . S
C1061 C1062 1.287 . S
C1062 C1061 1.287 . S
C1062 C1063 1.524 . S
C1062 H1081 0.913 . S
C1063 H1039 0.950 . S
C1063 C1062 1.524 . S
C1063 C1064 1.415 . S
C1064 H1040 0.950 . S
C1064 C1059 1.363 . S
C1064 C1063 1.415 . S
C1065 H1041 0.951 . S
C1065 C1066 1.366 . S
C1065 C1067 1.388 . S
C1066 C1065 1.366 . S
C1066 C1070 1.385 . S
C1067 H1042 0.951 . S
C1067 C1065 1.388 . S
C1067 C1068 1.366 . S
C1068 C1067 1.366 . S
C1068 C1069 1.414 . S
C1068 C1071 1.499 . S
C1069 H1043 0.950 . S
C1069 C1068 1.414 . S
C1069 C1070 1.374 . S
C1070 H1044 0.950 . S
C1070 C1066 1.385 . S
C1070 C1069 1.374 . S
C1071 C1068 1.499 . S
C1071 C1072 1.373 . S
C1071 C1073 1.389 . S
C1072 H1045 0.950 . S
C1072 C1058 1.377 1_545 S
C1072 C1071 1.373 . S
C1073 C1057 1.377 1_545 S
C1073 C1071 1.389 . S
C1073 C1074 1.524 . S
C1074 C1073 1.524 . S
C1074 C1075 1.397 . S
C1074 C1079 1.363 . S
C1075 H1046 0.950 . S
C1075 C1074 1.397 . S
C1075 C1076 1.334 . S
C1076 H1047 0.950 . S
C1076 C1075 1.334 . S
C1076 C1077 1.287 . S
C1077 C1076 1.287 . S
C1077 C1078 1.524 . S
C1077 H1080 0.999 . S
C1078 H1048 0.950 . S
C1078 C1077 1.524 . S
C1078 C1079 1.415 . S
C1079 H1049 0.950 . S
C1079 C1074 1.363 . S
C1079 C1078 1.415 . S
H1080 C1077 0.999 . S
H1081 C1062 0.913 . S
H1082 C1100 0.951 . S
H1083 C1102 0.951 . S
H1084 C1104 0.950 . S
H1085 C1105 0.950 . S
H1086 C1107 0.950 . S
H1087 C1110 0.950 . S
H1088 C1111 0.950 . S
H1089 C1113 0.950 . S
H1090 C1114 0.950 . S
H1091 C1115 0.951 . S
H1092 C1117 0.951 . S
H1093 C1119 0.950 . S
H1094 C1120 0.950 . S
H1095 C1122 0.950 . S
H1096 C1125 0.950 . S
H1097 C1126 0.950 . S
H1098 C1128 0.950 . S
H1099 C1129 0.950 . S
C1100 H1082 0.951 . S
C1100 C1101 1.366 . S
C1100 C1102 1.388 . S
C1101 C1100 1.366 . S
C1101 C1105 1.385 . S
C1102 H1083 0.951 . S
C1102 C1100 1.388 . S
C1102 C1103 1.366 . S
C1103 C1102 1.366 . S
C1103 C1104 1.414 . S
C1103 C1106 1.499 . S
C1104 H1084 0.950 . S
C1104 C1103 1.414 . S
C1104 C1105 1.374 . S
C1105 H1085 0.950 . S
C1105 C1101 1.385 . S
C1105 C1104 1.374 . S
C1106 C1103 1.499 . S
C1106 C1107 1.373 . S
C1106 C1108 1.389 . S
C1107 H1086 0.950 . S
C1107 C1106 1.373 . S
C1107 C1123 1.377 . S
C1108 C1106 1.389 . S
C1108 C1109 1.524 . S
C1108 C1122 1.377 1_455 S
C1109 C1108 1.524 . S
C1109 C1110 1.397 . S
C1109 C1114 1.363 1_455 S
C1110 H1087 0.950 . S
C1110 C1109 1.397 . S
C1110 C1111 1.334 . S
C1111 H1088 0.950 . S
C1111 C1110 1.334 . S
C1111 C1112 1.287 . S
C1112 C1111 1.287 . S
C1112 C1113 1.524 1_455 S
C1112 H1131 0.913 . S
C1113 H1089 0.950 . S
C1113 C1112 1.524 1_655 S
C1113 C1114 1.415 . S
C1114 H1090 0.950 . S
C1114 C1109 1.363 1_655 S
C1114 C1113 1.415 . S
C1115 H1091 0.951 . S
C1115 C1116 1.366 . S
C1115 C1117 1.388 . S
C1116 C1115 1.366 . S
C1116 C1120 1.385 . S
C1117 H1092 0.951 . S
C1117 C1115 1.388 . S
C1117 C1118 1.366 . S
C1118 C1117 1.366 . S
C1118 C1119 1.414 . S
C1118 C1121 1.499 . S
C1119 H1093 0.950 . S
C1119 C1118 1.414 . S
C1119 C1120 1.374 . S
C1120 H1094 0.950 . S
C1120 C1116 1.385 . S
C1120 C1119 1.374 . S
C1121 C1118 1.499 . S
C1121 C1122 1.373 . S
C1121 C1123 1.389 1_655 S
C1122 H1095 0.950 . S
C1122 C1108 1.377 1_655 S
C1122 C1121 1.373 . S
C1123 C1107 1.377 . S
C1123 C1121 1.389 1_455 S
C1123 C1124 1.524 . S
C1124 C1123 1.524 . S
C1124 C1125 1.397 1_455 S
C1124 C1129 1.363 . S
C1125 H1096 0.950 . S
C1125 C1124 1.397 1_655 S
C1125 C1126 1.334 . S
C1126 H1097 0.950 . S
C1126 C1125 1.334 . S
C1126 C1127 1.287 1_655 S
C1127 C1126 1.287 1_455 S
C1127 C1128 1.524 . S
C1127 H1130 0.999 . S
C1128 H1098 0.950 . S
C1128 C1127 1.524 . S
C1128 C1129 1.415 . S
C1129 H1099 0.950 . S
C1129 C1124 1.363 . S
C1129 C1128 1.415 . S
H1130 C1127 0.999 . S
H1131 C1112 0.913 . S
H1132 C1150 0.951 . S
H1133 C1152 0.951 . S
H1134 C1154 0.950 . S
H1135 C1155 0.950 . S
H1136 C1157 0.950 . S
H1137 C1160 0.939 1_545 S
H1138 C1161 0.950 . S
H1139 C1163 0.950 . S
H1140 C1164 0.950 . S
H1141 C1165 0.951 . S
H1142 C1167 0.951 . S
H1143 C1169 0.950 . S
H1144 C1170 0.950 . S
H1145 C1172 0.950 . S
H1146 C1175 0.940 1_565 S
H1147 C1176 0.950 . S
H1148 C1178 0.950 . S
H1149 C1179 0.950 . S
C1150 H1132 0.951 . S
C1150 C1151 1.366 . S
C1150 C1152 1.388 . S
C1151 C1150 1.366 . S
C1151 C1155 1.385 . S
C1152 H1133 0.951 . S
C1152 C1150 1.388 . S
C1152 C1153 1.366 . S
C1153 C1152 1.366 . S
C1153 C1154 1.414 . S
C1153 C1156 1.499 . S
C1154 H1134 0.950 . S
C1154 C1153 1.414 . S
C1154 C1155 1.374 . S
C1155 H1135 0.950 . S
C1155 C1151 1.385 . S
C1155 C1154 1.374 . S
C1156 C1153 1.499 . S
C1156 C1157 1.373 . S
C1156 C1158 1.389 1_545 S
C1157 H1136 0.950 . S
C1157 C1156 1.373 . S
C1157 C1173 1.377 . S
C1158 C1156 1.389 1_565 S
C1158 C1159 1.524 . S
C1158 C1172 1.377 . S
C1159 C1158 1.524 . S
C1159 C1160 1.397 . S
C1159 C1164 1.363 . S
C1160 H1137 0.939 1_565 S
C1160 C1159 1.397 . S
C1160 C1161 1.334 . S
C1161 H1138 0.950 . S
C1161 C1160 1.334 . S
C1161 C1162 1.287 . S
C1162 C1161 1.287 . S
C1162 C1163 1.524 . S
C1162 H1181 0.913 . S
C1163 H1139 0.950 . S
C1163 C1162 1.524 . S
C1163 C1164 1.415 . S
C1164 H1140 0.950 . S
C1164 C1159 1.363 . S
C1164 C1163 1.415 . S
C1165 H1141 0.951 . S
C1165 C1166 1.366 . S
C1165 C1167 1.388 . S
C1166 C1165 1.366 . S
C1166 C1170 1.385 . S
C1167 H1142 0.951 . S
C1167 C1165 1.388 . S
C1167 C1168 1.366 . S
C1168 C1167 1.366 . S
C1168 C1169 1.414 . S
C1168 C1171 1.499 . S
C1169 H1143 0.950 . S
C1169 C1168 1.414 . S
C1169 C1170 1.374 . S
C1170 H1144 0.950 . S
C1170 C1166 1.385 . S
C1170 C1169 1.374 . S
C1171 C1168 1.499 . S
C1171 C1172 1.373 . S
C1171 C1173 1.389 1_565 S
C1172 H1145 0.950 . S
C1172 C1158 1.377 . S
C1172 C1171 1.373 . S
C1173 C1157 1.377 . S
C1173 C1171 1.389 1_545 S
C1173 C1174 1.524 . S
C1174 C1173 1.524 . S
C1174 C1175 1.397 . S
C1174 C1179 1.363 . S
C1175 H1146 0.940 1_545 S
C1175 C1174 1.397 . S
C1175 C1176 1.334 . S
C1176 H1147 0.950 . S
C1176 C1175 1.334 . S
C1176 C1177 1.287 . S
C1177 C1176 1.287 . S
C1177 C1178 1.524 . S
C1177 H1180 0.999 . S
C1178 H1148 0.950 . S
C1178 C1177 1.524 . S
C1178 C1179 1.415 . S
C1179 H1149 0.950 . S
C1179 C1174 1.363 . S
C1179 C1178 1.415 . S
H1180 C1177 0.999 . S
H1181 C1162 0.913 . S
H1182 C1200 0.951 . S
H1183 C1202 0.951 . S
H1184 C1204 0.950 . S
H1185 C1205 0.950 . S
H1186 C1207 0.950 . S
H1187 C1210 0.950 . S
H1188 C1211 0.950 . S
H1189 C1213 0.950 . S
H1190 C1214 0.950 . S
H1191 C1215 0.951 . S
H1192 C1217 0.951 . S
H1193 C1219 0.950 . S
H1194 C1220 0.950 . S
H1195 C1222 0.950 . S
H1196 C1225 0.950 1_655 S
H1197 C1226 0.950 1_655 S
H1198 C1228 0.950 . S
H1199 C1229 0.950 . S
C1200 H1182 0.951 . S
C1200 C1201 1.366 . S
C1200 C1202 1.388 . S
C1201 C1200 1.366 . S
C1201 C1205 1.385 . S
C1202 H1183 0.951 . S
C1202 C1200 1.388 . S
C1202 C1203 1.366 . S
C1203 C1202 1.366 . S
C1203 C1204 1.414 . S
C1203 C1206 1.499 . S
C1204 H1184 0.950 . S
C1204 C1203 1.414 . S
C1204 C1205 1.374 . S
C1205 H1185 0.950 . S
C1205 C1201 1.385 . S
C1205 C1204 1.374 . S
C1206 C1203 1.499 . S
C1206 C1207 1.373 . S
C1206 C1208 1.389 . S
C1207 H1186 0.950 . S
C1207 C1206 1.373 . S
C1207 C1223 1.377 . S
C1208 C1206 1.389 . S
C1208 C1209 1.524 . S
C1208 C1222 1.377 1_455 S
C1209 C1208 1.524 . S
C1209 C1210 1.397 . S
C1209 C1214 1.363 1_455 S
C1210 H1187 0.950 . S
C1210 C1209 1.397 . S
C1210 C1211 1.334 . S
C1211 H1188 0.950 . S
C1211 C1210 1.334 . S
C1211 C1212 1.287 1_455 S
C1212 C1211 1.287 1_655 S
C1212 C1213 1.524 . S
C1212 H1231 0.913 . S
C1213 H1189 0.950 . S
C1213 C1212 1.524 . S
C1213 C1214 1.415 . S
C1214 H1190 0.950 . S
C1214 C1209 1.363 1_655 S
C1214 C1213 1.415 . S
C1215 H1191 0.951 . S
C1215 C1216 1.366 . S
C1215 C1217 1.388 . S
C1216 C1215 1.366 . S
C1216 C1220 1.385 . S
C1217 H1192 0.951 . S
C1217 C1215 1.388 . S
C1217 C1218 1.366 . S
C1218 C1217 1.366 . S
C1218 C1219 1.414 . S
C1218 C1221 1.499 . S
C1219 H1193 0.950 . S
C1219 C1218 1.414 . S
C1219 C1220 1.374 . S
C1220 H1194 0.950 . S
C1220 C1216 1.385 . S
C1220 C1219 1.374 . S
C1221 C1218 1.499 . S
C1221 C1222 1.373 . S
C1221 C1223 1.389 1_655 S
C1222 H1195 0.950 . S
C1222 C1208 1.377 1_655 S
C1222 C1221 1.373 . S
C1223 C1207 1.377 . S
C1223 C1221 1.389 1_455 S
C1223 C1224 1.524 . S
C1224 C1223 1.524 . S
C1224 C1225 1.397 . S
C1224 C1229 1.363 . S
C1225 H1196 0.950 1_455 S
C1225 C1224 1.397 . S
C1225 C1226 1.334 . S
C1226 H1197 0.950 1_455 S
C1226 C1225 1.334 . S
C1226 C1227 1.287 . S
C1227 C1226 1.287 . S
C1227 C1228 1.524 . S
C1227 H1230 0.999 . S
C1228 H1198 0.950 . S
C1228 C1227 1.524 . S
C1228 C1229 1.415 . S
C1229 H1199 0.950 . S
C1229 C1224 1.363 . S
C1229 C1228 1.415 . S
H1230 C1227 0.999 . S
H1231 C1212 0.913 . S
H1232 C1250 0.951 . S
H1233 C1252 0.951 . S
H1234 C1254 0.950 . S
H1235 C1255 0.950 . S
H1236 C1257 0.950 . S
H1237 C1260 0.950 . S
H1238 C1261 0.950 . S
H1239 C1263 0.950 . S
H1240 C1264 0.950 . S
H1241 C1265 0.951 . S
H1242 C1267 0.951 . S
H1243 C1269 0.950 . S
H1244 C1270 0.950 . S
H1245 C1272 0.950 . S
H1246 C1275 0.950 . S
H1247 C1276 0.950 . S
H1248 C1278 0.950 . S
H1249 C1279 0.950 . S
C1250 H1232 0.951 . S
C1250 C1251 1.366 . S
C1250 C1252 1.388 . S
C1251 C1250 1.366 . S
C1251 C1255 1.385 . S
C1252 H1233 0.951 . S
C1252 C1250 1.388 . S
C1252 C1253 1.366 . S
C1253 C1252 1.366 . S
C1253 C1254 1.414 . S
C1253 C1256 1.499 . S
C1254 H1234 0.950 . S
C1254 C1253 1.414 . S
C1254 C1255 1.374 . S
C1255 H1235 0.950 . S
C1255 C1251 1.385 . S
C1255 C1254 1.374 . S
C1256 C1253 1.499 . S
C1256 C1257 1.373 . S
C1256 C1258 1.389 . S
C1257 H1236 0.950 . S
C1257 C1256 1.373 . S
C1257 C1273 1.377 . S
C1258 C1256 1.389 . S
C1258 C1259 1.524 . S
C1258 C1272 1.377 . S
C1259 C1258 1.524 . S
C1259 C1260 1.397 . S
C1259 C1264 1.363 . S
C1260 H1237 0.950 . S
C1260 C1259 1.397 . S
C1260 C1261 1.334 . S
C1261 H1238 0.950 . S
C1261 C1260 1.334 . S
C1261 C1262 1.287 . S
C1262 C1261 1.287 . S
C1262 C1263 1.524 . S
C1262 H1281 0.913 . S
C1263 H1239 0.950 . S
C1263 C1262 1.524 . S
C1263 C1264 1.415 . S
C1264 H1240 0.950 . S
C1264 C1259 1.363 . S
C1264 C1263 1.415 . S
C1265 H1241 0.951 . S
C1265 C1266 1.366 . S
C1265 C1267 1.388 . S
C1266 C1265 1.366 . S
C1266 C1270 1.385 . S
C1267 H1242 0.951 . S
C1267 C1265 1.388 . S
C1267 C1268 1.366 . S
C1268 C1267 1.366 . S
C1268 C1269 1.414 . S
C1268 C1271 1.499 . S
C1269 H1243 0.950 . S
C1269 C1268 1.414 . S
C1269 C1270 1.374 . S
C1270 H1244 0.950 . S
C1270 C1266 1.385 . S
C1270 C1269 1.374 . S
C1271 C1268 1.499 . S
C1271 C1272 1.373 . S
C1271 C1273 1.389 . S
C1272 H1245 0.950 . S
C1272 C1258 1.377 . S
C1272 C1271 1.373 . S
C1273 C1257 1.377 . S
C1273 C1271 1.389 . S
C1273 C1274 1.524 . S
C1274 C1273 1.524 . S
C1274 C1275 1.397 . S
C1274 C1279 1.363 . S
C1275 H1246 0.950 . S
C1275 C1274 1.397 . S
C1275 C1276 1.334 . S
C1276 H1247 0.950 . S
C1276 C1275 1.334 . S
C1276 C1277 1.287 . S
C1277 C1276 1.287 . S
C1277 C1278 1.524 . S
C1277 H1280 0.999 . S
C1278 H1248 0.950 . S
C1278 C1277 1.524 . S
C1278 C1279 1.415 . S
C1279 H1249 0.950 . S
C1279 C1274 1.363 . S
C1279 C1278 1.415 . S
H1280 C1277 0.999 . S
H1281 C1262 0.913 . S
H1282 C1300 0.951 . S
H1283 C1302 0.951 . S
H1284 C1304 0.950 . S
H1285 C1305 0.950 . S
H1286 C1307 0.950 . S
H1287 C1310 0.950 . S
H1288 C1311 0.950 . S
H1289 C1313 0.950 . S
H1290 C1314 0.950 . S
H1291 C1315 0.951 . S
H1292 C1317 0.951 . S
H1293 C1319 0.950 . S
H1294 C1320 0.950 . S
H1295 C1322 0.950 . S
H1296 C1325 0.950 . S
H1297 C1326 0.950 . S
H1298 C1328 0.950 . S
H1299 C1329 0.950 . S
C1300 H1282 0.951 . S
C1300 C1301 1.366 . S
C1300 C1302 1.388 . S
C1301 C1300 1.366 . S
C1301 C1305 1.385 . S
C1302 H1283 0.951 . S
C1302 C1300 1.388 . S
C1302 C1303 1.366 . S
C1303 C1302 1.366 . S
C1303 C1304 1.414 . S
C1303 C1306 1.499 . S
C1304 H1284 0.950 . S
C1304 C1303 1.414 . S
C1304 C1305 1.374 . S
C1305 H1285 0.950 . S
C1305 C1301 1.385 . S
C1305 C1304 1.374 . S
C1306 C1303 1.499 . S
C1306 C1307 1.373 . S
C1306 C1308 1.389 . S
C1307 H1286 0.950 . S
C1307 C1306 1.373 . S
C1307 C1323 1.377 . S
C1308 C1306 1.389 . S
C1308 C1309 1.524 . S
C1308 C1322 1.377 . S
C1309 C1308 1.524 . S
C1309 C1310 1.397 . S
C1309 C1314 1.363 . S
C1310 H1287 0.950 . S
C1310 C1309 1.397 . S
C1310 C1311 1.334 . S
C1311 H1288 0.950 . S
C1311 C1310 1.334 . S
C1311 C1312 1.287 . S
C1312 C1311 1.287 . S
C1312 C1313 1.524 . S
C1312 H1331 0.913 . S
C1313 H1289 0.950 . S
C1313 C1312 1.524 . S
C1313 C1314 1.415 . S
C1314 H1290 0.950 . S
C1314 C1309 1.363 . S
C1314 C1313 1.415 . S
C1315 H1291 0.951 . S
C1315 C1316 1.366 . S
C1315 C1317 1.388 . S
C1316 C1315 1.366 . S
C1316 C1320 1.385 . S
C1317 H1292 0.951 . S
C1317 C1315 1.388 . S
C1317 C1318 1.366 . S
C1318 C1317 1.366 . S
C1318 C1319 1.414 . S
C1318 C1321 1.499 . S
C1319 H1293 0.950 . S
C1319 C1318 1.414 . S
C1319 C1320 1.374 . S
C1320 H1294 0.950 . S
C1320 C1316 1.385 . S
C1320 C1319 1.374 . S
C1321 C1318 1.499 . S
C1321 C1322 1.373 . S
C1321 C1323 1.389 . S
C1322 H1295 0.950 . S
C1322 C1308 1.377 . S
C1322 C1321 1.373 . S
C1323 C1307 1.377 . S
C1323 C1321 1.389 . S
C1323 C1324 1.524 . S
C1324 C1323 1.524 . S
C1324 C1325 1.397 . S
C1324 C1329 1.363 . S
C1325 H1296 0.950 . S
C1325 C1324 1.397 . S
C1325 C1326 1.334 . S
C1326 H1297 0.950 . S
C1326 C1325 1.334 . S
C1326 C1327 1.287 . S
C1327 C1326 1.287 . S
C1327 C1328 1.524 . S
C1327 H1330 0.999 . S
C1328 H1298 0.950 . S
C1328 C1327 1.524 . S
C1328 C1329 1.415 . S
C1329 H1299 0.950 . S
C1329 C1324 1.363 . S
C1329 C1328 1.415 . S
H1330 C1327 0.999 . S
H1331 C1312 0.913 . S
H1332 C1350 0.951 . S
H1333 C1352 0.951 . S
H1334 C1354 0.950 . S
H1335 C1355 0.950 . S
H1336 C1357 0.950 . S
H1337 C1360 0.950 . S
H1338 C1361 0.950 . S
H1339 C1363 0.950 . S
H1340 C1364 0.950 . S
H1341 C1365 0.951 . S
H1342 C1367 0.951 . S
H1343 C1369 0.950 . S
H1344 C1370 0.950 . S
H1345 C1372 0.950 . S
H1346 C1375 0.950 . S
H1347 C1376 0.950 . S
H1348 C1378 0.950 . S
H1349 C1379 0.950 . S
C1350 H1332 0.951 . S
C1350 C1351 1.366 . S
C1350 C1352 1.388 . S
C1351 C1350 1.366 . S
C1351 C1355 1.385 . S
C1352 H1333 0.951 . S
C1352 C1350 1.388 . S
C1352 C1353 1.366 . S
C1353 C1352 1.366 . S
C1353 C1354 1.414 . S
C1353 C1356 1.499 . S
C1354 H1334 0.950 . S
C1354 C1353 1.414 . S
C1354 C1355 1.374 . S
C1355 H1335 0.950 . S
C1355 C1351 1.385 . S
C1355 C1354 1.374 . S
C1356 C1353 1.499 . S
C1356 C1357 1.373 . S
C1356 C1358 1.389 . S
C1357 H1336 0.950 . S
C1357 C1356 1.373 . S
C1357 C1373 1.377 . S
C1358 C1356 1.389 . S
C1358 C1359 1.524 . S
C1358 C1372 1.377 . S
C1359 C1358 1.524 . S
C1359 C1360 1.397 . S
C1359 C1364 1.363 . S
C1360 H1337 0.950 . S
C1360 C1359 1.397 . S
C1360 C1361 1.334 . S
C1361 H1338 0.950 . S
C1361 C1360 1.334 . S
C1361 C1362 1.287 . S
C1362 C1361 1.287 . S
C1362 C1363 1.524 . S
C1362 H1381 0.913 . S
C1363 H1339 0.950 . S
C1363 C1362 1.524 . S
C1363 C1364 1.415 . S
C1364 H1340 0.950 . S
C1364 C1359 1.363 . S
C1364 C1363 1.415 . S
C1365 H1341 0.951 . S
C1365 C1366 1.366 . S
C1365 C1367 1.388 . S
C1366 C1365 1.366 . S
C1366 C1370 1.385 . S
C1367 H1342 0.951 . S
C1367 C1365 1.388 . S
C1367 C1368 1.366 . S
C1368 C1367 1.366 . S
C1368 C1369 1.414 . S
C1368 C1371 1.499 . S
C1369 H1343 0.950 . S
C1369 C1368 1.414 . S
C1369 C1370 1.374 . S
C1370 H1344 0.950 . S
C1370 C1366 1.385 . S
C1370 C1369 1.374 . S
C1371 C1368 1.499 . S
C1371 C1372 1.373 . S
C1371 C1373 1.389 . S
C1372 H1345 0.950 . S
C1372 C1358 1.377 . S
C1372 C1371 1.373 . S
C1373 C1357 1.377 . S
C1373 C1371 1.389 . S
C1373 C1374 1.524 . S
C1374 C1373 1.524 . S
C1374 C1375 1.397 . S
C1374 C1379 1.363 . S
C1375 H1346 0.950 . S
C1375 C1374 1.397 . S
C1375 C1376 1.334 . S
C1376 H1347 0.950 . S
C1376 C1375 1.334 . S
C1376 C1377 1.287 . S
C1377 C1376 1.287 . S
C1377 C1378 1.524 . S
C1377 H1380 0.999 . S
C1378 H1348 0.950 . S
C1378 C1377 1.524 . S
C1378 C1379 1.415 . S
C1379 H1349 0.950 . S
C1379 C1374 1.363 . S
C1379 C1378 1.415 . S
H1380 C1377 0.999 . S
H1381 C1362 0.913 . S
H1382 C1400 0.951 . S
H1383 C1402 0.951 . S
H1384 C1404 0.950 . S
H1385 C1405 0.950 . S
H1386 C1407 0.950 . S
H1387 C1410 0.950 . S
H1388 C1411 0.950 . S
H1389 C1413 0.950 . S
H1390 C1414 0.950 . S
H1391 C1415 0.951 . S
H1392 C1417 0.951 . S
H1393 C1419 0.950 . S
H1394 C1420 0.950 . S
H1395 C1422 0.950 . S
H1396 C1425 0.950 . S
H1397 C1426 0.950 . S
H1398 C1428 0.950 . S
H1399 C1429 0.950 . S
C1400 H1382 0.951 . S
C1400 C1401 1.366 . S
C1400 C1402 1.388 . S
C1401 C1400 1.366 . S
C1401 C1405 1.385 . S
C1402 H1383 0.951 . S
C1402 C1400 1.388 . S
C1402 C1403 1.366 . S
C1403 C1402 1.366 . S
C1403 C1404 1.414 . S
C1403 C1406 1.499 . S
C1404 H1384 0.950 . S
C1404 C1403 1.414 . S
C1404 C1405 1.374 . S
C1405 H1385 0.950 . S
C1405 C1401 1.385 . S
C1405 C1404 1.374 . S
C1406 C1403 1.499 . S
C1406 C1407 1.373 . S
C1406 C1408 1.389 . S
C1407 H1386 0.950 . S
C1407 C1406 1.373 . S
C1407 C1423 1.377 . S
C1408 C1406 1.389 . S
C1408 C1409 1.524 . S
C1408 C1422 1.377 . S
C1409 C1408 1.524 . S
C1409 C1410 1.397 . S
C1409 C1414 1.363 . S
C1410 H1387 0.950 . S
C1410 C1409 1.397 . S
C1410 C1411 1.334 . S
C1411 H1388 0.950 . S
C1411 C1410 1.334 . S
C1411 C1412 1.287 . S
C1412 C1411 1.287 . S
C1412 C1413 1.524 . S
C1412 H1431 0.913 . S
C1413 H1389 0.950 . S
C1413 C1412 1.524 . S
C1413 C1414 1.415 . S
C1414 H1390 0.950 . S
C1414 C1409 1.363 . S
C1414 C1413 1.415 . S
C1415 H1391 0.951 . S
C1415 C1416 1.366 . S
C1415 C1417 1.388 . S
C1416 C1415 1.366 . S
C1416 C1420 1.385 . S
C1417 H1392 0.951 . S
C1417 C1415 1.388 . S
C1417 C1418 1.366 . S
C1418 C1417 1.366 . S
C1418 C1419 1.414 . S
C1418 C1421 1.499 . S
C1419 H1393 0.950 . S
C1419 C1418 1.414 . S
C1419 C1420 1.374 . S
C1420 H1394 0.950 . S
C1420 C1416 1.385 . S
C1420 C1419 1.374 . S
C1421 C1418 1.499 . S
C1421 C1422 1.373 . S
C1421 C1423 1.389 . S
C1422 H1395 0.950 . S
C1422 C1408 1.377 . S
C1422 C1421 1.373 . S
C1423 C1407 1.377 . S
C1423 C1421 1.389 . S
C1423 C1424 1.524 . S
C1424 C1423 1.524 . S
C1424 C1425 1.397 . S
C1424 C1429 1.363 . S
C1425 H1396 0.950 . S
C1425 C1424 1.397 . S
C1425 C1426 1.334 . S
C1426 H1397 0.950 . S
C1426 C1425 1.334 . S
C1426 C1427 1.287 . S
C1427 C1426 1.287 . S
C1427 C1428 1.524 . S
C1427 H1430 0.999 . S
C1428 H1398 0.950 . S
C1428 C1427 1.524 . S
C1428 C1429 1.415 . S
C1429 H1399 0.950 . S
C1429 C1424 1.363 . S
C1429 C1428 1.415 . S
H1430 C1427 0.999 . S
H1431 C1412 0.913 . S
H1432 C1450 0.951 . S
H1433 C1452 0.951 . S
H1434 C1454 0.950 . S
H1435 C1455 0.950 . S
H1436 C1457 0.950 . S
H1437 C1460 0.950 . S
H1438 C1461 0.950 . S
H1439 C1463 0.950 . S
H1440 C1464 0.950 . S
H1441 C1465 0.951 . S
H1442 C1467 0.951 . S
H1443 C1469 0.950 . S
H1444 C1470 0.950 . S
H1445 C1472 0.950 . S
H1446 C1475 0.950 . S
H1447 C1476 0.950 . S
H1448 C1478 0.950 . S
H1449 C1479 0.950 . S
C1450 H1432 0.951 . S
C1450 C1451 1.366 . S
C1450 C1452 1.388 . S
C1451 C1450 1.366 . S
C1451 C1455 1.385 . S
C1452 H1433 0.951 . S
C1452 C1450 1.388 . S
C1452 C1453 1.366 . S
C1453 C1452 1.366 . S
C1453 C1454 1.414 . S
C1453 C1456 1.499 . S
C1454 H1434 0.950 . S
C1454 C1453 1.414 . S
C1454 C1455 1.374 . S
C1455 H1435 0.950 . S
C1455 C1451 1.385 . S
C1455 C1454 1.374 . S
C1456 C1453 1.499 . S
C1456 C1457 1.373 . S
C1456 C1458 1.389 . S
C1457 H1436 0.950 . S
C1457 C1456 1.373 . S
C1457 C1473 1.377 . S
C1458 C1456 1.389 . S
C1458 C1459 1.524 . S
C1458 C1472 1.377 . S
C1459 C1458 1.524 . S
C1459 C1460 1.397 . S
C1459 C1464 1.363 . S
C1460 H1437 0.950 . S
C1460 C1459 1.397 . S
C1460 C1461 1.334 . S
C1461 H1438 0.950 . S
C1461 C1460 1.334 . S
C1461 C1462 1.287 . S
C1462 C1461 1.287 . S
C1462 C1463 1.524 . S
C1462 H1481 0.913 . S
C1463 H1439 0.950 . S
C1463 C1462 1.524 . S
C1463 C1464 1.415 . S
C1464 H1440 0.950 . S
C1464 C1459 1.363 . S
C1464 C1463 1.415 . S
C1465 H1441 0.951 . S
C1465 C1466 1.366 . S
C1465 C1467 1.388 . S
C1466 C1465 1.366 . S
C1466 C1470 1.385 . S
C1467 H1442 0.951 . S
C1467 C1465 1.388 . S
C1467 C1468 1.366 . S
C1468 C1467 1.366 . S
C1468 C1469 1.414 . S
C1468 C1471 1.499 . S
C1469 H1443 0.950 . S
C1469 C1468 1.414 . S
C1469 C1470 1.374 . S
C1470 H1444 0.950 . S
C1470 C1466 1.385 . S
C1470 C1469 1.374 . S
C1471 C1468 1.499 . S
C1471 C1472 1.373 . S
C1471 C1473 1.389 . S
C1472 H1445 0.950 . S
C1472 C1458 1.377 . S
C1472 C1471 1.373 . S
C1473 C1457 1.377 . S
C1473 C1471 1.389 . S
C1473 C1474 1.524 . S
C1474 C1473 1.524 . S
C1474 C1475 1.397 . S
C1474 C1479 1.363 . S
C1475 H1446 0.950 . S
C1475 C1474 1.397 . S
C1475 C1476 1.334 . S
C1476 H1447 0.950 . S
C1476 C1475 1.334 . S
C1476 C1477 1.287 . S
C1477 C1476 1.287 . S
C1477 C1478 1.524 . S
C1477 H1480 0.999 . S
C1478 H1448 0.950 . S
C1478 C1477 1.524 . S
C1478 C1479 1.415 . S
C1479 H1449 0.950 . S
C1479 C1474 1.363 . S
C1479 C1478 1.415 . S
H1480 C1477 0.999 . S
H1481 C1462 0.913 . S
H1482 C1500 0.951 . S
H1483 C1502 0.951 . S
H1484 C1504 0.950 . S
H1485 C1505 0.950 . S
H1486 C1507 0.950 . S
H1487 C1510 0.950 . S
H1488 C1511 0.950 . S
H1489 C1513 0.950 . S
H1490 C1514 0.950 . S
H1491 C1515 0.951 . S
H1492 C1517 0.951 . S
H1493 C1519 0.950 . S
H1494 C1520 0.950 . S
H1495 C1522 0.950 . S
H1496 C1525 0.950 . S
H1497 C1526 0.950 . S
H1498 C1528 0.950 . S
H1499 C1529 0.950 . S
C1500 H1482 0.951 . S
C1500 C1501 1.366 . S
C1500 C1502 1.388 . S
C1501 C1500 1.366 . S
C1501 C1505 1.385 . S
C1502 H1483 0.951 . S
C1502 C1500 1.388 . S
C1502 C1503 1.366 . S
C1503 C1502 1.366 . S
C1503 C1504 1.414 . S
C1503 C1506 1.499 . S
C1504 H1484 0.950 . S
C1504 C1503 1.414 . S
C1504 C1505 1.374 . S
C1505 H1485 0.950 . S
C1505 C1501 1.385 . S
C1505 C1504 1.374 . S
C1506 C1503 1.499 . S
C1506 C1507 1.373 . S
C1506 C1508 1.389 . S
C1507 H1486 0.950 . S
C1507 C1506 1.373 . S
C1507 C1523 1.377 . S
C1508 C1506 1.389 . S
C1508 C1509 1.524 . S
C1508 C1522 1.377 . S
C1509 C1508 1.524 . S
C1509 C1510 1.397 . S
C1509 C1514 1.363 . S
C1510 H1487 0.950 . S
C1510 C1509 1.397 . S
C1510 C1511 1.334 . S
C1511 H1488 0.950 . S
C1511 C1510 1.334 . S
C1511 C1512 1.287 . S
C1512 C1511 1.287 . S
C1512 C1513 1.524 . S
C1512 H1531 0.913 . S
C1513 H1489 0.950 . S
C1513 C1512 1.524 . S
C1513 C1514 1.415 . S
C1514 H1490 0.950 . S
C1514 C1509 1.363 . S
C1514 C1513 1.415 . S
C1515 H1491 0.951 . S
C1515 C1516 1.366 . S
C1515 C1517 1.388 . S
C1516 C1515 1.366 . S
C1516 C1520 1.385 . S
C1517 H1492 0.951 . S
C1517 C1515 1.388 . S
C1517 C1518 1.366 . S
C1518 C1517 1.366 . S
C1518 C1519 1.414 . S
C1518 C1521 1.499 . S
C1519 H1493 0.950 . S
C1519 C1518 1.414 . S
C1519 C1520 1.374 . S
C1520 H1494 0.950 . S
C1520 C1516 1.385 . S
C1520 C1519 1.374 . S
C1521 C1518 1.499 . S
C1521 C1522 1.373 . S
C1521 C1523 1.389 . S
C1522 H1495 0.950 . S
C1522 C1508 1.377 . S
C1522 C1521 1.373 . S
C1523 C1507 1.377 . S
C1523 C1521 1.389 . S
C1523 C1524 1.524 . S
C1524 C1523 1.524 . S
C1524 C1525 1.397 . S
C1524 C1529 1.363 . S
C1525 H1496 0.950 . S
C1525 C1524 1.397 . S
C1525 C1526 1.334 . S
C1526 H1497 0.950 . S
C1526 C1525 1.334 . S
C1526 C1527 1.287 . S
C1527 C1526 1.287 . S
C1527 C1528 1.524 . S
C1527 H1530 0.999 . S
C1528 H1498 0.950 . S
C1528 C1527 1.524 . S
C1528 C1529 1.415 . S
C1529 H1499 0.950 . S
C1529 C1524 1.363 . S
C1529 C1528 1.415 . S
H1530 C1527 0.999 . S
H1531 C1512 0.913 . S
H1532 C1550 0.951 . S
H1533 C1552 0.951 . S
H1534 C1554 0.950 . S
H1535 C1555 0.950 . S
H1536 C1557 0.950 . S
H1537 C1560 0.950 . S
H1538 C1561 0.950 . S
H1539 C1563 0.950 . S
H1540 C1564 0.950 . S
H1541 C1565 0.951 . S
H1542 C1567 0.951 . S
H1543 C1569 0.950 . S
H1544 C1570 0.950 . S
H1545 C1572 0.950 . S
H1546 C1575 0.950 . S
H1547 C1576 0.950 . S
H1548 C1578 0.950 . S
H1549 C1579 0.950 . S
C1550 H1532 0.951 . S
C1550 C1551 1.366 . S
C1550 C1552 1.388 . S
C1551 C1550 1.366 . S
C1551 C1555 1.385 . S
C1552 H1533 0.951 . S
C1552 C1550 1.388 . S
C1552 C1553 1.366 . S
C1553 C1552 1.366 . S
C1553 C1554 1.414 . S
C1553 C1556 1.499 . S
C1554 H1534 0.950 . S
C1554 C1553 1.414 . S
C1554 C1555 1.374 . S
C1555 H1535 0.950 . S
C1555 C1551 1.385 . S
C1555 C1554 1.374 . S
C1556 C1553 1.499 . S
C1556 C1557 1.373 . S
C1556 C1558 1.389 . S
C1557 H1536 0.950 . S
C1557 C1556 1.373 . S
C1557 C1573 1.377 . S
C1558 C1556 1.389 . S
C1558 C1559 1.524 . S
C1558 C1572 1.377 . S
C1559 C1558 1.524 . S
C1559 C1560 1.397 . S
C1559 C1564 1.363 . S
C1560 H1537 0.950 . S
C1560 C1559 1.397 . S
C1560 C1561 1.334 . S
C1561 H1538 0.950 . S
C1561 C1560 1.334 . S
C1561 C1562 1.287 . S
C1562 C1561 1.287 . S
C1562 C1563 1.524 . S
C1562 H1581 0.913 . S
C1563 H1539 0.950 . S
C1563 C1562 1.524 . S
C1563 C1564 1.415 . S
C1564 H1540 0.950 . S
C1564 C1559 1.363 . S
C1564 C1563 1.415 . S
C1565 H1541 0.951 . S
C1565 C1566 1.366 . S
C1565 C1567 1.388 . S
C1566 C1565 1.366 . S
C1566 C1570 1.385 . S
C1567 H1542 0.951 . S
C1567 C1565 1.388 . S
C1567 C1568 1.366 . S
C1568 C1567 1.366 . S
C1568 C1569 1.414 . S
C1568 C1571 1.499 . S
C1569 H1543 0.950 . S
C1569 C1568 1.414 . S
C1569 C1570 1.374 . S
C1570 H1544 0.950 . S
C1570 C1566 1.385 . S
C1570 C1569 1.374 . S
C1571 C1568 1.499 . S
C1571 C1572 1.373 . S
C1571 C1573 1.389 . S
C1572 H1545 0.950 . S
C1572 C1558 1.377 . S
C1572 C1571 1.373 . S
C1573 C1557 1.377 . S
C1573 C1571 1.389 . S
C1573 C1574 1.524 . S
C1574 C1573 1.524 . S
C1574 C1575 1.397 . S
C1574 C1579 1.363 . S
C1575 H1546 0.950 . S
C1575 C1574 1.397 . S
C1575 C1576 1.334 . S
C1576 H1547 0.950 . S
C1576 C1575 1.334 . S
C1576 C1577 1.287 . S
C1577 C1576 1.287 . S
C1577 C1578 1.524 . S
C1577 H1580 0.999 . S
C1578 H1548 0.950 . S
C1578 C1577 1.524 . S
C1578 C1579 1.415 . S
C1579 H1549 0.950 . S
C1579 C1574 1.363 . S
C1579 C1578 1.415 . S
H1580 C1577 0.999 . S
H1581 C1562 0.913 . S
H1582 C1600 0.951 . S
H1583 C1602 0.951 . S
H1584 C1604 0.950 . S
H1585 C1605 0.950 . S
H1586 C1607 0.950 . S
H1587 C1610 0.950 . S
H1588 C1611 0.950 . S
H1589 C1613 0.950 . S
H1590 C1614 0.950 . S
H1591 C1615 0.951 . S
H1592 C1617 0.951 . S
H1593 C1619 0.950 . S
H1594 C1620 0.950 . S
H1595 C1622 0.950 . S
H1596 C1625 0.950 . S
H1597 C1626 0.950 . S
H1598 C1628 0.950 . S
H1599 C1629 0.950 . S
C1600 H1582 0.951 . S
C1600 C1601 1.366 . S
C1600 C1602 1.388 . S
C1601 C1600 1.366 . S
C1601 C1605 1.385 . S
C1602 H1583 0.951 . S
C1602 C1600 1.388 . S
C1602 C1603 1.366 . S
C1603 C1602 1.366 . S
C1603 C1604 1.414 . S
C1603 C1606 1.499 . S
C1604 H1584 0.950 . S
C1604 C1603 1.414 . S
C1604 C1605 1.374 . S
C1605 H1585 0.950 . S
C1605 C1601 1.385 . S
C1605 C1604 1.374 . S
C1606 C1603 1.499 . S
C1606 C1607 1.373 . S
C1606 C1608 1.389 . S
C1607 H1586 0.950 . S
C1607 C1606 1.373 . S
C1607 C1623 1.377 . S
C1608 C1606 1.389 . S
C1608 C1609 1.524 . S
C1608 C1622 1.377 . S
C1609 C1608 1.524 . S
C1609 C1610 1.397 . S
C1609 C1614 1.363 . S
C1610 H1587 0.950 . S
C1610 C1609 1.397 . S
C1610 C1611 1.334 . S
C1611 H1588 0.950 . S
C1611 C1610 1.334 . S
C1611 C1612 1.287 . S
C1612 C1611 1.287 . S
C1612 C1613 1.524 . S
C1612 H1631 0.913 . S
C1613 H1589 0.950 . S
C1613 C1612 1.524 . S
C1613 C1614 1.415 . S
C1614 H1590 0.950 . S
C1614 C1609 1.363 . S
C1614 C1613 1.415 . S
C1615 H1591 0.951 . S
C1615 C1616 1.366 . S
C1615 C1617 1.388 . S
C1616 C1615 1.366 . S
C1616 C1620 1.385 . S
C1617 H1592 0.951 . S
C1617 C1615 1.388 . S
C1617 C1618 1.366 . S
C1618 C1617 1.366 . S
C1618 C1619 1.414 . S
C1618 C1621 1.499 . S
C1619 H1593 0.950 . S
C1619 C1618 1.414 . S
C1619 C1620 1.374 . S
C1620 H1594 0.950 . S
C1620 C1616 1.385 . S
C1620 C1619 1.374 . S
C1621 C1618 1.499 . S
C1621 C1622 1.373 . S
C1621 C1623 1.389 . S
C1622 H1595 0.950 . S
C1622 C1608 1.377 . S
C1622 C1621 1.373 . S
C1623 C1607 1.377 . S
C1623 C1621 1.389 . S
C1623 C1624 1.524 . S
C1624 C1623 1.524 . S
C1624 C1625 1.397 . S
C1624 C1629 1.363 . S
C1625 H1596 0.950 . S
C1625 C1624 1.397 . S
C1625 C1626 1.334 . S
C1626 H1597 0.950 . S
C1626 C1625 1.334 . S
C1626 C1627 1.287 . S
C1627 C1626 1.287 . S
C1627 C1628 1.524 . S
C1627 H1630 0.999 . S
C1628 H1598 0.950 . S
C1628 C1627 1.524 . S
C1628 C1629 1.415 . S
C1629 H1599 0.950 . S
C1629 C1624 1.363 . S
C1629 C1628 1.415 . S
H1630 C1627 0.999 . S
H1631 C1612 0.913 . S
C251 C21 0.465 . S
C266 C79 0.480 . S
C301 C108 0.478 . S
C316 C50 0.467 . S
C351 C137 0.467 . S
C366 C195 0.477 . S
C401 C224 0.466 . S
C416 C166 0.478 . S
C451 C124 1.055 . S
C466 C8 1.054 . S
C501 C153 0.706 . S
C516 C32 0.479 . S
C551 C177 0.718 . S
C566 C61 0.718 . S
C601 C206 0.478 . S
C616 C95 0.704 . S
C651 C184 1.562 . S
C666 C68 1.561 . S
C701 C213 1.826 . S
C716 C92 1.940 . S
C751 C5 2.227 . S
C766 C121 2.227 . S
C801 C150 1.941 . S
C816 C39 1.827 . S
C851 C211 1.055 . S
C866 C37 1.057 . S
C901 C119 0.481 . S
C916 C66 0.708 . S
C951 C148 0.716 . S
C966 C90 0.716 . S
C1001 C182 0.707 . S
C1016 C3 0.480 . S
C1051 C97 1.562 . S
C1066 C155 1.561 . S
C1101 C10 1.827 . S
C1116 C179 1.941 . S
C1151 C34 2.227 . S
C1166 C208 2.227 . S
C1201 C126 1.827 . S
C1216 C63 1.941 . S
C1251 C160 3.229 . S
C1266 C15 3.228 . S
C1301 C42 2.407 . S
C1316 C187 2.426 . S
C1351 C216 2.408 . S
C1366 C71 2.426 . S
C1401 C102 3.229 . S
C1416 C131 3.228 . S
C1451 C218 3.228 . S
C1466 C73 3.229 . S
C1501 C129 2.407 . S
C1516 C100 2.426 . S
C1551 C13 2.407 . S
C1566 C158 2.425 . S
C1601 C189 3.229 . S
C1616 C44 3.229 . S
