# Generated by pormake.
# Topology uoh, (4)-cn, num edge types: 1
# Building blocks:
#     Node 0, Type 0, BuildingBlock: GALJAG_clean_sbu_0, # of connection points: 4
#     Node 1, Type 0, BuildingBlock: GALJAG_clean_sbu_0, # of connection points: 4
#     Node 2, Type 0, BuildingBlock: GALJAG_clean_sbu_0, # of connection points: 4
#     Node 3, Type 0, BuildingBlock: GALJAG_clean_sbu_0, # of connection points: 4
#     Node 4, Type 0, BuildingBlock: GALJAG_clean_sbu_0, # of connection points: 4
#     Node 5, Type 0, BuildingBlock: GALJAG_clean_sbu_0, # of connection points: 4
#     Node 6, Type 0, BuildingBlock: GALJAG_clean_sbu_0, # of connection points: 4
#     Node 7, Type 0, BuildingBlock: GALJAG_clean_sbu_0, # of connection points: 4
#     Node 8, Type 0, BuildingBlock: GALJAG_clean_sbu_0, # of connection points: 4
#     Node 9, Type 0, BuildingBlock: GALJAG_clean_sbu_0, # of connection points: 4
#     Node 10, Type 0, BuildingBlock: GALJAG_clean_sbu_0, # of connection points: 4
#     Node 11, Type 0, BuildingBlock: GALJAG_clean_sbu_0, # of connection points: 4
#     Node 12, Type 0, BuildingBlock: GALJAG_clean_sbu_0, # of connection points: 4
#     Node 13, Type 0, BuildingBlock: GALJAG_clean_sbu_0, # of connection points: 4
#     Node 14, Type 0, BuildingBlock: GALJAG_clean_sbu_0, # of connection points: 4
#     Node 15, Type 0, BuildingBlock: GALJAG_clean_sbu_0, # of connection points: 4
#     Node 16, Type 0, BuildingBlock: GALJAG_clean_sbu_0, # of connection points: 4
#     Node 17, Type 0, BuildingBlock: GALJAG_clean_sbu_0, # of connection points: 4
#     Node 18, Type 0, BuildingBlock: GALJAG_clean_sbu_0, # of connection points: 4
#     Node 19, Type 0, BuildingBlock: GALJAG_clean_sbu_0, # of connection points: 4
#     Node 20, Type 0, BuildingBlock: GALJAG_clean_sbu_0, # of connection points: 4
#     Node 21, Type 0, BuildingBlock: GALJAG_clean_sbu_0, # of connection points: 4
#     Node 22, Type 0, BuildingBlock: GALJAG_clean_sbu_0, # of connection points: 4
#     Node 23, Type 0, BuildingBlock: GALJAG_clean_sbu_0, # of connection points: 4
#     Node 24, Type 0, BuildingBlock: GALJAG_clean_sbu_0, # of connection points: 4
#     Node 25, Type 0, BuildingBlock: GALJAG_clean_sbu_0, # of connection points: 4
#     Node 26, Type 0, BuildingBlock: GALJAG_clean_sbu_0, # of connection points: 4
#     Node 27, Type 0, BuildingBlock: GALJAG_clean_sbu_0, # of connection points: 4
#     Node 28, Type 0, BuildingBlock: GALJAG_clean_sbu_0, # of connection points: 4
#     Node 29, Type 0, BuildingBlock: GALJAG_clean_sbu_0, # of connection points: 4
#     Node 30, Type 0, BuildingBlock: GALJAG_clean_sbu_0, # of connection points: 4
#     Node 31, Type 0, BuildingBlock: GALJAG_clean_sbu_0, # of connection points: 4
#     Node 32, Type 0, BuildingBlock: GALJAG_clean_sbu_0, # of connection points: 4
#     Node 33, Type 0, BuildingBlock: GALJAG_clean_sbu_0, # of connection points: 4
#     Node 34, Type 0, BuildingBlock: GALJAG_clean_sbu_0, # of connection points: 4
#     Node 35, Type 0, BuildingBlock: GALJAG_clean_sbu_0, # of connection points: 4
#     Edge 36, Type (0, 0), BuildingBlock: MIFKUJ_clean_linker_0, # of connection points: 2
#     Edge 37, Type (0, 0), BuildingBlock: MIFKUJ_clean_linker_0, # of connection points: 2
#     Edge 38, Type (0, 0), BuildingBlock: MIFKUJ_clean_linker_0, # of connection points: 2
#     Edge 39, Type (0, 0), BuildingBlock: MIFKUJ_clean_linker_0, # of connection points: 2
#     Edge 40, Type (0, 0), BuildingBlock: MIFKUJ_clean_linker_0, # of connection points: 2
#     Edge 41, Type (0, 0), BuildingBlock: MIFKUJ_clean_linker_0, # of connection points: 2
#     Edge 42, Type (0, 0), BuildingBlock: MIFKUJ_clean_linker_0, # of connection points: 2
#     Edge 43, Type (0, 0), BuildingBlock: MIFKUJ_clean_linker_0, # of connection points: 2
#     Edge 44, Type (0, 0), BuildingBlock: MIFKUJ_clean_linker_0, # of connection points: 2
#     Edge 45, Type (0, 0), BuildingBlock: MIFKUJ_clean_linker_0, # of connection points: 2
#     Edge 46, Type (0, 0), BuildingBlock: MIFKUJ_clean_linker_0, # of connection points: 2
#     Edge 47, Type (0, 0), BuildingBlock: MIFKUJ_clean_linker_0, # of connection points: 2
#     Edge 48, Type (0, 0), BuildingBlock: MIFKUJ_clean_linker_0, # of connection points: 2
#     Edge 49, Type (0, 0), BuildingBlock: MIFKUJ_clean_linker_0, # of connection points: 2
#     Edge 50, Type (0, 0), BuildingBlock: MIFKUJ_clean_linker_0, # of connection points: 2
#     Edge 51, Type (0, 0), BuildingBlock: MIFKUJ_clean_linker_0, # of connection points: 2
#     Edge 52, Type (0, 0), BuildingBlock: MIFKUJ_clean_linker_0, # of connection points: 2
#     Edge 53, Type (0, 0), BuildingBlock: MIFKUJ_clean_linker_0, # of connection points: 2
#     Edge 54, Type (0, 0), BuildingBlock: MIFKUJ_clean_linker_0, # of connection points: 2
#     Edge 55, Type (0, 0), BuildingBlock: MIFKUJ_clean_linker_0, # of connection points: 2
#     Edge 56, Type (0, 0), BuildingBlock: MIFKUJ_clean_linker_0, # of connection points: 2
#     Edge 57, Type (0, 0), BuildingBlock: MIFKUJ_clean_linker_0, # of connection points: 2
#     Edge 58, Type (0, 0), BuildingBlock: MIFKUJ_clean_linker_0, # of connection points: 2
#     Edge 59, Type (0, 0), BuildingBlock: MIFKUJ_clean_linker_0, # of connection points: 2
#     Edge 60, Type (0, 0), BuildingBlock: MIFKUJ_clean_linker_0, # of connection points: 2
#     Edge 61, Type (0, 0), BuildingBlock: MIFKUJ_clean_linker_0, # of connection points: 2
#     Edge 62, Type (0, 0), BuildingBlock: MIFKUJ_clean_linker_0, # of connection points: 2
#     Edge 63, Type (0, 0), BuildingBlock: MIFKUJ_clean_linker_0, # of connection points: 2
#     Edge 64, Type (0, 0), BuildingBlock: MIFKUJ_clean_linker_0, # of connection points: 2
#     Edge 65, Type (0, 0), BuildingBlock: MIFKUJ_clean_linker_0, # of connection points: 2
#     Edge 66, Type (0, 0), BuildingBlock: MIFKUJ_clean_linker_0, # of connection points: 2
#     Edge 67, Type (0, 0), BuildingBlock: MIFKUJ_clean_linker_0, # of connection points: 2
#     Edge 68, Type (0, 0), BuildingBlock: MIFKUJ_clean_linker_0, # of connection points: 2
#     Edge 69, Type (0, 0), BuildingBlock: MIFKUJ_clean_linker_0, # of connection points: 2
#     Edge 70, Type (0, 0), BuildingBlock: MIFKUJ_clean_linker_0, # of connection points: 2
#     Edge 71, Type (0, 0), BuildingBlock: MIFKUJ_clean_linker_0, # of connection points: 2
#     Edge 72, Type (0, 0), BuildingBlock: MIFKUJ_clean_linker_0, # of connection points: 2
#     Edge 73, Type (0, 0), BuildingBlock: MIFKUJ_clean_linker_0, # of connection points: 2
#     Edge 74, Type (0, 0), BuildingBlock: MIFKUJ_clean_linker_0, # of connection points: 2
#     Edge 75, Type (0, 0), BuildingBlock: MIFKUJ_clean_linker_0, # of connection points: 2
#     Edge 76, Type (0, 0), BuildingBlock: MIFKUJ_clean_linker_0, # of connection points: 2
#     Edge 77, Type (0, 0), BuildingBlock: MIFKUJ_clean_linker_0, # of connection points: 2
#     Edge 78, Type (0, 0), BuildingBlock: MIFKUJ_clean_linker_0, # of connection points: 2
#     Edge 79, Type (0, 0), BuildingBlock: MIFKUJ_clean_linker_0, # of connection points: 2
#     Edge 80, Type (0, 0), BuildingBlock: MIFKUJ_clean_linker_0, # of connection points: 2
#     Edge 81, Type (0, 0), BuildingBlock: MIFKUJ_clean_linker_0, # of connection points: 2
#     Edge 82, Type (0, 0), BuildingBlock: MIFKUJ_clean_linker_0, # of connection points: 2
#     Edge 83, Type (0, 0), BuildingBlock: MIFKUJ_clean_linker_0, # of connection points: 2
#     Edge 84, Type (0, 0), BuildingBlock: MIFKUJ_clean_linker_0, # of connection points: 2
#     Edge 85, Type (0, 0), BuildingBlock: MIFKUJ_clean_linker_0, # of connection points: 2
#     Edge 86, Type (0, 0), BuildingBlock: MIFKUJ_clean_linker_0, # of connection points: 2
#     Edge 87, Type (0, 0), BuildingBlock: MIFKUJ_clean_linker_0, # of connection points: 2
#     Edge 88, Type (0, 0), BuildingBlock: MIFKUJ_clean_linker_0, # of connection points: 2
#     Edge 89, Type (0, 0), BuildingBlock: MIFKUJ_clean_linker_0, # of connection points: 2
#     Edge 90, Type (0, 0), BuildingBlock: MIFKUJ_clean_linker_0, # of connection points: 2
#     Edge 91, Type (0, 0), BuildingBlock: MIFKUJ_clean_linker_0, # of connection points: 2
#     Edge 92, Type (0, 0), BuildingBlock: MIFKUJ_clean_linker_0, # of connection points: 2
#     Edge 93, Type (0, 0), BuildingBlock: MIFKUJ_clean_linker_0, # of connection points: 2
#     Edge 94, Type (0, 0), BuildingBlock: MIFKUJ_clean_linker_0, # of connection points: 2
#     Edge 95, Type (0, 0), BuildingBlock: MIFKUJ_clean_linker_0, # of connection points: 2
#     Edge 96, Type (0, 0), BuildingBlock: MIFKUJ_clean_linker_0, # of connection points: 2
#     Edge 97, Type (0, 0), BuildingBlock: MIFKUJ_clean_linker_0, # of connection points: 2
#     Edge 98, Type (0, 0), BuildingBlock: MIFKUJ_clean_linker_0, # of connection points: 2
#     Edge 99, Type (0, 0), BuildingBlock: MIFKUJ_clean_linker_0, # of connection points: 2
#     Edge 100, Type (0, 0), BuildingBlock: MIFKUJ_clean_linker_0, # of connection points: 2
#     Edge 101, Type (0, 0), BuildingBlock: MIFKUJ_clean_linker_0, # of connection points: 2
#     Edge 102, Type (0, 0), BuildingBlock: MIFKUJ_clean_linker_0, # of connection points: 2
#     Edge 103, Type (0, 0), BuildingBlock: MIFKUJ_clean_linker_0, # of connection points: 2
#     Edge 104, Type (0, 0), BuildingBlock: MIFKUJ_clean_linker_0, # of connection points: 2
#     Edge 105, Type (0, 0), BuildingBlock: MIFKUJ_clean_linker_0, # of connection points: 2
#     Edge 106, Type (0, 0), BuildingBlock: MIFKUJ_clean_linker_0, # of connection points: 2
#     Edge 107, Type (0, 0), BuildingBlock: MIFKUJ_clean_linker_0, # of connection points: 2
# Relax obj value: 0.044
# Max RMSD: 0.095
# Mean RMSD: 0.095
data_MOF--net-uoh--node1-GALJAG_clean_sbu_0--edge1-MIFKUJ_clean_linker_0
_symmetry_space_group_name_H-M    P1
_symmetry_Int_Tables_number       1
_symmetry_cell_setting            triclinic
loop_
_symmetry_equiv_pos_as_xyz
'x, y, z'
_cell_length_a     111.9933
_cell_length_b     111.98703
_cell_length_c     37.374646
_cell_angle_alpha  89.989342
_cell_angle_beta   90.001421
_cell_angle_gamma 120.01414
loop_
_atom_site_label
_atom_site_type_symbol
_atom_site_fract_x
_atom_site_fract_y
_atom_site_fract_z
_atom_type_partial_charge
In0 In 0.23471 0.1398 0.19033 0.0
O1 O 0.2367 0.16083 0.19794 0.0
O2 O 0.21679 0.14298 0.20408 0.0
C3 C 0.26134 0.14839 0.17549 0.0
C4 C 0.23118 0.12973 0.25752 0.0
C5 C 0.22328 0.12819 0.12672 0.0
O6 O 0.25658 0.1565 0.17567 0.0
O7 O 0.25268 0.13602 0.18284 0.0
O8 O 0.22441 0.12127 0.15189 0.0
O9 O 0.22747 0.14063 0.13421 0.0
C10 C 0.22409 0.15598 0.20536 0.0
O11 O 0.22397 0.12226 0.23176 0.0
O12 O 0.2402 0.14181 0.24887 0.0
In13 In 0.86087 0.09973 0.17986 0.0
O14 O 0.84014 0.08005 0.18397 0.0
O15 O 0.85842 0.07859 0.18706 0.0
C16 C 0.85245 0.11845 0.17687 0.0
C17 C 0.87243 0.10394 0.24523 0.0
C18 C 0.87079 0.10091 0.11338 0.0
O19 O 0.84411 0.10564 0.17809 0.0
O20 O 0.865 0.12178 0.17697 0.0
O21 O 0.87861 0.10758 0.13916 0.0
O22 O 0.8582 0.09377 0.12132 0.0
C23 C 0.84539 0.07243 0.18811 0.0
O24 O 0.87964 0.10702 0.21706 0.0
O25 O 0.85973 0.09921 0.24013 0.0
In26 In 0.90611 0.76516 0.2165 0.0
O27 O 0.90053 0.77575 0.26081 0.0
O28 O 0.90292 0.75862 0.2744 0.0
C29 C 0.90473 0.77739 0.1559 0.0
C30 C 0.93325 0.77615 0.22677 0.0
C31 C 0.88781 0.73892 0.19898 0.0
O32 O 0.89694 0.7756 0.18228 0.0
O33 O 0.9133 0.77337 0.16066 0.0
O34 O 0.90064 0.74341 0.1996 0.0
O35 O 0.8843 0.74763 0.20742 0.0
C36 C 0.90059 0.76792 0.28512 0.0
O37 O 0.92547 0.76344 0.22039 0.0
O38 O 0.92733 0.78324 0.22717 0.0
In39 In 0.13978 0.24086 0.30214 0.0
O40 O 0.16105 0.24289 0.30035 0.0
O41 O 0.14346 0.22279 0.30508 0.0
C42 C 0.14722 0.2677 0.29846 0.0
C43 C 0.1283 0.23191 0.23716 0.0
C44 C 0.1304 0.23389 0.36971 0.0
O45 O 0.15585 0.26358 0.29803 0.0
O46 O 0.13476 0.25825 0.30062 0.0
O47 O 0.12302 0.22739 0.34309 0.0
O48 O 0.14208 0.24392 0.36189 0.0
C49 C 0.15641 0.23004 0.30257 0.0
O50 O 0.12094 0.22996 0.26465 0.0
O51 O 0.1411 0.23844 0.24277 0.0
In52 In 0.76555 0.90391 0.2966 0.0
O53 O 0.76339 0.92295 0.29316 0.0
O54 O 0.78367 0.92569 0.29582 0.0
C55 C 0.73876 0.88403 0.29872 0.0
C56 C 0.77357 0.90109 0.23066 0.0
C57 C 0.77408 0.90258 0.36307 0.0
O58 O 0.74252 0.89668 0.29705 0.0
O59 O 0.74849 0.88144 0.29912 0.0
O60 O 0.77727 0.89781 0.33636 0.0
O61 O 0.76671 0.90786 0.35597 0.0
C62 C 0.77626 0.93124 0.2934 0.0
O63 O 0.77657 0.89647 0.25803 0.0
O64 O 0.76651 0.90676 0.23678 0.0
In65 In 0.10166 0.86761 0.30208 0.0
O66 O 0.10876 0.88391 0.25723 0.0
O67 O 0.09358 0.86326 0.24535 0.0
C68 C 0.10835 0.88352 0.36136 0.0
C69 C 0.07516 0.84892 0.31559 0.0
C70 C 0.12017 0.85906 0.29938 0.0
O71 O 0.10157 0.8847 0.33601 0.0
O72 O 0.11215 0.87482 0.35601 0.0
O73 O 0.10823 0.85179 0.31234 0.0
O74 O 0.12277 0.8707 0.28753 0.0
C75 C 0.10084 0.8754 0.23408 0.0
O76 O 0.08395 0.84545 0.30743 0.0
O77 O 0.07988 0.86175 0.31781 0.0
In78 In 0.76255 0.85795 0.79926 0.0
O79 O 0.76048 0.83672 0.79468 0.0
O80 O 0.7806 0.85445 0.79229 0.0
C81 C 0.73606 0.85088 0.80948 0.0
C82 C 0.76743 0.86788 0.73196 0.0
C83 C 0.77279 0.86945 0.86347 0.0
O84 O 0.73994 0.84206 0.80858 0.0
O85 O 0.74555 0.86321 0.80532 0.0
O86 O 0.77378 0.87669 0.83641 0.0
O87 O 0.76683 0.85666 0.85779 0.0
C88 C 0.77331 0.84147 0.79136 0.0
O89 O 0.77464 0.87509 0.75803 0.0
O90 O 0.75784 0.85601 0.74023 0.0
In91 In 0.127 0.89494 0.79423 0.0
O92 O 0.10919 0.89083 0.75641 0.0
O93 O 0.12508 0.8873 0.73755 0.0
C94 C 0.11688 0.89594 0.85904 0.0
C95 C 0.14414 0.92117 0.77452 0.0
C96 C 0.13533 0.87665 0.80787 0.0
O97 O 0.10946 0.88738 0.83536 0.0
O98 O 0.12912 0.90405 0.84959 0.0
O99 O 0.14364 0.88946 0.80584 0.0
O100 O 0.12283 0.87308 0.80301 0.0
C101 C 0.11415 0.88746 0.73051 0.0
O102 O 0.14852 0.91316 0.78342 0.0
O103 O 0.13123 0.916 0.77632 0.0
In104 In 0.10177 0.22693 0.80062 0.0
O105 O 0.08505 0.23119 0.78026 0.0
O106 O 0.08061 0.21036 0.78251 0.0
C107 C 0.11732 0.25393 0.81531 0.0
C108 C 0.11137 0.22115 0.7407 0.0
C109 C 0.10078 0.21647 0.86657 0.0
O110 O 0.10431 0.24775 0.81581 0.0
O111 O 0.12247 0.24647 0.80755 0.0
O112 O 0.11057 0.21933 0.84517 0.0
O113 O 0.09147 0.21844 0.8542 0.0
C114 C 0.07644 0.21863 0.77475 0.0
O115 O 0.10448 0.21202 0.76375 0.0
O116 O 0.11385 0.2331 0.74872 0.0
In117 In 0.86598 0.76244 0.71724 0.0
O118 O 0.84452 0.75984 0.71857 0.0
O119 O 0.86187 0.78 0.72623 0.0
C120 C 0.85689 0.7357 0.7023 0.0
C121 C 0.87445 0.76694 0.78589 0.0
C122 C 0.88077 0.77449 0.65762 0.0
O123 O 0.84973 0.74131 0.69629 0.0
O124 O 0.86853 0.74355 0.71598 0.0
O125 O 0.88546 0.77042 0.6826 0.0
O126 O 0.86897 0.77283 0.66331 0.0
C127 C 0.84891 0.77249 0.72456 0.0
O128 O 0.88244 0.77377 0.76054 0.0
O129 O 0.86258 0.75774 0.77632 0.0
In130 In 0.23559 0.09309 0.69548 0.0
O131 O 0.23601 0.07305 0.69994 0.0
O132 O 0.21649 0.07188 0.695 0.0
C133 C 0.2628 0.11156 0.69406 0.0
C134 C 0.22818 0.09777 0.76056 0.0
C135 C 0.22884 0.09543 0.62761 0.0
O136 O 0.25818 0.09888 0.69956 0.0
O137 O 0.25371 0.11494 0.68967 0.0
O138 O 0.22442 0.09921 0.65398 0.0
O139 O 0.23645 0.09052 0.63581 0.0
C140 C 0.22305 0.06549 0.69842 0.0
O141 O 0.22497 0.10163 0.73212 0.0
O142 O 0.23512 0.09187 0.75582 0.0
In143 In 0.9065 0.14214 0.67792 0.0
O144 O 0.92653 0.16258 0.68316 0.0
O145 O 0.92743 0.14396 0.68253 0.0
C146 C 0.88791 0.15052 0.67021 0.0
C147 C 0.90176 0.13153 0.74454 0.0
C148 C 0.90517 0.13146 0.61252 0.0
O149 O 0.90073 0.1589 0.6707 0.0
O150 O 0.88455 0.13804 0.67388 0.0
O151 O 0.89862 0.12387 0.63881 0.0
O152 O 0.91222 0.14414 0.6195 0.0
C153 C 0.93392 0.15697 0.68465 0.0
O154 O 0.89879 0.12392 0.71714 0.0
O155 O 0.90677 0.14419 0.73804 0.0
In156 In 0.90034 0.46988 0.51934 0.0
O157 O 0.90422 0.49187 0.51928 0.0
O158 O 0.88373 0.47539 0.51043 0.0
C159 C 0.92661 0.47586 0.52722 0.0
C160 C 0.88976 0.45914 0.58399 0.0
C161 C 0.89412 0.45908 0.45305 0.0
O162 O 0.92332 0.48506 0.52367 0.0
O163 O 0.91661 0.46364 0.52733 0.0
O164 O 0.88617 0.45319 0.47924 0.0
O165 O 0.90499 0.47013 0.46059 0.0
C166 C 0.8917 0.48821 0.51414 0.0
O167 O 0.88901 0.45153 0.55805 0.0
O168 O 0.89585 0.47183 0.57712 0.0
In169 In 0.52522 0.42645 0.52836 0.0
O170 O 0.50502 0.40623 0.53072 0.0
O171 O 0.52376 0.40568 0.53532 0.0
C172 C 0.51558 0.444 0.51935 0.0
C173 C 0.53535 0.43178 0.5956 0.0
C174 C 0.53637 0.42801 0.46338 0.0
O175 O 0.50769 0.4312 0.52337 0.0
O176 O 0.52826 0.44792 0.52034 0.0
O177 O 0.54377 0.43444 0.49003 0.0
O178 O 0.52366 0.42082 0.46992 0.0
C179 C 0.51072 0.39902 0.53498 0.0
O180 O 0.54326 0.43571 0.56867 0.0
O181 O 0.52268 0.42555 0.58835 0.0
In182 In 0.5674 0.10334 0.52588 0.0
O183 O 0.58468 0.09878 0.5384 0.0
O184 O 0.58924 0.11965 0.53985 0.0
C185 C 0.55021 0.07691 0.50778 0.0
C186 C 0.55859 0.10829 0.58873 0.0
C187 C 0.568 0.11466 0.46163 0.0
O188 O 0.5622 0.081 0.51981 0.0
O189 O 0.54689 0.08612 0.50535 0.0
O190 O 0.55969 0.11353 0.48603 0.0
O191 O 0.57624 0.11057 0.4702 0.0
C192 C 0.59357 0.11127 0.54384 0.0
O193 O 0.56592 0.1178 0.56705 0.0
O194 O 0.55532 0.09637 0.57813 0.0
In195 In 0.80193 0.56617 0.61959 0.0
O196 O 0.8235 0.56912 0.61863 0.0
O197 O 0.80632 0.54866 0.61399 0.0
C198 C 0.81069 0.59302 0.63239 0.0
C199 C 0.79376 0.56086 0.55078 0.0
C200 C 0.78711 0.55453 0.67944 0.0
O201 O 0.81785 0.58755 0.63996 0.0
O202 O 0.7992 0.58498 0.61822 0.0
O203 O 0.78232 0.55816 0.65374 0.0
O204 O 0.79903 0.55641 0.67433 0.0
C205 C 0.81928 0.55639 0.61474 0.0
O206 O 0.78544 0.55482 0.57622 0.0
O207 O 0.8058 0.56965 0.56027 0.0
In208 In 0.43326 0.23017 0.65269 0.0
O209 O 0.43057 0.24854 0.63841 0.0
O210 O 0.45085 0.25145 0.63935 0.0
C211 C 0.40652 0.21196 0.66437 0.0
C212 C 0.4389 0.22107 0.59163 0.0
C213 C 0.44284 0.23173 0.71963 0.0
O214 O 0.41061 0.22402 0.65286 0.0
O215 O 0.41596 0.20913 0.67012 0.0
O216 O 0.44431 0.22462 0.6956 0.0
O217 O 0.43667 0.23798 0.70965 0.0
C218 C 0.44332 0.25669 0.63408 0.0
O219 O 0.44762 0.22626 0.61661 0.0
O220 O 0.42742 0.22008 0.59817 0.0
In221 In 0.76118 0.19156 0.64486 0.0
O222 O 0.74258 0.16982 0.64266 0.0
O223 O 0.73919 0.18667 0.65227 0.0
C224 C 0.78171 0.18579 0.63931 0.0
C225 C 0.76203 0.20225 0.5797 0.0
C226 C 0.76474 0.20175 0.71172 0.0
O227 O 0.76925 0.17653 0.64322 0.0
O228 O 0.78377 0.19795 0.63787 0.0
O229 O 0.76414 0.2084 0.68506 0.0
O230 O 0.76378 0.19033 0.70426 0.0
C231 C 0.73398 0.17383 0.6478 0.0
O232 O 0.76816 0.20992 0.60622 0.0
O233 O 0.75578 0.18952 0.5863 0.0
In234 In 0.43068 0.19709 0.14991 0.0
O235 O 0.42575 0.17505 0.14019 0.0
O236 O 0.44584 0.18962 0.15906 0.0
C237 C 0.40407 0.18966 0.13908 0.0
C238 C 0.44337 0.21113 0.08976 0.0
C239 C 0.43647 0.20589 0.21842 0.0
O240 O 0.40801 0.18103 0.14436 0.0
O241 O 0.41362 0.2021 0.13866 0.0
O242 O 0.44491 0.21209 0.19341 0.0
O243 O 0.42524 0.19572 0.20856 0.0
C244 C 0.43765 0.17742 0.14888 0.0
O245 O 0.43965 0.21647 0.11393 0.0
O246 O 0.44075 0.19905 0.0962 0.0
In247 In 0.79754 0.23499 0.14526 0.0
O248 O 0.81906 0.25266 0.13184 0.0
O249 O 0.80284 0.25719 0.13784 0.0
C250 C 0.80674 0.2173 0.15695 0.0
C251 C 0.78411 0.22776 0.08184 0.0
C252 C 0.78664 0.23375 0.21053 0.0
O253 O 0.8148 0.23002 0.15158 0.0
O254 O 0.79407 0.21357 0.15668 0.0
O255 O 0.77944 0.22631 0.18482 0.0
O256 O 0.79911 0.24187 0.203 0.0
C257 C 0.81542 0.26166 0.13126 0.0
O258 O 0.78117 0.23382 0.10578 0.0
O259 O 0.79341 0.22512 0.09034 0.0
In260 In 0.76555 0.57176 0.1183 0.0
O261 O 0.74639 0.57388 0.11585 0.0
O262 O 0.74412 0.55394 0.10828 0.0
C263 C 0.78493 0.59815 0.13086 0.0
C264 C 0.77009 0.56753 0.05 0.0
C265 C 0.7665 0.56016 0.18056 0.0
O266 O 0.7722 0.59419 0.1307 0.0
O267 O 0.78781 0.5888 0.12473 0.0
O268 O 0.7736 0.56056 0.15377 0.0
O269 O 0.75896 0.56539 0.17556 0.0
C270 C 0.7384 0.56121 0.10943 0.0
O271 O 0.77069 0.56035 0.07532 0.0
O272 O 0.76771 0.57693 0.05954 0.0
In273 In 0.52016 0.09361 0.0281 0.0
O274 O 0.49903 0.09179 0.03122 0.0
O275 O 0.51674 0.1119 0.02907 0.0
C276 C 0.51333 0.06695 0.0294 0.0
C277 C 0.53144 0.1013 0.09372 0.0
C278 C 0.52922 0.10044 0.96024 0.0
O279 O 0.50442 0.07072 0.02964 0.0
O280 O 0.52569 0.07665 0.02862 0.0
O281 O 0.53703 0.10644 0.98667 0.0
O282 O 0.51717 0.0912 0.96839 0.0
C283 C 0.50377 0.10468 0.03138 0.0
O284 O 0.53888 0.10467 0.06588 0.0
O285 O 0.51867 0.09411 0.08805 0.0
In286 In 0.89725 0.42953 0.01503 0.0
O287 O 0.88394 0.43293 0.05609 0.0
O288 O 0.90411 0.43758 0.07115 0.0
C289 C 0.88591 0.42987 0.95164 0.0
C290 C 0.8877 0.40283 0.03021 0.0
C291 C 0.9239 0.44767 0.00132 0.0
O292 O 0.88676 0.43761 0.97726 0.0
O293 O 0.89053 0.4219 0.95838 0.0
O294 O 0.91958 0.43503 0.00702 0.0
O295 O 0.91474 0.4511 0.00228 0.0
C296 C 0.89297 0.43691 0.08038 0.0
O297 O 0.90007 0.4108 0.02108 0.0
O298 O 0.88022 0.4083 0.03096 0.0
In299 In 0.56666 0.47673 0.03194 0.0
O300 O 0.58624 0.49761 0.03497 0.0
O301 O 0.58813 0.47957 0.03266 0.0
C302 C 0.54745 0.48453 0.03126 0.0
C303 C 0.56333 0.46521 0.09727 0.0
C304 C 0.56441 0.4667 0.9651 0.0
O305 O 0.5602 0.49311 0.03277 0.0
O306 O 0.54444 0.47208 0.03021 0.0
O307 O 0.55958 0.45884 0.992 0.0
O308 O 0.57027 0.4794 0.97211 0.0
C309 C 0.59413 0.49257 0.03476 0.0
O310 O 0.55921 0.45794 0.0692 0.0
O311 O 0.56881 0.478 0.09216 0.0
In312 In 0.56759 0.80498 0.87044 0.0
O313 O 0.55693 0.78801 0.913 0.0
O314 O 0.57067 0.80859 0.92993 0.0
C315 C 0.55777 0.79251 0.80699 0.0
C316 C 0.55545 0.82027 0.87487 0.0
C317 C 0.59443 0.81309 0.86132 0.0
O318 O 0.55766 0.7858 0.83435 0.0
O319 O 0.56255 0.80523 0.81205 0.0
O320 O 0.59002 0.82149 0.86038 0.0
O321 O 0.58534 0.80073 0.86714 0.0
C322 C 0.56248 0.79629 0.93885 0.0
O323 O 0.56839 0.82564 0.87192 0.0
O324 O 0.54873 0.80723 0.87499 0.0
In325 In 0.19593 0.76556 0.86931 0.0
O326 O 0.21399 0.77213 0.9087 0.0
O327 O 0.19446 0.76776 0.92888 0.0
C328 C 0.20785 0.76734 0.80509 0.0
C329 C 0.18044 0.73844 0.88137 0.0
C330 C 0.18561 0.78251 0.85934 0.0
O331 O 0.21407 0.77597 0.82977 0.0
O332 O 0.19594 0.75785 0.81317 0.0
O333 O 0.17829 0.76957 0.85684 0.0
O334 O 0.19811 0.78687 0.86666 0.0
C335 C 0.20674 0.77107 0.93578 0.0
O336 O 0.17521 0.74599 0.87549 0.0
O337 O 0.19346 0.74456 0.88023 0.0
In338 In 0.23106 0.42434 0.86582 0.0
O339 O 0.2283 0.43998 0.89952 0.0
O340 O 0.22302 0.4206 0.9226 0.0
C341 C 0.23131 0.43166 0.79714 0.0
C342 C 0.25803 0.43379 0.87749 0.0
C343 C 0.21103 0.39792 0.86144 0.0
O344 O 0.22702 0.43627 0.82189 0.0
O345 O 0.23531 0.4235 0.80724 0.0
O346 O 0.2231 0.40145 0.87193 0.0
O347 O 0.20907 0.40777 0.85325 0.0
C348 C 0.22403 0.43223 0.92665 0.0
O349 O 0.24945 0.42106 0.87503 0.0
O350 O 0.25294 0.44153 0.87448 0.0
In351 In 0.4625 0.89714 0.98037 0.0
O352 O 0.48367 0.89991 0.96773 0.0
O353 O 0.46629 0.87961 0.96694 0.0
C354 C 0.47159 0.92387 0.99399 0.0
C355 C 0.44911 0.89255 0.91736 0.0
C356 C 0.45273 0.88704 0.04614 0.0
O357 O 0.47969 0.91938 0.98701 0.0
O358 O 0.45894 0.91485 0.99414 0.0
O359 O 0.44491 0.88668 0.02127 0.0
O360 O 0.46521 0.89218 0.03743 0.0
C361 C 0.47913 0.8872 0.96282 0.0
O362 O 0.44506 0.8834 0.94135 0.0
O363 O 0.45949 0.90389 0.92567 0.0
In364 In 0.09461 0.56821 0.9777 0.0
O365 O 0.10547 0.56053 0.93935 0.0
O366 O 0.09578 0.57116 0.91789 0.0
C367 C 0.10207 0.56559 0.04448 0.0
C368 C 0.10663 0.59572 0.97571 0.0
C369 C 0.06758 0.54905 0.97736 0.0
O370 O 0.10541 0.56108 0.0175 0.0
O371 O 0.09509 0.5713 0.03753 0.0
O372 O 0.07179 0.56182 0.97676 0.0
O373 O 0.07699 0.546 0.97807 0.0
C374 C 0.10266 0.56528 0.9119 0.0
O375 O 0.09367 0.58797 0.97547 0.0
O376 O 0.11346 0.58954 0.9776 0.0
In377 In 0.42616 0.53155 0.96805 0.0
O378 O 0.40993 0.5095 0.9534 0.0
O379 O 0.40426 0.52502 0.95194 0.0
C380 C 0.44478 0.52393 0.9842 0.0
C381 C 0.43455 0.54636 0.9068 0.0
C382 C 0.42396 0.54052 0.0334 0.0
O383 O 0.43271 0.51544 0.97376 0.0
O384 O 0.44747 0.5363 0.9862 0.0
O385 O 0.43217 0.54856 0.00995 0.0
O386 O 0.41668 0.52819 0.02342 0.0
C387 C 0.40066 0.51251 0.94728 0.0
O388 O 0.4272 0.54804 0.92953 0.0
O389 O 0.43803 0.53767 0.91559 0.0
In390 In 0.09554 0.52271 0.48104 0.0
O391 O 0.1046 0.54061 0.44054 0.0
O392 O 0.09413 0.51999 0.42106 0.0
C393 C 0.10534 0.53399 0.54569 0.0
C394 C 0.10825 0.50796 0.47545 0.0
C395 C 0.06853 0.51413 0.48911 0.0
O396 O 0.1072 0.54137 0.5183 0.0
O397 O 0.09871 0.52118 0.54014 0.0
O398 O 0.073 0.50582 0.48644 0.0
O399 O 0.07766 0.52669 0.48727 0.0
C400 C 0.10072 0.53266 0.41371 0.0
O401 O 0.09532 0.50232 0.47937 0.0
O402 O 0.11468 0.52099 0.47486 0.0
In403 In 0.46798 0.56509 0.46839 0.0
O404 O 0.44916 0.5569 0.43079 0.0
O405 O 0.46939 0.5676 0.40864 0.0
C406 C 0.45926 0.56383 0.53613 0.0
C407 C 0.48481 0.59243 0.46467 0.0
C408 C 0.47423 0.54486 0.46825 0.0
O409 O 0.45155 0.56238 0.50973 0.0
O410 O 0.47101 0.56573 0.52799 0.0
O411 O 0.48333 0.55745 0.46634 0.0
O412 O 0.46197 0.54248 0.46989 0.0
C413 C 0.45659 0.56155 0.40304 0.0
O414 O 0.48934 0.58411 0.46486 0.0
O415 O 0.47187 0.58693 0.46715 0.0
In416 In 0.4317 0.90732 0.47704 0.0
O417 O 0.44042 0.89695 0.44008 0.0
O418 O 0.4242 0.89985 0.42102 0.0
C419 C 0.4349 0.9012 0.54489 0.0
C420 C 0.40479 0.89909 0.48092 0.0
C421 C 0.45135 0.9338 0.46676 0.0
O422 O 0.43363 0.89336 0.51905 0.0
O423 O 0.4349 0.91206 0.53616 0.0
O424 O 0.43863 0.92981 0.4658 0.0
O425 O 0.45418 0.92438 0.4725 0.0
C426 C 0.43226 0.89536 0.41478 0.0
O427 O 0.41382 0.91155 0.47552 0.0
O428 O 0.40945 0.89099 0.48538 0.0
In429 In 0.20648 0.43827 0.36372 0.0
O430 O 0.18559 0.43362 0.38577 0.0
O431 O 0.20108 0.4546 0.37817 0.0
C432 C 0.19604 0.41162 0.34618 0.0
C433 C 0.22228 0.4437 0.42288 0.0
C434 C 0.21472 0.44913 0.29784 0.0
O435 O 0.18863 0.41636 0.35771 0.0
O436 O 0.20875 0.42034 0.34371 0.0
O437 O 0.22294 0.44852 0.31991 0.0
O438 O 0.20267 0.44465 0.30949 0.0
C439 C 0.18894 0.44616 0.38807 0.0
O440 O 0.22323 0.45315 0.40268 0.0
O441 O 0.21392 0.43169 0.41232 0.0
In442 In 0.57084 0.76296 0.36894 0.0
O443 O 0.56066 0.76976 0.41167 0.0
O444 O 0.57596 0.76494 0.42791 0.0
C445 C 0.5592 0.76423 0.30709 0.0
C446 C 0.55921 0.73565 0.37737 0.0
C447 C 0.59735 0.78105 0.35301 0.0
O448 O 0.55987 0.77138 0.33403 0.0
O449 O 0.56412 0.7564 0.31182 0.0
O450 O 0.59297 0.76833 0.35713 0.0
O451 O 0.58842 0.78463 0.35742 0.0
C452 C 0.56736 0.76847 0.43717 0.0
O453 O 0.57201 0.7433 0.37208 0.0
O454 O 0.55233 0.74179 0.37778 0.0
In455 In 0.23789 0.80759 0.3675 0.0
O456 O 0.25579 0.82944 0.37417 0.0
O457 O 0.25997 0.81281 0.37588 0.0
C458 C 0.21996 0.81638 0.35287 0.0
C459 C 0.23329 0.79732 0.43466 0.0
C460 C 0.23645 0.79435 0.30569 0.0
O461 O 0.23269 0.82359 0.3464 0.0
O462 O 0.21632 0.80483 0.36691 0.0
O463 O 0.22719 0.78901 0.32934 0.0
O464 O 0.24645 0.80597 0.31385 0.0
C465 C 0.26465 0.82567 0.37789 0.0
O466 O 0.23258 0.79006 0.40792 0.0
O467 O 0.23588 0.80934 0.42716 0.0
H468 H 0.21737 0.11401 0.78123 0.0
H469 H 0.21227 0.11802 0.84263 0.0
H470 H 0.22506 0.09005 0.88282 0.0
H471 H 0.23017 0.08606 0.82207 0.0
H472 H 0.2014 0.08639 0.9161 0.0
H473 H 0.24699 0.12386 0.88464 0.0
H474 H 0.26347 0.14353 0.84784 0.0
H475 H 0.24084 0.16444 0.86837 0.0
H476 H 0.2241 0.14479 0.90493 0.0
H477 H 0.22177 0.1052 0.09667 0.0
H478 H 0.21832 0.09876 0.03338 0.0
H479 H 0.21137 0.13261 0.01081 0.0
H480 H 0.21533 0.13936 0.07375 0.0
H481 H 0.22907 0.13349 0.96628 0.0
H482 H 0.18514 0.09754 0.00456 0.0
H483 H 0.16849 0.07798 0.04132 0.0
H484 H 0.18698 0.0542 0.0082 0.0
H485 H 0.20388 0.07369 0.97161 0.0
C486 C 0.21898 0.10866 0.80319 0.0
C487 C 0.22428 0.09981 0.7969 0.0
C488 C 0.21608 0.11096 0.83819 0.0
C489 C 0.21835 0.10437 0.8673 0.0
C490 C 0.22319 0.09521 0.86081 0.0
C491 C 0.22619 0.09301 0.82605 0.0
C492 C 0.2165 0.10751 0.9048 0.0
C493 C 0.20745 0.09667 0.92721 0.0
C494 C 0.22414 0.12099 0.91899 0.0
C495 C 0.23421 0.1328 0.89712 0.0
C496 C 0.24546 0.1326 0.88105 0.0
C497 C 0.25486 0.14376 0.86028 0.0
C498 C 0.25318 0.15521 0.85567 0.0
C499 C 0.24211 0.15555 0.8719 0.0
C500 C 0.23267 0.14441 0.89265 0.0
C501 C 0.21921 0.11108 0.0783 0.0
C502 C 0.21886 0.1228 0.09008 0.0
C503 C 0.21719 0.10737 0.0421 0.0
C504 C 0.2145 0.11515 0.01717 0.0
C505 C 0.21348 0.12647 0.02938 0.0
C506 C 0.2157 0.13028 0.06541 0.0
C507 C 0.21405 0.11231 0.97809 0.0
C508 C 0.22275 0.12322 0.9553 0.0
C509 C 0.206 0.0989 0.96358 0.0
C510 C 0.19585 0.08713 0.98553 0.0
C511 C 0.18573 0.08818 0.00531 0.0
C512 C 0.17623 0.07709 0.02609 0.0
C513 C 0.1767 0.06486 0.02715 0.0
C514 C 0.18664 0.06368 0.00737 0.0
C515 C 0.19617 0.07474 0.98656 0.0
H516 H 0.16933 0.05629 0.04325 0.0
H517 H 0.26047 0.16384 0.83959 0.0
H518 H 0.88534 0.10499 0.76821 0.0
H519 H 0.88111 0.09704 0.83071 0.0
H520 H 0.9096 0.13836 0.86642 0.0
H521 H 0.91369 0.14636 0.80447 0.0
H522 H 0.91224 0.11728 0.90292 0.0
H523 H 0.87742 0.12888 0.86779 0.0
H524 H 0.85851 0.12684 0.82965 0.0
H525 H 0.83466 0.0836 0.85364 0.0
H526 H 0.85353 0.08536 0.89153 0.0
H527 H 0.8945 0.1213 0.08312 0.0
H528 H 0.90085 0.12389 0.01975 0.0
H529 H 0.86448 0.08478 0.99698 0.0
H530 H 0.85782 0.08254 0.05987 0.0
H531 H 0.86564 0.10209 0.95187 0.0
H532 H 0.89875 0.09037 0.9926 0.0
H533 H 0.91745 0.09168 0.03022 0.0
H534 H 0.94429 0.13334 0.99566 0.0
H535 H 0.92569 0.13235 0.9582 0.0
C536 C 0.89076 0.11232 0.78944 0.0
C537 C 0.89973 0.1263 0.78159 0.0
C538 C 0.88836 0.10778 0.82502 0.0
C539 C 0.89503 0.11714 0.8531 0.0
C540 C 0.90439 0.13098 0.84513 0.0
C541 C 0.90663 0.13554 0.80975 0.0
C542 C 0.89164 0.11287 0.89094 0.0
C543 C 0.90208 0.11398 0.91381 0.0
C544 C 0.87829 0.10825 0.90474 0.0
C545 C 0.86694 0.10722 0.8821 0.0
C546 C 0.86819 0.11891 0.86466 0.0
C547 C 0.85748 0.11782 0.84315 0.0
C548 C 0.84541 0.10509 0.83913 0.0
C549 C 0.84402 0.09345 0.85671 0.0
C550 C 0.85472 0.09449 0.87821 0.0
C551 C 0.888 0.11319 0.06461 0.0
C552 C 0.87565 0.10176 0.07628 0.0
C553 C 0.89166 0.11462 0.0284 0.0
C554 C 0.88321 0.10447 0.00345 0.0
C555 C 0.87115 0.09278 0.01555 0.0
C556 C 0.86736 0.09149 0.05153 0.0
C557 C 0.88627 0.10652 0.96446 0.0
C558 C 0.87577 0.1051 0.94122 0.0
C559 C 0.89953 0.11068 0.95035 0.0
C560 C 0.91077 0.11132 0.9728 0.0
C561 C 0.9086 0.09985 0.99322 0.0
C562 C 0.9192 0.10053 0.01448 0.0
C563 C 0.93204 0.11259 0.01539 0.0
C564 C 0.93433 0.124 0.99495 0.0
C565 C 0.92377 0.12338 0.97366 0.0
H566 H 0.94023 0.1131 0.03186 0.0
H567 H 0.83712 0.10426 0.82247 0.0
H568 H 0.88144 0.77601 0.12902 0.0
H569 H 0.8768 0.77798 0.06582 0.0
H570 H 0.91897 0.79058 0.03952 0.0
H571 H 0.9236 0.78837 0.10244 0.0
H572 H 0.90565 0.80383 0.9975 0.0
H573 H 0.89982 0.75941 0.03528 0.0
H574 H 0.89019 0.73933 0.07579 0.0
H575 H 0.84913 0.72993 0.04865 0.0
H576 H 0.85855 0.75014 0.0085 0.0
H577 H 0.90013 0.78293 0.81524 0.0
H578 H 0.90583 0.78761 0.87895 0.0
H579 H 0.86268 0.76273 0.90572 0.0
H580 H 0.85707 0.75759 0.84262 0.0
H581 H 0.87633 0.75666 0.9488 0.0
H582 H 0.88088 0.79922 0.90811 0.0
H583 H 0.8894 0.81992 0.87017 0.0
H584 H 0.93093 0.83339 0.90347 0.0
H585 H 0.92268 0.81266 0.94127 0.0
C586 C 0.88982 0.77965 0.10993 0.0
C587 C 0.90283 0.7819 0.12041 0.0
C588 C 0.88716 0.78075 0.07391 0.0
C589 C 0.89753 0.78432 0.04815 0.0
C590 C 0.91087 0.78785 0.05909 0.0
C591 C 0.91347 0.78652 0.09496 0.0
C592 C 0.894 0.78218 0.00973 0.0
C593 C 0.89931 0.79355 0.98662 0.0
C594 C 0.88555 0.76876 0.99596 0.0
C595 C 0.87989 0.75637 0.01921 0.0
C596 C 0.88874 0.75312 0.03815 0.0
C597 C 0.88333 0.74171 0.06104 0.0
C598 C 0.86906 0.73338 0.06488 0.0
C599 C 0.86018 0.73641 0.0457 0.0
C600 C 0.86555 0.74784 0.02288 0.0
C601 C 0.89191 0.77846 0.83482 0.0
C602 C 0.87818 0.76986 0.82404 0.0
C603 C 0.89514 0.78122 0.87117 0.0
C604 C 0.88466 0.77567 0.8972 0.0
C605 C 0.87096 0.76711 0.88626 0.0
C606 C 0.86777 0.76418 0.85013 0.0
C607 C 0.88788 0.77836 0.93595 0.0
C608 C 0.88258 0.76702 0.95933 0.0
C609 C 0.89617 0.79184 0.94991 0.0
C610 C 0.90117 0.80432 0.92724 0.0
C611 C 0.89184 0.80654 0.90713 0.0
C612 C 0.89662 0.81829 0.88568 0.0
C613 C 0.9107 0.82794 0.88433 0.0
C614 C 0.92003 0.82589 0.9045 0.0
C615 C 0.9153 0.81415 0.92597 0.0
H616 H 0.91438 0.83703 0.86772 0.0
H617 H 0.86488 0.72457 0.08266 0.0
H618 H 0.14401 0.248 0.42906 0.0
H619 H 0.13919 0.24046 0.49104 0.0
H620 H 0.10322 0.20265 0.45812 0.0
H621 H 0.10796 0.21027 0.39534 0.0
H622 H 0.09845 0.21335 0.51925 0.0
H623 H 0.13094 0.20111 0.481 0.0
H624 H 0.15173 0.20371 0.45112 0.0
H625 H 0.17737 0.23667 0.52272 0.0
H626 H 0.15673 0.23442 0.55273 0.0
H627 H 0.0981 0.19673 0.70437 0.0
H628 H 0.10025 0.19335 0.64024 0.0
H629 H 0.13374 0.2353 0.63212 0.0
H630 H 0.13148 0.23879 0.69574 0.0
H631 H 0.13709 0.21551 0.5897 0.0
H632 H 0.10274 0.22956 0.61741 0.0
H633 H 0.08154 0.22537 0.64853 0.0
H634 H 0.05867 0.18613 0.59619 0.0
H635 H 0.07979 0.19003 0.56515 0.0
C636 C 0.135 0.23811 0.43489 0.0
C637 C 0.12641 0.22968 0.40729 0.0
C638 C 0.13231 0.23378 0.47037 0.0
C639 C 0.12103 0.22085 0.47912 0.0
C640 C 0.11205 0.2126 0.45186 0.0
C641 C 0.11475 0.21698 0.4161 0.0
C642 C 0.11895 0.2162 0.51694 0.0
C643 C 0.10676 0.21347 0.53446 0.0
C644 C 0.12974 0.21624 0.53681 0.0
C645 C 0.14225 0.21763 0.51904 0.0
C646 C 0.141 0.20898 0.49025 0.0
C647 C 0.15277 0.21038 0.4733 0.0
C648 C 0.16586 0.22036 0.48499 0.0
C649 C 0.16722 0.22894 0.51371 0.0
C650 C 0.15549 0.22759 0.53074 0.0
C651 C 0.10618 0.20508 0.68907 0.0
C652 C 0.11459 0.21804 0.70485 0.0
C653 C 0.10735 0.20315 0.65249 0.0
C654 C 0.11708 0.21412 0.6315 0.0
C655 C 0.12618 0.22671 0.6479 0.0
C656 C 0.12487 0.2287 0.6842 0.0
C657 C 0.11687 0.21325 0.59197 0.0
C658 C 0.12865 0.21498 0.57419 0.0
C659 C 0.10561 0.21204 0.57183 0.0
C660 C 0.09285 0.21001 0.58929 0.0
C661 C 0.09319 0.22003 0.61265 0.0
C662 C 0.0812 0.2177 0.63028 0.0
C663 C 0.06878 0.20546 0.62448 0.0
C664 C 0.0683 0.19559 0.60074 0.0
C665 C 0.08027 0.19785 0.58311 0.0
H666 H 0.05953 0.20362 0.63836 0.0
H667 H 0.17496 0.22143 0.47183 0.0
H668 H 0.78243 0.88517 0.39018 0.0
H669 H 0.78458 0.88095 0.45376 0.0
H670 H 0.7765 0.91351 0.48295 0.0
H671 H 0.77401 0.91751 0.41995 0.0
H672 H 0.79953 0.89564 0.51439 0.0
H673 H 0.75245 0.90148 0.54804 0.0
H674 H 0.73241 0.90029 0.51715 0.0
H675 H 0.73294 0.87203 0.4404 0.0
H676 H 0.75274 0.87279 0.47133 0.0
H677 H 0.78807 0.89245 0.70505 0.0
H678 H 0.79201 0.89967 0.642 0.0
H679 H 0.75667 0.86093 0.61145 0.0
H680 H 0.75261 0.85377 0.67385 0.0
H681 H 0.756 0.88177 0.58017 0.0
H682 H 0.78912 0.867 0.59737 0.0
H683 H 0.80881 0.86679 0.62624 0.0
H684 H 0.83508 0.90947 0.59935 0.0
H685 H 0.81549 0.90998 0.57074 0.0
C686 C 0.78139 0.89158 0.4102 0.0
C687 C 0.77781 0.90149 0.40028 0.0
C688 C 0.78268 0.88921 0.44644 0.0
C689 C 0.78046 0.89677 0.473 0.0
C690 C 0.77804 0.90742 0.46287 0.0
C691 C 0.77659 0.90967 0.42687 0.0
C692 C 0.77896 0.89249 0.51102 0.0
C693 C 0.79006 0.89265 0.52889 0.0
C694 C 0.76649 0.88836 0.52968 0.0
C695 C 0.75417 0.88732 0.51179 0.0
C696 C 0.74821 0.89493 0.52475 0.0
C697 C 0.73689 0.89432 0.50724 0.0
C698 C 0.73142 0.88612 0.47678 0.0
C699 C 0.73718 0.87839 0.46397 0.0
C700 C 0.74845 0.8789 0.4815 0.0
C701 C 0.78116 0.88551 0.68481 0.0
C702 C 0.77001 0.87257 0.69436 0.0
C703 C 0.78346 0.8896 0.64885 0.0
C704 C 0.77467 0.88079 0.62204 0.0
C705 C 0.76357 0.8679 0.63168 0.0
C706 C 0.76127 0.86382 0.6674 0.0
C707 C 0.77662 0.88502 0.58392 0.0
C708 C 0.76555 0.88485 0.56591 0.0
C709 C 0.78901 0.88886 0.56513 0.0
C710 C 0.8008 0.88857 0.58226 0.0
C711 C 0.79907 0.87638 0.59789 0.0
C712 C 0.81022 0.87619 0.61415 0.0
C713 C 0.82318 0.88812 0.61472 0.0
C714 C 0.82503 0.90024 0.59894 0.0
C715 C 0.81391 0.90049 0.58268 0.0
H716 H 0.8318 0.88796 0.62732 0.0
H717 H 0.72273 0.88576 0.46314 0.0
H718 H 0.12287 0.87922 0.67297 0.0
H719 H 0.11847 0.88149 0.61023 0.0
H720 H 0.08982 0.89476 0.64066 0.0
H721 H 0.09429 0.89266 0.70416 0.0
H722 H 0.0837 0.87454 0.57348 0.0
H723 H 0.11462 0.91925 0.62225 0.0
H724 H 0.1336 0.93451 0.66265 0.0
H725 H 0.16137 0.92558 0.60497 0.0
H726 H 0.14248 0.91004 0.56463 0.0
H727 H 0.09265 0.89351 0.39007 0.0
H728 H 0.09146 0.89843 0.45356 0.0
H729 H 0.12576 0.89224 0.47602 0.0
H730 H 0.12691 0.88722 0.41297 0.0
H731 H 0.12582 0.91301 0.51856 0.0
H732 H 0.09449 0.86558 0.47953 0.0
H733 H 0.0756 0.84837 0.44194 0.0
H734 H 0.04847 0.86191 0.48256 0.0
H735 H 0.06731 0.87937 0.51996 0.0
C736 C 0.11538 0.88231 0.66646 0.0
C737 C 0.10903 0.88591 0.69346 0.0
C738 C 0.11288 0.88359 0.63059 0.0
C739 C 0.10395 0.88843 0.62102 0.0
C740 C 0.09673 0.89101 0.64772 0.0
C741 C 0.0993 0.88979 0.68387 0.0
C742 C 0.10368 0.89222 0.58332 0.0
C743 C 0.09267 0.88322 0.56149 0.0
C744 C 0.11549 0.90344 0.56789 0.0
C745 C 0.12711 0.91343 0.59054 0.0
C746 C 0.12477 0.92052 0.61822 0.0
C747 C 0.1355 0.92921 0.64113 0.0
C748 C 0.14866 0.93098 0.63644 0.0
C749 C 0.15116 0.92419 0.60858 0.0
C750 C 0.14045 0.91545 0.58564 0.0
C751 C 0.10022 0.89367 0.4084 0.0
C752 C 0.10979 0.88987 0.39679 0.0
C753 C 0.09949 0.89643 0.44462 0.0
C754 C 0.10842 0.89553 0.46947 0.0
C755 C 0.11879 0.89299 0.45727 0.0
C756 C 0.1194 0.89008 0.42127 0.0
C757 C 0.10591 0.89521 0.50844 0.0
C758 C 0.11653 0.90475 0.53055 0.0
C759 C 0.09369 0.88451 0.52411 0.0
C760 C 0.08233 0.87388 0.50215 0.0
C761 C 0.08452 0.86494 0.48025 0.0
C762 C 0.07383 0.85514 0.459 0.0
C763 C 0.06086 0.85408 0.45977 0.0
C764 C 0.05854 0.86278 0.48191 0.0
C765 C 0.06922 0.87263 0.50313 0.0
H766 H 0.05259 0.84649 0.44328 0.0
H767 H 0.15689 0.93759 0.65447 0.0
H768 H 0.77749 0.91825 0.17548 0.0
H769 H 0.78163 0.91536 0.11288 0.0
H770 H 0.78242 0.87827 0.13969 0.0
H771 H 0.77889 0.88152 0.20308 0.0
H772 H 0.80042 0.89179 0.08749 0.0
H773 H 0.75277 0.87702 0.10832 0.0
H774 H 0.73313 0.87922 0.12974 0.0
H775 H 0.74463 0.91346 0.05886 0.0
H776 H 0.76446 0.91158 0.03735 0.0
H777 H 0.77577 0.85649 0.92129 0.0
H778 H 0.7803 0.86467 0.98305 0.0
H779 H 0.78416 0.90334 0.94978 0.0
H780 H 0.77968 0.8952 0.88759 0.0
H781 H 0.76522 0.8904 0.00423 0.0
H782 H 0.81199 0.90291 0.97936 0.0
H783 H 0.83066 0.89913 0.95785 0.0
H784 H 0.81954 0.8671 0.0358 0.0
H785 H 0.80067 0.87054 0.05747 0.0
C786 C 0.77873 0.90957 0.1681 0.0
C787 C 0.77768 0.89998 0.19392 0.0
C788 C 0.78106 0.90792 0.13231 0.0
C789 C 0.78195 0.89639 0.12141 0.0
C790 C 0.78167 0.88719 0.14746 0.0
C791 C 0.77963 0.88902 0.18359 0.0
C792 C 0.78218 0.89352 0.08269 0.0
C793 C 0.79266 0.89136 0.06932 0.0
C794 C 0.77216 0.89316 0.05884 0.0
C795 C 0.76017 0.89424 0.07149 0.0
C796 C 0.75116 0.88507 0.09747 0.0
C797 C 0.73999 0.88626 0.1096 0.0
C798 C 0.73766 0.8965 0.09574 0.0
C799 C 0.74646 0.90555 0.06962 0.0
C800 C 0.75766 0.90442 0.05742 0.0
C801 C 0.77782 0.86683 0.92701 0.0
C802 C 0.7773 0.87519 0.8997 0.0
C803 C 0.78048 0.87151 0.96229 0.0
C804 C 0.78263 0.88462 0.97095 0.0
C805 C 0.78258 0.8932 0.94356 0.0
C806 C 0.78005 0.88856 0.90811 0.0
C807 C 0.78348 0.88873 0.00896 0.0
C808 C 0.7731 0.89101 0.02228 0.0
C809 C 0.79345 0.88896 0.0327 0.0
C810 C 0.80484 0.88691 0.01986 0.0
C811 C 0.81345 0.89498 0.99174 0.0
C812 C 0.82408 0.89292 0.97955 0.0
C813 C 0.82626 0.88286 0.9954 0.0
C814 C 0.81783 0.87488 0.02354 0.0
C815 C 0.80718 0.8769 0.03582 0.0
H816 H 0.8345 0.88128 0.98591 0.0
H817 H 0.72901 0.8974 0.10517 0.0
H818 H 0.11802 0.8996 0.19918 0.0
H819 H 0.11813 0.90428 0.135 0.0
H820 H 0.08253 0.8639 0.11994 0.0
H821 H 0.08248 0.85913 0.18361 0.0
H822 H 0.10247 0.86842 0.07362 0.0
H823 H 0.08 0.89293 0.11347 0.0
H824 H 0.0772 0.90977 0.14967 0.0
H825 H 0.11478 0.94274 0.1062 0.0
H826 H 0.11791 0.92607 0.07009 0.0
H827 H 0.09321 0.8761 0.89084 0.0
H828 H 0.08772 0.87387 0.95484 0.0
H829 H 0.12473 0.91267 0.97496 0.0
H830 H 0.13026 0.91497 0.91119 0.0
H831 H 0.10273 0.90883 0.01822 0.0
H832 H 0.12631 0.88468 0.98309 0.0
H833 H 0.12979 0.8683 0.94675 0.0
H834 H 0.09083 0.83501 0.98243 0.0
H835 H 0.087 0.85126 0.01847 0.0
C836 C 0.11013 0.89181 0.18219 0.0
C837 C 0.10032 0.87897 0.1963 0.0
C838 C 0.11016 0.8945 0.14559 0.0
C839 C 0.10031 0.88444 0.1227 0.0
C840 C 0.09025 0.87179 0.13706 0.0
C841 C 0.09025 0.86909 0.17347 0.0
C842 C 0.10101 0.88662 0.08343 0.0
C843 C 0.10226 0.87712 0.06152 0.0
C844 C 0.10112 0.89817 0.0677 0.0
C845 C 0.09925 0.90823 0.08931 0.0
C846 C 0.08773 0.90376 0.11184 0.0
C847 C 0.08607 0.91328 0.1323 0.0
C848 C 0.09582 0.92731 0.1303 0.0
C849 C 0.10724 0.93187 0.10776 0.0
C850 C 0.10895 0.92239 0.08725 0.0
C851 C 0.1 0.88429 0.90881 0.0
C852 C 0.11224 0.89563 0.89615 0.0
C853 C 0.09688 0.883 0.94533 0.0
C854 C 0.10592 0.89303 0.96961 0.0
C855 C 0.11763 0.90482 0.95665 0.0
C856 C 0.1208 0.90608 0.92024 0.0
C857 C 0.10406 0.89057 0.00866 0.0
C858 C 0.10273 0.90004 0.03046 0.0
C859 C 0.10396 0.87904 0.02444 0.0
C860 C 0.1063 0.86921 0.00313 0.0
C861 C 0.11843 0.87388 0.98296 0.0
C862 C 0.12048 0.86462 0.96244 0.0
C863 C 0.11052 0.85062 0.96221 0.0
C864 C 0.09852 0.84586 0.98258 0.0
C865 C 0.0964 0.85509 0.00305 0.0
H866 H 0.11212 0.84346 0.94632 0.0
H867 H 0.09452 0.93467 0.14616 0.0
H868 H 0.07972 0.20767 0.91437 0.0
H869 H 0.08094 0.20555 0.97914 0.0
H870 H 0.12331 0.21543 0.96962 0.0
H871 H 0.12207 0.21732 0.90457 0.0
H872 H 0.10991 0.19636 0.02187 0.0
H873 H 0.11562 0.24042 0.98701 0.0
H874 H 0.10884 0.25578 0.95717 0.0
H875 H 0.07195 0.2388 0.0206 0.0
H876 H 0.07842 0.22318 0.05045 0.0
H877 H 0.14253 0.23146 0.17915 0.0
H878 H 0.13406 0.22407 0.11864 0.0
H879 H 0.0931 0.21368 0.15201 0.0
H880 H 0.1016 0.22112 0.21337 0.0
H881 H 0.10193 0.22972 0.09029 0.0
H882 H 0.09893 0.18817 0.13216 0.0
H883 H 0.10693 0.17384 0.16218 0.0
H884 H 0.13991 0.18701 0.08617 0.0
H885 H 0.13223 0.20159 0.05597 0.0
C886 C 0.08922 0.20911 0.92599 0.0
C887 C 0.10086 0.21281 0.9045 0.0
C888 C 0.08991 0.20794 0.96301 0.0
C889 C 0.1023 0.21061 0.97925 0.0
C890 C 0.11366 0.21338 0.95762 0.0
C891 C 0.11295 0.21446 0.92048 0.0
C892 C 0.10381 0.21176 0.01874 0.0
C893 C 0.10821 0.20367 0.03685 0.0
C894 C 0.10127 0.22108 0.03838 0.0
C895 C 0.09742 0.23052 0.02064 0.0
C896 C 0.10601 0.23989 0.99439 0.0
C897 C 0.10223 0.24865 0.97751 0.0
C898 C 0.08995 0.24824 0.9869 0.0
C899 C 0.08145 0.23908 0.01329 0.0
C900 C 0.08516 0.23028 0.0302 0.0
C901 C 0.13169 0.22753 0.1738 0.0
C902 C 0.12272 0.2269 0.201 0.0
C903 C 0.12685 0.22322 0.13919 0.0
C904 C 0.11293 0.21817 0.13093 0.0
C905 C 0.10388 0.21747 0.15798 0.0
C906 C 0.10872 0.2217 0.19292 0.0
C907 C 0.10824 0.21448 0.09339 0.0
C908 C 0.10332 0.22216 0.07553 0.0
C909 C 0.11042 0.20488 0.07399 0.0
C910 C 0.11504 0.19604 0.09191 0.0
C911 C 0.10795 0.18809 0.12198 0.0
C912 C 0.11242 0.17991 0.13901 0.0
C913 C 0.12393 0.17953 0.12612 0.0
C914 C 0.13099 0.18731 0.09612 0.0
C915 C 0.12657 0.19552 0.079 0.0
H916 H 0.12738 0.17319 0.13935 0.0
H917 H 0.08705 0.25503 0.97381 0.0
H918 H 0.89387 0.78596 0.31643 0.0
H919 H 0.89245 0.78958 0.38069 0.0
H920 H 0.90324 0.75842 0.40435 0.0
H921 H 0.90419 0.75447 0.34066 0.0
H922 H 0.88356 0.75496 0.44602 0.0
H923 H 0.92674 0.79375 0.41153 0.0
H924 H 0.9424 0.8144 0.37647 0.0
H925 H 0.92052 0.83462 0.41187 0.0
H926 H 0.9046 0.81401 0.44677 0.0
H927 H 0.89965 0.7689 0.62779 0.0
H928 H 0.90591 0.77104 0.56432 0.0
H929 H 0.88283 0.79171 0.54417 0.0
H930 H 0.8763 0.78935 0.60738 0.0
H931 H 0.90929 0.80134 0.50174 0.0
H932 H 0.86544 0.76085 0.53411 0.0
H933 H 0.8514 0.74039 0.57163 0.0
H934 H 0.87678 0.72338 0.54092 0.0
H935 H 0.89113 0.74389 0.50373 0.0
C936 C 0.89584 0.77985 0.33542 0.0
C937 C 0.89911 0.76992 0.32356 0.0
C938 C 0.89514 0.78199 0.3721 0.0
C939 C 0.89792 0.7744 0.3974 0.0
C940 C 0.90103 0.76439 0.38542 0.0
C941 C 0.90158 0.76215 0.34895 0.0
C942 C 0.89743 0.77662 0.43642 0.0
C943 C 0.88933 0.7651 0.45809 0.0
C944 C 0.90483 0.78986 0.45234 0.0
C945 C 0.91439 0.80228 0.43145 0.0
C946 C 0.9252 0.80256 0.41161 0.0
C947 C 0.93413 0.81426 0.39181 0.0
C948 C 0.93243 0.8258 0.39186 0.0
C949 C 0.92181 0.82567 0.4118 0.0
C950 C 0.91283 0.81398 0.43162 0.0
C951 C 0.89631 0.77431 0.61006 0.0
C952 C 0.88739 0.77884 0.62229 0.0
C953 C 0.89987 0.77551 0.57387 0.0
C954 C 0.89473 0.78144 0.5497 0.0
C955 C 0.88692 0.78714 0.5625 0.0
C956 C 0.88315 0.78573 0.59853 0.0
C957 C 0.89557 0.77969 0.51079 0.0
C958 C 0.90361 0.79125 0.48934 0.0
C959 C 0.8883 0.76647 0.495 0.0
C960 C 0.87944 0.75396 0.51647 0.0
C961 C 0.86808 0.75279 0.53557 0.0
C962 C 0.86007 0.74118 0.55676 0.0
C963 C 0.86322 0.73061 0.55875 0.0
C964 C 0.87436 0.73159 0.53941 0.0
C965 C 0.88244 0.7432 0.51827 0.0
H966 H 0.85702 0.72164 0.57521 0.0
H967 H 0.93936 0.83485 0.37652 0.0
H968 H 0.23774 0.08804 0.56864 0.0
H969 H 0.23526 0.09266 0.5062 0.0
H970 H 0.21123 0.11126 0.53789 0.0
H971 H 0.21369 0.10665 0.60104 0.0
H972 H 0.20154 0.09477 0.47319 0.0
H973 H 0.24206 0.13229 0.52249 0.0
H974 H 0.26371 0.14343 0.55701 0.0
H975 H 0.28157 0.12692 0.48466 0.0
H976 H 0.25991 0.11547 0.45003 0.0
H977 H 0.24133 0.14607 0.31587 0.0
H978 H 0.23809 0.13936 0.37852 0.0
H979 H 0.21329 0.0966 0.34806 0.0
H980 H 0.21608 0.10342 0.28473 0.0
H981 H 0.2463 0.12584 0.41427 0.0
H982 H 0.19095 0.07829 0.4163 0.0
H983 H 0.16879 0.06974 0.38476 0.0
H984 H 0.17976 0.11125 0.35759 0.0
H985 H 0.20189 0.12006 0.38936 0.0
C986 C 0.23177 0.09297 0.56244 0.0
C987 C 0.22603 0.09712 0.58981 0.0
C988 C 0.23034 0.09556 0.52668 0.0
C989 C 0.22314 0.10238 0.51747 0.0
C990 C 0.21679 0.10595 0.54451 0.0
C991 C 0.21827 0.10339 0.58052 0.0
C992 C 0.22353 0.10688 0.47997 0.0
C993 C 0.21128 0.10157 0.46016 0.0
C994 C 0.23623 0.11601 0.46337 0.0
C995 C 0.24932 0.12291 0.48389 0.0
C996 C 0.25056 0.13093 0.51413 0.0
C997 C 0.26283 0.13732 0.53369 0.0
C998 C 0.27399 0.13586 0.52309 0.0
C999 C 0.27291 0.12802 0.49287 0.0
C1000 C 0.26064 0.12159 0.47325 0.0
C1001 C 0.23514 0.13522 0.32242 0.0
C1002 C 0.22901 0.12525 0.29536 0.0
C1003 C 0.2333 0.1314 0.35835 0.0
C1004 C 0.22541 0.11748 0.36823 0.0
C1005 C 0.21924 0.10744 0.34123 0.0
C1006 C 0.22091 0.11131 0.30505 0.0
C1007 C 0.22428 0.11364 0.40676 0.0
C1008 C 0.23647 0.11904 0.42695 0.0
C1009 C 0.21147 0.10499 0.42383 0.0
C1010 C 0.19814 0.09981 0.40487 0.0
C1011 C 0.18861 0.08559 0.40368 0.0
C1012 C 0.17606 0.0807 0.38575 0.0
C1013 C 0.17289 0.08994 0.36907 0.0
C1014 C 0.18225 0.1041 0.37039 0.0
C1015 C 0.19481 0.10904 0.38831 0.0
H1016 H 0.16317 0.08614 0.3552 0.0
H1017 H 0.28347 0.14085 0.53826 0.0
H1018 H 0.92367 0.14378 0.55905 0.0
H1019 H 0.92082 0.13732 0.49596 0.0
H1020 H 0.8814 0.10151 0.51929 0.0
H1021 H 0.88448 0.10769 0.58301 0.0
H1022 H 0.8942 0.09588 0.46693 0.0
H1023 H 0.88365 0.13165 0.49117 0.0
H1024 H 0.88802 0.15407 0.51458 0.0
H1025 H 0.92294 0.1751 0.44473 0.0
H1026 H 0.91889 0.15278 0.42126 0.0
H1027 H 0.85844 0.0903 0.30466 0.0
H1028 H 0.86704 0.09332 0.36593 0.0
H1029 H 0.90758 0.12388 0.32978 0.0
H1030 H 0.89904 0.12068 0.26785 0.0
H1031 H 0.89639 0.1323 0.38688 0.0
H1032 H 0.90389 0.09515 0.35693 0.0
H1033 H 0.8979 0.0722 0.33395 0.0
H1034 H 0.86663 0.053 0.41456 0.0
H1035 H 0.8722 0.07585 0.43755 0.0
C1036 C 0.9145 0.13439 0.55082 0.0
C1037 C 0.9042 0.12631 0.57573 0.0
C1038 C 0.91287 0.13074 0.51476 0.0
C1039 C 0.90074 0.11914 0.50276 0.0
C1040 C 0.89081 0.11055 0.52794 0.0
C1041 C 0.89256 0.11409 0.56428 0.0
C1042 C 0.89796 0.11668 0.46383 0.0
C1043 C 0.89457 0.10379 0.44944 0.0
C1044 C 0.89866 0.1271 0.44091 0.0
C1045 C 0.90105 0.14054 0.45474 0.0
C1046 C 0.89232 0.14105 0.48098 0.0
C1047 C 0.89473 0.15374 0.49424 0.0
C1048 C 0.90577 0.166 0.48123 0.0
C1049 C 0.9144 0.1656 0.45483 0.0
C1050 C 0.91205 0.15293 0.44153 0.0
C1051 C 0.86922 0.09758 0.30968 0.0
C1052 C 0.87807 0.10535 0.28162 0.0
C1053 C 0.87414 0.09921 0.34464 0.0
C1054 C 0.88795 0.10876 0.35228 0.0
C1055 C 0.8969 0.1164 0.32427 0.0
C1056 C 0.89202 0.11458 0.28903 0.0
C1057 C 0.8926 0.1115 0.38996 0.0
C1058 C 0.89623 0.12444 0.40422 0.0
C1059 C 0.89185 0.10104 0.41272 0.0
C1060 C 0.88839 0.08725 0.39879 0.0
C1061 C 0.89562 0.08605 0.36953 0.0
C1062 C 0.89232 0.07305 0.35652 0.0
C1063 C 0.88188 0.06115 0.37275 0.0
C1064 C 0.87473 0.06223 0.40203 0.0
C1065 C 0.87794 0.07521 0.41503 0.0
H1066 H 0.87936 0.0511 0.36268 0.0
H1067 H 0.90762 0.17582 0.49152 0.0
H1068 H 0.8682 0.42903 0.11314 0.0
H1069 H 0.86424 0.42992 0.1775 0.0
H1070 H 0.90816 0.45078 0.19591 0.0
H1071 H 0.91211 0.44965 0.13223 0.0
H1072 H 0.89515 0.42937 0.23946 0.0
H1073 H 0.88908 0.4674 0.20039 0.0
H1074 H 0.8781 0.47804 0.16564 0.0
H1075 H 0.83896 0.45019 0.21332 0.0
H1076 H 0.84969 0.43927 0.24805 0.0
H1077 H 0.9123 0.46629 0.39855 0.0
H1078 H 0.90758 0.45889 0.33633 0.0
H1079 H 0.8644 0.43302 0.36088 0.0
H1080 H 0.86912 0.4403 0.42399 0.0
H1081 H 0.87135 0.45152 0.29769 0.0
H1082 H 0.87909 0.41642 0.34467 0.0
H1083 H 0.89098 0.40703 0.38056 0.0
H1084 H 0.92776 0.43028 0.31825 0.0
H1085 H 0.91616 0.43997 0.28231 0.0
C1086 C 0.87699 0.43401 0.13094 0.0
C1087 C 0.89046 0.43923 0.11779 0.0
C1088 C 0.87472 0.43449 0.16765 0.0
C1089 C 0.88591 0.44034 0.19153 0.0
C1090 C 0.89936 0.44608 0.17805 0.0
C1091 C 0.90161 0.4455 0.14161 0.0
C1092 C 0.88384 0.44003 0.23079 0.0
C1093 C 0.88996 0.43423 0.25215 0.0
C1094 C 0.87658 0.44586 0.24736 0.0
C1095 C 0.87014 0.4524 0.22643 0.0
C1096 C 0.87811 0.46346 0.2032 0.0
C1097 C 0.87194 0.46956 0.18357 0.0
C1098 C 0.85783 0.46476 0.18717 0.0
C1099 C 0.84988 0.45387 0.21049 0.0
C1100 C 0.856 0.44773 0.23016 0.0
C1101 C 0.9018 0.45895 0.39085 0.0
C1102 C 0.89107 0.45384 0.41605 0.0
C1103 C 0.89913 0.45473 0.35531 0.0
C1104 C 0.88567 0.44539 0.34415 0.0
C1105 C 0.87486 0.44023 0.36914 0.0
C1106 C 0.87758 0.44432 0.40507 0.0
C1107 C 0.88319 0.44142 0.30602 0.0
C1108 C 0.87622 0.44635 0.2849 0.0
C1109 C 0.88974 0.43487 0.28954 0.0
C1110 C 0.89675 0.42897 0.31088 0.0
C1111 C 0.88974 0.41961 0.33876 0.0
C1112 C 0.89643 0.41422 0.3591 0.0
C1113 C 0.91012 0.41807 0.35172 0.0
C1114 C 0.91715 0.4273 0.32393 0.0
C1115 C 0.91051 0.43273 0.30352 0.0
H1116 H 0.91528 0.41389 0.3675 0.0
H1117 H 0.85307 0.4695 0.17196 0.0
H1118 H 0.57789 0.4787 0.15631 0.0
H1119 H 0.57492 0.46991 0.21744 0.0
H1120 H 0.54253 0.43015 0.18186 0.0
H1121 H 0.54566 0.43884 0.12012 0.0
H1122 H 0.53598 0.44276 0.24158 0.0
H1123 H 0.57036 0.43147 0.20523 0.0
H1124 H 0.59256 0.43633 0.17918 0.0
H1125 H 0.61431 0.46726 0.25918 0.0
H1126 H 0.59222 0.46274 0.28541 0.0
H1127 H 0.52369 0.41093 0.40739 0.0
H1128 H 0.53019 0.41518 0.34442 0.0
H1129 H 0.56712 0.45298 0.37251 0.0
H1130 H 0.56079 0.44857 0.43606 0.0
H1131 H 0.57157 0.44034 0.31545 0.0
H1132 H 0.53923 0.45403 0.34919 0.0
H1133 H 0.51799 0.45123 0.37667 0.0
H1134 H 0.49352 0.41895 0.30208 0.0
H1135 H 0.51466 0.4213 0.27475 0.0
C1136 C 0.57022 0.46804 0.16141 0.0
C1137 C 0.56195 0.45945 0.13355 0.0
C1138 C 0.5686 0.46302 0.19629 0.0
C1139 C 0.55857 0.44938 0.20405 0.0
C1140 C 0.55038 0.4407 0.17626 0.0
C1141 C 0.55218 0.44565 0.14111 0.0
C1142 C 0.55605 0.4446 0.24165 0.0
C1143 C 0.54362 0.44191 0.25755 0.0
C1144 C 0.56632 0.44414 0.26273 0.0
C1145 C 0.57962 0.44684 0.2471 0.0
C1146 C 0.57987 0.4394 0.21709 0.0
C1147 C 0.59244 0.44207 0.20232 0.0
C1148 C 0.60484 0.45212 0.21747 0.0
C1149 C 0.6047 0.45949 0.24746 0.0
C1150 C 0.59215 0.45686 0.26231 0.0
C1151 C 0.53334 0.42002 0.40025 0.0
C1152 C 0.54166 0.42953 0.42651 0.0
C1153 C 0.53703 0.42244 0.36425 0.0
C1154 C 0.54897 0.43454 0.35372 0.0
C1155 C 0.55782 0.4436 0.38008 0.0
C1156 C 0.5542 0.44109 0.41632 0.0
C1157 C 0.5514 0.43831 0.31527 0.0
C1158 C 0.56384 0.44096 0.29934 0.0
C1159 C 0.54128 0.43907 0.29421 0.0
C1160 C 0.52853 0.43773 0.31019 0.0
C1161 C 0.52932 0.44626 0.33882 0.0
C1162 C 0.5173 0.44476 0.35436 0.0
C1163 C 0.5044 0.43492 0.34114 0.0
C1164 C 0.50352 0.42656 0.31232 0.0
C1165 C 0.51552 0.42795 0.29683 0.0
H1166 H 0.4951 0.43378 0.35319 0.0
H1167 H 0.61456 0.45417 0.206 0.0
H1168 H 0.54682 0.1166 0.43164 0.0
H1169 H 0.54281 0.1178 0.36769 0.0
H1170 H 0.5824 0.12207 0.34354 0.0
H1171 H 0.58644 0.12072 0.40743 0.0
H1172 H 0.574 0.13821 0.2977 0.0
H1173 H 0.55833 0.09206 0.34147 0.0
H1174 H 0.54577 0.07294 0.38408 0.0
H1175 H 0.50778 0.07136 0.35666 0.0
H1176 H 0.52017 0.09068 0.3144 0.0
H1177 H 0.55827 0.11259 0.11689 0.0
H1178 H 0.56654 0.11775 0.17899 0.0
H1179 H 0.52509 0.10436 0.21493 0.0
H1180 H 0.51682 0.09888 0.15363 0.0
H1181 H 0.53582 0.09328 0.25496 0.0
H1182 H 0.55083 0.13905 0.21124 0.0
H1183 H 0.56311 0.15902 0.17096 0.0
H1184 H 0.60169 0.16191 0.19864 0.0
H1185 H 0.5896 0.14183 0.23875 0.0
C1186 C 0.55484 0.11818 0.4128 0.0
C1187 C 0.56688 0.11842 0.42442 0.0
C1188 C 0.55252 0.11885 0.37631 0.0
C1189 C 0.56226 0.11989 0.351 0.0
C1190 C 0.57479 0.12128 0.36271 0.0
C1191 C 0.57704 0.12045 0.39918 0.0
C1192 C 0.55858 0.11762 0.31262 0.0
C1193 C 0.56576 0.12837 0.28814 0.0
C1194 C 0.54774 0.1048 0.30045 0.0
C1195 C 0.5402 0.0929 0.32504 0.0
C1196 C 0.54731 0.0877 0.34471 0.0
C1197 C 0.54023 0.07682 0.36879 0.0
C1198 C 0.52599 0.07096 0.37315 0.0
C1199 C 0.51881 0.07593 0.3533 0.0
C1200 C 0.52586 0.08684 0.32927 0.0
C1201 C 0.55099 0.11084 0.1381 0.0
C1202 C 0.5369 0.10527 0.13046 0.0
C1203 C 0.55571 0.11384 0.17353 0.0
C1204 C 0.54644 0.11149 0.20168 0.0
C1205 C 0.53244 0.10618 0.19378 0.0
C1206 C 0.52772 0.10307 0.15865 0.0
C1207 C 0.55103 0.11399 0.23963 0.0
C1208 C 0.54407 0.10317 0.26422 0.0
C1209 C 0.56201 0.12678 0.25179 0.0
C1210 C 0.56929 0.13884 0.22767 0.0
C1211 C 0.56192 0.14387 0.2085 0.0
C1212 C 0.56885 0.15522 0.18575 0.0
C1213 C 0.58317 0.1617 0.18216 0.0
C1214 C 0.59059 0.15686 0.20139 0.0
C1215 C 0.58371 0.1455 0.22415 0.0
H1216 H 0.58851 0.1705 0.16454 0.0
H1217 H 0.52053 0.06256 0.39184 0.0
H1218 H 0.76785 0.55996 0.70751 0.0
H1219 H 0.76178 0.55874 0.77093 0.0
H1220 H 0.78569 0.53924 0.79479 0.0
H1221 H 0.792 0.54064 0.73161 0.0
H1222 H 0.7599 0.52993 0.83802 0.0
H1223 H 0.80244 0.57071 0.79992 0.0
H1224 H 0.81548 0.59055 0.75968 0.0
H1225 H 0.7892 0.60672 0.78857 0.0
H1226 H 0.77583 0.58681 0.82847 0.0
H1227 H 0.77716 0.54941 0.02082 0.0
H1228 H 0.77787 0.54455 0.95708 0.0
H1229 H 0.76525 0.57407 0.92986 0.0
H1230 H 0.76502 0.57928 0.99296 0.0
H1231 H 0.78461 0.57745 0.88736 0.0
H1232 H 0.74271 0.53828 0.92762 0.0
H1233 H 0.72813 0.51811 0.96549 0.0
H1234 H 0.7511 0.49878 0.93201 0.0
H1235 H 0.76595 0.51893 0.89429 0.0
C1236 C 0.77141 0.55498 0.72608 0.0
C1237 C 0.78051 0.55053 0.71486 0.0
C1238 C 0.76795 0.55431 0.76224 0.0
C1239 C 0.77341 0.54902 0.78741 0.0
C1240 C 0.78137 0.54332 0.77569 0.0
C1241 C 0.78501 0.54419 0.73967 0.0
C1242 C 0.77278 0.55149 0.826 0.0
C1243 C 0.76535 0.54028 0.84902 0.0
C1244 C 0.77976 0.56502 0.83998 0.0
C1245 C 0.78805 0.5772 0.81686 0.0
C1246 C 0.79939 0.57845 0.79749 0.0
C1247 C 0.80684 0.58971 0.77476 0.0
C1248 C 0.80315 0.59987 0.77148 0.0
C1249 C 0.79203 0.59883 0.79108 0.0
C1250 C 0.78451 0.58756 0.81376 0.0
C1251 C 0.77462 0.55489 0.00115 0.0
C1252 C 0.77107 0.56473 0.01183 0.0
C1253 C 0.77492 0.55204 0.96478 0.0
C1254 C 0.77143 0.55881 0.93864 0.0
C1255 C 0.768 0.56872 0.94944 0.0
C1256 C 0.76787 0.57168 0.98558 0.0
C1257 C 0.77156 0.55588 0.89992 0.0
C1258 C 0.77904 0.56705 0.87668 0.0
C1259 C 0.76445 0.54231 0.88582 0.0
C1260 C 0.75554 0.53017 0.90843 0.0
C1261 C 0.74473 0.52977 0.92855 0.0
C1262 C 0.7364 0.51834 0.94995 0.0
C1263 C 0.73871 0.50719 0.95123 0.0
C1264 C 0.74934 0.50743 0.93104 0.0
C1265 C 0.7577 0.51886 0.90962 0.0
H1266 H 0.73226 0.49834 0.96781 0.0
H1267 H 0.80892 0.60857 0.75383 0.0
H1268 H 0.4395 0.24555 0.77489 0.0
H1269 H 0.44492 0.24502 0.83775 0.0
H1270 H 0.46175 0.21879 0.81228 0.0
H1271 H 0.45601 0.21902 0.74903 0.0
H1272 H 0.44436 0.20852 0.86591 0.0
H1273 H 0.48268 0.25272 0.83992 0.0
H1274 H 0.49481 0.27638 0.81583 0.0
H1275 H 0.47199 0.28781 0.88659 0.0
H1276 H 0.45958 0.26415 0.91078 0.0
H1277 H 0.45903 0.20556 0.04526 0.0
H1278 H 0.46462 0.2126 0.98287 0.0
H1279 H 0.4455 0.23769 0.99234 0.0
H1280 H 0.44033 0.23104 0.05548 0.0
H1281 H 0.46737 0.24919 0.94614 0.0
H1282 H 0.42674 0.20425 0.96405 0.0
H1283 H 0.41426 0.18054 0.98791 0.0
H1284 H 0.44166 0.17074 0.93142 0.0
H1285 H 0.45439 0.19446 0.90751 0.0
C1286 C 0.44451 0.23979 0.78255 0.0
C1287 C 0.44729 0.23228 0.75707 0.0
C1288 C 0.44771 0.2396 0.81852 0.0
C1289 C 0.45392 0.23202 0.82973 0.0
C1290 C 0.45701 0.22476 0.80419 0.0
C1291 C 0.45375 0.2249 0.76811 0.0
C1292 C 0.45595 0.23071 0.86847 0.0
C1293 C 0.44969 0.21743 0.88327 0.0
C1294 C 0.46262 0.24234 0.89132 0.0
C1295 C 0.47013 0.25662 0.87701 0.0
C1296 C 0.48018 0.26025 0.85019 0.0
C1297 C 0.48712 0.27367 0.83653 0.0
C1298 C 0.48416 0.28359 0.84963 0.0
C1299 C 0.47427 0.28011 0.87647 0.0
C1300 C 0.4673 0.2667 0.8902 0.0
C1301 C 0.45634 0.21287 0.03429 0.0
C1302 C 0.4491 0.21764 0.05493 0.0
C1303 C 0.45951 0.21685 0.99863 0.0
C1304 C 0.45516 0.22538 0.98273 0.0
C1305 C 0.44889 0.23104 0.00407 0.0
C1306 C 0.44592 0.22724 0.04008 0.0
C1307 C 0.45566 0.22704 0.94331 0.0
C1308 C 0.4623 0.24033 0.92852 0.0
C1309 C 0.44933 0.21544 0.92032 0.0
C1310 C 0.44156 0.20113 0.93422 0.0
C1311 C 0.43012 0.19705 0.95683 0.0
C1312 C 0.42301 0.18361 0.97033 0.0
C1313 C 0.42716 0.17414 0.96115 0.0
C1314 C 0.43844 0.17808 0.93843 0.0
C1315 C 0.4456 0.19151 0.92488 0.0
H1316 H 0.42165 0.16375 0.97168 0.0
H1317 H 0.48954 0.29397 0.83901 0.0
H1318 H 0.76189 0.22314 0.738 0.0
H1319 H 0.76171 0.22911 0.80126 0.0
H1320 H 0.76969 0.19665 0.83253 0.0
H1321 H 0.76962 0.19054 0.77007 0.0
H1322 H 0.74927 0.19547 0.87102 0.0
H1323 H 0.79494 0.23126 0.83296 0.0
H1324 H 0.81117 0.25108 0.79616 0.0
H1325 H 0.79224 0.27416 0.8319 0.0
H1326 H 0.77579 0.2544 0.86859 0.0
H1327 H 0.78369 0.20931 0.03439 0.0
H1328 H 0.77627 0.20615 0.97205 0.0
H1329 H 0.76406 0.23686 0.98428 0.0
H1330 H 0.77134 0.23994 0.04737 0.0
H1331 H 0.78179 0.24096 0.92418 0.0
H1332 H 0.73934 0.206 0.97246 0.0
H1333 H 0.72415 0.18611 0.01043 0.0
H1334 H 0.73774 0.16125 0.95613 0.0
H1335 H 0.75317 0.18104 0.91817 0.0
C1336 C 0.76371 0.21739 0.75846 0.0
C1337 C 0.76573 0.20636 0.74916 0.0
C1338 C 0.7636 0.22079 0.79453 0.0
C1339 C 0.76564 0.21328 0.82164 0.0
C1340 C 0.76795 0.20249 0.81214 0.0
C1341 C 0.76798 0.19905 0.77637 0.0
C1342 C 0.76527 0.21633 0.86013 0.0
C1343 C 0.75638 0.20543 0.88264 0.0
C1344 C 0.77416 0.22945 0.87517 0.0
C1345 C 0.78402 0.2413 0.8531 0.0
C1346 C 0.79416 0.24052 0.83271 0.0
C1347 C 0.80342 0.25175 0.81193 0.0
C1348 C 0.8027 0.26386 0.81158 0.0
C1349 C 0.79276 0.26477 0.83211 0.0
C1350 C 0.78347 0.25356 0.85291 0.0
C1351 C 0.77922 0.21523 0.024 0.0
C1352 C 0.77805 0.22484 0.04565 0.0
C1353 C 0.77496 0.21341 0.98842 0.0
C1354 C 0.76957 0.22124 0.97365 0.0
C1355 C 0.76815 0.23069 0.99531 0.0
C1356 C 0.77223 0.23238 0.03127 0.0
C1357 C 0.76627 0.21992 0.935 0.0
C1358 C 0.77442 0.23112 0.91247 0.0
C1359 C 0.75679 0.20704 0.91988 0.0
C1360 C 0.74746 0.19505 0.94254 0.0
C1361 C 0.73916 0.19632 0.96877 0.0
C1362 C 0.73049 0.18506 0.99027 0.0
C1363 C 0.72999 0.17243 0.98572 0.0
C1364 C 0.73814 0.17104 0.95961 0.0
C1365 C 0.74683 0.18227 0.93805 0.0
H1366 H 0.72327 0.16372 0.0024 0.0
H1367 H 0.80988 0.27254 0.79549 0.0
H1368 H 0.42067 0.20443 0.54169 0.0
H1369 H 0.42533 0.20201 0.47923 0.0
H1370 H 0.46893 0.22854 0.49741 0.0
H1371 H 0.46428 0.23094 0.56055 0.0
H1372 H 0.45883 0.23674 0.43962 0.0
H1373 H 0.45822 0.19607 0.47784 0.0
H1374 H 0.44977 0.17411 0.51019 0.0
H1375 H 0.41198 0.15632 0.45044 0.0
H1376 H 0.42011 0.17823 0.41808 0.0
H1377 H 0.46145 0.2236 0.24951 0.0
H1378 H 0.46659 0.22686 0.31392 0.0
H1379 H 0.42365 0.19901 0.33742 0.0
H1380 H 0.41853 0.1956 0.27374 0.0
H1381 H 0.43992 0.19232 0.37462 0.0
H1382 H 0.43854 0.23411 0.34686 0.0
H1383 H 0.44621 0.25618 0.31563 0.0
H1384 H 0.48722 0.27175 0.35635 0.0
H1385 H 0.47981 0.24969 0.38748 0.0
C1386 C 0.43128 0.20951 0.53262 0.0
C1387 C 0.44212 0.21785 0.5559 0.0
C1388 C 0.43394 0.20809 0.49693 0.0
C1389 C 0.44748 0.21505 0.48373 0.0
C1390 C 0.45841 0.22305 0.50717 0.0
C1391 C 0.45576 0.22433 0.54319 0.0
C1392 C 0.44981 0.21473 0.44482 0.0
C1393 C 0.45506 0.22707 0.42536 0.0
C1394 C 0.44472 0.2021 0.42631 0.0
C1395 C 0.43978 0.18884 0.44559 0.0
C1396 C 0.44807 0.18751 0.47174 0.0
C1397 C 0.44334 0.17506 0.49007 0.0
C1398 C 0.43034 0.16383 0.4824 0.0
C1399 C 0.42205 0.16502 0.45634 0.0
C1400 C 0.42673 0.17745 0.43794 0.0
C1401 C 0.45312 0.21833 0.26852 0.0
C1402 C 0.43961 0.20931 0.25667 0.0
C1403 C 0.45606 0.22018 0.30524 0.0
C1404 C 0.44551 0.2131 0.33045 0.0
C1405 C 0.43198 0.20445 0.31846 0.0
C1406 C 0.42906 0.20257 0.28203 0.0
C1407 C 0.44831 0.21424 0.36944 0.0
C1408 C 0.44406 0.20203 0.38886 0.0
C1409 C 0.45423 0.22698 0.38785 0.0
C1410 C 0.45867 0.2402 0.36906 0.0
C1411 C 0.44922 0.2422 0.34887 0.0
C1412 C 0.45352 0.25471 0.33125 0.0
C1413 C 0.46721 0.26535 0.33389 0.0
C1414 C 0.47663 0.2635 0.35425 0.0
C1415 C 0.47239 0.25099 0.37189 0.0
H1416 H 0.47051 0.27503 0.32025 0.0
H1417 H 0.42669 0.1542 0.49662 0.0
H1418 H 0.74468 0.18831 0.5252 0.0
H1419 H 0.74661 0.19533 0.46277 0.0
H1420 H 0.78216 0.23463 0.48856 0.0
H1421 H 0.78008 0.2277 0.55173 0.0
H1422 H 0.7657 0.23708 0.43737 0.0
H1423 H 0.78691 0.20963 0.45667 0.0
H1424 H 0.7883 0.1895 0.47786 0.0
H1425 H 0.75476 0.16301 0.40872 0.0
H1426 H 0.75304 0.18297 0.3875 0.0
H1427 H 0.79906 0.25113 0.26654 0.0
H1428 H 0.79208 0.24719 0.32936 0.0
H1429 H 0.75566 0.20899 0.30104 0.0
H1430 H 0.76256 0.21292 0.23792 0.0
H1431 H 0.77167 0.20616 0.35327 0.0
H1432 H 0.75201 0.23478 0.33076 0.0
H1433 H 0.75177 0.25549 0.30943 0.0
H1434 H 0.78387 0.28053 0.38385 0.0
H1435 H 0.78445 0.25999 0.40529 0.0
C1436 C 0.75283 0.19852 0.51771 0.0
C1437 C 0.76238 0.2074 0.54316 0.0
C1438 C 0.75391 0.20251 0.48201 0.0
C1439 C 0.7647 0.21538 0.47092 0.0
C1440 C 0.77379 0.22462 0.4966 0.0
C1441 C 0.77263 0.22066 0.53258 0.0
C1442 C 0.76703 0.21863 0.43221 0.0
C1443 C 0.76715 0.23041 0.41898 0.0
C1444 C 0.76872 0.2098 0.40819 0.0
C1445 C 0.76976 0.19777 0.42078 0.0
C1446 C 0.77976 0.1995 0.4462 0.0
C1447 C 0.78062 0.18812 0.45818 0.0
C1448 C 0.7716 0.17498 0.44472 0.0
C1449 C 0.76173 0.1732 0.41917 0.0
C1450 C 0.76081 0.18454 0.40714 0.0
C1451 C 0.78943 0.24202 0.27361 0.0
C1452 C 0.78137 0.23229 0.24741 0.0
C1453 C 0.78543 0.23982 0.30948 0.0
C1454 C 0.77334 0.22782 0.3198 0.0
C1455 C 0.76501 0.21833 0.29353 0.0
C1456 C 0.76893 0.2206 0.25754 0.0
C1457 C 0.77022 0.22454 0.35825 0.0
C1458 C 0.77008 0.21277 0.37153 0.0
C1459 C 0.76869 0.23347 0.3822 0.0
C1460 C 0.76836 0.24585 0.36941 0.0
C1461 C 0.75911 0.24472 0.34237 0.0
C1462 C 0.75889 0.25643 0.3303 0.0
C1463 C 0.76782 0.26932 0.34522 0.0
C1464 C 0.77696 0.27053 0.3723 0.0
C1465 C 0.77723 0.25886 0.38445 0.0
H1466 H 0.76764 0.27837 0.33584 0.0
H1467 H 0.77228 0.16619 0.45402 0.0
H1468 H 0.76809 0.5489 0.52005 0.0
H1469 H 0.76269 0.54533 0.45596 0.0
H1470 H 0.80586 0.56175 0.43218 0.0
H1471 H 0.81129 0.56591 0.49565 0.0
H1472 H 0.79666 0.57297 0.39036 0.0
H1473 H 0.78048 0.5262 0.42462 0.0
H1474 H 0.76713 0.50483 0.45948 0.0
H1475 H 0.72933 0.50224 0.42494 0.0
H1476 H 0.74246 0.5237 0.39023 0.0
H1477 H 0.78774 0.55722 0.20627 0.0
H1478 H 0.79154 0.55331 0.26882 0.0
H1479 H 0.75199 0.54828 0.29755 0.0
H1480 H 0.74822 0.55237 0.23537 0.0
H1481 H 0.75959 0.53004 0.33525 0.0
H1482 H 0.77694 0.5783 0.30527 0.0
H1483 H 0.79082 0.59918 0.26898 0.0
H1484 H 0.82756 0.59805 0.29533 0.0
H1485 H 0.81384 0.57701 0.3313 0.0
C1486 C 0.77637 0.55166 0.50104 0.0
C1487 C 0.7901 0.55778 0.51268 0.0
C1488 C 0.77328 0.54953 0.46447 0.0
C1489 C 0.78386 0.55317 0.43913 0.0
C1490 C 0.79752 0.55893 0.45107 0.0
C1491 C 0.80062 0.5613 0.48738 0.0
C1492 C 0.78093 0.55185 0.40008 0.0
C1493 C 0.78872 0.56346 0.37839 0.0
C1494 C 0.7704 0.53956 0.38428 0.0
C1495 C 0.76246 0.52664 0.40509 0.0
C1496 C 0.76932 0.52113 0.42467 0.0
C1497 C 0.76179 0.50899 0.44437 0.0
C1498 C 0.74739 0.5022 0.4445 0.0
C1499 C 0.74049 0.50752 0.42485 0.0
C1500 C 0.74797 0.51966 0.40513 0.0
C1501 C 0.77972 0.55493 0.22578 0.0
C1502 C 0.76776 0.55523 0.21617 0.0
C1503 C 0.7819 0.55271 0.26142 0.0
C1504 C 0.77207 0.5506 0.2877 0.0
C1505 C 0.75966 0.54985 0.2776 0.0
C1506 C 0.75757 0.55226 0.24215 0.0
C1507 C 0.77542 0.55107 0.32611 0.0
C1508 C 0.76765 0.5394 0.34751 0.0
C1509 C 0.78608 0.56324 0.34173 0.0
C1510 C 0.79435 0.576 0.32061 0.0
C1511 C 0.78796 0.58244 0.30308 0.0
C1512 C 0.7958 0.59431 0.28261 0.0
C1513 C 0.81006 0.59991 0.27977 0.0
C1514 C 0.81651 0.59368 0.2975 0.0
C1515 C 0.80872 0.58179 0.31793 0.0
H1516 H 0.81611 0.6091 0.2639 0.0
H1517 H 0.74159 0.4928 0.45976 0.0
H1518 H 0.53762 0.09038 0.63149 0.0
H1519 H 0.53385 0.0935 0.6945 0.0
H1520 H 0.56891 0.13471 0.69205 0.0
H1521 H 0.57251 0.13178 0.62849 0.0
H1522 H 0.56821 0.11539 0.74896 0.0
H1523 H 0.54188 0.13461 0.70105 0.0
H1524 H 0.5246 0.1354 0.66181 0.0
H1525 H 0.49272 0.09802 0.70903 0.0
H1526 H 0.50985 0.09688 0.7482 0.0
H1527 H 0.55355 0.12159 0.93347 0.0
H1528 H 0.55994 0.127 0.87017 0.0
H1529 H 0.52097 0.09207 0.83899 0.0
H1530 H 0.51447 0.08688 0.90155 0.0
H1531 H 0.52609 0.11316 0.79879 0.0
H1532 H 0.55169 0.09141 0.83838 0.0
H1533 H 0.56826 0.08872 0.87609 0.0
H1534 H 0.60065 0.1287 0.84342 0.0
H1535 H 0.5842 0.13169 0.80583 0.0
C1536 C 0.54436 0.10019 0.6442 0.0
C1537 C 0.55532 0.11086 0.62517 0.0
C1538 C 0.54221 0.10196 0.68013 0.0
C1539 C 0.55112 0.11433 0.69781 0.0
C1540 C 0.56192 0.12511 0.67875 0.0
C1541 C 0.5639 0.12345 0.64249 0.0
C1542 C 0.54948 0.1155 0.73672 0.0
C1543 C 0.55918 0.11525 0.76001 0.0
C1544 C 0.53753 0.11496 0.75086 0.0
C1545 C 0.52718 0.11561 0.72738 0.0
C1546 C 0.53121 0.12649 0.70285 0.0
C1547 C 0.52143 0.12701 0.68067 0.0
C1548 C 0.50757 0.11675 0.68288 0.0
C1549 C 0.50346 0.10595 0.70734 0.0
C1550 C 0.51319 0.10537 0.72957 0.0
C1551 C 0.54639 0.1151 0.91302 0.0
C1552 C 0.53352 0.10381 0.92246 0.0
C1553 C 0.55005 0.11817 0.8769 0.0
C1554 C 0.54095 0.10991 0.84976 0.0
C1555 C 0.52813 0.09866 0.85935 0.0
C1556 C 0.52445 0.09566 0.89521 0.0
C1557 C 0.54464 0.11268 0.81125 0.0
C1558 C 0.5353 0.11362 0.78795 0.0
C1559 C 0.55681 0.11362 0.79707 0.0
C1560 C 0.56669 0.11185 0.8197 0.0
C1561 C 0.56232 0.09968 0.8395 0.0
C1562 C 0.57169 0.09809 0.86079 0.0
C1563 C 0.58549 0.10855 0.86226 0.0
C1564 C 0.58995 0.12061 0.84233 0.0
C1565 C 0.58061 0.12226 0.82103 0.0
H1566 H 0.59273 0.1073 0.87874 0.0
H1567 H 0.50002 0.11718 0.66568 0.0
H1568 H 0.88452 0.47254 0.63645 0.0
H1569 H 0.87912 0.46576 0.69898 0.0
H1570 H 0.87832 0.42756 0.67663 0.0
H1571 H 0.88344 0.43421 0.6134 0.0
H1572 H 0.8587 0.42424 0.7269 0.0
H1573 H 0.90723 0.45417 0.70738 0.0
H1574 H 0.9279 0.47504 0.68547 0.0
H1575 H 0.91828 0.50028 0.75233 0.0
H1576 H 0.89742 0.47954 0.77427 0.0
H1577 H 0.8806 0.41236 0.89576 0.0
H1578 H 0.8763 0.41579 0.8336 0.0
H1579 H 0.87665 0.4532 0.86325 0.0
H1580 H 0.88096 0.44981 0.92571 0.0
H1581 H 0.89488 0.45705 0.80984 0.0
H1582 H 0.84728 0.42605 0.83425 0.0
H1583 H 0.82719 0.40471 0.85631 0.0
H1584 H 0.83566 0.38088 0.78119 0.0
H1585 H 0.85594 0.40207 0.75901 0.0
C1586 C 0.883 0.4626 0.64471 0.0
C1587 C 0.88461 0.45398 0.62028 0.0
C1588 C 0.8799 0.45874 0.68044 0.0
C1589 C 0.87861 0.44629 0.69256 0.0
C1590 C 0.87934 0.43724 0.66778 0.0
C1591 C 0.88229 0.44105 0.63177 0.0
C1592 C 0.87784 0.44344 0.73145 0.0
C1593 C 0.86665 0.43133 0.74507 0.0
C1594 C 0.88811 0.45284 0.75515 0.0
C1595 C 0.90069 0.46532 0.74217 0.0
C1596 C 0.90947 0.46418 0.71721 0.0
C1597 C 0.92122 0.47598 0.70481 0.0
C1598 C 0.92438 0.48898 0.71743 0.0
C1599 C 0.91581 0.4902 0.74254 0.0
C1600 C 0.90402 0.47843 0.75498 0.0
C1601 C 0.87948 0.42117 0.88917 0.0
C1602 C 0.88121 0.43087 0.91549 0.0
C1603 C 0.87695 0.42308 0.85367 0.0
C1604 C 0.87611 0.43472 0.84385 0.0
C1605 C 0.87723 0.44412 0.87035 0.0
C1606 C 0.87966 0.44216 0.90598 0.0
C1607 C 0.87571 0.43786 0.80553 0.0
C1608 C 0.8868 0.45002 0.79187 0.0
C1609 C 0.86542 0.42843 0.78193 0.0
C1610 C 0.85321 0.41565 0.79516 0.0
C1611 C 0.84494 0.41625 0.82263 0.0
C1612 C 0.8335 0.40418 0.83512 0.0
C1613 C 0.83017 0.39144 0.82022 0.0
C1614 C 0.83826 0.39076 0.79273 0.0
C1615 C 0.84972 0.4028 0.78015 0.0
H1616 H 0.8213 0.38211 0.82992 0.0
H1617 H 0.93349 0.49811 0.70781 0.0
H1618 H 0.52188 0.41599 0.65275 0.0
H1619 H 0.52846 0.42046 0.71559 0.0
H1620 H 0.56597 0.45753 0.68622 0.0
H1621 H 0.55967 0.45263 0.62269 0.0
H1622 H 0.57095 0.44591 0.74078 0.0
H1623 H 0.53663 0.45816 0.71558 0.0
H1624 H 0.51447 0.45486 0.69307 0.0
H1625 H 0.49257 0.42153 0.76711 0.0
H1626 H 0.5146 0.42452 0.78973 0.0
H1627 H 0.57888 0.48126 0.90683 0.0
H1628 H 0.57548 0.47363 0.8445 0.0
H1629 H 0.54323 0.43328 0.87683 0.0
H1630 H 0.54672 0.44081 0.93958 0.0
H1631 H 0.53592 0.44614 0.82168 0.0
H1632 H 0.57179 0.43591 0.84907 0.0
H1633 H 0.5946 0.44116 0.87164 0.0
H1634 H 0.61438 0.47333 0.79348 0.0
H1635 H 0.59168 0.46841 0.77076 0.0
C1636 C 0.5316 0.42503 0.65967 0.0
C1637 C 0.5402 0.43408 0.63299 0.0
C1638 C 0.53533 0.42761 0.69561 0.0
C1639 C 0.54752 0.43955 0.7058 0.0
C1640 C 0.55646 0.4483 0.67905 0.0
C1641 C 0.55286 0.44553 0.64282 0.0
C1642 C 0.5505 0.44314 0.74434 0.0
C1643 C 0.56334 0.4461 0.75835 0.0
C1644 C 0.54054 0.44326 0.76751 0.0
C1645 C 0.52726 0.44148 0.7541 0.0
C1646 C 0.52708 0.45007 0.72689 0.0
C1647 C 0.51455 0.44826 0.71413 0.0
C1648 C 0.50212 0.43797 0.72859 0.0
C1649 C 0.50221 0.42949 0.7559 0.0
C1650 C 0.51471 0.43124 0.76872 0.0
C1651 C 0.57117 0.47071 0.90073 0.0
C1652 C 0.56302 0.46163 0.928 0.0
C1653 C 0.5693 0.46635 0.86514 0.0
C1654 C 0.55915 0.45288 0.85613 0.0
C1655 C 0.55114 0.44371 0.88334 0.0
C1656 C 0.55316 0.448 0.9191 0.0
C1657 C 0.55627 0.44877 0.81804 0.0
C1658 C 0.54347 0.44582 0.80409 0.0
C1659 C 0.56636 0.44895 0.79494 0.0
C1660 C 0.58003 0.45187 0.80842 0.0
C1661 C 0.581 0.44418 0.83688 0.0
C1662 C 0.59391 0.44708 0.84967 0.0
C1663 C 0.60593 0.45759 0.83406 0.0
C1664 C 0.60506 0.4652 0.80557 0.0
C1665 C 0.59218 0.46235 0.79269 0.0
H1666 H 0.61592 0.45982 0.84401 0.0
H1667 H 0.49243 0.43658 0.71868 0.0
H1668 H 0.55825 0.76994 0.78121 0.0
H1669 H 0.55679 0.76323 0.71811 0.0
H1670 H 0.54769 0.79504 0.68835 0.0
H1671 H 0.54944 0.80198 0.75108 0.0
H1672 H 0.53259 0.76848 0.64827 0.0
H1673 H 0.57857 0.80423 0.685 0.0
H1674 H 0.59884 0.81346 0.72476 0.0
H1675 H 0.60427 0.77907 0.69936 0.0
H1676 H 0.58386 0.76952 0.65993 0.0
H1677 H 0.55333 0.78052 0.46552 0.0
H1678 H 0.54925 0.7827 0.52905 0.0
H1679 H 0.57102 0.76133 0.55762 0.0
H1680 H 0.57564 0.75974 0.49467 0.0
H1681 H 0.57877 0.78148 0.59975 0.0
H1682 H 0.53445 0.74598 0.56045 0.0
H1683 H 0.51356 0.73519 0.52285 0.0
H1684 H 0.50418 0.76651 0.55391 0.0
H1685 H 0.52512 0.7776 0.59134 0.0
C1686 C 0.55556 0.77523 0.76129 0.0
C1687 C 0.55406 0.78653 0.77084 0.0
C1688 C 0.55475 0.77141 0.72534 0.0
C1689 C 0.55221 0.77871 0.69871 0.0
C1690 C 0.54962 0.78927 0.70857 0.0
C1691 C 0.55068 0.79325 0.74434 0.0
C1692 C 0.55405 0.77664 0.66049 0.0
C1693 C 0.54266 0.77136 0.63744 0.0
C1694 C 0.56717 0.7802 0.64676 0.0
C1695 C 0.57961 0.78609 0.66986 0.0
C1696 C 0.58402 0.79859 0.68812 0.0
C1697 C 0.59554 0.80388 0.71057 0.0
C1698 C 0.60282 0.79683 0.71467 0.0
C1699 C 0.59861 0.7845 0.69622 0.0
C1700 C 0.58707 0.77915 0.67381 0.0
C1701 C 0.55726 0.77635 0.48546 0.0
C1702 C 0.56484 0.77002 0.47521 0.0
C1703 C 0.55483 0.77748 0.52173 0.0
C1704 C 0.55965 0.772 0.54824 0.0
C1705 C 0.56721 0.76568 0.53782 0.0
C1706 C 0.56984 0.76477 0.50176 0.0
C1707 C 0.55725 0.77316 0.58692 0.0
C1708 C 0.56861 0.77841 0.61025 0.0
C1709 C 0.54404 0.76934 0.60088 0.0
C1710 C 0.53143 0.7627 0.57842 0.0
C1711 C 0.52799 0.75063 0.55905 0.0
C1712 C 0.51613 0.74445 0.5378 0.0
C1713 C 0.50757 0.75018 0.53592 0.0
C1714 C 0.51083 0.76209 0.55535 0.0
C1715 C 0.52269 0.76833 0.57661 0.0
H1716 H 0.49839 0.74538 0.51946 0.0
H1717 H 0.61173 0.80094 0.73208 0.0
H1718 H 0.22294 0.77086 0.4596 0.0
H1719 H 0.22033 0.76344 0.5225 0.0
H1720 H 0.23808 0.80575 0.5566 0.0
H1721 H 0.24053 0.81316 0.49434 0.0
H1722 H 0.2486 0.79076 0.59355 0.0
H1723 H 0.20479 0.78655 0.55813 0.0
H1724 H 0.18396 0.77762 0.52052 0.0
H1725 H 0.17294 0.7361 0.54788 0.0
H1726 H 0.19382 0.74481 0.5853 0.0
H1727 H 0.2278 0.79066 0.77245 0.0
H1728 H 0.234 0.79353 0.70904 0.0
H1729 H 0.20662 0.74997 0.69193 0.0
H1730 H 0.19992 0.74724 0.75491 0.0
H1731 H 0.20162 0.7628 0.64428 0.0
H1732 H 0.24337 0.76634 0.68586 0.0
H1733 H 0.26422 0.77457 0.72299 0.0
H1734 H 0.27956 0.81577 0.68399 0.0
H1735 H 0.2587 0.80784 0.64699 0.0
C1736 C 0.22629 0.77854 0.48057 0.0
C1737 C 0.23183 0.79256 0.47212 0.0
C1738 C 0.22482 0.77431 0.51639 0.0
C1739 C 0.22902 0.78407 0.54412 0.0
C1740 C 0.23483 0.79807 0.5356 0.0
C1741 C 0.23612 0.80226 0.5 0.0
C1742 C 0.22685 0.77981 0.58219 0.0
C1743 C 0.23835 0.78467 0.60483 0.0
C1744 C 0.21349 0.77153 0.59651 0.0
C1745 C 0.20094 0.76632 0.57412 0.0
C1746 C 0.19799 0.77552 0.55586 0.0
C1747 C 0.18616 0.7705 0.53464 0.0
C1748 C 0.17716 0.7563 0.53171 0.0
C1749 C 0.17994 0.7471 0.5501 0.0
C1750 C 0.19176 0.75207 0.57132 0.0
C1751 C 0.22333 0.78167 0.75525 0.0
C1752 C 0.21336 0.76875 0.7685 0.0
C1753 C 0.22692 0.78329 0.71899 0.0
C1754 C 0.22087 0.77194 0.69554 0.0
C1755 C 0.2114 0.7589 0.70931 0.0
C1756 C 0.20761 0.75734 0.74534 0.0
C1757 C 0.2234 0.77388 0.65628 0.0
C1758 C 0.21194 0.76864 0.63326 0.0
C1759 C 0.23683 0.78166 0.64162 0.0
C1760 C 0.24941 0.7865 0.66383 0.0
C1761 C 0.25114 0.77718 0.68539 0.0
C1762 C 0.26297 0.78178 0.70639 0.0
C1763 C 0.2732 0.79569 0.7059 0.0
C1764 C 0.27163 0.80501 0.68436 0.0
C1765 C 0.25981 0.80045 0.66332 0.0
H1766 H 0.28235 0.79923 0.72218 0.0
H1767 H 0.168 0.75243 0.51528 0.0
H1768 H 0.22647 0.42605 0.46334 0.0
H1769 H 0.23092 0.42771 0.52759 0.0
H1770 H 0.23546 0.4683 0.52885 0.0
H1771 H 0.23136 0.46683 0.46406 0.0
H1772 H 0.25239 0.46537 0.57966 0.0
H1773 H 0.20501 0.44249 0.54557 0.0
H1774 H 0.18449 0.42605 0.51132 0.0
H1775 H 0.18731 0.39221 0.55594 0.0
H1776 H 0.20802 0.40847 0.58997 0.0
H1777 H 0.22998 0.45349 0.76806 0.0
H1778 H 0.23081 0.45913 0.70403 0.0
H1779 H 0.2338 0.42328 0.67703 0.0
H1780 H 0.23329 0.41779 0.74037 0.0
H1781 H 0.21223 0.42673 0.64055 0.0
H1782 H 0.26109 0.45068 0.67095 0.0
H1783 H 0.28136 0.46761 0.70523 0.0
H1784 H 0.2747 0.5002 0.66888 0.0
H1785 H 0.25425 0.4834 0.6348 0.0
C1786 C 0.22885 0.4355 0.47709 0.0
C1787 C 0.22841 0.44624 0.45891 0.0
C1788 C 0.23135 0.43643 0.51379 0.0
C1789 C 0.23316 0.44798 0.53304 0.0
C1790 C 0.234 0.45927 0.51446 0.0
C1791 C 0.23167 0.45841 0.47749 0.0
C1792 C 0.23236 0.44736 0.57261 0.0
C1793 C 0.24353 0.45706 0.59305 0.0
C1794 C 0.22073 0.43657 0.59007 0.0
C1795 C 0.20813 0.42672 0.57013 0.0
C1796 C 0.20131 0.43155 0.54791 0.0
C1797 C 0.18964 0.42226 0.52854 0.0
C1798 C 0.18461 0.40809 0.53141 0.0
C1799 C 0.19123 0.40319 0.55373 0.0
C1800 C 0.20292 0.41244 0.57309 0.0
C1801 C 0.23082 0.44686 0.74836 0.0
C1802 C 0.23156 0.43521 0.75907 0.0
C1803 C 0.23136 0.45011 0.71197 0.0
C1804 C 0.2324 0.44162 0.68604 0.0
C1805 C 0.23301 0.42995 0.69675 0.0
C1806 C 0.23273 0.42685 0.73291 0.0
C1807 C 0.23242 0.44444 0.64745 0.0
C1808 C 0.22101 0.43515 0.62719 0.0
C1809 C 0.24373 0.45568 0.63041 0.0
C1810 C 0.25604 0.46577 0.65074 0.0
C1811 C 0.26386 0.46143 0.67058 0.0
C1812 C 0.2754 0.471 0.6899 0.0
C1813 C 0.27928 0.48496 0.68934 0.0
C1814 C 0.27166 0.48938 0.66935 0.0
C1815 C 0.2601 0.47984 0.65003 0.0
H1816 H 0.28822 0.49236 0.70429 0.0
H1817 H 0.17558 0.40092 0.51638 0.0
H1818 H 0.46802 0.88674 0.10219 0.0
H1819 H 0.46154 0.88306 0.16513 0.0
H1820 H 0.42057 0.87451 0.1378 0.0
H1821 H 0.42711 0.87845 0.07443 0.0
H1822 H 0.43132 0.89334 0.18877 0.0
H1823 H 0.42636 0.84903 0.1709 0.0
H1824 H 0.43293 0.83216 0.15074 0.0
H1825 H 0.46786 0.85007 0.22133 0.0
H1826 H 0.46161 0.86719 0.24157 0.0
H1827 H 0.41118 0.88374 0.36754 0.0
H1828 H 0.41192 0.87708 0.30582 0.0
H1829 H 0.45427 0.88741 0.32016 0.0
H1830 H 0.4534 0.89367 0.38275 0.0
H1831 H 0.4403 0.86516 0.27544 0.0
H1832 H 0.44687 0.91119 0.28615 0.0
H1833 H 0.44036 0.92809 0.30671 0.0
H1834 H 0.4022 0.90653 0.2489 0.0
H1835 H 0.40844 0.88942 0.22827 0.0
C1836 C 0.45755 0.88385 0.10946 0.0
C1837 C 0.44808 0.88295 0.0834 0.0
C1838 C 0.45383 0.88165 0.14549 0.0
C1839 C 0.44053 0.87839 0.15622 0.0
C1840 C 0.43088 0.87698 0.13009 0.0
C1841 C 0.43461 0.8792 0.09393 0.0
C1842 C 0.43726 0.87788 0.19487 0.0
C1843 C 0.43297 0.88692 0.20756 0.0
C1844 C 0.43978 0.86979 0.21957 0.0
C1845 C 0.44356 0.85947 0.20758 0.0
C1846 C 0.4355 0.84945 0.18194 0.0
C1847 C 0.43916 0.83982 0.17053 0.0
C1848 C 0.45082 0.84006 0.18469 0.0
C1849 C 0.45883 0.8499 0.21037 0.0
C1850 C 0.45522 0.85956 0.22186 0.0
C1851 C 0.42057 0.88435 0.35775 0.0
C1852 C 0.43231 0.8894 0.37966 0.0
C1853 C 0.42099 0.88055 0.32247 0.0
C1854 C 0.43325 0.88207 0.30815 0.0
C1855 C 0.44472 0.88623 0.33067 0.0
C1856 C 0.44423 0.88983 0.36633 0.0
C1857 C 0.43447 0.88066 0.26907 0.0
C1858 C 0.43844 0.87136 0.25642 0.0
C1859 C 0.43169 0.88852 0.24426 0.0
C1860 C 0.42807 0.89898 0.25592 0.0
C1861 C 0.43708 0.91004 0.27793 0.0
C1862 C 0.43343 0.91965 0.28959 0.0
C1863 C 0.42086 0.91837 0.27918 0.0
C1864 C 0.41193 0.90751 0.25695 0.0
C1865 C 0.41552 0.89786 0.24523 0.0
H1866 H 0.41805 0.92581 0.28828 0.0
H1867 H 0.45364 0.83259 0.17582 0.0
H1868 H 0.11038 0.54794 0.06978 0.0
H1869 H 0.11339 0.54365 0.1327 0.0
H1870 H 0.10439 0.57522 0.1656 0.0
H1871 H 0.10122 0.57944 0.10309 0.0
H1872 H 0.12651 0.57516 0.2046 0.0
H1873 H 0.07931 0.54413 0.1668 0.0
H1874 H 0.0617 0.52641 0.12738 0.0
H1875 H 0.07669 0.49882 0.15256 0.0
H1876 H 0.09453 0.51648 0.19174 0.0
H1877 H 0.10553 0.55739 0.3863 0.0
H1878 H 0.10861 0.56424 0.32312 0.0
H1879 H 0.10642 0.52584 0.2944 0.0
H1880 H 0.10257 0.51872 0.35693 0.0
H1881 H 0.09137 0.5295 0.25169 0.0
H1882 H 0.13751 0.55907 0.29251 0.0
H1883 H 0.15594 0.57657 0.33059 0.0
H1884 H 0.14457 0.60643 0.29929 0.0
H1885 H 0.12595 0.58906 0.26136 0.0
C1886 C 0.10925 0.55409 0.09044 0.0
C1887 C 0.10545 0.56393 0.08165 0.0
C1888 C 0.11096 0.55163 0.12628 0.0
C1889 C 0.10903 0.55909 0.15371 0.0
C1890 C 0.10595 0.5694 0.14481 0.0
C1891 C 0.10406 0.57172 0.10912 0.0
C1892 C 0.10903 0.5554 0.19174 0.0
C1893 C 0.11882 0.56522 0.2151 0.0
C1894 C 0.09916 0.54233 0.20508 0.0
C1895 C 0.08834 0.53167 0.18186 0.0
C1896 C 0.07891 0.53432 0.1637 0.0
C1897 C 0.06888 0.52429 0.14144 0.0
C1898 C 0.0681 0.51151 0.13738 0.0
C1899 C 0.07733 0.50873 0.15567 0.0
C1900 C 0.08739 0.51874 0.17792 0.0
C1901 C 0.10582 0.55051 0.36641 0.0
C1902 C 0.10373 0.53751 0.37635 0.0
C1903 C 0.10768 0.55445 0.33033 0.0
C1904 C 0.10789 0.54562 0.30382 0.0
C1905 C 0.10622 0.53282 0.31415 0.0
C1906 C 0.10404 0.52876 0.34993 0.0
C1907 C 0.10897 0.54923 0.26514 0.0
C1908 C 0.09926 0.53941 0.24149 0.0
C1909 C 0.11906 0.56224 0.25156 0.0
C1910 C 0.13025 0.57272 0.27435 0.0
C1911 C 0.13887 0.56934 0.29395 0.0
C1912 C 0.14937 0.57924 0.31548 0.0
C1913 C 0.1514 0.59259 0.31743 0.0
C1914 C 0.14297 0.59608 0.29779 0.0
C1915 C 0.13245 0.58621 0.27624 0.0
H1916 H 0.15953 0.60024 0.33411 0.0
H1917 H 0.06033 0.50375 0.12014 0.0
H1918 H 0.44245 0.56476 0.06528 0.0
H1919 H 0.44538 0.56948 0.1296 0.0
H1920 H 0.40905 0.53024 0.15069 0.0
H1921 H 0.40605 0.52543 0.08646 0.0
H1922 H 0.41289 0.55238 0.19856 0.0
H1923 H 0.4372 0.53016 0.15142 0.0
H1924 H 0.45266 0.52831 0.10757 0.0
H1925 H 0.4857 0.56798 0.1398 0.0
H1926 H 0.47035 0.57017 0.18339 0.0
H1927 H 0.4306 0.54337 0.37799 0.0
H1928 H 0.42269 0.54045 0.31558 0.0
H1929 H 0.46237 0.57425 0.28398 0.0
H1930 H 0.47037 0.57682 0.3455 0.0
H1931 H 0.45567 0.55401 0.24103 0.0
H1932 H 0.43212 0.5766 0.28851 0.0
H1933 H 0.41664 0.57972 0.32953 0.0
H1934 H 0.38267 0.54076 0.29639 0.0
H1935 H 0.39799 0.53733 0.25549 0.0
C1936 C 0.43488 0.55731 0.08355 0.0
C1937 C 0.42413 0.54465 0.07096 0.0
C1938 C 0.43656 0.56001 0.12024 0.0
C1939 C 0.42752 0.55012 0.14478 0.0
C1940 C 0.41613 0.53799 0.13213 0.0
C1941 C 0.41448 0.53524 0.09546 0.0
C1942 C 0.43099 0.55157 0.18329 0.0
C1943 C 0.42217 0.55263 0.20806 0.0
C1944 C 0.44316 0.55199 0.19537 0.0
C1945 C 0.45258 0.55039 0.1704 0.0
C1946 C 0.44774 0.53851 0.14904 0.0
C1947 C 0.45648 0.53741 0.1242 0.0
C1948 C 0.47012 0.54807 0.12074 0.0
C1949 C 0.47511 0.55977 0.14241 0.0
C1950 C 0.4664 0.56094 0.1672 0.0
C1951 C 0.43754 0.55021 0.35766 0.0
C1952 C 0.45111 0.56024 0.36647 0.0
C1953 C 0.43302 0.54859 0.32207 0.0
C1954 C 0.44193 0.55717 0.29502 0.0
C1955 C 0.45533 0.56744 0.30422 0.0
C1956 C 0.45989 0.56891 0.33946 0.0
C1957 C 0.43773 0.55517 0.25678 0.0
C1958 C 0.44639 0.55383 0.23186 0.0
C1959 C 0.42546 0.5546 0.24468 0.0
C1960 C 0.41624 0.55665 0.26923 0.0
C1961 C 0.42137 0.56865 0.29019 0.0
C1962 C 0.41262 0.57048 0.31337 0.0
C1963 C 0.39869 0.56042 0.31564 0.0
C1964 C 0.39347 0.54853 0.29465 0.0
C1965 C 0.40218 0.54664 0.27144 0.0
H1966 H 0.39193 0.56186 0.3336 0.0
H1967 H 0.47685 0.54723 0.10135 0.0
H1968 H 0.10866 0.54606 0.88523 0.0
H1969 H 0.113 0.54304 0.82244 0.0
H1970 H 0.11093 0.57933 0.79385 0.0
H1971 H 0.10596 0.58193 0.85591 0.0
H1972 H 0.09582 0.56021 0.75095 0.0
H1973 H 0.14196 0.57769 0.79315 0.0
H1974 H 0.16036 0.57891 0.83188 0.0
H1975 H 0.15003 0.53802 0.79985 0.0
H1976 H 0.13144 0.53649 0.76128 0.0
H1977 H 0.11342 0.5601 0.56934 0.0
H1978 H 0.11726 0.56807 0.6317 0.0
H1979 H 0.11069 0.52847 0.66621 0.0
H1980 H 0.1068 0.52046 0.60427 0.0
H1981 H 0.13186 0.55087 0.70465 0.0
H1982 H 0.08445 0.5332 0.66713 0.0
H1983 H 0.06641 0.53239 0.62763 0.0
H1984 H 0.08008 0.57485 0.6511 0.0
H1985 H 0.09835 0.57596 0.69034 0.0
C1986 C 0.10931 0.55345 0.86551 0.0
C1987 C 0.10687 0.56415 0.87526 0.0
C1988 C 0.11187 0.55179 0.82967 0.0
C1989 C 0.11238 0.56101 0.8033 0.0
C1990 C 0.11051 0.57202 0.81354 0.0
C1991 C 0.10768 0.57351 0.84904 0.0
C1992 C 0.11372 0.55865 0.76469 0.0
C1993 C 0.10391 0.55847 0.74088 0.0
C1994 C 0.12405 0.55605 0.7514 0.0
C1995 C 0.13522 0.55693 0.77456 0.0
C1996 C 0.14354 0.56892 0.79458 0.0
C1997 C 0.15402 0.56967 0.81647 0.0
C1998 C 0.15634 0.55854 0.81839 0.0
C1999 C 0.14821 0.54663 0.79836 0.0
C2000 C 0.13771 0.54582 0.77645 0.0
C2001 C 0.11307 0.55321 0.59018 0.0
C2002 C 0.10966 0.53962 0.58208 0.0
C2003 C 0.11525 0.55776 0.62572 0.0
C2004 C 0.11414 0.5488 0.65351 0.0
C2005 C 0.11161 0.53554 0.64516 0.0
C2006 C 0.10931 0.53096 0.60978 0.0
C2007 C 0.11409 0.5526 0.69142 0.0
C2008 C 0.12399 0.55289 0.71496 0.0
C2009 C 0.10393 0.55542 0.70456 0.0
C2010 C 0.09285 0.55471 0.68132 0.0
C2011 C 0.08367 0.54239 0.66364 0.0
C2012 C 0.0734 0.54187 0.64134 0.0
C2013 C 0.07213 0.55357 0.63678 0.0
C2014 C 0.0811 0.5658 0.65461 0.0
C2015 C 0.09141 0.56639 0.67689 0.0
H2016 H 0.06417 0.55315 0.6195 0.0
H2017 H 0.16446 0.55914 0.83536 0.0
H2018 H 0.45504 0.54977 0.86183 0.0
H2019 H 0.45809 0.55707 0.79926 0.0
H2020 H 0.42351 0.56384 0.80746 0.0
H2021 H 0.42057 0.55678 0.87061 0.0
H2022 H 0.42206 0.54603 0.7499 0.0
H2023 H 0.45259 0.59088 0.79529 0.0
H2024 H 0.47145 0.60831 0.83241 0.0
H2025 H 0.50025 0.59941 0.7801 0.0
H2026 H 0.48152 0.58176 0.74301 0.0
H2027 H 0.43636 0.56385 0.56277 0.0
H2028 H 0.43075 0.56457 0.62607 0.0
H2029 H 0.46759 0.56403 0.65731 0.0
H2030 H 0.47333 0.56363 0.59477 0.0
H2031 H 0.46534 0.58257 0.69504 0.0
H2032 H 0.4348 0.5349 0.66038 0.0
H2033 H 0.41631 0.51631 0.62476 0.0
H2034 H 0.38805 0.52952 0.65804 0.0
H2035 H 0.40645 0.54831 0.69354 0.0
C2036 C 0.44828 0.5531 0.85052 0.0
C2037 C 0.43759 0.55274 0.87099 0.0
C2038 C 0.45003 0.55728 0.81483 0.0
C2039 C 0.44103 0.56101 0.79883 0.0
C2040 C 0.43058 0.56104 0.81944 0.0
C2041 C 0.42897 0.55709 0.85546 0.0
C2042 C 0.44203 0.56373 0.75988 0.0
C2043 C 0.43136 0.55424 0.73779 0.0
C2044 C 0.45427 0.57429 0.74429 0.0
C2045 C 0.46561 0.58493 0.76647 0.0
C2046 C 0.46292 0.59256 0.79187 0.0
C2047 C 0.4736 0.60249 0.81288 0.0
C2048 C 0.48704 0.60496 0.80865 0.0
C2049 C 0.48983 0.5975 0.78334 0.0
C2050 C 0.47919 0.58754 0.76227 0.0
C2051 C 0.4432 0.56385 0.58325 0.0
C2052 C 0.45527 0.56368 0.57386 0.0
C2053 C 0.44 0.56426 0.61935 0.0
C2054 C 0.44875 0.56435 0.64647 0.0
C2055 C 0.46074 0.5641 0.63692 0.0
C2056 C 0.46397 0.56379 0.6011 0.0
C2057 C 0.44559 0.56452 0.68499 0.0
C2058 C 0.45587 0.57458 0.70703 0.0
C2059 C 0.43306 0.55437 0.70055 0.0
C2060 C 0.42203 0.54311 0.67918 0.0
C2061 C 0.42467 0.53391 0.65984 0.0
C2062 C 0.41421 0.52332 0.63973 0.0
C2063 C 0.40103 0.52177 0.63902 0.0
C2064 C 0.39827 0.53077 0.65853 0.0
C2065 C 0.40871 0.54138 0.67865 0.0
H2066 H 0.39293 0.51356 0.62345 0.0
H2067 H 0.49529 0.61265 0.82494 0.0
H2068 H 0.45108 0.91179 0.87021 0.0
H2069 H 0.4442 0.90843 0.80744 0.0
H2070 H 0.42744 0.86457 0.81896 0.0
H2071 H 0.43419 0.86788 0.88246 0.0
H2072 H 0.44632 0.87682 0.7609 0.0
H2073 H 0.40536 0.87446 0.80445 0.0
H2074 H 0.39136 0.88138 0.84038 0.0
H2075 H 0.40979 0.9204 0.78617 0.0
H2076 H 0.42406 0.91381 0.75027 0.0
H2077 H 0.42941 0.87633 0.57329 0.0
H2078 H 0.4281 0.87041 0.63702 0.0
H2079 H 0.4402 0.91235 0.66511 0.0
H2080 H 0.4412 0.91818 0.60202 0.0
H2081 H 0.41865 0.89492 0.70343 0.0
H2082 H 0.4626 0.89927 0.6697 0.0
H2083 H 0.47762 0.8933 0.63499 0.0
H2084 H 0.45432 0.85139 0.6715 0.0
H2085 H 0.43905 0.85709 0.70609 0.0
C2086 C 0.4457 0.9014 0.85958 0.0
C2087 C 0.44314 0.89009 0.88112 0.0
C2088 C 0.44175 0.89948 0.82375 0.0
C2089 C 0.43527 0.88625 0.80864 0.0
C2090 C 0.43239 0.87485 0.83025 0.0
C2091 C 0.43616 0.87675 0.86644 0.0
C2092 C 0.43253 0.88472 0.76967 0.0
C2093 C 0.43998 0.88043 0.74823 0.0
C2094 C 0.42444 0.88963 0.75332 0.0
C2095 C 0.41583 0.89365 0.77475 0.0
C2096 C 0.4065 0.88456 0.80035 0.0
C2097 C 0.39851 0.88841 0.82069 0.0
C2098 C 0.3997 0.90133 0.81559 0.0
C2099 C 0.40887 0.9104 0.79008 0.0
C2100 C 0.4169 0.90659 0.76968 0.0
C2101 C 0.43192 0.88429 0.59315 0.0
C2102 C 0.43539 0.89771 0.58275 0.0
C2103 C 0.43116 0.8809 0.6295 0.0
C2104 C 0.43402 0.89093 0.65586 0.0
C2105 C 0.43781 0.9044 0.6453 0.0
C2106 C 0.43846 0.90774 0.60919 0.0
C2107 C 0.43294 0.88762 0.69461 0.0
C2108 C 0.42472 0.89099 0.71599 0.0
C2109 C 0.44042 0.88197 0.71087 0.0
C2110 C 0.44958 0.87856 0.69007 0.0
C2111 C 0.46061 0.88875 0.67006 0.0
C2112 C 0.46918 0.88543 0.65047 0.0
C2113 C 0.46689 0.87196 0.65093 0.0
C2114 C 0.45605 0.86181 0.67109 0.0
C2115 C 0.44744 0.86508 0.6907 0.0
H2116 H 0.47354 0.86941 0.63575 0.0
H2117 H 0.3935 0.90429 0.83137 0.0
H2118 H 0.19882 0.45221 0.24798 0.0
H2119 H 0.20199 0.45346 0.18327 0.0
H2120 H 0.24139 0.45586 0.1969 0.0
H2121 H 0.23816 0.45437 0.26194 0.0
H2122 H 0.21973 0.46947 0.13211 0.0
H2123 H 0.24249 0.43314 0.13819 0.0
H2124 H 0.24282 0.41604 0.17926 0.0
H2125 H 0.20415 0.40779 0.22427 0.0
H2126 H 0.20347 0.42464 0.18304 0.0
H2127 H 0.23684 0.45823 0.95459 0.0
H2128 H 0.2361 0.46451 0.01705 0.0
H2129 H 0.2051 0.42237 0.03984 0.0
H2130 H 0.20641 0.41601 0.97814 0.0
H2131 H 0.22347 0.42983 0.08682 0.0
H2132 H 0.19868 0.45056 0.03766 0.0
H2133 H 0.19447 0.46557 0.99757 0.0
H2134 H 0.23044 0.5012 0.03874 0.0
H2135 H 0.23496 0.48638 0.07878 0.0
C2136 C 0.20831 0.45332 0.23727 0.0
C2137 C 0.21815 0.45295 0.25992 0.0
C2138 C 0.21014 0.45411 0.20027 0.0
C2139 C 0.22181 0.45451 0.1853 0.0
C2140 C 0.23222 0.45538 0.20799 0.0
C2141 C 0.23039 0.45456 0.2451 0.0
C2142 C 0.22211 0.45215 0.14641 0.0
C2143 C 0.22067 0.46089 0.12205 0.0
C2144 C 0.22286 0.44067 0.13347 0.0
C2145 C 0.22304 0.4303 0.15787 0.0
C2146 C 0.23404 0.42764 0.15677 0.0
C2147 C 0.23428 0.41799 0.18007 0.0
C2148 C 0.22355 0.41089 0.20448 0.0
C2149 C 0.21249 0.41335 0.20547 0.0
C2150 C 0.21217 0.42294 0.18214 0.0
C2151 C 0.22967 0.45042 0.97286 0.0
C2152 C 0.2217 0.43665 0.96176 0.0
C2153 C 0.22924 0.454 0.00853 0.0
C2154 C 0.22055 0.44391 0.0333 0.0
C2155 C 0.21201 0.43032 0.02144 0.0
C2156 C 0.21268 0.42669 0.98614 0.0
C2157 C 0.22104 0.44714 0.07204 0.0
C2158 C 0.22267 0.43853 0.09654 0.0
C2159 C 0.21991 0.45841 0.08503 0.0
C2160 C 0.21724 0.46734 0.06093 0.0
C2161 C 0.20576 0.46159 0.03795 0.0
C2162 C 0.2033 0.47006 0.01528 0.0
C2163 C 0.21221 0.48432 0.01553 0.0
C2164 C 0.22357 0.49015 0.03853 0.0
C2165 C 0.22607 0.48172 0.06124 0.0
H2166 H 0.21029 0.49087 0.99797 0.0
H2167 H 0.22377 0.40344 0.22253 0.0
H2168 H 0.55129 0.77039 0.96792 0.0
H2169 H 0.54761 0.76429 0.03159 0.0
H2170 H 0.5628 0.80701 0.05851 0.0
H2171 H 0.56705 0.81315 0.9954 0.0
H2172 H 0.57386 0.79777 0.10089 0.0
H2173 H 0.5275 0.7812 0.06333 0.0
H2174 H 0.50661 0.76817 0.02653 0.0
H2175 H 0.50432 0.73014 0.0574 0.0
H2176 H 0.52532 0.74296 0.09404 0.0
H2177 H 0.55588 0.78547 0.28329 0.0
H2178 H 0.55251 0.79012 0.22107 0.0
H2179 H 0.54881 0.75147 0.18854 0.0
H2180 H 0.55229 0.74682 0.25043 0.0
H2181 H 0.53071 0.75911 0.15075 0.0
H2182 H 0.57899 0.77756 0.18505 0.0
H2183 H 0.59849 0.79134 0.22573 0.0
H2184 H 0.59564 0.82738 0.20252 0.0
H2185 H 0.57598 0.81376 0.16212 0.0
C2186 C 0.55377 0.77842 0.98751 0.0
C2187 C 0.55952 0.79224 0.97681 0.0
C2188 C 0.55159 0.77494 0.02386 0.0
C2189 C 0.5548 0.78517 0.04997 0.0
C2190 C 0.5603 0.79893 0.03903 0.0
C2191 C 0.56271 0.80243 0.0029 0.0
C2192 C 0.55307 0.78174 0.08878 0.0
C2193 C 0.56431 0.78945 0.11169 0.0
C2194 C 0.54069 0.77081 0.10315 0.0
C2195 C 0.52806 0.76306 0.08116 0.0
C2196 C 0.52261 0.77007 0.06206 0.0
C2197 C 0.51074 0.76272 0.04127 0.0
C2198 C 0.50417 0.74834 0.03956 0.0
C2199 C 0.50944 0.74128 0.05872 0.0
C2200 C 0.52131 0.74858 0.07953 0.0
C2201 C 0.55399 0.77781 0.263 0.0
C2202 C 0.5545 0.76587 0.27152 0.0
C2203 C 0.55207 0.78048 0.22754 0.0
C2204 C 0.55053 0.77118 0.20029 0.0
C2205 C 0.54996 0.75875 0.20922 0.0
C2206 C 0.55202 0.75615 0.24454 0.0
C2207 C 0.55143 0.77515 0.16223 0.0
C2208 C 0.54013 0.76751 0.13963 0.0
C2209 C 0.56365 0.78629 0.14815 0.0
C2210 C 0.57593 0.79462 0.17089 0.0
C2211 C 0.5825 0.78842 0.18872 0.0
C2212 C 0.59356 0.79619 0.21176 0.0
C2213 C 0.59823 0.8102 0.21691 0.0
C2214 C 0.59197 0.81651 0.19864 0.0
C2215 C 0.58088 0.80878 0.17564 0.0
H2216 H 0.60671 0.81617 0.23499 0.0
H2217 H 0.49498 0.74267 0.02345 0.0
H2218 H 0.2568 0.8012 0.25673 0.0
H2219 H 0.25408 0.795 0.19339 0.0
H2220 H 0.21025 0.7689 0.20887 0.0
H2221 H 0.21301 0.77473 0.27266 0.0
H2222 H 0.21922 0.75794 0.15978 0.0
H2223 H 0.22406 0.80246 0.18132 0.0
H2224 H 0.23534 0.82623 0.20474 0.0
H2225 H 0.27105 0.83694 0.14026 0.0
H2226 H 0.26004 0.81316 0.11683 0.0
H2227 H 0.19116 0.76339 0.99591 0.0
H2228 H 0.19881 0.76539 0.05778 0.0
H2229 H 0.24107 0.78432 0.02248 0.0
H2230 H 0.23342 0.78214 0.95984 0.0
H2231 H 0.2356 0.79847 0.07942 0.0
H2232 H 0.22784 0.75346 0.05143 0.0
H2233 H 0.21476 0.72979 0.02765 0.0
H2234 H 0.18248 0.72007 0.10387 0.0
H2235 H 0.19526 0.74376 0.12776 0.0
C2236 C 0.24663 0.79389 0.24678 0.0
C2237 C 0.23509 0.78855 0.26947 0.0
C2238 C 0.24508 0.79041 0.21055 0.0
C2239 C 0.23192 0.78177 0.19619 0.0
C2240 C 0.2205 0.77565 0.21933 0.0
C2241 C 0.22208 0.77898 0.25576 0.0
C2242 C 0.22989 0.78012 0.15684 0.0
C2243 C 0.22276 0.76679 0.14224 0.0
C2244 C 0.23469 0.79168 0.1338 0.0
C2245 C 0.2413 0.806 0.14766 0.0
C2246 C 0.23436 0.80986 0.17234 0.0
C2247 C 0.2407 0.82334 0.18559 0.0
C2248 C 0.25392 0.83308 0.17407 0.0
C2249 C 0.26082 0.82937 0.14921 0.0
C2250 C 0.25454 0.8159 0.13593 0.0
C2251 C 0.2021 0.76798 0.0012 0.0
C2252 C 0.21171 0.77265 0.97304 0.0
C2253 C 0.20643 0.76902 0.03658 0.0
C2254 C 0.22047 0.77486 0.04462 0.0
C2255 C 0.23017 0.7797 0.01669 0.0
C2256 C 0.2258 0.77847 0.98104 0.0
C2257 C 0.22486 0.77632 0.0825 0.0
C2258 C 0.23234 0.78962 0.09687 0.0
C2259 C 0.22017 0.76474 0.10532 0.0
C2260 C 0.21249 0.75043 0.09124 0.0
C2261 C 0.21791 0.74631 0.06296 0.0
C2262 C 0.21055 0.73288 0.04948 0.0
C2263 C 0.19779 0.72344 0.0642 0.0
C2264 C 0.19237 0.7274 0.09249 0.0
C2265 C 0.19968 0.74082 0.10604 0.0
H2266 H 0.19211 0.71305 0.05372 0.0
H2267 H 0.25881 0.8435 0.18435 0.0
H2268 H 0.14836 0.2028 0.30511 0.0
H2269 H 0.16248 0.19222 0.29448 0.0
H2270 H 0.19853 0.23252 0.28288 0.0
H2271 H 0.18434 0.24322 0.29294 0.0
H2272 H 0.19634 0.21587 0.22885 0.0
H2273 H 0.19483 0.21283 0.35572 0.0
H2274 H 0.18393 0.20766 0.41532 0.0
H2275 H 0.16028 0.16471 0.38823 0.0
H2276 H 0.17084 0.16964 0.32821 0.0
H2277 H 0.23778 0.18402 0.21171 0.0
H2278 H 0.22852 0.1984 0.23343 0.0
H2279 H 0.1885 0.16213 0.24669 0.0
H2280 H 0.1977 0.1477 0.22537 0.0
H2281 H 0.19582 0.17924 0.30466 0.0
H2282 H 0.19506 0.18307 0.17572 0.0
H2283 H 0.20536 0.1883 0.11538 0.0
H2284 H 0.23331 0.23007 0.14717 0.0
H2285 H 0.22328 0.22502 0.20787 0.0
C2286 C 0.15932 0.20943 0.30077 0.0
C2287 C 0.16526 0.22383 0.29978 0.0
C2288 C 0.1674 0.20337 0.29487 0.0
C2289 C 0.18158 0.2116 0.28826 0.0
C2290 C 0.18761 0.22601 0.28805 0.0
C2291 C 0.17951 0.23209 0.29389 0.0
C2292 C 0.18981 0.20502 0.27908 0.0
C2293 C 0.1965 0.20809 0.24581 0.0
C2294 C 0.18979 0.1947 0.30096 0.0
C2295 C 0.18358 0.19163 0.33732 0.0
C2296 C 0.18724 0.20229 0.36237 0.0
C2297 C 0.18113 0.1994 0.39625 0.0
C2298 C 0.17141 0.18587 0.40553 0.0
C2299 C 0.16781 0.17519 0.38099 0.0
C2300 C 0.17387 0.17802 0.34705 0.0
C2301 C 0.22699 0.17913 0.21909 0.0
C2302 C 0.21843 0.16476 0.21671 0.0
C2303 C 0.22173 0.18735 0.2315 0.0
C2304 C 0.20782 0.18131 0.24154 0.0
C2305 C 0.19928 0.16697 0.23919 0.0
C2306 C 0.20452 0.15875 0.22679 0.0
C2307 C 0.20206 0.18991 0.25417 0.0
C2308 C 0.19585 0.1872 0.28807 0.0
C2309 C 0.20253 0.20059 0.23292 0.0
C2310 C 0.20854 0.20363 0.19643 0.0
C2311 C 0.20348 0.19334 0.16992 0.0
C2312 C 0.20925 0.19627 0.13565 0.0
C2313 C 0.22001 0.2095 0.12748 0.0
C2314 C 0.22499 0.21982 0.15355 0.0
C2315 C 0.21926 0.21693 0.18789 0.0
H2316 H 0.22447 0.21175 0.10093 0.0
H2317 H 0.16667 0.18366 0.43176 0.0
H2318 H 0.76262 0.94527 0.28026 0.0
H2319 H 0.77282 0.96977 0.26568 0.0
H2320 H 0.81352 0.97536 0.28033 0.0
H2321 H 0.80342 0.95094 0.29512 0.0
H2322 H 0.81114 0.99693 0.3081 0.0
H2323 H 0.80039 0.97043 0.19877 0.0
H2324 H 0.78501 0.95211 0.15697 0.0
H2325 H 0.75933 0.97038 0.14863 0.0
H2326 H 0.77445 0.9887 0.19087 0.0
H2327 H 0.85474 0.05502 0.20596 0.0
H2328 H 0.84111 0.03114 0.22605 0.0
H2329 H 0.80369 0.03256 0.21013 0.0
H2330 H 0.8173 0.05657 0.19001 0.0
H2331 H 0.80233 0.00794 0.18561 0.0
H2332 H 0.81454 0.03584 0.29048 0.0
H2333 H 0.83037 0.05443 0.33095 0.0
H2334 H 0.85342 0.0337 0.34754 0.0
H2335 H 0.83789 0.01512 0.30652 0.0
C2336 C 0.77373 0.95177 0.28085 0.0
C2337 C 0.78225 0.9462 0.2885 0.0
C2338 C 0.77953 0.96573 0.27245 0.0
C2339 C 0.79391 0.97429 0.27154 0.0
C2340 C 0.8024 0.9689 0.28088 0.0
C2341 C 0.79662 0.95494 0.28917 0.0
C2342 C 0.80018 0.98865 0.25867 0.0
C2343 C 0.80928 -0.00065 0.28128 0.0
C2344 C 0.79748 0.99177 0.22393 0.0
C2345 C 0.78846 0.98084 0.19829 0.0
C2346 C 0.7914 0.97048 0.18825 0.0
C2347 C 0.78274 0.96011 0.16444 0.0
C2348 C 0.77118 0.96006 0.15023 0.0
C2349 C 0.76828 0.97042 0.15972 0.0
C2350 C 0.77689 0.9808 0.18358 0.0
C2351 C 0.8436 0.05022 0.20635 0.0
C2352 C 0.83706 0.05765 0.19662 0.0
C2353 C 0.83585 0.03661 0.21796 0.0
C2354 C 0.82145 0.03022 0.21998 0.0
C2355 C 0.81482 0.03739 0.20885 0.0
C2356 C 0.82259 0.05107 0.19742 0.0
C2357 C 0.81343 0.01616 0.23484 0.0
C2358 C 0.80404 0.00554 0.2126 0.0
C2359 C 0.81586 0.01311 0.26991 0.0
C2360 C 0.82511 0.02414 0.29514 0.0
C2361 C 0.82305 0.03529 0.30252 0.0
C2362 C 0.83197 0.04583 0.32557 0.0
C2363 C 0.84292 0.04527 0.34171 0.0
C2364 C 0.84495 0.03414 0.33494 0.0
C2365 C 0.83608 0.02359 0.3118 0.0
H2366 H 0.84981 0.05346 0.35951 0.0
H2367 H 0.76449 0.95202 0.1318 0.0
H2368 H 0.948 0.76285 0.23401 0.0
H2369 H 0.97229 0.77306 0.25125 0.0
H2370 H 0.97594 0.81325 0.25571 0.0
H2371 H 0.9518 0.80319 0.23829 0.0
H2372 H 0.99777 0.81412 0.2224 0.0
H2373 H 0.97182 0.7953 0.33107 0.0
H2374 H 0.95432 0.77694 0.36932 0.0
H2375 H 0.97517 0.75373 0.35868 0.0
H2376 H 0.9927 0.77188 0.31991 0.0
H2377 H 0.05461 0.8546 0.3276 0.0
H2378 H 0.03007 0.83935 0.3163 0.0
H2379 H 0.03736 0.80571 0.29472 0.0
H2380 H 0.06208 0.82099 0.30563 0.0
H2381 H 0.01066 0.79945 0.33439 0.0
H2382 H 0.03737 0.81949 0.22698 0.0
H2383 H 0.05518 0.8389 0.1919 0.0
H2384 H 0.03268 0.86048 0.2022 0.0
H2385 H 0.01486 0.8413 0.23797 0.0
C2386 C 0.95403 0.77388 0.23841 0.0
C2387 C 0.94803 0.78224 0.23492 0.0
C2388 C 0.96786 0.77967 0.24839 0.0
C2389 C 0.97584 0.79388 0.25505 0.0
C2390 C 0.96994 0.80226 0.25068 0.0
C2391 C 0.95615 0.7965 0.2408 0.0
C2392 C 0.9903 0.80011 0.26717 0.0
C2393 C 0.00056 0.81092 0.24692 0.0
C2394 C 0.99396 0.79576 0.29885 0.0
C2395 C 0.98347 0.78487 0.32225 0.0
C2396 C 0.97261 0.78623 0.33664 0.0
C2397 C 0.96269 0.77587 0.35845 0.0
C2398 C 0.96361 0.76415 0.36633 0.0
C2399 C 0.97446 0.76279 0.35249 0.0
C2400 C 0.98439 0.77312 0.33061 0.0
C2401 C 0.05097 0.84388 0.32136 0.0
C2402 C 0.06026 0.83902 0.3169 0.0
C2403 C 0.03696 0.83519 0.31499 0.0
C2404 C 0.03203 0.82152 0.30431 0.0
C2405 C 0.04105 0.81626 0.30296 0.0
C2406 C 0.05514 0.825 0.30908 0.0
C2407 C 0.01795 0.8135 0.28984 0.0
C2408 C 0.00783 0.80243 0.30959 0.0
C2409 C 0.01436 0.81762 0.25777 0.0
C2410 C 0.02485 0.82901 0.23543 0.0
C2411 C 0.03627 0.82842 0.222 0.0
C2412 C 0.04637 0.83938 0.20197 0.0
C2413 C 0.04508 0.85093 0.1949 0.0
C2414 C 0.03367 0.85153 0.20773 0.0
C2415 C 0.02356 0.84062 0.22786 0.0
H2416 H 0.05292 0.85941 0.17942 0.0
H2417 H 0.95592 0.75614 0.38323 0.0
H2418 H 0.8207 0.75853 0.72404 0.0
H2419 H 0.80552 0.76791 0.73702 0.0
H2420 H 0.84109 0.80834 0.75156 0.0
H2421 H 0.85626 0.79906 0.73901 0.0
H2422 H 0.82268 0.80158 0.80552 0.0
H2423 H 0.82202 0.8003 0.67607 0.0
H2424 H 0.81817 0.78909 0.61708 0.0
H2425 H 0.77561 0.7619 0.64344 0.0
H2426 H 0.77926 0.77284 0.70281 0.0
H2427 H 0.80054 0.84955 0.78862 0.0
H2428 H 0.81089 0.83511 0.77966 0.0
H2429 H 0.77042 0.79898 0.7738 0.0
H2430 H 0.75991 0.81346 0.78268 0.0
H2431 H 0.78813 0.80012 0.71981 0.0
H2432 H 0.7884 0.80358 0.84687 0.0
H2433 H 0.79244 0.81537 0.90505 0.0
H2434 H 0.83585 0.83869 0.88306 0.0
H2435 H 0.83206 0.8272 0.82449 0.0
C2436 C 0.82525 0.76943 0.72982 0.0
C2437 C 0.83965 0.77809 0.73054 0.0
C2438 C 0.81658 0.77476 0.73716 0.0
C2439 C 0.82221 0.78881 0.74517 0.0
C2440 C 0.83657 0.79745 0.74558 0.0
C2441 C 0.84521 0.79215 0.73826 0.0
C2442 C 0.81325 0.79461 0.75378 0.0
C2443 C 0.81517 0.80133 0.78672 0.0
C2444 C 0.80315 0.79384 0.72969 0.0
C2445 C 0.80095 0.78727 0.69403 0.0
C2446 C 0.81187 0.79184 0.66941 0.0
C2447 C 0.80972 0.78556 0.63588 0.0
C2448 C 0.79667 0.77476 0.62656 0.0
C2449 C 0.78573 0.77025 0.65072 0.0
C2450 C 0.78783 0.77649 0.6843 0.0
C2451 C 0.79383 0.83853 0.78554 0.0
C2452 C 0.77943 0.83261 0.78646 0.0
C2453 C 0.79975 0.8303 0.78055 0.0
C2454 C 0.7914 0.81599 0.7765 0.0
C2455 C 0.77701 0.81002 0.77704 0.0
C2456 C 0.77105 0.81827 0.78221 0.0
C2457 C 0.79788 0.80744 0.77108 0.0
C2458 C 0.79547 0.80017 0.73885 0.0
C2459 C 0.80757 0.80771 0.79579 0.0
C2460 C 0.80993 0.81458 0.83116 0.0
C2461 C 0.7988 0.8113 0.85432 0.0
C2462 C 0.80105 0.81791 0.88739 0.0
C2463 C 0.81439 0.82779 0.89772 0.0
C2464 C 0.82552 0.83104 0.87502 0.0
C2465 C 0.82333 0.82446 0.8419 0.0
H2466 H 0.81611 0.83291 0.92333 0.0
H2467 H 0.79502 0.76991 0.60059 0.0
H2468 H 0.19577 0.04719 0.68911 0.0
H2469 H 0.18377 0.02235 0.69966 0.0
H2470 H 0.22232 0.02485 0.72785 0.0
H2471 H 0.23447 0.04973 0.71642 0.0
H2472 H 0.20667 0.00219 0.68886 0.0
H2473 H 0.20045 0.02318 0.79266 0.0
H2474 H 0.1945 0.03832 0.8268 0.0
H2475 H 0.15279 0.01542 0.78871 0.0
H2476 H 0.15855 0.00026 0.75389 0.0
H2477 H 0.17231 0.93613 0.7777 0.0
H2478 H 0.18718 0.96047 0.76181 0.0
H2479 H 0.15142 0.96271 0.7289 0.0
H2480 H 0.13655 0.93858 0.74529 0.0
H2481 H 0.1673 0.98321 0.77362 0.0
H2482 H 0.1748 0.9631 0.66644 0.0
H2483 H 0.18163 0.94836 0.63332 0.0
H2484 H 0.22172 0.96964 0.68177 0.0
H2485 H 0.21514 0.98448 0.71517 0.0
C2486 C 0.2017 0.04244 0.69728 0.0
C2487 C 0.21602 0.05038 0.70225 0.0
C2488 C 0.19483 0.02826 0.70342 0.0
C2489 C 0.20212 0.02181 0.71522 0.0
C2490 C 0.2165 0.02964 0.71892 0.0
C2491 C 0.22341 0.04384 0.71246 0.0
C2492 C 0.1946 0.007 0.72475 0.0
C2493 C 0.19817 0.99805 0.70774 0.0
C2494 C 0.1835 0.00161 0.74932 0.0
C2495 C 0.17997 0.01066 0.77042 0.0
C2496 C 0.19004 0.02143 0.79136 0.0
C2497 C 0.18669 0.03001 0.81086 0.0
C2498 C 0.17328 0.02785 0.80987 0.0
C2499 C 0.16318 0.01709 0.78943 0.0
C2500 C 0.16647 0.00849 0.76983 0.0
C2501 C 0.16767 0.94182 0.76682 0.0
C2502 C 0.15329 0.93554 0.76307 0.0
C2503 C 0.17616 0.95568 0.75758 0.0
C2504 C 0.17039 0.96338 0.74407 0.0
C2505 C 0.15607 0.95697 0.73942 0.0
C2506 C 0.14759 0.94319 0.74884 0.0
C2507 C 0.17907 0.97833 0.73691 0.0
C2508 C 0.17579 0.98734 0.75472 0.0
C2509 C 0.19052 0.98375 0.71345 0.0
C2510 C 0.19442 0.97478 0.69357 0.0
C2511 C 0.18502 0.96454 0.67024 0.0
C2512 C 0.18886 0.9562 0.65137 0.0
C2513 C 0.20206 0.95801 0.65561 0.0
C2514 C 0.21149 0.96822 0.67858 0.0
C2515 C 0.20773 0.97662 0.6974 0.0
H2516 H 0.205 0.95153 0.64099 0.0
H2517 H 0.17072 0.03451 0.82499 0.0
H2518 H 0.95153 0.14694 0.68648 0.0
H2519 H 0.97619 0.15961 0.69918 0.0
H2520 H 0.97505 0.19744 0.70764 0.0
H2521 H 0.95025 0.1848 0.69449 0.0
H2522 H 0.99833 0.20075 0.67141 0.0
H2523 H 0.97498 0.18199 0.78178 0.0
H2524 H 0.9583 0.16393 0.82215 0.0
H2525 H 0.9788 0.14055 0.80746 0.0
H2526 H 0.99548 0.15838 0.76651 0.0
H2527 H 0.06387 0.23387 0.76341 0.0
H2528 H 0.03993 0.22531 0.74496 0.0
H2529 H 0.03363 0.1841 0.73686 0.0
H2530 H 0.05737 0.19252 0.75579 0.0
H2531 H 0.01387 0.18472 0.77589 0.0
H2532 H 0.03657 0.20337 0.66238 0.0
H2533 H 0.05303 0.22171 0.6221 0.0
H2534 H 0.03387 0.24586 0.64425 0.0
H2535 H 0.01738 0.22775 0.68495 0.0
C2536 C 0.95653 0.15797 0.69078 0.0
C2537 C 0.94897 0.16488 0.68985 0.0
C2538 C 0.9706 0.16518 0.69807 0.0
C2539 C 0.97735 0.1794 0.70485 0.0
C2540 C 0.96997 0.18646 0.70257 0.0
C2541 C 0.95584 0.17923 0.69519 0.0
C2542 C 0.99198 0.18664 0.71587 0.0
C2543 C 0.00175 0.19742 0.69455 0.0
C2544 C 0.99637 0.18219 0.74595 0.0
C2545 C 0.98643 0.17149 0.77084 0.0
C2546 C 0.97588 0.17296 0.78694 0.0
C2547 C 0.96643 0.16276 0.80996 0.0
C2548 C 0.96748 0.15109 0.81731 0.0
C2549 C 0.978 0.1496 0.80172 0.0
C2550 C 0.98746 0.15975 0.77863 0.0
C2551 C 0.05738 0.22301 0.75739 0.0
C2552 C 0.06241 0.21383 0.76127 0.0
C2553 C 0.04375 0.21815 0.74672 0.0
C2554 C 0.03504 0.20408 0.73949 0.0
C2555 C 0.04019 0.19499 0.74247 0.0
C2556 C 0.05374 0.19981 0.75326 0.0
C2557 C 0.02032 0.19855 0.73079 0.0
C2558 C 0.01049 0.18813 0.75282 0.0
C2559 C 0.01592 0.20341 0.70152 0.0
C2560 C 0.02583 0.21427 0.67701 0.0
C2561 C 0.03594 0.21264 0.6589 0.0
C2562 C 0.04526 0.22298 0.63595 0.0
C2563 C 0.04453 0.23495 0.63075 0.0
C2564 C 0.03444 0.23659 0.64837 0.0
C2565 C 0.02509 0.22629 0.67134 0.0
H2566 H 0.05175 0.24293 0.61297 0.0
H2567 H 0.96015 0.1432 0.83514 0.0
H2568 H 0.84737 0.57104 0.60903 0.0
H2569 H 0.86268 0.56202 0.59411 0.0
H2570 H 0.82776 0.52067 0.59238 0.0
H2571 H 0.81246 0.52956 0.60759 0.0
H2572 H 0.84989 0.52155 0.62438 0.0
H2573 H 0.83993 0.53861 0.51604 0.0
H2574 H 0.83925 0.55631 0.47822 0.0
H2575 H 0.88327 0.58164 0.48614 0.0
H2576 H 0.88417 0.56416 0.52449 0.0
H2577 H 0.86494 0.48186 0.51172 0.0
H2578 H 0.85569 0.49661 0.52936 0.0
H2579 H 0.89695 0.53087 0.5429 0.0
H2580 H 0.90639 0.51608 0.52559 0.0
H2581 H 0.87537 0.53645 0.50926 0.0
H2582 H 0.885 0.51723 0.61292 0.0
H2583 H 0.88474 0.4983 0.64729 0.0
H2584 H 0.84047 0.47617 0.64615 0.0
H2585 H 0.84047 0.49485 0.61112 0.0
C2586 C 0.843 0.56001 0.6059 0.0
C2587 C 0.82873 0.55099 0.60919 0.0
C2588 C 0.85174 0.55489 0.59729 0.0
C2589 C 0.84631 0.54071 0.59178 0.0
C2590 C 0.83214 0.53166 0.59654 0.0
C2591 C 0.82342 0.53675 0.60509 0.0
C2592 C 0.85514 0.53523 0.57918 0.0
C2593 C 0.85548 0.52482 0.59926 0.0
C2594 C 0.86262 0.5397 0.54669 0.0
C2595 C 0.8621 0.55017 0.52348 0.0
C2596 C 0.84945 0.54801 0.50995 0.0
C2597 C 0.84903 0.55799 0.48839 0.0
C2598 C 0.86121 0.57012 0.47987 0.0
C2599 C 0.87384 0.57226 0.49283 0.0
C2600 C 0.87431 0.56232 0.51447 0.0
C2601 C 0.87208 0.4926 0.51767 0.0
C2602 C 0.88638 0.4978 0.51769 0.0
C2603 C 0.86677 0.50099 0.52777 0.0
C2604 C 0.87567 0.51471 0.5378 0.0
C2605 C 0.88997 0.52027 0.53527 0.0
C2606 C 0.89531 0.51182 0.52544 0.0
C2607 C 0.86987 0.52266 0.55417 0.0
C2608 C 0.87007 0.53345 0.5348 0.0
C2609 C 0.86281 0.5185 0.58721 0.0
C2610 C 0.86274 0.5074 0.60913 0.0
C2611 C 0.87521 0.50828 0.61977 0.0
C2612 C 0.87511 0.4976 0.63939 0.0
C2613 C 0.8626 0.48602 0.64884 0.0
C2614 C 0.85016 0.48514 0.63879 0.0
C2615 C 0.8502 0.49578 0.61907 0.0
H2616 H 0.86254 0.47776 0.66399 0.0
H2617 H 0.86086 0.57783 0.46317 0.0
H2618 H 0.42938 0.27021 0.61718 0.0
H2619 H 0.43937 0.29443 0.59922 0.0
H2620 H 0.48023 0.29998 0.60908 0.0
H2621 H 0.47038 0.27594 0.62714 0.0
H2622 H 0.47816 0.32071 0.64087 0.0
H2623 H 0.46586 0.29632 0.52818 0.0
H2624 H 0.45001 0.27913 0.48469 0.0
H2625 H 0.42499 0.29824 0.48468 0.0
H2626 H 0.4406 0.31545 0.52857 0.0
H2627 H 0.52075 0.38178 0.54823 0.0
H2628 H 0.5076 0.35733 0.56377 0.0
H2629 H 0.46961 0.35799 0.55204 0.0
H2630 H 0.48272 0.3825 0.53619 0.0
H2631 H 0.46826 0.33441 0.52317 0.0
H2632 H 0.48151 0.3598 0.63281 0.0
H2633 H 0.49767 0.37724 0.67531 0.0
H2634 H 0.52089 0.35627 0.68117 0.0
H2635 H 0.505 0.33882 0.6382 0.0
C2636 C 0.44049 0.27662 0.61553 0.0
C2637 C 0.44912 0.27122 0.62352 0.0
C2638 C 0.44616 0.29041 0.60517 0.0
C2639 C 0.46052 0.29893 0.60266 0.0
C2640 C 0.46912 0.29356 0.61092 0.0
C2641 C 0.46348 0.27982 0.62113 0.0
C2642 C 0.46673 0.31352 0.59164 0.0
C2643 C 0.47608 0.3237 0.61503 0.0
C2644 C 0.46369 0.3174 0.55834 0.0
C2645 C 0.4543 0.30706 0.53198 0.0
C2646 C 0.45691 0.29678 0.51915 0.0
C2647 C 0.44799 0.28705 0.49438 0.0
C2648 C 0.43648 0.28756 0.48201 0.0
C2649 C 0.43389 0.29784 0.49433 0.0
C2650 C 0.44278 0.30758 0.51914 0.0
C2651 C 0.50959 0.37669 0.54862 0.0
C2652 C 0.50275 0.38404 0.54128 0.0
C2653 C 0.50211 0.36276 0.55759 0.0
C2654 C 0.48767 0.35596 0.55953 0.0
C2655 C 0.48076 0.36311 0.55078 0.0
C2656 C 0.48825 0.37708 0.54184 0.0
C2657 C 0.47989 0.34154 0.5721 0.0
C2658 C 0.47023 0.33141 0.54912 0.0
C2659 C 0.48262 0.33768 0.60582 0.0
C2660 C 0.49212 0.34806 0.63204 0.0
C2661 C 0.49012 0.35896 0.64295 0.0
C2662 C 0.49923 0.36884 0.66716 0.0
C2663 C 0.51032 0.36788 0.68088 0.0
C2664 C 0.5123 0.35701 0.6705 0.0
C2665 C 0.50324 0.34711 0.64624 0.0
H2666 H 0.51736 0.37554 0.6996 0.0
H2667 H 0.42958 0.28002 0.46282 0.0
H2668 H 0.6058 0.09552 0.55181 0.0
H2669 H 0.62963 0.10337 0.57014 0.0
H2670 H 0.63719 0.14502 0.579 0.0
H2671 H 0.6136 0.13732 0.56015 0.0
H2672 H 0.65776 0.14459 0.54495 0.0
H2673 H 0.63128 0.12439 0.65284 0.0
H2674 H 0.61323 0.10568 0.68922 0.0
H2675 H 0.63188 0.08078 0.6708 0.0
H2676 H 0.64995 0.09929 0.63392 0.0
H2677 H 0.7141 0.18077 0.65506 0.0
H2678 H 0.68982 0.16682 0.63905 0.0
H2679 H 0.69552 0.13225 0.61628 0.0
H2680 H 0.72003 0.14624 0.63213 0.0
H2681 H 0.66898 0.12626 0.65294 0.0
H2682 H 0.69693 0.14803 0.5493 0.0
H2683 H 0.71543 0.1677 0.5165 0.0
H2684 H 0.69396 0.19024 0.52875 0.0
H2685 H 0.67546 0.1708 0.56227 0.0
C2686 C 0.61258 0.10635 0.55762 0.0
C2687 C 0.60787 0.11582 0.55457 0.0
C2688 C 0.62615 0.1108 0.56821 0.0
C2689 C 0.63514 0.12476 0.57616 0.0
C2690 C 0.63044 0.13421 0.57289 0.0
C2691 C 0.61694 0.12979 0.5622 0.0
C2692 C 0.6495 0.12973 0.5878 0.0
C2693 C 0.66018 0.14058 0.56861 0.0
C2694 C 0.6527 0.12426 0.61812 0.0
C2695 C 0.64185 0.11314 0.64027 0.0
C2696 C 0.63146 0.11487 0.6563 0.0
C2697 C 0.62124 0.10432 0.67706 0.0
C2698 C 0.62138 0.09203 0.68222 0.0
C2699 C 0.63177 0.09029 0.66672 0.0
C2700 C 0.642 0.10081 0.6459 0.0
C2701 C 0.71017 0.17012 0.64734 0.0
C2702 C 0.71897 0.16462 0.64439 0.0
C2703 C 0.6963 0.16218 0.63825 0.0
C2704 C 0.69101 0.14861 0.62614 0.0
C2705 C 0.6995 0.14273 0.62558 0.0
C2706 C 0.71345 0.15073 0.63454 0.0
C2707 C 0.67704 0.14129 0.6106 0.0
C2708 C 0.66651 0.13003 0.62893 0.0
C2709 C 0.67392 0.1464 0.57955 0.0
C2710 C 0.68485 0.15799 0.55854 0.0
C2711 C 0.6962 0.15721 0.54522 0.0
C2712 C 0.70668 0.16832 0.52648 0.0
C2713 C 0.70588 0.18022 0.5206 0.0
C2714 C 0.69457 0.18102 0.53334 0.0
C2715 C 0.68407 0.16995 0.55219 0.0
H2716 H 0.71402 0.18882 0.50613 0.0
H2717 H 0.61347 0.08388 0.69831 0.0
H2718 H 0.46394 0.18228 0.15132 0.0
H2719 H 0.47227 0.16721 0.12946 0.0
H2720 H 0.43047 0.13511 0.10899 0.0
H2721 H 0.42199 0.15026 0.13028 0.0
H2722 H 0.45076 0.12723 0.14198 0.0
H2723 H 0.44356 0.15026 0.04281 0.0
H2724 H 0.44541 0.17066 0.0125 0.0
H2725 H 0.48957 0.19019 0.01454 0.0
H2726 H 0.48799 0.17005 0.04592 0.0
H2727 H 0.4757 0.09142 0.03745 0.0
H2728 H 0.46159 0.10164 0.05396 0.0
H2729 H 0.49805 0.14197 0.05616 0.0
H2730 H 0.51211 0.13189 0.0389 0.0
H2731 H 0.47704 0.14346 0.02829 0.0
H2732 H 0.48485 0.12274 0.13259 0.0
H2733 H 0.48408 0.1037 0.16764 0.0
H2734 H 0.43994 0.08086 0.1585 0.0
H2735 H 0.44048 0.09971 0.12296 0.0
C2736 C 0.45648 0.17192 0.14289 0.0
C2737 C 0.44233 0.16746 0.14219 0.0
C2738 C 0.46126 0.16335 0.13036 0.0
C2739 C 0.45196 0.15017 0.11735 0.0
C2740 C 0.43776 0.14529 0.11893 0.0
C2741 C 0.43295 0.15395 0.13103 0.0
C2742 C 0.4573 0.1421 0.09935 0.0
C2743 C 0.45625 0.13055 0.11674 0.0
C2744 C 0.46464 0.14669 0.06679 0.0
C2745 C 0.46565 0.15868 0.04703 0.0
C2746 C 0.45367 0.15895 0.03709 0.0
C2747 C 0.45467 0.17046 0.01967 0.0
C2748 C 0.4676 0.18171 0.01155 0.0
C2749 C 0.47956 0.18146 0.02085 0.0
C2750 C 0.47862 0.17 0.03849 0.0
C2751 C 0.48066 0.10249 0.04094 0.0
C2752 C 0.49501 0.11086 0.0372 0.0
C2753 C 0.4726 0.1083 0.0505 0.0
C2754 C 0.47881 0.12253 0.05685 0.0
C2755 C 0.49305 0.13096 0.05144 0.0
C2756 C 0.50108 0.12519 0.04167 0.0
C2757 C 0.47074 0.12864 0.07117 0.0
C2758 C 0.4713 0.13991 0.05313 0.0
C2759 C 0.46306 0.12386 0.10332 0.0
C2760 C 0.46272 0.11255 0.12476 0.0
C2761 C 0.47499 0.11361 0.13782 0.0
C2762 C 0.4746 0.10286 0.15781 0.0
C2763 C 0.46197 0.09106 0.16519 0.0
C2764 C 0.44971 0.09 0.15269 0.0
C2765 C 0.45006 0.10071 0.13264 0.0
H2766 H 0.46168 0.08275 0.18068 0.0
H2767 H 0.46834 0.19061 0.99804 0.0
H2768 H 0.86216 0.3849 0.05552 0.0
H2769 H 0.85342 0.36122 0.07529 0.0
H2770 H 0.89232 0.36424 0.04873 0.0
H2771 H 0.90122 0.38812 0.0287 0.0
H2772 H 0.86932 0.33967 0.02542 0.0
H2773 H 0.88589 0.36534 0.13319 0.0
H2774 H 0.88911 0.3828 0.17819 0.0
H2775 H 0.84553 0.36154 0.19838 0.0
H2776 H 0.84201 0.34406 0.15308 0.0
H2777 H 0.84253 0.27363 0.11149 0.0
H2778 H 0.85816 0.29796 0.09676 0.0
H2779 H 0.82554 0.30687 0.118 0.0
H2780 H 0.80996 0.28271 0.13286 0.0
H2781 H 0.84997 0.32597 0.14779 0.0
H2782 H 0.83328 0.30282 0.03357 0.0
H2783 H 0.8297 0.28563 0.98731 0.0
H2784 H 0.87346 0.30235 0.97913 0.0
H2785 H 0.87729 0.31953 0.02573 0.0
C2786 C 0.86887 0.38054 0.05377 0.0
C2787 C 0.88239 0.38835 0.04068 0.0
C2788 C 0.86388 0.36704 0.06524 0.0
C2789 C 0.87231 0.36109 0.06393 0.0
C2790 C 0.88572 0.36872 0.0501 0.0
C2791 C 0.89076 0.38232 0.03874 0.0
C2792 C 0.86687 0.34683 0.07689 0.0
C2793 C 0.86538 0.33668 0.05242 0.0
C2794 C 0.86162 0.34299 0.11201 0.0
C2795 C 0.86369 0.35342 0.13955 0.0
C2796 C 0.87698 0.36443 0.14704 0.0
C2797 C 0.87886 0.37433 0.17263 0.0
C2798 C 0.86753 0.37329 0.1911 0.0
C2799 C 0.8543 0.36233 0.18405 0.0
C2800 C 0.85236 0.35241 0.15845 0.0
C2801 C 0.83874 0.28081 0.11312 0.0
C2802 C 0.82504 0.2763 0.1232 0.0
C2803 C 0.84765 0.29467 0.10465 0.0
C2804 C 0.84296 0.30417 0.10615 0.0
C2805 C 0.82936 0.2997 0.11679 0.0
C2806 C 0.82046 0.28589 0.12512 0.0
C2807 C 0.852 0.31876 0.09597 0.0
C2808 C 0.85419 0.32898 0.12103 0.0
C2809 C 0.85786 0.32265 0.06141 0.0
C2810 C 0.85556 0.31233 0.03344 0.0
C2811 C 0.84213 0.30274 0.02214 0.0
C2812 C 0.84006 0.29302 0.99581 0.0
C2813 C 0.85135 0.29287 0.98038 0.0
C2814 C 0.86473 0.30246 0.99117 0.0
C2815 C 0.86686 0.31219 0.01753 0.0
H2816 H 0.84972 0.28534 0.95999 0.0
H2817 H 0.86901 0.38097 0.21089 0.0
H2818 H 0.72364 0.57464 0.10832 0.0
H2819 H 0.69921 0.56486 0.09309 0.0
H2820 H 0.69544 0.52487 0.07885 0.0
H2821 H 0.71977 0.53456 0.09363 0.0
H2822 H 0.68396 0.53136 0.02392 0.0
H2823 H 0.6831 0.5321 0.15311 0.0
H2824 H 0.6897 0.54299 0.21262 0.0
H2825 H 0.67428 0.57002 0.18498 0.0
H2826 H 0.66775 0.5594 0.12508 0.0
H2827 H 0.61291 0.48393 0.03379 0.0
H2828 H 0.63776 0.49783 0.04309 0.0
H2829 H 0.63433 0.53438 0.05321 0.0
H2830 H 0.60934 0.52047 0.04426 0.0
H2831 H 0.64979 0.53239 0.10646 0.0
H2832 H 0.64839 0.52974 0.97907 0.0
H2833 H 0.64149 0.51837 0.92018 0.0
H2834 H 0.66103 0.4947 0.9444 0.0
H2835 H 0.66788 0.50578 0.00367 0.0
C2836 C 0.71756 0.56375 0.10213 0.0
C2837 C 0.72358 0.55535 0.10218 0.0
C2838 C 0.70363 0.55819 0.0935 0.0
C2839 C 0.69554 0.54414 0.08495 0.0
C2840 C 0.70153 0.53575 0.08524 0.0
C2841 C 0.71541 0.54128 0.09385 0.0
C2842 C 0.68084 0.53811 0.07525 0.0
C2843 C 0.67646 0.53149 0.04204 0.0
C2844 C 0.67118 0.53869 0.09849 0.0
C2845 C 0.67509 0.54507 0.13448 0.0
C2846 C 0.68123 0.54045 0.15961 0.0
C2847 C 0.68493 0.54656 0.19343 0.0
C2848 C 0.68245 0.55723 0.20254 0.0
C2849 C 0.67623 0.56178 0.17786 0.0
C2850 C 0.67251 0.55572 0.14398 0.0
C2851 C 0.61745 0.49494 0.0377 0.0
C2852 C 0.60922 0.50113 0.03827 0.0
C2853 C 0.63165 0.50288 0.04286 0.0
C2854 C 0.63788 0.51714 0.04847 0.0
C2855 C 0.6297 0.52338 0.04882 0.0
C2856 C 0.61546 0.51544 0.0436 0.0
C2857 C 0.65286 0.52536 0.05544 0.0
C2858 C 0.65731 0.53241 0.0881 0.0
C2859 C 0.66259 0.52516 0.03171 0.0
C2860 C 0.65857 0.51853 0.99595 0.0
C2861 C 0.65113 0.52204 0.97196 0.0
C2862 C 0.64724 0.51566 0.93848 0.0
C2863 C 0.65079 0.5058 0.92858 0.0
C2864 C 0.65828 0.50233 0.95211 0.0
C2865 C 0.66218 0.50867 0.98564 0.0
H2866 H 0.64777 0.50087 0.90266 0.0
H2867 H 0.68532 0.56194 0.22874 0.0
H2868 H 0.50708 0.90126 0.95287 0.0
H2869 H 0.52173 0.89153 0.93713 0.0
H2870 H 0.48591 0.85077 0.93474 0.0
H2871 H 0.47129 0.86035 0.95082 0.0
H2872 H 0.50676 0.85116 0.97146 0.0
H2873 H 0.50071 0.86815 0.85793 0.0
H2874 H 0.50189 0.88584 0.81643 0.0
H2875 H 0.54573 0.90981 0.83148 0.0
H2876 H 0.54477 0.89234 0.87346 0.0
H2877 H 0.52795 0.81082 0.87992 0.0
H2878 H 0.51668 0.82411 0.89373 0.0
H2879 H 0.55622 0.86153 0.89579 0.0
H2880 H 0.56762 0.84827 0.88149 0.0
H2881 H 0.53592 0.86488 0.86232 0.0
H2882 H 0.54213 0.84691 0.97243 0.0
H2883 H 0.54088 0.82886 0.01262 0.0
H2884 H 0.49673 0.80667 0.00398 0.0
H2885 H 0.49772 0.82448 0.96323 0.0
C2886 C 0.50235 0.89022 0.94894 0.0
C2887 C 0.48806 0.88154 0.95306 0.0
C2888 C 0.51072 0.88471 0.93984 0.0
C2889 C 0.50487 0.87045 0.93457 0.0
C2890 C 0.49061 0.86179 0.93876 0.0
C2891 C 0.48227 0.86728 0.94786 0.0
C2892 C 0.51354 0.86439 0.92514 0.0
C2893 C 0.51305 0.85409 0.94746 0.0
C2894 C 0.52206 0.86853 0.8944 0.0
C2895 C 0.52264 0.87902 0.86916 0.0
C2896 C 0.51058 0.87726 0.85263 0.0
C2897 C 0.51122 0.88723 0.82897 0.0
C2898 C 0.52387 0.89896 0.82141 0.0
C2899 C 0.53593 0.90073 0.83741 0.0
C2900 C 0.53535 0.89079 0.86113 0.0
C2901 C 0.53425 0.82189 0.88297 0.0
C2902 C 0.54866 0.82851 0.87997 0.0
C2903 C 0.5278 0.82946 0.89095 0.0
C2904 C 0.53566 0.84374 0.89636 0.0
C2905 C 0.55001 0.85049 0.89185 0.0
C2906 C 0.55649 0.84291 0.88377 0.0
C2907 C 0.52884 0.85144 0.90818 0.0
C2908 C 0.52972 0.86207 0.88649 0.0
C2909 C 0.52067 0.84762 0.93954 0.0
C2910 C 0.52001 0.83699 0.96455 0.0
C2911 C 0.53216 0.83814 0.97891 0.0
C2912 C 0.5315 0.82796 0.00181 0.0
C2913 C 0.51874 0.81661 0.0108 0.0
C2914 C 0.50661 0.81546 0.99698 0.0
C2915 C 0.50721 0.8256 0.97401 0.0
H2916 H 0.51825 0.80873 0.0285 0.0
H2917 H 0.52434 0.90667 0.80307 0.0
H2918 H 0.13416 0.61419 0.97522 0.0
H2919 H 0.14539 0.63889 0.96325 0.0
H2920 H 0.10563 0.63607 0.95483 0.0
H2921 H 0.09429 0.61124 0.9664 0.0
H2922 H 0.12203 0.64983 0.89913 0.0
H2923 H 0.12608 0.65168 0.02625 0.0
H2924 H 0.13178 0.64638 0.08571 0.0
H2925 H 0.1744 0.66503 0.05559 0.0
H2926 H 0.16892 0.67025 0.99572 0.0
H2927 H 0.15241 0.7231 0.88685 0.0
H2928 H 0.13868 0.69901 0.90582 0.0
H2929 H 0.1758 0.69662 0.91634 0.0
H2930 H 0.18958 0.7207 0.89778 0.0
H2931 H 0.15908 0.68588 0.9741 0.0
H2932 H 0.15463 0.68214 0.84568 0.0
H2933 H 0.149 0.68732 0.78597 0.0
H2934 H 0.10711 0.67219 0.81891 0.0
H2935 H 0.11255 0.66708 0.87901 0.0
C2936 C 0.12781 0.61885 0.97124 0.0
C2937 C 0.11336 0.6108 0.9717 0.0
C2938 C 0.13424 0.63298 0.96455 0.0
C2939 C 0.12633 0.63932 0.95845 0.0
C2940 C 0.1119 0.63135 0.95954 0.0
C2941 C 0.10545 0.6172 0.96626 0.0
C2942 C 0.1332 0.6541 0.94883 0.0
C2943 C 0.12994 0.65776 0.91584 0.0
C2944 C 0.14371 0.66437 0.97034 0.0
C2945 C 0.14706 0.66126 0.00636 0.0
C2946 C 0.13665 0.65455 0.03218 0.0
C2947 C 0.13984 0.65158 0.06599 0.0
C2948 C 0.15344 0.65534 0.07439 0.0
C2949 C 0.16387 0.66211 0.04903 0.0
C2950 C 0.16073 0.66509 0.01516 0.0
C2951 C 0.15762 0.7174 0.89298 0.0
C2952 C 0.17205 0.72374 0.89076 0.0
C2953 C 0.14977 0.70365 0.90377 0.0
C2954 C 0.15623 0.69604 0.91232 0.0
C2955 C 0.17063 0.70234 0.90993 0.0
C2956 C 0.17847 0.71607 0.89915 0.0
C2957 C 0.14805 0.68154 0.9242 0.0
C2958 C 0.15106 0.67796 0.9576 0.0
C2959 C 0.13732 0.67134 0.90309 0.0
C2960 C 0.13403 0.67438 0.86695 0.0
C2961 C 0.14425 0.68003 0.84028 0.0
C2962 C 0.14109 0.68293 0.80635 0.0
C2963 C 0.12772 0.68013 0.79868 0.0
C2964 C 0.11747 0.67438 0.82491 0.0
C2965 C 0.12058 0.67147 0.8589 0.0
H2966 H 0.12529 0.68238 0.77239 0.0
H2967 H 0.15589 0.65303 0.10059 0.0
H2968 H 0.27773 0.46072 0.88209 0.0
H2969 H 0.30252 0.47039 0.88785 0.0
H2970 H 0.29708 0.42943 0.88913 0.0
H2971 H 0.272 0.41957 0.88356 0.0
H2972 H 0.31533 0.44678 0.94131 0.0
H2973 H 0.30957 0.44768 0.81569 0.0
H2974 H 0.30043 0.4518 0.75991 0.0
H2975 H 0.32085 0.49514 0.78292 0.0
H2976 H 0.32994 0.49128 0.83915 0.0
H2977 H 0.38969 0.48464 0.93939 0.0
H2978 H 0.36607 0.46776 0.92129 0.0
H2979 H 0.35654 0.50048 0.91114 0.0
H2980 H 0.38 0.51731 0.92886 0.0
H2981 H 0.34657 0.48252 0.85507 0.0
H2982 H 0.34764 0.48062 0.98536 0.0
H2983 H 0.35605 0.47683 0.04286 0.0
H2984 H 0.34411 0.43549 0.01113 0.0
H2985 H 0.33579 0.4391 0.95322 0.0
C2986 C 0.28176 0.45373 0.88362 0.0
C2987 C 0.27295 0.43939 0.88221 0.0
C2988 C 0.29594 0.45928 0.88671 0.0
C2989 C 0.30162 0.45062 0.88824 0.0
C2990 C 0.29286 0.43626 0.88768 0.0
C2991 C 0.27859 0.43067 0.88451 0.0
C2992 C 0.31673 0.45682 0.89106 0.0
C2993 C 0.32222 0.45432 0.92201 0.0
C2994 C 0.32565 0.46673 0.86593 0.0
C2995 C 0.32041 0.46917 0.83176 0.0
C2996 C 0.31206 0.45809 0.80897 0.0
C2997 C 0.30689 0.46038 0.77725 0.0
C2998 C 0.31005 0.47372 0.76789 0.0
C2999 C 0.31842 0.48481 0.79019 0.0
C3000 C 0.32361 0.48258 0.82197 0.0
C3001 C 0.38255 0.4882 0.93313 0.0
C3002 C 0.38663 0.50226 0.93568 0.0
C3003 C 0.36909 0.47856 0.92285 0.0
C3004 C 0.35958 0.48289 0.91502 0.0
C3005 C 0.36375 0.49695 0.91693 0.0
C3006 C 0.37713 0.50654 0.92725 0.0
C3007 C 0.34508 0.47289 0.90603 0.0
C3008 C 0.33972 0.47467 0.87384 0.0
C3009 C 0.3363 0.46236 0.93003 0.0
C3010 C 0.34127 0.46019 0.96482 0.0
C3011 C 0.34692 0.47076 0.99054 0.0
C3012 C 0.35165 0.46864 0.02322 0.0
C3013 C 0.35066 0.45594 0.03059 0.0
C3014 C 0.3449 0.44533 0.00534 0.0
C3015 C 0.34018 0.44741 0.9726 0.0
H3016 H 0.35432 0.45432 0.05591 0.0
H3017 H 0.30601 0.47547 0.74335 0.0
H3018 H 0.09708 0.47995 0.47799 0.0
H3019 H 0.1088 0.46687 0.46515 0.0
H3020 H 0.1469 0.50494 0.44759 0.0
H3021 H 0.13533 0.51802 0.46035 0.0
H3022 H 0.1402 0.48593 0.39273 0.0
H3023 H 0.14252 0.48742 0.52243 0.0
H3024 H 0.13255 0.48319 0.58309 0.0
H3025 H 0.10914 0.43975 0.56138 0.0
H3026 H 0.11885 0.44376 0.50037 0.0
H3027 H 0.19425 0.47251 0.39449 0.0
H3028 H 0.17817 0.48026 0.41102 0.0
H3029 H 0.14586 0.43804 0.42513 0.0
H3030 H 0.16202 0.43014 0.40881 0.0
H3031 H 0.14619 0.45556 0.47878 0.0
H3032 H 0.14543 0.45351 0.35171 0.0
H3033 H 0.15521 0.45741 0.29089 0.0
H3034 H 0.17482 0.5012 0.30645 0.0
H3035 H 0.16534 0.49757 0.36761 0.0
C3036 C 0.10798 0.4855 0.47166 0.0
C3037 C 0.11531 0.49999 0.47008 0.0
C3038 C 0.11464 0.47803 0.46442 0.0
C3039 C 0.12869 0.48497 0.45544 0.0
C3040 C 0.13604 0.49942 0.45437 0.0
C3041 C 0.12942 0.50687 0.46178 0.0
C3042 C 0.13578 0.47731 0.44583 0.0
C3043 C 0.14159 0.47935 0.41159 0.0
C3044 C 0.13707 0.46831 0.47004 0.0
C3045 C 0.13127 0.46591 0.50671 0.0
C3046 C 0.13515 0.47698 0.53048 0.0
C3047 C 0.12957 0.47462 0.56494 0.0
C3048 C 0.12018 0.46121 0.57604 0.0
C3049 C 0.11639 0.45013 0.55272 0.0
C3050 C 0.12193 0.45244 0.51821 0.0
C3051 C 0.18375 0.46486 0.40128 0.0
C3052 C 0.17934 0.45072 0.40008 0.0
C3053 C 0.17457 0.4693 0.41062 0.0
C3054 C 0.1608 0.4597 0.41871 0.0
C3055 C 0.15645 0.44558 0.41878 0.0
C3056 C 0.16566 0.4411 0.40939 0.0
C3057 C 0.15102 0.4646 0.42612 0.0
C3058 C 0.14463 0.46198 0.45976 0.0
C3059 C 0.14909 0.47301 0.40126 0.0
C3060 C 0.15475 0.47526 0.36437 0.0
C3061 C 0.15191 0.46398 0.34227 0.0
C3062 C 0.15739 0.46614 0.30772 0.0
C3063 C 0.16565 0.47954 0.29484 0.0
C3064 C 0.16842 0.49082 0.31647 0.0
C3065 C 0.16299 0.48872 0.35107 0.0
H3066 H 0.16988 0.48119 0.26808 0.0
H3067 H 0.11588 0.4594 0.60274 0.0
H3068 H 0.51292 0.60692 0.45874 0.0
H3069 H 0.52739 0.6314 0.44364 0.0
H3070 H 0.49133 0.63592 0.44199 0.0
H3071 H 0.47685 0.61157 0.45704 0.0
H3072 H 0.50737 0.64612 0.3813 0.0
H3073 H 0.51319 0.64878 0.50963 0.0
H3074 H 0.51933 0.64293 0.5678 0.0
H3075 H 0.56069 0.65765 0.53085 0.0
H3076 H 0.55473 0.66341 0.47223 0.0
H3077 H 0.5319 0.71724 0.38524 0.0
H3078 H 0.52117 0.69267 0.3984 0.0
H3079 H 0.56111 0.69569 0.39757 0.0
H3080 H 0.57199 0.72042 0.38452 0.0
H3081 H 0.5454 0.68127 0.4558 0.0
H3082 H 0.54021 0.68051 0.32928 0.0
H3083 H 0.53417 0.68652 0.27119 0.0
H3084 H 0.49187 0.66815 0.30402 0.0
H3085 H 0.49768 0.66221 0.36254 0.0
C3086 C 0.50812 0.61319 0.45556 0.0
C3087 C 0.49377 0.60736 0.45897 0.0
C3088 C 0.51639 0.62714 0.44697 0.0
C3089 C 0.51039 0.63541 0.44167 0.0
C3090 C 0.49612 0.62966 0.44585 0.0
C3091 C 0.48788 0.61578 0.4546 0.0
C3092 C 0.51883 0.64993 0.43033 0.0
C3093 C 0.51562 0.65384 0.39769 0.0
C3094 C 0.52988 0.65984 0.45121 0.0
C3095 C 0.53347 0.65637 0.4864 0.0
C3096 C 0.52355 0.65064 0.51378 0.0
C3097 C 0.52701 0.64737 0.54686 0.0
C3098 C 0.54038 0.64987 0.55298 0.0
C3099 C 0.55033 0.65569 0.52605 0.0
C3100 C 0.54692 0.65897 0.4929 0.0
C3101 C 0.5384 0.71267 0.38763 0.0
C3102 C 0.55277 0.72071 0.38376 0.0
C3103 C 0.53225 0.69863 0.39504 0.0
C3104 C 0.54035 0.69237 0.3986 0.0
C3105 C 0.55471 0.70036 0.3948 0.0
C3106 C 0.56088 0.71444 0.38723 0.0
C3107 C 0.53371 0.67752 0.40717 0.0
C3108 C 0.53727 0.67353 0.43918 0.0
C3109 C 0.52299 0.6675 0.38567 0.0
C3110 C 0.51941 0.67101 0.35043 0.0
C3111 C 0.52964 0.67785 0.32423 0.0
C3112 C 0.52625 0.68122 0.2912 0.0
C3113 C 0.51265 0.67774 0.28394 0.0
C3114 C 0.5024 0.67085 0.30968 0.0
C3115 C 0.50574 0.66746 0.34278 0.0
H3116 H 0.51005 0.68036 0.25835 0.0
H3117 H 0.54303 0.64734 0.57861 0.0
H3118 H 0.38418 0.87242 0.48232 0.0
H3119 H 0.36022 0.86349 0.46479 0.0
H3120 H 0.36768 0.90496 0.45272 0.0
H3121 H 0.39191 0.9141 0.46976 0.0
H3122 H 0.34005 0.88194 0.4883 0.0
H3123 H 0.36846 0.89477 0.38236 0.0
H3124 H 0.38733 0.896 0.34561 0.0
H3125 H 0.36692 0.85178 0.34231 0.0
H3126 H 0.34804 0.85029 0.37961 0.0
H3127 H 0.27683 0.85343 0.3896 0.0
H3128 H 0.30092 0.86924 0.40597 0.0
H3129 H 0.30938 0.8357 0.40007 0.0
H3130 H 0.28544 0.81992 0.3835 0.0
H3131 H 0.3298 0.85896 0.36963 0.0
H3132 H 0.30326 0.84573 0.47926 0.0
H3133 H 0.2848 0.84338 0.51967 0.0
H3134 H 0.30172 0.88728 0.51845 0.0
H3135 H 0.32019 0.88987 0.47758 0.0
C3136 C 0.38069 0.87968 0.47667 0.0
C3137 C 0.38992 0.89395 0.47704 0.0
C3138 C 0.36701 0.87455 0.46667 0.0
C3139 C 0.36232 0.8836 0.45722 0.0
C3140 C 0.37121 0.89787 0.45997 0.0
C3141 C 0.385 0.90304 0.46963 0.0
C3142 C 0.34853 0.87794 0.44121 0.0
C3143 C 0.33779 0.87722 0.462 0.0
C3144 C 0.34571 0.87159 0.4072 0.0
C3145 C 0.35688 0.87243 0.38403 0.0
C3146 C 0.36804 0.88531 0.37403 0.0
C3147 C 0.37874 0.88605 0.35307 0.0
C3148 C 0.37835 0.87398 0.3417 0.0
C3149 C 0.36722 0.86113 0.35116 0.0
C3150 C 0.35651 0.86033 0.37218 0.0
C3151 C 0.28387 0.84948 0.3915 0.0
C3152 C 0.27928 0.83544 0.38547 0.0
C3153 C 0.29759 0.8585 0.40093 0.0
C3154 C 0.30687 0.85359 0.40448 0.0
C3155 C 0.30238 0.83968 0.3974 0.0
C3156 C 0.28869 0.83067 0.38808 0.0
C3157 C 0.32116 0.86272 0.41693 0.0
C3158 C 0.33203 0.86402 0.3955 0.0
C3159 C 0.32407 0.86952 0.45043 0.0
C3160 C 0.31299 0.86798 0.475 0.0
C3161 C 0.30297 0.85487 0.48735 0.0
C3162 C 0.29252 0.85349 0.51039 0.0
C3163 C 0.29206 0.86516 0.52152 0.0
C3164 C 0.30207 0.87824 0.50973 0.0
C3165 C 0.31253 0.87967 0.48663 0.0
H3166 H 0.28396 0.86408 0.53937 0.0
H3167 H 0.38664 0.87458 0.3255 0.0
H3168 H 0.27381 0.13286 0.17682 0.0
H3169 H 0.29813 0.14054 0.16653 0.0
H3170 H 0.30624 0.18191 0.14701 0.0
H3171 H 0.28181 0.17426 0.15709 0.0
H3172 H 0.31961 0.17377 0.09864 0.0
H3173 H 0.31449 0.17484 0.22546 0.0
H3174 H 0.3041 0.16568 0.28449 0.0
H3175 H 0.31433 0.13362 0.27487 0.0
H3176 H 0.3246 0.14248 0.2155 0.0
H3177 H 0.39295 0.20612 0.1262 0.0
H3178 H 0.36849 0.19937 0.12739 0.0
H3179 H 0.35761 0.15719 0.14752 0.0
H3180 H 0.38197 0.16383 0.14636 0.0
H3181 H 0.34584 0.16677 0.1954 0.0
H3182 H 0.35098 0.16585 0.06804 0.0
H3183 H 0.36138 0.17522 0.00916 0.0
H3184 H 0.35142 0.20741 0.0202 0.0
H3185 H 0.34113 0.19835 0.07943 0.0
C3186 C 0.28075 0.14358 0.1702 0.0
C3187 C 0.27595 0.15299 0.16799 0.0
C3188 C 0.29464 0.14796 0.16439 0.0
C3189 C 0.30399 0.16182 0.1564 0.0
C3190 C 0.29917 0.17117 0.1532 0.0
C3191 C 0.28525 0.16681 0.15911 0.0
C3192 C 0.31885 0.16654 0.15247 0.0
C3193 C 0.32542 0.17243 0.11993 0.0
C3194 C 0.32633 0.16458 0.18011 0.0
C3195 C 0.3202 0.15925 0.21587 0.0
C3196 C 0.31442 0.16577 0.23579 0.0
C3197 C 0.30857 0.16064 0.26934 0.0
C3198 C 0.30852 0.14906 0.28338 0.0
C3199 C 0.31436 0.14259 0.26394 0.0
C3200 C 0.32021 0.14766 0.23035 0.0
C3201 C 0.38532 0.19539 0.13043 0.0
C3202 C 0.38935 0.18551 0.13633 0.0
C3203 C 0.37137 0.19154 0.131 0.0
C3204 C 0.36126 0.17778 0.13751 0.0
C3205 C 0.36526 0.16786 0.14251 0.0
C3206 C 0.37918 0.17167 0.14174 0.0
C3207 C 0.34659 0.17382 0.14138 0.0
C3208 C 0.34005 0.16812 0.17407 0.0
C3209 C 0.3392 0.17602 0.11393 0.0
C3210 C 0.34542 0.18151 0.07836 0.0
C3211 C 0.35113 0.17501 0.05808 0.0
C3212 C 0.35698 0.18025 0.0246 0.0
C3213 C 0.3571 0.19193 0.01099 0.0
C3214 C 0.35134 0.19838 0.0308 0.0
C3215 C 0.34549 0.19319 0.06432 0.0
H3216 H 0.36163 0.19596 0.98506 0.0
H3217 H 0.30399 0.1451 0.30936 0.0
H3218 H 0.83336 0.2227 0.15611 0.0
H3219 H 0.84142 0.2061 0.16138 0.0
H3220 H 0.7994 0.17305 0.17335 0.0
H3221 H 0.79129 0.18961 0.16853 0.0
H3222 H 0.81644 0.17051 0.22017 0.0
H3223 H 0.81564 0.1784 0.0941 0.0
H3224 H 0.82121 0.1924 0.03919 0.0
H3225 H 0.8644 0.20797 0.0569 0.0
H3226 H 0.85909 0.1942 0.11223 0.0
H3227 H 0.82614 0.11383 0.18073 0.0
H3228 H 0.81874 0.13103 0.17936 0.0
H3229 H 0.86113 0.16347 0.16942 0.0
H3230 H 0.86858 0.14634 0.17058 0.0
H3231 H 0.84429 0.16661 0.12241 0.0
H3232 H 0.84494 0.15817 0.24798 0.0
H3233 H 0.83921 0.14401 0.30261 0.0
H3234 H 0.79613 0.12925 0.28554 0.0
H3235 H 0.80159 0.14318 0.23048 0.0
C3236 C 0.82585 0.21191 0.16005 0.0
C3237 C 0.81169 0.20743 0.16175 0.0
C3238 C 0.83046 0.20244 0.16292 0.0
C3239 C 0.82098 0.18833 0.16731 0.0
C3240 C 0.80687 0.18389 0.16991 0.0
C3241 C 0.80226 0.19335 0.16705 0.0
C3242 C 0.82575 0.17816 0.16861 0.0
C3243 C 0.82239 0.16954 0.19862 0.0
C3244 C 0.83375 0.17711 0.1408 0.0
C3245 C 0.83697 0.18538 0.10751 0.0
C3246 C 0.82633 0.1849 0.08645 0.0
C3247 C 0.82944 0.19278 0.05522 0.0
C3248 C 0.84315 0.2011 0.04461 0.0
C3249 C 0.85378 0.20153 0.06518 0.0
C3250 C 0.85073 0.19369 0.09646 0.0
C3251 C 0.83387 0.12463 0.17825 0.0
C3252 C 0.84793 0.12876 0.17581 0.0
C3253 C 0.82964 0.13444 0.17764 0.0
C3254 C 0.83941 0.14852 0.17464 0.0
C3255 C 0.85344 0.15265 0.17181 0.0
C3256 C 0.85768 0.14286 0.17255 0.0
C3257 C 0.83497 0.15895 0.17395 0.0
C3258 C 0.83837 0.16761 0.14402 0.0
C3259 C 0.82699 0.16 0.20179 0.0
C3260 C 0.82367 0.15162 0.23491 0.0
C3261 C 0.83424 0.15182 0.2557 0.0
C3262 C 0.83104 0.14384 0.28678 0.0
C3263 C 0.81731 0.1357 0.29749 0.0
C3264 C 0.80676 0.13554 0.27718 0.0
C3265 C 0.8099 0.14348 0.24605 0.0
H3266 H 0.81486 0.12954 0.32157 0.0
H3267 H 0.84554 0.20719 0.02042 0.0
H3268 H 0.78135 0.62019 0.14334 0.0
H3269 H 0.79929 0.64419 0.15318 0.0
H3270 H 0.8306 0.63271 0.14235 0.0
H3271 H 0.81273 0.6087 0.13295 0.0
H3272 H 0.83578 0.64967 0.19839 0.0
H3273 H 0.82422 0.64881 0.07455 0.0
H3274 H 0.80874 0.6442 0.02304 0.0
H3275 H 0.7962 0.67177 0.06606 0.0
H3276 H 0.81146 0.6764 0.11811 0.0
H3277 H 0.89259 0.71786 0.18288 0.0
H3278 H 0.87542 0.6939 0.16917 0.0
H3279 H 0.84291 0.70367 0.18035 0.0
H3280 H 0.85999 0.72763 0.19365 0.0
H3281 H 0.83884 0.68751 0.12266 0.0
H3282 H 0.84981 0.68777 0.24729 0.0
H3283 H 0.86522 0.69237 0.29893 0.0
H3284 H 0.87884 0.66588 0.25431 0.0
H3285 H 0.86364 0.66128 0.20213 0.0
C3286 C 0.79207 0.62279 0.14308 0.0
C3287 C 0.79566 0.6126 0.13725 0.0
C3288 C 0.80229 0.6365 0.14854 0.0
C3289 C 0.81628 0.64025 0.14805 0.0
C3290 C 0.81987 0.63004 0.14274 0.0
C3291 C 0.80966 0.61634 0.13729 0.0
C3292 C 0.82718 0.6548 0.15336 0.0
C3293 C 0.83658 0.65793 0.18151 0.0
C3294 C 0.82803 0.66558 0.13175 0.0
C3295 C 0.81888 0.66285 0.10041 0.0
C3296 C 0.81807 0.65381 0.07317 0.0
C3297 C 0.80936 0.6512 0.04385 0.0
C3298 C 0.80147 0.65766 0.04132 0.0
C3299 C 0.8023 0.66676 0.06807 0.0
C3300 C 0.81099 0.66939 0.09748 0.0
C3301 C 0.88179 0.7149 0.18229 0.0
C3302 C 0.87761 0.72457 0.1896 0.0
C3303 C 0.872 0.70121 0.17457 0.0
C3304 C 0.85789 0.69699 0.17418 0.0
C3305 C 0.85374 0.70672 0.18059 0.0
C3306 C 0.86351 0.72038 0.18833 0.0
C3307 C 0.84739 0.68238 0.16776 0.0
C3308 C 0.83806 0.67924 0.13943 0.0
C3309 C 0.8466 0.67159 0.1892 0.0
C3310 C 0.8557 0.6743 0.22063 0.0
C3311 C 0.85617 0.68302 0.24835 0.0
C3312 C 0.86485 0.68561 0.27774 0.0
C3313 C 0.87303 0.67945 0.27985 0.0
C3314 C 0.87252 0.67066 0.25261 0.0
C3315 C 0.86386 0.66805 0.22313 0.0
H3316 H 0.87975 0.68147 0.30263 0.0
H3317 H 0.79473 0.65563 0.0186 0.0
H3318 H 0.21003 0.39901 0.32264 0.0
H3319 H 0.20062 0.37453 0.3095 0.0
H3320 H 0.15973 0.36671 0.335 0.0
H3321 H 0.16913 0.39114 0.34889 0.0
H3322 H 0.16458 0.34842 0.36658 0.0
H3323 H 0.1696 0.3664 0.24817 0.0
H3324 H 0.1817 0.38192 0.19754 0.0
H3325 H 0.21082 0.36763 0.19512 0.0
H3326 H 0.19902 0.35215 0.24609 0.0
H3327 H 0.13084 0.2792 0.30565 0.0
H3328 H 0.13819 0.30377 0.30854 0.0
H3329 H 0.18046 0.31408 0.29304 0.0
H3330 H 0.17319 0.28955 0.29 0.0
H3331 H 0.17369 0.33092 0.25387 0.0
H3332 H 0.16948 0.31426 0.37489 0.0
H3333 H 0.15738 0.29881 0.42565 0.0
H3334 H 0.12654 0.31088 0.42268 0.0
H3335 H 0.13836 0.32626 0.37152 0.0
C3336 C 0.19902 0.39208 0.32529 0.0
C3337 C 0.19031 0.39696 0.33687 0.0
C3338 C 0.19365 0.37811 0.31756 0.0
C3339 C 0.17945 0.36882 0.3209 0.0
C3340 C 0.17072 0.37371 0.3322 0.0
C3341 C 0.17609 0.38767 0.34007 0.0
C3342 C 0.1738 0.3539 0.31417 0.0
C3343 C 0.16636 0.34458 0.34166 0.0
C3344 C 0.17638 0.34893 0.28195 0.0
C3345 C 0.18347 0.35818 0.25114 0.0
C3346 C 0.17864 0.36663 0.23701 0.0
C3347 C 0.18543 0.3754 0.20821 0.0
C3348 C 0.19701 0.37575 0.19312 0.0
C3349 C 0.20184 0.36734 0.20681 0.0
C3350 C 0.19509 0.35854 0.23563 0.0
C3351 C 0.14168 0.28671 0.30256 0.0
C3352 C 0.15146 0.28248 0.29787 0.0
C3353 C 0.14586 0.30072 0.30426 0.0
C3354 C 0.15988 0.31072 0.30132 0.0
C3355 C 0.1696 0.30652 0.29535 0.0
C3356 C 0.16543 0.29251 0.2938 0.0
C3357 C 0.16452 0.32552 0.3063 0.0
C3358 C 0.1718 0.3348 0.27858 0.0
C3359 C 0.16178 0.33048 0.33827 0.0
C3360 C 0.15471 0.32129 0.36914 0.0
C3361 C 0.16005 0.31354 0.38487 0.0
C3362 C 0.15326 0.3048 0.41374 0.0
C3363 C 0.14118 0.30383 0.42731 0.0
C3364 C 0.13589 0.31162 0.41209 0.0
C3365 C 0.14263 0.32035 0.38318 0.0
H3366 H 0.13594 0.29707 0.44967 0.0
H3367 H 0.20225 0.38255 0.1708 0.0
H3368 H 0.60802 0.80786 0.33289 0.0
H3369 H 0.63207 0.82456 0.31899 0.0
H3370 H 0.64331 0.79346 0.33823 0.0
H3371 H 0.61923 0.77667 0.35212 0.0
H3372 H 0.66007 0.81766 0.37343 0.0
H3373 H 0.64276 0.80333 0.2552 0.0
H3374 H 0.62738 0.79846 0.20338 0.0
H3375 H 0.63806 0.84098 0.19937 0.0
H3376 H 0.65334 0.84608 0.2516 0.0
H3377 H 0.7286 0.85656 0.30953 0.0
H3378 H 0.70443 0.83854 0.31535 0.0
H3379 H 0.69178 0.86873 0.2988 0.0
H3380 H 0.71598 0.88685 0.29293 0.0
H3381 H 0.67586 0.84441 0.26043 0.0
H3382 H 0.69125 0.85821 0.3813 0.0
H3383 H 0.70662 0.86336 0.43319 0.0
H3384 H 0.69953 0.82197 0.43166 0.0
H3385 H 0.68407 0.81656 0.37962 0.0
C3386 C 0.61561 0.80457 0.33403 0.0
C3387 C 0.61179 0.79099 0.34373 0.0
C3388 C 0.62932 0.81409 0.32586 0.0
C3389 C 0.63943 0.8102 0.32736 0.0
C3390 C 0.63563 0.79663 0.33687 0.0
C3391 C 0.6219 0.78707 0.34475 0.0
C3392 C 0.65407 0.82051 0.32076 0.0
C3393 C 0.66357 0.82333 0.34847 0.0
C3394 C 0.65852 0.82814 0.28854 0.0
C3395 C 0.64913 0.82507 0.25754 0.0
C3396 C 0.64173 0.81162 0.24353 0.0
C3397 C 0.63306 0.80883 0.214 0.0
C3398 C 0.63179 0.81941 0.19802 0.0
C3399 C 0.6391 0.8328 0.2117 0.0
C3400 C 0.64776 0.83565 0.24128 0.0
C3401 C 0.72067 0.85936 0.30698 0.0
C3402 C 0.72416 0.87311 0.30093 0.0
C3403 C 0.70689 0.84906 0.31039 0.0
C3404 C 0.69635 0.85234 0.30778 0.0
C3405 C 0.69978 0.86601 0.30089 0.0
C3406 C 0.71358 0.87634 0.29769 0.0
C3407 C 0.68179 0.84154 0.31312 0.0
C3408 C 0.67234 0.83865 0.28525 0.0
C3409 C 0.67733 0.83384 0.3452 0.0
C3410 C 0.68663 0.83703 0.37637 0.0
C3411 C 0.69305 0.85024 0.39186 0.0
C3412 C 0.70176 0.8532 0.42135 0.0
C3413 C 0.70413 0.84303 0.43562 0.0
C3414 C 0.69771 0.82985 0.42053 0.0
C3415 C 0.68894 0.82681 0.3911 0.0
H3416 H 0.71089 0.84536 0.45843 0.0
H3417 H 0.6251 0.81723 0.1751 0.0
H3418 H 0.19252 0.80324 0.36827 0.0
H3419 H 0.17607 0.81085 0.35426 0.0
H3420 H 0.20846 0.84744 0.30388 0.0
H3421 H 0.22507 0.84 0.3185 0.0
H3422 H 0.19305 0.85357 0.34604 0.0
H3423 H 0.18433 0.82058 0.25376 0.0
H3424 H 0.17931 0.79814 0.22891 0.0
H3425 H 0.14095 0.77801 0.28625 0.0
H3426 H 0.14583 0.8003 0.31186 0.0
H3427 H 0.14647 0.87277 0.2732 0.0
H3428 H 0.16388 0.86569 0.27701 0.0
H3429 H 0.1346 0.82822 0.33071 0.0
H3430 H 0.11711 0.83511 0.32643 0.0
H3431 H 0.14928 0.82328 0.28203 0.0
H3432 H 0.15883 0.85583 0.37763 0.0
H3433 H 0.1638 0.87814 0.40328 0.0
H3434 H 0.20063 0.89899 0.33989 0.0
H3435 H 0.19577 0.87679 0.31349 0.0
C3436 C 0.19614 0.8129 0.35417 0.0
C3437 C 0.21006 0.82102 0.3444 0.0
C3438 C 0.18672 0.81719 0.346 0.0
C3439 C 0.191 0.82961 0.32754 0.0
C3440 C 0.20494 0.8378 0.31803 0.0
C3441 C 0.21439 0.83353 0.32635 0.0
C3442 C 0.18098 0.83416 0.31894 0.0
C3443 C 0.1836 0.84706 0.33147 0.0
C3444 C 0.16852 0.82553 0.30053 0.0
C3445 C 0.1655 0.81211 0.28494 0.0
C3446 C 0.17487 0.81136 0.26126 0.0
C3447 C 0.17204 0.79866 0.24701 0.0
C3448 C 0.15984 0.78665 0.25605 0.0
C3449 C 0.15041 0.78732 0.27929 0.0
C3450 C 0.15319 0.79998 0.29365 0.0
C3451 C 0.14373 0.86299 0.28558 0.0
C3452 C 0.13047 0.85453 0.29972 0.0
C3453 C 0.15369 0.85898 0.28784 0.0
C3454 C 0.15057 0.84652 0.30456 0.0
C3455 C 0.13722 0.83788 0.31773 0.0
C3456 C 0.12725 0.84186 0.31537 0.0
C3457 C 0.16131 0.84262 0.30946 0.0
C3458 C 0.15881 0.82984 0.29626 0.0
C3459 C 0.17387 0.85135 0.32728 0.0
C3460 C 0.17685 0.86468 0.34331 0.0
C3461 C 0.16793 0.86518 0.36897 0.0
C3462 C 0.17074 0.8778 0.38367 0.0
C3463 C 0.18251 0.88998 0.37314 0.0
C3464 C 0.19151 0.88955 0.34797 0.0
C3465 C 0.18874 0.87695 0.33315 0.0
H3466 H 0.18466 0.89974 0.38455 0.0
H3467 H 0.15767 0.77684 0.245 0.0
H3468 H 0.71387 0.82517 0.81976 0.0
H3469 H 0.68978 0.81905 0.82797 0.0
H3470 H 0.70139 0.86192 0.81864 0.0
H3471 H 0.7255 0.86814 0.81098 0.0
H3472 H 0.68389 0.84982 0.8733 0.0
H3473 H 0.68597 0.83978 0.74944 0.0
H3474 H 0.69103 0.82916 0.69818 0.0
H3475 H 0.66298 0.78883 0.73932 0.0
H3476 H 0.65789 0.79921 0.79113 0.0
H3477 H 0.61609 0.83906 0.84973 0.0
H3478 H 0.6403 0.84576 0.84036 0.0
H3479 H 0.62988 0.80326 0.85109 0.0
H3480 H 0.60569 0.79648 0.86008 0.0
H3481 H 0.64682 0.81555 0.79485 0.0
H3482 H 0.64509 0.8256 0.9192 0.0
H3483 H 0.64002 0.8362 0.97047 0.0
H3484 H 0.66739 0.87653 0.92819 0.0
H3485 H 0.67249 0.86616 0.87639 0.0
C3486 C 0.71128 0.83328 0.81947 0.0
C3487 C 0.72154 0.84712 0.81464 0.0
C3488 C 0.69752 0.82977 0.824 0.0
C3489 C 0.69379 0.84002 0.82349 0.0
C3490 C 0.70405 0.85386 0.81907 0.0
C3491 C 0.71781 0.85738 0.81461 0.0
C3492 C 0.67921 0.83634 0.82788 0.0
C3493 C 0.67581 0.84247 0.85584 0.0
C3494 C 0.66864 0.82655 0.80553 0.0
C3495 C 0.67166 0.82028 0.77435 0.0
C3496 C 0.68097 0.82865 0.74771 0.0
C3497 C 0.68382 0.82267 0.71853 0.0
C3498 C 0.67736 0.80833 0.71554 0.0
C3499 C 0.66799 0.79994 0.74169 0.0
C3500 C 0.66511 0.80586 0.77096 0.0
C3501 C 0.61898 0.83116 0.85011 0.0
C3502 C 0.60904 0.81726 0.85578 0.0
C3503 C 0.6328 0.835 0.84487 0.0
C3504 C 0.63688 0.82501 0.84537 0.0
C3505 C 0.62693 0.81112 0.85063 0.0
C3506 C 0.61314 0.80728 0.85589 0.0
C3507 C 0.65152 0.82899 0.84033 0.0
C3508 C 0.65492 0.82292 0.81225 0.0
C3509 C 0.66208 0.83884 0.86256 0.0
C3510 C 0.65906 0.8451 0.89373 0.0
C3511 C 0.64994 0.83673 0.92069 0.0
C3512 C 0.64708 0.8427 0.94987 0.0
C3513 C 0.65335 0.85703 0.95254 0.0
C3514 C 0.66253 0.86543 0.92606 0.0
C3515 C 0.66542 0.85951 0.8968 0.0
H3516 H 0.65112 0.86163 0.97516 0.0
H3517 H 0.67958 0.80372 0.69292 0.0
H3518 H 0.15925 0.7756 0.84187 0.0
H3519 H 0.15001 0.79117 0.83424 0.0
H3520 H 0.19004 0.82599 0.85816 0.0
H3521 H 0.19931 0.81049 0.86612 0.0
H3522 H 0.16956 0.82741 0.89357 0.0
H3523 H 0.17882 0.81919 0.77317 0.0
H3524 H 0.17733 0.80493 0.72122 0.0
H3525 H 0.13334 0.78726 0.71888 0.0
H3526 H 0.13456 0.80128 0.77117 0.0
H3527 H 0.16112 0.88198 0.82606 0.0
H3528 H 0.16872 0.86525 0.83662 0.0
H3529 H 0.12752 0.83191 0.81578 0.0
H3530 H 0.11982 0.84859 0.80526 0.0
H3531 H 0.14759 0.82905 0.77977 0.0
H3532 H 0.13825 0.83746 0.8992 0.0
H3533 H 0.1396 0.85156 0.95133 0.0
H3534 H 0.18351 0.86886 0.95531 0.0
H3535 H 0.18245 0.8549 0.90301 0.0
C3536 C 0.16607 0.78657 0.84547 0.0
C3537 C 0.18 0.79184 0.85447 0.0
C3538 C 0.1608 0.79545 0.84101 0.0
C3539 C 0.16938 0.80974 0.84536 0.0
C3540 C 0.18326 0.815 0.8547 0.0
C3541 C 0.18854 0.80614 0.8591 0.0
C3542 C 0.16391 0.81923 0.84018 0.0
C3543 C 0.1649 0.82788 0.86856 0.0
C3544 C 0.15752 0.81958 0.80784 0.0
C3545 C 0.15677 0.81118 0.77632 0.0
C3546 C 0.16882 0.81218 0.76177 0.0
C3547 C 0.16802 0.80415 0.73223 0.0
C3548 C 0.15524 0.79517 0.71682 0.0
C3549 C 0.14323 0.79421 0.73088 0.0
C3550 C 0.14397 0.8022 0.76045 0.0
C3551 C 0.15368 0.87109 0.82384 0.0
C3552 C 0.13988 0.86658 0.81486 0.0
C3553 C 0.15802 0.86155 0.83 0.0
C3554 C 0.14865 0.84736 0.82719 0.0
C3555 C 0.13489 0.84282 0.81809 0.0
C3556 C 0.13051 0.85235 0.8122 0.0
C3557 C 0.15333 0.83728 0.83307 0.0
C3558 C 0.1522 0.82852 0.80483 0.0
C3559 C 0.15958 0.83682 0.86553 0.0
C3560 C 0.16028 0.84523 0.89698 0.0
C3561 C 0.14821 0.84435 0.911 0.0
C3562 C 0.14892 0.8523 0.94062 0.0
C3563 C 0.16164 0.86115 0.95652 0.0
C3564 C 0.17367 0.86202 0.94292 0.0
C3565 C 0.17302 0.85407 0.91334 0.0
H3566 H 0.16216 0.8673 0.97943 0.0
H3567 H 0.15465 0.78897 0.69395 0.0
H3568 H 0.18563 0.38762 0.83092 0.0
H3569 H 0.1677 0.36334 0.82533 0.0
H3570 H 0.19382 0.35118 0.88028 0.0
H3571 H 0.21179 0.37539 0.88582 0.0
H3572 H 0.1696 0.34233 0.79086 0.0
H3573 H 0.17269 0.323 0.93238 0.0
H3574 H 0.17802 0.33187 0.99419 0.0
H3575 H 0.16556 0.36152 0.96974 0.0
H3576 H 0.15997 0.3527 0.90797 0.0
H3577 H 0.14455 0.27044 0.8001 0.0
H3578 H 0.15862 0.29536 0.80944 0.0
H3579 H 0.12364 0.29594 0.85574 0.0
H3580 H 0.1094 0.271 0.84589 0.0
H3581 H 0.14948 0.31102 0.89513 0.0
H3582 H 0.13045 0.30708 0.77777 0.0
H3583 H 0.12474 0.29829 0.71599 0.0
H3584 H 0.16779 0.31562 0.6922 0.0
H3585 H 0.17375 0.32433 0.75404 0.0
C3586 C 0.18751 0.37976 0.84194 0.0
C3587 C 0.20009 0.38336 0.85879 0.0
C3588 C 0.17729 0.36593 0.83866 0.0
C3589 C 0.17943 0.35552 0.85262 0.0
C3590 C 0.19194 0.35909 0.86968 0.0
C3591 C 0.2022 0.37291 0.87269 0.0
C3592 C 0.16879 0.34086 0.84837 0.0
C3593 C 0.16514 0.3355 0.81364 0.0
C3594 C 0.16289 0.33202 0.87817 0.0
C3595 C 0.16602 0.33726 0.91545 0.0
C3596 C 0.17102 0.33137 0.94024 0.0
C3597 C 0.1741 0.33639 0.97527 0.0
C3598 C 0.17217 0.34727 0.98585 0.0
C3599 C 0.1671 0.35312 0.96147 0.0
C3600 C 0.164 0.34813 0.92643 0.0
C3601 C 0.13987 0.27587 0.81238 0.0
C3602 C 0.12589 0.26883 0.82219 0.0
C3603 C 0.1479 0.29007 0.8176 0.0
C3604 C 0.14211 0.29742 0.83309 0.0
C3605 C 0.12824 0.29039 0.84371 0.0
C3606 C 0.12014 0.2762 0.83798 0.0
C3607 C 0.15058 0.3125 0.83767 0.0
C3608 C 0.15385 0.31791 0.8724 0.0
C3609 C 0.15607 0.32141 0.8079 0.0
C3610 C 0.15254 0.31625 0.77063 0.0
C3611 C 0.1387 0.30891 0.75946 0.0
C3612 C 0.13542 0.30396 0.72441 0.0
C3613 C 0.1459 0.30637 0.70021 0.0
C3614 C 0.15968 0.31375 0.71099 0.0
C3615 C 0.16302 0.31871 0.74602 0.0
H3616 H 0.14334 0.30253 0.67309 0.0
H3617 H 0.17457 0.35116 0.01297 0.0
H3618 H 0.83266 0.71701 0.67063 0.0
H3619 H 0.82469 0.69272 0.65779 0.0
H3620 H 0.86217 0.69719 0.70297 0.0
H3621 H 0.87028 0.72149 0.71535 0.0
H3622 H 0.85572 0.68292 0.64149 0.0
H3623 H 0.83215 0.6818 0.75013 0.0
H3624 H 0.81744 0.68697 0.78868 0.0
H3625 H 0.78358 0.66549 0.71592 0.0
H3626 H 0.79816 0.66036 0.67667 0.0
H3627 H 0.83477 0.61219 0.66361 0.0
H3628 H 0.84245 0.63651 0.6748 0.0
H3629 H 0.80483 0.63118 0.62823 0.0
H3630 H 0.79702 0.60683 0.61737 0.0
H3631 H 0.81113 0.64588 0.68944 0.0
H3632 H 0.8346 0.6467 0.58123 0.0
H3633 H 0.8493 0.64151 0.54273 0.0
H3634 H 0.88335 0.66352 0.61465 0.0
H3635 H 0.86878 0.66869 0.65386 0.0
C3636 C 0.83919 0.7128 0.67781 0.0
C3637 C 0.85206 0.7211 0.69417 0.0
C3638 C 0.83462 0.69893 0.67056 0.0
C3639 C 0.84278 0.69312 0.67983 0.0
C3640 C 0.85571 0.70146 0.69566 0.0
C3641 C 0.86031 0.71533 0.70281 0.0
C3642 C 0.83785 0.67834 0.67316 0.0
C3643 C 0.84605 0.67481 0.65233 0.0
C3644 C 0.82509 0.66779 0.68664 0.0
C3645 C 0.81629 0.67081 0.71028 0.0
C3646 C 0.8216 0.67827 0.74221 0.0
C3647 C 0.81328 0.68118 0.76421 0.0
C3648 C 0.79959 0.67659 0.7547 0.0
C3649 C 0.79419 0.66906 0.72322 0.0
C3650 C 0.80247 0.66613 0.7011 0.0
C3651 C 0.82815 0.61622 0.65575 0.0
C3652 C 0.81534 0.60766 0.63944 0.0
C3653 C 0.83256 0.63011 0.66205 0.0
C3654 C 0.82428 0.63568 0.65194 0.0
C3655 C 0.81139 0.62709 0.63616 0.0
C3656 C 0.80697 0.6132 0.62988 0.0
C3657 C 0.82903 0.65046 0.65789 0.0
C3658 C 0.82079 0.65399 0.67856 0.0
C3659 C 0.84176 0.66101 0.64426 0.0
C3660 C 0.85056 0.65797 0.62066 0.0
C3661 C 0.84519 0.65034 0.58898 0.0
C3662 C 0.8535 0.64742 0.56701 0.0
C3663 C 0.86724 0.65215 0.57628 0.0
C3664 C 0.8727 0.65985 0.60752 0.0
C3665 C 0.86442 0.66279 0.62961 0.0
H3666 H 0.87366 0.64988 0.55923 0.0
H3667 H 0.79317 0.67886 0.77177 0.0
H3668 H 0.27501 0.13743 0.66588 0.0
H3669 H 0.29973 0.154 0.66136 0.0
H3670 H 0.30884 0.12512 0.71352 0.0
H3671 H 0.2841 0.10836 0.71755 0.0
H3672 H 0.3236 0.15246 0.74129 0.0
H3673 H 0.31427 0.1285 0.63087 0.0
H3674 H 0.30289 0.11853 0.57335 0.0
H3675 H 0.31343 0.15879 0.53518 0.0
H3676 H 0.32468 0.169 0.59279 0.0
H3677 H 0.39548 0.18685 0.69697 0.0
H3678 H 0.37101 0.16969 0.70387 0.0
H3679 H 0.35992 0.19684 0.6501 0.0
H3680 H 0.38436 0.2141 0.64333 0.0
H3681 H 0.34634 0.16972 0.62363 0.0
H3682 H 0.35581 0.19336 0.73668 0.0
H3683 H 0.36842 0.20263 0.79328 0.0
H3684 H 0.35836 0.16188 0.82587 0.0
H3685 H 0.34586 0.15238 0.76919 0.0
C3686 C 0.28229 0.13463 0.67643 0.0
C3687 C 0.27767 0.12163 0.69207 0.0
C3688 C 0.29638 0.14406 0.6737 0.0
C3689 C 0.30606 0.14073 0.68698 0.0
C3690 C 0.30149 0.12785 0.70312 0.0
C3691 C 0.28739 0.1183 0.70531 0.0
C3692 C 0.32097 0.15078 0.68409 0.0
C3693 C 0.32864 0.15612 0.71559 0.0
C3694 C 0.32742 0.15563 0.65051 0.0
C3695 C 0.32018 0.1495 0.61635 0.0
C3696 C 0.31399 0.13521 0.61044 0.0
C3697 C 0.30761 0.12952 0.57776 0.0
C3698 C 0.30746 0.13802 0.55063 0.0
C3699 C 0.31359 0.15222 0.55622 0.0
C3700 C 0.31995 0.15797 0.5889 0.0
C3701 C 0.38782 0.18918 0.68679 0.0
C3702 C 0.3918 0.2018 0.66963 0.0
C3703 C 0.37387 0.1794 0.69084 0.0
C3704 C 0.3637 0.18205 0.67762 0.0
C3705 C 0.36764 0.19463 0.66049 0.0
C3706 C 0.38158 0.20448 0.65676 0.0
C3707 C 0.34893 0.17155 0.68081 0.0
C3708 C 0.34129 0.16609 0.64934 0.0
C3709 C 0.34255 0.1665 0.71439 0.0
C3710 C 0.35003 0.17218 0.74852 0.0
C3711 C 0.3564 0.18639 0.75577 0.0
C3712 C 0.3635 0.19168 0.7879 0.0
C3713 C 0.36422 0.18285 0.81311 0.0
C3714 C 0.35781 0.16871 0.80629 0.0
C3715 C 0.35071 0.16336 0.77418 0.0
H3716 H 0.36973 0.18697 0.83797 0.0
H3717 H 0.30261 0.1336 0.52525 0.0
H3718 H 0.89246 0.17661 0.65891 0.0
H3719 H 0.87511 0.18356 0.65004 0.0
H3720 H 0.84275 0.14122 0.66179 0.0
H3721 H 0.85999 0.13419 0.67008 0.0
H3722 H 0.83772 0.15325 0.60631 0.0
H3723 H 0.85104 0.16433 0.7299 0.0
H3724 H 0.86739 0.17542 0.77967 0.0
H3725 H 0.87988 0.21532 0.73511 0.0
H3726 H 0.86372 0.20445 0.6848 0.0
H3727 H 0.77981 0.16061 0.6443 0.0
H3728 H 0.79872 0.15565 0.64546 0.0
H3729 H 0.82809 0.19896 0.63259 0.0
H3730 H 0.80922 0.20403 0.63191 0.0
H3731 H 0.83569 0.18783 0.68516 0.0
H3732 H 0.82103 0.17665 0.56357 0.0
H3733 H 0.80439 0.1654 0.51447 0.0
H3734 H 0.79425 0.12559 0.55537 0.0
H3735 H 0.81068 0.13659 0.60505 0.0
C3736 C 0.88164 0.1688 0.65963 0.0
C3737 C 0.87756 0.15487 0.66529 0.0
C3738 C 0.87175 0.17278 0.65465 0.0
C3739 C 0.85764 0.16291 0.65554 0.0
C3740 C 0.85358 0.14899 0.66094 0.0
C3741 C 0.86344 0.14501 0.66582 0.0
C3742 C 0.84704 0.16701 0.65096 0.0
C3743 C 0.83719 0.16072 0.62375 0.0
C3744 C 0.84659 0.17702 0.67313 0.0
C3745 C 0.85628 0.18357 0.70339 0.0
C3746 C 0.85735 0.17546 0.73057 0.0
C3747 C 0.86657 0.18171 0.7589 0.0
C3748 C 0.8747 0.19607 0.76049 0.0
C3749 C 0.8736 0.20421 0.73381 0.0
C3750 C 0.8644 0.19801 0.70539 0.0
C3751 C 0.79029 0.16907 0.64145 0.0
C3752 C 0.79305 0.18271 0.63801 0.0
C3753 C 0.80108 0.16621 0.64197 0.0
C3754 C 0.81481 0.17693 0.63877 0.0
C3755 C 0.81757 0.19055 0.63504 0.0
C3756 C 0.80679 0.19341 0.63457 0.0
C3757 C 0.82627 0.17395 0.64076 0.0
C3758 C 0.83628 0.18045 0.6675 0.0
C3759 C 0.82686 0.16411 0.61819 0.0
C3760 C 0.81701 0.15745 0.58822 0.0
C3761 C 0.81518 0.16549 0.56226 0.0
C3762 C 0.8058 0.15916 0.53429 0.0
C3763 C 0.79825 0.14479 0.53184 0.0
C3764 C 0.80009 0.13672 0.55732 0.0
C3765 C 0.80945 0.143 0.58537 0.0
H3766 H 0.79099 0.13991 0.51017 0.0
H3767 H 0.88183 0.20089 0.78245 0.0
H3768 H 0.04683 0.48774 0.49146 0.0
H3769 H 0.02249 0.48039 0.5013 0.0
H3770 H 0.03278 0.52292 0.50917 0.0
H3771 H 0.0571 0.53034 0.49963 0.0
H3772 H 0.01506 0.50724 0.56162 0.0
H3773 H 0.01868 0.50514 0.43401 0.0
H3774 H 0.02454 0.49806 0.37727 0.0
H3775 H 0.99679 0.45552 0.40269 0.0
H3776 H 0.9909 0.46235 0.45986 0.0
H3777 H 0.94964 0.50128 0.53099 0.0
H3778 H 0.97367 0.50673 0.52894 0.0
H3779 H 0.96033 0.46333 0.52445 0.0
H3780 H 0.93624 0.4578 0.52643 0.0
H3781 H 0.97933 0.47825 0.47265 0.0
H3782 H 0.97463 0.48082 0.59917 0.0
H3783 H 0.96863 0.48838 0.65492 0.0
H3784 H 0.99833 0.53051 0.63078 0.0
H3785 H 0.00436 0.52323 0.57457 0.0
C3786 C 0.04389 0.49551 0.49525 0.0
C3787 C 0.05384 0.50961 0.49463 0.0
C3788 C 0.03 0.4913 0.5008 0.0
C3789 C 0.02584 0.50112 0.50572 0.0
C3790 C 0.03579 0.51519 0.50546 0.0
C3791 C 0.04966 0.5194 0.49984 0.0
C3792 C 0.01112 0.49677 0.51094 0.0
C3793 C 0.00725 0.50101 0.54203 0.0
C3794 C 0.00093 0.48839 0.48572 0.0
C3795 C 0.00447 0.48425 0.4514 0.0
C3796 C 0.01392 0.49427 0.42765 0.0
C3797 C 0.01723 0.4903 0.39539 0.0
C3798 C 0.01108 0.47635 0.38643 0.0
C3799 C 0.00157 0.46633 0.4097 0.0
C3800 C 0.99823 0.47024 0.44203 0.0
C3801 C 0.95183 0.4929 0.52995 0.0
C3802 C 0.94109 0.47912 0.52883 0.0
C3803 C 0.96556 0.49602 0.5289 0.0
C3804 C 0.96876 0.48542 0.52673 0.0
C3805 C 0.95805 0.47165 0.52615 0.0
C3806 C 0.94432 0.46851 0.5274 0.0
C3807 C 0.98327 0.48878 0.52324 0.0
C3808 C 0.98711 0.48437 0.49241 0.0
C3809 C 0.99343 0.49707 0.54862 0.0
C3810 C 0.98986 0.50148 0.58248 0.0
C3811 C 0.9798 0.49171 0.60558 0.0
C3812 C 0.97641 0.49594 0.6373 0.0
C3813 C 0.98307 0.50992 0.64634 0.0
C3814 C 0.99317 0.51969 0.62372 0.0
C3815 C 0.99659 0.51551 0.59194 0.0
H3816 H 0.98043 0.51317 0.67091 0.0
H3817 H 0.01365 0.4733 0.36143 0.0
H3818 H 0.45666 0.5174 0.47905 0.0
H3819 H 0.46263 0.49925 0.48518 0.0
H3820 H 0.50551 0.52914 0.46762 0.0
H3821 H 0.49962 0.54734 0.46138 0.0
H3822 H 0.49696 0.50474 0.43032 0.0
H3823 H 0.49448 0.51929 0.55022 0.0
H3824 H 0.48335 0.52419 0.60058 0.0
H3825 H 0.4507 0.48196 0.60115 0.0
H3826 H 0.46153 0.47685 0.5504 0.0
H3827 H 0.53065 0.4712 0.50218 0.0
H3828 H 0.52219 0.48716 0.49064 0.0
H3829 H 0.48051 0.45461 0.51062 0.0
H3830 H 0.48892 0.43852 0.52221 0.0
H3831 H 0.48692 0.47904 0.54492 0.0
H3832 H 0.48913 0.46407 0.42684 0.0
H3833 H 0.4996 0.45874 0.37581 0.0
H3834 H 0.53212 0.50099 0.37156 0.0
H3835 H 0.52182 0.50658 0.42266 0.0
C3836 C 0.46735 0.52008 0.47627 0.0
C3837 C 0.4777 0.53378 0.46993 0.0
C3838 C 0.47074 0.50972 0.47987 0.0
C3839 C 0.48452 0.5129 0.47718 0.0
C3840 C 0.49481 0.5265 0.4698 0.0
C3841 C 0.49144 0.53688 0.46637 0.0
C3842 C 0.48828 0.50214 0.48311 0.0
C3843 C 0.4949 0.49921 0.45548 0.0
C3844 C 0.48521 0.49469 0.51561 0.0
C3845 C 0.47874 0.49772 0.54626 0.0
C3846 C 0.48486 0.51107 0.56088 0.0
C3847 C 0.47862 0.51388 0.58953 0.0
C3848 C 0.46631 0.5034 0.60398 0.0
C3849 C 0.46023 0.49007 0.58988 0.0
C3850 C 0.46642 0.48721 0.56119 0.0
C3851 C 0.51969 0.46744 0.50415 0.0
C3852 C 0.51043 0.45363 0.51305 0.0
C3853 C 0.51487 0.47654 0.49738 0.0
C3854 C 0.50073 0.472 0.49944 0.0
C3855 C 0.49147 0.45827 0.50881 0.0
C3856 C 0.49627 0.44911 0.51535 0.0
C3857 C 0.49572 0.48174 0.49226 0.0
C3858 C 0.48889 0.48449 0.51966 0.0
C3859 C 0.49852 0.48898 0.4595 0.0
C3860 C 0.50477 0.48572 0.42876 0.0
C3861 C 0.49857 0.47221 0.41518 0.0
C3862 C 0.50446 0.46914 0.3862 0.0
C3863 C 0.51657 0.4795 0.37056 0.0
C3864 C 0.52276 0.49297 0.38374 0.0
C3865 C 0.51687 0.49611 0.41264 0.0
H3866 H 0.52113 0.47709 0.34818 0.0
H3867 H 0.46149 0.5056 0.62617 0.0
H3868 H 0.52508 0.06636 0.47573 0.0
H3869 H 0.50877 0.04218 0.46211 0.0
H3870 H 0.53742 0.03057 0.50404 0.0
H3871 H 0.55389 0.05478 0.51726 0.0
H3872 H 0.52487 0.01639 0.44291 0.0
H3873 H 0.51117 0.0272 0.55511 0.0
H3874 H 0.50459 0.0405 0.59502 0.0
H3875 H 0.46987 0.03108 0.52784 0.0
H3876 H 0.47635 0.01788 0.48724 0.0
H3877 H 0.47891 0.94545 0.47998 0.0
H3878 H 0.49614 0.97 0.48031 0.0
H3879 H 0.46516 0.97976 0.44637 0.0
H3880 H 0.44781 0.95525 0.44707 0.0
H3881 H 0.47881 0.99521 0.50041 0.0
H3882 H 0.49162 0.98318 0.38977 0.0
H3883 H 0.49816 0.96989 0.34978 0.0
H3884 H 0.53436 0.98145 0.413 0.0
H3885 H 0.52793 0.99467 0.45366 0.0
C3886 C 0.52792 0.05866 0.48193 0.0
C3887 C 0.54067 0.06241 0.49796 0.0
C3888 C 0.5186 0.04486 0.47414 0.0
C3889 C 0.52182 0.03457 0.48256 0.0
C3890 C 0.53474 0.03835 0.49741 0.0
C3891 C 0.5441 0.05217 0.50508 0.0
C3892 C 0.51147 0.01982 0.47736 0.0
C3893 C 0.51484 0.0117 0.45569 0.0
C3894 C 0.49828 0.01382 0.49344 0.0
C3895 C 0.49432 0.02167 0.51796 0.0
C3896 C 0.50219 0.02805 0.54871 0.0
C3897 C 0.49847 0.03556 0.57148 0.0
C3898 C 0.48684 0.03667 0.56392 0.0
C3899 C 0.47888 0.03023 0.53363 0.0
C3900 C 0.48257 0.02273 0.51075 0.0
C3901 C 0.47582 0.95283 0.47217 0.0
C3902 C 0.46202 0.94846 0.4636 0.0
C3903 C 0.48569 0.96686 0.47218 0.0
C3904 C 0.48198 0.97674 0.46305 0.0
C3905 C 0.46826 0.97233 0.45354 0.0
C3906 C 0.45837 0.95833 0.45388 0.0
C3907 C 0.49214 0.99169 0.46581 0.0
C3908 C 0.48878 -0.00013 0.48724 0.0
C3909 C 0.5053 0.99772 0.44943 0.0
C3910 C 0.50922 0.98982 0.42494 0.0
C3911 C 0.50092 0.98281 0.3953 0.0
C3912 C 0.50462 0.9753 0.37249 0.0
C3913 C 0.51665 0.9748 0.37889 0.0
C3914 C 0.52503 0.98184 0.40809 0.0
C3915 C 0.52137 0.98935 0.431 0.0
H3916 H 0.5195 0.96898 0.3612 0.0
H3917 H 0.48398 0.04248 0.58158 0.0
H3918 H 0.53064 0.05643 0.02647 0.0
H3919 H 0.5243 0.03213 0.02381 0.0
H3920 H 0.48124 0.02015 0.02874 0.0
H3921 H 0.48751 0.04442 0.03176 0.0
H3922 H 0.48728 0.0042 0.07198 0.0
H3923 H 0.4957 0.02033 0.95004 0.0
H3924 H 0.50933 0.03581 0.90074 0.0
H3925 H 0.54088 0.02526 0.91715 0.0
H3926 H 0.52752 0.00986 0.96692 0.0
H3927 H 0.45602 0.93587 0.00671 0.0
H3928 H 0.46407 0.96032 0.01609 0.0
H3929 H 0.50624 0.96956 0.006 0.0
H3930 H 0.49822 0.94509 0.99597 0.0
H3931 H 0.5018 0.98713 0.96759 0.0
H3932 H 0.49285 0.97002 0.08757 0.0
H3933 H 0.47921 0.95452 0.13681 0.0
H3934 H 0.44879 0.96684 0.1245 0.0
H3935 H 0.46214 0.98228 0.07482 0.0
C3936 C 0.51983 0.04861 0.02715 0.0
C3937 C 0.50956 0.0523 0.02913 0.0
C3938 C 0.51623 0.03475 0.02553 0.0
C3939 C 0.5023 0.02437 0.0257 0.0
C3940 C 0.49204 0.02802 0.02855 0.0
C3941 C 0.49564 0.04188 0.03014 0.0
C3942 C 0.49839 0.00969 0.02209 0.0
C3943 C 0.49033 0.00042 0.04901 0.0
C3944 C 0.50268 0.00488 0.99253 0.0
C3945 C 0.51068 0.01406 0.96245 0.0
C3946 C 0.50559 0.0214 0.94332 0.0
C3947 C 0.51326 0.03014 0.91527 0.0
C3948 C 0.52598 0.03155 0.90589 0.0
C3949 C 0.53104 0.02418 0.92449 0.0
C3950 C 0.52342 0.01543 0.9526 0.0
C3951 C 0.46701 0.9431 0.00665 0.0
C3952 C 0.4765 0.93859 0.00068 0.0
C3953 C 0.4716 0.95706 0.01217 0.0
C3954 C 0.48576 0.96674 0.01218 0.0
C3955 C 0.49527 0.96225 0.00619 0.0
C3956 C 0.49068 0.94828 0.00055 0.0
C3957 C 0.4906 0.98158 0.01739 0.0
C3958 C 0.49882 0.9909 0.99073 0.0
C3959 C 0.48647 0.98643 0.04722 0.0
C3960 C 0.47845 0.97722 0.07726 0.0
C3961 C 0.4832 0.96935 0.09518 0.0
C3962 C 0.47553 0.96058 0.12321 0.0
C3963 C 0.46313 0.95967 0.13373 0.0
C3964 C 0.45839 0.96755 0.1163 0.0
C3965 C 0.46601 0.97632 0.08823 0.0
H3966 H 0.4572 0.95288 0.15543 0.0
H3967 H 0.53191 0.03833 0.88416 0.0
H3968 H 0.94563 0.44306 0.00232 0.0
H3969 H 0.97011 0.46012 0.9957 0.0
H3970 H 0.95986 0.49216 0.981 0.0
H3971 H 0.93535 0.47514 0.98729 0.0
H3972 H 0.97959 0.49466 0.93395 0.0
H3973 H 0.9713 0.48838 0.06041 0.0
H3974 H 0.96329 0.47514 0.11658 0.0
H3975 H 0.99175 0.46042 0.10187 0.0
H3976 H -0.0002 0.47342 0.04529 0.0
H3977 H 0.04548 0.55296 0.97089 0.0
H3978 H 0.02101 0.53533 0.9721 0.0
H3979 H 0.03193 0.50371 0.98554 0.0
H3980 H 0.05639 0.52127 0.98445 0.0
H3981 H 0.01193 0.50078 0.03236 0.0
H3982 H 0.0206 0.50759 0.90633 0.0
H3983 H 0.02862 0.52099 0.8504 0.0
H3984 H -0.0005 0.53493 0.86457 0.0
H3985 H 0.99145 0.52176 0.9209 0.0
C3986 C 0.94859 0.45372 0.99747 0.0
C3987 C 0.9386 0.45779 0.9955 0.0
C3988 C 0.96257 0.46346 0.99382 0.0
C3989 C 0.96679 0.47742 0.98828 0.0
C3990 C 0.95681 0.48144 0.98531 0.0
C3991 C 0.94283 0.47171 0.98902 0.0
C3992 C 0.98163 0.48789 0.98638 0.0
C3993 C 0.98664 0.49612 0.95561 0.0
C3994 C 0.99085 0.48957 0.01439 0.0
C3995 C 0.98604 0.48176 0.04842 0.0
C3996 C 0.97577 0.48222 0.06899 0.0
C3997 C 0.97124 0.47478 0.10093 0.0
C3998 C 0.97698 0.46691 0.11274 0.0
C3999 C 0.9873 0.4665 0.09266 0.0
C4000 C 0.99185 0.47391 0.06067 0.0
C4001 C 0.04266 0.54225 0.974 0.0
C4002 C 0.05282 0.53847 0.97755 0.0
C4003 C 0.02869 0.53219 0.97454 0.0
C4004 C 0.02468 0.51821 0.97862 0.0
C4005 C 0.03482 0.51444 0.98231 0.0
C4006 C 0.04878 0.52447 0.9816 0.0
C4007 C 0.0099 0.50755 0.97991 0.0
C4008 C 0.00489 0.49929 0.01062 0.0
C4009 C 0.0007 0.50587 0.95189 0.0
C4010 C 0.00552 0.5138 0.91803 0.0
C4011 C 0.01599 0.51362 0.89769 0.0
C4012 C 0.02053 0.52115 0.86588 0.0
C4013 C 0.0146 0.52884 0.85399 0.0
C4014 C 0.0041 0.52899 0.87385 0.0
C4015 C -0.00046 0.52148 0.9057 0.0
H4016 H 0.01812 0.53466 0.82934 0.0
H4017 H 0.97347 0.46116 0.13748 0.0
H4018 H 0.51983 0.46793 0.02128 0.0
H4019 H 0.50236 0.47485 0.01653 0.0
H4020 H 0.53357 0.51731 0.03344 0.0
H4021 H 0.55117 0.51047 0.03821 0.0
H4022 H 0.50908 0.5091 0.07252 0.0
H4023 H 0.52318 0.50744 0.95184 0.0
H4024 H 0.52793 0.4967 0.90031 0.0
H4025 H 0.48565 0.46417 0.89937 0.0
H4026 H 0.48069 0.47462 0.95127 0.0
H4027 H 0.4711 0.54023 0.00829 0.0
H4028 H 0.48835 0.53342 0.02009 0.0
H4029 H 0.4588 0.49141 0.99179 0.0
H4030 H 0.44158 0.49821 0.97943 0.0
H4031 H 0.48269 0.49955 0.95928 0.0
H4032 H 0.46812 0.50083 0.07864 0.0
H4033 H 0.46305 0.5106 0.13173 0.0
H4034 H 0.50539 0.54286 0.13666 0.0
H4035 H 0.51068 0.5334 0.08324 0.0
C4036 C 0.52297 0.47874 0.02416 0.0
C4037 C 0.53686 0.48868 0.02991 0.0
C4038 C 0.51299 0.48267 0.02138 0.0
C4039 C 0.51672 0.4966 0.02434 0.0
C4040 C 0.53052 0.50651 0.03107 0.0
C4041 C 0.54054 0.5026 0.03363 0.0
C4042 C 0.50625 0.50081 0.01925 0.0
C4043 C 0.50341 0.50721 0.04764 0.0
C4044 C 0.49867 0.49799 0.98705 0.0
C4045 C 0.5016 0.49174 0.95566 0.0
C4046 C 0.51492 0.49794 0.94083 0.0
C4047 C 0.51765 0.49191 0.91152 0.0
C4048 C 0.5071 0.47974 0.89663 0.0
C4049 C 0.49381 0.47359 0.91096 0.0
C4050 C 0.49103 0.47956 0.9403 0.0
C4051 C 0.46827 0.52954 0.00473 0.0
C4052 C 0.45502 0.51975 0.99279 0.0
C4053 C 0.47811 0.52564 0.01168 0.0
C4054 C 0.47482 0.51189 0.00705 0.0
C4055 C 0.46154 0.50208 0.99551 0.0
C4056 C 0.45172 0.50597 0.98852 0.0
C4057 C 0.48541 0.50782 0.01264 0.0
C4058 C 0.48831 0.50147 0.98424 0.0
C4059 C 0.49296 0.51061 0.04493 0.0
C4060 C 0.48977 0.51647 0.07672 0.0
C4061 C 0.47632 0.51008 0.09082 0.0
C4062 C 0.47342 0.51554 0.12105 0.0
C4063 C 0.4839 0.52732 0.13761 0.0
C4064 C 0.49729 0.53371 0.12385 0.0
C4065 C 0.50025 0.5283 0.09361 0.0
H4066 H 0.48163 0.53151 0.16104 0.0
H4067 H 0.50923 0.47509 0.87395 0.0
loop_
_geom_bond_atom_site_label_1
_geom_bond_atom_site_label_2
_geom_bond_distance
_geom_bond_site_symmetry_2
_ccdc_geom_bond_type
In0 O1 2.294 . S
In0 O2 2.326 . S
In0 O6 2.266 . S
In0 O7 2.326 . S
In0 O8 2.266 . S
In0 O9 2.326 . S
In0 O11 2.294 . S
In0 O12 2.326 . S
O1 In0 2.294 . S
O1 C10 1.240 . S
O2 In0 2.326 . S
O2 C10 1.252 . S
C3 O6 1.252 . S
C3 O7 1.260 . S
C4 O11 1.240 . S
C4 O12 1.252 . S
C5 O8 1.252 . S
C5 O9 1.260 . S
O6 In0 2.266 . S
O6 C3 1.252 . S
O7 In0 2.326 . S
O7 C3 1.260 . S
O8 In0 2.266 . S
O8 C5 1.252 . S
O9 In0 2.326 . S
O9 C5 1.260 . S
C10 O1 1.240 . S
C10 O2 1.252 . S
O11 In0 2.294 . S
O11 C4 1.240 . S
O12 In0 2.326 . S
O12 C4 1.252 . S
In13 O14 2.294 . S
In13 O15 2.326 . S
In13 O19 2.266 . S
In13 O20 2.326 . S
In13 O21 2.266 . S
In13 O22 2.326 . S
In13 O24 2.294 . S
In13 O25 2.326 . S
O14 In13 2.294 . S
O14 C23 1.240 . S
O15 In13 2.326 . S
O15 C23 1.252 . S
C16 O19 1.252 . S
C16 O20 1.260 . S
C17 O24 1.240 . S
C17 O25 1.252 . S
C18 O21 1.252 . S
C18 O22 1.260 . S
O19 In13 2.266 . S
O19 C16 1.252 . S
O20 In13 2.326 . S
O20 C16 1.260 . S
O21 In13 2.266 . S
O21 C18 1.252 . S
O22 In13 2.326 . S
O22 C18 1.260 . S
C23 O14 1.240 . S
C23 O15 1.252 . S
O24 In13 2.294 . S
O24 C17 1.240 . S
O25 In13 2.326 . S
O25 C17 1.252 . S
In26 O27 2.294 . S
In26 O28 2.326 . S
In26 O32 2.266 . S
In26 O33 2.326 . S
In26 O34 2.266 . S
In26 O35 2.326 . S
In26 O37 2.294 . S
In26 O38 2.326 . S
O27 In26 2.294 . S
O27 C36 1.240 . S
O28 In26 2.326 . S
O28 C36 1.252 . S
C29 O32 1.252 . S
C29 O33 1.260 . S
C30 O37 1.240 . S
C30 O38 1.252 . S
C31 O34 1.252 . S
C31 O35 1.260 . S
O32 In26 2.266 . S
O32 C29 1.252 . S
O33 In26 2.326 . S
O33 C29 1.260 . S
O34 In26 2.266 . S
O34 C31 1.252 . S
O35 In26 2.326 . S
O35 C31 1.260 . S
C36 O27 1.240 . S
C36 O28 1.252 . S
O37 In26 2.294 . S
O37 C30 1.240 . S
O38 In26 2.326 . S
O38 C30 1.252 . S
In39 O40 2.294 . S
In39 O41 2.326 . S
In39 O45 2.266 . S
In39 O46 2.326 . S
In39 O47 2.266 . S
In39 O48 2.326 . S
In39 O50 2.294 . S
In39 O51 2.326 . S
O40 In39 2.294 . S
O40 C49 1.240 . S
O41 In39 2.326 . S
O41 C49 1.252 . S
C42 O45 1.252 . S
C42 O46 1.260 . S
C43 O50 1.240 . S
C43 O51 1.252 . S
C44 O47 1.252 . S
C44 O48 1.260 . S
O45 In39 2.266 . S
O45 C42 1.252 . S
O46 In39 2.326 . S
O46 C42 1.260 . S
O47 In39 2.266 . S
O47 C44 1.252 . S
O48 In39 2.326 . S
O48 C44 1.260 . S
C49 O40 1.240 . S
C49 O41 1.252 . S
O50 In39 2.294 . S
O50 C43 1.240 . S
O51 In39 2.326 . S
O51 C43 1.252 . S
In52 O53 2.294 . S
In52 O54 2.326 . S
In52 O58 2.266 . S
In52 O59 2.326 . S
In52 O60 2.266 . S
In52 O61 2.326 . S
In52 O63 2.294 . S
In52 O64 2.326 . S
O53 In52 2.294 . S
O53 C62 1.240 . S
O54 In52 2.326 . S
O54 C62 1.252 . S
C55 O58 1.252 . S
C55 O59 1.260 . S
C56 O63 1.240 . S
C56 O64 1.252 . S
C57 O60 1.252 . S
C57 O61 1.260 . S
O58 In52 2.266 . S
O58 C55 1.252 . S
O59 In52 2.326 . S
O59 C55 1.260 . S
O60 In52 2.266 . S
O60 C57 1.252 . S
O61 In52 2.326 . S
O61 C57 1.260 . S
C62 O53 1.240 . S
C62 O54 1.252 . S
O63 In52 2.294 . S
O63 C56 1.240 . S
O64 In52 2.326 . S
O64 C56 1.252 . S
In65 O66 2.294 . S
In65 O67 2.326 . S
In65 O71 2.266 . S
In65 O72 2.326 . S
In65 O73 2.266 . S
In65 O74 2.326 . S
In65 O76 2.294 . S
In65 O77 2.326 . S
O66 In65 2.294 . S
O66 C75 1.240 . S
O67 In65 2.326 . S
O67 C75 1.252 . S
C68 O71 1.252 . S
C68 O72 1.260 . S
C69 O76 1.240 . S
C69 O77 1.252 . S
C70 O73 1.252 . S
C70 O74 1.260 . S
O71 In65 2.266 . S
O71 C68 1.252 . S
O72 In65 2.326 . S
O72 C68 1.260 . S
O73 In65 2.266 . S
O73 C70 1.252 . S
O74 In65 2.326 . S
O74 C70 1.260 . S
C75 O66 1.240 . S
C75 O67 1.252 . S
O76 In65 2.294 . S
O76 C69 1.240 . S
O77 In65 2.326 . S
O77 C69 1.252 . S
In78 O79 2.294 . S
In78 O80 2.326 . S
In78 O84 2.266 . S
In78 O85 2.326 . S
In78 O86 2.266 . S
In78 O87 2.326 . S
In78 O89 2.294 . S
In78 O90 2.326 . S
O79 In78 2.294 . S
O79 C88 1.240 . S
O80 In78 2.326 . S
O80 C88 1.252 . S
C81 O84 1.252 . S
C81 O85 1.260 . S
C82 O89 1.240 . S
C82 O90 1.252 . S
C83 O86 1.252 . S
C83 O87 1.260 . S
O84 In78 2.266 . S
O84 C81 1.252 . S
O85 In78 2.326 . S
O85 C81 1.260 . S
O86 In78 2.266 . S
O86 C83 1.252 . S
O87 In78 2.326 . S
O87 C83 1.260 . S
C88 O79 1.240 . S
C88 O80 1.252 . S
O89 In78 2.294 . S
O89 C82 1.240 . S
O90 In78 2.326 . S
O90 C82 1.252 . S
In91 O92 2.294 . S
In91 O93 2.326 . S
In91 O97 2.266 . S
In91 O98 2.326 . S
In91 O99 2.266 . S
In91 O100 2.326 . S
In91 O102 2.294 . S
In91 O103 2.326 . S
O92 In91 2.294 . S
O92 C101 1.240 . S
O93 In91 2.326 . S
O93 C101 1.252 . S
C94 O97 1.252 . S
C94 O98 1.260 . S
C95 O102 1.240 . S
C95 O103 1.252 . S
C96 O99 1.252 . S
C96 O100 1.260 . S
O97 In91 2.266 . S
O97 C94 1.252 . S
O98 In91 2.326 . S
O98 C94 1.260 . S
O99 In91 2.266 . S
O99 C96 1.252 . S
O100 In91 2.326 . S
O100 C96 1.260 . S
C101 O92 1.240 . S
C101 O93 1.252 . S
O102 In91 2.294 . S
O102 C95 1.240 . S
O103 In91 2.326 . S
O103 C95 1.252 . S
In104 O105 2.294 . S
In104 O106 2.326 . S
In104 O110 2.266 . S
In104 O111 2.326 . S
In104 O112 2.266 . S
In104 O113 2.326 . S
In104 O115 2.294 . S
In104 O116 2.326 . S
O105 In104 2.294 . S
O105 C114 1.240 . S
O106 In104 2.326 . S
O106 C114 1.252 . S
C107 O110 1.252 . S
C107 O111 1.260 . S
C108 O115 1.240 . S
C108 O116 1.252 . S
C109 O112 1.252 . S
C109 O113 1.260 . S
O110 In104 2.266 . S
O110 C107 1.252 . S
O111 In104 2.326 . S
O111 C107 1.260 . S
O112 In104 2.266 . S
O112 C109 1.252 . S
O113 In104 2.326 . S
O113 C109 1.260 . S
C114 O105 1.240 . S
C114 O106 1.252 . S
O115 In104 2.294 . S
O115 C108 1.240 . S
O116 In104 2.326 . S
O116 C108 1.252 . S
In117 O118 2.294 . S
In117 O119 2.326 . S
In117 O123 2.266 . S
In117 O124 2.326 . S
In117 O125 2.266 . S
In117 O126 2.326 . S
In117 O128 2.294 . S
In117 O129 2.326 . S
O118 In117 2.294 . S
O118 C127 1.240 . S
O119 In117 2.326 . S
O119 C127 1.252 . S
C120 O123 1.252 . S
C120 O124 1.260 . S
C121 O128 1.240 . S
C121 O129 1.252 . S
C122 O125 1.252 . S
C122 O126 1.260 . S
O123 In117 2.266 . S
O123 C120 1.252 . S
O124 In117 2.326 . S
O124 C120 1.260 . S
O125 In117 2.266 . S
O125 C122 1.252 . S
O126 In117 2.326 . S
O126 C122 1.260 . S
C127 O118 1.240 . S
C127 O119 1.252 . S
O128 In117 2.294 . S
O128 C121 1.240 . S
O129 In117 2.326 . S
O129 C121 1.252 . S
In130 O131 2.294 . S
In130 O132 2.326 . S
In130 O136 2.266 . S
In130 O137 2.326 . S
In130 O138 2.266 . S
In130 O139 2.326 . S
In130 O141 2.294 . S
In130 O142 2.326 . S
O131 In130 2.294 . S
O131 C140 1.240 . S
O132 In130 2.326 . S
O132 C140 1.252 . S
C133 O136 1.252 . S
C133 O137 1.260 . S
C134 O141 1.240 . S
C134 O142 1.252 . S
C135 O138 1.252 . S
C135 O139 1.260 . S
O136 In130 2.266 . S
O136 C133 1.252 . S
O137 In130 2.326 . S
O137 C133 1.260 . S
O138 In130 2.266 . S
O138 C135 1.252 . S
O139 In130 2.326 . S
O139 C135 1.260 . S
C140 O131 1.240 . S
C140 O132 1.252 . S
O141 In130 2.294 . S
O141 C134 1.240 . S
O142 In130 2.326 . S
O142 C134 1.252 . S
In143 O144 2.294 . S
In143 O145 2.326 . S
In143 O149 2.266 . S
In143 O150 2.326 . S
In143 O151 2.266 . S
In143 O152 2.326 . S
In143 O154 2.294 . S
In143 O155 2.326 . S
O144 In143 2.294 . S
O144 C153 1.240 . S
O145 In143 2.326 . S
O145 C153 1.252 . S
C146 O149 1.252 . S
C146 O150 1.260 . S
C147 O154 1.240 . S
C147 O155 1.252 . S
C148 O151 1.252 . S
C148 O152 1.260 . S
O149 In143 2.266 . S
O149 C146 1.252 . S
O150 In143 2.326 . S
O150 C146 1.260 . S
O151 In143 2.266 . S
O151 C148 1.252 . S
O152 In143 2.326 . S
O152 C148 1.260 . S
C153 O144 1.240 . S
C153 O145 1.252 . S
O154 In143 2.294 . S
O154 C147 1.240 . S
O155 In143 2.326 . S
O155 C147 1.252 . S
In156 O157 2.294 . S
In156 O158 2.326 . S
In156 O162 2.266 . S
In156 O163 2.326 . S
In156 O164 2.266 . S
In156 O165 2.326 . S
In156 O167 2.294 . S
In156 O168 2.326 . S
O157 In156 2.294 . S
O157 C166 1.240 . S
O158 In156 2.326 . S
O158 C166 1.252 . S
C159 O162 1.252 . S
C159 O163 1.260 . S
C160 O167 1.240 . S
C160 O168 1.252 . S
C161 O164 1.252 . S
C161 O165 1.260 . S
O162 In156 2.266 . S
O162 C159 1.252 . S
O163 In156 2.326 . S
O163 C159 1.260 . S
O164 In156 2.266 . S
O164 C161 1.252 . S
O165 In156 2.326 . S
O165 C161 1.260 . S
C166 O157 1.240 . S
C166 O158 1.252 . S
O167 In156 2.294 . S
O167 C160 1.240 . S
O168 In156 2.326 . S
O168 C160 1.252 . S
In169 O170 2.294 . S
In169 O171 2.326 . S
In169 O175 2.266 . S
In169 O176 2.326 . S
In169 O177 2.266 . S
In169 O178 2.326 . S
In169 O180 2.294 . S
In169 O181 2.326 . S
O170 In169 2.294 . S
O170 C179 1.240 . S
O171 In169 2.326 . S
O171 C179 1.252 . S
C172 O175 1.252 . S
C172 O176 1.260 . S
C173 O180 1.240 . S
C173 O181 1.252 . S
C174 O177 1.252 . S
C174 O178 1.260 . S
O175 In169 2.266 . S
O175 C172 1.252 . S
O176 In169 2.326 . S
O176 C172 1.260 . S
O177 In169 2.266 . S
O177 C174 1.252 . S
O178 In169 2.326 . S
O178 C174 1.260 . S
C179 O170 1.240 . S
C179 O171 1.252 . S
O180 In169 2.294 . S
O180 C173 1.240 . S
O181 In169 2.326 . S
O181 C173 1.252 . S
In182 O183 2.294 . S
In182 O184 2.326 . S
In182 O188 2.266 . S
In182 O189 2.326 . S
In182 O190 2.266 . S
In182 O191 2.326 . S
In182 O193 2.294 . S
In182 O194 2.326 . S
O183 In182 2.294 . S
O183 C192 1.240 . S
O184 In182 2.326 . S
O184 C192 1.252 . S
C185 O188 1.252 . S
C185 O189 1.260 . S
C186 O193 1.240 . S
C186 O194 1.252 . S
C187 O190 1.252 . S
C187 O191 1.260 . S
O188 In182 2.266 . S
O188 C185 1.252 . S
O189 In182 2.326 . S
O189 C185 1.260 . S
O190 In182 2.266 . S
O190 C187 1.252 . S
O191 In182 2.326 . S
O191 C187 1.260 . S
C192 O183 1.240 . S
C192 O184 1.252 . S
O193 In182 2.294 . S
O193 C186 1.240 . S
O194 In182 2.326 . S
O194 C186 1.252 . S
In195 O196 2.294 . S
In195 O197 2.326 . S
In195 O201 2.266 . S
In195 O202 2.326 . S
In195 O203 2.266 . S
In195 O204 2.326 . S
In195 O206 2.294 . S
In195 O207 2.326 . S
O196 In195 2.294 . S
O196 C205 1.240 . S
O197 In195 2.326 . S
O197 C205 1.252 . S
C198 O201 1.252 . S
C198 O202 1.260 . S
C199 O206 1.240 . S
C199 O207 1.252 . S
C200 O203 1.252 . S
C200 O204 1.260 . S
O201 In195 2.266 . S
O201 C198 1.252 . S
O202 In195 2.326 . S
O202 C198 1.260 . S
O203 In195 2.266 . S
O203 C200 1.252 . S
O204 In195 2.326 . S
O204 C200 1.260 . S
C205 O196 1.240 . S
C205 O197 1.252 . S
O206 In195 2.294 . S
O206 C199 1.240 . S
O207 In195 2.326 . S
O207 C199 1.252 . S
In208 O209 2.294 . S
In208 O210 2.326 . S
In208 O214 2.266 . S
In208 O215 2.326 . S
In208 O216 2.266 . S
In208 O217 2.326 . S
In208 O219 2.294 . S
In208 O220 2.326 . S
O209 In208 2.294 . S
O209 C218 1.240 . S
O210 In208 2.326 . S
O210 C218 1.252 . S
C211 O214 1.252 . S
C211 O215 1.260 . S
C212 O219 1.240 . S
C212 O220 1.252 . S
C213 O216 1.252 . S
C213 O217 1.260 . S
O214 In208 2.266 . S
O214 C211 1.252 . S
O215 In208 2.326 . S
O215 C211 1.260 . S
O216 In208 2.266 . S
O216 C213 1.252 . S
O217 In208 2.326 . S
O217 C213 1.260 . S
C218 O209 1.240 . S
C218 O210 1.252 . S
O219 In208 2.294 . S
O219 C212 1.240 . S
O220 In208 2.326 . S
O220 C212 1.252 . S
In221 O222 2.294 . S
In221 O223 2.326 . S
In221 O227 2.266 . S
In221 O228 2.326 . S
In221 O229 2.266 . S
In221 O230 2.326 . S
In221 O232 2.294 . S
In221 O233 2.326 . S
O222 In221 2.294 . S
O222 C231 1.240 . S
O223 In221 2.326 . S
O223 C231 1.252 . S
C224 O227 1.252 . S
C224 O228 1.260 . S
C225 O232 1.240 . S
C225 O233 1.252 . S
C226 O229 1.252 . S
C226 O230 1.260 . S
O227 In221 2.266 . S
O227 C224 1.252 . S
O228 In221 2.326 . S
O228 C224 1.260 . S
O229 In221 2.266 . S
O229 C226 1.252 . S
O230 In221 2.326 . S
O230 C226 1.260 . S
C231 O222 1.240 . S
C231 O223 1.252 . S
O232 In221 2.294 . S
O232 C225 1.240 . S
O233 In221 2.326 . S
O233 C225 1.252 . S
In234 O235 2.294 . S
In234 O236 2.326 . S
In234 O240 2.266 . S
In234 O241 2.326 . S
In234 O242 2.266 . S
In234 O243 2.326 . S
In234 O245 2.294 . S
In234 O246 2.326 . S
O235 In234 2.294 . S
O235 C244 1.240 . S
O236 In234 2.326 . S
O236 C244 1.252 . S
C237 O240 1.252 . S
C237 O241 1.260 . S
C238 O245 1.240 . S
C238 O246 1.252 . S
C239 O242 1.252 . S
C239 O243 1.260 . S
O240 In234 2.266 . S
O240 C237 1.252 . S
O241 In234 2.326 . S
O241 C237 1.260 . S
O242 In234 2.266 . S
O242 C239 1.252 . S
O243 In234 2.326 . S
O243 C239 1.260 . S
C244 O235 1.240 . S
C244 O236 1.252 . S
O245 In234 2.294 . S
O245 C238 1.240 . S
O246 In234 2.326 . S
O246 C238 1.252 . S
In247 O248 2.294 . S
In247 O249 2.326 . S
In247 O253 2.266 . S
In247 O254 2.326 . S
In247 O255 2.266 . S
In247 O256 2.326 . S
In247 O258 2.294 . S
In247 O259 2.326 . S
O248 In247 2.294 . S
O248 C257 1.240 . S
O249 In247 2.326 . S
O249 C257 1.252 . S
C250 O253 1.252 . S
C250 O254 1.260 . S
C251 O258 1.240 . S
C251 O259 1.252 . S
C252 O255 1.252 . S
C252 O256 1.260 . S
O253 In247 2.266 . S
O253 C250 1.252 . S
O254 In247 2.326 . S
O254 C250 1.260 . S
O255 In247 2.266 . S
O255 C252 1.252 . S
O256 In247 2.326 . S
O256 C252 1.260 . S
C257 O248 1.240 . S
C257 O249 1.252 . S
O258 In247 2.294 . S
O258 C251 1.240 . S
O259 In247 2.326 . S
O259 C251 1.252 . S
In260 O261 2.294 . S
In260 O262 2.326 . S
In260 O266 2.266 . S
In260 O267 2.326 . S
In260 O268 2.266 . S
In260 O269 2.326 . S
In260 O271 2.294 . S
In260 O272 2.326 . S
O261 In260 2.294 . S
O261 C270 1.240 . S
O262 In260 2.326 . S
O262 C270 1.252 . S
C263 O266 1.252 . S
C263 O267 1.260 . S
C264 O271 1.240 . S
C264 O272 1.252 . S
C265 O268 1.252 . S
C265 O269 1.260 . S
O266 In260 2.266 . S
O266 C263 1.252 . S
O267 In260 2.326 . S
O267 C263 1.260 . S
O268 In260 2.266 . S
O268 C265 1.252 . S
O269 In260 2.326 . S
O269 C265 1.260 . S
C270 O261 1.240 . S
C270 O262 1.252 . S
O271 In260 2.294 . S
O271 C264 1.240 . S
O272 In260 2.326 . S
O272 C264 1.252 . S
In273 O274 2.294 . S
In273 O275 2.326 . S
In273 O279 2.266 . S
In273 O280 2.326 . S
In273 O281 2.266 . S
In273 O282 2.326 1_554 S
In273 O284 2.294 . S
In273 O285 2.326 . S
O274 In273 2.294 . S
O274 C283 1.240 . S
O275 In273 2.326 . S
O275 C283 1.252 . S
C276 O279 1.252 . S
C276 O280 1.260 . S
C277 O284 1.240 . S
C277 O285 1.252 . S
C278 O281 1.252 1_556 S
C278 O282 1.260 . S
O279 In273 2.266 . S
O279 C276 1.252 . S
O280 In273 2.326 . S
O280 C276 1.260 . S
O281 In273 2.266 . S
O281 C278 1.252 1_554 S
O282 In273 2.326 1_556 S
O282 C278 1.260 . S
C283 O274 1.240 . S
C283 O275 1.252 . S
O284 In273 2.294 . S
O284 C277 1.240 . S
O285 In273 2.326 . S
O285 C277 1.252 . S
In286 O287 2.294 . S
In286 O288 2.326 . S
In286 O292 2.266 . S
In286 O293 2.326 1_554 S
In286 O294 2.266 . S
In286 O295 2.326 . S
In286 O297 2.294 . S
In286 O298 2.326 . S
O287 In286 2.294 . S
O287 C296 1.240 . S
O288 In286 2.326 . S
O288 C296 1.252 . S
C289 O292 1.252 1_556 S
C289 O293 1.260 . S
C290 O297 1.240 . S
C290 O298 1.252 . S
C291 O294 1.252 . S
C291 O295 1.260 . S
O292 In286 2.266 . S
O292 C289 1.252 1_554 S
O293 In286 2.326 1_556 S
O293 C289 1.260 . S
O294 In286 2.266 . S
O294 C291 1.252 . S
O295 In286 2.326 . S
O295 C291 1.260 . S
C296 O287 1.240 . S
C296 O288 1.252 . S
O297 In286 2.294 . S
O297 C290 1.240 . S
O298 In286 2.326 . S
O298 C290 1.252 . S
In299 O300 2.294 . S
In299 O301 2.326 . S
In299 O305 2.266 . S
In299 O306 2.326 . S
In299 O307 2.266 . S
In299 O308 2.326 1_554 S
In299 O310 2.294 . S
In299 O311 2.326 . S
O300 In299 2.294 . S
O300 C309 1.240 . S
O301 In299 2.326 . S
O301 C309 1.252 . S
C302 O305 1.252 . S
C302 O306 1.260 . S
C303 O310 1.240 . S
C303 O311 1.252 . S
C304 O307 1.252 1_556 S
C304 O308 1.260 . S
O305 In299 2.266 . S
O305 C302 1.252 . S
O306 In299 2.326 . S
O306 C302 1.260 . S
O307 In299 2.266 . S
O307 C304 1.252 1_554 S
O308 In299 2.326 1_556 S
O308 C304 1.260 . S
C309 O300 1.240 . S
C309 O301 1.252 . S
O310 In299 2.294 . S
O310 C303 1.240 . S
O311 In299 2.326 . S
O311 C303 1.252 . S
In312 O313 2.294 . S
In312 O314 2.326 . S
In312 O318 2.266 . S
In312 O319 2.326 . S
In312 O320 2.266 . S
In312 O321 2.326 . S
In312 O323 2.294 . S
In312 O324 2.326 . S
O313 In312 2.294 . S
O313 C322 1.240 . S
O314 In312 2.326 . S
O314 C322 1.252 . S
C315 O318 1.252 . S
C315 O319 1.260 . S
C316 O323 1.240 . S
C316 O324 1.252 . S
C317 O320 1.252 . S
C317 O321 1.260 . S
O318 In312 2.266 . S
O318 C315 1.252 . S
O319 In312 2.326 . S
O319 C315 1.260 . S
O320 In312 2.266 . S
O320 C317 1.252 . S
O321 In312 2.326 . S
O321 C317 1.260 . S
C322 O313 1.240 . S
C322 O314 1.252 . S
O323 In312 2.294 . S
O323 C316 1.240 . S
O324 In312 2.326 . S
O324 C316 1.252 . S
In325 O326 2.294 . S
In325 O327 2.326 . S
In325 O331 2.266 . S
In325 O332 2.326 . S
In325 O333 2.266 . S
In325 O334 2.326 . S
In325 O336 2.294 . S
In325 O337 2.326 . S
O326 In325 2.294 . S
O326 C335 1.240 . S
O327 In325 2.326 . S
O327 C335 1.252 . S
C328 O331 1.252 . S
C328 O332 1.260 . S
C329 O336 1.240 . S
C329 O337 1.252 . S
C330 O333 1.252 . S
C330 O334 1.260 . S
O331 In325 2.266 . S
O331 C328 1.252 . S
O332 In325 2.326 . S
O332 C328 1.260 . S
O333 In325 2.266 . S
O333 C330 1.252 . S
O334 In325 2.326 . S
O334 C330 1.260 . S
C335 O326 1.240 . S
C335 O327 1.252 . S
O336 In325 2.294 . S
O336 C329 1.240 . S
O337 In325 2.326 . S
O337 C329 1.252 . S
In338 O339 2.294 . S
In338 O340 2.326 . S
In338 O344 2.266 . S
In338 O345 2.326 . S
In338 O346 2.266 . S
In338 O347 2.326 . S
In338 O349 2.294 . S
In338 O350 2.326 . S
O339 In338 2.294 . S
O339 C348 1.240 . S
O340 In338 2.326 . S
O340 C348 1.252 . S
C341 O344 1.252 . S
C341 O345 1.260 . S
C342 O349 1.240 . S
C342 O350 1.252 . S
C343 O346 1.252 . S
C343 O347 1.260 . S
O344 In338 2.266 . S
O344 C341 1.252 . S
O345 In338 2.326 . S
O345 C341 1.260 . S
O346 In338 2.266 . S
O346 C343 1.252 . S
O347 In338 2.326 . S
O347 C343 1.260 . S
C348 O339 1.240 . S
C348 O340 1.252 . S
O349 In338 2.294 . S
O349 C342 1.240 . S
O350 In338 2.326 . S
O350 C342 1.252 . S
In351 O352 2.294 . S
In351 O353 2.326 . S
In351 O357 2.266 . S
In351 O358 2.326 . S
In351 O359 2.266 . S
In351 O360 2.326 1_556 S
In351 O362 2.294 . S
In351 O363 2.326 . S
O352 In351 2.294 . S
O352 C361 1.240 . S
O353 In351 2.326 . S
O353 C361 1.252 . S
C354 O357 1.252 . S
C354 O358 1.260 . S
C355 O362 1.240 . S
C355 O363 1.252 . S
C356 O359 1.252 1_554 S
C356 O360 1.260 . S
O357 In351 2.266 . S
O357 C354 1.252 . S
O358 In351 2.326 . S
O358 C354 1.260 . S
O359 In351 2.266 . S
O359 C356 1.252 1_556 S
O360 In351 2.326 1_554 S
O360 C356 1.260 . S
C361 O352 1.240 . S
C361 O353 1.252 . S
O362 In351 2.294 . S
O362 C355 1.240 . S
O363 In351 2.326 . S
O363 C355 1.252 . S
In364 O365 2.294 . S
In364 O366 2.326 . S
In364 O370 2.266 . S
In364 O371 2.326 1_556 S
In364 O372 2.266 . S
In364 O373 2.326 . S
In364 O375 2.294 . S
In364 O376 2.326 . S
O365 In364 2.294 . S
O365 C374 1.240 . S
O366 In364 2.326 . S
O366 C374 1.252 . S
C367 O370 1.252 1_554 S
C367 O371 1.260 . S
C368 O375 1.240 . S
C368 O376 1.252 . S
C369 O372 1.252 . S
C369 O373 1.260 . S
O370 In364 2.266 . S
O370 C367 1.252 1_556 S
O371 In364 2.326 1_554 S
O371 C367 1.260 . S
O372 In364 2.266 . S
O372 C369 1.252 . S
O373 In364 2.326 . S
O373 C369 1.260 . S
C374 O365 1.240 . S
C374 O366 1.252 . S
O375 In364 2.294 . S
O375 C368 1.240 . S
O376 In364 2.326 . S
O376 C368 1.252 . S
In377 O378 2.294 . S
In377 O379 2.326 . S
In377 O383 2.266 . S
In377 O384 2.326 . S
In377 O385 2.266 . S
In377 O386 2.326 1_556 S
In377 O388 2.294 . S
In377 O389 2.326 . S
O378 In377 2.294 . S
O378 C387 1.240 . S
O379 In377 2.326 . S
O379 C387 1.252 . S
C380 O383 1.252 . S
C380 O384 1.260 . S
C381 O388 1.240 . S
C381 O389 1.252 . S
C382 O385 1.252 1_554 S
C382 O386 1.260 . S
O383 In377 2.266 . S
O383 C380 1.252 . S
O384 In377 2.326 . S
O384 C380 1.260 . S
O385 In377 2.266 . S
O385 C382 1.252 1_556 S
O386 In377 2.326 1_554 S
O386 C382 1.260 . S
C387 O378 1.240 . S
C387 O379 1.252 . S
O388 In377 2.294 . S
O388 C381 1.240 . S
O389 In377 2.326 . S
O389 C381 1.252 . S
In390 O391 2.294 . S
In390 O392 2.326 . S
In390 O396 2.266 . S
In390 O397 2.326 . S
In390 O398 2.266 . S
In390 O399 2.326 . S
In390 O401 2.294 . S
In390 O402 2.326 . S
O391 In390 2.294 . S
O391 C400 1.240 . S
O392 In390 2.326 . S
O392 C400 1.252 . S
C393 O396 1.252 . S
C393 O397 1.260 . S
C394 O401 1.240 . S
C394 O402 1.252 . S
C395 O398 1.252 . S
C395 O399 1.260 . S
O396 In390 2.266 . S
O396 C393 1.252 . S
O397 In390 2.326 . S
O397 C393 1.260 . S
O398 In390 2.266 . S
O398 C395 1.252 . S
O399 In390 2.326 . S
O399 C395 1.260 . S
C400 O391 1.240 . S
C400 O392 1.252 . S
O401 In390 2.294 . S
O401 C394 1.240 . S
O402 In390 2.326 . S
O402 C394 1.252 . S
In403 O404 2.294 . S
In403 O405 2.326 . S
In403 O409 2.266 . S
In403 O410 2.326 . S
In403 O411 2.266 . S
In403 O412 2.326 . S
In403 O414 2.294 . S
In403 O415 2.326 . S
O404 In403 2.294 . S
O404 C413 1.240 . S
O405 In403 2.326 . S
O405 C413 1.252 . S
C406 O409 1.252 . S
C406 O410 1.260 . S
C407 O414 1.240 . S
C407 O415 1.252 . S
C408 O411 1.252 . S
C408 O412 1.260 . S
O409 In403 2.266 . S
O409 C406 1.252 . S
O410 In403 2.326 . S
O410 C406 1.260 . S
O411 In403 2.266 . S
O411 C408 1.252 . S
O412 In403 2.326 . S
O412 C408 1.260 . S
C413 O404 1.240 . S
C413 O405 1.252 . S
O414 In403 2.294 . S
O414 C407 1.240 . S
O415 In403 2.326 . S
O415 C407 1.252 . S
In416 O417 2.294 . S
In416 O418 2.326 . S
In416 O422 2.266 . S
In416 O423 2.326 . S
In416 O424 2.266 . S
In416 O425 2.326 . S
In416 O427 2.294 . S
In416 O428 2.326 . S
O417 In416 2.294 . S
O417 C426 1.240 . S
O418 In416 2.326 . S
O418 C426 1.252 . S
C419 O422 1.252 . S
C419 O423 1.260 . S
C420 O427 1.240 . S
C420 O428 1.252 . S
C421 O424 1.252 . S
C421 O425 1.260 . S
O422 In416 2.266 . S
O422 C419 1.252 . S
O423 In416 2.326 . S
O423 C419 1.260 . S
O424 In416 2.266 . S
O424 C421 1.252 . S
O425 In416 2.326 . S
O425 C421 1.260 . S
C426 O417 1.240 . S
C426 O418 1.252 . S
O427 In416 2.294 . S
O427 C420 1.240 . S
O428 In416 2.326 . S
O428 C420 1.252 . S
In429 O430 2.294 . S
In429 O431 2.326 . S
In429 O435 2.266 . S
In429 O436 2.326 . S
In429 O437 2.266 . S
In429 O438 2.326 . S
In429 O440 2.294 . S
In429 O441 2.326 . S
O430 In429 2.294 . S
O430 C439 1.240 . S
O431 In429 2.326 . S
O431 C439 1.252 . S
C432 O435 1.252 . S
C432 O436 1.260 . S
C433 O440 1.240 . S
C433 O441 1.252 . S
C434 O437 1.252 . S
C434 O438 1.260 . S
O435 In429 2.266 . S
O435 C432 1.252 . S
O436 In429 2.326 . S
O436 C432 1.260 . S
O437 In429 2.266 . S
O437 C434 1.252 . S
O438 In429 2.326 . S
O438 C434 1.260 . S
C439 O430 1.240 . S
C439 O431 1.252 . S
O440 In429 2.294 . S
O440 C433 1.240 . S
O441 In429 2.326 . S
O441 C433 1.252 . S
In442 O443 2.294 . S
In442 O444 2.326 . S
In442 O448 2.266 . S
In442 O449 2.326 . S
In442 O450 2.266 . S
In442 O451 2.326 . S
In442 O453 2.294 . S
In442 O454 2.326 . S
O443 In442 2.294 . S
O443 C452 1.240 . S
O444 In442 2.326 . S
O444 C452 1.252 . S
C445 O448 1.252 . S
C445 O449 1.260 . S
C446 O453 1.240 . S
C446 O454 1.252 . S
C447 O450 1.252 . S
C447 O451 1.260 . S
O448 In442 2.266 . S
O448 C445 1.252 . S
O449 In442 2.326 . S
O449 C445 1.260 . S
O450 In442 2.266 . S
O450 C447 1.252 . S
O451 In442 2.326 . S
O451 C447 1.260 . S
C452 O443 1.240 . S
C452 O444 1.252 . S
O453 In442 2.294 . S
O453 C446 1.240 . S
O454 In442 2.326 . S
O454 C446 1.252 . S
In455 O456 2.294 . S
In455 O457 2.326 . S
In455 O461 2.266 . S
In455 O462 2.326 . S
In455 O463 2.266 . S
In455 O464 2.326 . S
In455 O466 2.294 . S
In455 O467 2.326 . S
O456 In455 2.294 . S
O456 C465 1.240 . S
O457 In455 2.326 . S
O457 C465 1.252 . S
C458 O461 1.252 . S
C458 O462 1.260 . S
C459 O466 1.240 . S
C459 O467 1.252 . S
C460 O463 1.252 . S
C460 O464 1.260 . S
O461 In455 2.266 . S
O461 C458 1.252 . S
O462 In455 2.326 . S
O462 C458 1.260 . S
O463 In455 2.266 . S
O463 C460 1.252 . S
O464 In455 2.326 . S
O464 C460 1.260 . S
C465 O456 1.240 . S
C465 O457 1.252 . S
O466 In455 2.294 . S
O466 C459 1.240 . S
O467 In455 2.326 . S
O467 C459 1.252 . S
H468 C486 0.951 . S
H469 C488 0.951 . S
H470 C490 0.950 . S
H471 C491 0.950 . S
H472 C493 0.950 . S
H473 C496 0.950 . S
H474 C497 0.950 . S
H475 C499 0.950 . S
H476 C500 0.950 . S
H477 C501 0.951 . S
H478 C503 0.951 . S
H479 C505 0.950 . S
H480 C506 0.950 . S
H481 C508 0.950 . S
H482 C511 0.950 . S
H483 C512 0.950 . S
H484 C514 0.950 . S
H485 C515 0.950 . S
C486 H468 0.951 . S
C486 C487 1.366 . S
C486 C488 1.388 . S
C487 C486 1.366 . S
C487 C491 1.385 . S
C488 H469 0.951 . S
C488 C486 1.388 . S
C488 C489 1.366 . S
C489 C488 1.366 . S
C489 C490 1.414 . S
C489 C492 1.499 . S
C490 H470 0.950 . S
C490 C489 1.414 . S
C490 C491 1.374 . S
C491 H471 0.950 . S
C491 C487 1.385 . S
C491 C490 1.374 . S
C492 C489 1.499 . S
C492 C493 1.373 . S
C492 C494 1.389 . S
C493 H472 0.950 . S
C493 C492 1.373 . S
C493 C509 1.377 . S
C494 C492 1.389 . S
C494 C495 1.524 . S
C494 C508 1.377 . S
C495 C494 1.524 . S
C495 C496 1.397 . S
C495 C500 1.363 . S
C496 H473 0.950 . S
C496 C495 1.397 . S
C496 C497 1.334 . S
C497 H474 0.950 . S
C497 C496 1.334 . S
C497 C498 1.287 . S
C498 C497 1.287 . S
C498 C499 1.524 . S
C498 H517 0.913 . S
C499 H475 0.950 . S
C499 C498 1.524 . S
C499 C500 1.415 . S
C500 H476 0.950 . S
C500 C495 1.363 . S
C500 C499 1.415 . S
C501 H477 0.951 . S
C501 C502 1.366 . S
C501 C503 1.388 . S
C502 C501 1.366 . S
C502 C506 1.385 . S
C503 H478 0.951 . S
C503 C501 1.388 . S
C503 C504 1.366 . S
C504 C503 1.366 . S
C504 C505 1.414 . S
C504 C507 1.499 1_554 S
C505 H479 0.950 . S
C505 C504 1.414 . S
C505 C506 1.374 . S
C506 H480 0.950 . S
C506 C502 1.385 . S
C506 C505 1.374 . S
C507 C504 1.499 1_556 S
C507 C508 1.373 . S
C507 C509 1.389 . S
C508 H481 0.950 . S
C508 C494 1.377 . S
C508 C507 1.373 . S
C509 C493 1.377 . S
C509 C507 1.389 . S
C509 C510 1.524 . S
C510 C509 1.524 . S
C510 C511 1.397 1_556 S
C510 C515 1.363 . S
C511 H482 0.950 . S
C511 C510 1.397 1_554 S
C511 C512 1.334 . S
C512 H483 0.950 . S
C512 C511 1.334 . S
C512 C513 1.287 . S
C513 C512 1.287 . S
C513 C514 1.524 . S
C513 H516 0.999 . S
C514 H484 0.950 . S
C514 C513 1.524 . S
C514 C515 1.415 1_554 S
C515 H485 0.950 . S
C515 C510 1.363 . S
C515 C514 1.415 1_556 S
H516 C513 0.999 . S
H517 C498 0.913 . S
H518 C536 0.951 . S
H519 C538 0.951 . S
H520 C540 0.950 . S
H521 C541 0.950 . S
H522 C543 0.950 . S
H523 C546 0.950 . S
H524 C547 0.950 . S
H525 C549 0.950 . S
H526 C550 0.950 . S
H527 C551 0.951 . S
H528 C553 0.951 . S
H529 C555 0.950 . S
H530 C556 0.950 . S
H531 C558 0.950 . S
H532 C561 0.950 . S
H533 C562 0.950 . S
H534 C564 0.950 . S
H535 C565 0.950 . S
C536 H518 0.951 . S
C536 C537 1.366 . S
C536 C538 1.388 . S
C537 C536 1.366 . S
C537 C541 1.385 . S
C538 H519 0.951 . S
C538 C536 1.388 . S
C538 C539 1.366 . S
C539 C538 1.366 . S
C539 C540 1.414 . S
C539 C542 1.499 . S
C540 H520 0.950 . S
C540 C539 1.414 . S
C540 C541 1.374 . S
C541 H521 0.950 . S
C541 C537 1.385 . S
C541 C540 1.374 . S
C542 C539 1.499 . S
C542 C543 1.373 . S
C542 C544 1.389 . S
C543 H522 0.950 . S
C543 C542 1.373 . S
C543 C559 1.377 . S
C544 C542 1.389 . S
C544 C545 1.524 . S
C544 C558 1.377 . S
C545 C544 1.524 . S
C545 C546 1.397 . S
C545 C550 1.363 . S
C546 H523 0.950 . S
C546 C545 1.397 . S
C546 C547 1.334 . S
C547 H524 0.950 . S
C547 C546 1.334 . S
C547 C548 1.287 . S
C548 C547 1.287 . S
C548 C549 1.524 . S
C548 H567 0.913 . S
C549 H525 0.950 . S
C549 C548 1.524 . S
C549 C550 1.415 . S
C550 H526 0.950 . S
C550 C545 1.363 . S
C550 C549 1.415 . S
C551 H527 0.951 . S
C551 C552 1.366 . S
C551 C553 1.388 . S
C552 C551 1.366 . S
C552 C556 1.385 . S
C553 H528 0.951 . S
C553 C551 1.388 . S
C553 C554 1.366 . S
C554 C553 1.366 . S
C554 C555 1.414 . S
C554 C557 1.499 1_554 S
C555 H529 0.950 . S
C555 C554 1.414 . S
C555 C556 1.374 . S
C556 H530 0.950 . S
C556 C552 1.385 . S
C556 C555 1.374 . S
C557 C554 1.499 1_556 S
C557 C558 1.373 . S
C557 C559 1.389 . S
C558 H531 0.950 . S
C558 C544 1.377 . S
C558 C557 1.373 . S
C559 C543 1.377 . S
C559 C557 1.389 . S
C559 C560 1.539 . S
C560 C559 1.539 . S
C560 C561 1.381 1_556 S
C560 C565 1.367 . S
C561 H532 0.950 . S
C561 C560 1.381 1_554 S
C561 C562 1.334 . S
C562 H533 0.950 . S
C562 C561 1.334 . S
C562 C563 1.287 . S
C563 C562 1.287 . S
C563 C564 1.524 . S
C563 H566 0.999 . S
C564 H534 0.950 . S
C564 C563 1.524 . S
C564 C565 1.415 1_554 S
C565 H535 0.950 . S
C565 C560 1.367 . S
C565 C564 1.415 1_556 S
H566 C563 0.999 . S
H567 C548 0.913 . S
H568 C586 0.951 . S
H569 C588 0.951 . S
H570 C590 0.950 . S
H571 C591 0.950 . S
H572 C593 0.950 . S
H573 C596 0.950 . S
H574 C597 0.950 . S
H575 C599 0.950 . S
H576 C600 0.950 . S
H577 C601 0.951 . S
H578 C603 0.951 . S
H579 C605 0.950 . S
H580 C606 0.950 . S
H581 C608 0.950 . S
H582 C611 0.950 . S
H583 C612 0.950 . S
H584 C614 0.950 . S
H585 C615 0.950 . S
C586 H568 0.951 . S
C586 C587 1.366 . S
C586 C588 1.388 . S
C587 C586 1.366 . S
C587 C591 1.385 . S
C588 H569 0.951 . S
C588 C586 1.388 . S
C588 C589 1.366 . S
C589 C588 1.366 . S
C589 C590 1.414 . S
C589 C592 1.499 1_554 S
C590 H570 0.950 . S
C590 C589 1.414 . S
C590 C591 1.374 . S
C591 H571 0.950 . S
C591 C587 1.385 . S
C591 C590 1.374 . S
C592 C589 1.499 1_556 S
C592 C593 1.373 . S
C592 C594 1.389 . S
C593 H572 0.950 . S
C593 C592 1.373 . S
C593 C609 1.377 . S
C594 C592 1.389 . S
C594 C595 1.524 . S
C594 C608 1.377 . S
C595 C594 1.524 . S
C595 C596 1.397 1_556 S
C595 C600 1.363 . S
C596 H573 0.950 . S
C596 C595 1.397 1_554 S
C596 C597 1.334 . S
C597 H574 0.950 . S
C597 C596 1.334 . S
C597 C598 1.287 . S
C598 C597 1.287 . S
C598 C599 1.524 1_554 S
C598 H617 0.913 . S
C599 H575 0.950 . S
C599 C598 1.524 1_556 S
C599 C600 1.415 . S
C600 H576 0.950 . S
C600 C595 1.363 . S
C600 C599 1.415 . S
C601 H577 0.951 . S
C601 C602 1.366 . S
C601 C603 1.388 . S
C602 C601 1.366 . S
C602 C606 1.385 . S
C603 H578 0.951 . S
C603 C601 1.388 . S
C603 C604 1.366 . S
C604 C603 1.366 . S
C604 C605 1.414 . S
C604 C607 1.499 . S
C605 H579 0.950 . S
C605 C604 1.414 . S
C605 C606 1.374 . S
C606 H580 0.950 . S
C606 C602 1.385 . S
C606 C605 1.374 . S
C607 C604 1.499 . S
C607 C608 1.373 . S
C607 C609 1.389 . S
C608 H581 0.950 . S
C608 C594 1.377 . S
C608 C607 1.373 . S
C609 C593 1.377 . S
C609 C607 1.389 . S
C609 C610 1.524 . S
C610 C609 1.524 . S
C610 C611 1.397 . S
C610 C615 1.363 . S
C611 H582 0.950 . S
C611 C610 1.397 . S
C611 C612 1.334 . S
C612 H583 0.950 . S
C612 C611 1.334 . S
C612 C613 1.287 . S
C613 C612 1.287 . S
C613 C614 1.524 . S
C613 H616 0.999 . S
C614 H584 0.950 . S
C614 C613 1.524 . S
C614 C615 1.415 . S
C615 H585 0.950 . S
C615 C610 1.363 . S
C615 C614 1.415 . S
H616 C613 0.999 . S
H617 C598 0.913 . S
H618 C636 0.951 . S
H619 C638 0.951 . S
H620 C640 0.950 . S
H621 C641 0.950 . S
H622 C643 0.950 . S
H623 C646 0.950 . S
H624 C647 0.950 . S
H625 C649 0.950 . S
H626 C650 0.950 . S
H627 C651 0.951 . S
H628 C653 0.951 . S
H629 C655 0.950 . S
H630 C656 0.950 . S
H631 C658 0.950 . S
H632 C661 0.950 . S
H633 C662 0.950 . S
H634 C664 0.950 . S
H635 C665 0.950 . S
C636 H618 0.951 . S
C636 C637 1.366 . S
C636 C638 1.388 . S
C637 C636 1.366 . S
C637 C641 1.385 . S
C638 H619 0.951 . S
C638 C636 1.388 . S
C638 C639 1.366 . S
C639 C638 1.366 . S
C639 C640 1.414 . S
C639 C642 1.499 . S
C640 H620 0.950 . S
C640 C639 1.414 . S
C640 C641 1.374 . S
C641 H621 0.950 . S
C641 C637 1.385 . S
C641 C640 1.374 . S
C642 C639 1.499 . S
C642 C643 1.373 . S
C642 C644 1.389 . S
C643 H622 0.950 . S
C643 C642 1.373 . S
C643 C659 1.377 . S
C644 C642 1.389 . S
C644 C645 1.524 . S
C644 C658 1.377 . S
C645 C644 1.524 . S
C645 C646 1.397 . S
C645 C650 1.363 . S
C646 H623 0.950 . S
C646 C645 1.397 . S
C646 C647 1.334 . S
C647 H624 0.950 . S
C647 C646 1.334 . S
C647 C648 1.287 . S
C648 C647 1.287 . S
C648 C649 1.524 . S
C648 H667 0.913 . S
C649 H625 0.950 . S
C649 C648 1.524 . S
C649 C650 1.415 . S
C650 H626 0.950 . S
C650 C645 1.363 . S
C650 C649 1.415 . S
C651 H627 0.951 . S
C651 C652 1.366 . S
C651 C653 1.388 . S
C652 C651 1.366 . S
C652 C656 1.385 . S
C653 H628 0.951 . S
C653 C651 1.388 . S
C653 C654 1.366 . S
C654 C653 1.366 . S
C654 C655 1.414 . S
C654 C657 1.499 . S
C655 H629 0.950 . S
C655 C654 1.414 . S
C655 C656 1.374 . S
C656 H630 0.950 . S
C656 C652 1.385 . S
C656 C655 1.374 . S
C657 C654 1.499 . S
C657 C658 1.373 . S
C657 C659 1.389 . S
C658 H631 0.950 . S
C658 C644 1.377 . S
C658 C657 1.373 . S
C659 C643 1.377 . S
C659 C657 1.389 . S
C659 C660 1.524 . S
C660 C659 1.524 . S
C660 C661 1.397 . S
C660 C665 1.363 . S
C661 H632 0.950 . S
C661 C660 1.397 . S
C661 C662 1.334 . S
C662 H633 0.950 . S
C662 C661 1.334 . S
C662 C663 1.287 . S
C663 C662 1.287 . S
C663 C664 1.524 . S
C663 H666 0.999 . S
C664 H634 0.950 . S
C664 C663 1.524 . S
C664 C665 1.415 . S
C665 H635 0.950 . S
C665 C660 1.363 . S
C665 C664 1.415 . S
H666 C663 0.999 . S
H667 C648 0.913 . S
H668 C686 0.951 . S
H669 C688 0.951 . S
H670 C690 0.950 . S
H671 C691 0.950 . S
H672 C693 0.950 . S
H673 C696 0.950 . S
H674 C697 0.950 . S
H675 C699 0.950 . S
H676 C700 0.950 . S
H677 C701 0.951 . S
H678 C703 0.951 . S
H679 C705 0.950 . S
H680 C706 0.950 . S
H681 C708 0.950 . S
H682 C711 0.950 . S
H683 C712 0.950 . S
H684 C714 0.950 . S
H685 C715 0.950 . S
C686 H668 0.951 . S
C686 C687 1.366 . S
C686 C688 1.388 . S
C687 C686 1.366 . S
C687 C691 1.385 . S
C688 H669 0.951 . S
C688 C686 1.388 . S
C688 C689 1.366 . S
C689 C688 1.366 . S
C689 C690 1.414 . S
C689 C692 1.499 . S
C690 H670 0.950 . S
C690 C689 1.414 . S
C690 C691 1.374 . S
C691 H671 0.950 . S
C691 C687 1.385 . S
C691 C690 1.374 . S
C692 C689 1.499 . S
C692 C693 1.373 . S
C692 C694 1.389 . S
C693 H672 0.950 . S
C693 C692 1.373 . S
C693 C709 1.377 . S
C694 C692 1.389 . S
C694 C695 1.524 . S
C694 C708 1.377 . S
C695 C694 1.524 . S
C695 C696 1.397 . S
C695 C700 1.363 . S
C696 H673 0.950 . S
C696 C695 1.397 . S
C696 C697 1.334 . S
C697 H674 0.950 . S
C697 C696 1.334 . S
C697 C698 1.287 . S
C698 C697 1.287 . S
C698 C699 1.524 . S
C698 H717 0.913 . S
C699 H675 0.950 . S
C699 C698 1.524 . S
C699 C700 1.415 . S
C700 H676 0.950 . S
C700 C695 1.363 . S
C700 C699 1.415 . S
C701 H677 0.951 . S
C701 C702 1.366 . S
C701 C703 1.388 . S
C702 C701 1.366 . S
C702 C706 1.385 . S
C703 H678 0.951 . S
C703 C701 1.388 . S
C703 C704 1.366 . S
C704 C703 1.366 . S
C704 C705 1.414 . S
C704 C707 1.499 . S
C705 H679 0.950 . S
C705 C704 1.414 . S
C705 C706 1.374 . S
C706 H680 0.950 . S
C706 C702 1.385 . S
C706 C705 1.374 . S
C707 C704 1.499 . S
C707 C708 1.373 . S
C707 C709 1.389 . S
C708 H681 0.950 . S
C708 C694 1.377 . S
C708 C707 1.373 . S
C709 C693 1.377 . S
C709 C707 1.389 . S
C709 C710 1.524 . S
C710 C709 1.524 . S
C710 C711 1.397 . S
C710 C715 1.363 . S
C711 H682 0.950 . S
C711 C710 1.397 . S
C711 C712 1.334 . S
C712 H683 0.950 . S
C712 C711 1.334 . S
C712 C713 1.287 . S
C713 C712 1.287 . S
C713 C714 1.524 . S
C713 H716 0.999 . S
C714 H684 0.950 . S
C714 C713 1.524 . S
C714 C715 1.415 . S
C715 H685 0.950 . S
C715 C710 1.363 . S
C715 C714 1.415 . S
H716 C713 0.999 . S
H717 C698 0.913 . S
H718 C736 0.951 . S
H719 C738 0.951 . S
H720 C740 0.950 . S
H721 C741 0.950 . S
H722 C743 0.950 . S
H723 C746 0.950 . S
H724 C747 0.950 . S
H725 C749 0.950 . S
H726 C750 0.950 . S
H727 C751 0.951 . S
H728 C753 0.951 . S
H729 C755 0.950 . S
H730 C756 0.950 . S
H731 C758 0.950 . S
H732 C761 0.950 . S
H733 C762 0.950 . S
H734 C764 0.950 . S
H735 C765 0.950 . S
C736 H718 0.951 . S
C736 C737 1.366 . S
C736 C738 1.388 . S
C737 C736 1.366 . S
C737 C741 1.385 . S
C738 H719 0.951 . S
C738 C736 1.388 . S
C738 C739 1.366 . S
C739 C738 1.366 . S
C739 C740 1.414 . S
C739 C742 1.499 . S
C740 H720 0.950 . S
C740 C739 1.414 . S
C740 C741 1.374 . S
C741 H721 0.950 . S
C741 C737 1.385 . S
C741 C740 1.374 . S
C742 C739 1.499 . S
C742 C743 1.373 . S
C742 C744 1.389 . S
C743 H722 0.950 . S
C743 C742 1.373 . S
C743 C759 1.377 . S
C744 C742 1.389 . S
C744 C745 1.524 . S
C744 C758 1.377 . S
C745 C744 1.524 . S
C745 C746 1.397 . S
C745 C750 1.363 . S
C746 H723 0.950 . S
C746 C745 1.397 . S
C746 C747 1.334 . S
C747 H724 0.950 . S
C747 C746 1.334 . S
C747 C748 1.287 . S
C748 C747 1.287 . S
C748 C749 1.524 . S
C748 H767 0.913 . S
C749 H725 0.950 . S
C749 C748 1.524 . S
C749 C750 1.415 . S
C750 H726 0.950 . S
C750 C745 1.363 . S
C750 C749 1.415 . S
C751 H727 0.951 . S
C751 C752 1.366 . S
C751 C753 1.388 . S
C752 C751 1.366 . S
C752 C756 1.385 . S
C753 H728 0.951 . S
C753 C751 1.388 . S
C753 C754 1.366 . S
C754 C753 1.366 . S
C754 C755 1.414 . S
C754 C757 1.499 . S
C755 H729 0.950 . S
C755 C754 1.414 . S
C755 C756 1.374 . S
C756 H730 0.950 . S
C756 C752 1.385 . S
C756 C755 1.374 . S
C757 C754 1.499 . S
C757 C758 1.373 . S
C757 C759 1.389 . S
C758 H731 0.950 . S
C758 C744 1.377 . S
C758 C757 1.373 . S
C759 C743 1.377 . S
C759 C757 1.389 . S
C759 C760 1.524 . S
C760 C759 1.524 . S
C760 C761 1.397 . S
C760 C765 1.363 . S
C761 H732 0.950 . S
C761 C760 1.397 . S
C761 C762 1.334 . S
C762 H733 0.950 . S
C762 C761 1.334 . S
C762 C763 1.287 . S
C763 C762 1.287 . S
C763 C764 1.524 . S
C763 H766 0.999 . S
C764 H734 0.950 . S
C764 C763 1.524 . S
C764 C765 1.415 . S
C765 H735 0.950 . S
C765 C760 1.363 . S
C765 C764 1.415 . S
H766 C763 0.999 . S
H767 C748 0.913 . S
H768 C786 0.951 . S
H769 C788 0.951 . S
H770 C790 0.950 . S
H771 C791 0.950 . S
H772 C793 0.950 . S
H773 C796 0.950 . S
H774 C797 0.950 . S
H775 C799 0.950 . S
H776 C800 0.950 . S
H777 C801 0.951 . S
H778 C803 0.951 . S
H779 C805 0.950 . S
H780 C806 0.950 . S
H781 C808 0.950 . S
H782 C811 0.950 . S
H783 C812 0.950 . S
H784 C814 0.950 . S
H785 C815 0.950 . S
C786 H768 0.951 . S
C786 C787 1.366 . S
C786 C788 1.388 . S
C787 C786 1.366 . S
C787 C791 1.385 . S
C788 H769 0.951 . S
C788 C786 1.388 . S
C788 C789 1.366 . S
C789 C788 1.366 . S
C789 C790 1.414 . S
C789 C792 1.499 . S
C790 H770 0.950 . S
C790 C789 1.414 . S
C790 C791 1.374 . S
C791 H771 0.950 . S
C791 C787 1.385 . S
C791 C790 1.374 . S
C792 C789 1.499 . S
C792 C793 1.373 . S
C792 C794 1.389 . S
C793 H772 0.950 . S
C793 C792 1.373 . S
C793 C809 1.377 . S
C794 C792 1.389 . S
C794 C795 1.524 . S
C794 C808 1.377 . S
C795 C794 1.524 . S
C795 C796 1.397 . S
C795 C800 1.363 . S
C796 H773 0.950 . S
C796 C795 1.397 . S
C796 C797 1.334 . S
C797 H774 0.950 . S
C797 C796 1.334 . S
C797 C798 1.287 . S
C798 C797 1.287 . S
C798 C799 1.524 . S
C798 H817 0.913 . S
C799 H775 0.950 . S
C799 C798 1.524 . S
C799 C800 1.415 . S
C800 H776 0.950 . S
C800 C795 1.363 . S
C800 C799 1.415 . S
C801 H777 0.951 . S
C801 C802 1.366 . S
C801 C803 1.388 . S
C802 C801 1.366 . S
C802 C806 1.385 . S
C803 H778 0.951 . S
C803 C801 1.388 . S
C803 C804 1.366 . S
C804 C803 1.366 . S
C804 C805 1.414 . S
C804 C807 1.499 1_556 S
C805 H779 0.950 . S
C805 C804 1.414 . S
C805 C806 1.374 . S
C806 H780 0.950 . S
C806 C802 1.385 . S
C806 C805 1.374 . S
C807 C804 1.499 1_554 S
C807 C808 1.373 . S
C807 C809 1.389 . S
C808 H781 0.950 . S
C808 C794 1.377 . S
C808 C807 1.373 . S
C809 C793 1.377 . S
C809 C807 1.389 . S
C809 C810 1.524 . S
C810 C809 1.524 . S
C810 C811 1.397 1_554 S
C810 C815 1.363 . S
C811 H782 0.950 . S
C811 C810 1.397 1_556 S
C811 C812 1.334 . S
C812 H783 0.950 . S
C812 C811 1.334 . S
C812 C813 1.287 . S
C813 C812 1.287 . S
C813 C814 1.524 1_556 S
C813 H816 0.999 . S
C814 H784 0.950 . S
C814 C813 1.524 1_554 S
C814 C815 1.415 . S
C815 H785 0.950 . S
C815 C810 1.363 . S
C815 C814 1.415 . S
H816 C813 0.999 . S
H817 C798 0.913 . S
H818 C836 0.951 . S
H819 C838 0.951 . S
H820 C840 0.950 . S
H821 C841 0.950 . S
H822 C843 0.950 . S
H823 C846 0.950 . S
H824 C847 0.950 . S
H825 C849 0.950 . S
H826 C850 0.950 . S
H827 C851 0.951 . S
H828 C853 0.951 . S
H829 C855 0.950 . S
H830 C856 0.950 . S
H831 C858 0.950 . S
H832 C861 0.950 . S
H833 C862 0.950 . S
H834 C864 0.950 . S
H835 C865 0.950 . S
C836 H818 0.951 . S
C836 C837 1.366 . S
C836 C838 1.388 . S
C837 C836 1.366 . S
C837 C841 1.385 . S
C838 H819 0.951 . S
C838 C836 1.388 . S
C838 C839 1.366 . S
C839 C838 1.366 . S
C839 C840 1.414 . S
C839 C842 1.499 . S
C840 H820 0.950 . S
C840 C839 1.414 . S
C840 C841 1.374 . S
C841 H821 0.950 . S
C841 C837 1.385 . S
C841 C840 1.374 . S
C842 C839 1.499 . S
C842 C843 1.373 . S
C842 C844 1.389 . S
C843 H822 0.950 . S
C843 C842 1.373 . S
C843 C859 1.377 . S
C844 C842 1.389 . S
C844 C845 1.524 . S
C844 C858 1.377 . S
C845 C844 1.524 . S
C845 C846 1.397 . S
C845 C850 1.363 . S
C846 H823 0.950 . S
C846 C845 1.397 . S
C846 C847 1.334 . S
C847 H824 0.950 . S
C847 C846 1.334 . S
C847 C848 1.287 . S
C848 C847 1.287 . S
C848 C849 1.524 . S
C848 H867 0.913 . S
C849 H825 0.950 . S
C849 C848 1.524 . S
C849 C850 1.415 . S
C850 H826 0.950 . S
C850 C845 1.363 . S
C850 C849 1.415 . S
C851 H827 0.951 . S
C851 C852 1.366 . S
C851 C853 1.388 . S
C852 C851 1.366 . S
C852 C856 1.385 . S
C853 H828 0.951 . S
C853 C851 1.388 . S
C853 C854 1.366 . S
C854 C853 1.366 . S
C854 C855 1.414 . S
C854 C857 1.499 1_556 S
C855 H829 0.950 . S
C855 C854 1.414 . S
C855 C856 1.374 . S
C856 H830 0.950 . S
C856 C852 1.385 . S
C856 C855 1.374 . S
C857 C854 1.499 1_554 S
C857 C858 1.373 . S
C857 C859 1.389 . S
C858 H831 0.950 . S
C858 C844 1.377 . S
C858 C857 1.373 . S
C859 C843 1.377 . S
C859 C857 1.389 . S
C859 C860 1.519 1_554 S
C860 C859 1.519 1_556 S
C860 C861 1.403 . S
C860 C865 1.361 1_556 S
C861 H832 0.950 . S
C861 C860 1.403 . S
C861 C862 1.334 . S
C862 H833 0.950 . S
C862 C861 1.334 . S
C862 C863 1.287 . S
C863 C862 1.287 . S
C863 C864 1.524 . S
C863 H866 0.999 . S
C864 H834 0.950 . S
C864 C863 1.524 . S
C864 C865 1.415 1_556 S
C865 H835 0.950 . S
C865 C860 1.361 1_554 S
C865 C864 1.415 1_554 S
H866 C863 0.999 . S
H867 C848 0.913 . S
H868 C886 0.951 . S
H869 C888 0.951 . S
H870 C890 0.950 . S
H871 C891 0.950 . S
H872 C893 0.950 . S
H873 C896 0.950 . S
H874 C897 0.950 . S
H875 C899 0.950 . S
H876 C900 0.950 . S
H877 C901 0.951 . S
H878 C903 0.951 . S
H879 C905 0.950 . S
H880 C906 0.950 . S
H881 C908 0.950 . S
H882 C911 0.950 . S
H883 C912 0.950 . S
H884 C914 0.950 . S
H885 C915 0.950 . S
C886 H868 0.951 . S
C886 C887 1.366 . S
C886 C888 1.388 . S
C887 C886 1.366 . S
C887 C891 1.385 . S
C888 H869 0.951 . S
C888 C886 1.388 . S
C888 C889 1.366 . S
C889 C888 1.366 . S
C889 C890 1.414 . S
C889 C892 1.499 1_556 S
C890 H870 0.950 . S
C890 C889 1.414 . S
C890 C891 1.374 . S
C891 H871 0.950 . S
C891 C887 1.385 . S
C891 C890 1.374 . S
C892 C889 1.499 1_554 S
C892 C893 1.373 . S
C892 C894 1.389 . S
C893 H872 0.950 . S
C893 C892 1.373 . S
C893 C909 1.377 . S
C894 C892 1.389 . S
C894 C895 1.524 . S
C894 C908 1.377 . S
C895 C894 1.524 . S
C895 C896 1.397 1_554 S
C895 C900 1.363 . S
C896 H873 0.950 . S
C896 C895 1.397 1_556 S
C896 C897 1.334 . S
C897 H874 0.950 . S
C897 C896 1.334 . S
C897 C898 1.287 . S
C898 C897 1.287 . S
C898 C899 1.524 1_556 S
C898 H917 0.913 . S
C899 H875 0.950 . S
C899 C898 1.524 1_554 S
C899 C900 1.415 . S
C900 H876 0.950 . S
C900 C895 1.363 . S
C900 C899 1.415 . S
C901 H877 0.951 . S
C901 C902 1.366 . S
C901 C903 1.388 . S
C902 C901 1.366 . S
C902 C906 1.385 . S
C903 H878 0.951 . S
C903 C901 1.388 . S
C903 C904 1.366 . S
C904 C903 1.366 . S
C904 C905 1.414 . S
C904 C907 1.499 . S
C905 H879 0.950 . S
C905 C904 1.414 . S
C905 C906 1.374 . S
C906 H880 0.950 . S
C906 C902 1.385 . S
C906 C905 1.374 . S
C907 C904 1.499 . S
C907 C908 1.373 . S
C907 C909 1.389 . S
C908 H881 0.950 . S
C908 C894 1.377 . S
C908 C907 1.373 . S
C909 C893 1.377 . S
C909 C907 1.389 . S
C909 C910 1.524 . S
C910 C909 1.524 . S
C910 C911 1.397 . S
C910 C915 1.363 . S
C911 H882 0.950 . S
C911 C910 1.397 . S
C911 C912 1.334 . S
C912 H883 0.950 . S
C912 C911 1.334 . S
C912 C913 1.287 . S
C913 C912 1.287 . S
C913 C914 1.524 . S
C913 H916 0.999 . S
C914 H884 0.950 . S
C914 C913 1.524 . S
C914 C915 1.415 . S
C915 H885 0.950 . S
C915 C910 1.363 . S
C915 C914 1.415 . S
H916 C913 0.999 . S
H917 C898 0.913 . S
H918 C936 0.951 . S
H919 C938 0.951 . S
H920 C940 0.950 . S
H921 C941 0.950 . S
H922 C943 0.950 . S
H923 C946 0.950 . S
H924 C947 0.950 . S
H925 C949 0.950 . S
H926 C950 0.950 . S
H927 C951 0.951 . S
H928 C953 0.951 . S
H929 C955 0.950 . S
H930 C956 0.950 . S
H931 C958 0.950 . S
H932 C961 0.950 . S
H933 C962 0.950 . S
H934 C964 0.950 . S
H935 C965 0.950 . S
C936 H918 0.951 . S
C936 C937 1.366 . S
C936 C938 1.388 . S
C937 C936 1.366 . S
C937 C941 1.385 . S
C938 H919 0.951 . S
C938 C936 1.388 . S
C938 C939 1.366 . S
C939 C938 1.366 . S
C939 C940 1.414 . S
C939 C942 1.499 . S
C940 H920 0.950 . S
C940 C939 1.414 . S
C940 C941 1.374 . S
C941 H921 0.950 . S
C941 C937 1.385 . S
C941 C940 1.374 . S
C942 C939 1.499 . S
C942 C943 1.373 . S
C942 C944 1.389 . S
C943 H922 0.950 . S
C943 C942 1.373 . S
C943 C959 1.377 . S
C944 C942 1.389 . S
C944 C945 1.524 . S
C944 C958 1.377 . S
C945 C944 1.524 . S
C945 C946 1.397 . S
C945 C950 1.363 . S
C946 H923 0.950 . S
C946 C945 1.397 . S
C946 C947 1.334 . S
C947 H924 0.950 . S
C947 C946 1.334 . S
C947 C948 1.287 . S
C948 C947 1.287 . S
C948 C949 1.524 . S
C948 H967 0.913 . S
C949 H925 0.950 . S
C949 C948 1.524 . S
C949 C950 1.415 . S
C950 H926 0.950 . S
C950 C945 1.363 . S
C950 C949 1.415 . S
C951 H927 0.951 . S
C951 C952 1.366 . S
C951 C953 1.388 . S
C952 C951 1.366 . S
C952 C956 1.385 . S
C953 H928 0.951 . S
C953 C951 1.388 . S
C953 C954 1.366 . S
C954 C953 1.366 . S
C954 C955 1.414 . S
C954 C957 1.499 . S
C955 H929 0.950 . S
C955 C954 1.414 . S
C955 C956 1.374 . S
C956 H930 0.950 . S
C956 C952 1.385 . S
C956 C955 1.374 . S
C957 C954 1.499 . S
C957 C958 1.373 . S
C957 C959 1.389 . S
C958 H931 0.950 . S
C958 C944 1.377 . S
C958 C957 1.373 . S
C959 C943 1.377 . S
C959 C957 1.389 . S
C959 C960 1.524 . S
C960 C959 1.524 . S
C960 C961 1.397 . S
C960 C965 1.363 . S
C961 H932 0.950 . S
C961 C960 1.397 . S
C961 C962 1.334 . S
C962 H933 0.950 . S
C962 C961 1.334 . S
C962 C963 1.287 . S
C963 C962 1.287 . S
C963 C964 1.524 . S
C963 H966 0.999 . S
C964 H934 0.950 . S
C964 C963 1.524 . S
C964 C965 1.415 . S
C965 H935 0.950 . S
C965 C960 1.363 . S
C965 C964 1.415 . S
H966 C963 0.999 . S
H967 C948 0.913 . S
H968 C986 0.951 . S
H969 C988 0.951 . S
H970 C990 0.950 . S
H971 C991 0.950 . S
H972 C993 0.950 . S
H973 C996 0.950 . S
H974 C997 0.950 . S
H975 C999 0.950 . S
H976 C1000 0.950 . S
H977 C1001 0.951 . S
H978 C1003 0.951 . S
H979 C1005 0.950 . S
H980 C1006 0.950 . S
H981 C1008 0.950 . S
H982 C1011 0.950 . S
H983 C1012 0.950 . S
H984 C1014 0.950 . S
H985 C1015 0.950 . S
C986 H968 0.951 . S
C986 C987 1.366 . S
C986 C988 1.388 . S
C987 C986 1.366 . S
C987 C991 1.385 . S
C988 H969 0.951 . S
C988 C986 1.388 . S
C988 C989 1.366 . S
C989 C988 1.366 . S
C989 C990 1.414 . S
C989 C992 1.499 . S
C990 H970 0.950 . S
C990 C989 1.414 . S
C990 C991 1.374 . S
C991 H971 0.950 . S
C991 C987 1.385 . S
C991 C990 1.374 . S
C992 C989 1.499 . S
C992 C993 1.373 . S
C992 C994 1.389 . S
C993 H972 0.950 . S
C993 C992 1.373 . S
C993 C1009 1.377 . S
C994 C992 1.389 . S
C994 C995 1.524 . S
C994 C1008 1.377 . S
C995 C994 1.524 . S
C995 C996 1.397 . S
C995 C1000 1.363 . S
C996 H973 0.950 . S
C996 C995 1.397 . S
C996 C997 1.334 . S
C997 H974 0.950 . S
C997 C996 1.334 . S
C997 C998 1.287 . S
C998 C997 1.287 . S
C998 C999 1.524 . S
C998 H1017 0.913 . S
C999 H975 0.950 . S
C999 C998 1.524 . S
C999 C1000 1.415 . S
C1000 H976 0.950 . S
C1000 C995 1.363 . S
C1000 C999 1.415 . S
C1001 H977 0.951 . S
C1001 C1002 1.366 . S
C1001 C1003 1.388 . S
C1002 C1001 1.366 . S
C1002 C1006 1.385 . S
C1003 H978 0.951 . S
C1003 C1001 1.388 . S
C1003 C1004 1.366 . S
C1004 C1003 1.366 . S
C1004 C1005 1.414 . S
C1004 C1007 1.499 . S
C1005 H979 0.950 . S
C1005 C1004 1.414 . S
C1005 C1006 1.374 . S
C1006 H980 0.950 . S
C1006 C1002 1.385 . S
C1006 C1005 1.374 . S
C1007 C1004 1.499 . S
C1007 C1008 1.373 . S
C1007 C1009 1.389 . S
C1008 H981 0.950 . S
C1008 C994 1.377 . S
C1008 C1007 1.373 . S
C1009 C993 1.377 . S
C1009 C1007 1.389 . S
C1009 C1010 1.524 . S
C1010 C1009 1.524 . S
C1010 C1011 1.397 . S
C1010 C1015 1.363 . S
C1011 H982 0.950 . S
C1011 C1010 1.397 . S
C1011 C1012 1.334 . S
C1012 H983 0.950 . S
C1012 C1011 1.334 . S
C1012 C1013 1.287 . S
C1013 C1012 1.287 . S
C1013 C1014 1.524 . S
C1013 H1016 0.999 . S
C1014 H984 0.950 . S
C1014 C1013 1.524 . S
C1014 C1015 1.415 . S
C1015 H985 0.950 . S
C1015 C1010 1.363 . S
C1015 C1014 1.415 . S
H1016 C1013 0.999 . S
H1017 C998 0.913 . S
H1018 C1036 0.951 . S
H1019 C1038 0.951 . S
H1020 C1040 0.950 . S
H1021 C1041 0.950 . S
H1022 C1043 0.950 . S
H1023 C1046 0.950 . S
H1024 C1047 0.950 . S
H1025 C1049 0.950 . S
H1026 C1050 0.950 . S
H1027 C1051 0.951 . S
H1028 C1053 0.951 . S
H1029 C1055 0.950 . S
H1030 C1056 0.950 . S
H1031 C1058 0.950 . S
H1032 C1061 0.950 . S
H1033 C1062 0.950 . S
H1034 C1064 0.950 . S
H1035 C1065 0.950 . S
C1036 H1018 0.951 . S
C1036 C1037 1.366 . S
C1036 C1038 1.388 . S
C1037 C1036 1.366 . S
C1037 C1041 1.385 . S
C1038 H1019 0.951 . S
C1038 C1036 1.388 . S
C1038 C1039 1.366 . S
C1039 C1038 1.366 . S
C1039 C1040 1.414 . S
C1039 C1042 1.499 . S
C1040 H1020 0.950 . S
C1040 C1039 1.414 . S
C1040 C1041 1.374 . S
C1041 H1021 0.950 . S
C1041 C1037 1.385 . S
C1041 C1040 1.374 . S
C1042 C1039 1.499 . S
C1042 C1043 1.373 . S
C1042 C1044 1.389 . S
C1043 H1022 0.950 . S
C1043 C1042 1.373 . S
C1043 C1059 1.377 . S
C1044 C1042 1.389 . S
C1044 C1045 1.524 . S
C1044 C1058 1.377 . S
C1045 C1044 1.524 . S
C1045 C1046 1.397 . S
C1045 C1050 1.363 . S
C1046 H1023 0.950 . S
C1046 C1045 1.397 . S
C1046 C1047 1.334 . S
C1047 H1024 0.950 . S
C1047 C1046 1.334 . S
C1047 C1048 1.287 . S
C1048 C1047 1.287 . S
C1048 C1049 1.524 . S
C1048 H1067 0.913 . S
C1049 H1025 0.950 . S
C1049 C1048 1.524 . S
C1049 C1050 1.415 . S
C1050 H1026 0.950 . S
C1050 C1045 1.363 . S
C1050 C1049 1.415 . S
C1051 H1027 0.951 . S
C1051 C1052 1.366 . S
C1051 C1053 1.388 . S
C1052 C1051 1.366 . S
C1052 C1056 1.385 . S
C1053 H1028 0.951 . S
C1053 C1051 1.388 . S
C1053 C1054 1.366 . S
C1054 C1053 1.366 . S
C1054 C1055 1.414 . S
C1054 C1057 1.499 . S
C1055 H1029 0.950 . S
C1055 C1054 1.414 . S
C1055 C1056 1.374 . S
C1056 H1030 0.950 . S
C1056 C1052 1.385 . S
C1056 C1055 1.374 . S
C1057 C1054 1.499 . S
C1057 C1058 1.373 . S
C1057 C1059 1.389 . S
C1058 H1031 0.950 . S
C1058 C1044 1.377 . S
C1058 C1057 1.373 . S
C1059 C1043 1.377 . S
C1059 C1057 1.389 . S
C1059 C1060 1.524 . S
C1060 C1059 1.524 . S
C1060 C1061 1.397 . S
C1060 C1065 1.363 . S
C1061 H1032 0.950 . S
C1061 C1060 1.397 . S
C1061 C1062 1.334 . S
C1062 H1033 0.950 . S
C1062 C1061 1.334 . S
C1062 C1063 1.287 . S
C1063 C1062 1.287 . S
C1063 C1064 1.524 . S
C1063 H1066 0.999 . S
C1064 H1034 0.950 . S
C1064 C1063 1.524 . S
C1064 C1065 1.415 . S
C1065 H1035 0.950 . S
C1065 C1060 1.363 . S
C1065 C1064 1.415 . S
H1066 C1063 0.999 . S
H1067 C1048 0.913 . S
H1068 C1086 0.951 . S
H1069 C1088 0.951 . S
H1070 C1090 0.950 . S
H1071 C1091 0.950 . S
H1072 C1093 0.950 . S
H1073 C1096 0.950 . S
H1074 C1097 0.950 . S
H1075 C1099 0.950 . S
H1076 C1100 0.950 . S
H1077 C1101 0.951 . S
H1078 C1103 0.951 . S
H1079 C1105 0.950 . S
H1080 C1106 0.950 . S
H1081 C1108 0.950 . S
H1082 C1111 0.950 . S
H1083 C1112 0.950 . S
H1084 C1114 0.950 . S
H1085 C1115 0.950 . S
C1086 H1068 0.951 . S
C1086 C1087 1.366 . S
C1086 C1088 1.388 . S
C1087 C1086 1.366 . S
C1087 C1091 1.385 . S
C1088 H1069 0.951 . S
C1088 C1086 1.388 . S
C1088 C1089 1.366 . S
C1089 C1088 1.366 . S
C1089 C1090 1.414 . S
C1089 C1092 1.499 . S
C1090 H1070 0.950 . S
C1090 C1089 1.414 . S
C1090 C1091 1.374 . S
C1091 H1071 0.950 . S
C1091 C1087 1.385 . S
C1091 C1090 1.374 . S
C1092 C1089 1.499 . S
C1092 C1093 1.373 . S
C1092 C1094 1.389 . S
C1093 H1072 0.950 . S
C1093 C1092 1.373 . S
C1093 C1109 1.377 . S
C1094 C1092 1.389 . S
C1094 C1095 1.524 . S
C1094 C1108 1.377 . S
C1095 C1094 1.524 . S
C1095 C1096 1.397 . S
C1095 C1100 1.363 . S
C1096 H1073 0.950 . S
C1096 C1095 1.397 . S
C1096 C1097 1.334 . S
C1097 H1074 0.950 . S
C1097 C1096 1.334 . S
C1097 C1098 1.287 . S
C1098 C1097 1.287 . S
C1098 C1099 1.524 . S
C1098 H1117 0.913 . S
C1099 H1075 0.950 . S
C1099 C1098 1.524 . S
C1099 C1100 1.415 . S
C1100 H1076 0.950 . S
C1100 C1095 1.363 . S
C1100 C1099 1.415 . S
C1101 H1077 0.951 . S
C1101 C1102 1.366 . S
C1101 C1103 1.388 . S
C1102 C1101 1.366 . S
C1102 C1106 1.385 . S
C1103 H1078 0.951 . S
C1103 C1101 1.388 . S
C1103 C1104 1.366 . S
C1104 C1103 1.366 . S
C1104 C1105 1.414 . S
C1104 C1107 1.499 . S
C1105 H1079 0.950 . S
C1105 C1104 1.414 . S
C1105 C1106 1.374 . S
C1106 H1080 0.950 . S
C1106 C1102 1.385 . S
C1106 C1105 1.374 . S
C1107 C1104 1.499 . S
C1107 C1108 1.373 . S
C1107 C1109 1.389 . S
C1108 H1081 0.950 . S
C1108 C1094 1.377 . S
C1108 C1107 1.373 . S
C1109 C1093 1.377 . S
C1109 C1107 1.389 . S
C1109 C1110 1.524 . S
C1110 C1109 1.524 . S
C1110 C1111 1.397 . S
C1110 C1115 1.363 . S
C1111 H1082 0.950 . S
C1111 C1110 1.397 . S
C1111 C1112 1.334 . S
C1112 H1083 0.950 . S
C1112 C1111 1.334 . S
C1112 C1113 1.287 . S
C1113 C1112 1.287 . S
C1113 C1114 1.524 . S
C1113 H1116 0.999 . S
C1114 H1084 0.950 . S
C1114 C1113 1.524 . S
C1114 C1115 1.415 . S
C1115 H1085 0.950 . S
C1115 C1110 1.363 . S
C1115 C1114 1.415 . S
H1116 C1113 0.999 . S
H1117 C1098 0.913 . S
H1118 C1136 0.951 . S
H1119 C1138 0.951 . S
H1120 C1140 0.950 . S
H1121 C1141 0.950 . S
H1122 C1143 0.950 . S
H1123 C1146 0.950 . S
H1124 C1147 0.950 . S
H1125 C1149 0.950 . S
H1126 C1150 0.950 . S
H1127 C1151 0.951 . S
H1128 C1153 0.951 . S
H1129 C1155 0.950 . S
H1130 C1156 0.950 . S
H1131 C1158 0.950 . S
H1132 C1161 0.950 . S
H1133 C1162 0.950 . S
H1134 C1164 0.950 . S
H1135 C1165 0.950 . S
C1136 H1118 0.951 . S
C1136 C1137 1.366 . S
C1136 C1138 1.388 . S
C1137 C1136 1.366 . S
C1137 C1141 1.385 . S
C1138 H1119 0.951 . S
C1138 C1136 1.388 . S
C1138 C1139 1.366 . S
C1139 C1138 1.366 . S
C1139 C1140 1.414 . S
C1139 C1142 1.499 . S
C1140 H1120 0.950 . S
C1140 C1139 1.414 . S
C1140 C1141 1.374 . S
C1141 H1121 0.950 . S
C1141 C1137 1.385 . S
C1141 C1140 1.374 . S
C1142 C1139 1.499 . S
C1142 C1143 1.373 . S
C1142 C1144 1.389 . S
C1143 H1122 0.950 . S
C1143 C1142 1.373 . S
C1143 C1159 1.377 . S
C1144 C1142 1.389 . S
C1144 C1145 1.524 . S
C1144 C1158 1.377 . S
C1145 C1144 1.524 . S
C1145 C1146 1.397 . S
C1145 C1150 1.363 . S
C1146 H1123 0.950 . S
C1146 C1145 1.397 . S
C1146 C1147 1.334 . S
C1147 H1124 0.950 . S
C1147 C1146 1.334 . S
C1147 C1148 1.287 . S
C1148 C1147 1.287 . S
C1148 C1149 1.524 . S
C1148 H1167 0.913 . S
C1149 H1125 0.950 . S
C1149 C1148 1.524 . S
C1149 C1150 1.415 . S
C1150 H1126 0.950 . S
C1150 C1145 1.363 . S
C1150 C1149 1.415 . S
C1151 H1127 0.951 . S
C1151 C1152 1.366 . S
C1151 C1153 1.388 . S
C1152 C1151 1.366 . S
C1152 C1156 1.385 . S
C1153 H1128 0.951 . S
C1153 C1151 1.388 . S
C1153 C1154 1.366 . S
C1154 C1153 1.366 . S
C1154 C1155 1.414 . S
C1154 C1157 1.499 . S
C1155 H1129 0.950 . S
C1155 C1154 1.414 . S
C1155 C1156 1.374 . S
C1156 H1130 0.950 . S
C1156 C1152 1.385 . S
C1156 C1155 1.374 . S
C1157 C1154 1.499 . S
C1157 C1158 1.373 . S
C1157 C1159 1.389 . S
C1158 H1131 0.950 . S
C1158 C1144 1.377 . S
C1158 C1157 1.373 . S
C1159 C1143 1.377 . S
C1159 C1157 1.389 . S
C1159 C1160 1.524 . S
C1160 C1159 1.524 . S
C1160 C1161 1.397 . S
C1160 C1165 1.363 . S
C1161 H1132 0.950 . S
C1161 C1160 1.397 . S
C1161 C1162 1.334 . S
C1162 H1133 0.950 . S
C1162 C1161 1.334 . S
C1162 C1163 1.287 . S
C1163 C1162 1.287 . S
C1163 C1164 1.524 . S
C1163 H1166 0.999 . S
C1164 H1134 0.950 . S
C1164 C1163 1.524 . S
C1164 C1165 1.415 . S
C1165 H1135 0.950 . S
C1165 C1160 1.363 . S
C1165 C1164 1.415 . S
H1166 C1163 0.999 . S
H1167 C1148 0.913 . S
H1168 C1186 0.951 . S
H1169 C1188 0.951 . S
H1170 C1190 0.950 . S
H1171 C1191 0.950 . S
H1172 C1193 0.950 . S
H1173 C1196 0.950 . S
H1174 C1197 0.950 . S
H1175 C1199 0.950 . S
H1176 C1200 0.950 . S
H1177 C1201 0.951 . S
H1178 C1203 0.951 . S
H1179 C1205 0.950 . S
H1180 C1206 0.950 . S
H1181 C1208 0.950 . S
H1182 C1211 0.950 . S
H1183 C1212 0.950 . S
H1184 C1214 0.950 . S
H1185 C1215 0.950 . S
C1186 H1168 0.951 . S
C1186 C1187 1.366 . S
C1186 C1188 1.388 . S
C1187 C1186 1.366 . S
C1187 C1191 1.385 . S
C1188 H1169 0.951 . S
C1188 C1186 1.388 . S
C1188 C1189 1.366 . S
C1189 C1188 1.366 . S
C1189 C1190 1.414 . S
C1189 C1192 1.499 . S
C1190 H1170 0.950 . S
C1190 C1189 1.414 . S
C1190 C1191 1.374 . S
C1191 H1171 0.950 . S
C1191 C1187 1.385 . S
C1191 C1190 1.374 . S
C1192 C1189 1.499 . S
C1192 C1193 1.373 . S
C1192 C1194 1.389 . S
C1193 H1172 0.950 . S
C1193 C1192 1.373 . S
C1193 C1209 1.377 . S
C1194 C1192 1.389 . S
C1194 C1195 1.524 . S
C1194 C1208 1.377 . S
C1195 C1194 1.524 . S
C1195 C1196 1.397 . S
C1195 C1200 1.363 . S
C1196 H1173 0.950 . S
C1196 C1195 1.397 . S
C1196 C1197 1.334 . S
C1197 H1174 0.950 . S
C1197 C1196 1.334 . S
C1197 C1198 1.287 . S
C1198 C1197 1.287 . S
C1198 C1199 1.524 . S
C1198 H1217 0.913 . S
C1199 H1175 0.950 . S
C1199 C1198 1.524 . S
C1199 C1200 1.415 . S
C1200 H1176 0.950 . S
C1200 C1195 1.363 . S
C1200 C1199 1.415 . S
C1201 H1177 0.951 . S
C1201 C1202 1.366 . S
C1201 C1203 1.388 . S
C1202 C1201 1.366 . S
C1202 C1206 1.385 . S
C1203 H1178 0.951 . S
C1203 C1201 1.388 . S
C1203 C1204 1.366 . S
C1204 C1203 1.366 . S
C1204 C1205 1.414 . S
C1204 C1207 1.499 . S
C1205 H1179 0.950 . S
C1205 C1204 1.414 . S
C1205 C1206 1.374 . S
C1206 H1180 0.950 . S
C1206 C1202 1.385 . S
C1206 C1205 1.374 . S
C1207 C1204 1.499 . S
C1207 C1208 1.373 . S
C1207 C1209 1.389 . S
C1208 H1181 0.950 . S
C1208 C1194 1.377 . S
C1208 C1207 1.373 . S
C1209 C1193 1.377 . S
C1209 C1207 1.389 . S
C1209 C1210 1.524 . S
C1210 C1209 1.524 . S
C1210 C1211 1.397 . S
C1210 C1215 1.363 . S
C1211 H1182 0.950 . S
C1211 C1210 1.397 . S
C1211 C1212 1.334 . S
C1212 H1183 0.950 . S
C1212 C1211 1.334 . S
C1212 C1213 1.287 . S
C1213 C1212 1.287 . S
C1213 C1214 1.524 . S
C1213 H1216 0.999 . S
C1214 H1184 0.950 . S
C1214 C1213 1.524 . S
C1214 C1215 1.415 . S
C1215 H1185 0.950 . S
C1215 C1210 1.363 . S
C1215 C1214 1.415 . S
H1216 C1213 0.999 . S
H1217 C1198 0.913 . S
H1218 C1236 0.951 . S
H1219 C1238 0.951 . S
H1220 C1240 0.950 . S
H1221 C1241 0.950 . S
H1222 C1243 0.950 . S
H1223 C1246 0.950 . S
H1224 C1247 0.950 . S
H1225 C1249 0.950 . S
H1226 C1250 0.950 . S
H1227 C1251 0.951 . S
H1228 C1253 0.951 . S
H1229 C1255 0.950 . S
H1230 C1256 0.950 . S
H1231 C1258 0.950 . S
H1232 C1261 0.950 . S
H1233 C1262 0.950 . S
H1234 C1264 0.950 . S
H1235 C1265 0.950 . S
C1236 H1218 0.951 . S
C1236 C1237 1.366 . S
C1236 C1238 1.388 . S
C1237 C1236 1.366 . S
C1237 C1241 1.385 . S
C1238 H1219 0.951 . S
C1238 C1236 1.388 . S
C1238 C1239 1.366 . S
C1239 C1238 1.366 . S
C1239 C1240 1.414 . S
C1239 C1242 1.499 . S
C1240 H1220 0.950 . S
C1240 C1239 1.414 . S
C1240 C1241 1.374 . S
C1241 H1221 0.950 . S
C1241 C1237 1.385 . S
C1241 C1240 1.374 . S
C1242 C1239 1.499 . S
C1242 C1243 1.373 . S
C1242 C1244 1.389 . S
C1243 H1222 0.950 . S
C1243 C1242 1.373 . S
C1243 C1259 1.377 . S
C1244 C1242 1.389 . S
C1244 C1245 1.524 . S
C1244 C1258 1.377 . S
C1245 C1244 1.524 . S
C1245 C1246 1.397 . S
C1245 C1250 1.363 . S
C1246 H1223 0.950 . S
C1246 C1245 1.397 . S
C1246 C1247 1.334 . S
C1247 H1224 0.950 . S
C1247 C1246 1.334 . S
C1247 C1248 1.287 . S
C1248 C1247 1.287 . S
C1248 C1249 1.524 . S
C1248 H1267 0.913 . S
C1249 H1225 0.950 . S
C1249 C1248 1.524 . S
C1249 C1250 1.415 . S
C1250 H1226 0.950 . S
C1250 C1245 1.363 . S
C1250 C1249 1.415 . S
C1251 H1227 0.951 . S
C1251 C1252 1.366 . S
C1251 C1253 1.388 1_554 S
C1252 C1251 1.366 . S
C1252 C1256 1.385 . S
C1253 H1228 0.951 . S
C1253 C1251 1.388 1_556 S
C1253 C1254 1.366 . S
C1254 C1253 1.366 . S
C1254 C1255 1.414 . S
C1254 C1257 1.499 . S
C1255 H1229 0.950 . S
C1255 C1254 1.414 . S
C1255 C1256 1.374 1_556 S
C1256 H1230 0.950 . S
C1256 C1252 1.385 . S
C1256 C1255 1.374 1_554 S
C1257 C1254 1.499 . S
C1257 C1258 1.373 . S
C1257 C1259 1.389 . S
C1258 H1231 0.950 . S
C1258 C1244 1.377 . S
C1258 C1257 1.373 . S
C1259 C1243 1.377 . S
C1259 C1257 1.389 . S
C1259 C1260 1.524 . S
C1260 C1259 1.524 . S
C1260 C1261 1.397 . S
C1260 C1265 1.363 . S
C1261 H1232 0.950 . S
C1261 C1260 1.397 . S
C1261 C1262 1.334 . S
C1262 H1233 0.950 . S
C1262 C1261 1.334 . S
C1262 C1263 1.287 . S
C1263 C1262 1.287 . S
C1263 C1264 1.524 . S
C1263 H1266 0.999 . S
C1264 H1234 0.950 . S
C1264 C1263 1.524 . S
C1264 C1265 1.415 . S
C1265 H1235 0.950 . S
C1265 C1260 1.363 . S
C1265 C1264 1.415 . S
H1266 C1263 0.999 . S
H1267 C1248 0.913 . S
H1268 C1286 0.951 . S
H1269 C1288 0.951 . S
H1270 C1290 0.950 . S
H1271 C1291 0.950 . S
H1272 C1293 0.950 . S
H1273 C1296 0.950 . S
H1274 C1297 0.950 . S
H1275 C1299 0.950 . S
H1276 C1300 0.950 . S
H1277 C1301 0.951 . S
H1278 C1303 0.951 . S
H1279 C1305 0.950 . S
H1280 C1306 0.950 . S
H1281 C1308 0.950 . S
H1282 C1311 0.950 . S
H1283 C1312 0.950 . S
H1284 C1314 0.950 . S
H1285 C1315 0.950 . S
C1286 H1268 0.951 . S
C1286 C1287 1.366 . S
C1286 C1288 1.388 . S
C1287 C1286 1.366 . S
C1287 C1291 1.385 . S
C1288 H1269 0.951 . S
C1288 C1286 1.388 . S
C1288 C1289 1.366 . S
C1289 C1288 1.366 . S
C1289 C1290 1.414 . S
C1289 C1292 1.499 . S
C1290 H1270 0.950 . S
C1290 C1289 1.414 . S
C1290 C1291 1.374 . S
C1291 H1271 0.950 . S
C1291 C1287 1.385 . S
C1291 C1290 1.374 . S
C1292 C1289 1.499 . S
C1292 C1293 1.373 . S
C1292 C1294 1.389 . S
C1293 H1272 0.950 . S
C1293 C1292 1.373 . S
C1293 C1309 1.377 . S
C1294 C1292 1.389 . S
C1294 C1295 1.524 . S
C1294 C1308 1.377 . S
C1295 C1294 1.524 . S
C1295 C1296 1.397 . S
C1295 C1300 1.363 . S
C1296 H1273 0.950 . S
C1296 C1295 1.397 . S
C1296 C1297 1.334 . S
C1297 H1274 0.950 . S
C1297 C1296 1.334 . S
C1297 C1298 1.287 . S
C1298 C1297 1.287 . S
C1298 C1299 1.524 . S
C1298 H1317 0.913 . S
C1299 H1275 0.950 . S
C1299 C1298 1.524 . S
C1299 C1300 1.415 . S
C1300 H1276 0.950 . S
C1300 C1295 1.363 . S
C1300 C1299 1.415 . S
C1301 H1277 0.951 . S
C1301 C1302 1.366 . S
C1301 C1303 1.388 1_554 S
C1302 C1301 1.366 . S
C1302 C1306 1.385 . S
C1303 H1278 0.951 . S
C1303 C1301 1.388 1_556 S
C1303 C1304 1.366 . S
C1304 C1303 1.366 . S
C1304 C1305 1.414 . S
C1304 C1307 1.499 . S
C1305 H1279 0.950 . S
C1305 C1304 1.414 . S
C1305 C1306 1.374 1_556 S
C1306 H1280 0.950 . S
C1306 C1302 1.385 . S
C1306 C1305 1.374 1_554 S
C1307 C1304 1.499 . S
C1307 C1308 1.373 . S
C1307 C1309 1.389 . S
C1308 H1281 0.950 . S
C1308 C1294 1.377 . S
C1308 C1307 1.373 . S
C1309 C1293 1.377 . S
C1309 C1307 1.389 . S
C1309 C1310 1.524 . S
C1310 C1309 1.524 . S
C1310 C1311 1.397 . S
C1310 C1315 1.363 . S
C1311 H1282 0.950 . S
C1311 C1310 1.397 . S
C1311 C1312 1.334 . S
C1312 H1283 0.950 . S
C1312 C1311 1.334 . S
C1312 C1313 1.287 . S
C1313 C1312 1.287 . S
C1313 C1314 1.524 . S
C1313 H1316 0.999 . S
C1314 H1284 0.950 . S
C1314 C1313 1.524 . S
C1314 C1315 1.415 . S
C1315 H1285 0.950 . S
C1315 C1310 1.363 . S
C1315 C1314 1.415 . S
H1316 C1313 0.999 . S
H1317 C1298 0.913 . S
H1318 C1336 0.951 . S
H1319 C1338 0.951 . S
H1320 C1340 0.950 . S
H1321 C1341 0.950 . S
H1322 C1343 0.950 . S
H1323 C1346 0.950 . S
H1324 C1347 0.950 . S
H1325 C1349 0.950 . S
H1326 C1350 0.950 . S
H1327 C1351 0.951 . S
H1328 C1353 0.951 . S
H1329 C1355 0.950 . S
H1330 C1356 0.950 . S
H1331 C1358 0.950 . S
H1332 C1361 0.950 . S
H1333 C1362 0.950 . S
H1334 C1364 0.950 . S
H1335 C1365 0.950 . S
C1336 H1318 0.951 . S
C1336 C1337 1.366 . S
C1336 C1338 1.388 . S
C1337 C1336 1.366 . S
C1337 C1341 1.385 . S
C1338 H1319 0.951 . S
C1338 C1336 1.388 . S
C1338 C1339 1.366 . S
C1339 C1338 1.366 . S
C1339 C1340 1.414 . S
C1339 C1342 1.499 . S
C1340 H1320 0.950 . S
C1340 C1339 1.414 . S
C1340 C1341 1.374 . S
C1341 H1321 0.950 . S
C1341 C1337 1.385 . S
C1341 C1340 1.374 . S
C1342 C1339 1.499 . S
C1342 C1343 1.373 . S
C1342 C1344 1.389 . S
C1343 H1322 0.950 . S
C1343 C1342 1.373 . S
C1343 C1359 1.377 . S
C1344 C1342 1.389 . S
C1344 C1345 1.524 . S
C1344 C1358 1.377 . S
C1345 C1344 1.524 . S
C1345 C1346 1.397 . S
C1345 C1350 1.363 . S
C1346 H1323 0.950 . S
C1346 C1345 1.397 . S
C1346 C1347 1.334 . S
C1347 H1324 0.950 . S
C1347 C1346 1.334 . S
C1347 C1348 1.287 . S
C1348 C1347 1.287 . S
C1348 C1349 1.524 . S
C1348 H1367 0.913 . S
C1349 H1325 0.950 . S
C1349 C1348 1.524 . S
C1349 C1350 1.415 . S
C1350 H1326 0.950 . S
C1350 C1345 1.363 . S
C1350 C1349 1.415 . S
C1351 H1327 0.951 . S
C1351 C1352 1.366 . S
C1351 C1353 1.388 1_554 S
C1352 C1351 1.366 . S
C1352 C1356 1.385 . S
C1353 H1328 0.951 . S
C1353 C1351 1.388 1_556 S
C1353 C1354 1.366 . S
C1354 C1353 1.366 . S
C1354 C1355 1.414 . S
C1354 C1357 1.499 . S
C1355 H1329 0.950 . S
C1355 C1354 1.414 . S
C1355 C1356 1.374 1_556 S
C1356 H1330 0.950 . S
C1356 C1352 1.385 . S
C1356 C1355 1.374 1_554 S
C1357 C1354 1.499 . S
C1357 C1358 1.373 . S
C1357 C1359 1.389 . S
C1358 H1331 0.950 . S
C1358 C1344 1.377 . S
C1358 C1357 1.373 . S
C1359 C1343 1.377 . S
C1359 C1357 1.389 . S
C1359 C1360 1.524 . S
C1360 C1359 1.524 . S
C1360 C1361 1.397 . S
C1360 C1365 1.363 . S
C1361 H1332 0.950 . S
C1361 C1360 1.397 . S
C1361 C1362 1.334 . S
C1362 H1333 0.950 . S
C1362 C1361 1.334 . S
C1362 C1363 1.287 . S
C1363 C1362 1.287 . S
C1363 C1364 1.524 . S
C1363 H1366 0.999 . S
C1364 H1334 0.950 . S
C1364 C1363 1.524 . S
C1364 C1365 1.415 . S
C1365 H1335 0.950 . S
C1365 C1360 1.363 . S
C1365 C1364 1.415 . S
H1366 C1363 0.999 . S
H1367 C1348 0.913 . S
H1368 C1386 0.951 . S
H1369 C1388 0.951 . S
H1370 C1390 0.950 . S
H1371 C1391 0.950 . S
H1372 C1393 0.950 . S
H1373 C1396 0.950 . S
H1374 C1397 0.950 . S
H1375 C1399 0.950 . S
H1376 C1400 0.950 . S
H1377 C1401 0.951 . S
H1378 C1403 0.951 . S
H1379 C1405 0.950 . S
H1380 C1406 0.950 . S
H1381 C1408 0.950 . S
H1382 C1411 0.950 . S
H1383 C1412 0.950 . S
H1384 C1414 0.950 . S
H1385 C1415 0.950 . S
C1386 H1368 0.951 . S
C1386 C1387 1.366 . S
C1386 C1388 1.388 . S
C1387 C1386 1.366 . S
C1387 C1391 1.385 . S
C1388 H1369 0.951 . S
C1388 C1386 1.388 . S
C1388 C1389 1.366 . S
C1389 C1388 1.366 . S
C1389 C1390 1.414 . S
C1389 C1392 1.499 . S
C1390 H1370 0.950 . S
C1390 C1389 1.414 . S
C1390 C1391 1.374 . S
C1391 H1371 0.950 . S
C1391 C1387 1.385 . S
C1391 C1390 1.374 . S
C1392 C1389 1.499 . S
C1392 C1393 1.373 . S
C1392 C1394 1.389 . S
C1393 H1372 0.950 . S
C1393 C1392 1.373 . S
C1393 C1409 1.377 . S
C1394 C1392 1.389 . S
C1394 C1395 1.524 . S
C1394 C1408 1.377 . S
C1395 C1394 1.524 . S
C1395 C1396 1.397 . S
C1395 C1400 1.363 . S
C1396 H1373 0.950 . S
C1396 C1395 1.397 . S
C1396 C1397 1.334 . S
C1397 H1374 0.950 . S
C1397 C1396 1.334 . S
C1397 C1398 1.287 . S
C1398 C1397 1.287 . S
C1398 C1399 1.524 . S
C1398 H1417 0.913 . S
C1399 H1375 0.950 . S
C1399 C1398 1.524 . S
C1399 C1400 1.415 . S
C1400 H1376 0.950 . S
C1400 C1395 1.363 . S
C1400 C1399 1.415 . S
C1401 H1377 0.951 . S
C1401 C1402 1.366 . S
C1401 C1403 1.388 . S
C1402 C1401 1.366 . S
C1402 C1406 1.385 . S
C1403 H1378 0.951 . S
C1403 C1401 1.388 . S
C1403 C1404 1.366 . S
C1404 C1403 1.366 . S
C1404 C1405 1.414 . S
C1404 C1407 1.499 . S
C1405 H1379 0.950 . S
C1405 C1404 1.414 . S
C1405 C1406 1.374 . S
C1406 H1380 0.950 . S
C1406 C1402 1.385 . S
C1406 C1405 1.374 . S
C1407 C1404 1.499 . S
C1407 C1408 1.373 . S
C1407 C1409 1.389 . S
C1408 H1381 0.950 . S
C1408 C1394 1.377 . S
C1408 C1407 1.373 . S
C1409 C1393 1.377 . S
C1409 C1407 1.389 . S
C1409 C1410 1.524 . S
C1410 C1409 1.524 . S
C1410 C1411 1.397 . S
C1410 C1415 1.363 . S
C1411 H1382 0.950 . S
C1411 C1410 1.397 . S
C1411 C1412 1.334 . S
C1412 H1383 0.950 . S
C1412 C1411 1.334 . S
C1412 C1413 1.287 . S
C1413 C1412 1.287 . S
C1413 C1414 1.524 . S
C1413 H1416 0.999 . S
C1414 H1384 0.950 . S
C1414 C1413 1.524 . S
C1414 C1415 1.415 . S
C1415 H1385 0.950 . S
C1415 C1410 1.363 . S
C1415 C1414 1.415 . S
H1416 C1413 0.999 . S
H1417 C1398 0.913 . S
H1418 C1436 0.951 . S
H1419 C1438 0.951 . S
H1420 C1440 0.950 . S
H1421 C1441 0.950 . S
H1422 C1443 0.950 . S
H1423 C1446 0.950 . S
H1424 C1447 0.950 . S
H1425 C1449 0.950 . S
H1426 C1450 0.950 . S
H1427 C1451 0.951 . S
H1428 C1453 0.951 . S
H1429 C1455 0.950 . S
H1430 C1456 0.950 . S
H1431 C1458 0.950 . S
H1432 C1461 0.950 . S
H1433 C1462 0.950 . S
H1434 C1464 0.950 . S
H1435 C1465 0.950 . S
C1436 H1418 0.951 . S
C1436 C1437 1.366 . S
C1436 C1438 1.388 . S
C1437 C1436 1.366 . S
C1437 C1441 1.385 . S
C1438 H1419 0.951 . S
C1438 C1436 1.388 . S
C1438 C1439 1.366 . S
C1439 C1438 1.366 . S
C1439 C1440 1.414 . S
C1439 C1442 1.499 . S
C1440 H1420 0.950 . S
C1440 C1439 1.414 . S
C1440 C1441 1.374 . S
C1441 H1421 0.950 . S
C1441 C1437 1.385 . S
C1441 C1440 1.374 . S
C1442 C1439 1.499 . S
C1442 C1443 1.373 . S
C1442 C1444 1.389 . S
C1443 H1422 0.950 . S
C1443 C1442 1.373 . S
C1443 C1459 1.377 . S
C1444 C1442 1.389 . S
C1444 C1445 1.524 . S
C1444 C1458 1.377 . S
C1445 C1444 1.524 . S
C1445 C1446 1.397 . S
C1445 C1450 1.363 . S
C1446 H1423 0.950 . S
C1446 C1445 1.397 . S
C1446 C1447 1.334 . S
C1447 H1424 0.950 . S
C1447 C1446 1.334 . S
C1447 C1448 1.287 . S
C1448 C1447 1.287 . S
C1448 C1449 1.524 . S
C1448 H1467 0.913 . S
C1449 H1425 0.950 . S
C1449 C1448 1.524 . S
C1449 C1450 1.415 . S
C1450 H1426 0.950 . S
C1450 C1445 1.363 . S
C1450 C1449 1.415 . S
C1451 H1427 0.951 . S
C1451 C1452 1.366 . S
C1451 C1453 1.388 . S
C1452 C1451 1.366 . S
C1452 C1456 1.385 . S
C1453 H1428 0.951 . S
C1453 C1451 1.388 . S
C1453 C1454 1.366 . S
C1454 C1453 1.366 . S
C1454 C1455 1.414 . S
C1454 C1457 1.499 . S
C1455 H1429 0.950 . S
C1455 C1454 1.414 . S
C1455 C1456 1.374 . S
C1456 H1430 0.950 . S
C1456 C1452 1.385 . S
C1456 C1455 1.374 . S
C1457 C1454 1.499 . S
C1457 C1458 1.373 . S
C1457 C1459 1.389 . S
C1458 H1431 0.950 . S
C1458 C1444 1.377 . S
C1458 C1457 1.373 . S
C1459 C1443 1.377 . S
C1459 C1457 1.389 . S
C1459 C1460 1.524 . S
C1460 C1459 1.524 . S
C1460 C1461 1.397 . S
C1460 C1465 1.363 . S
C1461 H1432 0.950 . S
C1461 C1460 1.397 . S
C1461 C1462 1.334 . S
C1462 H1433 0.950 . S
C1462 C1461 1.334 . S
C1462 C1463 1.287 . S
C1463 C1462 1.287 . S
C1463 C1464 1.524 . S
C1463 H1466 0.999 . S
C1464 H1434 0.950 . S
C1464 C1463 1.524 . S
C1464 C1465 1.415 . S
C1465 H1435 0.950 . S
C1465 C1460 1.363 . S
C1465 C1464 1.415 . S
H1466 C1463 0.999 . S
H1467 C1448 0.913 . S
H1468 C1486 0.951 . S
H1469 C1488 0.951 . S
H1470 C1490 0.950 . S
H1471 C1491 0.950 . S
H1472 C1493 0.950 . S
H1473 C1496 0.950 . S
H1474 C1497 0.950 . S
H1475 C1499 0.950 . S
H1476 C1500 0.950 . S
H1477 C1501 0.951 . S
H1478 C1503 0.951 . S
H1479 C1505 0.950 . S
H1480 C1506 0.950 . S
H1481 C1508 0.950 . S
H1482 C1511 0.950 . S
H1483 C1512 0.950 . S
H1484 C1514 0.950 . S
H1485 C1515 0.950 . S
C1486 H1468 0.951 . S
C1486 C1487 1.366 . S
C1486 C1488 1.388 . S
C1487 C1486 1.366 . S
C1487 C1491 1.385 . S
C1488 H1469 0.951 . S
C1488 C1486 1.388 . S
C1488 C1489 1.366 . S
C1489 C1488 1.366 . S
C1489 C1490 1.414 . S
C1489 C1492 1.499 . S
C1490 H1470 0.950 . S
C1490 C1489 1.414 . S
C1490 C1491 1.374 . S
C1491 H1471 0.950 . S
C1491 C1487 1.385 . S
C1491 C1490 1.374 . S
C1492 C1489 1.499 . S
C1492 C1493 1.373 . S
C1492 C1494 1.389 . S
C1493 H1472 0.950 . S
C1493 C1492 1.373 . S
C1493 C1509 1.377 . S
C1494 C1492 1.389 . S
C1494 C1495 1.524 . S
C1494 C1508 1.377 . S
C1495 C1494 1.524 . S
C1495 C1496 1.397 . S
C1495 C1500 1.363 . S
C1496 H1473 0.950 . S
C1496 C1495 1.397 . S
C1496 C1497 1.334 . S
C1497 H1474 0.950 . S
C1497 C1496 1.334 . S
C1497 C1498 1.287 . S
C1498 C1497 1.287 . S
C1498 C1499 1.524 . S
C1498 H1517 0.913 . S
C1499 H1475 0.950 . S
C1499 C1498 1.524 . S
C1499 C1500 1.415 . S
C1500 H1476 0.950 . S
C1500 C1495 1.363 . S
C1500 C1499 1.415 . S
C1501 H1477 0.951 . S
C1501 C1502 1.366 . S
C1501 C1503 1.388 . S
C1502 C1501 1.366 . S
C1502 C1506 1.385 . S
C1503 H1478 0.951 . S
C1503 C1501 1.388 . S
C1503 C1504 1.366 . S
C1504 C1503 1.366 . S
C1504 C1505 1.414 . S
C1504 C1507 1.499 . S
C1505 H1479 0.950 . S
C1505 C1504 1.414 . S
C1505 C1506 1.374 . S
C1506 H1480 0.950 . S
C1506 C1502 1.385 . S
C1506 C1505 1.374 . S
C1507 C1504 1.499 . S
C1507 C1508 1.373 . S
C1507 C1509 1.389 . S
C1508 H1481 0.950 . S
C1508 C1494 1.377 . S
C1508 C1507 1.373 . S
C1509 C1493 1.377 . S
C1509 C1507 1.389 . S
C1509 C1510 1.524 . S
C1510 C1509 1.524 . S
C1510 C1511 1.397 . S
C1510 C1515 1.363 . S
C1511 H1482 0.950 . S
C1511 C1510 1.397 . S
C1511 C1512 1.334 . S
C1512 H1483 0.950 . S
C1512 C1511 1.334 . S
C1512 C1513 1.287 . S
C1513 C1512 1.287 . S
C1513 C1514 1.524 . S
C1513 H1516 0.999 . S
C1514 H1484 0.950 . S
C1514 C1513 1.524 . S
C1514 C1515 1.415 . S
C1515 H1485 0.950 . S
C1515 C1510 1.363 . S
C1515 C1514 1.415 . S
H1516 C1513 0.999 . S
H1517 C1498 0.913 . S
H1518 C1536 0.951 . S
H1519 C1538 0.951 . S
H1520 C1540 0.950 . S
H1521 C1541 0.950 . S
H1522 C1543 0.950 . S
H1523 C1546 0.950 . S
H1524 C1547 0.950 . S
H1525 C1549 0.950 . S
H1526 C1550 0.950 . S
H1527 C1551 0.951 . S
H1528 C1553 0.951 . S
H1529 C1555 0.950 . S
H1530 C1556 0.950 . S
H1531 C1558 0.950 . S
H1532 C1561 0.950 . S
H1533 C1562 0.950 . S
H1534 C1564 0.950 . S
H1535 C1565 0.950 . S
C1536 H1518 0.951 . S
C1536 C1537 1.366 . S
C1536 C1538 1.388 . S
C1537 C1536 1.366 . S
C1537 C1541 1.385 . S
C1538 H1519 0.951 . S
C1538 C1536 1.388 . S
C1538 C1539 1.366 . S
C1539 C1538 1.366 . S
C1539 C1540 1.414 . S
C1539 C1542 1.499 . S
C1540 H1520 0.950 . S
C1540 C1539 1.414 . S
C1540 C1541 1.374 . S
C1541 H1521 0.950 . S
C1541 C1537 1.385 . S
C1541 C1540 1.374 . S
C1542 C1539 1.499 . S
C1542 C1543 1.373 . S
C1542 C1544 1.389 . S
C1543 H1522 0.950 . S
C1543 C1542 1.373 . S
C1543 C1559 1.377 . S
C1544 C1542 1.389 . S
C1544 C1545 1.524 . S
C1544 C1558 1.377 . S
C1545 C1544 1.524 . S
C1545 C1546 1.397 . S
C1545 C1550 1.363 . S
C1546 H1523 0.950 . S
C1546 C1545 1.397 . S
C1546 C1547 1.334 . S
C1547 H1524 0.950 . S
C1547 C1546 1.334 . S
C1547 C1548 1.287 . S
C1548 C1547 1.287 . S
C1548 C1549 1.524 . S
C1548 H1567 0.913 . S
C1549 H1525 0.950 . S
C1549 C1548 1.524 . S
C1549 C1550 1.415 . S
C1550 H1526 0.950 . S
C1550 C1545 1.363 . S
C1550 C1549 1.415 . S
C1551 H1527 0.951 . S
C1551 C1552 1.366 . S
C1551 C1553 1.388 . S
C1552 C1551 1.366 . S
C1552 C1556 1.385 . S
C1553 H1528 0.951 . S
C1553 C1551 1.388 . S
C1553 C1554 1.366 . S
C1554 C1553 1.366 . S
C1554 C1555 1.414 . S
C1554 C1557 1.499 . S
C1555 H1529 0.950 . S
C1555 C1554 1.414 . S
C1555 C1556 1.374 . S
C1556 H1530 0.950 . S
C1556 C1552 1.385 . S
C1556 C1555 1.374 . S
C1557 C1554 1.499 . S
C1557 C1558 1.373 . S
C1557 C1559 1.389 . S
C1558 H1531 0.950 . S
C1558 C1544 1.377 . S
C1558 C1557 1.373 . S
C1559 C1543 1.377 . S
C1559 C1557 1.389 . S
C1559 C1560 1.524 . S
C1560 C1559 1.524 . S
C1560 C1561 1.397 . S
C1560 C1565 1.363 . S
C1561 H1532 0.950 . S
C1561 C1560 1.397 . S
C1561 C1562 1.334 . S
C1562 H1533 0.950 . S
C1562 C1561 1.334 . S
C1562 C1563 1.287 . S
C1563 C1562 1.287 . S
C1563 C1564 1.524 . S
C1563 H1566 0.999 . S
C1564 H1534 0.950 . S
C1564 C1563 1.524 . S
C1564 C1565 1.415 . S
C1565 H1535 0.950 . S
C1565 C1560 1.363 . S
C1565 C1564 1.415 . S
H1566 C1563 0.999 . S
H1567 C1548 0.913 . S
H1568 C1586 0.951 . S
H1569 C1588 0.951 . S
H1570 C1590 0.950 . S
H1571 C1591 0.950 . S
H1572 C1593 0.950 . S
H1573 C1596 0.950 . S
H1574 C1597 0.950 . S
H1575 C1599 0.950 . S
H1576 C1600 0.950 . S
H1577 C1601 0.951 . S
H1578 C1603 0.951 . S
H1579 C1605 0.950 . S
H1580 C1606 0.950 . S
H1581 C1608 0.950 . S
H1582 C1611 0.950 . S
H1583 C1612 0.950 . S
H1584 C1614 0.950 . S
H1585 C1615 0.950 . S
C1586 H1568 0.951 . S
C1586 C1587 1.366 . S
C1586 C1588 1.388 . S
C1587 C1586 1.366 . S
C1587 C1591 1.385 . S
C1588 H1569 0.951 . S
C1588 C1586 1.388 . S
C1588 C1589 1.366 . S
C1589 C1588 1.366 . S
C1589 C1590 1.414 . S
C1589 C1592 1.499 . S
C1590 H1570 0.950 . S
C1590 C1589 1.414 . S
C1590 C1591 1.374 . S
C1591 H1571 0.950 . S
C1591 C1587 1.385 . S
C1591 C1590 1.374 . S
C1592 C1589 1.499 . S
C1592 C1593 1.373 . S
C1592 C1594 1.389 . S
C1593 H1572 0.950 . S
C1593 C1592 1.373 . S
C1593 C1609 1.377 . S
C1594 C1592 1.389 . S
C1594 C1595 1.524 . S
C1594 C1608 1.377 . S
C1595 C1594 1.524 . S
C1595 C1596 1.397 . S
C1595 C1600 1.363 . S
C1596 H1573 0.950 . S
C1596 C1595 1.397 . S
C1596 C1597 1.334 . S
C1597 H1574 0.950 . S
C1597 C1596 1.334 . S
C1597 C1598 1.287 . S
C1598 C1597 1.287 . S
C1598 C1599 1.524 . S
C1598 H1617 0.913 . S
C1599 H1575 0.950 . S
C1599 C1598 1.524 . S
C1599 C1600 1.415 . S
C1600 H1576 0.950 . S
C1600 C1595 1.363 . S
C1600 C1599 1.415 . S
C1601 H1577 0.951 . S
C1601 C1602 1.366 . S
C1601 C1603 1.388 . S
C1602 C1601 1.366 . S
C1602 C1606 1.385 . S
C1603 H1578 0.951 . S
C1603 C1601 1.388 . S
C1603 C1604 1.366 . S
C1604 C1603 1.366 . S
C1604 C1605 1.414 . S
C1604 C1607 1.499 . S
C1605 H1579 0.950 . S
C1605 C1604 1.414 . S
C1605 C1606 1.374 . S
C1606 H1580 0.950 . S
C1606 C1602 1.385 . S
C1606 C1605 1.374 . S
C1607 C1604 1.499 . S
C1607 C1608 1.373 . S
C1607 C1609 1.389 . S
C1608 H1581 0.950 . S
C1608 C1594 1.377 . S
C1608 C1607 1.373 . S
C1609 C1593 1.377 . S
C1609 C1607 1.389 . S
C1609 C1610 1.524 . S
C1610 C1609 1.524 . S
C1610 C1611 1.397 . S
C1610 C1615 1.363 . S
C1611 H1582 0.950 . S
C1611 C1610 1.397 . S
C1611 C1612 1.334 . S
C1612 H1583 0.950 . S
C1612 C1611 1.334 . S
C1612 C1613 1.287 . S
C1613 C1612 1.287 . S
C1613 C1614 1.524 . S
C1613 H1616 0.999 . S
C1614 H1584 0.950 . S
C1614 C1613 1.524 . S
C1614 C1615 1.415 . S
C1615 H1585 0.950 . S
C1615 C1610 1.363 . S
C1615 C1614 1.415 . S
H1616 C1613 0.999 . S
H1617 C1598 0.913 . S
H1618 C1636 0.951 . S
H1619 C1638 0.951 . S
H1620 C1640 0.950 . S
H1621 C1641 0.950 . S
H1622 C1643 0.950 . S
H1623 C1646 0.950 . S
H1624 C1647 0.950 . S
H1625 C1649 0.950 . S
H1626 C1650 0.950 . S
H1627 C1651 0.951 . S
H1628 C1653 0.951 . S
H1629 C1655 0.950 . S
H1630 C1656 0.950 . S
H1631 C1658 0.950 . S
H1632 C1661 0.950 . S
H1633 C1662 0.950 . S
H1634 C1664 0.950 . S
H1635 C1665 0.950 . S
C1636 H1618 0.951 . S
C1636 C1637 1.366 . S
C1636 C1638 1.388 . S
C1637 C1636 1.366 . S
C1637 C1641 1.385 . S
C1638 H1619 0.951 . S
C1638 C1636 1.388 . S
C1638 C1639 1.366 . S
C1639 C1638 1.366 . S
C1639 C1640 1.414 . S
C1639 C1642 1.499 . S
C1640 H1620 0.950 . S
C1640 C1639 1.414 . S
C1640 C1641 1.374 . S
C1641 H1621 0.950 . S
C1641 C1637 1.385 . S
C1641 C1640 1.374 . S
C1642 C1639 1.499 . S
C1642 C1643 1.373 . S
C1642 C1644 1.389 . S
C1643 H1622 0.950 . S
C1643 C1642 1.373 . S
C1643 C1659 1.377 . S
C1644 C1642 1.389 . S
C1644 C1645 1.524 . S
C1644 C1658 1.377 . S
C1645 C1644 1.524 . S
C1645 C1646 1.397 . S
C1645 C1650 1.363 . S
C1646 H1623 0.950 . S
C1646 C1645 1.397 . S
C1646 C1647 1.334 . S
C1647 H1624 0.950 . S
C1647 C1646 1.334 . S
C1647 C1648 1.287 . S
C1648 C1647 1.287 . S
C1648 C1649 1.524 . S
C1648 H1667 0.913 . S
C1649 H1625 0.950 . S
C1649 C1648 1.524 . S
C1649 C1650 1.415 . S
C1650 H1626 0.950 . S
C1650 C1645 1.363 . S
C1650 C1649 1.415 . S
C1651 H1627 0.951 . S
C1651 C1652 1.366 . S
C1651 C1653 1.388 . S
C1652 C1651 1.366 . S
C1652 C1656 1.385 . S
C1653 H1628 0.951 . S
C1653 C1651 1.388 . S
C1653 C1654 1.366 . S
C1654 C1653 1.366 . S
C1654 C1655 1.414 . S
C1654 C1657 1.499 . S
C1655 H1629 0.950 . S
C1655 C1654 1.414 . S
C1655 C1656 1.374 . S
C1656 H1630 0.950 . S
C1656 C1652 1.385 . S
C1656 C1655 1.374 . S
C1657 C1654 1.499 . S
C1657 C1658 1.373 . S
C1657 C1659 1.389 . S
C1658 H1631 0.950 . S
C1658 C1644 1.377 . S
C1658 C1657 1.373 . S
C1659 C1643 1.377 . S
C1659 C1657 1.389 . S
C1659 C1660 1.524 . S
C1660 C1659 1.524 . S
C1660 C1661 1.397 . S
C1660 C1665 1.363 . S
C1661 H1632 0.950 . S
C1661 C1660 1.397 . S
C1661 C1662 1.334 . S
C1662 H1633 0.950 . S
C1662 C1661 1.334 . S
C1662 C1663 1.287 . S
C1663 C1662 1.287 . S
C1663 C1664 1.524 . S
C1663 H1666 0.999 . S
C1664 H1634 0.950 . S
C1664 C1663 1.524 . S
C1664 C1665 1.415 . S
C1665 H1635 0.950 . S
C1665 C1660 1.363 . S
C1665 C1664 1.415 . S
H1666 C1663 0.999 . S
H1667 C1648 0.913 . S
H1668 C1686 0.951 . S
H1669 C1688 0.951 . S
H1670 C1690 0.950 . S
H1671 C1691 0.950 . S
H1672 C1693 0.950 . S
H1673 C1696 0.950 . S
H1674 C1697 0.950 . S
H1675 C1699 0.950 . S
H1676 C1700 0.950 . S
H1677 C1701 0.951 . S
H1678 C1703 0.951 . S
H1679 C1705 0.950 . S
H1680 C1706 0.950 . S
H1681 C1708 0.950 . S
H1682 C1711 0.950 . S
H1683 C1712 0.950 . S
H1684 C1714 0.950 . S
H1685 C1715 0.950 . S
C1686 H1668 0.951 . S
C1686 C1687 1.366 . S
C1686 C1688 1.388 . S
C1687 C1686 1.366 . S
C1687 C1691 1.385 . S
C1688 H1669 0.951 . S
C1688 C1686 1.388 . S
C1688 C1689 1.366 . S
C1689 C1688 1.366 . S
C1689 C1690 1.414 . S
C1689 C1692 1.499 . S
C1690 H1670 0.950 . S
C1690 C1689 1.414 . S
C1690 C1691 1.374 . S
C1691 H1671 0.950 . S
C1691 C1687 1.385 . S
C1691 C1690 1.374 . S
C1692 C1689 1.499 . S
C1692 C1693 1.373 . S
C1692 C1694 1.389 . S
C1693 H1672 0.950 . S
C1693 C1692 1.373 . S
C1693 C1709 1.377 . S
C1694 C1692 1.389 . S
C1694 C1695 1.524 . S
C1694 C1708 1.377 . S
C1695 C1694 1.524 . S
C1695 C1696 1.397 . S
C1695 C1700 1.363 . S
C1696 H1673 0.950 . S
C1696 C1695 1.397 . S
C1696 C1697 1.334 . S
C1697 H1674 0.950 . S
C1697 C1696 1.334 . S
C1697 C1698 1.287 . S
C1698 C1697 1.287 . S
C1698 C1699 1.524 . S
C1698 H1717 0.913 . S
C1699 H1675 0.950 . S
C1699 C1698 1.524 . S
C1699 C1700 1.415 . S
C1700 H1676 0.950 . S
C1700 C1695 1.363 . S
C1700 C1699 1.415 . S
C1701 H1677 0.951 . S
C1701 C1702 1.366 . S
C1701 C1703 1.388 . S
C1702 C1701 1.366 . S
C1702 C1706 1.385 . S
C1703 H1678 0.951 . S
C1703 C1701 1.388 . S
C1703 C1704 1.366 . S
C1704 C1703 1.366 . S
C1704 C1705 1.414 . S
C1704 C1707 1.499 . S
C1705 H1679 0.950 . S
C1705 C1704 1.414 . S
C1705 C1706 1.374 . S
C1706 H1680 0.950 . S
C1706 C1702 1.385 . S
C1706 C1705 1.374 . S
C1707 C1704 1.499 . S
C1707 C1708 1.373 . S
C1707 C1709 1.389 . S
C1708 H1681 0.950 . S
C1708 C1694 1.377 . S
C1708 C1707 1.373 . S
C1709 C1693 1.377 . S
C1709 C1707 1.389 . S
C1709 C1710 1.524 . S
C1710 C1709 1.524 . S
C1710 C1711 1.397 . S
C1710 C1715 1.363 . S
C1711 H1682 0.950 . S
C1711 C1710 1.397 . S
C1711 C1712 1.334 . S
C1712 H1683 0.950 . S
C1712 C1711 1.334 . S
C1712 C1713 1.287 . S
C1713 C1712 1.287 . S
C1713 C1714 1.524 . S
C1713 H1716 0.999 . S
C1714 H1684 0.950 . S
C1714 C1713 1.524 . S
C1714 C1715 1.415 . S
C1715 H1685 0.950 . S
C1715 C1710 1.363 . S
C1715 C1714 1.415 . S
H1716 C1713 0.999 . S
H1717 C1698 0.913 . S
H1718 C1736 0.951 . S
H1719 C1738 0.951 . S
H1720 C1740 0.950 . S
H1721 C1741 0.950 . S
H1722 C1743 0.950 . S
H1723 C1746 0.950 . S
H1724 C1747 0.950 . S
H1725 C1749 0.950 . S
H1726 C1750 0.950 . S
H1727 C1751 0.951 . S
H1728 C1753 0.951 . S
H1729 C1755 0.950 . S
H1730 C1756 0.950 . S
H1731 C1758 0.950 . S
H1732 C1761 0.950 . S
H1733 C1762 0.950 . S
H1734 C1764 0.950 . S
H1735 C1765 0.950 . S
C1736 H1718 0.951 . S
C1736 C1737 1.366 . S
C1736 C1738 1.388 . S
C1737 C1736 1.366 . S
C1737 C1741 1.385 . S
C1738 H1719 0.951 . S
C1738 C1736 1.388 . S
C1738 C1739 1.366 . S
C1739 C1738 1.366 . S
C1739 C1740 1.414 . S
C1739 C1742 1.499 . S
C1740 H1720 0.950 . S
C1740 C1739 1.414 . S
C1740 C1741 1.374 . S
C1741 H1721 0.950 . S
C1741 C1737 1.385 . S
C1741 C1740 1.374 . S
C1742 C1739 1.499 . S
C1742 C1743 1.373 . S
C1742 C1744 1.389 . S
C1743 H1722 0.950 . S
C1743 C1742 1.373 . S
C1743 C1759 1.377 . S
C1744 C1742 1.389 . S
C1744 C1745 1.524 . S
C1744 C1758 1.377 . S
C1745 C1744 1.524 . S
C1745 C1746 1.397 . S
C1745 C1750 1.363 . S
C1746 H1723 0.950 . S
C1746 C1745 1.397 . S
C1746 C1747 1.334 . S
C1747 H1724 0.950 . S
C1747 C1746 1.334 . S
C1747 C1748 1.287 . S
C1748 C1747 1.287 . S
C1748 C1749 1.524 . S
C1748 H1767 0.913 . S
C1749 H1725 0.950 . S
C1749 C1748 1.524 . S
C1749 C1750 1.415 . S
C1750 H1726 0.950 . S
C1750 C1745 1.363 . S
C1750 C1749 1.415 . S
C1751 H1727 0.951 . S
C1751 C1752 1.366 . S
C1751 C1753 1.388 . S
C1752 C1751 1.366 . S
C1752 C1756 1.385 . S
C1753 H1728 0.951 . S
C1753 C1751 1.388 . S
C1753 C1754 1.366 . S
C1754 C1753 1.366 . S
C1754 C1755 1.414 . S
C1754 C1757 1.499 . S
C1755 H1729 0.950 . S
C1755 C1754 1.414 . S
C1755 C1756 1.374 . S
C1756 H1730 0.950 . S
C1756 C1752 1.385 . S
C1756 C1755 1.374 . S
C1757 C1754 1.499 . S
C1757 C1758 1.373 . S
C1757 C1759 1.389 . S
C1758 H1731 0.950 . S
C1758 C1744 1.377 . S
C1758 C1757 1.373 . S
C1759 C1743 1.377 . S
C1759 C1757 1.389 . S
C1759 C1760 1.524 . S
C1760 C1759 1.524 . S
C1760 C1761 1.397 . S
C1760 C1765 1.363 . S
C1761 H1732 0.950 . S
C1761 C1760 1.397 . S
C1761 C1762 1.334 . S
C1762 H1733 0.950 . S
C1762 C1761 1.334 . S
C1762 C1763 1.287 . S
C1763 C1762 1.287 . S
C1763 C1764 1.524 . S
C1763 H1766 0.999 . S
C1764 H1734 0.950 . S
C1764 C1763 1.524 . S
C1764 C1765 1.415 . S
C1765 H1735 0.950 . S
C1765 C1760 1.363 . S
C1765 C1764 1.415 . S
H1766 C1763 0.999 . S
H1767 C1748 0.913 . S
H1768 C1786 0.951 . S
H1769 C1788 0.951 . S
H1770 C1790 0.950 . S
H1771 C1791 0.950 . S
H1772 C1793 0.950 . S
H1773 C1796 0.950 . S
H1774 C1797 0.950 . S
H1775 C1799 0.950 . S
H1776 C1800 0.950 . S
H1777 C1801 0.951 . S
H1778 C1803 0.951 . S
H1779 C1805 0.950 . S
H1780 C1806 0.950 . S
H1781 C1808 0.950 . S
H1782 C1811 0.950 . S
H1783 C1812 0.950 . S
H1784 C1814 0.950 . S
H1785 C1815 0.950 . S
C1786 H1768 0.951 . S
C1786 C1787 1.366 . S
C1786 C1788 1.388 . S
C1787 C1786 1.366 . S
C1787 C1791 1.385 . S
C1788 H1769 0.951 . S
C1788 C1786 1.388 . S
C1788 C1789 1.366 . S
C1789 C1788 1.366 . S
C1789 C1790 1.414 . S
C1789 C1792 1.499 . S
C1790 H1770 0.950 . S
C1790 C1789 1.414 . S
C1790 C1791 1.374 . S
C1791 H1771 0.950 . S
C1791 C1787 1.385 . S
C1791 C1790 1.374 . S
C1792 C1789 1.499 . S
C1792 C1793 1.373 . S
C1792 C1794 1.389 . S
C1793 H1772 0.950 . S
C1793 C1792 1.373 . S
C1793 C1809 1.377 . S
C1794 C1792 1.389 . S
C1794 C1795 1.524 . S
C1794 C1808 1.377 . S
C1795 C1794 1.524 . S
C1795 C1796 1.397 . S
C1795 C1800 1.363 . S
C1796 H1773 0.950 . S
C1796 C1795 1.397 . S
C1796 C1797 1.334 . S
C1797 H1774 0.950 . S
C1797 C1796 1.334 . S
C1797 C1798 1.287 . S
C1798 C1797 1.287 . S
C1798 C1799 1.524 . S
C1798 H1817 0.913 . S
C1799 H1775 0.950 . S
C1799 C1798 1.524 . S
C1799 C1800 1.415 . S
C1800 H1776 0.950 . S
C1800 C1795 1.363 . S
C1800 C1799 1.415 . S
C1801 H1777 0.951 . S
C1801 C1802 1.366 . S
C1801 C1803 1.388 . S
C1802 C1801 1.366 . S
C1802 C1806 1.385 . S
C1803 H1778 0.951 . S
C1803 C1801 1.388 . S
C1803 C1804 1.366 . S
C1804 C1803 1.366 . S
C1804 C1805 1.414 . S
C1804 C1807 1.499 . S
C1805 H1779 0.950 . S
C1805 C1804 1.414 . S
C1805 C1806 1.374 . S
C1806 H1780 0.950 . S
C1806 C1802 1.385 . S
C1806 C1805 1.374 . S
C1807 C1804 1.499 . S
C1807 C1808 1.373 . S
C1807 C1809 1.389 . S
C1808 H1781 0.950 . S
C1808 C1794 1.377 . S
C1808 C1807 1.373 . S
C1809 C1793 1.377 . S
C1809 C1807 1.389 . S
C1809 C1810 1.524 . S
C1810 C1809 1.524 . S
C1810 C1811 1.397 . S
C1810 C1815 1.363 . S
C1811 H1782 0.950 . S
C1811 C1810 1.397 . S
C1811 C1812 1.334 . S
C1812 H1783 0.950 . S
C1812 C1811 1.334 . S
C1812 C1813 1.287 . S
C1813 C1812 1.287 . S
C1813 C1814 1.524 . S
C1813 H1816 0.999 . S
C1814 H1784 0.950 . S
C1814 C1813 1.524 . S
C1814 C1815 1.415 . S
C1815 H1785 0.950 . S
C1815 C1810 1.363 . S
C1815 C1814 1.415 . S
H1816 C1813 0.999 . S
H1817 C1798 0.913 . S
H1818 C1836 0.951 . S
H1819 C1838 0.951 . S
H1820 C1840 0.950 . S
H1821 C1841 0.950 . S
H1822 C1843 0.950 . S
H1823 C1846 0.950 . S
H1824 C1847 0.950 . S
H1825 C1849 0.950 . S
H1826 C1850 0.950 . S
H1827 C1851 0.951 . S
H1828 C1853 0.951 . S
H1829 C1855 0.950 . S
H1830 C1856 0.950 . S
H1831 C1858 0.950 . S
H1832 C1861 0.950 . S
H1833 C1862 0.950 . S
H1834 C1864 0.950 . S
H1835 C1865 0.950 . S
C1836 H1818 0.951 . S
C1836 C1837 1.366 . S
C1836 C1838 1.388 . S
C1837 C1836 1.366 . S
C1837 C1841 1.385 . S
C1838 H1819 0.951 . S
C1838 C1836 1.388 . S
C1838 C1839 1.366 . S
C1839 C1838 1.366 . S
C1839 C1840 1.414 . S
C1839 C1842 1.499 . S
C1840 H1820 0.950 . S
C1840 C1839 1.414 . S
C1840 C1841 1.374 . S
C1841 H1821 0.950 . S
C1841 C1837 1.385 . S
C1841 C1840 1.374 . S
C1842 C1839 1.499 . S
C1842 C1843 1.373 . S
C1842 C1844 1.389 . S
C1843 H1822 0.950 . S
C1843 C1842 1.373 . S
C1843 C1859 1.377 . S
C1844 C1842 1.389 . S
C1844 C1845 1.524 . S
C1844 C1858 1.377 . S
C1845 C1844 1.524 . S
C1845 C1846 1.397 . S
C1845 C1850 1.363 . S
C1846 H1823 0.950 . S
C1846 C1845 1.397 . S
C1846 C1847 1.334 . S
C1847 H1824 0.950 . S
C1847 C1846 1.334 . S
C1847 C1848 1.287 . S
C1848 C1847 1.287 . S
C1848 C1849 1.524 . S
C1848 H1867 0.913 . S
C1849 H1825 0.950 . S
C1849 C1848 1.524 . S
C1849 C1850 1.415 . S
C1850 H1826 0.950 . S
C1850 C1845 1.363 . S
C1850 C1849 1.415 . S
C1851 H1827 0.951 . S
C1851 C1852 1.366 . S
C1851 C1853 1.388 . S
C1852 C1851 1.366 . S
C1852 C1856 1.385 . S
C1853 H1828 0.951 . S
C1853 C1851 1.388 . S
C1853 C1854 1.366 . S
C1854 C1853 1.366 . S
C1854 C1855 1.414 . S
C1854 C1857 1.499 . S
C1855 H1829 0.950 . S
C1855 C1854 1.414 . S
C1855 C1856 1.374 . S
C1856 H1830 0.950 . S
C1856 C1852 1.385 . S
C1856 C1855 1.374 . S
C1857 C1854 1.499 . S
C1857 C1858 1.373 . S
C1857 C1859 1.389 . S
C1858 H1831 0.950 . S
C1858 C1844 1.377 . S
C1858 C1857 1.373 . S
C1859 C1843 1.377 . S
C1859 C1857 1.389 . S
C1859 C1860 1.524 . S
C1860 C1859 1.524 . S
C1860 C1861 1.397 . S
C1860 C1865 1.363 . S
C1861 H1832 0.950 . S
C1861 C1860 1.397 . S
C1861 C1862 1.334 . S
C1862 H1833 0.950 . S
C1862 C1861 1.334 . S
C1862 C1863 1.287 . S
C1863 C1862 1.287 . S
C1863 C1864 1.524 . S
C1863 H1866 0.999 . S
C1864 H1834 0.950 . S
C1864 C1863 1.524 . S
C1864 C1865 1.415 . S
C1865 H1835 0.950 . S
C1865 C1860 1.363 . S
C1865 C1864 1.415 . S
H1866 C1863 0.999 . S
H1867 C1848 0.913 . S
H1868 C1886 0.951 . S
H1869 C1888 0.951 . S
H1870 C1890 0.950 . S
H1871 C1891 0.950 . S
H1872 C1893 0.950 . S
H1873 C1896 0.950 . S
H1874 C1897 0.950 . S
H1875 C1899 0.950 . S
H1876 C1900 0.950 . S
H1877 C1901 0.951 . S
H1878 C1903 0.951 . S
H1879 C1905 0.950 . S
H1880 C1906 0.950 . S
H1881 C1908 0.950 . S
H1882 C1911 0.950 . S
H1883 C1912 0.950 . S
H1884 C1914 0.950 . S
H1885 C1915 0.950 . S
C1886 H1868 0.951 . S
C1886 C1887 1.366 . S
C1886 C1888 1.388 . S
C1887 C1886 1.366 . S
C1887 C1891 1.385 . S
C1888 H1869 0.951 . S
C1888 C1886 1.388 . S
C1888 C1889 1.366 . S
C1889 C1888 1.366 . S
C1889 C1890 1.414 . S
C1889 C1892 1.499 . S
C1890 H1870 0.950 . S
C1890 C1889 1.414 . S
C1890 C1891 1.374 . S
C1891 H1871 0.950 . S
C1891 C1887 1.385 . S
C1891 C1890 1.374 . S
C1892 C1889 1.499 . S
C1892 C1893 1.373 . S
C1892 C1894 1.389 . S
C1893 H1872 0.950 . S
C1893 C1892 1.373 . S
C1893 C1909 1.377 . S
C1894 C1892 1.389 . S
C1894 C1895 1.524 . S
C1894 C1908 1.377 . S
C1895 C1894 1.524 . S
C1895 C1896 1.397 . S
C1895 C1900 1.363 . S
C1896 H1873 0.950 . S
C1896 C1895 1.397 . S
C1896 C1897 1.334 . S
C1897 H1874 0.950 . S
C1897 C1896 1.334 . S
C1897 C1898 1.287 . S
C1898 C1897 1.287 . S
C1898 C1899 1.524 . S
C1898 H1917 0.913 . S
C1899 H1875 0.950 . S
C1899 C1898 1.524 . S
C1899 C1900 1.415 . S
C1900 H1876 0.950 . S
C1900 C1895 1.363 . S
C1900 C1899 1.415 . S
C1901 H1877 0.951 . S
C1901 C1902 1.366 . S
C1901 C1903 1.388 . S
C1902 C1901 1.366 . S
C1902 C1906 1.385 . S
C1903 H1878 0.951 . S
C1903 C1901 1.388 . S
C1903 C1904 1.366 . S
C1904 C1903 1.366 . S
C1904 C1905 1.414 . S
C1904 C1907 1.499 . S
C1905 H1879 0.950 . S
C1905 C1904 1.414 . S
C1905 C1906 1.374 . S
C1906 H1880 0.950 . S
C1906 C1902 1.385 . S
C1906 C1905 1.374 . S
C1907 C1904 1.499 . S
C1907 C1908 1.373 . S
C1907 C1909 1.389 . S
C1908 H1881 0.950 . S
C1908 C1894 1.377 . S
C1908 C1907 1.373 . S
C1909 C1893 1.377 . S
C1909 C1907 1.389 . S
C1909 C1910 1.524 . S
C1910 C1909 1.524 . S
C1910 C1911 1.397 . S
C1910 C1915 1.363 . S
C1911 H1882 0.950 . S
C1911 C1910 1.397 . S
C1911 C1912 1.334 . S
C1912 H1883 0.950 . S
C1912 C1911 1.334 . S
C1912 C1913 1.287 . S
C1913 C1912 1.287 . S
C1913 C1914 1.524 . S
C1913 H1916 0.999 . S
C1914 H1884 0.950 . S
C1914 C1913 1.524 . S
C1914 C1915 1.415 . S
C1915 H1885 0.950 . S
C1915 C1910 1.363 . S
C1915 C1914 1.415 . S
H1916 C1913 0.999 . S
H1917 C1898 0.913 . S
H1918 C1936 0.951 . S
H1919 C1938 0.951 . S
H1920 C1940 0.950 . S
H1921 C1941 0.950 . S
H1922 C1943 0.950 . S
H1923 C1946 0.950 . S
H1924 C1947 0.950 . S
H1925 C1949 0.950 . S
H1926 C1950 0.950 . S
H1927 C1951 0.951 . S
H1928 C1953 0.951 . S
H1929 C1955 0.950 . S
H1930 C1956 0.950 . S
H1931 C1958 0.950 . S
H1932 C1961 0.950 . S
H1933 C1962 0.950 . S
H1934 C1964 0.950 . S
H1935 C1965 0.950 . S
C1936 H1918 0.951 . S
C1936 C1937 1.366 . S
C1936 C1938 1.388 . S
C1937 C1936 1.366 . S
C1937 C1941 1.385 . S
C1938 H1919 0.951 . S
C1938 C1936 1.388 . S
C1938 C1939 1.366 . S
C1939 C1938 1.366 . S
C1939 C1940 1.414 . S
C1939 C1942 1.499 . S
C1940 H1920 0.950 . S
C1940 C1939 1.414 . S
C1940 C1941 1.374 . S
C1941 H1921 0.950 . S
C1941 C1937 1.385 . S
C1941 C1940 1.374 . S
C1942 C1939 1.499 . S
C1942 C1943 1.373 . S
C1942 C1944 1.389 . S
C1943 H1922 0.950 . S
C1943 C1942 1.373 . S
C1943 C1959 1.377 . S
C1944 C1942 1.389 . S
C1944 C1945 1.524 . S
C1944 C1958 1.377 . S
C1945 C1944 1.524 . S
C1945 C1946 1.397 . S
C1945 C1950 1.363 . S
C1946 H1923 0.950 . S
C1946 C1945 1.397 . S
C1946 C1947 1.334 . S
C1947 H1924 0.950 . S
C1947 C1946 1.334 . S
C1947 C1948 1.287 . S
C1948 C1947 1.287 . S
C1948 C1949 1.524 . S
C1948 H1967 0.913 . S
C1949 H1925 0.950 . S
C1949 C1948 1.524 . S
C1949 C1950 1.415 . S
C1950 H1926 0.950 . S
C1950 C1945 1.363 . S
C1950 C1949 1.415 . S
C1951 H1927 0.951 . S
C1951 C1952 1.366 . S
C1951 C1953 1.388 . S
C1952 C1951 1.366 . S
C1952 C1956 1.385 . S
C1953 H1928 0.951 . S
C1953 C1951 1.388 . S
C1953 C1954 1.366 . S
C1954 C1953 1.366 . S
C1954 C1955 1.414 . S
C1954 C1957 1.499 . S
C1955 H1929 0.950 . S
C1955 C1954 1.414 . S
C1955 C1956 1.374 . S
C1956 H1930 0.950 . S
C1956 C1952 1.385 . S
C1956 C1955 1.374 . S
C1957 C1954 1.499 . S
C1957 C1958 1.373 . S
C1957 C1959 1.389 . S
C1958 H1931 0.950 . S
C1958 C1944 1.377 . S
C1958 C1957 1.373 . S
C1959 C1943 1.377 . S
C1959 C1957 1.389 . S
C1959 C1960 1.524 . S
C1960 C1959 1.524 . S
C1960 C1961 1.397 . S
C1960 C1965 1.363 . S
C1961 H1932 0.950 . S
C1961 C1960 1.397 . S
C1961 C1962 1.334 . S
C1962 H1933 0.950 . S
C1962 C1961 1.334 . S
C1962 C1963 1.287 . S
C1963 C1962 1.287 . S
C1963 C1964 1.524 . S
C1963 H1966 0.999 . S
C1964 H1934 0.950 . S
C1964 C1963 1.524 . S
C1964 C1965 1.415 . S
C1965 H1935 0.950 . S
C1965 C1960 1.363 . S
C1965 C1964 1.415 . S
H1966 C1963 0.999 . S
H1967 C1948 0.913 . S
H1968 C1986 0.951 . S
H1969 C1988 0.951 . S
H1970 C1990 0.950 . S
H1971 C1991 0.950 . S
H1972 C1993 0.950 . S
H1973 C1996 0.950 . S
H1974 C1997 0.950 . S
H1975 C1999 0.950 . S
H1976 C2000 0.950 . S
H1977 C2001 0.951 . S
H1978 C2003 0.951 . S
H1979 C2005 0.950 . S
H1980 C2006 0.950 . S
H1981 C2008 0.950 . S
H1982 C2011 0.950 . S
H1983 C2012 0.950 . S
H1984 C2014 0.950 . S
H1985 C2015 0.950 . S
C1986 H1968 0.951 . S
C1986 C1987 1.366 . S
C1986 C1988 1.388 . S
C1987 C1986 1.366 . S
C1987 C1991 1.385 . S
C1988 H1969 0.951 . S
C1988 C1986 1.388 . S
C1988 C1989 1.366 . S
C1989 C1988 1.366 . S
C1989 C1990 1.414 . S
C1989 C1992 1.499 . S
C1990 H1970 0.950 . S
C1990 C1989 1.414 . S
C1990 C1991 1.374 . S
C1991 H1971 0.950 . S
C1991 C1987 1.385 . S
C1991 C1990 1.374 . S
C1992 C1989 1.499 . S
C1992 C1993 1.373 . S
C1992 C1994 1.389 . S
C1993 H1972 0.950 . S
C1993 C1992 1.373 . S
C1993 C2009 1.377 . S
C1994 C1992 1.389 . S
C1994 C1995 1.524 . S
C1994 C2008 1.377 . S
C1995 C1994 1.524 . S
C1995 C1996 1.397 . S
C1995 C2000 1.363 . S
C1996 H1973 0.950 . S
C1996 C1995 1.397 . S
C1996 C1997 1.334 . S
C1997 H1974 0.950 . S
C1997 C1996 1.334 . S
C1997 C1998 1.287 . S
C1998 C1997 1.287 . S
C1998 C1999 1.524 . S
C1998 H2017 0.913 . S
C1999 H1975 0.950 . S
C1999 C1998 1.524 . S
C1999 C2000 1.415 . S
C2000 H1976 0.950 . S
C2000 C1995 1.363 . S
C2000 C1999 1.415 . S
C2001 H1977 0.951 . S
C2001 C2002 1.366 . S
C2001 C2003 1.388 . S
C2002 C2001 1.366 . S
C2002 C2006 1.385 . S
C2003 H1978 0.951 . S
C2003 C2001 1.388 . S
C2003 C2004 1.366 . S
C2004 C2003 1.366 . S
C2004 C2005 1.414 . S
C2004 C2007 1.499 . S
C2005 H1979 0.950 . S
C2005 C2004 1.414 . S
C2005 C2006 1.374 . S
C2006 H1980 0.950 . S
C2006 C2002 1.385 . S
C2006 C2005 1.374 . S
C2007 C2004 1.499 . S
C2007 C2008 1.373 . S
C2007 C2009 1.389 . S
C2008 H1981 0.950 . S
C2008 C1994 1.377 . S
C2008 C2007 1.373 . S
C2009 C1993 1.377 . S
C2009 C2007 1.389 . S
C2009 C2010 1.524 . S
C2010 C2009 1.524 . S
C2010 C2011 1.397 . S
C2010 C2015 1.363 . S
C2011 H1982 0.950 . S
C2011 C2010 1.397 . S
C2011 C2012 1.334 . S
C2012 H1983 0.950 . S
C2012 C2011 1.334 . S
C2012 C2013 1.287 . S
C2013 C2012 1.287 . S
C2013 C2014 1.524 . S
C2013 H2016 0.999 . S
C2014 H1984 0.950 . S
C2014 C2013 1.524 . S
C2014 C2015 1.415 . S
C2015 H1985 0.950 . S
C2015 C2010 1.363 . S
C2015 C2014 1.415 . S
H2016 C2013 0.999 . S
H2017 C1998 0.913 . S
H2018 C2036 0.951 . S
H2019 C2038 0.951 . S
H2020 C2040 0.950 . S
H2021 C2041 0.950 . S
H2022 C2043 0.950 . S
H2023 C2046 0.950 . S
H2024 C2047 0.950 . S
H2025 C2049 0.950 . S
H2026 C2050 0.950 . S
H2027 C2051 0.951 . S
H2028 C2053 0.951 . S
H2029 C2055 0.950 . S
H2030 C2056 0.950 . S
H2031 C2058 0.950 . S
H2032 C2061 0.950 . S
H2033 C2062 0.950 . S
H2034 C2064 0.950 . S
H2035 C2065 0.950 . S
C2036 H2018 0.951 . S
C2036 C2037 1.366 . S
C2036 C2038 1.388 . S
C2037 C2036 1.366 . S
C2037 C2041 1.385 . S
C2038 H2019 0.951 . S
C2038 C2036 1.388 . S
C2038 C2039 1.366 . S
C2039 C2038 1.366 . S
C2039 C2040 1.414 . S
C2039 C2042 1.499 . S
C2040 H2020 0.950 . S
C2040 C2039 1.414 . S
C2040 C2041 1.374 . S
C2041 H2021 0.950 . S
C2041 C2037 1.385 . S
C2041 C2040 1.374 . S
C2042 C2039 1.499 . S
C2042 C2043 1.373 . S
C2042 C2044 1.389 . S
C2043 H2022 0.950 . S
C2043 C2042 1.373 . S
C2043 C2059 1.377 . S
C2044 C2042 1.389 . S
C2044 C2045 1.524 . S
C2044 C2058 1.377 . S
C2045 C2044 1.524 . S
C2045 C2046 1.397 . S
C2045 C2050 1.363 . S
C2046 H2023 0.950 . S
C2046 C2045 1.397 . S
C2046 C2047 1.334 . S
C2047 H2024 0.950 . S
C2047 C2046 1.334 . S
C2047 C2048 1.287 . S
C2048 C2047 1.287 . S
C2048 C2049 1.524 . S
C2048 H2067 0.913 . S
C2049 H2025 0.950 . S
C2049 C2048 1.524 . S
C2049 C2050 1.415 . S
C2050 H2026 0.950 . S
C2050 C2045 1.363 . S
C2050 C2049 1.415 . S
C2051 H2027 0.951 . S
C2051 C2052 1.366 . S
C2051 C2053 1.388 . S
C2052 C2051 1.366 . S
C2052 C2056 1.385 . S
C2053 H2028 0.951 . S
C2053 C2051 1.388 . S
C2053 C2054 1.366 . S
C2054 C2053 1.366 . S
C2054 C2055 1.414 . S
C2054 C2057 1.499 . S
C2055 H2029 0.950 . S
C2055 C2054 1.414 . S
C2055 C2056 1.374 . S
C2056 H2030 0.950 . S
C2056 C2052 1.385 . S
C2056 C2055 1.374 . S
C2057 C2054 1.499 . S
C2057 C2058 1.373 . S
C2057 C2059 1.389 . S
C2058 H2031 0.950 . S
C2058 C2044 1.377 . S
C2058 C2057 1.373 . S
C2059 C2043 1.377 . S
C2059 C2057 1.389 . S
C2059 C2060 1.524 . S
C2060 C2059 1.524 . S
C2060 C2061 1.397 . S
C2060 C2065 1.363 . S
C2061 H2032 0.950 . S
C2061 C2060 1.397 . S
C2061 C2062 1.334 . S
C2062 H2033 0.950 . S
C2062 C2061 1.334 . S
C2062 C2063 1.287 . S
C2063 C2062 1.287 . S
C2063 C2064 1.524 . S
C2063 H2066 0.999 . S
C2064 H2034 0.950 . S
C2064 C2063 1.524 . S
C2064 C2065 1.415 . S
C2065 H2035 0.950 . S
C2065 C2060 1.363 . S
C2065 C2064 1.415 . S
H2066 C2063 0.999 . S
H2067 C2048 0.913 . S
H2068 C2086 0.951 . S
H2069 C2088 0.951 . S
H2070 C2090 0.950 . S
H2071 C2091 0.950 . S
H2072 C2093 0.950 . S
H2073 C2096 0.950 . S
H2074 C2097 0.950 . S
H2075 C2099 0.950 . S
H2076 C2100 0.950 . S
H2077 C2101 0.951 . S
H2078 C2103 0.951 . S
H2079 C2105 0.950 . S
H2080 C2106 0.950 . S
H2081 C2108 0.950 . S
H2082 C2111 0.950 . S
H2083 C2112 0.950 . S
H2084 C2114 0.950 . S
H2085 C2115 0.950 . S
C2086 H2068 0.951 . S
C2086 C2087 1.366 . S
C2086 C2088 1.388 . S
C2087 C2086 1.366 . S
C2087 C2091 1.385 . S
C2088 H2069 0.951 . S
C2088 C2086 1.388 . S
C2088 C2089 1.366 . S
C2089 C2088 1.366 . S
C2089 C2090 1.414 . S
C2089 C2092 1.499 . S
C2090 H2070 0.950 . S
C2090 C2089 1.414 . S
C2090 C2091 1.374 . S
C2091 H2071 0.950 . S
C2091 C2087 1.385 . S
C2091 C2090 1.374 . S
C2092 C2089 1.499 . S
C2092 C2093 1.373 . S
C2092 C2094 1.389 . S
C2093 H2072 0.950 . S
C2093 C2092 1.373 . S
C2093 C2109 1.377 . S
C2094 C2092 1.389 . S
C2094 C2095 1.524 . S
C2094 C2108 1.377 . S
C2095 C2094 1.524 . S
C2095 C2096 1.397 . S
C2095 C2100 1.363 . S
C2096 H2073 0.950 . S
C2096 C2095 1.397 . S
C2096 C2097 1.334 . S
C2097 H2074 0.950 . S
C2097 C2096 1.334 . S
C2097 C2098 1.287 . S
C2098 C2097 1.287 . S
C2098 C2099 1.524 . S
C2098 H2117 0.913 . S
C2099 H2075 0.950 . S
C2099 C2098 1.524 . S
C2099 C2100 1.415 . S
C2100 H2076 0.950 . S
C2100 C2095 1.363 . S
C2100 C2099 1.415 . S
C2101 H2077 0.951 . S
C2101 C2102 1.366 . S
C2101 C2103 1.388 . S
C2102 C2101 1.366 . S
C2102 C2106 1.385 . S
C2103 H2078 0.951 . S
C2103 C2101 1.388 . S
C2103 C2104 1.366 . S
C2104 C2103 1.366 . S
C2104 C2105 1.414 . S
C2104 C2107 1.499 . S
C2105 H2079 0.950 . S
C2105 C2104 1.414 . S
C2105 C2106 1.374 . S
C2106 H2080 0.950 . S
C2106 C2102 1.385 . S
C2106 C2105 1.374 . S
C2107 C2104 1.499 . S
C2107 C2108 1.373 . S
C2107 C2109 1.389 . S
C2108 H2081 0.950 . S
C2108 C2094 1.377 . S
C2108 C2107 1.373 . S
C2109 C2093 1.377 . S
C2109 C2107 1.389 . S
C2109 C2110 1.524 . S
C2110 C2109 1.524 . S
C2110 C2111 1.397 . S
C2110 C2115 1.363 . S
C2111 H2082 0.950 . S
C2111 C2110 1.397 . S
C2111 C2112 1.334 . S
C2112 H2083 0.950 . S
C2112 C2111 1.334 . S
C2112 C2113 1.287 . S
C2113 C2112 1.287 . S
C2113 C2114 1.524 . S
C2113 H2116 0.999 . S
C2114 H2084 0.950 . S
C2114 C2113 1.524 . S
C2114 C2115 1.415 . S
C2115 H2085 0.950 . S
C2115 C2110 1.363 . S
C2115 C2114 1.415 . S
H2116 C2113 0.999 . S
H2117 C2098 0.913 . S
H2118 C2136 0.951 . S
H2119 C2138 0.951 . S
H2120 C2140 0.950 . S
H2121 C2141 0.950 . S
H2122 C2143 0.950 . S
H2123 C2146 0.950 . S
H2124 C2147 0.950 . S
H2125 C2149 0.950 . S
H2126 C2150 0.950 . S
H2127 C2151 0.951 . S
H2128 C2153 0.951 . S
H2129 C2155 0.950 . S
H2130 C2156 0.950 . S
H2131 C2158 0.950 . S
H2132 C2161 0.950 . S
H2133 C2162 0.950 . S
H2134 C2164 0.950 . S
H2135 C2165 0.950 . S
C2136 H2118 0.951 . S
C2136 C2137 1.366 . S
C2136 C2138 1.388 . S
C2137 C2136 1.366 . S
C2137 C2141 1.385 . S
C2138 H2119 0.951 . S
C2138 C2136 1.388 . S
C2138 C2139 1.366 . S
C2139 C2138 1.366 . S
C2139 C2140 1.414 . S
C2139 C2142 1.499 . S
C2140 H2120 0.950 . S
C2140 C2139 1.414 . S
C2140 C2141 1.374 . S
C2141 H2121 0.950 . S
C2141 C2137 1.385 . S
C2141 C2140 1.374 . S
C2142 C2139 1.499 . S
C2142 C2143 1.373 . S
C2142 C2144 1.389 . S
C2143 H2122 0.950 . S
C2143 C2142 1.373 . S
C2143 C2159 1.377 . S
C2144 C2142 1.389 . S
C2144 C2145 1.524 . S
C2144 C2158 1.377 . S
C2145 C2144 1.524 . S
C2145 C2146 1.397 . S
C2145 C2150 1.363 . S
C2146 H2123 0.950 . S
C2146 C2145 1.397 . S
C2146 C2147 1.334 . S
C2147 H2124 0.950 . S
C2147 C2146 1.334 . S
C2147 C2148 1.287 . S
C2148 C2147 1.287 . S
C2148 C2149 1.524 . S
C2148 H2167 0.913 . S
C2149 H2125 0.950 . S
C2149 C2148 1.524 . S
C2149 C2150 1.415 . S
C2150 H2126 0.950 . S
C2150 C2145 1.363 . S
C2150 C2149 1.415 . S
C2151 H2127 0.951 . S
C2151 C2152 1.366 . S
C2151 C2153 1.388 1_556 S
C2152 C2151 1.366 . S
C2152 C2156 1.385 . S
C2153 H2128 0.951 . S
C2153 C2151 1.388 1_554 S
C2153 C2154 1.366 . S
C2154 C2153 1.366 . S
C2154 C2155 1.414 . S
C2154 C2157 1.499 . S
C2155 H2129 0.950 . S
C2155 C2154 1.414 . S
C2155 C2156 1.374 1_554 S
C2156 H2130 0.950 . S
C2156 C2152 1.385 . S
C2156 C2155 1.374 1_556 S
C2157 C2154 1.499 . S
C2157 C2158 1.373 . S
C2157 C2159 1.389 . S
C2158 H2131 0.950 . S
C2158 C2144 1.377 . S
C2158 C2157 1.373 . S
C2159 C2143 1.377 . S
C2159 C2157 1.389 . S
C2159 C2160 1.524 . S
C2160 C2159 1.524 . S
C2160 C2161 1.397 . S
C2160 C2165 1.363 . S
C2161 H2132 0.950 . S
C2161 C2160 1.397 . S
C2161 C2162 1.334 . S
C2162 H2133 0.950 . S
C2162 C2161 1.334 . S
C2162 C2163 1.287 . S
C2163 C2162 1.287 . S
C2163 C2164 1.524 . S
C2163 H2166 0.999 . S
C2164 H2134 0.950 . S
C2164 C2163 1.524 . S
C2164 C2165 1.415 . S
C2165 H2135 0.950 . S
C2165 C2160 1.363 . S
C2165 C2164 1.415 . S
H2166 C2163 0.999 . S
H2167 C2148 0.913 . S
H2168 C2186 0.951 . S
H2169 C2188 0.951 . S
H2170 C2190 0.950 . S
H2171 C2191 0.950 . S
H2172 C2193 0.950 . S
H2173 C2196 0.950 . S
H2174 C2197 0.950 . S
H2175 C2199 0.950 . S
H2176 C2200 0.950 . S
H2177 C2201 0.951 . S
H2178 C2203 0.951 . S
H2179 C2205 0.950 . S
H2180 C2206 0.950 . S
H2181 C2208 0.950 . S
H2182 C2211 0.950 . S
H2183 C2212 0.950 . S
H2184 C2214 0.950 . S
H2185 C2215 0.950 . S
C2186 H2168 0.951 . S
C2186 C2187 1.366 . S
C2186 C2188 1.388 1_556 S
C2187 C2186 1.366 . S
C2187 C2191 1.385 . S
C2188 H2169 0.951 . S
C2188 C2186 1.388 1_554 S
C2188 C2189 1.366 . S
C2189 C2188 1.366 . S
C2189 C2190 1.414 . S
C2189 C2192 1.499 . S
C2190 H2170 0.950 . S
C2190 C2189 1.414 . S
C2190 C2191 1.374 1_554 S
C2191 H2171 0.950 . S
C2191 C2187 1.385 . S
C2191 C2190 1.374 1_556 S
C2192 C2189 1.499 . S
C2192 C2193 1.373 . S
C2192 C2194 1.389 . S
C2193 H2172 0.950 . S
C2193 C2192 1.373 . S
C2193 C2209 1.377 . S
C2194 C2192 1.389 . S
C2194 C2195 1.524 . S
C2194 C2208 1.377 . S
C2195 C2194 1.524 . S
C2195 C2196 1.397 . S
C2195 C2200 1.363 . S
C2196 H2173 0.950 . S
C2196 C2195 1.397 . S
C2196 C2197 1.334 . S
C2197 H2174 0.950 . S
C2197 C2196 1.334 . S
C2197 C2198 1.287 . S
C2198 C2197 1.287 . S
C2198 C2199 1.524 . S
C2198 H2217 0.913 . S
C2199 H2175 0.950 . S
C2199 C2198 1.524 . S
C2199 C2200 1.415 . S
C2200 H2176 0.950 . S
C2200 C2195 1.363 . S
C2200 C2199 1.415 . S
C2201 H2177 0.951 . S
C2201 C2202 1.366 . S
C2201 C2203 1.388 . S
C2202 C2201 1.366 . S
C2202 C2206 1.385 . S
C2203 H2178 0.951 . S
C2203 C2201 1.388 . S
C2203 C2204 1.366 . S
C2204 C2203 1.366 . S
C2204 C2205 1.414 . S
C2204 C2207 1.499 . S
C2205 H2179 0.950 . S
C2205 C2204 1.414 . S
C2205 C2206 1.374 . S
C2206 H2180 0.950 . S
C2206 C2202 1.385 . S
C2206 C2205 1.374 . S
C2207 C2204 1.499 . S
C2207 C2208 1.373 . S
C2207 C2209 1.389 . S
C2208 H2181 0.950 . S
C2208 C2194 1.377 . S
C2208 C2207 1.373 . S
C2209 C2193 1.377 . S
C2209 C2207 1.389 . S
C2209 C2210 1.524 . S
C2210 C2209 1.524 . S
C2210 C2211 1.397 . S
C2210 C2215 1.363 . S
C2211 H2182 0.950 . S
C2211 C2210 1.397 . S
C2211 C2212 1.334 . S
C2212 H2183 0.950 . S
C2212 C2211 1.334 . S
C2212 C2213 1.287 . S
C2213 C2212 1.287 . S
C2213 C2214 1.524 . S
C2213 H2216 0.999 . S
C2214 H2184 0.950 . S
C2214 C2213 1.524 . S
C2214 C2215 1.415 . S
C2215 H2185 0.950 . S
C2215 C2210 1.363 . S
C2215 C2214 1.415 . S
H2216 C2213 0.999 . S
H2217 C2198 0.913 . S
H2218 C2236 0.951 . S
H2219 C2238 0.951 . S
H2220 C2240 0.950 . S
H2221 C2241 0.950 . S
H2222 C2243 0.950 . S
H2223 C2246 0.950 . S
H2224 C2247 0.950 . S
H2225 C2249 0.950 . S
H2226 C2250 0.950 . S
H2227 C2251 0.951 . S
H2228 C2253 0.951 . S
H2229 C2255 0.950 . S
H2230 C2256 0.950 . S
H2231 C2258 0.950 . S
H2232 C2261 0.950 . S
H2233 C2262 0.950 . S
H2234 C2264 0.950 . S
H2235 C2265 0.950 . S
C2236 H2218 0.951 . S
C2236 C2237 1.366 . S
C2236 C2238 1.388 . S
C2237 C2236 1.366 . S
C2237 C2241 1.385 . S
C2238 H2219 0.951 . S
C2238 C2236 1.388 . S
C2238 C2239 1.366 . S
C2239 C2238 1.366 . S
C2239 C2240 1.414 . S
C2239 C2242 1.499 . S
C2240 H2220 0.950 . S
C2240 C2239 1.414 . S
C2240 C2241 1.374 . S
C2241 H2221 0.950 . S
C2241 C2237 1.385 . S
C2241 C2240 1.374 . S
C2242 C2239 1.499 . S
C2242 C2243 1.373 . S
C2242 C2244 1.389 . S
C2243 H2222 0.950 . S
C2243 C2242 1.373 . S
C2243 C2259 1.377 . S
C2244 C2242 1.389 . S
C2244 C2245 1.524 . S
C2244 C2258 1.377 . S
C2245 C2244 1.524 . S
C2245 C2246 1.397 . S
C2245 C2250 1.363 . S
C2246 H2223 0.950 . S
C2246 C2245 1.397 . S
C2246 C2247 1.334 . S
C2247 H2224 0.950 . S
C2247 C2246 1.334 . S
C2247 C2248 1.287 . S
C2248 C2247 1.287 . S
C2248 C2249 1.524 . S
C2248 H2267 0.913 . S
C2249 H2225 0.950 . S
C2249 C2248 1.524 . S
C2249 C2250 1.415 . S
C2250 H2226 0.950 . S
C2250 C2245 1.363 . S
C2250 C2249 1.415 . S
C2251 H2227 0.951 . S
C2251 C2252 1.366 . S
C2251 C2253 1.388 1_556 S
C2252 C2251 1.366 . S
C2252 C2256 1.385 . S
C2253 H2228 0.951 . S
C2253 C2251 1.388 1_554 S
C2253 C2254 1.366 . S
C2254 C2253 1.366 . S
C2254 C2255 1.414 . S
C2254 C2257 1.499 . S
C2255 H2229 0.950 . S
C2255 C2254 1.414 . S
C2255 C2256 1.374 1_554 S
C2256 H2230 0.950 . S
C2256 C2252 1.385 . S
C2256 C2255 1.374 1_556 S
C2257 C2254 1.499 . S
C2257 C2258 1.373 . S
C2257 C2259 1.389 . S
C2258 H2231 0.950 . S
C2258 C2244 1.377 . S
C2258 C2257 1.373 . S
C2259 C2243 1.377 . S
C2259 C2257 1.389 . S
C2259 C2260 1.524 . S
C2260 C2259 1.524 . S
C2260 C2261 1.397 . S
C2260 C2265 1.363 . S
C2261 H2232 0.950 . S
C2261 C2260 1.397 . S
C2261 C2262 1.334 . S
C2262 H2233 0.950 . S
C2262 C2261 1.334 . S
C2262 C2263 1.287 . S
C2263 C2262 1.287 . S
C2263 C2264 1.524 . S
C2263 H2266 0.999 . S
C2264 H2234 0.950 . S
C2264 C2263 1.524 . S
C2264 C2265 1.415 . S
C2265 H2235 0.950 . S
C2265 C2260 1.363 . S
C2265 C2264 1.415 . S
H2266 C2263 0.999 . S
H2267 C2248 0.913 . S
H2268 C2286 0.951 . S
H2269 C2288 0.951 . S
H2270 C2290 0.950 . S
H2271 C2291 0.950 . S
H2272 C2293 0.950 . S
H2273 C2296 0.950 . S
H2274 C2297 0.950 . S
H2275 C2299 0.950 . S
H2276 C2300 0.950 . S
H2277 C2301 0.951 . S
H2278 C2303 0.951 . S
H2279 C2305 0.950 . S
H2280 C2306 0.950 . S
H2281 C2308 0.950 . S
H2282 C2311 0.950 . S
H2283 C2312 0.950 . S
H2284 C2314 0.950 . S
H2285 C2315 0.950 . S
C2286 H2268 0.951 . S
C2286 C2287 1.366 . S
C2286 C2288 1.388 . S
C2287 C2286 1.366 . S
C2287 C2291 1.385 . S
C2288 H2269 0.951 . S
C2288 C2286 1.388 . S
C2288 C2289 1.366 . S
C2289 C2288 1.366 . S
C2289 C2290 1.414 . S
C2289 C2292 1.499 . S
C2290 H2270 0.950 . S
C2290 C2289 1.414 . S
C2290 C2291 1.374 . S
C2291 H2271 0.950 . S
C2291 C2287 1.385 . S
C2291 C2290 1.374 . S
C2292 C2289 1.499 . S
C2292 C2293 1.373 . S
C2292 C2294 1.389 . S
C2293 H2272 0.950 . S
C2293 C2292 1.373 . S
C2293 C2309 1.377 . S
C2294 C2292 1.389 . S
C2294 C2295 1.524 . S
C2294 C2308 1.377 . S
C2295 C2294 1.524 . S
C2295 C2296 1.397 . S
C2295 C2300 1.363 . S
C2296 H2273 0.950 . S
C2296 C2295 1.397 . S
C2296 C2297 1.334 . S
C2297 H2274 0.950 . S
C2297 C2296 1.334 . S
C2297 C2298 1.287 . S
C2298 C2297 1.287 . S
C2298 C2299 1.524 . S
C2298 H2317 0.913 . S
C2299 H2275 0.950 . S
C2299 C2298 1.524 . S
C2299 C2300 1.415 . S
C2300 H2276 0.950 . S
C2300 C2295 1.363 . S
C2300 C2299 1.415 . S
C2301 H2277 0.951 . S
C2301 C2302 1.366 . S
C2301 C2303 1.388 . S
C2302 C2301 1.366 . S
C2302 C2306 1.385 . S
C2303 H2278 0.951 . S
C2303 C2301 1.388 . S
C2303 C2304 1.366 . S
C2304 C2303 1.366 . S
C2304 C2305 1.414 . S
C2304 C2307 1.499 . S
C2305 H2279 0.950 . S
C2305 C2304 1.414 . S
C2305 C2306 1.374 . S
C2306 H2280 0.950 . S
C2306 C2302 1.385 . S
C2306 C2305 1.374 . S
C2307 C2304 1.499 . S
C2307 C2308 1.373 . S
C2307 C2309 1.389 . S
C2308 H2281 0.950 . S
C2308 C2294 1.377 . S
C2308 C2307 1.373 . S
C2309 C2293 1.377 . S
C2309 C2307 1.389 . S
C2309 C2310 1.524 . S
C2310 C2309 1.524 . S
C2310 C2311 1.397 . S
C2310 C2315 1.363 . S
C2311 H2282 0.950 . S
C2311 C2310 1.397 . S
C2311 C2312 1.334 . S
C2312 H2283 0.950 . S
C2312 C2311 1.334 . S
C2312 C2313 1.287 . S
C2313 C2312 1.287 . S
C2313 C2314 1.524 . S
C2313 H2316 0.999 . S
C2314 H2284 0.950 . S
C2314 C2313 1.524 . S
C2314 C2315 1.415 . S
C2315 H2285 0.950 . S
C2315 C2310 1.363 . S
C2315 C2314 1.415 . S
H2316 C2313 0.999 . S
H2317 C2298 0.913 . S
H2318 C2336 0.951 . S
H2319 C2338 0.951 . S
H2320 C2340 0.950 . S
H2321 C2341 0.950 . S
H2322 C2343 0.950 . S
H2323 C2346 0.950 . S
H2324 C2347 0.950 . S
H2325 C2349 0.950 . S
H2326 C2350 0.950 . S
H2327 C2351 0.951 . S
H2328 C2353 0.951 . S
H2329 C2355 0.950 . S
H2330 C2356 0.950 . S
H2331 C2358 0.950 . S
H2332 C2361 0.950 . S
H2333 C2362 0.950 . S
H2334 C2364 0.950 . S
H2335 C2365 0.950 . S
C2336 H2318 0.951 . S
C2336 C2337 1.366 . S
C2336 C2338 1.388 . S
C2337 C2336 1.366 . S
C2337 C2341 1.385 . S
C2338 H2319 0.951 . S
C2338 C2336 1.388 . S
C2338 C2339 1.366 . S
C2339 C2338 1.366 . S
C2339 C2340 1.414 . S
C2339 C2342 1.499 . S
C2340 H2320 0.950 . S
C2340 C2339 1.414 . S
C2340 C2341 1.374 . S
C2341 H2321 0.950 . S
C2341 C2337 1.385 . S
C2341 C2340 1.374 . S
C2342 C2339 1.499 . S
C2342 C2343 1.373 . S
C2342 C2344 1.389 . S
C2343 H2322 0.950 . S
C2343 C2342 1.373 . S
C2343 C2359 1.377 1_565 S
C2344 C2342 1.389 . S
C2344 C2345 1.524 . S
C2344 C2358 1.377 1_565 S
C2345 C2344 1.524 . S
C2345 C2346 1.397 . S
C2345 C2350 1.363 . S
C2346 H2323 0.950 . S
C2346 C2345 1.397 . S
C2346 C2347 1.334 . S
C2347 H2324 0.950 . S
C2347 C2346 1.334 . S
C2347 C2348 1.287 . S
C2348 C2347 1.287 . S
C2348 C2349 1.524 . S
C2348 H2367 0.913 . S
C2349 H2325 0.950 . S
C2349 C2348 1.524 . S
C2349 C2350 1.415 . S
C2350 H2326 0.950 . S
C2350 C2345 1.363 . S
C2350 C2349 1.415 . S
C2351 H2327 0.951 . S
C2351 C2352 1.366 . S
C2351 C2353 1.388 . S
C2352 C2351 1.366 . S
C2352 C2356 1.385 . S
C2353 H2328 0.951 . S
C2353 C2351 1.388 . S
C2353 C2354 1.366 . S
C2354 C2353 1.366 . S
C2354 C2355 1.414 . S
C2354 C2357 1.499 . S
C2355 H2329 0.950 . S
C2355 C2354 1.414 . S
C2355 C2356 1.374 . S
C2356 H2330 0.950 . S
C2356 C2352 1.385 . S
C2356 C2355 1.374 . S
C2357 C2354 1.499 . S
C2357 C2358 1.373 . S
C2357 C2359 1.389 . S
C2358 H2331 0.950 . S
C2358 C2344 1.377 1_545 S
C2358 C2357 1.373 . S
C2359 C2343 1.377 1_545 S
C2359 C2357 1.389 . S
C2359 C2360 1.524 . S
C2360 C2359 1.524 . S
C2360 C2361 1.397 . S
C2360 C2365 1.363 . S
C2361 H2332 0.950 . S
C2361 C2360 1.397 . S
C2361 C2362 1.334 . S
C2362 H2333 0.950 . S
C2362 C2361 1.334 . S
C2362 C2363 1.287 . S
C2363 C2362 1.287 . S
C2363 C2364 1.524 . S
C2363 H2366 0.999 . S
C2364 H2334 0.950 . S
C2364 C2363 1.524 . S
C2364 C2365 1.415 . S
C2365 H2335 0.950 . S
C2365 C2360 1.363 . S
C2365 C2364 1.415 . S
H2366 C2363 0.999 . S
H2367 C2348 0.913 . S
H2368 C2386 0.951 . S
H2369 C2388 0.951 . S
H2370 C2390 0.950 . S
H2371 C2391 0.950 . S
H2372 C2393 0.950 . S
H2373 C2396 0.950 . S
H2374 C2397 0.950 . S
H2375 C2399 0.950 . S
H2376 C2400 0.950 . S
H2377 C2401 0.951 . S
H2378 C2403 0.951 . S
H2379 C2405 0.950 . S
H2380 C2406 0.950 . S
H2381 C2408 0.950 . S
H2382 C2411 0.950 . S
H2383 C2412 0.950 . S
H2384 C2414 0.950 . S
H2385 C2415 0.950 . S
C2386 H2368 0.951 . S
C2386 C2387 1.366 . S
C2386 C2388 1.388 . S
C2387 C2386 1.366 . S
C2387 C2391 1.385 . S
C2388 H2369 0.951 . S
C2388 C2386 1.388 . S
C2388 C2389 1.366 . S
C2389 C2388 1.366 . S
C2389 C2390 1.414 . S
C2389 C2392 1.499 . S
C2390 H2370 0.950 . S
C2390 C2389 1.414 . S
C2390 C2391 1.374 . S
C2391 H2371 0.950 . S
C2391 C2387 1.385 . S
C2391 C2390 1.374 . S
C2392 C2389 1.499 . S
C2392 C2393 1.373 . S
C2392 C2394 1.389 . S
C2393 H2372 0.950 . S
C2393 C2392 1.373 . S
C2393 C2409 1.377 1_655 S
C2394 C2392 1.389 . S
C2394 C2395 1.524 . S
C2394 C2408 1.377 1_655 S
C2395 C2394 1.524 . S
C2395 C2396 1.397 . S
C2395 C2400 1.363 . S
C2396 H2373 0.950 . S
C2396 C2395 1.397 . S
C2396 C2397 1.334 . S
C2397 H2374 0.950 . S
C2397 C2396 1.334 . S
C2397 C2398 1.287 . S
C2398 C2397 1.287 . S
C2398 C2399 1.524 . S
C2398 H2417 0.913 . S
C2399 H2375 0.950 . S
C2399 C2398 1.524 . S
C2399 C2400 1.415 . S
C2400 H2376 0.950 . S
C2400 C2395 1.363 . S
C2400 C2399 1.415 . S
C2401 H2377 0.951 . S
C2401 C2402 1.366 . S
C2401 C2403 1.388 . S
C2402 C2401 1.366 . S
C2402 C2406 1.385 . S
C2403 H2378 0.951 . S
C2403 C2401 1.388 . S
C2403 C2404 1.366 . S
C2404 C2403 1.366 . S
C2404 C2405 1.414 . S
C2404 C2407 1.499 . S
C2405 H2379 0.950 . S
C2405 C2404 1.414 . S
C2405 C2406 1.374 . S
C2406 H2380 0.950 . S
C2406 C2402 1.385 . S
C2406 C2405 1.374 . S
C2407 C2404 1.499 . S
C2407 C2408 1.373 . S
C2407 C2409 1.389 . S
C2408 H2381 0.950 . S
C2408 C2394 1.377 1_455 S
C2408 C2407 1.373 . S
C2409 C2393 1.377 1_455 S
C2409 C2407 1.389 . S
C2409 C2410 1.524 . S
C2410 C2409 1.524 . S
C2410 C2411 1.397 . S
C2410 C2415 1.363 . S
C2411 H2382 0.950 . S
C2411 C2410 1.397 . S
C2411 C2412 1.334 . S
C2412 H2383 0.950 . S
C2412 C2411 1.334 . S
C2412 C2413 1.287 . S
C2413 C2412 1.287 . S
C2413 C2414 1.524 . S
C2413 H2416 0.999 . S
C2414 H2384 0.950 . S
C2414 C2413 1.524 . S
C2414 C2415 1.415 . S
C2415 H2385 0.950 . S
C2415 C2410 1.363 . S
C2415 C2414 1.415 . S
H2416 C2413 0.999 . S
H2417 C2398 0.913 . S
H2418 C2436 0.951 . S
H2419 C2438 0.951 . S
H2420 C2440 0.950 . S
H2421 C2441 0.950 . S
H2422 C2443 0.950 . S
H2423 C2446 0.950 . S
H2424 C2447 0.950 . S
H2425 C2449 0.950 . S
H2426 C2450 0.950 . S
H2427 C2451 0.951 . S
H2428 C2453 0.951 . S
H2429 C2455 0.950 . S
H2430 C2456 0.950 . S
H2431 C2458 0.950 . S
H2432 C2461 0.950 . S
H2433 C2462 0.950 . S
H2434 C2464 0.950 . S
H2435 C2465 0.950 . S
C2436 H2418 0.951 . S
C2436 C2437 1.366 . S
C2436 C2438 1.388 . S
C2437 C2436 1.366 . S
C2437 C2441 1.385 . S
C2438 H2419 0.951 . S
C2438 C2436 1.388 . S
C2438 C2439 1.366 . S
C2439 C2438 1.366 . S
C2439 C2440 1.414 . S
C2439 C2442 1.499 . S
C2440 H2420 0.950 . S
C2440 C2439 1.414 . S
C2440 C2441 1.374 . S
C2441 H2421 0.950 . S
C2441 C2437 1.385 . S
C2441 C2440 1.374 . S
C2442 C2439 1.499 . S
C2442 C2443 1.373 . S
C2442 C2444 1.389 . S
C2443 H2422 0.950 . S
C2443 C2442 1.373 . S
C2443 C2459 1.377 . S
C2444 C2442 1.389 . S
C2444 C2445 1.524 . S
C2444 C2458 1.377 . S
C2445 C2444 1.524 . S
C2445 C2446 1.397 . S
C2445 C2450 1.363 . S
C2446 H2423 0.950 . S
C2446 C2445 1.397 . S
C2446 C2447 1.334 . S
C2447 H2424 0.950 . S
C2447 C2446 1.334 . S
C2447 C2448 1.287 . S
C2448 C2447 1.287 . S
C2448 C2449 1.524 . S
C2448 H2467 0.913 . S
C2449 H2425 0.950 . S
C2449 C2448 1.524 . S
C2449 C2450 1.415 . S
C2450 H2426 0.950 . S
C2450 C2445 1.363 . S
C2450 C2449 1.415 . S
C2451 H2427 0.951 . S
C2451 C2452 1.366 . S
C2451 C2453 1.388 . S
C2452 C2451 1.366 . S
C2452 C2456 1.385 . S
C2453 H2428 0.951 . S
C2453 C2451 1.388 . S
C2453 C2454 1.366 . S
C2454 C2453 1.366 . S
C2454 C2455 1.414 . S
C2454 C2457 1.499 . S
C2455 H2429 0.950 . S
C2455 C2454 1.414 . S
C2455 C2456 1.374 . S
C2456 H2430 0.950 . S
C2456 C2452 1.385 . S
C2456 C2455 1.374 . S
C2457 C2454 1.499 . S
C2457 C2458 1.373 . S
C2457 C2459 1.389 . S
C2458 H2431 0.950 . S
C2458 C2444 1.377 . S
C2458 C2457 1.373 . S
C2459 C2443 1.377 . S
C2459 C2457 1.389 . S
C2459 C2460 1.524 . S
C2460 C2459 1.524 . S
C2460 C2461 1.397 . S
C2460 C2465 1.363 . S
C2461 H2432 0.950 . S
C2461 C2460 1.397 . S
C2461 C2462 1.334 . S
C2462 H2433 0.950 . S
C2462 C2461 1.334 . S
C2462 C2463 1.287 . S
C2463 C2462 1.287 . S
C2463 C2464 1.524 . S
C2463 H2466 0.999 . S
C2464 H2434 0.950 . S
C2464 C2463 1.524 . S
C2464 C2465 1.415 . S
C2465 H2435 0.950 . S
C2465 C2460 1.363 . S
C2465 C2464 1.415 . S
H2466 C2463 0.999 . S
H2467 C2448 0.913 . S
H2468 C2486 0.951 . S
H2469 C2488 0.951 . S
H2470 C2490 0.950 . S
H2471 C2491 0.950 . S
H2472 C2493 0.950 . S
H2473 C2496 0.950 . S
H2474 C2497 0.950 . S
H2475 C2499 0.950 . S
H2476 C2500 0.958 . S
H2477 C2501 0.951 . S
H2478 C2503 0.951 . S
H2479 C2505 0.950 . S
H2480 C2506 0.950 . S
H2481 C2508 0.950 . S
H2482 C2511 0.950 . S
H2483 C2512 0.950 . S
H2484 C2514 0.950 . S
H2485 C2515 0.959 . S
C2486 H2468 0.951 . S
C2486 C2487 1.366 . S
C2486 C2488 1.388 . S
C2487 C2486 1.366 . S
C2487 C2491 1.385 . S
C2488 H2469 0.951 . S
C2488 C2486 1.388 . S
C2488 C2489 1.366 . S
C2489 C2488 1.366 . S
C2489 C2490 1.414 . S
C2489 C2492 1.499 . S
C2490 H2470 0.950 . S
C2490 C2489 1.414 . S
C2490 C2491 1.374 . S
C2491 H2471 0.950 . S
C2491 C2487 1.385 . S
C2491 C2490 1.374 . S
C2492 C2489 1.499 . S
C2492 C2493 1.373 . S
C2492 C2494 1.389 . S
C2493 H2472 0.950 . S
C2493 C2492 1.373 . S
C2493 C2509 1.377 1_545 S
C2494 C2492 1.389 . S
C2494 C2495 1.524 . S
C2494 C2508 1.377 1_545 S
C2495 C2494 1.524 . S
C2495 C2496 1.397 . S
C2495 C2500 1.363 . S
C2496 H2473 0.950 . S
C2496 C2495 1.397 . S
C2496 C2497 1.334 . S
C2497 H2474 0.950 . S
C2497 C2496 1.334 . S
C2497 C2498 1.287 . S
C2498 C2497 1.287 . S
C2498 C2499 1.524 . S
C2498 H2517 0.913 . S
C2499 H2475 0.950 . S
C2499 C2498 1.524 . S
C2499 C2500 1.415 . S
C2500 H2476 0.958 . S
C2500 C2495 1.363 . S
C2500 C2499 1.415 . S
C2501 H2477 0.951 . S
C2501 C2502 1.366 . S
C2501 C2503 1.388 . S
C2502 C2501 1.366 . S
C2502 C2506 1.385 . S
C2503 H2478 0.951 . S
C2503 C2501 1.388 . S
C2503 C2504 1.366 . S
C2504 C2503 1.366 . S
C2504 C2505 1.414 . S
C2504 C2507 1.499 . S
C2505 H2479 0.950 . S
C2505 C2504 1.414 . S
C2505 C2506 1.374 . S
C2506 H2480 0.950 . S
C2506 C2502 1.385 . S
C2506 C2505 1.374 . S
C2507 C2504 1.499 . S
C2507 C2508 1.373 . S
C2507 C2509 1.389 . S
C2508 H2481 0.950 . S
C2508 C2494 1.377 1_565 S
C2508 C2507 1.373 . S
C2509 C2493 1.377 1_565 S
C2509 C2507 1.389 . S
C2509 C2510 1.524 . S
C2510 C2509 1.524 . S
C2510 C2511 1.397 . S
C2510 C2515 1.363 . S
C2511 H2482 0.950 . S
C2511 C2510 1.397 . S
C2511 C2512 1.334 . S
C2512 H2483 0.950 . S
C2512 C2511 1.334 . S
C2512 C2513 1.287 . S
C2513 C2512 1.287 . S
C2513 C2514 1.524 . S
C2513 H2516 0.999 . S
C2514 H2484 0.950 . S
C2514 C2513 1.524 . S
C2514 C2515 1.415 . S
C2515 H2485 0.959 . S
C2515 C2510 1.363 . S
C2515 C2514 1.415 . S
H2516 C2513 0.999 . S
H2517 C2498 0.913 . S
H2518 C2536 0.951 . S
H2519 C2538 0.951 . S
H2520 C2540 0.950 . S
H2521 C2541 0.950 . S
H2522 C2543 0.950 . S
H2523 C2546 0.950 . S
H2524 C2547 0.950 . S
H2525 C2549 0.950 . S
H2526 C2550 0.950 . S
H2527 C2551 0.951 . S
H2528 C2553 0.951 . S
H2529 C2555 0.950 . S
H2530 C2556 0.950 . S
H2531 C2558 0.950 . S
H2532 C2561 0.950 . S
H2533 C2562 0.950 . S
H2534 C2564 0.950 . S
H2535 C2565 0.950 . S
C2536 H2518 0.951 . S
C2536 C2537 1.366 . S
C2536 C2538 1.388 . S
C2537 C2536 1.366 . S
C2537 C2541 1.385 . S
C2538 H2519 0.951 . S
C2538 C2536 1.388 . S
C2538 C2539 1.366 . S
C2539 C2538 1.366 . S
C2539 C2540 1.414 . S
C2539 C2542 1.499 . S
C2540 H2520 0.950 . S
C2540 C2539 1.414 . S
C2540 C2541 1.374 . S
C2541 H2521 0.950 . S
C2541 C2537 1.385 . S
C2541 C2540 1.374 . S
C2542 C2539 1.499 . S
C2542 C2543 1.373 . S
C2542 C2544 1.389 . S
C2543 H2522 0.950 . S
C2543 C2542 1.373 . S
C2543 C2559 1.377 1_655 S
C2544 C2542 1.389 . S
C2544 C2545 1.524 . S
C2544 C2558 1.377 1_655 S
C2545 C2544 1.524 . S
C2545 C2546 1.397 . S
C2545 C2550 1.363 . S
C2546 H2523 0.950 . S
C2546 C2545 1.397 . S
C2546 C2547 1.334 . S
C2547 H2524 0.950 . S
C2547 C2546 1.334 . S
C2547 C2548 1.287 . S
C2548 C2547 1.287 . S
C2548 C2549 1.524 . S
C2548 H2567 0.913 . S
C2549 H2525 0.950 . S
C2549 C2548 1.524 . S
C2549 C2550 1.415 . S
C2550 H2526 0.950 . S
C2550 C2545 1.363 . S
C2550 C2549 1.415 . S
C2551 H2527 0.951 . S
C2551 C2552 1.366 . S
C2551 C2553 1.388 . S
C2552 C2551 1.366 . S
C2552 C2556 1.385 . S
C2553 H2528 0.951 . S
C2553 C2551 1.388 . S
C2553 C2554 1.366 . S
C2554 C2553 1.366 . S
C2554 C2555 1.414 . S
C2554 C2557 1.499 . S
C2555 H2529 0.950 . S
C2555 C2554 1.414 . S
C2555 C2556 1.374 . S
C2556 H2530 0.950 . S
C2556 C2552 1.385 . S
C2556 C2555 1.374 . S
C2557 C2554 1.499 . S
C2557 C2558 1.373 . S
C2557 C2559 1.389 . S
C2558 H2531 0.950 . S
C2558 C2544 1.377 1_455 S
C2558 C2557 1.373 . S
C2559 C2543 1.377 1_455 S
C2559 C2557 1.389 . S
C2559 C2560 1.524 . S
C2560 C2559 1.524 . S
C2560 C2561 1.397 . S
C2560 C2565 1.363 . S
C2561 H2532 0.950 . S
C2561 C2560 1.397 . S
C2561 C2562 1.334 . S
C2562 H2533 0.950 . S
C2562 C2561 1.334 . S
C2562 C2563 1.287 . S
C2563 C2562 1.287 . S
C2563 C2564 1.524 . S
C2563 H2566 0.999 . S
C2564 H2534 0.950 . S
C2564 C2563 1.524 . S
C2564 C2565 1.415 . S
C2565 H2535 0.950 . S
C2565 C2560 1.363 . S
C2565 C2564 1.415 . S
H2566 C2563 0.999 . S
H2567 C2548 0.913 . S
H2568 C2586 0.951 . S
H2569 C2588 0.951 . S
H2570 C2590 0.950 . S
H2571 C2591 0.950 . S
H2572 C2593 0.950 . S
H2573 C2596 0.950 . S
H2574 C2597 0.950 . S
H2575 C2599 0.950 . S
H2576 C2600 0.950 . S
H2577 C2601 0.951 . S
H2578 C2603 0.951 . S
H2579 C2605 0.950 . S
H2580 C2606 0.950 . S
H2581 C2608 0.950 . S
H2582 C2611 0.950 . S
H2583 C2612 0.950 . S
H2584 C2614 0.950 . S
H2585 C2615 0.950 . S
C2586 H2568 0.951 . S
C2586 C2587 1.366 . S
C2586 C2588 1.388 . S
C2587 C2586 1.366 . S
C2587 C2591 1.385 . S
C2588 H2569 0.951 . S
C2588 C2586 1.388 . S
C2588 C2589 1.366 . S
C2589 C2588 1.366 . S
C2589 C2590 1.414 . S
C2589 C2592 1.499 . S
C2590 H2570 0.950 . S
C2590 C2589 1.414 . S
C2590 C2591 1.374 . S
C2591 H2571 0.950 . S
C2591 C2587 1.385 . S
C2591 C2590 1.374 . S
C2592 C2589 1.499 . S
C2592 C2593 1.373 . S
C2592 C2594 1.389 . S
C2593 H2572 0.950 . S
C2593 C2592 1.373 . S
C2593 C2609 1.377 . S
C2594 C2592 1.389 . S
C2594 C2595 1.524 . S
C2594 C2608 1.377 . S
C2595 C2594 1.524 . S
C2595 C2596 1.397 . S
C2595 C2600 1.363 . S
C2596 H2573 0.950 . S
C2596 C2595 1.397 . S
C2596 C2597 1.334 . S
C2597 H2574 0.950 . S
C2597 C2596 1.334 . S
C2597 C2598 1.287 . S
C2598 C2597 1.287 . S
C2598 C2599 1.524 . S
C2598 H2617 0.913 . S
C2599 H2575 0.950 . S
C2599 C2598 1.524 . S
C2599 C2600 1.415 . S
C2600 H2576 0.950 . S
C2600 C2595 1.363 . S
C2600 C2599 1.415 . S
C2601 H2577 0.951 . S
C2601 C2602 1.366 . S
C2601 C2603 1.388 . S
C2602 C2601 1.366 . S
C2602 C2606 1.385 . S
C2603 H2578 0.951 . S
C2603 C2601 1.388 . S
C2603 C2604 1.366 . S
C2604 C2603 1.366 . S
C2604 C2605 1.414 . S
C2604 C2607 1.499 . S
C2605 H2579 0.950 . S
C2605 C2604 1.414 . S
C2605 C2606 1.374 . S
C2606 H2580 0.950 . S
C2606 C2602 1.385 . S
C2606 C2605 1.374 . S
C2607 C2604 1.499 . S
C2607 C2608 1.373 . S
C2607 C2609 1.389 . S
C2608 H2581 0.950 . S
C2608 C2594 1.377 . S
C2608 C2607 1.373 . S
C2609 C2593 1.377 . S
C2609 C2607 1.389 . S
C2609 C2610 1.524 . S
C2610 C2609 1.524 . S
C2610 C2611 1.397 . S
C2610 C2615 1.363 . S
C2611 H2582 0.950 . S
C2611 C2610 1.397 . S
C2611 C2612 1.334 . S
C2612 H2583 0.950 . S
C2612 C2611 1.334 . S
C2612 C2613 1.287 . S
C2613 C2612 1.287 . S
C2613 C2614 1.524 . S
C2613 H2616 0.999 . S
C2614 H2584 0.950 . S
C2614 C2613 1.524 . S
C2614 C2615 1.415 . S
C2615 H2585 0.950 . S
C2615 C2610 1.363 . S
C2615 C2614 1.415 . S
H2616 C2613 0.999 . S
H2617 C2598 0.913 . S
H2618 C2636 0.951 . S
H2619 C2638 0.951 . S
H2620 C2640 0.950 . S
H2621 C2641 0.950 . S
H2622 C2643 0.950 . S
H2623 C2646 0.950 . S
H2624 C2647 0.950 . S
H2625 C2649 0.950 . S
H2626 C2650 0.950 . S
H2627 C2651 0.951 . S
H2628 C2653 0.951 . S
H2629 C2655 0.950 . S
H2630 C2656 0.950 . S
H2631 C2658 0.950 . S
H2632 C2661 0.950 . S
H2633 C2662 0.950 . S
H2634 C2664 0.950 . S
H2635 C2665 0.950 . S
C2636 H2618 0.951 . S
C2636 C2637 1.366 . S
C2636 C2638 1.388 . S
C2637 C2636 1.366 . S
C2637 C2641 1.385 . S
C2638 H2619 0.951 . S
C2638 C2636 1.388 . S
C2638 C2639 1.366 . S
C2639 C2638 1.366 . S
C2639 C2640 1.414 . S
C2639 C2642 1.499 . S
C2640 H2620 0.950 . S
C2640 C2639 1.414 . S
C2640 C2641 1.374 . S
C2641 H2621 0.950 . S
C2641 C2637 1.385 . S
C2641 C2640 1.374 . S
C2642 C2639 1.499 . S
C2642 C2643 1.373 . S
C2642 C2644 1.389 . S
C2643 H2622 0.950 . S
C2643 C2642 1.373 . S
C2643 C2659 1.377 . S
C2644 C2642 1.389 . S
C2644 C2645 1.524 . S
C2644 C2658 1.377 . S
C2645 C2644 1.524 . S
C2645 C2646 1.397 . S
C2645 C2650 1.363 . S
C2646 H2623 0.950 . S
C2646 C2645 1.397 . S
C2646 C2647 1.334 . S
C2647 H2624 0.950 . S
C2647 C2646 1.334 . S
C2647 C2648 1.287 . S
C2648 C2647 1.287 . S
C2648 C2649 1.524 . S
C2648 H2667 0.913 . S
C2649 H2625 0.950 . S
C2649 C2648 1.524 . S
C2649 C2650 1.415 . S
C2650 H2626 0.950 . S
C2650 C2645 1.363 . S
C2650 C2649 1.415 . S
C2651 H2627 0.951 . S
C2651 C2652 1.366 . S
C2651 C2653 1.388 . S
C2652 C2651 1.366 . S
C2652 C2656 1.385 . S
C2653 H2628 0.951 . S
C2653 C2651 1.388 . S
C2653 C2654 1.366 . S
C2654 C2653 1.366 . S
C2654 C2655 1.414 . S
C2654 C2657 1.499 . S
C2655 H2629 0.950 . S
C2655 C2654 1.414 . S
C2655 C2656 1.374 . S
C2656 H2630 0.950 . S
C2656 C2652 1.385 . S
C2656 C2655 1.374 . S
C2657 C2654 1.499 . S
C2657 C2658 1.373 . S
C2657 C2659 1.389 . S
C2658 H2631 0.950 . S
C2658 C2644 1.377 . S
C2658 C2657 1.373 . S
C2659 C2643 1.377 . S
C2659 C2657 1.389 . S
C2659 C2660 1.524 . S
C2660 C2659 1.524 . S
C2660 C2661 1.397 . S
C2660 C2665 1.363 . S
C2661 H2632 0.950 . S
C2661 C2660 1.397 . S
C2661 C2662 1.334 . S
C2662 H2633 0.950 . S
C2662 C2661 1.334 . S
C2662 C2663 1.287 . S
C2663 C2662 1.287 . S
C2663 C2664 1.524 . S
C2663 H2666 0.999 . S
C2664 H2634 0.950 . S
C2664 C2663 1.524 . S
C2664 C2665 1.415 . S
C2665 H2635 0.950 . S
C2665 C2660 1.363 . S
C2665 C2664 1.415 . S
H2666 C2663 0.999 . S
H2667 C2648 0.913 . S
H2668 C2686 0.951 . S
H2669 C2688 0.951 . S
H2670 C2690 0.950 . S
H2671 C2691 0.950 . S
H2672 C2693 0.950 . S
H2673 C2696 0.950 . S
H2674 C2697 0.950 . S
H2675 C2699 0.950 . S
H2676 C2700 0.950 . S
H2677 C2701 0.951 . S
H2678 C2703 0.951 . S
H2679 C2705 0.950 . S
H2680 C2706 0.950 . S
H2681 C2708 0.950 . S
H2682 C2711 0.950 . S
H2683 C2712 0.950 . S
H2684 C2714 0.950 . S
H2685 C2715 0.950 . S
C2686 H2668 0.951 . S
C2686 C2687 1.366 . S
C2686 C2688 1.388 . S
C2687 C2686 1.366 . S
C2687 C2691 1.385 . S
C2688 H2669 0.951 . S
C2688 C2686 1.388 . S
C2688 C2689 1.366 . S
C2689 C2688 1.366 . S
C2689 C2690 1.414 . S
C2689 C2692 1.499 . S
C2690 H2670 0.950 . S
C2690 C2689 1.414 . S
C2690 C2691 1.374 . S
C2691 H2671 0.950 . S
C2691 C2687 1.385 . S
C2691 C2690 1.374 . S
C2692 C2689 1.499 . S
C2692 C2693 1.373 . S
C2692 C2694 1.389 . S
C2693 H2672 0.950 . S
C2693 C2692 1.373 . S
C2693 C2709 1.377 . S
C2694 C2692 1.389 . S
C2694 C2695 1.524 . S
C2694 C2708 1.377 . S
C2695 C2694 1.524 . S
C2695 C2696 1.397 . S
C2695 C2700 1.363 . S
C2696 H2673 0.950 . S
C2696 C2695 1.397 . S
C2696 C2697 1.334 . S
C2697 H2674 0.950 . S
C2697 C2696 1.334 . S
C2697 C2698 1.287 . S
C2698 C2697 1.287 . S
C2698 C2699 1.524 . S
C2698 H2717 0.913 . S
C2699 H2675 0.950 . S
C2699 C2698 1.524 . S
C2699 C2700 1.415 . S
C2700 H2676 0.950 . S
C2700 C2695 1.363 . S
C2700 C2699 1.415 . S
C2701 H2677 0.951 . S
C2701 C2702 1.366 . S
C2701 C2703 1.388 . S
C2702 C2701 1.366 . S
C2702 C2706 1.385 . S
C2703 H2678 0.951 . S
C2703 C2701 1.388 . S
C2703 C2704 1.366 . S
C2704 C2703 1.366 . S
C2704 C2705 1.414 . S
C2704 C2707 1.499 . S
C2705 H2679 0.950 . S
C2705 C2704 1.414 . S
C2705 C2706 1.374 . S
C2706 H2680 0.950 . S
C2706 C2702 1.385 . S
C2706 C2705 1.374 . S
C2707 C2704 1.499 . S
C2707 C2708 1.373 . S
C2707 C2709 1.389 . S
C2708 H2681 0.950 . S
C2708 C2694 1.377 . S
C2708 C2707 1.373 . S
C2709 C2693 1.377 . S
C2709 C2707 1.389 . S
C2709 C2710 1.524 . S
C2710 C2709 1.524 . S
C2710 C2711 1.397 . S
C2710 C2715 1.363 . S
C2711 H2682 0.950 . S
C2711 C2710 1.397 . S
C2711 C2712 1.334 . S
C2712 H2683 0.950 . S
C2712 C2711 1.334 . S
C2712 C2713 1.287 . S
C2713 C2712 1.287 . S
C2713 C2714 1.524 . S
C2713 H2716 0.999 . S
C2714 H2684 0.950 . S
C2714 C2713 1.524 . S
C2714 C2715 1.415 . S
C2715 H2685 0.950 . S
C2715 C2710 1.363 . S
C2715 C2714 1.415 . S
H2716 C2713 0.999 . S
H2717 C2698 0.913 . S
H2718 C2736 0.951 . S
H2719 C2738 0.951 . S
H2720 C2740 0.950 . S
H2721 C2741 0.950 . S
H2722 C2743 0.950 . S
H2723 C2746 0.950 . S
H2724 C2747 0.950 . S
H2725 C2749 0.950 . S
H2726 C2750 0.950 . S
H2727 C2751 0.951 . S
H2728 C2753 0.951 . S
H2729 C2755 0.950 . S
H2730 C2756 0.950 . S
H2731 C2758 0.950 . S
H2732 C2761 0.950 . S
H2733 C2762 0.950 . S
H2734 C2764 0.950 . S
H2735 C2765 0.950 . S
C2736 H2718 0.951 . S
C2736 C2737 1.366 . S
C2736 C2738 1.388 . S
C2737 C2736 1.366 . S
C2737 C2741 1.385 . S
C2738 H2719 0.951 . S
C2738 C2736 1.388 . S
C2738 C2739 1.366 . S
C2739 C2738 1.366 . S
C2739 C2740 1.414 . S
C2739 C2742 1.499 . S
C2740 H2720 0.950 . S
C2740 C2739 1.414 . S
C2740 C2741 1.374 . S
C2741 H2721 0.950 . S
C2741 C2737 1.385 . S
C2741 C2740 1.374 . S
C2742 C2739 1.499 . S
C2742 C2743 1.373 . S
C2742 C2744 1.389 . S
C2743 H2722 0.950 . S
C2743 C2742 1.373 . S
C2743 C2759 1.377 . S
C2744 C2742 1.389 . S
C2744 C2745 1.524 . S
C2744 C2758 1.377 . S
C2745 C2744 1.524 . S
C2745 C2746 1.397 . S
C2745 C2750 1.363 . S
C2746 H2723 0.950 . S
C2746 C2745 1.397 . S
C2746 C2747 1.334 . S
C2747 H2724 0.950 . S
C2747 C2746 1.334 . S
C2747 C2748 1.287 . S
C2748 C2747 1.287 . S
C2748 C2749 1.524 . S
C2748 H2767 0.913 . S
C2749 H2725 0.950 . S
C2749 C2748 1.524 . S
C2749 C2750 1.415 . S
C2750 H2726 0.950 . S
C2750 C2745 1.363 . S
C2750 C2749 1.415 . S
C2751 H2727 0.951 . S
C2751 C2752 1.366 . S
C2751 C2753 1.388 . S
C2752 C2751 1.366 . S
C2752 C2756 1.385 . S
C2753 H2728 0.951 . S
C2753 C2751 1.388 . S
C2753 C2754 1.366 . S
C2754 C2753 1.366 . S
C2754 C2755 1.414 . S
C2754 C2757 1.499 . S
C2755 H2729 0.950 . S
C2755 C2754 1.414 . S
C2755 C2756 1.374 . S
C2756 H2730 0.950 . S
C2756 C2752 1.385 . S
C2756 C2755 1.374 . S
C2757 C2754 1.499 . S
C2757 C2758 1.373 . S
C2757 C2759 1.389 . S
C2758 H2731 0.950 . S
C2758 C2744 1.377 . S
C2758 C2757 1.373 . S
C2759 C2743 1.377 . S
C2759 C2757 1.389 . S
C2759 C2760 1.524 . S
C2760 C2759 1.524 . S
C2760 C2761 1.397 . S
C2760 C2765 1.363 . S
C2761 H2732 0.950 . S
C2761 C2760 1.397 . S
C2761 C2762 1.334 . S
C2762 H2733 0.950 . S
C2762 C2761 1.334 . S
C2762 C2763 1.287 . S
C2763 C2762 1.287 . S
C2763 C2764 1.524 . S
C2763 H2766 0.999 . S
C2764 H2734 0.950 . S
C2764 C2763 1.524 . S
C2764 C2765 1.415 . S
C2765 H2735 0.950 . S
C2765 C2760 1.363 . S
C2765 C2764 1.415 . S
H2766 C2763 0.999 . S
H2767 C2748 0.913 . S
H2768 C2786 0.951 . S
H2769 C2788 0.951 . S
H2770 C2790 0.950 . S
H2771 C2791 0.950 . S
H2772 C2793 0.950 . S
H2773 C2796 0.950 . S
H2774 C2797 0.950 . S
H2775 C2799 0.950 . S
H2776 C2800 0.950 . S
H2777 C2801 0.951 . S
H2778 C2803 0.951 . S
H2779 C2805 0.950 . S
H2780 C2806 0.950 . S
H2781 C2808 0.950 . S
H2782 C2811 0.950 . S
H2783 C2812 0.950 . S
H2784 C2814 0.950 . S
H2785 C2815 0.954 . S
C2786 H2768 0.951 . S
C2786 C2787 1.366 . S
C2786 C2788 1.388 . S
C2787 C2786 1.366 . S
C2787 C2791 1.385 . S
C2788 H2769 0.951 . S
C2788 C2786 1.388 . S
C2788 C2789 1.366 . S
C2789 C2788 1.366 . S
C2789 C2790 1.414 . S
C2789 C2792 1.499 . S
C2790 H2770 0.950 . S
C2790 C2789 1.414 . S
C2790 C2791 1.374 . S
C2791 H2771 0.950 . S
C2791 C2787 1.385 . S
C2791 C2790 1.374 . S
C2792 C2789 1.499 . S
C2792 C2793 1.373 . S
C2792 C2794 1.389 . S
C2793 H2772 0.950 . S
C2793 C2792 1.373 . S
C2793 C2809 1.377 . S
C2794 C2792 1.389 . S
C2794 C2795 1.524 . S
C2794 C2808 1.377 . S
C2795 C2794 1.524 . S
C2795 C2796 1.397 . S
C2795 C2800 1.363 . S
C2796 H2773 0.950 . S
C2796 C2795 1.397 . S
C2796 C2797 1.334 . S
C2797 H2774 0.950 . S
C2797 C2796 1.334 . S
C2797 C2798 1.287 . S
C2798 C2797 1.287 . S
C2798 C2799 1.524 . S
C2798 H2817 0.913 . S
C2799 H2775 0.950 . S
C2799 C2798 1.524 . S
C2799 C2800 1.415 . S
C2800 H2776 0.950 . S
C2800 C2795 1.363 . S
C2800 C2799 1.415 . S
C2801 H2777 0.951 . S
C2801 C2802 1.366 . S
C2801 C2803 1.388 . S
C2802 C2801 1.366 . S
C2802 C2806 1.385 . S
C2803 H2778 0.951 . S
C2803 C2801 1.388 . S
C2803 C2804 1.366 . S
C2804 C2803 1.366 . S
C2804 C2805 1.414 . S
C2804 C2807 1.499 . S
C2805 H2779 0.950 . S
C2805 C2804 1.414 . S
C2805 C2806 1.374 . S
C2806 H2780 0.950 . S
C2806 C2802 1.385 . S
C2806 C2805 1.374 . S
C2807 C2804 1.499 . S
C2807 C2808 1.373 . S
C2807 C2809 1.389 . S
C2808 H2781 0.950 . S
C2808 C2794 1.377 . S
C2808 C2807 1.373 . S
C2809 C2793 1.377 . S
C2809 C2807 1.389 . S
C2809 C2810 1.524 . S
C2810 C2809 1.524 . S
C2810 C2811 1.397 . S
C2810 C2815 1.370 . S
C2811 H2782 0.950 . S
C2811 C2810 1.397 . S
C2811 C2812 1.334 1_554 S
C2812 H2783 0.950 . S
C2812 C2811 1.334 1_556 S
C2812 C2813 1.287 . S
C2813 C2812 1.287 . S
C2813 C2814 1.524 . S
C2813 H2816 0.999 . S
C2814 H2784 0.950 . S
C2814 C2813 1.524 . S
C2814 C2815 1.404 1_556 S
C2815 H2785 0.954 . S
C2815 C2810 1.370 . S
C2815 C2814 1.404 1_554 S
H2816 C2813 0.999 . S
H2817 C2798 0.913 . S
H2818 C2836 0.951 . S
H2819 C2838 0.951 . S
H2820 C2840 0.950 . S
H2821 C2841 0.950 . S
H2822 C2843 0.950 . S
H2823 C2846 0.950 . S
H2824 C2847 0.950 . S
H2825 C2849 0.950 . S
H2826 C2850 0.950 . S
H2827 C2851 0.951 . S
H2828 C2853 0.951 . S
H2829 C2855 0.950 . S
H2830 C2856 0.950 . S
H2831 C2858 0.950 . S
H2832 C2861 0.950 1_554 S
H2833 C2862 0.950 . S
H2834 C2864 0.950 . S
H2835 C2865 0.950 1_554 S
C2836 H2818 0.951 . S
C2836 C2837 1.366 . S
C2836 C2838 1.388 . S
C2837 C2836 1.366 . S
C2837 C2841 1.385 . S
C2838 H2819 0.951 . S
C2838 C2836 1.388 . S
C2838 C2839 1.366 . S
C2839 C2838 1.366 . S
C2839 C2840 1.414 . S
C2839 C2842 1.499 . S
C2840 H2820 0.950 . S
C2840 C2839 1.414 . S
C2840 C2841 1.374 . S
C2841 H2821 0.950 . S
C2841 C2837 1.385 . S
C2841 C2840 1.374 . S
C2842 C2839 1.499 . S
C2842 C2843 1.373 . S
C2842 C2844 1.389 . S
C2843 H2822 0.950 . S
C2843 C2842 1.373 . S
C2843 C2859 1.377 . S
C2844 C2842 1.389 . S
C2844 C2845 1.524 . S
C2844 C2858 1.377 . S
C2845 C2844 1.524 . S
C2845 C2846 1.397 . S
C2845 C2850 1.363 . S
C2846 H2823 0.950 . S
C2846 C2845 1.397 . S
C2846 C2847 1.334 . S
C2847 H2824 0.950 . S
C2847 C2846 1.334 . S
C2847 C2848 1.287 . S
C2848 C2847 1.287 . S
C2848 C2849 1.524 . S
C2848 H2867 0.913 . S
C2849 H2825 0.950 . S
C2849 C2848 1.524 . S
C2849 C2850 1.415 . S
C2850 H2826 0.950 . S
C2850 C2845 1.363 . S
C2850 C2849 1.415 . S
C2851 H2827 0.951 . S
C2851 C2852 1.366 . S
C2851 C2853 1.388 . S
C2852 C2851 1.366 . S
C2852 C2856 1.385 . S
C2853 H2828 0.951 . S
C2853 C2851 1.388 . S
C2853 C2854 1.366 . S
C2854 C2853 1.366 . S
C2854 C2855 1.414 . S
C2854 C2857 1.499 . S
C2855 H2829 0.950 . S
C2855 C2854 1.414 . S
C2855 C2856 1.374 . S
C2856 H2830 0.950 . S
C2856 C2852 1.385 . S
C2856 C2855 1.374 . S
C2857 C2854 1.499 . S
C2857 C2858 1.373 . S
C2857 C2859 1.389 . S
C2858 H2831 0.950 . S
C2858 C2844 1.377 . S
C2858 C2857 1.373 . S
C2859 C2843 1.377 . S
C2859 C2857 1.389 . S
C2859 C2860 1.524 . S
C2860 C2859 1.524 . S
C2860 C2861 1.397 1_554 S
C2860 C2865 1.363 1_554 S
C2861 H2832 0.950 1_556 S
C2861 C2860 1.397 1_556 S
C2861 C2862 1.334 . S
C2862 H2833 0.950 . S
C2862 C2861 1.334 . S
C2862 C2863 1.287 . S
C2863 C2862 1.287 . S
C2863 C2864 1.524 . S
C2863 H2866 0.999 . S
C2864 H2834 0.950 . S
C2864 C2863 1.524 . S
C2864 C2865 1.415 . S
C2865 H2835 0.950 1_556 S
C2865 C2860 1.363 1_556 S
C2865 C2864 1.415 . S
H2866 C2863 0.999 . S
H2867 C2848 0.913 . S
H2868 C2886 0.951 . S
H2869 C2888 0.951 . S
H2870 C2890 0.950 . S
H2871 C2891 0.950 . S
H2872 C2893 0.950 . S
H2873 C2896 0.950 . S
H2874 C2897 0.950 . S
H2875 C2899 0.950 . S
H2876 C2900 0.950 . S
H2877 C2901 0.951 . S
H2878 C2903 0.951 . S
H2879 C2905 0.950 . S
H2880 C2906 0.950 . S
H2881 C2908 0.950 . S
H2882 C2911 0.950 . S
H2883 C2912 0.950 . S
H2884 C2914 0.950 . S
H2885 C2915 0.950 . S
C2886 H2868 0.951 . S
C2886 C2887 1.366 . S
C2886 C2888 1.388 . S
C2887 C2886 1.366 . S
C2887 C2891 1.385 . S
C2888 H2869 0.951 . S
C2888 C2886 1.388 . S
C2888 C2889 1.366 . S
C2889 C2888 1.366 . S
C2889 C2890 1.414 . S
C2889 C2892 1.499 . S
C2890 H2870 0.950 . S
C2890 C2889 1.414 . S
C2890 C2891 1.374 . S
C2891 H2871 0.950 . S
C2891 C2887 1.385 . S
C2891 C2890 1.374 . S
C2892 C2889 1.499 . S
C2892 C2893 1.373 . S
C2892 C2894 1.389 . S
C2893 H2872 0.950 . S
C2893 C2892 1.373 . S
C2893 C2909 1.377 . S
C2894 C2892 1.389 . S
C2894 C2895 1.524 . S
C2894 C2908 1.377 . S
C2895 C2894 1.524 . S
C2895 C2896 1.397 . S
C2895 C2900 1.363 . S
C2896 H2873 0.950 . S
C2896 C2895 1.397 . S
C2896 C2897 1.334 . S
C2897 H2874 0.950 . S
C2897 C2896 1.334 . S
C2897 C2898 1.287 . S
C2898 C2897 1.287 . S
C2898 C2899 1.524 . S
C2898 H2917 0.913 . S
C2899 H2875 0.950 . S
C2899 C2898 1.524 . S
C2899 C2900 1.415 . S
C2900 H2876 0.950 . S
C2900 C2895 1.363 . S
C2900 C2899 1.415 . S
C2901 H2877 0.951 . S
C2901 C2902 1.366 . S
C2901 C2903 1.388 . S
C2902 C2901 1.366 . S
C2902 C2906 1.385 . S
C2903 H2878 0.951 . S
C2903 C2901 1.388 . S
C2903 C2904 1.366 . S
C2904 C2903 1.366 . S
C2904 C2905 1.414 . S
C2904 C2907 1.499 . S
C2905 H2879 0.950 . S
C2905 C2904 1.414 . S
C2905 C2906 1.374 . S
C2906 H2880 0.950 . S
C2906 C2902 1.385 . S
C2906 C2905 1.374 . S
C2907 C2904 1.499 . S
C2907 C2908 1.373 . S
C2907 C2909 1.389 . S
C2908 H2881 0.950 . S
C2908 C2894 1.377 . S
C2908 C2907 1.373 . S
C2909 C2893 1.377 . S
C2909 C2907 1.389 . S
C2909 C2910 1.524 . S
C2910 C2909 1.524 . S
C2910 C2911 1.397 . S
C2910 C2915 1.363 . S
C2911 H2882 0.950 . S
C2911 C2910 1.397 . S
C2911 C2912 1.334 . S
C2912 H2883 0.950 . S
C2912 C2911 1.334 . S
C2912 C2913 1.287 . S
C2913 C2912 1.287 . S
C2913 C2914 1.524 . S
C2913 H2916 0.999 . S
C2914 H2884 0.950 . S
C2914 C2913 1.524 . S
C2914 C2915 1.415 . S
C2915 H2885 0.950 . S
C2915 C2910 1.363 . S
C2915 C2914 1.415 . S
H2916 C2913 0.999 . S
H2917 C2898 0.913 . S
H2918 C2936 0.951 . S
H2919 C2938 0.951 . S
H2920 C2940 0.950 . S
H2921 C2941 0.950 . S
H2922 C2943 0.950 . S
H2923 C2946 0.949 1_556 S
H2924 C2947 0.950 . S
H2925 C2949 0.950 . S
H2926 C2950 0.950 . S
H2927 C2951 0.951 . S
H2928 C2953 0.951 . S
H2929 C2955 0.950 . S
H2930 C2956 0.950 . S
H2931 C2958 0.950 . S
H2932 C2961 0.950 . S
H2933 C2962 0.950 . S
H2934 C2964 0.950 . S
H2935 C2965 0.950 . S
C2936 H2918 0.951 . S
C2936 C2937 1.366 . S
C2936 C2938 1.388 . S
C2937 C2936 1.366 . S
C2937 C2941 1.385 . S
C2938 H2919 0.951 . S
C2938 C2936 1.388 . S
C2938 C2939 1.366 . S
C2939 C2938 1.366 . S
C2939 C2940 1.414 . S
C2939 C2942 1.499 . S
C2940 H2920 0.950 . S
C2940 C2939 1.414 . S
C2940 C2941 1.374 . S
C2941 H2921 0.950 . S
C2941 C2937 1.385 . S
C2941 C2940 1.374 . S
C2942 C2939 1.499 . S
C2942 C2943 1.373 . S
C2942 C2944 1.389 . S
C2943 H2922 0.950 . S
C2943 C2942 1.373 . S
C2943 C2959 1.377 . S
C2944 C2942 1.389 . S
C2944 C2945 1.524 . S
C2944 C2958 1.377 . S
C2945 C2944 1.524 . S
C2945 C2946 1.397 1_556 S
C2945 C2950 1.363 . S
C2946 H2923 0.949 1_554 S
C2946 C2945 1.397 1_554 S
C2946 C2947 1.334 . S
C2947 H2924 0.950 . S
C2947 C2946 1.334 . S
C2947 C2948 1.287 . S
C2948 C2947 1.287 . S
C2948 C2949 1.524 . S
C2948 H2967 0.913 . S
C2949 H2925 0.950 . S
C2949 C2948 1.524 . S
C2949 C2950 1.415 1_554 S
C2950 H2926 0.950 . S
C2950 C2945 1.363 . S
C2950 C2949 1.415 1_556 S
C2951 H2927 0.951 . S
C2951 C2952 1.366 . S
C2951 C2953 1.388 . S
C2952 C2951 1.366 . S
C2952 C2956 1.385 . S
C2953 H2928 0.951 . S
C2953 C2951 1.388 . S
C2953 C2954 1.366 . S
C2954 C2953 1.366 . S
C2954 C2955 1.414 . S
C2954 C2957 1.499 . S
C2955 H2929 0.950 . S
C2955 C2954 1.414 . S
C2955 C2956 1.374 . S
C2956 H2930 0.950 . S
C2956 C2952 1.385 . S
C2956 C2955 1.374 . S
C2957 C2954 1.499 . S
C2957 C2958 1.373 . S
C2957 C2959 1.389 . S
C2958 H2931 0.950 . S
C2958 C2944 1.377 . S
C2958 C2957 1.373 . S
C2959 C2943 1.377 . S
C2959 C2957 1.389 . S
C2959 C2960 1.524 . S
C2960 C2959 1.524 . S
C2960 C2961 1.397 . S
C2960 C2965 1.363 . S
C2961 H2932 0.950 . S
C2961 C2960 1.397 . S
C2961 C2962 1.334 . S
C2962 H2933 0.950 . S
C2962 C2961 1.334 . S
C2962 C2963 1.287 . S
C2963 C2962 1.287 . S
C2963 C2964 1.524 . S
C2963 H2966 0.999 . S
C2964 H2934 0.950 . S
C2964 C2963 1.524 . S
C2964 C2965 1.415 . S
C2965 H2935 0.950 . S
C2965 C2960 1.363 . S
C2965 C2964 1.415 . S
H2966 C2963 0.999 . S
H2967 C2948 0.913 . S
H2968 C2986 0.951 . S
H2969 C2988 0.951 . S
H2970 C2990 0.950 . S
H2971 C2991 0.950 . S
H2972 C2993 0.950 . S
H2973 C2996 0.950 . S
H2974 C2997 0.950 . S
H2975 C2999 0.950 . S
H2976 C3000 0.950 . S
H2977 C3001 0.951 . S
H2978 C3003 0.951 . S
H2979 C3005 0.950 . S
H2980 C3006 0.950 . S
H2981 C3008 0.950 . S
H2982 C3011 0.947 1_556 S
H2983 C3012 0.950 . S
H2984 C3014 0.950 . S
H2985 C3015 0.950 . S
C2986 H2968 0.951 . S
C2986 C2987 1.366 . S
C2986 C2988 1.388 . S
C2987 C2986 1.366 . S
C2987 C2991 1.385 . S
C2988 H2969 0.951 . S
C2988 C2986 1.388 . S
C2988 C2989 1.366 . S
C2989 C2988 1.366 . S
C2989 C2990 1.414 . S
C2989 C2992 1.499 . S
C2990 H2970 0.950 . S
C2990 C2989 1.414 . S
C2990 C2991 1.374 . S
C2991 H2971 0.950 . S
C2991 C2987 1.385 . S
C2991 C2990 1.374 . S
C2992 C2989 1.499 . S
C2992 C2993 1.373 . S
C2992 C2994 1.389 . S
C2993 H2972 0.950 . S
C2993 C2992 1.373 . S
C2993 C3009 1.377 . S
C2994 C2992 1.389 . S
C2994 C2995 1.524 . S
C2994 C3008 1.377 . S
C2995 C2994 1.524 . S
C2995 C2996 1.397 . S
C2995 C3000 1.363 . S
C2996 H2973 0.950 . S
C2996 C2995 1.397 . S
C2996 C2997 1.334 . S
C2997 H2974 0.950 . S
C2997 C2996 1.334 . S
C2997 C2998 1.287 . S
C2998 C2997 1.287 . S
C2998 C2999 1.524 . S
C2998 H3017 0.913 . S
C2999 H2975 0.950 . S
C2999 C2998 1.524 . S
C2999 C3000 1.415 . S
C3000 H2976 0.950 . S
C3000 C2995 1.363 . S
C3000 C2999 1.415 . S
C3001 H2977 0.951 . S
C3001 C3002 1.366 . S
C3001 C3003 1.388 . S
C3002 C3001 1.366 . S
C3002 C3006 1.385 . S
C3003 H2978 0.951 . S
C3003 C3001 1.388 . S
C3003 C3004 1.366 . S
C3004 C3003 1.366 . S
C3004 C3005 1.414 . S
C3004 C3007 1.499 . S
C3005 H2979 0.950 . S
C3005 C3004 1.414 . S
C3005 C3006 1.374 . S
C3006 H2980 0.950 . S
C3006 C3002 1.385 . S
C3006 C3005 1.374 . S
C3007 C3004 1.499 . S
C3007 C3008 1.373 . S
C3007 C3009 1.389 . S
C3008 H2981 0.950 . S
C3008 C2994 1.377 . S
C3008 C3007 1.373 . S
C3009 C2993 1.377 . S
C3009 C3007 1.389 . S
C3009 C3010 1.524 . S
C3010 C3009 1.524 . S
C3010 C3011 1.397 1_556 S
C3010 C3015 1.363 . S
C3011 H2982 0.947 1_554 S
C3011 C3010 1.397 1_554 S
C3011 C3012 1.334 . S
C3012 H2983 0.950 . S
C3012 C3011 1.334 . S
C3012 C3013 1.287 . S
C3013 C3012 1.287 . S
C3013 C3014 1.524 . S
C3013 H3016 0.999 . S
C3014 H2984 0.950 . S
C3014 C3013 1.524 . S
C3014 C3015 1.415 1_554 S
C3015 H2985 0.950 . S
C3015 C3010 1.363 . S
C3015 C3014 1.415 1_556 S
H3016 C3013 0.999 . S
H3017 C2998 0.913 . S
H3018 C3036 0.951 . S
H3019 C3038 0.951 . S
H3020 C3040 0.950 . S
H3021 C3041 0.950 . S
H3022 C3043 0.950 . S
H3023 C3046 0.950 . S
H3024 C3047 0.950 . S
H3025 C3049 0.950 . S
H3026 C3050 0.950 . S
H3027 C3051 0.951 . S
H3028 C3053 0.951 . S
H3029 C3055 0.950 . S
H3030 C3056 0.950 . S
H3031 C3058 0.950 . S
H3032 C3061 0.950 . S
H3033 C3062 0.950 . S
H3034 C3064 0.950 . S
H3035 C3065 0.950 . S
C3036 H3018 0.951 . S
C3036 C3037 1.366 . S
C3036 C3038 1.388 . S
C3037 C3036 1.366 . S
C3037 C3041 1.385 . S
C3038 H3019 0.951 . S
C3038 C3036 1.388 . S
C3038 C3039 1.366 . S
C3039 C3038 1.366 . S
C3039 C3040 1.414 . S
C3039 C3042 1.499 . S
C3040 H3020 0.950 . S
C3040 C3039 1.414 . S
C3040 C3041 1.374 . S
C3041 H3021 0.950 . S
C3041 C3037 1.385 . S
C3041 C3040 1.374 . S
C3042 C3039 1.499 . S
C3042 C3043 1.373 . S
C3042 C3044 1.389 . S
C3043 H3022 0.950 . S
C3043 C3042 1.373 . S
C3043 C3059 1.377 . S
C3044 C3042 1.389 . S
C3044 C3045 1.524 . S
C3044 C3058 1.377 . S
C3045 C3044 1.524 . S
C3045 C3046 1.397 . S
C3045 C3050 1.363 . S
C3046 H3023 0.950 . S
C3046 C3045 1.397 . S
C3046 C3047 1.334 . S
C3047 H3024 0.950 . S
C3047 C3046 1.334 . S
C3047 C3048 1.287 . S
C3048 C3047 1.287 . S
C3048 C3049 1.524 . S
C3048 H3067 0.913 . S
C3049 H3025 0.950 . S
C3049 C3048 1.524 . S
C3049 C3050 1.415 . S
C3050 H3026 0.950 . S
C3050 C3045 1.363 . S
C3050 C3049 1.415 . S
C3051 H3027 0.951 . S
C3051 C3052 1.366 . S
C3051 C3053 1.388 . S
C3052 C3051 1.366 . S
C3052 C3056 1.385 . S
C3053 H3028 0.951 . S
C3053 C3051 1.388 . S
C3053 C3054 1.366 . S
C3054 C3053 1.366 . S
C3054 C3055 1.414 . S
C3054 C3057 1.499 . S
C3055 H3029 0.950 . S
C3055 C3054 1.414 . S
C3055 C3056 1.374 . S
C3056 H3030 0.950 . S
C3056 C3052 1.385 . S
C3056 C3055 1.374 . S
C3057 C3054 1.499 . S
C3057 C3058 1.373 . S
C3057 C3059 1.389 . S
C3058 H3031 0.950 . S
C3058 C3044 1.377 . S
C3058 C3057 1.373 . S
C3059 C3043 1.377 . S
C3059 C3057 1.389 . S
C3059 C3060 1.524 . S
C3060 C3059 1.524 . S
C3060 C3061 1.397 . S
C3060 C3065 1.363 . S
C3061 H3032 0.950 . S
C3061 C3060 1.397 . S
C3061 C3062 1.334 . S
C3062 H3033 0.950 . S
C3062 C3061 1.334 . S
C3062 C3063 1.287 . S
C3063 C3062 1.287 . S
C3063 C3064 1.524 . S
C3063 H3066 0.999 . S
C3064 H3034 0.950 . S
C3064 C3063 1.524 . S
C3064 C3065 1.415 . S
C3065 H3035 0.950 . S
C3065 C3060 1.363 . S
C3065 C3064 1.415 . S
H3066 C3063 0.999 . S
H3067 C3048 0.913 . S
H3068 C3086 0.951 . S
H3069 C3088 0.951 . S
H3070 C3090 0.950 . S
H3071 C3091 0.950 . S
H3072 C3093 0.950 . S
H3073 C3096 0.950 . S
H3074 C3097 0.950 . S
H3075 C3099 0.950 . S
H3076 C3100 0.950 . S
H3077 C3101 0.951 . S
H3078 C3103 0.951 . S
H3079 C3105 0.950 . S
H3080 C3106 0.950 . S
H3081 C3108 0.950 . S
H3082 C3111 0.950 . S
H3083 C3112 0.950 . S
H3084 C3114 0.950 . S
H3085 C3115 0.950 . S
C3086 H3068 0.951 . S
C3086 C3087 1.366 . S
C3086 C3088 1.388 . S
C3087 C3086 1.366 . S
C3087 C3091 1.385 . S
C3088 H3069 0.951 . S
C3088 C3086 1.388 . S
C3088 C3089 1.366 . S
C3089 C3088 1.366 . S
C3089 C3090 1.414 . S
C3089 C3092 1.499 . S
C3090 H3070 0.950 . S
C3090 C3089 1.414 . S
C3090 C3091 1.374 . S
C3091 H3071 0.950 . S
C3091 C3087 1.385 . S
C3091 C3090 1.374 . S
C3092 C3089 1.499 . S
C3092 C3093 1.373 . S
C3092 C3094 1.389 . S
C3093 H3072 0.950 . S
C3093 C3092 1.373 . S
C3093 C3109 1.377 . S
C3094 C3092 1.389 . S
C3094 C3095 1.524 . S
C3094 C3108 1.377 . S
C3095 C3094 1.524 . S
C3095 C3096 1.397 . S
C3095 C3100 1.363 . S
C3096 H3073 0.950 . S
C3096 C3095 1.397 . S
C3096 C3097 1.334 . S
C3097 H3074 0.950 . S
C3097 C3096 1.334 . S
C3097 C3098 1.287 . S
C3098 C3097 1.287 . S
C3098 C3099 1.524 . S
C3098 H3117 0.913 . S
C3099 H3075 0.950 . S
C3099 C3098 1.524 . S
C3099 C3100 1.415 . S
C3100 H3076 0.950 . S
C3100 C3095 1.363 . S
C3100 C3099 1.415 . S
C3101 H3077 0.951 . S
C3101 C3102 1.366 . S
C3101 C3103 1.388 . S
C3102 C3101 1.366 . S
C3102 C3106 1.385 . S
C3103 H3078 0.951 . S
C3103 C3101 1.388 . S
C3103 C3104 1.366 . S
C3104 C3103 1.366 . S
C3104 C3105 1.414 . S
C3104 C3107 1.499 . S
C3105 H3079 0.950 . S
C3105 C3104 1.414 . S
C3105 C3106 1.374 . S
C3106 H3080 0.950 . S
C3106 C3102 1.385 . S
C3106 C3105 1.374 . S
C3107 C3104 1.499 . S
C3107 C3108 1.373 . S
C3107 C3109 1.389 . S
C3108 H3081 0.950 . S
C3108 C3094 1.377 . S
C3108 C3107 1.373 . S
C3109 C3093 1.377 . S
C3109 C3107 1.389 . S
C3109 C3110 1.524 . S
C3110 C3109 1.524 . S
C3110 C3111 1.397 . S
C3110 C3115 1.363 . S
C3111 H3082 0.950 . S
C3111 C3110 1.397 . S
C3111 C3112 1.334 . S
C3112 H3083 0.950 . S
C3112 C3111 1.334 . S
C3112 C3113 1.287 . S
C3113 C3112 1.287 . S
C3113 C3114 1.524 . S
C3113 H3116 0.999 . S
C3114 H3084 0.950 . S
C3114 C3113 1.524 . S
C3114 C3115 1.415 . S
C3115 H3085 0.950 . S
C3115 C3110 1.363 . S
C3115 C3114 1.415 . S
H3116 C3113 0.999 . S
H3117 C3098 0.913 . S
H3118 C3136 0.951 . S
H3119 C3138 0.951 . S
H3120 C3140 0.950 . S
H3121 C3141 0.950 . S
H3122 C3143 0.950 . S
H3123 C3146 0.950 . S
H3124 C3147 0.950 . S
H3125 C3149 0.950 . S
H3126 C3150 0.950 . S
H3127 C3151 0.951 . S
H3128 C3153 0.951 . S
H3129 C3155 0.950 . S
H3130 C3156 0.950 . S
H3131 C3158 0.950 . S
H3132 C3161 0.950 . S
H3133 C3162 0.950 . S
H3134 C3164 0.950 . S
H3135 C3165 0.950 . S
C3136 H3118 0.951 . S
C3136 C3137 1.366 . S
C3136 C3138 1.388 . S
C3137 C3136 1.366 . S
C3137 C3141 1.385 . S
C3138 H3119 0.951 . S
C3138 C3136 1.388 . S
C3138 C3139 1.366 . S
C3139 C3138 1.366 . S
C3139 C3140 1.414 . S
C3139 C3142 1.499 . S
C3140 H3120 0.950 . S
C3140 C3139 1.414 . S
C3140 C3141 1.374 . S
C3141 H3121 0.950 . S
C3141 C3137 1.385 . S
C3141 C3140 1.374 . S
C3142 C3139 1.499 . S
C3142 C3143 1.373 . S
C3142 C3144 1.389 . S
C3143 H3122 0.950 . S
C3143 C3142 1.373 . S
C3143 C3159 1.377 . S
C3144 C3142 1.389 . S
C3144 C3145 1.524 . S
C3144 C3158 1.377 . S
C3145 C3144 1.524 . S
C3145 C3146 1.397 . S
C3145 C3150 1.363 . S
C3146 H3123 0.950 . S
C3146 C3145 1.397 . S
C3146 C3147 1.334 . S
C3147 H3124 0.950 . S
C3147 C3146 1.334 . S
C3147 C3148 1.287 . S
C3148 C3147 1.287 . S
C3148 C3149 1.524 . S
C3148 H3167 0.913 . S
C3149 H3125 0.950 . S
C3149 C3148 1.524 . S
C3149 C3150 1.415 . S
C3150 H3126 0.950 . S
C3150 C3145 1.363 . S
C3150 C3149 1.415 . S
C3151 H3127 0.951 . S
C3151 C3152 1.366 . S
C3151 C3153 1.388 . S
C3152 C3151 1.366 . S
C3152 C3156 1.385 . S
C3153 H3128 0.951 . S
C3153 C3151 1.388 . S
C3153 C3154 1.366 . S
C3154 C3153 1.366 . S
C3154 C3155 1.414 . S
C3154 C3157 1.499 . S
C3155 H3129 0.950 . S
C3155 C3154 1.414 . S
C3155 C3156 1.374 . S
C3156 H3130 0.950 . S
C3156 C3152 1.385 . S
C3156 C3155 1.374 . S
C3157 C3154 1.499 . S
C3157 C3158 1.373 . S
C3157 C3159 1.389 . S
C3158 H3131 0.950 . S
C3158 C3144 1.377 . S
C3158 C3157 1.373 . S
C3159 C3143 1.377 . S
C3159 C3157 1.389 . S
C3159 C3160 1.524 . S
C3160 C3159 1.524 . S
C3160 C3161 1.397 . S
C3160 C3165 1.363 . S
C3161 H3132 0.950 . S
C3161 C3160 1.397 . S
C3161 C3162 1.334 . S
C3162 H3133 0.950 . S
C3162 C3161 1.334 . S
C3162 C3163 1.287 . S
C3163 C3162 1.287 . S
C3163 C3164 1.524 . S
C3163 H3166 0.999 . S
C3164 H3134 0.950 . S
C3164 C3163 1.524 . S
C3164 C3165 1.415 . S
C3165 H3135 0.950 . S
C3165 C3160 1.363 . S
C3165 C3164 1.415 . S
H3166 C3163 0.999 . S
H3167 C3148 0.913 . S
H3168 C3186 0.951 . S
H3169 C3188 0.951 . S
H3170 C3190 0.950 . S
H3171 C3191 0.950 . S
H3172 C3193 0.950 . S
H3173 C3196 0.950 . S
H3174 C3197 0.950 . S
H3175 C3199 0.950 . S
H3176 C3200 0.950 . S
H3177 C3201 0.951 . S
H3178 C3203 0.951 . S
H3179 C3205 0.950 . S
H3180 C3206 0.950 . S
H3181 C3208 0.950 . S
H3182 C3211 0.950 . S
H3183 C3212 0.950 . S
H3184 C3214 0.950 . S
H3185 C3215 0.950 . S
C3186 H3168 0.951 . S
C3186 C3187 1.366 . S
C3186 C3188 1.388 . S
C3187 C3186 1.366 . S
C3187 C3191 1.385 . S
C3188 H3169 0.951 . S
C3188 C3186 1.388 . S
C3188 C3189 1.366 . S
C3189 C3188 1.366 . S
C3189 C3190 1.414 . S
C3189 C3192 1.499 . S
C3190 H3170 0.950 . S
C3190 C3189 1.414 . S
C3190 C3191 1.374 . S
C3191 H3171 0.950 . S
C3191 C3187 1.385 . S
C3191 C3190 1.374 . S
C3192 C3189 1.499 . S
C3192 C3193 1.373 . S
C3192 C3194 1.389 . S
C3193 H3172 0.950 . S
C3193 C3192 1.373 . S
C3193 C3209 1.377 . S
C3194 C3192 1.389 . S
C3194 C3195 1.524 . S
C3194 C3208 1.377 . S
C3195 C3194 1.524 . S
C3195 C3196 1.397 . S
C3195 C3200 1.363 . S
C3196 H3173 0.950 . S
C3196 C3195 1.397 . S
C3196 C3197 1.334 . S
C3197 H3174 0.950 . S
C3197 C3196 1.334 . S
C3197 C3198 1.287 . S
C3198 C3197 1.287 . S
C3198 C3199 1.524 . S
C3198 H3217 0.913 . S
C3199 H3175 0.950 . S
C3199 C3198 1.524 . S
C3199 C3200 1.415 . S
C3200 H3176 0.950 . S
C3200 C3195 1.363 . S
C3200 C3199 1.415 . S
C3201 H3177 0.951 . S
C3201 C3202 1.366 . S
C3201 C3203 1.388 . S
C3202 C3201 1.366 . S
C3202 C3206 1.385 . S
C3203 H3178 0.951 . S
C3203 C3201 1.388 . S
C3203 C3204 1.366 . S
C3204 C3203 1.366 . S
C3204 C3205 1.414 . S
C3204 C3207 1.499 . S
C3205 H3179 0.950 . S
C3205 C3204 1.414 . S
C3205 C3206 1.374 . S
C3206 H3180 0.950 . S
C3206 C3202 1.385 . S
C3206 C3205 1.374 . S
C3207 C3204 1.499 . S
C3207 C3208 1.373 . S
C3207 C3209 1.389 . S
C3208 H3181 0.950 . S
C3208 C3194 1.377 . S
C3208 C3207 1.373 . S
C3209 C3193 1.377 . S
C3209 C3207 1.389 . S
C3209 C3210 1.524 . S
C3210 C3209 1.524 . S
C3210 C3211 1.397 . S
C3210 C3215 1.363 . S
C3211 H3182 0.950 . S
C3211 C3210 1.397 . S
C3211 C3212 1.334 . S
C3212 H3183 0.950 . S
C3212 C3211 1.334 . S
C3212 C3213 1.287 . S
C3213 C3212 1.287 . S
C3213 C3214 1.524 . S
C3213 H3216 0.999 . S
C3214 H3184 0.950 . S
C3214 C3213 1.524 . S
C3214 C3215 1.415 . S
C3215 H3185 0.950 . S
C3215 C3210 1.363 . S
C3215 C3214 1.415 . S
H3216 C3213 0.999 . S
H3217 C3198 0.913 . S
H3218 C3236 0.951 . S
H3219 C3238 0.951 . S
H3220 C3240 0.950 . S
H3221 C3241 0.950 . S
H3222 C3243 0.950 . S
H3223 C3246 0.950 . S
H3224 C3247 0.950 . S
H3225 C3249 0.950 . S
H3226 C3250 0.950 . S
H3227 C3251 0.951 . S
H3228 C3253 0.951 . S
H3229 C3255 0.950 . S
H3230 C3256 0.950 . S
H3231 C3258 0.950 . S
H3232 C3261 0.950 . S
H3233 C3262 0.950 . S
H3234 C3264 0.950 . S
H3235 C3265 0.950 . S
C3236 H3218 0.951 . S
C3236 C3237 1.366 . S
C3236 C3238 1.388 . S
C3237 C3236 1.366 . S
C3237 C3241 1.385 . S
C3238 H3219 0.951 . S
C3238 C3236 1.388 . S
C3238 C3239 1.366 . S
C3239 C3238 1.366 . S
C3239 C3240 1.414 . S
C3239 C3242 1.499 . S
C3240 H3220 0.950 . S
C3240 C3239 1.414 . S
C3240 C3241 1.374 . S
C3241 H3221 0.950 . S
C3241 C3237 1.385 . S
C3241 C3240 1.374 . S
C3242 C3239 1.499 . S
C3242 C3243 1.373 . S
C3242 C3244 1.389 . S
C3243 H3222 0.950 . S
C3243 C3242 1.373 . S
C3243 C3259 1.377 . S
C3244 C3242 1.389 . S
C3244 C3245 1.524 . S
C3244 C3258 1.377 . S
C3245 C3244 1.524 . S
C3245 C3246 1.397 . S
C3245 C3250 1.363 . S
C3246 H3223 0.950 . S
C3246 C3245 1.397 . S
C3246 C3247 1.334 . S
C3247 H3224 0.950 . S
C3247 C3246 1.334 . S
C3247 C3248 1.287 . S
C3248 C3247 1.287 . S
C3248 C3249 1.524 . S
C3248 H3267 0.913 . S
C3249 H3225 0.950 . S
C3249 C3248 1.524 . S
C3249 C3250 1.415 . S
C3250 H3226 0.950 . S
C3250 C3245 1.363 . S
C3250 C3249 1.415 . S
C3251 H3227 0.951 . S
C3251 C3252 1.366 . S
C3251 C3253 1.388 . S
C3252 C3251 1.366 . S
C3252 C3256 1.385 . S
C3253 H3228 0.951 . S
C3253 C3251 1.388 . S
C3253 C3254 1.366 . S
C3254 C3253 1.366 . S
C3254 C3255 1.414 . S
C3254 C3257 1.499 . S
C3255 H3229 0.950 . S
C3255 C3254 1.414 . S
C3255 C3256 1.374 . S
C3256 H3230 0.950 . S
C3256 C3252 1.385 . S
C3256 C3255 1.374 . S
C3257 C3254 1.499 . S
C3257 C3258 1.373 . S
C3257 C3259 1.389 . S
C3258 H3231 0.950 . S
C3258 C3244 1.377 . S
C3258 C3257 1.373 . S
C3259 C3243 1.377 . S
C3259 C3257 1.389 . S
C3259 C3260 1.524 . S
C3260 C3259 1.524 . S
C3260 C3261 1.397 . S
C3260 C3265 1.363 . S
C3261 H3232 0.950 . S
C3261 C3260 1.397 . S
C3261 C3262 1.334 . S
C3262 H3233 0.950 . S
C3262 C3261 1.334 . S
C3262 C3263 1.287 . S
C3263 C3262 1.287 . S
C3263 C3264 1.524 . S
C3263 H3266 0.999 . S
C3264 H3234 0.950 . S
C3264 C3263 1.524 . S
C3264 C3265 1.415 . S
C3265 H3235 0.950 . S
C3265 C3260 1.363 . S
C3265 C3264 1.415 . S
H3266 C3263 0.999 . S
H3267 C3248 0.913 . S
H3268 C3286 0.951 . S
H3269 C3288 0.951 . S
H3270 C3290 0.950 . S
H3271 C3291 0.950 . S
H3272 C3293 0.950 . S
H3273 C3296 0.950 . S
H3274 C3297 0.950 . S
H3275 C3299 0.950 . S
H3276 C3300 0.950 . S
H3277 C3301 0.951 . S
H3278 C3303 0.951 . S
H3279 C3305 0.950 . S
H3280 C3306 0.950 . S
H3281 C3308 0.950 . S
H3282 C3311 0.950 . S
H3283 C3312 0.950 . S
H3284 C3314 0.950 . S
H3285 C3315 0.950 . S
C3286 H3268 0.951 . S
C3286 C3287 1.366 . S
C3286 C3288 1.388 . S
C3287 C3286 1.366 . S
C3287 C3291 1.385 . S
C3288 H3269 0.951 . S
C3288 C3286 1.388 . S
C3288 C3289 1.366 . S
C3289 C3288 1.366 . S
C3289 C3290 1.414 . S
C3289 C3292 1.499 . S
C3290 H3270 0.950 . S
C3290 C3289 1.414 . S
C3290 C3291 1.374 . S
C3291 H3271 0.950 . S
C3291 C3287 1.385 . S
C3291 C3290 1.374 . S
C3292 C3289 1.499 . S
C3292 C3293 1.373 . S
C3292 C3294 1.389 . S
C3293 H3272 0.950 . S
C3293 C3292 1.373 . S
C3293 C3309 1.377 . S
C3294 C3292 1.389 . S
C3294 C3295 1.524 . S
C3294 C3308 1.377 . S
C3295 C3294 1.524 . S
C3295 C3296 1.397 . S
C3295 C3300 1.363 . S
C3296 H3273 0.950 . S
C3296 C3295 1.397 . S
C3296 C3297 1.334 . S
C3297 H3274 0.950 . S
C3297 C3296 1.334 . S
C3297 C3298 1.287 . S
C3298 C3297 1.287 . S
C3298 C3299 1.524 . S
C3298 H3317 0.913 . S
C3299 H3275 0.950 . S
C3299 C3298 1.524 . S
C3299 C3300 1.415 . S
C3300 H3276 0.950 . S
C3300 C3295 1.363 . S
C3300 C3299 1.415 . S
C3301 H3277 0.951 . S
C3301 C3302 1.366 . S
C3301 C3303 1.388 . S
C3302 C3301 1.366 . S
C3302 C3306 1.385 . S
C3303 H3278 0.951 . S
C3303 C3301 1.388 . S
C3303 C3304 1.366 . S
C3304 C3303 1.366 . S
C3304 C3305 1.414 . S
C3304 C3307 1.499 . S
C3305 H3279 0.950 . S
C3305 C3304 1.414 . S
C3305 C3306 1.374 . S
C3306 H3280 0.950 . S
C3306 C3302 1.385 . S
C3306 C3305 1.374 . S
C3307 C3304 1.499 . S
C3307 C3308 1.373 . S
C3307 C3309 1.389 . S
C3308 H3281 0.950 . S
C3308 C3294 1.377 . S
C3308 C3307 1.373 . S
C3309 C3293 1.377 . S
C3309 C3307 1.389 . S
C3309 C3310 1.524 . S
C3310 C3309 1.524 . S
C3310 C3311 1.397 . S
C3310 C3315 1.363 . S
C3311 H3282 0.950 . S
C3311 C3310 1.397 . S
C3311 C3312 1.334 . S
C3312 H3283 0.950 . S
C3312 C3311 1.334 . S
C3312 C3313 1.287 . S
C3313 C3312 1.287 . S
C3313 C3314 1.524 . S
C3313 H3316 0.999 . S
C3314 H3284 0.950 . S
C3314 C3313 1.524 . S
C3314 C3315 1.415 . S
C3315 H3285 0.950 . S
C3315 C3310 1.363 . S
C3315 C3314 1.415 . S
H3316 C3313 0.999 . S
H3317 C3298 0.913 . S
H3318 C3336 0.951 . S
H3319 C3338 0.951 . S
H3320 C3340 0.950 . S
H3321 C3341 0.950 . S
H3322 C3343 0.950 . S
H3323 C3346 0.950 . S
H3324 C3347 0.950 . S
H3325 C3349 0.950 . S
H3326 C3350 0.950 . S
H3327 C3351 0.951 . S
H3328 C3353 0.951 . S
H3329 C3355 0.950 . S
H3330 C3356 0.950 . S
H3331 C3358 0.950 . S
H3332 C3361 0.950 . S
H3333 C3362 0.950 . S
H3334 C3364 0.950 . S
H3335 C3365 0.950 . S
C3336 H3318 0.951 . S
C3336 C3337 1.366 . S
C3336 C3338 1.388 . S
C3337 C3336 1.366 . S
C3337 C3341 1.385 . S
C3338 H3319 0.951 . S
C3338 C3336 1.388 . S
C3338 C3339 1.366 . S
C3339 C3338 1.366 . S
C3339 C3340 1.414 . S
C3339 C3342 1.499 . S
C3340 H3320 0.950 . S
C3340 C3339 1.414 . S
C3340 C3341 1.374 . S
C3341 H3321 0.950 . S
C3341 C3337 1.385 . S
C3341 C3340 1.374 . S
C3342 C3339 1.499 . S
C3342 C3343 1.373 . S
C3342 C3344 1.389 . S
C3343 H3322 0.950 . S
C3343 C3342 1.373 . S
C3343 C3359 1.377 . S
C3344 C3342 1.389 . S
C3344 C3345 1.524 . S
C3344 C3358 1.377 . S
C3345 C3344 1.524 . S
C3345 C3346 1.397 . S
C3345 C3350 1.363 . S
C3346 H3323 0.950 . S
C3346 C3345 1.397 . S
C3346 C3347 1.334 . S
C3347 H3324 0.950 . S
C3347 C3346 1.334 . S
C3347 C3348 1.287 . S
C3348 C3347 1.287 . S
C3348 C3349 1.524 . S
C3348 H3367 0.913 . S
C3349 H3325 0.950 . S
C3349 C3348 1.524 . S
C3349 C3350 1.415 . S
C3350 H3326 0.950 . S
C3350 C3345 1.363 . S
C3350 C3349 1.415 . S
C3351 H3327 0.951 . S
C3351 C3352 1.366 . S
C3351 C3353 1.388 . S
C3352 C3351 1.366 . S
C3352 C3356 1.385 . S
C3353 H3328 0.951 . S
C3353 C3351 1.388 . S
C3353 C3354 1.366 . S
C3354 C3353 1.366 . S
C3354 C3355 1.414 . S
C3354 C3357 1.499 . S
C3355 H3329 0.950 . S
C3355 C3354 1.414 . S
C3355 C3356 1.374 . S
C3356 H3330 0.950 . S
C3356 C3352 1.385 . S
C3356 C3355 1.374 . S
C3357 C3354 1.499 . S
C3357 C3358 1.373 . S
C3357 C3359 1.389 . S
C3358 H3331 0.950 . S
C3358 C3344 1.377 . S
C3358 C3357 1.373 . S
C3359 C3343 1.377 . S
C3359 C3357 1.389 . S
C3359 C3360 1.524 . S
C3360 C3359 1.524 . S
C3360 C3361 1.397 . S
C3360 C3365 1.363 . S
C3361 H3332 0.950 . S
C3361 C3360 1.397 . S
C3361 C3362 1.334 . S
C3362 H3333 0.950 . S
C3362 C3361 1.334 . S
C3362 C3363 1.287 . S
C3363 C3362 1.287 . S
C3363 C3364 1.524 . S
C3363 H3366 0.999 . S
C3364 H3334 0.950 . S
C3364 C3363 1.524 . S
C3364 C3365 1.415 . S
C3365 H3335 0.950 . S
C3365 C3360 1.363 . S
C3365 C3364 1.415 . S
H3366 C3363 0.999 . S
H3367 C3348 0.913 . S
H3368 C3386 0.951 . S
H3369 C3388 0.951 . S
H3370 C3390 0.950 . S
H3371 C3391 0.950 . S
H3372 C3393 0.950 . S
H3373 C3396 0.950 . S
H3374 C3397 0.950 . S
H3375 C3399 0.950 . S
H3376 C3400 0.950 . S
H3377 C3401 0.951 . S
H3378 C3403 0.951 . S
H3379 C3405 0.950 . S
H3380 C3406 0.950 . S
H3381 C3408 0.950 . S
H3382 C3411 0.950 . S
H3383 C3412 0.950 . S
H3384 C3414 0.950 . S
H3385 C3415 0.950 . S
C3386 H3368 0.951 . S
C3386 C3387 1.366 . S
C3386 C3388 1.388 . S
C3387 C3386 1.366 . S
C3387 C3391 1.385 . S
C3388 H3369 0.951 . S
C3388 C3386 1.388 . S
C3388 C3389 1.366 . S
C3389 C3388 1.366 . S
C3389 C3390 1.414 . S
C3389 C3392 1.499 . S
C3390 H3370 0.950 . S
C3390 C3389 1.414 . S
C3390 C3391 1.374 . S
C3391 H3371 0.950 . S
C3391 C3387 1.385 . S
C3391 C3390 1.374 . S
C3392 C3389 1.499 . S
C3392 C3393 1.373 . S
C3392 C3394 1.389 . S
C3393 H3372 0.950 . S
C3393 C3392 1.373 . S
C3393 C3409 1.377 . S
C3394 C3392 1.389 . S
C3394 C3395 1.524 . S
C3394 C3408 1.377 . S
C3395 C3394 1.524 . S
C3395 C3396 1.397 . S
C3395 C3400 1.363 . S
C3396 H3373 0.950 . S
C3396 C3395 1.397 . S
C3396 C3397 1.334 . S
C3397 H3374 0.950 . S
C3397 C3396 1.334 . S
C3397 C3398 1.287 . S
C3398 C3397 1.287 . S
C3398 C3399 1.524 . S
C3398 H3417 0.913 . S
C3399 H3375 0.950 . S
C3399 C3398 1.524 . S
C3399 C3400 1.415 . S
C3400 H3376 0.950 . S
C3400 C3395 1.363 . S
C3400 C3399 1.415 . S
C3401 H3377 0.951 . S
C3401 C3402 1.366 . S
C3401 C3403 1.388 . S
C3402 C3401 1.366 . S
C3402 C3406 1.385 . S
C3403 H3378 0.951 . S
C3403 C3401 1.388 . S
C3403 C3404 1.366 . S
C3404 C3403 1.366 . S
C3404 C3405 1.414 . S
C3404 C3407 1.499 . S
C3405 H3379 0.950 . S
C3405 C3404 1.414 . S
C3405 C3406 1.374 . S
C3406 H3380 0.950 . S
C3406 C3402 1.385 . S
C3406 C3405 1.374 . S
C3407 C3404 1.499 . S
C3407 C3408 1.373 . S
C3407 C3409 1.389 . S
C3408 H3381 0.950 . S
C3408 C3394 1.377 . S
C3408 C3407 1.373 . S
C3409 C3393 1.377 . S
C3409 C3407 1.389 . S
C3409 C3410 1.524 . S
C3410 C3409 1.524 . S
C3410 C3411 1.397 . S
C3410 C3415 1.363 . S
C3411 H3382 0.950 . S
C3411 C3410 1.397 . S
C3411 C3412 1.334 . S
C3412 H3383 0.950 . S
C3412 C3411 1.334 . S
C3412 C3413 1.287 . S
C3413 C3412 1.287 . S
C3413 C3414 1.524 . S
C3413 H3416 0.999 . S
C3414 H3384 0.950 . S
C3414 C3413 1.524 . S
C3414 C3415 1.415 . S
C3415 H3385 0.950 . S
C3415 C3410 1.363 . S
C3415 C3414 1.415 . S
H3416 C3413 0.999 . S
H3417 C3398 0.913 . S
H3418 C3436 0.951 . S
H3419 C3438 0.951 . S
H3420 C3440 0.950 . S
H3421 C3441 0.950 . S
H3422 C3443 0.950 . S
H3423 C3446 0.950 . S
H3424 C3447 0.950 . S
H3425 C3449 0.950 . S
H3426 C3450 0.950 . S
H3427 C3451 0.951 . S
H3428 C3453 0.951 . S
H3429 C3455 0.950 . S
H3430 C3456 0.950 . S
H3431 C3458 0.950 . S
H3432 C3461 0.950 . S
H3433 C3462 0.950 . S
H3434 C3464 0.950 . S
H3435 C3465 0.950 . S
C3436 H3418 0.951 . S
C3436 C3437 1.366 . S
C3436 C3438 1.388 . S
C3437 C3436 1.366 . S
C3437 C3441 1.385 . S
C3438 H3419 0.951 . S
C3438 C3436 1.388 . S
C3438 C3439 1.366 . S
C3439 C3438 1.366 . S
C3439 C3440 1.414 . S
C3439 C3442 1.499 . S
C3440 H3420 0.950 . S
C3440 C3439 1.414 . S
C3440 C3441 1.374 . S
C3441 H3421 0.950 . S
C3441 C3437 1.385 . S
C3441 C3440 1.374 . S
C3442 C3439 1.499 . S
C3442 C3443 1.373 . S
C3442 C3444 1.389 . S
C3443 H3422 0.950 . S
C3443 C3442 1.373 . S
C3443 C3459 1.377 . S
C3444 C3442 1.389 . S
C3444 C3445 1.524 . S
C3444 C3458 1.377 . S
C3445 C3444 1.524 . S
C3445 C3446 1.397 . S
C3445 C3450 1.363 . S
C3446 H3423 0.950 . S
C3446 C3445 1.397 . S
C3446 C3447 1.334 . S
C3447 H3424 0.950 . S
C3447 C3446 1.334 . S
C3447 C3448 1.287 . S
C3448 C3447 1.287 . S
C3448 C3449 1.524 . S
C3448 H3467 0.913 . S
C3449 H3425 0.950 . S
C3449 C3448 1.524 . S
C3449 C3450 1.415 . S
C3450 H3426 0.950 . S
C3450 C3445 1.363 . S
C3450 C3449 1.415 . S
C3451 H3427 0.951 . S
C3451 C3452 1.366 . S
C3451 C3453 1.388 . S
C3452 C3451 1.366 . S
C3452 C3456 1.385 . S
C3453 H3428 0.951 . S
C3453 C3451 1.388 . S
C3453 C3454 1.366 . S
C3454 C3453 1.366 . S
C3454 C3455 1.414 . S
C3454 C3457 1.499 . S
C3455 H3429 0.950 . S
C3455 C3454 1.414 . S
C3455 C3456 1.374 . S
C3456 H3430 0.950 . S
C3456 C3452 1.385 . S
C3456 C3455 1.374 . S
C3457 C3454 1.499 . S
C3457 C3458 1.373 . S
C3457 C3459 1.389 . S
C3458 H3431 0.950 . S
C3458 C3444 1.377 . S
C3458 C3457 1.373 . S
C3459 C3443 1.377 . S
C3459 C3457 1.389 . S
C3459 C3460 1.524 . S
C3460 C3459 1.524 . S
C3460 C3461 1.397 . S
C3460 C3465 1.363 . S
C3461 H3432 0.950 . S
C3461 C3460 1.397 . S
C3461 C3462 1.334 . S
C3462 H3433 0.950 . S
C3462 C3461 1.334 . S
C3462 C3463 1.287 . S
C3463 C3462 1.287 . S
C3463 C3464 1.524 . S
C3463 H3466 0.999 . S
C3464 H3434 0.950 . S
C3464 C3463 1.524 . S
C3464 C3465 1.415 . S
C3465 H3435 0.950 . S
C3465 C3460 1.363 . S
C3465 C3464 1.415 . S
H3466 C3463 0.999 . S
H3467 C3448 0.913 . S
H3468 C3486 0.951 . S
H3469 C3488 0.951 . S
H3470 C3490 0.950 . S
H3471 C3491 0.950 . S
H3472 C3493 0.950 . S
H3473 C3496 0.950 . S
H3474 C3497 0.950 . S
H3475 C3499 0.950 . S
H3476 C3500 0.950 . S
H3477 C3501 0.951 . S
H3478 C3503 0.951 . S
H3479 C3505 0.950 . S
H3480 C3506 0.950 . S
H3481 C3508 0.950 . S
H3482 C3511 0.950 . S
H3483 C3512 0.950 . S
H3484 C3514 0.950 . S
H3485 C3515 0.950 . S
C3486 H3468 0.951 . S
C3486 C3487 1.366 . S
C3486 C3488 1.388 . S
C3487 C3486 1.366 . S
C3487 C3491 1.385 . S
C3488 H3469 0.951 . S
C3488 C3486 1.388 . S
C3488 C3489 1.366 . S
C3489 C3488 1.366 . S
C3489 C3490 1.414 . S
C3489 C3492 1.499 . S
C3490 H3470 0.950 . S
C3490 C3489 1.414 . S
C3490 C3491 1.374 . S
C3491 H3471 0.950 . S
C3491 C3487 1.385 . S
C3491 C3490 1.374 . S
C3492 C3489 1.499 . S
C3492 C3493 1.373 . S
C3492 C3494 1.389 . S
C3493 H3472 0.950 . S
C3493 C3492 1.373 . S
C3493 C3509 1.377 . S
C3494 C3492 1.389 . S
C3494 C3495 1.524 . S
C3494 C3508 1.377 . S
C3495 C3494 1.524 . S
C3495 C3496 1.397 . S
C3495 C3500 1.363 . S
C3496 H3473 0.950 . S
C3496 C3495 1.397 . S
C3496 C3497 1.334 . S
C3497 H3474 0.950 . S
C3497 C3496 1.334 . S
C3497 C3498 1.287 . S
C3498 C3497 1.287 . S
C3498 C3499 1.524 . S
C3498 H3517 0.913 . S
C3499 H3475 0.950 . S
C3499 C3498 1.524 . S
C3499 C3500 1.415 . S
C3500 H3476 0.950 . S
C3500 C3495 1.363 . S
C3500 C3499 1.415 . S
C3501 H3477 0.951 . S
C3501 C3502 1.366 . S
C3501 C3503 1.388 . S
C3502 C3501 1.366 . S
C3502 C3506 1.385 . S
C3503 H3478 0.951 . S
C3503 C3501 1.388 . S
C3503 C3504 1.366 . S
C3504 C3503 1.366 . S
C3504 C3505 1.414 . S
C3504 C3507 1.499 . S
C3505 H3479 0.950 . S
C3505 C3504 1.414 . S
C3505 C3506 1.374 . S
C3506 H3480 0.950 . S
C3506 C3502 1.385 . S
C3506 C3505 1.374 . S
C3507 C3504 1.499 . S
C3507 C3508 1.373 . S
C3507 C3509 1.389 . S
C3508 H3481 0.950 . S
C3508 C3494 1.377 . S
C3508 C3507 1.373 . S
C3509 C3493 1.377 . S
C3509 C3507 1.389 . S
C3509 C3510 1.524 . S
C3510 C3509 1.524 . S
C3510 C3511 1.397 . S
C3510 C3515 1.363 . S
C3511 H3482 0.950 . S
C3511 C3510 1.397 . S
C3511 C3512 1.334 . S
C3512 H3483 0.950 . S
C3512 C3511 1.334 . S
C3512 C3513 1.287 . S
C3513 C3512 1.287 . S
C3513 C3514 1.524 . S
C3513 H3516 0.999 . S
C3514 H3484 0.950 . S
C3514 C3513 1.524 . S
C3514 C3515 1.415 . S
C3515 H3485 0.950 . S
C3515 C3510 1.363 . S
C3515 C3514 1.415 . S
H3516 C3513 0.999 . S
H3517 C3498 0.913 . S
H3518 C3536 0.951 . S
H3519 C3538 0.951 . S
H3520 C3540 0.950 . S
H3521 C3541 0.950 . S
H3522 C3543 0.950 . S
H3523 C3546 0.950 . S
H3524 C3547 0.950 . S
H3525 C3549 0.950 . S
H3526 C3550 0.950 . S
H3527 C3551 0.951 . S
H3528 C3553 0.951 . S
H3529 C3555 0.950 . S
H3530 C3556 0.950 . S
H3531 C3558 0.950 . S
H3532 C3561 0.950 . S
H3533 C3562 0.950 . S
H3534 C3564 0.950 . S
H3535 C3565 0.950 . S
C3536 H3518 0.951 . S
C3536 C3537 1.366 . S
C3536 C3538 1.388 . S
C3537 C3536 1.366 . S
C3537 C3541 1.385 . S
C3538 H3519 0.951 . S
C3538 C3536 1.388 . S
C3538 C3539 1.366 . S
C3539 C3538 1.366 . S
C3539 C3540 1.414 . S
C3539 C3542 1.499 . S
C3540 H3520 0.950 . S
C3540 C3539 1.414 . S
C3540 C3541 1.374 . S
C3541 H3521 0.950 . S
C3541 C3537 1.385 . S
C3541 C3540 1.374 . S
C3542 C3539 1.499 . S
C3542 C3543 1.373 . S
C3542 C3544 1.389 . S
C3543 H3522 0.950 . S
C3543 C3542 1.373 . S
C3543 C3559 1.377 . S
C3544 C3542 1.389 . S
C3544 C3545 1.524 . S
C3544 C3558 1.377 . S
C3545 C3544 1.524 . S
C3545 C3546 1.397 . S
C3545 C3550 1.363 . S
C3546 H3523 0.950 . S
C3546 C3545 1.397 . S
C3546 C3547 1.334 . S
C3547 H3524 0.950 . S
C3547 C3546 1.334 . S
C3547 C3548 1.287 . S
C3548 C3547 1.287 . S
C3548 C3549 1.524 . S
C3548 H3567 0.913 . S
C3549 H3525 0.950 . S
C3549 C3548 1.524 . S
C3549 C3550 1.415 . S
C3550 H3526 0.950 . S
C3550 C3545 1.363 . S
C3550 C3549 1.415 . S
C3551 H3527 0.951 . S
C3551 C3552 1.366 . S
C3551 C3553 1.388 . S
C3552 C3551 1.366 . S
C3552 C3556 1.385 . S
C3553 H3528 0.951 . S
C3553 C3551 1.388 . S
C3553 C3554 1.366 . S
C3554 C3553 1.366 . S
C3554 C3555 1.414 . S
C3554 C3557 1.499 . S
C3555 H3529 0.950 . S
C3555 C3554 1.414 . S
C3555 C3556 1.374 . S
C3556 H3530 0.950 . S
C3556 C3552 1.385 . S
C3556 C3555 1.374 . S
C3557 C3554 1.499 . S
C3557 C3558 1.373 . S
C3557 C3559 1.389 . S
C3558 H3531 0.950 . S
C3558 C3544 1.377 . S
C3558 C3557 1.373 . S
C3559 C3543 1.377 . S
C3559 C3557 1.389 . S
C3559 C3560 1.524 . S
C3560 C3559 1.524 . S
C3560 C3561 1.397 . S
C3560 C3565 1.363 . S
C3561 H3532 0.950 . S
C3561 C3560 1.397 . S
C3561 C3562 1.334 . S
C3562 H3533 0.950 . S
C3562 C3561 1.334 . S
C3562 C3563 1.287 . S
C3563 C3562 1.287 . S
C3563 C3564 1.524 . S
C3563 H3566 0.999 . S
C3564 H3534 0.950 . S
C3564 C3563 1.524 . S
C3564 C3565 1.415 . S
C3565 H3535 0.950 . S
C3565 C3560 1.363 . S
C3565 C3564 1.415 . S
H3566 C3563 0.999 . S
H3567 C3548 0.913 . S
H3568 C3586 0.951 . S
H3569 C3588 0.951 . S
H3570 C3590 0.950 . S
H3571 C3591 0.950 . S
H3572 C3593 0.950 . S
H3573 C3596 0.950 . S
H3574 C3597 0.950 . S
H3575 C3599 0.950 . S
H3576 C3600 0.950 . S
H3577 C3601 0.951 . S
H3578 C3603 0.951 . S
H3579 C3605 0.950 . S
H3580 C3606 0.950 . S
H3581 C3608 0.950 . S
H3582 C3611 0.950 . S
H3583 C3612 0.950 . S
H3584 C3614 0.950 . S
H3585 C3615 0.950 . S
C3586 H3568 0.951 . S
C3586 C3587 1.366 . S
C3586 C3588 1.388 . S
C3587 C3586 1.366 . S
C3587 C3591 1.385 . S
C3588 H3569 0.951 . S
C3588 C3586 1.388 . S
C3588 C3589 1.366 . S
C3589 C3588 1.366 . S
C3589 C3590 1.414 . S
C3589 C3592 1.499 . S
C3590 H3570 0.950 . S
C3590 C3589 1.414 . S
C3590 C3591 1.374 . S
C3591 H3571 0.950 . S
C3591 C3587 1.385 . S
C3591 C3590 1.374 . S
C3592 C3589 1.499 . S
C3592 C3593 1.373 . S
C3592 C3594 1.389 . S
C3593 H3572 0.950 . S
C3593 C3592 1.373 . S
C3593 C3609 1.377 . S
C3594 C3592 1.389 . S
C3594 C3595 1.524 . S
C3594 C3608 1.377 . S
C3595 C3594 1.524 . S
C3595 C3596 1.397 . S
C3595 C3600 1.363 . S
C3596 H3573 0.950 . S
C3596 C3595 1.397 . S
C3596 C3597 1.334 . S
C3597 H3574 0.950 . S
C3597 C3596 1.334 . S
C3597 C3598 1.287 . S
C3598 C3597 1.287 . S
C3598 C3599 1.524 . S
C3598 H3617 0.913 . S
C3599 H3575 0.950 . S
C3599 C3598 1.524 . S
C3599 C3600 1.415 . S
C3600 H3576 0.950 . S
C3600 C3595 1.363 . S
C3600 C3599 1.415 . S
C3601 H3577 0.951 . S
C3601 C3602 1.366 . S
C3601 C3603 1.388 . S
C3602 C3601 1.366 . S
C3602 C3606 1.385 . S
C3603 H3578 0.951 . S
C3603 C3601 1.388 . S
C3603 C3604 1.366 . S
C3604 C3603 1.366 . S
C3604 C3605 1.414 . S
C3604 C3607 1.499 . S
C3605 H3579 0.950 . S
C3605 C3604 1.414 . S
C3605 C3606 1.374 . S
C3606 H3580 0.950 . S
C3606 C3602 1.385 . S
C3606 C3605 1.374 . S
C3607 C3604 1.499 . S
C3607 C3608 1.373 . S
C3607 C3609 1.389 . S
C3608 H3581 0.950 . S
C3608 C3594 1.377 . S
C3608 C3607 1.373 . S
C3609 C3593 1.377 . S
C3609 C3607 1.389 . S
C3609 C3610 1.524 . S
C3610 C3609 1.524 . S
C3610 C3611 1.397 . S
C3610 C3615 1.363 . S
C3611 H3582 0.950 . S
C3611 C3610 1.397 . S
C3611 C3612 1.334 . S
C3612 H3583 0.950 . S
C3612 C3611 1.334 . S
C3612 C3613 1.287 . S
C3613 C3612 1.287 . S
C3613 C3614 1.524 . S
C3613 H3616 0.999 . S
C3614 H3584 0.950 . S
C3614 C3613 1.524 . S
C3614 C3615 1.415 . S
C3615 H3585 0.950 . S
C3615 C3610 1.363 . S
C3615 C3614 1.415 . S
H3616 C3613 0.999 . S
H3617 C3598 0.913 . S
H3618 C3636 0.951 . S
H3619 C3638 0.951 . S
H3620 C3640 0.950 . S
H3621 C3641 0.950 . S
H3622 C3643 0.950 . S
H3623 C3646 0.950 . S
H3624 C3647 0.950 . S
H3625 C3649 0.950 . S
H3626 C3650 0.950 . S
H3627 C3651 0.951 . S
H3628 C3653 0.951 . S
H3629 C3655 0.950 . S
H3630 C3656 0.950 . S
H3631 C3658 0.950 . S
H3632 C3661 0.950 . S
H3633 C3662 0.950 . S
H3634 C3664 0.950 . S
H3635 C3665 0.950 . S
C3636 H3618 0.951 . S
C3636 C3637 1.366 . S
C3636 C3638 1.388 . S
C3637 C3636 1.366 . S
C3637 C3641 1.385 . S
C3638 H3619 0.951 . S
C3638 C3636 1.388 . S
C3638 C3639 1.366 . S
C3639 C3638 1.366 . S
C3639 C3640 1.414 . S
C3639 C3642 1.499 . S
C3640 H3620 0.950 . S
C3640 C3639 1.414 . S
C3640 C3641 1.374 . S
C3641 H3621 0.950 . S
C3641 C3637 1.385 . S
C3641 C3640 1.374 . S
C3642 C3639 1.499 . S
C3642 C3643 1.373 . S
C3642 C3644 1.389 . S
C3643 H3622 0.950 . S
C3643 C3642 1.373 . S
C3643 C3659 1.377 . S
C3644 C3642 1.389 . S
C3644 C3645 1.524 . S
C3644 C3658 1.377 . S
C3645 C3644 1.524 . S
C3645 C3646 1.397 . S
C3645 C3650 1.363 . S
C3646 H3623 0.950 . S
C3646 C3645 1.397 . S
C3646 C3647 1.334 . S
C3647 H3624 0.950 . S
C3647 C3646 1.334 . S
C3647 C3648 1.287 . S
C3648 C3647 1.287 . S
C3648 C3649 1.524 . S
C3648 H3667 0.913 . S
C3649 H3625 0.950 . S
C3649 C3648 1.524 . S
C3649 C3650 1.415 . S
C3650 H3626 0.950 . S
C3650 C3645 1.363 . S
C3650 C3649 1.415 . S
C3651 H3627 0.951 . S
C3651 C3652 1.366 . S
C3651 C3653 1.388 . S
C3652 C3651 1.366 . S
C3652 C3656 1.385 . S
C3653 H3628 0.951 . S
C3653 C3651 1.388 . S
C3653 C3654 1.366 . S
C3654 C3653 1.366 . S
C3654 C3655 1.414 . S
C3654 C3657 1.499 . S
C3655 H3629 0.950 . S
C3655 C3654 1.414 . S
C3655 C3656 1.374 . S
C3656 H3630 0.950 . S
C3656 C3652 1.385 . S
C3656 C3655 1.374 . S
C3657 C3654 1.499 . S
C3657 C3658 1.373 . S
C3657 C3659 1.389 . S
C3658 H3631 0.950 . S
C3658 C3644 1.377 . S
C3658 C3657 1.373 . S
C3659 C3643 1.377 . S
C3659 C3657 1.389 . S
C3659 C3660 1.524 . S
C3660 C3659 1.524 . S
C3660 C3661 1.397 . S
C3660 C3665 1.363 . S
C3661 H3632 0.950 . S
C3661 C3660 1.397 . S
C3661 C3662 1.334 . S
C3662 H3633 0.950 . S
C3662 C3661 1.334 . S
C3662 C3663 1.287 . S
C3663 C3662 1.287 . S
C3663 C3664 1.524 . S
C3663 H3666 0.999 . S
C3664 H3634 0.950 . S
C3664 C3663 1.524 . S
C3664 C3665 1.415 . S
C3665 H3635 0.950 . S
C3665 C3660 1.363 . S
C3665 C3664 1.415 . S
H3666 C3663 0.999 . S
H3667 C3648 0.913 . S
H3668 C3686 0.951 . S
H3669 C3688 0.951 . S
H3670 C3690 0.950 . S
H3671 C3691 0.950 . S
H3672 C3693 0.950 . S
H3673 C3696 0.950 . S
H3674 C3697 0.950 . S
H3675 C3699 0.950 . S
H3676 C3700 0.950 . S
H3677 C3701 0.951 . S
H3678 C3703 0.951 . S
H3679 C3705 0.950 . S
H3680 C3706 0.950 . S
H3681 C3708 0.950 . S
H3682 C3711 0.950 . S
H3683 C3712 0.950 . S
H3684 C3714 0.950 . S
H3685 C3715 0.950 . S
C3686 H3668 0.951 . S
C3686 C3687 1.366 . S
C3686 C3688 1.388 . S
C3687 C3686 1.366 . S
C3687 C3691 1.385 . S
C3688 H3669 0.951 . S
C3688 C3686 1.388 . S
C3688 C3689 1.366 . S
C3689 C3688 1.366 . S
C3689 C3690 1.414 . S
C3689 C3692 1.499 . S
C3690 H3670 0.950 . S
C3690 C3689 1.414 . S
C3690 C3691 1.374 . S
C3691 H3671 0.950 . S
C3691 C3687 1.385 . S
C3691 C3690 1.374 . S
C3692 C3689 1.499 . S
C3692 C3693 1.373 . S
C3692 C3694 1.389 . S
C3693 H3672 0.950 . S
C3693 C3692 1.373 . S
C3693 C3709 1.377 . S
C3694 C3692 1.389 . S
C3694 C3695 1.524 . S
C3694 C3708 1.377 . S
C3695 C3694 1.524 . S
C3695 C3696 1.397 . S
C3695 C3700 1.363 . S
C3696 H3673 0.950 . S
C3696 C3695 1.397 . S
C3696 C3697 1.334 . S
C3697 H3674 0.950 . S
C3697 C3696 1.334 . S
C3697 C3698 1.287 . S
C3698 C3697 1.287 . S
C3698 C3699 1.524 . S
C3698 H3717 0.913 . S
C3699 H3675 0.950 . S
C3699 C3698 1.524 . S
C3699 C3700 1.415 . S
C3700 H3676 0.950 . S
C3700 C3695 1.363 . S
C3700 C3699 1.415 . S
C3701 H3677 0.951 . S
C3701 C3702 1.366 . S
C3701 C3703 1.388 . S
C3702 C3701 1.366 . S
C3702 C3706 1.385 . S
C3703 H3678 0.951 . S
C3703 C3701 1.388 . S
C3703 C3704 1.366 . S
C3704 C3703 1.366 . S
C3704 C3705 1.414 . S
C3704 C3707 1.499 . S
C3705 H3679 0.950 . S
C3705 C3704 1.414 . S
C3705 C3706 1.374 . S
C3706 H3680 0.950 . S
C3706 C3702 1.385 . S
C3706 C3705 1.374 . S
C3707 C3704 1.499 . S
C3707 C3708 1.373 . S
C3707 C3709 1.389 . S
C3708 H3681 0.950 . S
C3708 C3694 1.377 . S
C3708 C3707 1.373 . S
C3709 C3693 1.377 . S
C3709 C3707 1.389 . S
C3709 C3710 1.524 . S
C3710 C3709 1.524 . S
C3710 C3711 1.397 . S
C3710 C3715 1.363 . S
C3711 H3682 0.950 . S
C3711 C3710 1.397 . S
C3711 C3712 1.334 . S
C3712 H3683 0.950 . S
C3712 C3711 1.334 . S
C3712 C3713 1.287 . S
C3713 C3712 1.287 . S
C3713 C3714 1.524 . S
C3713 H3716 0.999 . S
C3714 H3684 0.950 . S
C3714 C3713 1.524 . S
C3714 C3715 1.415 . S
C3715 H3685 0.950 . S
C3715 C3710 1.363 . S
C3715 C3714 1.415 . S
H3716 C3713 0.999 . S
H3717 C3698 0.913 . S
H3718 C3736 0.951 . S
H3719 C3738 0.951 . S
H3720 C3740 0.950 . S
H3721 C3741 0.950 . S
H3722 C3743 0.950 . S
H3723 C3746 0.950 . S
H3724 C3747 0.950 . S
H3725 C3749 0.950 . S
H3726 C3750 0.950 . S
H3727 C3751 0.951 . S
H3728 C3753 0.951 . S
H3729 C3755 0.950 . S
H3730 C3756 0.950 . S
H3731 C3758 0.950 . S
H3732 C3761 0.950 . S
H3733 C3762 0.950 . S
H3734 C3764 0.950 . S
H3735 C3765 0.950 . S
C3736 H3718 0.951 . S
C3736 C3737 1.366 . S
C3736 C3738 1.388 . S
C3737 C3736 1.366 . S
C3737 C3741 1.385 . S
C3738 H3719 0.951 . S
C3738 C3736 1.388 . S
C3738 C3739 1.366 . S
C3739 C3738 1.366 . S
C3739 C3740 1.414 . S
C3739 C3742 1.499 . S
C3740 H3720 0.950 . S
C3740 C3739 1.414 . S
C3740 C3741 1.374 . S
C3741 H3721 0.950 . S
C3741 C3737 1.385 . S
C3741 C3740 1.374 . S
C3742 C3739 1.499 . S
C3742 C3743 1.373 . S
C3742 C3744 1.389 . S
C3743 H3722 0.950 . S
C3743 C3742 1.373 . S
C3743 C3759 1.377 . S
C3744 C3742 1.389 . S
C3744 C3745 1.524 . S
C3744 C3758 1.377 . S
C3745 C3744 1.524 . S
C3745 C3746 1.397 . S
C3745 C3750 1.363 . S
C3746 H3723 0.950 . S
C3746 C3745 1.397 . S
C3746 C3747 1.334 . S
C3747 H3724 0.950 . S
C3747 C3746 1.334 . S
C3747 C3748 1.287 . S
C3748 C3747 1.287 . S
C3748 C3749 1.524 . S
C3748 H3767 0.913 . S
C3749 H3725 0.950 . S
C3749 C3748 1.524 . S
C3749 C3750 1.415 . S
C3750 H3726 0.950 . S
C3750 C3745 1.363 . S
C3750 C3749 1.415 . S
C3751 H3727 0.951 . S
C3751 C3752 1.366 . S
C3751 C3753 1.388 . S
C3752 C3751 1.366 . S
C3752 C3756 1.385 . S
C3753 H3728 0.951 . S
C3753 C3751 1.388 . S
C3753 C3754 1.366 . S
C3754 C3753 1.366 . S
C3754 C3755 1.414 . S
C3754 C3757 1.499 . S
C3755 H3729 0.950 . S
C3755 C3754 1.414 . S
C3755 C3756 1.374 . S
C3756 H3730 0.950 . S
C3756 C3752 1.385 . S
C3756 C3755 1.374 . S
C3757 C3754 1.499 . S
C3757 C3758 1.373 . S
C3757 C3759 1.389 . S
C3758 H3731 0.950 . S
C3758 C3744 1.377 . S
C3758 C3757 1.373 . S
C3759 C3743 1.377 . S
C3759 C3757 1.389 . S
C3759 C3760 1.524 . S
C3760 C3759 1.524 . S
C3760 C3761 1.397 . S
C3760 C3765 1.363 . S
C3761 H3732 0.950 . S
C3761 C3760 1.397 . S
C3761 C3762 1.334 . S
C3762 H3733 0.950 . S
C3762 C3761 1.334 . S
C3762 C3763 1.287 . S
C3763 C3762 1.287 . S
C3763 C3764 1.524 . S
C3763 H3766 0.999 . S
C3764 H3734 0.950 . S
C3764 C3763 1.524 . S
C3764 C3765 1.415 . S
C3765 H3735 0.950 . S
C3765 C3760 1.363 . S
C3765 C3764 1.415 . S
H3766 C3763 0.999 . S
H3767 C3748 0.913 . S
H3768 C3786 0.951 . S
H3769 C3788 0.951 . S
H3770 C3790 0.950 . S
H3771 C3791 0.950 . S
H3772 C3793 0.950 . S
H3773 C3796 0.950 . S
H3774 C3797 0.950 . S
H3775 C3799 0.950 . S
H3776 C3800 0.950 1_655 S
H3777 C3801 0.951 . S
H3778 C3803 0.951 . S
H3779 C3805 0.950 . S
H3780 C3806 0.950 . S
H3781 C3808 0.950 . S
H3782 C3811 0.950 . S
H3783 C3812 0.950 . S
H3784 C3814 0.950 . S
H3785 C3815 0.950 1_455 S
C3786 H3768 0.951 . S
C3786 C3787 1.366 . S
C3786 C3788 1.388 . S
C3787 C3786 1.366 . S
C3787 C3791 1.385 . S
C3788 H3769 0.951 . S
C3788 C3786 1.388 . S
C3788 C3789 1.366 . S
C3789 C3788 1.366 . S
C3789 C3790 1.414 . S
C3789 C3792 1.499 . S
C3790 H3770 0.950 . S
C3790 C3789 1.414 . S
C3790 C3791 1.374 . S
C3791 H3771 0.950 . S
C3791 C3787 1.385 . S
C3791 C3790 1.374 . S
C3792 C3789 1.499 . S
C3792 C3793 1.373 . S
C3792 C3794 1.389 . S
C3793 H3772 0.950 . S
C3793 C3792 1.373 . S
C3793 C3809 1.377 1_455 S
C3794 C3792 1.389 . S
C3794 C3795 1.524 . S
C3794 C3808 1.377 1_455 S
C3795 C3794 1.524 . S
C3795 C3796 1.397 . S
C3795 C3800 1.363 . S
C3796 H3773 0.950 . S
C3796 C3795 1.397 . S
C3796 C3797 1.334 . S
C3797 H3774 0.950 . S
C3797 C3796 1.334 . S
C3797 C3798 1.287 . S
C3798 C3797 1.287 . S
C3798 C3799 1.524 . S
C3798 H3817 0.913 . S
C3799 H3775 0.950 . S
C3799 C3798 1.524 . S
C3799 C3800 1.415 . S
C3800 H3776 0.950 1_455 S
C3800 C3795 1.363 . S
C3800 C3799 1.415 . S
C3801 H3777 0.951 . S
C3801 C3802 1.366 . S
C3801 C3803 1.388 . S
C3802 C3801 1.366 . S
C3802 C3806 1.385 . S
C3803 H3778 0.951 . S
C3803 C3801 1.388 . S
C3803 C3804 1.366 . S
C3804 C3803 1.366 . S
C3804 C3805 1.414 . S
C3804 C3807 1.499 . S
C3805 H3779 0.950 . S
C3805 C3804 1.414 . S
C3805 C3806 1.374 . S
C3806 H3780 0.950 . S
C3806 C3802 1.385 . S
C3806 C3805 1.374 . S
C3807 C3804 1.499 . S
C3807 C3808 1.373 . S
C3807 C3809 1.389 . S
C3808 H3781 0.950 . S
C3808 C3794 1.377 1_655 S
C3808 C3807 1.373 . S
C3809 C3793 1.377 1_655 S
C3809 C3807 1.389 . S
C3809 C3810 1.524 . S
C3810 C3809 1.524 . S
C3810 C3811 1.397 . S
C3810 C3815 1.363 . S
C3811 H3782 0.950 . S
C3811 C3810 1.397 . S
C3811 C3812 1.334 . S
C3812 H3783 0.950 . S
C3812 C3811 1.334 . S
C3812 C3813 1.287 . S
C3813 C3812 1.287 . S
C3813 C3814 1.524 . S
C3813 H3816 0.999 . S
C3814 H3784 0.950 . S
C3814 C3813 1.524 . S
C3814 C3815 1.415 . S
C3815 H3785 0.950 1_655 S
C3815 C3810 1.363 . S
C3815 C3814 1.415 . S
H3816 C3813 0.999 . S
H3817 C3798 0.913 . S
H3818 C3836 0.951 . S
H3819 C3838 0.951 . S
H3820 C3840 0.950 . S
H3821 C3841 0.950 . S
H3822 C3843 0.950 . S
H3823 C3846 0.950 . S
H3824 C3847 0.950 . S
H3825 C3849 0.950 . S
H3826 C3850 0.950 . S
H3827 C3851 0.951 . S
H3828 C3853 0.951 . S
H3829 C3855 0.950 . S
H3830 C3856 0.950 . S
H3831 C3858 0.950 . S
H3832 C3861 0.950 . S
H3833 C3862 0.950 . S
H3834 C3864 0.950 . S
H3835 C3865 0.950 . S
C3836 H3818 0.951 . S
C3836 C3837 1.366 . S
C3836 C3838 1.388 . S
C3837 C3836 1.366 . S
C3837 C3841 1.385 . S
C3838 H3819 0.951 . S
C3838 C3836 1.388 . S
C3838 C3839 1.366 . S
C3839 C3838 1.366 . S
C3839 C3840 1.414 . S
C3839 C3842 1.499 . S
C3840 H3820 0.950 . S
C3840 C3839 1.414 . S
C3840 C3841 1.374 . S
C3841 H3821 0.950 . S
C3841 C3837 1.385 . S
C3841 C3840 1.374 . S
C3842 C3839 1.499 . S
C3842 C3843 1.373 . S
C3842 C3844 1.389 . S
C3843 H3822 0.950 . S
C3843 C3842 1.373 . S
C3843 C3859 1.377 . S
C3844 C3842 1.389 . S
C3844 C3845 1.524 . S
C3844 C3858 1.377 . S
C3845 C3844 1.524 . S
C3845 C3846 1.397 . S
C3845 C3850 1.363 . S
C3846 H3823 0.950 . S
C3846 C3845 1.397 . S
C3846 C3847 1.334 . S
C3847 H3824 0.950 . S
C3847 C3846 1.334 . S
C3847 C3848 1.287 . S
C3848 C3847 1.287 . S
C3848 C3849 1.524 . S
C3848 H3867 0.913 . S
C3849 H3825 0.950 . S
C3849 C3848 1.524 . S
C3849 C3850 1.415 . S
C3850 H3826 0.950 . S
C3850 C3845 1.363 . S
C3850 C3849 1.415 . S
C3851 H3827 0.951 . S
C3851 C3852 1.366 . S
C3851 C3853 1.388 . S
C3852 C3851 1.366 . S
C3852 C3856 1.385 . S
C3853 H3828 0.951 . S
C3853 C3851 1.388 . S
C3853 C3854 1.366 . S
C3854 C3853 1.366 . S
C3854 C3855 1.414 . S
C3854 C3857 1.499 . S
C3855 H3829 0.950 . S
C3855 C3854 1.414 . S
C3855 C3856 1.374 . S
C3856 H3830 0.950 . S
C3856 C3852 1.385 . S
C3856 C3855 1.374 . S
C3857 C3854 1.499 . S
C3857 C3858 1.373 . S
C3857 C3859 1.389 . S
C3858 H3831 0.950 . S
C3858 C3844 1.377 . S
C3858 C3857 1.373 . S
C3859 C3843 1.377 . S
C3859 C3857 1.389 . S
C3859 C3860 1.524 . S
C3860 C3859 1.524 . S
C3860 C3861 1.397 . S
C3860 C3865 1.363 . S
C3861 H3832 0.950 . S
C3861 C3860 1.397 . S
C3861 C3862 1.334 . S
C3862 H3833 0.950 . S
C3862 C3861 1.334 . S
C3862 C3863 1.287 . S
C3863 C3862 1.287 . S
C3863 C3864 1.524 . S
C3863 H3866 0.999 . S
C3864 H3834 0.950 . S
C3864 C3863 1.524 . S
C3864 C3865 1.415 . S
C3865 H3835 0.950 . S
C3865 C3860 1.363 . S
C3865 C3864 1.415 . S
H3866 C3863 0.999 . S
H3867 C3848 0.913 . S
H3868 C3886 0.951 . S
H3869 C3888 0.951 . S
H3870 C3890 0.950 . S
H3871 C3891 0.950 . S
H3872 C3893 0.950 . S
H3873 C3896 0.950 . S
H3874 C3897 0.950 . S
H3875 C3899 0.950 . S
H3876 C3900 0.950 . S
H3877 C3901 0.951 . S
H3878 C3903 0.951 . S
H3879 C3905 0.950 . S
H3880 C3906 0.950 . S
H3881 C3908 0.950 . S
H3882 C3911 0.950 . S
H3883 C3912 0.950 . S
H3884 C3914 0.950 . S
H3885 C3915 0.950 . S
C3886 H3868 0.951 . S
C3886 C3887 1.366 . S
C3886 C3888 1.388 . S
C3887 C3886 1.366 . S
C3887 C3891 1.385 . S
C3888 H3869 0.951 . S
C3888 C3886 1.388 . S
C3888 C3889 1.366 . S
C3889 C3888 1.366 . S
C3889 C3890 1.414 . S
C3889 C3892 1.499 . S
C3890 H3870 0.950 . S
C3890 C3889 1.414 . S
C3890 C3891 1.374 . S
C3891 H3871 0.950 . S
C3891 C3887 1.385 . S
C3891 C3890 1.374 . S
C3892 C3889 1.499 . S
C3892 C3893 1.373 . S
C3892 C3894 1.389 . S
C3893 H3872 0.950 . S
C3893 C3892 1.373 . S
C3893 C3909 1.377 1_545 S
C3894 C3892 1.389 . S
C3894 C3895 1.524 . S
C3894 C3908 1.377 1_545 S
C3895 C3894 1.524 . S
C3895 C3896 1.397 . S
C3895 C3900 1.363 . S
C3896 H3873 0.950 . S
C3896 C3895 1.397 . S
C3896 C3897 1.334 . S
C3897 H3874 0.950 . S
C3897 C3896 1.334 . S
C3897 C3898 1.287 . S
C3898 C3897 1.287 . S
C3898 C3899 1.524 . S
C3898 H3917 0.913 . S
C3899 H3875 0.950 . S
C3899 C3898 1.524 . S
C3899 C3900 1.415 . S
C3900 H3876 0.950 . S
C3900 C3895 1.363 . S
C3900 C3899 1.415 . S
C3901 H3877 0.951 . S
C3901 C3902 1.366 . S
C3901 C3903 1.388 . S
C3902 C3901 1.366 . S
C3902 C3906 1.385 . S
C3903 H3878 0.951 . S
C3903 C3901 1.388 . S
C3903 C3904 1.366 . S
C3904 C3903 1.366 . S
C3904 C3905 1.414 . S
C3904 C3907 1.499 . S
C3905 H3879 0.950 . S
C3905 C3904 1.414 . S
C3905 C3906 1.374 . S
C3906 H3880 0.950 . S
C3906 C3902 1.385 . S
C3906 C3905 1.374 . S
C3907 C3904 1.499 . S
C3907 C3908 1.373 . S
C3907 C3909 1.389 . S
C3908 H3881 0.950 . S
C3908 C3894 1.377 1_565 S
C3908 C3907 1.373 . S
C3909 C3893 1.377 1_565 S
C3909 C3907 1.389 . S
C3909 C3910 1.524 . S
C3910 C3909 1.524 . S
C3910 C3911 1.397 . S
C3910 C3915 1.363 . S
C3911 H3882 0.950 . S
C3911 C3910 1.397 . S
C3911 C3912 1.334 . S
C3912 H3883 0.950 . S
C3912 C3911 1.334 . S
C3912 C3913 1.287 . S
C3913 C3912 1.287 . S
C3913 C3914 1.524 . S
C3913 H3916 0.999 . S
C3914 H3884 0.950 . S
C3914 C3913 1.524 . S
C3914 C3915 1.415 . S
C3915 H3885 0.950 . S
C3915 C3910 1.363 . S
C3915 C3914 1.415 . S
H3916 C3913 0.999 . S
H3917 C3898 0.913 . S
H3918 C3936 0.951 . S
H3919 C3938 0.951 . S
H3920 C3940 0.957 . S
H3921 C3941 0.950 . S
H3922 C3943 0.950 . S
H3923 C3946 0.950 . S
H3924 C3947 0.950 . S
H3925 C3949 0.950 . S
H3926 C3950 0.950 . S
H3927 C3951 0.951 . S
H3928 C3953 0.951 . S
H3929 C3955 0.957 . S
H3930 C3956 0.950 . S
H3931 C3958 0.950 . S
H3932 C3961 0.950 . S
H3933 C3962 0.950 . S
H3934 C3964 0.950 . S
H3935 C3965 0.950 . S
C3936 H3918 0.951 . S
C3936 C3937 1.366 . S
C3936 C3938 1.388 . S
C3937 C3936 1.366 . S
C3937 C3941 1.385 . S
C3938 H3919 0.951 . S
C3938 C3936 1.388 . S
C3938 C3939 1.366 . S
C3939 C3938 1.366 . S
C3939 C3940 1.414 . S
C3939 C3942 1.499 . S
C3940 H3920 0.957 . S
C3940 C3939 1.414 . S
C3940 C3941 1.374 . S
C3941 H3921 0.950 . S
C3941 C3937 1.385 . S
C3941 C3940 1.374 . S
C3942 C3939 1.499 . S
C3942 C3943 1.373 . S
C3942 C3944 1.389 1_554 S
C3943 H3922 0.950 . S
C3943 C3942 1.373 . S
C3943 C3959 1.377 1_545 S
C3944 C3942 1.389 1_556 S
C3944 C3945 1.524 . S
C3944 C3958 1.377 1_545 S
C3945 C3944 1.524 . S
C3945 C3946 1.397 . S
C3945 C3950 1.363 . S
C3946 H3923 0.950 . S
C3946 C3945 1.397 . S
C3946 C3947 1.334 . S
C3947 H3924 0.950 . S
C3947 C3946 1.334 . S
C3947 C3948 1.287 . S
C3948 C3947 1.287 . S
C3948 C3949 1.524 . S
C3948 H3967 0.913 . S
C3949 H3925 0.950 . S
C3949 C3948 1.524 . S
C3949 C3950 1.415 . S
C3950 H3926 0.950 . S
C3950 C3945 1.363 . S
C3950 C3949 1.415 . S
C3951 H3927 0.951 . S
C3951 C3952 1.366 . S
C3951 C3953 1.388 . S
C3952 C3951 1.366 . S
C3952 C3956 1.385 . S
C3953 H3928 0.951 . S
C3953 C3951 1.388 . S
C3953 C3954 1.366 . S
C3954 C3953 1.366 . S
C3954 C3955 1.414 . S
C3954 C3957 1.499 . S
C3955 H3929 0.957 . S
C3955 C3954 1.414 . S
C3955 C3956 1.374 . S
C3956 H3930 0.950 . S
C3956 C3952 1.385 . S
C3956 C3955 1.374 . S
C3957 C3954 1.499 . S
C3957 C3958 1.373 . S
C3957 C3959 1.389 1_556 S
C3958 H3931 0.950 . S
C3958 C3944 1.377 1_565 S
C3958 C3957 1.373 . S
C3959 C3943 1.377 1_565 S
C3959 C3957 1.389 1_554 S
C3959 C3960 1.524 . S
C3960 C3959 1.524 . S
C3960 C3961 1.397 . S
C3960 C3965 1.363 . S
C3961 H3932 0.950 . S
C3961 C3960 1.397 . S
C3961 C3962 1.334 . S
C3962 H3933 0.950 . S
C3962 C3961 1.334 . S
C3962 C3963 1.287 . S
C3963 C3962 1.287 . S
C3963 C3964 1.524 . S
C3963 H3966 0.999 . S
C3964 H3934 0.950 . S
C3964 C3963 1.524 . S
C3964 C3965 1.415 . S
C3965 H3935 0.950 . S
C3965 C3960 1.363 . S
C3965 C3964 1.415 . S
H3966 C3963 0.999 . S
H3967 C3948 0.913 . S
H3968 C3986 0.951 . S
H3969 C3988 0.951 . S
H3970 C3990 0.950 . S
H3971 C3991 0.950 . S
H3972 C3993 0.950 . S
H3973 C3996 0.950 . S
H3974 C3997 0.950 . S
H3975 C3999 0.950 . S
H3976 C4000 0.950 1_455 S
H3977 C4001 0.951 . S
H3978 C4003 0.951 . S
H3979 C4005 0.950 . S
H3980 C4006 0.950 . S
H3981 C4008 0.950 . S
H3982 C4011 0.950 . S
H3983 C4012 0.950 . S
H3984 C4014 0.950 . S
H3985 C4015 0.950 1_655 S
C3986 H3968 0.951 . S
C3986 C3987 1.366 . S
C3986 C3988 1.388 . S
C3987 C3986 1.366 . S
C3987 C3991 1.385 1_554 S
C3988 H3969 0.951 . S
C3988 C3986 1.388 . S
C3988 C3989 1.366 . S
C3989 C3988 1.366 . S
C3989 C3990 1.414 1_554 S
C3989 C3992 1.499 . S
C3990 H3970 0.950 . S
C3990 C3989 1.414 1_556 S
C3990 C3991 1.374 . S
C3991 H3971 0.950 . S
C3991 C3987 1.385 1_556 S
C3991 C3990 1.374 . S
C3992 C3989 1.499 . S
C3992 C3993 1.373 1_554 S
C3992 C3994 1.389 . S
C3993 H3972 0.950 . S
C3993 C3992 1.373 1_556 S
C3993 C4009 1.377 1_655 S
C3994 C3992 1.389 . S
C3994 C3995 1.524 . S
C3994 C4008 1.377 1_655 S
C3995 C3994 1.524 . S
C3995 C3996 1.397 . S
C3995 C4000 1.363 . S
C3996 H3973 0.950 . S
C3996 C3995 1.397 . S
C3996 C3997 1.334 . S
C3997 H3974 0.950 . S
C3997 C3996 1.334 . S
C3997 C3998 1.287 . S
C3998 C3997 1.287 . S
C3998 C3999 1.524 . S
C3998 H4017 0.913 . S
C3999 H3975 0.950 . S
C3999 C3998 1.524 . S
C3999 C4000 1.415 . S
C4000 H3976 0.950 1_655 S
C4000 C3995 1.363 . S
C4000 C3999 1.415 . S
C4001 H3977 0.951 . S
C4001 C4002 1.366 . S
C4001 C4003 1.388 . S
C4002 C4001 1.366 . S
C4002 C4006 1.385 1_556 S
C4003 H3978 0.951 . S
C4003 C4001 1.388 . S
C4003 C4004 1.366 . S
C4004 C4003 1.366 . S
C4004 C4005 1.414 1_556 S
C4004 C4007 1.499 . S
C4005 H3979 0.950 . S
C4005 C4004 1.414 1_554 S
C4005 C4006 1.374 . S
C4006 H3980 0.950 . S
C4006 C4002 1.385 1_554 S
C4006 C4005 1.374 . S
C4007 C4004 1.499 . S
C4007 C4008 1.373 1_556 S
C4007 C4009 1.389 . S
C4008 H3981 0.950 . S
C4008 C3994 1.377 1_455 S
C4008 C4007 1.373 1_554 S
C4009 C3993 1.377 1_455 S
C4009 C4007 1.389 . S
C4009 C4010 1.524 . S
C4010 C4009 1.524 . S
C4010 C4011 1.397 . S
C4010 C4015 1.363 . S
C4011 H3982 0.950 . S
C4011 C4010 1.397 . S
C4011 C4012 1.334 . S
C4012 H3983 0.950 . S
C4012 C4011 1.334 . S
C4012 C4013 1.287 . S
C4013 C4012 1.287 . S
C4013 C4014 1.524 . S
C4013 H4016 0.999 . S
C4014 H3984 0.950 . S
C4014 C4013 1.524 . S
C4014 C4015 1.415 . S
C4015 H3985 0.950 1_455 S
C4015 C4010 1.363 . S
C4015 C4014 1.415 . S
H4016 C4013 0.999 . S
H4017 C3998 0.913 . S
H4018 C4036 0.951 1_556 S
H4019 C4038 0.954 . S
H4020 C4040 0.950 . S
H4021 C4041 0.950 . S
H4022 C4043 0.950 . S
H4023 C4046 0.950 . S
H4024 C4047 0.950 . S
H4025 C4049 0.950 . S
H4026 C4050 0.950 . S
H4027 C4051 0.951 1_554 S
H4028 C4053 0.954 . S
H4029 C4055 0.950 . S
H4030 C4056 0.950 . S
H4031 C4058 0.950 . S
H4032 C4061 0.950 . S
H4033 C4062 0.950 . S
H4034 C4064 0.950 . S
H4035 C4065 0.950 . S
C4036 H4018 0.951 1_554 S
C4036 C4037 1.366 . S
C4036 C4038 1.386 1_554 S
C4037 C4036 1.366 . S
C4037 C4041 1.385 . S
C4038 H4019 0.954 . S
C4038 C4036 1.386 1_556 S
C4038 C4039 1.363 1_556 S
C4039 C4038 1.363 1_554 S
C4039 C4040 1.414 . S
C4039 C4042 1.499 . S
C4040 H4020 0.950 . S
C4040 C4039 1.414 . S
C4040 C4041 1.374 . S
C4041 H4021 0.950 . S
C4041 C4037 1.385 . S
C4041 C4040 1.374 . S
C4042 C4039 1.499 . S
C4042 C4043 1.373 . S
C4042 C4044 1.389 1_554 S
C4043 H4022 0.950 . S
C4043 C4042 1.373 . S
C4043 C4059 1.377 . S
C4044 C4042 1.389 1_556 S
C4044 C4045 1.524 . S
C4044 C4058 1.377 . S
C4045 C4044 1.524 . S
C4045 C4046 1.397 . S
C4045 C4050 1.363 . S
C4046 H4023 0.950 . S
C4046 C4045 1.397 . S
C4046 C4047 1.334 . S
C4047 H4024 0.950 . S
C4047 C4046 1.334 . S
C4047 C4048 1.287 . S
C4048 C4047 1.287 . S
C4048 C4049 1.524 . S
C4048 H4067 0.913 . S
C4049 H4025 0.950 . S
C4049 C4048 1.524 . S
C4049 C4050 1.415 . S
C4050 H4026 0.950 . S
C4050 C4045 1.363 . S
C4050 C4049 1.415 . S
C4051 H4027 0.951 1_556 S
C4051 C4052 1.366 . S
C4051 C4053 1.386 1_556 S
C4052 C4051 1.366 . S
C4052 C4056 1.385 . S
C4053 H4028 0.954 . S
C4053 C4051 1.386 1_554 S
C4053 C4054 1.363 1_554 S
C4054 C4053 1.363 1_556 S
C4054 C4055 1.414 . S
C4054 C4057 1.499 . S
C4055 H4029 0.950 . S
C4055 C4054 1.414 . S
C4055 C4056 1.374 . S
C4056 H4030 0.950 . S
C4056 C4052 1.385 . S
C4056 C4055 1.374 . S
C4057 C4054 1.499 . S
C4057 C4058 1.373 . S
C4057 C4059 1.389 1_556 S
C4058 H4031 0.950 . S
C4058 C4044 1.377 . S
C4058 C4057 1.373 . S
C4059 C4043 1.377 . S
C4059 C4057 1.389 1_554 S
C4059 C4060 1.524 . S
C4060 C4059 1.524 . S
C4060 C4061 1.397 . S
C4060 C4065 1.363 . S
C4061 H4032 0.950 . S
C4061 C4060 1.397 . S
C4061 C4062 1.334 . S
C4062 H4033 0.950 . S
C4062 C4061 1.334 . S
C4062 C4063 1.287 . S
C4063 C4062 1.287 . S
C4063 C4064 1.524 . S
C4063 H4066 0.999 . S
C4064 H4034 0.950 . S
C4064 C4063 1.524 . S
C4064 C4065 1.415 . S
C4065 H4035 0.950 . S
C4065 C4060 1.363 . S
C4065 C4064 1.415 . S
H4066 C4063 0.999 . S
H4067 C4048 0.913 . S
C487 C134 1.278 . S
C502 C5 1.274 . S
C537 C147 1.278 . S
C552 C18 1.274 . S
C587 C29 1.275 . S
C602 C121 1.277 . S
C637 C44 1.275 . S
C652 C108 1.278 . S
C687 C57 1.275 . S
C702 C82 1.278 . S
C737 C101 1.278 . S
C752 C68 1.275 . S
C787 C56 1.278 . S
C802 C83 1.275 . S
C837 C75 1.277 . S
C852 C94 1.275 . S
C887 C109 1.275 . S
C902 C43 1.277 . S
C937 C36 1.278 . S
C952 C122 1.275 . S
C987 C135 1.275 . S
C1002 C4 1.277 . S
C1037 C148 1.275 . S
C1052 C17 1.277 . S
C1087 C296 1.277 . S
C1102 C161 1.274 . S
C1137 C303 1.277 . S
C1152 C174 1.275 . S
C1187 C187 1.275 . S
C1202 C277 1.277 . S
C1237 C200 1.275 . S
C1252 C264 1.278 . S
C1287 C213 1.275 . S
C1302 C238 1.278 . S
C1337 C226 1.274 . S
C1352 C251 1.277 . S
C1387 C212 1.277 . S
C1402 C239 1.274 . S
C1437 C225 1.278 . S
C1452 C252 1.274 . S
C1487 C199 1.277 . S
C1502 C265 1.275 . S
C1537 C186 1.277 . S
C1552 C278 1.275 . S
C1587 C160 1.278 . S
C1602 C289 1.274 . S
C1637 C173 1.278 . S
C1652 C304 1.274 . S
C1687 C315 1.275 . S
C1702 C452 1.277 . S
C1737 C459 1.278 . S
C1752 C328 1.274 . S
C1787 C433 1.278 . S
C1802 C341 1.274 . S
C1837 C356 1.275 . S
C1852 C426 1.278 . S
C1887 C367 1.275 . S
C1902 C400 1.277 . S
C1937 C382 1.275 . S
C1952 C413 1.277 . S
C1987 C374 1.277 . S
C2002 C393 1.275 . S
C2037 C381 1.277 . S
C2052 C406 1.275 . S
C2087 C355 1.277 . S
C2102 C419 1.274 . S
C2137 C434 1.275 . S
C2152 C348 1.277 . S
C2187 C322 1.277 . S
C2202 C445 1.275 . S
C2237 C460 1.275 . S
C2252 C335 1.277 . S
C2287 C49 1.585 . S
C2302 C10 1.585 . S
C2337 C62 1.585 . S
C2352 C23 1.585 . S
C2387 C30 1.585 . S
C2402 C69 1.585 . S
C2437 C127 1.585 . S
C2452 C88 1.585 . S
C2487 C140 1.585 . S
C2502 C95 1.585 . S
C2537 C153 1.585 . S
C2552 C114 1.585 . S
C2587 C205 1.585 . S
C2602 C166 1.585 . S
C2637 C218 1.585 . S
C2652 C179 1.585 . S
C2687 C192 1.585 . S
C2702 C231 1.585 . S
C2737 C244 1.585 . S
C2752 C283 1.585 . S
C2787 C290 1.585 . S
C2802 C257 1.585 . S
C2837 C270 1.585 . S
C2852 C309 1.585 . S
C2887 C361 1.585 . S
C2902 C316 1.585 . S
C2937 C368 1.585 . S
C2952 C329 1.585 . S
C2987 C342 1.585 . S
C3002 C387 1.585 . S
C3037 C394 1.585 . S
C3052 C439 1.585 . S
C3087 C407 1.585 . S
C3102 C446 1.585 . S
C3137 C420 1.585 . S
C3152 C465 1.585 . S
C3187 C3 1.569 . S
C3202 C237 1.569 . S
C3237 C250 1.569 . S
C3252 C16 1.569 . S
C3287 C263 1.569 . S
C3302 C31 1.569 . S
C3337 C432 1.569 . S
C3352 C42 1.569 . S
C3387 C447 1.569 . S
C3402 C55 1.569 . S
C3437 C458 1.569 . S
C3452 C70 1.569 . S
C3487 C81 1.569 . S
C3502 C317 1.569 . S
C3537 C330 1.569 . S
C3552 C96 1.569 . S
C3587 C343 1.569 . S
C3602 C107 1.569 . S
C3637 C120 1.569 . S
C3652 C198 1.569 . S
C3687 C133 1.569 . S
C3702 C211 1.569 . S
C3737 C146 1.569 . S
C3752 C224 1.569 . S
C3787 C395 1.569 . S
C3802 C159 1.569 . S
C3837 C408 1.569 . S
C3852 C172 1.569 . S
C3887 C185 1.569 . S
C3902 C421 1.569 . S
C3937 C276 1.569 . S
C3952 C354 1.569 . S
C3987 C291 1.569 . S
C4002 C369 1.569 . S
C4037 C302 1.569 . S
C4052 C380 1.569 . S
