# Generated by pormake.
# Topology wgz, (6)-cn, num edge types: 1
# Building blocks:
#     Node 0, Type 0, BuildingBlock: VOLQOD_clean_sbu_1, # of connection points: 6
#     Node 1, Type 0, BuildingBlock: VOLQOD_clean_sbu_1, # of connection points: 6
#     Node 2, Type 0, BuildingBlock: VOLQOD_clean_sbu_1, # of connection points: 6
#     Node 3, Type 0, BuildingBlock: VOLQOD_clean_sbu_1, # of connection points: 6
#     Node 4, Type 0, BuildingBlock: VOLQOD_clean_sbu_1, # of connection points: 6
#     Node 5, Type 0, BuildingBlock: VOLQOD_clean_sbu_1, # of connection points: 6
#     Node 6, Type 0, BuildingBlock: VOLQOD_clean_sbu_1, # of connection points: 6
#     Node 7, Type 0, BuildingBlock: VOLQOD_clean_sbu_1, # of connection points: 6
#     Node 8, Type 0, BuildingBlock: VOLQOD_clean_sbu_1, # of connection points: 6
#     Node 9, Type 0, BuildingBlock: VOLQOD_clean_sbu_1, # of connection points: 6
#     Node 10, Type 0, BuildingBlock: VOLQOD_clean_sbu_1, # of connection points: 6
#     Node 11, Type 0, BuildingBlock: VOLQOD_clean_sbu_1, # of connection points: 6
#     Node 12, Type 0, BuildingBlock: VOLQOD_clean_sbu_1, # of connection points: 6
#     Node 13, Type 0, BuildingBlock: VOLQOD_clean_sbu_1, # of connection points: 6
#     Node 14, Type 0, BuildingBlock: VOLQOD_clean_sbu_1, # of connection points: 6
#     Node 15, Type 0, BuildingBlock: VOLQOD_clean_sbu_1, # of connection points: 6
#     Edge 16, Type (0, 0), BuildingBlock: EZIPEK_clean_linker_0, # of connection points: 2
#     Edge 17, Type (0, 0), BuildingBlock: EZIPEK_clean_linker_0, # of connection points: 2
#     Edge 18, Type (0, 0), BuildingBlock: EZIPEK_clean_linker_0, # of connection points: 2
#     Edge 19, Type (0, 0), BuildingBlock: EZIPEK_clean_linker_0, # of connection points: 2
#     Edge 20, Type (0, 0), BuildingBlock: EZIPEK_clean_linker_0, # of connection points: 2
#     Edge 21, Type (0, 0), BuildingBlock: EZIPEK_clean_linker_0, # of connection points: 2
#     Edge 22, Type (0, 0), BuildingBlock: EZIPEK_clean_linker_0, # of connection points: 2
#     Edge 23, Type (0, 0), BuildingBlock: EZIPEK_clean_linker_0, # of connection points: 2
#     Edge 24, Type (0, 0), BuildingBlock: EZIPEK_clean_linker_0, # of connection points: 2
#     Edge 25, Type (0, 0), BuildingBlock: EZIPEK_clean_linker_0, # of connection points: 2
#     Edge 26, Type (0, 0), BuildingBlock: EZIPEK_clean_linker_0, # of connection points: 2
#     Edge 27, Type (0, 0), BuildingBlock: EZIPEK_clean_linker_0, # of connection points: 2
#     Edge 28, Type (0, 0), BuildingBlock: EZIPEK_clean_linker_0, # of connection points: 2
#     Edge 29, Type (0, 0), BuildingBlock: EZIPEK_clean_linker_0, # of connection points: 2
#     Edge 30, Type (0, 0), BuildingBlock: EZIPEK_clean_linker_0, # of connection points: 2
#     Edge 31, Type (0, 0), BuildingBlock: EZIPEK_clean_linker_0, # of connection points: 2
#     Edge 32, Type (0, 0), BuildingBlock: EZIPEK_clean_linker_0, # of connection points: 2
#     Edge 33, Type (0, 0), BuildingBlock: EZIPEK_clean_linker_0, # of connection points: 2
#     Edge 34, Type (0, 0), BuildingBlock: EZIPEK_clean_linker_0, # of connection points: 2
#     Edge 35, Type (0, 0), BuildingBlock: EZIPEK_clean_linker_0, # of connection points: 2
#     Edge 36, Type (0, 0), BuildingBlock: EZIPEK_clean_linker_0, # of connection points: 2
#     Edge 37, Type (0, 0), BuildingBlock: EZIPEK_clean_linker_0, # of connection points: 2
#     Edge 38, Type (0, 0), BuildingBlock: EZIPEK_clean_linker_0, # of connection points: 2
#     Edge 39, Type (0, 0), BuildingBlock: EZIPEK_clean_linker_0, # of connection points: 2
#     Edge 40, Type (0, 0), BuildingBlock: EZIPEK_clean_linker_0, # of connection points: 2
#     Edge 41, Type (0, 0), BuildingBlock: EZIPEK_clean_linker_0, # of connection points: 2
#     Edge 42, Type (0, 0), BuildingBlock: EZIPEK_clean_linker_0, # of connection points: 2
#     Edge 43, Type (0, 0), BuildingBlock: EZIPEK_clean_linker_0, # of connection points: 2
#     Edge 44, Type (0, 0), BuildingBlock: EZIPEK_clean_linker_0, # of connection points: 2
#     Edge 45, Type (0, 0), BuildingBlock: EZIPEK_clean_linker_0, # of connection points: 2
#     Edge 46, Type (0, 0), BuildingBlock: EZIPEK_clean_linker_0, # of connection points: 2
#     Edge 47, Type (0, 0), BuildingBlock: EZIPEK_clean_linker_0, # of connection points: 2
#     Edge 48, Type (0, 0), BuildingBlock: EZIPEK_clean_linker_0, # of connection points: 2
#     Edge 49, Type (0, 0), BuildingBlock: EZIPEK_clean_linker_0, # of connection points: 2
#     Edge 50, Type (0, 0), BuildingBlock: EZIPEK_clean_linker_0, # of connection points: 2
#     Edge 51, Type (0, 0), BuildingBlock: EZIPEK_clean_linker_0, # of connection points: 2
#     Edge 52, Type (0, 0), BuildingBlock: EZIPEK_clean_linker_0, # of connection points: 2
#     Edge 53, Type (0, 0), BuildingBlock: EZIPEK_clean_linker_0, # of connection points: 2
#     Edge 54, Type (0, 0), BuildingBlock: EZIPEK_clean_linker_0, # of connection points: 2
#     Edge 55, Type (0, 0), BuildingBlock: EZIPEK_clean_linker_0, # of connection points: 2
#     Edge 56, Type (0, 0), BuildingBlock: EZIPEK_clean_linker_0, # of connection points: 2
#     Edge 57, Type (0, 0), BuildingBlock: EZIPEK_clean_linker_0, # of connection points: 2
#     Edge 58, Type (0, 0), BuildingBlock: EZIPEK_clean_linker_0, # of connection points: 2
#     Edge 59, Type (0, 0), BuildingBlock: EZIPEK_clean_linker_0, # of connection points: 2
#     Edge 60, Type (0, 0), BuildingBlock: EZIPEK_clean_linker_0, # of connection points: 2
#     Edge 61, Type (0, 0), BuildingBlock: EZIPEK_clean_linker_0, # of connection points: 2
#     Edge 62, Type (0, 0), BuildingBlock: EZIPEK_clean_linker_0, # of connection points: 2
#     Edge 63, Type (0, 0), BuildingBlock: EZIPEK_clean_linker_0, # of connection points: 2
# Relax obj value: 0.567
# Max RMSD: 0.288
# Mean RMSD: 0.288
data_MOF--net-wgz--node1-VOLQOD_clean_sbu_1--edge1-EZIPEK_clean_linker_0
_symmetry_space_group_name_H-M    P1
_symmetry_Int_Tables_number       1
_symmetry_cell_setting            triclinic
loop_
_symmetry_equiv_pos_as_xyz
'x, y, z'
_cell_length_a     26.72523
_cell_length_b     26.858649
_cell_length_c     41.344719
_cell_angle_alpha  90.05965
_cell_angle_beta   90.29439
_cell_angle_gamma 90.037467
loop_
_atom_site_label
_atom_site_type_symbol
_atom_site_fract_x
_atom_site_fract_y
_atom_site_fract_z
_atom_type_partial_charge
O0 O 0.14854 0.32949 0.15559 0.0
Zn1 Zn 0.1572 0.36335 0.10966 0.0
O2 O 0.21206 0.41002 0.11508 0.0
Zn3 Zn 0.26966 0.3899 0.09231 0.0
Zn4 Zn 0.22858 0.4104 0.15975 0.0
Zn5 Zn 0.19695 0.47734 0.10571 0.0
O6 O 0.30706 0.44951 0.07669 0.0
O7 O 0.24174 0.50026 0.07056 0.0
O8 O 0.17628 0.31471 0.07068 0.0
O9 O 0.25122 0.34399 0.05621 0.0
O10 O 0.31275 0.35101 0.12145 0.0
O11 O 0.27849 0.35763 0.17021 0.0
O12 O 0.25358 0.47407 0.17722 0.0
O13 O 0.09407 0.40684 0.10034 0.0
O14 O 0.21589 0.52356 0.14211 0.0
O15 O 0.12359 0.48466 0.09732 0.0
C16 C 0.14982 0.35494 0.18195 0.0
C17 C 0.28798 0.48999 0.06668 0.0
C18 C 0.31102 0.33966 0.15121 0.0
C19 C 0.21455 0.31445 0.05176 0.0
C20 C 0.24165 0.51723 0.16773 0.0
C21 C 0.08721 0.45393 0.09679 0.0
O22 O 0.16657 0.39879 0.18206 0.0
O23 O 0.67933 0.15345 0.18636 0.0
Zn24 Zn 0.66044 0.14511 0.13627 0.0
O25 O 0.61796 0.20198 0.12945 0.0
Zn26 Zn 0.65454 0.25664 0.11407 0.0
Zn27 Zn 0.59347 0.21456 0.17158 0.0
Zn28 Zn 0.56269 0.1919 0.10187 0.0
O29 O 0.61669 0.29266 0.07979 0.0
O30 O 0.57721 0.22597 0.06003 0.0
O31 O 0.71869 0.15175 0.10089 0.0
O32 O 0.714 0.233 0.09069 0.0
O33 O 0.67374 0.30007 0.15044 0.0
O34 O 0.63365 0.26927 0.19313 0.0
O35 O 0.52325 0.23467 0.17168 0.0
O36 O 0.61155 0.08502 0.12858 0.0
O37 O 0.50112 0.22403 0.12036 0.0
O38 O 0.54913 0.11887 0.0996 0.0
C39 C 0.64332 0.15506 0.20681 0.0
C40 C 0.59394 0.27023 0.05695 0.0
C41 C 0.66365 0.30042 0.18047 0.0
C42 C 0.73382 0.19083 0.08559 0.0
C43 C 0.4914 0.23781 0.14911 0.0
C44 C 0.56962 0.08146 0.11323 0.0
O45 O 0.59993 0.15152 0.19516 0.0
O46 O 0.83343 0.66933 0.16229 0.0
Zn47 Zn 0.82168 0.63856 0.11536 0.0
O48 O 0.76719 0.59159 0.12017 0.0
Zn49 Zn 0.70717 0.61324 0.10064 0.0
Zn50 Zn 0.75592 0.58826 0.16516 0.0
Zn51 Zn 0.78105 0.52507 0.10805 0.0
O52 O 0.6687 0.55528 0.08281 0.0
O53 O 0.73361 0.50538 0.07326 0.0
O54 O 0.80034 0.68781 0.07641 0.0
O55 O 0.72243 0.6619 0.06571 0.0
O56 O 0.66731 0.64871 0.13324 0.0
O57 O 0.70903 0.64081 0.1797 0.0
O58 O 0.72986 0.5246 0.18083 0.0
O59 O 0.88437 0.59484 0.10599 0.0
O60 O 0.76358 0.47625 0.1435 0.0
O61 O 0.85382 0.51844 0.09716 0.0
C62 C 0.83601 0.64058 0.18716 0.0
C63 C 0.68726 0.51612 0.07046 0.0
C64 C 0.67341 0.65874 0.16303 0.0
C65 C 0.7596 0.68981 0.05939 0.0
C66 C 0.73947 0.48183 0.16973 0.0
C67 C 0.89069 0.54853 0.09931 0.0
O68 O 0.82033 0.5964 0.18536 0.0
O69 O 0.31677 0.86621 0.18638 0.0
Zn70 Zn 0.33555 0.86027 0.13646 0.0
O71 O 0.37136 0.79769 0.13374 0.0
Zn72 Zn 0.33045 0.74599 0.11709 0.0
Zn73 Zn 0.39046 0.78058 0.17665 0.0
Zn74 Zn 0.43052 0.80116 0.10859 0.0
O75 O 0.36681 0.70601 0.0842 0.0
O76 O 0.41794 0.76583 0.06688 0.0
O77 O 0.27674 0.85619 0.10064 0.0
O78 O 0.27435 0.77438 0.092 0.0
O79 O 0.30544 0.70281 0.15211 0.0
O80 O 0.34486 0.7294 0.19633 0.0
O81 O 0.45812 0.75458 0.18047 0.0
O82 O 0.3889 0.91483 0.12634 0.0
O83 O 0.48759 0.76711 0.1311 0.0
O84 O 0.45161 0.87213 0.10398 0.0
C85 C 0.35055 0.86044 0.20843 0.0
C86 C 0.39556 0.72433 0.06292 0.0
C87 C 0.31372 0.7006 0.18237 0.0
C88 C 0.25844 0.81786 0.08579 0.0
C89 C 0.49282 0.75155 0.15997 0.0
C90 C 0.43267 0.91298 0.11363 0.0
O91 O 0.39226 0.8419 0.20122 0.0
O92 O 0.12588 0.69486 0.87053 0.0
Zn93 Zn 0.12576 0.67633 0.92033 0.0
O94 O 0.18555 0.63875 0.92143 0.0
Zn95 Zn 0.24091 0.67969 0.93028 0.0
Zn96 Zn 0.18838 0.61203 0.87919 0.0
Zn97 Zn 0.18532 0.58585 0.9507 0.0
O98 O 0.28765 0.64124 0.95792 0.0
O99 O 0.22807 0.60695 0.98821 0.0
O100 O 0.13656 0.7321 0.95694 0.0
O101 O 0.21982 0.73554 0.95883 0.0
O102 O 0.27327 0.70071 0.88903 0.0
O103 O 0.23446 0.6539 0.85219 0.0
O104 O 0.21741 0.54434 0.87888 0.0
O105 O 0.07079 0.62313 0.93042 0.0
O106 O 0.22323 0.52856 0.93144 0.0
O107 O 0.11328 0.5641 0.95716 0.0
C108 C 0.12124 0.65944 0.84973 0.0
C109 C 0.27349 0.6206 0.98397 0.0
C110 C 0.26677 0.68663 0.85984 0.0
C111 C 0.17746 0.7498 0.96921 0.0
C112 C 0.23154 0.51708 0.90213 0.0
C113 C 0.07238 0.58115 0.94536 0.0
O114 O 0.11934 0.6159 0.86104 0.0
O115 O 0.34217 0.17838 0.83796 0.0
Zn116 Zn 0.36332 0.17878 0.88735 0.0
O117 O 0.41471 0.22908 0.89098 0.0
Zn118 Zn 0.40156 0.27162 0.92649 0.0
Zn119 Zn 0.42223 0.27196 0.85419 0.0
Zn120 Zn 0.47993 0.20154 0.89494 0.0
O121 O 0.46501 0.29449 0.94684 0.0
O122 O 0.52056 0.2431 0.92555 0.0
O123 O 0.30755 0.19732 0.92234 0.0
O124 O 0.35351 0.24151 0.95733 0.0
O125 O 0.3662 0.33136 0.91124 0.0
O126 O 0.38461 0.33637 0.85902 0.0
O127 O 0.49431 0.28147 0.84172 0.0
O128 O 0.3978 0.11033 0.89754 0.0
O129 O 0.5163 0.20462 0.85308 0.0
O130 O 0.47761 0.13019 0.90738 0.0
C131 C 0.36133 0.20178 0.81379 0.0
C132 C 0.51011 0.28054 0.9432 0.0
C133 C 0.36319 0.35312 0.88416 0.0
C134 C 0.31267 0.21993 0.94977 0.0
C135 C 0.52424 0.24498 0.83801 0.0
C136 C 0.44278 0.09805 0.90535 0.0
O137 O 0.39284 0.23653 0.8179 0.0
O138 O 0.87369 0.31429 0.87282 0.0
Zn139 Zn 0.85899 0.3377 0.92078 0.0
O140 O 0.79468 0.36981 0.91654 0.0
Zn141 Zn 0.74067 0.32867 0.92968 0.0
Zn142 Zn 0.78605 0.3858 0.87216 0.0
Zn143 Zn 0.7919 0.43063 0.9394 0.0
O144 O 0.69386 0.36827 0.95671 0.0
O145 O 0.75009 0.42003 0.97864 0.0
O146 O 0.84948 0.28282 0.95768 0.0
O147 O 0.76628 0.27606 0.95961 0.0
O148 O 0.7032 0.30235 0.89124 0.0
O149 O 0.74259 0.33649 0.84951 0.0
O150 O 0.75199 0.44951 0.86471 0.0
O151 O 0.91031 0.39352 0.93338 0.0
O152 O 0.75304 0.48079 0.91434 0.0
O153 O 0.86155 0.45817 0.9453 0.0
C154 C 0.87034 0.34482 0.84889 0.0
C155 C 0.70693 0.39952 0.97824 0.0
C156 C 0.70858 0.30864 0.86092 0.0
C157 C 0.80948 0.26381 0.97002 0.0
C158 C 0.74048 0.48308 0.88476 0.0
C159 C 0.90501 0.43953 0.94131 0.0
O160 O 0.85234 0.38774 0.85332 0.0
O161 O 0.62924 0.82604 0.84355 0.0
Zn162 Zn 0.60574 0.82012 0.89196 0.0
O163 O 0.55623 0.76671 0.89227 0.0
Zn164 Zn 0.57268 0.71758 0.9241 0.0
Zn165 Zn 0.5492 0.73021 0.85228 0.0
Zn166 Zn 0.48987 0.79145 0.89844 0.0
O167 O 0.51151 0.6929 0.94601 0.0
O168 O 0.45498 0.7481 0.9302 0.0
O169 O 0.66109 0.80362 0.92856 0.0
O170 O 0.62354 0.74224 0.95564 0.0
O171 O 0.60584 0.66008 0.90359 0.0
O172 O 0.58718 0.66698 0.85145 0.0
O173 O 0.4787 0.7193 0.83751 0.0
O174 O 0.56777 0.88659 0.90136 0.0
O175 O 0.44792 0.78801 0.85823 0.0
O176 O 0.48931 0.86281 0.91111 0.0
C177 C 0.61115 0.80506 0.81801 0.0
C178 C 0.46671 0.7088 0.94571 0.0
C179 C 0.60825 0.6445 0.87471 0.0
C180 C 0.6593 0.77316 0.95274 0.0
C181 C 0.44466 0.75227 0.83819 0.0
C182 C 0.52234 0.89667 0.90887 0.0
O183 O 0.57925 0.77038 0.81925 0.0
O184 O 0.62476 0.81634 0.65751 0.0
Zn185 Zn 0.64422 0.83928 0.61012 0.0
O186 O 0.71023 0.86939 0.61439 0.0
Zn187 Zn 0.76282 0.83191 0.59467 0.0
Zn188 Zn 0.72671 0.86975 0.65914 0.0
Zn189 Zn 0.71189 0.93824 0.60172 0.0
O190 O 0.80574 0.87707 0.56804 0.0
O191 O 0.75694 0.94416 0.56356 0.0
O192 O 0.65026 0.78185 0.57456 0.0
O193 O 0.73254 0.78043 0.56527 0.0
O194 O 0.80675 0.79963 0.62827 0.0
O195 O 0.76502 0.81043 0.67397 0.0
O196 O 0.76907 0.92582 0.67191 0.0
O197 O 0.59441 0.89584 0.59619 0.0
O198 O 0.747 0.9813 0.63495 0.0
O199 O 0.64173 0.9642 0.59355 0.0
C200 C 0.63425 0.84136 0.68343 0.0
C201 C 0.79576 0.91933 0.55576 0.0
C202 C 0.80134 0.79194 0.65841 0.0
C203 C 0.68849 0.76455 0.55924 0.0
C204 C 0.77092 0.96928 0.66044 0.0
C205 C 0.59896 0.94308 0.5919 0.0
O206 O 0.66574 0.87634 0.68338 0.0
O207 O 0.17078 0.65852 0.68884 0.0
Zn208 Zn 0.15491 0.65202 0.63856 0.0
O209 O 0.10584 0.70302 0.63069 0.0
Zn210 Zn 0.12267 0.74296 0.59453 0.0
Zn211 Zn 0.09312 0.75016 0.66469 0.0
Zn212 Zn 0.04112 0.67516 0.62569 0.0
O213 O 0.06021 0.76644 0.57275 0.0
O214 O 0.00324 0.71721 0.59467 0.0
O215 O 0.21356 0.66564 0.60421 0.0
O216 O 0.1725 0.70925 0.56644 0.0
O217 O 0.1579 0.80395 0.60906 0.0
O218 O 0.13022 0.81498 0.65905 0.0
O219 O 0.01932 0.75926 0.67316 0.0
O220 O 0.11939 0.58255 0.63043 0.0
O221 O 0.00177 0.68021 0.66619 0.0
O222 O 0.04218 0.60325 0.61479 0.0
C223 C 0.14961 0.68532 0.71084 0.0
C224 C 0.0147 0.75431 0.57706 0.0
C225 C 0.15607 0.82913 0.63499 0.0
C226 C 0.21165 0.68635 0.57597 0.0
C227 C 0.99029 0.72228 0.67789 0.0
C228 C 0.07517 0.57036 0.6207 0.0
O229 O 0.11889 0.71953 0.70366 0.0
O230 O 0.37153 0.19232 0.65407 0.0
Zn231 Zn 0.3709 0.17106 0.60503 0.0
O232 O 0.31363 0.13054 0.60661 0.0
Zn233 Zn 0.25661 0.16971 0.59937 0.0
Zn234 Zn 0.31304 0.10233 0.64853 0.0
Zn235 Zn 0.31439 0.07989 0.57602 0.0
O236 O 0.20941 0.12859 0.57402 0.0
O237 O 0.26867 0.10285 0.54031 0.0
O238 O 0.35464 0.22289 0.56688 0.0
O239 O 0.27154 0.22514 0.56975 0.0
O240 O 0.22761 0.19124 0.64099 0.0
O241 O 0.26358 0.13953 0.67599 0.0
O242 O 0.29058 0.03144 0.64791 0.0
O243 O 0.42771 0.1202 0.59537 0.0
O244 O 0.28003 0.0203 0.59499 0.0
O245 O 0.38705 0.06065 0.56795 0.0
C246 C 0.37786 0.15915 0.67619 0.0
C247 C 0.22254 0.11109 0.54675 0.0
C248 C 0.23343 0.17477 0.66963 0.0
C249 C 0.31194 0.2391 0.55657 0.0
C250 C 0.27521 0.00568 0.62406 0.0
C251 C 0.42743 0.07848 0.58011 0.0
O252 O 0.38093 0.11433 0.66699 0.0
O253 O 0.85611 0.32684 0.6868 0.0
Zn254 Zn 0.88408 0.31456 0.63951 0.0
O255 O 0.92466 0.2543 0.64355 0.0
Zn256 Zn 0.88286 0.20455 0.62377 0.0
Zn257 Zn 0.93794 0.23028 0.68655 0.0
Zn258 Zn 0.98733 0.26369 0.62173 0.0
O259 O 0.91229 0.18492 0.58157 0.0
O260 O 0.9842 0.22715 0.57937 0.0
O261 O 0.83563 0.30049 0.59835 0.0
O262 O 0.81241 0.22925 0.61752 0.0
O263 O 0.87612 0.14404 0.64948 0.0
O264 O 0.90883 0.16327 0.69717 0.0
O265 O 0.00994 0.22736 0.69763 0.0
O266 O 0.93158 0.37403 0.63029 0.0
O267 O 0.04412 0.23811 0.64921 0.0
O268 O 0.00251 0.337 0.6158 0.0
C269 C 0.87404 0.31021 0.71378 0.0
C270 C 0.95221 0.19724 0.56707 0.0
C271 C 0.88619 0.13319 0.67853 0.0
C272 C 0.80851 0.26119 0.59534 0.0
C273 C 0.0477 0.22821 0.67926 0.0
C274 C 0.97721 0.37632 0.6211 0.0
O275 O 0.90672 0.27627 0.71515 0.0
O276 O 0.66059 0.17737 0.36975 0.0
Zn277 Zn 0.6705 0.14105 0.41469 0.0
O278 O 0.72768 0.09847 0.40765 0.0
Zn279 Zn 0.78802 0.1265 0.42474 0.0
Zn280 Zn 0.7346 0.09116 0.36204 0.0
Zn281 Zn 0.71869 0.03378 0.42467 0.0
O282 O 0.83047 0.07269 0.44465 0.0
O283 O 0.76757 0.02354 0.46012 0.0
O284 O 0.68828 0.18549 0.45634 0.0
O285 O 0.77068 0.1734 0.46053 0.0
O286 O 0.8247 0.16279 0.39006 0.0
O287 O 0.78458 0.13878 0.34543 0.0
O288 O 0.75489 0.02429 0.34744 0.0
O289 O 0.60996 0.09263 0.4219 0.0
O290 O 0.73789 0.98198 0.39206 0.0
O291 O 0.647 0.02152 0.43633 0.0
C292 C 0.65798 0.15281 0.34305 0.0
C293 C 0.81349 0.03643 0.4611 0.0
C294 C 0.81837 0.164 0.35953 0.0
C295 C 0.73059 0.19343 0.47071 0.0
C296 C 0.75282 0.98378 0.36295 0.0
C297 C 0.60753 0.04696 0.43107 0.0
O298 O 0.67061 0.10748 0.34204 0.0
O299 O 0.81152 0.63717 0.34482 0.0
Zn300 Zn 0.82173 0.63 0.39556 0.0
O301 O 0.86382 0.68513 0.40519 0.0
Zn302 Zn 0.8296 0.74065 0.42213 0.0
Zn303 Zn 0.89594 0.71077 0.36811 0.0
Zn304 Zn 0.91113 0.6646 0.4368 0.0
O305 O 0.87088 0.77415 0.4554 0.0
O306 O 0.90238 0.70478 0.47689 0.0
O307 O 0.76165 0.63748 0.43035 0.0
O308 O 0.77165 0.71686 0.44522 0.0
O309 O 0.80878 0.78884 0.38885 0.0
O310 O 0.86178 0.77106 0.34964 0.0
O311 O 0.96691 0.72688 0.3779 0.0
O312 O 0.86698 0.56726 0.40263 0.0
O313 O 0.97888 0.68063 0.42157 0.0
O314 O 0.91576 0.59155 0.44331 0.0
C315 C 0.8475 0.64556 0.32473 0.0
C316 C 0.89277 0.75122 0.47826 0.0
C317 C 0.82637 0.79715 0.36093 0.0
C318 C 0.74904 0.67565 0.44769 0.0
C319 C 0.99547 0.7089 0.39962 0.0
C320 C 0.90207 0.55849 0.42316 0.0
O321 O 0.8902 0.66017 0.33448 0.0
O322 O 0.36697 0.82247 0.36882 0.0
Zn323 Zn 0.35685 0.83858 0.41936 0.0
O324 O 0.29718 0.87803 0.42124 0.0
Zn325 Zn 0.24807 0.85996 0.45181 0.0
Zn326 Zn 0.2584 0.86909 0.38393 0.0
Zn327 Zn 0.30941 0.94739 0.42055 0.0
O328 O 0.21852 0.919 0.47235 0.0
O329 O 0.26774 0.97972 0.45473 0.0
O330 O 0.34406 0.78131 0.45531 0.0
O331 O 0.27838 0.81238 0.48239 0.0
O332 O 0.19025 0.82399 0.43253 0.0
O333 O 0.21834 0.80757 0.38394 0.0
O334 O 0.21826 0.92894 0.374 0.0
O335 O 0.41656 0.88606 0.43115 0.0
O336 O 0.28467 0.97689 0.37884 0.0
O337 O 0.38247 0.96162 0.42643 0.0
C338 C 0.34246 0.84134 0.34475 0.0
C339 C 0.23117 0.96441 0.47176 0.0
C340 C 0.18664 0.80065 0.40595 0.0
C341 C 0.31292 0.78013 0.4793 0.0
C342 C 0.24166 0.96846 0.36654 0.0
C343 C 0.42051 0.93382 0.43088 0.0
O344 O 0.30162 0.86373 0.34852 0.0
O345 O 0.15815 0.34417 0.34164 0.0
Zn346 Zn 0.1355 0.33387 0.39002 0.0
O347 O 0.09724 0.27138 0.39045 0.0
Zn348 Zn 0.12713 0.22154 0.4181 0.0
Zn349 Zn 0.08856 0.23894 0.34889 0.0
Zn350 Zn 0.02998 0.28484 0.40372 0.0
O351 O 0.0751 0.18954 0.44592 0.0
O352 O 0.00694 0.23262 0.43398 0.0
O353 O 0.19433 0.32755 0.42548 0.0
O354 O 0.18126 0.25128 0.44522 0.0
O355 O 0.15734 0.16586 0.39275 0.0
O356 O 0.11805 0.172 0.34554 0.0
O357 O 0.01912 0.23552 0.33189 0.0
O358 O 0.08513 0.39192 0.40083 0.0
O359 O 0.98219 0.28442 0.367 0.0
O360 O 0.01999 0.35199 0.42186 0.0
C361 C 0.14778 0.31809 0.31632 0.0
C362 C 0.02818 0.19647 0.44838 0.0
C363 C 0.14711 0.1493 0.36471 0.0
C364 C 0.20524 0.29221 0.44549 0.0
C365 C 0.98149 0.26084 0.34043 0.0
C366 C 0.04178 0.39222 0.41419 0.0
O367 O 0.12232 0.2786 0.31763 0.0
C368 C 0.18378 0.30709 0.2289 0.0
C369 C 0.14337 0.33378 0.21475 0.0
C370 C 0.11842 0.3637 0.2684 0.0
C371 C 0.15691 0.335 0.28287 0.0
N372 N 0.22348 0.27541 0.27777 0.0
N373 N 0.06574 0.37693 0.22116 0.0
C374 C 0.18902 0.30572 0.26325 0.0
C375 C 0.1086 0.35866 0.23474 0.0
N376 N 0.21799 0.28439 0.2094 0.0
N377 N 0.09099 0.39548 0.28706 0.0
H378 H 0.05745 0.37127 0.19674 0.0
H379 H 0.03658 0.39248 0.23436 0.0
H380 H 0.09805 0.40025 0.3117 0.0
H381 H 0.0648 0.42037 0.27773 0.0
H382 H 0.25187 0.26998 0.21765 0.0
H383 H 0.2129 0.2813 0.18447 0.0
H384 H 0.24399 0.24845 0.26554 0.0
H385 H 0.23014 0.27625 0.30268 0.0
C386 C 0.69339 0.18886 0.29284 0.0
C387 C 0.65048 0.17634 0.31098 0.0
C388 C 0.60294 0.17682 0.26087 0.0
C389 C 0.64788 0.17112 0.24217 0.0
N390 N 0.73882 0.18003 0.24288 0.0
N391 N 0.56265 0.15801 0.31164 0.0
C392 C 0.69418 0.17999 0.25873 0.0
C393 C 0.60469 0.17009 0.29479 0.0
N394 N 0.73271 0.21084 0.30825 0.0
N395 N 0.55964 0.19372 0.24721 0.0
H396 H 0.5624 0.15572 0.33685 0.0
H397 H 0.52917 0.14817 0.3002 0.0
H398 H 0.55905 0.21071 0.22468 0.0
H399 H 0.52719 0.19999 0.2605 0.0
H400 H 0.76365 0.22526 0.29619 0.0
H401 H 0.73078 0.2196 0.3328 0.0
H402 H 0.77306 0.17935 0.25507 0.0
H403 H 0.74251 0.18015 0.21794 0.0
C404 C 0.8833 0.62731 0.23736 0.0
C405 C 0.84781 0.6569 0.22068 0.0
C406 C 0.81075 0.68052 0.27296 0.0
C407 C 0.84115 0.64444 0.28888 0.0
N408 N 0.90226 0.57881 0.28525 0.0
N409 N 0.7761 0.711 0.22232 0.0
C410 C 0.87645 0.61668 0.27072 0.0
C411 C 0.81142 0.68387 0.23846 0.0
N412 N 0.9231 0.60854 0.22072 0.0
N413 N 0.78277 0.71296 0.29075 0.0
H414 H 0.77771 0.71712 0.19746 0.0
H415 H 0.74441 0.72572 0.23333 0.0
H416 H 0.78034 0.71103 0.31583 0.0
H417 H 0.76472 0.74379 0.28085 0.0
H418 H 0.9528 0.58986 0.23169 0.0
H419 H 0.92846 0.61627 0.19622 0.0
H420 H 0.92535 0.55428 0.27278 0.0
H421 H 0.89662 0.56883 0.30935 0.0
C422 C 0.3316 0.80564 0.29048 0.0
C423 C 0.35807 0.83955 0.31044 0.0
C424 C 0.37175 0.89357 0.26312 0.0
C425 C 0.3412 0.86174 0.24387 0.0
N426 N 0.28464 0.79217 0.24082 0.0
N427 N 0.39957 0.91839 0.3168 0.0
C428 C 0.31881 0.81919 0.25813 0.0
C429 C 0.37763 0.88403 0.29687 0.0
N430 N 0.31825 0.76048 0.30292 0.0
N431 N 0.3958 0.93262 0.24881 0.0
H432 H 0.40619 0.91134 0.34126 0.0
H433 H 0.409 0.95431 0.30959 0.0
H434 H 0.38897 0.94285 0.22484 0.0
H435 H 0.42357 0.95357 0.2602 0.0
H436 H 0.30252 0.73189 0.28921 0.0
H437 H 0.32763 0.75022 0.32654 0.0
H438 H 0.26381 0.7631 0.25054 0.0
H439 H 0.27369 0.80194 0.21745 0.0
C440 C 0.14793 0.62359 0.79413 0.0
C441 C 0.13464 0.66572 0.81411 0.0
C442 C 0.15545 0.71826 0.76737 0.0
C443 C 0.15561 0.6763 0.74636 0.0
N444 N 0.14022 0.58787 0.74089 0.0
N445 N 0.11526 0.75421 0.81384 0.0
C446 C 0.14836 0.62864 0.75996 0.0
C447 C 0.13583 0.71356 0.7992 0.0
N448 N 0.16367 0.57933 0.80679 0.0
N449 N 0.17293 0.76302 0.75666 0.0
H450 H 0.0942 0.75226 0.83488 0.0
H451 H 0.11283 0.78876 0.80246 0.0
H452 H 0.18859 0.76724 0.73373 0.0
H453 H 0.17695 0.79383 0.77183 0.0
H454 H 0.17619 0.55004 0.79236 0.0
H455 H 0.17315 0.57393 0.83075 0.0
H456 H 0.12903 0.55367 0.75039 0.0
H457 H 0.1403 0.58879 0.71577 0.0
C458 C 0.35409 0.13001 0.73383 0.0
C459 C 0.36697 0.16949 0.71167 0.0
C460 C 0.35053 0.22771 0.75623 0.0
C461 C 0.35136 0.18841 0.77919 0.0
N462 N 0.36364 0.10024 0.78849 0.0
N463 N 0.38838 0.25727 0.70721 0.0
C464 C 0.35588 0.139 0.76771 0.0
C465 C 0.3678 0.21892 0.72425 0.0
N466 N 0.33713 0.08463 0.72354 0.0
N467 N 0.33459 0.27393 0.76523 0.0
H468 H 0.40816 0.25238 0.68585 0.0
H469 H 0.39226 0.29297 0.71686 0.0
H470 H 0.32063 0.28109 0.78832 0.0
H471 H 0.33004 0.30294 0.74872 0.0
H472 H 0.32448 0.05745 0.73955 0.0
H473 H 0.32738 0.07611 0.69994 0.0
H474 H 0.37323 0.0647 0.78042 0.0
H475 H 0.36451 0.1039 0.8135 0.0
C476 C 0.83924 0.29628 0.80034 0.0
C477 C 0.87447 0.33012 0.8142 0.0
C478 C 0.89087 0.36477 0.7601 0.0
C479 C 0.85929 0.32844 0.74607 0.0
N480 N 0.80361 0.25906 0.75162 0.0
N481 N 0.93981 0.39057 0.80681 0.0
C482 C 0.83295 0.29453 0.76603 0.0
C483 C 0.90192 0.3627 0.79379 0.0
N484 N 0.81093 0.26664 0.81987 0.0
N485 N 0.91093 0.40073 0.74074 0.0
H486 H 0.94993 0.38803 0.83116 0.0
H487 H 0.96417 0.41228 0.79323 0.0
H488 H 0.90288 0.4025 0.71602 0.0
H489 H 0.93141 0.43096 0.74938 0.0
H490 H 0.78042 0.246 0.81175 0.0
H491 H 0.81649 0.26385 0.84471 0.0
H492 H 0.78824 0.22871 0.76363 0.0
H493 H 0.79604 0.25944 0.72681 0.0
C494 C 0.59057 0.85929 0.73509 0.0
C495 C 0.61929 0.82551 0.71633 0.0
C496 C 0.654 0.78913 0.76618 0.0
C497 C 0.62339 0.82111 0.78482 0.0
N498 N 0.55901 0.88347 0.78782 0.0
N499 N 0.67312 0.75382 0.71352 0.0
C500 C 0.59088 0.85557 0.76944 0.0
C501 C 0.64921 0.78883 0.73182 0.0
N502 N 0.56408 0.89591 0.71982 0.0
N503 N 0.68808 0.75948 0.78168 0.0
H504 H 0.66999 0.7525 0.6884 0.0
H505 H 0.69259 0.72367 0.72307 0.0
H506 H 0.69246 0.75985 0.80679 0.0
H507 H 0.7147 0.73791 0.76992 0.0
H508 H 0.54749 0.92582 0.73166 0.0
H509 H 0.56019 0.89697 0.69474 0.0
H510 H 0.52983 0.90465 0.77833 0.0
H511 H 0.56069 0.88392 0.81305 0.0
C512 C 0.95383 0.48825 0.12226 0.0
C513 C 0.94207 0.52629 0.09942 0.0
C514 C 0.02272 0.5118 0.07269 0.0
C515 C 0.03554 0.47544 0.09628 0.0
N516 N 0.01843 0.43976 0.14869 0.0
N517 N 0.97171 0.58317 0.05875 0.0
C518 C 0.00232 0.46615 0.12235 0.0
C519 C 0.97849 0.5409 0.07648 0.0
N520 N 0.91927 0.47419 0.14479 0.0
N521 N 0.05186 0.51728 0.04586 0.0
H522 H 0.93885 0.604 0.05923 0.0
H523 H 0.00054 0.59967 0.0457 0.0
H524 H 0.08337 0.49538 0.04157 0.0
H525 H 0.04211 0.54006 0.02647 0.0
H526 H 0.92251 0.44178 0.15847 0.0
H527 H 0.88641 0.49388 0.14922 0.0
H528 H -0.00184 0.43681 0.17004 0.0
H529 H 0.05433 0.42507 0.15079 0.0
C530 C 0.48797 0.97401 0.08423 0.0
C531 C 0.46614 0.9576 0.11364 0.0
C532 C 0.51466 0.02096 0.14334 0.0
C533 C 0.53925 0.03481 0.11429 0.0
N534 N 0.55559 0.01897 0.05813 0.0
N535 N 0.46799 0.95786 0.17211 0.0
C536 C 0.52768 0.0096 0.08503 0.0
C537 C 0.48201 0.979 0.14347 0.0
N538 N 0.4695 0.95679 0.05542 0.0
N539 N 0.52068 0.04912 0.17063 0.0
H540 H 0.44482 0.92673 0.17356 0.0
H541 H 0.48307 0.96836 0.19438 0.0
H542 H 0.54459 0.07969 0.17184 0.0
H543 H 0.49894 0.04456 0.19127 0.0
H544 H 0.48031 0.97078 0.03304 0.0
H545 H 0.43992 0.93151 0.05396 0.0
H546 H 0.55303 -0.00208 0.03706 0.0
H547 H 0.58491 0.04467 0.05802 0.0
C548 C 0.9871 0.4735 0.91874 0.0
C549 C 0.9495 0.47424 0.9431 0.0
C550 C 0.98705 0.55192 0.96442 0.0
C551 C 0.02854 0.5463 0.9436 0.0
N552 N 0.07058 0.49803 0.90258 0.0
N553 N 0.92016 0.51035 0.9931 0.0
C554 C 0.0295 0.50564 0.92152 0.0
C555 C 0.95121 0.51259 0.96699 0.0
N556 N 0.98068 0.44536 0.89146 0.0
N557 N 0.98136 0.59502 0.98146 0.0
H558 H 0.89657 0.4802 0.99749 0.0
H559 H 0.92166 0.53566 1.01214 0.0
H560 H 0.00763 0.62376 0.98089 0.0
H561 H 0.94849 0.60383 0.99365 0.0
H562 H 0.00438 0.44748 0.87158 0.0
H563 H 0.94863 0.42454 0.88671 0.0
H564 H 0.07583 0.46569 0.88907 0.0
H565 H 0.10092 0.52245 0.90187 0.0
C566 C 0.47778 0.96575 0.87991 0.0
C567 C 0.50374 0.94897 0.90798 0.0
C568 C 0.48087 0.02635 0.93617 0.0
C569 C 0.45828 0.0447 0.90732 0.0
N570 N 0.44447 0.03566 0.84982 0.0
N571 N 0.53548 0.96497 0.96143 0.0
C572 C 0.45887 0.01527 0.87872 0.0
C573 C 0.50691 0.97983 0.93573 0.0
N574 N 0.47088 0.93419 0.85426 0.0
N575 N 0.47614 0.05291 0.9642 0.0
H576 H 0.5539 0.93073 0.96205 0.0
H577 H 0.5443 0.98807 0.98083 0.0
H578 H 0.45674 0.08658 0.96531 0.0
H579 H 0.48758 0.03986 0.98675 0.0
H580 H 0.44665 0.94178 0.83508 0.0
H581 H 0.48688 0.89884 0.85296 0.0
H582 H 0.44985 0.01827 0.82759 0.0
H583 H 0.43112 0.0719 0.84756 0.0
C584 C 0.51303 0.97318 0.60985 0.0
C585 C 0.5534 0.9757 0.58753 0.0
C586 C 0.51456 0.05066 0.56332 0.0
C587 C 0.4717 0.04431 0.58293 0.0
N588 N 0.42796 -0.00364 0.6233 0.0
N589 N 0.58747 0.01223 0.53906 0.0
C590 C 0.4702 0.00432 0.60548 0.0
C591 C 0.55278 0.01334 0.56321 0.0
N592 N 0.51693 0.94378 0.63671 0.0
N593 N 0.51937 0.09286 0.54526 0.0
H594 H 0.61442 0.98432 0.5372 0.0
H595 H 0.58638 0.0359 0.51914 0.0
H596 H 0.49154 0.12004 0.54407 0.0
H597 H 0.5525 0.10268 0.53372 0.0
H598 H 0.49162 0.94483 0.65576 0.0
H599 H 0.5481 0.92196 0.64179 0.0
H600 H 0.42211 0.96429 0.63692 0.0
H601 H 0.39724 0.02027 0.62305 0.0
C602 C 0.05554 0.48846 0.64857 0.0
C603 C 0.05784 0.51715 0.61965 0.0
C604 C 0.00323 0.45549 0.59253 0.0
C605 C 0.00402 0.42528 0.62061 0.0
N606 N 0.03666 0.4093 0.67406 0.0
N607 N 0.04138 0.52315 0.56248 0.0
C608 C 0.03229 0.44054 0.64811 0.0
C609 C 0.03382 0.49911 0.59116 0.0
N610 N 0.07215 0.50835 0.67712 0.0
N611 N 0.97201 0.4434 0.56748 0.0
H612 H 0.06443 0.55438 0.56055 0.0
H613 H 0.02889 0.50949 0.54027 0.0
H614 H 0.95033 0.41107 0.56724 0.0
H615 H 0.96426 0.46763 0.54849 0.0
H616 H 0.06587 0.49202 0.69957 0.0
H617 H 0.08862 0.54335 0.6789 0.0
H618 H 0.06172 0.41531 0.69305 0.0
H619 H 0.01757 0.37551 0.67566 0.0
C620 C 0.50758 0.94963 0.40907 0.0
C621 C 0.4706 0.95899 0.43294 0.0
C622 C 0.51969 0.0313 0.45224 0.0
C623 C 0.55876 0.01913 0.43055 0.0
N624 N 0.59091 0.96522 0.38864 0.0
N625 N 0.44571 0.00348 0.48087 0.0
C626 C 0.55306 0.97759 0.40929 0.0
C627 C 0.47785 -0.00147 0.45545 0.0
N628 N 0.49798 0.91645 0.38467 0.0
N629 N 0.52189 0.07464 0.46943 0.0
H630 H 0.41569 0.97932 0.48456 0.0
H631 H 0.4516 0.02822 0.49993 0.0
H632 H 0.55286 0.09825 0.46916 0.0
H633 H 0.49128 0.08912 0.48176 0.0
H634 H 0.52004 0.91298 0.36412 0.0
H635 H 0.46585 0.89462 0.38345 0.0
H636 H 0.59281 0.9312 0.37662 0.0
H637 H 0.6216 0.98818 0.38427 0.0
C638 C 0.99599 0.46472 0.38831 0.0
C639 C 0.01089 0.43862 0.4167 0.0
C640 C 0.94684 0.48449 0.44749 0.0
C641 C 0.93556 0.51397 0.41988 0.0
N642 N 0.96022 0.54007 0.36621 0.0
N643 N 0.00619 0.42979 0.47448 0.0
C644 C 0.96311 0.50631 0.39088 0.0
C645 C 0.9879 0.45044 0.44665 0.0
N646 N 0.01092 0.44852 0.35853 0.0
N647 N 0.91731 0.48802 0.47428 0.0
H648 H 0.03684 0.40573 0.47473 0.0
H649 H 0.99433 0.44017 0.49743 0.0
H650 H 0.88657 0.51189 0.47545 0.0
H651 H 0.9202 0.464 0.49395 0.0
H652 H 0.99632 0.46273 0.33702 0.0
H653 H 0.03415 0.41788 0.35512 0.0
H654 H 0.9837 0.53894 0.34617 0.0
H655 H 0.93823 0.57204 0.36706 0.0
C656 C 0.35192 0.25753 0.15141 0.0
C657 C 0.35038 0.30689 0.16326 0.0
C658 C 0.44064 0.30881 0.16972 0.0
C659 C 0.44273 0.25995 0.15652 0.0
N660 N 0.40093 0.18251 0.14407 0.0
N661 N 0.38889 0.37286 0.19376 0.0
C662 C 0.39842 0.23241 0.15042 0.0
C663 C 0.39336 0.32987 0.17634 0.0
N664 N 0.30923 0.23598 0.13962 0.0
N665 N 0.48325 0.33661 0.17337 0.0
H666 H 0.35425 0.38908 0.19853 0.0
H667 H 0.41861 0.38932 0.20618 0.0
H668 H 0.51878 0.32389 0.1672 0.0
H669 H 0.48306 0.37414 0.17971 0.0
H670 H 0.3087 0.20247 0.12693 0.0
H671 H 0.27431 0.25312 0.14159 0.0
H672 H 0.36954 0.15972 0.14207 0.0
H673 H 0.43466 0.16296 0.14366 0.0
C674 C 0.75445 0.39867 0.19438 0.0
C675 C 0.72051 0.43748 0.18664 0.0
C676 C 0.65065 0.38375 0.20153 0.0
C677 C 0.68307 0.34276 0.19904 0.0
N678 N 0.76586 0.30927 0.20021 0.0
N679 N 0.63495 0.46789 0.18384 0.0
C680 C 0.73534 0.34991 0.19883 0.0
C681 C 0.6682 0.43104 0.19158 0.0
N682 N 0.80448 0.40856 0.19681 0.0
N683 N 0.60249 0.3764 0.2112 0.0
H684 H 0.64541 0.50282 0.17537 0.0
H685 H 0.59634 0.46261 0.18355 0.0
H686 H 0.5897 0.34131 0.21819 0.0
H687 H 0.57745 0.40534 0.2155 0.0
H688 H 0.83093 0.38246 0.20419 0.0
H689 H 0.81889 0.44444 0.19401 0.0
H690 H 0.80435 0.31051 0.1966 0.0
H691 H 0.75138 0.27369 0.2043 0.0
C692 C 0.5931 0.66375 0.19002 0.0
C693 C 0.63513 0.6893 0.17809 0.0
C694 C 0.58437 0.76236 0.167 0.0
C695 C 0.54128 0.73206 0.17053 0.0
N696 N 0.50345 0.65362 0.18604 0.0
N697 N 0.67407 0.76383 0.15855 0.0
C698 C 0.54501 0.68304 0.18319 0.0
C699 C 0.63194 0.73954 0.16843 0.0
N700 N 0.59956 0.61986 0.20614 0.0
N701 N 0.57958 0.81252 0.16234 0.0
H702 H 0.70951 0.74775 0.16066 0.0
H703 H 0.67371 0.79851 0.14732 0.0
H704 H 0.54489 0.83034 0.16183 0.0
H705 H 0.60984 0.83694 0.16201 0.0
H706 H 0.5706 0.60084 0.2175 0.0
H707 H 0.63509 0.60532 0.21077 0.0
H708 H 0.50494 0.61598 0.19195 0.0
H709 H 0.46746 0.66551 0.18013 0.0
C710 C 0.31009 0.56933 0.19314 0.0
C711 C 0.25849 0.56151 0.18598 0.0
C712 C 0.24078 0.64916 0.19629 0.0
C713 C 0.2927 0.65747 0.19938 0.0
N714 N 0.37187 0.62495 0.21681 0.0
N715 N 0.17338 0.58876 0.1934 0.0
C716 C 0.32541 0.617 0.20401 0.0
C717 C 0.22322 0.59977 0.19215 0.0
N718 N 0.34508 0.53361 0.18669 0.0
N719 N 0.20922 0.68899 0.19478 0.0
H720 H 0.16006 0.55237 0.19103 0.0
H721 H 0.1461 0.61456 0.19981 0.0
H722 H 0.22211 0.72525 0.19861 0.0
H723 H 0.17145 0.68627 0.18871 0.0
H724 H 0.38345 0.54029 0.18798 0.0
H725 H 0.33663 0.49846 0.17763 0.0
H726 H 0.39649 0.5962 0.22262 0.0
H727 H 0.3831 0.65998 0.22501 0.0
C728 C 0.33672 0.67433 0.82064 0.0
C729 C 0.30116 0.70651 0.83525 0.0
C730 C 0.35629 0.77752 0.82669 0.0
C731 C 0.39558 0.74312 0.82203 0.0
N732 N 0.41726 0.66834 0.79373 0.0
N733 N 0.26921 0.78928 0.84214 0.0
C734 C 0.3837 0.69447 0.81175 0.0
C735 C 0.30803 0.75875 0.8341 0.0
N736 N 0.32754 0.62449 0.81788 0.0
N737 N 0.36614 0.82726 0.82467 0.0
H738 H 0.23344 0.77513 0.8465 0.0
H739 H 0.27197 0.82778 0.84416 0.0
H740 H 0.40139 0.84015 0.81772 0.0
H741 H 0.33947 0.85506 0.82753 0.0
H742 H 0.35488 0.59863 0.81167 0.0
H743 H 0.29267 0.6087 0.82227 0.0
H744 H 0.40974 0.63351 0.78374 0.0
H745 H 0.45048 0.68468 0.78581 0.0
C746 C 0.24522 0.42764 0.88895 0.0
C747 C 0.26516 0.47561 0.89485 0.0
C748 C 0.35051 0.44451 0.88851 0.0
C749 C 0.3305 0.3967 0.88218 0.0
N750 N 0.26034 0.34381 0.8694 0.0
N751 N 0.33488 0.53295 0.89391 0.0
C752 C 0.27818 0.38867 0.88009 0.0
C753 C 0.3173 0.48511 0.89258 0.0
N754 N 0.19514 0.41919 0.8928 0.0
N755 N 0.40108 0.45053 0.89195 0.0
H756 H 0.31186 0.56369 0.89788 0.0
H757 H 0.37174 0.54268 0.88892 0.0
H758 H 0.42653 0.42184 0.88767 0.0
H759 H 0.41768 0.48301 0.90064 0.0
H760 H 0.17891 0.38397 0.89215 0.0
H761 H 0.16999 0.44734 0.89884 0.0
H762 H 0.22273 0.33681 0.86458 0.0
H763 H 0.28386 0.31459 0.8627 0.0
C764 C 0.66061 0.23593 0.84005 0.0
C765 C 0.67002 0.28786 0.8392 0.0
C766 C 0.58814 0.30168 0.81414 0.0
C767 C 0.57477 0.25338 0.824 0.0
N768 N 0.60344 0.16882 0.82586 0.0
N769 N 0.64583 0.37027 0.82072 0.0
C770 C 0.61302 0.2183 0.83003 0.0
C771 C 0.63554 0.32063 0.8236 0.0
N772 N 0.69584 0.20437 0.85245 0.0
N773 N 0.55534 0.32867 0.79586 0.0
H774 H 0.68041 0.3859 0.82634 0.0
H775 H 0.61934 0.39661 0.81375 0.0
H776 H 0.52148 0.31333 0.78794 0.0
H777 H 0.56376 0.36315 0.78577 0.0
H778 H 0.68916 0.16689 0.85719 0.0
H779 H 0.73156 0.2165 0.85908 0.0
H780 H 0.63049 0.14115 0.82812 0.0
H781 H 0.56921 0.15648 0.81651 0.0
C782 C 0.72702 0.57091 0.86901 0.0
C783 C 0.70705 0.52293 0.87439 0.0
C784 C 0.62186 0.55411 0.86775 0.0
C785 C 0.64162 0.60287 0.86807 0.0
N786 N 0.71139 0.65977 0.86688 0.0
N787 N 0.63684 0.46659 0.87821 0.0
C788 C 0.69387 0.6119 0.86751 0.0
C789 C 0.65481 0.51359 0.8729 0.0
N790 N 0.7775 0.57683 0.86529 0.0
N791 N 0.57171 0.54701 0.86293 0.0
H792 H 0.65999 0.43574 0.88151 0.0
H793 H 0.5991 0.45821 0.88105 0.0
H794 H 0.54691 0.57654 0.8594 0.0
H795 H 0.55517 0.51225 0.85978 0.0
H796 H 0.79438 0.6102 0.8587 0.0
H797 H 0.8025 0.54702 0.86636 0.0
H798 H 0.74876 0.66941 0.8703 0.0
H799 H 0.68792 0.69052 0.86399 0.0
C800 C 0.87756 0.79826 0.69338 0.0
C801 C 0.84268 0.76795 0.67619 0.0
C802 C 0.89949 0.69722 0.68056 0.0
C803 C 0.93812 0.73091 0.68926 0.0
N804 N 0.95827 0.80301 0.72078 0.0
N805 N 0.81697 0.6874 0.65666 0.0
C806 C 0.92515 0.77824 0.70133 0.0
C807 C 0.85218 0.71666 0.67138 0.0
N808 N 0.86676 0.847 0.69973 0.0
N809 N 0.90758 0.64716 0.68251 0.0
H810 H 0.78114 0.70041 0.6511 0.0
H811 H 0.82395 0.6512 0.64884 0.0
H812 H 0.94019 0.63264 0.69278 0.0
H813 H 0.87992 0.62061 0.6782 0.0
H814 H 0.89292 0.87266 0.7082 0.0
H815 H 0.83168 0.86248 0.6955 0.0
H816 H 0.95033 0.83643 0.73243 0.0
H817 H 0.99206 0.78678 0.72794 0.0
C818 C 0.26815 0.9131 0.6263 0.0
C819 C 0.24591 0.96045 0.63036 0.0
C820 C 0.16424 0.92187 0.63985 0.0
C821 C 0.18703 0.87442 0.63712 0.0
N822 N 0.26194 0.82448 0.63601 0.0
N823 N 0.17552 0.01079 0.64677 0.0
C824 C 0.23946 0.86993 0.63284 0.0
C825 C 0.19484 0.96509 0.63923 0.0
N826 N 0.31623 0.90935 0.61546 0.0
N827 N 0.11326 0.9258 0.64101 0.0
H828 H 0.19598 0.04376 0.64509 0.0
H829 H 0.14024 0.01575 0.65685 0.0
H830 H 0.0895 0.89501 0.64152 0.0
H831 H 0.09423 0.95948 0.63901 0.0
H832 H 0.33254 0.87581 0.60854 0.0
H833 H 0.33875 0.94033 0.61113 0.0
H834 H 0.3006 0.81973 0.63659 0.0
H835 H 0.24208 0.79209 0.64143 0.0
C836 C 0.1107 0.16804 0.70093 0.0
C837 C 0.09733 0.21764 0.69292 0.0
C838 C 0.18487 0.2427 0.69326 0.0
C839 C 0.19747 0.19179 0.69403 0.0
N840 N 0.17797 0.11177 0.71625 0.0
N841 N 0.11855 0.3047 0.69293 0.0
C842 C 0.16211 0.15647 0.70446 0.0
C843 C 0.1336 0.25614 0.69341 0.0
N844 N 0.07501 0.13171 0.70259 0.0
N845 N 0.22223 0.27685 0.68956 0.0
H846 H 0.08079 0.31447 0.69364 0.0
H847 H 0.14284 0.33494 0.69395 0.0
H848 H 0.25979 0.26597 0.68997 0.0
H849 H 0.21648 0.31478 0.68618 0.0
H850 H 0.08333 0.09397 0.70458 0.0
H851 H 0.03684 0.13915 0.70052 0.0
H852 H 0.15397 0.08502 0.72574 0.0
H853 H 0.2159 0.1042 0.7198 0.0
C854 C 0.88785 0.04236 0.67992 0.0
C855 C 0.86511 0.08662 0.69062 0.0
C856 C 0.78399 0.04538 0.6937 0.0
C857 C 0.80455 0.00551 0.67576 0.0
N858 N 0.87639 0.9613 0.65505 0.0
N859 N 0.79527 0.12997 0.71345 0.0
C860 C 0.85696 0.00183 0.67062 0.0
C861 C 0.81446 0.08744 0.70029 0.0
N862 N 0.93876 0.0407 0.6775 0.0
N863 N 0.73549 0.04287 0.70392 0.0
H864 H 0.81805 0.16019 0.7195 0.0
H865 H 0.75746 0.13578 0.71793 0.0
H866 H 0.71271 0.01206 0.69927 0.0
H867 H 0.71885 0.06923 0.71884 0.0
H868 H 0.95893 0.00894 0.67146 0.0
H869 H 0.961 0.07101 0.68429 0.0
H870 H 0.91351 0.9584 0.64787 0.0
H871 H 0.85478 0.9308 0.648 0.0
C872 C 0.88443 0.1776 0.31773 0.0
C873 C 0.84989 0.19746 0.34041 0.0
C874 C 0.89126 0.2781 0.33767 0.0
C875 C 0.93255 0.25334 0.32423 0.0
N876 N 0.95656 0.19477 0.28366 0.0
N877 N 0.81347 0.269 0.36693 0.0
C878 C 0.92468 0.20818 0.30776 0.0
C879 C 0.8502 0.24908 0.34803 0.0
N880 N 0.88158 0.12893 0.30825 0.0
N881 N 0.89369 0.32836 0.34208 0.0
H882 H 0.78257 0.24846 0.37455 0.0
H883 H 0.81418 0.30527 0.3758 0.0
H884 H 0.92495 0.34855 0.33448 0.0
H885 H 0.86419 0.34987 0.35061 0.0
H886 H 0.90909 0.11135 0.29465 0.0
H887 H 0.85263 0.10524 0.31505 0.0
H888 H 0.95159 0.16334 0.26922 0.0
H889 H 0.98523 0.21861 0.27629 0.0
C890 C 0.73631 0.89832 0.3434 0.0
C891 C 0.77065 0.93773 0.34786 0.0
C892 C 0.84009 0.88111 0.33778 0.0
C893 C 0.80705 0.84095 0.34342 0.0
N894 N 0.72304 0.80907 0.34539 0.0
N895 N 0.85556 0.96873 0.34709 0.0
C896 C 0.75465 0.84889 0.34332 0.0
C897 C 0.82265 0.93012 0.34342 0.0
N898 N 0.68652 0.90856 0.33998 0.0
N899 N 0.88794 0.87238 0.32792 0.0
H900 H 0.84424 0.00541 0.35077 0.0
H901 H 0.89419 0.96396 0.3483 0.0
H902 H 0.90078 0.83684 0.32225 0.0
H903 H 0.91267 0.90062 0.32148 0.0
H904 H 0.65954 0.88177 0.33469 0.0
H905 H 0.67307 0.94505 0.33956 0.0
H906 H 0.68469 0.81206 0.34917 0.0
H907 H 0.73611 0.77252 0.3443 0.0
C908 C 0.11771 0.76187 0.37164 0.0
C909 C 0.14437 0.76606 0.40144 0.0
C910 C 0.07426 0.73055 0.43024 0.0
C911 C 0.04865 0.7232 0.40037 0.0
N912 N 0.05666 0.71288 0.34245 0.0
N913 N 0.15574 0.73247 0.45524 0.0
C914 C 0.07393 0.73239 0.37091 0.0
C915 C 0.12542 0.7424 0.42937 0.0
N916 N 0.13097 0.7882 0.34474 0.0
N917 N 0.04996 0.73098 0.45927 0.0
H918 H 0.19425 0.73885 0.45467 0.0
H919 H 0.14339 0.7126 0.47536 0.0
H920 H 0.01128 0.72938 0.46164 0.0
H921 H 0.06808 0.74007 0.4809 0.0
H922 H 0.10876 0.78888 0.32393 0.0
H923 H 0.16055 0.81323 0.34376 0.0
H924 H 0.07634 0.71613 0.32083 0.0
H925 H 0.02644 0.6883 0.34135 0.0
C926 C 0.24315 0.05315 0.34194 0.0
C927 C 0.21558 0.00997 0.34982 0.0
C928 C 0.13923 0.05826 0.35481 0.0
C929 C 0.16893 0.10204 0.35437 0.0
N930 N 0.24685 0.14347 0.34267 0.0
N931 N 0.13572 0.96985 0.34312 0.0
C932 C 0.22015 0.1003 0.34574 0.0
C933 C 0.16279 0.01182 0.3496 0.0
N934 N 0.29054 0.04823 0.33018 0.0
N935 N 0.08949 0.06077 0.3622 0.0
H936 H 0.15285 0.93686 0.33575 0.0
H937 H 0.09693 0.96955 0.34064 0.0
H938 H 0.07068 0.09434 0.36572 0.0
H939 H 0.06759 0.02948 0.3667 0.0
H940 H 0.31235 0.07782 0.3222 0.0
H941 H 0.30591 0.01322 0.32546 0.0
H942 H 0.28547 0.14476 0.33978 0.0
H943 H 0.2302 0.17856 0.34397 0.0
C944 C 0.24665 0.23283 0.03046 0.0
C945 C 0.22026 0.27779 0.02452 0.0
C946 C 0.23535 0.26723 0.96601 0.0
C947 C 0.26998 0.2284 0.97275 0.0
N948 N 0.30522 0.17039 1.01056 0.0
N949 N 0.186 0.33651 0.98674 0.0
C950 C 0.27367 0.2094 1.00474 0.0
C951 C 0.21264 0.2939 0.99215 0.0
N952 N 0.24672 0.21353 0.06102 0.0
N953 N 0.22532 0.27933 0.93457 0.0
H954 H 0.16721 0.35504 1.00528 0.0
H955 H 0.18373 0.35438 0.96447 0.0
H956 H 0.24154 0.2605 0.91522 0.0
H957 H 0.19796 0.30469 0.92753 0.0
H958 H 0.26244 0.1794 0.06718 0.0
H959 H 0.22727 0.23033 0.07994 0.0
H960 H 0.31466 0.15756 0.03352 0.0
H961 H 0.32307 0.15135 0.99185 0.0
C962 C 0.82636 0.2497 0.03015 0.0
C963 C 0.80996 0.23086 0.99967 0.0
C964 C 0.75842 0.16813 0.0281 0.0
C965 C 0.77122 0.19006 0.05835 0.0
N966 N 0.82997 0.23889 0.08866 0.0
N967 N 0.77393 0.16268 0.97013 0.0
C968 C 0.81 0.22618 0.05934 0.0
C969 C 0.78083 0.18651 0.999 0.0
N970 N 0.8541 0.29238 0.03151 0.0
N971 N 0.72198 0.13254 0.02685 0.0
H972 H 0.79019 0.1756 0.94881 0.0
H973 H 0.75646 0.12819 0.96783 0.0
H974 H 0.70657 0.1168 0.04755 0.0
H975 H 0.70575 0.1199 1.00542 0.0
H976 H 0.86131 0.31174 0.05286 0.0
H977 H 0.86816 0.30998 1.01107 0.0
H978 H 0.86106 0.26191 0.09143 0.0
H979 H 0.81804 0.22203 0.11004 0.0
C980 C 0.73939 0.73355 0.97249 0.0
C981 C 0.70044 0.76867 0.97773 0.0
C982 C 0.71994 0.76704 0.03628 0.0
C983 C 0.75199 0.72547 0.03161 0.0
N984 N 0.79569 0.6711 0.9954 0.0
N985 N 0.656 0.82229 1.014 0.0
C986 C 0.76363 0.71014 0.9996 0.0
C987 C 0.69228 0.78719 1.00947 0.0
N988 N 0.75202 0.72182 0.94144 0.0
N989 N 0.71546 0.78637 0.06671 0.0
H990 H 0.63729 0.83902 0.99462 0.0
H991 H 0.64355 0.83404 0.03654 0.0
H992 H 0.73554 0.77207 0.08634 0.0
H993 H 0.69537 0.81841 0.07217 0.0
H994 H 0.78181 0.69889 0.93523 0.0
H995 H 0.73463 0.73851 0.92156 0.0
H996 H 0.80217 0.65375 0.97332 0.0
H997 H 0.81518 0.65507 1.0147 0.0
C998 C 0.16182 0.76514 0.02938 0.0
C999 C 0.1792 0.78281 0.99895 0.0
C1000 C 0.2358 0.84131 0.02775 0.0
C1001 C 0.22153 0.82054 0.05796 0.0
N1002 N 0.15927 0.77625 0.08787 0.0
N1003 N 0.21986 0.84841 0.96981 0.0
C1004 C 0.18013 0.78736 0.05868 0.0
C1005 C 0.2116 0.82489 0.99854 0.0
N1006 N 0.13106 0.72457 0.03059 0.0
N1007 N 0.27507 0.87377 0.02657 0.0
H1008 H 0.20233 0.83693 0.94842 0.0
H1009 H 0.23976 0.88157 0.96772 0.0
H1010 H 0.29213 0.88815 0.04727 0.0
H1011 H 0.29203 0.88492 1.00515 0.0
H1012 H 0.12287 0.70564 0.05189 0.0
H1013 H 0.11531 0.7082 1.01012 0.0
H1014 H 0.12649 0.75567 0.09041 0.0
H1015 H 0.17241 0.79219 0.10936 0.0
C1016 C 0.6731 0.70885 0.47445 0.0
C1017 C 0.71314 0.67427 0.47548 0.0
C1018 C 0.71483 0.68276 0.53491 0.0
C1019 C 0.68422 0.72596 0.53274 0.0
N1020 N 0.63029 0.77803 0.50038 0.0
N1021 N 0.76848 0.62342 0.50707 0.0
C1022 C 0.66089 0.73748 0.50263 0.0
C1023 C 0.73165 0.65857 0.50604 0.0
N1024 N 0.64865 0.71561 0.44575 0.0
N1025 N 0.72847 0.66571 0.56478 0.0
H1026 H 0.77955 0.60398 0.48644 0.0
H1027 H 0.78882 0.61457 0.52781 0.0
H1028 H 0.71621 0.68284 0.586 0.0
H1029 H 0.74787 0.63265 0.56865 0.0
H1030 H 0.61682 0.73756 0.44304 0.0
H1031 H 0.65826 0.69515 0.42519 0.0
H1032 H 0.61685 0.79216 0.47858 0.0
H1033 H 0.61965 0.79891 0.52044 0.0
C1034 C 0.25106 0.67428 0.52117 0.0
C1035 C 0.25621 0.69043 0.55381 0.0
C1036 C 0.32078 0.7504 0.53665 0.0
C1037 C 0.31077 0.73878 0.50373 0.0
N1038 N 0.27953 0.67969 0.46523 0.0
N1039 N 0.30807 0.73094 0.59357 0.0
C1040 C 0.28078 0.6967 0.49634 0.0
C1041 C 0.29564 0.7238 0.56186 0.0
N1042 N 0.2156 0.63932 0.51391 0.0
N1043 N 0.35186 0.78941 0.54353 0.0
H1044 H 0.29031 0.71198 0.61225 0.0
H1045 H 0.33886 0.7517 0.60117 0.0
H1046 H 0.37204 0.80758 0.52547 0.0
H1047 H 0.35647 0.80459 0.56653 0.0
H1048 H 0.20523 0.62943 0.49048 0.0
H1049 H 0.19556 0.62087 0.53192 0.0
H1050 H 0.26081 0.64758 0.45793 0.0
H1051 H 0.30097 0.69611 0.4471 0.0
C1052 C 0.2871 0.26001 0.4669 0.0
C1053 C 0.24774 0.29528 0.46958 0.0
C1054 C 0.27371 0.31055 0.52612 0.0
C1055 C 0.30493 0.26768 0.52542 0.0
N1056 N 0.34319 0.20233 0.49408 0.0
N1057 N 0.20517 0.3569 0.5013 0.0
C1058 C 0.31333 0.24355 0.49525 0.0
C1059 C 0.24239 0.32233 0.49887 0.0
N1060 N 0.29864 0.24171 0.43703 0.0
N1061 N 0.27341 0.33913 0.55343 0.0
H1062 H 0.18305 0.3672 0.48155 0.0
H1063 H 0.19497 0.37393 0.5229 0.0
H1064 H 0.29618 0.33079 0.57331 0.0
H1065 H 0.25456 0.3729 0.55531 0.0
H1066 H 0.32943 0.21906 0.43251 0.0
H1067 H 0.27987 0.25338 0.41616 0.0
H1068 H 0.34512 0.17869 0.47416 0.0
H1069 H 0.36485 0.19052 0.51361 0.0
C1070 C 0.76807 0.19541 0.55725 0.0
C1071 C 0.78026 0.24676 0.56415 0.0
C1072 C 0.74987 0.26645 0.50866 0.0
C1073 C 0.73422 0.21644 0.50388 0.0
N1074 N 0.71282 0.13866 0.52863 0.0
N1075 N 0.7663 0.33226 0.54761 0.0
C1076 C 0.73706 0.18338 0.53025 0.0
C1077 C 0.76614 0.28275 0.54022 0.0
N1078 N 0.79011 0.15683 0.57352 0.0
N1079 N 0.75006 0.29828 0.483 0.0
H1080 H 0.7733 0.34563 0.57084 0.0
H1081 H 0.75314 0.35941 0.53172 0.0
H1082 H 0.73636 0.28788 0.46028 0.0
H1083 H 0.76623 0.33358 0.48402 0.0
H1084 H 0.7839 0.11964 0.56747 0.0
H1085 H 0.82086 0.16028 0.5887 0.0
H1086 H 0.71031 0.11464 0.54836 0.0
H1087 H 0.69071 0.12851 0.50879 0.0
C1088 C 0.30112 0.61493 0.04046 0.0
C1089 C 0.31058 0.60396 1.0077 0.0
C1090 C 0.34003 0.52123 0.02127 0.0
C1091 C 0.31946 0.52878 0.05228 0.0
N1092 N 0.30663 0.58597 0.09597 0.0
N1093 N 0.3623 0.55952 0.97006 0.0
C1094 C 0.31071 0.57756 0.06358 0.0
C1095 C 0.33921 0.5617 0.99934 0.0
N1096 N 0.27768 0.65827 0.04851 0.0
N1097 N 0.35579 0.47506 1.01214 0.0
H1098 H 0.36224 0.58982 0.95429 0.0
H1099 H 0.38544 0.5303 0.96306 0.0
H1100 H 0.35843 0.44569 0.02853 0.0
H1101 H 0.36557 0.46592 0.98852 0.0
H1102 H 0.26485 0.66626 0.07169 0.0
H1103 H 0.26971 0.68544 0.03119 0.0
H1104 H 0.30187 0.62125 0.10598 0.0
H1105 H 0.3125 0.55732 0.11265 0.0
C1106 C 0.61514 0.27083 0.99882 0.0
C1107 C 0.59026 0.29373 0.02511 0.0
C1108 C 0.5358 0.33803 0.98782 0.0
C1109 C 0.54956 0.30278 0.96412 0.0
N1110 N 0.62025 0.2621 0.94035 0.0
N1111 N 0.53612 0.35856 0.04502 0.0
C1112 C 0.5958 0.27809 0.9673 0.0
C1113 C 0.55456 0.33177 0.01966 0.0
N1114 N 0.65486 0.24008 1.00449 0.0
N1115 N 0.505 0.37646 0.97953 0.0
H1116 H 0.55052 0.35527 0.06841 0.0
H1117 H 0.50622 0.38319 0.04303 0.0
H1118 H 0.49348 0.38172 0.95558 0.0
H1119 H 0.49527 0.40517 0.99521 0.0
H1120 H 0.6714 0.21809 0.98679 0.0
H1121 H 0.67067 0.23635 0.02749 0.0
H1122 H 0.65545 0.24555 0.94081 0.0
H1123 H 0.6069 0.2705 0.9172 0.0
C1124 C 0.66452 0.43008 0.06001 0.0
C1125 C 0.65561 0.48057 0.05272 0.0
C1126 C 0.64413 0.45994 0.99609 0.0
C1127 C 0.67079 0.41555 1.00242 0.0
N1128 N 0.69837 0.35248 0.03957 0.0
N1129 N 0.61911 0.54095 0.01703 0.0
C1130 C 0.67655 0.3977 0.03429 0.0
C1131 C 0.63775 0.49426 0.02183 0.0
N1132 N 0.66647 0.4155 0.09156 0.0
N1133 N 0.62857 0.46994 0.96529 0.0
H1134 H 0.6128 0.56519 0.03631 0.0
H1135 H 0.60919 0.55526 0.99453 0.0
H1136 H 0.63363 0.44427 0.94661 0.0
H1137 H 0.60825 0.50138 0.95868 0.0
H1138 H 0.67142 0.37873 0.09885 0.0
H1139 H 0.65915 0.44072 0.11022 0.0
H1140 H 0.70857 0.33941 0.06236 0.0
H1141 H 0.70736 0.32863 0.02051 0.0
C1142 C 0.43127 0.66201 0.02492 0.0
C1143 C 0.39718 0.70121 0.03095 0.0
C1144 C 0.38488 0.71329 0.97325 0.0
C1145 C 0.42996 0.68733 0.96855 0.0
N1146 N 0.47619 0.61463 0.98398 0.0
N1147 N 0.33403 0.75826 1.0116 0.0
C1148 C 0.44648 0.65368 0.99255 0.0
C1149 C 0.37041 0.72403 1.00525 0.0
N1150 N 0.4511 0.63567 0.05013 0.0
N1151 N 0.35745 0.7282 0.94709 0.0
H1152 H 0.32186 0.76567 0.03503 0.0
H1153 H 0.31713 0.7801 0.99387 0.0
H1154 H 0.3677 0.71797 0.92365 0.0
H1155 H 0.32277 0.7456 0.94876 0.0
H1156 H 0.47959 0.60957 0.04769 0.0
H1157 H 0.43902 0.64071 0.07387 0.0
H1158 H 0.48832 0.58723 0.99997 0.0
H1159 H 0.4845 0.60754 0.95975 0.0
C1160 C 0.85434 0.02479 0.51364 0.0
C1161 C 0.84642 0.00699 0.48201 0.0
C1162 C 0.83518 0.92237 0.50115 0.0
C1163 C 0.83052 0.94234 0.53272 0.0
N1164 N 0.85383 0.0055 0.57116 0.0
N1165 N 0.85353 0.93968 0.4446 0.0
C1166 C 0.84747 0.99125 0.5397 0.0
C1167 C 0.84666 0.95549 0.47562 0.0
N1168 N 0.86376 0.07421 0.51829 0.0
N1169 N 0.8237 0.87366 0.49523 0.0
H1170 H 0.86019 0.96511 0.42598 0.0
H1171 H 0.85652 0.9024 0.43794 0.0
H1172 H 0.81626 0.84831 0.51363 0.0
H1173 H 0.82044 0.85861 0.47212 0.0
H1174 H 0.86703 0.09117 0.54083 0.0
H1175 H 0.86902 0.0982 0.49875 0.0
H1176 H 0.86662 0.0404 0.57836 0.0
H1177 H 0.84879 0.98046 0.59017 0.0
C1178 C 0.89147 0.76334 0.53706 0.0
C1179 C 0.91014 0.77844 0.50673 0.0
C1180 C 0.98559 0.81062 0.53219 0.0
C1181 C 0.97415 0.78029 0.55905 0.0
N1182 N 0.90813 0.75486 0.59468 0.0
N1183 N 0.96861 0.82691 0.47557 0.0
C1184 C 0.92385 0.76595 0.56418 0.0
C1185 C 0.95449 0.80705 0.50451 0.0
N1186 N 0.84433 0.74392 0.53897 0.0
N1187 N 0.02481 0.84307 0.53369 0.0
H1188 H 0.94536 0.82641 0.45525 0.0
H1189 H 0.00369 0.84251 0.47152 0.0
H1190 H 0.04454 0.8492 0.55518 0.0
H1191 H 0.03345 0.86809 0.51533 0.0
H1192 H 0.8292 0.72831 0.55976 0.0
H1193 H 0.82014 0.74372 0.51903 0.0
H1194 H 0.87231 0.74262 0.60023 0.0
H1195 H 0.93078 0.7617 0.61486 0.0
C1196 C 0.18659 -0.00484 0.52202 0.0
C1197 C 0.20105 0.00164 0.48915 0.0
C1198 C 0.18946 0.09113 0.49345 0.0
C1199 C 0.18576 0.08461 0.52703 0.0
N1200 N 0.14957 0.03508 0.56889 0.0
N1201 N 0.19039 0.05119 0.44088 0.0
C1202 C 0.17203 0.03796 0.53946 0.0
C1203 C 0.19305 0.04828 0.47379 0.0
N1204 N 0.19103 0.95044 0.53749 0.0
N1205 N 0.19475 0.13799 0.48133 0.0
H1206 H 0.19146 0.01943 0.42631 0.0
H1207 H 0.18222 0.08399 0.42856 0.0
H1208 H 0.19184 0.16919 0.49634 0.0
H1209 H 0.20339 0.14545 0.45727 0.0
H1210 H 0.18645 0.94657 0.56237 0.0
H1211 H 0.20168 0.91752 0.52629 0.0
H1212 H 0.13602 0.00185 0.57846 0.0
H1213 H 0.14001 0.06713 0.58177 0.0
C1214 C 0.00659 0.149 0.52979 0.0
C1215 C 0.96199 0.1766 0.53484 0.0
C1216 C 0.94812 0.18061 0.47669 0.0
C1217 C -0.00106 0.16836 0.47272 0.0
N1218 N 0.06271 0.11185 0.49038 0.0
N1219 N 0.88616 0.2136 0.51313 0.0
C1220 C 0.02398 0.1428 0.49772 0.0
C1221 C 0.93038 0.18929 0.50834 0.0
N1222 N 0.03311 0.13121 0.55563 0.0
N1223 N 0.91792 0.1846 0.45013 0.0
H1224 H 0.87232 0.22185 0.53596 0.0
H1225 H 0.8645 0.22822 0.49441 0.0
H1226 H 0.93137 0.17678 0.42698 0.0
H1227 H 0.8794 0.19011 0.45137 0.0
H1228 H 0.06877 0.11594 0.5538 0.0
H1229 H 0.01948 0.13292 0.57923 0.0
H1230 H 0.08022 0.08891 0.50723 0.0
H1231 H 0.07294 0.10495 0.46644 0.0
loop_
_geom_bond_atom_site_label_1
_geom_bond_atom_site_label_2
_geom_bond_distance
_geom_bond_site_symmetry_2
_ccdc_geom_bond_type
O0 Zn1 1.953 . S
O0 C16 1.225 . S
Zn1 O0 1.953 . S
Zn1 O2 1.949 . S
Zn1 O8 1.919 . S
Zn1 O13 1.924 . S
O2 Zn1 1.949 . S
O2 Zn3 1.923 . S
O2 Zn4 1.950 . S
O2 Zn5 1.945 . S
Zn3 O2 1.923 . S
Zn3 O6 1.933 . S
Zn3 O9 1.941 . S
Zn3 O10 1.965 . S
Zn4 O2 1.950 . S
Zn4 O11 1.938 . S
Zn4 O12 1.906 . S
Zn4 O22 1.953 . S
Zn5 O2 1.945 . S
Zn5 O7 1.932 . S
Zn5 O14 1.977 . S
Zn5 O15 1.910 . S
O6 Zn3 1.933 . S
O6 C17 1.226 . S
O7 Zn5 1.932 . S
O7 C17 1.307 . S
O8 Zn1 1.919 . S
O8 C19 1.253 . S
O9 Zn3 1.941 . S
O9 C19 1.283 . S
O10 Zn3 1.965 . S
O10 C18 1.303 . S
O11 Zn4 1.938 . S
O11 C18 1.247 . S
O12 Zn4 1.906 . S
O12 C20 1.304 . S
O13 Zn1 1.924 . S
O13 C21 1.311 . S
O14 Zn5 1.977 . S
O14 C20 1.272 . S
O15 Zn5 1.910 . S
O15 C21 1.231 . S
C16 O0 1.225 . S
C16 O22 1.298 . S
C17 O6 1.226 . S
C17 O7 1.307 . S
C18 O10 1.303 . S
C18 O11 1.247 . S
C19 O8 1.253 . S
C19 O9 1.283 . S
C20 O12 1.304 . S
C20 O14 1.272 . S
C21 O13 1.311 . S
C21 O15 1.231 . S
O22 Zn4 1.953 . S
O22 C16 1.298 . S
O23 Zn24 1.953 . S
O23 C39 1.225 . S
Zn24 O23 1.953 . S
Zn24 O25 1.949 . S
Zn24 O31 1.919 . S
Zn24 O36 1.924 . S
O25 Zn24 1.949 . S
O25 Zn26 1.923 . S
O25 Zn27 1.950 . S
O25 Zn28 1.945 . S
Zn26 O25 1.923 . S
Zn26 O29 1.933 . S
Zn26 O32 1.941 . S
Zn26 O33 1.965 . S
Zn27 O25 1.950 . S
Zn27 O34 1.938 . S
Zn27 O35 1.906 . S
Zn27 O45 1.953 . S
Zn28 O25 1.945 . S
Zn28 O30 1.932 . S
Zn28 O37 1.977 . S
Zn28 O38 1.910 . S
O29 Zn26 1.933 . S
O29 C40 1.226 . S
O30 Zn28 1.932 . S
O30 C40 1.307 . S
O31 Zn24 1.919 . S
O31 C42 1.253 . S
O32 Zn26 1.941 . S
O32 C42 1.283 . S
O33 Zn26 1.965 . S
O33 C41 1.303 . S
O34 Zn27 1.938 . S
O34 C41 1.247 . S
O35 Zn27 1.906 . S
O35 C43 1.304 . S
O36 Zn24 1.924 . S
O36 C44 1.311 . S
O37 Zn28 1.977 . S
O37 C43 1.272 . S
O38 Zn28 1.910 . S
O38 C44 1.231 . S
C39 O23 1.225 . S
C39 O45 1.298 . S
C40 O29 1.226 . S
C40 O30 1.307 . S
C41 O33 1.303 . S
C41 O34 1.247 . S
C42 O31 1.253 . S
C42 O32 1.283 . S
C43 O35 1.304 . S
C43 O37 1.272 . S
C44 O36 1.311 . S
C44 O38 1.231 . S
O45 Zn27 1.953 . S
O45 C39 1.298 . S
O46 Zn47 1.953 . S
O46 C62 1.225 . S
Zn47 O46 1.953 . S
Zn47 O48 1.949 . S
Zn47 O54 1.919 . S
Zn47 O59 1.924 . S
O48 Zn47 1.949 . S
O48 Zn49 1.923 . S
O48 Zn50 1.950 . S
O48 Zn51 1.945 . S
Zn49 O48 1.923 . S
Zn49 O52 1.933 . S
Zn49 O55 1.941 . S
Zn49 O56 1.965 . S
Zn50 O48 1.950 . S
Zn50 O57 1.938 . S
Zn50 O58 1.906 . S
Zn50 O68 1.953 . S
Zn51 O48 1.945 . S
Zn51 O53 1.932 . S
Zn51 O60 1.977 . S
Zn51 O61 1.910 . S
O52 Zn49 1.933 . S
O52 C63 1.226 . S
O53 Zn51 1.932 . S
O53 C63 1.307 . S
O54 Zn47 1.919 . S
O54 C65 1.253 . S
O55 Zn49 1.941 . S
O55 C65 1.283 . S
O56 Zn49 1.965 . S
O56 C64 1.303 . S
O57 Zn50 1.938 . S
O57 C64 1.247 . S
O58 Zn50 1.906 . S
O58 C66 1.304 . S
O59 Zn47 1.924 . S
O59 C67 1.311 . S
O60 Zn51 1.977 . S
O60 C66 1.272 . S
O61 Zn51 1.910 . S
O61 C67 1.231 . S
C62 O46 1.225 . S
C62 O68 1.298 . S
C63 O52 1.226 . S
C63 O53 1.307 . S
C64 O56 1.303 . S
C64 O57 1.247 . S
C65 O54 1.253 . S
C65 O55 1.283 . S
C66 O58 1.304 . S
C66 O60 1.272 . S
C67 O59 1.311 . S
C67 O61 1.231 . S
O68 Zn50 1.953 . S
O68 C62 1.298 . S
O69 Zn70 1.953 . S
O69 C85 1.225 . S
Zn70 O69 1.953 . S
Zn70 O71 1.949 . S
Zn70 O77 1.919 . S
Zn70 O82 1.924 . S
O71 Zn70 1.949 . S
O71 Zn72 1.923 . S
O71 Zn73 1.950 . S
O71 Zn74 1.945 . S
Zn72 O71 1.923 . S
Zn72 O75 1.933 . S
Zn72 O78 1.941 . S
Zn72 O79 1.965 . S
Zn73 O71 1.950 . S
Zn73 O80 1.938 . S
Zn73 O81 1.906 . S
Zn73 O91 1.953 . S
Zn74 O71 1.945 . S
Zn74 O76 1.932 . S
Zn74 O83 1.977 . S
Zn74 O84 1.910 . S
O75 Zn72 1.933 . S
O75 C86 1.226 . S
O76 Zn74 1.932 . S
O76 C86 1.307 . S
O77 Zn70 1.919 . S
O77 C88 1.253 . S
O78 Zn72 1.941 . S
O78 C88 1.283 . S
O79 Zn72 1.965 . S
O79 C87 1.303 . S
O80 Zn73 1.938 . S
O80 C87 1.247 . S
O81 Zn73 1.906 . S
O81 C89 1.304 . S
O82 Zn70 1.924 . S
O82 C90 1.311 . S
O83 Zn74 1.977 . S
O83 C89 1.272 . S
O84 Zn74 1.910 . S
O84 C90 1.231 . S
C85 O69 1.225 . S
C85 O91 1.298 . S
C86 O75 1.226 . S
C86 O76 1.307 . S
C87 O79 1.303 . S
C87 O80 1.247 . S
C88 O77 1.253 . S
C88 O78 1.283 . S
C89 O81 1.304 . S
C89 O83 1.272 . S
C90 O82 1.311 . S
C90 O84 1.231 . S
O91 Zn73 1.953 . S
O91 C85 1.298 . S
O92 Zn93 1.953 . S
O92 C108 1.225 . S
Zn93 O92 1.953 . S
Zn93 O94 1.949 . S
Zn93 O100 1.919 . S
Zn93 O105 1.924 . S
O94 Zn93 1.949 . S
O94 Zn95 1.923 . S
O94 Zn96 1.950 . S
O94 Zn97 1.945 . S
Zn95 O94 1.923 . S
Zn95 O98 1.933 . S
Zn95 O101 1.941 . S
Zn95 O102 1.965 . S
Zn96 O94 1.950 . S
Zn96 O103 1.938 . S
Zn96 O104 1.906 . S
Zn96 O114 1.953 . S
Zn97 O94 1.945 . S
Zn97 O99 1.932 . S
Zn97 O106 1.977 . S
Zn97 O107 1.910 . S
O98 Zn95 1.933 . S
O98 C109 1.226 . S
O99 Zn97 1.932 . S
O99 C109 1.307 . S
O100 Zn93 1.919 . S
O100 C111 1.253 . S
O101 Zn95 1.941 . S
O101 C111 1.283 . S
O102 Zn95 1.965 . S
O102 C110 1.303 . S
O103 Zn96 1.938 . S
O103 C110 1.247 . S
O104 Zn96 1.906 . S
O104 C112 1.304 . S
O105 Zn93 1.924 . S
O105 C113 1.311 . S
O106 Zn97 1.977 . S
O106 C112 1.272 . S
O107 Zn97 1.910 . S
O107 C113 1.231 . S
C108 O92 1.225 . S
C108 O114 1.298 . S
C109 O98 1.226 . S
C109 O99 1.307 . S
C110 O102 1.303 . S
C110 O103 1.247 . S
C111 O100 1.253 . S
C111 O101 1.283 . S
C112 O104 1.304 . S
C112 O106 1.272 . S
C113 O105 1.311 . S
C113 O107 1.231 . S
O114 Zn96 1.953 . S
O114 C108 1.298 . S
O115 Zn116 1.953 . S
O115 C131 1.225 . S
Zn116 O115 1.953 . S
Zn116 O117 1.949 . S
Zn116 O123 1.919 . S
Zn116 O128 1.924 . S
O117 Zn116 1.949 . S
O117 Zn118 1.923 . S
O117 Zn119 1.950 . S
O117 Zn120 1.945 . S
Zn118 O117 1.923 . S
Zn118 O121 1.933 . S
Zn118 O124 1.941 . S
Zn118 O125 1.965 . S
Zn119 O117 1.950 . S
Zn119 O126 1.938 . S
Zn119 O127 1.906 . S
Zn119 O137 1.953 . S
Zn120 O117 1.945 . S
Zn120 O122 1.932 . S
Zn120 O129 1.977 . S
Zn120 O130 1.910 . S
O121 Zn118 1.933 . S
O121 C132 1.226 . S
O122 Zn120 1.932 . S
O122 C132 1.307 . S
O123 Zn116 1.919 . S
O123 C134 1.253 . S
O124 Zn118 1.941 . S
O124 C134 1.283 . S
O125 Zn118 1.965 . S
O125 C133 1.303 . S
O126 Zn119 1.938 . S
O126 C133 1.247 . S
O127 Zn119 1.906 . S
O127 C135 1.304 . S
O128 Zn116 1.924 . S
O128 C136 1.311 . S
O129 Zn120 1.977 . S
O129 C135 1.272 . S
O130 Zn120 1.910 . S
O130 C136 1.231 . S
C131 O115 1.225 . S
C131 O137 1.298 . S
C132 O121 1.226 . S
C132 O122 1.307 . S
C133 O125 1.303 . S
C133 O126 1.247 . S
C134 O123 1.253 . S
C134 O124 1.283 . S
C135 O127 1.304 . S
C135 O129 1.272 . S
C136 O128 1.311 . S
C136 O130 1.231 . S
O137 Zn119 1.953 . S
O137 C131 1.298 . S
O138 Zn139 1.953 . S
O138 C154 1.225 . S
Zn139 O138 1.953 . S
Zn139 O140 1.949 . S
Zn139 O146 1.919 . S
Zn139 O151 1.924 . S
O140 Zn139 1.949 . S
O140 Zn141 1.923 . S
O140 Zn142 1.950 . S
O140 Zn143 1.945 . S
Zn141 O140 1.923 . S
Zn141 O144 1.933 . S
Zn141 O147 1.941 . S
Zn141 O148 1.965 . S
Zn142 O140 1.950 . S
Zn142 O149 1.938 . S
Zn142 O150 1.906 . S
Zn142 O160 1.953 . S
Zn143 O140 1.945 . S
Zn143 O145 1.932 . S
Zn143 O152 1.977 . S
Zn143 O153 1.910 . S
O144 Zn141 1.933 . S
O144 C155 1.226 . S
O145 Zn143 1.932 . S
O145 C155 1.307 . S
O146 Zn139 1.919 . S
O146 C157 1.253 . S
O147 Zn141 1.941 . S
O147 C157 1.283 . S
O148 Zn141 1.965 . S
O148 C156 1.303 . S
O149 Zn142 1.938 . S
O149 C156 1.247 . S
O150 Zn142 1.906 . S
O150 C158 1.304 . S
O151 Zn139 1.924 . S
O151 C159 1.311 . S
O152 Zn143 1.977 . S
O152 C158 1.272 . S
O153 Zn143 1.910 . S
O153 C159 1.231 . S
C154 O138 1.225 . S
C154 O160 1.298 . S
C155 O144 1.226 . S
C155 O145 1.307 . S
C156 O148 1.303 . S
C156 O149 1.247 . S
C157 O146 1.253 . S
C157 O147 1.283 . S
C158 O150 1.304 . S
C158 O152 1.272 . S
C159 O151 1.311 . S
C159 O153 1.231 . S
O160 Zn142 1.953 . S
O160 C154 1.298 . S
O161 Zn162 1.953 . S
O161 C177 1.225 . S
Zn162 O161 1.953 . S
Zn162 O163 1.949 . S
Zn162 O169 1.919 . S
Zn162 O174 1.924 . S
O163 Zn162 1.949 . S
O163 Zn164 1.923 . S
O163 Zn165 1.950 . S
O163 Zn166 1.945 . S
Zn164 O163 1.923 . S
Zn164 O167 1.933 . S
Zn164 O170 1.941 . S
Zn164 O171 1.965 . S
Zn165 O163 1.950 . S
Zn165 O172 1.938 . S
Zn165 O173 1.906 . S
Zn165 O183 1.953 . S
Zn166 O163 1.945 . S
Zn166 O168 1.932 . S
Zn166 O175 1.977 . S
Zn166 O176 1.910 . S
O167 Zn164 1.933 . S
O167 C178 1.226 . S
O168 Zn166 1.932 . S
O168 C178 1.307 . S
O169 Zn162 1.919 . S
O169 C180 1.253 . S
O170 Zn164 1.941 . S
O170 C180 1.283 . S
O171 Zn164 1.965 . S
O171 C179 1.303 . S
O172 Zn165 1.938 . S
O172 C179 1.247 . S
O173 Zn165 1.906 . S
O173 C181 1.304 . S
O174 Zn162 1.924 . S
O174 C182 1.311 . S
O175 Zn166 1.977 . S
O175 C181 1.272 . S
O176 Zn166 1.910 . S
O176 C182 1.231 . S
C177 O161 1.225 . S
C177 O183 1.298 . S
C178 O167 1.226 . S
C178 O168 1.307 . S
C179 O171 1.303 . S
C179 O172 1.247 . S
C180 O169 1.253 . S
C180 O170 1.283 . S
C181 O173 1.304 . S
C181 O175 1.272 . S
C182 O174 1.311 . S
C182 O176 1.231 . S
O183 Zn165 1.953 . S
O183 C177 1.298 . S
O184 Zn185 1.953 . S
O184 C200 1.225 . S
Zn185 O184 1.953 . S
Zn185 O186 1.949 . S
Zn185 O192 1.919 . S
Zn185 O197 1.924 . S
O186 Zn185 1.949 . S
O186 Zn187 1.923 . S
O186 Zn188 1.950 . S
O186 Zn189 1.945 . S
Zn187 O186 1.923 . S
Zn187 O190 1.933 . S
Zn187 O193 1.941 . S
Zn187 O194 1.965 . S
Zn188 O186 1.950 . S
Zn188 O195 1.938 . S
Zn188 O196 1.906 . S
Zn188 O206 1.953 . S
Zn189 O186 1.945 . S
Zn189 O191 1.932 . S
Zn189 O198 1.977 1_565 S
Zn189 O199 1.910 . S
O190 Zn187 1.933 . S
O190 C201 1.226 . S
O191 Zn189 1.932 . S
O191 C201 1.307 . S
O192 Zn185 1.919 . S
O192 C203 1.253 . S
O193 Zn187 1.941 . S
O193 C203 1.283 . S
O194 Zn187 1.965 . S
O194 C202 1.303 . S
O195 Zn188 1.938 . S
O195 C202 1.247 . S
O196 Zn188 1.906 . S
O196 C204 1.304 1_565 S
O197 Zn185 1.924 . S
O197 C205 1.311 . S
O198 Zn189 1.977 1_545 S
O198 C204 1.272 . S
O199 Zn189 1.910 . S
O199 C205 1.231 . S
C200 O184 1.225 . S
C200 O206 1.298 . S
C201 O190 1.226 . S
C201 O191 1.307 . S
C202 O194 1.303 . S
C202 O195 1.247 . S
C203 O192 1.253 . S
C203 O193 1.283 . S
C204 O196 1.304 1_545 S
C204 O198 1.272 . S
C205 O197 1.311 . S
C205 O199 1.231 . S
O206 Zn188 1.953 . S
O206 C200 1.298 . S
O207 Zn208 1.953 . S
O207 C223 1.225 . S
Zn208 O207 1.953 . S
Zn208 O209 1.949 . S
Zn208 O215 1.919 . S
Zn208 O220 1.924 . S
O209 Zn208 1.949 . S
O209 Zn210 1.923 . S
O209 Zn211 1.950 . S
O209 Zn212 1.945 . S
Zn210 O209 1.923 . S
Zn210 O213 1.933 . S
Zn210 O216 1.941 . S
Zn210 O217 1.965 . S
Zn211 O209 1.950 . S
Zn211 O218 1.938 . S
Zn211 O219 1.906 . S
Zn211 O229 1.953 . S
Zn212 O209 1.945 . S
Zn212 O214 1.932 . S
Zn212 O221 1.977 1_455 S
Zn212 O222 1.910 . S
O213 Zn210 1.933 . S
O213 C224 1.226 . S
O214 Zn212 1.932 . S
O214 C224 1.307 . S
O215 Zn208 1.919 . S
O215 C226 1.253 . S
O216 Zn210 1.941 . S
O216 C226 1.283 . S
O217 Zn210 1.965 . S
O217 C225 1.303 . S
O218 Zn211 1.938 . S
O218 C225 1.247 . S
O219 Zn211 1.906 . S
O219 C227 1.304 1_455 S
O220 Zn208 1.924 . S
O220 C228 1.311 . S
O221 Zn212 1.977 1_655 S
O221 C227 1.272 . S
O222 Zn212 1.910 . S
O222 C228 1.231 . S
C223 O207 1.225 . S
C223 O229 1.298 . S
C224 O213 1.226 . S
C224 O214 1.307 . S
C225 O217 1.303 . S
C225 O218 1.247 . S
C226 O215 1.253 . S
C226 O216 1.283 . S
C227 O219 1.304 1_655 S
C227 O221 1.272 . S
C228 O220 1.311 . S
C228 O222 1.231 . S
O229 Zn211 1.953 . S
O229 C223 1.298 . S
O230 Zn231 1.953 . S
O230 C246 1.225 . S
Zn231 O230 1.953 . S
Zn231 O232 1.949 . S
Zn231 O238 1.919 . S
Zn231 O243 1.924 . S
O232 Zn231 1.949 . S
O232 Zn233 1.923 . S
O232 Zn234 1.950 . S
O232 Zn235 1.945 . S
Zn233 O232 1.923 . S
Zn233 O236 1.933 . S
Zn233 O239 1.941 . S
Zn233 O240 1.965 . S
Zn234 O232 1.950 . S
Zn234 O241 1.938 . S
Zn234 O242 1.906 . S
Zn234 O252 1.953 . S
Zn235 O232 1.945 . S
Zn235 O237 1.932 . S
Zn235 O244 1.977 1_545 S
Zn235 O245 1.910 . S
O236 Zn233 1.933 . S
O236 C247 1.226 . S
O237 Zn235 1.932 . S
O237 C247 1.307 . S
O238 Zn231 1.919 . S
O238 C249 1.253 . S
O239 Zn233 1.941 . S
O239 C249 1.283 . S
O240 Zn233 1.965 . S
O240 C248 1.303 . S
O241 Zn234 1.938 . S
O241 C248 1.247 . S
O242 Zn234 1.906 . S
O242 C250 1.304 1_545 S
O243 Zn231 1.924 . S
O243 C251 1.311 . S
O244 Zn235 1.977 1_565 S
O244 C250 1.272 . S
O245 Zn235 1.910 . S
O245 C251 1.231 . S
C246 O230 1.225 . S
C246 O252 1.298 . S
C247 O236 1.226 . S
C247 O237 1.307 . S
C248 O240 1.303 . S
C248 O241 1.247 . S
C249 O238 1.253 . S
C249 O239 1.283 . S
C250 O242 1.304 1_565 S
C250 O244 1.272 . S
C251 O243 1.311 . S
C251 O245 1.231 . S
O252 Zn234 1.953 . S
O252 C246 1.298 . S
O253 Zn254 1.953 . S
O253 C269 1.225 . S
Zn254 O253 1.953 . S
Zn254 O255 1.949 . S
Zn254 O261 1.919 . S
Zn254 O266 1.924 . S
O255 Zn254 1.949 . S
O255 Zn256 1.923 . S
O255 Zn257 1.950 . S
O255 Zn258 1.945 . S
Zn256 O255 1.923 . S
Zn256 O259 1.933 . S
Zn256 O262 1.941 . S
Zn256 O263 1.965 . S
Zn257 O255 1.950 . S
Zn257 O264 1.938 . S
Zn257 O265 1.906 . S
Zn257 O275 1.953 . S
Zn258 O255 1.945 . S
Zn258 O260 1.932 . S
Zn258 O267 1.977 1_655 S
Zn258 O268 1.910 . S
O259 Zn256 1.933 . S
O259 C270 1.226 . S
O260 Zn258 1.932 . S
O260 C270 1.307 . S
O261 Zn254 1.919 . S
O261 C272 1.253 . S
O262 Zn256 1.941 . S
O262 C272 1.283 . S
O263 Zn256 1.965 . S
O263 C271 1.303 . S
O264 Zn257 1.938 . S
O264 C271 1.247 . S
O265 Zn257 1.906 . S
O265 C273 1.304 1_655 S
O266 Zn254 1.924 . S
O266 C274 1.311 . S
O267 Zn258 1.977 1_455 S
O267 C273 1.272 . S
O268 Zn258 1.910 . S
O268 C274 1.231 . S
C269 O253 1.225 . S
C269 O275 1.298 . S
C270 O259 1.226 . S
C270 O260 1.307 . S
C271 O263 1.303 . S
C271 O264 1.247 . S
C272 O261 1.253 . S
C272 O262 1.283 . S
C273 O265 1.304 1_455 S
C273 O267 1.272 . S
C274 O266 1.311 . S
C274 O268 1.231 . S
O275 Zn257 1.953 . S
O275 C269 1.298 . S
O276 Zn277 1.953 . S
O276 C292 1.225 . S
Zn277 O276 1.953 . S
Zn277 O278 1.949 . S
Zn277 O284 1.919 . S
Zn277 O289 1.924 . S
O278 Zn277 1.949 . S
O278 Zn279 1.923 . S
O278 Zn280 1.950 . S
O278 Zn281 1.945 . S
Zn279 O278 1.923 . S
Zn279 O282 1.933 . S
Zn279 O285 1.941 . S
Zn279 O286 1.965 . S
Zn280 O278 1.950 . S
Zn280 O287 1.938 . S
Zn280 O288 1.906 . S
Zn280 O298 1.953 . S
Zn281 O278 1.945 . S
Zn281 O283 1.932 . S
Zn281 O290 1.977 1_545 S
Zn281 O291 1.910 . S
O282 Zn279 1.933 . S
O282 C293 1.226 . S
O283 Zn281 1.932 . S
O283 C293 1.307 . S
O284 Zn277 1.919 . S
O284 C295 1.253 . S
O285 Zn279 1.941 . S
O285 C295 1.283 . S
O286 Zn279 1.965 . S
O286 C294 1.303 . S
O287 Zn280 1.938 . S
O287 C294 1.247 . S
O288 Zn280 1.906 . S
O288 C296 1.304 1_545 S
O289 Zn277 1.924 . S
O289 C297 1.311 . S
O290 Zn281 1.977 1_565 S
O290 C296 1.272 . S
O291 Zn281 1.910 . S
O291 C297 1.231 . S
C292 O276 1.225 . S
C292 O298 1.298 . S
C293 O282 1.226 . S
C293 O283 1.307 . S
C294 O286 1.303 . S
C294 O287 1.247 . S
C295 O284 1.253 . S
C295 O285 1.283 . S
C296 O288 1.304 1_565 S
C296 O290 1.272 . S
C297 O289 1.311 . S
C297 O291 1.231 . S
O298 Zn280 1.953 . S
O298 C292 1.298 . S
O299 Zn300 1.953 . S
O299 C315 1.225 . S
Zn300 O299 1.953 . S
Zn300 O301 1.949 . S
Zn300 O307 1.919 . S
Zn300 O312 1.924 . S
O301 Zn300 1.949 . S
O301 Zn302 1.923 . S
O301 Zn303 1.950 . S
O301 Zn304 1.945 . S
Zn302 O301 1.923 . S
Zn302 O305 1.933 . S
Zn302 O308 1.941 . S
Zn302 O309 1.965 . S
Zn303 O301 1.950 . S
Zn303 O310 1.938 . S
Zn303 O311 1.906 . S
Zn303 O321 1.953 . S
Zn304 O301 1.945 . S
Zn304 O306 1.932 . S
Zn304 O313 1.977 1_655 S
Zn304 O314 1.910 . S
O305 Zn302 1.933 . S
O305 C316 1.226 . S
O306 Zn304 1.932 . S
O306 C316 1.307 . S
O307 Zn300 1.919 . S
O307 C318 1.253 . S
O308 Zn302 1.941 . S
O308 C318 1.283 . S
O309 Zn302 1.965 . S
O309 C317 1.303 . S
O310 Zn303 1.938 . S
O310 C317 1.247 . S
O311 Zn303 1.906 . S
O311 C319 1.304 1_655 S
O312 Zn300 1.924 . S
O312 C320 1.311 . S
O313 Zn304 1.977 1_455 S
O313 C319 1.272 . S
O314 Zn304 1.910 . S
O314 C320 1.231 . S
C315 O299 1.225 . S
C315 O321 1.298 . S
C316 O305 1.226 . S
C316 O306 1.307 . S
C317 O309 1.303 . S
C317 O310 1.247 . S
C318 O307 1.253 . S
C318 O308 1.283 . S
C319 O311 1.304 1_455 S
C319 O313 1.272 . S
C320 O312 1.311 . S
C320 O314 1.231 . S
O321 Zn303 1.953 . S
O321 C315 1.298 . S
O322 Zn323 1.953 . S
O322 C338 1.225 . S
Zn323 O322 1.953 . S
Zn323 O324 1.949 . S
Zn323 O330 1.919 . S
Zn323 O335 1.924 . S
O324 Zn323 1.949 . S
O324 Zn325 1.923 . S
O324 Zn326 1.950 . S
O324 Zn327 1.945 . S
Zn325 O324 1.923 . S
Zn325 O328 1.933 . S
Zn325 O331 1.941 . S
Zn325 O332 1.965 . S
Zn326 O324 1.950 . S
Zn326 O333 1.938 . S
Zn326 O334 1.906 . S
Zn326 O344 1.953 . S
Zn327 O324 1.945 . S
Zn327 O329 1.932 . S
Zn327 O336 1.977 1_565 S
Zn327 O337 1.910 . S
O328 Zn325 1.933 . S
O328 C339 1.226 . S
O329 Zn327 1.932 . S
O329 C339 1.307 . S
O330 Zn323 1.919 . S
O330 C341 1.253 . S
O331 Zn325 1.941 . S
O331 C341 1.283 . S
O332 Zn325 1.965 . S
O332 C340 1.303 . S
O333 Zn326 1.938 . S
O333 C340 1.247 . S
O334 Zn326 1.906 . S
O334 C342 1.304 1_565 S
O335 Zn323 1.924 . S
O335 C343 1.311 . S
O336 Zn327 1.977 1_545 S
O336 C342 1.272 . S
O337 Zn327 1.910 . S
O337 C343 1.231 . S
C338 O322 1.225 . S
C338 O344 1.298 . S
C339 O328 1.226 . S
C339 O329 1.307 . S
C340 O332 1.303 . S
C340 O333 1.247 . S
C341 O330 1.253 . S
C341 O331 1.283 . S
C342 O334 1.304 1_545 S
C342 O336 1.272 . S
C343 O335 1.311 . S
C343 O337 1.231 . S
O344 Zn326 1.953 . S
O344 C338 1.298 . S
O345 Zn346 1.953 . S
O345 C361 1.225 . S
Zn346 O345 1.953 . S
Zn346 O347 1.949 . S
Zn346 O353 1.919 . S
Zn346 O358 1.924 . S
O347 Zn346 1.949 . S
O347 Zn348 1.923 . S
O347 Zn349 1.950 . S
O347 Zn350 1.945 . S
Zn348 O347 1.923 . S
Zn348 O351 1.933 . S
Zn348 O354 1.941 . S
Zn348 O355 1.965 . S
Zn349 O347 1.950 . S
Zn349 O356 1.938 . S
Zn349 O357 1.906 . S
Zn349 O367 1.953 . S
Zn350 O347 1.945 . S
Zn350 O352 1.932 . S
Zn350 O359 1.977 1_455 S
Zn350 O360 1.910 . S
O351 Zn348 1.933 . S
O351 C362 1.226 . S
O352 Zn350 1.932 . S
O352 C362 1.307 . S
O353 Zn346 1.919 . S
O353 C364 1.253 . S
O354 Zn348 1.941 . S
O354 C364 1.283 . S
O355 Zn348 1.965 . S
O355 C363 1.303 . S
O356 Zn349 1.938 . S
O356 C363 1.247 . S
O357 Zn349 1.906 . S
O357 C365 1.304 1_455 S
O358 Zn346 1.924 . S
O358 C366 1.311 . S
O359 Zn350 1.977 1_655 S
O359 C365 1.272 . S
O360 Zn350 1.910 . S
O360 C366 1.231 . S
C361 O345 1.225 . S
C361 O367 1.298 . S
C362 O351 1.226 . S
C362 O352 1.307 . S
C363 O355 1.303 . S
C363 O356 1.247 . S
C364 O353 1.253 . S
C364 O354 1.283 . S
C365 O357 1.304 1_655 S
C365 O359 1.272 . S
C366 O358 1.311 . S
C366 O360 1.231 . S
O367 Zn349 1.953 . S
O367 C361 1.298 . S
C368 C369 1.363 . S
C368 C374 1.379 . S
C368 N376 1.356 . S
C369 C368 1.363 . S
C369 C375 1.363 . S
C370 C371 1.363 . S
C370 C375 1.379 . S
C370 N377 1.356 . S
C371 C370 1.363 . S
C371 C374 1.363 . S
N372 C374 1.356 . S
N372 H384 0.984 . S
N372 H385 0.985 . S
N373 C375 1.356 . S
N373 H378 0.984 . S
N373 H379 0.985 . S
C374 C368 1.379 . S
C374 C371 1.363 . S
C374 N372 1.356 . S
C375 C369 1.363 . S
C375 C370 1.379 . S
C375 N373 1.356 . S
N376 C368 1.356 . S
N376 H382 0.984 . S
N376 H383 0.984 . S
N377 C370 1.356 . S
N377 H380 0.984 . S
N377 H381 0.985 . S
H378 N373 0.984 . S
H379 N373 0.985 . S
H380 N377 0.984 . S
H381 N377 0.985 . S
H382 N376 0.984 . S
H383 N376 0.984 . S
H384 N372 0.984 . S
H385 N372 0.985 . S
C386 C387 1.363 . S
C386 C392 1.379 . S
C386 N394 1.356 . S
C387 C386 1.363 . S
C387 C393 1.363 . S
C388 C389 1.363 . S
C388 C393 1.379 . S
C388 N395 1.356 . S
C389 C388 1.363 . S
C389 C392 1.363 . S
N390 C392 1.356 . S
N390 H402 0.984 . S
N390 H403 0.985 . S
N391 C393 1.356 . S
N391 H396 0.984 . S
N391 H397 0.985 . S
C392 C386 1.379 . S
C392 C389 1.363 . S
C392 N390 1.356 . S
C393 C387 1.363 . S
C393 C388 1.379 . S
C393 N391 1.356 . S
N394 C386 1.356 . S
N394 H400 0.984 . S
N394 H401 0.984 . S
N395 C388 1.356 . S
N395 H398 0.984 . S
N395 H399 0.985 . S
H396 N391 0.984 . S
H397 N391 0.985 . S
H398 N395 0.984 . S
H399 N395 0.985 . S
H400 N394 0.984 . S
H401 N394 0.984 . S
H402 N390 0.984 . S
H403 N390 0.985 . S
C404 C405 1.363 . S
C404 C410 1.379 . S
C404 N412 1.356 . S
C405 C404 1.363 . S
C405 C411 1.363 . S
C406 C407 1.363 . S
C406 C411 1.379 . S
C406 N413 1.356 . S
C407 C406 1.363 . S
C407 C410 1.363 . S
N408 C410 1.356 . S
N408 H420 0.984 . S
N408 H421 0.985 . S
N409 C411 1.356 . S
N409 H414 0.984 . S
N409 H415 0.985 . S
C410 C404 1.379 . S
C410 C407 1.363 . S
C410 N408 1.356 . S
C411 C405 1.363 . S
C411 C406 1.379 . S
C411 N409 1.356 . S
N412 C404 1.356 . S
N412 H418 0.984 . S
N412 H419 0.984 . S
N413 C406 1.356 . S
N413 H416 0.984 . S
N413 H417 0.985 . S
H414 N409 0.984 . S
H415 N409 0.985 . S
H416 N413 0.984 . S
H417 N413 0.985 . S
H418 N412 0.984 . S
H419 N412 0.984 . S
H420 N408 0.984 . S
H421 N408 0.985 . S
C422 C423 1.363 . S
C422 C428 1.379 . S
C422 N430 1.356 . S
C423 C422 1.363 . S
C423 C429 1.363 . S
C424 C425 1.363 . S
C424 C429 1.379 . S
C424 N431 1.356 . S
C425 C424 1.363 . S
C425 C428 1.363 . S
N426 C428 1.356 . S
N426 H438 0.984 . S
N426 H439 0.985 . S
N427 C429 1.356 . S
N427 H432 0.984 . S
N427 H433 0.985 . S
C428 C422 1.379 . S
C428 C425 1.363 . S
C428 N426 1.356 . S
C429 C423 1.363 . S
C429 C424 1.379 . S
C429 N427 1.356 . S
N430 C422 1.356 . S
N430 H436 0.984 . S
N430 H437 0.984 . S
N431 C424 1.356 . S
N431 H434 0.984 . S
N431 H435 0.985 . S
H432 N427 0.984 . S
H433 N427 0.985 . S
H434 N431 0.984 . S
H435 N431 0.985 . S
H436 N430 0.984 . S
H437 N430 0.984 . S
H438 N426 0.984 . S
H439 N426 0.985 . S
C440 C441 1.363 . S
C440 C446 1.379 . S
C440 N448 1.356 . S
C441 C440 1.363 . S
C441 C447 1.363 . S
C442 C443 1.363 . S
C442 C447 1.379 . S
C442 N449 1.356 . S
C443 C442 1.363 . S
C443 C446 1.363 . S
N444 C446 1.356 . S
N444 H456 0.984 . S
N444 H457 0.985 . S
N445 C447 1.356 . S
N445 H450 0.984 . S
N445 H451 0.985 . S
C446 C440 1.379 . S
C446 C443 1.363 . S
C446 N444 1.356 . S
C447 C441 1.363 . S
C447 C442 1.379 . S
C447 N445 1.356 . S
N448 C440 1.356 . S
N448 H454 0.984 . S
N448 H455 0.984 . S
N449 C442 1.356 . S
N449 H452 0.984 . S
N449 H453 0.985 . S
H450 N445 0.984 . S
H451 N445 0.985 . S
H452 N449 0.984 . S
H453 N449 0.985 . S
H454 N448 0.984 . S
H455 N448 0.984 . S
H456 N444 0.984 . S
H457 N444 0.985 . S
C458 C459 1.363 . S
C458 C464 1.379 . S
C458 N466 1.356 . S
C459 C458 1.363 . S
C459 C465 1.363 . S
C460 C461 1.363 . S
C460 C465 1.379 . S
C460 N467 1.356 . S
C461 C460 1.363 . S
C461 C464 1.363 . S
N462 C464 1.356 . S
N462 H474 0.984 . S
N462 H475 0.985 . S
N463 C465 1.356 . S
N463 H468 0.984 . S
N463 H469 0.985 . S
C464 C458 1.379 . S
C464 C461 1.363 . S
C464 N462 1.356 . S
C465 C459 1.363 . S
C465 C460 1.379 . S
C465 N463 1.356 . S
N466 C458 1.356 . S
N466 H472 0.984 . S
N466 H473 0.984 . S
N467 C460 1.356 . S
N467 H470 0.984 . S
N467 H471 0.985 . S
H468 N463 0.984 . S
H469 N463 0.985 . S
H470 N467 0.984 . S
H471 N467 0.985 . S
H472 N466 0.984 . S
H473 N466 0.984 . S
H474 N462 0.984 . S
H475 N462 0.985 . S
C476 C477 1.363 . S
C476 C482 1.379 . S
C476 N484 1.356 . S
C477 C476 1.363 . S
C477 C483 1.363 . S
C478 C479 1.363 . S
C478 C483 1.379 . S
C478 N485 1.356 . S
C479 C478 1.363 . S
C479 C482 1.363 . S
N480 C482 1.356 . S
N480 H492 0.984 . S
N480 H493 0.985 . S
N481 C483 1.356 . S
N481 H486 0.984 . S
N481 H487 0.985 . S
C482 C476 1.379 . S
C482 C479 1.363 . S
C482 N480 1.356 . S
C483 C477 1.363 . S
C483 C478 1.379 . S
C483 N481 1.356 . S
N484 C476 1.356 . S
N484 H490 0.984 . S
N484 H491 0.984 . S
N485 C478 1.356 . S
N485 H488 0.984 . S
N485 H489 0.985 . S
H486 N481 0.984 . S
H487 N481 0.985 . S
H488 N485 0.984 . S
H489 N485 0.985 . S
H490 N484 0.984 . S
H491 N484 0.984 . S
H492 N480 0.984 . S
H493 N480 0.985 . S
C494 C495 1.363 . S
C494 C500 1.379 . S
C494 N502 1.356 . S
C495 C494 1.363 . S
C495 C501 1.363 . S
C496 C497 1.363 . S
C496 C501 1.379 . S
C496 N503 1.356 . S
C497 C496 1.363 . S
C497 C500 1.363 . S
N498 C500 1.356 . S
N498 H510 0.984 . S
N498 H511 0.985 . S
N499 C501 1.356 . S
N499 H504 0.984 . S
N499 H505 0.985 . S
C500 C494 1.379 . S
C500 C497 1.363 . S
C500 N498 1.356 . S
C501 C495 1.363 . S
C501 C496 1.379 . S
C501 N499 1.356 . S
N502 C494 1.356 . S
N502 H508 0.984 . S
N502 H509 0.984 . S
N503 C496 1.356 . S
N503 H506 0.984 . S
N503 H507 0.985 . S
H504 N499 0.984 . S
H505 N499 0.985 . S
H506 N503 0.984 . S
H507 N503 0.985 . S
H508 N502 0.984 . S
H509 N502 0.984 . S
H510 N498 0.984 . S
H511 N498 0.985 . S
C512 C513 1.363 1_455 S
C512 C518 1.379 . S
C512 N520 1.356 . S
C513 C512 1.363 1_655 S
C513 C519 1.363 . S
C514 C515 1.363 1_655 S
C514 C519 1.379 . S
C514 N521 1.356 . S
C515 C514 1.363 1_455 S
C515 C518 1.363 . S
N516 C518 1.356 . S
N516 H528 0.984 . S
N516 H529 0.985 . S
N517 C519 1.356 . S
N517 H522 0.984 . S
N517 H523 0.985 . S
C518 C512 1.379 . S
C518 C515 1.363 . S
C518 N516 1.356 . S
C519 C513 1.363 . S
C519 C514 1.379 . S
C519 N517 1.356 . S
N520 C512 1.356 . S
N520 H526 0.984 . S
N520 H527 0.984 1_455 S
N521 C514 1.356 . S
N521 H524 0.984 1_655 S
N521 H525 0.985 . S
H522 N517 0.984 . S
H523 N517 0.985 . S
H524 N521 0.984 1_455 S
H525 N521 0.985 . S
H526 N520 0.984 . S
H527 N520 0.984 1_655 S
H528 N516 0.984 . S
H529 N516 0.985 . S
C530 C531 1.363 . S
C530 C536 1.379 . S
C530 N538 1.356 . S
C531 C530 1.363 . S
C531 C537 1.363 1_565 S
C532 C533 1.363 . S
C532 C537 1.379 . S
C532 N539 1.356 . S
C533 C532 1.363 . S
C533 C536 1.363 1_545 S
N534 C536 1.356 . S
N534 H546 0.984 . S
N534 H547 0.985 1_565 S
N535 C537 1.356 . S
N535 H540 0.984 1_545 S
N535 H541 0.985 . S
C536 C530 1.379 . S
C536 C533 1.363 1_565 S
C536 N534 1.356 . S
C537 C531 1.363 1_545 S
C537 C532 1.379 . S
C537 N535 1.356 . S
N538 C530 1.356 . S
N538 H544 0.984 . S
N538 H545 0.984 . S
N539 C532 1.356 . S
N539 H542 0.984 . S
N539 H543 0.985 . S
H540 N535 0.984 1_565 S
H541 N535 0.985 . S
H542 N539 0.984 . S
H543 N539 0.985 . S
H544 N538 0.984 . S
H545 N538 0.984 . S
H546 N534 0.984 . S
H547 N534 0.985 1_545 S
C548 C549 1.363 1_455 S
C548 C554 1.379 . S
C548 N556 1.356 . S
C549 C548 1.363 1_655 S
C549 C555 1.363 . S
C550 C551 1.363 1_655 S
C550 C555 1.379 . S
C550 N557 1.356 . S
C551 C550 1.363 1_455 S
C551 C554 1.363 . S
N552 C554 1.356 . S
N552 H564 0.984 . S
N552 H565 0.985 . S
N553 C555 1.356 . S
N553 H558 0.984 . S
N553 H559 0.985 . S
C554 C548 1.379 . S
C554 C551 1.363 . S
C554 N552 1.356 . S
C555 C549 1.363 . S
C555 C550 1.379 . S
C555 N553 1.356 . S
N556 C548 1.356 . S
N556 H562 0.984 . S
N556 H563 0.984 1_455 S
N557 C550 1.356 . S
N557 H560 0.984 1_655 S
N557 H561 0.985 . S
H558 N553 0.984 . S
H559 N553 0.985 . S
H560 N557 0.984 1_455 S
H561 N557 0.985 . S
H562 N556 0.984 . S
H563 N556 0.984 1_655 S
H564 N552 0.984 . S
H565 N552 0.985 . S
C566 C567 1.363 1_545 S
C566 C572 1.379 . S
C566 N574 1.356 . S
C567 C566 1.363 1_565 S
C567 C573 1.363 . S
C568 C569 1.363 1_565 S
C568 C573 1.379 . S
C568 N575 1.356 . S
C569 C568 1.363 1_545 S
C569 C572 1.363 . S
N570 C572 1.356 . S
N570 H582 0.984 . S
N570 H583 0.985 . S
N571 C573 1.356 . S
N571 H576 0.984 . S
N571 H577 0.985 . S
C572 C566 1.379 . S
C572 C569 1.363 . S
C572 N570 1.356 . S
C573 C567 1.363 . S
C573 C568 1.379 . S
C573 N571 1.356 . S
N574 C566 1.356 . S
N574 H580 0.984 . S
N574 H581 0.984 1_545 S
N575 C568 1.356 . S
N575 H578 0.984 1_565 S
N575 H579 0.985 . S
H576 N571 0.984 . S
H577 N571 0.985 . S
H578 N575 0.984 1_545 S
H579 N575 0.985 . S
H580 N574 0.984 . S
H581 N574 0.984 1_565 S
H582 N570 0.984 . S
H583 N570 0.985 . S
C584 C585 1.363 . S
C584 C590 1.379 1_565 S
C584 N592 1.356 . S
C585 C584 1.363 . S
C585 C591 1.363 . S
C586 C587 1.363 . S
C586 C591 1.379 1_545 S
C586 N593 1.356 . S
C587 C586 1.363 . S
C587 C590 1.363 . S
N588 C590 1.356 . S
N588 H600 0.984 . S
N588 H601 0.985 . S
N589 C591 1.356 . S
N589 H594 0.984 . S
N589 H595 0.985 . S
C590 C584 1.379 1_545 S
C590 C587 1.363 . S
C590 N588 1.356 . S
C591 C585 1.363 . S
C591 C586 1.379 1_565 S
C591 N589 1.356 . S
N592 C584 1.356 . S
N592 H598 0.984 . S
N592 H599 0.984 . S
N593 C586 1.356 . S
N593 H596 0.984 . S
N593 H597 0.985 . S
H594 N589 0.984 . S
H595 N589 0.985 . S
H596 N593 0.984 . S
H597 N593 0.985 . S
H598 N592 0.984 . S
H599 N592 0.984 . S
H600 N588 0.984 . S
H601 N588 0.985 . S
C602 C603 1.363 . S
C602 C608 1.379 1_455 S
C602 N610 1.356 . S
C603 C602 1.363 . S
C603 C609 1.363 . S
C604 C605 1.363 . S
C604 C609 1.379 1_655 S
C604 N611 1.356 . S
C605 C604 1.363 . S
C605 C608 1.363 . S
N606 C608 1.356 . S
N606 H618 0.984 . S
N606 H619 0.985 . S
N607 C609 1.356 . S
N607 H612 0.984 . S
N607 H613 0.985 . S
C608 C602 1.379 1_655 S
C608 C605 1.363 . S
C608 N606 1.356 . S
C609 C603 1.363 . S
C609 C604 1.379 1_455 S
C609 N607 1.356 . S
N610 C602 1.356 . S
N610 H616 0.984 . S
N610 H617 0.984 . S
N611 C604 1.356 . S
N611 H614 0.984 . S
N611 H615 0.985 . S
H612 N607 0.984 . S
H613 N607 0.985 . S
H614 N611 0.984 . S
H615 N611 0.985 . S
H616 N610 0.984 . S
H617 N610 0.984 . S
H618 N606 0.984 . S
H619 N606 0.985 . S
C620 C621 1.363 . S
C620 C626 1.379 1_565 S
C620 N628 1.356 . S
C621 C620 1.363 . S
C621 C627 1.363 . S
C622 C623 1.363 . S
C622 C627 1.379 1_545 S
C622 N629 1.356 . S
C623 C622 1.363 . S
C623 C626 1.363 . S
N624 C626 1.356 . S
N624 H636 0.984 . S
N624 H637 0.985 . S
N625 C627 1.356 . S
N625 H630 0.984 . S
N625 H631 0.985 . S
C626 C620 1.379 1_545 S
C626 C623 1.363 . S
C626 N624 1.356 . S
C627 C621 1.363 . S
C627 C622 1.379 1_565 S
C627 N625 1.356 . S
N628 C620 1.356 . S
N628 H634 0.984 . S
N628 H635 0.984 . S
N629 C622 1.356 . S
N629 H632 0.984 . S
N629 H633 0.985 . S
H630 N625 0.984 . S
H631 N625 0.985 . S
H632 N629 0.984 . S
H633 N629 0.985 . S
H634 N628 0.984 . S
H635 N628 0.984 . S
H636 N624 0.984 . S
H637 N624 0.985 . S
C638 C639 1.363 . S
C638 C644 1.379 1_455 S
C638 N646 1.356 . S
C639 C638 1.363 . S
C639 C645 1.363 . S
C640 C641 1.363 . S
C640 C645 1.379 1_655 S
C640 N647 1.356 . S
C641 C640 1.363 . S
C641 C644 1.363 . S
N642 C644 1.356 . S
N642 H654 0.984 . S
N642 H655 0.985 . S
N643 C645 1.356 . S
N643 H648 0.984 . S
N643 H649 0.985 . S
C644 C638 1.379 1_655 S
C644 C641 1.363 . S
C644 N642 1.356 . S
C645 C639 1.363 . S
C645 C640 1.379 1_455 S
C645 N643 1.356 . S
N646 C638 1.356 . S
N646 H652 0.984 . S
N646 H653 0.984 . S
N647 C640 1.356 . S
N647 H650 0.984 . S
N647 H651 0.985 . S
H648 N643 0.984 . S
H649 N643 0.985 . S
H650 N647 0.984 . S
H651 N647 0.985 . S
H652 N646 0.984 . S
H653 N646 0.984 . S
H654 N642 0.984 . S
H655 N642 0.985 . S
C656 C657 1.363 . S
C656 C662 1.379 . S
C656 N664 1.356 . S
C657 C656 1.363 . S
C657 C663 1.363 . S
C658 C659 1.363 . S
C658 C663 1.379 . S
C658 N665 1.356 . S
C659 C658 1.363 . S
C659 C662 1.363 . S
N660 C662 1.356 . S
N660 H672 0.984 . S
N660 H673 0.985 . S
N661 C663 1.356 . S
N661 H666 0.984 . S
N661 H667 0.985 . S
C662 C656 1.379 . S
C662 C659 1.363 . S
C662 N660 1.356 . S
C663 C657 1.363 . S
C663 C658 1.379 . S
C663 N661 1.356 . S
N664 C656 1.356 . S
N664 H670 0.984 . S
N664 H671 0.984 . S
N665 C658 1.356 . S
N665 H668 0.984 . S
N665 H669 0.985 . S
H666 N661 0.984 . S
H667 N661 0.985 . S
H668 N665 0.984 . S
H669 N665 0.985 . S
H670 N664 0.984 . S
H671 N664 0.984 . S
H672 N660 0.984 . S
H673 N660 0.985 . S
C674 C675 1.363 . S
C674 C680 1.379 . S
C674 N682 1.356 . S
C675 C674 1.363 . S
C675 C681 1.363 . S
C676 C677 1.363 . S
C676 C681 1.379 . S
C676 N683 1.356 . S
C677 C676 1.363 . S
C677 C680 1.363 . S
N678 C680 1.356 . S
N678 H690 0.984 . S
N678 H691 0.985 . S
N679 C681 1.356 . S
N679 H684 0.984 . S
N679 H685 0.985 . S
C680 C674 1.379 . S
C680 C677 1.363 . S
C680 N678 1.356 . S
C681 C675 1.363 . S
C681 C676 1.379 . S
C681 N679 1.356 . S
N682 C674 1.356 . S
N682 H688 0.984 . S
N682 H689 0.984 . S
N683 C676 1.356 . S
N683 H686 0.984 . S
N683 H687 0.985 . S
H684 N679 0.984 . S
H685 N679 0.985 . S
H686 N683 0.984 . S
H687 N683 0.985 . S
H688 N682 0.984 . S
H689 N682 0.984 . S
H690 N678 0.984 . S
H691 N678 0.985 . S
C692 C693 1.363 . S
C692 C698 1.379 . S
C692 N700 1.356 . S
C693 C692 1.363 . S
C693 C699 1.363 . S
C694 C695 1.363 . S
C694 C699 1.379 . S
C694 N701 1.356 . S
C695 C694 1.363 . S
C695 C698 1.363 . S
N696 C698 1.356 . S
N696 H708 0.984 . S
N696 H709 0.985 . S
N697 C699 1.356 . S
N697 H702 0.984 . S
N697 H703 0.985 . S
C698 C692 1.379 . S
C698 C695 1.363 . S
C698 N696 1.356 . S
C699 C693 1.363 . S
C699 C694 1.379 . S
C699 N697 1.356 . S
N700 C692 1.356 . S
N700 H706 0.984 . S
N700 H707 0.984 . S
N701 C694 1.356 . S
N701 H704 0.984 . S
N701 H705 0.985 . S
H702 N697 0.984 . S
H703 N697 0.985 . S
H704 N701 0.984 . S
H705 N701 0.985 . S
H706 N700 0.984 . S
H707 N700 0.984 . S
H708 N696 0.984 . S
H709 N696 0.985 . S
C710 C711 1.363 . S
C710 C716 1.379 . S
C710 N718 1.356 . S
C711 C710 1.363 . S
C711 C717 1.363 . S
C712 C713 1.363 . S
C712 C717 1.379 . S
C712 N719 1.356 . S
C713 C712 1.363 . S
C713 C716 1.363 . S
N714 C716 1.356 . S
N714 H726 0.984 . S
N714 H727 0.985 . S
N715 C717 1.356 . S
N715 H720 0.984 . S
N715 H721 0.985 . S
C716 C710 1.379 . S
C716 C713 1.363 . S
C716 N714 1.356 . S
C717 C711 1.363 . S
C717 C712 1.379 . S
C717 N715 1.356 . S
N718 C710 1.356 . S
N718 H724 0.984 . S
N718 H725 0.984 . S
N719 C712 1.356 . S
N719 H722 0.984 . S
N719 H723 0.985 . S
H720 N715 0.984 . S
H721 N715 0.985 . S
H722 N719 0.984 . S
H723 N719 0.985 . S
H724 N718 0.984 . S
H725 N718 0.984 . S
H726 N714 0.984 . S
H727 N714 0.985 . S
C728 C729 1.363 . S
C728 C734 1.379 . S
C728 N736 1.356 . S
C729 C728 1.363 . S
C729 C735 1.363 . S
C730 C731 1.363 . S
C730 C735 1.379 . S
C730 N737 1.356 . S
C731 C730 1.363 . S
C731 C734 1.363 . S
N732 C734 1.356 . S
N732 H744 0.984 . S
N732 H745 0.985 . S
N733 C735 1.356 . S
N733 H738 0.984 . S
N733 H739 0.985 . S
C734 C728 1.379 . S
C734 C731 1.363 . S
C734 N732 1.356 . S
C735 C729 1.363 . S
C735 C730 1.379 . S
C735 N733 1.356 . S
N736 C728 1.356 . S
N736 H742 0.984 . S
N736 H743 0.984 . S
N737 C730 1.356 . S
N737 H740 0.984 . S
N737 H741 0.985 . S
H738 N733 0.984 . S
H739 N733 0.985 . S
H740 N737 0.984 . S
H741 N737 0.985 . S
H742 N736 0.984 . S
H743 N736 0.984 . S
H744 N732 0.984 . S
H745 N732 0.985 . S
C746 C747 1.363 . S
C746 C752 1.379 . S
C746 N754 1.356 . S
C747 C746 1.363 . S
C747 C753 1.363 . S
C748 C749 1.363 . S
C748 C753 1.379 . S
C748 N755 1.356 . S
C749 C748 1.363 . S
C749 C752 1.363 . S
N750 C752 1.356 . S
N750 H762 0.984 . S
N750 H763 0.985 . S
N751 C753 1.356 . S
N751 H756 0.984 . S
N751 H757 0.985 . S
C752 C746 1.379 . S
C752 C749 1.363 . S
C752 N750 1.356 . S
C753 C747 1.363 . S
C753 C748 1.379 . S
C753 N751 1.356 . S
N754 C746 1.356 . S
N754 H760 0.984 . S
N754 H761 0.984 . S
N755 C748 1.356 . S
N755 H758 0.984 . S
N755 H759 0.985 . S
H756 N751 0.984 . S
H757 N751 0.985 . S
H758 N755 0.984 . S
H759 N755 0.985 . S
H760 N754 0.984 . S
H761 N754 0.984 . S
H762 N750 0.984 . S
H763 N750 0.985 . S
C764 C765 1.363 . S
C764 C770 1.379 . S
C764 N772 1.356 . S
C765 C764 1.363 . S
C765 C771 1.363 . S
C766 C767 1.363 . S
C766 C771 1.379 . S
C766 N773 1.356 . S
C767 C766 1.363 . S
C767 C770 1.363 . S
N768 C770 1.356 . S
N768 H780 0.984 . S
N768 H781 0.985 . S
N769 C771 1.356 . S
N769 H774 0.984 . S
N769 H775 0.985 . S
C770 C764 1.379 . S
C770 C767 1.363 . S
C770 N768 1.356 . S
C771 C765 1.363 . S
C771 C766 1.379 . S
C771 N769 1.356 . S
N772 C764 1.356 . S
N772 H778 0.984 . S
N772 H779 0.984 . S
N773 C766 1.356 . S
N773 H776 0.984 . S
N773 H777 0.985 . S
H774 N769 0.984 . S
H775 N769 0.985 . S
H776 N773 0.984 . S
H777 N773 0.985 . S
H778 N772 0.984 . S
H779 N772 0.984 . S
H780 N768 0.984 . S
H781 N768 0.985 . S
C782 C783 1.363 . S
C782 C788 1.379 . S
C782 N790 1.356 . S
C783 C782 1.363 . S
C783 C789 1.363 . S
C784 C785 1.363 . S
C784 C789 1.379 . S
C784 N791 1.356 . S
C785 C784 1.363 . S
C785 C788 1.363 . S
N786 C788 1.356 . S
N786 H798 0.984 . S
N786 H799 0.985 . S
N787 C789 1.356 . S
N787 H792 0.984 . S
N787 H793 0.985 . S
C788 C782 1.379 . S
C788 C785 1.363 . S
C788 N786 1.356 . S
C789 C783 1.363 . S
C789 C784 1.379 . S
C789 N787 1.356 . S
N790 C782 1.356 . S
N790 H796 0.984 . S
N790 H797 0.984 . S
N791 C784 1.356 . S
N791 H794 0.984 . S
N791 H795 0.985 . S
H792 N787 0.984 . S
H793 N787 0.985 . S
H794 N791 0.984 . S
H795 N791 0.985 . S
H796 N790 0.984 . S
H797 N790 0.984 . S
H798 N786 0.984 . S
H799 N786 0.985 . S
C800 C801 1.363 . S
C800 C806 1.379 . S
C800 N808 1.356 . S
C801 C800 1.363 . S
C801 C807 1.363 . S
C802 C803 1.363 . S
C802 C807 1.379 . S
C802 N809 1.356 . S
C803 C802 1.363 . S
C803 C806 1.363 . S
N804 C806 1.356 . S
N804 H816 0.984 . S
N804 H817 0.985 1_655 S
N805 C807 1.356 . S
N805 H810 0.984 . S
N805 H811 0.985 . S
C806 C800 1.379 . S
C806 C803 1.363 . S
C806 N804 1.356 . S
C807 C801 1.363 . S
C807 C802 1.379 . S
C807 N805 1.356 . S
N808 C800 1.356 . S
N808 H814 0.984 . S
N808 H815 0.984 . S
N809 C802 1.356 . S
N809 H812 0.984 . S
N809 H813 0.985 . S
H810 N805 0.984 . S
H811 N805 0.985 . S
H812 N809 0.984 . S
H813 N809 0.985 . S
H814 N808 0.984 . S
H815 N808 0.984 . S
H816 N804 0.984 . S
H817 N804 0.985 1_455 S
C818 C819 1.363 . S
C818 C824 1.379 . S
C818 N826 1.356 . S
C819 C818 1.363 . S
C819 C825 1.363 . S
C820 C821 1.363 . S
C820 C825 1.379 . S
C820 N827 1.356 . S
C821 C820 1.363 . S
C821 C824 1.363 . S
N822 C824 1.356 . S
N822 H834 0.984 . S
N822 H835 0.985 . S
N823 C825 1.356 . S
N823 H828 0.984 1_565 S
N823 H829 0.985 1_565 S
C824 C818 1.379 . S
C824 C821 1.363 . S
C824 N822 1.356 . S
C825 C819 1.363 . S
C825 C820 1.379 . S
C825 N823 1.356 . S
N826 C818 1.356 . S
N826 H832 0.984 . S
N826 H833 0.984 . S
N827 C820 1.356 . S
N827 H830 0.984 . S
N827 H831 0.985 . S
H828 N823 0.984 1_545 S
H829 N823 0.985 1_545 S
H830 N827 0.984 . S
H831 N827 0.985 . S
H832 N826 0.984 . S
H833 N826 0.984 . S
H834 N822 0.984 . S
H835 N822 0.985 . S
C836 C837 1.363 . S
C836 C842 1.379 . S
C836 N844 1.356 . S
C837 C836 1.363 . S
C837 C843 1.363 . S
C838 C839 1.363 . S
C838 C843 1.379 . S
C838 N845 1.356 . S
C839 C838 1.363 . S
C839 C842 1.363 . S
N840 C842 1.356 . S
N840 H852 0.984 . S
N840 H853 0.985 . S
N841 C843 1.356 . S
N841 H846 0.984 . S
N841 H847 0.985 . S
C842 C836 1.379 . S
C842 C839 1.363 . S
C842 N840 1.356 . S
C843 C837 1.363 . S
C843 C838 1.379 . S
C843 N841 1.356 . S
N844 C836 1.356 . S
N844 H850 0.984 . S
N844 H851 0.984 1_455 S
N845 C838 1.356 . S
N845 H848 0.984 . S
N845 H849 0.985 . S
H846 N841 0.984 . S
H847 N841 0.985 . S
H848 N845 0.984 . S
H849 N845 0.985 . S
H850 N844 0.984 . S
H851 N844 0.984 1_655 S
H852 N840 0.984 . S
H853 N840 0.985 . S
C854 C855 1.363 . S
C854 C860 1.379 . S
C854 N862 1.356 . S
C855 C854 1.363 . S
C855 C861 1.363 . S
C856 C857 1.363 . S
C856 C861 1.379 . S
C856 N863 1.356 . S
C857 C856 1.363 . S
C857 C860 1.363 . S
N858 C860 1.356 1_565 S
N858 H870 0.984 . S
N858 H871 0.985 . S
N859 C861 1.356 . S
N859 H864 0.984 . S
N859 H865 0.985 . S
C860 C854 1.379 . S
C860 C857 1.363 . S
C860 N858 1.356 1_545 S
C861 C855 1.363 . S
C861 C856 1.379 . S
C861 N859 1.356 . S
N862 C854 1.356 . S
N862 H868 0.984 . S
N862 H869 0.984 . S
N863 C856 1.356 . S
N863 H866 0.984 . S
N863 H867 0.985 . S
H864 N859 0.984 . S
H865 N859 0.985 . S
H866 N863 0.984 . S
H867 N863 0.985 . S
H868 N862 0.984 . S
H869 N862 0.984 . S
H870 N858 0.984 . S
H871 N858 0.985 . S
C872 C873 1.363 . S
C872 C878 1.379 . S
C872 N880 1.356 . S
C873 C872 1.363 . S
C873 C879 1.363 . S
C874 C875 1.363 . S
C874 C879 1.379 . S
C874 N881 1.356 . S
C875 C874 1.363 . S
C875 C878 1.363 . S
N876 C878 1.356 . S
N876 H888 0.984 1_655 S
N876 H889 0.985 1_655 S
N877 C879 1.356 . S
N877 H882 0.984 . S
N877 H883 0.985 . S
C878 C872 1.379 . S
C878 C875 1.363 . S
C878 N876 1.356 . S
C879 C873 1.363 . S
C879 C874 1.379 . S
C879 N877 1.356 . S
N880 C872 1.356 . S
N880 H886 0.984 . S
N880 H887 0.984 . S
N881 C874 1.356 . S
N881 H884 0.984 . S
N881 H885 0.985 . S
H882 N877 0.984 . S
H883 N877 0.985 . S
H884 N881 0.984 . S
H885 N881 0.985 . S
H886 N880 0.984 . S
H887 N880 0.984 . S
H888 N876 0.984 1_455 S
H889 N876 0.985 1_455 S
C890 C891 1.363 . S
C890 C896 1.379 . S
C890 N898 1.356 . S
C891 C890 1.363 . S
C891 C897 1.363 . S
C892 C893 1.363 . S
C892 C897 1.379 . S
C892 N899 1.356 . S
C893 C892 1.363 . S
C893 C896 1.363 . S
N894 C896 1.356 . S
N894 H906 0.984 . S
N894 H907 0.985 . S
N895 C897 1.356 . S
N895 H900 0.984 1_565 S
N895 H901 0.985 1_565 S
C896 C890 1.379 . S
C896 C893 1.363 . S
C896 N894 1.356 . S
C897 C891 1.363 . S
C897 C892 1.379 . S
C897 N895 1.356 . S
N898 C890 1.356 . S
N898 H904 0.984 . S
N898 H905 0.984 . S
N899 C892 1.356 . S
N899 H902 0.984 . S
N899 H903 0.985 . S
H900 N895 0.984 1_545 S
H901 N895 0.985 1_545 S
H902 N899 0.984 . S
H903 N899 0.985 . S
H904 N898 0.984 . S
H905 N898 0.984 . S
H906 N894 0.984 . S
H907 N894 0.985 . S
C908 C909 1.363 . S
C908 C914 1.379 . S
C908 N916 1.356 . S
C909 C908 1.363 . S
C909 C915 1.363 . S
C910 C911 1.363 . S
C910 C915 1.379 . S
C910 N917 1.356 . S
C911 C910 1.363 . S
C911 C914 1.363 . S
N912 C914 1.356 . S
N912 H924 0.984 . S
N912 H925 0.985 . S
N913 C915 1.356 . S
N913 H918 0.984 . S
N913 H919 0.985 . S
C914 C908 1.379 . S
C914 C911 1.363 . S
C914 N912 1.356 . S
C915 C909 1.363 . S
C915 C910 1.379 . S
C915 N913 1.356 . S
N916 C908 1.356 . S
N916 H922 0.984 . S
N916 H923 0.984 . S
N917 C910 1.356 . S
N917 H920 0.984 . S
N917 H921 0.985 . S
H918 N913 0.984 . S
H919 N913 0.985 . S
H920 N917 0.984 . S
H921 N917 0.985 . S
H922 N916 0.984 . S
H923 N916 0.984 . S
H924 N912 0.984 . S
H925 N912 0.985 . S
C926 C927 1.363 . S
C926 C932 1.379 . S
C926 N934 1.356 . S
C927 C926 1.363 . S
C927 C933 1.363 . S
C928 C929 1.363 . S
C928 C933 1.379 . S
C928 N935 1.356 . S
C929 C928 1.363 . S
C929 C932 1.363 . S
N930 C932 1.356 . S
N930 H942 0.984 . S
N930 H943 0.985 . S
N931 C933 1.356 . S
N931 H936 0.984 1_545 S
N931 H937 0.985 1_545 S
C932 C926 1.379 . S
C932 C929 1.363 . S
C932 N930 1.356 . S
C933 C927 1.363 . S
C933 C928 1.379 . S
C933 N931 1.356 . S
N934 C926 1.356 . S
N934 H940 0.984 . S
N934 H941 0.984 . S
N935 C928 1.356 . S
N935 H938 0.984 . S
N935 H939 0.985 . S
H936 N931 0.984 1_565 S
H937 N931 0.985 1_565 S
H938 N935 0.984 . S
H939 N935 0.985 . S
H940 N934 0.984 . S
H941 N934 0.984 . S
H942 N930 0.984 . S
H943 N930 0.985 . S
C944 C945 1.363 . S
C944 C950 1.372 1_554 S
C944 N952 1.356 . S
C945 C944 1.363 . S
C945 C951 1.370 . S
C946 C947 1.363 . S
C946 C951 1.372 1_556 S
C946 N953 1.356 . S
C947 C946 1.363 . S
C947 C950 1.370 . S
N948 C950 1.359 . S
N948 H960 0.984 1_556 S
N948 H961 0.985 . S
N949 C951 1.359 . S
N949 H954 0.984 . S
N949 H955 0.985 1_554 S
C950 C944 1.372 1_556 S
C950 C947 1.370 . S
C950 N948 1.359 . S
C951 C945 1.370 . S
C951 C946 1.372 1_554 S
C951 N949 1.359 . S
N952 C944 1.356 . S
N952 H958 0.984 . S
N952 H959 0.984 . S
N953 C946 1.356 . S
N953 H956 0.984 . S
N953 H957 0.985 . S
H954 N949 0.984 . S
H955 N949 0.985 1_556 S
H956 N953 0.984 . S
H957 N953 0.985 . S
H958 N952 0.984 . S
H959 N952 0.984 . S
H960 N948 0.984 1_554 S
H961 N948 0.985 . S
C962 C963 1.363 1_554 S
C962 C968 1.379 . S
C962 N970 1.356 1_554 S
C963 C962 1.363 1_556 S
C963 C969 1.363 . S
C964 C965 1.363 1_556 S
C964 C969 1.379 . S
C964 N971 1.356 1_556 S
C965 C964 1.363 1_554 S
C965 C968 1.363 . S
N966 C968 1.356 . S
N966 H978 0.984 . S
N966 H979 0.985 . S
N967 C969 1.356 . S
N967 H972 0.984 . S
N967 H973 0.985 . S
C968 C962 1.379 . S
C968 C965 1.363 . S
C968 N966 1.356 . S
C969 C963 1.363 . S
C969 C964 1.379 . S
C969 N967 1.356 . S
N970 C962 1.356 1_556 S
N970 H976 0.984 1_556 S
N970 H977 0.984 . S
N971 C964 1.356 1_554 S
N971 H974 0.984 . S
N971 H975 0.985 1_554 S
H972 N967 0.984 . S
H973 N967 0.985 . S
H974 N971 0.984 . S
H975 N971 0.985 1_556 S
H976 N970 0.984 1_554 S
H977 N970 0.984 . S
H978 N966 0.984 . S
H979 N966 0.985 . S
C980 C981 1.363 . S
C980 C986 1.379 1_556 S
C980 N988 1.356 . S
C981 C980 1.363 . S
C981 C987 1.363 . S
C982 C983 1.363 . S
C982 C987 1.379 1_554 S
C982 N989 1.356 . S
C983 C982 1.363 . S
C983 C986 1.363 . S
N984 C986 1.356 . S
N984 H996 0.984 . S
N984 H997 0.985 . S
N985 C987 1.356 . S
N985 H990 0.984 . S
N985 H991 0.985 . S
C986 C980 1.379 1_554 S
C986 C983 1.363 . S
C986 N984 1.356 . S
C987 C981 1.363 . S
C987 C982 1.379 1_556 S
C987 N985 1.356 . S
N988 C980 1.356 . S
N988 H994 0.984 . S
N988 H995 0.984 . S
N989 C982 1.356 . S
N989 H992 0.984 . S
N989 H993 0.985 . S
H990 N985 0.984 . S
H991 N985 0.985 . S
H992 N989 0.984 . S
H993 N989 0.985 . S
H994 N988 0.984 . S
H995 N988 0.984 . S
H996 N984 0.984 . S
H997 N984 0.985 . S
C998 C999 1.363 1_554 S
C998 C1004 1.379 . S
C998 N1006 1.356 1_554 S
C999 C998 1.363 1_556 S
C999 C1005 1.363 . S
C1000 C1001 1.363 1_556 S
C1000 C1005 1.379 . S
C1000 N1007 1.356 1_556 S
C1001 C1000 1.363 1_554 S
C1001 C1004 1.363 . S
N1002 C1004 1.356 . S
N1002 H1014 0.984 . S
N1002 H1015 0.985 . S
N1003 C1005 1.356 . S
N1003 H1008 0.984 . S
N1003 H1009 0.985 . S
C1004 C998 1.379 . S
C1004 C1001 1.363 . S
C1004 N1002 1.356 . S
C1005 C999 1.363 . S
C1005 C1000 1.379 . S
C1005 N1003 1.356 . S
N1006 C998 1.356 1_556 S
N1006 H1012 0.984 1_556 S
N1006 H1013 0.984 . S
N1007 C1000 1.356 1_554 S
N1007 H1010 0.984 . S
N1007 H1011 0.985 1_554 S
H1008 N1003 0.984 . S
H1009 N1003 0.985 . S
H1010 N1007 0.984 . S
H1011 N1007 0.985 1_556 S
H1012 N1006 0.984 1_554 S
H1013 N1006 0.984 . S
H1014 N1002 0.984 . S
H1015 N1002 0.985 . S
C1016 C1017 1.363 . S
C1016 C1022 1.379 . S
C1016 N1024 1.356 . S
C1017 C1016 1.363 . S
C1017 C1023 1.363 . S
C1018 C1019 1.363 . S
C1018 C1023 1.379 . S
C1018 N1025 1.356 . S
C1019 C1018 1.363 . S
C1019 C1022 1.363 . S
N1020 C1022 1.356 . S
N1020 H1032 0.984 . S
N1020 H1033 0.985 . S
N1021 C1023 1.356 . S
N1021 H1026 0.984 . S
N1021 H1027 0.985 . S
C1022 C1016 1.379 . S
C1022 C1019 1.363 . S
C1022 N1020 1.356 . S
C1023 C1017 1.363 . S
C1023 C1018 1.379 . S
C1023 N1021 1.356 . S
N1024 C1016 1.356 . S
N1024 H1030 0.984 . S
N1024 H1031 0.984 . S
N1025 C1018 1.356 . S
N1025 H1028 0.984 . S
N1025 H1029 0.985 . S
H1026 N1021 0.984 . S
H1027 N1021 0.985 . S
H1028 N1025 0.984 . S
H1029 N1025 0.985 . S
H1030 N1024 0.984 . S
H1031 N1024 0.984 . S
H1032 N1020 0.984 . S
H1033 N1020 0.985 . S
C1034 C1035 1.363 . S
C1034 C1040 1.379 . S
C1034 N1042 1.356 . S
C1035 C1034 1.363 . S
C1035 C1041 1.363 . S
C1036 C1037 1.363 . S
C1036 C1041 1.379 . S
C1036 N1043 1.356 . S
C1037 C1036 1.363 . S
C1037 C1040 1.363 . S
N1038 C1040 1.356 . S
N1038 H1050 0.984 . S
N1038 H1051 0.985 . S
N1039 C1041 1.356 . S
N1039 H1044 0.984 . S
N1039 H1045 0.985 . S
C1040 C1034 1.379 . S
C1040 C1037 1.363 . S
C1040 N1038 1.356 . S
C1041 C1035 1.363 . S
C1041 C1036 1.379 . S
C1041 N1039 1.356 . S
N1042 C1034 1.356 . S
N1042 H1048 0.984 . S
N1042 H1049 0.984 . S
N1043 C1036 1.356 . S
N1043 H1046 0.984 . S
N1043 H1047 0.985 . S
H1044 N1039 0.984 . S
H1045 N1039 0.985 . S
H1046 N1043 0.984 . S
H1047 N1043 0.985 . S
H1048 N1042 0.984 . S
H1049 N1042 0.984 . S
H1050 N1038 0.984 . S
H1051 N1038 0.985 . S
C1052 C1053 1.363 . S
C1052 C1058 1.379 . S
C1052 N1060 1.356 . S
C1053 C1052 1.363 . S
C1053 C1059 1.363 . S
C1054 C1055 1.363 . S
C1054 C1059 1.379 . S
C1054 N1061 1.356 . S
C1055 C1054 1.363 . S
C1055 C1058 1.363 . S
N1056 C1058 1.356 . S
N1056 H1068 0.984 . S
N1056 H1069 0.985 . S
N1057 C1059 1.356 . S
N1057 H1062 0.984 . S
N1057 H1063 0.985 . S
C1058 C1052 1.379 . S
C1058 C1055 1.363 . S
C1058 N1056 1.356 . S
C1059 C1053 1.363 . S
C1059 C1054 1.379 . S
C1059 N1057 1.356 . S
N1060 C1052 1.356 . S
N1060 H1066 0.984 . S
N1060 H1067 0.984 . S
N1061 C1054 1.356 . S
N1061 H1064 0.984 . S
N1061 H1065 0.985 . S
H1062 N1057 0.984 . S
H1063 N1057 0.985 . S
H1064 N1061 0.984 . S
H1065 N1061 0.985 . S
H1066 N1060 0.984 . S
H1067 N1060 0.984 . S
H1068 N1056 0.984 . S
H1069 N1056 0.985 . S
C1070 C1071 1.363 . S
C1070 C1076 1.379 . S
C1070 N1078 1.356 . S
C1071 C1070 1.363 . S
C1071 C1077 1.363 . S
C1072 C1073 1.363 . S
C1072 C1077 1.379 . S
C1072 N1079 1.356 . S
C1073 C1072 1.363 . S
C1073 C1076 1.363 . S
N1074 C1076 1.356 . S
N1074 H1086 0.984 . S
N1074 H1087 0.985 . S
N1075 C1077 1.356 . S
N1075 H1080 0.984 . S
N1075 H1081 0.985 . S
C1076 C1070 1.379 . S
C1076 C1073 1.363 . S
C1076 N1074 1.356 . S
C1077 C1071 1.363 . S
C1077 C1072 1.379 . S
C1077 N1075 1.356 . S
N1078 C1070 1.356 . S
N1078 H1084 0.984 . S
N1078 H1085 0.984 . S
N1079 C1072 1.356 . S
N1079 H1082 0.984 . S
N1079 H1083 0.985 . S
H1080 N1075 0.984 . S
H1081 N1075 0.985 . S
H1082 N1079 0.984 . S
H1083 N1079 0.985 . S
H1084 N1078 0.984 . S
H1085 N1078 0.984 . S
H1086 N1074 0.984 . S
H1087 N1074 0.985 . S
C1088 C1089 1.363 1_554 S
C1088 C1094 1.379 . S
C1088 N1096 1.356 1_554 S
C1089 C1088 1.363 1_556 S
C1089 C1095 1.363 . S
C1090 C1091 1.363 1_556 S
C1090 C1095 1.379 . S
C1090 N1097 1.356 1_556 S
C1091 C1090 1.363 1_554 S
C1091 C1094 1.363 . S
N1092 C1094 1.356 . S
N1092 H1104 0.984 . S
N1092 H1105 0.985 . S
N1093 C1095 1.356 . S
N1093 H1098 0.984 . S
N1093 H1099 0.985 . S
C1094 C1088 1.379 . S
C1094 C1091 1.363 . S
C1094 N1092 1.356 . S
C1095 C1089 1.363 . S
C1095 C1090 1.379 . S
C1095 N1093 1.356 . S
N1096 C1088 1.356 1_556 S
N1096 H1102 0.984 1_556 S
N1096 H1103 0.984 . S
N1097 C1090 1.356 1_554 S
N1097 H1100 0.984 . S
N1097 H1101 0.985 1_554 S
H1098 N1093 0.984 . S
H1099 N1093 0.985 . S
H1100 N1097 0.984 . S
H1101 N1097 0.985 1_556 S
H1102 N1096 0.984 1_554 S
H1103 N1096 0.984 . S
H1104 N1092 0.984 . S
H1105 N1092 0.985 . S
C1106 C1107 1.363 1_556 S
C1106 C1112 1.379 . S
C1106 N1114 1.356 1_556 S
C1107 C1106 1.363 1_554 S
C1107 C1113 1.363 . S
C1108 C1109 1.363 1_554 S
C1108 C1113 1.379 . S
C1108 N1115 1.356 1_554 S
C1109 C1108 1.363 1_556 S
C1109 C1112 1.363 . S
N1110 C1112 1.356 . S
N1110 H1122 0.984 . S
N1110 H1123 0.985 . S
N1111 C1113 1.356 . S
N1111 H1116 0.984 . S
N1111 H1117 0.985 . S
C1112 C1106 1.379 . S
C1112 C1109 1.363 . S
C1112 N1110 1.356 . S
C1113 C1107 1.363 . S
C1113 C1108 1.379 . S
C1113 N1111 1.356 . S
N1114 C1106 1.356 1_554 S
N1114 H1120 0.984 1_554 S
N1114 H1121 0.984 . S
N1115 C1108 1.356 1_556 S
N1115 H1118 0.984 . S
N1115 H1119 0.985 1_556 S
H1116 N1111 0.984 . S
H1117 N1111 0.985 . S
H1118 N1115 0.984 . S
H1119 N1115 0.985 1_554 S
H1120 N1114 0.984 1_556 S
H1121 N1114 0.984 . S
H1122 N1110 0.984 . S
H1123 N1110 0.985 . S
C1124 C1125 1.363 . S
C1124 C1130 1.379 1_554 S
C1124 N1132 1.356 . S
C1125 C1124 1.363 . S
C1125 C1131 1.363 . S
C1126 C1127 1.363 . S
C1126 C1131 1.379 1_556 S
C1126 N1133 1.356 . S
C1127 C1126 1.363 . S
C1127 C1130 1.363 . S
N1128 C1130 1.356 . S
N1128 H1140 0.984 . S
N1128 H1141 0.985 . S
N1129 C1131 1.356 . S
N1129 H1134 0.984 . S
N1129 H1135 0.985 . S
C1130 C1124 1.379 1_556 S
C1130 C1127 1.363 . S
C1130 N1128 1.356 . S
C1131 C1125 1.363 . S
C1131 C1126 1.379 1_554 S
C1131 N1129 1.356 . S
N1132 C1124 1.356 . S
N1132 H1138 0.984 . S
N1132 H1139 0.984 . S
N1133 C1126 1.356 . S
N1133 H1136 0.984 . S
N1133 H1137 0.985 . S
H1134 N1129 0.984 . S
H1135 N1129 0.985 . S
H1136 N1133 0.984 . S
H1137 N1133 0.985 . S
H1138 N1132 0.984 . S
H1139 N1132 0.984 . S
H1140 N1128 0.984 . S
H1141 N1128 0.985 . S
C1142 C1143 1.363 . S
C1142 C1148 1.379 . S
C1142 N1150 1.356 . S
C1143 C1142 1.363 . S
C1143 C1149 1.363 1_554 S
C1144 C1145 1.363 . S
C1144 C1149 1.379 . S
C1144 N1151 1.356 . S
C1145 C1144 1.363 . S
C1145 C1148 1.363 1_556 S
N1146 C1148 1.356 1_556 S
N1146 H1158 0.984 1_556 S
N1146 H1159 0.985 . S
N1147 C1149 1.356 1_554 S
N1147 H1152 0.984 . S
N1147 H1153 0.985 1_554 S
C1148 C1142 1.379 . S
C1148 C1145 1.363 1_554 S
C1148 N1146 1.356 1_554 S
C1149 C1143 1.363 1_556 S
C1149 C1144 1.379 . S
C1149 N1147 1.356 1_556 S
N1150 C1142 1.356 . S
N1150 H1156 0.984 . S
N1150 H1157 0.984 . S
N1151 C1144 1.356 . S
N1151 H1154 0.984 . S
N1151 H1155 0.985 . S
H1152 N1147 0.984 . S
H1153 N1147 0.985 1_556 S
H1154 N1151 0.984 . S
H1155 N1151 0.985 . S
H1156 N1150 0.984 . S
H1157 N1150 0.984 . S
H1158 N1146 0.984 1_554 S
H1159 N1146 0.985 . S
C1160 C1161 1.363 . S
C1160 C1166 1.379 . S
C1160 N1168 1.356 . S
C1161 C1160 1.363 . S
C1161 C1167 1.363 1_545 S
C1162 C1163 1.363 . S
C1162 C1167 1.379 . S
C1162 N1169 1.356 . S
C1163 C1162 1.363 . S
C1163 C1166 1.363 1_565 S
N1164 C1166 1.356 1_565 S
N1164 H1176 0.984 1_565 S
N1164 H1177 0.985 . S
N1165 C1167 1.356 1_545 S
N1165 H1170 0.984 . S
N1165 H1171 0.985 1_545 S
C1166 C1160 1.379 . S
C1166 C1163 1.363 1_545 S
C1166 N1164 1.356 1_545 S
C1167 C1161 1.363 1_565 S
C1167 C1162 1.379 . S
C1167 N1165 1.356 1_565 S
N1168 C1160 1.356 . S
N1168 H1174 0.984 . S
N1168 H1175 0.984 . S
N1169 C1162 1.356 . S
N1169 H1172 0.984 . S
N1169 H1173 0.985 . S
H1170 N1165 0.984 . S
H1171 N1165 0.985 1_565 S
H1172 N1169 0.984 . S
H1173 N1169 0.985 . S
H1174 N1168 0.984 . S
H1175 N1168 0.984 . S
H1176 N1164 0.984 1_545 S
H1177 N1164 0.985 . S
C1178 C1179 1.363 . S
C1178 C1184 1.379 1_655 S
C1178 N1186 1.356 . S
C1179 C1178 1.363 . S
C1179 C1185 1.363 . S
C1180 C1181 1.363 . S
C1180 C1185 1.379 1_455 S
C1180 N1187 1.356 . S
C1181 C1180 1.363 . S
C1181 C1184 1.363 . S
N1182 C1184 1.356 . S
N1182 H1194 0.984 . S
N1182 H1195 0.985 . S
N1183 C1185 1.356 . S
N1183 H1188 0.984 . S
N1183 H1189 0.985 . S
C1184 C1178 1.379 1_455 S
C1184 C1181 1.363 . S
C1184 N1182 1.356 . S
C1185 C1179 1.363 . S
C1185 C1180 1.379 1_655 S
C1185 N1183 1.356 . S
N1186 C1178 1.356 . S
N1186 H1192 0.984 . S
N1186 H1193 0.984 . S
N1187 C1180 1.356 . S
N1187 H1190 0.984 . S
N1187 H1191 0.985 . S
H1188 N1183 0.984 . S
H1189 N1183 0.985 . S
H1190 N1187 0.984 . S
H1191 N1187 0.985 . S
H1192 N1186 0.984 . S
H1193 N1186 0.984 . S
H1194 N1182 0.984 . S
H1195 N1182 0.985 . S
C1196 C1197 1.363 . S
C1196 C1202 1.379 . S
C1196 N1204 1.356 . S
C1197 C1196 1.363 . S
C1197 C1203 1.363 1_565 S
C1198 C1199 1.363 . S
C1198 C1203 1.379 . S
C1198 N1205 1.356 . S
C1199 C1198 1.363 . S
C1199 C1202 1.363 1_545 S
N1200 C1202 1.356 1_545 S
N1200 H1212 0.984 1_545 S
N1200 H1213 0.985 . S
N1201 C1203 1.356 1_565 S
N1201 H1206 0.984 . S
N1201 H1207 0.985 1_565 S
C1202 C1196 1.379 . S
C1202 C1199 1.363 1_565 S
C1202 N1200 1.356 1_565 S
C1203 C1197 1.363 1_545 S
C1203 C1198 1.379 . S
C1203 N1201 1.356 1_545 S
N1204 C1196 1.356 . S
N1204 H1210 0.984 . S
N1204 H1211 0.984 . S
N1205 C1198 1.356 . S
N1205 H1208 0.984 . S
N1205 H1209 0.985 . S
H1206 N1201 0.984 . S
H1207 N1201 0.985 1_545 S
H1208 N1205 0.984 . S
H1209 N1205 0.985 . S
H1210 N1204 0.984 . S
H1211 N1204 0.984 . S
H1212 N1200 0.984 1_565 S
H1213 N1200 0.985 . S
C1214 C1215 1.363 . S
C1214 C1220 1.379 1_655 S
C1214 N1222 1.356 . S
C1215 C1214 1.363 . S
C1215 C1221 1.363 . S
C1216 C1217 1.363 . S
C1216 C1221 1.379 1_455 S
C1216 N1223 1.356 . S
C1217 C1216 1.363 . S
C1217 C1220 1.363 . S
N1218 C1220 1.356 . S
N1218 H1230 0.984 . S
N1218 H1231 0.985 . S
N1219 C1221 1.356 . S
N1219 H1224 0.984 . S
N1219 H1225 0.985 . S
C1220 C1214 1.379 1_455 S
C1220 C1217 1.363 . S
C1220 N1218 1.356 . S
C1221 C1215 1.363 . S
C1221 C1216 1.379 1_655 S
C1221 N1219 1.356 . S
N1222 C1214 1.356 . S
N1222 H1228 0.984 . S
N1222 H1229 0.984 . S
N1223 C1216 1.356 . S
N1223 H1226 0.984 . S
N1223 H1227 0.985 . S
H1224 N1219 0.984 . S
H1225 N1219 0.985 . S
H1226 N1223 0.984 . S
H1227 N1223 0.985 . S
H1228 N1222 0.984 . S
H1229 N1222 0.984 . S
H1230 N1218 0.984 . S
H1231 N1218 0.985 . S
C369 C16 1.344 . S
C371 C361 1.344 . S
C387 C292 1.344 . S
C389 C39 1.344 . S
C405 C62 1.344 . S
C407 C315 1.344 . S
C423 C338 1.344 . S
C425 C85 1.344 . S
C441 C108 1.344 . S
C443 C223 1.344 . S
C459 C246 1.344 . S
C461 C131 1.344 . S
C477 C154 1.344 . S
C479 C269 1.344 . S
C495 C200 1.344 . S
C497 C177 1.344 . S
C513 C67 1.743 . S
C515 C21 1.743 . S
C531 C90 1.743 . S
C533 C44 1.743 . S
C549 C159 1.743 . S
C551 C113 1.743 . S
C567 C182 1.743 . S
C569 C136 1.743 . S
C585 C205 1.743 . S
C587 C251 1.743 . S
C603 C228 1.743 . S
C605 C274 1.743 . S
C621 C343 1.743 . S
C623 C297 1.743 . S
C639 C366 1.743 . S
C641 C320 1.743 . S
C657 C18 1.185 . S
C659 C43 1.180 . S
C675 C66 1.180 . S
C677 C41 1.185 . S
C693 C64 1.185 . S
C695 C89 1.180 . S
C711 C20 1.180 . S
C713 C87 1.185 . S
C729 C110 1.185 . S
C731 C181 1.180 . S
C747 C112 1.180 . S
C749 C133 1.185 . S
C765 C156 1.185 . S
C767 C135 1.180 . S
C783 C158 1.180 . S
C785 C179 1.185 . S
C801 C202 1.185 . S
C803 C227 1.180 . S
C819 C250 1.180 . S
C821 C225 1.185 . S
C837 C273 1.180 . S
C839 C248 1.185 . S
C855 C271 1.185 . S
C857 C204 1.180 . S
C873 C294 1.185 . S
C875 C365 1.180 . S
C891 C296 1.180 . S
C893 C317 1.185 . S
C909 C340 1.185 . S
C911 C319 1.180 . S
C927 C342 1.180 . S
C929 C363 1.185 . S
C945 C19 1.984 . S
C947 C134 1.984 . S
C963 C157 1.984 . S
C965 C42 1.984 . S
C981 C180 1.984 . S
C983 C65 1.984 . S
C999 C111 1.984 . S
C1001 C88 1.984 . S
C1017 C318 1.984 . S
C1019 C203 1.984 . S
C1035 C226 1.984 . S
C1037 C341 1.984 . S
C1053 C364 1.984 . S
C1055 C249 1.984 . S
C1071 C272 1.984 . S
C1073 C295 1.984 . S
C1089 C109 0.843 . S
C1091 C17 0.843 . S
C1107 C40 0.843 . S
C1109 C132 0.843 . S
C1125 C63 0.843 . S
C1127 C155 0.843 . S
C1143 C86 0.843 . S
C1145 C178 0.843 . S
C1161 C293 0.843 . S
C1163 C201 0.843 . S
C1179 C316 0.843 . S
C1181 C224 0.843 . S
C1197 C339 0.843 . S
C1199 C247 0.843 . S
C1215 C270 0.843 . S
C1217 C362 0.843 . S
