# Generated by pormake.
# Topology uki, (4)-cn, num edge types: 1
# Building blocks:
#     Node 0, Type 0, BuildingBlock: ESEHIV_clean_sbu_0, # of connection points: 4
#     Node 1, Type 0, BuildingBlock: ESEHIV_clean_sbu_0, # of connection points: 4
#     Node 2, Type 0, BuildingBlock: ESEHIV_clean_sbu_0, # of connection points: 4
#     Node 3, Type 0, BuildingBlock: ESEHIV_clean_sbu_0, # of connection points: 4
#     Node 4, Type 0, BuildingBlock: ESEHIV_clean_sbu_0, # of connection points: 4
#     Node 5, Type 0, BuildingBlock: ESEHIV_clean_sbu_0, # of connection points: 4
#     Node 6, Type 0, BuildingBlock: ESEHIV_clean_sbu_0, # of connection points: 4
#     Node 7, Type 0, BuildingBlock: ESEHIV_clean_sbu_0, # of connection points: 4
#     Node 8, Type 0, BuildingBlock: ESEHIV_clean_sbu_0, # of connection points: 4
#     Node 9, Type 0, BuildingBlock: ESEHIV_clean_sbu_0, # of connection points: 4
#     Node 10, Type 0, BuildingBlock: ESEHIV_clean_sbu_0, # of connection points: 4
#     Node 11, Type 0, BuildingBlock: ESEHIV_clean_sbu_0, # of connection points: 4
#     Node 12, Type 0, BuildingBlock: ESEHIV_clean_sbu_0, # of connection points: 4
#     Node 13, Type 0, BuildingBlock: ESEHIV_clean_sbu_0, # of connection points: 4
#     Node 14, Type 0, BuildingBlock: ESEHIV_clean_sbu_0, # of connection points: 4
#     Node 15, Type 0, BuildingBlock: ESEHIV_clean_sbu_0, # of connection points: 4
#     Edge 16, Type (0, 0), BuildingBlock: AJUNOK_clean_linker_0, # of connection points: 2
#     Edge 17, Type (0, 0), BuildingBlock: AJUNOK_clean_linker_0, # of connection points: 2
#     Edge 18, Type (0, 0), BuildingBlock: AJUNOK_clean_linker_0, # of connection points: 2
#     Edge 19, Type (0, 0), BuildingBlock: AJUNOK_clean_linker_0, # of connection points: 2
#     Edge 20, Type (0, 0), BuildingBlock: AJUNOK_clean_linker_0, # of connection points: 2
#     Edge 21, Type (0, 0), BuildingBlock: AJUNOK_clean_linker_0, # of connection points: 2
#     Edge 22, Type (0, 0), BuildingBlock: AJUNOK_clean_linker_0, # of connection points: 2
#     Edge 23, Type (0, 0), BuildingBlock: AJUNOK_clean_linker_0, # of connection points: 2
#     Edge 24, Type (0, 0), BuildingBlock: AJUNOK_clean_linker_0, # of connection points: 2
#     Edge 25, Type (0, 0), BuildingBlock: AJUNOK_clean_linker_0, # of connection points: 2
#     Edge 26, Type (0, 0), BuildingBlock: AJUNOK_clean_linker_0, # of connection points: 2
#     Edge 27, Type (0, 0), BuildingBlock: AJUNOK_clean_linker_0, # of connection points: 2
#     Edge 28, Type (0, 0), BuildingBlock: AJUNOK_clean_linker_0, # of connection points: 2
#     Edge 29, Type (0, 0), BuildingBlock: AJUNOK_clean_linker_0, # of connection points: 2
#     Edge 30, Type (0, 0), BuildingBlock: AJUNOK_clean_linker_0, # of connection points: 2
#     Edge 31, Type (0, 0), BuildingBlock: AJUNOK_clean_linker_0, # of connection points: 2
#     Edge 32, Type (0, 0), BuildingBlock: AJUNOK_clean_linker_0, # of connection points: 2
#     Edge 33, Type (0, 0), BuildingBlock: AJUNOK_clean_linker_0, # of connection points: 2
#     Edge 34, Type (0, 0), BuildingBlock: AJUNOK_clean_linker_0, # of connection points: 2
#     Edge 35, Type (0, 0), BuildingBlock: AJUNOK_clean_linker_0, # of connection points: 2
#     Edge 36, Type (0, 0), BuildingBlock: AJUNOK_clean_linker_0, # of connection points: 2
#     Edge 37, Type (0, 0), BuildingBlock: AJUNOK_clean_linker_0, # of connection points: 2
#     Edge 38, Type (0, 0), BuildingBlock: AJUNOK_clean_linker_0, # of connection points: 2
#     Edge 39, Type (0, 0), BuildingBlock: AJUNOK_clean_linker_0, # of connection points: 2
#     Edge 40, Type (0, 0), BuildingBlock: AJUNOK_clean_linker_0, # of connection points: 2
#     Edge 41, Type (0, 0), BuildingBlock: AJUNOK_clean_linker_0, # of connection points: 2
#     Edge 42, Type (0, 0), BuildingBlock: AJUNOK_clean_linker_0, # of connection points: 2
#     Edge 43, Type (0, 0), BuildingBlock: AJUNOK_clean_linker_0, # of connection points: 2
#     Edge 44, Type (0, 0), BuildingBlock: AJUNOK_clean_linker_0, # of connection points: 2
#     Edge 45, Type (0, 0), BuildingBlock: AJUNOK_clean_linker_0, # of connection points: 2
#     Edge 46, Type (0, 0), BuildingBlock: AJUNOK_clean_linker_0, # of connection points: 2
#     Edge 47, Type (0, 0), BuildingBlock: AJUNOK_clean_linker_0, # of connection points: 2
# Relax obj value: 0.112
# Max RMSD: 0.199
# Mean RMSD: 0.174
data_MOF--net-uki--node1-ESEHIV_clean_sbu_0--edge1-AJUNOK_clean_linker_0
_symmetry_space_group_name_H-M    P1
_symmetry_Int_Tables_number       1
_symmetry_cell_setting            triclinic
loop_
_symmetry_equiv_pos_as_xyz
'x, y, z'
_cell_length_a     27.308717
_cell_length_b     20.873318
_cell_length_c     63.895523
_cell_angle_alpha  89.861191
_cell_angle_beta   90.033551
_cell_angle_gamma 89.77643
loop_
_atom_site_label
_atom_site_type_symbol
_atom_site_fract_x
_atom_site_fract_y
_atom_site_fract_z
_atom_type_partial_charge
Cu0 Cu 0.11609 0.29218 0.33595 0.0
N1 N 0.05705 0.33675 0.33104 0.0
N2 N 0.99062 0.36946 0.31348 0.0
C3 C 0.03348 0.33731 0.3125 0.0
C4 C 0.98668 0.38995 0.33336 0.0
C5 C 1.02748 0.36913 0.34425 0.0
O6 O 0.16244 0.32689 0.31542 0.0
C7 C 0.05799 0.17892 0.33637 0.0
O8 O 1.02753 0.21762 0.34602 0.0
H9 H 0.04686 0.31298 0.29868 0.0
H10 H 0.03354 0.37454 0.36085 0.0
N11 N 0.14333 0.31058 0.36261 0.0
N12 N 0.19612 0.31579 0.38972 0.0
C13 C 0.18109 0.28166 0.37281 0.0
C14 C 0.13551 0.36533 0.3732 0.0
C15 C 0.16742 0.36851 0.38978 0.0
C16 C 0.16744 0.38777 0.31434 0.0
O17 O 0.14104 0.42396 0.32682 0.0
H18 H 0.19857 0.2381 0.36742 0.0
H19 H 0.1112 0.40333 0.36828 0.0
O20 O 0.10073 0.19986 0.33169 0.0
H21 H 0.9554 0.41514 0.33978 0.0
H22 H 0.17152 0.40912 0.40012 0.0
Cu23 Cu 0.25123 0.97206 0.71557 0.0
N24 N 0.18666 0.94903 0.72163 0.0
N25 N 0.10516 0.94172 0.71861 0.0
C26 C 0.14644 0.96943 0.71129 0.0
C27 C 0.12019 0.90189 0.73403 0.0
C28 C 0.17044 0.9066 0.73589 0.0
O29 O 0.25524 0.96307 0.68507 0.0
C30 C 0.30262 0.08605 0.72821 0.0
O31 O 0.33892 0.06487 0.71662 0.0
H32 H 0.14774 1.00262 0.69827 0.0
H33 H 0.1936 0.88043 0.74669 0.0
N34 N 0.29406 0.91477 0.72908 0.0
N35 N 0.34907 0.87439 0.75159 0.0
C36 C 0.325 0.92745 0.74503 0.0
C37 C 0.29891 0.85163 0.7254 0.0
C38 C 0.33286 0.82662 0.73921 0.0
C39 C 0.29069 0.9377 0.67507 0.0
O40 O 0.33269 0.92929 0.68475 0.0
H41 H 0.32898 0.97423 0.75207 0.0
H42 H 0.27893 0.82562 0.71355 0.0
O43 O 0.26182 0.0567 0.72777 0.0
H44 H 0.09649 0.87187 0.7434 0.0
H45 H 0.34496 0.77723 0.73997 0.0
Cu46 Cu 0.92567 0.80815 0.31929 0.0
N47 N 0.97778 0.75088 0.31345 0.0
N48 N 0.02971 0.68944 0.29503 0.0
C49 C 0.9903 0.72854 0.29431 0.0
C50 C 0.04287 0.68699 0.31534 0.0
C51 C 1.01049 0.72417 0.32669 0.0
O52 O 0.87499 0.78278 0.29905 0.0
C53 C 0.99289 0.91435 0.32139 0.0
O54 O 1.02459 0.86924 0.32621 0.0
H55 H 0.9721 0.74204 0.27997 0.0
H56 H 1.0115 0.73195 0.34338 0.0
N57 N 0.90235 0.79745 0.34707 0.0
N58 N 0.85431 0.79288 0.37579 0.0
C59 C 0.85588 0.79325 0.35449 0.0
C60 C 0.9307 0.80051 0.36426 0.0
C61 C 0.90157 0.79734 0.3818 0.0
C62 C 0.87994 0.79419 0.27954 0.0
O63 O 0.91294 0.83625 0.27371 0.0
H64 H 0.82392 0.7935 0.34447 0.0
H65 H 0.96993 0.80715 0.36409 0.0
O66 O 0.94887 0.89811 0.31688 0.0
H67 H 0.07397 0.66067 0.32149 0.0
H68 H 0.91433 0.79915 0.39782 0.0
Cu69 Cu 0.78118 0.07734 0.71252 0.0
N70 N 0.82803 1.0229 0.70047 0.0
N71 N 0.90336 0.9822 0.69644 0.0
C72 C 0.87595 1.02943 0.70482 0.0
C73 C 0.87125 0.94393 0.68642 0.0
C74 C 0.82465 0.96953 0.68877 0.0
O75 O 0.79344 0.16209 0.70023 0.0
C76 C 0.78544 1.00532 0.74867 0.0
O77 O 0.79582 0.96192 0.73453 0.0
H78 H 0.89 0.06639 0.71502 0.0
H79 H 0.79073 0.94931 0.68312 0.0
N80 N 0.71505 0.06 0.70833 0.0
N81 N 0.64238 0.0735 0.72425 0.0
C82 C 0.6833 0.10191 0.71695 0.0
C83 C 0.69289 1.00267 0.70973 0.0
C84 C 0.64806 1.0109 0.71948 0.0
C85 C 0.78998 0.16373 0.68024 0.0
O86 O 0.77791 0.11065 0.67055 0.0
H87 H 0.69425 0.14983 0.72135 0.0
H88 H 0.71095 0.95723 0.70705 0.0
O89 O 0.78355 0.06419 0.74297 0.0
H90 H 0.88065 0.89996 0.67839 0.0
H91 H 0.62425 0.97281 0.72478 0.0
Cu92 Cu 0.14054 0.31126 0.99034 0.0
N93 N 0.08848 0.25758 0.99834 0.0
N94 N 0.036 0.20597 1.01952 0.0
C95 C 0.07566 0.24454 1.01832 0.0
C96 C 1.02408 0.19359 0.99939 0.0
C97 C 0.05639 0.22537 0.98641 0.0
O98 O 0.1961 0.27871 1.00678 0.0
C99 C 0.07667 0.41962 0.99825 0.0
O100 O 0.04238 0.37585 0.9974 0.0
H101 H 0.0955 0.26293 0.03165 0.0
H102 H 0.05606 0.22562 0.96949 0.0
N103 N 0.157 0.30362 0.96164 0.0
N104 N 0.20142 0.29812 0.93197 0.0
C105 C 0.2022 0.29656 0.95321 0.0
C106 C 0.12672 0.31035 0.94516 0.0
C107 C 0.15384 0.30702 0.92694 0.0
C108 C 0.20614 0.21896 1.00511 0.0
O109 O 0.18088 0.18464 0.99172 0.0
H110 H 0.23519 0.2929 0.96253 0.0
H111 H 0.0877 0.3187 0.94632 0.0
O112 O 0.1215 0.40214 0.99598 0.0
H113 H 0.99328 0.165 0.99435 0.0
H114 H 0.13962 0.31123 0.91117 0.0
Cu115 Cu 0.30615 1.00904 0.10385 0.0
N116 N 0.35483 0.05499 0.11844 0.0
N117 N 0.43179 0.08143 0.1273 0.0
C118 C 0.40298 0.04347 0.11547 0.0
C119 C 0.40024 0.11878 0.13816 0.0
C120 C 0.35278 0.10229 0.13269 0.0
O121 O 0.31089 0.92041 0.11468 0.0
C122 C 0.31714 0.09089 0.07055 0.0
O123 O 0.32223 0.12892 0.08672 0.0
H124 H 0.41658 1.00742 0.10478 0.0
H125 H 0.31932 0.12369 0.1385 0.0
N126 N 0.23936 1.0305 0.10687 0.0
N127 N 0.16324 1.01591 0.09418 0.0
C128 C 0.21033 1.02914 0.08973 0.0
C129 C 0.20881 1.01889 0.12299 0.0
C130 C 0.16189 1.00996 0.11521 0.0
C131 C 0.31156 0.91655 0.13474 0.0
O132 O 0.31056 0.97004 0.14548 0.0
H133 H 0.22445 1.0277 0.07398 0.0
H134 H 0.22041 1.00956 0.13888 0.0
O135 O 0.3155 1.03032 0.07401 0.0
H136 H 0.41053 0.15658 0.14883 0.0
H137 H 0.13037 0.99452 0.12413 0.0
Cu138 Cu 0.94943 0.79887 0.99811 0.0
N139 N 1.00123 0.85424 1.00542 0.0
N140 N 0.05025 0.91329 1.02607 0.0
C141 C 1.01305 0.87057 1.02526 0.0
C142 C 0.06183 0.92456 1.00584 0.0
C143 C 0.03167 0.88832 0.9932 0.0
O144 O 0.89438 0.8308 1.01485 0.0
C145 C 1.01158 0.68909 0.99659 0.0
O146 O 0.03926 0.72974 0.9863 0.0
H147 H 0.99355 0.85264 0.03877 0.0
H148 H 0.03179 0.88757 0.9763 0.0
N149 N 0.92821 0.80564 0.97 0.0
N150 N 0.87587 0.80969 0.94271 0.0
C151 C 0.88109 0.80133 0.96366 0.0
C152 C 0.95406 0.81568 0.95239 0.0
C153 C 0.92203 0.81832 0.93563 0.0
C154 C 0.88171 0.88872 1.01092 0.0
O155 O 0.90515 0.91962 0.99607 0.0
H156 H 0.85147 0.79109 0.97435 0.0
H157 H 0.99339 0.82064 0.9517 0.0
O158 O 0.97026 0.70912 1.00357 0.0
H159 H 0.09046 0.95636 1.00049 0.0
H160 H 0.93205 0.827 0.91949 0.0
Cu161 Cu 0.76363 0.14269 0.09299 0.0
N162 N 0.71842 0.10624 0.11166 0.0
N163 N 0.64343 0.08632 0.1245 0.0
C164 C 0.66972 0.10886 0.10819 0.0
C165 C 0.67723 0.06823 0.13885 0.0
C166 C 0.72348 0.08089 0.13092 0.0
O167 O 0.74913 0.23478 0.09547 0.0
C168 C 0.75984 1.03766 0.06752 0.0
O169 O 0.75675 1.01173 0.08621 0.0
H170 H 0.65382 0.1293 0.09415 0.0
H171 H 0.7581 0.07344 0.1388 0.0
N172 N 0.83072 0.12958 0.09795 0.0
N173 N 0.90865 0.1345 0.08698 0.0
C174 C 0.86151 0.12662 0.0815 0.0
C175 C 0.85964 0.13869 0.11476 0.0
C176 C 0.90792 0.14209 0.10798 0.0
C177 C 0.78067 0.27666 0.10097 0.0
O178 O 0.82723 0.26493 0.0976 0.0
H179 H 0.84912 0.12611 0.06542 0.0
H180 H 0.84642 0.14837 0.1304 0.0
O181 O 0.75639 0.09875 0.06609 0.0
H182 H 0.6693 0.04723 0.15396 0.0
H183 H 0.93945 0.15344 0.11753 0.0
Cu184 Cu 0.6227 0.79289 0.83742 0.0
N185 N 0.56046 0.83037 0.83412 0.0
N186 N 0.49013 0.85646 0.81817 0.0
C187 C 0.53883 0.84741 0.8159 0.0
C188 C 0.48084 0.84574 0.83859 0.0
C189 C 0.52421 0.82972 0.84838 0.0
O190 O 0.66636 0.8298 0.81637 0.0
C191 C 0.58503 0.67771 0.82005 0.0
O192 O 0.57213 0.71678 0.80488 0.0
H193 H 0.55746 0.84698 0.80095 0.0
H194 H 0.52837 0.81363 0.86439 0.0
N195 N 0.64944 0.81365 0.86383 0.0
N196 N 0.70145 0.82331 0.89104 0.0
C197 C 0.69041 0.79074 0.87326 0.0
C198 C 0.63461 0.86274 0.87586 0.0
C199 C 0.66637 0.86893 0.89247 0.0
C200 C 0.66964 0.89076 0.81499 0.0
O201 O 0.64213 0.92646 0.82718 0.0
H202 H 0.71237 0.75215 0.86691 0.0
H203 H 0.60416 0.89412 0.87223 0.0
O204 O 0.61159 0.69962 0.83489 0.0
H205 H 0.44477 0.84534 0.84562 0.0
H206 H 0.66507 0.90677 0.90399 0.0
Cu207 Cu 0.74757 0.4876 0.21319 0.0
N208 N 0.68201 0.47116 0.2202 0.0
N209 N 0.60029 0.46536 0.21775 0.0
C210 C 0.64156 0.49268 0.21021 0.0
C211 C 0.61548 0.42533 0.23307 0.0
C212 C 0.66578 0.42913 0.23458 0.0
O213 O 0.75636 0.47216 0.18289 0.0
C214 C 0.80856 0.5946 0.22312 0.0
O215 O 0.84216 0.56163 0.21306 0.0
H216 H 0.64271 0.52504 0.19696 0.0
H217 H 0.68909 0.40156 0.24495 0.0
N218 N 0.78886 0.42913 0.22684 0.0
N219 N 0.84536 0.38835 0.24864 0.0
C220 C 0.81331 0.43683 0.24502 0.0
C221 C 0.8061 0.37427 0.21865 0.0
C222 C 0.84094 0.34921 0.23194 0.0
C223 C 0.73259 0.42599 0.17456 0.0
O224 O 0.70155 0.39389 0.1862 0.0
H225 H 0.80877 0.47818 0.25503 0.0
H226 H 0.79594 0.35546 0.20351 0.0
O227 O 0.76495 0.57304 0.22371 0.0
H228 H 0.5919 0.39492 0.24236 0.0
H229 H 0.86324 0.3074 0.2288 0.0
Cu230 Cu 0.43885 0.31188 0.8188 0.0
N231 N 0.48887 0.25292 0.81229 0.0
N232 N 0.53662 0.19001 0.79232 0.0
C233 C 0.50231 0.23697 0.79264 0.0
C234 C 0.5447 0.17559 0.81265 0.0
C235 C 0.51526 0.21426 0.8249 0.0
O236 O 0.38952 0.29298 0.79749 0.0
C237 C 0.50502 0.41637 0.82475 0.0
O238 O 0.52913 0.37361 0.83585 0.0
H239 H 0.48566 0.25792 0.77885 0.0
H240 H 0.5127 0.21311 0.84176 0.0
N241 N 0.41453 0.30032 0.84646 0.0
N242 N 0.36625 0.29183 0.87498 0.0
C243 C 0.36789 0.29856 0.85381 0.0
C244 C 0.44288 0.29594 0.86364 0.0
C245 C 0.41356 0.29073 0.88107 0.0
C246 C 0.36731 0.23942 0.79842 0.0
O247 O 0.37325 0.2033 0.8151 0.0
H248 H 0.33586 0.30233 0.84389 0.0
H249 H 0.4824 0.298 0.8636 0.0
O250 O 0.46504 0.39955 0.81591 0.0
H251 H 0.57011 0.13955 0.8183 0.0
H252 H 0.42627 0.28866 0.8971 0.0
Cu253 Cu 0.27468 0.58614 0.2126 0.0
N254 N 0.32191 0.5347 0.19951 0.0
N255 N 0.39824 0.49808 0.1948 0.0
C256 C 0.36975 0.54337 0.20362 0.0
C257 C 0.36693 0.45881 0.18471 0.0
C258 C 0.31968 0.48194 0.18747 0.0
O259 O 0.28748 0.67278 0.20187 0.0
C260 C 0.27879 0.50675 0.24716 0.0
O261 O 0.28731 0.46618 0.23194 0.0
H262 H 0.38303 0.58026 0.21404 0.0
H263 H 0.28616 0.46021 0.18199 0.0
N264 N 0.20824 0.57085 0.20811 0.0
N265 N 0.13738 0.58601 0.22536 0.0
C266 C 0.17789 0.61345 0.21727 0.0
C267 C 0.18503 0.51422 0.20968 0.0
C268 C 0.14122 0.52353 0.2202 0.0
C269 C 0.28283 0.67813 0.18198 0.0
O270 O 0.26887 0.62742 0.17142 0.0
H271 H 0.18971 0.66129 0.22133 0.0
H272 H 0.20216 0.46828 0.20681 0.0
O273 O 0.27762 0.56673 0.24276 0.0
H274 H 0.37732 0.41564 0.17645 0.0
H275 H 0.11797 0.48595 0.22628 0.0
Cu276 Cu 0.63185 0.80189 0.49248 0.0
N277 N 0.58 0.74784 0.50069 0.0
N278 N 0.52823 0.69369 0.52155 0.0
C279 C 0.56671 0.73436 0.52061 0.0
C280 C 0.51673 0.68185 0.50134 0.0
C281 C 0.54881 0.71471 0.48859 0.0
O282 O 0.68816 0.77062 0.50868 0.0
C283 C 0.56734 0.90974 0.49666 0.0
O284 O 0.53473 0.86687 0.49118 0.0
H285 H 0.58512 0.75394 0.53415 0.0
H286 H 0.54888 0.71496 0.47168 0.0
N287 N 0.64758 0.79446 0.46367 0.0
N288 N 0.69067 0.78952 0.43361 0.0
C289 C 0.69262 0.79046 0.45485 0.0
C290 C 0.61626 0.79713 0.44743 0.0
C291 C 0.64252 0.79396 0.42899 0.0
C292 C 0.69944 0.71131 0.5069 0.0
O293 O 0.67453 0.67619 0.49361 0.0
H294 H 0.72623 0.789 0.46383 0.0
H295 H 0.57705 0.80305 0.44887 0.0
O296 O 0.61223 0.89209 0.4983 0.0
H297 H 0.4863 0.65318 0.496 0.0
H298 H 0.62732 0.79746 0.41338 0.0
Cu299 Cu 0.80447 0.50039 0.60418 0.0
N300 N 0.85149 0.54758 0.61935 0.0
N301 N 0.92754 0.57538 0.62916 0.0
C302 C 0.89996 0.53768 0.61673 0.0
C303 C 0.89486 0.61094 0.64005 0.0
C304 C 0.84795 0.59363 0.63399 0.0
O305 O 0.81324 0.41096 0.61371 0.0
C306 C 0.81585 0.58524 0.57116 0.0
O307 O 0.82345 0.62261 0.58731 0.0
H308 H 0.91468 0.50267 0.60594 0.0
H309 H 0.81387 0.61336 0.63975 0.0
N310 N 0.7367 0.51552 0.60795 0.0
N311 N 0.66399 0.49274 0.59269 0.0
C312 C 0.70804 0.52174 0.59076 0.0
C313 C 0.70817 0.48441 0.62182 0.0
C314 C 0.66374 0.47035 0.61253 0.0
C315 C 0.81543 0.40398 0.63366 0.0
O316 O 0.81512 0.45567 0.64533 0.0
H317 H 0.72173 0.53942 0.57607 0.0
H318 H 0.72106 0.46409 0.63639 0.0
O319 O 0.81285 0.52471 0.5745 0.0
H320 H 0.90401 0.64785 0.65123 0.0
H321 H 0.63653 0.43852 0.61905 0.0
Cu322 Cu 0.44126 0.28876 0.49715 0.0
N323 N 0.49302 0.34457 0.50409 0.0
N324 N 0.5457 0.40096 0.52379 0.0
C325 C 0.51224 0.35328 0.52341 0.0
C326 C 0.54778 0.4227 0.50389 0.0
C327 C 0.51507 0.38837 0.49187 0.0
O328 O 0.38489 0.32387 0.5121 0.0
C329 C 0.50379 0.17951 0.49839 0.0
O330 O 0.53446 0.22107 0.49029 0.0
H331 H 0.5019 0.32511 0.53692 0.0
H332 H 0.5071 0.39601 0.47548 0.0
N333 N 0.42139 0.29353 0.46891 0.0
N334 N 0.36954 0.29601 0.44147 0.0
C335 C 0.37434 0.28971 0.4625 0.0
C336 C 0.44768 0.30134 0.4513 0.0
C337 C 0.41589 0.3029 0.43441 0.0
C338 C 0.37879 0.3246 0.53179 0.0
O339 O 0.40852 0.29109 0.54376 0.0
H340 H 0.34438 0.28136 0.4732 0.0
H341 H 0.48709 0.30593 0.45075 0.0
O342 O 0.46074 0.19902 0.5033 0.0
H343 H 0.57045 0.46186 0.49852 0.0
H344 H 0.42614 0.3099 0.4182 0.0
Cu345 Cu 0.26496 0.62159 0.59916 0.0
N346 N 0.21609 0.59218 0.61786 0.0
N347 N 0.1393 0.57769 0.62955 0.0
C348 C 0.16788 0.60013 0.61393 0.0
C349 C 0.171 0.55412 0.64392 0.0
C350 C 0.21834 0.56318 0.63669 0.0
O351 O 0.25951 0.71584 0.59967 0.0
C352 C 0.26119 0.50907 0.57814 0.0
O353 O 0.25531 0.49236 0.59779 0.0
H354 H 0.15404 0.62293 0.59987 0.0
H355 H 0.2519 0.54971 0.64458 0.0
N356 N 0.33209 0.60855 0.60457 0.0
N357 N 0.40836 0.61967 0.59162 0.0
C358 C 0.36193 0.60118 0.58788 0.0
C359 C 0.36119 0.63222 0.61972 0.0
C360 C 0.40817 0.63911 0.61177 0.0
C361 C 0.25906 0.73726 0.61846 0.0
O362 O 0.2596 0.69633 0.63404 0.0
H363 H 0.34829 0.59196 0.5723 0.0
H364 H 0.34839 0.65049 0.63456 0.0
O365 O 0.25885 0.56898 0.5737 0.0
H366 H 0.16085 0.53082 0.65842 0.0
H367 H 0.43857 0.66196 0.61961 0.0
C368 C 0.19516 0.48478 0.29414 0.0
C369 C 0.20056 0.41888 0.29879 0.0
C370 C 0.22339 0.51477 0.27854 0.0
C371 C 0.25828 0.48016 0.26696 0.0
H372 H 0.16758 0.51319 0.30206 0.0
H373 H 0.21598 0.56445 0.27481 0.0
S374 S 0.29211 0.30917 0.27514 0.0
N375 N 0.24734 0.32197 0.29198 0.0
N376 N 0.30054 0.37802 0.26292 0.0
C377 C 0.26625 0.41533 0.27242 0.0
C378 C 0.23733 0.38476 0.28819 0.0
C379 C 0.45571 0.91172 0.78713 0.0
C380 C 0.45448 0.86087 0.80158 0.0
C381 C 0.42068 0.91651 0.771 0.0
C382 C 0.38413 0.86965 0.76848 0.0
H383 H 0.48359 0.94823 0.78849 0.0
H384 H 0.42264 0.95648 0.7602 0.0
S385 S 0.36627 0.72643 0.80206 0.0
N386 N 0.41432 0.76264 0.81227 0.0
N387 N 0.34905 0.77102 0.78195 0.0
C388 C 0.38302 0.81832 0.78276 0.0
C389 C 0.41805 0.81409 0.79931 0.0
C390 C 0.79897 0.66517 0.25492 0.0
C391 C 0.82317 0.65116 0.23597 0.0
C392 C 0.81644 0.71283 0.26863 0.0
C393 C 0.85817 0.74953 0.26376 0.0
H394 H 0.76756 0.63717 0.25967 0.0
H395 H 0.79767 0.72002 0.28337 0.0
S396 S 0.93296 0.73433 0.21537 0.0
N397 N 0.88987 0.67973 0.2127 0.0
N398 N 0.92199 0.76962 0.23798 0.0
C399 C 0.88139 0.73766 0.2444 0.0
C400 C 0.86413 0.68847 0.23068 0.0
C401 C 0.57327 0.09501 0.77491 0.0
C402 C 0.55936 0.16013 0.77427 0.0
C403 C 0.59801 0.06594 0.7581 0.0
C404 C 0.61024 0.10086 0.73995 0.0
H405 H 0.56545 0.06634 0.78863 0.0
H406 H 0.60946 1.01648 0.75974 0.0
S407 S 0.58057 0.27168 0.72983 0.0
N408 N 0.55881 0.25801 0.75352 0.0
N409 N 0.60435 0.20305 0.72193 0.0
C410 C 0.59518 0.1653 0.73881 0.0
C411 C 0.56998 0.19496 0.75591 0.0
C412 C 0.26761 0.08662 0.03723 0.0
C413 C 0.29881 0.12058 0.05072 0.0
C414 C 0.23941 0.11865 1.02196 0.0
C415 C 0.24128 0.18594 1.0195 0.0
H416 H 0.2625 1.03558 0.03929 0.0
H417 H 0.21416 0.09054 1.01272 0.0
S418 S 0.32443 0.29534 0.04801 0.0
N419 N 0.33534 0.22419 0.05839 0.0
N420 N 0.28212 0.28385 1.02995 0.0
C421 C 0.27523 0.21962 0.03172 0.0
C422 C 0.30414 0.18706 0.04716 0.0
C423 C 0.12121 1.02835 0.06012 0.0
C424 C 0.12813 0.99375 0.07883 0.0
C425 C 0.09425 1.00284 0.04333 0.0
C426 C 0.07355 0.94107 0.04438 0.0
H427 H 0.13805 0.07492 0.05827 0.0
H428 H 0.09042 1.03136 1.02925 0.0
S429 S 0.08235 0.83002 0.08979 0.0
N430 N 0.11213 0.89454 0.09744 0.0
N431 N 0.06244 0.84597 0.06593 0.0
C432 C 0.07932 0.90654 0.06324 0.0
C433 C 0.10639 0.93293 0.08041 0.0
C434 C 0.84004 0.9912 1.02142 0.0
C435 C 0.8446 0.92405 1.02365 0.0
C436 C 0.80934 1.02748 0.03451 0.0
C437 C 0.78184 0.99826 0.05045 0.0
H438 H 0.86191 1.01669 1.01 0.0
H439 H 0.80942 0.07913 0.03284 0.0
S440 S 0.77409 0.82307 0.06064 0.0
N441 N 0.81428 0.82928 0.04146 0.0
N442 N 0.75646 0.89701 0.06597 0.0
C443 C 0.7833 0.9307 0.05185 0.0
C444 C 0.81472 0.89378 0.03854 0.0
C445 C 0.95328 0.10848 0.05451 0.0
C446 C 0.94755 0.14759 0.07226 0.0
C447 C 0.98389 0.12647 0.03783 0.0
C448 C 1.0096 0.18493 0.03802 0.0
H449 H 0.93251 0.06454 0.05324 0.0
H450 H 0.98644 0.095 1.02443 0.0
S451 S 1.0066 0.30482 0.08095 0.0
N452 N 0.97059 0.24672 0.08925 0.0
N453 N 1.02715 0.28162 0.05787 0.0
C454 C 1.00531 0.22357 0.05604 0.0
C455 C 0.97451 0.2047 0.07313 0.0
C456 C 0.69427 0.9856 0.79304 0.0
C457 C 0.70319 0.92206 0.79972 0.0
C458 C 0.72352 1.01498 0.77764 0.0
C459 C 0.76315 0.98212 0.76851 0.0
H460 H 0.66318 1.01206 0.79909 0.0
H461 H 0.71321 0.06215 0.77202 0.0
S462 S 0.80657 0.81882 0.78278 0.0
N463 N 0.75764 0.83006 0.7975 0.0
N464 N 0.81289 0.8852 0.76896 0.0
C465 C 0.77429 0.92023 0.77608 0.0
C466 C 0.74426 0.89017 0.79153 0.0
C467 C 0.93581 0.43355 0.29083 0.0
C468 C 0.95378 0.37371 0.29745 0.0
C469 C 0.9001 0.4381 0.27502 0.0
C470 C 0.88057 0.38282 0.26552 0.0
H471 H 0.95022 0.47701 0.29767 0.0
H472 H 0.88851 0.48528 0.26995 0.0
S473 S 0.91204 0.21463 0.27948 0.0
N474 N 0.94791 0.25839 0.29451 0.0
N475 N 0.87948 0.26609 0.26553 0.0
C476 C 0.89736 0.32262 0.27266 0.0
C477 C 0.93426 0.31827 0.28844 0.0
C478 C 0.35202 0.17697 0.74304 0.0
C479 C 0.31253 0.13403 0.74497 0.0
C480 C 0.36713 0.21528 0.75996 0.0
C481 C 0.34403 0.211 0.7796 0.0
H482 H 0.37256 0.17935 0.72856 0.0
H483 H 0.3991 0.24527 0.75801 0.0
S484 S 0.23701 0.10989 0.7927 0.0
N485 N 0.24855 0.09339 0.76793 0.0
N486 N 0.27806 0.16363 0.79969 0.0
C487 C 0.30331 0.17053 0.7815 0.0
C488 C 0.28723 0.13259 0.7642 0.0
C489 C 0.10659 0.67029 0.27583 0.0
C490 C 0.05573 0.66228 0.27749 0.0
C491 C 0.13262 0.6462 0.25863 0.0
C492 C 0.10907 0.6118 0.24256 0.0
H493 H 0.12625 0.69638 0.28779 0.0
H494 H 0.17176 0.65385 0.25809 0.0
S495 S 0.97655 0.57468 0.24018 0.0
N496 N 0.98263 0.61653 0.26196 0.0
N497 N 0.03193 0.56937 0.22986 0.0
C498 C 0.05828 0.6023 0.24426 0.0
C499 C 0.03152 0.62813 0.26162 0.0
C500 C 0.76642 0.58084 0.53781 0.0
C501 C 0.796 0.61576 0.55169 0.0
C502 C 0.73693 0.61209 0.52283 0.0
C503 C 0.73593 0.67959 0.521 0.0
H504 H 0.76371 0.52932 0.53931 0.0
H505 H 0.713 0.58297 0.51328 0.0
S506 S 0.81445 0.79231 0.55053 0.0
N507 N 0.82824 0.72119 0.56029 0.0
N508 N 0.77271 0.77933 0.53235 0.0
C509 C 0.76845 0.71458 0.53354 0.0
C510 C 0.79862 0.68283 0.54873 0.0
C511 C 0.65173 0.46506 0.55512 0.0
C512 C 0.63247 0.47249 0.57551 0.0
C513 C 0.62313 0.44224 0.53849 0.0
C514 C 0.57408 0.42419 0.54139 0.0
H515 H 0.68971 0.47517 0.55189 0.0
H516 H 0.64002 0.43717 0.52325 0.0
S517 S 0.5042 0.43742 0.59102 0.0
N518 N 0.55946 0.46343 0.59709 0.0
N519 N 0.50667 0.41715 0.56608 0.0
C520 C 0.55399 0.43129 0.56157 0.0
C521 C 0.58286 0.45616 0.5785 0.0
C522 C 0.29486 0.39914 0.57224 0.0
C523 C 0.28354 0.46026 0.56389 0.0
C524 C 0.32406 0.35504 0.56142 0.0
C525 C 0.34228 0.36881 0.54142 0.0
H526 H 0.28312 0.38582 0.58783 0.0
H527 H 0.33339 0.31022 0.56906 0.0
S528 S 0.31857 0.5179 0.51105 0.0
N529 N 0.29012 0.52996 0.53352 0.0
N530 N 0.34312 0.44557 0.51264 0.0
C531 C 0.32842 0.42762 0.53209 0.0
C532 C 0.29955 0.47361 0.54343 0.0
C533 C 0.49891 0.70991 0.55806 0.0
C534 C 0.50275 0.67102 0.5401 0.0
C535 C 0.4703 0.6914 0.5754 0.0
C536 C 0.44425 0.63324 0.57549 0.0
H537 H 0.51638 0.75635 0.55838 0.0
H538 H 0.46655 0.72441 0.58834 0.0
S539 S 0.4473 0.51009 0.53375 0.0
N540 N 0.48233 0.5681 0.5247 0.0
N541 N 0.42791 0.53435 0.55688 0.0
C542 C 0.44987 0.5925 0.55812 0.0
C543 C 0.47919 0.61108 0.54057 0.0
C544 C 0.32459 0.27588 0.40813 0.0
C545 C 0.32472 0.29724 0.4291 0.0
C546 C 0.28211 0.27939 0.39557 0.0
C547 C 0.23791 0.30477 0.40338 0.0
H548 H 0.35774 0.25661 0.40129 0.0
H549 H 0.28437 0.26415 0.37942 0.0
S550 S 0.21742 0.36478 0.45737 0.0
N551 N 0.27576 0.34403 0.45701 0.0
N552 N 0.19619 0.34797 0.43385 0.0
C553 C 0.23711 0.32439 0.42448 0.0
C554 C 0.28029 0.32127 0.4372 0.0
C555 C 0.31264 0.82626 0.62906 0.0
C556 C 0.26513 0.80529 0.62415 0.0
C557 C 0.32057 0.87411 0.64416 0.0
C558 C 0.28124 0.90283 0.655 0.0
H559 H 0.34409 0.80065 0.62292 0.0
H560 H 0.35797 0.88473 0.64857 0.0
S561 S 0.14927 0.87158 0.64519 0.0
N562 N 0.1782 0.82183 0.62935 0.0
N563 N 0.19242 0.91266 0.65725 0.0
C564 C 0.23336 0.88719 0.64844 0.0
C565 C 0.2255 0.83811 0.63316 0.0
C566 C 0.77481 0.82229 0.42349 0.0
C567 C 0.73133 0.78919 0.41891 0.0
C568 C 0.81413 0.824 0.40924 0.0
C569 C 0.81212 0.79234 0.38973 0.0
H570 H 0.7782 0.84811 0.43808 0.0
H571 H 0.84631 0.85105 0.41353 0.0
S572 S 0.70801 0.69448 0.37078 0.0
N573 N 0.68954 0.72135 0.39376 0.0
N574 N 0.76334 0.72418 0.36718 0.0
C575 C 0.76898 0.75851 0.38503 0.0
C576 C 0.72878 0.75696 0.39954 0.0
C577 C 0.81172 0.28073 0.67782 0.0
C578 C 0.79885 0.22345 0.66777 0.0
C579 C 0.81858 0.33772 0.66647 0.0
C580 C 0.81287 0.34044 0.64448 0.0
H581 H 0.816 0.28194 0.69467 0.0
H582 H 0.82772 0.38044 0.6752 0.0
S583 S 0.78149 0.20336 0.6103 0.0
N584 N 0.78241 0.17263 0.63413 0.0
N585 N 0.79507 0.27986 0.61305 0.0
C586 C 0.80124 0.28326 0.63412 0.0
C587 C 0.79424 0.22495 0.64567 0.0
C588 C 0.24253 0.33052 0.89877 0.0
C589 C 0.24249 0.29447 0.91752 0.0
C590 C 0.2823 0.32832 0.88468 0.0
C591 C 0.3238 0.28995 0.8887 0.0
H592 H 0.21199 0.36187 0.89516 0.0
H593 H 0.28113 0.35822 0.87082 0.0
S594 S 0.33928 0.17981 0.93404 0.0
N595 N 0.28593 0.21492 0.93825 0.0
N596 N 0.36012 0.21049 0.91194 0.0
C597 C 0.32344 0.25203 0.90702 0.0
C598 C 0.28306 0.2544 0.92136 0.0
C599 C 0.283 0.74244 0.14853 0.0
C600 C 0.29275 0.73898 0.17027 0.0
C601 C 0.29092 0.79885 0.1369 0.0
C602 C 0.30887 0.85453 0.14647 0.0
H603 H 0.26835 0.70138 0.14035 0.0
H604 H 0.2815 0.79928 0.12043 0.0
S605 S 0.34451 0.86983 0.2025 0.0
N606 N 0.32422 0.79572 0.20051 0.0
N607 N 0.33935 0.90126 0.17887 0.0
C608 C 0.32027 0.85118 0.16806 0.0
C609 C 0.31214 0.79373 0.17988 0.0
C610 C 0.83183 0.79276 0.90899 0.0
C611 C 0.83104 0.81042 0.93031 0.0
C612 C 0.78939 0.79541 0.89643 0.0
C613 C 0.74405 0.81598 0.90456 0.0
H614 H 0.86564 0.77677 0.90185 0.0
H615 H 0.7925 0.78277 0.88007 0.0
S616 S 0.72095 0.86496 0.9596 0.0
N617 N 0.78012 0.84891 0.95892 0.0
N618 N 0.70051 0.85063 0.93577 0.0
C619 C 0.74238 0.83211 0.92599 0.0
C620 C 0.78567 0.83005 0.93873 0.0
C621 C 0.71909 0.32714 0.12515 0.0
C622 C 0.76649 0.32726 0.11647 0.0
C623 C 0.70783 0.36299 0.14309 0.0
C624 C 0.74317 0.40123 0.15313 0.0
H625 H 0.69105 0.29604 0.11887 0.0
H626 H 0.67152 0.35821 0.14973 0.0
S627 S 0.87068 0.4264 0.13507 0.0
N628 N 0.84763 0.37528 0.11805 0.0
N629 N 0.8261 0.44248 0.15173 0.0
C630 C 0.78947 0.4062 0.14368 0.0
C631 C 0.80118 0.36931 0.12539 0.0
C632 C 0.05869 0.99878 0.32446 0.0
C633 C 1.00839 0.98318 0.3231 0.0
C634 C 0.0747 0.06205 0.32806 0.0
C635 C 0.04115 0.11262 0.33085 0.0
H636 H 0.08619 0.96152 0.32303 0.0
H637 H 0.11364 0.07096 0.32931 0.0
S638 S 0.90549 0.09904 0.32743 0.0
N639 N 0.92536 1.02516 0.32373 0.0
N640 N 0.95495 0.14308 0.33075 0.0
C641 C 0.99078 0.09805 0.32894 0.0
C642 C 0.97457 1.03382 0.32499 0.0
C643 C 0.97288 0.91024 0.70506 0.0
C644 C 0.95502 0.97168 0.70001 0.0
C645 C 1.02205 0.90068 0.71089 0.0
C646 C 0.05538 0.95202 0.7116 0.0
H647 H 0.94826 0.86971 0.70522 0.0
H648 H 0.03407 0.85278 0.71499 0.0
S649 S 1.02733 0.12169 0.69871 0.0
N650 N 0.97495 0.084 0.69515 0.0
N651 N 0.06694 0.0663 0.70626 0.0
C652 C 0.03822 1.01332 0.70598 0.0
C653 C 0.98818 1.02307 0.70018 0.0
C654 C 0.0914 0.53784 0.99193 0.0
C655 C 0.06174 0.48878 1.00006 0.0
C656 C 0.07512 0.60207 0.9913 0.0
C657 C 0.02852 0.62066 0.99892 0.0
H658 H 0.12687 0.52632 0.98532 0.0
H659 H 0.09922 0.63732 0.98438 0.0
S660 S 0.93857 0.51158 1.02384 0.0
N661 N 0.98461 0.46418 1.01732 0.0
N662 N 0.95447 0.58422 1.01622 0.0
C663 C 0.99934 0.57239 1.00788 0.0
C664 C 1.01579 0.50688 1.00841 0.0
C665 C 0.51084 0.07062 0.10853 0.0
C666 C 0.48495 0.0829 0.12717 0.0
C667 C 0.56227 0.07144 0.10788 0.0
C668 C 0.5904 0.08394 0.12589 0.0
H669 H 0.49113 0.06114 0.09417 0.0
H670 H 0.58024 0.06174 0.09312 0.0
S671 S 0.5409 0.11862 0.17879 0.0
N672 N 0.49172 0.10711 0.16425 0.0
N673 N 0.58821 0.10957 0.16297 0.0
C674 C 0.5651 0.096 0.1447 0.0
C675 C 0.51254 0.09548 0.14534 0.0
C676 C 0.56543 0.5019 0.83517 0.0
C677 C 0.52471 0.48324 0.82298 0.0
C678 C 0.58483 0.5643 0.83411 0.0
C679 C 0.56486 0.61095 0.82062 0.0
H680 H 0.58247 0.46813 0.84584 0.0
H681 H 0.61586 0.57594 0.84394 0.0
S682 S 0.4576 0.58769 0.78549 0.0
N683 N 0.46485 0.51756 0.79709 0.0
N684 N 0.50114 0.63401 0.79493 0.0
C685 C 0.52417 0.59296 0.80828 0.0
C686 C 0.50417 0.52955 0.8095 0.0
C687 C 0.51848 0.42114 0.20944 0.0
C688 C 0.55058 0.4738 0.2104 0.0
C689 C 0.46928 0.42878 0.20338 0.0
C690 C 0.45011 0.48953 0.19835 0.0
H691 H 0.53147 0.37368 0.21355 0.0
H692 H 0.4456 0.38729 0.2034 0.0
S693 S 0.51901 0.64233 0.19754 0.0
N694 N 0.55975 0.58842 0.20516 0.0
N695 N 0.46756 0.6027 0.19375 0.0
C696 C 0.48208 0.54224 0.19873 0.0
C697 C 0.53221 0.5344 0.20472 0.0
C698 C 0.56903 0.09336 0.49713 0.0
C699 C 0.51937 0.1105 0.50021 0.0
C700 C 0.5847 1.02887 0.49686 0.0
C701 C 0.55138 0.9782 0.49941 0.0
H702 H 0.59622 0.13014 0.49451 0.0
H703 H 0.623 1.0187 0.49391 0.0
S704 S 0.4179 0.99626 0.50966 0.0
N705 N 0.43756 0.07058 0.50718 0.0
N706 N 0.46654 0.95006 0.50652 0.0
C707 C 0.50188 0.99463 0.50323 0.0
C708 C 0.48604 0.06036 0.50369 0.0
C709 C 1.00795 0.56742 0.61132 0.0
C710 C 0.98067 0.5775 0.62975 0.0
C711 C 0.05942 0.56777 0.61142 0.0
C712 C 0.08616 0.57747 0.63 0.0
H713 H 0.98931 0.55973 0.59659 0.0
H714 H 0.07849 0.55948 0.59683 0.0
S715 S 0.03275 0.60659 0.68255 0.0
N716 N 0.98465 0.59747 0.66717 0.0
N717 N 0.08124 0.59878 0.66731 0.0
C718 C 0.05946 0.58776 0.64856 0.0
C719 C 1.00688 0.58783 0.64844 0.0
loop_
_geom_bond_atom_site_label_1
_geom_bond_atom_site_label_2
_geom_bond_distance
_geom_bond_site_symmetry_2
_ccdc_geom_bond_type
Cu0 N1 1.999 . S
Cu0 O6 1.974 . S
Cu0 N11 1.985 . S
Cu0 O20 1.959 . S
N1 Cu0 1.999 . S
N1 C3 1.263 . S
N1 C5 1.389 1_455 S
N2 C3 1.358 1_655 S
N2 C4 1.400 . S
C3 N1 1.263 . S
C3 N2 1.358 1_455 S
C3 H9 0.930 . S
C4 N2 1.400 . S
C4 C5 1.351 . S
C4 H21 0.930 . S
C5 N1 1.389 1_655 S
C5 C4 1.351 . S
C5 H10 0.930 . S
O6 Cu0 1.974 . S
O6 C16 1.282 . S
C7 O8 1.261 . S
C7 O20 1.251 . S
O8 C7 1.261 . S
H9 C3 0.930 . S
H10 C5 0.930 . S
N11 Cu0 1.985 . S
N11 C13 1.335 . S
N11 C14 1.390 . S
N12 C13 1.345 . S
N12 C15 1.336 . S
C13 N11 1.335 . S
C13 N12 1.345 . S
C13 H18 0.930 . S
C14 N11 1.390 . S
C14 C15 1.346 . S
C14 H19 0.930 . S
C15 N12 1.336 . S
C15 C14 1.346 . S
C15 H22 0.929 . S
C16 O6 1.282 . S
C16 O17 1.216 . S
O17 C16 1.216 . S
H18 C13 0.930 . S
H19 C14 0.930 . S
O20 Cu0 1.959 . S
O20 C7 1.251 . S
H21 C4 0.930 . S
H22 C15 0.929 . S
Cu23 N24 1.999 . S
Cu23 O29 1.974 . S
Cu23 N34 1.985 . S
Cu23 O43 1.959 . S
N24 Cu23 1.999 . S
N24 C26 1.263 . S
N24 C28 1.389 . S
N25 C26 1.358 . S
N25 C27 1.400 1_565 S
C26 N24 1.263 . S
C26 N25 1.358 . S
C26 H32 0.930 . S
C27 N25 1.400 1_545 S
C27 C28 1.351 1_545 S
C27 H44 0.930 . S
C28 N24 1.389 . S
C28 C27 1.351 1_565 S
C28 H33 0.929 1_565 S
O29 Cu23 1.974 . S
O29 C39 1.282 . S
C30 O31 1.261 . S
C30 O43 1.251 1_545 S
O31 C30 1.261 . S
H32 C26 0.930 . S
H33 C28 0.929 1_545 S
N34 Cu23 1.985 . S
N34 C36 1.335 . S
N34 C37 1.390 . S
N35 C36 1.345 . S
N35 C38 1.336 . S
C36 N34 1.335 . S
C36 N35 1.345 . S
C36 H41 0.930 . S
C37 N34 1.390 . S
C37 C38 1.346 . S
C37 H42 0.930 . S
C38 N35 1.336 . S
C38 C37 1.346 . S
C38 H45 0.929 . S
C39 O29 1.282 . S
C39 O40 1.216 . S
O40 C39 1.216 . S
H41 C36 0.930 . S
H42 C37 0.930 . S
O43 Cu23 1.959 . S
O43 C30 1.251 1_565 S
H44 C27 0.930 . S
H45 C38 0.929 . S
Cu46 N47 1.999 . S
Cu46 O52 1.974 . S
Cu46 N57 1.985 . S
Cu46 O66 1.959 . S
N47 Cu46 1.999 . S
N47 C49 1.263 . S
N47 C51 1.389 1_655 S
N48 C49 1.358 1_455 S
N48 C50 1.400 . S
C49 N47 1.263 . S
C49 N48 1.358 1_655 S
C49 H55 0.930 . S
C50 N48 1.400 . S
C50 C51 1.351 . S
C50 H67 0.930 . S
C51 N47 1.389 1_455 S
C51 C50 1.351 . S
C51 H56 0.930 . S
O52 Cu46 1.974 . S
O52 C62 1.282 . S
C53 O54 1.261 . S
C53 O66 1.251 . S
O54 C53 1.261 . S
H55 C49 0.930 . S
H56 C51 0.930 . S
N57 Cu46 1.985 . S
N57 C59 1.335 . S
N57 C60 1.390 . S
N58 C59 1.345 . S
N58 C61 1.336 . S
C59 N57 1.335 . S
C59 N58 1.345 . S
C59 H64 0.930 . S
C60 N57 1.390 . S
C60 C61 1.346 . S
C60 H65 0.930 . S
C61 N58 1.336 . S
C61 C60 1.346 . S
C61 H68 0.929 . S
C62 O52 1.282 . S
C62 O63 1.216 . S
O63 C62 1.216 . S
H64 C59 0.930 . S
H65 C60 0.930 . S
O66 Cu46 1.959 . S
O66 C53 1.251 . S
H67 C50 0.930 . S
H68 C61 0.929 . S
Cu69 N70 1.999 . S
Cu69 O75 1.974 . S
Cu69 N80 1.985 . S
Cu69 O89 1.959 . S
N70 Cu69 1.999 . S
N70 C72 1.263 . S
N70 C74 1.389 . S
N71 C72 1.358 . S
N71 C73 1.400 1_545 S
C72 N70 1.263 . S
C72 N71 1.358 . S
C72 H78 0.930 . S
C73 N71 1.400 1_565 S
C73 C74 1.351 1_565 S
C73 H90 0.930 . S
C74 N70 1.389 . S
C74 C73 1.351 1_545 S
C74 H79 0.929 1_545 S
O75 Cu69 1.974 . S
O75 C85 1.282 . S
C76 O77 1.261 . S
C76 O89 1.251 1_565 S
O77 C76 1.261 . S
H78 C72 0.930 . S
H79 C74 0.929 1_565 S
N80 Cu69 1.985 . S
N80 C82 1.335 . S
N80 C83 1.390 . S
N81 C82 1.345 . S
N81 C84 1.336 . S
C82 N80 1.335 . S
C82 N81 1.345 . S
C82 H87 0.930 . S
C83 N80 1.390 . S
C83 C84 1.346 . S
C83 H88 0.930 . S
C84 N81 1.336 . S
C84 C83 1.346 . S
C84 H91 0.929 . S
C85 O75 1.282 . S
C85 O86 1.216 . S
O86 C85 1.216 . S
H87 C82 0.930 . S
H88 C83 0.930 . S
O89 Cu69 1.959 . S
O89 C76 1.251 1_545 S
H90 C73 0.930 . S
H91 C84 0.929 . S
Cu92 N93 1.999 . S
Cu92 O98 1.974 . S
Cu92 N103 1.985 . S
Cu92 O112 1.959 . S
N93 Cu92 1.999 . S
N93 C95 1.263 . S
N93 C97 1.389 1_455 S
N94 C95 1.358 1_655 S
N94 C96 1.400 . S
C95 N93 1.263 . S
C95 N94 1.358 1_455 S
C95 H101 0.930 . S
C96 N94 1.400 . S
C96 C97 1.351 . S
C96 H113 0.930 . S
C97 N93 1.389 1_655 S
C97 C96 1.351 . S
C97 H102 0.930 . S
O98 Cu92 1.974 . S
O98 C108 1.282 . S
C99 O100 1.261 . S
C99 O112 1.251 . S
O100 C99 1.261 . S
H101 C95 0.930 . S
H102 C97 0.930 . S
N103 Cu92 1.985 . S
N103 C105 1.335 . S
N103 C106 1.390 . S
N104 C105 1.345 . S
N104 C107 1.336 . S
C105 N103 1.335 . S
C105 N104 1.345 . S
C105 H110 0.930 . S
C106 N103 1.390 . S
C106 C107 1.346 . S
C106 H111 0.930 . S
C107 N104 1.336 . S
C107 C106 1.346 . S
C107 H114 0.929 . S
C108 O98 1.282 . S
C108 O109 1.216 . S
O109 C108 1.216 . S
H110 C105 0.930 . S
H111 C106 0.930 . S
O112 Cu92 1.959 . S
O112 C99 1.251 . S
H113 C96 0.930 . S
H114 C107 0.929 . S
Cu115 N116 1.999 . S
Cu115 O121 1.974 . S
Cu115 N126 1.985 . S
Cu115 O135 1.959 . S
N116 Cu115 1.999 . S
N116 C118 1.263 . S
N116 C120 1.389 . S
N117 C118 1.358 . S
N117 C119 1.400 1_565 S
C118 N116 1.263 . S
C118 N117 1.358 . S
C118 H124 0.930 . S
C119 N117 1.400 1_545 S
C119 C120 1.351 1_545 S
C119 H136 0.930 . S
C120 N116 1.389 . S
C120 C119 1.351 1_565 S
C120 H125 0.929 1_565 S
O121 Cu115 1.974 . S
O121 C131 1.282 . S
C122 O123 1.261 . S
C122 O135 1.251 1_545 S
O123 C122 1.261 . S
H124 C118 0.930 . S
H125 C120 0.929 1_545 S
N126 Cu115 1.985 . S
N126 C128 1.335 . S
N126 C129 1.390 . S
N127 C128 1.345 . S
N127 C130 1.336 . S
C128 N126 1.335 . S
C128 N127 1.345 . S
C128 H133 0.930 . S
C129 N126 1.390 . S
C129 C130 1.346 . S
C129 H134 0.930 . S
C130 N127 1.336 . S
C130 C129 1.346 . S
C130 H137 0.929 . S
C131 O121 1.282 . S
C131 O132 1.216 . S
O132 C131 1.216 . S
H133 C128 0.930 . S
H134 C129 0.930 . S
O135 Cu115 1.959 . S
O135 C122 1.251 1_565 S
H136 C119 0.930 . S
H137 C130 0.929 . S
Cu138 N139 1.999 . S
Cu138 O144 1.974 . S
Cu138 N149 1.985 . S
Cu138 O158 1.959 . S
N139 Cu138 1.999 . S
N139 C141 1.263 . S
N139 C143 1.389 1_655 S
N140 C141 1.358 1_455 S
N140 C142 1.400 . S
C141 N139 1.263 . S
C141 N140 1.358 1_655 S
C141 H147 0.930 . S
C142 N140 1.400 . S
C142 C143 1.351 . S
C142 H159 0.930 . S
C143 N139 1.389 1_455 S
C143 C142 1.351 . S
C143 H148 0.930 . S
O144 Cu138 1.974 . S
O144 C154 1.282 . S
C145 O146 1.261 . S
C145 O158 1.251 . S
O146 C145 1.261 . S
H147 C141 0.930 . S
H148 C143 0.930 . S
N149 Cu138 1.985 . S
N149 C151 1.335 . S
N149 C152 1.390 . S
N150 C151 1.345 . S
N150 C153 1.336 . S
C151 N149 1.335 . S
C151 N150 1.345 . S
C151 H156 0.930 . S
C152 N149 1.390 . S
C152 C153 1.346 . S
C152 H157 0.930 . S
C153 N150 1.336 . S
C153 C152 1.346 . S
C153 H160 0.929 . S
C154 O144 1.282 . S
C154 O155 1.216 . S
O155 C154 1.216 . S
H156 C151 0.930 . S
H157 C152 0.930 . S
O158 Cu138 1.959 . S
O158 C145 1.251 . S
H159 C142 0.930 . S
H160 C153 0.929 . S
Cu161 N162 1.999 . S
Cu161 O167 1.974 . S
Cu161 N172 1.985 . S
Cu161 O181 1.959 . S
N162 Cu161 1.999 . S
N162 C164 1.263 . S
N162 C166 1.389 . S
N163 C164 1.358 . S
N163 C165 1.400 1_545 S
C164 N162 1.263 . S
C164 N163 1.358 . S
C164 H170 0.930 . S
C165 N163 1.400 1_565 S
C165 C166 1.351 1_565 S
C165 H182 0.930 . S
C166 N162 1.389 . S
C166 C165 1.351 1_545 S
C166 H171 0.929 1_545 S
O167 Cu161 1.974 . S
O167 C177 1.282 . S
C168 O169 1.261 . S
C168 O181 1.251 1_565 S
O169 C168 1.261 . S
H170 C164 0.930 . S
H171 C166 0.929 1_565 S
N172 Cu161 1.985 . S
N172 C174 1.335 . S
N172 C175 1.390 . S
N173 C174 1.345 . S
N173 C176 1.336 . S
C174 N172 1.335 . S
C174 N173 1.345 . S
C174 H179 0.930 . S
C175 N172 1.390 . S
C175 C176 1.346 . S
C175 H180 0.930 . S
C176 N173 1.336 . S
C176 C175 1.346 . S
C176 H183 0.929 . S
C177 O167 1.282 . S
C177 O178 1.216 . S
O178 C177 1.216 . S
H179 C174 0.930 . S
H180 C175 0.930 . S
O181 Cu161 1.959 . S
O181 C168 1.251 1_545 S
H182 C165 0.930 . S
H183 C176 0.929 . S
Cu184 N185 1.999 . S
Cu184 O190 1.974 . S
Cu184 N195 1.985 . S
Cu184 O204 1.959 . S
N185 Cu184 1.999 . S
N185 C187 1.263 . S
N185 C189 1.389 . S
N186 C187 1.358 . S
N186 C188 1.400 . S
C187 N185 1.263 . S
C187 N186 1.358 . S
C187 H193 0.930 . S
C188 N186 1.400 . S
C188 C189 1.351 . S
C188 H205 0.930 . S
C189 N185 1.389 . S
C189 C188 1.351 . S
C189 H194 0.930 . S
O190 Cu184 1.974 . S
O190 C200 1.282 . S
C191 O192 1.261 . S
C191 O204 1.251 . S
O192 C191 1.261 . S
H193 C187 0.930 . S
H194 C189 0.930 . S
N195 Cu184 1.985 . S
N195 C197 1.335 . S
N195 C198 1.390 . S
N196 C197 1.345 . S
N196 C199 1.336 . S
C197 N195 1.335 . S
C197 N196 1.345 . S
C197 H202 0.930 . S
C198 N195 1.390 . S
C198 C199 1.346 . S
C198 H203 0.930 . S
C199 N196 1.336 . S
C199 C198 1.346 . S
C199 H206 0.929 . S
C200 O190 1.282 . S
C200 O201 1.216 . S
O201 C200 1.216 . S
H202 C197 0.930 . S
H203 C198 0.930 . S
O204 Cu184 1.959 . S
O204 C191 1.251 . S
H205 C188 0.930 . S
H206 C199 0.929 . S
Cu207 N208 1.999 . S
Cu207 O213 1.974 . S
Cu207 N218 1.985 . S
Cu207 O227 1.959 . S
N208 Cu207 1.999 . S
N208 C210 1.263 . S
N208 C212 1.389 . S
N209 C210 1.358 . S
N209 C211 1.400 . S
C210 N208 1.263 . S
C210 N209 1.358 . S
C210 H216 0.930 . S
C211 N209 1.400 . S
C211 C212 1.351 . S
C211 H228 0.930 . S
C212 N208 1.389 . S
C212 C211 1.351 . S
C212 H217 0.930 . S
O213 Cu207 1.974 . S
O213 C223 1.282 . S
C214 O215 1.261 . S
C214 O227 1.251 . S
O215 C214 1.261 . S
H216 C210 0.930 . S
H217 C212 0.930 . S
N218 Cu207 1.985 . S
N218 C220 1.335 . S
N218 C221 1.390 . S
N219 C220 1.345 . S
N219 C222 1.336 . S
C220 N218 1.335 . S
C220 N219 1.345 . S
C220 H225 0.930 . S
C221 N218 1.390 . S
C221 C222 1.346 . S
C221 H226 0.930 . S
C222 N219 1.336 . S
C222 C221 1.346 . S
C222 H229 0.929 . S
C223 O213 1.282 . S
C223 O224 1.216 . S
O224 C223 1.216 . S
H225 C220 0.930 . S
H226 C221 0.930 . S
O227 Cu207 1.959 . S
O227 C214 1.251 . S
H228 C211 0.930 . S
H229 C222 0.929 . S
Cu230 N231 1.999 . S
Cu230 O236 1.974 . S
Cu230 N241 1.985 . S
Cu230 O250 1.959 . S
N231 Cu230 1.999 . S
N231 C233 1.263 . S
N231 C235 1.389 . S
N232 C233 1.358 . S
N232 C234 1.400 . S
C233 N231 1.263 . S
C233 N232 1.358 . S
C233 H239 0.930 . S
C234 N232 1.400 . S
C234 C235 1.351 . S
C234 H251 0.930 . S
C235 N231 1.389 . S
C235 C234 1.351 . S
C235 H240 0.930 . S
O236 Cu230 1.974 . S
O236 C246 1.282 . S
C237 O238 1.261 . S
C237 O250 1.251 . S
O238 C237 1.261 . S
H239 C233 0.930 . S
H240 C235 0.930 . S
N241 Cu230 1.985 . S
N241 C243 1.335 . S
N241 C244 1.390 . S
N242 C243 1.345 . S
N242 C245 1.336 . S
C243 N241 1.335 . S
C243 N242 1.345 . S
C243 H248 0.930 . S
C244 N241 1.390 . S
C244 C245 1.346 . S
C244 H249 0.930 . S
C245 N242 1.336 . S
C245 C244 1.346 . S
C245 H252 0.929 . S
C246 O236 1.282 . S
C246 O247 1.216 . S
O247 C246 1.216 . S
H248 C243 0.930 . S
H249 C244 0.930 . S
O250 Cu230 1.959 . S
O250 C237 1.251 . S
H251 C234 0.930 . S
H252 C245 0.929 . S
Cu253 N254 1.999 . S
Cu253 O259 1.974 . S
Cu253 N264 1.985 . S
Cu253 O273 1.959 . S
N254 Cu253 1.999 . S
N254 C256 1.263 . S
N254 C258 1.389 . S
N255 C256 1.358 . S
N255 C257 1.400 . S
C256 N254 1.263 . S
C256 N255 1.358 . S
C256 H262 0.930 . S
C257 N255 1.400 . S
C257 C258 1.351 . S
C257 H274 0.930 . S
C258 N254 1.389 . S
C258 C257 1.351 . S
C258 H263 0.930 . S
O259 Cu253 1.974 . S
O259 C269 1.282 . S
C260 O261 1.261 . S
C260 O273 1.251 . S
O261 C260 1.261 . S
H262 C256 0.930 . S
H263 C258 0.930 . S
N264 Cu253 1.985 . S
N264 C266 1.335 . S
N264 C267 1.390 . S
N265 C266 1.345 . S
N265 C268 1.336 . S
C266 N264 1.335 . S
C266 N265 1.345 . S
C266 H271 0.930 . S
C267 N264 1.390 . S
C267 C268 1.346 . S
C267 H272 0.930 . S
C268 N265 1.336 . S
C268 C267 1.346 . S
C268 H275 0.929 . S
C269 O259 1.282 . S
C269 O270 1.216 . S
O270 C269 1.216 . S
H271 C266 0.930 . S
H272 C267 0.930 . S
O273 Cu253 1.959 . S
O273 C260 1.251 . S
H274 C257 0.930 . S
H275 C268 0.929 . S
Cu276 N277 1.999 . S
Cu276 O282 1.974 . S
Cu276 N287 1.985 . S
Cu276 O296 1.959 . S
N277 Cu276 1.999 . S
N277 C279 1.263 . S
N277 C281 1.389 . S
N278 C279 1.358 . S
N278 C280 1.400 . S
C279 N277 1.263 . S
C279 N278 1.358 . S
C279 H285 0.930 . S
C280 N278 1.400 . S
C280 C281 1.351 . S
C280 H297 0.930 . S
C281 N277 1.389 . S
C281 C280 1.351 . S
C281 H286 0.930 . S
O282 Cu276 1.974 . S
O282 C292 1.282 . S
C283 O284 1.261 . S
C283 O296 1.251 . S
O284 C283 1.261 . S
H285 C279 0.930 . S
H286 C281 0.930 . S
N287 Cu276 1.985 . S
N287 C289 1.335 . S
N287 C290 1.390 . S
N288 C289 1.345 . S
N288 C291 1.336 . S
C289 N287 1.335 . S
C289 N288 1.345 . S
C289 H294 0.930 . S
C290 N287 1.390 . S
C290 C291 1.346 . S
C290 H295 0.930 . S
C291 N288 1.336 . S
C291 C290 1.346 . S
C291 H298 0.929 . S
C292 O282 1.282 . S
C292 O293 1.216 . S
O293 C292 1.216 . S
H294 C289 0.930 . S
H295 C290 0.930 . S
O296 Cu276 1.959 . S
O296 C283 1.251 . S
H297 C280 0.930 . S
H298 C291 0.929 . S
Cu299 N300 1.999 . S
Cu299 O305 1.974 . S
Cu299 N310 1.985 . S
Cu299 O319 1.959 . S
N300 Cu299 1.999 . S
N300 C302 1.263 . S
N300 C304 1.389 . S
N301 C302 1.358 . S
N301 C303 1.400 . S
C302 N300 1.263 . S
C302 N301 1.358 . S
C302 H308 0.930 . S
C303 N301 1.400 . S
C303 C304 1.351 . S
C303 H320 0.930 . S
C304 N300 1.389 . S
C304 C303 1.351 . S
C304 H309 0.930 . S
O305 Cu299 1.974 . S
O305 C315 1.282 . S
C306 O307 1.261 . S
C306 O319 1.251 . S
O307 C306 1.261 . S
H308 C302 0.930 . S
H309 C304 0.930 . S
N310 Cu299 1.985 . S
N310 C312 1.335 . S
N310 C313 1.390 . S
N311 C312 1.345 . S
N311 C314 1.336 . S
C312 N310 1.335 . S
C312 N311 1.345 . S
C312 H317 0.930 . S
C313 N310 1.390 . S
C313 C314 1.346 . S
C313 H318 0.930 . S
C314 N311 1.336 . S
C314 C313 1.346 . S
C314 H321 0.929 . S
C315 O305 1.282 . S
C315 O316 1.216 . S
O316 C315 1.216 . S
H317 C312 0.930 . S
H318 C313 0.930 . S
O319 Cu299 1.959 . S
O319 C306 1.251 . S
H320 C303 0.930 . S
H321 C314 0.929 . S
Cu322 N323 1.999 . S
Cu322 O328 1.974 . S
Cu322 N333 1.985 . S
Cu322 O342 1.959 . S
N323 Cu322 1.999 . S
N323 C325 1.263 . S
N323 C327 1.389 . S
N324 C325 1.358 . S
N324 C326 1.400 . S
C325 N323 1.263 . S
C325 N324 1.358 . S
C325 H331 0.930 . S
C326 N324 1.400 . S
C326 C327 1.351 . S
C326 H343 0.930 . S
C327 N323 1.389 . S
C327 C326 1.351 . S
C327 H332 0.930 . S
O328 Cu322 1.974 . S
O328 C338 1.282 . S
C329 O330 1.261 . S
C329 O342 1.251 . S
O330 C329 1.261 . S
H331 C325 0.930 . S
H332 C327 0.930 . S
N333 Cu322 1.985 . S
N333 C335 1.335 . S
N333 C336 1.390 . S
N334 C335 1.345 . S
N334 C337 1.336 . S
C335 N333 1.335 . S
C335 N334 1.345 . S
C335 H340 0.930 . S
C336 N333 1.390 . S
C336 C337 1.346 . S
C336 H341 0.930 . S
C337 N334 1.336 . S
C337 C336 1.346 . S
C337 H344 0.929 . S
C338 O328 1.282 . S
C338 O339 1.216 . S
O339 C338 1.216 . S
H340 C335 0.930 . S
H341 C336 0.930 . S
O342 Cu322 1.959 . S
O342 C329 1.251 . S
H343 C326 0.930 . S
H344 C337 0.929 . S
Cu345 N346 1.999 . S
Cu345 O351 1.974 . S
Cu345 N356 1.985 . S
Cu345 O365 1.959 . S
N346 Cu345 1.999 . S
N346 C348 1.263 . S
N346 C350 1.389 . S
N347 C348 1.358 . S
N347 C349 1.400 . S
C348 N346 1.263 . S
C348 N347 1.358 . S
C348 H354 0.930 . S
C349 N347 1.400 . S
C349 C350 1.351 . S
C349 H366 0.930 . S
C350 N346 1.389 . S
C350 C349 1.351 . S
C350 H355 0.930 . S
O351 Cu345 1.974 . S
O351 C361 1.282 . S
C352 O353 1.261 . S
C352 O365 1.251 . S
O353 C352 1.261 . S
H354 C348 0.930 . S
H355 C350 0.930 . S
N356 Cu345 1.985 . S
N356 C358 1.335 . S
N356 C359 1.390 . S
N357 C358 1.345 . S
N357 C360 1.336 . S
C358 N356 1.335 . S
C358 N357 1.345 . S
C358 H363 0.930 . S
C359 N356 1.390 . S
C359 C360 1.346 . S
C359 H364 0.930 . S
C360 N357 1.336 . S
C360 C359 1.346 . S
C360 H367 0.929 . S
C361 O351 1.282 . S
C361 O362 1.216 . S
O362 C361 1.216 . S
H363 C358 0.930 . S
H364 C359 0.930 . S
O365 Cu345 1.959 . S
O365 C352 1.251 . S
H366 C349 0.930 . S
H367 C360 0.929 . S
C368 C369 1.369 . S
C368 C370 1.419 . S
C368 H372 0.930 . S
C369 C368 1.369 . S
C369 C378 1.429 . S
C370 C368 1.419 . S
C370 C371 1.363 . S
C370 H373 0.929 . S
C371 C370 1.363 . S
C371 C377 1.428 . S
H372 C368 0.930 . S
H373 C370 0.929 . S
S374 N375 1.613 . S
S374 N376 1.610 . S
N375 S374 1.613 . S
N375 C378 1.350 . S
N376 S374 1.610 . S
N376 C377 1.351 . S
C377 C371 1.428 . S
C377 N376 1.351 . S
C377 C378 1.434 . S
C378 C369 1.429 . S
C378 N375 1.350 . S
C378 C377 1.434 . S
C379 C380 1.369 . S
C379 C381 1.419 . S
C379 H383 0.930 . S
C380 C379 1.369 . S
C380 C389 1.429 . S
C381 C379 1.419 . S
C381 C382 1.363 . S
C381 H384 0.929 . S
C382 C381 1.363 . S
C382 C388 1.428 . S
H383 C379 0.930 . S
H384 C381 0.929 . S
S385 N386 1.613 . S
S385 N387 1.610 . S
N386 S385 1.613 . S
N386 C389 1.350 . S
N387 S385 1.610 . S
N387 C388 1.351 . S
C388 C382 1.428 . S
C388 N387 1.351 . S
C388 C389 1.434 . S
C389 C380 1.429 . S
C389 N386 1.350 . S
C389 C388 1.434 . S
C390 C391 1.369 . S
C390 C392 1.419 . S
C390 H394 0.930 . S
C391 C390 1.369 . S
C391 C400 1.429 . S
C392 C390 1.419 . S
C392 C393 1.363 . S
C392 H395 0.929 . S
C393 C392 1.363 . S
C393 C399 1.428 . S
H394 C390 0.930 . S
H395 C392 0.929 . S
S396 N397 1.613 . S
S396 N398 1.610 . S
N397 S396 1.613 . S
N397 C400 1.350 . S
N398 S396 1.610 . S
N398 C399 1.351 . S
C399 C393 1.428 . S
C399 N398 1.351 . S
C399 C400 1.434 . S
C400 C391 1.429 . S
C400 N397 1.350 . S
C400 C399 1.434 . S
C401 C402 1.369 . S
C401 C403 1.419 . S
C401 H405 0.930 . S
C402 C401 1.369 . S
C402 C411 1.429 . S
C403 C401 1.419 . S
C403 C404 1.363 . S
C403 H406 0.929 . S
C404 C403 1.363 . S
C404 C410 1.428 . S
H405 C401 0.930 . S
H406 C403 0.929 . S
S407 N408 1.613 . S
S407 N409 1.610 . S
N408 S407 1.613 . S
N408 C411 1.350 . S
N409 S407 1.610 . S
N409 C410 1.351 . S
C410 C404 1.428 . S
C410 N409 1.351 . S
C410 C411 1.434 . S
C411 C402 1.429 . S
C411 N408 1.350 . S
C411 C410 1.434 . S
C412 C413 1.369 . S
C412 C414 1.419 1_554 S
C412 H416 0.930 . S
C413 C412 1.369 . S
C413 C422 1.429 . S
C414 C412 1.419 1_556 S
C414 C415 1.364 1_556 S
C414 H417 0.929 . S
C415 C414 1.364 1_554 S
C415 C421 1.423 . S
H416 C412 0.930 . S
H417 C414 0.929 . S
S418 N419 1.613 . S
S418 N420 1.610 . S
N419 S418 1.613 . S
N419 C422 1.350 . S
N420 S418 1.610 . S
N420 C421 1.351 . S
C421 C415 1.423 . S
C421 N420 1.351 . S
C421 C422 1.434 . S
C422 C413 1.429 . S
C422 N419 1.350 . S
C422 C421 1.434 . S
C423 C424 1.369 . S
C423 C425 1.419 . S
C423 H427 0.930 . S
C424 C423 1.369 . S
C424 C433 1.429 . S
C425 C423 1.419 . S
C425 C426 1.363 . S
C425 H428 0.929 1_554 S
C426 C425 1.363 . S
C426 C432 1.428 . S
H427 C423 0.930 . S
H428 C425 0.929 1_556 S
S429 N430 1.613 . S
S429 N431 1.610 . S
N430 S429 1.613 . S
N430 C433 1.350 . S
N431 S429 1.610 . S
N431 C432 1.351 . S
C432 C426 1.428 . S
C432 N431 1.351 . S
C432 C433 1.434 . S
C433 C424 1.429 . S
C433 N430 1.350 . S
C433 C432 1.434 . S
C434 C435 1.369 1_554 S
C434 C436 1.419 . S
C434 H438 0.930 1_554 S
C435 C434 1.369 1_556 S
C435 C444 1.431 1_556 S
C436 C434 1.419 . S
C436 C437 1.363 . S
C436 H439 0.929 . S
C437 C436 1.363 . S
C437 C443 1.428 . S
H438 C434 0.930 1_556 S
H439 C436 0.929 . S
S440 N441 1.613 . S
S440 N442 1.610 . S
N441 S440 1.613 . S
N441 C444 1.350 . S
N442 S440 1.610 . S
N442 C443 1.351 . S
C443 C437 1.428 . S
C443 N442 1.351 . S
C443 C444 1.434 . S
C444 C435 1.431 1_554 S
C444 N441 1.350 . S
C444 C443 1.434 . S
C445 C446 1.369 . S
C445 C447 1.419 . S
C445 H449 0.930 . S
C446 C445 1.369 . S
C446 C455 1.429 . S
C447 C445 1.419 . S
C447 C448 1.363 . S
C447 H450 0.929 1_554 S
C448 C447 1.363 . S
C448 C454 1.428 . S
H449 C445 0.930 . S
H450 C447 0.929 1_556 S
S451 N452 1.613 1_455 S
S451 N453 1.610 . S
N452 S451 1.613 1_655 S
N452 C455 1.350 . S
N453 S451 1.610 . S
N453 C454 1.351 1_455 S
C454 C448 1.428 . S
C454 N453 1.351 1_655 S
C454 C455 1.434 . S
C455 C446 1.429 . S
C455 N452 1.350 . S
C455 C454 1.434 . S
C456 C457 1.369 . S
C456 C458 1.419 . S
C456 H460 0.930 . S
C457 C456 1.369 . S
C457 C466 1.429 . S
C458 C456 1.419 . S
C458 C459 1.363 . S
C458 H461 0.929 . S
C459 C458 1.363 . S
C459 C465 1.428 . S
H460 C456 0.930 . S
H461 C458 0.929 . S
S462 N463 1.613 . S
S462 N464 1.610 . S
N463 S462 1.613 . S
N463 C466 1.350 . S
N464 S462 1.610 . S
N464 C465 1.351 . S
C465 C459 1.428 . S
C465 N464 1.351 . S
C465 C466 1.434 . S
C466 C457 1.429 . S
C466 N463 1.350 . S
C466 C465 1.434 . S
C467 C468 1.369 . S
C467 C469 1.419 . S
C467 H471 0.930 . S
C468 C467 1.369 . S
C468 C477 1.429 . S
C469 C467 1.419 . S
C469 C470 1.363 . S
C469 H472 0.929 . S
C470 C469 1.363 . S
C470 C476 1.428 . S
H471 C467 0.930 . S
H472 C469 0.929 . S
S473 N474 1.613 . S
S473 N475 1.610 . S
N474 S473 1.613 . S
N474 C477 1.350 . S
N475 S473 1.610 . S
N475 C476 1.351 . S
C476 C470 1.428 . S
C476 N475 1.351 . S
C476 C477 1.434 . S
C477 C468 1.429 . S
C477 N474 1.350 . S
C477 C476 1.434 . S
C478 C479 1.369 . S
C478 C480 1.419 . S
C478 H482 0.930 . S
C479 C478 1.369 . S
C479 C488 1.429 . S
C480 C478 1.419 . S
C480 C481 1.363 . S
C480 H483 0.929 . S
C481 C480 1.363 . S
C481 C487 1.428 . S
H482 C478 0.930 . S
H483 C480 0.929 . S
S484 N485 1.613 . S
S484 N486 1.610 . S
N485 S484 1.613 . S
N485 C488 1.350 . S
N486 S484 1.610 . S
N486 C487 1.351 . S
C487 C481 1.428 . S
C487 N486 1.351 . S
C487 C488 1.434 . S
C488 C479 1.429 . S
C488 N485 1.350 . S
C488 C487 1.434 . S
C489 C490 1.369 . S
C489 C491 1.419 . S
C489 H493 0.930 . S
C490 C489 1.369 . S
C490 C499 1.429 . S
C491 C489 1.419 . S
C491 C492 1.363 . S
C491 H494 0.929 . S
C492 C491 1.363 . S
C492 C498 1.428 . S
H493 C489 0.930 . S
H494 C491 0.929 . S
S495 N496 1.613 . S
S495 N497 1.610 1_655 S
N496 S495 1.613 . S
N496 C499 1.350 1_655 S
N497 S495 1.610 1_455 S
N497 C498 1.351 . S
C498 C492 1.428 . S
C498 N497 1.351 . S
C498 C499 1.434 . S
C499 C490 1.429 . S
C499 N496 1.350 1_455 S
C499 C498 1.434 . S
C500 C501 1.369 . S
C500 C502 1.419 . S
C500 H504 0.930 . S
C501 C500 1.369 . S
C501 C510 1.429 . S
C502 C500 1.419 . S
C502 C503 1.363 . S
C502 H505 0.929 . S
C503 C502 1.363 . S
C503 C509 1.428 . S
H504 C500 0.930 . S
H505 C502 0.929 . S
S506 N507 1.613 . S
S506 N508 1.610 . S
N507 S506 1.613 . S
N507 C510 1.350 . S
N508 S506 1.610 . S
N508 C509 1.351 . S
C509 C503 1.428 . S
C509 N508 1.351 . S
C509 C510 1.434 . S
C510 C501 1.429 . S
C510 N507 1.350 . S
C510 C509 1.434 . S
C511 C512 1.369 . S
C511 C513 1.419 . S
C511 H515 0.930 . S
C512 C511 1.369 . S
C512 C521 1.429 . S
C513 C511 1.419 . S
C513 C514 1.363 . S
C513 H516 0.929 . S
C514 C513 1.363 . S
C514 C520 1.428 . S
H515 C511 0.930 . S
H516 C513 0.929 . S
S517 N518 1.613 . S
S517 N519 1.610 . S
N518 S517 1.613 . S
N518 C521 1.350 . S
N519 S517 1.610 . S
N519 C520 1.351 . S
C520 C514 1.428 . S
C520 N519 1.351 . S
C520 C521 1.434 . S
C521 C512 1.429 . S
C521 N518 1.350 . S
C521 C520 1.434 . S
C522 C523 1.369 . S
C522 C524 1.419 . S
C522 H526 0.930 . S
C523 C522 1.369 . S
C523 C532 1.429 . S
C524 C522 1.419 . S
C524 C525 1.363 . S
C524 H527 0.929 . S
C525 C524 1.363 . S
C525 C531 1.428 . S
H526 C522 0.930 . S
H527 C524 0.929 . S
S528 N529 1.613 . S
S528 N530 1.610 . S
N529 S528 1.613 . S
N529 C532 1.350 . S
N530 S528 1.610 . S
N530 C531 1.351 . S
C531 C525 1.428 . S
C531 N530 1.351 . S
C531 C532 1.434 . S
C532 C523 1.429 . S
C532 N529 1.350 . S
C532 C531 1.434 . S
C533 C534 1.369 . S
C533 C535 1.419 . S
C533 H537 0.930 . S
C534 C533 1.369 . S
C534 C543 1.429 . S
C535 C533 1.419 . S
C535 C536 1.363 . S
C535 H538 0.929 . S
C536 C535 1.363 . S
C536 C542 1.428 . S
H537 C533 0.930 . S
H538 C535 0.929 . S
S539 N540 1.613 . S
S539 N541 1.610 . S
N540 S539 1.613 . S
N540 C543 1.350 . S
N541 S539 1.610 . S
N541 C542 1.351 . S
C542 C536 1.428 . S
C542 N541 1.351 . S
C542 C543 1.434 . S
C543 C534 1.429 . S
C543 N540 1.350 . S
C543 C542 1.434 . S
C544 C545 1.369 . S
C544 C546 1.419 . S
C544 H548 0.930 . S
C545 C544 1.369 . S
C545 C554 1.429 . S
C546 C544 1.419 . S
C546 C547 1.363 . S
C546 H549 0.929 . S
C547 C546 1.363 . S
C547 C553 1.428 . S
H548 C544 0.930 . S
H549 C546 0.929 . S
S550 N551 1.613 . S
S550 N552 1.610 . S
N551 S550 1.613 . S
N551 C554 1.350 . S
N552 S550 1.610 . S
N552 C553 1.351 . S
C553 C547 1.428 . S
C553 N552 1.351 . S
C553 C554 1.434 . S
C554 C545 1.429 . S
C554 N551 1.350 . S
C554 C553 1.434 . S
C555 C556 1.369 . S
C555 C557 1.419 . S
C555 H559 0.930 . S
C556 C555 1.369 . S
C556 C565 1.429 . S
C557 C555 1.419 . S
C557 C558 1.363 . S
C557 H560 0.929 . S
C558 C557 1.363 . S
C558 C564 1.428 . S
H559 C555 0.930 . S
H560 C557 0.929 . S
S561 N562 1.613 . S
S561 N563 1.610 . S
N562 S561 1.613 . S
N562 C565 1.350 . S
N563 S561 1.610 . S
N563 C564 1.351 . S
C564 C558 1.428 . S
C564 N563 1.351 . S
C564 C565 1.434 . S
C565 C556 1.429 . S
C565 N562 1.350 . S
C565 C564 1.434 . S
C566 C567 1.369 . S
C566 C568 1.419 . S
C566 H570 0.930 . S
C567 C566 1.369 . S
C567 C576 1.429 . S
C568 C566 1.419 . S
C568 C569 1.363 . S
C568 H571 0.929 . S
C569 C568 1.363 . S
C569 C575 1.428 . S
H570 C566 0.930 . S
H571 C568 0.929 . S
S572 N573 1.613 . S
S572 N574 1.610 . S
N573 S572 1.613 . S
N573 C576 1.350 . S
N574 S572 1.610 . S
N574 C575 1.351 . S
C575 C569 1.428 . S
C575 N574 1.351 . S
C575 C576 1.434 . S
C576 C567 1.429 . S
C576 N573 1.350 . S
C576 C575 1.434 . S
C577 C578 1.369 . S
C577 C579 1.419 . S
C577 H581 0.930 . S
C578 C577 1.369 . S
C578 C587 1.429 . S
C579 C577 1.419 . S
C579 C580 1.363 . S
C579 H582 0.929 . S
C580 C579 1.363 . S
C580 C586 1.428 . S
H581 C577 0.930 . S
H582 C579 0.929 . S
S583 N584 1.613 . S
S583 N585 1.610 . S
N584 S583 1.613 . S
N584 C587 1.350 . S
N585 S583 1.610 . S
N585 C586 1.351 . S
C586 C580 1.428 . S
C586 N585 1.351 . S
C586 C587 1.434 . S
C587 C578 1.429 . S
C587 N584 1.350 . S
C587 C586 1.434 . S
C588 C589 1.369 . S
C588 C590 1.419 . S
C588 H592 0.930 . S
C589 C588 1.369 . S
C589 C598 1.429 . S
C590 C588 1.419 . S
C590 C591 1.363 . S
C590 H593 0.929 . S
C591 C590 1.363 . S
C591 C597 1.428 . S
H592 C588 0.930 . S
H593 C590 0.929 . S
S594 N595 1.613 . S
S594 N596 1.610 . S
N595 S594 1.613 . S
N595 C598 1.350 . S
N596 S594 1.610 . S
N596 C597 1.351 . S
C597 C591 1.428 . S
C597 N596 1.351 . S
C597 C598 1.434 . S
C598 C589 1.429 . S
C598 N595 1.350 . S
C598 C597 1.434 . S
C599 C600 1.369 . S
C599 C601 1.419 . S
C599 H603 0.930 . S
C600 C599 1.369 . S
C600 C609 1.429 . S
C601 C599 1.419 . S
C601 C602 1.363 . S
C601 H604 0.929 . S
C602 C601 1.363 . S
C602 C608 1.428 . S
H603 C599 0.930 . S
H604 C601 0.929 . S
S605 N606 1.613 . S
S605 N607 1.610 . S
N606 S605 1.613 . S
N606 C609 1.350 . S
N607 S605 1.610 . S
N607 C608 1.351 . S
C608 C602 1.428 . S
C608 N607 1.351 . S
C608 C609 1.434 . S
C609 C600 1.429 . S
C609 N606 1.350 . S
C609 C608 1.434 . S
C610 C611 1.369 . S
C610 C612 1.419 . S
C610 H614 0.930 . S
C611 C610 1.369 . S
C611 C620 1.429 . S
C612 C610 1.419 . S
C612 C613 1.363 . S
C612 H615 0.929 . S
C613 C612 1.363 . S
C613 C619 1.428 . S
H614 C610 0.930 . S
H615 C612 0.929 . S
S616 N617 1.613 . S
S616 N618 1.610 . S
N617 S616 1.613 . S
N617 C620 1.350 . S
N618 S616 1.610 . S
N618 C619 1.351 . S
C619 C613 1.428 . S
C619 N618 1.351 . S
C619 C620 1.434 . S
C620 C611 1.429 . S
C620 N617 1.350 . S
C620 C619 1.434 . S
C621 C622 1.369 . S
C621 C623 1.419 . S
C621 H625 0.930 . S
C622 C621 1.369 . S
C622 C631 1.429 . S
C623 C621 1.419 . S
C623 C624 1.363 . S
C623 H626 0.929 . S
C624 C623 1.363 . S
C624 C630 1.428 . S
H625 C621 0.930 . S
H626 C623 0.929 . S
S627 N628 1.613 . S
S627 N629 1.610 . S
N628 S627 1.613 . S
N628 C631 1.350 . S
N629 S627 1.610 . S
N629 C630 1.351 . S
C630 C624 1.428 . S
C630 N629 1.351 . S
C630 C631 1.434 . S
C631 C622 1.429 . S
C631 N628 1.350 . S
C631 C630 1.434 . S
C632 C633 1.369 1_455 S
C632 C634 1.419 . S
C632 H636 0.930 . S
C633 C632 1.369 1_655 S
C633 C642 1.429 1_565 S
C634 C632 1.419 . S
C634 C635 1.363 1_565 S
C634 H637 0.929 . S
C635 C634 1.363 1_545 S
C635 C641 1.428 1_455 S
H636 C632 0.930 . S
H637 C634 0.929 . S
S638 N639 1.613 . S
S638 N640 1.610 . S
N639 S638 1.613 . S
N639 C642 1.350 . S
N640 S638 1.610 . S
N640 C641 1.351 . S
C641 C635 1.428 1_655 S
C641 N640 1.351 . S
C641 C642 1.434 . S
C642 C633 1.429 1_545 S
C642 N639 1.350 . S
C642 C641 1.434 . S
C643 C644 1.369 1_565 S
C643 C645 1.419 1_655 S
C643 H647 0.930 . S
C644 C643 1.369 1_545 S
C644 C653 1.429 . S
C645 C643 1.419 1_455 S
C645 C646 1.371 . S
C645 H648 0.929 . S
C646 C645 1.371 . S
C646 C652 1.420 1_565 S
H647 C643 0.930 . S
H648 C645 0.929 . S
S649 N650 1.613 1_455 S
S649 N651 1.610 . S
N650 S649 1.613 1_655 S
N650 C653 1.350 . S
N651 S649 1.610 . S
N651 C652 1.351 . S
C652 C646 1.420 1_545 S
C652 N651 1.351 . S
C652 C653 1.434 1_455 S
C653 C644 1.429 . S
C653 N650 1.350 . S
C653 C652 1.434 1_655 S
C654 C655 1.369 1_655 S
C654 C656 1.419 . S
C654 H658 0.930 . S
C655 C654 1.369 1_455 S
C655 C664 1.429 . S
C656 C654 1.419 . S
C656 C657 1.363 . S
C656 H659 0.929 . S
C657 C656 1.363 . S
C657 C663 1.428 1_655 S
H658 C654 0.930 . S
H659 C656 0.929 . S
S660 N661 1.613 . S
S660 N662 1.610 . S
N661 S660 1.613 . S
N661 C664 1.350 . S
N662 S660 1.610 . S
N662 C663 1.351 . S
C663 C657 1.428 1_455 S
C663 N662 1.351 . S
C663 C664 1.434 . S
C664 C655 1.429 . S
C664 N661 1.350 . S
C664 C663 1.434 . S
C665 C666 1.368 1_545 S
C665 C667 1.419 . S
C665 H669 0.930 . S
C666 C665 1.368 1_565 S
C666 C675 1.429 . S
C667 C665 1.419 . S
C667 C668 1.363 . S
C667 H670 0.929 . S
C668 C667 1.363 . S
C668 C674 1.428 1_545 S
H669 C665 0.930 . S
H670 C667 0.929 . S
S671 N672 1.614 . S
S671 N673 1.610 . S
N672 S671 1.614 . S
N672 C675 1.350 . S
N673 S671 1.610 . S
N673 C674 1.351 . S
C674 C668 1.428 1_565 S
C674 N673 1.351 . S
C674 C675 1.434 . S
C675 C666 1.429 . S
C675 N672 1.350 . S
C675 C674 1.434 . S
C676 C677 1.369 . S
C676 C678 1.419 . S
C676 H680 0.930 . S
C677 C676 1.369 . S
C677 C686 1.429 . S
C678 C676 1.419 . S
C678 C679 1.363 . S
C678 H681 0.929 . S
C679 C678 1.363 . S
C679 C685 1.428 . S
H680 C676 0.930 . S
H681 C678 0.929 . S
S682 N683 1.613 . S
S682 N684 1.610 . S
N683 S682 1.613 . S
N683 C686 1.350 . S
N684 S682 1.610 . S
N684 C685 1.351 . S
C685 C679 1.428 . S
C685 N684 1.351 . S
C685 C686 1.434 . S
C686 C677 1.429 . S
C686 N683 1.350 . S
C686 C685 1.434 . S
C687 C688 1.369 . S
C687 C689 1.419 . S
C687 H691 0.930 . S
C688 C687 1.369 . S
C688 C697 1.429 . S
C689 C687 1.419 . S
C689 C690 1.363 . S
C689 H692 0.929 . S
C690 C689 1.363 . S
C690 C696 1.428 . S
H691 C687 0.930 . S
H692 C689 0.929 . S
S693 N694 1.613 . S
S693 N695 1.610 . S
N694 S693 1.613 . S
N694 C697 1.350 . S
N695 S693 1.610 . S
N695 C696 1.351 . S
C696 C690 1.428 . S
C696 N695 1.351 . S
C696 C697 1.434 . S
C697 C688 1.429 . S
C697 N694 1.350 . S
C697 C696 1.434 . S
C698 C699 1.369 . S
C698 C700 1.419 . S
C698 H702 0.930 . S
C699 C698 1.369 . S
C699 C708 1.429 1_545 S
C700 C698 1.419 . S
C700 C701 1.363 1_545 S
C700 H703 0.929 . S
C701 C700 1.363 1_565 S
C701 C707 1.428 . S
H702 C698 0.930 . S
H703 C700 0.929 . S
S704 N705 1.613 . S
S704 N706 1.610 . S
N705 S704 1.613 . S
N705 C708 1.350 . S
N706 S704 1.610 . S
N706 C707 1.351 . S
C707 C701 1.428 . S
C707 N706 1.351 . S
C707 C708 1.434 . S
C708 C699 1.429 1_565 S
C708 N705 1.350 . S
C708 C707 1.434 . S
C709 C710 1.369 . S
C709 C711 1.419 1_655 S
C709 H713 0.930 . S
C710 C709 1.369 . S
C710 C719 1.429 . S
C711 C709 1.419 1_455 S
C711 C712 1.363 . S
C711 H714 0.929 . S
C712 C711 1.363 . S
C712 C718 1.428 . S
H713 C709 0.930 . S
H714 C711 0.929 . S
S715 N716 1.613 1_455 S
S715 N717 1.610 . S
N716 S715 1.613 1_655 S
N716 C719 1.350 . S
N717 S715 1.610 . S
N717 C718 1.351 . S
C718 C712 1.428 . S
C718 N717 1.351 . S
C718 C719 1.434 1_455 S
C719 C710 1.429 . S
C719 N716 1.350 . S
C719 C718 1.434 1_655 S
C369 C16 1.756 . S
C371 C260 1.833 . S
C380 N186 1.360 . S
C382 N35 1.344 . S
C391 C214 1.833 . S
C393 C62 1.756 . S
C402 N232 1.355 . S
C404 N81 1.341 . S
C413 C122 1.832 . S
C415 C108 1.760 1_554 S
C424 N127 1.342 . S
C426 N140 1.359 1_554 S
C435 C154 1.750 . S
C437 C168 1.834 . S
C446 N173 1.344 . S
C448 N94 1.359 1_554 S
C457 C200 1.753 . S
C459 C76 1.834 . S
C468 N2 1.360 . S
C470 N219 1.344 . S
C479 C30 1.834 . S
C481 C246 1.754 . S
C490 N48 1.359 . S
C492 N265 1.346 . S
C501 C306 1.834 . S
C503 C292 1.753 . S
C512 N311 1.347 . S
C514 N324 1.358 . S
C523 C352 1.832 . S
C525 C338 1.759 . S
C534 N278 1.352 . S
C536 N357 1.348 . S
C545 N334 1.719 . S
C547 N12 1.721 . S
C556 C361 1.903 . S
C558 C39 1.903 . S
C567 N288 1.727 . S
C569 N58 1.726 . S
C578 C85 1.902 . S
C580 C315 1.901 . S
C589 N104 1.727 . S
C591 N242 1.726 . S
C600 C269 1.900 . S
C602 C131 1.901 . S
C611 N150 1.724 . S
C613 N196 1.726 . S
C622 C177 1.898 . S
C624 C223 1.898 . S
C633 C53 1.760 . S
C635 C7 1.758 . S
C644 N71 1.666 . S
C646 N25 1.669 . S
C655 C99 1.756 . S
C657 C145 1.756 . S
C666 N117 1.676 . S
C668 N163 1.672 . S
C677 C237 1.758 . S
C679 C191 1.760 . S
C688 N209 1.673 . S
C690 N255 1.671 . S
C699 C329 1.758 . S
C701 C283 1.757 . S
C710 N301 1.674 . S
C712 N347 1.672 . S
