# Generated by pormake.
# Topology uox, (4)-cn, num edge types: 1
# Building blocks:
#     Node 0, Type 0, BuildingBlock: QUQFOY_clean_sbu_1, # of connection points: 4
#     Node 1, Type 0, BuildingBlock: QUQFOY_clean_sbu_1, # of connection points: 4
#     Node 2, Type 0, BuildingBlock: QUQFOY_clean_sbu_1, # of connection points: 4
#     Node 3, Type 0, BuildingBlock: QUQFOY_clean_sbu_1, # of connection points: 4
#     Node 4, Type 0, BuildingBlock: QUQFOY_clean_sbu_1, # of connection points: 4
#     Node 5, Type 0, BuildingBlock: QUQFOY_clean_sbu_1, # of connection points: 4
#     Node 6, Type 0, BuildingBlock: QUQFOY_clean_sbu_1, # of connection points: 4
#     Node 7, Type 0, BuildingBlock: QUQFOY_clean_sbu_1, # of connection points: 4
#     Node 8, Type 0, BuildingBlock: QUQFOY_clean_sbu_1, # of connection points: 4
#     Node 9, Type 0, BuildingBlock: QUQFOY_clean_sbu_1, # of connection points: 4
#     Node 10, Type 0, BuildingBlock: QUQFOY_clean_sbu_1, # of connection points: 4
#     Node 11, Type 0, BuildingBlock: QUQFOY_clean_sbu_1, # of connection points: 4
#     Node 12, Type 0, BuildingBlock: QUQFOY_clean_sbu_1, # of connection points: 4
#     Node 13, Type 0, BuildingBlock: QUQFOY_clean_sbu_1, # of connection points: 4
#     Node 14, Type 0, BuildingBlock: QUQFOY_clean_sbu_1, # of connection points: 4
#     Node 15, Type 0, BuildingBlock: QUQFOY_clean_sbu_1, # of connection points: 4
#     Node 16, Type 0, BuildingBlock: QUQFOY_clean_sbu_1, # of connection points: 4
#     Node 17, Type 0, BuildingBlock: QUQFOY_clean_sbu_1, # of connection points: 4
#     Node 18, Type 0, BuildingBlock: QUQFOY_clean_sbu_1, # of connection points: 4
#     Node 19, Type 0, BuildingBlock: QUQFOY_clean_sbu_1, # of connection points: 4
#     Node 20, Type 0, BuildingBlock: QUQFOY_clean_sbu_1, # of connection points: 4
#     Node 21, Type 0, BuildingBlock: QUQFOY_clean_sbu_1, # of connection points: 4
#     Node 22, Type 0, BuildingBlock: QUQFOY_clean_sbu_1, # of connection points: 4
#     Node 23, Type 0, BuildingBlock: QUQFOY_clean_sbu_1, # of connection points: 4
#     Node 24, Type 0, BuildingBlock: QUQFOY_clean_sbu_1, # of connection points: 4
#     Node 25, Type 0, BuildingBlock: QUQFOY_clean_sbu_1, # of connection points: 4
#     Node 26, Type 0, BuildingBlock: QUQFOY_clean_sbu_1, # of connection points: 4
#     Node 27, Type 0, BuildingBlock: QUQFOY_clean_sbu_1, # of connection points: 4
#     Node 28, Type 0, BuildingBlock: QUQFOY_clean_sbu_1, # of connection points: 4
#     Node 29, Type 0, BuildingBlock: QUQFOY_clean_sbu_1, # of connection points: 4
#     Node 30, Type 0, BuildingBlock: QUQFOY_clean_sbu_1, # of connection points: 4
#     Node 31, Type 0, BuildingBlock: QUQFOY_clean_sbu_1, # of connection points: 4
#     Edge 32, Type (0, 0), BuildingBlock: UVAHIK_clean_linker_0, # of connection points: 2
#     Edge 33, Type (0, 0), BuildingBlock: UVAHIK_clean_linker_0, # of connection points: 2
#     Edge 34, Type (0, 0), BuildingBlock: UVAHIK_clean_linker_0, # of connection points: 2
#     Edge 35, Type (0, 0), BuildingBlock: UVAHIK_clean_linker_0, # of connection points: 2
#     Edge 36, Type (0, 0), BuildingBlock: UVAHIK_clean_linker_0, # of connection points: 2
#     Edge 37, Type (0, 0), BuildingBlock: UVAHIK_clean_linker_0, # of connection points: 2
#     Edge 38, Type (0, 0), BuildingBlock: UVAHIK_clean_linker_0, # of connection points: 2
#     Edge 39, Type (0, 0), BuildingBlock: UVAHIK_clean_linker_0, # of connection points: 2
#     Edge 40, Type (0, 0), BuildingBlock: UVAHIK_clean_linker_0, # of connection points: 2
#     Edge 41, Type (0, 0), BuildingBlock: UVAHIK_clean_linker_0, # of connection points: 2
#     Edge 42, Type (0, 0), BuildingBlock: UVAHIK_clean_linker_0, # of connection points: 2
#     Edge 43, Type (0, 0), BuildingBlock: UVAHIK_clean_linker_0, # of connection points: 2
#     Edge 44, Type (0, 0), BuildingBlock: UVAHIK_clean_linker_0, # of connection points: 2
#     Edge 45, Type (0, 0), BuildingBlock: UVAHIK_clean_linker_0, # of connection points: 2
#     Edge 46, Type (0, 0), BuildingBlock: UVAHIK_clean_linker_0, # of connection points: 2
#     Edge 47, Type (0, 0), BuildingBlock: UVAHIK_clean_linker_0, # of connection points: 2
#     Edge 48, Type (0, 0), BuildingBlock: UVAHIK_clean_linker_0, # of connection points: 2
#     Edge 49, Type (0, 0), BuildingBlock: UVAHIK_clean_linker_0, # of connection points: 2
#     Edge 50, Type (0, 0), BuildingBlock: UVAHIK_clean_linker_0, # of connection points: 2
#     Edge 51, Type (0, 0), BuildingBlock: UVAHIK_clean_linker_0, # of connection points: 2
#     Edge 52, Type (0, 0), BuildingBlock: UVAHIK_clean_linker_0, # of connection points: 2
#     Edge 53, Type (0, 0), BuildingBlock: UVAHIK_clean_linker_0, # of connection points: 2
#     Edge 54, Type (0, 0), BuildingBlock: UVAHIK_clean_linker_0, # of connection points: 2
#     Edge 55, Type (0, 0), BuildingBlock: UVAHIK_clean_linker_0, # of connection points: 2
#     Edge 56, Type (0, 0), BuildingBlock: UVAHIK_clean_linker_0, # of connection points: 2
#     Edge 57, Type (0, 0), BuildingBlock: UVAHIK_clean_linker_0, # of connection points: 2
#     Edge 58, Type (0, 0), BuildingBlock: UVAHIK_clean_linker_0, # of connection points: 2
#     Edge 59, Type (0, 0), BuildingBlock: UVAHIK_clean_linker_0, # of connection points: 2
#     Edge 60, Type (0, 0), BuildingBlock: UVAHIK_clean_linker_0, # of connection points: 2
#     Edge 61, Type (0, 0), BuildingBlock: UVAHIK_clean_linker_0, # of connection points: 2
#     Edge 62, Type (0, 0), BuildingBlock: UVAHIK_clean_linker_0, # of connection points: 2
#     Edge 63, Type (0, 0), BuildingBlock: UVAHIK_clean_linker_0, # of connection points: 2
#     Edge 64, Type (0, 0), BuildingBlock: UVAHIK_clean_linker_0, # of connection points: 2
#     Edge 65, Type (0, 0), BuildingBlock: UVAHIK_clean_linker_0, # of connection points: 2
#     Edge 66, Type (0, 0), BuildingBlock: UVAHIK_clean_linker_0, # of connection points: 2
#     Edge 67, Type (0, 0), BuildingBlock: UVAHIK_clean_linker_0, # of connection points: 2
#     Edge 68, Type (0, 0), BuildingBlock: UVAHIK_clean_linker_0, # of connection points: 2
#     Edge 69, Type (0, 0), BuildingBlock: UVAHIK_clean_linker_0, # of connection points: 2
#     Edge 70, Type (0, 0), BuildingBlock: UVAHIK_clean_linker_0, # of connection points: 2
#     Edge 71, Type (0, 0), BuildingBlock: UVAHIK_clean_linker_0, # of connection points: 2
#     Edge 72, Type (0, 0), BuildingBlock: UVAHIK_clean_linker_0, # of connection points: 2
#     Edge 73, Type (0, 0), BuildingBlock: UVAHIK_clean_linker_0, # of connection points: 2
#     Edge 74, Type (0, 0), BuildingBlock: UVAHIK_clean_linker_0, # of connection points: 2
#     Edge 75, Type (0, 0), BuildingBlock: UVAHIK_clean_linker_0, # of connection points: 2
#     Edge 76, Type (0, 0), BuildingBlock: UVAHIK_clean_linker_0, # of connection points: 2
#     Edge 77, Type (0, 0), BuildingBlock: UVAHIK_clean_linker_0, # of connection points: 2
#     Edge 78, Type (0, 0), BuildingBlock: UVAHIK_clean_linker_0, # of connection points: 2
#     Edge 79, Type (0, 0), BuildingBlock: UVAHIK_clean_linker_0, # of connection points: 2
#     Edge 80, Type (0, 0), BuildingBlock: UVAHIK_clean_linker_0, # of connection points: 2
#     Edge 81, Type (0, 0), BuildingBlock: UVAHIK_clean_linker_0, # of connection points: 2
#     Edge 82, Type (0, 0), BuildingBlock: UVAHIK_clean_linker_0, # of connection points: 2
#     Edge 83, Type (0, 0), BuildingBlock: UVAHIK_clean_linker_0, # of connection points: 2
#     Edge 84, Type (0, 0), BuildingBlock: UVAHIK_clean_linker_0, # of connection points: 2
#     Edge 85, Type (0, 0), BuildingBlock: UVAHIK_clean_linker_0, # of connection points: 2
#     Edge 86, Type (0, 0), BuildingBlock: UVAHIK_clean_linker_0, # of connection points: 2
#     Edge 87, Type (0, 0), BuildingBlock: UVAHIK_clean_linker_0, # of connection points: 2
#     Edge 88, Type (0, 0), BuildingBlock: UVAHIK_clean_linker_0, # of connection points: 2
#     Edge 89, Type (0, 0), BuildingBlock: UVAHIK_clean_linker_0, # of connection points: 2
#     Edge 90, Type (0, 0), BuildingBlock: UVAHIK_clean_linker_0, # of connection points: 2
#     Edge 91, Type (0, 0), BuildingBlock: UVAHIK_clean_linker_0, # of connection points: 2
#     Edge 92, Type (0, 0), BuildingBlock: UVAHIK_clean_linker_0, # of connection points: 2
#     Edge 93, Type (0, 0), BuildingBlock: UVAHIK_clean_linker_0, # of connection points: 2
#     Edge 94, Type (0, 0), BuildingBlock: UVAHIK_clean_linker_0, # of connection points: 2
#     Edge 95, Type (0, 0), BuildingBlock: UVAHIK_clean_linker_0, # of connection points: 2
# Relax obj value: 0.072
# Max RMSD: 0.134
# Mean RMSD: 0.134
data_MOF--net-uox--node1-QUQFOY_clean_sbu_1--edge1-UVAHIK_clean_linker_0
_symmetry_space_group_name_H-M    P1
_symmetry_Int_Tables_number       1
_symmetry_cell_setting            triclinic
loop_
_symmetry_equiv_pos_as_xyz
'x, y, z'
_cell_length_a     60.026886
_cell_length_b     60.00539
_cell_length_c     109.85704
_cell_angle_alpha  90.000934
_cell_angle_beta   90.005214
_cell_angle_gamma 90.006538
loop_
_atom_site_label
_atom_site_type_symbol
_atom_site_fract_x
_atom_site_fract_y
_atom_site_fract_z
_atom_type_partial_charge
O0 O 0.39713 0.00689 0.15863 0.0
Cd1 Cd 0.40633 0.03558 0.16774 0.0
Cd2 Cd 0.43225 0.03985 0.14633 0.0
O3 O 0.42007 0.00843 0.14296 0.0
O4 O 0.39248 0.03095 0.18402 0.0
O5 O 0.42887 0.0331 0.18141 0.0
C6 C 0.41217 0.02996 0.18863 0.0
C7 C 0.46913 0.04774 0.14102 0.0
C8 C 0.40501 0.99841 0.14894 0.0
C9 C 0.39681 0.07461 0.15136 0.0
O10 O 0.41078 0.06619 0.14399 0.0
O11 O 0.39344 0.06572 0.16171 0.0
O12 O 0.45403 0.04433 0.13291 0.0
O13 O 0.46346 0.04605 0.15232 0.0
O14 O 0.23928 0.14468 0.41008 0.0
Cd15 Cd 0.21062 0.15642 0.41825 0.0
Cd16 Cd 0.21019 0.18163 0.39695 0.0
O17 O 0.24178 0.16872 0.39497 0.0
O18 O 0.21241 0.14327 0.43486 0.0
O19 O 0.2134 0.17956 0.43159 0.0
C20 C 0.21432 0.16314 0.43917 0.0
C21 C 0.20378 0.21897 0.39207 0.0
C22 C 0.24979 0.15256 0.40101 0.0
C23 C 0.17322 0.14818 0.40074 0.0
O24 O 0.18351 0.16095 0.39342 0.0
O25 O 0.18041 0.14531 0.41151 0.0
O26 O 0.20804 0.20434 0.38382 0.0
O27 O 0.20387 0.21254 0.4033 0.0
O28 O 0.10228 0.99024 0.66013 0.0
Cd29 Cd 0.09068 0.96193 0.66869 0.0
Cd30 Cd 0.06567 0.96074 0.64743 0.0
O31 O 0.07816 0.99242 0.64505 0.0
O32 O 0.10409 0.96494 0.68518 0.0
O33 O 0.06776 0.96536 0.6821 0.0
C34 C 0.08431 0.96713 0.68955 0.0
C35 C 0.02832 0.95346 0.64305 0.0
C36 C 0.09436 0.00056 0.651 0.0
C37 C 0.09935 0.92411 0.6516 0.0
O38 O 0.08669 0.93423 0.64416 0.0
O39 O 0.10196 0.93148 0.66236 0.0
O40 O 0.04256 0.95759 0.63457 0.0
O41 O 0.03513 0.95424 0.6542 0.0
O42 O 0.25885 0.85149 0.90988 0.0
Cd43 Cd 0.28733 0.84025 0.91841 0.0
Cd44 Cd 0.28827 0.8146 0.8973 0.0
O45 O 0.25641 0.82671 0.89513 0.0
O46 O 0.28443 0.85385 0.93487 0.0
O47 O 0.28412 0.81747 0.9319 0.0
C48 C 0.28233 0.8341 0.93931 0.0
C49 C 0.29583 0.77747 0.89241 0.0
C50 C 0.24834 0.84313 0.90094 0.0
C51 C 0.32461 0.84891 0.90105 0.0
O52 O 0.31438 0.83599 0.89378 0.0
O53 O 0.31758 0.85165 0.91187 0.0
O54 O 0.29122 0.79199 0.88416 0.0
O55 O 0.2954 0.78384 0.90364 0.0
O56 O 0.39492 0.98783 0.34296 0.0
Cd57 Cd 0.40629 0.95904 0.33476 0.0
Cd58 Cd 0.43178 0.95839 0.35598 0.0
O59 O 0.41904 0.99004 0.35805 0.0
O60 O 0.39297 0.96087 0.31819 0.0
O61 O 0.42929 0.96158 0.32135 0.0
C62 C 0.41279 0.96258 0.31381 0.0
C63 C 0.46917 0.95187 0.3607 0.0
C64 C 0.40293 0.99823 0.35203 0.0
C65 C 0.39798 0.92168 0.35232 0.0
O66 O 0.41102 0.93181 0.35957 0.0
O67 O 0.39496 0.92895 0.34157 0.0
O68 O 0.45466 0.95611 0.36902 0.0
O69 O 0.46259 0.95201 0.3495 0.0
O70 O 0.26012 0.1449 0.59334 0.0
Cd71 Cd 0.28853 0.15639 0.58484 0.0
Cd72 Cd 0.28972 0.18162 0.60623 0.0
O73 O 0.25805 0.169 0.60844 0.0
O74 O 0.28558 0.14303 0.56833 0.0
O75 O 0.28525 0.17937 0.57145 0.0
C76 C 0.28345 0.16284 0.56398 0.0
C77 C 0.29637 0.21889 0.61122 0.0
C78 C 0.24982 0.15287 0.60245 0.0
C79 C 0.32632 0.14775 0.602 0.0
O80 O 0.31633 0.16062 0.60939 0.0
O81 O 0.31887 0.14499 0.59126 0.0
O82 O 0.2924 0.20414 0.61945 0.0
O83 O 0.29597 0.2126 0.59997 0.0
O84 O 0.10332 0.00815 0.8435 0.0
Cd85 Cd 0.09201 0.03721 0.83558 0.0
Cd86 Cd 0.06695 0.03761 0.8569 0.0
O87 O 0.07945 0.0058 0.8587 0.0
O88 O 0.10499 0.03562 0.81893 0.0
O89 O 0.06873 0.03512 0.82228 0.0
C90 C 0.08508 0.03413 0.81465 0.0
C91 C 0.02958 0.04428 0.86152 0.0
C92 C 0.09537 0.9976 0.85254 0.0
C93 C 0.10089 0.07418 0.85331 0.0
O94 O 0.08793 0.064 0.86057 0.0
O95 O 0.10367 0.06707 0.84251 0.0
O96 O 0.04395 0.0398 0.86987 0.0
O97 O 0.0363 0.04432 0.85034 0.0
O98 O 0.23997 0.8511 0.09304 0.0
Cd99 Cd 0.21026 0.84154 0.0851 0.0
Cd100 Cd 0.20801 0.81756 0.10709 0.0
O101 O 0.23946 0.8303 0.10961 0.0
O102 O 0.21279 0.85484 0.06856 0.0
O103 O 0.21127 0.81853 0.07161 0.0
C104 C 0.21328 0.835 0.06412 0.0
C105 C 0.20102 0.78031 0.11187 0.0
C106 C 0.24912 0.84442 0.10281 0.0
C107 C 0.17265 0.85221 0.10244 0.0
O108 O 0.1816 0.83873 0.10989 0.0
O109 O 0.18081 0.8549 0.09185 0.0
O110 O 0.20471 0.79496 0.1202 0.0
O111 O 0.20191 0.78669 0.10065 0.0
O112 O 0.59807 0.99275 0.84403 0.0
Cd113 Cd 0.58805 0.96309 0.83617 0.0
Cd114 Cd 0.56455 0.96128 0.85818 0.0
O115 O 0.57761 0.99259 0.86073 0.0
O116 O 0.6014 0.96534 0.81962 0.0
O117 O 0.56508 0.96424 0.82265 0.0
C118 C 0.58158 0.96598 0.81516 0.0
C119 C 0.52707 0.95442 0.86227 0.0
C120 C 0.59172 0.00203 0.85384 0.0
C121 C 0.59852 0.92543 0.85354 0.0
O122 O 0.58538 0.93466 0.86107 0.0
O123 O 0.60106 0.93348 0.84291 0.0
O124 O 0.5412 0.95801 0.87088 0.0
O125 O 0.53411 0.95547 0.85116 0.0
O126 O 0.76272 0.85331 0.59232 0.0
Cd127 Cd 0.79062 0.84016 0.58405 0.0
Cd128 Cd 0.78953 0.81508 0.60492 0.0
O129 O 0.7583 0.82882 0.60706 0.0
O130 O 0.78875 0.85332 0.56745 0.0
O131 O 0.78644 0.81711 0.57078 0.0
C132 C 0.78564 0.83357 0.5632 0.0
C133 C 0.79533 0.77725 0.60871 0.0
C134 C 0.75147 0.84573 0.6012 0.0
C135 C 0.82768 0.84736 0.60168 0.0
O136 O 0.81655 0.83506 0.60887 0.0
O137 O 0.82122 0.85021 0.59076 0.0
O138 O 0.79127 0.79111 0.61739 0.0
O139 O 0.79527 0.78475 0.59768 0.0
O140 O 0.89513 0.01022 0.34284 0.0
Cd141 Cd 0.90648 0.03858 0.33423 0.0
Cd142 Cd 0.93158 0.04028 0.3555 0.0
O143 O 0.91927 0.00853 0.35793 0.0
O144 O 0.89357 0.03514 0.31765 0.0
O145 O 0.92983 0.03533 0.32104 0.0
C146 C 0.91351 0.03317 0.31346 0.0
C147 C 0.96875 0.04749 0.36043 0.0
C148 C 0.90318 0.00011 0.352 0.0
C149 C 0.89737 0.0765 0.35116 0.0
O150 O 0.91032 0.06671 0.35859 0.0
O151 O 0.8947 0.06892 0.34045 0.0
O152 O 0.95407 0.04346 0.36868 0.0
O153 O 0.96247 0.04679 0.34918 0.0
O154 O 0.73704 0.14629 0.09168 0.0
Cd155 Cd 0.70949 0.15941 0.08303 0.0
Cd156 Cd 0.70936 0.18401 0.10439 0.0
O157 O 0.74058 0.17037 0.1067 0.0
O158 O 0.71208 0.14606 0.0665 0.0
O159 O 0.71411 0.18231 0.06971 0.0
C160 C 0.7152 0.16578 0.0622 0.0
C161 C 0.70302 0.22132 0.10936 0.0
C162 C 0.74779 0.15368 0.10078 0.0
C163 C 0.67158 0.15164 0.10008 0.0
O164 O 0.68232 0.16363 0.10759 0.0
O165 O 0.67858 0.14923 0.08923 0.0
O166 O 0.70697 0.20656 0.11759 0.0
O167 O 0.70354 0.21507 0.0981 0.0
O168 O 0.603 0.00998 0.66098 0.0
Cd169 Cd 0.5896 0.03779 0.66923 0.0
Cd170 Cd 0.56573 0.03735 0.64765 0.0
O171 O 0.57962 0.00615 0.64565 0.0
O172 O 0.6024 0.03564 0.68591 0.0
O173 O 0.56627 0.0335 0.68236 0.0
C174 C 0.58255 0.03259 0.69003 0.0
C175 C 0.5284 0.04326 0.64264 0.0
C176 C 0.59602 0.99904 0.65184 0.0
C177 C 0.59776 0.07539 0.65198 0.0
O178 O 0.58597 0.0645 0.64444 0.0
O179 O 0.59995 0.06855 0.66287 0.0
O180 O 0.54318 0.0393 0.63442 0.0
O181 O 0.53466 0.04302 0.65389 0.0
O182 O 0.7398 0.8534 0.4097 0.0
Cd183 Cd 0.71102 0.84188 0.41782 0.0
Cd184 Cd 0.71034 0.81715 0.39632 0.0
O185 O 0.74214 0.8296 0.39446 0.0
O186 O 0.71305 0.85488 0.43445 0.0
O187 O 0.71358 0.81862 0.4311 0.0
C188 C 0.71476 0.83497 0.43872 0.0
C189 C 0.70324 0.78004 0.39121 0.0
C190 C 0.7503 0.84556 0.40061 0.0
C191 C 0.67378 0.85097 0.40034 0.0
O192 O 0.68398 0.8383 0.39294 0.0
O193 O 0.68093 0.85346 0.41115 0.0
O194 O 0.70777 0.79475 0.38304 0.0
O195 O 0.7035 0.78623 0.40248 0.0
O196 O 0.89504 0.98792 0.16049 0.0
Cd197 Cd 0.90843 0.95954 0.16817 0.0
Cd198 Cd 0.93204 0.96084 0.14652 0.0
O199 O 0.91796 0.99203 0.14497 0.0
O200 O 0.89584 0.96027 0.18493 0.0
O201 O 0.9319 0.96288 0.1813 0.0
C202 C 0.91573 0.96291 0.18906 0.0
C203 C 0.96954 0.95559 0.14169 0.0
C204 C 0.90184 0.9991 0.1514 0.0
C205 C 0.9002 0.92261 0.15036 0.0
O206 O 0.91204 0.93367 0.14292 0.0
O207 O 0.89796 0.92919 0.1613 0.0
O208 O 0.95489 0.9597 0.13342 0.0
O209 O 0.96302 0.95523 0.1529 0.0
O210 O 0.75818 0.14928 0.90766 0.0
Cd211 Cd 0.7874 0.15862 0.9162 0.0
Cd212 Cd 0.79091 0.18385 0.89453 0.0
O213 O 0.75953 0.17125 0.89157 0.0
O214 O 0.78404 0.14505 0.93265 0.0
O215 O 0.7859 0.18141 0.92979 0.0
C216 C 0.78354 0.16483 0.93718 0.0
C217 C 0.79794 0.22098 0.88939 0.0
C218 C 0.74953 0.15663 0.89789 0.0
C219 C 0.82593 0.14876 0.89939 0.0
O220 O 0.81745 0.16268 0.89201 0.0
O221 O 0.81715 0.14551 0.90978 0.0
O222 O 0.79463 0.20598 0.8812 0.0
O223 O 0.79672 0.21502 0.90067 0.0
O224 O 0.8943 0.50893 0.65966 0.0
Cd225 Cd 0.90575 0.53815 0.66734 0.0
Cd226 Cd 0.93138 0.53743 0.64649 0.0
O227 O 0.91893 0.50558 0.64489 0.0
O228 O 0.89294 0.53722 0.68405 0.0
O229 O 0.92916 0.53624 0.68056 0.0
C230 C 0.9129 0.53561 0.68826 0.0
C231 C 0.969 0.54413 0.64259 0.0
C232 C 0.90259 0.49785 0.6509 0.0
C233 C 0.8975 0.57429 0.64911 0.0
O234 O 0.91058 0.56361 0.64213 0.0
O235 O 0.89443 0.56784 0.66001 0.0
O236 O 0.95526 0.53928 0.63398 0.0
O237 O 0.9615 0.54445 0.65362 0.0
O238 O 0.73983 0.64726 0.90839 0.0
Cd239 Cd 0.71038 0.65663 0.91668 0.0
Cd240 Cd 0.70811 0.683 0.89564 0.0
O241 O 0.73968 0.67071 0.89292 0.0
O242 O 0.71302 0.64307 0.93316 0.0
O243 O 0.71165 0.67945 0.93025 0.0
C244 C 0.71364 0.66287 0.93767 0.0
C245 C 0.70104 0.72037 0.89105 0.0
C246 C 0.74914 0.65539 0.89899 0.0
C247 C 0.67279 0.64769 0.89923 0.0
O248 O 0.68187 0.66187 0.89223 0.0
O249 O 0.68079 0.64398 0.90976 0.0
O250 O 0.70498 0.70592 0.88266 0.0
O251 O 0.7017 0.71374 0.90223 0.0
O252 O 0.60273 0.48799 0.16099 0.0
Cd253 Cd 0.5892 0.45949 0.16847 0.0
Cd254 Cd 0.56605 0.46098 0.14707 0.0
O255 O 0.57987 0.49229 0.14547 0.0
O256 O 0.60108 0.46006 0.18537 0.0
O257 O 0.56516 0.46262 0.1813 0.0
C258 C 0.58101 0.46259 0.18926 0.0
C259 C 0.52829 0.45515 0.1433 0.0
C260 C 0.59597 0.49928 0.15193 0.0
C261 C 0.59794 0.42288 0.1506 0.0
O262 O 0.58615 0.43404 0.14317 0.0
O263 O 0.59996 0.42926 0.16158 0.0
O264 O 0.54207 0.45948 0.13462 0.0
O265 O 0.53585 0.455 0.15432 0.0
O266 O 0.76111 0.3535 0.41035 0.0
Cd267 Cd 0.78934 0.34006 0.41815 0.0
Cd268 Cd 0.78823 0.31647 0.39647 0.0
O269 O 0.75707 0.33056 0.39483 0.0
O270 O 0.78841 0.35272 0.43489 0.0
O271 O 0.78584 0.31663 0.43129 0.0
C272 C 0.78574 0.33283 0.43903 0.0
C273 C 0.79368 0.27903 0.39154 0.0
C274 C 0.75001 0.34673 0.40122 0.0
C275 C 0.82644 0.34828 0.40048 0.0
O276 O 0.81542 0.33649 0.39299 0.0
O277 O 0.81977 0.35048 0.4114 0.0
O278 O 0.78957 0.29375 0.38331 0.0
O279 O 0.79387 0.28543 0.40277 0.0
O280 O 0.90012 0.49373 0.84321 0.0
Cd281 Cd 0.90972 0.46467 0.83457 0.0
Cd282 Cd 0.9339 0.46145 0.8566 0.0
O283 O 0.92115 0.49271 0.8597 0.0
O284 O 0.8957 0.46864 0.81828 0.0
O285 O 0.93211 0.46692 0.8208 0.0
C286 C 0.91533 0.46971 0.8136 0.0
C287 C 0.97106 0.45386 0.86127 0.0
C288 C 0.90682 0.5025 0.85309 0.0
C289 C 0.89943 0.42611 0.8513 0.0
O290 O 0.91268 0.43495 0.85891 0.0
O291 O 0.8968 0.43461 0.84078 0.0
O292 O 0.95644 0.45719 0.86966 0.0
O293 O 0.96472 0.45558 0.85007 0.0
O294 O 0.76179 0.64493 0.09207 0.0
Cd295 Cd 0.78931 0.65772 0.08327 0.0
Cd296 Cd 0.78992 0.68266 0.10457 0.0
O297 O 0.75868 0.66915 0.10706 0.0
O298 O 0.78634 0.64425 0.06678 0.0
O299 O 0.78469 0.68054 0.06991 0.0
C300 C 0.78333 0.66396 0.06245 0.0
C301 C 0.7964 0.71997 0.10954 0.0
C302 C 0.75125 0.65246 0.10122 0.0
C303 C 0.82742 0.64993 0.10018 0.0
O304 O 0.81694 0.6622 0.10767 0.0
O305 O 0.82019 0.64732 0.08939 0.0
O306 O 0.79258 0.7052 0.11778 0.0
O307 O 0.79571 0.71374 0.09828 0.0
O308 O 0.60269 0.51274 0.34217 0.0
Cd309 Cd 0.58918 0.54031 0.33375 0.0
Cd310 Cd 0.5654 0.54041 0.35528 0.0
O311 O 0.57926 0.50925 0.35748 0.0
O312 O 0.60145 0.53749 0.31699 0.0
O313 O 0.56541 0.53574 0.32089 0.0
C314 C 0.58145 0.5344 0.31309 0.0
C315 C 0.52815 0.54628 0.36051 0.0
C316 C 0.59567 0.502 0.35136 0.0
C317 C 0.59758 0.57829 0.35064 0.0
O318 O 0.5857 0.56763 0.35824 0.0
O319 O 0.59977 0.57118 0.3398 0.0
O320 O 0.54316 0.54261 0.36865 0.0
O321 O 0.53415 0.54586 0.34922 0.0
O322 O 0.73979 0.3511 0.59331 0.0
Cd323 Cd 0.71146 0.33989 0.58461 0.0
Cd324 Cd 0.70957 0.31484 0.60603 0.0
O325 O 0.74131 0.32709 0.60847 0.0
O326 O 0.71495 0.3532 0.56812 0.0
O327 O 0.7147 0.31687 0.57124 0.0
C328 C 0.71686 0.33337 0.56378 0.0
C329 C 0.70204 0.27783 0.61119 0.0
C330 C 0.7498 0.34311 0.60252 0.0
C331 C 0.67346 0.34907 0.6015 0.0
O332 O 0.68323 0.33622 0.60898 0.0
O333 O 0.68109 0.35163 0.59079 0.0
O334 O 0.70616 0.29266 0.61935 0.0
O335 O 0.70289 0.28384 0.59991 0.0
O336 O 0.10391 0.48839 0.34317 0.0
Cd337 Cd 0.0925 0.46001 0.3346 0.0
Cd338 Cd 0.06721 0.45864 0.35577 0.0
O339 O 0.07952 0.4904 0.35813 0.0
O340 O 0.10565 0.46315 0.31806 0.0
O341 O 0.06935 0.46329 0.32131 0.0
C342 C 0.08578 0.4652 0.31378 0.0
C343 C 0.03 0.45135 0.36055 0.0
C344 C 0.09576 0.49866 0.35225 0.0
C345 C 0.10126 0.42223 0.35167 0.0
O346 O 0.08837 0.43223 0.35905 0.0
O347 O 0.104 0.42965 0.34093 0.0
O348 O 0.04454 0.45556 0.36886 0.0
O349 O 0.03643 0.45198 0.34933 0.0
O350 O 0.26022 0.3533 0.09401 0.0
Cd351 Cd 0.28921 0.3419 0.08607 0.0
Cd352 Cd 0.2892 0.31639 0.1073 0.0
O353 O 0.25746 0.32904 0.10901 0.0
O354 O 0.28761 0.35497 0.06943 0.0
O355 O 0.28694 0.31869 0.07275 0.0
C356 C 0.28592 0.33507 0.06514 0.0
C357 C 0.29552 0.27907 0.11226 0.0
C358 C 0.24949 0.3452 0.10295 0.0
C359 C 0.32593 0.35038 0.10393 0.0
O360 O 0.31559 0.3373 0.11106 0.0
O361 O 0.31907 0.35338 0.0931 0.0
O362 O 0.29106 0.29372 0.12047 0.0
O363 O 0.29579 0.28548 0.10104 0.0
O364 O 0.39521 0.50973 0.8426 0.0
Cd365 Cd 0.40832 0.53764 0.83429 0.0
Cd366 Cd 0.43269 0.53717 0.85567 0.0
O367 O 0.41878 0.50603 0.85785 0.0
O368 O 0.39495 0.53566 0.81774 0.0
O369 O 0.43119 0.53348 0.82091 0.0
C370 C 0.41465 0.53268 0.8134 0.0
C371 C 0.47039 0.54293 0.85979 0.0
C372 C 0.40233 0.49885 0.85173 0.0
C373 C 0.40067 0.57525 0.85167 0.0
O374 O 0.41271 0.56441 0.85911 0.0
O375 O 0.39812 0.56834 0.84081 0.0
O376 O 0.45624 0.53915 0.86837 0.0
O377 O 0.46324 0.54259 0.84869 0.0
O378 O 0.23911 0.64778 0.59373 0.0
Cd379 Cd 0.20936 0.65755 0.5859 0.0
Cd380 Cd 0.20822 0.68256 0.60755 0.0
O381 O 0.23962 0.6696 0.60991 0.0
O382 O 0.21133 0.6439 0.56941 0.0
O383 O 0.21048 0.6803 0.57228 0.0
C384 C 0.2121 0.66366 0.56487 0.0
C385 C 0.20155 0.71991 0.61227 0.0
C386 C 0.24875 0.65488 0.60327 0.0
C387 C 0.17226 0.64812 0.60369 0.0
O388 O 0.18177 0.66173 0.61086 0.0
O389 O 0.17988 0.64492 0.59302 0.0
O390 O 0.20556 0.70536 0.62061 0.0
O391 O 0.20202 0.7134 0.60106 0.0
O392 O 0.10249 0.50887 0.15993 0.0
Cd393 Cd 0.09104 0.53766 0.16808 0.0
Cd394 Cd 0.06632 0.53854 0.14654 0.0
O395 O 0.07883 0.50678 0.14461 0.0
O396 O 0.10422 0.53568 0.18467 0.0
O397 O 0.06793 0.53512 0.18145 0.0
C398 C 0.08437 0.53401 0.18901 0.0
C399 C 0.02923 0.54549 0.1414 0.0
C400 C 0.0947 0.49851 0.15078 0.0
C401 C 0.10009 0.57508 0.15067 0.0
O402 O 0.08742 0.56497 0.14323 0.0
O403 O 0.1026 0.56778 0.16145 0.0
O404 O 0.04399 0.54108 0.13325 0.0
O405 O 0.03537 0.54523 0.15268 0.0
O406 O 0.23648 0.35274 0.91164 0.0
Cd407 Cd 0.20864 0.33959 0.91997 0.0
Cd408 Cd 0.20955 0.31466 0.89882 0.0
O409 O 0.24085 0.32832 0.89685 0.0
O410 O 0.21069 0.35291 0.93653 0.0
O411 O 0.21296 0.31668 0.9333 0.0
C412 C 0.21385 0.3332 0.94083 0.0
C413 C 0.20362 0.27718 0.89407 0.0
C414 C 0.24771 0.34518 0.90275 0.0
C415 C 0.17153 0.34708 0.90242 0.0
O416 O 0.18264 0.33494 0.89513 0.0
O417 O 0.17799 0.34967 0.91335 0.0
O418 O 0.20784 0.29173 0.88577 0.0
O419 O 0.20357 0.28374 0.90527 0.0
O420 O 0.39731 0.49137 0.65845 0.0
Cd421 Cd 0.40681 0.46226 0.66708 0.0
Cd422 Cd 0.43246 0.4589 0.64568 0.0
O423 O 0.41984 0.49022 0.64259 0.0
O424 O 0.39329 0.46559 0.68353 0.0
O425 O 0.42964 0.46396 0.68063 0.0
C426 C 0.41308 0.46623 0.68804 0.0
C427 C 0.46965 0.45186 0.64073 0.0
C428 C 0.4049 0.50008 0.64875 0.0
C429 C 0.39747 0.42367 0.65025 0.0
O430 O 0.41144 0.43231 0.64296 0.0
O431 O 0.39401 0.43236 0.66065 0.0
O432 O 0.45482 0.45525 0.63247 0.0
O433 O 0.46351 0.45305 0.65198 0.0
O434 O 0.25921 0.64419 0.41077 0.0
Cd435 Cd 0.28746 0.65587 0.41935 0.0
Cd436 Cd 0.28844 0.6814 0.39818 0.0
O437 O 0.25676 0.66881 0.39594 0.0
O438 O 0.28452 0.64253 0.43587 0.0
O439 O 0.28384 0.67886 0.4327 0.0
C440 C 0.28214 0.66234 0.44019 0.0
C441 C 0.29534 0.71865 0.39327 0.0
C442 C 0.24876 0.65238 0.40176 0.0
C443 C 0.32518 0.64763 0.40218 0.0
O444 O 0.31497 0.66042 0.39484 0.0
O445 O 0.31793 0.6448 0.41295 0.0
O446 O 0.29113 0.704 0.38502 0.0
O447 O 0.29494 0.71231 0.40451 0.0
C448 C 0.39761 0.96665 0.29277 0.0
C449 C 0.4161 0.96662 0.30062 0.0
C450 C 0.40006 0.97194 0.28049 0.0
C451 C 0.43645 0.00207 0.25909 0.0
H452 H 0.39974 0.97199 0.23513 0.0
C453 C 0.43653 0.02221 0.20686 0.0
C454 C 0.41521 0.02395 0.20162 0.0
C455 C 0.43904 0.01471 0.21888 0.0
C456 C 0.41005 0.9806 0.24172 0.0
H457 H 0.4518 0.97177 0.30163 0.0
H458 H 0.45613 0.98088 0.28 0.0
H459 H 0.40029 0.95857 0.25604 0.0
H460 H 0.37982 0.0198 0.20503 0.0
H461 H 0.38424 0.00679 0.22582 0.0
H462 H 0.44602 0.02422 0.24464 0.0
C463 C 0.43969 0.97698 0.28345 0.0
C464 C 0.41036 0.97293 0.25371 0.0
C465 C 0.43724 0.97161 0.29581 0.0
C466 C 0.3965 0.01859 0.20873 0.0
C467 C 0.39902 0.01096 0.22065 0.0
C468 C 0.43624 0.00969 0.24702 0.0
C469 C 0.42107 0.97732 0.27566 0.0
C470 C 0.42308 0.9839 0.26263 0.0
C471 C 0.4203 0.00861 0.22581 0.0
C472 C 0.42257 -0.00063 0.2383 0.0
H473 H 0.38107 0.96297 0.29616 0.0
H474 H 0.38528 0.9724 0.27483 0.0
H475 H 0.44633 0.011 0.26574 0.0
H476 H 0.45126 0.02622 0.20161 0.0
H477 H 0.45564 0.01307 0.22264 0.0
C478 C 0.2731 0.14738 0.54367 0.0
C479 C 0.2775 0.16607 0.551 0.0
C480 C 0.26528 0.14996 0.5318 0.0
C481 C 0.26201 0.18756 0.50575 0.0
H482 H 0.21163 0.15041 0.49695 0.0
C483 C 0.22326 0.18777 0.45712 0.0
C484 C 0.21851 0.16655 0.45234 0.0
C485 C 0.22876 0.19034 0.46945 0.0
C486 C 0.22579 0.16081 0.49921 0.0
H487 H 0.27794 0.2022 0.55141 0.0
H488 H 0.26454 0.20669 0.53043 0.0
H489 H 0.22556 0.14995 0.51776 0.0
H490 H 0.21547 0.13146 0.45684 0.0
H491 H 0.22519 0.13586 0.47811 0.0
H492 H 0.2627 0.19784 0.48706 0.0
C493 C 0.26704 0.19006 0.534 0.0
C494 C 0.23373 0.16057 0.51115 0.0
C495 C 0.27469 0.18748 0.54599 0.0
C496 C 0.21894 0.14808 0.4602 0.0
C497 C 0.22439 0.15063 0.47246 0.0
C498 C 0.25415 0.18768 0.49373 0.0
C499 C 0.26182 0.17128 0.52689 0.0
C500 C 0.25223 0.17353 0.51449 0.0
C501 C 0.22951 0.17174 0.47726 0.0
C502 C 0.23626 0.17387 0.49026 0.0
H503 H 0.27513 0.13064 0.54718 0.0
H504 H 0.26177 0.13519 0.52646 0.0
H505 H 0.27632 0.1977 0.50809 0.0
H506 H 0.2231 0.20234 0.45129 0.0
H507 H 0.23244 0.20686 0.47288 0.0
C508 C 0.06022 0.0258 0.79671 0.0
C509 C 0.08151 0.03032 0.80146 0.0
C510 C 0.0575 0.0206 0.78435 0.0
C511 C 0.08671 0.02411 0.75452 0.0
H512 H 0.04972 0.97375 0.74547 0.0
C513 C 0.09985 0.97743 0.70985 0.0
C514 C 0.08114 0.97306 0.70254 0.0
C515 C 0.09733 0.98514 0.72174 0.0
C516 C 0.05988 0.98802 0.74785 0.0
H517 H 0.11655 0.03329 0.79688 0.0
H518 H 0.11189 0.02411 0.77555 0.0
H519 H 0.04976 0.987 0.76657 0.0
H520 H 0.04502 0.97259 0.70218 0.0
H521 H 0.04063 0.98582 0.7232 0.0
H522 H 0.09742 0.02467 0.73596 0.0
C523 C 0.09719 0.02484 0.78125 0.0
C524 C 0.05987 0.99566 0.75992 0.0
C525 C 0.09989 0.02998 0.79354 0.0
C526 C 0.05976 0.97582 0.70758 0.0
C527 C 0.05724 0.98337 0.71959 0.0
C528 C 0.08684 0.01639 0.74255 0.0
C529 C 0.07601 0.01994 0.77649 0.0
C530 C 0.07372 0.01347 0.76345 0.0
C531 C 0.07604 0.98854 0.72669 0.0
C532 C 0.07385 0.99794 0.73914 0.0
H533 H 0.04572 0.02589 0.80258 0.0
H534 H 0.04093 0.01708 0.78095 0.0
H535 H 0.09715 0.0382 0.75684 0.0
H536 H 0.11657 0.97542 0.70631 0.0
H537 H 0.11213 0.9886 0.72707 0.0
C538 C 0.27311 0.80973 0.95732 0.0
C539 C 0.2764 0.83105 0.9523 0.0
C540 C 0.26538 0.80735 0.96931 0.0
C541 C 0.23284 0.8378 0.99216 0.0
H542 H 0.26032 0.79922 0.01616 0.0
C543 C 0.21842 0.85016 0.04316 0.0
C544 C 0.2172 0.8316 0.05092 0.0
C545 C 0.22377 0.84757 0.03089 0.0
C546 C 0.25218 0.80977 0.00951 0.0
H547 H 0.27488 0.86653 0.95609 0.0
H548 H 0.26143 0.86235 0.97682 0.0
H549 H 0.27408 0.79917 0.99516 0.0
H550 H 0.22026 0.79564 0.05181 0.0
H551 H 0.22946 0.79106 0.03021 0.0
H552 H 0.21104 0.84856 0.00637 0.0
C553 C 0.26458 0.84748 0.97149 0.0
C554 C 0.26012 0.80977 0.99751 0.0
C555 C 0.27244 0.84985 0.95962 0.0
C556 C 0.22103 0.81027 0.04605 0.0
C557 C 0.22646 0.80767 0.03371 0.0
C558 C 0.22483 0.83769 0.00408 0.0
C559 C 0.26058 0.82625 0.97641 0.0
C560 C 0.25089 0.82424 0.9888 0.0
C561 C 0.22802 0.82634 0.026 0.0
C562 C 0.23477 0.82414 0.013 0.0
H563 H 0.276 0.79492 0.95192 0.0
H564 H 0.26247 0.79078 0.97289 0.0
H565 H 0.22506 0.84877 0.98558 0.0
H566 H 0.21566 0.86685 0.04659 0.0
H567 H 0.2252 0.86238 0.0253 0.0
C568 C 0.59686 0.97074 0.7942 0.0
C569 C 0.57826 0.96965 0.80194 0.0
C570 C 0.59435 0.97574 0.78189 0.0
C571 C 0.55659 0.00331 0.76015 0.0
H572 H 0.59613 0.97583 0.73662 0.0
C573 C 0.55766 0.02295 0.70777 0.0
C574 C 0.5791 0.02664 0.70299 0.0
C575 C 0.55496 0.01536 0.71977 0.0
C576 C 0.58499 0.98367 0.74309 0.0
H577 H 0.54229 0.97261 0.80273 0.0
H578 H 0.53784 0.98119 0.78104 0.0
H579 H 0.59565 0.96231 0.75751 0.0
H580 H 0.61443 0.02588 0.70721 0.0
H581 H 0.6097 0.01261 0.72793 0.0
H582 H 0.54609 0.02478 0.74558 0.0
C583 C 0.55443 0.97835 0.7846 0.0
C584 C 0.58473 0.97597 0.75507 0.0
C585 C 0.55696 0.97329 0.79699 0.0
C586 C 0.59767 0.02315 0.71055 0.0
C587 C 0.59499 0.01539 0.72242 0.0
C588 C 0.55672 0.01093 0.74808 0.0
C589 C 0.57314 0.97976 0.77691 0.0
C590 C 0.57102 0.98609 0.76385 0.0
C591 C 0.57367 0.01106 0.72711 0.0
C592 C 0.57139 0.00157 0.73953 0.0
H593 H 0.61354 0.96812 0.79769 0.0
H594 H 0.60919 0.97707 0.77633 0.0
H595 H 0.54591 0.01157 0.76669 0.0
H596 H 0.54301 0.02548 0.70218 0.0
H597 H 0.53833 0.01217 0.72317 0.0
C598 C 0.72013 0.84988 0.45972 0.0
C599 C 0.71907 0.83143 0.45187 0.0
C600 C 0.72574 0.84718 0.47195 0.0
C601 C 0.75479 0.80926 0.49308 0.0
H602 H 0.72793 0.84801 0.51722 0.0
C603 C 0.77581 0.80907 0.54533 0.0
C604 C 0.77963 0.8304 0.55023 0.0
C605 C 0.768 0.80665 0.53336 0.0
C606 C 0.73561 0.83709 0.51057 0.0
H607 H 0.72271 0.79554 0.45079 0.0
H608 H 0.73229 0.79075 0.47232 0.0
H609 H 0.71358 0.8479 0.4965 0.0
H610 H 0.77891 0.86584 0.54624 0.0
H611 H 0.76522 0.86158 0.52556 0.0
H612 H 0.77687 0.79856 0.50734 0.0
C613 C 0.72899 0.80737 0.46892 0.0
C614 C 0.72743 0.83706 0.49869 0.0
C615 C 0.72335 0.81009 0.45661 0.0
C616 C 0.77609 0.84915 0.5428 0.0
C617 C 0.7681 0.84675 0.53096 0.0
C618 C 0.76287 0.80916 0.50506 0.0
C619 C 0.73038 0.82594 0.47672 0.0
C620 C 0.73731 0.82363 0.48969 0.0
C621 C 0.7636 0.82553 0.52617 0.0
C622 C 0.75372 0.82354 0.51383 0.0
H623 H 0.71705 0.86658 0.45639 0.0
H624 H 0.72704 0.86193 0.47759 0.0
H625 H 0.76288 0.7988 0.48638 0.0
H626 H 0.77839 0.79429 0.55082 0.0
H627 H 0.76469 0.79009 0.52987 0.0
C628 C 0.89875 0.02158 0.2932 0.0
C629 C 0.91715 0.02696 0.30055 0.0
C630 C 0.90178 0.01357 0.2814 0.0
C631 C 0.93936 0.01162 0.25542 0.0
H632 H 0.90503 0.95905 0.247 0.0
C633 C 0.94047 0.97285 0.2068 0.0
C634 C 0.91939 0.96698 0.20222 0.0
C635 C 0.94312 0.97837 0.21913 0.0
C636 C 0.91465 0.97381 0.24916 0.0
H637 H 0.95321 0.02893 0.30107 0.0
H638 H 0.95849 0.01522 0.28019 0.0
H639 H 0.90409 0.97325 0.26775 0.0
H640 H 0.8847 0.96189 0.20705 0.0
H641 H 0.88924 0.97165 0.22829 0.0
H642 H 0.94924 0.01267 0.23667 0.0
C643 C 0.94173 0.01709 0.28371 0.0
C644 C 0.91414 0.98189 0.26106 0.0
C645 C 0.9387 0.02491 0.29564 0.0
C646 C 0.9012 0.96626 0.21026 0.0
C647 C 0.90384 0.97173 0.22251 0.0
C648 C 0.93973 0.00361 0.24343 0.0
C649 C 0.92328 0.01091 0.27659 0.0
C650 C 0.92604 0.00118 0.26426 0.0
C651 C 0.92477 0.97802 0.22711 0.0
C652 C 0.9269 0.98493 0.24009 0.0
H653 H 0.8819 0.023 0.29665 0.0
H654 H 0.88724 0.00929 0.27605 0.0
H655 H 0.94867 0.02653 0.25765 0.0
H656 H 0.9548 0.97359 0.20083 0.0
H657 H 0.95951 0.98297 0.2224 0.0
C658 C 0.77751 0.14937 0.95801 0.0
C659 C 0.77941 0.16805 0.95037 0.0
C660 C 0.77225 0.15187 0.9703 0.0
C661 C 0.74551 0.19023 0.99204 0.0
H662 H 0.77162 0.14983 0.01561 0.0
C663 C 0.72539 0.19011 0.04432 0.0
C664 C 0.72134 0.16884 0.04923 0.0
C665 C 0.73309 0.19242 0.03232 0.0
C666 C 0.76414 0.1612 0.00913 0.0
H667 H 0.77759 0.20411 0.94972 0.0
H668 H 0.76855 0.20852 0.97135 0.0
H669 H 0.78525 0.1499 0.99475 0.0
H670 H 0.72158 0.13339 0.04526 0.0
H671 H 0.735 0.13744 0.02452 0.0
H672 H 0.72429 0.20137 0.00657 0.0
C673 C 0.77095 0.1919 0.96774 0.0
C674 C 0.77191 0.16122 0.99717 0.0
C675 C 0.77627 0.18939 0.95538 0.0
C676 C 0.7246 0.15003 0.04181 0.0
C677 C 0.73244 0.15232 0.02994 0.0
C678 C 0.7378 0.1903 0.0041 0.0
C679 C 0.76879 0.17312 0.97534 0.0
C680 C 0.76231 0.17528 0.98838 0.0
C681 C 0.73713 0.17348 0.02511 0.0
C682 C 0.74666 0.17536 0.01267 0.0
H683 H 0.77973 0.13267 0.95447 0.0
H684 H 0.77034 0.137 0.97579 0.0
H685 H 0.73765 0.20119 0.9855 0.0
H686 H 0.72304 0.20492 0.0498 0.0
H687 H 0.73655 0.20893 0.02882 0.0
C688 C 0.93788 0.52703 0.7061 0.0
C689 C 0.91662 0.53199 0.70146 0.0
C690 C 0.9407 0.52188 0.71847 0.0
C691 C 0.91221 0.52627 0.74846 0.0
H692 H 0.94812 0.47505 0.75735 0.0
C693 C 0.89931 0.48063 0.79351 0.0
C694 C 0.91815 0.47552 0.80057 0.0
C695 C 0.90161 0.48819 0.78157 0.0
C696 C 0.93827 0.48956 0.75502 0.0
H697 H 0.88175 0.53586 0.70622 0.0
H698 H 0.88659 0.5268 0.72755 0.0
H699 H 0.94789 0.48814 0.73623 0.0
H700 H 0.95423 0.47358 0.80045 0.0
H701 H 0.95821 0.48658 0.77936 0.0
H702 H 0.90203 0.52728 0.76711 0.0
C703 C 0.90119 0.52712 0.72177 0.0
C704 C 0.93817 0.49711 0.74293 0.0
C705 C 0.89838 0.53219 0.70947 0.0
C706 C 0.93939 0.4774 0.79524 0.0
C707 C 0.94168 0.48481 0.78319 0.0
C708 C 0.9122 0.51865 0.76046 0.0
C709 C 0.92233 0.52172 0.72643 0.0
C710 C 0.92471 0.51525 0.73946 0.0
C711 C 0.92279 0.4907 0.77633 0.0
C712 C 0.92481 0.49991 0.76382 0.0
H713 H 0.95227 0.52669 0.70015 0.0
H714 H 0.95724 0.51798 0.72178 0.0
H715 H 0.90208 0.54061 0.74618 0.0
H716 H 0.88269 0.47931 0.79728 0.0
H717 H 0.88672 0.4922 0.77644 0.0
C718 C 0.77314 0.68823 0.04455 0.0
C719 C 0.77698 0.66696 0.04951 0.0
C720 C 0.76525 0.69052 0.03258 0.0
C721 C 0.73341 0.6595 0.00963 0.0
H722 H 0.76011 0.69892 0.98578 0.0
C723 C 0.7192 0.64748 0.95856 0.0
C724 C 0.71764 0.66612 0.95087 0.0
C725 C 0.72453 0.64999 0.97084 0.0
C726 C 0.75219 0.68813 0.99238 0.0
H727 H 0.77618 0.63148 0.04565 0.0
H728 H 0.76244 0.6355 0.02497 0.0
H729 H 0.77378 0.6991 0.00679 0.0
H730 H 0.72008 0.70215 0.95013 0.0
H731 H 0.72923 0.70659 0.97174 0.0
H732 H 0.71192 0.64838 0.99536 0.0
C733 C 0.7653 0.65039 0.03032 0.0
C734 C 0.76007 0.6882 0.0044 0.0
C735 C 0.77333 0.64812 0.04217 0.0
C736 C 0.72113 0.68745 0.95583 0.0
C737 C 0.72652 0.68998 0.96818 0.0
C738 C 0.72545 0.65953 0.99769 0.0
C739 C 0.76083 0.67156 0.02545 0.0
C740 C 0.75113 0.67345 0.01305 0.0
C741 C 0.72842 0.67123 0.97582 0.0
C742 C 0.73512 0.6734 0.98883 0.0
H743 H 0.77579 0.70307 0.04997 0.0
H744 H 0.76197 0.70704 0.02905 0.0
H745 H 0.72587 0.64829 0.01617 0.0
H746 H 0.71671 0.63079 0.95506 0.0
H747 H 0.72622 0.63514 0.97637 0.0
C748 C 0.55593 0.5252 0.29554 0.0
C749 C 0.57757 0.52782 0.30026 0.0
C750 C 0.55274 0.51707 0.28368 0.0
C751 C 0.58003 0.48155 0.26123 0.0
H752 H 0.54584 0.51229 0.23645 0.0
C753 C 0.59461 0.46559 0.21065 0.0
C754 C 0.57679 0.46651 0.20238 0.0
C755 C 0.59149 0.471 0.22287 0.0
C756 C 0.55507 0.50323 0.24332 0.0
H757 H 0.61278 0.52445 0.29611 0.0
H758 H 0.60716 0.5101 0.27566 0.0
H759 H 0.54604 0.52647 0.25737 0.0
H760 H 0.54149 0.47339 0.20055 0.0
H761 H 0.53593 0.48267 0.22207 0.0
H762 H 0.58925 0.45841 0.24735 0.0
C763 C 0.59269 0.51426 0.28109 0.0
C764 C 0.55522 0.51142 0.25528 0.0
C765 C 0.59588 0.52263 0.2928 0.0
C766 C 0.55556 0.47249 0.2067 0.0
C767 C 0.55241 0.47795 0.219 0.0
C768 C 0.57971 0.47327 0.24937 0.0
C769 C 0.57113 0.51108 0.27647 0.0
C770 C 0.56828 0.50101 0.26424 0.0
C771 C 0.57041 0.47743 0.22722 0.0
C772 C 0.56784 0.4844 0.24016 0.0
H773 H 0.54149 0.52906 0.30106 0.0
H774 H 0.53594 0.5148 0.2803 0.0
H775 H 0.5899 0.47298 0.26804 0.0
H776 H 0.61121 0.46113 0.20765 0.0
H777 H 0.60584 0.47079 0.22884 0.0
C778 C 0.72502 0.3086 0.54576 0.0
C779 C 0.72292 0.33005 0.55082 0.0
C780 C 0.73264 0.30587 0.53378 0.0
C781 C 0.76711 0.33427 0.51106 0.0
H782 H 0.73648 0.29884 0.48675 0.0
C783 C 0.78208 0.34743 0.4602 0.0
C784 C 0.78162 0.3292 0.45219 0.0
C785 C 0.77667 0.34477 0.47245 0.0
C786 C 0.74549 0.30847 0.49349 0.0
H787 H 0.7266 0.3654 0.54713 0.0
H788 H 0.73994 0.36059 0.52642 0.0
H789 H 0.72294 0.2991 0.5078 0.0
H790 H 0.77546 0.29368 0.45084 0.0
H791 H 0.76618 0.28893 0.47242 0.0
H792 H 0.78958 0.34379 0.49691 0.0
C793 C 0.73587 0.3459 0.5317 0.0
C794 C 0.73768 0.30865 0.50552 0.0
C795 C 0.72806 0.34864 0.54356 0.0
C796 C 0.77601 0.30806 0.45679 0.0
C797 C 0.77054 0.30537 0.46913 0.0
C798 C 0.775 0.33395 0.49912 0.0
C799 C 0.73857 0.32451 0.52674 0.0
C800 C 0.74807 0.32206 0.51433 0.0
C801 C 0.77069 0.32376 0.47709 0.0
C802 C 0.76393 0.32157 0.49009 0.0
H803 H 0.72118 0.29395 0.55113 0.0
H804 H 0.73456 0.28919 0.53015 0.0
H805 H 0.77574 0.3444 0.51773 0.0
H806 H 0.78623 0.36398 0.45697 0.0
H807 H 0.77657 0.3594 0.47823 0.0
C808 C 0.06089 0.47388 0.2959 0.0
C809 C 0.08236 0.47119 0.30083 0.0
C810 C 0.05812 0.48154 0.28392 0.0
C811 C 0.08713 0.51509 0.26099 0.0
H812 H 0.04995 0.48578 0.23698 0.0
C813 C 0.09945 0.52953 0.21003 0.0
C814 C 0.08098 0.5299 0.20219 0.0
C815 C 0.09693 0.52417 0.2223 0.0
C816 C 0.06008 0.49442 0.24363 0.0
H817 H 0.11772 0.47378 0.29689 0.0
H818 H 0.11285 0.48716 0.2762 0.0
H819 H 0.05031 0.4722 0.25802 0.0
H820 H 0.0452 0.52529 0.20116 0.0
H821 H 0.04073 0.51607 0.22277 0.0
H822 H 0.09707 0.53721 0.24676 0.0
C823 C 0.09817 0.48355 0.28158 0.0
C824 C 0.06032 0.48659 0.25566 0.0
C825 C 0.10093 0.47573 0.29344 0.0
C826 C 0.05977 0.52518 0.20698 0.0
C827 C 0.05723 0.51975 0.21933 0.0
C828 C 0.08677 0.52299 0.24906 0.0
C829 C 0.07678 0.4869 0.27675 0.0
C830 C 0.07433 0.49649 0.26436 0.0
C831 C 0.07584 0.51907 0.22712 0.0
C832 C 0.07375 0.51239 0.24013 0.0
H833 H 0.04625 0.47052 0.30136 0.0
H834 H 0.04144 0.48395 0.2804 0.0
H835 H 0.09773 0.52334 0.26758 0.0
H836 H 0.11606 0.53299 0.20666 0.0
H837 H 0.11171 0.52342 0.22795 0.0
C838 C 0.27739 0.31022 0.04722 0.0
C839 C 0.28169 0.33156 0.05198 0.0
C840 C 0.27169 0.30753 0.03492 0.0
C841 C 0.27282 0.33731 0.00516 0.0
H842 H 0.22344 0.29859 0.9967 0.0
C843 C 0.22366 0.34899 0.96115 0.0
C844 C 0.22004 0.33017 0.95379 0.0
C845 C 0.23182 0.34671 0.97296 0.0
C846 C 0.23742 0.30925 0.99892 0.0
H847 H 0.28373 0.36671 0.04748 0.0
H848 H 0.27361 0.36211 0.02629 0.0
H849 H 0.23768 0.2989 0.0176 0.0
H850 H 0.22132 0.29406 0.95329 0.0
H851 H 0.23529 0.29007 0.9742 0.0
H852 H 0.27205 0.34825 0.98663 0.0
C853 C 0.27495 0.34735 0.03191 0.0
C854 C 0.24565 0.30939 0.01087 0.0
C855 C 0.28063 0.35002 0.04413 0.0
C856 C 0.22395 0.30888 0.95873 0.0
C857 C 0.23192 0.30659 0.97068 0.0
C858 C 0.26449 0.33731 0.9933 0.0
C859 C 0.27024 0.32612 0.02714 0.0
C860 C 0.26313 0.32383 0.0142 0.0
C861 C 0.2364 0.32554 0.9778 0.0
C862 C 0.2464 0.32366 0.99012 0.0
H863 H 0.27804 0.29566 0.05304 0.0
H864 H 0.26836 0.29092 0.03152 0.0
H865 H 0.28666 0.34821 0.0073 0.0
H866 H 0.22078 0.36564 0.95768 0.0
H867 H 0.23474 0.36159 0.97832 0.0
C868 C 0.39884 0.52406 0.79293 0.0
C869 C 0.41766 0.52694 0.80037 0.0
C870 C 0.40106 0.5165 0.78098 0.0
C871 C 0.43891 0.51136 0.75509 0.0
H872 H 0.39825 0.46424 0.74556 0.0
C873 C 0.43769 0.47344 0.70622 0.0
C874 C 0.41634 0.47038 0.70122 0.0
C875 C 0.44025 0.47868 0.71859 0.0
C876 C 0.40964 0.47749 0.74803 0.0
H877 H 0.45372 0.52495 0.80092 0.0
H878 H 0.45761 0.51196 0.77983 0.0
H879 H 0.39831 0.47755 0.76648 0.0
H880 H 0.38098 0.47018 0.70534 0.0
H881 H 0.38539 0.47944 0.72667 0.0
H882 H 0.44974 0.51174 0.73648 0.0
C883 C 0.44113 0.51547 0.78336 0.0
C884 C 0.40969 0.48508 0.76003 0.0
C885 C 0.4389 0.52288 0.79542 0.0
C886 C 0.39769 0.47232 0.70888 0.0
C887 C 0.40023 0.47751 0.72117 0.0
C888 C 0.43876 0.50384 0.743 0.0
C889 C 0.42216 0.51176 0.77612 0.0
C890 C 0.42395 0.50243 0.76363 0.0
C891 C 0.42151 0.48085 0.7262 0.0
C892 C 0.42372 0.48716 0.73927 0.0
H893 H 0.38223 0.52711 0.7964 0.0
H894 H 0.38616 0.5142 0.77556 0.0
H895 H 0.45006 0.52477 0.75762 0.0
H896 H 0.4524 0.47209 0.70056 0.0
H897 H 0.45688 0.48099 0.7222 0.0
C898 C 0.21709 0.64808 0.54398 0.0
C899 C 0.21599 0.66679 0.55165 0.0
C900 C 0.22251 0.6504 0.5317 0.0
C901 C 0.25128 0.68774 0.51018 0.0
H902 H 0.22437 0.6483 0.4864 0.0
C903 C 0.27262 0.68697 0.45806 0.0
C904 C 0.27602 0.66557 0.45315 0.0
C905 C 0.26477 0.68951 0.47001 0.0
C906 C 0.23208 0.65939 0.49294 0.0
H907 H 0.21929 0.70274 0.55234 0.0
H908 H 0.22857 0.70686 0.53072 0.0
H909 H 0.21016 0.64889 0.50714 0.0
H910 H 0.27451 0.63015 0.4571 0.0
H911 H 0.26083 0.63463 0.47776 0.0
H912 H 0.27329 0.6981 0.49584 0.0
C913 C 0.22545 0.69034 0.53431 0.0
C914 C 0.22397 0.65972 0.50484 0.0
C915 C 0.21997 0.688 0.54666 0.0
C916 C 0.27201 0.64688 0.46054 0.0
C917 C 0.26401 0.64942 0.47238 0.0
C918 C 0.25931 0.68753 0.4982 0.0
C919 C 0.22694 0.67151 0.5267 0.0
C920 C 0.23383 0.67343 0.51371 0.0
C921 C 0.25994 0.67071 0.47719 0.0
C922 C 0.25016 0.6729 0.48955 0.0
H923 H 0.21421 0.63147 0.54751 0.0
H924 H 0.22387 0.63548 0.52621 0.0
H925 H 0.25936 0.69841 0.5168 0.0
H926 H 0.27555 0.7017 0.45259 0.0
H927 H 0.26179 0.70613 0.4735 0.0
C928 C 0.38112 0.96448 0.15139 0.0
C929 C 0.39528 0.97755 0.14411 0.0
C930 C 0.36987 0.94624 0.14642 0.0
C931 C 0.34587 0.92888 0.11784 0.0
H932 H 0.33738 0.87181 0.13372 0.0
C933 C 0.28409 0.8655 0.09825 0.0
C934 C 0.27044 0.85446 0.1067 0.0
C935 C 0.30298 0.87709 0.10212 0.0
C936 C 0.33943 0.88772 0.12921 0.0
H937 H 0.40951 0.98112 0.12605 0.0
H938 H 0.38952 0.94945 0.11735 0.0
H939 H 0.36404 0.89851 0.1421 0.0
H940 H 0.26631 0.84622 0.12578 0.0
H941 H 0.29865 0.86715 0.13261 0.0
H942 H 0.32051 0.91896 0.10539 0.0
C943 C 0.38721 0.95335 0.1269 0.0
C944 C 0.35479 0.90292 0.13398 0.0
C945 C 0.39869 0.97142 0.1319 0.0
C946 C 0.27655 0.85451 0.11904 0.0
C947 C 0.29523 0.86643 0.12295 0.0
C948 C 0.33031 0.91387 0.11318 0.0
C949 C 0.37236 0.94088 0.13405 0.0
C950 C 0.35793 0.92375 0.12841 0.0
C951 C 0.30843 0.87828 0.11457 0.0
C952 C 0.32663 0.8932 0.11889 0.0
H953 H 0.37822 0.9687 0.16085 0.0
H954 H 0.35839 0.93699 0.15211 0.0
H955 H 0.34771 0.94497 0.11348 0.0
H956 H 0.27995 0.86551 0.08865 0.0
H957 H 0.31304 0.88552 0.09536 0.0
C958 C 0.27762 0.12162 0.40228 0.0
C959 C 0.27073 0.14179 0.39699 0.0
C960 C 0.29601 0.11015 0.39768 0.0
C961 C 0.32812 0.104 0.36933 0.0
H962 H 0.3646 0.06592 0.3897 0.0
C963 C 0.40134 0.03157 0.36582 0.0
C964 C 0.39235 0.01924 0.35611 0.0
C965 C 0.39008 0.05017 0.3704 0.0
C966 C 0.3549 0.07674 0.38386 0.0
H967 H 0.27851 0.16636 0.38313 0.0
H968 H 0.31096 0.14655 0.37528 0.0
H969 H 0.33931 0.09246 0.3991 0.0
H970 H 0.36487 0.01729 0.34331 0.0
H971 H 0.34505 0.0492 0.35145 0.0
H972 H 0.34383 0.0884 0.35408 0.0
C973 C 0.3018 0.13933 0.3828 0.0
C974 C 0.34014 0.09176 0.38926 0.0
C975 C 0.28327 0.15075 0.38735 0.0
C976 C 0.3723 0.02641 0.35079 0.0
C977 C 0.36099 0.04487 0.35542 0.0
C978 C 0.34303 0.08913 0.36392 0.0
C979 C 0.30811 0.11865 0.38775 0.0
C980 C 0.32608 0.1051 0.38207 0.0
C981 C 0.36952 0.05677 0.36542 0.0
C982 C 0.35612 0.07483 0.37111 0.0
H983 H 0.26834 0.11421 0.4097 0.0
H984 H 0.30012 0.09412 0.40162 0.0
H985 H 0.31749 0.11389 0.36348 0.0
H986 H 0.41686 0.02661 0.37006 0.0
H987 H 0.39732 0.05917 0.37797 0.0
C988 C 0.1251 0.02858 0.65228 0.0
C989 C 0.10513 0.02144 0.64687 0.0
C990 C 0.13658 0.04695 0.64769 0.0
C991 C 0.1434 0.07865 0.61925 0.0
H992 H 0.18081 0.11545 0.63983 0.0
C993 C 0.22166 0.12225 0.60124 0.0
C994 C 0.22879 0.14235 0.60652 0.0
C995 C 0.20302 0.1111 0.60576 0.0
C996 C 0.17018 0.10567 0.63392 0.0
H997 H 0.08095 0.02874 0.63274 0.0
H998 H 0.10078 0.06119 0.62487 0.0
H999 H 0.15393 0.09035 0.64907 0.0
H1000 H 0.22124 0.16708 0.62032 0.0
H1001 H 0.18835 0.14784 0.62805 0.0
H1002 H 0.15952 0.09411 0.60409 0.0
C1003 C 0.10782 0.05223 0.63251 0.0
C1004 C 0.15496 0.09101 0.63924 0.0
C1005 C 0.0964 0.0337 0.63707 0.0
C1006 C 0.2163 0.15152 0.61611 0.0
C1007 C 0.19751 0.14043 0.62058 0.0
C1008 C 0.15847 0.09347 0.61392 0.0
C1009 C 0.1283 0.05881 0.63762 0.0
C1010 C 0.14189 0.0768 0.63198 0.0
C1011 C 0.1909 0.11985 0.61562 0.0
C1012 C 0.17255 0.10666 0.62119 0.0
H1013 H 0.13235 0.01952 0.65984 0.0
H1014 H 0.15245 0.05125 0.65174 0.0
H1015 H 0.13372 0.06791 0.61335 0.0
H1016 H 0.2309 0.11467 0.59385 0.0
H1017 H 0.19871 0.09513 0.60182 0.0
C1018 C 0.09659 0.96368 0.8659 0.0
C1019 C 0.10579 0.97638 0.8564 0.0
C1020 C 0.1077 0.94485 0.8703 0.0
C1021 C 0.15499 0.90617 0.8637 0.0
H1022 H 0.15796 0.90173 0.89886 0.0
C1023 C 0.21514 0.84468 0.88703 0.0
C1024 C 0.22734 0.85365 0.8968 0.0
C1025 C 0.19652 0.85591 0.88244 0.0
C1026 C 0.15734 0.90273 0.88902 0.0
H1027 H 0.13346 0.97874 0.84375 0.0
H1028 H 0.15304 0.94644 0.85159 0.0
H1029 H 0.13267 0.92835 0.88955 0.0
H1030 H 0.22904 0.88103 0.90968 0.0
H1031 H 0.19714 0.90077 0.90153 0.0
H1032 H 0.18077 0.88165 0.86319 0.0
C1033 C 0.13705 0.95065 0.85553 0.0
C1034 C 0.14257 0.9178 0.88367 0.0
C1035 C 0.12588 0.96934 0.85108 0.0
C1036 C 0.22004 0.87362 0.90215 0.0
C1037 C 0.20157 0.88489 0.89752 0.0
C1038 C 0.16991 0.89125 0.86906 0.0
C1039 C 0.12833 0.93839 0.86535 0.0
C1040 C 0.14163 0.92014 0.87094 0.0
C1041 C 0.18979 0.87639 0.88748 0.0
C1042 C 0.1717 0.88978 0.8818 0.0
H1043 H 0.08103 0.96854 0.87013 0.0
H1044 H 0.1003 0.93557 0.87773 0.0
H1045 H 0.1544 0.90722 0.85386 0.0
H1046 H 0.22022 0.82924 0.88276 0.0
H1047 H 0.18763 0.84872 0.87481 0.0
C1048 C 0.72188 0.14997 0.88122 0.0
C1049 C 0.72848 0.14682 0.89338 0.0
C1050 C 0.70356 0.13849 0.87651 0.0
C1051 C 0.65317 0.10668 0.8844 0.0
H1052 H 0.66755 0.07199 0.85569 0.0
C1053 C 0.60279 0.02926 0.86999 0.0
C1054 C 0.6022 0.0232 0.85764 0.0
C1055 C 0.61519 0.0477 0.87378 0.0
C1056 C 0.66293 0.08191 0.86352 0.0
H1057 H 0.7202 0.1302 0.91033 0.0
H1058 H 0.68804 0.11035 0.90211 0.0
H1059 H 0.69427 0.09885 0.86342 0.0
H1060 H 0.61278 0.03258 0.83949 0.0
H1061 H 0.63361 0.06528 0.84602 0.0
H1062 H 0.62181 0.08974 0.88454 0.0
C1063 C 0.69713 0.12163 0.89623 0.0
C1064 C 0.67835 0.09726 0.86798 0.0
C1065 C 0.71563 0.1329 0.90091 0.0
C1066 C 0.61318 0.03668 0.84909 0.0
C1067 C 0.62525 0.05534 0.85286 0.0
C1068 C 0.63756 0.09152 0.87984 0.0
C1069 C 0.69129 0.12388 0.88391 0.0
C1070 C 0.6738 0.1095 0.87858 0.0
C1071 C 0.627 0.06071 0.86529 0.0
C1072 C 0.64242 0.0786 0.86947 0.0
H1073 H 0.73138 0.16061 0.87518 0.0
H1074 H 0.69928 0.14063 0.867 0.0
H1075 H 0.64922 0.11606 0.89254 0.0
H1076 H 0.59456 0.01913 0.8768 0.0
H1077 H 0.61632 0.05107 0.88345 0.0
C1078 C 0.60099 0.96622 0.63787 0.0
C1079 C 0.60838 0.97898 0.64783 0.0
C1080 C 0.61421 0.94898 0.63323 0.0
C1081 C 0.67248 0.93528 0.62995 0.0
H1082 H 0.65317 0.87567 0.62122 0.0
C1083 C 0.72621 0.87877 0.60018 0.0
C1084 C 0.73139 0.85793 0.60531 0.0
C1085 C 0.7091 0.89176 0.605 0.0
C1086 C 0.6587 0.89227 0.62363 0.0
H1087 H 0.6349 0.9828 0.66113 0.0
H1088 H 0.65793 0.953 0.65292 0.0
H1089 H 0.62693 0.90138 0.63117 0.0
H1090 H 0.7217 0.83381 0.61905 0.0
H1091 H 0.69148 0.85658 0.62738 0.0
H1092 H 0.70405 0.92649 0.62234 0.0
C1093 C 0.64198 0.95641 0.6487 0.0
C1094 C 0.64374 0.90694 0.62926 0.0
C1095 C 0.62873 0.97343 0.6534 0.0
C1096 C 0.71821 0.84984 0.61493 0.0
C1097 C 0.70087 0.86279 0.61968 0.0
C1098 C 0.68725 0.92082 0.62418 0.0
C1099 C 0.6351 0.94438 0.63841 0.0
C1100 C 0.65059 0.92852 0.63252 0.0
C1101 C 0.69661 0.88412 0.61496 0.0
C1102 C 0.68053 0.8992 0.62097 0.0
H1103 H 0.58535 0.97 0.6334 0.0
H1104 H 0.60858 0.93996 0.62526 0.0
H1105 H 0.67811 0.95191 0.63226 0.0
H1106 H 0.73592 0.8855 0.59273 0.0
H1107 H 0.70595 0.90806 0.60113 0.0
C1108 C 0.78401 0.84719 0.38711 0.0
C1109 C 0.77138 0.85618 0.3967 0.0
C1110 C 0.80269 0.8585 0.38267 0.0
C1111 C 0.84105 0.90606 0.3893 0.0
H1112 H 0.8451 0.90942 0.35413 0.0
C1113 C 0.90178 0.967 0.36597 0.0
C1114 C 0.89273 0.97912 0.3562 0.0
C1115 C 0.89071 0.94829 0.37057 0.0
C1116 C 0.8442 0.9087 0.36397 0.0
H1117 H 0.76901 0.88369 0.40946 0.0
H1118 H 0.80102 0.90362 0.40155 0.0
H1119 H 0.81881 0.88379 0.36344 0.0
H1120 H 0.86532 0.98061 0.34333 0.0
H1121 H 0.84583 0.94856 0.3515 0.0
H1122 H 0.86533 0.93208 0.38981 0.0
C1123 C 0.79688 0.88764 0.39757 0.0
C1124 C 0.82933 0.89373 0.36933 0.0
C1125 C 0.77835 0.87626 0.40206 0.0
C1126 C 0.8728 0.97167 0.35086 0.0
C1127 C 0.86168 0.95311 0.3555 0.0
C1128 C 0.85577 0.92119 0.38394 0.0
C1129 C 0.80906 0.87912 0.38767 0.0
C1130 C 0.82713 0.89265 0.38206 0.0
C1131 C 0.87029 0.94138 0.36553 0.0
C1132 C 0.85709 0.92313 0.3712 0.0
H1133 H 0.7792 0.83163 0.38284 0.0
H1134 H 0.81191 0.85126 0.37518 0.0
H1135 H 0.84013 0.90536 0.39913 0.0
H1136 H 0.91721 0.97219 0.37023 0.0
H1137 H 0.898 0.93944 0.37818 0.0
C1138 C 0.77301 0.12059 0.10006 0.0
C1139 C 0.76769 0.14145 0.10512 0.0
C1140 C 0.78989 0.10756 0.10508 0.0
C1141 C 0.83967 0.1069 0.12411 0.0
H1142 H 0.8199 0.04731 0.1326 0.0
C1143 C 0.89698 0.03251 0.13787 0.0
C1144 C 0.88958 0.0194 0.14768 0.0
C1145 C 0.88384 0.04999 0.13345 0.0
C1146 C 0.82562 0.06394 0.13034 0.0
H1147 H 0.77688 0.16553 0.11898 0.0
H1148 H 0.80673 0.14269 0.12767 0.0
H1149 H 0.79418 0.07291 0.12262 0.0
H1150 H 0.86312 0.0152 0.16098 0.0
H1151 H 0.84019 0.04544 0.15315 0.0
H1152 H 0.87133 0.0976 0.1317 0.0
C1153 C 0.79762 0.1365 0.11985 0.0
C1154 C 0.81098 0.07849 0.12455 0.0
C1155 C 0.7805 0.1495 0.11491 0.0
C1156 C 0.8693 0.02484 0.15336 0.0
C1157 C 0.8561 0.04212 0.14887 0.0
C1158 C 0.85451 0.09214 0.12976 0.0
C1159 C 0.802 0.11517 0.11518 0.0
C1160 C 0.81786 0.10006 0.12135 0.0
C1161 C 0.86299 0.05449 0.1387 0.0
C1162 C 0.84753 0.07055 0.13296 0.0
H1163 H 0.76358 0.11389 0.09249 0.0
H1164 H 0.79315 0.09124 0.10125 0.0
H1165 H 0.84532 0.12347 0.12171 0.0
H1166 H 0.91258 0.02882 0.13333 0.0
H1167 H 0.88947 0.05926 0.12557 0.0
C1168 C 0.78249 0.34492 0.61677 0.0
C1169 C 0.77073 0.35361 0.60677 0.0
C1170 C 0.80103 0.35615 0.62144 0.0
C1171 C 0.8275 0.39171 0.63472 0.0
H1172 H 0.8659 0.42766 0.61424 0.0
C1173 C 0.87171 0.46998 0.65233 0.0
C1174 C 0.89209 0.4766 0.64717 0.0
C1175 C 0.8605 0.45125 0.64795 0.0
C1176 C 0.85567 0.41743 0.62013 0.0
H1177 H 0.76977 0.38051 0.59357 0.0
H1178 H 0.80156 0.40027 0.60185 0.0
H1179 H 0.84065 0.40097 0.60495 0.0
H1180 H 0.91729 0.46795 0.63382 0.0
H1181 H 0.89793 0.43492 0.62637 0.0
H1182 H 0.84262 0.40807 0.64991 0.0
C1183 C 0.79683 0.38459 0.60598 0.0
C1184 C 0.84092 0.40233 0.61477 0.0
C1185 C 0.77842 0.37331 0.60128 0.0
C1186 C 0.90151 0.46343 0.63792 0.0
C1187 C 0.89035 0.44456 0.6336 0.0
C1188 C 0.84239 0.40667 0.64008 0.0
C1189 C 0.80815 0.37637 0.61625 0.0
C1190 C 0.82616 0.3898 0.62198 0.0
C1191 C 0.86946 0.43853 0.63838 0.0
C1192 C 0.85616 0.42022 0.63284 0.0
H1193 H 0.7771 0.32968 0.62116 0.0
H1194 H 0.80958 0.34916 0.62924 0.0
H1195 H 0.81632 0.38244 0.64057 0.0
H1196 H 0.86395 0.47974 0.65945 0.0
H1197 H 0.84431 0.44737 0.65174 0.0
C1198 C 0.88579 0.53765 0.84899 0.0
C1199 C 0.89649 0.52347 0.8573 0.0
C1200 C 0.87379 0.55611 0.8531 0.0
C1201 C 0.86106 0.59029 0.88081 0.0
H1202 H 0.80499 0.59952 0.86402 0.0
C1203 C 0.78259 0.63097 0.90191 0.0
C1204 C 0.7703 0.64569 0.89456 0.0
C1205 C 0.80114 0.61983 0.89722 0.0
C1206 C 0.82074 0.59739 0.86869 0.0
H1207 H 0.90372 0.51791 0.87639 0.0
H1208 H 0.88205 0.54949 0.88362 0.0
H1209 H 0.83163 0.57296 0.85595 0.0
H1210 H 0.76847 0.66103 0.87669 0.0
H1211 H 0.80066 0.64125 0.86847 0.0
H1212 H 0.84924 0.61397 0.89395 0.0
C1213 C 0.88336 0.54684 0.8739 0.0
C1214 C 0.83612 0.58221 0.86405 0.0
C1215 C 0.89572 0.52861 0.86977 0.0
C1216 C 0.77753 0.64976 0.88259 0.0
C1217 C 0.7959 0.6384 0.87786 0.0
C1218 C 0.84546 0.60526 0.88556 0.0
C1219 C 0.87181 0.56056 0.86563 0.0
C1220 C 0.85641 0.57824 0.8701 0.0
C1221 C 0.80759 0.623 0.88506 0.0
C1222 C 0.82507 0.60877 0.8796 0.0
H1223 H 0.88635 0.53425 0.83931 0.0
H1224 H 0.86567 0.56662 0.84643 0.0
H1225 H 0.87664 0.58799 0.88561 0.0
H1226 H 0.77751 0.62756 0.91119 0.0
H1227 H 0.80979 0.60792 0.90294 0.0
C1228 C 0.71862 0.6487 0.11543 0.0
C1229 C 0.73132 0.64041 0.10566 0.0
C1230 C 0.70142 0.63591 0.12046 0.0
C1231 C 0.68756 0.5781 0.12544 0.0
H1232 H 0.62721 0.59765 0.13224 0.0
C1233 C 0.62848 0.52502 0.15408 0.0
C1234 C 0.60831 0.51959 0.14829 0.0
C1235 C 0.64181 0.54224 0.14965 0.0
C1236 C 0.64404 0.59207 0.1304 0.0
H1237 H 0.73517 0.61262 0.09316 0.0
H1238 H 0.70548 0.59032 0.10206 0.0
H1239 H 0.65354 0.62323 0.12225 0.0
H1240 H 0.58562 0.529 0.13379 0.0
H1241 H 0.60897 0.55934 0.12612 0.0
H1242 H 0.67834 0.5471 0.13358 0.0
C1243 C 0.70888 0.60667 0.10582 0.0
C1244 C 0.65905 0.60667 0.12475 0.0
C1245 C 0.72583 0.61951 0.10071 0.0
C1246 C 0.60113 0.53268 0.13841 0.0
C1247 C 0.61441 0.5501 0.13405 0.0
C1248 C 0.67275 0.56372 0.13124 0.0
C1249 C 0.69685 0.61454 0.11589 0.0
C1250 C 0.68085 0.59966 0.12211 0.0
C1251 C 0.63517 0.55457 0.13942 0.0
C1252 C 0.65083 0.5705 0.13372 0.0
H1253 H 0.72237 0.66478 0.11942 0.0
H1254 H 0.69237 0.64228 0.12825 0.0
H1255 H 0.70435 0.57239 0.12361 0.0
H1256 H 0.63448 0.5154 0.16175 0.0
H1257 H 0.65766 0.54554 0.15402 0.0
C1258 C 0.72451 0.37949 0.40303 0.0
C1259 C 0.72983 0.35911 0.39742 0.0
C1260 C 0.70738 0.39278 0.39847 0.0
C1261 C 0.65736 0.39459 0.37947 0.0
H1262 H 0.67694 0.45475 0.37215 0.0
C1263 C 0.60018 0.4691 0.36532 0.0
C1264 C 0.60798 0.48201 0.35551 0.0
C1265 C 0.61322 0.45181 0.37005 0.0
C1266 C 0.67126 0.43799 0.37412 0.0
H1267 H 0.72035 0.33605 0.38311 0.0
H1268 H 0.69012 0.35932 0.37523 0.0
H1269 H 0.70253 0.42882 0.38197 0.0
H1270 H 0.63513 0.48616 0.34263 0.0
H1271 H 0.65787 0.4563 0.35103 0.0
H1272 H 0.62591 0.40404 0.37166 0.0
C1273 C 0.6994 0.36496 0.38311 0.0
C1274 C 0.68582 0.42324 0.37982 0.0
C1275 C 0.71675 0.35171 0.38759 0.0
C1276 C 0.62863 0.47664 0.35022 0.0
C1277 C 0.64171 0.45959 0.35504 0.0
C1278 C 0.6426 0.40954 0.37392 0.0
C1279 C 0.69502 0.38588 0.3883 0.0
C1280 C 0.67905 0.4014 0.38253 0.0
C1281 C 0.63435 0.44736 0.36515 0.0
C1282 C 0.64954 0.43131 0.37111 0.0
H1283 H 0.73415 0.38566 0.41065 0.0
H1284 H 0.70415 0.40876 0.40271 0.0
H1285 H 0.65179 0.37782 0.38149 0.0
H1286 H 0.5843 0.47274 0.36956 0.0
H1287 H 0.60723 0.44261 0.37788 0.0
C1288 C 0.09719 0.53184 0.36617 0.0
C1289 C 0.10626 0.51964 0.35644 0.0
C1290 C 0.10835 0.55048 0.37079 0.0
C1291 C 0.15526 0.5897 0.36439 0.0
H1292 H 0.15902 0.59279 0.39957 0.0
C1293 C 0.21541 0.65083 0.38797 0.0
C1294 C 0.22786 0.64171 0.3976 0.0
C1295 C 0.19681 0.63957 0.38338 0.0
C1296 C 0.15818 0.59216 0.38973 0.0
H1297 H 0.13378 0.51794 0.34365 0.0
H1298 H 0.15341 0.54988 0.35186 0.0
H1299 H 0.1337 0.56634 0.39012 0.0
H1300 H 0.23006 0.61395 0.41021 0.0
H1301 H 0.1982 0.59413 0.40203 0.0
H1302 H 0.18084 0.61443 0.36398 0.0
C1303 C 0.13749 0.54544 0.35581 0.0
C1304 C 0.14339 0.57719 0.3843 0.0
C1305 C 0.12628 0.52695 0.35115 0.0
C1306 C 0.22085 0.62149 0.4028 0.0
C1307 C 0.20241 0.61018 0.39816 0.0
C1308 C 0.17019 0.60452 0.36982 0.0
C1309 C 0.12887 0.55724 0.36582 0.0
C1310 C 0.14218 0.57534 0.37155 0.0
C1311 C 0.19036 0.61888 0.38826 0.0
C1312 C 0.17227 0.60551 0.38256 0.0
H1313 H 0.0817 0.52676 0.37039 0.0
H1314 H 0.10105 0.55939 0.37838 0.0
H1315 H 0.15444 0.58904 0.35454 0.0
H1316 H 0.22025 0.66647 0.38382 0.0
H1317 H 0.18771 0.64693 0.37588 0.0
C1318 C 0.21557 0.34653 0.1163 0.0
C1319 C 0.22833 0.35571 0.1068 0.0
C1320 C 0.19678 0.35771 0.12069 0.0
C1321 C 0.15823 0.40501 0.11402 0.0
H1322 H 0.15362 0.40815 0.14918 0.0
C1323 C 0.09647 0.46511 0.13705 0.0
C1324 C 0.10528 0.47744 0.14681 0.0
C1325 C 0.10778 0.44646 0.13256 0.0
C1326 C 0.15467 0.40748 0.13934 0.0
H1327 H 0.23083 0.38343 0.09419 0.0
H1328 H 0.1986 0.40312 0.10202 0.0
H1329 H 0.18032 0.38284 0.13994 0.0
H1330 H 0.13244 0.47931 0.15981 0.0
H1331 H 0.15235 0.44733 0.15184 0.0
H1332 H 0.13368 0.43075 0.11344 0.0
C1333 C 0.20275 0.3871 0.10595 0.0
C1334 C 0.16979 0.3927 0.13403 0.0
C1335 C 0.22139 0.37586 0.1015 0.0
C1336 C 0.12516 0.4702 0.15229 0.0
C1337 C 0.13652 0.4517 0.14775 0.0
C1338 C 0.14326 0.41994 0.11934 0.0
C1339 C 0.19043 0.37838 0.11574 0.0
C1340 C 0.17218 0.39171 0.1213 0.0
C1341 C 0.1282 0.43982 0.13769 0.0
C1342 C 0.14172 0.42177 0.13207 0.0
H1343 H 0.22035 0.33093 0.12051 0.0
H1344 H 0.18746 0.35034 0.12811 0.0
H1345 H 0.15933 0.40438 0.10419 0.0
H1346 H 0.08109 0.47013 0.13269 0.0
H1347 H 0.1007 0.43748 0.12494 0.0
C1348 C 0.39762 0.46605 0.86574 0.0
C1349 C 0.39007 0.47877 0.8558 0.0
C1350 C 0.38452 0.44877 0.87043 0.0
C1351 C 0.32634 0.43489 0.87393 0.0
H1352 H 0.34589 0.37531 0.88255 0.0
C1353 C 0.27302 0.37819 0.9038 0.0
C1354 C 0.26779 0.35738 0.89864 0.0
C1355 C 0.2901 0.39121 0.89896 0.0
C1356 C 0.34029 0.39191 0.88018 0.0
H1357 H 0.36338 0.48247 0.84259 0.0
H1358 H 0.34054 0.4526 0.85089 0.0
H1359 H 0.37195 0.4011 0.87252 0.0
H1360 H 0.27739 0.33334 0.88484 0.0
H1361 H 0.30755 0.35618 0.87648 0.0
H1362 H 0.29489 0.42601 0.88166 0.0
C1363 C 0.35653 0.45607 0.85506 0.0
C1364 C 0.35515 0.40662 0.8745 0.0
C1365 C 0.36967 0.47314 0.8503 0.0
C1366 C 0.28091 0.34934 0.88898 0.0
C1367 C 0.29822 0.36233 0.88422 0.0
C1368 C 0.31168 0.42039 0.87975 0.0
C1369 C 0.36358 0.44409 0.86533 0.0
C1370 C 0.34821 0.42819 0.87128 0.0
C1371 C 0.3025 0.38363 0.88896 0.0
C1372 C 0.31849 0.39878 0.88292 0.0
H1373 H 0.4133 0.46989 0.87014 0.0
H1374 H 0.39027 0.43978 0.87838 0.0
H1375 H 0.32065 0.45151 0.87165 0.0
H1376 H 0.26336 0.38486 0.91129 0.0
H1377 H 0.29326 0.40749 0.90286 0.0
C1378 C 0.39819 0.52733 0.63189 0.0
C1379 C 0.39497 0.52097 0.64409 0.0
C1380 C 0.38652 0.54538 0.62702 0.0
C1381 C 0.35411 0.59558 0.63431 0.0
H1382 H 0.31932 0.57954 0.6059 0.0
C1383 C 0.27627 0.64478 0.61944 0.0
C1384 C 0.26999 0.64465 0.60713 0.0
C1385 C 0.29482 0.63267 0.62334 0.0
C1386 C 0.32926 0.58464 0.61364 0.0
H1387 H 0.37805 0.52942 0.66092 0.0
H1388 H 0.3579 0.56116 0.65241 0.0
H1389 H 0.34652 0.55346 0.61391 0.0
H1390 H 0.27905 0.63309 0.58911 0.0
H1391 H 0.31198 0.6128 0.59579 0.0
H1392 H 0.33692 0.6268 0.63406 0.0
C1393 C 0.36937 0.55207 0.64664 0.0
C1394 C 0.3448 0.56958 0.61826 0.0
C1395 C 0.3808 0.53382 0.65148 0.0
C1396 C 0.28334 0.63324 0.59869 0.0
C1397 C 0.30213 0.62147 0.60255 0.0
C1398 C 0.33878 0.61085 0.62958 0.0
C1399 C 0.37167 0.55762 0.63428 0.0
C1400 C 0.35708 0.57473 0.62876 0.0
C1401 C 0.30774 0.62045 0.61498 0.0
C1402 C 0.32582 0.60539 0.61931 0.0
H1403 H 0.409 0.51781 0.62596 0.0
H1404 H 0.38868 0.54944 0.61748 0.0
H1405 H 0.36352 0.59998 0.64238 0.0
H1406 H 0.26624 0.65335 0.62617 0.0
H1407 H 0.29836 0.6321 0.633 0.0
C1408 C 0.386 0.10279 0.13563 0.0
C1409 C 0.38418 0.09471 0.14761 0.0
C1410 C 0.37408 0.12157 0.13193 0.0
C1411 C 0.34767 0.17223 0.1436 0.0
H1412 H 0.31904 0.17358 0.11195 0.0
C1413 C 0.29816 0.24898 0.1279 0.0
C1414 C 0.30145 0.25605 0.11584 0.0
C1415 C 0.30581 0.22817 0.13175 0.0
C1416 C 0.32711 0.17355 0.12076 0.0
H1417 H 0.36831 0.10014 0.1651 0.0
H1418 H 0.34755 0.13315 0.15862 0.0
H1419 H 0.33722 0.13949 0.11889 0.0
H1420 H 0.31471 0.24656 0.09824 0.0
H1421 H 0.3285 0.21035 0.105 0.0
H1422 H 0.33814 0.20637 0.1454 0.0
C1423 C 0.35829 0.12487 0.15212 0.0
C1424 C 0.33748 0.15401 0.12475 0.0
C1425 C 0.37012 0.10593 0.15582 0.0
C1426 C 0.31186 0.24154 0.10758 0.0
C1427 C 0.31969 0.22074 0.11146 0.0
C1428 C 0.33742 0.1918 0.13959 0.0
C1429 C 0.36013 0.13285 0.14012 0.0
C1430 C 0.34802 0.15319 0.13618 0.0
C1431 C 0.31713 0.21399 0.12366 0.0
C1432 C 0.32713 0.19277 0.12809 0.0
H1433 H 0.39664 0.09458 0.12905 0.0
H1434 H 0.3761 0.12748 0.12268 0.0
H1435 H 0.35592 0.17222 0.15237 0.0
H1436 H 0.29 0.25969 0.13446 0.0
H1437 H 0.30309 0.22333 0.14113 0.0
C1438 C 0.14032 0.12328 0.40462 0.0
C1439 C 0.1529 0.1364 0.39655 0.0
C1440 C 0.1212 0.11217 0.4006 0.0
C1441 C 0.09329 0.09128 0.37288 0.0
H1442 H 0.04007 0.09375 0.39282 0.0
C1443 C 0.00612 0.06402 0.35553 0.0
C1444 C 0.99163 0.054 0.36394 0.0
C1445 C 0.02675 0.07244 0.35932 0.0
C1446 C 0.05487 0.09256 0.38721 0.0
H1447 H 0.15525 0.14798 0.37786 0.0
H1448 H 0.12191 0.12868 0.3709 0.0
H1449 H 0.07408 0.11158 0.39991 0.0
H1450 H 0.98788 0.04383 0.38278 0.0
H1451 H 0.02392 0.05793 0.38931 0.0
H1452 H 0.07403 0.07225 0.36017 0.0
C1453 C 0.12694 0.12684 0.38031 0.0
C1454 C 0.07436 0.10284 0.39128 0.0
C1455 C 0.14597 0.13804 0.38434 0.0
C1456 C 0.99857 0.05168 0.37609 0.0
C1457 C 0.01918 0.05992 0.37986 0.0
C1458 C 0.07378 0.08089 0.36883 0.0
C1459 C 0.1143 0.11383 0.3884 0.0
C1460 C 0.09377 0.10239 0.38416 0.0
C1461 C 0.03332 0.07087 0.3716 0.0
C1462 C 0.05431 0.08144 0.37593 0.0
H1463 H 0.14521 0.12159 0.41407 0.0
H1464 H 0.11193 0.10209 0.40702 0.0
H1465 H 0.10807 0.09043 0.36725 0.0
H1466 H 0.0012 0.06612 0.34611 0.0
H1467 H 0.03714 0.08091 0.35273 0.0
C1468 C 0.12458 0.89156 0.65572 0.0
C1469 C 0.11136 0.90383 0.64755 0.0
C1470 C 0.13596 0.87252 0.65181 0.0
C1471 C 0.15734 0.84446 0.62424 0.0
H1472 H 0.1555 0.79148 0.6444 0.0
C1473 C 0.18506 0.75723 0.60722 0.0
C1474 C 0.19519 0.74289 0.61568 0.0
C1475 C 0.17663 0.77789 0.61094 0.0
C1476 C 0.15651 0.80622 0.63873 0.0
H1477 H 0.09987 0.90571 0.62884 0.0
H1478 H 0.11963 0.87251 0.62208 0.0
H1479 H 0.13728 0.82539 0.65135 0.0
H1480 H 0.2056 0.73949 0.6345 0.0
H1481 H 0.19147 0.77561 0.64089 0.0
H1482 H 0.17655 0.82523 0.6116 0.0
C1483 C 0.12134 0.87772 0.63147 0.0
C1484 C 0.14602 0.82565 0.64272 0.0
C1485 C 0.10989 0.89667 0.63538 0.0
C1486 C 0.19766 0.75006 0.62778 0.0
C1487 C 0.18941 0.77071 0.63147 0.0
C1488 C 0.16794 0.82501 0.62026 0.0
C1489 C 0.13447 0.8654 0.63964 0.0
C1490 C 0.14622 0.84497 0.63551 0.0
C1491 C 0.1783 0.78466 0.62318 0.0
C1492 C 0.1676 0.80563 0.62745 0.0
H1493 H 0.12614 0.89662 0.66514 0.0
H1494 H 0.14611 0.86348 0.6583 0.0
H1495 H 0.15801 0.85917 0.61854 0.0
H1496 H 0.18284 0.75213 0.59784 0.0
H1497 H 0.16804 0.78815 0.60432 0.0
C1498 C 0.48992 0.93868 0.85627 0.0
C1499 C 0.50394 0.94783 0.86521 0.0
C1500 C 0.46906 0.93002 0.85946 0.0
C1501 C 0.4263 0.92958 0.88377 0.0
H1502 H 0.41319 0.87037 0.87159 0.0
C1503 C 0.35725 0.87433 0.90466 0.0
C1504 C 0.34452 0.86115 0.89669 0.0
C1505 C 0.37588 0.886 0.90041 0.0
C1506 C 0.41638 0.88704 0.87495 0.0
H1507 H 0.50668 0.95603 0.88439 0.0
H1508 H 0.47039 0.94104 0.88992 0.0
H1509 H 0.44633 0.88982 0.86449 0.0
H1510 H 0.34131 0.85013 0.87794 0.0
H1511 H 0.37345 0.87068 0.87054 0.0
H1512 H 0.39639 0.92678 0.89427 0.0
C1513 C 0.47543 0.94056 0.88045 0.0
C1514 C 0.43539 0.8982 0.87086 0.0
C1515 C 0.49629 0.94904 0.87729 0.0
C1516 C 0.35081 0.85998 0.88437 0.0
C1517 C 0.36934 0.87171 0.88012 0.0
C1518 C 0.40721 0.91847 0.88782 0.0
C1519 C 0.46177 0.93054 0.87163 0.0
C1520 C 0.44067 0.9195 0.8753 0.0
C1521 C 0.38215 0.88482 0.88808 0.0
C1522 C 0.40212 0.89697 0.88354 0.0
H1523 H 0.49534 0.93752 0.84689 0.0
H1524 H 0.45878 0.92262 0.85244 0.0
H1525 H 0.42981 0.94609 0.88727 0.0
H1526 H 0.35291 0.87557 0.9142 0.0
H1527 H 0.38556 0.89568 0.90683 0.0
C1528 C 0.31227 0.75589 0.39807 0.0
C1529 C 0.30184 0.74153 0.38973 0.0
C1530 C 0.32081 0.77644 0.39422 0.0
C1531 C 0.34054 0.80426 0.36617 0.0
H1532 H 0.34001 0.85746 0.38619 0.0
C1533 C 0.37248 0.88919 0.34858 0.0
C1534 C 0.38602 0.90151 0.35657 0.0
C1535 C 0.36112 0.87026 0.35267 0.0
C1536 C 0.34041 0.84267 0.38053 0.0
H1537 H 0.29103 0.73797 0.37099 0.0
H1538 H 0.30534 0.77388 0.36437 0.0
H1539 H 0.32138 0.82375 0.39339 0.0
H1540 H 0.39811 0.90358 0.37517 0.0
H1541 H 0.37839 0.87056 0.38225 0.0
H1542 H 0.35957 0.82314 0.35333 0.0
C1543 C 0.30756 0.76909 0.3738 0.0
C1544 C 0.32977 0.82336 0.38466 0.0
C1545 C 0.29919 0.74856 0.37762 0.0
C1546 C 0.38785 0.8945 0.36875 0.0
C1547 C 0.37641 0.87566 0.37285 0.0
C1548 C 0.35108 0.82357 0.36203 0.0
C1549 C 0.31896 0.78306 0.38196 0.0
C1550 C 0.32974 0.80389 0.37754 0.0
C1551 C 0.36296 0.86329 0.36486 0.0
C1552 C 0.35122 0.84297 0.36917 0.0
H1553 H 0.31463 0.7509 0.40746 0.0
H1554 H 0.32963 0.7867 0.40074 0.0
H1555 H 0.34129 0.78946 0.36054 0.0
H1556 H 0.37063 0.89414 0.33915 0.0
H1557 H 0.35071 0.86119 0.34632 0.0
C1558 C 0.35358 0.13704 0.61826 0.0
C1559 C 0.34647 0.13557 0.60609 0.0
C1560 C 0.37229 0.12527 0.62225 0.0
C1561 C 0.42395 0.09937 0.61126 0.0
H1562 H 0.42325 0.06911 0.64246 0.0
C1563 C 0.49861 0.04695 0.6269 0.0
C1564 C 0.50548 0.04952 0.63905 0.0
C1565 C 0.4781 0.05532 0.62302 0.0
C1566 C 0.42378 0.07763 0.63378 0.0
H1567 H 0.35356 0.12053 0.58855 0.0
H1568 H 0.3863 0.10003 0.59552 0.0
H1569 H 0.38982 0.08825 0.63531 0.0
H1570 H 0.49586 0.06212 0.65677 0.0
H1571 H 0.46015 0.0771 0.64997 0.0
H1572 H 0.45795 0.08922 0.60979 0.0
C1573 C 0.3774 0.1104 0.60196 0.0
C1574 C 0.40463 0.08858 0.62967 0.0
C1575 C 0.35859 0.12209 0.59798 0.0
C1576 C 0.49099 0.05982 0.64736 0.0
C1577 C 0.47049 0.06836 0.64346 0.0
C1578 C 0.44311 0.08853 0.61538 0.0
C1579 C 0.38442 0.11182 0.61415 0.0
C1580 C 0.40453 0.09964 0.61838 0.0
C1581 C 0.46403 0.06664 0.63117 0.0
C1582 C 0.4433 0.07755 0.6267 0.0
H1583 H 0.34466 0.14725 0.62477 0.0
H1584 H 0.37744 0.12695 0.63166 0.0
H1585 H 0.42452 0.10802 0.60261 0.0
H1586 H 0.5093 0.03891 0.62029 0.0
H1587 H 0.47345 0.05322 0.61357 0.0
C1588 C 0.12663 0.10649 0.84958 0.0
C1589 C 0.11303 0.09424 0.85757 0.0
C1590 C 0.13811 0.12534 0.85367 0.0
C1591 C 0.1589 0.15294 0.88153 0.0
H1592 H 0.15842 0.20602 0.86143 0.0
C1593 C 0.18693 0.23986 0.89895 0.0
C1594 C 0.19744 0.25416 0.89061 0.0
C1595 C 0.17851 0.21925 0.89512 0.0
C1596 C 0.15906 0.19125 0.86709 0.0
H1597 H 0.10097 0.09222 0.87617 0.0
H1598 H 0.12089 0.12513 0.88325 0.0
H1599 H 0.14002 0.17238 0.85425 0.0
H1600 H 0.20857 0.25752 0.87191 0.0
H1601 H 0.19445 0.22149 0.86534 0.0
H1602 H 0.17791 0.17188 0.8944 0.0
C1603 C 0.12284 0.12002 0.87385 0.0
C1604 C 0.14845 0.17197 0.86297 0.0
C1605 C 0.11128 0.10124 0.86976 0.0
C1606 C 0.20034 0.24698 0.87854 0.0
C1607 C 0.19209 0.22638 0.87475 0.0
C1608 C 0.16961 0.17224 0.88565 0.0
C1609 C 0.13634 0.13232 0.86585 0.0
C1610 C 0.14817 0.15261 0.87015 0.0
C1611 C 0.18056 0.21249 0.8829 0.0
C1612 C 0.16978 0.19166 0.87848 0.0
H1613 H 0.12842 0.10154 0.84015 0.0
H1614 H 0.14856 0.13434 0.84731 0.0
H1615 H 0.1592 0.1382 0.88722 0.0
H1616 H 0.18438 0.24496 0.9083 0.0
H1617 H 0.1696 0.20904 0.90163 0.0
C1618 C 0.14137 0.87895 0.09809 0.0
C1619 C 0.15277 0.86506 0.10631 0.0
C1620 C 0.12264 0.89102 0.10186 0.0
C1621 C 0.0943 0.91269 0.12931 0.0
H1622 H 0.04171 0.91235 0.10884 0.0
C1623 C 0.00712 0.93955 0.1465 0.0
C1624 C 0.99264 0.94989 0.13819 0.0
C1625 C 0.02788 0.93157 0.14266 0.0
C1626 C 0.05635 0.91298 0.11459 0.0
H1627 H 0.15344 0.85313 0.12497 0.0
H1628 H 0.12085 0.87406 0.13147 0.0
H1629 H 0.0755 0.89393 0.10187 0.0
H1630 H 0.9891 0.96118 0.11954 0.0
H1631 H 0.02541 0.94785 0.11294 0.0
H1632 H 0.07512 0.93165 0.14207 0.0
C1633 C 0.12649 0.87579 0.12216 0.0
C1634 C 0.07572 0.90237 0.11059 0.0
C1635 C 0.14509 0.86365 0.11838 0.0
C1636 C -0.00022 0.95308 0.12614 0.0
C1637 C 0.02055 0.94528 0.12233 0.0
C1638 C 0.07495 0.92342 0.1333 0.0
C1639 C 0.11502 0.88957 0.11394 0.0
C1640 C 0.09485 0.90191 0.11794 0.0
C1641 C 0.03463 0.93392 0.13045 0.0
C1642 C 0.05566 0.92354 0.12603 0.0
H1643 H 0.14686 0.88048 0.08874 0.0
H1644 H 0.11424 0.90164 0.09534 0.0
H1645 H 0.10889 0.91288 0.13511 0.0
H1646 H 0.00206 0.93677 0.15584 0.0
H1647 H 0.03821 0.92276 0.14915 0.0
C1648 C 0.68475 0.7577 0.89628 0.0
C1649 C 0.6947 0.74341 0.88774 0.0
C1650 C 0.67651 0.77851 0.89267 0.0
C1651 C 0.6567 0.80766 0.86504 0.0
H1652 H 0.65857 0.86002 0.88568 0.0
C1653 C 0.62438 0.89355 0.84899 0.0
C1654 C 0.61105 0.9053 0.85732 0.0
C1655 C 0.63605 0.8745 0.85265 0.0
C1656 C 0.65782 0.84548 0.87985 0.0
H1657 H 0.70496 0.74019 0.86889 0.0
H1658 H 0.69117 0.77655 0.86268 0.0
H1659 H 0.67693 0.82579 0.89231 0.0
H1660 H 0.59973 0.90631 0.87609 0.0
H1661 H 0.61999 0.87315 0.88242 0.0
H1662 H 0.63755 0.82731 0.8526 0.0
C1663 C 0.68909 0.77153 0.87208 0.0
C1664 C 0.6683 0.82587 0.88365 0.0
C1665 C 0.69715 0.75072 0.87567 0.0
C1666 C 0.60982 0.89767 0.86942 0.0
C1667 C 0.62157 0.87875 0.87308 0.0
C1668 C 0.64633 0.82728 0.86121 0.0
C1669 C 0.6782 0.78548 0.88046 0.0
C1670 C 0.66777 0.80667 0.87632 0.0
C1671 C 0.63475 0.8669 0.86474 0.0
C1672 C 0.64664 0.84637 0.8686 0.0
H1673 H 0.68256 0.75249 0.90564 0.0
H1674 H 0.66807 0.78875 0.89935 0.0
H1675 H 0.65555 0.79309 0.85925 0.0
H1676 H 0.62575 0.89898 0.83962 0.0
H1677 H 0.64623 0.86582 0.84603 0.0
C1678 C 0.99133 0.93679 0.64861 0.0
C1679 C 0.00539 0.94654 0.63988 0.0
C1680 C 0.97074 0.92783 0.64517 0.0
C1681 C 0.92865 0.92749 0.62048 0.0
H1682 H 0.91598 0.86777 0.63204 0.0
C1683 C 0.86087 0.87224 0.59849 0.0
C1684 C 0.8478 0.85899 0.60626 0.0
C1685 C 0.87942 0.88372 0.60299 0.0
C1686 C 0.91907 0.88457 0.62885 0.0
H1687 H 0.00843 0.95546 0.6208 0.0
H1688 H 0.97261 0.93995 0.61485 0.0
H1689 H 0.94864 0.88748 0.63962 0.0
H1690 H 0.84403 0.84748 0.62488 0.0
H1691 H 0.87607 0.86768 0.63271 0.0
H1692 H 0.89914 0.92456 0.60966 0.0
C1693 C 0.97741 0.93923 0.62434 0.0
C1694 C 0.93778 0.89588 0.63322 0.0
C1695 C 0.99801 0.94802 0.62776 0.0
C1696 C 0.85378 0.85742 0.61861 0.0
C1697 C 0.87224 0.86895 0.62311 0.0
C1698 C 0.90987 0.91622 0.61614 0.0
C1699 C 0.96373 0.92863 0.63295 0.0
C1700 C 0.9429 0.91738 0.629 0.0
C1701 C 0.88528 0.88228 0.61537 0.0
C1702 C 0.90495 0.89453 0.62019 0.0
H1703 H 0.99655 0.9354 0.65802 0.0
H1704 H 0.96043 0.91999 0.65203 0.0
H1705 H 0.93202 0.94415 0.61716 0.0
H1706 H 0.85678 0.87378 0.58892 0.0
H1707 H 0.88929 0.89356 0.59673 0.0
C1708 C 0.79672 0.24902 0.37588 0.0
C1709 C 0.79964 0.25601 0.38798 0.0
C1710 C 0.80483 0.22841 0.37201 0.0
C1711 C 0.82709 0.17405 0.38277 0.0
H1712 H 0.85698 0.17441 0.35146 0.0
C1713 C 0.88651 0.10386 0.36735 0.0
C1714 C 0.88502 0.09659 0.3552 0.0
C1715 C 0.87464 0.12254 0.37128 0.0
C1716 C 0.84845 0.17394 0.36015 0.0
H1717 H 0.8126 0.24648 0.40565 0.0
H1718 H 0.82714 0.21057 0.39885 0.0
H1719 H 0.83833 0.20795 0.35861 0.0
H1720 H 0.86981 0.10335 0.33766 0.0
H1721 H 0.84913 0.13604 0.34456 0.0
H1722 H 0.83771 0.14009 0.38437 0.0
C1723 C 0.8183 0.22091 0.39237 0.0
C1724 C 0.8377 0.19316 0.36425 0.0
C1725 C 0.81002 0.24152 0.39627 0.0
C1726 C 0.8714 0.10851 0.34707 0.0
C1727 C 0.8596 0.12729 0.35101 0.0
C1728 C 0.83795 0.15483 0.37868 0.0
C1729 C 0.81624 0.21433 0.38012 0.0
C1730 C 0.82694 0.19351 0.37564 0.0
C1731 C 0.86107 0.13448 0.36317 0.0
C1732 C 0.84884 0.1546 0.36735 0.0
H1733 H 0.78859 0.25972 0.36929 0.0
H1734 H 0.80247 0.22367 0.36258 0.0
H1735 H 0.81872 0.17363 0.3915 0.0
H1736 H 0.89683 0.0951 0.37387 0.0
H1737 H 0.87637 0.12783 0.38066 0.0
C1738 C 0.64461 0.14089 0.11647 0.0
C1739 C 0.65114 0.13997 0.10418 0.0
C1740 C 0.6257 0.1295 0.12048 0.0
C1741 C 0.57276 0.10598 0.10975 0.0
H1742 H 0.57418 0.07318 0.14017 0.0
C1743 C 0.49806 0.05329 0.125 0.0
C1744 C 0.49177 0.05467 0.13729 0.0
C1745 C 0.51841 0.06195 0.12109 0.0
C1746 C 0.57344 0.08244 0.13172 0.0
H1747 H 0.64278 0.12635 0.08646 0.0
H1748 H 0.60966 0.10652 0.09348 0.0
H1749 H 0.60774 0.09206 0.13299 0.0
H1750 H 0.5022 0.06555 0.15522 0.0
H1751 H 0.53769 0.08108 0.14836 0.0
H1752 H 0.53845 0.0968 0.10854 0.0
C1753 C 0.61919 0.11616 0.09999 0.0
C1754 C 0.59267 0.09323 0.1276 0.0
C1755 C 0.63821 0.12747 0.09598 0.0
C1756 C 0.50664 0.06418 0.14569 0.0
C1757 C 0.52699 0.07302 0.14176 0.0
C1758 C 0.55353 0.09531 0.11389 0.0
C1759 C 0.61278 0.11701 0.1123 0.0
C1760 C 0.59252 0.10515 0.11658 0.0
C1761 C 0.53292 0.07239 0.12936 0.0
C1762 C 0.55361 0.08339 0.12493 0.0
H1763 H 0.65417 0.15035 0.12305 0.0
H1764 H 0.62103 0.13072 0.12998 0.0
H1765 H 0.57201 0.11533 0.10133 0.0
H1766 H 0.48707 0.04586 0.11831 0.0
H1767 H 0.52265 0.06068 0.11153 0.0
C1768 C 0.69692 0.24856 0.62709 0.0
C1769 C 0.69513 0.25514 0.61485 0.0
C1770 C 0.68821 0.2282 0.63097 0.0
C1771 C 0.6669 0.17355 0.62025 0.0
H1772 H 0.63476 0.17481 0.65088 0.0
C1773 C 0.60842 0.10244 0.6356 0.0
C1774 C 0.60945 0.09583 0.64787 0.0
C1775 C 0.61983 0.12135 0.63159 0.0
C1776 C 0.64389 0.17409 0.64239 0.0
H1777 H 0.68351 0.24515 0.59698 0.0
H1778 H 0.66795 0.20964 0.60379 0.0
H1779 H 0.65343 0.20831 0.64369 0.0
H1780 H 0.62328 0.10404 0.66556 0.0
H1781 H 0.64317 0.13712 0.65854 0.0
H1782 H 0.65697 0.13934 0.6189 0.0
C1783 C 0.67634 0.22014 0.61037 0.0
C1784 C 0.65465 0.1933 0.63826 0.0
C1785 C 0.6852 0.24051 0.60647 0.0
C1786 C 0.62207 0.10868 0.65606 0.0
C1787 C 0.63341 0.12768 0.65205 0.0
C1788 C 0.65605 0.15434 0.62437 0.0
C1789 C 0.67735 0.21396 0.62272 0.0
C1790 C 0.66629 0.19328 0.62714 0.0
C1791 C 0.63247 0.13418 0.63975 0.0
C1792 C 0.64439 0.15442 0.63547 0.0
H1793 H 0.70467 0.25936 0.63376 0.0
H1794 H 0.68976 0.22376 0.64048 0.0
H1795 H 0.67594 0.17286 0.61173 0.0
H1796 H 0.59886 0.09296 0.62903 0.0
H1797 H 0.61852 0.12609 0.6221 0.0
C1798 C 0.50655 0.93548 0.3557 0.0
C1799 C 0.49218 0.94565 0.36412 0.0
C1800 C 0.52727 0.92723 0.35944 0.0
C1801 C 0.5558 0.90767 0.38728 0.0
H1802 H 0.60869 0.90932 0.36705 0.0
C1803 C 0.64123 0.87626 0.40436 0.0
C1804 C 0.65358 0.86304 0.39622 0.0
C1805 C 0.62218 0.88758 0.4004 0.0
C1806 C 0.594 0.9086 0.37277 0.0
H1807 H 0.48877 0.9563 0.3829 0.0
H1808 H 0.52497 0.94248 0.38933 0.0
H1809 H 0.57461 0.92754 0.36007 0.0
H1810 H 0.6556 0.8515 0.37752 0.0
H1811 H 0.62238 0.87114 0.37069 0.0
H1812 H 0.57512 0.8887 0.39995 0.0
C1813 C 0.52007 0.94026 0.37992 0.0
C1814 C 0.57448 0.91902 0.36876 0.0
C1815 C 0.49935 0.94833 0.37621 0.0
C1816 C 0.64651 0.86153 0.38404 0.0
C1817 C 0.62754 0.87292 0.38009 0.0
C1818 C 0.57531 0.89735 0.3913 0.0
C1819 C 0.53407 0.92912 0.37166 0.0
C1820 C 0.55511 0.91863 0.37596 0.0
C1821 C 0.61512 0.88601 0.38823 0.0
C1822 C 0.59461 0.89761 0.38407 0.0
H1823 H 0.50145 0.93311 0.34633 0.0
H1824 H 0.53757 0.91862 0.35285 0.0
H1825 H 0.54109 0.90661 0.39296 0.0
H1826 H 0.64623 0.87785 0.41379 0.0
H1827 H 0.61308 0.89772 0.40687 0.0
C1828 C 0.81291 0.75737 0.10466 0.0
C1829 C 0.80298 0.74283 0.11308 0.0
C1830 C 0.82172 0.77782 0.1085 0.0
C1831 C 0.84341 0.80481 0.13633 0.0
H1832 H 0.84135 0.85869 0.1169 0.0
C1833 C 0.87587 0.88928 0.15425 0.0
C1834 C 0.88853 0.90224 0.14613 0.0
C1835 C 0.86458 0.87032 0.15016 0.0
C1836 C 0.84221 0.84371 0.12239 0.0
H1837 H 0.79331 0.73886 0.13199 0.0
H1838 H 0.80811 0.77459 0.13859 0.0
H1839 H 0.82232 0.82518 0.10974 0.0
H1840 H 0.89923 0.90534 0.12733 0.0
H1841 H 0.87965 0.87222 0.12025 0.0
H1842 H 0.8633 0.82328 0.14896 0.0
C1843 C 0.80971 0.77002 0.1291 0.0
C1844 C 0.83132 0.82451 0.11828 0.0
C1845 C 0.80106 0.74959 0.12528 0.0
C1846 C 0.88963 0.89577 0.13384 0.0
C1847 C 0.87827 0.87686 0.12974 0.0
C1848 C 0.85421 0.82399 0.14045 0.0
C1849 C 0.82065 0.78415 0.12083 0.0
C1850 C 0.83179 0.80481 0.12521 0.0
C1851 C 0.86562 0.86392 0.13785 0.0
C1852 C 0.85379 0.84365 0.13352 0.0
H1853 H 0.8147 0.75259 0.0952 0.0
H1854 H 0.83015 0.78823 0.10189 0.0
H1855 H 0.84455 0.78982 0.14179 0.0
H1856 H 0.87459 0.89381 0.16376 0.0
H1857 H 0.85479 0.86081 0.15661 0.0
C1858 C -0.00093 0.04746 0.87687 0.0
C1859 C 0.00655 0.05056 0.86487 0.0
C1860 C 0.97832 0.05555 0.88053 0.0
C1861 C 0.92448 0.078 0.8691 0.0
H1862 H 0.92305 0.10693 0.90067 0.0
C1863 C 0.85414 0.1378 0.88369 0.0
C1864 C 0.84596 0.13602 0.89566 0.0
C1865 C 0.87285 0.12572 0.88003 0.0
C1866 C 0.92308 0.09866 0.89191 0.0
H1867 H 0.99781 0.06389 0.84717 0.0
H1868 H 0.9617 0.07843 0.8536 0.0
H1869 H 0.95698 0.08847 0.89393 0.0
H1870 H 0.85113 0.12005 0.91315 0.0
H1871 H 0.88396 0.09902 0.90674 0.0
H1872 H 0.89066 0.08875 0.86701 0.0
C1873 C 0.97173 0.06945 0.86016 0.0
C1874 C 0.94253 0.08802 0.88803 0.0
C1875 C 0.99247 0.06118 0.85647 0.0
C1876 C 0.857 0.12185 0.90388 0.0
C1877 C 0.87585 0.10986 0.90022 0.0
C1878 C 0.90506 0.08876 0.87296 0.0
C1879 C 0.96461 0.06712 0.87231 0.0
C1880 C 0.94353 0.07764 0.87656 0.0
C1881 C 0.88395 0.11165 0.88825 0.0
C1882 C 0.9042 0.09933 0.88437 0.0
H1883 H 0.00944 0.03914 0.88354 0.0
H1884 H 0.97317 0.05298 0.88987 0.0
H1885 H 0.92454 0.06989 0.86029 0.0
H1886 H 0.84607 0.14853 0.8771 0.0
H1887 H 0.87886 0.1277 0.8708 0.0
C1888 C 0.81113 0.74012 0.60268 0.0
C1889 C 0.80143 0.75393 0.61154 0.0
C1890 C 0.81942 0.71909 0.60585 0.0
C1891 C 0.81797 0.67568 0.62988 0.0
H1892 H 0.87785 0.66246 0.61881 0.0
C1893 C 0.87187 0.60698 0.65201 0.0
C1894 C 0.88552 0.59409 0.64436 0.0
C1895 C 0.86047 0.62551 0.64743 0.0
C1896 C 0.86099 0.66568 0.62184 0.0
H1897 H 0.79185 0.7561 0.63055 0.0
H1898 H 0.80619 0.71955 0.63605 0.0
H1899 H 0.85899 0.69574 0.61142 0.0
H1900 H 0.89769 0.59049 0.62586 0.0
H1901 H 0.87761 0.62252 0.61788 0.0
H1902 H 0.82003 0.64572 0.64039 0.0
C1903 C 0.80739 0.72487 0.62665 0.0
C1904 C 0.85017 0.68477 0.61759 0.0
C1905 C 0.79927 0.74589 0.6235 0.0
C1906 C 0.88744 0.60012 0.63203 0.0
C1907 C 0.87599 0.61857 0.62746 0.0
C1908 C 0.82876 0.65654 0.63411 0.0
C1909 C 0.81798 0.71141 0.61793 0.0
C1910 C 0.82863 0.69013 0.62166 0.0
C1911 C 0.86238 0.63153 0.63509 0.0
C1912 C 0.85051 0.65143 0.63024 0.0
H1913 H 0.81304 0.74584 0.59338 0.0
H1914 H 0.82726 0.70898 0.5989 0.0
H1915 H 0.80127 0.67922 0.63308 0.0
H1916 H 0.87005 0.60285 0.66155 0.0
H1917 H 0.8504 0.63531 0.65362 0.0
C1918 C 0.64618 0.63709 0.88267 0.0
C1919 C 0.653 0.63521 0.89487 0.0
C1920 C 0.62769 0.62533 0.87841 0.0
C1921 C 0.59052 0.57767 0.88563 0.0
H1922 H 0.55063 0.60738 0.86309 0.0
C1923 C 0.50136 0.54711 0.87482 0.0
C1924 C 0.49361 0.5491 0.86279 0.0
C1925 C 0.52225 0.55542 0.8781 0.0
C1926 C 0.56178 0.59872 0.86923 0.0
H1927 H 0.64567 0.61943 0.91217 0.0
H1928 H 0.61301 0.59927 0.9048 0.0
H1929 H 0.58369 0.6267 0.87036 0.0
H1930 H 0.50209 0.56053 0.84465 0.0
H1931 H 0.53866 0.57513 0.8504 0.0
H1932 H 0.56813 0.54988 0.8847 0.0
C1933 C 0.62226 0.60954 0.89846 0.0
C1934 C 0.58076 0.6098 0.87342 0.0
C1935 C 0.64089 0.62122 0.90272 0.0
C1936 C 0.50759 0.55876 0.85399 0.0
C1937 C 0.52844 0.56726 0.8573 0.0
C1938 C 0.57143 0.56663 0.88149 0.0
C1939 C 0.6154 0.61149 0.88625 0.0
C1940 C 0.59535 0.59946 0.8817 0.0
C1941 C 0.5358 0.56605 0.86944 0.0
C1942 C 0.55682 0.57708 0.87328 0.0
H1943 H 0.65522 0.64754 0.87633 0.0
H1944 H 0.62318 0.62694 0.8689 0.0
H1945 H 0.60156 0.56906 0.89184 0.0
H1946 H 0.49101 0.53971 0.88181 0.0
H1947 H 0.52736 0.55438 0.88754 0.0
C1948 C 0.62249 0.38971 0.15439 0.0
C1949 C 0.60977 0.40266 0.1463 0.0
C1950 C 0.63394 0.37088 0.15025 0.0
C1951 C 0.65656 0.34472 0.12241 0.0
H1952 H 0.65466 0.29066 0.14169 0.0
C1953 C 0.68637 0.25867 0.10452 0.0
C1954 C 0.69644 0.24416 0.11292 0.0
C1955 C 0.67748 0.27906 0.10839 0.0
C1956 C 0.65568 0.30571 0.13627 0.0
H1957 H 0.59913 0.4059 0.12749 0.0
H1958 H 0.61897 0.37301 0.12033 0.0
H1959 H 0.63562 0.3239 0.14893 0.0
H1960 H 0.70628 0.24022 0.1318 0.0
H1961 H 0.69132 0.27584 0.13846 0.0
H1962 H 0.6766 0.32644 0.10973 0.0
C1963 C 0.62028 0.37756 0.12984 0.0
C1964 C 0.64471 0.32476 0.14043 0.0
C1965 C 0.60877 0.39633 0.13398 0.0
C1966 C 0.69843 0.25092 0.12512 0.0
C1967 C 0.68969 0.27128 0.12896 0.0
C1968 C 0.66761 0.32564 0.11826 0.0
C1969 C 0.63299 0.36461 0.13792 0.0
C1970 C 0.64498 0.34448 0.13354 0.0
C1971 C 0.67859 0.28535 0.12073 0.0
C1972 C 0.6673 0.3059 0.12515 0.0
H1973 H 0.62369 0.39413 0.16393 0.0
H1974 H 0.64377 0.36137 0.15668 0.0
H1975 H 0.6573 0.35975 0.11696 0.0
H1976 H 0.68453 0.2539 0.09507 0.0
H1977 H 0.66894 0.28943 0.10182 0.0
C1978 C 0.85354 0.35867 0.38405 0.0
C1979 C 0.84689 0.35987 0.39632 0.0
C1980 C 0.87256 0.36991 0.38004 0.0
C1981 C 0.92536 0.39371 0.39098 0.0
H1982 H 0.92494 0.42539 0.3602 0.0
C1983 C 0.00016 0.44657 0.37615 0.0
C1984 C 0.00716 0.44457 0.36399 0.0
C1985 C 0.97967 0.43794 0.37986 0.0
C1986 C 0.92538 0.41645 0.36875 0.0
H1987 H 0.85508 0.37389 0.41397 0.0
H1988 H 0.88828 0.3935 0.40694 0.0
H1989 H 0.89118 0.40663 0.36722 0.0
H1990 H 0.99778 0.43268 0.34608 0.0
H1991 H 0.96203 0.41725 0.35259 0.0
H1992 H 0.95955 0.40318 0.39248 0.0
C1993 C 0.87883 0.38371 0.40046 0.0
C1994 C 0.90605 0.40571 0.37278 0.0
C1995 C 0.85975 0.37254 0.40447 0.0
C1996 C 0.99282 0.43453 0.35551 0.0
C1997 C 0.97231 0.42574 0.35924 0.0
C1998 C 0.94467 0.40437 0.38695 0.0
C1999 C 0.88543 0.38255 0.38819 0.0
C2000 C 0.90583 0.39422 0.38394 0.0
C2001 C 0.96572 0.42693 0.37152 0.0
C2002 C 0.94494 0.4159 0.37579 0.0
H2003 H 0.84404 0.34907 0.37751 0.0
H2004 H 0.87736 0.36844 0.37057 0.0
H2005 H 0.92586 0.38468 0.39951 0.0
H2006 H 0.01073 0.45442 0.3829 0.0
H2007 H 0.9749 0.43963 0.38932 0.0
C2008 C 0.88764 0.39834 0.86703 0.0
C2009 C 0.88681 0.40593 0.85492 0.0
C2010 C 0.8758 0.37942 0.8706 0.0
C2011 C 0.85183 0.32772 0.85873 0.0
H2012 H 0.81998 0.32672 0.88945 0.0
C2013 C 0.80214 0.25053 0.87355 0.0
C2014 C 0.80412 0.2439 0.88578 0.0
C2015 C 0.80993 0.27132 0.86977 0.0
C2016 C 0.82896 0.32665 0.8809 0.0
H2017 H 0.87276 0.39952 0.83707 0.0
H2018 H 0.85215 0.36627 0.84332 0.0
H2019 H 0.8381 0.361 0.88273 0.0
H2020 H 0.8152 0.25416 0.90369 0.0
H2021 H 0.82926 0.29036 0.89705 0.0
H2022 H 0.84329 0.29331 0.857 0.0
C2023 C 0.86206 0.37504 0.85002 0.0
C2024 C 0.83929 0.34631 0.87704 0.0
C2025 C 0.8738 0.39412 0.84646 0.0
C2026 C 0.81338 0.25883 0.89422 0.0
C2027 C 0.82136 0.27962 0.89041 0.0
C2028 C 0.84164 0.30804 0.86262 0.0
C2029 C 0.86293 0.36751 0.86214 0.0
C2030 C 0.85096 0.34701 0.86595 0.0
C2031 C 0.82008 0.28594 0.87808 0.0
C2032 C 0.83016 0.30721 0.87378 0.0
H2033 H 0.89746 0.40702 0.87382 0.0
H2034 H 0.87705 0.37388 0.87996 0.0
H2035 H 0.86098 0.32764 0.85023 0.0
H2036 H 0.79488 0.23949 0.86684 0.0
H2037 H 0.80819 0.27582 0.86027 0.0
C2038 C 0.99199 0.56255 0.14599 0.0
C2039 C 0.00647 0.55211 0.13772 0.0
C2040 C 0.9716 0.57125 0.14201 0.0
C2041 C 0.94459 0.59155 0.11387 0.0
H2042 H 0.89101 0.59108 0.13356 0.0
C2043 C 0.86016 0.62485 0.09617 0.0
C2044 C 0.84779 0.63811 0.10427 0.0
C2045 C 0.87903 0.61332 0.10019 0.0
C2046 C 0.9059 0.59147 0.128 0.0
H2047 H 0.01041 0.54146 0.11898 0.0
H2048 H 0.97476 0.55607 0.11214 0.0
H2049 H 0.92435 0.57197 0.14084 0.0
H2050 H 0.84567 0.64967 0.12297 0.0
H2051 H 0.87857 0.62969 0.12992 0.0
H2052 H 0.92617 0.61108 0.10105 0.0
C2053 C 0.97934 0.55815 0.12161 0.0
C2054 C 0.92501 0.58054 0.13217 0.0
C2055 C -0.00028 0.54962 0.12555 0.0
C2056 C 0.85477 0.63961 0.11647 0.0
C2057 C 0.87355 0.62801 0.12049 0.0
C2058 C 0.92548 0.60239 0.10968 0.0
C2059 C 0.96526 0.56955 0.12971 0.0
C2060 C 0.94462 0.58052 0.12518 0.0
C2061 C 0.88588 0.61471 0.11241 0.0
C2062 C 0.90596 0.60258 0.11672 0.0
H2063 H 0.99676 0.56479 0.15542 0.0
H2064 H 0.96124 0.58006 0.14849 0.0
H2065 H 0.95952 0.59228 0.10835 0.0
H2066 H 0.85522 0.62327 0.08672 0.0
H2067 H 0.88809 0.60305 0.09377 0.0
C2068 C 0.60835 0.6056 0.36686 0.0
C2069 C 0.60945 0.59869 0.35464 0.0
C2070 C 0.62003 0.62439 0.3708 0.0
C2071 C 0.64531 0.67644 0.35983 0.0
H2072 H 0.67658 0.67518 0.39073 0.0
C2073 C 0.69865 0.75058 0.37536 0.0
C2074 C 0.69646 0.7573 0.38755 0.0
C2075 C 0.68996 0.73022 0.37145 0.0
C2076 C 0.66777 0.67587 0.38213 0.0
H2077 H 0.62369 0.60627 0.33696 0.0
H2078 H 0.64406 0.63915 0.34386 0.0
H2079 H 0.65726 0.64185 0.38357 0.0
H2080 H 0.68416 0.74757 0.40532 0.0
H2081 H 0.66864 0.71209 0.39847 0.0
H2082 H 0.65542 0.71048 0.35845 0.0
C2083 C 0.63403 0.63003 0.35037 0.0
C2084 C 0.65672 0.65678 0.37803 0.0
C2085 C 0.62241 0.61115 0.34643 0.0
C2086 C 0.68616 0.74282 0.39588 0.0
C2087 C 0.67733 0.72245 0.39194 0.0
C2088 C 0.65628 0.69553 0.36395 0.0
C2089 C 0.63303 0.6368 0.36262 0.0
C2090 C 0.6453 0.65688 0.36685 0.0
C2091 C 0.67872 0.71614 0.37962 0.0
C2092 C 0.66761 0.69552 0.37516 0.0
H2093 H 0.59853 0.59643 0.37344 0.0
H2094 H 0.61865 0.62936 0.38025 0.0
H2095 H 0.63638 0.67717 0.35127 0.0
H2096 H 0.70668 0.76127 0.36873 0.0
H2097 H 0.69179 0.72567 0.36197 0.0
C2098 C 0.6411 0.37445 0.59718 0.0
C2099 C 0.65328 0.36134 0.60544 0.0
C2100 C 0.62212 0.38603 0.60101 0.0
C2101 C 0.59423 0.40825 0.62842 0.0
H2102 H 0.54102 0.4055 0.60849 0.0
C2103 C 0.5072 0.43581 0.64567 0.0
C2104 C 0.49257 0.44549 0.63721 0.0
C2105 C 0.52785 0.42745 0.64189 0.0
C2106 C 0.55582 0.40678 0.61409 0.0
H2107 H 0.6551 0.3503 0.62424 0.0
H2108 H 0.62205 0.37043 0.63086 0.0
H2109 H 0.57494 0.3873 0.60155 0.0
H2110 H 0.4886 0.45519 0.61831 0.0
H2111 H 0.5247 0.44122 0.61181 0.0
H2112 H 0.57508 0.42772 0.64096 0.0
C2113 C 0.62727 0.37188 0.62145 0.0
C2114 C 0.57526 0.39629 0.6101 0.0
C2115 C 0.64613 0.36021 0.61762 0.0
C2116 C 0.4994 0.44759 0.62504 0.0
C2117 C 0.52005 0.43943 0.62128 0.0
C2118 C 0.57479 0.41886 0.63238 0.0
C2119 C 0.61502 0.38488 0.61319 0.0
C2120 C 0.59464 0.39679 0.61725 0.0
C2121 C 0.53432 0.42877 0.62959 0.0
C2122 C 0.5553 0.41817 0.62528 0.0
H2123 H 0.64617 0.37574 0.58775 0.0
H2124 H 0.61312 0.39607 0.59446 0.0
H2125 H 0.609 0.40915 0.63406 0.0
H2126 H 0.50236 0.43389 0.65511 0.0
H2127 H 0.53834 0.4192 0.64852 0.0
C2128 C 0.12692 0.38994 0.3477 0.0
C2129 C 0.11339 0.40206 0.35578 0.0
C2130 C 0.13844 0.37103 0.35168 0.0
C2131 C 0.15953 0.34326 0.37942 0.0
H2132 H 0.15865 0.29018 0.35933 0.0
C2133 C 0.18713 0.25632 0.39688 0.0
C2134 C 0.19754 0.24192 0.38855 0.0
C2135 C 0.17879 0.27694 0.39302 0.0
C2136 C 0.1594 0.30495 0.36498 0.0
H2137 H 0.10149 0.40381 0.37442 0.0
H2138 H 0.12148 0.37085 0.38131 0.0
H2139 H 0.14035 0.32391 0.35218 0.0
H2140 H 0.20853 0.23837 0.36984 0.0
H2141 H 0.19453 0.27441 0.36322 0.0
H2142 H 0.17855 0.32425 0.39224 0.0
C2143 C 0.12334 0.37608 0.37193 0.0
C2144 C 0.14886 0.32428 0.36087 0.0
C2145 C 0.11175 0.39489 0.36794 0.0
C2146 C 0.20038 0.24898 0.37646 0.0
C2147 C 0.1922 0.2696 0.37263 0.0
C2148 C 0.17018 0.32392 0.38351 0.0
C2149 C 0.13679 0.36391 0.36385 0.0
C2150 C 0.14869 0.34362 0.36807 0.0
C2151 C 0.18081 0.2836 0.38078 0.0
C2152 C 0.17017 0.30449 0.37635 0.0
H2153 H 0.12862 0.39502 0.33828 0.0
H2154 H 0.14883 0.36211 0.34526 0.0
H2155 H 0.15993 0.358 0.38511 0.0
H2156 H 0.18464 0.25131 0.40625 0.0
H2157 H 0.16997 0.28723 0.39953 0.0
C2158 C 0.35836 0.37621 0.10065 0.0
C2159 C 0.3458 0.36253 0.10845 0.0
C2160 C 0.37691 0.38785 0.10503 0.0
C2161 C 0.41766 0.38805 0.13035 0.0
H2162 H 0.43024 0.44788 0.11893 0.0
C2163 C 0.49133 0.43906 0.14935 0.0
C2164 C 0.50502 0.44888 0.14047 0.0
C2165 C 0.47041 0.43051 0.14618 0.0
C2166 C 0.42697 0.43115 0.12217 0.0
H2167 H 0.34284 0.35055 0.12702 0.0
H2168 H 0.37486 0.37102 0.13467 0.0
H2169 H 0.39692 0.42859 0.11178 0.0
H2170 H 0.50706 0.45846 0.12145 0.0
H2171 H 0.47068 0.44365 0.11597 0.0
H2172 H 0.44778 0.39056 0.14068 0.0
C2173 C 0.37065 0.37249 0.12511 0.0
C2174 C 0.40793 0.42005 0.11804 0.0
C2175 C 0.3522 0.36081 0.12073 0.0
C2176 C 0.49694 0.45094 0.12851 0.0
C2177 C 0.47602 0.44255 0.12537 0.0
C2178 C 0.43663 0.39917 0.13452 0.0
C2179 C 0.38327 0.38613 0.11733 0.0
C2180 C 0.40315 0.39828 0.12199 0.0
C2181 C 0.46272 0.4318 0.1341 0.0
C2182 C 0.44162 0.42077 0.13039 0.0
H2183 H 0.35394 0.37789 0.09113 0.0
H2184 H 0.38644 0.39795 0.09874 0.0
H2185 H 0.4147 0.37117 0.13345 0.0
H2186 H 0.49708 0.43723 0.15864 0.0
H2187 H 0.46041 0.42256 0.15314 0.0
C2188 C 0.31333 0.74051 0.89727 0.0
C2189 C 0.30284 0.75473 0.88888 0.0
C2190 C 0.32235 0.72015 0.89343 0.0
C2191 C 0.34338 0.69292 0.86551 0.0
H2192 H 0.34258 0.63938 0.88524 0.0
C2193 C 0.37605 0.60836 0.84777 0.0
C2194 C 0.38908 0.5957 0.85584 0.0
C2195 C 0.36476 0.62734 0.85184 0.0
C2196 C 0.34309 0.65427 0.87968 0.0
H2197 H 0.29246 0.75823 0.87006 0.0
H2198 H 0.30764 0.72267 0.86347 0.0
H2199 H 0.32346 0.67281 0.89243 0.0
H2200 H 0.40047 0.59316 0.87455 0.0
H2201 H 0.3809 0.62628 0.8816 0.0
H2202 H 0.363 0.67443 0.85277 0.0
C2203 C 0.3095 0.72742 0.87292 0.0
C2204 C 0.33214 0.67342 0.8838 0.0
C2205 C 0.30064 0.74776 0.87673 0.0
C2206 C 0.39058 0.60249 0.86807 0.0
C2207 C 0.37923 0.6214 0.87215 0.0
C2208 C 0.35424 0.67378 0.86138 0.0
C2209 C 0.32094 0.7136 0.88115 0.0
C2210 C 0.33217 0.693 0.87676 0.0
C2211 C 0.36617 0.63403 0.86409 0.0
C2212 C 0.35427 0.65425 0.86842 0.0
H2213 H 0.31535 0.74546 0.90668 0.0
H2214 H 0.33116 0.70999 0.9 0.0
H2215 H 0.34416 0.70783 0.85997 0.0
H2216 H 0.37446 0.60358 0.8383 0.0
H2217 H 0.35466 0.63662 0.84543 0.0
C2218 C 0.00022 0.54828 0.62772 0.0
C2219 C 0.99218 0.5506 0.63967 0.0
C2220 C 0.02111 0.55662 0.6245 0.0
C2221 C 0.06055 0.60017 0.63332 0.0
H2222 H 0.10054 0.56997 0.61103 0.0
C2223 C 0.1455 0.63763 0.62019 0.0
C2224 C 0.15236 0.63577 0.60799 0.0
C2225 C 0.12687 0.62605 0.6244 0.0
C2226 C 0.08944 0.57872 0.61716 0.0
H2227 H 0.00015 0.56272 0.65775 0.0
H2228 H 0.03676 0.57733 0.65211 0.0
H2229 H 0.06694 0.55104 0.61813 0.0
H2230 H 0.14494 0.62017 0.59065 0.0
H2231 H 0.11207 0.60026 0.59795 0.0
H2232 H 0.08265 0.62801 0.63218 0.0
C2233 C 0.02675 0.5692 0.64521 0.0
C2234 C 0.07025 0.56784 0.62126 0.0
C2235 C 0.00586 0.5607 0.64846 0.0
C2236 C 0.14014 0.62196 0.6001 0.0
C2237 C 0.12138 0.61042 0.60432 0.0
C2238 C 0.07965 0.61108 0.62918 0.0
C2239 C 0.03442 0.5676 0.63314 0.0
C2240 C 0.05554 0.57849 0.62935 0.0
C2241 C 0.11449 0.61238 0.61652 0.0
C2242 C 0.09431 0.60054 0.62101 0.0
H2243 H 0.99011 0.54054 0.62073 0.0
H2244 H 0.02644 0.55528 0.61511 0.0
H2245 H 0.04935 0.60899 0.63937 0.0
H2246 H 0.1546 0.64796 0.62657 0.0
H2247 H 0.1223 0.62766 0.6339 0.0
C2248 C 0.1109 0.6024 0.13444 0.0
C2249 C 0.11214 0.59535 0.14664 0.0
C2250 C 0.12226 0.62146 0.13058 0.0
C2251 C 0.14582 0.67391 0.14197 0.0
H2252 H 0.17725 0.67477 0.11111 0.0
C2253 C 0.19675 0.75029 0.12742 0.0
C2254 C 0.19465 0.75733 0.11528 0.0
C2255 C 0.18863 0.72954 0.13106 0.0
C2256 C 0.16838 0.67487 0.1197 0.0
H2257 H 0.12645 0.6028 0.16431 0.0
H2258 H 0.14623 0.63611 0.15755 0.0
H2259 H 0.15905 0.64054 0.11791 0.0
H2260 H 0.18307 0.74782 0.09733 0.0
H2261 H 0.16847 0.71166 0.10373 0.0
H2262 H 0.15468 0.70824 0.1437 0.0
C2263 C 0.13634 0.62692 0.15101 0.0
C2264 C 0.15798 0.65526 0.1236 0.0
C2265 C 0.12507 0.60778 0.15487 0.0
C2266 C 0.18498 0.74282 0.10674 0.0
C2267 C 0.17668 0.72207 0.11041 0.0
C2268 C 0.15611 0.69351 0.13805 0.0
C2269 C 0.13503 0.63398 0.13882 0.0
C2270 C 0.14656 0.65459 0.13477 0.0
C2271 C 0.17802 0.71538 0.12268 0.0
C2272 C 0.16752 0.69426 0.12687 0.0
H2273 H 0.10111 0.59323 0.12784 0.0
H2274 H 0.1207 0.62661 0.12117 0.0
H2275 H 0.13684 0.67405 0.15052 0.0
H2276 H 0.20432 0.76098 0.1342 0.0
H2277 H 0.19043 0.72473 0.14051 0.0
C2278 C 0.14565 0.35781 0.88551 0.0
C2279 C 0.15142 0.35883 0.89791 0.0
C2280 C 0.12718 0.36942 0.88109 0.0
C2281 C 0.08899 0.41599 0.88858 0.0
H2282 H 0.05108 0.38821 0.86434 0.0
C2283 C 0.00083 0.44755 0.87677 0.0
C2284 C 0.9939 0.44684 0.86456 0.0
C2285 C 0.02139 0.43872 0.88023 0.0
C2286 C 0.06169 0.39634 0.87097 0.0
H2287 H 0.14207 0.37271 0.91541 0.0
H2288 H 0.10953 0.39261 0.90774 0.0
H2289 H 0.08371 0.36839 0.87185 0.0
H2290 H 0.00347 0.437 0.8463 0.0
H2291 H 0.03951 0.42149 0.85236 0.0
H2292 H 0.06658 0.44375 0.88786 0.0
C2293 C 0.11958 0.38316 0.90138 0.0
C2294 C 0.0804 0.38497 0.87529 0.0
C2295 C 0.13814 0.37161 0.9058 0.0
C2296 C 0.00834 0.4378 0.85579 0.0
C2297 C 0.02889 0.42878 0.85927 0.0
C2298 C 0.0702 0.42731 0.8843 0.0
C2299 C 0.11391 0.38227 0.88896 0.0
C2300 C 0.09422 0.39458 0.88421 0.0
C2301 C 0.03546 0.42884 0.87156 0.0
C2302 C 0.05627 0.41755 0.8755 0.0
H2303 H 0.15557 0.34825 0.87914 0.0
H2304 H 0.12353 0.3686 0.87145 0.0
H2305 H 0.09948 0.42407 0.89527 0.0
H2306 H 0.99011 0.45444 0.88376 0.0
H2307 H 0.02587 0.43886 0.88978 0.0
C2308 C 0.29959 0.2489 0.62686 0.0
C2309 C 0.30246 0.24188 0.61476 0.0
C2310 C 0.30737 0.26969 0.63066 0.0
C2311 C 0.32829 0.32438 0.61954 0.0
H2312 H 0.35774 0.32569 0.65097 0.0
C2313 C 0.3868 0.39566 0.63439 0.0
C2314 C 0.385 0.40353 0.64642 0.0
C2315 C 0.37504 0.37679 0.63064 0.0
C2316 C 0.34932 0.32569 0.64224 0.0
H2317 H 0.31509 0.25146 0.59704 0.0
H2318 H 0.32913 0.28764 0.60371 0.0
H2319 H 0.34002 0.29149 0.64404 0.0
H2320 H 0.36933 0.39768 0.66392 0.0
H2321 H 0.34888 0.36455 0.65736 0.0
H2322 H 0.33818 0.35852 0.61767 0.0
C2323 C 0.32055 0.27722 0.61024 0.0
C2324 C 0.3391 0.30608 0.63827 0.0
C2325 C 0.31257 0.25644 0.60642 0.0
C2326 C 0.37112 0.39205 0.65461 0.0
C2327 C 0.35947 0.37304 0.65087 0.0
C2328 C 0.33865 0.34397 0.62349 0.0
C2329 C 0.31841 0.28392 0.62247 0.0
C2330 C 0.32853 0.30513 0.62684 0.0
C2331 C 0.3613 0.36523 0.63883 0.0
C2332 C 0.34939 0.34479 0.63486 0.0
H2333 H 0.29166 0.23815 0.63349 0.0
H2334 H 0.30496 0.27449 0.64007 0.0
H2335 H 0.32003 0.32437 0.61077 0.0
H2336 H 0.3973 0.40408 0.62783 0.0
H2337 H 0.37703 0.37102 0.62136 0.0
C2338 C 0.49044 0.56232 0.35597 0.0
C2339 C 0.50525 0.55231 0.36423 0.0
C2340 C 0.46988 0.57055 0.35998 0.0
C2341 C 0.44265 0.59038 0.38818 0.0
H2342 H 0.38899 0.58894 0.36857 0.0
C2343 C 0.35787 0.62239 0.40603 0.0
C2344 C 0.34539 0.63566 0.39798 0.0
C2345 C 0.37678 0.61099 0.40195 0.0
C2346 C 0.4039 0.58959 0.37411 0.0
H2347 H 0.50961 0.5419 0.38299 0.0
H2348 H 0.47366 0.55568 0.38988 0.0
H2349 H 0.42265 0.57045 0.36124 0.0
H2350 H 0.34304 0.64725 0.3793 0.0
H2351 H 0.37599 0.62745 0.37225 0.0
H2352 H 0.42393 0.60955 0.40104 0.0
C2353 C 0.4781 0.5578 0.3804 0.0
C2354 C 0.42319 0.57902 0.36991 0.0
C2355 C 0.49866 0.54974 0.37642 0.0
C2356 C 0.35223 0.63719 0.38576 0.0
C2357 C 0.37104 0.62571 0.38168 0.0
C2358 C 0.42336 0.60084 0.3924 0.0
C2359 C 0.46368 0.56881 0.37231 0.0
C2360 C 0.44284 0.57936 0.37687 0.0
C2361 C 0.38355 0.6125 0.38972 0.0
C2362 C 0.4038 0.60068 0.38539 0.0
H2363 H 0.49508 0.56461 0.34653 0.0
H2364 H 0.45926 0.57908 0.35351 0.0
H2365 H 0.45759 0.5914 0.39368 0.0
H2366 H 0.35304 0.62079 0.41549 0.0
H2367 H 0.38597 0.60078 0.40835 0.0
loop_
_geom_bond_atom_site_label_1
_geom_bond_atom_site_label_2
_geom_bond_distance
_geom_bond_site_symmetry_2
_ccdc_geom_bond_type
O0 Cd1 2.223 . S
O0 C8 1.315 . S
Cd1 O0 2.223 . S
Cd1 O4 2.297 . S
Cd1 O5 2.439 . S
Cd1 O11 2.240 . S
Cd2 O3 2.240 . S
Cd2 O10 2.223 . S
Cd2 O12 2.297 . S
Cd2 O13 2.439 . S
O3 Cd2 2.240 . S
O3 C8 1.279 . S
O4 Cd1 2.297 . S
O4 C6 1.247 . S
O5 Cd1 2.439 . S
O5 C6 1.208 . S
C6 O4 1.247 . S
C6 O5 1.208 . S
C7 O12 1.247 . S
C7 O13 1.208 . S
C8 O0 1.315 . S
C8 O3 1.279 . S
C9 O10 1.315 . S
C9 O11 1.279 . S
O10 Cd2 2.223 . S
O10 C9 1.315 . S
O11 Cd1 2.240 . S
O11 C9 1.279 . S
O12 Cd2 2.297 . S
O12 C7 1.247 . S
O13 Cd2 2.439 . S
O13 C7 1.208 . S
O14 Cd15 2.223 . S
O14 C22 1.315 . S
Cd15 O14 2.223 . S
Cd15 O18 2.297 . S
Cd15 O19 2.439 . S
Cd15 O25 2.240 . S
Cd16 O17 2.240 . S
Cd16 O24 2.223 . S
Cd16 O26 2.297 . S
Cd16 O27 2.439 . S
O17 Cd16 2.240 . S
O17 C22 1.279 . S
O18 Cd15 2.297 . S
O18 C20 1.247 . S
O19 Cd15 2.439 . S
O19 C20 1.208 . S
C20 O18 1.247 . S
C20 O19 1.208 . S
C21 O26 1.247 . S
C21 O27 1.208 . S
C22 O14 1.315 . S
C22 O17 1.279 . S
C23 O24 1.315 . S
C23 O25 1.279 . S
O24 Cd16 2.223 . S
O24 C23 1.315 . S
O25 Cd15 2.240 . S
O25 C23 1.279 . S
O26 Cd16 2.297 . S
O26 C21 1.247 . S
O27 Cd16 2.439 . S
O27 C21 1.208 . S
O28 Cd29 2.223 . S
O28 C36 1.315 . S
Cd29 O28 2.223 . S
Cd29 O32 2.297 . S
Cd29 O33 2.439 . S
Cd29 O39 2.240 . S
Cd30 O31 2.240 . S
Cd30 O38 2.223 . S
Cd30 O40 2.297 . S
Cd30 O41 2.439 . S
O31 Cd30 2.240 . S
O31 C36 1.279 . S
O32 Cd29 2.297 . S
O32 C34 1.247 . S
O33 Cd29 2.439 . S
O33 C34 1.208 . S
C34 O32 1.247 . S
C34 O33 1.208 . S
C35 O40 1.247 . S
C35 O41 1.208 . S
C36 O28 1.315 . S
C36 O31 1.279 . S
C37 O38 1.315 . S
C37 O39 1.279 . S
O38 Cd30 2.223 . S
O38 C37 1.315 . S
O39 Cd29 2.240 . S
O39 C37 1.279 . S
O40 Cd30 2.297 . S
O40 C35 1.247 . S
O41 Cd30 2.439 . S
O41 C35 1.208 . S
O42 Cd43 2.223 . S
O42 C50 1.315 . S
Cd43 O42 2.223 . S
Cd43 O46 2.297 . S
Cd43 O47 2.439 . S
Cd43 O53 2.240 . S
Cd44 O45 2.240 . S
Cd44 O52 2.223 . S
Cd44 O54 2.297 . S
Cd44 O55 2.439 . S
O45 Cd44 2.240 . S
O45 C50 1.279 . S
O46 Cd43 2.297 . S
O46 C48 1.247 . S
O47 Cd43 2.439 . S
O47 C48 1.208 . S
C48 O46 1.247 . S
C48 O47 1.208 . S
C49 O54 1.247 . S
C49 O55 1.208 . S
C50 O42 1.315 . S
C50 O45 1.279 . S
C51 O52 1.315 . S
C51 O53 1.279 . S
O52 Cd44 2.223 . S
O52 C51 1.315 . S
O53 Cd43 2.240 . S
O53 C51 1.279 . S
O54 Cd44 2.297 . S
O54 C49 1.247 . S
O55 Cd44 2.439 . S
O55 C49 1.208 . S
O56 Cd57 2.223 . S
O56 C64 1.315 . S
Cd57 O56 2.223 . S
Cd57 O60 2.297 . S
Cd57 O61 2.439 . S
Cd57 O67 2.240 . S
Cd58 O59 2.240 . S
Cd58 O66 2.223 . S
Cd58 O68 2.297 . S
Cd58 O69 2.439 . S
O59 Cd58 2.240 . S
O59 C64 1.279 . S
O60 Cd57 2.297 . S
O60 C62 1.247 . S
O61 Cd57 2.439 . S
O61 C62 1.208 . S
C62 O60 1.247 . S
C62 O61 1.208 . S
C63 O68 1.247 . S
C63 O69 1.208 . S
C64 O56 1.315 . S
C64 O59 1.279 . S
C65 O66 1.315 . S
C65 O67 1.279 . S
O66 Cd58 2.223 . S
O66 C65 1.315 . S
O67 Cd57 2.240 . S
O67 C65 1.279 . S
O68 Cd58 2.297 . S
O68 C63 1.247 . S
O69 Cd58 2.439 . S
O69 C63 1.208 . S
O70 Cd71 2.223 . S
O70 C78 1.315 . S
Cd71 O70 2.223 . S
Cd71 O74 2.297 . S
Cd71 O75 2.439 . S
Cd71 O81 2.240 . S
Cd72 O73 2.240 . S
Cd72 O80 2.223 . S
Cd72 O82 2.297 . S
Cd72 O83 2.439 . S
O73 Cd72 2.240 . S
O73 C78 1.279 . S
O74 Cd71 2.297 . S
O74 C76 1.247 . S
O75 Cd71 2.439 . S
O75 C76 1.208 . S
C76 O74 1.247 . S
C76 O75 1.208 . S
C77 O82 1.247 . S
C77 O83 1.208 . S
C78 O70 1.315 . S
C78 O73 1.279 . S
C79 O80 1.315 . S
C79 O81 1.279 . S
O80 Cd72 2.223 . S
O80 C79 1.315 . S
O81 Cd71 2.240 . S
O81 C79 1.279 . S
O82 Cd72 2.297 . S
O82 C77 1.247 . S
O83 Cd72 2.439 . S
O83 C77 1.208 . S
O84 Cd85 2.223 . S
O84 C92 1.315 . S
Cd85 O84 2.223 . S
Cd85 O88 2.297 . S
Cd85 O89 2.439 . S
Cd85 O95 2.240 . S
Cd86 O87 2.240 . S
Cd86 O94 2.223 . S
Cd86 O96 2.297 . S
Cd86 O97 2.439 . S
O87 Cd86 2.240 . S
O87 C92 1.279 . S
O88 Cd85 2.297 . S
O88 C90 1.247 . S
O89 Cd85 2.439 . S
O89 C90 1.208 . S
C90 O88 1.247 . S
C90 O89 1.208 . S
C91 O96 1.247 . S
C91 O97 1.208 . S
C92 O84 1.315 . S
C92 O87 1.279 . S
C93 O94 1.315 . S
C93 O95 1.279 . S
O94 Cd86 2.223 . S
O94 C93 1.315 . S
O95 Cd85 2.240 . S
O95 C93 1.279 . S
O96 Cd86 2.297 . S
O96 C91 1.247 . S
O97 Cd86 2.439 . S
O97 C91 1.208 . S
O98 Cd99 2.223 . S
O98 C106 1.315 . S
Cd99 O98 2.223 . S
Cd99 O102 2.297 . S
Cd99 O103 2.439 . S
Cd99 O109 2.240 . S
Cd100 O101 2.240 . S
Cd100 O108 2.223 . S
Cd100 O110 2.297 . S
Cd100 O111 2.439 . S
O101 Cd100 2.240 . S
O101 C106 1.279 . S
O102 Cd99 2.297 . S
O102 C104 1.247 . S
O103 Cd99 2.439 . S
O103 C104 1.208 . S
C104 O102 1.247 . S
C104 O103 1.208 . S
C105 O110 1.247 . S
C105 O111 1.208 . S
C106 O98 1.315 . S
C106 O101 1.279 . S
C107 O108 1.315 . S
C107 O109 1.279 . S
O108 Cd100 2.223 . S
O108 C107 1.315 . S
O109 Cd99 2.240 . S
O109 C107 1.279 . S
O110 Cd100 2.297 . S
O110 C105 1.247 . S
O111 Cd100 2.439 . S
O111 C105 1.208 . S
O112 Cd113 2.223 . S
O112 C120 1.315 . S
Cd113 O112 2.223 . S
Cd113 O116 2.297 . S
Cd113 O117 2.439 . S
Cd113 O123 2.240 . S
Cd114 O115 2.240 . S
Cd114 O122 2.223 . S
Cd114 O124 2.297 . S
Cd114 O125 2.439 . S
O115 Cd114 2.240 . S
O115 C120 1.279 . S
O116 Cd113 2.297 . S
O116 C118 1.247 . S
O117 Cd113 2.439 . S
O117 C118 1.208 . S
C118 O116 1.247 . S
C118 O117 1.208 . S
C119 O124 1.247 . S
C119 O125 1.208 . S
C120 O112 1.315 . S
C120 O115 1.279 . S
C121 O122 1.315 . S
C121 O123 1.279 . S
O122 Cd114 2.223 . S
O122 C121 1.315 . S
O123 Cd113 2.240 . S
O123 C121 1.279 . S
O124 Cd114 2.297 . S
O124 C119 1.247 . S
O125 Cd114 2.439 . S
O125 C119 1.208 . S
O126 Cd127 2.223 . S
O126 C134 1.315 . S
Cd127 O126 2.223 . S
Cd127 O130 2.297 . S
Cd127 O131 2.439 . S
Cd127 O137 2.240 . S
Cd128 O129 2.240 . S
Cd128 O136 2.223 . S
Cd128 O138 2.297 . S
Cd128 O139 2.439 . S
O129 Cd128 2.240 . S
O129 C134 1.279 . S
O130 Cd127 2.297 . S
O130 C132 1.247 . S
O131 Cd127 2.439 . S
O131 C132 1.208 . S
C132 O130 1.247 . S
C132 O131 1.208 . S
C133 O138 1.247 . S
C133 O139 1.208 . S
C134 O126 1.315 . S
C134 O129 1.279 . S
C135 O136 1.315 . S
C135 O137 1.279 . S
O136 Cd128 2.223 . S
O136 C135 1.315 . S
O137 Cd127 2.240 . S
O137 C135 1.279 . S
O138 Cd128 2.297 . S
O138 C133 1.247 . S
O139 Cd128 2.439 . S
O139 C133 1.208 . S
O140 Cd141 2.223 . S
O140 C148 1.315 . S
Cd141 O140 2.223 . S
Cd141 O144 2.297 . S
Cd141 O145 2.439 . S
Cd141 O151 2.240 . S
Cd142 O143 2.240 . S
Cd142 O150 2.223 . S
Cd142 O152 2.297 . S
Cd142 O153 2.439 . S
O143 Cd142 2.240 . S
O143 C148 1.279 . S
O144 Cd141 2.297 . S
O144 C146 1.247 . S
O145 Cd141 2.439 . S
O145 C146 1.208 . S
C146 O144 1.247 . S
C146 O145 1.208 . S
C147 O152 1.247 . S
C147 O153 1.208 . S
C148 O140 1.315 . S
C148 O143 1.279 . S
C149 O150 1.315 . S
C149 O151 1.279 . S
O150 Cd142 2.223 . S
O150 C149 1.315 . S
O151 Cd141 2.240 . S
O151 C149 1.279 . S
O152 Cd142 2.297 . S
O152 C147 1.247 . S
O153 Cd142 2.439 . S
O153 C147 1.208 . S
O154 Cd155 2.223 . S
O154 C162 1.315 . S
Cd155 O154 2.223 . S
Cd155 O158 2.297 . S
Cd155 O159 2.439 . S
Cd155 O165 2.240 . S
Cd156 O157 2.240 . S
Cd156 O164 2.223 . S
Cd156 O166 2.297 . S
Cd156 O167 2.439 . S
O157 Cd156 2.240 . S
O157 C162 1.279 . S
O158 Cd155 2.297 . S
O158 C160 1.247 . S
O159 Cd155 2.439 . S
O159 C160 1.208 . S
C160 O158 1.247 . S
C160 O159 1.208 . S
C161 O166 1.247 . S
C161 O167 1.208 . S
C162 O154 1.315 . S
C162 O157 1.279 . S
C163 O164 1.315 . S
C163 O165 1.279 . S
O164 Cd156 2.223 . S
O164 C163 1.315 . S
O165 Cd155 2.240 . S
O165 C163 1.279 . S
O166 Cd156 2.297 . S
O166 C161 1.247 . S
O167 Cd156 2.439 . S
O167 C161 1.208 . S
O168 Cd169 2.223 . S
O168 C176 1.315 . S
Cd169 O168 2.223 . S
Cd169 O172 2.297 . S
Cd169 O173 2.439 . S
Cd169 O179 2.240 . S
Cd170 O171 2.240 . S
Cd170 O178 2.223 . S
Cd170 O180 2.297 . S
Cd170 O181 2.439 . S
O171 Cd170 2.240 . S
O171 C176 1.279 . S
O172 Cd169 2.297 . S
O172 C174 1.247 . S
O173 Cd169 2.439 . S
O173 C174 1.208 . S
C174 O172 1.247 . S
C174 O173 1.208 . S
C175 O180 1.247 . S
C175 O181 1.208 . S
C176 O168 1.315 . S
C176 O171 1.279 . S
C177 O178 1.315 . S
C177 O179 1.279 . S
O178 Cd170 2.223 . S
O178 C177 1.315 . S
O179 Cd169 2.240 . S
O179 C177 1.279 . S
O180 Cd170 2.297 . S
O180 C175 1.247 . S
O181 Cd170 2.439 . S
O181 C175 1.208 . S
O182 Cd183 2.223 . S
O182 C190 1.315 . S
Cd183 O182 2.223 . S
Cd183 O186 2.297 . S
Cd183 O187 2.439 . S
Cd183 O193 2.240 . S
Cd184 O185 2.240 . S
Cd184 O192 2.223 . S
Cd184 O194 2.297 . S
Cd184 O195 2.439 . S
O185 Cd184 2.240 . S
O185 C190 1.279 . S
O186 Cd183 2.297 . S
O186 C188 1.247 . S
O187 Cd183 2.439 . S
O187 C188 1.208 . S
C188 O186 1.247 . S
C188 O187 1.208 . S
C189 O194 1.247 . S
C189 O195 1.208 . S
C190 O182 1.315 . S
C190 O185 1.279 . S
C191 O192 1.315 . S
C191 O193 1.279 . S
O192 Cd184 2.223 . S
O192 C191 1.315 . S
O193 Cd183 2.240 . S
O193 C191 1.279 . S
O194 Cd184 2.297 . S
O194 C189 1.247 . S
O195 Cd184 2.439 . S
O195 C189 1.208 . S
O196 Cd197 2.223 . S
O196 C204 1.315 . S
Cd197 O196 2.223 . S
Cd197 O200 2.297 . S
Cd197 O201 2.439 . S
Cd197 O207 2.240 . S
Cd198 O199 2.240 . S
Cd198 O206 2.223 . S
Cd198 O208 2.297 . S
Cd198 O209 2.439 . S
O199 Cd198 2.240 . S
O199 C204 1.279 . S
O200 Cd197 2.297 . S
O200 C202 1.247 . S
O201 Cd197 2.439 . S
O201 C202 1.208 . S
C202 O200 1.247 . S
C202 O201 1.208 . S
C203 O208 1.247 . S
C203 O209 1.208 . S
C204 O196 1.315 . S
C204 O199 1.279 . S
C205 O206 1.315 . S
C205 O207 1.279 . S
O206 Cd198 2.223 . S
O206 C205 1.315 . S
O207 Cd197 2.240 . S
O207 C205 1.279 . S
O208 Cd198 2.297 . S
O208 C203 1.247 . S
O209 Cd198 2.439 . S
O209 C203 1.208 . S
O210 Cd211 2.223 . S
O210 C218 1.315 . S
Cd211 O210 2.223 . S
Cd211 O214 2.297 . S
Cd211 O215 2.439 . S
Cd211 O221 2.240 . S
Cd212 O213 2.240 . S
Cd212 O220 2.223 . S
Cd212 O222 2.297 . S
Cd212 O223 2.439 . S
O213 Cd212 2.240 . S
O213 C218 1.279 . S
O214 Cd211 2.297 . S
O214 C216 1.247 . S
O215 Cd211 2.439 . S
O215 C216 1.208 . S
C216 O214 1.247 . S
C216 O215 1.208 . S
C217 O222 1.247 . S
C217 O223 1.208 . S
C218 O210 1.315 . S
C218 O213 1.279 . S
C219 O220 1.315 . S
C219 O221 1.279 . S
O220 Cd212 2.223 . S
O220 C219 1.315 . S
O221 Cd211 2.240 . S
O221 C219 1.279 . S
O222 Cd212 2.297 . S
O222 C217 1.247 . S
O223 Cd212 2.439 . S
O223 C217 1.208 . S
O224 Cd225 2.223 . S
O224 C232 1.315 . S
Cd225 O224 2.223 . S
Cd225 O228 2.297 . S
Cd225 O229 2.439 . S
Cd225 O235 2.240 . S
Cd226 O227 2.240 . S
Cd226 O234 2.223 . S
Cd226 O236 2.297 . S
Cd226 O237 2.439 . S
O227 Cd226 2.240 . S
O227 C232 1.279 . S
O228 Cd225 2.297 . S
O228 C230 1.247 . S
O229 Cd225 2.439 . S
O229 C230 1.208 . S
C230 O228 1.247 . S
C230 O229 1.208 . S
C231 O236 1.247 . S
C231 O237 1.208 . S
C232 O224 1.315 . S
C232 O227 1.279 . S
C233 O234 1.315 . S
C233 O235 1.279 . S
O234 Cd226 2.223 . S
O234 C233 1.315 . S
O235 Cd225 2.240 . S
O235 C233 1.279 . S
O236 Cd226 2.297 . S
O236 C231 1.247 . S
O237 Cd226 2.439 . S
O237 C231 1.208 . S
O238 Cd239 2.223 . S
O238 C246 1.315 . S
Cd239 O238 2.223 . S
Cd239 O242 2.297 . S
Cd239 O243 2.439 . S
Cd239 O249 2.240 . S
Cd240 O241 2.240 . S
Cd240 O248 2.223 . S
Cd240 O250 2.297 . S
Cd240 O251 2.439 . S
O241 Cd240 2.240 . S
O241 C246 1.279 . S
O242 Cd239 2.297 . S
O242 C244 1.247 . S
O243 Cd239 2.439 . S
O243 C244 1.208 . S
C244 O242 1.247 . S
C244 O243 1.208 . S
C245 O250 1.247 . S
C245 O251 1.208 . S
C246 O238 1.315 . S
C246 O241 1.279 . S
C247 O248 1.315 . S
C247 O249 1.279 . S
O248 Cd240 2.223 . S
O248 C247 1.315 . S
O249 Cd239 2.240 . S
O249 C247 1.279 . S
O250 Cd240 2.297 . S
O250 C245 1.247 . S
O251 Cd240 2.439 . S
O251 C245 1.208 . S
O252 Cd253 2.223 . S
O252 C260 1.315 . S
Cd253 O252 2.223 . S
Cd253 O256 2.297 . S
Cd253 O257 2.439 . S
Cd253 O263 2.240 . S
Cd254 O255 2.240 . S
Cd254 O262 2.223 . S
Cd254 O264 2.297 . S
Cd254 O265 2.439 . S
O255 Cd254 2.240 . S
O255 C260 1.279 . S
O256 Cd253 2.297 . S
O256 C258 1.247 . S
O257 Cd253 2.439 . S
O257 C258 1.208 . S
C258 O256 1.247 . S
C258 O257 1.208 . S
C259 O264 1.247 . S
C259 O265 1.208 . S
C260 O252 1.315 . S
C260 O255 1.279 . S
C261 O262 1.315 . S
C261 O263 1.279 . S
O262 Cd254 2.223 . S
O262 C261 1.315 . S
O263 Cd253 2.240 . S
O263 C261 1.279 . S
O264 Cd254 2.297 . S
O264 C259 1.247 . S
O265 Cd254 2.439 . S
O265 C259 1.208 . S
O266 Cd267 2.223 . S
O266 C274 1.315 . S
Cd267 O266 2.223 . S
Cd267 O270 2.297 . S
Cd267 O271 2.439 . S
Cd267 O277 2.240 . S
Cd268 O269 2.240 . S
Cd268 O276 2.223 . S
Cd268 O278 2.297 . S
Cd268 O279 2.439 . S
O269 Cd268 2.240 . S
O269 C274 1.279 . S
O270 Cd267 2.297 . S
O270 C272 1.247 . S
O271 Cd267 2.439 . S
O271 C272 1.208 . S
C272 O270 1.247 . S
C272 O271 1.208 . S
C273 O278 1.247 . S
C273 O279 1.208 . S
C274 O266 1.315 . S
C274 O269 1.279 . S
C275 O276 1.315 . S
C275 O277 1.279 . S
O276 Cd268 2.223 . S
O276 C275 1.315 . S
O277 Cd267 2.240 . S
O277 C275 1.279 . S
O278 Cd268 2.297 . S
O278 C273 1.247 . S
O279 Cd268 2.439 . S
O279 C273 1.208 . S
O280 Cd281 2.223 . S
O280 C288 1.315 . S
Cd281 O280 2.223 . S
Cd281 O284 2.297 . S
Cd281 O285 2.439 . S
Cd281 O291 2.240 . S
Cd282 O283 2.240 . S
Cd282 O290 2.223 . S
Cd282 O292 2.297 . S
Cd282 O293 2.439 . S
O283 Cd282 2.240 . S
O283 C288 1.279 . S
O284 Cd281 2.297 . S
O284 C286 1.247 . S
O285 Cd281 2.439 . S
O285 C286 1.208 . S
C286 O284 1.247 . S
C286 O285 1.208 . S
C287 O292 1.247 . S
C287 O293 1.208 . S
C288 O280 1.315 . S
C288 O283 1.279 . S
C289 O290 1.315 . S
C289 O291 1.279 . S
O290 Cd282 2.223 . S
O290 C289 1.315 . S
O291 Cd281 2.240 . S
O291 C289 1.279 . S
O292 Cd282 2.297 . S
O292 C287 1.247 . S
O293 Cd282 2.439 . S
O293 C287 1.208 . S
O294 Cd295 2.223 . S
O294 C302 1.315 . S
Cd295 O294 2.223 . S
Cd295 O298 2.297 . S
Cd295 O299 2.439 . S
Cd295 O305 2.240 . S
Cd296 O297 2.240 . S
Cd296 O304 2.223 . S
Cd296 O306 2.297 . S
Cd296 O307 2.439 . S
O297 Cd296 2.240 . S
O297 C302 1.279 . S
O298 Cd295 2.297 . S
O298 C300 1.247 . S
O299 Cd295 2.439 . S
O299 C300 1.208 . S
C300 O298 1.247 . S
C300 O299 1.208 . S
C301 O306 1.247 . S
C301 O307 1.208 . S
C302 O294 1.315 . S
C302 O297 1.279 . S
C303 O304 1.315 . S
C303 O305 1.279 . S
O304 Cd296 2.223 . S
O304 C303 1.315 . S
O305 Cd295 2.240 . S
O305 C303 1.279 . S
O306 Cd296 2.297 . S
O306 C301 1.247 . S
O307 Cd296 2.439 . S
O307 C301 1.208 . S
O308 Cd309 2.223 . S
O308 C316 1.315 . S
Cd309 O308 2.223 . S
Cd309 O312 2.297 . S
Cd309 O313 2.439 . S
Cd309 O319 2.240 . S
Cd310 O311 2.240 . S
Cd310 O318 2.223 . S
Cd310 O320 2.297 . S
Cd310 O321 2.439 . S
O311 Cd310 2.240 . S
O311 C316 1.279 . S
O312 Cd309 2.297 . S
O312 C314 1.247 . S
O313 Cd309 2.439 . S
O313 C314 1.208 . S
C314 O312 1.247 . S
C314 O313 1.208 . S
C315 O320 1.247 . S
C315 O321 1.208 . S
C316 O308 1.315 . S
C316 O311 1.279 . S
C317 O318 1.315 . S
C317 O319 1.279 . S
O318 Cd310 2.223 . S
O318 C317 1.315 . S
O319 Cd309 2.240 . S
O319 C317 1.279 . S
O320 Cd310 2.297 . S
O320 C315 1.247 . S
O321 Cd310 2.439 . S
O321 C315 1.208 . S
O322 Cd323 2.223 . S
O322 C330 1.315 . S
Cd323 O322 2.223 . S
Cd323 O326 2.297 . S
Cd323 O327 2.439 . S
Cd323 O333 2.240 . S
Cd324 O325 2.240 . S
Cd324 O332 2.223 . S
Cd324 O334 2.297 . S
Cd324 O335 2.439 . S
O325 Cd324 2.240 . S
O325 C330 1.279 . S
O326 Cd323 2.297 . S
O326 C328 1.247 . S
O327 Cd323 2.439 . S
O327 C328 1.208 . S
C328 O326 1.247 . S
C328 O327 1.208 . S
C329 O334 1.247 . S
C329 O335 1.208 . S
C330 O322 1.315 . S
C330 O325 1.279 . S
C331 O332 1.315 . S
C331 O333 1.279 . S
O332 Cd324 2.223 . S
O332 C331 1.315 . S
O333 Cd323 2.240 . S
O333 C331 1.279 . S
O334 Cd324 2.297 . S
O334 C329 1.247 . S
O335 Cd324 2.439 . S
O335 C329 1.208 . S
O336 Cd337 2.223 . S
O336 C344 1.315 . S
Cd337 O336 2.223 . S
Cd337 O340 2.297 . S
Cd337 O341 2.439 . S
Cd337 O347 2.240 . S
Cd338 O339 2.240 . S
Cd338 O346 2.223 . S
Cd338 O348 2.297 . S
Cd338 O349 2.439 . S
O339 Cd338 2.240 . S
O339 C344 1.279 . S
O340 Cd337 2.297 . S
O340 C342 1.247 . S
O341 Cd337 2.439 . S
O341 C342 1.208 . S
C342 O340 1.247 . S
C342 O341 1.208 . S
C343 O348 1.247 . S
C343 O349 1.208 . S
C344 O336 1.315 . S
C344 O339 1.279 . S
C345 O346 1.315 . S
C345 O347 1.279 . S
O346 Cd338 2.223 . S
O346 C345 1.315 . S
O347 Cd337 2.240 . S
O347 C345 1.279 . S
O348 Cd338 2.297 . S
O348 C343 1.247 . S
O349 Cd338 2.439 . S
O349 C343 1.208 . S
O350 Cd351 2.223 . S
O350 C358 1.315 . S
Cd351 O350 2.223 . S
Cd351 O354 2.297 . S
Cd351 O355 2.439 . S
Cd351 O361 2.240 . S
Cd352 O353 2.240 . S
Cd352 O360 2.223 . S
Cd352 O362 2.297 . S
Cd352 O363 2.439 . S
O353 Cd352 2.240 . S
O353 C358 1.279 . S
O354 Cd351 2.297 . S
O354 C356 1.247 . S
O355 Cd351 2.439 . S
O355 C356 1.208 . S
C356 O354 1.247 . S
C356 O355 1.208 . S
C357 O362 1.247 . S
C357 O363 1.208 . S
C358 O350 1.315 . S
C358 O353 1.279 . S
C359 O360 1.315 . S
C359 O361 1.279 . S
O360 Cd352 2.223 . S
O360 C359 1.315 . S
O361 Cd351 2.240 . S
O361 C359 1.279 . S
O362 Cd352 2.297 . S
O362 C357 1.247 . S
O363 Cd352 2.439 . S
O363 C357 1.208 . S
O364 Cd365 2.223 . S
O364 C372 1.315 . S
Cd365 O364 2.223 . S
Cd365 O368 2.297 . S
Cd365 O369 2.439 . S
Cd365 O375 2.240 . S
Cd366 O367 2.240 . S
Cd366 O374 2.223 . S
Cd366 O376 2.297 . S
Cd366 O377 2.439 . S
O367 Cd366 2.240 . S
O367 C372 1.279 . S
O368 Cd365 2.297 . S
O368 C370 1.247 . S
O369 Cd365 2.439 . S
O369 C370 1.208 . S
C370 O368 1.247 . S
C370 O369 1.208 . S
C371 O376 1.247 . S
C371 O377 1.208 . S
C372 O364 1.315 . S
C372 O367 1.279 . S
C373 O374 1.315 . S
C373 O375 1.279 . S
O374 Cd366 2.223 . S
O374 C373 1.315 . S
O375 Cd365 2.240 . S
O375 C373 1.279 . S
O376 Cd366 2.297 . S
O376 C371 1.247 . S
O377 Cd366 2.439 . S
O377 C371 1.208 . S
O378 Cd379 2.223 . S
O378 C386 1.315 . S
Cd379 O378 2.223 . S
Cd379 O382 2.297 . S
Cd379 O383 2.439 . S
Cd379 O389 2.240 . S
Cd380 O381 2.240 . S
Cd380 O388 2.223 . S
Cd380 O390 2.297 . S
Cd380 O391 2.439 . S
O381 Cd380 2.240 . S
O381 C386 1.279 . S
O382 Cd379 2.297 . S
O382 C384 1.247 . S
O383 Cd379 2.439 . S
O383 C384 1.208 . S
C384 O382 1.247 . S
C384 O383 1.208 . S
C385 O390 1.247 . S
C385 O391 1.208 . S
C386 O378 1.315 . S
C386 O381 1.279 . S
C387 O388 1.315 . S
C387 O389 1.279 . S
O388 Cd380 2.223 . S
O388 C387 1.315 . S
O389 Cd379 2.240 . S
O389 C387 1.279 . S
O390 Cd380 2.297 . S
O390 C385 1.247 . S
O391 Cd380 2.439 . S
O391 C385 1.208 . S
O392 Cd393 2.223 . S
O392 C400 1.315 . S
Cd393 O392 2.223 . S
Cd393 O396 2.297 . S
Cd393 O397 2.439 . S
Cd393 O403 2.240 . S
Cd394 O395 2.240 . S
Cd394 O402 2.223 . S
Cd394 O404 2.297 . S
Cd394 O405 2.439 . S
O395 Cd394 2.240 . S
O395 C400 1.279 . S
O396 Cd393 2.297 . S
O396 C398 1.247 . S
O397 Cd393 2.439 . S
O397 C398 1.208 . S
C398 O396 1.247 . S
C398 O397 1.208 . S
C399 O404 1.247 . S
C399 O405 1.208 . S
C400 O392 1.315 . S
C400 O395 1.279 . S
C401 O402 1.315 . S
C401 O403 1.279 . S
O402 Cd394 2.223 . S
O402 C401 1.315 . S
O403 Cd393 2.240 . S
O403 C401 1.279 . S
O404 Cd394 2.297 . S
O404 C399 1.247 . S
O405 Cd394 2.439 . S
O405 C399 1.208 . S
O406 Cd407 2.223 . S
O406 C414 1.315 . S
Cd407 O406 2.223 . S
Cd407 O410 2.297 . S
Cd407 O411 2.439 . S
Cd407 O417 2.240 . S
Cd408 O409 2.240 . S
Cd408 O416 2.223 . S
Cd408 O418 2.297 . S
Cd408 O419 2.439 . S
O409 Cd408 2.240 . S
O409 C414 1.279 . S
O410 Cd407 2.297 . S
O410 C412 1.247 . S
O411 Cd407 2.439 . S
O411 C412 1.208 . S
C412 O410 1.247 . S
C412 O411 1.208 . S
C413 O418 1.247 . S
C413 O419 1.208 . S
C414 O406 1.315 . S
C414 O409 1.279 . S
C415 O416 1.315 . S
C415 O417 1.279 . S
O416 Cd408 2.223 . S
O416 C415 1.315 . S
O417 Cd407 2.240 . S
O417 C415 1.279 . S
O418 Cd408 2.297 . S
O418 C413 1.247 . S
O419 Cd408 2.439 . S
O419 C413 1.208 . S
O420 Cd421 2.223 . S
O420 C428 1.315 . S
Cd421 O420 2.223 . S
Cd421 O424 2.297 . S
Cd421 O425 2.439 . S
Cd421 O431 2.240 . S
Cd422 O423 2.240 . S
Cd422 O430 2.223 . S
Cd422 O432 2.297 . S
Cd422 O433 2.439 . S
O423 Cd422 2.240 . S
O423 C428 1.279 . S
O424 Cd421 2.297 . S
O424 C426 1.247 . S
O425 Cd421 2.439 . S
O425 C426 1.208 . S
C426 O424 1.247 . S
C426 O425 1.208 . S
C427 O432 1.247 . S
C427 O433 1.208 . S
C428 O420 1.315 . S
C428 O423 1.279 . S
C429 O430 1.315 . S
C429 O431 1.279 . S
O430 Cd422 2.223 . S
O430 C429 1.315 . S
O431 Cd421 2.240 . S
O431 C429 1.279 . S
O432 Cd422 2.297 . S
O432 C427 1.247 . S
O433 Cd422 2.439 . S
O433 C427 1.208 . S
O434 Cd435 2.223 . S
O434 C442 1.315 . S
Cd435 O434 2.223 . S
Cd435 O438 2.297 . S
Cd435 O439 2.439 . S
Cd435 O445 2.240 . S
Cd436 O437 2.240 . S
Cd436 O444 2.223 . S
Cd436 O446 2.297 . S
Cd436 O447 2.439 . S
O437 Cd436 2.240 . S
O437 C442 1.279 . S
O438 Cd435 2.297 . S
O438 C440 1.247 . S
O439 Cd435 2.439 . S
O439 C440 1.208 . S
C440 O438 1.247 . S
C440 O439 1.208 . S
C441 O446 1.247 . S
C441 O447 1.208 . S
C442 O434 1.315 . S
C442 O437 1.279 . S
C443 O444 1.315 . S
C443 O445 1.279 . S
O444 Cd436 2.223 . S
O444 C443 1.315 . S
O445 Cd435 2.240 . S
O445 C443 1.279 . S
O446 Cd436 2.297 . S
O446 C441 1.247 . S
O447 Cd436 2.439 . S
O447 C441 1.208 . S
C448 C449 1.349 . S
C448 C450 1.327 . S
C448 H473 0.950 . S
C449 C448 1.349 . S
C449 C465 1.349 1_565 S
C450 C448 1.327 . S
C450 C469 1.429 . S
C450 H474 0.950 . S
C451 C468 1.574 . S
C451 C470 1.368 1_545 S
C451 H475 0.949 . S
H452 C456 0.949 . S
C453 C454 1.349 . S
C453 C455 1.327 . S
C453 H476 0.950 . S
C454 C453 1.349 . S
C454 C466 1.349 1_545 S
C455 C453 1.327 . S
C455 C471 1.429 . S
C455 H477 0.950 . S
C456 H452 0.949 . S
C456 C464 1.574 . S
C456 C472 1.368 1_565 S
H457 C465 0.950 . S
H458 C463 0.950 . S
H459 C464 0.949 . S
H460 C466 0.950 . S
H461 C467 0.950 . S
H462 C468 0.949 . S
C463 H458 0.950 . S
C463 C465 1.327 . S
C463 C469 1.429 1_545 S
C464 C456 1.574 . S
C464 H459 0.949 . S
C464 C470 1.368 . S
C465 C449 1.349 1_545 S
C465 H457 0.950 . S
C465 C463 1.327 . S
C466 C454 1.349 1_565 S
C466 H460 0.950 . S
C466 C467 1.327 . S
C467 H461 0.950 . S
C467 C466 1.327 . S
C467 C471 1.429 1_565 S
C468 C451 1.574 . S
C468 H462 0.949 . S
C468 C472 1.368 . S
C469 C450 1.429 . S
C469 C463 1.429 1_565 S
C469 C470 1.523 . S
C470 C451 1.368 1_565 S
C470 C464 1.368 . S
C470 C469 1.523 . S
C471 C455 1.429 . S
C471 C467 1.429 1_545 S
C471 C472 1.523 . S
C472 C456 1.368 1_545 S
C472 C468 1.368 . S
C472 C471 1.523 . S
H473 C448 0.950 . S
H474 C450 0.950 . S
H475 C451 0.949 . S
H476 C453 0.950 . S
H477 C455 0.950 . S
C478 C479 1.349 . S
C478 C480 1.327 . S
C478 H503 0.950 . S
C479 C478 1.349 . S
C479 C495 1.349 . S
C480 C478 1.327 . S
C480 C499 1.429 . S
C480 H504 0.950 . S
C481 C498 1.574 . S
C481 C500 1.368 . S
C481 H505 0.949 . S
H482 C486 0.949 . S
C483 C484 1.349 . S
C483 C485 1.327 . S
C483 H506 0.950 . S
C484 C483 1.349 . S
C484 C496 1.349 . S
C485 C483 1.327 . S
C485 C501 1.429 . S
C485 H507 0.950 . S
C486 H482 0.949 . S
C486 C494 1.574 . S
C486 C502 1.368 . S
H487 C495 0.950 . S
H488 C493 0.950 . S
H489 C494 0.949 . S
H490 C496 0.950 . S
H491 C497 0.950 . S
H492 C498 0.949 . S
C493 H488 0.950 . S
C493 C495 1.327 . S
C493 C499 1.429 . S
C494 C486 1.574 . S
C494 H489 0.949 . S
C494 C500 1.368 . S
C495 C479 1.349 . S
C495 H487 0.950 . S
C495 C493 1.327 . S
C496 C484 1.349 . S
C496 H490 0.950 . S
C496 C497 1.327 . S
C497 H491 0.950 . S
C497 C496 1.327 . S
C497 C501 1.429 . S
C498 C481 1.574 . S
C498 H492 0.949 . S
C498 C502 1.368 . S
C499 C480 1.429 . S
C499 C493 1.429 . S
C499 C500 1.523 . S
C500 C481 1.368 . S
C500 C494 1.368 . S
C500 C499 1.523 . S
C501 C485 1.429 . S
C501 C497 1.429 . S
C501 C502 1.523 . S
C502 C486 1.368 . S
C502 C498 1.368 . S
C502 C501 1.523 . S
H503 C478 0.950 . S
H504 C480 0.950 . S
H505 C481 0.949 . S
H506 C483 0.950 . S
H507 C485 0.950 . S
C508 C509 1.362 . S
C508 C510 1.324 1_545 S
C508 H533 0.940 1_545 S
C509 C508 1.362 . S
C509 C525 1.349 . S
C510 C508 1.324 1_565 S
C510 C529 1.429 1_565 S
C510 H534 0.950 . S
C511 C528 1.574 . S
C511 C530 1.368 . S
C511 H535 0.949 . S
H512 C516 0.949 . S
C513 C514 1.362 . S
C513 C515 1.324 1_565 S
C513 H536 0.940 1_565 S
C514 C513 1.362 . S
C514 C526 1.349 . S
C515 C513 1.324 1_545 S
C515 C531 1.429 1_545 S
C515 H537 0.950 . S
C516 H512 0.949 . S
C516 C524 1.574 . S
C516 C532 1.368 . S
H517 C525 0.950 . S
H518 C523 0.950 . S
H519 C524 0.949 . S
H520 C526 0.950 . S
H521 C527 0.950 . S
H522 C528 0.949 . S
C523 H518 0.950 . S
C523 C525 1.327 . S
C523 C529 1.429 . S
C524 C516 1.574 . S
C524 H519 0.949 . S
C524 C530 1.368 1_565 S
C525 C509 1.349 . S
C525 H517 0.950 . S
C525 C523 1.327 . S
C526 C514 1.349 . S
C526 H520 0.950 . S
C526 C527 1.327 . S
C527 H521 0.950 . S
C527 C526 1.327 . S
C527 C531 1.429 . S
C528 C511 1.574 . S
C528 H522 0.949 . S
C528 C532 1.368 1_545 S
C529 C510 1.429 1_545 S
C529 C523 1.429 . S
C529 C530 1.523 . S
C530 C511 1.368 . S
C530 C524 1.368 1_545 S
C530 C529 1.523 . S
C531 C515 1.429 1_565 S
C531 C527 1.429 . S
C531 C532 1.523 . S
C532 C516 1.368 . S
C532 C528 1.368 1_565 S
C532 C531 1.523 . S
H533 C508 0.940 1_565 S
H534 C510 0.950 . S
H535 C511 0.949 . S
H536 C513 0.940 1_545 S
H537 C515 0.950 . S
C538 C539 1.349 . S
C538 C540 1.327 . S
C538 H563 0.950 . S
C539 C538 1.349 . S
C539 C555 1.349 . S
C540 C538 1.327 . S
C540 C559 1.429 . S
C540 H564 0.950 . S
C541 C558 1.574 1_556 S
C541 C560 1.368 . S
C541 H565 0.949 . S
H542 C546 0.949 . S
C543 C544 1.349 . S
C543 C545 1.327 . S
C543 H566 0.950 . S
C544 C543 1.349 . S
C544 C556 1.349 . S
C545 C543 1.327 . S
C545 C561 1.429 . S
C545 H567 0.950 . S
C546 H542 0.949 . S
C546 C554 1.574 1_554 S
C546 C562 1.368 . S
H547 C555 0.950 . S
H548 C553 0.950 . S
H549 C554 0.949 . S
H550 C556 0.950 . S
H551 C557 0.950 . S
H552 C558 0.949 . S
C553 H548 0.950 . S
C553 C555 1.327 . S
C553 C559 1.429 . S
C554 C546 1.574 1_556 S
C554 H549 0.949 . S
C554 C560 1.368 . S
C555 C539 1.349 . S
C555 H547 0.950 . S
C555 C553 1.327 . S
C556 C544 1.349 . S
C556 H550 0.950 . S
C556 C557 1.327 . S
C557 H551 0.950 . S
C557 C556 1.327 . S
C557 C561 1.429 . S
C558 C541 1.574 1_554 S
C558 H552 0.949 . S
C558 C562 1.368 . S
C559 C540 1.429 . S
C559 C553 1.429 . S
C559 C560 1.523 . S
C560 C541 1.368 . S
C560 C554 1.368 . S
C560 C559 1.523 . S
C561 C545 1.429 . S
C561 C557 1.429 . S
C561 C562 1.523 . S
C562 C546 1.368 . S
C562 C558 1.368 . S
C562 C561 1.523 . S
H563 C538 0.950 . S
H564 C540 0.950 . S
H565 C541 0.949 . S
H566 C543 0.950 . S
H567 C545 0.950 . S
C568 C569 1.349 . S
C568 C570 1.327 . S
C568 H593 0.950 . S
C569 C568 1.349 . S
C569 C585 1.349 1_565 S
C570 C568 1.327 . S
C570 C589 1.429 . S
C570 H594 0.950 . S
C571 C588 1.574 . S
C571 C590 1.368 1_545 S
C571 H595 0.949 . S
H572 C576 0.949 . S
C573 C574 1.349 . S
C573 C575 1.327 . S
C573 H596 0.950 . S
C574 C573 1.349 . S
C574 C586 1.349 1_545 S
C575 C573 1.327 . S
C575 C591 1.429 . S
C575 H597 0.950 . S
C576 H572 0.949 . S
C576 C584 1.574 . S
C576 C592 1.368 1_565 S
H577 C585 0.950 . S
H578 C583 0.950 . S
H579 C584 0.949 . S
H580 C586 0.950 . S
H581 C587 0.950 . S
H582 C588 0.949 . S
C583 H578 0.950 . S
C583 C585 1.327 . S
C583 C589 1.429 1_545 S
C584 C576 1.574 . S
C584 H579 0.949 . S
C584 C590 1.368 . S
C585 C569 1.349 1_545 S
C585 H577 0.950 . S
C585 C583 1.327 . S
C586 C574 1.349 1_565 S
C586 H580 0.950 . S
C586 C587 1.327 . S
C587 H581 0.950 . S
C587 C586 1.327 . S
C587 C591 1.429 1_565 S
C588 C571 1.574 . S
C588 H582 0.949 . S
C588 C592 1.368 . S
C589 C570 1.429 . S
C589 C583 1.429 1_565 S
C589 C590 1.523 . S
C590 C571 1.368 1_565 S
C590 C584 1.368 . S
C590 C589 1.523 . S
C591 C575 1.429 . S
C591 C587 1.429 1_545 S
C591 C592 1.523 . S
C592 C576 1.368 1_545 S
C592 C588 1.368 . S
C592 C591 1.523 . S
H593 C568 0.950 . S
H594 C570 0.950 . S
H595 C571 0.949 . S
H596 C573 0.950 . S
H597 C575 0.950 . S
C598 C599 1.349 . S
C598 C600 1.327 . S
C598 H623 0.950 . S
C599 C598 1.349 . S
C599 C615 1.349 . S
C600 C598 1.327 . S
C600 C619 1.429 . S
C600 H624 0.950 . S
C601 C618 1.574 . S
C601 C620 1.368 . S
C601 H625 0.949 . S
H602 C606 0.949 . S
C603 C604 1.349 . S
C603 C605 1.327 . S
C603 H626 0.950 . S
C604 C603 1.349 . S
C604 C616 1.349 . S
C605 C603 1.327 . S
C605 C621 1.429 . S
C605 H627 0.950 . S
C606 H602 0.949 . S
C606 C614 1.574 . S
C606 C622 1.368 . S
H607 C615 0.950 . S
H608 C613 0.950 . S
H609 C614 0.949 . S
H610 C616 0.950 . S
H611 C617 0.950 . S
H612 C618 0.949 . S
C613 H608 0.950 . S
C613 C615 1.327 . S
C613 C619 1.429 . S
C614 C606 1.574 . S
C614 H609 0.949 . S
C614 C620 1.368 . S
C615 C599 1.349 . S
C615 H607 0.950 . S
C615 C613 1.327 . S
C616 C604 1.349 . S
C616 H610 0.950 . S
C616 C617 1.327 . S
C617 H611 0.950 . S
C617 C616 1.327 . S
C617 C621 1.429 . S
C618 C601 1.574 . S
C618 H612 0.949 . S
C618 C622 1.368 . S
C619 C600 1.429 . S
C619 C613 1.429 . S
C619 C620 1.523 . S
C620 C601 1.368 . S
C620 C614 1.368 . S
C620 C619 1.523 . S
C621 C605 1.429 . S
C621 C617 1.429 . S
C621 C622 1.523 . S
C622 C606 1.368 . S
C622 C618 1.368 . S
C622 C621 1.523 . S
H623 C598 0.950 . S
H624 C600 0.950 . S
H625 C601 0.949 . S
H626 C603 0.950 . S
H627 C605 0.950 . S
C628 C629 1.349 1_565 S
C628 C630 1.327 . S
C628 H653 0.950 . S
C629 C628 1.349 1_545 S
C629 C645 1.349 . S
C630 C628 1.327 . S
C630 C649 1.429 1_565 S
C630 H654 0.950 . S
C631 C648 1.574 . S
C631 C650 1.368 . S
C631 H655 0.949 . S
H632 C636 0.949 . S
C633 C634 1.349 1_545 S
C633 C635 1.327 . S
C633 H656 0.950 . S
C634 C633 1.349 1_565 S
C634 C646 1.349 . S
C635 C633 1.327 . S
C635 C651 1.429 1_545 S
C635 H657 0.950 . S
C636 H632 0.949 . S
C636 C644 1.574 . S
C636 C652 1.368 . S
H637 C645 0.950 . S
H638 C643 0.950 . S
H639 C644 0.949 . S
H640 C646 0.950 . S
H641 C647 0.950 . S
H642 C648 0.949 . S
C643 H638 0.950 . S
C643 C645 1.327 . S
C643 C649 1.429 . S
C644 C636 1.574 . S
C644 H639 0.949 . S
C644 C650 1.368 1_565 S
C645 C629 1.349 . S
C645 H637 0.950 . S
C645 C643 1.327 . S
C646 C634 1.349 . S
C646 H640 0.950 . S
C646 C647 1.327 . S
C647 H641 0.950 . S
C647 C646 1.327 . S
C647 C651 1.429 . S
C648 C631 1.574 . S
C648 H642 0.949 . S
C648 C652 1.368 1_545 S
C649 C630 1.429 1_545 S
C649 C643 1.429 . S
C649 C650 1.523 . S
C650 C631 1.368 . S
C650 C644 1.368 1_545 S
C650 C649 1.523 . S
C651 C635 1.429 1_565 S
C651 C647 1.429 . S
C651 C652 1.523 . S
C652 C636 1.368 . S
C652 C648 1.368 1_565 S
C652 C651 1.523 . S
H653 C628 0.950 . S
H654 C630 0.950 . S
H655 C631 0.949 . S
H656 C633 0.950 . S
H657 C635 0.950 . S
C658 C659 1.349 . S
C658 C660 1.327 . S
C658 H683 0.950 . S
C659 C658 1.349 . S
C659 C675 1.349 . S
C660 C658 1.327 . S
C660 C679 1.429 . S
C660 H684 0.950 . S
C661 C678 1.574 1_556 S
C661 C680 1.368 . S
C661 H685 0.949 . S
H662 C666 0.949 . S
C663 C664 1.349 . S
C663 C665 1.327 . S
C663 H686 0.950 . S
C664 C663 1.349 . S
C664 C676 1.349 . S
C665 C663 1.327 . S
C665 C681 1.429 . S
C665 H687 0.950 . S
C666 H662 0.949 . S
C666 C674 1.574 1_554 S
C666 C682 1.368 . S
H667 C675 0.950 . S
H668 C673 0.950 . S
H669 C674 0.949 . S
H670 C676 0.950 . S
H671 C677 0.950 . S
H672 C678 0.949 . S
C673 H668 0.950 . S
C673 C675 1.327 . S
C673 C679 1.429 . S
C674 C666 1.574 1_556 S
C674 H669 0.949 . S
C674 C680 1.368 . S
C675 C659 1.349 . S
C675 H667 0.950 . S
C675 C673 1.327 . S
C676 C664 1.349 . S
C676 H670 0.950 . S
C676 C677 1.327 . S
C677 H671 0.950 . S
C677 C676 1.327 . S
C677 C681 1.429 . S
C678 C661 1.574 1_554 S
C678 H672 0.949 . S
C678 C682 1.368 . S
C679 C660 1.429 . S
C679 C673 1.429 . S
C679 C680 1.523 . S
C680 C661 1.368 . S
C680 C674 1.368 . S
C680 C679 1.523 . S
C681 C665 1.429 . S
C681 C677 1.429 . S
C681 C682 1.523 . S
C682 C666 1.368 . S
C682 C678 1.368 . S
C682 C681 1.523 . S
H683 C658 0.950 . S
H684 C660 0.950 . S
H685 C661 0.949 . S
H686 C663 0.950 . S
H687 C665 0.950 . S
C688 C689 1.349 . S
C688 C690 1.327 . S
C688 H713 0.950 . S
C689 C688 1.349 . S
C689 C705 1.349 . S
C690 C688 1.327 . S
C690 C709 1.429 . S
C690 H714 0.950 . S
C691 C708 1.574 . S
C691 C710 1.368 . S
C691 H715 0.949 . S
H692 C696 0.949 . S
C693 C694 1.349 . S
C693 C695 1.327 . S
C693 H716 0.950 . S
C694 C693 1.349 . S
C694 C706 1.349 . S
C695 C693 1.327 . S
C695 C711 1.429 . S
C695 H717 0.950 . S
C696 H692 0.949 . S
C696 C704 1.574 . S
C696 C712 1.368 . S
H697 C705 0.950 . S
H698 C703 0.950 . S
H699 C704 0.949 . S
H700 C706 0.950 . S
H701 C707 0.950 . S
H702 C708 0.949 . S
C703 H698 0.950 . S
C703 C705 1.327 . S
C703 C709 1.429 . S
C704 C696 1.574 . S
C704 H699 0.949 . S
C704 C710 1.368 . S
C705 C689 1.349 . S
C705 H697 0.950 . S
C705 C703 1.327 . S
C706 C694 1.349 . S
C706 H700 0.950 . S
C706 C707 1.327 . S
C707 H701 0.950 . S
C707 C706 1.327 . S
C707 C711 1.429 . S
C708 C691 1.574 . S
C708 H702 0.949 . S
C708 C712 1.368 . S
C709 C690 1.429 . S
C709 C703 1.429 . S
C709 C710 1.523 . S
C710 C691 1.368 . S
C710 C704 1.368 . S
C710 C709 1.523 . S
C711 C695 1.429 . S
C711 C707 1.429 . S
C711 C712 1.523 . S
C712 C696 1.368 . S
C712 C708 1.368 . S
C712 C711 1.523 . S
H713 C688 0.950 . S
H714 C690 0.950 . S
H715 C691 0.949 . S
H716 C693 0.950 . S
H717 C695 0.950 . S
C718 C719 1.349 . S
C718 C720 1.327 . S
C718 H743 0.950 . S
C719 C718 1.349 . S
C719 C735 1.349 . S
C720 C718 1.327 . S
C720 C739 1.429 . S
C720 H744 0.950 . S
C721 C738 1.574 1_554 S
C721 C740 1.368 . S
C721 H745 0.949 . S
H722 C726 0.949 . S
C723 C724 1.349 . S
C723 C725 1.327 . S
C723 H746 0.950 . S
C724 C723 1.349 . S
C724 C736 1.349 . S
C725 C723 1.327 . S
C725 C741 1.429 . S
C725 H747 0.950 . S
C726 H722 0.949 . S
C726 C734 1.574 1_556 S
C726 C742 1.368 . S
H727 C735 0.950 . S
H728 C733 0.950 . S
H729 C734 0.949 . S
H730 C736 0.950 . S
H731 C737 0.950 . S
H732 C738 0.949 . S
C733 H728 0.950 . S
C733 C735 1.327 . S
C733 C739 1.429 . S
C734 C726 1.574 1_554 S
C734 H729 0.949 . S
C734 C740 1.368 . S
C735 C719 1.349 . S
C735 H727 0.950 . S
C735 C733 1.327 . S
C736 C724 1.349 . S
C736 H730 0.950 . S
C736 C737 1.327 . S
C737 H731 0.950 . S
C737 C736 1.327 . S
C737 C741 1.429 . S
C738 C721 1.574 1_556 S
C738 H732 0.949 . S
C738 C742 1.368 . S
C739 C720 1.429 . S
C739 C733 1.429 . S
C739 C740 1.523 . S
C740 C721 1.368 . S
C740 C734 1.368 . S
C740 C739 1.523 . S
C741 C725 1.429 . S
C741 C737 1.429 . S
C741 C742 1.523 . S
C742 C726 1.368 . S
C742 C738 1.368 . S
C742 C741 1.523 . S
H743 C718 0.950 . S
H744 C720 0.950 . S
H745 C721 0.949 . S
H746 C723 0.950 . S
H747 C725 0.950 . S
C748 C749 1.349 . S
C748 C750 1.327 . S
C748 H773 0.950 . S
C749 C748 1.349 . S
C749 C765 1.349 . S
C750 C748 1.327 . S
C750 C769 1.429 . S
C750 H774 0.950 . S
C751 C768 1.574 . S
C751 C770 1.368 . S
C751 H775 0.949 . S
H752 C756 0.949 . S
C753 C754 1.349 . S
C753 C755 1.327 . S
C753 H776 0.950 . S
C754 C753 1.349 . S
C754 C766 1.349 . S
C755 C753 1.327 . S
C755 C771 1.429 . S
C755 H777 0.950 . S
C756 H752 0.949 . S
C756 C764 1.574 . S
C756 C772 1.368 . S
H757 C765 0.950 . S
H758 C763 0.950 . S
H759 C764 0.949 . S
H760 C766 0.950 . S
H761 C767 0.950 . S
H762 C768 0.949 . S
C763 H758 0.950 . S
C763 C765 1.327 . S
C763 C769 1.429 . S
C764 C756 1.574 . S
C764 H759 0.949 . S
C764 C770 1.368 . S
C765 C749 1.349 . S
C765 H757 0.950 . S
C765 C763 1.327 . S
C766 C754 1.349 . S
C766 H760 0.950 . S
C766 C767 1.327 . S
C767 H761 0.950 . S
C767 C766 1.327 . S
C767 C771 1.429 . S
C768 C751 1.574 . S
C768 H762 0.949 . S
C768 C772 1.368 . S
C769 C750 1.429 . S
C769 C763 1.429 . S
C769 C770 1.523 . S
C770 C751 1.368 . S
C770 C764 1.368 . S
C770 C769 1.523 . S
C771 C755 1.429 . S
C771 C767 1.429 . S
C771 C772 1.523 . S
C772 C756 1.368 . S
C772 C768 1.368 . S
C772 C771 1.523 . S
H773 C748 0.950 . S
H774 C750 0.950 . S
H775 C751 0.949 . S
H776 C753 0.950 . S
H777 C755 0.950 . S
C778 C779 1.349 . S
C778 C780 1.327 . S
C778 H803 0.950 . S
C779 C778 1.349 . S
C779 C795 1.349 . S
C780 C778 1.327 . S
C780 C799 1.429 . S
C780 H804 0.950 . S
C781 C798 1.574 . S
C781 C800 1.368 . S
C781 H805 0.949 . S
H782 C786 0.949 . S
C783 C784 1.349 . S
C783 C785 1.327 . S
C783 H806 0.950 . S
C784 C783 1.349 . S
C784 C796 1.349 . S
C785 C783 1.327 . S
C785 C801 1.429 . S
C785 H807 0.950 . S
C786 H782 0.949 . S
C786 C794 1.574 . S
C786 C802 1.368 . S
H787 C795 0.950 . S
H788 C793 0.950 . S
H789 C794 0.949 . S
H790 C796 0.950 . S
H791 C797 0.950 . S
H792 C798 0.949 . S
C793 H788 0.950 . S
C793 C795 1.327 . S
C793 C799 1.429 . S
C794 C786 1.574 . S
C794 H789 0.949 . S
C794 C800 1.368 . S
C795 C779 1.349 . S
C795 H787 0.950 . S
C795 C793 1.327 . S
C796 C784 1.349 . S
C796 H790 0.950 . S
C796 C797 1.327 . S
C797 H791 0.950 . S
C797 C796 1.327 . S
C797 C801 1.429 . S
C798 C781 1.574 . S
C798 H792 0.949 . S
C798 C802 1.368 . S
C799 C780 1.429 . S
C799 C793 1.429 . S
C799 C800 1.523 . S
C800 C781 1.368 . S
C800 C794 1.368 . S
C800 C799 1.523 . S
C801 C785 1.429 . S
C801 C797 1.429 . S
C801 C802 1.523 . S
C802 C786 1.368 . S
C802 C798 1.368 . S
C802 C801 1.523 . S
H803 C778 0.950 . S
H804 C780 0.950 . S
H805 C781 0.949 . S
H806 C783 0.950 . S
H807 C785 0.950 . S
C808 C809 1.349 . S
C808 C810 1.327 . S
C808 H833 0.950 . S
C809 C808 1.349 . S
C809 C825 1.349 . S
C810 C808 1.327 . S
C810 C829 1.429 . S
C810 H834 0.950 . S
C811 C828 1.574 . S
C811 C830 1.368 . S
C811 H835 0.949 . S
H812 C816 0.949 . S
C813 C814 1.349 . S
C813 C815 1.327 . S
C813 H836 0.950 . S
C814 C813 1.349 . S
C814 C826 1.349 . S
C815 C813 1.327 . S
C815 C831 1.429 . S
C815 H837 0.950 . S
C816 H812 0.949 . S
C816 C824 1.574 . S
C816 C832 1.368 . S
H817 C825 0.950 . S
H818 C823 0.950 . S
H819 C824 0.949 . S
H820 C826 0.950 . S
H821 C827 0.950 . S
H822 C828 0.949 . S
C823 H818 0.950 . S
C823 C825 1.327 . S
C823 C829 1.429 . S
C824 C816 1.574 . S
C824 H819 0.949 . S
C824 C830 1.368 . S
C825 C809 1.349 . S
C825 H817 0.950 . S
C825 C823 1.327 . S
C826 C814 1.349 . S
C826 H820 0.950 . S
C826 C827 1.327 . S
C827 H821 0.950 . S
C827 C826 1.327 . S
C827 C831 1.429 . S
C828 C811 1.574 . S
C828 H822 0.949 . S
C828 C832 1.368 . S
C829 C810 1.429 . S
C829 C823 1.429 . S
C829 C830 1.523 . S
C830 C811 1.368 . S
C830 C824 1.368 . S
C830 C829 1.523 . S
C831 C815 1.429 . S
C831 C827 1.429 . S
C831 C832 1.523 . S
C832 C816 1.368 . S
C832 C828 1.368 . S
C832 C831 1.523 . S
H833 C808 0.950 . S
H834 C810 0.950 . S
H835 C811 0.949 . S
H836 C813 0.950 . S
H837 C815 0.950 . S
C838 C839 1.349 . S
C838 C840 1.327 . S
C838 H863 0.950 . S
C839 C838 1.349 . S
C839 C855 1.349 . S
C840 C838 1.327 . S
C840 C859 1.429 . S
C840 H864 0.950 . S
C841 C858 1.574 1_554 S
C841 C860 1.368 . S
C841 H865 0.949 . S
H842 C846 0.949 . S
C843 C844 1.349 . S
C843 C845 1.327 . S
C843 H866 0.950 . S
C844 C843 1.349 . S
C844 C856 1.349 . S
C845 C843 1.327 . S
C845 C861 1.429 . S
C845 H867 0.950 . S
C846 H842 0.949 . S
C846 C854 1.574 1_556 S
C846 C862 1.368 . S
H847 C855 0.950 . S
H848 C853 0.950 . S
H849 C854 0.949 . S
H850 C856 0.950 . S
H851 C857 0.950 . S
H852 C858 0.949 . S
C853 H848 0.950 . S
C853 C855 1.327 . S
C853 C859 1.429 . S
C854 C846 1.574 1_554 S
C854 H849 0.949 . S
C854 C860 1.368 . S
C855 C839 1.349 . S
C855 H847 0.950 . S
C855 C853 1.327 . S
C856 C844 1.349 . S
C856 H850 0.950 . S
C856 C857 1.327 . S
C857 H851 0.950 . S
C857 C856 1.327 . S
C857 C861 1.429 . S
C858 C841 1.574 1_556 S
C858 H852 0.949 . S
C858 C862 1.368 . S
C859 C840 1.429 . S
C859 C853 1.429 . S
C859 C860 1.523 . S
C860 C841 1.368 . S
C860 C854 1.368 . S
C860 C859 1.523 . S
C861 C845 1.429 . S
C861 C857 1.429 . S
C861 C862 1.523 . S
C862 C846 1.368 . S
C862 C858 1.368 . S
C862 C861 1.523 . S
H863 C838 0.950 . S
H864 C840 0.950 . S
H865 C841 0.949 . S
H866 C843 0.950 . S
H867 C845 0.950 . S
C868 C869 1.349 . S
C868 C870 1.327 . S
C868 H893 0.950 . S
C869 C868 1.349 . S
C869 C885 1.349 . S
C870 C868 1.327 . S
C870 C889 1.429 . S
C870 H894 0.950 . S
C871 C888 1.574 . S
C871 C890 1.368 . S
C871 H895 0.949 . S
H872 C876 0.949 . S
C873 C874 1.349 . S
C873 C875 1.327 . S
C873 H896 0.950 . S
C874 C873 1.349 . S
C874 C886 1.349 . S
C875 C873 1.327 . S
C875 C891 1.429 . S
C875 H897 0.950 . S
C876 H872 0.949 . S
C876 C884 1.574 . S
C876 C892 1.368 . S
H877 C885 0.950 . S
H878 C883 0.950 . S
H879 C884 0.949 . S
H880 C886 0.950 . S
H881 C887 0.950 . S
H882 C888 0.949 . S
C883 H878 0.950 . S
C883 C885 1.327 . S
C883 C889 1.429 . S
C884 C876 1.574 . S
C884 H879 0.949 . S
C884 C890 1.368 . S
C885 C869 1.349 . S
C885 H877 0.950 . S
C885 C883 1.327 . S
C886 C874 1.349 . S
C886 H880 0.950 . S
C886 C887 1.327 . S
C887 H881 0.950 . S
C887 C886 1.327 . S
C887 C891 1.429 . S
C888 C871 1.574 . S
C888 H882 0.949 . S
C888 C892 1.368 . S
C889 C870 1.429 . S
C889 C883 1.429 . S
C889 C890 1.523 . S
C890 C871 1.368 . S
C890 C884 1.368 . S
C890 C889 1.523 . S
C891 C875 1.429 . S
C891 C887 1.429 . S
C891 C892 1.523 . S
C892 C876 1.368 . S
C892 C888 1.368 . S
C892 C891 1.523 . S
H893 C868 0.950 . S
H894 C870 0.950 . S
H895 C871 0.949 . S
H896 C873 0.950 . S
H897 C875 0.950 . S
C898 C899 1.349 . S
C898 C900 1.327 . S
C898 H923 0.950 . S
C899 C898 1.349 . S
C899 C915 1.349 . S
C900 C898 1.327 . S
C900 C919 1.429 . S
C900 H924 0.950 . S
C901 C918 1.574 . S
C901 C920 1.368 . S
C901 H925 0.949 . S
H902 C906 0.949 . S
C903 C904 1.349 . S
C903 C905 1.327 . S
C903 H926 0.950 . S
C904 C903 1.349 . S
C904 C916 1.349 . S
C905 C903 1.327 . S
C905 C921 1.429 . S
C905 H927 0.950 . S
C906 H902 0.949 . S
C906 C914 1.574 . S
C906 C922 1.368 . S
H907 C915 0.950 . S
H908 C913 0.950 . S
H909 C914 0.949 . S
H910 C916 0.950 . S
H911 C917 0.950 . S
H912 C918 0.949 . S
C913 H908 0.950 . S
C913 C915 1.327 . S
C913 C919 1.429 . S
C914 C906 1.574 . S
C914 H909 0.949 . S
C914 C920 1.368 . S
C915 C899 1.349 . S
C915 H907 0.950 . S
C915 C913 1.327 . S
C916 C904 1.349 . S
C916 H910 0.950 . S
C916 C917 1.327 . S
C917 H911 0.950 . S
C917 C916 1.327 . S
C917 C921 1.429 . S
C918 C901 1.574 . S
C918 H912 0.949 . S
C918 C922 1.368 . S
C919 C900 1.429 . S
C919 C913 1.429 . S
C919 C920 1.523 . S
C920 C901 1.368 . S
C920 C914 1.368 . S
C920 C919 1.523 . S
C921 C905 1.429 . S
C921 C917 1.429 . S
C921 C922 1.523 . S
C922 C906 1.368 . S
C922 C918 1.368 . S
C922 C921 1.523 . S
H923 C898 0.950 . S
H924 C900 0.950 . S
H925 C901 0.949 . S
H926 C903 0.950 . S
H927 C905 0.950 . S
C928 C929 1.349 1_565 S
C928 C930 1.327 . S
C928 H953 0.950 . S
C929 C928 1.349 1_545 S
C929 C945 1.349 . S
C930 C928 1.327 . S
C930 C949 1.429 . S
C930 H954 0.950 . S
C931 C948 1.574 . S
C931 C950 1.368 . S
C931 H955 0.949 . S
H932 C936 0.949 . S
C933 C934 1.349 . S
C933 C935 1.327 . S
C933 H956 0.950 . S
C934 C933 1.349 . S
C934 C946 1.349 . S
C935 C933 1.327 . S
C935 C951 1.429 . S
C935 H957 0.950 . S
C936 H932 0.949 . S
C936 C944 1.574 . S
C936 C952 1.368 . S
H937 C945 0.950 . S
H938 C943 0.950 . S
H939 C944 0.949 . S
H940 C946 0.950 . S
H941 C947 0.950 . S
H942 C948 0.949 . S
C943 H938 0.950 . S
C943 C945 1.327 1_565 S
C943 C949 1.429 . S
C944 C936 1.574 . S
C944 H939 0.949 . S
C944 C950 1.368 . S
C945 C929 1.349 . S
C945 H937 0.950 . S
C945 C943 1.327 1_545 S
C946 C934 1.349 . S
C946 H940 0.950 . S
C946 C947 1.327 . S
C947 H941 0.950 . S
C947 C946 1.327 . S
C947 C951 1.429 . S
C948 C931 1.574 . S
C948 H942 0.949 . S
C948 C952 1.368 . S
C949 C930 1.429 . S
C949 C943 1.429 . S
C949 C950 1.523 . S
C950 C931 1.368 . S
C950 C944 1.368 . S
C950 C949 1.523 . S
C951 C935 1.429 . S
C951 C947 1.429 . S
C951 C952 1.523 . S
C952 C936 1.368 . S
C952 C948 1.368 . S
C952 C951 1.523 . S
H953 C928 0.950 . S
H954 C930 0.950 . S
H955 C931 0.949 . S
H956 C933 0.950 . S
H957 C935 0.950 . S
C958 C959 1.349 . S
C958 C960 1.327 . S
C958 H983 0.950 . S
C959 C958 1.349 . S
C959 C975 1.349 . S
C960 C958 1.327 . S
C960 C979 1.429 . S
C960 H984 0.950 . S
C961 C978 1.574 . S
C961 C980 1.368 . S
C961 H985 0.949 . S
H962 C966 0.949 . S
C963 C964 1.349 1_545 S
C963 C965 1.327 . S
C963 H986 0.950 . S
C964 C963 1.349 1_565 S
C964 C976 1.349 . S
C965 C963 1.327 . S
C965 C981 1.429 . S
C965 H987 0.950 . S
C966 H962 0.949 . S
C966 C974 1.574 . S
C966 C982 1.368 . S
H967 C975 0.950 . S
H968 C973 0.950 . S
H969 C974 0.949 . S
H970 C976 0.950 . S
H971 C977 0.950 . S
H972 C978 0.949 . S
C973 H968 0.950 . S
C973 C975 1.327 . S
C973 C979 1.429 . S
C974 C966 1.574 . S
C974 H969 0.949 . S
C974 C980 1.368 . S
C975 C959 1.349 . S
C975 H967 0.950 . S
C975 C973 1.327 . S
C976 C964 1.349 . S
C976 H970 0.950 . S
C976 C977 1.327 1_565 S
C977 H971 0.950 . S
C977 C976 1.327 1_545 S
C977 C981 1.429 . S
C978 C961 1.574 . S
C978 H972 0.949 . S
C978 C982 1.368 . S
C979 C960 1.429 . S
C979 C973 1.429 . S
C979 C980 1.523 . S
C980 C961 1.368 . S
C980 C974 1.368 . S
C980 C979 1.523 . S
C981 C965 1.429 . S
C981 C977 1.429 . S
C981 C982 1.523 . S
C982 C966 1.368 . S
C982 C978 1.368 . S
C982 C981 1.523 . S
H983 C958 0.950 . S
H984 C960 0.950 . S
H985 C961 0.949 . S
H986 C963 0.950 . S
H987 C965 0.950 . S
C988 C989 1.349 1_545 S
C988 C990 1.327 . S
C988 H1013 0.950 . S
C989 C988 1.349 1_565 S
C989 C1005 1.349 1_565 S
C990 C988 1.327 . S
C990 C1009 1.429 . S
C990 H1014 0.950 . S
C991 C1008 1.574 . S
C991 C1010 1.368 . S
C991 H1015 0.949 . S
H992 C996 0.949 . S
C993 C994 1.349 . S
C993 C995 1.327 . S
C993 H1016 0.950 . S
C994 C993 1.349 . S
C994 C1006 1.349 . S
C995 C993 1.327 . S
C995 C1011 1.429 . S
C995 H1017 0.950 . S
C996 H992 0.949 . S
C996 C1004 1.574 . S
C996 C1012 1.368 . S
H997 C1005 0.957 . S
H998 C1003 0.950 . S
H999 C1004 0.949 . S
H1000 C1006 0.950 . S
H1001 C1007 0.950 . S
H1002 C1008 0.949 . S
C1003 H998 0.950 . S
C1003 C1005 1.327 . S
C1003 C1009 1.429 . S
C1004 C996 1.574 . S
C1004 H999 0.949 . S
C1004 C1010 1.368 . S
C1005 C989 1.349 1_545 S
C1005 H997 0.957 . S
C1005 C1003 1.327 . S
C1006 C994 1.349 . S
C1006 H1000 0.950 . S
C1006 C1007 1.327 . S
C1007 H1001 0.950 . S
C1007 C1006 1.327 . S
C1007 C1011 1.429 . S
C1008 C991 1.574 . S
C1008 H1002 0.949 . S
C1008 C1012 1.368 . S
C1009 C990 1.429 . S
C1009 C1003 1.429 . S
C1009 C1010 1.523 . S
C1010 C991 1.368 . S
C1010 C1004 1.368 . S
C1010 C1009 1.523 . S
C1011 C995 1.429 . S
C1011 C1007 1.429 . S
C1011 C1012 1.523 . S
C1012 C996 1.368 . S
C1012 C1008 1.368 . S
C1012 C1011 1.523 . S
H1013 C988 0.950 . S
H1014 C990 0.950 . S
H1015 C991 0.949 . S
H1016 C993 0.950 . S
H1017 C995 0.950 . S
C1018 C1019 1.349 1_565 S
C1018 C1020 1.327 . S
C1018 H1043 0.950 1_565 S
C1019 C1018 1.349 1_545 S
C1019 C1035 1.349 1_545 S
C1020 C1018 1.327 . S
C1020 C1039 1.429 . S
C1020 H1044 0.950 . S
C1021 C1038 1.574 . S
C1021 C1040 1.368 . S
C1021 H1045 0.949 . S
H1022 C1026 0.949 . S
C1023 C1024 1.349 . S
C1023 C1025 1.327 . S
C1023 H1046 0.950 . S
C1024 C1023 1.349 . S
C1024 C1036 1.349 . S
C1025 C1023 1.327 . S
C1025 C1041 1.429 . S
C1025 H1047 0.950 . S
C1026 H1022 0.949 . S
C1026 C1034 1.574 . S
C1026 C1042 1.368 . S
H1027 C1035 0.950 . S
H1028 C1033 0.950 . S
H1029 C1034 0.949 . S
H1030 C1036 0.950 . S
H1031 C1037 0.950 . S
H1032 C1038 0.949 . S
C1033 H1028 0.950 . S
C1033 C1035 1.327 . S
C1033 C1039 1.429 . S
C1034 C1026 1.574 . S
C1034 H1029 0.949 . S
C1034 C1040 1.368 . S
C1035 C1019 1.349 1_565 S
C1035 H1027 0.950 . S
C1035 C1033 1.327 . S
C1036 C1024 1.349 . S
C1036 H1030 0.950 . S
C1036 C1037 1.327 . S
C1037 H1031 0.950 . S
C1037 C1036 1.327 . S
C1037 C1041 1.429 . S
C1038 C1021 1.574 . S
C1038 H1032 0.949 . S
C1038 C1042 1.368 . S
C1039 C1020 1.429 . S
C1039 C1033 1.429 . S
C1039 C1040 1.523 . S
C1040 C1021 1.368 . S
C1040 C1034 1.368 . S
C1040 C1039 1.523 . S
C1041 C1025 1.429 . S
C1041 C1037 1.429 . S
C1041 C1042 1.523 . S
C1042 C1026 1.368 . S
C1042 C1038 1.368 . S
C1042 C1041 1.523 . S
H1043 C1018 0.950 1_545 S
H1044 C1020 0.950 . S
H1045 C1021 0.949 . S
H1046 C1023 0.950 . S
H1047 C1025 0.950 . S
C1048 C1049 1.349 . S
C1048 C1050 1.327 . S
C1048 H1073 0.950 . S
C1049 C1048 1.349 . S
C1049 C1065 1.349 . S
C1050 C1048 1.327 . S
C1050 C1069 1.429 . S
C1050 H1074 0.950 . S
C1051 C1068 1.574 . S
C1051 C1070 1.368 . S
C1051 H1075 0.949 . S
H1052 C1056 0.949 . S
C1053 C1054 1.349 1_545 S
C1053 C1055 1.327 . S
C1053 H1076 0.950 . S
C1054 C1053 1.349 1_565 S
C1054 C1066 1.349 1_565 S
C1055 C1053 1.327 . S
C1055 C1071 1.429 . S
C1055 H1077 0.950 . S
C1056 H1052 0.949 . S
C1056 C1064 1.574 . S
C1056 C1072 1.368 . S
H1057 C1065 0.950 . S
H1058 C1063 0.950 . S
H1059 C1064 0.949 . S
H1060 C1066 0.950 1_565 S
H1061 C1067 0.950 . S
H1062 C1068 0.949 . S
C1063 H1058 0.950 . S
C1063 C1065 1.327 . S
C1063 C1069 1.429 . S
C1064 C1056 1.574 . S
C1064 H1059 0.949 . S
C1064 C1070 1.368 . S
C1065 C1049 1.349 . S
C1065 H1057 0.950 . S
C1065 C1063 1.327 . S
C1066 C1054 1.349 1_545 S
C1066 H1060 0.950 1_545 S
C1066 C1067 1.327 . S
C1067 H1061 0.950 . S
C1067 C1066 1.327 . S
C1067 C1071 1.429 . S
C1068 C1051 1.574 . S
C1068 H1062 0.949 . S
C1068 C1072 1.368 . S
C1069 C1050 1.429 . S
C1069 C1063 1.429 . S
C1069 C1070 1.523 . S
C1070 C1051 1.368 . S
C1070 C1064 1.368 . S
C1070 C1069 1.523 . S
C1071 C1055 1.429 . S
C1071 C1067 1.429 . S
C1071 C1072 1.523 . S
C1072 C1056 1.368 . S
C1072 C1068 1.368 . S
C1072 C1071 1.523 . S
H1073 C1048 0.950 . S
H1074 C1050 0.950 . S
H1075 C1051 0.949 . S
H1076 C1053 0.950 . S
H1077 C1055 0.950 . S
C1078 C1079 1.349 1_565 S
C1078 C1080 1.327 . S
C1078 H1103 0.950 . S
C1079 C1078 1.349 1_545 S
C1079 C1095 1.349 . S
C1080 C1078 1.327 . S
C1080 C1099 1.429 . S
C1080 H1104 0.950 . S
C1081 C1098 1.574 . S
C1081 C1100 1.368 . S
C1081 H1105 0.949 . S
H1082 C1086 0.949 . S
C1083 C1084 1.349 . S
C1083 C1085 1.327 . S
C1083 H1106 0.950 . S
C1084 C1083 1.349 . S
C1084 C1096 1.349 . S
C1085 C1083 1.327 . S
C1085 C1101 1.429 . S
C1085 H1107 0.950 . S
C1086 H1082 0.949 . S
C1086 C1094 1.574 . S
C1086 C1102 1.368 . S
H1087 C1095 0.950 . S
H1088 C1093 0.948 1_545 S
H1089 C1094 0.949 . S
H1090 C1096 0.950 . S
H1091 C1097 0.950 . S
H1092 C1098 0.949 . S
C1093 H1088 0.948 1_565 S
C1093 C1095 1.327 1_565 S
C1093 C1099 1.429 . S
C1094 C1086 1.574 . S
C1094 H1089 0.949 . S
C1094 C1100 1.368 . S
C1095 C1079 1.349 . S
C1095 H1087 0.950 . S
C1095 C1093 1.327 1_545 S
C1096 C1084 1.349 . S
C1096 H1090 0.950 . S
C1096 C1097 1.327 . S
C1097 H1091 0.950 . S
C1097 C1096 1.327 . S
C1097 C1101 1.429 . S
C1098 C1081 1.574 . S
C1098 H1092 0.949 . S
C1098 C1102 1.368 . S
C1099 C1080 1.429 . S
C1099 C1093 1.429 . S
C1099 C1100 1.523 . S
C1100 C1081 1.368 . S
C1100 C1094 1.368 . S
C1100 C1099 1.523 . S
C1101 C1085 1.429 . S
C1101 C1097 1.429 . S
C1101 C1102 1.523 . S
C1102 C1086 1.368 . S
C1102 C1098 1.368 . S
C1102 C1101 1.523 . S
H1103 C1078 0.950 . S
H1104 C1080 0.950 . S
H1105 C1081 0.949 . S
H1106 C1083 0.950 . S
H1107 C1085 0.950 . S
C1108 C1109 1.349 . S
C1108 C1110 1.327 . S
C1108 H1133 0.950 . S
C1109 C1108 1.349 . S
C1109 C1125 1.349 . S
C1110 C1108 1.327 . S
C1110 C1129 1.429 . S
C1110 H1134 0.950 . S
C1111 C1128 1.574 . S
C1111 C1130 1.368 . S
C1111 H1135 0.949 . S
H1112 C1116 0.949 . S
C1113 C1114 1.349 1_565 S
C1113 C1115 1.327 . S
C1113 H1136 0.950 1_565 S
C1114 C1113 1.349 1_545 S
C1114 C1126 1.349 1_545 S
C1115 C1113 1.327 . S
C1115 C1131 1.429 . S
C1115 H1137 0.950 . S
C1116 H1112 0.949 . S
C1116 C1124 1.574 . S
C1116 C1132 1.368 . S
H1117 C1125 0.950 . S
H1118 C1123 0.950 . S
H1119 C1124 0.949 . S
H1120 C1126 0.950 . S
H1121 C1127 0.950 . S
H1122 C1128 0.949 . S
C1123 H1118 0.950 . S
C1123 C1125 1.327 . S
C1123 C1129 1.429 . S
C1124 C1116 1.574 . S
C1124 H1119 0.949 . S
C1124 C1130 1.368 . S
C1125 C1109 1.349 . S
C1125 H1117 0.950 . S
C1125 C1123 1.327 . S
C1126 C1114 1.349 1_565 S
C1126 H1120 0.950 . S
C1126 C1127 1.327 . S
C1127 H1121 0.950 . S
C1127 C1126 1.327 . S
C1127 C1131 1.429 . S
C1128 C1111 1.574 . S
C1128 H1122 0.949 . S
C1128 C1132 1.368 . S
C1129 C1110 1.429 . S
C1129 C1123 1.429 . S
C1129 C1130 1.523 . S
C1130 C1111 1.368 . S
C1130 C1124 1.368 . S
C1130 C1129 1.523 . S
C1131 C1115 1.429 . S
C1131 C1127 1.429 . S
C1131 C1132 1.523 . S
C1132 C1116 1.368 . S
C1132 C1128 1.368 . S
C1132 C1131 1.523 . S
H1133 C1108 0.950 . S
H1134 C1110 0.950 . S
H1135 C1111 0.949 . S
H1136 C1113 0.950 1_545 S
H1137 C1115 0.950 . S
C1138 C1139 1.349 . S
C1138 C1140 1.327 . S
C1138 H1163 0.950 . S
C1139 C1138 1.349 . S
C1139 C1155 1.349 . S
C1140 C1138 1.327 . S
C1140 C1159 1.429 . S
C1140 H1164 0.950 . S
C1141 C1158 1.574 . S
C1141 C1160 1.368 . S
C1141 H1165 0.949 . S
H1142 C1146 0.949 . S
C1143 C1144 1.349 1_545 S
C1143 C1145 1.327 . S
C1143 H1166 0.950 . S
C1144 C1143 1.349 1_565 S
C1144 C1156 1.349 . S
C1145 C1143 1.327 . S
C1145 C1161 1.429 . S
C1145 H1167 0.950 . S
C1146 H1142 0.949 . S
C1146 C1154 1.574 . S
C1146 C1162 1.368 . S
H1147 C1155 0.950 . S
H1148 C1153 0.950 . S
H1149 C1154 0.949 . S
H1150 C1156 0.950 . S
H1151 C1157 0.951 1_565 S
H1152 C1158 0.949 . S
C1153 H1148 0.950 . S
C1153 C1155 1.327 . S
C1153 C1159 1.429 . S
C1154 C1146 1.574 . S
C1154 H1149 0.949 . S
C1154 C1160 1.368 . S
C1155 C1139 1.349 . S
C1155 H1147 0.950 . S
C1155 C1153 1.327 . S
C1156 C1144 1.349 . S
C1156 H1150 0.950 . S
C1156 C1157 1.327 1_565 S
C1157 H1151 0.951 1_545 S
C1157 C1156 1.327 1_545 S
C1157 C1161 1.429 . S
C1158 C1141 1.574 . S
C1158 H1152 0.949 . S
C1158 C1162 1.368 . S
C1159 C1140 1.429 . S
C1159 C1153 1.429 . S
C1159 C1160 1.523 . S
C1160 C1141 1.368 . S
C1160 C1154 1.368 . S
C1160 C1159 1.523 . S
C1161 C1145 1.429 . S
C1161 C1157 1.429 . S
C1161 C1162 1.523 . S
C1162 C1146 1.368 . S
C1162 C1158 1.368 . S
C1162 C1161 1.523 . S
H1163 C1138 0.950 . S
H1164 C1140 0.950 . S
H1165 C1141 0.949 . S
H1166 C1143 0.950 . S
H1167 C1145 0.950 . S
C1168 C1169 1.349 . S
C1168 C1170 1.327 . S
C1168 H1193 0.950 . S
C1169 C1168 1.349 . S
C1169 C1185 1.349 . S
C1170 C1168 1.327 . S
C1170 C1189 1.429 . S
C1170 H1194 0.950 . S
C1171 C1188 1.574 . S
C1171 C1190 1.368 . S
C1171 H1195 0.949 . S
H1172 C1176 0.949 . S
C1173 C1174 1.349 . S
C1173 C1175 1.327 . S
C1173 H1196 0.950 . S
C1174 C1173 1.349 . S
C1174 C1186 1.349 . S
C1175 C1173 1.327 . S
C1175 C1191 1.429 . S
C1175 H1197 0.950 . S
C1176 H1172 0.949 . S
C1176 C1184 1.574 . S
C1176 C1192 1.368 . S
H1177 C1185 0.950 . S
H1178 C1183 0.950 . S
H1179 C1184 0.949 . S
H1180 C1186 0.950 . S
H1181 C1187 0.950 . S
H1182 C1188 0.949 . S
C1183 H1178 0.950 . S
C1183 C1185 1.327 . S
C1183 C1189 1.429 . S
C1184 C1176 1.574 . S
C1184 H1179 0.949 . S
C1184 C1190 1.368 . S
C1185 C1169 1.349 . S
C1185 H1177 0.950 . S
C1185 C1183 1.327 . S
C1186 C1174 1.349 . S
C1186 H1180 0.950 . S
C1186 C1187 1.327 . S
C1187 H1181 0.950 . S
C1187 C1186 1.327 . S
C1187 C1191 1.429 . S
C1188 C1171 1.574 . S
C1188 H1182 0.949 . S
C1188 C1192 1.368 . S
C1189 C1170 1.429 . S
C1189 C1183 1.429 . S
C1189 C1190 1.523 . S
C1190 C1171 1.368 . S
C1190 C1184 1.368 . S
C1190 C1189 1.523 . S
C1191 C1175 1.429 . S
C1191 C1187 1.429 . S
C1191 C1192 1.523 . S
C1192 C1176 1.368 . S
C1192 C1188 1.368 . S
C1192 C1191 1.523 . S
H1193 C1168 0.950 . S
H1194 C1170 0.950 . S
H1195 C1171 0.949 . S
H1196 C1173 0.950 . S
H1197 C1175 0.950 . S
C1198 C1199 1.349 . S
C1198 C1200 1.327 . S
C1198 H1223 0.950 . S
C1199 C1198 1.349 . S
C1199 C1215 1.349 . S
C1200 C1198 1.327 . S
C1200 C1219 1.429 . S
C1200 H1224 0.950 . S
C1201 C1218 1.574 . S
C1201 C1220 1.368 . S
C1201 H1225 0.949 . S
H1202 C1206 0.949 . S
C1203 C1204 1.349 . S
C1203 C1205 1.327 . S
C1203 H1226 0.950 . S
C1204 C1203 1.349 . S
C1204 C1216 1.349 . S
C1205 C1203 1.327 . S
C1205 C1221 1.429 . S
C1205 H1227 0.950 . S
C1206 H1202 0.949 . S
C1206 C1214 1.574 . S
C1206 C1222 1.368 . S
H1207 C1215 0.950 . S
H1208 C1213 0.950 . S
H1209 C1214 0.949 . S
H1210 C1216 0.950 . S
H1211 C1217 0.950 . S
H1212 C1218 0.949 . S
C1213 H1208 0.950 . S
C1213 C1215 1.327 . S
C1213 C1219 1.429 . S
C1214 C1206 1.574 . S
C1214 H1209 0.949 . S
C1214 C1220 1.368 . S
C1215 C1199 1.349 . S
C1215 H1207 0.950 . S
C1215 C1213 1.327 . S
C1216 C1204 1.349 . S
C1216 H1210 0.950 . S
C1216 C1217 1.327 . S
C1217 H1211 0.950 . S
C1217 C1216 1.327 . S
C1217 C1221 1.429 . S
C1218 C1201 1.574 . S
C1218 H1212 0.949 . S
C1218 C1222 1.368 . S
C1219 C1200 1.429 . S
C1219 C1213 1.429 . S
C1219 C1220 1.523 . S
C1220 C1201 1.368 . S
C1220 C1214 1.368 . S
C1220 C1219 1.523 . S
C1221 C1205 1.429 . S
C1221 C1217 1.429 . S
C1221 C1222 1.523 . S
C1222 C1206 1.368 . S
C1222 C1218 1.368 . S
C1222 C1221 1.523 . S
H1223 C1198 0.950 . S
H1224 C1200 0.950 . S
H1225 C1201 0.949 . S
H1226 C1203 0.950 . S
H1227 C1205 0.950 . S
C1228 C1229 1.349 . S
C1228 C1230 1.327 . S
C1228 H1253 0.950 . S
C1229 C1228 1.349 . S
C1229 C1245 1.349 . S
C1230 C1228 1.327 . S
C1230 C1249 1.429 . S
C1230 H1254 0.950 . S
C1231 C1248 1.574 . S
C1231 C1250 1.368 . S
C1231 H1255 0.949 . S
H1232 C1236 0.949 . S
C1233 C1234 1.349 . S
C1233 C1235 1.327 . S
C1233 H1256 0.950 . S
C1234 C1233 1.349 . S
C1234 C1246 1.349 . S
C1235 C1233 1.327 . S
C1235 C1251 1.429 . S
C1235 H1257 0.950 . S
C1236 H1232 0.949 . S
C1236 C1244 1.574 . S
C1236 C1252 1.368 . S
H1237 C1245 0.950 . S
H1238 C1243 0.950 . S
H1239 C1244 0.949 . S
H1240 C1246 0.950 . S
H1241 C1247 0.950 . S
H1242 C1248 0.949 . S
C1243 H1238 0.950 . S
C1243 C1245 1.327 . S
C1243 C1249 1.429 . S
C1244 C1236 1.574 . S
C1244 H1239 0.949 . S
C1244 C1250 1.368 . S
C1245 C1229 1.349 . S
C1245 H1237 0.950 . S
C1245 C1243 1.327 . S
C1246 C1234 1.349 . S
C1246 H1240 0.950 . S
C1246 C1247 1.327 . S
C1247 H1241 0.950 . S
C1247 C1246 1.327 . S
C1247 C1251 1.429 . S
C1248 C1231 1.574 . S
C1248 H1242 0.949 . S
C1248 C1252 1.368 . S
C1249 C1230 1.429 . S
C1249 C1243 1.429 . S
C1249 C1250 1.523 . S
C1250 C1231 1.368 . S
C1250 C1244 1.368 . S
C1250 C1249 1.523 . S
C1251 C1235 1.429 . S
C1251 C1247 1.429 . S
C1251 C1252 1.523 . S
C1252 C1236 1.368 . S
C1252 C1248 1.368 . S
C1252 C1251 1.523 . S
H1253 C1228 0.950 . S
H1254 C1230 0.950 . S
H1255 C1231 0.949 . S
H1256 C1233 0.950 . S
H1257 C1235 0.950 . S
C1258 C1259 1.349 . S
C1258 C1260 1.327 . S
C1258 H1283 0.950 . S
C1259 C1258 1.349 . S
C1259 C1275 1.349 . S
C1260 C1258 1.327 . S
C1260 C1279 1.429 . S
C1260 H1284 0.950 . S
C1261 C1278 1.574 . S
C1261 C1280 1.368 . S
C1261 H1285 0.949 . S
H1262 C1266 0.949 . S
C1263 C1264 1.349 . S
C1263 C1265 1.327 . S
C1263 H1286 0.950 . S
C1264 C1263 1.349 . S
C1264 C1276 1.349 . S
C1265 C1263 1.327 . S
C1265 C1281 1.429 . S
C1265 H1287 0.950 . S
C1266 H1262 0.949 . S
C1266 C1274 1.574 . S
C1266 C1282 1.368 . S
H1267 C1275 0.950 . S
H1268 C1273 0.950 . S
H1269 C1274 0.949 . S
H1270 C1276 0.950 . S
H1271 C1277 0.950 . S
H1272 C1278 0.949 . S
C1273 H1268 0.950 . S
C1273 C1275 1.327 . S
C1273 C1279 1.429 . S
C1274 C1266 1.574 . S
C1274 H1269 0.949 . S
C1274 C1280 1.368 . S
C1275 C1259 1.349 . S
C1275 H1267 0.950 . S
C1275 C1273 1.327 . S
C1276 C1264 1.349 . S
C1276 H1270 0.950 . S
C1276 C1277 1.327 . S
C1277 H1271 0.950 . S
C1277 C1276 1.327 . S
C1277 C1281 1.429 . S
C1278 C1261 1.574 . S
C1278 H1272 0.949 . S
C1278 C1282 1.368 . S
C1279 C1260 1.429 . S
C1279 C1273 1.429 . S
C1279 C1280 1.523 . S
C1280 C1261 1.368 . S
C1280 C1274 1.368 . S
C1280 C1279 1.523 . S
C1281 C1265 1.429 . S
C1281 C1277 1.429 . S
C1281 C1282 1.523 . S
C1282 C1266 1.368 . S
C1282 C1278 1.368 . S
C1282 C1281 1.523 . S
H1283 C1258 0.950 . S
H1284 C1260 0.950 . S
H1285 C1261 0.949 . S
H1286 C1263 0.950 . S
H1287 C1265 0.950 . S
C1288 C1289 1.349 . S
C1288 C1290 1.327 . S
C1288 H1313 0.950 . S
C1289 C1288 1.349 . S
C1289 C1305 1.349 . S
C1290 C1288 1.327 . S
C1290 C1309 1.429 . S
C1290 H1314 0.950 . S
C1291 C1308 1.574 . S
C1291 C1310 1.368 . S
C1291 H1315 0.949 . S
H1292 C1296 0.949 . S
C1293 C1294 1.349 . S
C1293 C1295 1.327 . S
C1293 H1316 0.950 . S
C1294 C1293 1.349 . S
C1294 C1306 1.349 . S
C1295 C1293 1.327 . S
C1295 C1311 1.429 . S
C1295 H1317 0.950 . S
C1296 H1292 0.949 . S
C1296 C1304 1.574 . S
C1296 C1312 1.368 . S
H1297 C1305 0.950 . S
H1298 C1303 0.950 . S
H1299 C1304 0.949 . S
H1300 C1306 0.950 . S
H1301 C1307 0.950 . S
H1302 C1308 0.949 . S
C1303 H1298 0.950 . S
C1303 C1305 1.327 . S
C1303 C1309 1.429 . S
C1304 C1296 1.574 . S
C1304 H1299 0.949 . S
C1304 C1310 1.368 . S
C1305 C1289 1.349 . S
C1305 H1297 0.950 . S
C1305 C1303 1.327 . S
C1306 C1294 1.349 . S
C1306 H1300 0.950 . S
C1306 C1307 1.327 . S
C1307 H1301 0.950 . S
C1307 C1306 1.327 . S
C1307 C1311 1.429 . S
C1308 C1291 1.574 . S
C1308 H1302 0.949 . S
C1308 C1312 1.368 . S
C1309 C1290 1.429 . S
C1309 C1303 1.429 . S
C1309 C1310 1.523 . S
C1310 C1291 1.368 . S
C1310 C1304 1.368 . S
C1310 C1309 1.523 . S
C1311 C1295 1.429 . S
C1311 C1307 1.429 . S
C1311 C1312 1.523 . S
C1312 C1296 1.368 . S
C1312 C1308 1.368 . S
C1312 C1311 1.523 . S
H1313 C1288 0.950 . S
H1314 C1290 0.950 . S
H1315 C1291 0.949 . S
H1316 C1293 0.950 . S
H1317 C1295 0.950 . S
C1318 C1319 1.349 . S
C1318 C1320 1.327 . S
C1318 H1343 0.950 . S
C1319 C1318 1.349 . S
C1319 C1335 1.349 . S
C1320 C1318 1.327 . S
C1320 C1339 1.429 . S
C1320 H1344 0.950 . S
C1321 C1338 1.574 . S
C1321 C1340 1.368 . S
C1321 H1345 0.949 . S
H1322 C1326 0.949 . S
C1323 C1324 1.349 . S
C1323 C1325 1.327 . S
C1323 H1346 0.950 . S
C1324 C1323 1.349 . S
C1324 C1336 1.349 . S
C1325 C1323 1.327 . S
C1325 C1341 1.429 . S
C1325 H1347 0.950 . S
C1326 H1322 0.949 . S
C1326 C1334 1.574 . S
C1326 C1342 1.368 . S
H1327 C1335 0.950 . S
H1328 C1333 0.950 . S
H1329 C1334 0.949 . S
H1330 C1336 0.950 . S
H1331 C1337 0.950 . S
H1332 C1338 0.949 . S
C1333 H1328 0.950 . S
C1333 C1335 1.327 . S
C1333 C1339 1.429 . S
C1334 C1326 1.574 . S
C1334 H1329 0.949 . S
C1334 C1340 1.368 . S
C1335 C1319 1.349 . S
C1335 H1327 0.950 . S
C1335 C1333 1.327 . S
C1336 C1324 1.349 . S
C1336 H1330 0.950 . S
C1336 C1337 1.327 . S
C1337 H1331 0.950 . S
C1337 C1336 1.327 . S
C1337 C1341 1.429 . S
C1338 C1321 1.574 . S
C1338 H1332 0.949 . S
C1338 C1342 1.368 . S
C1339 C1320 1.429 . S
C1339 C1333 1.429 . S
C1339 C1340 1.523 . S
C1340 C1321 1.368 . S
C1340 C1334 1.368 . S
C1340 C1339 1.523 . S
C1341 C1325 1.429 . S
C1341 C1337 1.429 . S
C1341 C1342 1.523 . S
C1342 C1326 1.368 . S
C1342 C1338 1.368 . S
C1342 C1341 1.523 . S
H1343 C1318 0.950 . S
H1344 C1320 0.950 . S
H1345 C1321 0.949 . S
H1346 C1323 0.950 . S
H1347 C1325 0.950 . S
C1348 C1349 1.349 . S
C1348 C1350 1.327 . S
C1348 H1373 0.950 . S
C1349 C1348 1.349 . S
C1349 C1365 1.349 . S
C1350 C1348 1.327 . S
C1350 C1369 1.429 . S
C1350 H1374 0.950 . S
C1351 C1368 1.574 . S
C1351 C1370 1.368 . S
C1351 H1375 0.949 . S
H1352 C1356 0.949 . S
C1353 C1354 1.349 . S
C1353 C1355 1.327 . S
C1353 H1376 0.950 . S
C1354 C1353 1.349 . S
C1354 C1366 1.349 . S
C1355 C1353 1.327 . S
C1355 C1371 1.429 . S
C1355 H1377 0.950 . S
C1356 H1352 0.949 . S
C1356 C1364 1.574 . S
C1356 C1372 1.368 . S
H1357 C1365 0.950 . S
H1358 C1363 0.950 . S
H1359 C1364 0.949 . S
H1360 C1366 0.950 . S
H1361 C1367 0.950 . S
H1362 C1368 0.949 . S
C1363 H1358 0.950 . S
C1363 C1365 1.327 . S
C1363 C1369 1.429 . S
C1364 C1356 1.574 . S
C1364 H1359 0.949 . S
C1364 C1370 1.368 . S
C1365 C1349 1.349 . S
C1365 H1357 0.950 . S
C1365 C1363 1.327 . S
C1366 C1354 1.349 . S
C1366 H1360 0.950 . S
C1366 C1367 1.327 . S
C1367 H1361 0.950 . S
C1367 C1366 1.327 . S
C1367 C1371 1.429 . S
C1368 C1351 1.574 . S
C1368 H1362 0.949 . S
C1368 C1372 1.368 . S
C1369 C1350 1.429 . S
C1369 C1363 1.429 . S
C1369 C1370 1.523 . S
C1370 C1351 1.368 . S
C1370 C1364 1.368 . S
C1370 C1369 1.523 . S
C1371 C1355 1.429 . S
C1371 C1367 1.429 . S
C1371 C1372 1.523 . S
C1372 C1356 1.368 . S
C1372 C1368 1.368 . S
C1372 C1371 1.523 . S
H1373 C1348 0.950 . S
H1374 C1350 0.950 . S
H1375 C1351 0.949 . S
H1376 C1353 0.950 . S
H1377 C1355 0.950 . S
C1378 C1379 1.349 . S
C1378 C1380 1.327 . S
C1378 H1403 0.950 . S
C1379 C1378 1.349 . S
C1379 C1395 1.349 . S
C1380 C1378 1.327 . S
C1380 C1399 1.429 . S
C1380 H1404 0.950 . S
C1381 C1398 1.574 . S
C1381 C1400 1.368 . S
C1381 H1405 0.949 . S
H1382 C1386 0.949 . S
C1383 C1384 1.349 . S
C1383 C1385 1.327 . S
C1383 H1406 0.950 . S
C1384 C1383 1.349 . S
C1384 C1396 1.349 . S
C1385 C1383 1.327 . S
C1385 C1401 1.429 . S
C1385 H1407 0.950 . S
C1386 H1382 0.949 . S
C1386 C1394 1.574 . S
C1386 C1402 1.368 . S
H1387 C1395 0.950 . S
H1388 C1393 0.950 . S
H1389 C1394 0.949 . S
H1390 C1396 0.950 . S
H1391 C1397 0.950 . S
H1392 C1398 0.949 . S
C1393 H1388 0.950 . S
C1393 C1395 1.327 . S
C1393 C1399 1.429 . S
C1394 C1386 1.574 . S
C1394 H1389 0.949 . S
C1394 C1400 1.368 . S
C1395 C1379 1.349 . S
C1395 H1387 0.950 . S
C1395 C1393 1.327 . S
C1396 C1384 1.349 . S
C1396 H1390 0.950 . S
C1396 C1397 1.327 . S
C1397 H1391 0.950 . S
C1397 C1396 1.327 . S
C1397 C1401 1.429 . S
C1398 C1381 1.574 . S
C1398 H1392 0.949 . S
C1398 C1402 1.368 . S
C1399 C1380 1.429 . S
C1399 C1393 1.429 . S
C1399 C1400 1.523 . S
C1400 C1381 1.368 . S
C1400 C1394 1.368 . S
C1400 C1399 1.523 . S
C1401 C1385 1.429 . S
C1401 C1397 1.429 . S
C1401 C1402 1.523 . S
C1402 C1386 1.368 . S
C1402 C1398 1.368 . S
C1402 C1401 1.523 . S
H1403 C1378 0.950 . S
H1404 C1380 0.950 . S
H1405 C1381 0.949 . S
H1406 C1383 0.950 . S
H1407 C1385 0.950 . S
C1408 C1409 1.349 . S
C1408 C1410 1.327 . S
C1408 H1433 0.950 . S
C1409 C1408 1.349 . S
C1409 C1425 1.349 . S
C1410 C1408 1.327 . S
C1410 C1429 1.429 . S
C1410 H1434 0.950 . S
C1411 C1428 1.574 . S
C1411 C1430 1.368 . S
C1411 H1435 0.949 . S
H1412 C1416 0.949 . S
C1413 C1414 1.349 . S
C1413 C1415 1.327 . S
C1413 H1436 0.950 . S
C1414 C1413 1.349 . S
C1414 C1426 1.349 . S
C1415 C1413 1.327 . S
C1415 C1431 1.429 . S
C1415 H1437 0.950 . S
C1416 H1412 0.949 . S
C1416 C1424 1.574 . S
C1416 C1432 1.368 . S
H1417 C1425 0.950 . S
H1418 C1423 0.950 . S
H1419 C1424 0.949 . S
H1420 C1426 0.950 . S
H1421 C1427 0.950 . S
H1422 C1428 0.949 . S
C1423 H1418 0.950 . S
C1423 C1425 1.327 . S
C1423 C1429 1.429 . S
C1424 C1416 1.574 . S
C1424 H1419 0.949 . S
C1424 C1430 1.368 . S
C1425 C1409 1.349 . S
C1425 H1417 0.950 . S
C1425 C1423 1.327 . S
C1426 C1414 1.349 . S
C1426 H1420 0.950 . S
C1426 C1427 1.327 . S
C1427 H1421 0.950 . S
C1427 C1426 1.327 . S
C1427 C1431 1.429 . S
C1428 C1411 1.574 . S
C1428 H1422 0.949 . S
C1428 C1432 1.368 . S
C1429 C1410 1.429 . S
C1429 C1423 1.429 . S
C1429 C1430 1.523 . S
C1430 C1411 1.368 . S
C1430 C1424 1.368 . S
C1430 C1429 1.523 . S
C1431 C1415 1.429 . S
C1431 C1427 1.429 . S
C1431 C1432 1.523 . S
C1432 C1416 1.368 . S
C1432 C1428 1.368 . S
C1432 C1431 1.523 . S
H1433 C1408 0.950 . S
H1434 C1410 0.950 . S
H1435 C1411 0.949 . S
H1436 C1413 0.950 . S
H1437 C1415 0.950 . S
C1438 C1439 1.349 . S
C1438 C1440 1.327 . S
C1438 H1463 0.950 . S
C1439 C1438 1.349 . S
C1439 C1455 1.349 . S
C1440 C1438 1.327 . S
C1440 C1459 1.429 . S
C1440 H1464 0.950 . S
C1441 C1458 1.574 . S
C1441 C1460 1.368 . S
C1441 H1465 0.949 . S
H1442 C1446 0.949 . S
C1443 C1444 1.349 1_455 S
C1443 C1445 1.327 . S
C1443 H1466 0.950 . S
C1444 C1443 1.349 1_655 S
C1444 C1456 1.349 . S
C1445 C1443 1.327 . S
C1445 C1461 1.429 . S
C1445 H1467 0.950 . S
C1446 H1442 0.949 . S
C1446 C1454 1.574 . S
C1446 C1462 1.368 . S
H1447 C1455 0.950 . S
H1448 C1453 0.950 . S
H1449 C1454 0.949 . S
H1450 C1456 0.950 . S
H1451 C1457 0.950 . S
H1452 C1458 0.949 . S
C1453 H1448 0.950 . S
C1453 C1455 1.327 . S
C1453 C1459 1.429 . S
C1454 C1446 1.574 . S
C1454 H1449 0.949 . S
C1454 C1460 1.368 . S
C1455 C1439 1.349 . S
C1455 H1447 0.950 . S
C1455 C1453 1.327 . S
C1456 C1444 1.349 . S
C1456 H1450 0.950 . S
C1456 C1457 1.327 1_655 S
C1457 H1451 0.950 . S
C1457 C1456 1.327 1_455 S
C1457 C1461 1.429 . S
C1458 C1441 1.574 . S
C1458 H1452 0.949 . S
C1458 C1462 1.368 . S
C1459 C1440 1.429 . S
C1459 C1453 1.429 . S
C1459 C1460 1.523 . S
C1460 C1441 1.368 . S
C1460 C1454 1.368 . S
C1460 C1459 1.523 . S
C1461 C1445 1.429 . S
C1461 C1457 1.429 . S
C1461 C1462 1.523 . S
C1462 C1446 1.368 . S
C1462 C1458 1.368 . S
C1462 C1461 1.523 . S
H1463 C1438 0.950 . S
H1464 C1440 0.950 . S
H1465 C1441 0.949 . S
H1466 C1443 0.950 . S
H1467 C1445 0.950 . S
C1468 C1469 1.349 . S
C1468 C1470 1.327 . S
C1468 H1493 0.950 . S
C1469 C1468 1.349 . S
C1469 C1485 1.349 . S
C1470 C1468 1.327 . S
C1470 C1489 1.429 . S
C1470 H1494 0.950 . S
C1471 C1488 1.574 . S
C1471 C1490 1.368 . S
C1471 H1495 0.949 . S
H1472 C1476 0.949 . S
C1473 C1474 1.349 . S
C1473 C1475 1.327 . S
C1473 H1496 0.950 . S
C1474 C1473 1.349 . S
C1474 C1486 1.349 . S
C1475 C1473 1.327 . S
C1475 C1491 1.429 . S
C1475 H1497 0.950 . S
C1476 H1472 0.949 . S
C1476 C1484 1.574 . S
C1476 C1492 1.368 . S
H1477 C1485 0.950 . S
H1478 C1483 0.950 . S
H1479 C1484 0.949 . S
H1480 C1486 0.950 . S
H1481 C1487 0.950 . S
H1482 C1488 0.949 . S
C1483 H1478 0.950 . S
C1483 C1485 1.327 . S
C1483 C1489 1.429 . S
C1484 C1476 1.574 . S
C1484 H1479 0.949 . S
C1484 C1490 1.368 . S
C1485 C1469 1.349 . S
C1485 H1477 0.950 . S
C1485 C1483 1.327 . S
C1486 C1474 1.349 . S
C1486 H1480 0.950 . S
C1486 C1487 1.327 . S
C1487 H1481 0.950 . S
C1487 C1486 1.327 . S
C1487 C1491 1.429 . S
C1488 C1471 1.574 . S
C1488 H1482 0.949 . S
C1488 C1492 1.368 . S
C1489 C1470 1.429 . S
C1489 C1483 1.429 . S
C1489 C1490 1.523 . S
C1490 C1471 1.368 . S
C1490 C1484 1.368 . S
C1490 C1489 1.523 . S
C1491 C1475 1.429 . S
C1491 C1487 1.429 . S
C1491 C1492 1.523 . S
C1492 C1476 1.368 . S
C1492 C1488 1.368 . S
C1492 C1491 1.523 . S
H1493 C1468 0.950 . S
H1494 C1470 0.950 . S
H1495 C1471 0.949 . S
H1496 C1473 0.950 . S
H1497 C1475 0.950 . S
C1498 C1499 1.349 . S
C1498 C1500 1.327 . S
C1498 H1523 0.950 . S
C1499 C1498 1.349 . S
C1499 C1515 1.349 . S
C1500 C1498 1.327 . S
C1500 C1519 1.429 . S
C1500 H1524 0.950 . S
C1501 C1518 1.574 . S
C1501 C1520 1.368 . S
C1501 H1525 0.949 . S
H1502 C1506 0.949 . S
C1503 C1504 1.349 . S
C1503 C1505 1.327 . S
C1503 H1526 0.950 . S
C1504 C1503 1.349 . S
C1504 C1516 1.349 . S
C1505 C1503 1.327 . S
C1505 C1521 1.429 . S
C1505 H1527 0.950 . S
C1506 H1502 0.949 . S
C1506 C1514 1.574 . S
C1506 C1522 1.368 . S
H1507 C1515 0.950 . S
H1508 C1513 0.950 . S
H1509 C1514 0.949 . S
H1510 C1516 0.950 . S
H1511 C1517 0.950 . S
H1512 C1518 0.949 . S
C1513 H1508 0.950 . S
C1513 C1515 1.327 . S
C1513 C1519 1.429 . S
C1514 C1506 1.574 . S
C1514 H1509 0.949 . S
C1514 C1520 1.368 . S
C1515 C1499 1.349 . S
C1515 H1507 0.950 . S
C1515 C1513 1.327 . S
C1516 C1504 1.349 . S
C1516 H1510 0.950 . S
C1516 C1517 1.327 . S
C1517 H1511 0.950 . S
C1517 C1516 1.327 . S
C1517 C1521 1.429 . S
C1518 C1501 1.574 . S
C1518 H1512 0.949 . S
C1518 C1522 1.368 . S
C1519 C1500 1.429 . S
C1519 C1513 1.429 . S
C1519 C1520 1.523 . S
C1520 C1501 1.368 . S
C1520 C1514 1.368 . S
C1520 C1519 1.523 . S
C1521 C1505 1.429 . S
C1521 C1517 1.429 . S
C1521 C1522 1.523 . S
C1522 C1506 1.368 . S
C1522 C1518 1.368 . S
C1522 C1521 1.523 . S
H1523 C1498 0.950 . S
H1524 C1500 0.950 . S
H1525 C1501 0.949 . S
H1526 C1503 0.950 . S
H1527 C1505 0.950 . S
C1528 C1529 1.349 . S
C1528 C1530 1.327 . S
C1528 H1553 0.950 . S
C1529 C1528 1.349 . S
C1529 C1545 1.349 . S
C1530 C1528 1.327 . S
C1530 C1549 1.429 . S
C1530 H1554 0.950 . S
C1531 C1548 1.574 . S
C1531 C1550 1.368 . S
C1531 H1555 0.949 . S
H1532 C1536 0.949 . S
C1533 C1534 1.349 . S
C1533 C1535 1.327 . S
C1533 H1556 0.950 . S
C1534 C1533 1.349 . S
C1534 C1546 1.349 . S
C1535 C1533 1.327 . S
C1535 C1551 1.429 . S
C1535 H1557 0.950 . S
C1536 H1532 0.949 . S
C1536 C1544 1.574 . S
C1536 C1552 1.368 . S
H1537 C1545 0.950 . S
H1538 C1543 0.950 . S
H1539 C1544 0.949 . S
H1540 C1546 0.950 . S
H1541 C1547 0.950 . S
H1542 C1548 0.949 . S
C1543 H1538 0.950 . S
C1543 C1545 1.327 . S
C1543 C1549 1.429 . S
C1544 C1536 1.574 . S
C1544 H1539 0.949 . S
C1544 C1550 1.368 . S
C1545 C1529 1.349 . S
C1545 H1537 0.950 . S
C1545 C1543 1.327 . S
C1546 C1534 1.349 . S
C1546 H1540 0.950 . S
C1546 C1547 1.327 . S
C1547 H1541 0.950 . S
C1547 C1546 1.327 . S
C1547 C1551 1.429 . S
C1548 C1531 1.574 . S
C1548 H1542 0.949 . S
C1548 C1552 1.368 . S
C1549 C1530 1.429 . S
C1549 C1543 1.429 . S
C1549 C1550 1.523 . S
C1550 C1531 1.368 . S
C1550 C1544 1.368 . S
C1550 C1549 1.523 . S
C1551 C1535 1.429 . S
C1551 C1547 1.429 . S
C1551 C1552 1.523 . S
C1552 C1536 1.368 . S
C1552 C1548 1.368 . S
C1552 C1551 1.523 . S
H1553 C1528 0.950 . S
H1554 C1530 0.950 . S
H1555 C1531 0.949 . S
H1556 C1533 0.950 . S
H1557 C1535 0.950 . S
C1558 C1559 1.349 . S
C1558 C1560 1.327 . S
C1558 H1583 0.950 . S
C1559 C1558 1.349 . S
C1559 C1575 1.349 . S
C1560 C1558 1.327 . S
C1560 C1579 1.429 . S
C1560 H1584 0.950 . S
C1561 C1578 1.574 . S
C1561 C1580 1.368 . S
C1561 H1585 0.949 . S
H1562 C1566 0.949 . S
C1563 C1564 1.349 . S
C1563 C1565 1.327 . S
C1563 H1586 0.950 . S
C1564 C1563 1.349 . S
C1564 C1576 1.349 . S
C1565 C1563 1.327 . S
C1565 C1581 1.429 . S
C1565 H1587 0.950 . S
C1566 H1562 0.949 . S
C1566 C1574 1.574 . S
C1566 C1582 1.368 . S
H1567 C1575 0.950 . S
H1568 C1573 0.950 . S
H1569 C1574 0.949 . S
H1570 C1576 0.950 . S
H1571 C1577 0.950 . S
H1572 C1578 0.949 . S
C1573 H1568 0.950 . S
C1573 C1575 1.327 . S
C1573 C1579 1.429 . S
C1574 C1566 1.574 . S
C1574 H1569 0.949 . S
C1574 C1580 1.368 . S
C1575 C1559 1.349 . S
C1575 H1567 0.950 . S
C1575 C1573 1.327 . S
C1576 C1564 1.349 . S
C1576 H1570 0.950 . S
C1576 C1577 1.327 . S
C1577 H1571 0.950 . S
C1577 C1576 1.327 . S
C1577 C1581 1.429 . S
C1578 C1561 1.574 . S
C1578 H1572 0.949 . S
C1578 C1582 1.368 . S
C1579 C1560 1.429 . S
C1579 C1573 1.429 . S
C1579 C1580 1.523 . S
C1580 C1561 1.368 . S
C1580 C1574 1.368 . S
C1580 C1579 1.523 . S
C1581 C1565 1.429 . S
C1581 C1577 1.429 . S
C1581 C1582 1.523 . S
C1582 C1566 1.368 . S
C1582 C1578 1.368 . S
C1582 C1581 1.523 . S
H1583 C1558 0.950 . S
H1584 C1560 0.950 . S
H1585 C1561 0.949 . S
H1586 C1563 0.950 . S
H1587 C1565 0.950 . S
C1588 C1589 1.349 . S
C1588 C1590 1.327 . S
C1588 H1613 0.950 . S
C1589 C1588 1.349 . S
C1589 C1605 1.349 . S
C1590 C1588 1.327 . S
C1590 C1609 1.429 . S
C1590 H1614 0.950 . S
C1591 C1608 1.574 . S
C1591 C1610 1.368 . S
C1591 H1615 0.949 . S
H1592 C1596 0.949 . S
C1593 C1594 1.349 . S
C1593 C1595 1.327 . S
C1593 H1616 0.950 . S
C1594 C1593 1.349 . S
C1594 C1606 1.349 . S
C1595 C1593 1.327 . S
C1595 C1611 1.429 . S
C1595 H1617 0.950 . S
C1596 H1592 0.949 . S
C1596 C1604 1.574 . S
C1596 C1612 1.368 . S
H1597 C1605 0.950 . S
H1598 C1603 0.950 . S
H1599 C1604 0.949 . S
H1600 C1606 0.950 . S
H1601 C1607 0.950 . S
H1602 C1608 0.949 . S
C1603 H1598 0.950 . S
C1603 C1605 1.327 . S
C1603 C1609 1.429 . S
C1604 C1596 1.574 . S
C1604 H1599 0.949 . S
C1604 C1610 1.368 . S
C1605 C1589 1.349 . S
C1605 H1597 0.950 . S
C1605 C1603 1.327 . S
C1606 C1594 1.349 . S
C1606 H1600 0.950 . S
C1606 C1607 1.327 . S
C1607 H1601 0.950 . S
C1607 C1606 1.327 . S
C1607 C1611 1.429 . S
C1608 C1591 1.574 . S
C1608 H1602 0.949 . S
C1608 C1612 1.368 . S
C1609 C1590 1.429 . S
C1609 C1603 1.429 . S
C1609 C1610 1.523 . S
C1610 C1591 1.368 . S
C1610 C1604 1.368 . S
C1610 C1609 1.523 . S
C1611 C1595 1.429 . S
C1611 C1607 1.429 . S
C1611 C1612 1.523 . S
C1612 C1596 1.368 . S
C1612 C1608 1.368 . S
C1612 C1611 1.523 . S
H1613 C1588 0.950 . S
H1614 C1590 0.950 . S
H1615 C1591 0.949 . S
H1616 C1593 0.950 . S
H1617 C1595 0.950 . S
C1618 C1619 1.349 . S
C1618 C1620 1.327 . S
C1618 H1643 0.950 . S
C1619 C1618 1.349 . S
C1619 C1635 1.349 . S
C1620 C1618 1.327 . S
C1620 C1639 1.429 . S
C1620 H1644 0.950 . S
C1621 C1638 1.574 . S
C1621 C1640 1.368 . S
C1621 H1645 0.949 . S
H1622 C1626 0.949 . S
C1623 C1624 1.349 1_455 S
C1623 C1625 1.327 . S
C1623 H1646 0.937 1_455 S
C1624 C1623 1.349 1_655 S
C1624 C1636 1.349 1_655 S
C1625 C1623 1.327 . S
C1625 C1641 1.429 . S
C1625 H1647 0.950 . S
C1626 H1622 0.949 . S
C1626 C1634 1.574 . S
C1626 C1642 1.368 . S
H1627 C1635 0.950 . S
H1628 C1633 0.950 . S
H1629 C1634 0.949 . S
H1630 C1636 0.950 1_655 S
H1631 C1637 0.950 . S
H1632 C1638 0.949 . S
C1633 H1628 0.950 . S
C1633 C1635 1.327 . S
C1633 C1639 1.429 . S
C1634 C1626 1.574 . S
C1634 H1629 0.949 . S
C1634 C1640 1.368 . S
C1635 C1619 1.349 . S
C1635 H1627 0.950 . S
C1635 C1633 1.327 . S
C1636 C1624 1.349 1_455 S
C1636 H1630 0.950 1_455 S
C1636 C1637 1.327 . S
C1637 H1631 0.950 . S
C1637 C1636 1.327 . S
C1637 C1641 1.429 . S
C1638 C1621 1.574 . S
C1638 H1632 0.949 . S
C1638 C1642 1.368 . S
C1639 C1620 1.429 . S
C1639 C1633 1.429 . S
C1639 C1640 1.523 . S
C1640 C1621 1.368 . S
C1640 C1634 1.368 . S
C1640 C1639 1.523 . S
C1641 C1625 1.429 . S
C1641 C1637 1.429 . S
C1641 C1642 1.523 . S
C1642 C1626 1.368 . S
C1642 C1638 1.368 . S
C1642 C1641 1.523 . S
H1643 C1618 0.950 . S
H1644 C1620 0.950 . S
H1645 C1621 0.949 . S
H1646 C1623 0.937 1_655 S
H1647 C1625 0.950 . S
C1648 C1649 1.349 . S
C1648 C1650 1.327 . S
C1648 H1673 0.950 . S
C1649 C1648 1.349 . S
C1649 C1665 1.349 . S
C1650 C1648 1.327 . S
C1650 C1669 1.429 . S
C1650 H1674 0.950 . S
C1651 C1668 1.574 . S
C1651 C1670 1.368 . S
C1651 H1675 0.949 . S
H1652 C1656 0.949 . S
C1653 C1654 1.349 . S
C1653 C1655 1.327 . S
C1653 H1676 0.950 . S
C1654 C1653 1.349 . S
C1654 C1666 1.349 . S
C1655 C1653 1.327 . S
C1655 C1671 1.429 . S
C1655 H1677 0.950 . S
C1656 H1652 0.949 . S
C1656 C1664 1.574 . S
C1656 C1672 1.368 . S
H1657 C1665 0.950 . S
H1658 C1663 0.950 . S
H1659 C1664 0.949 . S
H1660 C1666 0.950 . S
H1661 C1667 0.950 . S
H1662 C1668 0.949 . S
C1663 H1658 0.950 . S
C1663 C1665 1.327 . S
C1663 C1669 1.429 . S
C1664 C1656 1.574 . S
C1664 H1659 0.949 . S
C1664 C1670 1.368 . S
C1665 C1649 1.349 . S
C1665 H1657 0.950 . S
C1665 C1663 1.327 . S
C1666 C1654 1.349 . S
C1666 H1660 0.950 . S
C1666 C1667 1.327 . S
C1667 H1661 0.950 . S
C1667 C1666 1.327 . S
C1667 C1671 1.429 . S
C1668 C1651 1.574 . S
C1668 H1662 0.949 . S
C1668 C1672 1.368 . S
C1669 C1650 1.429 . S
C1669 C1663 1.429 . S
C1669 C1670 1.523 . S
C1670 C1651 1.368 . S
C1670 C1664 1.368 . S
C1670 C1669 1.523 . S
C1671 C1655 1.429 . S
C1671 C1667 1.429 . S
C1671 C1672 1.523 . S
C1672 C1656 1.368 . S
C1672 C1668 1.368 . S
C1672 C1671 1.523 . S
H1673 C1648 0.950 . S
H1674 C1650 0.950 . S
H1675 C1651 0.949 . S
H1676 C1653 0.950 . S
H1677 C1655 0.950 . S
C1678 C1679 1.349 1_655 S
C1678 C1680 1.327 . S
C1678 H1703 0.950 1_655 S
C1679 C1678 1.349 1_455 S
C1679 C1695 1.349 1_455 S
C1680 C1678 1.327 . S
C1680 C1699 1.429 . S
C1680 H1704 0.950 . S
C1681 C1698 1.574 . S
C1681 C1700 1.368 . S
C1681 H1705 0.949 . S
H1682 C1686 0.949 . S
C1683 C1684 1.349 . S
C1683 C1685 1.327 . S
C1683 H1706 0.950 . S
C1684 C1683 1.349 . S
C1684 C1696 1.349 . S
C1685 C1683 1.327 . S
C1685 C1701 1.429 . S
C1685 H1707 0.950 . S
C1686 H1682 0.949 . S
C1686 C1694 1.574 . S
C1686 C1702 1.368 . S
H1687 C1695 0.950 . S
H1688 C1693 0.950 . S
H1689 C1694 0.949 . S
H1690 C1696 0.950 . S
H1691 C1697 0.950 . S
H1692 C1698 0.949 . S
C1693 H1688 0.950 . S
C1693 C1695 1.327 . S
C1693 C1699 1.429 . S
C1694 C1686 1.574 . S
C1694 H1689 0.949 . S
C1694 C1700 1.368 . S
C1695 C1679 1.349 1_655 S
C1695 H1687 0.950 . S
C1695 C1693 1.327 . S
C1696 C1684 1.349 . S
C1696 H1690 0.950 . S
C1696 C1697 1.327 . S
C1697 H1691 0.950 . S
C1697 C1696 1.327 . S
C1697 C1701 1.429 . S
C1698 C1681 1.574 . S
C1698 H1692 0.949 . S
C1698 C1702 1.368 . S
C1699 C1680 1.429 . S
C1699 C1693 1.429 . S
C1699 C1700 1.523 . S
C1700 C1681 1.368 . S
C1700 C1694 1.368 . S
C1700 C1699 1.523 . S
C1701 C1685 1.429 . S
C1701 C1697 1.429 . S
C1701 C1702 1.523 . S
C1702 C1686 1.368 . S
C1702 C1698 1.368 . S
C1702 C1701 1.523 . S
H1703 C1678 0.950 1_455 S
H1704 C1680 0.950 . S
H1705 C1681 0.949 . S
H1706 C1683 0.950 . S
H1707 C1685 0.950 . S
C1708 C1709 1.349 . S
C1708 C1710 1.327 . S
C1708 H1733 0.950 . S
C1709 C1708 1.349 . S
C1709 C1725 1.349 . S
C1710 C1708 1.327 . S
C1710 C1729 1.429 . S
C1710 H1734 0.950 . S
C1711 C1728 1.574 . S
C1711 C1730 1.368 . S
C1711 H1735 0.949 . S
H1712 C1716 0.949 . S
C1713 C1714 1.349 . S
C1713 C1715 1.327 . S
C1713 H1736 0.950 . S
C1714 C1713 1.349 . S
C1714 C1726 1.349 . S
C1715 C1713 1.327 . S
C1715 C1731 1.429 . S
C1715 H1737 0.950 . S
C1716 H1712 0.949 . S
C1716 C1724 1.574 . S
C1716 C1732 1.368 . S
H1717 C1725 0.950 . S
H1718 C1723 0.950 . S
H1719 C1724 0.949 . S
H1720 C1726 0.950 . S
H1721 C1727 0.950 . S
H1722 C1728 0.949 . S
C1723 H1718 0.950 . S
C1723 C1725 1.327 . S
C1723 C1729 1.429 . S
C1724 C1716 1.574 . S
C1724 H1719 0.949 . S
C1724 C1730 1.368 . S
C1725 C1709 1.349 . S
C1725 H1717 0.950 . S
C1725 C1723 1.327 . S
C1726 C1714 1.349 . S
C1726 H1720 0.950 . S
C1726 C1727 1.327 . S
C1727 H1721 0.950 . S
C1727 C1726 1.327 . S
C1727 C1731 1.429 . S
C1728 C1711 1.574 . S
C1728 H1722 0.949 . S
C1728 C1732 1.368 . S
C1729 C1710 1.429 . S
C1729 C1723 1.429 . S
C1729 C1730 1.523 . S
C1730 C1711 1.368 . S
C1730 C1724 1.368 . S
C1730 C1729 1.523 . S
C1731 C1715 1.429 . S
C1731 C1727 1.429 . S
C1731 C1732 1.523 . S
C1732 C1716 1.368 . S
C1732 C1728 1.368 . S
C1732 C1731 1.523 . S
H1733 C1708 0.950 . S
H1734 C1710 0.950 . S
H1735 C1711 0.949 . S
H1736 C1713 0.950 . S
H1737 C1715 0.950 . S
C1738 C1739 1.349 . S
C1738 C1740 1.327 . S
C1738 H1763 0.950 . S
C1739 C1738 1.349 . S
C1739 C1755 1.349 . S
C1740 C1738 1.327 . S
C1740 C1759 1.429 . S
C1740 H1764 0.950 . S
C1741 C1758 1.574 . S
C1741 C1760 1.368 . S
C1741 H1765 0.949 . S
H1742 C1746 0.949 . S
C1743 C1744 1.349 . S
C1743 C1745 1.327 . S
C1743 H1766 0.950 . S
C1744 C1743 1.349 . S
C1744 C1756 1.349 . S
C1745 C1743 1.327 . S
C1745 C1761 1.429 . S
C1745 H1767 0.950 . S
C1746 H1742 0.949 . S
C1746 C1754 1.574 . S
C1746 C1762 1.368 . S
H1747 C1755 0.950 . S
H1748 C1753 0.950 . S
H1749 C1754 0.949 . S
H1750 C1756 0.950 . S
H1751 C1757 0.950 . S
H1752 C1758 0.949 . S
C1753 H1748 0.950 . S
C1753 C1755 1.327 . S
C1753 C1759 1.429 . S
C1754 C1746 1.574 . S
C1754 H1749 0.949 . S
C1754 C1760 1.368 . S
C1755 C1739 1.349 . S
C1755 H1747 0.950 . S
C1755 C1753 1.327 . S
C1756 C1744 1.349 . S
C1756 H1750 0.950 . S
C1756 C1757 1.327 . S
C1757 H1751 0.950 . S
C1757 C1756 1.327 . S
C1757 C1761 1.429 . S
C1758 C1741 1.574 . S
C1758 H1752 0.949 . S
C1758 C1762 1.368 . S
C1759 C1740 1.429 . S
C1759 C1753 1.429 . S
C1759 C1760 1.523 . S
C1760 C1741 1.368 . S
C1760 C1754 1.368 . S
C1760 C1759 1.523 . S
C1761 C1745 1.429 . S
C1761 C1757 1.429 . S
C1761 C1762 1.523 . S
C1762 C1746 1.368 . S
C1762 C1758 1.368 . S
C1762 C1761 1.523 . S
H1763 C1738 0.950 . S
H1764 C1740 0.950 . S
H1765 C1741 0.949 . S
H1766 C1743 0.950 . S
H1767 C1745 0.950 . S
C1768 C1769 1.349 . S
C1768 C1770 1.327 . S
C1768 H1793 0.950 . S
C1769 C1768 1.349 . S
C1769 C1785 1.349 . S
C1770 C1768 1.327 . S
C1770 C1789 1.429 . S
C1770 H1794 0.950 . S
C1771 C1788 1.574 . S
C1771 C1790 1.368 . S
C1771 H1795 0.949 . S
H1772 C1776 0.949 . S
C1773 C1774 1.349 . S
C1773 C1775 1.327 . S
C1773 H1796 0.950 . S
C1774 C1773 1.349 . S
C1774 C1786 1.349 . S
C1775 C1773 1.327 . S
C1775 C1791 1.429 . S
C1775 H1797 0.950 . S
C1776 H1772 0.949 . S
C1776 C1784 1.574 . S
C1776 C1792 1.368 . S
H1777 C1785 0.950 . S
H1778 C1783 0.950 . S
H1779 C1784 0.949 . S
H1780 C1786 0.950 . S
H1781 C1787 0.950 . S
H1782 C1788 0.949 . S
C1783 H1778 0.950 . S
C1783 C1785 1.327 . S
C1783 C1789 1.429 . S
C1784 C1776 1.574 . S
C1784 H1779 0.949 . S
C1784 C1790 1.368 . S
C1785 C1769 1.349 . S
C1785 H1777 0.950 . S
C1785 C1783 1.327 . S
C1786 C1774 1.349 . S
C1786 H1780 0.950 . S
C1786 C1787 1.327 . S
C1787 H1781 0.950 . S
C1787 C1786 1.327 . S
C1787 C1791 1.429 . S
C1788 C1771 1.574 . S
C1788 H1782 0.949 . S
C1788 C1792 1.368 . S
C1789 C1770 1.429 . S
C1789 C1783 1.429 . S
C1789 C1790 1.523 . S
C1790 C1771 1.368 . S
C1790 C1784 1.368 . S
C1790 C1789 1.523 . S
C1791 C1775 1.429 . S
C1791 C1787 1.429 . S
C1791 C1792 1.523 . S
C1792 C1776 1.368 . S
C1792 C1788 1.368 . S
C1792 C1791 1.523 . S
H1793 C1768 0.950 . S
H1794 C1770 0.950 . S
H1795 C1771 0.949 . S
H1796 C1773 0.950 . S
H1797 C1775 0.950 . S
C1798 C1799 1.349 . S
C1798 C1800 1.327 . S
C1798 H1823 0.950 . S
C1799 C1798 1.349 . S
C1799 C1815 1.349 . S
C1800 C1798 1.327 . S
C1800 C1819 1.429 . S
C1800 H1824 0.950 . S
C1801 C1818 1.574 . S
C1801 C1820 1.368 . S
C1801 H1825 0.949 . S
H1802 C1806 0.949 . S
C1803 C1804 1.349 . S
C1803 C1805 1.327 . S
C1803 H1826 0.950 . S
C1804 C1803 1.349 . S
C1804 C1816 1.349 . S
C1805 C1803 1.327 . S
C1805 C1821 1.429 . S
C1805 H1827 0.950 . S
C1806 H1802 0.949 . S
C1806 C1814 1.574 . S
C1806 C1822 1.368 . S
H1807 C1815 0.950 . S
H1808 C1813 0.950 . S
H1809 C1814 0.949 . S
H1810 C1816 0.950 . S
H1811 C1817 0.950 . S
H1812 C1818 0.949 . S
C1813 H1808 0.950 . S
C1813 C1815 1.327 . S
C1813 C1819 1.429 . S
C1814 C1806 1.574 . S
C1814 H1809 0.949 . S
C1814 C1820 1.368 . S
C1815 C1799 1.349 . S
C1815 H1807 0.950 . S
C1815 C1813 1.327 . S
C1816 C1804 1.349 . S
C1816 H1810 0.950 . S
C1816 C1817 1.327 . S
C1817 H1811 0.950 . S
C1817 C1816 1.327 . S
C1817 C1821 1.429 . S
C1818 C1801 1.574 . S
C1818 H1812 0.949 . S
C1818 C1822 1.368 . S
C1819 C1800 1.429 . S
C1819 C1813 1.429 . S
C1819 C1820 1.523 . S
C1820 C1801 1.368 . S
C1820 C1814 1.368 . S
C1820 C1819 1.523 . S
C1821 C1805 1.429 . S
C1821 C1817 1.429 . S
C1821 C1822 1.523 . S
C1822 C1806 1.368 . S
C1822 C1818 1.368 . S
C1822 C1821 1.523 . S
H1823 C1798 0.950 . S
H1824 C1800 0.950 . S
H1825 C1801 0.949 . S
H1826 C1803 0.950 . S
H1827 C1805 0.950 . S
C1828 C1829 1.349 . S
C1828 C1830 1.327 . S
C1828 H1853 0.950 . S
C1829 C1828 1.349 . S
C1829 C1845 1.349 . S
C1830 C1828 1.327 . S
C1830 C1849 1.429 . S
C1830 H1854 0.950 . S
C1831 C1848 1.574 . S
C1831 C1850 1.368 . S
C1831 H1855 0.949 . S
H1832 C1836 0.949 . S
C1833 C1834 1.349 . S
C1833 C1835 1.327 . S
C1833 H1856 0.950 . S
C1834 C1833 1.349 . S
C1834 C1846 1.349 . S
C1835 C1833 1.327 . S
C1835 C1851 1.429 . S
C1835 H1857 0.950 . S
C1836 H1832 0.949 . S
C1836 C1844 1.574 . S
C1836 C1852 1.368 . S
H1837 C1845 0.950 . S
H1838 C1843 0.950 . S
H1839 C1844 0.949 . S
H1840 C1846 0.950 . S
H1841 C1847 0.950 . S
H1842 C1848 0.949 . S
C1843 H1838 0.950 . S
C1843 C1845 1.327 . S
C1843 C1849 1.429 . S
C1844 C1836 1.574 . S
C1844 H1839 0.949 . S
C1844 C1850 1.368 . S
C1845 C1829 1.349 . S
C1845 H1837 0.950 . S
C1845 C1843 1.327 . S
C1846 C1834 1.349 . S
C1846 H1840 0.950 . S
C1846 C1847 1.327 . S
C1847 H1841 0.950 . S
C1847 C1846 1.327 . S
C1847 C1851 1.429 . S
C1848 C1831 1.574 . S
C1848 H1842 0.949 . S
C1848 C1852 1.368 . S
C1849 C1830 1.429 . S
C1849 C1843 1.429 . S
C1849 C1850 1.523 . S
C1850 C1831 1.368 . S
C1850 C1844 1.368 . S
C1850 C1849 1.523 . S
C1851 C1835 1.429 . S
C1851 C1847 1.429 . S
C1851 C1852 1.523 . S
C1852 C1836 1.368 . S
C1852 C1848 1.368 . S
C1852 C1851 1.523 . S
H1853 C1828 0.950 . S
H1854 C1830 0.950 . S
H1855 C1831 0.949 . S
H1856 C1833 0.950 . S
H1857 C1835 0.950 . S
C1858 C1859 1.349 . S
C1858 C1860 1.327 1_455 S
C1858 H1883 0.950 . S
C1859 C1858 1.349 . S
C1859 C1875 1.349 1_455 S
C1860 C1858 1.327 1_655 S
C1860 C1879 1.429 . S
C1860 H1884 0.950 . S
C1861 C1878 1.574 . S
C1861 C1880 1.368 . S
C1861 H1885 0.949 . S
H1862 C1866 0.949 . S
C1863 C1864 1.349 . S
C1863 C1865 1.327 . S
C1863 H1886 0.950 . S
C1864 C1863 1.349 . S
C1864 C1876 1.349 . S
C1865 C1863 1.327 . S
C1865 C1881 1.429 . S
C1865 H1887 0.950 . S
C1866 H1862 0.949 . S
C1866 C1874 1.574 . S
C1866 C1882 1.368 . S
H1867 C1875 0.950 . S
H1868 C1873 0.950 . S
H1869 C1874 0.949 . S
H1870 C1876 0.950 . S
H1871 C1877 0.950 . S
H1872 C1878 0.949 . S
C1873 H1868 0.950 . S
C1873 C1875 1.327 . S
C1873 C1879 1.429 . S
C1874 C1866 1.574 . S
C1874 H1869 0.949 . S
C1874 C1880 1.368 . S
C1875 C1859 1.349 1_655 S
C1875 H1867 0.950 . S
C1875 C1873 1.327 . S
C1876 C1864 1.349 . S
C1876 H1870 0.950 . S
C1876 C1877 1.327 . S
C1877 H1871 0.950 . S
C1877 C1876 1.327 . S
C1877 C1881 1.429 . S
C1878 C1861 1.574 . S
C1878 H1872 0.949 . S
C1878 C1882 1.368 . S
C1879 C1860 1.429 . S
C1879 C1873 1.429 . S
C1879 C1880 1.523 . S
C1880 C1861 1.368 . S
C1880 C1874 1.368 . S
C1880 C1879 1.523 . S
C1881 C1865 1.429 . S
C1881 C1877 1.429 . S
C1881 C1882 1.523 . S
C1882 C1866 1.368 . S
C1882 C1878 1.368 . S
C1882 C1881 1.523 . S
H1883 C1858 0.950 . S
H1884 C1860 0.950 . S
H1885 C1861 0.949 . S
H1886 C1863 0.950 . S
H1887 C1865 0.950 . S
C1888 C1889 1.349 . S
C1888 C1890 1.327 . S
C1888 H1913 0.950 . S
C1889 C1888 1.349 . S
C1889 C1905 1.349 . S
C1890 C1888 1.327 . S
C1890 C1909 1.429 . S
C1890 H1914 0.950 . S
C1891 C1908 1.574 . S
C1891 C1910 1.368 . S
C1891 H1915 0.949 . S
H1892 C1896 0.949 . S
C1893 C1894 1.349 . S
C1893 C1895 1.327 . S
C1893 H1916 0.950 . S
C1894 C1893 1.349 . S
C1894 C1906 1.349 . S
C1895 C1893 1.327 . S
C1895 C1911 1.429 . S
C1895 H1917 0.950 . S
C1896 H1892 0.949 . S
C1896 C1904 1.574 . S
C1896 C1912 1.368 . S
H1897 C1905 0.950 . S
H1898 C1903 0.950 . S
H1899 C1904 0.949 . S
H1900 C1906 0.950 . S
H1901 C1907 0.950 . S
H1902 C1908 0.949 . S
C1903 H1898 0.950 . S
C1903 C1905 1.327 . S
C1903 C1909 1.429 . S
C1904 C1896 1.574 . S
C1904 H1899 0.949 . S
C1904 C1910 1.368 . S
C1905 C1889 1.349 . S
C1905 H1897 0.950 . S
C1905 C1903 1.327 . S
C1906 C1894 1.349 . S
C1906 H1900 0.950 . S
C1906 C1907 1.327 . S
C1907 H1901 0.950 . S
C1907 C1906 1.327 . S
C1907 C1911 1.429 . S
C1908 C1891 1.574 . S
C1908 H1902 0.949 . S
C1908 C1912 1.368 . S
C1909 C1890 1.429 . S
C1909 C1903 1.429 . S
C1909 C1910 1.523 . S
C1910 C1891 1.368 . S
C1910 C1904 1.368 . S
C1910 C1909 1.523 . S
C1911 C1895 1.429 . S
C1911 C1907 1.429 . S
C1911 C1912 1.523 . S
C1912 C1896 1.368 . S
C1912 C1908 1.368 . S
C1912 C1911 1.523 . S
H1913 C1888 0.950 . S
H1914 C1890 0.950 . S
H1915 C1891 0.949 . S
H1916 C1893 0.950 . S
H1917 C1895 0.950 . S
C1918 C1919 1.349 . S
C1918 C1920 1.327 . S
C1918 H1943 0.950 . S
C1919 C1918 1.349 . S
C1919 C1935 1.349 . S
C1920 C1918 1.327 . S
C1920 C1939 1.429 . S
C1920 H1944 0.950 . S
C1921 C1938 1.574 . S
C1921 C1940 1.368 . S
C1921 H1945 0.949 . S
H1922 C1926 0.949 . S
C1923 C1924 1.349 . S
C1923 C1925 1.327 . S
C1923 H1946 0.950 . S
C1924 C1923 1.349 . S
C1924 C1936 1.349 . S
C1925 C1923 1.327 . S
C1925 C1941 1.429 . S
C1925 H1947 0.950 . S
C1926 H1922 0.949 . S
C1926 C1934 1.574 . S
C1926 C1942 1.368 . S
H1927 C1935 0.950 . S
H1928 C1933 0.950 . S
H1929 C1934 0.949 . S
H1930 C1936 0.950 . S
H1931 C1937 0.950 . S
H1932 C1938 0.949 . S
C1933 H1928 0.950 . S
C1933 C1935 1.327 . S
C1933 C1939 1.429 . S
C1934 C1926 1.574 . S
C1934 H1929 0.949 . S
C1934 C1940 1.368 . S
C1935 C1919 1.349 . S
C1935 H1927 0.950 . S
C1935 C1933 1.327 . S
C1936 C1924 1.349 . S
C1936 H1930 0.950 . S
C1936 C1937 1.327 . S
C1937 H1931 0.950 . S
C1937 C1936 1.327 . S
C1937 C1941 1.429 . S
C1938 C1921 1.574 . S
C1938 H1932 0.949 . S
C1938 C1942 1.368 . S
C1939 C1920 1.429 . S
C1939 C1933 1.429 . S
C1939 C1940 1.523 . S
C1940 C1921 1.368 . S
C1940 C1934 1.368 . S
C1940 C1939 1.523 . S
C1941 C1925 1.429 . S
C1941 C1937 1.429 . S
C1941 C1942 1.523 . S
C1942 C1926 1.368 . S
C1942 C1938 1.368 . S
C1942 C1941 1.523 . S
H1943 C1918 0.950 . S
H1944 C1920 0.950 . S
H1945 C1921 0.949 . S
H1946 C1923 0.950 . S
H1947 C1925 0.950 . S
C1948 C1949 1.349 . S
C1948 C1950 1.327 . S
C1948 H1973 0.950 . S
C1949 C1948 1.349 . S
C1949 C1965 1.349 . S
C1950 C1948 1.327 . S
C1950 C1969 1.429 . S
C1950 H1974 0.950 . S
C1951 C1968 1.574 . S
C1951 C1970 1.368 . S
C1951 H1975 0.949 . S
H1952 C1956 0.949 . S
C1953 C1954 1.349 . S
C1953 C1955 1.327 . S
C1953 H1976 0.950 . S
C1954 C1953 1.349 . S
C1954 C1966 1.349 . S
C1955 C1953 1.327 . S
C1955 C1971 1.429 . S
C1955 H1977 0.950 . S
C1956 H1952 0.949 . S
C1956 C1964 1.574 . S
C1956 C1972 1.368 . S
H1957 C1965 0.950 . S
H1958 C1963 0.950 . S
H1959 C1964 0.949 . S
H1960 C1966 0.950 . S
H1961 C1967 0.950 . S
H1962 C1968 0.949 . S
C1963 H1958 0.950 . S
C1963 C1965 1.327 . S
C1963 C1969 1.429 . S
C1964 C1956 1.574 . S
C1964 H1959 0.949 . S
C1964 C1970 1.368 . S
C1965 C1949 1.349 . S
C1965 H1957 0.950 . S
C1965 C1963 1.327 . S
C1966 C1954 1.349 . S
C1966 H1960 0.950 . S
C1966 C1967 1.327 . S
C1967 H1961 0.950 . S
C1967 C1966 1.327 . S
C1967 C1971 1.429 . S
C1968 C1951 1.574 . S
C1968 H1962 0.949 . S
C1968 C1972 1.368 . S
C1969 C1950 1.429 . S
C1969 C1963 1.429 . S
C1969 C1970 1.523 . S
C1970 C1951 1.368 . S
C1970 C1964 1.368 . S
C1970 C1969 1.523 . S
C1971 C1955 1.429 . S
C1971 C1967 1.429 . S
C1971 C1972 1.523 . S
C1972 C1956 1.368 . S
C1972 C1968 1.368 . S
C1972 C1971 1.523 . S
H1973 C1948 0.950 . S
H1974 C1950 0.950 . S
H1975 C1951 0.949 . S
H1976 C1953 0.950 . S
H1977 C1955 0.950 . S
C1978 C1979 1.349 . S
C1978 C1980 1.327 . S
C1978 H2003 0.950 . S
C1979 C1978 1.349 . S
C1979 C1995 1.349 . S
C1980 C1978 1.327 . S
C1980 C1999 1.429 . S
C1980 H2004 0.950 . S
C1981 C1998 1.574 . S
C1981 C2000 1.368 . S
C1981 H2005 0.949 . S
H1982 C1986 0.949 . S
C1983 C1984 1.349 . S
C1983 C1985 1.327 1_455 S
C1983 H2006 0.950 . S
C1984 C1983 1.349 . S
C1984 C1996 1.349 1_455 S
C1985 C1983 1.327 1_655 S
C1985 C2001 1.429 . S
C1985 H2007 0.950 . S
C1986 H1982 0.949 . S
C1986 C1994 1.574 . S
C1986 C2002 1.368 . S
H1987 C1995 0.950 . S
H1988 C1993 0.950 . S
H1989 C1994 0.949 . S
H1990 C1996 0.950 . S
H1991 C1997 0.950 . S
H1992 C1998 0.949 . S
C1993 H1988 0.950 . S
C1993 C1995 1.327 . S
C1993 C1999 1.429 . S
C1994 C1986 1.574 . S
C1994 H1989 0.949 . S
C1994 C2000 1.368 . S
C1995 C1979 1.349 . S
C1995 H1987 0.950 . S
C1995 C1993 1.327 . S
C1996 C1984 1.349 1_655 S
C1996 H1990 0.950 . S
C1996 C1997 1.327 . S
C1997 H1991 0.950 . S
C1997 C1996 1.327 . S
C1997 C2001 1.429 . S
C1998 C1981 1.574 . S
C1998 H1992 0.949 . S
C1998 C2002 1.368 . S
C1999 C1980 1.429 . S
C1999 C1993 1.429 . S
C1999 C2000 1.523 . S
C2000 C1981 1.368 . S
C2000 C1994 1.368 . S
C2000 C1999 1.523 . S
C2001 C1985 1.429 . S
C2001 C1997 1.429 . S
C2001 C2002 1.523 . S
C2002 C1986 1.368 . S
C2002 C1998 1.368 . S
C2002 C2001 1.523 . S
H2003 C1978 0.950 . S
H2004 C1980 0.950 . S
H2005 C1981 0.949 . S
H2006 C1983 0.950 . S
H2007 C1985 0.950 . S
C2008 C2009 1.349 . S
C2008 C2010 1.327 . S
C2008 H2033 0.950 . S
C2009 C2008 1.349 . S
C2009 C2025 1.349 . S
C2010 C2008 1.327 . S
C2010 C2029 1.429 . S
C2010 H2034 0.950 . S
C2011 C2028 1.574 . S
C2011 C2030 1.368 . S
C2011 H2035 0.949 . S
H2012 C2016 0.949 . S
C2013 C2014 1.349 . S
C2013 C2015 1.327 . S
C2013 H2036 0.950 . S
C2014 C2013 1.349 . S
C2014 C2026 1.349 . S
C2015 C2013 1.327 . S
C2015 C2031 1.429 . S
C2015 H2037 0.950 . S
C2016 H2012 0.949 . S
C2016 C2024 1.574 . S
C2016 C2032 1.368 . S
H2017 C2025 0.950 . S
H2018 C2023 0.950 . S
H2019 C2024 0.949 . S
H2020 C2026 0.950 . S
H2021 C2027 0.950 . S
H2022 C2028 0.949 . S
C2023 H2018 0.950 . S
C2023 C2025 1.327 . S
C2023 C2029 1.429 . S
C2024 C2016 1.574 . S
C2024 H2019 0.949 . S
C2024 C2030 1.368 . S
C2025 C2009 1.349 . S
C2025 H2017 0.950 . S
C2025 C2023 1.327 . S
C2026 C2014 1.349 . S
C2026 H2020 0.950 . S
C2026 C2027 1.327 . S
C2027 H2021 0.950 . S
C2027 C2026 1.327 . S
C2027 C2031 1.429 . S
C2028 C2011 1.574 . S
C2028 H2022 0.949 . S
C2028 C2032 1.368 . S
C2029 C2010 1.429 . S
C2029 C2023 1.429 . S
C2029 C2030 1.523 . S
C2030 C2011 1.368 . S
C2030 C2024 1.368 . S
C2030 C2029 1.523 . S
C2031 C2015 1.429 . S
C2031 C2027 1.429 . S
C2031 C2032 1.523 . S
C2032 C2016 1.368 . S
C2032 C2028 1.368 . S
C2032 C2031 1.523 . S
H2033 C2008 0.950 . S
H2034 C2010 0.950 . S
H2035 C2011 0.949 . S
H2036 C2013 0.950 . S
H2037 C2015 0.950 . S
C2038 C2039 1.349 1_655 S
C2038 C2040 1.327 . S
C2038 H2063 0.950 . S
C2039 C2038 1.349 1_455 S
C2039 C2055 1.349 . S
C2040 C2038 1.327 . S
C2040 C2059 1.429 . S
C2040 H2064 0.950 . S
C2041 C2058 1.574 . S
C2041 C2060 1.368 . S
C2041 H2065 0.949 . S
H2042 C2046 0.949 . S
C2043 C2044 1.349 . S
C2043 C2045 1.327 . S
C2043 H2066 0.950 . S
C2044 C2043 1.349 . S
C2044 C2056 1.349 . S
C2045 C2043 1.327 . S
C2045 C2061 1.429 . S
C2045 H2067 0.950 . S
C2046 H2042 0.949 . S
C2046 C2054 1.574 . S
C2046 C2062 1.368 . S
H2047 C2055 0.950 . S
H2048 C2053 0.950 . S
H2049 C2054 0.949 . S
H2050 C2056 0.950 . S
H2051 C2057 0.950 . S
H2052 C2058 0.949 . S
C2053 H2048 0.950 . S
C2053 C2055 1.327 1_655 S
C2053 C2059 1.429 . S
C2054 C2046 1.574 . S
C2054 H2049 0.949 . S
C2054 C2060 1.368 . S
C2055 C2039 1.349 . S
C2055 H2047 0.950 . S
C2055 C2053 1.327 1_455 S
C2056 C2044 1.349 . S
C2056 H2050 0.950 . S
C2056 C2057 1.327 . S
C2057 H2051 0.950 . S
C2057 C2056 1.327 . S
C2057 C2061 1.429 . S
C2058 C2041 1.574 . S
C2058 H2052 0.949 . S
C2058 C2062 1.368 . S
C2059 C2040 1.429 . S
C2059 C2053 1.429 . S
C2059 C2060 1.523 . S
C2060 C2041 1.368 . S
C2060 C2054 1.368 . S
C2060 C2059 1.523 . S
C2061 C2045 1.429 . S
C2061 C2057 1.429 . S
C2061 C2062 1.523 . S
C2062 C2046 1.368 . S
C2062 C2058 1.368 . S
C2062 C2061 1.523 . S
H2063 C2038 0.950 . S
H2064 C2040 0.950 . S
H2065 C2041 0.949 . S
H2066 C2043 0.950 . S
H2067 C2045 0.950 . S
C2068 C2069 1.349 . S
C2068 C2070 1.327 . S
C2068 H2093 0.950 . S
C2069 C2068 1.349 . S
C2069 C2085 1.349 . S
C2070 C2068 1.327 . S
C2070 C2089 1.429 . S
C2070 H2094 0.950 . S
C2071 C2088 1.574 . S
C2071 C2090 1.368 . S
C2071 H2095 0.949 . S
H2072 C2076 0.949 . S
C2073 C2074 1.349 . S
C2073 C2075 1.327 . S
C2073 H2096 0.950 . S
C2074 C2073 1.349 . S
C2074 C2086 1.349 . S
C2075 C2073 1.327 . S
C2075 C2091 1.429 . S
C2075 H2097 0.950 . S
C2076 H2072 0.949 . S
C2076 C2084 1.574 . S
C2076 C2092 1.368 . S
H2077 C2085 0.950 . S
H2078 C2083 0.950 . S
H2079 C2084 0.949 . S
H2080 C2086 0.950 . S
H2081 C2087 0.950 . S
H2082 C2088 0.949 . S
C2083 H2078 0.950 . S
C2083 C2085 1.327 . S
C2083 C2089 1.429 . S
C2084 C2076 1.574 . S
C2084 H2079 0.949 . S
C2084 C2090 1.368 . S
C2085 C2069 1.349 . S
C2085 H2077 0.950 . S
C2085 C2083 1.327 . S
C2086 C2074 1.349 . S
C2086 H2080 0.950 . S
C2086 C2087 1.327 . S
C2087 H2081 0.950 . S
C2087 C2086 1.327 . S
C2087 C2091 1.429 . S
C2088 C2071 1.574 . S
C2088 H2082 0.949 . S
C2088 C2092 1.368 . S
C2089 C2070 1.429 . S
C2089 C2083 1.429 . S
C2089 C2090 1.523 . S
C2090 C2071 1.368 . S
C2090 C2084 1.368 . S
C2090 C2089 1.523 . S
C2091 C2075 1.429 . S
C2091 C2087 1.429 . S
C2091 C2092 1.523 . S
C2092 C2076 1.368 . S
C2092 C2088 1.368 . S
C2092 C2091 1.523 . S
H2093 C2068 0.950 . S
H2094 C2070 0.950 . S
H2095 C2071 0.949 . S
H2096 C2073 0.950 . S
H2097 C2075 0.950 . S
C2098 C2099 1.349 . S
C2098 C2100 1.327 . S
C2098 H2123 0.950 . S
C2099 C2098 1.349 . S
C2099 C2115 1.349 . S
C2100 C2098 1.327 . S
C2100 C2119 1.429 . S
C2100 H2124 0.950 . S
C2101 C2118 1.574 . S
C2101 C2120 1.368 . S
C2101 H2125 0.949 . S
H2102 C2106 0.949 . S
C2103 C2104 1.349 . S
C2103 C2105 1.327 . S
C2103 H2126 0.950 . S
C2104 C2103 1.349 . S
C2104 C2116 1.349 . S
C2105 C2103 1.327 . S
C2105 C2121 1.429 . S
C2105 H2127 0.950 . S
C2106 H2102 0.949 . S
C2106 C2114 1.574 . S
C2106 C2122 1.368 . S
H2107 C2115 0.950 . S
H2108 C2113 0.950 . S
H2109 C2114 0.949 . S
H2110 C2116 0.950 . S
H2111 C2117 0.950 . S
H2112 C2118 0.949 . S
C2113 H2108 0.950 . S
C2113 C2115 1.327 . S
C2113 C2119 1.429 . S
C2114 C2106 1.574 . S
C2114 H2109 0.949 . S
C2114 C2120 1.368 . S
C2115 C2099 1.349 . S
C2115 H2107 0.950 . S
C2115 C2113 1.327 . S
C2116 C2104 1.349 . S
C2116 H2110 0.950 . S
C2116 C2117 1.327 . S
C2117 H2111 0.950 . S
C2117 C2116 1.327 . S
C2117 C2121 1.429 . S
C2118 C2101 1.574 . S
C2118 H2112 0.949 . S
C2118 C2122 1.368 . S
C2119 C2100 1.429 . S
C2119 C2113 1.429 . S
C2119 C2120 1.523 . S
C2120 C2101 1.368 . S
C2120 C2114 1.368 . S
C2120 C2119 1.523 . S
C2121 C2105 1.429 . S
C2121 C2117 1.429 . S
C2121 C2122 1.523 . S
C2122 C2106 1.368 . S
C2122 C2118 1.368 . S
C2122 C2121 1.523 . S
H2123 C2098 0.950 . S
H2124 C2100 0.950 . S
H2125 C2101 0.949 . S
H2126 C2103 0.950 . S
H2127 C2105 0.950 . S
C2128 C2129 1.349 . S
C2128 C2130 1.327 . S
C2128 H2153 0.950 . S
C2129 C2128 1.349 . S
C2129 C2145 1.349 . S
C2130 C2128 1.327 . S
C2130 C2149 1.429 . S
C2130 H2154 0.950 . S
C2131 C2148 1.574 . S
C2131 C2150 1.368 . S
C2131 H2155 0.949 . S
H2132 C2136 0.949 . S
C2133 C2134 1.349 . S
C2133 C2135 1.327 . S
C2133 H2156 0.950 . S
C2134 C2133 1.349 . S
C2134 C2146 1.349 . S
C2135 C2133 1.327 . S
C2135 C2151 1.429 . S
C2135 H2157 0.950 . S
C2136 H2132 0.949 . S
C2136 C2144 1.574 . S
C2136 C2152 1.368 . S
H2137 C2145 0.950 . S
H2138 C2143 0.950 . S
H2139 C2144 0.949 . S
H2140 C2146 0.950 . S
H2141 C2147 0.950 . S
H2142 C2148 0.949 . S
C2143 H2138 0.950 . S
C2143 C2145 1.327 . S
C2143 C2149 1.429 . S
C2144 C2136 1.574 . S
C2144 H2139 0.949 . S
C2144 C2150 1.368 . S
C2145 C2129 1.349 . S
C2145 H2137 0.950 . S
C2145 C2143 1.327 . S
C2146 C2134 1.349 . S
C2146 H2140 0.950 . S
C2146 C2147 1.327 . S
C2147 H2141 0.950 . S
C2147 C2146 1.327 . S
C2147 C2151 1.429 . S
C2148 C2131 1.574 . S
C2148 H2142 0.949 . S
C2148 C2152 1.368 . S
C2149 C2130 1.429 . S
C2149 C2143 1.429 . S
C2149 C2150 1.523 . S
C2150 C2131 1.368 . S
C2150 C2144 1.368 . S
C2150 C2149 1.523 . S
C2151 C2135 1.429 . S
C2151 C2147 1.429 . S
C2151 C2152 1.523 . S
C2152 C2136 1.368 . S
C2152 C2148 1.368 . S
C2152 C2151 1.523 . S
H2153 C2128 0.950 . S
H2154 C2130 0.950 . S
H2155 C2131 0.949 . S
H2156 C2133 0.950 . S
H2157 C2135 0.950 . S
C2158 C2159 1.349 . S
C2158 C2160 1.327 . S
C2158 H2183 0.950 . S
C2159 C2158 1.349 . S
C2159 C2175 1.349 . S
C2160 C2158 1.327 . S
C2160 C2179 1.429 . S
C2160 H2184 0.950 . S
C2161 C2178 1.574 . S
C2161 C2180 1.368 . S
C2161 H2185 0.949 . S
H2162 C2166 0.949 . S
C2163 C2164 1.349 . S
C2163 C2165 1.327 . S
C2163 H2186 0.950 . S
C2164 C2163 1.349 . S
C2164 C2176 1.349 . S
C2165 C2163 1.327 . S
C2165 C2181 1.429 . S
C2165 H2187 0.950 . S
C2166 H2162 0.949 . S
C2166 C2174 1.574 . S
C2166 C2182 1.368 . S
H2167 C2175 0.950 . S
H2168 C2173 0.950 . S
H2169 C2174 0.949 . S
H2170 C2176 0.950 . S
H2171 C2177 0.950 . S
H2172 C2178 0.949 . S
C2173 H2168 0.950 . S
C2173 C2175 1.327 . S
C2173 C2179 1.429 . S
C2174 C2166 1.574 . S
C2174 H2169 0.949 . S
C2174 C2180 1.368 . S
C2175 C2159 1.349 . S
C2175 H2167 0.950 . S
C2175 C2173 1.327 . S
C2176 C2164 1.349 . S
C2176 H2170 0.950 . S
C2176 C2177 1.327 . S
C2177 H2171 0.950 . S
C2177 C2176 1.327 . S
C2177 C2181 1.429 . S
C2178 C2161 1.574 . S
C2178 H2172 0.949 . S
C2178 C2182 1.368 . S
C2179 C2160 1.429 . S
C2179 C2173 1.429 . S
C2179 C2180 1.523 . S
C2180 C2161 1.368 . S
C2180 C2174 1.368 . S
C2180 C2179 1.523 . S
C2181 C2165 1.429 . S
C2181 C2177 1.429 . S
C2181 C2182 1.523 . S
C2182 C2166 1.368 . S
C2182 C2178 1.368 . S
C2182 C2181 1.523 . S
H2183 C2158 0.950 . S
H2184 C2160 0.950 . S
H2185 C2161 0.949 . S
H2186 C2163 0.950 . S
H2187 C2165 0.950 . S
C2188 C2189 1.349 . S
C2188 C2190 1.327 . S
C2188 H2213 0.950 . S
C2189 C2188 1.349 . S
C2189 C2205 1.349 . S
C2190 C2188 1.327 . S
C2190 C2209 1.429 . S
C2190 H2214 0.950 . S
C2191 C2208 1.574 . S
C2191 C2210 1.368 . S
C2191 H2215 0.949 . S
H2192 C2196 0.949 . S
C2193 C2194 1.349 . S
C2193 C2195 1.327 . S
C2193 H2216 0.950 . S
C2194 C2193 1.349 . S
C2194 C2206 1.349 . S
C2195 C2193 1.327 . S
C2195 C2211 1.429 . S
C2195 H2217 0.950 . S
C2196 H2192 0.949 . S
C2196 C2204 1.574 . S
C2196 C2212 1.368 . S
H2197 C2205 0.950 . S
H2198 C2203 0.950 . S
H2199 C2204 0.949 . S
H2200 C2206 0.950 . S
H2201 C2207 0.950 . S
H2202 C2208 0.949 . S
C2203 H2198 0.950 . S
C2203 C2205 1.327 . S
C2203 C2209 1.429 . S
C2204 C2196 1.574 . S
C2204 H2199 0.949 . S
C2204 C2210 1.368 . S
C2205 C2189 1.349 . S
C2205 H2197 0.950 . S
C2205 C2203 1.327 . S
C2206 C2194 1.349 . S
C2206 H2200 0.950 . S
C2206 C2207 1.327 . S
C2207 H2201 0.950 . S
C2207 C2206 1.327 . S
C2207 C2211 1.429 . S
C2208 C2191 1.574 . S
C2208 H2202 0.949 . S
C2208 C2212 1.368 . S
C2209 C2190 1.429 . S
C2209 C2203 1.429 . S
C2209 C2210 1.523 . S
C2210 C2191 1.368 . S
C2210 C2204 1.368 . S
C2210 C2209 1.523 . S
C2211 C2195 1.429 . S
C2211 C2207 1.429 . S
C2211 C2212 1.523 . S
C2212 C2196 1.368 . S
C2212 C2208 1.368 . S
C2212 C2211 1.523 . S
H2213 C2188 0.950 . S
H2214 C2190 0.950 . S
H2215 C2191 0.949 . S
H2216 C2193 0.950 . S
H2217 C2195 0.950 . S
C2218 C2219 1.349 1_455 S
C2218 C2220 1.327 . S
C2218 H2243 0.950 1_455 S
C2219 C2218 1.349 1_655 S
C2219 C2235 1.349 1_655 S
C2220 C2218 1.327 . S
C2220 C2239 1.429 . S
C2220 H2244 0.950 . S
C2221 C2238 1.574 . S
C2221 C2240 1.368 . S
C2221 H2245 0.949 . S
H2222 C2226 0.949 . S
C2223 C2224 1.349 . S
C2223 C2225 1.327 . S
C2223 H2246 0.950 . S
C2224 C2223 1.349 . S
C2224 C2236 1.349 . S
C2225 C2223 1.327 . S
C2225 C2241 1.429 . S
C2225 H2247 0.950 . S
C2226 H2222 0.949 . S
C2226 C2234 1.574 . S
C2226 C2242 1.368 . S
H2227 C2235 0.950 1_655 S
H2228 C2233 0.950 . S
H2229 C2234 0.949 . S
H2230 C2236 0.950 . S
H2231 C2237 0.950 . S
H2232 C2238 0.949 . S
C2233 H2228 0.950 . S
C2233 C2235 1.327 . S
C2233 C2239 1.429 . S
C2234 C2226 1.574 . S
C2234 H2229 0.949 . S
C2234 C2240 1.368 . S
C2235 C2219 1.349 1_455 S
C2235 H2227 0.950 1_455 S
C2235 C2233 1.327 . S
C2236 C2224 1.349 . S
C2236 H2230 0.950 . S
C2236 C2237 1.327 . S
C2237 H2231 0.950 . S
C2237 C2236 1.327 . S
C2237 C2241 1.429 . S
C2238 C2221 1.574 . S
C2238 H2232 0.949 . S
C2238 C2242 1.368 . S
C2239 C2220 1.429 . S
C2239 C2233 1.429 . S
C2239 C2240 1.523 . S
C2240 C2221 1.368 . S
C2240 C2234 1.368 . S
C2240 C2239 1.523 . S
C2241 C2225 1.429 . S
C2241 C2237 1.429 . S
C2241 C2242 1.523 . S
C2242 C2226 1.368 . S
C2242 C2238 1.368 . S
C2242 C2241 1.523 . S
H2243 C2218 0.950 1_655 S
H2244 C2220 0.950 . S
H2245 C2221 0.949 . S
H2246 C2223 0.950 . S
H2247 C2225 0.950 . S
C2248 C2249 1.349 . S
C2248 C2250 1.327 . S
C2248 H2273 0.950 . S
C2249 C2248 1.349 . S
C2249 C2265 1.349 . S
C2250 C2248 1.327 . S
C2250 C2269 1.429 . S
C2250 H2274 0.950 . S
C2251 C2268 1.574 . S
C2251 C2270 1.368 . S
C2251 H2275 0.949 . S
H2252 C2256 0.949 . S
C2253 C2254 1.349 . S
C2253 C2255 1.327 . S
C2253 H2276 0.950 . S
C2254 C2253 1.349 . S
C2254 C2266 1.349 . S
C2255 C2253 1.327 . S
C2255 C2271 1.429 . S
C2255 H2277 0.950 . S
C2256 H2252 0.949 . S
C2256 C2264 1.574 . S
C2256 C2272 1.368 . S
H2257 C2265 0.950 . S
H2258 C2263 0.950 . S
H2259 C2264 0.949 . S
H2260 C2266 0.950 . S
H2261 C2267 0.950 . S
H2262 C2268 0.949 . S
C2263 H2258 0.950 . S
C2263 C2265 1.327 . S
C2263 C2269 1.429 . S
C2264 C2256 1.574 . S
C2264 H2259 0.949 . S
C2264 C2270 1.368 . S
C2265 C2249 1.349 . S
C2265 H2257 0.950 . S
C2265 C2263 1.327 . S
C2266 C2254 1.349 . S
C2266 H2260 0.950 . S
C2266 C2267 1.327 . S
C2267 H2261 0.950 . S
C2267 C2266 1.327 . S
C2267 C2271 1.429 . S
C2268 C2251 1.574 . S
C2268 H2262 0.949 . S
C2268 C2272 1.368 . S
C2269 C2250 1.429 . S
C2269 C2263 1.429 . S
C2269 C2270 1.523 . S
C2270 C2251 1.368 . S
C2270 C2264 1.368 . S
C2270 C2269 1.523 . S
C2271 C2255 1.429 . S
C2271 C2267 1.429 . S
C2271 C2272 1.523 . S
C2272 C2256 1.368 . S
C2272 C2268 1.368 . S
C2272 C2271 1.523 . S
H2273 C2248 0.950 . S
H2274 C2250 0.950 . S
H2275 C2251 0.949 . S
H2276 C2253 0.950 . S
H2277 C2255 0.950 . S
C2278 C2279 1.349 . S
C2278 C2280 1.327 . S
C2278 H2303 0.950 . S
C2279 C2278 1.349 . S
C2279 C2295 1.349 . S
C2280 C2278 1.327 . S
C2280 C2299 1.429 . S
C2280 H2304 0.950 . S
C2281 C2298 1.574 . S
C2281 C2300 1.368 . S
C2281 H2305 0.949 . S
H2282 C2286 0.949 . S
C2283 C2284 1.349 1_455 S
C2283 C2285 1.327 . S
C2283 H2306 0.950 . S
C2284 C2283 1.349 1_655 S
C2284 C2296 1.349 . S
C2285 C2283 1.327 . S
C2285 C2301 1.429 . S
C2285 H2307 0.950 . S
C2286 H2282 0.949 . S
C2286 C2294 1.574 . S
C2286 C2302 1.368 . S
H2287 C2295 0.950 . S
H2288 C2293 0.950 . S
H2289 C2294 0.949 . S
H2290 C2296 0.950 . S
H2291 C2297 0.950 . S
H2292 C2298 0.949 . S
C2293 H2288 0.950 . S
C2293 C2295 1.327 . S
C2293 C2299 1.429 . S
C2294 C2286 1.574 . S
C2294 H2289 0.949 . S
C2294 C2300 1.368 . S
C2295 C2279 1.349 . S
C2295 H2287 0.950 . S
C2295 C2293 1.327 . S
C2296 C2284 1.349 . S
C2296 H2290 0.950 . S
C2296 C2297 1.327 1_655 S
C2297 H2291 0.950 . S
C2297 C2296 1.327 1_455 S
C2297 C2301 1.429 . S
C2298 C2281 1.574 . S
C2298 H2292 0.949 . S
C2298 C2302 1.368 . S
C2299 C2280 1.429 . S
C2299 C2293 1.429 . S
C2299 C2300 1.523 . S
C2300 C2281 1.368 . S
C2300 C2294 1.368 . S
C2300 C2299 1.523 . S
C2301 C2285 1.429 . S
C2301 C2297 1.429 . S
C2301 C2302 1.523 . S
C2302 C2286 1.368 . S
C2302 C2298 1.368 . S
C2302 C2301 1.523 . S
H2303 C2278 0.950 . S
H2304 C2280 0.950 . S
H2305 C2281 0.949 . S
H2306 C2283 0.950 . S
H2307 C2285 0.950 . S
C2308 C2309 1.349 . S
C2308 C2310 1.327 . S
C2308 H2333 0.950 . S
C2309 C2308 1.349 . S
C2309 C2325 1.349 . S
C2310 C2308 1.327 . S
C2310 C2329 1.429 . S
C2310 H2334 0.950 . S
C2311 C2328 1.574 . S
C2311 C2330 1.368 . S
C2311 H2335 0.949 . S
H2312 C2316 0.949 . S
C2313 C2314 1.349 . S
C2313 C2315 1.327 . S
C2313 H2336 0.950 . S
C2314 C2313 1.349 . S
C2314 C2326 1.349 . S
C2315 C2313 1.327 . S
C2315 C2331 1.429 . S
C2315 H2337 0.950 . S
C2316 H2312 0.949 . S
C2316 C2324 1.574 . S
C2316 C2332 1.368 . S
H2317 C2325 0.950 . S
H2318 C2323 0.950 . S
H2319 C2324 0.949 . S
H2320 C2326 0.950 . S
H2321 C2327 0.950 . S
H2322 C2328 0.949 . S
C2323 H2318 0.950 . S
C2323 C2325 1.327 . S
C2323 C2329 1.429 . S
C2324 C2316 1.574 . S
C2324 H2319 0.949 . S
C2324 C2330 1.368 . S
C2325 C2309 1.349 . S
C2325 H2317 0.950 . S
C2325 C2323 1.327 . S
C2326 C2314 1.349 . S
C2326 H2320 0.950 . S
C2326 C2327 1.327 . S
C2327 H2321 0.950 . S
C2327 C2326 1.327 . S
C2327 C2331 1.429 . S
C2328 C2311 1.574 . S
C2328 H2322 0.949 . S
C2328 C2332 1.368 . S
C2329 C2310 1.429 . S
C2329 C2323 1.429 . S
C2329 C2330 1.523 . S
C2330 C2311 1.368 . S
C2330 C2324 1.368 . S
C2330 C2329 1.523 . S
C2331 C2315 1.429 . S
C2331 C2327 1.429 . S
C2331 C2332 1.523 . S
C2332 C2316 1.368 . S
C2332 C2328 1.368 . S
C2332 C2331 1.523 . S
H2333 C2308 0.950 . S
H2334 C2310 0.950 . S
H2335 C2311 0.949 . S
H2336 C2313 0.950 . S
H2337 C2315 0.950 . S
C2338 C2339 1.349 . S
C2338 C2340 1.327 . S
C2338 H2363 0.950 . S
C2339 C2338 1.349 . S
C2339 C2355 1.349 . S
C2340 C2338 1.327 . S
C2340 C2359 1.429 . S
C2340 H2364 0.950 . S
C2341 C2358 1.574 . S
C2341 C2360 1.368 . S
C2341 H2365 0.949 . S
H2342 C2346 0.949 . S
C2343 C2344 1.349 . S
C2343 C2345 1.327 . S
C2343 H2366 0.950 . S
C2344 C2343 1.349 . S
C2344 C2356 1.349 . S
C2345 C2343 1.327 . S
C2345 C2361 1.429 . S
C2345 H2367 0.950 . S
C2346 H2342 0.949 . S
C2346 C2354 1.574 . S
C2346 C2362 1.368 . S
H2347 C2355 0.950 . S
H2348 C2353 0.950 . S
H2349 C2354 0.949 . S
H2350 C2356 0.950 . S
H2351 C2357 0.950 . S
H2352 C2358 0.949 . S
C2353 H2348 0.950 . S
C2353 C2355 1.327 . S
C2353 C2359 1.429 . S
C2354 C2346 1.574 . S
C2354 H2349 0.949 . S
C2354 C2360 1.368 . S
C2355 C2339 1.349 . S
C2355 H2347 0.950 . S
C2355 C2353 1.327 . S
C2356 C2344 1.349 . S
C2356 H2350 0.950 . S
C2356 C2357 1.327 . S
C2357 H2351 0.950 . S
C2357 C2356 1.327 . S
C2357 C2361 1.429 . S
C2358 C2341 1.574 . S
C2358 H2352 0.949 . S
C2358 C2362 1.368 . S
C2359 C2340 1.429 . S
C2359 C2353 1.429 . S
C2359 C2360 1.523 . S
C2360 C2341 1.368 . S
C2360 C2354 1.368 . S
C2360 C2359 1.523 . S
C2361 C2345 1.429 . S
C2361 C2357 1.429 . S
C2361 C2362 1.523 . S
C2362 C2346 1.368 . S
C2362 C2358 1.368 . S
C2362 C2361 1.523 . S
H2363 C2338 0.950 . S
H2364 C2340 0.950 . S
H2365 C2341 0.949 . S
H2366 C2343 0.950 . S
H2367 C2345 0.950 . S
C449 C62 1.522 . S
C454 C6 1.522 . S
C479 C76 1.522 . S
C484 C20 1.522 . S
C509 C90 1.522 . S
C514 C34 1.522 . S
C539 C48 1.522 . S
C544 C104 1.522 . S
C569 C118 1.522 . S
C574 C174 1.522 . S
C599 C188 1.522 . S
C604 C132 1.522 . S
C629 C146 1.522 . S
C634 C202 1.522 . S
C659 C216 1.522 . S
C664 C160 1.522 . S
C689 C230 1.522 . S
C694 C286 1.522 . S
C719 C300 1.522 . S
C724 C244 1.522 . S
C749 C314 1.522 . S
C754 C258 1.522 . S
C779 C328 1.522 . S
C784 C272 1.522 . S
C809 C342 1.522 . S
C814 C398 1.522 . S
C839 C356 1.522 . S
C844 C412 1.522 . S
C869 C370 1.522 . S
C874 C426 1.522 . S
C899 C384 1.522 . S
C904 C440 1.522 . S
C929 C8 1.798 . S
C934 C106 1.798 . S
C959 C22 1.798 . S
C964 C64 1.798 . S
C989 C36 1.798 . S
C994 C78 1.798 . S
C1019 C92 1.798 . S
C1024 C50 1.798 . S
C1049 C218 1.798 . S
C1054 C120 1.798 . S
C1079 C176 1.798 . S
C1084 C134 1.798 . S
C1109 C190 1.798 . S
C1114 C148 1.798 . S
C1139 C162 1.798 . S
C1144 C204 1.798 . S
C1169 C330 1.798 . S
C1174 C232 1.798 . S
C1199 C288 1.798 . S
C1204 C246 1.798 . S
C1229 C302 1.798 . S
C1234 C260 1.798 . S
C1259 C274 1.798 . S
C1264 C316 1.798 . S
C1289 C344 1.798 . S
C1294 C442 1.798 . S
C1319 C358 1.798 . S
C1324 C400 1.798 . S
C1349 C372 1.798 . S
C1354 C414 1.798 . S
C1379 C428 1.798 . S
C1384 C386 1.798 . S
C1409 C9 1.397 . S
C1414 C357 1.391 . S
C1439 C23 1.397 . S
C1444 C147 1.391 . S
C1469 C37 1.397 . S
C1474 C385 1.391 . S
C1499 C119 1.391 . S
C1504 C51 1.397 . S
C1529 C441 1.391 . S
C1534 C65 1.397 . S
C1559 C79 1.397 . S
C1564 C175 1.391 . S
C1589 C93 1.397 . S
C1594 C413 1.391 . S
C1619 C107 1.397 . S
C1624 C203 1.391 . S
C1649 C245 1.391 . S
C1654 C121 1.397 . S
C1679 C35 1.391 . S
C1684 C135 1.397 . S
C1709 C273 1.391 . S
C1714 C149 1.397 . S
C1739 C163 1.397 . S
C1744 C7 1.391 . S
C1769 C329 1.391 . S
C1774 C177 1.397 . S
C1799 C63 1.391 . S
C1804 C191 1.397 . S
C1829 C301 1.391 . S
C1834 C205 1.397 . S
C1859 C91 1.391 . S
C1864 C219 1.397 . S
C1889 C133 1.391 . S
C1894 C233 1.397 . S
C1919 C247 1.397 . S
C1924 C371 1.391 . S
C1949 C261 1.397 . S
C1954 C161 1.391 . S
C1979 C275 1.397 . S
C1984 C343 1.391 . S
C2009 C289 1.397 . S
C2014 C217 1.391 . S
C2039 C399 1.391 . S
C2044 C303 1.397 . S
C2069 C317 1.397 . S
C2074 C189 1.391 . S
C2099 C331 1.397 . S
C2104 C427 1.391 . S
C2129 C345 1.397 . S
C2134 C21 1.391 . S
C2159 C359 1.397 . S
C2164 C259 1.391 . S
C2189 C49 1.391 . S
C2194 C373 1.397 . S
C2219 C231 1.391 . S
C2224 C387 1.397 . S
C2249 C401 1.397 . S
C2254 C105 1.391 . S
C2279 C415 1.397 . S
C2284 C287 1.391 . S
C2309 C77 1.391 . S
C2314 C429 1.397 . S
C2339 C315 1.391 . S
C2344 C443 1.397 . S
