# Generated by pormake.
# Topology zni, (4)-cn, num edge types: 1
# Building blocks:
#     Node 0, Type 0, BuildingBlock: NAHDIM_clean_sbu_0, # of connection points: 4
#     Node 1, Type 0, BuildingBlock: NAHDIM_clean_sbu_0, # of connection points: 4
#     Node 2, Type 0, BuildingBlock: NAHDIM_clean_sbu_0, # of connection points: 4
#     Node 3, Type 0, BuildingBlock: NAHDIM_clean_sbu_0, # of connection points: 4
#     Node 4, Type 0, BuildingBlock: NAHDIM_clean_sbu_0, # of connection points: 4
#     Node 5, Type 0, BuildingBlock: NAHDIM_clean_sbu_0, # of connection points: 4
#     Node 6, Type 0, BuildingBlock: NAHDIM_clean_sbu_0, # of connection points: 4
#     Node 7, Type 0, BuildingBlock: NAHDIM_clean_sbu_0, # of connection points: 4
#     Node 8, Type 0, BuildingBlock: NAHDIM_clean_sbu_0, # of connection points: 4
#     Node 9, Type 0, BuildingBlock: NAHDIM_clean_sbu_0, # of connection points: 4
#     Node 10, Type 0, BuildingBlock: NAHDIM_clean_sbu_0, # of connection points: 4
#     Node 11, Type 0, BuildingBlock: NAHDIM_clean_sbu_0, # of connection points: 4
#     Node 12, Type 0, BuildingBlock: NAHDIM_clean_sbu_0, # of connection points: 4
#     Node 13, Type 0, BuildingBlock: NAHDIM_clean_sbu_0, # of connection points: 4
#     Node 14, Type 0, BuildingBlock: NAHDIM_clean_sbu_0, # of connection points: 4
#     Node 15, Type 0, BuildingBlock: NAHDIM_clean_sbu_0, # of connection points: 4
#     Node 16, Type 0, BuildingBlock: NAHDIM_clean_sbu_0, # of connection points: 4
#     Node 17, Type 0, BuildingBlock: NAHDIM_clean_sbu_0, # of connection points: 4
#     Node 18, Type 0, BuildingBlock: NAHDIM_clean_sbu_0, # of connection points: 4
#     Node 19, Type 0, BuildingBlock: NAHDIM_clean_sbu_0, # of connection points: 4
#     Node 20, Type 0, BuildingBlock: NAHDIM_clean_sbu_0, # of connection points: 4
#     Node 21, Type 0, BuildingBlock: NAHDIM_clean_sbu_0, # of connection points: 4
#     Node 22, Type 0, BuildingBlock: NAHDIM_clean_sbu_0, # of connection points: 4
#     Node 23, Type 0, BuildingBlock: NAHDIM_clean_sbu_0, # of connection points: 4
#     Node 24, Type 0, BuildingBlock: NAHDIM_clean_sbu_0, # of connection points: 4
#     Node 25, Type 0, BuildingBlock: NAHDIM_clean_sbu_0, # of connection points: 4
#     Node 26, Type 0, BuildingBlock: NAHDIM_clean_sbu_0, # of connection points: 4
#     Node 27, Type 0, BuildingBlock: NAHDIM_clean_sbu_0, # of connection points: 4
#     Node 28, Type 0, BuildingBlock: NAHDIM_clean_sbu_0, # of connection points: 4
#     Node 29, Type 0, BuildingBlock: NAHDIM_clean_sbu_0, # of connection points: 4
#     Node 30, Type 0, BuildingBlock: NAHDIM_clean_sbu_0, # of connection points: 4
#     Node 31, Type 0, BuildingBlock: NAHDIM_clean_sbu_0, # of connection points: 4
#     Edge 32, Type (0, 0), BuildingBlock: AJUNOK_clean_linker_0, # of connection points: 2
#     Edge 33, Type (0, 0), BuildingBlock: AJUNOK_clean_linker_0, # of connection points: 2
#     Edge 34, Type (0, 0), BuildingBlock: AJUNOK_clean_linker_0, # of connection points: 2
#     Edge 35, Type (0, 0), BuildingBlock: AJUNOK_clean_linker_0, # of connection points: 2
#     Edge 36, Type (0, 0), BuildingBlock: AJUNOK_clean_linker_0, # of connection points: 2
#     Edge 37, Type (0, 0), BuildingBlock: AJUNOK_clean_linker_0, # of connection points: 2
#     Edge 38, Type (0, 0), BuildingBlock: AJUNOK_clean_linker_0, # of connection points: 2
#     Edge 39, Type (0, 0), BuildingBlock: AJUNOK_clean_linker_0, # of connection points: 2
#     Edge 40, Type (0, 0), BuildingBlock: AJUNOK_clean_linker_0, # of connection points: 2
#     Edge 41, Type (0, 0), BuildingBlock: AJUNOK_clean_linker_0, # of connection points: 2
#     Edge 42, Type (0, 0), BuildingBlock: AJUNOK_clean_linker_0, # of connection points: 2
#     Edge 43, Type (0, 0), BuildingBlock: AJUNOK_clean_linker_0, # of connection points: 2
#     Edge 44, Type (0, 0), BuildingBlock: AJUNOK_clean_linker_0, # of connection points: 2
#     Edge 45, Type (0, 0), BuildingBlock: AJUNOK_clean_linker_0, # of connection points: 2
#     Edge 46, Type (0, 0), BuildingBlock: AJUNOK_clean_linker_0, # of connection points: 2
#     Edge 47, Type (0, 0), BuildingBlock: AJUNOK_clean_linker_0, # of connection points: 2
#     Edge 48, Type (0, 0), BuildingBlock: AJUNOK_clean_linker_0, # of connection points: 2
#     Edge 49, Type (0, 0), BuildingBlock: AJUNOK_clean_linker_0, # of connection points: 2
#     Edge 50, Type (0, 0), BuildingBlock: AJUNOK_clean_linker_0, # of connection points: 2
#     Edge 51, Type (0, 0), BuildingBlock: AJUNOK_clean_linker_0, # of connection points: 2
#     Edge 52, Type (0, 0), BuildingBlock: AJUNOK_clean_linker_0, # of connection points: 2
#     Edge 53, Type (0, 0), BuildingBlock: AJUNOK_clean_linker_0, # of connection points: 2
#     Edge 54, Type (0, 0), BuildingBlock: AJUNOK_clean_linker_0, # of connection points: 2
#     Edge 55, Type (0, 0), BuildingBlock: AJUNOK_clean_linker_0, # of connection points: 2
#     Edge 56, Type (0, 0), BuildingBlock: AJUNOK_clean_linker_0, # of connection points: 2
#     Edge 57, Type (0, 0), BuildingBlock: AJUNOK_clean_linker_0, # of connection points: 2
#     Edge 58, Type (0, 0), BuildingBlock: AJUNOK_clean_linker_0, # of connection points: 2
#     Edge 59, Type (0, 0), BuildingBlock: AJUNOK_clean_linker_0, # of connection points: 2
#     Edge 60, Type (0, 0), BuildingBlock: AJUNOK_clean_linker_0, # of connection points: 2
#     Edge 61, Type (0, 0), BuildingBlock: AJUNOK_clean_linker_0, # of connection points: 2
#     Edge 62, Type (0, 0), BuildingBlock: AJUNOK_clean_linker_0, # of connection points: 2
#     Edge 63, Type (0, 0), BuildingBlock: AJUNOK_clean_linker_0, # of connection points: 2
#     Edge 64, Type (0, 0), BuildingBlock: AJUNOK_clean_linker_0, # of connection points: 2
#     Edge 65, Type (0, 0), BuildingBlock: AJUNOK_clean_linker_0, # of connection points: 2
#     Edge 66, Type (0, 0), BuildingBlock: AJUNOK_clean_linker_0, # of connection points: 2
#     Edge 67, Type (0, 0), BuildingBlock: AJUNOK_clean_linker_0, # of connection points: 2
#     Edge 68, Type (0, 0), BuildingBlock: AJUNOK_clean_linker_0, # of connection points: 2
#     Edge 69, Type (0, 0), BuildingBlock: AJUNOK_clean_linker_0, # of connection points: 2
#     Edge 70, Type (0, 0), BuildingBlock: AJUNOK_clean_linker_0, # of connection points: 2
#     Edge 71, Type (0, 0), BuildingBlock: AJUNOK_clean_linker_0, # of connection points: 2
#     Edge 72, Type (0, 0), BuildingBlock: AJUNOK_clean_linker_0, # of connection points: 2
#     Edge 73, Type (0, 0), BuildingBlock: AJUNOK_clean_linker_0, # of connection points: 2
#     Edge 74, Type (0, 0), BuildingBlock: AJUNOK_clean_linker_0, # of connection points: 2
#     Edge 75, Type (0, 0), BuildingBlock: AJUNOK_clean_linker_0, # of connection points: 2
#     Edge 76, Type (0, 0), BuildingBlock: AJUNOK_clean_linker_0, # of connection points: 2
#     Edge 77, Type (0, 0), BuildingBlock: AJUNOK_clean_linker_0, # of connection points: 2
#     Edge 78, Type (0, 0), BuildingBlock: AJUNOK_clean_linker_0, # of connection points: 2
#     Edge 79, Type (0, 0), BuildingBlock: AJUNOK_clean_linker_0, # of connection points: 2
#     Edge 80, Type (0, 0), BuildingBlock: AJUNOK_clean_linker_0, # of connection points: 2
#     Edge 81, Type (0, 0), BuildingBlock: AJUNOK_clean_linker_0, # of connection points: 2
#     Edge 82, Type (0, 0), BuildingBlock: AJUNOK_clean_linker_0, # of connection points: 2
#     Edge 83, Type (0, 0), BuildingBlock: AJUNOK_clean_linker_0, # of connection points: 2
#     Edge 84, Type (0, 0), BuildingBlock: AJUNOK_clean_linker_0, # of connection points: 2
#     Edge 85, Type (0, 0), BuildingBlock: AJUNOK_clean_linker_0, # of connection points: 2
#     Edge 86, Type (0, 0), BuildingBlock: AJUNOK_clean_linker_0, # of connection points: 2
#     Edge 87, Type (0, 0), BuildingBlock: AJUNOK_clean_linker_0, # of connection points: 2
#     Edge 88, Type (0, 0), BuildingBlock: AJUNOK_clean_linker_0, # of connection points: 2
#     Edge 89, Type (0, 0), BuildingBlock: AJUNOK_clean_linker_0, # of connection points: 2
#     Edge 90, Type (0, 0), BuildingBlock: AJUNOK_clean_linker_0, # of connection points: 2
#     Edge 91, Type (0, 0), BuildingBlock: AJUNOK_clean_linker_0, # of connection points: 2
#     Edge 92, Type (0, 0), BuildingBlock: AJUNOK_clean_linker_0, # of connection points: 2
#     Edge 93, Type (0, 0), BuildingBlock: AJUNOK_clean_linker_0, # of connection points: 2
#     Edge 94, Type (0, 0), BuildingBlock: AJUNOK_clean_linker_0, # of connection points: 2
#     Edge 95, Type (0, 0), BuildingBlock: AJUNOK_clean_linker_0, # of connection points: 2
# Relax obj value: 0.184
# Max RMSD: 0.102
# Mean RMSD: 0.102
data_MOF--net-zni--node1-NAHDIM_clean_sbu_0--edge1-AJUNOK_clean_linker_0
_symmetry_space_group_name_H-M    P1
_symmetry_Int_Tables_number       1
_symmetry_cell_setting            triclinic
loop_
_symmetry_equiv_pos_as_xyz
'x, y, z'
_cell_length_a     40.856411
_cell_length_b     40.827436
_cell_length_c     23.352757
_cell_angle_alpha  90.005586
_cell_angle_beta   89.981842
_cell_angle_gamma 90.005627
loop_
_atom_site_label
_atom_site_type_symbol
_atom_site_fract_x
_atom_site_fract_y
_atom_site_fract_z
_atom_type_partial_charge
C0 C 0.1683 0.05402 0.32165 0.0
O1 O 0.16889 0.04422 0.37521 0.0
O2 O 0.15864 0.10808 0.44848 0.0
Zn3 Zn 0.13814 0.11208 0.37019 0.0
O4 O 0.09033 0.10018 0.3743 0.0
C5 C 0.16282 0.17847 0.3625 0.0
O6 O 0.18656 0.16664 0.39428 0.0
O7 O 0.15824 0.08276 0.31054 0.0
C8 C 0.07072 0.11472 0.40804 0.0
O9 O 0.08227 0.13743 0.44239 0.0
C10 C 0.14826 0.08788 0.48565 0.0
O11 O 0.12512 0.06713 0.47111 0.0
O12 O 0.1403 0.15928 0.34566 0.0
C13 C 0.20338 0.90596 0.58744 0.0
O14 O 0.21416 0.89902 0.63903 0.0
O15 O 0.14594 0.89638 0.71181 0.0
Zn16 Zn 0.14376 0.87769 0.63185 0.0
O17 O 0.15599 0.82991 0.63236 0.0
C18 C 0.07731 0.90212 0.62162 0.0
O19 O 0.08831 0.92549 0.65518 0.0
O20 O 0.1735 0.90048 0.57581 0.0
C21 C 0.13894 0.80948 0.6606 0.0
O22 O 0.1142 0.82038 0.69108 0.0
C23 C 0.1631 0.88394 0.75164 0.0
O24 O 0.18229 0.85903 0.73975 0.0
O25 O 0.09696 0.87995 0.60501 0.0
C26 C 0.34055 0.94706 0.83725 0.0
O27 O 0.34381 0.95811 0.88977 0.0
O28 O 0.35015 0.89356 0.96534 0.0
Zn29 Zn 0.36936 0.88862 0.88603 0.0
O30 O 0.41696 0.90126 0.88738 0.0
C31 C 0.34794 0.82034 0.88294 0.0
O32 O 0.32629 0.83017 0.92084 0.0
O33 O 0.34795 0.91742 0.82687 0.0
C34 C 0.43766 0.88441 0.91523 0.0
O35 O 0.42732 0.859 0.94467 0.0
C36 C 0.36193 0.91371 0.0014 0.0
O37 O 0.38588 0.93309 0.98528 0.0
O38 O 0.36765 0.84116 0.86178 0.0
C39 C 0.28714 0.10637 0.08933 0.0
O40 O 0.27535 0.11433 0.13979 0.0
O41 O 0.34607 0.10619 0.21642 0.0
Zn42 Zn 0.34959 0.12667 0.13807 0.0
O43 O 0.34479 0.17574 0.14355 0.0
C44 C 0.41348 0.09571 0.12116 0.0
O45 O 0.40201 0.07263 0.15481 0.0
O46 O 0.3177 0.10889 0.08059 0.0
C47 C 0.36869 0.19067 0.16662 0.0
O48 O 0.39245 0.17331 0.18932 0.0
C49 C 0.32882 0.11867 0.25614 0.0
O50 O 0.31087 0.14454 0.24466 0.0
O51 O 0.39508 0.11959 0.10788 0.0
C52 C 0.15791 0.95537 0.145 0.0
O53 O 0.14949 0.96337 0.09258 0.0
O54 O 0.14625 0.89477 0.02905 0.0
Zn55 Zn 0.12952 0.89416 0.11055 0.0
O56 O 0.08167 0.90609 0.11234 0.0
C57 C 0.1529 0.8273 0.12276 0.0
O58 O 0.17366 0.83615 0.08265 0.0
O59 O 0.15325 0.92608 0.16156 0.0
C60 C 0.06044 0.88648 0.09226 0.0
O61 O 0.07042 0.85907 0.06847 0.0
C62 C 0.13292 0.91199 0.99014 0.0
O63 O 0.10822 0.93104 0.0038 0.0
O64 O 0.13283 0.84834 0.14206 0.0
C65 C 0.29853 0.91413 0.4041 0.0
O66 O 0.28918 0.91132 0.35058 0.0
O67 O 0.35433 0.90372 0.27912 0.0
Zn68 Zn 0.3592 0.88665 0.36007 0.0
O69 O 0.35124 0.83768 0.36459 0.0
C70 C 0.42726 0.87982 0.35186 0.0
O71 O 0.4172 0.86546 0.30479 0.0
O72 O 0.328 0.90725 0.41687 0.0
C73 C 0.35597 0.8164 0.32563 0.0
O74 O 0.36555 0.82599 0.27466 0.0
C75 C 0.3337 0.89347 0.2425 0.0
O76 O 0.31212 0.8713 0.25791 0.0
O77 O 0.40631 0.89339 0.3844 0.0
C78 C 0.34312 0.04239 0.65398 0.0
O79 O 0.35292 0.03324 0.60287 0.0
O80 O 0.34796 0.10184 0.53293 0.0
Zn81 Zn 0.36757 0.1032 0.61229 0.0
O82 O 0.41524 0.09022 0.61063 0.0
C83 C 0.34238 0.16901 0.62521 0.0
O84 O 0.31839 0.1573 0.59388 0.0
O85 O 0.34514 0.07252 0.66724 0.0
C86 C 0.43672 0.10771 0.58586 0.0
O87 O 0.42728 0.13426 0.55866 0.0
C88 C 0.36008 0.08549 0.49178 0.0
O89 O 0.38566 0.06681 0.50154 0.0
O90 O 0.3654 0.14989 0.6402 0.0
C91 C 0.19896 0.09764 0.89542 0.0
O92 O 0.21085 0.10233 0.84381 0.0
O93 O 0.14985 0.09953 0.76275 0.0
Zn94 Zn 0.13905 0.11774 0.84079 0.0
O95 O 0.14284 0.1669 0.84039 0.0
C96 C 0.07167 0.11569 0.81913 0.0
O97 O 0.08304 0.12894 0.77184 0.0
O98 O 0.1684 0.10101 0.90342 0.0
C99 C 0.13816 0.18108 0.88812 0.0
O100 O 0.13177 0.16295 0.93327 0.0
C101 C 0.16754 0.11486 0.72685 0.0
O102 O 0.18154 0.14238 0.74264 0.0
O103 O 0.0919 0.10744 0.85784 0.0
C104 C 0.84597 0.95874 0.6696 0.0
O105 O 0.85281 0.96931 0.61783 0.0
O106 O 0.84901 0.90026 0.54431 0.0
Zn107 Zn 0.86939 0.8975 0.62302 0.0
O108 O 0.91758 0.90755 0.61829 0.0
C109 C 0.84623 0.83022 0.63047 0.0
O110 O 0.82533 0.83984 0.59117 0.0
O111 O 0.84953 0.92847 0.68053 0.0
C112 C 0.93645 0.88835 0.59096 0.0
O113 O 0.92361 0.86309 0.56433 0.0
C114 C 0.86145 0.91718 0.50415 0.0
O115 O 0.88702 0.93563 0.51535 0.0
O116 O 0.86616 0.85095 0.65125 0.0
C117 C 0.80356 0.08569 0.41752 0.0
O118 O 0.79473 0.08777 0.36359 0.0
O119 O 0.85877 0.0999 0.294 0.0
Zn120 Zn 0.86284 0.11644 0.37538 0.0
O121 O 0.85224 0.1645 0.37679 0.0
C122 C 0.93072 0.09479 0.37593 0.0
O123 O 0.92101 0.07615 0.33333 0.0
O124 O 0.83229 0.0946 0.43143 0.0
C125 C 0.87026 0.18449 0.34951 0.0
O126 O 0.89491 0.17293 0.31958 0.0
C127 C 0.83957 0.11321 0.258 0.0
O128 O 0.82001 0.13671 0.27546 0.0
O129 O 0.90981 0.11269 0.40131 0.0
C130 C 0.64895 0.05207 0.16506 0.0
O131 O 0.64923 0.0388 0.11381 0.0
O132 O 0.64189 0.10261 0.02957 0.0
Zn133 Zn 0.62035 0.10803 0.10679 0.0
O134 O 0.57326 0.0942 0.10307 0.0
C135 C 0.64481 0.17443 0.11883 0.0
O136 O 0.67131 0.16202 0.09551 0.0
O137 O 0.64031 0.08178 0.17036 0.0
C138 C 0.55243 0.11077 0.07504 0.0
O139 O 0.5625 0.13639 0.04586 0.0
C140 C 0.63151 0.08233 0.99245 0.0
O141 O 0.6077 0.06226 0.00655 0.0
O142 O 0.62053 0.15575 0.12821 0.0
C143 C 0.70242 0.90565 0.91781 0.0
O144 O 0.71324 0.89985 0.86581 0.0
O145 O 0.64625 0.89669 0.79306 0.0
Zn146 Zn 0.6435 0.87704 0.87211 0.0
O147 O 0.65605 0.82929 0.87025 0.0
C148 C 0.57784 0.90266 0.88318 0.0
O149 O 0.59004 0.92694 0.85309 0.0
O150 O 0.67269 0.89937 0.92932 0.0
C151 C 0.6381 0.80863 0.84442 0.0
O152 O 0.61199 0.81918 0.81724 0.0
C153 C 0.66394 0.88478 0.75346 0.0
O154 O 0.68309 0.85982 0.76519 0.0
O155 O 0.59657 0.87927 0.89783 0.0
C156 C 0.84517 0.05418 0.85333 0.0
O157 O 0.85327 0.04461 0.90511 0.0
O158 O 0.85017 0.11163 0.97737 0.0
Zn159 Zn 0.86759 0.11629 0.89671 0.0
O160 O 0.91625 0.10869 0.89567 0.0
C161 C 0.84537 0.18455 0.8953 0.0
O162 O 0.82882 0.17628 0.94132 0.0
O163 O 0.84752 0.08439 0.8409 0.0
C164 C 0.93005 0.11175 0.8472 0.0
O165 O 0.91176 0.11845 0.80242 0.0
C166 C 0.86524 0.09502 0.01511 0.0
O167 O 0.89181 0.07902 0.00021 0.0
O168 O 0.86182 0.16277 0.86917 0.0
C169 C 0.70411 0.08793 0.5939 0.0
O170 O 0.71288 0.09621 0.64605 0.0
O171 O 0.64475 0.095 0.71397 0.0
Zn172 Zn 0.64254 0.11321 0.63352 0.0
O173 O 0.65309 0.16151 0.6338 0.0
C174 C 0.57631 0.0876 0.62371 0.0
O175 O 0.58717 0.06548 0.65987 0.0
O176 O 0.67431 0.09137 0.57945 0.0
C177 C 0.63394 0.18175 0.65808 0.0
O178 O 0.60801 0.17042 0.68483 0.0
C179 C 0.66138 0.10841 0.75354 0.0
O180 O 0.67942 0.13409 0.74112 0.0
O181 O 0.59603 0.10923 0.60514 0.0
C182 C 0.64208 0.95955 0.35285 0.0
O183 O 0.6235 0.96574 0.39744 0.0
O184 O 0.6497 0.8975 0.47608 0.0
Zn185 Zn 0.63242 0.89515 0.3952 0.0
O186 O 0.58317 0.89992 0.39538 0.0
C187 C 0.6632 0.83084 0.38104 0.0
O188 O 0.6829 0.84072 0.42197 0.0
O189 O 0.65094 0.93017 0.34393 0.0
C190 C 0.56599 0.87446 0.40414 0.0
O191 O 0.58073 0.8468 0.41677 0.0
C192 C 0.63496 0.9134 0.51517 0.0
O193 O 0.60845 0.92993 0.50193 0.0
O194 O 0.64165 0.85047 0.36207 0.0
C195 C 0.79582 0.90778 0.10329 0.0
O196 O 0.78537 0.90102 0.15514 0.0
O197 O 0.85189 0.89781 0.22797 0.0
Zn198 Zn 0.85466 0.87925 0.14792 0.0
O199 O 0.84063 0.832 0.14714 0.0
C200 C 0.92084 0.90395 0.13444 0.0
O201 O 0.90925 0.92896 0.16344 0.0
O202 O 0.82572 0.90256 0.09138 0.0
C203 C 0.85638 0.81003 0.174 0.0
O204 O 0.88178 0.81873 0.20499 0.0
C205 C 0.83314 0.88614 0.26635 0.0
O206 O 0.81329 0.86203 0.25286 0.0
O207 O 0.90168 0.88048 0.12195 0.0
C208 C 0.65565 0.54264 0.84377 0.0
O209 O 0.64931 0.53252 0.89598 0.0
O210 O 0.64718 0.59955 0.96766 0.0
Zn211 Zn 0.6282 0.60243 0.88801 0.0
O212 O 0.58032 0.59049 0.88911 0.0
C213 C 0.65453 0.66807 0.87715 0.0
O214 O 0.67846 0.65577 0.90793 0.0
O215 O 0.65029 0.57247 0.83138 0.0
C216 C 0.55998 0.60628 0.91968 0.0
O217 O 0.57087 0.63008 0.9524 0.0
C218 C 0.63535 0.58147 0.00687 0.0
O219 O 0.61087 0.56187 0.99443 0.0
O220 O 0.63113 0.64943 0.8621 0.0
C221 C 0.69311 0.41959 0.08461 0.0
O222 O 0.70141 0.4274 0.1372 0.0
O223 O 0.64284 0.40179 0.21466 0.0
Zn224 Zn 0.6372 0.38372 0.13491 0.0
O225 O 0.64679 0.33539 0.13486 0.0
C226 C 0.57228 0.41224 0.12922 0.0
O227 O 0.58428 0.43293 0.16683 0.0
O228 O 0.66707 0.4033 0.07619 0.0
C229 C 0.62718 0.31456 0.15613 0.0
O230 O 0.60008 0.32498 0.18037 0.0
C231 C 0.66301 0.38949 0.2501 0.0
O232 O 0.68256 0.36597 0.23271 0.0
O233 O 0.59061 0.3898 0.10943 0.0
C234 C 0.84003 0.44817 0.33955 0.0
O235 O 0.83889 0.4604 0.39155 0.0
O236 O 0.85127 0.39683 0.47201 0.0
Zn237 Zn 0.87184 0.39236 0.39403 0.0
O238 O 0.91885 0.40668 0.39682 0.0
C239 C 0.85082 0.32432 0.38647 0.0
O240 O 0.82636 0.33418 0.4187 0.0
O241 O 0.85065 0.41922 0.33258 0.0
C242 C 0.94037 0.38944 0.4219 0.0
O243 O 0.93115 0.36263 0.44853 0.0
C244 C 0.86145 0.41777 0.50814 0.0
O245 O 0.88426 0.43859 0.49246 0.0
O246 O 0.87217 0.34502 0.3706 0.0
C247 C 0.80085 0.59172 0.59031 0.0
O248 O 0.79012 0.5942 0.64317 0.0
O249 O 0.85419 0.604 0.71708 0.0
Zn250 Zn 0.85898 0.62242 0.63735 0.0
O251 O 0.84777 0.67043 0.63765 0.0
C252 C 0.92474 0.59565 0.62841 0.0
O253 O 0.91247 0.57176 0.65937 0.0
O254 O 0.82994 0.60066 0.57915 0.0
C255 C 0.86378 0.69033 0.66871 0.0
O256 O 0.88705 0.67882 0.70189 0.0
C257 C 0.83444 0.61602 0.75356 0.0
O258 O 0.81487 0.63986 0.73768 0.0
O259 O 0.90615 0.61905 0.61323 0.0
C260 C 0.65759 0.44934 0.6573 0.0
O261 O 0.65052 0.46063 0.6061 0.0
O262 O 0.65096 0.39315 0.52976 0.0
Zn263 Zn 0.63165 0.38978 0.60929 0.0
O264 O 0.58416 0.40284 0.6076 0.0
C265 C 0.65263 0.32144 0.61666 0.0
O266 O 0.67518 0.33057 0.57984 0.0
O267 O 0.65354 0.41901 0.66723 0.0
C268 C 0.56321 0.38478 0.58278 0.0
O269 O 0.57332 0.35817 0.55649 0.0
C270 C 0.63877 0.41203 0.4921 0.0
O271 O 0.61433 0.43125 0.50655 0.0
O272 O 0.63267 0.34271 0.63561 0.0
C273 C 0.79106 0.41342 0.90622 0.0
O274 O 0.78364 0.39938 0.85731 0.0
O275 O 0.85042 0.40886 0.78751 0.0
Zn276 Zn 0.85349 0.39264 0.86922 0.0
O277 O 0.84362 0.34426 0.8728 0.0
C278 C 0.92292 0.40644 0.86565 0.0
O279 O 0.91622 0.4134 0.81201 0.0
O280 O 0.82099 0.41531 0.92057 0.0
C281 C 0.86129 0.32364 0.84619 0.0
O282 O 0.88563 0.33447 0.81467 0.0
C283 C 0.83449 0.39391 0.74875 0.0
O284 O 0.81772 0.36762 0.76256 0.0
O285 O 0.89967 0.39823 0.89886 0.0
C286 C 0.84603 0.54257 0.15491 0.0
O287 O 0.86228 0.53554 0.10798 0.0
O288 O 0.84432 0.60417 0.03344 0.0
Zn289 Zn 0.86182 0.60559 0.11441 0.0
O290 O 0.9101 0.59579 0.11442 0.0
C291 C 0.83599 0.67154 0.12657 0.0
O292 O 0.81486 0.66156 0.08796 0.0
O293 O 0.84053 0.5725 0.16634 0.0
C294 C 0.92999 0.61416 0.08765 0.0
O295 O 0.91836 0.63908 0.05848 0.0
C296 C 0.85817 0.58782 0.99395 0.0
O297 O 0.88369 0.5697 0.00678 0.0
O298 O 0.85709 0.65138 0.14542 0.0
C299 C 0.70732 0.59432 0.40516 0.0
O300 O 0.71736 0.60107 0.35305 0.0
O301 O 0.64877 0.60333 0.28356 0.0
Zn302 Zn 0.64836 0.62357 0.36244 0.0
O303 O 0.6633 0.67057 0.35976 0.0
C304 C 0.58107 0.60252 0.37826 0.0
O305 O 0.59041 0.57766 0.34647 0.0
O306 O 0.67767 0.60012 0.41811 0.0
C307 C 0.64632 0.69203 0.33394 0.0
O308 O 0.61989 0.68263 0.30641 0.0
C309 C 0.66642 0.61411 0.24292 0.0
O310 O 0.68658 0.63851 0.25306 0.0
O311 O 0.60196 0.62427 0.39155 0.0
C312 C 0.35271 0.45943 0.15287 0.0
O313 O 0.37496 0.46622 0.11411 0.0
O314 O 0.34898 0.39882 0.0235 0.0
Zn315 Zn 0.36508 0.39733 0.10537 0.0
O316 O 0.41344 0.40801 0.10993 0.0
C317 C 0.38058 0.33009 0.12263 0.0
O318 O 0.40595 0.33951 0.09242 0.0
O319 O 0.34245 0.43011 0.15687 0.0
C320 C 0.43438 0.40534 0.06994 0.0
O321 O 0.4251 0.39436 0.01962 0.0
C322 C 0.35552 0.42073 0.98649 0.0
O323 O 0.37315 0.44615 0.0017 0.0
O324 O 0.35837 0.35087 0.13439 0.0
C325 C 0.29078 0.59199 0.90491 0.0
O326 O 0.28345 0.60652 0.8564 0.0
O327 O 0.3527 0.59455 0.78674 0.0
Zn328 Zn 0.35392 0.61163 0.86802 0.0
O329 O 0.34425 0.66015 0.86888 0.0
C330 C 0.42071 0.58738 0.87802 0.0
O331 O 0.41176 0.56762 0.83647 0.0
O332 O 0.32072 0.58946 0.91891 0.0
C333 C 0.36373 0.67999 0.84436 0.0
O334 O 0.38927 0.66811 0.8172 0.0
C335 C 0.33668 0.60883 0.74734 0.0
O336 O 0.31902 0.63466 0.7604 0.0
O337 O 0.39968 0.60682 0.89928 0.0
C338 C 0.15415 0.54114 0.65297 0.0
O339 O 0.13979 0.53177 0.60537 0.0
O340 O 0.15106 0.60027 0.52858 0.0
Zn341 Zn 0.13369 0.60269 0.60955 0.0
O342 O 0.08574 0.59124 0.61107 0.0
C343 C 0.15665 0.67011 0.61737 0.0
O344 O 0.17703 0.66097 0.57687 0.0
O345 O 0.15643 0.5716 0.66324 0.0
C346 C 0.06484 0.61034 0.58858 0.0
O347 O 0.07526 0.63687 0.56244 0.0
C348 C 0.1372 0.58344 0.48973 0.0
O349 O 0.11159 0.56558 0.50325 0.0
O350 O 0.13712 0.64909 0.63839 0.0
C351 C 0.20421 0.41578 0.40736 0.0
O352 O 0.21443 0.41114 0.35465 0.0
O353 O 0.14646 0.40717 0.28424 0.0
Zn354 Zn 0.14507 0.38695 0.363 0.0
O355 O 0.15886 0.33964 0.35972 0.0
C356 C 0.07916 0.41102 0.38017 0.0
O357 O 0.09016 0.43632 0.35124 0.0
O358 O 0.17466 0.40912 0.41955 0.0
C359 C 0.14198 0.31859 0.33269 0.0
O360 O 0.11585 0.32844 0.30477 0.0
C361 C 0.16533 0.39638 0.24533 0.0
O362 O 0.18586 0.37268 0.25794 0.0
O363 O 0.09863 0.38762 0.39134 0.0
C364 C 0.34281 0.55225 0.339 0.0
O365 O 0.33861 0.54088 0.39112 0.0
O366 O 0.35355 0.60477 0.47061 0.0
Zn367 Zn 0.37332 0.61062 0.39221 0.0
O368 O 0.42175 0.60177 0.39507 0.0
C369 C 0.35279 0.67915 0.39405 0.0
O370 O 0.34011 0.6714 0.44394 0.0
O371 O 0.35509 0.58056 0.3323 0.0
C372 C 0.44157 0.62128 0.41941 0.0
O373 O 0.42987 0.6473 0.44539 0.0
C374 C 0.36519 0.58489 0.5072 0.0
O375 O 0.38941 0.5656 0.49197 0.0
O376 O 0.36744 0.65719 0.36524 0.0
C377 C 0.19252 0.58487 0.08289 0.0
O378 O 0.20154 0.57848 0.13569 0.0
O379 O 0.14138 0.60024 0.21301 0.0
Zn380 Zn 0.13719 0.62038 0.13447 0.0
O381 O 0.14956 0.66802 0.13737 0.0
C382 C 0.06981 0.59752 0.12688 0.0
O383 O 0.0799 0.57451 0.16204 0.0
O384 O 0.16588 0.60013 0.07429 0.0
C385 C 0.13432 0.68842 0.1686 0.0
O386 O 0.1107 0.67774 0.2019 0.0
C387 C 0.16234 0.61023 0.24925 0.0
O388 O 0.18359 0.63263 0.23346 0.0
O389 O 0.09016 0.61877 0.10928 0.0
C390 C 0.16136 0.4477 0.83889 0.0
O391 O 0.16311 0.45866 0.89167 0.0
O392 O 0.14856 0.40039 0.97029 0.0
Zn393 Zn 0.13016 0.39114 0.8918 0.0
O394 O 0.08167 0.40019 0.88873 0.0
C395 C 0.13465 0.32298 0.91603 0.0
O396 O 0.12887 0.33447 0.9676 0.0
O397 O 0.15022 0.41907 0.83011 0.0
C398 C 0.06053 0.39191 0.92597 0.0
O399 O 0.0702 0.37659 0.97242 0.0
C400 C 0.13688 0.4209 0.00577 0.0
O401 O 0.11264 0.4399 0.98963 0.0
O402 O 0.13688 0.34308 0.87462 0.0
C403 C 0.30005 0.41052 0.58862 0.0
O404 O 0.29128 0.40806 0.64254 0.0
O405 O 0.35413 0.3975 0.70972 0.0
Zn406 Zn 0.35751 0.37786 0.63069 0.0
O407 O 0.34444 0.33021 0.63197 0.0
C408 C 0.42332 0.40337 0.61803 0.0
O409 O 0.4114 0.42821 0.64708 0.0
O410 O 0.32834 0.40064 0.57405 0.0
C411 C 0.36174 0.30918 0.65824 0.0
O412 O 0.38778 0.31919 0.68624 0.0
C413 C 0.33561 0.38549 0.74806 0.0
O414 O 0.31716 0.36016 0.73529 0.0
O415 O 0.40443 0.37978 0.60503 0.0
C416 C 0.17509 0.99635 0.28759 0.0
C417 C 0.17248 0.02989 0.27456 0.0
C418 C 0.1724 0.97241 0.24486 0.0
C419 C 0.16706 0.98103 0.18722 0.0
H420 H 0.17748 0.98835 0.33156 0.0
H421 H 0.17293 0.94692 0.25771 0.0
S422 S 0.16417 0.06567 0.12906 0.0
N423 N 0.16859 0.07063 0.19875 0.0
N424 N 0.1636 0.02572 0.11844 0.0
C425 C 0.1672 0.01455 0.17291 0.0
C426 C 0.16989 0.03895 0.21653 0.0
C427 C 0.26068 0.91426 0.55244 0.0
C428 C 0.22686 0.9144 0.54105 0.0
C429 C 0.28372 0.91635 0.50813 0.0
C430 C 0.27394 0.91867 0.45045 0.0
H431 H 0.26956 0.91088 0.59572 0.0
H432 H 0.3094 0.9145 0.51916 0.0
S433 S 0.18828 0.92535 0.3983 0.0
N434 N 0.18473 0.9211 0.46829 0.0
N435 N 0.22796 0.92504 0.38505 0.0
C436 C 0.24021 0.92145 0.4388 0.0
C437 C 0.21671 0.9193 0.48403 0.0
C438 C 0.33306 0.02723 0.75643 0.0
C439 C 0.33592 0.01753 0.69878 0.0
C440 C 0.33246 0.00411 0.80076 0.0
C441 C 0.33463 0.97032 0.78937 0.0
H442 H 0.33297 0.05295 0.76786 0.0
H443 H 0.33196 0.01297 0.84444 0.0
S444 S 0.33678 0.93185 0.64525 0.0
N445 N 0.33665 0.97159 0.63233 0.0
N446 N 0.33549 0.9282 0.71558 0.0
C447 C 0.33478 0.96018 0.7317 0.0
C448 C 0.33543 0.98376 0.68647 0.0
C449 C 0.20952 0.10138 0.00071 0.0
C450 C 0.22124 0.09449 0.94528 0.0
C451 C 0.23086 0.10372 0.04747 0.0
C452 C 0.26476 0.09905 0.04088 0.0
H453 H 0.18384 0.10658 0.00779 0.0
H454 H 0.22078 0.11064 0.08862 0.0
S455 S 0.30728 0.07572 0.90619 0.0
N456 N 0.26852 0.07966 0.88753 0.0
N457 N 0.30862 0.08372 0.97543 0.0
C458 C 0.27655 0.09004 0.98636 0.0
C459 C 0.2548 0.08784 0.93861 0.0
C460 C 0.84086 0.01636 0.70515 0.0
C461 C 0.83974 0.98252 0.71662 0.0
C462 C 0.84062 0.03946 0.74955 0.0
C463 C 0.83931 0.0297 0.80734 0.0
H464 H 0.84341 0.02519 0.66164 0.0
H465 H 0.84309 0.06508 0.73834 0.0
S466 S 0.83043 0.94439 0.8602 0.0
N467 N 0.83308 0.94064 0.78998 0.0
N468 N 0.8327 0.98405 0.87329 0.0
C469 C 0.83571 0.9961 0.81928 0.0
C470 C 0.83588 0.97253 0.77401 0.0
C471 C 0.78685 0.08524 0.52068 0.0
C472 C 0.77878 0.07955 0.46291 0.0
C473 C 0.76274 0.08582 0.56332 0.0
C474 C 0.72951 0.08078 0.55004 0.0
H475 H 0.81177 0.09097 0.53292 0.0
H476 H 0.77015 0.09196 0.60654 0.0
S477 S 0.69638 0.05827 0.40734 0.0
N478 N 0.73585 0.0639 0.39613 0.0
N479 N 0.69048 0.0651 0.47624 0.0
C480 C 0.72146 0.07228 0.49332 0.0
C481 C 0.74609 0.07163 0.44981 0.0
C482 C 0.66364 0.97698 0.25702 0.0
C483 C 0.6483 0.98524 0.3091 0.0
C484 C 0.66534 0.99939 0.21161 0.0
C485 C 0.6521 0.03105 0.2166 0.0
H486 H 0.67321 0.95254 0.25019 0.0
H487 H 0.67617 0.99146 0.17162 0.0
S488 S 0.61227 0.06612 0.34595 0.0
N489 N 0.62173 0.02828 0.36435 0.0
N490 N 0.62543 0.07043 0.27959 0.0
C491 C 0.63858 0.04036 0.26971 0.0
C492 C 0.63652 0.01744 0.31574 0.0
C493 C 0.75968 0.91148 0.9541 0.0
C494 C 0.72581 0.91316 0.96468 0.0
C495 C 0.78236 0.91213 0.99904 0.0
C496 C 0.77211 0.91439 0.05649 0.0
H497 H 0.76879 0.90781 0.91103 0.0
H498 H 0.80801 0.90896 0.98864 0.0
S499 S 0.68657 0.92587 0.10647 0.0
N500 N 0.68341 0.92201 0.03633 0.0
N501 N 0.72603 0.92313 0.12081 0.0
C502 C 0.73851 0.91897 0.06733 0.0
C503 C 0.71538 0.91836 0.02146 0.0
C504 C 0.66312 0.50648 0.69477 0.0
C505 C 0.66384 0.47253 0.70517 0.0
C506 C 0.66263 0.52909 0.7399 0.0
C507 C 0.6628 0.51871 0.79741 0.0
H508 H 0.66129 0.51579 0.65145 0.0
H509 H 0.66043 0.55483 0.72939 0.0
S510 S 0.67043 0.43277 0.84778 0.0
N511 N 0.66909 0.42982 0.77736 0.0
N512 N 0.66817 0.47228 0.86212 0.0
C513 C 0.66627 0.48497 0.80841 0.0
C514 C 0.6668 0.4619 0.76235 0.0
C515 C 0.73418 0.40551 0.94156 0.0
C516 C 0.76488 0.42053 0.94831 0.0
C517 C 0.71048 0.40707 0.98459 0.0
C518 C 0.71645 0.42367 0.03641 0.0
H519 H 0.72885 0.39095 0.90392 0.0
H520 H 0.68787 0.39374 0.97796 0.0
S521 S 0.79026 0.47287 0.07029 0.0
N522 N 0.79828 0.4566 0.00708 0.0
N523 N 0.75353 0.45957 0.08838 0.0
C524 C 0.74605 0.44099 0.04193 0.0
C525 C 0.77033 0.43938 0.99786 0.0
C526 C 0.8249 0.50233 0.29677 0.0
C527 C 0.83577 0.46992 0.28911 0.0
C528 C 0.8265 0.52525 0.25213 0.0
C529 C 0.83928 0.51673 0.19812 0.0
H530 H 0.8163 0.51048 0.33825 0.0
H531 H 0.81903 0.5502 0.26098 0.0
S532 S 0.86711 0.43387 0.15353 0.0
N533 N 0.85631 0.42954 0.22116 0.0
N534 N 0.86026 0.47269 0.1381 0.0
C535 C 0.84828 0.48385 0.18881 0.0
C536 C 0.84623 0.46042 0.23402 0.0
C537 C 0.72101 0.58633 0.50866 0.0
C538 C 0.73126 0.58654 0.45107 0.0
C539 C 0.74369 0.58565 0.5536 0.0
C540 C 0.77758 0.58521 0.54282 0.0
H541 H 0.6953 0.58849 0.51941 0.0
H542 H 0.73451 0.58738 0.59701 0.0
S543 S 0.81701 0.57869 0.39994 0.0
N544 N 0.77749 0.58115 0.3859 0.0
N545 N 0.82011 0.57996 0.47037 0.0
C546 C 0.78808 0.58239 0.48557 0.0
C547 C 0.76494 0.58302 0.43972 0.0
C548 C 0.33272 0.47468 0.25085 0.0
C549 C 0.34427 0.48432 0.19662 0.0
C550 C 0.33043 0.49723 0.29608 0.0
C551 C 0.33926 0.53031 0.28855 0.0
H552 H 0.32718 0.44921 0.25947 0.0
H553 H 0.32312 0.48827 0.33782 0.0
S554 S 0.36552 0.56895 0.15181 0.0
N555 N 0.36111 0.5298 0.13618 0.0
N556 N 0.35575 0.57229 0.2201 0.0
C557 C 0.34817 0.54072 0.23311 0.0
C558 C 0.35099 0.51769 0.18747 0.0
C559 C 0.20983 0.59749 0.98278 0.0
C560 C 0.21585 0.58092 0.03461 0.0
C561 C 0.23367 0.5994 0.93998 0.0
C562 C 0.26453 0.58468 0.94689 0.0
H563 H 0.1871 0.6106 0.9761 0.0
H564 H 0.22827 0.61392 0.90233 0.0
S565 S 0.29015 0.53256 0.06904 0.0
N566 N 0.25321 0.54544 0.08681 0.0
N567 N 0.29813 0.54892 0.00589 0.0
C568 C 0.27001 0.56583 0.99642 0.0
C569 C 0.24564 0.56393 0.0403 0.0
C570 C 0.1534 0.46139 0.7356 0.0
C571 C 0.16563 0.47037 0.78972 0.0
C572 C 0.15142 0.48408 0.69085 0.0
C573 C 0.16187 0.51665 0.69799 0.0
H574 H 0.14362 0.43709 0.72832 0.0
H575 H 0.14014 0.47626 0.65118 0.0
S576 S 0.2012 0.55111 0.82805 0.0
N577 N 0.19212 0.51304 0.84579 0.0
N578 N 0.18874 0.55566 0.76128 0.0
C579 C 0.17647 0.52534 0.75047 0.0
C580 C 0.17831 0.50221 0.79635 0.0
C581 C 0.26193 0.42056 0.44182 0.0
C582 C 0.22821 0.42168 0.45396 0.0
C583 C 0.28517 0.41911 0.48581 0.0
C584 C 0.27566 0.41884 0.54377 0.0
H585 H 0.27052 0.41896 0.39802 0.0
H586 H 0.31069 0.41656 0.47405 0.0
S587 S 0.19075 0.42742 0.59853 0.0
N588 N 0.18672 0.42699 0.52824 0.0
N589 N 0.23038 0.42432 0.61089 0.0
C590 C 0.24222 0.4229 0.55655 0.0
C591 C 0.21851 0.42431 0.51167 0.0
C592 C 0.13352 0.2263 0.31933 0.0
C593 C 0.16021 0.2142 0.35108 0.0
C594 C 0.12849 0.25999 0.31222 0.0
C595 C 0.14988 0.28312 0.3366 0.0
H596 H 0.1158 0.20967 0.30078 0.0
H597 H 0.10711 0.26786 0.28852 0.0
S598 S 0.22516 0.26436 0.41974 0.0
N599 N 0.20957 0.22815 0.40418 0.0
N600 N 0.20012 0.29144 0.39085 0.0
C601 C 0.17744 0.2714 0.3666 0.0
C602 C 0.1826 0.237 0.3738 0.0
C603 C 0.98581 0.91839 0.6269 0.0
C604 C 0.97252 0.89297 0.5934 0.0
C605 C 0.01969 0.92174 0.63418 0.0
C606 C 0.0418 0.89982 0.60832 0.0
H607 H 0.96994 0.93549 0.64896 0.0
H608 H 0.02848 0.94124 0.6616 0.0
S609 S 0.01988 0.83075 0.51202 0.0
N610 N 0.98439 0.84675 0.53088 0.0
N611 N 0.04798 0.85302 0.54457 0.0
C612 C 0.02895 0.87505 0.57282 0.0
C613 C 0.99438 0.87164 0.56537 0.0
C614 C 0.33039 0.76193 0.89542 0.0
C615 C 0.35101 0.78494 0.86865 0.0
C616 C 0.33418 0.72821 0.88616 0.0
C617 C 0.35882 0.71596 0.84982 0.0
H618 H 0.31145 0.7699 0.92474 0.0
H619 H 0.31801 0.71162 0.90878 0.0
S620 S 0.41786 0.76586 0.7659 0.0
N621 N 0.39596 0.79301 0.80159 0.0
N622 N 0.40307 0.72975 0.78431 0.0
C623 C 0.37899 0.73871 0.82131 0.0
C624 C 0.37509 0.7731 0.83067 0.0
C625 C 0.46057 0.12343 0.07293 0.0
C626 C 0.44852 0.09647 0.10416 0.0
C627 C 0.49401 0.12705 0.06166 0.0
C628 C 0.51693 0.10393 0.08123 0.0
H629 H 0.4442 0.14258 0.05843 0.0
H630 H 0.50198 0.14883 0.03912 0.0
S631 S 0.49786 0.02678 0.15883 0.0
N632 N 0.46198 0.04466 0.15001 0.0
N633 N 0.52491 0.05148 0.12892 0.0
C634 C 0.50512 0.07594 0.10991 0.0
C635 C 0.47094 0.07221 0.12132 0.0
C636 C 0.16348 0.73496 0.12098 0.0
C637 C 0.14104 0.72404 0.16262 0.0
C638 C 0.16802 0.76838 0.11001 0.0
C639 C 0.15031 0.79239 0.14016 0.0
H640 H 0.17708 0.71756 0.09526 0.0
H641 H 0.18486 0.7753 0.07628 0.0
S642 S 0.09132 0.77705 0.2583 0.0
N643 N 0.10292 0.74017 0.23762 0.0
N644 N 0.11143 0.80296 0.21701 0.0
C645 C 0.12895 0.78193 0.18388 0.0
C646 C 0.12433 0.74781 0.1951 0.0
C647 C 0.5119 0.90351 0.40492 0.0
C648 C 0.5303 0.87504 0.3938 0.0
C649 C 0.4782 0.90472 0.39301 0.0
C650 C 0.46213 0.87785 0.36797 0.0
H651 H 0.52363 0.92495 0.42299 0.0
H652 H 0.46487 0.92709 0.40187 0.0
S653 S 0.49908 0.79757 0.33106 0.0
N654 N 0.52968 0.81917 0.3576 0.0
N655 N 0.46679 0.82182 0.33376 0.0
C656 C 0.48021 0.84926 0.35699 0.0
C657 C 0.5142 0.84774 0.37031 0.0
C658 C 0.37199 0.21688 0.66778 0.0
C659 C 0.34471 0.20466 0.63775 0.0
C660 C 0.37667 0.25058 0.6756 0.0
C661 C 0.35434 0.27361 0.65363 0.0
H662 H 0.39044 0.20036 0.68436 0.0
H663 H 0.39852 0.25856 0.69785 0.0
S664 S 0.27724 0.25447 0.57607 0.0
N665 N 0.29379 0.21836 0.58915 0.0
N666 N 0.30262 0.28165 0.60375 0.0
C667 C 0.32623 0.26175 0.62543 0.0
C668 C 0.32142 0.22734 0.61755 0.0
C669 C 0.01461 0.11959 0.78175 0.0
C670 C 0.03581 0.11221 0.82743 0.0
C671 C 0.98061 0.11859 0.78845 0.0
C672 C 0.9662 0.11029 0.84122 0.0
H673 H 0.02427 0.12665 0.74035 0.0
H674 H 0.96557 0.12503 0.75196 0.0
S675 S 0.01067 0.08702 0.97384 0.0
N676 N 0.03988 0.09489 0.92695 0.0
N677 N 0.97584 0.09309 0.9396 0.0
C678 C 0.98703 0.102 0.88704 0.0
C679 C 0.02182 0.10292 0.88013 0.0
C680 C 0.83493 0.73798 0.62388 0.0
C681 C 0.8578 0.72615 0.66396 0.0
C682 C 0.8306 0.77162 0.61485 0.0
C683 C 0.84896 0.79495 0.64546 0.0
H684 H 0.8207 0.72115 0.59808 0.0
H685 H 0.81328 0.77928 0.5824 0.0
S686 S 0.90988 0.77701 0.75937 0.0
N687 N 0.89745 0.74064 0.73753 0.0
N688 N 0.88934 0.80381 0.72056 0.0
C689 C 0.87098 0.78353 0.68739 0.0
C690 C 0.87539 0.7492 0.69662 0.0
C691 C 0.98931 0.08131 0.35536 0.0
C692 C 0.96616 0.09779 0.38945 0.0
C693 C 0.02297 0.08622 0.36292 0.0
C694 C 0.03502 0.10783 0.40493 0.0
H695 H 0.98147 0.06509 0.32132 0.0
H696 H 0.03961 0.07351 0.33444 0.0
S697 S 0.98484 0.15453 0.50954 0.0
N698 N 0.95781 0.13484 0.46988 0.0
N699 N 0.02103 0.14403 0.48407 0.0
C700 C 0.01221 0.12341 0.44106 0.0
C701 C 0.97785 0.1184 0.43335 0.0
C702 C 0.60894 0.25625 0.16447 0.0
C703 C 0.63349 0.27889 0.14977 0.0
C704 C 0.61315 0.22261 0.15531 0.0
C705 C 0.64217 0.21006 0.1312 0.0
H706 H 0.58587 0.26454 0.18217 0.0
H707 H 0.59316 0.2064 0.16651 0.0
S708 S 0.7151 0.25873 0.08883 0.0
N709 N 0.6887 0.28618 0.11249 0.0
N710 N 0.69662 0.22298 0.09538 0.0
C711 C 0.66739 0.23231 0.11788 0.0
C712 C 0.66306 0.26667 0.12711 0.0
C713 C 0.52972 0.87363 0.92583 0.0
C714 C 0.54217 0.90061 0.89522 0.0
C715 C 0.49601 0.86922 0.93351 0.0
C716 C 0.47323 0.89153 0.91076 0.0
H717 H 0.54607 0.85522 0.94307 0.0
H718 H 0.48782 0.8476 0.95625 0.0
S719 S 0.49303 0.96789 0.8313 0.0
N720 N 0.52897 0.95121 0.84511 0.0
N721 N 0.46563 0.94291 0.85945 0.0
C722 C 0.48532 0.91934 0.88191 0.0
C723 C 0.51974 0.92389 0.8742 0.0
C724 C 0.83344 0.27687 0.89575 0.0
C725 C 0.85578 0.28792 0.85407 0.0
C726 C 0.82955 0.24343 0.90747 0.0
C727 C 0.8477 0.21952 0.87785 0.0
H728 H 0.81933 0.29421 0.92073 0.0
H729 H 0.8126 0.23638 0.94096 0.0
S730 S 0.90756 0.23529 0.76111 0.0
N731 N 0.89493 0.27203 0.78056 0.0
N732 N 0.88759 0.20926 0.80237 0.0
C733 C 0.86923 0.23013 0.83443 0.0
C734 C 0.87329 0.26426 0.82265 0.0
C735 C 0.52918 0.11664 0.57761 0.0
C736 C 0.54083 0.08994 0.60989 0.0
C737 C 0.49562 0.12153 0.56869 0.0
C738 C 0.47216 0.09996 0.59161 0.0
H739 H 0.54603 0.13456 0.56024 0.0
H740 H 0.48807 0.14296 0.54475 0.0
S741 S 0.48981 0.0244 0.6749 0.0
N742 N 0.52617 0.04027 0.66157 0.0
N743 N 0.46315 0.04943 0.64482 0.0
C744 C 0.48348 0.07234 0.62197 0.0
C745 C 0.51775 0.06735 0.63109 0.0
C746 C 0.63168 0.75089 0.31919 0.0
C747 C 0.65383 0.72747 0.34043 0.0
C748 C 0.63581 0.78433 0.33036 0.0
C749 C 0.66227 0.79588 0.36335 0.0
H750 H 0.61025 0.74336 0.29528 0.0
H751 H 0.61731 0.80108 0.31467 0.0
S752 S 0.72967 0.74518 0.42267 0.0
N753 N 0.70505 0.71854 0.39145 0.0
N754 N 0.71276 0.78143 0.41247 0.0
C755 C 0.68564 0.77295 0.3822 0.0
C756 C 0.68145 0.73879 0.37074 0.0
C757 C 0.96846 0.87301 0.09406 0.0
C758 C 0.95626 0.90158 0.12029 0.0
C759 C 0.00199 0.86883 0.08389 0.0
C760 C 0.02487 0.89299 0.09952 0.0
H761 H 0.95209 0.85327 0.08221 0.0
H762 H 0.01 0.84604 0.06469 0.0
S763 S 0.00558 0.97358 0.16534 0.0
N764 N 0.96972 0.95537 0.15868 0.0
N765 N 0.0327 0.94749 0.13958 0.0
C766 C 0.01297 0.9222 0.12403 0.0
C767 C 0.97873 0.92648 0.13439 0.0
C768 C 0.62166 0.75038 0.82772 0.0
C769 C 0.64473 0.77291 0.84894 0.0
C770 C 0.62561 0.7166 0.83554 0.0
C771 C 0.65287 0.70378 0.86485 0.0
H772 H 0.5998 0.75885 0.80604 0.0
H773 H 0.60663 0.7005 0.81952 0.0
S774 S 0.72207 0.75207 0.92434 0.0
N775 N 0.69708 0.77981 0.89731 0.0
N776 N 0.70455 0.71634 0.91191 0.0
C777 C 0.67687 0.72593 0.88431 0.0
C778 C 0.6728 0.76043 0.87641 0.0
C779 C 0.4933 0.39379 0.05 0.0
C780 C 0.46953 0.41029 0.08258 0.0
C781 C 0.5265 0.3952 0.06476 0.0
C782 C 0.53732 0.41352 0.11223 0.0
H783 H 0.48617 0.37869 0.01396 0.0
H784 H 0.54374 0.38134 0.03914 0.0
S785 S 0.48502 0.46374 0.20828 0.0
N786 N 0.45917 0.44724 0.16225 0.0
N787 N 0.5216 0.45024 0.18968 0.0
C788 C 0.51392 0.43134 0.14369 0.0
C789 C 0.48003 0.4296 0.12899 0.0
C790 C 0.83873 0.23208 0.38878 0.0
C791 C 0.86458 0.22033 0.35454 0.0
C792 C 0.83399 0.26569 0.39756 0.0
C793 C 0.85492 0.28904 0.3726 0.0
H794 H 0.82225 0.21518 0.40996 0.0
H795 H 0.81411 0.27331 0.42523 0.0
S796 S 0.92493 0.27135 0.27572 0.0
N797 N 0.91037 0.23496 0.29291 0.0
N798 N 0.9015 0.29805 0.30941 0.0
C799 C 0.88027 0.27771 0.33674 0.0
C800 C 0.88507 0.24343 0.32772 0.0
C801 C 0.97298 0.62416 0.58506 0.0
C802 C 0.96031 0.59706 0.61506 0.0
C803 C 0.00663 0.62769 0.57547 0.0
C804 C 0.02918 0.6043 0.59548 0.0
H805 H 0.95688 0.64332 0.56968 0.0
H806 H 0.01499 0.6494 0.55318 0.0
S807 S 0.00865 0.52739 0.67269 0.0
N808 N 0.97297 0.54534 0.66197 0.0
N809 N 0.03622 0.55197 0.64398 0.0
C810 C 0.01682 0.57645 0.62387 0.0
C811 C 0.98244 0.57283 0.63363 0.0
C812 C 0.66551 0.2292 0.61813 0.0
C813 C 0.63956 0.21761 0.65229 0.0
C814 C 0.67 0.26277 0.60817 0.0
C815 C 0.64878 0.28627 0.63201 0.0
H816 H 0.6822 0.2122 0.59773 0.0
H817 H 0.68996 0.27021 0.58056 0.0
S818 S 0.57833 0.26906 0.72819 0.0
N819 N 0.59332 0.2326 0.71262 0.0
N820 N 0.60174 0.29557 0.694 0.0
C821 C 0.62336 0.27512 0.66789 0.0
C822 C 0.61876 0.24088 0.67798 0.0
C823 C 0.01561 0.41116 0.86156 0.0
C824 C 0.02521 0.39771 0.91447 0.0
C825 C 0.98256 0.41475 0.84715 0.0
C826 C 0.95755 0.40516 0.88502 0.0
H827 H 0.03373 0.41839 0.83014 0.0
H828 H 0.97669 0.42458 0.80531 0.0
S829 S 0.96936 0.37098 0.03102 0.0
N830 N 0.00685 0.37652 0.00647 0.0
N831 N 0.94468 0.38331 0.97941 0.0
C832 C 0.9667 0.39282 0.93905 0.0
C833 C 0.00049 0.38907 0.95373 0.0
C834 C 0.8687 0.75071 0.18995 0.0
C835 C 0.84824 0.77483 0.1661 0.0
C836 C 0.86374 0.71738 0.17864 0.0
C837 C 0.83809 0.70667 0.14296 0.0
H838 H 0.88938 0.75756 0.21637 0.0
H839 H 0.88084 0.69999 0.19683 0.0
S840 S 0.77535 0.75968 0.07461 0.0
N841 N 0.79964 0.78546 0.10863 0.0
N842 N 0.79036 0.72287 0.08735 0.0
C843 C 0.81647 0.7304 0.12094 0.0
C844 C 0.82153 0.76443 0.13249 0.0
C845 C 0.52272 0.58401 0.37371 0.0
C846 C 0.54602 0.6066 0.39392 0.0
C847 C 0.4892 0.58854 0.38356 0.0
C848 C 0.47745 0.61588 0.41411 0.0
H849 H 0.53026 0.56291 0.34887 0.0
H850 H 0.47235 0.57071 0.36594 0.0
S851 S 0.52842 0.68114 0.48 0.0
N852 N 0.55505 0.65652 0.44882 0.0
N853 N 0.4921 0.66501 0.46731 0.0
C854 C 0.50054 0.6381 0.43636 0.0
C855 C 0.53476 0.63349 0.42628 0.0
C856 C 0.34677 0.28031 0.14425 0.0
C857 C 0.37765 0.29533 0.13979 0.0
C858 C 0.34394 0.24646 0.1541 0.0
C859 C 0.37188 0.22668 0.16115 0.0
H860 H 0.32468 0.29452 0.13787 0.0
H861 H 0.31973 0.23566 0.15549 0.0
S862 S 0.45833 0.25475 0.15708 0.0
N863 N 0.43663 0.2882 0.14569 0.0
N864 N 0.43139 0.22498 0.16518 0.0
C865 C 0.40284 0.24174 0.15907 0.0
C866 C 0.4057 0.27596 0.14811 0.0
C867 C 0.47953 0.57218 0.86384 0.0
C868 C 0.45578 0.59 0.89444 0.0
C869 C 0.51304 0.57687 0.87365 0.0
C870 C 0.52432 0.5996 0.9145 0.0
H871 H 0.47231 0.55509 0.83068 0.0
H872 H 0.53021 0.56313 0.84771 0.0
S873 S 0.47221 0.64995 0.01071 0.0
N874 N 0.44594 0.62946 0.97075 0.0
N875 N 0.50886 0.63825 0.98913 0.0
C876 C 0.50084 0.61649 0.94737 0.0
C877 C 0.46665 0.6117 0.93738 0.0
C878 C 0.17229 0.7289 0.60383 0.0
C879 C 0.15401 0.70521 0.63372 0.0
C880 C 0.16799 0.76244 0.61416 0.0
C881 C 0.14518 0.77377 0.65481 0.0
H882 H 0.18951 0.72163 0.57092 0.0
H883 H 0.18209 0.77959 0.58879 0.0
S884 S 0.09357 0.72178 0.74912 0.0
N885 N 0.11394 0.69545 0.70906 0.0
N886 N 0.10587 0.75841 0.7284 0.0
C887 C 0.12774 0.75033 0.68686 0.0
C888 C 0.13215 0.71612 0.67636 0.0
C889 C 0.03272 0.3799 0.42401 0.0
C890 C 0.04393 0.40804 0.39515 0.0
C891 C 0.99935 0.37473 0.43422 0.0
C892 C 0.97566 0.39743 0.4159 0.0
H893 H 0.04977 0.36116 0.43775 0.0
H894 H 0.99209 0.35222 0.45523 0.0
S895 S 0.99218 0.47671 0.34324 0.0
N896 N 0.02867 0.46011 0.35193 0.0
N897 N 0.96595 0.4504 0.37108 0.0
C898 C 0.98656 0.42639 0.38913 0.0
C899 C 0.02064 0.43169 0.37879 0.0
C900 C 0.33996 0.7384 0.40976 0.0
C901 C 0.35184 0.71358 0.37348 0.0
C902 C 0.3407 0.77138 0.39328 0.0
C903 C 0.3532 0.78101 0.33966 0.0
H904 H 0.33059 0.73249 0.4519 0.0
H905 H 0.33179 0.78949 0.42339 0.0
S906 S 0.38551 0.72542 0.22708 0.0
N907 N 0.37517 0.70081 0.28014 0.0
N908 N 0.37649 0.76274 0.24917 0.0
C909 C 0.36424 0.75637 0.30214 0.0
C910 C 0.36361 0.72272 0.31904 0.0
C911 C 0.97775 0.58481 0.13106 0.0
C912 C 0.96583 0.60874 0.09295 0.0
C913 C 0.01138 0.58075 0.14043 0.0
C914 C 0.03456 0.60043 0.11211 0.0
H915 H 0.96099 0.5695 0.15504 0.0
H916 H 0.01913 0.56252 0.17127 0.0
S917 S 0.0164 0.66448 0.0036 0.0
N918 N 0.98011 0.65085 0.02353 0.0
N919 N 0.04325 0.64324 0.04108 0.0
C920 C 0.02307 0.62361 0.07216 0.0
C921 C 0.98877 0.62774 0.0626 0.0
C922 C 0.13354 0.23181 0.94716 0.0
C923 C 0.13877 0.21734 0.89327 0.0
C924 C 0.13274 0.26584 0.95385 0.0
C925 C 0.13709 0.28704 0.90694 0.0
H926 H 0.12972 0.21679 0.98481 0.0
H927 H 0.1283 0.2755 0.99635 0.0
S928 S 0.15286 0.26175 0.75662 0.0
N929 N 0.14932 0.22693 0.79203 0.0
N930 N 0.14778 0.29102 0.8046 0.0
C931 C 0.1429 0.27299 0.85277 0.0
C932 C 0.14375 0.23816 0.84595 0.0
C933 C 0.47114 0.37296 0.57741 0.0
C934 C 0.45886 0.40106 0.60503 0.0
C935 C 0.50477 0.36849 0.56889 0.0
C936 C 0.52766 0.39187 0.58773 0.0
H937 H 0.45475 0.35374 0.56326 0.0
H938 H 0.51283 0.34602 0.54866 0.0
S939 S 0.50824 0.47126 0.65777 0.0
N940 N 0.47227 0.45377 0.64777 0.0
N941 N 0.53548 0.44535 0.63185 0.0
C942 C 0.51571 0.42073 0.61343 0.0
C943 C 0.48136 0.42532 0.62203 0.0
C944 C 0.14081 0.07384 0.58898 0.0
C945 C 0.15798 0.09133 0.54663 0.0
C946 C 0.14548 0.08036 0.64726 0.0
C947 C 0.1675 0.10469 0.66576 0.0
H948 H 0.12245 0.05593 0.57718 0.0
H949 H 0.13048 0.06719 0.67782 0.0
S950 S 0.22282 0.15345 0.57256 0.0
N951 N 0.20109 0.1311 0.52756 0.0
N952 N 0.20979 0.1434 0.63716 0.0
C953 C 0.18664 0.12068 0.6241 0.0
C954 C 0.18191 0.11399 0.56458 0.0
C955 C 0.17214 0.876 0.85674 0.0
C956 C 0.15815 0.89437 0.81201 0.0
C957 C 0.16477 0.88266 0.91418 0.0
C958 C 0.14306 0.90799 0.92941 0.0
H959 H 0.18813 0.85551 0.84745 0.0
H960 H 0.17542 0.86705 0.94672 0.0
S961 S 0.10302 0.96611 0.82905 0.0
N962 N 0.12384 0.94104 0.78725 0.0
N963 N 0.10999 0.95353 0.89509 0.0
C964 C 0.1302 0.92768 0.88531 0.0
C965 C 0.13774 0.9209 0.82671 0.0
C966 C 0.3298 0.88764 0.08057 0.0
C967 C 0.35161 0.91225 0.06239 0.0
C968 C 0.32286 0.88284 0.13874 0.0
C969 C 0.33753 0.90238 0.18123 0.0
H970 H 0.31884 0.87105 0.04987 0.0
H971 H 0.30696 0.8627 0.15045 0.0
S972 S 0.3926 0.97334 0.15609 0.0
N973 N 0.38504 0.95877 0.0915 0.0
N974 N 0.3721 0.94963 0.20073 0.0
C975 C 0.35782 0.92837 0.16354 0.0
C976 C 0.36482 0.93333 0.1042 0.0
C977 C 0.36583 0.07706 0.38616 0.0
C978 C 0.3484 0.09084 0.43223 0.0
C979 C 0.35826 0.08501 0.32935 0.0
C980 C 0.33295 0.10716 0.31608 0.0
H981 H 0.38636 0.06086 0.39388 0.0
H982 H 0.37332 0.07463 0.29576 0.0
S983 S 0.27662 0.14639 0.42051 0.0
N984 N 0.30225 0.12504 0.4604 0.0
N985 N 0.28811 0.14004 0.35364 0.0
C986 C 0.31398 0.11959 0.36152 0.0
C987 C 0.32167 0.11143 0.41952 0.0
C988 C 0.86213 0.91866 0.34173 0.0
C989 C 0.83675 0.89694 0.32682 0.0
C990 C 0.86888 0.92623 0.39902 0.0
C991 C 0.85055 0.91241 0.44399 0.0
H992 H 0.87779 0.9291 0.30905 0.0
H993 H 0.88947 0.94213 0.40799 0.0
S994 S 0.77848 0.85763 0.42789 0.0
N995 N 0.79102 0.86428 0.3617 0.0
N996 N 0.80369 0.8785 0.46934 0.0
C997 C 0.82384 0.89217 0.42964 0.0
C998 C 0.81695 0.88444 0.37114 0.0
C999 C 0.87506 0.08164 0.11826 0.0
C1000 C 0.85539 0.0967 0.07635 0.0
C1001 C 0.86884 0.08592 0.17678 0.0
C1002 C 0.84268 0.10549 0.19602 0.0
H1003 H 0.8962 0.06724 0.106 0.0
H1004 H 0.88549 0.0747 0.20707 0.0
S1005 S 0.78115 0.14688 0.1039 0.0
N1006 N 0.80666 0.12945 0.05833 0.0
N1007 N 0.79499 0.13752 0.16825 0.0
C1008 C 0.82168 0.11922 0.15464 0.0
C1009 C 0.82801 0.11482 0.0949 0.0
C1010 C 0.6705 0.11736 0.85827 0.0
C1011 C 0.65712 0.09809 0.81413 0.0
C1012 C 0.66338 0.11102 0.91588 0.0
C1013 C 0.64255 0.08511 0.93195 0.0
H1014 H 0.68565 0.13838 0.84837 0.0
H1015 H 0.67335 0.12746 0.94785 0.0
S1016 S 0.60508 0.02423 0.83343 0.0
N1017 N 0.62487 0.04971 0.79084 0.0
N1018 N 0.61148 0.03779 0.89909 0.0
C1019 C 0.63066 0.06432 0.8885 0.0
C1020 C 0.63793 0.07081 0.82967 0.0
C1021 C 0.66753 0.88503 0.59111 0.0
C1022 C 0.64515 0.90975 0.57587 0.0
C1023 C 0.67456 0.87817 0.64858 0.0
C1024 C 0.65956 0.89577 0.69329 0.0
H1025 H 0.67886 0.8699 0.55854 0.0
H1026 H 0.691 0.85805 0.65786 0.0
S1027 S 0.60286 0.96629 0.67622 0.0
N1028 N 0.61068 0.95427 0.61012 0.0
N1029 N 0.62393 0.94147 0.71808 0.0
C1030 C 0.63867 0.92193 0.67861 0.0
C1031 C 0.63145 0.92887 0.61997 0.0
C1032 C 0.66831 0.61133 0.08057 0.0
C1033 C 0.64612 0.58607 0.06713 0.0
C1034 C 0.67577 0.61922 0.13745 0.0
C1035 C 0.66136 0.60224 0.18343 0.0
H1036 H 0.67923 0.62602 0.04699 0.0
H1037 H 0.6921 0.63965 0.14525 0.0
S1038 S 0.6052 0.53094 0.17156 0.0
N1039 N 0.61238 0.54184 0.10465 0.0
N1040 N 0.62637 0.55669 0.21154 0.0
C1041 C 0.6406 0.57565 0.17066 0.0
C1042 C 0.63301 0.56757 0.11258 0.0
C1043 C 0.63043 0.42549 0.38867 0.0
C1044 C 0.64878 0.4093 0.43108 0.0
C1045 C 0.63629 0.4201 0.33034 0.0
C1046 C 0.6608 0.39829 0.31178 0.0
H1047 H 0.61045 0.44159 0.40038 0.0
H1048 H 0.62057 0.43229 0.29967 0.0
S1049 S 0.71897 0.35333 0.40546 0.0
N1050 N 0.69485 0.37314 0.45038 0.0
N1051 N 0.70592 0.36303 0.34075 0.0
C1052 C 0.68074 0.3835 0.35366 0.0
C1053 C 0.67471 0.38897 0.41324 0.0
C1054 C 0.82504 0.38308 0.6447 0.0
C1055 C 0.83808 0.40342 0.68766 0.0
C1056 C 0.83145 0.38887 0.58668 0.0
C1057 C 0.85121 0.41527 0.56904 0.0
H1058 H 0.81068 0.3617 0.65585 0.0
H1059 H 0.82178 0.37169 0.55565 0.0
S1060 S 0.88747 0.47865 0.66398 0.0
N1061 N 0.8689 0.45312 0.70813 0.0
N1062 N 0.88096 0.46401 0.59909 0.0
C1063 C 0.86277 0.43702 0.61129 0.0
C1064 C 0.85622 0.43109 0.67053 0.0
C1065 C 0.86693 0.57712 0.88967 0.0
C1066 C 0.84847 0.59228 0.93311 0.0
C1067 C 0.86121 0.58387 0.83177 0.0
C1068 C 0.83676 0.60612 0.81467 0.0
H1069 H 0.8868 0.56064 0.90032 0.0
H1070 H 0.87693 0.57232 0.80033 0.0
S1071 S 0.77867 0.64928 0.91116 0.0
N1072 N 0.80256 0.62827 0.95473 0.0
N1073 N 0.7918 0.64098 0.8459 0.0
C1074 C 0.81683 0.62007 0.85746 0.0
C1075 C 0.82268 0.61316 0.91661 0.0
C1076 C 0.32506 0.37793 0.85254 0.0
C1077 C 0.33755 0.39742 0.80795 0.0
C1078 C 0.32985 0.38644 0.90998 0.0
C1079 C 0.3472 0.41492 0.92538 0.0
H1080 H 0.3125 0.35517 0.84324 0.0
H1081 H 0.32067 0.36991 0.94253 0.0
S1082 S 0.38097 0.47679 0.82463 0.0
N1083 N 0.36524 0.44822 0.78285 0.0
N1084 N 0.37413 0.46438 0.89085 0.0
C1085 C 0.35816 0.4357 0.88116 0.0
C1086 C 0.3534 0.4269 0.82249 0.0
C1087 C 0.32707 0.61861 0.64306 0.0
C1088 C 0.34094 0.59915 0.68646 0.0
C1089 C 0.33384 0.61278 0.58519 0.0
C1090 C 0.35483 0.58723 0.56808 0.0
H1091 H 0.3117 0.63935 0.65374 0.0
H1092 H 0.32342 0.62932 0.55384 0.0
S1093 S 0.39373 0.5261 0.66431 0.0
N1094 N 0.37394 0.55101 0.70794 0.0
N1095 N 0.38672 0.54008 0.59912 0.0
C1096 C 0.36732 0.5663 0.61077 0.0
C1097 C 0.36037 0.57224 0.6699 0.0
C1098 C 0.12725 0.5736 0.38545 0.0
C1099 C 0.14702 0.58712 0.42878 0.0
C1100 C 0.13334 0.58 0.3275 0.0
C1101 C 0.15951 0.60018 0.31025 0.0
H1102 H 0.10609 0.55886 0.39625 0.0
H1103 H 0.1166 0.5699 0.29616 0.0
S1104 S 0.22141 0.63788 0.40638 0.0
N1105 N 0.19592 0.61894 0.4501 0.0
N1106 N 0.20741 0.63094 0.34121 0.0
C1107 C 0.18068 0.61226 0.35292 0.0
C1108 C 0.17444 0.60576 0.4121 0.0
C1109 C 0.17769 0.39007 0.14116 0.0
C1110 C 0.16109 0.40694 0.18493 0.0
C1111 C 0.17087 0.39605 0.08339 0.0
C1112 C 0.14716 0.41921 0.06674 0.0
H1113 H 0.19523 0.37106 0.1514 0.0
H1114 H 0.18349 0.38137 0.05166 0.0
S1115 S 0.10029 0.47361 0.16445 0.0
N1116 N 0.12244 0.45048 0.20755 0.0
N1117 N 0.10963 0.46174 0.09887 0.0
C1118 C 0.13194 0.43788 0.10992 0.0
C1119 C 0.13888 0.43173 0.16898 0.0
loop_
_geom_bond_atom_site_label_1
_geom_bond_atom_site_label_2
_geom_bond_distance
_geom_bond_site_symmetry_2
_ccdc_geom_bond_type
C0 O1 1.160 . S
C0 O7 1.185 . S
O1 C0 1.160 . S
O2 Zn3 1.899 . S
O2 C10 1.284 . S
Zn3 O2 1.899 . S
Zn3 O4 2.032 . S
Zn3 O7 2.086 . S
Zn3 O12 1.977 . S
O4 Zn3 2.032 . S
O4 C8 1.278 . S
C5 O6 1.203 . S
C5 O12 1.267 . S
O6 C5 1.203 . S
O7 C0 1.185 . S
O7 Zn3 2.086 . S
C8 O4 1.278 . S
C8 O9 1.211 . S
O9 C8 1.211 . S
C10 O2 1.284 . S
C10 O11 1.273 . S
O11 C10 1.273 . S
O12 Zn3 1.977 . S
O12 C5 1.267 . S
C13 O14 1.160 . S
C13 O20 1.185 . S
O14 C13 1.160 . S
O15 Zn16 1.899 . S
O15 C23 1.284 . S
Zn16 O15 1.899 . S
Zn16 O17 2.032 . S
Zn16 O20 2.086 . S
Zn16 O25 1.977 . S
O17 Zn16 2.032 . S
O17 C21 1.278 . S
C18 O19 1.203 . S
C18 O25 1.267 . S
O19 C18 1.203 . S
O20 C13 1.185 . S
O20 Zn16 2.086 . S
C21 O17 1.278 . S
C21 O22 1.211 . S
O22 C21 1.211 . S
C23 O15 1.284 . S
C23 O24 1.273 . S
O24 C23 1.273 . S
O25 Zn16 1.977 . S
O25 C18 1.267 . S
C26 O27 1.160 . S
C26 O33 1.185 . S
O27 C26 1.160 . S
O28 Zn29 1.899 . S
O28 C36 1.284 1_556 S
Zn29 O28 1.899 . S
Zn29 O30 2.032 . S
Zn29 O33 2.086 . S
Zn29 O38 1.977 . S
O30 Zn29 2.032 . S
O30 C34 1.278 . S
C31 O32 1.203 . S
C31 O38 1.267 . S
O32 C31 1.203 . S
O33 C26 1.185 . S
O33 Zn29 2.086 . S
C34 O30 1.278 . S
C34 O35 1.211 . S
O35 C34 1.211 . S
C36 O28 1.284 1_554 S
C36 O37 1.273 . S
O37 C36 1.273 . S
O38 Zn29 1.977 . S
O38 C31 1.267 . S
C39 O40 1.160 . S
C39 O46 1.185 . S
O40 C39 1.160 . S
O41 Zn42 1.899 . S
O41 C49 1.284 . S
Zn42 O41 1.899 . S
Zn42 O43 2.032 . S
Zn42 O46 2.086 . S
Zn42 O51 1.977 . S
O43 Zn42 2.032 . S
O43 C47 1.278 . S
C44 O45 1.203 . S
C44 O51 1.267 . S
O45 C44 1.203 . S
O46 C39 1.185 . S
O46 Zn42 2.086 . S
C47 O43 1.278 . S
C47 O48 1.211 . S
O48 C47 1.211 . S
C49 O41 1.284 . S
C49 O50 1.273 . S
O50 C49 1.273 . S
O51 Zn42 1.977 . S
O51 C44 1.267 . S
C52 O53 1.160 . S
C52 O59 1.185 . S
O53 C52 1.160 . S
O54 Zn55 1.899 . S
O54 C62 1.284 1_554 S
Zn55 O54 1.899 . S
Zn55 O56 2.032 . S
Zn55 O59 2.086 . S
Zn55 O64 1.977 . S
O56 Zn55 2.032 . S
O56 C60 1.278 . S
C57 O58 1.203 . S
C57 O64 1.267 . S
O58 C57 1.203 . S
O59 C52 1.185 . S
O59 Zn55 2.086 . S
C60 O56 1.278 . S
C60 O61 1.211 . S
O61 C60 1.211 . S
C62 O54 1.284 1_556 S
C62 O63 1.273 . S
O63 C62 1.273 . S
O64 Zn55 1.977 . S
O64 C57 1.267 . S
C65 O66 1.160 . S
C65 O72 1.185 . S
O66 C65 1.160 . S
O67 Zn68 1.899 . S
O67 C75 1.284 . S
Zn68 O67 1.899 . S
Zn68 O69 2.032 . S
Zn68 O72 2.086 . S
Zn68 O77 1.977 . S
O69 Zn68 2.032 . S
O69 C73 1.278 . S
C70 O71 1.203 . S
C70 O77 1.267 . S
O71 C70 1.203 . S
O72 C65 1.185 . S
O72 Zn68 2.086 . S
C73 O69 1.278 . S
C73 O74 1.211 . S
O74 C73 1.211 . S
C75 O67 1.284 . S
C75 O76 1.273 . S
O76 C75 1.273 . S
O77 Zn68 1.977 . S
O77 C70 1.267 . S
C78 O79 1.160 . S
C78 O85 1.185 . S
O79 C78 1.160 . S
O80 Zn81 1.899 . S
O80 C88 1.284 . S
Zn81 O80 1.899 . S
Zn81 O82 2.032 . S
Zn81 O85 2.086 . S
Zn81 O90 1.977 . S
O82 Zn81 2.032 . S
O82 C86 1.278 . S
C83 O84 1.203 . S
C83 O90 1.267 . S
O84 C83 1.203 . S
O85 C78 1.185 . S
O85 Zn81 2.086 . S
C86 O82 1.278 . S
C86 O87 1.211 . S
O87 C86 1.211 . S
C88 O80 1.284 . S
C88 O89 1.273 . S
O89 C88 1.273 . S
O90 Zn81 1.977 . S
O90 C83 1.267 . S
C91 O92 1.160 . S
C91 O98 1.185 . S
O92 C91 1.160 . S
O93 Zn94 1.899 . S
O93 C101 1.284 . S
Zn94 O93 1.899 . S
Zn94 O95 2.032 . S
Zn94 O98 2.086 . S
Zn94 O103 1.977 . S
O95 Zn94 2.032 . S
O95 C99 1.278 . S
C96 O97 1.203 . S
C96 O103 1.267 . S
O97 C96 1.203 . S
O98 C91 1.185 . S
O98 Zn94 2.086 . S
C99 O95 1.278 . S
C99 O100 1.211 . S
O100 C99 1.211 . S
C101 O93 1.284 . S
C101 O102 1.273 . S
O102 C101 1.273 . S
O103 Zn94 1.977 . S
O103 C96 1.267 . S
C104 O105 1.160 . S
C104 O111 1.185 . S
O105 C104 1.160 . S
O106 Zn107 1.899 . S
O106 C114 1.284 . S
Zn107 O106 1.899 . S
Zn107 O108 2.032 . S
Zn107 O111 2.086 . S
Zn107 O116 1.977 . S
O108 Zn107 2.032 . S
O108 C112 1.278 . S
C109 O110 1.203 . S
C109 O116 1.267 . S
O110 C109 1.203 . S
O111 C104 1.185 . S
O111 Zn107 2.086 . S
C112 O108 1.278 . S
C112 O113 1.211 . S
O113 C112 1.211 . S
C114 O106 1.284 . S
C114 O115 1.273 . S
O115 C114 1.273 . S
O116 Zn107 1.977 . S
O116 C109 1.267 . S
C117 O118 1.160 . S
C117 O124 1.185 . S
O118 C117 1.160 . S
O119 Zn120 1.899 . S
O119 C127 1.284 . S
Zn120 O119 1.899 . S
Zn120 O121 2.032 . S
Zn120 O124 2.086 . S
Zn120 O129 1.977 . S
O121 Zn120 2.032 . S
O121 C125 1.278 . S
C122 O123 1.203 . S
C122 O129 1.267 . S
O123 C122 1.203 . S
O124 C117 1.185 . S
O124 Zn120 2.086 . S
C125 O121 1.278 . S
C125 O126 1.211 . S
O126 C125 1.211 . S
C127 O119 1.284 . S
C127 O128 1.273 . S
O128 C127 1.273 . S
O129 Zn120 1.977 . S
O129 C122 1.267 . S
C130 O131 1.160 . S
C130 O137 1.185 . S
O131 C130 1.160 . S
O132 Zn133 1.899 . S
O132 C140 1.284 1_554 S
Zn133 O132 1.899 . S
Zn133 O134 2.032 . S
Zn133 O137 2.086 . S
Zn133 O142 1.977 . S
O134 Zn133 2.032 . S
O134 C138 1.278 . S
C135 O136 1.203 . S
C135 O142 1.267 . S
O136 C135 1.203 . S
O137 C130 1.185 . S
O137 Zn133 2.086 . S
C138 O134 1.278 . S
C138 O139 1.211 . S
O139 C138 1.211 . S
C140 O132 1.284 1_556 S
C140 O141 1.273 . S
O141 C140 1.273 . S
O142 Zn133 1.977 . S
O142 C135 1.267 . S
C143 O144 1.160 . S
C143 O150 1.185 . S
O144 C143 1.160 . S
O145 Zn146 1.899 . S
O145 C153 1.284 . S
Zn146 O145 1.899 . S
Zn146 O147 2.032 . S
Zn146 O150 2.086 . S
Zn146 O155 1.977 . S
O147 Zn146 2.032 . S
O147 C151 1.278 . S
C148 O149 1.203 . S
C148 O155 1.267 . S
O149 C148 1.203 . S
O150 C143 1.185 . S
O150 Zn146 2.086 . S
C151 O147 1.278 . S
C151 O152 1.211 . S
O152 C151 1.211 . S
C153 O145 1.284 . S
C153 O154 1.273 . S
O154 C153 1.273 . S
O155 Zn146 1.977 . S
O155 C148 1.267 . S
C156 O157 1.160 . S
C156 O163 1.185 . S
O157 C156 1.160 . S
O158 Zn159 1.899 . S
O158 C166 1.284 1_556 S
Zn159 O158 1.899 . S
Zn159 O160 2.032 . S
Zn159 O163 2.086 . S
Zn159 O168 1.977 . S
O160 Zn159 2.032 . S
O160 C164 1.278 . S
C161 O162 1.203 . S
C161 O168 1.267 . S
O162 C161 1.203 . S
O163 C156 1.185 . S
O163 Zn159 2.086 . S
C164 O160 1.278 . S
C164 O165 1.211 . S
O165 C164 1.211 . S
C166 O158 1.284 1_554 S
C166 O167 1.273 . S
O167 C166 1.273 . S
O168 Zn159 1.977 . S
O168 C161 1.267 . S
C169 O170 1.160 . S
C169 O176 1.185 . S
O170 C169 1.160 . S
O171 Zn172 1.899 . S
O171 C179 1.284 . S
Zn172 O171 1.899 . S
Zn172 O173 2.032 . S
Zn172 O176 2.086 . S
Zn172 O181 1.977 . S
O173 Zn172 2.032 . S
O173 C177 1.278 . S
C174 O175 1.203 . S
C174 O181 1.267 . S
O175 C174 1.203 . S
O176 C169 1.185 . S
O176 Zn172 2.086 . S
C177 O173 1.278 . S
C177 O178 1.211 . S
O178 C177 1.211 . S
C179 O171 1.284 . S
C179 O180 1.273 . S
O180 C179 1.273 . S
O181 Zn172 1.977 . S
O181 C174 1.267 . S
C182 O183 1.160 . S
C182 O189 1.185 . S
O183 C182 1.160 . S
O184 Zn185 1.899 . S
O184 C192 1.284 . S
Zn185 O184 1.899 . S
Zn185 O186 2.032 . S
Zn185 O189 2.086 . S
Zn185 O194 1.977 . S
O186 Zn185 2.032 . S
O186 C190 1.278 . S
C187 O188 1.203 . S
C187 O194 1.267 . S
O188 C187 1.203 . S
O189 C182 1.185 . S
O189 Zn185 2.086 . S
C190 O186 1.278 . S
C190 O191 1.211 . S
O191 C190 1.211 . S
C192 O184 1.284 . S
C192 O193 1.273 . S
O193 C192 1.273 . S
O194 Zn185 1.977 . S
O194 C187 1.267 . S
C195 O196 1.160 . S
C195 O202 1.185 . S
O196 C195 1.160 . S
O197 Zn198 1.899 . S
O197 C205 1.284 . S
Zn198 O197 1.899 . S
Zn198 O199 2.032 . S
Zn198 O202 2.086 . S
Zn198 O207 1.977 . S
O199 Zn198 2.032 . S
O199 C203 1.278 . S
C200 O201 1.203 . S
C200 O207 1.267 . S
O201 C200 1.203 . S
O202 C195 1.185 . S
O202 Zn198 2.086 . S
C203 O199 1.278 . S
C203 O204 1.211 . S
O204 C203 1.211 . S
C205 O197 1.284 . S
C205 O206 1.273 . S
O206 C205 1.273 . S
O207 Zn198 1.977 . S
O207 C200 1.267 . S
C208 O209 1.160 . S
C208 O215 1.185 . S
O209 C208 1.160 . S
O210 Zn211 1.899 . S
O210 C218 1.284 1_556 S
Zn211 O210 1.899 . S
Zn211 O212 2.032 . S
Zn211 O215 2.086 . S
Zn211 O220 1.977 . S
O212 Zn211 2.032 . S
O212 C216 1.278 . S
C213 O214 1.203 . S
C213 O220 1.267 . S
O214 C213 1.203 . S
O215 C208 1.185 . S
O215 Zn211 2.086 . S
C216 O212 1.278 . S
C216 O217 1.211 . S
O217 C216 1.211 . S
C218 O210 1.284 1_554 S
C218 O219 1.273 . S
O219 C218 1.273 . S
O220 Zn211 1.977 . S
O220 C213 1.267 . S
C221 O222 1.160 . S
C221 O228 1.185 . S
O222 C221 1.160 . S
O223 Zn224 1.899 . S
O223 C231 1.284 . S
Zn224 O223 1.899 . S
Zn224 O225 2.032 . S
Zn224 O228 2.086 . S
Zn224 O233 1.977 . S
O225 Zn224 2.032 . S
O225 C229 1.278 . S
C226 O227 1.203 . S
C226 O233 1.267 . S
O227 C226 1.203 . S
O228 C221 1.185 . S
O228 Zn224 2.086 . S
C229 O225 1.278 . S
C229 O230 1.211 . S
O230 C229 1.211 . S
C231 O223 1.284 . S
C231 O232 1.273 . S
O232 C231 1.273 . S
O233 Zn224 1.977 . S
O233 C226 1.267 . S
C234 O235 1.160 . S
C234 O241 1.185 . S
O235 C234 1.160 . S
O236 Zn237 1.899 . S
O236 C244 1.284 . S
Zn237 O236 1.899 . S
Zn237 O238 2.032 . S
Zn237 O241 2.086 . S
Zn237 O246 1.977 . S
O238 Zn237 2.032 . S
O238 C242 1.278 . S
C239 O240 1.203 . S
C239 O246 1.267 . S
O240 C239 1.203 . S
O241 C234 1.185 . S
O241 Zn237 2.086 . S
C242 O238 1.278 . S
C242 O243 1.211 . S
O243 C242 1.211 . S
C244 O236 1.284 . S
C244 O245 1.273 . S
O245 C244 1.273 . S
O246 Zn237 1.977 . S
O246 C239 1.267 . S
C247 O248 1.160 . S
C247 O254 1.185 . S
O248 C247 1.160 . S
O249 Zn250 1.899 . S
O249 C257 1.284 . S
Zn250 O249 1.899 . S
Zn250 O251 2.032 . S
Zn250 O254 2.086 . S
Zn250 O259 1.977 . S
O251 Zn250 2.032 . S
O251 C255 1.278 . S
C252 O253 1.203 . S
C252 O259 1.267 . S
O253 C252 1.203 . S
O254 C247 1.185 . S
O254 Zn250 2.086 . S
C255 O251 1.278 . S
C255 O256 1.211 . S
O256 C255 1.211 . S
C257 O249 1.284 . S
C257 O258 1.273 . S
O258 C257 1.273 . S
O259 Zn250 1.977 . S
O259 C252 1.267 . S
C260 O261 1.160 . S
C260 O267 1.185 . S
O261 C260 1.160 . S
O262 Zn263 1.899 . S
O262 C270 1.284 . S
Zn263 O262 1.899 . S
Zn263 O264 2.032 . S
Zn263 O267 2.086 . S
Zn263 O272 1.977 . S
O264 Zn263 2.032 . S
O264 C268 1.278 . S
C265 O266 1.203 . S
C265 O272 1.267 . S
O266 C265 1.203 . S
O267 C260 1.185 . S
O267 Zn263 2.086 . S
C268 O264 1.278 . S
C268 O269 1.211 . S
O269 C268 1.211 . S
C270 O262 1.284 . S
C270 O271 1.273 . S
O271 C270 1.273 . S
O272 Zn263 1.977 . S
O272 C265 1.267 . S
C273 O274 1.160 . S
C273 O280 1.185 . S
O274 C273 1.160 . S
O275 Zn276 1.899 . S
O275 C283 1.284 . S
Zn276 O275 1.899 . S
Zn276 O277 2.032 . S
Zn276 O280 2.086 . S
Zn276 O285 1.977 . S
O277 Zn276 2.032 . S
O277 C281 1.278 . S
C278 O279 1.203 . S
C278 O285 1.267 . S
O279 C278 1.203 . S
O280 C273 1.185 . S
O280 Zn276 2.086 . S
C281 O277 1.278 . S
C281 O282 1.211 . S
O282 C281 1.211 . S
C283 O275 1.284 . S
C283 O284 1.273 . S
O284 C283 1.273 . S
O285 Zn276 1.977 . S
O285 C278 1.267 . S
C286 O287 1.160 . S
C286 O293 1.185 . S
O287 C286 1.160 . S
O288 Zn289 1.899 . S
O288 C296 1.284 1_554 S
Zn289 O288 1.899 . S
Zn289 O290 2.032 . S
Zn289 O293 2.086 . S
Zn289 O298 1.977 . S
O290 Zn289 2.032 . S
O290 C294 1.278 . S
C291 O292 1.203 . S
C291 O298 1.267 . S
O292 C291 1.203 . S
O293 C286 1.185 . S
O293 Zn289 2.086 . S
C294 O290 1.278 . S
C294 O295 1.211 . S
O295 C294 1.211 . S
C296 O288 1.284 1_556 S
C296 O297 1.273 . S
O297 C296 1.273 . S
O298 Zn289 1.977 . S
O298 C291 1.267 . S
C299 O300 1.160 . S
C299 O306 1.185 . S
O300 C299 1.160 . S
O301 Zn302 1.899 . S
O301 C309 1.284 . S
Zn302 O301 1.899 . S
Zn302 O303 2.032 . S
Zn302 O306 2.086 . S
Zn302 O311 1.977 . S
O303 Zn302 2.032 . S
O303 C307 1.278 . S
C304 O305 1.203 . S
C304 O311 1.267 . S
O305 C304 1.203 . S
O306 C299 1.185 . S
O306 Zn302 2.086 . S
C307 O303 1.278 . S
C307 O308 1.211 . S
O308 C307 1.211 . S
C309 O301 1.284 . S
C309 O310 1.273 . S
O310 C309 1.273 . S
O311 Zn302 1.977 . S
O311 C304 1.267 . S
C312 O313 1.160 . S
C312 O319 1.185 . S
O313 C312 1.160 . S
O314 Zn315 1.899 . S
O314 C322 1.284 1_554 S
Zn315 O314 1.899 . S
Zn315 O316 2.032 . S
Zn315 O319 2.086 . S
Zn315 O324 1.977 . S
O316 Zn315 2.032 . S
O316 C320 1.278 . S
C317 O318 1.203 . S
C317 O324 1.267 . S
O318 C317 1.203 . S
O319 C312 1.185 . S
O319 Zn315 2.086 . S
C320 O316 1.278 . S
C320 O321 1.211 . S
O321 C320 1.211 . S
C322 O314 1.284 1_556 S
C322 O323 1.273 . S
O323 C322 1.273 . S
O324 Zn315 1.977 . S
O324 C317 1.267 . S
C325 O326 1.160 . S
C325 O332 1.185 . S
O326 C325 1.160 . S
O327 Zn328 1.899 . S
O327 C335 1.284 . S
Zn328 O327 1.899 . S
Zn328 O329 2.032 . S
Zn328 O332 2.086 . S
Zn328 O337 1.977 . S
O329 Zn328 2.032 . S
O329 C333 1.278 . S
C330 O331 1.203 . S
C330 O337 1.267 . S
O331 C330 1.203 . S
O332 C325 1.185 . S
O332 Zn328 2.086 . S
C333 O329 1.278 . S
C333 O334 1.211 . S
O334 C333 1.211 . S
C335 O327 1.284 . S
C335 O336 1.273 . S
O336 C335 1.273 . S
O337 Zn328 1.977 . S
O337 C330 1.267 . S
C338 O339 1.160 . S
C338 O345 1.185 . S
O339 C338 1.160 . S
O340 Zn341 1.899 . S
O340 C348 1.284 . S
Zn341 O340 1.899 . S
Zn341 O342 2.032 . S
Zn341 O345 2.086 . S
Zn341 O350 1.977 . S
O342 Zn341 2.032 . S
O342 C346 1.278 . S
C343 O344 1.203 . S
C343 O350 1.267 . S
O344 C343 1.203 . S
O345 C338 1.185 . S
O345 Zn341 2.086 . S
C346 O342 1.278 . S
C346 O347 1.211 . S
O347 C346 1.211 . S
C348 O340 1.284 . S
C348 O349 1.273 . S
O349 C348 1.273 . S
O350 Zn341 1.977 . S
O350 C343 1.267 . S
C351 O352 1.160 . S
C351 O358 1.185 . S
O352 C351 1.160 . S
O353 Zn354 1.899 . S
O353 C361 1.284 . S
Zn354 O353 1.899 . S
Zn354 O355 2.032 . S
Zn354 O358 2.086 . S
Zn354 O363 1.977 . S
O355 Zn354 2.032 . S
O355 C359 1.278 . S
C356 O357 1.203 . S
C356 O363 1.267 . S
O357 C356 1.203 . S
O358 C351 1.185 . S
O358 Zn354 2.086 . S
C359 O355 1.278 . S
C359 O360 1.211 . S
O360 C359 1.211 . S
C361 O353 1.284 . S
C361 O362 1.273 . S
O362 C361 1.273 . S
O363 Zn354 1.977 . S
O363 C356 1.267 . S
C364 O365 1.160 . S
C364 O371 1.185 . S
O365 C364 1.160 . S
O366 Zn367 1.899 . S
O366 C374 1.284 . S
Zn367 O366 1.899 . S
Zn367 O368 2.032 . S
Zn367 O371 2.086 . S
Zn367 O376 1.977 . S
O368 Zn367 2.032 . S
O368 C372 1.278 . S
C369 O370 1.203 . S
C369 O376 1.267 . S
O370 C369 1.203 . S
O371 C364 1.185 . S
O371 Zn367 2.086 . S
C372 O368 1.278 . S
C372 O373 1.211 . S
O373 C372 1.211 . S
C374 O366 1.284 . S
C374 O375 1.273 . S
O375 C374 1.273 . S
O376 Zn367 1.977 . S
O376 C369 1.267 . S
C377 O378 1.160 . S
C377 O384 1.185 . S
O378 C377 1.160 . S
O379 Zn380 1.899 . S
O379 C387 1.284 . S
Zn380 O379 1.899 . S
Zn380 O381 2.032 . S
Zn380 O384 2.086 . S
Zn380 O389 1.977 . S
O381 Zn380 2.032 . S
O381 C385 1.278 . S
C382 O383 1.203 . S
C382 O389 1.267 . S
O383 C382 1.203 . S
O384 C377 1.185 . S
O384 Zn380 2.086 . S
C385 O381 1.278 . S
C385 O386 1.211 . S
O386 C385 1.211 . S
C387 O379 1.284 . S
C387 O388 1.273 . S
O388 C387 1.273 . S
O389 Zn380 1.977 . S
O389 C382 1.267 . S
C390 O391 1.160 . S
C390 O397 1.185 . S
O391 C390 1.160 . S
O392 Zn393 1.899 . S
O392 C400 1.284 1_556 S
Zn393 O392 1.899 . S
Zn393 O394 2.032 . S
Zn393 O397 2.086 . S
Zn393 O402 1.977 . S
O394 Zn393 2.032 . S
O394 C398 1.278 . S
C395 O396 1.203 . S
C395 O402 1.267 . S
O396 C395 1.203 . S
O397 C390 1.185 . S
O397 Zn393 2.086 . S
C398 O394 1.278 . S
C398 O399 1.211 . S
O399 C398 1.211 . S
C400 O392 1.284 1_554 S
C400 O401 1.273 . S
O401 C400 1.273 . S
O402 Zn393 1.977 . S
O402 C395 1.267 . S
C403 O404 1.160 . S
C403 O410 1.185 . S
O404 C403 1.160 . S
O405 Zn406 1.899 . S
O405 C413 1.284 . S
Zn406 O405 1.899 . S
Zn406 O407 2.032 . S
Zn406 O410 2.086 . S
Zn406 O415 1.977 . S
O407 Zn406 2.032 . S
O407 C411 1.278 . S
C408 O409 1.203 . S
C408 O415 1.267 . S
O409 C408 1.203 . S
O410 C403 1.185 . S
O410 Zn406 2.086 . S
C411 O407 1.278 . S
C411 O412 1.211 . S
O412 C411 1.211 . S
C413 O405 1.284 . S
C413 O414 1.273 . S
O414 C413 1.273 . S
O415 Zn406 1.977 . S
O415 C408 1.267 . S
C416 C417 1.369 1_565 S
C416 C418 1.419 . S
C416 H420 0.930 . S
C417 C416 1.369 1_545 S
C417 C426 1.429 . S
C418 C416 1.419 . S
C418 C419 1.363 . S
C418 H421 0.929 . S
C419 C418 1.363 . S
C419 C425 1.428 1_565 S
H420 C416 0.930 . S
H421 C418 0.929 . S
S422 N423 1.613 . S
S422 N424 1.610 . S
N423 S422 1.613 . S
N423 C426 1.350 . S
N424 S422 1.610 . S
N424 C425 1.351 . S
C425 C419 1.428 1_545 S
C425 N424 1.351 . S
C425 C426 1.434 . S
C426 C417 1.429 . S
C426 N423 1.350 . S
C426 C425 1.434 . S
C427 C428 1.369 . S
C427 C429 1.419 . S
C427 H431 0.930 . S
C428 C427 1.369 . S
C428 C437 1.429 . S
C429 C427 1.419 . S
C429 C430 1.363 . S
C429 H432 0.929 . S
C430 C429 1.363 . S
C430 C436 1.428 . S
H431 C427 0.930 . S
H432 C429 0.929 . S
S433 N434 1.613 . S
S433 N435 1.610 . S
N434 S433 1.613 . S
N434 C437 1.350 . S
N435 S433 1.610 . S
N435 C436 1.351 . S
C436 C430 1.428 . S
C436 N435 1.351 . S
C436 C437 1.434 . S
C437 C428 1.429 . S
C437 N434 1.350 . S
C437 C436 1.434 . S
C438 C439 1.369 . S
C438 C440 1.419 . S
C438 H442 0.930 . S
C439 C438 1.369 . S
C439 C448 1.429 1_545 S
C440 C438 1.419 . S
C440 C441 1.363 1_545 S
C440 H443 0.929 . S
C441 C440 1.363 1_565 S
C441 C447 1.428 . S
H442 C438 0.930 . S
H443 C440 0.929 . S
S444 N445 1.613 . S
S444 N446 1.610 . S
N445 S444 1.613 . S
N445 C448 1.350 . S
N446 S444 1.610 . S
N446 C447 1.351 . S
C447 C441 1.428 . S
C447 N446 1.351 . S
C447 C448 1.434 . S
C448 C439 1.429 1_565 S
C448 N445 1.350 . S
C448 C447 1.434 . S
C449 C450 1.369 . S
C449 C451 1.419 1_556 S
C449 H453 0.930 . S
C450 C449 1.369 . S
C450 C459 1.429 . S
C451 C449 1.419 1_554 S
C451 C452 1.363 . S
C451 H454 0.929 . S
C452 C451 1.363 . S
C452 C458 1.428 . S
H453 C449 0.930 . S
H454 C451 0.929 . S
S455 N456 1.613 . S
S455 N457 1.610 1_556 S
N456 S455 1.613 . S
N456 C459 1.350 . S
N457 S455 1.610 1_554 S
N457 C458 1.351 . S
C458 C452 1.428 . S
C458 N457 1.351 . S
C458 C459 1.434 1_554 S
C459 C450 1.429 . S
C459 N456 1.350 . S
C459 C458 1.434 1_556 S
C460 C461 1.369 1_545 S
C460 C462 1.419 . S
C460 H464 0.930 . S
C461 C460 1.369 1_565 S
C461 C470 1.429 . S
C462 C460 1.419 . S
C462 C463 1.363 . S
C462 H465 0.929 . S
C463 C462 1.363 . S
C463 C469 1.428 1_545 S
H464 C460 0.930 . S
H465 C462 0.929 . S
S466 N467 1.613 . S
S466 N468 1.610 . S
N467 S466 1.613 . S
N467 C470 1.350 . S
N468 S466 1.610 . S
N468 C469 1.351 . S
C469 C463 1.428 1_565 S
C469 N468 1.351 . S
C469 C470 1.434 . S
C470 C461 1.429 . S
C470 N467 1.350 . S
C470 C469 1.434 . S
C471 C472 1.369 . S
C471 C473 1.419 . S
C471 H475 0.930 . S
C472 C471 1.369 . S
C472 C481 1.429 . S
C473 C471 1.419 . S
C473 C474 1.363 . S
C473 H476 0.929 . S
C474 C473 1.363 . S
C474 C480 1.428 . S
H475 C471 0.930 . S
H476 C473 0.929 . S
S477 N478 1.613 . S
S477 N479 1.610 . S
N478 S477 1.613 . S
N478 C481 1.350 . S
N479 S477 1.610 . S
N479 C480 1.351 . S
C480 C474 1.428 . S
C480 N479 1.351 . S
C480 C481 1.434 . S
C481 C472 1.429 . S
C481 N478 1.350 . S
C481 C480 1.434 . S
C482 C483 1.369 . S
C482 C484 1.419 1_565 S
C482 H486 0.930 . S
C483 C482 1.369 . S
C483 C492 1.429 . S
C484 C482 1.419 1_545 S
C484 C485 1.363 . S
C484 H487 0.929 . S
C485 C484 1.363 . S
C485 C491 1.428 . S
H486 C482 0.930 . S
H487 C484 0.929 . S
S488 N489 1.613 1_545 S
S488 N490 1.610 . S
N489 S488 1.613 1_565 S
N489 C492 1.350 . S
N490 S488 1.610 . S
N490 C491 1.351 . S
C491 C485 1.428 . S
C491 N490 1.351 . S
C491 C492 1.434 1_545 S
C492 C483 1.429 . S
C492 N489 1.350 . S
C492 C491 1.434 1_565 S
C493 C494 1.369 . S
C493 C495 1.419 1_556 S
C493 H497 0.930 . S
C494 C493 1.369 . S
C494 C503 1.429 . S
C495 C493 1.419 1_554 S
C495 C496 1.363 . S
C495 H498 0.929 . S
C496 C495 1.363 . S
C496 C502 1.428 . S
H497 C493 0.930 . S
H498 C495 0.929 . S
S499 N500 1.613 1_554 S
S499 N501 1.610 . S
N500 S499 1.613 1_556 S
N500 C503 1.350 . S
N501 S499 1.610 . S
N501 C502 1.351 . S
C502 C496 1.428 . S
C502 N501 1.351 . S
C502 C503 1.434 1_554 S
C503 C494 1.429 . S
C503 N500 1.350 . S
C503 C502 1.434 1_556 S
C504 C505 1.369 . S
C504 C506 1.419 . S
C504 H508 0.930 . S
C505 C504 1.369 . S
C505 C514 1.429 . S
C506 C504 1.419 . S
C506 C507 1.363 . S
C506 H509 0.929 . S
C507 C506 1.363 . S
C507 C513 1.428 . S
H508 C504 0.930 . S
H509 C506 0.929 . S
S510 N511 1.613 . S
S510 N512 1.610 . S
N511 S510 1.613 . S
N511 C514 1.350 . S
N512 S510 1.610 . S
N512 C513 1.351 . S
C513 C507 1.428 . S
C513 N512 1.351 . S
C513 C514 1.434 . S
C514 C505 1.429 . S
C514 N511 1.350 . S
C514 C513 1.434 . S
C515 C516 1.369 . S
C515 C517 1.419 1_556 S
C515 H519 0.930 . S
C516 C515 1.369 . S
C516 C525 1.429 . S
C517 C515 1.419 1_554 S
C517 C518 1.363 . S
C517 H520 0.929 . S
C518 C517 1.363 . S
C518 C524 1.428 . S
H519 C515 0.930 . S
H520 C517 0.929 . S
S521 N522 1.613 1_554 S
S521 N523 1.610 . S
N522 S521 1.613 1_556 S
N522 C525 1.350 . S
N523 S521 1.610 . S
N523 C524 1.351 . S
C524 C518 1.428 . S
C524 N523 1.351 . S
C524 C525 1.434 1_554 S
C525 C516 1.429 . S
C525 N522 1.350 . S
C525 C524 1.434 1_556 S
C526 C527 1.369 . S
C526 C528 1.419 . S
C526 H530 0.930 . S
C527 C526 1.369 . S
C527 C536 1.429 . S
C528 C526 1.419 . S
C528 C529 1.363 . S
C528 H531 0.929 . S
C529 C528 1.363 . S
C529 C535 1.428 . S
H530 C526 0.930 . S
H531 C528 0.929 . S
S532 N533 1.613 . S
S532 N534 1.610 . S
N533 S532 1.613 . S
N533 C536 1.350 . S
N534 S532 1.610 . S
N534 C535 1.351 . S
C535 C529 1.428 . S
C535 N534 1.351 . S
C535 C536 1.434 . S
C536 C527 1.429 . S
C536 N533 1.350 . S
C536 C535 1.434 . S
C537 C538 1.369 . S
C537 C539 1.419 . S
C537 H541 0.930 . S
C538 C537 1.369 . S
C538 C547 1.429 . S
C539 C537 1.419 . S
C539 C540 1.363 . S
C539 H542 0.929 . S
C540 C539 1.363 . S
C540 C546 1.428 . S
H541 C537 0.930 . S
H542 C539 0.929 . S
S543 N544 1.613 . S
S543 N545 1.610 . S
N544 S543 1.613 . S
N544 C547 1.350 . S
N545 S543 1.610 . S
N545 C546 1.351 . S
C546 C540 1.428 . S
C546 N545 1.351 . S
C546 C547 1.434 . S
C547 C538 1.429 . S
C547 N544 1.350 . S
C547 C546 1.434 . S
C548 C549 1.369 . S
C548 C550 1.419 . S
C548 H552 0.930 . S
C549 C548 1.369 . S
C549 C558 1.429 . S
C550 C548 1.419 . S
C550 C551 1.363 . S
C550 H553 0.929 . S
C551 C550 1.363 . S
C551 C557 1.428 . S
H552 C548 0.930 . S
H553 C550 0.929 . S
S554 N555 1.613 . S
S554 N556 1.610 . S
N555 S554 1.613 . S
N555 C558 1.350 . S
N556 S554 1.610 . S
N556 C557 1.351 . S
C557 C551 1.428 . S
C557 N556 1.351 . S
C557 C558 1.434 . S
C558 C549 1.429 . S
C558 N555 1.350 . S
C558 C557 1.434 . S
C559 C560 1.369 . S
C559 C561 1.419 1_554 S
C559 H563 0.930 . S
C560 C559 1.369 . S
C560 C569 1.429 . S
C561 C559 1.419 1_556 S
C561 C562 1.363 . S
C561 H564 0.929 . S
C562 C561 1.363 . S
C562 C568 1.428 . S
H563 C559 0.930 . S
H564 C561 0.929 . S
S565 N566 1.613 . S
S565 N567 1.610 1_554 S
N566 S565 1.613 . S
N566 C569 1.350 . S
N567 S565 1.610 1_556 S
N567 C568 1.351 . S
C568 C562 1.428 . S
C568 N567 1.351 . S
C568 C569 1.434 1_556 S
C569 C560 1.429 . S
C569 N566 1.350 . S
C569 C568 1.434 1_554 S
C570 C571 1.369 . S
C570 C572 1.419 . S
C570 H574 0.930 . S
C571 C570 1.369 . S
C571 C580 1.429 . S
C572 C570 1.419 . S
C572 C573 1.363 . S
C572 H575 0.929 . S
C573 C572 1.363 . S
C573 C579 1.428 . S
H574 C570 0.930 . S
H575 C572 0.929 . S
S576 N577 1.613 . S
S576 N578 1.610 . S
N577 S576 1.613 . S
N577 C580 1.350 . S
N578 S576 1.610 . S
N578 C579 1.351 . S
C579 C573 1.428 . S
C579 N578 1.351 . S
C579 C580 1.434 . S
C580 C571 1.429 . S
C580 N577 1.350 . S
C580 C579 1.434 . S
C581 C582 1.369 . S
C581 C583 1.419 . S
C581 H585 0.930 . S
C582 C581 1.369 . S
C582 C591 1.429 . S
C583 C581 1.419 . S
C583 C584 1.363 . S
C583 H586 0.929 . S
C584 C583 1.363 . S
C584 C590 1.428 . S
H585 C581 0.930 . S
H586 C583 0.929 . S
S587 N588 1.613 . S
S587 N589 1.610 . S
N588 S587 1.613 . S
N588 C591 1.350 . S
N589 S587 1.610 . S
N589 C590 1.351 . S
C590 C584 1.428 . S
C590 N589 1.351 . S
C590 C591 1.434 . S
C591 C582 1.429 . S
C591 N588 1.350 . S
C591 C590 1.434 . S
C592 C593 1.369 . S
C592 C594 1.419 . S
C592 H596 0.930 . S
C593 C592 1.369 . S
C593 C602 1.429 . S
C594 C592 1.419 . S
C594 C595 1.363 . S
C594 H597 0.929 . S
C595 C594 1.363 . S
C595 C601 1.428 . S
H596 C592 0.930 . S
H597 C594 0.929 . S
S598 N599 1.613 . S
S598 N600 1.610 . S
N599 S598 1.613 . S
N599 C602 1.350 . S
N600 S598 1.610 . S
N600 C601 1.351 . S
C601 C595 1.428 . S
C601 N600 1.351 . S
C601 C602 1.434 . S
C602 C593 1.429 . S
C602 N599 1.350 . S
C602 C601 1.434 . S
C603 C604 1.369 . S
C603 C605 1.419 1_655 S
C603 H607 0.930 . S
C604 C603 1.369 . S
C604 C613 1.429 . S
C605 C603 1.419 1_455 S
C605 C606 1.363 . S
C605 H608 0.929 . S
C606 C605 1.363 . S
C606 C612 1.428 . S
H607 C603 0.930 . S
H608 C605 0.929 . S
S609 N610 1.613 1_455 S
S609 N611 1.610 . S
N610 S609 1.613 1_655 S
N610 C613 1.350 . S
N611 S609 1.610 . S
N611 C612 1.351 . S
C612 C606 1.428 . S
C612 N611 1.351 . S
C612 C613 1.434 1_455 S
C613 C604 1.429 . S
C613 N610 1.350 . S
C613 C612 1.434 1_655 S
C614 C615 1.369 . S
C614 C616 1.419 . S
C614 H618 0.930 . S
C615 C614 1.369 . S
C615 C624 1.429 . S
C616 C614 1.419 . S
C616 C617 1.363 . S
C616 H619 0.929 . S
C617 C616 1.363 . S
C617 C623 1.428 . S
H618 C614 0.930 . S
H619 C616 0.929 . S
S620 N621 1.613 . S
S620 N622 1.610 . S
N621 S620 1.613 . S
N621 C624 1.350 . S
N622 S620 1.610 . S
N622 C623 1.351 . S
C623 C617 1.428 . S
C623 N622 1.351 . S
C623 C624 1.434 . S
C624 C615 1.429 . S
C624 N621 1.350 . S
C624 C623 1.434 . S
C625 C626 1.369 . S
C625 C627 1.419 . S
C625 H629 0.930 . S
C626 C625 1.369 . S
C626 C635 1.429 . S
C627 C625 1.419 . S
C627 C628 1.363 . S
C627 H630 0.929 . S
C628 C627 1.363 . S
C628 C634 1.428 . S
H629 C625 0.930 . S
H630 C627 0.929 . S
S631 N632 1.613 . S
S631 N633 1.610 . S
N632 S631 1.613 . S
N632 C635 1.350 . S
N633 S631 1.610 . S
N633 C634 1.351 . S
C634 C628 1.428 . S
C634 N633 1.351 . S
C634 C635 1.434 . S
C635 C626 1.429 . S
C635 N632 1.350 . S
C635 C634 1.434 . S
C636 C637 1.369 . S
C636 C638 1.419 . S
C636 H640 0.930 . S
C637 C636 1.369 . S
C637 C646 1.429 . S
C638 C636 1.419 . S
C638 C639 1.363 . S
C638 H641 0.929 . S
C639 C638 1.363 . S
C639 C645 1.428 . S
H640 C636 0.930 . S
H641 C638 0.929 . S
S642 N643 1.613 . S
S642 N644 1.610 . S
N643 S642 1.613 . S
N643 C646 1.350 . S
N644 S642 1.610 . S
N644 C645 1.351 . S
C645 C639 1.428 . S
C645 N644 1.351 . S
C645 C646 1.434 . S
C646 C637 1.429 . S
C646 N643 1.350 . S
C646 C645 1.434 . S
C647 C648 1.369 . S
C647 C649 1.419 . S
C647 H651 0.930 . S
C648 C647 1.369 . S
C648 C657 1.429 . S
C649 C647 1.419 . S
C649 C650 1.363 . S
C649 H652 0.929 . S
C650 C649 1.363 . S
C650 C656 1.428 . S
H651 C647 0.930 . S
H652 C649 0.929 . S
S653 N654 1.613 . S
S653 N655 1.610 . S
N654 S653 1.613 . S
N654 C657 1.350 . S
N655 S653 1.610 . S
N655 C656 1.351 . S
C656 C650 1.428 . S
C656 N655 1.351 . S
C656 C657 1.434 . S
C657 C648 1.429 . S
C657 N654 1.350 . S
C657 C656 1.434 . S
C658 C659 1.369 . S
C658 C660 1.419 . S
C658 H662 0.930 . S
C659 C658 1.369 . S
C659 C668 1.429 . S
C660 C658 1.419 . S
C660 C661 1.363 . S
C660 H663 0.929 . S
C661 C660 1.363 . S
C661 C667 1.428 . S
H662 C658 0.930 . S
H663 C660 0.929 . S
S664 N665 1.613 . S
S664 N666 1.610 . S
N665 S664 1.613 . S
N665 C668 1.350 . S
N666 S664 1.610 . S
N666 C667 1.351 . S
C667 C661 1.428 . S
C667 N666 1.351 . S
C667 C668 1.434 . S
C668 C659 1.429 . S
C668 N665 1.350 . S
C668 C667 1.434 . S
C669 C670 1.369 . S
C669 C671 1.419 1_455 S
C669 H673 0.930 . S
C670 C669 1.369 . S
C670 C679 1.429 . S
C671 C669 1.419 1_655 S
C671 C672 1.363 . S
C671 H674 0.929 . S
C672 C671 1.363 . S
C672 C678 1.428 . S
H673 C669 0.930 . S
H674 C671 0.929 . S
S675 N676 1.613 . S
S675 N677 1.610 1_455 S
N676 S675 1.613 . S
N676 C679 1.350 . S
N677 S675 1.610 1_655 S
N677 C678 1.351 . S
C678 C672 1.428 . S
C678 N677 1.351 . S
C678 C679 1.434 1_655 S
C679 C670 1.429 . S
C679 N676 1.350 . S
C679 C678 1.434 1_455 S
C680 C681 1.369 . S
C680 C682 1.419 . S
C680 H684 0.930 . S
C681 C680 1.369 . S
C681 C690 1.429 . S
C682 C680 1.419 . S
C682 C683 1.363 . S
C682 H685 0.929 . S
C683 C682 1.363 . S
C683 C689 1.428 . S
H684 C680 0.930 . S
H685 C682 0.929 . S
S686 N687 1.613 . S
S686 N688 1.610 . S
N687 S686 1.613 . S
N687 C690 1.350 . S
N688 S686 1.610 . S
N688 C689 1.351 . S
C689 C683 1.428 . S
C689 N688 1.351 . S
C689 C690 1.434 . S
C690 C681 1.429 . S
C690 N687 1.350 . S
C690 C689 1.434 . S
C691 C692 1.369 . S
C691 C693 1.419 1_655 S
C691 H695 0.930 . S
C692 C691 1.369 . S
C692 C701 1.429 . S
C693 C691 1.419 1_455 S
C693 C694 1.363 . S
C693 H696 0.929 . S
C694 C693 1.363 . S
C694 C700 1.428 . S
H695 C691 0.930 . S
H696 C693 0.929 . S
S697 N698 1.613 . S
S697 N699 1.610 1_655 S
N698 S697 1.613 . S
N698 C701 1.350 . S
N699 S697 1.610 1_455 S
N699 C700 1.351 . S
C700 C694 1.428 . S
C700 N699 1.351 . S
C700 C701 1.434 1_455 S
C701 C692 1.429 . S
C701 N698 1.350 . S
C701 C700 1.434 1_655 S
C702 C703 1.369 . S
C702 C704 1.419 . S
C702 H706 0.930 . S
C703 C702 1.369 . S
C703 C712 1.429 . S
C704 C702 1.419 . S
C704 C705 1.363 . S
C704 H707 0.929 . S
C705 C704 1.363 . S
C705 C711 1.428 . S
H706 C702 0.930 . S
H707 C704 0.929 . S
S708 N709 1.613 1_556 S
S708 N710 1.610 1_556 S
N709 S708 1.613 1_554 S
N709 C712 1.350 . S
N710 S708 1.610 1_554 S
N710 C711 1.351 . S
C711 C705 1.428 . S
C711 N710 1.351 . S
C711 C712 1.434 . S
C712 C703 1.429 . S
C712 N709 1.350 . S
C712 C711 1.434 . S
C713 C714 1.369 . S
C713 C715 1.419 . S
C713 H717 0.930 . S
C714 C713 1.369 . S
C714 C723 1.429 . S
C715 C713 1.419 . S
C715 C716 1.363 . S
C715 H718 0.929 . S
C716 C715 1.363 . S
C716 C722 1.428 . S
H717 C713 0.930 . S
H718 C715 0.929 . S
S719 N720 1.613 . S
S719 N721 1.610 . S
N720 S719 1.613 . S
N720 C723 1.350 . S
N721 S719 1.610 . S
N721 C722 1.351 . S
C722 C716 1.428 . S
C722 N721 1.351 . S
C722 C723 1.434 . S
C723 C714 1.429 . S
C723 N720 1.350 . S
C723 C722 1.434 . S
C724 C725 1.369 . S
C724 C726 1.419 . S
C724 H728 0.930 . S
C725 C724 1.369 . S
C725 C734 1.429 . S
C726 C724 1.419 . S
C726 C727 1.363 . S
C726 H729 0.929 . S
C727 C726 1.363 . S
C727 C733 1.428 . S
H728 C724 0.930 . S
H729 C726 0.929 . S
S730 N731 1.613 . S
S730 N732 1.610 . S
N731 S730 1.613 . S
N731 C734 1.350 . S
N732 S730 1.610 . S
N732 C733 1.351 . S
C733 C727 1.428 . S
C733 N732 1.351 . S
C733 C734 1.434 . S
C734 C725 1.429 . S
C734 N731 1.350 . S
C734 C733 1.434 . S
C735 C736 1.369 . S
C735 C737 1.419 . S
C735 H739 0.930 . S
C736 C735 1.369 . S
C736 C745 1.429 . S
C737 C735 1.419 . S
C737 C738 1.363 . S
C737 H740 0.929 . S
C738 C737 1.363 . S
C738 C744 1.428 . S
H739 C735 0.930 . S
H740 C737 0.929 . S
S741 N742 1.613 . S
S741 N743 1.610 . S
N742 S741 1.613 . S
N742 C745 1.350 . S
N743 S741 1.610 . S
N743 C744 1.351 . S
C744 C738 1.428 . S
C744 N743 1.351 . S
C744 C745 1.434 . S
C745 C736 1.429 . S
C745 N742 1.350 . S
C745 C744 1.434 . S
C746 C747 1.369 . S
C746 C748 1.419 . S
C746 H750 0.930 . S
C747 C746 1.369 . S
C747 C756 1.429 . S
C748 C746 1.419 . S
C748 C749 1.363 . S
C748 H751 0.929 . S
C749 C748 1.363 . S
C749 C755 1.428 . S
H750 C746 0.930 . S
H751 C748 0.929 . S
S752 N753 1.613 . S
S752 N754 1.610 . S
N753 S752 1.613 . S
N753 C756 1.350 . S
N754 S752 1.610 . S
N754 C755 1.351 . S
C755 C749 1.428 . S
C755 N754 1.351 . S
C755 C756 1.434 . S
C756 C747 1.429 . S
C756 N753 1.350 . S
C756 C755 1.434 . S
C757 C758 1.369 . S
C757 C759 1.419 1_655 S
C757 H761 0.930 . S
C758 C757 1.369 . S
C758 C767 1.429 . S
C759 C757 1.419 1_455 S
C759 C760 1.363 . S
C759 H762 0.929 . S
C760 C759 1.363 . S
C760 C766 1.428 . S
H761 C757 0.930 . S
H762 C759 0.929 . S
S763 N764 1.622 . S
S763 N765 1.603 1_655 S
N764 S763 1.622 . S
N764 C767 1.350 . S
N765 S763 1.603 1_455 S
N765 C766 1.351 . S
C766 C760 1.428 . S
C766 N765 1.351 . S
C766 C767 1.434 1_455 S
C767 C758 1.429 . S
C767 N764 1.350 . S
C767 C766 1.434 1_655 S
C768 C769 1.369 . S
C768 C770 1.419 . S
C768 H772 0.930 . S
C769 C768 1.369 . S
C769 C778 1.429 . S
C770 C768 1.419 . S
C770 C771 1.363 . S
C770 H773 0.929 . S
C771 C770 1.363 . S
C771 C777 1.428 . S
H772 C768 0.930 . S
H773 C770 0.929 . S
S774 N775 1.613 . S
S774 N776 1.610 . S
N775 S774 1.613 . S
N775 C778 1.350 . S
N776 S774 1.610 . S
N776 C777 1.351 . S
C777 C771 1.428 . S
C777 N776 1.351 . S
C777 C778 1.434 . S
C778 C769 1.429 . S
C778 N775 1.350 . S
C778 C777 1.434 . S
C779 C780 1.369 . S
C779 C781 1.419 . S
C779 H783 0.930 . S
C780 C779 1.369 . S
C780 C789 1.429 . S
C781 C779 1.419 . S
C781 C782 1.363 . S
C781 H784 0.929 . S
C782 C781 1.363 . S
C782 C788 1.428 . S
H783 C779 0.930 . S
H784 C781 0.929 . S
S785 N786 1.613 . S
S785 N787 1.610 . S
N786 S785 1.613 . S
N786 C789 1.350 . S
N787 S785 1.610 . S
N787 C788 1.351 . S
C788 C782 1.428 . S
C788 N787 1.351 . S
C788 C789 1.434 . S
C789 C780 1.429 . S
C789 N786 1.350 . S
C789 C788 1.434 . S
C790 C791 1.369 . S
C790 C792 1.419 . S
C790 H794 0.930 . S
C791 C790 1.369 . S
C791 C800 1.429 . S
C792 C790 1.419 . S
C792 C793 1.363 . S
C792 H795 0.929 . S
C793 C792 1.363 . S
C793 C799 1.428 . S
H794 C790 0.930 . S
H795 C792 0.929 . S
S796 N797 1.613 . S
S796 N798 1.610 . S
N797 S796 1.613 . S
N797 C800 1.350 . S
N798 S796 1.610 . S
N798 C799 1.351 . S
C799 C793 1.428 . S
C799 N798 1.351 . S
C799 C800 1.434 . S
C800 C791 1.429 . S
C800 N797 1.350 . S
C800 C799 1.434 . S
C801 C802 1.369 . S
C801 C803 1.419 1_655 S
C801 H805 0.930 . S
C802 C801 1.369 . S
C802 C811 1.429 . S
C803 C801 1.419 1_455 S
C803 C804 1.363 . S
C803 H806 0.929 . S
C804 C803 1.363 . S
C804 C810 1.428 . S
H805 C801 0.930 . S
H806 C803 0.929 . S
S807 N808 1.613 . S
S807 N809 1.610 1_655 S
N808 S807 1.613 . S
N808 C811 1.350 . S
N809 S807 1.610 1_455 S
N809 C810 1.351 . S
C810 C804 1.428 . S
C810 N809 1.351 . S
C810 C811 1.434 1_455 S
C811 C802 1.429 . S
C811 N808 1.350 . S
C811 C810 1.434 1_655 S
C812 C813 1.369 . S
C812 C814 1.419 . S
C812 H816 0.930 . S
C813 C812 1.369 . S
C813 C822 1.429 . S
C814 C812 1.419 . S
C814 C815 1.363 . S
C814 H817 0.929 . S
C815 C814 1.363 . S
C815 C821 1.428 . S
H816 C812 0.930 . S
H817 C814 0.929 . S
S818 N819 1.613 . S
S818 N820 1.610 . S
N819 S818 1.613 . S
N819 C822 1.350 . S
N820 S818 1.610 . S
N820 C821 1.351 . S
C821 C815 1.428 . S
C821 N820 1.351 . S
C821 C822 1.434 . S
C822 C813 1.429 . S
C822 N819 1.350 . S
C822 C821 1.434 . S
C823 C824 1.369 . S
C823 C825 1.419 1_455 S
C823 H827 0.930 . S
C824 C823 1.369 . S
C824 C833 1.429 . S
C825 C823 1.419 1_655 S
C825 C826 1.363 . S
C825 H828 0.929 . S
C826 C825 1.363 . S
C826 C832 1.428 . S
H827 C823 0.930 . S
H828 C825 0.929 . S
S829 N830 1.613 1_654 S
S829 N831 1.610 1_554 S
N830 S829 1.613 1_456 S
N830 C833 1.350 . S
N831 S829 1.610 1_556 S
N831 C832 1.351 . S
C832 C826 1.428 . S
C832 N831 1.351 . S
C832 C833 1.434 1_655 S
C833 C824 1.429 . S
C833 N830 1.350 . S
C833 C832 1.434 1_455 S
C834 C835 1.369 . S
C834 C836 1.419 . S
C834 H838 0.930 . S
C835 C834 1.369 . S
C835 C844 1.429 . S
C836 C834 1.419 . S
C836 C837 1.363 . S
C836 H839 0.929 . S
C837 C836 1.363 . S
C837 C843 1.428 . S
H838 C834 0.930 . S
H839 C836 0.929 . S
S840 N841 1.613 . S
S840 N842 1.610 . S
N841 S840 1.613 . S
N841 C844 1.350 . S
N842 S840 1.610 . S
N842 C843 1.351 . S
C843 C837 1.428 . S
C843 N842 1.351 . S
C843 C844 1.434 . S
C844 C835 1.429 . S
C844 N841 1.350 . S
C844 C843 1.434 . S
C845 C846 1.369 . S
C845 C847 1.419 . S
C845 H849 0.930 . S
C846 C845 1.369 . S
C846 C855 1.429 . S
C847 C845 1.419 . S
C847 C848 1.363 . S
C847 H850 0.929 . S
C848 C847 1.363 . S
C848 C854 1.428 . S
H849 C845 0.930 . S
H850 C847 0.929 . S
S851 N852 1.613 . S
S851 N853 1.610 . S
N852 S851 1.613 . S
N852 C855 1.350 . S
N853 S851 1.610 . S
N853 C854 1.351 . S
C854 C848 1.428 . S
C854 N853 1.351 . S
C854 C855 1.434 . S
C855 C846 1.429 . S
C855 N852 1.350 . S
C855 C854 1.434 . S
C856 C857 1.369 . S
C856 C858 1.419 . S
C856 H860 0.930 . S
C857 C856 1.369 . S
C857 C866 1.429 . S
C858 C856 1.419 . S
C858 C859 1.363 . S
C858 H861 0.929 . S
C859 C858 1.363 . S
C859 C865 1.428 . S
H860 C856 0.930 . S
H861 C858 0.929 . S
S862 N863 1.613 . S
S862 N864 1.610 . S
N863 S862 1.613 . S
N863 C866 1.350 . S
N864 S862 1.610 . S
N864 C865 1.351 . S
C865 C859 1.428 . S
C865 N864 1.351 . S
C865 C866 1.434 . S
C866 C857 1.429 . S
C866 N863 1.350 . S
C866 C865 1.434 . S
C867 C868 1.369 . S
C867 C869 1.419 . S
C867 H871 0.930 . S
C868 C867 1.369 . S
C868 C877 1.429 . S
C869 C867 1.419 . S
C869 C870 1.363 . S
C869 H872 0.929 . S
C870 C869 1.363 . S
C870 C876 1.428 . S
H871 C867 0.930 . S
H872 C869 0.929 . S
S873 N874 1.613 . S
S873 N875 1.610 . S
N874 S873 1.613 . S
N874 C877 1.350 . S
N875 S873 1.610 . S
N875 C876 1.351 . S
C876 C870 1.428 . S
C876 N875 1.351 . S
C876 C877 1.434 . S
C877 C868 1.429 . S
C877 N874 1.350 . S
C877 C876 1.434 . S
C878 C879 1.369 . S
C878 C880 1.419 . S
C878 H882 0.930 . S
C879 C878 1.369 . S
C879 C888 1.429 . S
C880 C878 1.419 . S
C880 C881 1.363 . S
C880 H883 0.929 . S
C881 C880 1.363 . S
C881 C887 1.428 . S
H882 C878 0.930 . S
H883 C880 0.929 . S
S884 N885 1.613 . S
S884 N886 1.610 . S
N885 S884 1.613 . S
N885 C888 1.350 . S
N886 S884 1.610 . S
N886 C887 1.351 . S
C887 C881 1.428 . S
C887 N886 1.351 . S
C887 C888 1.434 . S
C888 C879 1.429 . S
C888 N885 1.350 . S
C888 C887 1.434 . S
C889 C890 1.369 . S
C889 C891 1.419 1_455 S
C889 H893 0.930 . S
C890 C889 1.369 . S
C890 C899 1.429 . S
C891 C889 1.419 1_655 S
C891 C892 1.363 . S
C891 H894 0.929 . S
C892 C891 1.363 . S
C892 C898 1.428 . S
H893 C889 0.930 . S
H894 C891 0.929 . S
S895 N896 1.635 . S
S895 N897 1.592 1_455 S
N896 S895 1.635 . S
N896 C899 1.350 . S
N897 S895 1.592 1_655 S
N897 C898 1.351 . S
C898 C892 1.428 . S
C898 N897 1.351 . S
C898 C899 1.434 1_655 S
C899 C890 1.429 . S
C899 N896 1.350 . S
C899 C898 1.434 1_455 S
C900 C901 1.369 . S
C900 C902 1.419 . S
C900 H904 0.930 . S
C901 C900 1.369 . S
C901 C910 1.429 . S
C902 C900 1.419 . S
C902 C903 1.363 . S
C902 H905 0.929 . S
C903 C902 1.363 . S
C903 C909 1.428 . S
H904 C900 0.930 . S
H905 C902 0.929 . S
S906 N907 1.613 . S
S906 N908 1.610 . S
N907 S906 1.613 . S
N907 C910 1.350 . S
N908 S906 1.610 . S
N908 C909 1.351 . S
C909 C903 1.428 . S
C909 N908 1.351 . S
C909 C910 1.434 . S
C910 C901 1.429 . S
C910 N907 1.350 . S
C910 C909 1.434 . S
C911 C912 1.369 . S
C911 C913 1.419 1_655 S
C911 H915 0.930 . S
C912 C911 1.369 . S
C912 C921 1.429 . S
C913 C911 1.419 1_455 S
C913 C914 1.363 . S
C913 H916 0.929 . S
C914 C913 1.363 . S
C914 C920 1.428 . S
H915 C911 0.930 . S
H916 C913 0.929 . S
S917 N918 1.613 1_456 S
S917 N919 1.610 1_556 S
N918 S917 1.613 1_654 S
N918 C921 1.350 . S
N919 S917 1.610 1_554 S
N919 C920 1.351 . S
C920 C914 1.428 . S
C920 N919 1.351 . S
C920 C921 1.434 1_455 S
C921 C912 1.429 . S
C921 N918 1.350 . S
C921 C920 1.434 1_655 S
C922 C923 1.369 . S
C922 C924 1.419 . S
C922 H926 0.930 . S
C923 C922 1.369 . S
C923 C932 1.429 . S
C924 C922 1.419 . S
C924 C925 1.363 . S
C924 H927 0.929 . S
C925 C924 1.363 . S
C925 C931 1.428 . S
H926 C922 0.930 . S
H927 C924 0.929 . S
S928 N929 1.613 . S
S928 N930 1.610 . S
N929 S928 1.613 . S
N929 C932 1.350 . S
N930 S928 1.610 . S
N930 C931 1.351 . S
C931 C925 1.428 . S
C931 N930 1.351 . S
C931 C932 1.434 . S
C932 C923 1.429 . S
C932 N929 1.350 . S
C932 C931 1.434 . S
C933 C934 1.369 . S
C933 C935 1.419 . S
C933 H937 0.930 . S
C934 C933 1.369 . S
C934 C943 1.429 . S
C935 C933 1.419 . S
C935 C936 1.363 . S
C935 H938 0.929 . S
C936 C935 1.363 . S
C936 C942 1.428 . S
H937 C933 0.930 . S
H938 C935 0.929 . S
S939 N940 1.613 . S
S939 N941 1.610 . S
N940 S939 1.613 . S
N940 C943 1.350 . S
N941 S939 1.610 . S
N941 C942 1.351 . S
C942 C936 1.428 . S
C942 N941 1.351 . S
C942 C943 1.434 . S
C943 C934 1.429 . S
C943 N940 1.350 . S
C943 C942 1.434 . S
C944 C945 1.369 . S
C944 C946 1.419 . S
C944 H948 0.930 . S
C945 C944 1.369 . S
C945 C954 1.429 . S
C946 C944 1.419 . S
C946 C947 1.363 . S
C946 H949 0.929 . S
C947 C946 1.363 . S
C947 C953 1.428 . S
H948 C944 0.930 . S
H949 C946 0.929 . S
S950 N951 1.613 . S
S950 N952 1.610 . S
N951 S950 1.613 . S
N951 C954 1.350 . S
N952 S950 1.610 . S
N952 C953 1.351 . S
C953 C947 1.428 . S
C953 N952 1.351 . S
C953 C954 1.434 . S
C954 C945 1.429 . S
C954 N951 1.350 . S
C954 C953 1.434 . S
C955 C956 1.369 . S
C955 C957 1.419 . S
C955 H959 0.930 . S
C956 C955 1.369 . S
C956 C965 1.429 . S
C957 C955 1.419 . S
C957 C958 1.363 . S
C957 H960 0.929 . S
C958 C957 1.363 . S
C958 C964 1.428 . S
H959 C955 0.930 . S
H960 C957 0.929 . S
S961 N962 1.613 . S
S961 N963 1.610 . S
N962 S961 1.613 . S
N962 C965 1.350 . S
N963 S961 1.610 . S
N963 C964 1.351 . S
C964 C958 1.428 . S
C964 N963 1.351 . S
C964 C965 1.434 . S
C965 C956 1.429 . S
C965 N962 1.350 . S
C965 C964 1.434 . S
C966 C967 1.369 . S
C966 C968 1.419 . S
C966 H970 0.930 . S
C967 C966 1.369 . S
C967 C976 1.429 . S
C968 C966 1.419 . S
C968 C969 1.363 . S
C968 H971 0.929 . S
C969 C968 1.363 . S
C969 C975 1.428 . S
H970 C966 0.930 . S
H971 C968 0.929 . S
S972 N973 1.613 . S
S972 N974 1.610 . S
N973 S972 1.613 . S
N973 C976 1.350 . S
N974 S972 1.610 . S
N974 C975 1.351 . S
C975 C969 1.428 . S
C975 N974 1.351 . S
C975 C976 1.434 . S
C976 C967 1.429 . S
C976 N973 1.350 . S
C976 C975 1.434 . S
C977 C978 1.369 . S
C977 C979 1.419 . S
C977 H981 0.930 . S
C978 C977 1.369 . S
C978 C987 1.429 . S
C979 C977 1.419 . S
C979 C980 1.363 . S
C979 H982 0.929 . S
C980 C979 1.363 . S
C980 C986 1.428 . S
H981 C977 0.930 . S
H982 C979 0.929 . S
S983 N984 1.613 . S
S983 N985 1.610 . S
N984 S983 1.613 . S
N984 C987 1.350 . S
N985 S983 1.610 . S
N985 C986 1.351 . S
C986 C980 1.428 . S
C986 N985 1.351 . S
C986 C987 1.434 . S
C987 C978 1.429 . S
C987 N984 1.350 . S
C987 C986 1.434 . S
C988 C989 1.369 . S
C988 C990 1.419 . S
C988 H992 0.930 . S
C989 C988 1.369 . S
C989 C998 1.429 . S
C990 C988 1.419 . S
C990 C991 1.363 . S
C990 H993 0.929 . S
C991 C990 1.363 . S
C991 C997 1.428 . S
H992 C988 0.930 . S
H993 C990 0.929 . S
S994 N995 1.613 . S
S994 N996 1.610 . S
N995 S994 1.613 . S
N995 C998 1.350 . S
N996 S994 1.610 . S
N996 C997 1.351 . S
C997 C991 1.428 . S
C997 N996 1.351 . S
C997 C998 1.434 . S
C998 C989 1.429 . S
C998 N995 1.350 . S
C998 C997 1.434 . S
C999 C1000 1.369 . S
C999 C1001 1.419 . S
C999 H1003 0.930 . S
C1000 C999 1.369 . S
C1000 C1009 1.429 . S
C1001 C999 1.419 . S
C1001 C1002 1.363 . S
C1001 H1004 0.929 . S
C1002 C1001 1.363 . S
C1002 C1008 1.428 . S
H1003 C999 0.930 . S
H1004 C1001 0.929 . S
S1005 N1006 1.613 . S
S1005 N1007 1.610 . S
N1006 S1005 1.613 . S
N1006 C1009 1.350 . S
N1007 S1005 1.610 . S
N1007 C1008 1.351 . S
C1008 C1002 1.428 . S
C1008 N1007 1.351 . S
C1008 C1009 1.434 . S
C1009 C1000 1.429 . S
C1009 N1006 1.350 . S
C1009 C1008 1.434 . S
C1010 C1011 1.369 . S
C1010 C1012 1.419 . S
C1010 H1014 0.930 . S
C1011 C1010 1.369 . S
C1011 C1020 1.429 . S
C1012 C1010 1.419 . S
C1012 C1013 1.363 . S
C1012 H1015 0.929 . S
C1013 C1012 1.363 . S
C1013 C1019 1.428 . S
H1014 C1010 0.930 . S
H1015 C1012 0.929 . S
S1016 N1017 1.613 . S
S1016 N1018 1.610 . S
N1017 S1016 1.613 . S
N1017 C1020 1.350 . S
N1018 S1016 1.610 . S
N1018 C1019 1.351 . S
C1019 C1013 1.428 . S
C1019 N1018 1.351 . S
C1019 C1020 1.434 . S
C1020 C1011 1.429 . S
C1020 N1017 1.350 . S
C1020 C1019 1.434 . S
C1021 C1022 1.369 . S
C1021 C1023 1.419 . S
C1021 H1025 0.930 . S
C1022 C1021 1.369 . S
C1022 C1031 1.429 . S
C1023 C1021 1.419 . S
C1023 C1024 1.363 . S
C1023 H1026 0.929 . S
C1024 C1023 1.363 . S
C1024 C1030 1.428 . S
H1025 C1021 0.930 . S
H1026 C1023 0.929 . S
S1027 N1028 1.613 . S
S1027 N1029 1.610 . S
N1028 S1027 1.613 . S
N1028 C1031 1.350 . S
N1029 S1027 1.610 . S
N1029 C1030 1.351 . S
C1030 C1024 1.428 . S
C1030 N1029 1.351 . S
C1030 C1031 1.434 . S
C1031 C1022 1.429 . S
C1031 N1028 1.350 . S
C1031 C1030 1.434 . S
C1032 C1033 1.369 . S
C1032 C1034 1.419 . S
C1032 H1036 0.930 . S
C1033 C1032 1.369 . S
C1033 C1042 1.429 . S
C1034 C1032 1.419 . S
C1034 C1035 1.363 . S
C1034 H1037 0.929 . S
C1035 C1034 1.363 . S
C1035 C1041 1.428 . S
H1036 C1032 0.930 . S
H1037 C1034 0.929 . S
S1038 N1039 1.613 . S
S1038 N1040 1.610 . S
N1039 S1038 1.613 . S
N1039 C1042 1.350 . S
N1040 S1038 1.610 . S
N1040 C1041 1.351 . S
C1041 C1035 1.428 . S
C1041 N1040 1.351 . S
C1041 C1042 1.434 . S
C1042 C1033 1.429 . S
C1042 N1039 1.350 . S
C1042 C1041 1.434 . S
C1043 C1044 1.369 . S
C1043 C1045 1.419 . S
C1043 H1047 0.930 . S
C1044 C1043 1.369 . S
C1044 C1053 1.429 . S
C1045 C1043 1.419 . S
C1045 C1046 1.363 . S
C1045 H1048 0.929 . S
C1046 C1045 1.363 . S
C1046 C1052 1.428 . S
H1047 C1043 0.930 . S
H1048 C1045 0.929 . S
S1049 N1050 1.613 . S
S1049 N1051 1.610 . S
N1050 S1049 1.613 . S
N1050 C1053 1.350 . S
N1051 S1049 1.610 . S
N1051 C1052 1.351 . S
C1052 C1046 1.428 . S
C1052 N1051 1.351 . S
C1052 C1053 1.434 . S
C1053 C1044 1.429 . S
C1053 N1050 1.350 . S
C1053 C1052 1.434 . S
C1054 C1055 1.369 . S
C1054 C1056 1.419 . S
C1054 H1058 0.930 . S
C1055 C1054 1.369 . S
C1055 C1064 1.429 . S
C1056 C1054 1.419 . S
C1056 C1057 1.363 . S
C1056 H1059 0.929 . S
C1057 C1056 1.363 . S
C1057 C1063 1.428 . S
H1058 C1054 0.930 . S
H1059 C1056 0.929 . S
S1060 N1061 1.613 . S
S1060 N1062 1.610 . S
N1061 S1060 1.613 . S
N1061 C1064 1.350 . S
N1062 S1060 1.610 . S
N1062 C1063 1.351 . S
C1063 C1057 1.428 . S
C1063 N1062 1.351 . S
C1063 C1064 1.434 . S
C1064 C1055 1.429 . S
C1064 N1061 1.350 . S
C1064 C1063 1.434 . S
C1065 C1066 1.369 . S
C1065 C1067 1.419 . S
C1065 H1069 0.930 . S
C1066 C1065 1.369 . S
C1066 C1075 1.429 . S
C1067 C1065 1.419 . S
C1067 C1068 1.363 . S
C1067 H1070 0.929 . S
C1068 C1067 1.363 . S
C1068 C1074 1.428 . S
H1069 C1065 0.930 . S
H1070 C1067 0.929 . S
S1071 N1072 1.613 . S
S1071 N1073 1.610 . S
N1072 S1071 1.613 . S
N1072 C1075 1.350 . S
N1073 S1071 1.610 . S
N1073 C1074 1.351 . S
C1074 C1068 1.428 . S
C1074 N1073 1.351 . S
C1074 C1075 1.434 . S
C1075 C1066 1.429 . S
C1075 N1072 1.350 . S
C1075 C1074 1.434 . S
C1076 C1077 1.369 . S
C1076 C1078 1.419 . S
C1076 H1080 0.930 . S
C1077 C1076 1.369 . S
C1077 C1086 1.429 . S
C1078 C1076 1.419 . S
C1078 C1079 1.363 . S
C1078 H1081 0.929 . S
C1079 C1078 1.363 . S
C1079 C1085 1.428 . S
H1080 C1076 0.930 . S
H1081 C1078 0.929 . S
S1082 N1083 1.613 . S
S1082 N1084 1.610 . S
N1083 S1082 1.613 . S
N1083 C1086 1.350 . S
N1084 S1082 1.610 . S
N1084 C1085 1.351 . S
C1085 C1079 1.428 . S
C1085 N1084 1.351 . S
C1085 C1086 1.434 . S
C1086 C1077 1.429 . S
C1086 N1083 1.350 . S
C1086 C1085 1.434 . S
C1087 C1088 1.369 . S
C1087 C1089 1.419 . S
C1087 H1091 0.930 . S
C1088 C1087 1.369 . S
C1088 C1097 1.429 . S
C1089 C1087 1.419 . S
C1089 C1090 1.363 . S
C1089 H1092 0.929 . S
C1090 C1089 1.363 . S
C1090 C1096 1.428 . S
H1091 C1087 0.930 . S
H1092 C1089 0.929 . S
S1093 N1094 1.613 . S
S1093 N1095 1.610 . S
N1094 S1093 1.613 . S
N1094 C1097 1.350 . S
N1095 S1093 1.610 . S
N1095 C1096 1.351 . S
C1096 C1090 1.428 . S
C1096 N1095 1.351 . S
C1096 C1097 1.434 . S
C1097 C1088 1.429 . S
C1097 N1094 1.350 . S
C1097 C1096 1.434 . S
C1098 C1099 1.369 . S
C1098 C1100 1.419 . S
C1098 H1102 0.930 . S
C1099 C1098 1.369 . S
C1099 C1108 1.429 . S
C1100 C1098 1.419 . S
C1100 C1101 1.363 . S
C1100 H1103 0.929 . S
C1101 C1100 1.363 . S
C1101 C1107 1.428 . S
H1102 C1098 0.930 . S
H1103 C1100 0.929 . S
S1104 N1105 1.613 . S
S1104 N1106 1.610 . S
N1105 S1104 1.613 . S
N1105 C1108 1.350 . S
N1106 S1104 1.610 . S
N1106 C1107 1.351 . S
C1107 C1101 1.428 . S
C1107 N1106 1.351 . S
C1107 C1108 1.434 . S
C1108 C1099 1.429 . S
C1108 N1105 1.350 . S
C1108 C1107 1.434 . S
C1109 C1110 1.369 . S
C1109 C1111 1.419 . S
C1109 H1113 0.930 . S
C1110 C1109 1.369 . S
C1110 C1119 1.429 . S
C1111 C1109 1.419 . S
C1111 C1112 1.363 . S
C1111 H1114 0.929 . S
C1112 C1111 1.363 . S
C1112 C1118 1.428 . S
H1113 C1109 0.930 . S
H1114 C1111 0.929 . S
S1115 N1116 1.613 . S
S1115 N1117 1.610 . S
N1116 S1115 1.613 . S
N1116 C1119 1.350 . S
N1117 S1115 1.610 . S
N1117 C1118 1.351 . S
C1118 C1112 1.428 . S
C1118 N1117 1.351 . S
C1118 C1119 1.434 . S
C1119 C1110 1.429 . S
C1119 N1116 1.350 . S
C1119 C1118 1.434 . S
C417 C0 1.406 . S
C419 C52 1.404 . S
C428 C13 1.407 . S
C430 C65 1.404 . S
C439 C78 1.404 . S
C441 C26 1.407 . S
C450 C91 1.404 . S
C452 C39 1.405 . S
C461 C104 1.407 . S
C463 C156 1.406 . S
C472 C117 1.404 . S
C474 C169 1.407 . S
C483 C182 1.405 . S
C485 C130 1.405 . S
C494 C143 1.407 . S
C496 C195 1.406 . S
C505 C260 1.408 . S
C507 C208 1.405 . S
C516 C273 1.408 . S
C518 C221 1.406 . S
C527 C234 1.404 . S
C529 C286 1.405 . S
C538 C299 1.407 . S
C540 C247 1.406 . S
C549 C312 1.403 . S
C551 C364 1.406 . S
C560 C377 1.406 . S
C562 C325 1.407 . S
C571 C390 1.405 . S
C573 C338 1.405 . S
C582 C351 1.407 . S
C584 C403 1.404 . S
C593 C5 1.411 . S
C595 C359 1.498 . S
C604 C112 1.497 . S
C606 C18 1.413 . S
C615 C31 1.421 . S
C617 C333 1.499 . S
C626 C44 1.418 . S
C628 C138 1.501 . S
C637 C385 1.499 . S
C639 C57 1.420 . S
C648 C190 1.498 . S
C650 C70 1.412 . S
C659 C83 1.412 . S
C661 C411 1.499 . S
C670 C96 1.422 . S
C672 C164 1.501 . S
C681 C255 1.498 . S
C683 C109 1.419 . S
C692 C122 1.420 . S
C694 C8 1.499 . S
C703 C229 1.498 . S
C705 C135 1.412 . S
C714 C148 1.420 . S
C716 C34 1.501 . S
C725 C281 1.497 . S
C727 C161 1.413 . S
C736 C174 1.422 . S
C738 C86 1.501 . S
C747 C307 1.501 . S
C749 C187 1.419 . S
C758 C200 1.419 . S
C760 C60 1.501 . S
C769 C151 1.501 . S
C771 C213 1.420 . S
C780 C320 1.501 . S
C782 C226 1.417 . S
C791 C125 1.497 . S
C793 C239 1.412 . S
C802 C252 1.411 . S
C804 C346 1.498 . S
C813 C177 1.498 . S
C815 C265 1.412 . S
C824 C398 1.497 . S
C826 C278 1.418 . S
C835 C203 1.501 . S
C837 C291 1.421 . S
C846 C304 1.418 . S
C848 C372 1.498 . S
C857 C317 1.411 . S
C859 C47 1.498 . S
C868 C330 1.412 . S
C870 C216 1.497 . S
C879 C343 1.418 . S
C881 C21 1.498 . S
C890 C356 1.418 . S
C892 C242 1.501 . S
C901 C369 1.420 . S
C903 C73 1.499 . S
C912 C294 1.499 . S
C914 C382 1.420 . S
C923 C99 1.501 . S
C925 C395 1.421 . S
C934 C408 1.419 . S
C936 C268 1.501 . S
C945 C10 1.272 . S
C947 C101 1.271 . S
C956 C23 1.278 . S
C958 C62 1.278 . S
C967 C36 1.275 . S
C969 C75 1.278 . S
C978 C88 1.272 . S
C980 C49 1.271 . S
C989 C205 1.279 . S
C991 C114 1.277 . S
C1000 C166 1.279 . S
C1002 C127 1.276 . S
C1011 C179 1.278 . S
C1013 C140 1.275 . S
C1022 C192 1.273 . S
C1024 C153 1.276 . S
C1033 C218 1.271 . S
C1035 C309 1.271 . S
C1044 C270 1.273 . S
C1046 C231 1.271 . S
C1055 C283 1.279 . S
C1057 C244 1.275 . S
C1066 C296 1.278 . S
C1068 C257 1.275 . S
C1077 C413 1.279 . S
C1079 C322 1.277 . S
C1088 C335 1.279 . S
C1090 C374 1.277 . S
C1099 C348 1.275 . S
C1101 C387 1.272 . S
C1110 C361 1.269 . S
C1112 C400 1.271 . S
