# Generated by pormake.
# Topology umj, (4)-cn, num edge types: 1
# Building blocks:
#     Node 0, Type 0, BuildingBlock: ESEHIV_clean_sbu_0, # of connection points: 4
#     Node 1, Type 0, BuildingBlock: ESEHIV_clean_sbu_0, # of connection points: 4
#     Node 2, Type 0, BuildingBlock: ESEHIV_clean_sbu_0, # of connection points: 4
#     Node 3, Type 0, BuildingBlock: ESEHIV_clean_sbu_0, # of connection points: 4
#     Node 4, Type 0, BuildingBlock: ESEHIV_clean_sbu_0, # of connection points: 4
#     Node 5, Type 0, BuildingBlock: ESEHIV_clean_sbu_0, # of connection points: 4
#     Node 6, Type 0, BuildingBlock: ESEHIV_clean_sbu_0, # of connection points: 4
#     Node 7, Type 0, BuildingBlock: ESEHIV_clean_sbu_0, # of connection points: 4
#     Node 8, Type 0, BuildingBlock: ESEHIV_clean_sbu_0, # of connection points: 4
#     Node 9, Type 0, BuildingBlock: ESEHIV_clean_sbu_0, # of connection points: 4
#     Node 10, Type 0, BuildingBlock: ESEHIV_clean_sbu_0, # of connection points: 4
#     Node 11, Type 0, BuildingBlock: ESEHIV_clean_sbu_0, # of connection points: 4
#     Edge 12, Type (0, 0), BuildingBlock: MIFKUJ_clean_linker_0, # of connection points: 2
#     Edge 13, Type (0, 0), BuildingBlock: MIFKUJ_clean_linker_0, # of connection points: 2
#     Edge 14, Type (0, 0), BuildingBlock: MIFKUJ_clean_linker_0, # of connection points: 2
#     Edge 15, Type (0, 0), BuildingBlock: MIFKUJ_clean_linker_0, # of connection points: 2
#     Edge 16, Type (0, 0), BuildingBlock: MIFKUJ_clean_linker_0, # of connection points: 2
#     Edge 17, Type (0, 0), BuildingBlock: MIFKUJ_clean_linker_0, # of connection points: 2
#     Edge 18, Type (0, 0), BuildingBlock: MIFKUJ_clean_linker_0, # of connection points: 2
#     Edge 19, Type (0, 0), BuildingBlock: MIFKUJ_clean_linker_0, # of connection points: 2
#     Edge 20, Type (0, 0), BuildingBlock: MIFKUJ_clean_linker_0, # of connection points: 2
#     Edge 21, Type (0, 0), BuildingBlock: MIFKUJ_clean_linker_0, # of connection points: 2
#     Edge 22, Type (0, 0), BuildingBlock: MIFKUJ_clean_linker_0, # of connection points: 2
#     Edge 23, Type (0, 0), BuildingBlock: MIFKUJ_clean_linker_0, # of connection points: 2
#     Edge 24, Type (0, 0), BuildingBlock: MIFKUJ_clean_linker_0, # of connection points: 2
#     Edge 25, Type (0, 0), BuildingBlock: MIFKUJ_clean_linker_0, # of connection points: 2
#     Edge 26, Type (0, 0), BuildingBlock: MIFKUJ_clean_linker_0, # of connection points: 2
#     Edge 27, Type (0, 0), BuildingBlock: MIFKUJ_clean_linker_0, # of connection points: 2
#     Edge 28, Type (0, 0), BuildingBlock: MIFKUJ_clean_linker_0, # of connection points: 2
#     Edge 29, Type (0, 0), BuildingBlock: MIFKUJ_clean_linker_0, # of connection points: 2
#     Edge 30, Type (0, 0), BuildingBlock: MIFKUJ_clean_linker_0, # of connection points: 2
#     Edge 31, Type (0, 0), BuildingBlock: MIFKUJ_clean_linker_0, # of connection points: 2
#     Edge 32, Type (0, 0), BuildingBlock: MIFKUJ_clean_linker_0, # of connection points: 2
#     Edge 33, Type (0, 0), BuildingBlock: MIFKUJ_clean_linker_0, # of connection points: 2
#     Edge 34, Type (0, 0), BuildingBlock: MIFKUJ_clean_linker_0, # of connection points: 2
#     Edge 35, Type (0, 0), BuildingBlock: MIFKUJ_clean_linker_0, # of connection points: 2
# Relax obj value: 0.040
# Max RMSD: 0.094
# Mean RMSD: 0.084
data_MOF--net-umj--node1-ESEHIV_clean_sbu_0--edge1-MIFKUJ_clean_linker_0
_symmetry_space_group_name_H-M    P1
_symmetry_Int_Tables_number       1
_symmetry_cell_setting            triclinic
loop_
_symmetry_equiv_pos_as_xyz
'x, y, z'
_cell_length_a     38.648558
_cell_length_b     43.545951
_cell_length_c     114.5403
_cell_angle_alpha  90.250327
_cell_angle_beta   89.746229
_cell_angle_gamma 116.12559
loop_
_atom_site_label
_atom_site_type_symbol
_atom_site_fract_x
_atom_site_fract_y
_atom_site_fract_z
_atom_type_partial_charge
Cu0 Cu 0.02843 0.27252 0.0885 0.0
N1 N 0.99891 0.22484 0.08803 0.0
N2 N 0.98602 0.1693 0.08731 0.0
C3 C 1.01156 0.20175 0.08471 0.0
C4 C 0.9559 0.17223 0.09233 0.0
C5 C 0.96402 0.20641 0.09282 0.0
O6 O 0.06253 0.28609 0.07494 0.0
C7 C 0.05576 0.26438 0.11096 0.0
O8 O 0.05396 0.2356 0.10677 0.0
H9 H 0.03974 0.20886 0.08095 0.0
H10 H 0.94669 0.21719 0.097 0.0
N11 N 0.99842 0.29624 0.08684 0.0
N12 N 0.98509 0.34141 0.0859 0.0
C13 C 1.01216 0.3304 0.08807 0.0
C14 C 0.9613 0.28502 0.08375 0.0
C15 C 0.95297 0.31277 0.08319 0.0
C16 C 0.09199 0.28137 0.0725 0.0
O17 O 0.10617 0.26824 0.08037 0.0
H18 H 0.04189 0.34688 0.09022 0.0
H19 H 0.9418 0.25865 0.08189 0.0
O20 O 0.05088 0.28509 0.10409 0.0
H21 H 0.93074 0.15143 0.09605 0.0
H22 H 0.92533 0.31178 0.08096 0.0
Cu23 Cu 0.78194 0.05437 0.42235 0.0
N24 N 0.79635 0.07486 0.4371 0.0
N25 N 0.80161 0.08063 0.45656 0.0
C26 C 0.78145 0.06078 0.44752 0.0
C27 C 0.82992 0.10847 0.45157 0.0
C28 C 0.82659 0.10483 0.4396 0.0
O29 O 0.72519 0.02769 0.42274 0.0
C30 C 0.82821 0.0188 0.42689 0.0
O31 O 0.81432 0.01594 0.43752 0.0
H32 H 0.7577 0.03557 0.44843 0.0
H33 H 0.84569 0.12223 0.43316 0.0
N34 N 0.79347 0.08855 0.41104 0.0
N35 N 0.80855 0.11603 0.39389 0.0
C36 C 0.8075 0.08936 0.40017 0.0
C37 C 0.7856 0.11567 0.41169 0.0
C38 C 0.79487 0.13265 0.40115 0.0
C39 C 0.70369 0.0247 0.41394 0.0
O40 O 0.71984 0.03432 0.40363 0.0
H41 H 0.81531 0.06999 0.3968 0.0
H42 H 0.77311 0.12213 0.41922 0.0
O43 O 0.81482 0.03103 0.41892 0.0
H44 H 0.85198 0.1297 0.45622 0.0
H45 H 0.79162 0.15543 0.39901 0.0
Cu46 Cu 0.75946 0.76892 0.76992 0.0
N47 N 0.77917 0.81469 0.77497 0.0
N48 N 0.82599 0.86777 0.77817 0.0
C49 C 0.81657 0.83671 0.77334 0.0
C50 C 0.7928 0.86514 0.783 0.0
C51 C 0.76404 0.83235 0.78107 0.0
O52 O 0.76988 0.77311 0.75299 0.0
C53 C 0.7732 0.7468 0.79067 0.0
O54 O 0.74531 0.7553 0.79308 0.0
H55 H 0.83652 0.82975 0.7687 0.0
H56 H 0.7346 0.82204 0.78414 0.0
N57 N 0.70594 0.7404 0.772 0.0
N58 N 0.65068 0.69154 0.77326 0.0
C59 C 0.6894 0.70579 0.77151 0.0
C60 C 0.67673 0.7485 0.77415 0.0
C61 C 0.64285 0.71866 0.7749 0.0
C62 C 0.74937 0.78485 0.74758 0.0
O63 O 0.72411 0.79098 0.75362 0.0
H64 H 0.70586 0.69151 0.77 0.0
H65 H 0.67969 0.77427 0.77501 0.0
O66 O 0.78573 0.74992 0.78017 0.0
H67 H 0.78965 0.8851 0.78788 0.0
H68 H 0.61461 0.71737 0.77641 0.0
Cu69 Cu 0.99531 0.75898 0.08914 0.0
N70 N 0.02346 0.80558 0.08571 0.0
N71 N 0.03663 0.86093 0.08399 0.0
C72 C 1.01245 0.83014 0.08843 0.0
C73 C 0.06425 0.85551 0.07836 0.0
C74 C 0.05596 0.82135 0.07939 0.0
O75 O 0.95676 0.73928 0.0768 0.0
C76 C 0.97457 0.73317 0.11246 0.0
O77 O 0.97493 0.70519 0.10828 0.0
H78 H 0.98676 0.82529 0.09344 0.0
H79 H 0.07186 0.80872 0.07552 0.0
N80 N 0.02596 0.73551 0.08825 0.0
N81 N 0.04038 0.69093 0.08731 0.0
C82 C 1.01286 0.70185 0.0859 0.0
C83 C 0.06321 0.74651 0.09113 0.0
C84 C 0.07222 0.71916 0.09053 0.0
C85 C 0.93662 0.75308 0.07252 0.0
O86 O 0.93527 0.77913 0.07796 0.0
H87 H 0.98302 0.68538 0.08387 0.0
H88 H 0.0821 0.77231 0.09386 0.0
O89 O 0.97808 0.757 0.10541 0.0
H90 H 0.08793 0.87454 0.07345 0.0
H91 H 0.09995 0.72001 0.09255 0.0
Cu92 Cu 0.23153 0.95261 0.42386 0.0
N93 N 0.22713 0.93216 0.43858 0.0
N94 N 0.22571 0.92545 0.45808 0.0
C95 C 0.22275 0.94435 0.44908 0.0
C96 C 0.2319 0.90031 0.4529 0.0
C97 C 0.23282 0.90456 0.44096 0.0
O98 O 0.28733 0.97645 0.4201 0.0
C99 C 0.18493 0.9852 0.41588 0.0
O100 O 0.19459 0.97962 0.40536 0.0
H101 H 0.21874 0.96729 0.45004 0.0
H102 H 0.23879 0.8894 0.43448 0.0
N103 N 0.2083 0.91843 0.41247 0.0
N104 N 0.19019 0.89216 0.39508 0.0
C105 C 0.21481 0.92069 0.40082 0.0
C106 C 0.17876 0.88745 0.41416 0.0
C107 C 0.16762 0.87121 0.40352 0.0
C108 C 0.31315 0.98752 0.42805 0.0
O109 O 0.3024 0.98873 0.43886 0.0
H110 H 0.23665 0.94316 0.39666 0.0
H111 H 0.16542 0.87778 0.42253 0.0
O112 O 0.20088 0.97888 0.4247 0.0
H113 H 0.23713 0.88093 0.45735 0.0
H114 H 0.14363 0.84641 0.40212 0.0
Cu115 Cu 0.27132 0.25416 0.77053 0.0
N116 N 0.25222 0.20731 0.7742 0.0
N117 N 0.20549 0.15359 0.77634 0.0
C118 C 0.21396 0.18691 0.77469 0.0
C119 C 0.24025 0.15314 0.77687 0.0
C120 C 0.26894 0.18621 0.77551 0.0
O121 O 0.26067 0.25196 0.7537 0.0
C122 C 0.25055 0.26405 0.79208 0.0
O123 O 0.27362 0.24956 0.79373 0.0
H124 H 0.19278 0.1965 0.7734 0.0
H125 H 0.29961 0.19397 0.77518 0.0
N126 N 0.32445 0.28313 0.77297 0.0
N127 N 0.37935 0.33214 0.77405 0.0
C128 C 0.34089 0.31765 0.77201 0.0
C129 C 0.35353 0.27553 0.77583 0.0
C130 C 0.38729 0.30556 0.77644 0.0
C131 C 0.28261 0.24245 0.74788 0.0
O132 O 0.31072 0.2397 0.75347 0.0
H133 H 0.32489 0.3318 0.76969 0.0
H134 H 0.35056 0.25003 0.77734 0.0
O135 O 0.24426 0.27044 0.78162 0.0
H136 H 0.24485 0.13058 0.77805 0.0
H137 H 0.41544 0.30761 0.77864 0.0
Cu138 Cu 0.76596 1.00869 0.61264 0.0
N139 N 0.76325 0.991 0.59754 0.0
N140 N 0.76383 0.98738 0.57801 0.0
C141 C 0.7626 1.0061 0.58733 0.0
C142 C 0.7649 0.95928 0.5826 0.0
C143 C 0.76455 0.9616 0.5946 0.0
O144 O 0.73346 0.0334 0.61259 0.0
C145 C 0.84509 0.05636 0.60889 0.0
O146 O 0.83199 0.06436 0.59939 0.0
H147 H 0.76272 0.03096 0.58678 0.0
H148 H 0.76595 0.94347 0.60078 0.0
N149 N 0.74574 0.97185 0.62321 0.0
N150 N 0.7381 0.93645 0.63828 0.0
C151 C 0.76215 0.96573 0.63279 0.0
C152 C 0.71041 0.9455 0.62258 0.0
C153 C 0.7056 0.92378 0.63181 0.0
C154 C 0.71084 0.03214 0.62095 0.0
O155 O 0.71252 0.01736 0.63076 0.0
H156 H 0.79087 0.98266 0.63576 0.0
H157 H 0.68957 0.94237 0.61585 0.0
O158 O 0.82105 0.03553 0.61612 0.0
H159 H 0.76609 0.93852 0.57766 0.0
H160 H 0.68015 0.90018 0.63351 0.0
Cu161 Cu 0.78866 0.7459 0.93272 0.0
N162 N 0.80571 0.79351 0.9316 0.0
N163 N 0.845 0.84996 0.93151 0.0
C164 C 0.84075 0.81839 0.93451 0.0
C165 C 0.8109 0.84444 0.92666 0.0
C166 C 0.78699 0.80982 0.92668 0.0
O167 O 0.80693 0.73671 0.94758 0.0
C168 C 0.8311 0.74862 0.91174 0.0
O169 O 0.85646 0.77826 0.91576 0.0
H170 H 0.86322 0.8131 0.93824 0.0
H171 H 0.75831 0.79732 0.92304 0.0
N172 N 0.73457 0.72272 0.93365 0.0
N173 N 0.67468 0.67962 0.93386 0.0
C174 C 0.71246 0.68909 0.93159 0.0
C175 C 0.71003 0.73494 0.93742 0.0
C176 C 0.6732 0.70858 0.93751 0.0
C177 C 0.83982 0.73904 0.95041 0.0
O178 O 0.86669 0.74632 0.94239 0.0
H179 H 0.72407 0.67191 0.9286 0.0
H180 H 0.71844 0.76098 0.94025 0.0
O181 O 0.80286 0.72977 0.91825 0.0
H182 H 0.80361 0.86386 0.92316 0.0
H183 H 0.64756 0.71047 0.94045 0.0
Cu184 Cu 0.03777 0.77191 0.2583 0.0
N185 N 1.00626 0.79473 0.25916 0.0
N186 N 0.99015 0.83831 0.25993 0.0
C187 C 0.01666 0.8272 0.26275 0.0
C188 C 0.96166 0.81154 0.25453 0.0
C189 C 0.97169 0.78482 0.25406 0.0
O190 O 0.07526 0.78812 0.27104 0.0
C191 C 0.05925 0.79959 0.2353 0.0
O192 O 0.05728 0.8267 0.23967 0.0
H193 H 0.04433 0.84326 0.26655 0.0
H194 H 0.95597 0.76057 0.24967 0.0
N195 N 1.00916 0.72484 0.26095 0.0
N196 N 0.9954 0.66924 0.26252 0.0
C197 C 0.02207 0.70088 0.25946 0.0
C198 C 0.97311 0.70791 0.26514 0.0
C199 C 0.96451 0.67369 0.26609 0.0
C200 C 0.10143 0.81815 0.27311 0.0
O201 O 0.10945 0.84219 0.26524 0.0
H202 H 0.05059 0.70672 0.25618 0.0
H203 H 0.9546 0.71968 0.26754 0.0
O204 O 0.05657 0.77564 0.24217 0.0
H205 H 0.93605 0.81163 0.25078 0.0
H206 H 0.93787 0.65384 0.26945 0.0
Cu207 Cu 0.28065 0.05323 0.60984 0.0
N208 N 0.26017 0.01577 0.59945 0.0
N209 N 0.24538 0.98841 0.58219 0.0
C210 C 0.26173 0.01899 0.58773 0.0
C211 C 0.23303 0.96498 0.59085 0.0
C212 C 0.24207 0.98192 0.60148 0.0
O213 O 0.33756 0.0736 0.60787 0.0
C214 C 0.21474 0.05998 0.60894 0.0
O215 O 0.20452 0.02804 0.61192 0.0
H216 H 0.27526 0.04347 0.58336 0.0
H217 H 0.23596 0.97039 0.61005 0.0
N218 N 0.27093 0.04284 0.62583 0.0
N219 N 0.26095 0.0525 0.64454 0.0
C220 C 0.26251 0.06259 0.63335 0.0
C221 C 0.27494 0.01928 0.63253 0.0
C222 C 0.26893 0.02527 0.64409 0.0
C223 C 0.3511 0.05147 0.60805 0.0
O224 O 0.32684 0.01915 0.60943 0.0
H225 H 0.25939 0.08508 0.6307 0.0
H226 H 0.28286 0.99986 0.62932 0.0
O227 O 0.25042 0.07894 0.60671 0.0
H228 H 0.21813 0.93756 0.58964 0.0
H229 H 0.27086 1.01104 0.65158 0.0
Cu230 Cu 0.24114 0.27614 0.93318 0.0
N231 N 0.22506 0.22905 0.93538 0.0
N232 N 0.18612 0.1727 0.93663 0.0
C233 C 0.18924 0.20387 0.93358 0.0
C234 C 0.22161 0.17878 0.94046 0.0
C235 C 0.24539 0.2134 0.93972 0.0
O236 O 0.22679 0.29292 0.94733 0.0
C237 C 0.22954 0.30801 0.9126 0.0
O238 O 0.25499 0.33681 0.91715 0.0
H239 H 0.16573 0.20861 0.9304 0.0
H240 H 0.27527 0.22632 0.94234 0.0
N241 N 0.29502 0.29998 0.93155 0.0
N242 N 0.35483 0.34308 0.93107 0.0
C243 C 0.31742 0.33335 0.93394 0.0
C244 C 0.31902 0.28822 0.92698 0.0
C245 C 0.35582 0.31459 0.92673 0.0
C246 C 0.19235 0.28306 0.95095 0.0
O247 O 0.16361 0.26366 0.94417 0.0
H248 H 0.30631 0.35019 0.93761 0.0
H249 H 0.31021 0.26245 0.92379 0.0
O250 O 0.21793 0.2806 0.91856 0.0
H251 H 0.23005 0.15968 0.9436 0.0
H252 H 0.3811 0.31311 0.92322 0.0
Cu253 Cu 0.99846 0.2542 0.25872 0.0
N254 N 0.02988 0.23136 0.25924 0.0
N255 N 0.04455 0.187 0.2599 0.0
C256 C 0.01672 0.19755 0.26121 0.0
C257 C 0.07657 0.21535 0.25695 0.0
C258 C 0.06745 0.24268 0.25657 0.0
O259 O 0.95736 0.23111 0.2702 0.0
C260 C 1.01144 0.2733 0.23569 0.0
O261 O 0.04438 0.29352 0.24058 0.0
H262 H 0.98683 0.18076 0.26312 0.0
H263 H 0.0866 0.26872 0.25419 0.0
N264 N 0.02375 0.30043 0.26328 0.0
N265 N 0.0353 0.35537 0.2655 0.0
C266 C 1.01058 0.32406 0.2615 0.0
C267 C 0.0579 0.31723 0.26865 0.0
C268 C 0.06513 0.35106 0.27001 0.0
C269 C 0.97036 0.229 0.28025 0.0
O270 O 1.00787 0.24281 0.28176 0.0
H271 H 0.98369 0.3184 0.25712 0.0
H272 H 0.07627 0.30572 0.27137 0.0
O273 O 0.98418 0.25283 0.24222 0.0
H274 H 0.10448 0.21623 0.25511 0.0
H275 H 0.09028 0.37082 0.27412 0.0
H276 H 0.05534 0.32469 0.22119 0.0
H277 H 0.05969 0.32352 0.20003 0.0
H278 H 0.96761 0.22101 0.19944 0.0
H279 H 0.9628 0.2222 0.22088 0.0
H280 H 0.08061 0.28356 0.18754 0.0
H281 H 0.92405 0.20842 0.17186 0.0
H282 H 0.85818 0.1974 0.17782 0.0
H283 H 0.90274 0.29382 0.19583 0.0
H284 H 0.9688 0.30559 0.18986 0.0
H285 H 0.07165 0.22882 0.12809 0.0
H286 H 0.06216 0.23116 0.14916 0.0
H287 H 0.02722 0.31149 0.14409 0.0
H288 H 0.03689 0.30952 0.123 0.0
H289 H 0.97665 0.25943 0.15862 0.0
H290 H 0.11274 0.33148 0.15518 0.0
H291 H 0.17954 0.34611 0.1492 0.0
H292 H 0.17759 0.26275 0.16953 0.0
H293 H 0.11055 0.24734 0.17551 0.0
C294 C 0.03556 0.30197 0.21659 0.0
C295 C 1.00884 0.27343 0.22275 0.0
C296 C 0.03823 0.30132 0.20445 0.0
C297 C 1.01429 0.27213 0.19809 0.0
C298 C 0.98632 0.24396 0.20414 0.0
C299 C 0.98348 0.24466 0.21639 0.0
C300 C 0.02055 0.2711 0.18524 0.0
C301 C 0.05774 0.27812 0.18125 0.0
C302 C 0.99096 0.26428 0.17696 0.0
C303 C 0.95138 0.25767 0.18052 0.0
C304 C 0.91976 0.2273 0.17707 0.0
C305 C 0.8824 0.22092 0.18045 0.0
C306 C 0.87629 0.24484 0.18724 0.0
C307 C 0.90753 0.27525 0.19062 0.0
C308 C 0.94494 0.28176 0.18726 0.0
C309 C 0.0625 0.24736 0.13146 0.0
C310 C 0.05522 0.26909 0.12383 0.0
C311 C 0.05696 0.24858 0.14352 0.0
C312 C 0.04378 0.27138 0.14822 0.0
C313 C 0.03718 0.29355 0.14066 0.0
C314 C 0.04312 0.29262 0.12861 0.0
C315 C 0.03665 0.27192 0.161 0.0
C316 C 0.99936 0.26465 0.16496 0.0
C317 C 0.06622 0.27886 0.16928 0.0
C318 C 0.1065 0.28804 0.16569 0.0
C319 C 0.12644 0.31608 0.15829 0.0
C320 C 0.16437 0.32455 0.15492 0.0
C321 C 0.18276 0.30531 0.15895 0.0
C322 C 0.16329 0.2776 0.1664 0.0
C323 C 0.12533 0.269 0.16979 0.0
H324 H 0.21214 0.31192 0.15634 0.0
H325 H 0.84735 0.23985 0.18985 0.0
H326 H 0.85659 0.10229 0.47339 0.0
H327 H 0.84853 0.08647 0.49398 0.0
H328 H 0.72703 0.02417 0.48843 0.0
H329 H 0.73506 0.0397 0.46774 0.0
H330 H 0.81067 0.09541 0.51145 0.0
H331 H 0.69438 0.95545 0.50657 0.0
H332 H 0.67298 0.90867 0.49207 0.0
H333 H 0.78651 0.95091 0.47708 0.0
H334 H 0.8087 0.99764 0.49158 0.0
H335 H 0.7379 0.02961 0.5678 0.0
H336 H 0.74284 0.04554 0.54718 0.0
H337 H 0.79963 0.98173 0.53976 0.0
H338 H 0.79483 0.96575 0.5603 0.0
H339 H 0.74903 0.97343 0.52326 0.0
H340 H 0.85039 0.06911 0.54186 0.0
H341 H 0.87911 0.11558 0.55632 0.0
H342 H 0.80845 0.16158 0.5437 0.0
H343 H 0.7789 0.11508 0.52926 0.0
C344 C 0.82805 0.08551 0.47654 0.0
C345 C 0.79648 0.07222 0.46885 0.0
C346 C 0.82348 0.0764 0.48835 0.0
C347 C 0.78725 0.0538 0.4928 0.0
C348 C 0.75546 0.04111 0.48521 0.0
C349 C 0.76007 0.05002 0.47336 0.0
C350 C 0.78305 0.04328 0.50533 0.0
C351 C 0.79702 0.06872 0.51401 0.0
C352 C 0.76595 1.00846 0.50875 0.0
C353 C 0.75304 0.98023 0.50008 0.0
C354 C 0.71479 0.95467 0.5002 0.0
C355 C 0.70252 0.92818 0.49198 0.0
C356 C 0.72833 0.92689 0.48363 0.0
C357 C 0.76651 0.95201 0.48352 0.0
C358 C 0.77893 0.97852 0.49173 0.0
C359 C 0.75163 0.0191 0.5618 0.0
C360 C 0.766 0.9964 0.56578 0.0
C361 C 0.7544 0.0282 0.54999 0.0
C362 C 0.77192 0.01509 0.54189 0.0
C363 C 0.78582 0.9921 0.5458 0.0
C364 C 0.78296 0.9829 0.55759 0.0
C365 C 0.77626 0.02556 0.52936 0.0
C366 C 0.76235 1.00012 0.52069 0.0
C367 C 0.79434 0.06035 0.52593 0.0
C368 C 0.81216 0.08843 0.53456 0.0
C369 C 0.84077 0.089 0.54223 0.0
C370 C 0.85723 0.11536 0.55041 0.0
C371 C 0.84554 0.14147 0.55095 0.0
C372 C 0.81743 0.14131 0.54328 0.0
C373 C 0.80084 0.11497 0.53509 0.0
H374 H 0.85831 0.16186 0.55729 0.0
H375 H 0.71877 0.90638 0.47727 0.0
H376 H 0.73808 0.68979 0.80363 0.0
H377 H 0.75462 0.68238 0.82367 0.0
H378 H 0.85993 0.77562 0.8209 0.0
H379 H 0.84375 0.78245 0.80064 0.0
H380 H 0.86875 0.72967 0.83578 0.0
H381 H 0.77988 0.77833 0.83088 0.0
H382 H 0.72133 0.78055 0.82337 0.0
H383 H 0.65075 0.68704 0.84121 0.0
H384 H 0.70896 0.68397 0.84867 0.0
H385 H 0.88546 0.7848 0.89534 0.0
H386 H 0.88131 0.77699 0.87419 0.0
H387 H 0.7734 0.68679 0.87811 0.0
H388 H 0.77705 0.69476 0.89932 0.0
H389 H 0.76674 0.72848 0.8625 0.0
H390 H 0.85759 0.68294 0.86873 0.0
H391 H 0.91716 0.68259 0.8762 0.0
H392 H 0.98519 0.77249 0.85622 0.0
H393 H 0.92601 0.77366 0.84875 0.0
C394 C 0.76569 0.70774 0.80711 0.0
C395 C 0.78998 0.73633 0.80053 0.0
C396 C 0.77491 0.70376 0.81862 0.0
C397 C 0.80811 0.72885 0.82393 0.0
C398 C 0.83414 0.75593 0.81703 0.0
C399 C 0.82507 0.75968 0.80542 0.0
C400 C 0.81288 0.72909 0.83688 0.0
C401 C 0.8466 0.72965 0.84163 0.0
C402 C 0.78384 0.72872 0.84458 0.0
C403 C 0.74878 0.73073 0.84023 0.0
C404 C 0.75188 0.75812 0.83313 0.0
C405 C 0.71876 0.75954 0.82889 0.0
C406 C 0.68234 0.7339 0.83179 0.0
C407 C 0.67898 0.70684 0.83896 0.0
C408 C 0.71203 0.70525 0.8432 0.0
C409 C 0.86114 0.76289 0.89175 0.0
C410 C 0.83154 0.74046 0.89909 0.0
C411 C 0.85889 0.75838 0.8796 0.0
C412 C 0.82712 0.73119 0.87447 0.0
C413 C 0.79822 0.708 0.88182 0.0
C414 C 0.80045 0.71248 0.89398 0.0
C415 C 0.82247 0.72863 0.86149 0.0
C416 C 0.78878 0.72801 0.8567 0.0
C417 C 0.8517 0.72924 0.85381 0.0
C418 C 0.88734 0.72854 0.85826 0.0
C419 C 0.88525 0.70279 0.866 0.0
C420 C 0.91895 0.70242 0.87022 0.0
C421 C 0.95493 0.72755 0.86671 0.0
C422 C 0.95729 0.75306 0.85894 0.0
C423 C 0.92368 0.75356 0.8547 0.0
H424 H 0.98099 0.72722 0.86999 0.0
H425 H 0.65673 0.73504 0.82849 0.0
H426 H 0.969 0.688 0.12973 0.0
H427 H 0.98291 0.69982 0.15046 0.0
H428 H 1.00163 0.80401 0.14525 0.0
H429 H 0.98825 0.79248 0.12437 0.0
H430 H 0.0588 0.80251 0.15783 0.0
H431 H 0.92124 0.74522 0.15985 0.0
H432 H 0.85625 0.69907 0.1562 0.0
H433 H 0.88584 0.62793 0.17438 0.0
H434 H 0.95122 0.67358 0.178 0.0
H435 H 0.06432 0.84534 0.21828 0.0
H436 H 0.05056 0.83423 0.19749 0.0
H437 H 0.0334 0.73027 0.20217 0.0
H438 H 0.04678 0.74111 0.22306 0.0
H439 H 0.97524 0.73203 0.18988 0.0
H440 H 0.11301 0.78954 0.18778 0.0
H441 H 0.17785 0.83589 0.19146 0.0
H442 H 0.14758 0.9069 0.17347 0.0
H443 H 0.08234 0.86104 0.16982 0.0
C444 C 0.97546 0.71333 0.13299 0.0
C445 C 0.9774 0.73925 0.12532 0.0
C446 C 0.98338 0.72005 0.1449 0.0
C447 C 0.99321 0.75281 0.14951 0.0
C448 C 0.99419 0.77854 0.14194 0.0
C449 C 0.98622 0.77182 0.13 0.0
C450 C 1.00419 0.76049 0.16208 0.0
C451 C 0.04021 0.78742 0.16484 0.0
C452 C 0.98054 0.74029 0.17127 0.0
C453 C 0.94126 0.71277 0.1691 0.0
C454 C 0.914 0.71968 0.16298 0.0
C455 C 0.87707 0.69362 0.16094 0.0
C456 C 0.86695 0.66057 0.16503 0.0
C457 C 0.89373 0.65353 0.1712 0.0
C458 C 0.93072 0.6795 0.17326 0.0
C459 C 0.05827 0.82023 0.21488 0.0
C460 C 0.05676 0.79416 0.2224 0.0
C461 C 0.05042 0.81392 0.20295 0.0
C462 C 0.041 0.7814 0.19819 0.0
C463 C 0.04051 0.75556 0.20561 0.0
C464 C 0.04848 0.76189 0.21756 0.0
C465 C 0.02987 0.774 0.18563 0.0
C466 C 0.99381 0.74713 0.18287 0.0
C467 C 0.05345 0.79428 0.17644 0.0
C468 C 0.09265 0.82191 0.17863 0.0
C469 C 0.12006 0.8151 0.18469 0.0
C470 C 0.15691 0.84127 0.18676 0.0
C471 C 0.16679 0.87434 0.18273 0.0
C472 C 0.13986 0.88128 0.1766 0.0
C473 C 0.10296 0.8552 0.17452 0.0
H474 H 0.19534 0.89457 0.18434 0.0
H475 H 0.83834 0.64043 0.16344 0.0
H476 H 0.23928 0.93145 0.57067 0.0
H477 H 0.23491 0.92158 0.54958 0.0
H478 H 0.24075 0.02163 0.54407 0.0
H479 H 0.24418 0.03134 0.56517 0.0
H480 H 0.18739 0.97575 0.53009 0.0
H481 H 0.31896 1.00672 0.53908 0.0
H482 H 0.3734 1.00402 0.54939 0.0
H483 H 0.33666 0.9006 0.53766 0.0
H484 H 0.28162 0.9025 0.52741 0.0
H485 H 0.2322 0.984 0.46892 0.0
H486 H 0.234 0.99501 0.48986 0.0
H487 H 0.22151 0.8935 0.49683 0.0
H488 H 0.21874 0.8818 0.47597 0.0
H489 H 0.27924 0.94193 0.50992 0.0
H490 H 0.14672 0.91212 0.50095 0.0
H491 H 0.09385 0.91686 0.49037 0.0
H492 H 0.13482 0.02103 0.5018 0.0
H493 H 0.18828 0.01705 0.51232 0.0
C494 C 0.23931 0.95127 0.565 0.0
C495 C 0.24229 0.98229 0.56969 0.0
C496 C 0.23714 0.9457 0.5529 0.0
C497 C 0.23796 0.971 0.54516 0.0
C498 C 0.24021 1.00173 0.54982 0.0
C499 C 0.24252 1.00737 0.56192 0.0
C500 C 0.23664 0.96546 0.53223 0.0
C501 C 0.20783 0.9688 0.52567 0.0
C502 C 0.26291 0.95593 0.52641 0.0
C503 C 0.29592 0.95463 0.53258 0.0
C504 C 0.32228 0.98329 0.53878 0.0
C505 C 0.35329 0.98193 0.5446 0.0
C506 C 0.35842 0.95212 0.54421 0.0
C507 C 0.3326 0.92364 0.53797 0.0
C508 C 0.3015 0.92486 0.53215 0.0
C509 C 0.22933 0.96373 0.47482 0.0
C510 C 0.22547 0.93193 0.47054 0.0
C511 C 0.23049 0.97018 0.48687 0.0
C512 C 0.22785 0.94509 0.49497 0.0
C513 C 0.22385 0.91338 0.49077 0.0
C514 C 0.22239 0.90679 0.47876 0.0
C515 C 0.2298 0.9519 0.50782 0.0
C516 C 0.25882 0.94887 0.51435 0.0
C517 C 0.20394 0.96199 0.51359 0.0
C518 C 0.17174 0.9644 0.50732 0.0
C519 C 0.14464 0.93613 0.50112 0.0
C520 C 0.11453 0.93866 0.49516 0.0
C521 C 0.11104 0.96926 0.49538 0.0
C522 C 0.13759 0.99736 0.50161 0.0
C523 C 0.16779 0.99497 0.50759 0.0
H524 H 0.08771 0.97117 0.49076 0.0
H525 H 0.38246 0.95112 0.54871 0.0
H526 H 0.21508 0.21961 0.80929 0.0
H527 H 0.19946 0.23232 0.82878 0.0
H528 H 0.2315 0.33658 0.81851 0.0
H529 H 0.24744 0.32366 0.79877 0.0
H530 H 0.26876 0.33288 0.83819 0.0
H531 H 0.13746 0.28261 0.82584 0.0
H532 H 0.07916 0.23879 0.8165 0.0
H533 H 0.07701 0.16398 0.84115 0.0
H534 H 0.13565 0.20715 0.85052 0.0
H535 H 0.24159 0.36118 0.89779 0.0
H536 H 0.23316 0.35874 0.87659 0.0
H537 H 0.18919 0.24891 0.87754 0.0
H538 H 0.19594 0.2511 0.89873 0.0
H539 H 0.15227 0.26355 0.86165 0.0
H540 H 0.28741 0.3067 0.87098 0.0
H541 H 0.34894 0.34641 0.87997 0.0
H542 H 0.3465 0.43002 0.86084 0.0
H543 H 0.28469 0.39084 0.85184 0.0
C544 C 0.21756 0.24497 0.81107 0.0
C545 C 0.23204 0.27056 0.8025 0.0
C546 C 0.20857 0.25223 0.82223 0.0
C547 C 0.21398 0.28537 0.82516 0.0
C548 C 0.22684 0.31075 0.81644 0.0
C549 C 0.23554 0.30332 0.80514 0.0
C550 C 0.21021 0.29374 0.83762 0.0
C551 C 0.24289 0.31838 0.84326 0.0
C552 C 0.17691 0.27408 0.84435 0.0
C553 C 0.14111 0.24816 0.83886 0.0
C554 C 0.12468 0.25678 0.82924 0.0
C555 C 0.09156 0.23203 0.82393 0.0
C556 C 0.07444 0.1986 0.82821 0.0
C557 C 0.09031 0.18988 0.83784 0.0
C558 C 0.12346 0.2145 0.84316 0.0
C559 C 0.22952 0.33646 0.8935 0.0
C560 C 0.2197 0.30637 0.89998 0.0
C561 C 0.22496 0.3351 0.88134 0.0
C562 C 0.2114 0.3037 0.87534 0.0
C563 C 0.19983 0.27352 0.88189 0.0
C564 C 0.20376 0.27481 0.89405 0.0
C565 C 0.21115 0.30213 0.86227 0.0
C566 C 0.1778 0.27867 0.85654 0.0
C567 C 0.24409 0.32238 0.85547 0.0
C568 C 0.28123 0.34594 0.86086 0.0
C569 C 0.29987 0.3336 0.86876 0.0
C570 C 0.3348 0.356 0.87384 0.0
C571 C 0.35155 0.39073 0.871 0.0
C572 C 0.33344 0.40312 0.86305 0.0
C573 C 0.29847 0.38084 0.85795 0.0
H574 H 0.37862 0.40801 0.87491 0.0
H575 H 0.04885 0.17946 0.82407 0.0
H576 H 0.15884 0.28147 0.06392 0.0
H577 H 0.17964 0.28628 0.04341 0.0
H578 H 0.07854 0.29697 0.03294 0.0
H579 H 0.05799 0.2929 0.05326 0.0
H580 H 0.09142 0.24539 0.02055 0.0
H581 H 0.15895 0.36424 0.032 0.0
H582 H 0.20376 0.412 0.04413 0.0
H583 H 0.29635 0.38731 0.03483 0.0
H584 H 0.25193 0.33907 0.02277 0.0
H585 H 0.12548 0.27904 0.96058 0.0
H586 H 0.11172 0.28342 0.98121 0.0
H587 H 0.22794 0.30254 0.99003 0.0
H588 H 0.24235 0.30004 0.96936 0.0
H589 H 0.20919 0.33855 1.00376 0.0
H590 H 0.14562 0.22057 0.99288 0.0
H591 H 0.10293 0.17029 0.98135 0.0
H592 H 1.0058 0.18888 0.99036 0.0
H593 H 0.04807 0.2396 1.00182 0.0
C594 C 0.14129 0.28525 0.05726 0.0
C595 C 0.10675 0.28681 0.06028 0.0
C596 C 0.15322 0.28801 0.04554 0.0
C597 C 0.13059 0.29194 0.03664 0.0
C598 C 0.09642 0.29391 0.03965 0.0
C599 C 0.08482 0.2917 0.05132 0.0
C600 C 0.14136 0.29259 0.02411 0.0
C601 C 0.11694 0.26594 0.01683 0.0
C602 C 0.17531 0.31879 0.01936 0.0
C603 C 0.20202 0.34781 0.02659 0.0
C604 C 0.18878 0.36879 0.03263 0.0
C605 C 0.21413 0.39599 0.03947 0.0
C606 C 0.25285 0.40262 0.04028 0.0
C607 C 0.26633 0.38211 0.03422 0.0
C608 C 0.24109 0.35485 0.02737 0.0
C609 C 0.14823 0.2846 0.96691 0.0
C610 C 0.18495 0.28903 0.96331 0.0
C611 C 0.14026 0.2868 0.97874 0.0
C612 C 0.16842 0.29237 0.98732 0.0
C613 C 0.20555 0.29806 0.98367 0.0
C614 C 0.21378 0.29661 0.97181 0.0
C615 C 0.15898 0.29138 1.00005 0.0
C616 C 0.18366 0.31788 1.00742 0.0
C617 C 0.12559 0.26461 1.00496 0.0
C618 C 0.10008 0.23407 0.9981 0.0
C619 C 0.1152 0.21406 0.99233 0.0
C620 C 0.09105 0.18546 0.98582 0.0
C621 C 0.05166 0.17643 0.98509 0.0
C622 C 0.03632 0.19594 0.99091 0.0
C623 C 0.06035 0.2246 0.99742 0.0
H624 H 0.03296 0.15431 0.98004 0.0
H625 H 0.27244 0.42371 0.04558 0.0
H626 H 0.86096 0.10235 0.3819 0.0
H627 H 0.88266 0.1184 0.36176 0.0
H628 H 0.80543 0.16521 0.3584 0.0
H629 H 0.78319 0.14879 0.37847 0.0
H630 H 0.80567 0.12807 0.33853 0.0
H631 H 0.89792 0.2148 0.36321 0.0
H632 H 0.94406 0.23668 0.37948 0.0
H633 H 1.01276 0.19182 0.36417 0.0
H634 H 0.96671 0.16926 0.34788 0.0
H635 H 0.90071 0.22689 0.28713 0.0
H636 H 0.86716 0.20465 0.30577 0.0
H637 H 0.95073 0.16761 0.31437 0.0
H638 H 0.98462 0.19069 0.29613 0.0
H639 H 0.94471 0.2019 0.33175 0.0
H640 H 0.85278 0.11387 0.30727 0.0
H641 H 0.80652 0.09071 0.29107 0.0
H642 H 0.73757 0.13623 0.30574 0.0
H643 H 0.7837 0.16005 0.32196 0.0
C644 C 0.84828 0.11573 0.37685 0.0
C645 C 0.82054 0.1245 0.38187 0.0
C646 C 0.86086 0.12506 0.36534 0.0
C647 C 0.84594 0.14331 0.35858 0.0
C648 C 0.81744 0.15123 0.36344 0.0
C649 C 0.80504 0.14211 0.37497 0.0
C650 C 0.8612 0.15526 0.34662 0.0
C651 C 0.836 0.14453 0.33703 0.0
C652 C 0.90083 0.17636 0.34463 0.0
C653 C 0.92867 0.19008 0.35438 0.0
C654 C 0.92271 0.20938 0.36336 0.0
C655 C 0.94887 0.22194 0.37258 0.0
C656 C 0.98127 0.21557 0.37288 0.0
C657 C 0.98762 0.1967 0.36393 0.0
C658 C 0.96152 0.18404 0.3547 0.0
C659 C 0.91127 0.21335 0.29292 0.0
C660 C 0.94535 0.21067 0.29022 0.0
C661 C 0.89215 0.20064 0.30358 0.0
C662 C 0.90644 0.18448 0.31158 0.0
C663 C 0.93928 0.18026 0.30849 0.0
C664 C 0.95857 0.19336 0.29801 0.0
C665 C 0.88944 0.17403 0.3235 0.0
C666 C 0.91434 0.18534 0.33316 0.0
C667 C 0.84963 0.1533 0.3255 0.0
C668 C 0.82192 0.13906 0.31575 0.0
C669 C 0.82793 0.11919 0.30699 0.0
C670 C 0.80169 0.10589 0.29781 0.0
C671 C 0.76919 0.11208 0.29736 0.0
C672 C 0.7628 0.13151 0.30609 0.0
C673 C 0.78896 0.14489 0.31528 0.0
H674 H 0.74891 0.10175 0.29025 0.0
H675 H 1.00149 0.22532 0.38002 0.0
H676 H 0.69354 0.78246 0.73304 0.0
H677 H 0.70014 0.80542 0.71341 0.0
H678 H 0.82166 0.83221 0.71377 0.0
H679 H 0.81506 0.80896 0.73373 0.0
H680 H 0.80677 0.88592 0.70625 0.0
H681 H 0.76322 0.76893 0.69595 0.0
H682 H 0.72235 0.70673 0.69701 0.0
H683 H 0.62318 0.72144 0.68772 0.0
H684 H 0.66333 0.78378 0.68676 0.0
H685 H 0.80684 0.94318 0.64693 0.0
H686 H 0.81691 0.91546 0.66435 0.0
H687 H 0.69453 0.86817 0.67102 0.0
H688 H 0.68441 0.89545 0.65372 0.0
H689 H 0.72059 0.82251 0.67364 0.0
H690 H 0.76188 0.93915 0.68688 0.0
H691 H 0.8016 1.00163 0.68634 0.0
H692 H 0.90414 0.98758 0.69034 0.0
H693 H 0.86501 0.92497 0.69076 0.0
C694 C 0.72163 0.79262 0.7289 0.0
C695 C 0.75374 0.79366 0.73494 0.0
C696 C 0.72535 0.80575 0.71762 0.0
C697 C 0.76133 0.82045 0.712 0.0
C698 C 0.79352 0.82091 0.71788 0.0
C699 C 0.7897 0.8073 0.72924 0.0
C700 C 0.76476 0.83667 0.70028 0.0
C701 C 0.78862 0.87187 0.69901 0.0
C702 C 0.7406 0.81864 0.69086 0.0
C703 C 0.71631 0.78109 0.69134 0.0
C704 C 0.73265 0.75893 0.6942 0.0
C705 C 0.70961 0.72364 0.69478 0.0
C706 C 0.67018 0.71015 0.69245 0.0
C707 C 0.65373 0.73192 0.68952 0.0
C708 C 0.67663 0.76724 0.68894 0.0
C709 C 0.78214 0.92713 0.65217 0.0
C710 C 0.74476 0.92148 0.64883 0.0
C711 C 0.78792 0.91122 0.66215 0.0
C712 C 0.7565 0.88963 0.6691 0.0
C713 C 0.71931 0.88436 0.66581 0.0
C714 C 0.71352 0.90002 0.65585 0.0
C715 C 0.76164 0.87203 0.67973 0.0
C716 C 0.73932 0.8365 0.68078 0.0
C717 C 0.7871 0.88981 0.68895 0.0
C718 C 0.81058 0.9274 0.6887 0.0
C719 C 0.79292 0.94939 0.68755 0.0
C720 C 0.81532 0.98482 0.68728 0.0
C721 C 0.85538 0.99856 0.68826 0.0
C722 C 0.87311 0.9769 0.68955 0.0
C723 C 0.85085 0.94144 0.68981 0.0
H724 H 0.87267 0.026 0.68806 0.0
H725 H 0.65239 0.68282 0.6929 0.0
H726 H 0.88219 0.76781 0.06193 0.0
H727 H 0.86325 0.75992 0.04131 0.0
H728 H 0.93888 0.71269 0.03494 0.0
H729 H 0.95724 0.71967 0.05557 0.0
H730 H 0.94861 0.76988 0.01946 0.0
H731 H 0.85055 0.663 0.034 0.0
H732 H 0.79722 0.62709 0.04704 0.0
H733 H 0.73046 0.67789 0.03531 0.0
H734 H 0.78365 0.71448 0.02232 0.0
H735 H 0.89986 0.72953 0.95977 0.0
H736 H 0.91409 0.72671 0.98044 0.0
H737 H 0.8142 0.74124 0.99006 0.0
H738 H 0.79891 0.74236 0.96949 0.0
H739 H 0.8174 0.69844 1.00418 0.0
H740 H 0.91207 0.80734 0.99105 0.0
H741 H 0.96446 0.84787 0.97865 0.0
H742 H 0.03647 0.80011 0.98831 0.0
H743 H 0.98429 0.75899 1.00067 0.0
C744 C 0.89426 0.75517 0.05619 0.0
C745 C 0.92114 0.74428 0.06044 0.0
C746 C 0.88345 0.75074 0.0444 0.0
C747 C 0.89975 0.73582 0.03656 0.0
C748 C 0.92598 0.7243 0.04082 0.0
C749 C 0.93622 0.7281 0.05265 0.0
C750 C 0.89079 0.73372 0.02386 0.0
C751 C 0.92009 0.75385 0.01607 0.0
C752 C 0.85329 0.71375 0.0195 0.0
C753 C 0.82125 0.69171 0.02727 0.0
C754 C 0.82465 0.66674 0.03428 0.0
C755 C 0.79441 0.64621 0.04164 0.0
C756 C 0.76051 0.65026 0.04203 0.0
C757 C 0.75675 0.67481 0.03502 0.0
C758 C 0.78692 0.69542 0.02765 0.0
C759 C 0.88084 0.73195 0.9663 0.0
C760 C 0.84829 0.73624 0.96293 0.0
C761 C 0.88914 0.73058 0.97815 0.0
C762 C 0.86569 0.73441 0.98694 0.0
C763 C 0.83286 0.73817 0.98355 0.0
C764 C 0.82417 0.7389 0.97173 0.0
C765 C 0.87526 0.73479 0.99964 0.0
C766 C 0.84606 0.7144 1.00748 0.0
C767 C 0.91271 0.75521 1.0041 0.0
C768 C 0.94412 0.77985 0.99667 0.0
C769 C 0.93898 0.80532 0.99046 0.0
C770 C 0.96864 0.82842 0.98345 0.0
C771 C 1.00373 0.8265 0.98267 0.0
C772 C 1.00925 0.80152 0.98891 0.0
C773 C 0.97965 0.77832 0.99592 0.0
H774 H 0.02667 0.84441 0.97724 0.0
H775 H 0.73713 0.63434 0.04773 0.0
H776 H 0.09133 0.7744 0.29132 0.0
H777 H 0.11147 0.78892 0.31157 0.0
H778 H 0.16842 0.89587 0.30259 0.0
H779 H 0.14871 0.8815 0.28219 0.0
H780 H 0.21043 0.8801 0.31849 0.0
H781 H 0.07995 0.86276 0.31492 0.0
H782 H 1.01157 0.83201 0.30932 0.0
H783 H 0.99762 0.74902 0.33198 0.0
H784 H 0.06613 0.77907 0.33758 0.0
H785 H 0.21491 0.93942 0.37754 0.0
H786 H 0.20511 0.92856 0.35656 0.0
H787 H 0.14645 0.82012 0.36306 0.0
H788 H 0.15657 0.83063 0.38397 0.0
H789 H 0.10609 0.83936 0.34819 0.0
H790 H 0.23773 0.85753 0.35162 0.0
H791 H 0.30613 0.88918 0.3571 0.0
H792 H 0.31768 0.97217 0.3348 0.0
H793 H 0.24916 0.94119 0.3293 0.0
C794 C 0.10856 0.80102 0.29358 0.0
C795 C 0.1181 0.82678 0.28508 0.0
C796 C 0.11993 0.80931 0.30521 0.0
C797 C 0.14087 0.84357 0.3087 0.0
C798 C 0.15213 0.86925 0.30015 0.0
C799 C 0.14081 0.86097 0.28847 0.0
C800 C 0.14925 0.85247 0.32133 0.0
C801 C 0.18757 0.87158 0.32496 0.0
C802 C 0.11956 0.84108 0.32986 0.0
C803 C 0.07827 0.82304 0.32658 0.0
C804 C 0.06238 0.83785 0.31864 0.0
C805 C 0.02359 0.82055 0.31548 0.0
C806 C 1.00029 0.78854 0.32027 0.0
C807 C 1.01572 0.7738 0.32827 0.0
C808 C 0.05452 0.79096 0.33144 0.0
C809 C 0.20044 0.91321 0.37454 0.0
C810 C 0.18642 0.88596 0.38257 0.0
C811 C 0.19477 0.90703 0.36249 0.0
C812 C 0.17508 0.87347 0.35817 0.0
C813 C 0.16152 0.84626 0.36614 0.0
C814 C 0.16725 0.85238 0.37815 0.0
C815 C 0.16734 0.86655 0.34541 0.0
C816 C 0.12902 0.84791 0.34173 0.0
C817 C 0.19702 0.87856 0.33687 0.0
C818 C 0.23821 0.8972 0.34015 0.0
C819 C 0.25477 0.88266 0.34796 0.0
C820 C 0.29357 0.90045 0.35106 0.0
C821 C 0.3162 0.93271 0.34633 0.0
C822 C 0.30009 0.9472 0.33847 0.0
C823 C 0.26128 0.92953 0.33535 0.0
H824 H 0.34625 0.94644 0.34873 0.0
H825 H 0.97026 0.77519 0.31781 0.0
H826 H 0.2139 0.08352 0.6466 0.0
H827 H 0.20704 0.11505 0.66351 0.0
H828 H 0.28993 0.09296 0.68234 0.0
H829 H 0.29543 0.06024 0.66561 0.0
H830 H 0.23848 0.08909 0.69686 0.0
H831 H 0.30979 0.17284 0.66755 0.0
H832 H 0.3208 0.20087 0.64831 0.0
H833 H 0.22194 0.22013 0.6534 0.0
H834 H 0.20983 0.19151 0.67255 0.0
H835 H 0.3314 0.23138 0.73337 0.0
H836 H 0.31644 0.19926 0.71517 0.0
H837 H 0.201 0.19044 0.71623 0.0
H838 H 0.21552 0.22227 0.73488 0.0
H839 H 0.25682 0.20844 0.69185 0.0
H840 H 0.18946 0.12631 0.72242 0.0
H841 H 0.18581 0.10314 0.74225 0.0
H842 H 0.28424 0.08487 0.73493 0.0
H843 H 0.28892 0.1086 0.71513 0.0
C844 C 0.23051 0.08532 0.65438 0.0
C845 C 0.25537 0.06951 0.65475 0.0
C846 C 0.22672 0.10352 0.66405 0.0
C847 C 0.24855 0.1072 0.67422 0.0
C848 C 0.27268 0.09066 0.67466 0.0
C849 C 0.27587 0.07189 0.66508 0.0
C850 C 0.24707 0.12867 0.68433 0.0
C851 C 0.24241 0.11512 0.69568 0.0
C852 C 0.25146 0.16265 0.68296 0.0
C853 C 0.25863 0.17966 0.67142 0.0
C854 C 0.29019 0.18276 0.66452 0.0
C855 C 0.29662 0.19875 0.65363 0.0
C856 C 0.27198 0.21214 0.64961 0.0
C857 C 0.24093 0.20965 0.6565 0.0
C858 C 0.23422 0.19349 0.66736 0.0
C859 C 0.30289 0.22317 0.72971 0.0
C860 C 0.27454 0.22922 0.73569 0.0
C861 C 0.29446 0.20479 0.71926 0.0
C862 C 0.25759 0.1922 0.71439 0.0
C863 C 0.2297 0.19996 0.71986 0.0
C864 C 0.23806 0.21826 0.73048 0.0
C865 C 0.24839 0.16871 0.70417 0.0
C866 C 0.25167 0.18202 0.69289 0.0
C867 C 0.24308 0.13466 0.70557 0.0
C868 C 0.23973 0.11951 0.71734 0.0
C869 C 0.21051 0.11761 0.72508 0.0
C870 C 0.20822 0.10435 0.7363 0.0
C871 C 0.23483 0.09261 0.73985 0.0
C872 C 0.26367 0.094 0.73217 0.0
C873 C 0.26613 0.10733 0.72094 0.0
H874 H 0.23305 0.08239 0.74855 0.0
H875 H 0.27702 0.22453 0.64119 0.0
H876 H 0.08435 0.66416 0.09769 0.0
H877 H 0.07493 0.60501 0.09699 0.0
H878 H 0.97573 0.57835 0.07491 0.0
H879 H 0.98515 0.63762 0.07546 0.0
H880 H 0.9606 0.53183 0.09199 0.0
H881 H 0.06112 0.58541 0.06377 0.0
H882 H 0.12379 0.62835 0.05642 0.0
H883 H 0.18244 0.59817 0.0824 0.0
H884 H 0.12005 0.55535 0.09002 0.0
H885 H 0.94111 0.36722 0.07495 0.0
H886 H 0.95016 0.42635 0.07511 0.0
H887 H 0.04953 0.45495 0.09726 0.0
H888 H 0.04047 0.39585 0.09728 0.0
H889 H 0.06425 0.5004 0.07987 0.0
H890 H 0.96404 0.44743 0.10824 0.0
H891 H 0.90151 0.40458 0.11571 0.0
H892 H 0.84243 0.43366 0.08955 0.0
H893 H 0.90468 0.4764 0.08181 0.0
C894 C 0.06082 0.64598 0.09254 0.0
C895 C 0.0356 0.65601 0.08661 0.0
C896 C 0.0554 0.61198 0.09217 0.0
C897 C 0.02477 0.58712 0.08582 0.0
C898 C 0.99952 0.59697 0.0799 0.0
C899 C 1.00493 0.63098 0.08025 0.0
C900 C 0.01875 0.55081 0.08552 0.0
C901 C 0.9831 0.52494 0.08917 0.0
C902 C 0.04832 0.54172 0.08211 0.0
C903 C 0.08589 0.5674 0.07754 0.0
C904 C 0.08737 0.58812 0.06798 0.0
C905 C 0.12284 0.6124 0.06375 0.0
C906 C 0.15707 0.61605 0.06896 0.0
C907 C 0.1559 0.59535 0.07839 0.0
C908 C 0.12049 0.57105 0.08266 0.0
C909 C 0.96465 0.38588 0.07998 0.0
C910 C 0.99001 0.37642 0.0861 0.0
C911 C 0.96985 0.41983 0.08004 0.0
C912 C 1.0004 0.4452 0.08627 0.0
C913 C 0.02582 0.43594 0.09235 0.0
C914 C 0.02062 0.402 0.09231 0.0
C915 C 1.00612 0.48144 0.08635 0.0
C916 C 0.04173 0.50729 0.08267 0.0
C917 C 0.97652 0.49051 0.08973 0.0
C918 C 0.93904 0.46486 0.09437 0.0
C919 C 0.93773 0.44449 0.10402 0.0
C920 C 0.90234 0.42026 0.10831 0.0
C921 C 0.86802 0.41633 0.10309 0.0
C922 C 0.86904 0.4367 0.09358 0.0
C923 C 0.90436 0.46095 0.08924 0.0
H924 H 0.84065 0.39756 0.10643 0.0
H925 H 0.18451 0.63486 0.06567 0.0
H926 H 0.64908 1.00908 0.39687 0.0
H927 H 0.58277 1.00126 0.3988 0.0
H928 H 0.5969 1.01385 0.4361 0.0
H929 H 0.66318 0.02075 0.43424 0.0
H930 H 0.52725 0.96687 0.43178 0.0
H931 H 0.60213 0.07995 0.41711 0.0
H932 H 0.64692 0.12364 0.40369 0.0
H933 H 0.56888 0.07783 0.37522 0.0
H934 H 0.52385 0.03356 0.38845 0.0
H935 H 0.37261 1.00761 0.44362 0.0
H936 H 0.43725 1.01239 0.44062 0.0
H937 H 0.41204 0.98675 0.40427 0.0
H938 H 0.34668 0.98178 0.40721 0.0
H939 H 0.4861 0.03913 0.4076 0.0
H940 H 0.41015 0.92695 0.42299 0.0
H941 H 0.36569 0.88489 0.43691 0.0
H942 H 0.44664 0.93127 0.46466 0.0
H943 H 0.49137 0.97395 0.45093 0.0
C944 C 0.63804 1.0098 0.40552 0.0
C945 C 0.66178 0.01569 0.4154 0.0
C946 C 0.60002 1.00561 0.40661 0.0
C947 C 0.5847 1.0078 0.41758 0.0
C948 C 0.60782 1.01224 0.42751 0.0
C949 C 0.64584 0.01612 0.42644 0.0
C950 C 0.54504 1.00608 0.41863 0.0
C951 C 0.51857 0.98303 0.42658 0.0
C952 C 0.5329 0.02656 0.41172 0.0
C953 C 0.5598 0.05324 0.40375 0.0
C954 C 0.59465 0.07906 0.40797 0.0
C955 C 0.62006 0.10394 0.4004 0.0
C956 C 0.6108 0.10345 0.3886 0.0
C957 C 0.57604 0.07814 0.38436 0.0
C958 C 0.55055 0.05316 0.39189 0.0
C959 C 0.38069 1.00325 0.43492 0.0
C960 C 0.35404 0.99416 0.42567 0.0
C961 C 0.41782 1.00583 0.43324 0.0
C962 C 0.42961 0.9994 0.42226 0.0
C963 C 0.40372 0.99169 0.41285 0.0
C964 C 0.36629 0.98889 0.41455 0.0
C965 C 0.46857 1.00006 0.42076 0.0
C966 C 0.49485 0.02292 0.41275 0.0
C967 C 0.48066 0.97964 0.42769 0.0
C968 C 0.45396 0.95384 0.43595 0.0
C969 C 0.41835 0.92834 0.43208 0.0
C970 C 0.39312 0.90436 0.43993 0.0
C971 C 0.4033 0.90546 0.45167 0.0
C972 C 0.43878 0.93048 0.45557 0.0
C973 C 0.4641 0.95455 0.44775 0.0
H974 H 0.38372 0.88687 0.45774 0.0
H975 H 0.63051 0.12274 0.38275 0.0
H976 H 0.45579 0.36002 0.76879 0.0
H977 H 0.50142 0.42056 0.76847 0.0
H978 H 0.41049 0.44739 0.77847 0.0
H979 H 0.36451 0.38673 0.77852 0.0
H980 H 0.45245 0.49088 0.76305 0.0
H981 H 0.48375 0.44895 0.79807 0.0
H982 H 0.50116 0.41096 0.81005 0.0
H983 H 0.60539 0.44002 0.79023 0.0
H984 H 0.58835 0.47786 0.77803 0.0
H985 H 0.57509 0.66236 0.78033 0.0
H986 H 0.52964 0.60204 0.78016 0.0
H987 H 0.61763 0.57651 0.7664 0.0
H988 H 0.66341 0.63688 0.76636 0.0
H989 H 0.57751 0.53281 0.78374 0.0
H990 H 0.54543 0.57571 0.74894 0.0
H991 H 0.52757 0.6143 0.73745 0.0
H992 H 0.42394 0.58401 0.75767 0.0
H993 H 0.44146 0.54557 0.76939 0.0
C994 C 0.44548 0.37873 0.771 0.0
C995 C 0.40634 0.36824 0.77375 0.0
C996 C 0.47175 0.41354 0.77084 0.0
C997 C 0.45992 0.43899 0.77367 0.0
C998 C 0.42068 0.42856 0.77627 0.0
C999 C 0.39427 0.39373 0.77628 0.0
C1000 C 0.48825 0.47631 0.77385 0.0
C1001 C 0.47951 0.49998 0.76774 0.0
C1002 C 0.5242 0.48863 0.77972 0.0
C1003 C 0.53458 0.46598 0.78706 0.0
C1004 C 0.51025 0.44705 0.79621 0.0
C1005 C 0.52007 0.42557 0.80305 0.0
C1006 C 0.55431 0.42301 0.80088 0.0
C1007 C 0.57886 0.44199 0.79189 0.0
C1008 C 0.56914 0.46348 0.78502 0.0
C1009 C 0.58508 0.64426 0.77714 0.0
C1010 C 0.62348 0.6553 0.7733 0.0
C1011 C 0.55876 0.60945 0.77707 0.0
C1012 C 0.56984 0.58443 0.77315 0.0
C1013 C 0.60816 0.59514 0.76947 0.0
C1014 C 0.63451 0.62999 0.76948 0.0
C1015 C 0.5416 0.5472 0.77297 0.0
C1016 C 0.5504 0.52361 0.77907 0.0
C1017 C 0.5056 0.53501 0.76717 0.0
C1018 C 0.49495 0.55802 0.76012 0.0
C1019 C 0.51899 0.57748 0.75099 0.0
C1020 C 0.50889 0.59929 0.74443 0.0
C1021 C 0.47469 0.60167 0.74685 0.0
C1022 C 0.45045 0.58217 0.75582 0.0
C1023 C 0.46043 0.56035 0.76242 0.0
H1024 H 0.46692 0.61857 0.74176 0.0
H1025 H 0.56187 0.40636 0.80619 0.0
H1026 H 0.41535 0.10634 0.6172 0.0
H1027 H 0.48118 0.11082 0.61848 0.0
H1028 H 0.44585 0.01891 0.59785 0.0
H1029 H 0.38083 1.01417 0.59676 0.0
H1030 H 0.4792 1.01219 0.61646 0.0
H1031 H 0.50965 0.10007 0.58759 0.0
H1032 H 0.51401 0.15398 0.57945 0.0
H1033 H 0.58701 0.21016 0.60782 0.0
H1034 H 0.58267 0.15649 0.61622 0.0
H1035 H 0.69104 0.05622 0.60097 0.0
H1036 H 0.63459 0.06729 0.59802 0.0
H1037 H 0.603 0.04388 0.63417 0.0
H1038 H 0.65883 0.03264 0.63716 0.0
H1039 H 0.60486 0.11016 0.60747 0.0
H1040 H 0.50642 0.99549 0.63592 0.0
H1041 H 0.5018 0.93981 0.64239 0.0
H1042 H 0.56324 0.93424 0.61175 0.0
H1043 H 0.56772 0.98959 0.60503 0.0
C1044 C 0.42206 0.08773 0.61268 0.0
C1045 C 0.39279 0.05988 0.60689 0.0
C1046 C 0.45969 0.09016 0.61345 0.0
C1047 C 0.46873 0.06498 0.60835 0.0
C1048 C 0.43987 0.03846 0.602 0.0
C1049 C 0.40259 0.0359 0.60132 0.0
C1050 C 0.50682 0.06413 0.61023 0.0
C1051 C 0.50657 0.0338 0.61451 0.0
C1052 C 0.5429 0.09197 0.60762 0.0
C1053 C 0.54548 0.12422 0.6026 0.0
C1054 C 0.52635 0.12388 0.59215 0.0
C1055 C 0.52888 0.1544 0.58747 0.0
C1056 C 0.55067 0.18547 0.59313 0.0
C1057 C 0.57008 0.18607 0.60346 0.0
C1058 C 0.56762 0.15562 0.60818 0.0
C1059 C 0.67241 0.05392 0.60834 0.0
C1060 C 0.67954 0.04323 0.61929 0.0
C1061 C 0.64011 0.06036 0.60664 0.0
C1062 C 0.61405 0.05605 0.61582 0.0
C1063 C 0.62222 0.047 0.62688 0.0
C1064 C 0.65437 0.04061 0.62858 0.0
C1065 C 0.5769 0.05834 0.61375 0.0
C1066 C 0.57737 0.08878 0.60947 0.0
C1067 C 0.54079 0.03041 0.61616 0.0
C1068 C 0.53775 0.99685 0.62005 0.0
C1069 C 0.51881 0.9823 0.63055 0.0
C1070 C 0.51623 0.95081 0.63426 0.0
C1071 C 0.53233 0.93356 0.62751 0.0
C1072 C 0.55091 0.94769 0.617 0.0
C1073 C 0.55351 0.97913 0.61324 0.0
H1074 H 0.53034 0.90921 0.6304 0.0
H1075 H 0.55261 0.20907 0.58949 0.0
H1076 H 0.35173 0.40436 0.93067 0.0
H1077 H 0.40604 0.4614 0.93129 0.0
H1078 H 0.48507 0.41618 0.93357 0.0
H1079 H 0.43088 0.35911 0.93321 0.0
H1080 H 0.50576 0.46965 0.94839 0.0
H1081 H 0.47241 0.44889 0.90794 0.0
H1082 H 0.42884 0.43338 0.891 0.0
H1083 H 0.40436 0.51884 0.89793 0.0
H1084 H 0.44746 0.53459 0.91503 0.0
H1085 H 0.67778 0.61828 0.9348 0.0
H1086 H 0.62365 0.56125 0.9342 0.0
H1087 H 0.54453 0.60617 0.9311 0.0
H1088 H 0.59855 0.66323 0.93133 0.0
H1089 H 0.52382 0.5527 0.9167 0.0
H1090 H 0.55756 0.57342 0.95723 0.0
H1091 H 0.60089 0.58833 0.97423 0.0
H1092 H 0.62464 0.50256 0.96713 0.0
H1093 H 0.58183 0.4874 0.94998 0.0
C1094 C 0.38058 0.40648 0.93143 0.0
C1095 C 0.38677 0.37696 0.93184 0.0
C1096 C 0.41173 0.4392 0.93168 0.0
C1097 C 0.44984 0.44324 0.93233 0.0
C1098 C 0.45604 0.41385 0.93302 0.0
C1099 C 0.42495 0.38115 0.93272 0.0
C1100 C 0.48325 0.47802 0.93219 0.0
C1101 C 0.50995 0.48763 0.94138 0.0
C1102 C 0.4885 0.50188 0.92317 0.0
C1103 C 0.46286 0.49271 0.91284 0.0
C1104 C 0.45752 0.46423 0.9059 0.0
C1105 C 0.43294 0.45541 0.89626 0.0
C1106 C 0.41373 0.47505 0.89341 0.0
C1107 C 0.4192 0.50362 0.90016 0.0
C1108 C 0.44374 0.51252 0.90983 0.0
C1109 C 0.64897 0.61615 0.93386 0.0
C1110 C 0.64277 0.64565 0.93318 0.0
C1111 C 0.61789 0.58339 0.93364 0.0
C1112 C 0.57976 0.57922 0.93277 0.0
C1113 C 0.57355 0.60856 0.93183 0.0
C1114 C 0.60458 0.6413 0.93207 0.0
C1115 C 0.54637 0.5444 0.93292 0.0
C1116 C 0.51965 0.53476 0.92372 0.0
C1117 C 0.54113 0.52049 0.94192 0.0
C1118 C 0.5668 0.52948 0.95225 0.0
C1119 C 0.57226 0.55789 0.95924 0.0
C1120 C 0.59669 0.56636 0.96891 0.0
C1121 C 0.61559 0.54646 0.97174 0.0
C1122 C 0.61003 0.51799 0.96492 0.0
C1123 C 0.58566 0.50943 0.95522 0.0
H1124 H 0.63449 0.55306 0.97924 0.0
H1125 H 0.39469 0.46817 0.88594 0.0
H1126 H 0.93798 0.60426 0.26157 0.0
H1127 H 0.94453 0.55102 0.26185 0.0
H1128 H 0.06813 0.60839 0.26337 0.0
H1129 H 0.06184 0.66181 0.26314 0.0
H1130 H 0.04848 0.5562 0.24832 0.0
H1131 H 1.01452 0.56922 0.28777 0.0
H1132 H 0.97529 0.57781 0.30332 0.0
H1133 H 0.87753 0.48574 0.29288 0.0
H1134 H 0.91605 0.47684 0.27715 0.0
H1135 H 0.0922 0.42062 0.26564 0.0
H1136 H 0.08483 0.47348 0.26488 0.0
H1137 H 0.96142 0.4149 0.26311 0.0
H1138 H 0.96851 0.36187 0.26418 0.0
H1139 H 0.98038 0.46736 0.27812 0.0
H1140 H 1.01434 0.45383 0.23884 0.0
H1141 H 0.05337 0.44511 0.22326 0.0
H1142 H 0.15086 0.53791 0.2333 0.0
H1143 H 0.11255 0.54694 0.24906 0.0
C1144 C 0.96659 0.60569 0.26206 0.0
C1145 C 0.99934 0.6376 0.2624 0.0
C1146 C 0.9703 0.5751 0.26221 0.0
C1147 C 1.00683 0.57552 0.26279 0.0
C1148 C 0.03961 0.60728 0.26292 0.0
C1149 C 0.03594 0.63792 0.26275 0.0
C1150 C 1.01085 0.54292 0.26329 0.0
C1151 C 0.03398 0.537 0.25494 0.0
C1152 C 0.99125 0.51734 0.27174 0.0
C1153 C 0.96807 0.52256 0.28121 0.0
C1154 C 0.98457 0.55094 0.28873 0.0
C1155 C 0.96248 0.55584 0.29759 0.0
C1156 C 0.92391 0.53238 0.29907 0.0
C1157 C 0.90739 0.50392 0.29171 0.0
C1158 C 0.92935 0.49892 0.28283 0.0
C1159 C 0.06344 0.41887 0.26518 0.0
C1160 C 0.03097 0.38677 0.26496 0.0
C1161 C 0.05928 0.44922 0.26463 0.0
C1162 C 0.02257 0.44832 0.2638 0.0
C1163 C 0.99007 0.41636 0.2637 0.0
C1164 C 0.99421 0.38597 0.26422 0.0
C1165 C 0.01807 0.48067 0.26316 0.0
C1166 C 0.99485 0.48654 0.27149 0.0
C1167 C 0.03757 0.50619 0.25469 0.0
C1168 C 0.06067 0.50088 0.24521 0.0
C1169 C 0.04419 0.47223 0.23779 0.0
C1170 C 0.06617 0.46726 0.22892 0.0
C1171 C 0.1046 0.49089 0.22731 0.0
C1172 C 0.12111 0.5196 0.23456 0.0
C1173 C 0.09926 0.52468 0.24346 0.0
H1174 H 0.12157 0.487 0.22043 0.0
H1175 H 0.90686 0.53622 0.30593 0.0
H1176 H 0.05408 0.16471 0.0859 0.0
H1177 H 0.06312 0.11275 0.08502 0.0
H1178 H 0.94 0.05155 0.08584 0.0
H1179 H 0.93062 0.10348 0.08661 0.0
H1180 H 0.97551 0.02727 0.10087 0.0
H1181 H 0.99189 0.0617 0.06059 0.0
H1182 H 0.02018 0.10163 0.04419 0.0
H1183 H 0.13235 0.11048 0.05262 0.0
H1184 H 0.1048 0.07094 0.06917 0.0
H1185 H 0.96994 0.86716 0.08591 0.0
H1186 H 0.9624 0.91991 0.0864 0.0
H1187 H 0.0856 0.97897 0.08351 0.0
H1188 H 0.09326 0.92607 0.08289 0.0
H1189 H 0.05125 1.00507 0.06972 0.0
H1190 H 0.03619 0.97118 0.1098 0.0
H1191 H 1.00927 0.93218 0.1265 0.0
H1192 H 0.89659 0.92351 0.11896 0.0
H1193 H 0.92275 0.96211 0.10211 0.0
C1194 C 0.0288 0.14032 0.08571 0.0
C1195 C 0.99152 0.13853 0.08629 0.0
C1196 C 0.03408 0.1105 0.08524 0.0
C1197 C 1.00226 0.07811 0.08528 0.0
C1198 C 0.96504 0.07619 0.08583 0.0
C1199 C 0.95973 0.10599 0.08629 0.0
C1200 C 1.00775 0.04625 0.08498 0.0
C1201 C 0.99161 0.02221 0.09397 0.0
C1202 C 0.02975 0.04001 0.07618 0.0
C1203 C 0.04633 0.06361 0.06619 0.0
C1204 C 0.02264 0.07236 0.059 0.0
C1205 C 0.03853 0.09489 0.04967 0.0
C1206 C 0.07805 0.10865 0.04738 0.0
C1207 C 0.10175 0.09983 0.05441 0.0
C1208 C 0.086 0.07734 0.06376 0.0
C1209 C 0.99551 0.89133 0.08552 0.0
C1210 C 0.03227 0.89228 0.08445 0.0
C1211 C 0.99115 0.92158 0.08579 0.0
C1212 C 0.02346 0.95362 0.08517 0.0
C1213 C 0.06018 0.95466 0.08401 0.0
C1214 C 0.06455 0.92435 0.08365 0.0
C1215 C 0.01882 0.98593 0.08558 0.0
C1216 C 0.03515 1.0101 0.07663 0.0
C1217 C 0.9972 0.99241 0.09447 0.0
C1218 C 0.98138 0.96929 0.10462 0.0
C1219 C 1.00562 0.96076 0.11165 0.0
C1220 C 0.9905 0.93876 0.12115 0.0
C1221 C 0.95123 0.92531 0.12377 0.0
C1222 C 0.927 0.93392 0.11691 0.0
C1223 C 0.94196 0.95588 0.10739 0.0
H1224 H 0.93958 0.90828 0.13113 0.0
H1225 H 0.0903 0.1261 0.04016 0.0
H1226 H 0.87339 0.03123 0.40702 0.0
H1227 H 0.93418 0.02671 0.40477 0.0
H1228 H 0.92307 0.98853 0.43994 0.0
H1229 H 0.86281 0.99319 0.44226 0.0
H1230 H 0.99428 0.03676 0.4365 0.0
H1231 H 0.90803 0.93615 0.41553 0.0
H1232 H 0.85978 0.90404 0.40057 0.0
H1233 H 0.93819 0.9625 0.37354 0.0
H1234 H 0.98675 0.99527 0.38836 0.0
H1235 H 0.14169 0.97987 0.43564 0.0
H1236 H 0.0821 0.98639 0.43717 0.0
H1237 H 0.09243 0.01587 0.40094 0.0
H1238 H 0.15119 1.00818 0.39928 0.0
H1239 H 0.02214 0.9737 0.40455 0.0
H1240 H 0.10876 0.07405 0.42512 0.0
H1241 H 0.15741 0.10709 0.43986 0.0
H1242 H 0.07928 0.0511 0.4673 0.0
H1243 H 0.0303 0.01744 0.45271 0.0
C1244 C 0.88357 0.02139 0.41421 0.0
C1245 C 0.86289 1.01251 0.42481 0.0
C1246 C 0.91848 0.01883 0.41293 0.0
C1247 C 0.93351 1.00719 0.42218 0.0
C1248 C 0.91245 0.99774 0.43267 0.0
C1249 C 0.87769 1.00025 0.43395 0.0
C1250 C 0.97153 1.00567 0.42116 0.0
C1251 C 1.00015 0.02261 0.42958 0.0
C1252 C 0.97999 0.98809 0.41198 0.0
C1253 C 0.95086 0.9684 0.40306 0.0
C1254 C 0.91486 0.94234 0.4064 0.0
C1255 C 0.88749 0.92399 0.39795 0.0
C1256 C 0.89587 0.9313 0.38611 0.0
C1257 C 0.93171 0.95691 0.38271 0.0
C1258 C 0.95918 0.97536 0.39114 0.0
C1259 C 0.13165 0.98828 0.42804 0.0
C1260 C 0.15154 0.99363 0.41734 0.0
C1261 C 0.09742 0.99208 0.42893 0.0
C1262 C 0.08248 1.00199 0.4192 0.0
C1263 C 0.10291 1.0081 0.4086 0.0
C1264 C 0.13682 1.0039 0.40767 0.0
C1265 C 0.04501 1.00473 0.41992 0.0
C1266 C 0.01644 0.988 0.41146 0.0
C1267 C 0.03669 0.02272 0.42902 0.0
C1268 C 0.066 0.04302 0.43782 0.0
C1269 C 0.10205 0.06863 0.43429 0.0
C1270 C 0.12967 0.08749 0.44263 0.0
C1271 C 0.12148 0.08114 0.45451 0.0
C1272 C 0.0856 0.05597 0.45809 0.0
C1273 C 0.05788 0.03702 0.4498 0.0
H1274 H 0.1429 0.09576 0.46095 0.0
H1275 H 0.87464 0.91706 0.37958 0.0
H1276 H 0.13681 0.15549 0.78049 0.0
H1277 H 0.07283 0.1078 0.7807 0.0
H1278 H 0.12209 0.03771 0.77416 0.0
H1279 H 0.18633 0.08564 0.7733 0.0
H1280 H 0.06025 0.01961 0.76146 0.0
H1281 H 0.0871 0.04847 0.80209 0.0
H1282 H 0.10607 0.08731 0.81909 0.0
H1283 H 1.01003 0.10991 0.81329 0.0
H1284 H 0.9907 0.07146 0.79616 0.0
H1285 H 0.89581 0.86694 0.77599 0.0
H1286 H 0.95924 0.91569 0.77583 0.0
H1287 H 0.90691 0.98413 0.78079 0.0
H1288 H 0.84297 0.93522 0.78094 0.0
H1289 H 0.96958 1.0036 0.79423 0.0
H1290 H 0.94219 0.97466 0.75387 0.0
H1291 H 0.92339 0.93681 0.73661 0.0
H1292 H 0.02051 0.91524 0.7417 0.0
H1293 H 0.03959 0.95261 0.7591 0.0
C1294 C 0.13435 0.13009 0.77898 0.0
C1295 C 0.16734 0.12484 0.77687 0.0
C1296 C 0.09744 0.10258 0.77926 0.0
C1297 C 0.09228 0.0688 0.77766 0.0
C1298 C 0.12505 0.06339 0.77549 0.0
C1299 C 0.16203 0.09097 0.77511 0.0
C1300 C 0.05279 0.03928 0.77807 0.0
C1301 C 0.04073 0.01589 0.76873 0.0
C1302 C 0.02651 0.03468 0.78736 0.0
C1303 C 0.03765 0.0573 0.79779 0.0
C1304 C 0.07013 0.06184 0.80441 0.0
C1305 C 0.08093 0.08377 0.81407 0.0
C1306 C 0.05932 0.10113 0.81725 0.0
C1307 C 0.02675 0.09646 0.81081 0.0
C1308 C 1.01582 0.07456 0.80113 0.0
C1309 C 0.89751 0.89229 0.77692 0.0
C1310 C 0.86384 0.8969 0.77835 0.0
C1311 C 0.93405 0.9203 0.77685 0.0
C1312 C 0.93814 0.95386 0.77811 0.0
C1313 C 0.90471 0.95859 0.77978 0.0
C1314 C 0.86804 0.9305 0.77988 0.0
C1315 C 0.97725 0.98383 0.77766 0.0
C1316 C 0.98917 1.00731 0.78698 0.0
C1317 C 1.0034 0.98856 0.76834 0.0
C1318 C 0.9921 0.96619 0.75785 0.0
C1319 C 0.95937 0.96165 0.75136 0.0
C1320 C 0.94869 0.94031 0.74155 0.0
C1321 C 0.97069 0.92357 0.73808 0.0
C1322 C 1.00347 0.9282 0.74441 0.0
C1323 C 1.01425 0.94948 0.75424 0.0
H1324 H 0.96237 0.90706 0.73048 0.0
H1325 H 0.06777 0.11813 0.82472 0.0
H1326 H 0.90391 0.10272 0.5956 0.0
H1327 H 0.97209 0.11533 0.59601 0.0
H1328 H 0.95043 0.04653 0.62505 0.0
H1329 H 0.88226 0.03437 0.62486 0.0
H1330 H 0.0183 0.10106 0.62784 0.0
H1331 H 0.95574 0.02237 0.59611 0.0
H1332 H 0.91777 1.00397 0.57798 0.0
H1333 H 1.00217 0.09144 0.56004 0.0
H1334 H 0.04039 0.1106 0.57812 0.0
H1335 H 0.15535 0.03839 0.62399 0.0
H1336 H 0.09956 0.05004 0.62401 0.0
H1337 H 0.14835 0.12096 0.59558 0.0
H1338 H 0.20507 0.10866 0.5954 0.0
H1339 H 0.07268 0.07672 0.59158 0.0
H1340 H 0.14094 0.14961 0.62277 0.0
H1341 H 0.17959 0.16551 0.64075 0.0
H1342 H 0.08552 0.08892 0.65982 0.0
H1343 H 0.04651 0.07191 0.64186 0.0
C1344 C 0.91367 0.09058 0.60219 0.0
C1345 C 0.88735 0.06732 0.61015 0.0
C1346 C 0.95276 0.09771 0.60237 0.0
C1347 C 0.96654 0.0814 0.6104 0.0
C1348 C 0.94068 0.05941 0.61872 0.0
C1349 C 0.90158 0.05244 0.6186 0.0
C1350 C 1.00725 0.08584 0.60981 0.0
C1351 C 0.03009 0.09559 0.61992 0.0
C1352 C 0.0234 0.07983 0.59939 0.0
C1353 C 1.00068 0.06811 0.58849 0.0
C1354 C 0.96607 0.03778 0.58832 0.0
C1355 C 0.94452 0.02721 0.57805 0.0
C1356 C 0.95749 0.04658 0.56787 0.0
C1357 C 0.99212 0.0765 0.56793 0.0
C1358 C 1.01375 0.08722 0.57818 0.0
C1359 C 0.15466 0.05685 0.6178 0.0
C1360 C 0.18471 0.07255 0.60967 0.0
C1361 C 0.12265 0.06366 0.61788 0.0
C1362 C 0.11962 0.08664 0.60989 0.0
C1363 C 0.15004 0.10321 0.60188 0.0
C1364 C 0.18258 0.09644 0.60184 0.0
C1365 C 0.08342 0.0912 0.60968 0.0
C1366 C 0.06128 0.08296 0.59944 0.0
C1367 C 0.06793 0.09859 0.61998 0.0
C1368 C 0.0908 0.10939 0.63092 0.0
C1369 C 0.1285 0.13603 0.63078 0.0
C1370 C 0.15051 0.14524 0.64098 0.0
C1371 C 0.13504 0.12827 0.65144 0.0
C1372 C 0.09746 0.10207 0.65171 0.0
C1373 C 0.07536 0.09264 0.64152 0.0
H1374 H 0.15215 0.13544 0.65932 0.0
H1375 H 0.94076 0.03837 0.55994 0.0
H1376 H 0.86036 0.90961 0.92011 0.0
H1377 H 0.91805 0.96349 0.92142 0.0
H1378 H 0.96736 0.91877 0.9458 0.0
H1379 H 0.90875 0.86485 0.94497 0.0
H1380 H 0.9823 0.98142 0.95265 0.0
H1381 H 0.99527 0.93204 0.91643 0.0
H1382 H 0.97504 0.90573 0.897 0.0
H1383 H 0.96664 0.99548 0.885 0.0
H1384 H 0.98631 0.02215 0.90442 0.0
H1385 H 0.17309 0.1144 0.94852 0.0
H1386 H 0.11616 0.05953 0.94768 0.0
H1387 H 0.06332 0.10128 0.92338 0.0
H1388 H 0.12092 0.15598 0.92377 0.0
H1389 H 0.05112 0.0393 0.91656 0.0
H1390 H 0.03721 0.08821 0.95287 0.0
H1391 H 0.05741 0.11445 0.97227 0.0
H1392 H 0.06772 0.02548 0.98413 0.0
H1393 H 0.04811 0.99883 0.9647 0.0
C1394 C 0.88305 0.911 0.92588 0.0
C1395 C 0.87942 0.88232 0.9324 0.0
C1396 C 0.91648 0.94199 0.92651 0.0
C1397 C 0.9476 0.94523 0.93354 0.0
C1398 C 0.94395 0.91698 0.94023 0.0
C1399 C 0.91036 0.88593 0.93967 0.0
C1400 C 0.98372 0.97812 0.93391 0.0
C1401 C 0.99765 0.99377 0.94476 0.0
C1402 C 1.00351 0.99485 0.92362 0.0
C1403 C 0.99194 0.97897 0.91191 0.0
C1404 C 0.98886 0.94607 0.90968 0.0
C1405 C 0.97753 0.93111 0.89866 0.0
C1406 C 0.96948 0.94889 0.88978 0.0
C1407 C 0.97285 0.98172 0.89189 0.0
C1408 C 0.98412 0.99679 0.9029 0.0
C1409 C 0.14966 0.11205 0.94289 0.0
C1410 C 0.15199 0.14005 0.93622 0.0
C1411 C 0.11675 0.08055 0.94253 0.0
C1412 C 0.08498 0.07618 0.9356 0.0
C1413 C 0.08728 0.1039 0.92884 0.0
C1414 C 0.12027 0.13541 0.92916 0.0
C1415 C 0.04958 0.0427 0.9353 0.0
C1416 C 0.03582 0.02692 0.92445 0.0
C1417 C 0.03 0.02583 0.94559 0.0
C1418 C 0.04157 0.04168 0.9573 0.0
C1419 C 0.04406 0.07433 0.95959 0.0
C1420 C 0.05536 0.08928 0.9706 0.0
C1421 C 0.06394 0.07172 0.97943 0.0
C1422 C 0.06112 0.03909 0.97728 0.0
C1423 C 0.04989 0.02404 0.96627 0.0
H1424 H 0.07269 0.08337 0.98795 0.0
H1425 H 0.9607 0.93726 0.88126 0.0
H1426 H 0.02951 0.88542 0.27651 0.0
H1427 H 0.03814 0.94455 0.27779 0.0
H1428 H 0.97005 0.92922 0.24665 0.0
H1429 H 0.96086 0.87017 0.24546 0.0
H1430 H 0.07174 0.99758 0.26462 0.0
H1431 H 0.92301 0.97816 0.24666 0.0
H1432 H 0.85547 0.93405 0.24668 0.0
H1433 H 0.87562 0.89148 0.27821 0.0
H1434 H 0.94311 0.93559 0.27846 0.0
H1435 H 0.0824 0.15789 0.24751 0.0
H1436 H 0.073 0.09864 0.24857 0.0
H1437 H 0.98758 0.07827 0.2756 0.0
H1438 H 0.99621 0.13729 0.27429 0.0
H1439 H 0.96226 0.02754 0.26165 0.0
H1440 H 0.08257 0.08795 0.28105 0.0
H1441 H 0.14947 0.13198 0.28357 0.0
H1442 H 0.18497 0.09241 0.25384 0.0
H1443 H 0.11815 0.0484 0.25105 0.0
C1444 C 0.01628 0.89465 0.26996 0.0
C1445 C 0.99421 0.87288 0.26094 0.0
C1446 C 0.02126 0.9285 0.27069 0.0
C1447 C 1.00438 0.94145 0.26241 0.0
C1448 C 0.98263 0.9198 0.25333 0.0
C1449 C 0.97734 0.8859 0.25267 0.0
C1450 C 1.01011 0.97769 0.26308 0.0
C1451 C 0.04775 1.00408 0.26399 0.0
C1452 C 0.97889 0.98643 0.26252 0.0
C1453 C 0.93822 0.96 0.2625 0.0
C1454 C 0.91298 0.95947 0.25362 0.0
C1455 C 0.87472 0.93445 0.25358 0.0
C1456 C 0.8613 0.90992 0.26242 0.0
C1457 C 0.88609 0.91042 0.27134 0.0
C1458 C 0.92436 0.9354 0.27143 0.0
C1459 C 0.0619 0.14086 0.25375 0.0
C1460 C 0.04012 0.15235 0.26083 0.0
C1461 C 0.05656 0.10692 0.25438 0.0
C1462 C 0.02991 0.08382 0.26229 0.0
C1463 C 1.00825 0.09537 0.2694 0.0
C1464 C 1.01319 0.12917 0.26865 0.0
C1465 C 0.02397 0.04751 0.26298 0.0
C1466 C 0.98627 0.02109 0.26231 0.0
C1467 C 0.05505 0.03873 0.26411 0.0
C1468 C 0.09529 0.06507 0.26578 0.0
C1469 C 0.10459 0.08878 0.275 0.0
C1470 C 0.14251 0.11372 0.27649 0.0
C1471 C 0.17144 0.11504 0.26886 0.0
C1472 C 0.16252 0.09137 0.25974 0.0
C1473 C 0.12465 0.0664 0.25821 0.0
H1474 H 0.20077 0.13437 0.27002 0.0
H1475 H 0.83168 0.89056 0.26237 0.0
loop_
_geom_bond_atom_site_label_1
_geom_bond_atom_site_label_2
_geom_bond_distance
_geom_bond_site_symmetry_2
_ccdc_geom_bond_type
Cu0 N1 1.999 . S
Cu0 O6 1.974 1_655 S
Cu0 N11 1.993 1_655 S
Cu0 O20 1.959 . S
N1 Cu0 1.999 . S
N1 C3 1.263 1_655 S
N1 C5 1.389 . S
N2 C3 1.358 1_655 S
N2 C4 1.400 . S
C3 N1 1.263 1_455 S
C3 N2 1.358 1_455 S
C3 H9 0.930 . S
C4 N2 1.400 . S
C4 C5 1.351 . S
C4 H21 0.930 . S
C5 N1 1.389 . S
C5 C4 1.351 . S
C5 H10 0.930 . S
O6 Cu0 1.974 1_455 S
O6 C16 1.282 . S
C7 O8 1.245 1_655 S
C7 O20 1.262 . S
O8 C7 1.245 1_455 S
H9 C3 0.930 . S
H10 C5 0.930 . S
N11 Cu0 1.993 1_455 S
N11 C13 1.313 1_455 S
N11 C14 1.400 . S
N12 C13 1.345 1_455 S
N12 C15 1.336 . S
C13 N11 1.313 1_655 S
C13 N12 1.345 1_655 S
C13 H18 0.930 . S
C14 N11 1.400 . S
C14 C15 1.346 . S
C14 H19 0.930 . S
C15 N12 1.336 . S
C15 C14 1.346 . S
C15 H22 0.929 . S
C16 O6 1.282 . S
C16 O17 1.216 . S
O17 C16 1.216 . S
H18 C13 0.930 . S
H19 C14 0.930 . S
O20 Cu0 1.959 . S
O20 C7 1.262 . S
H21 C4 0.930 . S
H22 C15 0.929 . S
Cu23 N24 1.999 . S
Cu23 O29 1.974 . S
Cu23 N34 1.985 . S
Cu23 O43 1.959 . S
N24 Cu23 1.999 . S
N24 C26 1.263 . S
N24 C28 1.389 . S
N25 C26 1.358 . S
N25 C27 1.400 . S
C26 N24 1.263 . S
C26 N25 1.358 . S
C26 H32 0.930 . S
C27 N25 1.400 . S
C27 C28 1.351 . S
C27 H44 0.930 . S
C28 N24 1.389 . S
C28 C27 1.351 . S
C28 H33 0.930 . S
O29 Cu23 1.974 . S
O29 C39 1.282 . S
C30 O31 1.261 1_545 S
C30 O43 1.251 . S
O31 C30 1.261 1_565 S
H32 C26 0.930 . S
H33 C28 0.930 . S
N34 Cu23 1.985 . S
N34 C36 1.335 . S
N34 C37 1.390 . S
N35 C36 1.345 . S
N35 C38 1.336 . S
C36 N34 1.335 . S
C36 N35 1.345 . S
C36 H41 0.930 . S
C37 N34 1.390 . S
C37 C38 1.346 . S
C37 H42 0.930 . S
C38 N35 1.336 . S
C38 C37 1.346 . S
C38 H45 0.929 . S
C39 O29 1.282 . S
C39 O40 1.216 1_545 S
O40 C39 1.216 1_565 S
H41 C36 0.930 . S
H42 C37 0.930 . S
O43 Cu23 1.959 . S
O43 C30 1.251 . S
H44 C27 0.930 . S
H45 C38 0.929 . S
Cu46 N47 1.999 . S
Cu46 O52 1.974 . S
Cu46 N57 1.985 . S
Cu46 O66 1.959 . S
N47 Cu46 1.999 . S
N47 C49 1.263 . S
N47 C51 1.389 . S
N48 C49 1.358 . S
N48 C50 1.400 . S
C49 N47 1.263 . S
C49 N48 1.358 . S
C49 H55 0.930 . S
C50 N48 1.400 . S
C50 C51 1.351 . S
C50 H67 0.930 . S
C51 N47 1.389 . S
C51 C50 1.351 . S
C51 H56 0.930 . S
O52 Cu46 1.974 . S
O52 C62 1.282 . S
C53 O54 1.261 . S
C53 O66 1.251 . S
O54 C53 1.261 . S
H55 C49 0.930 . S
H56 C51 0.930 . S
N57 Cu46 1.985 . S
N57 C59 1.335 . S
N57 C60 1.390 . S
N58 C59 1.345 . S
N58 C61 1.336 . S
C59 N57 1.335 . S
C59 N58 1.345 . S
C59 H64 0.930 . S
C60 N57 1.390 . S
C60 C61 1.346 . S
C60 H65 0.930 . S
C61 N58 1.336 . S
C61 C60 1.346 . S
C61 H68 0.929 . S
C62 O52 1.282 . S
C62 O63 1.216 . S
O63 C62 1.216 . S
H64 C59 0.930 . S
H65 C60 0.930 . S
O66 Cu46 1.959 . S
O66 C53 1.251 . S
H67 C50 0.930 . S
H68 C61 0.929 . S
Cu69 N70 1.999 . S
Cu69 O75 1.974 1_455 S
Cu69 N80 1.985 1_455 S
Cu69 O89 1.959 . S
N70 Cu69 1.999 . S
N70 C72 1.263 1_455 S
N70 C74 1.389 . S
N71 C72 1.358 1_455 S
N71 C73 1.400 . S
C72 N70 1.263 1_655 S
C72 N71 1.358 1_655 S
C72 H78 0.930 . S
C73 N71 1.400 . S
C73 C74 1.351 . S
C73 H90 0.930 . S
C74 N70 1.389 . S
C74 C73 1.351 . S
C74 H79 0.930 . S
O75 Cu69 1.974 1_655 S
O75 C85 1.282 . S
C76 O77 1.249 1_455 S
C76 O89 1.260 . S
O77 C76 1.249 1_655 S
H78 C72 0.930 . S
H79 C74 0.930 . S
N80 Cu69 1.985 1_655 S
N80 C82 1.335 1_655 S
N80 C83 1.390 . S
N81 C82 1.345 1_655 S
N81 C84 1.338 . S
C82 N80 1.335 1_455 S
C82 N81 1.345 1_455 S
C82 H87 0.930 . S
C83 N80 1.390 . S
C83 C84 1.346 . S
C83 H88 0.930 . S
C84 N81 1.338 . S
C84 C83 1.346 . S
C84 H91 0.929 . S
C85 O75 1.282 . S
C85 O86 1.216 . S
O86 C85 1.216 . S
H87 C82 0.930 . S
H88 C83 0.930 . S
O89 Cu69 1.959 . S
O89 C76 1.260 . S
H90 C73 0.930 . S
H91 C84 0.929 . S
Cu92 N93 1.999 . S
Cu92 O98 1.974 . S
Cu92 N103 1.985 . S
Cu92 O112 1.959 . S
N93 Cu92 1.999 . S
N93 C95 1.263 . S
N93 C97 1.389 . S
N94 C95 1.358 . S
N94 C96 1.400 . S
C95 N93 1.263 . S
C95 N94 1.358 . S
C95 H101 0.930 . S
C96 N94 1.400 . S
C96 C97 1.351 . S
C96 H113 0.930 . S
C97 N93 1.389 . S
C97 C96 1.351 . S
C97 H102 0.930 . S
O98 Cu92 1.974 . S
O98 C108 1.282 . S
C99 O100 1.261 1_565 S
C99 O112 1.251 . S
O100 C99 1.261 1_545 S
H101 C95 0.930 . S
H102 C97 0.930 . S
N103 Cu92 1.985 . S
N103 C105 1.335 . S
N103 C106 1.390 . S
N104 C105 1.345 . S
N104 C107 1.336 . S
C105 N103 1.335 . S
C105 N104 1.345 . S
C105 H110 0.930 . S
C106 N103 1.390 . S
C106 C107 1.346 . S
C106 H111 0.930 . S
C107 N104 1.336 . S
C107 C106 1.346 . S
C107 H114 0.929 . S
C108 O98 1.282 . S
C108 O109 1.216 1_565 S
O109 C108 1.216 1_545 S
H110 C105 0.930 . S
H111 C106 0.930 . S
O112 Cu92 1.959 . S
O112 C99 1.251 . S
H113 C96 0.930 . S
H114 C107 0.929 . S
Cu115 N116 1.999 . S
Cu115 O121 1.974 . S
Cu115 N126 1.985 . S
Cu115 O135 1.959 . S
N116 Cu115 1.999 . S
N116 C118 1.263 . S
N116 C120 1.389 . S
N117 C118 1.358 . S
N117 C119 1.400 . S
C118 N116 1.263 . S
C118 N117 1.358 . S
C118 H124 0.930 . S
C119 N117 1.400 . S
C119 C120 1.351 . S
C119 H136 0.930 . S
C120 N116 1.389 . S
C120 C119 1.351 . S
C120 H125 0.930 . S
O121 Cu115 1.974 . S
O121 C131 1.282 . S
C122 O123 1.261 . S
C122 O135 1.251 . S
O123 C122 1.261 . S
H124 C118 0.930 . S
H125 C120 0.930 . S
N126 Cu115 1.985 . S
N126 C128 1.335 . S
N126 C129 1.390 . S
N127 C128 1.345 . S
N127 C130 1.336 . S
C128 N126 1.335 . S
C128 N127 1.345 . S
C128 H133 0.930 . S
C129 N126 1.390 . S
C129 C130 1.346 . S
C129 H134 0.930 . S
C130 N127 1.336 . S
C130 C129 1.346 . S
C130 H137 0.929 . S
C131 O121 1.282 . S
C131 O132 1.216 . S
O132 C131 1.216 . S
H133 C128 0.930 . S
H134 C129 0.930 . S
O135 Cu115 1.959 . S
O135 C122 1.251 . S
H136 C119 0.930 . S
H137 C130 0.929 . S
Cu138 N139 1.999 . S
Cu138 O144 1.974 . S
Cu138 N149 1.985 . S
Cu138 O158 1.959 . S
N139 Cu138 1.999 . S
N139 C141 1.263 . S
N139 C143 1.389 . S
N140 C141 1.358 . S
N140 C142 1.400 . S
C141 N139 1.263 . S
C141 N140 1.358 . S
C141 H147 0.930 . S
C142 N140 1.400 . S
C142 C143 1.351 . S
C142 H159 0.930 . S
C143 N139 1.389 . S
C143 C142 1.351 . S
C143 H148 0.930 . S
O144 Cu138 1.974 . S
O144 C154 1.282 . S
C145 O146 1.261 1_565 S
C145 O158 1.251 . S
O146 C145 1.261 1_545 S
H147 C141 0.930 . S
H148 C143 0.930 . S
N149 Cu138 1.985 . S
N149 C151 1.335 . S
N149 C152 1.390 . S
N150 C151 1.345 . S
N150 C153 1.336 . S
C151 N149 1.335 . S
C151 N150 1.345 . S
C151 H156 0.930 . S
C152 N149 1.390 . S
C152 C153 1.346 . S
C152 H157 0.930 . S
C153 N150 1.336 . S
C153 C152 1.346 . S
C153 H160 0.929 . S
C154 O144 1.282 . S
C154 O155 1.216 1_565 S
O155 C154 1.216 1_545 S
H156 C151 0.930 . S
H157 C152 0.930 . S
O158 Cu138 1.959 . S
O158 C145 1.251 . S
H159 C142 0.930 . S
H160 C153 0.929 . S
Cu161 N162 1.999 . S
Cu161 O167 1.974 . S
Cu161 N172 1.985 . S
Cu161 O181 1.959 . S
N162 Cu161 1.999 . S
N162 C164 1.263 . S
N162 C166 1.389 . S
N163 C164 1.358 . S
N163 C165 1.400 . S
C164 N162 1.263 . S
C164 N163 1.358 . S
C164 H170 0.930 . S
C165 N163 1.400 . S
C165 C166 1.351 . S
C165 H182 0.930 . S
C166 N162 1.389 . S
C166 C165 1.351 . S
C166 H171 0.930 . S
O167 Cu161 1.974 . S
O167 C177 1.282 . S
C168 O169 1.261 . S
C168 O181 1.251 . S
O169 C168 1.261 . S
H170 C164 0.930 . S
H171 C166 0.930 . S
N172 Cu161 1.985 . S
N172 C174 1.335 . S
N172 C175 1.390 . S
N173 C174 1.345 . S
N173 C176 1.336 . S
C174 N172 1.335 . S
C174 N173 1.345 . S
C174 H179 0.930 . S
C175 N172 1.390 . S
C175 C176 1.346 . S
C175 H180 0.930 . S
C176 N173 1.336 . S
C176 C175 1.346 . S
C176 H183 0.929 . S
C177 O167 1.282 . S
C177 O178 1.216 . S
O178 C177 1.216 . S
H179 C174 0.930 . S
H180 C175 0.930 . S
O181 Cu161 1.959 . S
O181 C168 1.251 . S
H182 C165 0.930 . S
H183 C176 0.929 . S
Cu184 N185 1.999 . S
Cu184 O190 1.974 1_655 S
Cu184 N195 1.985 1_655 S
Cu184 O204 1.959 . S
N185 Cu184 1.999 . S
N185 C187 1.263 1_655 S
N185 C189 1.389 . S
N186 C187 1.358 1_655 S
N186 C188 1.400 . S
C187 N185 1.263 1_455 S
C187 N186 1.358 1_455 S
C187 H193 0.930 . S
C188 N186 1.400 . S
C188 C189 1.351 . S
C188 H205 0.930 . S
C189 N185 1.389 . S
C189 C188 1.351 . S
C189 H194 0.930 . S
O190 Cu184 1.974 1_455 S
O190 C200 1.282 . S
C191 O192 1.261 . S
C191 O204 1.251 1_455 S
O192 C191 1.261 . S
H193 C187 0.930 . S
H194 C189 0.930 . S
N195 Cu184 1.985 1_455 S
N195 C197 1.335 1_455 S
N195 C198 1.390 . S
N196 C197 1.345 1_455 S
N196 C199 1.336 . S
C197 N195 1.335 1_655 S
C197 N196 1.345 1_655 S
C197 H202 0.930 . S
C198 N195 1.390 . S
C198 C199 1.346 . S
C198 H203 0.930 . S
C199 N196 1.336 . S
C199 C198 1.346 . S
C199 H206 0.929 . S
C200 O190 1.282 . S
C200 O201 1.216 . S
O201 C200 1.216 . S
H202 C197 0.930 . S
H203 C198 0.930 . S
O204 Cu184 1.959 . S
O204 C191 1.251 1_655 S
H205 C188 0.930 . S
H206 C199 0.929 . S
Cu207 N208 1.999 . S
Cu207 O213 1.974 . S
Cu207 N218 1.985 . S
Cu207 O227 1.959 . S
N208 Cu207 1.999 . S
N208 C210 1.263 . S
N208 C212 1.389 . S
N209 C210 1.358 . S
N209 C211 1.400 . S
C210 N208 1.263 . S
C210 N209 1.358 . S
C210 H216 0.930 . S
C211 N209 1.400 . S
C211 C212 1.351 . S
C211 H228 0.930 . S
C212 N208 1.389 . S
C212 C211 1.351 . S
C212 H217 0.930 . S
O213 Cu207 1.974 . S
O213 C223 1.282 . S
C214 O215 1.261 1_545 S
C214 O227 1.251 . S
O215 C214 1.261 1_565 S
H216 C210 0.930 . S
H217 C212 0.930 . S
N218 Cu207 1.985 . S
N218 C220 1.335 . S
N218 C221 1.390 . S
N219 C220 1.345 . S
N219 C222 1.336 . S
C220 N218 1.335 . S
C220 N219 1.345 . S
C220 H225 0.930 . S
C221 N218 1.390 . S
C221 C222 1.346 . S
C221 H226 0.930 . S
C222 N219 1.336 . S
C222 C221 1.346 . S
C222 H229 0.929 . S
C223 O213 1.282 . S
C223 O224 1.216 1_545 S
O224 C223 1.216 1_565 S
H225 C220 0.930 . S
H226 C221 0.930 . S
O227 Cu207 1.959 . S
O227 C214 1.251 . S
H228 C211 0.930 . S
H229 C222 0.929 . S
Cu230 N231 1.999 . S
Cu230 O236 1.974 . S
Cu230 N241 1.985 . S
Cu230 O250 1.959 . S
N231 Cu230 1.999 . S
N231 C233 1.263 . S
N231 C235 1.389 . S
N232 C233 1.358 . S
N232 C234 1.400 . S
C233 N231 1.263 . S
C233 N232 1.358 . S
C233 H239 0.930 . S
C234 N232 1.400 . S
C234 C235 1.351 . S
C234 H251 0.930 . S
C235 N231 1.389 . S
C235 C234 1.351 . S
C235 H240 0.930 . S
O236 Cu230 1.974 . S
O236 C246 1.282 . S
C237 O238 1.261 . S
C237 O250 1.251 . S
O238 C237 1.261 . S
H239 C233 0.930 . S
H240 C235 0.930 . S
N241 Cu230 1.985 . S
N241 C243 1.335 . S
N241 C244 1.390 . S
N242 C243 1.345 . S
N242 C245 1.336 . S
C243 N241 1.335 . S
C243 N242 1.345 . S
C243 H248 0.930 . S
C244 N241 1.390 . S
C244 C245 1.346 . S
C244 H249 0.930 . S
C245 N242 1.336 . S
C245 C244 1.346 . S
C245 H252 0.929 . S
C246 O236 1.282 . S
C246 O247 1.216 . S
O247 C246 1.216 . S
H248 C243 0.930 . S
H249 C244 0.930 . S
O250 Cu230 1.959 . S
O250 C237 1.251 . S
H251 C234 0.930 . S
H252 C245 0.929 . S
Cu253 N254 1.999 . S
Cu253 O259 1.974 1_455 S
Cu253 N264 1.985 1_455 S
Cu253 O273 1.959 . S
N254 Cu253 1.999 . S
N254 C256 1.263 1_455 S
N254 C258 1.389 . S
N255 C256 1.358 1_455 S
N255 C257 1.400 . S
C256 N254 1.263 1_655 S
C256 N255 1.358 1_655 S
C256 H262 0.930 . S
C257 N255 1.400 . S
C257 C258 1.351 . S
C257 H274 0.930 . S
C258 N254 1.389 . S
C258 C257 1.351 . S
C258 H263 0.930 . S
O259 Cu253 1.974 1_655 S
O259 C269 1.282 . S
C260 O261 1.261 . S
C260 O273 1.251 1_655 S
O261 C260 1.261 . S
H262 C256 0.930 . S
H263 C258 0.930 . S
N264 Cu253 1.985 1_655 S
N264 C266 1.335 1_655 S
N264 C267 1.390 . S
N265 C266 1.345 1_655 S
N265 C268 1.336 . S
C266 N264 1.335 1_455 S
C266 N265 1.345 1_455 S
C266 H271 0.930 . S
C267 N264 1.390 . S
C267 C268 1.346 . S
C267 H272 0.930 . S
C268 N265 1.336 . S
C268 C267 1.346 . S
C268 H275 0.929 . S
C269 O259 1.282 . S
C269 O270 1.216 . S
O270 C269 1.216 . S
H271 C266 0.930 . S
H272 C267 0.930 . S
O273 Cu253 1.959 . S
O273 C260 1.251 1_455 S
H274 C257 0.930 . S
H275 C268 0.929 . S
H276 C294 0.951 . S
H277 C296 0.951 . S
H278 C298 0.950 . S
H279 C299 0.950 . S
H280 C301 0.950 . S
H281 C304 0.950 . S
H282 C305 0.950 . S
H283 C307 0.950 . S
H284 C308 0.950 . S
H285 C309 0.951 . S
H286 C311 0.951 . S
H287 C313 0.950 . S
H288 C314 0.950 . S
H289 C316 0.950 . S
H290 C319 0.950 . S
H291 C320 0.950 . S
H292 C322 0.950 . S
H293 C323 0.950 . S
C294 H276 0.951 . S
C294 C295 1.366 . S
C294 C296 1.388 . S
C295 C294 1.366 . S
C295 C299 1.385 1_655 S
C296 H277 0.951 . S
C296 C294 1.388 . S
C296 C297 1.366 . S
C297 C296 1.366 . S
C297 C298 1.414 1_655 S
C297 C300 1.499 . S
C298 H278 0.950 . S
C298 C297 1.414 1_455 S
C298 C299 1.374 . S
C299 H279 0.950 . S
C299 C295 1.385 1_455 S
C299 C298 1.374 . S
C300 C297 1.499 . S
C300 C301 1.373 1_655 S
C300 C302 1.389 . S
C301 H280 0.950 . S
C301 C300 1.373 1_455 S
C301 C317 1.377 . S
C302 C300 1.389 . S
C302 C303 1.524 . S
C302 C316 1.377 . S
C303 C302 1.524 . S
C303 C304 1.397 . S
C303 C308 1.363 . S
C304 H281 0.950 . S
C304 C303 1.397 . S
C304 C305 1.334 . S
C305 H282 0.950 . S
C305 C304 1.334 . S
C305 C306 1.287 . S
C306 C305 1.287 . S
C306 C307 1.524 . S
C306 H325 0.913 . S
C307 H283 0.950 . S
C307 C306 1.524 . S
C307 C308 1.415 . S
C308 H284 0.950 . S
C308 C303 1.363 . S
C308 C307 1.415 . S
C309 H285 0.951 . S
C309 C310 1.366 1_455 S
C309 C311 1.388 . S
C310 C309 1.366 1_655 S
C310 C314 1.385 . S
C311 H286 0.951 . S
C311 C309 1.388 . S
C311 C312 1.366 1_455 S
C312 C311 1.366 1_655 S
C312 C313 1.414 . S
C312 C315 1.499 . S
C313 H287 0.950 . S
C313 C312 1.414 . S
C313 C314 1.374 . S
C314 H288 0.950 . S
C314 C310 1.385 . S
C314 C313 1.374 . S
C315 C312 1.499 . S
C315 C316 1.373 . S
C315 C317 1.389 1_655 S
C316 H289 0.950 . S
C316 C302 1.377 . S
C316 C315 1.373 . S
C317 C301 1.377 . S
C317 C315 1.389 1_455 S
C317 C318 1.524 . S
C318 C317 1.524 . S
C318 C319 1.397 . S
C318 C323 1.363 . S
C319 H290 0.950 . S
C319 C318 1.397 . S
C319 C320 1.334 . S
C320 H291 0.950 . S
C320 C319 1.334 . S
C320 C321 1.287 . S
C321 C320 1.287 . S
C321 C322 1.524 . S
C321 H324 0.999 . S
C322 H292 0.950 . S
C322 C321 1.524 . S
C322 C323 1.415 . S
C323 H293 0.950 . S
C323 C318 1.363 . S
C323 C322 1.415 . S
H324 C321 0.999 . S
H325 C306 0.913 . S
H326 C344 0.951 . S
H327 C346 0.951 . S
H328 C348 0.950 . S
H329 C349 0.950 . S
H330 C351 0.950 . S
H331 C354 0.950 . S
H332 C355 0.950 . S
H333 C357 0.950 . S
H334 C358 0.950 . S
H335 C359 0.951 . S
H336 C361 0.951 . S
H337 C363 0.950 . S
H338 C364 0.950 . S
H339 C366 0.950 . S
H340 C369 0.950 . S
H341 C370 0.950 . S
H342 C372 0.950 . S
H343 C373 0.950 . S
C344 H326 0.951 . S
C344 C345 1.366 1_565 S
C344 C346 1.388 . S
C345 C344 1.366 1_545 S
C345 C349 1.385 . S
C346 H327 0.951 . S
C346 C344 1.388 . S
C346 C347 1.366 1_565 S
C347 C346 1.366 1_545 S
C347 C348 1.414 . S
C347 C350 1.499 . S
C348 H328 0.950 . S
C348 C347 1.414 . S
C348 C349 1.374 . S
C349 H329 0.950 . S
C349 C345 1.385 . S
C349 C348 1.374 . S
C350 C347 1.499 . S
C350 C351 1.373 . S
C350 C352 1.389 1_545 S
C351 H330 0.950 . S
C351 C350 1.373 . S
C351 C367 1.377 . S
C352 C350 1.389 1_565 S
C352 C353 1.524 . S
C352 C366 1.377 . S
C353 C352 1.524 . S
C353 C354 1.397 . S
C353 C358 1.363 . S
C354 H331 0.950 . S
C354 C353 1.397 . S
C354 C355 1.334 . S
C355 H332 0.950 . S
C355 C354 1.334 . S
C355 C356 1.287 . S
C356 C355 1.287 . S
C356 C357 1.524 . S
C356 H375 0.913 . S
C357 H333 0.950 . S
C357 C356 1.524 . S
C357 C358 1.415 . S
C358 H334 0.950 . S
C358 C353 1.363 . S
C358 C357 1.415 . S
C359 H335 0.951 . S
C359 C360 1.366 1_545 S
C359 C361 1.388 . S
C360 C359 1.366 1_565 S
C360 C364 1.385 . S
C361 H336 0.951 . S
C361 C359 1.388 . S
C361 C362 1.366 1_545 S
C362 C361 1.366 1_565 S
C362 C363 1.414 . S
C362 C365 1.499 . S
C363 H337 0.950 . S
C363 C362 1.414 . S
C363 C364 1.374 . S
C364 H338 0.950 . S
C364 C360 1.385 . S
C364 C363 1.374 . S
C365 C362 1.499 . S
C365 C366 1.373 . S
C365 C367 1.389 1_565 S
C366 H339 0.950 . S
C366 C352 1.377 . S
C366 C365 1.373 . S
C367 C351 1.377 . S
C367 C365 1.389 1_545 S
C367 C368 1.524 . S
C368 C367 1.524 . S
C368 C369 1.397 . S
C368 C373 1.363 . S
C369 H340 0.950 . S
C369 C368 1.397 . S
C369 C370 1.334 . S
C370 H341 0.950 . S
C370 C369 1.334 . S
C370 C371 1.287 . S
C371 C370 1.287 . S
C371 C372 1.524 . S
C371 H374 0.999 . S
C372 H342 0.950 . S
C372 C371 1.524 . S
C372 C373 1.415 . S
C373 H343 0.950 . S
C373 C368 1.363 . S
C373 C372 1.415 . S
H374 C371 0.999 . S
H375 C356 0.913 . S
H376 C394 0.951 . S
H377 C396 0.951 . S
H378 C398 0.950 . S
H379 C399 0.950 . S
H380 C401 0.950 . S
H381 C404 0.950 . S
H382 C405 0.950 . S
H383 C407 0.950 . S
H384 C408 0.950 . S
H385 C409 0.951 . S
H386 C411 0.951 . S
H387 C413 0.950 . S
H388 C414 0.950 . S
H389 C416 0.950 . S
H390 C419 0.950 . S
H391 C420 0.950 . S
H392 C422 0.950 . S
H393 C423 0.950 . S
C394 H376 0.951 . S
C394 C395 1.366 . S
C394 C396 1.388 . S
C395 C394 1.366 . S
C395 C399 1.385 . S
C396 H377 0.951 . S
C396 C394 1.388 . S
C396 C397 1.366 . S
C397 C396 1.366 . S
C397 C398 1.414 . S
C397 C400 1.499 . S
C398 H378 0.950 . S
C398 C397 1.414 . S
C398 C399 1.374 . S
C399 H379 0.950 . S
C399 C395 1.385 . S
C399 C398 1.374 . S
C400 C397 1.499 . S
C400 C401 1.373 . S
C400 C402 1.389 . S
C401 H380 0.950 . S
C401 C400 1.373 . S
C401 C417 1.377 . S
C402 C400 1.389 . S
C402 C403 1.524 . S
C402 C416 1.377 . S
C403 C402 1.524 . S
C403 C404 1.397 . S
C403 C408 1.363 . S
C404 H381 0.950 . S
C404 C403 1.397 . S
C404 C405 1.334 . S
C405 H382 0.950 . S
C405 C404 1.334 . S
C405 C406 1.287 . S
C406 C405 1.287 . S
C406 C407 1.524 . S
C406 H425 0.913 . S
C407 H383 0.950 . S
C407 C406 1.524 . S
C407 C408 1.415 . S
C408 H384 0.950 . S
C408 C403 1.363 . S
C408 C407 1.415 . S
C409 H385 0.951 . S
C409 C410 1.366 . S
C409 C411 1.388 . S
C410 C409 1.366 . S
C410 C414 1.385 . S
C411 H386 0.951 . S
C411 C409 1.388 . S
C411 C412 1.366 . S
C412 C411 1.366 . S
C412 C413 1.414 . S
C412 C415 1.499 . S
C413 H387 0.950 . S
C413 C412 1.414 . S
C413 C414 1.374 . S
C414 H388 0.950 . S
C414 C410 1.385 . S
C414 C413 1.374 . S
C415 C412 1.499 . S
C415 C416 1.373 . S
C415 C417 1.389 . S
C416 H389 0.950 . S
C416 C402 1.377 . S
C416 C415 1.373 . S
C417 C401 1.377 . S
C417 C415 1.389 . S
C417 C418 1.524 . S
C418 C417 1.524 . S
C418 C419 1.397 . S
C418 C423 1.363 . S
C419 H390 0.950 . S
C419 C418 1.397 . S
C419 C420 1.334 . S
C420 H391 0.950 . S
C420 C419 1.334 . S
C420 C421 1.287 . S
C421 C420 1.287 . S
C421 C422 1.524 . S
C421 H424 0.999 . S
C422 H392 0.950 . S
C422 C421 1.524 . S
C422 C423 1.415 . S
C423 H393 0.950 . S
C423 C418 1.363 . S
C423 C422 1.415 . S
H424 C421 0.999 . S
H425 C406 0.913 . S
H426 C444 0.951 . S
H427 C446 0.951 . S
H428 C448 0.950 . S
H429 C449 0.950 . S
H430 C451 0.950 . S
H431 C454 0.950 . S
H432 C455 0.950 . S
H433 C457 0.950 . S
H434 C458 0.950 . S
H435 C459 0.951 . S
H436 C461 0.951 . S
H437 C463 0.950 . S
H438 C464 0.950 . S
H439 C466 0.950 . S
H440 C469 0.950 . S
H441 C470 0.950 . S
H442 C472 0.950 . S
H443 C473 0.950 . S
C444 H426 0.951 . S
C444 C445 1.366 1_655 S
C444 C446 1.388 . S
C445 C444 1.366 1_455 S
C445 C449 1.385 . S
C446 H427 0.951 . S
C446 C444 1.388 . S
C446 C447 1.366 1_655 S
C447 C446 1.366 1_455 S
C447 C448 1.414 . S
C447 C450 1.499 . S
C448 H428 0.950 . S
C448 C447 1.414 . S
C448 C449 1.374 . S
C449 H429 0.950 . S
C449 C445 1.385 . S
C449 C448 1.374 . S
C450 C447 1.499 . S
C450 C451 1.373 . S
C450 C452 1.389 1_455 S
C451 H430 0.950 . S
C451 C450 1.373 . S
C451 C467 1.377 . S
C452 C450 1.389 1_655 S
C452 C453 1.524 . S
C452 C466 1.377 . S
C453 C452 1.524 . S
C453 C454 1.397 . S
C453 C458 1.363 . S
C454 H431 0.950 . S
C454 C453 1.397 . S
C454 C455 1.334 . S
C455 H432 0.950 . S
C455 C454 1.334 . S
C455 C456 1.287 . S
C456 C455 1.287 . S
C456 C457 1.524 . S
C456 H475 0.913 . S
C457 H433 0.950 . S
C457 C456 1.524 . S
C457 C458 1.415 . S
C458 H434 0.950 . S
C458 C453 1.363 . S
C458 C457 1.415 . S
C459 H435 0.951 . S
C459 C460 1.366 . S
C459 C461 1.388 . S
C460 C459 1.366 . S
C460 C464 1.385 1_455 S
C461 H436 0.951 . S
C461 C459 1.388 . S
C461 C462 1.366 . S
C462 C461 1.366 . S
C462 C463 1.414 1_455 S
C462 C465 1.499 . S
C463 H437 0.950 . S
C463 C462 1.414 1_655 S
C463 C464 1.374 . S
C464 H438 0.950 . S
C464 C460 1.385 1_655 S
C464 C463 1.374 . S
C465 C462 1.499 . S
C465 C466 1.373 1_455 S
C465 C467 1.389 . S
C466 H439 0.950 . S
C466 C452 1.377 . S
C466 C465 1.373 1_655 S
C467 C451 1.377 . S
C467 C465 1.389 . S
C467 C468 1.524 . S
C468 C467 1.524 . S
C468 C469 1.397 . S
C468 C473 1.363 . S
C469 H440 0.950 . S
C469 C468 1.397 . S
C469 C470 1.334 . S
C470 H441 0.950 . S
C470 C469 1.334 . S
C470 C471 1.287 . S
C471 C470 1.287 . S
C471 C472 1.524 . S
C471 H474 0.999 . S
C472 H442 0.950 . S
C472 C471 1.524 . S
C472 C473 1.415 . S
C473 H443 0.950 . S
C473 C468 1.363 . S
C473 C472 1.415 . S
H474 C471 0.999 . S
H475 C456 0.913 . S
H476 C494 0.951 . S
H477 C496 0.951 . S
H478 C498 0.950 . S
H479 C499 0.950 . S
H480 C501 0.950 . S
H481 C504 0.950 . S
H482 C505 0.950 . S
H483 C507 0.950 1_565 S
H484 C508 0.962 . S
H485 C509 0.951 . S
H486 C511 0.951 . S
H487 C513 0.950 . S
H488 C514 0.950 . S
H489 C516 0.950 . S
H490 C519 0.950 . S
H491 C520 0.950 . S
H492 C522 0.950 1_545 S
H493 C523 0.962 . S
C494 H476 0.951 . S
C494 C495 1.366 1_565 S
C494 C496 1.388 . S
C495 C494 1.366 1_545 S
C495 C499 1.385 . S
C496 H477 0.951 . S
C496 C494 1.388 . S
C496 C497 1.366 1_565 S
C497 C496 1.366 1_545 S
C497 C498 1.414 . S
C497 C500 1.499 . S
C498 H478 0.950 . S
C498 C497 1.414 . S
C498 C499 1.374 . S
C499 H479 0.950 . S
C499 C495 1.385 . S
C499 C498 1.374 . S
C500 C497 1.499 . S
C500 C501 1.373 1_545 S
C500 C502 1.389 . S
C501 H480 0.950 . S
C501 C500 1.373 1_565 S
C501 C517 1.377 . S
C502 C500 1.389 . S
C502 C503 1.524 . S
C502 C516 1.377 . S
C503 C502 1.524 . S
C503 C504 1.397 . S
C503 C508 1.349 1_545 S
C504 H481 0.950 . S
C504 C503 1.397 . S
C504 C505 1.334 . S
C505 H482 0.950 . S
C505 C504 1.334 . S
C505 C506 1.287 . S
C506 C505 1.287 . S
C506 C507 1.524 . S
C506 H525 0.913 . S
C507 H483 0.950 1_545 S
C507 C506 1.524 . S
C507 C508 1.417 1_545 S
C508 H484 0.962 . S
C508 C503 1.349 1_565 S
C508 C507 1.417 1_565 S
C509 H485 0.951 . S
C509 C510 1.366 1_545 S
C509 C511 1.388 . S
C510 C509 1.366 1_565 S
C510 C514 1.385 . S
C511 H486 0.951 . S
C511 C509 1.388 . S
C511 C512 1.366 1_545 S
C512 C511 1.366 1_565 S
C512 C513 1.414 . S
C512 C515 1.499 . S
C513 H487 0.950 . S
C513 C512 1.414 . S
C513 C514 1.374 . S
C514 H488 0.950 . S
C514 C510 1.385 . S
C514 C513 1.374 . S
C515 C512 1.499 . S
C515 C516 1.373 1_565 S
C515 C517 1.389 . S
C516 H489 0.950 . S
C516 C502 1.377 . S
C516 C515 1.373 1_545 S
C517 C501 1.377 . S
C517 C515 1.389 . S
C517 C518 1.524 . S
C518 C517 1.524 . S
C518 C519 1.397 . S
C518 C523 1.349 1_565 S
C519 H490 0.950 . S
C519 C518 1.397 . S
C519 C520 1.334 . S
C520 H491 0.950 . S
C520 C519 1.334 . S
C520 C521 1.287 . S
C521 C520 1.287 . S
C521 C522 1.524 . S
C521 H524 0.999 . S
C522 H492 0.950 1_565 S
C522 C521 1.524 . S
C522 C523 1.417 1_565 S
C523 H493 0.962 . S
C523 C518 1.349 1_545 S
C523 C522 1.417 1_545 S
H524 C521 0.999 . S
H525 C506 0.913 . S
H526 C544 0.951 . S
H527 C546 0.951 . S
H528 C548 0.950 . S
H529 C549 0.950 . S
H530 C551 0.950 . S
H531 C554 0.950 . S
H532 C555 0.950 . S
H533 C557 0.950 . S
H534 C558 0.950 . S
H535 C559 0.951 . S
H536 C561 0.951 . S
H537 C563 0.950 . S
H538 C564 0.950 . S
H539 C566 0.950 . S
H540 C569 0.950 . S
H541 C570 0.950 . S
H542 C572 0.950 . S
H543 C573 0.950 . S
C544 H526 0.951 . S
C544 C545 1.366 . S
C544 C546 1.388 . S
C545 C544 1.366 . S
C545 C549 1.385 . S
C546 H527 0.951 . S
C546 C544 1.388 . S
C546 C547 1.366 . S
C547 C546 1.366 . S
C547 C548 1.414 . S
C547 C550 1.499 . S
C548 H528 0.950 . S
C548 C547 1.414 . S
C548 C549 1.374 . S
C549 H529 0.950 . S
C549 C545 1.385 . S
C549 C548 1.374 . S
C550 C547 1.499 . S
C550 C551 1.373 . S
C550 C552 1.389 . S
C551 H530 0.950 . S
C551 C550 1.373 . S
C551 C567 1.377 . S
C552 C550 1.389 . S
C552 C553 1.524 . S
C552 C566 1.377 . S
C553 C552 1.524 . S
C553 C554 1.397 . S
C553 C558 1.363 . S
C554 H531 0.950 . S
C554 C553 1.397 . S
C554 C555 1.334 . S
C555 H532 0.950 . S
C555 C554 1.334 . S
C555 C556 1.287 . S
C556 C555 1.287 . S
C556 C557 1.524 . S
C556 H575 0.913 . S
C557 H533 0.950 . S
C557 C556 1.524 . S
C557 C558 1.415 . S
C558 H534 0.950 . S
C558 C553 1.363 . S
C558 C557 1.415 . S
C559 H535 0.951 . S
C559 C560 1.366 . S
C559 C561 1.388 . S
C560 C559 1.366 . S
C560 C564 1.385 . S
C561 H536 0.951 . S
C561 C559 1.388 . S
C561 C562 1.366 . S
C562 C561 1.366 . S
C562 C563 1.414 . S
C562 C565 1.499 . S
C563 H537 0.950 . S
C563 C562 1.414 . S
C563 C564 1.374 . S
C564 H538 0.950 . S
C564 C560 1.385 . S
C564 C563 1.374 . S
C565 C562 1.499 . S
C565 C566 1.373 . S
C565 C567 1.389 . S
C566 H539 0.950 . S
C566 C552 1.377 . S
C566 C565 1.373 . S
C567 C551 1.377 . S
C567 C565 1.389 . S
C567 C568 1.524 . S
C568 C567 1.524 . S
C568 C569 1.397 . S
C568 C573 1.363 . S
C569 H540 0.950 . S
C569 C568 1.397 . S
C569 C570 1.334 . S
C570 H541 0.950 . S
C570 C569 1.334 . S
C570 C571 1.287 . S
C571 C570 1.287 . S
C571 C572 1.524 . S
C571 H574 0.999 . S
C572 H542 0.950 . S
C572 C571 1.524 . S
C572 C573 1.415 . S
C573 H543 0.950 . S
C573 C568 1.363 . S
C573 C572 1.415 . S
H574 C571 0.999 . S
H575 C556 0.913 . S
H576 C594 0.951 . S
H577 C596 0.951 . S
H578 C598 0.950 . S
H579 C599 0.950 . S
H580 C601 0.950 . S
H581 C604 0.950 . S
H582 C605 0.950 . S
H583 C607 0.950 . S
H584 C608 0.950 . S
H585 C609 0.951 . S
H586 C611 0.951 . S
H587 C613 0.950 . S
H588 C614 0.950 . S
H589 C616 0.950 . S
H590 C619 0.950 . S
H591 C620 0.950 . S
H592 C622 0.950 . S
H593 C623 0.950 . S
C594 H576 0.951 . S
C594 C595 1.366 . S
C594 C596 1.388 . S
C595 C594 1.366 . S
C595 C599 1.385 . S
C596 H577 0.951 . S
C596 C594 1.388 . S
C596 C597 1.366 . S
C597 C596 1.366 . S
C597 C598 1.414 . S
C597 C600 1.499 . S
C598 H578 0.950 . S
C598 C597 1.414 . S
C598 C599 1.374 . S
C599 H579 0.950 . S
C599 C595 1.385 . S
C599 C598 1.374 . S
C600 C597 1.499 . S
C600 C601 1.403 . S
C600 C602 1.389 . S
C601 H580 0.950 . S
C601 C600 1.403 . S
C601 C617 1.346 1_554 S
C602 C600 1.389 . S
C602 C603 1.524 . S
C602 C616 1.346 1_554 S
C603 C602 1.524 . S
C603 C604 1.397 . S
C603 C608 1.363 . S
C604 H581 0.950 . S
C604 C603 1.397 . S
C604 C605 1.334 . S
C605 H582 0.950 . S
C605 C604 1.334 . S
C605 C606 1.287 . S
C606 C605 1.287 . S
C606 C607 1.524 . S
C606 H625 0.913 . S
C607 H583 0.950 . S
C607 C606 1.524 . S
C607 C608 1.415 . S
C608 H584 0.950 . S
C608 C603 1.363 . S
C608 C607 1.415 . S
C609 H585 0.951 . S
C609 C610 1.366 . S
C609 C611 1.388 . S
C610 C609 1.366 . S
C610 C614 1.385 . S
C611 H586 0.951 . S
C611 C609 1.388 . S
C611 C612 1.366 . S
C612 C611 1.366 . S
C612 C613 1.414 . S
C612 C615 1.499 . S
C613 H587 0.950 . S
C613 C612 1.414 . S
C613 C614 1.374 . S
C614 H588 0.950 . S
C614 C610 1.385 . S
C614 C613 1.374 . S
C615 C612 1.499 . S
C615 C616 1.403 . S
C615 C617 1.389 . S
C616 H589 0.950 . S
C616 C602 1.346 1_556 S
C616 C615 1.403 . S
C617 C601 1.346 1_556 S
C617 C615 1.389 . S
C617 C618 1.524 . S
C618 C617 1.524 . S
C618 C619 1.397 . S
C618 C623 1.363 . S
C619 H590 0.950 . S
C619 C618 1.397 . S
C619 C620 1.334 . S
C620 H591 0.950 . S
C620 C619 1.334 . S
C620 C621 1.287 . S
C621 C620 1.287 . S
C621 C622 1.524 . S
C621 H624 0.999 . S
C622 H592 0.950 . S
C622 C621 1.524 . S
C622 C623 1.415 . S
C623 H593 0.950 . S
C623 C618 1.363 . S
C623 C622 1.415 . S
H624 C621 0.999 . S
H625 C606 0.913 . S
H626 C644 0.951 . S
H627 C646 0.951 . S
H628 C648 0.950 . S
H629 C649 0.950 . S
H630 C651 0.950 . S
H631 C654 0.950 . S
H632 C655 0.950 . S
H633 C657 0.950 1_455 S
H634 C658 0.950 . S
H635 C659 0.951 . S
H636 C661 0.951 . S
H637 C663 0.950 . S
H638 C664 0.950 . S
H639 C666 0.950 . S
H640 C669 0.950 . S
H641 C670 0.950 . S
H642 C672 0.950 . S
H643 C673 0.950 . S
C644 H626 0.951 . S
C644 C645 1.366 . S
C644 C646 1.388 . S
C645 C644 1.366 . S
C645 C649 1.385 . S
C646 H627 0.951 . S
C646 C644 1.388 . S
C646 C647 1.366 . S
C647 C646 1.366 . S
C647 C648 1.414 . S
C647 C650 1.499 . S
C648 H628 0.950 . S
C648 C647 1.414 . S
C648 C649 1.374 . S
C649 H629 0.950 . S
C649 C645 1.385 . S
C649 C648 1.374 . S
C650 C647 1.499 . S
C650 C651 1.373 . S
C650 C652 1.389 . S
C651 H630 0.950 . S
C651 C650 1.373 . S
C651 C667 1.377 . S
C652 C650 1.389 . S
C652 C653 1.524 . S
C652 C666 1.377 . S
C653 C652 1.524 . S
C653 C654 1.397 . S
C653 C658 1.363 . S
C654 H631 0.950 . S
C654 C653 1.397 . S
C654 C655 1.334 . S
C655 H632 0.950 . S
C655 C654 1.334 . S
C655 C656 1.287 . S
C656 C655 1.287 . S
C656 C657 1.524 . S
C656 H675 0.913 . S
C657 H633 0.950 1_655 S
C657 C656 1.524 . S
C657 C658 1.415 . S
C658 H634 0.950 . S
C658 C653 1.363 . S
C658 C657 1.415 . S
C659 H635 0.951 . S
C659 C660 1.366 . S
C659 C661 1.388 . S
C660 C659 1.366 . S
C660 C664 1.385 . S
C661 H636 0.951 . S
C661 C659 1.388 . S
C661 C662 1.366 . S
C662 C661 1.366 . S
C662 C663 1.414 . S
C662 C665 1.499 . S
C663 H637 0.950 . S
C663 C662 1.414 . S
C663 C664 1.374 . S
C664 H638 0.950 . S
C664 C660 1.385 . S
C664 C663 1.374 . S
C665 C662 1.499 . S
C665 C666 1.373 . S
C665 C667 1.389 . S
C666 H639 0.950 . S
C666 C652 1.377 . S
C666 C665 1.373 . S
C667 C651 1.377 . S
C667 C665 1.389 . S
C667 C668 1.524 . S
C668 C667 1.524 . S
C668 C669 1.397 . S
C668 C673 1.363 . S
C669 H640 0.950 . S
C669 C668 1.397 . S
C669 C670 1.334 . S
C670 H641 0.950 . S
C670 C669 1.334 . S
C670 C671 1.287 . S
C671 C670 1.287 . S
C671 C672 1.524 . S
C671 H674 0.999 . S
C672 H642 0.950 . S
C672 C671 1.524 . S
C672 C673 1.415 . S
C673 H643 0.950 . S
C673 C668 1.363 . S
C673 C672 1.415 . S
H674 C671 0.999 . S
H675 C656 0.913 . S
H676 C694 0.951 . S
H677 C696 0.951 . S
H678 C698 0.950 . S
H679 C699 0.950 . S
H680 C701 0.950 . S
H681 C704 0.950 . S
H682 C705 0.950 . S
H683 C707 0.950 . S
H684 C708 0.950 . S
H685 C709 0.951 . S
H686 C711 0.951 . S
H687 C713 0.950 . S
H688 C714 0.950 . S
H689 C716 0.950 . S
H690 C719 0.950 . S
H691 C720 0.950 . S
H692 C722 0.950 . S
H693 C723 0.950 . S
C694 H676 0.951 . S
C694 C695 1.366 . S
C694 C696 1.388 . S
C695 C694 1.366 . S
C695 C699 1.385 . S
C696 H677 0.951 . S
C696 C694 1.388 . S
C696 C697 1.366 . S
C697 C696 1.366 . S
C697 C698 1.414 . S
C697 C700 1.499 . S
C698 H678 0.950 . S
C698 C697 1.414 . S
C698 C699 1.374 . S
C699 H679 0.950 . S
C699 C695 1.385 . S
C699 C698 1.374 . S
C700 C697 1.499 . S
C700 C701 1.373 . S
C700 C702 1.389 . S
C701 H680 0.950 . S
C701 C700 1.373 . S
C701 C717 1.377 . S
C702 C700 1.389 . S
C702 C703 1.524 . S
C702 C716 1.377 . S
C703 C702 1.524 . S
C703 C704 1.397 . S
C703 C708 1.363 . S
C704 H681 0.950 . S
C704 C703 1.397 . S
C704 C705 1.334 . S
C705 H682 0.950 . S
C705 C704 1.334 . S
C705 C706 1.287 . S
C706 C705 1.287 . S
C706 C707 1.524 . S
C706 H725 0.913 . S
C707 H683 0.950 . S
C707 C706 1.524 . S
C707 C708 1.415 . S
C708 H684 0.950 . S
C708 C703 1.363 . S
C708 C707 1.415 . S
C709 H685 0.951 . S
C709 C710 1.366 . S
C709 C711 1.388 . S
C710 C709 1.366 . S
C710 C714 1.385 . S
C711 H686 0.951 . S
C711 C709 1.388 . S
C711 C712 1.366 . S
C712 C711 1.366 . S
C712 C713 1.414 . S
C712 C715 1.499 . S
C713 H687 0.950 . S
C713 C712 1.414 . S
C713 C714 1.374 . S
C714 H688 0.950 . S
C714 C710 1.385 . S
C714 C713 1.374 . S
C715 C712 1.499 . S
C715 C716 1.373 . S
C715 C717 1.389 . S
C716 H689 0.950 . S
C716 C702 1.377 . S
C716 C715 1.373 . S
C717 C701 1.377 . S
C717 C715 1.389 . S
C717 C718 1.524 . S
C718 C717 1.524 . S
C718 C719 1.397 . S
C718 C723 1.363 . S
C719 H690 0.950 . S
C719 C718 1.397 . S
C719 C720 1.334 . S
C720 H691 0.950 . S
C720 C719 1.334 . S
C720 C721 1.287 . S
C721 C720 1.287 . S
C721 C722 1.524 . S
C721 H724 0.999 . S
C722 H692 0.950 . S
C722 C721 1.524 . S
C722 C723 1.415 . S
C723 H693 0.950 . S
C723 C718 1.363 . S
C723 C722 1.415 . S
H724 C721 0.999 . S
H725 C706 0.913 . S
H726 C744 0.951 . S
H727 C746 0.951 . S
H728 C748 0.950 . S
H729 C749 0.950 . S
H730 C751 0.950 . S
H731 C754 0.950 . S
H732 C755 0.950 . S
H733 C757 0.950 . S
H734 C758 0.950 . S
H735 C759 0.951 . S
H736 C761 0.951 . S
H737 C763 0.950 . S
H738 C764 0.950 . S
H739 C766 0.950 . S
H740 C769 0.950 . S
H741 C770 0.950 . S
H742 C772 0.950 . S
H743 C773 0.950 . S
C744 H726 0.951 . S
C744 C745 1.366 . S
C744 C746 1.388 . S
C745 C744 1.366 . S
C745 C749 1.385 . S
C746 H727 0.951 . S
C746 C744 1.388 . S
C746 C747 1.366 . S
C747 C746 1.366 . S
C747 C748 1.414 . S
C747 C750 1.499 . S
C748 H728 0.950 . S
C748 C747 1.414 . S
C748 C749 1.374 . S
C749 H729 0.950 . S
C749 C745 1.385 . S
C749 C748 1.374 . S
C750 C747 1.499 . S
C750 C751 1.399 . S
C750 C752 1.389 . S
C751 H730 0.950 . S
C751 C750 1.399 . S
C751 C767 1.350 1_554 S
C752 C750 1.389 . S
C752 C753 1.524 . S
C752 C766 1.350 1_554 S
C753 C752 1.524 . S
C753 C754 1.397 . S
C753 C758 1.363 . S
C754 H731 0.950 . S
C754 C753 1.397 . S
C754 C755 1.334 . S
C755 H732 0.950 . S
C755 C754 1.334 . S
C755 C756 1.287 . S
C756 C755 1.287 . S
C756 C757 1.524 . S
C756 H775 0.913 . S
C757 H733 0.950 . S
C757 C756 1.524 . S
C757 C758 1.415 . S
C758 H734 0.950 . S
C758 C753 1.363 . S
C758 C757 1.415 . S
C759 H735 0.951 . S
C759 C760 1.366 . S
C759 C761 1.388 . S
C760 C759 1.366 . S
C760 C764 1.385 . S
C761 H736 0.951 . S
C761 C759 1.388 . S
C761 C762 1.366 . S
C762 C761 1.366 . S
C762 C763 1.414 . S
C762 C765 1.499 . S
C763 H737 0.950 . S
C763 C762 1.414 . S
C763 C764 1.374 . S
C764 H738 0.950 . S
C764 C760 1.385 . S
C764 C763 1.374 . S
C765 C762 1.499 . S
C765 C766 1.399 . S
C765 C767 1.389 . S
C766 H739 0.950 . S
C766 C752 1.350 1_556 S
C766 C765 1.399 . S
C767 C751 1.350 1_556 S
C767 C765 1.389 . S
C767 C768 1.524 . S
C768 C767 1.524 . S
C768 C769 1.397 . S
C768 C773 1.363 . S
C769 H740 0.950 . S
C769 C768 1.397 . S
C769 C770 1.334 . S
C770 H741 0.950 . S
C770 C769 1.334 . S
C770 C771 1.287 . S
C771 C770 1.287 . S
C771 C772 1.524 . S
C771 H774 0.999 . S
C772 H742 0.950 . S
C772 C771 1.524 . S
C772 C773 1.415 . S
C773 H743 0.950 . S
C773 C768 1.363 . S
C773 C772 1.415 . S
H774 C771 0.999 . S
H775 C756 0.913 . S
H776 C794 0.951 . S
H777 C796 0.951 . S
H778 C798 0.950 . S
H779 C799 0.950 . S
H780 C801 0.950 . S
H781 C804 0.950 . S
H782 C805 0.950 . S
H783 C807 0.950 . S
H784 C808 0.950 . S
H785 C809 0.951 . S
H786 C811 0.951 . S
H787 C813 0.950 . S
H788 C814 0.950 . S
H789 C816 0.950 . S
H790 C819 0.950 . S
H791 C820 0.950 . S
H792 C822 0.950 . S
H793 C823 0.950 . S
C794 H776 0.951 . S
C794 C795 1.366 . S
C794 C796 1.388 . S
C795 C794 1.366 . S
C795 C799 1.385 . S
C796 H777 0.951 . S
C796 C794 1.388 . S
C796 C797 1.366 . S
C797 C796 1.366 . S
C797 C798 1.414 . S
C797 C800 1.499 . S
C798 H778 0.950 . S
C798 C797 1.414 . S
C798 C799 1.374 . S
C799 H779 0.950 . S
C799 C795 1.385 . S
C799 C798 1.374 . S
C800 C797 1.499 . S
C800 C801 1.373 . S
C800 C802 1.389 . S
C801 H780 0.950 . S
C801 C800 1.373 . S
C801 C817 1.377 . S
C802 C800 1.389 . S
C802 C803 1.524 . S
C802 C816 1.377 . S
C803 C802 1.524 . S
C803 C804 1.397 . S
C803 C808 1.363 . S
C804 H781 0.950 . S
C804 C803 1.397 . S
C804 C805 1.334 1_455 S
C805 H782 0.950 . S
C805 C804 1.334 1_655 S
C805 C806 1.287 . S
C806 C805 1.287 . S
C806 C807 1.524 . S
C806 H825 0.913 . S
C807 H783 0.950 . S
C807 C806 1.524 . S
C807 C808 1.415 1_655 S
C808 H784 0.950 . S
C808 C803 1.363 . S
C808 C807 1.415 1_455 S
C809 H785 0.951 . S
C809 C810 1.366 . S
C809 C811 1.388 . S
C810 C809 1.366 . S
C810 C814 1.385 . S
C811 H786 0.951 . S
C811 C809 1.388 . S
C811 C812 1.366 . S
C812 C811 1.366 . S
C812 C813 1.414 . S
C812 C815 1.499 . S
C813 H787 0.950 . S
C813 C812 1.414 . S
C813 C814 1.374 . S
C814 H788 0.950 . S
C814 C810 1.385 . S
C814 C813 1.374 . S
C815 C812 1.499 . S
C815 C816 1.373 . S
C815 C817 1.389 . S
C816 H789 0.950 . S
C816 C802 1.377 . S
C816 C815 1.373 . S
C817 C801 1.377 . S
C817 C815 1.389 . S
C817 C818 1.524 . S
C818 C817 1.524 . S
C818 C819 1.397 . S
C818 C823 1.363 . S
C819 H790 0.950 . S
C819 C818 1.397 . S
C819 C820 1.334 . S
C820 H791 0.950 . S
C820 C819 1.334 . S
C820 C821 1.287 . S
C821 C820 1.287 . S
C821 C822 1.524 . S
C821 H824 0.999 . S
C822 H792 0.950 . S
C822 C821 1.524 . S
C822 C823 1.415 . S
C823 H793 0.950 . S
C823 C818 1.363 . S
C823 C822 1.415 . S
H824 C821 0.999 . S
H825 C806 0.913 . S
H826 C844 0.951 . S
H827 C846 0.951 . S
H828 C848 0.950 . S
H829 C849 0.950 . S
H830 C851 0.950 . S
H831 C854 0.950 . S
H832 C855 0.950 . S
H833 C857 0.950 . S
H834 C858 0.950 . S
H835 C859 0.951 . S
H836 C861 0.951 . S
H837 C863 0.950 . S
H838 C864 0.950 . S
H839 C866 0.950 . S
H840 C869 0.950 . S
H841 C870 0.950 . S
H842 C872 0.950 . S
H843 C873 0.950 . S
C844 H826 0.951 . S
C844 C845 1.366 . S
C844 C846 1.388 . S
C845 C844 1.366 . S
C845 C849 1.385 . S
C846 H827 0.951 . S
C846 C844 1.388 . S
C846 C847 1.366 . S
C847 C846 1.366 . S
C847 C848 1.414 . S
C847 C850 1.499 . S
C848 H828 0.950 . S
C848 C847 1.414 . S
C848 C849 1.374 . S
C849 H829 0.950 . S
C849 C845 1.385 . S
C849 C848 1.374 . S
C850 C847 1.499 . S
C850 C851 1.373 . S
C850 C852 1.389 . S
C851 H830 0.950 . S
C851 C850 1.373 . S
C851 C867 1.377 . S
C852 C850 1.389 . S
C852 C853 1.524 . S
C852 C866 1.377 . S
C853 C852 1.524 . S
C853 C854 1.397 . S
C853 C858 1.363 . S
C854 H831 0.950 . S
C854 C853 1.397 . S
C854 C855 1.334 . S
C855 H832 0.950 . S
C855 C854 1.334 . S
C855 C856 1.287 . S
C856 C855 1.287 . S
C856 C857 1.524 . S
C856 H875 0.913 . S
C857 H833 0.950 . S
C857 C856 1.524 . S
C857 C858 1.415 . S
C858 H834 0.950 . S
C858 C853 1.363 . S
C858 C857 1.415 . S
C859 H835 0.951 . S
C859 C860 1.366 . S
C859 C861 1.388 . S
C860 C859 1.366 . S
C860 C864 1.385 . S
C861 H836 0.951 . S
C861 C859 1.388 . S
C861 C862 1.366 . S
C862 C861 1.366 . S
C862 C863 1.414 . S
C862 C865 1.499 . S
C863 H837 0.950 . S
C863 C862 1.414 . S
C863 C864 1.374 . S
C864 H838 0.950 . S
C864 C860 1.385 . S
C864 C863 1.374 . S
C865 C862 1.499 . S
C865 C866 1.373 . S
C865 C867 1.389 . S
C866 H839 0.950 . S
C866 C852 1.377 . S
C866 C865 1.373 . S
C867 C851 1.377 . S
C867 C865 1.389 . S
C867 C868 1.524 . S
C868 C867 1.524 . S
C868 C869 1.397 . S
C868 C873 1.363 . S
C869 H840 0.950 . S
C869 C868 1.397 . S
C869 C870 1.334 . S
C870 H841 0.950 . S
C870 C869 1.334 . S
C870 C871 1.287 . S
C871 C870 1.287 . S
C871 C872 1.524 . S
C871 H874 0.999 . S
C872 H842 0.950 . S
C872 C871 1.524 . S
C872 C873 1.415 . S
C873 H843 0.950 . S
C873 C868 1.363 . S
C873 C872 1.415 . S
H874 C871 0.999 . S
H875 C856 0.913 . S
H876 C894 0.951 . S
H877 C896 0.951 . S
H878 C898 0.950 . S
H879 C899 0.950 . S
H880 C901 0.950 . S
H881 C904 0.950 . S
H882 C905 0.950 . S
H883 C907 0.950 . S
H884 C908 0.950 . S
H885 C909 0.951 . S
H886 C911 0.951 . S
H887 C913 0.950 . S
H888 C914 0.950 . S
H889 C916 0.950 . S
H890 C919 0.950 . S
H891 C920 0.950 . S
H892 C922 0.950 . S
H893 C923 0.950 . S
C894 H876 0.951 . S
C894 C895 1.366 . S
C894 C896 1.388 . S
C895 C894 1.366 . S
C895 C899 1.385 1_455 S
C896 H877 0.951 . S
C896 C894 1.388 . S
C896 C897 1.366 . S
C897 C896 1.366 . S
C897 C898 1.414 1_455 S
C897 C900 1.499 . S
C898 H878 0.950 . S
C898 C897 1.414 1_655 S
C898 C899 1.374 . S
C899 H879 0.950 . S
C899 C895 1.385 1_655 S
C899 C898 1.374 . S
C900 C897 1.499 . S
C900 C901 1.373 1_455 S
C900 C902 1.389 . S
C901 H880 0.950 . S
C901 C900 1.373 1_655 S
C901 C917 1.377 . S
C902 C900 1.389 . S
C902 C903 1.524 . S
C902 C916 1.377 . S
C903 C902 1.524 . S
C903 C904 1.397 . S
C903 C908 1.363 . S
C904 H881 0.950 . S
C904 C903 1.397 . S
C904 C905 1.334 . S
C905 H882 0.950 . S
C905 C904 1.334 . S
C905 C906 1.287 . S
C906 C905 1.287 . S
C906 C907 1.524 . S
C906 H925 0.913 . S
C907 H883 0.950 . S
C907 C906 1.524 . S
C907 C908 1.415 . S
C908 H884 0.950 . S
C908 C903 1.363 . S
C908 C907 1.415 . S
C909 H885 0.951 . S
C909 C910 1.366 . S
C909 C911 1.388 . S
C910 C909 1.366 . S
C910 C914 1.385 1_655 S
C911 H886 0.951 . S
C911 C909 1.388 . S
C911 C912 1.366 . S
C912 C911 1.366 . S
C912 C913 1.414 1_655 S
C912 C915 1.499 . S
C913 H887 0.950 . S
C913 C912 1.414 1_455 S
C913 C914 1.374 . S
C914 H888 0.950 . S
C914 C910 1.385 1_455 S
C914 C913 1.374 . S
C915 C912 1.499 . S
C915 C916 1.373 1_655 S
C915 C917 1.389 . S
C916 H889 0.950 . S
C916 C902 1.377 . S
C916 C915 1.373 1_455 S
C917 C901 1.377 . S
C917 C915 1.389 . S
C917 C918 1.524 . S
C918 C917 1.524 . S
C918 C919 1.397 . S
C918 C923 1.363 . S
C919 H890 0.950 . S
C919 C918 1.397 . S
C919 C920 1.334 . S
C920 H891 0.950 . S
C920 C919 1.334 . S
C920 C921 1.287 . S
C921 C920 1.287 . S
C921 C922 1.524 . S
C921 H924 0.999 . S
C922 H892 0.950 . S
C922 C921 1.524 . S
C922 C923 1.415 . S
C923 H893 0.950 . S
C923 C918 1.363 . S
C923 C922 1.415 . S
H924 C921 0.999 . S
H925 C906 0.913 . S
H926 C944 0.955 . S
H927 C946 0.951 . S
H928 C948 0.950 . S
H929 C949 0.950 . S
H930 C951 0.950 . S
H931 C954 0.950 . S
H932 C955 0.950 . S
H933 C957 0.950 . S
H934 C958 0.950 1_565 S
H935 C959 0.954 . S
H936 C961 0.951 . S
H937 C963 0.950 . S
H938 C964 0.950 . S
H939 C966 0.950 . S
H940 C969 0.950 . S
H941 C970 0.950 . S
H942 C972 0.950 . S
H943 C973 0.950 1_545 S
C944 H926 0.955 . S
C944 C945 1.364 1_565 S
C944 C946 1.386 . S
C945 C944 1.364 1_545 S
C945 C949 1.385 . S
C946 H927 0.951 . S
C946 C944 1.386 . S
C946 C947 1.366 1_565 S
C947 C946 1.366 1_545 S
C947 C948 1.414 . S
C947 C950 1.499 . S
C948 H928 0.950 . S
C948 C947 1.414 . S
C948 C949 1.374 . S
C949 H929 0.950 . S
C949 C945 1.385 . S
C949 C948 1.374 . S
C950 C947 1.499 . S
C950 C951 1.373 1_545 S
C950 C952 1.389 . S
C951 H930 0.950 . S
C951 C950 1.373 1_565 S
C951 C967 1.377 . S
C952 C950 1.389 . S
C952 C953 1.524 . S
C952 C966 1.377 . S
C953 C952 1.524 . S
C953 C954 1.397 . S
C953 C958 1.363 . S
C954 H931 0.950 . S
C954 C953 1.397 . S
C954 C955 1.334 . S
C955 H932 0.950 . S
C955 C954 1.334 . S
C955 C956 1.287 . S
C956 C955 1.287 . S
C956 C957 1.524 . S
C956 H975 0.913 . S
C957 H933 0.950 . S
C957 C956 1.524 . S
C957 C958 1.415 . S
C958 H934 0.950 1_545 S
C958 C953 1.363 . S
C958 C957 1.415 . S
C959 H935 0.954 . S
C959 C960 1.364 1_545 S
C959 C961 1.386 . S
C960 C959 1.364 1_565 S
C960 C964 1.385 . S
C961 H936 0.951 . S
C961 C959 1.386 . S
C961 C962 1.366 1_545 S
C962 C961 1.366 1_565 S
C962 C963 1.414 . S
C962 C965 1.499 . S
C963 H937 0.950 . S
C963 C962 1.414 . S
C963 C964 1.374 . S
C964 H938 0.950 . S
C964 C960 1.385 . S
C964 C963 1.374 . S
C965 C962 1.499 . S
C965 C966 1.373 1_565 S
C965 C967 1.389 . S
C966 H939 0.950 . S
C966 C952 1.377 . S
C966 C965 1.373 1_545 S
C967 C951 1.377 . S
C967 C965 1.389 . S
C967 C968 1.524 . S
C968 C967 1.524 . S
C968 C969 1.397 . S
C968 C973 1.363 . S
C969 H940 0.950 . S
C969 C968 1.397 . S
C969 C970 1.334 . S
C970 H941 0.950 . S
C970 C969 1.334 . S
C970 C971 1.287 . S
C971 C970 1.287 . S
C971 C972 1.524 . S
C971 H974 0.999 . S
C972 H942 0.950 . S
C972 C971 1.524 . S
C972 C973 1.415 . S
C973 H943 0.950 1_565 S
C973 C968 1.363 . S
C973 C972 1.415 . S
H974 C971 0.999 . S
H975 C956 0.913 . S
H976 C994 0.951 . S
H977 C996 0.951 . S
H978 C998 0.950 . S
H979 C999 0.950 . S
H980 C1001 0.950 . S
H981 C1004 0.950 . S
H982 C1005 0.950 . S
H983 C1007 0.950 . S
H984 C1008 0.950 . S
H985 C1009 0.951 . S
H986 C1011 0.951 . S
H987 C1013 0.950 . S
H988 C1014 0.950 . S
H989 C1016 0.950 . S
H990 C1019 0.950 . S
H991 C1020 0.950 . S
H992 C1022 0.950 . S
H993 C1023 0.950 . S
C994 H976 0.951 . S
C994 C995 1.366 . S
C994 C996 1.388 . S
C995 C994 1.366 . S
C995 C999 1.385 . S
C996 H977 0.951 . S
C996 C994 1.388 . S
C996 C997 1.366 . S
C997 C996 1.366 . S
C997 C998 1.414 . S
C997 C1000 1.499 . S
C998 H978 0.950 . S
C998 C997 1.414 . S
C998 C999 1.374 . S
C999 H979 0.950 . S
C999 C995 1.385 . S
C999 C998 1.374 . S
C1000 C997 1.499 . S
C1000 C1001 1.373 . S
C1000 C1002 1.389 . S
C1001 H980 0.950 . S
C1001 C1000 1.373 . S
C1001 C1017 1.377 . S
C1002 C1000 1.389 . S
C1002 C1003 1.524 . S
C1002 C1016 1.377 . S
C1003 C1002 1.524 . S
C1003 C1004 1.397 . S
C1003 C1008 1.363 . S
C1004 H981 0.950 . S
C1004 C1003 1.397 . S
C1004 C1005 1.334 . S
C1005 H982 0.950 . S
C1005 C1004 1.334 . S
C1005 C1006 1.287 . S
C1006 C1005 1.287 . S
C1006 C1007 1.524 . S
C1006 H1025 0.913 . S
C1007 H983 0.950 . S
C1007 C1006 1.524 . S
C1007 C1008 1.415 . S
C1008 H984 0.950 . S
C1008 C1003 1.363 . S
C1008 C1007 1.415 . S
C1009 H985 0.951 . S
C1009 C1010 1.366 . S
C1009 C1011 1.388 . S
C1010 C1009 1.366 . S
C1010 C1014 1.385 . S
C1011 H986 0.951 . S
C1011 C1009 1.388 . S
C1011 C1012 1.366 . S
C1012 C1011 1.366 . S
C1012 C1013 1.414 . S
C1012 C1015 1.499 . S
C1013 H987 0.950 . S
C1013 C1012 1.414 . S
C1013 C1014 1.374 . S
C1014 H988 0.950 . S
C1014 C1010 1.385 . S
C1014 C1013 1.374 . S
C1015 C1012 1.499 . S
C1015 C1016 1.373 . S
C1015 C1017 1.389 . S
C1016 H989 0.950 . S
C1016 C1002 1.377 . S
C1016 C1015 1.373 . S
C1017 C1001 1.377 . S
C1017 C1015 1.389 . S
C1017 C1018 1.524 . S
C1018 C1017 1.524 . S
C1018 C1019 1.397 . S
C1018 C1023 1.363 . S
C1019 H990 0.950 . S
C1019 C1018 1.397 . S
C1019 C1020 1.334 . S
C1020 H991 0.950 . S
C1020 C1019 1.334 . S
C1020 C1021 1.287 . S
C1021 C1020 1.287 . S
C1021 C1022 1.524 . S
C1021 H1024 0.999 . S
C1022 H992 0.950 . S
C1022 C1021 1.524 . S
C1022 C1023 1.415 . S
C1023 H993 0.950 . S
C1023 C1018 1.363 . S
C1023 C1022 1.415 . S
H1024 C1021 0.999 . S
H1025 C1006 0.913 . S
H1026 C1044 0.951 . S
H1027 C1046 0.951 . S
H1028 C1048 0.950 . S
H1029 C1049 0.950 . S
H1030 C1051 0.950 . S
H1031 C1054 0.950 . S
H1032 C1055 0.950 . S
H1033 C1057 0.950 . S
H1034 C1058 0.950 . S
H1035 C1059 0.951 . S
H1036 C1061 0.951 . S
H1037 C1063 0.950 . S
H1038 C1064 0.950 . S
H1039 C1066 0.950 . S
H1040 C1069 0.950 . S
H1041 C1070 0.950 . S
H1042 C1072 0.950 . S
H1043 C1073 0.950 . S
C1044 H1026 0.951 . S
C1044 C1045 1.366 . S
C1044 C1046 1.388 . S
C1045 C1044 1.366 . S
C1045 C1049 1.385 1_545 S
C1046 H1027 0.951 . S
C1046 C1044 1.388 . S
C1046 C1047 1.366 . S
C1047 C1046 1.366 . S
C1047 C1048 1.414 1_545 S
C1047 C1050 1.499 . S
C1048 H1028 0.950 . S
C1048 C1047 1.414 1_565 S
C1048 C1049 1.374 . S
C1049 H1029 0.950 . S
C1049 C1045 1.385 1_565 S
C1049 C1048 1.374 . S
C1050 C1047 1.499 . S
C1050 C1051 1.373 1_545 S
C1050 C1052 1.389 . S
C1051 H1030 0.950 . S
C1051 C1050 1.373 1_565 S
C1051 C1067 1.377 . S
C1052 C1050 1.389 . S
C1052 C1053 1.524 . S
C1052 C1066 1.377 . S
C1053 C1052 1.524 . S
C1053 C1054 1.397 . S
C1053 C1058 1.363 . S
C1054 H1031 0.950 . S
C1054 C1053 1.397 . S
C1054 C1055 1.334 . S
C1055 H1032 0.950 . S
C1055 C1054 1.334 . S
C1055 C1056 1.287 . S
C1056 C1055 1.287 . S
C1056 C1057 1.524 . S
C1056 H1075 0.913 . S
C1057 H1033 0.950 . S
C1057 C1056 1.524 . S
C1057 C1058 1.415 . S
C1058 H1034 0.950 . S
C1058 C1053 1.363 . S
C1058 C1057 1.415 . S
C1059 H1035 0.951 . S
C1059 C1060 1.366 . S
C1059 C1061 1.388 . S
C1060 C1059 1.366 . S
C1060 C1064 1.385 1_565 S
C1061 H1036 0.951 . S
C1061 C1059 1.388 . S
C1061 C1062 1.366 . S
C1062 C1061 1.366 . S
C1062 C1063 1.414 1_565 S
C1062 C1065 1.499 . S
C1063 H1037 0.950 . S
C1063 C1062 1.414 1_545 S
C1063 C1064 1.374 . S
C1064 H1038 0.950 . S
C1064 C1060 1.385 1_545 S
C1064 C1063 1.374 . S
C1065 C1062 1.499 . S
C1065 C1066 1.373 1_565 S
C1065 C1067 1.389 . S
C1066 H1039 0.950 . S
C1066 C1052 1.377 . S
C1066 C1065 1.373 1_545 S
C1067 C1051 1.377 . S
C1067 C1065 1.389 . S
C1067 C1068 1.524 . S
C1068 C1067 1.524 . S
C1068 C1069 1.397 . S
C1068 C1073 1.363 . S
C1069 H1040 0.950 . S
C1069 C1068 1.397 . S
C1069 C1070 1.334 . S
C1070 H1041 0.950 . S
C1070 C1069 1.334 . S
C1070 C1071 1.287 . S
C1071 C1070 1.287 . S
C1071 C1072 1.524 . S
C1071 H1074 0.999 . S
C1072 H1042 0.950 . S
C1072 C1071 1.524 . S
C1072 C1073 1.415 . S
C1073 H1043 0.950 . S
C1073 C1068 1.363 . S
C1073 C1072 1.415 . S
H1074 C1071 0.999 . S
H1075 C1056 0.913 . S
H1076 C1094 0.951 . S
H1077 C1096 0.951 . S
H1078 C1098 0.950 . S
H1079 C1099 0.950 . S
H1080 C1101 0.950 . S
H1081 C1104 0.950 . S
H1082 C1105 0.950 . S
H1083 C1107 0.950 . S
H1084 C1108 0.950 . S
H1085 C1109 0.951 . S
H1086 C1111 0.951 . S
H1087 C1113 0.950 . S
H1088 C1114 0.950 . S
H1089 C1116 0.950 . S
H1090 C1119 0.950 . S
H1091 C1120 0.950 . S
H1092 C1122 0.950 . S
H1093 C1123 0.950 . S
C1094 H1076 0.951 . S
C1094 C1095 1.366 . S
C1094 C1096 1.388 . S
C1095 C1094 1.366 . S
C1095 C1099 1.385 . S
C1096 H1077 0.951 . S
C1096 C1094 1.388 . S
C1096 C1097 1.366 . S
C1097 C1096 1.366 . S
C1097 C1098 1.414 . S
C1097 C1100 1.499 . S
C1098 H1078 0.950 . S
C1098 C1097 1.414 . S
C1098 C1099 1.374 . S
C1099 H1079 0.950 . S
C1099 C1095 1.385 . S
C1099 C1098 1.374 . S
C1100 C1097 1.499 . S
C1100 C1101 1.373 . S
C1100 C1102 1.389 . S
C1101 H1080 0.950 . S
C1101 C1100 1.373 . S
C1101 C1117 1.377 . S
C1102 C1100 1.389 . S
C1102 C1103 1.524 . S
C1102 C1116 1.377 . S
C1103 C1102 1.524 . S
C1103 C1104 1.397 . S
C1103 C1108 1.363 . S
C1104 H1081 0.950 . S
C1104 C1103 1.397 . S
C1104 C1105 1.334 . S
C1105 H1082 0.950 . S
C1105 C1104 1.334 . S
C1105 C1106 1.287 . S
C1106 C1105 1.287 . S
C1106 C1107 1.524 . S
C1106 H1125 0.913 . S
C1107 H1083 0.950 . S
C1107 C1106 1.524 . S
C1107 C1108 1.415 . S
C1108 H1084 0.950 . S
C1108 C1103 1.363 . S
C1108 C1107 1.415 . S
C1109 H1085 0.951 . S
C1109 C1110 1.366 . S
C1109 C1111 1.388 . S
C1110 C1109 1.366 . S
C1110 C1114 1.385 . S
C1111 H1086 0.951 . S
C1111 C1109 1.388 . S
C1111 C1112 1.366 . S
C1112 C1111 1.366 . S
C1112 C1113 1.414 . S
C1112 C1115 1.499 . S
C1113 H1087 0.950 . S
C1113 C1112 1.414 . S
C1113 C1114 1.374 . S
C1114 H1088 0.950 . S
C1114 C1110 1.385 . S
C1114 C1113 1.374 . S
C1115 C1112 1.499 . S
C1115 C1116 1.373 . S
C1115 C1117 1.389 . S
C1116 H1089 0.950 . S
C1116 C1102 1.377 . S
C1116 C1115 1.373 . S
C1117 C1101 1.377 . S
C1117 C1115 1.389 . S
C1117 C1118 1.524 . S
C1118 C1117 1.524 . S
C1118 C1119 1.397 . S
C1118 C1123 1.363 . S
C1119 H1090 0.950 . S
C1119 C1118 1.397 . S
C1119 C1120 1.334 . S
C1120 H1091 0.950 . S
C1120 C1119 1.334 . S
C1120 C1121 1.287 . S
C1121 C1120 1.287 . S
C1121 C1122 1.524 . S
C1121 H1124 0.999 . S
C1122 H1092 0.950 . S
C1122 C1121 1.524 . S
C1122 C1123 1.415 . S
C1123 H1093 0.950 . S
C1123 C1118 1.363 . S
C1123 C1122 1.415 . S
H1124 C1121 0.999 . S
H1125 C1106 0.913 . S
H1126 C1144 0.951 . S
H1127 C1146 0.951 . S
H1128 C1148 0.950 . S
H1129 C1149 0.950 . S
H1130 C1151 0.950 . S
H1131 C1154 0.950 1_455 S
H1132 C1155 0.950 . S
H1133 C1157 0.950 . S
H1134 C1158 0.950 . S
H1135 C1159 0.951 . S
H1136 C1161 0.951 . S
H1137 C1163 0.950 . S
H1138 C1164 0.950 . S
H1139 C1166 0.950 . S
H1140 C1169 0.950 1_655 S
H1141 C1170 0.950 . S
H1142 C1172 0.950 . S
H1143 C1173 0.950 . S
C1144 H1126 0.951 . S
C1144 C1145 1.366 1_655 S
C1144 C1146 1.388 . S
C1145 C1144 1.366 1_455 S
C1145 C1149 1.385 . S
C1146 H1127 0.951 . S
C1146 C1144 1.388 . S
C1146 C1147 1.366 1_655 S
C1147 C1146 1.366 1_455 S
C1147 C1148 1.414 . S
C1147 C1150 1.499 . S
C1148 H1128 0.950 . S
C1148 C1147 1.414 . S
C1148 C1149 1.374 . S
C1149 H1129 0.950 . S
C1149 C1145 1.385 . S
C1149 C1148 1.374 . S
C1150 C1147 1.499 . S
C1150 C1151 1.373 . S
C1150 C1152 1.389 1_455 S
C1151 H1130 0.950 . S
C1151 C1150 1.373 . S
C1151 C1167 1.377 . S
C1152 C1150 1.389 1_655 S
C1152 C1153 1.524 . S
C1152 C1166 1.377 . S
C1153 C1152 1.524 . S
C1153 C1154 1.397 . S
C1153 C1158 1.363 . S
C1154 H1131 0.950 1_655 S
C1154 C1153 1.397 . S
C1154 C1155 1.334 . S
C1155 H1132 0.950 . S
C1155 C1154 1.334 . S
C1155 C1156 1.287 . S
C1156 C1155 1.287 . S
C1156 C1157 1.524 . S
C1156 H1175 0.913 . S
C1157 H1133 0.950 . S
C1157 C1156 1.524 . S
C1157 C1158 1.415 . S
C1158 H1134 0.950 . S
C1158 C1153 1.363 . S
C1158 C1157 1.415 . S
C1159 H1135 0.951 . S
C1159 C1160 1.366 1_455 S
C1159 C1161 1.388 . S
C1160 C1159 1.366 1_655 S
C1160 C1164 1.385 . S
C1161 H1136 0.951 . S
C1161 C1159 1.388 . S
C1161 C1162 1.366 1_455 S
C1162 C1161 1.366 1_655 S
C1162 C1163 1.414 . S
C1162 C1165 1.499 . S
C1163 H1137 0.950 . S
C1163 C1162 1.414 . S
C1163 C1164 1.374 . S
C1164 H1138 0.950 . S
C1164 C1160 1.385 . S
C1164 C1163 1.374 . S
C1165 C1162 1.499 . S
C1165 C1166 1.373 . S
C1165 C1167 1.389 1_655 S
C1166 H1139 0.950 . S
C1166 C1152 1.377 . S
C1166 C1165 1.373 . S
C1167 C1151 1.377 . S
C1167 C1165 1.389 1_455 S
C1167 C1168 1.524 . S
C1168 C1167 1.524 . S
C1168 C1169 1.397 . S
C1168 C1173 1.363 . S
C1169 H1140 0.950 1_455 S
C1169 C1168 1.397 . S
C1169 C1170 1.334 . S
C1170 H1141 0.950 . S
C1170 C1169 1.334 . S
C1170 C1171 1.287 . S
C1171 C1170 1.287 . S
C1171 C1172 1.524 . S
C1171 H1174 0.999 . S
C1172 H1142 0.950 . S
C1172 C1171 1.524 . S
C1172 C1173 1.415 . S
C1173 H1143 0.950 . S
C1173 C1168 1.363 . S
C1173 C1172 1.415 . S
H1174 C1171 0.999 . S
H1175 C1156 0.913 . S
H1176 C1194 0.951 . S
H1177 C1196 0.951 . S
H1178 C1198 0.950 . S
H1179 C1199 0.950 . S
H1180 C1201 0.950 . S
H1181 C1204 0.950 . S
H1182 C1205 0.950 . S
H1183 C1207 0.950 . S
H1184 C1208 0.950 . S
H1185 C1209 0.951 . S
H1186 C1211 0.951 . S
H1187 C1213 0.950 . S
H1188 C1214 0.950 . S
H1189 C1216 0.950 . S
H1190 C1219 0.950 . S
H1191 C1220 0.950 . S
H1192 C1222 0.950 . S
H1193 C1223 0.950 . S
C1194 H1176 0.951 . S
C1194 C1195 1.366 1_455 S
C1194 C1196 1.388 . S
C1195 C1194 1.366 1_655 S
C1195 C1199 1.385 . S
C1196 H1177 0.951 . S
C1196 C1194 1.388 . S
C1196 C1197 1.356 1_455 S
C1197 C1196 1.356 1_655 S
C1197 C1198 1.433 . S
C1197 C1200 1.490 . S
C1198 H1178 0.950 . S
C1198 C1197 1.433 . S
C1198 C1199 1.374 . S
C1199 H1179 0.950 . S
C1199 C1195 1.385 . S
C1199 C1198 1.374 . S
C1200 C1197 1.490 . S
C1200 C1201 1.373 . S
C1200 C1202 1.389 1_655 S
C1201 H1180 0.950 . S
C1201 C1200 1.373 . S
C1201 C1217 1.377 1_545 S
C1202 C1200 1.389 1_455 S
C1202 C1203 1.524 . S
C1202 C1216 1.377 1_545 S
C1203 C1202 1.524 . S
C1203 C1204 1.397 . S
C1203 C1208 1.363 . S
C1204 H1181 0.950 . S
C1204 C1203 1.397 . S
C1204 C1205 1.334 . S
C1205 H1182 0.950 . S
C1205 C1204 1.334 . S
C1205 C1206 1.287 . S
C1206 C1205 1.287 . S
C1206 C1207 1.524 . S
C1206 H1225 0.913 . S
C1207 H1183 0.950 . S
C1207 C1206 1.524 . S
C1207 C1208 1.415 . S
C1208 H1184 0.950 . S
C1208 C1203 1.363 . S
C1208 C1207 1.415 . S
C1209 H1185 0.951 . S
C1209 C1210 1.366 1_655 S
C1209 C1211 1.388 . S
C1210 C1209 1.366 1_455 S
C1210 C1214 1.385 . S
C1211 H1186 0.951 . S
C1211 C1209 1.388 . S
C1211 C1212 1.358 1_655 S
C1212 C1211 1.358 1_455 S
C1212 C1213 1.429 . S
C1212 C1215 1.507 . S
C1213 H1187 0.950 . S
C1213 C1212 1.429 . S
C1213 C1214 1.374 . S
C1214 H1188 0.950 . S
C1214 C1210 1.385 . S
C1214 C1213 1.374 . S
C1215 C1212 1.507 . S
C1215 C1216 1.389 . S
C1215 C1217 1.358 1_455 S
C1216 H1189 0.950 . S
C1216 C1202 1.377 1_565 S
C1216 C1215 1.389 . S
C1217 C1201 1.377 1_565 S
C1217 C1215 1.358 1_655 S
C1217 C1218 1.524 . S
C1218 C1217 1.524 . S
C1218 C1219 1.397 . S
C1218 C1223 1.363 . S
C1219 H1190 0.950 . S
C1219 C1218 1.397 . S
C1219 C1220 1.334 . S
C1220 H1191 0.950 . S
C1220 C1219 1.334 . S
C1220 C1221 1.287 . S
C1221 C1220 1.287 . S
C1221 C1222 1.524 . S
C1221 H1224 0.999 . S
C1222 H1192 0.950 . S
C1222 C1221 1.524 . S
C1222 C1223 1.415 . S
C1223 H1193 0.950 . S
C1223 C1218 1.363 . S
C1223 C1222 1.415 . S
H1224 C1221 0.999 . S
H1225 C1206 0.913 . S
H1226 C1244 0.951 . S
H1227 C1246 0.951 . S
H1228 C1248 0.950 . S
H1229 C1249 0.950 . S
H1230 C1251 0.950 . S
H1231 C1254 0.950 1_565 S
H1232 C1255 0.950 1_565 S
H1233 C1257 0.950 . S
H1234 C1258 0.950 . S
H1235 C1259 0.951 . S
H1236 C1261 0.951 . S
H1237 C1263 0.950 . S
H1238 C1264 0.950 . S
H1239 C1266 0.950 . S
H1240 C1269 0.950 1_545 S
H1241 C1270 0.950 1_545 S
H1242 C1272 0.950 . S
H1243 C1273 0.950 . S
C1244 H1226 0.951 . S
C1244 C1245 1.366 . S
C1244 C1246 1.388 . S
C1245 C1244 1.366 . S
C1245 C1249 1.385 1_545 S
C1246 H1227 0.951 . S
C1246 C1244 1.388 . S
C1246 C1247 1.366 . S
C1247 C1246 1.366 . S
C1247 C1248 1.414 1_545 S
C1247 C1250 1.499 . S
C1248 H1228 0.950 . S
C1248 C1247 1.414 1_565 S
C1248 C1249 1.374 . S
C1249 H1229 0.950 . S
C1249 C1245 1.385 1_565 S
C1249 C1248 1.374 . S
C1250 C1247 1.499 . S
C1250 C1251 1.373 1_545 S
C1250 C1252 1.389 . S
C1251 H1230 0.950 . S
C1251 C1250 1.373 1_565 S
C1251 C1267 1.377 1_655 S
C1252 C1250 1.389 . S
C1252 C1253 1.524 . S
C1252 C1266 1.377 1_655 S
C1253 C1252 1.524 . S
C1253 C1254 1.397 . S
C1253 C1258 1.363 1_655 S
C1254 H1231 0.950 1_545 S
C1254 C1253 1.397 . S
C1254 C1255 1.334 . S
C1255 H1232 0.950 1_545 S
C1255 C1254 1.334 . S
C1255 C1256 1.287 . S
C1256 C1255 1.287 . S
C1256 C1257 1.524 1_655 S
C1256 H1275 0.913 . S
C1257 H1233 0.950 . S
C1257 C1256 1.524 1_455 S
C1257 C1258 1.415 . S
C1258 H1234 0.950 . S
C1258 C1253 1.363 1_455 S
C1258 C1257 1.415 . S
C1259 H1235 0.951 . S
C1259 C1260 1.366 . S
C1259 C1261 1.388 . S
C1260 C1259 1.366 . S
C1260 C1264 1.385 1_565 S
C1261 H1236 0.951 . S
C1261 C1259 1.388 . S
C1261 C1262 1.366 . S
C1262 C1261 1.366 . S
C1262 C1263 1.414 1_565 S
C1262 C1265 1.499 . S
C1263 H1237 0.950 . S
C1263 C1262 1.414 1_545 S
C1263 C1264 1.374 . S
C1264 H1238 0.950 . S
C1264 C1260 1.385 1_545 S
C1264 C1263 1.374 . S
C1265 C1262 1.499 . S
C1265 C1266 1.373 1_565 S
C1265 C1267 1.389 . S
C1266 H1239 0.950 . S
C1266 C1252 1.377 1_455 S
C1266 C1265 1.373 1_545 S
C1267 C1251 1.377 1_455 S
C1267 C1265 1.389 . S
C1267 C1268 1.524 . S
C1268 C1267 1.524 . S
C1268 C1269 1.397 . S
C1268 C1273 1.363 1_455 S
C1269 H1240 0.950 1_565 S
C1269 C1268 1.397 . S
C1269 C1270 1.334 . S
C1270 H1241 0.950 1_565 S
C1270 C1269 1.334 . S
C1270 C1271 1.287 . S
C1271 C1270 1.287 . S
C1271 C1272 1.524 1_455 S
C1271 H1274 0.999 . S
C1272 H1242 0.950 . S
C1272 C1271 1.524 1_655 S
C1272 C1273 1.415 . S
C1273 H1243 0.950 . S
C1273 C1268 1.363 1_655 S
C1273 C1272 1.415 . S
H1274 C1271 0.999 . S
H1275 C1256 0.913 . S
H1276 C1294 0.951 . S
H1277 C1296 0.951 . S
H1278 C1298 0.950 . S
H1279 C1299 0.950 . S
H1280 C1301 0.950 . S
H1281 C1304 0.950 . S
H1282 C1305 0.950 . S
H1283 C1307 0.950 . S
H1284 C1308 0.950 . S
H1285 C1309 0.951 . S
H1286 C1311 0.951 . S
H1287 C1313 0.950 . S
H1288 C1314 0.950 . S
H1289 C1316 0.950 . S
H1290 C1319 0.950 . S
H1291 C1320 0.950 . S
H1292 C1322 0.950 . S
H1293 C1323 0.950 . S
C1294 H1276 0.951 . S
C1294 C1295 1.366 . S
C1294 C1296 1.388 . S
C1295 C1294 1.366 . S
C1295 C1299 1.385 . S
C1296 H1277 0.951 . S
C1296 C1294 1.388 . S
C1296 C1297 1.366 . S
C1297 C1296 1.366 . S
C1297 C1298 1.414 . S
C1297 C1300 1.499 . S
C1298 H1278 0.950 . S
C1298 C1297 1.414 . S
C1298 C1299 1.374 . S
C1299 H1279 0.950 . S
C1299 C1295 1.385 . S
C1299 C1298 1.374 . S
C1300 C1297 1.499 . S
C1300 C1301 1.373 . S
C1300 C1302 1.389 . S
C1301 H1280 0.950 . S
C1301 C1300 1.373 . S
C1301 C1317 1.377 1_445 S
C1302 C1300 1.389 . S
C1302 C1303 1.524 . S
C1302 C1316 1.377 1_445 S
C1303 C1302 1.524 . S
C1303 C1304 1.397 . S
C1303 C1308 1.363 1_455 S
C1304 H1281 0.950 . S
C1304 C1303 1.397 . S
C1304 C1305 1.334 . S
C1305 H1282 0.950 . S
C1305 C1304 1.334 . S
C1305 C1306 1.287 . S
C1306 C1305 1.287 . S
C1306 C1307 1.524 1_455 S
C1306 H1325 0.913 . S
C1307 H1283 0.950 . S
C1307 C1306 1.524 1_655 S
C1307 C1308 1.415 . S
C1308 H1284 0.950 . S
C1308 C1303 1.363 1_655 S
C1308 C1307 1.415 . S
C1309 H1285 0.951 . S
C1309 C1310 1.366 . S
C1309 C1311 1.388 . S
C1310 C1309 1.366 . S
C1310 C1314 1.385 . S
C1311 H1286 0.951 . S
C1311 C1309 1.388 . S
C1311 C1312 1.366 . S
C1312 C1311 1.366 . S
C1312 C1313 1.414 . S
C1312 C1315 1.499 . S
C1313 H1287 0.950 . S
C1313 C1312 1.414 . S
C1313 C1314 1.374 . S
C1314 H1288 0.950 . S
C1314 C1310 1.385 . S
C1314 C1313 1.374 . S
C1315 C1312 1.499 . S
C1315 C1316 1.373 . S
C1315 C1317 1.389 . S
C1316 H1289 0.950 . S
C1316 C1302 1.377 1_665 S
C1316 C1315 1.373 . S
C1317 C1301 1.377 1_665 S
C1317 C1315 1.389 . S
C1317 C1318 1.524 . S
C1318 C1317 1.524 . S
C1318 C1319 1.397 . S
C1318 C1323 1.363 1_655 S
C1319 H1290 0.950 . S
C1319 C1318 1.397 . S
C1319 C1320 1.334 . S
C1320 H1291 0.950 . S
C1320 C1319 1.334 . S
C1320 C1321 1.287 . S
C1321 C1320 1.287 . S
C1321 C1322 1.524 1_655 S
C1321 H1324 0.999 . S
C1322 H1292 0.950 . S
C1322 C1321 1.524 1_455 S
C1322 C1323 1.415 . S
C1323 H1293 0.950 . S
C1323 C1318 1.363 1_455 S
C1323 C1322 1.415 . S
H1324 C1321 0.999 . S
H1325 C1306 0.913 . S
H1326 C1344 0.951 . S
H1327 C1346 0.951 . S
H1328 C1348 0.950 . S
H1329 C1349 0.950 . S
H1330 C1351 0.950 . S
H1331 C1354 0.967 . S
H1332 C1355 0.950 . S
H1333 C1357 0.950 1_455 S
H1334 C1358 0.950 . S
H1335 C1359 0.951 . S
H1336 C1361 0.951 . S
H1337 C1363 0.950 . S
H1338 C1364 0.950 . S
H1339 C1366 0.950 . S
H1340 C1369 0.967 . S
H1341 C1370 0.950 . S
H1342 C1372 0.950 1_655 S
H1343 C1373 0.950 . S
C1344 H1326 0.951 . S
C1344 C1345 1.366 1_545 S
C1344 C1346 1.388 . S
C1345 C1344 1.366 1_565 S
C1345 C1349 1.385 . S
C1346 H1327 0.951 . S
C1346 C1344 1.388 . S
C1346 C1347 1.366 1_545 S
C1347 C1346 1.366 1_565 S
C1347 C1348 1.414 . S
C1347 C1350 1.499 . S
C1348 H1328 0.950 . S
C1348 C1347 1.414 . S
C1348 C1349 1.374 . S
C1349 H1329 0.950 . S
C1349 C1345 1.385 . S
C1349 C1348 1.374 . S
C1350 C1347 1.499 . S
C1350 C1351 1.373 . S
C1350 C1352 1.389 1_565 S
C1351 H1330 0.950 . S
C1351 C1350 1.373 . S
C1351 C1367 1.377 1_655 S
C1352 C1350 1.389 1_545 S
C1352 C1353 1.524 . S
C1352 C1366 1.377 1_655 S
C1353 C1352 1.524 . S
C1353 C1354 1.397 . S
C1353 C1358 1.363 1_655 S
C1354 H1331 0.967 . S
C1354 C1353 1.397 . S
C1354 C1355 1.334 . S
C1355 H1332 0.950 . S
C1355 C1354 1.334 . S
C1355 C1356 1.287 . S
C1356 C1355 1.287 . S
C1356 C1357 1.524 . S
C1356 H1375 0.913 . S
C1357 H1333 0.950 1_655 S
C1357 C1356 1.524 . S
C1357 C1358 1.415 1_655 S
C1358 H1334 0.950 . S
C1358 C1353 1.363 1_455 S
C1358 C1357 1.415 1_455 S
C1359 H1335 0.951 . S
C1359 C1360 1.366 1_565 S
C1359 C1361 1.388 . S
C1360 C1359 1.366 1_545 S
C1360 C1364 1.385 . S
C1361 H1336 0.951 . S
C1361 C1359 1.388 . S
C1361 C1362 1.366 1_565 S
C1362 C1361 1.366 1_545 S
C1362 C1363 1.414 . S
C1362 C1365 1.499 . S
C1363 H1337 0.950 . S
C1363 C1362 1.414 . S
C1363 C1364 1.374 . S
C1364 H1338 0.950 . S
C1364 C1360 1.385 . S
C1364 C1363 1.374 . S
C1365 C1362 1.499 . S
C1365 C1366 1.373 . S
C1365 C1367 1.389 1_545 S
C1366 H1339 0.950 . S
C1366 C1352 1.377 1_455 S
C1366 C1365 1.373 . S
C1367 C1351 1.377 1_455 S
C1367 C1365 1.389 1_565 S
C1367 C1368 1.524 . S
C1368 C1367 1.524 . S
C1368 C1369 1.397 . S
C1368 C1373 1.363 1_455 S
C1369 H1340 0.967 . S
C1369 C1368 1.397 . S
C1369 C1370 1.334 . S
C1370 H1341 0.950 . S
C1370 C1369 1.334 . S
C1370 C1371 1.287 . S
C1371 C1370 1.287 . S
C1371 C1372 1.524 . S
C1371 H1374 0.999 . S
C1372 H1342 0.950 1_455 S
C1372 C1371 1.524 . S
C1372 C1373 1.415 1_455 S
C1373 H1343 0.950 . S
C1373 C1368 1.363 1_655 S
C1373 C1372 1.415 1_655 S
H1374 C1371 0.999 . S
H1375 C1356 0.913 . S
H1376 C1394 0.951 . S
H1377 C1396 0.951 . S
H1378 C1398 0.950 . S
H1379 C1399 0.950 . S
H1380 C1401 0.950 . S
H1381 C1404 0.950 . S
H1382 C1405 0.950 . S
H1383 C1407 0.950 1_545 S
H1384 C1408 0.950 1_545 S
H1385 C1409 0.951 . S
H1386 C1411 0.951 . S
H1387 C1413 0.950 . S
H1388 C1414 0.950 . S
H1389 C1416 0.950 . S
H1390 C1419 0.950 . S
H1391 C1420 0.950 . S
H1392 C1422 0.950 1_565 S
H1393 C1423 0.950 1_565 S
C1394 H1376 0.951 . S
C1394 C1395 1.366 . S
C1394 C1396 1.388 . S
C1395 C1394 1.366 . S
C1395 C1399 1.385 . S
C1396 H1377 0.951 . S
C1396 C1394 1.388 . S
C1396 C1397 1.366 . S
C1397 C1396 1.366 . S
C1397 C1398 1.414 . S
C1397 C1400 1.499 . S
C1398 H1378 0.950 . S
C1398 C1397 1.414 . S
C1398 C1399 1.374 . S
C1399 H1379 0.950 . S
C1399 C1395 1.385 . S
C1399 C1398 1.374 . S
C1400 C1397 1.499 . S
C1400 C1401 1.373 . S
C1400 C1402 1.389 . S
C1401 H1380 0.950 . S
C1401 C1400 1.373 . S
C1401 C1417 1.377 1_665 S
C1402 C1400 1.389 . S
C1402 C1403 1.524 . S
C1402 C1416 1.377 1_665 S
C1403 C1402 1.524 . S
C1403 C1404 1.397 . S
C1403 C1408 1.363 . S
C1404 H1381 0.950 . S
C1404 C1403 1.397 . S
C1404 C1405 1.334 . S
C1405 H1382 0.950 . S
C1405 C1404 1.334 . S
C1405 C1406 1.287 . S
C1406 C1405 1.287 . S
C1406 C1407 1.524 . S
C1406 H1425 0.913 . S
C1407 H1383 0.950 1_565 S
C1407 C1406 1.524 . S
C1407 C1408 1.415 . S
C1408 H1384 0.950 1_565 S
C1408 C1403 1.363 . S
C1408 C1407 1.415 . S
C1409 H1385 0.951 . S
C1409 C1410 1.366 . S
C1409 C1411 1.388 . S
C1410 C1409 1.366 . S
C1410 C1414 1.385 . S
C1411 H1386 0.951 . S
C1411 C1409 1.388 . S
C1411 C1412 1.366 . S
C1412 C1411 1.366 . S
C1412 C1413 1.414 . S
C1412 C1415 1.499 . S
C1413 H1387 0.950 . S
C1413 C1412 1.414 . S
C1413 C1414 1.374 . S
C1414 H1388 0.950 . S
C1414 C1410 1.385 . S
C1414 C1413 1.374 . S
C1415 C1412 1.499 . S
C1415 C1416 1.373 . S
C1415 C1417 1.389 . S
C1416 H1389 0.950 . S
C1416 C1402 1.377 1_445 S
C1416 C1415 1.373 . S
C1417 C1401 1.377 1_445 S
C1417 C1415 1.389 . S
C1417 C1418 1.524 . S
C1418 C1417 1.524 . S
C1418 C1419 1.397 . S
C1418 C1423 1.363 . S
C1419 H1390 0.950 . S
C1419 C1418 1.397 . S
C1419 C1420 1.334 . S
C1420 H1391 0.950 . S
C1420 C1419 1.334 . S
C1420 C1421 1.287 . S
C1421 C1420 1.287 . S
C1421 C1422 1.524 . S
C1421 H1424 0.999 . S
C1422 H1392 0.950 1_545 S
C1422 C1421 1.524 . S
C1422 C1423 1.415 . S
C1423 H1393 0.950 1_545 S
C1423 C1418 1.363 . S
C1423 C1422 1.415 . S
H1424 C1421 0.999 . S
H1425 C1406 0.913 . S
H1426 C1444 0.951 . S
H1427 C1446 0.951 . S
H1428 C1448 0.950 . S
H1429 C1449 0.950 . S
H1430 C1451 0.950 . S
H1431 C1454 0.950 . S
H1432 C1455 0.950 . S
H1433 C1457 0.950 . S
H1434 C1458 0.950 . S
H1435 C1459 0.951 . S
H1436 C1461 0.951 . S
H1437 C1463 0.950 . S
H1438 C1464 0.950 . S
H1439 C1466 0.950 . S
H1440 C1469 0.950 . S
H1441 C1470 0.950 . S
H1442 C1472 0.950 . S
H1443 C1473 0.950 . S
C1444 H1426 0.951 . S
C1444 C1445 1.366 1_655 S
C1444 C1446 1.388 . S
C1445 C1444 1.366 1_455 S
C1445 C1449 1.385 . S
C1446 H1427 0.951 . S
C1446 C1444 1.388 . S
C1446 C1447 1.365 . S
C1447 C1446 1.365 . S
C1447 C1448 1.404 1_655 S
C1447 C1450 1.508 . S
C1448 H1428 0.950 . S
C1448 C1447 1.404 1_455 S
C1448 C1449 1.374 . S
C1449 H1429 0.950 . S
C1449 C1445 1.385 . S
C1449 C1448 1.374 . S
C1450 C1447 1.508 . S
C1450 C1451 1.373 1_655 S
C1450 C1452 1.389 . S
C1451 H1430 0.950 . S
C1451 C1450 1.373 1_455 S
C1451 C1467 1.377 1_565 S
C1452 C1450 1.389 . S
C1452 C1453 1.524 . S
C1452 C1466 1.377 1_565 S
C1453 C1452 1.524 . S
C1453 C1454 1.397 . S
C1453 C1458 1.363 . S
C1454 H1431 0.950 . S
C1454 C1453 1.397 . S
C1454 C1455 1.334 . S
C1455 H1432 0.950 . S
C1455 C1454 1.334 . S
C1455 C1456 1.287 . S
C1456 C1455 1.287 . S
C1456 C1457 1.524 . S
C1456 H1475 0.913 . S
C1457 H1433 0.950 . S
C1457 C1456 1.524 . S
C1457 C1458 1.415 . S
C1458 H1434 0.950 . S
C1458 C1453 1.363 . S
C1458 C1457 1.415 . S
C1459 H1435 0.951 . S
C1459 C1460 1.366 1_455 S
C1459 C1461 1.388 . S
C1460 C1459 1.366 1_655 S
C1460 C1464 1.385 . S
C1461 H1436 0.951 . S
C1461 C1459 1.388 . S
C1461 C1462 1.365 . S
C1462 C1461 1.365 . S
C1462 C1463 1.407 1_455 S
C1462 C1465 1.506 . S
C1463 H1437 0.950 . S
C1463 C1462 1.407 1_655 S
C1463 C1464 1.374 . S
C1464 H1438 0.950 . S
C1464 C1460 1.385 . S
C1464 C1463 1.374 . S
C1465 C1462 1.506 . S
C1465 C1466 1.373 1_455 S
C1465 C1467 1.389 . S
C1466 H1439 0.950 . S
C1466 C1452 1.377 1_545 S
C1466 C1465 1.373 1_655 S
C1467 C1451 1.377 1_545 S
C1467 C1465 1.389 . S
C1467 C1468 1.524 . S
C1468 C1467 1.524 . S
C1468 C1469 1.397 . S
C1468 C1473 1.363 . S
C1469 H1440 0.950 . S
C1469 C1468 1.397 . S
C1469 C1470 1.334 . S
C1470 H1441 0.950 . S
C1470 C1469 1.334 . S
C1470 C1471 1.287 . S
C1471 C1470 1.287 . S
C1471 C1472 1.524 . S
C1471 H1474 0.999 . S
C1472 H1442 0.950 . S
C1472 C1471 1.524 . S
C1472 C1473 1.415 . S
C1473 H1443 0.950 . S
C1473 C1468 1.363 . S
C1473 C1472 1.415 . S
H1474 C1471 0.999 . S
H1475 C1456 0.913 . S
C295 C260 1.666 . S
C310 C7 1.668 . S
C345 N25 1.569 . S
C360 N140 1.569 . S
C395 C53 1.666 . S
C410 C168 1.666 . S
C445 C76 1.668 . S
C460 C191 1.666 . S
C495 N209 1.569 . S
C510 N94 1.570 . S
C545 C122 1.666 . S
C560 C237 1.665 . S
C595 C16 1.631 . S
C610 C246 1.631 . S
C645 N35 1.619 . S
C660 C269 1.617 . S
C695 C62 1.616 . S
C710 N150 1.619 . S
C745 C85 1.631 . S
C760 C177 1.631 . S
C795 C200 1.616 . S
C810 N104 1.620 . S
C845 N219 1.619 . S
C860 C131 1.616 . S
C895 N81 1.436 1_455 S
C910 N12 1.437 1_655 S
C945 C39 1.509 . S
C960 C108 1.509 . S
C995 N127 1.481 . S
C1010 N58 1.481 . S
C1045 C223 1.509 . S
C1060 C154 1.509 . S
C1095 N242 1.436 . S
C1110 N173 1.437 . S
C1145 N196 1.482 . S
C1160 N265 1.481 . S
C1195 N2 1.451 . S
C1210 N71 1.452 . S
C1245 C30 1.676 . S
C1260 C99 1.676 . S
C1295 N117 1.402 . S
C1310 N48 1.401 . S
C1345 C145 1.676 . S
C1360 C214 1.676 . S
C1395 N163 1.452 . S
C1410 N232 1.451 . S
C1445 N186 1.402 1_455 S
C1460 N255 1.402 1_655 S
