# Generated by pormake.
# Topology yfs, (5)-cn, num edge types: 1
# Building blocks:
#     Node 0, Type 0, BuildingBlock: XOMCOT_clean_sbu_1, # of connection points: 5
#     Node 1, Type 0, BuildingBlock: XOMCOT_clean_sbu_1, # of connection points: 5
#     Node 2, Type 0, BuildingBlock: XOMCOT_clean_sbu_1, # of connection points: 5
#     Node 3, Type 0, BuildingBlock: XOMCOT_clean_sbu_1, # of connection points: 5
#     Node 4, Type 0, BuildingBlock: XOMCOT_clean_sbu_1, # of connection points: 5
#     Node 5, Type 0, BuildingBlock: XOMCOT_clean_sbu_1, # of connection points: 5
#     Node 6, Type 0, BuildingBlock: XOMCOT_clean_sbu_1, # of connection points: 5
#     Node 7, Type 0, BuildingBlock: XOMCOT_clean_sbu_1, # of connection points: 5
#     Node 8, Type 0, BuildingBlock: XOMCOT_clean_sbu_1, # of connection points: 5
#     Node 9, Type 0, BuildingBlock: XOMCOT_clean_sbu_1, # of connection points: 5
#     Node 10, Type 0, BuildingBlock: XOMCOT_clean_sbu_1, # of connection points: 5
#     Node 11, Type 0, BuildingBlock: XOMCOT_clean_sbu_1, # of connection points: 5
#     Node 12, Type 0, BuildingBlock: XOMCOT_clean_sbu_1, # of connection points: 5
#     Node 13, Type 0, BuildingBlock: XOMCOT_clean_sbu_1, # of connection points: 5
#     Node 14, Type 0, BuildingBlock: XOMCOT_clean_sbu_1, # of connection points: 5
#     Node 15, Type 0, BuildingBlock: XOMCOT_clean_sbu_1, # of connection points: 5
#     Node 16, Type 0, BuildingBlock: XOMCOT_clean_sbu_1, # of connection points: 5
#     Node 17, Type 0, BuildingBlock: XOMCOT_clean_sbu_1, # of connection points: 5
#     Node 18, Type 0, BuildingBlock: XOMCOT_clean_sbu_1, # of connection points: 5
#     Node 19, Type 0, BuildingBlock: XOMCOT_clean_sbu_1, # of connection points: 5
#     Node 20, Type 0, BuildingBlock: XOMCOT_clean_sbu_1, # of connection points: 5
#     Node 21, Type 0, BuildingBlock: XOMCOT_clean_sbu_1, # of connection points: 5
#     Node 22, Type 0, BuildingBlock: XOMCOT_clean_sbu_1, # of connection points: 5
#     Node 23, Type 0, BuildingBlock: XOMCOT_clean_sbu_1, # of connection points: 5
#     Node 24, Type 0, BuildingBlock: XOMCOT_clean_sbu_1, # of connection points: 5
#     Node 25, Type 0, BuildingBlock: XOMCOT_clean_sbu_1, # of connection points: 5
#     Node 26, Type 0, BuildingBlock: XOMCOT_clean_sbu_1, # of connection points: 5
#     Node 27, Type 0, BuildingBlock: XOMCOT_clean_sbu_1, # of connection points: 5
#     Node 28, Type 0, BuildingBlock: XOMCOT_clean_sbu_1, # of connection points: 5
#     Node 29, Type 0, BuildingBlock: XOMCOT_clean_sbu_1, # of connection points: 5
#     Node 30, Type 0, BuildingBlock: XOMCOT_clean_sbu_1, # of connection points: 5
#     Node 31, Type 0, BuildingBlock: XOMCOT_clean_sbu_1, # of connection points: 5
#     Edge 32, Type (0, 0), BuildingBlock: TEMPAE_clean_linker_10, # of connection points: 2
#     Edge 33, Type (0, 0), BuildingBlock: TEMPAE_clean_linker_10, # of connection points: 2
#     Edge 34, Type (0, 0), BuildingBlock: TEMPAE_clean_linker_10, # of connection points: 2
#     Edge 35, Type (0, 0), BuildingBlock: TEMPAE_clean_linker_10, # of connection points: 2
#     Edge 36, Type (0, 0), BuildingBlock: TEMPAE_clean_linker_10, # of connection points: 2
#     Edge 37, Type (0, 0), BuildingBlock: TEMPAE_clean_linker_10, # of connection points: 2
#     Edge 38, Type (0, 0), BuildingBlock: TEMPAE_clean_linker_10, # of connection points: 2
#     Edge 39, Type (0, 0), BuildingBlock: TEMPAE_clean_linker_10, # of connection points: 2
#     Edge 40, Type (0, 0), BuildingBlock: TEMPAE_clean_linker_10, # of connection points: 2
#     Edge 41, Type (0, 0), BuildingBlock: TEMPAE_clean_linker_10, # of connection points: 2
#     Edge 42, Type (0, 0), BuildingBlock: TEMPAE_clean_linker_10, # of connection points: 2
#     Edge 43, Type (0, 0), BuildingBlock: TEMPAE_clean_linker_10, # of connection points: 2
#     Edge 44, Type (0, 0), BuildingBlock: TEMPAE_clean_linker_10, # of connection points: 2
#     Edge 45, Type (0, 0), BuildingBlock: TEMPAE_clean_linker_10, # of connection points: 2
#     Edge 46, Type (0, 0), BuildingBlock: TEMPAE_clean_linker_10, # of connection points: 2
#     Edge 47, Type (0, 0), BuildingBlock: TEMPAE_clean_linker_10, # of connection points: 2
#     Edge 48, Type (0, 0), BuildingBlock: TEMPAE_clean_linker_10, # of connection points: 2
#     Edge 49, Type (0, 0), BuildingBlock: TEMPAE_clean_linker_10, # of connection points: 2
#     Edge 50, Type (0, 0), BuildingBlock: TEMPAE_clean_linker_10, # of connection points: 2
#     Edge 51, Type (0, 0), BuildingBlock: TEMPAE_clean_linker_10, # of connection points: 2
#     Edge 52, Type (0, 0), BuildingBlock: TEMPAE_clean_linker_10, # of connection points: 2
#     Edge 53, Type (0, 0), BuildingBlock: TEMPAE_clean_linker_10, # of connection points: 2
#     Edge 54, Type (0, 0), BuildingBlock: TEMPAE_clean_linker_10, # of connection points: 2
#     Edge 55, Type (0, 0), BuildingBlock: TEMPAE_clean_linker_10, # of connection points: 2
#     Edge 56, Type (0, 0), BuildingBlock: TEMPAE_clean_linker_10, # of connection points: 2
#     Edge 57, Type (0, 0), BuildingBlock: TEMPAE_clean_linker_10, # of connection points: 2
#     Edge 58, Type (0, 0), BuildingBlock: TEMPAE_clean_linker_10, # of connection points: 2
#     Edge 59, Type (0, 0), BuildingBlock: TEMPAE_clean_linker_10, # of connection points: 2
#     Edge 60, Type (0, 0), BuildingBlock: TEMPAE_clean_linker_10, # of connection points: 2
#     Edge 61, Type (0, 0), BuildingBlock: TEMPAE_clean_linker_10, # of connection points: 2
#     Edge 62, Type (0, 0), BuildingBlock: TEMPAE_clean_linker_10, # of connection points: 2
#     Edge 63, Type (0, 0), BuildingBlock: TEMPAE_clean_linker_10, # of connection points: 2
#     Edge 64, Type (0, 0), BuildingBlock: TEMPAE_clean_linker_10, # of connection points: 2
#     Edge 65, Type (0, 0), BuildingBlock: TEMPAE_clean_linker_10, # of connection points: 2
#     Edge 66, Type (0, 0), BuildingBlock: TEMPAE_clean_linker_10, # of connection points: 2
#     Edge 67, Type (0, 0), BuildingBlock: TEMPAE_clean_linker_10, # of connection points: 2
#     Edge 68, Type (0, 0), BuildingBlock: TEMPAE_clean_linker_10, # of connection points: 2
#     Edge 69, Type (0, 0), BuildingBlock: TEMPAE_clean_linker_10, # of connection points: 2
#     Edge 70, Type (0, 0), BuildingBlock: TEMPAE_clean_linker_10, # of connection points: 2
#     Edge 71, Type (0, 0), BuildingBlock: TEMPAE_clean_linker_10, # of connection points: 2
#     Edge 72, Type (0, 0), BuildingBlock: TEMPAE_clean_linker_10, # of connection points: 2
#     Edge 73, Type (0, 0), BuildingBlock: TEMPAE_clean_linker_10, # of connection points: 2
#     Edge 74, Type (0, 0), BuildingBlock: TEMPAE_clean_linker_10, # of connection points: 2
#     Edge 75, Type (0, 0), BuildingBlock: TEMPAE_clean_linker_10, # of connection points: 2
#     Edge 76, Type (0, 0), BuildingBlock: TEMPAE_clean_linker_10, # of connection points: 2
#     Edge 77, Type (0, 0), BuildingBlock: TEMPAE_clean_linker_10, # of connection points: 2
#     Edge 78, Type (0, 0), BuildingBlock: TEMPAE_clean_linker_10, # of connection points: 2
#     Edge 79, Type (0, 0), BuildingBlock: TEMPAE_clean_linker_10, # of connection points: 2
#     Edge 80, Type (0, 0), BuildingBlock: TEMPAE_clean_linker_10, # of connection points: 2
#     Edge 81, Type (0, 0), BuildingBlock: TEMPAE_clean_linker_10, # of connection points: 2
#     Edge 82, Type (0, 0), BuildingBlock: TEMPAE_clean_linker_10, # of connection points: 2
#     Edge 83, Type (0, 0), BuildingBlock: TEMPAE_clean_linker_10, # of connection points: 2
#     Edge 84, Type (0, 0), BuildingBlock: TEMPAE_clean_linker_10, # of connection points: 2
#     Edge 85, Type (0, 0), BuildingBlock: TEMPAE_clean_linker_10, # of connection points: 2
#     Edge 86, Type (0, 0), BuildingBlock: TEMPAE_clean_linker_10, # of connection points: 2
#     Edge 87, Type (0, 0), BuildingBlock: TEMPAE_clean_linker_10, # of connection points: 2
#     Edge 88, Type (0, 0), BuildingBlock: TEMPAE_clean_linker_10, # of connection points: 2
#     Edge 89, Type (0, 0), BuildingBlock: TEMPAE_clean_linker_10, # of connection points: 2
#     Edge 90, Type (0, 0), BuildingBlock: TEMPAE_clean_linker_10, # of connection points: 2
#     Edge 91, Type (0, 0), BuildingBlock: TEMPAE_clean_linker_10, # of connection points: 2
#     Edge 92, Type (0, 0), BuildingBlock: TEMPAE_clean_linker_10, # of connection points: 2
#     Edge 93, Type (0, 0), BuildingBlock: TEMPAE_clean_linker_10, # of connection points: 2
#     Edge 94, Type (0, 0), BuildingBlock: TEMPAE_clean_linker_10, # of connection points: 2
#     Edge 95, Type (0, 0), BuildingBlock: TEMPAE_clean_linker_10, # of connection points: 2
#     Edge 96, Type (0, 0), BuildingBlock: TEMPAE_clean_linker_10, # of connection points: 2
#     Edge 97, Type (0, 0), BuildingBlock: TEMPAE_clean_linker_10, # of connection points: 2
#     Edge 98, Type (0, 0), BuildingBlock: TEMPAE_clean_linker_10, # of connection points: 2
#     Edge 99, Type (0, 0), BuildingBlock: TEMPAE_clean_linker_10, # of connection points: 2
#     Edge 100, Type (0, 0), BuildingBlock: TEMPAE_clean_linker_10, # of connection points: 2
#     Edge 101, Type (0, 0), BuildingBlock: TEMPAE_clean_linker_10, # of connection points: 2
#     Edge 102, Type (0, 0), BuildingBlock: TEMPAE_clean_linker_10, # of connection points: 2
#     Edge 103, Type (0, 0), BuildingBlock: TEMPAE_clean_linker_10, # of connection points: 2
#     Edge 104, Type (0, 0), BuildingBlock: TEMPAE_clean_linker_10, # of connection points: 2
#     Edge 105, Type (0, 0), BuildingBlock: TEMPAE_clean_linker_10, # of connection points: 2
#     Edge 106, Type (0, 0), BuildingBlock: TEMPAE_clean_linker_10, # of connection points: 2
#     Edge 107, Type (0, 0), BuildingBlock: TEMPAE_clean_linker_10, # of connection points: 2
#     Edge 108, Type (0, 0), BuildingBlock: TEMPAE_clean_linker_10, # of connection points: 2
#     Edge 109, Type (0, 0), BuildingBlock: TEMPAE_clean_linker_10, # of connection points: 2
#     Edge 110, Type (0, 0), BuildingBlock: TEMPAE_clean_linker_10, # of connection points: 2
#     Edge 111, Type (0, 0), BuildingBlock: TEMPAE_clean_linker_10, # of connection points: 2
# Relax obj value: 0.537
# Max RMSD: 0.265
# Mean RMSD: 0.265
data_MOF--net-yfs--node1-XOMCOT_clean_sbu_1--edge1-TEMPAE_clean_linker_10
_symmetry_space_group_name_H-M    P1
_symmetry_Int_Tables_number       1
_symmetry_cell_setting            triclinic
loop_
_symmetry_equiv_pos_as_xyz
'x, y, z'
_cell_length_a     42.788462
_cell_length_b     42.776868
_cell_length_c     85.96234
_cell_angle_alpha  89.961463
_cell_angle_beta   89.85434
_cell_angle_gamma 89.966896
loop_
_atom_site_label
_atom_site_type_symbol
_atom_site_fract_x
_atom_site_fract_y
_atom_site_fract_z
_atom_type_partial_charge
C0 C 0.39689 0.05956 0.19828 0.0
C1 C 0.41864 0.05034 0.18732 0.0
N2 N 0.42913 0.07584 0.17971 0.0
N3 N 0.39344 0.09089 0.19774 0.0
C4 C 0.41294 0.09997 0.18603 0.0
H5 H 0.38643 0.04449 0.20693 0.0
Co6 Co 0.37685 0.11688 0.21378 0.0
C7 C 0.35598 0.17619 0.19712 0.0
O8 O 0.36347 0.19248 0.20951 0.0
N9 N 0.36087 0.143 0.23018 0.0
C10 C 0.3598 0.17176 0.25179 0.0
C11 C 0.37644 0.15023 0.24335 0.0
C12 C 0.33341 0.15894 0.23159 0.0
N13 N 0.33287 0.17751 0.24435 0.0
O14 O 0.3388 0.09151 0.21584 0.0
H15 H 0.39877 0.14089 0.24673 0.0
H16 H 0.31524 0.15876 0.22285 0.0
O17 O 0.35976 0.14623 0.19719 0.0
C18 C 0.34604 0.07435 0.22764 0.0
O19 O 0.37437 0.07678 0.23329 0.0
N20 N 0.41549 0.13676 0.21454 0.0
C21 C 0.46485 0.16563 0.22861 0.0
C22 C 0.45109 0.17927 0.21546 0.0
C23 C 0.42616 0.16409 0.20837 0.0
C24 C 0.43376 0.12021 0.2246 0.0
C25 C 0.45825 0.1347 0.23229 0.0
H26 H 0.41479 0.17526 0.19873 0.0
H27 H 0.42665 0.09726 0.22837 0.0
H28 H 0.41755 0.12417 0.1832 0.0
H29 H 0.42739 0.02681 0.18572 0.0
H30 H 0.3672 0.18293 0.26247 0.0
H31 H 0.45688 0.20285 0.21193 0.0
H32 H 0.46902 0.12337 0.24219 0.0
C33 C 0.19434 0.13462 0.44466 0.0
C34 C 0.20048 0.1553 0.43268 0.0
N35 N 0.17317 0.16661 0.42722 0.0
N36 N 0.16319 0.13263 0.44688 0.0
C37 C 0.15105 0.15166 0.43574 0.0
H38 H 0.21173 0.12405 0.45208 0.0
Co39 Co 0.14067 0.11858 0.46479 0.0
C40 C 0.0818 0.08755 0.44958 0.0
O41 O 0.06632 0.08343 0.46259 0.0
N42 N 0.11864 0.10569 0.48284 0.0
C43 C 0.1004 0.10798 0.50709 0.0
C44 C 0.11587 0.12395 0.49558 0.0
C45 C 0.1058 0.07804 0.48724 0.0
N46 N 0.09375 0.07919 0.5018 0.0
O47 O 0.16682 0.08166 0.46725 0.0
H48 H 0.12467 0.14753 0.49654 0.0
H49 H 0.10538 0.0574 0.47996 0.0
O50 O 0.10943 0.09953 0.44983 0.0
C51 C 0.18669 0.09188 0.47729 0.0
O52 O 0.1866 0.12189 0.48049 0.0
N53 N 0.11965 0.15609 0.46503 0.0
C54 C 0.09693 0.21193 0.47599 0.0
C55 C 0.0763 0.18949 0.47007 0.0
C56 C 0.08824 0.16121 0.46468 0.0
C57 C 0.13991 0.17895 0.46953 0.0
C58 C 0.12899 0.20719 0.47516 0.0
H59 H 0.0722 0.14298 0.46154 0.0
H60 H 0.16469 0.17423 0.47002 0.0
H61 H 0.12633 0.15641 0.43482 0.0
H62 H 0.22347 0.16324 0.42923 0.0
H63 H 0.09375 0.11714 0.51836 0.0
H64 H 0.05123 0.1928 0.47081 0.0
H65 H 0.14525 0.22423 0.47976 0.0
C66 C 0.14319 0.93933 0.69423 0.0
C67 C 0.12377 0.94553 0.68177 0.0
N68 N 0.11001 0.91864 0.67737 0.0
N69 N 0.1418 0.90858 0.69772 0.0
C70 C 0.12203 0.89663 0.68691 0.0
H71 H 0.15582 0.95666 0.70083 0.0
Co72 Co 0.15593 0.88642 0.71568 0.0
C73 C 0.18554 0.82699 0.70053 0.0
O74 O 0.18999 0.81222 0.7137 0.0
N75 N 0.16941 0.8647 0.73358 0.0
C76 C 0.16873 0.84348 0.75718 0.0
C77 C 0.15177 0.85989 0.74639 0.0
C78 C 0.1977 0.85265 0.73732 0.0
N79 N 0.19758 0.83851 0.7514 0.0
O80 O 0.19261 0.91275 0.71799 0.0
H81 H 0.12777 0.86733 0.74774 0.0
H82 H 0.21782 0.85349 0.72966 0.0
O83 O 0.17452 0.85502 0.70064 0.0
C84 C 0.1811 0.9326 0.72775 0.0
O85 O 0.15074 0.93235 0.73008 0.0
N86 N 0.11841 0.86513 0.71624 0.0
C87 C 0.06467 0.84242 0.72951 0.0
C88 C 0.08737 0.82166 0.72398 0.0
C89 C 0.11436 0.83359 0.71722 0.0
C90 C 0.09501 0.88528 0.7203 0.0
C91 C 0.06761 0.87431 0.72691 0.0
H92 H 0.1328 0.81761 0.71439 0.0
H93 H 0.09872 0.91022 0.71971 0.0
H94 H 0.11508 0.87232 0.68662 0.0
H95 H 0.11859 0.96841 0.67705 0.0
H96 H 0.15997 0.83461 0.76815 0.0
H97 H 0.08514 0.79669 0.72584 0.0
H98 H 0.05009 0.89064 0.73104 0.0
C99 C 0.31305 0.87121 0.93988 0.0
C100 C 0.30333 0.84935 0.92908 0.0
N101 N 0.32742 0.83013 0.92571 0.0
N102 N 0.34329 0.86612 0.94355 0.0
C103 C 0.35136 0.84133 0.93438 0.0
H104 H 0.29827 0.88867 0.94522 0.0
Co105 Co 0.36713 0.88302 0.96073 0.0
C106 C 0.3951 0.91719 0.93241 0.0
O107 O 0.3687 0.91783 0.92465 0.0
N108 N 0.39055 0.8981 0.97753 0.0
C109 C 0.40847 0.90193 1.00165 0.0
C110 C 0.38785 0.88672 0.99208 0.0
C111 C 0.41301 0.92039 0.97853 0.0
N112 N 0.42431 0.92325 0.99317 0.0
O113 O 0.33786 0.91726 0.96464 0.0
H114 H 0.37202 0.86823 0.99548 0.0
H115 H 0.42076 0.93443 0.9688 0.0
O116 O 0.39528 0.90608 0.94624 0.0
C117 C 0.31884 0.90515 0.97463 0.0
O118 O 0.31887 0.87459 0.9761 0.0
N119 N 0.39262 0.84894 0.96008 0.0
C120 C 0.43065 0.80403 0.9722 0.0
C121 C 0.44264 0.82514 0.96131 0.0
C122 C 0.42295 0.8478 0.95529 0.0
C123 C 0.37989 0.82579 0.96892 0.0
C124 C 0.39878 0.80293 0.97533 0.0
H125 H 0.43276 0.8655 0.94795 0.0
H126 H 0.35568 0.82719 0.97244 0.0
H127 H 0.37403 0.83029 0.93468 0.0
H128 H 0.27991 0.84736 0.92448 0.0
H129 H 0.4119 0.89714 1.01389 0.0
H130 H 0.46742 0.82596 0.9587 0.0
H131 H 0.38923 0.78661 0.98373 0.0
C132 C 0.38636 0.94689 0.34767 0.0
C133 C 0.40875 0.95316 0.35871 0.0
N134 N 0.42044 0.9259 0.36379 0.0
N135 N 0.38412 0.91565 0.34539 0.0
C136 C 0.40499 0.90359 0.35576 0.0
H137 H 0.37399 0.96455 0.34118 0.0
Co138 Co 0.36343 0.89509 0.32834 0.0
C139 C 0.33412 0.83699 0.34376 0.0
O140 O 0.33983 0.8209 0.33106 0.0
N141 N 0.3435 0.87574 0.31083 0.0
C142 C 0.33568 0.86406 0.28584 0.0
C143 C 0.35421 0.87976 0.29614 0.0
C144 C 0.31673 0.85905 0.3088 0.0
N145 N 0.31226 0.85057 0.29379 0.0
O146 O 0.33056 0.92691 0.32717 0.0
H147 H 0.37414 0.89373 0.29288 0.0
H148 H 0.3005 0.85339 0.31804 0.0
O149 O 0.34109 0.86645 0.34411 0.0
C150 C 0.34244 0.94535 0.31685 0.0
O151 O 0.37197 0.94135 0.31313 0.0
N152 N 0.39732 0.86786 0.32651 0.0
C153 C 0.42813 0.82284 0.30999 0.0
C154 C 0.41726 0.81628 0.32509 0.0
C155 C 0.40223 0.83966 0.33341 0.0
C156 C 0.41535 0.87657 0.31417 0.0
C157 C 0.43013 0.85394 0.30519 0.0
H158 H 0.39265 0.83415 0.34467 0.0
H159 H 0.41437 0.90029 0.30991 0.0
H160 H 0.41049 0.87909 0.35679 0.0
H161 H 0.41683 0.97605 0.36225 0.0
H162 H 0.33966 0.86203 0.27344 0.0
H163 H 0.41833 0.79291 0.32993 0.0
H164 H 0.44028 0.86034 0.29409 0.0
C165 C 0.3417 0.1557 0.58178 0.0
C166 C 0.33269 0.18245 0.58949 0.0
N167 N 0.33691 0.17828 0.60488 0.0
N168 N 0.35161 0.13416 0.5921 0.0
C169 C 0.34774 0.14848 0.60616 0.0
H170 H 0.34341 0.15321 0.5693 0.0
Co171 Co 0.37521 0.09804 0.5859 0.0
C172 C 0.376 0.06994 0.62082 0.0
O173 O 0.35108 0.06007 0.62831 0.0
N174 N 0.39871 0.06237 0.57949 0.0
C175 C 0.41911 0.0144 0.57848 0.0
C176 C 0.39965 0.03417 0.58658 0.0
C177 C 0.41705 0.05849 0.56672 0.0
N178 N 0.43017 0.02974 0.56596 0.0
O179 O 0.33681 0.07769 0.57863 0.0
H180 H 0.38673 0.02787 0.59691 0.0
H181 H 0.42073 0.07618 0.55798 0.0
O182 O 0.37208 0.08046 0.60697 0.0
C183 C 0.3337 0.08287 0.564 0.0
O184 O 0.35576 0.09864 0.55682 0.0
N185 N 0.41139 0.11978 0.59077 0.0
C186 C 0.42644 0.18209 0.59049 0.0
C187 C 0.42343 0.16658 0.60472 0.0
C188 C 0.41631 0.13471 0.60462 0.0
C189 C 0.42039 0.1334 0.57718 0.0
C190 C 0.42843 0.16464 0.5768 0.0
H191 H 0.40866 0.12462 0.61541 0.0
H192 H 0.41462 0.12281 0.56625 0.0
H193 H 0.35489 0.13812 0.61706 0.0
H194 H 0.32605 0.20424 0.584 0.0
H195 H 0.42419 0.99034 0.58145 0.0
H196 H 0.42266 0.17945 0.61556 0.0
H197 H 0.4319 0.1759 0.56562 0.0
C198 C 0.1021 0.07014 0.8298 0.0
C199 C 0.07672 0.06307 0.83899 0.0
N200 N 0.07872 0.07923 0.85244 0.0
N201 N 0.12058 0.09076 0.83721 0.0
C202 C 0.10591 0.09553 0.85109 0.0
H203 H 0.10558 0.06231 0.81798 0.0
Co204 Co 0.1537 0.11286 0.82721 0.0
C205 C 0.1704 0.16495 0.84837 0.0
O206 O 0.17096 0.1817 0.83558 0.0
N207 N 0.18732 0.1346 0.81729 0.0
C208 C 0.23615 0.15186 0.81433 0.0
C209 C 0.21706 0.13181 0.82239 0.0
C210 C 0.1892 0.15652 0.80587 0.0
N211 N 0.21858 0.16755 0.804 0.0
O212 O 0.18153 0.07678 0.82969 0.0
H213 H 0.22434 0.11703 0.83193 0.0
H214 H 0.16938 0.16602 0.79974 0.0
O215 O 0.16432 0.13538 0.84745 0.0
C216 C 0.178 0.0641 0.81618 0.0
O217 O 0.15858 0.07725 0.80639 0.0
N218 N 0.12484 0.14315 0.82171 0.0
C219 C 0.06529 0.15731 0.81164 0.0
C220 C 0.07446 0.16479 0.82685 0.0
C221 C 0.10457 0.15746 0.83172 0.0
C222 C 0.11682 0.13837 0.80654 0.0
C223 C 0.08721 0.14566 0.80118 0.0
H224 H 0.1099 0.15986 0.84392 0.0
H225 H 0.13231 0.12583 0.79886 0.0
H226 H 0.11412 0.11207 0.85963 0.0
H227 H 0.05729 0.04863 0.83542 0.0
H228 H 0.26094 0.15515 0.81617 0.0
H229 H 0.05791 0.17438 0.83513 0.0
H230 H 0.08079 0.13982 0.78935 0.0
C231 C 0.19554 0.84804 0.08432 0.0
C232 C 0.2031 0.82383 0.09422 0.0
N233 N 0.18126 0.82208 0.10551 0.0
N234 N 0.16905 0.862 0.08926 0.0
C235 C 0.16101 0.84558 0.10224 0.0
H236 H 0.20828 0.85433 0.07392 0.0
Co237 Co 0.14693 0.89493 0.07905 0.0
C238 C 0.09685 0.91391 0.10181 0.0
O239 O 0.07875 0.91802 0.08968 0.0
N240 N 0.12458 0.92845 0.06916 0.0
C241 C 0.10617 0.97701 0.06659 0.0
C242 C 0.12768 0.95838 0.07397 0.0
C243 C 0.10109 0.92984 0.0585 0.0
N244 N 0.08926 0.95903 0.05695 0.0
O245 O 0.18371 0.92273 0.08074 0.0
H246 H 0.1435 0.96604 0.08297 0.0
H247 H 0.09111 0.9098 0.05274 0.0
O248 O 0.12569 0.90583 0.09968 0.0
C249 C 0.19587 0.9185 0.06711 0.0
O250 O 0.18255 0.89836 0.05781 0.0
N251 N 0.11629 0.86655 0.07395 0.0
C252 C 0.08323 0.81833 0.06052 0.0
C253 C 0.07898 0.82542 0.07635 0.0
C254 C 0.09619 0.84965 0.08298 0.0
C255 C 0.12101 0.85892 0.05873 0.0
C256 C 0.10458 0.83517 0.05174 0.0
H257 H 0.09381 0.85405 0.09526 0.0
H258 H 0.1372 0.8718 0.05168 0.0
H259 H 0.14047 0.85041 0.10911 0.0
H260 H 0.2226 0.80795 0.09281 0.0
H261 H 0.10274 0.0018 0.06845 0.0
H262 H 0.0624 0.81257 0.08343 0.0
H263 H 0.10844 0.83012 0.03953 0.0
C264 C 0.62785 0.94647 0.84967 0.0
C265 C 0.60731 0.95559 0.86124 0.0
N266 N 0.59497 0.9299 0.86798 0.0
N267 N 0.62884 0.91498 0.84891 0.0
C268 C 0.60931 0.90573 0.86062 0.0
H269 H 0.63903 0.96208 0.84149 0.0
Co270 Co 0.64233 0.88936 0.83167 0.0
C271 C 0.68849 0.84491 0.84999 0.0
O272 O 0.71266 0.8456 0.8406 0.0
N273 N 0.65428 0.8641 0.81437 0.0
C274 C 0.64953 0.8378 0.79213 0.0
C275 C 0.63402 0.85465 0.80329 0.0
C276 C 0.68242 0.85372 0.80914 0.0
N277 N 0.68004 0.83706 0.79581 0.0
O278 O 0.67707 0.91717 0.82638 0.0
H279 H 0.6093 0.8597 0.80321 0.0
H280 H 0.70445 0.85955 0.81442 0.0
O281 O 0.66429 0.8615 0.8469 0.0
C282 C 0.66398 0.93385 0.8157 0.0
O283 O 0.63364 0.93098 0.81382 0.0
N284 N 0.60712 0.86562 0.83412 0.0
C285 C 0.55369 0.83377 0.82667 0.0
C286 C 0.57945 0.81752 0.83267 0.0
C287 C 0.60639 0.83406 0.83631 0.0
C288 C 0.58122 0.88188 0.82974 0.0
C289 C 0.55398 0.86632 0.82603 0.0
H290 H 0.6273 0.82122 0.83923 0.0
H291 H 0.58262 0.90681 0.8278 0.0
H292 H 0.60373 0.88148 0.86285 0.0
H293 H 0.60011 0.97941 0.86353 0.0
H294 H 0.63896 0.82638 0.78222 0.0
H295 H 0.57977 0.79221 0.83311 0.0
H296 H 0.53425 0.87932 0.82151 0.0
C297 C 0.81835 0.87541 0.59868 0.0
C298 C 0.81033 0.85138 0.60855 0.0
N299 N 0.83663 0.83781 0.61383 0.0
N300 N 0.84973 0.87678 0.59699 0.0
C301 C 0.86011 0.85446 0.60711 0.0
H302 H 0.802 0.89166 0.59357 0.0
Co303 Co 0.87169 0.90949 0.58592 0.0
C304 C 0.93652 0.8942 0.59857 0.0
O305 O 0.94619 0.88343 0.58512 0.0
N306 N 0.89226 0.94384 0.57642 0.0
C307 C 0.89708 0.99099 0.56578 0.0
C308 C 0.87765 0.97127 0.57393 0.0
C309 C 0.92105 0.94791 0.57004 0.0
N310 N 0.92451 0.97626 0.5632 0.0
O311 O 0.83552 0.91661 0.57162 0.0
H312 H 0.85383 0.97623 0.57736 0.0
H313 H 0.9386 0.92991 0.56973 0.0
O314 O 0.90832 0.90412 0.60009 0.0
C315 C 0.81967 0.89724 0.5634 0.0
O316 O 0.82373 0.86704 0.56536 0.0
N317 N 0.88777 0.88135 0.57034 0.0
C318 C 0.91816 0.84655 0.54759 0.0
C319 C 0.91133 0.83331 0.56209 0.0
C320 C 0.8962 0.85113 0.57332 0.0
C321 C 0.89 0.89234 0.55534 0.0
C322 C 0.9061 0.8758 0.54394 0.0
H323 H 0.89444 0.84125 0.58469 0.0
H324 H 0.88087 0.91498 0.55218 0.0
H325 H 0.88455 0.85066 0.60966 0.0
H326 H 0.78678 0.84527 0.61201 0.0
H327 H 0.89073 0.01397 0.56161 0.0
H328 H 0.92057 0.81065 0.56532 0.0
H329 H 0.91075 0.88655 0.53276 0.0
C330 C 0.908 0.0709 0.33581 0.0
C331 C 0.93263 0.06314 0.34532 0.0
N332 N 0.92919 0.07779 0.35914 0.0
N333 N 0.88843 0.09031 0.34338 0.0
C334 C 0.90163 0.09349 0.35771 0.0
H335 H 0.90559 0.06413 0.32376 0.0
Co336 Co 0.85576 0.113 0.33318 0.0
C337 C 0.82769 0.15458 0.35678 0.0
O338 O 0.82616 0.17529 0.34555 0.0
N339 N 0.82284 0.13517 0.32285 0.0
C340 C 0.77393 0.14855 0.31692 0.0
C341 C 0.79236 0.12849 0.32533 0.0
C342 C 0.82212 0.15966 0.31276 0.0
N343 N 0.79263 0.16828 0.30902 0.0
O344 O 0.83117 0.07467 0.33127 0.0
H345 H 0.7839 0.11063 0.33318 0.0
H346 H 0.84257 0.17153 0.3084 0.0
O347 O 0.83855 0.12701 0.35391 0.0
C348 C 0.83724 0.06687 0.3171 0.0
O349 O 0.85637 0.08452 0.30903 0.0
N350 N 0.88229 0.14704 0.33222 0.0
C351 C 0.94487 0.16047 0.32853 0.0
C352 C 0.9303 0.16539 0.34295 0.0
C353 C 0.89849 0.15911 0.3445 0.0
C354 C 0.89532 0.14618 0.31778 0.0
C355 C 0.92648 0.15327 0.31562 0.0
H356 H 0.88868 0.15946 0.35601 0.0
H357 H 0.88284 0.13588 0.30819 0.0
H358 H 0.89221 0.10875 0.36654 0.0
H359 H 0.9521 0.04859 0.34189 0.0
H360 H 0.74865 0.14912 0.31701 0.0
H361 H 0.94366 0.17151 0.35319 0.0
H362 H 0.93652 0.15081 0.3041 0.0
C363 C 0.65823 0.16879 0.07329 0.0
C364 C 0.66754 0.19413 0.08192 0.0
N365 N 0.66292 0.18786 0.09712 0.0
N366 N 0.6478 0.14604 0.08281 0.0
C367 C 0.65088 0.15841 0.09732 0.0
H368 H 0.6576 0.16782 0.06074 0.0
Co369 Co 0.6285 0.10907 0.07528 0.0
C370 C 0.62293 0.08161 0.11085 0.0
O371 O 0.64856 0.07259 0.11791 0.0
N372 N 0.60851 0.07278 0.06747 0.0
C373 C 0.572 0.03582 0.06609 0.0
C374 C 0.58699 0.05657 0.07559 0.0
C375 C 0.60531 0.06201 0.05268 0.0
N376 N 0.58349 0.03922 0.05167 0.0
O377 O 0.66926 0.0902 0.07134 0.0
H378 H 0.57945 0.06262 0.08703 0.0
H379 H 0.61663 0.07235 0.04267 0.0
O380 O 0.62506 0.09239 0.09691 0.0
C381 C 0.67676 0.09673 0.05724 0.0
O382 O 0.65759 0.11398 0.049 0.0
N383 N 0.59022 0.12781 0.07694 0.0
C384 C 0.52975 0.14921 0.07477 0.0
C385 C 0.54412 0.1468 0.08935 0.0
C386 C 0.57476 0.13601 0.0902 0.0
C387 C 0.57715 0.13198 0.06268 0.0
C388 C 0.54655 0.14205 0.06131 0.0
H389 H 0.58597 0.13453 0.10137 0.0
H390 H 0.59045 0.12665 0.0523 0.0
H391 H 0.64344 0.14649 0.10777 0.0
H392 H 0.67542 0.2162 0.07717 0.0
H393 H 0.55186 0.02174 0.06915 0.0
H394 H 0.53189 0.15354 0.09988 0.0
H395 H 0.53644 0.14513 0.04987 0.0
C396 C 0.57911 0.08284 0.71422 0.0
C397 C 0.55423 0.07287 0.70545 0.0
N398 N 0.5643 0.06722 0.69091 0.0
N399 N 0.60504 0.08462 0.70525 0.0
C400 C 0.59542 0.07336 0.69125 0.0
H401 H 0.57767 0.09061 0.72615 0.0
Co402 Co 0.64278 0.10557 0.71178 0.0
C403 C 0.63528 0.13456 0.67767 0.0
O404 O 0.60654 0.12599 0.67468 0.0
N405 N 0.6804 0.12639 0.71804 0.0
C406 C 0.72337 0.15568 0.71642 0.0
C407 C 0.70141 0.1394 0.7082 0.0
C408 C 0.69166 0.13383 0.73233 0.0
N409 N 0.71718 0.15258 0.7317 0.0
O410 O 0.66735 0.06766 0.70871 0.0
H411 H 0.70086 0.13814 0.69567 0.0
H412 H 0.68136 0.12589 0.74307 0.0
O413 O 0.64837 0.12653 0.69058 0.0
C414 C 0.66161 0.05502 0.72211 0.0
O415 O 0.64029 0.0679 0.73101 0.0
N416 N 0.61902 0.13896 0.71875 0.0
C417 C 0.57253 0.16932 0.73509 0.0
C418 C 0.57424 0.17219 0.71885 0.0
C419 C 0.59796 0.15672 0.7108 0.0
C420 C 0.61811 0.13757 0.7346 0.0
C421 C 0.59556 0.15321 0.74305 0.0
H422 H 0.59716 0.15674 0.69836 0.0
H423 H 0.63227 0.12109 0.74079 0.0
H424 H 0.61047 0.07156 0.68116 0.0
H425 H 0.53001 0.07237 0.70914 0.0
H426 H 0.74149 0.17001 0.71131 0.0
H427 H 0.55639 0.18467 0.71243 0.0
H428 H 0.59436 0.15009 0.75555 0.0
C429 C 0.67644 0.832 0.45814 0.0
C430 C 0.68314 0.80739 0.44844 0.0
N431 N 0.66387 0.80845 0.43606 0.0
N432 N 0.65292 0.84912 0.45215 0.0
C433 C 0.64556 0.834 0.43868 0.0
H434 H 0.68781 0.83662 0.4691 0.0
Co435 Co 0.63554 0.88476 0.46242 0.0
C436 C 0.60791 0.92244 0.43535 0.0
O437 O 0.61871 0.94956 0.43995 0.0
N438 N 0.61811 0.92076 0.47305 0.0
C439 C 0.61139 0.9697 0.48162 0.0
C440 C 0.62872 0.95053 0.47212 0.0
C441 C 0.59473 0.92273 0.48376 0.0
N442 N 0.58982 0.95219 0.48891 0.0
O443 O 0.67461 0.90723 0.4598 0.0
H444 H 0.64816 0.95817 0.46503 0.0
H445 H 0.58208 0.90295 0.48828 0.0
O446 O 0.61556 0.8975 0.44262 0.0
C447 C 0.6861 0.90286 0.47346 0.0
O448 O 0.67017 0.8859 0.48344 0.0
N449 N 0.60077 0.86183 0.46751 0.0
C450 C 0.55277 0.84295 0.48684 0.0
C451 C 0.54617 0.85788 0.47263 0.0
C452 C 0.57071 0.86734 0.46303 0.0
C453 C 0.60731 0.84426 0.4803 0.0
C454 C 0.58362 0.83482 0.49027 0.0
H455 H 0.56549 0.88159 0.453 0.0
H456 H 0.63129 0.84024 0.48363 0.0
H457 H 0.6271 0.84155 0.43098 0.0
H458 H 0.70053 0.7896 0.45067 0.0
H459 H 0.61434 0.99469 0.48294 0.0
H460 H 0.5224 0.86335 0.46927 0.0
H461 H 0.58962 0.8228 0.50094 0.0
C462 C 0.92248 0.91076 0.21554 0.0
C463 C 0.94761 0.91813 0.20625 0.0
N464 N 0.9486 0.89827 0.19405 0.0
N465 N 0.90685 0.88643 0.20941 0.0
C466 C 0.92337 0.87926 0.19628 0.0
H467 H 0.91624 0.92253 0.22622 0.0
Co468 Co 0.87099 0.86799 0.21905 0.0
C469 C 0.8453 0.85543 0.18482 0.0
O470 O 0.84308 0.88311 0.17829 0.0
N471 N 0.83502 0.84953 0.22826 0.0
C472 C 0.7851 0.83581 0.2308 0.0
C473 C 0.80613 0.85291 0.22223 0.0
C474 C 0.83069 0.83058 0.24076 0.0
N475 N 0.80054 0.82157 0.24245 0.0
O476 O 0.84914 0.908 0.21925 0.0
H477 H 0.80071 0.86657 0.212 0.0
H478 H 0.84904 0.82345 0.24856 0.0
O479 O 0.85522 0.85334 0.19879 0.0
C480 C 0.85271 0.91637 0.23353 0.0
O481 O 0.86995 0.89873 0.2426 0.0
N482 N 0.89264 0.83115 0.2216 0.0
C483 C 0.90797 0.77275 0.23288 0.0
C484 C 0.90012 0.77683 0.21716 0.0
C485 C 0.89336 0.80652 0.21162 0.0
C486 C 0.90393 0.82837 0.23632 0.0
C487 C 0.91134 0.79911 0.24235 0.0
H488 H 0.88831 0.80937 0.19947 0.0
H489 H 0.90436 0.84852 0.24389 0.0
H490 H 0.91728 0.8601 0.18867 0.0
H491 H 0.96369 0.93711 0.2084 0.0
H492 H 0.7605 0.83318 0.22823 0.0
H493 H 0.89968 0.75733 0.20914 0.0
H494 H 0.91881 0.79704 0.25433 0.0
C495 C 0.84327 0.17837 0.96573 0.0
C496 C 0.82885 0.2019 0.95757 0.0
N497 N 0.82697 0.19357 0.94247 0.0
N498 N 0.85131 0.15501 0.95599 0.0
C499 C 0.83944 0.16427 0.94203 0.0
H500 H 0.85036 0.17966 0.97778 0.0
Co501 Co 0.88148 0.12452 0.96265 0.0
C502 C 0.90221 0.1261 0.92713 0.0
O503 O 0.89343 0.15472 0.924 0.0
N504 N 0.91228 0.09449 0.96928 0.0
C505 C 0.9605 0.07495 0.97022 0.0
C506 C 0.94062 0.09406 0.96232 0.0
C507 C 0.91602 0.07542 0.98186 0.0
N508 N 0.94547 0.06359 0.98274 0.0
O509 O 0.84886 0.09295 0.96368 0.0
H510 H 0.94768 0.10937 0.95297 0.0
H511 H 0.8987 0.07264 0.99094 0.0
O512 O 0.89643 0.11419 0.94063 0.0
C513 C 0.84033 0.09692 0.97795 0.0
O514 O 0.85517 0.11785 0.9863 0.0
N515 N 0.91068 0.15663 0.96539 0.0
C516 C 0.93707 0.20976 0.97857 0.0
C517 C 0.92789 0.20976 0.96292 0.0
C518 C 0.91467 0.18284 0.95652 0.0
C519 C 0.92016 0.15651 0.98054 0.0
C520 C 0.93421 0.18225 0.98716 0.0
H521 H 0.90453 0.18478 0.94523 0.0
H522 H 0.91466 0.13725 0.98814 0.0
H523 H 0.84073 0.15031 0.93161 0.0
H524 H 0.82288 0.22458 0.96227 0.0
H525 H 0.98501 0.07152 0.96756 0.0
H526 H 0.92915 0.2308 0.95594 0.0
H527 H 0.94159 0.1808 0.99918 0.0
C528 C 0.92768 0.59261 0.71487 0.0
C529 C 0.95041 0.58349 0.7046 0.0
N530 N 0.93908 0.5857 0.69008 0.0
N531 N 0.90149 0.60129 0.70719 0.0
C532 C 0.90904 0.59552 0.69199 0.0
H533 H 0.93091 0.59319 0.72728 0.0
Co534 Co 0.86488 0.6199 0.71728 0.0
C535 C 0.8687 0.6572 0.68742 0.0
O536 O 0.89916 0.65865 0.6891 0.0
N537 N 0.82909 0.63808 0.72695 0.0
C538 C 0.7792 0.65119 0.73087 0.0
C539 C 0.79929 0.63209 0.72273 0.0
C540 C 0.82627 0.66123 0.73771 0.0
N541 N 0.79625 0.66976 0.74017 0.0
O542 O 0.84072 0.58171 0.71399 0.0
H543 H 0.79247 0.61568 0.7138 0.0
H544 H 0.84569 0.67229 0.74352 0.0
O545 O 0.85213 0.64194 0.69742 0.0
C546 C 0.84941 0.56392 0.72528 0.0
O547 O 0.87426 0.57195 0.73317 0.0
N548 N 0.88847 0.65343 0.72401 0.0
C549 C 0.92056 0.69508 0.74246 0.0
C550 C 0.9051 0.70571 0.72913 0.0
C551 C 0.8884 0.6844 0.72012 0.0
C552 C 0.9018 0.64374 0.73758 0.0
C553 C 0.91867 0.66395 0.74679 0.0
H554 H 0.87432 0.69326 0.71077 0.0
H555 H 0.89811 0.62033 0.74173 0.0
H556 H 0.89318 0.59941 0.6824 0.0
H557 H 0.97412 0.5772 0.70764 0.0
H558 H 0.75409 0.65241 0.72948 0.0
H559 H 0.906 0.73011 0.72575 0.0
H560 H 0.93002 0.65541 0.75722 0.0
C561 C 0.67284 0.67202 0.96241 0.0
C562 C 0.68223 0.69603 0.95291 0.0
N563 N 0.68338 0.68557 0.93819 0.0
N564 N 0.66734 0.64595 0.95396 0.0
C565 C 0.67555 0.65476 0.93922 0.0
H566 H 0.66874 0.6741 0.97477 0.0
Co567 Co 0.64786 0.60953 0.96359 0.0
C568 C 0.61205 0.60998 0.93159 0.0
O569 O 0.61909 0.63877 0.92781 0.0
N570 N 0.62826 0.57355 0.97308 0.0
C571 C 0.61953 0.52457 0.98108 0.0
C572 C 0.63958 0.544 0.97315 0.0
C573 C 0.60019 0.57072 0.98049 0.0
N574 N 0.59475 0.54143 0.98576 0.0
O575 O 0.68564 0.58458 0.96 0.0
H576 H 0.66086 0.53642 0.96755 0.0
H577 H 0.5839 0.58973 0.98218 0.0
O578 O 0.62287 0.59776 0.94423 0.0
C579 C 0.70085 0.59276 0.97235 0.0
O580 O 0.68972 0.61587 0.98069 0.0
N581 N 0.61665 0.63494 0.97108 0.0
C582 C 0.59341 0.68547 0.98732 0.0
C583 C 0.58666 0.68174 0.97143 0.0
C584 C 0.59844 0.65599 0.96346 0.0
C585 C 0.62185 0.63758 0.98671 0.0
C586 C 0.61013 0.6625 0.99511 0.0
H587 H 0.59459 0.6545 0.95119 0.0
H588 H 0.63685 0.62109 0.99259 0.0
H589 H 0.67498 0.63921 0.92931 0.0
H590 H 0.68596 0.72001 0.95648 0.0
H591 H 0.62275 0.49977 0.98303 0.0
H592 H 0.57306 0.69891 0.96513 0.0
H593 H 0.61531 0.6645 1.0074 0.0
C594 C 0.59388 0.42727 0.21328 0.0
C595 C 0.57044 0.43918 0.20405 0.0
N596 N 0.57538 0.43012 0.18921 0.0
N597 N 0.61379 0.41045 0.20445 0.0
C598 C 0.60275 0.41401 0.18972 0.0
H599 H 0.59411 0.4277 0.22585 0.0
Co600 Co 0.64095 0.37886 0.21256 0.0
C601 C 0.63814 0.34239 0.18205 0.0
O602 O 0.61333 0.32744 0.18692 0.0
N603 N 0.66885 0.34676 0.22002 0.0
C604 C 0.69066 0.29952 0.2218 0.0
C605 C 0.6694 0.31747 0.21408 0.0
C606 C 0.68996 0.34547 0.23184 0.0
N607 N 0.70362 0.31694 0.23302 0.0
O608 O 0.67467 0.40932 0.21345 0.0
H609 H 0.65394 0.30853 0.20535 0.0
H610 H 0.69464 0.36458 0.23973 0.0
O611 O 0.65115 0.36327 0.19072 0.0
C612 C 0.66965 0.41919 0.22743 0.0
O613 O 0.64764 0.40552 0.23566 0.0
N614 N 0.60556 0.35269 0.21599 0.0
C615 C 0.54956 0.33758 0.23134 0.0
C616 C 0.54936 0.34849 0.21596 0.0
C617 C 0.57745 0.35532 0.20845 0.0
C618 C 0.60581 0.34159 0.2309 0.0
C619 C 0.57859 0.33296 0.23847 0.0
H620 H 0.57586 0.36447 0.19684 0.0
H621 H 0.6267 0.34177 0.23784 0.0
H622 H 0.61243 0.40179 0.17985 0.0
H623 H 0.54961 0.45066 0.20835 0.0
H624 H 0.69479 0.27481 0.21996 0.0
H625 H 0.52783 0.35266 0.20974 0.0
H626 H 0.58075 0.32341 0.25007 0.0
C627 C 0.82362 0.33936 0.4642 0.0
C628 C 0.81326 0.31375 0.45607 0.0
N629 N 0.83005 0.31128 0.44288 0.0
N630 N 0.84754 0.35323 0.45655 0.0
C631 C 0.84977 0.33611 0.44321 0.0
H632 H 0.81462 0.34672 0.47536 0.0
Co633 Co 0.87023 0.38861 0.46516 0.0
C634 C 0.91105 0.38045 0.43681 0.0
O635 O 0.91622 0.35198 0.44196 0.0
N636 N 0.89142 0.42379 0.47345 0.0
C637 C 0.91091 0.47181 0.47516 0.0
C638 C 0.89329 0.45178 0.46628 0.0
C639 C 0.90769 0.42757 0.48684 0.0
N640 N 0.92023 0.45645 0.48801 0.0
O641 O 0.83341 0.4146 0.46263 0.0
H642 H 0.88293 0.4571 0.45512 0.0
H643 H 0.91091 0.4093 0.49541 0.0
O644 O 0.89115 0.39788 0.44412 0.0
C645 C 0.82409 0.41273 0.47692 0.0
O646 O 0.84023 0.39548 0.48668 0.0
N647 N 0.90286 0.36313 0.47177 0.0
C648 C 0.94407 0.33771 0.49319 0.0
C649 C 0.95491 0.35812 0.48157 0.0
C650 C 0.93381 0.371 0.47108 0.0
C651 C 0.89243 0.34254 0.48273 0.0
C652 C 0.91259 0.32945 0.49348 0.0
H653 H 0.94185 0.38932 0.46338 0.0
H654 H 0.86787 0.33839 0.48431 0.0
H655 H 0.86515 0.3415 0.43371 0.0
H656 H 0.79478 0.29812 0.45972 0.0
H657 H 0.91748 0.49547 0.47209 0.0
H658 H 0.97932 0.36466 0.48082 0.0
H659 H 0.90337 0.31394 0.50234 0.0
C660 C 0.89367 0.41939 0.83385 0.0
C661 C 0.9186 0.42434 0.84368 0.0
N662 N 0.91549 0.40524 0.85602 0.0
N663 N 0.87493 0.39703 0.83988 0.0
C664 C 0.88895 0.38893 0.85345 0.0
H665 H 0.89047 0.43028 0.82263 0.0
Co666 Co 0.84168 0.37671 0.82947 0.0
C667 C 0.79835 0.35362 0.85587 0.0
O668 O 0.77316 0.35224 0.84726 0.0
N669 N 0.80873 0.35612 0.81865 0.0
C670 C 0.76294 0.34588 0.8074 0.0
C671 C 0.77932 0.36678 0.81636 0.0
C672 C 0.80977 0.32919 0.81034 0.0
N673 N 0.78215 0.32211 0.80369 0.0
O674 O 0.82065 0.41675 0.82612 0.0
H675 H 0.77 0.38824 0.82113 0.0
H676 H 0.83062 0.31534 0.80865 0.0
O677 O 0.82325 0.36627 0.85034 0.0
C678 C 0.82827 0.42309 0.81195 0.0
O679 O 0.84694 0.40364 0.80461 0.0
N680 N 0.86393 0.33998 0.83021 0.0
C681 C 0.89669 0.28655 0.8232 0.0
C682 C 0.87214 0.28523 0.83389 0.0
C683 C 0.85591 0.31255 0.83735 0.0
C684 C 0.88833 0.34148 0.82008 0.0
C685 C 0.90529 0.31495 0.81647 0.0
H686 H 0.83574 0.31086 0.84475 0.0
H687 H 0.89371 0.36322 0.81425 0.0
H688 H 0.88118 0.36991 0.86077 0.0
H689 H 0.93799 0.44013 0.84173 0.0
H690 H 0.73866 0.34789 0.80405 0.0
H691 H 0.86531 0.26332 0.83923 0.0
H692 H 0.92439 0.31638 0.80819 0.0
C693 C 0.80795 0.62787 0.09943 0.0
C694 C 0.79961 0.64827 0.11118 0.0
N695 N 0.82571 0.65901 0.11822 0.0
N696 N 0.83931 0.62534 0.09884 0.0
C697 C 0.84925 0.64372 0.11079 0.0
H698 H 0.79206 0.61805 0.091 0.0
Co699 Co 0.86475 0.61269 0.08149 0.0
C700 C 0.91413 0.57055 0.09904 0.0
O701 O 0.92061 0.55073 0.08789 0.0
N702 N 0.88993 0.60159 0.06386 0.0
C703 C 0.91368 0.60835 0.04097 0.0
C704 C 0.89718 0.62257 0.05265 0.0
C705 C 0.90104 0.57411 0.05809 0.0
N706 N 0.91629 0.57781 0.04437 0.0
O707 O 0.83809 0.57711 0.07648 0.0
H708 H 0.89044 0.64686 0.05269 0.0
H709 H 0.8964 0.55155 0.06322 0.0
O710 O 0.89324 0.59165 0.09686 0.0
C711 C 0.82095 0.58964 0.06582 0.0
O712 O 0.82275 0.62006 0.06389 0.0
N713 N 0.88731 0.64873 0.08376 0.0
C714 C 0.91775 0.69998 0.07259 0.0
C715 C 0.93489 0.67568 0.07939 0.0
C716 C 0.91902 0.64978 0.08499 0.0
C717 C 0.87036 0.67424 0.07934 0.0
C718 C 0.88534 0.70055 0.07366 0.0
H719 H 0.93233 0.62932 0.08812 0.0
H720 H 0.84525 0.67259 0.07826 0.0
H721 H 0.87371 0.6481 0.11292 0.0
H722 H 0.77606 0.65631 0.11335 0.0
H723 H 0.92325 0.61977 0.03078 0.0
H724 H 0.96018 0.67512 0.07865 0.0
H725 H 0.87184 0.71923 0.06843 0.0
C726 C 0.61573 0.54117 0.34359 0.0
C727 C 0.59407 0.53211 0.35458 0.0
N728 N 0.58579 0.55729 0.36304 0.0
N729 N 0.62138 0.57211 0.34491 0.0
C730 C 0.60351 0.58089 0.35728 0.0
H731 H 0.62447 0.52637 0.33439 0.0
Co732 Co 0.63781 0.59813 0.32877 0.0
C733 C 0.65929 0.65726 0.34494 0.0
O734 O 0.65024 0.67284 0.33257 0.0
N735 N 0.65359 0.62324 0.31217 0.0
C736 C 0.65843 0.64396 0.2885 0.0
C737 C 0.64011 0.62591 0.29803 0.0
C738 C 0.68107 0.63892 0.31059 0.0
N739 N 0.68408 0.65248 0.29643 0.0
O740 O 0.6748 0.57183 0.32614 0.0
H741 H 0.6186 0.61489 0.29453 0.0
H742 H 0.69846 0.64055 0.31967 0.0
O743 O 0.65667 0.62714 0.34509 0.0
C744 C 0.6664 0.55457 0.31459 0.0
O745 O 0.63747 0.55675 0.30969 0.0
N746 N 0.60013 0.61988 0.32881 0.0
C747 C 0.54505 0.65047 0.32097 0.0
C748 C 0.56222 0.65911 0.33433 0.0
C749 C 0.58964 0.64356 0.338 0.0
C750 C 0.5807 0.60711 0.31808 0.0
C751 C 0.55332 0.62211 0.3138 0.0
H752 H 0.60197 0.65091 0.34823 0.0
H753 H 0.5874 0.586 0.31208 0.0
H754 H 0.60123 0.60474 0.36114 0.0
H755 H 0.58377 0.50909 0.35557 0.0
H756 H 0.65299 0.65077 0.27669 0.0
H757 H 0.55605 0.67817 0.34188 0.0
H758 H 0.53998 0.61161 0.30457 0.0
C759 C 0.68057 0.3551 0.58968 0.0
C760 C 0.68715 0.33087 0.59964 0.0
N761 N 0.66045 0.32142 0.60647 0.0
N762 N 0.64965 0.36159 0.58998 0.0
C763 C 0.63804 0.34042 0.60041 0.0
H764 H 0.69782 0.36698 0.58269 0.0
Co765 Co 0.62907 0.39407 0.57818 0.0
C766 C 0.60181 0.43913 0.60229 0.0
O767 O 0.60065 0.46278 0.59263 0.0
N768 N 0.60853 0.4265 0.56628 0.0
C769 C 0.60085 0.47176 0.55386 0.0
C770 C 0.62108 0.45472 0.5628 0.0
C771 C 0.58015 0.42744 0.55914 0.0
N772 N 0.57505 0.45457 0.55144 0.0
O773 O 0.66864 0.41646 0.57546 0.0
H774 H 0.64307 0.46348 0.56711 0.0
H775 H 0.56335 0.40873 0.55938 0.0
O776 O 0.61639 0.41405 0.59835 0.0
C777 C 0.67791 0.40735 0.56193 0.0
O778 O 0.66216 0.38502 0.55502 0.0
N779 N 0.59268 0.37098 0.57811 0.0
C780 C 0.53535 0.34701 0.56937 0.0
C781 C 0.53912 0.36118 0.58396 0.0
C782 C 0.56804 0.37308 0.58814 0.0
C783 C 0.59036 0.35438 0.56466 0.0
C784 C 0.56167 0.34262 0.55988 0.0
H785 H 0.57003 0.3843 0.59924 0.0
H786 H 0.61028 0.35271 0.55695 0.0
H787 H 0.61368 0.33915 0.6037 0.0
H788 H 0.70999 0.32064 0.60146 0.0
H789 H 0.60463 0.49543 0.54983 0.0
H790 H 0.51989 0.36315 0.59213 0.0
H791 H 0.55998 0.33125 0.54867 0.0
C792 C 0.06834 0.39618 0.3201 0.0
C793 C 0.04211 0.40495 0.32834 0.0
N794 N 0.05009 0.40951 0.34335 0.0
N795 N 0.09311 0.3948 0.32973 0.0
C796 C 0.08131 0.40374 0.34374 0.0
H797 H 0.06892 0.38952 0.30797 0.0
Co798 Co 0.13244 0.37745 0.32378 0.0
C799 C 0.14313 0.36094 0.36016 0.0
O800 O 0.14135 0.38766 0.36763 0.0
N801 N 0.17207 0.35943 0.318 0.0
C802 C 0.21854 0.33656 0.32103 0.0
C803 C 0.1957 0.35418 0.32807 0.0
C804 C 0.18216 0.34573 0.30461 0.0
N805 N 0.20998 0.33084 0.30623 0.0
O806 O 0.15252 0.41787 0.32627 0.0
H807 H 0.19623 0.36192 0.34002 0.0
H808 H 0.16904 0.34566 0.29393 0.0
O809 O 0.13972 0.36064 0.34533 0.0
C810 C 0.15081 0.42761 0.3121 0.0
O811 O 0.13717 0.4096 0.3018 0.0
N812 N 0.11272 0.34085 0.3186 0.0
C813 C 0.09897 0.28204 0.30804 0.0
C814 C 0.09496 0.28946 0.32382 0.0
C815 C 0.1009 0.31969 0.3288 0.0
C816 C 0.11144 0.33552 0.30299 0.0
C817 C 0.10526 0.30575 0.29737 0.0
H818 H 0.097 0.32573 0.34083 0.0
H819 H 0.1172 0.35399 0.29492 0.0
H820 H 0.09481 0.40439 0.35424 0.0
H821 H 0.01874 0.40664 0.32365 0.0
H822 H 0.23969 0.32836 0.32657 0.0
H823 H 0.08753 0.27209 0.3322 0.0
H824 H 0.10624 0.30113 0.28499 0.0
C825 C 0.32848 0.34847 0.08373 0.0
C826 C 0.32185 0.32386 0.09349 0.0
N827 N 0.33756 0.32777 0.10692 0.0
N828 N 0.34832 0.36838 0.09079 0.0
C829 C 0.35319 0.35521 0.10502 0.0
H830 H 0.32075 0.35052 0.07182 0.0
Co831 Co 0.36902 0.40193 0.08016 0.0
C832 C 0.42051 0.42154 0.10064 0.0
O833 O 0.43739 0.42115 0.08787 0.0
N834 N 0.38935 0.43603 0.06959 0.0
C835 C 0.40381 0.48542 0.06524 0.0
C836 C 0.38493 0.46611 0.0739 0.0
C837 C 0.41126 0.43794 0.05812 0.0
N838 N 0.42049 0.46768 0.05534 0.0
O839 O 0.33223 0.42825 0.08289 0.0
H840 H 0.36965 0.47363 0.08321 0.0
H841 H 0.42197 0.41803 0.05255 0.0
O842 O 0.39124 0.41446 0.09993 0.0
C843 C 0.31926 0.4227 0.06967 0.0
O844 O 0.33305 0.40323 0.06011 0.0
N845 N 0.40015 0.37405 0.07462 0.0
C846 C 0.40284 0.31194 0.06625 0.0
C847 C 0.41396 0.32156 0.08085 0.0
C848 C 0.41285 0.35313 0.0848 0.0
C849 C 0.39366 0.36542 0.0597 0.0
C850 C 0.39469 0.33437 0.05526 0.0
H851 H 0.41748 0.35957 0.09671 0.0
H852 H 0.38295 0.38169 0.05176 0.0
H853 H 0.36915 0.3647 0.11352 0.0
H854 H 0.30796 0.30363 0.09047 0.0
H855 H 0.40544 0.51057 0.06633 0.0
H856 H 0.4216 0.30469 0.08945 0.0
H857 H 0.38656 0.32779 0.04379 0.0
C858 C 0.3968 0.55481 0.84198 0.0
C859 C 0.42065 0.5481 0.85215 0.0
N860 N 0.42786 0.57408 0.86031 0.0
N861 N 0.38839 0.58501 0.84347 0.0
C862 C 0.40786 0.59618 0.8547 0.0
H863 H 0.38685 0.53856 0.83377 0.0
Co864 Co 0.35792 0.60644 0.83111 0.0
C865 C 0.33618 0.62649 0.86429 0.0
O866 O 0.34171 0.60007 0.87157 0.0
N867 N 0.32735 0.62818 0.81945 0.0
C868 C 0.27991 0.64612 0.81388 0.0
C869 C 0.29676 0.62645 0.82321 0.0
C870 C 0.32846 0.64934 0.80768 0.0
N871 N 0.29978 0.66071 0.80414 0.0
O872 O 0.33007 0.57011 0.83096 0.0
H873 H 0.28734 0.61254 0.83262 0.0
H874 H 0.34978 0.65687 0.80206 0.0
O875 O 0.34116 0.6282 0.84965 0.0
C876 C 0.33718 0.55954 0.81731 0.0
O877 O 0.36053 0.57259 0.80984 0.0
N878 N 0.38569 0.63816 0.82786 0.0
C879 C 0.41343 0.68341 0.8096 0.0
C880 C 0.3968 0.69176 0.82315 0.0
C881 C 0.38267 0.66863 0.83208 0.0
C882 C 0.40501 0.62947 0.81605 0.0
C883 C 0.41851 0.65173 0.80648 0.0
H884 H 0.36776 0.67545 0.84155 0.0
H885 H 0.40751 0.6051 0.81307 0.0
H886 H 0.40744 0.62024 0.85855 0.0
H887 H 0.4323 0.52574 0.853 0.0
H888 H 0.25505 0.65054 0.81476 0.0
H889 H 0.39382 0.71592 0.82659 0.0
H890 H 0.43148 0.64401 0.79636 0.0
C891 C 0.19051 0.63739 0.59393 0.0
C892 C 0.20062 0.65732 0.60545 0.0
N893 N 0.17551 0.66976 0.61263 0.0
N894 N 0.15897 0.63698 0.59367 0.0
C895 C 0.15059 0.65651 0.60549 0.0
H896 H 0.20551 0.6255 0.58574 0.0
Co897 Co 0.13295 0.6208 0.57747 0.0
C898 C 0.08012 0.58595 0.59519 0.0
O899 O 0.06343 0.58179 0.58261 0.0
N900 N 0.10774 0.60553 0.56104 0.0
C901 C 0.08122 0.60456 0.5388 0.0
C902 C 0.09725 0.6231 0.54908 0.0
C903 C 0.09899 0.57597 0.55729 0.0
N904 N 0.08197 0.57499 0.54408 0.0
O905 O 0.16161 0.58598 0.57342 0.0
H906 H 0.10094 0.64795 0.54783 0.0
H907 H 0.10428 0.55567 0.56434 0.0
O908 O 0.10708 0.59934 0.59423 0.0
C909 C 0.17733 0.59671 0.56175 0.0
O910 O 0.17255 0.62585 0.55755 0.0
N911 N 0.10864 0.65662 0.57873 0.0
C912 C 0.0782 0.71132 0.57074 0.0
C913 C 0.06177 0.68687 0.57794 0.0
C914 C 0.0775 0.65946 0.58184 0.0
C915 C 0.12524 0.68115 0.57286 0.0
C916 C 0.1105 0.70884 0.56884 0.0
H917 H 0.06404 0.64026 0.58623 0.0
H918 H 0.14982 0.67839 0.57028 0.0
H919 H 0.12662 0.66286 0.60801 0.0
H920 H 0.22472 0.66303 0.60795 0.0
H921 H 0.06899 0.61238 0.5285 0.0
H922 H 0.03665 0.68795 0.57944 0.0
H923 H 0.12392 0.72741 0.56346 0.0
C924 C 0.08932 0.59637 0.21141 0.0
C925 C 0.0644 0.58497 0.203 0.0
N926 N 0.07129 0.58669 0.18771 0.0
N927 N 0.11225 0.60539 0.20164 0.0
C928 C 0.10096 0.59803 0.18727 0.0
H929 H 0.0896 0.6002 0.22384 0.0
Co930 Co 0.14695 0.63058 0.20814 0.0
C931 C 0.17792 0.63005 0.17419 0.0
O932 O 0.19147 0.60698 0.16667 0.0
N933 N 0.18176 0.65522 0.21498 0.0
C934 C 0.22894 0.67719 0.21672 0.0
C935 C 0.20985 0.65847 0.20791 0.0
C936 C 0.18521 0.67136 0.22849 0.0
N937 N 0.21341 0.68541 0.22971 0.0
O938 O 0.16631 0.5936 0.21758 0.0
H939 H 0.21664 0.64786 0.19705 0.0
H940 H 0.16787 0.67208 0.23763 0.0
O941 O 0.16744 0.62407 0.18791 0.0
C942 C 0.16029 0.59337 0.23223 0.0
O943 O 0.14365 0.61641 0.23801 0.0
N944 N 0.12571 0.66627 0.20103 0.0
C945 C 0.06287 0.67802 0.20203 0.0
C946 C 0.07691 0.67137 0.18775 0.0
C947 C 0.10922 0.66651 0.1874 0.0
C948 C 0.11329 0.68021 0.21387 0.0
C949 C 0.08154 0.68606 0.21468 0.0
H950 H 0.11876 0.65646 0.17698 0.0
H951 H 0.12561 0.68035 0.22467 0.0
H952 H 0.11333 0.60303 0.17658 0.0
H953 H 0.0419 0.5785 0.2078 0.0
H954 H 0.25237 0.68447 0.21364 0.0
H955 H 0.06292 0.66605 0.17761 0.0
H956 H 0.07121 0.69246 0.22576 0.0
C957 C 0.18657 0.36657 0.94763 0.0
C958 C 0.19423 0.34101 0.93866 0.0
N959 N 0.1678 0.32857 0.93293 0.0
N960 N 0.15518 0.36997 0.94835 0.0
C961 C 0.14465 0.34718 0.93852 0.0
H962 H 0.20331 0.38232 0.95278 0.0
Co963 Co 0.13274 0.40398 0.95838 0.0
C964 C 0.06883 0.38706 0.9447 0.0
O965 O 0.05701 0.3766 0.9578 0.0
N966 N 0.11111 0.43868 0.96689 0.0
C967 C 0.10385 0.48731 0.97519 0.0
C968 C 0.1237 0.46747 0.96737 0.0
C969 C 0.08299 0.44189 0.97413 0.0
N970 N 0.07828 0.47116 0.97972 0.0
O971 O 0.16869 0.41347 0.9726 0.0
H972 H 0.14639 0.47344 0.96266 0.0
H973 H 0.06722 0.42261 0.97615 0.0
O974 O 0.09702 0.39711 0.94412 0.0
C975 C 0.18491 0.396 0.98169 0.0
O976 O 0.18145 0.36549 0.98112 0.0
N977 N 0.11677 0.37731 0.97453 0.0
C978 C 0.09098 0.34277 0.99885 0.0
C979 C 0.09512 0.32938 0.98411 0.0
C980 C 0.10774 0.34713 0.97209 0.0
C981 C 0.11617 0.38904 0.98943 0.0
C982 C 0.10277 0.37249 1.00163 0.0
H983 H 0.10783 0.33702 0.96071 0.0
H984 H 0.12495 0.41212 0.99198 0.0
H985 H 0.12035 0.3442 0.93542 0.0
H986 H 0.21765 0.33299 0.93603 0.0
H987 H 0.10835 0.51175 0.97747 0.0
H988 H 0.08615 0.30635 0.98148 0.0
H989 H 0.10004 0.38351 1.0129 0.0
C990 C 0.41338 0.43197 0.71039 0.0
C991 C 0.43835 0.44173 0.70159 0.0
N992 N 0.43531 0.43036 0.68707 0.0
N993 N 0.39453 0.41323 0.70193 0.0
C994 C 0.40776 0.41451 0.68746 0.0
H995 H 0.41 0.43757 0.72253 0.0
Co996 Co 0.35916 0.39085 0.71114 0.0
C997 C 0.36349 0.3551 0.68106 0.0
O998 O 0.39322 0.3509 0.68425 0.0
N999 N 0.32448 0.37024 0.72002 0.0
C1000 C 0.27571 0.35366 0.72362 0.0
C1001 C 0.29501 0.37178 0.7145 0.0
C1002 C 0.32246 0.35133 0.73262 0.0
N1003 N 0.29316 0.34065 0.73487 0.0
O1004 O 0.33423 0.42897 0.71079 0.0
H1005 H 0.28812 0.38487 0.7043 0.0
H1006 H 0.34217 0.34487 0.73981 0.0
O1007 O 0.34654 0.37246 0.6901 0.0
C1008 C 0.33866 0.437 0.72513 0.0
O1009 O 0.35774 0.42008 0.73361 0.0
N1010 N 0.38362 0.35614 0.71548 0.0
C1011 C 0.41452 0.30907 0.73099 0.0
C1012 C 0.39099 0.30152 0.72044 0.0
C1013 C 0.37525 0.32565 0.71293 0.0
C1014 C 0.40591 0.36325 0.72619 0.0
C1015 C 0.42208 0.34007 0.73388 0.0
H1016 H 0.35518 0.31994 0.70589 0.0
H1017 H 0.40983 0.38692 0.72976 0.0
H1018 H 0.39729 0.40472 0.6772 0.0
H1019 H 0.45774 0.45532 0.70592 0.0
H1020 H 0.25109 0.34928 0.72175 0.0
H1021 H 0.38475 0.2774 0.71818 0.0
H1022 H 0.44008 0.34628 0.74217 0.0
C1023 C 0.3157 0.66362 0.45711 0.0
C1024 C 0.30524 0.68596 0.44681 0.0
N1025 N 0.31827 0.68073 0.43275 0.0
N1026 N 0.33541 0.64389 0.44978 0.0
C1027 C 0.33547 0.65424 0.43476 0.0
H1028 H 0.31171 0.66394 0.46952 0.0
Co1029 Co 0.36475 0.61765 0.46066 0.0
C1030 C 0.40793 0.61212 0.43233 0.0
O1031 O 0.42323 0.63713 0.43654 0.0
N1032 N 0.39476 0.59091 0.47087 0.0
C1033 C 0.44129 0.56945 0.47584 0.0
C1034 C 0.42565 0.59148 0.46739 0.0
C1035 C 0.39258 0.56832 0.482 0.0
N1036 N 0.42058 0.55485 0.48498 0.0
O1037 O 0.33327 0.58462 0.46214 0.0
H1038 H 0.43683 0.60778 0.45967 0.0
H1039 H 0.37122 0.56195 0.48791 0.0
O1040 O 0.3842 0.60245 0.44033 0.0
C1041 C 0.32133 0.59205 0.47547 0.0
O1042 O 0.33387 0.61545 0.48312 0.0
N1043 N 0.39097 0.65281 0.46335 0.0
C1044 C 0.40621 0.71117 0.47566 0.0
C1045 C 0.39964 0.70785 0.45981 0.0
C1046 C 0.39229 0.67857 0.45389 0.0
C1047 C 0.39768 0.65602 0.47882 0.0
C1048 C 0.40618 0.68459 0.48507 0.0
H1049 H 0.38628 0.67748 0.44179 0.0
H1050 H 0.39401 0.63706 0.48688 0.0
H1051 H 0.35081 0.64485 0.42591 0.0
H1052 H 0.29159 0.70633 0.44992 0.0
H1053 H 0.46625 0.56524 0.47575 0.0
H1054 H 0.39902 0.7278 0.45206 0.0
H1055 H 0.41169 0.68583 0.49735 0.0
C1056 C 0.28028 0.19531 0.25238 0.0
C1057 C 0.31128 0.20211 0.24842 0.0
C1058 C 0.26118 0.218 0.25962 0.0
C1059 C 0.27333 0.24824 0.26278 0.0
C1060 C 0.30378 0.25585 0.25747 0.0
C1061 C 0.32245 0.23261 0.25056 0.0
C1062 C 0.22889 0.20882 0.265 0.0
C1063 C 0.3176 0.28786 0.26013 0.0
C1064 C 0.21995 0.31261 0.27909 0.0
C1065 C 0.22585 0.31056 0.29515 0.0
C1066 C 0.23508 0.29265 0.26835 0.0
C1067 C 0.25658 0.26987 0.27375 0.0
C1068 C 0.2627 0.26778 0.2899 0.0
C1069 C 0.24729 0.2879 0.30033 0.0
C1070 C 0.22805 0.29601 0.25124 0.0
C1071 C 0.2857 0.24418 0.29623 0.0
H1072 H 0.27175 0.17168 0.25078 0.0
H1073 H 0.34643 0.23785 0.24739 0.0
H1074 H 0.22871 0.20666 0.27786 0.0
H1075 H 0.21164 0.2271 0.26184 0.0
H1076 H 0.22132 0.18618 0.25993 0.0
H1077 H 0.33885 0.29176 0.25292 0.0
H1078 H 0.3003 0.3064 0.25744 0.0
H1079 H 0.32414 0.29031 0.27255 0.0
H1080 H 0.20375 0.33005 0.27483 0.0
H1081 H 0.25183 0.28541 0.31263 0.0
H1082 H 0.21611 0.27466 0.24701 0.0
H1083 H 0.25006 0.29844 0.2445 0.0
H1084 H 0.21289 0.31651 0.24878 0.0
H1085 H 0.2788 0.22024 0.29267 0.0
H1086 H 0.28731 0.24491 0.30912 0.0
H1087 H 0.30928 0.2487 0.29133 0.0
C1088 C 0.97422 0.96728 0.54861 0.0
C1089 C 0.95078 0.98769 0.55406 0.0
C1090 C 0.99946 0.97826 0.53957 0.0
C1091 C 0.0013 0.01037 0.53566 0.0
C1092 C 0.97768 0.03101 0.54095 0.0
C1093 C 0.95306 0.01955 0.55017 0.0
C1094 C 0.02433 0.95553 0.53432 0.0
C1095 C 0.97846 0.0654 0.53694 0.0
C1096 C 0.07674 0.05284 0.5258 0.0
C1097 C 0.07415 0.05675 0.50967 0.0
C1098 C 0.05429 0.03592 0.53427 0.0
C1099 C 0.02823 0.02298 0.52646 0.0
C1100 C 0.02646 0.02529 0.51001 0.0
C1101 C 0.0496 0.04198 0.5018 0.0
C1102 C 0.05756 0.03357 0.55171 0.0
C1103 C 0.99901 0.01205 0.50122 0.0
H1104 H 0.97289 0.9426 0.55124 0.0
H1105 H 0.93569 0.03585 0.55438 0.0
H1106 H 0.02727 0.95669 0.52151 0.0
H1107 H 0.04709 0.962 0.53958 0.0
H1108 H 0.01874 0.93107 0.53764 0.0
H1109 H 0.9576 0.07811 0.54135 0.0
H1110 H 0.99965 0.07633 0.54196 0.0
H1111 H 0.97972 0.06848 0.52413 0.0
H1112 H 0.09587 0.06405 0.53186 0.0
H1113 H 0.04738 0.04523 0.48935 0.0
H1114 H 0.05364 0.00917 0.55563 0.0
H1115 H 0.03958 0.04841 0.55739 0.0
H1116 H 0.08095 0.04132 0.55574 0.0
H1117 H 0.99424 0.98767 0.50493 0.0
H1118 H 0.00291 0.01237 0.48844 0.0
H1119 H 0.97781 0.02604 0.50387 0.0
C1120 C 0.26173 0.6862 0.78689 0.0
C1121 C 0.29146 0.68582 0.7937 0.0
C1122 C 0.25081 0.71245 0.77879 0.0
C1123 C 0.27018 0.73912 0.77732 0.0
C1124 C 0.30103 0.73822 0.7833 0.0
C1125 C 0.31131 0.71156 0.79148 0.0
C1126 C 0.21786 0.71215 0.77252 0.0
C1127 C 0.32258 0.76596 0.78182 0.0
C1128 C 0.23888 0.79837 0.74821 0.0
C1129 C 0.22065 0.81759 0.75789 0.0
C1130 C 0.25694 0.77386 0.75444 0.0
C1131 C 0.25678 0.76851 0.77071 0.0
C1132 C 0.24022 0.78927 0.78057 0.0
C1133 C 0.22243 0.81351 0.77404 0.0
C1134 C 0.27451 0.75248 0.74354 0.0
C1135 C 0.23954 0.78467 0.79798 0.0
H1136 H 0.24656 0.66613 0.78831 0.0
H1137 H 0.33426 0.71151 0.79678 0.0
H1138 H 0.20348 0.72965 0.77883 0.0
H1139 H 0.21781 0.71875 0.76004 0.0
H1140 H 0.20656 0.6889 0.77376 0.0
H1141 H 0.34726 0.75953 0.7842 0.0
H1142 H 0.32115 0.77635 0.77001 0.0
H1143 H 0.31541 0.78421 0.79027 0.0
H1144 H 0.23761 0.80125 0.73572 0.0
H1145 H 0.20887 0.82863 0.78158 0.0
H1146 H 0.26223 0.72969 0.74281 0.0
H1147 H 0.29839 0.74783 0.74799 0.0
H1148 H 0.27632 0.76242 0.73163 0.0
H1149 H 0.22637 0.76304 0.8008 0.0
H1150 H 0.22827 0.80458 0.80411 0.0
H1151 H 0.26359 0.78174 0.80253 0.0
C1152 C 0.44857 0.95289 1.0146 0.0
C1153 C 0.44836 0.9441 0.99887 0.0
C1154 C 0.47285 0.97095 1.02083 0.0
C1155 C 0.49769 0.98094 1.01111 0.0
C1156 C 0.49709 0.97333 0.99506 0.0
C1157 C 0.47246 0.95494 0.98912 0.0
C1158 C 0.47228 0.97858 0.03799 0.0
C1159 C 0.52291 0.98385 0.98429 0.0
C1160 C 0.54578 0.04471 0.03041 0.0
C1161 C 0.56841 0.02686 0.03812 0.0
C1162 C 0.52394 0.03048 1.02044 0.0
C1163 C 0.52487 0.99764 1.01819 0.0
C1164 C 0.54943 0.98007 0.02499 0.0
C1165 C 0.57066 0.99488 0.035 0.0
C1166 C 0.49826 0.05019 1.01349 0.0
C1167 C 0.55162 0.94512 0.02285 0.0
H1168 H 0.42973 0.94541 0.02215 0.0
H1169 H 0.47262 0.94828 0.97697 0.0
H1170 H 0.49279 0.96783 0.04379 0.0
H1171 H 0.47388 0.00422 0.03973 0.0
H1172 H 0.45075 0.96999 0.04384 0.0
H1173 H 0.51771 0.97849 0.97192 0.0
H1174 H 0.5268 0.00938 0.98548 0.0
H1175 H 0.54507 0.97205 0.98752 0.0
H1176 H 0.54368 0.06935 0.03317 0.0
H1177 H 0.58785 0.98116 0.04125 0.0
H1178 H 0.47627 0.04627 1.02007 0.0
H1179 H 0.49391 0.04346 1.00123 0.0
H1180 H 0.50391 0.07552 1.01395 0.0
H1181 H 0.53252 0.9336 0.02946 0.0
H1182 H 0.5743 0.93568 0.02702 0.0
H1183 H 0.54874 0.93882 1.01042 0.0
C1184 C 0.2565 0.70985 0.24451 0.0
C1185 C 0.22435 0.7062 0.24183 0.0
C1186 C 0.26778 0.73241 0.25495 0.0
C1187 C 0.24646 0.75192 0.26303 0.0
C1188 C 0.21393 0.74721 0.26106 0.0
C1189 C 0.20327 0.72448 0.25048 0.0
C1190 C 0.30267 0.73633 0.25676 0.0
C1191 C 0.1904 0.76718 0.26959 0.0
C1192 C 0.283 0.80071 0.29543 0.0
C1193 C 0.29044 0.82831 0.2874 0.0
C1194 C 0.26709 0.77609 0.28794 0.0
C1195 C 0.25849 0.77922 0.27209 0.0
C1196 C 0.2642 0.80787 0.26432 0.0
C1197 C 0.28 0.83197 0.27206 0.0
C1198 C 0.26121 0.74609 0.29672 0.0
C1199 C 0.25537 0.81245 0.24747 0.0
H1200 H 0.27298 0.69538 0.23821 0.0
H1201 H 0.17841 0.72199 0.2485 0.0
H1202 H 0.30986 0.75942 0.25208 0.0
H1203 H 0.30914 0.73581 0.26925 0.0
H1204 H 0.31606 0.71786 0.25058 0.0
H1205 H 0.16624 0.75798 0.26843 0.0
H1206 H 0.19633 0.76865 0.28212 0.0
H1207 H 0.19098 0.7913 0.26485 0.0
H1208 H 0.29124 0.79763 0.30724 0.0
H1209 H 0.28539 0.8534 0.2659 0.0
H1210 H 0.27767 0.72785 0.29256 0.0
H1211 H 0.23717 0.73744 0.29455 0.0
H1212 H 0.26452 0.74904 0.30945 0.0
H1213 H 0.26963 0.79668 0.24005 0.0
H1214 H 0.25915 0.83689 0.24351 0.0
H1215 H 0.23048 0.80629 0.24563 0.0
C1216 C 0.57187 0.98904 0.50925 0.0
C1217 C 0.56629 0.96289 0.4998 0.0
C1218 C 0.54908 1.0001 0.5197 0.0
C1219 C 0.51978 0.98482 0.52071 0.0
C1220 C 0.51382 0.95865 0.51105 0.0
C1221 C 0.53723 0.94783 0.50085 0.0
C1222 C 0.55649 0.02802 0.52977 0.0
C1223 C 0.48301 0.94155 0.5116 0.0
C1224 C 0.47363 0.99459 0.55837 0.0
C1225 C 0.45201 0.01802 0.55444 0.0
C1226 C 0.49544 0.98334 0.54746 0.0
C1227 C 0.49586 0.99579 0.53221 0.0
C1228 C 0.47382 0.01908 0.52806 0.0
C1229 C 0.45226 0.02996 0.53922 0.0
C1230 C 0.51826 0.95825 0.55231 0.0
C1231 C 0.47292 0.03235 0.5118 0.0
H1232 H 0.59432 1.00064 0.50864 0.0
H1233 H 0.53255 0.92788 0.49347 0.0
H1234 H 0.53898 0.04675 0.52782 0.0
H1235 H 0.55511 0.02131 0.54222 0.0
H1236 H 0.58013 0.03764 0.52739 0.0
H1237 H 0.47828 0.92933 0.50046 0.0
H1238 H 0.48388 0.92379 0.52101 0.0
H1239 H 0.46319 0.95753 0.51407 0.0
H1240 H 0.47394 0.98539 0.5701 0.0
H1241 H 0.43534 0.04759 0.53594 0.0
H1242 H 0.54256 0.96685 0.55089 0.0
H1243 H 0.51561 0.93749 0.54469 0.0
H1244 H 0.51485 0.95084 0.56459 0.0
H1245 H 0.49566 0.04343 0.50895 0.0
H1246 H 0.45409 0.04999 0.51033 0.0
H1247 H 0.46919 0.01322 0.50328 0.0
C1248 C 0.25227 0.21335 0.79924 0.0
C1249 C 0.2287 0.19298 0.79419 0.0
C1250 C 0.2627 0.23805 0.78983 0.0
C1251 C 0.24954 0.2423 0.77489 0.0
C1252 C 0.22563 0.22188 0.76973 0.0
C1253 C 0.21531 0.19761 0.77951 0.0
C1254 C 0.28776 0.25967 0.7959 0.0
C1255 C 0.21135 0.22535 0.75379 0.0
C1256 C 0.25703 0.32137 0.75493 0.0
C1257 C 0.28323 0.31668 0.74546 0.0
C1258 C 0.24607 0.29753 0.76478 0.0
C1259 C 0.26107 0.26798 0.76466 0.0
C1260 C 0.28745 0.26312 0.75495 0.0
C1261 C 0.29852 0.28775 0.74564 0.0
C1262 C 0.21859 0.30401 0.77534 0.0
C1263 C 0.30363 0.23177 0.75418 0.0
H1264 H 0.26228 0.21022 0.8107 0.0
H1265 H 0.19724 0.18179 0.77556 0.0
H1266 H 0.30871 0.25847 0.7883 0.0
H1267 H 0.2793 0.28419 0.79567 0.0
H1268 H 0.29487 0.25378 0.80797 0.0
H1269 H 0.19315 0.20743 0.75149 0.0
H1270 H 0.20065 0.24884 0.75255 0.0
H1271 H 0.22982 0.22335 0.74476 0.0
H1272 H 0.24537 0.34386 0.7547 0.0
H1273 H 0.31853 0.2842 0.73808 0.0
H1274 H 0.22516 0.29941 0.78761 0.0
H1275 H 0.19898 0.2881 0.77247 0.0
H1276 H 0.21022 0.32853 0.77438 0.0
H1277 H 0.31295 0.22545 0.76579 0.0
H1278 H 0.32321 0.2316 0.74567 0.0
H1279 H 0.2866 0.2134 0.75087 0.0
C1280 C 0.05795 0.95736 0.03279 0.0
C1281 C 0.06276 0.96904 0.04782 0.0
C1282 C 0.03457 0.96998 0.02311 0.0
C1283 C 0.0152 0.9945 0.02869 0.0
C1284 C 0.01848 0.00463 0.04428 0.0
C1285 C 0.04235 0.99201 0.05358 0.0
C1286 C 0.0321 0.95858 1.00655 0.0
C1287 C 0.99801 0.03018 0.05087 0.0
C1288 C 0.99164 0.0563 0.99931 0.0
C1289 C 0.96089 0.04788 0.9955 0.0
C1290 C 0.00919 0.03922 1.01009 0.0
C1291 C 0.99564 0.0131 1.01762 0.0
C1292 C 0.96402 0.00526 1.01445 0.0
C1293 C 0.94696 0.02276 1.00337 0.0
C1294 C 0.04262 0.04883 1.01313 0.0
C1295 C 0.94852 0.97795 0.02244 0.0
H1296 H 0.0736 0.93958 0.02831 0.0
H1297 H 0.04548 1.0006 0.06533 0.0
H1298 H 0.00737 0.95387 1.00352 0.0
H1299 H 0.04073 0.97703 0.99854 0.0
H1300 H 0.046 0.937 1.00456 0.0
H1301 H 1.00003 0.03189 0.06372 0.0
H1302 H 0.00493 0.05297 0.04575 0.0
H1303 H 0.97317 0.02609 0.04782 0.0
H1304 H 0.00228 0.07621 0.99359 0.0
H1305 H 0.92322 0.01621 1.00049 0.0
H1306 H 0.05865 0.02925 1.01026 0.0
H1307 H 0.04578 0.05435 0.02563 0.0
H1308 H 0.04971 0.06959 1.00619 0.0
H1309 H 0.95917 0.95584 1.01827 0.0
H1310 H 0.923 0.97712 1.02014 0.0
H1311 H 0.9523 0.97912 0.03519 0.0
C1312 C 0.72767 0.80406 0.79596 0.0
C1313 C 0.70384 0.81933 0.78772 0.0
C1314 C 0.74715 0.78195 0.78858 0.0
C1315 C 0.74276 0.77506 0.77259 0.0
C1316 C 0.72041 0.79231 0.764 0.0
C1317 C 0.70128 0.81414 0.77166 0.0
C1318 C 0.77091 0.76441 0.79815 0.0
C1319 C 0.71522 0.7863 0.7469 0.0
C1320 C 0.8004 0.72426 0.74973 0.0
C1321 C 0.78463 0.69549 0.7494 0.0
C1322 C 0.7875 0.75033 0.75747 0.0
C1323 C 0.75842 0.74737 0.76529 0.0
C1324 C 0.7431 0.71799 0.76545 0.0
C1325 C 0.75622 0.69259 0.7574 0.0
C1326 C 0.80438 0.78127 0.75678 0.0
C1327 C 0.71235 0.71353 0.77382 0.0
H1328 H 0.72982 0.80793 0.80836 0.0
H1329 H 0.68341 0.8264 0.76515 0.0
H1330 H 0.76265 0.74012 0.80005 0.0
H1331 H 0.7936 0.76302 0.79192 0.0
H1332 H 0.77473 0.77551 0.80967 0.0
H1333 H 0.69988 0.80424 0.74151 0.0
H1334 H 0.73783 0.78589 0.74056 0.0
H1335 H 0.70412 0.76307 0.74536 0.0
H1336 H 0.8222 0.72669 0.7434 0.0
H1337 H 0.74416 0.67033 0.75726 0.0
H1338 H 0.80691 0.79124 0.76862 0.0
H1339 H 0.79046 0.79815 0.74985 0.0
H1340 H 0.82793 0.77912 0.75141 0.0
H1341 H 0.71446 0.72113 0.78612 0.0
H1342 H 0.7044 0.68882 0.77363 0.0
H1343 H 0.69411 0.72825 0.76831 0.0
C1344 C 0.75406 0.19166 0.29116 0.0
C1345 C 0.78272 0.19354 0.29898 0.0
C1346 C 0.74376 0.21582 0.28139 0.0
C1347 C 0.76256 0.24276 0.27931 0.0
C1348 C 0.79138 0.24509 0.2873 0.0
C1349 C 0.80117 0.22042 0.29701 0.0
C1350 C 0.71302 0.21211 0.27298 0.0
C1351 C 0.81202 0.27344 0.28543 0.0
C1352 C 0.74636 0.28209 0.24074 0.0
C1353 C 0.72387 0.30447 0.24488 0.0
C1354 C 0.76086 0.26333 0.25198 0.0
C1355 C 0.75278 0.26709 0.26784 0.0
C1356 C 0.73211 0.29152 0.27224 0.0
C1357 C 0.71784 0.30998 0.26066 0.0
C1358 C 0.78279 0.23774 0.24671 0.0
C1359 C 0.72315 0.29657 0.28903 0.0
H1360 H 0.73985 0.17087 0.2924 0.0
H1361 H 0.82312 0.22233 0.30318 0.0
H1362 H 0.69759 0.23237 0.27545 0.0
H1363 H 0.71716 0.21157 0.26024 0.0
H1364 H 0.70055 0.19037 0.27638 0.0
H1365 H 0.8327 0.27265 0.29321 0.0
H1366 H 0.8203 0.27511 0.27322 0.0
H1367 H 0.79852 0.29502 0.28794 0.0
H1368 H 0.75119 0.27801 0.22852 0.0
H1369 H 0.7003 0.32709 0.26389 0.0
H1370 H 0.77128 0.2147 0.24826 0.0
H1371 H 0.80432 0.23762 0.25387 0.0
H1372 H 0.78951 0.24028 0.23428 0.0
H1373 H 0.70694 0.27777 0.29278 0.0
H1374 H 0.71138 0.31945 0.29081 0.0
H1375 H 0.74405 0.29539 0.29663 0.0
C1376 C 0.75201 0.29665 0.78286 0.0
C1377 C 0.7748 0.29491 0.7945 0.0
C1378 C 0.74448 0.2705 0.77379 0.0
C1379 C 0.75996 0.24172 0.77648 0.0
C1380 C 0.78283 0.23965 0.78831 0.0
C1381 C 0.79009 0.26634 0.79714 0.0
C1382 C 0.72026 0.27387 0.76114 0.0
C1383 C 0.79952 0.20929 0.79168 0.0
C1384 C 0.71611 0.17355 0.75868 0.0
C1385 C 0.73124 0.17044 0.74422 0.0
C1386 C 0.72673 0.19499 0.76987 0.0
C1387 C 0.75265 0.21435 0.76642 0.0
C1388 C 0.76933 0.20988 0.75238 0.0
C1389 C 0.75876 0.18767 0.74161 0.0
C1390 C 0.70894 0.19826 0.78497 0.0
C1391 C 0.79703 0.23013 0.7482 0.0
H1392 H 0.74043 0.31871 0.78062 0.0
H1393 H 0.80742 0.26472 0.80627 0.0
H1394 H 0.73081 0.26808 0.74969 0.0
H1395 H 0.70081 0.25722 0.76316 0.0
H1396 H 0.71043 0.29788 0.76054 0.0
H1397 H 0.81597 0.21133 0.80161 0.0
H1398 H 0.78224 0.19069 0.79433 0.0
H1399 H 0.81286 0.20162 0.78128 0.0
H1400 H 0.69507 0.16043 0.76111 0.0
H1401 H 0.77153 0.1849 0.73083 0.0
H1402 H 0.69467 0.21991 0.78465 0.0
H1403 H 0.72527 0.20028 0.79492 0.0
H1404 H 0.69307 0.17814 0.78706 0.0
H1405 H 0.78898 0.25446 0.74617 0.0
H1406 H 0.80924 0.22182 0.73756 0.0
H1407 H 0.81405 0.23082 0.7579 0.0
C1408 C 0.7556 0.79943 0.25685 0.0
C1409 C 0.78764 0.79906 0.2533 0.0
C1410 C 0.74175 0.77555 0.2657 0.0
C1411 C 0.76038 0.75067 0.27137 0.0
C1412 C 0.79307 0.7511 0.26867 0.0
C1413 C 0.80629 0.77519 0.25962 0.0
C1414 C 0.70682 0.77617 0.26829 0.0
C1415 C 0.81387 0.72533 0.2747 0.0
C1416 C 0.71956 0.69741 0.30075 0.0
C1417 C 0.70757 0.6741 0.29096 0.0
C1418 C 0.73818 0.72181 0.29473 0.0
C1419 C 0.74496 0.72279 0.27857 0.0
C1420 C 0.73438 0.69824 0.26887 0.0
C1421 C 0.7159 0.67429 0.27518 0.0
C1422 C 0.74915 0.74739 0.30548 0.0
C1423 C 0.74108 0.69814 0.25161 0.0
H1424 H 0.74109 0.81811 0.25238 0.0
H1425 H 0.83102 0.77449 0.25694 0.0
H1426 H 0.69586 0.75633 0.26203 0.0
H1427 H 0.70135 0.77332 0.28083 0.0
H1428 H 0.69601 0.79824 0.26411 0.0
H1429 H 0.83906 0.73114 0.27343 0.0
H1430 H 0.80879 0.72059 0.28714 0.0
H1431 H 0.80917 0.70348 0.26817 0.0
H1432 H 0.71298 0.6975 0.31293 0.0
H1433 H 0.70701 0.65608 0.26764 0.0
H1434 H 0.73594 0.76916 0.30305 0.0
H1435 H 0.77425 0.75252 0.30347 0.0
H1436 H 0.7457 0.74116 0.31792 0.0
H1437 H 0.72901 0.71818 0.24603 0.0
H1438 H 0.73314 0.67625 0.24591 0.0
H1439 H 0.76648 0.70098 0.24945 0.0
C1440 C 0.57353 0.50718 1.00637 0.0
C1441 C 0.56885 0.53057 0.99516 0.0
C1442 C 0.54893 0.49661 1.01586 0.0
C1443 C 0.51864 0.50945 1.01402 0.0
C1444 C 0.51363 0.53284 1.0026 0.0
C1445 C 0.53883 0.5433 0.99339 0.0
C1446 C 0.55551 0.47208 0.02807 0.0
C1447 C 0.48164 0.54689 1.00016 0.0
C1448 C 0.45057 0.46254 0.03082 0.0
C1449 C 0.44479 0.47823 0.04486 0.0
C1450 C 0.47408 0.47276 1.02052 0.0
C1451 C 0.49259 0.49907 0.02444 0.0
C1452 C 0.48687 0.51495 0.03862 0.0
C1453 C 0.46302 0.50443 0.0486 0.0
C1454 C 0.47915 0.45538 1.00545 0.0
C1455 C 0.50631 0.54279 0.04339 0.0
H1456 H 0.59673 0.4976 1.00798 0.0
H1457 H 0.53498 0.56116 0.98467 0.0
H1458 H 0.55017 0.48156 0.03979 0.0
H1459 H 0.54019 0.45149 0.02627 0.0
H1460 H 0.58023 0.46416 0.02788 0.0
H1461 H 0.48129 0.56389 0.99038 0.0
H1462 H 0.46441 0.52814 0.99774 0.0
H1463 H 0.47387 0.559 1.0109 0.0
H1464 H 0.43637 0.4425 0.0278 0.0
H1465 H 0.45906 0.51641 0.05952 0.0
H1466 H 0.50309 0.44544 1.00514 0.0
H1467 H 0.47711 0.47173 0.99548 0.0
H1468 H 0.4621 0.43606 1.00387 0.0
H1469 H 0.53122 0.53584 0.04434 0.0
H1470 H 0.49866 0.55279 0.0547 0.0
H1471 H 0.50489 0.56132 0.03439 0.0
C1472 C 0.0435 0.53252 0.54754 0.0
C1473 C 0.06379 0.54955 0.5379 0.0
C1474 C 0.02065 0.51261 0.54115 0.0
C1475 C 0.01846 0.50941 0.52477 0.0
C1476 C 0.04066 0.52464 0.51513 0.0
C1477 C 0.06277 0.54477 0.52181 0.0
C1478 C 0.99742 0.49697 0.55185 0.0
C1479 C 0.03978 0.52139 0.49766 0.0
C1480 C 0.96717 0.4491 0.50437 0.0
C1481 C 0.94228 0.46789 0.49931 0.0
C1482 C 0.99162 0.4618 0.51333 0.0
C1483 C 0.99082 0.49388 0.51748 0.0
C1484 C 0.96462 0.51226 0.51324 0.0
C1485 C 0.9409 0.49912 0.50411 0.0
C1486 C 0.01912 0.44141 0.51753 0.0
C1487 C 0.96235 0.54635 0.51767 0.0
H1488 H 0.04408 0.53644 0.55999 0.0
H1489 H 0.07858 0.55787 0.51441 0.0
H1490 H 0.97459 0.50916 0.551 0.0
H1491 H 0.99361 0.4723 0.54838 0.0
H1492 H 0.00515 0.49759 0.56418 0.0
H1493 H 0.06089 0.53146 0.49201 0.0
H1494 H 0.03786 0.49642 0.49431 0.0
H1495 H 0.01889 0.53364 0.49305 0.0
H1496 H 0.96841 0.42498 0.50056 0.0
H1497 H 0.92148 0.51351 0.50033 0.0
H1498 H 0.02559 0.44463 0.52991 0.0
H1499 H 0.03963 0.44828 0.51038 0.0
H1500 H 0.01426 0.41628 0.51545 0.0
H1501 H 0.96659 0.5493 0.53031 0.0
H1502 H 0.93916 0.5565 0.51482 0.0
H1503 H 0.98057 0.55985 0.51139 0.0
C1504 C 0.0246 0.46587 0.9909 0.0
C1505 C 0.053 0.48229 0.98964 0.0
C1506 C 0.99999 0.47687 1.00041 0.0
C1507 C 0.00355 0.50521 1.00875 0.0
C1508 C 0.0323 0.52149 1.00781 0.0
C1509 C 0.05655 0.5098 0.99842 0.0
C1510 C 0.96993 0.45851 1.00125 0.0
C1511 C 0.0373 0.55176 1.0165 0.0
C1512 C 0.93554 0.55852 1.01908 0.0
C1513 C 0.93365 0.55518 0.0353 0.0
C1514 C 0.95685 0.541 1.0102 0.0
C1515 C 0.97686 0.51932 1.01766 0.0
C1516 C 0.97349 0.51413 0.03389 0.0
C1517 C 0.9519 0.53214 0.04253 0.0
C1518 C 0.95932 0.54729 0.99296 0.0
C1519 C 0.99402 0.49098 0.0423 0.0
H1520 H 0.02126 0.44464 0.98427 0.0
H1521 H 0.0784 0.52244 0.99804 0.0
H1522 H 0.96261 0.45525 1.01353 0.0
H1523 H 0.95107 0.47169 0.99531 0.0
H1524 H 0.97211 0.43518 0.99567 0.0
H1525 H 0.06134 0.56109 1.01497 0.0
H1526 H 0.02045 0.56963 1.01236 0.0
H1527 H 0.03294 0.54826 0.02911 0.0
H1528 H 0.92106 0.57584 1.01338 0.0
H1529 H 0.95063 0.52947 0.05505 0.0
H1530 H 0.95888 0.52504 0.98635 0.0
H1531 H 0.98193 0.55893 0.9904 0.0
H1532 H 0.94012 0.56252 0.98869 0.0
H1533 H 0.99532 0.46863 0.03578 0.0
H1534 H 0.98546 0.48615 0.05427 0.0
H1535 H 0.01812 0.50041 0.04307 0.0
C1536 C 0.55119 0.48625 0.53062 0.0
C1537 C 0.54804 0.46376 0.54241 0.0
C1538 C 0.5253 0.49707 0.52225 0.0
C1539 C 0.49521 0.4849 0.52553 0.0
C1540 C 0.49184 0.46135 0.53702 0.0
C1541 C 0.51828 0.45115 0.54539 0.0
C1542 C 0.53022 0.52191 0.50997 0.0
C1543 C 0.46031 0.44738 0.54069 0.0
C1544 C 0.43356 0.54226 0.51196 0.0
C1545 C 0.42925 0.5324 0.49661 0.0
C1546 C 0.45273 0.5252 0.52219 0.0
C1547 C 0.46771 0.49758 0.51688 0.0
C1548 C 0.46055 0.48585 0.5019 0.0
C1549 C 0.44171 0.50365 0.49188 0.0
C1550 C 0.45968 0.53862 0.53802 0.0
C1551 C 0.47538 0.45624 0.49584 0.0
H1552 H 0.57408 0.49551 0.52788 0.0
H1553 H 0.51548 0.43383 0.55448 0.0
H1554 H 0.52231 0.51318 0.49849 0.0
H1555 H 0.51608 0.54291 0.51279 0.0
H1556 H 0.5551 0.52905 0.50892 0.0
H1557 H 0.46215 0.4267 0.54846 0.0
H1558 H 0.44543 0.46518 0.54648 0.0
H1559 H 0.44825 0.44032 0.52983 0.0
H1560 H 0.42444 0.56484 0.51544 0.0
H1561 H 0.43871 0.4964 0.47989 0.0
H1562 H 0.48345 0.54899 0.53795 0.0
H1563 H 0.45932 0.52004 0.54702 0.0
H1564 H 0.44269 0.55713 0.54134 0.0
H1565 H 0.49991 0.4611 0.49239 0.0
H1566 H 0.46279 0.44704 0.48552 0.0
H1567 H 0.47585 0.43791 0.50497 0.0
C1568 C 0.3594 0.18519 0.16797 0.0
C1569 C 0.34871 0.19441 0.18273 0.0
C1570 C 0.35758 0.20573 0.15506 0.0
C1571 C 0.34456 0.23612 0.1569 0.0
C1572 C 0.33262 0.24487 0.17164 0.0
C1573 C 0.33496 0.2241 0.18429 0.0
C1574 C 0.37057 0.19533 0.13957 0.0
C1575 C 0.31819 0.27669 0.17424 0.0
C1576 C 0.36575 0.30365 0.12933 0.0
C1577 C 0.33942 0.30525 0.11961 0.0
C1578 C 0.36806 0.28093 0.14123 0.0
C1579 C 0.3435 0.25907 0.14358 0.0
C1580 C 0.31693 0.26057 0.1338 0.0
C1581 C 0.3152 0.28352 0.12205 0.0
C1582 C 0.39678 0.28044 0.15138 0.0
C1583 C 0.28999 0.23817 0.13591 0.0
H1584 H 0.37056 0.16257 0.16668 0.0
H1585 H 0.32666 0.23152 0.19563 0.0
H1586 H 0.35257 0.19784 0.13039 0.0
H1587 H 0.39052 0.21051 0.13625 0.0
H1588 H 0.37871 0.17067 0.13982 0.0
H1589 H 0.30887 0.2795 0.18623 0.0
H1590 H 0.33591 0.29514 0.17213 0.0
H1591 H 0.29887 0.28061 0.16588 0.0
H1592 H 0.38483 0.31986 0.12751 0.0
H1593 H 0.29451 0.28461 0.11486 0.0
H1594 H 0.40797 0.25706 0.15086 0.0
H1595 H 0.39006 0.28469 0.16367 0.0
H1596 H 0.4142 0.29836 0.14785 0.0
H1597 H 0.29851 0.21369 0.13537 0.0
H1598 H 0.27162 0.24139 0.12694 0.0
H1599 H 0.27927 0.24157 0.14755 0.0
C1600 C 0.94493 0.09358 0.38611 0.0
C1601 C 0.95202 0.07914 0.3718 0.0
C1602 C 0.96714 0.09538 0.39826 0.0
C1603 C 0.99739 0.08226 0.39629 0.0
C1604 C 0.00476 0.06774 0.38195 0.0
C1605 C 0.98229 0.06651 0.36997 0.0
C1606 C 0.95812 0.11126 0.41328 0.0
C1607 C 0.03647 0.05315 0.37926 0.0
C1608 C 0.06447 0.1075 0.4233 0.0
C1609 C 0.06387 0.08411 0.43477 0.0
C1610 C 0.04309 0.10727 0.41075 0.0
C1611 C 0.02094 0.08267 0.40937 0.0
C1612 C 0.02124 0.05834 0.42059 0.0
C1613 C 0.04223 0.05964 0.43321 0.0
C1614 C 0.04344 0.134 0.39929 0.0
C1615 C 0.99891 0.03113 0.41945 0.0
H1616 H 0.92194 0.10343 0.38797 0.0
H1617 H 0.98888 0.0556 0.35913 0.0
H1618 H 0.9588 0.09414 0.42297 0.0
H1619 H 0.97515 0.12999 0.41605 0.0
H1620 H 0.93434 0.12167 0.41279 0.0
H1621 H 0.03877 0.0428 0.36746 0.0
H1622 H 0.05506 0.07094 0.38076 0.0
H1623 H 0.04067 0.03454 0.38801 0.0
H1624 H 0.08053 0.12689 0.42457 0.0
H1625 H 0.04139 0.04162 0.44208 0.0
H1626 H 0.02075 0.14655 0.39976 0.0
H1627 H 0.0463 0.12501 0.38728 0.0
H1628 H 0.06249 0.15095 0.4017 0.0
H1629 H 0.97451 0.03959 0.42062 0.0
H1630 H 0.00324 0.01321 0.42855 0.0
H1631 H 0.00101 0.01988 0.40786 0.0
C1632 C 0.17004 0.81656 0.67247 0.0
C1633 C 0.18648 0.80783 0.68593 0.0
C1634 C 0.16719 0.7959 0.65968 0.0
C1635 C 0.18105 0.76572 0.6603 0.0
C1636 C 0.19845 0.75728 0.67366 0.0
C1637 C 0.20098 0.7783 0.68619 0.0
C1638 C 0.14871 0.80609 0.64564 0.0
C1639 C 0.21384 0.72559 0.67493 0.0
C1640 C 0.15204 0.69723 0.63537 0.0
C1641 C 0.17563 0.69482 0.62405 0.0
C1642 C 0.15292 0.72071 0.64693 0.0
C1643 C 0.17775 0.74276 0.64711 0.0
C1644 C 0.20095 0.7411 0.63534 0.0
C1645 C 0.1997 0.7172 0.62408 0.0
C1646 C 0.12781 0.72123 0.65928 0.0
C1647 C 0.22762 0.76417 0.63486 0.0
H1648 H 0.15849 0.83909 0.67211 0.0
H1649 H 0.21383 0.77117 0.69645 0.0
H1650 H 0.16309 0.8036 0.63495 0.0
H1651 H 0.12797 0.79081 0.64425 0.0
H1652 H 0.14065 0.83072 0.64657 0.0
H1653 H 0.2267 0.7226 0.68604 0.0
H1654 H 0.19591 0.70694 0.67408 0.0
H1655 H 0.23047 0.72216 0.66516 0.0
H1656 H 0.13338 0.68012 0.63547 0.0
H1657 H 0.21768 0.71612 0.61521 0.0
H1658 H 0.11704 0.74479 0.65994 0.0
H1659 H 0.13835 0.71625 0.6708 0.0
H1660 H 0.10916 0.70375 0.65705 0.0
H1661 H 0.2185 0.78845 0.63519 0.0
H1662 H 0.24235 0.76138 0.62428 0.0
H1663 H 0.24263 0.76099 0.64524 0.0
C1664 C 0.54799 0.90267 0.87883 0.0
C1665 C 0.56793 0.92885 0.8784 0.0
C1666 C 0.52063 0.90226 0.8881 0.0
C1667 C 0.51243 0.92871 0.89721 0.0
C1668 C 0.53255 0.95507 0.89696 0.0
C1669 C 0.5599 0.95476 0.88768 0.0
C1670 C 0.50024 0.87347 0.888 0.0
C1671 C 0.52488 0.98398 0.90627 0.0
C1672 C 0.42564 0.93462 0.90861 0.0
C1673 C 0.42549 0.92415 0.92413 0.0
C1674 C 0.45372 0.93763 0.90002 0.0
C1675 C 0.48266 0.92881 0.90679 0.0
C1676 C 0.48282 0.91914 0.92258 0.0
C1677 C 0.45456 0.91796 0.93115 0.0
C1678 C 0.45229 0.94964 0.88353 0.0
C1679 C 0.51276 0.90885 0.93031 0.0
H1680 H 0.55323 0.88261 0.87162 0.0
H1681 H 0.575 0.97506 0.88766 0.0
H1682 H 0.49677 0.86486 0.90007 0.0
H1683 H 0.47685 0.87937 0.8833 0.0
H1684 H 0.51037 0.85431 0.88088 0.0
H1685 H 0.54279 0.00257 0.90486 0.0
H1686 H 0.50189 0.99343 0.90259 0.0
H1687 H 0.52295 0.97807 0.9188 0.0
H1688 H 0.40363 0.94013 0.90303 0.0
H1689 H 0.45533 0.9113 0.94328 0.0
H1690 H 0.4585 0.9306 0.87533 0.0
H1691 H 0.46952 0.96872 0.88183 0.0
H1692 H 0.4287 0.95856 0.88048 0.0
H1693 H 0.52304 0.88893 0.92379 0.0
H1694 H 0.50906 0.90152 0.94258 0.0
H1695 H 0.53012 0.92807 0.93007 0.0
C1696 C 0.33788 0.82628 0.3729 0.0
C1697 C 0.32679 0.81811 0.35808 0.0
C1698 C 0.33618 0.80495 0.38555 0.0
C1699 C 0.32315 0.77464 0.3834 0.0
C1700 C 0.31097 0.76687 0.36859 0.0
C1701 C 0.31289 0.78851 0.35626 0.0
C1702 C 0.34933 0.81448 0.4011 0.0
C1703 C 0.2968 0.73512 0.36558 0.0
C1704 C 0.34529 0.70557 0.41002 0.0
C1705 C 0.31913 0.70313 0.41991 0.0
C1706 C 0.34718 0.72895 0.39838 0.0
C1707 C 0.32239 0.75072 0.39642 0.0
C1708 C 0.29593 0.74827 0.40631 0.0
C1709 C 0.29461 0.72469 0.41781 0.0
C1710 C 0.37583 0.73033 0.38813 0.0
C1711 C 0.26877 0.77056 0.4047 0.0
H1712 H 0.34919 0.84872 0.37445 0.0
H1713 H 0.3043 0.78173 0.34489 0.0
H1714 H 0.33156 0.81105 0.41036 0.0
H1715 H 0.36961 0.79941 0.404 0.0
H1716 H 0.35705 0.83927 0.40121 0.0
H1717 H 0.28742 0.73296 0.35359 0.0
H1718 H 0.3147 0.71669 0.36733 0.0
H1719 H 0.27758 0.73053 0.37396 0.0
H1720 H 0.3647 0.68964 0.41158 0.0
H1721 H 0.27416 0.7231 0.42521 0.0
H1722 H 0.38688 0.75371 0.38901 0.0
H1723 H 0.36906 0.72694 0.37579 0.0
H1724 H 0.3934 0.71228 0.39127 0.0
H1725 H 0.27707 0.79504 0.40571 0.0
H1726 H 0.25041 0.76647 0.41363 0.0
H1727 H 0.25811 0.76802 0.39302 0.0
C1728 C 0.40706 0.06912 0.64549 0.0
C1729 C 0.40692 0.06925 0.62913 0.0
C1730 C 0.43504 0.06833 0.65406 0.0
C1731 C 0.4642 0.0675 0.64622 0.0
C1732 C 0.46442 0.06745 0.62968 0.0
C1733 C 0.43586 0.06819 0.62134 0.0
C1734 C 0.43327 0.06857 0.67161 0.0
C1735 C 0.49485 0.06663 0.62081 0.0
C1736 C 0.53245 0.09499 0.67146 0.0
C1737 C 0.5439 0.06678 0.67752 0.0
C1738 C 0.50785 0.09553 0.66056 0.0
C1739 C 0.49407 0.06709 0.65556 0.0
C1740 C 0.50667 0.03844 0.66112 0.0
C1741 C 0.53118 0.03865 0.67213 0.0
C1742 C 0.49531 0.12669 0.65518 0.0
C1743 C 0.49308 0.00753 0.65612 0.0
H1744 H 0.38503 0.06998 0.65172 0.0
H1745 H 0.43625 0.06798 0.60876 0.0
H1746 H 0.44494 0.04749 0.67638 0.0
H1747 H 0.44579 0.08928 0.67623 0.0
H1748 H 0.40881 0.06914 0.67597 0.0
H1749 H 0.49126 0.06681 0.60801 0.0
H1750 H 0.50942 0.08706 0.62403 0.0
H1751 H 0.50821 0.04534 0.624 0.0
H1752 H 0.54176 0.11677 0.67591 0.0
H1753 H 0.53961 0.01688 0.67702 0.0
H1754 H 0.47185 0.13063 0.66035 0.0
H1755 H 0.49254 0.12693 0.64235 0.0
H1756 H 0.51075 0.14638 0.6586 0.0
H1757 H 0.46944 0.00471 0.66126 0.0
H1758 H 0.50778 0.98748 0.65985 0.0
H1759 H 0.49049 0.00679 0.64328 0.0
C1760 C 0.14301 0.29993 0.9109 0.0
C1761 C 0.16564 0.30158 0.92268 0.0
C1762 C 0.14271 0.27498 0.90008 0.0
C1763 C 0.1652 0.25059 0.90116 0.0
C1764 C 0.18711 0.25146 0.9135 0.0
C1765 C 0.18721 0.27689 0.92395 0.0
C1766 C 0.11919 0.27553 0.88704 0.0
C1767 C 0.21126 0.22601 0.91536 0.0
C1768 C 0.15384 0.17622 0.8763 0.0
C1769 C 0.17264 0.18285 0.8633 0.0
C1770 C 0.1515 0.19763 0.88887 0.0
C1771 C 0.16825 0.22638 0.88844 0.0
C1772 C 0.18813 0.23239 0.87558 0.0
C1773 C 0.19008 0.21071 0.86332 0.0
C1774 C 0.13028 0.18997 0.90237 0.0
C1775 C 0.20656 0.26243 0.87443 0.0
H1776 H 0.12634 0.31884 0.90972 0.0
H1777 H 0.20446 0.27757 0.93315 0.0
H1778 H 0.1315 0.27895 0.87579 0.0
H1779 H 0.10671 0.25285 0.88638 0.0
H1780 H 0.10172 0.29455 0.88847 0.0
H1781 H 0.22438 0.22817 0.92644 0.0
H1782 H 0.19996 0.20269 0.91498 0.0
H1783 H 0.22818 0.22708 0.90557 0.0
H1784 H 0.1398 0.15515 0.87632 0.0
H1785 H 0.20463 0.21618 0.85334 0.0
H1786 H 0.11048 0.20672 0.90266 0.0
H1787 H 0.1431 0.19245 0.9135 0.0
H1788 H 0.1207 0.16589 0.9016 0.0
H1789 H 0.19036 0.2827 0.87436 0.0
H1790 H 0.22127 0.26345 0.86378 0.0
H1791 H 0.22195 0.26502 0.88472 0.0
C1792 C 0.96688 0.8828 0.16737 0.0
C1793 C 0.97203 0.89823 0.18159 0.0
C1794 C 0.98898 0.8842 0.15506 0.0
C1795 C 0.01705 0.90164 0.1568 0.0
C1796 C 0.02263 0.91671 0.17119 0.0
C1797 C 1.00044 0.91461 0.18332 0.0
C1798 C 0.98195 0.86752 0.14002 0.0
C1799 C 0.05182 0.93589 0.17366 0.0
C1800 C 0.08591 0.8897 0.12827 0.0
C1801 C 0.08084 0.91359 0.11735 0.0
C1802 C 0.0655 0.88546 0.14114 0.0
C1803 C 0.0396 0.90588 0.14335 0.0
C1804 C 0.03534 0.93083 0.13271 0.0
C1805 C 0.05566 0.93413 0.11987 0.0
C1806 C 0.07098 0.85838 0.15204 0.0
C1807 C 0.00872 0.95372 0.13462 0.0
H1808 H 0.94529 0.87011 0.16568 0.0
H1809 H 0.00558 0.92612 0.1942 0.0
H1810 H 0.97902 0.88486 0.13053 0.0
H1811 H 0.0018 0.85214 0.13675 0.0
H1812 H 0.96038 0.85314 0.14079 0.0
H1813 H 0.05333 0.94546 0.18564 0.0
H1814 H 0.07289 0.92147 0.17138 0.0
H1815 H 0.0523 0.95569 0.16531 0.0
H1816 H 0.10474 0.87326 0.12634 0.0
H1817 H 0.05128 0.9525 0.11145 0.0
H1818 H 0.05055 0.84243 0.15179 0.0
H1819 H 0.07335 0.86695 0.16415 0.0
H1820 H 0.09227 0.84483 0.14893 0.0
H1821 H 0.98608 0.94125 0.13366 0.0
H1822 H 0.00934 0.97262 0.12576 0.0
H1823 H 0.00953 0.96451 0.14635 0.0
C1824 C 0.66693 0.70176 0.91155 0.0
C1825 C 0.68638 0.70559 0.92455 0.0
C1826 C 0.66639 0.72406 0.89935 0.0
C1827 C 0.68607 0.7508 0.89996 0.0
C1828 C 0.70637 0.75423 0.91287 0.0
C1829 C 0.70613 0.73184 0.92494 0.0
C1830 C 0.64422 0.71932 0.88594 0.0
C1831 C 0.72808 0.78191 0.91408 0.0
C1832 C 0.70774 0.7951 0.86258 0.0
C1833 C 0.68774 0.82125 0.86296 0.0
C1834 C 0.70694 0.77192 0.87429 0.0
C1835 C 0.68604 0.77487 0.88703 0.0
C1836 C 0.66587 0.80128 0.88755 0.0
C1837 C 0.66667 0.82383 0.87547 0.0
C1838 C 0.72858 0.74413 0.87301 0.0
C1839 C 0.64356 0.80591 0.90097 0.0
H1840 H 0.6512 0.68197 0.91119 0.0
H1841 H 0.72126 0.73506 0.9349 0.0
H1842 H 0.62775 0.7393 0.88522 0.0
H1843 H 0.65746 0.71861 0.87483 0.0
H1844 H 0.6305 0.69739 0.88709 0.0
H1845 H 0.74256 0.78117 0.92478 0.0
H1846 H 0.74387 0.78267 0.90383 0.0
H1847 H 0.71435 0.80392 0.91408 0.0
H1848 H 0.72383 0.79239 0.85291 0.0
H1849 H 0.65102 0.84375 0.87592 0.0
H1850 H 0.7148 0.72216 0.87306 0.0
H1851 H 0.74436 0.74332 0.88322 0.0
H1852 H 0.74305 0.7448 0.86227 0.0
H1853 H 0.62731 0.78578 0.90176 0.0
H1854 H 0.62964 0.82772 0.8998 0.0
H1855 H 0.65675 0.80687 0.91206 0.0
C1856 C 0.08173 0.93436 0.65347 0.0
C1857 C 0.08424 0.91504 0.6666 0.0
C1858 C 0.05658 0.93137 0.64301 0.0
C1859 C 0.03301 0.90871 0.6458 0.0
C1860 C 0.03515 0.88947 0.65918 0.0
C1861 C 0.06071 0.89276 0.66935 0.0
C1862 C 0.05552 0.95215 0.62883 0.0
C1863 C 0.0105 0.86522 0.66272 0.0
C1864 C 0.95522 0.91684 0.62409 0.0
C1865 C 0.95963 0.89642 0.6115 0.0
C1866 C 0.97869 0.92091 0.63544 0.0
C1867 C 0.00715 0.90396 0.63426 0.0
C1868 C 0.01123 0.88265 0.62183 0.0
C1869 C 0.9876 0.87926 0.61063 0.0
C1870 C 0.97334 0.94387 0.64849 0.0
C1871 C 0.0409 0.86377 0.62016 0.0
H1872 H 0.09979 0.95152 0.65123 0.0
H1873 H 0.06198 0.87816 0.67963 0.0
H1874 H 0.05677 0.93765 0.61815 0.0
H1875 H 0.03306 0.96511 0.62849 0.0
H1876 H 0.07502 0.96928 0.62859 0.0
H1877 H 0.01476 0.85305 0.67394 0.0
H1878 H 0.98708 0.87633 0.66316 0.0
H1879 H 0.00993 0.84753 0.65329 0.0
H1880 H 0.93382 0.93032 0.62484 0.0
H1881 H 0.99124 0.86322 0.60103 0.0
H1882 H 0.99074 0.96304 0.64773 0.0
H1883 H 0.97671 0.93219 0.65989 0.0
H1884 H 0.94953 0.95423 0.64818 0.0
H1885 H 0.06115 0.87969 0.61867 0.0
H1886 H 0.04012 0.84755 0.61008 0.0
H1887 H 0.04507 0.8499 0.63087 0.0
C1888 C 0.79818 0.18738 0.37544 0.0
C1889 C 0.82342 0.16712 0.37273 0.0
C1890 C 0.79819 0.2085 0.38796 0.0
C1891 C 0.8245 0.2101 0.3979 0.0
C1892 C 0.84919 0.18826 0.39585 0.0
C1893 C 0.84816 0.16676 0.3834 0.0
C1894 C 0.7709 0.23057 0.38988 0.0
C1895 C 0.87781 0.18915 0.40605 0.0
C1896 C 0.84026 0.28998 0.41634 0.0
C1897 C 0.82875 0.28602 0.43155 0.0
C1898 C 0.83954 0.26538 0.40542 0.0
C1899 C 0.82688 0.23592 0.40968 0.0
C1900 C 0.81532 0.23169 0.42498 0.0
C1901 C 0.8165 0.25659 0.43568 0.0
C1902 C 0.85207 0.27105 0.38923 0.0
C1903 C 0.80142 0.20085 0.43001 0.0
H1904 H 0.77918 0.18805 0.36711 0.0
H1905 H 0.86796 0.15155 0.3813 0.0
H1906 H 0.76301 0.23111 0.40218 0.0
H1907 H 0.77824 0.25462 0.38671 0.0
H1908 H 0.75079 0.22391 0.38243 0.0
H1909 H 0.89341 0.16877 0.40403 0.0
H1910 H 0.89119 0.21084 0.40362 0.0
H1911 H 0.87102 0.18969 0.41851 0.0
H1912 H 0.84953 0.31245 0.41285 0.0
H1913 H 0.80808 0.25274 0.4474 0.0
H1914 H 0.83298 0.26842 0.38062 0.0
H1915 H 0.8702 0.25339 0.38636 0.0
H1916 H 0.86239 0.29473 0.38791 0.0
H1917 H 0.78103 0.19511 0.4226 0.0
H1918 H 0.79372 0.20111 0.44236 0.0
H1919 H 0.81879 0.18184 0.42845 0.0
C1920 C 0.56918 0.0607 0.1177 0.0
C1921 C 0.59309 0.08267 0.12005 0.0
C1922 C 0.54131 0.06135 0.12652 0.0
C1923 C 0.53817 0.08255 0.13911 0.0
C1924 C 0.56304 0.10368 0.14213 0.0
C1925 C 0.58982 0.10383 0.13243 0.0
C1926 C 0.5154 0.03884 0.12249 0.0
C1927 C 0.56182 0.12545 0.15591 0.0
C1928 C 0.45752 0.09943 0.15724 0.0
C1929 C 0.45613 0.07756 0.16942 0.0
C1930 C 0.48376 0.10115 0.14721 0.0
C1931 C 0.50986 0.08117 0.14964 0.0
C1932 C 0.5087 0.0594 0.1621 0.0
C1933 C 0.4819 0.05766 0.17166 0.0
C1934 C 0.48336 0.12403 0.13385 0.0
C1935 C 0.53605 0.03818 0.16553 0.0
H1936 H 0.57248 0.04214 0.10934 0.0
H1937 H 0.60865 0.12011 0.13476 0.0
H1938 H 0.51324 0.0208 0.1317 0.0
H1939 H 0.49271 0.05138 0.12186 0.0
H1940 H 0.51963 0.02691 0.1112 0.0
H1941 H 0.58311 0.1402 0.15682 0.0
H1942 H 0.54111 0.14094 0.15508 0.0
H1943 H 0.55932 0.11166 0.16679 0.0
H1944 H 0.43775 0.11482 0.15538 0.0
H1945 H 0.48143 0.0411 0.18119 0.0
H1946 H 0.48749 0.11149 0.12273 0.0
H1947 H 0.50252 0.14125 0.1352 0.0
H1948 H 0.46085 0.13688 0.13305 0.0
H1949 H 0.54123 0.02321 0.15532 0.0
H1950 H 0.5317 0.02282 0.17573 0.0
H1951 H 0.55721 0.05242 0.16781 0.0
C1952 C 0.68291 0.28763 0.62717 0.0
C1953 C 0.65752 0.29588 0.61761 0.0
C1954 C 0.68164 0.26169 0.63728 0.0
C1955 C 0.65423 0.24317 0.63806 0.0
C1956 C 0.62826 0.25164 0.62866 0.0
C1957 C 0.63018 0.27783 0.61862 0.0
C1958 C 0.70987 0.25393 0.64706 0.0
C1959 C 0.59848 0.23281 0.62911 0.0
C1960 C 0.65723 0.15871 0.65335 0.0
C1961 C 0.64674 0.16212 0.66872 0.0
C1962 C 0.66094 0.1849 0.64346 0.0
C1963 C 0.6527 0.21524 0.64881 0.0
C1964 C 0.64256 0.21876 0.66444 0.0
C1965 C 0.64008 0.19232 0.6742 0.0
C1966 C 0.67269 0.17992 0.62709 0.0
C1967 C 0.63285 0.25032 0.67064 0.0
H1968 H 0.70399 0.30159 0.62678 0.0
H1969 H 0.61051 0.28369 0.61126 0.0
H1970 H 0.70356 0.2545 0.65958 0.0
H1971 H 0.71801 0.22988 0.6444 0.0
H1972 H 0.72951 0.27043 0.64506 0.0
H1973 H 0.58014 0.24269 0.6214 0.0
H1974 H 0.60331 0.20841 0.62544 0.0
H1975 H 0.58926 0.23185 0.64117 0.0
H1976 H 0.66164 0.1354 0.64891 0.0
H1977 H 0.63115 0.1951 0.68592 0.0
H1978 H 0.69264 0.19577 0.62465 0.0
H1979 H 0.65394 0.18571 0.61867 0.0
H1980 H 0.68032 0.15543 0.62505 0.0
H1981 H 0.65214 0.26739 0.66922 0.0
H1982 H 0.62614 0.24939 0.68313 0.0
H1983 H 0.61267 0.25926 0.66388 0.0
C1984 C 0.47641 0.93514 0.36876 0.0
C1985 C 0.44782 0.92211 0.37341 0.0
C1986 C 0.5031 0.93319 0.37827 0.0
C1987 C 0.50103 0.91872 0.39309 0.0
C1988 C 0.47211 0.90533 0.39779 0.0
C1989 C 0.446 0.90676 0.38777 0.0
C1990 C 0.53345 0.94707 0.37253 0.0
C1991 C 0.46838 0.89057 0.41363 0.0
C1992 C 0.57591 0.89518 0.4147 0.0
C1993 C 0.58154 0.92157 0.42398 0.0
C1994 C 0.55009 0.89398 0.4045 0.0
C1995 C 0.52862 0.91928 0.40394 0.0
C1996 C 0.53394 0.9457 0.41352 0.0
C1997 C 0.56047 0.94672 0.42319 0.0
C1998 C 0.54602 0.86577 0.39417 0.0
C1999 C 0.51133 0.97283 0.41374 0.0
H2000 H 0.47777 0.94688 0.3576 0.0
H2001 H 0.4238 0.89692 0.39138 0.0
H2002 H 0.53988 0.96744 0.37983 0.0
H2003 H 0.55258 0.92966 0.37357 0.0
H2004 H 0.53197 0.95489 0.36023 0.0
H2005 H 0.44473 0.88043 0.41536 0.0
H2006 H 0.48601 0.87187 0.41528 0.0
H2007 H 0.47249 0.90841 0.42276 0.0
H2008 H 0.59195 0.87561 0.41527 0.0
H2009 H 0.56418 0.96697 0.43053 0.0
H2010 H 0.5457 0.87319 0.3818 0.0
H2011 H 0.5233 0.85434 0.39664 0.0
H2012 H 0.56498 0.84831 0.39577 0.0
H2013 H 0.51056 0.98406 0.40212 0.0
H2014 H 0.5178 0.99082 0.42247 0.0
H2015 H 0.4874 0.96434 0.41639 0.0
C2016 C 0.83696 0.79681 0.18279 0.0
C2017 C 0.83947 0.8262 0.1755 0.0
C2018 C 0.83532 0.76882 0.1741 0.0
C2019 C 0.83405 0.77001 0.15762 0.0
C2020 C 0.8346 0.7997 0.15023 0.0
C2021 C 0.8377 0.82724 0.15919 0.0
C2022 C 0.8356 0.73792 0.1826 0.0
C2023 C 0.83224 0.80242 0.13277 0.0
C2024 C 0.8572 0.69888 0.1328 0.0
C2025 C 0.82807 0.68549 0.12899 0.0
C2026 C 0.85949 0.7258 0.14227 0.0
C2027 C 0.83207 0.74034 0.14812 0.0
C2028 C 0.80271 0.72673 0.14465 0.0
C2029 C 0.8011 0.69959 0.13532 0.0
C2030 C 0.8914 0.73891 0.1459 0.0
C2031 C 0.77277 0.74124 0.15054 0.0
H2032 H 0.83675 0.79555 0.19537 0.0
H2033 H 0.83915 0.84964 0.15334 0.0
H2034 H 0.81347 0.72519 0.18044 0.0
H2035 H 0.85492 0.72305 0.17815 0.0
H2036 H 0.83857 0.74083 0.19536 0.0
H2037 H 0.83125 0.82713 0.12882 0.0
H2038 H 0.85269 0.79097 0.12723 0.0
H2039 H 0.81101 0.79014 0.1286 0.0
H2040 H 0.87849 0.68877 0.12826 0.0
H2041 H 0.77837 0.68975 0.13292 0.0
H2042 H 0.89439 0.74111 0.15868 0.0
H2043 H 0.89365 0.7627 0.14088 0.0
H2044 H 0.91057 0.72411 0.14122 0.0
H2045 H 0.77299 0.74233 0.16343 0.0
H2046 H 0.75175 0.72801 0.14682 0.0
H2047 H 0.77079 0.7656 0.1462 0.0
C2048 C 0.94665 0.08866 0.92046 0.0
C2049 C 0.92462 0.11123 0.91586 0.0
C2050 C 0.9725 0.08102 0.91088 0.0
C2051 C 0.97559 0.09495 0.89595 0.0
C2052 C 0.9518 0.1154 0.8907 0.0
C2053 C 0.92704 0.12353 0.90072 0.0
C2054 C 0.99736 0.05932 0.91708 0.0
C2055 C 0.95304 0.12973 0.87464 0.0
C2056 C 0.05434 0.10615 0.87529 0.0
C2057 C 0.05449 0.0816 0.86439 0.0
C2058 C 0.02959 0.1099 0.88605 0.0
C2059 C 0.00384 0.08898 0.88587 0.0
C2060 C 0.00421 0.0637 0.87526 0.0
C2061 C 0.02951 0.06013 0.86486 0.0
C2062 C 0.03061 0.13687 0.89735 0.0
C2063 C 0.97724 0.04102 0.87443 0.0
H2064 H 0.9446 0.07789 0.93177 0.0
H2065 H 0.90992 0.14046 0.8968 0.0
H2066 H 0.00201 0.04015 0.90872 0.0
H2067 H 0.01954 0.07245 0.91851 0.0
H2068 H 0.99078 0.04898 0.92849 0.0
H2069 H 0.9314 0.14288 0.87179 0.0
H2070 H 0.97317 0.14598 0.87383 0.0
H2071 H 0.95655 0.11128 0.86574 0.0
H2072 H 0.07312 0.12306 0.87524 0.0
H2073 H 0.02927 0.04057 0.85691 0.0
H2074 H 0.02622 0.1284 0.90936 0.0
H2075 H 0.01189 0.15386 0.89449 0.0
H2076 H 0.05342 0.14926 0.89708 0.0
H2077 H 0.97236 0.03092 0.88606 0.0
H2078 H 0.98173 0.0216 0.86614 0.0
H2079 H 0.95582 0.05357 0.87069 0.0
C2080 C 0.81351 0.79016 0.6259 0.0
C2081 C 0.83865 0.81122 0.62441 0.0
C2082 C 0.8149 0.76417 0.63599 0.0
C2083 C 0.84212 0.7587 0.64494 0.0
C2084 C 0.86754 0.77988 0.64357 0.0
C2085 C 0.86556 0.80568 0.63334 0.0
C2086 C 0.78733 0.74223 0.63687 0.0
C2087 C 0.89695 0.7753 0.65296 0.0
C2088 C 0.83902 0.70617 0.68117 0.0
C2089 C 0.85469 0.67925 0.676 0.0
C2090 C 0.83416 0.73194 0.67115 0.0
C2091 C 0.84439 0.7305 0.65543 0.0
C2092 C 0.85823 0.70244 0.64995 0.0
C2093 C 0.86383 0.67755 0.66035 0.0
C2094 C 0.81992 0.76146 0.67767 0.0
C2095 C 0.86851 0.69917 0.63322 0.0
H2096 H 0.79276 0.7936 0.61895 0.0
H2097 H 0.88505 0.82172 0.63251 0.0
H2098 H 0.79451 0.71855 0.633 0.0
H2099 H 0.77907 0.7401 0.64907 0.0
H2100 H 0.76748 0.75017 0.62955 0.0
H2101 H 0.91419 0.79433 0.65104 0.0
H2102 H 0.89112 0.77427 0.66554 0.0
H2103 H 0.90805 0.75272 0.64983 0.0
H2104 H 0.83252 0.70799 0.69333 0.0
H2105 H 0.8765 0.65708 0.65637 0.0
H2106 H 0.80027 0.76945 0.67028 0.0
H2107 H 0.83771 0.78034 0.67765 0.0
H2108 H 0.81124 0.75826 0.68976 0.0
H2109 H 0.84929 0.70604 0.62529 0.0
H2110 H 0.87582 0.67489 0.6304 0.0
H2111 H 0.88847 0.71505 0.63091 0.0
C2112 C 0.46748 0.5504 0.87813 0.0
C2113 C 0.45271 0.57711 0.8719 0.0
C2114 C 0.49286 0.55263 0.88853 0.0
C2115 C 0.50389 0.58234 0.89327 0.0
C2116 C 0.48847 0.60943 0.88755 0.0
C2117 C 0.46336 0.60654 0.87694 0.0
C2118 C 0.5084 0.52303 0.89417 0.0
C2119 C 0.4989 0.64164 0.89243 0.0
C2120 C 0.55684 0.59026 0.92927 0.0
C2121 C 0.58628 0.59537 0.92247 0.0
C2122 C 0.52993 0.58536 0.92 0.0
C2123 C 0.53249 0.58511 0.9035 0.0
C2124 C 0.56255 0.58854 0.8967 0.0
C2125 C 0.58879 0.59413 0.90621 0.0
C2126 C 0.4985 0.58235 0.92784 0.0
C2127 C 0.56687 0.58762 0.87928 0.0
H2128 H 0.45945 0.52739 0.87485 0.0
H2129 H 0.45253 0.62749 0.87241 0.0
H2130 H 0.53308 0.52253 0.89018 0.0
H2131 H 0.50867 0.52241 0.90706 0.0
H2132 H 0.4965 0.50165 0.88987 0.0
H2133 H 0.48324 0.66028 0.88793 0.0
H2134 H 0.49963 0.64323 0.90531 0.0
H2135 H 0.52292 0.64608 0.88807 0.0
H2136 H 0.55445 0.59224 0.94179 0.0
H2137 H 0.61129 0.59877 0.90085 0.0
H2138 H 0.48578 0.56165 0.92337 0.0
H2139 H 0.48409 0.60322 0.92511 0.0
H2140 H 0.50057 0.5803 0.94068 0.0
H2141 H 0.55595 0.56625 0.87441 0.0
H2142 H 0.59192 0.58802 0.87586 0.0
H2143 H 0.55506 0.60804 0.87392 0.0
C2144 C 0.68575 0.23656 0.10817 0.0
C2145 C 0.6667 0.2099 0.10991 0.0
C2146 C 0.68682 0.26017 0.1196 0.0
C2147 C 0.6687 0.25719 0.13331 0.0
C2148 C 0.65102 0.22947 0.13563 0.0
C2149 C 0.65011 0.20633 0.12393 0.0
C2150 C 0.70632 0.28898 0.11664 0.0
C2151 C 0.63194 0.2248 0.15023 0.0
C2152 C 0.67885 0.30948 0.16918 0.0
C2153 C 0.65287 0.32935 0.16787 0.0
C2154 C 0.68551 0.2869 0.15763 0.0
C2155 C 0.66564 0.2841 0.14448 0.0
C2156 C 0.64094 0.30588 0.1426 0.0
C2157 C 0.63477 0.32796 0.15433 0.0
C2158 C 0.71226 0.26449 0.16015 0.0
C2159 C 0.61946 0.30439 0.12872 0.0
H2160 H 0.6995 0.23942 0.09769 0.0
H2161 H 0.6354 0.18603 0.12559 0.0
H2162 H 0.6907 0.30923 0.11447 0.0
H2163 H 0.72067 0.29468 0.12698 0.0
H2164 H 0.72206 0.28616 0.10644 0.0
H2165 H 0.6218 0.20093 0.15096 0.0
H2166 H 0.64661 0.22886 0.16066 0.0
H2167 H 0.61258 0.24206 0.15055 0.0
H2168 H 0.69235 0.30972 0.17984 0.0
H2169 H 0.6142 0.3427 0.15346 0.0
H2170 H 0.72547 0.26064 0.14919 0.0
H2171 H 0.70286 0.24153 0.16392 0.0
H2172 H 0.72863 0.27302 0.16921 0.0
H2173 H 0.63326 0.30393 0.11778 0.0
H2174 H 0.60308 0.32454 0.12829 0.0
H2175 H 0.60556 0.28251 0.12919 0.0
C2176 C 0.95364 0.37071 0.4174 0.0
C2177 C 0.93072 0.39126 0.42329 0.0
C2178 C 0.97316 0.37877 0.40489 0.0
C2179 C 0.97006 0.40834 0.39769 0.0
C2180 C 0.94754 0.42972 0.40368 0.0
C2181 C 0.92816 0.42099 0.41642 0.0
C2182 C 0.99673 0.35507 0.39913 0.0
C2183 C 0.94373 0.46165 0.39649 0.0
C2184 C 0.03963 0.42554 0.37084 0.0
C2185 C 0.02892 0.4139 0.3565 0.0
C2186 C 0.02003 0.42634 0.38412 0.0
C2187 C 0.98888 0.41504 0.38319 0.0
C2188 C 0.97746 0.40505 0.36856 0.0
C2189 C 0.99741 0.40468 0.35549 0.0
C2190 C 0.03329 0.43767 0.39935 0.0
C2191 C 0.94467 0.39246 0.3669 0.0
H2192 H 0.9565 0.34778 0.42256 0.0
H2193 H 0.91096 0.43729 0.42091 0.0
H2194 H 0.99129 0.34844 0.38695 0.0
H2195 H 0.02053 0.36533 0.39917 0.0
H2196 H 0.99704 0.3335 0.40633 0.0
H2197 H 0.92659 0.47627 0.40293 0.0
H2198 H 0.96656 0.47394 0.39622 0.0
H2199 H 0.9358 0.45926 0.38427 0.0
H2200 H 0.06359 0.43341 0.3718 0.0
H2201 H 0.98855 0.39547 0.34466 0.0
H2202 H 0.03798 0.41735 0.40702 0.0
H2203 H 0.0163 0.45298 0.40545 0.0
H2204 H 0.0555 0.45071 0.39768 0.0
H2205 H 0.943 0.3695 0.37285 0.0
H2206 H 0.93795 0.38927 0.35453 0.0
H2207 H 0.92757 0.40837 0.37251 0.0
C2208 C 0.83257 0.21007 0.91465 0.0
C2209 C 0.81991 0.21475 0.9296 0.0
C2210 C 0.82897 0.23259 0.90271 0.0
C2211 C 0.81239 0.26076 0.90566 0.0
C2212 C 0.79893 0.26525 0.92057 0.0
C2213 C 0.80258 0.24228 0.93221 0.0
C2214 C 0.84336 0.22643 0.88696 0.0
C2215 C 0.78102 0.29472 0.92435 0.0
C2216 C 0.82673 0.33258 0.87963 0.0
C2217 C 0.80069 0.33212 0.86969 0.0
C2218 C 0.83087 0.30967 0.89132 0.0
C2219 C 0.80857 0.28534 0.89319 0.0
C2220 C 0.78207 0.28499 0.88333 0.0
C2221 C 0.77838 0.30831 0.87187 0.0
C2222 C 0.85932 0.31138 0.90163 0.0
C2223 C 0.75779 0.25952 0.88469 0.0
H2224 H 0.84608 0.18922 0.91233 0.0
H2225 H 0.79207 0.24619 0.9435 0.0
H2226 H 0.82516 0.22775 0.87781 0.0
H2227 H 0.861 0.24465 0.88427 0.0
H2228 H 0.85483 0.20315 0.88632 0.0
H2229 H 0.77226 0.29498 0.93652 0.0
H2230 H 0.79623 0.31543 0.92255 0.0
H2231 H 0.76081 0.2972 0.91639 0.0
H2232 H 0.84409 0.35072 0.87819 0.0
H2233 H 0.75831 0.30718 0.86422 0.0
H2234 H 0.87347 0.2898 0.90031 0.0
H2235 H 0.85202 0.31282 0.914 0.0
H2236 H 0.87432 0.33186 0.89887 0.0
H2237 H 0.7689 0.23636 0.88289 0.0
H2238 H 0.73862 0.26231 0.87611 0.0
H2239 H 0.7475 0.25949 0.89655 0.0
C2240 C 0.96137 0.5517 0.11395 0.0
C2241 C 0.93534 0.57178 0.11301 0.0
C2242 C 0.98325 0.55391 0.12616 0.0
C2243 C 0.9793 0.57666 0.13798 0.0
C2244 C 0.95277 0.59664 0.13732 0.0
C2245 C 0.93129 0.59406 0.12487 0.0
C2246 C 0.01101 0.53208 0.12625 0.0
C2247 C 0.94725 0.62103 0.1497 0.0
C2248 C 0.02291 0.56361 0.17647 0.0
C2249 C 0.04917 0.58318 0.17494 0.0
C2250 C 1.00002 0.56152 0.1647 0.0
C2251 C 0.00308 0.57948 0.1509 0.0
C2252 C 0.02955 0.59922 0.14924 0.0
C2253 C 0.05219 0.60077 0.16118 0.0
C2254 C 0.97248 0.53998 0.16705 0.0
C2255 C 0.03395 0.61889 0.13482 0.0
H2256 H 0.96512 0.53444 0.10491 0.0
H2257 H 0.91148 0.60979 0.12436 0.0
H2258 H 0.03297 0.5458 0.12554 0.0
H2259 H 0.01166 0.51873 0.13731 0.0
H2260 H 0.01054 0.51525 0.11642 0.0
H2261 H 0.92522 0.63424 0.1478 0.0
H2262 H 0.94626 0.60981 0.16133 0.0
H2263 H 0.96701 0.63781 0.14986 0.0
H2264 H 0.02026 0.54972 0.18693 0.0
H2265 H 0.07191 0.61638 0.15986 0.0
H2266 H 0.97213 0.52198 0.15776 0.0
H2267 H 0.95035 0.55339 0.16616 0.0
H2268 H 0.97307 0.528 0.17851 0.0
H2269 H 0.03545 0.60359 0.12443 0.0
H2270 H 0.0554 0.63348 0.13537 0.0
H2271 H 0.01348 0.63447 0.1332 0.0
C2272 C 0.63697 0.78233 0.41372 0.0
C2273 C 0.66349 0.78626 0.42316 0.0
C2274 C 0.63649 0.76003 0.40154 0.0
C2275 C 0.66308 0.74095 0.39863 0.0
C2276 C 0.68987 0.74491 0.40806 0.0
C2277 C 0.68981 0.76743 0.42002 0.0
C2278 C 0.6075 0.757 0.3917 0.0
C2279 C 0.71893 0.72557 0.40539 0.0
C2280 C 0.65496 0.66592 0.37411 0.0
C2281 C 0.66463 0.67621 0.35934 0.0
C2282 C 0.6544 0.68656 0.38701 0.0
C2283 C 0.6638 0.71826 0.38517 0.0
C2284 C 0.67453 0.72831 0.37039 0.0
C2285 C 0.67475 0.70734 0.35777 0.0
C2286 C 0.6429 0.67469 0.40252 0.0
C2287 C 0.68505 0.76161 0.36775 0.0
H2288 H 0.61641 0.79642 0.41593 0.0
H2289 H 0.71082 0.77045 0.42682 0.0
H2290 H 0.61319 0.76218 0.37937 0.0
H2291 H 0.59869 0.73263 0.39218 0.0
H2292 H 0.58856 0.77304 0.39555 0.0
H2293 H 0.73736 0.73038 0.41415 0.0
H2294 H 0.7131 0.70032 0.4058 0.0
H2295 H 0.72859 0.7305 0.39366 0.0
H2296 H 0.64648 0.64219 0.37543 0.0
H2297 H 0.68212 0.71566 0.34642 0.0
H2298 H 0.62175 0.68792 0.40609 0.0
H2299 H 0.66093 0.67863 0.41156 0.0
H2300 H 0.63707 0.64939 0.40221 0.0
H2301 H 0.66546 0.7779 0.37019 0.0
H2302 H 0.69333 0.76565 0.35566 0.0
H2303 H 0.70424 0.76757 0.37588 0.0
C2304 C 0.55307 0.45876 0.61546 0.0
C2305 C 0.57908 0.43858 0.61563 0.0
C2306 C 0.52915 0.45662 0.6267 0.0
C2307 C 0.53126 0.43419 0.63878 0.0
C2308 C 0.55766 0.41404 0.63921 0.0
C2309 C 0.58103 0.41624 0.62757 0.0
C2310 C 0.50128 0.47818 0.62549 0.0
C2311 C 0.56126 0.39013 0.65198 0.0
C2312 C 0.4844 0.45223 0.67569 0.0
C2313 C 0.45844 0.43209 0.67454 0.0
C2314 C 0.50833 0.45255 0.66439 0.0
C2315 C 0.50636 0.43281 0.65121 0.0
C2316 C 0.48001 0.41289 0.6497 0.0
C2317 C 0.45664 0.41255 0.66138 0.0
C2318 C 0.53591 0.4741 0.66661 0.0
C2319 C 0.47645 0.39191 0.6357 0.0
H2320 H 0.55076 0.47575 0.60618 0.0
H2321 H 0.60071 0.40029 0.62775 0.0
H2322 H 0.47943 0.46427 0.6249 0.0
H2323 H 0.49968 0.49309 0.63602 0.0
H2324 H 0.50251 0.49358 0.6151 0.0
H2325 H 0.5832 0.37643 0.65082 0.0
H2326 H 0.56118 0.40196 0.66347 0.0
H2327 H 0.54118 0.37374 0.65186 0.0
H2328 H 0.48634 0.46792 0.68548 0.0
H2329 H 0.43719 0.3966 0.6602 0.0
H2330 H 0.53679 0.49148 0.65704 0.0
H2331 H 0.558 0.46053 0.66616 0.0
H2332 H 0.53488 0.48687 0.67785 0.0
H2333 H 0.47668 0.40613 0.6249 0.0
H2334 H 0.45444 0.37814 0.63607 0.0
H2335 H 0.49645 0.37548 0.63498 0.0
C2336 C 0.14131 0.21106 0.41705 0.0
C2337 C 0.1689 0.1931 0.41673 0.0
C2338 C 0.13752 0.23762 0.40749 0.0
C2339 C 0.16198 0.24706 0.39736 0.0
C2340 C 0.18987 0.22912 0.39696 0.0
C2341 C 0.19287 0.2024 0.4065 0.0
C2342 C 0.10728 0.25575 0.40831 0.0
C2343 C 0.21688 0.23845 0.38663 0.0
C2344 C 0.1443 0.30135 0.36287 0.0
C2345 C 0.14939 0.33129 0.36919 0.0
C2346 C 0.14749 0.27393 0.37194 0.0
C2347 C 0.15852 0.27598 0.38744 0.0
C2348 C 0.1658 0.30589 0.39355 0.0
C2349 C 0.16034 0.33299 0.38458 0.0
C2350 C 0.13829 0.24278 0.36504 0.0
C2351 C 0.1793 0.30938 0.40966 0.0
H2352 H 0.1227 0.20488 0.42501 0.0
H2353 H 0.2142 0.18883 0.40595 0.0
H2354 H 0.11188 0.27999 0.41224 0.0
H2355 H 0.09666 0.25725 0.39656 0.0
H2356 H 0.09011 0.24493 0.41639 0.0
H2357 H 0.23737 0.22275 0.38803 0.0
H2358 H 0.20956 0.23801 0.37427 0.0
H2359 H 0.22418 0.26273 0.38932 0.0
H2360 H 0.13749 0.29904 0.3509 0.0
H2361 H 0.16515 0.35569 0.38962 0.0
H2362 H 0.1196 0.23198 0.37223 0.0
H2363 H 0.15846 0.22651 0.36515 0.0
H2364 H 0.12968 0.24499 0.3529 0.0
H2365 H 0.16153 0.30274 0.41847 0.0
H2366 H 0.18701 0.3337 0.41204 0.0
H2367 H 0.19958 0.29348 0.41115 0.0
C2368 C 0.55309 0.40844 0.16461 0.0
C2369 C 0.55222 0.43051 0.17676 0.0
C2370 C 0.52959 0.40736 0.15312 0.0
C2371 C 0.50412 0.42858 0.15374 0.0
C2372 C 0.50297 0.45079 0.16595 0.0
C2373 C 0.52699 0.45165 0.17715 0.0
C2374 C 0.53218 0.38354 0.14023 0.0
C2375 C 0.47638 0.47388 0.16712 0.0
C2376 C 0.46406 0.44653 0.11515 0.0
C2377 C 0.43768 0.42698 0.11548 0.0
C2378 C 0.48514 0.44788 0.12764 0.0
C2379 C 0.48006 0.42907 0.14097 0.0
C2380 C 0.45271 0.4102 0.1417 0.0
C2381 C 0.43178 0.40943 0.12895 0.0
C2382 C 0.51369 0.46847 0.12624 0.0
C2383 C 0.44624 0.38985 0.15567 0.0
H2384 H 0.57184 0.3915 0.16414 0.0
H2385 H 0.52592 0.46906 0.18626 0.0
H2386 H 0.51094 0.36868 0.13999 0.0
H2387 H 0.53371 0.39562 0.12882 0.0
H2388 H 0.55298 0.3682 0.14153 0.0
H2389 H 0.47783 0.4885 0.17777 0.0
H2390 H 0.47649 0.48952 0.15682 0.0
H2391 H 0.45369 0.46133 0.16716 0.0
H2392 H 0.46886 0.46015 0.10477 0.0
H2393 H 0.41182 0.39386 0.12922 0.0
H2394 H 0.53506 0.45377 0.12616 0.0
H2395 H 0.51533 0.48432 0.13641 0.0
H2396 H 0.51345 0.48286 0.11548 0.0
H2397 H 0.4645 0.37153 0.15658 0.0
H2398 H 0.42304 0.37829 0.15499 0.0
H2399 H 0.44724 0.40398 0.16648 0.0
C2400 C 0.29862 0.78619 0.91297 0.0
C2401 C 0.32692 0.8015 0.91641 0.0
C2402 C 0.29792 0.75781 0.90454 0.0
C2403 C 0.32618 0.74395 0.8993 0.0
C2404 C 0.35478 0.75934 0.9026 0.0
C2405 C 0.35481 0.78771 0.91103 0.0
C2406 C 0.26684 0.74239 0.90143 0.0
C2407 C 0.38553 0.7458 0.89719 0.0
C2408 C 0.33158 0.65628 0.8897 0.0
C2409 C 0.32984 0.656 0.87336 0.0
C2410 C 0.32929 0.68443 0.89826 0.0
C2411 C 0.32596 0.71344 0.8904 0.0
C2412 C 0.32323 0.71322 0.87395 0.0
C2413 C 0.32438 0.68462 0.86574 0.0
C2414 C 0.33117 0.68314 0.91578 0.0
C2415 C 0.32001 0.74336 0.86495 0.0
H2416 H 0.27684 0.79597 0.91713 0.0
H2417 H 0.37687 0.79916 0.91329 0.0
H2418 H 0.26339 0.7395 0.88873 0.0
H2419 H 0.26648 0.71869 0.90668 0.0
H2420 H 0.24692 0.75606 0.9062 0.0
H2421 H 0.40574 0.76069 0.90045 0.0
H2422 H 0.38891 0.72225 0.90233 0.0
H2423 H 0.38536 0.74297 0.88436 0.0
H2424 H 0.33538 0.6345 0.89585 0.0
H2425 H 0.32158 0.68486 0.85323 0.0
H2426 H 0.31114 0.69584 0.92102 0.0
H2427 H 0.35283 0.6949 0.91974 0.0
H2428 H 0.33119 0.65876 0.92024 0.0
H2429 H 0.29882 0.75615 0.8688 0.0
H2430 H 0.31852 0.7394 0.8522 0.0
H2431 H 0.34038 0.75868 0.86731 0.0
C2432 C 0.06858 0.60217 0.62297 0.0
C2433 C 0.06335 0.582 0.61036 0.0
C2434 C 0.04831 0.60236 0.63601 0.0
C2435 C 0.02225 0.58176 0.63657 0.0
C2436 C 0.01772 0.56052 0.62415 0.0
C2437 C 0.03812 0.561 0.61126 0.0
C2438 C 0.0542 0.62533 0.64898 0.0
C2439 C 0.99072 0.53779 0.62423 0.0
C2440 C 0.9841 0.56297 0.67579 0.0
C2441 C 0.95769 0.5826 0.67597 0.0
C2442 C 0.00513 0.56255 0.66316 0.0
C2443 C 0.99981 0.58209 0.65013 0.0
C2444 C 0.97265 0.60126 0.64996 0.0
C2445 C 0.95198 0.6013 0.66284 0.0
C2446 C 0.03337 0.54142 0.66388 0.0
C2447 C 0.96571 0.6222 0.63627 0.0
H2448 H 0.08759 0.61887 0.62231 0.0
H2449 H 0.03374 0.54537 0.60159 0.0
H2450 H 0.03413 0.64164 0.64999 0.0
H2451 H 0.05619 0.61278 0.66024 0.0
H2452 H 0.07583 0.6392 0.64707 0.0
H2453 H 0.99106 0.52199 0.61398 0.0
H2454 H 0.99127 0.52332 0.63494 0.0
H2455 H 0.9683 0.55083 0.62428 0.0
H2456 H 0.98859 0.54804 0.68572 0.0
H2457 H 0.93194 0.61679 0.66285 0.0
H2458 H 0.05504 0.55556 0.66306 0.0
H2459 H 0.03336 0.52511 0.65386 0.0
H2460 H 0.03415 0.5275 0.67479 0.0
H2461 H 0.98511 0.63909 0.6346 0.0
H2462 H 0.94356 0.63544 0.63779 0.0
H2463 H 0.96408 0.60807 0.62548 0.0
C2464 C 0.17312 0.66091 0.14963 0.0
C2465 C 0.17495 0.66092 0.16595 0.0
C2466 C 0.17225 0.6888 0.14096 0.0
C2467 C 0.1734 0.71803 0.14867 0.0
C2468 C 0.17452 0.71842 0.16519 0.0
C2469 C 0.17537 0.68994 0.17362 0.0
C2470 C 0.17086 0.68688 0.12343 0.0
C2471 C 0.17564 0.74893 0.17395 0.0
C2472 C 0.20625 0.78373 0.12326 0.0
C2473 C 0.17914 0.7984 0.11764 0.0
C2474 C 0.20472 0.75876 0.13395 0.0
C2475 C 0.17529 0.74771 0.13922 0.0
C2476 C 0.14783 0.76326 0.13412 0.0
C2477 C 0.15006 0.78838 0.12346 0.0
C2478 C 0.2347 0.74338 0.13914 0.0
C2479 C 0.11593 0.75248 0.13937 0.0
H2480 H 0.17252 0.63877 0.1435 0.0
H2481 H 0.17684 0.69056 0.18616 0.0
H2482 H 0.15077 0.70066 0.11903 0.0
H2483 H 0.19239 0.69712 0.11833 0.0
H2484 H 0.16856 0.66244 0.11922 0.0
H2485 H 0.17349 0.74552 0.18672 0.0
H2486 H 0.19809 0.76094 0.17149 0.0
H2487 H 0.15662 0.76466 0.17 0.0
H2488 H 0.22886 0.79158 0.11914 0.0
H2489 H 0.12891 0.79933 0.11921 0.0
H2490 H 0.23583 0.71921 0.1345 0.0
H2491 H 0.23537 0.74172 0.15202 0.0
H2492 H 0.25572 0.75631 0.1351 0.0
H2493 H 0.11065 0.72948 0.13402 0.0
H2494 H 0.09726 0.76923 0.13603 0.0
H2495 H 0.11539 0.74927 0.15217 0.0
C2496 C 0.92831 0.40515 0.88399 0.0
C2497 C 0.9376 0.40117 0.86849 0.0
C2498 C 0.95014 0.40318 0.89621 0.0
C2499 C 0.98184 0.39581 0.89291 0.0
C2500 C 0.99103 0.39085 0.87723 0.0
C2501 C 0.96895 0.39421 0.86522 0.0
C2502 C 0.9394 0.40966 0.91263 0.0
C2503 C 0.02415 0.38175 0.87316 0.0
C2504 C 0.0459 0.4164 0.92219 0.0
C2505 C 0.04841 0.38867 0.93079 0.0
C2506 C 0.02414 0.41919 0.90996 0.0
C2507 C 0.0053 0.3932 0.90581 0.0
C2508 C 0.00871 0.36476 0.91414 0.0
C2509 C 0.02966 0.36309 0.92673 0.0
C2510 C 0.02062 0.45025 0.90181 0.0
C2511 C 0.99019 0.33608 0.90975 0.0
H2512 H 0.9041 0.41076 0.88645 0.0
H2513 H 0.976 0.39096 0.85321 0.0
H2514 H 0.94287 0.38863 0.91998 0.0
H2515 H 0.95363 0.42874 0.91774 0.0
H2516 H 0.91436 0.41645 0.91318 0.0
H2517 H 0.02715 0.37709 0.86054 0.0
H2518 H 0.04047 0.40066 0.87656 0.0
H2519 H 0.03098 0.3605 0.87975 0.0
H2520 H 0.06005 0.43635 0.92545 0.0
H2521 H 0.03161 0.3416 0.93336 0.0
H2522 H 0.99614 0.45858 0.90291 0.0
H2523 H 0.02564 0.44764 0.88922 0.0
H2524 H 0.03645 0.46838 0.90664 0.0
H2525 H 0.9649 0.3404 0.91161 0.0
H2526 H 0.99711 0.31522 0.91665 0.0
H2527 H 0.99353 0.33081 0.89722 0.0
C2528 C 0.31572 0.22875 0.61476 0.0
C2529 C 0.33563 0.20282 0.61665 0.0
C2530 C 0.31633 0.25441 0.62509 0.0
C2531 C 0.33745 0.25457 0.63777 0.0
C2532 C 0.35701 0.22809 0.64004 0.0
C2533 C 0.3558 0.20263 0.62954 0.0
C2534 C 0.29496 0.28184 0.62214 0.0
C2535 C 0.38 0.22704 0.65331 0.0
C2536 C 0.36745 0.33182 0.65462 0.0
C2537 C 0.35054 0.33467 0.66857 0.0
C2538 C 0.36254 0.30672 0.64429 0.0
C2539 C 0.34048 0.28313 0.64804 0.0
C2540 C 0.32235 0.28652 0.66183 0.0
C2541 C 0.32748 0.31228 0.67189 0.0
C2542 C 0.3822 0.3047 0.6297 0.0
C2543 C 0.29881 0.26196 0.66644 0.0
H2544 H 0.29975 0.22917 0.60501 0.0
H2545 H 0.37152 0.18307 0.63116 0.0
H2546 H 0.28117 0.28725 0.63275 0.0
H2547 H 0.3091 0.30286 0.61936 0.0
H2548 H 0.27858 0.27748 0.61238 0.0
H2549 H 0.39214 0.20414 0.65413 0.0
H2550 H 0.39784 0.2456 0.65173 0.0
H2551 H 0.36785 0.23171 0.66449 0.0
H2552 H 0.38581 0.3486 0.65214 0.0
H2553 H 0.31502 0.31363 0.68287 0.0
H2554 H 0.36706 0.30141 0.61937 0.0
H2555 H 0.39794 0.28413 0.6304 0.0
H2556 H 0.39672 0.32593 0.62789 0.0
H2557 H 0.28275 0.257 0.65664 0.0
H2558 H 0.28476 0.26909 0.67673 0.0
H2559 H 0.31115 0.23984 0.66924 0.0
C2560 C 0.44413 0.56908 0.42507 0.0
C2561 C 0.42384 0.59302 0.42033 0.0
C2562 C 0.46958 0.55969 0.41566 0.0
C2563 C 0.4748 0.5745 0.4011 0.0
C2564 C 0.45284 0.59692 0.39578 0.0
C2565 C 0.42794 0.6061 0.40551 0.0
C2566 C 0.49231 0.53582 0.4219 0.0
C2567 C 0.45696 0.61304 0.38029 0.0
C2568 C 0.55778 0.58344 0.38481 0.0
C2569 C 0.55894 0.56011 0.37335 0.0
C2570 C 0.53097 0.58776 0.39417 0.0
C2571 C 0.50429 0.56854 0.39197 0.0
C2572 C 0.50548 0.54463 0.3806 0.0
C2573 C 0.53267 0.54067 0.3715 0.0
C2574 C 0.53108 0.6133 0.40628 0.0
C2575 C 0.47765 0.52379 0.3777 0.0
H2576 H 0.44185 0.55968 0.43674 0.0
H2577 H 0.413 0.62534 0.402 0.0
H2578 H 0.49781 0.51803 0.41292 0.0
H2579 H 0.51454 0.5476 0.42498 0.0
H2580 H 0.48314 0.52379 0.43242 0.0
H2581 H 0.43612 0.6271 0.37705 0.0
H2582 H 0.4775 0.62882 0.38079 0.0
H2583 H 0.46149 0.59564 0.37098 0.0
H2584 H 0.5779 0.59843 0.38645 0.0
H2585 H 0.53285 0.52292 0.36253 0.0
H2586 H 0.52506 0.60345 0.41785 0.0
H2587 H 0.51305 0.63103 0.40341 0.0
H2588 H 0.5541 0.62519 0.4071 0.0
H2589 H 0.46998 0.5126 0.38871 0.0
H2590 H 0.48276 0.50521 0.36904 0.0
H2591 H 0.45779 0.53805 0.3734 0.0
C2592 C 0.49603 0.31428 0.23077 0.0
C2593 C 0.52056 0.32722 0.23941 0.0
C2594 C 0.47766 0.29067 0.23724 0.0
C2595 C 0.48571 0.27909 0.25214 0.0
C2596 C 0.50378 0.29781 0.26212 0.0
C2597 C 0.52055 0.32272 0.25565 0.0
C2598 C 0.45505 0.27371 0.22678 0.0
C2599 C 0.51022 0.28825 0.27867 0.0
C2600 C 0.45467 0.1989 0.25114 0.0
C2601 C 0.47653 0.18646 0.24066 0.0
C2602 C 0.45948 0.22832 0.25774 0.0
C2603 C 0.48692 0.24478 0.25379 0.0
C2604 C 0.51177 0.22896 0.24603 0.0
C2605 C 0.50581 0.2001 0.23906 0.0
C2606 C 0.43307 0.24322 0.26672 0.0
C2607 C 0.54275 0.24449 0.24269 0.0
H2608 H 0.49371 0.3189 0.21846 0.0
H2609 H 0.53692 0.33531 0.26291 0.0
H2610 H 0.46749 0.25428 0.2209 0.0
H2611 H 0.43522 0.26389 0.2335 0.0
H2612 H 0.44567 0.28952 0.21765 0.0
H2613 H 0.51263 0.3092 0.28619 0.0
H2614 H 0.49149 0.27299 0.28337 0.0
H2615 H 0.53264 0.27522 0.27912 0.0
H2616 H 0.43212 0.18771 0.25252 0.0
H2617 H 0.52273 0.18989 0.23114 0.0
H2618 H 0.41358 0.24872 0.25866 0.0
H2619 H 0.44027 0.26499 0.27271 0.0
H2620 H 0.42385 0.22646 0.27547 0.0
H2621 H 0.54025 0.26054 0.23263 0.0
H2622 H 0.56105 0.22703 0.23971 0.0
H2623 H 0.55085 0.25819 0.25284 0.0
C2624 C 0.99179 0.33963 0.50963 0.0
C2625 C 0.96622 0.32278 0.50389 0.0
C2626 C 0.01945 0.32396 0.51335 0.0
C2627 C 0.02098 0.2915 0.51065 0.0
C2628 C 0.99303 0.27415 0.50898 0.0
C2629 C 0.96563 0.29022 0.50542 0.0
C2630 C 0.04828 0.34263 0.51707 0.0
C2631 C 0.99325 0.23899 0.5075 0.0
C2632 C 0.06835 0.26151 0.47759 0.0
C2633 C 0.08476 0.23789 0.48505 0.0
C2634 C 0.05054 0.28255 0.48622 0.0
C2635 C 0.04875 0.27889 0.50268 0.0
C2636 C 0.06839 0.25726 0.5103 0.0
C2637 C 0.08629 0.23674 0.5013 0.0
C2638 C 0.0311 0.30621 0.47744 0.0
C2639 C 0.06865 0.25357 0.52775 0.0
H2640 H 0.99147 0.36496 0.50936 0.0
H2641 H 0.9454 0.27707 0.50161 0.0
H2642 H 0.06588 0.32816 0.52324 0.0
H2643 H 0.05889 0.35136 0.5061 0.0
H2644 H 0.04221 0.36323 0.52434 0.0
H2645 H 0.96938 0.22901 0.50865 0.0
H2646 H 0.00267 0.23231 0.49591 0.0
H2647 H 0.00841 0.22841 0.51651 0.0
H2648 H 0.06796 0.26225 0.46497 0.0
H2649 H 0.09962 0.21837 0.50693 0.0
H2650 H 0.03379 0.32979 0.48258 0.0
H2651 H 0.00608 0.29959 0.47803 0.0
H2652 H 0.03783 0.30767 0.46497 0.0
H2653 H 0.05747 0.27352 0.53385 0.0
H2654 H 0.09309 0.25118 0.53192 0.0
H2655 H 0.05626 0.23172 0.53099 0.0
C2656 C 0.93066 0.7397 0.76006 0.0
C2657 C 0.94185 0.71548 0.7507 0.0
C2658 C 0.95088 0.76364 0.76463 0.0
C2659 C 0.98166 0.76374 0.75867 0.0
C2660 C 0.99397 0.73668 0.75135 0.0
C2661 C 0.97364 0.71257 0.74752 0.0
C2662 C 0.93831 0.79053 0.77406 0.0
C2663 C 0.02715 0.73516 0.74528 0.0
C2664 C 0.01017 0.82615 0.73266 0.0
C2665 C 0.03946 0.83075 0.73919 0.0
C2666 C 0.98829 0.80753 0.7403 0.0
C2667 C 0.99647 0.79368 0.75478 0.0
C2668 C 0.0242 0.80261 0.76244 0.0
C2669 C 0.04591 0.82076 0.75434 0.0
C2670 C 0.95857 0.79918 0.73177 0.0
C2671 C 0.03271 0.79034 0.77832 0.0
H2672 H 0.90601 0.74093 0.76295 0.0
H2673 H 0.98193 0.69301 0.7406 0.0
H2674 H 0.9573 0.80287 0.78033 0.0
H2675 H 0.92653 0.80748 0.76626 0.0
H2676 H 0.9207 0.78214 0.78261 0.0
H2677 H 0.03328 0.71155 0.74083 0.0
H2678 H 0.03024 0.75219 0.73564 0.0
H2679 H 0.04386 0.74131 0.7546 0.0
H2680 H 0.00553 0.8347 0.721 0.0
H2681 H 0.06864 0.82538 0.75941 0.0
H2682 H 0.93799 0.80235 0.73944 0.0
H2683 H 0.95934 0.77428 0.72815 0.0
H2684 H 0.95511 0.81372 0.72119 0.0
H2685 H 0.01228 0.78043 0.78458 0.0
H2686 H 0.04294 0.80941 0.78544 0.0
H2687 H 0.0509 0.77199 0.77716 0.0
C2688 C 0.5619 0.70742 1.0088 0.0
C2689 C 0.58113 0.71239 0.99583 0.0
C2690 C 0.53898 0.72943 1.01254 0.0
C2691 C 0.53548 0.75558 1.00272 0.0
C2692 C 0.56 0.76422 0.99253 0.0
C2693 C 0.58277 0.74201 0.98902 0.0
C2694 C 0.51464 0.72135 0.02458 0.0
C2695 C 0.55846 0.7936 0.98285 0.0
C2696 C 0.46349 0.75889 0.97826 0.0
C2697 C 0.45221 0.78809 0.98238 0.0
C2698 C 0.48917 0.74646 0.98599 0.0
C2699 C 0.5037 0.76427 0.99797 0.0
C2700 C 0.49021 0.79256 1.0031 0.0
C2701 C 0.46446 0.80433 0.99509 0.0
C2702 C 0.50227 0.71579 0.98017 0.0
C2703 C 0.50401 0.8118 1.01608 0.0
H2704 H 0.5616 0.68482 1.01452 0.0
H2705 H 0.59903 0.74622 0.97954 0.0
H2706 H 0.50396 0.74279 0.02956 0.0
H2707 H 0.49585 0.70739 1.01904 0.0
H2708 H 0.52494 0.70712 0.03408 0.0
H2709 H 0.58174 0.79983 0.97801 0.0
H2710 H 0.54216 0.78994 0.97298 0.0
H2711 H 0.54962 0.81347 0.98986 0.0
H2712 H 0.45345 0.7468 0.96837 0.0
H2713 H 0.45506 0.82709 0.99816 0.0
H2714 H 0.50637 0.69944 0.98995 0.0
H2715 H 0.52482 0.72011 0.9742 0.0
H2716 H 0.48644 0.70411 0.97176 0.0
H2717 H 0.52009 0.79814 0.02356 0.0
H2718 H 0.48507 0.82171 0.02344 0.0
H2719 H 0.51703 0.83182 1.01102 0.0
C2720 C 0.41842 0.76953 0.30012 0.0
C2721 C 0.43629 0.79696 0.29952 0.0
C2722 C 0.43202 0.74099 0.2962 0.0
C2723 C 0.46358 0.74086 0.29144 0.0
C2724 C 0.47765 0.76895 0.28636 0.0
C2725 C 0.46419 0.7973 0.29097 0.0
C2726 C 0.41507 0.71116 0.30025 0.0
C2727 C 0.5098 0.76902 0.2792 0.0
C2728 C 0.5148 0.70099 0.3208 0.0
C2729 C 0.52147 0.67209 0.31379 0.0
C2730 C 0.49662 0.72347 0.31347 0.0
C2731 C 0.48403 0.71716 0.29856 0.0
C2732 C 0.48962 0.6881 0.29139 0.0
C2733 C 0.50807 0.66592 0.29908 0.0
C2734 C 0.49125 0.7541 0.32195 0.0
C2735 C 0.47658 0.67988 0.2756 0.0
H2736 H 0.39556 0.76982 0.30561 0.0
H2737 H 0.47734 0.81878 0.28964 0.0
H2738 H 0.41809 0.69376 0.29082 0.0
H2739 H 0.42506 0.70108 0.31106 0.0
H2740 H 0.38969 0.71517 0.30215 0.0
H2741 H 0.5129 0.78961 0.27146 0.0
H2742 H 0.52759 0.77043 0.28855 0.0
H2743 H 0.51396 0.74727 0.27245 0.0
H2744 H 0.52381 0.70708 0.33204 0.0
H2745 H 0.51218 0.64423 0.29305 0.0
H2746 H 0.46594 0.75912 0.32287 0.0
H2747 H 0.50267 0.7735 0.31555 0.0
H2748 H 0.50092 0.75405 0.33393 0.0
H2749 H 0.45795 0.66205 0.27707 0.0
H2750 H 0.4951 0.66914 0.26827 0.0
H2751 H 0.46674 0.70024 0.2693 0.0
C2752 C 0.50315 0.30383 0.55888 0.0
C2753 C 0.50469 0.33396 0.56512 0.0
C2754 C 0.47606 0.28611 0.56062 0.0
C2755 C 0.45075 0.29888 0.56921 0.0
C2756 C 0.44984 0.3312 0.57233 0.0
C2757 C 0.47711 0.34867 0.57016 0.0
C2758 C 0.47695 0.25213 0.55583 0.0
C2759 C 0.4221 0.34634 0.58009 0.0
C2760 C 0.40405 0.22897 0.57776 0.0
C2761 C 0.4236 0.21619 0.58924 0.0
C2762 C 0.40857 0.25954 0.57256 0.0
C2763 C 0.43299 0.27713 0.57914 0.0
C2764 C 0.44782 0.26653 0.59296 0.0
C2765 C 0.4432 0.23566 0.59777 0.0
C2766 C 0.3905 0.27079 0.5586 0.0
C2767 C 0.47241 0.28575 0.60111 0.0
H2768 H 0.52404 0.29257 0.55445 0.0
H2769 H 0.47775 0.37278 0.57404 0.0
H2770 H 0.48091 0.23724 0.56622 0.0
H2771 H 0.45446 0.24509 0.55052 0.0
H2772 H 0.49601 0.24739 0.54735 0.0
H2773 H 0.41868 0.37041 0.57553 0.0
H2774 H 0.40035 0.33271 0.57833 0.0
H2775 H 0.4265 0.34824 0.59277 0.0
H2776 H 0.38744 0.21413 0.57176 0.0
H2777 H 0.45732 0.22597 0.60706 0.0
H2778 H 0.39979 0.25935 0.54797 0.0
H2779 H 0.39206 0.2965 0.55708 0.0
H2780 H 0.36554 0.264 0.55971 0.0
H2781 H 0.49429 0.28565 0.59414 0.0
H2782 H 0.47782 0.27633 0.61285 0.0
H2783 H 0.46462 0.31034 0.60237 0.0
C2784 C 0.0247 0.17856 0.79403 0.0
C2785 C 0.03257 0.16054 0.80702 0.0
C2786 C 0.99426 0.18998 0.79246 0.0
C2787 C 0.97234 0.18352 0.80438 0.0
C2788 C 0.97851 0.15975 0.81535 0.0
C2789 C 0.00906 0.14871 0.81671 0.0
C2790 C 0.98753 0.21366 0.77992 0.0
C2791 C 0.95477 0.15068 0.82753 0.0
C2792 C 0.94555 0.25735 0.82378 0.0
C2793 C 0.91443 0.25872 0.81925 0.0
C2794 C 0.96444 0.23274 0.81901 0.0
C2795 C 0.95165 0.20913 0.8093 0.0
C2796 C 0.91995 0.21045 0.8047 0.0
C2797 C 0.90144 0.23535 0.80993 0.0
C2798 C 0.99818 0.23253 0.82429 0.0
C2799 C 0.90542 0.18594 0.79438 0.0
H2800 H 0.04285 0.18664 0.78618 0.0
H2801 H 0.01513 0.1333 0.82628 0.0
H2802 H 0.96257 0.213 0.77647 0.0
H2803 H 0.99276 0.23742 0.78439 0.0
H2804 H 0.00238 0.20953 0.76949 0.0
H2805 H 0.96003 0.12731 0.83254 0.0
H2806 H 0.95523 0.16807 0.83711 0.0
H2807 H 0.93088 0.15044 0.82256 0.0
H2808 H 0.95515 0.2759 0.83092 0.0
H2809 H 0.87717 0.23707 0.80639 0.0
H2810 H 0.01404 0.23345 0.81409 0.0
H2811 H 0.00326 0.2108 0.83085 0.0
H2812 H 0.00383 0.25269 0.83193 0.0
H2813 H 0.92276 0.17498 0.78647 0.0
H2814 H 0.88621 0.19604 0.7873 0.0
H2815 H 0.89518 0.16732 0.8018 0.0
C2816 C 0.94032 0.75084 0.06565 0.0
C2817 C 0.93344 0.72023 0.06156 0.0
C2818 C 0.96374 0.76683 0.05766 0.0
C2819 C 0.9804 0.75101 0.04567 0.0
C2820 C 0.96932 0.72237 0.03979 0.0
C2821 C 0.94584 0.70697 0.048 0.0
C2822 C 0.97394 0.79829 0.06382 0.0
C2823 C 0.98502 0.70576 0.02642 0.0
C2824 C 0.04673 0.8035 0.03956 0.0
C2825 C 0.06373 0.7951 0.05284 0.0
C2826 C 0.02157 0.78524 0.03475 0.0
C2827 C 0.01347 0.75895 0.04375 0.0
C2828 C 0.03435 0.7473 0.05518 0.0
C2829 C 0.05929 0.76598 0.05976 0.0
C2830 C 0.00115 0.79673 1.02168 0.0
C2831 C 0.0276 0.71792 0.06436 0.0
H2832 H 0.9298 0.76094 0.07599 0.0
H2833 H 0.93935 0.68336 0.04471 0.0
H2834 H 0.99587 0.79557 0.07056 0.0
H2835 H 0.97855 0.81475 0.05413 0.0
H2836 H 0.95603 0.80883 0.0716 0.0
H2837 H 0.96723 0.69429 1.01897 0.0
H2838 H 0.99926 0.72185 1.01918 0.0
H2839 H 1.00045 0.68707 0.03101 0.0
H2840 H 0.05098 0.82577 0.0339 0.0
H2841 H 0.07361 0.75912 0.06959 0.0
H2842 H 0.98437 0.81427 0.02624 0.0
H2843 H 0.98766 0.77737 1.01635 0.0
H2844 H 0.01548 0.80832 1.01256 0.0
H2845 H 0.00814 0.72233 0.07264 0.0
H2846 H 0.04826 0.71008 0.07114 0.0
H2847 H 0.02046 0.69869 0.05651 0.0
C2848 C 0.41353 0.73747 0.79886 0.0
C2849 C 0.4274 0.70779 0.79964 0.0
C2850 C 0.43215 0.76375 0.79629 0.0
C2851 C 0.46455 0.75934 0.79424 0.0
C2852 C 0.47621 0.72952 0.79035 0.0
C2853 C 0.45754 0.70357 0.7935 0.0
C2854 C 0.41854 0.79576 0.79906 0.0
C2855 C 0.51019 0.72455 0.78637 0.0
C2856 C 0.5223 0.82336 0.80316 0.0
C2857 C 0.5289 0.81673 0.81878 0.0
C2858 C 0.50102 0.80516 0.79486 0.0
C2859 C 0.48577 0.78039 0.8026 0.0
C2860 C 0.49187 0.77427 0.8186 0.0
C2861 C 0.51367 0.79248 0.82643 0.0
C2862 C 0.49533 0.81262 0.77793 0.0
C2863 C 0.47618 0.74801 0.82747 0.0
H2864 H 0.38938 0.74059 0.80236 0.0
H2865 H 0.46829 0.68066 0.79323 0.0
H2866 H 0.42246 0.80249 0.81138 0.0
H2867 H 0.43012 0.81339 0.79155 0.0
H2868 H 0.39298 0.79609 0.79683 0.0
H2869 H 0.51342 0.70287 0.77944 0.0
H2870 H 0.51971 0.74472 0.77976 0.0
H2871 H 0.5238 0.72207 0.79729 0.0
H2872 H 0.53464 0.84211 0.79727 0.0
H2873 H 0.51913 0.78764 0.83852 0.0
H2874 H 0.47707 0.83099 0.77715 0.0
H2875 H 0.48733 0.79202 0.77121 0.0
H2876 H 0.51683 0.82201 0.77236 0.0
H2877 H 0.45042 0.7499 0.82651 0.0
H2878 H 0.48229 0.7481 0.84002 0.0
H2879 H 0.48346 0.72515 0.82259 0.0
C2880 C 0.9438 0.80199 0.5347 0.0
C2881 C 0.94443 0.83356 0.53879 0.0
C2882 C 0.97139 0.78449 0.53485 0.0
C2883 C 0.99946 0.79918 0.53957 0.0
C2884 C 0.00092 0.83209 0.54069 0.0
C2885 C 0.97309 0.84915 0.54007 0.0
C2886 C 0.96931 0.74954 0.53278 0.0
C2887 C 0.03049 0.84864 0.54549 0.0
C2888 C 0.03685 0.75198 0.57145 0.0
C2889 C 0.06114 0.73727 0.56343 0.0
C2890 C 0.01761 0.77351 0.56391 0.0
C2891 C 0.02277 0.78016 0.54792 0.0
C2892 C 0.04823 0.76653 0.53997 0.0
C2893 C 0.06729 0.74523 0.54788 0.0
C2894 C 0.99067 0.78767 0.5729 0.0
C2895 C 0.05474 0.77362 0.52306 0.0
H2896 H 0.92149 0.7902 0.53355 0.0
H2897 H 0.97342 0.87377 0.54313 0.0
H2898 H 0.99064 0.74022 0.52707 0.0
H2899 H 0.96716 0.73828 0.54437 0.0
H2900 H 0.94858 0.74292 0.52576 0.0
H2901 H 0.03014 0.87357 0.54187 0.0
H2902 H 0.03255 0.84784 0.55835 0.0
H2903 H 0.05145 0.8372 0.54047 0.0
H2904 H 0.03241 0.74594 0.58351 0.0
H2905 H 0.08607 0.73364 0.54166 0.0
H2906 H 0.96834 0.77809 0.56843 0.0
H2907 H 0.99008 0.81341 0.57137 0.0
H2908 H 0.99199 0.78248 0.58555 0.0
H2909 H 0.03314 0.77141 0.51604 0.0
H2910 H 0.07289 0.75794 0.51808 0.0
H2911 H 0.06297 0.79809 0.52191 0.0
C2912 C 0.99528 0.18679 0.33378 0.0
C2913 C 0.97897 0.16262 0.32661 0.0
C2914 C 0.02545 0.19423 0.32894 0.0
C2915 C 0.03897 0.17743 0.31634 0.0
C2916 C 0.02458 0.14998 0.31083 0.0
C2917 C 0.9946 0.14263 0.3162 0.0
C2918 C 0.04058 0.22293 0.33584 0.0
C2919 C 0.03953 0.13021 0.29832 0.0
C2920 C 0.06554 0.24486 0.29436 0.0
C2921 C 0.09266 0.25022 0.3029 0.0
C2922 C 0.0497 0.21657 0.29607 0.0
C2923 C 0.06188 0.19397 0.30653 0.0
C2924 C 0.09294 0.19657 0.31183 0.0
C2925 C 0.108 0.22536 0.31022 0.0
C2926 C 0.01711 0.21405 0.28947 0.0
C2927 C 0.1077 0.17159 0.32174 0.0
H2928 H 0.98356 0.2018 0.34211 0.0
H2929 H 0.98252 0.12259 0.31139 0.0
H2930 H 0.06559 0.21861 0.33834 0.0
H2931 H 0.03882 0.24256 0.32745 0.0
H2932 H 0.02906 0.23029 0.34685 0.0
H2933 H 0.025 0.10962 0.29524 0.0
H2934 H 0.04356 0.14427 0.28766 0.0
H2935 H 0.06268 0.12186 0.30234 0.0
H2936 H 0.05425 0.26416 0.28841 0.0
H2937 H 0.12969 0.2296 0.31638 0.0
H2938 H 0.99977 0.21963 0.2987 0.0
H2939 H 0.01237 0.19001 0.28531 0.0
H2940 H 0.01348 0.2306 0.27968 0.0
H2941 H 0.10095 0.17518 0.33408 0.0
H2942 H 0.1336 0.17264 0.32097 0.0
H2943 H 0.09969 0.14802 0.31817 0.0
C2944 C 0.47495 0.14923 0.06519 0.0
C2945 C 0.49924 0.16401 0.0732 0.0
C2946 C 0.44745 0.16553 0.06167 0.0
C2947 C 0.445 0.19731 0.06603 0.0
C2948 C 0.4696 0.21194 0.07445 0.0
C2949 C 0.4962 0.19483 0.07807 0.0
C2950 C 0.42149 0.1485 0.05338 0.0
C2951 C 0.46882 0.24603 0.07917 0.0
C2952 C 0.41378 0.26713 0.04882 0.0
C2953 C 0.40022 0.2786 0.06251 0.0
C2954 C 0.42265 0.23577 0.04794 0.0
C2955 C 0.41829 0.21672 0.06121 0.0
C2956 C 0.39715 0.22612 0.07292 0.0
C2957 C 0.38867 0.25763 0.07365 0.0
C2958 C 0.44256 0.22529 0.03442 0.0
C2959 C 0.38925 0.20489 0.08635 0.0
H2960 H 0.47773 0.12516 0.06147 0.0
H2961 H 0.51551 0.20609 0.084 0.0
H2962 H 0.40744 0.13556 0.06214 0.0
H2963 H 0.40555 0.16443 0.04702 0.0
H2964 H 0.43115 0.13108 0.04508 0.0
H2965 H 0.49056 0.2535 0.08514 0.0
H2966 H 0.46588 0.26112 0.06879 0.0
H2967 H 0.44905 0.25031 0.08723 0.0
H2968 H 0.42133 0.28317 0.03979 0.0
H2969 H 0.37624 0.26635 0.08378 0.0
H2970 H 0.43942 0.19999 0.03211 0.0
H2971 H 0.46754 0.22944 0.03721 0.0
H2972 H 0.43682 0.23867 0.02372 0.0
H2973 H 0.38845 0.18011 0.08252 0.0
H2974 H 0.36645 0.2114 0.09165 0.0
H2975 H 0.40752 0.20711 0.09543 0.0
C2976 C 0.42473 0.26781 0.75061 0.0
C2977 C 0.43419 0.28507 0.73763 0.0
C2978 C 0.44478 0.24541 0.75702 0.0
C2979 C 0.47419 0.24024 0.74991 0.0
C2980 C 0.48407 0.25904 0.73716 0.0
C2981 C 0.46379 0.28132 0.73126 0.0
C2982 C 0.4339 0.22711 0.77102 0.0
C2983 C 0.51537 0.25496 0.72914 0.0
C2984 C 0.54814 0.20129 0.75588 0.0
C2985 C 0.54506 0.18017 0.74356 0.0
C2986 C 0.52188 0.21747 0.76127 0.0
C2987 C 0.49307 0.21264 0.75367 0.0
C2988 C 0.48899 0.18637 0.74393 0.0
C2989 C 0.51546 0.17061 0.73868 0.0
C2990 C 0.52608 0.24356 0.77283 0.0
C2991 C 0.45779 0.17885 0.73671 0.0
H2992 H 0.40184 0.27182 0.75568 0.0
H2993 H 0.47079 0.29559 0.7214 0.0
H2994 H 0.41635 0.20957 0.7673 0.0
H2995 H 0.4533 0.21488 0.77703 0.0
H2996 H 0.42213 0.24292 0.77945 0.0
H2997 H 0.51904 0.27215 0.71961 0.0
H2998 H 0.53466 0.25789 0.73758 0.0
H2999 H 0.5171 0.23124 0.72403 0.0
H3000 H 0.57115 0.2074 0.76016 0.0
H3001 H 0.51328 0.15272 0.72981 0.0
H3002 H 0.50421 0.24776 0.77949 0.0
H3003 H 0.53221 0.2654 0.76654 0.0
H3004 H 0.54536 0.23818 0.78104 0.0
H3005 H 0.43884 0.18096 0.74547 0.0
H3006 H 0.45742 0.15487 0.73176 0.0
H3007 H 0.45292 0.19571 0.72719 0.0
C3008 C 0.52614 0.8037 0.50341 0.0
C3009 C 0.5272 0.83414 0.49747 0.0
C3010 C 0.49748 0.79055 0.50755 0.0
C3011 C 0.46999 0.80825 0.50503 0.0
C3012 C 0.47218 0.84094 0.50342 0.0
C3013 C 0.50113 0.85373 0.49929 0.0
C3014 C 0.49623 0.75605 0.51116 0.0
C3015 C 0.44343 0.86122 0.50286 0.0
C3016 C 0.43355 0.76199 0.47354 0.0
C3017 C 0.41488 0.74175 0.48227 0.0
C3018 C 0.44803 0.78745 0.48051 0.0
C3019 C 0.44456 0.79198 0.49681 0.0
C3020 C 0.42223 0.77442 0.50517 0.0
C3021 C 0.40743 0.7494 0.49774 0.0
C3022 C 0.46992 0.80684 0.47058 0.0
C3023 C 0.41563 0.78008 0.52217 0.0
H3024 H 0.54657 0.78876 0.50277 0.0
H3025 H 0.50243 0.87796 0.49569 0.0
H3026 H 0.47843 0.75126 0.52024 0.0
H3027 H 0.48968 0.74292 0.50052 0.0
H3028 H 0.5192 0.74715 0.51525 0.0
H3029 H 0.44697 0.88225 0.51017 0.0
H3030 H 0.43947 0.86933 0.49075 0.0
H3031 H 0.4223 0.84868 0.50703 0.0
H3032 H 0.43915 0.75657 0.46155 0.0
H3033 H 0.3915 0.7348 0.50434 0.0
H3034 H 0.49448 0.80113 0.47351 0.0
H3035 H 0.46599 0.83211 0.47257 0.0
H3036 H 0.46674 0.80233 0.45796 0.0
H3037 H 0.42594 0.76087 0.52916 0.0
H3038 H 0.39002 0.77966 0.52429 0.0
H3039 H 0.42511 0.80272 0.52632 0.0
C3040 C 0.94837 0.73885 0.24403 0.0
C3041 C 0.91806 0.74174 0.23821 0.0
C3042 C 0.96572 0.71206 0.24074 0.0
C3043 C 0.9518 0.68833 0.23153 0.0
C3044 C 0.91906 0.68769 0.2298 0.0
C3045 C 0.90225 0.71501 0.23299 0.0
C3046 C 1.0003 0.71243 0.24425 0.0
C3047 C 0.90278 0.6607 0.22206 0.0
C3048 C 0.00691 0.6905 0.19865 0.0
C3049 C 0.02985 0.67139 0.20498 0.0
C3050 C 0.97749 0.69208 0.20572 0.0
C3051 C 0.97168 0.6741 0.21939 0.0
C3052 C 0.99262 0.65019 0.22361 0.0
C3053 C 0.022 0.6496 0.21656 0.0
C3054 C 0.95505 0.7168 0.20007 0.0
C3055 C 0.98619 0.62829 0.237 0.0
H3056 H 0.96022 0.75914 0.24873 0.0
H3057 H 0.87808 0.71681 0.22934 0.0
H3058 H 0.00797 0.68941 0.24874 0.0
H3059 H 0.01364 0.71748 0.23345 0.0
H3060 H 0.00636 0.73053 0.253 0.0
H3061 H 0.87968 0.6566 0.22762 0.0
H3062 H 0.89852 0.66636 0.20965 0.0
H3063 H 0.91688 0.63894 0.2227 0.0
H3064 H 0.01305 0.7067 0.18942 0.0
H3065 H 0.03979 0.63435 0.22128 0.0
H3066 H 0.95611 0.73729 0.20796 0.0
H3067 H 0.93078 0.70783 0.19999 0.0
H3068 H 0.96092 0.72492 0.18813 0.0
H3069 H 0.00123 0.63454 0.24702 0.0
H3070 H 0.99245 0.60403 0.23359 0.0
H3071 H 0.96136 0.62881 0.24074 0.0
C3072 C 0.94425 0.24358 1.002 0.0
C3073 C 0.95006 0.23782 0.98615 0.0
C3074 C 0.96238 0.26501 1.01029 0.0
C3075 C 0.98604 0.28154 1.00236 0.0
C3076 C 0.98891 0.27894 0.98594 0.0
C3077 C 0.97113 0.25673 0.97807 0.0
C3078 C 0.95789 0.26746 0.02766 0.0
C3079 C 0.01322 0.29681 0.97677 0.0
C3080 C 0.03962 0.34597 1.01136 0.0
C3081 C 0.06748 0.32917 1.00929 0.0
C3082 C 0.0111 0.33011 1.01211 0.0
C3083 C 0.01132 0.2972 1.01098 0.0
C3084 C 0.03966 0.28056 1.01293 0.0
C3085 C 0.06782 0.29694 1.01192 0.0
C3086 C 0.9812 0.34858 1.01083 0.0
C3087 C 0.04055 0.24531 1.01292 0.0
H3088 H 0.92683 0.22997 1.00819 0.0
H3089 H 0.97556 0.25262 0.96582 0.0
H3090 H 0.97089 0.24821 0.0334 0.0
H3091 H 0.96654 0.28996 0.03238 0.0
H3092 H 0.93282 0.26478 0.03079 0.0
H3093 H 0.00788 0.29709 0.96413 0.0
H3094 H 0.01517 0.32132 0.98081 0.0
H3095 H 0.03617 0.28522 0.97832 0.0
H3096 H 0.03946 0.37111 1.0097 0.0
H3097 H 0.08961 0.28416 1.01078 0.0
H3098 H 0.9614 0.33609 1.0164 0.0
H3099 H 0.97549 0.35197 0.99835 0.0
H3100 H 0.9837 0.37204 1.01623 0.0
H3101 H 0.02075 0.23559 1.01972 0.0
H3102 H 0.06283 0.23635 1.01783 0.0
H3103 H 0.03853 0.23671 1.00078 0.0
C3104 C 0.34111 0.99676 0.30383 0.0
C3105 C 0.32521 0.96891 0.30733 0.0
C3106 C 0.33486 0.01396 0.29023 0.0
C3107 C 0.3112 0.00386 0.27985 0.0
C3108 C 0.29253 0.97773 0.28425 0.0
C3109 C 0.30009 0.96022 0.29778 0.0
C3110 C 0.35604 0.04107 0.28619 0.0
C3111 C 0.26603 0.96663 0.27416 0.0
C3112 C 0.30388 0.0646 0.24729 0.0
C3113 C 0.32497 0.05265 0.23624 0.0
C3114 C 0.29583 0.04727 0.2608 0.0
C3115 C 0.31008 0.01778 0.26364 0.0
C3116 C 0.32872 0.00442 0.25169 0.0
C3117 C 0.33559 0.02182 0.23818 0.0
C3118 C 0.27422 0.06181 0.27262 0.0
C3119 C 0.34455 0.97319 0.25394 0.0
H3120 H 0.36083 0.00343 0.31101 0.0
H3121 H 0.28803 0.93842 0.30009 0.0
H3122 H 0.36966 0.03544 0.27555 0.0
H3123 H 0.34206 0.06229 0.2837 0.0
H3124 H 0.3727 0.0466 0.29569 0.0
H3125 H 0.24716 0.95619 0.28138 0.0
H3126 H 0.25604 0.98591 0.26709 0.0
H3127 H 0.27466 0.94817 0.26617 0.0
H3128 H 0.29605 0.08861 0.24619 0.0
H3129 H 0.35242 0.01262 0.2299 0.0
H3130 H 0.28816 0.07406 0.2816 0.0
H3131 H 0.25989 0.04369 0.27854 0.0
H3132 H 0.25844 0.07921 0.26712 0.0
H3133 H 0.36197 0.97497 0.26345 0.0
H3134 H 0.35671 0.96511 0.24323 0.0
H3135 H 0.32722 0.95522 0.25739 0.0
C3136 C 0.30015 0.04572 0.5486 0.0
C3137 C 0.30499 0.07558 0.55491 0.0
C3138 C 0.27877 0.04094 0.53624 0.0
C3139 C 0.26206 0.06667 0.52989 0.0
C3140 C 0.26578 0.09652 0.53686 0.0
C3141 C 0.28722 0.10057 0.54913 0.0
C3142 C 0.27566 0.00873 0.52933 0.0
C3143 C 0.24864 0.12477 0.53069 0.0
C3144 C 0.23821 0.07463 0.48722 0.0
C3145 C 0.20554 0.07218 0.488 0.0
C3146 C 0.25709 0.07013 0.5005 0.0
C3147 C 0.24306 0.06358 0.51513 0.0
C3148 C 0.21027 0.05855 0.5157 0.0
C3149 C 0.192 0.06289 0.50217 0.0
C3150 C 0.29184 0.07544 0.49911 0.0
C3151 C 0.194 0.0516 0.5309 0.0
H3152 H 0.31449 0.02647 0.55264 0.0
H3153 H 0.29143 0.12384 0.55366 0.0
H3154 H 0.25071 0.00292 0.52734 0.0
H3155 H 0.28762 0.0081 0.51787 0.0
H3156 H 0.28618 0.99051 0.5369 0.0
H3157 H 0.25193 0.14567 0.53817 0.0
H3158 H 0.25726 0.13037 0.51883 0.0
H3159 H 0.22327 0.11982 0.52978 0.0
H3160 H 0.24883 0.08291 0.47652 0.0
H3161 H 0.16673 0.06214 0.5031 0.0
H3162 H 0.30491 0.05683 0.5053 0.0
H3163 H 0.29797 0.09807 0.50462 0.0
H3164 H 0.2997 0.07604 0.48679 0.0
H3165 H 0.2072 0.03394 0.53768 0.0
H3166 H 0.16977 0.04302 0.52907 0.0
H3167 H 0.19285 0.07326 0.53798 0.0
C3168 C 0.18831 0.98282 0.74131 0.0
C3169 C 0.19923 0.95228 0.7388 0.0
C3170 C 0.19288 0.99836 0.75556 0.0
C3171 C 0.2094 0.98336 0.76776 0.0
C3172 C 0.22323 0.95371 0.76475 0.0
C3173 C 0.21769 0.93837 0.75039 0.0
C3174 C 0.17726 0.02967 0.75802 0.0
C3175 C 0.24178 0.93697 0.77709 0.0
C3176 C 0.22184 0.04115 0.80109 0.0
C3177 C 0.19476 0.03631 0.81005 0.0
C3178 C 0.22909 0.02179 0.78822 0.0
C3179 C 0.20839 0.99736 0.78392 0.0
C3180 C 0.18292 0.99039 0.79395 0.0
C3181 C 0.17658 0.00977 0.80686 0.0
C3182 C 0.25715 0.02958 0.77832 0.0
C3183 C 0.16002 0.96478 0.79003 0.0
H3184 H 0.17338 0.99345 0.7326 0.0
H3185 H 0.22546 0.91445 0.74883 0.0
H3186 H 0.15842 0.02728 0.76685 0.0
H3187 H 0.19428 0.04696 0.7625 0.0
H3188 H 0.16684 0.03904 0.74715 0.0
H3189 H 0.25776 0.91934 0.77189 0.0
H3190 H 0.25569 0.95368 0.78411 0.0
H3191 H 0.22554 0.92459 0.78506 0.0
H3192 H 0.23556 0.06208 0.80308 0.0
H3193 H 0.15509 0.00635 0.81336 0.0
H3194 H 0.24958 0.04332 0.76805 0.0
H3195 H 0.26864 0.00797 0.77402 0.0
H3196 H 0.27449 0.0437 0.78486 0.0
H3197 H 0.14597 0.97192 0.77978 0.0
H3198 H 0.1438 0.95975 0.79983 0.0
H3199 H 0.17252 0.94295 0.78691 0.0
C3200 C 0.21823 0.95898 0.04979 0.0
C3201 C 0.22366 0.93434 0.06029 0.0
C3202 C 0.23662 0.96282 0.03619 0.0
C3203 C 0.26088 0.94123 0.03274 0.0
C3204 C 0.26874 0.91867 0.04422 0.0
C3205 C 0.25025 0.91569 0.05781 0.0
C3206 C 0.22781 0.98797 0.02471 0.0
C3207 C 0.29429 0.89505 0.04133 0.0
C3208 C 0.27152 0.91119 0.99112 0.0
C3209 C 0.30097 0.92282 0.98678 0.0
C3210 C 0.25776 0.91834 1.0056 0.0
C3211 C 0.27359 0.93797 1.01631 0.0
C3212 C 0.30238 0.95171 1.01156 0.0
C3213 C 0.31586 0.94378 0.99694 0.0
C3214 C 0.22722 0.90282 1.00989 0.0
C3215 C 0.32004 0.97318 0.02229 0.0
H3216 H 0.19731 0.97303 0.05123 0.0
H3217 H 0.25425 0.896 0.0655 0.0
H3218 H 0.24897 0.99849 1.01936 0.0
H3219 H 0.21366 0.97757 1.01524 0.0
H3220 H 0.21377 0.00673 0.03031 0.0
H3221 H 0.30053 0.88201 0.05206 0.0
H3222 H 0.28635 0.87801 0.03244 0.0
H3223 H 0.31557 0.90664 0.03673 0.0
H3224 H 0.2601 0.89449 0.98354 0.0
H3225 H 0.33906 0.95216 0.99402 0.0
H3226 H 0.2099 0.92058 1.01367 0.0
H3227 H 0.23094 0.8866 1.0198 0.0
H3228 H 0.21713 0.88937 1.00006 0.0
H3229 H 0.30383 0.98905 0.02858 0.0
H3230 H 0.33751 0.98744 1.01585 0.0
H3231 H 0.33264 0.95905 0.0311 0.0
C3232 C 0.70126 0.94013 0.79308 0.0
C3233 C 0.68041 0.9535 0.80384 0.0
C3234 C 0.70702 0.95441 0.77842 0.0
C3235 C 0.69115 0.98243 0.77424 0.0
C3236 C 0.67196 0.99705 0.7856 0.0
C3237 C 0.66697 0.98253 0.80012 0.0
C3238 C 0.72832 0.93822 0.767 0.0
C3239 C 0.65435 0.02677 0.78195 0.0
C3240 C 0.70443 0.03696 0.73935 0.0
C3241 C 0.67916 0.02911 0.72967 0.0
C3242 C 0.7108 0.02004 0.75318 0.0
C3243 C 0.69116 0.99482 0.75769 0.0
C3244 C 0.66769 0.98492 0.74713 0.0
C3245 C 0.66214 0.00201 0.73333 0.0
C3246 C 0.7366 0.03126 0.7637 0.0
C3247 C 0.64587 0.95845 0.75124 0.0
H3248 H 0.71107 0.9173 0.79556 0.0
H3249 H 0.6503 0.99274 0.80818 0.0
H3250 H 0.71405 0.92554 0.75829 0.0
H3251 H 0.74295 0.95546 0.76064 0.0
H3252 H 0.74382 0.92105 0.77286 0.0
H3253 H 0.64205 0.03634 0.7923 0.0
H3254 H 0.67053 0.04487 0.77742 0.0
H3255 H 0.63678 0.02211 0.77276 0.0
H3256 H 0.71709 0.05844 0.73706 0.0
H3257 H 0.64189 0.99629 0.72632 0.0
H3258 H 0.74867 0.01126 0.76932 0.0
H3259 H 0.7265 0.04605 0.77304 0.0
H3260 H 0.75407 0.04544 0.75722 0.0
H3261 H 0.65919 0.93797 0.75555 0.0
H3262 H 0.6315 0.95104 0.74115 0.0
H3263 H 0.62991 0.96604 0.76071 0.0
C3264 C 0.74189 0.90116 0.4805 0.0
C3265 C 0.71407 0.91841 0.47983 0.0
C3266 C 0.76259 0.9043 0.49315 0.0
C3267 C 0.75492 0.92469 0.50561 0.0
C3268 C 0.7288 0.94482 0.50403 0.0
C3269 C 0.70889 0.94158 0.4911 0.0
C3270 C 0.79069 0.88308 0.49402 0.0
C3271 C 0.71942 0.9669 0.5169 0.0
C3272 C 0.77438 0.89069 0.54546 0.0
C3273 C 0.80075 0.90788 0.54989 0.0
C3274 C 0.75868 0.89694 0.53144 0.0
C3275 C 0.77014 0.92038 0.52122 0.0
C3276 C 0.79638 0.9384 0.52581 0.0
C3277 C 0.81114 0.93219 0.54018 0.0
C3278 C 0.73027 0.87768 0.52736 0.0
C3279 C 0.80988 0.96309 0.51523 0.0
H3280 H 0.7457 0.88265 0.47208 0.0
H3281 H 0.68704 0.95443 0.49092 0.0
H3282 H 0.81116 0.89576 0.49878 0.0
H3283 H 0.7855 0.86327 0.50196 0.0
H3284 H 0.79693 0.87341 0.48243 0.0
H3285 H 0.7028 0.98502 0.51274 0.0
H3286 H 0.70787 0.9534 0.52633 0.0
H3287 H 0.74012 0.97862 0.52198 0.0
H3288 H 0.7663 0.87184 0.55289 0.0
H3289 H 0.83185 0.94524 0.54341 0.0
H3290 H 0.73535 0.86308 0.517 0.0
H3291 H 0.71038 0.89321 0.52438 0.0
H3292 H 0.72298 0.86205 0.53704 0.0
H3293 H 0.82134 0.9516 0.50514 0.0
H3294 H 0.82749 0.97781 0.52125 0.0
H3295 H 0.79119 0.97841 0.51057 0.0
C3296 C 0.84063 0.01204 0.30802 0.0
C3297 C 0.82364 0.04004 0.3086 0.0
C3298 C 0.8388 0.99196 0.29501 0.0
C3299 C 0.81977 1.00016 0.28211 0.0
C3300 C 0.80057 0.02708 0.28325 0.0
C3301 C 0.80284 0.04667 0.29641 0.0
C3302 C 0.85946 0.96337 0.29451 0.0
C3303 C 0.77978 0.03688 0.26997 0.0
C3304 C 0.8534 0.97074 0.24351 0.0
C3305 C 0.8367 0.94296 0.2412 0.0
C3306 C 0.8466 0.99071 0.25616 0.0
C3307 C 0.82281 0.98252 0.26698 0.0
C3308 C 0.80432 0.95571 0.26397 0.0
C3309 C 0.81157 0.93626 0.25119 0.0
C3310 C 0.86672 0.01922 0.25865 0.0
C3311 C 0.77864 0.94595 0.275 0.0
H3312 H 0.85764 0.00733 0.31705 0.0
H3313 H 0.7905 0.06884 0.29647 0.0
H3314 H 0.84592 0.94267 0.29067 0.0
H3315 H 0.87855 0.96709 0.28594 0.0
H3316 H 0.87007 0.9582 0.30601 0.0
H3317 H 0.76238 0.05472 0.27364 0.0
H3318 H 0.79435 0.04702 0.26054 0.0
H3319 H 0.76722 0.01648 0.26506 0.0
H3320 H 0.87357 0.97549 0.23622 0.0
H3321 H 0.79932 0.91423 0.24985 0.0
H3322 H 0.88192 0.0155 0.26893 0.0
H3323 H 0.85195 0.03999 0.26107 0.0
H3324 H 0.88181 0.0243 0.24842 0.0
H3325 H 0.78917 0.9361 0.28572 0.0
H3326 H 0.76317 0.92795 0.26979 0.0
H3327 H 0.76423 0.96637 0.27848 0.0
C3328 C 0.82181 0.06309 0.99938 0.0
C3329 C 0.81437 0.08046 0.98601 0.0
C3330 C 0.80023 0.05922 1.01167 0.0
C3331 C 0.77029 0.07325 1.01071 0.0
C3332 C 0.76168 0.08842 0.99664 0.0
C3333 C 0.78384 0.09199 0.98452 0.0
C3334 C 0.81063 0.04265 0.02627 0.0
C3335 C 0.72997 0.10344 0.99492 0.0
C3336 C 0.70415 0.05855 0.0401 0.0
C3337 C 0.70548 0.08558 0.04931 0.0
C3338 C 0.72605 0.0532 0.02805 0.0
C3339 C 0.74963 0.0757 0.02492 0.0
C3340 C 0.75209 0.10211 0.03486 0.0
C3341 C 0.72992 0.10679 0.04681 0.0
C3342 C 0.72247 0.02459 1.01797 0.0
C3343 C 0.77687 0.12665 0.0322 0.0
H3344 H 0.84561 0.05492 1.00088 0.0
H3345 H 0.77816 0.10641 0.97454 0.0
H3346 H 0.81548 0.06018 0.03546 0.0
H3347 H 0.79197 0.02697 0.03069 0.0
H3348 H 0.83218 0.02868 0.02431 0.0
H3349 H 0.72534 0.11084 0.98276 0.0
H3350 H 0.71131 0.08705 0.99866 0.0
H3351 H 0.72856 0.12433 1.00255 0.0
H3352 H 0.68464 0.04265 0.04159 0.0
H3353 H 0.73043 0.12824 0.05353 0.0
H3354 H 0.74552 0.01368 1.0156 0.0
H3355 H 0.71227 0.03151 1.00663 0.0
H3356 H 0.70691 0.00691 0.02343 0.0
H3357 H 0.80027 0.1156 0.03137 0.0
H3358 H 0.77732 0.14438 0.04164 0.0
H3359 H 0.77243 0.13879 1.021 0.0
C3360 C 0.80577 0.54934 0.743 0.0
C3361 C 0.82984 0.53968 0.73293 0.0
C3362 C 0.79762 0.53164 0.75633 0.0
C3363 C 0.81406 0.50365 0.75981 0.0
C3364 C 0.83624 0.49241 0.74885 0.0
C3365 C 0.84379 0.51049 0.73564 0.0
C3366 C 0.77345 0.54447 0.76741 0.0
C3367 C 0.85433 0.46269 0.75181 0.0
C3368 C 0.83419 0.47658 0.80103 0.0
C3369 C 0.81593 0.44956 0.8026 0.0
C3370 C 0.83192 0.49587 0.78772 0.0
C3371 C 0.81112 0.48783 0.77548 0.0
C3372 C 0.79082 0.46198 0.77764 0.0
C3373 C 0.79364 0.44311 0.79107 0.0
C3374 C 0.85392 0.52325 0.78613 0.0
C3375 C 0.76805 0.45248 0.76515 0.0
H3376 H 0.79558 0.57232 0.74139 0.0
H3377 H 0.86308 0.50327 0.72825 0.0
H3378 H 0.75845 0.5255 0.77209 0.0
H3379 H 0.78539 0.55567 0.7774 0.0
H3380 H 0.75839 0.56227 0.76172 0.0
H3381 H 0.86836 0.45545 0.74153 0.0
H3382 H 0.87041 0.46625 0.76176 0.0
H3383 H 0.83824 0.44337 0.75496 0.0
H3384 H 0.85225 0.48114 0.80956 0.0
H3385 H 0.78021 0.42168 0.79189 0.0
H3386 H 0.84106 0.54436 0.78223 0.0
H3387 H 0.87187 0.51789 0.77718 0.0
H3388 H 0.86597 0.52867 0.79724 0.0
H3389 H 0.7561 0.47325 0.76021 0.0
H3390 H 0.75014 0.43596 0.76965 0.0
H3391 H 0.78091 0.44085 0.75554 0.0
C3392 C 0.81749 0.55379 0.04264 0.0
C3393 C 0.80248 0.5725 0.05383 0.0
C3394 C 0.80382 0.54833 0.02785 0.0
C3395 C 0.77467 0.56234 0.024 0.0
C3396 C 0.75853 0.57922 0.03574 0.0
C3397 C 0.77253 0.58396 0.05038 0.0
C3398 C 0.82179 0.52956 1.016 0.0
C3399 C 0.72759 0.59486 0.03243 0.0
C3400 C 0.75352 0.59408 0.98383 0.0
C3401 C 0.72747 0.57585 0.97977 0.0
C3402 C 0.77087 0.58828 0.99749 0.0
C3403 C 0.76251 0.56313 1.00743 0.0
C3404 C 0.73876 0.5423 1.0024 0.0
C3405 C 0.72138 0.54904 0.98878 0.0
C3406 C 0.79574 0.61143 1.00216 0.0
C3407 C 0.72954 0.51452 1.01219 0.0
H3408 H 0.84103 0.54561 0.04491 0.0
H3409 H 0.76108 0.5991 0.05877 0.0
H3410 H 0.80583 0.51486 1.00895 0.0
H3411 H 0.83414 0.54569 1.00796 0.0
H3412 H 0.83952 0.51431 1.02161 0.0
H3413 H 0.71701 0.60534 0.04303 0.0
H3414 H 0.73099 0.61364 0.02367 0.0
H3415 H 0.71083 0.57781 0.02748 0.0
H3416 H 0.75803 0.61531 0.97729 0.0
H3417 H 0.70099 0.53507 0.9862 0.0
H3418 H 0.81712 0.59913 1.0061 0.0
H3419 H 0.78708 0.62571 1.01205 0.0
H3420 H 0.80209 0.62743 0.99247 0.0
H3421 H 0.75044 0.50323 1.01737 0.0
H3422 H 0.71651 0.49692 1.00528 0.0
H3423 H 0.71427 0.5224 1.02187 0.0
C3424 C 0.70409 0.54831 0.29274 0.0
C3425 C 0.68721 0.53457 0.305 0.0
C3426 C 0.71055 0.5316 0.27888 0.0
C3427 C 0.69926 0.50059 0.27705 0.0
C3428 C 0.68493 0.48578 0.29002 0.0
C3429 C 0.67924 0.50286 0.30376 0.0
C3430 C 0.72686 0.54822 0.2657 0.0
C3431 C 0.67226 0.45293 0.28882 0.0
C3432 C 0.66472 0.47163 0.23883 0.0
C3433 C 0.68456 0.44668 0.23491 0.0
C3434 C 0.67046 0.49074 0.25185 0.0
C3435 C 0.69726 0.48544 0.26119 0.0
C3436 C 0.71919 0.46247 0.25629 0.0
C3437 C 0.7123 0.44298 0.24342 0.0
C3438 C 0.64593 0.51435 0.25655 0.0
C3439 C 0.74869 0.45664 0.26538 0.0
H3440 H 0.70946 0.57306 0.29331 0.0
H3441 H 0.66537 0.49233 0.31295 0.0
H3442 H 0.74253 0.53201 0.25928 0.0
H3443 H 0.70922 0.55718 0.25738 0.0
H3444 H 0.74076 0.56839 0.26996 0.0
H3445 H 0.66447 0.4437 0.30028 0.0
H3446 H 0.65203 0.45269 0.28077 0.0
H3447 H 0.69021 0.43693 0.284 0.0
H3448 H 0.64276 0.47405 0.23266 0.0
H3449 H 0.72731 0.42319 0.24087 0.0
H3450 H 0.65678 0.53743 0.25879 0.0
H3451 H 0.6345 0.50666 0.26751 0.0
H3452 H 0.62761 0.51728 0.24753 0.0
H3453 H 0.75854 0.47886 0.26988 0.0
H3454 H 0.76665 0.44474 0.25814 0.0
H3455 H 0.74337 0.44141 0.27549 0.0
C3456 C 0.80388 0.4512 0.49554 0.0
C3457 C 0.79707 0.42912 0.48393 0.0
C3458 C 0.78455 0.45486 0.50873 0.0
C3459 C 0.75739 0.43619 0.51036 0.0
C3460 C 0.74853 0.41655 0.4978 0.0
C3461 C 0.76856 0.41308 0.48482 0.0
C3462 C 0.79513 0.47618 0.52166 0.0
C3463 C 0.71945 0.39672 0.49875 0.0
C3464 C 0.73047 0.40444 0.54977 0.0
C3465 C 0.70342 0.42199 0.55271 0.0
C3466 C 0.74932 0.41022 0.53659 0.0
C3467 C 0.74068 0.43382 0.52579 0.0
C3468 C 0.71455 0.45301 0.52926 0.0
C3469 C 0.69623 0.44678 0.5426 0.0
C3470 C 0.7772 0.38941 0.53362 0.0
C3471 C 0.7043 0.47845 0.51824 0.0
H3472 H 0.82635 0.46294 0.49524 0.0
H3473 H 0.76355 0.39522 0.47623 0.0
H3474 H 0.77511 0.48924 0.52668 0.0
H3475 H 0.80553 0.46192 0.53111 0.0
H3476 H 0.81299 0.49317 0.51757 0.0
H3477 H 0.7134 0.38622 0.48733 0.0
H3478 H 0.72315 0.37754 0.50725 0.0
H3479 H 0.69933 0.41082 0.50291 0.0
H3480 H 0.73562 0.38457 0.55718 0.0
H3481 H 0.67478 0.45972 0.54431 0.0
H3482 H 0.79808 0.40371 0.53078 0.0
H3483 H 0.77247 0.37416 0.52346 0.0
H3484 H 0.78269 0.37434 0.54378 0.0
H3485 H 0.72464 0.49207 0.51397 0.0
H3486 H 0.68738 0.49473 0.52379 0.0
H3487 H 0.6929 0.4677 0.50797 0.0
C3488 C 0.16035 0.5373 0.2413 0.0
C3489 C 0.17027 0.56828 0.24319 0.0
C3490 C 0.162 0.51566 0.25375 0.0
C3491 C 0.1742 0.52506 0.26841 0.0
C3492 C 0.18621 0.55576 0.26994 0.0
C3493 C 0.18368 0.57698 0.25745 0.0
C3494 C 0.14881 0.48328 0.25152 0.0
C3495 C 0.20014 0.56683 0.28507 0.0
C3496 C 0.1402 0.48182 0.30364 0.0
C3497 C 0.16226 0.45812 0.30619 0.0
C3498 C 0.14454 0.50458 0.29193 0.0
C3499 C 0.17171 0.50382 0.28242 0.0
C3500 C 0.19523 0.48143 0.28577 0.0
C3501 C 0.19007 0.45871 0.29746 0.0
C3502 C 0.11874 0.52787 0.28892 0.0
C3503 C 0.22485 0.47989 0.27625 0.0
H3504 H 0.14927 0.5306 0.23048 0.0
H3505 H 0.19104 0.60103 0.25906 0.0
H3506 H 0.16613 0.46541 0.25513 0.0
H3507 H 0.12784 0.4803 0.259 0.0
H3508 H 0.14208 0.47879 0.23925 0.0
H3509 H 0.21213 0.58972 0.28379 0.0
H3510 H 0.18139 0.56931 0.29392 0.0
H3511 H 0.21714 0.54944 0.28955 0.0
H3512 H 0.11814 0.48083 0.30986 0.0
H3513 H 0.20672 0.4398 0.29889 0.0
H3514 H 0.10791 0.52292 0.27747 0.0
H3515 H 0.12831 0.55194 0.28843 0.0
H3516 H 0.10023 0.52701 0.298 0.0
H3517 H 0.21956 0.46994 0.26464 0.0
H3518 H 0.24288 0.46501 0.28187 0.0
H3519 H 0.23465 0.50362 0.27441 0.0
C3520 C 0.29586 0.45792 0.05062 0.0
C3521 C 0.29102 0.43794 0.06337 0.0
C3522 C 0.27567 0.45762 0.03769 0.0
C3523 C 0.24938 0.43747 0.03766 0.0
C3524 C 0.24184 0.42098 0.0515 0.0
C3525 C 0.2629 0.42117 0.06413 0.0
C3526 C 0.28502 0.47561 0.02331 0.0
C3527 C 0.21349 0.40011 0.05232 0.0
C3528 C 0.19323 0.4362 1.00278 0.0
C3529 C 0.20345 0.40947 0.99473 0.0
C3530 C 0.20789 0.44587 1.0167 0.0
C3531 C 0.23384 0.42888 0.02255 0.0
C3532 C 0.24494 0.40268 1.01404 0.0
C3533 C 0.22939 0.39311 1.00044 0.0
C3534 C 0.19464 0.47334 0.02552 0.0
C3535 C 0.27294 0.38416 1.01949 0.0
H3536 H 0.31788 0.47039 0.04975 0.0
H3537 H 0.25921 0.40511 0.07372 0.0
H3538 H 0.29616 0.45936 1.01489 0.0
H3539 H 0.26434 0.48605 1.01754 0.0
H3540 H 0.30196 0.49449 0.02603 0.0
H3541 H 0.20724 0.39428 0.06453 0.0
H3542 H 0.19312 0.41137 0.04664 0.0
H3543 H 0.21841 0.37798 0.04604 0.0
H3544 H 0.17281 0.44864 0.99862 0.0
H3545 H 0.23735 0.37239 0.99434 0.0
H3546 H 0.21347 0.48981 0.02887 0.0
H3547 H 0.18357 0.46489 0.03642 0.0
H3548 H 0.17681 0.48621 1.01865 0.0
H3549 H 0.29313 0.39996 1.02139 0.0
H3550 H 0.27993 0.36581 1.01103 0.0
H3551 H 0.26754 0.37273 0.03077 0.0
C3552 C 0.3351 0.50805 0.80455 0.0
C3553 C 0.31953 0.53598 0.8082 0.0
C3554 C 0.33027 0.49257 0.79025 0.0
C3555 C 0.30925 0.50523 0.77914 0.0
C3556 C 0.29107 0.53163 0.78344 0.0
C3557 C 0.29655 0.54675 0.79783 0.0
C3558 C 0.35012 0.4644 0.78644 0.0
C3559 C 0.26792 0.54579 0.77227 0.0
C3560 C 0.3375 0.48897 0.73765 0.0
C3561 C 0.32137 0.46148 0.73386 0.0
C3562 C 0.33184 0.50496 0.75177 0.0
C3563 C 0.30964 0.49311 0.76259 0.0
C3564 C 0.29116 0.4671 0.75812 0.0
C3565 C 0.29731 0.45162 0.7439 0.0
C3566 C 0.35195 0.53277 0.75576 0.0
C3567 C 0.26696 0.45365 0.769 0.0
H3568 H 0.35366 0.5001 0.81216 0.0
H3569 H 0.28517 0.56891 0.8002 0.0
H3570 H 0.33547 0.44533 0.78165 0.0
H3571 H 0.36756 0.47078 0.7774 0.0
H3572 H 0.36279 0.45543 0.79678 0.0
H3573 H 0.25111 0.56142 0.77834 0.0
H3574 H 0.28067 0.55979 0.76343 0.0
H3575 H 0.25471 0.52734 0.76604 0.0
H3576 H 0.3569 0.49617 0.73034 0.0
H3577 H 0.28549 0.42975 0.74144 0.0
H3578 H 0.36868 0.52616 0.76505 0.0
H3579 H 0.33736 0.5522 0.76029 0.0
H3580 H 0.36544 0.54134 0.74556 0.0
H3581 H 0.2788 0.43981 0.77818 0.0
H3582 H 0.25042 0.43803 0.7628 0.0
H3583 H 0.25352 0.47251 0.77484 0.0
C3584 C 0.18859 0.55908 0.54012 0.0
C3585 C 0.19977 0.57869 0.55197 0.0
C3586 C 0.20675 0.55273 0.52666 0.0
C3587 C 0.23664 0.56678 0.5248 0.0
C3588 C 0.24884 0.58458 0.53732 0.0
C3589 C 0.23034 0.59027 0.55063 0.0
C3590 C 0.19282 0.53305 0.5139 0.0
C3591 C 0.28036 0.60024 0.53609 0.0
C3592 C 0.29827 0.55137 0.49306 0.0
C3593 C 0.29388 0.57714 0.48316 0.0
C3594 C 0.27812 0.54584 0.50591 0.0
C3595 C 0.25336 0.567 0.50923 0.0
C3596 C 0.24743 0.59152 0.49849 0.0
C3597 C 0.26756 0.59612 0.48566 0.0
C3598 C 0.28508 0.51887 0.51665 0.0
C3599 C 0.22173 0.61501 0.5014 0.0
H3600 H 0.16463 0.55091 0.54072 0.0
H3601 H 0.23883 0.60624 0.55946 0.0
H3602 H 0.18412 0.54851 0.50449 0.0
H3603 H 0.21072 0.51733 0.50877 0.0
H3604 H 0.17293 0.51875 0.51821 0.0
H3605 H 0.28779 0.61083 0.54728 0.0
H3606 H 0.29841 0.58322 0.53234 0.0
H3607 H 0.27936 0.61896 0.52715 0.0
H3608 H 0.31898 0.53706 0.49161 0.0
H3609 H 0.26451 0.6167 0.47844 0.0
H3610 H 0.26315 0.50774 0.52078 0.0
H3611 H 0.2978 0.5276 0.527 0.0
H3612 H 0.29984 0.50091 0.51087 0.0
H3613 H 0.19938 0.60295 0.504 0.0
H3614 H 0.21814 0.63082 0.49131 0.0
H3615 H 0.22774 0.62945 0.51169 0.0
loop_
_geom_bond_atom_site_label_1
_geom_bond_atom_site_label_2
_geom_bond_distance
_geom_bond_site_symmetry_2
_ccdc_geom_bond_type
C0 C1 1.351 . S
C0 N3 1.368 . S
C0 H5 0.931 . S
C1 C0 1.351 . S
C1 N2 1.373 . S
C1 H29 0.930 . S
N2 C1 1.373 . S
N2 C4 1.340 . S
N3 C0 1.368 . S
N3 C4 1.321 . S
N3 Co6 2.135 . S
C4 N2 1.340 . S
C4 N3 1.321 . S
C4 H28 0.930 . S
H5 C0 0.931 . S
Co6 N3 2.135 . S
Co6 N9 2.121 . S
Co6 O14 2.055 . S
Co6 O17 2.039 . S
Co6 N20 2.140 . S
C7 O8 1.227 . S
C7 O17 1.265 . S
O8 C7 1.227 . S
N9 Co6 2.121 . S
N9 C11 1.375 . S
N9 C12 1.313 . S
C10 C11 1.338 . S
C10 N13 1.377 . S
C10 H30 0.930 . S
C11 N9 1.375 . S
C11 C10 1.338 . S
C11 H15 0.931 . S
C12 N9 1.313 . S
C12 N13 1.344 . S
C12 H16 0.930 . S
N13 C10 1.377 . S
N13 C12 1.344 . S
O14 Co6 2.055 . S
O14 C18 1.253 . S
H15 C11 0.931 . S
H16 C12 0.930 . S
O17 Co6 2.039 . S
O17 C7 1.265 . S
C18 O14 1.253 . S
C18 O19 1.227 . S
O19 C18 1.227 . S
N20 Co6 2.140 . S
N20 C23 1.346 . S
N20 C24 1.345 . S
C21 C22 1.387 . S
C21 C25 1.391 . S
C22 C21 1.387 . S
C22 C23 1.369 . S
C22 H31 0.929 . S
C23 N20 1.346 . S
C23 C22 1.369 . S
C23 H26 0.928 . S
C24 N20 1.345 . S
C24 C25 1.371 . S
C24 H27 0.931 . S
C25 C21 1.391 . S
C25 C24 1.371 . S
C25 H32 0.930 . S
H26 C23 0.928 . S
H27 C24 0.931 . S
H28 C4 0.930 . S
H29 C1 0.930 . S
H30 C10 0.930 . S
H31 C22 0.929 . S
H32 C25 0.930 . S
C33 C34 1.351 . S
C33 N36 1.368 . S
C33 H38 0.931 . S
C34 C33 1.351 . S
C34 N35 1.373 . S
C34 H62 0.930 . S
N35 C34 1.373 . S
N35 C37 1.340 . S
N36 C33 1.368 . S
N36 C37 1.321 . S
N36 Co39 2.135 . S
C37 N35 1.340 . S
C37 N36 1.321 . S
C37 H61 0.930 . S
H38 C33 0.931 . S
Co39 N36 2.135 . S
Co39 N42 2.121 . S
Co39 O47 2.055 . S
Co39 O50 2.039 . S
Co39 N53 2.140 . S
C40 O41 1.227 . S
C40 O50 1.265 . S
O41 C40 1.227 . S
N42 Co39 2.121 . S
N42 C44 1.375 . S
N42 C45 1.313 . S
C43 C44 1.338 . S
C43 N46 1.377 . S
C43 H63 0.930 . S
C44 N42 1.375 . S
C44 C43 1.338 . S
C44 H48 0.931 . S
C45 N42 1.313 . S
C45 N46 1.344 . S
C45 H49 0.930 . S
N46 C43 1.377 . S
N46 C45 1.344 . S
O47 Co39 2.055 . S
O47 C51 1.253 . S
H48 C44 0.931 . S
H49 C45 0.930 . S
O50 Co39 2.039 . S
O50 C40 1.265 . S
C51 O47 1.253 . S
C51 O52 1.227 . S
O52 C51 1.227 . S
N53 Co39 2.140 . S
N53 C56 1.346 . S
N53 C57 1.345 . S
C54 C55 1.387 . S
C54 C58 1.391 . S
C55 C54 1.387 . S
C55 C56 1.369 . S
C55 H64 0.929 . S
C56 N53 1.346 . S
C56 C55 1.369 . S
C56 H59 0.928 . S
C57 N53 1.345 . S
C57 C58 1.371 . S
C57 H60 0.931 . S
C58 C54 1.391 . S
C58 C57 1.371 . S
C58 H65 0.930 . S
H59 C56 0.928 . S
H60 C57 0.931 . S
H61 C37 0.930 . S
H62 C34 0.930 . S
H63 C43 0.930 . S
H64 C55 0.929 . S
H65 C58 0.930 . S
C66 C67 1.351 . S
C66 N69 1.368 . S
C66 H71 0.931 . S
C67 C66 1.351 . S
C67 N68 1.373 . S
C67 H95 0.930 . S
N68 C67 1.373 . S
N68 C70 1.340 . S
N69 C66 1.368 . S
N69 C70 1.321 . S
N69 Co72 2.135 . S
C70 N68 1.340 . S
C70 N69 1.321 . S
C70 H94 0.930 . S
H71 C66 0.931 . S
Co72 N69 2.135 . S
Co72 N75 2.121 . S
Co72 O80 2.055 . S
Co72 O83 2.039 . S
Co72 N86 2.140 . S
C73 O74 1.227 . S
C73 O83 1.265 . S
O74 C73 1.227 . S
N75 Co72 2.121 . S
N75 C77 1.375 . S
N75 C78 1.313 . S
C76 C77 1.338 . S
C76 N79 1.377 . S
C76 H96 0.930 . S
C77 N75 1.375 . S
C77 C76 1.338 . S
C77 H81 0.931 . S
C78 N75 1.313 . S
C78 N79 1.344 . S
C78 H82 0.930 . S
N79 C76 1.377 . S
N79 C78 1.344 . S
O80 Co72 2.055 . S
O80 C84 1.253 . S
H81 C77 0.931 . S
H82 C78 0.930 . S
O83 Co72 2.039 . S
O83 C73 1.265 . S
C84 O80 1.253 . S
C84 O85 1.227 . S
O85 C84 1.227 . S
N86 Co72 2.140 . S
N86 C89 1.346 . S
N86 C90 1.345 . S
C87 C88 1.387 . S
C87 C91 1.391 . S
C88 C87 1.387 . S
C88 C89 1.369 . S
C88 H97 0.929 . S
C89 N86 1.346 . S
C89 C88 1.369 . S
C89 H92 0.928 . S
C90 N86 1.345 . S
C90 C91 1.371 . S
C90 H93 0.931 . S
C91 C87 1.391 . S
C91 C90 1.371 . S
C91 H98 0.930 . S
H92 C89 0.928 . S
H93 C90 0.931 . S
H94 C70 0.930 . S
H95 C67 0.930 . S
H96 C76 0.930 . S
H97 C88 0.929 . S
H98 C91 0.930 . S
C99 C100 1.351 . S
C99 N102 1.368 . S
C99 H104 0.931 . S
C100 C99 1.351 . S
C100 N101 1.373 . S
C100 H128 0.930 . S
N101 C100 1.373 . S
N101 C103 1.340 . S
N102 C99 1.368 . S
N102 C103 1.321 . S
N102 Co105 2.135 . S
C103 N101 1.340 . S
C103 N102 1.321 . S
C103 H127 0.930 . S
H104 C99 0.931 . S
Co105 N102 2.135 . S
Co105 N108 2.121 . S
Co105 O113 2.055 . S
Co105 O116 2.039 . S
Co105 N119 2.140 . S
C106 O107 1.227 . S
C106 O116 1.265 . S
O107 C106 1.227 . S
N108 Co105 2.121 . S
N108 C110 1.375 . S
N108 C111 1.313 . S
C109 C110 1.338 . S
C109 N112 1.377 . S
C109 H129 0.930 . S
C110 N108 1.375 . S
C110 C109 1.338 . S
C110 H114 0.931 . S
C111 N108 1.313 . S
C111 N112 1.344 . S
C111 H115 0.930 . S
N112 C109 1.377 . S
N112 C111 1.344 . S
O113 Co105 2.055 . S
O113 C117 1.253 . S
H114 C110 0.931 . S
H115 C111 0.930 . S
O116 Co105 2.039 . S
O116 C106 1.265 . S
C117 O113 1.253 . S
C117 O118 1.227 . S
O118 C117 1.227 . S
N119 Co105 2.140 . S
N119 C122 1.346 . S
N119 C123 1.345 . S
C120 C121 1.387 . S
C120 C124 1.391 . S
C121 C120 1.387 . S
C121 C122 1.369 . S
C121 H130 0.929 . S
C122 N119 1.346 . S
C122 C121 1.369 . S
C122 H125 0.928 . S
C123 N119 1.345 . S
C123 C124 1.371 . S
C123 H126 0.931 . S
C124 C120 1.391 . S
C124 C123 1.371 . S
C124 H131 0.930 . S
H125 C122 0.928 . S
H126 C123 0.931 . S
H127 C103 0.930 . S
H128 C100 0.930 . S
H129 C109 0.930 . S
H130 C121 0.929 . S
H131 C124 0.930 . S
C132 C133 1.351 . S
C132 N135 1.368 . S
C132 H137 0.931 . S
C133 C132 1.351 . S
C133 N134 1.373 . S
C133 H161 0.930 . S
N134 C133 1.373 . S
N134 C136 1.340 . S
N135 C132 1.368 . S
N135 C136 1.321 . S
N135 Co138 2.135 . S
C136 N134 1.340 . S
C136 N135 1.321 . S
C136 H160 0.930 . S
H137 C132 0.931 . S
Co138 N135 2.135 . S
Co138 N141 2.121 . S
Co138 O146 2.055 . S
Co138 O149 2.039 . S
Co138 N152 2.140 . S
C139 O140 1.227 . S
C139 O149 1.265 . S
O140 C139 1.227 . S
N141 Co138 2.121 . S
N141 C143 1.375 . S
N141 C144 1.313 . S
C142 C143 1.338 . S
C142 N145 1.377 . S
C142 H162 0.930 . S
C143 N141 1.375 . S
C143 C142 1.338 . S
C143 H147 0.931 . S
C144 N141 1.313 . S
C144 N145 1.344 . S
C144 H148 0.930 . S
N145 C142 1.377 . S
N145 C144 1.344 . S
O146 Co138 2.055 . S
O146 C150 1.253 . S
H147 C143 0.931 . S
H148 C144 0.930 . S
O149 Co138 2.039 . S
O149 C139 1.265 . S
C150 O146 1.253 . S
C150 O151 1.227 . S
O151 C150 1.227 . S
N152 Co138 2.140 . S
N152 C155 1.346 . S
N152 C156 1.345 . S
C153 C154 1.387 . S
C153 C157 1.391 . S
C154 C153 1.387 . S
C154 C155 1.369 . S
C154 H163 0.929 . S
C155 N152 1.346 . S
C155 C154 1.369 . S
C155 H158 0.928 . S
C156 N152 1.345 . S
C156 C157 1.371 . S
C156 H159 0.931 . S
C157 C153 1.391 . S
C157 C156 1.371 . S
C157 H164 0.930 . S
H158 C155 0.928 . S
H159 C156 0.931 . S
H160 C136 0.930 . S
H161 C133 0.930 . S
H162 C142 0.930 . S
H163 C154 0.929 . S
H164 C157 0.930 . S
C165 C166 1.351 . S
C165 N168 1.368 . S
C165 H170 0.931 . S
C166 C165 1.351 . S
C166 N167 1.373 . S
C166 H194 0.930 . S
N167 C166 1.373 . S
N167 C169 1.340 . S
N168 C165 1.368 . S
N168 C169 1.321 . S
N168 Co171 2.135 . S
C169 N167 1.340 . S
C169 N168 1.321 . S
C169 H193 0.930 . S
H170 C165 0.931 . S
Co171 N168 2.135 . S
Co171 N174 2.121 . S
Co171 O179 2.055 . S
Co171 O182 2.039 . S
Co171 N185 2.140 . S
C172 O173 1.227 . S
C172 O182 1.265 . S
O173 C172 1.227 . S
N174 Co171 2.121 . S
N174 C176 1.375 . S
N174 C177 1.313 . S
C175 C176 1.338 . S
C175 N178 1.377 . S
C175 H195 0.930 . S
C176 N174 1.375 . S
C176 C175 1.338 . S
C176 H180 0.931 . S
C177 N174 1.313 . S
C177 N178 1.344 . S
C177 H181 0.930 . S
N178 C175 1.377 . S
N178 C177 1.344 . S
O179 Co171 2.055 . S
O179 C183 1.253 . S
H180 C176 0.931 . S
H181 C177 0.930 . S
O182 Co171 2.039 . S
O182 C172 1.265 . S
C183 O179 1.253 . S
C183 O184 1.227 . S
O184 C183 1.227 . S
N185 Co171 2.140 . S
N185 C188 1.346 . S
N185 C189 1.345 . S
C186 C187 1.387 . S
C186 C190 1.391 . S
C187 C186 1.387 . S
C187 C188 1.369 . S
C187 H196 0.929 . S
C188 N185 1.346 . S
C188 C187 1.369 . S
C188 H191 0.928 . S
C189 N185 1.345 . S
C189 C190 1.371 . S
C189 H192 0.931 . S
C190 C186 1.391 . S
C190 C189 1.371 . S
C190 H197 0.930 . S
H191 C188 0.928 . S
H192 C189 0.931 . S
H193 C169 0.930 . S
H194 C166 0.930 . S
H195 C175 0.930 . S
H196 C187 0.929 . S
H197 C190 0.930 . S
C198 C199 1.351 . S
C198 N201 1.368 . S
C198 H203 0.931 . S
C199 C198 1.351 . S
C199 N200 1.373 . S
C199 H227 0.930 . S
N200 C199 1.373 . S
N200 C202 1.340 . S
N201 C198 1.368 . S
N201 C202 1.321 . S
N201 Co204 2.135 . S
C202 N200 1.340 . S
C202 N201 1.321 . S
C202 H226 0.930 . S
H203 C198 0.931 . S
Co204 N201 2.135 . S
Co204 N207 2.121 . S
Co204 O212 2.055 . S
Co204 O215 2.039 . S
Co204 N218 2.140 . S
C205 O206 1.227 . S
C205 O215 1.265 . S
O206 C205 1.227 . S
N207 Co204 2.121 . S
N207 C209 1.375 . S
N207 C210 1.313 . S
C208 C209 1.338 . S
C208 N211 1.377 . S
C208 H228 0.930 . S
C209 N207 1.375 . S
C209 C208 1.338 . S
C209 H213 0.931 . S
C210 N207 1.313 . S
C210 N211 1.344 . S
C210 H214 0.930 . S
N211 C208 1.377 . S
N211 C210 1.344 . S
O212 Co204 2.055 . S
O212 C216 1.253 . S
H213 C209 0.931 . S
H214 C210 0.930 . S
O215 Co204 2.039 . S
O215 C205 1.265 . S
C216 O212 1.253 . S
C216 O217 1.227 . S
O217 C216 1.227 . S
N218 Co204 2.140 . S
N218 C221 1.346 . S
N218 C222 1.345 . S
C219 C220 1.387 . S
C219 C223 1.391 . S
C220 C219 1.387 . S
C220 C221 1.369 . S
C220 H229 0.929 . S
C221 N218 1.346 . S
C221 C220 1.369 . S
C221 H224 0.928 . S
C222 N218 1.345 . S
C222 C223 1.371 . S
C222 H225 0.931 . S
C223 C219 1.391 . S
C223 C222 1.371 . S
C223 H230 0.930 . S
H224 C221 0.928 . S
H225 C222 0.931 . S
H226 C202 0.930 . S
H227 C199 0.930 . S
H228 C208 0.930 . S
H229 C220 0.929 . S
H230 C223 0.930 . S
C231 C232 1.351 . S
C231 N234 1.368 . S
C231 H236 0.931 . S
C232 C231 1.351 . S
C232 N233 1.373 . S
C232 H260 0.930 . S
N233 C232 1.373 . S
N233 C235 1.340 . S
N234 C231 1.368 . S
N234 C235 1.321 . S
N234 Co237 2.135 . S
C235 N233 1.340 . S
C235 N234 1.321 . S
C235 H259 0.930 . S
H236 C231 0.931 . S
Co237 N234 2.135 . S
Co237 N240 2.121 . S
Co237 O245 2.055 . S
Co237 O248 2.039 . S
Co237 N251 2.140 . S
C238 O239 1.227 . S
C238 O248 1.265 . S
O239 C238 1.227 . S
N240 Co237 2.121 . S
N240 C242 1.375 . S
N240 C243 1.313 . S
C241 C242 1.338 . S
C241 N244 1.377 . S
C241 H261 0.930 . S
C242 N240 1.375 . S
C242 C241 1.338 . S
C242 H246 0.931 . S
C243 N240 1.313 . S
C243 N244 1.344 . S
C243 H247 0.930 . S
N244 C241 1.377 . S
N244 C243 1.344 . S
O245 Co237 2.055 . S
O245 C249 1.253 . S
H246 C242 0.931 . S
H247 C243 0.930 . S
O248 Co237 2.039 . S
O248 C238 1.265 . S
C249 O245 1.253 . S
C249 O250 1.227 . S
O250 C249 1.227 . S
N251 Co237 2.140 . S
N251 C254 1.346 . S
N251 C255 1.345 . S
C252 C253 1.387 . S
C252 C256 1.391 . S
C253 C252 1.387 . S
C253 C254 1.369 . S
C253 H262 0.929 . S
C254 N251 1.346 . S
C254 C253 1.369 . S
C254 H257 0.928 . S
C255 N251 1.345 . S
C255 C256 1.371 . S
C255 H258 0.931 . S
C256 C252 1.391 . S
C256 C255 1.371 . S
C256 H263 0.930 . S
H257 C254 0.928 . S
H258 C255 0.931 . S
H259 C235 0.930 . S
H260 C232 0.930 . S
H261 C241 0.930 . S
H262 C253 0.929 . S
H263 C256 0.930 . S
C264 C265 1.351 . S
C264 N267 1.368 . S
C264 H269 0.931 . S
C265 C264 1.351 . S
C265 N266 1.373 . S
C265 H293 0.930 . S
N266 C265 1.373 . S
N266 C268 1.340 . S
N267 C264 1.368 . S
N267 C268 1.321 . S
N267 Co270 2.135 . S
C268 N266 1.340 . S
C268 N267 1.321 . S
C268 H292 0.930 . S
H269 C264 0.931 . S
Co270 N267 2.135 . S
Co270 N273 2.121 . S
Co270 O278 2.055 . S
Co270 O281 2.039 . S
Co270 N284 2.140 . S
C271 O272 1.227 . S
C271 O281 1.265 . S
O272 C271 1.227 . S
N273 Co270 2.121 . S
N273 C275 1.375 . S
N273 C276 1.313 . S
C274 C275 1.338 . S
C274 N277 1.377 . S
C274 H294 0.930 . S
C275 N273 1.375 . S
C275 C274 1.338 . S
C275 H279 0.931 . S
C276 N273 1.313 . S
C276 N277 1.344 . S
C276 H280 0.930 . S
N277 C274 1.377 . S
N277 C276 1.344 . S
O278 Co270 2.055 . S
O278 C282 1.253 . S
H279 C275 0.931 . S
H280 C276 0.930 . S
O281 Co270 2.039 . S
O281 C271 1.265 . S
C282 O278 1.253 . S
C282 O283 1.227 . S
O283 C282 1.227 . S
N284 Co270 2.140 . S
N284 C287 1.346 . S
N284 C288 1.345 . S
C285 C286 1.387 . S
C285 C289 1.391 . S
C286 C285 1.387 . S
C286 C287 1.369 . S
C286 H295 0.929 . S
C287 N284 1.346 . S
C287 C286 1.369 . S
C287 H290 0.928 . S
C288 N284 1.345 . S
C288 C289 1.371 . S
C288 H291 0.931 . S
C289 C285 1.391 . S
C289 C288 1.371 . S
C289 H296 0.930 . S
H290 C287 0.928 . S
H291 C288 0.931 . S
H292 C268 0.930 . S
H293 C265 0.930 . S
H294 C274 0.930 . S
H295 C286 0.929 . S
H296 C289 0.930 . S
C297 C298 1.351 . S
C297 N300 1.368 . S
C297 H302 0.931 . S
C298 C297 1.351 . S
C298 N299 1.373 . S
C298 H326 0.930 . S
N299 C298 1.373 . S
N299 C301 1.340 . S
N300 C297 1.368 . S
N300 C301 1.321 . S
N300 Co303 2.135 . S
C301 N299 1.340 . S
C301 N300 1.321 . S
C301 H325 0.930 . S
H302 C297 0.931 . S
Co303 N300 2.135 . S
Co303 N306 2.121 . S
Co303 O311 2.055 . S
Co303 O314 2.039 . S
Co303 N317 2.140 . S
C304 O305 1.227 . S
C304 O314 1.265 . S
O305 C304 1.227 . S
N306 Co303 2.121 . S
N306 C308 1.375 . S
N306 C309 1.313 . S
C307 C308 1.338 . S
C307 N310 1.377 . S
C307 H327 0.930 . S
C308 N306 1.375 . S
C308 C307 1.338 . S
C308 H312 0.931 . S
C309 N306 1.313 . S
C309 N310 1.344 . S
C309 H313 0.930 . S
N310 C307 1.377 . S
N310 C309 1.344 . S
O311 Co303 2.055 . S
O311 C315 1.253 . S
H312 C308 0.931 . S
H313 C309 0.930 . S
O314 Co303 2.039 . S
O314 C304 1.265 . S
C315 O311 1.253 . S
C315 O316 1.227 . S
O316 C315 1.227 . S
N317 Co303 2.140 . S
N317 C320 1.346 . S
N317 C321 1.345 . S
C318 C319 1.387 . S
C318 C322 1.391 . S
C319 C318 1.387 . S
C319 C320 1.369 . S
C319 H328 0.929 . S
C320 N317 1.346 . S
C320 C319 1.369 . S
C320 H323 0.928 . S
C321 N317 1.345 . S
C321 C322 1.371 . S
C321 H324 0.931 . S
C322 C318 1.391 . S
C322 C321 1.371 . S
C322 H329 0.930 . S
H323 C320 0.928 . S
H324 C321 0.931 . S
H325 C301 0.930 . S
H326 C298 0.930 . S
H327 C307 0.930 . S
H328 C319 0.929 . S
H329 C322 0.930 . S
C330 C331 1.351 . S
C330 N333 1.368 . S
C330 H335 0.931 . S
C331 C330 1.351 . S
C331 N332 1.373 . S
C331 H359 0.930 . S
N332 C331 1.373 . S
N332 C334 1.340 . S
N333 C330 1.368 . S
N333 C334 1.321 . S
N333 Co336 2.135 . S
C334 N332 1.340 . S
C334 N333 1.321 . S
C334 H358 0.930 . S
H335 C330 0.931 . S
Co336 N333 2.135 . S
Co336 N339 2.121 . S
Co336 O344 2.055 . S
Co336 O347 2.039 . S
Co336 N350 2.140 . S
C337 O338 1.227 . S
C337 O347 1.265 . S
O338 C337 1.227 . S
N339 Co336 2.121 . S
N339 C341 1.375 . S
N339 C342 1.313 . S
C340 C341 1.338 . S
C340 N343 1.377 . S
C340 H360 0.930 . S
C341 N339 1.375 . S
C341 C340 1.338 . S
C341 H345 0.931 . S
C342 N339 1.313 . S
C342 N343 1.344 . S
C342 H346 0.930 . S
N343 C340 1.377 . S
N343 C342 1.344 . S
O344 Co336 2.055 . S
O344 C348 1.253 . S
H345 C341 0.931 . S
H346 C342 0.930 . S
O347 Co336 2.039 . S
O347 C337 1.265 . S
C348 O344 1.253 . S
C348 O349 1.227 . S
O349 C348 1.227 . S
N350 Co336 2.140 . S
N350 C353 1.346 . S
N350 C354 1.345 . S
C351 C352 1.387 . S
C351 C355 1.391 . S
C352 C351 1.387 . S
C352 C353 1.369 . S
C352 H361 0.929 . S
C353 N350 1.346 . S
C353 C352 1.369 . S
C353 H356 0.928 . S
C354 N350 1.345 . S
C354 C355 1.371 . S
C354 H357 0.931 . S
C355 C351 1.391 . S
C355 C354 1.371 . S
C355 H362 0.930 . S
H356 C353 0.928 . S
H357 C354 0.931 . S
H358 C334 0.930 . S
H359 C331 0.930 . S
H360 C340 0.930 . S
H361 C352 0.929 . S
H362 C355 0.930 . S
C363 C364 1.351 . S
C363 N366 1.368 . S
C363 H368 0.931 . S
C364 C363 1.351 . S
C364 N365 1.373 . S
C364 H392 0.930 . S
N365 C364 1.373 . S
N365 C367 1.340 . S
N366 C363 1.368 . S
N366 C367 1.321 . S
N366 Co369 2.135 . S
C367 N365 1.340 . S
C367 N366 1.321 . S
C367 H391 0.930 . S
H368 C363 0.931 . S
Co369 N366 2.135 . S
Co369 N372 2.121 . S
Co369 O377 2.055 . S
Co369 O380 2.039 . S
Co369 N383 2.140 . S
C370 O371 1.227 . S
C370 O380 1.265 . S
O371 C370 1.227 . S
N372 Co369 2.121 . S
N372 C374 1.375 . S
N372 C375 1.313 . S
C373 C374 1.338 . S
C373 N376 1.377 . S
C373 H393 0.930 . S
C374 N372 1.375 . S
C374 C373 1.338 . S
C374 H378 0.931 . S
C375 N372 1.313 . S
C375 N376 1.344 . S
C375 H379 0.930 . S
N376 C373 1.377 . S
N376 C375 1.344 . S
O377 Co369 2.055 . S
O377 C381 1.253 . S
H378 C374 0.931 . S
H379 C375 0.930 . S
O380 Co369 2.039 . S
O380 C370 1.265 . S
C381 O377 1.253 . S
C381 O382 1.227 . S
O382 C381 1.227 . S
N383 Co369 2.140 . S
N383 C386 1.346 . S
N383 C387 1.345 . S
C384 C385 1.387 . S
C384 C388 1.391 . S
C385 C384 1.387 . S
C385 C386 1.369 . S
C385 H394 0.929 . S
C386 N383 1.346 . S
C386 C385 1.369 . S
C386 H389 0.928 . S
C387 N383 1.345 . S
C387 C388 1.371 . S
C387 H390 0.931 . S
C388 C384 1.391 . S
C388 C387 1.371 . S
C388 H395 0.930 . S
H389 C386 0.928 . S
H390 C387 0.931 . S
H391 C367 0.930 . S
H392 C364 0.930 . S
H393 C373 0.930 . S
H394 C385 0.929 . S
H395 C388 0.930 . S
C396 C397 1.351 . S
C396 N399 1.368 . S
C396 H401 0.931 . S
C397 C396 1.351 . S
C397 N398 1.373 . S
C397 H425 0.930 . S
N398 C397 1.373 . S
N398 C400 1.340 . S
N399 C396 1.368 . S
N399 C400 1.321 . S
N399 Co402 2.135 . S
C400 N398 1.340 . S
C400 N399 1.321 . S
C400 H424 0.930 . S
H401 C396 0.931 . S
Co402 N399 2.135 . S
Co402 N405 2.121 . S
Co402 O410 2.055 . S
Co402 O413 2.039 . S
Co402 N416 2.140 . S
C403 O404 1.227 . S
C403 O413 1.265 . S
O404 C403 1.227 . S
N405 Co402 2.121 . S
N405 C407 1.375 . S
N405 C408 1.313 . S
C406 C407 1.338 . S
C406 N409 1.377 . S
C406 H426 0.930 . S
C407 N405 1.375 . S
C407 C406 1.338 . S
C407 H411 0.931 . S
C408 N405 1.313 . S
C408 N409 1.344 . S
C408 H412 0.930 . S
N409 C406 1.377 . S
N409 C408 1.344 . S
O410 Co402 2.055 . S
O410 C414 1.253 . S
H411 C407 0.931 . S
H412 C408 0.930 . S
O413 Co402 2.039 . S
O413 C403 1.265 . S
C414 O410 1.253 . S
C414 O415 1.227 . S
O415 C414 1.227 . S
N416 Co402 2.140 . S
N416 C419 1.346 . S
N416 C420 1.345 . S
C417 C418 1.387 . S
C417 C421 1.391 . S
C418 C417 1.387 . S
C418 C419 1.369 . S
C418 H427 0.929 . S
C419 N416 1.346 . S
C419 C418 1.369 . S
C419 H422 0.928 . S
C420 N416 1.345 . S
C420 C421 1.371 . S
C420 H423 0.931 . S
C421 C417 1.391 . S
C421 C420 1.371 . S
C421 H428 0.930 . S
H422 C419 0.928 . S
H423 C420 0.931 . S
H424 C400 0.930 . S
H425 C397 0.930 . S
H426 C406 0.930 . S
H427 C418 0.929 . S
H428 C421 0.930 . S
C429 C430 1.351 . S
C429 N432 1.368 . S
C429 H434 0.931 . S
C430 C429 1.351 . S
C430 N431 1.373 . S
C430 H458 0.930 . S
N431 C430 1.373 . S
N431 C433 1.340 . S
N432 C429 1.368 . S
N432 C433 1.321 . S
N432 Co435 2.135 . S
C433 N431 1.340 . S
C433 N432 1.321 . S
C433 H457 0.930 . S
H434 C429 0.931 . S
Co435 N432 2.135 . S
Co435 N438 2.121 . S
Co435 O443 2.055 . S
Co435 O446 2.039 . S
Co435 N449 2.140 . S
C436 O437 1.227 . S
C436 O446 1.265 . S
O437 C436 1.227 . S
N438 Co435 2.121 . S
N438 C440 1.375 . S
N438 C441 1.313 . S
C439 C440 1.338 . S
C439 N442 1.377 . S
C439 H459 0.930 . S
C440 N438 1.375 . S
C440 C439 1.338 . S
C440 H444 0.931 . S
C441 N438 1.313 . S
C441 N442 1.344 . S
C441 H445 0.930 . S
N442 C439 1.377 . S
N442 C441 1.344 . S
O443 Co435 2.055 . S
O443 C447 1.253 . S
H444 C440 0.931 . S
H445 C441 0.930 . S
O446 Co435 2.039 . S
O446 C436 1.265 . S
C447 O443 1.253 . S
C447 O448 1.227 . S
O448 C447 1.227 . S
N449 Co435 2.140 . S
N449 C452 1.346 . S
N449 C453 1.345 . S
C450 C451 1.387 . S
C450 C454 1.391 . S
C451 C450 1.387 . S
C451 C452 1.369 . S
C451 H460 0.929 . S
C452 N449 1.346 . S
C452 C451 1.369 . S
C452 H455 0.928 . S
C453 N449 1.345 . S
C453 C454 1.371 . S
C453 H456 0.931 . S
C454 C450 1.391 . S
C454 C453 1.371 . S
C454 H461 0.930 . S
H455 C452 0.928 . S
H456 C453 0.931 . S
H457 C433 0.930 . S
H458 C430 0.930 . S
H459 C439 0.930 . S
H460 C451 0.929 . S
H461 C454 0.930 . S
C462 C463 1.351 . S
C462 N465 1.368 . S
C462 H467 0.931 . S
C463 C462 1.351 . S
C463 N464 1.373 . S
C463 H491 0.930 . S
N464 C463 1.373 . S
N464 C466 1.340 . S
N465 C462 1.368 . S
N465 C466 1.321 . S
N465 Co468 2.135 . S
C466 N464 1.340 . S
C466 N465 1.321 . S
C466 H490 0.930 . S
H467 C462 0.931 . S
Co468 N465 2.135 . S
Co468 N471 2.121 . S
Co468 O476 2.055 . S
Co468 O479 2.039 . S
Co468 N482 2.140 . S
C469 O470 1.227 . S
C469 O479 1.265 . S
O470 C469 1.227 . S
N471 Co468 2.121 . S
N471 C473 1.375 . S
N471 C474 1.313 . S
C472 C473 1.338 . S
C472 N475 1.377 . S
C472 H492 0.930 . S
C473 N471 1.375 . S
C473 C472 1.338 . S
C473 H477 0.931 . S
C474 N471 1.313 . S
C474 N475 1.344 . S
C474 H478 0.930 . S
N475 C472 1.377 . S
N475 C474 1.344 . S
O476 Co468 2.055 . S
O476 C480 1.253 . S
H477 C473 0.931 . S
H478 C474 0.930 . S
O479 Co468 2.039 . S
O479 C469 1.265 . S
C480 O476 1.253 . S
C480 O481 1.227 . S
O481 C480 1.227 . S
N482 Co468 2.140 . S
N482 C485 1.346 . S
N482 C486 1.345 . S
C483 C484 1.387 . S
C483 C487 1.391 . S
C484 C483 1.387 . S
C484 C485 1.369 . S
C484 H493 0.929 . S
C485 N482 1.346 . S
C485 C484 1.369 . S
C485 H488 0.928 . S
C486 N482 1.345 . S
C486 C487 1.371 . S
C486 H489 0.931 . S
C487 C483 1.391 . S
C487 C486 1.371 . S
C487 H494 0.930 . S
H488 C485 0.928 . S
H489 C486 0.931 . S
H490 C466 0.930 . S
H491 C463 0.930 . S
H492 C472 0.930 . S
H493 C484 0.929 . S
H494 C487 0.930 . S
C495 C496 1.351 . S
C495 N498 1.368 . S
C495 H500 0.931 . S
C496 C495 1.351 . S
C496 N497 1.373 . S
C496 H524 0.930 . S
N497 C496 1.373 . S
N497 C499 1.340 . S
N498 C495 1.368 . S
N498 C499 1.321 . S
N498 Co501 2.135 . S
C499 N497 1.340 . S
C499 N498 1.321 . S
C499 H523 0.930 . S
H500 C495 0.931 . S
Co501 N498 2.135 . S
Co501 N504 2.121 . S
Co501 O509 2.055 . S
Co501 O512 2.039 . S
Co501 N515 2.140 . S
C502 O503 1.227 . S
C502 O512 1.265 . S
O503 C502 1.227 . S
N504 Co501 2.121 . S
N504 C506 1.375 . S
N504 C507 1.313 . S
C505 C506 1.338 . S
C505 N508 1.377 . S
C505 H525 0.930 . S
C506 N504 1.375 . S
C506 C505 1.338 . S
C506 H510 0.931 . S
C507 N504 1.313 . S
C507 N508 1.344 . S
C507 H511 0.930 . S
N508 C505 1.377 . S
N508 C507 1.344 . S
O509 Co501 2.055 . S
O509 C513 1.253 . S
H510 C506 0.931 . S
H511 C507 0.930 . S
O512 Co501 2.039 . S
O512 C502 1.265 . S
C513 O509 1.253 . S
C513 O514 1.227 . S
O514 C513 1.227 . S
N515 Co501 2.140 . S
N515 C518 1.346 . S
N515 C519 1.345 . S
C516 C517 1.387 . S
C516 C520 1.391 . S
C517 C516 1.387 . S
C517 C518 1.369 . S
C517 H526 0.929 . S
C518 N515 1.346 . S
C518 C517 1.369 . S
C518 H521 0.928 . S
C519 N515 1.345 . S
C519 C520 1.371 . S
C519 H522 0.931 . S
C520 C516 1.391 . S
C520 C519 1.371 . S
C520 H527 0.930 . S
H521 C518 0.928 . S
H522 C519 0.931 . S
H523 C499 0.930 . S
H524 C496 0.930 . S
H525 C505 0.930 . S
H526 C517 0.929 . S
H527 C520 0.930 . S
C528 C529 1.351 . S
C528 N531 1.368 . S
C528 H533 0.931 . S
C529 C528 1.351 . S
C529 N530 1.373 . S
C529 H557 0.930 . S
N530 C529 1.373 . S
N530 C532 1.340 . S
N531 C528 1.368 . S
N531 C532 1.321 . S
N531 Co534 2.135 . S
C532 N530 1.340 . S
C532 N531 1.321 . S
C532 H556 0.930 . S
H533 C528 0.931 . S
Co534 N531 2.135 . S
Co534 N537 2.121 . S
Co534 O542 2.055 . S
Co534 O545 2.039 . S
Co534 N548 2.140 . S
C535 O536 1.227 . S
C535 O545 1.265 . S
O536 C535 1.227 . S
N537 Co534 2.121 . S
N537 C539 1.375 . S
N537 C540 1.313 . S
C538 C539 1.338 . S
C538 N541 1.377 . S
C538 H558 0.930 . S
C539 N537 1.375 . S
C539 C538 1.338 . S
C539 H543 0.931 . S
C540 N537 1.313 . S
C540 N541 1.344 . S
C540 H544 0.930 . S
N541 C538 1.377 . S
N541 C540 1.344 . S
O542 Co534 2.055 . S
O542 C546 1.253 . S
H543 C539 0.931 . S
H544 C540 0.930 . S
O545 Co534 2.039 . S
O545 C535 1.265 . S
C546 O542 1.253 . S
C546 O547 1.227 . S
O547 C546 1.227 . S
N548 Co534 2.140 . S
N548 C551 1.346 . S
N548 C552 1.345 . S
C549 C550 1.387 . S
C549 C553 1.391 . S
C550 C549 1.387 . S
C550 C551 1.369 . S
C550 H559 0.929 . S
C551 N548 1.346 . S
C551 C550 1.369 . S
C551 H554 0.928 . S
C552 N548 1.345 . S
C552 C553 1.371 . S
C552 H555 0.931 . S
C553 C549 1.391 . S
C553 C552 1.371 . S
C553 H560 0.930 . S
H554 C551 0.928 . S
H555 C552 0.931 . S
H556 C532 0.930 . S
H557 C529 0.930 . S
H558 C538 0.930 . S
H559 C550 0.929 . S
H560 C553 0.930 . S
C561 C562 1.351 . S
C561 N564 1.368 . S
C561 H566 0.931 . S
C562 C561 1.351 . S
C562 N563 1.373 . S
C562 H590 0.930 . S
N563 C562 1.373 . S
N563 C565 1.340 . S
N564 C561 1.368 . S
N564 C565 1.321 . S
N564 Co567 2.135 . S
C565 N563 1.340 . S
C565 N564 1.321 . S
C565 H589 0.930 . S
H566 C561 0.931 . S
Co567 N564 2.135 . S
Co567 N570 2.121 . S
Co567 O575 2.055 . S
Co567 O578 2.039 . S
Co567 N581 2.140 . S
C568 O569 1.227 . S
C568 O578 1.265 . S
O569 C568 1.227 . S
N570 Co567 2.121 . S
N570 C572 1.375 . S
N570 C573 1.313 . S
C571 C572 1.338 . S
C571 N574 1.377 . S
C571 H591 0.930 . S
C572 N570 1.375 . S
C572 C571 1.338 . S
C572 H576 0.931 . S
C573 N570 1.313 . S
C573 N574 1.344 . S
C573 H577 0.930 . S
N574 C571 1.377 . S
N574 C573 1.344 . S
O575 Co567 2.055 . S
O575 C579 1.253 . S
H576 C572 0.931 . S
H577 C573 0.930 . S
O578 Co567 2.039 . S
O578 C568 1.265 . S
C579 O575 1.253 . S
C579 O580 1.227 . S
O580 C579 1.227 . S
N581 Co567 2.140 . S
N581 C584 1.346 . S
N581 C585 1.345 . S
C582 C583 1.387 . S
C582 C586 1.391 . S
C583 C582 1.387 . S
C583 C584 1.369 . S
C583 H592 0.929 . S
C584 N581 1.346 . S
C584 C583 1.369 . S
C584 H587 0.928 . S
C585 N581 1.345 . S
C585 C586 1.371 . S
C585 H588 0.931 . S
C586 C582 1.391 . S
C586 C585 1.371 . S
C586 H593 0.930 . S
H587 C584 0.928 . S
H588 C585 0.931 . S
H589 C565 0.930 . S
H590 C562 0.930 . S
H591 C571 0.930 . S
H592 C583 0.929 . S
H593 C586 0.930 . S
C594 C595 1.351 . S
C594 N597 1.368 . S
C594 H599 0.931 . S
C595 C594 1.351 . S
C595 N596 1.373 . S
C595 H623 0.930 . S
N596 C595 1.373 . S
N596 C598 1.340 . S
N597 C594 1.368 . S
N597 C598 1.321 . S
N597 Co600 2.135 . S
C598 N596 1.340 . S
C598 N597 1.321 . S
C598 H622 0.930 . S
H599 C594 0.931 . S
Co600 N597 2.135 . S
Co600 N603 2.121 . S
Co600 O608 2.055 . S
Co600 O611 2.039 . S
Co600 N614 2.140 . S
C601 O602 1.227 . S
C601 O611 1.265 . S
O602 C601 1.227 . S
N603 Co600 2.121 . S
N603 C605 1.375 . S
N603 C606 1.313 . S
C604 C605 1.338 . S
C604 N607 1.377 . S
C604 H624 0.930 . S
C605 N603 1.375 . S
C605 C604 1.338 . S
C605 H609 0.931 . S
C606 N603 1.313 . S
C606 N607 1.344 . S
C606 H610 0.930 . S
N607 C604 1.377 . S
N607 C606 1.344 . S
O608 Co600 2.055 . S
O608 C612 1.253 . S
H609 C605 0.931 . S
H610 C606 0.930 . S
O611 Co600 2.039 . S
O611 C601 1.265 . S
C612 O608 1.253 . S
C612 O613 1.227 . S
O613 C612 1.227 . S
N614 Co600 2.140 . S
N614 C617 1.346 . S
N614 C618 1.345 . S
C615 C616 1.387 . S
C615 C619 1.391 . S
C616 C615 1.387 . S
C616 C617 1.369 . S
C616 H625 0.929 . S
C617 N614 1.346 . S
C617 C616 1.369 . S
C617 H620 0.928 . S
C618 N614 1.345 . S
C618 C619 1.371 . S
C618 H621 0.931 . S
C619 C615 1.391 . S
C619 C618 1.371 . S
C619 H626 0.930 . S
H620 C617 0.928 . S
H621 C618 0.931 . S
H622 C598 0.930 . S
H623 C595 0.930 . S
H624 C604 0.930 . S
H625 C616 0.929 . S
H626 C619 0.930 . S
C627 C628 1.351 . S
C627 N630 1.368 . S
C627 H632 0.931 . S
C628 C627 1.351 . S
C628 N629 1.373 . S
C628 H656 0.930 . S
N629 C628 1.373 . S
N629 C631 1.340 . S
N630 C627 1.368 . S
N630 C631 1.321 . S
N630 Co633 2.135 . S
C631 N629 1.340 . S
C631 N630 1.321 . S
C631 H655 0.930 . S
H632 C627 0.931 . S
Co633 N630 2.135 . S
Co633 N636 2.121 . S
Co633 O641 2.055 . S
Co633 O644 2.039 . S
Co633 N647 2.140 . S
C634 O635 1.227 . S
C634 O644 1.265 . S
O635 C634 1.227 . S
N636 Co633 2.121 . S
N636 C638 1.375 . S
N636 C639 1.313 . S
C637 C638 1.338 . S
C637 N640 1.377 . S
C637 H657 0.930 . S
C638 N636 1.375 . S
C638 C637 1.338 . S
C638 H642 0.931 . S
C639 N636 1.313 . S
C639 N640 1.344 . S
C639 H643 0.930 . S
N640 C637 1.377 . S
N640 C639 1.344 . S
O641 Co633 2.055 . S
O641 C645 1.253 . S
H642 C638 0.931 . S
H643 C639 0.930 . S
O644 Co633 2.039 . S
O644 C634 1.265 . S
C645 O641 1.253 . S
C645 O646 1.227 . S
O646 C645 1.227 . S
N647 Co633 2.140 . S
N647 C650 1.346 . S
N647 C651 1.345 . S
C648 C649 1.387 . S
C648 C652 1.391 . S
C649 C648 1.387 . S
C649 C650 1.369 . S
C649 H658 0.929 . S
C650 N647 1.346 . S
C650 C649 1.369 . S
C650 H653 0.928 . S
C651 N647 1.345 . S
C651 C652 1.371 . S
C651 H654 0.931 . S
C652 C648 1.391 . S
C652 C651 1.371 . S
C652 H659 0.930 . S
H653 C650 0.928 . S
H654 C651 0.931 . S
H655 C631 0.930 . S
H656 C628 0.930 . S
H657 C637 0.930 . S
H658 C649 0.929 . S
H659 C652 0.930 . S
C660 C661 1.351 . S
C660 N663 1.368 . S
C660 H665 0.931 . S
C661 C660 1.351 . S
C661 N662 1.373 . S
C661 H689 0.930 . S
N662 C661 1.373 . S
N662 C664 1.340 . S
N663 C660 1.368 . S
N663 C664 1.321 . S
N663 Co666 2.135 . S
C664 N662 1.340 . S
C664 N663 1.321 . S
C664 H688 0.930 . S
H665 C660 0.931 . S
Co666 N663 2.135 . S
Co666 N669 2.121 . S
Co666 O674 2.055 . S
Co666 O677 2.039 . S
Co666 N680 2.140 . S
C667 O668 1.227 . S
C667 O677 1.265 . S
O668 C667 1.227 . S
N669 Co666 2.121 . S
N669 C671 1.375 . S
N669 C672 1.313 . S
C670 C671 1.338 . S
C670 N673 1.377 . S
C670 H690 0.930 . S
C671 N669 1.375 . S
C671 C670 1.338 . S
C671 H675 0.931 . S
C672 N669 1.313 . S
C672 N673 1.344 . S
C672 H676 0.930 . S
N673 C670 1.377 . S
N673 C672 1.344 . S
O674 Co666 2.055 . S
O674 C678 1.253 . S
H675 C671 0.931 . S
H676 C672 0.930 . S
O677 Co666 2.039 . S
O677 C667 1.265 . S
C678 O674 1.253 . S
C678 O679 1.227 . S
O679 C678 1.227 . S
N680 Co666 2.140 . S
N680 C683 1.346 . S
N680 C684 1.345 . S
C681 C682 1.387 . S
C681 C685 1.391 . S
C682 C681 1.387 . S
C682 C683 1.369 . S
C682 H691 0.929 . S
C683 N680 1.346 . S
C683 C682 1.369 . S
C683 H686 0.928 . S
C684 N680 1.345 . S
C684 C685 1.371 . S
C684 H687 0.931 . S
C685 C681 1.391 . S
C685 C684 1.371 . S
C685 H692 0.930 . S
H686 C683 0.928 . S
H687 C684 0.931 . S
H688 C664 0.930 . S
H689 C661 0.930 . S
H690 C670 0.930 . S
H691 C682 0.929 . S
H692 C685 0.930 . S
C693 C694 1.351 . S
C693 N696 1.368 . S
C693 H698 0.931 . S
C694 C693 1.351 . S
C694 N695 1.373 . S
C694 H722 0.930 . S
N695 C694 1.373 . S
N695 C697 1.340 . S
N696 C693 1.368 . S
N696 C697 1.321 . S
N696 Co699 2.135 . S
C697 N695 1.340 . S
C697 N696 1.321 . S
C697 H721 0.930 . S
H698 C693 0.931 . S
Co699 N696 2.135 . S
Co699 N702 2.121 . S
Co699 O707 2.055 . S
Co699 O710 2.039 . S
Co699 N713 2.140 . S
C700 O701 1.227 . S
C700 O710 1.265 . S
O701 C700 1.227 . S
N702 Co699 2.121 . S
N702 C704 1.375 . S
N702 C705 1.313 . S
C703 C704 1.338 . S
C703 N706 1.377 . S
C703 H723 0.930 . S
C704 N702 1.375 . S
C704 C703 1.338 . S
C704 H708 0.931 . S
C705 N702 1.313 . S
C705 N706 1.344 . S
C705 H709 0.930 . S
N706 C703 1.377 . S
N706 C705 1.344 . S
O707 Co699 2.055 . S
O707 C711 1.253 . S
H708 C704 0.931 . S
H709 C705 0.930 . S
O710 Co699 2.039 . S
O710 C700 1.265 . S
C711 O707 1.253 . S
C711 O712 1.227 . S
O712 C711 1.227 . S
N713 Co699 2.140 . S
N713 C716 1.346 . S
N713 C717 1.345 . S
C714 C715 1.387 . S
C714 C718 1.391 . S
C715 C714 1.387 . S
C715 C716 1.369 . S
C715 H724 0.929 . S
C716 N713 1.346 . S
C716 C715 1.369 . S
C716 H719 0.928 . S
C717 N713 1.345 . S
C717 C718 1.371 . S
C717 H720 0.931 . S
C718 C714 1.391 . S
C718 C717 1.371 . S
C718 H725 0.930 . S
H719 C716 0.928 . S
H720 C717 0.931 . S
H721 C697 0.930 . S
H722 C694 0.930 . S
H723 C703 0.930 . S
H724 C715 0.929 . S
H725 C718 0.930 . S
C726 C727 1.351 . S
C726 N729 1.368 . S
C726 H731 0.931 . S
C727 C726 1.351 . S
C727 N728 1.373 . S
C727 H755 0.930 . S
N728 C727 1.373 . S
N728 C730 1.340 . S
N729 C726 1.368 . S
N729 C730 1.321 . S
N729 Co732 2.135 . S
C730 N728 1.340 . S
C730 N729 1.321 . S
C730 H754 0.930 . S
H731 C726 0.931 . S
Co732 N729 2.135 . S
Co732 N735 2.121 . S
Co732 O740 2.055 . S
Co732 O743 2.039 . S
Co732 N746 2.140 . S
C733 O734 1.227 . S
C733 O743 1.265 . S
O734 C733 1.227 . S
N735 Co732 2.121 . S
N735 C737 1.375 . S
N735 C738 1.313 . S
C736 C737 1.338 . S
C736 N739 1.377 . S
C736 H756 0.930 . S
C737 N735 1.375 . S
C737 C736 1.338 . S
C737 H741 0.931 . S
C738 N735 1.313 . S
C738 N739 1.344 . S
C738 H742 0.930 . S
N739 C736 1.377 . S
N739 C738 1.344 . S
O740 Co732 2.055 . S
O740 C744 1.253 . S
H741 C737 0.931 . S
H742 C738 0.930 . S
O743 Co732 2.039 . S
O743 C733 1.265 . S
C744 O740 1.253 . S
C744 O745 1.227 . S
O745 C744 1.227 . S
N746 Co732 2.140 . S
N746 C749 1.346 . S
N746 C750 1.345 . S
C747 C748 1.387 . S
C747 C751 1.391 . S
C748 C747 1.387 . S
C748 C749 1.369 . S
C748 H757 0.929 . S
C749 N746 1.346 . S
C749 C748 1.369 . S
C749 H752 0.928 . S
C750 N746 1.345 . S
C750 C751 1.371 . S
C750 H753 0.931 . S
C751 C747 1.391 . S
C751 C750 1.371 . S
C751 H758 0.930 . S
H752 C749 0.928 . S
H753 C750 0.931 . S
H754 C730 0.930 . S
H755 C727 0.930 . S
H756 C736 0.930 . S
H757 C748 0.929 . S
H758 C751 0.930 . S
C759 C760 1.351 . S
C759 N762 1.368 . S
C759 H764 0.931 . S
C760 C759 1.351 . S
C760 N761 1.373 . S
C760 H788 0.930 . S
N761 C760 1.373 . S
N761 C763 1.340 . S
N762 C759 1.368 . S
N762 C763 1.321 . S
N762 Co765 2.135 . S
C763 N761 1.340 . S
C763 N762 1.321 . S
C763 H787 0.930 . S
H764 C759 0.931 . S
Co765 N762 2.135 . S
Co765 N768 2.121 . S
Co765 O773 2.055 . S
Co765 O776 2.039 . S
Co765 N779 2.140 . S
C766 O767 1.227 . S
C766 O776 1.265 . S
O767 C766 1.227 . S
N768 Co765 2.121 . S
N768 C770 1.375 . S
N768 C771 1.313 . S
C769 C770 1.338 . S
C769 N772 1.377 . S
C769 H789 0.930 . S
C770 N768 1.375 . S
C770 C769 1.338 . S
C770 H774 0.931 . S
C771 N768 1.313 . S
C771 N772 1.344 . S
C771 H775 0.930 . S
N772 C769 1.377 . S
N772 C771 1.344 . S
O773 Co765 2.055 . S
O773 C777 1.253 . S
H774 C770 0.931 . S
H775 C771 0.930 . S
O776 Co765 2.039 . S
O776 C766 1.265 . S
C777 O773 1.253 . S
C777 O778 1.227 . S
O778 C777 1.227 . S
N779 Co765 2.140 . S
N779 C782 1.346 . S
N779 C783 1.345 . S
C780 C781 1.387 . S
C780 C784 1.391 . S
C781 C780 1.387 . S
C781 C782 1.369 . S
C781 H790 0.929 . S
C782 N779 1.346 . S
C782 C781 1.369 . S
C782 H785 0.928 . S
C783 N779 1.345 . S
C783 C784 1.371 . S
C783 H786 0.931 . S
C784 C780 1.391 . S
C784 C783 1.371 . S
C784 H791 0.930 . S
H785 C782 0.928 . S
H786 C783 0.931 . S
H787 C763 0.930 . S
H788 C760 0.930 . S
H789 C769 0.930 . S
H790 C781 0.929 . S
H791 C784 0.930 . S
C792 C793 1.351 . S
C792 N795 1.368 . S
C792 H797 0.931 . S
C793 C792 1.351 . S
C793 N794 1.373 . S
C793 H821 0.930 . S
N794 C793 1.373 . S
N794 C796 1.340 . S
N795 C792 1.368 . S
N795 C796 1.321 . S
N795 Co798 2.135 . S
C796 N794 1.340 . S
C796 N795 1.321 . S
C796 H820 0.930 . S
H797 C792 0.931 . S
Co798 N795 2.135 . S
Co798 N801 2.121 . S
Co798 O806 2.055 . S
Co798 O809 2.039 . S
Co798 N812 2.140 . S
C799 O800 1.227 . S
C799 O809 1.265 . S
O800 C799 1.227 . S
N801 Co798 2.121 . S
N801 C803 1.375 . S
N801 C804 1.313 . S
C802 C803 1.338 . S
C802 N805 1.377 . S
C802 H822 0.930 . S
C803 N801 1.375 . S
C803 C802 1.338 . S
C803 H807 0.931 . S
C804 N801 1.313 . S
C804 N805 1.344 . S
C804 H808 0.930 . S
N805 C802 1.377 . S
N805 C804 1.344 . S
O806 Co798 2.055 . S
O806 C810 1.253 . S
H807 C803 0.931 . S
H808 C804 0.930 . S
O809 Co798 2.039 . S
O809 C799 1.265 . S
C810 O806 1.253 . S
C810 O811 1.227 . S
O811 C810 1.227 . S
N812 Co798 2.140 . S
N812 C815 1.346 . S
N812 C816 1.345 . S
C813 C814 1.387 . S
C813 C817 1.391 . S
C814 C813 1.387 . S
C814 C815 1.369 . S
C814 H823 0.929 . S
C815 N812 1.346 . S
C815 C814 1.369 . S
C815 H818 0.928 . S
C816 N812 1.345 . S
C816 C817 1.371 . S
C816 H819 0.931 . S
C817 C813 1.391 . S
C817 C816 1.371 . S
C817 H824 0.930 . S
H818 C815 0.928 . S
H819 C816 0.931 . S
H820 C796 0.930 . S
H821 C793 0.930 . S
H822 C802 0.930 . S
H823 C814 0.929 . S
H824 C817 0.930 . S
C825 C826 1.351 . S
C825 N828 1.368 . S
C825 H830 0.931 . S
C826 C825 1.351 . S
C826 N827 1.373 . S
C826 H854 0.930 . S
N827 C826 1.373 . S
N827 C829 1.340 . S
N828 C825 1.368 . S
N828 C829 1.321 . S
N828 Co831 2.135 . S
C829 N827 1.340 . S
C829 N828 1.321 . S
C829 H853 0.930 . S
H830 C825 0.931 . S
Co831 N828 2.135 . S
Co831 N834 2.121 . S
Co831 O839 2.055 . S
Co831 O842 2.039 . S
Co831 N845 2.140 . S
C832 O833 1.227 . S
C832 O842 1.265 . S
O833 C832 1.227 . S
N834 Co831 2.121 . S
N834 C836 1.375 . S
N834 C837 1.313 . S
C835 C836 1.338 . S
C835 N838 1.377 . S
C835 H855 0.930 . S
C836 N834 1.375 . S
C836 C835 1.338 . S
C836 H840 0.931 . S
C837 N834 1.313 . S
C837 N838 1.344 . S
C837 H841 0.930 . S
N838 C835 1.377 . S
N838 C837 1.344 . S
O839 Co831 2.055 . S
O839 C843 1.253 . S
H840 C836 0.931 . S
H841 C837 0.930 . S
O842 Co831 2.039 . S
O842 C832 1.265 . S
C843 O839 1.253 . S
C843 O844 1.227 . S
O844 C843 1.227 . S
N845 Co831 2.140 . S
N845 C848 1.346 . S
N845 C849 1.345 . S
C846 C847 1.387 . S
C846 C850 1.391 . S
C847 C846 1.387 . S
C847 C848 1.369 . S
C847 H856 0.929 . S
C848 N845 1.346 . S
C848 C847 1.369 . S
C848 H851 0.928 . S
C849 N845 1.345 . S
C849 C850 1.371 . S
C849 H852 0.931 . S
C850 C846 1.391 . S
C850 C849 1.371 . S
C850 H857 0.930 . S
H851 C848 0.928 . S
H852 C849 0.931 . S
H853 C829 0.930 . S
H854 C826 0.930 . S
H855 C835 0.930 . S
H856 C847 0.929 . S
H857 C850 0.930 . S
C858 C859 1.351 . S
C858 N861 1.368 . S
C858 H863 0.931 . S
C859 C858 1.351 . S
C859 N860 1.373 . S
C859 H887 0.930 . S
N860 C859 1.373 . S
N860 C862 1.340 . S
N861 C858 1.368 . S
N861 C862 1.321 . S
N861 Co864 2.135 . S
C862 N860 1.340 . S
C862 N861 1.321 . S
C862 H886 0.930 . S
H863 C858 0.931 . S
Co864 N861 2.135 . S
Co864 N867 2.121 . S
Co864 O872 2.055 . S
Co864 O875 2.039 . S
Co864 N878 2.140 . S
C865 O866 1.227 . S
C865 O875 1.265 . S
O866 C865 1.227 . S
N867 Co864 2.121 . S
N867 C869 1.375 . S
N867 C870 1.313 . S
C868 C869 1.338 . S
C868 N871 1.377 . S
C868 H888 0.930 . S
C869 N867 1.375 . S
C869 C868 1.338 . S
C869 H873 0.931 . S
C870 N867 1.313 . S
C870 N871 1.344 . S
C870 H874 0.930 . S
N871 C868 1.377 . S
N871 C870 1.344 . S
O872 Co864 2.055 . S
O872 C876 1.253 . S
H873 C869 0.931 . S
H874 C870 0.930 . S
O875 Co864 2.039 . S
O875 C865 1.265 . S
C876 O872 1.253 . S
C876 O877 1.227 . S
O877 C876 1.227 . S
N878 Co864 2.140 . S
N878 C881 1.346 . S
N878 C882 1.345 . S
C879 C880 1.387 . S
C879 C883 1.391 . S
C880 C879 1.387 . S
C880 C881 1.369 . S
C880 H889 0.929 . S
C881 N878 1.346 . S
C881 C880 1.369 . S
C881 H884 0.928 . S
C882 N878 1.345 . S
C882 C883 1.371 . S
C882 H885 0.931 . S
C883 C879 1.391 . S
C883 C882 1.371 . S
C883 H890 0.930 . S
H884 C881 0.928 . S
H885 C882 0.931 . S
H886 C862 0.930 . S
H887 C859 0.930 . S
H888 C868 0.930 . S
H889 C880 0.929 . S
H890 C883 0.930 . S
C891 C892 1.351 . S
C891 N894 1.368 . S
C891 H896 0.931 . S
C892 C891 1.351 . S
C892 N893 1.373 . S
C892 H920 0.930 . S
N893 C892 1.373 . S
N893 C895 1.340 . S
N894 C891 1.368 . S
N894 C895 1.321 . S
N894 Co897 2.135 . S
C895 N893 1.340 . S
C895 N894 1.321 . S
C895 H919 0.930 . S
H896 C891 0.931 . S
Co897 N894 2.135 . S
Co897 N900 2.121 . S
Co897 O905 2.055 . S
Co897 O908 2.039 . S
Co897 N911 2.140 . S
C898 O899 1.227 . S
C898 O908 1.265 . S
O899 C898 1.227 . S
N900 Co897 2.121 . S
N900 C902 1.375 . S
N900 C903 1.313 . S
C901 C902 1.338 . S
C901 N904 1.377 . S
C901 H921 0.930 . S
C902 N900 1.375 . S
C902 C901 1.338 . S
C902 H906 0.931 . S
C903 N900 1.313 . S
C903 N904 1.344 . S
C903 H907 0.930 . S
N904 C901 1.377 . S
N904 C903 1.344 . S
O905 Co897 2.055 . S
O905 C909 1.253 . S
H906 C902 0.931 . S
H907 C903 0.930 . S
O908 Co897 2.039 . S
O908 C898 1.265 . S
C909 O905 1.253 . S
C909 O910 1.227 . S
O910 C909 1.227 . S
N911 Co897 2.140 . S
N911 C914 1.346 . S
N911 C915 1.345 . S
C912 C913 1.387 . S
C912 C916 1.391 . S
C913 C912 1.387 . S
C913 C914 1.369 . S
C913 H922 0.929 . S
C914 N911 1.346 . S
C914 C913 1.369 . S
C914 H917 0.928 . S
C915 N911 1.345 . S
C915 C916 1.371 . S
C915 H918 0.931 . S
C916 C912 1.391 . S
C916 C915 1.371 . S
C916 H923 0.930 . S
H917 C914 0.928 . S
H918 C915 0.931 . S
H919 C895 0.930 . S
H920 C892 0.930 . S
H921 C901 0.930 . S
H922 C913 0.929 . S
H923 C916 0.930 . S
C924 C925 1.351 . S
C924 N927 1.368 . S
C924 H929 0.931 . S
C925 C924 1.351 . S
C925 N926 1.373 . S
C925 H953 0.930 . S
N926 C925 1.373 . S
N926 C928 1.340 . S
N927 C924 1.368 . S
N927 C928 1.321 . S
N927 Co930 2.135 . S
C928 N926 1.340 . S
C928 N927 1.321 . S
C928 H952 0.930 . S
H929 C924 0.931 . S
Co930 N927 2.135 . S
Co930 N933 2.121 . S
Co930 O938 2.055 . S
Co930 O941 2.039 . S
Co930 N944 2.140 . S
C931 O932 1.227 . S
C931 O941 1.265 . S
O932 C931 1.227 . S
N933 Co930 2.121 . S
N933 C935 1.375 . S
N933 C936 1.313 . S
C934 C935 1.338 . S
C934 N937 1.377 . S
C934 H954 0.930 . S
C935 N933 1.375 . S
C935 C934 1.338 . S
C935 H939 0.931 . S
C936 N933 1.313 . S
C936 N937 1.344 . S
C936 H940 0.930 . S
N937 C934 1.377 . S
N937 C936 1.344 . S
O938 Co930 2.055 . S
O938 C942 1.253 . S
H939 C935 0.931 . S
H940 C936 0.930 . S
O941 Co930 2.039 . S
O941 C931 1.265 . S
C942 O938 1.253 . S
C942 O943 1.227 . S
O943 C942 1.227 . S
N944 Co930 2.140 . S
N944 C947 1.346 . S
N944 C948 1.345 . S
C945 C946 1.387 . S
C945 C949 1.391 . S
C946 C945 1.387 . S
C946 C947 1.369 . S
C946 H955 0.929 . S
C947 N944 1.346 . S
C947 C946 1.369 . S
C947 H950 0.928 . S
C948 N944 1.345 . S
C948 C949 1.371 . S
C948 H951 0.931 . S
C949 C945 1.391 . S
C949 C948 1.371 . S
C949 H956 0.930 . S
H950 C947 0.928 . S
H951 C948 0.931 . S
H952 C928 0.930 . S
H953 C925 0.930 . S
H954 C934 0.930 . S
H955 C946 0.929 . S
H956 C949 0.930 . S
C957 C958 1.351 . S
C957 N960 1.368 . S
C957 H962 0.931 . S
C958 C957 1.351 . S
C958 N959 1.373 . S
C958 H986 0.930 . S
N959 C958 1.373 . S
N959 C961 1.340 . S
N960 C957 1.368 . S
N960 C961 1.321 . S
N960 Co963 2.135 . S
C961 N959 1.340 . S
C961 N960 1.321 . S
C961 H985 0.930 . S
H962 C957 0.931 . S
Co963 N960 2.135 . S
Co963 N966 2.121 . S
Co963 O971 2.055 . S
Co963 O974 2.039 . S
Co963 N977 2.140 . S
C964 O965 1.227 . S
C964 O974 1.265 . S
O965 C964 1.227 . S
N966 Co963 2.121 . S
N966 C968 1.375 . S
N966 C969 1.313 . S
C967 C968 1.338 . S
C967 N970 1.377 . S
C967 H987 0.930 . S
C968 N966 1.375 . S
C968 C967 1.338 . S
C968 H972 0.931 . S
C969 N966 1.313 . S
C969 N970 1.344 . S
C969 H973 0.930 . S
N970 C967 1.377 . S
N970 C969 1.344 . S
O971 Co963 2.055 . S
O971 C975 1.253 . S
H972 C968 0.931 . S
H973 C969 0.930 . S
O974 Co963 2.039 . S
O974 C964 1.265 . S
C975 O971 1.253 . S
C975 O976 1.227 . S
O976 C975 1.227 . S
N977 Co963 2.140 . S
N977 C980 1.346 . S
N977 C981 1.345 . S
C978 C979 1.387 . S
C978 C982 1.391 . S
C979 C978 1.387 . S
C979 C980 1.369 . S
C979 H988 0.929 . S
C980 N977 1.346 . S
C980 C979 1.369 . S
C980 H983 0.928 . S
C981 N977 1.345 . S
C981 C982 1.371 . S
C981 H984 0.931 . S
C982 C978 1.391 . S
C982 C981 1.371 . S
C982 H989 0.930 . S
H983 C980 0.928 . S
H984 C981 0.931 . S
H985 C961 0.930 . S
H986 C958 0.930 . S
H987 C967 0.930 . S
H988 C979 0.929 . S
H989 C982 0.930 . S
C990 C991 1.351 . S
C990 N993 1.368 . S
C990 H995 0.931 . S
C991 C990 1.351 . S
C991 N992 1.373 . S
C991 H1019 0.930 . S
N992 C991 1.373 . S
N992 C994 1.340 . S
N993 C990 1.368 . S
N993 C994 1.321 . S
N993 Co996 2.135 . S
C994 N992 1.340 . S
C994 N993 1.321 . S
C994 H1018 0.930 . S
H995 C990 0.931 . S
Co996 N993 2.135 . S
Co996 N999 2.121 . S
Co996 O1004 2.055 . S
Co996 O1007 2.039 . S
Co996 N1010 2.140 . S
C997 O998 1.227 . S
C997 O1007 1.265 . S
O998 C997 1.227 . S
N999 Co996 2.121 . S
N999 C1001 1.375 . S
N999 C1002 1.313 . S
C1000 C1001 1.338 . S
C1000 N1003 1.377 . S
C1000 H1020 0.930 . S
C1001 N999 1.375 . S
C1001 C1000 1.338 . S
C1001 H1005 0.931 . S
C1002 N999 1.313 . S
C1002 N1003 1.344 . S
C1002 H1006 0.930 . S
N1003 C1000 1.377 . S
N1003 C1002 1.344 . S
O1004 Co996 2.055 . S
O1004 C1008 1.253 . S
H1005 C1001 0.931 . S
H1006 C1002 0.930 . S
O1007 Co996 2.039 . S
O1007 C997 1.265 . S
C1008 O1004 1.253 . S
C1008 O1009 1.227 . S
O1009 C1008 1.227 . S
N1010 Co996 2.140 . S
N1010 C1013 1.346 . S
N1010 C1014 1.345 . S
C1011 C1012 1.387 . S
C1011 C1015 1.391 . S
C1012 C1011 1.387 . S
C1012 C1013 1.369 . S
C1012 H1021 0.929 . S
C1013 N1010 1.346 . S
C1013 C1012 1.369 . S
C1013 H1016 0.928 . S
C1014 N1010 1.345 . S
C1014 C1015 1.371 . S
C1014 H1017 0.931 . S
C1015 C1011 1.391 . S
C1015 C1014 1.371 . S
C1015 H1022 0.930 . S
H1016 C1013 0.928 . S
H1017 C1014 0.931 . S
H1018 C994 0.930 . S
H1019 C991 0.930 . S
H1020 C1000 0.930 . S
H1021 C1012 0.929 . S
H1022 C1015 0.930 . S
C1023 C1024 1.351 . S
C1023 N1026 1.368 . S
C1023 H1028 0.931 . S
C1024 C1023 1.351 . S
C1024 N1025 1.373 . S
C1024 H1052 0.930 . S
N1025 C1024 1.373 . S
N1025 C1027 1.340 . S
N1026 C1023 1.368 . S
N1026 C1027 1.321 . S
N1026 Co1029 2.135 . S
C1027 N1025 1.340 . S
C1027 N1026 1.321 . S
C1027 H1051 0.930 . S
H1028 C1023 0.931 . S
Co1029 N1026 2.135 . S
Co1029 N1032 2.121 . S
Co1029 O1037 2.055 . S
Co1029 O1040 2.039 . S
Co1029 N1043 2.140 . S
C1030 O1031 1.227 . S
C1030 O1040 1.265 . S
O1031 C1030 1.227 . S
N1032 Co1029 2.121 . S
N1032 C1034 1.375 . S
N1032 C1035 1.313 . S
C1033 C1034 1.338 . S
C1033 N1036 1.377 . S
C1033 H1053 0.930 . S
C1034 N1032 1.375 . S
C1034 C1033 1.338 . S
C1034 H1038 0.931 . S
C1035 N1032 1.313 . S
C1035 N1036 1.344 . S
C1035 H1039 0.930 . S
N1036 C1033 1.377 . S
N1036 C1035 1.344 . S
O1037 Co1029 2.055 . S
O1037 C1041 1.253 . S
H1038 C1034 0.931 . S
H1039 C1035 0.930 . S
O1040 Co1029 2.039 . S
O1040 C1030 1.265 . S
C1041 O1037 1.253 . S
C1041 O1042 1.227 . S
O1042 C1041 1.227 . S
N1043 Co1029 2.140 . S
N1043 C1046 1.346 . S
N1043 C1047 1.345 . S
C1044 C1045 1.387 . S
C1044 C1048 1.391 . S
C1045 C1044 1.387 . S
C1045 C1046 1.369 . S
C1045 H1054 0.929 . S
C1046 N1043 1.346 . S
C1046 C1045 1.369 . S
C1046 H1049 0.928 . S
C1047 N1043 1.345 . S
C1047 C1048 1.371 . S
C1047 H1050 0.931 . S
C1048 C1044 1.391 . S
C1048 C1047 1.371 . S
C1048 H1055 0.930 . S
H1049 C1046 0.928 . S
H1050 C1047 0.931 . S
H1051 C1027 0.930 . S
H1052 C1024 0.930 . S
H1053 C1033 0.930 . S
H1054 C1045 0.929 . S
H1055 C1048 0.930 . S
C1056 C1057 1.391 . S
C1056 C1058 1.394 . S
C1056 H1072 0.931 . S
C1057 C1056 1.391 . S
C1057 C1061 1.376 . S
C1058 C1056 1.394 . S
C1058 C1059 1.369 . S
C1058 C1062 1.531 . S
C1059 C1058 1.369 . S
C1059 C1060 1.410 . S
C1059 C1067 1.503 . S
C1060 C1059 1.410 . S
C1060 C1061 1.392 . S
C1060 C1063 1.511 . S
C1061 C1057 1.376 . S
C1061 C1060 1.392 . S
C1061 H1073 0.929 . S
C1062 C1058 1.531 . S
C1062 H1074 0.960 . S
C1062 H1075 0.962 . S
C1062 H1076 0.960 . S
C1063 C1060 1.511 . S
C1063 H1077 0.961 . S
C1063 H1078 0.961 . S
C1063 H1079 0.961 . S
C1064 C1065 1.370 . S
C1064 C1066 1.363 . S
C1064 H1080 0.931 . S
C1065 C1064 1.370 . S
C1065 C1069 1.408 . S
C1066 C1064 1.363 . S
C1066 C1067 1.370 . S
C1066 C1070 1.524 . S
C1067 C1059 1.503 . S
C1067 C1066 1.370 . S
C1067 C1068 1.403 . S
C1068 C1067 1.403 . S
C1068 C1069 1.404 . S
C1068 C1071 1.539 . S
C1069 C1065 1.408 . S
C1069 C1068 1.404 . S
C1069 H1081 0.930 . S
C1070 C1066 1.524 . S
C1070 H1082 0.956 . S
C1070 H1083 0.961 . S
C1070 H1084 0.961 . S
C1071 C1068 1.539 . S
C1071 H1085 0.958 . S
C1071 H1086 0.961 . S
C1071 H1087 0.960 . S
H1072 C1056 0.931 . S
H1073 C1061 0.929 . S
H1074 C1062 0.960 . S
H1075 C1062 0.962 . S
H1076 C1062 0.960 . S
H1077 C1063 0.961 . S
H1078 C1063 0.961 . S
H1079 C1063 0.961 . S
H1080 C1064 0.931 . S
H1081 C1069 0.930 . S
H1082 C1070 0.956 . S
H1083 C1070 0.961 . S
H1084 C1070 0.961 . S
H1085 C1071 0.958 . S
H1086 C1071 0.961 . S
H1087 C1071 0.960 . S
C1088 C1089 1.391 . S
C1088 C1090 1.394 . S
C1088 H1104 0.931 . S
C1089 C1088 1.391 . S
C1089 C1093 1.376 . S
C1090 C1088 1.394 . S
C1090 C1091 1.369 . S
C1090 C1094 1.531 1_655 S
C1091 C1090 1.369 . S
C1091 C1092 1.410 1_565 S
C1091 C1099 1.503 1_665 S
C1092 C1091 1.410 1_545 S
C1092 C1093 1.392 1_545 S
C1092 C1095 1.511 . S
C1093 C1089 1.376 . S
C1093 C1092 1.392 1_565 S
C1093 H1105 0.929 1_565 S
C1094 C1090 1.531 1_455 S
C1094 H1106 0.960 . S
C1094 H1107 0.962 . S
C1094 H1108 0.960 . S
C1095 C1092 1.511 . S
C1095 H1109 0.961 . S
C1095 H1110 0.961 . S
C1095 H1111 0.961 . S
C1096 C1097 1.370 . S
C1096 C1098 1.363 . S
C1096 H1112 0.931 . S
C1097 C1096 1.370 . S
C1097 C1101 1.408 . S
C1098 C1096 1.363 . S
C1098 C1099 1.370 . S
C1098 C1102 1.524 . S
C1099 C1091 1.503 1_445 S
C1099 C1098 1.370 . S
C1099 C1100 1.403 . S
C1100 C1099 1.403 . S
C1100 C1101 1.404 . S
C1100 C1103 1.539 1_445 S
C1101 C1097 1.408 . S
C1101 C1100 1.404 . S
C1101 H1113 0.930 . S
C1102 C1098 1.524 . S
C1102 H1114 0.956 1_545 S
C1102 H1115 0.961 . S
C1102 H1116 0.961 . S
C1103 C1100 1.539 1_665 S
C1103 H1117 0.958 . S
C1103 H1118 0.961 1_565 S
C1103 H1119 0.960 . S
H1104 C1088 0.931 . S
H1105 C1093 0.929 1_545 S
H1106 C1094 0.960 . S
H1107 C1094 0.962 . S
H1108 C1094 0.960 . S
H1109 C1095 0.961 . S
H1110 C1095 0.961 . S
H1111 C1095 0.961 . S
H1112 C1096 0.931 . S
H1113 C1101 0.930 . S
H1114 C1102 0.956 1_565 S
H1115 C1102 0.961 . S
H1116 C1102 0.961 . S
H1117 C1103 0.958 . S
H1118 C1103 0.961 1_545 S
H1119 C1103 0.960 . S
C1120 C1121 1.391 . S
C1120 C1122 1.394 . S
C1120 H1136 0.931 . S
C1121 C1120 1.391 . S
C1121 C1125 1.376 . S
C1122 C1120 1.394 . S
C1122 C1123 1.369 . S
C1122 C1126 1.531 . S
C1123 C1122 1.369 . S
C1123 C1124 1.410 . S
C1123 C1131 1.503 . S
C1124 C1123 1.410 . S
C1124 C1125 1.392 . S
C1124 C1127 1.511 . S
C1125 C1121 1.376 . S
C1125 C1124 1.392 . S
C1125 H1137 0.929 . S
C1126 C1122 1.531 . S
C1126 H1138 0.960 . S
C1126 H1139 0.962 . S
C1126 H1140 0.960 . S
C1127 C1124 1.511 . S
C1127 H1141 0.961 . S
C1127 H1142 0.961 . S
C1127 H1143 0.961 . S
C1128 C1129 1.370 . S
C1128 C1130 1.363 . S
C1128 H1144 0.931 . S
C1129 C1128 1.370 . S
C1129 C1133 1.408 . S
C1130 C1128 1.363 . S
C1130 C1131 1.370 . S
C1130 C1134 1.524 . S
C1131 C1123 1.503 . S
C1131 C1130 1.370 . S
C1131 C1132 1.403 . S
C1132 C1131 1.403 . S
C1132 C1133 1.404 . S
C1132 C1135 1.539 . S
C1133 C1129 1.408 . S
C1133 C1132 1.404 . S
C1133 H1145 0.930 . S
C1134 C1130 1.524 . S
C1134 H1146 0.956 . S
C1134 H1147 0.961 . S
C1134 H1148 0.961 . S
C1135 C1132 1.539 . S
C1135 H1149 0.958 . S
C1135 H1150 0.961 . S
C1135 H1151 0.960 . S
H1136 C1120 0.931 . S
H1137 C1125 0.929 . S
H1138 C1126 0.960 . S
H1139 C1126 0.962 . S
H1140 C1126 0.960 . S
H1141 C1127 0.961 . S
H1142 C1127 0.961 . S
H1143 C1127 0.961 . S
H1144 C1128 0.931 . S
H1145 C1133 0.930 . S
H1146 C1134 0.956 . S
H1147 C1134 0.961 . S
H1148 C1134 0.961 . S
H1149 C1135 0.958 . S
H1150 C1135 0.961 . S
H1151 C1135 0.960 . S
C1152 C1153 1.391 . S
C1152 C1154 1.394 1_556 S
C1152 H1168 0.931 . S
C1153 C1152 1.391 . S
C1153 C1157 1.376 . S
C1154 C1152 1.394 1_554 S
C1154 C1155 1.369 1_554 S
C1154 C1158 1.531 . S
C1155 C1154 1.369 1_556 S
C1155 C1156 1.410 . S
C1155 C1163 1.503 1_566 S
C1156 C1155 1.410 . S
C1156 C1157 1.392 . S
C1156 C1159 1.511 . S
C1157 C1153 1.376 . S
C1157 C1156 1.392 . S
C1157 H1169 0.929 . S
C1158 C1154 1.531 . S
C1158 H1170 0.960 . S
C1158 H1171 0.962 1_565 S
C1158 H1172 0.960 . S
C1159 C1156 1.511 . S
C1159 H1173 0.961 . S
C1159 H1174 0.961 1_565 S
C1159 H1175 0.961 . S
C1160 C1161 1.370 . S
C1160 C1162 1.363 . S
C1160 H1176 0.931 . S
C1161 C1160 1.370 . S
C1161 C1165 1.413 . S
C1162 C1160 1.363 . S
C1162 C1163 1.370 . S
C1162 C1166 1.524 1_554 S
C1163 C1155 1.503 1_544 S
C1163 C1162 1.370 . S
C1163 C1164 1.403 1_545 S
C1164 C1163 1.403 1_565 S
C1164 C1165 1.402 1_565 S
C1164 C1167 1.539 . S
C1165 C1161 1.413 . S
C1165 C1164 1.402 1_545 S
C1165 H1177 0.927 1_545 S
C1166 C1162 1.524 1_556 S
C1166 H1178 0.956 1_556 S
C1166 H1179 0.961 . S
C1166 H1180 0.961 . S
C1167 C1164 1.539 . S
C1167 H1181 0.958 . S
C1167 H1182 0.961 . S
C1167 H1183 0.960 . S
H1168 C1152 0.931 . S
H1169 C1157 0.929 . S
H1170 C1158 0.960 . S
H1171 C1158 0.962 1_545 S
H1172 C1158 0.960 . S
H1173 C1159 0.961 . S
H1174 C1159 0.961 1_545 S
H1175 C1159 0.961 . S
H1176 C1160 0.931 . S
H1177 C1165 0.927 1_565 S
H1178 C1166 0.956 1_554 S
H1179 C1166 0.961 . S
H1180 C1166 0.961 . S
H1181 C1167 0.958 . S
H1182 C1167 0.961 . S
H1183 C1167 0.960 . S
C1184 C1185 1.391 . S
C1184 C1186 1.394 . S
C1184 H1200 0.931 . S
C1185 C1184 1.391 . S
C1185 C1189 1.376 . S
C1186 C1184 1.394 . S
C1186 C1187 1.369 . S
C1186 C1190 1.531 . S
C1187 C1186 1.369 . S
C1187 C1188 1.410 . S
C1187 C1195 1.503 . S
C1188 C1187 1.410 . S
C1188 C1189 1.392 . S
C1188 C1191 1.511 . S
C1189 C1185 1.376 . S
C1189 C1188 1.392 . S
C1189 H1201 0.929 . S
C1190 C1186 1.531 . S
C1190 H1202 0.960 . S
C1190 H1203 0.962 . S
C1190 H1204 0.960 . S
C1191 C1188 1.511 . S
C1191 H1205 0.961 . S
C1191 H1206 0.961 . S
C1191 H1207 0.961 . S
C1192 C1193 1.370 . S
C1192 C1194 1.363 . S
C1192 H1208 0.931 . S
C1193 C1192 1.370 . S
C1193 C1197 1.408 . S
C1194 C1192 1.363 . S
C1194 C1195 1.370 . S
C1194 C1198 1.524 . S
C1195 C1187 1.503 . S
C1195 C1194 1.370 . S
C1195 C1196 1.403 . S
C1196 C1195 1.403 . S
C1196 C1197 1.404 . S
C1196 C1199 1.539 . S
C1197 C1193 1.408 . S
C1197 C1196 1.404 . S
C1197 H1209 0.930 . S
C1198 C1194 1.524 . S
C1198 H1210 0.956 . S
C1198 H1211 0.961 . S
C1198 H1212 0.961 . S
C1199 C1196 1.539 . S
C1199 H1213 0.958 . S
C1199 H1214 0.961 . S
C1199 H1215 0.960 . S
H1200 C1184 0.931 . S
H1201 C1189 0.929 . S
H1202 C1190 0.960 . S
H1203 C1190 0.962 . S
H1204 C1190 0.960 . S
H1205 C1191 0.961 . S
H1206 C1191 0.961 . S
H1207 C1191 0.961 . S
H1208 C1192 0.931 . S
H1209 C1197 0.930 . S
H1210 C1198 0.956 . S
H1211 C1198 0.961 . S
H1212 C1198 0.961 . S
H1213 C1199 0.958 . S
H1214 C1199 0.961 . S
H1215 C1199 0.960 . S
C1216 C1217 1.391 . S
C1216 C1218 1.394 1_565 S
C1216 H1232 0.931 1_565 S
C1217 C1216 1.391 . S
C1217 C1221 1.376 . S
C1218 C1216 1.394 1_545 S
C1218 C1219 1.369 1_545 S
C1218 C1222 1.531 . S
C1219 C1218 1.369 1_565 S
C1219 C1220 1.410 . S
C1219 C1227 1.503 1_565 S
C1220 C1219 1.410 . S
C1220 C1221 1.392 . S
C1220 C1223 1.511 . S
C1221 C1217 1.376 . S
C1221 C1220 1.392 . S
C1221 H1233 0.929 . S
C1222 C1218 1.531 . S
C1222 H1234 0.960 . S
C1222 H1235 0.962 . S
C1222 H1236 0.960 . S
C1223 C1220 1.511 . S
C1223 H1237 0.961 . S
C1223 H1238 0.961 . S
C1223 H1239 0.961 . S
C1224 C1225 1.370 . S
C1224 C1226 1.355 1_545 S
C1224 H1240 0.931 . S
C1225 C1224 1.370 . S
C1225 C1229 1.408 . S
C1226 C1224 1.355 1_565 S
C1226 C1227 1.364 1_565 S
C1226 C1230 1.539 . S
C1227 C1219 1.503 1_545 S
C1227 C1226 1.364 1_545 S
C1227 C1228 1.403 . S
C1228 C1227 1.403 . S
C1228 C1229 1.404 . S
C1228 C1231 1.539 . S
C1229 C1225 1.408 . S
C1229 C1228 1.404 . S
C1229 H1241 0.930 . S
C1230 C1226 1.539 . S
C1230 H1242 0.956 . S
C1230 H1243 0.961 . S
C1230 H1244 0.961 . S
C1231 C1228 1.539 . S
C1231 H1245 0.958 . S
C1231 H1246 0.961 . S
C1231 H1247 0.960 . S
H1232 C1216 0.931 1_545 S
H1233 C1221 0.929 . S
H1234 C1222 0.960 . S
H1235 C1222 0.962 . S
H1236 C1222 0.960 . S
H1237 C1223 0.961 . S
H1238 C1223 0.961 . S
H1239 C1223 0.961 . S
H1240 C1224 0.931 . S
H1241 C1229 0.930 . S
H1242 C1230 0.956 . S
H1243 C1230 0.961 . S
H1244 C1230 0.961 . S
H1245 C1231 0.958 . S
H1246 C1231 0.961 . S
H1247 C1231 0.960 . S
C1248 C1249 1.391 . S
C1248 C1250 1.394 . S
C1248 H1264 0.931 . S
C1249 C1248 1.391 . S
C1249 C1253 1.376 . S
C1250 C1248 1.394 . S
C1250 C1251 1.369 . S
C1250 C1254 1.531 . S
C1251 C1250 1.369 . S
C1251 C1252 1.410 . S
C1251 C1259 1.503 . S
C1252 C1251 1.410 . S
C1252 C1253 1.392 . S
C1252 C1255 1.511 . S
C1253 C1249 1.376 . S
C1253 C1252 1.392 . S
C1253 H1265 0.929 . S
C1254 C1250 1.531 . S
C1254 H1266 0.960 . S
C1254 H1267 0.962 . S
C1254 H1268 0.960 . S
C1255 C1252 1.511 . S
C1255 H1269 0.961 . S
C1255 H1270 0.961 . S
C1255 H1271 0.961 . S
C1256 C1257 1.370 . S
C1256 C1258 1.363 . S
C1256 H1272 0.931 . S
C1257 C1256 1.370 . S
C1257 C1261 1.408 . S
C1258 C1256 1.363 . S
C1258 C1259 1.370 . S
C1258 C1262 1.524 . S
C1259 C1251 1.503 . S
C1259 C1258 1.370 . S
C1259 C1260 1.403 . S
C1260 C1259 1.403 . S
C1260 C1261 1.404 . S
C1260 C1263 1.539 . S
C1261 C1257 1.408 . S
C1261 C1260 1.404 . S
C1261 H1273 0.930 . S
C1262 C1258 1.524 . S
C1262 H1274 0.956 . S
C1262 H1275 0.961 . S
C1262 H1276 0.961 . S
C1263 C1260 1.539 . S
C1263 H1277 0.958 . S
C1263 H1278 0.961 . S
C1263 H1279 0.960 . S
H1264 C1248 0.931 . S
H1265 C1253 0.929 . S
H1266 C1254 0.960 . S
H1267 C1254 0.962 . S
H1268 C1254 0.960 . S
H1269 C1255 0.961 . S
H1270 C1255 0.961 . S
H1271 C1255 0.961 . S
H1272 C1256 0.931 . S
H1273 C1261 0.930 . S
H1274 C1262 0.956 . S
H1275 C1262 0.961 . S
H1276 C1262 0.961 . S
H1277 C1263 0.958 . S
H1278 C1263 0.961 . S
H1279 C1263 0.960 . S
C1280 C1281 1.391 . S
C1280 C1282 1.401 . S
C1280 H1296 0.931 . S
C1281 C1280 1.391 . S
C1281 C1285 1.376 . S
C1282 C1280 1.401 . S
C1282 C1283 1.374 . S
C1282 C1286 1.518 1_554 S
C1283 C1282 1.374 . S
C1283 C1284 1.401 1_565 S
C1283 C1291 1.503 1_464 S
C1284 C1283 1.401 1_545 S
C1284 C1285 1.384 1_545 S
C1284 C1287 1.529 1_455 S
C1285 C1281 1.376 . S
C1285 C1284 1.384 1_565 S
C1285 H1297 0.929 . S
C1286 C1282 1.518 1_556 S
C1286 H1298 0.960 1_455 S
C1286 H1299 0.962 . S
C1286 H1300 0.960 . S
C1287 C1284 1.529 1_655 S
C1287 H1301 0.961 1_655 S
C1287 H1302 0.961 . S
C1287 H1303 0.961 . S
C1288 C1289 1.370 . S
C1288 C1290 1.363 . S
C1288 H1304 0.931 . S
C1289 C1288 1.370 . S
C1289 C1293 1.408 . S
C1290 C1288 1.363 . S
C1290 C1291 1.370 . S
C1290 C1294 1.524 1_655 S
C1291 C1283 1.503 1_646 S
C1291 C1290 1.370 . S
C1291 C1292 1.403 1_545 S
C1292 C1291 1.403 1_565 S
C1292 C1293 1.404 1_565 S
C1292 C1295 1.539 1_556 S
C1293 C1289 1.408 . S
C1293 C1292 1.404 1_545 S
C1293 H1305 0.930 . S
C1294 C1290 1.524 1_455 S
C1294 H1306 0.956 . S
C1294 H1307 0.961 . S
C1294 H1308 0.961 . S
C1295 C1292 1.539 1_554 S
C1295 H1309 0.958 . S
C1295 H1310 0.961 . S
C1295 H1311 0.960 . S
H1296 C1280 0.931 . S
H1297 C1285 0.929 . S
H1298 C1286 0.960 1_655 S
H1299 C1286 0.962 . S
H1300 C1286 0.960 . S
H1301 C1287 0.961 1_455 S
H1302 C1287 0.961 . S
H1303 C1287 0.961 . S
H1304 C1288 0.931 . S
H1305 C1293 0.930 . S
H1306 C1294 0.956 . S
H1307 C1294 0.961 . S
H1308 C1294 0.961 . S
H1309 C1295 0.958 . S
H1310 C1295 0.961 . S
H1311 C1295 0.960 . S
C1312 C1313 1.391 . S
C1312 C1314 1.394 . S
C1312 H1328 0.931 . S
C1313 C1312 1.391 . S
C1313 C1317 1.376 . S
C1314 C1312 1.394 . S
C1314 C1315 1.369 . S
C1314 C1318 1.531 . S
C1315 C1314 1.369 . S
C1315 C1316 1.410 . S
C1315 C1323 1.503 . S
C1316 C1315 1.410 . S
C1316 C1317 1.392 . S
C1316 C1319 1.511 . S
C1317 C1313 1.376 . S
C1317 C1316 1.392 . S
C1317 H1329 0.929 . S
C1318 C1314 1.531 . S
C1318 H1330 0.960 . S
C1318 H1331 0.962 . S
C1318 H1332 0.960 . S
C1319 C1316 1.511 . S
C1319 H1333 0.961 . S
C1319 H1334 0.961 . S
C1319 H1335 0.961 . S
C1320 C1321 1.370 . S
C1320 C1322 1.363 . S
C1320 H1336 0.931 . S
C1321 C1320 1.370 . S
C1321 C1325 1.408 . S
C1322 C1320 1.363 . S
C1322 C1323 1.370 . S
C1322 C1326 1.524 . S
C1323 C1315 1.503 . S
C1323 C1322 1.370 . S
C1323 C1324 1.403 . S
C1324 C1323 1.403 . S
C1324 C1325 1.404 . S
C1324 C1327 1.539 . S
C1325 C1321 1.408 . S
C1325 C1324 1.404 . S
C1325 H1337 0.930 . S
C1326 C1322 1.524 . S
C1326 H1338 0.956 . S
C1326 H1339 0.961 . S
C1326 H1340 0.961 . S
C1327 C1324 1.539 . S
C1327 H1341 0.958 . S
C1327 H1342 0.961 . S
C1327 H1343 0.960 . S
H1328 C1312 0.931 . S
H1329 C1317 0.929 . S
H1330 C1318 0.960 . S
H1331 C1318 0.962 . S
H1332 C1318 0.960 . S
H1333 C1319 0.961 . S
H1334 C1319 0.961 . S
H1335 C1319 0.961 . S
H1336 C1320 0.931 . S
H1337 C1325 0.930 . S
H1338 C1326 0.956 . S
H1339 C1326 0.961 . S
H1340 C1326 0.961 . S
H1341 C1327 0.958 . S
H1342 C1327 0.961 . S
H1343 C1327 0.960 . S
C1344 C1345 1.391 . S
C1344 C1346 1.394 . S
C1344 H1360 0.931 . S
C1345 C1344 1.391 . S
C1345 C1349 1.376 . S
C1346 C1344 1.394 . S
C1346 C1347 1.369 . S
C1346 C1350 1.531 . S
C1347 C1346 1.369 . S
C1347 C1348 1.410 . S
C1347 C1355 1.503 . S
C1348 C1347 1.410 . S
C1348 C1349 1.392 . S
C1348 C1351 1.511 . S
C1349 C1345 1.376 . S
C1349 C1348 1.392 . S
C1349 H1361 0.929 . S
C1350 C1346 1.531 . S
C1350 H1362 0.960 . S
C1350 H1363 0.962 . S
C1350 H1364 0.960 . S
C1351 C1348 1.511 . S
C1351 H1365 0.961 . S
C1351 H1366 0.961 . S
C1351 H1367 0.961 . S
C1352 C1353 1.370 . S
C1352 C1354 1.363 . S
C1352 H1368 0.931 . S
C1353 C1352 1.370 . S
C1353 C1357 1.408 . S
C1354 C1352 1.363 . S
C1354 C1355 1.370 . S
C1354 C1358 1.524 . S
C1355 C1347 1.503 . S
C1355 C1354 1.370 . S
C1355 C1356 1.403 . S
C1356 C1355 1.403 . S
C1356 C1357 1.404 . S
C1356 C1359 1.539 . S
C1357 C1353 1.408 . S
C1357 C1356 1.404 . S
C1357 H1369 0.930 . S
C1358 C1354 1.524 . S
C1358 H1370 0.956 . S
C1358 H1371 0.961 . S
C1358 H1372 0.961 . S
C1359 C1356 1.539 . S
C1359 H1373 0.958 . S
C1359 H1374 0.961 . S
C1359 H1375 0.960 . S
H1360 C1344 0.931 . S
H1361 C1349 0.929 . S
H1362 C1350 0.960 . S
H1363 C1350 0.962 . S
H1364 C1350 0.960 . S
H1365 C1351 0.961 . S
H1366 C1351 0.961 . S
H1367 C1351 0.961 . S
H1368 C1352 0.931 . S
H1369 C1357 0.930 . S
H1370 C1358 0.956 . S
H1371 C1358 0.961 . S
H1372 C1358 0.961 . S
H1373 C1359 0.958 . S
H1374 C1359 0.961 . S
H1375 C1359 0.960 . S
C1376 C1377 1.391 . S
C1376 C1378 1.394 . S
C1376 H1392 0.931 . S
C1377 C1376 1.391 . S
C1377 C1381 1.376 . S
C1378 C1376 1.394 . S
C1378 C1379 1.369 . S
C1378 C1382 1.531 . S
C1379 C1378 1.369 . S
C1379 C1380 1.410 . S
C1379 C1387 1.503 . S
C1380 C1379 1.410 . S
C1380 C1381 1.392 . S
C1380 C1383 1.511 . S
C1381 C1377 1.376 . S
C1381 C1380 1.392 . S
C1381 H1393 0.929 . S
C1382 C1378 1.531 . S
C1382 H1394 0.960 . S
C1382 H1395 0.962 . S
C1382 H1396 0.960 . S
C1383 C1380 1.511 . S
C1383 H1397 0.961 . S
C1383 H1398 0.961 . S
C1383 H1399 0.961 . S
C1384 C1385 1.370 . S
C1384 C1386 1.363 . S
C1384 H1400 0.931 . S
C1385 C1384 1.370 . S
C1385 C1389 1.408 . S
C1386 C1384 1.363 . S
C1386 C1387 1.370 . S
C1386 C1390 1.524 . S
C1387 C1379 1.503 . S
C1387 C1386 1.370 . S
C1387 C1388 1.403 . S
C1388 C1387 1.403 . S
C1388 C1389 1.404 . S
C1388 C1391 1.539 . S
C1389 C1385 1.408 . S
C1389 C1388 1.404 . S
C1389 H1401 0.930 . S
C1390 C1386 1.524 . S
C1390 H1402 0.956 . S
C1390 H1403 0.961 . S
C1390 H1404 0.961 . S
C1391 C1388 1.539 . S
C1391 H1405 0.958 . S
C1391 H1406 0.961 . S
C1391 H1407 0.960 . S
H1392 C1376 0.931 . S
H1393 C1381 0.929 . S
H1394 C1382 0.960 . S
H1395 C1382 0.962 . S
H1396 C1382 0.960 . S
H1397 C1383 0.961 . S
H1398 C1383 0.961 . S
H1399 C1383 0.961 . S
H1400 C1384 0.931 . S
H1401 C1389 0.930 . S
H1402 C1390 0.956 . S
H1403 C1390 0.961 . S
H1404 C1390 0.961 . S
H1405 C1391 0.958 . S
H1406 C1391 0.961 . S
H1407 C1391 0.960 . S
C1408 C1409 1.391 . S
C1408 C1410 1.394 . S
C1408 H1424 0.931 . S
C1409 C1408 1.391 . S
C1409 C1413 1.376 . S
C1410 C1408 1.394 . S
C1410 C1411 1.369 . S
C1410 C1414 1.531 . S
C1411 C1410 1.369 . S
C1411 C1412 1.410 . S
C1411 C1419 1.503 . S
C1412 C1411 1.410 . S
C1412 C1413 1.392 . S
C1412 C1415 1.511 . S
C1413 C1409 1.376 . S
C1413 C1412 1.392 . S
C1413 H1425 0.929 . S
C1414 C1410 1.531 . S
C1414 H1426 0.960 . S
C1414 H1427 0.962 . S
C1414 H1428 0.960 . S
C1415 C1412 1.511 . S
C1415 H1429 0.961 . S
C1415 H1430 0.961 . S
C1415 H1431 0.961 . S
C1416 C1417 1.370 . S
C1416 C1418 1.363 . S
C1416 H1432 0.931 . S
C1417 C1416 1.370 . S
C1417 C1421 1.408 . S
C1418 C1416 1.363 . S
C1418 C1419 1.370 . S
C1418 C1422 1.524 . S
C1419 C1411 1.503 . S
C1419 C1418 1.370 . S
C1419 C1420 1.403 . S
C1420 C1419 1.403 . S
C1420 C1421 1.404 . S
C1420 C1423 1.539 . S
C1421 C1417 1.408 . S
C1421 C1420 1.404 . S
C1421 H1433 0.930 . S
C1422 C1418 1.524 . S
C1422 H1434 0.956 . S
C1422 H1435 0.961 . S
C1422 H1436 0.961 . S
C1423 C1420 1.539 . S
C1423 H1437 0.958 . S
C1423 H1438 0.961 . S
C1423 H1439 0.960 . S
H1424 C1408 0.931 . S
H1425 C1413 0.929 . S
H1426 C1414 0.960 . S
H1427 C1414 0.962 . S
H1428 C1414 0.960 . S
H1429 C1415 0.961 . S
H1430 C1415 0.961 . S
H1431 C1415 0.961 . S
H1432 C1416 0.931 . S
H1433 C1421 0.930 . S
H1434 C1422 0.956 . S
H1435 C1422 0.961 . S
H1436 C1422 0.961 . S
H1437 C1423 0.958 . S
H1438 C1423 0.961 . S
H1439 C1423 0.960 . S
C1440 C1441 1.391 . S
C1440 C1442 1.387 1_556 S
C1440 H1456 0.931 . S
C1441 C1440 1.391 . S
C1441 C1445 1.376 . S
C1442 C1440 1.387 1_554 S
C1442 C1443 1.367 1_554 S
C1442 C1446 1.539 . S
C1443 C1442 1.367 1_556 S
C1443 C1444 1.410 . S
C1443 C1451 1.503 1_556 S
C1444 C1443 1.410 . S
C1444 C1445 1.392 . S
C1444 C1447 1.511 . S
C1445 C1441 1.376 . S
C1445 C1444 1.392 . S
C1445 H1457 0.929 . S
C1446 C1442 1.539 . S
C1446 H1458 0.960 . S
C1446 H1459 0.962 . S
C1446 H1460 0.960 . S
C1447 C1444 1.511 . S
C1447 H1461 0.961 . S
C1447 H1462 0.961 . S
C1447 H1463 0.961 . S
C1448 C1449 1.370 . S
C1448 C1450 1.392 . S
C1448 H1464 0.931 . S
C1449 C1448 1.370 . S
C1449 C1453 1.408 . S
C1450 C1448 1.392 . S
C1450 C1451 1.392 . S
C1450 C1454 1.477 1_554 S
C1451 C1443 1.503 1_554 S
C1451 C1450 1.392 . S
C1451 C1452 1.403 . S
C1452 C1451 1.403 . S
C1452 C1453 1.404 . S
C1452 C1455 1.539 . S
C1453 C1449 1.408 . S
C1453 C1452 1.404 . S
C1453 H1465 0.930 . S
C1454 C1450 1.477 1_556 S
C1454 H1466 0.956 . S
C1454 H1467 0.961 . S
C1454 H1468 0.961 . S
C1455 C1452 1.539 . S
C1455 H1469 0.958 . S
C1455 H1470 0.961 . S
C1455 H1471 0.960 . S
H1456 C1440 0.931 . S
H1457 C1445 0.929 . S
H1458 C1446 0.960 . S
H1459 C1446 0.962 . S
H1460 C1446 0.960 . S
H1461 C1447 0.961 . S
H1462 C1447 0.961 . S
H1463 C1447 0.961 . S
H1464 C1448 0.931 . S
H1465 C1453 0.930 . S
H1466 C1454 0.956 . S
H1467 C1454 0.961 . S
H1468 C1454 0.961 . S
H1469 C1455 0.958 . S
H1470 C1455 0.961 . S
H1471 C1455 0.960 . S
C1472 C1473 1.391 . S
C1472 C1474 1.394 . S
C1472 H1488 0.931 . S
C1473 C1472 1.391 . S
C1473 C1477 1.376 . S
C1474 C1472 1.394 . S
C1474 C1475 1.369 . S
C1474 C1478 1.531 1_455 S
C1475 C1474 1.369 . S
C1475 C1476 1.410 . S
C1475 C1483 1.503 1_455 S
C1476 C1475 1.410 . S
C1476 C1477 1.392 . S
C1476 C1479 1.511 . S
C1477 C1473 1.376 . S
C1477 C1476 1.392 . S
C1477 H1489 0.929 . S
C1478 C1474 1.531 1_655 S
C1478 H1490 0.960 . S
C1478 H1491 0.962 . S
C1478 H1492 0.960 . S
C1479 C1476 1.511 . S
C1479 H1493 0.961 . S
C1479 H1494 0.961 . S
C1479 H1495 0.961 . S
C1480 C1481 1.370 . S
C1480 C1482 1.363 . S
C1480 H1496 0.931 . S
C1481 C1480 1.370 . S
C1481 C1485 1.408 . S
C1482 C1480 1.363 . S
C1482 C1483 1.370 . S
C1482 C1486 1.524 1_655 S
C1483 C1475 1.503 1_655 S
C1483 C1482 1.370 . S
C1483 C1484 1.403 . S
C1484 C1483 1.403 . S
C1484 C1485 1.404 . S
C1484 C1487 1.539 . S
C1485 C1481 1.408 . S
C1485 C1484 1.404 . S
C1485 H1497 0.930 . S
C1486 C1482 1.524 1_455 S
C1486 H1498 0.956 . S
C1486 H1499 0.961 . S
C1486 H1500 0.961 . S
C1487 C1484 1.539 . S
C1487 H1501 0.958 . S
C1487 H1502 0.961 . S
C1487 H1503 0.960 . S
H1488 C1472 0.931 . S
H1489 C1477 0.929 . S
H1490 C1478 0.960 . S
H1491 C1478 0.962 . S
H1492 C1478 0.960 . S
H1493 C1479 0.961 . S
H1494 C1479 0.961 . S
H1495 C1479 0.961 . S
H1496 C1480 0.931 . S
H1497 C1485 0.930 . S
H1498 C1486 0.956 . S
H1499 C1486 0.961 . S
H1500 C1486 0.961 . S
H1501 C1487 0.958 . S
H1502 C1487 0.961 . S
H1503 C1487 0.960 . S
C1504 C1505 1.391 . S
C1504 C1506 1.394 . S
C1504 H1520 0.931 . S
C1505 C1504 1.391 . S
C1505 C1509 1.376 . S
C1506 C1504 1.394 . S
C1506 C1507 1.369 . S
C1506 C1510 1.531 1_455 S
C1507 C1506 1.369 . S
C1507 C1508 1.410 . S
C1507 C1515 1.503 1_456 S
C1508 C1507 1.410 . S
C1508 C1509 1.392 . S
C1508 C1511 1.511 1_556 S
C1509 C1505 1.376 . S
C1509 C1508 1.392 . S
C1509 H1521 0.929 . S
C1510 C1506 1.531 1_655 S
C1510 H1522 0.960 1_556 S
C1510 H1523 0.962 . S
C1510 H1524 0.960 . S
C1511 C1508 1.511 1_554 S
C1511 H1525 0.961 . S
C1511 H1526 0.961 . S
C1511 H1527 0.961 . S
C1512 C1513 1.370 . S
C1512 C1514 1.335 1_554 S
C1512 H1528 0.931 . S
C1513 C1512 1.370 . S
C1513 C1517 1.408 . S
C1514 C1512 1.335 1_556 S
C1514 C1515 1.343 1_556 S
C1514 C1518 1.581 . S
C1515 C1507 1.503 1_654 S
C1515 C1514 1.343 1_554 S
C1515 C1516 1.403 . S
C1516 C1515 1.403 . S
C1516 C1517 1.404 . S
C1516 C1519 1.539 1_655 S
C1517 C1513 1.408 . S
C1517 C1516 1.404 . S
C1517 H1529 0.930 . S
C1518 C1514 1.581 . S
C1518 H1530 0.956 . S
C1518 H1531 0.961 . S
C1518 H1532 0.961 . S
C1519 C1516 1.539 1_455 S
C1519 H1533 0.958 1_455 S
C1519 H1534 0.961 . S
C1519 H1535 0.960 . S
H1520 C1504 0.931 . S
H1521 C1509 0.929 . S
H1522 C1510 0.960 1_554 S
H1523 C1510 0.962 . S
H1524 C1510 0.960 . S
H1525 C1511 0.961 . S
H1526 C1511 0.961 . S
H1527 C1511 0.961 . S
H1528 C1512 0.931 . S
H1529 C1517 0.930 . S
H1530 C1518 0.956 . S
H1531 C1518 0.961 . S
H1532 C1518 0.961 . S
H1533 C1519 0.958 1_655 S
H1534 C1519 0.961 . S
H1535 C1519 0.960 . S
C1536 C1537 1.391 . S
C1536 C1538 1.394 . S
C1536 H1552 0.931 . S
C1537 C1536 1.391 . S
C1537 C1541 1.376 . S
C1538 C1536 1.394 . S
C1538 C1539 1.369 . S
C1538 C1542 1.531 . S
C1539 C1538 1.369 . S
C1539 C1540 1.410 . S
C1539 C1547 1.503 . S
C1540 C1539 1.410 . S
C1540 C1541 1.392 . S
C1540 C1543 1.511 . S
C1541 C1537 1.376 . S
C1541 C1540 1.392 . S
C1541 H1553 0.929 . S
C1542 C1538 1.531 . S
C1542 H1554 0.960 . S
C1542 H1555 0.962 . S
C1542 H1556 0.960 . S
C1543 C1540 1.511 . S
C1543 H1557 0.961 . S
C1543 H1558 0.961 . S
C1543 H1559 0.961 . S
C1544 C1545 1.370 . S
C1544 C1546 1.363 . S
C1544 H1560 0.931 . S
C1545 C1544 1.370 . S
C1545 C1549 1.408 . S
C1546 C1544 1.363 . S
C1546 C1547 1.370 . S
C1546 C1550 1.524 . S
C1547 C1539 1.503 . S
C1547 C1546 1.370 . S
C1547 C1548 1.403 . S
C1548 C1547 1.403 . S
C1548 C1549 1.404 . S
C1548 C1551 1.539 . S
C1549 C1545 1.408 . S
C1549 C1548 1.404 . S
C1549 H1561 0.930 . S
C1550 C1546 1.524 . S
C1550 H1562 0.956 . S
C1550 H1563 0.961 . S
C1550 H1564 0.961 . S
C1551 C1548 1.539 . S
C1551 H1565 0.958 . S
C1551 H1566 0.961 . S
C1551 H1567 0.960 . S
H1552 C1536 0.931 . S
H1553 C1541 0.929 . S
H1554 C1542 0.960 . S
H1555 C1542 0.962 . S
H1556 C1542 0.960 . S
H1557 C1543 0.961 . S
H1558 C1543 0.961 . S
H1559 C1543 0.961 . S
H1560 C1544 0.931 . S
H1561 C1549 0.930 . S
H1562 C1550 0.956 . S
H1563 C1550 0.961 . S
H1564 C1550 0.961 . S
H1565 C1551 0.958 . S
H1566 C1551 0.961 . S
H1567 C1551 0.960 . S
C1568 C1569 1.391 . S
C1568 C1570 1.394 . S
C1568 H1584 0.931 . S
C1569 C1568 1.391 . S
C1569 C1573 1.376 . S
C1570 C1568 1.394 . S
C1570 C1571 1.369 . S
C1570 C1574 1.531 . S
C1571 C1570 1.369 . S
C1571 C1572 1.410 . S
C1571 C1579 1.503 . S
C1572 C1571 1.410 . S
C1572 C1573 1.392 . S
C1572 C1575 1.511 . S
C1573 C1569 1.376 . S
C1573 C1572 1.392 . S
C1573 H1585 0.929 . S
C1574 C1570 1.531 . S
C1574 H1586 0.960 . S
C1574 H1587 0.962 . S
C1574 H1588 0.960 . S
C1575 C1572 1.511 . S
C1575 H1589 0.961 . S
C1575 H1590 0.961 . S
C1575 H1591 0.961 . S
C1576 C1577 1.370 . S
C1576 C1578 1.363 . S
C1576 H1592 0.931 . S
C1577 C1576 1.370 . S
C1577 C1581 1.408 . S
C1578 C1576 1.363 . S
C1578 C1579 1.370 . S
C1578 C1582 1.524 . S
C1579 C1571 1.503 . S
C1579 C1578 1.370 . S
C1579 C1580 1.403 . S
C1580 C1579 1.403 . S
C1580 C1581 1.404 . S
C1580 C1583 1.539 . S
C1581 C1577 1.408 . S
C1581 C1580 1.404 . S
C1581 H1593 0.930 . S
C1582 C1578 1.524 . S
C1582 H1594 0.956 . S
C1582 H1595 0.961 . S
C1582 H1596 0.961 . S
C1583 C1580 1.539 . S
C1583 H1597 0.958 . S
C1583 H1598 0.961 . S
C1583 H1599 0.960 . S
H1584 C1568 0.931 . S
H1585 C1573 0.929 . S
H1586 C1574 0.960 . S
H1587 C1574 0.962 . S
H1588 C1574 0.960 . S
H1589 C1575 0.961 . S
H1590 C1575 0.961 . S
H1591 C1575 0.961 . S
H1592 C1576 0.931 . S
H1593 C1581 0.930 . S
H1594 C1582 0.956 . S
H1595 C1582 0.961 . S
H1596 C1582 0.961 . S
H1597 C1583 0.958 . S
H1598 C1583 0.961 . S
H1599 C1583 0.960 . S
C1600 C1601 1.391 . S
C1600 C1602 1.394 . S
C1600 H1616 0.931 . S
C1601 C1600 1.391 . S
C1601 C1605 1.376 . S
C1602 C1600 1.394 . S
C1602 C1603 1.369 . S
C1602 C1606 1.531 . S
C1603 C1602 1.369 . S
C1603 C1604 1.410 . S
C1603 C1611 1.503 1_655 S
C1604 C1603 1.410 . S
C1604 C1605 1.392 . S
C1604 C1607 1.511 1_655 S
C1605 C1601 1.376 . S
C1605 C1604 1.392 . S
C1605 H1617 0.929 . S
C1606 C1602 1.531 . S
C1606 H1618 0.960 . S
C1606 H1619 0.962 . S
C1606 H1620 0.960 . S
C1607 C1604 1.511 1_455 S
C1607 H1621 0.961 . S
C1607 H1622 0.961 . S
C1607 H1623 0.961 . S
C1608 C1609 1.370 . S
C1608 C1610 1.363 . S
C1608 H1624 0.931 . S
C1609 C1608 1.370 . S
C1609 C1613 1.408 . S
C1610 C1608 1.363 . S
C1610 C1611 1.370 . S
C1610 C1614 1.524 . S
C1611 C1603 1.503 1_455 S
C1611 C1610 1.370 . S
C1611 C1612 1.403 . S
C1612 C1611 1.403 . S
C1612 C1613 1.404 . S
C1612 C1615 1.539 . S
C1613 C1609 1.408 . S
C1613 C1612 1.404 . S
C1613 H1625 0.930 . S
C1614 C1610 1.524 . S
C1614 H1626 0.956 1_455 S
C1614 H1627 0.961 . S
C1614 H1628 0.961 . S
C1615 C1612 1.539 . S
C1615 H1629 0.958 . S
C1615 H1630 0.961 . S
C1615 H1631 0.960 . S
H1616 C1600 0.931 . S
H1617 C1605 0.929 . S
H1618 C1606 0.960 . S
H1619 C1606 0.962 . S
H1620 C1606 0.960 . S
H1621 C1607 0.961 . S
H1622 C1607 0.961 . S
H1623 C1607 0.961 . S
H1624 C1608 0.931 . S
H1625 C1613 0.930 . S
H1626 C1614 0.956 1_655 S
H1627 C1614 0.961 . S
H1628 C1614 0.961 . S
H1629 C1615 0.958 . S
H1630 C1615 0.961 . S
H1631 C1615 0.960 . S
C1632 C1633 1.391 . S
C1632 C1634 1.394 . S
C1632 H1648 0.931 . S
C1633 C1632 1.391 . S
C1633 C1637 1.376 . S
C1634 C1632 1.394 . S
C1634 C1635 1.369 . S
C1634 C1638 1.531 . S
C1635 C1634 1.369 . S
C1635 C1636 1.410 . S
C1635 C1643 1.503 . S
C1636 C1635 1.410 . S
C1636 C1637 1.392 . S
C1636 C1639 1.511 . S
C1637 C1633 1.376 . S
C1637 C1636 1.392 . S
C1637 H1649 0.929 . S
C1638 C1634 1.531 . S
C1638 H1650 0.960 . S
C1638 H1651 0.962 . S
C1638 H1652 0.960 . S
C1639 C1636 1.511 . S
C1639 H1653 0.961 . S
C1639 H1654 0.961 . S
C1639 H1655 0.961 . S
C1640 C1641 1.370 . S
C1640 C1642 1.363 . S
C1640 H1656 0.931 . S
C1641 C1640 1.370 . S
C1641 C1645 1.408 . S
C1642 C1640 1.363 . S
C1642 C1643 1.370 . S
C1642 C1646 1.524 . S
C1643 C1635 1.503 . S
C1643 C1642 1.370 . S
C1643 C1644 1.403 . S
C1644 C1643 1.403 . S
C1644 C1645 1.404 . S
C1644 C1647 1.539 . S
C1645 C1641 1.408 . S
C1645 C1644 1.404 . S
C1645 H1657 0.930 . S
C1646 C1642 1.524 . S
C1646 H1658 0.956 . S
C1646 H1659 0.961 . S
C1646 H1660 0.961 . S
C1647 C1644 1.539 . S
C1647 H1661 0.958 . S
C1647 H1662 0.961 . S
C1647 H1663 0.960 . S
H1648 C1632 0.931 . S
H1649 C1637 0.929 . S
H1650 C1638 0.960 . S
H1651 C1638 0.962 . S
H1652 C1638 0.960 . S
H1653 C1639 0.961 . S
H1654 C1639 0.961 . S
H1655 C1639 0.961 . S
H1656 C1640 0.931 . S
H1657 C1645 0.930 . S
H1658 C1646 0.956 . S
H1659 C1646 0.961 . S
H1660 C1646 0.961 . S
H1661 C1647 0.958 . S
H1662 C1647 0.961 . S
H1663 C1647 0.960 . S
C1664 C1665 1.391 . S
C1664 C1666 1.394 . S
C1664 H1680 0.931 . S
C1665 C1664 1.391 . S
C1665 C1669 1.376 . S
C1666 C1664 1.394 . S
C1666 C1667 1.369 . S
C1666 C1670 1.531 . S
C1667 C1666 1.369 . S
C1667 C1668 1.410 . S
C1667 C1675 1.503 . S
C1668 C1667 1.410 . S
C1668 C1669 1.392 . S
C1668 C1671 1.511 . S
C1669 C1665 1.376 . S
C1669 C1668 1.392 . S
C1669 H1681 0.929 . S
C1670 C1666 1.531 . S
C1670 H1682 0.960 . S
C1670 H1683 0.962 . S
C1670 H1684 0.960 . S
C1671 C1668 1.511 . S
C1671 H1685 0.961 . S
C1671 H1686 0.961 . S
C1671 H1687 0.961 . S
C1672 C1673 1.370 . S
C1672 C1674 1.363 . S
C1672 H1688 0.931 . S
C1673 C1672 1.370 . S
C1673 C1677 1.408 . S
C1674 C1672 1.363 . S
C1674 C1675 1.370 . S
C1674 C1678 1.524 . S
C1675 C1667 1.503 . S
C1675 C1674 1.370 . S
C1675 C1676 1.403 . S
C1676 C1675 1.403 . S
C1676 C1677 1.404 . S
C1676 C1679 1.539 . S
C1677 C1673 1.408 . S
C1677 C1676 1.404 . S
C1677 H1689 0.930 . S
C1678 C1674 1.524 . S
C1678 H1690 0.956 . S
C1678 H1691 0.961 . S
C1678 H1692 0.961 . S
C1679 C1676 1.539 . S
C1679 H1693 0.958 . S
C1679 H1694 0.961 . S
C1679 H1695 0.960 . S
H1680 C1664 0.931 . S
H1681 C1669 0.929 . S
H1682 C1670 0.960 . S
H1683 C1670 0.962 . S
H1684 C1670 0.960 . S
H1685 C1671 0.961 . S
H1686 C1671 0.961 . S
H1687 C1671 0.961 . S
H1688 C1672 0.931 . S
H1689 C1677 0.930 . S
H1690 C1678 0.956 . S
H1691 C1678 0.961 . S
H1692 C1678 0.961 . S
H1693 C1679 0.958 . S
H1694 C1679 0.961 . S
H1695 C1679 0.960 . S
C1696 C1697 1.391 . S
C1696 C1698 1.394 . S
C1696 H1712 0.931 . S
C1697 C1696 1.391 . S
C1697 C1701 1.376 . S
C1698 C1696 1.394 . S
C1698 C1699 1.369 . S
C1698 C1702 1.531 . S
C1699 C1698 1.369 . S
C1699 C1700 1.410 . S
C1699 C1707 1.503 . S
C1700 C1699 1.410 . S
C1700 C1701 1.392 . S
C1700 C1703 1.511 . S
C1701 C1697 1.376 . S
C1701 C1700 1.392 . S
C1701 H1713 0.929 . S
C1702 C1698 1.531 . S
C1702 H1714 0.960 . S
C1702 H1715 0.962 . S
C1702 H1716 0.960 . S
C1703 C1700 1.511 . S
C1703 H1717 0.961 . S
C1703 H1718 0.961 . S
C1703 H1719 0.961 . S
C1704 C1705 1.370 . S
C1704 C1706 1.363 . S
C1704 H1720 0.931 . S
C1705 C1704 1.370 . S
C1705 C1709 1.408 . S
C1706 C1704 1.363 . S
C1706 C1707 1.370 . S
C1706 C1710 1.524 . S
C1707 C1699 1.503 . S
C1707 C1706 1.370 . S
C1707 C1708 1.403 . S
C1708 C1707 1.403 . S
C1708 C1709 1.404 . S
C1708 C1711 1.539 . S
C1709 C1705 1.408 . S
C1709 C1708 1.404 . S
C1709 H1721 0.930 . S
C1710 C1706 1.524 . S
C1710 H1722 0.956 . S
C1710 H1723 0.961 . S
C1710 H1724 0.961 . S
C1711 C1708 1.539 . S
C1711 H1725 0.958 . S
C1711 H1726 0.961 . S
C1711 H1727 0.960 . S
H1712 C1696 0.931 . S
H1713 C1701 0.929 . S
H1714 C1702 0.960 . S
H1715 C1702 0.962 . S
H1716 C1702 0.960 . S
H1717 C1703 0.961 . S
H1718 C1703 0.961 . S
H1719 C1703 0.961 . S
H1720 C1704 0.931 . S
H1721 C1709 0.930 . S
H1722 C1710 0.956 . S
H1723 C1710 0.961 . S
H1724 C1710 0.961 . S
H1725 C1711 0.958 . S
H1726 C1711 0.961 . S
H1727 C1711 0.960 . S
C1728 C1729 1.391 . S
C1728 C1730 1.394 . S
C1728 H1744 0.931 . S
C1729 C1728 1.391 . S
C1729 C1733 1.376 . S
C1730 C1728 1.394 . S
C1730 C1731 1.369 . S
C1730 C1734 1.531 . S
C1731 C1730 1.369 . S
C1731 C1732 1.410 . S
C1731 C1739 1.503 . S
C1732 C1731 1.410 . S
C1732 C1733 1.392 . S
C1732 C1735 1.511 . S
C1733 C1729 1.376 . S
C1733 C1732 1.392 . S
C1733 H1745 0.929 . S
C1734 C1730 1.531 . S
C1734 H1746 0.960 . S
C1734 H1747 0.962 . S
C1734 H1748 0.960 . S
C1735 C1732 1.511 . S
C1735 H1749 0.961 . S
C1735 H1750 0.961 . S
C1735 H1751 0.961 . S
C1736 C1737 1.370 . S
C1736 C1738 1.363 . S
C1736 H1752 0.931 . S
C1737 C1736 1.370 . S
C1737 C1741 1.408 . S
C1738 C1736 1.363 . S
C1738 C1739 1.370 . S
C1738 C1742 1.524 . S
C1739 C1731 1.503 . S
C1739 C1738 1.370 . S
C1739 C1740 1.403 . S
C1740 C1739 1.403 . S
C1740 C1741 1.404 . S
C1740 C1743 1.539 . S
C1741 C1737 1.408 . S
C1741 C1740 1.404 . S
C1741 H1753 0.930 . S
C1742 C1738 1.524 . S
C1742 H1754 0.956 . S
C1742 H1755 0.961 . S
C1742 H1756 0.961 . S
C1743 C1740 1.539 . S
C1743 H1757 0.958 . S
C1743 H1758 0.961 . S
C1743 H1759 0.960 . S
H1744 C1728 0.931 . S
H1745 C1733 0.929 . S
H1746 C1734 0.960 . S
H1747 C1734 0.962 . S
H1748 C1734 0.960 . S
H1749 C1735 0.961 . S
H1750 C1735 0.961 . S
H1751 C1735 0.961 . S
H1752 C1736 0.931 . S
H1753 C1741 0.930 . S
H1754 C1742 0.956 . S
H1755 C1742 0.961 . S
H1756 C1742 0.961 . S
H1757 C1743 0.958 . S
H1758 C1743 0.961 . S
H1759 C1743 0.960 . S
C1760 C1761 1.391 . S
C1760 C1762 1.394 . S
C1760 H1776 0.931 . S
C1761 C1760 1.391 . S
C1761 C1765 1.376 . S
C1762 C1760 1.394 . S
C1762 C1763 1.369 . S
C1762 C1766 1.531 . S
C1763 C1762 1.369 . S
C1763 C1764 1.410 . S
C1763 C1771 1.503 . S
C1764 C1763 1.410 . S
C1764 C1765 1.392 . S
C1764 C1767 1.511 . S
C1765 C1761 1.376 . S
C1765 C1764 1.392 . S
C1765 H1777 0.929 . S
C1766 C1762 1.531 . S
C1766 H1778 0.960 . S
C1766 H1779 0.962 . S
C1766 H1780 0.960 . S
C1767 C1764 1.511 . S
C1767 H1781 0.961 . S
C1767 H1782 0.961 . S
C1767 H1783 0.961 . S
C1768 C1769 1.370 . S
C1768 C1770 1.363 . S
C1768 H1784 0.931 . S
C1769 C1768 1.370 . S
C1769 C1773 1.408 . S
C1770 C1768 1.363 . S
C1770 C1771 1.370 . S
C1770 C1774 1.524 . S
C1771 C1763 1.503 . S
C1771 C1770 1.370 . S
C1771 C1772 1.403 . S
C1772 C1771 1.403 . S
C1772 C1773 1.404 . S
C1772 C1775 1.539 . S
C1773 C1769 1.408 . S
C1773 C1772 1.404 . S
C1773 H1785 0.930 . S
C1774 C1770 1.524 . S
C1774 H1786 0.956 . S
C1774 H1787 0.961 . S
C1774 H1788 0.961 . S
C1775 C1772 1.539 . S
C1775 H1789 0.958 . S
C1775 H1790 0.961 . S
C1775 H1791 0.960 . S
H1776 C1760 0.931 . S
H1777 C1765 0.929 . S
H1778 C1766 0.960 . S
H1779 C1766 0.962 . S
H1780 C1766 0.960 . S
H1781 C1767 0.961 . S
H1782 C1767 0.961 . S
H1783 C1767 0.961 . S
H1784 C1768 0.931 . S
H1785 C1773 0.930 . S
H1786 C1774 0.956 . S
H1787 C1774 0.961 . S
H1788 C1774 0.961 . S
H1789 C1775 0.958 . S
H1790 C1775 0.961 . S
H1791 C1775 0.960 . S
C1792 C1793 1.391 . S
C1792 C1794 1.394 . S
C1792 H1808 0.931 . S
C1793 C1792 1.391 . S
C1793 C1797 1.376 . S
C1794 C1792 1.394 . S
C1794 C1795 1.369 . S
C1794 C1798 1.531 . S
C1795 C1794 1.369 . S
C1795 C1796 1.410 . S
C1795 C1803 1.503 1_655 S
C1796 C1795 1.410 . S
C1796 C1797 1.392 . S
C1796 C1799 1.511 1_655 S
C1797 C1793 1.376 . S
C1797 C1796 1.392 . S
C1797 H1809 0.929 . S
C1798 C1794 1.531 . S
C1798 H1810 0.960 . S
C1798 H1811 0.962 . S
C1798 H1812 0.960 . S
C1799 C1796 1.511 1_455 S
C1799 H1813 0.961 . S
C1799 H1814 0.961 . S
C1799 H1815 0.961 . S
C1800 C1801 1.370 . S
C1800 C1802 1.363 . S
C1800 H1816 0.931 . S
C1801 C1800 1.370 . S
C1801 C1805 1.408 . S
C1802 C1800 1.363 . S
C1802 C1803 1.370 . S
C1802 C1806 1.524 . S
C1803 C1795 1.503 1_455 S
C1803 C1802 1.370 . S
C1803 C1804 1.403 . S
C1804 C1803 1.403 . S
C1804 C1805 1.404 . S
C1804 C1807 1.539 . S
C1805 C1801 1.408 . S
C1805 C1804 1.404 . S
C1805 H1817 0.930 . S
C1806 C1802 1.524 . S
C1806 H1818 0.955 . S
C1806 H1819 0.961 . S
C1806 H1820 0.961 . S
C1807 C1804 1.539 . S
C1807 H1821 0.958 . S
C1807 H1822 0.961 . S
C1807 H1823 0.960 . S
H1808 C1792 0.931 . S
H1809 C1797 0.929 . S
H1810 C1798 0.960 . S
H1811 C1798 0.962 . S
H1812 C1798 0.960 . S
H1813 C1799 0.961 . S
H1814 C1799 0.961 . S
H1815 C1799 0.961 . S
H1816 C1800 0.931 . S
H1817 C1805 0.930 . S
H1818 C1806 0.955 . S
H1819 C1806 0.961 . S
H1820 C1806 0.961 . S
H1821 C1807 0.958 . S
H1822 C1807 0.961 . S
H1823 C1807 0.960 . S
C1824 C1825 1.391 . S
C1824 C1826 1.394 . S
C1824 H1840 0.931 . S
C1825 C1824 1.391 . S
C1825 C1829 1.376 . S
C1826 C1824 1.394 . S
C1826 C1827 1.369 . S
C1826 C1830 1.531 . S
C1827 C1826 1.369 . S
C1827 C1828 1.410 . S
C1827 C1835 1.503 . S
C1828 C1827 1.410 . S
C1828 C1829 1.392 . S
C1828 C1831 1.511 . S
C1829 C1825 1.376 . S
C1829 C1828 1.392 . S
C1829 H1841 0.929 . S
C1830 C1826 1.531 . S
C1830 H1842 0.960 . S
C1830 H1843 0.962 . S
C1830 H1844 0.960 . S
C1831 C1828 1.511 . S
C1831 H1845 0.961 . S
C1831 H1846 0.961 . S
C1831 H1847 0.961 . S
C1832 C1833 1.370 . S
C1832 C1834 1.363 . S
C1832 H1848 0.931 . S
C1833 C1832 1.370 . S
C1833 C1837 1.408 . S
C1834 C1832 1.363 . S
C1834 C1835 1.370 . S
C1834 C1838 1.524 . S
C1835 C1827 1.503 . S
C1835 C1834 1.370 . S
C1835 C1836 1.403 . S
C1836 C1835 1.403 . S
C1836 C1837 1.404 . S
C1836 C1839 1.539 . S
C1837 C1833 1.408 . S
C1837 C1836 1.404 . S
C1837 H1849 0.930 . S
C1838 C1834 1.524 . S
C1838 H1850 0.956 . S
C1838 H1851 0.961 . S
C1838 H1852 0.961 . S
C1839 C1836 1.539 . S
C1839 H1853 0.958 . S
C1839 H1854 0.961 . S
C1839 H1855 0.960 . S
H1840 C1824 0.931 . S
H1841 C1829 0.929 . S
H1842 C1830 0.960 . S
H1843 C1830 0.962 . S
H1844 C1830 0.960 . S
H1845 C1831 0.961 . S
H1846 C1831 0.961 . S
H1847 C1831 0.961 . S
H1848 C1832 0.931 . S
H1849 C1837 0.930 . S
H1850 C1838 0.956 . S
H1851 C1838 0.961 . S
H1852 C1838 0.961 . S
H1853 C1839 0.958 . S
H1854 C1839 0.961 . S
H1855 C1839 0.960 . S
C1856 C1857 1.391 . S
C1856 C1858 1.394 . S
C1856 H1872 0.931 . S
C1857 C1856 1.391 . S
C1857 C1861 1.376 . S
C1858 C1856 1.394 . S
C1858 C1859 1.369 . S
C1858 C1862 1.531 . S
C1859 C1858 1.369 . S
C1859 C1860 1.410 . S
C1859 C1867 1.503 1_455 S
C1860 C1859 1.410 . S
C1860 C1861 1.392 . S
C1860 C1863 1.511 1_455 S
C1861 C1857 1.376 . S
C1861 C1860 1.392 . S
C1861 H1873 0.929 . S
C1862 C1858 1.531 . S
C1862 H1874 0.960 . S
C1862 H1875 0.962 . S
C1862 H1876 0.960 . S
C1863 C1860 1.511 1_655 S
C1863 H1877 0.961 . S
C1863 H1878 0.961 . S
C1863 H1879 0.961 . S
C1864 C1865 1.370 . S
C1864 C1866 1.363 . S
C1864 H1880 0.931 . S
C1865 C1864 1.370 . S
C1865 C1869 1.408 . S
C1866 C1864 1.363 . S
C1866 C1867 1.370 . S
C1866 C1870 1.524 . S
C1867 C1859 1.503 1_655 S
C1867 C1866 1.370 . S
C1867 C1868 1.403 . S
C1868 C1867 1.403 . S
C1868 C1869 1.404 . S
C1868 C1871 1.539 . S
C1869 C1865 1.408 . S
C1869 C1868 1.404 . S
C1869 H1881 0.930 . S
C1870 C1866 1.524 . S
C1870 H1882 0.956 . S
C1870 H1883 0.961 . S
C1870 H1884 0.961 . S
C1871 C1868 1.539 . S
C1871 H1885 0.958 . S
C1871 H1886 0.961 . S
C1871 H1887 0.960 . S
H1872 C1856 0.931 . S
H1873 C1861 0.929 . S
H1874 C1862 0.960 . S
H1875 C1862 0.962 . S
H1876 C1862 0.960 . S
H1877 C1863 0.961 . S
H1878 C1863 0.961 . S
H1879 C1863 0.961 . S
H1880 C1864 0.931 . S
H1881 C1869 0.930 . S
H1882 C1870 0.956 . S
H1883 C1870 0.961 . S
H1884 C1870 0.961 . S
H1885 C1871 0.958 . S
H1886 C1871 0.961 . S
H1887 C1871 0.960 . S
C1888 C1889 1.391 . S
C1888 C1890 1.394 . S
C1888 H1904 0.931 . S
C1889 C1888 1.391 . S
C1889 C1893 1.376 . S
C1890 C1888 1.394 . S
C1890 C1891 1.369 . S
C1890 C1894 1.531 . S
C1891 C1890 1.369 . S
C1891 C1892 1.410 . S
C1891 C1899 1.503 . S
C1892 C1891 1.410 . S
C1892 C1893 1.392 . S
C1892 C1895 1.511 . S
C1893 C1889 1.376 . S
C1893 C1892 1.392 . S
C1893 H1905 0.929 . S
C1894 C1890 1.531 . S
C1894 H1906 0.960 . S
C1894 H1907 0.962 . S
C1894 H1908 0.960 . S
C1895 C1892 1.511 . S
C1895 H1909 0.961 . S
C1895 H1910 0.961 . S
C1895 H1911 0.961 . S
C1896 C1897 1.370 . S
C1896 C1898 1.363 . S
C1896 H1912 0.931 . S
C1897 C1896 1.370 . S
C1897 C1901 1.408 . S
C1898 C1896 1.363 . S
C1898 C1899 1.370 . S
C1898 C1902 1.524 . S
C1899 C1891 1.503 . S
C1899 C1898 1.370 . S
C1899 C1900 1.403 . S
C1900 C1899 1.403 . S
C1900 C1901 1.404 . S
C1900 C1903 1.539 . S
C1901 C1897 1.408 . S
C1901 C1900 1.404 . S
C1901 H1913 0.930 . S
C1902 C1898 1.524 . S
C1902 H1914 0.956 . S
C1902 H1915 0.961 . S
C1902 H1916 0.961 . S
C1903 C1900 1.539 . S
C1903 H1917 0.958 . S
C1903 H1918 0.961 . S
C1903 H1919 0.960 . S
H1904 C1888 0.931 . S
H1905 C1893 0.929 . S
H1906 C1894 0.960 . S
H1907 C1894 0.962 . S
H1908 C1894 0.960 . S
H1909 C1895 0.961 . S
H1910 C1895 0.961 . S
H1911 C1895 0.961 . S
H1912 C1896 0.931 . S
H1913 C1901 0.930 . S
H1914 C1902 0.956 . S
H1915 C1902 0.961 . S
H1916 C1902 0.961 . S
H1917 C1903 0.958 . S
H1918 C1903 0.961 . S
H1919 C1903 0.960 . S
C1920 C1921 1.391 . S
C1920 C1922 1.394 . S
C1920 H1936 0.931 . S
C1921 C1920 1.391 . S
C1921 C1925 1.376 . S
C1922 C1920 1.394 . S
C1922 C1923 1.369 . S
C1922 C1926 1.531 . S
C1923 C1922 1.369 . S
C1923 C1924 1.410 . S
C1923 C1931 1.503 . S
C1924 C1923 1.410 . S
C1924 C1925 1.392 . S
C1924 C1927 1.511 . S
C1925 C1921 1.376 . S
C1925 C1924 1.392 . S
C1925 H1937 0.929 . S
C1926 C1922 1.531 . S
C1926 H1938 0.960 . S
C1926 H1939 0.962 . S
C1926 H1940 0.960 . S
C1927 C1924 1.511 . S
C1927 H1941 0.961 . S
C1927 H1942 0.961 . S
C1927 H1943 0.961 . S
C1928 C1929 1.370 . S
C1928 C1930 1.363 . S
C1928 H1944 0.931 . S
C1929 C1928 1.370 . S
C1929 C1933 1.408 . S
C1930 C1928 1.363 . S
C1930 C1931 1.370 . S
C1930 C1934 1.524 . S
C1931 C1923 1.503 . S
C1931 C1930 1.370 . S
C1931 C1932 1.403 . S
C1932 C1931 1.403 . S
C1932 C1933 1.404 . S
C1932 C1935 1.539 . S
C1933 C1929 1.408 . S
C1933 C1932 1.404 . S
C1933 H1945 0.930 . S
C1934 C1930 1.524 . S
C1934 H1946 0.956 . S
C1934 H1947 0.961 . S
C1934 H1948 0.961 . S
C1935 C1932 1.539 . S
C1935 H1949 0.958 . S
C1935 H1950 0.961 . S
C1935 H1951 0.960 . S
H1936 C1920 0.931 . S
H1937 C1925 0.929 . S
H1938 C1926 0.960 . S
H1939 C1926 0.962 . S
H1940 C1926 0.960 . S
H1941 C1927 0.961 . S
H1942 C1927 0.961 . S
H1943 C1927 0.961 . S
H1944 C1928 0.931 . S
H1945 C1933 0.930 . S
H1946 C1934 0.956 . S
H1947 C1934 0.961 . S
H1948 C1934 0.961 . S
H1949 C1935 0.958 . S
H1950 C1935 0.961 . S
H1951 C1935 0.960 . S
C1952 C1953 1.391 . S
C1952 C1954 1.394 . S
C1952 H1968 0.931 . S
C1953 C1952 1.391 . S
C1953 C1957 1.376 . S
C1954 C1952 1.394 . S
C1954 C1955 1.369 . S
C1954 C1958 1.531 . S
C1955 C1954 1.369 . S
C1955 C1956 1.410 . S
C1955 C1963 1.503 . S
C1956 C1955 1.410 . S
C1956 C1957 1.392 . S
C1956 C1959 1.511 . S
C1957 C1953 1.376 . S
C1957 C1956 1.392 . S
C1957 H1969 0.929 . S
C1958 C1954 1.531 . S
C1958 H1970 0.960 . S
C1958 H1971 0.962 . S
C1958 H1972 0.960 . S
C1959 C1956 1.511 . S
C1959 H1973 0.961 . S
C1959 H1974 0.961 . S
C1959 H1975 0.961 . S
C1960 C1961 1.370 . S
C1960 C1962 1.363 . S
C1960 H1976 0.931 . S
C1961 C1960 1.370 . S
C1961 C1965 1.408 . S
C1962 C1960 1.363 . S
C1962 C1963 1.370 . S
C1962 C1966 1.524 . S
C1963 C1955 1.503 . S
C1963 C1962 1.370 . S
C1963 C1964 1.403 . S
C1964 C1963 1.403 . S
C1964 C1965 1.404 . S
C1964 C1967 1.539 . S
C1965 C1961 1.408 . S
C1965 C1964 1.404 . S
C1965 H1977 0.930 . S
C1966 C1962 1.524 . S
C1966 H1978 0.956 . S
C1966 H1979 0.961 . S
C1966 H1980 0.961 . S
C1967 C1964 1.539 . S
C1967 H1981 0.958 . S
C1967 H1982 0.961 . S
C1967 H1983 0.960 . S
H1968 C1952 0.931 . S
H1969 C1957 0.929 . S
H1970 C1958 0.960 . S
H1971 C1958 0.962 . S
H1972 C1958 0.960 . S
H1973 C1959 0.961 . S
H1974 C1959 0.961 . S
H1975 C1959 0.961 . S
H1976 C1960 0.931 . S
H1977 C1965 0.930 . S
H1978 C1966 0.956 . S
H1979 C1966 0.961 . S
H1980 C1966 0.961 . S
H1981 C1967 0.958 . S
H1982 C1967 0.961 . S
H1983 C1967 0.960 . S
C1984 C1985 1.391 . S
C1984 C1986 1.394 . S
C1984 H2000 0.931 . S
C1985 C1984 1.391 . S
C1985 C1989 1.376 . S
C1986 C1984 1.394 . S
C1986 C1987 1.369 . S
C1986 C1990 1.531 . S
C1987 C1986 1.369 . S
C1987 C1988 1.410 . S
C1987 C1995 1.503 . S
C1988 C1987 1.410 . S
C1988 C1989 1.392 . S
C1988 C1991 1.511 . S
C1989 C1985 1.376 . S
C1989 C1988 1.392 . S
C1989 H2001 0.929 . S
C1990 C1986 1.531 . S
C1990 H2002 0.960 . S
C1990 H2003 0.962 . S
C1990 H2004 0.960 . S
C1991 C1988 1.511 . S
C1991 H2005 0.961 . S
C1991 H2006 0.961 . S
C1991 H2007 0.961 . S
C1992 C1993 1.370 . S
C1992 C1994 1.363 . S
C1992 H2008 0.931 . S
C1993 C1992 1.370 . S
C1993 C1997 1.408 . S
C1994 C1992 1.363 . S
C1994 C1995 1.370 . S
C1994 C1998 1.524 . S
C1995 C1987 1.503 . S
C1995 C1994 1.370 . S
C1995 C1996 1.403 . S
C1996 C1995 1.403 . S
C1996 C1997 1.404 . S
C1996 C1999 1.539 . S
C1997 C1993 1.408 . S
C1997 C1996 1.404 . S
C1997 H2009 0.930 . S
C1998 C1994 1.524 . S
C1998 H2010 0.956 . S
C1998 H2011 0.961 . S
C1998 H2012 0.961 . S
C1999 C1996 1.539 . S
C1999 H2013 0.958 . S
C1999 H2014 0.961 . S
C1999 H2015 0.960 . S
H2000 C1984 0.931 . S
H2001 C1989 0.929 . S
H2002 C1990 0.960 . S
H2003 C1990 0.962 . S
H2004 C1990 0.960 . S
H2005 C1991 0.961 . S
H2006 C1991 0.961 . S
H2007 C1991 0.961 . S
H2008 C1992 0.931 . S
H2009 C1997 0.930 . S
H2010 C1998 0.956 . S
H2011 C1998 0.961 . S
H2012 C1998 0.961 . S
H2013 C1999 0.958 . S
H2014 C1999 0.961 . S
H2015 C1999 0.960 . S
C2016 C2017 1.391 . S
C2016 C2018 1.394 . S
C2016 H2032 0.931 . S
C2017 C2016 1.391 . S
C2017 C2021 1.376 . S
C2018 C2016 1.394 . S
C2018 C2019 1.369 . S
C2018 C2022 1.531 . S
C2019 C2018 1.369 . S
C2019 C2020 1.410 . S
C2019 C2027 1.503 . S
C2020 C2019 1.410 . S
C2020 C2021 1.392 . S
C2020 C2023 1.511 . S
C2021 C2017 1.376 . S
C2021 C2020 1.392 . S
C2021 H2033 0.929 . S
C2022 C2018 1.531 . S
C2022 H2034 0.960 . S
C2022 H2035 0.962 . S
C2022 H2036 0.960 . S
C2023 C2020 1.511 . S
C2023 H2037 0.961 . S
C2023 H2038 0.961 . S
C2023 H2039 0.961 . S
C2024 C2025 1.370 . S
C2024 C2026 1.363 . S
C2024 H2040 0.931 . S
C2025 C2024 1.370 . S
C2025 C2029 1.408 . S
C2026 C2024 1.363 . S
C2026 C2027 1.370 . S
C2026 C2030 1.524 . S
C2027 C2019 1.503 . S
C2027 C2026 1.370 . S
C2027 C2028 1.403 . S
C2028 C2027 1.403 . S
C2028 C2029 1.404 . S
C2028 C2031 1.539 . S
C2029 C2025 1.408 . S
C2029 C2028 1.404 . S
C2029 H2041 0.930 . S
C2030 C2026 1.524 . S
C2030 H2042 0.956 . S
C2030 H2043 0.961 . S
C2030 H2044 0.961 . S
C2031 C2028 1.539 . S
C2031 H2045 0.958 . S
C2031 H2046 0.961 . S
C2031 H2047 0.960 . S
H2032 C2016 0.931 . S
H2033 C2021 0.929 . S
H2034 C2022 0.960 . S
H2035 C2022 0.962 . S
H2036 C2022 0.960 . S
H2037 C2023 0.961 . S
H2038 C2023 0.961 . S
H2039 C2023 0.961 . S
H2040 C2024 0.931 . S
H2041 C2029 0.930 . S
H2042 C2030 0.956 . S
H2043 C2030 0.961 . S
H2044 C2030 0.961 . S
H2045 C2031 0.958 . S
H2046 C2031 0.961 . S
H2047 C2031 0.960 . S
C2048 C2049 1.391 . S
C2048 C2050 1.394 . S
C2048 H2064 0.931 . S
C2049 C2048 1.391 . S
C2049 C2053 1.376 . S
C2050 C2048 1.394 . S
C2050 C2051 1.369 . S
C2050 C2054 1.531 1_655 S
C2051 C2050 1.369 . S
C2051 C2052 1.410 . S
C2051 C2059 1.503 1_655 S
C2052 C2051 1.410 . S
C2052 C2053 1.392 . S
C2052 C2055 1.511 . S
C2053 C2049 1.376 . S
C2053 C2052 1.392 . S
C2053 H2065 0.929 . S
C2054 C2050 1.531 1_455 S
C2054 H2066 0.960 . S
C2054 H2067 0.962 . S
C2054 H2068 0.960 . S
C2055 C2052 1.511 . S
C2055 H2069 0.961 . S
C2055 H2070 0.961 . S
C2055 H2071 0.961 . S
C2056 C2057 1.370 . S
C2056 C2058 1.363 . S
C2056 H2072 0.931 . S
C2057 C2056 1.370 . S
C2057 C2061 1.408 . S
C2058 C2056 1.363 . S
C2058 C2059 1.370 . S
C2058 C2062 1.524 . S
C2059 C2051 1.503 1_455 S
C2059 C2058 1.370 . S
C2059 C2060 1.403 . S
C2060 C2059 1.403 . S
C2060 C2061 1.404 . S
C2060 C2063 1.539 . S
C2061 C2057 1.408 . S
C2061 C2060 1.404 . S
C2061 H2073 0.930 . S
C2062 C2058 1.524 . S
C2062 H2074 0.956 . S
C2062 H2075 0.961 1_455 S
C2062 H2076 0.961 . S
C2063 C2060 1.539 . S
C2063 H2077 0.958 . S
C2063 H2078 0.961 . S
C2063 H2079 0.960 1_455 S
H2064 C2048 0.931 . S
H2065 C2053 0.929 . S
H2066 C2054 0.960 . S
H2067 C2054 0.962 . S
H2068 C2054 0.960 . S
H2069 C2055 0.961 . S
H2070 C2055 0.961 . S
H2071 C2055 0.961 . S
H2072 C2056 0.931 . S
H2073 C2061 0.930 . S
H2074 C2062 0.956 . S
H2075 C2062 0.961 1_655 S
H2076 C2062 0.961 . S
H2077 C2063 0.958 . S
H2078 C2063 0.961 . S
H2079 C2063 0.960 1_655 S
C2080 C2081 1.391 . S
C2080 C2082 1.394 . S
C2080 H2096 0.931 . S
C2081 C2080 1.391 . S
C2081 C2085 1.376 . S
C2082 C2080 1.394 . S
C2082 C2083 1.369 . S
C2082 C2086 1.531 . S
C2083 C2082 1.369 . S
C2083 C2084 1.410 . S
C2083 C2091 1.503 . S
C2084 C2083 1.410 . S
C2084 C2085 1.392 . S
C2084 C2087 1.511 . S
C2085 C2081 1.376 . S
C2085 C2084 1.392 . S
C2085 H2097 0.929 . S
C2086 C2082 1.531 . S
C2086 H2098 0.960 . S
C2086 H2099 0.962 . S
C2086 H2100 0.960 . S
C2087 C2084 1.511 . S
C2087 H2101 0.961 . S
C2087 H2102 0.961 . S
C2087 H2103 0.961 . S
C2088 C2089 1.370 . S
C2088 C2090 1.363 . S
C2088 H2104 0.931 . S
C2089 C2088 1.370 . S
C2089 C2093 1.408 . S
C2090 C2088 1.363 . S
C2090 C2091 1.370 . S
C2090 C2094 1.524 . S
C2091 C2083 1.503 . S
C2091 C2090 1.370 . S
C2091 C2092 1.403 . S
C2092 C2091 1.403 . S
C2092 C2093 1.404 . S
C2092 C2095 1.539 . S
C2093 C2089 1.408 . S
C2093 C2092 1.404 . S
C2093 H2105 0.930 . S
C2094 C2090 1.524 . S
C2094 H2106 0.956 . S
C2094 H2107 0.961 . S
C2094 H2108 0.961 . S
C2095 C2092 1.539 . S
C2095 H2109 0.958 . S
C2095 H2110 0.961 . S
C2095 H2111 0.960 . S
H2096 C2080 0.931 . S
H2097 C2085 0.929 . S
H2098 C2086 0.960 . S
H2099 C2086 0.962 . S
H2100 C2086 0.960 . S
H2101 C2087 0.961 . S
H2102 C2087 0.961 . S
H2103 C2087 0.961 . S
H2104 C2088 0.931 . S
H2105 C2093 0.930 . S
H2106 C2094 0.956 . S
H2107 C2094 0.961 . S
H2108 C2094 0.961 . S
H2109 C2095 0.958 . S
H2110 C2095 0.961 . S
H2111 C2095 0.960 . S
C2112 C2113 1.391 . S
C2112 C2114 1.394 . S
C2112 H2128 0.931 . S
C2113 C2112 1.391 . S
C2113 C2117 1.376 . S
C2114 C2112 1.394 . S
C2114 C2115 1.369 . S
C2114 C2118 1.531 . S
C2115 C2114 1.369 . S
C2115 C2116 1.410 . S
C2115 C2123 1.503 . S
C2116 C2115 1.410 . S
C2116 C2117 1.392 . S
C2116 C2119 1.511 . S
C2117 C2113 1.376 . S
C2117 C2116 1.392 . S
C2117 H2129 0.929 . S
C2118 C2114 1.531 . S
C2118 H2130 0.960 . S
C2118 H2131 0.962 . S
C2118 H2132 0.960 . S
C2119 C2116 1.511 . S
C2119 H2133 0.961 . S
C2119 H2134 0.961 . S
C2119 H2135 0.961 . S
C2120 C2121 1.370 . S
C2120 C2122 1.363 . S
C2120 H2136 0.931 . S
C2121 C2120 1.370 . S
C2121 C2125 1.408 . S
C2122 C2120 1.363 . S
C2122 C2123 1.370 . S
C2122 C2126 1.524 . S
C2123 C2115 1.503 . S
C2123 C2122 1.370 . S
C2123 C2124 1.403 . S
C2124 C2123 1.403 . S
C2124 C2125 1.404 . S
C2124 C2127 1.539 . S
C2125 C2121 1.408 . S
C2125 C2124 1.404 . S
C2125 H2137 0.930 . S
C2126 C2122 1.524 . S
C2126 H2138 0.956 . S
C2126 H2139 0.961 . S
C2126 H2140 0.961 . S
C2127 C2124 1.539 . S
C2127 H2141 0.958 . S
C2127 H2142 0.961 . S
C2127 H2143 0.960 . S
H2128 C2112 0.931 . S
H2129 C2117 0.929 . S
H2130 C2118 0.960 . S
H2131 C2118 0.962 . S
H2132 C2118 0.960 . S
H2133 C2119 0.961 . S
H2134 C2119 0.961 . S
H2135 C2119 0.961 . S
H2136 C2120 0.931 . S
H2137 C2125 0.930 . S
H2138 C2126 0.956 . S
H2139 C2126 0.961 . S
H2140 C2126 0.961 . S
H2141 C2127 0.958 . S
H2142 C2127 0.961 . S
H2143 C2127 0.960 . S
C2144 C2145 1.391 . S
C2144 C2146 1.394 . S
C2144 H2160 0.931 . S
C2145 C2144 1.391 . S
C2145 C2149 1.376 . S
C2146 C2144 1.394 . S
C2146 C2147 1.369 . S
C2146 C2150 1.531 . S
C2147 C2146 1.369 . S
C2147 C2148 1.410 . S
C2147 C2155 1.503 . S
C2148 C2147 1.410 . S
C2148 C2149 1.392 . S
C2148 C2151 1.511 . S
C2149 C2145 1.376 . S
C2149 C2148 1.392 . S
C2149 H2161 0.929 . S
C2150 C2146 1.531 . S
C2150 H2162 0.960 . S
C2150 H2163 0.962 . S
C2150 H2164 0.960 . S
C2151 C2148 1.511 . S
C2151 H2165 0.961 . S
C2151 H2166 0.961 . S
C2151 H2167 0.961 . S
C2152 C2153 1.370 . S
C2152 C2154 1.363 . S
C2152 H2168 0.931 . S
C2153 C2152 1.370 . S
C2153 C2157 1.408 . S
C2154 C2152 1.363 . S
C2154 C2155 1.370 . S
C2154 C2158 1.524 . S
C2155 C2147 1.503 . S
C2155 C2154 1.370 . S
C2155 C2156 1.403 . S
C2156 C2155 1.403 . S
C2156 C2157 1.404 . S
C2156 C2159 1.539 . S
C2157 C2153 1.408 . S
C2157 C2156 1.404 . S
C2157 H2169 0.930 . S
C2158 C2154 1.524 . S
C2158 H2170 0.956 . S
C2158 H2171 0.961 . S
C2158 H2172 0.961 . S
C2159 C2156 1.539 . S
C2159 H2173 0.958 . S
C2159 H2174 0.961 . S
C2159 H2175 0.960 . S
H2160 C2144 0.931 . S
H2161 C2149 0.929 . S
H2162 C2150 0.960 . S
H2163 C2150 0.962 . S
H2164 C2150 0.960 . S
H2165 C2151 0.961 . S
H2166 C2151 0.961 . S
H2167 C2151 0.961 . S
H2168 C2152 0.931 . S
H2169 C2157 0.930 . S
H2170 C2158 0.956 . S
H2171 C2158 0.961 . S
H2172 C2158 0.961 . S
H2173 C2159 0.958 . S
H2174 C2159 0.961 . S
H2175 C2159 0.960 . S
C2176 C2177 1.391 . S
C2176 C2178 1.394 . S
C2176 H2192 0.931 . S
C2177 C2176 1.391 . S
C2177 C2181 1.376 . S
C2178 C2176 1.394 . S
C2178 C2179 1.369 . S
C2178 C2182 1.531 . S
C2179 C2178 1.369 . S
C2179 C2180 1.410 . S
C2179 C2187 1.503 1_655 S
C2180 C2179 1.410 . S
C2180 C2181 1.392 . S
C2180 C2183 1.511 . S
C2181 C2177 1.376 . S
C2181 C2180 1.392 . S
C2181 H2193 0.929 . S
C2182 C2178 1.531 . S
C2182 H2194 0.960 1_655 S
C2182 H2195 0.962 1_655 S
C2182 H2196 0.960 . S
C2183 C2180 1.511 . S
C2183 H2197 0.961 . S
C2183 H2198 0.961 . S
C2183 H2199 0.961 . S
C2184 C2185 1.370 . S
C2184 C2186 1.363 . S
C2184 H2200 0.931 . S
C2185 C2184 1.370 . S
C2185 C2189 1.408 . S
C2186 C2184 1.363 . S
C2186 C2187 1.370 . S
C2186 C2190 1.524 . S
C2187 C2179 1.503 1_455 S
C2187 C2186 1.370 . S
C2187 C2188 1.403 . S
C2188 C2187 1.403 . S
C2188 C2189 1.404 . S
C2188 C2191 1.539 1_455 S
C2189 C2185 1.408 . S
C2189 C2188 1.404 . S
C2189 H2201 0.930 . S
C2190 C2186 1.524 . S
C2190 H2202 0.956 . S
C2190 H2203 0.961 . S
C2190 H2204 0.961 . S
C2191 C2188 1.539 1_655 S
C2191 H2205 0.958 . S
C2191 H2206 0.961 . S
C2191 H2207 0.960 . S
H2192 C2176 0.931 . S
H2193 C2181 0.929 . S
H2194 C2182 0.960 1_455 S
H2195 C2182 0.962 1_455 S
H2196 C2182 0.960 . S
H2197 C2183 0.961 . S
H2198 C2183 0.961 . S
H2199 C2183 0.961 . S
H2200 C2184 0.931 . S
H2201 C2189 0.930 . S
H2202 C2190 0.956 . S
H2203 C2190 0.961 . S
H2204 C2190 0.961 . S
H2205 C2191 0.958 . S
H2206 C2191 0.961 . S
H2207 C2191 0.960 . S
C2208 C2209 1.391 . S
C2208 C2210 1.394 . S
C2208 H2224 0.931 . S
C2209 C2208 1.391 . S
C2209 C2213 1.376 . S
C2210 C2208 1.394 . S
C2210 C2211 1.369 . S
C2210 C2214 1.531 . S
C2211 C2210 1.369 . S
C2211 C2212 1.410 . S
C2211 C2219 1.503 . S
C2212 C2211 1.410 . S
C2212 C2213 1.392 . S
C2212 C2215 1.511 . S
C2213 C2209 1.376 . S
C2213 C2212 1.392 . S
C2213 H2225 0.929 . S
C2214 C2210 1.531 . S
C2214 H2226 0.960 . S
C2214 H2227 0.962 . S
C2214 H2228 0.960 . S
C2215 C2212 1.511 . S
C2215 H2229 0.961 . S
C2215 H2230 0.961 . S
C2215 H2231 0.961 . S
C2216 C2217 1.370 . S
C2216 C2218 1.363 . S
C2216 H2232 0.931 . S
C2217 C2216 1.370 . S
C2217 C2221 1.408 . S
C2218 C2216 1.363 . S
C2218 C2219 1.370 . S
C2218 C2222 1.524 . S
C2219 C2211 1.503 . S
C2219 C2218 1.370 . S
C2219 C2220 1.403 . S
C2220 C2219 1.403 . S
C2220 C2221 1.404 . S
C2220 C2223 1.539 . S
C2221 C2217 1.408 . S
C2221 C2220 1.404 . S
C2221 H2233 0.930 . S
C2222 C2218 1.524 . S
C2222 H2234 0.956 . S
C2222 H2235 0.961 . S
C2222 H2236 0.961 . S
C2223 C2220 1.539 . S
C2223 H2237 0.958 . S
C2223 H2238 0.961 . S
C2223 H2239 0.960 . S
H2224 C2208 0.931 . S
H2225 C2213 0.929 . S
H2226 C2214 0.960 . S
H2227 C2214 0.962 . S
H2228 C2214 0.960 . S
H2229 C2215 0.961 . S
H2230 C2215 0.961 . S
H2231 C2215 0.961 . S
H2232 C2216 0.931 . S
H2233 C2221 0.930 . S
H2234 C2222 0.956 . S
H2235 C2222 0.961 . S
H2236 C2222 0.961 . S
H2237 C2223 0.958 . S
H2238 C2223 0.961 . S
H2239 C2223 0.960 . S
C2240 C2241 1.391 . S
C2240 C2242 1.394 . S
C2240 H2256 0.931 . S
C2241 C2240 1.391 . S
C2241 C2245 1.376 . S
C2242 C2240 1.394 . S
C2242 C2243 1.369 . S
C2242 C2246 1.531 1_655 S
C2243 C2242 1.369 . S
C2243 C2244 1.410 . S
C2243 C2251 1.503 1_655 S
C2244 C2243 1.410 . S
C2244 C2245 1.392 . S
C2244 C2247 1.511 . S
C2245 C2241 1.376 . S
C2245 C2244 1.392 . S
C2245 H2257 0.929 . S
C2246 C2242 1.531 1_455 S
C2246 H2258 0.960 . S
C2246 H2259 0.962 . S
C2246 H2260 0.960 . S
C2247 C2244 1.511 . S
C2247 H2261 0.961 . S
C2247 H2262 0.961 . S
C2247 H2263 0.961 . S
C2248 C2249 1.370 . S
C2248 C2250 1.363 . S
C2248 H2264 0.931 . S
C2249 C2248 1.370 . S
C2249 C2253 1.408 . S
C2250 C2248 1.363 . S
C2250 C2251 1.370 . S
C2250 C2254 1.524 1_455 S
C2251 C2243 1.503 1_455 S
C2251 C2250 1.370 . S
C2251 C2252 1.403 . S
C2252 C2251 1.403 . S
C2252 C2253 1.404 . S
C2252 C2255 1.539 . S
C2253 C2249 1.408 . S
C2253 C2252 1.404 . S
C2253 H2265 0.930 . S
C2254 C2250 1.524 1_655 S
C2254 H2266 0.956 . S
C2254 H2267 0.961 . S
C2254 H2268 0.961 . S
C2255 C2252 1.539 . S
C2255 H2269 0.958 . S
C2255 H2270 0.961 . S
C2255 H2271 0.960 . S
H2256 C2240 0.931 . S
H2257 C2245 0.929 . S
H2258 C2246 0.960 . S
H2259 C2246 0.962 . S
H2260 C2246 0.960 . S
H2261 C2247 0.961 . S
H2262 C2247 0.961 . S
H2263 C2247 0.961 . S
H2264 C2248 0.931 . S
H2265 C2253 0.930 . S
H2266 C2254 0.956 . S
H2267 C2254 0.961 . S
H2268 C2254 0.961 . S
H2269 C2255 0.958 . S
H2270 C2255 0.961 . S
H2271 C2255 0.960 . S
C2272 C2273 1.391 . S
C2272 C2274 1.394 . S
C2272 H2288 0.931 . S
C2273 C2272 1.391 . S
C2273 C2277 1.376 . S
C2274 C2272 1.394 . S
C2274 C2275 1.369 . S
C2274 C2278 1.531 . S
C2275 C2274 1.369 . S
C2275 C2276 1.410 . S
C2275 C2283 1.503 . S
C2276 C2275 1.410 . S
C2276 C2277 1.392 . S
C2276 C2279 1.511 . S
C2277 C2273 1.376 . S
C2277 C2276 1.392 . S
C2277 H2289 0.929 . S
C2278 C2274 1.531 . S
C2278 H2290 0.960 . S
C2278 H2291 0.962 . S
C2278 H2292 0.960 . S
C2279 C2276 1.511 . S
C2279 H2293 0.961 . S
C2279 H2294 0.961 . S
C2279 H2295 0.961 . S
C2280 C2281 1.370 . S
C2280 C2282 1.363 . S
C2280 H2296 0.931 . S
C2281 C2280 1.370 . S
C2281 C2285 1.408 . S
C2282 C2280 1.363 . S
C2282 C2283 1.370 . S
C2282 C2286 1.524 . S
C2283 C2275 1.503 . S
C2283 C2282 1.370 . S
C2283 C2284 1.403 . S
C2284 C2283 1.403 . S
C2284 C2285 1.404 . S
C2284 C2287 1.539 . S
C2285 C2281 1.408 . S
C2285 C2284 1.404 . S
C2285 H2297 0.930 . S
C2286 C2282 1.524 . S
C2286 H2298 0.956 . S
C2286 H2299 0.961 . S
C2286 H2300 0.961 . S
C2287 C2284 1.539 . S
C2287 H2301 0.958 . S
C2287 H2302 0.961 . S
C2287 H2303 0.960 . S
H2288 C2272 0.931 . S
H2289 C2277 0.929 . S
H2290 C2278 0.960 . S
H2291 C2278 0.962 . S
H2292 C2278 0.960 . S
H2293 C2279 0.961 . S
H2294 C2279 0.961 . S
H2295 C2279 0.961 . S
H2296 C2280 0.931 . S
H2297 C2285 0.930 . S
H2298 C2286 0.956 . S
H2299 C2286 0.961 . S
H2300 C2286 0.961 . S
H2301 C2287 0.958 . S
H2302 C2287 0.961 . S
H2303 C2287 0.960 . S
C2304 C2305 1.391 . S
C2304 C2306 1.394 . S
C2304 H2320 0.931 . S
C2305 C2304 1.391 . S
C2305 C2309 1.376 . S
C2306 C2304 1.394 . S
C2306 C2307 1.369 . S
C2306 C2310 1.531 . S
C2307 C2306 1.369 . S
C2307 C2308 1.410 . S
C2307 C2315 1.503 . S
C2308 C2307 1.410 . S
C2308 C2309 1.392 . S
C2308 C2311 1.511 . S
C2309 C2305 1.376 . S
C2309 C2308 1.392 . S
C2309 H2321 0.929 . S
C2310 C2306 1.531 . S
C2310 H2322 0.960 . S
C2310 H2323 0.962 . S
C2310 H2324 0.960 . S
C2311 C2308 1.511 . S
C2311 H2325 0.961 . S
C2311 H2326 0.961 . S
C2311 H2327 0.961 . S
C2312 C2313 1.370 . S
C2312 C2314 1.363 . S
C2312 H2328 0.931 . S
C2313 C2312 1.370 . S
C2313 C2317 1.408 . S
C2314 C2312 1.363 . S
C2314 C2315 1.370 . S
C2314 C2318 1.524 . S
C2315 C2307 1.503 . S
C2315 C2314 1.370 . S
C2315 C2316 1.403 . S
C2316 C2315 1.403 . S
C2316 C2317 1.404 . S
C2316 C2319 1.539 . S
C2317 C2313 1.408 . S
C2317 C2316 1.404 . S
C2317 H2329 0.930 . S
C2318 C2314 1.524 . S
C2318 H2330 0.956 . S
C2318 H2331 0.961 . S
C2318 H2332 0.961 . S
C2319 C2316 1.539 . S
C2319 H2333 0.958 . S
C2319 H2334 0.961 . S
C2319 H2335 0.960 . S
H2320 C2304 0.931 . S
H2321 C2309 0.929 . S
H2322 C2310 0.960 . S
H2323 C2310 0.962 . S
H2324 C2310 0.960 . S
H2325 C2311 0.961 . S
H2326 C2311 0.961 . S
H2327 C2311 0.961 . S
H2328 C2312 0.931 . S
H2329 C2317 0.930 . S
H2330 C2318 0.956 . S
H2331 C2318 0.961 . S
H2332 C2318 0.961 . S
H2333 C2319 0.958 . S
H2334 C2319 0.961 . S
H2335 C2319 0.960 . S
C2336 C2337 1.391 . S
C2336 C2338 1.394 . S
C2336 H2352 0.931 . S
C2337 C2336 1.391 . S
C2337 C2341 1.376 . S
C2338 C2336 1.394 . S
C2338 C2339 1.369 . S
C2338 C2342 1.531 . S
C2339 C2338 1.369 . S
C2339 C2340 1.410 . S
C2339 C2347 1.503 . S
C2340 C2339 1.410 . S
C2340 C2341 1.392 . S
C2340 C2343 1.511 . S
C2341 C2337 1.376 . S
C2341 C2340 1.392 . S
C2341 H2353 0.929 . S
C2342 C2338 1.531 . S
C2342 H2354 0.960 . S
C2342 H2355 0.962 . S
C2342 H2356 0.960 . S
C2343 C2340 1.511 . S
C2343 H2357 0.961 . S
C2343 H2358 0.961 . S
C2343 H2359 0.961 . S
C2344 C2345 1.370 . S
C2344 C2346 1.363 . S
C2344 H2360 0.931 . S
C2345 C2344 1.370 . S
C2345 C2349 1.408 . S
C2346 C2344 1.363 . S
C2346 C2347 1.370 . S
C2346 C2350 1.524 . S
C2347 C2339 1.503 . S
C2347 C2346 1.370 . S
C2347 C2348 1.403 . S
C2348 C2347 1.403 . S
C2348 C2349 1.404 . S
C2348 C2351 1.539 . S
C2349 C2345 1.408 . S
C2349 C2348 1.404 . S
C2349 H2361 0.930 . S
C2350 C2346 1.524 . S
C2350 H2362 0.956 . S
C2350 H2363 0.961 . S
C2350 H2364 0.961 . S
C2351 C2348 1.539 . S
C2351 H2365 0.958 . S
C2351 H2366 0.961 . S
C2351 H2367 0.960 . S
H2352 C2336 0.931 . S
H2353 C2341 0.929 . S
H2354 C2342 0.960 . S
H2355 C2342 0.962 . S
H2356 C2342 0.960 . S
H2357 C2343 0.961 . S
H2358 C2343 0.961 . S
H2359 C2343 0.961 . S
H2360 C2344 0.931 . S
H2361 C2349 0.930 . S
H2362 C2350 0.956 . S
H2363 C2350 0.961 . S
H2364 C2350 0.961 . S
H2365 C2351 0.958 . S
H2366 C2351 0.961 . S
H2367 C2351 0.960 . S
C2368 C2369 1.391 . S
C2368 C2370 1.394 . S
C2368 H2384 0.931 . S
C2369 C2368 1.391 . S
C2369 C2373 1.376 . S
C2370 C2368 1.394 . S
C2370 C2371 1.369 . S
C2370 C2374 1.531 . S
C2371 C2370 1.369 . S
C2371 C2372 1.410 . S
C2371 C2379 1.503 . S
C2372 C2371 1.410 . S
C2372 C2373 1.392 . S
C2372 C2375 1.511 . S
C2373 C2369 1.376 . S
C2373 C2372 1.392 . S
C2373 H2385 0.929 . S
C2374 C2370 1.531 . S
C2374 H2386 0.960 . S
C2374 H2387 0.962 . S
C2374 H2388 0.960 . S
C2375 C2372 1.511 . S
C2375 H2389 0.961 . S
C2375 H2390 0.961 . S
C2375 H2391 0.961 . S
C2376 C2377 1.370 . S
C2376 C2378 1.363 . S
C2376 H2392 0.931 . S
C2377 C2376 1.370 . S
C2377 C2381 1.408 . S
C2378 C2376 1.363 . S
C2378 C2379 1.370 . S
C2378 C2382 1.524 . S
C2379 C2371 1.503 . S
C2379 C2378 1.370 . S
C2379 C2380 1.403 . S
C2380 C2379 1.403 . S
C2380 C2381 1.404 . S
C2380 C2383 1.539 . S
C2381 C2377 1.408 . S
C2381 C2380 1.404 . S
C2381 H2393 0.930 . S
C2382 C2378 1.524 . S
C2382 H2394 0.956 . S
C2382 H2395 0.961 . S
C2382 H2396 0.961 . S
C2383 C2380 1.539 . S
C2383 H2397 0.958 . S
C2383 H2398 0.961 . S
C2383 H2399 0.960 . S
H2384 C2368 0.931 . S
H2385 C2373 0.929 . S
H2386 C2374 0.960 . S
H2387 C2374 0.962 . S
H2388 C2374 0.960 . S
H2389 C2375 0.961 . S
H2390 C2375 0.961 . S
H2391 C2375 0.961 . S
H2392 C2376 0.931 . S
H2393 C2381 0.930 . S
H2394 C2382 0.956 . S
H2395 C2382 0.961 . S
H2396 C2382 0.961 . S
H2397 C2383 0.958 . S
H2398 C2383 0.961 . S
H2399 C2383 0.960 . S
C2400 C2401 1.391 . S
C2400 C2402 1.394 . S
C2400 H2416 0.931 . S
C2401 C2400 1.391 . S
C2401 C2405 1.376 . S
C2402 C2400 1.394 . S
C2402 C2403 1.369 . S
C2402 C2406 1.531 . S
C2403 C2402 1.369 . S
C2403 C2404 1.410 . S
C2403 C2411 1.503 . S
C2404 C2403 1.410 . S
C2404 C2405 1.392 . S
C2404 C2407 1.511 . S
C2405 C2401 1.376 . S
C2405 C2404 1.392 . S
C2405 H2417 0.929 . S
C2406 C2402 1.531 . S
C2406 H2418 0.960 . S
C2406 H2419 0.962 . S
C2406 H2420 0.960 . S
C2407 C2404 1.511 . S
C2407 H2421 0.961 . S
C2407 H2422 0.961 . S
C2407 H2423 0.961 . S
C2408 C2409 1.370 . S
C2408 C2410 1.363 . S
C2408 H2424 0.931 . S
C2409 C2408 1.370 . S
C2409 C2413 1.408 . S
C2410 C2408 1.363 . S
C2410 C2411 1.370 . S
C2410 C2414 1.524 . S
C2411 C2403 1.503 . S
C2411 C2410 1.370 . S
C2411 C2412 1.403 . S
C2412 C2411 1.403 . S
C2412 C2413 1.404 . S
C2412 C2415 1.539 . S
C2413 C2409 1.408 . S
C2413 C2412 1.404 . S
C2413 H2425 0.930 . S
C2414 C2410 1.524 . S
C2414 H2426 0.956 . S
C2414 H2427 0.961 . S
C2414 H2428 0.961 . S
C2415 C2412 1.539 . S
C2415 H2429 0.958 . S
C2415 H2430 0.961 . S
C2415 H2431 0.960 . S
H2416 C2400 0.931 . S
H2417 C2405 0.929 . S
H2418 C2406 0.960 . S
H2419 C2406 0.962 . S
H2420 C2406 0.960 . S
H2421 C2407 0.961 . S
H2422 C2407 0.961 . S
H2423 C2407 0.961 . S
H2424 C2408 0.931 . S
H2425 C2413 0.930 . S
H2426 C2414 0.956 . S
H2427 C2414 0.961 . S
H2428 C2414 0.961 . S
H2429 C2415 0.958 . S
H2430 C2415 0.961 . S
H2431 C2415 0.960 . S
C2432 C2433 1.391 . S
C2432 C2434 1.394 . S
C2432 H2448 0.931 . S
C2433 C2432 1.391 . S
C2433 C2437 1.376 . S
C2434 C2432 1.394 . S
C2434 C2435 1.369 . S
C2434 C2438 1.531 . S
C2435 C2434 1.369 . S
C2435 C2436 1.410 . S
C2435 C2443 1.503 1_455 S
C2436 C2435 1.410 . S
C2436 C2437 1.392 . S
C2436 C2439 1.511 1_455 S
C2437 C2433 1.376 . S
C2437 C2436 1.392 . S
C2437 H2449 0.929 . S
C2438 C2434 1.531 . S
C2438 H2450 0.960 . S
C2438 H2451 0.962 . S
C2438 H2452 0.960 . S
C2439 C2436 1.511 1_655 S
C2439 H2453 0.961 1_655 S
C2439 H2454 0.961 . S
C2439 H2455 0.961 . S
C2440 C2441 1.370 . S
C2440 C2442 1.363 . S
C2440 H2456 0.931 . S
C2441 C2440 1.370 . S
C2441 C2445 1.408 . S
C2442 C2440 1.363 . S
C2442 C2443 1.370 . S
C2442 C2446 1.524 1_655 S
C2443 C2435 1.503 1_655 S
C2443 C2442 1.370 . S
C2443 C2444 1.403 . S
C2444 C2443 1.403 . S
C2444 C2445 1.404 . S
C2444 C2447 1.539 . S
C2445 C2441 1.408 . S
C2445 C2444 1.404 . S
C2445 H2457 0.930 . S
C2446 C2442 1.524 1_455 S
C2446 H2458 0.956 . S
C2446 H2459 0.961 . S
C2446 H2460 0.961 . S
C2447 C2444 1.539 . S
C2447 H2461 0.958 . S
C2447 H2462 0.961 . S
C2447 H2463 0.960 . S
H2448 C2432 0.931 . S
H2449 C2437 0.929 . S
H2450 C2438 0.960 . S
H2451 C2438 0.962 . S
H2452 C2438 0.960 . S
H2453 C2439 0.961 1_455 S
H2454 C2439 0.961 . S
H2455 C2439 0.961 . S
H2456 C2440 0.931 . S
H2457 C2445 0.930 . S
H2458 C2446 0.956 . S
H2459 C2446 0.961 . S
H2460 C2446 0.961 . S
H2461 C2447 0.958 . S
H2462 C2447 0.961 . S
H2463 C2447 0.960 . S
C2464 C2465 1.391 . S
C2464 C2466 1.394 . S
C2464 H2480 0.931 . S
C2465 C2464 1.391 . S
C2465 C2469 1.376 . S
C2466 C2464 1.394 . S
C2466 C2467 1.369 . S
C2466 C2470 1.531 . S
C2467 C2466 1.369 . S
C2467 C2468 1.410 . S
C2467 C2475 1.503 . S
C2468 C2467 1.410 . S
C2468 C2469 1.392 . S
C2468 C2471 1.511 . S
C2469 C2465 1.376 . S
C2469 C2468 1.392 . S
C2469 H2481 0.929 . S
C2470 C2466 1.531 . S
C2470 H2482 0.960 . S
C2470 H2483 0.962 . S
C2470 H2484 0.960 . S
C2471 C2468 1.511 . S
C2471 H2485 0.961 . S
C2471 H2486 0.961 . S
C2471 H2487 0.961 . S
C2472 C2473 1.370 . S
C2472 C2474 1.363 . S
C2472 H2488 0.931 . S
C2473 C2472 1.370 . S
C2473 C2477 1.408 . S
C2474 C2472 1.363 . S
C2474 C2475 1.370 . S
C2474 C2478 1.524 . S
C2475 C2467 1.503 . S
C2475 C2474 1.370 . S
C2475 C2476 1.403 . S
C2476 C2475 1.403 . S
C2476 C2477 1.404 . S
C2476 C2479 1.539 . S
C2477 C2473 1.408 . S
C2477 C2476 1.404 . S
C2477 H2489 0.930 . S
C2478 C2474 1.524 . S
C2478 H2490 0.956 . S
C2478 H2491 0.961 . S
C2478 H2492 0.961 . S
C2479 C2476 1.539 . S
C2479 H2493 0.958 . S
C2479 H2494 0.961 . S
C2479 H2495 0.960 . S
H2480 C2464 0.931 . S
H2481 C2469 0.929 . S
H2482 C2470 0.960 . S
H2483 C2470 0.962 . S
H2484 C2470 0.960 . S
H2485 C2471 0.961 . S
H2486 C2471 0.961 . S
H2487 C2471 0.961 . S
H2488 C2472 0.931 . S
H2489 C2477 0.930 . S
H2490 C2478 0.956 . S
H2491 C2478 0.961 . S
H2492 C2478 0.961 . S
H2493 C2479 0.958 . S
H2494 C2479 0.961 . S
H2495 C2479 0.960 . S
C2496 C2497 1.391 . S
C2496 C2498 1.394 . S
C2496 H2512 0.931 . S
C2497 C2496 1.391 . S
C2497 C2501 1.376 . S
C2498 C2496 1.394 . S
C2498 C2499 1.369 . S
C2498 C2502 1.531 . S
C2499 C2498 1.369 . S
C2499 C2500 1.410 . S
C2499 C2507 1.503 1_655 S
C2500 C2499 1.410 . S
C2500 C2501 1.392 . S
C2500 C2503 1.511 1_655 S
C2501 C2497 1.376 . S
C2501 C2500 1.392 . S
C2501 H2513 0.929 . S
C2502 C2498 1.531 . S
C2502 H2514 0.960 . S
C2502 H2515 0.962 . S
C2502 H2516 0.960 . S
C2503 C2500 1.511 1_455 S
C2503 H2517 0.961 . S
C2503 H2518 0.961 . S
C2503 H2519 0.961 . S
C2504 C2505 1.370 . S
C2504 C2506 1.363 . S
C2504 H2520 0.931 . S
C2505 C2504 1.370 . S
C2505 C2509 1.408 . S
C2506 C2504 1.363 . S
C2506 C2507 1.370 . S
C2506 C2510 1.524 . S
C2507 C2499 1.503 1_455 S
C2507 C2506 1.370 . S
C2507 C2508 1.403 . S
C2508 C2507 1.403 . S
C2508 C2509 1.404 . S
C2508 C2511 1.539 . S
C2509 C2505 1.408 . S
C2509 C2508 1.404 . S
C2509 H2521 0.930 . S
C2510 C2506 1.524 . S
C2510 H2522 0.956 . S
C2510 H2523 0.961 . S
C2510 H2524 0.961 . S
C2511 C2508 1.539 . S
C2511 H2525 0.958 . S
C2511 H2526 0.961 . S
C2511 H2527 0.960 . S
H2512 C2496 0.931 . S
H2513 C2501 0.929 . S
H2514 C2502 0.960 . S
H2515 C2502 0.962 . S
H2516 C2502 0.960 . S
H2517 C2503 0.961 . S
H2518 C2503 0.961 . S
H2519 C2503 0.961 . S
H2520 C2504 0.931 . S
H2521 C2509 0.930 . S
H2522 C2510 0.956 . S
H2523 C2510 0.961 . S
H2524 C2510 0.961 . S
H2525 C2511 0.958 . S
H2526 C2511 0.961 . S
H2527 C2511 0.960 . S
C2528 C2529 1.391 . S
C2528 C2530 1.394 . S
C2528 H2544 0.931 . S
C2529 C2528 1.391 . S
C2529 C2533 1.376 . S
C2530 C2528 1.394 . S
C2530 C2531 1.369 . S
C2530 C2534 1.531 . S
C2531 C2530 1.369 . S
C2531 C2532 1.410 . S
C2531 C2539 1.503 . S
C2532 C2531 1.410 . S
C2532 C2533 1.392 . S
C2532 C2535 1.511 . S
C2533 C2529 1.376 . S
C2533 C2532 1.392 . S
C2533 H2545 0.929 . S
C2534 C2530 1.531 . S
C2534 H2546 0.960 . S
C2534 H2547 0.962 . S
C2534 H2548 0.960 . S
C2535 C2532 1.511 . S
C2535 H2549 0.961 . S
C2535 H2550 0.961 . S
C2535 H2551 0.961 . S
C2536 C2537 1.370 . S
C2536 C2538 1.363 . S
C2536 H2552 0.931 . S
C2537 C2536 1.370 . S
C2537 C2541 1.408 . S
C2538 C2536 1.363 . S
C2538 C2539 1.370 . S
C2538 C2542 1.524 . S
C2539 C2531 1.503 . S
C2539 C2538 1.370 . S
C2539 C2540 1.403 . S
C2540 C2539 1.403 . S
C2540 C2541 1.404 . S
C2540 C2543 1.539 . S
C2541 C2537 1.408 . S
C2541 C2540 1.404 . S
C2541 H2553 0.930 . S
C2542 C2538 1.524 . S
C2542 H2554 0.956 . S
C2542 H2555 0.961 . S
C2542 H2556 0.961 . S
C2543 C2540 1.539 . S
C2543 H2557 0.958 . S
C2543 H2558 0.961 . S
C2543 H2559 0.960 . S
H2544 C2528 0.931 . S
H2545 C2533 0.929 . S
H2546 C2534 0.960 . S
H2547 C2534 0.962 . S
H2548 C2534 0.960 . S
H2549 C2535 0.961 . S
H2550 C2535 0.961 . S
H2551 C2535 0.961 . S
H2552 C2536 0.931 . S
H2553 C2541 0.930 . S
H2554 C2542 0.956 . S
H2555 C2542 0.961 . S
H2556 C2542 0.961 . S
H2557 C2543 0.958 . S
H2558 C2543 0.961 . S
H2559 C2543 0.960 . S
C2560 C2561 1.391 . S
C2560 C2562 1.394 . S
C2560 H2576 0.931 . S
C2561 C2560 1.391 . S
C2561 C2565 1.376 . S
C2562 C2560 1.394 . S
C2562 C2563 1.369 . S
C2562 C2566 1.531 . S
C2563 C2562 1.369 . S
C2563 C2564 1.410 . S
C2563 C2571 1.503 . S
C2564 C2563 1.410 . S
C2564 C2565 1.392 . S
C2564 C2567 1.511 . S
C2565 C2561 1.376 . S
C2565 C2564 1.392 . S
C2565 H2577 0.929 . S
C2566 C2562 1.531 . S
C2566 H2578 0.960 . S
C2566 H2579 0.962 . S
C2566 H2580 0.960 . S
C2567 C2564 1.511 . S
C2567 H2581 0.961 . S
C2567 H2582 0.961 . S
C2567 H2583 0.961 . S
C2568 C2569 1.370 . S
C2568 C2570 1.363 . S
C2568 H2584 0.931 . S
C2569 C2568 1.370 . S
C2569 C2573 1.408 . S
C2570 C2568 1.363 . S
C2570 C2571 1.370 . S
C2570 C2574 1.524 . S
C2571 C2563 1.503 . S
C2571 C2570 1.370 . S
C2571 C2572 1.403 . S
C2572 C2571 1.403 . S
C2572 C2573 1.404 . S
C2572 C2575 1.539 . S
C2573 C2569 1.408 . S
C2573 C2572 1.404 . S
C2573 H2585 0.930 . S
C2574 C2570 1.524 . S
C2574 H2586 0.956 . S
C2574 H2587 0.961 . S
C2574 H2588 0.961 . S
C2575 C2572 1.539 . S
C2575 H2589 0.958 . S
C2575 H2590 0.961 . S
C2575 H2591 0.960 . S
H2576 C2560 0.931 . S
H2577 C2565 0.929 . S
H2578 C2566 0.960 . S
H2579 C2566 0.962 . S
H2580 C2566 0.960 . S
H2581 C2567 0.961 . S
H2582 C2567 0.961 . S
H2583 C2567 0.961 . S
H2584 C2568 0.931 . S
H2585 C2573 0.930 . S
H2586 C2574 0.956 . S
H2587 C2574 0.961 . S
H2588 C2574 0.961 . S
H2589 C2575 0.958 . S
H2590 C2575 0.961 . S
H2591 C2575 0.960 . S
C2592 C2593 1.391 . S
C2592 C2594 1.394 . S
C2592 H2608 0.931 . S
C2593 C2592 1.391 . S
C2593 C2597 1.376 . S
C2594 C2592 1.394 . S
C2594 C2595 1.369 . S
C2594 C2598 1.531 . S
C2595 C2594 1.369 . S
C2595 C2596 1.410 . S
C2595 C2603 1.503 . S
C2596 C2595 1.410 . S
C2596 C2597 1.392 . S
C2596 C2599 1.511 . S
C2597 C2593 1.376 . S
C2597 C2596 1.392 . S
C2597 H2609 0.929 . S
C2598 C2594 1.531 . S
C2598 H2610 0.960 . S
C2598 H2611 0.962 . S
C2598 H2612 0.960 . S
C2599 C2596 1.511 . S
C2599 H2613 0.961 . S
C2599 H2614 0.961 . S
C2599 H2615 0.961 . S
C2600 C2601 1.370 . S
C2600 C2602 1.363 . S
C2600 H2616 0.931 . S
C2601 C2600 1.370 . S
C2601 C2605 1.408 . S
C2602 C2600 1.363 . S
C2602 C2603 1.370 . S
C2602 C2606 1.524 . S
C2603 C2595 1.503 . S
C2603 C2602 1.370 . S
C2603 C2604 1.403 . S
C2604 C2603 1.403 . S
C2604 C2605 1.404 . S
C2604 C2607 1.539 . S
C2605 C2601 1.408 . S
C2605 C2604 1.404 . S
C2605 H2617 0.930 . S
C2606 C2602 1.524 . S
C2606 H2618 0.956 . S
C2606 H2619 0.961 . S
C2606 H2620 0.961 . S
C2607 C2604 1.539 . S
C2607 H2621 0.958 . S
C2607 H2622 0.961 . S
C2607 H2623 0.960 . S
H2608 C2592 0.931 . S
H2609 C2597 0.929 . S
H2610 C2598 0.960 . S
H2611 C2598 0.962 . S
H2612 C2598 0.960 . S
H2613 C2599 0.961 . S
H2614 C2599 0.961 . S
H2615 C2599 0.961 . S
H2616 C2600 0.931 . S
H2617 C2605 0.930 . S
H2618 C2606 0.956 . S
H2619 C2606 0.961 . S
H2620 C2606 0.961 . S
H2621 C2607 0.958 . S
H2622 C2607 0.961 . S
H2623 C2607 0.960 . S
C2624 C2625 1.391 . S
C2624 C2626 1.394 . S
C2624 H2640 0.931 . S
C2625 C2624 1.391 . S
C2625 C2629 1.376 . S
C2626 C2624 1.394 . S
C2626 C2627 1.369 . S
C2626 C2630 1.531 1_655 S
C2627 C2626 1.369 . S
C2627 C2628 1.410 . S
C2627 C2635 1.503 1_655 S
C2628 C2627 1.410 . S
C2628 C2629 1.392 . S
C2628 C2631 1.511 . S
C2629 C2625 1.376 . S
C2629 C2628 1.392 . S
C2629 H2641 0.929 . S
C2630 C2626 1.531 1_455 S
C2630 H2642 0.960 . S
C2630 H2643 0.962 . S
C2630 H2644 0.960 . S
C2631 C2628 1.511 . S
C2631 H2645 0.961 . S
C2631 H2646 0.961 . S
C2631 H2647 0.961 . S
C2632 C2633 1.370 . S
C2632 C2634 1.363 . S
C2632 H2648 0.931 . S
C2633 C2632 1.370 . S
C2633 C2637 1.408 . S
C2634 C2632 1.363 . S
C2634 C2635 1.370 . S
C2634 C2638 1.524 . S
C2635 C2627 1.503 1_455 S
C2635 C2634 1.370 . S
C2635 C2636 1.403 . S
C2636 C2635 1.403 . S
C2636 C2637 1.404 . S
C2636 C2639 1.525 1_455 S
C2637 C2633 1.408 . S
C2637 C2636 1.404 . S
C2637 H2649 0.930 . S
C2638 C2634 1.524 . S
C2638 H2650 0.956 . S
C2638 H2651 0.961 . S
C2638 H2652 0.961 . S
C2639 C2636 1.525 1_655 S
C2639 H2653 0.950 1_655 S
C2639 H2654 0.961 . S
C2639 H2655 0.983 . S
H2640 C2624 0.931 . S
H2641 C2629 0.929 . S
H2642 C2630 0.960 . S
H2643 C2630 0.962 . S
H2644 C2630 0.960 . S
H2645 C2631 0.961 . S
H2646 C2631 0.961 . S
H2647 C2631 0.961 . S
H2648 C2632 0.931 . S
H2649 C2637 0.930 . S
H2650 C2638 0.956 . S
H2651 C2638 0.961 . S
H2652 C2638 0.961 . S
H2653 C2639 0.950 1_455 S
H2654 C2639 0.961 . S
H2655 C2639 0.983 . S
C2656 C2657 1.391 . S
C2656 C2658 1.394 . S
C2656 H2672 0.931 . S
C2657 C2656 1.391 . S
C2657 C2661 1.376 . S
C2658 C2656 1.394 . S
C2658 C2659 1.369 . S
C2658 C2662 1.531 . S
C2659 C2658 1.369 . S
C2659 C2660 1.402 1_655 S
C2659 C2667 1.503 1_655 S
C2660 C2659 1.402 1_455 S
C2660 C2661 1.373 1_455 S
C2660 C2663 1.538 . S
C2661 C2657 1.376 . S
C2661 C2660 1.373 1_655 S
C2661 H2673 0.929 . S
C2662 C2658 1.531 . S
C2662 H2674 0.960 . S
C2662 H2675 0.962 . S
C2662 H2676 0.960 . S
C2663 C2660 1.538 . S
C2663 H2677 0.961 . S
C2663 H2678 0.961 . S
C2663 H2679 0.961 . S
C2664 C2665 1.370 . S
C2664 C2666 1.363 . S
C2664 H2680 0.931 . S
C2665 C2664 1.370 . S
C2665 C2669 1.408 . S
C2666 C2664 1.363 . S
C2666 C2667 1.370 . S
C2666 C2670 1.524 1_455 S
C2667 C2659 1.503 1_455 S
C2667 C2666 1.370 . S
C2667 C2668 1.403 . S
C2668 C2667 1.403 . S
C2668 C2669 1.404 . S
C2668 C2671 1.539 . S
C2669 C2665 1.408 . S
C2669 C2668 1.404 . S
C2669 H2681 0.930 . S
C2670 C2666 1.524 1_655 S
C2670 H2682 0.956 . S
C2670 H2683 0.961 . S
C2670 H2684 0.961 . S
C2671 C2668 1.539 . S
C2671 H2685 0.958 . S
C2671 H2686 0.961 . S
C2671 H2687 0.960 . S
H2672 C2656 0.931 . S
H2673 C2661 0.929 . S
H2674 C2662 0.960 . S
H2675 C2662 0.962 . S
H2676 C2662 0.960 . S
H2677 C2663 0.961 . S
H2678 C2663 0.961 . S
H2679 C2663 0.961 . S
H2680 C2664 0.931 . S
H2681 C2669 0.930 . S
H2682 C2670 0.956 . S
H2683 C2670 0.961 . S
H2684 C2670 0.961 . S
H2685 C2671 0.958 . S
H2686 C2671 0.961 . S
H2687 C2671 0.960 . S
C2688 C2689 1.391 . S
C2688 C2690 1.394 . S
C2688 H2704 0.931 . S
C2689 C2688 1.391 . S
C2689 C2693 1.376 . S
C2690 C2688 1.394 . S
C2690 C2691 1.369 . S
C2690 C2694 1.531 . S
C2691 C2690 1.369 . S
C2691 C2692 1.410 . S
C2691 C2699 1.503 . S
C2692 C2691 1.410 . S
C2692 C2693 1.392 . S
C2692 C2695 1.511 . S
C2693 C2689 1.376 . S
C2693 C2692 1.392 . S
C2693 H2705 0.929 . S
C2694 C2690 1.531 . S
C2694 H2706 0.960 . S
C2694 H2707 0.962 . S
C2694 H2708 0.960 . S
C2695 C2692 1.511 . S
C2695 H2709 0.961 . S
C2695 H2710 0.961 . S
C2695 H2711 0.961 . S
C2696 C2697 1.370 . S
C2696 C2698 1.363 . S
C2696 H2712 0.931 . S
C2697 C2696 1.370 . S
C2697 C2701 1.408 . S
C2698 C2696 1.363 . S
C2698 C2699 1.370 . S
C2698 C2702 1.524 . S
C2699 C2691 1.503 . S
C2699 C2698 1.370 . S
C2699 C2700 1.403 . S
C2700 C2699 1.403 . S
C2700 C2701 1.404 . S
C2700 C2703 1.539 . S
C2701 C2697 1.408 . S
C2701 C2700 1.404 . S
C2701 H2713 0.930 . S
C2702 C2698 1.524 . S
C2702 H2714 0.956 . S
C2702 H2715 0.961 . S
C2702 H2716 0.961 . S
C2703 C2700 1.539 . S
C2703 H2717 0.958 . S
C2703 H2718 0.961 . S
C2703 H2719 0.960 . S
H2704 C2688 0.931 . S
H2705 C2693 0.929 . S
H2706 C2694 0.960 . S
H2707 C2694 0.962 . S
H2708 C2694 0.960 . S
H2709 C2695 0.961 . S
H2710 C2695 0.961 . S
H2711 C2695 0.961 . S
H2712 C2696 0.931 . S
H2713 C2701 0.930 . S
H2714 C2702 0.956 . S
H2715 C2702 0.961 . S
H2716 C2702 0.961 . S
H2717 C2703 0.958 . S
H2718 C2703 0.961 . S
H2719 C2703 0.960 . S
C2720 C2721 1.391 . S
C2720 C2722 1.394 . S
C2720 H2736 0.931 . S
C2721 C2720 1.391 . S
C2721 C2725 1.376 . S
C2722 C2720 1.394 . S
C2722 C2723 1.369 . S
C2722 C2726 1.531 . S
C2723 C2722 1.369 . S
C2723 C2724 1.410 . S
C2723 C2731 1.503 . S
C2724 C2723 1.410 . S
C2724 C2725 1.392 . S
C2724 C2727 1.511 . S
C2725 C2721 1.376 . S
C2725 C2724 1.392 . S
C2725 H2737 0.929 . S
C2726 C2722 1.531 . S
C2726 H2738 0.960 . S
C2726 H2739 0.962 . S
C2726 H2740 0.960 . S
C2727 C2724 1.511 . S
C2727 H2741 0.961 . S
C2727 H2742 0.961 . S
C2727 H2743 0.961 . S
C2728 C2729 1.370 . S
C2728 C2730 1.363 . S
C2728 H2744 0.931 . S
C2729 C2728 1.370 . S
C2729 C2733 1.408 . S
C2730 C2728 1.363 . S
C2730 C2731 1.370 . S
C2730 C2734 1.524 . S
C2731 C2723 1.503 . S
C2731 C2730 1.370 . S
C2731 C2732 1.403 . S
C2732 C2731 1.403 . S
C2732 C2733 1.404 . S
C2732 C2735 1.539 . S
C2733 C2729 1.408 . S
C2733 C2732 1.404 . S
C2733 H2745 0.930 . S
C2734 C2730 1.524 . S
C2734 H2746 0.956 . S
C2734 H2747 0.961 . S
C2734 H2748 0.961 . S
C2735 C2732 1.539 . S
C2735 H2749 0.958 . S
C2735 H2750 0.961 . S
C2735 H2751 0.960 . S
H2736 C2720 0.931 . S
H2737 C2725 0.929 . S
H2738 C2726 0.960 . S
H2739 C2726 0.962 . S
H2740 C2726 0.960 . S
H2741 C2727 0.961 . S
H2742 C2727 0.961 . S
H2743 C2727 0.961 . S
H2744 C2728 0.931 . S
H2745 C2733 0.930 . S
H2746 C2734 0.956 . S
H2747 C2734 0.961 . S
H2748 C2734 0.961 . S
H2749 C2735 0.958 . S
H2750 C2735 0.961 . S
H2751 C2735 0.960 . S
C2752 C2753 1.391 . S
C2752 C2754 1.394 . S
C2752 H2768 0.931 . S
C2753 C2752 1.391 . S
C2753 C2757 1.376 . S
C2754 C2752 1.394 . S
C2754 C2755 1.369 . S
C2754 C2758 1.531 . S
C2755 C2754 1.369 . S
C2755 C2756 1.410 . S
C2755 C2763 1.503 . S
C2756 C2755 1.410 . S
C2756 C2757 1.392 . S
C2756 C2759 1.511 . S
C2757 C2753 1.376 . S
C2757 C2756 1.392 . S
C2757 H2769 0.929 . S
C2758 C2754 1.531 . S
C2758 H2770 0.960 . S
C2758 H2771 0.962 . S
C2758 H2772 0.960 . S
C2759 C2756 1.511 . S
C2759 H2773 0.961 . S
C2759 H2774 0.961 . S
C2759 H2775 0.961 . S
C2760 C2761 1.370 . S
C2760 C2762 1.363 . S
C2760 H2776 0.931 . S
C2761 C2760 1.370 . S
C2761 C2765 1.408 . S
C2762 C2760 1.363 . S
C2762 C2763 1.370 . S
C2762 C2766 1.524 . S
C2763 C2755 1.503 . S
C2763 C2762 1.370 . S
C2763 C2764 1.403 . S
C2764 C2763 1.403 . S
C2764 C2765 1.404 . S
C2764 C2767 1.539 . S
C2765 C2761 1.408 . S
C2765 C2764 1.404 . S
C2765 H2777 0.930 . S
C2766 C2762 1.524 . S
C2766 H2778 0.956 . S
C2766 H2779 0.961 . S
C2766 H2780 0.961 . S
C2767 C2764 1.539 . S
C2767 H2781 0.958 . S
C2767 H2782 0.961 . S
C2767 H2783 0.960 . S
H2768 C2752 0.931 . S
H2769 C2757 0.929 . S
H2770 C2758 0.960 . S
H2771 C2758 0.962 . S
H2772 C2758 0.960 . S
H2773 C2759 0.961 . S
H2774 C2759 0.961 . S
H2775 C2759 0.961 . S
H2776 C2760 0.931 . S
H2777 C2765 0.930 . S
H2778 C2766 0.956 . S
H2779 C2766 0.961 . S
H2780 C2766 0.961 . S
H2781 C2767 0.958 . S
H2782 C2767 0.961 . S
H2783 C2767 0.960 . S
C2784 C2785 1.391 . S
C2784 C2786 1.394 . S
C2784 H2800 0.931 . S
C2785 C2784 1.391 . S
C2785 C2789 1.376 . S
C2786 C2784 1.394 . S
C2786 C2787 1.369 . S
C2786 C2790 1.531 . S
C2787 C2786 1.369 . S
C2787 C2788 1.410 . S
C2787 C2795 1.503 1_455 S
C2788 C2787 1.410 . S
C2788 C2789 1.392 . S
C2788 C2791 1.511 1_455 S
C2789 C2785 1.376 . S
C2789 C2788 1.392 . S
C2789 H2801 0.929 . S
C2790 C2786 1.531 . S
C2790 H2802 0.960 . S
C2790 H2803 0.962 . S
C2790 H2804 0.960 . S
C2791 C2788 1.511 1_655 S
C2791 H2805 0.961 . S
C2791 H2806 0.961 . S
C2791 H2807 0.961 . S
C2792 C2793 1.370 . S
C2792 C2794 1.363 . S
C2792 H2808 0.931 . S
C2793 C2792 1.370 . S
C2793 C2797 1.408 . S
C2794 C2792 1.363 . S
C2794 C2795 1.370 . S
C2794 C2798 1.524 1_655 S
C2795 C2787 1.503 1_655 S
C2795 C2794 1.370 . S
C2795 C2796 1.403 . S
C2796 C2795 1.403 . S
C2796 C2797 1.404 . S
C2796 C2799 1.539 . S
C2797 C2793 1.408 . S
C2797 C2796 1.404 . S
C2797 H2809 0.930 . S
C2798 C2794 1.524 1_455 S
C2798 H2810 0.956 . S
C2798 H2811 0.961 . S
C2798 H2812 0.961 . S
C2799 C2796 1.539 . S
C2799 H2813 0.958 . S
C2799 H2814 0.961 . S
C2799 H2815 0.960 . S
H2800 C2784 0.931 . S
H2801 C2789 0.929 . S
H2802 C2790 0.960 . S
H2803 C2790 0.962 . S
H2804 C2790 0.960 . S
H2805 C2791 0.961 . S
H2806 C2791 0.961 . S
H2807 C2791 0.961 . S
H2808 C2792 0.931 . S
H2809 C2797 0.930 . S
H2810 C2798 0.956 . S
H2811 C2798 0.961 . S
H2812 C2798 0.961 . S
H2813 C2799 0.958 . S
H2814 C2799 0.961 . S
H2815 C2799 0.960 . S
C2816 C2817 1.391 . S
C2816 C2818 1.394 . S
C2816 H2832 0.931 . S
C2817 C2816 1.391 . S
C2817 C2821 1.376 . S
C2818 C2816 1.394 . S
C2818 C2819 1.369 . S
C2818 C2822 1.531 . S
C2819 C2818 1.369 . S
C2819 C2820 1.410 . S
C2819 C2827 1.503 1_655 S
C2820 C2819 1.410 . S
C2820 C2821 1.392 . S
C2820 C2823 1.511 1_655 S
C2821 C2817 1.376 . S
C2821 C2820 1.392 . S
C2821 H2833 0.929 . S
C2822 C2818 1.531 . S
C2822 H2834 0.960 . S
C2822 H2835 0.962 . S
C2822 H2836 0.960 . S
C2823 C2820 1.511 1_455 S
C2823 H2837 0.961 . S
C2823 H2838 0.961 . S
C2823 H2839 0.961 . S
C2824 C2825 1.370 . S
C2824 C2826 1.363 . S
C2824 H2840 0.931 . S
C2825 C2824 1.370 . S
C2825 C2829 1.408 . S
C2826 C2824 1.363 . S
C2826 C2827 1.370 . S
C2826 C2830 1.524 1_455 S
C2827 C2819 1.503 1_455 S
C2827 C2826 1.370 . S
C2827 C2828 1.403 . S
C2828 C2827 1.403 . S
C2828 C2829 1.404 . S
C2828 C2831 1.539 . S
C2829 C2825 1.408 . S
C2829 C2828 1.404 . S
C2829 H2841 0.930 . S
C2830 C2826 1.524 1_655 S
C2830 H2842 0.956 . S
C2830 H2843 0.961 . S
C2830 H2844 0.961 . S
C2831 C2828 1.539 . S
C2831 H2845 0.958 . S
C2831 H2846 0.961 . S
C2831 H2847 0.960 . S
H2832 C2816 0.931 . S
H2833 C2821 0.929 . S
H2834 C2822 0.960 . S
H2835 C2822 0.962 . S
H2836 C2822 0.960 . S
H2837 C2823 0.961 . S
H2838 C2823 0.961 . S
H2839 C2823 0.961 . S
H2840 C2824 0.931 . S
H2841 C2829 0.930 . S
H2842 C2830 0.956 . S
H2843 C2830 0.961 . S
H2844 C2830 0.961 . S
H2845 C2831 0.958 . S
H2846 C2831 0.961 . S
H2847 C2831 0.960 . S
C2848 C2849 1.391 . S
C2848 C2850 1.394 . S
C2848 H2864 0.931 . S
C2849 C2848 1.391 . S
C2849 C2853 1.376 . S
C2850 C2848 1.394 . S
C2850 C2851 1.369 . S
C2850 C2854 1.531 . S
C2851 C2850 1.369 . S
C2851 C2852 1.410 . S
C2851 C2859 1.503 . S
C2852 C2851 1.410 . S
C2852 C2853 1.392 . S
C2852 C2855 1.511 . S
C2853 C2849 1.376 . S
C2853 C2852 1.392 . S
C2853 H2865 0.929 . S
C2854 C2850 1.531 . S
C2854 H2866 0.960 . S
C2854 H2867 0.962 . S
C2854 H2868 0.960 . S
C2855 C2852 1.511 . S
C2855 H2869 0.961 . S
C2855 H2870 0.961 . S
C2855 H2871 0.961 . S
C2856 C2857 1.370 . S
C2856 C2858 1.363 . S
C2856 H2872 0.931 . S
C2857 C2856 1.370 . S
C2857 C2861 1.408 . S
C2858 C2856 1.363 . S
C2858 C2859 1.370 . S
C2858 C2862 1.524 . S
C2859 C2851 1.503 . S
C2859 C2858 1.370 . S
C2859 C2860 1.403 . S
C2860 C2859 1.403 . S
C2860 C2861 1.404 . S
C2860 C2863 1.539 . S
C2861 C2857 1.408 . S
C2861 C2860 1.404 . S
C2861 H2873 0.930 . S
C2862 C2858 1.524 . S
C2862 H2874 0.956 . S
C2862 H2875 0.961 . S
C2862 H2876 0.961 . S
C2863 C2860 1.539 . S
C2863 H2877 0.958 . S
C2863 H2878 0.961 . S
C2863 H2879 0.960 . S
H2864 C2848 0.931 . S
H2865 C2853 0.929 . S
H2866 C2854 0.960 . S
H2867 C2854 0.962 . S
H2868 C2854 0.960 . S
H2869 C2855 0.961 . S
H2870 C2855 0.961 . S
H2871 C2855 0.961 . S
H2872 C2856 0.931 . S
H2873 C2861 0.930 . S
H2874 C2862 0.956 . S
H2875 C2862 0.961 . S
H2876 C2862 0.961 . S
H2877 C2863 0.958 . S
H2878 C2863 0.961 . S
H2879 C2863 0.960 . S
C2880 C2881 1.391 . S
C2880 C2882 1.394 . S
C2880 H2896 0.931 . S
C2881 C2880 1.391 . S
C2881 C2885 1.376 . S
C2882 C2880 1.394 . S
C2882 C2883 1.369 . S
C2882 C2886 1.531 . S
C2883 C2882 1.369 . S
C2883 C2884 1.410 . S
C2883 C2891 1.503 1_655 S
C2884 C2883 1.410 . S
C2884 C2885 1.392 . S
C2884 C2887 1.511 1_655 S
C2885 C2881 1.376 . S
C2885 C2884 1.392 . S
C2885 H2897 0.929 . S
C2886 C2882 1.531 . S
C2886 H2898 0.969 . S
C2886 H2899 0.962 . S
C2886 H2900 0.960 . S
C2887 C2884 1.511 1_455 S
C2887 H2901 0.961 1_455 S
C2887 H2902 0.961 . S
C2887 H2903 0.961 . S
C2888 C2889 1.370 . S
C2888 C2890 1.363 . S
C2888 H2904 0.931 . S
C2889 C2888 1.370 . S
C2889 C2893 1.408 . S
C2890 C2888 1.363 . S
C2890 C2891 1.370 . S
C2890 C2894 1.524 1_455 S
C2891 C2883 1.503 1_455 S
C2891 C2890 1.370 . S
C2891 C2892 1.403 . S
C2892 C2891 1.403 . S
C2892 C2893 1.404 . S
C2892 C2895 1.539 . S
C2893 C2889 1.408 . S
C2893 C2892 1.404 . S
C2893 H2905 0.930 . S
C2894 C2890 1.524 1_655 S
C2894 H2906 0.956 . S
C2894 H2907 0.961 . S
C2894 H2908 0.961 . S
C2895 C2892 1.539 . S
C2895 H2909 0.958 . S
C2895 H2910 0.961 . S
C2895 H2911 0.960 . S
H2896 C2880 0.931 . S
H2897 C2885 0.929 . S
H2898 C2886 0.969 . S
H2899 C2886 0.962 . S
H2900 C2886 0.960 . S
H2901 C2887 0.961 1_655 S
H2902 C2887 0.961 . S
H2903 C2887 0.961 . S
H2904 C2888 0.931 . S
H2905 C2893 0.930 . S
H2906 C2894 0.956 . S
H2907 C2894 0.961 . S
H2908 C2894 0.961 . S
H2909 C2895 0.958 . S
H2910 C2895 0.961 . S
H2911 C2895 0.960 . S
C2912 C2913 1.391 . S
C2912 C2914 1.394 . S
C2912 H2928 0.931 . S
C2913 C2912 1.391 . S
C2913 C2917 1.376 . S
C2914 C2912 1.394 . S
C2914 C2915 1.369 . S
C2914 C2918 1.531 . S
C2915 C2914 1.369 . S
C2915 C2916 1.410 . S
C2915 C2923 1.503 1_655 S
C2916 C2915 1.410 . S
C2916 C2917 1.392 . S
C2916 C2919 1.511 1_655 S
C2917 C2913 1.376 . S
C2917 C2916 1.392 . S
C2917 H2929 0.929 . S
C2918 C2914 1.531 . S
C2918 H2930 0.960 . S
C2918 H2931 0.962 . S
C2918 H2932 0.960 . S
C2919 C2916 1.511 1_455 S
C2919 H2933 0.961 . S
C2919 H2934 0.961 . S
C2919 H2935 0.961 . S
C2920 C2921 1.370 . S
C2920 C2922 1.363 . S
C2920 H2936 0.931 . S
C2921 C2920 1.370 . S
C2921 C2925 1.408 . S
C2922 C2920 1.363 . S
C2922 C2923 1.370 . S
C2922 C2926 1.524 1_455 S
C2923 C2915 1.503 1_455 S
C2923 C2922 1.370 . S
C2923 C2924 1.403 . S
C2924 C2923 1.403 . S
C2924 C2925 1.404 . S
C2924 C2927 1.539 . S
C2925 C2921 1.408 . S
C2925 C2924 1.404 . S
C2925 H2937 0.930 . S
C2926 C2922 1.524 1_655 S
C2926 H2938 0.956 . S
C2926 H2939 0.961 . S
C2926 H2940 0.961 . S
C2927 C2924 1.539 . S
C2927 H2941 0.958 . S
C2927 H2942 0.961 . S
C2927 H2943 0.960 . S
H2928 C2912 0.931 . S
H2929 C2917 0.929 . S
H2930 C2918 0.960 . S
H2931 C2918 0.962 . S
H2932 C2918 0.960 . S
H2933 C2919 0.961 . S
H2934 C2919 0.961 . S
H2935 C2919 0.961 . S
H2936 C2920 0.931 . S
H2937 C2925 0.930 . S
H2938 C2926 0.956 . S
H2939 C2926 0.961 . S
H2940 C2926 0.961 . S
H2941 C2927 0.958 . S
H2942 C2927 0.961 . S
H2943 C2927 0.960 . S
C2944 C2945 1.391 . S
C2944 C2946 1.394 . S
C2944 H2960 0.931 . S
C2945 C2944 1.391 . S
C2945 C2949 1.376 . S
C2946 C2944 1.394 . S
C2946 C2947 1.369 . S
C2946 C2950 1.531 . S
C2947 C2946 1.369 . S
C2947 C2948 1.410 . S
C2947 C2955 1.503 . S
C2948 C2947 1.410 . S
C2948 C2949 1.392 . S
C2948 C2951 1.511 . S
C2949 C2945 1.376 . S
C2949 C2948 1.392 . S
C2949 H2961 0.929 . S
C2950 C2946 1.531 . S
C2950 H2962 0.960 . S
C2950 H2963 0.962 . S
C2950 H2964 0.960 . S
C2951 C2948 1.511 . S
C2951 H2965 0.961 . S
C2951 H2966 0.961 . S
C2951 H2967 0.961 . S
C2952 C2953 1.370 . S
C2952 C2954 1.363 . S
C2952 H2968 0.931 . S
C2953 C2952 1.370 . S
C2953 C2957 1.408 . S
C2954 C2952 1.363 . S
C2954 C2955 1.370 . S
C2954 C2958 1.524 . S
C2955 C2947 1.503 . S
C2955 C2954 1.370 . S
C2955 C2956 1.403 . S
C2956 C2955 1.403 . S
C2956 C2957 1.404 . S
C2956 C2959 1.539 . S
C2957 C2953 1.408 . S
C2957 C2956 1.404 . S
C2957 H2969 0.930 . S
C2958 C2954 1.524 . S
C2958 H2970 0.956 . S
C2958 H2971 0.961 . S
C2958 H2972 0.961 . S
C2959 C2956 1.539 . S
C2959 H2973 0.958 . S
C2959 H2974 0.961 . S
C2959 H2975 0.960 . S
H2960 C2944 0.931 . S
H2961 C2949 0.929 . S
H2962 C2950 0.960 . S
H2963 C2950 0.962 . S
H2964 C2950 0.960 . S
H2965 C2951 0.961 . S
H2966 C2951 0.961 . S
H2967 C2951 0.961 . S
H2968 C2952 0.931 . S
H2969 C2957 0.930 . S
H2970 C2958 0.956 . S
H2971 C2958 0.961 . S
H2972 C2958 0.961 . S
H2973 C2959 0.958 . S
H2974 C2959 0.961 . S
H2975 C2959 0.960 . S
C2976 C2977 1.391 . S
C2976 C2978 1.394 . S
C2976 H2992 0.931 . S
C2977 C2976 1.391 . S
C2977 C2981 1.376 . S
C2978 C2976 1.394 . S
C2978 C2979 1.369 . S
C2978 C2982 1.531 . S
C2979 C2978 1.369 . S
C2979 C2980 1.410 . S
C2979 C2987 1.503 . S
C2980 C2979 1.410 . S
C2980 C2981 1.392 . S
C2980 C2983 1.511 . S
C2981 C2977 1.376 . S
C2981 C2980 1.392 . S
C2981 H2993 0.929 . S
C2982 C2978 1.531 . S
C2982 H2994 0.960 . S
C2982 H2995 0.962 . S
C2982 H2996 0.960 . S
C2983 C2980 1.511 . S
C2983 H2997 0.961 . S
C2983 H2998 0.961 . S
C2983 H2999 0.961 . S
C2984 C2985 1.370 . S
C2984 C2986 1.363 . S
C2984 H3000 0.931 . S
C2985 C2984 1.370 . S
C2985 C2989 1.408 . S
C2986 C2984 1.363 . S
C2986 C2987 1.370 . S
C2986 C2990 1.524 . S
C2987 C2979 1.503 . S
C2987 C2986 1.370 . S
C2987 C2988 1.403 . S
C2988 C2987 1.403 . S
C2988 C2989 1.404 . S
C2988 C2991 1.539 . S
C2989 C2985 1.408 . S
C2989 C2988 1.404 . S
C2989 H3001 0.930 . S
C2990 C2986 1.524 . S
C2990 H3002 0.956 . S
C2990 H3003 0.961 . S
C2990 H3004 0.961 . S
C2991 C2988 1.539 . S
C2991 H3005 0.958 . S
C2991 H3006 0.961 . S
C2991 H3007 0.960 . S
H2992 C2976 0.931 . S
H2993 C2981 0.929 . S
H2994 C2982 0.960 . S
H2995 C2982 0.962 . S
H2996 C2982 0.960 . S
H2997 C2983 0.961 . S
H2998 C2983 0.961 . S
H2999 C2983 0.961 . S
H3000 C2984 0.931 . S
H3001 C2989 0.930 . S
H3002 C2990 0.956 . S
H3003 C2990 0.961 . S
H3004 C2990 0.961 . S
H3005 C2991 0.958 . S
H3006 C2991 0.961 . S
H3007 C2991 0.960 . S
C3008 C3009 1.391 . S
C3008 C3010 1.394 . S
C3008 H3024 0.931 . S
C3009 C3008 1.391 . S
C3009 C3013 1.376 . S
C3010 C3008 1.394 . S
C3010 C3011 1.369 . S
C3010 C3014 1.531 . S
C3011 C3010 1.369 . S
C3011 C3012 1.410 . S
C3011 C3019 1.503 . S
C3012 C3011 1.410 . S
C3012 C3013 1.392 . S
C3012 C3015 1.511 . S
C3013 C3009 1.376 . S
C3013 C3012 1.392 . S
C3013 H3025 0.929 . S
C3014 C3010 1.531 . S
C3014 H3026 0.960 . S
C3014 H3027 0.962 . S
C3014 H3028 0.960 . S
C3015 C3012 1.511 . S
C3015 H3029 0.961 . S
C3015 H3030 0.961 . S
C3015 H3031 0.961 . S
C3016 C3017 1.370 . S
C3016 C3018 1.363 . S
C3016 H3032 0.931 . S
C3017 C3016 1.370 . S
C3017 C3021 1.408 . S
C3018 C3016 1.363 . S
C3018 C3019 1.370 . S
C3018 C3022 1.524 . S
C3019 C3011 1.503 . S
C3019 C3018 1.370 . S
C3019 C3020 1.403 . S
C3020 C3019 1.403 . S
C3020 C3021 1.404 . S
C3020 C3023 1.539 . S
C3021 C3017 1.408 . S
C3021 C3020 1.404 . S
C3021 H3033 0.930 . S
C3022 C3018 1.524 . S
C3022 H3034 0.956 . S
C3022 H3035 0.961 . S
C3022 H3036 0.961 . S
C3023 C3020 1.539 . S
C3023 H3037 0.958 . S
C3023 H3038 0.961 . S
C3023 H3039 0.960 . S
H3024 C3008 0.931 . S
H3025 C3013 0.929 . S
H3026 C3014 0.960 . S
H3027 C3014 0.962 . S
H3028 C3014 0.960 . S
H3029 C3015 0.961 . S
H3030 C3015 0.961 . S
H3031 C3015 0.961 . S
H3032 C3016 0.931 . S
H3033 C3021 0.930 . S
H3034 C3022 0.956 . S
H3035 C3022 0.961 . S
H3036 C3022 0.961 . S
H3037 C3023 0.958 . S
H3038 C3023 0.961 . S
H3039 C3023 0.960 . S
C3040 C3041 1.391 . S
C3040 C3042 1.394 1_655 S
C3040 H3056 0.931 . S
C3041 C3040 1.391 . S
C3041 C3045 1.376 . S
C3042 C3040 1.394 1_455 S
C3042 C3043 1.369 1_455 S
C3042 C3046 1.531 . S
C3043 C3042 1.369 1_655 S
C3043 C3044 1.410 . S
C3043 C3051 1.503 1_655 S
C3044 C3043 1.410 . S
C3044 C3045 1.392 . S
C3044 C3047 1.511 . S
C3045 C3041 1.376 . S
C3045 C3044 1.392 . S
C3045 H3057 0.929 . S
C3046 C3042 1.531 . S
C3046 H3058 0.960 . S
C3046 H3059 0.962 . S
C3046 H3060 0.960 . S
C3047 C3044 1.511 . S
C3047 H3061 0.961 . S
C3047 H3062 0.961 . S
C3047 H3063 0.961 . S
C3048 C3049 1.370 . S
C3048 C3050 1.363 . S
C3048 H3064 0.931 . S
C3049 C3048 1.370 . S
C3049 C3053 1.408 . S
C3050 C3048 1.363 . S
C3050 C3051 1.370 . S
C3050 C3054 1.534 . S
C3051 C3043 1.503 1_455 S
C3051 C3050 1.370 . S
C3051 C3052 1.403 . S
C3052 C3051 1.403 . S
C3052 C3053 1.404 . S
C3052 C3055 1.539 . S
C3053 C3049 1.408 . S
C3053 C3052 1.404 . S
C3053 H3065 0.930 . S
C3054 C3050 1.534 . S
C3054 H3066 0.963 . S
C3054 H3067 0.940 1_455 S
C3054 H3068 0.965 . S
C3055 C3052 1.539 . S
C3055 H3069 0.958 . S
C3055 H3070 0.961 . S
C3055 H3071 0.961 1_455 S
H3056 C3040 0.931 . S
H3057 C3045 0.929 . S
H3058 C3046 0.960 . S
H3059 C3046 0.962 . S
H3060 C3046 0.960 . S
H3061 C3047 0.961 . S
H3062 C3047 0.961 . S
H3063 C3047 0.961 . S
H3064 C3048 0.931 . S
H3065 C3053 0.930 . S
H3066 C3054 0.963 . S
H3067 C3054 0.940 1_655 S
H3068 C3054 0.965 . S
H3069 C3055 0.958 . S
H3070 C3055 0.961 . S
H3071 C3055 0.961 1_655 S
C3072 C3073 1.391 . S
C3072 C3074 1.394 . S
C3072 H3088 0.931 . S
C3073 C3072 1.391 . S
C3073 C3077 1.376 . S
C3074 C3072 1.394 . S
C3074 C3075 1.369 . S
C3074 C3078 1.531 . S
C3075 C3074 1.369 . S
C3075 C3076 1.410 . S
C3075 C3083 1.503 1_655 S
C3076 C3075 1.410 . S
C3076 C3077 1.392 . S
C3076 C3079 1.511 1_655 S
C3077 C3073 1.376 . S
C3077 C3076 1.392 . S
C3077 H3089 0.929 . S
C3078 C3074 1.531 . S
C3078 H3090 0.960 . S
C3078 H3091 0.962 . S
C3078 H3092 0.960 . S
C3079 C3076 1.511 1_455 S
C3079 H3093 0.961 . S
C3079 H3094 0.961 . S
C3079 H3095 0.961 . S
C3080 C3081 1.370 . S
C3080 C3082 1.363 . S
C3080 H3096 0.931 . S
C3081 C3080 1.370 . S
C3081 C3085 1.408 . S
C3082 C3080 1.363 . S
C3082 C3083 1.370 . S
C3082 C3086 1.524 1_455 S
C3083 C3075 1.503 1_455 S
C3083 C3082 1.370 . S
C3083 C3084 1.403 . S
C3084 C3083 1.403 . S
C3084 C3085 1.404 . S
C3084 C3087 1.539 . S
C3085 C3081 1.408 . S
C3085 C3084 1.404 . S
C3085 H3097 0.930 . S
C3086 C3082 1.524 1_655 S
C3086 H3098 0.956 . S
C3086 H3099 0.961 . S
C3086 H3100 0.961 . S
C3087 C3084 1.539 . S
C3087 H3101 0.958 . S
C3087 H3102 0.961 . S
C3087 H3103 0.960 . S
H3088 C3072 0.931 . S
H3089 C3077 0.929 . S
H3090 C3078 0.960 . S
H3091 C3078 0.962 . S
H3092 C3078 0.960 . S
H3093 C3079 0.961 . S
H3094 C3079 0.961 . S
H3095 C3079 0.961 . S
H3096 C3080 0.931 . S
H3097 C3085 0.930 . S
H3098 C3086 0.956 . S
H3099 C3086 0.961 . S
H3100 C3086 0.961 . S
H3101 C3087 0.958 . S
H3102 C3087 0.961 . S
H3103 C3087 0.960 . S
C3104 C3105 1.391 . S
C3104 C3106 1.394 . S
C3104 H3120 0.931 . S
C3105 C3104 1.391 . S
C3105 C3109 1.376 . S
C3106 C3104 1.394 . S
C3106 C3107 1.369 . S
C3106 C3110 1.531 . S
C3107 C3106 1.369 . S
C3107 C3108 1.410 . S
C3107 C3115 1.503 1_565 S
C3108 C3107 1.410 . S
C3108 C3109 1.392 . S
C3108 C3111 1.511 1_565 S
C3109 C3105 1.376 . S
C3109 C3108 1.392 . S
C3109 H3121 0.929 . S
C3110 C3106 1.531 . S
C3110 H3122 0.960 . S
C3110 H3123 0.962 . S
C3110 H3124 0.960 . S
C3111 C3108 1.511 1_545 S
C3111 H3125 0.961 . S
C3111 H3126 0.961 . S
C3111 H3127 0.961 1_545 S
C3112 C3113 1.370 . S
C3112 C3114 1.363 . S
C3112 H3128 0.931 . S
C3113 C3112 1.370 . S
C3113 C3117 1.408 . S
C3114 C3112 1.363 . S
C3114 C3115 1.370 . S
C3114 C3118 1.524 . S
C3115 C3107 1.503 1_545 S
C3115 C3114 1.370 . S
C3115 C3116 1.403 1_545 S
C3116 C3115 1.403 1_565 S
C3116 C3117 1.404 1_565 S
C3116 C3119 1.539 . S
C3117 C3113 1.408 . S
C3117 C3116 1.404 1_545 S
C3117 H3129 0.930 . S
C3118 C3114 1.524 . S
C3118 H3130 0.956 . S
C3118 H3131 0.961 . S
C3118 H3132 0.961 . S
C3119 C3116 1.539 . S
C3119 H3133 0.958 . S
C3119 H3134 0.961 . S
C3119 H3135 0.960 . S
H3120 C3104 0.931 . S
H3121 C3109 0.929 . S
H3122 C3110 0.960 . S
H3123 C3110 0.962 . S
H3124 C3110 0.960 . S
H3125 C3111 0.961 . S
H3126 C3111 0.961 . S
H3127 C3111 0.961 1_565 S
H3128 C3112 0.931 . S
H3129 C3117 0.930 . S
H3130 C3118 0.956 . S
H3131 C3118 0.961 . S
H3132 C3118 0.961 . S
H3133 C3119 0.958 . S
H3134 C3119 0.961 . S
H3135 C3119 0.960 . S
C3136 C3137 1.391 . S
C3136 C3138 1.394 . S
C3136 H3152 0.931 . S
C3137 C3136 1.391 . S
C3137 C3141 1.376 . S
C3138 C3136 1.394 . S
C3138 C3139 1.369 . S
C3138 C3142 1.531 . S
C3139 C3138 1.369 . S
C3139 C3140 1.410 . S
C3139 C3147 1.503 . S
C3140 C3139 1.410 . S
C3140 C3141 1.392 . S
C3140 C3143 1.511 . S
C3141 C3137 1.376 . S
C3141 C3140 1.392 . S
C3141 H3153 0.929 . S
C3142 C3138 1.531 . S
C3142 H3154 0.960 . S
C3142 H3155 0.962 . S
C3142 H3156 0.960 . S
C3143 C3140 1.511 . S
C3143 H3157 0.961 . S
C3143 H3158 0.961 . S
C3143 H3159 0.961 . S
C3144 C3145 1.370 . S
C3144 C3146 1.363 . S
C3144 H3160 0.931 . S
C3145 C3144 1.370 . S
C3145 C3149 1.408 . S
C3146 C3144 1.363 . S
C3146 C3147 1.370 . S
C3146 C3150 1.524 . S
C3147 C3139 1.503 . S
C3147 C3146 1.370 . S
C3147 C3148 1.403 . S
C3148 C3147 1.403 . S
C3148 C3149 1.404 . S
C3148 C3151 1.539 . S
C3149 C3145 1.408 . S
C3149 C3148 1.404 . S
C3149 H3161 0.930 . S
C3150 C3146 1.524 . S
C3150 H3162 0.956 . S
C3150 H3163 0.961 . S
C3150 H3164 0.961 . S
C3151 C3148 1.539 . S
C3151 H3165 0.958 . S
C3151 H3166 0.961 . S
C3151 H3167 0.960 . S
H3152 C3136 0.931 . S
H3153 C3141 0.929 . S
H3154 C3142 0.960 . S
H3155 C3142 0.962 . S
H3156 C3142 0.960 . S
H3157 C3143 0.961 . S
H3158 C3143 0.961 . S
H3159 C3143 0.961 . S
H3160 C3144 0.931 . S
H3161 C3149 0.930 . S
H3162 C3150 0.956 . S
H3163 C3150 0.961 . S
H3164 C3150 0.961 . S
H3165 C3151 0.958 . S
H3166 C3151 0.961 . S
H3167 C3151 0.960 . S
C3168 C3169 1.391 . S
C3168 C3170 1.394 . S
C3168 H3184 0.931 . S
C3169 C3168 1.391 . S
C3169 C3173 1.376 . S
C3170 C3168 1.394 . S
C3170 C3171 1.369 . S
C3170 C3174 1.531 . S
C3171 C3170 1.369 . S
C3171 C3172 1.410 . S
C3171 C3179 1.503 1_565 S
C3172 C3171 1.410 . S
C3172 C3173 1.392 . S
C3172 C3175 1.511 . S
C3173 C3169 1.376 . S
C3173 C3172 1.392 . S
C3173 H3185 0.929 . S
C3174 C3170 1.531 . S
C3174 H3186 0.960 . S
C3174 H3187 0.962 1_565 S
C3174 H3188 0.960 . S
C3175 C3172 1.511 . S
C3175 H3189 0.961 . S
C3175 H3190 0.961 . S
C3175 H3191 0.961 . S
C3176 C3177 1.370 . S
C3176 C3178 1.363 . S
C3176 H3192 0.931 . S
C3177 C3176 1.370 . S
C3177 C3181 1.408 . S
C3178 C3176 1.363 . S
C3178 C3179 1.370 . S
C3178 C3182 1.524 . S
C3179 C3171 1.503 1_545 S
C3179 C3178 1.370 . S
C3179 C3180 1.403 1_545 S
C3180 C3179 1.403 1_565 S
C3180 C3181 1.404 1_565 S
C3180 C3183 1.539 . S
C3181 C3177 1.408 . S
C3181 C3180 1.404 1_545 S
C3181 H3193 0.930 . S
C3182 C3178 1.524 . S
C3182 H3194 0.956 . S
C3182 H3195 0.961 . S
C3182 H3196 0.961 . S
C3183 C3180 1.539 . S
C3183 H3197 0.958 . S
C3183 H3198 0.961 . S
C3183 H3199 0.960 . S
H3184 C3168 0.931 . S
H3185 C3173 0.929 . S
H3186 C3174 0.960 . S
H3187 C3174 0.962 1_545 S
H3188 C3174 0.960 . S
H3189 C3175 0.961 . S
H3190 C3175 0.961 . S
H3191 C3175 0.961 . S
H3192 C3176 0.931 . S
H3193 C3181 0.930 . S
H3194 C3182 0.956 . S
H3195 C3182 0.961 . S
H3196 C3182 0.961 . S
H3197 C3183 0.958 . S
H3198 C3183 0.961 . S
H3199 C3183 0.960 . S
C3200 C3201 1.391 . S
C3200 C3202 1.394 . S
C3200 H3216 0.931 . S
C3201 C3200 1.391 . S
C3201 C3205 1.376 . S
C3202 C3200 1.394 . S
C3202 C3203 1.369 . S
C3202 C3206 1.531 1_554 S
C3203 C3202 1.369 . S
C3203 C3204 1.410 . S
C3203 C3211 1.503 1_554 S
C3204 C3203 1.410 . S
C3204 C3205 1.392 . S
C3204 C3207 1.511 . S
C3205 C3201 1.376 . S
C3205 C3204 1.392 . S
C3205 H3217 0.929 . S
C3206 C3202 1.531 1_556 S
C3206 H3218 0.960 . S
C3206 H3219 0.962 . S
C3206 H3220 0.960 . S
C3207 C3204 1.511 . S
C3207 H3221 0.961 . S
C3207 H3222 0.961 . S
C3207 H3223 0.961 . S
C3208 C3209 1.370 . S
C3208 C3210 1.363 . S
C3208 H3224 0.931 . S
C3209 C3208 1.370 . S
C3209 C3213 1.408 . S
C3210 C3208 1.363 . S
C3210 C3211 1.370 . S
C3210 C3214 1.524 . S
C3211 C3203 1.503 1_556 S
C3211 C3210 1.370 . S
C3211 C3212 1.403 . S
C3212 C3211 1.403 . S
C3212 C3213 1.404 . S
C3212 C3215 1.539 1_556 S
C3213 C3209 1.408 . S
C3213 C3212 1.404 . S
C3213 H3225 0.930 . S
C3214 C3210 1.524 . S
C3214 H3226 0.956 . S
C3214 H3227 0.961 . S
C3214 H3228 0.961 . S
C3215 C3212 1.539 1_554 S
C3215 H3229 0.958 . S
C3215 H3230 0.961 . S
C3215 H3231 0.960 . S
H3216 C3200 0.931 . S
H3217 C3205 0.929 . S
H3218 C3206 0.960 . S
H3219 C3206 0.962 . S
H3220 C3206 0.960 . S
H3221 C3207 0.961 . S
H3222 C3207 0.961 . S
H3223 C3207 0.961 . S
H3224 C3208 0.931 . S
H3225 C3213 0.930 . S
H3226 C3214 0.956 . S
H3227 C3214 0.961 . S
H3228 C3214 0.961 . S
H3229 C3215 0.958 . S
H3230 C3215 0.961 . S
H3231 C3215 0.960 . S
C3232 C3233 1.391 . S
C3232 C3234 1.394 . S
C3232 H3248 0.931 . S
C3233 C3232 1.391 . S
C3233 C3237 1.376 . S
C3234 C3232 1.394 . S
C3234 C3235 1.369 . S
C3234 C3238 1.531 . S
C3235 C3234 1.369 . S
C3235 C3236 1.410 . S
C3235 C3243 1.503 1_565 S
C3236 C3235 1.410 . S
C3236 C3237 1.392 . S
C3236 C3239 1.511 1_565 S
C3237 C3233 1.376 . S
C3237 C3236 1.392 . S
C3237 H3249 0.929 . S
C3238 C3234 1.531 . S
C3238 H3250 0.960 . S
C3238 H3251 0.962 . S
C3238 H3252 0.960 . S
C3239 C3236 1.511 1_545 S
C3239 H3253 0.961 . S
C3239 H3254 0.961 . S
C3239 H3255 0.961 1_545 S
C3240 C3241 1.370 . S
C3240 C3242 1.363 . S
C3240 H3256 0.931 . S
C3241 C3240 1.370 . S
C3241 C3245 1.408 . S
C3242 C3240 1.363 . S
C3242 C3243 1.370 . S
C3242 C3246 1.524 . S
C3243 C3235 1.503 1_545 S
C3243 C3242 1.370 . S
C3243 C3244 1.403 1_545 S
C3244 C3243 1.403 1_565 S
C3244 C3245 1.404 1_565 S
C3244 C3247 1.539 . S
C3245 C3241 1.408 . S
C3245 C3244 1.404 1_545 S
C3245 H3257 0.930 . S
C3246 C3242 1.524 . S
C3246 H3258 0.956 . S
C3246 H3259 0.961 . S
C3246 H3260 0.961 . S
C3247 C3244 1.539 . S
C3247 H3261 0.958 . S
C3247 H3262 0.961 . S
C3247 H3263 0.960 . S
H3248 C3232 0.931 . S
H3249 C3237 0.929 . S
H3250 C3238 0.960 . S
H3251 C3238 0.962 . S
H3252 C3238 0.960 . S
H3253 C3239 0.961 . S
H3254 C3239 0.961 . S
H3255 C3239 0.961 1_565 S
H3256 C3240 0.931 . S
H3257 C3245 0.930 . S
H3258 C3246 0.956 . S
H3259 C3246 0.961 . S
H3260 C3246 0.961 . S
H3261 C3247 0.958 . S
H3262 C3247 0.961 . S
H3263 C3247 0.960 . S
C3264 C3265 1.391 . S
C3264 C3266 1.394 . S
C3264 H3280 0.931 . S
C3265 C3264 1.391 . S
C3265 C3269 1.376 . S
C3266 C3264 1.394 . S
C3266 C3267 1.369 . S
C3266 C3270 1.531 . S
C3267 C3266 1.369 . S
C3267 C3268 1.410 . S
C3267 C3275 1.503 . S
C3268 C3267 1.410 . S
C3268 C3269 1.392 . S
C3268 C3271 1.511 . S
C3269 C3265 1.376 . S
C3269 C3268 1.392 . S
C3269 H3281 0.929 . S
C3270 C3266 1.531 . S
C3270 H3282 0.960 . S
C3270 H3283 0.962 . S
C3270 H3284 0.960 . S
C3271 C3268 1.511 . S
C3271 H3285 0.961 . S
C3271 H3286 0.961 . S
C3271 H3287 0.961 . S
C3272 C3273 1.370 . S
C3272 C3274 1.363 . S
C3272 H3288 0.931 . S
C3273 C3272 1.370 . S
C3273 C3277 1.408 . S
C3274 C3272 1.363 . S
C3274 C3275 1.370 . S
C3274 C3278 1.524 . S
C3275 C3267 1.503 . S
C3275 C3274 1.370 . S
C3275 C3276 1.403 . S
C3276 C3275 1.403 . S
C3276 C3277 1.404 . S
C3276 C3279 1.539 . S
C3277 C3273 1.408 . S
C3277 C3276 1.404 . S
C3277 H3289 0.930 . S
C3278 C3274 1.524 . S
C3278 H3290 0.956 . S
C3278 H3291 0.961 . S
C3278 H3292 0.961 . S
C3279 C3276 1.539 . S
C3279 H3293 0.958 . S
C3279 H3294 0.961 . S
C3279 H3295 0.960 . S
H3280 C3264 0.931 . S
H3281 C3269 0.929 . S
H3282 C3270 0.960 . S
H3283 C3270 0.962 . S
H3284 C3270 0.960 . S
H3285 C3271 0.961 . S
H3286 C3271 0.961 . S
H3287 C3271 0.961 . S
H3288 C3272 0.931 . S
H3289 C3277 0.930 . S
H3290 C3278 0.956 . S
H3291 C3278 0.961 . S
H3292 C3278 0.961 . S
H3293 C3279 0.958 . S
H3294 C3279 0.961 . S
H3295 C3279 0.960 . S
C3296 C3297 1.391 . S
C3296 C3298 1.370 1_545 S
C3296 H3312 0.931 . S
C3297 C3296 1.391 . S
C3297 C3301 1.376 . S
C3298 C3296 1.370 1_565 S
C3298 C3299 1.360 1_565 S
C3298 C3302 1.564 . S
C3299 C3298 1.360 1_545 S
C3299 C3300 1.410 . S
C3299 C3307 1.503 1_545 S
C3300 C3299 1.410 . S
C3300 C3301 1.392 . S
C3300 C3303 1.511 . S
C3301 C3297 1.376 . S
C3301 C3300 1.392 . S
C3301 H3313 0.929 . S
C3302 C3298 1.564 . S
C3302 H3314 0.960 . S
C3302 H3315 0.962 . S
C3302 H3316 0.960 . S
C3303 C3300 1.511 . S
C3303 H3317 0.961 . S
C3303 H3318 0.961 . S
C3303 H3319 0.961 . S
C3304 C3305 1.370 . S
C3304 C3306 1.363 . S
C3304 H3320 0.931 . S
C3305 C3304 1.370 . S
C3305 C3309 1.408 . S
C3306 C3304 1.363 . S
C3306 C3307 1.370 . S
C3306 C3310 1.524 1_565 S
C3307 C3299 1.503 1_565 S
C3307 C3306 1.370 . S
C3307 C3308 1.403 . S
C3308 C3307 1.403 . S
C3308 C3309 1.404 . S
C3308 C3311 1.539 . S
C3309 C3305 1.408 . S
C3309 C3308 1.404 . S
C3309 H3321 0.930 . S
C3310 C3306 1.524 1_545 S
C3310 H3322 0.956 . S
C3310 H3323 0.961 . S
C3310 H3324 0.961 . S
C3311 C3308 1.539 . S
C3311 H3325 0.958 . S
C3311 H3326 0.961 . S
C3311 H3327 0.960 . S
H3312 C3296 0.931 . S
H3313 C3301 0.929 . S
H3314 C3302 0.960 . S
H3315 C3302 0.962 . S
H3316 C3302 0.960 . S
H3317 C3303 0.961 . S
H3318 C3303 0.961 . S
H3319 C3303 0.961 . S
H3320 C3304 0.931 . S
H3321 C3309 0.930 . S
H3322 C3310 0.956 . S
H3323 C3310 0.961 . S
H3324 C3310 0.961 . S
H3325 C3311 0.958 . S
H3326 C3311 0.961 . S
H3327 C3311 0.960 . S
C3328 C3329 1.391 . S
C3328 C3330 1.394 . S
C3328 H3344 0.931 . S
C3329 C3328 1.391 . S
C3329 C3333 1.376 . S
C3330 C3328 1.394 . S
C3330 C3331 1.369 . S
C3330 C3334 1.531 1_556 S
C3331 C3330 1.369 . S
C3331 C3332 1.410 . S
C3331 C3339 1.503 1_556 S
C3332 C3331 1.410 . S
C3332 C3333 1.392 . S
C3332 C3335 1.511 . S
C3333 C3329 1.376 . S
C3333 C3332 1.392 . S
C3333 H3345 0.929 . S
C3334 C3330 1.531 1_554 S
C3334 H3346 0.960 . S
C3334 H3347 0.962 . S
C3334 H3348 0.960 . S
C3335 C3332 1.511 . S
C3335 H3349 0.961 . S
C3335 H3350 0.961 . S
C3335 H3351 0.961 . S
C3336 C3337 1.370 . S
C3336 C3338 1.363 . S
C3336 H3352 0.931 . S
C3337 C3336 1.370 . S
C3337 C3341 1.408 . S
C3338 C3336 1.363 . S
C3338 C3339 1.370 . S
C3338 C3342 1.524 . S
C3339 C3331 1.503 1_554 S
C3339 C3338 1.370 . S
C3339 C3340 1.403 . S
C3340 C3339 1.403 . S
C3340 C3341 1.404 . S
C3340 C3343 1.539 1_554 S
C3341 C3337 1.408 . S
C3341 C3340 1.404 . S
C3341 H3353 0.930 . S
C3342 C3338 1.524 . S
C3342 H3354 0.956 . S
C3342 H3355 0.961 . S
C3342 H3356 0.961 . S
C3343 C3340 1.539 1_556 S
C3343 H3357 0.958 . S
C3343 H3358 0.961 . S
C3343 H3359 0.960 . S
H3344 C3328 0.931 . S
H3345 C3333 0.929 . S
H3346 C3334 0.960 . S
H3347 C3334 0.962 . S
H3348 C3334 0.960 . S
H3349 C3335 0.961 . S
H3350 C3335 0.961 . S
H3351 C3335 0.961 . S
H3352 C3336 0.931 . S
H3353 C3341 0.930 . S
H3354 C3342 0.956 . S
H3355 C3342 0.961 . S
H3356 C3342 0.961 . S
H3357 C3343 0.958 . S
H3358 C3343 0.961 . S
H3359 C3343 0.960 . S
C3360 C3361 1.391 . S
C3360 C3362 1.394 . S
C3360 H3376 0.931 . S
C3361 C3360 1.391 . S
C3361 C3365 1.376 . S
C3362 C3360 1.394 . S
C3362 C3363 1.369 . S
C3362 C3366 1.531 . S
C3363 C3362 1.369 . S
C3363 C3364 1.410 . S
C3363 C3371 1.503 . S
C3364 C3363 1.410 . S
C3364 C3365 1.392 . S
C3364 C3367 1.511 . S
C3365 C3361 1.376 . S
C3365 C3364 1.392 . S
C3365 H3377 0.929 . S
C3366 C3362 1.531 . S
C3366 H3378 0.960 . S
C3366 H3379 0.962 . S
C3366 H3380 0.960 . S
C3367 C3364 1.511 . S
C3367 H3381 0.961 . S
C3367 H3382 0.961 . S
C3367 H3383 0.961 . S
C3368 C3369 1.370 . S
C3368 C3370 1.363 . S
C3368 H3384 0.931 . S
C3369 C3368 1.370 . S
C3369 C3373 1.408 . S
C3370 C3368 1.363 . S
C3370 C3371 1.370 . S
C3370 C3374 1.524 . S
C3371 C3363 1.503 . S
C3371 C3370 1.370 . S
C3371 C3372 1.403 . S
C3372 C3371 1.403 . S
C3372 C3373 1.404 . S
C3372 C3375 1.539 . S
C3373 C3369 1.408 . S
C3373 C3372 1.404 . S
C3373 H3385 0.930 . S
C3374 C3370 1.524 . S
C3374 H3386 0.956 . S
C3374 H3387 0.961 . S
C3374 H3388 0.961 . S
C3375 C3372 1.539 . S
C3375 H3389 0.958 . S
C3375 H3390 0.961 . S
C3375 H3391 0.960 . S
H3376 C3360 0.931 . S
H3377 C3365 0.929 . S
H3378 C3366 0.960 . S
H3379 C3366 0.962 . S
H3380 C3366 0.960 . S
H3381 C3367 0.961 . S
H3382 C3367 0.961 . S
H3383 C3367 0.961 . S
H3384 C3368 0.931 . S
H3385 C3373 0.930 . S
H3386 C3374 0.956 . S
H3387 C3374 0.961 . S
H3388 C3374 0.961 . S
H3389 C3375 0.958 . S
H3390 C3375 0.961 . S
H3391 C3375 0.960 . S
C3392 C3393 1.391 . S
C3392 C3394 1.394 . S
C3392 H3408 0.931 . S
C3393 C3392 1.391 . S
C3393 C3397 1.376 . S
C3394 C3392 1.394 . S
C3394 C3395 1.369 . S
C3394 C3398 1.531 1_554 S
C3395 C3394 1.369 . S
C3395 C3396 1.410 . S
C3395 C3403 1.503 1_554 S
C3396 C3395 1.410 . S
C3396 C3397 1.392 . S
C3396 C3399 1.511 . S
C3397 C3393 1.376 . S
C3397 C3396 1.392 . S
C3397 H3409 0.929 . S
C3398 C3394 1.531 1_556 S
C3398 H3410 0.960 . S
C3398 H3411 0.962 . S
C3398 H3412 0.960 . S
C3399 C3396 1.511 . S
C3399 H3413 0.961 . S
C3399 H3414 0.961 . S
C3399 H3415 0.961 . S
C3400 C3401 1.370 . S
C3400 C3402 1.363 . S
C3400 H3416 0.931 . S
C3401 C3400 1.370 . S
C3401 C3405 1.408 . S
C3402 C3400 1.363 . S
C3402 C3403 1.370 . S
C3402 C3406 1.524 . S
C3403 C3395 1.503 1_556 S
C3403 C3402 1.370 . S
C3403 C3404 1.403 . S
C3404 C3403 1.403 . S
C3404 C3405 1.404 . S
C3404 C3407 1.539 . S
C3405 C3401 1.408 . S
C3405 C3404 1.404 . S
C3405 H3417 0.930 . S
C3406 C3402 1.524 . S
C3406 H3418 0.956 . S
C3406 H3419 0.961 1_556 S
C3406 H3420 0.961 . S
C3407 C3404 1.539 . S
C3407 H3421 0.958 . S
C3407 H3422 0.961 . S
C3407 H3423 0.960 1_556 S
H3408 C3392 0.931 . S
H3409 C3397 0.929 . S
H3410 C3398 0.960 . S
H3411 C3398 0.962 . S
H3412 C3398 0.960 . S
H3413 C3399 0.961 . S
H3414 C3399 0.961 . S
H3415 C3399 0.961 . S
H3416 C3400 0.931 . S
H3417 C3405 0.930 . S
H3418 C3406 0.956 . S
H3419 C3406 0.961 1_554 S
H3420 C3406 0.961 . S
H3421 C3407 0.958 . S
H3422 C3407 0.961 . S
H3423 C3407 0.960 1_554 S
C3424 C3425 1.391 . S
C3424 C3426 1.394 . S
C3424 H3440 0.931 . S
C3425 C3424 1.391 . S
C3425 C3429 1.376 . S
C3426 C3424 1.394 . S
C3426 C3427 1.369 . S
C3426 C3430 1.531 . S
C3427 C3426 1.369 . S
C3427 C3428 1.410 . S
C3427 C3435 1.503 . S
C3428 C3427 1.410 . S
C3428 C3429 1.392 . S
C3428 C3431 1.511 . S
C3429 C3425 1.376 . S
C3429 C3428 1.392 . S
C3429 H3441 0.929 . S
C3430 C3426 1.531 . S
C3430 H3442 0.960 . S
C3430 H3443 0.962 . S
C3430 H3444 0.960 . S
C3431 C3428 1.511 . S
C3431 H3445 0.961 . S
C3431 H3446 0.961 . S
C3431 H3447 0.961 . S
C3432 C3433 1.370 . S
C3432 C3434 1.363 . S
C3432 H3448 0.931 . S
C3433 C3432 1.370 . S
C3433 C3437 1.408 . S
C3434 C3432 1.363 . S
C3434 C3435 1.370 . S
C3434 C3438 1.524 . S
C3435 C3427 1.503 . S
C3435 C3434 1.370 . S
C3435 C3436 1.403 . S
C3436 C3435 1.403 . S
C3436 C3437 1.404 . S
C3436 C3439 1.539 . S
C3437 C3433 1.408 . S
C3437 C3436 1.404 . S
C3437 H3449 0.930 . S
C3438 C3434 1.524 . S
C3438 H3450 0.956 . S
C3438 H3451 0.961 . S
C3438 H3452 0.961 . S
C3439 C3436 1.539 . S
C3439 H3453 0.958 . S
C3439 H3454 0.961 . S
C3439 H3455 0.960 . S
H3440 C3424 0.931 . S
H3441 C3429 0.929 . S
H3442 C3430 0.960 . S
H3443 C3430 0.962 . S
H3444 C3430 0.960 . S
H3445 C3431 0.961 . S
H3446 C3431 0.961 . S
H3447 C3431 0.961 . S
H3448 C3432 0.931 . S
H3449 C3437 0.930 . S
H3450 C3438 0.956 . S
H3451 C3438 0.961 . S
H3452 C3438 0.961 . S
H3453 C3439 0.958 . S
H3454 C3439 0.961 . S
H3455 C3439 0.960 . S
C3456 C3457 1.391 . S
C3456 C3458 1.394 . S
C3456 H3472 0.931 . S
C3457 C3456 1.391 . S
C3457 C3461 1.376 . S
C3458 C3456 1.394 . S
C3458 C3459 1.369 . S
C3458 C3462 1.531 . S
C3459 C3458 1.369 . S
C3459 C3460 1.410 . S
C3459 C3467 1.503 . S
C3460 C3459 1.410 . S
C3460 C3461 1.392 . S
C3460 C3463 1.511 . S
C3461 C3457 1.376 . S
C3461 C3460 1.392 . S
C3461 H3473 0.929 . S
C3462 C3458 1.531 . S
C3462 H3474 0.960 . S
C3462 H3475 0.962 . S
C3462 H3476 0.960 . S
C3463 C3460 1.511 . S
C3463 H3477 0.961 . S
C3463 H3478 0.961 . S
C3463 H3479 0.961 . S
C3464 C3465 1.370 . S
C3464 C3466 1.363 . S
C3464 H3480 0.931 . S
C3465 C3464 1.370 . S
C3465 C3469 1.408 . S
C3466 C3464 1.363 . S
C3466 C3467 1.370 . S
C3466 C3470 1.524 . S
C3467 C3459 1.503 . S
C3467 C3466 1.370 . S
C3467 C3468 1.403 . S
C3468 C3467 1.403 . S
C3468 C3469 1.404 . S
C3468 C3471 1.539 . S
C3469 C3465 1.408 . S
C3469 C3468 1.404 . S
C3469 H3481 0.930 . S
C3470 C3466 1.524 . S
C3470 H3482 0.956 . S
C3470 H3483 0.961 . S
C3470 H3484 0.961 . S
C3471 C3468 1.539 . S
C3471 H3485 0.958 . S
C3471 H3486 0.961 . S
C3471 H3487 0.960 . S
H3472 C3456 0.931 . S
H3473 C3461 0.929 . S
H3474 C3462 0.960 . S
H3475 C3462 0.962 . S
H3476 C3462 0.960 . S
H3477 C3463 0.961 . S
H3478 C3463 0.961 . S
H3479 C3463 0.961 . S
H3480 C3464 0.931 . S
H3481 C3469 0.930 . S
H3482 C3470 0.956 . S
H3483 C3470 0.961 . S
H3484 C3470 0.961 . S
H3485 C3471 0.958 . S
H3486 C3471 0.961 . S
H3487 C3471 0.960 . S
C3488 C3489 1.391 . S
C3488 C3490 1.394 . S
C3488 H3504 0.931 . S
C3489 C3488 1.391 . S
C3489 C3493 1.376 . S
C3490 C3488 1.394 . S
C3490 C3491 1.369 . S
C3490 C3494 1.531 . S
C3491 C3490 1.369 . S
C3491 C3492 1.410 . S
C3491 C3499 1.503 . S
C3492 C3491 1.410 . S
C3492 C3493 1.392 . S
C3492 C3495 1.511 . S
C3493 C3489 1.376 . S
C3493 C3492 1.392 . S
C3493 H3505 0.929 . S
C3494 C3490 1.531 . S
C3494 H3506 0.960 . S
C3494 H3507 0.962 . S
C3494 H3508 0.960 . S
C3495 C3492 1.511 . S
C3495 H3509 0.961 . S
C3495 H3510 0.961 . S
C3495 H3511 0.961 . S
C3496 C3497 1.370 . S
C3496 C3498 1.363 . S
C3496 H3512 0.931 . S
C3497 C3496 1.370 . S
C3497 C3501 1.408 . S
C3498 C3496 1.363 . S
C3498 C3499 1.370 . S
C3498 C3502 1.524 . S
C3499 C3491 1.503 . S
C3499 C3498 1.370 . S
C3499 C3500 1.403 . S
C3500 C3499 1.403 . S
C3500 C3501 1.404 . S
C3500 C3503 1.539 . S
C3501 C3497 1.408 . S
C3501 C3500 1.404 . S
C3501 H3513 0.930 . S
C3502 C3498 1.524 . S
C3502 H3514 0.956 . S
C3502 H3515 0.961 . S
C3502 H3516 0.961 . S
C3503 C3500 1.539 . S
C3503 H3517 0.958 . S
C3503 H3518 0.961 . S
C3503 H3519 0.960 . S
H3504 C3488 0.931 . S
H3505 C3493 0.929 . S
H3506 C3494 0.960 . S
H3507 C3494 0.962 . S
H3508 C3494 0.960 . S
H3509 C3495 0.961 . S
H3510 C3495 0.961 . S
H3511 C3495 0.961 . S
H3512 C3496 0.931 . S
H3513 C3501 0.930 . S
H3514 C3502 0.956 . S
H3515 C3502 0.961 . S
H3516 C3502 0.961 . S
H3517 C3503 0.958 . S
H3518 C3503 0.961 . S
H3519 C3503 0.960 . S
C3520 C3521 1.391 . S
C3520 C3522 1.394 . S
C3520 H3536 0.931 . S
C3521 C3520 1.391 . S
C3521 C3525 1.376 . S
C3522 C3520 1.394 . S
C3522 C3523 1.369 . S
C3522 C3526 1.531 1_554 S
C3523 C3522 1.369 . S
C3523 C3524 1.410 . S
C3523 C3531 1.503 1_554 S
C3524 C3523 1.410 . S
C3524 C3525 1.392 . S
C3524 C3527 1.511 . S
C3525 C3521 1.376 . S
C3525 C3524 1.392 . S
C3525 H3537 0.929 . S
C3526 C3522 1.531 1_556 S
C3526 H3538 0.960 . S
C3526 H3539 0.962 . S
C3526 H3540 0.960 . S
C3527 C3524 1.511 . S
C3527 H3541 0.961 . S
C3527 H3542 0.961 . S
C3527 H3543 0.961 . S
C3528 C3529 1.370 . S
C3528 C3530 1.363 . S
C3528 H3544 0.931 . S
C3529 C3528 1.370 . S
C3529 C3533 1.408 . S
C3530 C3528 1.363 . S
C3530 C3531 1.370 . S
C3530 C3534 1.524 1_556 S
C3531 C3523 1.503 1_556 S
C3531 C3530 1.370 . S
C3531 C3532 1.403 . S
C3532 C3531 1.403 . S
C3532 C3533 1.404 . S
C3532 C3535 1.539 . S
C3533 C3529 1.408 . S
C3533 C3532 1.404 . S
C3533 H3545 0.930 . S
C3534 C3530 1.524 1_554 S
C3534 H3546 0.956 . S
C3534 H3547 0.961 . S
C3534 H3548 0.961 . S
C3535 C3532 1.539 . S
C3535 H3549 0.958 . S
C3535 H3550 0.961 . S
C3535 H3551 0.960 . S
H3536 C3520 0.931 . S
H3537 C3525 0.929 . S
H3538 C3526 0.960 . S
H3539 C3526 0.962 . S
H3540 C3526 0.960 . S
H3541 C3527 0.961 . S
H3542 C3527 0.961 . S
H3543 C3527 0.961 . S
H3544 C3528 0.931 . S
H3545 C3533 0.930 . S
H3546 C3534 0.956 . S
H3547 C3534 0.961 . S
H3548 C3534 0.961 . S
H3549 C3535 0.958 . S
H3550 C3535 0.961 . S
H3551 C3535 0.960 . S
C3552 C3553 1.391 . S
C3552 C3554 1.394 . S
C3552 H3568 0.931 . S
C3553 C3552 1.391 . S
C3553 C3557 1.376 . S
C3554 C3552 1.394 . S
C3554 C3555 1.369 . S
C3554 C3558 1.531 . S
C3555 C3554 1.369 . S
C3555 C3556 1.410 . S
C3555 C3563 1.503 . S
C3556 C3555 1.410 . S
C3556 C3557 1.392 . S
C3556 C3559 1.511 . S
C3557 C3553 1.376 . S
C3557 C3556 1.392 . S
C3557 H3569 0.929 . S
C3558 C3554 1.531 . S
C3558 H3570 0.960 . S
C3558 H3571 0.962 . S
C3558 H3572 0.960 . S
C3559 C3556 1.511 . S
C3559 H3573 0.961 . S
C3559 H3574 0.961 . S
C3559 H3575 0.961 . S
C3560 C3561 1.370 . S
C3560 C3562 1.363 . S
C3560 H3576 0.931 . S
C3561 C3560 1.370 . S
C3561 C3565 1.408 . S
C3562 C3560 1.363 . S
C3562 C3563 1.370 . S
C3562 C3566 1.524 . S
C3563 C3555 1.503 . S
C3563 C3562 1.370 . S
C3563 C3564 1.403 . S
C3564 C3563 1.403 . S
C3564 C3565 1.404 . S
C3564 C3567 1.539 . S
C3565 C3561 1.408 . S
C3565 C3564 1.404 . S
C3565 H3577 0.930 . S
C3566 C3562 1.524 . S
C3566 H3578 0.956 . S
C3566 H3579 0.961 . S
C3566 H3580 0.961 . S
C3567 C3564 1.539 . S
C3567 H3581 0.958 . S
C3567 H3582 0.961 . S
C3567 H3583 0.960 . S
H3568 C3552 0.931 . S
H3569 C3557 0.929 . S
H3570 C3558 0.960 . S
H3571 C3558 0.962 . S
H3572 C3558 0.960 . S
H3573 C3559 0.961 . S
H3574 C3559 0.961 . S
H3575 C3559 0.961 . S
H3576 C3560 0.931 . S
H3577 C3565 0.930 . S
H3578 C3566 0.956 . S
H3579 C3566 0.961 . S
H3580 C3566 0.961 . S
H3581 C3567 0.958 . S
H3582 C3567 0.961 . S
H3583 C3567 0.960 . S
C3584 C3585 1.391 . S
C3584 C3586 1.394 . S
C3584 H3600 0.931 . S
C3585 C3584 1.391 . S
C3585 C3589 1.376 . S
C3586 C3584 1.394 . S
C3586 C3587 1.369 . S
C3586 C3590 1.531 . S
C3587 C3586 1.369 . S
C3587 C3588 1.410 . S
C3587 C3595 1.503 . S
C3588 C3587 1.410 . S
C3588 C3589 1.392 . S
C3588 C3591 1.511 . S
C3589 C3585 1.376 . S
C3589 C3588 1.392 . S
C3589 H3601 0.929 . S
C3590 C3586 1.531 . S
C3590 H3602 0.960 . S
C3590 H3603 0.962 . S
C3590 H3604 0.960 . S
C3591 C3588 1.511 . S
C3591 H3605 0.961 . S
C3591 H3606 0.961 . S
C3591 H3607 0.961 . S
C3592 C3593 1.370 . S
C3592 C3594 1.363 . S
C3592 H3608 0.931 . S
C3593 C3592 1.370 . S
C3593 C3597 1.408 . S
C3594 C3592 1.363 . S
C3594 C3595 1.370 . S
C3594 C3598 1.524 . S
C3595 C3587 1.503 . S
C3595 C3594 1.370 . S
C3595 C3596 1.403 . S
C3596 C3595 1.403 . S
C3596 C3597 1.404 . S
C3596 C3599 1.539 . S
C3597 C3593 1.408 . S
C3597 C3596 1.404 . S
C3597 H3609 0.930 . S
C3598 C3594 1.524 . S
C3598 H3610 0.956 . S
C3598 H3611 0.961 . S
C3598 H3612 0.961 . S
C3599 C3596 1.539 . S
C3599 H3613 0.958 . S
C3599 H3614 0.961 . S
C3599 H3615 0.960 . S
H3600 C3584 0.931 . S
H3601 C3589 0.929 . S
H3602 C3590 0.960 . S
H3603 C3590 0.962 . S
H3604 C3590 0.960 . S
H3605 C3591 0.961 . S
H3606 C3591 0.961 . S
H3607 C3591 0.961 . S
H3608 C3592 0.931 . S
H3609 C3597 0.930 . S
H3610 C3598 0.956 . S
H3611 C3598 0.961 . S
H3612 C3598 0.961 . S
H3613 C3599 0.958 . S
H3614 C3599 0.961 . S
H3615 C3599 0.960 . S
C1057 N13 1.574 . S
C1065 N805 1.528 . S
C1089 N310 1.573 . S
C1097 N46 1.525 . S
C1121 N871 1.499 . S
C1129 N79 1.558 . S
C1153 N112 1.524 . S
C1161 N376 1.550 . S
C1185 N937 1.504 . S
C1193 N145 1.557 . S
C1217 N442 1.517 . S
C1225 N178 1.552 . S
C1249 N211 1.579 . S
C1257 N1003 1.524 . S
C1281 N244 1.499 . S
C1289 N508 1.558 . S
C1313 N277 1.496 . S
C1321 N541 1.558 . S
C1345 N343 1.504 . S
C1353 N607 1.557 . S
C1377 N673 1.573 . S
C1385 N409 1.528 . S
C1409 N475 1.497 . S
C1417 N739 1.559 . S
C1441 N574 1.550 . S
C1449 N838 1.539 . S
C1473 N904 1.509 . S
C1481 N640 1.551 . S
C1505 N970 1.562 . S
C1513 N706 1.529 . S
C1537 N772 1.537 . S
C1545 N1036 1.544 . S
C1569 C7 1.142 . S
C1577 N827 1.151 . S
C1601 N332 1.146 . S
C1609 C40 1.111 . S
C1633 C73 1.144 . S
C1641 N893 1.147 . S
C1665 N266 1.165 . S
C1673 C106 1.062 . S
C1697 C139 1.126 . S
C1705 N1025 1.158 . S
C1729 C172 1.123 . S
C1737 N398 1.159 . S
C1761 N959 1.171 . S
C1769 C205 1.099 . S
C1793 N464 1.152 . S
C1801 C238 1.110 . S
C1825 N563 1.117 . S
C1833 C271 1.104 . S
C1857 N68 1.156 . S
C1865 C304 1.064 . S
C1889 C337 1.104 . S
C1897 N629 1.140 . S
C1921 C370 1.143 . S
C1929 N2 1.142 . S
C1953 N761 1.171 . S
C1961 C403 1.061 . S
C1985 N134 1.168 . S
C1993 C436 1.094 . S
C2017 C469 1.096 . S
C2025 N695 1.161 . S
C2049 C502 1.137 . S
C2057 N200 1.150 . S
C2081 N299 1.117 . S
C2089 C535 1.098 . S
C2113 N860 1.123 . S
C2121 C568 1.107 . S
C2145 N365 1.120 . S
C2153 C601 1.086 . S
C2177 C634 1.077 . S
C2185 N794 1.140 . S
C2209 N497 1.155 . S
C2217 C667 1.109 . S
C2241 C700 1.024 . S
C2249 N926 1.157 . S
C2273 N431 1.179 . S
C2281 C733 1.089 . S
C2305 C766 1.025 . S
C2313 N992 1.154 . S
C2337 N35 1.128 . S
C2345 C799 1.112 . S
C2369 N596 1.130 . S
C2377 C832 1.081 . S
C2401 N101 1.174 . S
C2409 C865 1.062 . S
C2433 C898 1.027 . S
C2441 N530 1.164 . S
C2465 C931 1.082 . S
C2473 N233 1.142 . S
C2497 N662 1.154 . S
C2505 C964 1.065 . S
C2529 N167 1.181 . S
C2537 C997 1.068 . S
C2561 C1030 1.144 . S
C2569 N728 1.143 . S
C2593 C615 0.353 . S
C2601 C21 0.427 . S
C2625 C648 0.505 . S
C2633 C54 0.424 . S
C2657 C549 0.506 . S
C2665 C87 0.420 . S
C2689 C582 0.505 . S
C2697 C120 0.407 . S
C2721 C153 0.451 . S
C2729 C747 0.447 . S
C2753 C780 0.350 . S
C2761 C186 0.397 . S
C2785 C219 0.500 . S
C2793 C681 0.399 . S
C2817 C714 0.342 . S
C2825 C252 0.414 . S
C2849 C879 0.387 . S
C2857 C285 0.377 . S
C2881 C318 0.409 . S
C2889 C912 0.440 . S
C2913 C351 0.452 . S
C2921 C813 0.384 . S
C2945 C384 0.348 . S
C2953 C846 0.389 . S
C2977 C1011 0.350 . S
C2985 C417 0.414 . S
C3009 C450 0.491 . S
C3017 C1044 0.443 . S
C3041 C483 0.498 . S
C3049 C945 0.440 . S
C3073 C516 0.443 . S
C3081 C978 0.446 . S
C3105 C150 1.854 . S
C3113 C18 1.880 . S
C3137 C183 1.881 . S
C3145 C51 1.861 . S
C3169 C84 1.844 . S
C3177 C216 1.878 . S
C3201 C249 1.888 . S
C3209 C117 1.867 . S
C3233 C282 1.842 . S
C3241 C414 1.874 . S
C3265 C447 1.885 . S
C3273 C315 1.862 . S
C3297 C348 1.887 . S
C3305 C480 1.871 . S
C3329 C513 1.869 . S
C3337 C381 1.861 . S
C3361 C546 1.880 . S
C3369 C678 1.861 . S
C3393 C711 1.879 . S
C3401 C579 1.872 . S
C3425 C744 1.868 . S
C3433 C612 1.877 . S
C3457 C645 1.885 . S
C3465 C777 1.869 . S
C3489 C942 1.870 . S
C3497 C810 1.878 . S
C3521 C843 1.845 . S
C3529 C975 1.869 . S
C3553 C876 1.888 . S
C3561 C1008 1.865 . S
C3585 C909 1.852 . S
C3593 C1041 1.865 . S
