# Generated by pormake.
# Topology wgc, (5)-cn, num edge types: 1
# Building blocks:
#     Node 0, Type 0, BuildingBlock: BEQFEK_clean_sbu_0, # of connection points: 5
#     Node 1, Type 0, BuildingBlock: BEQFEK_clean_sbu_0, # of connection points: 5
#     Node 2, Type 0, BuildingBlock: BEQFEK_clean_sbu_0, # of connection points: 5
#     Node 3, Type 0, BuildingBlock: BEQFEK_clean_sbu_0, # of connection points: 5
#     Node 4, Type 0, BuildingBlock: BEQFEK_clean_sbu_0, # of connection points: 5
#     Node 5, Type 0, BuildingBlock: BEQFEK_clean_sbu_0, # of connection points: 5
#     Node 6, Type 0, BuildingBlock: BEQFEK_clean_sbu_0, # of connection points: 5
#     Node 7, Type 0, BuildingBlock: BEQFEK_clean_sbu_0, # of connection points: 5
#     Node 8, Type 0, BuildingBlock: BEQFEK_clean_sbu_0, # of connection points: 5
#     Node 9, Type 0, BuildingBlock: BEQFEK_clean_sbu_0, # of connection points: 5
#     Node 10, Type 0, BuildingBlock: BEQFEK_clean_sbu_0, # of connection points: 5
#     Node 11, Type 0, BuildingBlock: BEQFEK_clean_sbu_0, # of connection points: 5
#     Node 12, Type 0, BuildingBlock: BEQFEK_clean_sbu_0, # of connection points: 5
#     Node 13, Type 0, BuildingBlock: BEQFEK_clean_sbu_0, # of connection points: 5
#     Node 14, Type 0, BuildingBlock: BEQFEK_clean_sbu_0, # of connection points: 5
#     Node 15, Type 0, BuildingBlock: BEQFEK_clean_sbu_0, # of connection points: 5
#     Edge 16, Type (0, 0), None
#     Edge 17, Type (0, 0), None
#     Edge 18, Type (0, 0), None
#     Edge 19, Type (0, 0), None
#     Edge 20, Type (0, 0), None
#     Edge 21, Type (0, 0), None
#     Edge 22, Type (0, 0), None
#     Edge 23, Type (0, 0), None
#     Edge 24, Type (0, 0), None
#     Edge 25, Type (0, 0), None
#     Edge 26, Type (0, 0), None
#     Edge 27, Type (0, 0), None
#     Edge 28, Type (0, 0), None
#     Edge 29, Type (0, 0), None
#     Edge 30, Type (0, 0), None
#     Edge 31, Type (0, 0), None
#     Edge 32, Type (0, 0), None
#     Edge 33, Type (0, 0), None
#     Edge 34, Type (0, 0), None
#     Edge 35, Type (0, 0), None
#     Edge 36, Type (0, 0), None
#     Edge 37, Type (0, 0), None
#     Edge 38, Type (0, 0), None
#     Edge 39, Type (0, 0), None
#     Edge 40, Type (0, 0), None
#     Edge 41, Type (0, 0), None
#     Edge 42, Type (0, 0), None
#     Edge 43, Type (0, 0), None
#     Edge 44, Type (0, 0), None
#     Edge 45, Type (0, 0), None
#     Edge 46, Type (0, 0), None
#     Edge 47, Type (0, 0), None
#     Edge 48, Type (0, 0), None
#     Edge 49, Type (0, 0), None
#     Edge 50, Type (0, 0), None
#     Edge 51, Type (0, 0), None
#     Edge 52, Type (0, 0), None
#     Edge 53, Type (0, 0), None
#     Edge 54, Type (0, 0), None
#     Edge 55, Type (0, 0), None
# Relax obj value: 0.162
# Max RMSD: 0.161
# Mean RMSD: 0.161
data_MOF--net-wgc--node1-BEQFEK_clean_sbu_0--edge1-none
_symmetry_space_group_name_H-M    P1
_symmetry_Int_Tables_number       1
_symmetry_cell_setting            triclinic
loop_
_symmetry_equiv_pos_as_xyz
'x, y, z'
_cell_length_a     22.46037
_cell_length_b     22.460468
_cell_length_c     24.968508
_cell_angle_alpha  89.999142
_cell_angle_beta   89.9998
_cell_angle_gamma 89.999791
loop_
_atom_site_label
_atom_site_type_symbol
_atom_site_fract_x
_atom_site_fract_y
_atom_site_fract_z
_atom_type_partial_charge
Co0 Co 0.16146 0.10297 0.99843 0.0
Co1 Co 0.29699 0.0737 0.01021 0.0
C2 C 0.24197 0.09931 0.90403 0.0
O3 O 0.19141 0.10505 0.92581 0.0
O4 O 0.28936 0.08927 0.93128 0.0
C5 C 0.0649 0.18099 0.97276 0.0
O6 O 0.10521 0.21892 0.95584 0.0
C7 C 0.42711 0.03411 0.01312 0.0
C8 C 0.42557 -0.00428 0.09459 0.0
C9 C 0.46137 0.0021 0.05001 0.0
N10 N 0.37331 0.04535 0.03541 0.0
N11 N 0.37304 0.0213 0.08372 0.0
C12 C 0.44491 0.05369 0.95825 0.0
H13 H 0.43558 0.01722 0.92948 0.0
H14 H 0.41868 0.09332 0.94602 0.0
H15 H 0.49325 0.06385 0.95691 0.0
C16 C 0.18841 0.18833 0.08192 0.0
N17 N 0.20777 0.14835 0.04619 0.0
N18 N 0.26544 0.14114 0.05052 0.0
C19 C 0.28569 0.18108 0.08698 0.0
C20 C 0.23772 0.21642 0.10579 0.0
C21 C 0.12775 0.17956 0.10572 0.0
H22 H 0.1124 0.13327 0.09831 0.0
H23 H 0.09469 0.20887 0.08604 0.0
H24 H 0.12874 0.18574 0.14974 0.0
O25 O 0.15503 0.02109 0.01875 0.0
O26 O 0.25088 -0.0007 0.02261 0.0
H27 H 0.34561 0.19035 0.15396 0.0
H28 H 0.37915 0.20081 0.0878 0.0
C29 C 0.34611 0.17551 0.11166 0.0
H30 H 0.36067 0.12872 0.1113 0.0
H31 H 0.33618 0.02152 0.10918 0.0
O32 O 0.08039 0.132 0.99368 0.0
C33 C 0.19666 0.98394 0.02508 0.0
Co34 Co 0.10296 0.82467 0.00123 0.0
Co35 Co 0.0737 0.68914 0.98945 0.0
C36 C 0.0993 0.74417 0.09563 0.0
O37 O 0.10504 0.79472 0.07385 0.0
O38 O 0.08927 0.69677 0.06838 0.0
C39 C 0.18098 0.92123 0.0269 0.0
O40 O 0.21892 0.88093 0.04382 0.0
C41 C 0.03411 0.55902 0.98654 0.0
C42 C -0.00427 0.56056 0.90507 0.0
C43 C 0.00211 0.52476 0.94965 0.0
N44 N 0.04536 0.61282 0.96425 0.0
N45 N 0.0213 0.61309 0.91594 0.0
C46 C 0.05369 0.54122 0.04141 0.0
H47 H 0.01722 0.55055 0.07018 0.0
H48 H 0.09332 0.56745 0.05364 0.0
H49 H 0.06385 0.49288 0.04276 0.0
C50 C 0.18834 0.79772 0.91774 0.0
N51 N 0.14835 0.77836 0.95347 0.0
N52 N 0.14115 0.72069 0.94914 0.0
C53 C 0.18109 0.70044 0.91269 0.0
C54 C 0.21643 0.74842 0.89387 0.0
C55 C 0.17956 0.85838 0.89394 0.0
H56 H 0.13327 0.87374 0.90136 0.0
H57 H 0.20887 0.89144 0.91362 0.0
H58 H 0.18574 0.85739 0.84992 0.0
O59 O 0.02109 0.8311 0.98091 0.0
O60 O -0.0007 0.73525 0.97705 0.0
H61 H 0.19036 0.64052 0.84571 0.0
H62 H 0.20082 0.60698 0.91186 0.0
C63 C 0.17552 0.64003 0.88801 0.0
H64 H 0.12873 0.62546 0.88836 0.0
H65 H 0.02153 0.64995 0.89048 0.0
O66 O 0.13199 0.90574 0.00598 0.0
C67 C 0.98395 0.78947 0.97458 0.0
Co68 Co 0.82468 0.88317 0.99842 0.0
Co69 Co 0.68915 0.91242 0.0102 0.0
C70 C 0.74417 0.88683 0.90402 0.0
O71 O 0.79473 0.88109 0.9258 0.0
O72 O 0.69677 0.89686 0.93127 0.0
C73 C 0.92123 0.80516 0.97275 0.0
O74 O 0.88093 0.76721 0.95584 0.0
C75 C 0.55898 0.95187 0.01312 0.0
C76 C 0.5605 0.99031 0.09458 0.0
C77 C 0.52467 0.9838 0.05003 0.0
N78 N 0.61281 0.94073 0.03539 0.0
N79 N 0.61307 0.96481 0.08369 0.0
C80 C 0.5412 0.93224 0.95826 0.0
H81 H 0.55052 0.9687 0.92947 0.0
H82 H 0.56744 0.89262 0.94606 0.0
H83 H 0.49286 0.92207 0.95691 0.0
C84 C 0.79774 0.79779 0.08191 0.0
N85 N 0.77837 0.83777 0.04618 0.0
N86 N 0.72071 0.84498 0.05051 0.0
C87 C 0.70046 0.80505 0.08698 0.0
C88 C 0.74844 0.7697 0.10579 0.0
C89 C 0.85841 0.80657 0.10569 0.0
H90 H 0.87377 0.85285 0.09826 0.0
H91 H 0.89146 0.77725 0.08601 0.0
H92 H 0.85742 0.8004 0.14971 0.0
O93 O 0.83109 0.96504 0.01874 0.0
O94 O 0.73524 0.98683 0.02261 0.0
H95 H 0.64056 0.79574 0.15397 0.0
H96 H 0.60699 0.78537 0.08782 0.0
C97 C 0.64006 0.81062 0.11168 0.0
H98 H 0.62553 0.85743 0.11137 0.0
H99 H 0.64993 0.96467 0.10915 0.0
O100 O 0.90575 0.85414 0.99366 0.0
C101 C 0.78946 0.00219 0.02508 0.0
Co102 Co 0.88317 0.16145 0.00124 0.0
Co103 Co 0.91242 0.29698 0.98945 0.0
C104 C 0.88683 0.24196 0.09563 0.0
O105 O 0.88109 0.1914 0.07386 0.0
O106 O 0.89686 0.28936 0.06838 0.0
C107 C 0.80515 0.0649 0.02691 0.0
O108 O 0.7672 0.1052 0.04381 0.0
C109 C 0.95188 0.42715 0.98653 0.0
C110 C 0.99031 0.42564 0.90508 0.0
C111 C 0.98381 0.46146 0.94963 0.0
N112 N 0.94073 0.37333 0.96426 0.0
N113 N 0.96482 0.37307 0.91596 0.0
C114 C 0.93225 0.44493 0.0414 0.0
H115 H 0.9687 0.43561 0.07019 0.0
H116 H 0.89262 0.41869 0.05359 0.0
H117 H 0.92207 0.49327 0.04274 0.0
C118 C 0.7978 0.18839 0.91775 0.0
N119 N 0.83778 0.20776 0.95348 0.0
N120 N 0.84498 0.26543 0.94914 0.0
C121 C 0.80505 0.28567 0.91268 0.0
C122 C 0.76971 0.23769 0.89387 0.0
C123 C 0.80658 0.12773 0.89396 0.0
H124 H 0.85286 0.11237 0.90139 0.0
H125 H 0.77726 0.09468 0.91364 0.0
H126 H 0.80041 0.12871 0.84994 0.0
O127 O 0.96505 0.15504 0.98092 0.0
O128 O 0.98683 0.25089 0.97705 0.0
H129 H 0.79575 0.34558 0.84569 0.0
H130 H 0.78538 0.37914 0.91184 0.0
C131 C 0.81063 0.34607 0.88797 0.0
H132 H 0.85743 0.3606 0.88828 0.0
H133 H 0.96468 0.3362 0.89051 0.0
O134 O 0.85414 0.08039 0.006 0.0
C135 C 0.00219 0.19667 0.97457 0.0
Co136 Co 0.16146 0.38317 0.25121 0.0
Co137 Co 0.29699 0.41244 0.23944 0.0
C138 C 0.24197 0.38682 0.34562 0.0
O139 O 0.19141 0.38109 0.32384 0.0
O140 O 0.28936 0.39686 0.31837 0.0
C141 C 0.06491 0.30516 0.27689 0.0
O142 O 0.10522 0.26722 0.29382 0.0
C143 C 0.42711 0.45202 0.23653 0.0
C144 C 0.42557 0.49043 0.15507 0.0
C145 C 0.46138 0.48403 0.19965 0.0
N146 N 0.37331 0.44079 0.21425 0.0
N147 N 0.37304 0.46486 0.16594 0.0
C148 C 0.44491 0.43243 0.2914 0.0
H149 H 0.43559 0.4689 0.32018 0.0
H150 H 0.41868 0.3928 0.30363 0.0
H151 H 0.49326 0.42227 0.29275 0.0
C152 C 0.18841 0.29782 0.16771 0.0
N153 N 0.20778 0.33779 0.20345 0.0
N154 N 0.26545 0.345 0.19912 0.0
C155 C 0.2857 0.30507 0.16266 0.0
C156 C 0.23772 0.26974 0.14383 0.0
C157 C 0.12775 0.30662 0.14391 0.0
H158 H 0.11241 0.35291 0.15133 0.0
H159 H 0.09469 0.27731 0.16359 0.0
H160 H 0.12874 0.30044 0.09989 0.0
O161 O 0.15503 0.46505 0.23091 0.0
O162 O 0.25088 0.48684 0.22705 0.0
H163 H 0.34561 0.29581 0.09568 0.0
H164 H 0.37916 0.28536 0.16183 0.0
C165 C 0.34611 0.31065 0.13797 0.0
H166 H 0.36066 0.35744 0.13833 0.0
H167 H 0.33618 0.46464 0.14048 0.0
O168 O 0.0804 0.35414 0.25597 0.0
C169 C 0.19666 0.50219 0.22458 0.0
Co170 Co 0.38317 0.82467 0.74844 0.0
Co171 Co 0.41244 0.68915 0.76021 0.0
C172 C 0.38682 0.74417 0.65404 0.0
O173 O 0.38109 0.79472 0.67581 0.0
O174 O 0.39686 0.69677 0.68129 0.0
C175 C 0.30515 0.92123 0.72277 0.0
O176 O 0.26721 0.88092 0.70585 0.0
C177 C 0.45203 0.55902 0.76313 0.0
C178 C 0.49044 0.56057 0.84459 0.0
C179 C 0.48404 0.52476 0.80001 0.0
N180 N 0.44079 0.61282 0.78541 0.0
N181 N 0.46487 0.6131 0.83371 0.0
C182 C 0.43243 0.54122 0.70826 0.0
H183 H 0.4689 0.55055 0.67948 0.0
H184 H 0.3928 0.56745 0.69604 0.0
H185 H 0.42227 0.49288 0.70692 0.0
C186 C 0.29783 0.79772 0.83195 0.0
N187 N 0.3378 0.77836 0.7962 0.0
N188 N 0.345 0.72069 0.80053 0.0
C189 C 0.30508 0.70044 0.837 0.0
C190 C 0.26975 0.74842 0.85584 0.0
C191 C 0.30662 0.85838 0.85575 0.0
H192 H 0.35291 0.87372 0.84833 0.0
H193 H 0.27732 0.89144 0.83607 0.0
H194 H 0.30045 0.85739 0.89977 0.0
O195 O 0.46505 0.8311 0.76874 0.0
O196 O 0.48684 0.73525 0.7726 0.0
H197 H 0.29582 0.64052 0.90399 0.0
H198 H 0.28537 0.60697 0.83784 0.0
C199 C 0.31066 0.64003 0.86169 0.0
H200 H 0.35745 0.62548 0.86133 0.0
H201 H 0.46465 0.64996 0.85918 0.0
O202 O 0.35413 0.90574 0.74369 0.0
C203 C 0.5022 0.78947 0.77507 0.0
Co204 Co 0.82468 0.60297 0.25123 0.0
Co205 Co 0.68915 0.57371 0.23945 0.0
C206 C 0.74417 0.59932 0.34563 0.0
O207 O 0.79473 0.60505 0.32386 0.0
O208 O 0.69677 0.58928 0.31838 0.0
C209 C 0.92123 0.68098 0.2769 0.0
O210 O 0.88092 0.71892 0.29382 0.0
C211 C 0.55898 0.53426 0.23653 0.0
C212 C 0.56051 0.4958 0.15509 0.0
C213 C 0.52467 0.50232 0.19963 0.0
N214 N 0.61281 0.54539 0.21426 0.0
N215 N 0.61308 0.52129 0.16597 0.0
C216 C 0.54119 0.5539 0.29139 0.0
H217 H 0.55051 0.51746 0.32019 0.0
H218 H 0.56744 0.59353 0.30358 0.0
H219 H 0.49285 0.56408 0.29273 0.0
C220 C 0.79774 0.68831 0.16772 0.0
N221 N 0.77837 0.64835 0.20347 0.0
N222 N 0.72071 0.64114 0.19913 0.0
C223 C 0.70046 0.68106 0.16265 0.0
C224 C 0.74844 0.71639 0.14383 0.0
C225 C 0.85841 0.67952 0.14393 0.0
H226 H 0.87375 0.63323 0.15137 0.0
H227 H 0.89146 0.70883 0.16361 0.0
H228 H 0.85742 0.68568 0.09991 0.0
O229 O 0.8311 0.52108 0.23093 0.0
O230 O 0.73525 0.4993 0.22706 0.0
H231 H 0.64056 0.69035 0.09566 0.0
H232 H 0.60698 0.70071 0.16181 0.0
C233 C 0.64006 0.67547 0.13795 0.0
H234 H 0.62554 0.62866 0.13826 0.0
H235 H 0.64994 0.52143 0.14052 0.0
O236 O 0.90574 0.632 0.25599 0.0
C237 C 0.78947 0.48394 0.2246 0.0
Co238 Co 0.60297 0.16146 0.74843 0.0
Co239 Co 0.57371 0.29698 0.76021 0.0
C240 C 0.59931 0.24196 0.65403 0.0
O241 O 0.60505 0.19141 0.67581 0.0
O242 O 0.58928 0.28936 0.68128 0.0
C243 C 0.68098 0.06491 0.72276 0.0
O244 O 0.71891 0.10522 0.70584 0.0
C245 C 0.53426 0.42715 0.76313 0.0
C246 C 0.49581 0.42563 0.84458 0.0
C247 C 0.50233 0.46146 0.80003 0.0
N248 N 0.5454 0.37332 0.7854 0.0
N249 N 0.5213 0.37306 0.83369 0.0
C250 C 0.55391 0.44494 0.70827 0.0
H251 H 0.51746 0.43562 0.67947 0.0
H252 H 0.59353 0.41869 0.69608 0.0
H253 H 0.56408 0.49328 0.70693 0.0
C254 C 0.68832 0.18839 0.83193 0.0
N255 N 0.64835 0.20776 0.79619 0.0
N256 N 0.64115 0.26543 0.80053 0.0
C257 C 0.68106 0.28567 0.83701 0.0
C258 C 0.71639 0.23769 0.85583 0.0
C259 C 0.67953 0.12773 0.85573 0.0
H260 H 0.63324 0.11238 0.84829 0.0
H261 H 0.70884 0.09467 0.83605 0.0
H262 H 0.68569 0.12871 0.89974 0.0
O263 O 0.52109 0.15504 0.76874 0.0
O264 O 0.4993 0.25089 0.77261 0.0
H265 H 0.69035 0.34558 0.904 0.0
H266 H 0.70072 0.37915 0.83785 0.0
C267 C 0.67548 0.34607 0.86171 0.0
H268 H 0.62867 0.36059 0.8614 0.0
H269 H 0.52143 0.33619 0.85914 0.0
O270 O 0.63199 0.08039 0.74367 0.0
C271 C 0.48394 0.19667 0.77508 0.0
Co272 Co 0.66146 0.60297 0.49843 0.0
Co273 Co 0.79699 0.57371 0.51021 0.0
C274 C 0.74197 0.59932 0.40404 0.0
O275 O 0.69141 0.60506 0.42581 0.0
O276 O 0.78936 0.58928 0.43128 0.0
C277 C 0.5649 0.68099 0.47276 0.0
O278 O 0.6052 0.71893 0.45584 0.0
C279 C 0.92711 0.53411 0.51312 0.0
C280 C 0.92557 0.49572 0.59459 0.0
C281 C 0.96137 0.5021 0.55001 0.0
N282 N 0.87331 0.54536 0.53541 0.0
N283 N 0.87304 0.5213 0.58372 0.0
C284 C 0.94491 0.55369 0.45825 0.0
H285 H 0.93558 0.51722 0.42948 0.0
H286 H 0.91868 0.59332 0.44602 0.0
H287 H -0.00675 0.56385 0.4569 0.0
C288 C 0.68841 0.68833 0.58193 0.0
N289 N 0.70777 0.64835 0.54619 0.0
N290 N 0.76544 0.64115 0.55052 0.0
C291 C 0.78569 0.68108 0.58698 0.0
C292 C 0.73772 0.71643 0.6058 0.0
C293 C 0.62775 0.67956 0.60572 0.0
H294 H 0.6124 0.63327 0.59831 0.0
H295 H 0.59469 0.70887 0.58604 0.0
H296 H 0.62874 0.68574 0.64974 0.0
O297 O 0.65503 0.52109 0.51874 0.0
O298 O 0.75088 0.49931 0.5226 0.0
H299 H 0.84561 0.69036 0.65396 0.0
H300 H 0.87915 0.70082 0.5878 0.0
C301 C 0.84611 0.67552 0.61166 0.0
H302 H 0.86067 0.62873 0.6113 0.0
H303 H 0.83619 0.52153 0.60919 0.0
O304 O 0.58039 0.63201 0.49368 0.0
C305 C 0.69666 0.48395 0.52507 0.0
Co306 Co 0.60297 0.32467 0.50123 0.0
Co307 Co 0.57371 0.18914 0.48945 0.0
C308 C 0.59932 0.24416 0.59562 0.0
O309 O 0.60505 0.29472 0.57385 0.0
O310 O 0.58927 0.19677 0.56838 0.0
C311 C 0.68098 0.42123 0.5269 0.0
O312 O 0.71893 0.38093 0.54381 0.0
C313 C 0.53411 0.05902 0.48654 0.0
C314 C 0.49573 0.06056 0.40507 0.0
C315 C 0.50211 0.02476 0.44965 0.0
N316 N 0.54536 0.11282 0.46425 0.0
N317 N 0.52131 0.11309 0.41594 0.0
C318 C 0.55369 0.04122 0.54141 0.0
H319 H 0.51722 0.05055 0.57018 0.0
H320 H 0.59332 0.06745 0.55364 0.0
H321 H 0.56385 0.99288 0.54276 0.0
C322 C 0.68834 0.29772 0.41774 0.0
N323 N 0.64835 0.27836 0.45347 0.0
N324 N 0.64115 0.22069 0.44914 0.0
C325 C 0.68109 0.20044 0.41268 0.0
C326 C 0.71643 0.24842 0.39387 0.0
C327 C 0.67956 0.35838 0.39394 0.0
H328 H 0.63327 0.37374 0.40136 0.0
H329 H 0.70887 0.39144 0.41362 0.0
H330 H 0.68574 0.35739 0.34992 0.0
O331 O 0.52109 0.3311 0.48091 0.0
O332 O 0.49931 0.23525 0.47705 0.0
H333 H 0.69037 0.14052 0.34571 0.0
H334 H 0.70083 0.10698 0.41186 0.0
C335 C 0.67553 0.14003 0.38801 0.0
H336 H 0.62874 0.12546 0.38836 0.0
H337 H 0.52153 0.14995 0.39047 0.0
O338 O 0.632 0.40574 0.50598 0.0
C339 C 0.48395 0.28947 0.47458 0.0
Co340 Co 0.32468 0.38316 0.49842 0.0
Co341 Co 0.18915 0.41242 0.51021 0.0
C342 C 0.24417 0.38681 0.40403 0.0
O343 O 0.29473 0.38108 0.4258 0.0
O344 O 0.19677 0.39685 0.43128 0.0
C345 C 0.42123 0.30515 0.47275 0.0
O346 O 0.38093 0.2672 0.45585 0.0
C347 C 0.05898 0.45187 0.51312 0.0
C348 C 0.0605 0.4903 0.59458 0.0
C349 C 0.02467 0.4838 0.55003 0.0
N350 N 0.11281 0.44072 0.53539 0.0
N351 N 0.11306 0.46481 0.58369 0.0
C352 C 0.0412 0.43225 0.45826 0.0
H353 H 0.05052 0.4687 0.42947 0.0
H354 H 0.06744 0.39262 0.44606 0.0
H355 H 0.99286 0.42207 0.45691 0.0
C356 C 0.29774 0.29779 0.58191 0.0
N357 N 0.27837 0.33777 0.54618 0.0
N358 N 0.22071 0.34497 0.55052 0.0
C359 C 0.20046 0.30504 0.58698 0.0
C360 C 0.24844 0.2697 0.60579 0.0
C361 C 0.35841 0.30657 0.6057 0.0
H362 H 0.37377 0.35285 0.59827 0.0
H363 H 0.39146 0.27725 0.58602 0.0
H364 H 0.35742 0.3004 0.64971 0.0
O365 O 0.33109 0.46504 0.51874 0.0
O366 O 0.23524 0.48682 0.52261 0.0
H367 H 0.14056 0.29574 0.65397 0.0
H368 H 0.10699 0.28537 0.58781 0.0
C369 C 0.14006 0.31062 0.61168 0.0
H370 H 0.12553 0.35742 0.61137 0.0
H371 H 0.14993 0.46466 0.60915 0.0
O372 O 0.40575 0.35414 0.49366 0.0
C373 C 0.28946 0.50218 0.52507 0.0
Co374 Co 0.38317 0.66145 0.50124 0.0
Co375 Co 0.41242 0.79698 0.48945 0.0
C376 C 0.38681 0.74196 0.59563 0.0
O377 O 0.38108 0.6914 0.57386 0.0
O378 O 0.39685 0.78936 0.56838 0.0
C379 C 0.30515 0.5649 0.52691 0.0
O380 O 0.26719 0.6052 0.54381 0.0
C381 C 0.45187 0.92715 0.48654 0.0
C382 C 0.49031 0.92564 0.40508 0.0
C383 C 0.48381 0.96146 0.44963 0.0
N384 N 0.44073 0.87333 0.46426 0.0
N385 N 0.46481 0.87307 0.41596 0.0
C386 C 0.43225 0.94493 0.5414 0.0
H387 H 0.4687 0.93561 0.57019 0.0
H388 H 0.39262 0.91869 0.5536 0.0
H389 H 0.42207 -0.00673 0.54274 0.0
C390 C 0.2978 0.68839 0.41775 0.0
N391 N 0.33778 0.70776 0.45348 0.0
N392 N 0.34498 0.76543 0.44914 0.0
C393 C 0.30505 0.78567 0.41268 0.0
C394 C 0.26971 0.73769 0.39387 0.0
C395 C 0.30657 0.62772 0.39396 0.0
H396 H 0.35286 0.61237 0.40139 0.0
H397 H 0.27725 0.59467 0.41364 0.0
H398 H 0.30041 0.62871 0.34994 0.0
O399 O 0.46505 0.65504 0.48093 0.0
O400 O 0.48683 0.75089 0.47705 0.0
H401 H 0.29574 0.84558 0.34569 0.0
H402 H 0.28537 0.87914 0.41184 0.0
C403 C 0.31062 0.84607 0.38797 0.0
H404 H 0.35743 0.8606 0.38828 0.0
H405 H 0.46467 0.8362 0.39051 0.0
O406 O 0.35414 0.58039 0.506 0.0
C407 C 0.50218 0.69667 0.47458 0.0
Co408 Co 0.66146 0.88318 0.75122 0.0
Co409 Co 0.79699 0.91244 0.73944 0.0
C410 C 0.74197 0.88683 0.84562 0.0
O411 O 0.69141 0.8811 0.82384 0.0
O412 O 0.78936 0.89687 0.81837 0.0
C413 C 0.56491 0.80516 0.77689 0.0
O414 O 0.60522 0.76721 0.7938 0.0
C415 C 0.92711 0.95202 0.73653 0.0
C416 C 0.92557 0.99043 0.65507 0.0
C417 C 0.96138 0.98404 0.69965 0.0
N418 N 0.87331 0.94079 0.71425 0.0
N419 N 0.87304 0.96486 0.66594 0.0
C420 C 0.94491 0.93243 0.7914 0.0
H421 H 0.93559 0.9689 0.82018 0.0
H422 H 0.91868 0.8928 0.80362 0.0
H423 H -0.00674 0.92227 0.79274 0.0
C424 C 0.68841 0.79783 0.66771 0.0
N425 N 0.70777 0.83779 0.70346 0.0
N426 N 0.76544 0.845 0.69913 0.0
C427 C 0.78569 0.80508 0.66266 0.0
C428 C 0.73772 0.76975 0.64383 0.0
C429 C 0.62775 0.80662 0.64392 0.0
H430 H 0.61241 0.85291 0.65134 0.0
H431 H 0.59469 0.77731 0.6636 0.0
H432 H 0.62874 0.80044 0.5999 0.0
O433 O 0.65503 0.96505 0.7309 0.0
O434 O 0.75088 0.98684 0.72705 0.0
H435 H 0.84561 0.79582 0.59567 0.0
H436 H 0.87916 0.78536 0.66182 0.0
C437 C 0.8461 0.81065 0.63797 0.0
H438 H 0.86066 0.85745 0.63833 0.0
H439 H 0.83618 0.96465 0.64047 0.0
O440 O 0.5804 0.85414 0.75597 0.0
C441 C 0.69666 0.00219 0.72456 0.0
Co442 Co 0.88318 0.32468 0.24844 0.0
Co443 Co 0.91245 0.18915 0.26022 0.0
C444 C 0.88683 0.24417 0.15404 0.0
O445 O 0.88109 0.29472 0.17581 0.0
O446 O 0.89687 0.19677 0.18129 0.0
C447 C 0.80515 0.42123 0.22277 0.0
O448 O 0.7672 0.38092 0.20586 0.0
C449 C 0.95203 0.05902 0.26313 0.0
C450 C 0.99044 0.06057 0.34459 0.0
C451 C 0.98404 0.02476 0.30001 0.0
N452 N 0.9408 0.11282 0.28541 0.0
N453 N 0.96487 0.1131 0.33372 0.0
C454 C 0.93243 0.04122 0.20826 0.0
H455 H 0.9689 0.05054 0.17948 0.0
H456 H 0.8928 0.06745 0.19604 0.0
H457 H 0.92227 0.99288 0.20692 0.0
C458 C 0.79783 0.29772 0.33195 0.0
N459 N 0.8378 0.27836 0.2962 0.0
N460 N 0.845 0.22069 0.30053 0.0
C461 C 0.80508 0.20044 0.337 0.0
C462 C 0.76975 0.24842 0.35583 0.0
C463 C 0.80662 0.35838 0.35574 0.0
H464 H 0.85291 0.37372 0.34832 0.0
H465 H 0.77732 0.39145 0.33607 0.0
H466 H 0.80045 0.35739 0.39976 0.0
O467 O 0.96506 0.33111 0.26875 0.0
O468 O 0.98684 0.23526 0.27261 0.0
H469 H 0.79583 0.14053 0.40399 0.0
H470 H 0.78538 0.10697 0.33784 0.0
C471 C 0.81066 0.14003 0.36169 0.0
H472 H 0.85746 0.12548 0.36134 0.0
H473 H 0.96466 0.14996 0.35918 0.0
O474 O 0.85414 0.40574 0.24368 0.0
C475 C 0.0022 0.28948 0.27509 0.0
Co476 Co 0.32468 0.10296 0.75123 0.0
Co477 Co 0.18915 0.0737 0.73945 0.0
C478 C 0.24417 0.09932 0.84563 0.0
O479 O 0.29473 0.10505 0.82386 0.0
O480 O 0.19677 0.08927 0.81838 0.0
C481 C 0.42123 0.18098 0.7769 0.0
O482 O 0.38092 0.21893 0.7938 0.0
C483 C 0.05898 0.03426 0.73653 0.0
C484 C 0.06051 -0.0042 0.65508 0.0
C485 C 0.02467 0.00232 0.69963 0.0
N486 N 0.11281 0.04539 0.71426 0.0
N487 N 0.11308 0.02129 0.66597 0.0
C488 C 0.04119 0.05391 0.79138 0.0
H489 H 0.05051 0.01746 0.82019 0.0
H490 H 0.06744 0.09353 0.80357 0.0
H491 H 0.99285 0.06409 0.79272 0.0
C492 C 0.29774 0.18831 0.66773 0.0
N493 N 0.27837 0.14835 0.70347 0.0
N494 N 0.22071 0.14114 0.69913 0.0
C495 C 0.20046 0.18105 0.66265 0.0
C496 C 0.24844 0.21639 0.64383 0.0
C497 C 0.35841 0.17952 0.64394 0.0
H498 H 0.37375 0.13323 0.65137 0.0
H499 H 0.39147 0.20883 0.66361 0.0
H500 H 0.35742 0.18568 0.59992 0.0
O501 O 0.3311 0.02108 0.73092 0.0
O502 O 0.23525 -0.0007 0.72705 0.0
H503 H 0.14056 0.19034 0.59566 0.0
H504 H 0.10698 0.20071 0.66181 0.0
C505 C 0.14007 0.17546 0.63794 0.0
H506 H 0.12555 0.12866 0.63825 0.0
H507 H 0.14995 0.02142 0.64052 0.0
O508 O 0.40575 0.13199 0.756 0.0
C509 C 0.28947 0.98394 0.72458 0.0
Co510 Co 0.10296 0.66145 0.24843 0.0
Co511 Co 0.07371 0.79698 0.26021 0.0
C512 C 0.09931 0.74196 0.15404 0.0
O513 O 0.10504 0.6914 0.17581 0.0
O514 O 0.08927 0.78936 0.18128 0.0
C515 C 0.18098 0.56491 0.22276 0.0
O516 O 0.21892 0.60521 0.20585 0.0
C517 C 0.03426 0.92715 0.26313 0.0
C518 C -0.0042 0.92563 0.34458 0.0
C519 C 0.00233 0.96146 0.30003 0.0
N520 N 0.04539 0.87332 0.2854 0.0
N521 N 0.02129 0.87306 0.33369 0.0
C522 C 0.05391 0.94494 0.20827 0.0
H523 H 0.01746 0.93562 0.17947 0.0
H524 H 0.09353 0.91869 0.19608 0.0
H525 H 0.06409 -0.00672 0.20693 0.0
C526 C 0.18832 0.68839 0.33193 0.0
N527 N 0.14835 0.70776 0.29619 0.0
N528 N 0.14114 0.76543 0.30053 0.0
C529 C 0.18106 0.78567 0.33701 0.0
C530 C 0.21639 0.73769 0.35583 0.0
C531 C 0.17953 0.62773 0.35572 0.0
H532 H 0.13324 0.61238 0.34829 0.0
H533 H 0.20884 0.59467 0.33605 0.0
H534 H 0.18569 0.62871 0.39974 0.0
O535 O 0.02108 0.65504 0.26875 0.0
O536 O -0.0007 0.75089 0.27261 0.0
H537 H 0.19035 0.84557 0.404 0.0
H538 H 0.20071 0.87915 0.33785 0.0
C539 C 0.17547 0.84607 0.36171 0.0
H540 H 0.12866 0.86059 0.36141 0.0
H541 H 0.02143 0.83619 0.35914 0.0
O542 O 0.13199 0.58039 0.24367 0.0
C543 C 0.98394 0.69667 0.27509 0.0
loop_
_geom_bond_atom_site_label_1
_geom_bond_atom_site_label_2
_geom_bond_distance
_geom_bond_site_symmetry_2
_ccdc_geom_bond_type
Co0 O3 1.970 . S
Co0 N17 1.989 1_556 S
Co0 O25 1.967 1_556 S
Co0 O32 1.920 1_556 S
Co1 O4 1.966 1_554 S
Co1 N10 2.022 . S
Co1 N18 1.993 . S
Co1 O26 1.941 1_545 S
C2 O3 1.258 . S
C2 O4 1.263 . S
O3 Co0 1.970 . S
O3 C2 1.258 . S
O4 Co1 1.966 1_556 S
O4 C2 1.263 . S
C5 O6 1.235 . S
C5 O32 1.289 1_556 S
O6 C5 1.235 . S
C7 C9 1.396 1_556 S
C7 N10 1.347 1_556 S
C7 C12 1.508 . S
C8 C9 1.387 . S
C8 N11 1.341 . S
C9 C7 1.396 1_554 S
C9 C8 1.387 . S
N10 Co1 2.022 . S
N10 C7 1.347 1_554 S
N10 N11 1.369 . S
N11 C8 1.341 . S
N11 N10 1.369 . S
N11 H31 0.858 1_545 S
C12 C7 1.508 . S
C12 H13 0.961 . S
C12 H14 0.961 . S
C12 H15 0.960 . S
H13 C12 0.961 . S
H14 C12 0.961 . S
H15 C12 0.960 . S
C16 N17 1.342 . S
C16 C20 1.401 . S
C16 C21 1.499 . S
N17 Co0 1.989 1_554 S
N17 C16 1.342 . S
N17 N18 1.388 . S
N18 Co1 1.993 . S
N18 N17 1.388 . S
N18 C19 1.346 . S
C19 N18 1.346 . S
C19 C20 1.396 . S
C19 C29 1.510 . S
C20 C16 1.401 . S
C20 C19 1.396 . S
C21 C16 1.499 . S
C21 H22 0.959 . S
C21 H23 0.960 . S
C21 H24 0.961 . S
H22 C21 0.959 . S
H23 C21 0.960 . S
H24 C21 0.961 . S
O25 Co0 1.967 1_554 S
O25 C33 1.258 1_545 S
O26 Co1 1.941 1_565 S
O26 C33 1.266 . S
H27 C29 0.959 . S
H28 C29 0.961 . S
C29 C19 1.510 . S
C29 H27 0.959 . S
C29 H28 0.961 . S
C29 H30 0.960 . S
H30 C29 0.960 . S
H31 N11 0.858 1_565 S
O32 Co0 1.920 1_554 S
O32 C5 1.289 1_554 S
C33 O25 1.258 1_565 S
C33 O26 1.266 . S
Co34 O37 1.970 . S
Co34 N51 1.989 1_554 S
Co34 O59 1.967 1_554 S
Co34 O66 1.920 1_554 S
Co35 O38 1.966 1_556 S
Co35 N44 2.022 . S
Co35 N52 1.993 . S
Co35 O60 1.941 1_455 S
C36 O37 1.258 . S
C36 O38 1.263 . S
O37 Co34 1.970 . S
O37 C36 1.258 . S
O38 Co35 1.966 1_554 S
O38 C36 1.263 . S
C39 O40 1.235 . S
C39 O66 1.289 1_554 S
O40 C39 1.235 . S
C41 C43 1.396 1_554 S
C41 N44 1.347 1_554 S
C41 C46 1.508 . S
C42 C43 1.387 . S
C42 N45 1.341 . S
C43 C41 1.396 1_556 S
C43 C42 1.387 . S
N44 Co35 2.022 . S
N44 C41 1.347 1_556 S
N44 N45 1.369 . S
N45 C42 1.341 . S
N45 N44 1.369 . S
N45 H65 0.858 1_455 S
C46 C41 1.508 . S
C46 H47 0.961 . S
C46 H48 0.961 . S
C46 H49 0.960 . S
H47 C46 0.961 . S
H48 C46 0.961 . S
H49 C46 0.960 . S
C50 N51 1.342 . S
C50 C54 1.401 . S
C50 C55 1.499 . S
N51 Co34 1.989 1_556 S
N51 C50 1.342 . S
N51 N52 1.388 . S
N52 Co35 1.993 . S
N52 N51 1.388 . S
N52 C53 1.346 . S
C53 N52 1.346 . S
C53 C54 1.396 . S
C53 C63 1.510 . S
C54 C50 1.401 . S
C54 C53 1.396 . S
C55 C50 1.499 . S
C55 H56 0.959 . S
C55 H57 0.960 . S
C55 H58 0.961 . S
H56 C55 0.959 . S
H57 C55 0.960 . S
H58 C55 0.961 . S
O59 Co34 1.967 1_556 S
O59 C67 1.258 1_455 S
O60 Co35 1.941 1_655 S
O60 C67 1.266 . S
H61 C63 0.959 . S
H62 C63 0.961 . S
C63 C53 1.510 . S
C63 H61 0.959 . S
C63 H62 0.961 . S
C63 H64 0.960 . S
H64 C63 0.960 . S
H65 N45 0.858 1_655 S
O66 Co34 1.920 1_556 S
O66 C39 1.289 1_556 S
C67 O59 1.258 1_655 S
C67 O60 1.266 . S
Co68 O71 1.970 . S
Co68 N85 1.989 1_556 S
Co68 O93 1.967 1_556 S
Co68 O100 1.920 1_556 S
Co69 O72 1.966 1_554 S
Co69 N78 2.022 . S
Co69 N86 1.993 . S
Co69 O94 1.941 1_565 S
C70 O71 1.258 . S
C70 O72 1.263 . S
O71 Co68 1.970 . S
O71 C70 1.258 . S
O72 Co69 1.966 1_556 S
O72 C70 1.263 . S
C73 O74 1.235 . S
C73 O100 1.289 1_556 S
O74 C73 1.235 . S
C75 C77 1.396 1_556 S
C75 N78 1.347 1_556 S
C75 C80 1.508 . S
C76 C77 1.387 . S
C76 N79 1.341 . S
C77 C75 1.396 1_554 S
C77 C76 1.387 . S
N78 Co69 2.022 . S
N78 C75 1.347 1_554 S
N78 N79 1.369 . S
N79 C76 1.341 . S
N79 N78 1.369 . S
N79 H99 0.858 1_565 S
C80 C75 1.508 . S
C80 H81 0.961 . S
C80 H82 0.961 . S
C80 H83 0.960 . S
H81 C80 0.961 . S
H82 C80 0.961 . S
H83 C80 0.960 . S
C84 N85 1.342 . S
C84 C88 1.401 . S
C84 C89 1.499 . S
N85 Co68 1.989 1_554 S
N85 C84 1.342 . S
N85 N86 1.388 . S
N86 Co69 1.993 . S
N86 N85 1.388 . S
N86 C87 1.346 . S
C87 N86 1.346 . S
C87 C88 1.396 . S
C87 C97 1.510 . S
C88 C84 1.401 . S
C88 C87 1.396 . S
C89 C84 1.499 . S
C89 H90 0.959 . S
C89 H91 0.960 . S
C89 H92 0.961 . S
H90 C89 0.959 . S
H91 C89 0.960 . S
H92 C89 0.961 . S
O93 Co68 1.967 1_554 S
O93 C101 1.258 1_565 S
O94 Co69 1.941 1_545 S
O94 C101 1.266 . S
H95 C97 0.959 . S
H96 C97 0.961 . S
C97 C87 1.510 . S
C97 H95 0.959 . S
C97 H96 0.961 . S
C97 H98 0.960 . S
H98 C97 0.960 . S
H99 N79 0.858 1_545 S
O100 Co68 1.920 1_554 S
O100 C73 1.289 1_554 S
C101 O93 1.258 1_545 S
C101 O94 1.266 . S
Co102 O105 1.970 . S
Co102 N119 1.989 1_554 S
Co102 O127 1.967 1_554 S
Co102 O134 1.920 1_554 S
Co103 O106 1.966 1_556 S
Co103 N112 2.022 . S
Co103 N120 1.993 . S
Co103 O128 1.941 1_655 S
C104 O105 1.258 . S
C104 O106 1.263 . S
O105 Co102 1.970 . S
O105 C104 1.258 . S
O106 Co103 1.966 1_554 S
O106 C104 1.263 . S
C107 O108 1.235 . S
C107 O134 1.289 1_554 S
O108 C107 1.235 . S
C109 C111 1.396 1_554 S
C109 N112 1.347 1_554 S
C109 C114 1.508 . S
C110 C111 1.387 . S
C110 N113 1.341 . S
C111 C109 1.396 1_556 S
C111 C110 1.387 . S
N112 Co103 2.022 . S
N112 C109 1.347 1_556 S
N112 N113 1.369 . S
N113 C110 1.341 . S
N113 N112 1.369 . S
N113 H133 0.858 1_655 S
C114 C109 1.508 . S
C114 H115 0.961 . S
C114 H116 0.961 . S
C114 H117 0.960 . S
H115 C114 0.961 . S
H116 C114 0.961 . S
H117 C114 0.960 . S
C118 N119 1.342 . S
C118 C122 1.401 . S
C118 C123 1.499 . S
N119 Co102 1.989 1_556 S
N119 C118 1.342 . S
N119 N120 1.388 . S
N120 Co103 1.993 . S
N120 N119 1.388 . S
N120 C121 1.346 . S
C121 N120 1.346 . S
C121 C122 1.396 . S
C121 C131 1.510 . S
C122 C118 1.401 . S
C122 C121 1.396 . S
C123 C118 1.499 . S
C123 H124 0.959 . S
C123 H125 0.960 . S
C123 H126 0.961 . S
H124 C123 0.959 . S
H125 C123 0.960 . S
H126 C123 0.961 . S
O127 Co102 1.967 1_556 S
O127 C135 1.258 1_655 S
O128 Co103 1.941 1_455 S
O128 C135 1.266 . S
H129 C131 0.959 . S
H130 C131 0.961 . S
C131 C121 1.510 . S
C131 H129 0.959 . S
C131 H130 0.961 . S
C131 H132 0.960 . S
H132 C131 0.960 . S
H133 N113 0.858 1_455 S
O134 Co102 1.920 1_556 S
O134 C107 1.289 1_556 S
C135 O127 1.258 1_455 S
C135 O128 1.266 . S
Co136 O139 1.970 . S
Co136 N153 1.989 . S
Co136 O161 1.967 . S
Co136 O168 1.920 . S
Co137 O140 1.966 . S
Co137 N146 2.022 . S
Co137 N154 1.993 . S
Co137 O162 1.941 . S
C138 O139 1.258 . S
C138 O140 1.263 . S
O139 Co136 1.970 . S
O139 C138 1.258 . S
O140 Co137 1.966 . S
O140 C138 1.263 . S
C141 O142 1.235 . S
C141 O168 1.289 . S
O142 C141 1.235 . S
C143 C145 1.400 . S
C143 N146 1.351 . S
C143 C148 1.501 . S
C144 C145 1.387 . S
C144 N147 1.341 . S
C145 C143 1.400 . S
C145 C144 1.387 . S
N146 Co137 2.022 . S
N146 C143 1.351 . S
N146 N147 1.365 . S
N147 C144 1.341 . S
N147 N146 1.365 . S
N147 H167 0.862 . S
C148 C143 1.501 . S
C148 H149 0.961 . S
C148 H150 0.961 . S
C148 H151 0.960 . S
H149 C148 0.961 . S
H150 C148 0.961 . S
H151 C148 0.960 . S
C152 N153 1.342 . S
C152 C156 1.401 . S
C152 C157 1.499 . S
N153 Co136 1.989 . S
N153 C152 1.342 . S
N153 N154 1.388 . S
N154 Co137 1.993 . S
N154 N153 1.388 . S
N154 C155 1.346 . S
C155 N154 1.346 . S
C155 C156 1.396 . S
C155 C165 1.510 . S
C156 C152 1.401 . S
C156 C155 1.396 . S
C157 C152 1.499 . S
C157 H158 0.959 . S
C157 H159 0.960 . S
C157 H160 0.961 . S
H158 C157 0.959 . S
H159 C157 0.960 . S
H160 C157 0.961 . S
O161 Co136 1.967 . S
O161 C169 1.258 . S
O162 Co137 1.941 . S
O162 C169 1.266 . S
H163 C165 0.959 . S
H164 C165 0.961 . S
C165 C155 1.510 . S
C165 H163 0.959 . S
C165 H164 0.961 . S
C165 H166 0.960 . S
H166 C165 0.960 . S
H167 N147 0.862 . S
O168 Co136 1.920 . S
O168 C141 1.289 . S
C169 O161 1.258 . S
C169 O162 1.266 . S
Co170 O173 1.970 . S
Co170 N187 1.989 . S
Co170 O195 1.967 . S
Co170 O202 1.920 . S
Co171 O174 1.966 . S
Co171 N180 2.022 . S
Co171 N188 1.993 . S
Co171 O196 1.941 . S
C172 O173 1.258 . S
C172 O174 1.263 . S
O173 Co170 1.970 . S
O173 C172 1.258 . S
O174 Co171 1.966 . S
O174 C172 1.263 . S
C175 O176 1.235 . S
C175 O202 1.289 . S
O176 C175 1.235 . S
C177 C179 1.400 . S
C177 N180 1.351 . S
C177 C182 1.501 . S
C178 C179 1.387 . S
C178 N181 1.341 . S
C179 C177 1.400 . S
C179 C178 1.387 . S
N180 Co171 2.022 . S
N180 C177 1.351 . S
N180 N181 1.365 . S
N181 C178 1.341 . S
N181 N180 1.365 . S
N181 H201 0.862 . S
C182 C177 1.501 . S
C182 H183 0.961 . S
C182 H184 0.961 . S
C182 H185 0.960 . S
H183 C182 0.961 . S
H184 C182 0.961 . S
H185 C182 0.960 . S
C186 N187 1.342 . S
C186 C190 1.401 . S
C186 C191 1.499 . S
N187 Co170 1.989 . S
N187 C186 1.342 . S
N187 N188 1.388 . S
N188 Co171 1.993 . S
N188 N187 1.388 . S
N188 C189 1.346 . S
C189 N188 1.346 . S
C189 C190 1.396 . S
C189 C199 1.510 . S
C190 C186 1.401 . S
C190 C189 1.396 . S
C191 C186 1.499 . S
C191 H192 0.959 . S
C191 H193 0.960 . S
C191 H194 0.961 . S
H192 C191 0.959 . S
H193 C191 0.960 . S
H194 C191 0.961 . S
O195 Co170 1.967 . S
O195 C203 1.258 . S
O196 Co171 1.941 . S
O196 C203 1.266 . S
H197 C199 0.959 . S
H198 C199 0.961 . S
C199 C189 1.510 . S
C199 H197 0.959 . S
C199 H198 0.961 . S
C199 H200 0.960 . S
H200 C199 0.960 . S
H201 N181 0.862 . S
O202 Co170 1.920 . S
O202 C175 1.289 . S
C203 O195 1.258 . S
C203 O196 1.266 . S
Co204 O207 1.970 . S
Co204 N221 1.989 . S
Co204 O229 1.967 . S
Co204 O236 1.920 . S
Co205 O208 1.966 . S
Co205 N214 2.022 . S
Co205 N222 1.993 . S
Co205 O230 1.941 . S
C206 O207 1.258 . S
C206 O208 1.263 . S
O207 Co204 1.970 . S
O207 C206 1.258 . S
O208 Co205 1.966 . S
O208 C206 1.263 . S
C209 O210 1.235 . S
C209 O236 1.289 . S
O210 C209 1.235 . S
C211 C213 1.400 . S
C211 N214 1.351 . S
C211 C216 1.501 . S
C212 C213 1.387 . S
C212 N215 1.341 . S
C213 C211 1.400 . S
C213 C212 1.387 . S
N214 Co205 2.022 . S
N214 C211 1.351 . S
N214 N215 1.365 . S
N215 C212 1.341 . S
N215 N214 1.365 . S
N215 H235 0.862 . S
C216 C211 1.501 . S
C216 H217 0.961 . S
C216 H218 0.961 . S
C216 H219 0.960 . S
H217 C216 0.961 . S
H218 C216 0.961 . S
H219 C216 0.960 . S
C220 N221 1.342 . S
C220 C224 1.401 . S
C220 C225 1.499 . S
N221 Co204 1.989 . S
N221 C220 1.342 . S
N221 N222 1.388 . S
N222 Co205 1.993 . S
N222 N221 1.388 . S
N222 C223 1.346 . S
C223 N222 1.346 . S
C223 C224 1.396 . S
C223 C233 1.510 . S
C224 C220 1.401 . S
C224 C223 1.396 . S
C225 C220 1.499 . S
C225 H226 0.959 . S
C225 H227 0.960 . S
C225 H228 0.961 . S
H226 C225 0.959 . S
H227 C225 0.960 . S
H228 C225 0.961 . S
O229 Co204 1.967 . S
O229 C237 1.258 . S
O230 Co205 1.941 . S
O230 C237 1.266 . S
H231 C233 0.959 . S
H232 C233 0.961 . S
C233 C223 1.510 . S
C233 H231 0.959 . S
C233 H232 0.961 . S
C233 H234 0.960 . S
H234 C233 0.960 . S
H235 N215 0.862 . S
O236 Co204 1.920 . S
O236 C209 1.289 . S
C237 O229 1.258 . S
C237 O230 1.266 . S
Co238 O241 1.970 . S
Co238 N255 1.989 . S
Co238 O263 1.967 . S
Co238 O270 1.920 . S
Co239 O242 1.966 . S
Co239 N248 2.022 . S
Co239 N256 1.993 . S
Co239 O264 1.941 . S
C240 O241 1.258 . S
C240 O242 1.263 . S
O241 Co238 1.970 . S
O241 C240 1.258 . S
O242 Co239 1.966 . S
O242 C240 1.263 . S
C243 O244 1.235 . S
C243 O270 1.289 . S
O244 C243 1.235 . S
C245 C247 1.400 . S
C245 N248 1.351 . S
C245 C250 1.501 . S
C246 C247 1.387 . S
C246 N249 1.341 . S
C247 C245 1.400 . S
C247 C246 1.387 . S
N248 Co239 2.022 . S
N248 C245 1.351 . S
N248 N249 1.365 . S
N249 C246 1.341 . S
N249 N248 1.365 . S
N249 H269 0.862 . S
C250 C245 1.501 . S
C250 H251 0.961 . S
C250 H252 0.961 . S
C250 H253 0.960 . S
H251 C250 0.961 . S
H252 C250 0.961 . S
H253 C250 0.960 . S
C254 N255 1.342 . S
C254 C258 1.401 . S
C254 C259 1.499 . S
N255 Co238 1.989 . S
N255 C254 1.342 . S
N255 N256 1.388 . S
N256 Co239 1.993 . S
N256 N255 1.388 . S
N256 C257 1.346 . S
C257 N256 1.346 . S
C257 C258 1.396 . S
C257 C267 1.510 . S
C258 C254 1.401 . S
C258 C257 1.396 . S
C259 C254 1.499 . S
C259 H260 0.959 . S
C259 H261 0.960 . S
C259 H262 0.961 . S
H260 C259 0.959 . S
H261 C259 0.960 . S
H262 C259 0.961 . S
O263 Co238 1.967 . S
O263 C271 1.258 . S
O264 Co239 1.941 . S
O264 C271 1.266 . S
H265 C267 0.959 . S
H266 C267 0.961 . S
C267 C257 1.510 . S
C267 H265 0.959 . S
C267 H266 0.961 . S
C267 H268 0.960 . S
H268 C267 0.960 . S
H269 N249 0.862 . S
O270 Co238 1.920 . S
O270 C243 1.289 . S
C271 O263 1.258 . S
C271 O264 1.266 . S
Co272 O275 1.970 . S
Co272 N289 1.989 . S
Co272 O297 1.967 . S
Co272 O304 1.920 . S
Co273 O276 1.966 . S
Co273 N282 2.022 . S
Co273 N290 1.993 . S
Co273 O298 1.941 . S
C274 O275 1.258 . S
C274 O276 1.263 . S
O275 Co272 1.970 . S
O275 C274 1.258 . S
O276 Co273 1.966 . S
O276 C274 1.263 . S
C277 O278 1.235 . S
C277 O304 1.289 . S
O278 C277 1.235 . S
C279 C281 1.400 . S
C279 N282 1.351 . S
C279 C284 1.501 . S
C280 C281 1.387 . S
C280 N283 1.341 . S
C281 C279 1.400 . S
C281 C280 1.387 . S
N282 Co273 2.022 . S
N282 C279 1.351 . S
N282 N283 1.365 . S
N283 C280 1.341 . S
N283 N282 1.365 . S
N283 H303 0.862 . S
C284 C279 1.501 . S
C284 H285 0.961 . S
C284 H286 0.961 . S
C284 H287 0.960 . S
H285 C284 0.961 . S
H286 C284 0.961 . S
H287 C284 0.960 . S
C288 N289 1.342 . S
C288 C292 1.401 . S
C288 C293 1.499 . S
N289 Co272 1.989 . S
N289 C288 1.342 . S
N289 N290 1.388 . S
N290 Co273 1.993 . S
N290 N289 1.388 . S
N290 C291 1.346 . S
C291 N290 1.346 . S
C291 C292 1.396 . S
C291 C301 1.510 . S
C292 C288 1.401 . S
C292 C291 1.396 . S
C293 C288 1.499 . S
C293 H294 0.959 . S
C293 H295 0.960 . S
C293 H296 0.961 . S
H294 C293 0.959 . S
H295 C293 0.960 . S
H296 C293 0.961 . S
O297 Co272 1.967 . S
O297 C305 1.258 . S
O298 Co273 1.941 . S
O298 C305 1.266 . S
H299 C301 0.959 . S
H300 C301 0.961 . S
C301 C291 1.510 . S
C301 H299 0.959 . S
C301 H300 0.961 . S
C301 H302 0.960 . S
H302 C301 0.960 . S
H303 N283 0.862 . S
O304 Co272 1.920 . S
O304 C277 1.289 . S
C305 O297 1.258 . S
C305 O298 1.266 . S
Co306 O309 1.970 . S
Co306 N323 1.989 . S
Co306 O331 1.967 . S
Co306 O338 1.920 . S
Co307 O310 1.966 . S
Co307 N316 2.022 . S
Co307 N324 1.993 . S
Co307 O332 1.941 . S
C308 O309 1.258 . S
C308 O310 1.263 . S
O309 Co306 1.970 . S
O309 C308 1.258 . S
O310 Co307 1.966 . S
O310 C308 1.263 . S
C311 O312 1.235 . S
C311 O338 1.289 . S
O312 C311 1.235 . S
C313 C315 1.400 . S
C313 N316 1.351 . S
C313 C318 1.501 . S
C314 C315 1.387 . S
C314 N317 1.341 . S
C315 C313 1.400 . S
C315 C314 1.387 . S
N316 Co307 2.022 . S
N316 C313 1.351 . S
N316 N317 1.365 . S
N317 C314 1.341 . S
N317 N316 1.365 . S
N317 H337 0.862 . S
C318 C313 1.501 . S
C318 H319 0.961 . S
C318 H320 0.961 . S
C318 H321 0.960 . S
H319 C318 0.961 . S
H320 C318 0.961 . S
H321 C318 0.960 . S
C322 N323 1.342 . S
C322 C326 1.401 . S
C322 C327 1.499 . S
N323 Co306 1.989 . S
N323 C322 1.342 . S
N323 N324 1.388 . S
N324 Co307 1.993 . S
N324 N323 1.388 . S
N324 C325 1.346 . S
C325 N324 1.346 . S
C325 C326 1.396 . S
C325 C335 1.510 . S
C326 C322 1.401 . S
C326 C325 1.396 . S
C327 C322 1.499 . S
C327 H328 0.959 . S
C327 H329 0.960 . S
C327 H330 0.961 . S
H328 C327 0.959 . S
H329 C327 0.960 . S
H330 C327 0.961 . S
O331 Co306 1.967 . S
O331 C339 1.258 . S
O332 Co307 1.941 . S
O332 C339 1.266 . S
H333 C335 0.959 . S
H334 C335 0.961 . S
C335 C325 1.510 . S
C335 H333 0.959 . S
C335 H334 0.961 . S
C335 H336 0.960 . S
H336 C335 0.960 . S
H337 N317 0.862 . S
O338 Co306 1.920 . S
O338 C311 1.289 . S
C339 O331 1.258 . S
C339 O332 1.266 . S
Co340 O343 1.970 . S
Co340 N357 1.989 . S
Co340 O365 1.967 . S
Co340 O372 1.920 . S
Co341 O344 1.966 . S
Co341 N350 2.022 . S
Co341 N358 1.993 . S
Co341 O366 1.941 . S
C342 O343 1.258 . S
C342 O344 1.263 . S
O343 Co340 1.970 . S
O343 C342 1.258 . S
O344 Co341 1.966 . S
O344 C342 1.263 . S
C345 O346 1.235 . S
C345 O372 1.289 . S
O346 C345 1.235 . S
C347 C349 1.400 . S
C347 N350 1.351 . S
C347 C352 1.501 . S
C348 C349 1.387 . S
C348 N351 1.341 . S
C349 C347 1.400 . S
C349 C348 1.387 . S
N350 Co341 2.022 . S
N350 C347 1.351 . S
N350 N351 1.365 . S
N351 C348 1.341 . S
N351 N350 1.365 . S
N351 H371 0.862 . S
C352 C347 1.501 . S
C352 H353 0.961 . S
C352 H354 0.961 . S
C352 H355 0.960 . S
H353 C352 0.961 . S
H354 C352 0.961 . S
H355 C352 0.960 . S
C356 N357 1.342 . S
C356 C360 1.401 . S
C356 C361 1.499 . S
N357 Co340 1.989 . S
N357 C356 1.342 . S
N357 N358 1.388 . S
N358 Co341 1.993 . S
N358 N357 1.388 . S
N358 C359 1.346 . S
C359 N358 1.346 . S
C359 C360 1.396 . S
C359 C369 1.510 . S
C360 C356 1.401 . S
C360 C359 1.396 . S
C361 C356 1.499 . S
C361 H362 0.959 . S
C361 H363 0.960 . S
C361 H364 0.961 . S
H362 C361 0.959 . S
H363 C361 0.960 . S
H364 C361 0.961 . S
O365 Co340 1.967 . S
O365 C373 1.258 . S
O366 Co341 1.941 . S
O366 C373 1.266 . S
H367 C369 0.959 . S
H368 C369 0.961 . S
C369 C359 1.510 . S
C369 H367 0.959 . S
C369 H368 0.961 . S
C369 H370 0.960 . S
H370 C369 0.960 . S
H371 N351 0.862 . S
O372 Co340 1.920 . S
O372 C345 1.289 . S
C373 O365 1.258 . S
C373 O366 1.266 . S
Co374 O377 1.970 . S
Co374 N391 1.989 . S
Co374 O399 1.967 . S
Co374 O406 1.920 . S
Co375 O378 1.966 . S
Co375 N384 2.022 . S
Co375 N392 1.993 . S
Co375 O400 1.941 . S
C376 O377 1.258 . S
C376 O378 1.263 . S
O377 Co374 1.970 . S
O377 C376 1.258 . S
O378 Co375 1.966 . S
O378 C376 1.263 . S
C379 O380 1.235 . S
C379 O406 1.289 . S
O380 C379 1.235 . S
C381 C383 1.400 . S
C381 N384 1.351 . S
C381 C386 1.501 . S
C382 C383 1.387 . S
C382 N385 1.341 . S
C383 C381 1.400 . S
C383 C382 1.387 . S
N384 Co375 2.022 . S
N384 C381 1.351 . S
N384 N385 1.365 . S
N385 C382 1.341 . S
N385 N384 1.365 . S
N385 H405 0.862 . S
C386 C381 1.501 . S
C386 H387 0.961 . S
C386 H388 0.961 . S
C386 H389 0.960 . S
H387 C386 0.961 . S
H388 C386 0.961 . S
H389 C386 0.960 . S
C390 N391 1.342 . S
C390 C394 1.401 . S
C390 C395 1.499 . S
N391 Co374 1.989 . S
N391 C390 1.342 . S
N391 N392 1.388 . S
N392 Co375 1.993 . S
N392 N391 1.388 . S
N392 C393 1.346 . S
C393 N392 1.346 . S
C393 C394 1.396 . S
C393 C403 1.510 . S
C394 C390 1.401 . S
C394 C393 1.396 . S
C395 C390 1.499 . S
C395 H396 0.959 . S
C395 H397 0.960 . S
C395 H398 0.961 . S
H396 C395 0.959 . S
H397 C395 0.960 . S
H398 C395 0.961 . S
O399 Co374 1.967 . S
O399 C407 1.258 . S
O400 Co375 1.941 . S
O400 C407 1.266 . S
H401 C403 0.959 . S
H402 C403 0.961 . S
C403 C393 1.510 . S
C403 H401 0.959 . S
C403 H402 0.961 . S
C403 H404 0.960 . S
H404 C403 0.960 . S
H405 N385 0.862 . S
O406 Co374 1.920 . S
O406 C379 1.289 . S
C407 O399 1.258 . S
C407 O400 1.266 . S
Co408 O411 1.970 . S
Co408 N425 1.989 . S
Co408 O433 1.967 . S
Co408 O440 1.920 . S
Co409 O412 1.966 . S
Co409 N418 2.022 . S
Co409 N426 1.993 . S
Co409 O434 1.941 1_565 S
C410 O411 1.258 . S
C410 O412 1.263 . S
O411 Co408 1.970 . S
O411 C410 1.258 . S
O412 Co409 1.966 . S
O412 C410 1.263 . S
C413 O414 1.235 . S
C413 O440 1.289 . S
O414 C413 1.235 . S
C415 C417 1.400 . S
C415 N418 1.351 . S
C415 C420 1.501 . S
C416 C417 1.387 . S
C416 N419 1.341 . S
C417 C415 1.400 . S
C417 C416 1.387 . S
N418 Co409 2.022 . S
N418 C415 1.351 . S
N418 N419 1.369 . S
N419 C416 1.341 . S
N419 N418 1.369 . S
N419 H439 0.858 1_565 S
C420 C415 1.501 . S
C420 H421 0.961 . S
C420 H422 0.961 . S
C420 H423 0.960 . S
H421 C420 0.961 . S
H422 C420 0.961 . S
H423 C420 0.960 . S
C424 N425 1.342 . S
C424 C428 1.401 . S
C424 C429 1.499 . S
N425 Co408 1.989 . S
N425 C424 1.342 . S
N425 N426 1.388 . S
N426 Co409 1.993 . S
N426 N425 1.388 . S
N426 C427 1.346 . S
C427 N426 1.346 . S
C427 C428 1.396 . S
C427 C437 1.510 . S
C428 C424 1.401 . S
C428 C427 1.396 . S
C429 C424 1.499 . S
C429 H430 0.959 . S
C429 H431 0.960 . S
C429 H432 0.961 . S
H430 C429 0.959 . S
H431 C429 0.960 . S
H432 C429 0.961 . S
O433 Co408 1.967 . S
O433 C441 1.258 1_565 S
O434 Co409 1.941 1_545 S
O434 C441 1.266 . S
H435 C437 0.959 . S
H436 C437 0.961 . S
C437 C427 1.510 . S
C437 H435 0.959 . S
C437 H436 0.961 . S
C437 H438 0.960 . S
H438 C437 0.960 . S
H439 N419 0.858 1_545 S
O440 Co408 1.920 . S
O440 C413 1.289 . S
C441 O433 1.258 1_545 S
C441 O434 1.266 . S
Co442 O445 1.970 . S
Co442 N459 1.989 . S
Co442 O467 1.967 . S
Co442 O474 1.920 . S
Co443 O446 1.966 . S
Co443 N452 2.022 . S
Co443 N460 1.993 . S
Co443 O468 1.941 1_655 S
C444 O445 1.258 . S
C444 O446 1.263 . S
O445 Co442 1.970 . S
O445 C444 1.258 . S
O446 Co443 1.966 . S
O446 C444 1.263 . S
C447 O448 1.235 . S
C447 O474 1.289 . S
O448 C447 1.235 . S
C449 C451 1.400 . S
C449 N452 1.351 . S
C449 C454 1.501 . S
C450 C451 1.387 . S
C450 N453 1.341 . S
C451 C449 1.400 . S
C451 C450 1.387 . S
N452 Co443 2.022 . S
N452 C449 1.351 . S
N452 N453 1.369 . S
N453 C450 1.341 . S
N453 N452 1.369 . S
N453 H473 0.858 1_655 S
C454 C449 1.501 . S
C454 H455 0.961 . S
C454 H456 0.961 . S
C454 H457 0.960 . S
H455 C454 0.961 . S
H456 C454 0.961 . S
H457 C454 0.960 . S
C458 N459 1.342 . S
C458 C462 1.401 . S
C458 C463 1.499 . S
N459 Co442 1.989 . S
N459 C458 1.342 . S
N459 N460 1.388 . S
N460 Co443 1.993 . S
N460 N459 1.388 . S
N460 C461 1.346 . S
C461 N460 1.346 . S
C461 C462 1.396 . S
C461 C471 1.510 . S
C462 C458 1.401 . S
C462 C461 1.396 . S
C463 C458 1.499 . S
C463 H464 0.959 . S
C463 H465 0.960 . S
C463 H466 0.961 . S
H464 C463 0.959 . S
H465 C463 0.960 . S
H466 C463 0.961 . S
O467 Co442 1.967 . S
O467 C475 1.258 1_655 S
O468 Co443 1.941 1_455 S
O468 C475 1.266 . S
H469 C471 0.959 . S
H470 C471 0.961 . S
C471 C461 1.510 . S
C471 H469 0.959 . S
C471 H470 0.961 . S
C471 H472 0.960 . S
H472 C471 0.960 . S
H473 N453 0.858 1_455 S
O474 Co442 1.920 . S
O474 C447 1.289 . S
C475 O467 1.258 1_455 S
C475 O468 1.266 . S
Co476 O479 1.970 . S
Co476 N493 1.989 . S
Co476 O501 1.967 . S
Co476 O508 1.920 . S
Co477 O480 1.966 . S
Co477 N486 2.022 . S
Co477 N494 1.993 . S
Co477 O502 1.941 1_545 S
C478 O479 1.258 . S
C478 O480 1.263 . S
O479 Co476 1.970 . S
O479 C478 1.258 . S
O480 Co477 1.966 . S
O480 C478 1.263 . S
C481 O482 1.235 . S
C481 O508 1.289 . S
O482 C481 1.235 . S
C483 C485 1.400 . S
C483 N486 1.351 . S
C483 C488 1.501 . S
C484 C485 1.387 . S
C484 N487 1.341 . S
C485 C483 1.400 . S
C485 C484 1.387 . S
N486 Co477 2.022 . S
N486 C483 1.351 . S
N486 N487 1.369 . S
N487 C484 1.341 . S
N487 N486 1.369 . S
N487 H507 0.858 1_545 S
C488 C483 1.501 . S
C488 H489 0.961 . S
C488 H490 0.961 . S
C488 H491 0.960 . S
H489 C488 0.961 . S
H490 C488 0.961 . S
H491 C488 0.960 . S
C492 N493 1.342 . S
C492 C496 1.401 . S
C492 C497 1.499 . S
N493 Co476 1.989 . S
N493 C492 1.342 . S
N493 N494 1.388 . S
N494 Co477 1.993 . S
N494 N493 1.388 . S
N494 C495 1.346 . S
C495 N494 1.346 . S
C495 C496 1.396 . S
C495 C505 1.510 . S
C496 C492 1.401 . S
C496 C495 1.396 . S
C497 C492 1.499 . S
C497 H498 0.959 . S
C497 H499 0.960 . S
C497 H500 0.961 . S
H498 C497 0.959 . S
H499 C497 0.960 . S
H500 C497 0.961 . S
O501 Co476 1.967 . S
O501 C509 1.258 1_545 S
O502 Co477 1.941 1_565 S
O502 C509 1.266 . S
H503 C505 0.959 . S
H504 C505 0.961 . S
C505 C495 1.510 . S
C505 H503 0.959 . S
C505 H504 0.961 . S
C505 H506 0.960 . S
H506 C505 0.960 . S
H507 N487 0.858 1_565 S
O508 Co476 1.920 . S
O508 C481 1.289 . S
C509 O501 1.258 1_565 S
C509 O502 1.266 . S
Co510 O513 1.970 . S
Co510 N527 1.989 . S
Co510 O535 1.967 . S
Co510 O542 1.920 . S
Co511 O514 1.966 . S
Co511 N520 2.022 . S
Co511 N528 1.993 . S
Co511 O536 1.941 1_455 S
C512 O513 1.258 . S
C512 O514 1.263 . S
O513 Co510 1.970 . S
O513 C512 1.258 . S
O514 Co511 1.966 . S
O514 C512 1.263 . S
C515 O516 1.235 . S
C515 O542 1.289 . S
O516 C515 1.235 . S
C517 C519 1.400 . S
C517 N520 1.351 . S
C517 C522 1.501 . S
C518 C519 1.387 . S
C518 N521 1.341 . S
C519 C517 1.400 . S
C519 C518 1.387 . S
N520 Co511 2.022 . S
N520 C517 1.351 . S
N520 N521 1.369 . S
N521 C518 1.341 . S
N521 N520 1.369 . S
N521 H541 0.858 1_455 S
C522 C517 1.501 . S
C522 H523 0.961 . S
C522 H524 0.961 . S
C522 H525 0.960 . S
H523 C522 0.961 . S
H524 C522 0.961 . S
H525 C522 0.960 . S
C526 N527 1.342 . S
C526 C530 1.401 . S
C526 C531 1.499 . S
N527 Co510 1.989 . S
N527 C526 1.342 . S
N527 N528 1.388 . S
N528 Co511 1.993 . S
N528 N527 1.388 . S
N528 C529 1.346 . S
C529 N528 1.346 . S
C529 C530 1.396 . S
C529 C539 1.510 . S
C530 C526 1.401 . S
C530 C529 1.396 . S
C531 C526 1.499 . S
C531 H532 0.959 . S
C531 H533 0.960 . S
C531 H534 0.961 . S
H532 C531 0.959 . S
H533 C531 0.960 . S
H534 C531 0.961 . S
O535 Co510 1.967 . S
O535 C543 1.258 1_455 S
O536 Co511 1.941 1_655 S
O536 C543 1.266 . S
H537 C539 0.959 . S
H538 C539 0.961 . S
C539 C529 1.510 . S
C539 H537 0.959 . S
C539 H538 0.961 . S
C539 H540 0.960 . S
H540 C539 0.960 . S
H541 N521 0.858 1_655 S
O542 Co510 1.920 . S
O542 C515 1.289 . S
C543 O535 1.258 1_655 S
C543 O536 1.266 . S
C2 C478 1.696 . S
C36 C512 1.696 . S
C70 C410 1.696 . S
C104 C444 1.696 . S
C138 C342 1.696 . S
C172 C376 1.696 . S
C274 C206 1.696 . S
C308 C240 1.696 . S
C33 C39 1.090 . S
C67 C73 1.090 . S
C101 C107 1.090 . S
C5 C135 1.090 . S
C515 C169 1.090 . S
C413 C203 1.090 . S
C447 C237 1.090 . S
C481 C271 1.090 . S
C305 C311 1.090 . S
C339 C345 1.090 . S
C379 C373 1.090 . S
C407 C277 1.090 . S
C441 C243 1.090 . S
C141 C475 1.090 . S
C175 C509 1.090 . S
C543 C209 1.090 . S
C9 C77 1.547 1_545 S
C43 C111 1.547 1_455 S
C213 C145 1.547 . S
C247 C179 1.547 . S
C281 C349 1.547 1_655 S
C315 C383 1.547 1_545 S
C417 C485 1.547 1_665 S
C451 C519 1.547 1_645 S
C156 C20 2.771 . S
C190 C54 2.771 . S
C88 C224 2.771 . S
C258 C122 2.771 . S
C292 C428 2.771 . S
C462 C326 2.771 . S
C496 C360 2.771 . S
C394 C530 2.771 . S
