# Generated by pormake.
# Topology sof, (5)-cn, num edge types: 1
# Building blocks:
#     Node 0, Type 0, BuildingBlock: BEQFEK_clean_sbu_0, # of connection points: 5
#     Node 1, Type 0, BuildingBlock: BEQFEK_clean_sbu_0, # of connection points: 5
#     Node 2, Type 0, BuildingBlock: BEQFEK_clean_sbu_0, # of connection points: 5
#     Node 3, Type 0, BuildingBlock: BEQFEK_clean_sbu_0, # of connection points: 5
#     Node 4, Type 0, BuildingBlock: BEQFEK_clean_sbu_0, # of connection points: 5
#     Node 5, Type 0, BuildingBlock: BEQFEK_clean_sbu_0, # of connection points: 5
#     Node 6, Type 0, BuildingBlock: BEQFEK_clean_sbu_0, # of connection points: 5
#     Node 7, Type 0, BuildingBlock: BEQFEK_clean_sbu_0, # of connection points: 5
#     Edge 8, Type (0, 0), BuildingBlock: ZUJKAS_clean_linker_0, # of connection points: 2
#     Edge 9, Type (0, 0), BuildingBlock: ZUJKAS_clean_linker_0, # of connection points: 2
#     Edge 10, Type (0, 0), BuildingBlock: ZUJKAS_clean_linker_0, # of connection points: 2
#     Edge 11, Type (0, 0), BuildingBlock: ZUJKAS_clean_linker_0, # of connection points: 2
#     Edge 12, Type (0, 0), BuildingBlock: ZUJKAS_clean_linker_0, # of connection points: 2
#     Edge 13, Type (0, 0), BuildingBlock: ZUJKAS_clean_linker_0, # of connection points: 2
#     Edge 14, Type (0, 0), BuildingBlock: ZUJKAS_clean_linker_0, # of connection points: 2
#     Edge 15, Type (0, 0), BuildingBlock: ZUJKAS_clean_linker_0, # of connection points: 2
#     Edge 16, Type (0, 0), BuildingBlock: ZUJKAS_clean_linker_0, # of connection points: 2
#     Edge 17, Type (0, 0), BuildingBlock: ZUJKAS_clean_linker_0, # of connection points: 2
#     Edge 18, Type (0, 0), BuildingBlock: ZUJKAS_clean_linker_0, # of connection points: 2
#     Edge 19, Type (0, 0), BuildingBlock: ZUJKAS_clean_linker_0, # of connection points: 2
#     Edge 20, Type (0, 0), BuildingBlock: ZUJKAS_clean_linker_0, # of connection points: 2
#     Edge 21, Type (0, 0), BuildingBlock: ZUJKAS_clean_linker_0, # of connection points: 2
#     Edge 22, Type (0, 0), BuildingBlock: ZUJKAS_clean_linker_0, # of connection points: 2
#     Edge 23, Type (0, 0), BuildingBlock: ZUJKAS_clean_linker_0, # of connection points: 2
#     Edge 24, Type (0, 0), BuildingBlock: ZUJKAS_clean_linker_0, # of connection points: 2
#     Edge 25, Type (0, 0), BuildingBlock: ZUJKAS_clean_linker_0, # of connection points: 2
#     Edge 26, Type (0, 0), BuildingBlock: ZUJKAS_clean_linker_0, # of connection points: 2
#     Edge 27, Type (0, 0), BuildingBlock: ZUJKAS_clean_linker_0, # of connection points: 2
# Relax obj value: 0.143
# Max RMSD: 0.163
# Mean RMSD: 0.163
data_MOF--net-sof--node1-BEQFEK_clean_sbu_0--edge1-ZUJKAS_clean_linker_0
_symmetry_space_group_name_H-M    P1
_symmetry_Int_Tables_number       1
_symmetry_cell_setting            triclinic
loop_
_symmetry_equiv_pos_as_xyz
'x, y, z'
_cell_length_a     75.401598
_cell_length_b     23.169294
_cell_length_c     56.808379
_cell_angle_alpha  89.988305
_cell_angle_beta   89.981784
_cell_angle_gamma 89.971265
loop_
_atom_site_label
_atom_site_type_symbol
_atom_site_fract_x
_atom_site_fract_y
_atom_site_fract_z
_atom_type_partial_charge
Co0 Co 0.12846 0.12347 0.08444 0.0
Co1 Co 0.12342 0.00296 0.10746 0.0
C2 C 0.15773 0.03875 0.08383 0.0
O3 O 0.15166 0.08753 0.07745 0.0
O4 O 0.14823 0.00368 0.09559 0.0
C5 C 0.14122 0.23207 0.0724 0.0
O6 O 0.15546 0.20985 0.08218 0.0
C7 C 0.12296 0.87963 0.10286 0.0
C8 C 0.11031 0.84942 0.13571 0.0
C9 C 0.11782 0.83026 0.11482 0.0
N10 N 0.11883 0.92557 0.11609 0.0
N11 N 0.1113 0.9075 0.13576 0.0
C12 C 0.13051 0.88422 0.07855 0.0
H13 H 0.12707 0.92653 0.07062 0.0
H14 H 0.1255 0.8489 0.06716 0.0
H15 H 0.14518 0.88123 0.07953 0.0
C16 C 0.09637 0.08693 0.05827 0.0
N17 N 0.10949 0.07727 0.07385 0.0
N18 N 0.10697 0.02698 0.08404 0.0
C19 C 0.09198 0.00325 0.07548 0.0
C20 C 0.0848 0.04029 0.05875 0.0
C21 C 0.09512 0.1398 0.04324 0.0
H22 H 0.10848 0.15171 0.03667 0.0
H23 H 0.08609 0.13299 0.02807 0.0
H24 H 0.09007 0.17614 0.05406 0.0
O25 O 0.12619 0.13792 0.11883 0.0
O26 O 0.12172 0.05271 0.13562 0.0
H27 H 0.06943 0.94674 0.08065 0.0
H28 H 0.09051 0.91123 0.07685 0.0
C29 C 0.08378 0.94903 0.08482 0.0
H30 H 0.08546 0.94692 0.10418 0.0
H31 H 0.10679 0.93473 0.14912 0.0
O32 O 0.12756 0.2006 0.07007 0.0
C33 C 0.12342 0.10727 0.13708 0.0
Co34 Co 0.37594 0.86221 0.08744 0.0
Co35 Co 0.37829 0.9879 0.10673 0.0
C36 C 0.34468 0.93785 0.08511 0.0
O37 O 0.35175 0.88963 0.07995 0.0
O38 O 0.3535 0.97707 0.09554 0.0
C39 C 0.36974 0.75793 0.06023 0.0
O40 O 0.35672 0.7861 0.05 0.0
C41 C 0.37768 0.11101 0.09691 0.0
C42 C 0.38759 0.14931 0.12999 0.0
C43 C 0.38181 0.16322 0.10751 0.0
N44 N 0.38115 0.06831 0.11225 0.0
N45 N 0.38703 0.09141 0.13202 0.0
C46 C 0.36989 0.10164 0.07294 0.0
H47 H 0.36365 0.05865 0.07155 0.0
H48 H 0.38053 0.1037 0.0595 0.0
H49 H 0.35997 0.13564 0.0689 0.0
C50 C 0.40728 0.90102 0.06036 0.0
N51 N 0.39367 0.91119 0.07516 0.0
N52 N 0.39531 0.9632 0.08416 0.0
C53 C 0.41033 0.98736 0.07581 0.0
C54 C 0.41831 0.94894 0.0603 0.0
C55 C 0.41052 0.84424 0.04857 0.0
H56 H 0.41257 0.81057 0.0622 0.0
H57 H 0.39865 0.83203 0.03818 0.0
H58 H 0.42231 0.84554 0.0369 0.0
O59 O 0.37872 0.85574 0.12206 0.0
O60 O 0.38135 0.94434 0.13652 0.0
H61 H 0.41581 0.05014 0.10259 0.0
H62 H 0.43131 0.0514 0.07829 0.0
C63 C 0.41724 0.04514 0.08328 0.0
H64 H 0.40941 0.07943 0.07456 0.0
H65 H 0.39067 0.06767 0.14687 0.0
O66 O 0.37918 0.78317 0.07559 0.0
C67 C 0.38089 0.88981 0.13943 0.0
Co68 Co 0.12827 0.3699 0.41597 0.0
Co69 Co 0.12442 0.49082 0.39273 0.0
C70 C 0.15828 0.45198 0.41662 0.0
O71 O 0.15165 0.40429 0.4234 0.0
O72 O 0.14928 0.48758 0.40442 0.0
C73 C 0.13985 0.26016 0.43067 0.0
O74 O 0.15512 0.2802 0.42308 0.0
C75 C 0.12562 0.61518 0.39498 0.0
C76 C 0.10909 0.64254 0.36486 0.0
C77 C 0.1189 0.66338 0.38367 0.0
N78 N 0.1201 0.56807 0.38341 0.0
N79 N 0.11037 0.58453 0.36526 0.0
C80 C 0.1354 0.61302 0.41791 0.0
H81 H 0.13257 0.57191 0.4272 0.0
H82 H 0.13164 0.64985 0.42935 0.0
H83 H 0.14986 0.61524 0.4144 0.0
C84 C 0.09603 0.40867 0.44118 0.0
N85 N 0.10954 0.41778 0.42613 0.0
N86 N 0.10771 0.46877 0.41626 0.0
C87 C 0.09284 0.49378 0.42467 0.0
C88 C 0.08495 0.45654 0.44074 0.0
C89 C 0.0931 0.35296 0.45394 0.0
H90 H 0.09235 0.31726 0.44096 0.0
H91 H 0.10461 0.34427 0.46559 0.0
H92 H 0.08075 0.35351 0.46452 0.0
O93 O 0.12621 0.35495 0.38161 0.0
O94 O 0.12226 0.44042 0.36482 0.0
H95 H 0.08428 0.55309 0.39812 0.0
H96 H 0.07385 0.56427 0.42647 0.0
C97 C 0.08635 0.55224 0.41744 0.0
H98 H 0.09652 0.5849 0.42192 0.0
H99 H 0.10424 0.55616 0.35354 0.0
O100 O 0.12643 0.29324 0.43063 0.0
C101 C 0.12363 0.38576 0.36336 0.0
Co102 Co 0.37508 0.63138 0.41931 0.0
Co103 Co 0.37901 0.51091 0.39545 0.0
C104 C 0.345 0.54952 0.41913 0.0
O105 O 0.35159 0.59694 0.42629 0.0
O106 O 0.35409 0.51426 0.40687 0.0
C107 C 0.36359 0.74124 0.43445 0.0
O108 O 0.34817 0.72113 0.42749 0.0
C109 C 0.37757 0.38613 0.39671 0.0
C110 C 0.39475 0.36017 0.36702 0.0
C111 C 0.38453 0.33844 0.38527 0.0
N112 N 0.38337 0.43381 0.38574 0.0
N113 N 0.39348 0.41816 0.36784 0.0
C114 C 0.36727 0.38712 0.41925 0.0
H115 H 0.37004 0.42749 0.4291 0.0
H116 H 0.37064 0.34939 0.43043 0.0
H117 H 0.35289 0.38572 0.41515 0.0
C118 C 0.40721 0.59157 0.44448 0.0
N119 N 0.39372 0.58294 0.42937 0.0
N120 N 0.39554 0.5322 0.41929 0.0
C121 C 0.41037 0.50686 0.42764 0.0
C122 C 0.41827 0.54364 0.44387 0.0
C123 C 0.41019 0.64701 0.4574 0.0
H124 H 0.4111 0.68288 0.44452 0.0
H125 H 0.39863 0.65581 0.46895 0.0
H126 H 0.42247 0.646 0.46811 0.0
O127 O 0.37731 0.64709 0.38507 0.0
O128 O 0.38141 0.56228 0.36781 0.0
H129 H 0.41938 0.44873 0.40094 0.0
H130 H 0.42912 0.43573 0.42957 0.0
C131 C 0.41686 0.44859 0.42017 0.0
H132 H 0.40651 0.41601 0.42395 0.0
H133 H 0.39989 0.44705 0.3566 0.0
O134 O 0.377 0.70809 0.43404 0.0
C135 C 0.38003 0.61699 0.36667 0.0
Co136 Co 0.87541 0.86273 0.91617 0.0
Co137 Co 0.87895 0.98594 0.89453 0.0
C138 C 0.84496 0.94298 0.91719 0.0
O139 O 0.85153 0.89435 0.9229 0.0
O140 O 0.85416 0.98036 0.9062 0.0
C141 C 0.86522 0.75621 0.93878 0.0
O142 O 0.84965 0.78091 0.94133 0.0
C143 C 0.87771 0.10912 0.9009 0.0
C144 C 0.89061 0.14377 0.86898 0.0
C145 C 0.88259 0.1601 0.88993 0.0
N146 N 0.88249 0.06488 0.88707 0.0
N147 N 0.89013 0.08567 0.86793 0.0
C148 C 0.86994 0.10163 0.92497 0.0
H149 H 0.87353 0.05876 0.93225 0.0
H150 H 0.87464 0.13608 0.93702 0.0
H151 H 0.85527 0.10406 0.92377 0.0
C152 C 0.90659 0.9027 0.94332 0.0
N153 N 0.8935 0.9115 0.92763 0.0
N154 N 0.89549 0.96261 0.91792 0.0
C155 C 0.91013 0.98773 0.92689 0.0
C156 C 0.91762 0.95073 0.94339 0.0
C157 C 0.90836 0.84925 0.95792 0.0
H158 H 0.8951 0.83544 0.96423 0.0
H159 H 0.91719 0.85636 0.97326 0.0
H160 H 0.91388 0.81409 0.94687 0.0
O161 O 0.87828 0.85155 0.88174 0.0
O162 O 0.88159 0.93832 0.86578 0.0
H163 H 0.93207 0.04707 0.92236 0.0
H164 H 0.91059 0.07991 0.92629 0.0
C165 C 0.91777 0.04332 0.91806 0.0
H166 H 0.91615 0.04618 0.89871 0.0
H167 H 0.89518 0.06024 0.85433 0.0
O168 O 0.87786 0.78455 0.92958 0.0
C169 C 0.88075 0.88361 0.86381 0.0
Co170 Co 0.62754 0.12279 0.917 0.0
Co171 Co 0.62392 0.00095 0.89427 0.0
C172 C 0.6578 0.04119 0.91765 0.0
O173 O 0.65119 0.08941 0.92385 0.0
O174 O 0.6487 0.0046 0.9061 0.0
C175 C 0.63876 0.23196 0.93472 0.0
O176 O 0.65469 0.21154 0.93038 0.0
C177 C 0.6252 0.87639 0.8967 0.0
C178 C 0.60869 0.84903 0.86657 0.0
C179 C 0.61849 0.82819 0.8854 0.0
N180 N 0.61967 0.92352 0.88511 0.0
N181 N 0.60995 0.90704 0.86696 0.0
C182 C 0.63499 0.87848 0.91962 0.0
H183 H 0.63225 0.91973 0.92886 0.0
H184 H 0.63114 0.84181 0.9311 0.0
H185 H 0.64944 0.87578 0.91612 0.0
C186 C 0.59561 0.08335 0.94267 0.0
N187 N 0.60907 0.07432 0.92753 0.0
N188 N 0.60726 0.02323 0.91774 0.0
C189 C 0.59246 -0.00188 0.92628 0.0
C190 C 0.58459 0.03537 0.94236 0.0
C191 C 0.59262 0.13912 0.95536 0.0
H192 H 0.59132 0.17447 0.9423 0.0
H193 H 0.60434 0.14882 0.96649 0.0
H194 H 0.58053 0.13796 0.96646 0.0
O195 O 0.62517 0.13702 0.8827 0.0
O196 O 0.62177 0.05102 0.86615 0.0
H197 H 0.58393 0.93866 0.89979 0.0
H198 H 0.57344 0.9278 0.92811 0.0
C199 C 0.58596 0.93965 0.91912 0.0
H200 H 0.59611 0.90696 0.92369 0.0
H201 H 0.60383 0.93539 0.85523 0.0
O202 O 0.62538 0.19967 0.9315 0.0
C203 C 0.62281 0.10573 0.86453 0.0
Co204 Co 0.87553 0.62568 0.58469 0.0
Co205 Co 0.87908 0.50348 0.60725 0.0
C206 C 0.84515 0.54513 0.58423 0.0
O207 O 0.8519 0.59265 0.57749 0.0
O208 O 0.85415 0.50885 0.59609 0.0
C209 C 0.86428 0.73308 0.56467 0.0
O210 O 0.84843 0.70967 0.56567 0.0
C211 C 0.87691 0.37959 0.60335 0.0
C212 C 0.89247 0.34799 0.63367 0.0
C213 C 0.88274 0.32969 0.61434 0.0
N214 N 0.88283 0.42513 0.61561 0.0
N215 N 0.89202 0.40615 0.63384 0.0
C216 C 0.86746 0.38475 0.58026 0.0
H217 H 0.87087 0.42622 0.5716 0.0
H218 H 0.87098 0.34843 0.56841 0.0
H219 H 0.85294 0.38401 0.5834 0.0
C220 C 0.90737 0.5861 0.55882 0.0
N221 N 0.89392 0.57711 0.57397 0.0
N222 N 0.89565 0.52581 0.58361 0.0
C223 C 0.9104 0.50052 0.57499 0.0
C224 C 0.91832 0.53786 0.55897 0.0
C225 C 0.91042 0.64204 0.54628 0.0
H226 H 0.91164 0.67722 0.55943 0.0
H227 H 0.89876 0.65192 0.53506 0.0
H228 H 0.92258 0.64104 0.5353 0.0
O229 O 0.87792 0.63857 0.61914 0.0
O230 O 0.88179 0.55252 0.63552 0.0
H231 H 0.91861 0.44036 0.60142 0.0
H232 H 0.9294 0.43003 0.57325 0.0
C233 C 0.91679 0.44183 0.58206 0.0
H234 H 0.90667 0.40934 0.5772 0.0
H235 H 0.89824 0.43285 0.64611 0.0
O236 O 0.87768 0.70335 0.5707 0.0
C237 C 0.88059 0.6072 0.63723 0.0
Co238 Co 0.62832 0.36767 0.58542 0.0
Co239 Co 0.62435 0.48842 0.60876 0.0
C240 C 0.65831 0.44982 0.58502 0.0
O241 O 0.65172 0.40218 0.57812 0.0
O242 O 0.64925 0.48526 0.59722 0.0
C243 C 0.63996 0.2579 0.57096 0.0
O244 O 0.65515 0.27791 0.5788 0.0
C245 C 0.62554 0.61278 0.60654 0.0
C246 C 0.60895 0.64012 0.6366 0.0
C247 C 0.6188 0.66098 0.61783 0.0
N248 N 0.62 0.56567 0.61809 0.0
N249 N 0.61022 0.58211 0.6362 0.0
C250 C 0.63538 0.61066 0.58365 0.0
H251 H 0.63256 0.56957 0.57434 0.0
H252 H 0.63165 0.64752 0.57219 0.0
H253 H 0.64984 0.61283 0.5872 0.0
C254 C 0.59609 0.40635 0.56021 0.0
N255 N 0.60961 0.41553 0.57523 0.0
N256 N 0.60773 0.46644 0.58515 0.0
C257 C 0.59282 0.49132 0.57681 0.0
C258 C 0.58495 0.45408 0.56073 0.0
C259 C 0.59317 0.35063 0.54747 0.0
H260 H 0.59233 0.31498 0.56047 0.0
H261 H 0.60472 0.34181 0.53591 0.0
H262 H 0.58086 0.35126 0.5368 0.0
O263 O 0.62616 0.35255 0.61976 0.0
O264 O 0.62208 0.43787 0.63663 0.0
H265 H 0.58411 0.55004 0.60348 0.0
H266 H 0.57375 0.56157 0.57513 0.0
C267 C 0.58624 0.54957 0.58417 0.0
H268 H 0.59637 0.58245 0.57982 0.0
H269 H 0.60406 0.55373 0.6479 0.0
O270 O 0.62655 0.29104 0.57073 0.0
C271 C 0.62348 0.38321 0.63803 0.0
H272 H 0.17575 0.94151 0.09714 0.0
H273 H 0.20747 0.92221 0.09294 0.0
H274 H 0.2141 0.08257 0.05554 0.0
H275 H 0.18237 0.10275 0.05971 0.0
H276 H 0.23309 0.96938 0.03733 0.0
H277 H 0.24398 0.03366 0.13072 0.0
H278 H 0.22585 0.98536 0.12456 0.0
H279 H 0.22507 0.05821 0.11396 0.0
C280 C 0.18387 0.97247 0.08776 0.0
C281 C 0.17652 0.024 0.07896 0.0
C282 C 0.20198 0.96126 0.08538 0.0
C283 C 0.21305 0.00114 0.07406 0.0
C284 C 0.2057 0.05132 0.06431 0.0
H285 H 0.32633 0.03898 0.08931 0.0
H286 H 0.29455 0.05436 0.08415 0.0
C287 C 0.18758 0.06277 0.06678 0.0
C288 C 0.23246 0.99248 0.074 0.0
H289 H 0.26869 -0.00132 0.10982 0.0
C290 C 0.24094 0.97574 0.05312 0.0
C291 C 0.24256 0.00144 0.09461 0.0
C292 C 0.23402 0.02099 0.11728 0.0
C293 C 0.2594 0.96709 0.0524 0.0
C294 C 0.26947 0.97507 0.07316 0.0
C295 C 0.26093 0.99242 0.09395 0.0
C296 C 0.28894 0.96634 0.07389 0.0
C297 C 0.26798 0.95044 0.0294 0.0
C298 C 0.29637 0.91177 0.0696 0.0
C299 C 0.3146 0.90277 0.07249 0.0
C300 C 0.32567 0.94809 0.07996 0.0
C301 C 0.3182 0.003 0.08367 0.0
C302 C 0.30003 0.01195 0.08071 0.0
H303 H 0.25927 0.96014 0.01414 0.0
H304 H 0.2808 0.97331 0.027 0.0
H305 H 0.27069 0.90335 0.02945 0.0
H306 H 0.288 0.87569 0.06477 0.0
H307 H 0.3199 0.8599 0.06958 0.0
H308 H 0.32364 0.59542 0.4534 0.0
H309 H 0.29208 0.57621 0.45995 0.0
H310 H 0.29204 0.4582 0.40117 0.0
H311 H 0.32363 0.47473 0.39542 0.0
H312 H 0.26515 0.59806 0.43432 0.0
H313 H 0.2658 0.36232 0.44661 0.0
H314 H 0.28594 0.40427 0.44643 0.0
H315 H 0.27618 0.37985 0.41919 0.0
C316 C 0.31693 0.56466 0.44214 0.0
C317 C 0.32615 0.53628 0.424 0.0
C318 C 0.29889 0.55375 0.44588 0.0
C319 C 0.28968 0.51478 0.43138 0.0
C320 C 0.2989 0.48677 0.41318 0.0
H321 H 0.17996 0.52722 0.3936 0.0
H322 H 0.21147 0.54376 0.40018 0.0
C323 C 0.31698 0.4967 0.40976 0.0
C324 C 0.27021 0.50645 0.43408 0.0
H325 H 0.23789 0.40339 0.43371 0.0
C326 C 0.25922 0.55542 0.4346 0.0
C327 C 0.26235 0.45098 0.43506 0.0
C328 C 0.27324 0.39651 0.43708 0.0
C329 C 0.24066 0.55046 0.43486 0.0
C330 C 0.23283 0.49501 0.43353 0.0
C331 C 0.24381 0.44603 0.43425 0.0
C332 C 0.2134 0.48669 0.43031 0.0
C333 C 0.22975 0.6049 0.43669 0.0
C334 C 0.20399 0.44747 0.44447 0.0
C335 C 0.18602 0.43656 0.44025 0.0
C336 C 0.17705 0.4652 0.42196 0.0
C337 C 0.18642 0.50505 0.40805 0.0
C338 C 0.20444 0.51497 0.41194 0.0
H339 H 0.23702 0.63897 0.44649 0.0
H340 H 0.22709 0.62178 0.41876 0.0
H341 H 0.2169 0.59701 0.44568 0.0
H342 H 0.2106 0.42481 0.45866 0.0
H343 H 0.17916 0.4056 0.45126 0.0
H344 H 0.82704 0.04376 0.90937 0.0
H345 H 0.79539 0.06197 0.91444 0.0
H346 H 0.78822 0.88902 0.94082 0.0
H347 H 0.81996 0.87046 0.9361 0.0
H348 H 0.76908 0.00142 0.8914 0.0
H349 H 0.76023 0.98677 0.98824 0.0
H350 H 0.78169 0.99619 0.97463 0.0
H351 H 0.77146 0.92616 0.97532 0.0
C352 C 0.81881 0.00974 0.91656 0.0
C353 C 0.82606 0.95553 0.92226 0.0
C354 C 0.80071 0.0203 0.91946 0.0
C355 C 0.78948 0.97707 0.9282 0.0
C356 C 0.7967 0.92337 0.93447 0.0
H357 H 0.67682 0.94579 0.90469 0.0
H358 H 0.70868 0.92991 0.90898 0.0
C359 C 0.81485 0.91274 0.93162 0.0
C360 C 0.77006 0.98672 0.92882 0.0
H361 H 0.73387 0.98905 0.96505 0.0
C362 C 0.7614 -0.00102 0.90753 0.0
C363 C 0.7601 0.98385 0.9499 0.0
C364 C 0.76883 0.97304 0.97338 0.0
C365 C 0.74301 0.00751 0.90667 0.0
C366 C 0.733 0.00305 0.92762 0.0
C367 C 0.74163 0.99187 0.94901 0.0
C368 C 0.71351 0.01005 0.92737 0.0
C369 C 0.73441 0.02159 0.88338 0.0
C370 C 0.70566 0.05964 0.93694 0.0
C371 C 0.68742 0.06906 0.93448 0.0
C372 C 0.67674 0.02879 0.9225 0.0
C373 C 0.68462 0.97788 0.9139 0.0
C374 C 0.70283 0.96869 0.9163 0.0
H375 H 0.7443 0.03451 0.86987 0.0
H376 H 0.72724 0.98298 0.87683 0.0
H377 H 0.7246 0.057 0.88546 0.0
H378 H 0.71373 0.09197 0.94558 0.0
H379 H 0.68179 0.10859 0.94141 0.0
H380 H 0.6799 0.52449 0.60844 0.0
H381 H 0.71143 0.54112 0.60214 0.0
H382 H 0.71079 0.42361 0.5432 0.0
H383 H 0.67931 0.40426 0.55032 0.0
H384 H 0.73793 0.40144 0.56818 0.0
H385 H 0.7373 0.63735 0.55651 0.0
H386 H 0.72722 0.61952 0.58409 0.0
H387 H 0.71713 0.59556 0.55699 0.0
C388 C 0.68641 0.50267 0.59395 0.0
C389 C 0.6771 0.46316 0.57983 0.0
C390 C 0.70445 0.51265 0.59022 0.0
C391 C 0.71349 0.4848 0.57181 0.0
C392 C 0.70412 0.44595 0.55743 0.0
H393 H 0.82399 0.59303 0.55022 0.0
H394 H 0.79241 0.57472 0.54337 0.0
C395 C 0.68613 0.43495 0.56149 0.0
C396 C 0.73293 0.49308 0.56877 0.0
H397 H 0.76533 0.59591 0.5688 0.0
C398 C 0.74388 0.44405 0.5679 0.0
C399 C 0.74081 0.54852 0.56778 0.0
C400 C 0.72995 0.60309 0.5661 0.0
C401 C 0.76243 0.44889 0.56729 0.0
C402 C 0.77032 0.50426 0.56863 0.0
C403 C 0.75937 0.55333 0.56825 0.0
C404 C 0.78978 0.51233 0.57157 0.0
C405 C 0.77329 0.3944 0.56508 0.0
C406 C 0.79887 0.48355 0.58968 0.0
C407 C 0.81696 0.49295 0.59325 0.0
C408 C 0.82627 0.53279 0.57927 0.0
C409 C 0.81717 0.56206 0.56127 0.0
C410 C 0.79912 0.55166 0.55737 0.0
H411 H 0.76589 0.3606 0.55529 0.0
H412 H 0.78605 0.40236 0.55589 0.0
H413 H 0.77611 0.3771 0.58291 0.0
H414 H 0.79191 0.45469 0.60148 0.0
H415 H 0.82352 0.47032 0.60749 0.0
H416 H 0.07405 0.94672 0.03366 0.0
H417 H 0.04552 0.93272 0.01372 0.0
H418 H 0.02907 0.10313 0.0352 0.0
H419 H 0.05758 0.11717 0.05513 0.0
H420 H 0.01188 0.93561 0.03403 0.0
H421 H 0.01837 0.10306 0.96463 0.0
H422 H 0.03706 0.07753 0.98154 0.0
H423 H 0.02192 0.1291 0.99402 0.0
C424 C 0.06434 0.9812 0.03398 0.0
C425 C 0.06797 0.03311 0.04576 0.0
C426 C 0.0481 0.97323 0.0226 0.0
C427 C 0.03528 0.01718 0.02272 0.0
C428 C 0.03893 0.06917 0.03444 0.0
H429 H 0.92767 0.04435 0.96905 0.0
H430 H 0.95608 0.05981 0.98917 0.0
C431 C 0.05518 0.07716 0.04581 0.0
C432 C 0.01783 0.00762 0.0114 0.0
H433 H 0.99016 0.0587 0.96863 0.0
C434 C 0.00715 0.96232 0.01966 0.0
C435 C 0.0117 0.04271 0.99272 0.0
C436 C 0.0229 0.09052 0.98252 0.0
C437 C 0.99036 0.95163 0.00993 0.0
C438 C 0.98424 0.98664 0.99123 0.0
C439 C 0.99489 0.03204 0.98302 0.0
C440 C 0.96691 0.97645 0.97972 0.0
C441 C 0.97917 0.90366 0.02005 0.0
C442 C 0.96366 0.92465 0.96766 0.0
C443 C 0.94751 0.91588 0.95616 0.0
C444 C 0.93439 0.9589 0.95645 0.0
C445 C 0.93763 0.01065 0.96855 0.0
C446 C 0.9538 0.01945 0.98003 0.0
H447 H 0.98371 0.89091 0.03791 0.0
H448 H 0.96501 0.91663 0.02106 0.0
H449 H 0.98014 0.86523 0.00846 0.0
H450 H 0.97376 0.89143 0.96678 0.0
H451 H 0.94544 0.87605 0.94657 0.0
H452 H 0.42451 0.9482 0.01322 0.0
H453 H 0.45312 0.96092 0.9931 0.0
H454 H 0.47919 0.97751 0.06036 0.0
H455 H 0.4507 0.96347 0.08041 0.0
H456 H 0.47583 0.05598 0.99597 0.0
H457 H 0.50941 0.85654 0.02674 0.0
H458 H 0.48574 0.86688 0.02908 0.0
H459 H 0.50042 0.9001 0.05 0.0
C460 C 0.43642 0.9541 0.0236 0.0
C461 C 0.43553 0.95526 0.04825 0.0
C462 C 0.45269 0.96147 0.01216 0.0
C463 C 0.46829 0.96954 0.02526 0.0
C464 C 0.46738 0.97037 0.04994 0.0
H465 H 0.57844 0.03806 0.98954 0.0
H466 H 0.54994 0.02407 0.00982 0.0
C467 C 0.45113 0.96292 0.06135 0.0
C468 C 0.48542 0.97917 0.0131 0.0
H469 H 0.52739 0.92571 0.00713 0.0
C470 C 0.48708 0.02735 0.99829 0.0
C471 C 0.50008 0.94183 0.01626 0.0
C472 C 0.49884 0.88813 0.03121 0.0
C473 C 0.50312 0.03974 0.98681 0.0
C474 C 0.51777 0.00244 0.98999 0.0
C475 C 0.51613 0.9543 0.00482 0.0
C476 C 0.53486 0.0121 0.97777 0.0
C477 C 0.50436 0.09323 0.97174 0.0
C478 C 0.53578 0.00962 0.95312 0.0
C479 C 0.55196 0.01767 0.94161 0.0
C480 C 0.56747 0.0279 0.95459 0.0
C481 C 0.56658 0.03042 0.97923 0.0
C482 C 0.55038 0.02229 0.99077 0.0
H483 H 0.49362 0.1245 0.97584 0.0
H484 H 0.51735 0.11498 0.97415 0.0
H485 H 0.50313 0.08087 0.95294 0.0
H486 H 0.52401 0.0009 0.9428 0.0
H487 H 0.55238 0.0158 0.92256 0.0
H488 H 0.05271 0.47732 0.42111 0.0
H489 H 0.02437 0.49214 0.4415 0.0
H490 H 0.05034 0.46557 0.50829 0.0
H491 H 0.07878 0.45194 0.4879 0.0
H492 H 0.00622 0.41652 0.47171 0.0
H493 H 0.02446 0.62008 0.5173 0.0
H494 H 0.03718 0.59126 0.49306 0.0
H495 H 0.03955 0.56121 0.52205 0.0
C496 C 0.05233 0.47513 0.44016 0.0
C497 C 0.06785 0.46415 0.45304 0.0
C498 C 0.03618 0.48334 0.45175 0.0
C499 C 0.03532 0.48086 0.47641 0.0
C500 C 0.05079 0.4688 0.48928 0.0
H501 H 0.95055 0.51682 0.57852 0.0
H502 H 0.97887 0.50192 0.55808 0.0
C503 C 0.06695 0.4606 0.47767 0.0
C504 C 0.01817 0.49004 0.48858 0.0
H505 H 0.99697 0.57772 0.52787 0.0
C506 C 0.00416 0.45187 0.48392 0.0
C507 C 0.01555 0.53622 0.50449 0.0
C508 C 0.02991 0.57991 0.50942 0.0
C509 C 0.98765 0.45804 0.49508 0.0
C510 C 0.98503 0.5042 0.511 0.0
C511 C 0.99904 0.54238 0.51566 0.0
C512 C 0.96788 0.51335 0.5232 0.0
C513 C 0.97328 0.41435 0.49015 0.0
C514 C 0.95241 0.52552 0.51036 0.0
C515 C 0.93626 0.53378 0.522 0.0
C516 C 0.93539 0.53017 0.54663 0.0
C517 C 0.95092 0.51906 0.55948 0.0
C518 C 0.96705 0.5108 0.54785 0.0
H519 H 0.97872 0.37422 0.48224 0.0
H520 H 0.96604 0.40293 0.50653 0.0
H521 H 0.96362 0.4331 0.47756 0.0
H522 H 0.95284 0.5288 0.49135 0.0
H523 H 0.92443 0.54255 0.5118 0.0
H524 H 0.42477 0.54681 0.49098 0.0
H525 H 0.45337 0.53258 0.51092 0.0
H526 H 0.4788 0.50755 0.44364 0.0
H527 H 0.45033 0.52292 0.42374 0.0
H528 H 0.47559 0.43463 0.5088 0.0
H529 H 0.50989 0.63018 0.47536 0.0
H530 H 0.48613 0.62131 0.47377 0.0
H531 H 0.50028 0.5857 0.45284 0.0
C532 C 0.43654 0.53876 0.48054 0.0
C533 C 0.43546 0.5359 0.45591 0.0
C534 C 0.4528 0.53047 0.49189 0.0
C535 C 0.46823 0.51972 0.47873 0.0
C536 C 0.46712 0.51679 0.4541 0.0
H537 H 0.57849 0.45045 0.51363 0.0
H538 H 0.54988 0.46404 0.49363 0.0
C539 C 0.45088 0.52506 0.44277 0.0
C540 C 0.48539 0.50989 0.49078 0.0
H541 H 0.52762 0.56169 0.49568 0.0
C542 C 0.48695 0.46254 0.50605 0.0
C543 C 0.50018 0.54628 0.48705 0.0
C544 C 0.49907 0.59904 0.47153 0.0
C545 C 0.50303 0.45002 0.51742 0.0
C546 C 0.51782 0.48644 0.5137 0.0
C547 C 0.51626 0.53377 0.49842 0.0
C548 C 0.53497 0.47673 0.52579 0.0
C549 C 0.50415 0.39726 0.53293 0.0
C550 C 0.53604 0.47973 0.55042 0.0
C551 C 0.55229 0.47184 0.56178 0.0
C552 C 0.56774 0.46132 0.54867 0.0
C553 C 0.56669 0.45829 0.52405 0.0
C554 C 0.55042 0.4662 0.51267 0.0
H555 H 0.49334 0.36607 0.52907 0.0
H556 H 0.5171 0.37506 0.53073 0.0
H557 H 0.5029 0.41058 0.55162 0.0
H558 H 0.52434 0.4888 0.56085 0.0
H559 H 0.55282 0.47408 0.58082 0.0
H560 H 0.12073 0.43691 0.32 0.0
H561 H 0.11942 0.38931 0.28157 0.0
H562 H 0.12264 0.22307 0.3154 0.0
H563 H 0.12389 0.26995 0.35387 0.0
H564 H 0.14557 0.31195 0.26266 0.0
H565 H 0.07936 0.20862 0.27082 0.0
H566 H 0.08633 0.26755 0.28946 0.0
H567 H 0.09428 0.19569 0.29492 0.0
C568 C 0.12104 0.39021 0.31931 0.0
C569 C 0.12239 0.35728 0.34005 0.0
C570 C 0.1203 0.36313 0.29733 0.0
C571 C 0.12071 0.30273 0.29571 0.0
C572 C 0.122 0.26972 0.31632 0.0
H573 H 0.12127 0.05643 0.1806 0.0
H574 H 0.12071 0.10436 0.21899 0.0
C575 C 0.12281 0.29669 0.33829 0.0
C576 C 0.12055 0.27425 0.27239 0.0
H577 H 0.09677 0.18198 0.23779 0.0
C578 C 0.13487 0.28378 0.25713 0.0
C579 C 0.10661 0.23725 0.26538 0.0
C580 C 0.09068 0.22687 0.28088 0.0
C581 C 0.1358 0.25646 0.23512 0.0
C582 C 0.1218 0.2197 0.228 0.0
C583 C 0.10747 0.21018 0.24329 0.0
C584 C 0.12179 0.19087 0.2047 0.0
C585 C 0.15199 0.26609 0.21998 0.0
C586 C 0.12224 0.22365 0.18395 0.0
C587 C 0.12267 0.19648 0.16202 0.0
C588 C 0.12244 0.13587 0.16038 0.0
C589 C 0.12151 0.10314 0.18122 0.0
C590 C 0.12118 0.13044 0.20317 0.0
H591 H 0.16344 0.28164 0.23052 0.0
H592 H 0.15592 0.22583 0.21075 0.0
H593 H 0.14895 0.29937 0.20652 0.0
H594 H 0.12226 0.27036 0.18471 0.0
H595 H 0.1232 0.22308 0.14635 0.0
H596 H 0.37907 0.73311 0.35788 0.0
H597 H 0.38016 0.78154 0.31969 0.0
H598 H 0.38518 0.61689 0.28498 0.0
H599 H 0.38398 0.56778 0.32307 0.0
H600 H 0.40697 0.77676 0.28387 0.0
H601 H 0.34184 0.69403 0.25307 0.0
H602 H 0.34851 0.6917 0.28358 0.0
H603 H 0.35703 0.63956 0.26309 0.0
C604 C 0.38041 0.70705 0.34215 0.0
C605 C 0.3813 0.64643 0.34355 0.0
C606 C 0.38107 0.7349 0.32035 0.0
C607 C 0.38251 0.70274 0.29955 0.0
C608 C 0.38377 0.64239 0.30085 0.0
H609 H 0.38332 0.77592 0.15121 0.0
H610 H 0.38461 0.73369 0.19044 0.0
C611 C 0.38316 0.61444 0.32265 0.0
C612 C 0.38254 0.73233 0.27645 0.0
H613 H 0.35927 0.74455 0.2252 0.0
C614 C 0.39652 0.77002 0.27104 0.0
C615 C 0.36883 0.72352 0.25987 0.0
C616 C 0.3531 0.68542 0.26518 0.0
C617 C 0.39743 0.79796 0.24911 0.0
C618 C 0.38381 0.78863 0.23243 0.0
C619 C 0.36972 0.75148 0.23801 0.0
C620 C 0.38407 0.81551 0.20875 0.0
C621 C 0.41319 0.83584 0.24375 0.0
C622 C 0.38338 0.87571 0.20601 0.0
C623 C 0.3827 0.90022 0.18349 0.0
C624 C 0.38252 0.86483 0.16336 0.0
C625 C 0.38338 0.80457 0.16627 0.0
C626 C 0.38412 0.78025 0.18871 0.0
H627 H 0.4244 0.82749 0.25597 0.0
H628 H 0.41786 0.82909 0.22541 0.0
H629 H 0.40927 0.88177 0.24563 0.0
H630 H 0.38299 0.90369 0.22127 0.0
H631 H 0.38196 0.94674 0.18188 0.0
H632 H 0.88264 0.76846 0.85382 0.0
H633 H 0.88437 0.7227 0.81524 0.0
H634 H 0.88383 0.88996 0.78193 0.0
H635 H 0.88242 0.93645 0.82058 0.0
H636 H 0.8601 0.72979 0.7796 0.0
H637 H 0.9255 0.81137 0.74951 0.0
H638 H 0.91835 0.81616 0.77978 0.0
H639 H 0.91031 0.86698 0.75837 0.0
C640 C 0.88302 0.79571 0.83834 0.0
C641 C 0.88241 0.85623 0.84033 0.0
C642 C 0.88402 0.76939 0.81628 0.0
C643 C 0.88445 0.80288 0.79573 0.0
C644 C 0.8839 0.8633 0.79759 0.0
H645 H 0.87983 0.72271 0.64716 0.0
H646 H 0.8811 0.76886 0.68576 0.0
C647 C 0.88298 0.88979 0.8197 0.0
C648 C 0.8846 0.7742 0.77241 0.0
H649 H 0.908 0.7619 0.72116 0.0
C650 C 0.87063 0.73654 0.76687 0.0
C651 C 0.89833 0.78317 0.75584 0.0
C652 C 0.91406 0.82119 0.76119 0.0
C653 C 0.86986 0.70828 0.74506 0.0
C654 C 0.88356 0.71736 0.72848 0.0
C655 C 0.89753 0.75503 0.73396 0.0
C656 C 0.88342 0.6889 0.70515 0.0
C657 C 0.85419 0.66993 0.73972 0.0
C658 C 0.88459 0.62862 0.70327 0.0
C659 C 0.88387 0.60195 0.68121 0.0
C660 C 0.88199 0.63518 0.66062 0.0
C661 C 0.88119 0.6957 0.66261 0.0
C662 C 0.88195 0.72225 0.68466 0.0
H663 H 0.84298 0.67779 0.752 0.0
H664 H 0.84948 0.67673 0.72141 0.0
H665 H 0.85826 0.62411 0.7415 0.0
H666 H 0.88602 0.60221 0.71889 0.0
H667 H 0.88463 0.55531 0.68033 0.0
H668 H 0.6215 0.05401 0.82111 0.0
H669 H 0.6209 0.10135 0.78258 0.0
H670 H 0.6204 0.26789 0.81645 0.0
H671 H 0.62134 0.22127 0.85494 0.0
H672 H 0.59646 0.17703 0.76301 0.0
H673 H 0.66229 0.28181 0.7717 0.0
H674 H 0.65493 0.22542 0.79132 0.0
H675 H 0.64735 0.29838 0.79536 0.0
C676 C 0.62127 0.10072 0.82038 0.0
C677 C 0.62165 0.13382 0.84114 0.0
C678 C 0.62091 0.12767 0.79834 0.0
C679 C 0.62095 0.18812 0.79667 0.0
C680 C 0.62081 0.22121 0.81734 0.0
H681 H 0.61994 0.43395 0.68139 0.0
H682 H 0.61845 0.38606 0.71974 0.0
C683 C 0.62125 0.1944 0.83934 0.0
C684 C 0.62109 0.21667 0.77332 0.0
H685 H 0.64465 0.31058 0.73912 0.0
C686 C 0.60703 0.20601 0.75772 0.0
C687 C 0.63491 0.25443 0.76648 0.0
C688 C 0.65082 0.26535 0.78198 0.0
C689 C 0.60627 0.23298 0.7356 0.0
C690 C 0.62002 0.27102 0.72887 0.0
C691 C 0.63408 0.28162 0.74443 0.0
C692 C 0.62027 0.29963 0.70557 0.0
C693 C 0.5906 0.22142 0.71978 0.0
C694 C 0.62192 0.26681 0.68495 0.0
C695 C 0.62282 0.29394 0.66302 0.0
C696 C 0.62215 0.35453 0.6613 0.0
C697 C 0.62046 0.38725 0.68204 0.0
C698 C 0.61961 0.36001 0.70398 0.0
H699 H 0.57927 0.20254 0.72964 0.0
H700 H 0.5861 0.26172 0.71103 0.0
H701 H 0.59456 0.19034 0.70588 0.0
H702 H 0.62277 0.22019 0.68585 0.0
H703 H 0.62418 0.26736 0.64744 0.0
H704 H 0.09491 0.74176 0.12273 0.0
H705 H 0.09844 0.64039 0.11109 0.0
H706 H 0.14884 0.68059 0.0792 0.0
H707 H 0.14568 0.78112 0.09129 0.0
H708 H 0.12331 0.60769 0.05105 0.0
H709 H 0.13725 0.53245 0.14235 0.0
H710 H 0.11787 0.57672 0.13824 0.0
H711 H 0.13948 0.6071 0.13368 0.0
C712 C 0.10671 0.7289 0.11319 0.0
C713 C 0.11983 0.76956 0.10744 0.0
C714 C 0.10867 0.67123 0.10651 0.0
C715 C 0.12383 0.6535 0.09418 0.0
C716 C 0.13693 0.69389 0.08842 0.0
H717 H 0.16698 0.31256 0.0798 0.0
H718 H 0.16313 0.41711 0.08132 0.0
C719 C 0.13502 0.7514 0.09517 0.0
C720 C 0.1265 0.59226 0.08819 0.0
H721 H 0.1359 0.46157 0.11269 0.0
C722 C 0.12602 0.57555 0.06446 0.0
C723 C 0.13022 0.55102 0.1058 0.0
C724 C 0.13138 0.56745 0.13147 0.0
C725 C 0.12903 0.51797 0.05789 0.0
C726 C 0.13261 0.47671 0.07555 0.0
C727 C 0.13317 0.49361 0.09924 0.0
C728 C 0.13573 0.41535 0.07012 0.0
C729 C 0.12866 0.50165 0.0322 0.0
C730 C 0.12171 0.38021 0.06261 0.0
C731 C 0.12383 0.32035 0.06178 0.0
C732 C 0.13998 0.29496 0.0686 0.0
C733 C 0.15434 0.33073 0.07458 0.0
C734 C 0.15219 0.39046 0.07545 0.0
H735 H 0.12888 0.54017 0.02055 0.0
H736 H 0.14013 0.47357 0.0278 0.0
H737 H 0.11637 0.47691 0.02849 0.0
H738 H 0.10885 0.39876 0.05869 0.0
H739 H 0.11253 0.29394 0.05704 0.0
H740 H 0.37248 0.26091 0.13084 0.0
H741 H 0.36977 0.35858 0.11491 0.0
H742 H 0.38502 0.29627 0.04627 0.0
H743 H 0.38879 0.1995 0.06238 0.0
H744 H 0.40187 0.39333 0.05667 0.0
H745 H 0.33047 0.42332 0.07472 0.0
H746 H 0.34225 0.40367 0.10093 0.0
H747 H 0.34114 0.35373 0.07666 0.0
C748 C 0.3752 0.26805 0.11234 0.0
C749 C 0.38023 0.22208 0.09769 0.0
C750 C 0.37345 0.32369 0.1032 0.0
C751 C 0.3766 0.33429 0.07922 0.0
C752 C 0.38213 0.28878 0.0647 0.0
H753 H 0.3494 0.68488 0.03344 0.0
H754 H 0.35157 0.57939 0.03171 0.0
C755 C 0.38402 0.23322 0.07388 0.0
C756 C 0.375 0.3935 0.06966 0.0
H757 H 0.3475 0.51025 0.06867 0.0
C758 C 0.38988 0.41864 0.05893 0.0
C759 C 0.35922 0.42601 0.07197 0.0
C760 C 0.34231 0.40003 0.08145 0.0
C761 C 0.38977 0.47666 0.05191 0.0
C762 C 0.37454 0.51062 0.05631 0.0
C763 C 0.35927 0.48441 0.06555 0.0
C764 C 0.37474 0.57427 0.05409 0.0
C765 C 0.40609 0.50114 0.04023 0.0
C766 C 0.38719 0.60629 0.06694 0.0
C767 C 0.38605 0.66623 0.06787 0.0
C768 C 0.37225 0.69545 0.05625 0.0
C769 C 0.36018 0.6636 0.04259 0.0
C770 C 0.36138 0.60338 0.0416 0.0
H771 H 0.41327 0.4673 0.03015 0.0
H772 H 0.40272 0.53711 0.02811 0.0
H773 H 0.41526 0.5176 0.05394 0.0
H774 H 0.39733 0.58482 0.07723 0.0
H775 H 0.39559 0.68941 0.07853 0.0
H776 H 0.16525 0.17608 0.42958 0.0
H777 H 0.1603 0.07188 0.42735 0.0
H778 H 0.1042 0.09827 0.43719 0.0
H779 H 0.10894 0.2025 0.43956 0.0
H780 H 0.13774 0.9865 0.45954 0.0
H781 H 0.11489 0.0271 0.36763 0.0
H782 H 0.12909 0.07713 0.38307 0.0
H783 H 0.10611 0.07171 0.39085 0.0
C784 C 0.15191 0.1597 0.43185 0.0
C785 C 0.13745 0.19757 0.43436 0.0
C786 C 0.14913 0.10021 0.43062 0.0
C787 C 0.13189 0.07792 0.43186 0.0
C788 C 0.11759 0.11506 0.43612 0.0
H789 H 0.09296 0.74477 0.38384 0.0
H790 H 0.09522 0.84494 0.39742 0.0
C791 C 0.12034 0.17453 0.43745 0.0
C792 C 0.12869 0.01701 0.42586 0.0
H793 H 0.1155 0.93092 0.38048 0.0
C794 C 0.1328 0.97409 0.44234 0.0
C795 C 0.1222 0.00153 0.40341 0.0
C796 C 0.11786 0.04653 0.38507 0.0
C797 C 0.13055 0.91547 0.43688 0.0
C798 C 0.1245 0.89984 0.41416 0.0
C799 C 0.12015 0.94305 0.39786 0.0
C800 C 0.12304 0.83896 0.40659 0.0
C801 C 0.13448 0.87097 0.45556 0.0
C802 C 0.13801 0.80299 0.40674 0.0
C803 C 0.13672 0.74594 0.39909 0.0
C804 C 0.12046 0.72415 0.39098 0.0
C805 C 0.10562 0.76063 0.39013 0.0
C806 C 0.10688 0.81759 0.39797 0.0
H807 H 0.13359 0.88975 0.47352 0.0
H808 H 0.12521 0.83387 0.45438 0.0
H809 H 0.14819 0.85459 0.45312 0.0
H810 H 0.15076 0.81923 0.41251 0.0
H811 H 0.14848 0.71913 0.39925 0.0
H812 H 0.39483 0.79965 0.43964 0.0
H813 H 0.39922 0.90388 0.43658 0.0
H814 H 0.34264 0.92915 0.43294 0.0
H815 H 0.33805 0.82491 0.43585 0.0
H816 H 0.3845 0.96175 0.39428 0.0
H817 H 0.36197 0.05868 0.47876 0.0
H818 H 0.36974 0.98502 0.4766 0.0
H819 H 0.34805 0.00372 0.46612 0.0
C820 C 0.38328 0.82739 0.4388 0.0
C821 C 0.36608 0.80398 0.43771 0.0
C822 C 0.38583 0.8869 0.43704 0.0
C823 C 0.37125 0.92392 0.43458 0.0
C824 C 0.35404 0.90115 0.43509 0.0
H825 H 0.35457 0.28157 0.39886 0.0
H826 H 0.352 0.18055 0.41102 0.0
C827 C 0.35146 0.84158 0.43666 0.0
C828 C 0.37406 0.98498 0.42824 0.0
H829 H 0.36767 0.12302 0.44719 0.0
C830 C 0.38099 -0.00284 0.40588 0.0
C831 C 0.36922 0.0306 0.44337 0.0
C832 C 0.36192 0.01922 0.46765 0.0
C833 C 0.38286 0.0541 0.39796 0.0
C834 C 0.37813 0.10002 0.41314 0.0
C835 C 0.37132 0.08772 0.43562 0.0
C836 C 0.37982 0.16109 0.40583 0.0
C837 C 0.38926 0.06431 0.37312 0.0
C838 C 0.39631 0.18364 0.39894 0.0
C839 C 0.39775 0.24112 0.3918 0.0
C840 C 0.38281 0.27726 0.39199 0.0
C841 C 0.36634 0.25478 0.39896 0.0
C842 C 0.36486 0.19715 0.40585 0.0
H843 H 0.3874 0.02553 0.36189 0.0
H844 H 0.38219 0.10115 0.36486 0.0
H845 H 0.40364 0.07441 0.37346 0.0
H846 H 0.40809 0.15691 0.39927 0.0
H847 H 0.41061 0.25768 0.38665 0.0
H848 H 0.83985 0.67852 0.95238 0.0
H849 H 0.84223 0.57323 0.95165 0.0
H850 H 0.89734 0.58692 0.93203 0.0
H851 H 0.89522 0.69175 0.93319 0.0
H852 H 0.84987 0.51601 0.91124 0.0
H853 H 0.89905 0.45676 0.97934 0.0
H854 H 0.8882 0.52628 0.97879 0.0
H855 H 0.90707 0.51249 0.96018 0.0
C856 C 0.8526 0.65912 0.94853 0.0
C857 C 0.8673 0.69348 0.94261 0.0
C858 C 0.85392 0.59896 0.94811 0.0
C859 C 0.86998 0.57227 0.94195 0.0
C860 C 0.88491 0.60651 0.93731 0.0
H861 H 0.90578 0.24933 0.88586 0.0
H862 H 0.90196 0.34856 0.9001 0.0
C863 C 0.88362 0.66655 0.93779 0.0
C864 C 0.8706 0.50951 0.9372 0.0
H865 H 0.89415 0.38679 0.94861 0.0
C866 C 0.85933 0.48749 0.91971 0.0
C867 C 0.88305 0.47258 0.94815 0.0
C868 C 0.8949 0.49312 0.96783 0.0
C869 C 0.86065 0.43005 0.9122 0.0
C870 C 0.87344 0.39365 0.92267 0.0
C871 C 0.88443 0.41511 0.94056 0.0
C872 C 0.87588 0.33349 0.91476 0.0
C873 C 0.84882 0.40931 0.89251 0.0
C874 C 0.86248 0.29254 0.91837 0.0
C875 C 0.86461 0.23614 0.91022 0.0
C876 C 0.88025 0.21972 0.89855 0.0
C877 C 0.89363 0.26091 0.89487 0.0
C878 C 0.89151 0.31732 0.90309 0.0
H879 H 0.84214 0.44561 0.8833 0.0
H880 H 0.85656 0.38411 0.87943 0.0
H881 H 0.83843 0.38059 0.89986 0.0
H882 H 0.85034 0.30433 0.92737 0.0
H883 H 0.85387 0.20582 0.9127 0.0
H884 H 0.64812 0.77229 0.90089 0.0
H885 H 0.6505 0.67166 0.91363 0.0
H886 H 0.59486 0.64671 0.89908 0.0
H887 H 0.59251 0.74716 0.88596 0.0
H888 H 0.63356 0.61355 0.94918 0.0
H889 H 0.61745 0.51654 0.86245 0.0
H890 H 0.62246 0.59217 0.8659 0.0
H891 H 0.60073 0.56519 0.87301 0.0
C892 C 0.63639 0.74536 0.90056 0.0
C893 C 0.6201 0.76735 0.89263 0.0
C894 C 0.63777 0.68795 0.90777 0.0
C895 C 0.6229 0.65165 0.90708 0.0
C896 C 0.60658 0.67371 0.8993 0.0
H897 H 0.60732 0.28998 0.93808 0.0
H898 H 0.60298 0.39423 0.93556 0.0
C899 C 0.60524 0.73098 0.89186 0.0
C900 C 0.62452 0.59063 0.91442 0.0
H901 H 0.61937 0.45251 0.89485 0.0
C902 C 0.63048 0.57829 0.93731 0.0
C903 C 0.62057 0.5448 0.89883 0.0
C904 C 0.61512 0.55519 0.87361 0.0
C905 C 0.63245 0.52113 0.94509 0.0
C906 C 0.62835 0.47558 0.92955 0.0
C907 C 0.62231 0.48784 0.90675 0.0
C908 C 0.63096 0.41449 0.93595 0.0
C909 C 0.63877 0.50962 0.96983 0.0
C910 C 0.64815 0.3918 0.9377 0.0
C911 C 0.65072 0.33216 0.93897 0.0
C912 C 0.63611 0.29448 0.93843 0.0
C913 C 0.61887 0.31777 0.9384 0.0
C914 C 0.61633 0.37731 0.93698 0.0
H915 H 0.63818 0.54895 0.98098 0.0
H916 H 0.63068 0.47516 0.97815 0.0
H917 H 0.65272 0.4944 0.96926 0.0
H918 H 0.65959 0.41995 0.93666 0.0
H919 H 0.66415 0.3156 0.93907 0.0
H920 H 0.83818 0.81168 0.55508 0.0
H921 H 0.84065 0.9168 0.55683 0.0
H922 H 0.8969 0.90174 0.5692 0.0
H923 H 0.89466 0.79699 0.56698 0.0
H924 H 0.8511 0.97049 0.59689 0.0
H925 H 0.89523 0.03581 0.52371 0.0
H926 H 0.88453 0.96612 0.52471 0.0
H927 H 0.90454 0.97888 0.54119 0.0
C928 C 0.85116 0.83077 0.55753 0.0
C929 C 0.86619 0.79597 0.56113 0.0
C930 C 0.85254 0.89084 0.55855 0.0
C931 C 0.86896 0.91707 0.56302 0.0
C932 C 0.88415 0.88253 0.56526 0.0
H933 H 0.90677 0.24226 0.61588 0.0
H934 H 0.90272 0.14245 0.60247 0.0
C935 C 0.88281 0.82252 0.56415 0.0
C936 C 0.86988 0.97942 0.56852 0.0
H937 H 0.8919 0.104 0.55533 0.0
C938 C 0.85981 -8e-05 0.58756 0.0
C939 C 0.88136 0.01753 0.55645 0.0
C940 C 0.8919 -0.00139 0.53523 0.0
C941 C 0.86133 0.05706 0.59536 0.0
C942 C 0.8731 0.09475 0.58363 0.0
C943 C 0.88295 0.07471 0.56433 0.0
C944 C 0.87553 0.15498 0.59143 0.0
C945 C 0.85081 0.07617 0.61658 0.0
C946 C 0.86156 0.19467 0.58966 0.0
C947 C 0.86382 0.25138 0.59735 0.0
C948 C 0.88015 0.2694 0.60671 0.0
C949 C 0.89407 0.22941 0.60868 0.0
C950 C 0.89182 0.17268 0.60092 0.0
H951 H 0.84522 0.03898 0.62645 0.0
H952 H 0.8592 0.10198 0.6287 0.0
H953 H 0.83963 0.10383 0.61073 0.0
H954 H 0.84891 0.18172 0.58233 0.0
H955 H 0.85272 0.28086 0.5962 0.0
H956 H 0.59287 0.7424 0.6175 0.0
H957 H 0.59519 0.84258 0.60394 0.0
H958 H 0.65078 0.81685 0.58919 0.0
H959 H 0.64844 0.71673 0.60242 0.0
H960 H 0.61535 0.92854 0.62099 0.0
H961 H 0.63392 0.88753 0.5281 0.0
H962 H 0.62548 0.83159 0.54717 0.0
H963 H 0.64845 0.8524 0.5486 0.0
C964 C 0.60555 0.75825 0.61129 0.0
C965 C 0.62039 0.72176 0.61053 0.0
C966 C 0.60685 0.81523 0.60347 0.0
C967 C 0.62304 0.83661 0.59494 0.0
C968 C 0.63801 0.80062 0.59488 0.0
H969 H 0.66535 0.17382 0.57239 0.0
H970 H 0.66039 0.06963 0.5746 0.0
C971 C 0.63668 0.74355 0.60251 0.0
C972 C 0.62454 0.8975 0.58739 0.0
H973 H 0.63802 0.98426 0.54214 0.0
C974 C 0.62009 0.9407 0.60365 0.0
C975 C 0.63071 0.91318 0.56472 0.0
C976 C 0.63474 0.86872 0.54606 0.0
C977 C 0.62216 -0.00081 0.59812 0.0
C978 C 0.62878 0.01471 0.57574 0.0
C979 C 0.63298 0.97182 0.55929 0.0
C980 C 0.63202 0.07564 0.56977 0.0
C981 C 0.61771 0.04416 0.61642 0.0
C982 C 0.61774 0.11277 0.56534 0.0
C983 C 0.6205 0.17224 0.56401 0.0
C984 C 0.63759 0.19529 0.56728 0.0
C985 C 0.65203 0.15743 0.56998 0.0
C986 C 0.64924 0.09795 0.5712 0.0
H987 H 0.61462 0.0247 0.63382 0.0
H988 H 0.62894 0.07472 0.61855 0.0
H989 H 0.60601 0.0694 0.61053 0.0
H990 H 0.60436 0.09596 0.56412 0.0
H991 H 0.60911 0.2002 0.56177 0.0
loop_
_geom_bond_atom_site_label_1
_geom_bond_atom_site_label_2
_geom_bond_distance
_geom_bond_site_symmetry_2
_ccdc_geom_bond_type
Co0 O3 1.970 . S
Co0 N17 1.989 . S
Co0 O25 1.967 . S
Co0 O32 1.920 . S
Co1 O4 1.966 1_565 S
Co1 N10 2.022 . S
Co1 N18 1.993 1_565 S
Co1 O26 1.941 1_565 S
C2 O3 1.258 . S
C2 O4 1.263 . S
O3 Co0 1.970 . S
O3 C2 1.258 . S
O4 Co1 1.966 1_545 S
O4 C2 1.263 . S
C5 O6 1.235 . S
C5 O32 1.289 . S
O6 C5 1.235 . S
C7 C9 1.400 . S
C7 N10 1.351 . S
C7 C12 1.501 . S
C8 C9 1.387 . S
C8 N11 1.341 . S
C9 C7 1.400 . S
C9 C8 1.387 . S
N10 Co1 2.022 . S
N10 C7 1.351 . S
N10 N11 1.365 . S
N11 C8 1.341 . S
N11 N10 1.365 . S
N11 H31 0.862 . S
C12 C7 1.501 . S
C12 H13 0.961 . S
C12 H14 0.961 . S
C12 H15 0.960 . S
H13 C12 0.961 . S
H14 C12 0.961 . S
H15 C12 0.960 . S
C16 N17 1.342 . S
C16 C20 1.401 . S
C16 C21 1.499 . S
N17 Co0 1.989 . S
N17 C16 1.342 . S
N17 N18 1.388 . S
N18 Co1 1.993 1_545 S
N18 N17 1.388 . S
N18 C19 1.346 . S
C19 N18 1.346 . S
C19 C20 1.396 . S
C19 C29 1.510 1_545 S
C20 C16 1.401 . S
C20 C19 1.396 . S
C21 C16 1.499 . S
C21 H22 0.959 . S
C21 H23 0.960 . S
C21 H24 0.961 . S
H22 C21 0.959 . S
H23 C21 0.960 . S
H24 C21 0.961 . S
O25 Co0 1.967 . S
O25 C33 1.258 . S
O26 Co1 1.941 1_545 S
O26 C33 1.266 . S
H27 C29 0.959 . S
H28 C29 0.961 . S
C29 C19 1.510 1_565 S
C29 H27 0.959 . S
C29 H28 0.961 . S
C29 H30 0.960 . S
H30 C29 0.960 . S
H31 N11 0.862 . S
O32 Co0 1.920 . S
O32 C5 1.289 . S
C33 O25 1.258 . S
C33 O26 1.266 . S
Co34 O37 1.970 . S
Co34 N51 1.989 . S
Co34 O59 1.967 . S
Co34 O66 1.920 . S
Co35 O38 1.966 1_545 S
Co35 N44 2.022 . S
Co35 N52 1.993 1_545 S
Co35 O60 1.941 1_545 S
C36 O37 1.258 . S
C36 O38 1.263 . S
O37 Co34 1.970 . S
O37 C36 1.258 . S
O38 Co35 1.966 1_565 S
O38 C36 1.263 . S
C39 O40 1.235 . S
C39 O66 1.289 . S
O40 C39 1.235 . S
C41 C43 1.400 . S
C41 N44 1.351 . S
C41 C46 1.501 . S
C42 C43 1.387 . S
C42 N45 1.341 . S
C43 C41 1.400 . S
C43 C42 1.387 . S
N44 Co35 2.022 . S
N44 C41 1.351 . S
N44 N45 1.365 . S
N45 C42 1.341 . S
N45 N44 1.365 . S
N45 H65 0.862 . S
C46 C41 1.501 . S
C46 H47 0.961 . S
C46 H48 0.961 . S
C46 H49 0.960 . S
H47 C46 0.961 . S
H48 C46 0.961 . S
H49 C46 0.960 . S
C50 N51 1.342 . S
C50 C54 1.401 . S
C50 C55 1.499 . S
N51 Co34 1.989 . S
N51 C50 1.342 . S
N51 N52 1.388 . S
N52 Co35 1.993 1_565 S
N52 N51 1.388 . S
N52 C53 1.346 . S
C53 N52 1.346 . S
C53 C54 1.396 . S
C53 C63 1.510 1_565 S
C54 C50 1.401 . S
C54 C53 1.396 . S
C55 C50 1.499 . S
C55 H56 0.959 . S
C55 H57 0.960 . S
C55 H58 0.961 . S
H56 C55 0.959 . S
H57 C55 0.960 . S
H58 C55 0.961 . S
O59 Co34 1.967 . S
O59 C67 1.258 . S
O60 Co35 1.941 1_565 S
O60 C67 1.266 . S
H61 C63 0.959 . S
H62 C63 0.961 . S
C63 C53 1.510 1_545 S
C63 H61 0.959 . S
C63 H62 0.961 . S
C63 H64 0.960 . S
H64 C63 0.960 . S
H65 N45 0.862 . S
O66 Co34 1.920 . S
O66 C39 1.289 . S
C67 O59 1.258 . S
C67 O60 1.266 . S
Co68 O71 1.970 . S
Co68 N85 1.989 . S
Co68 O93 1.967 . S
Co68 O100 1.920 . S
Co69 O72 1.966 . S
Co69 N78 2.022 . S
Co69 N86 1.993 . S
Co69 O94 1.941 . S
C70 O71 1.258 . S
C70 O72 1.263 . S
O71 Co68 1.970 . S
O71 C70 1.258 . S
O72 Co69 1.966 . S
O72 C70 1.263 . S
C73 O74 1.235 . S
C73 O100 1.289 . S
O74 C73 1.235 . S
C75 C77 1.400 . S
C75 N78 1.351 . S
C75 C80 1.501 . S
C76 C77 1.387 . S
C76 N79 1.341 . S
C77 C75 1.400 . S
C77 C76 1.387 . S
N78 Co69 2.022 . S
N78 C75 1.351 . S
N78 N79 1.365 . S
N79 C76 1.341 . S
N79 N78 1.365 . S
N79 H99 0.862 . S
C80 C75 1.501 . S
C80 H81 0.961 . S
C80 H82 0.961 . S
C80 H83 0.960 . S
H81 C80 0.961 . S
H82 C80 0.961 . S
H83 C80 0.960 . S
C84 N85 1.342 . S
C84 C88 1.401 . S
C84 C89 1.499 . S
N85 Co68 1.989 . S
N85 C84 1.342 . S
N85 N86 1.388 . S
N86 Co69 1.993 . S
N86 N85 1.388 . S
N86 C87 1.346 . S
C87 N86 1.346 . S
C87 C88 1.396 . S
C87 C97 1.510 . S
C88 C84 1.401 . S
C88 C87 1.396 . S
C89 C84 1.499 . S
C89 H90 0.959 . S
C89 H91 0.960 . S
C89 H92 0.961 . S
H90 C89 0.959 . S
H91 C89 0.960 . S
H92 C89 0.961 . S
O93 Co68 1.967 . S
O93 C101 1.258 . S
O94 Co69 1.941 . S
O94 C101 1.266 . S
H95 C97 0.959 . S
H96 C97 0.961 . S
C97 C87 1.510 . S
C97 H95 0.959 . S
C97 H96 0.961 . S
C97 H98 0.960 . S
H98 C97 0.960 . S
H99 N79 0.862 . S
O100 Co68 1.920 . S
O100 C73 1.289 . S
C101 O93 1.258 . S
C101 O94 1.266 . S
Co102 O105 1.970 . S
Co102 N119 1.989 . S
Co102 O127 1.967 . S
Co102 O134 1.920 . S
Co103 O106 1.966 . S
Co103 N112 2.022 . S
Co103 N120 1.993 . S
Co103 O128 1.941 . S
C104 O105 1.258 . S
C104 O106 1.263 . S
O105 Co102 1.970 . S
O105 C104 1.258 . S
O106 Co103 1.966 . S
O106 C104 1.263 . S
C107 O108 1.235 . S
C107 O134 1.289 . S
O108 C107 1.235 . S
C109 C111 1.400 . S
C109 N112 1.351 . S
C109 C114 1.501 . S
C110 C111 1.387 . S
C110 N113 1.341 . S
C111 C109 1.400 . S
C111 C110 1.387 . S
N112 Co103 2.022 . S
N112 C109 1.351 . S
N112 N113 1.365 . S
N113 C110 1.341 . S
N113 N112 1.365 . S
N113 H133 0.862 . S
C114 C109 1.501 . S
C114 H115 0.961 . S
C114 H116 0.961 . S
C114 H117 0.960 . S
H115 C114 0.961 . S
H116 C114 0.961 . S
H117 C114 0.960 . S
C118 N119 1.342 . S
C118 C122 1.401 . S
C118 C123 1.499 . S
N119 Co102 1.989 . S
N119 C118 1.342 . S
N119 N120 1.388 . S
N120 Co103 1.993 . S
N120 N119 1.388 . S
N120 C121 1.346 . S
C121 N120 1.346 . S
C121 C122 1.396 . S
C121 C131 1.510 . S
C122 C118 1.401 . S
C122 C121 1.396 . S
C123 C118 1.499 . S
C123 H124 0.959 . S
C123 H125 0.960 . S
C123 H126 0.961 . S
H124 C123 0.959 . S
H125 C123 0.960 . S
H126 C123 0.961 . S
O127 Co102 1.967 . S
O127 C135 1.258 . S
O128 Co103 1.941 . S
O128 C135 1.266 . S
H129 C131 0.959 . S
H130 C131 0.961 . S
C131 C121 1.510 . S
C131 H129 0.959 . S
C131 H130 0.961 . S
C131 H132 0.960 . S
H132 C131 0.960 . S
H133 N113 0.862 . S
O134 Co102 1.920 . S
O134 C107 1.289 . S
C135 O127 1.258 . S
C135 O128 1.266 . S
Co136 O139 1.970 . S
Co136 N153 1.989 . S
Co136 O161 1.967 . S
Co136 O168 1.920 . S
Co137 O140 1.966 1_545 S
Co137 N146 2.022 . S
Co137 N154 1.993 1_545 S
Co137 O162 1.941 1_545 S
C138 O139 1.258 . S
C138 O140 1.263 . S
O139 Co136 1.970 . S
O139 C138 1.258 . S
O140 Co137 1.966 1_565 S
O140 C138 1.263 . S
C141 O142 1.235 . S
C141 O168 1.289 . S
O142 C141 1.235 . S
C143 C145 1.400 . S
C143 N146 1.351 . S
C143 C148 1.501 . S
C144 C145 1.387 . S
C144 N147 1.341 . S
C145 C143 1.400 . S
C145 C144 1.387 . S
N146 Co137 2.022 . S
N146 C143 1.351 . S
N146 N147 1.365 . S
N147 C144 1.341 . S
N147 N146 1.365 . S
N147 H167 0.862 . S
C148 C143 1.501 . S
C148 H149 0.961 . S
C148 H150 0.961 . S
C148 H151 0.960 . S
H149 C148 0.961 . S
H150 C148 0.961 . S
H151 C148 0.960 . S
C152 N153 1.342 . S
C152 C156 1.401 . S
C152 C157 1.499 . S
N153 Co136 1.989 . S
N153 C152 1.342 . S
N153 N154 1.388 . S
N154 Co137 1.993 1_565 S
N154 N153 1.388 . S
N154 C155 1.346 . S
C155 N154 1.346 . S
C155 C156 1.396 . S
C155 C165 1.510 1_565 S
C156 C152 1.401 . S
C156 C155 1.396 . S
C157 C152 1.499 . S
C157 H158 0.959 . S
C157 H159 0.960 . S
C157 H160 0.961 . S
H158 C157 0.959 . S
H159 C157 0.960 . S
H160 C157 0.961 . S
O161 Co136 1.967 . S
O161 C169 1.258 . S
O162 Co137 1.941 1_565 S
O162 C169 1.266 . S
H163 C165 0.959 . S
H164 C165 0.961 . S
C165 C155 1.510 1_545 S
C165 H163 0.959 . S
C165 H164 0.961 . S
C165 H166 0.960 . S
H166 C165 0.960 . S
H167 N147 0.862 . S
O168 Co136 1.920 . S
O168 C141 1.289 . S
C169 O161 1.258 . S
C169 O162 1.266 . S
Co170 O173 1.970 . S
Co170 N187 1.989 . S
Co170 O195 1.967 . S
Co170 O202 1.920 . S
Co171 O174 1.966 1_565 S
Co171 N180 2.022 . S
Co171 N188 1.993 1_565 S
Co171 O196 1.941 1_565 S
C172 O173 1.258 . S
C172 O174 1.263 . S
O173 Co170 1.970 . S
O173 C172 1.258 . S
O174 Co171 1.966 1_545 S
O174 C172 1.263 . S
C175 O176 1.235 . S
C175 O202 1.289 . S
O176 C175 1.235 . S
C177 C179 1.400 . S
C177 N180 1.351 . S
C177 C182 1.501 . S
C178 C179 1.387 . S
C178 N181 1.341 . S
C179 C177 1.400 . S
C179 C178 1.387 . S
N180 Co171 2.022 . S
N180 C177 1.351 . S
N180 N181 1.365 . S
N181 C178 1.341 . S
N181 N180 1.365 . S
N181 H201 0.862 . S
C182 C177 1.501 . S
C182 H183 0.961 . S
C182 H184 0.961 . S
C182 H185 0.960 . S
H183 C182 0.961 . S
H184 C182 0.961 . S
H185 C182 0.960 . S
C186 N187 1.342 . S
C186 C190 1.401 . S
C186 C191 1.499 . S
N187 Co170 1.989 . S
N187 C186 1.342 . S
N187 N188 1.388 . S
N188 Co171 1.993 1_545 S
N188 N187 1.388 . S
N188 C189 1.346 . S
C189 N188 1.346 . S
C189 C190 1.396 . S
C189 C199 1.510 1_545 S
C190 C186 1.401 . S
C190 C189 1.396 . S
C191 C186 1.499 . S
C191 H192 0.959 . S
C191 H193 0.960 . S
C191 H194 0.961 . S
H192 C191 0.959 . S
H193 C191 0.960 . S
H194 C191 0.961 . S
O195 Co170 1.967 . S
O195 C203 1.258 . S
O196 Co171 1.941 1_545 S
O196 C203 1.266 . S
H197 C199 0.959 . S
H198 C199 0.961 . S
C199 C189 1.510 1_565 S
C199 H197 0.959 . S
C199 H198 0.961 . S
C199 H200 0.960 . S
H200 C199 0.960 . S
H201 N181 0.862 . S
O202 Co170 1.920 . S
O202 C175 1.289 . S
C203 O195 1.258 . S
C203 O196 1.266 . S
Co204 O207 1.970 . S
Co204 N221 1.989 . S
Co204 O229 1.967 . S
Co204 O236 1.920 . S
Co205 O208 1.966 . S
Co205 N214 2.022 . S
Co205 N222 1.993 . S
Co205 O230 1.941 . S
C206 O207 1.258 . S
C206 O208 1.263 . S
O207 Co204 1.970 . S
O207 C206 1.258 . S
O208 Co205 1.966 . S
O208 C206 1.263 . S
C209 O210 1.235 . S
C209 O236 1.289 . S
O210 C209 1.235 . S
C211 C213 1.400 . S
C211 N214 1.351 . S
C211 C216 1.501 . S
C212 C213 1.387 . S
C212 N215 1.341 . S
C213 C211 1.400 . S
C213 C212 1.387 . S
N214 Co205 2.022 . S
N214 C211 1.351 . S
N214 N215 1.365 . S
N215 C212 1.341 . S
N215 N214 1.365 . S
N215 H235 0.862 . S
C216 C211 1.501 . S
C216 H217 0.961 . S
C216 H218 0.961 . S
C216 H219 0.960 . S
H217 C216 0.961 . S
H218 C216 0.961 . S
H219 C216 0.960 . S
C220 N221 1.342 . S
C220 C224 1.401 . S
C220 C225 1.499 . S
N221 Co204 1.989 . S
N221 C220 1.342 . S
N221 N222 1.388 . S
N222 Co205 1.993 . S
N222 N221 1.388 . S
N222 C223 1.346 . S
C223 N222 1.346 . S
C223 C224 1.396 . S
C223 C233 1.510 . S
C224 C220 1.401 . S
C224 C223 1.396 . S
C225 C220 1.499 . S
C225 H226 0.959 . S
C225 H227 0.960 . S
C225 H228 0.961 . S
H226 C225 0.959 . S
H227 C225 0.960 . S
H228 C225 0.961 . S
O229 Co204 1.967 . S
O229 C237 1.258 . S
O230 Co205 1.941 . S
O230 C237 1.266 . S
H231 C233 0.959 . S
H232 C233 0.961 . S
C233 C223 1.510 . S
C233 H231 0.959 . S
C233 H232 0.961 . S
C233 H234 0.960 . S
H234 C233 0.960 . S
H235 N215 0.862 . S
O236 Co204 1.920 . S
O236 C209 1.289 . S
C237 O229 1.258 . S
C237 O230 1.266 . S
Co238 O241 1.970 . S
Co238 N255 1.989 . S
Co238 O263 1.967 . S
Co238 O270 1.920 . S
Co239 O242 1.966 . S
Co239 N248 2.022 . S
Co239 N256 1.993 . S
Co239 O264 1.941 . S
C240 O241 1.258 . S
C240 O242 1.263 . S
O241 Co238 1.970 . S
O241 C240 1.258 . S
O242 Co239 1.966 . S
O242 C240 1.263 . S
C243 O244 1.235 . S
C243 O270 1.289 . S
O244 C243 1.235 . S
C245 C247 1.400 . S
C245 N248 1.351 . S
C245 C250 1.501 . S
C246 C247 1.387 . S
C246 N249 1.341 . S
C247 C245 1.400 . S
C247 C246 1.387 . S
N248 Co239 2.022 . S
N248 C245 1.351 . S
N248 N249 1.365 . S
N249 C246 1.341 . S
N249 N248 1.365 . S
N249 H269 0.862 . S
C250 C245 1.501 . S
C250 H251 0.961 . S
C250 H252 0.961 . S
C250 H253 0.960 . S
H251 C250 0.961 . S
H252 C250 0.961 . S
H253 C250 0.960 . S
C254 N255 1.342 . S
C254 C258 1.401 . S
C254 C259 1.499 . S
N255 Co238 1.989 . S
N255 C254 1.342 . S
N255 N256 1.388 . S
N256 Co239 1.993 . S
N256 N255 1.388 . S
N256 C257 1.346 . S
C257 N256 1.346 . S
C257 C258 1.396 . S
C257 C267 1.510 . S
C258 C254 1.401 . S
C258 C257 1.396 . S
C259 C254 1.499 . S
C259 H260 0.959 . S
C259 H261 0.960 . S
C259 H262 0.961 . S
H260 C259 0.959 . S
H261 C259 0.960 . S
H262 C259 0.961 . S
O263 Co238 1.967 . S
O263 C271 1.258 . S
O264 Co239 1.941 . S
O264 C271 1.266 . S
H265 C267 0.959 . S
H266 C267 0.961 . S
C267 C257 1.510 . S
C267 H265 0.959 . S
C267 H266 0.961 . S
C267 H268 0.960 . S
H268 C267 0.960 . S
H269 N249 0.862 . S
O270 Co238 1.920 . S
O270 C243 1.289 . S
C271 O263 1.258 . S
C271 O264 1.266 . S
H272 C280 0.929 1_565 S
H273 C282 0.930 . S
H274 C284 0.930 . S
H275 C287 0.929 . S
H276 C290 0.930 . S
H277 C292 0.960 . S
H278 C292 0.960 . S
H279 C292 0.960 . S
C280 H272 0.929 1_545 S
C280 C281 1.377 . S
C280 C282 1.384 1_545 S
C281 C280 1.377 . S
C281 C287 1.390 . S
C282 H273 0.930 . S
C282 C280 1.384 1_565 S
C282 C283 1.372 1_565 S
C283 C282 1.372 1_545 S
C283 C284 1.400 . S
C283 C288 1.490 . S
C284 H274 0.930 . S
C284 C283 1.400 . S
C284 C287 1.386 . S
H285 C301 0.930 . S
H286 C302 0.931 1_545 S
C287 H275 0.929 . S
C287 C281 1.390 . S
C287 C284 1.386 . S
C288 C283 1.490 . S
C288 C290 1.395 1_545 S
C288 C291 1.403 . S
H289 C295 0.930 . S
C290 H276 0.930 . S
C290 C288 1.395 1_565 S
C290 C293 1.403 . S
C291 C288 1.403 . S
C291 C292 1.524 . S
C291 C295 1.400 . S
C292 H277 0.960 . S
C292 H278 0.960 . S
C292 H279 0.960 . S
C292 C291 1.524 . S
C293 C290 1.403 . S
C293 C294 1.392 . S
C293 C297 1.495 . S
C294 C293 1.392 . S
C294 C295 1.385 1_565 S
C294 C296 1.478 . S
C295 H289 0.930 . S
C295 C291 1.400 . S
C295 C294 1.385 1_545 S
C296 C294 1.478 . S
C296 C298 1.381 . S
C296 C302 1.383 . S
C297 C293 1.495 . S
C297 H303 0.959 . S
C297 H304 0.961 . S
C297 H305 0.960 . S
C298 C296 1.381 . S
C298 C299 1.394 . S
C298 H306 0.930 . S
C299 C298 1.394 . S
C299 C300 1.383 . S
C299 H307 0.929 . S
C300 C299 1.383 . S
C300 C301 1.377 . S
C301 H285 0.930 . S
C301 C300 1.377 . S
C301 C302 1.379 . S
C302 H286 0.931 1_565 S
C302 C296 1.383 . S
C302 C301 1.379 . S
H303 C297 0.959 . S
H304 C297 0.961 . S
H305 C297 0.960 . S
H306 C298 0.930 . S
H307 C299 0.929 . S
H308 C316 0.929 . S
H309 C318 0.930 . S
H310 C320 0.930 . S
H311 C323 0.929 . S
H312 C326 0.930 . S
H313 C328 0.960 . S
H314 C328 0.960 . S
H315 C328 0.960 . S
C316 H308 0.929 . S
C316 C317 1.377 . S
C316 C318 1.384 . S
C317 C316 1.377 . S
C317 C323 1.390 . S
C318 H309 0.930 . S
C318 C316 1.384 . S
C318 C319 1.372 . S
C319 C318 1.372 . S
C319 C320 1.400 . S
C319 C324 1.490 . S
C320 H310 0.930 . S
C320 C319 1.400 . S
C320 C323 1.386 . S
H321 C337 0.930 . S
H322 C338 0.931 . S
C323 H311 0.929 . S
C323 C317 1.390 . S
C323 C320 1.386 . S
C324 C319 1.490 . S
C324 C326 1.395 . S
C324 C327 1.403 . S
H325 C331 0.930 . S
C326 H312 0.930 . S
C326 C324 1.395 . S
C326 C329 1.403 . S
C327 C324 1.403 . S
C327 C328 1.524 . S
C327 C331 1.400 . S
C328 H313 0.960 . S
C328 H314 0.960 . S
C328 H315 0.960 . S
C328 C327 1.524 . S
C329 C326 1.403 . S
C329 C330 1.392 . S
C329 C333 1.495 . S
C330 C329 1.392 . S
C330 C331 1.385 . S
C330 C332 1.478 . S
C331 H325 0.930 . S
C331 C327 1.400 . S
C331 C330 1.385 . S
C332 C330 1.478 . S
C332 C334 1.381 . S
C332 C338 1.383 . S
C333 C329 1.495 . S
C333 H339 0.959 . S
C333 H340 0.961 . S
C333 H341 0.960 . S
C334 C332 1.381 . S
C334 C335 1.394 . S
C334 H342 0.930 . S
C335 C334 1.394 . S
C335 C336 1.383 . S
C335 H343 0.929 . S
C336 C335 1.383 . S
C336 C337 1.377 . S
C337 H321 0.930 . S
C337 C336 1.377 . S
C337 C338 1.379 . S
C338 H322 0.931 . S
C338 C332 1.383 . S
C338 C337 1.379 . S
H339 C333 0.959 . S
H340 C333 0.961 . S
H341 C333 0.960 . S
H342 C334 0.930 . S
H343 C335 0.929 . S
H344 C352 0.929 1_545 S
H345 C354 0.930 . S
H346 C356 0.930 . S
H347 C359 0.929 . S
H348 C362 0.930 . S
H349 C364 0.960 . S
H350 C364 0.960 . S
H351 C364 0.960 . S
C352 H344 0.929 1_565 S
C352 C353 1.377 . S
C352 C354 1.384 1_565 S
C353 C352 1.377 . S
C353 C359 1.390 . S
C354 H345 0.930 . S
C354 C352 1.384 1_545 S
C354 C355 1.372 1_545 S
C355 C354 1.372 1_565 S
C355 C356 1.400 . S
C355 C360 1.490 . S
C356 H346 0.930 . S
C356 C355 1.400 . S
C356 C359 1.386 . S
H357 C373 0.930 . S
H358 C374 0.931 1_565 S
C359 H347 0.929 . S
C359 C353 1.390 . S
C359 C356 1.386 . S
C360 C355 1.490 . S
C360 C362 1.395 1_565 S
C360 C363 1.403 . S
H361 C367 0.930 . S
C362 H348 0.930 . S
C362 C360 1.395 1_545 S
C362 C365 1.403 . S
C363 C360 1.403 . S
C363 C364 1.524 . S
C363 C367 1.400 . S
C364 H349 0.960 . S
C364 H350 0.960 . S
C364 H351 0.960 . S
C364 C363 1.524 . S
C365 C362 1.403 . S
C365 C366 1.392 . S
C365 C369 1.495 . S
C366 C365 1.392 . S
C366 C367 1.385 1_545 S
C366 C368 1.478 . S
C367 H361 0.930 . S
C367 C363 1.400 . S
C367 C366 1.385 1_565 S
C368 C366 1.478 . S
C368 C370 1.381 . S
C368 C374 1.383 . S
C369 C365 1.495 . S
C369 H375 0.959 . S
C369 H376 0.961 . S
C369 H377 0.960 . S
C370 C368 1.381 . S
C370 C371 1.394 . S
C370 H378 0.930 . S
C371 C370 1.394 . S
C371 C372 1.383 . S
C371 H379 0.929 . S
C372 C371 1.383 . S
C372 C373 1.377 . S
C373 H357 0.930 . S
C373 C372 1.377 . S
C373 C374 1.379 . S
C374 H358 0.931 1_545 S
C374 C368 1.383 . S
C374 C373 1.379 . S
H375 C369 0.959 . S
H376 C369 0.961 . S
H377 C369 0.960 . S
H378 C370 0.930 . S
H379 C371 0.929 . S
H380 C388 0.929 . S
H381 C390 0.930 . S
H382 C392 0.930 . S
H383 C395 0.929 . S
H384 C398 0.930 . S
H385 C400 0.960 . S
H386 C400 0.960 . S
H387 C400 0.960 . S
C388 H380 0.929 . S
C388 C389 1.377 . S
C388 C390 1.384 . S
C389 C388 1.377 . S
C389 C395 1.390 . S
C390 H381 0.930 . S
C390 C388 1.384 . S
C390 C391 1.372 . S
C391 C390 1.372 . S
C391 C392 1.400 . S
C391 C396 1.490 . S
C392 H382 0.930 . S
C392 C391 1.400 . S
C392 C395 1.386 . S
H393 C409 0.930 . S
H394 C410 0.931 . S
C395 H383 0.929 . S
C395 C389 1.390 . S
C395 C392 1.386 . S
C396 C391 1.490 . S
C396 C398 1.395 . S
C396 C399 1.403 . S
H397 C403 0.930 . S
C398 H384 0.930 . S
C398 C396 1.395 . S
C398 C401 1.403 . S
C399 C396 1.403 . S
C399 C400 1.524 . S
C399 C403 1.400 . S
C400 H385 0.960 . S
C400 H386 0.960 . S
C400 H387 0.960 . S
C400 C399 1.524 . S
C401 C398 1.403 . S
C401 C402 1.392 . S
C401 C405 1.495 . S
C402 C401 1.392 . S
C402 C403 1.385 . S
C402 C404 1.478 . S
C403 H397 0.930 . S
C403 C399 1.400 . S
C403 C402 1.385 . S
C404 C402 1.478 . S
C404 C406 1.381 . S
C404 C410 1.383 . S
C405 C401 1.495 . S
C405 H411 0.959 . S
C405 H412 0.961 . S
C405 H413 0.960 . S
C406 C404 1.381 . S
C406 C407 1.394 . S
C406 H414 0.930 . S
C407 C406 1.394 . S
C407 C408 1.383 . S
C407 H415 0.929 . S
C408 C407 1.383 . S
C408 C409 1.377 . S
C409 H393 0.930 . S
C409 C408 1.377 . S
C409 C410 1.379 . S
C410 H394 0.931 . S
C410 C404 1.383 . S
C410 C409 1.379 . S
H411 C405 0.959 . S
H412 C405 0.961 . S
H413 C405 0.960 . S
H414 C406 0.930 . S
H415 C407 0.929 . S
H416 C424 0.929 . S
H417 C426 0.930 . S
H418 C428 0.930 . S
H419 C431 0.929 . S
H420 C434 0.930 . S
H421 C436 0.960 . S
H422 C436 0.960 . S
H423 C436 0.960 . S
C424 H416 0.929 . S
C424 C425 1.377 1_565 S
C424 C426 1.384 . S
C425 C424 1.377 1_545 S
C425 C431 1.390 . S
C426 H417 0.930 . S
C426 C424 1.384 . S
C426 C427 1.372 1_565 S
C427 C426 1.372 1_545 S
C427 C428 1.400 . S
C427 C432 1.490 . S
C428 H418 0.930 . S
C428 C427 1.400 . S
C428 C431 1.386 . S
H429 C445 0.930 . S
H430 C446 0.931 . S
C431 H419 0.929 . S
C431 C425 1.390 . S
C431 C428 1.386 . S
C432 C427 1.490 . S
C432 C434 1.395 1_545 S
C432 C435 1.403 1_554 S
H433 C439 0.930 . S
C434 H420 0.930 . S
C434 C432 1.395 1_565 S
C434 C437 1.403 1_455 S
C435 C432 1.403 1_556 S
C435 C436 1.524 . S
C435 C439 1.400 1_455 S
C436 H421 0.960 . S
C436 H422 0.960 . S
C436 H423 0.960 . S
C436 C435 1.524 . S
C437 C434 1.403 1_655 S
C437 C438 1.392 1_554 S
C437 C441 1.495 . S
C438 C437 1.392 1_556 S
C438 C439 1.385 1_565 S
C438 C440 1.478 . S
C439 H433 0.930 . S
C439 C435 1.400 1_655 S
C439 C438 1.385 1_545 S
C440 C438 1.478 . S
C440 C442 1.381 . S
C440 C446 1.383 1_565 S
C441 C437 1.495 . S
C441 H447 0.959 . S
C441 H448 0.961 . S
C441 H449 0.960 . S
C442 C440 1.381 . S
C442 C443 1.394 . S
C442 H450 0.930 . S
C443 C442 1.394 . S
C443 C444 1.383 . S
C443 H451 0.929 . S
C444 C443 1.383 . S
C444 C445 1.377 1_565 S
C445 H429 0.930 . S
C445 C444 1.377 1_545 S
C445 C446 1.379 . S
C446 H430 0.931 . S
C446 C440 1.383 1_545 S
C446 C445 1.379 . S
H447 C441 0.959 . S
H448 C441 0.961 . S
H449 C441 0.960 . S
H450 C442 0.930 . S
H451 C443 0.929 . S
H452 C460 0.929 . S
H453 C462 0.930 1_556 S
H454 C464 0.930 . S
H455 C467 0.929 . S
H456 C470 0.930 . S
H457 C472 0.960 . S
H458 C472 0.960 . S
H459 C472 0.960 . S
C460 H452 0.929 . S
C460 C461 1.377 . S
C460 C462 1.384 . S
C461 C460 1.377 . S
C461 C467 1.390 . S
C462 H453 0.930 1_554 S
C462 C460 1.384 . S
C462 C463 1.372 . S
C463 C462 1.372 . S
C463 C464 1.400 . S
C463 C468 1.490 . S
C464 H454 0.930 . S
C464 C463 1.400 . S
C464 C467 1.386 . S
H465 C481 0.930 . S
H466 C482 0.931 1_554 S
C467 H455 0.929 . S
C467 C461 1.390 . S
C467 C464 1.386 . S
C468 C463 1.490 . S
C468 C470 1.395 1_564 S
C468 C471 1.403 . S
H469 C475 0.930 . S
C470 H456 0.930 . S
C470 C468 1.395 1_546 S
C470 C473 1.403 . S
C471 C468 1.403 . S
C471 C472 1.524 . S
C471 C475 1.400 1_554 S
C472 H457 0.960 . S
C472 H458 0.960 . S
C472 H459 0.960 . S
C472 C471 1.524 . S
C473 C470 1.403 . S
C473 C474 1.392 . S
C473 C477 1.495 . S
C474 C473 1.392 . S
C474 C475 1.385 1_545 S
C474 C476 1.478 . S
C475 H469 0.930 . S
C475 C471 1.400 1_556 S
C475 C474 1.385 1_565 S
C476 C474 1.478 . S
C476 C478 1.381 . S
C476 C482 1.383 . S
C477 C473 1.495 . S
C477 H483 0.959 . S
C477 H484 0.961 . S
C477 H485 0.960 . S
C478 C476 1.381 . S
C478 C479 1.394 . S
C478 H486 0.930 . S
C479 C478 1.394 . S
C479 C480 1.383 . S
C479 H487 0.929 . S
C480 C479 1.383 . S
C480 C481 1.377 . S
C481 H465 0.930 . S
C481 C480 1.377 . S
C481 C482 1.379 . S
C482 H466 0.931 1_556 S
C482 C476 1.383 . S
C482 C481 1.379 . S
H483 C477 0.959 . S
H484 C477 0.961 . S
H485 C477 0.960 . S
H486 C478 0.930 . S
H487 C479 0.929 . S
H488 C496 0.929 . S
H489 C498 0.930 . S
H490 C500 0.930 . S
H491 C503 0.929 . S
H492 C506 0.928 1_455 S
H493 C508 0.960 . S
H494 C508 0.960 . S
H495 C508 0.960 . S
C496 H488 0.929 . S
C496 C497 1.377 . S
C496 C498 1.384 . S
C497 C496 1.377 . S
C497 C503 1.390 . S
C498 H489 0.930 . S
C498 C496 1.384 . S
C498 C499 1.372 . S
C499 C498 1.372 . S
C499 C500 1.400 . S
C499 C504 1.490 . S
C500 H490 0.930 . S
C500 C499 1.400 . S
C500 C503 1.386 . S
H501 C517 0.930 . S
H502 C518 0.931 . S
C503 H491 0.929 . S
C503 C497 1.390 . S
C503 C500 1.386 . S
C504 C499 1.490 . S
C504 C506 1.385 1_455 S
C504 C507 1.403 . S
H505 C511 0.930 . S
C506 H492 0.928 1_655 S
C506 C504 1.385 1_655 S
C506 C509 1.414 . S
C507 C504 1.403 . S
C507 C508 1.524 . S
C507 C511 1.400 1_455 S
C508 H493 0.960 . S
C508 H494 0.960 . S
C508 H495 0.960 . S
C508 C507 1.524 . S
C509 C506 1.414 . S
C509 C510 1.392 . S
C509 C513 1.495 . S
C510 C509 1.392 . S
C510 C511 1.385 . S
C510 C512 1.478 . S
C511 H505 0.930 . S
C511 C507 1.400 1_655 S
C511 C510 1.385 . S
C512 C510 1.478 . S
C512 C514 1.381 . S
C512 C518 1.383 . S
C513 C509 1.495 . S
C513 H519 0.959 . S
C513 H520 0.961 . S
C513 H521 0.960 . S
C514 C512 1.381 . S
C514 C515 1.394 . S
C514 H522 0.930 . S
C515 C514 1.394 . S
C515 C516 1.383 . S
C515 H523 0.929 . S
C516 C515 1.383 . S
C516 C517 1.377 . S
C517 H501 0.930 . S
C517 C516 1.377 . S
C517 C518 1.379 . S
C518 H502 0.931 . S
C518 C512 1.383 . S
C518 C517 1.379 . S
H519 C513 0.959 . S
H520 C513 0.961 . S
H521 C513 0.960 . S
H522 C514 0.930 . S
H523 C515 0.929 . S
H524 C532 0.929 . S
H525 C534 0.930 . S
H526 C536 0.930 . S
H527 C539 0.929 . S
H528 C542 0.930 . S
H529 C544 0.960 . S
H530 C544 0.960 . S
H531 C544 0.960 . S
C532 H524 0.929 . S
C532 C533 1.377 . S
C532 C534 1.384 . S
C533 C532 1.377 . S
C533 C539 1.390 . S
C534 H525 0.930 . S
C534 C532 1.384 . S
C534 C535 1.372 . S
C535 C534 1.372 . S
C535 C536 1.400 . S
C535 C540 1.490 . S
C536 H526 0.930 . S
C536 C535 1.400 . S
C536 C539 1.386 . S
H537 C553 0.930 . S
H538 C554 0.931 . S
C539 H527 0.929 . S
C539 C533 1.390 . S
C539 C536 1.386 . S
C540 C535 1.490 . S
C540 C542 1.395 . S
C540 C543 1.403 . S
H541 C547 0.930 . S
C542 H528 0.930 . S
C542 C540 1.395 . S
C542 C545 1.403 . S
C543 C540 1.403 . S
C543 C544 1.524 . S
C543 C547 1.400 . S
C544 H529 0.960 . S
C544 H530 0.960 . S
C544 H531 0.960 . S
C544 C543 1.524 . S
C545 C542 1.403 . S
C545 C546 1.392 . S
C545 C549 1.495 . S
C546 C545 1.392 . S
C546 C547 1.385 . S
C546 C548 1.478 . S
C547 H541 0.930 . S
C547 C543 1.400 . S
C547 C546 1.385 . S
C548 C546 1.478 . S
C548 C550 1.381 . S
C548 C554 1.383 . S
C549 C545 1.495 . S
C549 H555 0.959 . S
C549 H556 0.961 . S
C549 H557 0.960 . S
C550 C548 1.381 . S
C550 C551 1.394 . S
C550 H558 0.930 . S
C551 C550 1.394 . S
C551 C552 1.383 . S
C551 H559 0.929 . S
C552 C551 1.383 . S
C552 C553 1.377 . S
C553 H537 0.930 . S
C553 C552 1.377 . S
C553 C554 1.379 . S
C554 H538 0.931 . S
C554 C548 1.383 . S
C554 C553 1.379 . S
H555 C549 0.959 . S
H556 C549 0.961 . S
H557 C549 0.960 . S
H558 C550 0.930 . S
H559 C551 0.929 . S
H560 C568 0.929 . S
H561 C570 0.930 . S
H562 C572 0.930 . S
H563 C575 0.929 . S
H564 C578 0.930 . S
H565 C580 0.960 . S
H566 C580 0.960 . S
H567 C580 0.960 . S
C568 H560 0.929 . S
C568 C569 1.377 . S
C568 C570 1.384 . S
C569 C568 1.377 . S
C569 C575 1.390 . S
C570 H561 0.930 . S
C570 C568 1.384 . S
C570 C571 1.372 . S
C571 C570 1.372 . S
C571 C572 1.400 . S
C571 C576 1.490 . S
C572 H562 0.930 . S
C572 C571 1.400 . S
C572 C575 1.386 . S
H573 C589 0.930 . S
H574 C590 0.931 . S
C575 H563 0.929 . S
C575 C569 1.390 . S
C575 C572 1.386 . S
C576 C571 1.490 . S
C576 C578 1.395 . S
C576 C579 1.403 . S
H577 C583 0.930 . S
C578 H564 0.930 . S
C578 C576 1.395 . S
C578 C581 1.403 . S
C579 C576 1.403 . S
C579 C580 1.524 . S
C579 C583 1.400 . S
C580 H565 0.960 . S
C580 H566 0.960 . S
C580 H567 0.960 . S
C580 C579 1.524 . S
C581 C578 1.403 . S
C581 C582 1.392 . S
C581 C585 1.495 . S
C582 C581 1.392 . S
C582 C583 1.385 . S
C582 C584 1.478 . S
C583 H577 0.930 . S
C583 C579 1.400 . S
C583 C582 1.385 . S
C584 C582 1.478 . S
C584 C586 1.381 . S
C584 C590 1.383 . S
C585 C581 1.495 . S
C585 H591 0.959 . S
C585 H592 0.961 . S
C585 H593 0.960 . S
C586 C584 1.381 . S
C586 C587 1.394 . S
C586 H594 0.930 . S
C587 C586 1.394 . S
C587 C588 1.383 . S
C587 H595 0.929 . S
C588 C587 1.383 . S
C588 C589 1.377 . S
C589 H573 0.930 . S
C589 C588 1.377 . S
C589 C590 1.379 . S
C590 H574 0.931 . S
C590 C584 1.383 . S
C590 C589 1.379 . S
H591 C585 0.959 . S
H592 C585 0.961 . S
H593 C585 0.960 . S
H594 C586 0.930 . S
H595 C587 0.929 . S
H596 C604 0.929 . S
H597 C606 0.930 . S
H598 C608 0.930 . S
H599 C611 0.929 . S
H600 C614 0.930 . S
H601 C616 0.960 . S
H602 C616 0.960 . S
H603 C616 0.960 . S
C604 H596 0.929 . S
C604 C605 1.377 . S
C604 C606 1.384 . S
C605 C604 1.377 . S
C605 C611 1.390 . S
C606 H597 0.930 . S
C606 C604 1.384 . S
C606 C607 1.372 . S
C607 C606 1.372 . S
C607 C608 1.400 . S
C607 C612 1.490 . S
C608 H598 0.930 . S
C608 C607 1.400 . S
C608 C611 1.386 . S
H609 C625 0.930 . S
H610 C626 0.931 . S
C611 H599 0.929 . S
C611 C605 1.390 . S
C611 C608 1.386 . S
C612 C607 1.490 . S
C612 C614 1.395 . S
C612 C615 1.403 . S
H613 C619 0.930 . S
C614 H600 0.930 . S
C614 C612 1.395 . S
C614 C617 1.403 . S
C615 C612 1.403 . S
C615 C616 1.524 . S
C615 C619 1.400 . S
C616 H601 0.960 . S
C616 H602 0.960 . S
C616 H603 0.960 . S
C616 C615 1.524 . S
C617 C614 1.403 . S
C617 C618 1.392 . S
C617 C621 1.495 . S
C618 C617 1.392 . S
C618 C619 1.385 . S
C618 C620 1.478 . S
C619 H613 0.930 . S
C619 C615 1.400 . S
C619 C618 1.385 . S
C620 C618 1.478 . S
C620 C622 1.381 . S
C620 C626 1.383 . S
C621 C617 1.495 . S
C621 H627 0.959 . S
C621 H628 0.961 . S
C621 H629 0.960 . S
C622 C620 1.381 . S
C622 C623 1.394 . S
C622 H630 0.930 . S
C623 C622 1.394 . S
C623 C624 1.383 . S
C623 H631 0.929 . S
C624 C623 1.383 . S
C624 C625 1.377 . S
C625 H609 0.930 . S
C625 C624 1.377 . S
C625 C626 1.379 . S
C626 H610 0.931 . S
C626 C620 1.383 . S
C626 C625 1.379 . S
H627 C621 0.959 . S
H628 C621 0.961 . S
H629 C621 0.960 . S
H630 C622 0.930 . S
H631 C623 0.929 . S
H632 C640 0.929 . S
H633 C642 0.930 . S
H634 C644 0.930 . S
H635 C647 0.929 . S
H636 C650 0.930 . S
H637 C652 0.960 . S
H638 C652 0.960 . S
H639 C652 0.960 . S
C640 H632 0.929 . S
C640 C641 1.377 . S
C640 C642 1.384 . S
C641 C640 1.377 . S
C641 C647 1.390 . S
C642 H633 0.930 . S
C642 C640 1.384 . S
C642 C643 1.372 . S
C643 C642 1.372 . S
C643 C644 1.400 . S
C643 C648 1.490 . S
C644 H634 0.930 . S
C644 C643 1.400 . S
C644 C647 1.386 . S
H645 C661 0.930 . S
H646 C662 0.931 . S
C647 H635 0.929 . S
C647 C641 1.390 . S
C647 C644 1.386 . S
C648 C643 1.490 . S
C648 C650 1.395 . S
C648 C651 1.403 . S
H649 C655 0.930 . S
C650 H636 0.930 . S
C650 C648 1.395 . S
C650 C653 1.403 . S
C651 C648 1.403 . S
C651 C652 1.524 . S
C651 C655 1.400 . S
C652 H637 0.960 . S
C652 H638 0.960 . S
C652 H639 0.960 . S
C652 C651 1.524 . S
C653 C650 1.403 . S
C653 C654 1.392 . S
C653 C657 1.495 . S
C654 C653 1.392 . S
C654 C655 1.385 . S
C654 C656 1.478 . S
C655 H649 0.930 . S
C655 C651 1.400 . S
C655 C654 1.385 . S
C656 C654 1.478 . S
C656 C658 1.381 . S
C656 C662 1.383 . S
C657 C653 1.495 . S
C657 H663 0.959 . S
C657 H664 0.961 . S
C657 H665 0.960 . S
C658 C656 1.381 . S
C658 C659 1.394 . S
C658 H666 0.930 . S
C659 C658 1.394 . S
C659 C660 1.383 . S
C659 H667 0.929 . S
C660 C659 1.383 . S
C660 C661 1.377 . S
C661 H645 0.930 . S
C661 C660 1.377 . S
C661 C662 1.379 . S
C662 H646 0.931 . S
C662 C656 1.383 . S
C662 C661 1.379 . S
H663 C657 0.959 . S
H664 C657 0.961 . S
H665 C657 0.960 . S
H666 C658 0.930 . S
H667 C659 0.929 . S
H668 C676 0.929 . S
H669 C678 0.930 . S
H670 C680 0.930 . S
H671 C683 0.929 . S
H672 C686 0.930 . S
H673 C688 0.960 . S
H674 C688 0.960 . S
H675 C688 0.960 . S
C676 H668 0.929 . S
C676 C677 1.377 . S
C676 C678 1.384 . S
C677 C676 1.377 . S
C677 C683 1.390 . S
C678 H669 0.930 . S
C678 C676 1.384 . S
C678 C679 1.372 . S
C679 C678 1.372 . S
C679 C680 1.400 . S
C679 C684 1.490 . S
C680 H670 0.930 . S
C680 C679 1.400 . S
C680 C683 1.386 . S
H681 C697 0.930 . S
H682 C698 0.931 . S
C683 H671 0.929 . S
C683 C677 1.390 . S
C683 C680 1.386 . S
C684 C679 1.490 . S
C684 C686 1.395 . S
C684 C687 1.403 . S
H685 C691 0.930 . S
C686 H672 0.930 . S
C686 C684 1.395 . S
C686 C689 1.403 . S
C687 C684 1.403 . S
C687 C688 1.524 . S
C687 C691 1.400 . S
C688 H673 0.960 . S
C688 H674 0.960 . S
C688 H675 0.960 . S
C688 C687 1.524 . S
C689 C686 1.403 . S
C689 C690 1.392 . S
C689 C693 1.495 . S
C690 C689 1.392 . S
C690 C691 1.385 . S
C690 C692 1.478 . S
C691 H685 0.930 . S
C691 C687 1.400 . S
C691 C690 1.385 . S
C692 C690 1.478 . S
C692 C694 1.381 . S
C692 C698 1.383 . S
C693 C689 1.495 . S
C693 H699 0.959 . S
C693 H700 0.961 . S
C693 H701 0.960 . S
C694 C692 1.381 . S
C694 C695 1.394 . S
C694 H702 0.930 . S
C695 C694 1.394 . S
C695 C696 1.383 . S
C695 H703 0.929 . S
C696 C695 1.383 . S
C696 C697 1.377 . S
C697 H681 0.930 . S
C697 C696 1.377 . S
C697 C698 1.379 . S
C698 H682 0.931 . S
C698 C692 1.383 . S
C698 C697 1.379 . S
H699 C693 0.959 . S
H700 C693 0.961 . S
H701 C693 0.960 . S
H702 C694 0.930 . S
H703 C695 0.929 . S
H704 C712 0.929 . S
H705 C714 0.930 . S
H706 C716 0.930 . S
H707 C719 0.929 . S
H708 C722 0.930 . S
H709 C724 0.960 . S
H710 C724 0.960 . S
H711 C724 0.960 . S
C712 H704 0.929 . S
C712 C713 1.377 . S
C712 C714 1.384 . S
C713 C712 1.377 . S
C713 C719 1.390 . S
C714 H705 0.930 . S
C714 C712 1.384 . S
C714 C715 1.372 . S
C715 C714 1.372 . S
C715 C716 1.400 . S
C715 C720 1.490 . S
C716 H706 0.930 . S
C716 C715 1.400 . S
C716 C719 1.386 . S
H717 C733 0.930 . S
H718 C734 0.931 . S
C719 H707 0.929 . S
C719 C713 1.390 . S
C719 C716 1.386 . S
C720 C715 1.490 . S
C720 C722 1.395 . S
C720 C723 1.403 . S
H721 C727 0.930 . S
C722 H708 0.930 . S
C722 C720 1.395 . S
C722 C725 1.403 . S
C723 C720 1.403 . S
C723 C724 1.524 . S
C723 C727 1.400 . S
C724 H709 0.960 . S
C724 H710 0.960 . S
C724 H711 0.960 . S
C724 C723 1.524 . S
C725 C722 1.403 . S
C725 C726 1.392 . S
C725 C729 1.495 . S
C726 C725 1.392 . S
C726 C727 1.385 . S
C726 C728 1.478 . S
C727 H721 0.930 . S
C727 C723 1.400 . S
C727 C726 1.385 . S
C728 C726 1.478 . S
C728 C730 1.381 . S
C728 C734 1.383 . S
C729 C725 1.495 . S
C729 H735 0.959 . S
C729 H736 0.961 . S
C729 H737 0.960 . S
C730 C728 1.381 . S
C730 C731 1.394 . S
C730 H738 0.930 . S
C731 C730 1.394 . S
C731 C732 1.383 . S
C731 H739 0.929 . S
C732 C731 1.383 . S
C732 C733 1.377 . S
C733 H717 0.930 . S
C733 C732 1.377 . S
C733 C734 1.379 . S
C734 H718 0.931 . S
C734 C728 1.383 . S
C734 C733 1.379 . S
H735 C729 0.959 . S
H736 C729 0.961 . S
H737 C729 0.960 . S
H738 C730 0.930 . S
H739 C731 0.929 . S
H740 C748 0.929 . S
H741 C750 0.930 . S
H742 C752 0.930 . S
H743 C755 0.929 . S
H744 C758 0.930 . S
H745 C760 0.960 . S
H746 C760 0.960 . S
H747 C760 0.960 . S
C748 H740 0.929 . S
C748 C749 1.377 . S
C748 C750 1.384 . S
C749 C748 1.377 . S
C749 C755 1.390 . S
C750 H741 0.930 . S
C750 C748 1.384 . S
C750 C751 1.372 . S
C751 C750 1.372 . S
C751 C752 1.400 . S
C751 C756 1.490 . S
C752 H742 0.930 . S
C752 C751 1.400 . S
C752 C755 1.386 . S
H753 C769 0.930 . S
H754 C770 0.931 . S
C755 H743 0.929 . S
C755 C749 1.390 . S
C755 C752 1.386 . S
C756 C751 1.490 . S
C756 C758 1.395 . S
C756 C759 1.403 . S
H757 C763 0.930 . S
C758 H744 0.930 . S
C758 C756 1.395 . S
C758 C761 1.403 . S
C759 C756 1.403 . S
C759 C760 1.524 . S
C759 C763 1.400 . S
C760 H745 0.960 . S
C760 H746 0.960 . S
C760 H747 0.960 . S
C760 C759 1.524 . S
C761 C758 1.403 . S
C761 C762 1.392 . S
C761 C765 1.495 . S
C762 C761 1.392 . S
C762 C763 1.385 . S
C762 C764 1.478 . S
C763 H757 0.930 . S
C763 C759 1.400 . S
C763 C762 1.385 . S
C764 C762 1.478 . S
C764 C766 1.381 . S
C764 C770 1.383 . S
C765 C761 1.495 . S
C765 H771 0.959 . S
C765 H772 0.961 . S
C765 H773 0.960 . S
C766 C764 1.381 . S
C766 C767 1.394 . S
C766 H774 0.930 . S
C767 C766 1.394 . S
C767 C768 1.383 . S
C767 H775 0.929 . S
C768 C767 1.383 . S
C768 C769 1.377 . S
C769 H753 0.930 . S
C769 C768 1.377 . S
C769 C770 1.379 . S
C770 H754 0.931 . S
C770 C764 1.383 . S
C770 C769 1.379 . S
H771 C765 0.959 . S
H772 C765 0.961 . S
H773 C765 0.960 . S
H774 C766 0.930 . S
H775 C767 0.929 . S
H776 C784 0.929 . S
H777 C786 0.930 . S
H778 C788 0.930 . S
H779 C791 0.929 . S
H780 C794 0.930 1_545 S
H781 C796 0.960 . S
H782 C796 0.960 . S
H783 C796 0.960 . S
C784 H776 0.929 . S
C784 C785 1.377 . S
C784 C786 1.384 . S
C785 C784 1.377 . S
C785 C791 1.390 . S
C786 H777 0.930 . S
C786 C784 1.384 . S
C786 C787 1.372 . S
C787 C786 1.372 . S
C787 C788 1.400 . S
C787 C792 1.490 . S
C788 H778 0.930 . S
C788 C787 1.400 . S
C788 C791 1.386 . S
H789 C805 0.930 . S
H790 C806 0.931 . S
C791 H779 0.929 . S
C791 C785 1.390 . S
C791 C788 1.386 . S
C792 C787 1.490 . S
C792 C794 1.395 1_545 S
C792 C795 1.403 . S
H793 C799 0.930 . S
C794 H780 0.930 1_565 S
C794 C792 1.395 1_565 S
C794 C797 1.403 . S
C795 C792 1.403 . S
C795 C796 1.524 . S
C795 C799 1.400 1_545 S
C796 H781 0.960 . S
C796 H782 0.960 . S
C796 H783 0.960 . S
C796 C795 1.524 . S
C797 C794 1.403 . S
C797 C798 1.392 . S
C797 C801 1.495 . S
C798 C797 1.392 . S
C798 C799 1.385 . S
C798 C800 1.478 . S
C799 H793 0.930 . S
C799 C795 1.400 1_565 S
C799 C798 1.385 . S
C800 C798 1.478 . S
C800 C802 1.381 . S
C800 C806 1.383 . S
C801 C797 1.495 . S
C801 H807 0.959 . S
C801 H808 0.961 . S
C801 H809 0.960 . S
C802 C800 1.381 . S
C802 C803 1.394 . S
C802 H810 0.930 . S
C803 C802 1.394 . S
C803 C804 1.383 . S
C803 H811 0.929 . S
C804 C803 1.383 . S
C804 C805 1.377 . S
C805 H789 0.930 . S
C805 C804 1.377 . S
C805 C806 1.379 . S
C806 H790 0.931 . S
C806 C800 1.383 . S
C806 C805 1.379 . S
H807 C801 0.959 . S
H808 C801 0.961 . S
H809 C801 0.960 . S
H810 C802 0.930 . S
H811 C803 0.929 . S
H812 C820 0.929 . S
H813 C822 0.930 . S
H814 C824 0.930 . S
H815 C827 0.929 . S
H816 C830 0.930 . S
H817 C832 0.960 1_545 S
H818 C832 0.960 . S
H819 C832 0.960 . S
C820 H812 0.929 . S
C820 C821 1.377 . S
C820 C822 1.384 . S
C821 C820 1.377 . S
C821 C827 1.390 . S
C822 H813 0.930 . S
C822 C820 1.384 . S
C822 C823 1.372 . S
C823 C822 1.372 . S
C823 C824 1.400 . S
C823 C828 1.490 . S
C824 H814 0.930 . S
C824 C823 1.400 . S
C824 C827 1.386 . S
H825 C841 0.930 . S
H826 C842 0.931 . S
C827 H815 0.929 . S
C827 C821 1.390 . S
C827 C824 1.386 . S
C828 C823 1.490 . S
C828 C830 1.395 . S
C828 C831 1.403 1_565 S
H829 C835 0.930 . S
C830 H816 0.930 . S
C830 C828 1.395 . S
C830 C833 1.403 1_565 S
C831 C828 1.403 1_545 S
C831 C832 1.524 1_545 S
C831 C835 1.400 . S
C832 H817 0.960 1_565 S
C832 H818 0.960 . S
C832 H819 0.960 . S
C832 C831 1.524 1_565 S
C833 C830 1.403 1_545 S
C833 C834 1.392 . S
C833 C837 1.495 . S
C834 C833 1.392 . S
C834 C835 1.385 . S
C834 C836 1.478 . S
C835 H829 0.930 . S
C835 C831 1.400 . S
C835 C834 1.385 . S
C836 C834 1.478 . S
C836 C838 1.381 . S
C836 C842 1.383 . S
C837 C833 1.495 . S
C837 H843 0.959 . S
C837 H844 0.961 . S
C837 H845 0.960 . S
C838 C836 1.381 . S
C838 C839 1.394 . S
C838 H846 0.930 . S
C839 C838 1.394 . S
C839 C840 1.383 . S
C839 H847 0.929 . S
C840 C839 1.383 . S
C840 C841 1.377 . S
C841 H825 0.930 . S
C841 C840 1.377 . S
C841 C842 1.379 . S
C842 H826 0.931 . S
C842 C836 1.383 . S
C842 C841 1.379 . S
H843 C837 0.959 . S
H844 C837 0.961 . S
H845 C837 0.960 . S
H846 C838 0.930 . S
H847 C839 0.929 . S
H848 C856 0.929 . S
H849 C858 0.930 . S
H850 C860 0.930 . S
H851 C863 0.929 . S
H852 C866 0.930 . S
H853 C868 0.960 . S
H854 C868 0.960 . S
H855 C868 0.960 . S
C856 H848 0.929 . S
C856 C857 1.377 . S
C856 C858 1.384 . S
C857 C856 1.377 . S
C857 C863 1.390 . S
C858 H849 0.930 . S
C858 C856 1.384 . S
C858 C859 1.372 . S
C859 C858 1.372 . S
C859 C860 1.400 . S
C859 C864 1.490 . S
C860 H850 0.930 . S
C860 C859 1.400 . S
C860 C863 1.386 . S
H861 C877 0.930 . S
H862 C878 0.931 . S
C863 H851 0.929 . S
C863 C857 1.390 . S
C863 C860 1.386 . S
C864 C859 1.490 . S
C864 C866 1.395 . S
C864 C867 1.403 . S
H865 C871 0.930 . S
C866 H852 0.930 . S
C866 C864 1.395 . S
C866 C869 1.403 . S
C867 C864 1.403 . S
C867 C868 1.524 . S
C867 C871 1.400 . S
C868 H853 0.960 . S
C868 H854 0.960 . S
C868 H855 0.960 . S
C868 C867 1.524 . S
C869 C866 1.403 . S
C869 C870 1.392 . S
C869 C873 1.495 . S
C870 C869 1.392 . S
C870 C871 1.385 . S
C870 C872 1.478 . S
C871 H865 0.930 . S
C871 C867 1.400 . S
C871 C870 1.385 . S
C872 C870 1.478 . S
C872 C874 1.381 . S
C872 C878 1.383 . S
C873 C869 1.495 . S
C873 H879 0.959 . S
C873 H880 0.961 . S
C873 H881 0.960 . S
C874 C872 1.381 . S
C874 C875 1.394 . S
C874 H882 0.930 . S
C875 C874 1.394 . S
C875 C876 1.383 . S
C875 H883 0.929 . S
C876 C875 1.383 . S
C876 C877 1.377 . S
C877 H861 0.930 . S
C877 C876 1.377 . S
C877 C878 1.379 . S
C878 H862 0.931 . S
C878 C872 1.383 . S
C878 C877 1.379 . S
H879 C873 0.959 . S
H880 C873 0.961 . S
H881 C873 0.960 . S
H882 C874 0.930 . S
H883 C875 0.929 . S
H884 C892 0.929 . S
H885 C894 0.930 . S
H886 C896 0.930 . S
H887 C899 0.929 . S
H888 C902 0.930 . S
H889 C904 0.960 . S
H890 C904 0.960 . S
H891 C904 0.960 . S
C892 H884 0.929 . S
C892 C893 1.377 . S
C892 C894 1.384 . S
C893 C892 1.377 . S
C893 C899 1.390 . S
C894 H885 0.930 . S
C894 C892 1.384 . S
C894 C895 1.372 . S
C895 C894 1.372 . S
C895 C896 1.400 . S
C895 C900 1.490 . S
C896 H886 0.930 . S
C896 C895 1.400 . S
C896 C899 1.386 . S
H897 C913 0.930 . S
H898 C914 0.931 . S
C899 H887 0.929 . S
C899 C893 1.390 . S
C899 C896 1.386 . S
C900 C895 1.490 . S
C900 C902 1.395 . S
C900 C903 1.403 . S
H901 C907 0.930 . S
C902 H888 0.930 . S
C902 C900 1.395 . S
C902 C905 1.403 . S
C903 C900 1.403 . S
C903 C904 1.524 . S
C903 C907 1.400 . S
C904 H889 0.960 . S
C904 H890 0.960 . S
C904 H891 0.960 . S
C904 C903 1.524 . S
C905 C902 1.403 . S
C905 C906 1.392 . S
C905 C909 1.495 . S
C906 C905 1.392 . S
C906 C907 1.385 . S
C906 C908 1.478 . S
C907 H901 0.930 . S
C907 C903 1.400 . S
C907 C906 1.385 . S
C908 C906 1.478 . S
C908 C910 1.381 . S
C908 C914 1.383 . S
C909 C905 1.495 . S
C909 H915 0.959 . S
C909 H916 0.961 . S
C909 H917 0.960 . S
C910 C908 1.381 . S
C910 C911 1.394 . S
C910 H918 0.930 . S
C911 C910 1.394 . S
C911 C912 1.383 . S
C911 H919 0.929 . S
C912 C911 1.383 . S
C912 C913 1.377 . S
C913 H897 0.930 . S
C913 C912 1.377 . S
C913 C914 1.379 . S
C914 H898 0.931 . S
C914 C908 1.383 . S
C914 C913 1.379 . S
H915 C909 0.959 . S
H916 C909 0.961 . S
H917 C909 0.960 . S
H918 C910 0.930 . S
H919 C911 0.929 . S
H920 C928 0.929 . S
H921 C930 0.930 . S
H922 C932 0.930 . S
H923 C935 0.929 . S
H924 C938 0.930 . S
H925 C940 0.960 1_545 S
H926 C940 0.960 . S
H927 C940 0.960 . S
C928 H920 0.929 . S
C928 C929 1.377 . S
C928 C930 1.384 . S
C929 C928 1.377 . S
C929 C935 1.390 . S
C930 H921 0.930 . S
C930 C928 1.384 . S
C930 C931 1.372 . S
C931 C930 1.372 . S
C931 C932 1.400 . S
C931 C936 1.490 . S
C932 H922 0.930 . S
C932 C931 1.400 . S
C932 C935 1.386 . S
H933 C949 0.930 . S
H934 C950 0.931 . S
C935 H923 0.929 . S
C935 C929 1.390 . S
C935 C932 1.386 . S
C936 C931 1.490 . S
C936 C938 1.395 . S
C936 C939 1.403 1_565 S
H937 C943 0.930 . S
C938 H924 0.930 . S
C938 C936 1.395 . S
C938 C941 1.403 1_565 S
C939 C936 1.403 1_545 S
C939 C940 1.524 1_545 S
C939 C943 1.400 . S
C940 H925 0.960 1_565 S
C940 H926 0.960 . S
C940 H927 0.960 . S
C940 C939 1.524 1_565 S
C941 C938 1.403 1_545 S
C941 C942 1.392 . S
C941 C945 1.495 . S
C942 C941 1.392 . S
C942 C943 1.385 . S
C942 C944 1.478 . S
C943 H937 0.930 . S
C943 C939 1.400 . S
C943 C942 1.385 . S
C944 C942 1.478 . S
C944 C946 1.381 . S
C944 C950 1.383 . S
C945 C941 1.495 . S
C945 H951 0.959 . S
C945 H952 0.961 . S
C945 H953 0.960 . S
C946 C944 1.381 . S
C946 C947 1.394 . S
C946 H954 0.930 . S
C947 C946 1.394 . S
C947 C948 1.383 . S
C947 H955 0.929 . S
C948 C947 1.383 . S
C948 C949 1.377 . S
C949 H933 0.930 . S
C949 C948 1.377 . S
C949 C950 1.379 . S
C950 H934 0.931 . S
C950 C944 1.383 . S
C950 C949 1.379 . S
H951 C945 0.959 . S
H952 C945 0.961 . S
H953 C945 0.960 . S
H954 C946 0.930 . S
H955 C947 0.929 . S
H956 C964 0.929 . S
H957 C966 0.930 . S
H958 C968 0.930 . S
H959 C971 0.929 . S
H960 C974 0.930 . S
H961 C976 0.960 . S
H962 C976 0.960 . S
H963 C976 0.960 . S
C964 H956 0.929 . S
C964 C965 1.377 . S
C964 C966 1.384 . S
C965 C964 1.377 . S
C965 C971 1.390 . S
C966 H957 0.930 . S
C966 C964 1.384 . S
C966 C967 1.372 . S
C967 C966 1.372 . S
C967 C968 1.400 . S
C967 C972 1.490 . S
C968 H958 0.930 . S
C968 C967 1.400 . S
C968 C971 1.386 . S
H969 C985 0.930 . S
H970 C986 0.931 . S
C971 H959 0.929 . S
C971 C965 1.390 . S
C971 C968 1.386 . S
C972 C967 1.490 . S
C972 C974 1.395 . S
C972 C975 1.403 . S
H973 C979 0.930 1_545 S
C974 H960 0.930 . S
C974 C972 1.395 . S
C974 C977 1.403 1_565 S
C975 C972 1.403 . S
C975 C976 1.524 . S
C975 C979 1.400 . S
C976 H961 0.960 . S
C976 H962 0.960 . S
C976 H963 0.960 . S
C976 C975 1.524 . S
C977 C974 1.403 1_545 S
C977 C978 1.392 . S
C977 C981 1.495 . S
C978 C977 1.392 . S
C978 C979 1.385 1_545 S
C978 C980 1.478 . S
C979 H973 0.930 1_565 S
C979 C975 1.400 . S
C979 C978 1.385 1_565 S
C980 C978 1.478 . S
C980 C982 1.381 . S
C980 C986 1.383 . S
C981 C977 1.495 . S
C981 H987 0.959 . S
C981 H988 0.961 . S
C981 H989 0.960 . S
C982 C980 1.381 . S
C982 C983 1.394 . S
C982 H990 0.930 . S
C983 C982 1.394 . S
C983 C984 1.383 . S
C983 H991 0.929 . S
C984 C983 1.383 . S
C984 C985 1.377 . S
C985 H969 0.930 . S
C985 C984 1.377 . S
C985 C986 1.379 . S
C986 H970 0.931 . S
C986 C980 1.383 . S
C986 C985 1.379 . S
H987 C981 0.959 . S
H988 C981 0.961 . S
H989 C981 0.960 . S
H990 C982 0.930 . S
H991 C983 0.929 . S
C281 C2 1.542 . S
C300 C36 1.544 . S
C317 C104 1.542 . S
C336 C70 1.535 . S
C353 C138 1.543 . S
C372 C172 1.542 . S
C389 C240 1.541 . S
C408 C206 1.533 . S
C425 C20 1.520 . S
C444 C156 1.518 . S
C461 C54 1.521 . S
C480 C190 1.522 . S
C497 C88 1.520 . S
C516 C224 1.514 . S
C533 C122 1.522 . S
C552 C258 1.521 . S
C569 C101 1.592 . S
C588 C33 1.574 . S
C605 C135 1.588 . S
C624 C67 1.587 . S
C641 C169 1.593 . S
C660 C237 1.601 . S
C677 C203 1.589 . S
C696 C271 1.575 . S
C713 C9 1.042 . S
C732 C5 1.072 . S
C749 C43 1.042 . S
C768 C39 1.068 . S
C785 C73 1.064 . S
C804 C77 1.074 . S
C821 C107 1.067 . S
C840 C111 1.015 . S
C857 C141 1.066 . S
C876 C145 1.023 . S
C893 C179 1.046 . S
C912 C175 1.072 . S
C929 C209 1.067 . S
C948 C213 1.038 . S
C965 C247 1.050 . S
C984 C243 1.056 . S
