# Generated by pormake.
# Topology wir, (6)-cn, num edge types: 1
# Building blocks:
#     Node 0, Type 0, BuildingBlock: KUMJIN_clean_sbu_0, # of connection points: 6
#     Node 1, Type 0, BuildingBlock: KUMJIN_clean_sbu_0, # of connection points: 6
#     Node 2, Type 0, BuildingBlock: KUMJIN_clean_sbu_0, # of connection points: 6
#     Node 3, Type 0, BuildingBlock: KUMJIN_clean_sbu_0, # of connection points: 6
#     Node 4, Type 0, BuildingBlock: KUMJIN_clean_sbu_0, # of connection points: 6
#     Node 5, Type 0, BuildingBlock: KUMJIN_clean_sbu_0, # of connection points: 6
#     Node 6, Type 0, BuildingBlock: KUMJIN_clean_sbu_0, # of connection points: 6
#     Node 7, Type 0, BuildingBlock: KUMJIN_clean_sbu_0, # of connection points: 6
#     Node 8, Type 0, BuildingBlock: KUMJIN_clean_sbu_0, # of connection points: 6
#     Node 9, Type 0, BuildingBlock: KUMJIN_clean_sbu_0, # of connection points: 6
#     Node 10, Type 0, BuildingBlock: KUMJIN_clean_sbu_0, # of connection points: 6
#     Node 11, Type 0, BuildingBlock: KUMJIN_clean_sbu_0, # of connection points: 6
#     Node 12, Type 0, BuildingBlock: KUMJIN_clean_sbu_0, # of connection points: 6
#     Node 13, Type 0, BuildingBlock: KUMJIN_clean_sbu_0, # of connection points: 6
#     Node 14, Type 0, BuildingBlock: KUMJIN_clean_sbu_0, # of connection points: 6
#     Node 15, Type 0, BuildingBlock: KUMJIN_clean_sbu_0, # of connection points: 6
#     Node 16, Type 0, BuildingBlock: KUMJIN_clean_sbu_0, # of connection points: 6
#     Node 17, Type 0, BuildingBlock: KUMJIN_clean_sbu_0, # of connection points: 6
#     Node 18, Type 0, BuildingBlock: KUMJIN_clean_sbu_0, # of connection points: 6
#     Node 19, Type 0, BuildingBlock: KUMJIN_clean_sbu_0, # of connection points: 6
#     Node 20, Type 0, BuildingBlock: KUMJIN_clean_sbu_0, # of connection points: 6
#     Node 21, Type 0, BuildingBlock: KUMJIN_clean_sbu_0, # of connection points: 6
#     Node 22, Type 0, BuildingBlock: KUMJIN_clean_sbu_0, # of connection points: 6
#     Node 23, Type 0, BuildingBlock: KUMJIN_clean_sbu_0, # of connection points: 6
#     Node 24, Type 0, BuildingBlock: KUMJIN_clean_sbu_0, # of connection points: 6
#     Node 25, Type 0, BuildingBlock: KUMJIN_clean_sbu_0, # of connection points: 6
#     Node 26, Type 0, BuildingBlock: KUMJIN_clean_sbu_0, # of connection points: 6
#     Node 27, Type 0, BuildingBlock: KUMJIN_clean_sbu_0, # of connection points: 6
#     Node 28, Type 0, BuildingBlock: KUMJIN_clean_sbu_0, # of connection points: 6
#     Node 29, Type 0, BuildingBlock: KUMJIN_clean_sbu_0, # of connection points: 6
#     Node 30, Type 0, BuildingBlock: KUMJIN_clean_sbu_0, # of connection points: 6
#     Node 31, Type 0, BuildingBlock: KUMJIN_clean_sbu_0, # of connection points: 6
#     Edge 32, Type (0, 0), BuildingBlock: ZUJKAS_clean_linker_0, # of connection points: 2
#     Edge 33, Type (0, 0), BuildingBlock: ZUJKAS_clean_linker_0, # of connection points: 2
#     Edge 34, Type (0, 0), BuildingBlock: ZUJKAS_clean_linker_0, # of connection points: 2
#     Edge 35, Type (0, 0), BuildingBlock: ZUJKAS_clean_linker_0, # of connection points: 2
#     Edge 36, Type (0, 0), BuildingBlock: ZUJKAS_clean_linker_0, # of connection points: 2
#     Edge 37, Type (0, 0), BuildingBlock: ZUJKAS_clean_linker_0, # of connection points: 2
#     Edge 38, Type (0, 0), BuildingBlock: ZUJKAS_clean_linker_0, # of connection points: 2
#     Edge 39, Type (0, 0), BuildingBlock: ZUJKAS_clean_linker_0, # of connection points: 2
#     Edge 40, Type (0, 0), BuildingBlock: ZUJKAS_clean_linker_0, # of connection points: 2
#     Edge 41, Type (0, 0), BuildingBlock: ZUJKAS_clean_linker_0, # of connection points: 2
#     Edge 42, Type (0, 0), BuildingBlock: ZUJKAS_clean_linker_0, # of connection points: 2
#     Edge 43, Type (0, 0), BuildingBlock: ZUJKAS_clean_linker_0, # of connection points: 2
#     Edge 44, Type (0, 0), BuildingBlock: ZUJKAS_clean_linker_0, # of connection points: 2
#     Edge 45, Type (0, 0), BuildingBlock: ZUJKAS_clean_linker_0, # of connection points: 2
#     Edge 46, Type (0, 0), BuildingBlock: ZUJKAS_clean_linker_0, # of connection points: 2
#     Edge 47, Type (0, 0), BuildingBlock: ZUJKAS_clean_linker_0, # of connection points: 2
#     Edge 48, Type (0, 0), BuildingBlock: ZUJKAS_clean_linker_0, # of connection points: 2
#     Edge 49, Type (0, 0), BuildingBlock: ZUJKAS_clean_linker_0, # of connection points: 2
#     Edge 50, Type (0, 0), BuildingBlock: ZUJKAS_clean_linker_0, # of connection points: 2
#     Edge 51, Type (0, 0), BuildingBlock: ZUJKAS_clean_linker_0, # of connection points: 2
#     Edge 52, Type (0, 0), BuildingBlock: ZUJKAS_clean_linker_0, # of connection points: 2
#     Edge 53, Type (0, 0), BuildingBlock: ZUJKAS_clean_linker_0, # of connection points: 2
#     Edge 54, Type (0, 0), BuildingBlock: ZUJKAS_clean_linker_0, # of connection points: 2
#     Edge 55, Type (0, 0), BuildingBlock: ZUJKAS_clean_linker_0, # of connection points: 2
#     Edge 56, Type (0, 0), BuildingBlock: ZUJKAS_clean_linker_0, # of connection points: 2
#     Edge 57, Type (0, 0), BuildingBlock: ZUJKAS_clean_linker_0, # of connection points: 2
#     Edge 58, Type (0, 0), BuildingBlock: ZUJKAS_clean_linker_0, # of connection points: 2
#     Edge 59, Type (0, 0), BuildingBlock: ZUJKAS_clean_linker_0, # of connection points: 2
#     Edge 60, Type (0, 0), BuildingBlock: ZUJKAS_clean_linker_0, # of connection points: 2
#     Edge 61, Type (0, 0), BuildingBlock: ZUJKAS_clean_linker_0, # of connection points: 2
#     Edge 62, Type (0, 0), BuildingBlock: ZUJKAS_clean_linker_0, # of connection points: 2
#     Edge 63, Type (0, 0), BuildingBlock: ZUJKAS_clean_linker_0, # of connection points: 2
#     Edge 64, Type (0, 0), BuildingBlock: ZUJKAS_clean_linker_0, # of connection points: 2
#     Edge 65, Type (0, 0), BuildingBlock: ZUJKAS_clean_linker_0, # of connection points: 2
#     Edge 66, Type (0, 0), BuildingBlock: ZUJKAS_clean_linker_0, # of connection points: 2
#     Edge 67, Type (0, 0), BuildingBlock: ZUJKAS_clean_linker_0, # of connection points: 2
#     Edge 68, Type (0, 0), BuildingBlock: ZUJKAS_clean_linker_0, # of connection points: 2
#     Edge 69, Type (0, 0), BuildingBlock: ZUJKAS_clean_linker_0, # of connection points: 2
#     Edge 70, Type (0, 0), BuildingBlock: ZUJKAS_clean_linker_0, # of connection points: 2
#     Edge 71, Type (0, 0), BuildingBlock: ZUJKAS_clean_linker_0, # of connection points: 2
#     Edge 72, Type (0, 0), BuildingBlock: ZUJKAS_clean_linker_0, # of connection points: 2
#     Edge 73, Type (0, 0), BuildingBlock: ZUJKAS_clean_linker_0, # of connection points: 2
#     Edge 74, Type (0, 0), BuildingBlock: ZUJKAS_clean_linker_0, # of connection points: 2
#     Edge 75, Type (0, 0), BuildingBlock: ZUJKAS_clean_linker_0, # of connection points: 2
#     Edge 76, Type (0, 0), BuildingBlock: ZUJKAS_clean_linker_0, # of connection points: 2
#     Edge 77, Type (0, 0), BuildingBlock: ZUJKAS_clean_linker_0, # of connection points: 2
#     Edge 78, Type (0, 0), BuildingBlock: ZUJKAS_clean_linker_0, # of connection points: 2
#     Edge 79, Type (0, 0), BuildingBlock: ZUJKAS_clean_linker_0, # of connection points: 2
#     Edge 80, Type (0, 0), BuildingBlock: ZUJKAS_clean_linker_0, # of connection points: 2
#     Edge 81, Type (0, 0), BuildingBlock: ZUJKAS_clean_linker_0, # of connection points: 2
#     Edge 82, Type (0, 0), BuildingBlock: ZUJKAS_clean_linker_0, # of connection points: 2
#     Edge 83, Type (0, 0), BuildingBlock: ZUJKAS_clean_linker_0, # of connection points: 2
#     Edge 84, Type (0, 0), BuildingBlock: ZUJKAS_clean_linker_0, # of connection points: 2
#     Edge 85, Type (0, 0), BuildingBlock: ZUJKAS_clean_linker_0, # of connection points: 2
#     Edge 86, Type (0, 0), BuildingBlock: ZUJKAS_clean_linker_0, # of connection points: 2
#     Edge 87, Type (0, 0), BuildingBlock: ZUJKAS_clean_linker_0, # of connection points: 2
#     Edge 88, Type (0, 0), BuildingBlock: ZUJKAS_clean_linker_0, # of connection points: 2
#     Edge 89, Type (0, 0), BuildingBlock: ZUJKAS_clean_linker_0, # of connection points: 2
#     Edge 90, Type (0, 0), BuildingBlock: ZUJKAS_clean_linker_0, # of connection points: 2
#     Edge 91, Type (0, 0), BuildingBlock: ZUJKAS_clean_linker_0, # of connection points: 2
#     Edge 92, Type (0, 0), BuildingBlock: ZUJKAS_clean_linker_0, # of connection points: 2
#     Edge 93, Type (0, 0), BuildingBlock: ZUJKAS_clean_linker_0, # of connection points: 2
#     Edge 94, Type (0, 0), BuildingBlock: ZUJKAS_clean_linker_0, # of connection points: 2
#     Edge 95, Type (0, 0), BuildingBlock: ZUJKAS_clean_linker_0, # of connection points: 2
#     Edge 96, Type (0, 0), BuildingBlock: ZUJKAS_clean_linker_0, # of connection points: 2
#     Edge 97, Type (0, 0), BuildingBlock: ZUJKAS_clean_linker_0, # of connection points: 2
#     Edge 98, Type (0, 0), BuildingBlock: ZUJKAS_clean_linker_0, # of connection points: 2
#     Edge 99, Type (0, 0), BuildingBlock: ZUJKAS_clean_linker_0, # of connection points: 2
#     Edge 100, Type (0, 0), BuildingBlock: ZUJKAS_clean_linker_0, # of connection points: 2
#     Edge 101, Type (0, 0), BuildingBlock: ZUJKAS_clean_linker_0, # of connection points: 2
#     Edge 102, Type (0, 0), BuildingBlock: ZUJKAS_clean_linker_0, # of connection points: 2
#     Edge 103, Type (0, 0), BuildingBlock: ZUJKAS_clean_linker_0, # of connection points: 2
#     Edge 104, Type (0, 0), BuildingBlock: ZUJKAS_clean_linker_0, # of connection points: 2
#     Edge 105, Type (0, 0), BuildingBlock: ZUJKAS_clean_linker_0, # of connection points: 2
#     Edge 106, Type (0, 0), BuildingBlock: ZUJKAS_clean_linker_0, # of connection points: 2
#     Edge 107, Type (0, 0), BuildingBlock: ZUJKAS_clean_linker_0, # of connection points: 2
#     Edge 108, Type (0, 0), BuildingBlock: ZUJKAS_clean_linker_0, # of connection points: 2
#     Edge 109, Type (0, 0), BuildingBlock: ZUJKAS_clean_linker_0, # of connection points: 2
#     Edge 110, Type (0, 0), BuildingBlock: ZUJKAS_clean_linker_0, # of connection points: 2
#     Edge 111, Type (0, 0), BuildingBlock: ZUJKAS_clean_linker_0, # of connection points: 2
#     Edge 112, Type (0, 0), BuildingBlock: ZUJKAS_clean_linker_0, # of connection points: 2
#     Edge 113, Type (0, 0), BuildingBlock: ZUJKAS_clean_linker_0, # of connection points: 2
#     Edge 114, Type (0, 0), BuildingBlock: ZUJKAS_clean_linker_0, # of connection points: 2
#     Edge 115, Type (0, 0), BuildingBlock: ZUJKAS_clean_linker_0, # of connection points: 2
#     Edge 116, Type (0, 0), BuildingBlock: ZUJKAS_clean_linker_0, # of connection points: 2
#     Edge 117, Type (0, 0), BuildingBlock: ZUJKAS_clean_linker_0, # of connection points: 2
#     Edge 118, Type (0, 0), BuildingBlock: ZUJKAS_clean_linker_0, # of connection points: 2
#     Edge 119, Type (0, 0), BuildingBlock: ZUJKAS_clean_linker_0, # of connection points: 2
#     Edge 120, Type (0, 0), BuildingBlock: ZUJKAS_clean_linker_0, # of connection points: 2
#     Edge 121, Type (0, 0), BuildingBlock: ZUJKAS_clean_linker_0, # of connection points: 2
#     Edge 122, Type (0, 0), BuildingBlock: ZUJKAS_clean_linker_0, # of connection points: 2
#     Edge 123, Type (0, 0), BuildingBlock: ZUJKAS_clean_linker_0, # of connection points: 2
#     Edge 124, Type (0, 0), BuildingBlock: ZUJKAS_clean_linker_0, # of connection points: 2
#     Edge 125, Type (0, 0), BuildingBlock: ZUJKAS_clean_linker_0, # of connection points: 2
#     Edge 126, Type (0, 0), BuildingBlock: ZUJKAS_clean_linker_0, # of connection points: 2
#     Edge 127, Type (0, 0), BuildingBlock: ZUJKAS_clean_linker_0, # of connection points: 2
# Relax obj value: 0.265
# Max RMSD: 0.202
# Mean RMSD: 0.202
data_MOF--net-wir--node1-KUMJIN_clean_sbu_0--edge1-ZUJKAS_clean_linker_0
_symmetry_space_group_name_H-M    P1
_symmetry_Int_Tables_number       1
_symmetry_cell_setting            triclinic
loop_
_symmetry_equiv_pos_as_xyz
'x, y, z'
_cell_length_a     54.089092
_cell_length_b     54.070955
_cell_length_c     120.76171
_cell_angle_alpha  90.034626
_cell_angle_beta   89.952058
_cell_angle_gamma 89.970123
loop_
_atom_site_label
_atom_site_type_symbol
_atom_site_fract_x
_atom_site_fract_y
_atom_site_fract_z
_atom_type_partial_charge
Eu0 Eu 0.2424 0.24134 0.36735 0.0
C1 C 0.16718 0.16256 0.35061 0.0
C2 C 0.15945 0.13732 0.36684 0.0
C3 C 0.12893 0.13894 0.35217 0.0
C4 C 0.17487 0.15375 0.36086 0.0
C5 C 0.14419 0.155 0.34616 0.0
C6 C 0.13654 0.13011 0.36247 0.0
C7 C 0.15309 0.17894 0.32982 0.0
N8 N 0.18215 0.17819 0.34489 0.0
C9 C 0.17564 0.18589 0.33448 0.0
C10 C 0.13719 0.16361 0.33571 0.0
Eu11 Eu 0.21968 0.19019 0.35364 0.0
N12 N 0.197 0.16143 0.36507 0.0
C13 C 0.2046 0.1525 0.37517 0.0
C14 C 0.16733 0.12856 0.37711 0.0
C15 C 0.19001 0.13614 0.38125 0.0
H16 H 0.18769 0.19734 0.32959 0.0
H17 H 0.19621 0.1296 0.38926 0.0
H18 H 0.12456 0.11763 0.367 0.0
H19 H 0.14804 0.18535 0.32163 0.0
H20 H 0.2214 0.1583 0.37906 0.0
H21 H 0.21012 0.32743 0.34795 0.0
H22 H 0.15599 0.11601 0.38192 0.0
H23 H 0.29502 0.20802 0.36144 0.0
H24 H 0.20667 0.29106 0.35977 0.0
H25 H 0.3344 0.21464 0.35206 0.0
H26 H 0.11124 0.13308 0.34888 0.0
H27 H 0.24882 0.3358 0.33779 0.0
H28 H 0.29198 0.32341 0.33318 0.0
H29 H 0.11971 0.15822 0.33206 0.0
H30 H 0.32597 0.29358 0.33474 0.0
N31 N 0.24245 0.27678 0.3557 0.0
C32 C 0.22335 0.29334 0.35501 0.0
C33 C 0.24732 0.31929 0.34283 0.0
C34 C 0.26714 0.30286 0.34383 0.0
C35 C 0.22538 0.31453 0.34847 0.0
C36 C 0.26426 0.2815 0.35046 0.0
H37 H 0.34193 0.25329 0.34174 0.0
N38 N 0.27989 0.24317 0.35709 0.0
C39 C 0.32034 0.22889 0.35185 0.0
C40 C 0.28355 0.26449 0.35131 0.0
C41 C 0.29783 0.22532 0.35729 0.0
C42 C 0.32454 0.25074 0.34606 0.0
C43 C 0.30598 0.2687 0.34558 0.0
O44 O 0.2695 0.2556 0.37911 0.0
O45 O 0.21378 0.21324 0.36812 0.0
O46 O 0.18445 0.21752 0.35326 0.0
O47 O 0.19843 0.25029 0.36408 0.0
O48 O 0.22995 0.22086 0.3829 0.0
O49 O 0.23468 0.27461 0.37694 0.0
O50 O 0.22007 0.1595 0.34186 0.0
O51 O 0.24615 0.22275 0.3505 0.0
O52 O 0.26597 0.20895 0.37597 0.0
O53 O 0.24931 0.17461 0.36734 0.0
O54 O 0.22023 0.2164 0.3386 0.0
O55 O 0.25454 0.17404 0.34802 0.0
C56 C 0.21276 0.20817 0.37827 0.0
C57 C 0.24801 0.26702 0.39528 0.0
C58 C 0.21611 0.26216 0.40944 0.0
C59 C 0.22389 0.27104 0.3991 0.0
C60 C 0.23328 0.2503 0.41635 0.0
C61 C 0.26506 0.25525 0.40233 0.0
C62 C 0.2577 0.24708 0.41282 0.0
C63 C 0.17959 0.23945 0.35828 0.0
C64 C 0.25368 0.27105 0.38343 0.0
C65 C 0.30893 0.29017 0.33921 0.0
C66 C 0.28954 0.30713 0.33829 0.0
C67 C 0.23871 0.23043 0.34089 0.0
C68 C 0.25238 0.13123 0.34468 0.0
C69 C 0.26408 0.11738 0.33638 0.0
C70 C 0.2717 0.09291 0.33848 0.0
C71 C 0.26796 0.08277 0.34907 0.0
C72 C 0.2483 0.12057 0.35511 0.0
C73 C 0.2563 0.09656 0.35732 0.0
C74 C 0.26525 0.18407 0.37499 0.0
C75 C 0.24389 0.15651 0.34236 0.0
H76 H 0.2109 0.28085 0.39388 0.0
H77 H 0.22785 0.24357 0.42444 0.0
H78 H 0.28379 0.25164 0.39959 0.0
H79 H 0.27086 0.23783 0.41814 0.0
H80 H 0.26654 0.12539 0.32823 0.0
H81 H 0.27391 0.06412 0.35096 0.0
H82 H 0.2389 0.1307 0.36154 0.0
H83 H 0.25327 0.08856 0.36542 0.0
Eu84 Eu 0.09306 0.99318 0.61054 0.0
C85 C 0.17777 0.92253 0.59334 0.0
C86 C 0.20355 0.91683 0.60954 0.0
C87 C 0.20696 0.88822 0.59414 0.0
C88 C 0.18532 0.93039 0.60373 0.0
C89 C 0.18859 0.90137 0.58845 0.0
C90 C 0.21442 0.89593 0.60466 0.0
C91 C 0.16265 0.90772 0.57248 0.0
N92 N 0.15974 0.93538 0.58804 0.0
C93 C 0.15252 0.92855 0.57761 0.0
C94 C 0.18068 0.89398 0.57794 0.0
Eu95 Eu 0.14388 0.97121 0.59701 0.0
N96 N 0.17389 0.95028 0.60841 0.0
C97 C 0.17979 0.95691 0.61907 0.0
C98 C 0.20996 0.92421 0.62023 0.0
C99 C 0.19788 0.9442 0.62504 0.0
H100 H 0.13928 0.93926 0.57301 0.0
H101 H 0.20215 0.94961 0.63345 0.0
H102 H 0.22842 0.8854 0.60901 0.0
H103 H 0.1567 0.90243 0.56426 0.0
H104 H 0.16994 0.97114 0.62344 0.0
H105 H 1.00137 0.96445 0.59612 0.0
H106 H 0.22377 0.91422 0.62495 0.0
H107 H 0.12642 0.04363 0.60368 0.0
H108 H 1.03948 0.96132 0.60708 0.0
H109 H 0.12124 0.0819 0.5929 0.0
H110 H 0.21543 0.87197 0.59049 0.0
H111 H 0.99456 1.00044 0.5839 0.0
H112 H 1.00944 1.04117 0.57665 0.0
H113 H 0.18854 0.87786 0.57392 0.0
H114 H 1.04135 0.07348 0.57617 0.0
N115 N 0.05561 0.99399 0.60031 0.0
C116 C 1.03749 0.97652 0.60136 0.0
C117 C 1.01169 0.9989 0.5885 0.0
C118 C 1.02969 1.01741 0.5879 0.0
C119 C 1.01552 0.97849 0.59534 0.0
C120 C 0.05172 1.0145 0.59403 0.0
H121 H 0.08282 0.08894 0.58228 0.0
N122 N 0.09139 1.02887 0.5992 0.0
C123 C 0.10666 0.06819 0.59303 0.0
C124 C 0.06984 1.03269 0.59367 0.0
C125 C 0.10956 0.04642 0.59913 0.0
C126 C 0.08491 0.07215 0.58708 0.0
C127 C 0.0662 0.05429 0.58731 0.0
O128 O 0.09216 1.02196 0.62322 0.0
O129 O 0.12715 0.97202 0.61356 0.0
O130 O 0.11698 0.93584 0.59665 0.0
O131 O 0.08181 0.95047 0.60572 0.0
O132 O 0.09488 0.95933 0.62122 0.0
O133 O 0.06052 0.9982 0.62101 0.0
O134 O 0.15401 1.00722 0.59024 0.0
O135 O 0.11033 0.99585 0.59347 0.0
O136 O 0.12672 1.01444 0.61973 0.0
O137 O 0.16108 1.00077 0.6102 0.0
O138 O 0.11496 0.96686 0.58299 0.0
O139 O 0.17538 0.97512 0.58575 0.0
C140 C 0.11824 0.95548 0.61996 0.0
C141 C 0.06926 1.0123 0.63908 0.0
C142 C 0.06605 0.98471 0.65504 0.0
C143 C 0.07156 0.98879 0.6438 0.0
C144 C 0.06127 1.00564 0.66175 0.0
C145 C 0.06452 1.03273 0.64586 0.0
C146 C 0.0611 1.02941 0.6572 0.0
C147 C 0.09415 0.93129 0.60082 0.0
C148 C 0.07072 1.0154 0.62704 0.0
C149 C 0.04433 0.05715 0.58119 0.0
C150 C 1.02619 1.03871 0.58144 0.0
C151 C 0.10174 0.98644 0.58441 0.0
C152 C 0.17244 1.00725 0.57262 0.0
C153 C 0.19142 1.02323 0.56937 0.0
C154 C 0.19293 1.03175 0.55839 0.0
C155 C 0.17447 1.02478 0.5508 0.0
C156 C 0.15457 0.99989 0.5649 0.0
C157 C 0.15539 1.00895 0.55408 0.0
C158 C 0.15155 1.01533 0.61834 0.0
C159 C 0.17178 0.99859 0.58412 0.0
H160 H 0.07649 0.97361 0.6385 0.0
H161 H 0.05643 1.00394 0.67039 0.0
H162 H 0.06311 0.05111 0.64235 0.0
H163 H 0.05715 0.04521 0.66243 0.0
H164 H 0.20519 1.02881 0.57539 0.0
H165 H 0.17524 1.03083 0.54226 0.0
H166 H 0.14007 0.98717 0.56719 0.0
H167 H 0.14145 1.00335 0.54816 0.0
Eu168 Eu 0.34796 0.84055 0.86689 0.0
C169 C 0.42318 0.91952 0.84887 0.0
C170 C 0.43047 0.94681 0.86441 0.0
C171 C 0.46072 0.94437 0.84961 0.0
C172 C 0.41552 0.92931 0.85885 0.0
C173 C 0.44585 0.92704 0.84411 0.0
C174 C 0.45304 0.95424 0.85975 0.0
C175 C 0.43744 0.90014 0.82866 0.0
N176 N 0.40853 0.90261 0.84379 0.0
C177 C 0.41519 0.89328 0.83367 0.0
C178 C 0.45292 0.917 0.83392 0.0
Eu179 Eu 0.37087 0.89137 0.85279 0.0
N180 N 0.39382 0.92134 0.86326 0.0
C181 C 0.38588 0.93093 0.87316 0.0
C182 C 0.42241 0.95628 0.87455 0.0
C183 C 0.39999 0.94833 0.87892 0.0
H184 H 0.40359 0.88035 0.82933 0.0
H185 H 0.39361 0.95544 0.8868 0.0
H186 H 0.46471 0.96759 0.86392 0.0
H187 H 0.4426 0.89243 0.82071 0.0
H188 H 0.36908 0.92492 0.87703 0.0
H189 H 0.3818 0.75893 0.84413 0.0
H190 H 0.43336 0.96968 0.87907 0.0
H191 H 0.29189 0.87055 0.86383 0.0
H192 H 0.38521 0.79392 0.85665 0.0
H193 H 0.252 0.86276 0.85539 0.0
H194 H 0.47817 0.95029 0.84609 0.0
H195 H 0.34204 0.74931 0.83514 0.0
H196 H 0.29772 0.75959 0.83222 0.0
H197 H 0.47017 0.9223 0.83002 0.0
H198 H 0.2625 0.78717 0.83554 0.0
N199 N 0.34798 0.80646 0.85433 0.0
C200 C 0.36786 0.79125 0.85251 0.0
C201 C 0.34343 0.76526 0.84055 0.0
C202 C 0.32295 0.78031 0.84261 0.0
C203 C 0.36594 0.77075 0.84553 0.0
C204 C 0.32569 0.80103 0.84968 0.0
H205 H 0.24541 0.82544 0.84403 0.0
N206 N 0.30905 0.83763 0.8577 0.0
C207 C 0.26692 0.84966 0.85423 0.0
C208 C 0.30573 0.81684 0.85149 0.0
C209 C 0.28993 0.85394 0.8591 0.0
C210 C 0.26325 0.82855 0.84787 0.0
C211 C 0.28273 0.81193 0.84634 0.0
O212 O 0.32352 0.82581 0.8797 0.0
O213 O 0.37647 0.86866 0.8674 0.0
O214 O 0.4072 0.86546 0.85353 0.0
O215 O 0.3923 0.83224 0.86385 0.0
O216 O 0.36001 0.86193 0.88223 0.0
O217 O 0.35648 0.80568 0.87501 0.0
O218 O 0.34886 0.92504 0.85166 0.0
O219 O 0.34268 0.85964 0.85023 0.0
O220 O 0.32505 0.87303 0.87582 0.0
O221 O 0.33976 0.90667 0.86603 0.0
O222 O 0.36854 0.86473 0.83807 0.0
O223 O 0.36067 0.90676 0.83666 0.0
C224 C 0.37738 0.87432 0.87752 0.0
C225 C 0.34665 0.8076 0.89392 0.0
C226 C 0.37953 0.8132 0.90763 0.0
C227 C 0.37049 0.81558 0.89677 0.0
C228 C 0.36282 0.80482 0.91585 0.0
C229 C 0.33054 0.79936 0.90217 0.0
C230 C 0.33852 0.79841 0.91314 0.0
C231 C 0.41164 0.84325 0.85842 0.0
C232 C 0.33883 0.80817 0.88229 0.0
C233 C 0.27998 0.79107 0.83955 0.0
C234 C 0.30004 0.77538 0.83766 0.0
C235 C 0.34942 0.8518 0.84048 0.0
C236 C 0.32101 0.92447 0.83679 0.0
C237 C 0.31412 0.94218 0.82894 0.0
C238 C 0.28959 0.94333 0.82508 0.0
C239 C 0.27211 0.92638 0.82914 0.0
C240 C 0.30335 0.90767 0.84076 0.0
C241 C 0.27904 0.90859 0.83692 0.0
C242 C 0.32482 0.89776 0.87422 0.0
C243 C 0.3465 0.92371 0.84094 0.0
H244 H 0.38209 0.82291 0.8903 0.0
H245 H 0.36845 0.80197 0.92433 0.0
H246 H 0.31192 0.79357 0.90013 0.0
H247 H 0.3261 0.79183 0.91952 0.0
H248 H 0.32773 0.95537 0.82602 0.0
H249 H 0.25316 0.9268 0.82625 0.0
H250 H 0.3084 0.89395 0.84685 0.0
H251 H 0.26551 0.89555 0.83999 0.0
Eu252 Eu 0.49017 0.09274 0.11044 0.0
C253 C 0.41147 0.16485 0.09323 0.0
C254 C 0.37353 0.16174 0.10375 0.0
C255 C 0.38475 0.20087 0.09535 0.0
C256 C 0.39595 0.15125 0.09997 0.0
C257 C 0.40534 0.1895 0.09043 0.0
C258 C 0.36871 0.18692 0.10193 0.0
C259 C 0.43642 0.18801 0.07615 0.0
N260 N 0.43045 0.15291 0.08815 0.0
C261 C 0.4417 0.16361 0.07914 0.0
C262 C 0.41873 0.2013 0.08206 0.0
Eu263 Eu 0.43978 0.11213 0.09479 0.0
N264 N 0.40067 0.12676 0.10124 0.0
C265 C 0.38199 0.11131 0.10452 0.0
C266 C 0.35565 0.14619 0.10838 0.0
C267 C 0.35969 0.12078 0.10852 0.0
H268 H 0.4554 0.15388 0.07437 0.0
H269 H 0.34531 0.1084 0.11137 0.0
H270 H 0.35185 0.19539 0.10496 0.0
H271 H 0.44608 0.19657 0.0693 0.0
H272 H 0.38358 0.09154 0.1037 0.0
H273 H 0.58214 0.12947 0.10071 0.0
H274 H 0.33799 0.15339 0.11115 0.0
H275 H 0.46327 1.03994 0.10213 0.0
H276 H 0.54216 0.12806 0.11037 0.0
H277 H 0.47356 1.00338 0.09076 0.0
H278 H 0.38007 0.21989 0.09346 0.0
H279 H 0.59338 0.09656 0.08742 0.0
H280 H 0.58286 0.0562 0.07842 0.0
H281 H 0.41452 0.22015 0.07966 0.0
H282 H 0.55404 1.02143 0.07616 0.0
N283 N 0.52928 0.09624 0.10165 0.0
C284 C 0.54611 0.11427 0.10414 0.0
C285 C 0.57545 0.09617 0.09142 0.0
C286 C 0.55899 0.07666 0.08957 0.0
C287 C 0.56912 0.11485 0.09887 0.0
C288 C 0.53582 0.07703 0.09497 0.0
H289 H 0.51363 1.00134 0.08092 0.0
N290 N 0.49716 0.05836 0.09876 0.0
C291 C 0.48663 1.01844 0.0915 0.0
C292 C 0.51958 0.05732 0.09369 0.0
C293 C 0.48085 1.03917 0.09792 0.0
C294 C 0.50931 1.01732 0.08598 0.0
C295 C 0.52608 1.03691 0.087 0.0
O296 O 0.49773 0.06024 0.1204 0.0
O297 O 0.45322 0.10826 0.11143 0.0
O298 O 0.46389 0.14937 0.09784 0.0
O299 O 0.49992 0.1356 0.10636 0.0
O300 O 0.47909 0.1249 0.12169 0.0
O301 O 0.51657 0.09428 0.12423 0.0
O302 O 0.43254 0.07647 0.08685 0.0
O303 O 0.4752 0.08947 0.09274 0.0
O304 O 0.45707 0.0683 0.11845 0.0
O305 O 0.42329 0.08433 0.10934 0.0
O306 O 0.46996 0.11687 0.08152 0.0
O307 O 0.41292 0.10891 0.0814 0.0
C308 C 0.45624 0.12471 0.11862 0.0
C309 C 0.50653 0.06721 0.13924 0.0
C310 C 0.51305 0.0775 0.15868 0.0
C311 C 0.51685 0.08248 0.14738 0.0
C312 C 0.4983 0.05733 0.16181 0.0
C313 C 0.49233 0.04668 0.14255 0.0
C314 C 0.4879 1.04207 0.15375 0.0
C315 C 0.48673 0.15454 0.10189 0.0
C316 C 0.51185 0.07171 0.1274 0.0
C317 C 0.54887 1.03681 0.08144 0.0
C318 C 0.56524 0.05666 0.08269 0.0
C319 C 0.48429 0.09852 0.08367 0.0
C320 C 0.42112 0.07812 0.06806 0.0
C321 C 0.40796 0.05778 0.06402 0.0
C322 C 0.40901 0.05131 0.05274 0.0
C323 C 0.42509 0.06453 0.04573 0.0
C324 C 0.43658 0.09147 0.06091 0.0
C325 C 0.4389 0.08435 0.04984 0.0
C326 C 0.43222 0.0682 0.11709 0.0
C327 C 0.41737 0.08564 0.07961 0.0
H328 H 0.5288 0.09762 0.14493 0.0
H329 H 0.49525 0.05313 0.17048 0.0
H330 H 0.48501 1.03392 0.13649 0.0
H331 H 0.47685 1.0263 0.15619 0.0
H332 H 0.39616 0.04756 0.06965 0.0
H333 H 0.42621 0.06039 0.03697 0.0
H334 H 0.44661 0.1075 0.06379 0.0
H335 H 0.45084 0.09472 0.04435 0.0
Eu336 Eu 0.23739 0.84191 0.2013 0.0
C337 C 0.16246 0.92079 0.21945 0.0
C338 C 0.15491 0.94786 0.20387 0.0
C339 C 0.12462 0.94521 0.21864 0.0
C340 C 0.17002 0.93055 0.20945 0.0
C341 C 0.13971 0.92814 0.2242 0.0
C342 C 0.1322 0.95505 0.2085 0.0
C343 C 0.14853 0.9017 0.23975 0.0
N344 N 0.17732 0.90415 0.22457 0.0
C345 C 0.17086 0.89499 0.23475 0.0
C346 C 0.1328 0.91823 0.23442 0.0
Eu347 Eu 0.21492 0.89289 0.21552 0.0
N348 N 0.19188 0.92284 0.20508 0.0
C349 C 0.19987 0.93264 0.19524 0.0
C350 C 0.16296 0.95744 0.19376 0.0
C351 C 0.18558 0.94984 0.18945 0.0
H352 H 0.18266 0.88232 0.23913 0.0
H353 H 0.192 0.9571 0.18161 0.0
H354 H 0.12039 0.96824 0.2043 0.0
H355 H 0.14351 0.89412 0.24774 0.0
H356 H 0.21686 0.92694 0.19143 0.0
H357 H 0.20208 0.75932 0.22275 0.0
H358 H 0.15187 0.9707 0.18922 0.0
H359 H 0.29375 0.87094 0.20502 0.0
H360 H 0.19955 0.79498 0.21058 0.0
H361 H 0.33313 0.86248 0.21381 0.0
H362 H 0.10709 0.95098 0.22215 0.0
H363 H 0.24133 0.74889 0.23202 0.0
H364 H 0.28558 0.75863 0.23548 0.0
H365 H 0.11549 0.9234 0.23832 0.0
H366 H 0.32116 0.78604 0.23278 0.0
N367 N 0.23674 0.80705 0.2134 0.0
C368 C 0.21667 0.79194 0.21487 0.0
C369 C 0.24032 0.76512 0.22678 0.0
C370 C 0.26101 0.78007 0.22506 0.0
C371 C 0.2181 0.77106 0.22164 0.0
C372 C 0.25877 0.80114 0.21818 0.0
H373 H 0.33894 0.82453 0.22482 0.0
N374 N 0.27611 0.83779 0.21059 0.0
C375 C 0.3181 0.8494 0.21465 0.0
C376 C 0.27897 0.81675 0.21666 0.0
C377 C 0.29538 0.85406 0.20959 0.0
C378 C 0.32133 0.82795 0.22082 0.0
C379 C 0.30167 0.81142 0.22199 0.0
O380 O 0.2612 0.82731 0.18817 0.0
O381 O 0.20918 0.87039 0.20081 0.0
O382 O 0.17837 0.86765 0.21473 0.0
O383 O 0.19291 0.83431 0.20438 0.0
O384 O 0.2263 0.86401 0.18608 0.0
O385 O 0.22783 0.8079 0.19267 0.0
O386 O 0.23707 0.92643 0.21669 0.0
O387 O 0.24292 0.86095 0.21792 0.0
O388 O 0.26128 0.87416 0.1928 0.0
O389 O 0.24594 0.908 0.20231 0.0
O390 O 0.21725 0.86603 0.23015 0.0
O391 O 0.22503 0.90822 0.23167 0.0
C392 C 0.20877 0.8763 0.19072 0.0
C393 C 0.23516 0.8143 0.17363 0.0
C394 C 0.19921 0.81758 0.16147 0.0
C395 C 0.20999 0.8103 0.1715 0.0
C396 C 0.21422 0.82809 0.15322 0.0
C397 C 0.24996 0.82471 0.16527 0.0
C398 C 0.2395 0.83146 0.15512 0.0
C399 C 0.1737 0.84557 0.20983 0.0
C400 C 0.24459 0.81131 0.18505 0.0
C401 C 0.30392 0.79026 0.22862 0.0
C402 C 0.28364 0.77469 0.23018 0.0
C403 C 0.23625 0.853 0.22763 0.0
C404 C 0.26476 0.92567 0.23168 0.0
C405 C 0.27021 0.93991 0.24104 0.0
C406 C 0.2944 0.9406 0.2453 0.0
C407 C 0.31311 0.92689 0.24004 0.0
C408 C 0.28355 0.91178 0.22661 0.0
C409 C 0.30762 0.91247 0.23076 0.0
C410 C 0.26133 0.89891 0.19434 0.0
C411 C 0.23936 0.92502 0.22741 0.0
H412 H 0.19858 0.80158 0.17776 0.0
H413 H 0.20643 0.83365 0.14535 0.0
H414 H 0.2694 0.82829 0.1667 0.0
H415 H 0.25097 0.83966 0.14876 0.0
H416 H 0.25566 0.95063 0.24494 0.0
H417 H 0.33184 0.92704 0.24321 0.0
H418 H 0.27958 0.90044 0.21945 0.0
H419 H 0.32204 0.90174 0.2268 0.0
Eu420 Eu 0.49508 0.99312 0.45917 0.0
C421 C 0.41745 0.92077 0.47699 0.0
C422 C 0.37917 0.92365 0.46674 0.0
C423 C 0.39095 0.88459 0.47506 0.0
C424 C 0.40164 0.93428 0.47035 0.0
C425 C 0.41161 0.89608 0.47982 0.0
C426 C 0.37458 0.89845 0.46861 0.0
C427 C 0.44319 0.89771 0.49385 0.0
N428 N 0.43649 0.93281 0.48195 0.0
C429 C 0.44808 0.9222 0.49088 0.0
C430 C 0.42541 0.88432 0.48806 0.0
Eu431 Eu 0.44534 0.97368 0.47534 0.0
N432 N 0.40622 0.95879 0.46898 0.0
C433 C 0.38739 0.97409 0.46571 0.0
C434 C 0.36107 0.93906 0.4622 0.0
C435 C 0.36502 0.96446 0.4619 0.0
H436 H 0.46183 0.93209 0.49556 0.0
H437 H 0.3505 0.97673 0.4591 0.0
H438 H 0.35769 0.88989 0.46569 0.0
H439 H 0.45315 0.8892 0.50062 0.0
H440 H 0.3888 0.9939 0.46642 0.0
H441 H 0.58835 0.95764 0.46704 0.0
H442 H 0.34335 0.93176 0.4596 0.0
H443 H 0.46841 0.04583 0.46768 0.0
H444 H 0.54751 0.95867 0.45809 0.0
H445 H 0.47922 0.08256 0.47889 0.0
H446 H 0.38647 0.86554 0.47697 0.0
H447 H 0.6001 0.99037 0.48033 0.0
H448 H 0.58973 1.03045 0.48965 0.0
H449 H 0.42146 0.86543 0.49047 0.0
H450 H 0.56076 0.06495 0.49238 0.0
N451 N 0.53487 0.98994 0.46726 0.0
C452 C 0.5518 0.97233 0.46434 0.0
C453 C 0.58183 0.99055 0.47666 0.0
C454 C 0.56521 1.00975 0.4789 0.0
C455 C 0.57523 0.97198 0.46921 0.0
C456 C 0.54162 1.00912 0.47392 0.0
H457 H 0.51986 0.08475 0.48823 0.0
N458 N 0.5025 1.02753 0.47074 0.0
C459 C 0.49229 0.06751 0.47803 0.0
C460 C 0.52525 1.02868 0.47548 0.0
C461 C 0.48618 0.0467 0.47172 0.0
C462 C 0.51529 0.06872 0.48326 0.0
C463 C 0.53209 0.04918 0.48204 0.0
O464 O 0.50348 1.02637 0.44993 0.0
O465 O 0.45827 0.97719 0.45858 0.0
O466 O 0.4701 0.93673 0.47235 0.0
O467 O 0.50592 0.95078 0.46371 0.0
O468 O 0.48422 0.96031 0.44832 0.0
O469 O 0.51881 0.99175 0.44436 0.0
O470 O 0.43705 1.00909 0.48331 0.0
O471 O 0.48051 0.99676 0.47693 0.0
O472 O 0.46146 1.01641 0.45102 0.0
O473 O 0.4283 1.00178 0.46102 0.0
O474 O 0.47626 0.96936 0.48826 0.0
O475 O 0.41955 0.97596 0.48926 0.0
C476 C 0.46144 0.96039 0.45154 0.0
C477 C 0.50847 1.02214 0.43067 0.0
C478 C 0.51318 1.01655 0.41076 0.0
C479 C 0.51784 1.00879 0.42166 0.0
C480 C 0.49862 1.03756 0.40885 0.0
C481 C 0.49409 0.04339 0.42862 0.0
C482 C 0.48892 0.05078 0.41778 0.0
C483 C 0.49305 0.93178 0.46832 0.0
C484 C 0.51536 1.01508 0.44209 0.0
C485 C 0.55529 0.04948 0.48722 0.0
C486 C 0.57176 1.02979 0.4857 0.0
C487 C 0.49012 0.98795 0.48593 0.0
C488 C 0.42711 1.00767 0.50228 0.0
C489 C 0.41227 1.02654 0.50662 0.0
C490 C 0.4156 1.03487 0.51757 0.0
C491 C 0.43484 1.02466 0.52394 0.0
C492 C 0.44535 0.99684 0.50895 0.0
C493 C 0.44954 1.0057 0.51964 0.0
C494 C 0.43678 1.01704 0.45283 0.0
C495 C 0.42287 0.99948 0.49083 0.0
H496 H 0.52979 0.99302 0.42314 0.0
H497 H 0.49516 0.04393 0.40049 0.0
H498 H 0.48694 0.05448 0.43537 0.0
H499 H 0.4778 0.0671 0.4163 0.0
H500 H 0.3974 1.03391 0.50159 0.0
H501 H 0.43813 1.0309 0.53233 0.0
H502 H 0.45642 0.98164 0.50594 0.0
H503 H 0.46399 0.99761 0.52467 0.0
Eu504 Eu 0.34365 0.24339 0.70253 0.0
C505 C 0.41236 0.15853 0.72225 0.0
C506 C 0.41656 0.1298 0.70696 0.0
C507 C 0.4451 0.12756 0.72241 0.0
C508 C 0.40393 0.14955 0.71219 0.0
C509 C 0.43307 0.14762 0.72745 0.0
C510 C 0.43688 0.11869 0.71219 0.0
C511 C 0.42877 0.17713 0.74229 0.0
N512 N 0.4007 0.17828 0.72687 0.0
C513 C 0.40836 0.18732 0.73689 0.0
C514 C 0.44124 0.15723 0.73755 0.0
Eu515 Eu 0.36486 0.19355 0.71773 0.0
N516 N 0.38468 0.16126 0.70713 0.0
C517 C 0.37808 0.15438 0.69659 0.0
C518 C 0.40898 0.12224 0.69645 0.0
C519 C 0.38986 0.13478 0.6912 0.0
H520 H 0.39866 0.20217 0.74093 0.0
H521 H 0.38442 0.12965 0.68289 0.0
H522 H 0.44665 0.10349 0.7083 0.0
H523 H 0.43473 0.18451 0.75019 0.0
H524 H 0.36454 0.16441 0.69189 0.0
H525 H 0.37823 0.33685 0.7108 0.0
H526 H 0.41827 0.10725 0.69217 0.0
H527 H 0.29145 0.21612 0.71112 0.0
H528 H 0.37764 0.29609 0.70175 0.0
H529 H 0.25463 0.22638 0.72236 0.0
H530 H 0.46098 0.11896 0.7263 0.0
H531 H 0.34525 0.34831 0.72402 0.0
H532 H 0.30518 0.33754 0.73325 0.0
H533 H 0.45705 0.14934 0.74178 0.0
H534 H 0.27099 0.30821 0.73588 0.0
N535 N 0.34619 0.28322 0.71072 0.0
C536 C 0.36381 0.30025 0.70794 0.0
C537 C 0.34525 0.33006 0.72031 0.0
C538 C 0.3262 0.31326 0.72249 0.0
C539 C 0.36395 0.32364 0.71288 0.0
C540 C 0.32708 0.28971 0.71745 0.0
H541 H 0.25187 0.26695 0.73178 0.0
N542 N 0.30935 0.25039 0.71426 0.0
C543 C 0.26949 0.23964 0.72153 0.0
C544 C 0.30786 0.27308 0.71904 0.0
C545 C 0.29038 0.23385 0.71521 0.0
C546 C 0.26797 0.26259 0.7268 0.0
C547 C 0.28726 0.27964 0.72561 0.0
O548 O 0.31103 0.24569 0.69219 0.0
O549 O 0.36441 0.20879 0.70103 0.0
O550 O 0.39969 0.22154 0.71793 0.0
O551 O 0.3863 0.25444 0.70697 0.0
O552 O 0.37533 0.23743 0.69069 0.0
O553 O 0.34162 0.27042 0.68898 0.0
O554 O 0.32904 0.18544 0.72534 0.0
O555 O 0.34065 0.22782 0.72003 0.0
O556 O 0.3212 0.20898 0.69481 0.0
O557 O 0.33504 0.17543 0.70483 0.0
O558 O 0.36919 0.22422 0.73089 0.0
O559 O 0.3607 0.16344 0.72968 0.0
C560 C 0.38017 0.21505 0.69368 0.0
C561 C 0.31715 0.25717 0.67374 0.0
C562 C 0.30551 0.2724 0.65549 0.0
C563 C 0.30999 0.2765 0.66683 0.0
C564 C 0.30739 0.24822 0.65128 0.0
C565 C 0.32007 0.23332 0.66931 0.0
C566 C 0.3147 0.22881 0.65818 0.0
C567 C 0.40486 0.24316 0.71269 0.0
C568 C 0.32025 0.26224 0.6856 0.0
C569 C 0.2866 0.30288 0.73078 0.0
C570 C 0.30608 0.31958 0.72929 0.0
C571 C 0.34977 0.23736 0.72898 0.0
C572 C 0.33046 0.16921 0.74343 0.0
C573 C 0.31571 0.15037 0.74784 0.0
C574 C 0.30904 0.1506 0.7591 0.0
C575 C 0.31658 0.17051 0.76579 0.0
C576 C 0.33868 0.18837 0.75033 0.0
C577 C 0.33134 0.18927 0.7614 0.0
C578 C 0.32028 0.18436 0.69662 0.0
C579 C 0.33762 0.16811 0.73172 0.0
H580 H 0.30904 0.29499 0.67027 0.0
H581 H 0.30408 0.24449 0.6426 0.0
H582 H 0.32636 0.21819 0.67443 0.0
H583 H 0.31664 0.21033 0.65485 0.0
H584 H 0.30976 0.1353 0.74254 0.0
H585 H 0.31194 0.17107 0.77452 0.0
H586 H 0.35085 0.20254 0.74723 0.0
H587 H 0.33756 0.20426 0.76665 0.0
Eu588 Eu 0.09947 0.09129 0.9612 0.0
C589 C 0.18539 0.16291 0.97649 0.0
C590 C 0.20989 0.16788 0.95984 0.0
C591 C 0.21469 0.19698 0.97499 0.0
C592 C 0.19208 0.15464 0.96606 0.0
C593 C 0.19664 0.1842 0.98105 0.0
C594 C 0.22129 0.18884 0.96441 0.0
C595 C 0.17152 0.17888 0.99737 0.0
N596 N 0.16765 0.15043 0.98215 0.0
C597 C 0.16095 0.1579 0.99256 0.0
C598 C 0.1894 0.19215 0.99158 0.0
Eu599 Eu 0.15108 0.11423 0.97377 0.0
N600 N 0.18011 0.13472 0.9617 0.0
C601 C 0.18494 0.12785 0.95096 0.0
C602 C 0.2153 0.16017 0.94908 0.0
C603 C 0.20259 0.14022 0.9446 0.0
H604 H 0.14779 0.14759 0.99739 0.0
H605 H 0.20605 0.13458 0.93613 0.0
H606 H 0.235 0.19911 0.95975 0.0
H607 H 0.16602 0.18467 1.00559 0.0
H608 H 0.17457 0.11361 0.94685 0.0
H609 H 1.00889 0.11998 0.97711 0.0
H610 H 0.22877 0.1699 0.94406 0.0
H611 H 0.13414 1.04155 0.96805 0.0
H612 H 0.0462 0.12331 0.96562 0.0
H613 H 0.1299 1.00339 0.97894 0.0
H614 H 0.2235 0.21331 0.97837 0.0
H615 H 1.00293 0.08374 0.98928 0.0
H616 H 1.01829 0.04288 0.99613 0.0
H617 H 0.19759 0.20839 0.99534 0.0
H618 H 0.05051 1.01085 0.99627 0.0
N619 N 0.06287 0.09055 0.97205 0.0
C620 C 0.04467 0.10804 0.97133 0.0
C621 C 1.01975 0.08539 0.98445 0.0
C622 C 1.03783 0.06691 0.98475 0.0
C623 C 1.02311 0.10594 0.97765 0.0
C624 C 0.05948 0.06997 0.97835 0.0
H625 H 0.09196 0.99591 0.98986 0.0
N626 N 0.09904 0.0559 0.97274 0.0
C627 C 0.11512 1.01689 0.9789 0.0
C628 C 0.07779 0.05191 0.9785 0.0
C629 C 0.11747 1.03861 0.97273 0.0
C630 C 0.09363 1.01269 0.98501 0.0
C631 C 0.07468 1.03031 0.98491 0.0
O632 O 0.09823 0.06297 0.9483 0.0
O633 O 0.13297 0.11273 0.95753 0.0
O634 O 0.12401 0.14939 0.97435 0.0
O635 O 0.08843 0.13439 0.96577 0.0
O636 O 0.1001 0.12426 0.95001 0.0
O637 O 0.06569 0.08475 0.95181 0.0
O638 O 0.16266 0.07815 0.97993 0.0
O639 O 0.11786 0.08961 0.97796 0.0
O640 O 0.13284 0.06962 0.95183 0.0
O641 O 0.16777 0.08442 0.96056 0.0
O642 O 0.12298 0.11901 0.98814 0.0
O643 O 0.18212 0.11073 0.98532 0.0
C644 C 0.12344 0.12865 0.951 0.0
C645 C 0.07231 0.07227 0.93334 0.0
C646 C 0.06211 0.09991 0.91806 0.0
C647 C 0.06938 0.09615 0.92909 0.0
C648 C 0.06054 0.07912 0.91101 0.0
C649 C 0.07075 0.05187 0.92624 0.0
C650 C 0.06534 0.05538 0.91506 0.0
C651 C 0.10095 0.15376 0.97044 0.0
C652 C 0.0759 0.06856 0.94525 0.0
C653 C 0.0531 1.02722 0.99123 0.0
C654 C 1.0348 0.04551 0.99118 0.0
C655 C 0.10972 0.0994 0.98701 0.0
C656 C 0.17944 0.07716 0.99778 0.0
C657 C 0.19655 0.05881 1.00061 0.0
C658 C 0.19649 0.04826 1.01125 0.0
C659 C 0.17848 0.05598 1.01894 0.0
C660 C 0.16216 0.08522 1.00565 0.0
C661 C 0.16149 0.0744 1.01614 0.0
C662 C 0.15782 0.06921 0.95278 0.0
C663 C 0.17952 0.08698 0.98647 0.0
H664 H 0.07164 0.11172 0.93458 0.0
H665 H 0.05453 0.08081 0.90251 0.0
H666 H 0.07333 1.03328 0.92938 0.0
H667 H 0.06385 1.03956 0.9096 0.0
H668 H 0.21037 0.05331 0.99458 0.0
H669 H 0.17773 0.04801 1.02716 0.0
H670 H 0.14914 0.09971 1.00369 0.0
H671 H 0.14786 0.08042 1.02213 0.0
Eu672 Eu 0.86293 0.89274 0.72403 0.0
C673 C 0.80156 0.81751 0.72549 0.0
C674 C 0.81873 0.77809 0.7314 0.0
C675 C 0.77757 0.79009 0.73736 0.0
C676 C 0.82093 0.80042 0.72539 0.0
C677 C 0.77977 0.81242 0.73155 0.0
C678 C 0.79702 0.77307 0.73735 0.0
C679 C 0.76438 0.85272 0.72642 0.0
N680 N 0.80443 0.83953 0.72016 0.0
C681 C 0.78625 0.8571 0.72059 0.0
C682 C 0.76104 0.83025 0.73186 0.0
Eu683 Eu 0.84082 0.84291 0.70931 0.0
N684 N 0.84198 0.8057 0.71966 0.0
C685 C 0.86071 0.78874 0.71905 0.0
C686 C 0.83841 0.76132 0.73123 0.0
C687 C 0.85939 0.7666 0.72497 0.0
H688 H 0.78847 0.87473 0.71662 0.0
H689 H 0.8744 0.75339 0.72453 0.0
H690 H 0.79509 0.75602 0.74198 0.0
H691 H 0.75013 0.86676 0.72676 0.0
H692 H 0.87648 0.7916 0.71374 0.0
H693 H 0.88473 0.958 0.68979 0.0
H694 H 0.83741 0.74404 0.73575 0.0
H695 H 0.89415 0.88503 0.74815 0.0
H696 H 0.86108 0.92661 0.69898 0.0
H697 H 0.93261 0.89847 0.75679 0.0
H698 H 0.76096 0.78593 0.74203 0.0
H699 H 0.92325 0.97376 0.69801 0.0
H700 H 0.95377 0.97274 0.7133 0.0
H701 H 0.74414 0.82703 0.73646 0.0
H702 H 0.96714 0.9562 0.73121 0.0
N703 N 0.88421 0.92426 0.71347 0.0
C704 C 0.87687 0.93343 0.70337 0.0
C705 C 0.91247 0.96005 0.70243 0.0
C706 C 0.92025 0.95085 0.71263 0.0
C707 C 0.89072 0.95129 0.6978 0.0
C708 C 0.90558 0.93288 0.71809 0.0
H709 H 0.95957 0.9286 0.74733 0.0
N710 N 0.89918 0.90622 0.73337 0.0
C711 C 0.92755 0.90549 0.74871 0.0
C712 C 0.91335 0.92343 0.7282 0.0
C713 C 0.90572 0.89767 0.74365 0.0
C714 C 0.94266 0.92253 0.74336 0.0
C715 C 0.93558 0.93191 0.73306 0.0
O716 O 0.82672 0.90452 0.73011 0.0
O717 O 0.8376 0.85913 0.72667 0.0
O718 O 0.81682 0.87609 0.70155 0.0
O719 O 0.83355 0.90987 0.71062 0.0
O720 O 0.86613 0.86296 0.73757 0.0
O721 O 0.85974 0.9211 0.73687 0.0
O722 O 0.81166 0.82821 0.69882 0.0
O723 O 0.86885 0.87134 0.70913 0.0
O724 O 0.89871 0.86645 0.72361 0.0
O725 O 0.88477 0.83384 0.71261 0.0
O726 O 0.85302 0.86494 0.69418 0.0
O727 O 0.84865 0.81316 0.69755 0.0
C728 C 0.84667 0.84997 0.73571 0.0
C729 C 0.82551 0.91646 0.74884 0.0
C730 C 0.79677 0.93061 0.76307 0.0
C731 C 0.80693 0.93272 0.75237 0.0
C732 C 0.80479 0.91129 0.77 0.0
C733 C 0.83402 0.89803 0.75605 0.0
C734 C 0.82336 0.89517 0.76649 0.0
C735 C 0.81758 0.9009 0.70286 0.0
C736 C 0.83582 0.91914 0.73764 0.0
C737 C 0.95004 0.94961 0.7276 0.0
C738 C 0.94239 0.95905 0.71742 0.0
C739 C 0.87003 0.87733 0.69911 0.0
C740 C 0.82712 0.82182 0.68084 0.0
C741 C 0.84839 0.81773 0.67447 0.0
C742 C 0.85008 0.82654 0.66355 0.0
C743 C 0.82993 0.83918 0.65891 0.0
C744 C 0.80699 0.83434 0.67601 0.0
C745 C 0.80847 0.84297 0.66512 0.0
C746 C 0.90364 0.84483 0.71835 0.0
C747 C 0.82708 0.81553 0.69277 0.0
H748 H 0.80116 0.94759 0.74694 0.0
H749 H 0.79709 0.909 0.77821 0.0
H750 H 0.84888 0.88584 0.75367 0.0
H751 H 0.82976 0.88063 0.77194 0.0
H752 H 0.86367 0.80749 0.67803 0.0
H753 H 0.83071 0.84595 0.65047 0.0
H754 H 0.7903 0.83793 0.6807 0.0
H755 H 0.79298 0.85273 0.66151 0.0
Eu756 Eu 0.94455 0.11535 0.4687 0.0
C757 C 1.02359 0.05968 0.46764 0.0
C758 C 0.06287 0.07858 0.47234 0.0
C759 C 0.05293 1.03763 0.4793 0.0
C760 C 1.03976 0.07955 0.46691 0.0
C761 C 1.03011 1.03847 0.47379 0.0
C762 C 0.06924 0.05765 0.47859 0.0
C763 C 0.9905 1.02078 0.46907 0.0
N764 N 1.00113 0.06143 0.46266 0.0
C765 C 0.98472 1.04225 0.46317 0.0
C766 C 1.01327 1.01888 0.47442 0.0
Eu767 Eu 0.99366 0.09771 0.45218 0.0
N768 N 1.03303 0.09971 0.46089 0.0
C769 C 0.04945 0.11861 0.45927 0.0
C770 C 0.07906 0.09858 0.47122 0.0
C771 C 0.07243 0.11853 0.46455 0.0
H772 H 0.96694 0.04356 0.45921 0.0
H773 H 0.08518 0.13371 0.46332 0.0
H774 H 0.08683 0.05669 0.48286 0.0
H775 H 0.97732 1.00577 0.46954 0.0
H776 H 0.04532 0.13356 0.45365 0.0
H777 H 0.85263 0.12342 0.44942 0.0
H778 H 0.09694 0.09853 0.47526 0.0
H779 H 0.96106 0.1514 0.49142 0.0
H780 H 0.88878 0.10179 0.45629 0.0
H781 H 0.9547 0.19334 0.49799 0.0
H782 H 0.05812 1.0216 0.48415 0.0
H783 H 0.84777 0.16817 0.45277 0.0
H784 H 0.86399 0.20701 0.461 0.0
H785 H 1.01758 1.00232 0.47908 0.0
H786 H 0.89235 0.22635 0.47428 0.0
N787 N 0.90737 0.13432 0.46208 0.0
C788 C 0.88854 0.12156 0.45708 0.0
C789 C 0.86464 0.15895 0.45527 0.0
C790 C 0.88289 0.17165 0.46109 0.0
C791 C 0.86727 0.13371 0.45342 0.0
C792 C 0.90393 0.15851 0.46479 0.0
H793 H 0.92542 0.22107 0.48845 0.0
N794 N 0.93717 0.15483 0.47729 0.0
C795 C 0.94493 0.18694 0.49071 0.0
C796 C 0.91942 0.16916 0.47255 0.0
C797 C 0.94865 0.16293 0.48678 0.0
C798 C 0.92844 0.20254 0.4853 0.0
C799 C 0.91484 0.1935 0.47635 0.0
O800 O 0.93808 0.07973 0.47678 0.0
O801 O 0.97995 0.09202 0.47 0.0
O802 O 0.96078 0.07325 0.44416 0.0
O803 O 0.92756 0.08742 0.45426 0.0
O804 O 0.97527 0.11838 0.48175 0.0
O805 O 0.91476 0.11075 0.48074 0.0
O806 O 0.99471 0.07059 0.43877 0.0
O807 O 0.95658 0.11293 0.45184 0.0
O808 O 0.96816 0.15328 0.46624 0.0
O809 O 1.00283 0.14084 0.45631 0.0
O810 O 0.98205 0.13155 0.44207 0.0
O811 O 1.02348 0.09796 0.43998 0.0
C812 C 0.98941 0.10024 0.47916 0.0
C813 C 0.92124 0.08122 0.49473 0.0
C814 C 0.90202 0.05886 0.51007 0.0
C815 C 0.90475 0.06333 0.49863 0.0
C816 C 0.91807 0.07138 0.51741 0.0
C817 C 0.93699 0.09336 0.50214 0.0
C818 C 0.93568 0.08806 0.51342 0.0
C819 C 0.93613 0.07233 0.44599 0.0
C820 C 0.92033 0.08795 0.48299 0.0
C821 C 0.89577 0.20752 0.47162 0.0
C822 C 0.87967 0.19653 0.46405 0.0
C823 C 0.95926 0.13044 0.44519 0.0
C824 C 1.00596 0.09054 0.42231 0.0
C825 C 1.01057 0.1151 0.41928 0.0
C826 C 1.00175 0.12477 0.40927 0.0
C827 C 0.98855 0.10933 0.40204 0.0
C828 C 0.99262 0.0753 0.41503 0.0
C829 C 0.984 0.08469 0.40494 0.0
C830 C 0.99022 0.15924 0.46154 0.0
C831 C 1.01234 0.08206 0.43358 0.0
H832 H 0.89355 0.05358 0.49263 0.0
H833 H 0.91659 0.06922 0.52628 0.0
H834 H 0.94988 0.10722 0.49926 0.0
H835 H 0.94772 0.09764 0.51916 0.0
H836 H 1.02136 0.12683 0.42472 0.0
H837 H 0.98198 0.11625 0.39415 0.0
H838 H 0.9885 0.05633 0.41723 0.0
H839 H 0.97371 0.07285 0.39938 0.0
Eu840 Eu 0.72506 0.19349 0.22465 0.0
C841 C 0.78218 0.27286 0.22709 0.0
C842 C 0.76392 0.31286 0.23114 0.0
C843 C 0.80333 0.30156 0.23937 0.0
C844 C 0.76299 0.28971 0.22574 0.0
C845 C 0.80264 0.27874 0.23383 0.0
C846 C 0.784 0.31854 0.23805 0.0
C847 C 0.82001 0.23871 0.22941 0.0
N848 N 0.78059 0.25047 0.22202 0.0
C849 C 0.79927 0.23358 0.2229 0.0
C850 C 0.82168 0.26136 0.23493 0.0
Eu851 Eu 0.74665 0.24487 0.21002 0.0
N852 N 0.74376 0.28378 0.21898 0.0
C853 C 0.72618 0.30106 0.21648 0.0
C854 C 0.74488 0.32986 0.22926 0.0
C855 C 0.72612 0.32406 0.22178 0.0
H856 H 0.79806 0.21608 0.21862 0.0
H857 H 0.71185 0.33747 0.21993 0.0
H858 H 0.78492 0.33617 0.24229 0.0
H859 H 0.83466 0.22519 0.23018 0.0
H860 H 0.71237 0.29745 0.21023 0.0
H861 H 0.72462 0.10071 0.20596 0.0
H862 H 0.74492 0.3478 0.23326 0.0
H863 H 0.68352 0.21097 0.24511 0.0
H864 H 0.74332 0.13737 0.21425 0.0
H865 H 0.64101 0.20245 0.25047 0.0
H866 H 0.81875 0.30628 0.24469 0.0
H867 H 0.67939 0.09479 0.20675 0.0
H868 H 0.63868 0.10862 0.21433 0.0
H869 H 0.83768 0.2652 0.24004 0.0
H870 H 0.61589 0.13623 0.22684 0.0
N871 N 0.70889 0.15513 0.21792 0.0
C872 C 0.72346 0.13643 0.21388 0.0
C873 C 0.68746 0.11163 0.21 0.0
C874 C 0.67298 0.12914 0.21551 0.0
C875 C 0.71295 0.11496 0.20949 0.0
C876 C 0.68443 0.15083 0.21961 0.0
H877 H 0.61679 0.17072 0.24057 0.0
N878 N 0.68412 0.1852 0.23159 0.0
C879 C 0.64929 0.19231 0.24368 0.0
C880 C 0.67163 0.16636 0.22666 0.0
C881 C 0.67369 0.19706 0.24053 0.0
C882 C 0.63565 0.17449 0.23805 0.0
C883 C 0.64699 0.16068 0.22969 0.0
O884 O 0.76075 0.18384 0.23198 0.0
O885 O 0.74871 0.22818 0.22732 0.0
O886 O 0.76988 0.21146 0.20163 0.0
O887 O 0.75249 0.17738 0.21 0.0
O888 O 0.72187 0.22213 0.23872 0.0
O889 O 0.72772 0.16548 0.23764 0.0
O890 O 0.78018 0.2513 0.20062 0.0
O891 O 0.72876 0.20901 0.20811 0.0
O892 O 0.68864 0.21837 0.22179 0.0
O893 O 0.70386 0.25527 0.21455 0.0
O894 O 0.71506 0.23736 0.19821 0.0
O895 O 0.74742 0.27216 0.19656 0.0
C896 C 0.73994 0.23674 0.23654 0.0
C897 C 0.76071 0.16899 0.25034 0.0
C898 C 0.78612 0.15009 0.2647 0.0
C899 C 0.77756 0.15088 0.25371 0.0
C900 C 0.77859 0.16868 0.27213 0.0
C901 C 0.75266 0.18687 0.25794 0.0
C902 C 0.762 0.187 0.26872 0.0
C903 C 0.76913 0.18653 0.20256 0.0
C904 C 0.75142 0.16809 0.23894 0.0
C905 C 0.63491 0.1405 0.22478 0.0
C906 C 0.64787 0.12481 0.21765 0.0
C907 C 0.71297 0.21426 0.20076 0.0
C908 C 0.77544 0.26197 0.18186 0.0
C909 C 0.76051 0.27236 0.17362 0.0
C910 C 0.76649 0.2694 0.16237 0.0
C911 C 0.78741 0.25563 0.15936 0.0
C912 C 0.79655 0.24842 0.1787 0.0
C913 C 0.80226 0.24502 0.16752 0.0
C914 C 0.68435 0.2419 0.21847 0.0
C915 C 0.77001 0.26653 0.19369 0.0
H916 H 0.78355 0.13699 0.24781 0.0
H917 H 0.78467 0.1685 0.28067 0.0
H918 H 0.73916 0.20061 0.2556 0.0
H919 H 0.75591 0.20098 0.27454 0.0
H920 H 0.74475 0.28363 0.17595 0.0
H921 H 0.79237 0.25336 0.15072 0.0
H922 H 0.80882 0.24062 0.18486 0.0
H923 H 0.81849 0.23451 0.16518 0.0
Eu924 Eu 0.63929 0.97152 0.96737 0.0
C925 C 0.5602 1.02699 0.96676 0.0
C926 C 0.52085 1.00828 0.97151 0.0
C927 C 0.53115 0.04904 0.9786 0.0
C928 C 0.54388 1.00726 0.96601 0.0
C929 C 0.55391 0.04814 0.97302 0.0
C930 C 0.51471 1.02914 0.97787 0.0
C931 C 0.59357 0.06564 0.96823 0.0
N932 N 0.58259 1.02517 0.9617 0.0
C933 C 0.59914 0.04422 0.96224 0.0
C934 C 0.57088 0.06761 0.97366 0.0
Eu935 Eu 0.58969 0.989 0.95106 0.0
N936 N 0.5504 0.98717 0.95987 0.0
C937 C 0.53383 0.96842 0.95822 0.0
C938 C 0.50451 0.98842 0.97036 0.0
C939 C 0.51092 0.96855 0.96357 0.0
H940 H 0.61688 0.04284 0.95824 0.0
H941 H 0.49805 0.95348 0.96233 0.0
H942 H 0.49718 1.03014 0.9822 0.0
H943 H 0.60687 0.08055 0.96872 0.0
H944 H 0.53782 0.95352 0.95254 0.0
H945 H 0.73434 0.97226 0.95155 0.0
H946 H 0.48668 0.98852 0.97445 0.0
H947 H 0.62232 0.93206 0.98874 0.0
H948 H 0.69539 0.99021 0.95773 0.0
H949 H 0.63077 0.88988 0.99467 0.0
H950 H 0.52613 0.06503 0.98353 0.0
H951 H 0.74179 0.9276 0.95373 0.0
H952 H 0.72661 0.88625 0.95992 0.0
H953 H 0.56674 0.08413 0.9784 0.0
H954 H 0.6975 0.8633 0.97165 0.0
N955 N 0.67817 0.95555 0.96136 0.0
C956 C 0.69697 0.97038 0.95766 0.0
C957 C 0.72376 0.93511 0.9557 0.0
C958 C 0.70533 0.92022 0.96027 0.0
C959 C 0.71968 0.96035 0.95451 0.0
C960 C 0.68274 0.9313 0.96346 0.0
H961 H 0.66249 0.86492 0.98511 0.0
N962 N 0.64783 0.93145 0.97512 0.0
C963 C 0.64085 0.89762 0.98774 0.0
C964 C 0.66686 0.91872 0.97045 0.0
C965 C 0.63607 0.92178 0.98425 0.0
C966 C 0.65865 0.88355 0.98229 0.0
C967 C 0.67256 0.89433 0.97383 0.0
O968 O 0.6453 1.0076 0.97518 0.0
O969 O 0.60373 0.99432 0.96885 0.0
O970 O 0.62224 1.01371 0.94296 0.0
O971 O 0.65582 0.99842 0.95244 0.0
O972 O 0.60925 0.96821 0.9807 0.0
O973 O 0.66808 0.97658 0.97979 0.0
O974 O 0.58827 1.01634 0.93776 0.0
O975 O 0.62675 0.97371 0.95062 0.0
O976 O 0.61548 0.93368 0.9649 0.0
O977 O 0.58035 0.94615 0.95534 0.0
O978 O 0.60132 0.95495 0.94095 0.0
O979 O 0.55993 0.98849 0.93885 0.0
C980 C 0.59463 0.98598 0.97807 0.0
C981 C 0.66272 1.00783 0.99312 0.0
C982 C 0.68525 1.02871 1.00792 0.0
C983 C 0.68152 1.02372 0.9966 0.0
C984 C 0.66797 1.01923 1.01559 0.0
C985 C 0.6459 0.99835 1.00084 0.0
C986 C 0.64825 1.00453 1.01201 0.0
C987 C 0.647 1.01403 0.94444 0.0
C988 C 0.6629 0.99969 0.98156 0.0
C989 C 0.69318 0.88217 0.96933 0.0
C990 C 0.70973 0.89521 0.96264 0.0
C991 C 0.62421 0.95631 0.94389 0.0
C992 C 0.57743 0.99657 0.92123 0.0
C993 C 0.57425 0.97177 0.91822 0.0
C994 C 0.58342 0.96261 0.90816 0.0
C995 C 0.59549 0.9788 0.90086 0.0
C996 C 0.5897 1.01256 0.91389 0.0
C997 C 0.59863 1.00367 0.90375 0.0
C998 C 0.59312 0.92781 0.96047 0.0
C999 C 0.57083 1.0047 0.93252 0.0
H1000 H 0.69388 1.03129 0.99041 0.0
H1001 H 0.67013 1.02214 1.0244 0.0
H1002 H 0.6314 0.98582 0.99831 0.0
H1003 H 0.63536 0.99703 1.01799 0.0
H1004 H 0.56432 0.95941 0.92372 0.0
H1005 H 0.60227 0.97226 0.89294 0.0
H1006 H 0.59278 1.03174 0.91609 0.0
H1007 H 0.60808 1.01608 0.89814 0.0
Eu1008 Eu 0.8636 0.1885 0.84546 0.0
C1009 C 0.79827 0.25952 0.83925 0.0
C1010 C 0.81363 0.29871 0.83213 0.0
C1011 C 0.77368 0.28329 0.82612 0.0
C1012 C 0.8166 0.27777 0.839 0.0
C1013 C 0.77673 0.2622 0.83274 0.0
C1014 C 0.79211 0.30138 0.82576 0.0
C1015 C 0.76361 0.2218 0.8389 0.0
N1016 N 0.80214 0.23855 0.84527 0.0
C1017 C 0.78521 0.21979 0.84517 0.0
C1018 C 0.75925 0.24315 0.83273 0.0
Eu1019 Eu 0.8367 0.24027 0.85722 0.0
N1020 N 0.83759 0.27469 0.84511 0.0
C1021 C 0.85557 0.29248 0.84509 0.0
C1022 C 0.83249 0.31637 0.83176 0.0
C1023 C 0.85348 0.31327 0.8383 0.0
H1024 H 0.78822 0.20311 0.8498 0.0
H1025 H 0.86786 0.32717 0.83828 0.0
H1026 H 0.78962 0.31734 0.82045 0.0
H1027 H 0.75032 0.20684 0.83882 0.0
H1028 H 0.8712 0.29146 0.85059 0.0
H1029 H 0.88325 0.1322 0.883 0.0
H1030 H 0.83091 0.3326 0.82655 0.0
H1031 H 0.89832 0.19313 0.82217 0.0
H1032 H 0.85995 0.16069 0.87193 0.0
H1033 H 0.93835 0.17948 0.81514 0.0
H1034 H 0.75733 0.28552 0.82104 0.0
H1035 H 0.92319 0.11602 0.87644 0.0
H1036 H 0.95564 0.11487 0.86194 0.0
H1037 H 0.74256 0.24451 0.82781 0.0
H1038 H 0.97093 0.12815 0.84378 0.0
N1039 N 0.88462 0.16037 0.8579 0.0
C1040 C 0.87634 0.15329 0.8682 0.0
C1041 C 0.91256 0.12826 0.87117 0.0
C1042 C 0.92136 0.13548 0.86081 0.0
C1043 C 0.89 0.13725 0.87487 0.0
C1044 C 0.90685 0.15163 0.85423 0.0
H1045 H 0.96479 0.1522 0.82644 0.0
N1046 N 0.90173 0.17482 0.83778 0.0
C1047 C 0.93231 0.17378 0.8233 0.0
C1048 C 0.91569 0.15925 0.844 0.0
C1049 C 0.90955 0.18171 0.82744 0.0
C1050 C 0.94714 0.15835 0.82969 0.0
C1051 C 0.93887 0.15072 0.8401 0.0
O1052 O 0.8286 0.17364 0.83939 0.0
O1053 O 0.83724 0.22014 0.84081 0.0
O1054 O 0.81401 0.20713 0.86593 0.0
O1055 O 0.83348 0.17252 0.85872 0.0
O1056 O 0.86704 0.21537 0.83069 0.0
O1057 O 0.86303 0.15829 0.83343 0.0
O1058 O 0.8039 0.25262 0.86601 0.0
O1059 O 0.86554 0.21332 0.85954 0.0
O1060 O 0.89777 0.21656 0.84563 0.0
O1061 O 0.88099 0.25069 0.85485 0.0
O1062 O 0.84967 0.22526 0.87386 0.0
O1063 O 0.83745 0.27476 0.86656 0.0
C1064 C 0.84696 0.22793 0.83169 0.0
C1065 C 0.82944 0.15983 0.82093 0.0
C1066 C 0.80045 0.14434 0.80708 0.0
C1067 C 0.80968 0.14446 0.81799 0.0
C1068 C 0.81049 0.16102 0.79934 0.0
C1069 C 0.83962 0.17581 0.813 0.0
C1070 C 0.82985 0.17671 0.80232 0.0
C1071 C 0.81619 0.18219 0.8657 0.0
C1072 C 0.8391 0.15885 0.8323 0.0
C1073 C 0.95312 0.13477 0.84665 0.0
C1074 C 0.94438 0.12717 0.85697 0.0
C1075 C 0.86643 0.21087 0.86989 0.0
C1076 C 0.81138 0.27409 0.8824 0.0
C1077 C 0.83149 0.27275 0.88961 0.0
C1078 C 0.82878 0.27909 0.90081 0.0
C1079 C 0.80481 0.28336 0.905 0.0
C1080 C 0.78765 0.27852 0.88663 0.0
C1081 C 0.78435 0.28253 0.89796 0.0
C1082 C 0.90113 0.23931 0.85009 0.0
C1083 C 0.81505 0.2715 0.87044 0.0
H1084 H 0.80186 0.13222 0.82418 0.0
H1085 H 0.80417 0.16128 0.79083 0.0
H1086 H 0.85514 0.18752 0.815 0.0
H1087 H 0.83772 0.18919 0.79627 0.0
H1088 H 0.84959 0.26824 0.88634 0.0
H1089 H 0.80186 0.28867 0.91354 0.0
H1090 H 0.77178 0.27914 0.88117 0.0
H1091 H 0.76604 0.28617 0.9012 0.0
Eu1092 Eu 0.64018 0.11645 0.60442 0.0
C1093 C 0.56493 0.05523 0.60041 0.0
C1094 C 0.52414 0.07086 0.59583 0.0
C1095 C 0.538 1.03164 0.58821 0.0
C1096 C 0.54685 0.07333 0.60149 0.0
C1097 C 0.5606 1.03412 0.59381 0.0
C1098 C 0.51994 0.05007 0.58912 0.0
C1099 C 0.60139 1.01946 0.59867 0.0
N1100 N 0.58691 0.05841 0.60566 0.0
C1101 C 0.60489 1.04069 0.60509 0.0
C1102 C 0.57917 1.01617 0.59298 0.0
Eu1103 Eu 0.58946 0.09262 0.61779 0.0
N1104 N 0.5512 0.09305 0.60821 0.0
C1105 C 0.53296 0.11001 0.61019 0.0
C1106 C 0.50606 0.08907 0.59729 0.0
C1107 C 0.51041 0.1086 0.60458 0.0
H1108 H 0.62199 0.04299 0.60955 0.0
H1109 H 0.49619 0.1223 0.60607 0.0
H1110 H 0.5026 0.04787 0.58475 0.0
H1111 H 0.6158 1.00562 0.59813 0.0
H1112 H 0.53539 0.12436 0.61631 0.0
H1113 H 0.69783 0.13668 0.64125 0.0
H1114 H 0.48843 0.08786 0.59307 0.0
H1115 H 0.63432 0.1506 0.58115 0.0
H1116 H 0.66551 0.1158 0.63103 0.0
H1117 H 0.65185 0.18775 0.57275 0.0
H1118 H 0.53426 1.01546 0.5832 0.0
H1119 H 0.7199 0.17208 0.63303 0.0
H1120 H 0.72485 0.20145 0.61732 0.0
H1121 H 0.57654 0.99975 0.58797 0.0
H1122 H 0.71177 0.2159 0.59897 0.0
N1123 N 0.66987 0.13704 0.61614 0.0
C1124 C 0.67554 0.13009 0.62678 0.0
C1125 C 0.70603 0.1624 0.62822 0.0
C1126 C 0.69974 0.17023 0.61758 0.0
C1127 C 0.69369 0.14241 0.63287 0.0
C1128 C 0.68144 0.15705 0.61164 0.0
H1129 H 0.68438 0.21127 0.58248 0.0
N1130 N 0.6556 0.15308 0.59599 0.0
C1131 C 0.65811 0.18181 0.58083 0.0
C1132 C 0.67385 0.16547 0.60136 0.0
C1133 C 0.64797 0.16075 0.58575 0.0
C1134 C 0.67651 0.19496 0.58633 0.0
C1135 C 0.68469 0.18684 0.59668 0.0
O1136 O 0.65081 0.08078 0.59737 0.0
O1137 O 0.60711 0.09133 0.60079 0.0
O1138 O 0.62359 0.0713 0.62648 0.0
O1139 O 0.65783 0.08674 0.61742 0.0
O1140 O 0.61122 0.12073 0.59046 0.0
O1141 O 0.6713 0.11342 0.59292 0.0
O1142 O 0.58938 0.06077 0.62882 0.0
O1143 O 0.62291 0.11452 0.62077 0.0
O1144 O 0.61178 0.15068 0.60396 0.0
O1145 O 0.57742 0.13533 0.61341 0.0
O1146 O 0.59145 0.12507 0.6295 0.0
O1147 O 0.55861 0.08618 0.62914 0.0
C1148 C 0.59841 0.10087 0.59179 0.0
C1149 C 0.66759 0.08212 0.57945 0.0
C1150 C 0.68568 0.05744 0.56461 0.0
C1151 C 0.68487 0.06464 0.57581 0.0
C1152 C 0.66794 0.06713 0.55726 0.0
C1153 C 0.65051 0.09204 0.57195 0.0
C1154 C 0.6504 0.08419 0.56095 0.0
C1155 C 0.64844 0.07124 0.62522 0.0
C1156 C 0.66796 0.08999 0.59107 0.0
C1157 C 0.70325 0.19952 0.60246 0.0
C1158 C 0.71075 0.19124 0.61288 0.0
C1159 C 0.61446 0.13013 0.62774 0.0
C1160 C 0.56959 0.0663 0.64578 0.0
C1161 C 0.57931 0.0864 0.65159 0.0
C1162 C 0.57481 0.08922 0.66299 0.0
C1163 C 0.56468 0.06881 0.66875 0.0
C1164 C 0.55931 0.04643 0.65157 0.0
C1165 C 0.55767 0.04738 0.66308 0.0
C1166 C 0.58905 0.15473 0.60836 0.0
C1167 C 0.56885 0.06682 0.63368 0.0
H1168 H 0.69803 0.0571 0.58167 0.0
H1169 H 0.6682 0.06242 0.54854 0.0
H1170 H 0.63734 0.10587 0.57454 0.0
H1171 H 0.63709 0.09184 0.55521 0.0
H1172 H 0.58874 0.1006 0.64698 0.0
H1173 H 0.56062 0.06959 0.6775 0.0
H1174 H 0.55223 1.03045 0.64718 0.0
H1175 H 0.54954 1.03208 0.66757 0.0
Eu1176 Eu 0.71979 0.89735 0.34591 0.0
C1177 C 0.77798 0.81982 0.34262 0.0
C1178 C 0.76051 0.77962 0.33826 0.0
C1179 C 0.79957 0.79212 0.33001 0.0
C1180 C 0.75916 0.80247 0.3439 0.0
C1181 C 0.79847 0.81466 0.33576 0.0
C1182 C 0.7806 0.77471 0.33121 0.0
C1183 C 0.81493 0.85496 0.34037 0.0
N1184 N 0.77595 0.84203 0.34784 0.0
C1185 C 0.79417 0.85941 0.34698 0.0
C1186 C 0.81708 0.83252 0.33471 0.0
Eu1187 Eu 0.74235 0.846 0.36015 0.0
N1188 N 0.73983 0.80766 0.35076 0.0
C1189 C 0.72271 0.78987 0.35316 0.0
C1190 C 0.74188 0.76214 0.34003 0.0
C1191 C 0.72309 0.76715 0.34763 0.0
H1192 H 0.79262 0.87669 0.35141 0.0
H1193 H 0.70918 0.75333 0.3494 0.0
H1194 H 0.78181 0.75734 0.32676 0.0
H1195 H 0.82924 0.86885 0.33963 0.0
H1196 H 0.70897 0.79283 0.35952 0.0
H1197 H 0.72058 0.99001 0.36482 0.0
H1198 H 0.74225 0.74441 0.33584 0.0
H1199 H 0.67725 0.88135 0.32582 0.0
H1200 H 0.73874 0.95357 0.35607 0.0
H1201 H 0.63409 0.88957 0.32131 0.0
H1202 H 0.815 0.78797 0.32459 0.0
H1203 H 0.67526 0.99556 0.36505 0.0
H1204 H 0.63386 0.98134 0.35843 0.0
H1205 H 0.83308 0.82923 0.32951 0.0
H1206 H 0.61003 0.95367 0.34636 0.0
N1207 N 0.7041 0.93558 0.3531 0.0
C1208 C 0.71891 0.95435 0.35686 0.0
C1209 C 0.68313 0.97882 0.36159 0.0
C1210 C 0.66823 0.96122 0.35639 0.0
C1211 C 0.70868 0.9757 0.36153 0.0
C1212 C 0.67944 0.93969 0.35199 0.0
H1213 H 0.61019 0.92005 0.33215 0.0
N1214 N 0.67835 0.90587 0.33976 0.0
C1215 C 0.64274 0.89925 0.32813 0.0
C1216 C 0.66609 0.92425 0.34513 0.0
C1217 C 0.66745 0.89462 0.3308 0.0
C1218 C 0.62928 0.91636 0.3343 0.0
C1219 C 0.64113 0.92974 0.34265 0.0
O1220 O 0.75484 0.90764 0.33813 0.0
O1221 O 0.74345 0.86281 0.34286 0.0
O1222 O 0.76485 0.87957 0.36895 0.0
O1223 O 0.74815 0.91359 0.36025 0.0
O1224 O 0.71539 0.86823 0.33206 0.0
O1225 O 0.72105 0.92444 0.33248 0.0
O1226 O 0.77697 0.83765 0.36826 0.0
O1227 O 0.72473 0.88177 0.36232 0.0
O1228 O 0.6837 0.872 0.349 0.0
O1229 O 0.69948 0.83508 0.35597 0.0
O1230 O 0.7111 0.85333 0.37225 0.0
O1231 O 0.74395 0.81898 0.3738 0.0
C1232 C 0.73407 0.85409 0.33382 0.0
C1233 C 0.75288 0.91863 0.31932 0.0
C1234 C 0.78126 0.93007 0.30446 0.0
C1235 C 0.77273 0.93276 0.31541 0.0
C1236 C 0.77012 0.91217 0.29761 0.0
C1237 C 0.74124 0.90178 0.3122 0.0
C1238 C 0.75013 0.89828 0.30147 0.0
C1239 C 0.76443 0.90452 0.36789 0.0
C1240 C 0.74466 0.92199 0.33082 0.0
C1241 C 0.6293 0.94955 0.34798 0.0
C1242 C 0.64286 0.96531 0.35484 0.0
C1243 C 0.70919 0.8765 0.36975 0.0
C1244 C 0.77599 0.82658 0.38704 0.0
C1245 C 0.76956 0.80922 0.39509 0.0
C1246 C 0.7784 0.81149 0.40595 0.0
C1247 C 0.79341 0.83157 0.40887 0.0
C1248 C 0.79201 0.84608 0.38992 0.0
C1249 C 0.80035 0.84872 0.40082 0.0
C1250 C 0.67967 0.84837 0.35227 0.0
C1251 C 0.76743 0.82295 0.37557 0.0
H1252 H 0.78077 0.9466 0.32082 0.0
H1253 H 0.77645 0.90932 0.2892 0.0
H1254 H 0.72535 0.8913 0.31489 0.0
H1255 H 0.74125 0.88501 0.29607 0.0
H1256 H 0.75768 0.79381 0.39289 0.0
H1257 H 0.8001 0.83364 0.41727 0.0
H1258 H 0.79832 0.85914 0.38376 0.0
H1259 H 0.81241 0.86395 0.40298 0.0
Eu1260 Eu 0.95051 0.97628 0.10241 0.0
C1261 C 1.02938 1.03095 0.1051 0.0
C1262 C 0.06875 1.01209 0.10044 0.0
C1263 C 0.05926 0.05346 0.09387 0.0
C1264 C 0.04546 1.01098 0.10572 0.0
C1265 C 1.03623 0.05245 0.09921 0.0
C1266 C 0.07544 1.0333 0.09445 0.0
C1267 C 0.99643 0.07001 0.10374 0.0
N1268 N 1.0067 1.02904 0.10987 0.0
C1269 C 0.99031 0.04825 0.10935 0.0
C1270 C 1.01948 0.07213 0.09864 0.0
Eu1271 Eu 0.9986 0.99212 0.11985 0.0
N1272 N 1.0384 0.99052 0.11146 0.0
C1273 C 0.05464 0.97138 0.11293 0.0
C1274 C 0.08478 0.99191 0.10141 0.0
C1275 C 0.07779 0.97161 0.10779 0.0
H1276 H 0.97229 0.04681 0.11306 0.0
H1277 H 0.09039 0.95625 0.10889 0.0
H1278 H 0.09316 1.03437 0.09029 0.0
H1279 H 0.98328 0.08506 0.10328 0.0
H1280 H 0.05021 0.95606 0.1183 0.0
H1281 H 0.85388 0.98122 0.11602 0.0
H1282 H 0.10279 0.99206 0.09747 0.0
H1283 H 0.96848 0.93653 0.08143 0.0
H1284 H 0.89415 0.99745 0.11069 0.0
H1285 H 0.95882 0.89496 0.07495 0.0
H1286 H 0.06469 0.06971 0.08922 0.0
H1287 H 0.84467 0.93697 0.11358 0.0
H1288 H 0.85824 0.89536 0.10683 0.0
H1289 H 1.02404 0.08891 0.09418 0.0
H1290 H 0.88779 0.87125 0.09584 0.0
N1291 N 0.91025 0.96204 0.10737 0.0
C1292 C 0.89169 0.9777 0.11064 0.0
C1293 C 0.86316 0.94369 0.1119 0.0
C1294 C 0.88133 0.92808 0.10754 0.0
C1295 C 0.86826 0.96869 0.11329 0.0
C1296 C 0.90483 0.93807 0.10503 0.0
H1297 H 0.92478 0.87132 0.0835 0.0
N1298 N 0.94128 0.9367 0.09437 0.0
C1299 C 0.94825 0.90298 0.08167 0.0
C1300 C 0.92106 0.92485 0.09843 0.0
C1301 C 0.9537 0.92677 0.08547 0.0
C1302 C 0.92915 0.88964 0.08656 0.0
C1303 C 0.91463 0.90089 0.09471 0.0
O1304 O 0.94594 1.0126 0.09465 0.0
O1305 O 0.98651 0.9986 0.10179 0.0
O1306 O 0.9659 1.0168 0.12773 0.0
O1307 O 0.93317 1.00321 0.1172 0.0
O1308 O 0.98212 0.97223 0.0899 0.0
O1309 O 0.92371 0.98194 0.08915 0.0
O1310 O 0.99902 1.0174 0.13399 0.0
O1311 O 0.96123 0.97731 0.11946 0.0
O1312 O 0.97359 0.93787 0.10499 0.0
O1313 O 1.00774 0.94942 0.11544 0.0
O1314 O 0.98573 0.95757 0.12918 0.0
O1315 O 1.02805 0.99047 0.13219 0.0
C1316 C 0.9964 0.99012 0.09275 0.0
C1317 C 0.93155 1.01334 0.07617 0.0
C1318 C 0.91223 1.03414 0.06049 0.0
C1319 C 0.91271 1.02812 0.07182 0.0
C1320 C 0.93222 1.02675 0.05377 0.0
C1321 C 0.95084 1.00538 0.06929 0.0
C1322 C 0.9515 1.01266 0.0582 0.0
C1323 C 0.9414 1.01794 0.12566 0.0
C1324 C 0.92933 1.00503 0.08767 0.0
C1325 C 0.89276 0.88976 0.09847 0.0
C1326 C 0.87596 0.90347 0.10475 0.0
C1327 C 0.96304 0.95948 0.12602 0.0
C1328 C 1.0095 0.9948 0.14987 0.0
C1329 C 1.01304 0.96953 0.15193 0.0
C1330 C 1.00315 0.95816 0.1614 0.0
C1331 C 0.99012 0.97265 0.16909 0.0
C1332 C 0.99634 1.00902 0.15762 0.0
C1333 C 0.98678 0.99797 0.16719 0.0
C1334 C 0.99539 0.93151 0.10985 0.0
C1335 C 1.01646 1.00521 0.13898 0.0
H1336 H 0.89784 1.03406 0.07723 0.0
H1337 H 0.93245 1.03073 0.04499 0.0
H1338 H 0.96508 0.99325 0.07238 0.0
H1339 H 0.9665 1.00657 0.05292 0.0
H1340 H 1.02365 0.95852 0.14613 0.0
H1341 H 0.98263 0.96444 0.17655 0.0
H1342 H 0.99298 1.0285 0.15615 0.0
H1343 H 0.97659 1.00904 0.17311 0.0
Eu1344 Eu 0.74859 0.73979 0.86808 0.0
C1345 C 0.67241 0.6659 0.85077 0.0
C1346 C 0.6688 0.63186 0.86364 0.0
C1347 C 0.63304 0.64445 0.853 0.0
C1348 C 0.68273 0.65141 0.85899 0.0
C1349 C 0.64765 0.66187 0.84742 0.0
C1350 C 0.64366 0.62931 0.86106 0.0
C1351 C 0.65461 0.68914 0.83201 0.0
N1352 N 0.68724 0.68208 0.84526 0.0
C1353 C 0.679 0.69237 0.83552 0.0
C1354 C 0.63866 0.67433 0.83814 0.0
Eu1355 Eu 0.7276 0.68896 0.85312 0.0
N1356 N 0.70717 0.65419 0.86134 0.0
C1357 C 0.71925 0.63582 0.86699 0.0
C1358 C 0.6809 0.61426 0.87009 0.0
C1359 C 0.70633 0.61594 0.87155 0.0
H1360 H 0.69069 0.70334 0.83029 0.0
H1361 H 0.71614 0.60164 0.87602 0.0
H1362 H 0.63263 0.61483 0.86481 0.0
H1363 H 0.64819 0.69797 0.8245 0.0
H1364 H 0.73899 0.63527 0.86766 0.0
H1365 H 0.71131 0.83225 0.85986 0.0
H1366 H 0.67101 0.59849 0.87339 0.0
H1367 H 0.80081 0.71339 0.85882 0.0
H1368 H 0.71345 0.79176 0.86906 0.0
H1369 H 0.83649 0.7241 0.84698 0.0
H1370 H 0.61392 0.64149 0.85067 0.0
H1371 H 0.74321 0.84415 0.8462 0.0
H1372 H 0.78295 0.83409 0.83654 0.0
H1373 H 0.61983 0.67169 0.83532 0.0
H1374 H 0.81758 0.80542 0.83355 0.0
N1375 N 0.74459 0.77934 0.85974 0.0
C1376 C 0.72677 0.79605 0.86268 0.0
C1377 C 0.74388 0.826 0.84999 0.0
C1378 C 0.76321 0.80961 0.84766 0.0
C1379 C 0.72578 0.81932 0.85766 0.0
C1380 C 0.76321 0.78616 0.85281 0.0
H1381 H 0.83779 0.76458 0.83745 0.0
N1382 N 0.78211 0.74738 0.85598 0.0
C1383 C 0.82149 0.73715 0.84805 0.0
C1384 C 0.78277 0.76997 0.85108 0.0
C1385 C 0.80127 0.73113 0.85474 0.0
C1386 C 0.82219 0.76004 0.84271 0.0
C1387 C 0.8027 0.77678 0.84417 0.0
O1388 O 0.78154 0.74537 0.87799 0.0
O1389 O 0.73274 0.70306 0.86963 0.0
O1390 O 0.69089 0.714 0.8557 0.0
O1391 O 0.7056 0.74984 0.86409 0.0
O1392 O 0.71683 0.73001 0.87968 0.0
O1393 O 0.74855 0.76616 0.88192 0.0
O1394 O 0.76155 0.681 0.8439 0.0
O1395 O 0.75088 0.72397 0.85059 0.0
O1396 O 0.77372 0.70672 0.87567 0.0
O1397 O 0.75679 0.67274 0.86713 0.0
O1398 O 0.7244 0.71768 0.83914 0.0
O1399 O 0.73066 0.65609 0.84272 0.0
C1400 C 0.71635 0.70707 0.87676 0.0
C1401 C 0.77562 0.75564 0.89667 0.0
C1402 C 0.78463 0.77241 0.91494 0.0
C1403 C 0.77948 0.77581 0.90363 0.0
C1404 C 0.78666 0.74826 0.91914 0.0
C1405 C 0.77698 0.73159 0.90102 0.0
C1406 C 0.78289 0.72796 0.91217 0.0
C1407 C 0.68629 0.737 0.85971 0.0
C1408 C 0.77099 0.76046 0.88489 0.0
C1409 C 0.80249 0.7999 0.8389 0.0
C1410 C 0.78274 0.81621 0.84059 0.0
C1411 C 0.74201 0.7327 0.84142 0.0
C1412 C 0.75725 0.65835 0.82738 0.0
C1413 C 0.77403 0.64026 0.82392 0.0
C1414 C 0.77628 0.63388 0.81265 0.0
C1415 C 0.76244 0.64761 0.80486 0.0
C1416 C 0.74389 0.67191 0.81954 0.0
C1417 C 0.74678 0.66673 0.8083 0.0
C1418 C 0.77353 0.68182 0.87456 0.0
C1419 C 0.75277 0.66127 0.83925 0.0
H1420 H 0.77728 0.79426 0.90026 0.0
H1421 H 0.79038 0.74513 0.92783 0.0
H1422 H 0.77343 0.71565 0.89589 0.0
H1423 H 0.78405 0.70938 0.91546 0.0
H1424 H 0.78474 0.63079 0.83019 0.0
H1425 H 0.76285 0.64322 0.79613 0.0
H1426 H 0.73092 0.68604 0.8221 0.0
H1427 H 0.7362 0.67699 0.80224 0.0
Eu1428 Eu 0.58615 0.49322 0.11058 0.0
C1429 C 0.6628 0.41788 0.09398 0.0
C1430 C 0.69932 0.41848 0.10552 0.0
C1431 C 0.68731 0.38042 0.0964 0.0
C1432 C 0.67815 0.43039 0.10118 0.0
C1433 C 0.66801 0.39307 0.09109 0.0
C1434 C 0.70302 0.39316 0.1036 0.0
C1435 C 0.63852 0.39665 0.07624 0.0
N1436 N 0.64494 0.43094 0.08867 0.0
C1437 C 0.63406 0.42114 0.07937 0.0
C1438 C 0.65499 0.38228 0.08234 0.0
Eu1439 Eu 0.63654 0.47172 0.09563 0.0
N1440 N 0.67451 0.45505 0.10258 0.0
C1441 C 0.69352 0.46928 0.10654 0.0
C1442 C 0.71711 0.43273 0.11097 0.0
C1443 C 0.71455 0.45836 0.11116 0.0
H1444 H 0.62139 0.43172 0.07441 0.0
H1445 H 0.72904 0.46978 0.11462 0.0
H1446 H 0.71877 0.38361 0.10713 0.0
H1447 H 0.62919 0.38885 0.06912 0.0
H1448 H 0.69314 0.48913 0.10593 0.0
H1449 H 0.49356 0.46049 0.09936 0.0
H1450 H 0.7336 0.42432 0.11439 0.0
H1451 H 0.61633 0.54439 0.10247 0.0
H1452 H 0.53314 0.45957 0.1093 0.0
H1453 H 0.60831 0.58179 0.09133 0.0
H1454 H 0.69118 0.36123 0.09447 0.0
H1455 H 0.48401 0.49499 0.08664 0.0
H1456 H 0.49646 0.53554 0.07836 0.0
H1457 H 0.65852 0.36335 0.07985 0.0
H1458 H 0.52706 0.56889 0.07654 0.0
N1459 N 0.54742 0.4918 0.10136 0.0
C1460 C 0.52995 0.47406 0.10332 0.0
C1461 C 0.50178 0.49437 0.09077 0.0
C1462 C 0.51905 0.51334 0.08935 0.0
C1463 C 0.50715 0.4748 0.09789 0.0
C1464 C 0.54197 0.51165 0.09489 0.0
H1465 H 0.56852 0.58646 0.08147 0.0
N1466 N 0.58151 0.52801 0.09892 0.0
C1467 C 0.59439 0.56749 0.09195 0.0
C1468 C 0.55924 0.53052 0.09384 0.0
C1469 C 0.59888 0.54628 0.09824 0.0
C1470 C 0.57186 0.5701 0.08643 0.0
C1471 C 0.55398 0.55149 0.0873 0.0
O1472 O 0.58353 0.52489 0.12166 0.0
O1473 O 0.62208 0.47546 0.11228 0.0
O1474 O 0.61134 0.43529 0.09826 0.0
O1475 O 0.57544 0.45023 0.10655 0.0
O1476 O 0.59374 0.46036 0.12178 0.0
O1477 O 0.55659 0.49553 0.12289 0.0
O1478 O 0.64546 0.50715 0.08784 0.0
O1479 O 0.6021 0.4958 0.09317 0.0
O1480 O 0.61953 0.51618 0.119 0.0
O1481 O 0.65328 0.49922 0.11019 0.0
O1482 O 0.60632 0.46766 0.08226 0.0
O1483 O 0.66402 0.47412 0.0824 0.0
C1484 C 0.61698 0.45917 0.11938 0.0
C1485 C 0.56848 0.51627 0.13932 0.0
C1486 C 0.5736 0.49397 0.15675 0.0
C1487 C 0.57424 0.4946 0.1451 0.0
C1488 C 0.5706 0.51667 0.16243 0.0
C1489 C 0.56547 0.53848 0.14511 0.0
C1490 C 0.56715 0.53874 0.15662 0.0
C1491 C 0.58824 0.43083 0.10214 0.0
C1492 C 0.56522 0.51582 0.12728 0.0
C1493 C 0.53131 0.55305 0.08169 0.0
C1494 C 0.51393 0.53401 0.08269 0.0
C1495 C 0.5928 0.48674 0.08419 0.0
C1496 C 0.65653 0.50503 0.06904 0.0
C1497 C 0.67022 0.52484 0.06479 0.0
C1498 C 0.66821 0.53159 0.05356 0.0
C1499 C 0.65081 0.51923 0.04687 0.0
C1500 C 0.63995 0.4924 0.06213 0.0
C1501 C 0.63668 0.49991 0.05118 0.0
C1502 C 0.64438 0.51556 0.11786 0.0
C1503 C 0.66035 0.49751 0.0806 0.0
H1504 H 0.57798 0.47807 0.14039 0.0
H1505 H 0.56955 0.51761 0.17135 0.0
H1506 H 0.56159 0.55554 0.14073 0.0
H1507 H 0.5646 0.55591 0.16109 0.0
H1508 H 0.68304 0.53444 0.07018 0.0
H1509 H 0.64891 0.52357 0.03816 0.0
H1510 H 0.62967 0.47666 0.06512 0.0
H1511 H 0.62373 0.49019 0.04592 0.0
Eu1512 Eu 0.84293 0.34176 0.36765 0.0
C1513 C 0.91314 0.42879 0.35059 0.0
C1514 C 0.91676 0.45539 0.36666 0.0
C1515 C 0.9455 0.46009 0.35138 0.0
C1516 C 0.90443 0.4363 0.36085 0.0
C1517 C 0.93383 0.4406 0.34577 0.0
C1518 C 0.937 0.46745 0.3618 0.0
C1519 C 0.93029 0.41299 0.33018 0.0
N1520 N 0.9018 0.40959 0.3454 0.0
C1521 C 0.90989 0.40187 0.33523 0.0
C1522 C 0.94235 0.43242 0.33547 0.0
Eu1523 Eu 0.86584 0.39295 0.35394 0.0
N1524 N 0.88524 0.42372 0.36552 0.0
C1525 C 0.87854 0.4289 0.37625 0.0
C1526 C 0.90897 0.46134 0.37736 0.0
C1527 C 0.89 0.44781 0.38221 0.0
H1528 H 0.90056 0.3874 0.33078 0.0
H1529 H 0.88443 0.45166 0.39065 0.0
H1530 H 0.94652 0.48219 0.36612 0.0
H1531 H 0.93657 0.40667 0.32215 0.0
H1532 H 0.86503 0.41804 0.3806 0.0
H1533 H 0.87578 0.24845 0.35783 0.0
H1534 H 0.91801 0.4758 0.38207 0.0
H1535 H 0.79248 0.37177 0.35874 0.0
H1536 H 0.87586 0.28844 0.36758 0.0
H1537 H 0.7564 0.36391 0.34669 0.0
H1538 H 0.96134 0.46937 0.34778 0.0
H1539 H 0.84306 0.23906 0.34418 0.0
H1540 H 0.80385 0.25182 0.33476 0.0
H1541 H 0.95815 0.44102 0.33153 0.0
H1542 H 0.77104 0.28271 0.33203 0.0
N1543 N 0.84504 0.30283 0.35866 0.0
C1544 C 0.86217 0.28515 0.36124 0.0
C1545 C 0.84335 0.25695 0.34823 0.0
C1546 C 0.82486 0.27446 0.34619 0.0
C1547 C 0.86191 0.26221 0.35589 0.0
C1548 C 0.8261 0.29751 0.35166 0.0
H1549 H 0.75299 0.32426 0.33657 0.0
N1550 N 0.80942 0.33714 0.35529 0.0
C1551 C 0.77068 0.35002 0.34755 0.0
C1552 C 0.80752 0.31491 0.35012 0.0
C1553 C 0.79115 0.35446 0.35433 0.0
C1554 C 0.76878 0.32757 0.34188 0.0
C1555 C 0.7873 0.30968 0.34312 0.0
O1556 O 0.80942 0.33895 0.37738 0.0
O1557 O 0.86445 0.37549 0.37025 0.0
O1558 O 0.90048 0.36494 0.35353 0.0
O1559 O 0.88568 0.3305 0.36314 0.0
O1560 O 0.8738 0.34528 0.38002 0.0
O1561 O 0.83921 0.31309 0.38044 0.0
O1562 O 0.82983 0.40152 0.34664 0.0
O1563 O 0.84181 0.35909 0.35055 0.0
O1564 O 0.8207 0.37603 0.37589 0.0
O1565 O 0.83597 0.41037 0.36688 0.0
O1566 O 0.87047 0.36433 0.33987 0.0
O1567 O 0.86134 0.42432 0.34276 0.0
C1568 C 0.87958 0.36778 0.37759 0.0
C1569 C 0.8129 0.32399 0.3955 0.0
C1570 C 0.80009 0.30495 0.41286 0.0
C1571 C 0.80619 0.30312 0.40155 0.0
C1572 C 0.79987 0.32841 0.4179 0.0
C1573 C 0.81372 0.34712 0.40076 0.0
C1574 C 0.80673 0.34935 0.41186 0.0
C1575 C 0.90486 0.34238 0.35805 0.0
C1576 C 0.81758 0.32115 0.38359 0.0
C1577 C 0.78628 0.28694 0.33753 0.0
C1578 C 0.80502 0.2694 0.33905 0.0
C1579 C 0.85137 0.35053 0.34149 0.0
C1580 C 0.83057 0.42072 0.32913 0.0
C1581 C 0.8133 0.43858 0.32591 0.0
C1582 C 0.80801 0.44269 0.31463 0.0
C1583 C 0.81916 0.42696 0.30672 0.0
C1584 C 0.84147 0.40539 0.32115 0.0
C1585 C 0.83538 0.40824 0.31001 0.0
C1586 C 0.82045 0.40089 0.37463 0.0
C1587 C 0.83818 0.4198 0.34076 0.0
H1588 H 0.80688 0.28527 0.39748 0.0
H1589 H 0.79526 0.33043 0.42658 0.0
H1590 H 0.81966 0.36341 0.39633 0.0
H1591 H 0.80708 0.36729 0.41584 0.0
H1592 H 0.80465 0.4497 0.33228 0.0
H1593 H 0.81627 0.42956 0.29794 0.0
H1594 H 0.85493 0.39158 0.32349 0.0
H1595 H 0.84396 0.39647 0.30385 0.0
Eu1596 Eu 0.99609 0.59238 0.61062 0.0
C1597 C 0.90991 0.66379 0.59437 0.0
C1598 C 0.8836 0.66734 0.61054 0.0
C1599 C 0.87952 0.69699 0.59558 0.0
C1600 C 0.90233 0.65481 0.60457 0.0
C1601 C 0.89858 0.68503 0.5898 0.0
C1602 C 0.87206 0.68817 0.60593 0.0
C1603 C 0.92577 0.68138 0.57406 0.0
N1604 N 0.92867 0.65214 0.589 0.0
C1605 C 0.93639 0.66043 0.57886 0.0
C1606 C 0.90681 0.69377 0.57955 0.0
Eu1607 Eu 0.94479 0.61556 0.59721 0.0
N1608 N 0.91443 0.63504 0.60899 0.0
C1609 C 0.90903 0.62782 0.61962 0.0
C1610 C 0.87748 0.65913 0.62115 0.0
C1611 C 0.89046 0.63948 0.62574 0.0
H1612 H 0.95048 0.65086 0.57426 0.0
H1613 H 0.88649 0.63353 0.63412 0.0
H1614 H 0.85762 0.69787 0.6104 0.0
H1615 H 0.93209 0.68783 0.56606 0.0
H1616 H 0.91955 0.61385 0.62383 0.0
H1617 H 0.08932 0.62524 0.60085 0.0
H1618 H 0.8633 0.66831 0.62598 0.0
H1619 H 0.96614 0.54198 0.60172 0.0
H1620 H 0.04938 0.6252 0.61066 0.0
H1621 H 0.97405 0.50582 0.58966 0.0
H1622 H 0.87062 0.71325 0.59218 0.0
H1623 H 0.09862 0.59271 0.58706 0.0
H1624 H 0.0858 0.55362 0.57751 0.0
H1625 H 0.89858 0.71 0.57579 0.0
H1626 H 0.05501 0.52074 0.5748 0.0
N1627 N 1.03498 0.59452 0.60164 0.0
C1628 C 0.05267 0.61159 0.60426 0.0
C1629 C 0.08077 0.59295 0.59114 0.0
C1630 C 0.06326 0.5745 0.58906 0.0
C1631 C 0.07556 0.6114 0.59888 0.0
C1632 C 1.04026 0.57567 0.59456 0.0
H1633 H 1.01361 0.5025 0.57946 0.0
N1634 N 1.00066 0.55898 0.59819 0.0
C1635 C 0.98788 0.52016 0.59048 0.0
C1636 C 1.02287 0.5571 0.593 0.0
C1637 C 0.9834 0.54066 0.59726 0.0
C1638 C 1.01028 0.51831 0.58477 0.0
C1639 C 1.02811 0.53689 0.58598 0.0
O1640 O 0.99885 0.55832 0.62003 0.0
O1641 O 0.96226 0.61363 0.61355 0.0
O1642 O 0.9722 0.65042 0.59714 0.0
O1643 O 1.00732 0.63524 0.60609 0.0
O1644 O 0.99328 0.62363 0.62281 0.0
O1645 O 1.02453 0.58792 0.62341 0.0
O1646 O 0.93484 0.57982 0.59004 0.0
O1647 O 0.97849 0.59132 0.5936 0.0
O1648 O 0.96179 0.57074 0.6192 0.0
O1649 O 0.92744 0.58525 0.60992 0.0
O1650 O 0.97352 0.62033 0.58316 0.0
O1651 O 0.91404 0.61229 0.58555 0.0
C1652 C 0.97049 0.62895 0.62071 0.0
C1653 C 1.01102 0.56266 0.63854 0.0
C1654 C 1.01396 0.57629 0.65774 0.0
C1655 C 1.01861 0.58007 0.64641 0.0
C1656 C 1.00134 0.55495 0.66116 0.0
C1657 C 0.99866 0.54121 0.64212 0.0
C1658 C 0.99364 0.53755 0.65335 0.0
C1659 C 0.99502 0.65464 0.60135 0.0
C1660 C 1.01591 0.56653 0.62663 0.0
C1661 C 0.05078 0.53595 0.58033 0.0
C1662 C 0.06828 0.55473 0.58184 0.0
C1663 C 0.98704 0.60097 0.58459 0.0
C1664 C 0.91778 0.58079 0.57215 0.0
C1665 C 0.9005 0.56314 0.56874 0.0
C1666 C 0.89915 0.55571 0.55759 0.0
C1667 C 0.91645 0.56532 0.55001 0.0
C1668 C 0.93449 0.59062 0.56445 0.0
C1669 C 0.93408 0.58256 0.55347 0.0
C1670 C 0.93695 0.57007 0.6178 0.0
C1671 C 0.91762 0.58888 0.58374 0.0
H1672 H 1.02888 0.59623 0.64377 0.0
H1673 H 0.99773 0.55164 0.66986 0.0
H1674 H 0.99278 0.52728 0.63623 0.0
H1675 H 0.98399 0.52106 0.65601 0.0
H1676 H 0.88776 0.55557 0.57479 0.0
H1677 H 0.91581 0.56029 0.54134 0.0
H1678 H 0.94775 0.60453 0.56688 0.0
H1679 H 0.9471 0.59012 0.54756 0.0
Eu1680 Eu 0.74116 0.34138 0.7001 0.0
C1681 C 0.67316 0.41904 0.72136 0.0
C1682 C 0.67628 0.45863 0.71215 0.0
C1683 C 0.63803 0.44731 0.72129 0.0
C1684 C 0.68636 0.4352 0.71474 0.0
C1685 C 0.6492 0.4255 0.72508 0.0
C1686 C 0.65169 0.46403 0.71496 0.0
C1687 C 0.65145 0.39216 0.73823 0.0
N1688 N 0.68508 0.39892 0.72547 0.0
C1689 C 0.67523 0.38669 0.73443 0.0
C1690 C 0.63802 0.4111 0.73328 0.0
Eu1691 Eu 0.72463 0.38951 0.71746 0.0
N1692 N 0.71037 0.42981 0.71246 0.0
C1693 C 0.72595 0.4484 0.70918 0.0
C1694 C 0.69178 0.47671 0.70766 0.0
C1695 C 0.71682 0.4717 0.70637 0.0
H1696 H 0.68512 0.37212 0.73856 0.0
H1697 H 0.72929 0.48607 0.70359 0.0
H1698 H 0.64355 0.48173 0.71288 0.0
H1699 H 0.64352 0.38173 0.74501 0.0
H1700 H 0.74572 0.44608 0.70921 0.0
H1701 H 0.70541 0.2487 0.70929 0.0
H1702 H 0.68494 0.49511 0.70585 0.0
H1703 H 0.79519 0.36744 0.7076 0.0
H1704 H 0.70559 0.28953 0.70039 0.0
H1705 H 0.83294 0.35621 0.71781 0.0
H1706 H 0.61953 0.45232 0.72393 0.0
H1707 H 0.74033 0.23597 0.72118 0.0
H1708 H 0.78194 0.24555 0.72917 0.0
H1709 H 0.61971 0.4155 0.73635 0.0
H1710 H 0.81695 0.2742 0.73108 0.0
N1711 N 0.73921 0.30119 0.70802 0.0
C1712 C 0.72046 0.28486 0.70598 0.0
C1713 C 0.74029 0.25423 0.71748 0.0
C1714 C 0.76018 0.27039 0.71901 0.0
C1715 C 0.7205 0.26139 0.71082 0.0
C1716 C 0.75923 0.29399 0.71402 0.0
H1717 H 0.83628 0.31518 0.72672 0.0
N1718 N 0.77729 0.33303 0.71053 0.0
C1719 C 0.81791 0.34309 0.71713 0.0
C1720 C 0.77901 0.31015 0.71511 0.0
C1721 C 0.79648 0.34937 0.71131 0.0
C1722 C 0.81975 0.31989 0.72212 0.0
C1723 C 0.80017 0.30311 0.72119 0.0
O1724 O 0.76946 0.3399 0.68723 0.0
O1725 O 0.72604 0.37871 0.70039 0.0
O1726 O 0.68656 0.36602 0.71497 0.0
O1727 O 0.69859 0.33172 0.70467 0.0
O1728 O 0.70692 0.35392 0.6905 0.0
O1729 O 0.73946 0.31371 0.68694 0.0
O1730 O 0.76079 0.39343 0.72545 0.0
O1731 O 0.74689 0.35361 0.7181 0.0
O1732 O 0.76557 0.37433 0.69232 0.0
O1733 O 0.75192 0.40704 0.70286 0.0
O1734 O 0.71969 0.35727 0.72961 0.0
O1735 O 0.7302 0.41569 0.73097 0.0
C1736 C 0.70836 0.37661 0.69376 0.0
C1737 C 0.75162 0.3321 0.66992 0.0
C1738 C 0.72111 0.33958 0.65543 0.0
C1739 C 0.72752 0.32999 0.66583 0.0
C1740 C 0.73924 0.3514 0.64902 0.0
C1741 C 0.76961 0.34397 0.66343 0.0
C1742 C 0.76338 0.35366 0.65305 0.0
C1743 C 0.68053 0.34399 0.71024 0.0
C1744 C 0.75733 0.32395 0.68131 0.0
C1745 C 0.80097 0.2798 0.72628 0.0
C1746 C 0.781 0.26352 0.72523 0.0
C1747 C 0.738 0.34334 0.72694 0.0
C1748 C 0.75984 0.40471 0.74429 0.0
C1749 C 0.77893 0.41865 0.74898 0.0
C1750 C 0.78383 0.41744 0.76043 0.0
C1751 C 0.77046 0.4003 0.76689 0.0
C1752 C 0.74641 0.38818 0.75091 0.0
C1753 C 0.7521 0.38565 0.7621 0.0
C1754 C 0.76675 0.39881 0.69443 0.0
C1755 C 0.75299 0.40926 0.73273 0.0
H1756 H 0.71369 0.32028 0.67066 0.0
H1757 H 0.73483 0.35851 0.64087 0.0
H1758 H 0.78836 0.34602 0.66644 0.0
H1759 H 0.77733 0.36281 0.64811 0.0
H1760 H 0.78919 0.43124 0.74373 0.0
H1761 H 0.77319 0.39898 0.77574 0.0
H1762 H 0.73125 0.37764 0.74752 0.0
H1763 H 0.74159 0.37295 0.76719 0.0
Eu1764 Eu 1.00277 0.49181 0.96162 0.0
C1765 C 0.93209 0.41358 0.98089 0.0
C1766 C 0.90325 0.401 0.96659 0.0
C1767 C 0.91335 0.37262 0.98147 0.0
C1768 C 0.91959 0.41869 0.97114 0.0
C1769 C 0.92884 0.39054 0.98621 0.0
C1770 C 0.90057 0.37785 0.97169 0.0
C1771 C 0.95575 0.40468 1.00081 0.0
N1772 N 0.94706 0.43125 0.9853 0.0
C1773 C 0.95858 0.42716 0.99525 0.0
C1774 C 0.94096 0.38624 0.99625 0.0
Eu1775 Eu 0.95026 0.46908 0.97518 0.0
N1776 N 0.92261 0.44121 0.96631 0.0
C1777 C 0.90852 0.44765 0.95736 0.0
C1778 C 0.88959 0.40726 0.95719 0.0
C1779 C 0.89206 0.43077 0.95263 0.0
H1780 H 0.97079 0.44068 0.99882 0.0
H1781 H 0.88134 0.43591 0.94542 0.0
H1782 H 0.88831 0.36401 0.96824 0.0
H1783 H 0.96522 0.40152 1.00857 0.0
H1784 H 0.91001 0.46557 0.9536 0.0
H1785 H 0.0952 0.46754 0.97642 0.0
H1786 H 0.87676 0.39424 0.95353 0.0
H1787 H 0.96486 0.53786 0.97006 0.0
H1788 H 0.05686 0.46179 0.9658 0.0
H1789 H 0.96742 0.57598 0.98112 0.0
H1790 H 0.91081 0.3548 0.98541 0.0
H1791 H 0.10068 0.50474 0.98807 0.0
H1792 H 0.08368 0.54485 0.99519 0.0
H1793 H 0.93889 0.3688 1.00057 0.0
H1794 H 0.04941 0.57465 0.99615 0.0
N1795 N 1.03967 0.49442 0.97206 0.0
C1796 C 0.05842 0.47758 0.97123 0.0
C1797 C 0.08356 0.50212 0.98358 0.0
C1798 C 0.06463 0.51972 0.98411 0.0
C1799 C 0.08046 0.48101 0.97707 0.0
C1800 C 0.04264 0.51539 0.97813 0.0
H1801 H 1.00615 0.58646 0.99092 0.0
N1802 N 1.00192 0.52693 0.97329 0.0
C1803 C 0.98333 0.56392 0.98045 0.0
C1804 C 1.02336 0.5323 0.97862 0.0
C1805 C 0.98197 0.54229 0.97413 0.0
C1806 C 1.00524 0.56981 0.98594 0.0
C1807 C 1.02553 0.55382 0.98517 0.0
O1808 O 1.00594 0.52188 0.94966 0.0
O1809 O 0.96736 0.47294 0.95887 0.0
O1810 O 0.97902 0.43467 0.97486 0.0
O1811 O 1.01442 0.44933 0.9659 0.0
O1812 O 0.9982 0.45789 0.95087 0.0
O1813 O 1.03471 0.49424 0.95061 0.0
O1814 O 0.93431 0.50326 0.98172 0.0
O1815 O 0.98676 0.4882 0.97873 0.0
O1816 O 0.96923 0.51414 0.95261 0.0
O1817 O 0.93462 0.49679 0.96063 0.0
O1818 O 0.96598 0.48086 0.99222 0.0
O1819 O 0.91308 0.46932 0.9821 0.0
C1820 C 0.97463 0.45617 0.95231 0.0
C1821 C 1.02551 0.51098 0.93307 0.0
C1822 C 1.02265 0.48436 0.91679 0.0
C1823 C 1.01859 0.48865 0.92812 0.0
C1824 C 1.03029 0.50457 0.9102 0.0
C1825 C 1.03313 0.53075 0.92644 0.0
C1826 C 1.03487 0.52769 0.91499 0.0
C1827 C 1.00224 0.43034 0.97095 0.0
C1828 C 1.02597 0.51317 0.94517 0.0
C1829 C 0.04748 0.55829 0.99104 0.0
C1830 C 0.06696 0.54128 0.99052 0.0
C1831 C 0.98685 0.49041 0.98946 0.0
C1832 C 0.90615 0.49805 0.99642 0.0
C1833 C 0.88982 0.51777 0.99819 0.0
C1834 C 0.87971 0.5222 1.00876 0.0
C1835 C 0.88746 0.50707 1.01763 0.0
C1836 C 0.91366 0.48333 1.00535 0.0
C1837 C 0.90453 0.48806 1.01594 0.0
C1838 C 0.94418 0.51317 0.95319 0.0
C1839 C 0.91416 0.49245 0.9851 0.0
H1840 H 1.01144 0.47414 0.93328 0.0
H1841 H 1.03411 0.50251 0.90146 0.0
H1842 H 1.03811 0.54833 0.93012 0.0
H1843 H 1.04102 0.54291 0.90987 0.0
H1844 H 0.88467 0.52923 0.9912 0.0
H1845 H 0.87977 0.50918 1.02585 0.0
H1846 H 0.92619 0.46796 1.00413 0.0
H1847 H 0.91013 0.47648 1.0228 0.0
Eu1848 Eu 0.83635 0.74372 0.20212 0.0
C1849 C 0.91127 0.66582 0.22057 0.0
C1850 C 0.90898 0.62679 0.21076 0.0
C1851 C 0.94727 0.63867 0.21966 0.0
C1852 C 0.8981 0.64945 0.21406 0.0
C1853 C 0.93566 0.6599 0.22387 0.0
C1854 C 0.93395 0.62215 0.21308 0.0
C1855 C 0.93413 0.6939 0.23671 0.0
N1856 N 0.89932 0.68591 0.22473 0.0
C1857 C 0.90997 0.69891 0.23329 0.0
C1858 C 0.9473 0.67474 0.23176 0.0
Eu1859 Eu 0.8586 0.69398 0.21746 0.0
N1860 N 0.87384 0.65421 0.21209 0.0
C1861 C 0.85879 0.63535 0.20862 0.0
C1862 C 0.8941 0.60888 0.20575 0.0
C1863 C 0.86873 0.6129 0.205 0.0
H1864 H 0.90056 0.71388 0.23735 0.0
H1865 H 0.85672 0.59848 0.2019 0.0
H1866 H 0.94274 0.60521 0.21032 0.0
H1867 H 0.94261 0.70492 0.24316 0.0
H1868 H 0.83895 0.63704 0.20888 0.0
H1869 H 0.87223 0.83711 0.20934 0.0
H1870 H 0.90174 0.59131 0.2031 0.0
H1871 H 0.78434 0.71733 0.21152 0.0
H1872 H 0.87051 0.79614 0.20049 0.0
H1873 H 0.74851 0.7282 0.22324 0.0
H1874 H 0.96618 0.63427 0.22187 0.0
H1875 H 0.84049 0.84915 0.22307 0.0
H1876 H 0.80119 0.83886 0.23307 0.0
H1877 H 0.96599 0.67085 0.23447 0.0
H1878 H 0.76702 0.80984 0.23643 0.0
N1879 N 0.83963 0.78384 0.20998 0.0
C1880 C 0.85719 0.80062 0.20685 0.0
C1881 C 0.83996 0.83086 0.2194 0.0
C1882 C 0.82092 0.81431 0.22195 0.0
C1883 C 0.85797 0.8241 0.21169 0.0
C1884 C 0.82111 0.79069 0.21696 0.0
H1885 H 0.7469 0.76893 0.23256 0.0
N1886 N 0.80272 0.75158 0.21414 0.0
C1887 C 0.7634 0.74132 0.22211 0.0
C1888 C 0.80183 0.77434 0.21888 0.0
C1889 C 0.78371 0.73522 0.21548 0.0
C1890 C 0.76253 0.76435 0.22733 0.0
C1891 C 0.78189 0.78118 0.22578 0.0
O1892 O 0.80349 0.74667 0.1919 0.0
O1893 O 0.85479 0.70796 0.20068 0.0
O1894 O 0.89492 0.71873 0.21422 0.0
O1895 O 0.87925 0.75469 0.20626 0.0
O1896 O 0.86801 0.73568 0.19038 0.0
O1897 O 0.835 0.76973 0.18816 0.0
O1898 O 0.82282 0.68689 0.2254 0.0
O1899 O 0.83441 0.72846 0.2197 0.0
O1900 O 0.81201 0.70971 0.1952 0.0
O1901 O 0.8327 0.67646 0.20254 0.0
O1902 O 0.86259 0.72466 0.2306 0.0
O1903 O 0.85505 0.66676 0.23069 0.0
C1904 C 0.87043 0.71279 0.19321 0.0
C1905 C 0.81022 0.75588 0.17314 0.0
C1906 C 0.80518 0.77021 0.15418 0.0
C1907 C 0.80822 0.77513 0.16553 0.0
C1908 C 0.80323 0.74561 0.15056 0.0
C1909 C 0.80895 0.73131 0.16937 0.0
C1910 C 0.80502 0.72626 0.15816 0.0
C1911 C 0.89895 0.74196 0.21042 0.0
C1912 C 0.81333 0.76204 0.18493 0.0
C1913 C 0.782 0.8044 0.23098 0.0
C1914 C 0.80151 0.82089 0.2291 0.0
C1915 C 0.84357 0.73819 0.22859 0.0
C1916 C 0.82447 0.67437 0.24412 0.0
C1917 C 0.80653 0.6586 0.24857 0.0
C1918 C 0.80092 0.6592 0.25996 0.0
C1919 C 0.81234 0.67728 0.26664 0.0
C1920 C 0.83631 0.69157 0.251 0.0
C1921 C 0.82978 0.69341 0.26213 0.0
C1922 C 0.81446 0.68491 0.19571 0.0
C1923 C 0.8318 0.67123 0.23249 0.0
H1924 H 0.81032 0.79399 0.16845 0.0
H1925 H 0.80112 0.74139 0.14184 0.0
H1926 H 0.81116 0.716 0.17498 0.0
H1927 H 0.80395 0.70729 0.15533 0.0
H1928 H 0.79771 0.64515 0.24321 0.0
H1929 H 0.80889 0.67817 0.27546 0.0
H1930 H 0.85084 0.7033 0.24787 0.0
H1931 H 0.83898 0.70676 0.26739 0.0
Eu1932 Eu 0.59316 0.59414 0.45919 0.0
C1933 C 0.67015 0.66596 0.47721 0.0
C1934 C 0.70754 0.66432 0.46624 0.0
C1935 C 0.69591 0.70266 0.47528 0.0
C1936 C 0.68556 0.65313 0.47012 0.0
C1937 C 0.67587 0.69055 0.48026 0.0
C1938 C 0.7119 0.68948 0.46834 0.0
C1939 C 0.64556 0.68747 0.49483 0.0
N1940 N 0.65173 0.6533 0.48232 0.0
C1941 C 0.64074 0.66313 0.49159 0.0
C1942 C 0.66263 0.70153 0.48891 0.0
Eu1943 Eu 0.64261 0.61295 0.47518 0.0
N1944 N 0.68121 0.62865 0.46853 0.0
C1945 C 0.69998 0.61382 0.46476 0.0
C1946 C 0.72547 0.64946 0.46121 0.0
C1947 C 0.72189 0.62402 0.4607 0.0
H1948 H 0.6276 0.65268 0.49638 0.0
H1949 H 0.73635 0.61213 0.45751 0.0
H1950 H 0.72838 0.69849 0.46523 0.0
H1951 H 0.63609 0.69537 0.50189 0.0
H1952 H 0.69892 0.59397 0.46526 0.0
H1953 H 0.50163 0.62597 0.47285 0.0
H1954 H 0.74285 0.65718 0.4584 0.0
H1955 H 0.62398 0.5418 0.46614 0.0
H1956 H 0.54063 0.62843 0.46261 0.0
H1957 H 0.6159 0.5029 0.47596 0.0
H1958 H 0.70027 0.72166 0.47736 0.0
H1959 H 0.49196 0.58896 0.48402 0.0
H1960 H 0.50408 0.54674 0.49045 0.0
H1961 H 0.66651 0.72032 0.49151 0.0
H1962 H 0.53437 0.51289 0.49076 0.0
N1963 N 0.55476 0.59424 0.46882 0.0
C1964 C 0.53758 0.61273 0.46793 0.0
C1965 C 0.50955 0.59017 0.47975 0.0
C1966 C 0.52656 0.57073 0.48018 0.0
C1967 C 0.51501 0.61116 0.47352 0.0
C1968 C 0.54928 0.57322 0.47451 0.0
H1969 H 0.57588 0.4964 0.48541 0.0
N1970 N 0.58875 0.55744 0.46975 0.0
C1971 C 0.60183 0.51712 0.47568 0.0
C1972 C 0.56649 0.55412 0.47478 0.0
C1973 C 0.60631 0.53926 0.47006 0.0
C1974 C 0.5792 0.51349 0.48097 0.0
C1975 C 0.56126 0.53213 0.48064 0.0
O1976 O 0.59217 0.56829 0.44525 0.0
O1977 O 0.62982 0.61067 0.45837 0.0
O1978 O 0.61777 0.65019 0.47289 0.0
O1979 O 0.58295 0.63691 0.46333 0.0
O1980 O 0.60294 0.62852 0.4491 0.0
O1981 O 0.56097 0.59213 0.4484 0.0
O1982 O 0.65132 0.5771 0.48257 0.0
O1983 O 0.60757 0.58947 0.47687 0.0
O1984 O 0.62592 0.57067 0.45063 0.0
O1985 O 0.65922 0.58528 0.46053 0.0
O1986 O 0.61182 0.61689 0.48822 0.0
O1987 O 0.66908 0.60986 0.4888 0.0
C1988 C 0.62608 0.62802 0.4517 0.0
C1989 C 0.57098 0.58378 0.42981 0.0
C1990 C 0.56548 0.61618 0.41598 0.0
C1991 C 0.57047 0.60882 0.42689 0.0
C1992 C 0.56443 0.59769 0.40772 0.0
C1993 C 0.56989 0.5657 0.42154 0.0
C1994 C 0.56721 0.57273 0.41048 0.0
C1995 C 0.59526 0.65553 0.4685 0.0
C1996 C 0.57129 0.57668 0.44153 0.0
C1997 C 0.53863 0.52962 0.48621 0.0
C1998 C 0.52141 0.54891 0.48604 0.0
C1999 C 0.59804 0.59825 0.4859 0.0
C2000 C 0.66282 0.57695 0.50134 0.0
C2001 C 0.67925 0.55902 0.50529 0.0
C2002 C 0.67708 0.54983 0.51614 0.0
C2003 C 0.65754 0.55822 0.52286 0.0
C2004 C 0.64399 0.5858 0.50828 0.0
C2005 C 0.64109 0.5761 0.51892 0.0
C2006 C 0.6506 0.57015 0.4523 0.0
C2007 C 0.66603 0.5862 0.49001 0.0
H2008 H 0.57252 0.6225 0.43333 0.0
H2009 H 0.56023 0.60211 0.39919 0.0
H2010 H 0.57068 0.54624 0.42364 0.0
H2011 H 0.56609 0.55872 0.4041 0.0
H2012 H 0.69438 0.55304 0.50003 0.0
H2013 H 0.6553 0.55134 0.53122 0.0
H2014 H 0.63158 0.60018 0.50554 0.0
H2015 H 0.62631 0.58274 0.52419 0.0
Eu2016 Eu 0.36774 0.39082 0.22557 0.0
C2017 C 0.31109 0.31085 0.22638 0.0
C2018 C 0.32963 0.27072 0.22971 0.0
C2019 C 0.29011 0.28095 0.23814 0.0
C2020 C 0.33035 0.29433 0.22474 0.0
C2021 C 0.29056 0.30416 0.23295 0.0
C2022 C 0.30964 0.26431 0.23656 0.0
C2023 C 0.27252 0.34405 0.2289 0.0
N2024 N 0.31248 0.33356 0.22164 0.0
C2025 C 0.2934 0.34999 0.22261 0.0
C2026 C 0.27114 0.32109 0.23415 0.0
Eu2027 Eu 0.34709 0.34115 0.21015 0.0
N2028 N 0.34938 0.30099 0.21801 0.0
C2029 C 0.36707 0.28408 0.21515 0.0
C2030 C 0.34871 0.254 0.22743 0.0
C2031 C 0.36732 0.2606 0.21999 0.0
H2032 H 0.29438 0.3678 0.21861 0.0
H2033 H 0.38166 0.24747 0.21784 0.0
H2034 H 0.3089 0.24634 0.24052 0.0
H2035 H 0.25757 0.35723 0.22975 0.0
H2036 H 0.38091 0.28847 0.209 0.0
H2037 H 0.38811 0.45627 0.19143 0.0
H2038 H 0.34883 0.23571 0.23109 0.0
H2039 H 0.40032 0.38199 0.24917 0.0
H2040 H 0.36747 0.4217 0.2001 0.0
H2041 H 0.437 0.39816 0.25842 0.0
H2042 H 0.27466 0.27562 0.24334 0.0
H2043 H 0.42311 0.4768 0.20069 0.0
H2044 H 0.45227 0.47851 0.21657 0.0
H2045 H 0.25506 0.31663 0.23912 0.0
H2046 H 0.46624 0.46209 0.23445 0.0
N2047 N 0.38832 0.423 0.21522 0.0
C2048 C 0.38146 0.43094 0.20486 0.0
C2049 C 0.4135 0.46186 0.20484 0.0
C2050 C 0.42124 0.45335 0.21518 0.0
C2051 C 0.39371 0.45041 0.19962 0.0
C2052 C 0.40811 0.43378 0.22027 0.0
H2053 H 0.46098 0.43204 0.24993 0.0
N2054 N 0.40363 0.40529 0.23495 0.0
C2055 C 0.4315 0.40559 0.25048 0.0
C2056 C 0.41619 0.4244 0.23031 0.0
C2057 C 0.41071 0.39622 0.24505 0.0
C2058 C 0.44491 0.42476 0.24568 0.0
C2059 C 0.43726 0.43454 0.23554 0.0
O2060 O 0.33136 0.39976 0.23232 0.0
O2061 O 0.34361 0.35633 0.2277 0.0
O2062 O 0.32405 0.37557 0.20278 0.0
O2063 O 0.33838 0.40917 0.21261 0.0
O2064 O 0.37158 0.3603 0.2388 0.0
O2065 O 0.36322 0.4201 0.23793 0.0
O2066 O 0.31517 0.33925 0.1993 0.0
O2067 O 0.36723 0.37617 0.20879 0.0
O2068 O 0.40288 0.3634 0.22552 0.0
O2069 O 0.38945 0.32998 0.2149 0.0
O2070 O 0.38006 0.34724 0.19898 0.0
O2071 O 0.34613 0.31499 0.19621 0.0
C2072 C 0.3525 0.34688 0.23672 0.0
C2073 C 0.33035 0.41479 0.25054 0.0
C2074 C 0.30326 0.43134 0.26486 0.0
C2075 C 0.31256 0.43189 0.25399 0.0
C2076 C 0.31132 0.4127 0.27212 0.0
C2077 C 0.33886 0.39678 0.25797 0.0
C2078 C 0.32912 0.39558 0.26867 0.0
C2079 C 0.32338 0.40023 0.20451 0.0
C2080 C 0.33968 0.41628 0.23917 0.0
C2081 C 0.45006 0.45412 0.23054 0.0
C2082 C 0.44205 0.46352 0.22039 0.0
C2083 C 0.38379 0.36989 0.20184 0.0
C2084 C 0.32376 0.33023 0.18071 0.0
C2085 C 0.32048 0.3115 0.1729 0.0
C2086 C 0.31835 0.31716 0.16157 0.0
C2087 C 0.31858 0.34203 0.1582 0.0
C2088 C 0.32505 0.35495 0.17714 0.0
C2089 C 0.32197 0.3608 0.16597 0.0
C2090 C 0.408 0.34153 0.2205 0.0
C2091 C 0.32519 0.32357 0.19251 0.0
H2092 H 0.30624 0.44595 0.24825 0.0
H2093 H 0.30465 0.412 0.28058 0.0
H2094 H 0.35298 0.38374 0.25553 0.0
H2095 H 0.33578 0.38167 0.27437 0.0
H2096 H 0.3207 0.29242 0.17566 0.0
H2097 H 0.31691 0.34689 0.14953 0.0
H2098 H 0.32847 0.3698 0.18289 0.0
H2099 H 0.32269 0.37991 0.16332 0.0
Eu2100 Eu 0.4405 0.61429 0.9651 0.0
C2101 C 0.51447 0.55147 0.97171 0.0
C2102 C 0.5554 0.56646 0.97644 0.0
C2103 C 0.54007 0.52842 0.98467 0.0
C2104 C 0.53304 0.56905 0.97054 0.0
C2105 C 0.51786 0.53095 0.97877 0.0
C2106 C 0.55879 0.54609 0.98348 0.0
C2107 C 0.47684 0.51709 0.97383 0.0
N2108 N 0.49286 0.55474 0.96618 0.0
C2109 C 0.47429 0.53772 0.96695 0.0
C2110 C 0.49871 0.51369 0.97978 0.0
Eu2111 Eu 0.49206 0.58764 0.95333 0.0
N2112 N 0.5294 0.58846 0.96356 0.0
C2113 C 0.54802 0.60498 0.9616 0.0
C2114 C 0.57392 0.5842 0.97496 0.0
C2115 C 0.57027 0.60343 0.96744 0.0
H2116 H 0.45745 0.54011 0.96229 0.0
H2117 H 0.58481 0.61676 0.96595 0.0
H2118 H 0.57594 0.54372 0.98799 0.0
H2119 H 0.46197 0.50379 0.97452 0.0
H2120 H 0.54617 0.61901 0.9553 0.0
H2121 H 0.38756 0.63134 0.92655 0.0
H2122 H 0.59131 0.58288 0.97937 0.0
H2123 H 0.44651 0.65254 0.98718 0.0
H2124 H 0.41805 0.61091 0.93798 0.0
H2125 H 0.42939 0.69131 0.99414 0.0
H2126 H 0.54296 0.51285 0.99016 0.0
H2127 H 0.3659 0.6685 0.93334 0.0
H2128 H 0.36048 0.70022 0.94807 0.0
H2129 H 0.50059 0.49774 0.98514 0.0
H2130 H 0.3724 0.71696 0.96618 0.0
N2131 N 0.41286 0.63421 0.9522 0.0
C2132 C 0.40809 0.62603 0.94164 0.0
C2133 C 0.37892 0.65906 0.93869 0.0
C2134 C 0.38444 0.66817 0.94921 0.0
C2135 C 0.39102 0.63807 0.93485 0.0
C2136 C 0.40165 0.65525 0.95588 0.0
H2137 H 0.39826 0.71407 0.98322 0.0
N2138 N 0.4259 0.6528 0.9721 0.0
C2139 C 0.4234 0.68416 0.98621 0.0
C2140 C 0.40858 0.66493 0.96604 0.0
C2141 C 0.43317 0.66203 0.98215 0.0
C2142 C 0.40581 0.6969 0.98004 0.0
C2143 C 0.39817 0.68739 0.96985 0.0
O2144 O 0.42849 0.58012 0.97317 0.0
O2145 O 0.47282 0.58902 0.96986 0.0
O2146 O 0.45782 0.5661 0.94461 0.0
O2147 O 0.42315 0.58371 0.95252 0.0
O2148 O 0.46815 0.61917 0.97965 0.0
O2149 O 0.40801 0.61371 0.97588 0.0
O2150 O 0.49411 0.55371 0.94382 0.0
O2151 O 0.45953 0.60966 0.94918 0.0
O2152 O 0.46866 0.64815 0.96511 0.0
O2153 O 0.50405 0.63099 0.95715 0.0
O2154 O 0.49198 0.61716 0.9404 0.0
O2155 O 0.52345 0.58075 0.94222 0.0
C2156 C 0.48099 0.59917 0.9788 0.0
C2157 C 0.41074 0.58565 0.99076 0.0
C2158 C 0.3931 0.56305 1.00643 0.0
C2159 C 0.39537 0.56697 0.99491 0.0
C2160 C 0.40774 0.57756 1.0136 0.0
C2161 C 0.42521 0.59959 0.99807 0.0
C2162 C 0.4239 0.59534 1.00942 0.0
C2163 C 0.43281 0.56699 0.94531 0.0
C2164 C 0.41104 0.59078 0.97881 0.0
C2165 C 0.3806 0.69978 0.96337 0.0
C2166 C 0.37376 0.6902 0.95307 0.0
C2167 C 0.4692 0.62355 0.9418 0.0
C2168 C 0.51528 0.55463 0.92678 0.0
C2169 C 0.53841 0.55219 0.92182 0.0
C2170 C 0.54059 0.54646 0.91052 0.0
C2171 C 0.51907 0.54249 0.90425 0.0
C2172 C 0.49386 0.55108 0.92041 0.0
C2173 C 0.49581 0.54474 0.90921 0.0
C2174 C 0.49194 0.65128 0.96131 0.0
C2175 C 0.51434 0.55982 0.93871 0.0
H2176 H 0.38495 0.5559 0.98908 0.0
H2177 H 0.40626 0.57602 1.0225 0.0
H2178 H 0.43725 0.61398 0.99507 0.0
H2179 H 0.43493 0.60638 1.01503 0.0
H2180 H 0.55477 0.55585 0.92674 0.0
H2181 H 0.52023 0.53828 0.8955 0.0
H2182 H 0.47572 0.55326 0.92403 0.0
H2183 H 0.47926 0.54197 0.90434 0.0
Eu2184 Eu 0.21896 0.69577 0.72322 0.0
C2185 C 0.27625 0.77896 0.72603 0.0
C2186 C 0.25527 0.8172 0.73065 0.0
C2187 C 0.29551 0.80829 0.73865 0.0
C2188 C 0.25593 0.79435 0.72498 0.0
C2189 C 0.29651 0.78602 0.73268 0.0
C2190 C 0.27489 0.8238 0.73767 0.0
C2191 C 0.31736 0.7486 0.72697 0.0
N2192 N 0.2763 0.75709 0.72053 0.0
C2193 C 0.29668 0.74221 0.72065 0.0
C2194 C 0.31718 0.77047 0.73312 0.0
Eu2195 Eu 0.24189 0.74859 0.7091 0.0
N2196 N 0.23737 0.78756 0.71805 0.0
C2197 C 0.21898 0.804 0.71553 0.0
C2198 C 0.23529 0.8331 0.72882 0.0
C2199 C 0.2173 0.82665 0.72107 0.0
H2200 H 0.29706 0.72549 0.71577 0.0
H2201 H 0.20235 0.8393 0.71921 0.0
H2202 H 0.27456 0.84114 0.74217 0.0
H2203 H 0.33345 0.73671 0.72709 0.0
H2204 H 0.20568 0.79993 0.70911 0.0
H2205 H 0.20329 0.61206 0.69812 0.0
H2206 H 0.2341 0.85079 0.73301 0.0
H2207 H 0.1828 0.71339 0.74536 0.0
H2208 H 0.22719 0.64516 0.70639 0.0
H2209 H 0.14111 0.70756 0.75233 0.0
H2210 H 0.31071 0.81383 0.74393 0.0
H2211 H 0.15878 0.60789 0.70223 0.0
H2212 H 0.12215 0.62187 0.71313 0.0
H2213 H 0.33313 0.77528 0.7381 0.0
H2214 H 0.10515 0.64799 0.72794 0.0
N2215 N 0.19676 0.6617 0.71504 0.0
C2216 C 0.20786 0.64446 0.70833 0.0
C2217 C 0.16924 0.62286 0.70592 0.0
C2218 C 0.15825 0.63927 0.71336 0.0
C2219 C 0.19432 0.62514 0.7036 0.0
C2220 C 0.17275 0.65847 0.71798 0.0
H2221 H 0.1123 0.67934 0.74279 0.0
N2222 N 0.17862 0.68941 0.73132 0.0
C2223 C 0.14703 0.69778 0.74496 0.0
C2224 C 0.16337 0.67278 0.7264 0.0
C2225 C 0.17098 0.70103 0.74086 0.0
C2226 C 0.13082 0.6819 0.73955 0.0
C2227 C 0.13902 0.66876 0.7303 0.0
O2228 O 0.23928 0.66138 0.72597 0.0
O2229 O 0.24544 0.72919 0.72569 0.0
O2230 O 0.26523 0.71505 0.70087 0.0
O2231 O 0.24873 0.68075 0.70946 0.0
O2232 O 0.22005 0.72312 0.73777 0.0
O2233 O 0.23216 0.68517 0.73974 0.0
O2234 O 0.27357 0.75163 0.69805 0.0
O2235 O 0.2233 0.71331 0.70701 0.0
O2236 O 0.18272 0.72053 0.72058 0.0
O2237 O 0.19876 0.75784 0.714 0.0
O2238 O 0.21024 0.74237 0.69729 0.0
O2239 O 0.24308 0.77701 0.69623 0.0
C2240 C 0.23824 0.73724 0.73531 0.0
C2241 C 0.27091 0.66581 0.73898 0.0
C2242 C 0.30539 0.64859 0.7494 0.0
C2243 C 0.2799 0.64957 0.74704 0.0
C2244 C 0.32165 0.66431 0.74367 0.0
C2245 C 0.28739 0.68128 0.7333 0.0
C2246 C 0.31263 0.68059 0.73567 0.0
C2247 C 0.26481 0.69013 0.70188 0.0
C2248 C 0.2445 0.66621 0.73621 0.0
C2249 C 0.12396 0.65104 0.72516 0.0
C2250 C 0.13363 0.63619 0.71674 0.0
C2251 C 0.20795 0.71913 0.6995 0.0
C2252 C 0.26184 0.76096 0.67987 0.0
C2253 C 0.24016 0.76478 0.67376 0.0
C2254 C 0.23819 0.75647 0.66277 0.0
C2255 C 0.25828 0.7441 0.65789 0.0
C2256 C 0.28191 0.74892 0.6748 0.0
C2257 C 0.28002 0.74036 0.66391 0.0
C2258 C 0.17899 0.74441 0.71769 0.0
C2259 C 0.26302 0.76787 0.69169 0.0
H2260 H 0.26716 0.63722 0.75122 0.0
H2261 H 0.34131 0.66395 0.74536 0.0
H2262 H 0.28068 0.69369 0.72698 0.0
H2263 H 0.32526 0.69248 0.73122 0.0
H2264 H 0.22492 0.7748 0.67749 0.0
H2265 H 0.25728 0.73765 0.64941 0.0
H2266 H 0.29892 0.74583 0.67931 0.0
H2267 H 0.2955 0.73092 0.6601 0.0
Eu2268 Eu 0.1398 0.47629 0.46529 0.0
C2269 C 0.0663 0.53829 0.46988 0.0
C2270 C 1.02585 0.5233 0.47541 0.0
C2271 C 1.04098 0.56247 0.48257 0.0
C2272 C 0.04792 0.52038 0.46929 0.0
C2273 C 0.06292 0.55957 0.47649 0.0
C2274 C 1.02253 0.54437 0.48205 0.0
C2275 C 0.10363 0.57322 0.47096 0.0
N2276 N 0.08782 0.53451 0.46431 0.0
C2277 C 0.10621 0.55181 0.46457 0.0
C2278 C 0.08191 0.57712 0.47696 0.0
Eu2279 Eu 0.08882 0.49976 0.45241 0.0
N2280 N 0.05158 0.50016 0.46279 0.0
C2281 C 1.03325 0.48298 0.46153 0.0
C2282 C 1.00761 0.50506 0.4746 0.0
C2283 C 1.01127 0.48492 0.46756 0.0
H2284 H 0.12299 0.54905 0.45992 0.0
H2285 H 0.99694 0.47111 0.46661 0.0
H2286 H 1.00566 0.54692 0.48676 0.0
H2287 H 0.11838 0.58671 0.47124 0.0
H2288 H 1.03509 0.46809 0.45563 0.0
H2289 H 0.19681 0.45459 0.42841 0.0
H2290 H 0.99046 0.50661 0.47919 0.0
H2291 H 0.13579 0.44418 0.48928 0.0
H2292 H 0.16633 0.47735 0.43894 0.0
H2293 H 0.15137 0.40592 0.49743 0.0
H2294 H 1.03814 0.5786 0.48775 0.0
H2295 H 0.21577 0.41688 0.43609 0.0
H2296 H 0.21875 0.38649 0.45149 0.0
H2297 H 0.08003 0.59365 0.48196 0.0
H2298 H 0.2058 0.37277 0.46997 0.0
N2299 N 0.1686 0.4547 0.45349 0.0
C2300 C 0.17509 0.46204 0.44299 0.0
C2301 C 0.20273 0.42734 0.44105 0.0
C2302 C 0.19596 0.41946 0.45163 0.0
C2303 C 0.19217 0.44865 0.43671 0.0
C2304 C 0.17877 0.43371 0.45777 0.0
H2305 H 0.18059 0.37964 0.487 0.0
N2306 N 0.15461 0.43954 0.47386 0.0
C2307 C 0.15698 0.41114 0.48915 0.0
C2308 C 0.17131 0.42577 0.46815 0.0
C2309 C 0.14788 0.43282 0.48437 0.0
C2310 C 0.17351 0.39642 0.48326 0.0
C2311 C 0.18108 0.40373 0.47269 0.0
O2312 O 0.15068 0.5117 0.47246 0.0
O2313 O 0.10661 0.50111 0.46932 0.0
O2314 O 0.12263 0.52091 0.44317 0.0
O2315 O 0.1571 0.50621 0.45228 0.0
O2316 O 0.11103 0.47142 0.47937 0.0
O2317 O 0.17182 0.4791 0.47632 0.0
O2318 O 0.08762 0.53044 0.44071 0.0
O2319 O 0.12273 0.47892 0.44887 0.0
O2320 O 0.1126 0.44127 0.46549 0.0
O2321 O 0.07734 0.4566 0.45677 0.0
O2322 O 0.09016 0.46672 0.44122 0.0
O2323 O 0.05643 0.50582 0.44194 0.0
C2324 C 0.0981 0.49125 0.47827 0.0
C2325 C 0.16877 0.50996 0.49006 0.0
C2326 C 0.18793 0.5339 0.50486 0.0
C2327 C 0.18691 0.52654 0.49369 0.0
C2328 C 0.16976 0.5251 0.51224 0.0
C2329 C 0.15115 0.50103 0.49758 0.0
C2330 C 0.15145 0.50887 0.50857 0.0
C2331 C 0.14755 0.52135 0.44437 0.0
C2332 C 0.1684 0.50243 0.4784 0.0
C2333 C 0.19818 0.38972 0.46661 0.0
C2334 C 0.20561 0.39757 0.45611 0.0
C2335 C 0.1136 0.4629 0.44231 0.0
C2336 C 0.06499 0.52336 0.42457 0.0
C2337 C 0.07438 0.50276 0.41898 0.0
C2338 C 0.06793 0.49807 0.4079 0.0
C2339 C 0.05579 0.51717 0.40201 0.0
C2340 C 0.05276 0.5419 0.41867 0.0
C2341 C 0.04894 0.53913 0.40732 0.0
C2342 C 0.08962 0.43705 0.46146 0.0
C2343 C 0.06625 0.52439 0.43665 0.0
H2344 H 0.20042 0.53343 0.48781 0.0
H2345 H 0.17017 0.52997 0.52093 0.0
H2346 H 0.1372 0.48803 0.49498 0.0
H2347 H 0.13773 0.50197 0.51433 0.0
H2348 H 0.08524 0.4897 0.42361 0.0
H2349 H 0.05014 0.51498 0.39349 0.0
H2350 H 0.04579 0.5582 0.42286 0.0
H2351 H 1.03929 0.55339 0.40275 0.0
Eu2352 Eu 0.36448 0.69696 0.34572 0.0
C2353 C 0.30251 0.77135 0.34069 0.0
C2354 C 0.32004 0.8106 0.33471 0.0
C2355 C 0.28002 0.79752 0.32772 0.0
C2356 C 0.32173 0.78872 0.34106 0.0
C2357 C 0.28147 0.77582 0.33405 0.0
C2358 C 0.29927 0.81475 0.328 0.0
C2359 C 0.26534 0.7361 0.33971 0.0
N2360 N 0.30469 0.7498 0.34648 0.0
C2361 C 0.2865 0.73228 0.3461 0.0
C2362 C 0.26275 0.75797 0.33369 0.0
Eu2363 Eu 0.3391 0.74822 0.35845 0.0
N2364 N 0.34187 0.78441 0.34759 0.0
C2365 C 0.35955 0.80223 0.3489 0.0
C2366 C 0.33915 0.82796 0.33539 0.0
C2367 C 0.3588 0.82389 0.34261 0.0
H2368 H 0.2882 0.71527 0.35066 0.0
H2369 H 0.3731 0.83773 0.34355 0.0
H2370 H 0.29782 0.83139 0.32305 0.0
H2371 H 0.25103 0.72213 0.3394 0.0
H2372 H 0.37391 0.80041 0.35504 0.0
H2373 H 0.38567 0.6382 0.38226 0.0
H2374 H 0.33852 0.84492 0.33061 0.0
H2375 H 0.3975 0.70174 0.32187 0.0
H2376 H 0.36088 0.66576 0.37134 0.0
H2377 H 0.4379 0.68983 0.31461 0.0
H2378 H 0.26414 0.80105 0.32249 0.0
H2379 H 0.42677 0.625 0.37578 0.0
H2380 H 0.45934 0.62613 0.36132 0.0
H2381 H 0.2464 0.76073 0.32867 0.0
H2382 H 0.47374 0.64043 0.34316 0.0
N2383 N 0.38633 0.6685 0.35767 0.0
C2384 C 0.37799 0.65993 0.36772 0.0
C2385 C 0.41559 0.63697 0.37061 0.0
C2386 C 0.42415 0.64519 0.36036 0.0
C2387 C 0.39239 0.64428 0.37426 0.0
C2388 C 0.40894 0.66096 0.35393 0.0
H2389 H 0.46599 0.66405 0.32582 0.0
N2390 N 0.40241 0.68404 0.33755 0.0
C2391 C 0.43244 0.68404 0.32283 0.0
C2392 C 0.41723 0.66912 0.34369 0.0
C2393 C 0.40949 0.69102 0.32711 0.0
C2394 C 0.4482 0.66946 0.32917 0.0
C2395 C 0.44063 0.66158 0.33965 0.0
O2396 O 0.32957 0.68028 0.34069 0.0
O2397 O 0.33831 0.72921 0.34165 0.0
O2398 O 0.31537 0.71485 0.36651 0.0
O2399 O 0.33416 0.68047 0.35882 0.0
O2400 O 0.36671 0.72368 0.33086 0.0
O2401 O 0.36371 0.66744 0.33333 0.0
O2402 O 0.30684 0.76666 0.36505 0.0
O2403 O 0.36781 0.72071 0.36018 0.0
O2404 O 0.3994 0.72428 0.34615 0.0
O2405 O 0.38324 0.75832 0.35562 0.0
O2406 O 0.34917 0.72869 0.37448 0.0
O2407 O 0.3428 0.77629 0.37158 0.0
C2408 C 0.34735 0.73705 0.33235 0.0
C2409 C 0.32738 0.66526 0.32248 0.0
C2410 C 0.29826 0.64478 0.31014 0.0
C2411 C 0.31074 0.64608 0.32032 0.0
C2412 C 0.30196 0.66356 0.30227 0.0
C2413 C 0.33157 0.68341 0.31441 0.0
C2414 C 0.31859 0.68275 0.30441 0.0
C2415 C 0.31702 0.68989 0.36593 0.0
C2416 C 0.33969 0.666 0.33328 0.0
C2417 C 0.45572 0.64625 0.34612 0.0
C2418 C 0.44751 0.63808 0.35644 0.0
C2419 C 0.36726 0.71616 0.37039 0.0
C2420 C 0.30865 0.77358 0.38409 0.0
C2421 C 0.3145 0.78986 0.39264 0.0
C2422 C 0.30484 0.78613 0.40331 0.0
C2423 C 0.28943 0.76589 0.40545 0.0
C2424 C 0.29253 0.75366 0.38625 0.0
C2425 C 0.28312 0.74982 0.39688 0.0
C2426 C 0.40314 0.74689 0.35071 0.0
C2427 C 0.31883 0.77775 0.37291 0.0
H2428 H 0.30772 0.63193 0.32655 0.0
H2429 H 0.29275 0.66289 0.29431 0.0
H2430 H 0.3448 0.69803 0.31581 0.0
H2431 H 0.32174 0.69692 0.29824 0.0
H2432 H 0.32681 0.80529 0.39105 0.0
H2433 H 0.28213 0.76273 0.41369 0.0
H2434 H 0.28705 0.74112 0.37972 0.0
H2435 H 0.27089 0.73438 0.39847 0.0
Eu2436 Eu 0.14653 0.61682 0.10643 0.0
C2437 C 0.07221 0.55451 0.10147 0.0
C2438 C 1.03258 0.57173 0.09585 0.0
C2439 C 0.04615 0.53228 0.08837 0.0
C2440 C 0.05462 0.57346 0.10208 0.0
C2441 C 0.06797 0.53377 0.09461 0.0
C2442 C 1.02857 0.5512 0.08896 0.0
C2443 C 0.10798 0.51792 0.09996 0.0
N2444 N 0.09381 0.55677 0.1072 0.0
C2445 C 0.11156 0.53881 0.10658 0.0
C2446 C 0.08609 0.51534 0.09397 0.0
Eu2447 Eu 0.0958 0.59141 0.11913 0.0
N2448 N 0.05892 0.59344 0.1087 0.0
C2449 C 1.04099 0.61094 0.11022 0.0
C2450 C 1.015 0.59059 0.09678 0.0
C2451 C 1.01909 0.6101 0.1041 0.0
H2452 H 0.12869 0.54056 0.11103 0.0
H2453 H 1.00515 0.62426 0.10521 0.0
H2454 H 1.01183 0.54973 0.08408 0.0
H2455 H 0.12217 0.50385 0.09944 0.0
H2456 H 0.04299 0.62528 0.11637 0.0
H2457 H 0.2042 0.63907 0.14319 0.0
H2458 H 0.99791 0.58993 0.09212 0.0
H2459 H 0.1412 0.64961 0.08258 0.0
H2460 H 0.17624 0.61431 0.13244 0.0
H2461 H 0.15398 0.68943 0.07502 0.0
H2462 H 0.04276 0.51661 0.08298 0.0
H2463 H 0.2188 0.67928 0.13623 0.0
H2464 H 0.21864 0.71106 0.12144 0.0
H2465 H 0.08351 0.49922 0.08877 0.0
H2466 H 0.20469 0.72499 0.10317 0.0
N2467 N 0.17474 0.63884 0.1184 0.0
C2468 C 0.18258 0.63107 0.12866 0.0
C2469 C 0.20659 0.66813 0.13116 0.0
C2470 C 0.19877 0.6763 0.12079 0.0
C2471 C 0.19847 0.64544 0.13509 0.0
C2472 C 0.18276 0.66111 0.11446 0.0
H2473 H 0.18069 0.7172 0.08595 0.0
N2474 N 0.15955 0.65445 0.09811 0.0
C2475 C 0.15985 0.68406 0.08324 0.0
C2476 C 0.17481 0.66915 0.10413 0.0
C2477 C 0.15244 0.66141 0.08767 0.0
C2478 C 0.17495 0.69964 0.08942 0.0
C2479 C 0.1828 0.69224 0.09993 0.0
O2480 O 0.16096 0.5818 0.1001 0.0
O2481 O 0.11465 0.59034 0.1024 0.0
O2482 O 0.12917 0.56736 0.12686 0.0
O2483 O 0.16347 0.58704 0.11959 0.0
O2484 O 0.11861 0.61976 0.09203 0.0
O2485 O 0.17703 0.61616 0.09454 0.0
O2486 O 0.07859 0.5596 0.12685 0.0
O2487 O 0.12268 0.62072 0.12089 0.0
O2488 O 0.1196 0.65182 0.10677 0.0
O2489 O 0.08517 0.6354 0.1158 0.0
O2490 O 0.1164 0.60092 0.13492 0.0
O2491 O 0.06779 0.59632 0.13211 0.0
C2492 C 0.10625 0.59964 0.09329 0.0
C2493 C 0.17514 0.58324 0.08171 0.0
C2494 C 0.19111 0.55611 0.06721 0.0
C2495 C 0.19168 0.56485 0.0782 0.0
C2496 C 0.17299 0.56539 0.05994 0.0
C2497 C 0.1578 0.59275 0.0742 0.0
C2498 C 0.15645 0.58354 0.06345 0.0
C2499 C 0.15409 0.56943 0.12646 0.0
C2500 C 0.17615 0.59229 0.09318 0.0
C2501 C 0.1985 0.70723 0.10627 0.0
C2502 C 0.20646 0.69928 0.11665 0.0
C2503 C 0.12742 0.62018 0.13108 0.0
C2504 C 0.07437 0.56561 0.146 0.0
C2505 C 0.06722 0.5807 0.15483 0.0
C2506 C 0.07406 0.57483 0.16574 0.0
C2507 C 0.08817 0.5536 0.16783 0.0
C2508 C 0.08863 0.54432 0.14821 0.0
C2509 C 0.09555 0.5385 0.15905 0.0
C2510 C 0.09668 0.65538 0.11098 0.0
C2511 C 0.06796 0.57271 0.13451 0.0
H2512 H 0.20526 0.55771 0.08397 0.0
H2513 H 0.17226 0.5595 0.05137 0.0
H2514 H 0.14531 0.60732 0.07659 0.0
H2515 H 0.14289 0.59089 0.05774 0.0
H2516 H 0.05577 0.59678 0.15323 0.0
H2517 H 0.09323 0.54863 0.17621 0.0
H2518 H 0.0946 0.53218 0.14159 0.0
H2519 H 0.10651 0.52213 0.16065 0.0
Eu2520 Eu 0.21707 0.39018 0.84622 0.0
C2521 C 0.27891 0.31471 0.84444 0.0
C2522 C 0.2618 0.27547 0.83827 0.0
C2523 C 0.30319 0.28737 0.83262 0.0
C2524 C 0.25947 0.29771 0.84434 0.0
C2525 C 0.30088 0.3096 0.83852 0.0
C2526 C 0.28367 0.27046 0.83243 0.0
C2527 C 0.31637 0.34962 0.84401 0.0
N2528 N 0.27599 0.3366 0.84988 0.0
C2529 C 0.29432 0.35402 0.8497 0.0
C2530 C 0.31975 0.32728 0.83845 0.0
Eu2531 Eu 0.23937 0.33988 0.86057 0.0
N2532 N 0.23833 0.30289 0.85005 0.0
C2533 C 0.21972 0.28582 0.8506 0.0
C2534 C 0.24215 0.25868 0.83832 0.0
C2535 C 0.22113 0.2638 0.84458 0.0
H2536 H 0.29208 0.37154 0.85378 0.0
H2537 H 0.20618 0.25052 0.84497 0.0
H2538 H 0.28571 0.25347 0.82775 0.0
H2539 H 0.33074 0.36354 0.84387 0.0
H2540 H 0.20398 0.28845 0.85595 0.0
H2541 H 0.19397 0.45381 0.88091 0.0
H2542 H 0.24325 0.24147 0.83374 0.0
H2543 H 0.18627 0.38292 0.82196 0.0
H2544 H 0.21879 0.4239 0.87129 0.0
H2545 H 0.14716 0.39532 0.81355 0.0
H2546 H 0.31997 0.28317 0.82809 0.0
H2547 H 0.15437 0.46792 0.87311 0.0
H2548 H 0.12348 0.46618 0.85797 0.0
H2549 H 0.33681 0.32404 0.83397 0.0
H2550 H 0.11047 0.44997 0.83993 0.0
N2551 N 0.19504 0.4207 0.85705 0.0
C2552 C 0.20246 0.43004 0.8671 0.0
C2553 C 0.16563 0.45489 0.86851 0.0
C2554 C 0.15795 0.44573 0.85828 0.0
C2555 C 0.18798 0.44705 0.87291 0.0
C2556 C 0.17322 0.4286 0.8526 0.0
H2557 H 0.11902 0.42367 0.82345 0.0
N2558 N 0.18043 0.40295 0.83701 0.0
C2559 C 0.152 0.40204 0.82171 0.0
C2560 C 0.16565 0.4193 0.84242 0.0
C2561 C 0.17419 0.39481 0.82663 0.0
C2562 C 0.13622 0.41807 0.82731 0.0
C2563 C 0.14301 0.42713 0.83771 0.0
O2564 O 0.2528 0.40403 0.84055 0.0
O2565 O 0.24323 0.35721 0.84346 0.0
O2566 O 0.26316 0.37292 0.86861 0.0
O2567 O 0.24642 0.40692 0.85974 0.0
O2568 O 0.21567 0.36151 0.83212 0.0
O2569 O 0.21918 0.4196 0.83385 0.0
O2570 O 0.26872 0.32484 0.87086 0.0
O2571 O 0.21105 0.36814 0.86093 0.0
O2572 O 0.18144 0.36359 0.84633 0.0
O2573 O 0.19551 0.33054 0.857 0.0
O2574 O 0.22705 0.36142 0.87584 0.0
O2575 O 0.23164 0.31021 0.87238 0.0
C2576 C 0.23506 0.34853 0.83416 0.0
C2577 C 0.25417 0.41849 0.8222 0.0
C2578 C 0.28109 0.43759 0.80849 0.0
C2579 C 0.27031 0.43746 0.81908 0.0
C2580 C 0.27625 0.4179 0.80119 0.0
C2581 C 0.24876 0.39948 0.81467 0.0
C2582 C 0.26012 0.39897 0.80429 0.0
C2583 C 0.26242 0.39776 0.86744 0.0
C2584 C 0.24319 0.41903 0.8333 0.0
C2585 C 0.12791 0.44391 0.84342 0.0
C2586 C 0.13535 0.45317 0.85367 0.0
C2587 C 0.20997 0.37384 0.87099 0.0
C2588 C 0.25365 0.31944 0.88894 0.0
C2589 C 0.23229 0.31655 0.89537 0.0
C2590 C 0.23079 0.32656 0.9061 0.0
C2591 C 0.25125 0.33914 0.91049 0.0
C2592 C 0.27411 0.33184 0.89354 0.0
C2593 C 0.27283 0.34164 0.90423 0.0
C2594 C 0.17657 0.34167 0.85135 0.0
C2595 C 0.25334 0.31254 0.87706 0.0
H2596 H 0.27418 0.45233 0.82485 0.0
H2597 H 0.28412 0.41765 0.79294 0.0
H2598 H 0.23574 0.38514 0.81675 0.0
H2599 H 0.25604 0.38413 0.79856 0.0
H2600 H 0.21676 0.30637 0.892 0.0
H2601 H 0.25062 0.34685 0.91876 0.0
H2602 H 0.29088 0.33453 0.88879 0.0
H2603 H 0.28856 0.35136 0.90765 0.0
Eu2604 Eu 0.43904 0.47363 0.60143 0.0
C2605 C 0.52157 0.52566 0.60126 0.0
C2606 C 0.56073 0.50484 0.59829 0.0
C2607 C 0.55278 0.54436 0.58941 0.0
C2608 C 0.53698 0.50558 0.60314 0.0
C2609 C 0.52946 0.54541 0.59449 0.0
C2610 C 0.56834 0.52409 0.59127 0.0
C2611 C 0.4905 0.56575 0.59816 0.0
N2612 N 0.49875 0.52579 0.60596 0.0
C2613 C 0.48336 0.54564 0.60469 0.0
C2614 C 0.5136 0.5656 0.59298 0.0
Eu2615 Eu 0.4889 0.492 0.6176 0.0
N2616 N 0.52916 0.48725 0.61001 0.0
C2617 C 0.54519 0.46906 0.61323 0.0
C2618 C 0.57642 0.48511 0.60088 0.0
C2619 C 0.56875 0.46736 0.60852 0.0
H2620 H 0.46541 0.5458 0.60859 0.0
H2621 H 0.58113 0.45258 0.61093 0.0
H2622 H 0.58643 0.52371 0.58742 0.0
H2623 H 0.47813 0.58129 0.59706 0.0
H2624 H 0.54003 0.45592 0.61956 0.0
H2625 H 0.34319 0.47963 0.61598 0.0
H2626 H 0.59478 0.48387 0.59732 0.0
H2627 H 0.45552 0.4312 0.5813 0.0
H2628 H 0.38298 0.49545 0.60957 0.0
H2629 H 0.44608 0.38846 0.57635 0.0
H2630 H 0.55906 0.55924 0.5841 0.0
H2631 H 0.33462 0.43493 0.61528 0.0
H2632 H 0.34876 0.3923 0.61024 0.0
H2633 H 0.51898 0.58109 0.58783 0.0
H2634 H 0.37774 0.36688 0.59948 0.0
N2635 N 0.39931 0.45978 0.60734 0.0
C2636 C 0.38072 0.47571 0.61027 0.0
C2637 C 0.35291 0.4416 0.61318 0.0
C2638 C 0.3711 0.4255 0.60922 0.0
C2639 C 0.35763 0.46686 0.61355 0.0
C2640 C 0.39416 0.4354 0.60596 0.0
H2641 H 0.41341 0.36564 0.58632 0.0
N2642 N 0.42957 0.4329 0.5947 0.0
C2643 C 0.43599 0.39736 0.58299 0.0
C2644 C 0.41002 0.42138 0.59953 0.0
C2645 C 0.44129 0.42181 0.58589 0.0
C2646 C 0.41767 0.3845 0.58868 0.0
C2647 C 0.40374 0.39676 0.59674 0.0
O2648 O 0.43346 0.50947 0.59335 0.0
O2649 O 0.47484 0.49577 0.59976 0.0
O2650 O 0.45622 0.51812 0.6247 0.0
O2651 O 0.42236 0.5012 0.61608 0.0
O2652 O 0.46935 0.46873 0.58828 0.0
O2653 O 0.41196 0.47795 0.58822 0.0
O2654 O 0.49448 0.52404 0.62815 0.0
O2655 O 0.45168 0.47729 0.61812 0.0
O2656 O 0.46278 0.43596 0.60452 0.0
O2657 O 0.49855 0.44928 0.61333 0.0
O2658 O 0.47645 0.45957 0.6285 0.0
O2659 O 0.51326 0.48993 0.6321 0.0
C2660 C 0.484 0.48667 0.5907 0.0
C2661 C 0.42 0.50835 0.57477 0.0
C2662 C 0.40333 0.53248 0.55936 0.0
C2663 C 0.40531 0.52771 0.57081 0.0
C2664 C 0.41882 0.51891 0.55212 0.0
C2665 C 0.43501 0.49505 0.56743 0.0
C2666 C 0.43485 0.5008 0.55619 0.0
C2667 C 0.43138 0.51794 0.62355 0.0
C2668 C 0.41729 0.501 0.58638 0.0
C2669 C 0.38254 0.38589 0.60134 0.0
C2670 C 0.36606 0.40034 0.60749 0.0
C2671 C 0.4538 0.46058 0.62521 0.0
C2672 C 0.50063 0.51568 0.64697 0.0
C2673 C 0.51909 0.52038 0.65472 0.0
C2674 C 0.51323 0.52393 0.66595 0.0
C2675 C 0.48835 0.52361 0.66928 0.0
C2676 C 0.47584 0.5147 0.65044 0.0
C2677 C 0.46974 0.5191 0.66152 0.0
C2678 C 0.4855 0.43053 0.60868 0.0
C2679 C 0.50783 0.51226 0.63534 0.0
H2680 H 0.39469 0.53818 0.57678 0.0
H2681 H 0.418 0.52123 0.54324 0.0
H2682 H 0.44637 0.47991 0.57032 0.0
H2683 H 0.44635 0.49038 0.55051 0.0
H2684 H 0.53822 0.51999 0.65202 0.0
H2685 H 0.4834 0.52603 0.67791 0.0
H2686 H 0.46121 0.51039 0.64469 0.0
H2687 H 0.45061 0.51844 0.66413 0.0
H2688 H 0.17335 0.25899 0.39735 0.0
H2689 H 0.13718 0.28487 0.40048 0.0
H2690 H 0.16509 0.30459 0.43269 0.0
H2691 H 0.20133 0.27888 0.42968 0.0
H2692 H 0.10914 0.31149 0.42825 0.0
H2693 H 0.17488 0.35338 0.39779 0.0
H2694 H 0.16043 0.32419 0.39479 0.0
H2695 H 0.18356 0.3261 0.40542 0.0
C2696 C 0.17113 0.2677 0.40537 0.0
C2697 C 0.19061 0.2677 0.41312 0.0
C2698 C 0.15029 0.28231 0.40715 0.0
C2699 C 0.14901 0.29708 0.41663 0.0
C2700 C 0.16599 0.29338 0.42525 0.0
H2701 H 0.13327 0.42039 0.45161 0.0
H2702 H 0.1365 0.38114 0.44255 0.0
C2703 C 0.18683 0.27873 0.4235 0.0
C2704 C 0.13666 0.32125 0.41613 0.0
H2705 H 0.15219 0.38015 0.40891 0.0
C2706 C 0.11782 0.32648 0.42372 0.0
C2707 C 0.14779 0.34071 0.41004 0.0
C2708 C 0.1678 0.33601 0.40154 0.0
C2709 C 0.11161 0.35101 0.42621 0.0
C2710 C 0.12549 0.37038 0.42135 0.0
C2711 C 0.14204 0.36516 0.41278 0.0
C2712 C 0.12634 0.39516 0.42638 0.0
C2713 C 0.09132 0.356 0.43449 0.0
C2714 C 0.12265 0.41659 0.42008 0.0
C2715 C 0.12218 0.43966 0.42529 0.0
C2716 C 0.125 0.44149 0.43682 0.0
C2717 C 0.13086 0.42015 0.44283 0.0
C2718 C 0.13208 0.39732 0.43764 0.0
H2719 H 0.07733 0.34096 0.43445 0.0
H2720 H 0.09936 0.35686 0.44292 0.0
H2721 H 0.08198 0.3739 0.43278 0.0
H2722 H 0.11904 0.41539 0.41127 0.0
H2723 H 0.1178 0.45591 0.42043 0.0
H2724 H 0.05558 0.94202 0.64279 0.0
H2725 H 1.03236 0.90735 0.64923 0.0
H2726 H 1.03904 0.93296 0.68284 0.0
H2727 H 0.06504 0.96696 0.67673 0.0
H2728 H 1.02586 0.87904 0.67963 0.0
H2729 H 0.96763 0.94715 0.65666 0.0
H2730 H 0.99238 0.93295 0.64906 0.0
H2731 H 0.99924 0.95361 0.6603 0.0
C2732 C 0.05369 0.94018 0.65164 0.0
C2733 C 0.06087 0.95901 0.65914 0.0
C2734 C 1.04021 0.91986 0.6553 0.0
C2735 C 1.03299 0.91844 0.66638 0.0
C2736 C 0.0439 0.93426 0.67415 0.0
H2737 H 0.915 0.88929 0.70823 0.0
H2738 H 0.95424 0.8932 0.69903 0.0
C2739 C 0.05823 0.95419 0.67056 0.0
C2740 C 1.00927 0.90663 0.66915 0.0
H2741 H 0.94736 0.91673 0.66661 0.0
C2742 C 1.00864 0.88689 0.67665 0.0
C2743 C 0.98689 0.91705 0.66522 0.0
C2744 C 0.98639 0.93895 0.65743 0.0
C2745 C 0.98601 0.87778 0.68063 0.0
C2746 C 0.96375 0.88921 0.67716 0.0
C2747 C 0.96445 0.90796 0.66919 0.0
C2748 C 0.9399 0.8848 0.68273 0.0
C2749 C 0.98622 0.85643 0.68868 0.0
C2750 C 0.91837 0.88021 0.67657 0.0
C2751 C 0.89543 0.87893 0.68185 0.0
C2752 C 0.89372 0.88206 0.69339 0.0
C2753 C 0.91535 0.88685 0.69942 0.0
C2754 C 0.9381 0.88853 0.69416 0.0
H2755 H 1.00226 0.84406 0.68714 0.0
H2756 H 0.98803 0.86369 0.69724 0.0
H2757 H 0.96896 0.84538 0.68816 0.0
H2758 H 0.91932 0.87776 0.66767 0.0
H2759 H 0.87915 0.87498 0.67694 0.0
H2760 H 0.40432 0.81834 0.92782 0.0
H2761 H 0.44274 0.79726 0.93133 0.0
H2762 H 0.45877 0.79612 0.89645 0.0
H2763 H 0.41954 0.81412 0.89259 0.0
H2764 H 0.43595 0.75504 0.90269 0.0
H2765 H 0.51107 0.76999 0.93304 0.0
H2766 H 0.48375 0.78731 0.93635 0.0
H2767 H 0.50017 0.79403 0.92379 0.0
C2768 C 0.41587 0.81376 0.92081 0.0
C2769 C 0.40683 0.81493 0.90988 0.0
C2770 C 0.43866 0.8026 0.92289 0.0
C2771 C 0.45276 0.7934 0.91404 0.0
C2772 C 0.44751 0.80208 0.90338 0.0
H2773 H 0.47373 0.63279 0.92034 0.0
H2774 H 0.47513 0.67356 0.91171 0.0
C2775 C 0.42426 0.81201 0.90121 0.0
C2776 C 0.46191 0.76773 0.91508 0.0
H2777 H 0.49073 0.72983 0.93351 0.0
C2778 C 0.44872 0.74957 0.90916 0.0
C2779 C 0.47838 0.76042 0.92351 0.0
C2780 C 0.49438 0.77893 0.92946 0.0
C2781 C 0.44925 0.72476 0.9123 0.0
C2782 C 0.46396 0.71781 0.9214 0.0
C2783 C 0.4791 0.73544 0.92664 0.0
C2784 C 0.46196 0.69294 0.92624 0.0
C2785 C 0.4323 0.70671 0.90648 0.0
C2786 C 0.45342 0.69033 0.93711 0.0
C2787 C 0.45275 0.6671 0.94205 0.0
C2788 C 0.46026 0.646 0.93618 0.0
C2789 C 0.46723 0.64863 0.92502 0.0
C2790 C 0.46833 0.67191 0.92011 0.0
H2791 H 0.41858 0.71618 0.90111 0.0
H2792 H 0.44347 0.69423 0.90117 0.0
H2793 H 0.42213 0.69517 0.91258 0.0
H2794 H 0.44811 0.7064 0.94193 0.0
H2795 H 0.44785 0.66638 0.9506 0.0
H2796 H 0.66688 0.23111 0.19677 0.0
H2797 H 0.63048 0.2071 0.19183 0.0
H2798 H 0.67486 0.1408 0.19098 0.0
H2799 H 0.71165 0.16528 0.1956 0.0
H2800 H 0.64508 0.13962 0.17533 0.0
H2801 H 0.58984 0.16691 0.21177 0.0
H2802 H 0.59527 0.19346 0.20327 0.0
H2803 H 0.62089 0.17811 0.20983 0.0
C2804 C 0.66872 0.21129 0.1958 0.0
C2805 C 0.69153 0.19949 0.19747 0.0
C2806 C 0.64789 0.19759 0.19302 0.0
C2807 C 0.64956 0.17186 0.19182 0.0
C2808 C 0.67288 0.16045 0.19247 0.0
H2809 H 0.5409 0.05946 0.17558 0.0
H2810 H 0.57215 0.08228 0.1861 0.0
C2811 C 0.69379 0.17425 0.19524 0.0
C2812 C 0.62726 0.1571 0.18927 0.0
H2813 H 0.56696 0.1476 0.19664 0.0
C2814 C 0.62819 0.14108 0.18013 0.0
C2815 C 0.60508 0.15911 0.1955 0.0
C2816 C 0.60286 0.17517 0.20569 0.0
C2817 C 0.60743 0.12756 0.17686 0.0
C2818 C 0.58521 0.13015 0.18288 0.0
C2819 C 0.58419 0.14575 0.19211 0.0
C2820 C 0.5626 0.11778 0.17908 0.0
C2821 C 0.6091 0.11109 0.16678 0.0
C2822 C 0.54634 0.13059 0.17212 0.0
C2823 C 0.52858 0.11766 0.1661 0.0
C2824 C 0.52692 0.09181 0.16701 0.0
C2825 C 0.54172 0.0794 0.17479 0.0
C2826 C 0.55956 0.09235 0.18077 0.0
H2827 H 0.62731 0.1125 0.16257 0.0
H2828 H 0.60617 0.09155 0.16928 0.0
H2829 H 0.59436 0.116 0.16077 0.0
H2830 H 0.5486 0.15025 0.17073 0.0
H2831 H 0.5172 0.12761 0.16021 0.0
H2832 H 0.15999 0.82331 0.17576 0.0
H2833 H 0.12207 0.7989 0.17517 0.0
H2834 H 0.14148 0.77336 0.14244 0.0
H2835 H 0.17887 0.79795 0.14286 0.0
H2836 H 0.09042 0.76863 0.14714 0.0
H2837 H 0.14814 0.7298 0.18132 0.0
H2838 H 0.13399 0.75974 0.18262 0.0
H2839 H 0.16003 0.75553 0.17352 0.0
C2840 C 0.15556 0.81335 0.16823 0.0
C2841 C 0.17285 0.8117 0.1595 0.0
C2842 C 0.13384 0.79946 0.16792 0.0
C2843 C 0.12963 0.78347 0.159 0.0
C2844 C 0.1446 0.78533 0.14951 0.0
H2845 H 0.13806 0.66746 0.12451 0.0
H2846 H 0.12876 0.70534 0.13425 0.0
C2847 C 0.16613 0.79938 0.14976 0.0
C2848 C 0.11558 0.7603 0.16043 0.0
H2849 H 0.13195 0.70213 0.16843 0.0
C2850 C 0.09846 0.7541 0.15218 0.0
C2851 C 0.1255 0.74131 0.16722 0.0
C2852 C 0.14287 0.74677 0.1767 0.0
C2853 C 0.09473 0.72936 0.1492 0.0
C2854 C 0.10869 0.71075 0.15454 0.0
C2855 C 0.12194 0.7166 0.16413 0.0
C2856 C 0.11448 0.68718 0.14892 0.0
C2857 C 0.07808 0.72364 0.13957 0.0
C2858 C 0.11157 0.66436 0.15426 0.0
C2859 C 0.11772 0.64244 0.14875 0.0
C2860 C 0.12681 0.64307 0.1378 0.0
C2861 C 0.13109 0.66609 0.13283 0.0
C2862 C 0.12517 0.68787 0.13834 0.0
H2863 H 0.06229 0.73677 0.13924 0.0
H2864 H 0.08878 0.72583 0.1318 0.0
H2865 H 0.07088 0.70442 0.13998 0.0
H2866 H 0.10405 0.6635 0.16257 0.0
H2867 H 0.11423 0.62499 0.15287 0.0
H2868 H 0.71105 0.92466 0.37604 0.0
H2869 H 0.67601 0.95091 0.38131 0.0
H2870 H 0.62697 0.88829 0.37829 0.0
H2871 H 0.66195 0.86224 0.37314 0.0
H2872 H 0.60853 0.92553 0.36742 0.0
H2873 H 0.63787 0.95821 0.40884 0.0
H2874 H 0.66008 0.96602 0.39841 0.0
H2875 H 0.65406 0.93401 0.40157 0.0
C2876 C 0.69268 0.91677 0.37636 0.0
C2877 C 0.68873 0.89203 0.37351 0.0
C2878 C 0.67277 0.93157 0.37955 0.0
C2879 C 0.6488 0.92166 0.37998 0.0
C2880 C 0.64522 0.89647 0.37775 0.0
H2881 H 0.51228 0.96777 0.40545 0.0
H2882 H 0.54363 0.946 0.39452 0.0
C2883 C 0.66514 0.88167 0.37473 0.0
C2884 C 0.62722 0.93758 0.38226 0.0
H2885 H 0.60319 0.97843 0.40087 0.0
C2886 C 0.60743 0.9372 0.37471 0.0
C2887 C 0.62573 0.95259 0.39183 0.0
C2888 C 0.64546 0.95255 0.40067 0.0
C2889 C 0.58619 0.95148 0.37648 0.0
C2890 C 0.58485 0.96641 0.386 0.0
C2891 C 0.60467 0.96715 0.39346 0.0
C2892 C 0.56213 0.97941 0.3892 0.0
C2893 C 0.56519 0.95039 0.3683 0.0
C2894 C 0.56169 1.00531 0.38932 0.0
C2895 C 0.54369 1.01774 0.39545 0.0
C2896 C 0.52636 1.00426 0.40165 0.0
C2897 C 0.52549 0.97842 0.40069 0.0
C2898 C 0.54328 0.96604 0.39444 0.0
H2899 H 0.57056 0.94079 0.36052 0.0
H2900 H 0.54942 0.94031 0.37208 0.0
H2901 H 0.55875 0.96936 0.36628 0.0
H2902 H 0.57636 1.0158 0.38541 0.0
H2903 H 0.54479 1.03768 0.3962 0.0
H2904 H 0.41076 0.47416 0.63488 0.0
H2905 H 0.37753 0.44695 0.64133 0.0
H2906 H 0.41851 0.38369 0.62937 0.0
H2907 H 0.45249 0.41059 0.62402 0.0
H2908 H 0.34706 0.41979 0.63248 0.0
H2909 H 0.40083 0.35721 0.65827 0.0
H2910 H 0.41408 0.38545 0.65301 0.0
H2911 H 0.41599 0.35705 0.64512 0.0
C2912 C 0.41264 0.45437 0.63379 0.0
C2913 C 0.43393 0.44431 0.62891 0.0
C2914 C 0.39373 0.43886 0.63748 0.0
C2915 C 0.39576 0.41314 0.63616 0.0
C2916 C 0.41693 0.40331 0.631 0.0
H2917 H 0.32782 0.27842 0.63543 0.0
H2918 H 0.34216 0.31805 0.62863 0.0
C2919 C 0.43619 0.41871 0.62773 0.0
C2920 C 0.37532 0.39641 0.6394 0.0
H2921 H 0.36518 0.33815 0.64898 0.0
C2922 C 0.35116 0.40182 0.63586 0.0
C2923 C 0.37993 0.37381 0.6449 0.0
C2924 C 0.40408 0.3683 0.65066 0.0
C2925 C 0.33252 0.38379 0.63609 0.0
C2926 C 0.33819 0.36027 0.64034 0.0
C2927 C 0.3614 0.35589 0.64513 0.0
C2928 C 0.32063 0.33955 0.64026 0.0
C2929 C 0.30737 0.38951 0.63137 0.0
C2930 C 0.30167 0.33888 0.64815 0.0
C2931 C 0.29287 0.31612 0.65188 0.0
C2932 C 0.30379 0.29407 0.64804 0.0
C2933 C 0.31929 0.295 0.63871 0.0
C2934 C 0.32763 0.31773 0.63482 0.0
H2935 H 0.30674 0.40795 0.62733 0.0
H2936 H 0.3021 0.37518 0.62522 0.0
H2937 H 0.29342 0.38914 0.63811 0.0
H2938 H 0.29597 0.35558 0.65241 0.0
H2939 H 0.28014 0.31587 0.65881 0.0
H2940 H 1.04142 0.13667 0.9311 0.0
H2941 H 1.01613 0.17047 0.92498 0.0
H2942 H 1.03252 0.15277 0.89098 0.0
H2943 H 0.06056 0.12011 0.89697 0.0
H2944 H 1.01815 0.20432 0.89512 0.0
H2945 H 0.95427 0.13419 0.91326 0.0
H2946 H 0.97661 0.14713 0.92258 0.0
H2947 H 0.98669 0.12811 0.91122 0.0
C2948 C 1.04116 0.14044 0.92231 0.0
C2949 C 0.05253 0.12457 0.91451 0.0
C2950 C 1.02635 0.15996 0.91885 0.0
C2951 C 1.02178 0.16336 0.90757 0.0
C2952 C 1.03556 0.15002 0.89976 0.0
H2953 H 0.91284 0.1986 0.86216 0.0
H2954 H 0.95023 0.19341 0.87263 0.0
C2955 C 0.05115 0.13095 0.90322 0.0
C2956 C 0.9989 0.17579 0.90408 0.0
H2957 H 0.93653 0.16707 0.90382 0.0
C2958 C 1.00024 0.19652 0.89715 0.0
C2959 C 0.97561 0.16539 0.90676 0.0
C2960 C 0.97307 0.14238 0.91379 0.0
C2961 C 0.97876 0.20671 0.89251 0.0
C2962 C 0.95565 0.19552 0.8948 0.0
C2963 C 0.95428 0.17567 0.90219 0.0
C2964 C 0.93319 0.20141 0.88846 0.0
C2965 C 0.98107 0.22892 0.88502 0.0
C2966 C 0.91082 0.20653 0.89389 0.0
C2967 C 0.88898 0.20885 0.88783 0.0
C2968 C 0.88921 0.20604 0.87626 0.0
C2969 C 0.91172 0.201 0.87094 0.0
C2970 C 0.9334 0.19842 0.87696 0.0
H2971 H 0.99719 0.2405 0.88739 0.0
H2972 H 0.9841 0.22256 0.87638 0.0
H2973 H 0.96413 0.24052 0.88523 0.0
H2974 H 0.91024 0.20842 0.90282 0.0
H2975 H 0.87196 0.21298 0.89219 0.0
H2976 H 0.85088 0.80874 0.64247 0.0
H2977 H 0.88414 0.78419 0.63443 0.0
H2978 H 0.93177 0.80364 0.66167 0.0
H2979 H 0.89873 0.82882 0.66968 0.0
H2980 H 0.94565 0.7856 0.63225 0.0
H2981 H 0.89847 0.72882 0.66464 0.0
H2982 H 0.88293 0.75485 0.65843 0.0
H2983 H 0.90826 0.75991 0.66772 0.0
C2984 C 0.86883 0.80898 0.64644 0.0
C2985 C 0.87204 0.82002 0.65686 0.0
C2986 C 0.88786 0.79498 0.64182 0.0
C2987 C 0.91011 0.7919 0.64759 0.0
C2988 C 0.91463 0.80586 0.65714 0.0
H2989 H 0.9726 0.64316 0.64187 0.0
H2990 H 0.964 0.68421 0.64951 0.0
C2991 C 0.89566 0.82 0.66174 0.0
C2992 C 0.92453 0.76937 0.64549 0.0
H2993 H 0.92354 0.70813 0.65199 0.0
C2994 C 0.94133 0.76869 0.63668 0.0
C2995 C 0.91897 0.74754 0.65143 0.0
C2996 C 0.90118 0.74758 0.66109 0.0
C2997 C 0.95191 0.74622 0.63329 0.0
C2998 C 0.94455 0.72403 0.63861 0.0
C2999 C 0.929 0.72511 0.64787 0.0
C3000 C 0.95048 0.69937 0.63407 0.0
C3001 C 0.97052 0.74652 0.62396 0.0
C3002 C 0.94495 0.694 0.62301 0.0
C3003 C 0.9502 0.67081 0.61866 0.0
C3004 C 0.9598 0.65192 0.62533 0.0
C3005 C 0.9645 0.6571 0.63654 0.0
C3006 C 0.95987 0.68059 0.64089 0.0
H3007 H 0.98129 0.76402 0.62398 0.0
H3008 H 0.9836 0.73073 0.6245 0.0
H3009 H 0.96064 0.7455 0.61592 0.0
H3010 H 0.9368 0.70785 0.61766 0.0
H3011 H 0.94723 0.6684 0.61002 0.0
H3012 H 1.02229 0.13909 0.38978 0.0
H3013 H 0.05213 0.17252 0.38816 0.0
H3014 H 1.03079 0.19996 0.42031 0.0
H3015 H 1.0001 0.16691 0.42183 0.0
H3016 H 0.06056 0.22861 0.39377 0.0
H3017 H 0.09838 0.15819 0.42307 0.0
H3018 H 0.0716 0.15095 0.4148 0.0
H3019 H 0.06924 0.17315 0.42579 0.0
C3020 C 1.02274 0.15313 0.39618 0.0
C3021 C 1.00962 0.14996 0.4061 0.0
C3022 C 1.03989 0.17224 0.39527 0.0
C3023 C 0.04404 0.18814 0.40427 0.0
C3024 C 1.02795 0.18764 0.41335 0.0
H3025 H 0.20474 0.20884 0.40065 0.0
H3026 H 0.16451 0.21042 0.41011 0.0
C3027 C 1.01052 0.16871 0.4142 0.0
C3028 C 0.06874 0.19931 0.40525 0.0
H3029 H 0.1267 0.18 0.41218 0.0
C3030 C 0.07503 0.2187 0.39813 0.0
C3031 C 0.08753 0.18661 0.41112 0.0
C3032 C 0.08154 0.16606 0.41915 0.0
C3033 C 0.09985 0.22384 0.39577 0.0
C3034 C 0.11852 0.20851 0.40032 0.0
C3035 C 0.11232 0.19138 0.40854 0.0
C3036 C 0.14313 0.20651 0.39506 0.0
C3037 C 0.10557 0.24441 0.38776 0.0
C3038 C 0.14441 0.20195 0.38367 0.0
C3039 C 0.16708 0.20099 0.37834 0.0
C3040 C 0.18917 0.20408 0.38423 0.0
C3041 C 0.18801 0.20659 0.39583 0.0
C3042 C 0.16509 0.20767 0.40123 0.0
H3043 H 0.09368 0.2607 0.3895 0.0
H3044 H 0.12522 0.25023 0.38815 0.0
H3045 H 0.10132 0.23806 0.37923 0.0
H3046 H 0.12775 0.19958 0.3788 0.0
H3047 H 0.16697 0.19853 0.36954 0.0
H3048 H 0.60457 0.41117 0.12221 0.0
H3049 H 0.63152 0.3773 0.12791 0.0
H3050 H 0.69174 0.42886 0.13198 0.0
H3051 H 0.66466 0.46278 0.1261 0.0
H3052 H 0.67224 0.36024 0.1181 0.0
H3053 H 0.6945 0.39235 0.16054 0.0
H3054 H 0.67067 0.40656 0.15228 0.0
H3055 H 0.70263 0.41463 0.15018 0.0
C3056 C 0.6237 0.41514 0.1241 0.0
C3057 C 0.63315 0.43917 0.12309 0.0
C3058 C 0.639 0.39586 0.12744 0.0
C3059 C 0.66371 0.40053 0.13022 0.0
C3060 C 0.67275 0.42485 0.12982 0.0
H3061 H 0.78382 0.30129 0.14685 0.0
H3062 H 0.75925 0.33165 0.13653 0.0
C3063 C 0.65749 0.4441 0.1263 0.0
C3064 C 0.68002 0.37977 0.13328 0.0
H3065 H 0.71748 0.35809 0.15377 0.0
C3066 C 0.68228 0.35985 0.12586 0.0
C3067 C 0.69274 0.37917 0.1435 0.0
C3068 C 0.68984 0.3992 0.15213 0.0
C3069 C 0.69717 0.33941 0.12836 0.0
C3070 C 0.70988 0.33899 0.13852 0.0
C3071 C 0.70779 0.35884 0.14591 0.0
C3072 C 0.72409 0.31738 0.14215 0.0
C3073 C 0.6991 0.31825 0.12028 0.0
C3074 C 0.71219 0.29902 0.14835 0.0
C3075 C 0.72609 0.28187 0.15428 0.0
C3076 C 0.75202 0.28293 0.15403 0.0
C3077 C 0.76384 0.30003 0.14706 0.0
C3078 C 0.7499 0.31734 0.1412 0.0
H3079 H 0.68942 0.32221 0.11237 0.0
H3080 H 0.71885 0.31422 0.11851 0.0
H3081 H 0.69093 0.30138 0.12404 0.0
H3082 H 0.69224 0.29905 0.1492 0.0
H3083 H 0.71667 0.26878 0.1596 0.0
H3084 H 0.423 0.88674 0.86905 0.0
H3085 H 0.46221 0.88533 0.87815 0.0
H3086 H 0.42613 0.86844 0.90908 0.0
H3087 H 0.3858 0.8708 0.89983 0.0
H3088 H 0.46286 0.89844 0.91236 0.0
H3089 H 0.49884 0.82441 0.88618 0.0
H3090 H 0.49023 0.84887 0.87699 0.0
H3091 H 0.46688 0.8339 0.8853 0.0
C3092 C 0.42293 0.88299 0.87773 0.0
C3093 C 0.40096 0.87842 0.88353 0.0
C3094 C 0.44569 0.88171 0.88297 0.0
C3095 C 0.44725 0.8752 0.89416 0.0
C3096 C 0.42538 0.87258 0.90031 0.0
H3097 H 0.58812 0.92062 0.92066 0.0
H3098 H 0.55986 0.88542 0.91922 0.0
C3099 C 0.40237 0.87414 0.89503 0.0
C3100 C 0.47198 0.87298 0.89929 0.0
H3101 H 0.53058 0.85693 0.89173 0.0
C3102 C 0.47763 0.88852 0.90821 0.0
C3103 C 0.4912 0.85945 0.89408 0.0
C3104 C 0.48627 0.84052 0.88519 0.0
C3105 C 0.50225 0.89394 0.91085 0.0
C3106 C 0.52144 0.88347 0.90436 0.0
C3107 C 0.51581 0.86518 0.89657 0.0
C3108 C 0.54521 0.89654 0.90334 0.0
C3109 C 0.50744 0.91315 0.91964 0.0
C3110 C 0.54799 0.91281 0.89436 0.0
C3111 C 0.56384 0.93302 0.89521 0.0
C3112 C 0.57702 0.93698 0.90503 0.0
C3113 C 0.5776 0.91817 0.9131 0.0
C3114 C 0.56154 0.89805 0.9123 0.0
H3115 H 0.49035 0.91941 0.92391 0.0
H3116 H 0.52021 0.90542 0.92594 0.0
H3117 H 0.51652 0.92952 0.91586 0.0
H3118 H 0.53561 0.91175 0.88733 0.0
H3119 H 0.56315 0.94709 0.88883 0.0
H3120 H 0.8362 0.27588 0.92344 0.0
H3121 H 0.86673 0.2998 0.93391 0.0
H3122 H 0.90244 0.32099 0.90345 0.0
H3123 H 0.87195 0.29898 0.89298 0.0
H3124 H 0.93488 0.31608 0.92255 0.0
H3125 H 0.8514 0.37557 0.92796 0.0
H3126 H 0.8497 0.3444 0.9331 0.0
H3127 H 0.85198 0.34981 0.91847 0.0
C3128 C 0.85082 0.28523 0.91898 0.0
C3129 C 0.85097 0.286 0.90733 0.0
C3130 C 0.86838 0.29859 0.92498 0.0
C3131 C 0.88634 0.3124 0.91935 0.0
C3132 C 0.88861 0.31039 0.90789 0.0
H3133 H 0.94604 0.45838 0.93395 0.0
H3134 H 0.92552 0.42333 0.9246 0.0
C3135 C 0.87099 0.29752 0.9019 0.0
C3136 C 0.89916 0.33296 0.92476 0.0
H3137 H 0.88942 0.39217 0.93336 0.0
C3138 C 0.92502 0.33259 0.92514 0.0
C3139 C 0.88608 0.35472 0.92759 0.0
C3140 C 0.85827 0.3564 0.92671 0.0
C3141 C 0.93825 0.35352 0.92847 0.0
C3142 C 0.9251 0.37505 0.93158 0.0
C3143 C 0.89929 0.37552 0.93101 0.0
C3144 C 0.93759 0.39624 0.93666 0.0
C3145 C 0.96616 0.35254 0.92843 0.0
C3146 C 0.95041 0.39248 0.94651 0.0
C3147 C 0.9619 0.41209 0.95171 0.0
C3148 C 0.9601 0.43612 0.94744 0.0
C3149 C 0.94711 0.44006 0.93755 0.0
C3150 C 0.93566 0.42016 0.9322 0.0
H3151 H 0.97314 0.33859 0.92243 0.0
H3152 H 0.97427 0.37081 0.92633 0.0
H3153 H 0.97277 0.34712 0.93678 0.0
H3154 H 0.95144 0.37428 0.95025 0.0
H3155 H 0.97178 0.4079 0.9591 0.0
H3156 H 0.57547 0.10315 0.68532 0.0
H3157 H 0.55185 0.1385 0.69191 0.0
H3158 H 0.55398 0.1707 0.65938 0.0
H3159 H 0.57376 0.13489 0.6523 0.0
H3160 H 0.53914 0.19795 0.68725 0.0
H3161 H 0.48814 0.12333 0.66485 0.0
H3162 H 0.51806 0.11804 0.67089 0.0
H3163 H 0.51535 0.13543 0.65828 0.0
C3164 C 0.57132 0.1178 0.67952 0.0
C3165 C 0.57479 0.1146 0.66803 0.0
C3166 C 0.55844 0.13845 0.68344 0.0
C3167 C 0.55026 0.15644 0.67594 0.0
C3168 C 0.55976 0.15659 0.66521 0.0
H3169 H 0.39857 0.21292 0.67307 0.0
H3170 H 0.4412 0.20313 0.66752 0.0
C3171 C 0.57134 0.13553 0.66115 0.0
C3172 C 0.52569 0.16737 0.67758 0.0
H3173 H 0.46515 0.15665 0.67133 0.0
C3174 C 0.52294 0.1891 0.68375 0.0
C3175 C 0.50469 0.15561 0.67292 0.0
C3176 C 0.50654 0.13175 0.66641 0.0
C3177 C 0.49938 0.19925 0.68554 0.0
C3178 C 0.47846 0.18716 0.68103 0.0
C3179 C 0.48138 0.16591 0.6746 0.0
C3180 C 0.45315 0.19401 0.68412 0.0
C3181 C 0.49692 0.22251 0.69235 0.0
C3182 C 0.44574 0.19089 0.69507 0.0
C3183 C 0.4216 0.19598 0.69813 0.0
C3184 C 0.40405 0.20389 0.69038 0.0
C3185 C 0.41147 0.20634 0.67927 0.0
C3186 C 0.43581 0.20117 0.67612 0.0
H3187 H 0.51444 0.23321 0.69248 0.0
H3188 H 0.48188 0.2345 0.68914 0.0
H3189 H 0.49229 0.21745 0.70102 0.0
H3190 H 0.45868 0.18454 0.70131 0.0
H3191 H 0.41741 0.19411 0.70665 0.0
H3192 H 0.75209 0.81873 0.4248 0.0
H3193 H 0.73066 0.78648 0.43542 0.0
H3194 H 0.76616 0.73033 0.41559 0.0
H3195 H 0.78742 0.76243 0.40497 0.0
H3196 H 0.69953 0.75398 0.42145 0.0
H3197 H 0.76552 0.70192 0.44794 0.0
H3198 H 0.7709 0.73357 0.44377 0.0
H3199 H 0.77568 0.70881 0.43409 0.0
C3200 C 0.75601 0.79946 0.42305 0.0
C3201 C 0.77116 0.79282 0.41412 0.0
C3202 C 0.74379 0.78115 0.42907 0.0
C3203 C 0.74701 0.75618 0.42627 0.0
C3204 C 0.7638 0.74953 0.41795 0.0
H3205 H 0.67116 0.61949 0.44276 0.0
H3206 H 0.70052 0.65042 0.43585 0.0
C3207 C 0.77581 0.76779 0.41188 0.0
C3208 C 0.72967 0.73755 0.43046 0.0
H3209 H 0.72633 0.68379 0.4448 0.0
C3210 C 0.70514 0.73885 0.42679 0.0
C3211 C 0.7375 0.71749 0.43699 0.0
C3212 C 0.76381 0.71531 0.44101 0.0
C3213 C 0.68805 0.72043 0.4295 0.0
C3214 C 0.69557 0.70072 0.43644 0.0
C3215 C 0.72034 0.69922 0.43984 0.0
C3216 C 0.67792 0.6819 0.44049 0.0
C3217 C 0.66256 0.72182 0.42443 0.0
C3218 C 0.65566 0.68927 0.44547 0.0
C3219 C 0.63858 0.67168 0.44894 0.0
C3220 C 0.64423 0.64647 0.44823 0.0
C3221 C 0.66673 0.63895 0.44357 0.0
C3222 C 0.68341 0.65656 0.43962 0.0
H3223 H 0.66295 0.73172 0.41637 0.0
H3224 H 0.65459 0.70315 0.42306 0.0
H3225 H 0.65016 0.73237 0.43003 0.0
H3226 H 0.65133 0.70865 0.44661 0.0
H3227 H 0.6211 0.67791 0.45223 0.0
H3228 H 0.20163 0.87231 0.1684 0.0
H3229 H 0.16201 0.86883 0.15878 0.0
H3230 H 0.12386 0.88611 0.18921 0.0
H3231 H 0.16263 0.88828 0.19875 0.0
H3232 H 0.10438 0.84579 0.17984 0.0
H3233 H 0.11512 0.91984 0.14798 0.0
H3234 H 0.13726 0.8951 0.14792 0.0
H3235 H 0.13671 0.9167 0.15924 0.0
C3236 C 0.18477 0.87574 0.173 0.0
C3237 C 0.18549 0.88028 0.18448 0.0
C3238 C 0.16213 0.87379 0.16746 0.0
C3239 C 0.1399 0.87684 0.17331 0.0
C3240 C 0.14073 0.88306 0.18456 0.0
H3241 H 1.01944 0.93778 0.18066 0.0
H3242 H 0.04614 0.90183 0.18171 0.0
C3243 C 0.16318 0.88462 0.19005 0.0
C3244 C 0.11539 0.87375 0.16807 0.0
H3245 H 0.07569 0.9049 0.1513 0.0
C3246 C 0.09815 0.85826 0.17338 0.0
C3247 C 0.10741 0.8894 0.15941 0.0
C3248 C 0.12497 0.9063 0.15331 0.0
C3249 C 0.07275 0.86072 0.1714 0.0
C3250 C 0.06463 0.87871 0.16379 0.0
C3251 C 0.08205 0.89125 0.15723 0.0
C3252 C 1.04001 0.89033 0.16474 0.0
C3253 C 0.0547 0.84573 0.17813 0.0
C3254 C 1.02592 0.89448 0.15519 0.0
C3255 C 1.01033 0.91502 0.15463 0.0
C3256 C 1.00927 0.93188 0.16352 0.0
C3257 C 1.02004 0.92529 0.17366 0.0
C3258 C 1.0353 0.90453 0.17427 0.0
H3259 H 0.06309 0.82805 0.18094 0.0
H3260 H 0.04926 0.85642 0.18558 0.0
H3261 H 1.03773 0.84172 0.17328 0.0
H3262 H 1.02926 0.88374 0.14776 0.0
H3263 H 1.00156 0.91934 0.14679 0.0
H3264 H 0.666 0.96911 0.93308 0.0
H3265 H 0.69916 0.9416 0.9268 0.0
H3266 H 0.6605 0.87954 0.94127 0.0
H3267 H 0.62633 0.90647 0.9462 0.0
H3268 H 0.7309 0.91752 0.93556 0.0
H3269 H 0.67765 0.84758 0.91374 0.0
H3270 H 0.66347 0.87608 0.91816 0.0
H3271 H 0.66367 0.84926 0.92712 0.0
C3272 C 0.66456 0.94947 0.9347 0.0
C3273 C 0.64388 0.93978 0.94018 0.0
C3274 C 0.68346 0.93377 0.93113 0.0
C3275 C 0.68215 0.90826 0.93326 0.0
C3276 C 0.66153 0.89885 0.93898 0.0
H3277 H 0.76014 0.77579 0.93457 0.0
H3278 H 0.74104 0.81366 0.94123 0.0
C3279 C 0.64217 0.91435 0.94205 0.0
C3280 C 0.70296 0.89156 0.9304 0.0
H3281 H 0.71487 0.832 0.923 0.0
C3282 C 0.72721 0.89868 0.93313 0.0
C3283 C 0.69884 0.86765 0.92603 0.0
C3284 C 0.67452 0.85995 0.92096 0.0
C3285 C 0.74665 0.88151 0.93321 0.0
C3286 C 0.74175 0.85694 0.93003 0.0
C3287 C 0.71818 0.85055 0.92611 0.0
C3288 C 0.76079 0.83747 0.92987 0.0
C3289 C 0.77198 0.88953 0.93699 0.0
C3290 C 0.78013 0.83884 0.92218 0.0
C3291 C 0.79166 0.81722 0.91859 0.0
C3292 C 0.78315 0.79411 0.92235 0.0
C3293 C 0.7669 0.79327 0.93141 0.0
C3294 C 0.75579 0.81494 0.93518 0.0
H3295 H 0.77137 0.90726 0.94162 0.0
H3296 H 0.78058 0.87519 0.94233 0.0
H3297 H 0.78402 0.89221 0.92965 0.0
H3298 H 0.78424 0.85601 0.91795 0.0
H3299 H 0.80472 0.81835 0.9118 0.0
H3300 H 0.42382 0.38826 0.21392 0.0
H3301 H 0.46262 0.40226 0.20688 0.0
H3302 H 0.4357 0.39379 0.17352 0.0
H3303 H 0.39576 0.3793 0.18074 0.0
H3304 H 0.49491 0.37486 0.19175 0.0
H3305 H 0.46259 0.46647 0.17638 0.0
H3306 H 0.4449 0.44818 0.18604 0.0
H3307 H 0.44551 0.43993 0.17166 0.0
C3308 C 0.42546 0.38941 0.20516 0.0
C3309 C 0.40607 0.38309 0.19798 0.0
C3310 C 0.44807 0.3974 0.2011 0.0
C3311 C 0.45198 0.39892 0.18972 0.0
C3312 C 0.43285 0.39281 0.18239 0.0
H3313 H 0.55989 0.44802 0.14818 0.0
H3314 H 0.53916 0.4164 0.15829 0.0
C3315 C 0.41007 0.38479 0.18651 0.0
C3316 C 0.47612 0.40733 0.18566 0.0
H3317 H 0.50423 0.45594 0.17305 0.0
C3318 C 0.49707 0.39255 0.18763 0.0
C3319 C 0.47866 0.43055 0.1805 0.0
C3320 C 0.45681 0.44737 0.17857 0.0
C3321 C 0.52066 0.40034 0.18427 0.0
C3322 C 0.52301 0.42338 0.17898 0.0
C3323 C 0.50213 0.43825 0.17719 0.0
C3324 C 0.54637 0.43236 0.17433 0.0
C3325 C 0.54284 0.38408 0.18622 0.0
C3326 C 0.5598 0.45024 0.18015 0.0
C3327 C 0.57263 0.46855 0.17435 0.0
C3328 C 0.57098 0.46976 0.1627 0.0
C3329 C 0.56133 0.44893 0.15708 0.0
C3330 C 0.54935 0.43029 0.16289 0.0
H3331 H 0.53806 0.36707 0.1909 0.0
H3332 H 0.55105 0.37872 0.17813 0.0
H3333 H 0.55714 0.39454 0.19086 0.0
H3334 H 0.55794 0.45182 0.18905 0.0
H3335 H 0.58147 0.48302 0.17909 0.0
H3336 H 0.92229 0.11284 0.43244 0.0
H3337 H 0.88797 0.13634 0.42441 0.0
H3338 H 0.91665 0.20293 0.43945 0.0
H3339 H 0.95161 0.17968 0.44683 0.0
H3340 H 0.85207 0.15867 0.43307 0.0
H3341 H 0.90227 0.22911 0.40981 0.0
H3342 H 0.91773 0.20205 0.41514 0.0
H3343 H 0.91492 0.2297 0.42348 0.0
C3344 C 0.92124 0.13256 0.43388 0.0
C3345 C 0.9392 0.14462 0.44028 0.0
C3346 C 0.90177 0.14595 0.42927 0.0
C3347 C 0.90002 0.17151 0.43108 0.0
C3348 C 0.91813 0.18343 0.43753 0.0
H3349 H 0.81987 0.29694 0.43331 0.0
H3350 H 0.83637 0.25737 0.4391 0.0
C3351 C 0.9379 0.17016 0.44189 0.0
C3352 C 0.87833 0.18566 0.42716 0.0
H3353 H 0.86308 0.24323 0.41818 0.0
C3354 C 0.85449 0.17722 0.4299 0.0
C3355 C 0.88113 0.20902 0.42211 0.0
C3356 C 0.90541 0.21774 0.41734 0.0
C3357 C 0.83404 0.19317 0.42945 0.0
C3358 C 0.83765 0.21756 0.42575 0.0
C3359 C 0.86076 0.2248 0.42159 0.0
C3360 C 0.81827 0.23658 0.42614 0.0
C3361 C 0.80918 0.18451 0.43352 0.0
C3362 C 0.80036 0.23727 0.41779 0.0
C3363 C 0.79026 0.25993 0.41463 0.0
C3364 C 0.79891 0.28196 0.41951 0.0
C3365 C 0.81312 0.28045 0.42922 0.0
C3366 C 0.8227 0.25775 0.43254 0.0
H3367 H 0.80985 0.16534 0.43681 0.0
H3368 H 0.80239 0.19708 0.44014 0.0
H3369 H 0.79564 0.1852 0.42663 0.0
H3370 H 0.79662 0.22103 0.41281 0.0
H3371 H 0.77847 0.26051 0.40739 0.0
H3372 H 1.04112 0.56461 0.67593 0.0
H3373 H 0.06942 0.59235 0.68566 0.0
H3374 H 1.04089 0.65421 0.66712 0.0
H3375 H 1.01226 0.62664 0.65746 0.0
H3376 H 0.09301 0.63843 0.66343 0.0
H3377 H 0.06875 0.65406 0.70773 0.0
H3378 H 0.06489 0.62329 0.70227 0.0
H3379 H 0.04561 0.64784 0.69728 0.0
C3380 C 1.04005 0.58428 0.67432 0.0
C3381 C 1.02488 0.59351 0.66584 0.0
C3382 C 0.05622 0.60008 0.67987 0.0
C3383 C 0.0572 0.62517 0.67702 0.0
C3384 C 1.04026 0.63484 0.6694 0.0
H3385 H 0.16123 0.73592 0.69751 0.0
H3386 H 0.12466 0.7128 0.69209 0.0
C3387 C 1.02405 0.6191 0.66388 0.0
C3388 C 0.07894 0.63987 0.68011 0.0
H3389 H 0.10806 0.66775 0.70173 0.0
C3390 C 0.09637 0.64487 0.6718 0.0
C3391 C 0.08305 0.64808 0.69103 0.0
C3392 C 0.06458 0.64324 0.70013 0.0
C3393 C 0.11813 0.65778 0.67416 0.0
C3394 C 0.12249 0.6656 0.68513 0.0
C3395 C 0.10479 0.66109 0.69339 0.0
C3396 C 0.14487 0.67943 0.68814 0.0
C3397 C 0.13601 0.66331 0.66489 0.0
C3398 C 0.16839 0.66856 0.68738 0.0
C3399 C 0.18922 0.68149 0.69104 0.0
C3400 C 0.18652 0.70505 0.69564 0.0
C3401 C 0.16336 0.71672 0.69524 0.0
C3402 C 0.14254 0.70376 0.69188 0.0
H3403 H 0.12728 0.66108 0.65662 0.0
H3404 H 0.14331 0.68245 0.66559 0.0
H3405 H 0.15188 0.65034 0.66539 0.0
H3406 H 0.17055 0.65 0.68415 0.0
H3407 H 0.20737 0.67325 0.69021 0.0
H3408 H 0.61562 0.14407 0.64905 0.0
H3409 H 0.61919 0.18651 0.6561 0.0
H3410 H 0.64115 0.21107 0.62359 0.0
H3411 H 0.63579 0.17012 0.61661 0.0
H3412 H 0.65553 0.21901 0.65727 0.0
H3413 H 0.58528 0.25773 0.62938 0.0
H3414 H 0.58937 0.22478 0.63106 0.0
H3415 H 0.60802 0.24186 0.62128 0.0
C3416 C 0.62117 0.15863 0.64344 0.0
C3417 C 0.62495 0.15343 0.63215 0.0
C3418 C 0.62316 0.18282 0.64746 0.0
C3419 C 0.62921 0.20216 0.64023 0.0
C3420 C 0.6352 0.19666 0.62923 0.0
H3421 H 0.71076 0.31945 0.63538 0.0
H3422 H 0.67622 0.29157 0.63216 0.0
C3423 C 0.63262 0.17273 0.62522 0.0
C3424 C 0.63052 0.2281 0.64404 0.0
H3425 H 0.61865 0.28663 0.63488 0.0
C3426 C 0.64678 0.23385 0.65267 0.0
C3427 C 0.61864 0.24745 0.63817 0.0
C3428 C 0.59912 0.24254 0.62956 0.0
C3429 C 0.65377 0.25836 0.6547 0.0
C3430 C 0.64421 0.2774 0.64787 0.0
C3431 C 0.62605 0.27192 0.64001 0.0
C3432 C 0.65702 0.30134 0.64727 0.0
C3433 C 0.67312 0.26349 0.66342 0.0
C3434 C 0.65608 0.31782 0.65621 0.0
C3435 C 0.67571 0.33407 0.65798 0.0
C3436 C 0.69647 0.33345 0.65094 0.0
C3437 C 0.69512 0.32015 0.64098 0.0
C3438 C 0.67538 0.30412 0.63916 0.0
H3439 H 0.67913 0.24643 0.66778 0.0
H3440 H 0.6896 0.27225 0.65959 0.0
H3441 H 0.6656 0.27657 0.66966 0.0
H3442 H 0.64186 0.31602 0.66248 0.0
H3443 H 0.67617 0.34463 0.66561 0.0
H3444 H 0.16452 0.38462 0.86205 0.0
H3445 H 0.12586 0.39059 0.87153 0.0
H3446 H 0.16201 0.37713 0.9028 0.0
H3447 H 0.20169 0.37294 0.89323 0.0
H3448 H 0.09763 0.36224 0.88405 0.0
H3449 H 0.13142 0.44285 0.90841 0.0
H3450 H 0.14927 0.42931 0.89738 0.0
H3451 H 0.14832 0.41485 0.9108 0.0
C3452 C 0.16462 0.38337 0.8709 0.0
C3453 C 0.18649 0.37897 0.87682 0.0
C3454 C 0.14224 0.38641 0.87635 0.0
C3455 C 0.14104 0.38452 0.88788 0.0
C3456 C 0.16263 0.37926 0.89389 0.0
H3457 H 1.0301 0.44083 0.92864 0.0
H3458 H 0.04942 0.40447 0.92151 0.0
C3459 C 0.18527 0.3769 0.88841 0.0
C3460 C 0.11739 0.38983 0.89348 0.0
H3461 H 0.09028 0.43142 0.91077 0.0
C3462 C 0.09599 0.37713 0.89003 0.0
C3463 C 0.11534 0.40946 0.90115 0.0
C3464 C 0.13723 0.42507 0.90458 0.0
C3465 C 0.07245 0.38423 0.89378 0.0
C3466 C 0.07056 0.40405 0.90129 0.0
C3467 C 0.09199 0.41589 0.90512 0.0
C3468 C 0.0469 0.41555 0.9044 0.0
C3469 C 0.04979 0.3712 0.88949 0.0
C3470 C 1.03621 0.43238 0.89699 0.0
C3471 C 1.02442 0.45356 0.90103 0.0
C3472 C 1.02399 0.45837 0.9125 0.0
C3473 C 1.03037 0.43883 0.91974 0.0
C3474 C 1.04148 0.41747 0.91568 0.0
H3475 H 0.05449 0.35348 0.88533 0.0
H3476 H 1.03665 0.36751 0.89637 0.0
H3477 H 1.04029 0.38332 0.88342 0.0
H3478 H 1.03992 0.431 0.88819 0.0
H3479 H 1.01821 0.46724 0.89512 0.0
H3480 H 0.91717 0.97015 0.13363 0.0
H3481 H 0.88457 0.94072 0.13863 0.0
H3482 H 0.93213 0.88036 0.12874 0.0
H3483 H 0.96529 0.90946 0.12505 0.0
H3484 H 0.85848 0.91174 0.1282 0.0
H3485 H 0.90989 0.85258 0.15667 0.0
H3486 H 0.92255 0.88141 0.1518 0.0
H3487 H 0.92721 0.85314 0.14407 0.0
C3488 C 0.92057 0.95053 0.13266 0.0
C3489 C 0.94342 0.94195 0.12874 0.0
C3490 C 0.90203 0.93375 0.13553 0.0
C3491 C 0.90601 0.90821 0.13432 0.0
C3492 C 0.92884 0.89984 0.1302 0.0
H3493 H 0.8347 0.77041 0.13599 0.0
H3494 H 0.85453 0.80723 0.12858 0.0
C3495 C 0.94766 0.91652 0.12782 0.0
C3496 C 0.88604 0.8902 0.13665 0.0
H3497 H 0.87597 0.83249 0.14696 0.0
C3498 C 0.8625 0.89432 0.1321 0.0
C3499 C 0.89053 0.86808 0.14256 0.0
C3500 C 0.91384 0.86378 0.14916 0.0
C3501 C 0.84434 0.87589 0.13213 0.0
C3502 C 0.8497 0.8531 0.1372 0.0
C3503 C 0.87243 0.84966 0.14258 0.0
C3504 C 0.8317 0.8328 0.13783 0.0
C3505 C 0.8199 0.88063 0.12652 0.0
C3506 C 0.8109 0.83529 0.14465 0.0
C3507 C 0.79922 0.81424 0.14876 0.0
C3508 C 0.80872 0.79067 0.14627 0.0
C3509 C 0.82704 0.78833 0.13809 0.0
C3510 C 0.83852 0.80937 0.1339 0.0
H3511 H 0.82078 0.89682 0.12087 0.0
H3512 H 0.81392 0.86416 0.12172 0.0
H3513 H 0.80562 0.88445 0.1329 0.0
H3514 H 0.80546 0.85324 0.14781 0.0
H3515 H 0.78478 0.81644 0.1549 0.0
H3516 H 0.56668 0.64249 0.39622 0.0
H3517 H 0.53843 0.67583 0.3915 0.0
H3518 H 0.5187 0.68405 0.42587 0.0
H3519 H 0.54425 0.64962 0.4306 0.0
H3520 H 0.48296 0.66269 0.41321 0.0
H3521 H 0.5162 0.74835 0.39301 0.0
H3522 H 0.53115 0.72098 0.3879 0.0
H3523 H 0.53545 0.73002 0.40211 0.0
C3524 C 0.55666 0.65152 0.40284 0.0
C3525 C 0.55695 0.64201 0.4137 0.0
C3526 C 0.541 0.67116 0.40014 0.0
C3527 C 0.52616 0.68205 0.40834 0.0
C3528 C 0.52993 0.67573 0.41942 0.0
H3529 H 0.37119 0.71745 0.39283 0.0
H3530 H 0.40907 0.71486 0.40387 0.0
C3531 C 0.54484 0.65569 0.42209 0.0
C3532 C 0.50212 0.69271 0.40517 0.0
H3533 H 0.47476 0.73491 0.38824 0.0
C3534 C 0.48103 0.67894 0.40801 0.0
C3535 C 0.49984 0.7136 0.39828 0.0
C3536 C 0.52187 0.72923 0.39522 0.0
C3537 C 0.45794 0.68437 0.40349 0.0
C3538 C 0.45576 0.70468 0.39622 0.0
C3539 C 0.47655 0.71941 0.39389 0.0
C3540 C 0.43303 0.7086 0.38977 0.0
C3541 C 0.43661 0.66707 0.40584 0.0
C3542 C 0.43413 0.70639 0.37825 0.0
C3543 C 0.41273 0.70824 0.37198 0.0
C3544 C 0.38969 0.71192 0.37707 0.0
C3545 C 0.38862 0.71418 0.38866 0.0
C3546 C 0.4102 0.71279 0.39497 0.0
H3547 H 0.44277 0.64965 0.40986 0.0
H3548 H 0.42331 0.67629 0.41149 0.0
H3549 H 0.42672 0.66223 0.39807 0.0
H3550 H 0.45155 0.7029 0.37409 0.0
H3551 H 0.41449 0.70664 0.36317 0.0
H3552 H 0.34604 0.31631 0.14278 0.0
H3553 H 0.36048 0.27926 0.13338 0.0
H3554 H 0.31072 0.23474 0.15288 0.0
H3555 H 0.29531 0.27199 0.16209 0.0
H3556 H 0.38072 0.24556 0.15108 0.0
H3557 H 0.31676 0.19917 0.12143 0.0
H3558 H 0.31647 0.23235 0.12329 0.0
H3559 H 0.3046 0.21268 0.13397 0.0
C3560 C 0.33709 0.29889 0.14465 0.0
C3561 C 0.32 0.29693 0.15337 0.0
C3562 C 0.34547 0.27771 0.13929 0.0
C3563 C 0.33682 0.25443 0.14257 0.0
C3564 C 0.31749 0.25266 0.15024 0.0
H3565 H 0.41054 0.11424 0.12656 0.0
H3566 H 0.38001 0.14371 0.13378 0.0
C3567 C 0.30891 0.2739 0.15555 0.0
C3568 C 0.35205 0.23265 0.14013 0.0
H3569 H 0.35502 0.17999 0.12494 0.0
C3570 C 0.37524 0.23127 0.14527 0.0
C3571 C 0.34425 0.21369 0.13297 0.0
C3572 C 0.31918 0.21435 0.12754 0.0
C3573 C 0.39155 0.21194 0.14293 0.0
C3574 C 0.38465 0.19397 0.13502 0.0
C3575 C 0.36066 0.19435 0.13058 0.0
C3576 C 0.40271 0.17595 0.13065 0.0
C3577 C 0.41587 0.21097 0.14905 0.0
C3578 C 0.42531 0.18436 0.12635 0.0
C3579 C 0.44285 0.1676 0.12252 0.0
C3580 C 0.43752 0.14229 0.12237 0.0
C3581 C 0.41474 0.1338 0.1264 0.0
C3582 C 0.39741 0.15056 0.13056 0.0
H3583 H 0.41416 0.21933 0.15742 0.0
H3584 H 0.42267 0.1917 0.14996 0.0
H3585 H 0.42987 0.22185 0.14442 0.0
H3586 H 0.42949 0.20393 0.12602 0.0
H3587 H 0.46047 0.17447 0.11962 0.0
H3588 H 0.55133 0.57041 0.89134 0.0
H3589 H 0.59086 0.58984 0.88732 0.0
H3590 H 0.6246 0.54998 0.91427 0.0
H3591 H 0.58525 0.52941 0.91804 0.0
H3592 H 0.60477 0.61699 0.90833 0.0
H3593 H 0.68138 0.56069 0.89035 0.0
H3594 H 0.64955 0.55403 0.88695 0.0
H3595 H 0.66086 0.54756 0.90058 0.0
C3596 C 0.56743 0.56453 0.89597 0.0
C3597 C 0.56509 0.54902 0.90523 0.0
C3598 C 0.59 0.5758 0.89371 0.0
C3599 C 0.61033 0.57164 0.90066 0.0
C3600 C 0.60903 0.55338 0.90884 0.0
H3601 H 0.73498 0.6723 0.89046 0.0
H3602 H 0.71194 0.63998 0.90029 0.0
C3603 C 0.58652 0.5418 0.91101 0.0
C3604 C 0.62984 0.59047 0.9011 0.0
H3605 H 0.68861 0.60313 0.89303 0.0
C3606 C 0.62312 0.61402 0.90493 0.0
C3607 C 0.65407 0.58607 0.89735 0.0
C3608 C 0.66212 0.56075 0.89356 0.0
C3609 C 0.63924 0.63404 0.90394 0.0
C3610 C 0.66234 0.63037 0.89874 0.0
C3611 C 0.67033 0.60615 0.89642 0.0
C3612 C 0.67625 0.65132 0.89394 0.0
C3613 C 0.63104 0.65894 0.90823 0.0
C3614 C 0.66387 0.66834 0.88708 0.0
C3615 C 0.67691 0.68691 0.88165 0.0
C3616 C 0.70259 0.68807 0.88264 0.0
C3617 C 0.71511 0.67129 0.88949 0.0
C3618 C 0.70199 0.65301 0.89514 0.0
H3619 H 0.62023 0.65679 0.91599 0.0
H3620 H 0.64696 0.67137 0.90987 0.0
H3621 H 0.61868 0.66779 0.90206 0.0
H3622 H 0.6442 0.6668 0.8856 0.0
H3623 H 0.66706 0.69978 0.87638 0.0
H3624 H 0.23754 0.77539 0.6419 0.0
H3625 H 0.20482 0.80118 0.63426 0.0
H3626 H 0.15707 0.78153 0.66145 0.0
H3627 H 0.18949 0.75486 0.669 0.0
H3628 H 0.14218 0.79981 0.63267 0.0
H3629 H 0.19198 0.85667 0.6642 0.0
H3630 H 0.20751 0.83116 0.65754 0.0
H3631 H 0.18301 0.82527 0.66718 0.0
C3632 C 0.21964 0.77536 0.64593 0.0
C3633 C 0.21628 0.76375 0.65622 0.0
C3634 C 0.20094 0.79013 0.64155 0.0
C3635 C 0.17883 0.79344 0.64742 0.0
C3636 C 0.1741 0.77914 0.65684 0.0
H3637 H 0.11756 0.9429 0.64135 0.0
H3638 H 0.12646 0.90224 0.64936 0.0
C3639 C 0.19271 0.76415 0.66119 0.0
C3640 C 0.1646 0.81613 0.64544 0.0
H3641 H 0.167 0.87757 0.65153 0.0
C3642 C 0.1471 0.81679 0.63692 0.0
C3643 C 0.1709 0.83805 0.65116 0.0
C3644 C 0.18935 0.83799 0.66055 0.0
C3645 C 0.13661 0.8393 0.63356 0.0
C3646 C 0.14476 0.86157 0.63859 0.0
C3647 C 0.16096 0.86055 0.64762 0.0
C3648 C 0.139 0.88613 0.63392 0.0
C3649 C 0.1173 0.83899 0.62453 0.0
C3650 C 0.14391 0.89082 0.62274 0.0
C3651 C 0.13853 0.91377 0.61819 0.0
C3652 C 0.12951 0.93312 0.62479 0.0
C3653 C 0.1254 0.92863 0.6361 0.0
C3654 C 0.13016 0.90536 0.64065 0.0
H3655 H 0.10622 0.8217 0.62486 0.0
H3656 H 0.10455 0.85504 0.62517 0.0
H3657 H 0.12656 0.83952 0.61633 0.0
H3658 H 0.15157 0.87658 0.61744 0.0
H3659 H 0.14087 0.91564 0.60947 0.0
H3660 H 0.06488 0.48126 0.38603 0.0
H3661 H 0.04388 0.44311 0.38118 0.0
H3662 H 0.05578 0.41507 0.41407 0.0
H3663 H 0.07259 0.45374 0.41963 0.0
H3664 H 1.0383 0.38956 0.38344 0.0
H3665 H 0.98495 0.44428 0.41463 0.0
H3666 H 1.01284 0.45591 0.40844 0.0
H3667 H 1.01435 0.43259 0.41905 0.0
C3668 C 0.06319 0.46713 0.39231 0.0
C3669 C 0.06858 0.47207 0.40352 0.0
C3670 C 0.05182 0.44489 0.38937 0.0
C3671 C 0.04705 0.42705 0.39751 0.0
C3672 C 0.05854 0.42916 0.4078 0.0
H3673 H 0.89792 0.36369 0.39807 0.0
H3674 H 0.94049 0.371 0.40416 0.0
C3675 C 0.06846 0.45181 0.41095 0.0
C3676 C 1.02422 0.41236 0.39664 0.0
H3677 H 0.96417 0.41357 0.40524 0.0
C3678 C 1.02219 0.39435 0.38835 0.0
C3679 C 1.00318 0.41887 0.40305 0.0
C3680 C 1.00375 0.43905 0.41174 0.0
C3681 C 0.99929 0.3834 0.38598 0.0
C3682 C 0.9781 0.39103 0.39197 0.0
C3683 C 0.98052 0.40774 0.40073 0.0
C3684 C 0.95282 0.38511 0.38833 0.0
C3685 C 0.99789 0.36443 0.37683 0.0
C3686 C 0.94548 0.39159 0.37763 0.0
C3687 C 0.92138 0.38741 0.37421 0.0
C3688 C 0.90366 0.37756 0.38142 0.0
C3689 C 0.91094 0.37184 0.39231 0.0
C3690 C 0.93529 0.37565 0.39576 0.0
H3691 H 1.01548 0.35393 0.37615 0.0
H3692 H 0.98245 0.35124 0.37818 0.0
H3693 H 0.99489 0.374 0.36882 0.0
H3694 H 0.95842 0.39987 0.37187 0.0
H3695 H 0.91739 0.39134 0.3658 0.0
H3696 H 0.46579 0.91046 0.45214 0.0
H3697 H 0.43481 0.88009 0.44689 0.0
H3698 H 0.38617 0.93896 0.43637 0.0
H3699 H 0.41623 0.96949 0.44296 0.0
H3700 H 0.36012 0.90641 0.44542 0.0
H3701 H 0.42213 0.85674 0.41684 0.0
H3702 H 0.43486 0.85594 0.4305 0.0
H3703 H 0.43119 0.88516 0.42346 0.0
C3704 C 0.44828 0.91689 0.44896 0.0
C3705 C 0.443 0.94217 0.44821 0.0
C3706 C 0.43077 0.89952 0.44572 0.0
C3707 C 0.40845 0.90718 0.44091 0.0
C3708 C 0.40332 0.93259 0.44001 0.0
H3709 H 0.29768 0.83554 0.40396 0.0
H3710 H 0.31949 0.86476 0.41592 0.0
C3711 C 0.42041 0.94998 0.44376 0.0
C3712 C 0.39037 0.88867 0.43698 0.0
H3713 H 0.38462 0.83616 0.42157 0.0
C3714 C 0.36566 0.89088 0.44041 0.0
C3715 C 0.39729 0.86885 0.42996 0.0
C3716 C 0.42274 0.86672 0.42488 0.0
C3717 C 0.34788 0.87336 0.43742 0.0
C3718 C 0.35499 0.8534 0.43065 0.0
C3719 C 0.37955 0.8512 0.42708 0.0
C3720 C 0.33686 0.83637 0.42586 0.0
C3721 C 0.32164 0.87638 0.44144 0.0
C3722 C 0.33887 0.81089 0.42783 0.0
C3723 C 0.32634 0.79423 0.42105 0.0
C3724 C 0.31214 0.80304 0.41218 0.0
C3725 C 0.30858 0.82853 0.4108 0.0
C3726 C 0.32087 0.84515 0.41764 0.0
H3727 H 0.32057 0.88876 0.44877 0.0
H3728 H 0.31033 0.88466 0.43473 0.0
H3729 H 0.31344 0.85819 0.4436 0.0
H3730 H 0.3514 0.80394 0.43409 0.0
H3731 H 0.3294 0.77457 0.42214 0.0
H3732 H 0.87432 0.66304 0.19007 0.0
H3733 H 0.9128 0.63942 0.18799 0.0
H3734 H 0.95405 0.70757 0.18632 0.0
H3735 H 0.91582 0.7309 0.1885 0.0
H3736 H 0.94736 0.63418 0.17467 0.0
H3737 H 0.9895 0.67824 0.21144 0.0
H3738 H 0.9587 0.68582 0.20692 0.0
H3739 H 0.98505 0.70029 0.20056 0.0
C3740 C 0.89176 0.67276 0.1896 0.0
C3741 C 0.89259 0.69848 0.19049 0.0
C3742 C 0.91365 0.65941 0.18831 0.0
C3743 C 0.93651 0.67174 0.18796 0.0
C3744 C 0.93686 0.69761 0.18741 0.0
H3745 H 0.07633 0.62468 0.16836 0.0
H3746 H 0.04474 0.64903 0.17786 0.0
C3747 C 0.915 0.7109 0.18861 0.0
C3748 C 0.95984 0.6575 0.188 0.0
H3749 H 1.01673 0.65319 0.20019 0.0
C3750 C 0.96231 0.63811 0.18038 0.0
C3751 C 0.97949 0.66274 0.19544 0.0
C3752 C 0.97794 0.68277 0.20411 0.0
C3753 C 0.98405 0.62424 0.17976 0.0
C3754 C 1.00373 0.62977 0.18705 0.0
C3755 C 1.00135 0.6489 0.19476 0.0
C3756 C 1.02769 0.61739 0.18572 0.0
C3757 C 0.98616 0.60436 0.171 0.0
C3758 C 1.02971 0.59201 0.18788 0.0
C3759 C 0.04767 0.57807 0.18243 0.0
C3760 C 0.06355 0.58958 0.17482 0.0
C3761 C 0.06401 0.61549 0.17412 0.0
C3762 C 0.04606 0.6294 0.17956 0.0
H3763 H 0.9705 0.60479 0.16506 0.0
H3764 H 1.00368 0.60642 0.16629 0.0
H3765 H 0.98639 0.58593 0.17504 0.0
H3766 H 1.01563 0.58259 0.19268 0.0
H3767 H 0.04706 0.5581 0.1831 0.0
H3768 H 0.22967 0.31161 0.92761 0.0
H3769 H 0.19664 0.28741 0.93592 0.0
H3770 H 0.14928 0.30383 0.9082 0.0
H3771 H 0.18213 0.32857 0.89988 0.0
H3772 H 0.13719 0.28491 0.93844 0.0
H3773 H 0.1844 0.23154 0.90485 0.0
H3774 H 0.19827 0.25909 0.9105 0.0
H3775 H 0.17142 0.26144 0.90186 0.0
C3776 C 0.21179 0.31136 0.92358 0.0
C3777 C 0.20872 0.32122 0.91292 0.0
C3778 C 0.19286 0.29757 0.92837 0.0
C3779 C 0.17087 0.2935 0.92251 0.0
C3780 C 0.16624 0.30675 0.91278 0.0
H3781 H 0.11935 0.14105 0.92976 0.0
H3782 H 0.12453 0.1822 0.92169 0.0
C3783 C 0.18514 0.32066 0.908 0.0
C3784 C 0.15762 0.27028 0.92461 0.0
H3785 H 0.16231 0.20925 0.91798 0.0
C3786 C 0.14208 0.26838 0.93384 0.0
C3787 C 0.16392 0.24889 0.91846 0.0
C3788 C 0.18043 0.25011 0.90837 0.0
C3789 C 0.13372 0.2452 0.93746 0.0
C3790 C 0.14216 0.22361 0.93196 0.0
C3791 C 0.15614 0.22579 0.92225 0.0
C3792 C 0.13902 0.19866 0.9367 0.0
C3793 C 0.11637 0.24412 0.94725 0.0
C3794 C 0.14646 0.19399 0.9476 0.0
C3795 C 0.1432 0.17068 0.9522 0.0
C3796 C 0.13372 0.15113 0.94588 0.0
C3797 C 0.1275 0.15556 0.93477 0.0
C3798 C 0.1301 0.17911 0.9302 0.0
H3799 H 0.10434 0.26077 0.94754 0.0
H3800 H 0.10446 0.2274 0.94698 0.0
H3801 H 0.12729 0.2438 0.95502 0.0
H3802 H 0.1543 0.20853 0.95266 0.0
H3803 H 0.14714 0.16875 0.96081 0.0
H3804 H 0.51543 0.49619 0.68465 0.0
H3805 H 0.5537 0.47962 0.69216 0.0
H3806 H 0.59561 0.53124 0.67246 0.0
H3807 H 0.55729 0.54873 0.6653 0.0
H3808 H 0.57921 0.46015 0.67305 0.0
H3809 H 0.64187 0.51794 0.69892 0.0
H3810 H 0.60871 0.52222 0.69901 0.0
H3811 H 0.62668 0.53252 0.6874 0.0
C3812 C 0.53266 0.50519 0.68249 0.0
C3813 C 0.53354 0.52314 0.67411 0.0
C3814 C 0.55456 0.49557 0.68675 0.0
C3815 C 0.57737 0.50388 0.68266 0.0
C3816 C 0.57818 0.52462 0.67573 0.0
H3817 H 0.71799 0.4229 0.68635 0.0
H3818 H 0.68779 0.45497 0.68147 0.0
C3819 C 0.55625 0.53449 0.67159 0.0
C3820 C 0.59865 0.48697 0.68299 0.0
H3821 H 0.65767 0.48038 0.69191 0.0
C3822 C 0.59623 0.46431 0.67743 0.0
C3823 C 0.62126 0.49321 0.68802 0.0
C3824 C 0.62493 0.51774 0.69373 0.0
C3825 C 0.6154 0.447 0.67733 0.0
C3826 C 0.63726 0.45217 0.68331 0.0
C3827 C 0.64044 0.47578 0.68797 0.0
C3828 C 0.65581 0.43269 0.68566 0.0
C3829 C 0.61209 0.42372 0.67058 0.0
C3830 C 0.64799 0.40962 0.68971 0.0
C3831 C 0.6651 0.39113 0.69202 0.0
C3832 C 0.69041 0.39593 0.6911 0.0
C3833 C 0.69845 0.41906 0.68729 0.0
C3834 C 0.68124 0.43729 0.68449 0.0
H3835 H 0.6009 0.42747 0.66305 0.0
H3836 H 0.63008 0.41571 0.66796 0.0
H3837 H 0.60186 0.40983 0.67555 0.0
H3838 H 0.6286 0.40585 0.69114 0.0
H3839 H 0.65846 0.3733 0.69474 0.0
H3840 H 0.15564 0.2785 0.37098 0.0
H3841 H 0.11273 0.29431 0.37101 0.0
H3842 H 0.09379 0.24264 0.34544 0.0
H3843 H 0.13639 0.22657 0.34557 0.0
H3844 H 0.06308 0.27784 0.37559 0.0
H3845 H 0.05963 0.30175 0.33131 0.0
H3846 H 0.0682 0.27019 0.33395 0.0
H3847 H 0.08845 0.29479 0.33818 0.0
C3848 C 0.14272 0.2703 0.36521 0.0
C3849 C 0.15154 0.25073 0.35817 0.0
C3850 C 0.11722 0.27963 0.36525 0.0
C3851 C 0.09785 0.27074 0.35812 0.0
C3852 C 0.10675 0.2512 0.35108 0.0
H3853 H 0.94964 0.35798 0.347 0.0
H3854 H 0.99225 0.34175 0.34714 0.0
C3855 C 0.13208 0.24159 0.35118 0.0
C3856 C 0.06936 0.2813 0.35809 0.0
H3857 H 1.02191 0.30469 0.34109 0.0
C3858 C 0.05454 0.28355 0.3679 0.0
C3859 C 0.05595 0.2896 0.34841 0.0
C3860 C 0.06877 0.28925 0.33735 0.0
C3861 C 1.02884 0.29255 0.36827 0.0
C3862 C 1.0153 0.30067 0.35856 0.0
C3863 C 1.03037 0.29891 0.34879 0.0
C3864 C 0.98667 0.31104 0.35838 0.0
C3865 C 1.01658 0.29351 0.37945 0.0
C3866 C 0.96625 0.30037 0.36438 0.0
C3867 C 0.94081 0.30978 0.36416 0.0
C3868 C 0.9329 0.331 0.35794 0.0
C3869 C 0.95324 0.34168 0.35194 0.0
C3870 C 0.97859 0.33205 0.35204 0.0
H3871 H 1.0304 0.29499 0.38622 0.0
H3872 H 1.00363 0.30934 0.38011 0.0
H3873 H 1.00599 0.27618 0.38074 0.0
H3874 H 0.96971 0.28406 0.36931 0.0
H3875 H 0.92712 0.30016 0.36907 0.0
H3876 H 0.976 0.70029 0.59244 0.0
H3877 H 0.99177 0.74293 0.5925 0.0
H3878 H 0.05503 0.71894 0.61105 0.0
H3879 H 1.03971 0.67629 0.61056 0.0
H3880 H 1.0003 0.78258 0.60148 0.0
H3881 H 0.09913 0.76219 0.59654 0.0
H3882 H 0.07621 0.73837 0.59499 0.0
H3883 H 0.08677 0.74744 0.6086 0.0
C3884 C 0.99362 0.70356 0.59642 0.0
C3885 C 1.00614 0.68274 0.60126 0.0
C3886 C 1.00295 0.729 0.59652 0.0
C3887 C 1.02593 0.73664 0.60147 0.0
C3888 C 1.0381 0.71577 0.60655 0.0
H3889 H 0.11312 0.88561 0.59176 0.0
H3890 H 0.09746 0.84289 0.592 0.0
C3891 C 1.02884 0.69028 0.6064 0.0
C3892 C 1.03616 0.7654 0.60143 0.0
H3893 H 0.08926 0.80325 0.60118 0.0
C3894 C 1.01994 0.78645 0.60138 0.0
C3895 C 0.06183 0.77326 0.60111 0.0
C3896 C 0.08205 0.75424 0.6002 0.0
C3897 C 1.02772 0.81255 0.60117 0.0
C3898 C 0.0534 0.82041 0.60131 0.0
C3899 C 0.06962 0.79937 0.60121 0.0
C3900 C 0.0636 0.84918 0.60122 0.0
C3901 C 1.00747 0.83156 0.60033 0.0
C3902 C 0.05155 0.87006 0.60638 0.0
C3903 C 0.06073 0.89555 0.60611 0.0
C3904 C 0.08321 0.90313 0.60078 0.0
C3905 C 0.09565 0.88231 0.59588 0.0
C3906 C 0.08638 0.85684 0.59609 0.0
H3907 H 0.99031 0.82355 0.59677 0.0
H3908 H 1.00293 0.83845 0.60874 0.0
H3909 H 1.01318 0.84737 0.59506 0.0
H3910 H 1.0348 0.86687 0.61102 0.0
H3911 H 0.04998 0.90954 0.61035 0.0
H3912 H 0.45749 0.85959 0.8485 0.0
H3913 H 0.49972 0.84262 0.84874 0.0
H3914 H 0.47494 0.78353 0.86971 0.0
H3915 H 0.43275 0.8 0.86908 0.0
H3916 H 0.53963 0.83458 0.85772 0.0
H3917 H 0.51655 0.73579 0.85654 0.0
H3918 H 0.49329 0.75903 0.85432 0.0
H3919 H 0.50252 0.75069 0.86821 0.0
C3920 C 0.46052 0.84268 0.8531 0.0
C3921 C 0.43962 0.8317 0.85858 0.0
C3922 C 0.4857 0.8326 0.85329 0.0
C3923 C 0.49299 0.81033 0.85896 0.0
C3924 C 0.47202 0.79969 0.86464 0.0
H3925 H 0.6396 0.71731 0.85199 0.0
H3926 H 0.59734 0.73413 0.85172 0.0
C3927 C 0.44681 0.8097 0.86441 0.0
C3928 C 0.52151 0.79933 0.85911 0.0
H3929 H 0.55799 0.74531 0.86054 0.0
C3930 C 0.54299 0.81488 0.85833 0.0
C3931 C 0.52873 0.77347 0.85968 0.0
C3932 C 0.50916 0.75369 0.85962 0.0
C3933 C 0.56888 0.80636 0.85826 0.0
C3934 C 0.57613 0.78057 0.85931 0.0
C3935 C 0.55464 0.765 0.8599 0.0
C3936 C 0.60468 0.76957 0.85948 0.0
C3937 C 0.58836 0.82586 0.85655 0.0
C3938 C 0.62603 0.78202 0.864 0.0
C3939 C 0.65128 0.77207 0.864 0.0
C3940 C 0.65818 0.74833 0.85963 0.0
C3941 C 0.63688 0.73561 0.85536 0.0
C3942 C 0.61165 0.74561 0.85528 0.0
H3943 H 0.58068 0.84251 0.8524 0.0
H3944 H 0.59561 0.83177 0.86472 0.0
H3945 H 0.60385 0.81875 0.85142 0.0
H3946 H 0.62345 0.79977 0.86792 0.0
H3947 H 0.66565 0.78335 0.86765 0.0
H3948 H 0.53222 0.17666 0.1102 0.0
H3949 H 0.54723 0.21967 0.11047 0.0
H3950 H 0.48157 0.2426 0.09335 0.0
H3951 H 0.46613 0.2003 0.09389 0.0
H3952 H 0.56508 0.25665 0.10257 0.0
H3953 H 0.47592 0.30361 0.10756 0.0
H3954 H 0.47846 0.27065 0.10903 0.0
H3955 H 0.47562 0.28455 0.09545 0.0
C3956 C 0.52051 0.19066 0.10654 0.0
C3957 C 0.49722 0.18294 0.10195 0.0
C3958 C 0.52946 0.21631 0.10666 0.0
C3959 C 0.51618 0.23722 0.10222 0.0
C3960 C 0.4931 0.22918 0.09746 0.0
H3961 H 0.60845 0.38508 0.09413 0.0
H3962 H 0.59287 0.34288 0.09352 0.0
C3963 C 0.48404 0.20368 0.09749 0.0
C3964 C 0.52645 0.26602 0.1024 0.0
H3965 H 0.50927 0.32899 0.10248 0.0
C3966 C 0.5523 0.27207 0.10257 0.0
C3967 C 0.51156 0.28842 0.10271 0.0
C3968 C 0.48389 0.28663 0.1038 0.0
C3969 C 0.56278 0.29721 0.10284 0.0
C3970 C 0.5479 0.31961 0.10247 0.0
C3971 C 0.52204 0.31356 0.10252 0.0
C3972 C 0.5582 0.34839 0.10234 0.0
C3973 C 0.59041 0.299 0.10407 0.0
C3974 C 0.54493 0.36935 0.10678 0.0
C3975 C 0.55399 0.39498 0.1067 0.0
C3976 C 0.57735 0.40259 0.10215 0.0
C3977 C 0.59049 0.38178 0.0977 0.0
C3978 C 0.58135 0.35634 0.09762 0.0
H3979 H 0.59826 0.28204 0.10789 0.0
H3980 H 0.59893 0.30098 0.09576 0.0
H3981 H 0.59571 0.31501 0.1093 0.0
H3982 H 0.52711 0.36604 0.11056 0.0
H3983 H 0.54232 0.40904 0.11036 0.0
H3984 H 0.91975 0.78881 0.20278 0.0
H3985 H 0.96258 0.80455 0.20238 0.0
H3986 H 0.98756 0.73738 0.21764 0.0
H3987 H 0.94528 0.72161 0.21759 0.0
H3988 H 1.00013 0.82163 0.21173 0.0
H3989 H 0.04607 0.73483 0.20038 0.0
H3990 H 1.01296 0.73772 0.20004 0.0
H3991 H 1.0287 0.73105 0.21289 0.0
C3992 C 0.93414 0.77696 0.20603 0.0
C3993 C 0.92706 0.75312 0.21024 0.0
C3994 C 0.95964 0.78632 0.20582 0.0
C3995 C 0.98095 0.77282 0.20968 0.0
C3996 C 0.9736 0.74915 0.21403 0.0
H3997 H 0.15055 0.80462 0.19799 0.0
H3998 H 0.1076 0.78921 0.19777 0.0
C3999 C 0.94823 0.73983 0.21421 0.0
C4000 C 1.00956 0.78336 0.20938 0.0
H4001 H 0.07234 0.76675 0.20661 0.0
C4002 C 1.01554 0.80909 0.2106 0.0
C4003 C 1.03181 0.76879 0.20763 0.0
C4004 C 1.0297 0.74164 0.20504 0.0
C4005 C 1.04062 0.81967 0.21043 0.0
C4006 C 0.06293 0.80492 0.20929 0.0
C4007 C 0.05692 0.77928 0.20777 0.0
C4008 C 0.09158 0.81533 0.20941 0.0
C4009 C 0.04245 0.84741 0.21105 0.0
C4010 C 0.10026 0.83579 0.21599 0.0
C4011 C 0.12566 0.84505 0.21602 0.0
C4012 C 0.14556 0.83464 0.20968 0.0
C4013 C 0.13719 0.81397 0.2032 0.0
C4014 C 0.11164 0.80481 0.20309 0.0
H4015 H 1.02533 0.85642 0.20796 0.0
H4016 H 0.04489 0.85302 0.21982 0.0
H4017 H 0.05826 0.85445 0.20612 0.0
H4018 H 0.08739 0.84485 0.22149 0.0
H4019 H 0.12972 0.86073 0.22129 0.0
H4020 H 0.47241 0.88505 0.47554 0.0
H4021 H 0.48877 0.84266 0.47577 0.0
H4022 H 0.55523 0.86846 0.46015 0.0
H4023 H 0.53936 0.91084 0.4606 0.0
H4024 H 0.49968 0.80348 0.46725 0.0
H4025 H 0.59725 0.82463 0.47521 0.0
H4026 H 0.57386 0.84811 0.47635 0.0
H4027 H 0.58665 0.84001 0.46298 0.0
C4028 C 0.49087 0.88227 0.47238 0.0
C4029 C 0.50404 0.90354 0.46836 0.0
C4030 C 0.50057 0.85693 0.47239 0.0
C4031 C 0.52459 0.8498 0.46832 0.0
C4032 C 0.53742 0.87113 0.46399 0.0
H4033 H 0.61354 0.70146 0.47785 0.0
H4034 H 0.59719 0.74388 0.47793 0.0
C4035 C 0.52781 0.8965 0.4641 0.0
C4036 C 0.53521 0.82112 0.4684 0.0
H4037 H 0.5887 0.78387 0.46968 0.0
C4038 C 0.51933 0.79985 0.46781 0.0
C4039 C 0.5609 0.8135 0.46936 0.0
C4040 C 0.58068 0.83265 0.47113 0.0
C4041 C 0.52743 0.77383 0.46798 0.0
C4042 C 0.5532 0.76623 0.46838 0.0
C4043 C 0.56905 0.78749 0.46915 0.0
C4044 C 0.56384 0.73755 0.46836 0.0
C4045 C 0.50734 0.75459 0.46819 0.0
C4046 C 0.5524 0.71668 0.46294 0.0
C4047 C 0.56196 0.6913 0.46311 0.0
C4048 C 0.58433 0.68379 0.46855 0.0
C4049 C 0.5962 0.70462 0.47369 0.0
C4050 C 0.58651 0.72997 0.47363 0.0
H4051 H 0.48968 0.76227 0.47141 0.0
H4052 H 0.50387 0.74803 0.45962 0.0
H4053 H 0.51259 0.73862 0.47346 0.0
H4054 H 0.53586 0.71975 0.45815 0.0
H4055 H 0.55155 0.67734 0.45869 0.0
H4056 H 0.63618 0.36033 0.72169 0.0
H4057 H 0.59356 0.34429 0.72215 0.0
H4058 H 0.61431 0.28678 0.69951 0.0
H4059 H 0.65699 0.30255 0.69927 0.0
H4060 H 0.56457 0.30582 0.72856 0.0
H4061 H 0.55206 0.30001 0.68346 0.0
H4062 H 0.57785 0.28208 0.68823 0.0
H4063 H 0.5785 0.31527 0.68946 0.0
C4064 C 0.63223 0.34412 0.71679 0.0
C4065 C 0.65214 0.33341 0.71052 0.0
C4066 C 0.60684 0.3346 0.71703 0.0
C4067 C 0.59825 0.31368 0.71076 0.0
C4068 C 0.61819 0.30302 0.70443 0.0
H4069 H 0.4292 0.28048 0.69929 0.0
H4070 H 0.47225 0.29571 0.69884 0.0
C4071 C 0.64368 0.31228 0.70436 0.0
C4072 C 0.56961 0.30337 0.71094 0.0
H4073 H 0.52031 0.28225 0.69434 0.0
C4074 C 0.55542 0.30072 0.72092 0.0
C4075 C 0.55519 0.29624 0.70133 0.0
C4076 C 0.56645 0.2987 0.68999 0.0
C4077 C 0.52985 0.29146 0.72158 0.0
C4078 C 0.51557 0.28396 0.712 0.0
C4079 C 0.52954 0.28716 0.70198 0.0
C4080 C 0.487 0.27352 0.71223 0.0
C4081 C 0.51802 0.29046 0.73285 0.0
C4082 C 0.47793 0.25479 0.71966 0.0
C4083 C 0.45249 0.24546 0.71981 0.0
C4084 C 0.43305 0.25413 0.71269 0.0
C4085 C 0.44208 0.27276 0.70521 0.0
C4086 C 0.46768 0.28173 0.70491 0.0
H4087 H 0.52739 0.30301 0.73881 0.0
H4088 H 0.49816 0.29558 0.73244 0.0
H4089 H 0.51944 0.27134 0.73612 0.0
H4090 H 0.49084 0.24658 0.72542 0.0
H4091 H 0.44807 0.23103 0.72569 0.0
H4092 H 0.05966 0.17753 0.95913 0.0
H4093 H 0.04477 0.2208 0.95907 0.0
H4094 H 0.10205 0.24056 0.98194 0.0
H4095 H 0.11713 0.19765 0.98183 0.0
H4096 H 0.0576 0.26892 0.95316 0.0
H4097 H 0.05026 0.27809 0.99841 0.0
H4098 H 0.08073 0.26951 0.99393 0.0
H4099 H 0.05535 0.24848 0.9919 0.0
C4100 C 0.06928 0.19072 0.96432 0.0
C4101 C 0.09001 0.18199 0.97066 0.0
C4102 C 0.06051 0.21645 0.96424 0.0
C4103 C 0.07115 0.23618 0.97069 0.0
C4104 C 0.09198 0.22736 0.97696 0.0
H4105 H 0.98841 0.3866 0.98325 0.0
H4106 H 1.00402 0.34376 0.98315 0.0
C4107 C 0.10101 0.20183 0.97686 0.0
C4108 C 0.06104 0.26489 0.97081 0.0
H4109 H 0.04494 0.31492 0.98812 0.0
C4110 C 0.05512 0.27853 0.96095 0.0
C4111 C 0.05664 0.27967 0.98063 0.0
C4112 C 0.0608 0.26827 0.99184 0.0
C4113 C 0.04634 0.30434 0.96065 0.0
C4114 C 0.04231 0.31923 0.97047 0.0
C4115 C 0.04764 0.30538 0.98032 0.0
C4116 C 1.03245 0.34802 0.97066 0.0
C4117 C 1.04078 0.31533 0.94947 0.0
C4118 C 0.04217 0.3678 0.96395 0.0
C4119 C 1.03329 0.39345 0.96422 0.0
C4120 C 1.01345 0.40217 0.97112 0.0
C4121 C 1.00366 0.3824 0.97777 0.0
C4122 C 1.01289 0.35691 0.97769 0.0
H4123 H 1.03772 0.30079 0.94312 0.0
H4124 H 1.02417 0.32739 0.94983 0.0
H4125 H 0.05673 0.32674 0.94679 0.0
H4126 H 0.0573 0.3636 0.9584 0.0
H4127 H 1.04208 0.40661 0.95874 0.0
H4128 H 0.15797 0.79211 0.71132 0.0
H4129 H 0.11494 0.80733 0.71113 0.0
H4130 H 0.09059 0.73802 0.72459 0.0
H4131 H 0.13294 0.72265 0.72411 0.0
H4132 H 0.07718 0.82288 0.72016 0.0
H4133 H 1.03228 0.73643 0.70768 0.0
H4134 H 0.04935 0.73184 0.72019 0.0
H4135 H 0.06536 0.73946 0.70748 0.0
C4136 C 0.14366 0.77972 0.71421 0.0
C4137 C 0.1509 0.75545 0.71781 0.0
C4138 C 0.11806 0.78874 0.71412 0.0
C4139 C 0.09688 0.77448 0.71755 0.0
C4140 C 0.10442 0.75039 0.72132 0.0
H4141 H 0.92714 0.80431 0.70644 0.0
H4142 H 0.97029 0.78946 0.70611 0.0
C4143 C 0.12985 0.74134 0.72129 0.0
C4144 C 0.06819 0.78465 0.71738 0.0
H4145 H 1.00567 0.76746 0.71452 0.0
C4146 C 0.06193 0.81022 0.71891 0.0
C4147 C 0.04615 0.76992 0.71547 0.0
C4148 C 0.04851 0.74298 0.71249 0.0
C4149 C 1.03676 0.82053 0.71883 0.0
C4150 C 1.01466 0.80557 0.71758 0.0
C4151 C 1.02094 0.7801 0.71579 0.0
C4152 C 0.98593 0.81559 0.71781 0.0
C4153 C 1.03459 0.84824 0.71961 0.0
C4154 C 0.97703 0.83577 0.7245 0.0
C4155 C 0.95153 0.84468 0.72461 0.0
C4156 C 0.9318 0.83413 0.71823 0.0
C4157 C 0.9404 0.81371 0.71166 0.0
C4158 C 0.96605 0.80491 0.71148 0.0
H4159 H 0.05173 0.85753 0.7167 0.0
H4160 H 1.01891 0.85524 0.71459 0.0
H4161 H 1.03176 0.85357 0.72839 0.0
H4162 H 0.98977 0.84487 0.73003 0.0
H4163 H 0.94725 0.86021 0.72994 0.0
H4164 H 1.03434 0.1824 0.45234 0.0
H4165 H 0.04907 0.22555 0.45223 0.0
H4166 H 0.9853 0.24718 0.47107 0.0
H4167 H 0.97033 0.20451 0.47071 0.0
H4168 H 0.06769 0.26248 0.4613 0.0
H4169 H 0.97792 0.30814 0.4561 0.0
H4170 H 0.97806 0.28922 0.46826 0.0
H4171 H 0.98097 0.27516 0.45474 0.0
C4172 C 1.023 0.19609 0.45647 0.0
C4173 C 1.00038 0.18785 0.46156 0.0
C4174 C 1.03178 0.22183 0.45643 0.0
C4175 C 1.01892 0.24243 0.46139 0.0
C4176 C 0.99646 0.23394 0.46661 0.0
H4177 H 0.04512 0.4143 0.45208 0.0
H4178 H 1.03017 0.37115 0.45197 0.0
C4179 C 0.98765 0.20828 0.4666 0.0
C4180 C 1.02895 0.27137 0.46126 0.0
H4181 H 1.01108 0.33421 0.46094 0.0
C4182 C 0.05475 0.27776 0.46123 0.0
C4183 C 1.01383 0.29361 0.46089 0.0
C4184 C 0.9862 0.29135 0.45988 0.0
C4185 C 0.06495 0.30307 0.46108 0.0
C4186 C 0.04981 0.32532 0.46125 0.0
C4187 C 1.02402 0.31892 0.46103 0.0
C4188 C 0.05985 0.35427 0.46141 0.0
C4189 C 0.09264 0.30523 0.46031 0.0
C4190 C 0.08209 0.36273 0.46678 0.0
C4191 C 0.09103 0.38832 0.46677 0.0
C4192 C 0.07859 0.40877 0.4616 0.0
C4193 C 0.05615 0.40061 0.45635 0.0
C4194 C 0.04726 0.37488 0.4563 0.0
H4195 H 0.10102 0.28841 0.45658 0.0
H4196 H 0.09819 0.32137 0.45523 0.0
H4197 H 0.10039 0.3073 0.46876 0.0
H4198 H 0.093 0.3495 0.47135 0.0
H4199 H 0.10823 0.39205 0.47104 0.0
H4200 H 0.63758 0.21955 0.22405 0.0
H4201 H 0.59512 0.23552 0.22459 0.0
H4202 H 0.6212 0.30538 0.2124 0.0
H4203 H 0.66369 0.28974 0.21258 0.0
H4204 H 0.55651 0.24794 0.21639 0.0
H4205 H 0.57627 0.3436 0.22875 0.0
H4206 H 0.59227 0.33576 0.21625 0.0
H4207 H 0.59993 0.32027 0.22908 0.0
C4208 C 0.63482 0.23865 0.22174 0.0
C4209 C 0.65617 0.25283 0.2186 0.0
C4210 C 0.60946 0.24813 0.22193 0.0
C4211 C 0.6024 0.27292 0.21894 0.0
C4212 C 0.62382 0.28682 0.21544 0.0
H4213 H 0.45275 0.35744 0.23153 0.0
H4214 H 0.49543 0.3416 0.23116 0.0
C4215 C 0.64924 0.27739 0.21536 0.0
C4216 C 0.57368 0.28323 0.21925 0.0
H4217 H 0.53585 0.33585 0.2226 0.0
C4218 C 0.55266 0.26734 0.2178 0.0
C4219 C 0.56578 0.30853 0.22128 0.0
C4220 C 0.58464 0.32803 0.22404 0.0
C4221 C 0.52657 0.27511 0.21813 0.0
C4222 C 0.51873 0.3006 0.21962 0.0
C4223 C 0.53973 0.31644 0.22124 0.0
C4224 C 0.49 0.31087 0.21986 0.0
C4225 C 0.50755 0.25488 0.21732 0.0
C4226 C 0.46964 0.30062 0.21366 0.0
C4227 C 0.44418 0.3098 0.21403 0.0
C4228 C 0.43614 0.33059 0.22049 0.0
C4229 C 0.45645 0.34132 0.22647 0.0
C4230 C 0.48189 0.33197 0.22618 0.0
H4231 H 0.51527 0.23671 0.21986 0.0
H4232 H 0.49129 0.25888 0.22264 0.0
H4233 H 0.50143 0.25314 0.20859 0.0
H4234 H 0.47322 0.28541 0.2081 0.0
H4235 H 0.4306 0.30049 0.20894 0.0
H4236 H 0.54818 0.90512 0.95197 0.0
H4237 H 0.53324 0.86205 0.95193 0.0
H4238 H 0.59847 0.83976 0.96952 0.0
H4239 H 0.61369 0.8823 0.96901 0.0
H4240 H 0.51526 0.82523 0.96115 0.0
H4241 H 0.60425 0.77912 0.95421 0.0
H4242 H 0.60527 0.7978 0.96645 0.0
H4243 H 0.6013 0.81215 0.95305 0.0
C4244 C 0.55979 0.89129 0.95583 0.0
C4245 C 0.58285 0.89929 0.96056 0.0
C4246 C 0.55088 0.86562 0.95583 0.0
C4247 C 0.56408 0.8449 0.96048 0.0
C4248 C 0.58701 0.85314 0.96533 0.0
H4249 H 0.53648 0.67328 0.95148 0.0
H4250 H 0.55173 0.71635 0.95115 0.0
C4251 C 0.59594 0.87872 0.96526 0.0
C4252 C 0.55389 0.81607 0.96042 0.0
H4253 H 0.57139 0.7532 0.9596 0.0
C4254 C 0.52808 0.80987 0.96081 0.0
C4255 C 0.56886 0.79379 0.95971 0.0
C4256 C 0.59641 0.7959 0.95821 0.0
C4257 C 0.51774 0.78465 0.96077 0.0
C4258 C 0.53277 0.76234 0.9606 0.0
C4259 C 0.55856 0.76855 0.95995 0.0
C4260 C 0.52259 0.73351 0.96086 0.0
C4261 C 0.48999 0.78266 0.96049 0.0
C4262 C 0.50059 0.72529 0.96649 0.0
C4263 C 0.49145 0.69984 0.96657 0.0
C4264 C 0.50348 0.67927 0.9613 0.0
C4265 C 0.52577 0.68712 0.95584 0.0
C4266 C 0.53481 0.71278 0.95565 0.0
H4267 H 0.48138 0.79959 0.957 0.0
H4268 H 0.48391 0.76661 0.95545 0.0
H4269 H 0.48297 0.78053 0.96907 0.0
H4270 H 0.49006 0.73857 0.97121 0.0
H4271 H 0.47442 0.6963 0.97102 0.0
H4272 H 0.15389 0.29805 0.86134 0.0
H4273 H 0.11087 0.2828 0.86139 0.0
H4274 H 0.08938 0.34411 0.84099 0.0
H4275 H 0.1319 0.35955 0.84125 0.0
H4276 H 0.07467 0.26287 0.85197 0.0
H4277 H 1.02847 0.35253 0.85631 0.0
H4278 H 0.04747 0.35226 0.84416 0.0
H4279 H 0.06146 0.34971 0.8577 0.0
C4280 C 0.14025 0.30869 0.85684 0.0
C4281 C 0.14837 0.33076 0.85129 0.0
C4282 C 0.11464 0.29963 0.85685 0.0
C4283 C 0.09421 0.31175 0.85144 0.0
C4284 C 0.1026 0.33365 0.84578 0.0
H4285 H 0.92261 0.28411 0.85986 0.0
H4286 H 0.96558 0.29964 0.86033 0.0
C4287 C 0.1281 0.3427 0.84578 0.0
C4288 C 0.06546 0.30153 0.85153 0.0
H4289 H 1.00264 0.31911 0.85126 0.0
C4290 C 0.05931 0.27571 0.85179 0.0
C4291 C 0.04321 0.31659 0.85165 0.0
C4292 C 0.04533 0.34428 0.85257 0.0
C4293 C 1.0341 0.2654 0.85187 0.0
C4294 C 1.01186 0.28043 0.85134 0.0
C4295 C 1.01801 0.30627 0.85139 0.0
C4296 C 0.98314 0.27013 0.851 0.0
C4297 C 1.03196 0.23777 0.85308 0.0
C4298 C 0.9753 0.24783 0.84551 0.0
C4299 C 0.9499 0.23861 0.84529 0.0
C4300 C 0.92912 0.25075 0.85034 0.0
C4301 C 0.93666 0.27327 0.8557 0.0
C4302 C 0.96223 0.28249 0.85597 0.0
H4303 H 0.04857 0.22978 0.85714 0.0
H4304 H 1.0155 0.23259 0.85805 0.0
H4305 H 1.03047 0.22928 0.84474 0.0
H4306 H 0.98888 0.23716 0.84103 0.0
H4307 H 0.94657 0.22142 0.84094 0.0
H4308 H 0.46456 0.38372 0.60148 0.0
H4309 H 0.48089 0.34125 0.60121 0.0
H4310 H 0.54756 0.36701 0.61663 0.0
H4311 H 0.5317 0.40938 0.61627 0.0
H4312 H 0.49208 0.30193 0.60996 0.0
H4313 H 0.58926 0.32334 0.60112 0.0
H4314 H 0.57907 0.33871 0.61344 0.0
H4315 H 0.56576 0.34677 0.60018 0.0
C4316 C 0.48303 0.3809 0.60461 0.0
C4317 C 0.49625 0.40217 0.60862 0.0
C4318 C 0.49273 0.35553 0.60457 0.0
C4319 C 0.5168 0.34837 0.60856 0.0
C4320 C 0.52969 0.36969 0.61285 0.0
H4321 H 0.60499 0.19992 0.59778 0.0
H4322 H 0.58824 0.24225 0.59775 0.0
C4323 C 0.52007 0.39506 0.61281 0.0
C4324 C 0.52749 0.31968 0.60843 0.0
H4325 H 0.58105 0.28254 0.60671 0.0
C4326 C 0.51171 0.29836 0.60922 0.0
C4327 C 0.55316 0.31212 0.60726 0.0
C4328 C 0.57283 0.33133 0.60534 0.0
C4329 C 0.51991 0.27235 0.60906 0.0
C4330 C 0.54567 0.26485 0.60837 0.0
C4331 C 0.56141 0.28614 0.60741 0.0
C4332 C 0.55636 0.2362 0.60831 0.0
C4333 C 0.49995 0.25297 0.6092 0.0
C4334 C 0.54579 0.21556 0.61424 0.0
C4335 C 0.55556 0.19024 0.61411 0.0
C4336 C 0.57729 0.18263 0.60817 0.0
C4337 C 0.58822 0.20323 0.60245 0.0
C4338 C 0.57829 0.22848 0.60248 0.0
H4339 H 0.48207 0.26045 0.60616 0.0
H4340 H 0.50503 0.23687 0.60396 0.0
H4341 H 0.49706 0.24662 0.61784 0.0
H4342 H 0.52983 0.21883 0.61941 0.0
H4343 H 0.54595 0.17645 0.61897 0.0
H4344 H 0.63252 0.87048 0.34708 0.0
H4345 H 0.59015 0.85435 0.34666 0.0
H4346 H 0.61687 0.78435 0.3584 0.0
H4347 H 0.65928 0.80017 0.35805 0.0
H4348 H 0.55155 0.8417 0.35477 0.0
H4349 H 0.57143 0.74594 0.34257 0.0
H4350 H 0.58768 0.75408 0.35495 0.0
H4351 H 0.59497 0.76935 0.34203 0.0
C4352 C 0.62994 0.85132 0.34929 0.0
C4353 C 0.65149 0.83722 0.35225 0.0
C4354 C 0.60459 0.84173 0.34919 0.0
C4355 C 0.59765 0.81686 0.35211 0.0
C4356 C 0.61929 0.803 0.35543 0.0
H4357 H 0.44845 0.73095 0.34035 0.0
H4358 H 0.49089 0.74709 0.34069 0.0
C4359 C 0.6447 0.81254 0.35541 0.0
C4360 C 0.56887 0.80645 0.35192 0.0
H4361 H 0.5311 0.75372 0.34879 0.0
C4362 C 0.54775 0.82228 0.35341 0.0
C4363 C 0.56096 0.78113 0.34997 0.0
C4364 C 0.57983 0.76162 0.34717 0.0
C4365 C 0.52165 0.81445 0.35317 0.0
C4366 C 0.5138 0.78893 0.35174 0.0
C4367 C 0.53489 0.77316 0.3501 0.0
C4368 C 0.48501 0.77852 0.35156 0.0
C4369 C 0.50259 0.83465 0.35401 0.0
C4370 C 0.46431 0.78901 0.35752 0.0
C4371 C 0.43886 0.77962 0.35715 0.0
C4372 C 0.43117 0.75831 0.35095 0.0
C4373 C 0.45182 0.7474 0.34523 0.0
C4374 C 0.47718 0.75696 0.3455 0.0
H4375 H 0.5103 0.85288 0.35155 0.0
H4376 H 0.48641 0.83072 0.34865 0.0
H4377 H 0.49636 0.83624 0.36274 0.0
H4378 H 0.46757 0.80461 0.36289 0.0
H4379 H 0.42503 0.78919 0.36202 0.0
H4380 H 1.03633 0.90764 0.12109 0.0
H4381 H 0.05096 0.86453 0.12144 0.0
H4382 H 0.99361 0.84465 0.09854 0.0
H4383 H 0.97833 0.88713 0.09883 0.0
H4384 H 0.07202 0.82852 0.11389 0.0
H4385 H 0.98216 0.78214 0.11086 0.0
H4386 H 0.98658 0.80251 0.09935 0.0
H4387 H 0.98418 0.81488 0.11325 0.0
C4388 C 1.02638 0.89431 0.11611 0.0
C4389 C 1.00544 0.90294 0.10988 0.0
C4390 C 1.03512 0.8686 0.11629 0.0
C4391 C 1.02393 0.84849 0.11026 0.0
C4392 C 1.00322 0.85742 0.10388 0.0
H4393 H 0.049 0.6762 0.11793 0.0
H4394 H 1.03312 0.71909 0.11776 0.0
C4395 C 0.99432 0.88301 0.10383 0.0
C4396 C 1.03398 0.81962 0.11053 0.0
H4397 H 1.01697 0.75688 0.10786 0.0
C4398 C 0.05941 0.81328 0.11252 0.0
C4399 C 1.01916 0.79739 0.10917 0.0
C4400 C 0.9915 0.79941 0.10816 0.0
C4401 C 0.0696 0.78803 0.11294 0.0
C4402 C 0.05503 0.76594 0.11091 0.0
C4403 C 1.02952 0.77219 0.10919 0.0
C4404 C 0.06537 0.73724 0.1108 0.0
C4405 C 0.09637 0.7856 0.11617 0.0
C4406 C 0.0893 0.72977 0.10679 0.0
C4407 C 0.09864 0.70439 0.10688 0.0
C4408 C 0.08513 0.68333 0.11087 0.0
C4409 C 0.061 0.6905 0.11471 0.0
C4410 C 0.05157 0.71601 0.11457 0.0
H4411 H 0.10267 0.80178 0.12109 0.0
H4412 H 0.09962 0.76868 0.12116 0.0
H4413 H 0.10789 0.78477 0.10858 0.0
H4414 H 0.10129 0.74367 0.10328 0.0
H4415 H 0.1171 0.70134 0.10368 0.0
H4416 H 0.22223 0.26816 0.32701 0.0
H4417 H 0.2406 0.28658 0.31032 0.0
H4418 H 0.30537 0.24157 0.31479 0.0
H4419 H 0.28655 0.22274 0.33134 0.0
H4420 H 0.27567 0.31467 0.30334 0.0
H4421 H 0.30121 0.22689 0.28322 0.0
H4422 H 0.28291 0.22761 0.29569 0.0
H4423 H 0.31609 0.23052 0.29637 0.0
C4424 C 0.24056 0.26219 0.32458 0.0
C4425 C 0.25271 0.24403 0.33116 0.0
C4426 C 0.2513 0.27293 0.31478 0.0
C4427 C 0.27481 0.2658 0.31052 0.0
C4428 C 0.2871 0.24769 0.31717 0.0
H4429 H 0.36855 0.3083 0.25034 0.0
H4430 H 0.35042 0.29022 0.26716 0.0
C4431 C 0.27634 0.237 0.32703 0.0
C4432 C 0.28591 0.27728 0.2994 0.0
H4433 H 0.31602 0.26329 0.27463 0.0
C4434 C 0.28432 0.30307 0.29713 0.0
C4435 C 0.29767 0.26329 0.29074 0.0
C4436 C 0.29941 0.23554 0.29153 0.0
C4437 C 0.2941 0.31471 0.28723 0.0
C4438 C 0.30585 0.30073 0.27855 0.0
C4439 C 0.30741 0.27492 0.28084 0.0
C4440 C 0.31691 0.31216 0.26741 0.0
C4441 C 0.29246 0.34247 0.28652 0.0
C4442 C 0.30498 0.33086 0.26096 0.0
C4443 C 0.31565 0.3414 0.25106 0.0
C4444 C 0.33879 0.33365 0.24664 0.0
C4445 C 0.35059 0.31488 0.25299 0.0
C4446 C 0.33997 0.30434 0.26287 0.0
H4447 H 0.29085 0.35104 0.29486 0.0
H4448 H 0.30893 0.35033 0.28235 0.0
H4449 H 0.27572 0.34766 0.28176 0.0
H4450 H 0.28704 0.33756 0.26351 0.0
H4451 H 0.30581 0.35622 0.24696 0.0
H4452 H 0.98013 0.0532 0.48933 0.0
H4453 H 0.99828 1.03495 0.50624 0.0
H4454 H 0.0467 0.09759 0.50922 0.0
H4455 H 1.02841 0.11571 0.49252 0.0
H4456 H 1.03946 1.01653 0.51479 0.0
H4457 H 1.0273 0.09989 0.54034 0.0
H4458 H 1.01433 0.09765 0.52664 0.0
H4459 H 0.04633 0.10608 0.52851 0.0
C4460 C 0.99501 0.063 0.49339 0.0
C4461 C 1.00286 0.08608 0.48891 0.0
C4462 C 1.00549 0.05248 0.50336 0.0
C4463 C 1.02413 0.06452 0.5098 0.0
C4464 C 1.0321 0.08741 0.50516 0.0
H4465 H 0.11123 1.03268 0.57367 0.0
H4466 H 0.09317 0.05032 0.55664 0.0
C4467 C 1.02168 0.09786 0.49523 0.0
C4468 C 1.03507 0.05347 0.52105 0.0
H4469 H 0.05223 0.06825 0.54814 0.0
C4470 C 1.04194 1.02814 0.52202 0.0
C4471 C 1.03906 0.06752 0.53103 0.0
C4472 C 1.03116 0.0942 0.53166 0.0
C4473 C 0.05265 1.01726 0.5319 0.0
C4474 C 0.05667 1.03131 0.54187 0.0
C4475 C 0.04976 0.05664 0.54091 0.0
C4476 C 0.06775 1.02037 0.55311 0.0
C4477 C 0.06052 0.99057 0.53127 0.0
C4478 C 0.06011 0.99738 0.55779 0.0
C4479 C 0.07055 0.98723 0.56778 0.0
C4480 C 0.08904 0.99944 0.57413 0.0
C4481 C 0.09664 1.02252 0.56957 0.0
C4482 C 0.08619 1.03272 0.55953 0.0
H4483 H 0.06431 0.98485 0.52259 0.0
H4484 H 0.07739 0.98713 0.53627 0.0
H4485 H 0.04537 0.97871 0.53445 0.0
H4486 H 0.04566 0.98696 0.55375 0.0
H4487 H 0.06391 0.96942 0.5706 0.0
H4488 H 0.36718 0.8169 0.82566 0.0
H4489 H 0.34917 0.79883 0.80885 0.0
H4490 H 0.28159 0.83838 0.81504 0.0
H4491 H 0.2999 0.85664 0.83187 0.0
H4492 H 0.31499 0.76867 0.80193 0.0
H4493 H 0.28406 0.85661 0.78352 0.0
H4494 H 0.30305 0.8558 0.79578 0.0
H4495 H 0.27019 0.85081 0.79676 0.0
C4496 C 0.34828 0.82169 0.82362 0.0
C4497 C 0.3353 0.83819 0.83076 0.0
C4498 C 0.33776 0.81117 0.81374 0.0
C4499 C 0.31357 0.81693 0.80991 0.0
C4500 C 0.30038 0.83338 0.8171 0.0
H4501 H 0.22186 0.77531 0.74901 0.0
H4502 H 0.23942 0.79306 0.76598 0.0
C4503 C 0.31091 0.84377 0.8271 0.0
C4504 C 0.3028 0.80577 0.79866 0.0
H4505 H 0.27191 0.82023 0.77416 0.0
C4506 C 0.30569 0.78029 0.79593 0.0
C4507 C 0.29021 0.8198 0.79027 0.0
C4508 C 0.28684 0.84729 0.79163 0.0
C4509 C 0.29639 0.76895 0.78587 0.0
C4510 C 0.28398 0.78302 0.77741 0.0
C4511 C 0.28112 0.80853 0.78015 0.0
C4512 C 0.27343 0.77192 0.76608 0.0
C4513 C 0.29926 0.74135 0.78475 0.0
C4514 C 0.28587 0.75382 0.75943 0.0
C4515 C 0.27547 0.74337 0.74943 0.0
C4516 C 0.25222 0.75084 0.74505 0.0
C4517 C 0.24 0.76909 0.75158 0.0
C4518 C 0.25027 0.77942 0.76157 0.0
H4519 H 0.30117 0.7323 0.79297 0.0
H4520 H 0.2832 0.73299 0.78044 0.0
H4521 H 0.31629 0.73727 0.77996 0.0
H4522 H 0.30397 0.74746 0.76191 0.0
H4523 H 0.28569 0.72899 0.74521 0.0
H4524 H 0.52318 0.11396 0.07008 0.0
H4525 H 0.54036 0.09603 0.05301 0.0
H4526 H 0.49105 1.0341 0.05626 0.0
H4527 H 0.47347 0.05254 0.07314 0.0
H4528 H 0.56601 0.06027 0.04522 0.0
H4529 H 0.47682 1.04142 1.02495 0.0
H4530 H 0.47876 0.05877 0.03764 0.0
H4531 H 0.4795 1.02543 0.03788 0.0
C4532 C 0.516 0.09634 0.0673 0.0
C4533 C 0.49701 0.08483 0.07362 0.0
C4534 C 0.526 0.08586 0.05727 0.0
C4535 C 0.51731 0.06332 0.05256 0.0
C4536 C 0.49839 0.05167 0.05897 0.0
H4537 H 0.55563 0.97075 0.99155 0.0
H4538 H 0.53826 0.98892 1.00853 0.0
C4539 C 0.48844 0.06215 0.06904 0.0
C4540 C 0.52806 0.05247 0.04125 0.0
H4541 H 0.51224 1.02497 1.0161 0.0
C4542 C 0.55389 0.05276 0.03892 0.0
C4543 C 0.51337 1.04216 1.03246 0.0
C4544 C 0.48558 1.04208 1.03326 0.0
C4545 C 0.56487 0.0431 1.02885 0.0
C4546 C 0.55017 1.03279 1.02007 0.0
C4547 C 0.52435 1.03249 1.0224 0.0
C4548 C 0.56089 1.02192 1.00877 0.0
C4549 C 0.59266 0.04326 1.02801 0.0
C4550 C 0.57958 1.03371 1.00226 0.0
C4551 C 0.58958 1.02312 0.99222 0.0
C4552 C 0.58132 1.00018 0.9878 0.0
C4553 C 0.56251 0.9886 0.9942 0.0
C4554 C 0.55243 0.99919 1.00418 0.0
H4555 H 0.60146 0.04387 0.03631 0.0
H4556 H 0.59958 1.02666 1.02357 0.0
H4557 H 0.59862 0.05999 1.02342 0.0
H4558 H 0.58672 0.05141 1.0049 0.0
H4559 H 0.60442 1.03279 0.98806 0.0
H4560 H 0.30127 0.7281 0.32139 0.0
H4561 H 0.28415 0.74676 0.30438 0.0
H4562 H 0.34826 0.79333 0.3018 0.0
H4563 H 0.36515 0.77471 0.31872 0.0
H4564 H 0.2677 0.79033 0.29646 0.0
H4565 H 0.34951 0.77274 0.27046 0.0
H4566 H 0.34657 0.75976 0.28415 0.0
H4567 H 0.35678 0.79123 0.28235 0.0
C4568 C 0.31166 0.74267 0.31739 0.0
C4569 C 0.33464 0.75004 0.32209 0.0
C4570 C 0.30179 0.75343 0.30737 0.0
C4571 C 0.31452 0.77183 0.30108 0.0
C4572 C 0.33753 0.77905 0.30582 0.0
H4573 H 0.28534 0.85835 0.23662 0.0
H4574 H 0.30329 0.83962 0.2535 0.0
C4575 C 0.34729 0.76838 0.31582 0.0
C4576 C 0.30393 0.7833 0.2899 0.0
H4577 H 0.3188 0.79872 0.26263 0.0
C4578 C 0.27913 0.79185 0.28912 0.0
C4579 C 0.31788 0.78619 0.27984 0.0
C4580 C 0.34407 0.77681 0.27915 0.0
C4581 C 0.26864 0.80308 0.27929 0.0
C4582 C 0.28249 0.80576 0.26917 0.0
C4583 C 0.30734 0.79724 0.26996 0.0
C4584 C 0.2717 0.81699 0.25795 0.0
C4585 C 0.24268 0.81303 0.28018 0.0
C4586 C 0.24782 0.81091 0.2538 0.0
C4587 C 0.23748 0.82179 0.24399 0.0
C4588 C 0.25037 0.83898 0.23719 0.0
C4589 C 0.27452 0.84481 0.2411 0.0
C4590 C 0.2849 0.83398 0.25104 0.0
H4591 H 0.23795 0.81784 0.28888 0.0
H4592 H 0.24013 0.82979 0.275 0.0
H4593 H 0.22947 0.79861 0.27743 0.0
H4594 H 0.23672 0.79749 0.25819 0.0
H4595 H 0.21883 0.81663 0.2417 0.0
H4596 H 0.55989 0.11646 0.57797 0.0
H4597 H 0.54291 0.09836 0.5609 0.0
H4598 H 0.59445 1.03809 0.56358 0.0
H4599 H 0.61087 0.056 0.58076 0.0
H4600 H 0.55387 0.0897 0.54082 0.0
H4601 H 0.54105 0.99414 0.55539 0.0
H4602 H 0.54967 1.01861 0.56471 0.0
H4603 H 0.57276 1.00347 0.55634 0.0
C4604 C 0.56741 0.09902 0.57512 0.0
C4605 C 0.58647 0.08764 0.58144 0.0
C4606 C 0.5576 0.0885 0.56508 0.0
C4607 C 0.56627 0.06583 0.56045 0.0
C4608 C 0.58587 0.05478 0.56666 0.0
H4609 H 0.52906 0.97275 0.49948 0.0
H4610 H 0.54671 0.99131 0.51628 0.0
C4611 C 0.59556 0.06526 0.57676 0.0
C4612 C 0.55547 0.05469 0.54923 0.0
H4613 H 0.53654 1.0005 0.53609 0.0
C4614 C 0.55005 0.07012 0.53998 0.0
C4615 C 0.55003 1.029 0.54737 0.0
C4616 C 0.55343 1.01034 0.55649 0.0
C4617 C 0.54053 0.06118 0.52951 0.0
C4618 C 0.53492 1.03551 0.52768 0.0
C4619 C 0.54037 1.02008 0.53692 0.0
C4620 C 0.52399 1.0243 0.5165 0.0
C4621 C 0.53759 0.07971 0.52029 0.0
C4622 C 0.50461 1.03553 0.51022 0.0
C4623 C 0.49456 1.02478 0.50026 0.0
C4624 C 0.50308 1.00196 0.49579 0.0
C4625 C 0.52204 0.99053 0.50214 0.0
C4626 C 0.53219 1.00131 0.51205 0.0
H4627 H 0.55004 0.09584 0.52144 0.0
H4628 H 0.54162 0.07131 0.51209 0.0
H4629 H 0.51832 0.08673 0.52027 0.0
H4630 H 0.49633 0.05247 0.5132 0.0
H4631 H 0.47927 1.03407 0.49626 0.0
H4632 H 0.36581 0.27544 0.74291 0.0
H4633 H 0.34744 0.29318 0.75979 0.0
H4634 H 0.28513 0.24449 0.75627 0.0
H4635 H 0.3035 0.2271 0.73935 0.0
H4636 H 0.33707 0.28198 0.77979 0.0
H4637 H 0.24343 0.30051 0.76407 0.0
H4638 H 0.25128 0.26842 0.76287 0.0
H4639 H 0.26814 0.29114 0.75498 0.0
C4640 C 0.34786 0.26876 0.74551 0.0
C4641 C 0.3361 0.25019 0.73903 0.0
C4642 C 0.33718 0.27899 0.75545 0.0
C4643 C 0.3139 0.27134 0.75979 0.0
C4644 C 0.30236 0.2523 0.7534 0.0
H4645 H 0.21889 0.31141 0.81985 0.0
H4646 H 0.2376 0.29368 0.80309 0.0
C4647 C 0.31307 0.24211 0.74343 0.0
C4648 C 0.30262 0.2825 0.77093 0.0
H4649 H 0.24868 0.30403 0.78349 0.0
C4650 C 0.31768 0.28683 0.78041 0.0
C4651 C 0.27717 0.28936 0.77249 0.0
C4652 C 0.25908 0.28738 0.76305 0.0
C4653 C 0.30857 0.29656 0.79083 0.0
C4654 C 0.28311 0.30347 0.79239 0.0
C4655 C 0.26807 0.29916 0.7829 0.0
C4656 C 0.27174 0.31456 0.80355 0.0
C4657 C 0.32664 0.29829 0.80028 0.0
C4658 C 0.28351 0.33301 0.81021 0.0
C4659 C 0.27263 0.34312 0.82017 0.0
C4660 C 0.24912 0.3356 0.82425 0.0
C4661 C 0.23717 0.31765 0.8175 0.0
C4662 C 0.24806 0.30743 0.80761 0.0
H4663 H 0.34224 0.28513 0.79923 0.0
H4664 H 0.33452 0.31722 0.80054 0.0
H4665 H 0.31753 0.29437 0.80832 0.0
H4666 H 0.30107 0.34048 0.80757 0.0
H4667 H 0.28245 0.35762 0.82449 0.0
H4668 H 0.11882 0.05349 0.99803 0.0
H4669 H 0.10057 1.03652 1.01515 0.0
H4670 H 0.05502 0.10135 1.01816 0.0
H4671 H 0.07282 0.11778 1.00099 0.0
H4672 H 0.09874 0.04443 0.03636 0.0
H4673 H 1.00073 0.05724 1.02573 0.0
H4674 H 1.02486 0.06191 1.01566 0.0
H4675 H 1.017 0.08607 1.02534 0.0
C4676 C 0.10439 0.06396 1.0021 0.0
C4677 C 0.09701 0.08699 0.99742 0.0
C4678 C 0.09389 0.05421 1.01221 0.0
C4679 C 0.0752 0.06671 1.01844 0.0
C4680 C 0.06833 0.09 1.01382 0.0
H4681 H 0.98978 1.0382 0.0832 0.0
H4682 H 1.00838 0.05606 0.0663 0.0
C4683 C 0.0789 0.09976 1.00378 0.0
C4684 C 0.06381 0.05608 1.02966 0.0
H4685 H 1.00913 0.04789 0.0446 0.0
C4686 C 0.07904 0.04521 0.03796 0.0
C4687 C 1.03796 0.05646 1.03249 0.0
C4688 C 1.01914 0.0658 1.02431 0.0
C4689 C 0.0699 1.03588 0.04845 0.0
C4690 C 0.04407 1.03626 0.05127 0.0
C4691 C 1.02883 0.04714 0.04299 0.0
C4692 C 1.03275 1.02539 0.06245 0.0
C4693 C 0.08866 1.02645 0.05664 0.0
C4694 C 1.03913 1.00165 0.06669 0.0
C4695 C 1.0284 0.9914 0.07658 0.0
C4696 C 1.01066 1.00407 0.08319 0.0
C4697 C 1.00403 1.02777 0.07898 0.0
C4698 C 1.01464 1.03801 0.06898 0.0
H4699 H 0.10714 1.03482 0.0552 0.0
H4700 H 0.08298 1.03047 0.0653 0.0
H4701 H 0.0906 1.00614 0.05565 0.0
H4702 H 0.05203 0.99028 0.06211 0.0
H4703 H 1.03379 0.97286 0.07897 0.0
H4704 H 0.72614 0.77315 0.82895 0.0
H4705 H 0.74293 0.79174 0.81194 0.0
H4706 H 0.80354 0.74033 0.81279 0.0
H4707 H 0.78662 0.72186 0.82982 0.0
H4708 H 0.75018 0.78029 0.79125 0.0
H4709 H 0.84563 0.79699 0.80515 0.0
H4710 H 0.83728 0.76498 0.80613 0.0
H4711 H 0.82175 0.7875 0.81465 0.0
C4712 C 0.74343 0.76602 0.82574 0.0
C4713 C 0.75522 0.74633 0.8315 0.0
C4714 C 0.75315 0.77675 0.81572 0.0
C4715 C 0.7754 0.76853 0.81059 0.0
C4716 C 0.78701 0.74846 0.81628 0.0
H4717 H 0.86474 0.8127 0.74943 0.0
H4718 H 0.84769 0.79388 0.76629 0.0
C4719 C 0.77718 0.73765 0.8263 0.0
C4720 C 0.78552 0.78022 0.79936 0.0
H4721 H 0.83815 0.80228 0.78597 0.0
C4722 C 0.7695 0.78511 0.79027 0.0
C4723 C 0.81081 0.78699 0.79735 0.0
C4724 C 0.82986 0.78411 0.80635 0.0
C4725 C 0.77756 0.79529 0.77977 0.0
C4726 C 0.80283 0.8023 0.77777 0.0
C4727 C 0.81883 0.79743 0.78689 0.0
C4728 C 0.81307 0.81403 0.76653 0.0
C4729 C 0.75856 0.7973 0.7707 0.0
C4730 C 0.80038 0.83244 0.76019 0.0
C4731 C 0.81024 0.84311 0.75015 0.0
C4732 C 0.83362 0.83633 0.74568 0.0
C4733 C 0.84649 0.81841 0.7521 0.0
C4734 C 0.83658 0.80757 0.76205 0.0
H4735 H 0.74317 0.78398 0.77194 0.0
H4736 H 0.7505 0.81617 0.77077 0.0
H4737 H 0.76688 0.79375 0.76245 0.0
H4738 H 0.78289 0.83948 0.76316 0.0
H4739 H 0.79974 0.85751 0.74608 0.0
H4740 H 0.80737 0.36275 0.32974 0.0
H4741 H 0.78966 0.34428 0.31283 0.0
H4742 H 0.84959 0.29205 0.31181 0.0
H4743 H 0.86672 0.31014 0.32878 0.0
H4744 H 0.79863 0.33922 0.2919 0.0
H4745 H 0.80071 0.24173 0.30482 0.0
H4746 H 0.80699 0.26643 0.31441 0.0
H4747 H 0.83097 0.25511 0.30534 0.0
C4748 C 0.81654 0.34686 0.32616 0.0
C4749 C 0.83835 0.3377 0.33132 0.0
C4750 C 0.80637 0.33621 0.31618 0.0
C4751 C 0.81726 0.31562 0.31059 0.0
C4752 C 0.83941 0.30695 0.31568 0.0
H4753 H 0.78516 0.22596 0.24765 0.0
H4754 H 0.80305 0.2446 0.26449 0.0
C4755 C 0.84958 0.31765 0.32559 0.0
C4756 C 0.80624 0.30409 0.2995 0.0
H4757 H 0.79348 0.24887 0.28569 0.0
C4758 C 0.79749 0.31938 0.29074 0.0
C4759 C 0.80415 0.27804 0.29726 0.0
C4760 C 0.81095 0.25934 0.30598 0.0
C4761 C 0.78792 0.31004 0.28035 0.0
C4762 C 0.78588 0.284 0.27811 0.0
C4763 C 0.79462 0.2687 0.28685 0.0
C4764 C 0.77482 0.27249 0.26703 0.0
C4765 C 0.78097 0.32868 0.27162 0.0
C4766 C 0.75231 0.28074 0.26214 0.0
C4767 C 0.74199 0.2699 0.25229 0.0
C4768 C 0.75347 0.2502 0.24641 0.0
C4769 C 0.77577 0.2416 0.25134 0.0
C4770 C 0.78604 0.25232 0.26128 0.0
H4771 H 0.791 0.34641 0.2728 0.0
H4772 H 0.78504 0.32164 0.26318 0.0
H4773 H 0.76089 0.33267 0.27223 0.0
H4774 H 0.74196 0.29534 0.26614 0.0
H4775 H 0.72449 0.27695 0.24929 0.0
H4776 H 0.7218 0.30447 0.74019 0.0
H4777 H 0.73977 0.28592 0.75693 0.0
H4778 H 0.8035 0.33282 0.75347 0.0
H4779 H 0.7851 0.3517 0.73686 0.0
H4780 H 0.77574 0.25856 0.76386 0.0
H4781 H 0.79628 0.34643 0.78508 0.0
H4782 H 0.7787 0.34537 0.77244 0.0
H4783 H 0.81197 0.34399 0.77204 0.0
C4784 C 0.73986 0.31076 0.74283 0.0
C4785 C 0.75187 0.32951 0.73657 0.0
C4786 C 0.75033 0.3 0.75266 0.0
C4787 C 0.77337 0.30764 0.7572 0.0
C4788 C 0.78557 0.32627 0.75083 0.0
H4789 H 0.86423 0.26581 0.81803 0.0
H4790 H 0.84709 0.28364 0.80094 0.0
C4791 C 0.7751 0.33696 0.74094 0.0
C4792 C 0.78413 0.29614 0.76831 0.0
H4793 H 0.81176 0.31022 0.79359 0.0
C4794 C 0.78345 0.2702 0.7703 0.0
C4795 C 0.79468 0.31022 0.77722 0.0
C4796 C 0.7953 0.33804 0.77669 0.0
C4797 C 0.79299 0.25853 0.7802 0.0
C4798 C 0.80343 0.27264 0.78913 0.0
C4799 C 0.80411 0.29857 0.78714 0.0
C4800 C 0.81398 0.2612 0.80029 0.0
C4801 C 0.79254 0.23068 0.78068 0.0
C4802 C 0.80187 0.24224 0.80649 0.0
C4803 C 0.81192 0.23187 0.81651 0.0
C4804 C 0.83452 0.24009 0.82125 0.0
C4805 C 0.84666 0.25889 0.81507 0.0
C4806 C 0.83661 0.26931 0.80508 0.0
H4807 H 0.79203 0.22242 0.77226 0.0
H4808 H 0.80894 0.22328 0.78509 0.0
H4809 H 0.77562 0.2246 0.78511 0.0
H4810 H 0.78421 0.23534 0.80367 0.0
H4811 H 0.8019 0.21708 0.82054 0.0
H4812 H 0.779 0.86514 0.32252 0.0
H4813 H 0.79702 0.84658 0.30577 0.0
H4814 H 0.73587 0.79598 0.30384 0.0
H4815 H 0.71837 0.81418 0.32081 0.0
H4816 H 0.77191 0.77029 0.29626 0.0
H4817 H 0.78842 0.85797 0.27429 0.0
H4818 H 0.80485 0.85671 0.28716 0.0
H4819 H 0.77151 0.85687 0.28712 0.0
C4820 C 0.76945 0.84974 0.31873 0.0
C4821 C 0.74716 0.84113 0.32366 0.0
C4822 C 0.77969 0.83918 0.30874 0.0
C4823 C 0.76814 0.81953 0.30274 0.0
C4824 C 0.74593 0.81087 0.30778 0.0
H4825 H 0.7982 0.72742 0.23964 0.0
H4826 H 0.78006 0.74597 0.25638 0.0
C4827 C 0.73569 0.82149 0.31773 0.0
C4828 C 0.77881 0.808 0.29156 0.0
H4829 H 0.80523 0.82211 0.26597 0.0
C4830 C 0.77897 0.78198 0.28969 0.0
C4831 C 0.78857 0.8221 0.28245 0.0
C4832 C 0.78817 0.84994 0.28276 0.0
C4833 C 0.78855 0.7703 0.27977 0.0
C4834 C 0.7983 0.78441 0.27066 0.0
C4835 C 0.79815 0.81042 0.27253 0.0
C4836 C 0.80899 0.77292 0.25947 0.0
C4837 C 0.78894 0.74245 0.27944 0.0
C4838 C 0.83125 0.78156 0.25449 0.0
C4839 C 0.84156 0.77096 0.24455 0.0
C4840 C 0.83011 0.75136 0.23859 0.0
C4841 C 0.80771 0.74282 0.24345 0.0
C4842 C 0.79742 0.75335 0.25343 0.0
H4843 H 0.78875 0.7344 0.2879 0.0
H4844 H 0.77221 0.73572 0.27507 0.0
H4845 H 0.80554 0.73549 0.27503 0.0
H4846 H 0.84133 0.79639 0.25847 0.0
H4847 H 0.85897 0.77819 0.24154 0.0
H4848 H 0.60399 0.53214 0.07322 0.0
H4849 H 0.58557 0.55054 0.05645 0.0
H4850 H 0.53525 0.48923 0.05421 0.0
H4851 H 0.55331 0.47135 0.07102 0.0
H4852 H 0.58154 0.5425 1.0353 0.0
H4853 H 0.48383 0.53764 0.04767 0.0
H4854 H 0.5084 0.5314 0.05733 0.0
H4855 H 0.4979 0.50765 0.04795 0.0
C4856 C 0.58848 0.52281 0.06941 0.0
C4857 C 0.57987 0.50032 0.07418 0.0
C4858 C 0.57788 0.53338 0.05951 0.0
C4859 C 0.55786 0.52229 0.05362 0.0
C4860 C 0.54969 0.49954 0.05833 0.0
H4861 H 0.46774 0.55614 0.99106 0.0
H4862 H 0.48605 0.5385 1.00801 0.0
C4863 C 0.56037 0.48895 0.06815 0.0
C4864 C 0.5464 0.53372 0.0426 0.0
H4865 H 0.49132 0.54601 1.02864 0.0
C4866 C 0.56172 0.54326 1.03403 0.0
C4867 C 0.52039 0.53538 0.04024 0.0
C4868 C 0.50164 0.52773 0.04881 0.0
C4869 C 0.55248 0.55314 1.02367 0.0
C4870 C 0.52645 0.55472 1.02128 0.0
C4871 C 0.51114 0.54524 1.02988 0.0
C4872 C 0.51492 0.56588 1.01018 0.0
C4873 C 0.57137 0.56093 1.0152 0.0
C4874 C 0.52365 0.58798 1.00504 0.0
C4875 C 0.51313 0.59803 0.99506 0.0
C4876 C 0.49309 0.5868 0.98933 0.0
C4877 C 0.48367 0.56525 0.99462 0.0
C4878 C 0.49424 0.55512 1.00463 0.0
H4879 H 0.58906 0.55078 1.01628 0.0
H4880 H 0.56465 0.55767 1.00667 0.0
H4881 H 0.57534 0.58093 1.01623 0.0
H4882 H 0.53853 0.59817 1.00888 0.0
H4883 H 0.52085 0.61498 0.99178 0.0
H4884 H 0.97542 0.55647 0.57301 0.0
H4885 H 0.99368 0.53884 0.55602 0.0
H4886 H 0.04427 0.60002 0.55438 0.0
H4887 H 1.02645 0.61705 0.57144 0.0
H4888 H 0.99775 0.54703 0.53508 0.0
H4889 H 0.09565 0.55259 0.54703 0.0
H4890 H 0.07124 0.55844 0.55683 0.0
H4891 H 0.08139 0.58247 0.54752 0.0
C4892 C 0.99094 0.56594 0.56928 0.0
C4893 C 0.99972 0.58808 0.5743 0.0
C4894 C 1.00146 0.55582 0.55924 0.0
C4895 C 1.02154 0.56707 0.55344 0.0
C4896 C 1.02982 0.58955 0.55839 0.0
H4897 H 0.10924 0.53611 0.48971 0.0
H4898 H 0.09117 0.55355 0.50679 0.0
C4899 C 1.01925 0.59967 0.56837 0.0
C4900 C 1.03293 0.55607 0.54229 0.0
H4901 H 0.08786 0.54471 0.52798 0.0
C4902 C 1.01755 0.54653 0.53373 0.0
C4903 C 0.05891 0.55474 0.53979 0.0
C4904 C 0.07779 0.56235 0.5483 0.0
C4905 C 1.02671 0.53692 0.52329 0.0
C4906 C 0.05268 0.5357 0.52078 0.0
C4907 C 0.06806 0.54522 0.52934 0.0
C4908 C 0.06404 0.52474 0.50961 0.0
C4909 C 1.00785 0.52899 0.51483 0.0
C4910 C 0.05611 0.502 0.50479 0.0
C4911 C 0.06661 0.49195 0.49478 0.0
C4912 C 0.08568 0.50389 0.48869 0.0
C4913 C 0.0941 0.52632 0.49359 0.0
C4914 C 0.08369 0.53635 0.50366 0.0
H4915 H 0.98993 0.53864 0.51608 0.0
H4916 H 1.01434 0.53272 0.50629 0.0
H4917 H 1.00443 0.50885 0.51571 0.0
H4918 H 1.04196 0.49133 0.50892 0.0
H4919 H 0.05967 0.47439 0.4918 0.0
H4920 H 0.11844 0.55519 0.08168 0.0
H4921 H 0.10075 0.53786 0.06452 0.0
H4922 H 0.04788 0.59727 0.06366 0.0
H4923 H 0.06625 0.6149 0.08042 0.0
H4924 H 0.06306 0.51722 0.05583 0.0
H4925 H 0.06178 0.60455 1.03261 0.0
H4926 H 0.07636 0.60236 0.04596 0.0
H4927 H 0.0434 0.60731 0.04487 0.0
C4928 C 0.1029 0.56461 0.07794 0.0
C4929 C 0.0939 0.58665 0.08298 0.0
C4930 C 0.0926 0.55457 0.06785 0.0
C4931 C 0.07274 0.56599 0.06197 0.0
C4932 C 0.06357 0.58779 0.06721 0.0
H4933 H 0.97613 0.53148 1.00234 0.0
H4934 H 0.99685 0.54849 1.01875 0.0
C4935 C 0.07405 0.59794 0.07717 0.0
C4936 C 0.06172 0.55529 0.0507 0.0
H4937 H 1.03865 0.57159 1.02474 0.0
C4938 C 0.05805 0.52944 0.04909 0.0
C4939 C 0.05469 0.57011 0.04132 0.0
C4940 C 0.05949 0.59756 0.0412 0.0
C4941 C 0.04751 0.51871 0.03914 0.0
C4942 C 1.04003 0.53362 1.02989 0.0
C4943 C 0.0438 0.5594 1.03147 0.0
C4944 C 1.02786 0.52323 1.01885 0.0
C4945 C 0.04371 0.49113 0.03887 0.0
C4946 C 1.0377 0.50321 1.01248 0.0
C4947 C 1.0258 0.49361 1.00266 0.0
C4948 C 1.00342 0.5036 0.99838 0.0
C4949 C 0.99368 0.52351 1.00476 0.0
C4950 C 1.00567 0.5333 1.01444 0.0
H4951 H 0.04349 0.48307 0.04733 0.0
H4952 H 1.02612 0.4863 1.03466 0.0
H4953 H 0.05916 0.48245 1.03423 0.0
H4954 H 0.0548 0.49468 1.0151 0.0
H4955 H 1.03394 0.47776 0.99856 0.0
H4956 H 0.52299 0.47066 0.57734 0.0
H4957 H 0.54108 0.48856 0.56045 0.0
H4958 H 0.49172 0.5506 0.56321 0.0
H4959 H 0.47385 0.53264 0.58014 0.0
H4960 H 0.52891 0.49824 0.54013 0.0
H4961 H 0.54909 0.59173 0.55578 0.0
H4962 H 0.53963 0.56713 0.5649 0.0
H4963 H 0.51696 0.58415 0.55707 0.0
C4964 C 0.51625 0.48847 0.57458 0.0
C4965 C 0.49733 0.50031 0.58083 0.0
C4966 C 0.52667 0.49885 0.56464 0.0
C4967 C 0.51887 0.52186 0.56009 0.0
C4968 C 0.49955 0.53351 0.56626 0.0
H4969 H 0.56077 0.61522 0.49992 0.0
H4970 H 0.54252 0.59708 0.51669 0.0
C4971 C 0.4891 0.52307 0.57622 0.0
C4972 C 0.53022 0.53276 0.54895 0.0
H4973 H 0.55289 0.58612 0.53638 0.0
C4974 C 0.53418 0.51751 0.53949 0.0
C4975 C 0.53758 0.55804 0.5474 0.0
C4976 C 0.53587 0.5762 0.55683 0.0
C4977 C 0.54406 0.52634 0.52906 0.0
C4978 C 0.55155 0.55161 0.52751 0.0
C4979 C 0.54759 0.56684 0.53699 0.0
C4980 C 0.56289 0.5626 0.51637 0.0
C4981 C 0.54528 0.50822 0.5196 0.0
C4982 C 0.58122 0.55038 0.5098 0.0
C4983 C 0.59163 0.56093 0.49985 0.0
C4984 C 0.58454 0.58449 0.4957 0.0
C4985 C 0.56665 0.59686 0.50234 0.0
C4986 C 0.55615 0.58632 0.51222 0.0
H4987 H 0.5318 0.49292 0.52068 0.0
H4988 H 0.54147 0.51742 0.51157 0.0
H4989 H 0.56402 0.4999 0.51929 0.0
H4990 H 0.58838 0.53275 0.51252 0.0
H4991 H 0.60611 0.55083 0.49562 0.0
H4992 H 0.27672 0.13106 0.37503 0.0
H4993 H 0.30306 0.10531 0.38709 0.0
H4994 H 0.32188 0.16955 0.40612 0.0
H4995 H 0.29573 0.19512 0.39406 0.0
H4996 H 0.34853 0.09361 0.39372 0.0
H4997 H 0.31577 0.13135 0.43331 0.0
H4998 H 0.30062 0.13886 0.42046 0.0
H4999 H 0.32834 0.15496 0.42454 0.0
C5000 C 0.2862 0.1402 0.38175 0.0
C5001 C 0.28267 0.16649 0.38297 0.0
C5002 C 0.30196 0.12486 0.38895 0.0
C5003 C 0.31564 0.13383 0.39839 0.0
C5004 C 0.31212 0.16017 0.39954 0.0
H5005 H 0.38578 1.03503 0.45529 0.0
H5006 H 0.35925 0.06077 0.44324 0.0
C5007 C 0.29668 0.17553 0.39226 0.0
C5008 C 0.33309 0.11642 0.40658 0.0
H5009 H 0.35084 0.10532 0.43431 0.0
C5010 C 0.34865 0.09674 0.40258 0.0
C5011 C 0.33478 0.11822 0.41856 0.0
C5012 C 0.31887 0.13676 0.42455 0.0
C5013 C 0.36469 0.08081 0.40946 0.0
C5014 C 0.36687 0.08304 0.42142 0.0
C5015 C 0.35084 0.10231 0.42544 0.0
C5016 C 0.38474 0.06597 0.42956 0.0
C5017 C 0.37886 0.06076 0.40358 0.0
C5018 C 0.40974 0.05858 0.42704 0.0
C5019 C 0.42555 0.04351 0.43426 0.0
C5020 C 0.41845 1.03381 0.44489 0.0
C5021 C 0.39345 1.04108 0.44747 0.0
C5022 C 0.37766 0.0565 0.44029 0.0
H5023 H 0.37009 0.05578 0.39557 0.0
H5024 H 0.39782 0.06749 0.40178 0.0
H5025 H 0.38021 0.04382 0.40873 0.0
H5026 H 0.41776 0.06486 0.41934 0.0
H5027 H 0.44383 1.03913 0.43128 0.0
H5028 H 0.30949 0.13112 0.69667 0.0
H5029 H 0.28328 0.10497 0.68464 0.0
H5030 H 0.26325 0.16888 0.66569 0.0
H5031 H 0.28862 0.19487 0.67783 0.0
H5032 H 0.23584 0.09423 0.67803 0.0
H5033 H 0.27249 0.12905 0.63857 0.0
H5034 H 0.28695 0.13667 0.65159 0.0
H5035 H 0.25991 0.15325 0.64705 0.0
C5036 C 0.2997 0.14012 0.68998 0.0
C5037 C 0.30281 0.16647 0.68877 0.0
C5038 C 0.28407 0.12454 0.6828 0.0
C5039 C 0.27016 0.13331 0.67338 0.0
C5040 C 0.27322 0.15967 0.67225 0.0
H5041 H 0.20334 1.03068 0.61713 0.0
H5042 H 0.22921 0.0568 0.62929 0.0
C5043 C 0.28841 0.17526 0.67954 0.0
C5044 C 0.25295 0.11575 0.66517 0.0
H5045 H 0.23725 0.10332 0.6373 0.0
C5046 C 0.23654 0.09676 0.66914 0.0
C5047 C 0.25224 0.11688 0.65315 0.0
C5048 C 0.26894 0.13483 0.64726 0.0
C5049 C 0.22059 0.08088 0.66218 0.0
C5050 C 0.21955 0.08233 0.65017 0.0
C5051 C 0.23642 0.10089 0.64619 0.0
C5052 C 0.202 0.06512 0.64194 0.0
C5053 C 0.20514 0.06179 0.66803 0.0
C5054 C 0.17629 0.05937 0.64384 0.0
C5055 C 0.16077 0.04419 0.6365 0.0
C5056 C 0.16909 1.03257 0.62642 0.0
C5057 C 0.19478 1.03826 0.62449 0.0
C5058 C 0.21019 0.05387 0.63174 0.0
H5059 H 0.21273 0.0573 0.67633 0.0
H5060 H 0.18617 0.06918 0.6692 0.0
H5061 H 0.20394 0.04446 0.66312 0.0
H5062 H 0.16752 0.06711 0.6511 0.0
H5063 H 0.14168 1.04146 0.6389 0.0
H5064 H 0.21017 0.0555 0.95313 0.0
H5065 H 0.23568 1.02902 0.94096 0.0
H5066 H 0.17222 1.01455 0.92074 0.0
H5067 H 0.14679 1.04064 0.93296 0.0
H5068 H 0.24542 0.98283 0.93368 0.0
H5069 H 0.21354 1.02197 0.89425 0.0
H5070 H 0.2057 1.03617 0.9073 0.0
H5071 H 0.18856 1.00982 0.90237 0.0
C5072 C 0.20113 0.04692 0.94612 0.0
C5073 C 0.17508 0.05165 0.94465 0.0
C5074 C 0.21634 1.0311 0.93886 0.0
C5075 C 0.20757 1.01855 0.92906 0.0
C5076 C 0.18148 1.02331 0.92763 0.0
H5077 H 0.31033 0.95006 0.87291 0.0
H5078 H 0.28437 0.97643 0.88498 0.0
C5079 C 0.16619 1.03876 0.93499 0.0
C5080 C 0.22491 1.00105 0.9208 0.0
H5081 H 0.23817 0.98596 0.89291 0.0
C5082 C 0.24328 0.98393 0.92478 0.0
C5083 C 0.22434 1.0008 0.90877 0.0
C5084 C 0.20721 1.01827 0.90284 0.0
C5085 C 0.25904 0.96779 0.91783 0.0
C5086 C 0.25812 0.96717 0.9058 0.0
C5087 C 0.24019 0.98473 0.90181 0.0
C5088 C 0.27521 0.94935 0.89757 0.0
C5089 C 0.27749 0.95167 0.92373 0.0
C5090 C 0.28043 0.9235 0.89943 0.0
C5091 C 0.29553 0.90772 0.89215 0.0
C5092 C 0.30759 0.91581 0.88214 0.0
C5093 C 0.30239 0.94162 0.88022 0.0
C5094 C 0.28688 0.95733 0.88742 0.0
H5095 H 0.28189 0.95896 0.9321 0.0
H5096 H 0.26954 0.9329 0.92476 0.0
H5097 H 0.29495 0.95008 0.91894 0.0
H5098 H 0.27233 0.91481 0.90663 0.0
H5099 H 0.29784 0.88858 0.89454 0.0
H5100 H 0.29576 0.88841 0.1765 0.0
H5101 H 0.3216 0.91499 0.16465 0.0
H5102 H 0.29512 0.97885 0.18211 0.0
H5103 H 0.26891 0.95232 0.19369 0.0
H5104 H 0.35838 0.94198 0.16131 0.0
H5105 H 0.29308 1.01882 0.15626 0.0
H5106 H 0.29982 1.01335 0.17057 0.0
H5107 H 0.2837 0.99018 0.16257 0.0
C5108 C 0.29496 0.90815 0.17795 0.0
C5109 C 0.27882 0.91688 0.18661 0.0
C5110 C 0.31042 0.92403 0.17089 0.0
C5111 C 0.31148 0.95065 0.17153 0.0
C5112 C 0.29554 0.95929 0.18034 0.0
H5113 H 0.37832 0.06362 0.11939 0.0
H5114 H 0.35213 1.0375 0.13134 0.0
C5115 C 0.28008 0.9434 0.18741 0.0
C5116 C 0.32893 0.9683 0.16342 0.0
H5117 H 0.33364 1.02622 0.15 0.0
C5118 C 0.35237 0.96038 0.15901 0.0
C5119 C 0.3231 0.99304 0.15946 0.0
C5120 C 0.2985 1.00438 0.16233 0.0
C5121 C 0.36872 0.97501 0.15172 0.0
C5122 C 0.36335 1.00012 0.14812 0.0
C5123 C 0.33967 1.00785 0.15233 0.0
C5124 C 0.38104 1.01778 0.14013 0.0
C5125 C 0.3917 0.96229 0.14757 0.0
C5126 C 0.40772 1.01804 0.14017 0.0
C5127 C 0.42327 1.03353 0.13301 0.0
C5128 C 0.41425 0.05096 0.12498 0.0
C5129 C 0.38759 0.05113 0.12501 0.0
C5130 C 0.37195 1.03557 0.13219 0.0
H5131 H 0.38972 0.94185 0.14776 0.0
H5132 H 0.3961 0.96791 0.13896 0.0
H5133 H 0.40744 0.96723 0.15302 0.0
H5134 H 0.41724 1.00635 0.14602 0.0
H5135 H 0.44302 1.03167 0.13388 0.0
H5136 H 0.78211 0.89047 0.68544 0.0
H5137 H 0.7565 0.91712 0.67353 0.0
H5138 H 0.7857 0.98116 0.6899 0.0
H5139 H 0.81163 0.95454 0.70156 0.0
H5140 H 0.72021 0.94519 0.67029 0.0
H5141 H 0.78773 1.0193 0.66346 0.0
H5142 H 0.79648 0.99078 0.67005 0.0
H5143 H 0.78161 1.01502 0.67791 0.0
C5144 C 0.78355 0.91026 0.68665 0.0
C5145 C 0.80032 0.91899 0.69506 0.0
C5146 C 0.76822 0.92619 0.67954 0.0
C5147 C 0.76796 0.95286 0.67986 0.0
C5148 C 0.78459 0.96152 0.6884 0.0
H5149 H 0.70206 0.06459 0.62692 0.0
H5150 H 0.72797 1.03827 0.63894 0.0
C5151 C 0.7999 0.94558 0.69551 0.0
C5152 C 0.75063 0.97056 0.67171 0.0
H5153 H 0.74709 1.02773 0.65757 0.0
C5154 C 0.72669 0.96321 0.66768 0.0
C5155 C 0.75705 0.99482 0.66735 0.0
C5156 C 0.78216 1.00547 0.66978 0.0
C5157 C 0.71041 0.97794 0.66039 0.0
C5158 C 0.71641 1.00261 0.6564 0.0
C5159 C 0.74058 1.00975 0.66022 0.0
C5160 C 0.69887 1.02037 0.64836 0.0
C5161 C 0.68677 0.96582 0.6567 0.0
C5162 C 0.6722 1.0217 0.64873 0.0
C5163 C 0.6568 1.03734 0.64156 0.0
C5164 C 0.66607 0.05379 0.63315 0.0
C5165 C 0.6927 0.05288 0.63286 0.0
C5166 C 0.70815 1.03722 0.64006 0.0
H5167 H 0.68804 0.94534 0.65715 0.0
H5168 H 0.67153 0.97172 0.66226 0.0
H5169 H 0.68208 0.97102 0.64806 0.0
H5170 H 0.66262 1.01081 0.65487 0.0
H5171 H 0.63698 1.03651 0.64274 0.0
H5172 H 0.88317 0.06009 0.4467 0.0
H5173 H 0.85671 1.03449 0.43459 0.0
H5174 H 0.9195 1.01803 0.41419 0.0
H5175 H 0.94568 0.04356 0.4262 0.0
H5176 H 0.84374 0.99065 0.42727 0.0
H5177 H 0.88035 1.02391 0.3876 0.0
H5178 H 0.90422 1.01084 0.39607 0.0
H5179 H 0.88857 1.03864 0.40047 0.0
C5180 C 0.89184 0.05133 0.43964 0.0
C5181 C 0.91796 0.05536 0.43803 0.0
C5182 C 0.87605 1.03598 0.43241 0.0
C5183 C 0.88431 1.02317 0.42257 0.0
C5184 C 0.9105 1.02715 0.42106 0.0
H5185 H 0.78444 0.95473 0.36539 0.0
H5186 H 0.81075 0.98063 0.37747 0.0
C5187 C 0.92629 1.04224 0.42833 0.0
C5188 C 0.86639 1.0061 0.41438 0.0
H5189 H 0.85419 0.98901 0.38661 0.0
C5190 C 0.84661 0.9907 0.41839 0.0
C5191 C 0.86772 1.00463 0.40235 0.0
C5192 C 0.88613 1.02051 0.3963 0.0
C5193 C 0.83021 0.97504 0.41153 0.0
C5194 C 0.83204 0.97298 0.39953 0.0
C5195 C 0.85142 0.98885 0.39549 0.0
C5196 C 0.81446 0.95548 0.39137 0.0
C5197 C 0.81007 0.9612 0.41749 0.0
C5198 C 0.80589 0.93087 0.39396 0.0
C5199 C 0.79038 0.91544 0.38673 0.0
C5200 C 0.78146 0.92246 0.37595 0.0
C5201 C 0.78986 0.94709 0.37331 0.0
C5202 C 0.80564 0.96251 0.38052 0.0
H5203 H 0.80545 0.97001 0.42554 0.0
H5204 H 0.79298 0.96023 0.41242 0.0
H5205 H 0.81651 0.94211 0.41923 0.0
H5206 H 0.81151 0.92283 0.40175 0.0
H5207 H 0.78489 0.89761 0.38988 0.0
H5208 H 0.88941 1.03307 0.1238 0.0
H5209 H 0.86277 0.05904 0.13571 0.0
H5210 H 0.92327 0.06954 0.15813 0.0
H5211 H 0.94975 0.04386 0.14625 0.0
H5212 H 0.85323 0.10454 0.1436 0.0
H5213 H 0.87802 0.06074 0.18306 0.0
H5214 H 0.90458 0.0729 0.17603 0.0
H5215 H 0.88752 0.04763 0.17 0.0
C5216 C 0.89752 1.04058 0.13127 0.0
C5217 C 0.92308 1.03492 0.13349 0.0
C5218 C 0.88166 0.05613 0.13836 0.0
C5219 C 0.88927 0.0674 0.14865 0.0
C5220 C 0.91487 0.06172 0.15081 0.0
H5221 H 0.7823 0.13394 0.20335 0.0
H5222 H 0.80878 0.10792 0.19141 0.0
C5223 C 0.93079 0.04654 0.14365 0.0
C5224 C 0.8713 0.0846 0.15669 0.0
H5225 H 0.85467 0.09762 0.18441 0.0
C5226 C 0.85407 0.10261 0.15252 0.0
C5227 C 0.87019 0.08372 0.16871 0.0
C5228 C 0.88582 0.0651 0.17478 0.0
C5229 C 0.83784 0.11858 0.1593 0.0
C5230 C 0.83717 0.11812 0.17133 0.0
C5231 C 0.85395 0.09968 0.17549 0.0
C5232 C 0.81959 0.13568 0.17939 0.0
C5233 C 0.82065 0.13569 0.15319 0.0
C5234 C 0.81502 0.16171 0.17777 0.0
C5235 C 0.79949 0.17724 0.18495 0.0
C5236 C 0.78641 0.16871 0.19461 0.0
C5237 C 0.79095 0.1427 0.19629 0.0
C5238 C 0.80682 0.1272 0.18918 0.0
H5239 H 0.81713 0.12914 0.14462 0.0
H5240 H 0.80265 0.13745 0.15755 0.0
H5241 H 0.82926 0.15427 0.15265 0.0
H5242 H 0.82397 0.17074 0.17087 0.0
H5243 H 0.79766 0.1965 0.18277 0.0
H5244 H 0.63652 0.04699 0.92605 0.0
H5245 H 0.66296 0.07242 0.91397 0.0
H5246 H 0.72681 0.04789 0.93192 0.0
H5247 H 0.70048 1.0221 0.94371 0.0
H5248 H 0.68942 0.10925 0.91011 0.0
H5249 H 0.76776 0.04529 0.90646 0.0
H5250 H 0.7391 1.03571 0.91269 0.0
H5251 H 0.76161 0.05286 0.92064 0.0
C5252 C 0.65623 0.04651 0.92756 0.0
C5253 C 0.66499 1.031 0.93644 0.0
C5254 C 0.67205 0.06175 0.92036 0.0
C5255 C 0.69864 0.06325 0.92106 0.0
C5256 C 0.70729 0.04793 0.93008 0.0
H5257 H 0.81278 0.12864 0.86897 0.0
H5258 H 0.7866 0.10288 0.88111 0.0
C5259 C 0.69148 1.03267 0.93728 0.0
C5260 C 0.71623 0.08051 0.91281 0.0
H5261 H 0.77456 0.08555 0.89974 0.0
C5262 C 0.70802 0.10347 0.90803 0.0
C5263 C 0.74124 0.07495 0.9091 0.0
C5264 C 0.75298 0.0508 0.91236 0.0
C5265 C 0.72258 0.11962 0.9006 0.0
C5266 C 0.74795 0.11457 0.89726 0.0
C5267 C 0.75598 0.09135 0.90185 0.0
C5268 C 0.76557 0.13205 0.88912 0.0
C5269 C 0.70954 0.14199 0.89605 0.0
C5270 C 0.76513 0.15875 0.88865 0.0
C5271 C 0.78065 0.17406 0.88137 0.0
C5272 C 0.79878 0.16468 0.87371 0.0
C5273 C 0.79967 0.13806 0.87428 0.0
C5274 C 0.78409 0.12271 0.88156 0.0
H5275 H 0.68914 0.13961 0.89616 0.0
H5276 H 0.71397 0.15826 0.90129 0.0
H5277 H 0.71533 0.14584 0.8874 0.0
H5278 H 0.75287 0.1685 0.89419 0.0
H5279 H 0.77836 0.19392 0.88189 0.0
H5280 H 0.8114 0.69263 0.89107 0.0
H5281 H 0.83693 0.66638 0.90315 0.0
H5282 H 0.80424 0.60184 0.88861 0.0
H5283 H 0.77823 0.62809 0.8769 0.0
H5284 H 0.87205 0.63791 0.90702 0.0
H5285 H 0.80415 0.56484 0.91517 0.0
H5286 H 0.80957 0.56844 0.90062 0.0
H5287 H 0.79532 0.59316 0.90844 0.0
C5288 C 0.80895 0.67284 0.89037 0.0
C5289 C 0.79103 0.66395 0.88247 0.0
C5290 C 0.82436 0.65709 0.89756 0.0
C5291 C 0.82376 0.63039 0.89783 0.0
C5292 C 0.8061 0.62155 0.88974 0.0
H5293 H 0.89051 0.51905 0.95102 0.0
H5294 H 0.86457 0.54506 0.9389 0.0
C5295 C 0.79067 0.6373 0.88256 0.0
C5296 C 0.84127 0.61286 0.90607 0.0
H5297 H 0.84488 0.55632 0.92077 0.0
C5298 C 0.86547 0.6201 0.90986 0.0
C5299 C 0.83485 0.58887 0.91075 0.0
C5300 C 0.80952 0.57835 0.90867 0.0
C5301 C 0.88189 0.60557 0.9172 0.0
C5302 C 0.87589 0.58113 0.92151 0.0
C5303 C 0.85148 0.5741 0.91791 0.0
C5304 C 0.89359 0.56352 0.92964 0.0
C5305 C 0.90571 0.61774 0.92061 0.0
C5306 C 0.92032 0.56251 0.92945 0.0
C5307 C 0.93578 0.54706 0.93673 0.0
C5308 C 0.92657 0.53037 0.94506 0.0
C5309 C 0.89989 0.53091 0.94515 0.0
C5310 C 0.8844 0.54643 0.93788 0.0
H5311 H 0.90462 0.63819 0.91988 0.0
H5312 H 0.91055 0.61311 0.92929 0.0
H5313 H 0.92077 0.61134 0.91506 0.0
H5314 H 0.92997 0.57351 0.92338 0.0
H5315 H 0.95562 0.54824 0.93567 0.0
H5316 H 0.69801 0.52404 0.1187 0.0
H5317 H 0.72399 0.55013 0.13074 0.0
H5318 H 0.65928 0.57287 0.1486 0.0
H5319 H 0.63351 0.5477 0.13637 0.0
H5320 H 0.74536 0.5606 0.14838 0.0
H5321 H 0.68104 0.63832 0.15303 0.0
H5322 H 0.66716 0.61006 0.15761 0.0
H5323 H 0.67526 0.61405 0.14319 0.0
C5324 C 0.68878 0.53463 0.12508 0.0
C5325 C 0.66225 0.53262 0.12586 0.0
C5326 C 0.70429 0.55021 0.1323 0.0
C5327 C 0.69522 0.56578 0.14115 0.0
C5328 C 0.66869 0.56321 0.14202 0.0
H5329 H 0.7733 0.69479 0.18091 0.0
H5330 H 0.74805 0.66831 0.16885 0.0
C5331 C 0.65321 0.5478 0.13478 0.0
C5332 C 0.71286 0.58343 0.1492 0.0
H5333 H 0.71514 0.63836 0.16507 0.0
C5334 C 0.73811 0.57753 0.1519 0.0
C5335 C 0.70595 0.60685 0.15429 0.0
C5336 C 0.68103 0.61794 0.15183 0.0
C5337 C 0.75479 0.59244 0.15894 0.0
C5338 C 0.7475 0.61529 0.16445 0.0
C5339 C 0.72241 0.62142 0.16156 0.0
C5340 C 0.76494 0.6329 0.17261 0.0
C5341 C 0.78101 0.58342 0.15997 0.0
C5342 C 0.78456 0.62438 0.17981 0.0
C5343 C 0.79991 0.6403 0.18692 0.0
C5344 C 0.79736 0.66672 0.18785 0.0
C5345 C 0.77747 0.67522 0.18088 0.0
C5346 C 0.76224 0.65933 0.17372 0.0
H5347 H 0.78621 0.57112 0.15297 0.0
H5348 H 0.79422 0.59911 0.16018 0.0
H5349 H 0.78287 0.57256 0.16772 0.0
H5350 H 0.78815 0.60478 0.18027 0.0
H5351 H 0.81407 0.63143 0.19183 0.0
H5352 H 0.81202 0.45432 0.37547 0.0
H5353 H 0.78572 0.48054 0.38744 0.0
H5354 H 0.7607 0.41596 0.40467 0.0
H5355 H 0.78613 0.38989 0.39253 0.0
H5356 H 0.73789 0.49262 0.39318 0.0
H5357 H 0.76917 0.45317 0.43269 0.0
H5358 H 0.78464 0.44607 0.41984 0.0
H5359 H 0.75653 0.43027 0.42354 0.0
C5360 C 0.80109 0.44517 0.38176 0.0
C5361 C 0.80288 0.41861 0.38252 0.0
C5362 C 0.78542 0.4608 0.3889 0.0
C5363 C 0.77011 0.45183 0.39783 0.0
C5364 C 0.77182 0.42526 0.39851 0.0
H5365 H 0.70224 0.5539 0.45411 0.0
H5366 H 0.7284 0.52768 0.44208 0.0
C5367 C 0.78707 0.40964 0.39124 0.0
C5368 C 0.75285 0.46945 0.406 0.0
H5369 H 0.73506 0.48049 0.43374 0.0
C5370 C 0.73764 0.4894 0.40203 0.0
C5371 C 0.75096 0.46744 0.41796 0.0
C5372 C 0.7663 0.4483 0.42384 0.0
C5373 C 0.72171 0.50542 0.40894 0.0
C5374 C 0.7195 0.50314 0.42088 0.0
C5375 C 0.73519 0.48359 0.42488 0.0
C5376 C 0.70187 0.52045 0.42903 0.0
C5377 C 0.70754 0.52555 0.40313 0.0
C5378 C 0.67645 0.52683 0.42683 0.0
C5379 C 0.66077 0.54204 0.43409 0.0
C5380 C 0.66864 0.55313 0.44435 0.0
C5381 C 0.69405 0.54684 0.44657 0.0
C5382 C 0.70962 0.53115 0.43941 0.0
H5383 H 0.71601 0.5303 0.39503 0.0
H5384 H 0.68841 0.51906 0.40156 0.0
H5385 H 0.7066 0.54255 0.40827 0.0
H5386 H 0.66804 0.51955 0.4194 0.0
H5387 H 0.6419 0.54523 0.43147 0.0
H5388 H 0.78183 0.45092 0.69623 0.0
H5389 H 0.80814 0.47734 0.68438 0.0
H5390 H 0.81924 0.41641 0.6622 0.0
H5391 H 0.79326 0.39019 0.67402 0.0
H5392 H 0.85384 0.4868 0.67667 0.0
H5393 H 0.81121 0.46109 0.63707 0.0
H5394 H 0.79773 0.45189 0.65008 0.0
H5395 H 0.82317 0.43468 0.64427 0.0
C5396 C 0.78955 0.44267 0.68883 0.0
C5397 C 0.78393 0.41706 0.68665 0.0
C5398 C 0.8053 0.4584 0.68177 0.0
C5399 C 0.81685 0.45061 0.67156 0.0
C5400 C 0.81122 0.42496 0.66946 0.0
H5401 H 0.88474 0.5562 0.61672 0.0
H5402 H 0.85856 0.52982 0.62862 0.0
C5403 C 0.79584 0.40919 0.67658 0.0
C5404 C 0.83428 0.46841 0.66354 0.0
H5405 H 0.84811 0.48437 0.63583 0.0
C5406 C 0.85215 0.48574 0.66774 0.0
C5407 C 0.83376 0.46924 0.65151 0.0
C5408 C 0.81534 0.45347 0.6454 0.0
C5409 C 0.86832 0.50182 0.66098 0.0
C5410 C 0.86822 0.5022 0.64895 0.0
C5411 C 0.84991 0.48532 0.64475 0.0
C5412 C 0.88597 0.51963 0.64089 0.0
C5413 C 0.88522 0.51915 0.66712 0.0
C5414 C 0.91191 0.52448 0.64266 0.0
C5415 C 0.92755 0.53991 0.63549 0.0
C5416 C 0.91924 0.55257 0.62569 0.0
C5417 C 0.89334 0.54775 0.62387 0.0
C5418 C 0.87774 0.53199 0.63096 0.0
H5419 H 0.87845 0.52285 0.67564 0.0
H5420 H 0.90379 0.51056 0.66779 0.0
H5421 H 0.88707 0.53707 0.66271 0.0
H5422 H 0.92078 0.51583 0.64968 0.0
H5423 H 0.94673 0.54199 0.6378 0.0
H5424 H 0.2877 0.38962 0.18716 0.0
H5425 H 0.26238 0.41611 0.17511 0.0
H5426 H 0.29105 0.48028 0.19158 0.0
H5427 H 0.31705 0.4538 0.20325 0.0
H5428 H 0.22669 0.44338 0.17128 0.0
H5429 H 0.29247 0.51953 0.16568 0.0
H5430 H 0.30172 0.49099 0.1721 0.0
H5431 H 0.28588 0.51451 0.18004 0.0
C5432 C 0.28927 0.4094 0.18829 0.0
C5433 C 0.306 0.4182 0.1967 0.0
C5434 C 0.27401 0.42525 0.18113 0.0
C5435 C 0.27364 0.45192 0.18144 0.0
C5436 C 0.29009 0.46065 0.19004 0.0
H5437 H 0.20775 0.56519 0.12918 0.0
H5438 H 0.23364 0.53896 0.14123 0.0
C5439 C 0.30542 0.44479 0.19717 0.0
C5440 C 0.25631 0.46951 0.17323 0.0
H5441 H 0.25194 0.52712 0.15952 0.0
C5442 C 0.23282 0.46167 0.16888 0.0
C5443 C 0.2623 0.49409 0.16912 0.0
C5444 C 0.28702 0.5053 0.17184 0.0
C5445 C 0.21658 0.47619 0.16149 0.0
C5446 C 0.22207 0.5012 0.15778 0.0
C5447 C 0.2458 0.50885 0.16194 0.0
C5448 C 0.20452 0.51881 0.14969 0.0
C5449 C 0.19363 0.46344 0.15738 0.0
C5450 C 0.17781 0.51886 0.14949 0.0
C5451 C 0.16244 0.53433 0.14225 0.0
C5452 C 0.17174 0.55199 0.13437 0.0
C5453 C 0.19837 0.55245 0.13467 0.0
C5454 C 0.21381 0.53685 0.1419 0.0
H5455 H 0.19554 0.443 0.1577 0.0
H5456 H 0.17782 0.4686 0.16277 0.0
H5457 H 0.18938 0.46879 0.14872 0.0
H5458 H 0.16811 0.50706 0.15524 0.0
H5459 H 0.14261 0.53242 0.14298 0.0
H5460 H 0.37943 0.56504 0.94154 0.0
H5461 H 0.35337 0.53882 0.92957 0.0
H5462 H 0.41835 0.50169 0.91777 0.0
H5463 H 0.44392 0.52689 0.93004 0.0
H5464 H 0.33599 0.52564 0.91135 0.0
H5465 H 0.38789 0.43911 0.91582 0.0
H5466 H 0.39452 0.46544 0.92442 0.0
H5467 H 0.40731 0.46326 0.91062 0.0
C5468 C 0.38864 0.55116 0.93656 0.0
C5469 C 0.41517 0.54942 0.93741 0.0
C5470 C 0.3731 0.53555 0.92936 0.0
C5471 C 0.38211 0.51612 0.92219 0.0
C5472 C 0.40874 0.51474 0.92298 0.0
H5473 H 0.29602 0.38719 0.8856 0.0
H5474 H 0.3217 0.41361 0.89756 0.0
C5475 C 0.42422 0.53024 0.93019 0.0
C5476 C 0.36439 0.49852 0.91414 0.0
H5477 H 0.35801 0.43962 0.9017 0.0
C5478 C 0.34142 0.50686 0.9094 0.0
C5479 C 0.3689 0.47289 0.91102 0.0
C5480 C 0.39079 0.45945 0.91579 0.0
C5481 C 0.3248 0.49217 0.90224 0.0
C5482 C 0.32988 0.46691 0.8987 0.0
C5483 C 0.35259 0.45842 0.90363 0.0
C5484 C 0.3124 0.44934 0.89053 0.0
C5485 C 0.3009 0.50429 0.89889 0.0
C5486 C 0.29686 0.45799 0.88157 0.0
C5487 C 0.28137 0.44218 0.87447 0.0
C5488 C 0.27976 0.41569 0.8753 0.0
C5489 C 0.29551 0.40691 0.88409 0.0
C5490 C 0.3109 0.42273 0.89123 0.0
H5491 H 0.29569 0.51941 0.90467 0.0
H5492 H 0.30313 0.51257 0.89054 0.0
H5493 H 0.28554 0.49071 0.89867 0.0
H5494 H 0.29678 0.4775 0.87971 0.0
H5495 H 0.27054 0.45116 0.8681 0.0
H5496 H 0.44262 0.55502 0.64021 0.0
H5497 H 0.41662 0.58096 0.65227 0.0
H5498 H 0.35175 0.54943 0.63754 0.0
H5499 H 0.37774 0.52304 0.62582 0.0
H5500 H 0.38851 0.61677 0.65575 0.0
H5501 H 0.31536 0.54924 0.66439 0.0
H5502 H 0.34348 0.54022 0.65752 0.0
H5503 H 0.31865 0.55447 0.64982 0.0
C5504 C 0.42279 0.55304 0.63944 0.0
C5505 C 0.41365 0.53542 0.63146 0.0
C5506 C 0.40723 0.56861 0.64662 0.0
C5507 C 0.38055 0.56841 0.64681 0.0
C5508 C 0.37148 0.55098 0.63868 0.0
H5509 H 0.27136 0.63645 0.70036 0.0
H5510 H 0.29704 0.61015 0.68824 0.0
C5511 C 0.38704 0.53537 0.6315 0.0
C5512 C 0.36328 0.58611 0.65502 0.0
H5513 H 0.30707 0.59015 0.66992 0.0
C5514 C 0.37072 0.61032 0.65869 0.0
C5515 C 0.33937 0.57981 0.6598 0.0
C5516 C 0.32873 0.55448 0.65781 0.0
C5517 C 0.35641 0.62693 0.66602 0.0
C5518 C 0.33205 0.62104 0.67043 0.0
C5519 C 0.32483 0.59661 0.66695 0.0
C5520 C 0.31472 0.63892 0.67854 0.0
C5521 C 0.36867 0.65081 0.6693 0.0
C5522 C 0.3135 0.6656 0.67809 0.0
C5523 C 0.29826 0.68126 0.68535 0.0
C5524 C 0.28204 0.67229 0.6939 0.0
C5525 C 0.28283 0.64564 0.69428 0.0
C5526 C 0.29815 0.62994 0.68702 0.0
H5527 H 0.38911 0.64962 0.66854 0.0
H5528 H 0.36229 0.66575 0.66369 0.0
H5529 H 0.36411 0.65589 0.67797 0.0
H5530 H 0.32417 0.67502 0.67183 0.0
H5531 H 0.29922 0.70102 0.68411 0.0
H5532 H 0.19988 0.53499 0.44509 0.0
H5533 H 0.22588 0.561 0.43295 0.0
H5534 H 0.16324 0.5748 0.41213 0.0
H5535 H 0.13733 0.54917 0.42431 0.0
H5536 H 0.23574 0.60705 0.42544 0.0
H5537 H 0.20575 0.56608 0.38607 0.0
H5538 H 0.18036 0.57851 0.39385 0.0
H5539 H 0.19738 0.55244 0.39916 0.0
C5540 C 0.19113 0.54332 0.43795 0.0
C5541 C 0.16515 0.53858 0.43629 0.0
C5542 C 0.20663 0.55887 0.43071 0.0
C5543 C 0.19823 0.57106 0.42077 0.0
C5544 C 0.17221 0.56628 0.41915 0.0
H5545 H 0.30312 0.63745 0.36502 0.0
H5546 H 0.27683 0.61146 0.37708 0.0
C5547 C 0.15664 0.55112 0.42649 0.0
C5548 C 0.21587 0.58823 0.41253 0.0
H5549 H 0.23027 0.60214 0.38464 0.0
C5550 C 0.23399 0.60556 0.41653 0.0
C5551 C 0.21582 0.58794 0.40049 0.0
C5552 C 0.19903 0.57014 0.39457 0.0
C5553 C 0.24999 0.62143 0.40959 0.0
C5554 C 0.24957 0.62153 0.39756 0.0
C5555 C 0.23189 0.60375 0.39355 0.0
C5556 C 0.26689 0.63905 0.38934 0.0
C5557 C 0.26813 0.63785 0.41552 0.0
C5558 C 0.27188 0.66499 0.39104 0.0
C5559 C 0.28718 0.68051 0.38376 0.0
C5560 C 0.29965 0.67211 0.3739 0.0
C5561 C 0.2948 0.64616 0.37218 0.0
C5562 C 0.27908 0.63067 0.37937 0.0
H5563 H 0.27223 0.63091 0.42398 0.0
H5564 H 0.28577 0.63932 0.41086 0.0
H5565 H 0.26006 0.65663 0.41635 0.0
H5566 H 0.26348 0.67394 0.39811 0.0
H5567 H 0.28947 0.69963 0.38609 0.0
H5568 H 0.26036 0.04512 0.33361 0.0
H5569 H 0.2754 1.02023 0.3182 0.0
H5570 H 0.32133 0.0808 0.30738 0.0
H5571 H 0.30621 0.10601 0.32287 0.0
H5572 H 0.29364 0.06209 0.29079 0.0
H5573 H 0.33981 0.98498 0.3124 0.0
H5574 H 0.30922 0.98961 0.31773 0.0
H5575 H 0.33207 1.01362 0.31929 0.0
C5576 C 0.2741 0.05298 0.32811 0.0
C5577 C 0.28221 0.07747 0.32948 0.0
C5578 C 0.28277 1.03869 0.31932 0.0
C5579 C 0.29992 0.04846 0.31179 0.0
C5580 C 0.30829 0.07283 0.31318 0.0
H5581 H 0.3326 0.97302 0.24839 0.0
H5582 H 0.3396 1.00001 0.26448 0.0
C5583 C 0.29954 0.08723 0.32198 0.0
C5584 C 0.30691 1.03389 0.30189 0.0
H5585 H 0.32411 0.9758 0.29392 0.0
C5586 C 0.30097 0.04347 0.29143 0.0
C5587 C 0.3166 1.00965 0.30275 0.0
C5588 C 0.32504 0.999 0.31365 0.0
C5589 C 0.30261 1.02874 0.2819 0.0
C5590 C 0.31045 1.00393 0.28291 0.0
C5591 C 0.31793 0.99483 0.29324 0.0
C5592 C 0.30798 0.98646 0.27361 0.0
C5593 C 0.29442 1.03918 0.27091 0.0
C5594 C 0.28819 0.96975 0.27359 0.0
C5595 C 0.28411 0.9545 0.26447 0.0
C5596 C 0.29987 0.95562 0.25524 0.0
C5597 C 0.32024 0.97177 0.25543 0.0
C5598 C 0.32421 0.9872 0.26456 0.0
H5599 H 0.28763 0.05852 0.27164 0.0
H5600 H 0.31013 1.03885 0.265 0.0
H5601 H 0.27945 1.02757 0.26737 0.0
H5602 H 0.27551 0.96898 0.28054 0.0
H5603 H 0.26848 0.94198 0.26459 0.0
H5604 H 0.19443 0.07193 0.54439 0.0
H5605 H 0.23147 0.09277 0.53719 0.0
H5606 H 0.27746 0.04462 0.55683 0.0
H5607 H 0.24098 1.0238 0.56394 0.0
H5608 H 0.2937 0.09516 0.55631 0.0
H5609 H 0.27471 0.05614 0.51433 0.0
H5610 H 0.25168 0.07534 0.5208 0.0
H5611 H 0.25822 0.04528 0.52637 0.0
C5612 C 0.21247 0.06595 0.54721 0.0
C5613 C 0.21478 0.04616 0.55471 0.0
C5614 C 0.23355 0.07792 0.54313 0.0
C5615 C 0.25716 0.07013 0.54645 0.0
C5616 C 0.25939 0.05108 0.55425 0.0
H5617 H 0.39591 1.03209 0.5383 0.0
H5618 H 0.35924 0.05293 0.54508 0.0
C5619 C 0.23847 1.03919 0.55832 0.0
C5620 C 0.27991 0.07947 0.54111 0.0
H5621 H 0.31495 0.06848 0.51819 0.0
C5622 C 0.2982 0.09008 0.54785 0.0
C5623 C 0.28563 0.07318 0.53003 0.0
C5624 C 0.26665 0.06179 0.52242 0.0
C5625 C 0.3227 0.09218 0.54415 0.0
C5626 C 0.32898 0.08309 0.53355 0.0
C5627 C 0.31013 0.07528 0.52636 0.0
C5628 C 0.35467 0.0762 0.53063 0.0
C5629 C 0.34188 0.10265 0.55189 0.0
C5630 C 0.36477 0.08269 0.52033 0.0
C5631 C 0.38593 0.07069 0.51639 0.0
C5632 C 0.39712 0.05177 0.52264 0.0
C5633 C 0.38805 0.04676 0.53331 0.0
C5634 C 0.36702 0.0588 0.53725 0.0
H5635 H 0.33379 0.1175 0.55713 0.0
H5636 H 0.34848 0.08782 0.55751 0.0
H5637 H 0.35797 0.11024 0.54729 0.0
H5638 H 0.35544 0.09596 0.51507 0.0
H5639 H 0.39274 0.07528 0.50821 0.0
H5640 H 0.31924 0.10196 0.75574 0.0
H5641 H 0.3025 0.06665 0.76568 0.0
H5642 H 0.25366 0.11497 0.7839 0.0
H5643 H 0.27068 0.15069 0.77398 0.0
H5644 H 0.28007 0.087 0.79734 0.0
H5645 H 0.24072 1.02608 0.76532 0.0
H5646 H 0.27144 1.035 0.76149 0.0
H5647 H 0.24763 0.05823 0.76268 0.0
C5648 C 0.30439 0.10504 0.76161 0.0
C5649 C 0.29625 0.12909 0.76408 0.0
C5650 C 0.29472 0.08477 0.76726 0.0
C5651 C 0.27646 0.08807 0.77539 0.0
C5652 C 0.26758 0.11199 0.77758 0.0
H5653 H 0.2489 0.97329 0.82586 0.0
H5654 H 0.2392 1.00807 0.81355 0.0
C5655 C 0.27739 0.13236 0.77197 0.0
C5656 C 0.26963 0.06704 0.78262 0.0
H5657 H 0.25675 1.00527 0.78187 0.0
C5658 C 0.27422 0.06931 0.79401 0.0
C5659 C 0.26193 0.04398 0.77828 0.0
C5660 C 0.2549 1.04079 0.76628 0.0
C5661 C 0.27333 0.04869 0.80102 0.0
C5662 C 0.26757 1.0253 0.79649 0.0
C5663 C 0.26134 1.02327 0.78526 0.0
C5664 C 0.27108 1.00254 0.80302 0.0
C5665 C 0.28024 0.05169 0.81305 0.0
C5666 C 0.2918 0.98768 0.80093 0.0
C5667 C 0.29741 0.96795 0.80792 0.0
C5668 C 0.28226 0.96268 0.81707 0.0
C5669 C 0.26082 0.97689 0.81883 0.0
C5670 C 0.2553 0.99676 0.81186 0.0
H5671 H 0.28635 0.0708 0.81503 0.0
H5672 H 0.26405 0.04721 0.81833 0.0
H5673 H 0.29533 1.03865 0.81525 0.0
H5674 H 0.30417 0.99194 0.79413 0.0
H5675 H 0.31384 0.95707 0.80629 0.0
H5676 H 0.22131 0.04739 1.03086 0.0
H5677 H 0.25903 1.02493 1.03513 0.0
H5678 H 0.25594 0.98839 1.00342 0.0
H5679 H 0.21762 1.01068 0.99908 0.0
H5680 H 0.27537 0.97329 1.03511 0.0
H5681 H 0.31949 1.0313 1.00233 0.0
H5682 H 0.28886 1.03847 1.00729 0.0
H5683 H 0.29385 1.01156 0.99887 0.0
C5684 C 0.22807 1.03399 1.02492 0.0
C5685 C 0.21661 1.0311 1.01456 0.0
C5686 C 0.24971 1.02116 1.02737 0.0
C5687 C 0.26039 1.00525 1.01953 0.0
C5688 C 0.2481 1.00083 1.00951 0.0
H5689 H 0.41566 1.01814 0.03551 0.0
H5690 H 0.38338 0.99416 1.02611 0.0
C5691 C 0.22632 1.01367 1.00704 0.0
C5692 C 0.28597 0.99666 1.02147 0.0
H5693 H 0.34444 1.01751 1.01676 0.0
C5694 C 0.29067 0.98213 1.03085 0.0
C5695 C 0.30596 1.00776 1.01577 0.0
C5696 C 0.302 1.02319 1.0055 0.0
C5697 C 0.31439 0.98112 0.0355 0.0
C5698 C 0.33353 0.99541 1.03075 0.0
C5699 C 0.32963 1.00682 1.02048 0.0
C5700 C 0.35437 1.0046 0.03754 0.0
C5701 C 0.31821 0.96658 0.046 0.0
C5702 C 0.3488 1.01827 0.04709 0.0
C5703 C 0.36687 1.03236 0.05228 0.0
C5704 C 0.39114 1.0331 0.0481 0.0
C5705 C 0.3971 1.01827 0.03888 0.0
C5706 C 0.37877 1.0043 1.03357 0.0
H5707 H 0.30705 0.94934 0.04586 0.0
H5708 H 0.33798 0.96171 0.04723 0.0
H5709 H 0.31185 0.97774 0.05317 0.0
H5710 H 0.32995 1.0196 0.05008 0.0
H5711 H 0.36121 0.04397 0.05913 0.0
H5712 H 0.75805 0.95366 0.75246 0.0
H5713 H 0.73606 0.99093 0.75866 0.0
H5714 H 0.77642 0.98907 0.78944 0.0
H5715 H 0.7982 0.95218 0.78339 0.0
H5716 H 0.72705 1.00541 0.79192 0.0
H5717 H 0.77653 0.05464 0.7578 0.0
H5718 H 0.75574 1.0299 0.75434 0.0
H5719 H 0.78423 1.0232 0.76135 0.0
C5720 C 0.76188 0.96103 0.76062 0.0
C5721 C 0.78008 0.95016 0.76739 0.0
C5722 C 0.74928 0.98225 0.76415 0.0
C5723 C 0.7549 0.99295 0.77443 0.0
C5724 C 0.7717 0.98105 0.78149 0.0
H5725 H 0.79831 0.09623 0.81383 0.0
H5726 H 0.77446 0.06298 0.80582 0.0
C5727 C 0.78416 0.95989 0.77801 0.0
C5728 C 0.74654 1.01813 0.77743 0.0
H5729 H 0.76389 0.07786 0.77295 0.0
C5730 C 0.73432 1.02141 0.78759 0.0
C5731 C 0.75566 1.03905 0.77169 0.0
C5732 C 0.76884 1.03672 0.76071 0.0
C5733 C 0.73363 0.04463 0.79276 0.0
C5734 C 0.7457 0.06483 0.78768 0.0
C5735 C 0.75486 0.06224 0.77687 0.0
C5736 C 0.75465 0.08618 0.79421 0.0
C5737 C 0.72169 0.0469 0.804 0.0
C5738 C 0.75129 0.11052 0.79047 0.0
C5739 C 0.76495 0.12988 0.79514 0.0
C5740 C 0.7825 0.12509 0.80349 0.0
C5741 C 0.78469 0.10086 0.8076 0.0
C5742 C 0.77091 0.08168 0.80302 0.0
H5743 H 0.70538 1.03451 0.80463 0.0
H5744 H 0.73511 1.04112 0.81045 0.0
H5745 H 0.7158 0.06621 0.80572 0.0
H5746 H 0.73903 0.11434 0.7836 0.0
H5747 H 0.7625 0.14838 0.7919 0.0
H5748 H 0.73404 0.05901 0.57116 0.0
H5749 H 0.76947 1.04176 0.56153 0.0
H5750 H 0.72108 1.0058 0.53823 0.0
H5751 H 0.68506 1.02208 0.54816 0.0
H5752 H 0.7824 0.98666 0.54904 0.0
H5753 H 0.76126 0.07263 0.52523 0.0
H5754 H 0.75273 0.07031 0.53963 0.0
H5755 H 0.73678 0.05212 0.52949 0.0
C5756 C 0.73068 0.04647 0.56434 0.0
C5757 C 0.7066 1.04233 0.56033 0.0
C5758 C 0.75107 1.03658 0.55884 0.0
C5759 C 0.74779 1.0226 0.5492 0.0
C5760 C 0.72386 1.01645 0.54573 0.0
H5761 H 0.8574 0.04854 0.49975 0.0
H5762 H 0.82119 1.03 0.5076 0.0
C5763 C 0.70335 1.02612 0.55131 0.0
C5764 C 0.76882 1.02011 0.54155 0.0
H5765 H 0.79918 0.05374 0.52208 0.0
C5766 C 0.78599 1.00094 0.54294 0.0
C5767 C 0.7732 1.03876 0.53363 0.0
C5768 C 0.75512 0.05969 0.53183 0.0
C5769 C 0.80803 1.00038 0.53674 0.0
C5770 C 0.81316 1.01999 0.5293 0.0
C5771 C 0.79534 1.03857 0.52769 0.0
C5772 C 0.83739 1.02333 0.52369 0.0
C5773 C 0.82547 0.9789 0.53827 0.0
C5774 C 0.8594 1.02417 0.52983 0.0
C5775 C 0.88105 1.03363 0.52511 0.0
C5776 C 0.88088 0.04361 0.51432 0.0
C5777 C 0.85908 1.04102 0.508 0.0
C5778 C 0.83789 1.03056 0.51255 0.0
H5779 H 0.81515 0.96177 0.54037 0.0
H5780 H 0.83668 0.97544 0.53072 0.0
H5781 H 0.83811 0.98294 0.54527 0.0
H5782 H 0.85958 1.01908 0.5385 0.0
H5783 H 0.89749 1.03417 0.53019 0.0
H5784 H 0.78116 0.95124 0.28397 0.0
H5785 H 0.80458 0.98692 0.27796 0.0
H5786 H 0.8453 0.98663 0.30865 0.0
H5787 H 0.82215 0.95014 0.3147 0.0
H5788 H 0.82003 1.02901 0.30544 0.0
H5789 H 0.87176 1.00909 0.26732 0.0
H5790 H 0.84163 0.99552 0.26634 0.0
H5791 H 0.86275 0.98502 0.2769 0.0
C5792 C 0.79584 0.95792 0.28927 0.0
C5793 C 0.7995 0.94794 0.29989 0.0
C5794 C 0.80937 0.9784 0.28578 0.0
C5795 C 0.82689 0.98936 0.2928 0.0
C5796 C 0.83197 0.97836 0.30307 0.0
H5797 H 0.82578 0.14942 0.27906 0.0
H5798 H 0.84662 0.11274 0.28666 0.0
C5799 C 0.81852 0.95768 0.30655 0.0
C5800 C 0.83542 1.01475 0.29028 0.0
H5801 H 0.85052 0.04992 0.26789 0.0
C5802 C 0.8277 1.03374 0.29742 0.0
C5803 C 0.84573 1.0209 0.27989 0.0
C5804 C 0.85618 1.00146 0.27225 0.0
C5805 C 0.82664 0.05836 0.29381 0.0
C5806 C 0.83387 0.06399 0.28284 0.0
C5807 C 0.84469 0.0455 0.27625 0.0
C5808 C 0.82471 0.08659 0.2773 0.0
C5809 C 0.81514 0.07757 0.30129 0.0
C5810 C 0.80607 0.08398 0.26934 0.0
C5811 C 0.79418 0.10466 0.26506 0.0
C5812 C 0.80074 0.12854 0.2686 0.0
C5813 C 0.82014 0.13124 0.27627 0.0
C5814 C 0.83211 0.11037 0.28058 0.0
H5815 H 0.80925 0.06974 0.30937 0.0
H5816 H 0.82869 0.09254 0.3029 0.0
H5817 H 0.79877 0.08597 0.29721 0.0
H5818 H 0.79988 0.06577 0.2668 0.0
H5819 H 0.77904 0.1018 0.25934 0.0
H5820 H 0.86423 1.02555 0.06644 0.0
H5821 H 0.82709 1.03779 0.0567 0.0
H5822 H 0.87074 0.07803 1.03292 0.0
H5823 H 0.90852 0.06699 0.04303 0.0
H5824 H 0.81542 0.09742 0.0414 0.0
H5825 H 0.82715 1.00302 1.02376 0.0
H5826 H 0.83128 1.00583 0.03849 0.0
H5827 H 0.85272 1.0206 1.02927 0.0
C5828 C 0.86615 1.03793 0.05946 0.0
C5829 C 0.88958 0.04514 0.05551 0.0
C5830 C 0.84476 0.04484 0.05387 0.0
C5831 C 0.84629 0.05875 0.04413 0.0
C5832 C 0.86932 0.06739 0.04049 0.0
H5833 H 0.73083 1.02868 0.99769 0.0
H5834 H 0.76953 0.04374 1.00474 0.0
C5835 C 0.89086 0.06074 0.04619 0.0
C5836 C 0.82443 0.05996 0.0369 0.0
H5837 H 0.78849 1.02222 1.0212 0.0
C5838 C 0.8096 0.08123 0.03678 0.0
C5839 C 0.81719 1.03885 1.03086 0.0
C5840 C 0.83295 1.01578 1.03049 0.0
C5841 C 0.78701 0.08155 1.031 0.0
C5842 C 0.77904 0.05982 1.0255 0.0
C5843 C 0.7945 1.03894 1.02537 0.0
C5844 C 0.75446 0.05733 1.02018 0.0
C5845 C 0.772 0.10505 1.03087 0.0
C5846 C 0.73261 0.06114 1.02624 0.0
C5847 C 0.7098 0.0535 1.02196 0.0
C5848 C 0.70851 1.04109 1.0117 0.0
C5849 C 0.73044 1.03854 1.00547 0.0
C5850 C 0.75294 0.04694 1.00957 0.0
H5851 H 0.78404 0.12156 1.03182 0.0
H5852 H 0.76126 0.10689 1.02308 0.0
H5853 H 0.75889 0.10486 0.03794 0.0
H5854 H 0.73327 0.06872 1.03453 0.0
H5855 H 0.69342 0.05646 1.02693 0.0
H5856 H 0.79806 0.62386 0.79231 0.0
H5857 H 0.81378 0.58429 0.78588 0.0
H5858 H 0.80802 0.5549 0.81894 0.0
H5859 H 0.78884 0.59261 0.82514 0.0
H5860 H 0.84953 0.55255 0.78907 0.0
H5861 H 0.76208 0.50971 0.80391 0.0
H5862 H 0.76705 0.54255 0.80432 0.0
H5863 H 0.78022 0.52285 0.81482 0.0
C5864 C 0.79956 0.60895 0.79823 0.0
C5865 C 0.79101 0.61166 0.8092 0.0
C5866 C 0.80914 0.58638 0.79456 0.0
C5867 C 0.81117 0.56627 0.80184 0.0
C5868 C 0.80565 0.56982 0.81306 0.0
H5869 H 0.81254 0.4127 0.77928 0.0
H5870 H 0.82899 0.44664 0.79047 0.0
C5871 C 0.79504 0.59191 0.81664 0.0
C5872 C 0.81619 0.54114 0.79744 0.0
H5873 H 0.78984 0.48411 0.79473 0.0
C5874 C 0.83665 0.53749 0.79043 0.0
C5875 C 0.79932 0.5214 0.79919 0.0
C5876 C 0.77584 0.52432 0.80587 0.0
C5877 C 0.83995 0.51511 0.7847 0.0
C5878 C 0.82264 0.4959 0.7862 0.0
C5879 C 0.80328 0.49887 0.79378 0.0
C5880 C 0.82058 0.47497 0.77843 0.0
C5881 C 0.86115 0.51247 0.77669 0.0
C5882 C 0.81104 0.47968 0.76787 0.0
C5883 C 0.80067 0.46063 0.76167 0.0
C5884 C 0.79998 0.43628 0.76583 0.0
C5885 C 0.81202 0.43126 0.77593 0.0
C5886 C 0.82187 0.45055 0.78227 0.0
H5887 H 0.87625 0.52575 0.77856 0.0
H5888 H 0.86868 0.49336 0.77685 0.0
H5889 H 0.85441 0.51624 0.76817 0.0
H5890 H 0.80938 0.4985 0.76488 0.0
H5891 H 0.79135 0.46562 0.75408 0.0
H5892 H 0.84465 0.53774 0.99365 0.0
H5893 H 0.80797 0.56204 0.99722 0.0
H5894 H 0.83004 0.57053 1.03134 0.0
H5895 H 0.8684 0.54919 1.02751 0.0
H5896 H 0.77498 0.54452 1.0084 0.0
H5897 H 0.79386 0.63236 1.02909 0.0
H5898 H 0.81791 0.61603 1.02171 0.0
H5899 H 0.81193 0.6097 0.03618 0.0
C5900 C 0.84258 0.54583 1.00179 0.0
C5901 C 0.85955 0.5408 1.01035 0.0
C5902 C 0.82126 0.55967 1.00384 0.0
C5903 C 0.81592 0.56815 1.01457 0.0
C5904 C 0.83369 0.56478 1.02292 0.0
H5905 H 0.71707 0.53685 0.05884 0.0
H5906 H 0.74873 0.55736 0.04809 0.0
C5907 C 0.85547 0.55176 1.02077 0.0
C5908 C 0.79019 0.5752 1.0176 0.0
H5909 H 0.75807 0.60806 0.03701 0.0
C5910 C 0.77111 0.5592 1.01427 0.0
C5911 C 0.78472 0.59446 1.02518 0.0
C5912 C 0.80326 0.61422 1.0281 0.0
C5913 C 0.74783 0.55993 1.0193 0.0
C5914 C 0.74355 0.577 1.02795 0.0
C5915 C 0.76157 0.59478 1.03046 0.0
C5916 C 0.72349 0.57233 0.03596 0.0
C5917 C 0.72886 0.54065 1.01617 0.0
C5918 C 0.69858 0.57514 1.03301 0.0
C5919 C 0.68012 0.56358 0.03927 0.0
C5920 C 0.68642 0.54885 0.04848 0.0
C5921 C 0.71127 0.54816 0.05192 0.0
C5922 C 0.72955 0.55991 0.04575 0.0
H5923 H 0.73534 0.52844 1.00935 0.0
H5924 H 0.7244 0.52896 1.02346 0.0
H5925 H 0.71156 0.54987 1.01347 0.0
H5926 H 0.6936 0.58475 1.02546 0.0
H5927 H 0.66112 0.56505 0.03654 0.0
H5928 H 0.80196 0.48719 0.3256 0.0
H5929 H 0.78332 0.52461 0.31881 0.0
H5930 H 0.76485 0.48799 0.28818 0.0
H5931 H 0.78032 0.44921 0.29551 0.0
H5932 H 0.80365 0.54738 0.30363 0.0
H5933 H 0.70815 0.53311 0.28927 0.0
H5934 H 0.72355 0.51097 0.29808 0.0
H5935 H 0.72767 0.50999 0.28325 0.0
C5936 C 0.7928 0.48633 0.31766 0.0
C5937 C 0.79319 0.46474 0.3111 0.0
C5938 C 0.78231 0.50814 0.31372 0.0
C5939 C 0.77272 0.50936 0.30294 0.0
C5940 C 0.77168 0.48762 0.2966 0.0
H5941 H 0.80002 0.61032 0.25407 0.0
H5942 H 0.78423 0.57604 0.26487 0.0
C5943 C 0.78129 0.46545 0.30072 0.0
C5944 C 0.76847 0.5339 0.29774 0.0
H5945 H 0.73177 0.56532 0.27947 0.0
C5946 C 0.78747 0.5515 0.29867 0.0
C5947 C 0.74748 0.53946 0.29117 0.0
C5948 C 0.72548 0.52242 0.2905 0.0
C5949 C 0.78678 0.5737 0.29278 0.0
C5950 C 0.76676 0.57837 0.2856 0.0
C5951 C 0.74712 0.56152 0.28499 0.0
C5952 C 0.76831 0.59898 0.27767 0.0
C5953 C 0.80825 0.59144 0.29373 0.0
C5954 C 0.76342 0.62328 0.28106 0.0
C5955 C 0.77216 0.64319 0.27479 0.0
C5956 C 0.78624 0.63898 0.26514 0.0
C5957 C 0.78906 0.61451 0.26133 0.0
C5958 C 0.78004 0.59474 0.26752 0.0
H5959 H 0.82217 0.58526 0.2999 0.0
H5960 H 0.81751 0.59336 0.28556 0.0
H5961 H 0.80143 0.61001 0.29619 0.0
H5962 H 0.75448 0.62681 0.28894 0.0
H5963 H 0.76913 0.66179 0.27784 0.0
H5964 H 0.69905 0.55377 0.53631 0.0
H5965 H 0.73728 0.53421 0.54228 0.0
H5966 H 0.73896 0.49074 0.51233 0.0
H5967 H 0.70041 0.5104 0.50624 0.0
H5968 H 0.75661 0.48563 0.54527 0.0
H5969 H 0.79998 0.53534 0.50967 0.0
H5970 H 0.76855 0.54153 0.5138 0.0
H5971 H 0.77607 0.51315 0.50684 0.0
C5972 C 0.70702 0.53946 0.53114 0.0
C5973 C 0.69691 0.53391 0.52073 0.0
C5974 C 0.72894 0.5283 0.53456 0.0
C5975 C 0.74116 0.51138 0.52765 0.0
C5976 C 0.73001 0.5041 0.51768 0.0
H5977 H 0.89954 0.51932 0.54153 0.0
H5978 H 0.86363 0.49773 0.53376 0.0
C5979 C 0.70805 0.51536 0.51422 0.0
C5980 C 0.76699 0.50467 0.5303 0.0
H5981 H 0.82559 0.52334 0.52413 0.0
C5982 C 0.77183 0.49315 0.54049 0.0
C5983 C 0.78688 0.51421 0.52398 0.0
C5984 C 0.78279 0.52685 0.51298 0.0
C5985 C 0.7957 0.49319 0.54502 0.0
C5986 C 0.81495 0.50534 0.53928 0.0
C5987 C 0.81071 0.51418 0.52853 0.0
C5988 C 0.83733 0.51424 0.54507 0.0
C5989 C 0.79973 0.48171 0.55624 0.0
C5990 C 0.8344 0.53065 0.55396 0.0
C5991 C 0.85462 0.54333 0.55824 0.0
C5992 C 0.87838 0.53987 0.55375 0.0
C5993 C 0.88148 0.52263 0.54511 0.0
C5994 C 0.86106 0.51006 0.54074 0.0
H5995 H 0.78739 0.4655 0.55744 0.0
H5996 H 0.81922 0.47576 0.55736 0.0
H5997 H 0.79514 0.49546 0.56276 0.0
H5998 H 0.81617 0.53486 0.55718 0.0
H5999 H 0.85129 0.55687 0.56468 0.0
H6000 H 0.25235 0.64251 0.30039 0.0
H6001 H 0.23023 0.60508 0.29445 0.0
H6002 H 0.28983 0.56024 0.30722 0.0
H6003 H 0.31125 0.59704 0.31336 0.0
H6004 H 0.24289 0.57483 0.27954 0.0
H6005 H 0.23481 0.51762 0.31644 0.0
H6006 H 0.24101 0.55037 0.31748 0.0
H6007 H 0.26607 0.52829 0.31647 0.0
C6008 C 0.26034 0.62455 0.30211 0.0
C6009 C 0.28341 0.62263 0.3074 0.0
C6010 C 0.24766 0.60321 0.29879 0.0
C6011 C 0.25794 0.57969 0.30066 0.0
C6012 C 0.28081 0.57795 0.30612 0.0
H6013 H 0.31018 0.48028 0.26155 0.0
H6014 H 0.28695 0.51441 0.26928 0.0
C6015 C 0.29325 0.5991 0.30953 0.0
C6016 C 0.24753 0.55715 0.29544 0.0
H6017 H 0.25052 0.49492 0.29935 0.0
C6018 C 0.24354 0.55738 0.28395 0.0
C6019 C 0.2469 0.53427 0.30112 0.0
C6020 C 0.24711 0.53278 0.31359 0.0
C6021 C 0.24332 0.5353 0.27787 0.0
C6022 C 0.24828 0.51276 0.28338 0.0
C6023 C 0.24783 0.51226 0.295 0.0
C6024 C 0.25958 0.4915 0.27748 0.0
C6025 C 0.23967 0.5366 0.26551 0.0
C6026 C 0.25257 0.46698 0.27975 0.0
C6027 C 0.26634 0.44719 0.27546 0.0
C6028 C 0.28723 0.4517 0.26882 0.0
C6029 C 0.29382 0.4762 0.2664 0.0
C6030 C 0.28032 0.4958 0.27075 0.0
H6031 H 0.22504 0.55029 0.26346 0.0
H6032 H 0.257 0.54307 0.26152 0.0
H6033 H 0.23446 0.51838 0.26196 0.0
H6034 H 0.23689 0.46318 0.28506 0.0
H6035 H 0.26089 0.42844 0.27745 0.0
H6036 H 0.39299 0.53831 1.02653 0.0
H6037 H 0.3575 0.52049 0.03572 0.0
H6038 H 0.31515 0.52675 1.00559 0.0
H6039 H 0.34903 0.5481 0.99686 0.0
H6040 H 0.29202 0.54831 1.01997 0.0
H6041 H 0.31853 0.46088 0.0398 0.0
H6042 H 0.34033 0.48394 0.04394 0.0
H6043 H 0.33798 0.47533 1.02952 0.0
C6044 C 0.37614 0.53617 1.02181 0.0
C6045 C 0.37395 0.54584 1.01101 0.0
C6046 C 0.35593 0.52509 1.02703 0.0
C6047 C 0.33343 0.52216 1.02139 0.0
C6048 C 0.3322 0.52896 1.01019 0.0
H6049 H 0.18714 0.5179 0.05227 0.0
H6050 H 0.22096 0.5005 0.04125 0.0
C6051 C 0.35196 0.54107 1.00513 0.0
C6052 C 0.31026 0.5172 1.02766 0.0
H6053 H 0.28652 0.48532 0.04969 0.0
C6054 C 0.29061 0.53389 1.02617 0.0
C6055 C 0.30816 0.49853 0.03585 0.0
C6056 C 0.32734 0.47854 0.03725 0.0
C6057 C 0.26987 0.53355 1.03307 0.0
C6058 C 0.2688 0.51629 0.04181 0.0
C6059 C 0.28761 0.49865 0.043 0.0
C6060 C 0.24975 0.51904 0.05045 0.0
C6061 C 0.24989 0.55274 1.0314 0.0
C6062 C 0.25499 0.53415 0.05957 0.0
C6063 C 0.23578 0.54455 0.06572 0.0
C6064 C 0.21103 0.53986 0.06285 0.0
C6065 C 0.206 0.52234 0.05451 0.0
C6066 C 0.22528 0.51209 0.0483 0.0
H6067 H 0.25386 0.56524 1.02433 0.0
H6068 H 0.23195 0.54342 1.02984 0.0
H6069 H 0.24779 0.56412 0.039 0.0
H6070 H 0.27382 0.53988 0.06126 0.0
H6071 H 0.2404 0.55801 0.07203 0.0
H6072 H 0.28692 0.63729 0.76979 0.0
H6073 H 0.29873 0.60261 0.7816 0.0
H6074 H 0.35728 0.58359 0.75885 0.0
H6075 H 0.34517 0.61801 0.74685 0.0
H6076 H 0.32469 0.54602 0.76249 0.0
H6077 H 0.35457 0.58434 0.80266 0.0
H6078 H 0.32631 0.59832 0.79807 0.0
H6079 H 0.35416 0.60251 0.7901 0.0
C6080 C 0.30258 0.62597 0.76741 0.0
C6081 C 0.31498 0.63018 0.75737 0.0
C6082 C 0.30956 0.60639 0.77424 0.0
C6083 C 0.32913 0.59076 0.77118 0.0
C6084 C 0.34234 0.59566 0.76142 0.0
H6085 H 0.32485 0.43833 0.79695 0.0
H6086 H 0.34501 0.47459 0.7887 0.0
C6087 C 0.33541 0.61531 0.75459 0.0
C6088 C 0.33268 0.56719 0.77715 0.0
H6089 H 0.33581 0.54332 0.80323 0.0
C6090 C 0.32788 0.54524 0.77135 0.0
C6091 C 0.33692 0.56632 0.78868 0.0
C6092 C 0.34353 0.58915 0.79521 0.0
C6093 C 0.32473 0.52276 0.77693 0.0
C6094 C 0.32707 0.52222 0.7886 0.0
C6095 C 0.33395 0.54381 0.79429 0.0
C6096 C 0.31828 0.50078 0.79509 0.0
C6097 C 0.31679 0.50032 0.77037 0.0
C6098 C 0.2974 0.50372 0.80185 0.0
C6099 C 0.28605 0.48322 0.80661 0.0
C6100 C 0.29536 0.45934 0.80469 0.0
C6101 C 0.31711 0.45652 0.79842 0.0
C6102 C 0.32862 0.47716 0.79372 0.0
H6103 H 0.31221 0.50494 0.76165 0.0
H6104 H 0.33201 0.48656 0.77029 0.0
H6105 H 0.30036 0.49153 0.77424 0.0
H6106 H 0.28907 0.52179 0.80297 0.0
H6107 H 0.2692 0.48597 0.81131 0.0
H6108 H 0.23636 0.53042 0.49857 0.0
H6109 H 0.27205 0.54781 0.50797 0.0
H6110 H 0.22407 0.58674 0.53052 0.0
H6111 H 0.18787 0.57021 0.52086 0.0
H6112 H 0.28595 0.60359 0.51888 0.0
H6113 H 0.26329 0.52191 0.5453 0.0
H6114 H 0.25424 0.52261 0.53093 0.0
H6115 H 0.23916 0.54248 0.54072 0.0
C6116 C 0.2332 0.54356 0.50519 0.0
C6117 C 0.20917 0.54857 0.50907 0.0
C6118 C 0.25372 0.55352 0.51055 0.0
C6119 C 0.25059 0.5685 0.5199 0.0
C6120 C 0.22673 0.57533 0.52324 0.0
H6121 H 0.35969 0.54702 0.56973 0.0
H6122 H 0.32424 0.56605 0.56157 0.0
C6123 C 0.20612 0.56553 0.51782 0.0
C6124 C 0.27169 0.57174 0.52745 0.0
H6125 H 0.30138 0.54072 0.54794 0.0
C6126 C 0.28926 0.59026 0.52542 0.0
C6127 C 0.27571 0.55434 0.53595 0.0
C6128 C 0.25721 0.53414 0.53843 0.0
C6129 C 0.31131 0.59134 0.53158 0.0
C6130 C 0.31607 0.57289 0.53963 0.0
C6131 C 0.29785 0.55503 0.54186 0.0
C6132 C 0.3403 0.56982 0.54526 0.0
C6133 C 0.32919 0.61213 0.52934 0.0
C6134 C 0.36217 0.56742 0.53909 0.0
C6135 C 0.38352 0.55768 0.54396 0.0
C6136 C 0.38312 0.54885 0.55496 0.0
C6137 C 0.36162 0.55336 0.5613 0.0
C6138 C 0.34079 0.56416 0.55657 0.0
H6139 H 0.3192 0.62914 0.52677 0.0
H6140 H 0.34063 0.61645 0.53672 0.0
H6141 H 0.3416 0.60676 0.52242 0.0
H6142 H 0.36239 0.57137 0.5303 0.0
H6143 H 0.39979 0.55589 0.53882 0.0
loop_
_geom_bond_atom_site_label_1
_geom_bond_atom_site_label_2
_geom_bond_distance
_geom_bond_site_symmetry_2
_ccdc_geom_bond_type
Eu0 N31 2.657 . S
Eu0 N38 2.609 . S
Eu0 O44 2.558 . S
Eu0 O45 2.612 . S
Eu0 O47 2.339 . S
Eu0 O48 2.563 . S
Eu0 O49 2.419 . S
Eu0 O51 2.380 . S
Eu0 O52 2.432 . S
Eu0 C64 2.848 . S
C1 C4 1.429 . S
C1 C5 1.411 . S
C1 N8 1.377 . S
C2 C4 1.420 . S
C2 C6 1.423 . S
C2 C14 1.392 . S
C3 C5 1.420 . S
C3 C6 1.351 . S
C3 H26 0.931 . S
C4 C1 1.429 . S
C4 C2 1.420 . S
C4 N12 1.362 . S
C5 C1 1.411 . S
C5 C3 1.420 . S
C5 C10 1.395 . S
C6 C2 1.423 . S
C6 C3 1.351 . S
C6 H18 0.930 . S
C7 C9 1.400 . S
C7 C10 1.386 . S
C7 H19 0.930 . S
N8 C1 1.377 . S
N8 C9 1.321 . S
N8 Eu11 2.609 . S
C9 C7 1.400 . S
C9 N8 1.321 . S
C9 H16 0.930 . S
C10 C5 1.395 . S
C10 C7 1.386 . S
C10 H29 0.930 . S
Eu11 N8 2.609 . S
Eu11 N12 2.657 . S
Eu11 O45 2.380 . S
Eu11 O46 2.432 . S
Eu11 O50 2.558 . S
Eu11 O51 2.612 . S
Eu11 O53 2.339 . S
Eu11 O54 2.563 . S
Eu11 O55 2.419 . S
Eu11 C75 2.848 . S
N12 C4 1.362 . S
N12 Eu11 2.657 . S
N12 C13 1.334 . S
C13 N12 1.334 . S
C13 C15 1.413 . S
C13 H20 0.929 . S
C14 C2 1.392 . S
C14 C15 1.367 . S
C14 H22 0.930 . S
C15 C13 1.413 . S
C15 C14 1.367 . S
C15 H17 0.930 . S
H16 C9 0.930 . S
H17 C15 0.930 . S
H18 C6 0.930 . S
H19 C7 0.930 . S
H20 C13 0.929 . S
H21 C35 0.930 . S
H22 C14 0.930 . S
H23 C41 0.930 . S
H24 C32 0.929 . S
H25 C39 0.930 . S
H26 C3 0.931 . S
H27 C33 0.930 . S
H28 C66 0.930 . S
H29 C10 0.930 . S
H30 C65 0.931 . S
N31 Eu0 2.657 . S
N31 C32 1.334 . S
N31 C36 1.362 . S
C32 H24 0.929 . S
C32 N31 1.334 . S
C32 C35 1.413 . S
C33 H27 0.930 . S
C33 C34 1.392 . S
C33 C35 1.367 . S
C34 C33 1.392 . S
C34 C36 1.420 . S
C34 C66 1.423 . S
C35 H21 0.930 . S
C35 C32 1.413 . S
C35 C33 1.367 . S
C36 N31 1.362 . S
C36 C34 1.420 . S
C36 C40 1.429 . S
H37 C42 0.930 . S
N38 Eu0 2.609 . S
N38 C40 1.377 . S
N38 C41 1.321 . S
C39 H25 0.930 . S
C39 C41 1.400 . S
C39 C42 1.386 . S
C40 C36 1.429 . S
C40 N38 1.377 . S
C40 C43 1.411 . S
C41 H23 0.930 . S
C41 N38 1.321 . S
C41 C39 1.400 . S
C42 H37 0.930 . S
C42 C39 1.386 . S
C42 C43 1.395 . S
C43 C40 1.411 . S
C43 C42 1.395 . S
C43 C65 1.420 . S
O44 Eu0 2.558 . S
O44 C64 1.257 . S
O45 Eu0 2.612 . S
O45 Eu11 2.380 . S
O45 C56 1.276 . S
O46 Eu11 2.432 . S
O46 C63 1.264 . S
O47 Eu0 2.339 . S
O47 C63 1.254 . S
O48 Eu0 2.563 . S
O48 C56 1.235 . S
O49 Eu0 2.419 . S
O49 C64 1.249 . S
O50 Eu11 2.558 . S
O50 C75 1.257 . S
O51 Eu0 2.380 . S
O51 Eu11 2.612 . S
O51 C67 1.276 . S
O52 Eu0 2.432 . S
O52 C74 1.264 . S
O53 Eu11 2.339 . S
O53 C74 1.254 . S
O54 Eu11 2.563 . S
O54 C67 1.235 . S
O55 Eu11 2.419 . S
O55 C75 1.249 . S
C56 O45 1.276 . S
C56 O48 1.235 . S
C57 C59 1.393 . S
C57 C61 1.395 . S
C57 C64 1.492 . S
C58 C59 1.392 . S
C58 C60 1.386 . S
C59 C57 1.393 . S
C59 C58 1.392 . S
C59 H76 0.930 . S
C60 C58 1.386 . S
C60 C62 1.395 . S
C60 H77 0.930 . S
C61 C57 1.395 . S
C61 C62 1.379 . S
C61 H78 0.930 . S
C62 C60 1.395 . S
C62 C61 1.379 . S
C62 H79 0.930 . S
C63 O46 1.264 . S
C63 O47 1.254 . S
C64 Eu0 2.848 . S
C64 O44 1.257 . S
C64 O49 1.249 . S
C64 C57 1.492 . S
C65 H30 0.931 . S
C65 C43 1.420 . S
C65 C66 1.351 . S
C66 H28 0.930 . S
C66 C34 1.423 . S
C66 C65 1.351 . S
C67 O51 1.276 . S
C67 O54 1.235 . S
C68 C69 1.393 . S
C68 C72 1.395 . S
C68 C75 1.492 . S
C69 C68 1.393 . S
C69 C70 1.392 . S
C69 H80 0.930 . S
C70 C69 1.392 . S
C70 C71 1.386 . S
C71 C70 1.386 . S
C71 C73 1.395 . S
C71 H81 0.930 . S
C72 C68 1.395 . S
C72 C73 1.379 . S
C72 H82 0.930 . S
C73 C71 1.395 . S
C73 C72 1.379 . S
C73 H83 0.930 . S
C74 O52 1.264 . S
C74 O53 1.254 . S
C75 Eu11 2.848 . S
C75 O50 1.257 . S
C75 O55 1.249 . S
C75 C68 1.492 . S
H76 C59 0.930 . S
H77 C60 0.930 . S
H78 C61 0.930 . S
H79 C62 0.930 . S
H80 C69 0.930 . S
H81 C71 0.930 . S
H82 C72 0.930 . S
H83 C73 0.930 . S
Eu84 N115 2.657 . S
Eu84 N122 2.609 . S
Eu84 O128 2.558 . S
Eu84 O129 2.612 . S
Eu84 O131 2.339 . S
Eu84 O132 2.563 . S
Eu84 O133 2.419 . S
Eu84 O135 2.380 . S
Eu84 O136 2.432 . S
Eu84 C148 2.848 . S
C85 C88 1.429 . S
C85 C89 1.411 . S
C85 N92 1.377 . S
C86 C88 1.420 . S
C86 C90 1.423 . S
C86 C98 1.392 . S
C87 C89 1.420 . S
C87 C90 1.351 . S
C87 H110 0.931 . S
C88 C85 1.429 . S
C88 C86 1.420 . S
C88 N96 1.362 . S
C89 C85 1.411 . S
C89 C87 1.420 . S
C89 C94 1.395 . S
C90 C86 1.423 . S
C90 C87 1.351 . S
C90 H102 0.930 . S
C91 C93 1.400 . S
C91 C94 1.386 . S
C91 H103 0.930 . S
N92 C85 1.377 . S
N92 C93 1.321 . S
N92 Eu95 2.609 . S
C93 C91 1.400 . S
C93 N92 1.321 . S
C93 H100 0.930 . S
C94 C89 1.395 . S
C94 C91 1.386 . S
C94 H113 0.930 . S
Eu95 N92 2.609 . S
Eu95 N96 2.657 . S
Eu95 O129 2.380 . S
Eu95 O130 2.432 . S
Eu95 O134 2.558 . S
Eu95 O135 2.612 . S
Eu95 O137 2.339 . S
Eu95 O138 2.563 . S
Eu95 O139 2.419 . S
Eu95 C159 2.848 . S
N96 C88 1.362 . S
N96 Eu95 2.657 . S
N96 C97 1.334 . S
C97 N96 1.334 . S
C97 C99 1.413 . S
C97 H104 0.929 . S
C98 C86 1.392 . S
C98 C99 1.367 . S
C98 H106 0.930 . S
C99 C97 1.413 . S
C99 C98 1.367 . S
C99 H101 0.930 . S
H100 C93 0.930 . S
H101 C99 0.930 . S
H102 C90 0.930 . S
H103 C91 0.930 . S
H104 C97 0.929 . S
H105 C119 0.930 . S
H106 C98 0.930 . S
H107 C125 0.930 . S
H108 C116 0.915 1_455 S
H109 C123 0.930 . S
H110 C87 0.931 . S
H111 C117 0.930 . S
H112 C150 0.930 . S
H113 C94 0.930 . S
H114 C149 0.931 . S
N115 Eu84 2.657 . S
N115 C116 1.334 1_455 S
N115 C120 1.362 1_455 S
C116 H108 0.915 1_655 S
C116 N115 1.334 1_655 S
C116 C119 1.413 . S
C117 H111 0.930 . S
C117 C118 1.392 . S
C117 C119 1.367 . S
C118 C117 1.392 . S
C118 C120 1.420 . S
C118 C150 1.423 1_565 S
C119 H105 0.930 . S
C119 C116 1.413 . S
C119 C117 1.367 . S
C120 N115 1.362 1_655 S
C120 C118 1.420 . S
C120 C124 1.429 1_655 S
H121 C126 0.933 . S
N122 Eu84 2.609 . S
N122 C124 1.377 . S
N122 C125 1.321 . S
C123 H109 0.930 . S
C123 C125 1.400 1_545 S
C123 C126 1.379 1_455 S
C124 C120 1.429 1_455 S
C124 N122 1.377 . S
C124 C127 1.411 1_465 S
C125 H107 0.930 . S
C125 N122 1.321 . S
C125 C123 1.400 1_565 S
C126 H121 0.933 . S
C126 C123 1.379 1_655 S
C126 C127 1.398 . S
C127 C124 1.411 1_645 S
C127 C126 1.398 . S
C127 C149 1.420 . S
O128 Eu84 2.558 . S
O128 C148 1.257 . S
O129 Eu84 2.612 . S
O129 Eu95 2.380 . S
O129 C140 1.276 . S
O130 Eu95 2.432 . S
O130 C147 1.264 . S
O131 Eu84 2.339 . S
O131 C147 1.254 . S
O132 Eu84 2.563 . S
O132 C140 1.235 . S
O133 Eu84 2.419 . S
O133 C148 1.249 . S
O134 Eu95 2.558 . S
O134 C159 1.257 . S
O135 Eu84 2.380 . S
O135 Eu95 2.612 . S
O135 C151 1.276 . S
O136 Eu84 2.432 . S
O136 C158 1.264 . S
O137 Eu95 2.339 . S
O137 C158 1.254 . S
O138 Eu95 2.563 . S
O138 C151 1.235 . S
O139 Eu95 2.419 . S
O139 C159 1.249 . S
C140 O129 1.276 . S
C140 O132 1.235 . S
C141 C143 1.393 . S
C141 C145 1.395 . S
C141 C148 1.492 1_655 S
C142 C143 1.392 . S
C142 C144 1.386 . S
C143 C141 1.393 . S
C143 C142 1.392 . S
C143 H160 0.930 . S
C144 C142 1.386 . S
C144 C146 1.395 . S
C144 H161 0.930 . S
C145 C141 1.395 . S
C145 C146 1.379 . S
C145 H162 0.930 . S
C146 C144 1.395 . S
C146 C145 1.379 . S
C146 H163 0.930 . S
C147 O130 1.264 . S
C147 O131 1.254 . S
C148 Eu84 2.848 . S
C148 O128 1.257 . S
C148 O133 1.249 . S
C148 C141 1.492 1_455 S
C149 H114 0.931 . S
C149 C127 1.420 . S
C149 C150 1.351 . S
C150 H112 0.930 . S
C150 C118 1.423 1_545 S
C150 C149 1.351 . S
C151 O135 1.276 . S
C151 O138 1.235 . S
C152 C153 1.393 . S
C152 C156 1.395 . S
C152 C159 1.492 . S
C153 C152 1.393 . S
C153 C154 1.392 . S
C153 H164 0.930 . S
C154 C153 1.392 . S
C154 C155 1.386 . S
C155 C154 1.386 . S
C155 C157 1.395 . S
C155 H165 0.930 . S
C156 C152 1.395 . S
C156 C157 1.379 . S
C156 H166 0.930 . S
C157 C155 1.395 . S
C157 C156 1.379 . S
C157 H167 0.930 . S
C158 O136 1.264 . S
C158 O137 1.254 . S
C159 Eu95 2.848 . S
C159 O134 1.257 . S
C159 O139 1.249 . S
C159 C152 1.492 . S
H160 C143 0.930 . S
H161 C144 0.930 . S
H162 C145 0.930 . S
H163 C146 0.930 . S
H164 C153 0.930 . S
H165 C155 0.930 . S
H166 C156 0.930 . S
H167 C157 0.930 . S
Eu168 N199 2.657 . S
Eu168 N206 2.609 . S
Eu168 O212 2.558 . S
Eu168 O213 2.612 . S
Eu168 O215 2.339 . S
Eu168 O216 2.563 . S
Eu168 O217 2.419 . S
Eu168 O219 2.380 . S
Eu168 O220 2.432 . S
Eu168 C232 2.848 . S
C169 C172 1.429 . S
C169 C173 1.411 . S
C169 N176 1.377 . S
C170 C172 1.420 . S
C170 C174 1.423 . S
C170 C182 1.392 . S
C171 C173 1.420 . S
C171 C174 1.351 . S
C171 H194 0.931 . S
C172 C169 1.429 . S
C172 C170 1.420 . S
C172 N180 1.362 . S
C173 C169 1.411 . S
C173 C171 1.420 . S
C173 C178 1.395 . S
C174 C170 1.423 . S
C174 C171 1.351 . S
C174 H186 0.930 . S
C175 C177 1.400 . S
C175 C178 1.386 . S
C175 H187 0.930 . S
N176 C169 1.377 . S
N176 C177 1.321 . S
N176 Eu179 2.609 . S
C177 C175 1.400 . S
C177 N176 1.321 . S
C177 H184 0.930 . S
C178 C173 1.395 . S
C178 C175 1.386 . S
C178 H197 0.930 . S
Eu179 N176 2.609 . S
Eu179 N180 2.657 . S
Eu179 O213 2.380 . S
Eu179 O214 2.432 . S
Eu179 O218 2.558 . S
Eu179 O219 2.612 . S
Eu179 O221 2.339 . S
Eu179 O222 2.563 . S
Eu179 O223 2.419 . S
Eu179 C243 2.848 . S
N180 C172 1.362 . S
N180 Eu179 2.657 . S
N180 C181 1.334 . S
C181 N180 1.334 . S
C181 C183 1.413 . S
C181 H188 0.929 . S
C182 C170 1.392 . S
C182 C183 1.367 . S
C182 H190 0.930 . S
C183 C181 1.413 . S
C183 C182 1.367 . S
C183 H185 0.930 . S
H184 C177 0.930 . S
H185 C183 0.930 . S
H186 C174 0.930 . S
H187 C175 0.930 . S
H188 C181 0.929 . S
H189 C203 0.930 . S
H190 C182 0.930 . S
H191 C209 0.930 . S
H192 C200 0.929 . S
H193 C207 0.930 . S
H194 C171 0.931 . S
H195 C201 0.930 . S
H196 C234 0.930 . S
H197 C178 0.930 . S
H198 C233 0.931 . S
N199 Eu168 2.657 . S
N199 C200 1.334 . S
N199 C204 1.362 . S
C200 H192 0.929 . S
C200 N199 1.334 . S
C200 C203 1.413 . S
C201 H195 0.930 . S
C201 C202 1.392 . S
C201 C203 1.367 . S
C202 C201 1.392 . S
C202 C204 1.420 . S
C202 C234 1.423 . S
C203 H189 0.930 . S
C203 C200 1.413 . S
C203 C201 1.367 . S
C204 N199 1.362 . S
C204 C202 1.420 . S
C204 C208 1.429 . S
H205 C210 0.930 . S
N206 Eu168 2.609 . S
N206 C208 1.377 . S
N206 C209 1.321 . S
C207 H193 0.930 . S
C207 C209 1.400 . S
C207 C210 1.386 . S
C208 C204 1.429 . S
C208 N206 1.377 . S
C208 C211 1.411 . S
C209 H191 0.930 . S
C209 N206 1.321 . S
C209 C207 1.400 . S
C210 H205 0.930 . S
C210 C207 1.386 . S
C210 C211 1.395 . S
C211 C208 1.411 . S
C211 C210 1.395 . S
C211 C233 1.420 . S
O212 Eu168 2.558 . S
O212 C232 1.257 . S
O213 Eu168 2.612 . S
O213 Eu179 2.380 . S
O213 C224 1.276 . S
O214 Eu179 2.432 . S
O214 C231 1.264 . S
O215 Eu168 2.339 . S
O215 C231 1.254 . S
O216 Eu168 2.563 . S
O216 C224 1.235 . S
O217 Eu168 2.419 . S
O217 C232 1.249 . S
O218 Eu179 2.558 . S
O218 C243 1.257 . S
O219 Eu168 2.380 . S
O219 Eu179 2.612 . S
O219 C235 1.276 . S
O220 Eu168 2.432 . S
O220 C242 1.264 . S
O221 Eu179 2.339 . S
O221 C242 1.254 . S
O222 Eu179 2.563 . S
O222 C235 1.235 . S
O223 Eu179 2.419 . S
O223 C243 1.249 . S
C224 O213 1.276 . S
C224 O216 1.235 . S
C225 C227 1.393 . S
C225 C229 1.395 . S
C225 C232 1.492 . S
C226 C227 1.392 . S
C226 C228 1.386 . S
C227 C225 1.393 . S
C227 C226 1.392 . S
C227 H244 0.930 . S
C228 C226 1.386 . S
C228 C230 1.395 . S
C228 H245 0.930 . S
C229 C225 1.395 . S
C229 C230 1.379 . S
C229 H246 0.930 . S
C230 C228 1.395 . S
C230 C229 1.379 . S
C230 H247 0.930 . S
C231 O214 1.264 . S
C231 O215 1.254 . S
C232 Eu168 2.848 . S
C232 O212 1.257 . S
C232 O217 1.249 . S
C232 C225 1.492 . S
C233 H198 0.931 . S
C233 C211 1.420 . S
C233 C234 1.351 . S
C234 H196 0.930 . S
C234 C202 1.423 . S
C234 C233 1.351 . S
C235 O219 1.276 . S
C235 O222 1.235 . S
C236 C237 1.393 . S
C236 C240 1.395 . S
C236 C243 1.492 . S
C237 C236 1.393 . S
C237 C238 1.392 . S
C237 H248 0.930 . S
C238 C237 1.392 . S
C238 C239 1.386 . S
C239 C238 1.386 . S
C239 C241 1.395 . S
C239 H249 0.930 . S
C240 C236 1.395 . S
C240 C241 1.379 . S
C240 H250 0.930 . S
C241 C239 1.395 . S
C241 C240 1.379 . S
C241 H251 0.930 . S
C242 O220 1.264 . S
C242 O221 1.254 . S
C243 Eu179 2.848 . S
C243 O218 1.257 . S
C243 O223 1.249 . S
C243 C236 1.492 . S
H244 C227 0.930 . S
H245 C228 0.930 . S
H246 C229 0.930 . S
H247 C230 0.930 . S
H248 C237 0.930 . S
H249 C239 0.930 . S
H250 C240 0.930 . S
H251 C241 0.930 . S
Eu252 N283 2.657 . S
Eu252 N290 2.609 . S
Eu252 O296 2.558 . S
Eu252 O297 2.612 . S
Eu252 O299 2.339 . S
Eu252 O300 2.563 . S
Eu252 O301 2.419 . S
Eu252 O303 2.380 . S
Eu252 O304 2.432 . S
Eu252 C316 2.848 . S
C253 C256 1.429 . S
C253 C257 1.411 . S
C253 N260 1.377 . S
C254 C256 1.420 . S
C254 C258 1.423 . S
C254 C266 1.392 . S
C255 C257 1.420 . S
C255 C258 1.351 . S
C255 H278 0.931 . S
C256 C253 1.429 . S
C256 C254 1.420 . S
C256 N264 1.362 . S
C257 C253 1.411 . S
C257 C255 1.420 . S
C257 C262 1.395 . S
C258 C254 1.423 . S
C258 C255 1.351 . S
C258 H270 0.930 . S
C259 C261 1.400 . S
C259 C262 1.386 . S
C259 H271 0.930 . S
N260 C253 1.377 . S
N260 C261 1.321 . S
N260 Eu263 2.609 . S
C261 C259 1.400 . S
C261 N260 1.321 . S
C261 H268 0.930 . S
C262 C257 1.395 . S
C262 C259 1.386 . S
C262 H281 0.930 . S
Eu263 N260 2.609 . S
Eu263 N264 2.657 . S
Eu263 O297 2.380 . S
Eu263 O298 2.432 . S
Eu263 O302 2.558 . S
Eu263 O303 2.612 . S
Eu263 O305 2.339 . S
Eu263 O306 2.563 . S
Eu263 O307 2.419 . S
Eu263 C327 2.848 . S
N264 C256 1.362 . S
N264 Eu263 2.657 . S
N264 C265 1.334 . S
C265 N264 1.334 . S
C265 C267 1.413 . S
C265 H272 0.929 . S
C266 C254 1.392 . S
C266 C267 1.367 . S
C266 H274 0.930 . S
C267 C265 1.413 . S
C267 C266 1.367 . S
C267 H269 0.930 . S
H268 C261 0.930 . S
H269 C267 0.930 . S
H270 C258 0.930 . S
H271 C259 0.930 . S
H272 C265 0.929 . S
H273 C287 0.930 . S
H274 C266 0.930 . S
H275 C293 0.930 . S
H276 C284 0.929 . S
H277 C291 0.930 . S
H278 C255 0.931 . S
H279 C285 0.930 . S
H280 C318 0.930 . S
H281 C262 0.930 . S
H282 C317 0.931 . S
N283 Eu252 2.657 . S
N283 C284 1.334 . S
N283 C288 1.362 . S
C284 H276 0.929 . S
C284 N283 1.334 . S
C284 C287 1.413 . S
C285 H279 0.930 . S
C285 C286 1.392 . S
C285 C287 1.367 . S
C286 C285 1.392 . S
C286 C288 1.420 . S
C286 C318 1.423 1_545 S
C287 H273 0.930 . S
C287 C284 1.413 . S
C287 C285 1.367 . S
C288 N283 1.362 . S
C288 C286 1.420 . S
C288 C292 1.429 . S
H289 C294 0.930 . S
N290 Eu252 2.609 . S
N290 C292 1.377 . S
N290 C293 1.321 . S
C291 H277 0.930 . S
C291 C293 1.400 1_565 S
C291 C294 1.386 . S
C292 C288 1.429 . S
C292 N290 1.377 . S
C292 C295 1.411 1_545 S
C293 H275 0.930 . S
C293 N290 1.321 . S
C293 C291 1.400 1_545 S
C294 H289 0.930 . S
C294 C291 1.386 . S
C294 C295 1.395 . S
C295 C292 1.411 1_565 S
C295 C294 1.395 . S
C295 C317 1.420 . S
O296 Eu252 2.558 . S
O296 C316 1.257 . S
O297 Eu252 2.612 . S
O297 Eu263 2.380 . S
O297 C308 1.276 . S
O298 Eu263 2.432 . S
O298 C315 1.264 . S
O299 Eu252 2.339 . S
O299 C315 1.254 . S
O300 Eu252 2.563 . S
O300 C308 1.235 . S
O301 Eu252 2.419 . S
O301 C316 1.249 . S
O302 Eu263 2.558 . S
O302 C327 1.257 . S
O303 Eu252 2.380 . S
O303 Eu263 2.612 . S
O303 C319 1.276 . S
O304 Eu252 2.432 . S
O304 C326 1.264 . S
O305 Eu263 2.339 . S
O305 C326 1.254 . S
O306 Eu263 2.563 . S
O306 C319 1.235 . S
O307 Eu263 2.419 . S
O307 C327 1.249 . S
C308 O297 1.276 . S
C308 O300 1.235 . S
C309 C311 1.393 . S
C309 C313 1.395 . S
C309 C316 1.492 . S
C310 C311 1.392 . S
C310 C312 1.386 . S
C311 C309 1.393 . S
C311 C310 1.392 . S
C311 H328 0.930 . S
C312 C310 1.386 . S
C312 C314 1.395 . S
C312 H329 0.930 . S
C313 C309 1.395 . S
C313 C314 1.379 . S
C313 H330 0.930 . S
C314 C312 1.395 . S
C314 C313 1.379 . S
C314 H331 0.930 . S
C315 O298 1.264 . S
C315 O299 1.254 . S
C316 Eu252 2.848 . S
C316 O296 1.257 . S
C316 O301 1.249 . S
C316 C309 1.492 . S
C317 H282 0.931 . S
C317 C295 1.420 . S
C317 C318 1.351 . S
C318 H280 0.930 . S
C318 C286 1.423 1_565 S
C318 C317 1.351 . S
C319 O303 1.276 . S
C319 O306 1.235 . S
C320 C321 1.393 . S
C320 C324 1.395 . S
C320 C327 1.492 . S
C321 C320 1.393 . S
C321 C322 1.392 . S
C321 H332 0.930 . S
C322 C321 1.392 . S
C322 C323 1.386 . S
C323 C322 1.386 . S
C323 C325 1.395 . S
C323 H333 0.930 . S
C324 C320 1.395 . S
C324 C325 1.379 . S
C324 H334 0.930 . S
C325 C323 1.395 . S
C325 C324 1.379 . S
C325 H335 0.930 . S
C326 O304 1.264 . S
C326 O305 1.254 . S
C327 Eu263 2.848 . S
C327 O302 1.257 . S
C327 O307 1.249 . S
C327 C320 1.492 . S
H328 C311 0.930 . S
H329 C312 0.930 . S
H330 C313 0.930 . S
H331 C314 0.930 . S
H332 C321 0.930 . S
H333 C323 0.930 . S
H334 C324 0.930 . S
H335 C325 0.930 . S
Eu336 N367 2.657 . S
Eu336 N374 2.609 . S
Eu336 O380 2.558 . S
Eu336 O381 2.612 . S
Eu336 O383 2.339 . S
Eu336 O384 2.563 . S
Eu336 O385 2.419 . S
Eu336 O387 2.380 . S
Eu336 O388 2.432 . S
Eu336 C400 2.848 . S
C337 C340 1.429 . S
C337 C341 1.411 . S
C337 N344 1.377 . S
C338 C340 1.420 . S
C338 C342 1.423 . S
C338 C350 1.392 . S
C339 C341 1.420 . S
C339 C342 1.351 . S
C339 H362 0.931 . S
C340 C337 1.429 . S
C340 C338 1.420 . S
C340 N348 1.362 . S
C341 C337 1.411 . S
C341 C339 1.420 . S
C341 C346 1.395 . S
C342 C338 1.423 . S
C342 C339 1.351 . S
C342 H354 0.930 . S
C343 C345 1.400 . S
C343 C346 1.386 . S
C343 H355 0.930 . S
N344 C337 1.377 . S
N344 C345 1.321 . S
N344 Eu347 2.609 . S
C345 C343 1.400 . S
C345 N344 1.321 . S
C345 H352 0.930 . S
C346 C341 1.395 . S
C346 C343 1.386 . S
C346 H365 0.930 . S
Eu347 N344 2.609 . S
Eu347 N348 2.657 . S
Eu347 O381 2.380 . S
Eu347 O382 2.432 . S
Eu347 O386 2.558 . S
Eu347 O387 2.612 . S
Eu347 O389 2.339 . S
Eu347 O390 2.563 . S
Eu347 O391 2.419 . S
Eu347 C411 2.848 . S
N348 C340 1.362 . S
N348 Eu347 2.657 . S
N348 C349 1.334 . S
C349 N348 1.334 . S
C349 C351 1.413 . S
C349 H356 0.929 . S
C350 C338 1.392 . S
C350 C351 1.367 . S
C350 H358 0.930 . S
C351 C349 1.413 . S
C351 C350 1.367 . S
C351 H353 0.930 . S
H352 C345 0.930 . S
H353 C351 0.930 . S
H354 C342 0.930 . S
H355 C343 0.930 . S
H356 C349 0.929 . S
H357 C371 0.930 . S
H358 C350 0.930 . S
H359 C377 0.930 . S
H360 C368 0.929 . S
H361 C375 0.930 . S
H362 C339 0.931 . S
H363 C369 0.930 . S
H364 C402 0.930 . S
H365 C346 0.930 . S
H366 C401 0.931 . S
N367 Eu336 2.657 . S
N367 C368 1.334 . S
N367 C372 1.362 . S
C368 H360 0.929 . S
C368 N367 1.334 . S
C368 C371 1.413 . S
C369 H363 0.930 . S
C369 C370 1.392 . S
C369 C371 1.367 . S
C370 C369 1.392 . S
C370 C372 1.420 . S
C370 C402 1.423 . S
C371 H357 0.930 . S
C371 C368 1.413 . S
C371 C369 1.367 . S
C372 N367 1.362 . S
C372 C370 1.420 . S
C372 C376 1.429 . S
H373 C378 0.930 . S
N374 Eu336 2.609 . S
N374 C376 1.377 . S
N374 C377 1.321 . S
C375 H361 0.930 . S
C375 C377 1.400 . S
C375 C378 1.386 . S
C376 C372 1.429 . S
C376 N374 1.377 . S
C376 C379 1.411 . S
C377 H359 0.930 . S
C377 N374 1.321 . S
C377 C375 1.400 . S
C378 H373 0.930 . S
C378 C375 1.386 . S
C378 C379 1.395 . S
C379 C376 1.411 . S
C379 C378 1.395 . S
C379 C401 1.420 . S
O380 Eu336 2.558 . S
O380 C400 1.257 . S
O381 Eu336 2.612 . S
O381 Eu347 2.380 . S
O381 C392 1.276 . S
O382 Eu347 2.432 . S
O382 C399 1.264 . S
O383 Eu336 2.339 . S
O383 C399 1.254 . S
O384 Eu336 2.563 . S
O384 C392 1.235 . S
O385 Eu336 2.419 . S
O385 C400 1.249 . S
O386 Eu347 2.558 . S
O386 C411 1.257 . S
O387 Eu336 2.380 . S
O387 Eu347 2.612 . S
O387 C403 1.276 . S
O388 Eu336 2.432 . S
O388 C410 1.264 . S
O389 Eu347 2.339 . S
O389 C410 1.254 . S
O390 Eu347 2.563 . S
O390 C403 1.235 . S
O391 Eu347 2.419 . S
O391 C411 1.249 . S
C392 O381 1.276 . S
C392 O384 1.235 . S
C393 C395 1.393 . S
C393 C397 1.395 . S
C393 C400 1.492 . S
C394 C395 1.392 . S
C394 C396 1.386 . S
C395 C393 1.393 . S
C395 C394 1.392 . S
C395 H412 0.930 . S
C396 C394 1.386 . S
C396 C398 1.395 . S
C396 H413 0.930 . S
C397 C393 1.395 . S
C397 C398 1.379 . S
C397 H414 0.930 . S
C398 C396 1.395 . S
C398 C397 1.379 . S
C398 H415 0.930 . S
C399 O382 1.264 . S
C399 O383 1.254 . S
C400 Eu336 2.848 . S
C400 O380 1.257 . S
C400 O385 1.249 . S
C400 C393 1.492 . S
C401 H366 0.931 . S
C401 C379 1.420 . S
C401 C402 1.351 . S
C402 H364 0.930 . S
C402 C370 1.423 . S
C402 C401 1.351 . S
C403 O387 1.276 . S
C403 O390 1.235 . S
C404 C405 1.393 . S
C404 C408 1.395 . S
C404 C411 1.492 . S
C405 C404 1.393 . S
C405 C406 1.392 . S
C405 H416 0.930 . S
C406 C405 1.392 . S
C406 C407 1.386 . S
C407 C406 1.386 . S
C407 C409 1.395 . S
C407 H417 0.930 . S
C408 C404 1.395 . S
C408 C409 1.379 . S
C408 H418 0.930 . S
C409 C407 1.395 . S
C409 C408 1.379 . S
C409 H419 0.930 . S
C410 O388 1.264 . S
C410 O389 1.254 . S
C411 Eu347 2.848 . S
C411 O386 1.257 . S
C411 O391 1.249 . S
C411 C404 1.492 . S
H412 C395 0.930 . S
H413 C396 0.930 . S
H414 C397 0.930 . S
H415 C398 0.930 . S
H416 C405 0.930 . S
H417 C407 0.930 . S
H418 C408 0.930 . S
H419 C409 0.930 . S
Eu420 N451 2.657 . S
Eu420 N458 2.609 . S
Eu420 O464 2.558 . S
Eu420 O465 2.612 . S
Eu420 O467 2.339 . S
Eu420 O468 2.563 . S
Eu420 O469 2.419 . S
Eu420 O471 2.380 . S
Eu420 O472 2.432 . S
Eu420 C484 2.848 . S
C421 C424 1.429 . S
C421 C425 1.411 . S
C421 N428 1.377 . S
C422 C424 1.420 . S
C422 C426 1.423 . S
C422 C434 1.392 . S
C423 C425 1.420 . S
C423 C426 1.351 . S
C423 H446 0.931 . S
C424 C421 1.429 . S
C424 C422 1.420 . S
C424 N432 1.362 . S
C425 C421 1.411 . S
C425 C423 1.420 . S
C425 C430 1.395 . S
C426 C422 1.423 . S
C426 C423 1.351 . S
C426 H438 0.930 . S
C427 C429 1.400 . S
C427 C430 1.386 . S
C427 H439 0.930 . S
N428 C421 1.377 . S
N428 C429 1.321 . S
N428 Eu431 2.609 . S
C429 C427 1.400 . S
C429 N428 1.321 . S
C429 H436 0.930 . S
C430 C425 1.395 . S
C430 C427 1.386 . S
C430 H449 0.930 . S
Eu431 N428 2.609 . S
Eu431 N432 2.657 . S
Eu431 O465 2.380 . S
Eu431 O466 2.432 . S
Eu431 O470 2.558 . S
Eu431 O471 2.612 . S
Eu431 O473 2.339 . S
Eu431 O474 2.563 . S
Eu431 O475 2.419 . S
Eu431 C495 2.848 . S
N432 C424 1.362 . S
N432 Eu431 2.657 . S
N432 C433 1.334 . S
C433 N432 1.334 . S
C433 C435 1.413 . S
C433 H440 0.929 . S
C434 C422 1.392 . S
C434 C435 1.367 . S
C434 H442 0.930 . S
C435 C433 1.413 . S
C435 C434 1.367 . S
C435 H437 0.930 . S
H436 C429 0.930 . S
H437 C435 0.930 . S
H438 C426 0.930 . S
H439 C427 0.930 . S
H440 C433 0.929 . S
H441 C455 0.930 . S
H442 C434 0.930 . S
H443 C461 0.930 . S
H444 C452 0.929 . S
H445 C459 0.930 . S
H446 C423 0.931 . S
H447 C453 0.930 . S
H448 C486 0.930 . S
H449 C430 0.930 . S
H450 C485 0.931 . S
N451 Eu420 2.657 . S
N451 C452 1.334 . S
N451 C456 1.362 . S
C452 H444 0.929 . S
C452 N451 1.334 . S
C452 C455 1.413 . S
C453 H447 0.930 . S
C453 C454 1.392 . S
C453 C455 1.367 . S
C454 C453 1.392 . S
C454 C456 1.420 . S
C454 C486 1.423 1_565 S
C455 H441 0.930 . S
C455 C452 1.413 . S
C455 C453 1.367 . S
C456 N451 1.362 . S
C456 C454 1.420 . S
C456 C460 1.429 . S
H457 C462 0.930 . S
N458 Eu420 2.609 . S
N458 C460 1.377 . S
N458 C461 1.321 . S
C459 H445 0.930 . S
C459 C461 1.400 1_545 S
C459 C462 1.386 . S
C460 C456 1.429 . S
C460 N458 1.377 . S
C460 C463 1.411 1_565 S
C461 H443 0.930 . S
C461 N458 1.321 . S
C461 C459 1.400 1_565 S
C462 H457 0.930 . S
C462 C459 1.386 . S
C462 C463 1.395 . S
C463 C460 1.411 1_545 S
C463 C462 1.395 . S
C463 C485 1.420 . S
O464 Eu420 2.558 . S
O464 C484 1.257 . S
O465 Eu420 2.612 . S
O465 Eu431 2.380 . S
O465 C476 1.276 . S
O466 Eu431 2.432 . S
O466 C483 1.264 . S
O467 Eu420 2.339 . S
O467 C483 1.254 . S
O468 Eu420 2.563 . S
O468 C476 1.235 . S
O469 Eu420 2.419 . S
O469 C484 1.249 . S
O470 Eu431 2.558 . S
O470 C495 1.257 . S
O471 Eu420 2.380 . S
O471 Eu431 2.612 . S
O471 C487 1.276 . S
O472 Eu420 2.432 . S
O472 C494 1.264 . S
O473 Eu431 2.339 . S
O473 C494 1.254 . S
O474 Eu431 2.563 . S
O474 C487 1.235 . S
O475 Eu431 2.419 . S
O475 C495 1.249 . S
C476 O465 1.276 . S
C476 O468 1.235 . S
C477 C479 1.393 . S
C477 C481 1.395 . S
C477 C484 1.492 . S
C478 C479 1.392 . S
C478 C480 1.386 . S
C479 C477 1.393 . S
C479 C478 1.392 . S
C479 H496 0.930 . S
C480 C478 1.386 . S
C480 C482 1.395 . S
C480 H497 0.930 . S
C481 C477 1.395 . S
C481 C482 1.379 . S
C481 H498 0.930 . S
C482 C480 1.395 . S
C482 C481 1.379 . S
C482 H499 0.930 . S
C483 O466 1.264 . S
C483 O467 1.254 . S
C484 Eu420 2.848 . S
C484 O464 1.257 . S
C484 O469 1.249 . S
C484 C477 1.492 . S
C485 H450 0.931 . S
C485 C463 1.420 . S
C485 C486 1.351 . S
C486 H448 0.930 . S
C486 C454 1.423 1_545 S
C486 C485 1.351 . S
C487 O471 1.276 . S
C487 O474 1.235 . S
C488 C489 1.393 . S
C488 C492 1.395 . S
C488 C495 1.492 . S
C489 C488 1.393 . S
C489 C490 1.392 . S
C489 H500 0.930 . S
C490 C489 1.392 . S
C490 C491 1.386 . S
C491 C490 1.386 . S
C491 C493 1.395 . S
C491 H501 0.930 . S
C492 C488 1.395 . S
C492 C493 1.379 . S
C492 H502 0.930 . S
C493 C491 1.395 . S
C493 C492 1.379 . S
C493 H503 0.930 . S
C494 O472 1.264 . S
C494 O473 1.254 . S
C495 Eu431 2.848 . S
C495 O470 1.257 . S
C495 O475 1.249 . S
C495 C488 1.492 . S
H496 C479 0.930 . S
H497 C480 0.930 . S
H498 C481 0.930 . S
H499 C482 0.930 . S
H500 C489 0.930 . S
H501 C491 0.930 . S
H502 C492 0.930 . S
H503 C493 0.930 . S
Eu504 N535 2.657 . S
Eu504 N542 2.609 . S
Eu504 O548 2.558 . S
Eu504 O549 2.612 . S
Eu504 O551 2.339 . S
Eu504 O552 2.563 . S
Eu504 O553 2.419 . S
Eu504 O555 2.380 . S
Eu504 O556 2.432 . S
Eu504 C568 2.848 . S
C505 C508 1.429 . S
C505 C509 1.411 . S
C505 N512 1.377 . S
C506 C508 1.420 . S
C506 C510 1.423 . S
C506 C518 1.392 . S
C507 C509 1.420 . S
C507 C510 1.351 . S
C507 H530 0.931 . S
C508 C505 1.429 . S
C508 C506 1.420 . S
C508 N516 1.362 . S
C509 C505 1.411 . S
C509 C507 1.420 . S
C509 C514 1.395 . S
C510 C506 1.423 . S
C510 C507 1.351 . S
C510 H522 0.930 . S
C511 C513 1.400 . S
C511 C514 1.386 . S
C511 H523 0.930 . S
N512 C505 1.377 . S
N512 C513 1.321 . S
N512 Eu515 2.609 . S
C513 C511 1.400 . S
C513 N512 1.321 . S
C513 H520 0.930 . S
C514 C509 1.395 . S
C514 C511 1.386 . S
C514 H533 0.930 . S
Eu515 N512 2.609 . S
Eu515 N516 2.657 . S
Eu515 O549 2.380 . S
Eu515 O550 2.432 . S
Eu515 O554 2.558 . S
Eu515 O555 2.612 . S
Eu515 O557 2.339 . S
Eu515 O558 2.563 . S
Eu515 O559 2.419 . S
Eu515 C579 2.848 . S
N516 C508 1.362 . S
N516 Eu515 2.657 . S
N516 C517 1.334 . S
C517 N516 1.334 . S
C517 C519 1.413 . S
C517 H524 0.929 . S
C518 C506 1.392 . S
C518 C519 1.367 . S
C518 H526 0.930 . S
C519 C517 1.413 . S
C519 C518 1.367 . S
C519 H521 0.930 . S
H520 C513 0.930 . S
H521 C519 0.930 . S
H522 C510 0.930 . S
H523 C511 0.930 . S
H524 C517 0.929 . S
H525 C539 0.930 . S
H526 C518 0.930 . S
H527 C545 0.930 . S
H528 C536 0.929 . S
H529 C543 0.930 . S
H530 C507 0.931 . S
H531 C537 0.930 . S
H532 C570 0.930 . S
H533 C514 0.930 . S
H534 C569 0.931 . S
N535 Eu504 2.657 . S
N535 C536 1.334 . S
N535 C540 1.362 . S
C536 H528 0.929 . S
C536 N535 1.334 . S
C536 C539 1.413 . S
C537 H531 0.930 . S
C537 C538 1.392 . S
C537 C539 1.367 . S
C538 C537 1.392 . S
C538 C540 1.420 . S
C538 C570 1.423 . S
C539 H525 0.930 . S
C539 C536 1.413 . S
C539 C537 1.367 . S
C540 N535 1.362 . S
C540 C538 1.420 . S
C540 C544 1.429 . S
H541 C546 0.930 . S
N542 Eu504 2.609 . S
N542 C544 1.377 . S
N542 C545 1.321 . S
C543 H529 0.930 . S
C543 C545 1.400 . S
C543 C546 1.386 . S
C544 C540 1.429 . S
C544 N542 1.377 . S
C544 C547 1.411 . S
C545 H527 0.930 . S
C545 N542 1.321 . S
C545 C543 1.400 . S
C546 H541 0.930 . S
C546 C543 1.386 . S
C546 C547 1.395 . S
C547 C544 1.411 . S
C547 C546 1.395 . S
C547 C569 1.420 . S
O548 Eu504 2.558 . S
O548 C568 1.257 . S
O549 Eu504 2.612 . S
O549 Eu515 2.380 . S
O549 C560 1.276 . S
O550 Eu515 2.432 . S
O550 C567 1.264 . S
O551 Eu504 2.339 . S
O551 C567 1.254 . S
O552 Eu504 2.563 . S
O552 C560 1.235 . S
O553 Eu504 2.419 . S
O553 C568 1.249 . S
O554 Eu515 2.558 . S
O554 C579 1.257 . S
O555 Eu504 2.380 . S
O555 Eu515 2.612 . S
O555 C571 1.276 . S
O556 Eu504 2.432 . S
O556 C578 1.264 . S
O557 Eu515 2.339 . S
O557 C578 1.254 . S
O558 Eu515 2.563 . S
O558 C571 1.235 . S
O559 Eu515 2.419 . S
O559 C579 1.249 . S
C560 O549 1.276 . S
C560 O552 1.235 . S
C561 C563 1.393 . S
C561 C565 1.395 . S
C561 C568 1.492 . S
C562 C563 1.392 . S
C562 C564 1.386 . S
C563 C561 1.393 . S
C563 C562 1.392 . S
C563 H580 0.930 . S
C564 C562 1.386 . S
C564 C566 1.395 . S
C564 H581 0.930 . S
C565 C561 1.395 . S
C565 C566 1.379 . S
C565 H582 0.930 . S
C566 C564 1.395 . S
C566 C565 1.379 . S
C566 H583 0.930 . S
C567 O550 1.264 . S
C567 O551 1.254 . S
C568 Eu504 2.848 . S
C568 O548 1.257 . S
C568 O553 1.249 . S
C568 C561 1.492 . S
C569 H534 0.931 . S
C569 C547 1.420 . S
C569 C570 1.351 . S
C570 H532 0.930 . S
C570 C538 1.423 . S
C570 C569 1.351 . S
C571 O555 1.276 . S
C571 O558 1.235 . S
C572 C573 1.393 . S
C572 C576 1.395 . S
C572 C579 1.492 . S
C573 C572 1.393 . S
C573 C574 1.392 . S
C573 H584 0.930 . S
C574 C573 1.392 . S
C574 C575 1.386 . S
C575 C574 1.386 . S
C575 C577 1.395 . S
C575 H585 0.930 . S
C576 C572 1.395 . S
C576 C577 1.379 . S
C576 H586 0.930 . S
C577 C575 1.395 . S
C577 C576 1.379 . S
C577 H587 0.930 . S
C578 O556 1.264 . S
C578 O557 1.254 . S
C579 Eu515 2.848 . S
C579 O554 1.257 . S
C579 O559 1.249 . S
C579 C572 1.492 . S
H580 C563 0.930 . S
H581 C564 0.930 . S
H582 C565 0.930 . S
H583 C566 0.930 . S
H584 C573 0.930 . S
H585 C575 0.930 . S
H586 C576 0.930 . S
H587 C577 0.930 . S
Eu588 N619 2.657 . S
Eu588 N626 2.609 . S
Eu588 O632 2.558 . S
Eu588 O633 2.612 . S
Eu588 O635 2.339 . S
Eu588 O636 2.563 . S
Eu588 O637 2.419 . S
Eu588 O639 2.380 . S
Eu588 O640 2.432 . S
Eu588 C652 2.848 . S
C589 C592 1.429 . S
C589 C593 1.411 . S
C589 N596 1.377 . S
C590 C592 1.420 . S
C590 C594 1.423 . S
C590 C602 1.392 . S
C591 C593 1.420 . S
C591 C594 1.351 . S
C591 H614 0.931 . S
C592 C589 1.429 . S
C592 C590 1.420 . S
C592 N600 1.362 . S
C593 C589 1.411 . S
C593 C591 1.420 . S
C593 C598 1.395 . S
C594 C590 1.423 . S
C594 C591 1.351 . S
C594 H606 0.930 . S
C595 C597 1.400 . S
C595 C598 1.386 . S
C595 H607 0.930 . S
N596 C589 1.377 . S
N596 C597 1.321 . S
N596 Eu599 2.609 . S
C597 C595 1.400 . S
C597 N596 1.321 . S
C597 H604 0.930 . S
C598 C593 1.395 . S
C598 C595 1.386 . S
C598 H617 0.930 . S
Eu599 N596 2.609 . S
Eu599 N600 2.657 . S
Eu599 O633 2.380 . S
Eu599 O634 2.432 . S
Eu599 O638 2.558 . S
Eu599 O639 2.612 . S
Eu599 O641 2.339 . S
Eu599 O642 2.563 . S
Eu599 O643 2.419 . S
Eu599 C663 2.848 . S
N600 C592 1.362 . S
N600 Eu599 2.657 . S
N600 C601 1.334 . S
C601 N600 1.334 . S
C601 C603 1.413 . S
C601 H608 0.929 . S
C602 C590 1.392 . S
C602 C603 1.367 . S
C602 H610 0.930 . S
C603 C601 1.413 . S
C603 C602 1.367 . S
C603 H605 0.930 . S
H604 C597 0.930 . S
H605 C603 0.930 . S
H606 C594 0.930 . S
H607 C595 0.930 . S
H608 C601 0.929 . S
H609 C623 0.930 . S
H610 C602 0.930 . S
H611 C629 0.930 . S
H612 C620 0.915 1_455 S
H613 C627 0.930 . S
H614 C591 0.931 . S
H615 C621 0.930 . S
H616 C654 0.930 . S
H617 C598 0.930 . S
H618 C653 0.931 . S
N619 Eu588 2.657 . S
N619 C620 1.334 1_455 S
N619 C624 1.362 1_455 S
C620 H612 0.915 1_655 S
C620 N619 1.334 1_655 S
C620 C623 1.413 . S
C621 H615 0.930 . S
C621 C622 1.392 . S
C621 C623 1.367 . S
C622 C621 1.392 . S
C622 C624 1.420 . S
C622 C654 1.423 1_545 S
C623 H609 0.930 . S
C623 C620 1.413 . S
C623 C621 1.367 . S
C624 N619 1.362 1_655 S
C624 C622 1.420 . S
C624 C628 1.429 1_655 S
H625 C630 0.933 . S
N626 Eu588 2.609 . S
N626 C628 1.377 . S
N626 C629 1.321 . S
C627 H613 0.930 . S
C627 C629 1.400 1_565 S
C627 C630 1.379 1_455 S
C628 C624 1.429 1_455 S
C628 N626 1.377 . S
C628 C631 1.411 1_445 S
C629 H611 0.930 . S
C629 N626 1.321 . S
C629 C627 1.400 1_545 S
C630 H625 0.933 . S
C630 C627 1.379 1_655 S
C630 C631 1.398 . S
C631 C628 1.411 1_665 S
C631 C630 1.398 . S
C631 C653 1.420 . S
O632 Eu588 2.558 . S
O632 C652 1.257 . S
O633 Eu588 2.612 . S
O633 Eu599 2.380 . S
O633 C644 1.276 . S
O634 Eu599 2.432 . S
O634 C651 1.264 . S
O635 Eu588 2.339 . S
O635 C651 1.254 . S
O636 Eu588 2.563 . S
O636 C644 1.235 . S
O637 Eu588 2.419 . S
O637 C652 1.249 . S
O638 Eu599 2.558 . S
O638 C663 1.257 . S
O639 Eu588 2.380 . S
O639 Eu599 2.612 . S
O639 C655 1.276 . S
O640 Eu588 2.432 . S
O640 C662 1.264 . S
O641 Eu599 2.339 . S
O641 C662 1.254 . S
O642 Eu599 2.563 . S
O642 C655 1.235 . S
O643 Eu599 2.419 . S
O643 C663 1.249 . S
C644 O633 1.276 . S
C644 O636 1.235 . S
C645 C647 1.393 . S
C645 C649 1.395 . S
C645 C652 1.492 1_655 S
C646 C647 1.392 . S
C646 C648 1.386 . S
C647 C645 1.393 . S
C647 C646 1.392 . S
C647 H664 0.930 . S
C648 C646 1.386 . S
C648 C650 1.395 . S
C648 H665 0.930 . S
C649 C645 1.395 . S
C649 C650 1.379 . S
C649 H666 0.930 . S
C650 C648 1.395 . S
C650 C649 1.379 . S
C650 H667 0.930 . S
C651 O634 1.264 . S
C651 O635 1.254 . S
C652 Eu588 2.848 . S
C652 O632 1.257 . S
C652 O637 1.249 . S
C652 C645 1.492 1_455 S
C653 H618 0.931 . S
C653 C631 1.420 . S
C653 C654 1.351 . S
C654 H616 0.930 . S
C654 C622 1.423 1_565 S
C654 C653 1.351 . S
C655 O639 1.276 . S
C655 O642 1.235 . S
C656 C657 1.393 . S
C656 C660 1.395 . S
C656 C663 1.492 . S
C657 C656 1.393 . S
C657 C658 1.392 . S
C657 H668 0.930 . S
C658 C657 1.392 . S
C658 C659 1.386 . S
C659 C658 1.386 . S
C659 C661 1.395 . S
C659 H669 0.930 . S
C660 C656 1.395 . S
C660 C661 1.379 . S
C660 H670 0.930 . S
C661 C659 1.395 . S
C661 C660 1.379 . S
C661 H671 0.930 . S
C662 O640 1.264 . S
C662 O641 1.254 . S
C663 Eu599 2.848 . S
C663 O638 1.257 . S
C663 O643 1.249 . S
C663 C656 1.492 . S
H664 C647 0.930 . S
H665 C648 0.930 . S
H666 C649 0.930 . S
H667 C650 0.930 . S
H668 C657 0.930 . S
H669 C659 0.930 . S
H670 C660 0.930 . S
H671 C661 0.930 . S
Eu672 N703 2.657 . S
Eu672 N710 2.609 . S
Eu672 O716 2.558 . S
Eu672 O717 2.612 . S
Eu672 O719 2.339 . S
Eu672 O720 2.563 . S
Eu672 O721 2.419 . S
Eu672 O723 2.380 . S
Eu672 O724 2.432 . S
Eu672 C736 2.848 . S
C673 C676 1.429 . S
C673 C677 1.411 . S
C673 N680 1.377 . S
C674 C676 1.420 . S
C674 C678 1.423 . S
C674 C686 1.392 . S
C675 C677 1.420 . S
C675 C678 1.351 . S
C675 H698 0.931 . S
C676 C673 1.429 . S
C676 C674 1.420 . S
C676 N684 1.362 . S
C677 C673 1.411 . S
C677 C675 1.420 . S
C677 C682 1.395 . S
C678 C674 1.423 . S
C678 C675 1.351 . S
C678 H690 0.930 . S
C679 C681 1.400 . S
C679 C682 1.386 . S
C679 H691 0.930 . S
N680 C673 1.377 . S
N680 C681 1.321 . S
N680 Eu683 2.609 . S
C681 C679 1.400 . S
C681 N680 1.321 . S
C681 H688 0.930 . S
C682 C677 1.395 . S
C682 C679 1.386 . S
C682 H701 0.930 . S
Eu683 N680 2.609 . S
Eu683 N684 2.657 . S
Eu683 O717 2.380 . S
Eu683 O718 2.432 . S
Eu683 O722 2.558 . S
Eu683 O723 2.612 . S
Eu683 O725 2.339 . S
Eu683 O726 2.563 . S
Eu683 O727 2.419 . S
Eu683 C747 2.848 . S
N684 C676 1.362 . S
N684 Eu683 2.657 . S
N684 C685 1.334 . S
C685 N684 1.334 . S
C685 C687 1.413 . S
C685 H692 0.929 . S
C686 C674 1.392 . S
C686 C687 1.367 . S
C686 H694 0.930 . S
C687 C685 1.413 . S
C687 C686 1.367 . S
C687 H689 0.930 . S
H688 C681 0.930 . S
H689 C687 0.930 . S
H690 C678 0.930 . S
H691 C679 0.930 . S
H692 C685 0.929 . S
H693 C707 0.930 . S
H694 C686 0.930 . S
H695 C713 0.930 . S
H696 C704 0.929 . S
H697 C711 0.930 . S
H698 C675 0.931 . S
H699 C705 0.930 . S
H700 C738 0.930 . S
H701 C682 0.930 . S
H702 C737 0.931 . S
N703 Eu672 2.657 . S
N703 C704 1.334 . S
N703 C708 1.362 . S
C704 H696 0.929 . S
C704 N703 1.334 . S
C704 C707 1.413 . S
C705 H699 0.930 . S
C705 C706 1.392 . S
C705 C707 1.367 . S
C706 C705 1.392 . S
C706 C708 1.420 . S
C706 C738 1.423 . S
C707 H693 0.930 . S
C707 C704 1.413 . S
C707 C705 1.367 . S
C708 N703 1.362 . S
C708 C706 1.420 . S
C708 C712 1.429 . S
H709 C714 0.930 . S
N710 Eu672 2.609 . S
N710 C712 1.377 . S
N710 C713 1.321 . S
C711 H697 0.930 . S
C711 C713 1.400 . S
C711 C714 1.386 . S
C712 C708 1.429 . S
C712 N710 1.377 . S
C712 C715 1.411 . S
C713 H695 0.930 . S
C713 N710 1.321 . S
C713 C711 1.400 . S
C714 H709 0.930 . S
C714 C711 1.386 . S
C714 C715 1.395 . S
C715 C712 1.411 . S
C715 C714 1.395 . S
C715 C737 1.420 . S
O716 Eu672 2.558 . S
O716 C736 1.257 . S
O717 Eu672 2.612 . S
O717 Eu683 2.380 . S
O717 C728 1.276 . S
O718 Eu683 2.432 . S
O718 C735 1.264 . S
O719 Eu672 2.339 . S
O719 C735 1.254 . S
O720 Eu672 2.563 . S
O720 C728 1.235 . S
O721 Eu672 2.419 . S
O721 C736 1.249 . S
O722 Eu683 2.558 . S
O722 C747 1.257 . S
O723 Eu672 2.380 . S
O723 Eu683 2.612 . S
O723 C739 1.276 . S
O724 Eu672 2.432 . S
O724 C746 1.264 . S
O725 Eu683 2.339 . S
O725 C746 1.254 . S
O726 Eu683 2.563 . S
O726 C739 1.235 . S
O727 Eu683 2.419 . S
O727 C747 1.249 . S
C728 O717 1.276 . S
C728 O720 1.235 . S
C729 C731 1.393 . S
C729 C733 1.395 . S
C729 C736 1.492 . S
C730 C731 1.392 . S
C730 C732 1.386 . S
C731 C729 1.393 . S
C731 C730 1.392 . S
C731 H748 0.930 . S
C732 C730 1.386 . S
C732 C734 1.395 . S
C732 H749 0.930 . S
C733 C729 1.395 . S
C733 C734 1.379 . S
C733 H750 0.930 . S
C734 C732 1.395 . S
C734 C733 1.379 . S
C734 H751 0.930 . S
C735 O718 1.264 . S
C735 O719 1.254 . S
C736 Eu672 2.848 . S
C736 O716 1.257 . S
C736 O721 1.249 . S
C736 C729 1.492 . S
C737 H702 0.931 . S
C737 C715 1.420 . S
C737 C738 1.351 . S
C738 H700 0.930 . S
C738 C706 1.423 . S
C738 C737 1.351 . S
C739 O723 1.276 . S
C739 O726 1.235 . S
C740 C741 1.393 . S
C740 C744 1.395 . S
C740 C747 1.492 . S
C741 C740 1.393 . S
C741 C742 1.392 . S
C741 H752 0.930 . S
C742 C741 1.392 . S
C742 C743 1.386 . S
C743 C742 1.386 . S
C743 C745 1.395 . S
C743 H753 0.930 . S
C744 C740 1.395 . S
C744 C745 1.379 . S
C744 H754 0.930 . S
C745 C743 1.395 . S
C745 C744 1.379 . S
C745 H755 0.930 . S
C746 O724 1.264 . S
C746 O725 1.254 . S
C747 Eu683 2.848 . S
C747 O722 1.257 . S
C747 O727 1.249 . S
C747 C740 1.492 . S
H748 C731 0.930 . S
H749 C732 0.930 . S
H750 C733 0.930 . S
H751 C734 0.930 . S
H752 C741 0.930 . S
H753 C743 0.930 . S
H754 C744 0.930 . S
H755 C745 0.930 . S
Eu756 N787 2.657 . S
Eu756 N794 2.609 . S
Eu756 O800 2.558 . S
Eu756 O801 2.612 . S
Eu756 O803 2.339 . S
Eu756 O804 2.563 . S
Eu756 O805 2.419 . S
Eu756 O807 2.380 . S
Eu756 O808 2.432 . S
Eu756 C820 2.848 . S
C757 C760 1.429 1_655 S
C757 C761 1.411 1_645 S
C757 N764 1.377 . S
C758 C760 1.420 . S
C758 C762 1.423 1_545 S
C758 C770 1.392 . S
C759 C761 1.420 . S
C759 C762 1.351 . S
C759 H782 0.931 . S
C760 C757 1.429 1_455 S
C760 C758 1.420 . S
C760 N768 1.362 1_455 S
C761 C757 1.411 1_465 S
C761 C759 1.420 . S
C761 C766 1.398 . S
C762 C758 1.423 1_565 S
C762 C759 1.351 . S
C762 H774 0.930 . S
C763 C765 1.400 1_565 S
C763 C766 1.379 1_655 S
C763 H775 0.930 . S
N764 C757 1.377 . S
N764 C765 1.321 . S
N764 Eu767 2.609 . S
C765 C763 1.400 1_545 S
C765 N764 1.321 . S
C765 H772 0.930 . S
C766 C761 1.398 . S
C766 C763 1.379 1_455 S
C766 H785 0.933 . S
Eu767 N764 2.609 . S
Eu767 N768 2.657 . S
Eu767 O801 2.380 . S
Eu767 O802 2.432 . S
Eu767 O806 2.558 . S
Eu767 O807 2.612 . S
Eu767 O809 2.339 . S
Eu767 O810 2.563 . S
Eu767 O811 2.419 . S
Eu767 C831 2.848 . S
N768 C760 1.362 1_655 S
N768 Eu767 2.657 . S
N768 C769 1.334 1_655 S
C769 N768 1.334 1_455 S
C769 C771 1.413 . S
C769 H776 0.915 1_455 S
C770 C758 1.392 . S
C770 C771 1.367 . S
C770 H778 0.930 . S
C771 C769 1.413 . S
C771 C770 1.367 . S
C771 H773 0.930 . S
H772 C765 0.930 . S
H773 C771 0.930 . S
H774 C762 0.930 . S
H775 C763 0.930 . S
H776 C769 0.915 1_655 S
H777 C791 0.930 . S
H778 C770 0.930 . S
H779 C797 0.930 . S
H780 C788 0.929 . S
H781 C795 0.930 . S
H782 C759 0.931 . S
H783 C789 0.930 . S
H784 C822 0.930 . S
H785 C766 0.933 . S
H786 C821 0.931 . S
N787 Eu756 2.657 . S
N787 C788 1.334 . S
N787 C792 1.362 . S
C788 H780 0.929 . S
C788 N787 1.334 . S
C788 C791 1.413 . S
C789 H783 0.930 . S
C789 C790 1.392 . S
C789 C791 1.367 . S
C790 C789 1.392 . S
C790 C792 1.420 . S
C790 C822 1.423 . S
C791 H777 0.930 . S
C791 C788 1.413 . S
C791 C789 1.367 . S
C792 N787 1.362 . S
C792 C790 1.420 . S
C792 C796 1.429 . S
H793 C798 0.930 . S
N794 Eu756 2.609 . S
N794 C796 1.377 . S
N794 C797 1.321 . S
C795 H781 0.930 . S
C795 C797 1.400 . S
C795 C798 1.386 . S
C796 C792 1.429 . S
C796 N794 1.377 . S
C796 C799 1.411 . S
C797 H779 0.930 . S
C797 N794 1.321 . S
C797 C795 1.400 . S
C798 H793 0.930 . S
C798 C795 1.386 . S
C798 C799 1.395 . S
C799 C796 1.411 . S
C799 C798 1.395 . S
C799 C821 1.420 . S
O800 Eu756 2.558 . S
O800 C820 1.257 . S
O801 Eu756 2.612 . S
O801 Eu767 2.380 . S
O801 C812 1.276 . S
O802 Eu767 2.432 . S
O802 C819 1.264 . S
O803 Eu756 2.339 . S
O803 C819 1.254 . S
O804 Eu756 2.563 . S
O804 C812 1.235 . S
O805 Eu756 2.419 . S
O805 C820 1.249 . S
O806 Eu767 2.558 . S
O806 C831 1.257 . S
O807 Eu756 2.380 . S
O807 Eu767 2.612 . S
O807 C823 1.276 . S
O808 Eu756 2.432 . S
O808 C830 1.264 . S
O809 Eu767 2.339 . S
O809 C830 1.254 . S
O810 Eu767 2.563 . S
O810 C823 1.235 . S
O811 Eu767 2.419 . S
O811 C831 1.249 . S
C812 O801 1.276 . S
C812 O804 1.235 . S
C813 C815 1.393 . S
C813 C817 1.395 . S
C813 C820 1.492 . S
C814 C815 1.392 . S
C814 C816 1.386 . S
C815 C813 1.393 . S
C815 C814 1.392 . S
C815 H832 0.930 . S
C816 C814 1.386 . S
C816 C818 1.395 . S
C816 H833 0.930 . S
C817 C813 1.395 . S
C817 C818 1.379 . S
C817 H834 0.930 . S
C818 C816 1.395 . S
C818 C817 1.379 . S
C818 H835 0.930 . S
C819 O802 1.264 . S
C819 O803 1.254 . S
C820 Eu756 2.848 . S
C820 O800 1.257 . S
C820 O805 1.249 . S
C820 C813 1.492 . S
C821 H786 0.931 . S
C821 C799 1.420 . S
C821 C822 1.351 . S
C822 H784 0.930 . S
C822 C790 1.423 . S
C822 C821 1.351 . S
C823 O807 1.276 . S
C823 O810 1.235 . S
C824 C825 1.393 . S
C824 C828 1.395 . S
C824 C831 1.492 1_455 S
C825 C824 1.393 . S
C825 C826 1.392 . S
C825 H836 0.930 . S
C826 C825 1.392 . S
C826 C827 1.386 . S
C827 C826 1.386 . S
C827 C829 1.395 . S
C827 H837 0.930 . S
C828 C824 1.395 . S
C828 C829 1.379 . S
C828 H838 0.930 . S
C829 C827 1.395 . S
C829 C828 1.379 . S
C829 H839 0.930 . S
C830 O808 1.264 . S
C830 O809 1.254 . S
C831 Eu767 2.848 . S
C831 O806 1.257 . S
C831 O811 1.249 . S
C831 C824 1.492 1_655 S
H832 C815 0.930 . S
H833 C816 0.930 . S
H834 C817 0.930 . S
H835 C818 0.930 . S
H836 C825 0.930 . S
H837 C827 0.930 . S
H838 C828 0.930 . S
H839 C829 0.930 . S
Eu840 N871 2.657 . S
Eu840 N878 2.609 . S
Eu840 O884 2.558 . S
Eu840 O885 2.612 . S
Eu840 O887 2.339 . S
Eu840 O888 2.563 . S
Eu840 O889 2.419 . S
Eu840 O891 2.380 . S
Eu840 O892 2.432 . S
Eu840 C904 2.848 . S
C841 C844 1.429 . S
C841 C845 1.411 . S
C841 N848 1.377 . S
C842 C844 1.420 . S
C842 C846 1.423 . S
C842 C854 1.392 . S
C843 C845 1.420 . S
C843 C846 1.351 . S
C843 H866 0.931 . S
C844 C841 1.429 . S
C844 C842 1.420 . S
C844 N852 1.362 . S
C845 C841 1.411 . S
C845 C843 1.420 . S
C845 C850 1.395 . S
C846 C842 1.423 . S
C846 C843 1.351 . S
C846 H858 0.930 . S
C847 C849 1.400 . S
C847 C850 1.386 . S
C847 H859 0.930 . S
N848 C841 1.377 . S
N848 C849 1.321 . S
N848 Eu851 2.609 . S
C849 C847 1.400 . S
C849 N848 1.321 . S
C849 H856 0.930 . S
C850 C845 1.395 . S
C850 C847 1.386 . S
C850 H869 0.930 . S
Eu851 N848 2.609 . S
Eu851 N852 2.657 . S
Eu851 O885 2.380 . S
Eu851 O886 2.432 . S
Eu851 O890 2.558 . S
Eu851 O891 2.612 . S
Eu851 O893 2.339 . S
Eu851 O894 2.563 . S
Eu851 O895 2.419 . S
Eu851 C915 2.848 . S
N852 C844 1.362 . S
N852 Eu851 2.657 . S
N852 C853 1.334 . S
C853 N852 1.334 . S
C853 C855 1.413 . S
C853 H860 0.929 . S
C854 C842 1.392 . S
C854 C855 1.367 . S
C854 H862 0.930 . S
C855 C853 1.413 . S
C855 C854 1.367 . S
C855 H857 0.930 . S
H856 C849 0.930 . S
H857 C855 0.930 . S
H858 C846 0.930 . S
H859 C847 0.930 . S
H860 C853 0.929 . S
H861 C875 0.930 . S
H862 C854 0.930 . S
H863 C881 0.930 . S
H864 C872 0.929 . S
H865 C879 0.930 . S
H866 C843 0.931 . S
H867 C873 0.930 . S
H868 C906 0.930 . S
H869 C850 0.930 . S
H870 C905 0.931 . S
N871 Eu840 2.657 . S
N871 C872 1.334 . S
N871 C876 1.362 . S
C872 H864 0.929 . S
C872 N871 1.334 . S
C872 C875 1.413 . S
C873 H867 0.930 . S
C873 C874 1.392 . S
C873 C875 1.367 . S
C874 C873 1.392 . S
C874 C876 1.420 . S
C874 C906 1.423 . S
C875 H861 0.930 . S
C875 C872 1.413 . S
C875 C873 1.367 . S
C876 N871 1.362 . S
C876 C874 1.420 . S
C876 C880 1.429 . S
H877 C882 0.930 . S
N878 Eu840 2.609 . S
N878 C880 1.377 . S
N878 C881 1.321 . S
C879 H865 0.930 . S
C879 C881 1.400 . S
C879 C882 1.386 . S
C880 C876 1.429 . S
C880 N878 1.377 . S
C880 C883 1.411 . S
C881 H863 0.930 . S
C881 N878 1.321 . S
C881 C879 1.400 . S
C882 H877 0.930 . S
C882 C879 1.386 . S
C882 C883 1.395 . S
C883 C880 1.411 . S
C883 C882 1.395 . S
C883 C905 1.420 . S
O884 Eu840 2.558 . S
O884 C904 1.257 . S
O885 Eu840 2.612 . S
O885 Eu851 2.380 . S
O885 C896 1.276 . S
O886 Eu851 2.432 . S
O886 C903 1.264 . S
O887 Eu840 2.339 . S
O887 C903 1.254 . S
O888 Eu840 2.563 . S
O888 C896 1.235 . S
O889 Eu840 2.419 . S
O889 C904 1.249 . S
O890 Eu851 2.558 . S
O890 C915 1.257 . S
O891 Eu840 2.380 . S
O891 Eu851 2.612 . S
O891 C907 1.276 . S
O892 Eu840 2.432 . S
O892 C914 1.264 . S
O893 Eu851 2.339 . S
O893 C914 1.254 . S
O894 Eu851 2.563 . S
O894 C907 1.235 . S
O895 Eu851 2.419 . S
O895 C915 1.249 . S
C896 O885 1.276 . S
C896 O888 1.235 . S
C897 C899 1.393 . S
C897 C901 1.395 . S
C897 C904 1.492 . S
C898 C899 1.392 . S
C898 C900 1.386 . S
C899 C897 1.393 . S
C899 C898 1.392 . S
C899 H916 0.930 . S
C900 C898 1.386 . S
C900 C902 1.395 . S
C900 H917 0.930 . S
C901 C897 1.395 . S
C901 C902 1.379 . S
C901 H918 0.930 . S
C902 C900 1.395 . S
C902 C901 1.379 . S
C902 H919 0.930 . S
C903 O886 1.264 . S
C903 O887 1.254 . S
C904 Eu840 2.848 . S
C904 O884 1.257 . S
C904 O889 1.249 . S
C904 C897 1.492 . S
C905 H870 0.931 . S
C905 C883 1.420 . S
C905 C906 1.351 . S
C906 H868 0.930 . S
C906 C874 1.423 . S
C906 C905 1.351 . S
C907 O891 1.276 . S
C907 O894 1.235 . S
C908 C909 1.393 . S
C908 C912 1.395 . S
C908 C915 1.492 . S
C909 C908 1.393 . S
C909 C910 1.392 . S
C909 H920 0.930 . S
C910 C909 1.392 . S
C910 C911 1.386 . S
C911 C910 1.386 . S
C911 C913 1.395 . S
C911 H921 0.930 . S
C912 C908 1.395 . S
C912 C913 1.379 . S
C912 H922 0.930 . S
C913 C911 1.395 . S
C913 C912 1.379 . S
C913 H923 0.930 . S
C914 O892 1.264 . S
C914 O893 1.254 . S
C915 Eu851 2.848 . S
C915 O890 1.257 . S
C915 O895 1.249 . S
C915 C908 1.492 . S
H916 C899 0.930 . S
H917 C900 0.930 . S
H918 C901 0.930 . S
H919 C902 0.930 . S
H920 C909 0.930 . S
H921 C911 0.930 . S
H922 C912 0.930 . S
H923 C913 0.930 . S
Eu924 N955 2.657 . S
Eu924 N962 2.609 . S
Eu924 O968 2.558 . S
Eu924 O969 2.612 . S
Eu924 O971 2.339 . S
Eu924 O972 2.563 . S
Eu924 O973 2.419 . S
Eu924 O975 2.380 . S
Eu924 O976 2.432 . S
Eu924 C988 2.848 . S
C925 C928 1.429 . S
C925 C929 1.411 1_565 S
C925 N932 1.377 . S
C926 C928 1.420 . S
C926 C930 1.423 1_565 S
C926 C938 1.392 . S
C927 C929 1.420 . S
C927 C930 1.351 . S
C927 H950 0.931 . S
C928 C925 1.429 . S
C928 C926 1.420 . S
C928 N936 1.362 . S
C929 C925 1.411 1_545 S
C929 C927 1.420 . S
C929 C934 1.395 . S
C930 C926 1.423 1_545 S
C930 C927 1.351 . S
C930 H942 0.930 . S
C931 C933 1.400 1_545 S
C931 C934 1.386 . S
C931 H943 0.930 . S
N932 C925 1.377 . S
N932 C933 1.321 . S
N932 Eu935 2.609 . S
C933 C931 1.400 1_565 S
C933 N932 1.321 . S
C933 H940 0.930 . S
C934 C929 1.395 . S
C934 C931 1.386 . S
C934 H953 0.930 . S
Eu935 N932 2.609 . S
Eu935 N936 2.657 . S
Eu935 O969 2.380 . S
Eu935 O970 2.432 . S
Eu935 O974 2.558 . S
Eu935 O975 2.612 . S
Eu935 O977 2.339 . S
Eu935 O978 2.563 . S
Eu935 O979 2.419 . S
Eu935 C999 2.848 . S
N936 C928 1.362 . S
N936 Eu935 2.657 . S
N936 C937 1.334 . S
C937 N936 1.334 . S
C937 C939 1.413 . S
C937 H944 0.929 . S
C938 C926 1.392 . S
C938 C939 1.367 . S
C938 H946 0.930 . S
C939 C937 1.413 . S
C939 C938 1.367 . S
C939 H941 0.930 . S
H940 C933 0.930 . S
H941 C939 0.930 . S
H942 C930 0.930 . S
H943 C931 0.930 . S
H944 C937 0.929 . S
H945 C959 0.930 . S
H946 C938 0.930 . S
H947 C965 0.930 . S
H948 C956 0.929 . S
H949 C963 0.930 . S
H950 C927 0.931 . S
H951 C957 0.930 . S
H952 C990 0.930 . S
H953 C934 0.930 . S
H954 C989 0.931 . S
N955 Eu924 2.657 . S
N955 C956 1.334 . S
N955 C960 1.362 . S
C956 H948 0.929 . S
C956 N955 1.334 . S
C956 C959 1.413 . S
C957 H951 0.930 . S
C957 C958 1.392 . S
C957 C959 1.367 . S
C958 C957 1.392 . S
C958 C960 1.420 . S
C958 C990 1.423 . S
C959 H945 0.930 . S
C959 C956 1.413 . S
C959 C957 1.367 . S
C960 N955 1.362 . S
C960 C958 1.420 . S
C960 C964 1.429 . S
H961 C966 0.930 . S
N962 Eu924 2.609 . S
N962 C964 1.377 . S
N962 C965 1.321 . S
C963 H949 0.930 . S
C963 C965 1.400 . S
C963 C966 1.386 . S
C964 C960 1.429 . S
C964 N962 1.377 . S
C964 C967 1.411 . S
C965 H947 0.930 . S
C965 N962 1.321 . S
C965 C963 1.400 . S
C966 H961 0.930 . S
C966 C963 1.386 . S
C966 C967 1.395 . S
C967 C964 1.411 . S
C967 C966 1.395 . S
C967 C989 1.420 . S
O968 Eu924 2.558 . S
O968 C988 1.257 . S
O969 Eu924 2.612 . S
O969 Eu935 2.380 . S
O969 C980 1.276 . S
O970 Eu935 2.432 . S
O970 C987 1.264 . S
O971 Eu924 2.339 . S
O971 C987 1.254 . S
O972 Eu924 2.563 . S
O972 C980 1.235 . S
O973 Eu924 2.419 . S
O973 C988 1.249 . S
O974 Eu935 2.558 . S
O974 C999 1.257 . S
O975 Eu924 2.380 . S
O975 Eu935 2.612 . S
O975 C991 1.276 . S
O976 Eu924 2.432 . S
O976 C998 1.264 . S
O977 Eu935 2.339 . S
O977 C998 1.254 . S
O978 Eu935 2.563 . S
O978 C991 1.235 . S
O979 Eu935 2.419 . S
O979 C999 1.249 . S
C980 O969 1.276 . S
C980 O972 1.235 . S
C981 C983 1.393 . S
C981 C985 1.395 . S
C981 C988 1.492 . S
C982 C983 1.392 . S
C982 C984 1.386 . S
C983 C981 1.393 . S
C983 C982 1.392 . S
C983 H1000 0.930 . S
C984 C982 1.386 . S
C984 C986 1.395 . S
C984 H1001 0.930 . S
C985 C981 1.395 . S
C985 C986 1.379 . S
C985 H1002 0.930 . S
C986 C984 1.395 . S
C986 C985 1.379 . S
C986 H1003 0.930 . S
C987 O970 1.264 . S
C987 O971 1.254 . S
C988 Eu924 2.848 . S
C988 O968 1.257 . S
C988 O973 1.249 . S
C988 C981 1.492 . S
C989 H954 0.931 . S
C989 C967 1.420 . S
C989 C990 1.351 . S
C990 H952 0.930 . S
C990 C958 1.423 . S
C990 C989 1.351 . S
C991 O975 1.276 . S
C991 O978 1.235 . S
C992 C993 1.393 . S
C992 C996 1.395 . S
C992 C999 1.492 . S
C993 C992 1.393 . S
C993 C994 1.392 . S
C993 H1004 0.930 . S
C994 C993 1.392 . S
C994 C995 1.386 . S
C995 C994 1.386 . S
C995 C997 1.395 . S
C995 H1005 0.930 . S
C996 C992 1.395 . S
C996 C997 1.379 . S
C996 H1006 0.930 . S
C997 C995 1.395 . S
C997 C996 1.379 . S
C997 H1007 0.930 . S
C998 O976 1.264 . S
C998 O977 1.254 . S
C999 Eu935 2.848 . S
C999 O974 1.257 . S
C999 O979 1.249 . S
C999 C992 1.492 . S
H1000 C983 0.930 . S
H1001 C984 0.930 . S
H1002 C985 0.930 . S
H1003 C986 0.930 . S
H1004 C993 0.930 . S
H1005 C995 0.930 . S
H1006 C996 0.930 . S
H1007 C997 0.930 . S
Eu1008 N1039 2.657 . S
Eu1008 N1046 2.609 . S
Eu1008 O1052 2.558 . S
Eu1008 O1053 2.612 . S
Eu1008 O1055 2.339 . S
Eu1008 O1056 2.563 . S
Eu1008 O1057 2.419 . S
Eu1008 O1059 2.380 . S
Eu1008 O1060 2.432 . S
Eu1008 C1072 2.848 . S
C1009 C1012 1.429 . S
C1009 C1013 1.411 . S
C1009 N1016 1.377 . S
C1010 C1012 1.420 . S
C1010 C1014 1.423 . S
C1010 C1022 1.392 . S
C1011 C1013 1.420 . S
C1011 C1014 1.351 . S
C1011 H1034 0.931 . S
C1012 C1009 1.429 . S
C1012 C1010 1.420 . S
C1012 N1020 1.362 . S
C1013 C1009 1.411 . S
C1013 C1011 1.420 . S
C1013 C1018 1.395 . S
C1014 C1010 1.423 . S
C1014 C1011 1.351 . S
C1014 H1026 0.930 . S
C1015 C1017 1.400 . S
C1015 C1018 1.386 . S
C1015 H1027 0.930 . S
N1016 C1009 1.377 . S
N1016 C1017 1.321 . S
N1016 Eu1019 2.609 . S
C1017 C1015 1.400 . S
C1017 N1016 1.321 . S
C1017 H1024 0.930 . S
C1018 C1013 1.395 . S
C1018 C1015 1.386 . S
C1018 H1037 0.930 . S
Eu1019 N1016 2.609 . S
Eu1019 N1020 2.657 . S
Eu1019 O1053 2.380 . S
Eu1019 O1054 2.432 . S
Eu1019 O1058 2.558 . S
Eu1019 O1059 2.612 . S
Eu1019 O1061 2.339 . S
Eu1019 O1062 2.563 . S
Eu1019 O1063 2.419 . S
Eu1019 C1083 2.848 . S
N1020 C1012 1.362 . S
N1020 Eu1019 2.657 . S
N1020 C1021 1.334 . S
C1021 N1020 1.334 . S
C1021 C1023 1.413 . S
C1021 H1028 0.929 . S
C1022 C1010 1.392 . S
C1022 C1023 1.367 . S
C1022 H1030 0.930 . S
C1023 C1021 1.413 . S
C1023 C1022 1.367 . S
C1023 H1025 0.930 . S
H1024 C1017 0.930 . S
H1025 C1023 0.930 . S
H1026 C1014 0.930 . S
H1027 C1015 0.930 . S
H1028 C1021 0.929 . S
H1029 C1043 0.930 . S
H1030 C1022 0.930 . S
H1031 C1049 0.930 . S
H1032 C1040 0.929 . S
H1033 C1047 0.930 . S
H1034 C1011 0.931 . S
H1035 C1041 0.930 . S
H1036 C1074 0.930 . S
H1037 C1018 0.930 . S
H1038 C1073 0.931 . S
N1039 Eu1008 2.657 . S
N1039 C1040 1.334 . S
N1039 C1044 1.362 . S
C1040 H1032 0.929 . S
C1040 N1039 1.334 . S
C1040 C1043 1.413 . S
C1041 H1035 0.930 . S
C1041 C1042 1.392 . S
C1041 C1043 1.367 . S
C1042 C1041 1.392 . S
C1042 C1044 1.420 . S
C1042 C1074 1.423 . S
C1043 H1029 0.930 . S
C1043 C1040 1.413 . S
C1043 C1041 1.367 . S
C1044 N1039 1.362 . S
C1044 C1042 1.420 . S
C1044 C1048 1.429 . S
H1045 C1050 0.930 . S
N1046 Eu1008 2.609 . S
N1046 C1048 1.377 . S
N1046 C1049 1.321 . S
C1047 H1033 0.930 . S
C1047 C1049 1.400 . S
C1047 C1050 1.386 . S
C1048 C1044 1.429 . S
C1048 N1046 1.377 . S
C1048 C1051 1.411 . S
C1049 H1031 0.930 . S
C1049 N1046 1.321 . S
C1049 C1047 1.400 . S
C1050 H1045 0.930 . S
C1050 C1047 1.386 . S
C1050 C1051 1.395 . S
C1051 C1048 1.411 . S
C1051 C1050 1.395 . S
C1051 C1073 1.420 . S
O1052 Eu1008 2.558 . S
O1052 C1072 1.257 . S
O1053 Eu1008 2.612 . S
O1053 Eu1019 2.380 . S
O1053 C1064 1.276 . S
O1054 Eu1019 2.432 . S
O1054 C1071 1.264 . S
O1055 Eu1008 2.339 . S
O1055 C1071 1.254 . S
O1056 Eu1008 2.563 . S
O1056 C1064 1.235 . S
O1057 Eu1008 2.419 . S
O1057 C1072 1.249 . S
O1058 Eu1019 2.558 . S
O1058 C1083 1.257 . S
O1059 Eu1008 2.380 . S
O1059 Eu1019 2.612 . S
O1059 C1075 1.276 . S
O1060 Eu1008 2.432 . S
O1060 C1082 1.264 . S
O1061 Eu1019 2.339 . S
O1061 C1082 1.254 . S
O1062 Eu1019 2.563 . S
O1062 C1075 1.235 . S
O1063 Eu1019 2.419 . S
O1063 C1083 1.249 . S
C1064 O1053 1.276 . S
C1064 O1056 1.235 . S
C1065 C1067 1.393 . S
C1065 C1069 1.395 . S
C1065 C1072 1.492 . S
C1066 C1067 1.392 . S
C1066 C1068 1.386 . S
C1067 C1065 1.393 . S
C1067 C1066 1.392 . S
C1067 H1084 0.930 . S
C1068 C1066 1.386 . S
C1068 C1070 1.395 . S
C1068 H1085 0.930 . S
C1069 C1065 1.395 . S
C1069 C1070 1.379 . S
C1069 H1086 0.930 . S
C1070 C1068 1.395 . S
C1070 C1069 1.379 . S
C1070 H1087 0.930 . S
C1071 O1054 1.264 . S
C1071 O1055 1.254 . S
C1072 Eu1008 2.848 . S
C1072 O1052 1.257 . S
C1072 O1057 1.249 . S
C1072 C1065 1.492 . S
C1073 H1038 0.931 . S
C1073 C1051 1.420 . S
C1073 C1074 1.351 . S
C1074 H1036 0.930 . S
C1074 C1042 1.423 . S
C1074 C1073 1.351 . S
C1075 O1059 1.276 . S
C1075 O1062 1.235 . S
C1076 C1077 1.393 . S
C1076 C1080 1.395 . S
C1076 C1083 1.492 . S
C1077 C1076 1.393 . S
C1077 C1078 1.392 . S
C1077 H1088 0.930 . S
C1078 C1077 1.392 . S
C1078 C1079 1.386 . S
C1079 C1078 1.386 . S
C1079 C1081 1.395 . S
C1079 H1089 0.930 . S
C1080 C1076 1.395 . S
C1080 C1081 1.379 . S
C1080 H1090 0.930 . S
C1081 C1079 1.395 . S
C1081 C1080 1.379 . S
C1081 H1091 0.930 . S
C1082 O1060 1.264 . S
C1082 O1061 1.254 . S
C1083 Eu1019 2.848 . S
C1083 O1058 1.257 . S
C1083 O1063 1.249 . S
C1083 C1076 1.492 . S
H1084 C1067 0.930 . S
H1085 C1068 0.930 . S
H1086 C1069 0.930 . S
H1087 C1070 0.930 . S
H1088 C1077 0.930 . S
H1089 C1079 0.930 . S
H1090 C1080 0.930 . S
H1091 C1081 0.930 . S
Eu1092 N1123 2.657 . S
Eu1092 N1130 2.609 . S
Eu1092 O1136 2.558 . S
Eu1092 O1137 2.612 . S
Eu1092 O1139 2.339 . S
Eu1092 O1140 2.563 . S
Eu1092 O1141 2.419 . S
Eu1092 O1143 2.380 . S
Eu1092 O1144 2.432 . S
Eu1092 C1156 2.848 . S
C1093 C1096 1.429 . S
C1093 C1097 1.411 1_545 S
C1093 N1100 1.377 . S
C1094 C1096 1.420 . S
C1094 C1098 1.423 1_545 S
C1094 C1106 1.392 . S
C1095 C1097 1.420 . S
C1095 C1098 1.351 . S
C1095 H1118 0.931 . S
C1096 C1093 1.429 . S
C1096 C1094 1.420 . S
C1096 N1104 1.362 . S
C1097 C1093 1.411 1_565 S
C1097 C1095 1.420 . S
C1097 C1102 1.395 . S
C1098 C1094 1.423 1_565 S
C1098 C1095 1.351 . S
C1098 H1110 0.930 . S
C1099 C1101 1.400 1_565 S
C1099 C1102 1.386 . S
C1099 H1111 0.930 . S
N1100 C1093 1.377 . S
N1100 C1101 1.321 . S
N1100 Eu1103 2.609 . S
C1101 C1099 1.400 1_545 S
C1101 N1100 1.321 . S
C1101 H1108 0.930 . S
C1102 C1097 1.395 . S
C1102 C1099 1.386 . S
C1102 H1121 0.930 . S
Eu1103 N1100 2.609 . S
Eu1103 N1104 2.657 . S
Eu1103 O1137 2.380 . S
Eu1103 O1138 2.432 . S
Eu1103 O1142 2.558 . S
Eu1103 O1143 2.612 . S
Eu1103 O1145 2.339 . S
Eu1103 O1146 2.563 . S
Eu1103 O1147 2.419 . S
Eu1103 C1167 2.848 . S
N1104 C1096 1.362 . S
N1104 Eu1103 2.657 . S
N1104 C1105 1.334 . S
C1105 N1104 1.334 . S
C1105 C1107 1.413 . S
C1105 H1112 0.929 . S
C1106 C1094 1.392 . S
C1106 C1107 1.367 . S
C1106 H1114 0.930 . S
C1107 C1105 1.413 . S
C1107 C1106 1.367 . S
C1107 H1109 0.930 . S
H1108 C1101 0.930 . S
H1109 C1107 0.930 . S
H1110 C1098 0.930 . S
H1111 C1099 0.930 . S
H1112 C1105 0.929 . S
H1113 C1127 0.930 . S
H1114 C1106 0.930 . S
H1115 C1133 0.930 . S
H1116 C1124 0.929 . S
H1117 C1131 0.930 . S
H1118 C1095 0.931 . S
H1119 C1125 0.930 . S
H1120 C1158 0.930 . S
H1121 C1102 0.930 . S
H1122 C1157 0.931 . S
N1123 Eu1092 2.657 . S
N1123 C1124 1.334 . S
N1123 C1128 1.362 . S
C1124 H1116 0.929 . S
C1124 N1123 1.334 . S
C1124 C1127 1.413 . S
C1125 H1119 0.930 . S
C1125 C1126 1.392 . S
C1125 C1127 1.367 . S
C1126 C1125 1.392 . S
C1126 C1128 1.420 . S
C1126 C1158 1.423 . S
C1127 H1113 0.930 . S
C1127 C1124 1.413 . S
C1127 C1125 1.367 . S
C1128 N1123 1.362 . S
C1128 C1126 1.420 . S
C1128 C1132 1.429 . S
H1129 C1134 0.930 . S
N1130 Eu1092 2.609 . S
N1130 C1132 1.377 . S
N1130 C1133 1.321 . S
C1131 H1117 0.930 . S
C1131 C1133 1.400 . S
C1131 C1134 1.386 . S
C1132 C1128 1.429 . S
C1132 N1130 1.377 . S
C1132 C1135 1.411 . S
C1133 H1115 0.930 . S
C1133 N1130 1.321 . S
C1133 C1131 1.400 . S
C1134 H1129 0.930 . S
C1134 C1131 1.386 . S
C1134 C1135 1.395 . S
C1135 C1132 1.411 . S
C1135 C1134 1.395 . S
C1135 C1157 1.420 . S
O1136 Eu1092 2.558 . S
O1136 C1156 1.257 . S
O1137 Eu1092 2.612 . S
O1137 Eu1103 2.380 . S
O1137 C1148 1.276 . S
O1138 Eu1103 2.432 . S
O1138 C1155 1.264 . S
O1139 Eu1092 2.339 . S
O1139 C1155 1.254 . S
O1140 Eu1092 2.563 . S
O1140 C1148 1.235 . S
O1141 Eu1092 2.419 . S
O1141 C1156 1.249 . S
O1142 Eu1103 2.558 . S
O1142 C1167 1.257 . S
O1143 Eu1092 2.380 . S
O1143 Eu1103 2.612 . S
O1143 C1159 1.276 . S
O1144 Eu1092 2.432 . S
O1144 C1166 1.264 . S
O1145 Eu1103 2.339 . S
O1145 C1166 1.254 . S
O1146 Eu1103 2.563 . S
O1146 C1159 1.235 . S
O1147 Eu1103 2.419 . S
O1147 C1167 1.249 . S
C1148 O1137 1.276 . S
C1148 O1140 1.235 . S
C1149 C1151 1.393 . S
C1149 C1153 1.395 . S
C1149 C1156 1.492 . S
C1150 C1151 1.392 . S
C1150 C1152 1.386 . S
C1151 C1149 1.393 . S
C1151 C1150 1.392 . S
C1151 H1168 0.930 . S
C1152 C1150 1.386 . S
C1152 C1154 1.395 . S
C1152 H1169 0.930 . S
C1153 C1149 1.395 . S
C1153 C1154 1.379 . S
C1153 H1170 0.930 . S
C1154 C1152 1.395 . S
C1154 C1153 1.379 . S
C1154 H1171 0.930 . S
C1155 O1138 1.264 . S
C1155 O1139 1.254 . S
C1156 Eu1092 2.848 . S
C1156 O1136 1.257 . S
C1156 O1141 1.249 . S
C1156 C1149 1.492 . S
C1157 H1122 0.931 . S
C1157 C1135 1.420 . S
C1157 C1158 1.351 . S
C1158 H1120 0.930 . S
C1158 C1126 1.423 . S
C1158 C1157 1.351 . S
C1159 O1143 1.276 . S
C1159 O1146 1.235 . S
C1160 C1161 1.393 . S
C1160 C1164 1.395 . S
C1160 C1167 1.492 . S
C1161 C1160 1.393 . S
C1161 C1162 1.392 . S
C1161 H1172 0.930 . S
C1162 C1161 1.392 . S
C1162 C1163 1.386 . S
C1163 C1162 1.386 . S
C1163 C1165 1.395 . S
C1163 H1173 0.930 . S
C1164 C1160 1.395 . S
C1164 C1165 1.379 . S
C1164 H1174 0.930 . S
C1165 C1163 1.395 . S
C1165 C1164 1.379 . S
C1165 H1175 0.930 . S
C1166 O1144 1.264 . S
C1166 O1145 1.254 . S
C1167 Eu1103 2.848 . S
C1167 O1142 1.257 . S
C1167 O1147 1.249 . S
C1167 C1160 1.492 . S
H1168 C1151 0.930 . S
H1169 C1152 0.930 . S
H1170 C1153 0.930 . S
H1171 C1154 0.930 . S
H1172 C1161 0.930 . S
H1173 C1163 0.930 . S
H1174 C1164 0.930 . S
H1175 C1165 0.930 . S
Eu1176 N1207 2.657 . S
Eu1176 N1214 2.609 . S
Eu1176 O1220 2.558 . S
Eu1176 O1221 2.612 . S
Eu1176 O1223 2.339 . S
Eu1176 O1224 2.563 . S
Eu1176 O1225 2.419 . S
Eu1176 O1227 2.380 . S
Eu1176 O1228 2.432 . S
Eu1176 C1240 2.848 . S
C1177 C1180 1.429 . S
C1177 C1181 1.411 . S
C1177 N1184 1.377 . S
C1178 C1180 1.420 . S
C1178 C1182 1.423 . S
C1178 C1190 1.392 . S
C1179 C1181 1.420 . S
C1179 C1182 1.351 . S
C1179 H1202 0.931 . S
C1180 C1177 1.429 . S
C1180 C1178 1.420 . S
C1180 N1188 1.362 . S
C1181 C1177 1.411 . S
C1181 C1179 1.420 . S
C1181 C1186 1.395 . S
C1182 C1178 1.423 . S
C1182 C1179 1.351 . S
C1182 H1194 0.930 . S
C1183 C1185 1.400 . S
C1183 C1186 1.386 . S
C1183 H1195 0.930 . S
N1184 C1177 1.377 . S
N1184 C1185 1.321 . S
N1184 Eu1187 2.609 . S
C1185 C1183 1.400 . S
C1185 N1184 1.321 . S
C1185 H1192 0.930 . S
C1186 C1181 1.395 . S
C1186 C1183 1.386 . S
C1186 H1205 0.930 . S
Eu1187 N1184 2.609 . S
Eu1187 N1188 2.657 . S
Eu1187 O1221 2.380 . S
Eu1187 O1222 2.432 . S
Eu1187 O1226 2.558 . S
Eu1187 O1227 2.612 . S
Eu1187 O1229 2.339 . S
Eu1187 O1230 2.563 . S
Eu1187 O1231 2.419 . S
Eu1187 C1251 2.848 . S
N1188 C1180 1.362 . S
N1188 Eu1187 2.657 . S
N1188 C1189 1.334 . S
C1189 N1188 1.334 . S
C1189 C1191 1.413 . S
C1189 H1196 0.929 . S
C1190 C1178 1.392 . S
C1190 C1191 1.367 . S
C1190 H1198 0.930 . S
C1191 C1189 1.413 . S
C1191 C1190 1.367 . S
C1191 H1193 0.930 . S
H1192 C1185 0.930 . S
H1193 C1191 0.930 . S
H1194 C1182 0.930 . S
H1195 C1183 0.930 . S
H1196 C1189 0.929 . S
H1197 C1211 0.930 . S
H1198 C1190 0.930 . S
H1199 C1217 0.930 . S
H1200 C1208 0.929 . S
H1201 C1215 0.930 . S
H1202 C1179 0.931 . S
H1203 C1209 0.930 . S
H1204 C1242 0.930 . S
H1205 C1186 0.930 . S
H1206 C1241 0.931 . S
N1207 Eu1176 2.657 . S
N1207 C1208 1.334 . S
N1207 C1212 1.362 . S
C1208 H1200 0.929 . S
C1208 N1207 1.334 . S
C1208 C1211 1.413 . S
C1209 H1203 0.930 . S
C1209 C1210 1.392 . S
C1209 C1211 1.367 . S
C1210 C1209 1.392 . S
C1210 C1212 1.420 . S
C1210 C1242 1.423 . S
C1211 H1197 0.930 . S
C1211 C1208 1.413 . S
C1211 C1209 1.367 . S
C1212 N1207 1.362 . S
C1212 C1210 1.420 . S
C1212 C1216 1.429 . S
H1213 C1218 0.930 . S
N1214 Eu1176 2.609 . S
N1214 C1216 1.377 . S
N1214 C1217 1.321 . S
C1215 H1201 0.930 . S
C1215 C1217 1.400 . S
C1215 C1218 1.386 . S
C1216 C1212 1.429 . S
C1216 N1214 1.377 . S
C1216 C1219 1.411 . S
C1217 H1199 0.930 . S
C1217 N1214 1.321 . S
C1217 C1215 1.400 . S
C1218 H1213 0.930 . S
C1218 C1215 1.386 . S
C1218 C1219 1.395 . S
C1219 C1216 1.411 . S
C1219 C1218 1.395 . S
C1219 C1241 1.420 . S
O1220 Eu1176 2.558 . S
O1220 C1240 1.257 . S
O1221 Eu1176 2.612 . S
O1221 Eu1187 2.380 . S
O1221 C1232 1.276 . S
O1222 Eu1187 2.432 . S
O1222 C1239 1.264 . S
O1223 Eu1176 2.339 . S
O1223 C1239 1.254 . S
O1224 Eu1176 2.563 . S
O1224 C1232 1.235 . S
O1225 Eu1176 2.419 . S
O1225 C1240 1.249 . S
O1226 Eu1187 2.558 . S
O1226 C1251 1.257 . S
O1227 Eu1176 2.380 . S
O1227 Eu1187 2.612 . S
O1227 C1243 1.276 . S
O1228 Eu1176 2.432 . S
O1228 C1250 1.264 . S
O1229 Eu1187 2.339 . S
O1229 C1250 1.254 . S
O1230 Eu1187 2.563 . S
O1230 C1243 1.235 . S
O1231 Eu1187 2.419 . S
O1231 C1251 1.249 . S
C1232 O1221 1.276 . S
C1232 O1224 1.235 . S
C1233 C1235 1.393 . S
C1233 C1237 1.395 . S
C1233 C1240 1.492 . S
C1234 C1235 1.392 . S
C1234 C1236 1.386 . S
C1235 C1233 1.393 . S
C1235 C1234 1.392 . S
C1235 H1252 0.930 . S
C1236 C1234 1.386 . S
C1236 C1238 1.395 . S
C1236 H1253 0.930 . S
C1237 C1233 1.395 . S
C1237 C1238 1.379 . S
C1237 H1254 0.930 . S
C1238 C1236 1.395 . S
C1238 C1237 1.379 . S
C1238 H1255 0.930 . S
C1239 O1222 1.264 . S
C1239 O1223 1.254 . S
C1240 Eu1176 2.848 . S
C1240 O1220 1.257 . S
C1240 O1225 1.249 . S
C1240 C1233 1.492 . S
C1241 H1206 0.931 . S
C1241 C1219 1.420 . S
C1241 C1242 1.351 . S
C1242 H1204 0.930 . S
C1242 C1210 1.423 . S
C1242 C1241 1.351 . S
C1243 O1227 1.276 . S
C1243 O1230 1.235 . S
C1244 C1245 1.393 . S
C1244 C1248 1.395 . S
C1244 C1251 1.492 . S
C1245 C1244 1.393 . S
C1245 C1246 1.392 . S
C1245 H1256 0.930 . S
C1246 C1245 1.392 . S
C1246 C1247 1.386 . S
C1247 C1246 1.386 . S
C1247 C1249 1.395 . S
C1247 H1257 0.930 . S
C1248 C1244 1.395 . S
C1248 C1249 1.379 . S
C1248 H1258 0.930 . S
C1249 C1247 1.395 . S
C1249 C1248 1.379 . S
C1249 H1259 0.930 . S
C1250 O1228 1.264 . S
C1250 O1229 1.254 . S
C1251 Eu1187 2.848 . S
C1251 O1226 1.257 . S
C1251 O1231 1.249 . S
C1251 C1244 1.492 . S
H1252 C1235 0.930 . S
H1253 C1236 0.930 . S
H1254 C1237 0.930 . S
H1255 C1238 0.930 . S
H1256 C1245 0.930 . S
H1257 C1247 0.930 . S
H1258 C1248 0.930 . S
H1259 C1249 0.930 . S
Eu1260 N1291 2.657 . S
Eu1260 N1298 2.609 . S
Eu1260 O1304 2.558 . S
Eu1260 O1305 2.612 . S
Eu1260 O1307 2.339 . S
Eu1260 O1308 2.563 . S
Eu1260 O1309 2.419 . S
Eu1260 O1311 2.380 . S
Eu1260 O1312 2.432 . S
Eu1260 C1324 2.848 . S
C1261 C1264 1.429 1_655 S
C1261 C1265 1.411 1_665 S
C1261 N1268 1.377 . S
C1262 C1264 1.420 . S
C1262 C1266 1.423 1_565 S
C1262 C1274 1.392 . S
C1263 C1265 1.420 . S
C1263 C1266 1.351 . S
C1263 H1286 0.931 . S
C1264 C1261 1.429 1_455 S
C1264 C1262 1.420 . S
C1264 N1272 1.362 1_455 S
C1265 C1261 1.411 1_445 S
C1265 C1263 1.420 . S
C1265 C1270 1.398 . S
C1266 C1262 1.423 1_545 S
C1266 C1263 1.351 . S
C1266 H1278 0.930 . S
C1267 C1269 1.400 1_545 S
C1267 C1270 1.379 1_655 S
C1267 H1279 0.930 . S
N1268 C1261 1.377 . S
N1268 C1269 1.321 . S
N1268 Eu1271 2.609 . S
C1269 C1267 1.400 1_565 S
C1269 N1268 1.321 . S
C1269 H1276 0.930 . S
C1270 C1265 1.398 . S
C1270 C1267 1.379 1_455 S
C1270 H1289 0.933 . S
Eu1271 N1268 2.609 . S
Eu1271 N1272 2.657 . S
Eu1271 O1305 2.380 . S
Eu1271 O1306 2.432 . S
Eu1271 O1310 2.558 . S
Eu1271 O1311 2.612 . S
Eu1271 O1313 2.339 . S
Eu1271 O1314 2.563 . S
Eu1271 O1315 2.419 . S
Eu1271 C1335 2.848 . S
N1272 C1264 1.362 1_655 S
N1272 Eu1271 2.657 . S
N1272 C1273 1.334 1_655 S
C1273 N1272 1.334 1_455 S
C1273 C1275 1.413 . S
C1273 H1280 0.915 1_455 S
C1274 C1262 1.392 . S
C1274 C1275 1.367 . S
C1274 H1282 0.930 . S
C1275 C1273 1.413 . S
C1275 C1274 1.367 . S
C1275 H1277 0.930 . S
H1276 C1269 0.930 . S
H1277 C1275 0.930 . S
H1278 C1266 0.930 . S
H1279 C1267 0.930 . S
H1280 C1273 0.915 1_655 S
H1281 C1295 0.930 . S
H1282 C1274 0.930 . S
H1283 C1301 0.930 . S
H1284 C1292 0.929 . S
H1285 C1299 0.930 . S
H1286 C1263 0.931 . S
H1287 C1293 0.930 . S
H1288 C1326 0.930 . S
H1289 C1270 0.933 . S
H1290 C1325 0.931 . S
N1291 Eu1260 2.657 . S
N1291 C1292 1.334 . S
N1291 C1296 1.362 . S
C1292 H1284 0.929 . S
C1292 N1291 1.334 . S
C1292 C1295 1.413 . S
C1293 H1287 0.930 . S
C1293 C1294 1.392 . S
C1293 C1295 1.367 . S
C1294 C1293 1.392 . S
C1294 C1296 1.420 . S
C1294 C1326 1.423 . S
C1295 H1281 0.930 . S
C1295 C1292 1.413 . S
C1295 C1293 1.367 . S
C1296 N1291 1.362 . S
C1296 C1294 1.420 . S
C1296 C1300 1.429 . S
H1297 C1302 0.930 . S
N1298 Eu1260 2.609 . S
N1298 C1300 1.377 . S
N1298 C1301 1.321 . S
C1299 H1285 0.930 . S
C1299 C1301 1.400 . S
C1299 C1302 1.386 . S
C1300 C1296 1.429 . S
C1300 N1298 1.377 . S
C1300 C1303 1.411 . S
C1301 H1283 0.930 . S
C1301 N1298 1.321 . S
C1301 C1299 1.400 . S
C1302 H1297 0.930 . S
C1302 C1299 1.386 . S
C1302 C1303 1.395 . S
C1303 C1300 1.411 . S
C1303 C1302 1.395 . S
C1303 C1325 1.420 . S
O1304 Eu1260 2.558 . S
O1304 C1324 1.257 . S
O1305 Eu1260 2.612 . S
O1305 Eu1271 2.380 . S
O1305 C1316 1.276 . S
O1306 Eu1271 2.432 . S
O1306 C1323 1.264 . S
O1307 Eu1260 2.339 . S
O1307 C1323 1.254 . S
O1308 Eu1260 2.563 . S
O1308 C1316 1.235 . S
O1309 Eu1260 2.419 . S
O1309 C1324 1.249 . S
O1310 Eu1271 2.558 . S
O1310 C1335 1.257 . S
O1311 Eu1260 2.380 . S
O1311 Eu1271 2.612 . S
O1311 C1327 1.276 . S
O1312 Eu1260 2.432 . S
O1312 C1334 1.264 . S
O1313 Eu1271 2.339 . S
O1313 C1334 1.254 . S
O1314 Eu1271 2.563 . S
O1314 C1327 1.235 . S
O1315 Eu1271 2.419 . S
O1315 C1335 1.249 . S
C1316 O1305 1.276 . S
C1316 O1308 1.235 . S
C1317 C1319 1.393 . S
C1317 C1321 1.395 . S
C1317 C1324 1.492 . S
C1318 C1319 1.392 . S
C1318 C1320 1.386 . S
C1319 C1317 1.393 . S
C1319 C1318 1.392 . S
C1319 H1336 0.930 . S
C1320 C1318 1.386 . S
C1320 C1322 1.395 . S
C1320 H1337 0.930 . S
C1321 C1317 1.395 . S
C1321 C1322 1.379 . S
C1321 H1338 0.930 . S
C1322 C1320 1.395 . S
C1322 C1321 1.379 . S
C1322 H1339 0.930 . S
C1323 O1306 1.264 . S
C1323 O1307 1.254 . S
C1324 Eu1260 2.848 . S
C1324 O1304 1.257 . S
C1324 O1309 1.249 . S
C1324 C1317 1.492 . S
C1325 H1290 0.931 . S
C1325 C1303 1.420 . S
C1325 C1326 1.351 . S
C1326 H1288 0.930 . S
C1326 C1294 1.423 . S
C1326 C1325 1.351 . S
C1327 O1311 1.276 . S
C1327 O1314 1.235 . S
C1328 C1329 1.393 . S
C1328 C1332 1.395 . S
C1328 C1335 1.492 1_455 S
C1329 C1328 1.393 . S
C1329 C1330 1.392 . S
C1329 H1340 0.930 . S
C1330 C1329 1.392 . S
C1330 C1331 1.386 . S
C1331 C1330 1.386 . S
C1331 C1333 1.395 . S
C1331 H1341 0.930 . S
C1332 C1328 1.395 . S
C1332 C1333 1.379 . S
C1332 H1342 0.930 . S
C1333 C1331 1.395 . S
C1333 C1332 1.379 . S
C1333 H1343 0.930 . S
C1334 O1312 1.264 . S
C1334 O1313 1.254 . S
C1335 Eu1271 2.848 . S
C1335 O1310 1.257 . S
C1335 O1315 1.249 . S
C1335 C1328 1.492 1_655 S
H1336 C1319 0.930 . S
H1337 C1320 0.930 . S
H1338 C1321 0.930 . S
H1339 C1322 0.930 . S
H1340 C1329 0.930 . S
H1341 C1331 0.930 . S
H1342 C1332 0.930 . S
H1343 C1333 0.930 . S
Eu1344 N1375 2.657 . S
Eu1344 N1382 2.609 . S
Eu1344 O1388 2.558 . S
Eu1344 O1389 2.612 . S
Eu1344 O1391 2.339 . S
Eu1344 O1392 2.563 . S
Eu1344 O1393 2.419 . S
Eu1344 O1395 2.380 . S
Eu1344 O1396 2.432 . S
Eu1344 C1408 2.848 . S
C1345 C1348 1.429 . S
C1345 C1349 1.411 . S
C1345 N1352 1.377 . S
C1346 C1348 1.420 . S
C1346 C1350 1.423 . S
C1346 C1358 1.392 . S
C1347 C1349 1.420 . S
C1347 C1350 1.351 . S
C1347 H1370 0.931 . S
C1348 C1345 1.429 . S
C1348 C1346 1.420 . S
C1348 N1356 1.362 . S
C1349 C1345 1.411 . S
C1349 C1347 1.420 . S
C1349 C1354 1.395 . S
C1350 C1346 1.423 . S
C1350 C1347 1.351 . S
C1350 H1362 0.930 . S
C1351 C1353 1.400 . S
C1351 C1354 1.386 . S
C1351 H1363 0.930 . S
N1352 C1345 1.377 . S
N1352 C1353 1.321 . S
N1352 Eu1355 2.609 . S
C1353 C1351 1.400 . S
C1353 N1352 1.321 . S
C1353 H1360 0.930 . S
C1354 C1349 1.395 . S
C1354 C1351 1.386 . S
C1354 H1373 0.930 . S
Eu1355 N1352 2.609 . S
Eu1355 N1356 2.657 . S
Eu1355 O1389 2.380 . S
Eu1355 O1390 2.432 . S
Eu1355 O1394 2.558 . S
Eu1355 O1395 2.612 . S
Eu1355 O1397 2.339 . S
Eu1355 O1398 2.563 . S
Eu1355 O1399 2.419 . S
Eu1355 C1419 2.848 . S
N1356 C1348 1.362 . S
N1356 Eu1355 2.657 . S
N1356 C1357 1.334 . S
C1357 N1356 1.334 . S
C1357 C1359 1.413 . S
C1357 H1364 0.929 . S
C1358 C1346 1.392 . S
C1358 C1359 1.367 . S
C1358 H1366 0.930 . S
C1359 C1357 1.413 . S
C1359 C1358 1.367 . S
C1359 H1361 0.930 . S
H1360 C1353 0.930 . S
H1361 C1359 0.930 . S
H1362 C1350 0.930 . S
H1363 C1351 0.930 . S
H1364 C1357 0.929 . S
H1365 C1379 0.930 . S
H1366 C1358 0.930 . S
H1367 C1385 0.930 . S
H1368 C1376 0.929 . S
H1369 C1383 0.930 . S
H1370 C1347 0.931 . S
H1371 C1377 0.930 . S
H1372 C1410 0.930 . S
H1373 C1354 0.930 . S
H1374 C1409 0.931 . S
N1375 Eu1344 2.657 . S
N1375 C1376 1.334 . S
N1375 C1380 1.362 . S
C1376 H1368 0.929 . S
C1376 N1375 1.334 . S
C1376 C1379 1.413 . S
C1377 H1371 0.930 . S
C1377 C1378 1.392 . S
C1377 C1379 1.367 . S
C1378 C1377 1.392 . S
C1378 C1380 1.420 . S
C1378 C1410 1.423 . S
C1379 H1365 0.930 . S
C1379 C1376 1.413 . S
C1379 C1377 1.367 . S
C1380 N1375 1.362 . S
C1380 C1378 1.420 . S
C1380 C1384 1.429 . S
H1381 C1386 0.930 . S
N1382 Eu1344 2.609 . S
N1382 C1384 1.377 . S
N1382 C1385 1.321 . S
C1383 H1369 0.930 . S
C1383 C1385 1.400 . S
C1383 C1386 1.386 . S
C1384 C1380 1.429 . S
C1384 N1382 1.377 . S
C1384 C1387 1.411 . S
C1385 H1367 0.930 . S
C1385 N1382 1.321 . S
C1385 C1383 1.400 . S
C1386 H1381 0.930 . S
C1386 C1383 1.386 . S
C1386 C1387 1.395 . S
C1387 C1384 1.411 . S
C1387 C1386 1.395 . S
C1387 C1409 1.420 . S
O1388 Eu1344 2.558 . S
O1388 C1408 1.257 . S
O1389 Eu1344 2.612 . S
O1389 Eu1355 2.380 . S
O1389 C1400 1.276 . S
O1390 Eu1355 2.432 . S
O1390 C1407 1.264 . S
O1391 Eu1344 2.339 . S
O1391 C1407 1.254 . S
O1392 Eu1344 2.563 . S
O1392 C1400 1.235 . S
O1393 Eu1344 2.419 . S
O1393 C1408 1.249 . S
O1394 Eu1355 2.558 . S
O1394 C1419 1.257 . S
O1395 Eu1344 2.380 . S
O1395 Eu1355 2.612 . S
O1395 C1411 1.276 . S
O1396 Eu1344 2.432 . S
O1396 C1418 1.264 . S
O1397 Eu1355 2.339 . S
O1397 C1418 1.254 . S
O1398 Eu1355 2.563 . S
O1398 C1411 1.235 . S
O1399 Eu1355 2.419 . S
O1399 C1419 1.249 . S
C1400 O1389 1.276 . S
C1400 O1392 1.235 . S
C1401 C1403 1.393 . S
C1401 C1405 1.395 . S
C1401 C1408 1.492 . S
C1402 C1403 1.392 . S
C1402 C1404 1.386 . S
C1403 C1401 1.393 . S
C1403 C1402 1.392 . S
C1403 H1420 0.930 . S
C1404 C1402 1.386 . S
C1404 C1406 1.395 . S
C1404 H1421 0.930 . S
C1405 C1401 1.395 . S
C1405 C1406 1.379 . S
C1405 H1422 0.930 . S
C1406 C1404 1.395 . S
C1406 C1405 1.379 . S
C1406 H1423 0.930 . S
C1407 O1390 1.264 . S
C1407 O1391 1.254 . S
C1408 Eu1344 2.848 . S
C1408 O1388 1.257 . S
C1408 O1393 1.249 . S
C1408 C1401 1.492 . S
C1409 H1374 0.931 . S
C1409 C1387 1.420 . S
C1409 C1410 1.351 . S
C1410 H1372 0.930 . S
C1410 C1378 1.423 . S
C1410 C1409 1.351 . S
C1411 O1395 1.276 . S
C1411 O1398 1.235 . S
C1412 C1413 1.393 . S
C1412 C1416 1.395 . S
C1412 C1419 1.492 . S
C1413 C1412 1.393 . S
C1413 C1414 1.392 . S
C1413 H1424 0.930 . S
C1414 C1413 1.392 . S
C1414 C1415 1.386 . S
C1415 C1414 1.386 . S
C1415 C1417 1.395 . S
C1415 H1425 0.930 . S
C1416 C1412 1.395 . S
C1416 C1417 1.379 . S
C1416 H1426 0.930 . S
C1417 C1415 1.395 . S
C1417 C1416 1.379 . S
C1417 H1427 0.930 . S
C1418 O1396 1.264 . S
C1418 O1397 1.254 . S
C1419 Eu1355 2.848 . S
C1419 O1394 1.257 . S
C1419 O1399 1.249 . S
C1419 C1412 1.492 . S
H1420 C1403 0.930 . S
H1421 C1404 0.930 . S
H1422 C1405 0.930 . S
H1423 C1406 0.930 . S
H1424 C1413 0.930 . S
H1425 C1415 0.930 . S
H1426 C1416 0.930 . S
H1427 C1417 0.930 . S
Eu1428 N1459 2.657 . S
Eu1428 N1466 2.609 . S
Eu1428 O1472 2.558 . S
Eu1428 O1473 2.612 . S
Eu1428 O1475 2.339 . S
Eu1428 O1476 2.563 . S
Eu1428 O1477 2.419 . S
Eu1428 O1479 2.380 . S
Eu1428 O1480 2.432 . S
Eu1428 C1492 2.848 . S
C1429 C1432 1.429 . S
C1429 C1433 1.411 . S
C1429 N1436 1.377 . S
C1430 C1432 1.420 . S
C1430 C1434 1.423 . S
C1430 C1442 1.392 . S
C1431 C1433 1.420 . S
C1431 C1434 1.351 . S
C1431 H1454 0.931 . S
C1432 C1429 1.429 . S
C1432 C1430 1.420 . S
C1432 N1440 1.362 . S
C1433 C1429 1.411 . S
C1433 C1431 1.420 . S
C1433 C1438 1.395 . S
C1434 C1430 1.423 . S
C1434 C1431 1.351 . S
C1434 H1446 0.930 . S
C1435 C1437 1.400 . S
C1435 C1438 1.386 . S
C1435 H1447 0.930 . S
N1436 C1429 1.377 . S
N1436 C1437 1.321 . S
N1436 Eu1439 2.609 . S
C1437 C1435 1.400 . S
C1437 N1436 1.321 . S
C1437 H1444 0.930 . S
C1438 C1433 1.395 . S
C1438 C1435 1.386 . S
C1438 H1457 0.930 . S
Eu1439 N1436 2.609 . S
Eu1439 N1440 2.657 . S
Eu1439 O1473 2.380 . S
Eu1439 O1474 2.432 . S
Eu1439 O1478 2.558 . S
Eu1439 O1479 2.612 . S
Eu1439 O1481 2.339 . S
Eu1439 O1482 2.563 . S
Eu1439 O1483 2.419 . S
Eu1439 C1503 2.848 . S
N1440 C1432 1.362 . S
N1440 Eu1439 2.657 . S
N1440 C1441 1.334 . S
C1441 N1440 1.334 . S
C1441 C1443 1.413 . S
C1441 H1448 0.929 . S
C1442 C1430 1.392 . S
C1442 C1443 1.367 . S
C1442 H1450 0.930 . S
C1443 C1441 1.413 . S
C1443 C1442 1.367 . S
C1443 H1445 0.930 . S
H1444 C1437 0.930 . S
H1445 C1443 0.930 . S
H1446 C1434 0.930 . S
H1447 C1435 0.930 . S
H1448 C1441 0.929 . S
H1449 C1463 0.930 . S
H1450 C1442 0.930 . S
H1451 C1469 0.930 . S
H1452 C1460 0.929 . S
H1453 C1467 0.930 . S
H1454 C1431 0.931 . S
H1455 C1461 0.930 . S
H1456 C1494 0.930 . S
H1457 C1438 0.930 . S
H1458 C1493 0.931 . S
N1459 Eu1428 2.657 . S
N1459 C1460 1.334 . S
N1459 C1464 1.362 . S
C1460 H1452 0.929 . S
C1460 N1459 1.334 . S
C1460 C1463 1.413 . S
C1461 H1455 0.930 . S
C1461 C1462 1.392 . S
C1461 C1463 1.367 . S
C1462 C1461 1.392 . S
C1462 C1464 1.420 . S
C1462 C1494 1.423 . S
C1463 H1449 0.930 . S
C1463 C1460 1.413 . S
C1463 C1461 1.367 . S
C1464 N1459 1.362 . S
C1464 C1462 1.420 . S
C1464 C1468 1.429 . S
H1465 C1470 0.930 . S
N1466 Eu1428 2.609 . S
N1466 C1468 1.377 . S
N1466 C1469 1.321 . S
C1467 H1453 0.930 . S
C1467 C1469 1.400 . S
C1467 C1470 1.386 . S
C1468 C1464 1.429 . S
C1468 N1466 1.377 . S
C1468 C1471 1.411 . S
C1469 H1451 0.930 . S
C1469 N1466 1.321 . S
C1469 C1467 1.400 . S
C1470 H1465 0.930 . S
C1470 C1467 1.386 . S
C1470 C1471 1.395 . S
C1471 C1468 1.411 . S
C1471 C1470 1.395 . S
C1471 C1493 1.420 . S
O1472 Eu1428 2.558 . S
O1472 C1492 1.257 . S
O1473 Eu1428 2.612 . S
O1473 Eu1439 2.380 . S
O1473 C1484 1.276 . S
O1474 Eu1439 2.432 . S
O1474 C1491 1.264 . S
O1475 Eu1428 2.339 . S
O1475 C1491 1.254 . S
O1476 Eu1428 2.563 . S
O1476 C1484 1.235 . S
O1477 Eu1428 2.419 . S
O1477 C1492 1.249 . S
O1478 Eu1439 2.558 . S
O1478 C1503 1.257 . S
O1479 Eu1428 2.380 . S
O1479 Eu1439 2.612 . S
O1479 C1495 1.276 . S
O1480 Eu1428 2.432 . S
O1480 C1502 1.264 . S
O1481 Eu1439 2.339 . S
O1481 C1502 1.254 . S
O1482 Eu1439 2.563 . S
O1482 C1495 1.235 . S
O1483 Eu1439 2.419 . S
O1483 C1503 1.249 . S
C1484 O1473 1.276 . S
C1484 O1476 1.235 . S
C1485 C1487 1.393 . S
C1485 C1489 1.395 . S
C1485 C1492 1.492 . S
C1486 C1487 1.392 . S
C1486 C1488 1.386 . S
C1487 C1485 1.393 . S
C1487 C1486 1.392 . S
C1487 H1504 0.930 . S
C1488 C1486 1.386 . S
C1488 C1490 1.395 . S
C1488 H1505 0.930 . S
C1489 C1485 1.395 . S
C1489 C1490 1.379 . S
C1489 H1506 0.930 . S
C1490 C1488 1.395 . S
C1490 C1489 1.379 . S
C1490 H1507 0.930 . S
C1491 O1474 1.264 . S
C1491 O1475 1.254 . S
C1492 Eu1428 2.848 . S
C1492 O1472 1.257 . S
C1492 O1477 1.249 . S
C1492 C1485 1.492 . S
C1493 H1458 0.931 . S
C1493 C1471 1.420 . S
C1493 C1494 1.351 . S
C1494 H1456 0.930 . S
C1494 C1462 1.423 . S
C1494 C1493 1.351 . S
C1495 O1479 1.276 . S
C1495 O1482 1.235 . S
C1496 C1497 1.393 . S
C1496 C1500 1.395 . S
C1496 C1503 1.492 . S
C1497 C1496 1.393 . S
C1497 C1498 1.392 . S
C1497 H1508 0.930 . S
C1498 C1497 1.392 . S
C1498 C1499 1.386 . S
C1499 C1498 1.386 . S
C1499 C1501 1.395 . S
C1499 H1509 0.930 . S
C1500 C1496 1.395 . S
C1500 C1501 1.379 . S
C1500 H1510 0.930 . S
C1501 C1499 1.395 . S
C1501 C1500 1.379 . S
C1501 H1511 0.930 . S
C1502 O1480 1.264 . S
C1502 O1481 1.254 . S
C1503 Eu1439 2.848 . S
C1503 O1478 1.257 . S
C1503 O1483 1.249 . S
C1503 C1496 1.492 . S
H1504 C1487 0.930 . S
H1505 C1488 0.930 . S
H1506 C1489 0.930 . S
H1507 C1490 0.930 . S
H1508 C1497 0.930 . S
H1509 C1499 0.930 . S
H1510 C1500 0.930 . S
H1511 C1501 0.930 . S
Eu1512 N1543 2.657 . S
Eu1512 N1550 2.609 . S
Eu1512 O1556 2.558 . S
Eu1512 O1557 2.612 . S
Eu1512 O1559 2.339 . S
Eu1512 O1560 2.563 . S
Eu1512 O1561 2.419 . S
Eu1512 O1563 2.380 . S
Eu1512 O1564 2.432 . S
Eu1512 C1576 2.848 . S
C1513 C1516 1.429 . S
C1513 C1517 1.411 . S
C1513 N1520 1.377 . S
C1514 C1516 1.420 . S
C1514 C1518 1.423 . S
C1514 C1526 1.392 . S
C1515 C1517 1.420 . S
C1515 C1518 1.351 . S
C1515 H1538 0.931 . S
C1516 C1513 1.429 . S
C1516 C1514 1.420 . S
C1516 N1524 1.362 . S
C1517 C1513 1.411 . S
C1517 C1515 1.420 . S
C1517 C1522 1.395 . S
C1518 C1514 1.423 . S
C1518 C1515 1.351 . S
C1518 H1530 0.930 . S
C1519 C1521 1.400 . S
C1519 C1522 1.386 . S
C1519 H1531 0.930 . S
N1520 C1513 1.377 . S
N1520 C1521 1.321 . S
N1520 Eu1523 2.609 . S
C1521 C1519 1.400 . S
C1521 N1520 1.321 . S
C1521 H1528 0.930 . S
C1522 C1517 1.395 . S
C1522 C1519 1.386 . S
C1522 H1541 0.930 . S
Eu1523 N1520 2.609 . S
Eu1523 N1524 2.657 . S
Eu1523 O1557 2.380 . S
Eu1523 O1558 2.432 . S
Eu1523 O1562 2.558 . S
Eu1523 O1563 2.612 . S
Eu1523 O1565 2.339 . S
Eu1523 O1566 2.563 . S
Eu1523 O1567 2.419 . S
Eu1523 C1587 2.848 . S
N1524 C1516 1.362 . S
N1524 Eu1523 2.657 . S
N1524 C1525 1.334 . S
C1525 N1524 1.334 . S
C1525 C1527 1.413 . S
C1525 H1532 0.929 . S
C1526 C1514 1.392 . S
C1526 C1527 1.367 . S
C1526 H1534 0.930 . S
C1527 C1525 1.413 . S
C1527 C1526 1.367 . S
C1527 H1529 0.930 . S
H1528 C1521 0.930 . S
H1529 C1527 0.930 . S
H1530 C1518 0.930 . S
H1531 C1519 0.930 . S
H1532 C1525 0.929 . S
H1533 C1547 0.930 . S
H1534 C1526 0.930 . S
H1535 C1553 0.930 . S
H1536 C1544 0.929 . S
H1537 C1551 0.930 . S
H1538 C1515 0.931 . S
H1539 C1545 0.930 . S
H1540 C1578 0.930 . S
H1541 C1522 0.930 . S
H1542 C1577 0.931 . S
N1543 Eu1512 2.657 . S
N1543 C1544 1.334 . S
N1543 C1548 1.362 . S
C1544 H1536 0.929 . S
C1544 N1543 1.334 . S
C1544 C1547 1.413 . S
C1545 H1539 0.930 . S
C1545 C1546 1.392 . S
C1545 C1547 1.367 . S
C1546 C1545 1.392 . S
C1546 C1548 1.420 . S
C1546 C1578 1.423 . S
C1547 H1533 0.930 . S
C1547 C1544 1.413 . S
C1547 C1545 1.367 . S
C1548 N1543 1.362 . S
C1548 C1546 1.420 . S
C1548 C1552 1.429 . S
H1549 C1554 0.930 . S
N1550 Eu1512 2.609 . S
N1550 C1552 1.377 . S
N1550 C1553 1.321 . S
C1551 H1537 0.930 . S
C1551 C1553 1.400 . S
C1551 C1554 1.386 . S
C1552 C1548 1.429 . S
C1552 N1550 1.377 . S
C1552 C1555 1.411 . S
C1553 H1535 0.930 . S
C1553 N1550 1.321 . S
C1553 C1551 1.400 . S
C1554 H1549 0.930 . S
C1554 C1551 1.386 . S
C1554 C1555 1.395 . S
C1555 C1552 1.411 . S
C1555 C1554 1.395 . S
C1555 C1577 1.420 . S
O1556 Eu1512 2.558 . S
O1556 C1576 1.257 . S
O1557 Eu1512 2.612 . S
O1557 Eu1523 2.380 . S
O1557 C1568 1.276 . S
O1558 Eu1523 2.432 . S
O1558 C1575 1.264 . S
O1559 Eu1512 2.339 . S
O1559 C1575 1.254 . S
O1560 Eu1512 2.563 . S
O1560 C1568 1.235 . S
O1561 Eu1512 2.419 . S
O1561 C1576 1.249 . S
O1562 Eu1523 2.558 . S
O1562 C1587 1.257 . S
O1563 Eu1512 2.380 . S
O1563 Eu1523 2.612 . S
O1563 C1579 1.276 . S
O1564 Eu1512 2.432 . S
O1564 C1586 1.264 . S
O1565 Eu1523 2.339 . S
O1565 C1586 1.254 . S
O1566 Eu1523 2.563 . S
O1566 C1579 1.235 . S
O1567 Eu1523 2.419 . S
O1567 C1587 1.249 . S
C1568 O1557 1.276 . S
C1568 O1560 1.235 . S
C1569 C1571 1.393 . S
C1569 C1573 1.395 . S
C1569 C1576 1.492 . S
C1570 C1571 1.392 . S
C1570 C1572 1.386 . S
C1571 C1569 1.393 . S
C1571 C1570 1.392 . S
C1571 H1588 0.930 . S
C1572 C1570 1.386 . S
C1572 C1574 1.395 . S
C1572 H1589 0.930 . S
C1573 C1569 1.395 . S
C1573 C1574 1.379 . S
C1573 H1590 0.930 . S
C1574 C1572 1.395 . S
C1574 C1573 1.379 . S
C1574 H1591 0.930 . S
C1575 O1558 1.264 . S
C1575 O1559 1.254 . S
C1576 Eu1512 2.848 . S
C1576 O1556 1.257 . S
C1576 O1561 1.249 . S
C1576 C1569 1.492 . S
C1577 H1542 0.931 . S
C1577 C1555 1.420 . S
C1577 C1578 1.351 . S
C1578 H1540 0.930 . S
C1578 C1546 1.423 . S
C1578 C1577 1.351 . S
C1579 O1563 1.276 . S
C1579 O1566 1.235 . S
C1580 C1581 1.393 . S
C1580 C1584 1.395 . S
C1580 C1587 1.492 . S
C1581 C1580 1.393 . S
C1581 C1582 1.392 . S
C1581 H1592 0.930 . S
C1582 C1581 1.392 . S
C1582 C1583 1.386 . S
C1583 C1582 1.386 . S
C1583 C1585 1.395 . S
C1583 H1593 0.930 . S
C1584 C1580 1.395 . S
C1584 C1585 1.379 . S
C1584 H1594 0.930 . S
C1585 C1583 1.395 . S
C1585 C1584 1.379 . S
C1585 H1595 0.930 . S
C1586 O1564 1.264 . S
C1586 O1565 1.254 . S
C1587 Eu1523 2.848 . S
C1587 O1562 1.257 . S
C1587 O1567 1.249 . S
C1587 C1580 1.492 . S
H1588 C1571 0.930 . S
H1589 C1572 0.930 . S
H1590 C1573 0.930 . S
H1591 C1574 0.930 . S
H1592 C1581 0.930 . S
H1593 C1583 0.930 . S
H1594 C1584 0.930 . S
H1595 C1585 0.930 . S
Eu1596 N1627 2.657 . S
Eu1596 N1634 2.609 . S
Eu1596 O1640 2.558 . S
Eu1596 O1641 2.612 . S
Eu1596 O1643 2.339 . S
Eu1596 O1644 2.563 . S
Eu1596 O1645 2.419 . S
Eu1596 O1647 2.380 . S
Eu1596 O1648 2.432 . S
Eu1596 C1660 2.848 . S
C1597 C1600 1.429 . S
C1597 C1601 1.411 . S
C1597 N1604 1.377 . S
C1598 C1600 1.420 . S
C1598 C1602 1.423 . S
C1598 C1610 1.392 . S
C1599 C1601 1.420 . S
C1599 C1602 1.351 . S
C1599 H1622 0.931 . S
C1600 C1597 1.429 . S
C1600 C1598 1.420 . S
C1600 N1608 1.362 . S
C1601 C1597 1.411 . S
C1601 C1599 1.420 . S
C1601 C1606 1.395 . S
C1602 C1598 1.423 . S
C1602 C1599 1.351 . S
C1602 H1614 0.930 . S
C1603 C1605 1.400 . S
C1603 C1606 1.386 . S
C1603 H1615 0.930 . S
N1604 C1597 1.377 . S
N1604 C1605 1.321 . S
N1604 Eu1607 2.609 . S
C1605 C1603 1.400 . S
C1605 N1604 1.321 . S
C1605 H1612 0.930 . S
C1606 C1601 1.395 . S
C1606 C1603 1.386 . S
C1606 H1625 0.930 . S
Eu1607 N1604 2.609 . S
Eu1607 N1608 2.657 . S
Eu1607 O1641 2.380 . S
Eu1607 O1642 2.432 . S
Eu1607 O1646 2.558 . S
Eu1607 O1647 2.612 . S
Eu1607 O1649 2.339 . S
Eu1607 O1650 2.563 . S
Eu1607 O1651 2.419 . S
Eu1607 C1671 2.848 . S
N1608 C1600 1.362 . S
N1608 Eu1607 2.657 . S
N1608 C1609 1.334 . S
C1609 N1608 1.334 . S
C1609 C1611 1.413 . S
C1609 H1616 0.929 . S
C1610 C1598 1.392 . S
C1610 C1611 1.367 . S
C1610 H1618 0.930 . S
C1611 C1609 1.413 . S
C1611 C1610 1.367 . S
C1611 H1613 0.930 . S
H1612 C1605 0.930 . S
H1613 C1611 0.930 . S
H1614 C1602 0.930 . S
H1615 C1603 0.930 . S
H1616 C1609 0.929 . S
H1617 C1631 0.930 . S
H1618 C1610 0.930 . S
H1619 C1637 0.930 . S
H1620 C1628 0.915 1_655 S
H1621 C1635 0.930 . S
H1622 C1599 0.931 . S
H1623 C1629 0.930 . S
H1624 C1662 0.930 . S
H1625 C1606 0.930 . S
H1626 C1661 0.931 . S
N1627 Eu1596 2.657 . S
N1627 C1628 1.334 1_655 S
N1627 C1632 1.362 1_655 S
C1628 H1620 0.915 1_455 S
C1628 N1627 1.334 1_455 S
C1628 C1631 1.413 . S
C1629 H1623 0.930 . S
C1629 C1630 1.392 . S
C1629 C1631 1.367 . S
C1630 C1629 1.392 . S
C1630 C1632 1.420 . S
C1630 C1662 1.423 . S
C1631 H1617 0.930 . S
C1631 C1628 1.413 . S
C1631 C1629 1.367 . S
C1632 N1627 1.362 1_455 S
C1632 C1630 1.420 . S
C1632 C1636 1.429 1_455 S
H1633 C1638 0.933 . S
N1634 Eu1596 2.609 . S
N1634 C1636 1.377 . S
N1634 C1637 1.321 . S
C1635 H1621 0.930 . S
C1635 C1637 1.400 . S
C1635 C1638 1.379 1_655 S
C1636 C1632 1.429 1_655 S
C1636 N1634 1.377 . S
C1636 C1639 1.411 1_655 S
C1637 H1619 0.930 . S
C1637 N1634 1.321 . S
C1637 C1635 1.400 . S
C1638 H1633 0.933 . S
C1638 C1635 1.379 1_455 S
C1638 C1639 1.398 . S
C1639 C1636 1.411 1_455 S
C1639 C1638 1.398 . S
C1639 C1661 1.420 . S
O1640 Eu1596 2.558 . S
O1640 C1660 1.257 . S
O1641 Eu1596 2.612 . S
O1641 Eu1607 2.380 . S
O1641 C1652 1.276 . S
O1642 Eu1607 2.432 . S
O1642 C1659 1.264 . S
O1643 Eu1596 2.339 . S
O1643 C1659 1.254 . S
O1644 Eu1596 2.563 . S
O1644 C1652 1.235 . S
O1645 Eu1596 2.419 . S
O1645 C1660 1.249 . S
O1646 Eu1607 2.558 . S
O1646 C1671 1.257 . S
O1647 Eu1596 2.380 . S
O1647 Eu1607 2.612 . S
O1647 C1663 1.276 . S
O1648 Eu1596 2.432 . S
O1648 C1670 1.264 . S
O1649 Eu1607 2.339 . S
O1649 C1670 1.254 . S
O1650 Eu1607 2.563 . S
O1650 C1663 1.235 . S
O1651 Eu1607 2.419 . S
O1651 C1671 1.249 . S
C1652 O1641 1.276 . S
C1652 O1644 1.235 . S
C1653 C1655 1.393 . S
C1653 C1657 1.395 . S
C1653 C1660 1.492 1_455 S
C1654 C1655 1.392 . S
C1654 C1656 1.386 . S
C1655 C1653 1.393 . S
C1655 C1654 1.392 . S
C1655 H1672 0.930 . S
C1656 C1654 1.386 . S
C1656 C1658 1.395 . S
C1656 H1673 0.930 . S
C1657 C1653 1.395 . S
C1657 C1658 1.379 . S
C1657 H1674 0.930 . S
C1658 C1656 1.395 . S
C1658 C1657 1.379 . S
C1658 H1675 0.930 . S
C1659 O1642 1.264 . S
C1659 O1643 1.254 . S
C1660 Eu1596 2.848 . S
C1660 O1640 1.257 . S
C1660 O1645 1.249 . S
C1660 C1653 1.492 1_655 S
C1661 H1626 0.931 . S
C1661 C1639 1.420 . S
C1661 C1662 1.351 . S
C1662 H1624 0.930 . S
C1662 C1630 1.423 . S
C1662 C1661 1.351 . S
C1663 O1647 1.276 . S
C1663 O1650 1.235 . S
C1664 C1665 1.393 . S
C1664 C1668 1.395 . S
C1664 C1671 1.492 . S
C1665 C1664 1.393 . S
C1665 C1666 1.392 . S
C1665 H1676 0.930 . S
C1666 C1665 1.392 . S
C1666 C1667 1.386 . S
C1667 C1666 1.386 . S
C1667 C1669 1.395 . S
C1667 H1677 0.930 . S
C1668 C1664 1.395 . S
C1668 C1669 1.379 . S
C1668 H1678 0.930 . S
C1669 C1667 1.395 . S
C1669 C1668 1.379 . S
C1669 H1679 0.930 . S
C1670 O1648 1.264 . S
C1670 O1649 1.254 . S
C1671 Eu1607 2.848 . S
C1671 O1646 1.257 . S
C1671 O1651 1.249 . S
C1671 C1664 1.492 . S
H1672 C1655 0.930 . S
H1673 C1656 0.930 . S
H1674 C1657 0.930 . S
H1675 C1658 0.930 . S
H1676 C1665 0.930 . S
H1677 C1667 0.930 . S
H1678 C1668 0.930 . S
H1679 C1669 0.930 . S
Eu1680 N1711 2.657 . S
Eu1680 N1718 2.609 . S
Eu1680 O1724 2.558 . S
Eu1680 O1725 2.612 . S
Eu1680 O1727 2.339 . S
Eu1680 O1728 2.563 . S
Eu1680 O1729 2.419 . S
Eu1680 O1731 2.380 . S
Eu1680 O1732 2.432 . S
Eu1680 C1744 2.848 . S
C1681 C1684 1.429 . S
C1681 C1685 1.411 . S
C1681 N1688 1.377 . S
C1682 C1684 1.420 . S
C1682 C1686 1.423 . S
C1682 C1694 1.392 . S
C1683 C1685 1.420 . S
C1683 C1686 1.351 . S
C1683 H1706 0.931 . S
C1684 C1681 1.429 . S
C1684 C1682 1.420 . S
C1684 N1692 1.362 . S
C1685 C1681 1.411 . S
C1685 C1683 1.420 . S
C1685 C1690 1.395 . S
C1686 C1682 1.423 . S
C1686 C1683 1.351 . S
C1686 H1698 0.930 . S
C1687 C1689 1.400 . S
C1687 C1690 1.386 . S
C1687 H1699 0.930 . S
N1688 C1681 1.377 . S
N1688 C1689 1.321 . S
N1688 Eu1691 2.609 . S
C1689 C1687 1.400 . S
C1689 N1688 1.321 . S
C1689 H1696 0.930 . S
C1690 C1685 1.395 . S
C1690 C1687 1.386 . S
C1690 H1709 0.930 . S
Eu1691 N1688 2.609 . S
Eu1691 N1692 2.657 . S
Eu1691 O1725 2.380 . S
Eu1691 O1726 2.432 . S
Eu1691 O1730 2.558 . S
Eu1691 O1731 2.612 . S
Eu1691 O1733 2.339 . S
Eu1691 O1734 2.563 . S
Eu1691 O1735 2.419 . S
Eu1691 C1755 2.848 . S
N1692 C1684 1.362 . S
N1692 Eu1691 2.657 . S
N1692 C1693 1.334 . S
C1693 N1692 1.334 . S
C1693 C1695 1.413 . S
C1693 H1700 0.929 . S
C1694 C1682 1.392 . S
C1694 C1695 1.367 . S
C1694 H1702 0.930 . S
C1695 C1693 1.413 . S
C1695 C1694 1.367 . S
C1695 H1697 0.930 . S
H1696 C1689 0.930 . S
H1697 C1695 0.930 . S
H1698 C1686 0.930 . S
H1699 C1687 0.930 . S
H1700 C1693 0.929 . S
H1701 C1715 0.930 . S
H1702 C1694 0.930 . S
H1703 C1721 0.930 . S
H1704 C1712 0.929 . S
H1705 C1719 0.930 . S
H1706 C1683 0.931 . S
H1707 C1713 0.930 . S
H1708 C1746 0.930 . S
H1709 C1690 0.930 . S
H1710 C1745 0.931 . S
N1711 Eu1680 2.657 . S
N1711 C1712 1.334 . S
N1711 C1716 1.362 . S
C1712 H1704 0.929 . S
C1712 N1711 1.334 . S
C1712 C1715 1.413 . S
C1713 H1707 0.930 . S
C1713 C1714 1.392 . S
C1713 C1715 1.367 . S
C1714 C1713 1.392 . S
C1714 C1716 1.420 . S
C1714 C1746 1.423 . S
C1715 H1701 0.930 . S
C1715 C1712 1.413 . S
C1715 C1713 1.367 . S
C1716 N1711 1.362 . S
C1716 C1714 1.420 . S
C1716 C1720 1.429 . S
H1717 C1722 0.930 . S
N1718 Eu1680 2.609 . S
N1718 C1720 1.377 . S
N1718 C1721 1.321 . S
C1719 H1705 0.930 . S
C1719 C1721 1.400 . S
C1719 C1722 1.386 . S
C1720 C1716 1.429 . S
C1720 N1718 1.377 . S
C1720 C1723 1.411 . S
C1721 H1703 0.930 . S
C1721 N1718 1.321 . S
C1721 C1719 1.400 . S
C1722 H1717 0.930 . S
C1722 C1719 1.386 . S
C1722 C1723 1.395 . S
C1723 C1720 1.411 . S
C1723 C1722 1.395 . S
C1723 C1745 1.420 . S
O1724 Eu1680 2.558 . S
O1724 C1744 1.257 . S
O1725 Eu1680 2.612 . S
O1725 Eu1691 2.380 . S
O1725 C1736 1.276 . S
O1726 Eu1691 2.432 . S
O1726 C1743 1.264 . S
O1727 Eu1680 2.339 . S
O1727 C1743 1.254 . S
O1728 Eu1680 2.563 . S
O1728 C1736 1.235 . S
O1729 Eu1680 2.419 . S
O1729 C1744 1.249 . S
O1730 Eu1691 2.558 . S
O1730 C1755 1.257 . S
O1731 Eu1680 2.380 . S
O1731 Eu1691 2.612 . S
O1731 C1747 1.276 . S
O1732 Eu1680 2.432 . S
O1732 C1754 1.264 . S
O1733 Eu1691 2.339 . S
O1733 C1754 1.254 . S
O1734 Eu1691 2.563 . S
O1734 C1747 1.235 . S
O1735 Eu1691 2.419 . S
O1735 C1755 1.249 . S
C1736 O1725 1.276 . S
C1736 O1728 1.235 . S
C1737 C1739 1.393 . S
C1737 C1741 1.395 . S
C1737 C1744 1.492 . S
C1738 C1739 1.392 . S
C1738 C1740 1.386 . S
C1739 C1737 1.393 . S
C1739 C1738 1.392 . S
C1739 H1756 0.930 . S
C1740 C1738 1.386 . S
C1740 C1742 1.395 . S
C1740 H1757 0.930 . S
C1741 C1737 1.395 . S
C1741 C1742 1.379 . S
C1741 H1758 0.930 . S
C1742 C1740 1.395 . S
C1742 C1741 1.379 . S
C1742 H1759 0.930 . S
C1743 O1726 1.264 . S
C1743 O1727 1.254 . S
C1744 Eu1680 2.848 . S
C1744 O1724 1.257 . S
C1744 O1729 1.249 . S
C1744 C1737 1.492 . S
C1745 H1710 0.931 . S
C1745 C1723 1.420 . S
C1745 C1746 1.351 . S
C1746 H1708 0.930 . S
C1746 C1714 1.423 . S
C1746 C1745 1.351 . S
C1747 O1731 1.276 . S
C1747 O1734 1.235 . S
C1748 C1749 1.393 . S
C1748 C1752 1.395 . S
C1748 C1755 1.492 . S
C1749 C1748 1.393 . S
C1749 C1750 1.392 . S
C1749 H1760 0.930 . S
C1750 C1749 1.392 . S
C1750 C1751 1.386 . S
C1751 C1750 1.386 . S
C1751 C1753 1.395 . S
C1751 H1761 0.930 . S
C1752 C1748 1.395 . S
C1752 C1753 1.379 . S
C1752 H1762 0.930 . S
C1753 C1751 1.395 . S
C1753 C1752 1.379 . S
C1753 H1763 0.930 . S
C1754 O1732 1.264 . S
C1754 O1733 1.254 . S
C1755 Eu1691 2.848 . S
C1755 O1730 1.257 . S
C1755 O1735 1.249 . S
C1755 C1748 1.492 . S
H1756 C1739 0.930 . S
H1757 C1740 0.930 . S
H1758 C1741 0.930 . S
H1759 C1742 0.930 . S
H1760 C1749 0.930 . S
H1761 C1751 0.930 . S
H1762 C1752 0.930 . S
H1763 C1753 0.930 . S
Eu1764 N1795 2.657 . S
Eu1764 N1802 2.609 . S
Eu1764 O1808 2.558 . S
Eu1764 O1809 2.612 . S
Eu1764 O1811 2.339 . S
Eu1764 O1812 2.563 . S
Eu1764 O1813 2.419 . S
Eu1764 O1815 2.380 . S
Eu1764 O1816 2.432 . S
Eu1764 C1828 2.848 . S
C1765 C1768 1.429 . S
C1765 C1769 1.411 . S
C1765 N1772 1.377 . S
C1766 C1768 1.420 . S
C1766 C1770 1.423 . S
C1766 C1778 1.392 . S
C1767 C1769 1.420 . S
C1767 C1770 1.351 . S
C1767 H1790 0.931 . S
C1768 C1765 1.429 . S
C1768 C1766 1.420 . S
C1768 N1776 1.362 . S
C1769 C1765 1.411 . S
C1769 C1767 1.420 . S
C1769 C1774 1.395 . S
C1770 C1766 1.423 . S
C1770 C1767 1.351 . S
C1770 H1782 0.930 . S
C1771 C1773 1.400 . S
C1771 C1774 1.386 . S
C1771 H1783 0.930 . S
N1772 C1765 1.377 . S
N1772 C1773 1.321 . S
N1772 Eu1775 2.609 . S
C1773 C1771 1.400 . S
C1773 N1772 1.321 . S
C1773 H1780 0.930 . S
C1774 C1769 1.395 . S
C1774 C1771 1.386 . S
C1774 H1793 0.930 . S
Eu1775 N1772 2.609 . S
Eu1775 N1776 2.657 . S
Eu1775 O1809 2.380 . S
Eu1775 O1810 2.432 . S
Eu1775 O1814 2.558 . S
Eu1775 O1815 2.612 . S
Eu1775 O1817 2.339 . S
Eu1775 O1818 2.563 . S
Eu1775 O1819 2.419 . S
Eu1775 C1839 2.848 . S
N1776 C1768 1.362 . S
N1776 Eu1775 2.657 . S
N1776 C1777 1.334 . S
C1777 N1776 1.334 . S
C1777 C1779 1.413 . S
C1777 H1784 0.929 . S
C1778 C1766 1.392 . S
C1778 C1779 1.367 . S
C1778 H1786 0.930 . S
C1779 C1777 1.413 . S
C1779 C1778 1.367 . S
C1779 H1781 0.930 . S
H1780 C1773 0.930 . S
H1781 C1779 0.930 . S
H1782 C1770 0.930 . S
H1783 C1771 0.930 . S
H1784 C1777 0.929 . S
H1785 C1799 0.930 . S
H1786 C1778 0.930 . S
H1787 C1805 0.930 . S
H1788 C1796 0.915 1_655 S
H1789 C1803 0.930 . S
H1790 C1767 0.931 . S
H1791 C1797 0.930 . S
H1792 C1830 0.930 . S
H1793 C1774 0.930 . S
H1794 C1829 0.931 . S
N1795 Eu1764 2.657 . S
N1795 C1796 1.334 1_655 S
N1795 C1800 1.362 1_655 S
C1796 H1788 0.915 1_455 S
C1796 N1795 1.334 1_455 S
C1796 C1799 1.413 . S
C1797 H1791 0.930 . S
C1797 C1798 1.392 . S
C1797 C1799 1.367 . S
C1798 C1797 1.392 . S
C1798 C1800 1.420 . S
C1798 C1830 1.423 . S
C1799 H1785 0.930 . S
C1799 C1796 1.413 . S
C1799 C1797 1.367 . S
C1800 N1795 1.362 1_455 S
C1800 C1798 1.420 . S
C1800 C1804 1.429 1_455 S
H1801 C1806 0.933 . S
N1802 Eu1764 2.609 . S
N1802 C1804 1.377 . S
N1802 C1805 1.321 . S
C1803 H1789 0.930 . S
C1803 C1805 1.400 . S
C1803 C1806 1.379 1_655 S
C1804 C1800 1.429 1_655 S
C1804 N1802 1.377 . S
C1804 C1807 1.411 1_655 S
C1805 H1787 0.930 . S
C1805 N1802 1.321 . S
C1805 C1803 1.400 . S
C1806 H1801 0.933 . S
C1806 C1803 1.379 1_455 S
C1806 C1807 1.398 . S
C1807 C1804 1.411 1_455 S
C1807 C1806 1.398 . S
C1807 C1829 1.420 . S
O1808 Eu1764 2.558 . S
O1808 C1828 1.257 . S
O1809 Eu1764 2.612 . S
O1809 Eu1775 2.380 . S
O1809 C1820 1.276 . S
O1810 Eu1775 2.432 . S
O1810 C1827 1.264 . S
O1811 Eu1764 2.339 . S
O1811 C1827 1.254 . S
O1812 Eu1764 2.563 . S
O1812 C1820 1.235 . S
O1813 Eu1764 2.419 . S
O1813 C1828 1.249 . S
O1814 Eu1775 2.558 . S
O1814 C1839 1.257 . S
O1815 Eu1764 2.380 . S
O1815 Eu1775 2.612 . S
O1815 C1831 1.276 . S
O1816 Eu1764 2.432 . S
O1816 C1838 1.264 . S
O1817 Eu1775 2.339 . S
O1817 C1838 1.254 . S
O1818 Eu1775 2.563 . S
O1818 C1831 1.235 . S
O1819 Eu1775 2.419 . S
O1819 C1839 1.249 . S
C1820 O1809 1.276 . S
C1820 O1812 1.235 . S
C1821 C1823 1.393 . S
C1821 C1825 1.395 . S
C1821 C1828 1.492 1_455 S
C1822 C1823 1.392 . S
C1822 C1824 1.386 . S
C1823 C1821 1.393 . S
C1823 C1822 1.392 . S
C1823 H1840 0.930 . S
C1824 C1822 1.386 . S
C1824 C1826 1.395 . S
C1824 H1841 0.930 . S
C1825 C1821 1.395 . S
C1825 C1826 1.379 . S
C1825 H1842 0.930 . S
C1826 C1824 1.395 . S
C1826 C1825 1.379 . S
C1826 H1843 0.930 . S
C1827 O1810 1.264 . S
C1827 O1811 1.254 . S
C1828 Eu1764 2.848 . S
C1828 O1808 1.257 . S
C1828 O1813 1.249 . S
C1828 C1821 1.492 1_655 S
C1829 H1794 0.931 . S
C1829 C1807 1.420 . S
C1829 C1830 1.351 . S
C1830 H1792 0.930 . S
C1830 C1798 1.423 . S
C1830 C1829 1.351 . S
C1831 O1815 1.276 . S
C1831 O1818 1.235 . S
C1832 C1833 1.393 . S
C1832 C1836 1.395 . S
C1832 C1839 1.492 . S
C1833 C1832 1.393 . S
C1833 C1834 1.392 . S
C1833 H1844 0.930 . S
C1834 C1833 1.392 . S
C1834 C1835 1.386 . S
C1835 C1834 1.386 . S
C1835 C1837 1.395 . S
C1835 H1845 0.930 . S
C1836 C1832 1.395 . S
C1836 C1837 1.379 . S
C1836 H1846 0.930 . S
C1837 C1835 1.395 . S
C1837 C1836 1.379 . S
C1837 H1847 0.930 . S
C1838 O1816 1.264 . S
C1838 O1817 1.254 . S
C1839 Eu1775 2.848 . S
C1839 O1814 1.257 . S
C1839 O1819 1.249 . S
C1839 C1832 1.492 . S
H1840 C1823 0.930 . S
H1841 C1824 0.930 . S
H1842 C1825 0.930 . S
H1843 C1826 0.930 . S
H1844 C1833 0.930 . S
H1845 C1835 0.930 . S
H1846 C1836 0.930 . S
H1847 C1837 0.930 . S
Eu1848 N1879 2.657 . S
Eu1848 N1886 2.609 . S
Eu1848 O1892 2.558 . S
Eu1848 O1893 2.612 . S
Eu1848 O1895 2.339 . S
Eu1848 O1896 2.563 . S
Eu1848 O1897 2.419 . S
Eu1848 O1899 2.380 . S
Eu1848 O1900 2.432 . S
Eu1848 C1912 2.848 . S
C1849 C1852 1.429 . S
C1849 C1853 1.411 . S
C1849 N1856 1.377 . S
C1850 C1852 1.420 . S
C1850 C1854 1.423 . S
C1850 C1862 1.392 . S
C1851 C1853 1.420 . S
C1851 C1854 1.351 . S
C1851 H1874 0.931 . S
C1852 C1849 1.429 . S
C1852 C1850 1.420 . S
C1852 N1860 1.362 . S
C1853 C1849 1.411 . S
C1853 C1851 1.420 . S
C1853 C1858 1.395 . S
C1854 C1850 1.423 . S
C1854 C1851 1.351 . S
C1854 H1866 0.930 . S
C1855 C1857 1.400 . S
C1855 C1858 1.386 . S
C1855 H1867 0.930 . S
N1856 C1849 1.377 . S
N1856 C1857 1.321 . S
N1856 Eu1859 2.609 . S
C1857 C1855 1.400 . S
C1857 N1856 1.321 . S
C1857 H1864 0.930 . S
C1858 C1853 1.395 . S
C1858 C1855 1.386 . S
C1858 H1877 0.930 . S
Eu1859 N1856 2.609 . S
Eu1859 N1860 2.657 . S
Eu1859 O1893 2.380 . S
Eu1859 O1894 2.432 . S
Eu1859 O1898 2.558 . S
Eu1859 O1899 2.612 . S
Eu1859 O1901 2.339 . S
Eu1859 O1902 2.563 . S
Eu1859 O1903 2.419 . S
Eu1859 C1923 2.848 . S
N1860 C1852 1.362 . S
N1860 Eu1859 2.657 . S
N1860 C1861 1.334 . S
C1861 N1860 1.334 . S
C1861 C1863 1.413 . S
C1861 H1868 0.929 . S
C1862 C1850 1.392 . S
C1862 C1863 1.367 . S
C1862 H1870 0.930 . S
C1863 C1861 1.413 . S
C1863 C1862 1.367 . S
C1863 H1865 0.930 . S
H1864 C1857 0.930 . S
H1865 C1863 0.930 . S
H1866 C1854 0.930 . S
H1867 C1855 0.930 . S
H1868 C1861 0.929 . S
H1869 C1883 0.930 . S
H1870 C1862 0.930 . S
H1871 C1889 0.930 . S
H1872 C1880 0.929 . S
H1873 C1887 0.930 . S
H1874 C1851 0.931 . S
H1875 C1881 0.930 . S
H1876 C1914 0.930 . S
H1877 C1858 0.930 . S
H1878 C1913 0.931 . S
N1879 Eu1848 2.657 . S
N1879 C1880 1.334 . S
N1879 C1884 1.362 . S
C1880 H1872 0.929 . S
C1880 N1879 1.334 . S
C1880 C1883 1.413 . S
C1881 H1875 0.930 . S
C1881 C1882 1.392 . S
C1881 C1883 1.367 . S
C1882 C1881 1.392 . S
C1882 C1884 1.420 . S
C1882 C1914 1.423 . S
C1883 H1869 0.930 . S
C1883 C1880 1.413 . S
C1883 C1881 1.367 . S
C1884 N1879 1.362 . S
C1884 C1882 1.420 . S
C1884 C1888 1.429 . S
H1885 C1890 0.930 . S
N1886 Eu1848 2.609 . S
N1886 C1888 1.377 . S
N1886 C1889 1.321 . S
C1887 H1873 0.930 . S
C1887 C1889 1.400 . S
C1887 C1890 1.386 . S
C1888 C1884 1.429 . S
C1888 N1886 1.377 . S
C1888 C1891 1.411 . S
C1889 H1871 0.930 . S
C1889 N1886 1.321 . S
C1889 C1887 1.400 . S
C1890 H1885 0.930 . S
C1890 C1887 1.386 . S
C1890 C1891 1.395 . S
C1891 C1888 1.411 . S
C1891 C1890 1.395 . S
C1891 C1913 1.420 . S
O1892 Eu1848 2.558 . S
O1892 C1912 1.257 . S
O1893 Eu1848 2.612 . S
O1893 Eu1859 2.380 . S
O1893 C1904 1.276 . S
O1894 Eu1859 2.432 . S
O1894 C1911 1.264 . S
O1895 Eu1848 2.339 . S
O1895 C1911 1.254 . S
O1896 Eu1848 2.563 . S
O1896 C1904 1.235 . S
O1897 Eu1848 2.419 . S
O1897 C1912 1.249 . S
O1898 Eu1859 2.558 . S
O1898 C1923 1.257 . S
O1899 Eu1848 2.380 . S
O1899 Eu1859 2.612 . S
O1899 C1915 1.276 . S
O1900 Eu1848 2.432 . S
O1900 C1922 1.264 . S
O1901 Eu1859 2.339 . S
O1901 C1922 1.254 . S
O1902 Eu1859 2.563 . S
O1902 C1915 1.235 . S
O1903 Eu1859 2.419 . S
O1903 C1923 1.249 . S
C1904 O1893 1.276 . S
C1904 O1896 1.235 . S
C1905 C1907 1.393 . S
C1905 C1909 1.395 . S
C1905 C1912 1.492 . S
C1906 C1907 1.392 . S
C1906 C1908 1.386 . S
C1907 C1905 1.393 . S
C1907 C1906 1.392 . S
C1907 H1924 0.930 . S
C1908 C1906 1.386 . S
C1908 C1910 1.395 . S
C1908 H1925 0.930 . S
C1909 C1905 1.395 . S
C1909 C1910 1.379 . S
C1909 H1926 0.930 . S
C1910 C1908 1.395 . S
C1910 C1909 1.379 . S
C1910 H1927 0.930 . S
C1911 O1894 1.264 . S
C1911 O1895 1.254 . S
C1912 Eu1848 2.848 . S
C1912 O1892 1.257 . S
C1912 O1897 1.249 . S
C1912 C1905 1.492 . S
C1913 H1878 0.931 . S
C1913 C1891 1.420 . S
C1913 C1914 1.351 . S
C1914 H1876 0.930 . S
C1914 C1882 1.423 . S
C1914 C1913 1.351 . S
C1915 O1899 1.276 . S
C1915 O1902 1.235 . S
C1916 C1917 1.393 . S
C1916 C1920 1.395 . S
C1916 C1923 1.492 . S
C1917 C1916 1.393 . S
C1917 C1918 1.392 . S
C1917 H1928 0.930 . S
C1918 C1917 1.392 . S
C1918 C1919 1.386 . S
C1919 C1918 1.386 . S
C1919 C1921 1.395 . S
C1919 H1929 0.930 . S
C1920 C1916 1.395 . S
C1920 C1921 1.379 . S
C1920 H1930 0.930 . S
C1921 C1919 1.395 . S
C1921 C1920 1.379 . S
C1921 H1931 0.930 . S
C1922 O1900 1.264 . S
C1922 O1901 1.254 . S
C1923 Eu1859 2.848 . S
C1923 O1898 1.257 . S
C1923 O1903 1.249 . S
C1923 C1916 1.492 . S
H1924 C1907 0.930 . S
H1925 C1908 0.930 . S
H1926 C1909 0.930 . S
H1927 C1910 0.930 . S
H1928 C1917 0.930 . S
H1929 C1919 0.930 . S
H1930 C1920 0.930 . S
H1931 C1921 0.930 . S
Eu1932 N1963 2.657 . S
Eu1932 N1970 2.609 . S
Eu1932 O1976 2.558 . S
Eu1932 O1977 2.612 . S
Eu1932 O1979 2.339 . S
Eu1932 O1980 2.563 . S
Eu1932 O1981 2.419 . S
Eu1932 O1983 2.380 . S
Eu1932 O1984 2.432 . S
Eu1932 C1996 2.848 . S
C1933 C1936 1.429 . S
C1933 C1937 1.411 . S
C1933 N1940 1.377 . S
C1934 C1936 1.420 . S
C1934 C1938 1.423 . S
C1934 C1946 1.392 . S
C1935 C1937 1.420 . S
C1935 C1938 1.351 . S
C1935 H1958 0.931 . S
C1936 C1933 1.429 . S
C1936 C1934 1.420 . S
C1936 N1944 1.362 . S
C1937 C1933 1.411 . S
C1937 C1935 1.420 . S
C1937 C1942 1.395 . S
C1938 C1934 1.423 . S
C1938 C1935 1.351 . S
C1938 H1950 0.930 . S
C1939 C1941 1.400 . S
C1939 C1942 1.386 . S
C1939 H1951 0.930 . S
N1940 C1933 1.377 . S
N1940 C1941 1.321 . S
N1940 Eu1943 2.609 . S
C1941 C1939 1.400 . S
C1941 N1940 1.321 . S
C1941 H1948 0.930 . S
C1942 C1937 1.395 . S
C1942 C1939 1.386 . S
C1942 H1961 0.930 . S
Eu1943 N1940 2.609 . S
Eu1943 N1944 2.657 . S
Eu1943 O1977 2.380 . S
Eu1943 O1978 2.432 . S
Eu1943 O1982 2.558 . S
Eu1943 O1983 2.612 . S
Eu1943 O1985 2.339 . S
Eu1943 O1986 2.563 . S
Eu1943 O1987 2.419 . S
Eu1943 C2007 2.848 . S
N1944 C1936 1.362 . S
N1944 Eu1943 2.657 . S
N1944 C1945 1.334 . S
C1945 N1944 1.334 . S
C1945 C1947 1.413 . S
C1945 H1952 0.929 . S
C1946 C1934 1.392 . S
C1946 C1947 1.367 . S
C1946 H1954 0.930 . S
C1947 C1945 1.413 . S
C1947 C1946 1.367 . S
C1947 H1949 0.930 . S
H1948 C1941 0.930 . S
H1949 C1947 0.930 . S
H1950 C1938 0.930 . S
H1951 C1939 0.930 . S
H1952 C1945 0.929 . S
H1953 C1967 0.930 . S
H1954 C1946 0.930 . S
H1955 C1973 0.930 . S
H1956 C1964 0.929 . S
H1957 C1971 0.930 . S
H1958 C1935 0.931 . S
H1959 C1965 0.930 . S
H1960 C1998 0.930 . S
H1961 C1942 0.930 . S
H1962 C1997 0.931 . S
N1963 Eu1932 2.657 . S
N1963 C1964 1.334 . S
N1963 C1968 1.362 . S
C1964 H1956 0.929 . S
C1964 N1963 1.334 . S
C1964 C1967 1.413 . S
C1965 H1959 0.930 . S
C1965 C1966 1.392 . S
C1965 C1967 1.367 . S
C1966 C1965 1.392 . S
C1966 C1968 1.420 . S
C1966 C1998 1.423 . S
C1967 H1953 0.930 . S
C1967 C1964 1.413 . S
C1967 C1965 1.367 . S
C1968 N1963 1.362 . S
C1968 C1966 1.420 . S
C1968 C1972 1.429 . S
H1969 C1974 0.930 . S
N1970 Eu1932 2.609 . S
N1970 C1972 1.377 . S
N1970 C1973 1.321 . S
C1971 H1957 0.930 . S
C1971 C1973 1.400 . S
C1971 C1974 1.386 . S
C1972 C1968 1.429 . S
C1972 N1970 1.377 . S
C1972 C1975 1.411 . S
C1973 H1955 0.930 . S
C1973 N1970 1.321 . S
C1973 C1971 1.400 . S
C1974 H1969 0.930 . S
C1974 C1971 1.386 . S
C1974 C1975 1.395 . S
C1975 C1972 1.411 . S
C1975 C1974 1.395 . S
C1975 C1997 1.420 . S
O1976 Eu1932 2.558 . S
O1976 C1996 1.257 . S
O1977 Eu1932 2.612 . S
O1977 Eu1943 2.380 . S
O1977 C1988 1.276 . S
O1978 Eu1943 2.432 . S
O1978 C1995 1.264 . S
O1979 Eu1932 2.339 . S
O1979 C1995 1.254 . S
O1980 Eu1932 2.563 . S
O1980 C1988 1.235 . S
O1981 Eu1932 2.419 . S
O1981 C1996 1.249 . S
O1982 Eu1943 2.558 . S
O1982 C2007 1.257 . S
O1983 Eu1932 2.380 . S
O1983 Eu1943 2.612 . S
O1983 C1999 1.276 . S
O1984 Eu1932 2.432 . S
O1984 C2006 1.264 . S
O1985 Eu1943 2.339 . S
O1985 C2006 1.254 . S
O1986 Eu1943 2.563 . S
O1986 C1999 1.235 . S
O1987 Eu1943 2.419 . S
O1987 C2007 1.249 . S
C1988 O1977 1.276 . S
C1988 O1980 1.235 . S
C1989 C1991 1.393 . S
C1989 C1993 1.395 . S
C1989 C1996 1.492 . S
C1990 C1991 1.392 . S
C1990 C1992 1.386 . S
C1991 C1989 1.393 . S
C1991 C1990 1.392 . S
C1991 H2008 0.930 . S
C1992 C1990 1.386 . S
C1992 C1994 1.395 . S
C1992 H2009 0.930 . S
C1993 C1989 1.395 . S
C1993 C1994 1.379 . S
C1993 H2010 0.930 . S
C1994 C1992 1.395 . S
C1994 C1993 1.379 . S
C1994 H2011 0.930 . S
C1995 O1978 1.264 . S
C1995 O1979 1.254 . S
C1996 Eu1932 2.848 . S
C1996 O1976 1.257 . S
C1996 O1981 1.249 . S
C1996 C1989 1.492 . S
C1997 H1962 0.931 . S
C1997 C1975 1.420 . S
C1997 C1998 1.351 . S
C1998 H1960 0.930 . S
C1998 C1966 1.423 . S
C1998 C1997 1.351 . S
C1999 O1983 1.276 . S
C1999 O1986 1.235 . S
C2000 C2001 1.393 . S
C2000 C2004 1.395 . S
C2000 C2007 1.492 . S
C2001 C2000 1.393 . S
C2001 C2002 1.392 . S
C2001 H2012 0.930 . S
C2002 C2001 1.392 . S
C2002 C2003 1.386 . S
C2003 C2002 1.386 . S
C2003 C2005 1.395 . S
C2003 H2013 0.930 . S
C2004 C2000 1.395 . S
C2004 C2005 1.379 . S
C2004 H2014 0.930 . S
C2005 C2003 1.395 . S
C2005 C2004 1.379 . S
C2005 H2015 0.930 . S
C2006 O1984 1.264 . S
C2006 O1985 1.254 . S
C2007 Eu1943 2.848 . S
C2007 O1982 1.257 . S
C2007 O1987 1.249 . S
C2007 C2000 1.492 . S
H2008 C1991 0.930 . S
H2009 C1992 0.930 . S
H2010 C1993 0.930 . S
H2011 C1994 0.930 . S
H2012 C2001 0.930 . S
H2013 C2003 0.930 . S
H2014 C2004 0.930 . S
H2015 C2005 0.930 . S
Eu2016 N2047 2.657 . S
Eu2016 N2054 2.609 . S
Eu2016 O2060 2.558 . S
Eu2016 O2061 2.612 . S
Eu2016 O2063 2.339 . S
Eu2016 O2064 2.563 . S
Eu2016 O2065 2.419 . S
Eu2016 O2067 2.380 . S
Eu2016 O2068 2.432 . S
Eu2016 C2080 2.848 . S
C2017 C2020 1.429 . S
C2017 C2021 1.411 . S
C2017 N2024 1.377 . S
C2018 C2020 1.420 . S
C2018 C2022 1.423 . S
C2018 C2030 1.392 . S
C2019 C2021 1.420 . S
C2019 C2022 1.351 . S
C2019 H2042 0.931 . S
C2020 C2017 1.429 . S
C2020 C2018 1.420 . S
C2020 N2028 1.362 . S
C2021 C2017 1.411 . S
C2021 C2019 1.420 . S
C2021 C2026 1.395 . S
C2022 C2018 1.423 . S
C2022 C2019 1.351 . S
C2022 H2034 0.930 . S
C2023 C2025 1.400 . S
C2023 C2026 1.386 . S
C2023 H2035 0.930 . S
N2024 C2017 1.377 . S
N2024 C2025 1.321 . S
N2024 Eu2027 2.609 . S
C2025 C2023 1.400 . S
C2025 N2024 1.321 . S
C2025 H2032 0.930 . S
C2026 C2021 1.395 . S
C2026 C2023 1.386 . S
C2026 H2045 0.930 . S
Eu2027 N2024 2.609 . S
Eu2027 N2028 2.657 . S
Eu2027 O2061 2.380 . S
Eu2027 O2062 2.432 . S
Eu2027 O2066 2.558 . S
Eu2027 O2067 2.612 . S
Eu2027 O2069 2.339 . S
Eu2027 O2070 2.563 . S
Eu2027 O2071 2.419 . S
Eu2027 C2091 2.848 . S
N2028 C2020 1.362 . S
N2028 Eu2027 2.657 . S
N2028 C2029 1.334 . S
C2029 N2028 1.334 . S
C2029 C2031 1.413 . S
C2029 H2036 0.929 . S
C2030 C2018 1.392 . S
C2030 C2031 1.367 . S
C2030 H2038 0.930 . S
C2031 C2029 1.413 . S
C2031 C2030 1.367 . S
C2031 H2033 0.930 . S
H2032 C2025 0.930 . S
H2033 C2031 0.930 . S
H2034 C2022 0.930 . S
H2035 C2023 0.930 . S
H2036 C2029 0.929 . S
H2037 C2051 0.930 . S
H2038 C2030 0.930 . S
H2039 C2057 0.930 . S
H2040 C2048 0.929 . S
H2041 C2055 0.930 . S
H2042 C2019 0.931 . S
H2043 C2049 0.930 . S
H2044 C2082 0.930 . S
H2045 C2026 0.930 . S
H2046 C2081 0.931 . S
N2047 Eu2016 2.657 . S
N2047 C2048 1.334 . S
N2047 C2052 1.362 . S
C2048 H2040 0.929 . S
C2048 N2047 1.334 . S
C2048 C2051 1.413 . S
C2049 H2043 0.930 . S
C2049 C2050 1.392 . S
C2049 C2051 1.367 . S
C2050 C2049 1.392 . S
C2050 C2052 1.420 . S
C2050 C2082 1.423 . S
C2051 H2037 0.930 . S
C2051 C2048 1.413 . S
C2051 C2049 1.367 . S
C2052 N2047 1.362 . S
C2052 C2050 1.420 . S
C2052 C2056 1.429 . S
H2053 C2058 0.930 . S
N2054 Eu2016 2.609 . S
N2054 C2056 1.377 . S
N2054 C2057 1.321 . S
C2055 H2041 0.930 . S
C2055 C2057 1.400 . S
C2055 C2058 1.386 . S
C2056 C2052 1.429 . S
C2056 N2054 1.377 . S
C2056 C2059 1.411 . S
C2057 H2039 0.930 . S
C2057 N2054 1.321 . S
C2057 C2055 1.400 . S
C2058 H2053 0.930 . S
C2058 C2055 1.386 . S
C2058 C2059 1.395 . S
C2059 C2056 1.411 . S
C2059 C2058 1.395 . S
C2059 C2081 1.420 . S
O2060 Eu2016 2.558 . S
O2060 C2080 1.257 . S
O2061 Eu2016 2.612 . S
O2061 Eu2027 2.380 . S
O2061 C2072 1.276 . S
O2062 Eu2027 2.432 . S
O2062 C2079 1.264 . S
O2063 Eu2016 2.339 . S
O2063 C2079 1.254 . S
O2064 Eu2016 2.563 . S
O2064 C2072 1.235 . S
O2065 Eu2016 2.419 . S
O2065 C2080 1.249 . S
O2066 Eu2027 2.558 . S
O2066 C2091 1.257 . S
O2067 Eu2016 2.380 . S
O2067 Eu2027 2.612 . S
O2067 C2083 1.276 . S
O2068 Eu2016 2.432 . S
O2068 C2090 1.264 . S
O2069 Eu2027 2.339 . S
O2069 C2090 1.254 . S
O2070 Eu2027 2.563 . S
O2070 C2083 1.235 . S
O2071 Eu2027 2.419 . S
O2071 C2091 1.249 . S
C2072 O2061 1.276 . S
C2072 O2064 1.235 . S
C2073 C2075 1.393 . S
C2073 C2077 1.395 . S
C2073 C2080 1.492 . S
C2074 C2075 1.392 . S
C2074 C2076 1.386 . S
C2075 C2073 1.393 . S
C2075 C2074 1.392 . S
C2075 H2092 0.930 . S
C2076 C2074 1.386 . S
C2076 C2078 1.395 . S
C2076 H2093 0.930 . S
C2077 C2073 1.395 . S
C2077 C2078 1.379 . S
C2077 H2094 0.930 . S
C2078 C2076 1.395 . S
C2078 C2077 1.379 . S
C2078 H2095 0.930 . S
C2079 O2062 1.264 . S
C2079 O2063 1.254 . S
C2080 Eu2016 2.848 . S
C2080 O2060 1.257 . S
C2080 O2065 1.249 . S
C2080 C2073 1.492 . S
C2081 H2046 0.931 . S
C2081 C2059 1.420 . S
C2081 C2082 1.351 . S
C2082 H2044 0.930 . S
C2082 C2050 1.423 . S
C2082 C2081 1.351 . S
C2083 O2067 1.276 . S
C2083 O2070 1.235 . S
C2084 C2085 1.393 . S
C2084 C2088 1.395 . S
C2084 C2091 1.492 . S
C2085 C2084 1.393 . S
C2085 C2086 1.392 . S
C2085 H2096 0.930 . S
C2086 C2085 1.392 . S
C2086 C2087 1.386 . S
C2087 C2086 1.386 . S
C2087 C2089 1.395 . S
C2087 H2097 0.930 . S
C2088 C2084 1.395 . S
C2088 C2089 1.379 . S
C2088 H2098 0.930 . S
C2089 C2087 1.395 . S
C2089 C2088 1.379 . S
C2089 H2099 0.930 . S
C2090 O2068 1.264 . S
C2090 O2069 1.254 . S
C2091 Eu2027 2.848 . S
C2091 O2066 1.257 . S
C2091 O2071 1.249 . S
C2091 C2084 1.492 . S
H2092 C2075 0.930 . S
H2093 C2076 0.930 . S
H2094 C2077 0.930 . S
H2095 C2078 0.930 . S
H2096 C2085 0.930 . S
H2097 C2087 0.930 . S
H2098 C2088 0.930 . S
H2099 C2089 0.930 . S
Eu2100 N2131 2.657 . S
Eu2100 N2138 2.609 . S
Eu2100 O2144 2.558 . S
Eu2100 O2145 2.612 . S
Eu2100 O2147 2.339 . S
Eu2100 O2148 2.563 . S
Eu2100 O2149 2.419 . S
Eu2100 O2151 2.380 . S
Eu2100 O2152 2.432 . S
Eu2100 C2164 2.848 . S
C2101 C2104 1.429 . S
C2101 C2105 1.411 . S
C2101 N2108 1.377 . S
C2102 C2104 1.420 . S
C2102 C2106 1.423 . S
C2102 C2114 1.392 . S
C2103 C2105 1.420 . S
C2103 C2106 1.351 . S
C2103 H2126 0.931 . S
C2104 C2101 1.429 . S
C2104 C2102 1.420 . S
C2104 N2112 1.362 . S
C2105 C2101 1.411 . S
C2105 C2103 1.420 . S
C2105 C2110 1.395 . S
C2106 C2102 1.423 . S
C2106 C2103 1.351 . S
C2106 H2118 0.930 . S
C2107 C2109 1.400 . S
C2107 C2110 1.386 . S
C2107 H2119 0.930 . S
N2108 C2101 1.377 . S
N2108 C2109 1.321 . S
N2108 Eu2111 2.609 . S
C2109 C2107 1.400 . S
C2109 N2108 1.321 . S
C2109 H2116 0.930 . S
C2110 C2105 1.395 . S
C2110 C2107 1.386 . S
C2110 H2129 0.930 . S
Eu2111 N2108 2.609 . S
Eu2111 N2112 2.657 . S
Eu2111 O2145 2.380 . S
Eu2111 O2146 2.432 . S
Eu2111 O2150 2.558 . S
Eu2111 O2151 2.612 . S
Eu2111 O2153 2.339 . S
Eu2111 O2154 2.563 . S
Eu2111 O2155 2.419 . S
Eu2111 C2175 2.848 . S
N2112 C2104 1.362 . S
N2112 Eu2111 2.657 . S
N2112 C2113 1.334 . S
C2113 N2112 1.334 . S
C2113 C2115 1.413 . S
C2113 H2120 0.929 . S
C2114 C2102 1.392 . S
C2114 C2115 1.367 . S
C2114 H2122 0.930 . S
C2115 C2113 1.413 . S
C2115 C2114 1.367 . S
C2115 H2117 0.930 . S
H2116 C2109 0.930 . S
H2117 C2115 0.930 . S
H2118 C2106 0.930 . S
H2119 C2107 0.930 . S
H2120 C2113 0.929 . S
H2121 C2135 0.930 . S
H2122 C2114 0.930 . S
H2123 C2141 0.930 . S
H2124 C2132 0.929 . S
H2125 C2139 0.930 . S
H2126 C2103 0.931 . S
H2127 C2133 0.930 . S
H2128 C2166 0.930 . S
H2129 C2110 0.930 . S
H2130 C2165 0.931 . S
N2131 Eu2100 2.657 . S
N2131 C2132 1.334 . S
N2131 C2136 1.362 . S
C2132 H2124 0.929 . S
C2132 N2131 1.334 . S
C2132 C2135 1.413 . S
C2133 H2127 0.930 . S
C2133 C2134 1.392 . S
C2133 C2135 1.367 . S
C2134 C2133 1.392 . S
C2134 C2136 1.420 . S
C2134 C2166 1.423 . S
C2135 H2121 0.930 . S
C2135 C2132 1.413 . S
C2135 C2133 1.367 . S
C2136 N2131 1.362 . S
C2136 C2134 1.420 . S
C2136 C2140 1.429 . S
H2137 C2142 0.930 . S
N2138 Eu2100 2.609 . S
N2138 C2140 1.377 . S
N2138 C2141 1.321 . S
C2139 H2125 0.930 . S
C2139 C2141 1.400 . S
C2139 C2142 1.386 . S
C2140 C2136 1.429 . S
C2140 N2138 1.377 . S
C2140 C2143 1.411 . S
C2141 H2123 0.930 . S
C2141 N2138 1.321 . S
C2141 C2139 1.400 . S
C2142 H2137 0.930 . S
C2142 C2139 1.386 . S
C2142 C2143 1.395 . S
C2143 C2140 1.411 . S
C2143 C2142 1.395 . S
C2143 C2165 1.420 . S
O2144 Eu2100 2.558 . S
O2144 C2164 1.257 . S
O2145 Eu2100 2.612 . S
O2145 Eu2111 2.380 . S
O2145 C2156 1.276 . S
O2146 Eu2111 2.432 . S
O2146 C2163 1.264 . S
O2147 Eu2100 2.339 . S
O2147 C2163 1.254 . S
O2148 Eu2100 2.563 . S
O2148 C2156 1.235 . S
O2149 Eu2100 2.419 . S
O2149 C2164 1.249 . S
O2150 Eu2111 2.558 . S
O2150 C2175 1.257 . S
O2151 Eu2100 2.380 . S
O2151 Eu2111 2.612 . S
O2151 C2167 1.276 . S
O2152 Eu2100 2.432 . S
O2152 C2174 1.264 . S
O2153 Eu2111 2.339 . S
O2153 C2174 1.254 . S
O2154 Eu2111 2.563 . S
O2154 C2167 1.235 . S
O2155 Eu2111 2.419 . S
O2155 C2175 1.249 . S
C2156 O2145 1.276 . S
C2156 O2148 1.235 . S
C2157 C2159 1.393 . S
C2157 C2161 1.395 . S
C2157 C2164 1.492 . S
C2158 C2159 1.392 . S
C2158 C2160 1.386 . S
C2159 C2157 1.393 . S
C2159 C2158 1.392 . S
C2159 H2176 0.930 . S
C2160 C2158 1.386 . S
C2160 C2162 1.395 . S
C2160 H2177 0.930 . S
C2161 C2157 1.395 . S
C2161 C2162 1.379 . S
C2161 H2178 0.930 . S
C2162 C2160 1.395 . S
C2162 C2161 1.379 . S
C2162 H2179 0.930 . S
C2163 O2146 1.264 . S
C2163 O2147 1.254 . S
C2164 Eu2100 2.848 . S
C2164 O2144 1.257 . S
C2164 O2149 1.249 . S
C2164 C2157 1.492 . S
C2165 H2130 0.931 . S
C2165 C2143 1.420 . S
C2165 C2166 1.351 . S
C2166 H2128 0.930 . S
C2166 C2134 1.423 . S
C2166 C2165 1.351 . S
C2167 O2151 1.276 . S
C2167 O2154 1.235 . S
C2168 C2169 1.393 . S
C2168 C2172 1.395 . S
C2168 C2175 1.492 . S
C2169 C2168 1.393 . S
C2169 C2170 1.392 . S
C2169 H2180 0.930 . S
C2170 C2169 1.392 . S
C2170 C2171 1.386 . S
C2171 C2170 1.386 . S
C2171 C2173 1.395 . S
C2171 H2181 0.930 . S
C2172 C2168 1.395 . S
C2172 C2173 1.379 . S
C2172 H2182 0.930 . S
C2173 C2171 1.395 . S
C2173 C2172 1.379 . S
C2173 H2183 0.930 . S
C2174 O2152 1.264 . S
C2174 O2153 1.254 . S
C2175 Eu2111 2.848 . S
C2175 O2150 1.257 . S
C2175 O2155 1.249 . S
C2175 C2168 1.492 . S
H2176 C2159 0.930 . S
H2177 C2160 0.930 . S
H2178 C2161 0.930 . S
H2179 C2162 0.930 . S
H2180 C2169 0.930 . S
H2181 C2171 0.930 . S
H2182 C2172 0.930 . S
H2183 C2173 0.930 . S
Eu2184 N2215 2.657 . S
Eu2184 N2222 2.609 . S
Eu2184 O2228 2.558 . S
Eu2184 O2229 2.612 . S
Eu2184 O2231 2.339 . S
Eu2184 O2232 2.563 . S
Eu2184 O2233 2.419 . S
Eu2184 O2235 2.380 . S
Eu2184 O2236 2.432 . S
Eu2184 C2248 2.848 . S
C2185 C2188 1.429 . S
C2185 C2189 1.411 . S
C2185 N2192 1.377 . S
C2186 C2188 1.420 . S
C2186 C2190 1.423 . S
C2186 C2198 1.392 . S
C2187 C2189 1.420 . S
C2187 C2190 1.351 . S
C2187 H2210 0.931 . S
C2188 C2185 1.429 . S
C2188 C2186 1.420 . S
C2188 N2196 1.362 . S
C2189 C2185 1.411 . S
C2189 C2187 1.420 . S
C2189 C2194 1.395 . S
C2190 C2186 1.423 . S
C2190 C2187 1.351 . S
C2190 H2202 0.930 . S
C2191 C2193 1.400 . S
C2191 C2194 1.386 . S
C2191 H2203 0.930 . S
N2192 C2185 1.377 . S
N2192 C2193 1.321 . S
N2192 Eu2195 2.609 . S
C2193 C2191 1.400 . S
C2193 N2192 1.321 . S
C2193 H2200 0.930 . S
C2194 C2189 1.395 . S
C2194 C2191 1.386 . S
C2194 H2213 0.930 . S
Eu2195 N2192 2.609 . S
Eu2195 N2196 2.657 . S
Eu2195 O2229 2.380 . S
Eu2195 O2230 2.432 . S
Eu2195 O2234 2.558 . S
Eu2195 O2235 2.612 . S
Eu2195 O2237 2.339 . S
Eu2195 O2238 2.563 . S
Eu2195 O2239 2.419 . S
Eu2195 C2259 2.848 . S
N2196 C2188 1.362 . S
N2196 Eu2195 2.657 . S
N2196 C2197 1.334 . S
C2197 N2196 1.334 . S
C2197 C2199 1.413 . S
C2197 H2204 0.929 . S
C2198 C2186 1.392 . S
C2198 C2199 1.367 . S
C2198 H2206 0.930 . S
C2199 C2197 1.413 . S
C2199 C2198 1.367 . S
C2199 H2201 0.930 . S
H2200 C2193 0.930 . S
H2201 C2199 0.930 . S
H2202 C2190 0.930 . S
H2203 C2191 0.930 . S
H2204 C2197 0.929 . S
H2205 C2219 0.930 . S
H2206 C2198 0.930 . S
H2207 C2225 0.930 . S
H2208 C2216 0.929 . S
H2209 C2223 0.930 . S
H2210 C2187 0.931 . S
H2211 C2217 0.930 . S
H2212 C2250 0.930 . S
H2213 C2194 0.930 . S
H2214 C2249 0.931 . S
N2215 Eu2184 2.657 . S
N2215 C2216 1.334 . S
N2215 C2220 1.362 . S
C2216 H2208 0.929 . S
C2216 N2215 1.334 . S
C2216 C2219 1.413 . S
C2217 H2211 0.930 . S
C2217 C2218 1.392 . S
C2217 C2219 1.367 . S
C2218 C2217 1.392 . S
C2218 C2220 1.420 . S
C2218 C2250 1.423 . S
C2219 H2205 0.930 . S
C2219 C2216 1.413 . S
C2219 C2217 1.367 . S
C2220 N2215 1.362 . S
C2220 C2218 1.420 . S
C2220 C2224 1.429 . S
H2221 C2226 0.930 . S
N2222 Eu2184 2.609 . S
N2222 C2224 1.377 . S
N2222 C2225 1.321 . S
C2223 H2209 0.930 . S
C2223 C2225 1.400 . S
C2223 C2226 1.386 . S
C2224 C2220 1.429 . S
C2224 N2222 1.377 . S
C2224 C2227 1.411 . S
C2225 H2207 0.930 . S
C2225 N2222 1.321 . S
C2225 C2223 1.400 . S
C2226 H2221 0.930 . S
C2226 C2223 1.386 . S
C2226 C2227 1.395 . S
C2227 C2224 1.411 . S
C2227 C2226 1.395 . S
C2227 C2249 1.420 . S
O2228 Eu2184 2.558 . S
O2228 C2248 1.257 . S
O2229 Eu2184 2.612 . S
O2229 Eu2195 2.380 . S
O2229 C2240 1.276 . S
O2230 Eu2195 2.432 . S
O2230 C2247 1.264 . S
O2231 Eu2184 2.339 . S
O2231 C2247 1.254 . S
O2232 Eu2184 2.563 . S
O2232 C2240 1.235 . S
O2233 Eu2184 2.419 . S
O2233 C2248 1.249 . S
O2234 Eu2195 2.558 . S
O2234 C2259 1.257 . S
O2235 Eu2184 2.380 . S
O2235 Eu2195 2.612 . S
O2235 C2251 1.276 . S
O2236 Eu2184 2.432 . S
O2236 C2258 1.264 . S
O2237 Eu2195 2.339 . S
O2237 C2258 1.254 . S
O2238 Eu2195 2.563 . S
O2238 C2251 1.235 . S
O2239 Eu2195 2.419 . S
O2239 C2259 1.249 . S
C2240 O2229 1.276 . S
C2240 O2232 1.235 . S
C2241 C2243 1.393 . S
C2241 C2245 1.395 . S
C2241 C2248 1.492 . S
C2242 C2243 1.392 . S
C2242 C2244 1.386 . S
C2243 C2241 1.393 . S
C2243 C2242 1.392 . S
C2243 H2260 0.930 . S
C2244 C2242 1.386 . S
C2244 C2246 1.395 . S
C2244 H2261 0.930 . S
C2245 C2241 1.395 . S
C2245 C2246 1.379 . S
C2245 H2262 0.930 . S
C2246 C2244 1.395 . S
C2246 C2245 1.379 . S
C2246 H2263 0.930 . S
C2247 O2230 1.264 . S
C2247 O2231 1.254 . S
C2248 Eu2184 2.848 . S
C2248 O2228 1.257 . S
C2248 O2233 1.249 . S
C2248 C2241 1.492 . S
C2249 H2214 0.931 . S
C2249 C2227 1.420 . S
C2249 C2250 1.351 . S
C2250 H2212 0.930 . S
C2250 C2218 1.423 . S
C2250 C2249 1.351 . S
C2251 O2235 1.276 . S
C2251 O2238 1.235 . S
C2252 C2253 1.393 . S
C2252 C2256 1.395 . S
C2252 C2259 1.492 . S
C2253 C2252 1.393 . S
C2253 C2254 1.392 . S
C2253 H2264 0.930 . S
C2254 C2253 1.392 . S
C2254 C2255 1.386 . S
C2255 C2254 1.386 . S
C2255 C2257 1.395 . S
C2255 H2265 0.930 . S
C2256 C2252 1.395 . S
C2256 C2257 1.379 . S
C2256 H2266 0.930 . S
C2257 C2255 1.395 . S
C2257 C2256 1.379 . S
C2257 H2267 0.930 . S
C2258 O2236 1.264 . S
C2258 O2237 1.254 . S
C2259 Eu2195 2.848 . S
C2259 O2234 1.257 . S
C2259 O2239 1.249 . S
C2259 C2252 1.492 . S
H2260 C2243 0.930 . S
H2261 C2244 0.930 . S
H2262 C2245 0.930 . S
H2263 C2246 0.930 . S
H2264 C2253 0.930 . S
H2265 C2255 0.930 . S
H2266 C2256 0.930 . S
H2267 C2257 0.930 . S
Eu2268 N2299 2.657 . S
Eu2268 N2306 2.609 . S
Eu2268 O2312 2.558 . S
Eu2268 O2313 2.612 . S
Eu2268 O2315 2.339 . S
Eu2268 O2316 2.563 . S
Eu2268 O2317 2.419 . S
Eu2268 O2319 2.380 . S
Eu2268 O2320 2.432 . S
Eu2268 C2332 2.848 . S
C2269 C2272 1.429 1_455 S
C2269 C2273 1.411 1_455 S
C2269 N2276 1.377 . S
C2270 C2272 1.420 . S
C2270 C2274 1.423 . S
C2270 C2282 1.392 . S
C2271 C2273 1.420 . S
C2271 C2274 1.351 . S
C2271 H2294 0.931 . S
C2272 C2269 1.429 1_655 S
C2272 C2270 1.420 . S
C2272 N2280 1.362 1_655 S
C2273 C2269 1.411 1_655 S
C2273 C2271 1.420 . S
C2273 C2278 1.398 . S
C2274 C2270 1.423 . S
C2274 C2271 1.351 . S
C2274 H2286 0.930 . S
C2275 C2277 1.400 . S
C2275 C2278 1.379 1_455 S
C2275 H2287 0.930 . S
N2276 C2269 1.377 . S
N2276 C2277 1.321 . S
N2276 Eu2279 2.609 . S
C2277 C2275 1.400 . S
C2277 N2276 1.321 . S
C2277 H2284 0.930 . S
C2278 C2273 1.398 . S
C2278 C2275 1.379 1_655 S
C2278 H2297 0.933 . S
Eu2279 N2276 2.609 . S
Eu2279 N2280 2.657 . S
Eu2279 O2313 2.380 . S
Eu2279 O2314 2.432 . S
Eu2279 O2318 2.558 . S
Eu2279 O2319 2.612 . S
Eu2279 O2321 2.339 . S
Eu2279 O2322 2.563 . S
Eu2279 O2323 2.419 . S
Eu2279 C2343 2.848 . S
N2280 C2272 1.362 1_455 S
N2280 Eu2279 2.657 . S
N2280 C2281 1.334 1_455 S
C2281 N2280 1.334 1_655 S
C2281 C2283 1.413 . S
C2281 H2288 0.915 1_655 S
C2282 C2270 1.392 . S
C2282 C2283 1.367 . S
C2282 H2290 0.930 . S
C2283 C2281 1.413 . S
C2283 C2282 1.367 . S
C2283 H2285 0.930 . S
H2284 C2277 0.930 . S
H2285 C2283 0.930 . S
H2286 C2274 0.930 . S
H2287 C2275 0.930 . S
H2288 C2281 0.915 1_455 S
H2289 C2303 0.930 . S
H2290 C2282 0.930 . S
H2291 C2309 0.930 . S
H2292 C2300 0.929 . S
H2293 C2307 0.930 . S
H2294 C2271 0.931 . S
H2295 C2301 0.930 . S
H2296 C2334 0.930 . S
H2297 C2278 0.933 . S
H2298 C2333 0.931 . S
N2299 Eu2268 2.657 . S
N2299 C2300 1.334 . S
N2299 C2304 1.362 . S
C2300 H2292 0.929 . S
C2300 N2299 1.334 . S
C2300 C2303 1.413 . S
C2301 H2295 0.930 . S
C2301 C2302 1.392 . S
C2301 C2303 1.367 . S
C2302 C2301 1.392 . S
C2302 C2304 1.420 . S
C2302 C2334 1.423 . S
C2303 H2289 0.930 . S
C2303 C2300 1.413 . S
C2303 C2301 1.367 . S
C2304 N2299 1.362 . S
C2304 C2302 1.420 . S
C2304 C2308 1.429 . S
H2305 C2310 0.930 . S
N2306 Eu2268 2.609 . S
N2306 C2308 1.377 . S
N2306 C2309 1.321 . S
C2307 H2293 0.930 . S
C2307 C2309 1.400 . S
C2307 C2310 1.386 . S
C2308 C2304 1.429 . S
C2308 N2306 1.377 . S
C2308 C2311 1.411 . S
C2309 H2291 0.930 . S
C2309 N2306 1.321 . S
C2309 C2307 1.400 . S
C2310 H2305 0.930 . S
C2310 C2307 1.386 . S
C2310 C2311 1.395 . S
C2311 C2308 1.411 . S
C2311 C2310 1.395 . S
C2311 C2333 1.420 . S
O2312 Eu2268 2.558 . S
O2312 C2332 1.257 . S
O2313 Eu2268 2.612 . S
O2313 Eu2279 2.380 . S
O2313 C2324 1.276 . S
O2314 Eu2279 2.432 . S
O2314 C2331 1.264 . S
O2315 Eu2268 2.339 . S
O2315 C2331 1.254 . S
O2316 Eu2268 2.563 . S
O2316 C2324 1.235 . S
O2317 Eu2268 2.419 . S
O2317 C2332 1.249 . S
O2318 Eu2279 2.558 . S
O2318 C2343 1.257 . S
O2319 Eu2268 2.380 . S
O2319 Eu2279 2.612 . S
O2319 C2335 1.276 . S
O2320 Eu2268 2.432 . S
O2320 C2342 1.264 . S
O2321 Eu2279 2.339 . S
O2321 C2342 1.254 . S
O2322 Eu2279 2.563 . S
O2322 C2335 1.235 . S
O2323 Eu2279 2.419 . S
O2323 C2343 1.249 . S
C2324 O2313 1.276 . S
C2324 O2316 1.235 . S
C2325 C2327 1.393 . S
C2325 C2329 1.395 . S
C2325 C2332 1.492 . S
C2326 C2327 1.392 . S
C2326 C2328 1.386 . S
C2327 C2325 1.393 . S
C2327 C2326 1.392 . S
C2327 H2344 0.930 . S
C2328 C2326 1.386 . S
C2328 C2330 1.395 . S
C2328 H2345 0.930 . S
C2329 C2325 1.395 . S
C2329 C2330 1.379 . S
C2329 H2346 0.930 . S
C2330 C2328 1.395 . S
C2330 C2329 1.379 . S
C2330 H2347 0.930 . S
C2331 O2314 1.264 . S
C2331 O2315 1.254 . S
C2332 Eu2268 2.848 . S
C2332 O2312 1.257 . S
C2332 O2317 1.249 . S
C2332 C2325 1.492 . S
C2333 H2298 0.931 . S
C2333 C2311 1.420 . S
C2333 C2334 1.351 . S
C2334 H2296 0.930 . S
C2334 C2302 1.423 . S
C2334 C2333 1.351 . S
C2335 O2319 1.276 . S
C2335 O2322 1.235 . S
C2336 C2337 1.393 . S
C2336 C2340 1.395 . S
C2336 C2343 1.492 1_655 S
C2337 C2336 1.393 . S
C2337 C2338 1.392 . S
C2337 H2348 0.930 . S
C2338 C2337 1.392 . S
C2338 C2339 1.386 . S
C2339 C2338 1.386 . S
C2339 C2341 1.395 . S
C2339 H2349 0.930 . S
C2340 C2336 1.395 . S
C2340 C2341 1.379 . S
C2340 H2350 0.930 . S
C2341 C2339 1.395 . S
C2341 C2340 1.379 . S
C2341 H2351 0.930 . S
C2342 O2320 1.264 . S
C2342 O2321 1.254 . S
C2343 Eu2279 2.848 . S
C2343 O2318 1.257 . S
C2343 O2323 1.249 . S
C2343 C2336 1.492 1_455 S
H2344 C2327 0.930 . S
H2345 C2328 0.930 . S
H2346 C2329 0.930 . S
H2347 C2330 0.930 . S
H2348 C2337 0.930 . S
H2349 C2339 0.930 . S
H2350 C2340 0.930 . S
H2351 C2341 0.930 . S
Eu2352 N2383 2.657 . S
Eu2352 N2390 2.609 . S
Eu2352 O2396 2.558 . S
Eu2352 O2397 2.612 . S
Eu2352 O2399 2.339 . S
Eu2352 O2400 2.563 . S
Eu2352 O2401 2.419 . S
Eu2352 O2403 2.380 . S
Eu2352 O2404 2.432 . S
Eu2352 C2416 2.848 . S
C2353 C2356 1.429 . S
C2353 C2357 1.411 . S
C2353 N2360 1.377 . S
C2354 C2356 1.420 . S
C2354 C2358 1.423 . S
C2354 C2366 1.392 . S
C2355 C2357 1.420 . S
C2355 C2358 1.351 . S
C2355 H2378 0.931 . S
C2356 C2353 1.429 . S
C2356 C2354 1.420 . S
C2356 N2364 1.362 . S
C2357 C2353 1.411 . S
C2357 C2355 1.420 . S
C2357 C2362 1.395 . S
C2358 C2354 1.423 . S
C2358 C2355 1.351 . S
C2358 H2370 0.930 . S
C2359 C2361 1.400 . S
C2359 C2362 1.386 . S
C2359 H2371 0.930 . S
N2360 C2353 1.377 . S
N2360 C2361 1.321 . S
N2360 Eu2363 2.609 . S
C2361 C2359 1.400 . S
C2361 N2360 1.321 . S
C2361 H2368 0.930 . S
C2362 C2357 1.395 . S
C2362 C2359 1.386 . S
C2362 H2381 0.930 . S
Eu2363 N2360 2.609 . S
Eu2363 N2364 2.657 . S
Eu2363 O2397 2.380 . S
Eu2363 O2398 2.432 . S
Eu2363 O2402 2.558 . S
Eu2363 O2403 2.612 . S
Eu2363 O2405 2.339 . S
Eu2363 O2406 2.563 . S
Eu2363 O2407 2.419 . S
Eu2363 C2427 2.848 . S
N2364 C2356 1.362 . S
N2364 Eu2363 2.657 . S
N2364 C2365 1.334 . S
C2365 N2364 1.334 . S
C2365 C2367 1.413 . S
C2365 H2372 0.929 . S
C2366 C2354 1.392 . S
C2366 C2367 1.367 . S
C2366 H2374 0.930 . S
C2367 C2365 1.413 . S
C2367 C2366 1.367 . S
C2367 H2369 0.930 . S
H2368 C2361 0.930 . S
H2369 C2367 0.930 . S
H2370 C2358 0.930 . S
H2371 C2359 0.930 . S
H2372 C2365 0.929 . S
H2373 C2387 0.930 . S
H2374 C2366 0.930 . S
H2375 C2393 0.930 . S
H2376 C2384 0.929 . S
H2377 C2391 0.930 . S
H2378 C2355 0.931 . S
H2379 C2385 0.930 . S
H2380 C2418 0.930 . S
H2381 C2362 0.930 . S
H2382 C2417 0.931 . S
N2383 Eu2352 2.657 . S
N2383 C2384 1.334 . S
N2383 C2388 1.362 . S
C2384 H2376 0.929 . S
C2384 N2383 1.334 . S
C2384 C2387 1.413 . S
C2385 H2379 0.930 . S
C2385 C2386 1.392 . S
C2385 C2387 1.367 . S
C2386 C2385 1.392 . S
C2386 C2388 1.420 . S
C2386 C2418 1.423 . S
C2387 H2373 0.930 . S
C2387 C2384 1.413 . S
C2387 C2385 1.367 . S
C2388 N2383 1.362 . S
C2388 C2386 1.420 . S
C2388 C2392 1.429 . S
H2389 C2394 0.930 . S
N2390 Eu2352 2.609 . S
N2390 C2392 1.377 . S
N2390 C2393 1.321 . S
C2391 H2377 0.930 . S
C2391 C2393 1.400 . S
C2391 C2394 1.386 . S
C2392 C2388 1.429 . S
C2392 N2390 1.377 . S
C2392 C2395 1.411 . S
C2393 H2375 0.930 . S
C2393 N2390 1.321 . S
C2393 C2391 1.400 . S
C2394 H2389 0.930 . S
C2394 C2391 1.386 . S
C2394 C2395 1.395 . S
C2395 C2392 1.411 . S
C2395 C2394 1.395 . S
C2395 C2417 1.420 . S
O2396 Eu2352 2.558 . S
O2396 C2416 1.257 . S
O2397 Eu2352 2.612 . S
O2397 Eu2363 2.380 . S
O2397 C2408 1.276 . S
O2398 Eu2363 2.432 . S
O2398 C2415 1.264 . S
O2399 Eu2352 2.339 . S
O2399 C2415 1.254 . S
O2400 Eu2352 2.563 . S
O2400 C2408 1.235 . S
O2401 Eu2352 2.419 . S
O2401 C2416 1.249 . S
O2402 Eu2363 2.558 . S
O2402 C2427 1.257 . S
O2403 Eu2352 2.380 . S
O2403 Eu2363 2.612 . S
O2403 C2419 1.276 . S
O2404 Eu2352 2.432 . S
O2404 C2426 1.264 . S
O2405 Eu2363 2.339 . S
O2405 C2426 1.254 . S
O2406 Eu2363 2.563 . S
O2406 C2419 1.235 . S
O2407 Eu2363 2.419 . S
O2407 C2427 1.249 . S
C2408 O2397 1.276 . S
C2408 O2400 1.235 . S
C2409 C2411 1.393 . S
C2409 C2413 1.395 . S
C2409 C2416 1.492 . S
C2410 C2411 1.392 . S
C2410 C2412 1.386 . S
C2411 C2409 1.393 . S
C2411 C2410 1.392 . S
C2411 H2428 0.930 . S
C2412 C2410 1.386 . S
C2412 C2414 1.395 . S
C2412 H2429 0.930 . S
C2413 C2409 1.395 . S
C2413 C2414 1.379 . S
C2413 H2430 0.930 . S
C2414 C2412 1.395 . S
C2414 C2413 1.379 . S
C2414 H2431 0.930 . S
C2415 O2398 1.264 . S
C2415 O2399 1.254 . S
C2416 Eu2352 2.848 . S
C2416 O2396 1.257 . S
C2416 O2401 1.249 . S
C2416 C2409 1.492 . S
C2417 H2382 0.931 . S
C2417 C2395 1.420 . S
C2417 C2418 1.351 . S
C2418 H2380 0.930 . S
C2418 C2386 1.423 . S
C2418 C2417 1.351 . S
C2419 O2403 1.276 . S
C2419 O2406 1.235 . S
C2420 C2421 1.393 . S
C2420 C2424 1.395 . S
C2420 C2427 1.492 . S
C2421 C2420 1.393 . S
C2421 C2422 1.392 . S
C2421 H2432 0.930 . S
C2422 C2421 1.392 . S
C2422 C2423 1.386 . S
C2423 C2422 1.386 . S
C2423 C2425 1.395 . S
C2423 H2433 0.930 . S
C2424 C2420 1.395 . S
C2424 C2425 1.379 . S
C2424 H2434 0.930 . S
C2425 C2423 1.395 . S
C2425 C2424 1.379 . S
C2425 H2435 0.930 . S
C2426 O2404 1.264 . S
C2426 O2405 1.254 . S
C2427 Eu2363 2.848 . S
C2427 O2402 1.257 . S
C2427 O2407 1.249 . S
C2427 C2420 1.492 . S
H2428 C2411 0.930 . S
H2429 C2412 0.930 . S
H2430 C2413 0.930 . S
H2431 C2414 0.930 . S
H2432 C2421 0.930 . S
H2433 C2423 0.930 . S
H2434 C2424 0.930 . S
H2435 C2425 0.930 . S
Eu2436 N2467 2.657 . S
Eu2436 N2474 2.609 . S
Eu2436 O2480 2.558 . S
Eu2436 O2481 2.612 . S
Eu2436 O2483 2.339 . S
Eu2436 O2484 2.563 . S
Eu2436 O2485 2.419 . S
Eu2436 O2487 2.380 . S
Eu2436 O2488 2.432 . S
Eu2436 C2500 2.848 . S
C2437 C2440 1.429 1_455 S
C2437 C2441 1.411 1_455 S
C2437 N2444 1.377 . S
C2438 C2440 1.420 . S
C2438 C2442 1.423 . S
C2438 C2450 1.392 . S
C2439 C2441 1.420 . S
C2439 C2442 1.351 . S
C2439 H2462 0.931 . S
C2440 C2437 1.429 1_655 S
C2440 C2438 1.420 . S
C2440 N2448 1.362 1_655 S
C2441 C2437 1.411 1_655 S
C2441 C2439 1.420 . S
C2441 C2446 1.398 . S
C2442 C2438 1.423 . S
C2442 C2439 1.351 . S
C2442 H2454 0.930 . S
C2443 C2445 1.400 . S
C2443 C2446 1.379 1_455 S
C2443 H2455 0.930 . S
N2444 C2437 1.377 . S
N2444 C2445 1.321 . S
N2444 Eu2447 2.609 . S
C2445 C2443 1.400 . S
C2445 N2444 1.321 . S
C2445 H2452 0.930 . S
C2446 C2441 1.398 . S
C2446 C2443 1.379 1_655 S
C2446 H2465 0.933 . S
Eu2447 N2444 2.609 . S
Eu2447 N2448 2.657 . S
Eu2447 O2481 2.380 . S
Eu2447 O2482 2.432 . S
Eu2447 O2486 2.558 . S
Eu2447 O2487 2.612 . S
Eu2447 O2489 2.339 . S
Eu2447 O2490 2.563 . S
Eu2447 O2491 2.419 . S
Eu2447 C2511 2.848 . S
N2448 C2440 1.362 1_455 S
N2448 Eu2447 2.657 . S
N2448 C2449 1.334 1_455 S
C2449 N2448 1.334 1_655 S
C2449 C2451 1.413 . S
C2449 H2456 0.915 1_655 S
C2450 C2438 1.392 . S
C2450 C2451 1.367 . S
C2450 H2458 0.930 . S
C2451 C2449 1.413 . S
C2451 C2450 1.367 . S
C2451 H2453 0.930 . S
H2452 C2445 0.930 . S
H2453 C2451 0.930 . S
H2454 C2442 0.930 . S
H2455 C2443 0.930 . S
H2456 C2449 0.915 1_455 S
H2457 C2471 0.930 . S
H2458 C2450 0.930 . S
H2459 C2477 0.930 . S
H2460 C2468 0.929 . S
H2461 C2475 0.930 . S
H2462 C2439 0.931 . S
H2463 C2469 0.930 . S
H2464 C2502 0.930 . S
H2465 C2446 0.933 . S
H2466 C2501 0.931 . S
N2467 Eu2436 2.657 . S
N2467 C2468 1.334 . S
N2467 C2472 1.362 . S
C2468 H2460 0.929 . S
C2468 N2467 1.334 . S
C2468 C2471 1.413 . S
C2469 H2463 0.930 . S
C2469 C2470 1.392 . S
C2469 C2471 1.367 . S
C2470 C2469 1.392 . S
C2470 C2472 1.420 . S
C2470 C2502 1.423 . S
C2471 H2457 0.930 . S
C2471 C2468 1.413 . S
C2471 C2469 1.367 . S
C2472 N2467 1.362 . S
C2472 C2470 1.420 . S
C2472 C2476 1.429 . S
H2473 C2478 0.930 . S
N2474 Eu2436 2.609 . S
N2474 C2476 1.377 . S
N2474 C2477 1.321 . S
C2475 H2461 0.930 . S
C2475 C2477 1.400 . S
C2475 C2478 1.386 . S
C2476 C2472 1.429 . S
C2476 N2474 1.377 . S
C2476 C2479 1.411 . S
C2477 H2459 0.930 . S
C2477 N2474 1.321 . S
C2477 C2475 1.400 . S
C2478 H2473 0.930 . S
C2478 C2475 1.386 . S
C2478 C2479 1.395 . S
C2479 C2476 1.411 . S
C2479 C2478 1.395 . S
C2479 C2501 1.420 . S
O2480 Eu2436 2.558 . S
O2480 C2500 1.257 . S
O2481 Eu2436 2.612 . S
O2481 Eu2447 2.380 . S
O2481 C2492 1.276 . S
O2482 Eu2447 2.432 . S
O2482 C2499 1.264 . S
O2483 Eu2436 2.339 . S
O2483 C2499 1.254 . S
O2484 Eu2436 2.563 . S
O2484 C2492 1.235 . S
O2485 Eu2436 2.419 . S
O2485 C2500 1.249 . S
O2486 Eu2447 2.558 . S
O2486 C2511 1.257 . S
O2487 Eu2436 2.380 . S
O2487 Eu2447 2.612 . S
O2487 C2503 1.276 . S
O2488 Eu2436 2.432 . S
O2488 C2510 1.264 . S
O2489 Eu2447 2.339 . S
O2489 C2510 1.254 . S
O2490 Eu2447 2.563 . S
O2490 C2503 1.235 . S
O2491 Eu2447 2.419 . S
O2491 C2511 1.249 . S
C2492 O2481 1.276 . S
C2492 O2484 1.235 . S
C2493 C2495 1.393 . S
C2493 C2497 1.395 . S
C2493 C2500 1.492 . S
C2494 C2495 1.392 . S
C2494 C2496 1.386 . S
C2495 C2493 1.393 . S
C2495 C2494 1.392 . S
C2495 H2512 0.930 . S
C2496 C2494 1.386 . S
C2496 C2498 1.395 . S
C2496 H2513 0.930 . S
C2497 C2493 1.395 . S
C2497 C2498 1.379 . S
C2497 H2514 0.930 . S
C2498 C2496 1.395 . S
C2498 C2497 1.379 . S
C2498 H2515 0.930 . S
C2499 O2482 1.264 . S
C2499 O2483 1.254 . S
C2500 Eu2436 2.848 . S
C2500 O2480 1.257 . S
C2500 O2485 1.249 . S
C2500 C2493 1.492 . S
C2501 H2466 0.931 . S
C2501 C2479 1.420 . S
C2501 C2502 1.351 . S
C2502 H2464 0.930 . S
C2502 C2470 1.423 . S
C2502 C2501 1.351 . S
C2503 O2487 1.276 . S
C2503 O2490 1.235 . S
C2504 C2505 1.393 . S
C2504 C2508 1.395 . S
C2504 C2511 1.492 1_655 S
C2505 C2504 1.393 . S
C2505 C2506 1.392 . S
C2505 H2516 0.930 . S
C2506 C2505 1.392 . S
C2506 C2507 1.386 . S
C2507 C2506 1.386 . S
C2507 C2509 1.395 . S
C2507 H2517 0.930 . S
C2508 C2504 1.395 . S
C2508 C2509 1.379 . S
C2508 H2518 0.930 . S
C2509 C2507 1.395 . S
C2509 C2508 1.379 . S
C2509 H2519 0.930 . S
C2510 O2488 1.264 . S
C2510 O2489 1.254 . S
C2511 Eu2447 2.848 . S
C2511 O2486 1.257 . S
C2511 O2491 1.249 . S
C2511 C2504 1.492 1_455 S
H2512 C2495 0.930 . S
H2513 C2496 0.930 . S
H2514 C2497 0.930 . S
H2515 C2498 0.930 . S
H2516 C2505 0.930 . S
H2517 C2507 0.930 . S
H2518 C2508 0.930 . S
H2519 C2509 0.930 . S
Eu2520 N2551 2.657 . S
Eu2520 N2558 2.609 . S
Eu2520 O2564 2.558 . S
Eu2520 O2565 2.612 . S
Eu2520 O2567 2.339 . S
Eu2520 O2568 2.563 . S
Eu2520 O2569 2.419 . S
Eu2520 O2571 2.380 . S
Eu2520 O2572 2.432 . S
Eu2520 C2584 2.848 . S
C2521 C2524 1.429 . S
C2521 C2525 1.411 . S
C2521 N2528 1.377 . S
C2522 C2524 1.420 . S
C2522 C2526 1.423 . S
C2522 C2534 1.392 . S
C2523 C2525 1.420 . S
C2523 C2526 1.351 . S
C2523 H2546 0.931 . S
C2524 C2521 1.429 . S
C2524 C2522 1.420 . S
C2524 N2532 1.362 . S
C2525 C2521 1.411 . S
C2525 C2523 1.420 . S
C2525 C2530 1.395 . S
C2526 C2522 1.423 . S
C2526 C2523 1.351 . S
C2526 H2538 0.930 . S
C2527 C2529 1.400 . S
C2527 C2530 1.386 . S
C2527 H2539 0.930 . S
N2528 C2521 1.377 . S
N2528 C2529 1.321 . S
N2528 Eu2531 2.609 . S
C2529 C2527 1.400 . S
C2529 N2528 1.321 . S
C2529 H2536 0.930 . S
C2530 C2525 1.395 . S
C2530 C2527 1.386 . S
C2530 H2549 0.930 . S
Eu2531 N2528 2.609 . S
Eu2531 N2532 2.657 . S
Eu2531 O2565 2.380 . S
Eu2531 O2566 2.432 . S
Eu2531 O2570 2.558 . S
Eu2531 O2571 2.612 . S
Eu2531 O2573 2.339 . S
Eu2531 O2574 2.563 . S
Eu2531 O2575 2.419 . S
Eu2531 C2595 2.848 . S
N2532 C2524 1.362 . S
N2532 Eu2531 2.657 . S
N2532 C2533 1.334 . S
C2533 N2532 1.334 . S
C2533 C2535 1.413 . S
C2533 H2540 0.929 . S
C2534 C2522 1.392 . S
C2534 C2535 1.367 . S
C2534 H2542 0.930 . S
C2535 C2533 1.413 . S
C2535 C2534 1.367 . S
C2535 H2537 0.930 . S
H2536 C2529 0.930 . S
H2537 C2535 0.930 . S
H2538 C2526 0.930 . S
H2539 C2527 0.930 . S
H2540 C2533 0.929 . S
H2541 C2555 0.930 . S
H2542 C2534 0.930 . S
H2543 C2561 0.930 . S
H2544 C2552 0.929 . S
H2545 C2559 0.930 . S
H2546 C2523 0.931 . S
H2547 C2553 0.930 . S
H2548 C2586 0.930 . S
H2549 C2530 0.930 . S
H2550 C2585 0.931 . S
N2551 Eu2520 2.657 . S
N2551 C2552 1.334 . S
N2551 C2556 1.362 . S
C2552 H2544 0.929 . S
C2552 N2551 1.334 . S
C2552 C2555 1.413 . S
C2553 H2547 0.930 . S
C2553 C2554 1.392 . S
C2553 C2555 1.367 . S
C2554 C2553 1.392 . S
C2554 C2556 1.420 . S
C2554 C2586 1.423 . S
C2555 H2541 0.930 . S
C2555 C2552 1.413 . S
C2555 C2553 1.367 . S
C2556 N2551 1.362 . S
C2556 C2554 1.420 . S
C2556 C2560 1.429 . S
H2557 C2562 0.930 . S
N2558 Eu2520 2.609 . S
N2558 C2560 1.377 . S
N2558 C2561 1.321 . S
C2559 H2545 0.930 . S
C2559 C2561 1.400 . S
C2559 C2562 1.386 . S
C2560 C2556 1.429 . S
C2560 N2558 1.377 . S
C2560 C2563 1.411 . S
C2561 H2543 0.930 . S
C2561 N2558 1.321 . S
C2561 C2559 1.400 . S
C2562 H2557 0.930 . S
C2562 C2559 1.386 . S
C2562 C2563 1.395 . S
C2563 C2560 1.411 . S
C2563 C2562 1.395 . S
C2563 C2585 1.420 . S
O2564 Eu2520 2.558 . S
O2564 C2584 1.257 . S
O2565 Eu2520 2.612 . S
O2565 Eu2531 2.380 . S
O2565 C2576 1.276 . S
O2566 Eu2531 2.432 . S
O2566 C2583 1.264 . S
O2567 Eu2520 2.339 . S
O2567 C2583 1.254 . S
O2568 Eu2520 2.563 . S
O2568 C2576 1.235 . S
O2569 Eu2520 2.419 . S
O2569 C2584 1.249 . S
O2570 Eu2531 2.558 . S
O2570 C2595 1.257 . S
O2571 Eu2520 2.380 . S
O2571 Eu2531 2.612 . S
O2571 C2587 1.276 . S
O2572 Eu2520 2.432 . S
O2572 C2594 1.264 . S
O2573 Eu2531 2.339 . S
O2573 C2594 1.254 . S
O2574 Eu2531 2.563 . S
O2574 C2587 1.235 . S
O2575 Eu2531 2.419 . S
O2575 C2595 1.249 . S
C2576 O2565 1.276 . S
C2576 O2568 1.235 . S
C2577 C2579 1.393 . S
C2577 C2581 1.395 . S
C2577 C2584 1.492 . S
C2578 C2579 1.392 . S
C2578 C2580 1.386 . S
C2579 C2577 1.393 . S
C2579 C2578 1.392 . S
C2579 H2596 0.930 . S
C2580 C2578 1.386 . S
C2580 C2582 1.395 . S
C2580 H2597 0.930 . S
C2581 C2577 1.395 . S
C2581 C2582 1.379 . S
C2581 H2598 0.930 . S
C2582 C2580 1.395 . S
C2582 C2581 1.379 . S
C2582 H2599 0.930 . S
C2583 O2566 1.264 . S
C2583 O2567 1.254 . S
C2584 Eu2520 2.848 . S
C2584 O2564 1.257 . S
C2584 O2569 1.249 . S
C2584 C2577 1.492 . S
C2585 H2550 0.931 . S
C2585 C2563 1.420 . S
C2585 C2586 1.351 . S
C2586 H2548 0.930 . S
C2586 C2554 1.423 . S
C2586 C2585 1.351 . S
C2587 O2571 1.276 . S
C2587 O2574 1.235 . S
C2588 C2589 1.393 . S
C2588 C2592 1.395 . S
C2588 C2595 1.492 . S
C2589 C2588 1.393 . S
C2589 C2590 1.392 . S
C2589 H2600 0.930 . S
C2590 C2589 1.392 . S
C2590 C2591 1.386 . S
C2591 C2590 1.386 . S
C2591 C2593 1.395 . S
C2591 H2601 0.930 . S
C2592 C2588 1.395 . S
C2592 C2593 1.379 . S
C2592 H2602 0.930 . S
C2593 C2591 1.395 . S
C2593 C2592 1.379 . S
C2593 H2603 0.930 . S
C2594 O2572 1.264 . S
C2594 O2573 1.254 . S
C2595 Eu2531 2.848 . S
C2595 O2570 1.257 . S
C2595 O2575 1.249 . S
C2595 C2588 1.492 . S
H2596 C2579 0.930 . S
H2597 C2580 0.930 . S
H2598 C2581 0.930 . S
H2599 C2582 0.930 . S
H2600 C2589 0.930 . S
H2601 C2591 0.930 . S
H2602 C2592 0.930 . S
H2603 C2593 0.930 . S
Eu2604 N2635 2.657 . S
Eu2604 N2642 2.609 . S
Eu2604 O2648 2.558 . S
Eu2604 O2649 2.612 . S
Eu2604 O2651 2.339 . S
Eu2604 O2652 2.563 . S
Eu2604 O2653 2.419 . S
Eu2604 O2655 2.380 . S
Eu2604 O2656 2.432 . S
Eu2604 C2668 2.848 . S
C2605 C2608 1.429 . S
C2605 C2609 1.411 . S
C2605 N2612 1.377 . S
C2606 C2608 1.420 . S
C2606 C2610 1.423 . S
C2606 C2618 1.392 . S
C2607 C2609 1.420 . S
C2607 C2610 1.351 . S
C2607 H2630 0.931 . S
C2608 C2605 1.429 . S
C2608 C2606 1.420 . S
C2608 N2616 1.362 . S
C2609 C2605 1.411 . S
C2609 C2607 1.420 . S
C2609 C2614 1.395 . S
C2610 C2606 1.423 . S
C2610 C2607 1.351 . S
C2610 H2622 0.930 . S
C2611 C2613 1.400 . S
C2611 C2614 1.386 . S
C2611 H2623 0.930 . S
N2612 C2605 1.377 . S
N2612 C2613 1.321 . S
N2612 Eu2615 2.609 . S
C2613 C2611 1.400 . S
C2613 N2612 1.321 . S
C2613 H2620 0.930 . S
C2614 C2609 1.395 . S
C2614 C2611 1.386 . S
C2614 H2633 0.930 . S
Eu2615 N2612 2.609 . S
Eu2615 N2616 2.657 . S
Eu2615 O2649 2.380 . S
Eu2615 O2650 2.432 . S
Eu2615 O2654 2.558 . S
Eu2615 O2655 2.612 . S
Eu2615 O2657 2.339 . S
Eu2615 O2658 2.563 . S
Eu2615 O2659 2.419 . S
Eu2615 C2679 2.848 . S
N2616 C2608 1.362 . S
N2616 Eu2615 2.657 . S
N2616 C2617 1.334 . S
C2617 N2616 1.334 . S
C2617 C2619 1.413 . S
C2617 H2624 0.929 . S
C2618 C2606 1.392 . S
C2618 C2619 1.367 . S
C2618 H2626 0.930 . S
C2619 C2617 1.413 . S
C2619 C2618 1.367 . S
C2619 H2621 0.930 . S
H2620 C2613 0.930 . S
H2621 C2619 0.930 . S
H2622 C2610 0.930 . S
H2623 C2611 0.930 . S
H2624 C2617 0.929 . S
H2625 C2639 0.930 . S
H2626 C2618 0.930 . S
H2627 C2645 0.930 . S
H2628 C2636 0.929 . S
H2629 C2643 0.930 . S
H2630 C2607 0.931 . S
H2631 C2637 0.930 . S
H2632 C2670 0.930 . S
H2633 C2614 0.930 . S
H2634 C2669 0.931 . S
N2635 Eu2604 2.657 . S
N2635 C2636 1.334 . S
N2635 C2640 1.362 . S
C2636 H2628 0.929 . S
C2636 N2635 1.334 . S
C2636 C2639 1.413 . S
C2637 H2631 0.930 . S
C2637 C2638 1.392 . S
C2637 C2639 1.367 . S
C2638 C2637 1.392 . S
C2638 C2640 1.420 . S
C2638 C2670 1.423 . S
C2639 H2625 0.930 . S
C2639 C2636 1.413 . S
C2639 C2637 1.367 . S
C2640 N2635 1.362 . S
C2640 C2638 1.420 . S
C2640 C2644 1.429 . S
H2641 C2646 0.930 . S
N2642 Eu2604 2.609 . S
N2642 C2644 1.377 . S
N2642 C2645 1.321 . S
C2643 H2629 0.930 . S
C2643 C2645 1.400 . S
C2643 C2646 1.386 . S
C2644 C2640 1.429 . S
C2644 N2642 1.377 . S
C2644 C2647 1.411 . S
C2645 H2627 0.930 . S
C2645 N2642 1.321 . S
C2645 C2643 1.400 . S
C2646 H2641 0.930 . S
C2646 C2643 1.386 . S
C2646 C2647 1.395 . S
C2647 C2644 1.411 . S
C2647 C2646 1.395 . S
C2647 C2669 1.420 . S
O2648 Eu2604 2.558 . S
O2648 C2668 1.257 . S
O2649 Eu2604 2.612 . S
O2649 Eu2615 2.380 . S
O2649 C2660 1.276 . S
O2650 Eu2615 2.432 . S
O2650 C2667 1.264 . S
O2651 Eu2604 2.339 . S
O2651 C2667 1.254 . S
O2652 Eu2604 2.563 . S
O2652 C2660 1.235 . S
O2653 Eu2604 2.419 . S
O2653 C2668 1.249 . S
O2654 Eu2615 2.558 . S
O2654 C2679 1.257 . S
O2655 Eu2604 2.380 . S
O2655 Eu2615 2.612 . S
O2655 C2671 1.276 . S
O2656 Eu2604 2.432 . S
O2656 C2678 1.264 . S
O2657 Eu2615 2.339 . S
O2657 C2678 1.254 . S
O2658 Eu2615 2.563 . S
O2658 C2671 1.235 . S
O2659 Eu2615 2.419 . S
O2659 C2679 1.249 . S
C2660 O2649 1.276 . S
C2660 O2652 1.235 . S
C2661 C2663 1.393 . S
C2661 C2665 1.395 . S
C2661 C2668 1.492 . S
C2662 C2663 1.392 . S
C2662 C2664 1.386 . S
C2663 C2661 1.393 . S
C2663 C2662 1.392 . S
C2663 H2680 0.930 . S
C2664 C2662 1.386 . S
C2664 C2666 1.395 . S
C2664 H2681 0.930 . S
C2665 C2661 1.395 . S
C2665 C2666 1.379 . S
C2665 H2682 0.930 . S
C2666 C2664 1.395 . S
C2666 C2665 1.379 . S
C2666 H2683 0.930 . S
C2667 O2650 1.264 . S
C2667 O2651 1.254 . S
C2668 Eu2604 2.848 . S
C2668 O2648 1.257 . S
C2668 O2653 1.249 . S
C2668 C2661 1.492 . S
C2669 H2634 0.931 . S
C2669 C2647 1.420 . S
C2669 C2670 1.351 . S
C2670 H2632 0.930 . S
C2670 C2638 1.423 . S
C2670 C2669 1.351 . S
C2671 O2655 1.276 . S
C2671 O2658 1.235 . S
C2672 C2673 1.393 . S
C2672 C2676 1.395 . S
C2672 C2679 1.492 . S
C2673 C2672 1.393 . S
C2673 C2674 1.392 . S
C2673 H2684 0.930 . S
C2674 C2673 1.392 . S
C2674 C2675 1.386 . S
C2675 C2674 1.386 . S
C2675 C2677 1.395 . S
C2675 H2685 0.930 . S
C2676 C2672 1.395 . S
C2676 C2677 1.379 . S
C2676 H2686 0.930 . S
C2677 C2675 1.395 . S
C2677 C2676 1.379 . S
C2677 H2687 0.930 . S
C2678 O2656 1.264 . S
C2678 O2657 1.254 . S
C2679 Eu2615 2.848 . S
C2679 O2654 1.257 . S
C2679 O2659 1.249 . S
C2679 C2672 1.492 . S
H2680 C2663 0.930 . S
H2681 C2664 0.930 . S
H2682 C2665 0.930 . S
H2683 C2666 0.930 . S
H2684 C2673 0.930 . S
H2685 C2675 0.930 . S
H2686 C2676 0.930 . S
H2687 C2677 0.930 . S
H2688 C2696 0.929 . S
H2689 C2698 0.930 . S
H2690 C2700 0.930 . S
H2691 C2703 0.929 . S
H2692 C2706 0.930 . S
H2693 C2708 0.960 . S
H2694 C2708 0.960 . S
H2695 C2708 0.960 . S
C2696 H2688 0.929 . S
C2696 C2697 1.377 . S
C2696 C2698 1.384 . S
C2697 C2696 1.377 . S
C2697 C2703 1.390 . S
C2698 H2689 0.930 . S
C2698 C2696 1.384 . S
C2698 C2699 1.372 . S
C2699 C2698 1.372 . S
C2699 C2700 1.400 . S
C2699 C2704 1.490 . S
C2700 H2690 0.930 . S
C2700 C2699 1.400 . S
C2700 C2703 1.386 . S
H2701 C2717 0.930 . S
H2702 C2718 0.931 . S
C2703 H2691 0.929 . S
C2703 C2697 1.390 . S
C2703 C2700 1.386 . S
C2704 C2699 1.490 . S
C2704 C2706 1.395 . S
C2704 C2707 1.403 . S
H2705 C2711 0.930 . S
C2706 H2692 0.930 . S
C2706 C2704 1.395 . S
C2706 C2709 1.403 . S
C2707 C2704 1.403 . S
C2707 C2708 1.524 . S
C2707 C2711 1.400 . S
C2708 H2693 0.960 . S
C2708 H2694 0.960 . S
C2708 H2695 0.960 . S
C2708 C2707 1.524 . S
C2709 C2706 1.403 . S
C2709 C2710 1.392 . S
C2709 C2713 1.495 . S
C2710 C2709 1.392 . S
C2710 C2711 1.385 . S
C2710 C2712 1.478 . S
C2711 H2705 0.930 . S
C2711 C2707 1.400 . S
C2711 C2710 1.385 . S
C2712 C2710 1.478 . S
C2712 C2714 1.381 . S
C2712 C2718 1.383 . S
C2713 C2709 1.495 . S
C2713 H2719 0.959 . S
C2713 H2720 0.961 . S
C2713 H2721 0.960 . S
C2714 C2712 1.381 . S
C2714 C2715 1.394 . S
C2714 H2722 0.930 . S
C2715 C2714 1.394 . S
C2715 C2716 1.383 . S
C2715 H2723 0.929 . S
C2716 C2715 1.383 . S
C2716 C2717 1.377 . S
C2717 H2701 0.930 . S
C2717 C2716 1.377 . S
C2717 C2718 1.379 . S
C2718 H2702 0.931 . S
C2718 C2712 1.383 . S
C2718 C2717 1.379 . S
H2719 C2713 0.959 . S
H2720 C2713 0.961 . S
H2721 C2713 0.960 . S
H2722 C2714 0.930 . S
H2723 C2715 0.929 . S
H2724 C2732 0.929 . S
H2725 C2734 0.930 . S
H2726 C2736 0.930 . S
H2727 C2739 0.929 . S
H2728 C2742 0.930 . S
H2729 C2744 0.960 . S
H2730 C2744 0.960 . S
H2731 C2744 0.960 . S
C2732 H2724 0.929 . S
C2732 C2733 1.377 . S
C2732 C2734 1.384 . S
C2733 C2732 1.377 . S
C2733 C2739 1.390 . S
C2734 H2725 0.930 . S
C2734 C2732 1.384 . S
C2734 C2735 1.372 . S
C2735 C2734 1.372 . S
C2735 C2736 1.400 . S
C2735 C2740 1.490 . S
C2736 H2726 0.930 . S
C2736 C2735 1.400 . S
C2736 C2739 1.386 . S
H2737 C2753 0.930 . S
H2738 C2754 0.931 . S
C2739 H2727 0.929 . S
C2739 C2733 1.390 . S
C2739 C2736 1.386 . S
C2740 C2735 1.490 . S
C2740 C2742 1.395 . S
C2740 C2743 1.403 . S
H2741 C2747 0.930 . S
C2742 H2728 0.930 . S
C2742 C2740 1.395 . S
C2742 C2745 1.403 . S
C2743 C2740 1.403 . S
C2743 C2744 1.524 . S
C2743 C2747 1.400 . S
C2744 H2729 0.960 . S
C2744 H2730 0.960 . S
C2744 H2731 0.960 . S
C2744 C2743 1.524 . S
C2745 C2742 1.403 . S
C2745 C2746 1.392 . S
C2745 C2749 1.495 . S
C2746 C2745 1.392 . S
C2746 C2747 1.385 . S
C2746 C2748 1.478 . S
C2747 H2741 0.930 . S
C2747 C2743 1.400 . S
C2747 C2746 1.385 . S
C2748 C2746 1.478 . S
C2748 C2750 1.381 . S
C2748 C2754 1.383 . S
C2749 C2745 1.495 . S
C2749 H2755 0.959 . S
C2749 H2756 0.961 . S
C2749 H2757 0.960 . S
C2750 C2748 1.381 . S
C2750 C2751 1.394 . S
C2750 H2758 0.930 . S
C2751 C2750 1.394 . S
C2751 C2752 1.383 . S
C2751 H2759 0.929 . S
C2752 C2751 1.383 . S
C2752 C2753 1.377 . S
C2753 H2737 0.930 . S
C2753 C2752 1.377 . S
C2753 C2754 1.379 . S
C2754 H2738 0.931 . S
C2754 C2748 1.383 . S
C2754 C2753 1.379 . S
H2755 C2749 0.959 . S
H2756 C2749 0.961 . S
H2757 C2749 0.960 . S
H2758 C2750 0.930 . S
H2759 C2751 0.929 . S
H2760 C2768 0.929 . S
H2761 C2770 0.930 . S
H2762 C2772 0.930 . S
H2763 C2775 0.929 . S
H2764 C2778 0.930 . S
H2765 C2780 0.960 . S
H2766 C2780 0.960 . S
H2767 C2780 0.960 . S
C2768 H2760 0.929 . S
C2768 C2769 1.377 . S
C2768 C2770 1.384 . S
C2769 C2768 1.377 . S
C2769 C2775 1.390 . S
C2770 H2761 0.930 . S
C2770 C2768 1.384 . S
C2770 C2771 1.372 . S
C2771 C2770 1.372 . S
C2771 C2772 1.400 . S
C2771 C2776 1.490 . S
C2772 H2762 0.930 . S
C2772 C2771 1.400 . S
C2772 C2775 1.386 . S
H2773 C2789 0.930 . S
H2774 C2790 0.931 . S
C2775 H2763 0.929 . S
C2775 C2769 1.390 . S
C2775 C2772 1.386 . S
C2776 C2771 1.490 . S
C2776 C2778 1.395 . S
C2776 C2779 1.403 . S
H2777 C2783 0.930 . S
C2778 H2764 0.930 . S
C2778 C2776 1.395 . S
C2778 C2781 1.403 . S
C2779 C2776 1.403 . S
C2779 C2780 1.524 . S
C2779 C2783 1.400 . S
C2780 H2765 0.960 . S
C2780 H2766 0.960 . S
C2780 H2767 0.960 . S
C2780 C2779 1.524 . S
C2781 C2778 1.403 . S
C2781 C2782 1.392 . S
C2781 C2785 1.495 . S
C2782 C2781 1.392 . S
C2782 C2783 1.385 . S
C2782 C2784 1.478 . S
C2783 H2777 0.930 . S
C2783 C2779 1.400 . S
C2783 C2782 1.385 . S
C2784 C2782 1.478 . S
C2784 C2786 1.381 . S
C2784 C2790 1.383 . S
C2785 C2781 1.495 . S
C2785 H2791 0.959 . S
C2785 H2792 0.961 . S
C2785 H2793 0.960 . S
C2786 C2784 1.381 . S
C2786 C2787 1.394 . S
C2786 H2794 0.930 . S
C2787 C2786 1.394 . S
C2787 C2788 1.383 . S
C2787 H2795 0.929 . S
C2788 C2787 1.383 . S
C2788 C2789 1.377 . S
C2789 H2773 0.930 . S
C2789 C2788 1.377 . S
C2789 C2790 1.379 . S
C2790 H2774 0.931 . S
C2790 C2784 1.383 . S
C2790 C2789 1.379 . S
H2791 C2785 0.959 . S
H2792 C2785 0.961 . S
H2793 C2785 0.960 . S
H2794 C2786 0.930 . S
H2795 C2787 0.929 . S
H2796 C2804 0.929 . S
H2797 C2806 0.930 . S
H2798 C2808 0.930 . S
H2799 C2811 0.929 . S
H2800 C2814 0.930 . S
H2801 C2816 0.960 . S
H2802 C2816 0.960 . S
H2803 C2816 0.960 . S
C2804 H2796 0.929 . S
C2804 C2805 1.377 . S
C2804 C2806 1.384 . S
C2805 C2804 1.377 . S
C2805 C2811 1.390 . S
C2806 H2797 0.930 . S
C2806 C2804 1.384 . S
C2806 C2807 1.372 . S
C2807 C2806 1.372 . S
C2807 C2808 1.400 . S
C2807 C2812 1.490 . S
C2808 H2798 0.930 . S
C2808 C2807 1.400 . S
C2808 C2811 1.386 . S
H2809 C2825 0.930 . S
H2810 C2826 0.931 . S
C2811 H2799 0.929 . S
C2811 C2805 1.390 . S
C2811 C2808 1.386 . S
C2812 C2807 1.490 . S
C2812 C2814 1.395 . S
C2812 C2815 1.403 . S
H2813 C2819 0.930 . S
C2814 H2800 0.930 . S
C2814 C2812 1.395 . S
C2814 C2817 1.403 . S
C2815 C2812 1.403 . S
C2815 C2816 1.524 . S
C2815 C2819 1.400 . S
C2816 H2801 0.960 . S
C2816 H2802 0.960 . S
C2816 H2803 0.960 . S
C2816 C2815 1.524 . S
C2817 C2814 1.403 . S
C2817 C2818 1.392 . S
C2817 C2821 1.495 . S
C2818 C2817 1.392 . S
C2818 C2819 1.385 . S
C2818 C2820 1.478 . S
C2819 H2813 0.930 . S
C2819 C2815 1.400 . S
C2819 C2818 1.385 . S
C2820 C2818 1.478 . S
C2820 C2822 1.381 . S
C2820 C2826 1.383 . S
C2821 C2817 1.495 . S
C2821 H2827 0.959 . S
C2821 H2828 0.961 . S
C2821 H2829 0.960 . S
C2822 C2820 1.381 . S
C2822 C2823 1.394 . S
C2822 H2830 0.930 . S
C2823 C2822 1.394 . S
C2823 C2824 1.383 . S
C2823 H2831 0.929 . S
C2824 C2823 1.383 . S
C2824 C2825 1.377 . S
C2825 H2809 0.930 . S
C2825 C2824 1.377 . S
C2825 C2826 1.379 . S
C2826 H2810 0.931 . S
C2826 C2820 1.383 . S
C2826 C2825 1.379 . S
H2827 C2821 0.959 . S
H2828 C2821 0.961 . S
H2829 C2821 0.960 . S
H2830 C2822 0.930 . S
H2831 C2823 0.929 . S
H2832 C2840 0.929 . S
H2833 C2842 0.930 . S
H2834 C2844 0.930 . S
H2835 C2847 0.929 . S
H2836 C2850 0.930 . S
H2837 C2852 0.960 . S
H2838 C2852 0.960 . S
H2839 C2852 0.960 . S
C2840 H2832 0.929 . S
C2840 C2841 1.377 . S
C2840 C2842 1.384 . S
C2841 C2840 1.377 . S
C2841 C2847 1.390 . S
C2842 H2833 0.930 . S
C2842 C2840 1.384 . S
C2842 C2843 1.372 . S
C2843 C2842 1.372 . S
C2843 C2844 1.400 . S
C2843 C2848 1.490 . S
C2844 H2834 0.930 . S
C2844 C2843 1.400 . S
C2844 C2847 1.386 . S
H2845 C2861 0.930 . S
H2846 C2862 0.931 . S
C2847 H2835 0.929 . S
C2847 C2841 1.390 . S
C2847 C2844 1.386 . S
C2848 C2843 1.490 . S
C2848 C2850 1.395 . S
C2848 C2851 1.403 . S
H2849 C2855 0.930 . S
C2850 H2836 0.930 . S
C2850 C2848 1.395 . S
C2850 C2853 1.403 . S
C2851 C2848 1.403 . S
C2851 C2852 1.524 . S
C2851 C2855 1.400 . S
C2852 H2837 0.960 . S
C2852 H2838 0.960 . S
C2852 H2839 0.960 . S
C2852 C2851 1.524 . S
C2853 C2850 1.403 . S
C2853 C2854 1.392 . S
C2853 C2857 1.495 . S
C2854 C2853 1.392 . S
C2854 C2855 1.385 . S
C2854 C2856 1.478 . S
C2855 H2849 0.930 . S
C2855 C2851 1.400 . S
C2855 C2854 1.385 . S
C2856 C2854 1.478 . S
C2856 C2858 1.381 . S
C2856 C2862 1.383 . S
C2857 C2853 1.495 . S
C2857 H2863 0.959 . S
C2857 H2864 0.961 . S
C2857 H2865 0.960 . S
C2858 C2856 1.381 . S
C2858 C2859 1.394 . S
C2858 H2866 0.930 . S
C2859 C2858 1.394 . S
C2859 C2860 1.383 . S
C2859 H2867 0.929 . S
C2860 C2859 1.383 . S
C2860 C2861 1.377 . S
C2861 H2845 0.930 . S
C2861 C2860 1.377 . S
C2861 C2862 1.379 . S
C2862 H2846 0.931 . S
C2862 C2856 1.383 . S
C2862 C2861 1.379 . S
H2863 C2857 0.959 . S
H2864 C2857 0.961 . S
H2865 C2857 0.960 . S
H2866 C2858 0.930 . S
H2867 C2859 0.929 . S
H2868 C2876 0.929 . S
H2869 C2878 0.930 . S
H2870 C2880 0.930 . S
H2871 C2883 0.929 . S
H2872 C2886 0.930 . S
H2873 C2888 0.960 . S
H2874 C2888 0.960 . S
H2875 C2888 0.960 . S
C2876 H2868 0.929 . S
C2876 C2877 1.377 . S
C2876 C2878 1.384 . S
C2877 C2876 1.377 . S
C2877 C2883 1.390 . S
C2878 H2869 0.930 . S
C2878 C2876 1.384 . S
C2878 C2879 1.372 . S
C2879 C2878 1.372 . S
C2879 C2880 1.400 . S
C2879 C2884 1.490 . S
C2880 H2870 0.930 . S
C2880 C2879 1.400 . S
C2880 C2883 1.386 . S
H2881 C2897 0.930 . S
H2882 C2898 0.931 . S
C2883 H2871 0.929 . S
C2883 C2877 1.390 . S
C2883 C2880 1.386 . S
C2884 C2879 1.490 . S
C2884 C2886 1.395 . S
C2884 C2887 1.403 . S
H2885 C2891 0.930 . S
C2886 H2872 0.930 . S
C2886 C2884 1.395 . S
C2886 C2889 1.403 . S
C2887 C2884 1.403 . S
C2887 C2888 1.524 . S
C2887 C2891 1.400 . S
C2888 H2873 0.960 . S
C2888 H2874 0.960 . S
C2888 H2875 0.960 . S
C2888 C2887 1.524 . S
C2889 C2886 1.403 . S
C2889 C2890 1.392 . S
C2889 C2893 1.495 . S
C2890 C2889 1.392 . S
C2890 C2891 1.385 . S
C2890 C2892 1.478 . S
C2891 H2885 0.930 . S
C2891 C2887 1.400 . S
C2891 C2890 1.385 . S
C2892 C2890 1.478 . S
C2892 C2894 1.381 . S
C2892 C2898 1.383 . S
C2893 C2889 1.495 . S
C2893 H2899 0.959 . S
C2893 H2900 0.961 . S
C2893 H2901 0.960 . S
C2894 C2892 1.381 . S
C2894 C2895 1.394 . S
C2894 H2902 0.930 . S
C2895 C2894 1.394 . S
C2895 C2896 1.383 . S
C2895 H2903 0.929 . S
C2896 C2895 1.383 . S
C2896 C2897 1.377 . S
C2897 H2881 0.930 . S
C2897 C2896 1.377 . S
C2897 C2898 1.379 . S
C2898 H2882 0.931 . S
C2898 C2892 1.383 . S
C2898 C2897 1.379 . S
H2899 C2893 0.959 . S
H2900 C2893 0.961 . S
H2901 C2893 0.960 . S
H2902 C2894 0.930 . S
H2903 C2895 0.929 . S
H2904 C2912 0.929 . S
H2905 C2914 0.930 . S
H2906 C2916 0.930 . S
H2907 C2919 0.929 . S
H2908 C2922 0.930 . S
H2909 C2924 0.960 . S
H2910 C2924 0.960 . S
H2911 C2924 0.960 . S
C2912 H2904 0.929 . S
C2912 C2913 1.377 . S
C2912 C2914 1.384 . S
C2913 C2912 1.377 . S
C2913 C2919 1.390 . S
C2914 H2905 0.930 . S
C2914 C2912 1.384 . S
C2914 C2915 1.372 . S
C2915 C2914 1.372 . S
C2915 C2916 1.400 . S
C2915 C2920 1.490 . S
C2916 H2906 0.930 . S
C2916 C2915 1.400 . S
C2916 C2919 1.386 . S
H2917 C2933 0.930 . S
H2918 C2934 0.931 . S
C2919 H2907 0.929 . S
C2919 C2913 1.390 . S
C2919 C2916 1.386 . S
C2920 C2915 1.490 . S
C2920 C2922 1.395 . S
C2920 C2923 1.403 . S
H2921 C2927 0.930 . S
C2922 H2908 0.930 . S
C2922 C2920 1.395 . S
C2922 C2925 1.403 . S
C2923 C2920 1.403 . S
C2923 C2924 1.524 . S
C2923 C2927 1.400 . S
C2924 H2909 0.960 . S
C2924 H2910 0.960 . S
C2924 H2911 0.960 . S
C2924 C2923 1.524 . S
C2925 C2922 1.403 . S
C2925 C2926 1.392 . S
C2925 C2929 1.495 . S
C2926 C2925 1.392 . S
C2926 C2927 1.385 . S
C2926 C2928 1.478 . S
C2927 H2921 0.930 . S
C2927 C2923 1.400 . S
C2927 C2926 1.385 . S
C2928 C2926 1.478 . S
C2928 C2930 1.381 . S
C2928 C2934 1.383 . S
C2929 C2925 1.495 . S
C2929 H2935 0.959 . S
C2929 H2936 0.961 . S
C2929 H2937 0.960 . S
C2930 C2928 1.381 . S
C2930 C2931 1.394 . S
C2930 H2938 0.930 . S
C2931 C2930 1.394 . S
C2931 C2932 1.383 . S
C2931 H2939 0.929 . S
C2932 C2931 1.383 . S
C2932 C2933 1.377 . S
C2933 H2917 0.930 . S
C2933 C2932 1.377 . S
C2933 C2934 1.379 . S
C2934 H2918 0.931 . S
C2934 C2928 1.383 . S
C2934 C2933 1.379 . S
H2935 C2929 0.959 . S
H2936 C2929 0.961 . S
H2937 C2929 0.960 . S
H2938 C2930 0.930 . S
H2939 C2931 0.929 . S
H2940 C2948 0.929 . S
H2941 C2950 0.930 . S
H2942 C2952 0.930 . S
H2943 C2955 0.929 . S
H2944 C2958 0.930 . S
H2945 C2960 0.960 . S
H2946 C2960 0.960 . S
H2947 C2960 0.960 . S
C2948 H2940 0.929 . S
C2948 C2949 1.377 . S
C2948 C2950 1.384 . S
C2949 C2948 1.377 . S
C2949 C2955 1.390 . S
C2950 H2941 0.930 . S
C2950 C2948 1.384 . S
C2950 C2951 1.372 . S
C2951 C2950 1.372 . S
C2951 C2952 1.400 . S
C2951 C2956 1.490 . S
C2952 H2942 0.930 . S
C2952 C2951 1.400 . S
C2952 C2955 1.386 . S
H2953 C2969 0.930 . S
H2954 C2970 0.931 . S
C2955 H2943 0.929 . S
C2955 C2949 1.390 . S
C2955 C2952 1.386 . S
C2956 C2951 1.490 . S
C2956 C2958 1.395 . S
C2956 C2959 1.403 . S
H2957 C2963 0.930 . S
C2958 H2944 0.930 . S
C2958 C2956 1.395 . S
C2958 C2961 1.403 . S
C2959 C2956 1.403 . S
C2959 C2960 1.524 . S
C2959 C2963 1.400 . S
C2960 H2945 0.960 . S
C2960 H2946 0.960 . S
C2960 H2947 0.960 . S
C2960 C2959 1.524 . S
C2961 C2958 1.403 . S
C2961 C2962 1.392 . S
C2961 C2965 1.495 . S
C2962 C2961 1.392 . S
C2962 C2963 1.385 . S
C2962 C2964 1.478 . S
C2963 H2957 0.930 . S
C2963 C2959 1.400 . S
C2963 C2962 1.385 . S
C2964 C2962 1.478 . S
C2964 C2966 1.381 . S
C2964 C2970 1.383 . S
C2965 C2961 1.495 . S
C2965 H2971 0.959 . S
C2965 H2972 0.961 . S
C2965 H2973 0.960 . S
C2966 C2964 1.381 . S
C2966 C2967 1.394 . S
C2966 H2974 0.930 . S
C2967 C2966 1.394 . S
C2967 C2968 1.383 . S
C2967 H2975 0.929 . S
C2968 C2967 1.383 . S
C2968 C2969 1.377 . S
C2969 H2953 0.930 . S
C2969 C2968 1.377 . S
C2969 C2970 1.379 . S
C2970 H2954 0.931 . S
C2970 C2964 1.383 . S
C2970 C2969 1.379 . S
H2971 C2965 0.959 . S
H2972 C2965 0.961 . S
H2973 C2965 0.960 . S
H2974 C2966 0.930 . S
H2975 C2967 0.929 . S
H2976 C2984 0.929 . S
H2977 C2986 0.930 . S
H2978 C2988 0.930 . S
H2979 C2991 0.929 . S
H2980 C2994 0.930 . S
H2981 C2996 0.960 . S
H2982 C2996 0.960 . S
H2983 C2996 0.960 . S
C2984 H2976 0.929 . S
C2984 C2985 1.377 . S
C2984 C2986 1.384 . S
C2985 C2984 1.377 . S
C2985 C2991 1.390 . S
C2986 H2977 0.930 . S
C2986 C2984 1.384 . S
C2986 C2987 1.372 . S
C2987 C2986 1.372 . S
C2987 C2988 1.400 . S
C2987 C2992 1.490 . S
C2988 H2978 0.930 . S
C2988 C2987 1.400 . S
C2988 C2991 1.386 . S
H2989 C3005 0.930 . S
H2990 C3006 0.931 . S
C2991 H2979 0.929 . S
C2991 C2985 1.390 . S
C2991 C2988 1.386 . S
C2992 C2987 1.490 . S
C2992 C2994 1.395 . S
C2992 C2995 1.403 . S
H2993 C2999 0.930 . S
C2994 H2980 0.930 . S
C2994 C2992 1.395 . S
C2994 C2997 1.403 . S
C2995 C2992 1.403 . S
C2995 C2996 1.524 . S
C2995 C2999 1.400 . S
C2996 H2981 0.960 . S
C2996 H2982 0.960 . S
C2996 H2983 0.960 . S
C2996 C2995 1.524 . S
C2997 C2994 1.403 . S
C2997 C2998 1.392 . S
C2997 C3001 1.495 . S
C2998 C2997 1.392 . S
C2998 C2999 1.385 . S
C2998 C3000 1.478 . S
C2999 H2993 0.930 . S
C2999 C2995 1.400 . S
C2999 C2998 1.385 . S
C3000 C2998 1.478 . S
C3000 C3002 1.381 . S
C3000 C3006 1.383 . S
C3001 C2997 1.495 . S
C3001 H3007 0.959 . S
C3001 H3008 0.961 . S
C3001 H3009 0.960 . S
C3002 C3000 1.381 . S
C3002 C3003 1.394 . S
C3002 H3010 0.930 . S
C3003 C3002 1.394 . S
C3003 C3004 1.383 . S
C3003 H3011 0.929 . S
C3004 C3003 1.383 . S
C3004 C3005 1.377 . S
C3005 H2989 0.930 . S
C3005 C3004 1.377 . S
C3005 C3006 1.379 . S
C3006 H2990 0.931 . S
C3006 C3000 1.383 . S
C3006 C3005 1.379 . S
H3007 C3001 0.959 . S
H3008 C3001 0.961 . S
H3009 C3001 0.960 . S
H3010 C3002 0.930 . S
H3011 C3003 0.929 . S
H3012 C3020 0.929 . S
H3013 C3022 0.930 . S
H3014 C3024 0.930 . S
H3015 C3027 0.929 . S
H3016 C3030 0.930 . S
H3017 C3032 0.960 . S
H3018 C3032 0.960 . S
H3019 C3032 0.960 . S
C3020 H3012 0.929 . S
C3020 C3021 1.377 . S
C3020 C3022 1.384 . S
C3021 C3020 1.377 . S
C3021 C3027 1.390 . S
C3022 H3013 0.930 . S
C3022 C3020 1.384 . S
C3022 C3023 1.372 . S
C3023 C3022 1.372 . S
C3023 C3024 1.400 . S
C3023 C3028 1.490 . S
C3024 H3014 0.930 . S
C3024 C3023 1.400 . S
C3024 C3027 1.386 . S
H3025 C3041 0.930 . S
H3026 C3042 0.931 . S
C3027 H3015 0.929 . S
C3027 C3021 1.390 . S
C3027 C3024 1.386 . S
C3028 C3023 1.490 . S
C3028 C3030 1.395 . S
C3028 C3031 1.403 . S
H3029 C3035 0.930 . S
C3030 H3016 0.930 . S
C3030 C3028 1.395 . S
C3030 C3033 1.403 . S
C3031 C3028 1.403 . S
C3031 C3032 1.524 . S
C3031 C3035 1.400 . S
C3032 H3017 0.960 . S
C3032 H3018 0.960 . S
C3032 H3019 0.960 . S
C3032 C3031 1.524 . S
C3033 C3030 1.403 . S
C3033 C3034 1.392 . S
C3033 C3037 1.495 . S
C3034 C3033 1.392 . S
C3034 C3035 1.385 . S
C3034 C3036 1.478 . S
C3035 H3029 0.930 . S
C3035 C3031 1.400 . S
C3035 C3034 1.385 . S
C3036 C3034 1.478 . S
C3036 C3038 1.381 . S
C3036 C3042 1.383 . S
C3037 C3033 1.495 . S
C3037 H3043 0.959 . S
C3037 H3044 0.961 . S
C3037 H3045 0.960 . S
C3038 C3036 1.381 . S
C3038 C3039 1.394 . S
C3038 H3046 0.930 . S
C3039 C3038 1.394 . S
C3039 C3040 1.383 . S
C3039 H3047 0.929 . S
C3040 C3039 1.383 . S
C3040 C3041 1.377 . S
C3041 H3025 0.930 . S
C3041 C3040 1.377 . S
C3041 C3042 1.379 . S
C3042 H3026 0.931 . S
C3042 C3036 1.383 . S
C3042 C3041 1.379 . S
H3043 C3037 0.959 . S
H3044 C3037 0.961 . S
H3045 C3037 0.960 . S
H3046 C3038 0.930 . S
H3047 C3039 0.929 . S
H3048 C3056 0.929 . S
H3049 C3058 0.930 . S
H3050 C3060 0.930 . S
H3051 C3063 0.929 . S
H3052 C3066 0.930 . S
H3053 C3068 0.960 . S
H3054 C3068 0.960 . S
H3055 C3068 0.960 . S
C3056 H3048 0.929 . S
C3056 C3057 1.377 . S
C3056 C3058 1.384 . S
C3057 C3056 1.377 . S
C3057 C3063 1.390 . S
C3058 H3049 0.930 . S
C3058 C3056 1.384 . S
C3058 C3059 1.372 . S
C3059 C3058 1.372 . S
C3059 C3060 1.400 . S
C3059 C3064 1.490 . S
C3060 H3050 0.930 . S
C3060 C3059 1.400 . S
C3060 C3063 1.386 . S
H3061 C3077 0.930 . S
H3062 C3078 0.931 . S
C3063 H3051 0.929 . S
C3063 C3057 1.390 . S
C3063 C3060 1.386 . S
C3064 C3059 1.490 . S
C3064 C3066 1.395 . S
C3064 C3067 1.403 . S
H3065 C3071 0.930 . S
C3066 H3052 0.930 . S
C3066 C3064 1.395 . S
C3066 C3069 1.403 . S
C3067 C3064 1.403 . S
C3067 C3068 1.524 . S
C3067 C3071 1.400 . S
C3068 H3053 0.960 . S
C3068 H3054 0.960 . S
C3068 H3055 0.960 . S
C3068 C3067 1.524 . S
C3069 C3066 1.403 . S
C3069 C3070 1.392 . S
C3069 C3073 1.495 . S
C3070 C3069 1.392 . S
C3070 C3071 1.385 . S
C3070 C3072 1.478 . S
C3071 H3065 0.930 . S
C3071 C3067 1.400 . S
C3071 C3070 1.385 . S
C3072 C3070 1.478 . S
C3072 C3074 1.381 . S
C3072 C3078 1.383 . S
C3073 C3069 1.495 . S
C3073 H3079 0.959 . S
C3073 H3080 0.961 . S
C3073 H3081 0.960 . S
C3074 C3072 1.381 . S
C3074 C3075 1.394 . S
C3074 H3082 0.930 . S
C3075 C3074 1.394 . S
C3075 C3076 1.383 . S
C3075 H3083 0.929 . S
C3076 C3075 1.383 . S
C3076 C3077 1.377 . S
C3077 H3061 0.930 . S
C3077 C3076 1.377 . S
C3077 C3078 1.379 . S
C3078 H3062 0.931 . S
C3078 C3072 1.383 . S
C3078 C3077 1.379 . S
H3079 C3073 0.959 . S
H3080 C3073 0.961 . S
H3081 C3073 0.960 . S
H3082 C3074 0.930 . S
H3083 C3075 0.929 . S
H3084 C3092 0.929 . S
H3085 C3094 0.930 . S
H3086 C3096 0.930 . S
H3087 C3099 0.929 . S
H3088 C3102 0.930 . S
H3089 C3104 0.960 . S
H3090 C3104 0.960 . S
H3091 C3104 0.960 . S
C3092 H3084 0.929 . S
C3092 C3093 1.377 . S
C3092 C3094 1.384 . S
C3093 C3092 1.377 . S
C3093 C3099 1.390 . S
C3094 H3085 0.930 . S
C3094 C3092 1.384 . S
C3094 C3095 1.372 . S
C3095 C3094 1.372 . S
C3095 C3096 1.400 . S
C3095 C3100 1.490 . S
C3096 H3086 0.930 . S
C3096 C3095 1.400 . S
C3096 C3099 1.386 . S
H3097 C3113 0.930 . S
H3098 C3114 0.931 . S
C3099 H3087 0.929 . S
C3099 C3093 1.390 . S
C3099 C3096 1.386 . S
C3100 C3095 1.490 . S
C3100 C3102 1.395 . S
C3100 C3103 1.403 . S
H3101 C3107 0.930 . S
C3102 H3088 0.930 . S
C3102 C3100 1.395 . S
C3102 C3105 1.403 . S
C3103 C3100 1.403 . S
C3103 C3104 1.524 . S
C3103 C3107 1.400 . S
C3104 H3089 0.960 . S
C3104 H3090 0.960 . S
C3104 H3091 0.960 . S
C3104 C3103 1.524 . S
C3105 C3102 1.403 . S
C3105 C3106 1.392 . S
C3105 C3109 1.495 . S
C3106 C3105 1.392 . S
C3106 C3107 1.385 . S
C3106 C3108 1.478 . S
C3107 H3101 0.930 . S
C3107 C3103 1.400 . S
C3107 C3106 1.385 . S
C3108 C3106 1.478 . S
C3108 C3110 1.381 . S
C3108 C3114 1.383 . S
C3109 C3105 1.495 . S
C3109 H3115 0.959 . S
C3109 H3116 0.961 . S
C3109 H3117 0.960 . S
C3110 C3108 1.381 . S
C3110 C3111 1.394 . S
C3110 H3118 0.930 . S
C3111 C3110 1.394 . S
C3111 C3112 1.383 . S
C3111 H3119 0.929 . S
C3112 C3111 1.383 . S
C3112 C3113 1.377 . S
C3113 H3097 0.930 . S
C3113 C3112 1.377 . S
C3113 C3114 1.379 . S
C3114 H3098 0.931 . S
C3114 C3108 1.383 . S
C3114 C3113 1.379 . S
H3115 C3109 0.959 . S
H3116 C3109 0.961 . S
H3117 C3109 0.960 . S
H3118 C3110 0.930 . S
H3119 C3111 0.929 . S
H3120 C3128 0.929 . S
H3121 C3130 0.930 . S
H3122 C3132 0.930 . S
H3123 C3135 0.929 . S
H3124 C3138 0.930 . S
H3125 C3140 0.960 . S
H3126 C3140 0.960 . S
H3127 C3140 0.960 . S
C3128 H3120 0.929 . S
C3128 C3129 1.377 . S
C3128 C3130 1.384 . S
C3129 C3128 1.377 . S
C3129 C3135 1.390 . S
C3130 H3121 0.930 . S
C3130 C3128 1.384 . S
C3130 C3131 1.372 . S
C3131 C3130 1.372 . S
C3131 C3132 1.400 . S
C3131 C3136 1.490 . S
C3132 H3122 0.930 . S
C3132 C3131 1.400 . S
C3132 C3135 1.386 . S
H3133 C3149 0.930 . S
H3134 C3150 0.931 . S
C3135 H3123 0.929 . S
C3135 C3129 1.390 . S
C3135 C3132 1.386 . S
C3136 C3131 1.490 . S
C3136 C3138 1.395 . S
C3136 C3139 1.403 . S
H3137 C3143 0.930 . S
C3138 H3124 0.930 . S
C3138 C3136 1.395 . S
C3138 C3141 1.403 . S
C3139 C3136 1.403 . S
C3139 C3140 1.524 . S
C3139 C3143 1.400 . S
C3140 H3125 0.960 . S
C3140 H3126 0.960 . S
C3140 H3127 0.960 . S
C3140 C3139 1.524 . S
C3141 C3138 1.403 . S
C3141 C3142 1.392 . S
C3141 C3145 1.495 . S
C3142 C3141 1.392 . S
C3142 C3143 1.385 . S
C3142 C3144 1.478 . S
C3143 H3137 0.930 . S
C3143 C3139 1.400 . S
C3143 C3142 1.385 . S
C3144 C3142 1.478 . S
C3144 C3146 1.381 . S
C3144 C3150 1.383 . S
C3145 C3141 1.495 . S
C3145 H3151 0.959 . S
C3145 H3152 0.961 . S
C3145 H3153 0.960 . S
C3146 C3144 1.381 . S
C3146 C3147 1.394 . S
C3146 H3154 0.930 . S
C3147 C3146 1.394 . S
C3147 C3148 1.383 . S
C3147 H3155 0.929 . S
C3148 C3147 1.383 . S
C3148 C3149 1.377 . S
C3149 H3133 0.930 . S
C3149 C3148 1.377 . S
C3149 C3150 1.379 . S
C3150 H3134 0.931 . S
C3150 C3144 1.383 . S
C3150 C3149 1.379 . S
H3151 C3145 0.959 . S
H3152 C3145 0.961 . S
H3153 C3145 0.960 . S
H3154 C3146 0.930 . S
H3155 C3147 0.929 . S
H3156 C3164 0.929 . S
H3157 C3166 0.930 . S
H3158 C3168 0.930 . S
H3159 C3171 0.929 . S
H3160 C3174 0.930 . S
H3161 C3176 0.960 . S
H3162 C3176 0.960 . S
H3163 C3176 0.960 . S
C3164 H3156 0.929 . S
C3164 C3165 1.377 . S
C3164 C3166 1.384 . S
C3165 C3164 1.377 . S
C3165 C3171 1.390 . S
C3166 H3157 0.930 . S
C3166 C3164 1.384 . S
C3166 C3167 1.372 . S
C3167 C3166 1.372 . S
C3167 C3168 1.400 . S
C3167 C3172 1.490 . S
C3168 H3158 0.930 . S
C3168 C3167 1.400 . S
C3168 C3171 1.386 . S
H3169 C3185 0.930 . S
H3170 C3186 0.931 . S
C3171 H3159 0.929 . S
C3171 C3165 1.390 . S
C3171 C3168 1.386 . S
C3172 C3167 1.490 . S
C3172 C3174 1.395 . S
C3172 C3175 1.403 . S
H3173 C3179 0.930 . S
C3174 H3160 0.930 . S
C3174 C3172 1.395 . S
C3174 C3177 1.403 . S
C3175 C3172 1.403 . S
C3175 C3176 1.524 . S
C3175 C3179 1.400 . S
C3176 H3161 0.960 . S
C3176 H3162 0.960 . S
C3176 H3163 0.960 . S
C3176 C3175 1.524 . S
C3177 C3174 1.403 . S
C3177 C3178 1.392 . S
C3177 C3181 1.495 . S
C3178 C3177 1.392 . S
C3178 C3179 1.385 . S
C3178 C3180 1.478 . S
C3179 H3173 0.930 . S
C3179 C3175 1.400 . S
C3179 C3178 1.385 . S
C3180 C3178 1.478 . S
C3180 C3182 1.381 . S
C3180 C3186 1.383 . S
C3181 C3177 1.495 . S
C3181 H3187 0.959 . S
C3181 H3188 0.961 . S
C3181 H3189 0.960 . S
C3182 C3180 1.381 . S
C3182 C3183 1.394 . S
C3182 H3190 0.930 . S
C3183 C3182 1.394 . S
C3183 C3184 1.383 . S
C3183 H3191 0.929 . S
C3184 C3183 1.383 . S
C3184 C3185 1.377 . S
C3185 H3169 0.930 . S
C3185 C3184 1.377 . S
C3185 C3186 1.379 . S
C3186 H3170 0.931 . S
C3186 C3180 1.383 . S
C3186 C3185 1.379 . S
H3187 C3181 0.959 . S
H3188 C3181 0.961 . S
H3189 C3181 0.960 . S
H3190 C3182 0.930 . S
H3191 C3183 0.929 . S
H3192 C3200 0.929 . S
H3193 C3202 0.930 . S
H3194 C3204 0.930 . S
H3195 C3207 0.929 . S
H3196 C3210 0.930 . S
H3197 C3212 0.960 . S
H3198 C3212 0.960 . S
H3199 C3212 0.960 . S
C3200 H3192 0.929 . S
C3200 C3201 1.377 . S
C3200 C3202 1.384 . S
C3201 C3200 1.377 . S
C3201 C3207 1.390 . S
C3202 H3193 0.930 . S
C3202 C3200 1.384 . S
C3202 C3203 1.372 . S
C3203 C3202 1.372 . S
C3203 C3204 1.400 . S
C3203 C3208 1.490 . S
C3204 H3194 0.930 . S
C3204 C3203 1.400 . S
C3204 C3207 1.386 . S
H3205 C3221 0.930 . S
H3206 C3222 0.931 . S
C3207 H3195 0.929 . S
C3207 C3201 1.390 . S
C3207 C3204 1.386 . S
C3208 C3203 1.490 . S
C3208 C3210 1.395 . S
C3208 C3211 1.403 . S
H3209 C3215 0.930 . S
C3210 H3196 0.930 . S
C3210 C3208 1.395 . S
C3210 C3213 1.403 . S
C3211 C3208 1.403 . S
C3211 C3212 1.524 . S
C3211 C3215 1.400 . S
C3212 H3197 0.960 . S
C3212 H3198 0.960 . S
C3212 H3199 0.960 . S
C3212 C3211 1.524 . S
C3213 C3210 1.403 . S
C3213 C3214 1.392 . S
C3213 C3217 1.495 . S
C3214 C3213 1.392 . S
C3214 C3215 1.385 . S
C3214 C3216 1.478 . S
C3215 H3209 0.930 . S
C3215 C3211 1.400 . S
C3215 C3214 1.385 . S
C3216 C3214 1.478 . S
C3216 C3218 1.381 . S
C3216 C3222 1.383 . S
C3217 C3213 1.495 . S
C3217 H3223 0.959 . S
C3217 H3224 0.961 . S
C3217 H3225 0.960 . S
C3218 C3216 1.381 . S
C3218 C3219 1.394 . S
C3218 H3226 0.930 . S
C3219 C3218 1.394 . S
C3219 C3220 1.383 . S
C3219 H3227 0.929 . S
C3220 C3219 1.383 . S
C3220 C3221 1.377 . S
C3221 H3205 0.930 . S
C3221 C3220 1.377 . S
C3221 C3222 1.379 . S
C3222 H3206 0.931 . S
C3222 C3216 1.383 . S
C3222 C3221 1.379 . S
H3223 C3217 0.959 . S
H3224 C3217 0.961 . S
H3225 C3217 0.960 . S
H3226 C3218 0.930 . S
H3227 C3219 0.929 . S
H3228 C3236 0.929 . S
H3229 C3238 0.930 . S
H3230 C3240 0.930 . S
H3231 C3243 0.929 . S
H3232 C3246 0.930 . S
H3233 C3248 0.960 . S
H3234 C3248 0.960 . S
H3235 C3248 0.960 . S
C3236 H3228 0.929 . S
C3236 C3237 1.377 . S
C3236 C3238 1.384 . S
C3237 C3236 1.377 . S
C3237 C3243 1.390 . S
C3238 H3229 0.930 . S
C3238 C3236 1.384 . S
C3238 C3239 1.372 . S
C3239 C3238 1.372 . S
C3239 C3240 1.400 . S
C3239 C3244 1.490 . S
C3240 H3230 0.930 . S
C3240 C3239 1.400 . S
C3240 C3243 1.386 . S
H3241 C3257 0.930 . S
H3242 C3258 0.931 . S
C3243 H3231 0.929 . S
C3243 C3237 1.390 . S
C3243 C3240 1.386 . S
C3244 C3239 1.490 . S
C3244 C3246 1.395 . S
C3244 C3247 1.403 . S
H3245 C3251 0.930 . S
C3246 H3232 0.930 . S
C3246 C3244 1.395 . S
C3246 C3249 1.403 . S
C3247 C3244 1.403 . S
C3247 C3248 1.524 . S
C3247 C3251 1.400 . S
C3248 H3233 0.960 . S
C3248 H3234 0.960 . S
C3248 H3235 0.960 . S
C3248 C3247 1.524 . S
C3249 C3246 1.403 . S
C3249 C3250 1.392 . S
C3249 C3253 1.495 . S
C3250 C3249 1.392 . S
C3250 C3251 1.385 . S
C3250 C3252 1.478 . S
C3251 H3245 0.930 . S
C3251 C3247 1.400 . S
C3251 C3250 1.385 . S
C3252 C3250 1.478 . S
C3252 C3254 1.381 . S
C3252 C3258 1.383 . S
C3253 C3249 1.495 . S
C3253 H3259 0.959 . S
C3253 H3260 0.961 . S
C3253 H3261 0.960 . S
C3254 C3252 1.381 . S
C3254 C3255 1.394 . S
C3254 H3262 0.930 . S
C3255 C3254 1.394 . S
C3255 C3256 1.383 . S
C3255 H3263 0.929 . S
C3256 C3255 1.383 . S
C3256 C3257 1.377 . S
C3257 H3241 0.930 . S
C3257 C3256 1.377 . S
C3257 C3258 1.379 . S
C3258 H3242 0.931 . S
C3258 C3252 1.383 . S
C3258 C3257 1.379 . S
H3259 C3253 0.959 . S
H3260 C3253 0.961 . S
H3261 C3253 0.960 . S
H3262 C3254 0.930 . S
H3263 C3255 0.929 . S
H3264 C3272 0.929 . S
H3265 C3274 0.930 . S
H3266 C3276 0.930 . S
H3267 C3279 0.929 . S
H3268 C3282 0.930 . S
H3269 C3284 0.960 . S
H3270 C3284 0.960 . S
H3271 C3284 0.960 . S
C3272 H3264 0.929 . S
C3272 C3273 1.377 . S
C3272 C3274 1.384 . S
C3273 C3272 1.377 . S
C3273 C3279 1.390 . S
C3274 H3265 0.930 . S
C3274 C3272 1.384 . S
C3274 C3275 1.372 . S
C3275 C3274 1.372 . S
C3275 C3276 1.400 . S
C3275 C3280 1.490 . S
C3276 H3266 0.930 . S
C3276 C3275 1.400 . S
C3276 C3279 1.386 . S
H3277 C3293 0.930 . S
H3278 C3294 0.931 . S
C3279 H3267 0.929 . S
C3279 C3273 1.390 . S
C3279 C3276 1.386 . S
C3280 C3275 1.490 . S
C3280 C3282 1.395 . S
C3280 C3283 1.403 . S
H3281 C3287 0.930 . S
C3282 H3268 0.930 . S
C3282 C3280 1.395 . S
C3282 C3285 1.403 . S
C3283 C3280 1.403 . S
C3283 C3284 1.524 . S
C3283 C3287 1.400 . S
C3284 H3269 0.960 . S
C3284 H3270 0.960 . S
C3284 H3271 0.960 . S
C3284 C3283 1.524 . S
C3285 C3282 1.403 . S
C3285 C3286 1.392 . S
C3285 C3289 1.495 . S
C3286 C3285 1.392 . S
C3286 C3287 1.385 . S
C3286 C3288 1.478 . S
C3287 H3281 0.930 . S
C3287 C3283 1.400 . S
C3287 C3286 1.385 . S
C3288 C3286 1.478 . S
C3288 C3290 1.381 . S
C3288 C3294 1.383 . S
C3289 C3285 1.495 . S
C3289 H3295 0.959 . S
C3289 H3296 0.961 . S
C3289 H3297 0.960 . S
C3290 C3288 1.381 . S
C3290 C3291 1.394 . S
C3290 H3298 0.930 . S
C3291 C3290 1.394 . S
C3291 C3292 1.383 . S
C3291 H3299 0.929 . S
C3292 C3291 1.383 . S
C3292 C3293 1.377 . S
C3293 H3277 0.930 . S
C3293 C3292 1.377 . S
C3293 C3294 1.379 . S
C3294 H3278 0.931 . S
C3294 C3288 1.383 . S
C3294 C3293 1.379 . S
H3295 C3289 0.959 . S
H3296 C3289 0.961 . S
H3297 C3289 0.960 . S
H3298 C3290 0.930 . S
H3299 C3291 0.929 . S
H3300 C3308 0.929 . S
H3301 C3310 0.930 . S
H3302 C3312 0.930 . S
H3303 C3315 0.929 . S
H3304 C3318 0.930 . S
H3305 C3320 0.960 . S
H3306 C3320 0.960 . S
H3307 C3320 0.960 . S
C3308 H3300 0.929 . S
C3308 C3309 1.377 . S
C3308 C3310 1.384 . S
C3309 C3308 1.377 . S
C3309 C3315 1.390 . S
C3310 H3301 0.930 . S
C3310 C3308 1.384 . S
C3310 C3311 1.372 . S
C3311 C3310 1.372 . S
C3311 C3312 1.400 . S
C3311 C3316 1.490 . S
C3312 H3302 0.930 . S
C3312 C3311 1.400 . S
C3312 C3315 1.386 . S
H3313 C3329 0.930 . S
H3314 C3330 0.931 . S
C3315 H3303 0.929 . S
C3315 C3309 1.390 . S
C3315 C3312 1.386 . S
C3316 C3311 1.490 . S
C3316 C3318 1.395 . S
C3316 C3319 1.403 . S
H3317 C3323 0.930 . S
C3318 H3304 0.930 . S
C3318 C3316 1.395 . S
C3318 C3321 1.403 . S
C3319 C3316 1.403 . S
C3319 C3320 1.524 . S
C3319 C3323 1.400 . S
C3320 H3305 0.960 . S
C3320 H3306 0.960 . S
C3320 H3307 0.960 . S
C3320 C3319 1.524 . S
C3321 C3318 1.403 . S
C3321 C3322 1.392 . S
C3321 C3325 1.495 . S
C3322 C3321 1.392 . S
C3322 C3323 1.385 . S
C3322 C3324 1.478 . S
C3323 H3317 0.930 . S
C3323 C3319 1.400 . S
C3323 C3322 1.385 . S
C3324 C3322 1.478 . S
C3324 C3326 1.381 . S
C3324 C3330 1.383 . S
C3325 C3321 1.495 . S
C3325 H3331 0.959 . S
C3325 H3332 0.961 . S
C3325 H3333 0.960 . S
C3326 C3324 1.381 . S
C3326 C3327 1.394 . S
C3326 H3334 0.930 . S
C3327 C3326 1.394 . S
C3327 C3328 1.383 . S
C3327 H3335 0.929 . S
C3328 C3327 1.383 . S
C3328 C3329 1.377 . S
C3329 H3313 0.930 . S
C3329 C3328 1.377 . S
C3329 C3330 1.379 . S
C3330 H3314 0.931 . S
C3330 C3324 1.383 . S
C3330 C3329 1.379 . S
H3331 C3325 0.959 . S
H3332 C3325 0.961 . S
H3333 C3325 0.960 . S
H3334 C3326 0.930 . S
H3335 C3327 0.929 . S
H3336 C3344 0.929 . S
H3337 C3346 0.930 . S
H3338 C3348 0.930 . S
H3339 C3351 0.929 . S
H3340 C3354 0.930 . S
H3341 C3356 0.960 . S
H3342 C3356 0.960 . S
H3343 C3356 0.960 . S
C3344 H3336 0.929 . S
C3344 C3345 1.377 . S
C3344 C3346 1.384 . S
C3345 C3344 1.377 . S
C3345 C3351 1.390 . S
C3346 H3337 0.930 . S
C3346 C3344 1.384 . S
C3346 C3347 1.372 . S
C3347 C3346 1.372 . S
C3347 C3348 1.400 . S
C3347 C3352 1.490 . S
C3348 H3338 0.930 . S
C3348 C3347 1.400 . S
C3348 C3351 1.386 . S
H3349 C3365 0.930 . S
H3350 C3366 0.931 . S
C3351 H3339 0.929 . S
C3351 C3345 1.390 . S
C3351 C3348 1.386 . S
C3352 C3347 1.490 . S
C3352 C3354 1.395 . S
C3352 C3355 1.403 . S
H3353 C3359 0.930 . S
C3354 H3340 0.930 . S
C3354 C3352 1.395 . S
C3354 C3357 1.403 . S
C3355 C3352 1.403 . S
C3355 C3356 1.524 . S
C3355 C3359 1.400 . S
C3356 H3341 0.960 . S
C3356 H3342 0.960 . S
C3356 H3343 0.960 . S
C3356 C3355 1.524 . S
C3357 C3354 1.403 . S
C3357 C3358 1.392 . S
C3357 C3361 1.495 . S
C3358 C3357 1.392 . S
C3358 C3359 1.385 . S
C3358 C3360 1.478 . S
C3359 H3353 0.930 . S
C3359 C3355 1.400 . S
C3359 C3358 1.385 . S
C3360 C3358 1.478 . S
C3360 C3362 1.381 . S
C3360 C3366 1.383 . S
C3361 C3357 1.495 . S
C3361 H3367 0.959 . S
C3361 H3368 0.961 . S
C3361 H3369 0.960 . S
C3362 C3360 1.381 . S
C3362 C3363 1.394 . S
C3362 H3370 0.930 . S
C3363 C3362 1.394 . S
C3363 C3364 1.383 . S
C3363 H3371 0.929 . S
C3364 C3363 1.383 . S
C3364 C3365 1.377 . S
C3365 H3349 0.930 . S
C3365 C3364 1.377 . S
C3365 C3366 1.379 . S
C3366 H3350 0.931 . S
C3366 C3360 1.383 . S
C3366 C3365 1.379 . S
H3367 C3361 0.959 . S
H3368 C3361 0.961 . S
H3369 C3361 0.960 . S
H3370 C3362 0.930 . S
H3371 C3363 0.929 . S
H3372 C3380 0.929 . S
H3373 C3382 0.930 . S
H3374 C3384 0.930 . S
H3375 C3387 0.929 . S
H3376 C3390 0.930 . S
H3377 C3392 0.960 . S
H3378 C3392 0.960 . S
H3379 C3392 0.960 . S
C3380 H3372 0.929 . S
C3380 C3381 1.377 . S
C3380 C3382 1.384 . S
C3381 C3380 1.377 . S
C3381 C3387 1.390 . S
C3382 H3373 0.930 . S
C3382 C3380 1.384 . S
C3382 C3383 1.372 . S
C3383 C3382 1.372 . S
C3383 C3384 1.400 . S
C3383 C3388 1.490 . S
C3384 H3374 0.930 . S
C3384 C3383 1.400 . S
C3384 C3387 1.386 . S
H3385 C3401 0.930 . S
H3386 C3402 0.931 . S
C3387 H3375 0.929 . S
C3387 C3381 1.390 . S
C3387 C3384 1.386 . S
C3388 C3383 1.490 . S
C3388 C3390 1.395 . S
C3388 C3391 1.403 . S
H3389 C3395 0.930 . S
C3390 H3376 0.930 . S
C3390 C3388 1.395 . S
C3390 C3393 1.403 . S
C3391 C3388 1.403 . S
C3391 C3392 1.524 . S
C3391 C3395 1.400 . S
C3392 H3377 0.960 . S
C3392 H3378 0.960 . S
C3392 H3379 0.960 . S
C3392 C3391 1.524 . S
C3393 C3390 1.403 . S
C3393 C3394 1.392 . S
C3393 C3397 1.495 . S
C3394 C3393 1.392 . S
C3394 C3395 1.385 . S
C3394 C3396 1.478 . S
C3395 H3389 0.930 . S
C3395 C3391 1.400 . S
C3395 C3394 1.385 . S
C3396 C3394 1.478 . S
C3396 C3398 1.381 . S
C3396 C3402 1.383 . S
C3397 C3393 1.495 . S
C3397 H3403 0.959 . S
C3397 H3404 0.961 . S
C3397 H3405 0.960 . S
C3398 C3396 1.381 . S
C3398 C3399 1.394 . S
C3398 H3406 0.930 . S
C3399 C3398 1.394 . S
C3399 C3400 1.383 . S
C3399 H3407 0.929 . S
C3400 C3399 1.383 . S
C3400 C3401 1.377 . S
C3401 H3385 0.930 . S
C3401 C3400 1.377 . S
C3401 C3402 1.379 . S
C3402 H3386 0.931 . S
C3402 C3396 1.383 . S
C3402 C3401 1.379 . S
H3403 C3397 0.959 . S
H3404 C3397 0.961 . S
H3405 C3397 0.960 . S
H3406 C3398 0.930 . S
H3407 C3399 0.929 . S
H3408 C3416 0.929 . S
H3409 C3418 0.930 . S
H3410 C3420 0.930 . S
H3411 C3423 0.929 . S
H3412 C3426 0.930 . S
H3413 C3428 0.960 . S
H3414 C3428 0.960 . S
H3415 C3428 0.960 . S
C3416 H3408 0.929 . S
C3416 C3417 1.377 . S
C3416 C3418 1.384 . S
C3417 C3416 1.377 . S
C3417 C3423 1.390 . S
C3418 H3409 0.930 . S
C3418 C3416 1.384 . S
C3418 C3419 1.372 . S
C3419 C3418 1.372 . S
C3419 C3420 1.400 . S
C3419 C3424 1.490 . S
C3420 H3410 0.930 . S
C3420 C3419 1.400 . S
C3420 C3423 1.386 . S
H3421 C3437 0.930 . S
H3422 C3438 0.931 . S
C3423 H3411 0.929 . S
C3423 C3417 1.390 . S
C3423 C3420 1.386 . S
C3424 C3419 1.490 . S
C3424 C3426 1.395 . S
C3424 C3427 1.403 . S
H3425 C3431 0.930 . S
C3426 H3412 0.930 . S
C3426 C3424 1.395 . S
C3426 C3429 1.403 . S
C3427 C3424 1.403 . S
C3427 C3428 1.524 . S
C3427 C3431 1.400 . S
C3428 H3413 0.960 . S
C3428 H3414 0.960 . S
C3428 H3415 0.960 . S
C3428 C3427 1.524 . S
C3429 C3426 1.403 . S
C3429 C3430 1.392 . S
C3429 C3433 1.495 . S
C3430 C3429 1.392 . S
C3430 C3431 1.385 . S
C3430 C3432 1.478 . S
C3431 H3425 0.930 . S
C3431 C3427 1.400 . S
C3431 C3430 1.385 . S
C3432 C3430 1.478 . S
C3432 C3434 1.381 . S
C3432 C3438 1.383 . S
C3433 C3429 1.495 . S
C3433 H3439 0.959 . S
C3433 H3440 0.961 . S
C3433 H3441 0.960 . S
C3434 C3432 1.381 . S
C3434 C3435 1.394 . S
C3434 H3442 0.930 . S
C3435 C3434 1.394 . S
C3435 C3436 1.383 . S
C3435 H3443 0.929 . S
C3436 C3435 1.383 . S
C3436 C3437 1.377 . S
C3437 H3421 0.930 . S
C3437 C3436 1.377 . S
C3437 C3438 1.379 . S
C3438 H3422 0.931 . S
C3438 C3432 1.383 . S
C3438 C3437 1.379 . S
H3439 C3433 0.959 . S
H3440 C3433 0.961 . S
H3441 C3433 0.960 . S
H3442 C3434 0.930 . S
H3443 C3435 0.929 . S
H3444 C3452 0.929 . S
H3445 C3454 0.930 . S
H3446 C3456 0.930 . S
H3447 C3459 0.929 . S
H3448 C3462 0.930 . S
H3449 C3464 0.960 . S
H3450 C3464 0.960 . S
H3451 C3464 0.960 . S
C3452 H3444 0.929 . S
C3452 C3453 1.377 . S
C3452 C3454 1.384 . S
C3453 C3452 1.377 . S
C3453 C3459 1.390 . S
C3454 H3445 0.930 . S
C3454 C3452 1.384 . S
C3454 C3455 1.372 . S
C3455 C3454 1.372 . S
C3455 C3456 1.400 . S
C3455 C3460 1.490 . S
C3456 H3446 0.930 . S
C3456 C3455 1.400 . S
C3456 C3459 1.386 . S
H3457 C3473 0.930 . S
H3458 C3474 0.931 . S
C3459 H3447 0.929 . S
C3459 C3453 1.390 . S
C3459 C3456 1.386 . S
C3460 C3455 1.490 . S
C3460 C3462 1.395 . S
C3460 C3463 1.403 . S
H3461 C3467 0.930 . S
C3462 H3448 0.930 . S
C3462 C3460 1.395 . S
C3462 C3465 1.403 . S
C3463 C3460 1.403 . S
C3463 C3464 1.524 . S
C3463 C3467 1.400 . S
C3464 H3449 0.960 . S
C3464 H3450 0.960 . S
C3464 H3451 0.960 . S
C3464 C3463 1.524 . S
C3465 C3462 1.403 . S
C3465 C3466 1.392 . S
C3465 C3469 1.495 . S
C3466 C3465 1.392 . S
C3466 C3467 1.385 . S
C3466 C3468 1.478 . S
C3467 H3461 0.930 . S
C3467 C3463 1.400 . S
C3467 C3466 1.385 . S
C3468 C3466 1.478 . S
C3468 C3470 1.381 . S
C3468 C3474 1.383 . S
C3469 C3465 1.495 . S
C3469 H3475 0.959 . S
C3469 H3476 0.961 . S
C3469 H3477 0.960 . S
C3470 C3468 1.381 . S
C3470 C3471 1.394 . S
C3470 H3478 0.930 . S
C3471 C3470 1.394 . S
C3471 C3472 1.383 . S
C3471 H3479 0.929 . S
C3472 C3471 1.383 . S
C3472 C3473 1.377 . S
C3473 H3457 0.930 . S
C3473 C3472 1.377 . S
C3473 C3474 1.379 . S
C3474 H3458 0.931 . S
C3474 C3468 1.383 . S
C3474 C3473 1.379 . S
H3475 C3469 0.959 . S
H3476 C3469 0.961 . S
H3477 C3469 0.960 . S
H3478 C3470 0.930 . S
H3479 C3471 0.929 . S
H3480 C3488 0.929 . S
H3481 C3490 0.930 . S
H3482 C3492 0.930 . S
H3483 C3495 0.929 . S
H3484 C3498 0.930 . S
H3485 C3500 0.960 . S
H3486 C3500 0.960 . S
H3487 C3500 0.960 . S
C3488 H3480 0.929 . S
C3488 C3489 1.377 . S
C3488 C3490 1.384 . S
C3489 C3488 1.377 . S
C3489 C3495 1.390 . S
C3490 H3481 0.930 . S
C3490 C3488 1.384 . S
C3490 C3491 1.372 . S
C3491 C3490 1.372 . S
C3491 C3492 1.400 . S
C3491 C3496 1.490 . S
C3492 H3482 0.930 . S
C3492 C3491 1.400 . S
C3492 C3495 1.386 . S
H3493 C3509 0.930 . S
H3494 C3510 0.931 . S
C3495 H3483 0.929 . S
C3495 C3489 1.390 . S
C3495 C3492 1.386 . S
C3496 C3491 1.490 . S
C3496 C3498 1.395 . S
C3496 C3499 1.403 . S
H3497 C3503 0.930 . S
C3498 H3484 0.930 . S
C3498 C3496 1.395 . S
C3498 C3501 1.403 . S
C3499 C3496 1.403 . S
C3499 C3500 1.524 . S
C3499 C3503 1.400 . S
C3500 H3485 0.960 . S
C3500 H3486 0.960 . S
C3500 H3487 0.960 . S
C3500 C3499 1.524 . S
C3501 C3498 1.403 . S
C3501 C3502 1.392 . S
C3501 C3505 1.495 . S
C3502 C3501 1.392 . S
C3502 C3503 1.385 . S
C3502 C3504 1.478 . S
C3503 H3497 0.930 . S
C3503 C3499 1.400 . S
C3503 C3502 1.385 . S
C3504 C3502 1.478 . S
C3504 C3506 1.381 . S
C3504 C3510 1.383 . S
C3505 C3501 1.495 . S
C3505 H3511 0.959 . S
C3505 H3512 0.961 . S
C3505 H3513 0.960 . S
C3506 C3504 1.381 . S
C3506 C3507 1.394 . S
C3506 H3514 0.930 . S
C3507 C3506 1.394 . S
C3507 C3508 1.383 . S
C3507 H3515 0.929 . S
C3508 C3507 1.383 . S
C3508 C3509 1.377 . S
C3509 H3493 0.930 . S
C3509 C3508 1.377 . S
C3509 C3510 1.379 . S
C3510 H3494 0.931 . S
C3510 C3504 1.383 . S
C3510 C3509 1.379 . S
H3511 C3505 0.959 . S
H3512 C3505 0.961 . S
H3513 C3505 0.960 . S
H3514 C3506 0.930 . S
H3515 C3507 0.929 . S
H3516 C3524 0.929 . S
H3517 C3526 0.930 . S
H3518 C3528 0.930 . S
H3519 C3531 0.929 . S
H3520 C3534 0.930 . S
H3521 C3536 0.960 . S
H3522 C3536 0.960 . S
H3523 C3536 0.960 . S
C3524 H3516 0.929 . S
C3524 C3525 1.377 . S
C3524 C3526 1.384 . S
C3525 C3524 1.377 . S
C3525 C3531 1.390 . S
C3526 H3517 0.930 . S
C3526 C3524 1.384 . S
C3526 C3527 1.372 . S
C3527 C3526 1.372 . S
C3527 C3528 1.400 . S
C3527 C3532 1.490 . S
C3528 H3518 0.930 . S
C3528 C3527 1.400 . S
C3528 C3531 1.386 . S
H3529 C3545 0.930 . S
H3530 C3546 0.931 . S
C3531 H3519 0.929 . S
C3531 C3525 1.390 . S
C3531 C3528 1.386 . S
C3532 C3527 1.490 . S
C3532 C3534 1.395 . S
C3532 C3535 1.403 . S
H3533 C3539 0.930 . S
C3534 H3520 0.930 . S
C3534 C3532 1.395 . S
C3534 C3537 1.403 . S
C3535 C3532 1.403 . S
C3535 C3536 1.524 . S
C3535 C3539 1.400 . S
C3536 H3521 0.960 . S
C3536 H3522 0.960 . S
C3536 H3523 0.960 . S
C3536 C3535 1.524 . S
C3537 C3534 1.403 . S
C3537 C3538 1.392 . S
C3537 C3541 1.495 . S
C3538 C3537 1.392 . S
C3538 C3539 1.385 . S
C3538 C3540 1.478 . S
C3539 H3533 0.930 . S
C3539 C3535 1.400 . S
C3539 C3538 1.385 . S
C3540 C3538 1.478 . S
C3540 C3542 1.381 . S
C3540 C3546 1.383 . S
C3541 C3537 1.495 . S
C3541 H3547 0.959 . S
C3541 H3548 0.961 . S
C3541 H3549 0.960 . S
C3542 C3540 1.381 . S
C3542 C3543 1.394 . S
C3542 H3550 0.930 . S
C3543 C3542 1.394 . S
C3543 C3544 1.383 . S
C3543 H3551 0.929 . S
C3544 C3543 1.383 . S
C3544 C3545 1.377 . S
C3545 H3529 0.930 . S
C3545 C3544 1.377 . S
C3545 C3546 1.379 . S
C3546 H3530 0.931 . S
C3546 C3540 1.383 . S
C3546 C3545 1.379 . S
H3547 C3541 0.959 . S
H3548 C3541 0.961 . S
H3549 C3541 0.960 . S
H3550 C3542 0.930 . S
H3551 C3543 0.929 . S
H3552 C3560 0.929 . S
H3553 C3562 0.930 . S
H3554 C3564 0.930 . S
H3555 C3567 0.929 . S
H3556 C3570 0.930 . S
H3557 C3572 0.960 . S
H3558 C3572 0.960 . S
H3559 C3572 0.960 . S
C3560 H3552 0.929 . S
C3560 C3561 1.377 . S
C3560 C3562 1.384 . S
C3561 C3560 1.377 . S
C3561 C3567 1.390 . S
C3562 H3553 0.930 . S
C3562 C3560 1.384 . S
C3562 C3563 1.372 . S
C3563 C3562 1.372 . S
C3563 C3564 1.400 . S
C3563 C3568 1.490 . S
C3564 H3554 0.930 . S
C3564 C3563 1.400 . S
C3564 C3567 1.386 . S
H3565 C3581 0.930 . S
H3566 C3582 0.931 . S
C3567 H3555 0.929 . S
C3567 C3561 1.390 . S
C3567 C3564 1.386 . S
C3568 C3563 1.490 . S
C3568 C3570 1.395 . S
C3568 C3571 1.403 . S
H3569 C3575 0.930 . S
C3570 H3556 0.930 . S
C3570 C3568 1.395 . S
C3570 C3573 1.403 . S
C3571 C3568 1.403 . S
C3571 C3572 1.524 . S
C3571 C3575 1.400 . S
C3572 H3557 0.960 . S
C3572 H3558 0.960 . S
C3572 H3559 0.960 . S
C3572 C3571 1.524 . S
C3573 C3570 1.403 . S
C3573 C3574 1.392 . S
C3573 C3577 1.495 . S
C3574 C3573 1.392 . S
C3574 C3575 1.385 . S
C3574 C3576 1.478 . S
C3575 H3569 0.930 . S
C3575 C3571 1.400 . S
C3575 C3574 1.385 . S
C3576 C3574 1.478 . S
C3576 C3578 1.381 . S
C3576 C3582 1.383 . S
C3577 C3573 1.495 . S
C3577 H3583 0.959 . S
C3577 H3584 0.961 . S
C3577 H3585 0.960 . S
C3578 C3576 1.381 . S
C3578 C3579 1.394 . S
C3578 H3586 0.930 . S
C3579 C3578 1.394 . S
C3579 C3580 1.383 . S
C3579 H3587 0.929 . S
C3580 C3579 1.383 . S
C3580 C3581 1.377 . S
C3581 H3565 0.930 . S
C3581 C3580 1.377 . S
C3581 C3582 1.379 . S
C3582 H3566 0.931 . S
C3582 C3576 1.383 . S
C3582 C3581 1.379 . S
H3583 C3577 0.959 . S
H3584 C3577 0.961 . S
H3585 C3577 0.960 . S
H3586 C3578 0.930 . S
H3587 C3579 0.929 . S
H3588 C3596 0.929 . S
H3589 C3598 0.930 . S
H3590 C3600 0.930 . S
H3591 C3603 0.929 . S
H3592 C3606 0.930 . S
H3593 C3608 0.960 . S
H3594 C3608 0.960 . S
H3595 C3608 0.960 . S
C3596 H3588 0.929 . S
C3596 C3597 1.377 . S
C3596 C3598 1.384 . S
C3597 C3596 1.377 . S
C3597 C3603 1.390 . S
C3598 H3589 0.930 . S
C3598 C3596 1.384 . S
C3598 C3599 1.372 . S
C3599 C3598 1.372 . S
C3599 C3600 1.400 . S
C3599 C3604 1.490 . S
C3600 H3590 0.930 . S
C3600 C3599 1.400 . S
C3600 C3603 1.386 . S
H3601 C3617 0.930 . S
H3602 C3618 0.931 . S
C3603 H3591 0.929 . S
C3603 C3597 1.390 . S
C3603 C3600 1.386 . S
C3604 C3599 1.490 . S
C3604 C3606 1.395 . S
C3604 C3607 1.403 . S
H3605 C3611 0.930 . S
C3606 H3592 0.930 . S
C3606 C3604 1.395 . S
C3606 C3609 1.403 . S
C3607 C3604 1.403 . S
C3607 C3608 1.524 . S
C3607 C3611 1.400 . S
C3608 H3593 0.960 . S
C3608 H3594 0.960 . S
C3608 H3595 0.960 . S
C3608 C3607 1.524 . S
C3609 C3606 1.403 . S
C3609 C3610 1.392 . S
C3609 C3613 1.495 . S
C3610 C3609 1.392 . S
C3610 C3611 1.385 . S
C3610 C3612 1.478 . S
C3611 H3605 0.930 . S
C3611 C3607 1.400 . S
C3611 C3610 1.385 . S
C3612 C3610 1.478 . S
C3612 C3614 1.381 . S
C3612 C3618 1.383 . S
C3613 C3609 1.495 . S
C3613 H3619 0.959 . S
C3613 H3620 0.961 . S
C3613 H3621 0.960 . S
C3614 C3612 1.381 . S
C3614 C3615 1.394 . S
C3614 H3622 0.930 . S
C3615 C3614 1.394 . S
C3615 C3616 1.383 . S
C3615 H3623 0.929 . S
C3616 C3615 1.383 . S
C3616 C3617 1.377 . S
C3617 H3601 0.930 . S
C3617 C3616 1.377 . S
C3617 C3618 1.379 . S
C3618 H3602 0.931 . S
C3618 C3612 1.383 . S
C3618 C3617 1.379 . S
H3619 C3613 0.959 . S
H3620 C3613 0.961 . S
H3621 C3613 0.960 . S
H3622 C3614 0.930 . S
H3623 C3615 0.929 . S
H3624 C3632 0.929 . S
H3625 C3634 0.930 . S
H3626 C3636 0.930 . S
H3627 C3639 0.929 . S
H3628 C3642 0.930 . S
H3629 C3644 0.960 . S
H3630 C3644 0.960 . S
H3631 C3644 0.960 . S
C3632 H3624 0.929 . S
C3632 C3633 1.377 . S
C3632 C3634 1.384 . S
C3633 C3632 1.377 . S
C3633 C3639 1.390 . S
C3634 H3625 0.930 . S
C3634 C3632 1.384 . S
C3634 C3635 1.372 . S
C3635 C3634 1.372 . S
C3635 C3636 1.400 . S
C3635 C3640 1.490 . S
C3636 H3626 0.930 . S
C3636 C3635 1.400 . S
C3636 C3639 1.386 . S
H3637 C3653 0.930 . S
H3638 C3654 0.931 . S
C3639 H3627 0.929 . S
C3639 C3633 1.390 . S
C3639 C3636 1.386 . S
C3640 C3635 1.490 . S
C3640 C3642 1.395 . S
C3640 C3643 1.403 . S
H3641 C3647 0.930 . S
C3642 H3628 0.930 . S
C3642 C3640 1.395 . S
C3642 C3645 1.403 . S
C3643 C3640 1.403 . S
C3643 C3644 1.524 . S
C3643 C3647 1.400 . S
C3644 H3629 0.960 . S
C3644 H3630 0.960 . S
C3644 H3631 0.960 . S
C3644 C3643 1.524 . S
C3645 C3642 1.403 . S
C3645 C3646 1.392 . S
C3645 C3649 1.495 . S
C3646 C3645 1.392 . S
C3646 C3647 1.385 . S
C3646 C3648 1.478 . S
C3647 H3641 0.930 . S
C3647 C3643 1.400 . S
C3647 C3646 1.385 . S
C3648 C3646 1.478 . S
C3648 C3650 1.381 . S
C3648 C3654 1.383 . S
C3649 C3645 1.495 . S
C3649 H3655 0.959 . S
C3649 H3656 0.961 . S
C3649 H3657 0.960 . S
C3650 C3648 1.381 . S
C3650 C3651 1.394 . S
C3650 H3658 0.930 . S
C3651 C3650 1.394 . S
C3651 C3652 1.383 . S
C3651 H3659 0.929 . S
C3652 C3651 1.383 . S
C3652 C3653 1.377 . S
C3653 H3637 0.930 . S
C3653 C3652 1.377 . S
C3653 C3654 1.379 . S
C3654 H3638 0.931 . S
C3654 C3648 1.383 . S
C3654 C3653 1.379 . S
H3655 C3649 0.959 . S
H3656 C3649 0.961 . S
H3657 C3649 0.960 . S
H3658 C3650 0.930 . S
H3659 C3651 0.929 . S
H3660 C3668 0.929 . S
H3661 C3670 0.930 . S
H3662 C3672 0.930 . S
H3663 C3675 0.929 . S
H3664 C3678 0.930 . S
H3665 C3680 0.960 . S
H3666 C3680 0.960 . S
H3667 C3680 0.960 . S
C3668 H3660 0.929 . S
C3668 C3669 1.377 . S
C3668 C3670 1.384 . S
C3669 C3668 1.377 . S
C3669 C3675 1.390 . S
C3670 H3661 0.930 . S
C3670 C3668 1.384 . S
C3670 C3671 1.372 . S
C3671 C3670 1.372 . S
C3671 C3672 1.400 . S
C3671 C3676 1.490 . S
C3672 H3662 0.930 . S
C3672 C3671 1.400 . S
C3672 C3675 1.386 . S
H3673 C3689 0.930 . S
H3674 C3690 0.931 . S
C3675 H3663 0.929 . S
C3675 C3669 1.390 . S
C3675 C3672 1.386 . S
C3676 C3671 1.490 . S
C3676 C3678 1.395 . S
C3676 C3679 1.403 . S
H3677 C3683 0.930 . S
C3678 H3664 0.930 . S
C3678 C3676 1.395 . S
C3678 C3681 1.403 . S
C3679 C3676 1.403 . S
C3679 C3680 1.524 . S
C3679 C3683 1.400 . S
C3680 H3665 0.960 . S
C3680 H3666 0.960 . S
C3680 H3667 0.960 . S
C3680 C3679 1.524 . S
C3681 C3678 1.403 . S
C3681 C3682 1.392 . S
C3681 C3685 1.495 . S
C3682 C3681 1.392 . S
C3682 C3683 1.385 . S
C3682 C3684 1.478 . S
C3683 H3677 0.930 . S
C3683 C3679 1.400 . S
C3683 C3682 1.385 . S
C3684 C3682 1.478 . S
C3684 C3686 1.381 . S
C3684 C3690 1.383 . S
C3685 C3681 1.495 . S
C3685 H3691 0.959 . S
C3685 H3692 0.961 . S
C3685 H3693 0.960 . S
C3686 C3684 1.381 . S
C3686 C3687 1.394 . S
C3686 H3694 0.930 . S
C3687 C3686 1.394 . S
C3687 C3688 1.383 . S
C3687 H3695 0.929 . S
C3688 C3687 1.383 . S
C3688 C3689 1.377 . S
C3689 H3673 0.930 . S
C3689 C3688 1.377 . S
C3689 C3690 1.379 . S
C3690 H3674 0.931 . S
C3690 C3684 1.383 . S
C3690 C3689 1.379 . S
H3691 C3685 0.959 . S
H3692 C3685 0.961 . S
H3693 C3685 0.960 . S
H3694 C3686 0.930 . S
H3695 C3687 0.929 . S
H3696 C3704 0.929 . S
H3697 C3706 0.930 . S
H3698 C3708 0.930 . S
H3699 C3711 0.929 . S
H3700 C3714 0.930 . S
H3701 C3716 0.960 . S
H3702 C3716 0.960 . S
H3703 C3716 0.960 . S
C3704 H3696 0.929 . S
C3704 C3705 1.377 . S
C3704 C3706 1.384 . S
C3705 C3704 1.377 . S
C3705 C3711 1.390 . S
C3706 H3697 0.930 . S
C3706 C3704 1.384 . S
C3706 C3707 1.372 . S
C3707 C3706 1.372 . S
C3707 C3708 1.400 . S
C3707 C3712 1.490 . S
C3708 H3698 0.930 . S
C3708 C3707 1.400 . S
C3708 C3711 1.386 . S
H3709 C3725 0.930 . S
H3710 C3726 0.931 . S
C3711 H3699 0.929 . S
C3711 C3705 1.390 . S
C3711 C3708 1.386 . S
C3712 C3707 1.490 . S
C3712 C3714 1.395 . S
C3712 C3715 1.403 . S
H3713 C3719 0.930 . S
C3714 H3700 0.930 . S
C3714 C3712 1.395 . S
C3714 C3717 1.403 . S
C3715 C3712 1.403 . S
C3715 C3716 1.524 . S
C3715 C3719 1.400 . S
C3716 H3701 0.960 . S
C3716 H3702 0.960 . S
C3716 H3703 0.960 . S
C3716 C3715 1.524 . S
C3717 C3714 1.403 . S
C3717 C3718 1.392 . S
C3717 C3721 1.495 . S
C3718 C3717 1.392 . S
C3718 C3719 1.385 . S
C3718 C3720 1.478 . S
C3719 H3713 0.930 . S
C3719 C3715 1.400 . S
C3719 C3718 1.385 . S
C3720 C3718 1.478 . S
C3720 C3722 1.381 . S
C3720 C3726 1.383 . S
C3721 C3717 1.495 . S
C3721 H3727 0.959 . S
C3721 H3728 0.961 . S
C3721 H3729 0.960 . S
C3722 C3720 1.381 . S
C3722 C3723 1.394 . S
C3722 H3730 0.930 . S
C3723 C3722 1.394 . S
C3723 C3724 1.383 . S
C3723 H3731 0.929 . S
C3724 C3723 1.383 . S
C3724 C3725 1.377 . S
C3725 H3709 0.930 . S
C3725 C3724 1.377 . S
C3725 C3726 1.379 . S
C3726 H3710 0.931 . S
C3726 C3720 1.383 . S
C3726 C3725 1.379 . S
H3727 C3721 0.959 . S
H3728 C3721 0.961 . S
H3729 C3721 0.960 . S
H3730 C3722 0.930 . S
H3731 C3723 0.929 . S
H3732 C3740 0.929 . S
H3733 C3742 0.930 . S
H3734 C3744 0.930 . S
H3735 C3747 0.929 . S
H3736 C3750 0.930 . S
H3737 C3752 0.960 . S
H3738 C3752 0.960 . S
H3739 C3752 0.960 . S
C3740 H3732 0.929 . S
C3740 C3741 1.377 . S
C3740 C3742 1.384 . S
C3741 C3740 1.377 . S
C3741 C3747 1.390 . S
C3742 H3733 0.930 . S
C3742 C3740 1.384 . S
C3742 C3743 1.372 . S
C3743 C3742 1.372 . S
C3743 C3744 1.400 . S
C3743 C3748 1.490 . S
C3744 H3734 0.930 . S
C3744 C3743 1.400 . S
C3744 C3747 1.386 . S
H3745 C3761 0.930 . S
H3746 C3762 0.931 . S
C3747 H3735 0.929 . S
C3747 C3741 1.390 . S
C3747 C3744 1.386 . S
C3748 C3743 1.490 . S
C3748 C3750 1.395 . S
C3748 C3751 1.403 . S
H3749 C3755 0.930 . S
C3750 H3736 0.930 . S
C3750 C3748 1.395 . S
C3750 C3753 1.403 . S
C3751 C3748 1.403 . S
C3751 C3752 1.524 . S
C3751 C3755 1.400 . S
C3752 H3737 0.960 . S
C3752 H3738 0.960 . S
C3752 H3739 0.960 . S
C3752 C3751 1.524 . S
C3753 C3750 1.403 . S
C3753 C3754 1.392 . S
C3753 C3757 1.495 . S
C3754 C3753 1.392 . S
C3754 C3755 1.385 . S
C3754 C3756 1.478 . S
C3755 H3749 0.930 . S
C3755 C3751 1.400 . S
C3755 C3754 1.385 . S
C3756 C3754 1.478 . S
C3756 C3758 1.381 . S
C3756 C3762 1.383 . S
C3757 C3753 1.495 . S
C3757 H3763 0.959 . S
C3757 H3764 0.961 . S
C3757 H3765 0.960 . S
C3758 C3756 1.381 . S
C3758 C3759 1.394 . S
C3758 H3766 0.930 . S
C3759 C3758 1.394 . S
C3759 C3760 1.383 . S
C3759 H3767 0.929 . S
C3760 C3759 1.383 . S
C3760 C3761 1.377 . S
C3761 H3745 0.930 . S
C3761 C3760 1.377 . S
C3761 C3762 1.379 . S
C3762 H3746 0.931 . S
C3762 C3756 1.383 . S
C3762 C3761 1.379 . S
H3763 C3757 0.959 . S
H3764 C3757 0.961 . S
H3765 C3757 0.960 . S
H3766 C3758 0.930 . S
H3767 C3759 0.929 . S
H3768 C3776 0.929 . S
H3769 C3778 0.930 . S
H3770 C3780 0.930 . S
H3771 C3783 0.929 . S
H3772 C3786 0.930 . S
H3773 C3788 0.960 . S
H3774 C3788 0.960 . S
H3775 C3788 0.960 . S
C3776 H3768 0.929 . S
C3776 C3777 1.377 . S
C3776 C3778 1.384 . S
C3777 C3776 1.377 . S
C3777 C3783 1.390 . S
C3778 H3769 0.930 . S
C3778 C3776 1.384 . S
C3778 C3779 1.372 . S
C3779 C3778 1.372 . S
C3779 C3780 1.400 . S
C3779 C3784 1.490 . S
C3780 H3770 0.930 . S
C3780 C3779 1.400 . S
C3780 C3783 1.386 . S
H3781 C3797 0.930 . S
H3782 C3798 0.931 . S
C3783 H3771 0.929 . S
C3783 C3777 1.390 . S
C3783 C3780 1.386 . S
C3784 C3779 1.490 . S
C3784 C3786 1.395 . S
C3784 C3787 1.403 . S
H3785 C3791 0.930 . S
C3786 H3772 0.930 . S
C3786 C3784 1.395 . S
C3786 C3789 1.403 . S
C3787 C3784 1.403 . S
C3787 C3788 1.524 . S
C3787 C3791 1.400 . S
C3788 H3773 0.960 . S
C3788 H3774 0.960 . S
C3788 H3775 0.960 . S
C3788 C3787 1.524 . S
C3789 C3786 1.403 . S
C3789 C3790 1.392 . S
C3789 C3793 1.495 . S
C3790 C3789 1.392 . S
C3790 C3791 1.385 . S
C3790 C3792 1.478 . S
C3791 H3785 0.930 . S
C3791 C3787 1.400 . S
C3791 C3790 1.385 . S
C3792 C3790 1.478 . S
C3792 C3794 1.381 . S
C3792 C3798 1.383 . S
C3793 C3789 1.495 . S
C3793 H3799 0.959 . S
C3793 H3800 0.961 . S
C3793 H3801 0.960 . S
C3794 C3792 1.381 . S
C3794 C3795 1.394 . S
C3794 H3802 0.930 . S
C3795 C3794 1.394 . S
C3795 C3796 1.383 . S
C3795 H3803 0.929 . S
C3796 C3795 1.383 . S
C3796 C3797 1.377 . S
C3797 H3781 0.930 . S
C3797 C3796 1.377 . S
C3797 C3798 1.379 . S
C3798 H3782 0.931 . S
C3798 C3792 1.383 . S
C3798 C3797 1.379 . S
H3799 C3793 0.959 . S
H3800 C3793 0.961 . S
H3801 C3793 0.960 . S
H3802 C3794 0.930 . S
H3803 C3795 0.929 . S
H3804 C3812 0.929 . S
H3805 C3814 0.930 . S
H3806 C3816 0.930 . S
H3807 C3819 0.929 . S
H3808 C3822 0.930 . S
H3809 C3824 0.960 . S
H3810 C3824 0.960 . S
H3811 C3824 0.960 . S
C3812 H3804 0.929 . S
C3812 C3813 1.377 . S
C3812 C3814 1.384 . S
C3813 C3812 1.377 . S
C3813 C3819 1.390 . S
C3814 H3805 0.930 . S
C3814 C3812 1.384 . S
C3814 C3815 1.372 . S
C3815 C3814 1.372 . S
C3815 C3816 1.400 . S
C3815 C3820 1.490 . S
C3816 H3806 0.930 . S
C3816 C3815 1.400 . S
C3816 C3819 1.386 . S
H3817 C3833 0.930 . S
H3818 C3834 0.931 . S
C3819 H3807 0.929 . S
C3819 C3813 1.390 . S
C3819 C3816 1.386 . S
C3820 C3815 1.490 . S
C3820 C3822 1.395 . S
C3820 C3823 1.403 . S
H3821 C3827 0.930 . S
C3822 H3808 0.930 . S
C3822 C3820 1.395 . S
C3822 C3825 1.403 . S
C3823 C3820 1.403 . S
C3823 C3824 1.524 . S
C3823 C3827 1.400 . S
C3824 H3809 0.960 . S
C3824 H3810 0.960 . S
C3824 H3811 0.960 . S
C3824 C3823 1.524 . S
C3825 C3822 1.403 . S
C3825 C3826 1.392 . S
C3825 C3829 1.495 . S
C3826 C3825 1.392 . S
C3826 C3827 1.385 . S
C3826 C3828 1.478 . S
C3827 H3821 0.930 . S
C3827 C3823 1.400 . S
C3827 C3826 1.385 . S
C3828 C3826 1.478 . S
C3828 C3830 1.381 . S
C3828 C3834 1.383 . S
C3829 C3825 1.495 . S
C3829 H3835 0.959 . S
C3829 H3836 0.961 . S
C3829 H3837 0.960 . S
C3830 C3828 1.381 . S
C3830 C3831 1.394 . S
C3830 H3838 0.930 . S
C3831 C3830 1.394 . S
C3831 C3832 1.383 . S
C3831 H3839 0.929 . S
C3832 C3831 1.383 . S
C3832 C3833 1.377 . S
C3833 H3817 0.930 . S
C3833 C3832 1.377 . S
C3833 C3834 1.379 . S
C3834 H3818 0.931 . S
C3834 C3828 1.383 . S
C3834 C3833 1.379 . S
H3835 C3829 0.959 . S
H3836 C3829 0.961 . S
H3837 C3829 0.960 . S
H3838 C3830 0.930 . S
H3839 C3831 0.929 . S
H3840 C3848 0.929 . S
H3841 C3850 0.930 . S
H3842 C3852 0.930 . S
H3843 C3855 0.929 . S
H3844 C3858 0.930 . S
H3845 C3860 0.960 1_655 S
H3846 C3860 0.960 . S
H3847 C3860 0.960 . S
C3848 H3840 0.929 . S
C3848 C3849 1.377 . S
C3848 C3850 1.384 . S
C3849 C3848 1.377 . S
C3849 C3855 1.390 . S
C3850 H3841 0.930 . S
C3850 C3848 1.384 . S
C3850 C3851 1.372 . S
C3851 C3850 1.372 . S
C3851 C3852 1.400 . S
C3851 C3856 1.490 . S
C3852 H3842 0.930 . S
C3852 C3851 1.400 . S
C3852 C3855 1.386 . S
H3853 C3869 0.930 . S
H3854 C3870 0.931 . S
C3855 H3843 0.929 . S
C3855 C3849 1.390 . S
C3855 C3852 1.386 . S
C3856 C3851 1.490 . S
C3856 C3858 1.395 . S
C3856 C3859 1.403 . S
H3857 C3863 0.930 . S
C3858 H3844 0.930 . S
C3858 C3856 1.395 . S
C3858 C3861 1.403 1_455 S
C3859 C3856 1.403 . S
C3859 C3860 1.524 . S
C3859 C3863 1.400 1_455 S
C3860 H3845 0.960 1_455 S
C3860 H3846 0.960 . S
C3860 H3847 0.960 . S
C3860 C3859 1.524 . S
C3861 C3858 1.403 1_655 S
C3861 C3862 1.392 . S
C3861 C3865 1.495 . S
C3862 C3861 1.392 . S
C3862 C3863 1.385 . S
C3862 C3864 1.478 . S
C3863 H3857 0.930 . S
C3863 C3859 1.400 1_655 S
C3863 C3862 1.385 . S
C3864 C3862 1.478 . S
C3864 C3866 1.381 . S
C3864 C3870 1.383 . S
C3865 C3861 1.495 . S
C3865 H3871 0.959 1_655 S
C3865 H3872 0.961 . S
C3865 H3873 0.960 . S
C3866 C3864 1.381 . S
C3866 C3867 1.394 . S
C3866 H3874 0.930 . S
C3867 C3866 1.394 . S
C3867 C3868 1.383 . S
C3867 H3875 0.929 . S
C3868 C3867 1.383 . S
C3868 C3869 1.377 . S
C3869 H3853 0.930 . S
C3869 C3868 1.377 . S
C3869 C3870 1.379 . S
C3870 H3854 0.931 . S
C3870 C3864 1.383 . S
C3870 C3869 1.379 . S
H3871 C3865 0.959 1_455 S
H3872 C3865 0.961 . S
H3873 C3865 0.960 . S
H3874 C3866 0.930 . S
H3875 C3867 0.929 . S
H3876 C3884 0.929 . S
H3877 C3886 0.930 . S
H3878 C3888 0.927 1_455 S
H3879 C3891 0.929 . S
H3880 C3894 0.930 . S
H3881 C3896 0.960 . S
H3882 C3896 0.960 . S
H3883 C3896 0.960 . S
C3884 H3876 0.929 . S
C3884 C3885 1.377 . S
C3884 C3886 1.384 . S
C3885 C3884 1.377 . S
C3885 C3891 1.390 . S
C3886 H3877 0.930 . S
C3886 C3884 1.384 . S
C3886 C3887 1.372 . S
C3887 C3886 1.372 . S
C3887 C3888 1.400 . S
C3887 C3892 1.490 . S
C3888 H3878 0.927 1_655 S
C3888 C3887 1.400 . S
C3888 C3891 1.386 . S
H3889 C3905 0.930 . S
H3890 C3906 0.931 . S
C3891 H3879 0.929 . S
C3891 C3885 1.390 . S
C3891 C3888 1.386 . S
C3892 C3887 1.490 . S
C3892 C3894 1.395 . S
C3892 C3895 1.403 1_655 S
H3893 C3899 0.930 . S
C3894 H3880 0.930 . S
C3894 C3892 1.395 . S
C3894 C3897 1.403 . S
C3895 C3892 1.403 1_455 S
C3895 C3896 1.524 . S
C3895 C3899 1.400 . S
C3896 H3881 0.960 . S
C3896 H3882 0.960 . S
C3896 H3883 0.960 . S
C3896 C3895 1.524 . S
C3897 C3894 1.403 . S
C3897 C3898 1.392 1_655 S
C3897 C3901 1.495 . S
C3898 C3897 1.392 1_455 S
C3898 C3899 1.385 . S
C3898 C3900 1.478 . S
C3899 H3893 0.930 . S
C3899 C3895 1.400 . S
C3899 C3898 1.385 . S
C3900 C3898 1.478 . S
C3900 C3902 1.381 . S
C3900 C3906 1.383 . S
C3901 C3897 1.495 . S
C3901 H3907 0.959 . S
C3901 H3908 0.961 . S
C3901 H3909 0.960 . S
C3902 C3900 1.381 . S
C3902 C3903 1.394 . S
C3902 H3910 0.923 1_455 S
C3903 C3902 1.394 . S
C3903 C3904 1.383 . S
C3903 H3911 0.929 . S
C3904 C3903 1.383 . S
C3904 C3905 1.377 . S
C3905 H3889 0.930 . S
C3905 C3904 1.377 . S
C3905 C3906 1.379 . S
C3906 H3890 0.931 . S
C3906 C3900 1.383 . S
C3906 C3905 1.379 . S
H3907 C3901 0.959 . S
H3908 C3901 0.961 . S
H3909 C3901 0.960 . S
H3910 C3902 0.923 1_655 S
H3911 C3903 0.929 . S
H3912 C3920 0.929 . S
H3913 C3922 0.930 . S
H3914 C3924 0.930 . S
H3915 C3927 0.929 . S
H3916 C3930 0.930 . S
H3917 C3932 0.960 . S
H3918 C3932 0.960 . S
H3919 C3932 0.960 . S
C3920 H3912 0.929 . S
C3920 C3921 1.377 . S
C3920 C3922 1.384 . S
C3921 C3920 1.377 . S
C3921 C3927 1.390 . S
C3922 H3913 0.930 . S
C3922 C3920 1.384 . S
C3922 C3923 1.372 . S
C3923 C3922 1.372 . S
C3923 C3924 1.400 . S
C3923 C3928 1.490 . S
C3924 H3914 0.930 . S
C3924 C3923 1.400 . S
C3924 C3927 1.386 . S
H3925 C3941 0.930 . S
H3926 C3942 0.931 . S
C3927 H3915 0.929 . S
C3927 C3921 1.390 . S
C3927 C3924 1.386 . S
C3928 C3923 1.490 . S
C3928 C3930 1.395 . S
C3928 C3931 1.403 . S
H3929 C3935 0.930 . S
C3930 H3916 0.930 . S
C3930 C3928 1.395 . S
C3930 C3933 1.403 . S
C3931 C3928 1.403 . S
C3931 C3932 1.524 . S
C3931 C3935 1.400 . S
C3932 H3917 0.960 . S
C3932 H3918 0.960 . S
C3932 H3919 0.960 . S
C3932 C3931 1.524 . S
C3933 C3930 1.403 . S
C3933 C3934 1.392 . S
C3933 C3937 1.495 . S
C3934 C3933 1.392 . S
C3934 C3935 1.385 . S
C3934 C3936 1.478 . S
C3935 H3929 0.930 . S
C3935 C3931 1.400 . S
C3935 C3934 1.385 . S
C3936 C3934 1.478 . S
C3936 C3938 1.381 . S
C3936 C3942 1.383 . S
C3937 C3933 1.495 . S
C3937 H3943 0.959 . S
C3937 H3944 0.961 . S
C3937 H3945 0.960 . S
C3938 C3936 1.381 . S
C3938 C3939 1.394 . S
C3938 H3946 0.930 . S
C3939 C3938 1.394 . S
C3939 C3940 1.383 . S
C3939 H3947 0.929 . S
C3940 C3939 1.383 . S
C3940 C3941 1.377 . S
C3941 H3925 0.930 . S
C3941 C3940 1.377 . S
C3941 C3942 1.379 . S
C3942 H3926 0.931 . S
C3942 C3936 1.383 . S
C3942 C3941 1.379 . S
H3943 C3937 0.959 . S
H3944 C3937 0.961 . S
H3945 C3937 0.960 . S
H3946 C3938 0.930 . S
H3947 C3939 0.929 . S
H3948 C3956 0.929 . S
H3949 C3958 0.930 . S
H3950 C3960 0.930 . S
H3951 C3963 0.929 . S
H3952 C3966 0.930 . S
H3953 C3968 0.960 . S
H3954 C3968 0.960 . S
H3955 C3968 0.960 . S
C3956 H3948 0.929 . S
C3956 C3957 1.377 . S
C3956 C3958 1.384 . S
C3957 C3956 1.377 . S
C3957 C3963 1.390 . S
C3958 H3949 0.930 . S
C3958 C3956 1.384 . S
C3958 C3959 1.372 . S
C3959 C3958 1.372 . S
C3959 C3960 1.400 . S
C3959 C3964 1.490 . S
C3960 H3950 0.930 . S
C3960 C3959 1.400 . S
C3960 C3963 1.386 . S
H3961 C3977 0.930 . S
H3962 C3978 0.931 . S
C3963 H3951 0.929 . S
C3963 C3957 1.390 . S
C3963 C3960 1.386 . S
C3964 C3959 1.490 . S
C3964 C3966 1.395 . S
C3964 C3967 1.403 . S
H3965 C3971 0.930 . S
C3966 H3952 0.930 . S
C3966 C3964 1.395 . S
C3966 C3969 1.403 . S
C3967 C3964 1.403 . S
C3967 C3968 1.524 . S
C3967 C3971 1.400 . S
C3968 H3953 0.960 . S
C3968 H3954 0.960 . S
C3968 H3955 0.960 . S
C3968 C3967 1.524 . S
C3969 C3966 1.403 . S
C3969 C3970 1.392 . S
C3969 C3973 1.495 . S
C3970 C3969 1.392 . S
C3970 C3971 1.385 . S
C3970 C3972 1.478 . S
C3971 H3965 0.930 . S
C3971 C3967 1.400 . S
C3971 C3970 1.385 . S
C3972 C3970 1.478 . S
C3972 C3974 1.381 . S
C3972 C3978 1.383 . S
C3973 C3969 1.495 . S
C3973 H3979 0.959 . S
C3973 H3980 0.961 . S
C3973 H3981 0.960 . S
C3974 C3972 1.381 . S
C3974 C3975 1.394 . S
C3974 H3982 0.930 . S
C3975 C3974 1.394 . S
C3975 C3976 1.383 . S
C3975 H3983 0.929 . S
C3976 C3975 1.383 . S
C3976 C3977 1.377 . S
C3977 H3961 0.930 . S
C3977 C3976 1.377 . S
C3977 C3978 1.379 . S
C3978 H3962 0.931 . S
C3978 C3972 1.383 . S
C3978 C3977 1.379 . S
H3979 C3973 0.959 . S
H3980 C3973 0.961 . S
H3981 C3973 0.960 . S
H3982 C3974 0.930 . S
H3983 C3975 0.929 . S
H3984 C3992 0.929 . S
H3985 C3994 0.930 . S
H3986 C3996 0.930 . S
H3987 C3999 0.929 . S
H3988 C4002 0.930 . S
H3989 C4004 0.960 1_455 S
H3990 C4004 0.960 . S
H3991 C4004 0.960 . S
C3992 H3984 0.929 . S
C3992 C3993 1.377 . S
C3992 C3994 1.384 . S
C3993 C3992 1.377 . S
C3993 C3999 1.390 . S
C3994 H3985 0.930 . S
C3994 C3992 1.384 . S
C3994 C3995 1.372 . S
C3995 C3994 1.372 . S
C3995 C3996 1.400 . S
C3995 C4000 1.490 . S
C3996 H3986 0.930 . S
C3996 C3995 1.400 . S
C3996 C3999 1.386 . S
H3997 C4013 0.930 . S
H3998 C4014 0.931 . S
C3999 H3987 0.929 . S
C3999 C3993 1.390 . S
C3999 C3996 1.386 . S
C4000 C3995 1.490 . S
C4000 C4002 1.395 . S
C4000 C4003 1.403 . S
H4001 C4007 0.930 . S
C4002 H3988 0.930 . S
C4002 C4000 1.395 . S
C4002 C4005 1.403 1_655 S
C4003 C4000 1.403 . S
C4003 C4004 1.524 . S
C4003 C4007 1.400 1_655 S
C4004 H3989 0.960 1_655 S
C4004 H3990 0.960 . S
C4004 H3991 0.960 . S
C4004 C4003 1.524 . S
C4005 C4002 1.403 1_455 S
C4005 C4006 1.392 . S
C4005 C4009 1.495 . S
C4006 C4005 1.392 . S
C4006 C4007 1.385 . S
C4006 C4008 1.478 . S
C4007 H4001 0.930 . S
C4007 C4003 1.400 1_455 S
C4007 C4006 1.385 . S
C4008 C4006 1.478 . S
C4008 C4010 1.381 . S
C4008 C4014 1.383 . S
C4009 C4005 1.495 . S
C4009 H4015 0.959 1_455 S
C4009 H4016 0.961 . S
C4009 H4017 0.960 . S
C4010 C4008 1.381 . S
C4010 C4011 1.394 . S
C4010 H4018 0.930 . S
C4011 C4010 1.394 . S
C4011 C4012 1.383 . S
C4011 H4019 0.929 . S
C4012 C4011 1.383 . S
C4012 C4013 1.377 . S
C4013 H3997 0.930 . S
C4013 C4012 1.377 . S
C4013 C4014 1.379 . S
C4014 H3998 0.931 . S
C4014 C4008 1.383 . S
C4014 C4013 1.379 . S
H4015 C4009 0.959 1_655 S
H4016 C4009 0.961 . S
H4017 C4009 0.960 . S
H4018 C4010 0.930 . S
H4019 C4011 0.929 . S
H4020 C4028 0.929 . S
H4021 C4030 0.930 . S
H4022 C4032 0.930 . S
H4023 C4035 0.929 . S
H4024 C4038 0.930 . S
H4025 C4040 0.960 . S
H4026 C4040 0.960 . S
H4027 C4040 0.960 . S
C4028 H4020 0.929 . S
C4028 C4029 1.377 . S
C4028 C4030 1.384 . S
C4029 C4028 1.377 . S
C4029 C4035 1.390 . S
C4030 H4021 0.930 . S
C4030 C4028 1.384 . S
C4030 C4031 1.372 . S
C4031 C4030 1.372 . S
C4031 C4032 1.400 . S
C4031 C4036 1.490 . S
C4032 H4022 0.930 . S
C4032 C4031 1.400 . S
C4032 C4035 1.386 . S
H4033 C4049 0.930 . S
H4034 C4050 0.931 . S
C4035 H4023 0.929 . S
C4035 C4029 1.390 . S
C4035 C4032 1.386 . S
C4036 C4031 1.490 . S
C4036 C4038 1.395 . S
C4036 C4039 1.403 . S
H4037 C4043 0.930 . S
C4038 H4024 0.930 . S
C4038 C4036 1.395 . S
C4038 C4041 1.403 . S
C4039 C4036 1.403 . S
C4039 C4040 1.524 . S
C4039 C4043 1.400 . S
C4040 H4025 0.960 . S
C4040 H4026 0.960 . S
C4040 H4027 0.960 . S
C4040 C4039 1.524 . S
C4041 C4038 1.403 . S
C4041 C4042 1.392 . S
C4041 C4045 1.495 . S
C4042 C4041 1.392 . S
C4042 C4043 1.385 . S
C4042 C4044 1.478 . S
C4043 H4037 0.930 . S
C4043 C4039 1.400 . S
C4043 C4042 1.385 . S
C4044 C4042 1.478 . S
C4044 C4046 1.381 . S
C4044 C4050 1.383 . S
C4045 C4041 1.495 . S
C4045 H4051 0.959 . S
C4045 H4052 0.961 . S
C4045 H4053 0.960 . S
C4046 C4044 1.381 . S
C4046 C4047 1.394 . S
C4046 H4054 0.930 . S
C4047 C4046 1.394 . S
C4047 C4048 1.383 . S
C4047 H4055 0.929 . S
C4048 C4047 1.383 . S
C4048 C4049 1.377 . S
C4049 H4033 0.930 . S
C4049 C4048 1.377 . S
C4049 C4050 1.379 . S
C4050 H4034 0.931 . S
C4050 C4044 1.383 . S
C4050 C4049 1.379 . S
H4051 C4045 0.959 . S
H4052 C4045 0.961 . S
H4053 C4045 0.960 . S
H4054 C4046 0.930 . S
H4055 C4047 0.929 . S
H4056 C4064 0.929 . S
H4057 C4066 0.930 . S
H4058 C4068 0.930 . S
H4059 C4071 0.929 . S
H4060 C4074 0.930 . S
H4061 C4076 0.960 . S
H4062 C4076 0.960 . S
H4063 C4076 0.960 . S
C4064 H4056 0.929 . S
C4064 C4065 1.377 . S
C4064 C4066 1.384 . S
C4065 C4064 1.377 . S
C4065 C4071 1.390 . S
C4066 H4057 0.930 . S
C4066 C4064 1.384 . S
C4066 C4067 1.372 . S
C4067 C4066 1.372 . S
C4067 C4068 1.400 . S
C4067 C4072 1.490 . S
C4068 H4058 0.930 . S
C4068 C4067 1.400 . S
C4068 C4071 1.386 . S
H4069 C4085 0.930 . S
H4070 C4086 0.931 . S
C4071 H4059 0.929 . S
C4071 C4065 1.390 . S
C4071 C4068 1.386 . S
C4072 C4067 1.490 . S
C4072 C4074 1.395 . S
C4072 C4075 1.403 . S
H4073 C4079 0.930 . S
C4074 H4060 0.930 . S
C4074 C4072 1.395 . S
C4074 C4077 1.403 . S
C4075 C4072 1.403 . S
C4075 C4076 1.524 . S
C4075 C4079 1.400 . S
C4076 H4061 0.960 . S
C4076 H4062 0.960 . S
C4076 H4063 0.960 . S
C4076 C4075 1.524 . S
C4077 C4074 1.403 . S
C4077 C4078 1.392 . S
C4077 C4081 1.495 . S
C4078 C4077 1.392 . S
C4078 C4079 1.385 . S
C4078 C4080 1.478 . S
C4079 H4073 0.930 . S
C4079 C4075 1.400 . S
C4079 C4078 1.385 . S
C4080 C4078 1.478 . S
C4080 C4082 1.381 . S
C4080 C4086 1.383 . S
C4081 C4077 1.495 . S
C4081 H4087 0.959 . S
C4081 H4088 0.961 . S
C4081 H4089 0.960 . S
C4082 C4080 1.381 . S
C4082 C4083 1.394 . S
C4082 H4090 0.930 . S
C4083 C4082 1.394 . S
C4083 C4084 1.383 . S
C4083 H4091 0.929 . S
C4084 C4083 1.383 . S
C4084 C4085 1.377 . S
C4085 H4069 0.930 . S
C4085 C4084 1.377 . S
C4085 C4086 1.379 . S
C4086 H4070 0.931 . S
C4086 C4080 1.383 . S
C4086 C4085 1.379 . S
H4087 C4081 0.959 . S
H4088 C4081 0.961 . S
H4089 C4081 0.960 . S
H4090 C4082 0.930 . S
H4091 C4083 0.929 . S
H4092 C4100 0.929 . S
H4093 C4102 0.930 . S
H4094 C4104 0.930 1_655 S
H4095 C4107 0.929 . S
H4096 C4110 0.930 . S
H4097 C4112 0.960 . S
H4098 C4112 0.960 . S
H4099 C4112 0.960 . S
C4100 H4092 0.929 . S
C4100 C4101 1.377 . S
C4100 C4102 1.384 . S
C4101 C4100 1.377 . S
C4101 C4107 1.390 . S
C4102 H4093 0.930 . S
C4102 C4100 1.384 . S
C4102 C4103 1.372 . S
C4103 C4102 1.372 . S
C4103 C4104 1.400 . S
C4103 C4108 1.490 . S
C4104 H4094 0.930 1_455 S
C4104 C4103 1.400 . S
C4104 C4107 1.386 . S
H4105 C4121 0.930 . S
H4106 C4122 0.931 . S
C4107 H4095 0.929 . S
C4107 C4101 1.390 . S
C4107 C4104 1.386 . S
C4108 C4103 1.490 . S
C4108 C4110 1.395 1_455 S
C4108 C4111 1.403 . S
H4109 C4115 0.930 . S
C4110 H4096 0.930 . S
C4110 C4108 1.395 1_655 S
C4110 C4113 1.403 . S
C4111 C4108 1.403 . S
C4111 C4112 1.524 . S
C4111 C4115 1.400 . S
C4112 H4097 0.960 . S
C4112 H4098 0.960 . S
C4112 H4099 0.960 . S
C4112 C4111 1.524 . S
C4113 C4110 1.403 . S
C4113 C4114 1.392 . S
C4113 C4117 1.495 . S
C4114 C4113 1.392 . S
C4114 C4115 1.385 1_655 S
C4114 C4116 1.478 . S
C4115 H4109 0.930 . S
C4115 C4111 1.400 . S
C4115 C4114 1.385 1_455 S
C4116 C4114 1.478 . S
C4116 C4118 1.381 . S
C4116 C4122 1.383 . S
C4117 C4113 1.495 . S
C4117 H4123 0.959 . S
C4117 H4124 0.961 . S
C4117 H4125 0.960 . S
C4118 C4116 1.381 . S
C4118 C4119 1.394 . S
C4118 H4126 0.930 1_655 S
C4119 C4118 1.394 . S
C4119 C4120 1.383 . S
C4119 H4127 0.929 . S
C4120 C4119 1.383 . S
C4120 C4121 1.377 . S
C4121 H4105 0.930 . S
C4121 C4120 1.377 . S
C4121 C4122 1.379 . S
C4122 H4106 0.931 . S
C4122 C4116 1.383 . S
C4122 C4121 1.379 . S
H4123 C4117 0.959 . S
H4124 C4117 0.961 . S
H4125 C4117 0.960 . S
H4126 C4118 0.930 1_455 S
H4127 C4119 0.929 . S
H4128 C4136 0.929 . S
H4129 C4138 0.930 . S
H4130 C4140 0.930 . S
H4131 C4143 0.929 . S
H4132 C4146 0.930 . S
H4133 C4148 0.960 1_655 S
H4134 C4148 0.960 . S
H4135 C4148 0.960 . S
C4136 H4128 0.929 . S
C4136 C4137 1.377 . S
C4136 C4138 1.384 . S
C4137 C4136 1.377 . S
C4137 C4143 1.390 . S
C4138 H4129 0.930 . S
C4138 C4136 1.384 . S
C4138 C4139 1.372 . S
C4139 C4138 1.372 . S
C4139 C4140 1.400 . S
C4139 C4144 1.490 . S
C4140 H4130 0.930 . S
C4140 C4139 1.400 . S
C4140 C4143 1.386 . S
H4141 C4157 0.930 . S
H4142 C4158 0.931 . S
C4143 H4131 0.929 . S
C4143 C4137 1.390 . S
C4143 C4140 1.386 . S
C4144 C4139 1.490 . S
C4144 C4146 1.395 . S
C4144 C4147 1.403 . S
H4145 C4151 0.930 . S
C4146 H4132 0.930 . S
C4146 C4144 1.395 . S
C4146 C4149 1.403 1_455 S
C4147 C4144 1.403 . S
C4147 C4148 1.524 . S
C4147 C4151 1.400 1_455 S
C4148 H4133 0.960 1_455 S
C4148 H4134 0.960 . S
C4148 H4135 0.960 . S
C4148 C4147 1.524 . S
C4149 C4146 1.403 1_655 S
C4149 C4150 1.392 . S
C4149 C4153 1.495 . S
C4150 C4149 1.392 . S
C4150 C4151 1.385 . S
C4150 C4152 1.478 . S
C4151 H4145 0.930 . S
C4151 C4147 1.400 1_655 S
C4151 C4150 1.385 . S
C4152 C4150 1.478 . S
C4152 C4154 1.381 . S
C4152 C4158 1.383 . S
C4153 C4149 1.495 . S
C4153 H4159 0.959 1_655 S
C4153 H4160 0.961 . S
C4153 H4161 0.960 . S
C4154 C4152 1.381 . S
C4154 C4155 1.394 . S
C4154 H4162 0.930 . S
C4155 C4154 1.394 . S
C4155 C4156 1.383 . S
C4155 H4163 0.929 . S
C4156 C4155 1.383 . S
C4156 C4157 1.377 . S
C4157 H4141 0.930 . S
C4157 C4156 1.377 . S
C4157 C4158 1.379 . S
C4158 H4142 0.931 . S
C4158 C4152 1.383 . S
C4158 C4157 1.379 . S
H4159 C4153 0.959 1_455 S
H4160 C4153 0.961 . S
H4161 C4153 0.960 . S
H4162 C4154 0.930 . S
H4163 C4155 0.929 . S
H4164 C4172 0.929 1_455 S
H4165 C4174 0.932 1_455 S
H4166 C4176 0.930 . S
H4167 C4179 0.929 . S
H4168 C4182 0.930 . S
H4169 C4184 0.960 . S
H4170 C4184 0.960 . S
H4171 C4184 0.960 1_655 S
C4172 H4164 0.929 1_655 S
C4172 C4173 1.377 . S
C4172 C4174 1.383 . S
C4173 C4172 1.377 . S
C4173 C4179 1.390 . S
C4174 H4165 0.932 1_655 S
C4174 C4172 1.383 . S
C4174 C4175 1.371 . S
C4175 C4174 1.371 . S
C4175 C4176 1.400 . S
C4175 C4180 1.490 . S
C4176 H4166 0.930 . S
C4176 C4175 1.400 . S
C4176 C4179 1.386 . S
H4177 C4193 0.930 1_655 S
H4178 C4194 0.931 . S
C4179 H4167 0.929 . S
C4179 C4173 1.390 . S
C4179 C4176 1.386 . S
C4180 C4175 1.490 . S
C4180 C4182 1.395 . S
C4180 C4183 1.403 1_655 S
H4181 C4187 0.930 . S
C4182 H4168 0.930 . S
C4182 C4180 1.395 . S
C4182 C4185 1.403 . S
C4183 C4180 1.403 1_455 S
C4183 C4184 1.524 . S
C4183 C4187 1.400 . S
C4184 H4169 0.960 . S
C4184 H4170 0.960 . S
C4184 H4171 0.960 1_455 S
C4184 C4183 1.524 . S
C4185 C4182 1.403 . S
C4185 C4186 1.392 1_655 S
C4185 C4189 1.495 . S
C4186 C4185 1.392 1_455 S
C4186 C4187 1.385 . S
C4186 C4188 1.478 . S
C4187 H4181 0.930 . S
C4187 C4183 1.400 . S
C4187 C4186 1.385 . S
C4188 C4186 1.478 . S
C4188 C4190 1.381 . S
C4188 C4194 1.383 1_455 S
C4189 C4185 1.495 . S
C4189 H4195 0.959 . S
C4189 H4196 0.961 . S
C4189 H4197 0.960 1_655 S
C4190 C4188 1.381 . S
C4190 C4191 1.394 . S
C4190 H4198 0.930 . S
C4191 C4190 1.394 . S
C4191 C4192 1.383 . S
C4191 H4199 0.929 . S
C4192 C4191 1.383 . S
C4192 C4193 1.377 . S
C4193 H4177 0.930 1_455 S
C4193 C4192 1.377 . S
C4193 C4194 1.379 1_455 S
C4194 H4178 0.931 . S
C4194 C4188 1.383 1_655 S
C4194 C4193 1.379 1_655 S
H4195 C4189 0.959 . S
H4196 C4189 0.961 . S
H4197 C4189 0.960 1_455 S
H4198 C4190 0.930 . S
H4199 C4191 0.929 . S
H4200 C4208 0.929 . S
H4201 C4210 0.930 . S
H4202 C4212 0.930 . S
H4203 C4215 0.929 . S
H4204 C4218 0.930 . S
H4205 C4220 0.960 . S
H4206 C4220 0.960 . S
H4207 C4220 0.960 . S
C4208 H4200 0.929 . S
C4208 C4209 1.377 . S
C4208 C4210 1.384 . S
C4209 C4208 1.377 . S
C4209 C4215 1.390 . S
C4210 H4201 0.930 . S
C4210 C4208 1.384 . S
C4210 C4211 1.372 . S
C4211 C4210 1.372 . S
C4211 C4212 1.400 . S
C4211 C4216 1.490 . S
C4212 H4202 0.930 . S
C4212 C4211 1.400 . S
C4212 C4215 1.386 . S
H4213 C4229 0.930 . S
H4214 C4230 0.931 . S
C4215 H4203 0.929 . S
C4215 C4209 1.390 . S
C4215 C4212 1.386 . S
C4216 C4211 1.490 . S
C4216 C4218 1.395 . S
C4216 C4219 1.403 . S
H4217 C4223 0.930 . S
C4218 H4204 0.930 . S
C4218 C4216 1.395 . S
C4218 C4221 1.403 . S
C4219 C4216 1.403 . S
C4219 C4220 1.524 . S
C4219 C4223 1.400 . S
C4220 H4205 0.960 . S
C4220 H4206 0.960 . S
C4220 H4207 0.960 . S
C4220 C4219 1.524 . S
C4221 C4218 1.403 . S
C4221 C4222 1.392 . S
C4221 C4225 1.495 . S
C4222 C4221 1.392 . S
C4222 C4223 1.385 . S
C4222 C4224 1.478 . S
C4223 H4217 0.930 . S
C4223 C4219 1.400 . S
C4223 C4222 1.385 . S
C4224 C4222 1.478 . S
C4224 C4226 1.381 . S
C4224 C4230 1.383 . S
C4225 C4221 1.495 . S
C4225 H4231 0.959 . S
C4225 H4232 0.961 . S
C4225 H4233 0.960 . S
C4226 C4224 1.381 . S
C4226 C4227 1.394 . S
C4226 H4234 0.930 . S
C4227 C4226 1.394 . S
C4227 C4228 1.383 . S
C4227 H4235 0.929 . S
C4228 C4227 1.383 . S
C4228 C4229 1.377 . S
C4229 H4213 0.930 . S
C4229 C4228 1.377 . S
C4229 C4230 1.379 . S
C4230 H4214 0.931 . S
C4230 C4224 1.383 . S
C4230 C4229 1.379 . S
H4231 C4225 0.959 . S
H4232 C4225 0.961 . S
H4233 C4225 0.960 . S
H4234 C4226 0.930 . S
H4235 C4227 0.929 . S
H4236 C4244 0.929 . S
H4237 C4246 0.930 . S
H4238 C4248 0.930 . S
H4239 C4251 0.929 . S
H4240 C4254 0.930 . S
H4241 C4256 0.960 . S
H4242 C4256 0.960 . S
H4243 C4256 0.960 . S
C4244 H4236 0.929 . S
C4244 C4245 1.377 . S
C4244 C4246 1.384 . S
C4245 C4244 1.377 . S
C4245 C4251 1.390 . S
C4246 H4237 0.930 . S
C4246 C4244 1.384 . S
C4246 C4247 1.372 . S
C4247 C4246 1.372 . S
C4247 C4248 1.400 . S
C4247 C4252 1.490 . S
C4248 H4238 0.930 . S
C4248 C4247 1.400 . S
C4248 C4251 1.386 . S
H4249 C4265 0.930 . S
H4250 C4266 0.931 . S
C4251 H4239 0.929 . S
C4251 C4245 1.390 . S
C4251 C4248 1.386 . S
C4252 C4247 1.490 . S
C4252 C4254 1.395 . S
C4252 C4255 1.403 . S
H4253 C4259 0.930 . S
C4254 H4240 0.930 . S
C4254 C4252 1.395 . S
C4254 C4257 1.403 . S
C4255 C4252 1.403 . S
C4255 C4256 1.524 . S
C4255 C4259 1.400 . S
C4256 H4241 0.960 . S
C4256 H4242 0.960 . S
C4256 H4243 0.960 . S
C4256 C4255 1.524 . S
C4257 C4254 1.403 . S
C4257 C4258 1.392 . S
C4257 C4261 1.495 . S
C4258 C4257 1.392 . S
C4258 C4259 1.385 . S
C4258 C4260 1.478 . S
C4259 H4253 0.930 . S
C4259 C4255 1.400 . S
C4259 C4258 1.385 . S
C4260 C4258 1.478 . S
C4260 C4262 1.381 . S
C4260 C4266 1.383 . S
C4261 C4257 1.495 . S
C4261 H4267 0.959 . S
C4261 H4268 0.961 . S
C4261 H4269 0.960 . S
C4262 C4260 1.381 . S
C4262 C4263 1.394 . S
C4262 H4270 0.930 . S
C4263 C4262 1.394 . S
C4263 C4264 1.383 . S
C4263 H4271 0.929 . S
C4264 C4263 1.383 . S
C4264 C4265 1.377 . S
C4265 H4249 0.930 . S
C4265 C4264 1.377 . S
C4265 C4266 1.379 . S
C4266 H4250 0.931 . S
C4266 C4260 1.383 . S
C4266 C4265 1.379 . S
H4267 C4261 0.959 . S
H4268 C4261 0.961 . S
H4269 C4261 0.960 . S
H4270 C4262 0.930 . S
H4271 C4263 0.929 . S
H4272 C4280 0.929 . S
H4273 C4282 0.930 . S
H4274 C4284 0.930 . S
H4275 C4287 0.929 . S
H4276 C4290 0.930 . S
H4277 C4292 0.960 1_655 S
H4278 C4292 0.960 . S
H4279 C4292 0.960 . S
C4280 H4272 0.929 . S
C4280 C4281 1.377 . S
C4280 C4282 1.384 . S
C4281 C4280 1.377 . S
C4281 C4287 1.390 . S
C4282 H4273 0.930 . S
C4282 C4280 1.384 . S
C4282 C4283 1.372 . S
C4283 C4282 1.372 . S
C4283 C4284 1.400 . S
C4283 C4288 1.490 . S
C4284 H4274 0.930 . S
C4284 C4283 1.400 . S
C4284 C4287 1.386 . S
H4285 C4301 0.930 . S
H4286 C4302 0.931 . S
C4287 H4275 0.929 . S
C4287 C4281 1.390 . S
C4287 C4284 1.386 . S
C4288 C4283 1.490 . S
C4288 C4290 1.395 . S
C4288 C4291 1.403 . S
H4289 C4295 0.930 . S
C4290 H4276 0.930 . S
C4290 C4288 1.395 . S
C4290 C4293 1.403 1_455 S
C4291 C4288 1.403 . S
C4291 C4292 1.524 . S
C4291 C4295 1.400 1_455 S
C4292 H4277 0.960 1_455 S
C4292 H4278 0.960 . S
C4292 H4279 0.960 . S
C4292 C4291 1.524 . S
C4293 C4290 1.403 1_655 S
C4293 C4294 1.392 . S
C4293 C4297 1.495 . S
C4294 C4293 1.392 . S
C4294 C4295 1.385 . S
C4294 C4296 1.478 . S
C4295 H4289 0.930 . S
C4295 C4291 1.400 1_655 S
C4295 C4294 1.385 . S
C4296 C4294 1.478 . S
C4296 C4298 1.381 . S
C4296 C4302 1.383 . S
C4297 C4293 1.495 . S
C4297 H4303 0.959 1_655 S
C4297 H4304 0.961 . S
C4297 H4305 0.960 . S
C4298 C4296 1.381 . S
C4298 C4299 1.394 . S
C4298 H4306 0.930 . S
C4299 C4298 1.394 . S
C4299 C4300 1.383 . S
C4299 H4307 0.929 . S
C4300 C4299 1.383 . S
C4300 C4301 1.377 . S
C4301 H4285 0.930 . S
C4301 C4300 1.377 . S
C4301 C4302 1.379 . S
C4302 H4286 0.931 . S
C4302 C4296 1.383 . S
C4302 C4301 1.379 . S
H4303 C4297 0.959 1_455 S
H4304 C4297 0.961 . S
H4305 C4297 0.960 . S
H4306 C4298 0.930 . S
H4307 C4299 0.929 . S
H4308 C4316 0.929 . S
H4309 C4318 0.930 . S
H4310 C4320 0.930 . S
H4311 C4323 0.929 . S
H4312 C4326 0.930 . S
H4313 C4328 0.960 . S
H4314 C4328 0.960 . S
H4315 C4328 0.960 . S
C4316 H4308 0.929 . S
C4316 C4317 1.377 . S
C4316 C4318 1.384 . S
C4317 C4316 1.377 . S
C4317 C4323 1.390 . S
C4318 H4309 0.930 . S
C4318 C4316 1.384 . S
C4318 C4319 1.372 . S
C4319 C4318 1.372 . S
C4319 C4320 1.400 . S
C4319 C4324 1.490 . S
C4320 H4310 0.930 . S
C4320 C4319 1.400 . S
C4320 C4323 1.386 . S
H4321 C4337 0.930 . S
H4322 C4338 0.931 . S
C4323 H4311 0.929 . S
C4323 C4317 1.390 . S
C4323 C4320 1.386 . S
C4324 C4319 1.490 . S
C4324 C4326 1.395 . S
C4324 C4327 1.403 . S
H4325 C4331 0.930 . S
C4326 H4312 0.930 . S
C4326 C4324 1.395 . S
C4326 C4329 1.403 . S
C4327 C4324 1.403 . S
C4327 C4328 1.524 . S
C4327 C4331 1.400 . S
C4328 H4313 0.960 . S
C4328 H4314 0.960 . S
C4328 H4315 0.960 . S
C4328 C4327 1.524 . S
C4329 C4326 1.403 . S
C4329 C4330 1.392 . S
C4329 C4333 1.495 . S
C4330 C4329 1.392 . S
C4330 C4331 1.385 . S
C4330 C4332 1.478 . S
C4331 H4325 0.930 . S
C4331 C4327 1.400 . S
C4331 C4330 1.385 . S
C4332 C4330 1.478 . S
C4332 C4334 1.381 . S
C4332 C4338 1.383 . S
C4333 C4329 1.495 . S
C4333 H4339 0.959 . S
C4333 H4340 0.961 . S
C4333 H4341 0.960 . S
C4334 C4332 1.381 . S
C4334 C4335 1.394 . S
C4334 H4342 0.930 . S
C4335 C4334 1.394 . S
C4335 C4336 1.383 . S
C4335 H4343 0.929 . S
C4336 C4335 1.383 . S
C4336 C4337 1.377 . S
C4337 H4321 0.930 . S
C4337 C4336 1.377 . S
C4337 C4338 1.379 . S
C4338 H4322 0.931 . S
C4338 C4332 1.383 . S
C4338 C4337 1.379 . S
H4339 C4333 0.959 . S
H4340 C4333 0.961 . S
H4341 C4333 0.960 . S
H4342 C4334 0.930 . S
H4343 C4335 0.929 . S
H4344 C4352 0.929 . S
H4345 C4354 0.930 . S
H4346 C4356 0.930 . S
H4347 C4359 0.929 . S
H4348 C4362 0.930 . S
H4349 C4364 0.960 . S
H4350 C4364 0.960 . S
H4351 C4364 0.960 . S
C4352 H4344 0.929 . S
C4352 C4353 1.377 . S
C4352 C4354 1.384 . S
C4353 C4352 1.377 . S
C4353 C4359 1.390 . S
C4354 H4345 0.930 . S
C4354 C4352 1.384 . S
C4354 C4355 1.372 . S
C4355 C4354 1.372 . S
C4355 C4356 1.400 . S
C4355 C4360 1.490 . S
C4356 H4346 0.930 . S
C4356 C4355 1.400 . S
C4356 C4359 1.386 . S
H4357 C4373 0.930 . S
H4358 C4374 0.931 . S
C4359 H4347 0.929 . S
C4359 C4353 1.390 . S
C4359 C4356 1.386 . S
C4360 C4355 1.490 . S
C4360 C4362 1.395 . S
C4360 C4363 1.403 . S
H4361 C4367 0.930 . S
C4362 H4348 0.930 . S
C4362 C4360 1.395 . S
C4362 C4365 1.403 . S
C4363 C4360 1.403 . S
C4363 C4364 1.524 . S
C4363 C4367 1.400 . S
C4364 H4349 0.960 . S
C4364 H4350 0.960 . S
C4364 H4351 0.960 . S
C4364 C4363 1.524 . S
C4365 C4362 1.403 . S
C4365 C4366 1.392 . S
C4365 C4369 1.495 . S
C4366 C4365 1.392 . S
C4366 C4367 1.385 . S
C4366 C4368 1.478 . S
C4367 H4361 0.930 . S
C4367 C4363 1.400 . S
C4367 C4366 1.385 . S
C4368 C4366 1.478 . S
C4368 C4370 1.381 . S
C4368 C4374 1.383 . S
C4369 C4365 1.495 . S
C4369 H4375 0.959 . S
C4369 H4376 0.961 . S
C4369 H4377 0.960 . S
C4370 C4368 1.381 . S
C4370 C4371 1.394 . S
C4370 H4378 0.930 . S
C4371 C4370 1.394 . S
C4371 C4372 1.383 . S
C4371 H4379 0.929 . S
C4372 C4371 1.383 . S
C4372 C4373 1.377 . S
C4373 H4357 0.930 . S
C4373 C4372 1.377 . S
C4373 C4374 1.379 . S
C4374 H4358 0.931 . S
C4374 C4368 1.383 . S
C4374 C4373 1.379 . S
H4375 C4369 0.959 . S
H4376 C4369 0.961 . S
H4377 C4369 0.960 . S
H4378 C4370 0.930 . S
H4379 C4371 0.929 . S
H4380 C4388 0.929 1_455 S
H4381 C4390 0.930 . S
H4382 C4392 0.930 . S
H4383 C4395 0.929 . S
H4384 C4398 0.930 . S
H4385 C4400 0.967 . S
H4386 C4400 0.980 . S
H4387 C4400 0.935 1_655 S
C4388 H4380 0.929 1_655 S
C4388 C4389 1.377 . S
C4388 C4390 1.384 1_655 S
C4389 C4388 1.377 . S
C4389 C4395 1.390 . S
C4390 H4381 0.930 . S
C4390 C4388 1.384 1_455 S
C4390 C4391 1.372 1_455 S
C4391 C4390 1.372 1_655 S
C4391 C4392 1.400 . S
C4391 C4396 1.490 . S
C4392 H4382 0.930 . S
C4392 C4391 1.400 . S
C4392 C4395 1.386 . S
H4393 C4409 0.930 1_655 S
H4394 C4410 0.931 . S
C4395 H4383 0.929 . S
C4395 C4389 1.390 . S
C4395 C4392 1.386 . S
C4396 C4391 1.490 . S
C4396 C4398 1.395 . S
C4396 C4399 1.402 1_655 S
H4397 C4403 0.930 . S
C4398 H4384 0.930 . S
C4398 C4396 1.395 . S
C4398 C4401 1.403 1_655 S
C4399 C4396 1.402 1_455 S
C4399 C4400 1.523 . S
C4399 C4403 1.400 . S
C4400 H4385 0.967 . S
C4400 H4386 0.980 . S
C4400 H4387 0.935 1_455 S
C4400 C4399 1.523 . S
C4401 C4398 1.403 1_455 S
C4401 C4402 1.392 . S
C4401 C4405 1.495 . S
C4402 C4401 1.392 . S
C4402 C4403 1.385 . S
C4402 C4404 1.478 . S
C4403 H4397 0.930 . S
C4403 C4399 1.400 . S
C4403 C4402 1.385 . S
C4404 C4402 1.478 . S
C4404 C4406 1.381 . S
C4404 C4410 1.383 1_455 S
C4405 C4401 1.495 . S
C4405 H4411 0.959 1_455 S
C4405 H4412 0.961 1_455 S
C4405 H4413 0.960 . S
C4406 C4404 1.381 . S
C4406 C4407 1.394 . S
C4406 H4414 0.930 . S
C4407 C4406 1.394 . S
C4407 C4408 1.383 . S
C4407 H4415 0.929 . S
C4408 C4407 1.383 . S
C4408 C4409 1.377 . S
C4409 H4393 0.930 1_455 S
C4409 C4408 1.377 . S
C4409 C4410 1.379 1_455 S
C4410 H4394 0.931 . S
C4410 C4404 1.383 1_655 S
C4410 C4409 1.379 1_655 S
H4411 C4405 0.959 1_655 S
H4412 C4405 0.961 1_655 S
H4413 C4405 0.960 . S
H4414 C4406 0.930 . S
H4415 C4407 0.929 . S
H4416 C4424 0.929 . S
H4417 C4426 0.930 . S
H4418 C4428 0.930 . S
H4419 C4431 0.929 . S
H4420 C4434 0.930 . S
H4421 C4436 0.960 . S
H4422 C4436 0.960 . S
H4423 C4436 0.960 . S
C4424 H4416 0.929 . S
C4424 C4425 1.377 . S
C4424 C4426 1.384 . S
C4425 C4424 1.377 . S
C4425 C4431 1.390 . S
C4426 H4417 0.930 . S
C4426 C4424 1.384 . S
C4426 C4427 1.372 . S
C4427 C4426 1.372 . S
C4427 C4428 1.400 . S
C4427 C4432 1.490 . S
C4428 H4418 0.930 . S
C4428 C4427 1.400 . S
C4428 C4431 1.386 . S
H4429 C4445 0.930 . S
H4430 C4446 0.931 . S
C4431 H4419 0.929 . S
C4431 C4425 1.390 . S
C4431 C4428 1.386 . S
C4432 C4427 1.490 . S
C4432 C4434 1.395 . S
C4432 C4435 1.403 . S
H4433 C4439 0.930 . S
C4434 H4420 0.930 . S
C4434 C4432 1.395 . S
C4434 C4437 1.403 . S
C4435 C4432 1.403 . S
C4435 C4436 1.524 . S
C4435 C4439 1.400 . S
C4436 H4421 0.960 . S
C4436 H4422 0.960 . S
C4436 H4423 0.960 . S
C4436 C4435 1.524 . S
C4437 C4434 1.403 . S
C4437 C4438 1.392 . S
C4437 C4441 1.495 . S
C4438 C4437 1.392 . S
C4438 C4439 1.385 . S
C4438 C4440 1.478 . S
C4439 H4433 0.930 . S
C4439 C4435 1.400 . S
C4439 C4438 1.385 . S
C4440 C4438 1.478 . S
C4440 C4442 1.381 . S
C4440 C4446 1.383 . S
C4441 C4437 1.495 . S
C4441 H4447 0.959 . S
C4441 H4448 0.961 . S
C4441 H4449 0.960 . S
C4442 C4440 1.381 . S
C4442 C4443 1.394 . S
C4442 H4450 0.930 . S
C4443 C4442 1.394 . S
C4443 C4444 1.383 . S
C4443 H4451 0.929 . S
C4444 C4443 1.383 . S
C4444 C4445 1.377 . S
C4445 H4429 0.930 . S
C4445 C4444 1.377 . S
C4445 C4446 1.379 . S
C4446 H4430 0.931 . S
C4446 C4440 1.383 . S
C4446 C4445 1.379 . S
H4447 C4441 0.959 . S
H4448 C4441 0.961 . S
H4449 C4441 0.960 . S
H4450 C4442 0.930 . S
H4451 C4443 0.929 . S
H4452 C4460 0.929 1_565 S
H4453 C4462 0.930 . S
H4454 C4464 0.930 . S
H4455 C4467 0.929 . S
H4456 C4470 0.930 . S
H4457 C4472 0.960 . S
H4458 C4472 0.977 . S
H4459 C4472 0.960 . S
C4460 H4452 0.929 1_545 S
C4460 C4461 1.377 . S
C4460 C4462 1.384 1_545 S
C4461 C4460 1.377 . S
C4461 C4467 1.390 . S
C4462 H4453 0.930 . S
C4462 C4460 1.384 1_565 S
C4462 C4463 1.372 1_565 S
C4463 C4462 1.372 1_545 S
C4463 C4464 1.400 . S
C4463 C4468 1.490 . S
C4464 H4454 0.930 . S
C4464 C4463 1.400 . S
C4464 C4467 1.386 . S
H4465 C4481 0.930 1_545 S
H4466 C4482 0.931 . S
C4467 H4455 0.929 . S
C4467 C4461 1.390 . S
C4467 C4464 1.386 . S
C4468 C4463 1.490 . S
C4468 C4470 1.395 1_645 S
C4468 C4471 1.403 . S
H4469 C4475 0.930 . S
C4470 H4456 0.930 . S
C4470 C4468 1.395 1_465 S
C4470 C4473 1.403 . S
C4471 C4468 1.403 . S
C4471 C4472 1.524 . S
C4471 C4475 1.400 1_545 S
C4472 H4457 0.960 . S
C4472 H4458 0.977 . S
C4472 H4459 0.960 . S
C4472 C4471 1.524 . S
C4473 C4470 1.403 . S
C4473 C4474 1.392 . S
C4473 C4477 1.495 . S
C4474 C4473 1.392 . S
C4474 C4475 1.385 1_455 S
C4474 C4476 1.478 . S
C4475 H4469 0.930 . S
C4475 C4471 1.400 1_565 S
C4475 C4474 1.385 1_655 S
C4476 C4474 1.478 . S
C4476 C4478 1.381 . S
C4476 C4482 1.383 1_565 S
C4477 C4473 1.495 . S
C4477 H4483 0.959 . S
C4477 H4484 0.961 . S
C4477 H4485 0.960 . S
C4478 C4476 1.381 . S
C4478 C4479 1.394 . S
C4478 H4486 0.930 . S
C4479 C4478 1.394 . S
C4479 C4480 1.383 . S
C4479 H4487 0.929 . S
C4480 C4479 1.383 . S
C4480 C4481 1.377 . S
C4481 H4465 0.930 1_565 S
C4481 C4480 1.377 . S
C4481 C4482 1.379 1_565 S
C4482 H4466 0.931 . S
C4482 C4476 1.383 1_545 S
C4482 C4481 1.379 1_545 S
H4483 C4477 0.959 . S
H4484 C4477 0.961 . S
H4485 C4477 0.960 . S
H4486 C4478 0.930 . S
H4487 C4479 0.929 . S
H4488 C4496 0.929 . S
H4489 C4498 0.930 . S
H4490 C4500 0.930 . S
H4491 C4503 0.929 . S
H4492 C4506 0.930 . S
H4493 C4508 0.960 . S
H4494 C4508 0.960 . S
H4495 C4508 0.960 . S
C4496 H4488 0.929 . S
C4496 C4497 1.377 . S
C4496 C4498 1.384 . S
C4497 C4496 1.377 . S
C4497 C4503 1.390 . S
C4498 H4489 0.930 . S
C4498 C4496 1.384 . S
C4498 C4499 1.372 . S
C4499 C4498 1.372 . S
C4499 C4500 1.400 . S
C4499 C4504 1.490 . S
C4500 H4490 0.930 . S
C4500 C4499 1.400 . S
C4500 C4503 1.386 . S
H4501 C4517 0.930 . S
H4502 C4518 0.931 . S
C4503 H4491 0.929 . S
C4503 C4497 1.390 . S
C4503 C4500 1.386 . S
C4504 C4499 1.490 . S
C4504 C4506 1.395 . S
C4504 C4507 1.403 . S
H4505 C4511 0.930 . S
C4506 H4492 0.930 . S
C4506 C4504 1.395 . S
C4506 C4509 1.403 . S
C4507 C4504 1.403 . S
C4507 C4508 1.524 . S
C4507 C4511 1.400 . S
C4508 H4493 0.960 . S
C4508 H4494 0.960 . S
C4508 H4495 0.960 . S
C4508 C4507 1.524 . S
C4509 C4506 1.403 . S
C4509 C4510 1.392 . S
C4509 C4513 1.495 . S
C4510 C4509 1.392 . S
C4510 C4511 1.385 . S
C4510 C4512 1.478 . S
C4511 H4505 0.930 . S
C4511 C4507 1.400 . S
C4511 C4510 1.385 . S
C4512 C4510 1.478 . S
C4512 C4514 1.381 . S
C4512 C4518 1.383 . S
C4513 C4509 1.495 . S
C4513 H4519 0.959 . S
C4513 H4520 0.961 . S
C4513 H4521 0.960 . S
C4514 C4512 1.381 . S
C4514 C4515 1.394 . S
C4514 H4522 0.930 . S
C4515 C4514 1.394 . S
C4515 C4516 1.383 . S
C4515 H4523 0.929 . S
C4516 C4515 1.383 . S
C4516 C4517 1.377 . S
C4517 H4501 0.930 . S
C4517 C4516 1.377 . S
C4517 C4518 1.379 . S
C4518 H4502 0.931 . S
C4518 C4512 1.383 . S
C4518 C4517 1.379 . S
H4519 C4513 0.959 . S
H4520 C4513 0.961 . S
H4521 C4513 0.960 . S
H4522 C4514 0.930 . S
H4523 C4515 0.929 . S
H4524 C4532 0.929 . S
H4525 C4534 0.930 . S
H4526 C4536 0.938 . S
H4527 C4539 0.929 . S
H4528 C4542 0.930 . S
H4529 C4544 0.991 . S
H4530 C4544 0.947 1_554 S
H4531 C4544 0.945 1_554 S
C4532 H4524 0.929 . S
C4532 C4533 1.377 . S
C4532 C4534 1.384 . S
C4533 C4532 1.377 . S
C4533 C4539 1.390 . S
C4534 H4525 0.930 . S
C4534 C4532 1.384 . S
C4534 C4535 1.372 . S
C4535 C4534 1.372 . S
C4535 C4536 1.400 . S
C4535 C4540 1.490 . S
C4536 H4526 0.938 . S
C4536 C4535 1.400 . S
C4536 C4539 1.386 . S
H4537 C4553 0.930 . S
H4538 C4554 0.931 . S
C4539 H4527 0.929 . S
C4539 C4533 1.390 . S
C4539 C4536 1.386 . S
C4540 C4535 1.490 . S
C4540 C4542 1.395 1_545 S
C4540 C4543 1.432 . S
H4541 C4547 0.930 . S
C4542 H4528 0.930 . S
C4542 C4540 1.395 1_565 S
C4542 C4545 1.454 . S
C4543 C4540 1.432 . S
C4543 C4544 1.521 1_554 S
C4543 C4547 1.372 1_554 S
C4544 H4529 0.991 . S
C4544 H4530 0.947 1_556 S
C4544 H4531 0.945 1_556 S
C4544 C4543 1.521 1_556 S
C4545 C4542 1.454 . S
C4545 C4546 1.341 1_554 S
C4545 C4549 1.499 . S
C4546 C4545 1.341 1_556 S
C4546 C4547 1.385 1_565 S
C4546 C4548 1.478 . S
C4547 H4541 0.930 . S
C4547 C4543 1.372 1_556 S
C4547 C4546 1.385 1_545 S
C4548 C4546 1.478 . S
C4548 C4550 1.381 . S
C4548 C4554 1.383 . S
C4549 C4545 1.499 . S
C4549 H4555 0.959 . S
C4549 H4556 0.961 1_554 S
C4549 H4557 0.960 1_554 S
C4550 C4548 1.381 . S
C4550 C4551 1.394 . S
C4550 H4558 0.904 1_565 S
C4551 C4550 1.394 . S
C4551 C4552 1.383 . S
C4551 H4559 0.929 . S
C4552 C4551 1.383 . S
C4552 C4553 1.377 . S
C4553 H4537 0.930 . S
C4553 C4552 1.377 . S
C4553 C4554 1.379 . S
C4554 H4538 0.931 . S
C4554 C4548 1.383 . S
C4554 C4553 1.379 . S
H4555 C4549 0.959 . S
H4556 C4549 0.961 1_556 S
H4557 C4549 0.960 1_556 S
H4558 C4550 0.904 1_545 S
H4559 C4551 0.929 . S
H4560 C4568 0.929 . S
H4561 C4570 0.930 . S
H4562 C4572 0.930 . S
H4563 C4575 0.929 . S
H4564 C4578 0.930 . S
H4565 C4580 0.960 . S
H4566 C4580 0.960 . S
H4567 C4580 0.960 . S
C4568 H4560 0.929 . S
C4568 C4569 1.377 . S
C4568 C4570 1.384 . S
C4569 C4568 1.377 . S
C4569 C4575 1.390 . S
C4570 H4561 0.930 . S
C4570 C4568 1.384 . S
C4570 C4571 1.372 . S
C4571 C4570 1.372 . S
C4571 C4572 1.400 . S
C4571 C4576 1.490 . S
C4572 H4562 0.930 . S
C4572 C4571 1.400 . S
C4572 C4575 1.386 . S
H4573 C4589 0.930 . S
H4574 C4590 0.931 . S
C4575 H4563 0.929 . S
C4575 C4569 1.390 . S
C4575 C4572 1.386 . S
C4576 C4571 1.490 . S
C4576 C4578 1.395 . S
C4576 C4579 1.403 . S
H4577 C4583 0.930 . S
C4578 H4564 0.930 . S
C4578 C4576 1.395 . S
C4578 C4581 1.403 . S
C4579 C4576 1.403 . S
C4579 C4580 1.524 . S
C4579 C4583 1.400 . S
C4580 H4565 0.960 . S
C4580 H4566 0.960 . S
C4580 H4567 0.960 . S
C4580 C4579 1.524 . S
C4581 C4578 1.403 . S
C4581 C4582 1.392 . S
C4581 C4585 1.495 . S
C4582 C4581 1.392 . S
C4582 C4583 1.385 . S
C4582 C4584 1.478 . S
C4583 H4577 0.930 . S
C4583 C4579 1.400 . S
C4583 C4582 1.385 . S
C4584 C4582 1.478 . S
C4584 C4586 1.381 . S
C4584 C4590 1.383 . S
C4585 C4581 1.495 . S
C4585 H4591 0.959 . S
C4585 H4592 0.961 . S
C4585 H4593 0.960 . S
C4586 C4584 1.381 . S
C4586 C4587 1.394 . S
C4586 H4594 0.930 . S
C4587 C4586 1.394 . S
C4587 C4588 1.383 . S
C4587 H4595 0.929 . S
C4588 C4587 1.383 . S
C4588 C4589 1.377 . S
C4589 H4573 0.930 . S
C4589 C4588 1.377 . S
C4589 C4590 1.379 . S
C4590 H4574 0.931 . S
C4590 C4584 1.383 . S
C4590 C4589 1.379 . S
H4591 C4585 0.959 . S
H4592 C4585 0.961 . S
H4593 C4585 0.960 . S
H4594 C4586 0.930 . S
H4595 C4587 0.929 . S
H4596 C4604 0.929 . S
H4597 C4606 0.930 . S
H4598 C4608 0.962 . S
H4599 C4611 0.929 1_565 S
H4600 C4614 0.930 . S
H4601 C4616 0.960 . S
H4602 C4616 0.960 . S
H4603 C4616 0.960 . S
C4604 H4596 0.929 . S
C4604 C4605 1.377 . S
C4604 C4606 1.384 . S
C4605 C4604 1.377 . S
C4605 C4611 1.390 . S
C4606 H4597 0.930 . S
C4606 C4604 1.384 . S
C4606 C4607 1.372 . S
C4607 C4606 1.372 . S
C4607 C4608 1.377 1_545 S
C4607 C4612 1.490 . S
C4608 H4598 0.962 . S
C4608 C4607 1.377 1_565 S
C4608 C4611 1.377 1_565 S
H4609 C4625 0.930 . S
H4610 C4626 0.931 . S
C4611 H4599 0.929 1_545 S
C4611 C4605 1.390 . S
C4611 C4608 1.377 1_545 S
C4612 C4607 1.490 . S
C4612 C4614 1.395 . S
C4612 C4615 1.403 1_545 S
H4613 C4619 0.930 . S
C4614 H4600 0.930 . S
C4614 C4612 1.395 . S
C4614 C4617 1.403 . S
C4615 C4612 1.403 1_565 S
C4615 C4616 1.524 . S
C4615 C4619 1.400 . S
C4616 H4601 0.960 . S
C4616 H4602 0.960 . S
C4616 H4603 0.960 . S
C4616 C4615 1.524 . S
C4617 C4614 1.403 . S
C4617 C4618 1.392 1_545 S
C4617 C4621 1.495 . S
C4618 C4617 1.392 1_565 S
C4618 C4619 1.385 . S
C4618 C4620 1.478 . S
C4619 H4613 0.930 . S
C4619 C4615 1.400 . S
C4619 C4618 1.385 . S
C4620 C4618 1.478 . S
C4620 C4622 1.381 1_565 S
C4620 C4626 1.383 . S
C4621 C4617 1.495 . S
C4621 H4627 0.959 . S
C4621 H4628 0.961 . S
C4621 H4629 0.960 . S
C4622 C4620 1.381 1_545 S
C4622 C4623 1.394 1_545 S
C4622 H4630 0.930 . S
C4623 C4622 1.394 1_565 S
C4623 C4624 1.383 . S
C4623 H4631 0.929 1_565 S
C4624 C4623 1.383 . S
C4624 C4625 1.377 . S
C4625 H4609 0.930 . S
C4625 C4624 1.377 . S
C4625 C4626 1.379 . S
C4626 H4610 0.931 . S
C4626 C4620 1.383 . S
C4626 C4625 1.379 . S
H4627 C4621 0.959 . S
H4628 C4621 0.961 . S
H4629 C4621 0.960 . S
H4630 C4622 0.930 . S
H4631 C4623 0.929 1_545 S
H4632 C4640 0.929 . S
H4633 C4642 0.930 . S
H4634 C4644 0.930 . S
H4635 C4647 0.929 . S
H4636 C4650 0.930 . S
H4637 C4652 0.960 . S
H4638 C4652 0.960 . S
H4639 C4652 0.960 . S
C4640 H4632 0.929 . S
C4640 C4641 1.377 . S
C4640 C4642 1.384 . S
C4641 C4640 1.377 . S
C4641 C4647 1.390 . S
C4642 H4633 0.930 . S
C4642 C4640 1.384 . S
C4642 C4643 1.372 . S
C4643 C4642 1.372 . S
C4643 C4644 1.400 . S
C4643 C4648 1.490 . S
C4644 H4634 0.930 . S
C4644 C4643 1.400 . S
C4644 C4647 1.386 . S
H4645 C4661 0.930 . S
H4646 C4662 0.931 . S
C4647 H4635 0.929 . S
C4647 C4641 1.390 . S
C4647 C4644 1.386 . S
C4648 C4643 1.490 . S
C4648 C4650 1.395 . S
C4648 C4651 1.403 . S
H4649 C4655 0.930 . S
C4650 H4636 0.930 . S
C4650 C4648 1.395 . S
C4650 C4653 1.403 . S
C4651 C4648 1.403 . S
C4651 C4652 1.524 . S
C4651 C4655 1.400 . S
C4652 H4637 0.960 . S
C4652 H4638 0.960 . S
C4652 H4639 0.960 . S
C4652 C4651 1.524 . S
C4653 C4650 1.403 . S
C4653 C4654 1.392 . S
C4653 C4657 1.495 . S
C4654 C4653 1.392 . S
C4654 C4655 1.385 . S
C4654 C4656 1.478 . S
C4655 H4649 0.930 . S
C4655 C4651 1.400 . S
C4655 C4654 1.385 . S
C4656 C4654 1.478 . S
C4656 C4658 1.381 . S
C4656 C4662 1.383 . S
C4657 C4653 1.495 . S
C4657 H4663 0.959 . S
C4657 H4664 0.961 . S
C4657 H4665 0.960 . S
C4658 C4656 1.381 . S
C4658 C4659 1.394 . S
C4658 H4666 0.930 . S
C4659 C4658 1.394 . S
C4659 C4660 1.383 . S
C4659 H4667 0.929 . S
C4660 C4659 1.383 . S
C4660 C4661 1.377 . S
C4661 H4645 0.930 . S
C4661 C4660 1.377 . S
C4661 C4662 1.379 . S
C4662 H4646 0.931 . S
C4662 C4656 1.383 . S
C4662 C4661 1.379 . S
H4663 C4657 0.959 . S
H4664 C4657 0.961 . S
H4665 C4657 0.960 . S
H4666 C4658 0.930 . S
H4667 C4659 0.929 . S
H4668 C4676 0.929 . S
H4669 C4678 0.930 1_565 S
H4670 C4680 0.930 1_655 S
H4671 C4683 0.929 . S
H4672 C4686 0.939 . S
H4673 C4688 0.960 . S
H4674 C4688 0.960 . S
H4675 C4688 0.960 . S
C4676 H4668 0.929 . S
C4676 C4677 1.377 . S
C4676 C4678 1.384 . S
C4677 C4676 1.377 . S
C4677 C4683 1.390 . S
C4678 H4669 0.930 1_545 S
C4678 C4676 1.384 . S
C4678 C4679 1.372 . S
C4679 C4678 1.372 . S
C4679 C4680 1.400 . S
C4679 C4684 1.490 . S
C4680 H4670 0.930 1_455 S
C4680 C4679 1.400 . S
C4680 C4683 1.386 . S
H4681 C4697 0.930 . S
H4682 C4698 0.931 1_545 S
C4683 H4671 0.929 . S
C4683 C4677 1.390 . S
C4683 C4680 1.386 . S
C4684 C4679 1.490 . S
C4684 C4686 1.444 . S
C4684 C4687 1.403 1_445 S
H4685 C4691 0.930 . S
C4686 H4672 0.939 . S
C4686 C4684 1.444 . S
C4686 C4689 1.348 1_556 S
C4687 C4684 1.403 1_665 S
C4687 C4688 1.524 . S
C4687 C4691 1.400 1_556 S
C4688 H4673 0.960 . S
C4688 H4674 0.960 . S
C4688 H4675 0.960 . S
C4688 C4687 1.524 . S
C4689 C4686 1.348 1_554 S
C4689 C4690 1.392 1_445 S
C4689 C4693 1.495 . S
C4690 C4689 1.392 1_665 S
C4690 C4691 1.385 . S
C4690 C4692 1.478 . S
C4691 H4685 0.930 . S
C4691 C4687 1.400 1_554 S
C4691 C4690 1.385 . S
C4692 C4690 1.478 . S
C4692 C4694 1.381 . S
C4692 C4698 1.383 . S
C4693 C4689 1.495 . S
C4693 H4699 0.959 . S
C4693 H4700 0.961 . S
C4693 H4701 0.960 . S
C4694 C4692 1.381 . S
C4694 C4695 1.394 . S
C4694 H4702 0.930 1_655 S
C4695 C4694 1.394 . S
C4695 C4696 1.383 . S
C4695 H4703 0.929 . S
C4696 C4695 1.383 . S
C4696 C4697 1.377 . S
C4697 H4681 0.930 . S
C4697 C4696 1.377 . S
C4697 C4698 1.379 . S
C4698 H4682 0.931 1_565 S
C4698 C4692 1.383 . S
C4698 C4697 1.379 . S
H4699 C4693 0.959 . S
H4700 C4693 0.961 . S
H4701 C4693 0.960 . S
H4702 C4694 0.930 1_455 S
H4703 C4695 0.929 . S
H4704 C4712 0.929 . S
H4705 C4714 0.930 . S
H4706 C4716 0.930 . S
H4707 C4719 0.929 . S
H4708 C4722 0.930 . S
H4709 C4724 0.960 . S
H4710 C4724 0.960 . S
H4711 C4724 0.960 . S
C4712 H4704 0.929 . S
C4712 C4713 1.377 . S
C4712 C4714 1.384 . S
C4713 C4712 1.377 . S
C4713 C4719 1.390 . S
C4714 H4705 0.930 . S
C4714 C4712 1.384 . S
C4714 C4715 1.372 . S
C4715 C4714 1.372 . S
C4715 C4716 1.400 . S
C4715 C4720 1.490 . S
C4716 H4706 0.930 . S
C4716 C4715 1.400 . S
C4716 C4719 1.386 . S
H4717 C4733 0.930 . S
H4718 C4734 0.931 . S
C4719 H4707 0.929 . S
C4719 C4713 1.390 . S
C4719 C4716 1.386 . S
C4720 C4715 1.490 . S
C4720 C4722 1.395 . S
C4720 C4723 1.403 . S
H4721 C4727 0.930 . S
C4722 H4708 0.930 . S
C4722 C4720 1.395 . S
C4722 C4725 1.403 . S
C4723 C4720 1.403 . S
C4723 C4724 1.524 . S
C4723 C4727 1.400 . S
C4724 H4709 0.960 . S
C4724 H4710 0.960 . S
C4724 H4711 0.960 . S
C4724 C4723 1.524 . S
C4725 C4722 1.403 . S
C4725 C4726 1.392 . S
C4725 C4729 1.495 . S
C4726 C4725 1.392 . S
C4726 C4727 1.385 . S
C4726 C4728 1.478 . S
C4727 H4721 0.930 . S
C4727 C4723 1.400 . S
C4727 C4726 1.385 . S
C4728 C4726 1.478 . S
C4728 C4730 1.381 . S
C4728 C4734 1.383 . S
C4729 C4725 1.495 . S
C4729 H4735 0.959 . S
C4729 H4736 0.961 . S
C4729 H4737 0.960 . S
C4730 C4728 1.381 . S
C4730 C4731 1.394 . S
C4730 H4738 0.930 . S
C4731 C4730 1.394 . S
C4731 C4732 1.383 . S
C4731 H4739 0.929 . S
C4732 C4731 1.383 . S
C4732 C4733 1.377 . S
C4733 H4717 0.930 . S
C4733 C4732 1.377 . S
C4733 C4734 1.379 . S
C4734 H4718 0.931 . S
C4734 C4728 1.383 . S
C4734 C4733 1.379 . S
H4735 C4729 0.959 . S
H4736 C4729 0.961 . S
H4737 C4729 0.960 . S
H4738 C4730 0.930 . S
H4739 C4731 0.929 . S
H4740 C4748 0.929 . S
H4741 C4750 0.930 . S
H4742 C4752 0.930 . S
H4743 C4755 0.929 . S
H4744 C4758 0.930 . S
H4745 C4760 0.960 . S
H4746 C4760 0.960 . S
H4747 C4760 0.960 . S
C4748 H4740 0.929 . S
C4748 C4749 1.377 . S
C4748 C4750 1.384 . S
C4749 C4748 1.377 . S
C4749 C4755 1.390 . S
C4750 H4741 0.930 . S
C4750 C4748 1.384 . S
C4750 C4751 1.372 . S
C4751 C4750 1.372 . S
C4751 C4752 1.400 . S
C4751 C4756 1.490 . S
C4752 H4742 0.930 . S
C4752 C4751 1.400 . S
C4752 C4755 1.386 . S
H4753 C4769 0.930 . S
H4754 C4770 0.931 . S
C4755 H4743 0.929 . S
C4755 C4749 1.390 . S
C4755 C4752 1.386 . S
C4756 C4751 1.490 . S
C4756 C4758 1.395 . S
C4756 C4759 1.403 . S
H4757 C4763 0.930 . S
C4758 H4744 0.930 . S
C4758 C4756 1.395 . S
C4758 C4761 1.403 . S
C4759 C4756 1.403 . S
C4759 C4760 1.524 . S
C4759 C4763 1.400 . S
C4760 H4745 0.960 . S
C4760 H4746 0.960 . S
C4760 H4747 0.960 . S
C4760 C4759 1.524 . S
C4761 C4758 1.403 . S
C4761 C4762 1.392 . S
C4761 C4765 1.495 . S
C4762 C4761 1.392 . S
C4762 C4763 1.385 . S
C4762 C4764 1.478 . S
C4763 H4757 0.930 . S
C4763 C4759 1.400 . S
C4763 C4762 1.385 . S
C4764 C4762 1.478 . S
C4764 C4766 1.381 . S
C4764 C4770 1.383 . S
C4765 C4761 1.495 . S
C4765 H4771 0.959 . S
C4765 H4772 0.961 . S
C4765 H4773 0.960 . S
C4766 C4764 1.381 . S
C4766 C4767 1.394 . S
C4766 H4774 0.930 . S
C4767 C4766 1.394 . S
C4767 C4768 1.383 . S
C4767 H4775 0.929 . S
C4768 C4767 1.383 . S
C4768 C4769 1.377 . S
C4769 H4753 0.930 . S
C4769 C4768 1.377 . S
C4769 C4770 1.379 . S
C4770 H4754 0.931 . S
C4770 C4764 1.383 . S
C4770 C4769 1.379 . S
H4771 C4765 0.959 . S
H4772 C4765 0.961 . S
H4773 C4765 0.960 . S
H4774 C4766 0.930 . S
H4775 C4767 0.929 . S
H4776 C4784 0.929 . S
H4777 C4786 0.930 . S
H4778 C4788 0.930 . S
H4779 C4791 0.929 . S
H4780 C4794 0.930 . S
H4781 C4796 0.960 . S
H4782 C4796 0.960 . S
H4783 C4796 0.960 . S
C4784 H4776 0.929 . S
C4784 C4785 1.377 . S
C4784 C4786 1.384 . S
C4785 C4784 1.377 . S
C4785 C4791 1.390 . S
C4786 H4777 0.930 . S
C4786 C4784 1.384 . S
C4786 C4787 1.372 . S
C4787 C4786 1.372 . S
C4787 C4788 1.400 . S
C4787 C4792 1.490 . S
C4788 H4778 0.930 . S
C4788 C4787 1.400 . S
C4788 C4791 1.386 . S
H4789 C4805 0.930 . S
H4790 C4806 0.931 . S
C4791 H4779 0.929 . S
C4791 C4785 1.390 . S
C4791 C4788 1.386 . S
C4792 C4787 1.490 . S
C4792 C4794 1.395 . S
C4792 C4795 1.403 . S
H4793 C4799 0.930 . S
C4794 H4780 0.930 . S
C4794 C4792 1.395 . S
C4794 C4797 1.403 . S
C4795 C4792 1.403 . S
C4795 C4796 1.524 . S
C4795 C4799 1.400 . S
C4796 H4781 0.960 . S
C4796 H4782 0.960 . S
C4796 H4783 0.960 . S
C4796 C4795 1.524 . S
C4797 C4794 1.403 . S
C4797 C4798 1.392 . S
C4797 C4801 1.495 . S
C4798 C4797 1.392 . S
C4798 C4799 1.385 . S
C4798 C4800 1.478 . S
C4799 H4793 0.930 . S
C4799 C4795 1.400 . S
C4799 C4798 1.385 . S
C4800 C4798 1.478 . S
C4800 C4802 1.381 . S
C4800 C4806 1.383 . S
C4801 C4797 1.495 . S
C4801 H4807 0.959 . S
C4801 H4808 0.961 . S
C4801 H4809 0.960 . S
C4802 C4800 1.381 . S
C4802 C4803 1.394 . S
C4802 H4810 0.930 . S
C4803 C4802 1.394 . S
C4803 C4804 1.383 . S
C4803 H4811 0.929 . S
C4804 C4803 1.383 . S
C4804 C4805 1.377 . S
C4805 H4789 0.930 . S
C4805 C4804 1.377 . S
C4805 C4806 1.379 . S
C4806 H4790 0.931 . S
C4806 C4800 1.383 . S
C4806 C4805 1.379 . S
H4807 C4801 0.959 . S
H4808 C4801 0.961 . S
H4809 C4801 0.960 . S
H4810 C4802 0.930 . S
H4811 C4803 0.929 . S
H4812 C4820 0.929 . S
H4813 C4822 0.930 . S
H4814 C4824 0.930 . S
H4815 C4827 0.929 . S
H4816 C4830 0.930 . S
H4817 C4832 0.960 . S
H4818 C4832 0.960 . S
H4819 C4832 0.960 . S
C4820 H4812 0.929 . S
C4820 C4821 1.377 . S
C4820 C4822 1.384 . S
C4821 C4820 1.377 . S
C4821 C4827 1.390 . S
C4822 H4813 0.930 . S
C4822 C4820 1.384 . S
C4822 C4823 1.372 . S
C4823 C4822 1.372 . S
C4823 C4824 1.400 . S
C4823 C4828 1.490 . S
C4824 H4814 0.930 . S
C4824 C4823 1.400 . S
C4824 C4827 1.386 . S
H4825 C4841 0.930 . S
H4826 C4842 0.931 . S
C4827 H4815 0.929 . S
C4827 C4821 1.390 . S
C4827 C4824 1.386 . S
C4828 C4823 1.490 . S
C4828 C4830 1.395 . S
C4828 C4831 1.403 . S
H4829 C4835 0.930 . S
C4830 H4816 0.930 . S
C4830 C4828 1.395 . S
C4830 C4833 1.403 . S
C4831 C4828 1.403 . S
C4831 C4832 1.524 . S
C4831 C4835 1.400 . S
C4832 H4817 0.960 . S
C4832 H4818 0.960 . S
C4832 H4819 0.960 . S
C4832 C4831 1.524 . S
C4833 C4830 1.403 . S
C4833 C4834 1.392 . S
C4833 C4837 1.495 . S
C4834 C4833 1.392 . S
C4834 C4835 1.385 . S
C4834 C4836 1.478 . S
C4835 H4829 0.930 . S
C4835 C4831 1.400 . S
C4835 C4834 1.385 . S
C4836 C4834 1.478 . S
C4836 C4838 1.381 . S
C4836 C4842 1.383 . S
C4837 C4833 1.495 . S
C4837 H4843 0.959 . S
C4837 H4844 0.961 . S
C4837 H4845 0.960 . S
C4838 C4836 1.381 . S
C4838 C4839 1.394 . S
C4838 H4846 0.930 . S
C4839 C4838 1.394 . S
C4839 C4840 1.383 . S
C4839 H4847 0.929 . S
C4840 C4839 1.383 . S
C4840 C4841 1.377 . S
C4841 H4825 0.930 . S
C4841 C4840 1.377 . S
C4841 C4842 1.379 . S
C4842 H4826 0.931 . S
C4842 C4836 1.383 . S
C4842 C4841 1.379 . S
H4843 C4837 0.959 . S
H4844 C4837 0.961 . S
H4845 C4837 0.960 . S
H4846 C4838 0.930 . S
H4847 C4839 0.929 . S
H4848 C4856 0.929 . S
H4849 C4858 0.930 . S
H4850 C4860 0.930 . S
H4851 C4863 0.929 . S
H4852 C4866 0.940 . S
H4853 C4868 0.960 . S
H4854 C4868 0.960 . S
H4855 C4868 0.960 . S
C4856 H4848 0.929 . S
C4856 C4857 1.377 . S
C4856 C4858 1.384 . S
C4857 C4856 1.377 . S
C4857 C4863 1.390 . S
C4858 H4849 0.930 . S
C4858 C4856 1.384 . S
C4858 C4859 1.372 . S
C4859 C4858 1.372 . S
C4859 C4860 1.400 . S
C4859 C4864 1.490 . S
C4860 H4850 0.930 . S
C4860 C4859 1.400 . S
C4860 C4863 1.386 . S
H4861 C4877 0.930 . S
H4862 C4878 0.931 . S
C4863 H4851 0.929 . S
C4863 C4857 1.390 . S
C4863 C4860 1.386 . S
C4864 C4859 1.490 . S
C4864 C4866 1.446 . S
C4864 C4867 1.403 . S
H4865 C4871 0.930 . S
C4866 H4852 0.940 . S
C4866 C4864 1.446 . S
C4866 C4869 1.345 1_554 S
C4867 C4864 1.403 . S
C4867 C4868 1.524 . S
C4867 C4871 1.400 1_554 S
C4868 H4853 0.960 . S
C4868 H4854 0.960 . S
C4868 H4855 0.960 . S
C4868 C4867 1.524 . S
C4869 C4866 1.345 1_556 S
C4869 C4870 1.392 . S
C4869 C4873 1.495 . S
C4870 C4869 1.392 . S
C4870 C4871 1.385 . S
C4870 C4872 1.478 . S
C4871 H4865 0.930 . S
C4871 C4867 1.400 1_556 S
C4871 C4870 1.385 . S
C4872 C4870 1.478 . S
C4872 C4874 1.381 . S
C4872 C4878 1.383 . S
C4873 C4869 1.495 . S
C4873 H4879 0.959 . S
C4873 H4880 0.961 . S
C4873 H4881 0.960 . S
C4874 C4872 1.381 . S
C4874 C4875 1.394 . S
C4874 H4882 0.930 . S
C4875 C4874 1.394 . S
C4875 C4876 1.383 . S
C4875 H4883 0.929 . S
C4876 C4875 1.383 . S
C4876 C4877 1.377 . S
C4877 H4861 0.930 . S
C4877 C4876 1.377 . S
C4877 C4878 1.379 . S
C4878 H4862 0.931 . S
C4878 C4872 1.383 . S
C4878 C4877 1.379 . S
H4879 C4873 0.959 . S
H4880 C4873 0.961 . S
H4881 C4873 0.960 . S
H4882 C4874 0.930 . S
H4883 C4875 0.929 . S
H4884 C4892 0.929 . S
H4885 C4894 0.930 . S
H4886 C4896 0.908 1_455 S
H4887 C4899 0.929 . S
H4888 C4902 0.930 . S
H4889 C4904 0.960 . S
H4890 C4904 0.960 . S
H4891 C4904 0.960 . S
C4892 H4884 0.929 . S
C4892 C4893 1.377 . S
C4892 C4894 1.384 . S
C4893 C4892 1.377 . S
C4893 C4899 1.390 . S
C4894 H4885 0.930 . S
C4894 C4892 1.384 . S
C4894 C4895 1.372 . S
C4895 C4894 1.372 . S
C4895 C4896 1.400 . S
C4895 C4900 1.490 . S
C4896 H4886 0.908 1_655 S
C4896 C4895 1.400 . S
C4896 C4899 1.386 . S
H4897 C4913 0.930 . S
H4898 C4914 0.931 . S
C4899 H4887 0.929 . S
C4899 C4893 1.390 . S
C4899 C4896 1.386 . S
C4900 C4895 1.490 . S
C4900 C4902 1.395 . S
C4900 C4903 1.403 1_655 S
H4901 C4907 0.930 . S
C4902 H4888 0.930 . S
C4902 C4900 1.395 . S
C4902 C4905 1.403 . S
C4903 C4900 1.403 1_455 S
C4903 C4904 1.524 . S
C4903 C4907 1.400 . S
C4904 H4889 0.960 . S
C4904 H4890 0.960 . S
C4904 H4891 0.960 . S
C4904 C4903 1.524 . S
C4905 C4902 1.403 . S
C4905 C4906 1.392 1_655 S
C4905 C4909 1.495 . S
C4906 C4905 1.392 1_455 S
C4906 C4907 1.385 . S
C4906 C4908 1.478 . S
C4907 H4901 0.930 . S
C4907 C4903 1.400 . S
C4907 C4906 1.385 . S
C4908 C4906 1.478 . S
C4908 C4910 1.381 . S
C4908 C4914 1.383 . S
C4909 C4905 1.495 . S
C4909 H4915 0.959 . S
C4909 H4916 0.961 . S
C4909 H4917 0.960 . S
C4910 C4908 1.381 . S
C4910 C4911 1.394 . S
C4910 H4918 0.930 1_455 S
C4911 C4910 1.394 . S
C4911 C4912 1.383 . S
C4911 H4919 0.929 . S
C4912 C4911 1.383 . S
C4912 C4913 1.377 . S
C4913 H4897 0.930 . S
C4913 C4912 1.377 . S
C4913 C4914 1.379 . S
C4914 H4898 0.931 . S
C4914 C4908 1.383 . S
C4914 C4913 1.379 . S
H4915 C4909 0.959 . S
H4916 C4909 0.961 . S
H4917 C4909 0.960 . S
H4918 C4910 0.930 1_655 S
H4919 C4911 0.929 . S
H4920 C4928 0.929 . S
H4921 C4930 0.930 . S
H4922 C4932 0.930 1_655 S
H4923 C4935 0.929 . S
H4924 C4938 0.930 . S
H4925 C4940 0.897 1_556 S
H4926 C4940 0.960 1_455 S
H4927 C4940 0.960 . S
C4928 H4920 0.929 . S
C4928 C4929 1.377 . S
C4928 C4930 1.384 . S
C4929 C4928 1.377 . S
C4929 C4935 1.390 . S
C4930 H4921 0.930 . S
C4930 C4928 1.384 . S
C4930 C4931 1.372 . S
C4931 C4930 1.372 . S
C4931 C4932 1.400 . S
C4931 C4936 1.490 . S
C4932 H4922 0.930 1_455 S
C4932 C4931 1.400 . S
C4932 C4935 1.386 . S
H4933 C4949 0.930 . S
H4934 C4950 0.931 . S
C4935 H4923 0.929 . S
C4935 C4929 1.390 . S
C4935 C4932 1.386 . S
C4936 C4931 1.490 . S
C4936 C4938 1.395 . S
C4936 C4939 1.390 1_455 S
H4937 C4943 0.930 . S
C4938 H4924 0.930 . S
C4938 C4936 1.395 . S
C4938 C4941 1.403 1_554 S
C4939 C4936 1.390 1_655 S
C4939 C4940 1.526 . S
C4939 C4943 1.411 1_554 S
C4940 H4925 0.897 1_554 S
C4940 H4926 0.960 1_655 S
C4940 H4927 0.960 . S
C4940 C4939 1.526 . S
C4941 C4938 1.403 1_556 S
C4941 C4942 1.392 1_455 S
C4941 C4945 1.495 . S
C4942 C4941 1.392 1_655 S
C4942 C4943 1.385 . S
C4942 C4944 1.478 . S
C4943 H4937 0.930 . S
C4943 C4939 1.411 1_556 S
C4943 C4942 1.385 . S
C4944 C4942 1.478 . S
C4944 C4946 1.381 . S
C4944 C4950 1.383 . S
C4945 C4941 1.495 . S
C4945 H4951 0.957 1_556 S
C4945 H4952 0.961 1_455 S
C4945 H4953 0.960 . S
C4946 C4944 1.381 . S
C4946 C4947 1.394 . S
C4946 H4954 0.930 1_655 S
C4947 C4946 1.394 . S
C4947 C4948 1.383 . S
C4947 H4955 0.929 . S
C4948 C4947 1.383 . S
C4948 C4949 1.377 . S
C4949 H4933 0.930 . S
C4949 C4948 1.377 . S
C4949 C4950 1.379 . S
C4950 H4934 0.931 . S
C4950 C4944 1.383 . S
C4950 C4949 1.379 . S
H4951 C4945 0.957 1_554 S
H4952 C4945 0.961 1_655 S
H4953 C4945 0.960 . S
H4954 C4946 0.930 1_455 S
H4955 C4947 0.929 . S
H4956 C4964 0.929 . S
H4957 C4966 0.930 . S
H4958 C4968 0.930 . S
H4959 C4971 0.929 . S
H4960 C4974 0.930 . S
H4961 C4976 0.960 . S
H4962 C4976 0.960 . S
H4963 C4976 0.960 . S
C4964 H4956 0.929 . S
C4964 C4965 1.377 . S
C4964 C4966 1.384 . S
C4965 C4964 1.377 . S
C4965 C4971 1.390 . S
C4966 H4957 0.930 . S
C4966 C4964 1.384 . S
C4966 C4967 1.372 . S
C4967 C4966 1.372 . S
C4967 C4968 1.400 . S
C4967 C4972 1.490 . S
C4968 H4958 0.930 . S
C4968 C4967 1.400 . S
C4968 C4971 1.386 . S
H4969 C4985 0.930 . S
H4970 C4986 0.931 . S
C4971 H4959 0.929 . S
C4971 C4965 1.390 . S
C4971 C4968 1.386 . S
C4972 C4967 1.490 . S
C4972 C4974 1.395 . S
C4972 C4975 1.403 . S
H4973 C4979 0.930 . S
C4974 H4960 0.930 . S
C4974 C4972 1.395 . S
C4974 C4977 1.403 . S
C4975 C4972 1.403 . S
C4975 C4976 1.524 . S
C4975 C4979 1.400 . S
C4976 H4961 0.960 . S
C4976 H4962 0.960 . S
C4976 H4963 0.960 . S
C4976 C4975 1.524 . S
C4977 C4974 1.403 . S
C4977 C4978 1.392 . S
C4977 C4981 1.495 . S
C4978 C4977 1.392 . S
C4978 C4979 1.385 . S
C4978 C4980 1.478 . S
C4979 H4973 0.930 . S
C4979 C4975 1.400 . S
C4979 C4978 1.385 . S
C4980 C4978 1.478 . S
C4980 C4982 1.381 . S
C4980 C4986 1.383 . S
C4981 C4977 1.495 . S
C4981 H4987 0.959 . S
C4981 H4988 0.961 . S
C4981 H4989 0.960 . S
C4982 C4980 1.381 . S
C4982 C4983 1.394 . S
C4982 H4990 0.930 . S
C4983 C4982 1.394 . S
C4983 C4984 1.383 . S
C4983 H4991 0.929 . S
C4984 C4983 1.383 . S
C4984 C4985 1.377 . S
C4985 H4969 0.930 . S
C4985 C4984 1.377 . S
C4985 C4986 1.379 . S
C4986 H4970 0.931 . S
C4986 C4980 1.383 . S
C4986 C4985 1.379 . S
H4987 C4981 0.959 . S
H4988 C4981 0.961 . S
H4989 C4981 0.960 . S
H4990 C4982 0.930 . S
H4991 C4983 0.929 . S
H4992 C5000 0.929 . S
H4993 C5002 0.930 . S
H4994 C5004 0.930 . S
H4995 C5007 0.929 . S
H4996 C5010 0.930 . S
H4997 C5012 0.960 . S
H4998 C5012 0.960 . S
H4999 C5012 0.960 . S
C5000 H4992 0.929 . S
C5000 C5001 1.377 . S
C5000 C5002 1.384 . S
C5001 C5000 1.377 . S
C5001 C5007 1.390 . S
C5002 H4993 0.930 . S
C5002 C5000 1.384 . S
C5002 C5003 1.372 . S
C5003 C5002 1.372 . S
C5003 C5004 1.400 . S
C5003 C5008 1.490 . S
C5004 H4994 0.930 . S
C5004 C5003 1.400 . S
C5004 C5007 1.386 . S
H5005 C5021 0.930 . S
H5006 C5022 0.931 . S
C5007 H4995 0.929 . S
C5007 C5001 1.390 . S
C5007 C5004 1.386 . S
C5008 C5003 1.490 . S
C5008 C5010 1.395 . S
C5008 C5011 1.403 . S
H5009 C5015 0.930 . S
C5010 H4996 0.930 . S
C5010 C5008 1.395 . S
C5010 C5013 1.403 . S
C5011 C5008 1.403 . S
C5011 C5012 1.524 . S
C5011 C5015 1.400 . S
C5012 H4997 0.960 . S
C5012 H4998 0.960 . S
C5012 H4999 0.960 . S
C5012 C5011 1.524 . S
C5013 C5010 1.403 . S
C5013 C5014 1.392 . S
C5013 C5017 1.495 . S
C5014 C5013 1.392 . S
C5014 C5015 1.385 . S
C5014 C5016 1.478 . S
C5015 H5009 0.930 . S
C5015 C5011 1.400 . S
C5015 C5014 1.385 . S
C5016 C5014 1.478 . S
C5016 C5018 1.381 . S
C5016 C5022 1.383 . S
C5017 C5013 1.495 . S
C5017 H5023 0.959 . S
C5017 H5024 0.961 . S
C5017 H5025 0.960 . S
C5018 C5016 1.381 . S
C5018 C5019 1.394 . S
C5018 H5026 0.930 . S
C5019 C5018 1.394 . S
C5019 C5020 1.383 . S
C5019 H5027 0.929 1_545 S
C5020 C5019 1.383 . S
C5020 C5021 1.377 . S
C5021 H5005 0.930 . S
C5021 C5020 1.377 . S
C5021 C5022 1.379 . S
C5022 H5006 0.931 . S
C5022 C5016 1.383 . S
C5022 C5021 1.379 . S
H5023 C5017 0.959 . S
H5024 C5017 0.961 . S
H5025 C5017 0.960 . S
H5026 C5018 0.930 . S
H5027 C5019 0.929 1_565 S
H5028 C5036 0.929 . S
H5029 C5038 0.930 . S
H5030 C5040 0.930 . S
H5031 C5043 0.929 . S
H5032 C5046 0.930 . S
H5033 C5048 0.960 . S
H5034 C5048 0.960 . S
H5035 C5048 0.960 . S
C5036 H5028 0.929 . S
C5036 C5037 1.377 . S
C5036 C5038 1.384 . S
C5037 C5036 1.377 . S
C5037 C5043 1.390 . S
C5038 H5029 0.930 . S
C5038 C5036 1.384 . S
C5038 C5039 1.372 . S
C5039 C5038 1.372 . S
C5039 C5040 1.400 . S
C5039 C5044 1.490 . S
C5040 H5030 0.930 . S
C5040 C5039 1.400 . S
C5040 C5043 1.386 . S
H5041 C5057 0.930 . S
H5042 C5058 0.931 . S
C5043 H5031 0.929 . S
C5043 C5037 1.390 . S
C5043 C5040 1.386 . S
C5044 C5039 1.490 . S
C5044 C5046 1.395 . S
C5044 C5047 1.403 . S
H5045 C5051 0.930 . S
C5046 H5032 0.930 . S
C5046 C5044 1.395 . S
C5046 C5049 1.403 . S
C5047 C5044 1.403 . S
C5047 C5048 1.524 . S
C5047 C5051 1.400 . S
C5048 H5033 0.960 . S
C5048 H5034 0.960 . S
C5048 H5035 0.960 . S
C5048 C5047 1.524 . S
C5049 C5046 1.403 . S
C5049 C5050 1.392 . S
C5049 C5053 1.495 . S
C5050 C5049 1.392 . S
C5050 C5051 1.385 . S
C5050 C5052 1.478 . S
C5051 H5045 0.930 . S
C5051 C5047 1.400 . S
C5051 C5050 1.385 . S
C5052 C5050 1.478 . S
C5052 C5054 1.381 . S
C5052 C5058 1.383 . S
C5053 C5049 1.495 . S
C5053 H5059 0.959 . S
C5053 H5060 0.961 . S
C5053 H5061 0.960 . S
C5054 C5052 1.381 . S
C5054 C5055 1.394 . S
C5054 H5062 0.930 . S
C5055 C5054 1.394 . S
C5055 C5056 1.383 . S
C5055 H5063 0.894 1_545 S
C5056 C5055 1.383 . S
C5056 C5057 1.377 . S
C5057 H5041 0.930 . S
C5057 C5056 1.377 . S
C5057 C5058 1.379 . S
C5058 H5042 0.931 . S
C5058 C5052 1.383 . S
C5058 C5057 1.379 . S
H5059 C5053 0.959 . S
H5060 C5053 0.961 . S
H5061 C5053 0.960 . S
H5062 C5054 0.930 . S
H5063 C5055 0.894 1_565 S
H5064 C5072 0.929 . S
H5065 C5074 0.930 . S
H5066 C5076 0.930 . S
H5067 C5079 0.929 . S
H5068 C5082 0.930 . S
H5069 C5084 0.960 . S
H5070 C5084 0.960 . S
H5071 C5084 0.960 . S
C5072 H5064 0.929 . S
C5072 C5073 1.377 . S
C5072 C5074 1.384 . S
C5073 C5072 1.377 . S
C5073 C5079 1.390 . S
C5074 H5065 0.930 . S
C5074 C5072 1.384 . S
C5074 C5075 1.372 . S
C5075 C5074 1.372 . S
C5075 C5076 1.400 . S
C5075 C5080 1.490 . S
C5076 H5066 0.930 . S
C5076 C5075 1.400 . S
C5076 C5079 1.386 . S
H5077 C5093 0.930 . S
H5078 C5094 0.931 . S
C5079 H5067 0.929 . S
C5079 C5073 1.390 . S
C5079 C5076 1.386 . S
C5080 C5075 1.490 . S
C5080 C5082 1.395 . S
C5080 C5083 1.403 . S
H5081 C5087 0.930 . S
C5082 H5068 0.930 . S
C5082 C5080 1.395 . S
C5082 C5085 1.403 . S
C5083 C5080 1.403 . S
C5083 C5084 1.524 . S
C5083 C5087 1.400 . S
C5084 H5069 0.960 . S
C5084 H5070 0.960 . S
C5084 H5071 0.960 . S
C5084 C5083 1.524 . S
C5085 C5082 1.403 . S
C5085 C5086 1.392 . S
C5085 C5089 1.495 . S
C5086 C5085 1.392 . S
C5086 C5087 1.385 . S
C5086 C5088 1.478 . S
C5087 H5081 0.930 . S
C5087 C5083 1.400 . S
C5087 C5086 1.385 . S
C5088 C5086 1.478 . S
C5088 C5090 1.381 . S
C5088 C5094 1.383 . S
C5089 C5085 1.495 . S
C5089 H5095 0.959 . S
C5089 H5096 0.961 . S
C5089 H5097 0.960 . S
C5090 C5088 1.381 . S
C5090 C5091 1.394 . S
C5090 H5098 0.930 . S
C5091 C5090 1.394 . S
C5091 C5092 1.383 . S
C5091 H5099 0.929 . S
C5092 C5091 1.383 . S
C5092 C5093 1.377 . S
C5093 H5077 0.930 . S
C5093 C5092 1.377 . S
C5093 C5094 1.379 . S
C5094 H5078 0.931 . S
C5094 C5088 1.383 . S
C5094 C5093 1.379 . S
H5095 C5089 0.959 . S
H5096 C5089 0.961 . S
H5097 C5089 0.960 . S
H5098 C5090 0.930 . S
H5099 C5091 0.929 . S
H5100 C5108 0.929 . S
H5101 C5110 0.930 . S
H5102 C5112 0.930 . S
H5103 C5115 0.929 . S
H5104 C5118 0.930 . S
H5105 C5120 0.960 . S
H5106 C5120 0.960 . S
H5107 C5120 0.960 . S
C5108 H5100 0.929 . S
C5108 C5109 1.377 . S
C5108 C5110 1.384 . S
C5109 C5108 1.377 . S
C5109 C5115 1.390 . S
C5110 H5101 0.930 . S
C5110 C5108 1.384 . S
C5110 C5111 1.372 . S
C5111 C5110 1.372 . S
C5111 C5112 1.400 . S
C5111 C5116 1.490 . S
C5112 H5102 0.930 . S
C5112 C5111 1.400 . S
C5112 C5115 1.386 . S
H5113 C5129 0.930 . S
H5114 C5130 0.931 . S
C5115 H5103 0.929 . S
C5115 C5109 1.390 . S
C5115 C5112 1.386 . S
C5116 C5111 1.490 . S
C5116 C5118 1.395 . S
C5116 C5119 1.403 . S
H5117 C5123 0.930 . S
C5118 H5104 0.930 . S
C5118 C5116 1.395 . S
C5118 C5121 1.403 . S
C5119 C5116 1.403 . S
C5119 C5120 1.524 . S
C5119 C5123 1.400 . S
C5120 H5105 0.960 . S
C5120 H5106 0.960 . S
C5120 H5107 0.960 . S
C5120 C5119 1.524 . S
C5121 C5118 1.403 . S
C5121 C5122 1.392 . S
C5121 C5125 1.495 . S
C5122 C5121 1.392 . S
C5122 C5123 1.385 . S
C5122 C5124 1.478 . S
C5123 H5117 0.930 . S
C5123 C5119 1.400 . S
C5123 C5122 1.385 . S
C5124 C5122 1.478 . S
C5124 C5126 1.381 . S
C5124 C5130 1.383 . S
C5125 C5121 1.495 . S
C5125 H5131 0.959 . S
C5125 H5132 0.961 . S
C5125 H5133 0.960 . S
C5126 C5124 1.381 . S
C5126 C5127 1.394 . S
C5126 H5134 0.930 . S
C5127 C5126 1.394 . S
C5127 C5128 1.383 . S
C5127 H5135 0.929 . S
C5128 C5127 1.383 . S
C5128 C5129 1.377 . S
C5129 H5113 0.930 . S
C5129 C5128 1.377 . S
C5129 C5130 1.379 . S
C5130 H5114 0.931 . S
C5130 C5124 1.383 . S
C5130 C5129 1.379 . S
H5131 C5125 0.959 . S
H5132 C5125 0.961 . S
H5133 C5125 0.960 . S
H5134 C5126 0.930 . S
H5135 C5127 0.929 . S
H5136 C5144 0.929 . S
H5137 C5146 0.930 . S
H5138 C5148 0.930 . S
H5139 C5151 0.929 . S
H5140 C5154 0.930 . S
H5141 C5156 0.960 . S
H5142 C5156 0.960 . S
H5143 C5156 0.960 . S
C5144 H5136 0.929 . S
C5144 C5145 1.377 . S
C5144 C5146 1.384 . S
C5145 C5144 1.377 . S
C5145 C5151 1.390 . S
C5146 H5137 0.930 . S
C5146 C5144 1.384 . S
C5146 C5147 1.372 . S
C5147 C5146 1.372 . S
C5147 C5148 1.400 . S
C5147 C5152 1.490 . S
C5148 H5138 0.930 . S
C5148 C5147 1.400 . S
C5148 C5151 1.386 . S
H5149 C5165 0.930 1_545 S
H5150 C5166 0.931 . S
C5151 H5139 0.929 . S
C5151 C5145 1.390 . S
C5151 C5148 1.386 . S
C5152 C5147 1.490 . S
C5152 C5154 1.395 . S
C5152 C5155 1.403 . S
H5153 C5159 0.930 . S
C5154 H5140 0.930 . S
C5154 C5152 1.395 . S
C5154 C5157 1.403 . S
C5155 C5152 1.403 . S
C5155 C5156 1.524 . S
C5155 C5159 1.400 . S
C5156 H5141 0.960 . S
C5156 H5142 0.960 . S
C5156 H5143 0.960 . S
C5156 C5155 1.524 . S
C5157 C5154 1.403 . S
C5157 C5158 1.392 . S
C5157 C5161 1.495 . S
C5158 C5157 1.392 . S
C5158 C5159 1.385 . S
C5158 C5160 1.478 . S
C5159 H5153 0.930 . S
C5159 C5155 1.400 . S
C5159 C5158 1.385 . S
C5160 C5158 1.478 . S
C5160 C5162 1.381 . S
C5160 C5166 1.383 . S
C5161 C5157 1.495 . S
C5161 H5167 0.959 . S
C5161 H5168 0.961 . S
C5161 H5169 0.960 . S
C5162 C5160 1.381 . S
C5162 C5163 1.394 . S
C5162 H5170 0.930 . S
C5163 C5162 1.394 . S
C5163 C5164 1.383 . S
C5163 H5171 0.929 . S
C5164 C5163 1.383 . S
C5164 C5165 1.377 . S
C5165 H5149 0.930 1_565 S
C5165 C5164 1.377 . S
C5165 C5166 1.379 . S
C5166 H5150 0.931 . S
C5166 C5160 1.383 . S
C5166 C5165 1.379 . S
H5167 C5161 0.959 . S
H5168 C5161 0.961 . S
H5169 C5161 0.960 . S
H5170 C5162 0.930 . S
H5171 C5163 0.929 . S
H5172 C5180 0.929 . S
H5173 C5182 0.930 . S
H5174 C5184 0.930 . S
H5175 C5187 0.929 1_545 S
H5176 C5190 0.930 . S
H5177 C5192 0.960 . S
H5178 C5192 0.960 . S
H5179 C5192 0.960 . S
C5180 H5172 0.929 . S
C5180 C5181 1.377 . S
C5180 C5182 1.384 . S
C5181 C5180 1.377 . S
C5181 C5187 1.390 . S
C5182 H5173 0.930 . S
C5182 C5180 1.384 . S
C5182 C5183 1.372 . S
C5183 C5182 1.372 . S
C5183 C5184 1.400 . S
C5183 C5188 1.490 . S
C5184 H5174 0.930 . S
C5184 C5183 1.400 . S
C5184 C5187 1.386 . S
H5185 C5201 0.930 . S
H5186 C5202 0.931 . S
C5187 H5175 0.929 1_565 S
C5187 C5181 1.390 . S
C5187 C5184 1.386 . S
C5188 C5183 1.490 . S
C5188 C5190 1.395 . S
C5188 C5191 1.403 . S
H5189 C5195 0.930 . S
C5190 H5176 0.930 . S
C5190 C5188 1.395 . S
C5190 C5193 1.403 . S
C5191 C5188 1.403 . S
C5191 C5192 1.524 . S
C5191 C5195 1.400 . S
C5192 H5177 0.960 . S
C5192 H5178 0.960 . S
C5192 H5179 0.960 . S
C5192 C5191 1.524 . S
C5193 C5190 1.403 . S
C5193 C5194 1.392 . S
C5193 C5197 1.495 . S
C5194 C5193 1.392 . S
C5194 C5195 1.385 . S
C5194 C5196 1.478 . S
C5195 H5189 0.930 . S
C5195 C5191 1.400 . S
C5195 C5194 1.385 . S
C5196 C5194 1.478 . S
C5196 C5198 1.381 . S
C5196 C5202 1.383 . S
C5197 C5193 1.495 . S
C5197 H5203 0.959 . S
C5197 H5204 0.961 . S
C5197 H5205 0.960 . S
C5198 C5196 1.381 . S
C5198 C5199 1.394 . S
C5198 H5206 0.930 . S
C5199 C5198 1.394 . S
C5199 C5200 1.383 . S
C5199 H5207 0.929 . S
C5200 C5199 1.383 . S
C5200 C5201 1.377 . S
C5201 H5185 0.930 . S
C5201 C5200 1.377 . S
C5201 C5202 1.379 . S
C5202 H5186 0.931 . S
C5202 C5196 1.383 . S
C5202 C5201 1.379 . S
H5203 C5197 0.959 . S
H5204 C5197 0.961 . S
H5205 C5197 0.960 . S
H5206 C5198 0.930 . S
H5207 C5199 0.929 . S
H5208 C5216 0.929 . S
H5209 C5218 0.930 . S
H5210 C5220 0.930 . S
H5211 C5223 0.929 1_565 S
H5212 C5226 0.930 . S
H5213 C5228 0.960 . S
H5214 C5228 0.960 . S
H5215 C5228 0.960 . S
C5216 H5208 0.929 . S
C5216 C5217 1.377 . S
C5216 C5218 1.384 . S
C5217 C5216 1.377 . S
C5217 C5223 1.390 . S
C5218 H5209 0.930 . S
C5218 C5216 1.384 . S
C5218 C5219 1.372 . S
C5219 C5218 1.372 . S
C5219 C5220 1.400 . S
C5219 C5224 1.490 . S
C5220 H5210 0.930 . S
C5220 C5219 1.400 . S
C5220 C5223 1.386 . S
H5221 C5237 0.930 . S
H5222 C5238 0.931 . S
C5223 H5211 0.929 1_545 S
C5223 C5217 1.390 . S
C5223 C5220 1.386 . S
C5224 C5219 1.490 . S
C5224 C5226 1.395 . S
C5224 C5227 1.403 . S
H5225 C5231 0.930 . S
C5226 H5212 0.930 . S
C5226 C5224 1.395 . S
C5226 C5229 1.403 . S
C5227 C5224 1.403 . S
C5227 C5228 1.524 . S
C5227 C5231 1.400 . S
C5228 H5213 0.960 . S
C5228 H5214 0.960 . S
C5228 H5215 0.960 . S
C5228 C5227 1.524 . S
C5229 C5226 1.403 . S
C5229 C5230 1.392 . S
C5229 C5233 1.495 . S
C5230 C5229 1.392 . S
C5230 C5231 1.385 . S
C5230 C5232 1.478 . S
C5231 H5225 0.930 . S
C5231 C5227 1.400 . S
C5231 C5230 1.385 . S
C5232 C5230 1.478 . S
C5232 C5234 1.381 . S
C5232 C5238 1.383 . S
C5233 C5229 1.495 . S
C5233 H5239 0.959 . S
C5233 H5240 0.961 . S
C5233 H5241 0.960 . S
C5234 C5232 1.381 . S
C5234 C5235 1.394 . S
C5234 H5242 0.930 . S
C5235 C5234 1.394 . S
C5235 C5236 1.383 . S
C5235 H5243 0.929 . S
C5236 C5235 1.383 . S
C5236 C5237 1.377 . S
C5237 H5221 0.930 . S
C5237 C5236 1.377 . S
C5237 C5238 1.379 . S
C5238 H5222 0.931 . S
C5238 C5232 1.383 . S
C5238 C5237 1.379 . S
H5239 C5233 0.959 . S
H5240 C5233 0.961 . S
H5241 C5233 0.960 . S
H5242 C5234 0.930 . S
H5243 C5235 0.929 . S
H5244 C5252 0.929 . S
H5245 C5254 0.930 . S
H5246 C5256 0.930 . S
H5247 C5259 0.929 . S
H5248 C5262 0.930 . S
H5249 C5264 0.960 . S
H5250 C5264 0.960 . S
H5251 C5264 0.960 . S
C5252 H5244 0.929 . S
C5252 C5253 1.377 . S
C5252 C5254 1.384 . S
C5253 C5252 1.377 . S
C5253 C5259 1.390 . S
C5254 H5245 0.930 . S
C5254 C5252 1.384 . S
C5254 C5255 1.372 . S
C5255 C5254 1.372 . S
C5255 C5256 1.400 . S
C5255 C5260 1.490 . S
C5256 H5246 0.930 . S
C5256 C5255 1.400 . S
C5256 C5259 1.386 . S
H5257 C5273 0.930 . S
H5258 C5274 0.931 . S
C5259 H5247 0.929 . S
C5259 C5253 1.390 . S
C5259 C5256 1.386 . S
C5260 C5255 1.490 . S
C5260 C5262 1.395 . S
C5260 C5263 1.403 . S
H5261 C5267 0.930 . S
C5262 H5248 0.930 . S
C5262 C5260 1.395 . S
C5262 C5265 1.403 . S
C5263 C5260 1.403 . S
C5263 C5264 1.524 . S
C5263 C5267 1.400 . S
C5264 H5249 0.960 . S
C5264 H5250 0.960 . S
C5264 H5251 0.960 . S
C5264 C5263 1.524 . S
C5265 C5262 1.403 . S
C5265 C5266 1.392 . S
C5265 C5269 1.495 . S
C5266 C5265 1.392 . S
C5266 C5267 1.385 . S
C5266 C5268 1.478 . S
C5267 H5261 0.930 . S
C5267 C5263 1.400 . S
C5267 C5266 1.385 . S
C5268 C5266 1.478 . S
C5268 C5270 1.381 . S
C5268 C5274 1.383 . S
C5269 C5265 1.495 . S
C5269 H5275 0.959 . S
C5269 H5276 0.961 . S
C5269 H5277 0.960 . S
C5270 C5268 1.381 . S
C5270 C5271 1.394 . S
C5270 H5278 0.930 . S
C5271 C5270 1.394 . S
C5271 C5272 1.383 . S
C5271 H5279 0.929 . S
C5272 C5271 1.383 . S
C5272 C5273 1.377 . S
C5273 H5257 0.930 . S
C5273 C5272 1.377 . S
C5273 C5274 1.379 . S
C5274 H5258 0.931 . S
C5274 C5268 1.383 . S
C5274 C5273 1.379 . S
H5275 C5269 0.959 . S
H5276 C5269 0.961 . S
H5277 C5269 0.960 . S
H5278 C5270 0.930 . S
H5279 C5271 0.929 . S
H5280 C5288 0.929 . S
H5281 C5290 0.930 . S
H5282 C5292 0.930 . S
H5283 C5295 0.929 . S
H5284 C5298 0.930 . S
H5285 C5300 0.960 . S
H5286 C5300 0.960 . S
H5287 C5300 0.960 . S
C5288 H5280 0.929 . S
C5288 C5289 1.377 . S
C5288 C5290 1.384 . S
C5289 C5288 1.377 . S
C5289 C5295 1.390 . S
C5290 H5281 0.930 . S
C5290 C5288 1.384 . S
C5290 C5291 1.372 . S
C5291 C5290 1.372 . S
C5291 C5292 1.400 . S
C5291 C5296 1.490 . S
C5292 H5282 0.930 . S
C5292 C5291 1.400 . S
C5292 C5295 1.386 . S
H5293 C5309 0.930 . S
H5294 C5310 0.931 . S
C5295 H5283 0.929 . S
C5295 C5289 1.390 . S
C5295 C5292 1.386 . S
C5296 C5291 1.490 . S
C5296 C5298 1.395 . S
C5296 C5299 1.403 . S
H5297 C5303 0.930 . S
C5298 H5284 0.930 . S
C5298 C5296 1.395 . S
C5298 C5301 1.403 . S
C5299 C5296 1.403 . S
C5299 C5300 1.524 . S
C5299 C5303 1.400 . S
C5300 H5285 0.960 . S
C5300 H5286 0.960 . S
C5300 H5287 0.960 . S
C5300 C5299 1.524 . S
C5301 C5298 1.403 . S
C5301 C5302 1.392 . S
C5301 C5305 1.495 . S
C5302 C5301 1.392 . S
C5302 C5303 1.385 . S
C5302 C5304 1.478 . S
C5303 H5297 0.930 . S
C5303 C5299 1.400 . S
C5303 C5302 1.385 . S
C5304 C5302 1.478 . S
C5304 C5306 1.381 . S
C5304 C5310 1.383 . S
C5305 C5301 1.495 . S
C5305 H5311 0.959 . S
C5305 H5312 0.961 . S
C5305 H5313 0.960 . S
C5306 C5304 1.381 . S
C5306 C5307 1.394 . S
C5306 H5314 0.930 . S
C5307 C5306 1.394 . S
C5307 C5308 1.383 . S
C5307 H5315 0.929 . S
C5308 C5307 1.383 . S
C5308 C5309 1.377 . S
C5309 H5293 0.930 . S
C5309 C5308 1.377 . S
C5309 C5310 1.379 . S
C5310 H5294 0.931 . S
C5310 C5304 1.383 . S
C5310 C5309 1.379 . S
H5311 C5305 0.959 . S
H5312 C5305 0.961 . S
H5313 C5305 0.960 . S
H5314 C5306 0.930 . S
H5315 C5307 0.929 . S
H5316 C5324 0.929 . S
H5317 C5326 0.930 . S
H5318 C5328 0.930 . S
H5319 C5331 0.929 . S
H5320 C5334 0.930 . S
H5321 C5336 0.960 . S
H5322 C5336 0.960 . S
H5323 C5336 0.960 . S
C5324 H5316 0.929 . S
C5324 C5325 1.377 . S
C5324 C5326 1.384 . S
C5325 C5324 1.377 . S
C5325 C5331 1.390 . S
C5326 H5317 0.930 . S
C5326 C5324 1.384 . S
C5326 C5327 1.372 . S
C5327 C5326 1.372 . S
C5327 C5328 1.400 . S
C5327 C5332 1.490 . S
C5328 H5318 0.930 . S
C5328 C5327 1.400 . S
C5328 C5331 1.386 . S
H5329 C5345 0.930 . S
H5330 C5346 0.931 . S
C5331 H5319 0.929 . S
C5331 C5325 1.390 . S
C5331 C5328 1.386 . S
C5332 C5327 1.490 . S
C5332 C5334 1.395 . S
C5332 C5335 1.403 . S
H5333 C5339 0.930 . S
C5334 H5320 0.930 . S
C5334 C5332 1.395 . S
C5334 C5337 1.403 . S
C5335 C5332 1.403 . S
C5335 C5336 1.524 . S
C5335 C5339 1.400 . S
C5336 H5321 0.960 . S
C5336 H5322 0.960 . S
C5336 H5323 0.960 . S
C5336 C5335 1.524 . S
C5337 C5334 1.403 . S
C5337 C5338 1.392 . S
C5337 C5341 1.495 . S
C5338 C5337 1.392 . S
C5338 C5339 1.385 . S
C5338 C5340 1.478 . S
C5339 H5333 0.930 . S
C5339 C5335 1.400 . S
C5339 C5338 1.385 . S
C5340 C5338 1.478 . S
C5340 C5342 1.381 . S
C5340 C5346 1.383 . S
C5341 C5337 1.495 . S
C5341 H5347 0.959 . S
C5341 H5348 0.961 . S
C5341 H5349 0.960 . S
C5342 C5340 1.381 . S
C5342 C5343 1.394 . S
C5342 H5350 0.930 . S
C5343 C5342 1.394 . S
C5343 C5344 1.383 . S
C5343 H5351 0.929 . S
C5344 C5343 1.383 . S
C5344 C5345 1.377 . S
C5345 H5329 0.930 . S
C5345 C5344 1.377 . S
C5345 C5346 1.379 . S
C5346 H5330 0.931 . S
C5346 C5340 1.383 . S
C5346 C5345 1.379 . S
H5347 C5341 0.959 . S
H5348 C5341 0.961 . S
H5349 C5341 0.960 . S
H5350 C5342 0.930 . S
H5351 C5343 0.929 . S
H5352 C5360 0.929 . S
H5353 C5362 0.930 . S
H5354 C5364 0.930 . S
H5355 C5367 0.929 . S
H5356 C5370 0.930 . S
H5357 C5372 0.960 . S
H5358 C5372 0.960 . S
H5359 C5372 0.960 . S
C5360 H5352 0.929 . S
C5360 C5361 1.377 . S
C5360 C5362 1.384 . S
C5361 C5360 1.377 . S
C5361 C5367 1.390 . S
C5362 H5353 0.930 . S
C5362 C5360 1.384 . S
C5362 C5363 1.372 . S
C5363 C5362 1.372 . S
C5363 C5364 1.400 . S
C5363 C5368 1.490 . S
C5364 H5354 0.930 . S
C5364 C5363 1.400 . S
C5364 C5367 1.386 . S
H5365 C5381 0.930 . S
H5366 C5382 0.931 . S
C5367 H5355 0.929 . S
C5367 C5361 1.390 . S
C5367 C5364 1.386 . S
C5368 C5363 1.490 . S
C5368 C5370 1.395 . S
C5368 C5371 1.403 . S
H5369 C5375 0.930 . S
C5370 H5356 0.930 . S
C5370 C5368 1.395 . S
C5370 C5373 1.403 . S
C5371 C5368 1.403 . S
C5371 C5372 1.524 . S
C5371 C5375 1.400 . S
C5372 H5357 0.960 . S
C5372 H5358 0.960 . S
C5372 H5359 0.960 . S
C5372 C5371 1.524 . S
C5373 C5370 1.403 . S
C5373 C5374 1.392 . S
C5373 C5377 1.495 . S
C5374 C5373 1.392 . S
C5374 C5375 1.385 . S
C5374 C5376 1.478 . S
C5375 H5369 0.930 . S
C5375 C5371 1.400 . S
C5375 C5374 1.385 . S
C5376 C5374 1.478 . S
C5376 C5378 1.381 . S
C5376 C5382 1.383 . S
C5377 C5373 1.495 . S
C5377 H5383 0.959 . S
C5377 H5384 0.961 . S
C5377 H5385 0.960 . S
C5378 C5376 1.381 . S
C5378 C5379 1.394 . S
C5378 H5386 0.930 . S
C5379 C5378 1.394 . S
C5379 C5380 1.383 . S
C5379 H5387 0.929 . S
C5380 C5379 1.383 . S
C5380 C5381 1.377 . S
C5381 H5365 0.930 . S
C5381 C5380 1.377 . S
C5381 C5382 1.379 . S
C5382 H5366 0.931 . S
C5382 C5376 1.383 . S
C5382 C5381 1.379 . S
H5383 C5377 0.959 . S
H5384 C5377 0.961 . S
H5385 C5377 0.960 . S
H5386 C5378 0.930 . S
H5387 C5379 0.929 . S
H5388 C5396 0.929 . S
H5389 C5398 0.930 . S
H5390 C5400 0.930 . S
H5391 C5403 0.929 . S
H5392 C5406 0.930 . S
H5393 C5408 0.960 . S
H5394 C5408 0.960 . S
H5395 C5408 0.960 . S
C5396 H5388 0.929 . S
C5396 C5397 1.377 . S
C5396 C5398 1.384 . S
C5397 C5396 1.377 . S
C5397 C5403 1.390 . S
C5398 H5389 0.930 . S
C5398 C5396 1.384 . S
C5398 C5399 1.372 . S
C5399 C5398 1.372 . S
C5399 C5400 1.400 . S
C5399 C5404 1.490 . S
C5400 H5390 0.930 . S
C5400 C5399 1.400 . S
C5400 C5403 1.386 . S
H5401 C5417 0.930 . S
H5402 C5418 0.931 . S
C5403 H5391 0.929 . S
C5403 C5397 1.390 . S
C5403 C5400 1.386 . S
C5404 C5399 1.490 . S
C5404 C5406 1.395 . S
C5404 C5407 1.403 . S
H5405 C5411 0.930 . S
C5406 H5392 0.930 . S
C5406 C5404 1.395 . S
C5406 C5409 1.403 . S
C5407 C5404 1.403 . S
C5407 C5408 1.524 . S
C5407 C5411 1.400 . S
C5408 H5393 0.960 . S
C5408 H5394 0.960 . S
C5408 H5395 0.960 . S
C5408 C5407 1.524 . S
C5409 C5406 1.403 . S
C5409 C5410 1.392 . S
C5409 C5413 1.495 . S
C5410 C5409 1.392 . S
C5410 C5411 1.385 . S
C5410 C5412 1.478 . S
C5411 H5405 0.930 . S
C5411 C5407 1.400 . S
C5411 C5410 1.385 . S
C5412 C5410 1.478 . S
C5412 C5414 1.381 . S
C5412 C5418 1.383 . S
C5413 C5409 1.495 . S
C5413 H5419 0.959 . S
C5413 H5420 0.961 . S
C5413 H5421 0.960 . S
C5414 C5412 1.381 . S
C5414 C5415 1.394 . S
C5414 H5422 0.930 . S
C5415 C5414 1.394 . S
C5415 C5416 1.383 . S
C5415 H5423 0.929 . S
C5416 C5415 1.383 . S
C5416 C5417 1.377 . S
C5417 H5401 0.930 . S
C5417 C5416 1.377 . S
C5417 C5418 1.379 . S
C5418 H5402 0.931 . S
C5418 C5412 1.383 . S
C5418 C5417 1.379 . S
H5419 C5413 0.959 . S
H5420 C5413 0.961 . S
H5421 C5413 0.960 . S
H5422 C5414 0.930 . S
H5423 C5415 0.929 . S
H5424 C5432 0.929 . S
H5425 C5434 0.930 . S
H5426 C5436 0.930 . S
H5427 C5439 0.929 . S
H5428 C5442 0.930 . S
H5429 C5444 0.960 . S
H5430 C5444 0.960 . S
H5431 C5444 0.960 . S
C5432 H5424 0.929 . S
C5432 C5433 1.377 . S
C5432 C5434 1.384 . S
C5433 C5432 1.377 . S
C5433 C5439 1.390 . S
C5434 H5425 0.930 . S
C5434 C5432 1.384 . S
C5434 C5435 1.372 . S
C5435 C5434 1.372 . S
C5435 C5436 1.400 . S
C5435 C5440 1.490 . S
C5436 H5426 0.930 . S
C5436 C5435 1.400 . S
C5436 C5439 1.386 . S
H5437 C5453 0.930 . S
H5438 C5454 0.931 . S
C5439 H5427 0.929 . S
C5439 C5433 1.390 . S
C5439 C5436 1.386 . S
C5440 C5435 1.490 . S
C5440 C5442 1.395 . S
C5440 C5443 1.403 . S
H5441 C5447 0.930 . S
C5442 H5428 0.930 . S
C5442 C5440 1.395 . S
C5442 C5445 1.403 . S
C5443 C5440 1.403 . S
C5443 C5444 1.524 . S
C5443 C5447 1.400 . S
C5444 H5429 0.960 . S
C5444 H5430 0.960 . S
C5444 H5431 0.960 . S
C5444 C5443 1.524 . S
C5445 C5442 1.403 . S
C5445 C5446 1.392 . S
C5445 C5449 1.495 . S
C5446 C5445 1.392 . S
C5446 C5447 1.385 . S
C5446 C5448 1.478 . S
C5447 H5441 0.930 . S
C5447 C5443 1.400 . S
C5447 C5446 1.385 . S
C5448 C5446 1.478 . S
C5448 C5450 1.381 . S
C5448 C5454 1.383 . S
C5449 C5445 1.495 . S
C5449 H5455 0.959 . S
C5449 H5456 0.961 . S
C5449 H5457 0.960 . S
C5450 C5448 1.381 . S
C5450 C5451 1.394 . S
C5450 H5458 0.930 . S
C5451 C5450 1.394 . S
C5451 C5452 1.383 . S
C5451 H5459 0.929 . S
C5452 C5451 1.383 . S
C5452 C5453 1.377 . S
C5453 H5437 0.930 . S
C5453 C5452 1.377 . S
C5453 C5454 1.379 . S
C5454 H5438 0.931 . S
C5454 C5448 1.383 . S
C5454 C5453 1.379 . S
H5455 C5449 0.959 . S
H5456 C5449 0.961 . S
H5457 C5449 0.960 . S
H5458 C5450 0.930 . S
H5459 C5451 0.929 . S
H5460 C5468 0.929 . S
H5461 C5470 0.930 . S
H5462 C5472 0.930 . S
H5463 C5475 0.929 . S
H5464 C5478 0.930 . S
H5465 C5480 0.960 . S
H5466 C5480 0.960 . S
H5467 C5480 0.960 . S
C5468 H5460 0.929 . S
C5468 C5469 1.377 . S
C5468 C5470 1.384 . S
C5469 C5468 1.377 . S
C5469 C5475 1.390 . S
C5470 H5461 0.930 . S
C5470 C5468 1.384 . S
C5470 C5471 1.372 . S
C5471 C5470 1.372 . S
C5471 C5472 1.400 . S
C5471 C5476 1.490 . S
C5472 H5462 0.930 . S
C5472 C5471 1.400 . S
C5472 C5475 1.386 . S
H5473 C5489 0.930 . S
H5474 C5490 0.931 . S
C5475 H5463 0.929 . S
C5475 C5469 1.390 . S
C5475 C5472 1.386 . S
C5476 C5471 1.490 . S
C5476 C5478 1.395 . S
C5476 C5479 1.403 . S
H5477 C5483 0.930 . S
C5478 H5464 0.930 . S
C5478 C5476 1.395 . S
C5478 C5481 1.403 . S
C5479 C5476 1.403 . S
C5479 C5480 1.524 . S
C5479 C5483 1.400 . S
C5480 H5465 0.960 . S
C5480 H5466 0.960 . S
C5480 H5467 0.960 . S
C5480 C5479 1.524 . S
C5481 C5478 1.403 . S
C5481 C5482 1.392 . S
C5481 C5485 1.495 . S
C5482 C5481 1.392 . S
C5482 C5483 1.385 . S
C5482 C5484 1.478 . S
C5483 H5477 0.930 . S
C5483 C5479 1.400 . S
C5483 C5482 1.385 . S
C5484 C5482 1.478 . S
C5484 C5486 1.381 . S
C5484 C5490 1.383 . S
C5485 C5481 1.495 . S
C5485 H5491 0.959 . S
C5485 H5492 0.961 . S
C5485 H5493 0.960 . S
C5486 C5484 1.381 . S
C5486 C5487 1.394 . S
C5486 H5494 0.930 . S
C5487 C5486 1.394 . S
C5487 C5488 1.383 . S
C5487 H5495 0.929 . S
C5488 C5487 1.383 . S
C5488 C5489 1.377 . S
C5489 H5473 0.930 . S
C5489 C5488 1.377 . S
C5489 C5490 1.379 . S
C5490 H5474 0.931 . S
C5490 C5484 1.383 . S
C5490 C5489 1.379 . S
H5491 C5485 0.959 . S
H5492 C5485 0.961 . S
H5493 C5485 0.960 . S
H5494 C5486 0.930 . S
H5495 C5487 0.929 . S
H5496 C5504 0.929 . S
H5497 C5506 0.930 . S
H5498 C5508 0.930 . S
H5499 C5511 0.929 . S
H5500 C5514 0.930 . S
H5501 C5516 0.960 . S
H5502 C5516 0.960 . S
H5503 C5516 0.960 . S
C5504 H5496 0.929 . S
C5504 C5505 1.377 . S
C5504 C5506 1.384 . S
C5505 C5504 1.377 . S
C5505 C5511 1.390 . S
C5506 H5497 0.930 . S
C5506 C5504 1.384 . S
C5506 C5507 1.372 . S
C5507 C5506 1.372 . S
C5507 C5508 1.400 . S
C5507 C5512 1.490 . S
C5508 H5498 0.930 . S
C5508 C5507 1.400 . S
C5508 C5511 1.386 . S
H5509 C5525 0.930 . S
H5510 C5526 0.931 . S
C5511 H5499 0.929 . S
C5511 C5505 1.390 . S
C5511 C5508 1.386 . S
C5512 C5507 1.490 . S
C5512 C5514 1.395 . S
C5512 C5515 1.403 . S
H5513 C5519 0.930 . S
C5514 H5500 0.930 . S
C5514 C5512 1.395 . S
C5514 C5517 1.403 . S
C5515 C5512 1.403 . S
C5515 C5516 1.524 . S
C5515 C5519 1.400 . S
C5516 H5501 0.960 . S
C5516 H5502 0.960 . S
C5516 H5503 0.960 . S
C5516 C5515 1.524 . S
C5517 C5514 1.403 . S
C5517 C5518 1.392 . S
C5517 C5521 1.495 . S
C5518 C5517 1.392 . S
C5518 C5519 1.385 . S
C5518 C5520 1.478 . S
C5519 H5513 0.930 . S
C5519 C5515 1.400 . S
C5519 C5518 1.385 . S
C5520 C5518 1.478 . S
C5520 C5522 1.381 . S
C5520 C5526 1.383 . S
C5521 C5517 1.495 . S
C5521 H5527 0.959 . S
C5521 H5528 0.961 . S
C5521 H5529 0.960 . S
C5522 C5520 1.381 . S
C5522 C5523 1.394 . S
C5522 H5530 0.930 . S
C5523 C5522 1.394 . S
C5523 C5524 1.383 . S
C5523 H5531 0.929 . S
C5524 C5523 1.383 . S
C5524 C5525 1.377 . S
C5525 H5509 0.930 . S
C5525 C5524 1.377 . S
C5525 C5526 1.379 . S
C5526 H5510 0.931 . S
C5526 C5520 1.383 . S
C5526 C5525 1.379 . S
H5527 C5521 0.959 . S
H5528 C5521 0.961 . S
H5529 C5521 0.960 . S
H5530 C5522 0.930 . S
H5531 C5523 0.929 . S
H5532 C5540 0.929 . S
H5533 C5542 0.930 . S
H5534 C5544 0.930 . S
H5535 C5547 0.929 . S
H5536 C5550 0.930 . S
H5537 C5552 0.960 . S
H5538 C5552 0.960 . S
H5539 C5552 0.960 . S
C5540 H5532 0.929 . S
C5540 C5541 1.377 . S
C5540 C5542 1.384 . S
C5541 C5540 1.377 . S
C5541 C5547 1.390 . S
C5542 H5533 0.930 . S
C5542 C5540 1.384 . S
C5542 C5543 1.372 . S
C5543 C5542 1.372 . S
C5543 C5544 1.400 . S
C5543 C5548 1.490 . S
C5544 H5534 0.930 . S
C5544 C5543 1.400 . S
C5544 C5547 1.386 . S
H5545 C5561 0.930 . S
H5546 C5562 0.931 . S
C5547 H5535 0.929 . S
C5547 C5541 1.390 . S
C5547 C5544 1.386 . S
C5548 C5543 1.490 . S
C5548 C5550 1.395 . S
C5548 C5551 1.403 . S
H5549 C5555 0.930 . S
C5550 H5536 0.930 . S
C5550 C5548 1.395 . S
C5550 C5553 1.403 . S
C5551 C5548 1.403 . S
C5551 C5552 1.524 . S
C5551 C5555 1.400 . S
C5552 H5537 0.960 . S
C5552 H5538 0.960 . S
C5552 H5539 0.960 . S
C5552 C5551 1.524 . S
C5553 C5550 1.403 . S
C5553 C5554 1.392 . S
C5553 C5557 1.495 . S
C5554 C5553 1.392 . S
C5554 C5555 1.385 . S
C5554 C5556 1.478 . S
C5555 H5549 0.930 . S
C5555 C5551 1.400 . S
C5555 C5554 1.385 . S
C5556 C5554 1.478 . S
C5556 C5558 1.381 . S
C5556 C5562 1.383 . S
C5557 C5553 1.495 . S
C5557 H5563 0.959 . S
C5557 H5564 0.961 . S
C5557 H5565 0.960 . S
C5558 C5556 1.381 . S
C5558 C5559 1.394 . S
C5558 H5566 0.930 . S
C5559 C5558 1.394 . S
C5559 C5560 1.383 . S
C5559 H5567 0.929 . S
C5560 C5559 1.383 . S
C5560 C5561 1.377 . S
C5561 H5545 0.930 . S
C5561 C5560 1.377 . S
C5561 C5562 1.379 . S
C5562 H5546 0.931 . S
C5562 C5556 1.383 . S
C5562 C5561 1.379 . S
H5563 C5557 0.959 . S
H5564 C5557 0.961 . S
H5565 C5557 0.960 . S
H5566 C5558 0.930 . S
H5567 C5559 0.929 . S
H5568 C5576 0.929 . S
H5569 C5578 0.930 . S
H5570 C5580 0.930 . S
H5571 C5583 0.929 . S
H5572 C5586 0.930 . S
H5573 C5588 0.960 . S
H5574 C5588 0.960 1_545 S
H5575 C5588 0.960 . S
C5576 H5568 0.929 . S
C5576 C5577 1.377 . S
C5576 C5578 1.384 . S
C5577 C5576 1.377 . S
C5577 C5583 1.390 . S
C5578 H5569 0.930 . S
C5578 C5576 1.384 . S
C5578 C5579 1.372 . S
C5579 C5578 1.372 . S
C5579 C5580 1.400 . S
C5579 C5584 1.490 . S
C5580 H5570 0.930 . S
C5580 C5579 1.400 . S
C5580 C5583 1.386 . S
H5581 C5597 0.930 . S
H5582 C5598 0.931 . S
C5583 H5571 0.929 . S
C5583 C5577 1.390 . S
C5583 C5580 1.386 . S
C5584 C5579 1.490 . S
C5584 C5586 1.395 . S
C5584 C5587 1.403 1_545 S
H5585 C5591 0.930 . S
C5586 H5572 0.930 . S
C5586 C5584 1.395 . S
C5586 C5589 1.403 . S
C5587 C5584 1.403 1_565 S
C5587 C5588 1.524 . S
C5587 C5591 1.400 . S
C5588 H5573 0.960 . S
C5588 H5574 0.960 1_565 S
C5588 H5575 0.960 . S
C5588 C5587 1.524 . S
C5589 C5586 1.403 . S
C5589 C5590 1.392 1_545 S
C5589 C5593 1.495 . S
C5590 C5589 1.392 1_565 S
C5590 C5591 1.385 . S
C5590 C5592 1.478 . S
C5591 H5585 0.930 . S
C5591 C5587 1.400 . S
C5591 C5590 1.385 . S
C5592 C5590 1.478 . S
C5592 C5594 1.381 . S
C5592 C5598 1.383 . S
C5593 C5589 1.495 . S
C5593 H5599 0.959 . S
C5593 H5600 0.961 . S
C5593 H5601 0.960 . S
C5594 C5592 1.381 . S
C5594 C5595 1.394 . S
C5594 H5602 0.930 . S
C5595 C5594 1.394 . S
C5595 C5596 1.383 . S
C5595 H5603 0.929 . S
C5596 C5595 1.383 . S
C5596 C5597 1.377 . S
C5597 H5581 0.930 . S
C5597 C5596 1.377 . S
C5597 C5598 1.379 . S
C5598 H5582 0.931 . S
C5598 C5592 1.383 . S
C5598 C5597 1.379 . S
H5599 C5593 0.959 . S
H5600 C5593 0.961 . S
H5601 C5593 0.960 . S
H5602 C5594 0.930 . S
H5603 C5595 0.929 . S
H5604 C5612 0.929 . S
H5605 C5614 0.930 . S
H5606 C5616 0.930 . S
H5607 C5619 0.929 . S
H5608 C5622 0.930 . S
H5609 C5624 0.960 . S
H5610 C5624 0.960 . S
H5611 C5624 0.960 . S
C5612 H5604 0.929 . S
C5612 C5613 1.377 . S
C5612 C5614 1.384 . S
C5613 C5612 1.377 . S
C5613 C5619 1.390 . S
C5614 H5605 0.930 . S
C5614 C5612 1.384 . S
C5614 C5615 1.372 . S
C5615 C5614 1.372 . S
C5615 C5616 1.400 . S
C5615 C5620 1.490 . S
C5616 H5606 0.930 . S
C5616 C5615 1.400 . S
C5616 C5619 1.386 . S
H5617 C5633 0.930 . S
H5618 C5634 0.931 . S
C5619 H5607 0.929 . S
C5619 C5613 1.390 . S
C5619 C5616 1.386 . S
C5620 C5615 1.490 . S
C5620 C5622 1.395 . S
C5620 C5623 1.403 . S
H5621 C5627 0.930 . S
C5622 H5608 0.930 . S
C5622 C5620 1.395 . S
C5622 C5625 1.403 . S
C5623 C5620 1.403 . S
C5623 C5624 1.524 . S
C5623 C5627 1.400 . S
C5624 H5609 0.960 . S
C5624 H5610 0.960 . S
C5624 H5611 0.960 . S
C5624 C5623 1.524 . S
C5625 C5622 1.403 . S
C5625 C5626 1.392 . S
C5625 C5629 1.495 . S
C5626 C5625 1.392 . S
C5626 C5627 1.385 . S
C5626 C5628 1.478 . S
C5627 H5621 0.930 . S
C5627 C5623 1.400 . S
C5627 C5626 1.385 . S
C5628 C5626 1.478 . S
C5628 C5630 1.381 . S
C5628 C5634 1.383 . S
C5629 C5625 1.495 . S
C5629 H5635 0.959 . S
C5629 H5636 0.961 . S
C5629 H5637 0.960 . S
C5630 C5628 1.381 . S
C5630 C5631 1.394 . S
C5630 H5638 0.930 . S
C5631 C5630 1.394 . S
C5631 C5632 1.383 . S
C5631 H5639 0.929 . S
C5632 C5631 1.383 . S
C5632 C5633 1.377 . S
C5633 H5617 0.930 . S
C5633 C5632 1.377 . S
C5633 C5634 1.379 . S
C5634 H5618 0.931 . S
C5634 C5628 1.383 . S
C5634 C5633 1.379 . S
H5635 C5629 0.959 . S
H5636 C5629 0.961 . S
H5637 C5629 0.960 . S
H5638 C5630 0.930 . S
H5639 C5631 0.929 . S
H5640 C5648 0.929 . S
H5641 C5650 0.930 . S
H5642 C5652 0.930 . S
H5643 C5655 0.929 . S
H5644 C5658 0.930 . S
H5645 C5660 0.960 . S
H5646 C5660 0.960 . S
H5647 C5660 0.960 1_545 S
C5648 H5640 0.929 . S
C5648 C5649 1.377 . S
C5648 C5650 1.384 . S
C5649 C5648 1.377 . S
C5649 C5655 1.390 . S
C5650 H5641 0.930 . S
C5650 C5648 1.384 . S
C5650 C5651 1.372 . S
C5651 C5650 1.372 . S
C5651 C5652 1.400 . S
C5651 C5656 1.490 . S
C5652 H5642 0.930 . S
C5652 C5651 1.400 . S
C5652 C5655 1.386 . S
H5653 C5669 0.930 . S
H5654 C5670 0.931 . S
C5655 H5643 0.929 . S
C5655 C5649 1.390 . S
C5655 C5652 1.386 . S
C5656 C5651 1.490 . S
C5656 C5658 1.395 . S
C5656 C5659 1.403 1_545 S
H5657 C5663 0.930 . S
C5658 H5644 0.930 . S
C5658 C5656 1.395 . S
C5658 C5661 1.403 . S
C5659 C5656 1.403 1_565 S
C5659 C5660 1.524 . S
C5659 C5663 1.400 . S
C5660 H5645 0.960 . S
C5660 H5646 0.960 . S
C5660 H5647 0.960 1_565 S
C5660 C5659 1.524 . S
C5661 C5658 1.403 . S
C5661 C5662 1.392 1_545 S
C5661 C5665 1.495 . S
C5662 C5661 1.392 1_565 S
C5662 C5663 1.385 . S
C5662 C5664 1.478 . S
C5663 H5657 0.930 . S
C5663 C5659 1.400 . S
C5663 C5662 1.385 . S
C5664 C5662 1.478 . S
C5664 C5666 1.381 . S
C5664 C5670 1.383 . S
C5665 C5661 1.495 . S
C5665 H5671 0.959 . S
C5665 H5672 0.961 . S
C5665 H5673 0.958 . S
C5666 C5664 1.381 . S
C5666 C5667 1.394 . S
C5666 H5674 0.930 . S
C5667 C5666 1.394 . S
C5667 C5668 1.383 . S
C5667 H5675 0.929 . S
C5668 C5667 1.383 . S
C5668 C5669 1.377 . S
C5669 H5653 0.930 . S
C5669 C5668 1.377 . S
C5669 C5670 1.379 . S
C5670 H5654 0.931 . S
C5670 C5664 1.383 . S
C5670 C5669 1.379 . S
H5671 C5665 0.959 . S
H5672 C5665 0.961 . S
H5673 C5665 0.958 . S
H5674 C5666 0.930 . S
H5675 C5667 0.929 . S
H5676 C5684 0.929 . S
H5677 C5686 0.930 . S
H5678 C5688 0.930 . S
H5679 C5691 0.929 . S
H5680 C5694 0.930 . S
H5681 C5696 0.960 . S
H5682 C5696 0.960 . S
H5683 C5696 0.960 . S
C5684 H5676 0.929 . S
C5684 C5685 1.377 . S
C5684 C5686 1.384 . S
C5685 C5684 1.377 . S
C5685 C5691 1.390 . S
C5686 H5677 0.930 . S
C5686 C5684 1.384 . S
C5686 C5687 1.372 . S
C5687 C5686 1.372 . S
C5687 C5688 1.400 . S
C5687 C5692 1.490 . S
C5688 H5678 0.930 . S
C5688 C5687 1.400 . S
C5688 C5691 1.386 . S
H5689 C5705 0.930 . S
H5690 C5706 0.931 . S
C5691 H5679 0.929 . S
C5691 C5685 1.390 . S
C5691 C5688 1.386 . S
C5692 C5687 1.490 . S
C5692 C5694 1.395 1_556 S
C5692 C5695 1.403 . S
H5693 C5699 0.929 1_556 S
C5694 H5680 0.930 . S
C5694 C5692 1.395 1_554 S
C5694 C5697 1.403 . S
C5695 C5692 1.403 . S
C5695 C5696 1.524 . S
C5695 C5699 1.378 1_556 S
C5696 H5681 0.960 . S
C5696 H5682 0.960 . S
C5696 H5683 0.960 . S
C5696 C5695 1.524 . S
C5697 C5694 1.403 . S
C5697 C5698 1.392 . S
C5697 C5701 1.512 . S
C5698 C5697 1.392 . S
C5698 C5699 1.409 . S
C5698 C5700 1.478 . S
C5699 H5693 0.929 1_554 S
C5699 C5695 1.378 1_554 S
C5699 C5698 1.409 . S
C5700 C5698 1.478 . S
C5700 C5702 1.381 . S
C5700 C5706 1.383 . S
C5701 C5697 1.512 . S
C5701 H5707 0.947 1_545 S
C5701 H5708 0.948 1_545 S
C5701 H5709 0.969 . S
C5702 C5700 1.381 . S
C5702 C5703 1.394 . S
C5702 H5710 0.930 . S
C5703 C5702 1.394 . S
C5703 C5704 1.383 . S
C5703 H5711 0.929 . S
C5704 C5703 1.383 . S
C5704 C5705 1.377 . S
C5705 H5689 0.930 . S
C5705 C5704 1.377 . S
C5705 C5706 1.379 . S
C5706 H5690 0.931 . S
C5706 C5700 1.383 . S
C5706 C5705 1.379 . S
H5707 C5701 0.947 1_565 S
H5708 C5701 0.948 1_565 S
H5709 C5701 0.969 . S
H5710 C5702 0.930 . S
H5711 C5703 0.929 . S
H5712 C5720 0.929 . S
H5713 C5722 0.930 . S
H5714 C5724 0.930 . S
H5715 C5727 0.929 . S
H5716 C5730 0.930 . S
H5717 C5732 0.960 . S
H5718 C5732 0.960 . S
H5719 C5732 0.960 1_565 S
C5720 H5712 0.929 . S
C5720 C5721 1.377 . S
C5720 C5722 1.384 . S
C5721 C5720 1.377 . S
C5721 C5727 1.390 . S
C5722 H5713 0.930 . S
C5722 C5720 1.384 . S
C5722 C5723 1.372 . S
C5723 C5722 1.372 . S
C5723 C5724 1.400 . S
C5723 C5728 1.490 . S
C5724 H5714 0.930 . S
C5724 C5723 1.400 . S
C5724 C5727 1.386 . S
H5725 C5741 0.930 . S
H5726 C5742 0.931 . S
C5727 H5715 0.929 . S
C5727 C5721 1.390 . S
C5727 C5724 1.386 . S
C5728 C5723 1.490 . S
C5728 C5730 1.395 . S
C5728 C5731 1.403 1_565 S
H5729 C5735 0.930 . S
C5730 H5716 0.930 . S
C5730 C5728 1.395 . S
C5730 C5733 1.403 . S
C5731 C5728 1.403 1_545 S
C5731 C5732 1.524 . S
C5731 C5735 1.400 . S
C5732 H5717 0.960 . S
C5732 H5718 0.960 . S
C5732 H5719 0.960 1_545 S
C5732 C5731 1.524 . S
C5733 C5730 1.403 . S
C5733 C5734 1.392 1_565 S
C5733 C5737 1.495 . S
C5734 C5733 1.392 1_545 S
C5734 C5735 1.385 . S
C5734 C5736 1.478 . S
C5735 H5729 0.930 . S
C5735 C5731 1.400 . S
C5735 C5734 1.385 . S
C5736 C5734 1.478 . S
C5736 C5738 1.381 . S
C5736 C5742 1.383 . S
C5737 C5733 1.495 . S
C5737 H5743 0.959 . S
C5737 H5744 0.961 . S
C5737 H5745 0.960 1_565 S
C5738 C5736 1.381 . S
C5738 C5739 1.394 . S
C5738 H5746 0.930 . S
C5739 C5738 1.394 . S
C5739 C5740 1.383 . S
C5739 H5747 0.929 . S
C5740 C5739 1.383 . S
C5740 C5741 1.377 . S
C5741 H5725 0.930 . S
C5741 C5740 1.377 . S
C5741 C5742 1.379 . S
C5742 H5726 0.931 . S
C5742 C5736 1.383 . S
C5742 C5741 1.379 . S
H5743 C5737 0.959 . S
H5744 C5737 0.961 . S
H5745 C5737 0.960 1_545 S
H5746 C5738 0.930 . S
H5747 C5739 0.929 . S
H5748 C5756 0.929 . S
H5749 C5758 0.930 . S
H5750 C5760 0.930 . S
H5751 C5763 0.929 . S
H5752 C5766 0.930 . S
H5753 C5768 0.960 . S
H5754 C5768 0.960 . S
H5755 C5768 0.960 . S
C5756 H5748 0.929 . S
C5756 C5757 1.377 . S
C5756 C5758 1.384 . S
C5757 C5756 1.377 . S
C5757 C5763 1.390 . S
C5758 H5749 0.930 . S
C5758 C5756 1.384 . S
C5758 C5759 1.372 . S
C5759 C5758 1.372 . S
C5759 C5760 1.400 . S
C5759 C5764 1.490 . S
C5760 H5750 0.930 . S
C5760 C5759 1.400 . S
C5760 C5763 1.386 . S
H5761 C5777 0.930 . S
H5762 C5778 0.931 . S
C5763 H5751 0.929 . S
C5763 C5757 1.390 . S
C5763 C5760 1.386 . S
C5764 C5759 1.490 . S
C5764 C5766 1.395 . S
C5764 C5767 1.403 . S
H5765 C5771 0.930 . S
C5766 H5752 0.930 . S
C5766 C5764 1.395 . S
C5766 C5769 1.403 . S
C5767 C5764 1.403 . S
C5767 C5768 1.524 . S
C5767 C5771 1.400 . S
C5768 H5753 0.960 . S
C5768 H5754 0.960 . S
C5768 H5755 0.960 . S
C5768 C5767 1.524 . S
C5769 C5766 1.403 . S
C5769 C5770 1.392 . S
C5769 C5773 1.495 . S
C5770 C5769 1.392 . S
C5770 C5771 1.385 . S
C5770 C5772 1.478 . S
C5771 H5765 0.930 . S
C5771 C5767 1.400 . S
C5771 C5770 1.385 . S
C5772 C5770 1.478 . S
C5772 C5774 1.381 . S
C5772 C5778 1.383 . S
C5773 C5769 1.495 . S
C5773 H5779 0.959 . S
C5773 H5780 0.961 . S
C5773 H5781 0.960 . S
C5774 C5772 1.381 . S
C5774 C5775 1.394 . S
C5774 H5782 0.930 . S
C5775 C5774 1.394 . S
C5775 C5776 1.383 . S
C5775 H5783 0.929 . S
C5776 C5775 1.383 . S
C5776 C5777 1.377 . S
C5777 H5761 0.930 . S
C5777 C5776 1.377 . S
C5777 C5778 1.379 . S
C5778 H5762 0.931 . S
C5778 C5772 1.383 . S
C5778 C5777 1.379 . S
H5779 C5773 0.959 . S
H5780 C5773 0.961 . S
H5781 C5773 0.960 . S
H5782 C5774 0.930 . S
H5783 C5775 0.929 . S
H5784 C5792 0.929 . S
H5785 C5794 0.930 . S
H5786 C5796 0.930 . S
H5787 C5799 0.929 . S
H5788 C5802 0.930 . S
H5789 C5804 0.960 . S
H5790 C5804 0.960 . S
H5791 C5804 0.960 . S
C5792 H5784 0.929 . S
C5792 C5793 1.377 . S
C5792 C5794 1.384 . S
C5793 C5792 1.377 . S
C5793 C5799 1.390 . S
C5794 H5785 0.930 . S
C5794 C5792 1.384 . S
C5794 C5795 1.372 . S
C5795 C5794 1.372 . S
C5795 C5796 1.400 . S
C5795 C5800 1.490 . S
C5796 H5786 0.930 . S
C5796 C5795 1.400 . S
C5796 C5799 1.386 . S
H5797 C5813 0.930 . S
H5798 C5814 0.931 . S
C5799 H5787 0.929 . S
C5799 C5793 1.390 . S
C5799 C5796 1.386 . S
C5800 C5795 1.490 . S
C5800 C5802 1.395 . S
C5800 C5803 1.403 . S
H5801 C5807 0.930 . S
C5802 H5788 0.930 . S
C5802 C5800 1.395 . S
C5802 C5805 1.403 1_565 S
C5803 C5800 1.403 . S
C5803 C5804 1.524 . S
C5803 C5807 1.400 1_565 S
C5804 H5789 0.960 . S
C5804 H5790 0.960 . S
C5804 H5791 0.960 . S
C5804 C5803 1.524 . S
C5805 C5802 1.403 1_545 S
C5805 C5806 1.392 . S
C5805 C5809 1.495 . S
C5806 C5805 1.392 . S
C5806 C5807 1.385 . S
C5806 C5808 1.478 . S
C5807 H5801 0.930 . S
C5807 C5803 1.400 1_545 S
C5807 C5806 1.385 . S
C5808 C5806 1.478 . S
C5808 C5810 1.381 . S
C5808 C5814 1.383 . S
C5809 C5805 1.495 . S
C5809 H5815 0.959 . S
C5809 H5816 0.961 . S
C5809 H5817 0.960 . S
C5810 C5808 1.381 . S
C5810 C5811 1.394 . S
C5810 H5818 0.930 . S
C5811 C5810 1.394 . S
C5811 C5812 1.383 . S
C5811 H5819 0.929 . S
C5812 C5811 1.383 . S
C5812 C5813 1.377 . S
C5813 H5797 0.930 . S
C5813 C5812 1.377 . S
C5813 C5814 1.379 . S
C5814 H5798 0.931 . S
C5814 C5808 1.383 . S
C5814 C5813 1.379 . S
H5815 C5809 0.959 . S
H5816 C5809 0.961 . S
H5817 C5809 0.960 . S
H5818 C5810 0.930 . S
H5819 C5811 0.929 . S
H5820 C5828 0.929 . S
H5821 C5830 0.930 . S
H5822 C5832 0.930 . S
H5823 C5835 0.929 . S
H5824 C5838 0.930 . S
H5825 C5840 0.960 . S
H5826 C5840 0.960 . S
H5827 C5840 0.960 . S
C5828 H5820 0.929 . S
C5828 C5829 1.377 . S
C5828 C5830 1.384 . S
C5829 C5828 1.377 . S
C5829 C5835 1.390 . S
C5830 H5821 0.930 . S
C5830 C5828 1.384 . S
C5830 C5831 1.372 . S
C5831 C5830 1.372 . S
C5831 C5832 1.400 . S
C5831 C5836 1.490 . S
C5832 H5822 0.930 . S
C5832 C5831 1.400 . S
C5832 C5835 1.386 . S
H5833 C5849 0.930 . S
H5834 C5850 0.931 . S
C5835 H5823 0.929 . S
C5835 C5829 1.390 . S
C5835 C5832 1.386 . S
C5836 C5831 1.490 . S
C5836 C5838 1.395 . S
C5836 C5839 1.403 1_554 S
H5837 C5843 0.930 . S
C5838 H5824 0.930 . S
C5838 C5836 1.395 . S
C5838 C5841 1.403 . S
C5839 C5836 1.403 1_556 S
C5839 C5840 1.524 . S
C5839 C5843 1.400 . S
C5840 H5825 0.960 . S
C5840 H5826 0.960 . S
C5840 H5827 0.960 . S
C5840 C5839 1.524 . S
C5841 C5838 1.403 . S
C5841 C5842 1.392 1_554 S
C5841 C5845 1.495 . S
C5842 C5841 1.392 1_556 S
C5842 C5843 1.385 . S
C5842 C5844 1.478 . S
C5843 H5837 0.930 . S
C5843 C5839 1.400 . S
C5843 C5842 1.385 . S
C5844 C5842 1.478 . S
C5844 C5846 1.381 . S
C5844 C5850 1.383 . S
C5845 C5841 1.495 . S
C5845 H5851 0.959 . S
C5845 H5852 0.997 . S
C5845 H5853 0.960 . S
C5846 C5844 1.381 . S
C5846 C5847 1.394 . S
C5846 H5854 0.930 . S
C5847 C5846 1.394 . S
C5847 C5848 1.383 . S
C5847 H5855 0.929 . S
C5848 C5847 1.383 . S
C5848 C5849 1.377 . S
C5849 H5833 0.930 . S
C5849 C5848 1.377 . S
C5849 C5850 1.379 . S
C5850 H5834 0.931 . S
C5850 C5844 1.383 . S
C5850 C5849 1.379 . S
H5851 C5845 0.959 . S
H5852 C5845 0.997 . S
H5853 C5845 0.960 . S
H5854 C5846 0.930 . S
H5855 C5847 0.929 . S
H5856 C5864 0.929 . S
H5857 C5866 0.930 . S
H5858 C5868 0.930 . S
H5859 C5871 0.929 . S
H5860 C5874 0.930 . S
H5861 C5876 0.960 . S
H5862 C5876 0.960 . S
H5863 C5876 0.960 . S
C5864 H5856 0.929 . S
C5864 C5865 1.377 . S
C5864 C5866 1.384 . S
C5865 C5864 1.377 . S
C5865 C5871 1.390 . S
C5866 H5857 0.930 . S
C5866 C5864 1.384 . S
C5866 C5867 1.372 . S
C5867 C5866 1.372 . S
C5867 C5868 1.400 . S
C5867 C5872 1.490 . S
C5868 H5858 0.930 . S
C5868 C5867 1.400 . S
C5868 C5871 1.386 . S
H5869 C5885 0.930 . S
H5870 C5886 0.931 . S
C5871 H5859 0.929 . S
C5871 C5865 1.390 . S
C5871 C5868 1.386 . S
C5872 C5867 1.490 . S
C5872 C5874 1.395 . S
C5872 C5875 1.403 . S
H5873 C5879 0.930 . S
C5874 H5860 0.930 . S
C5874 C5872 1.395 . S
C5874 C5877 1.403 . S
C5875 C5872 1.403 . S
C5875 C5876 1.524 . S
C5875 C5879 1.400 . S
C5876 H5861 0.960 . S
C5876 H5862 0.960 . S
C5876 H5863 0.960 . S
C5876 C5875 1.524 . S
C5877 C5874 1.403 . S
C5877 C5878 1.392 . S
C5877 C5881 1.495 . S
C5878 C5877 1.392 . S
C5878 C5879 1.385 . S
C5878 C5880 1.478 . S
C5879 H5873 0.930 . S
C5879 C5875 1.400 . S
C5879 C5878 1.385 . S
C5880 C5878 1.478 . S
C5880 C5882 1.381 . S
C5880 C5886 1.383 . S
C5881 C5877 1.495 . S
C5881 H5887 0.959 . S
C5881 H5888 0.961 . S
C5881 H5889 0.960 . S
C5882 C5880 1.381 . S
C5882 C5883 1.394 . S
C5882 H5890 0.930 . S
C5883 C5882 1.394 . S
C5883 C5884 1.383 . S
C5883 H5891 0.929 . S
C5884 C5883 1.383 . S
C5884 C5885 1.377 . S
C5885 H5869 0.930 . S
C5885 C5884 1.377 . S
C5885 C5886 1.379 . S
C5886 H5870 0.931 . S
C5886 C5880 1.383 . S
C5886 C5885 1.379 . S
H5887 C5881 0.959 . S
H5888 C5881 0.961 . S
H5889 C5881 0.960 . S
H5890 C5882 0.930 . S
H5891 C5883 0.929 . S
H5892 C5900 0.929 . S
H5893 C5902 0.930 . S
H5894 C5904 0.930 . S
H5895 C5907 0.929 . S
H5896 C5910 0.930 . S
H5897 C5912 0.960 . S
H5898 C5912 0.960 . S
H5899 C5912 0.960 . S
C5900 H5892 0.929 . S
C5900 C5901 1.377 . S
C5900 C5902 1.384 . S
C5901 C5900 1.377 . S
C5901 C5907 1.390 . S
C5902 H5893 0.930 . S
C5902 C5900 1.384 . S
C5902 C5903 1.372 . S
C5903 C5902 1.372 . S
C5903 C5904 1.400 . S
C5903 C5908 1.490 . S
C5904 H5894 0.930 . S
C5904 C5903 1.400 . S
C5904 C5907 1.386 . S
H5905 C5921 0.930 . S
H5906 C5922 0.931 . S
C5907 H5895 0.929 . S
C5907 C5901 1.390 . S
C5907 C5904 1.386 . S
C5908 C5903 1.490 . S
C5908 C5910 1.395 . S
C5908 C5911 1.403 1_556 S
H5909 C5915 0.930 . S
C5910 H5896 0.930 . S
C5910 C5908 1.395 . S
C5910 C5913 1.403 . S
C5911 C5908 1.403 1_554 S
C5911 C5912 1.524 . S
C5911 C5915 1.400 . S
C5912 H5897 0.960 . S
C5912 H5898 0.960 . S
C5912 H5899 0.960 . S
C5912 C5911 1.524 . S
C5913 C5910 1.403 . S
C5913 C5914 1.392 1_556 S
C5913 C5917 1.495 . S
C5914 C5913 1.392 1_554 S
C5914 C5915 1.385 . S
C5914 C5916 1.478 . S
C5915 H5909 0.930 . S
C5915 C5911 1.400 . S
C5915 C5914 1.385 . S
C5916 C5914 1.478 . S
C5916 C5918 1.381 . S
C5916 C5922 1.383 . S
C5917 C5913 1.495 . S
C5917 H5923 0.959 . S
C5917 H5924 0.961 . S
C5917 H5925 0.960 . S
C5918 C5916 1.381 . S
C5918 C5919 1.394 . S
C5918 H5926 0.930 . S
C5919 C5918 1.394 . S
C5919 C5920 1.383 . S
C5919 H5927 0.929 . S
C5920 C5919 1.383 . S
C5920 C5921 1.377 . S
C5921 H5905 0.930 . S
C5921 C5920 1.377 . S
C5921 C5922 1.379 . S
C5922 H5906 0.931 . S
C5922 C5916 1.383 . S
C5922 C5921 1.379 . S
H5923 C5917 0.959 . S
H5924 C5917 0.961 . S
H5925 C5917 0.960 . S
H5926 C5918 0.930 . S
H5927 C5919 0.929 . S
H5928 C5936 0.929 . S
H5929 C5938 0.930 . S
H5930 C5940 0.930 . S
H5931 C5943 0.929 . S
H5932 C5946 0.930 . S
H5933 C5948 0.960 . S
H5934 C5948 0.960 . S
H5935 C5948 0.960 . S
C5936 H5928 0.929 . S
C5936 C5937 1.377 . S
C5936 C5938 1.384 . S
C5937 C5936 1.377 . S
C5937 C5943 1.390 . S
C5938 H5929 0.930 . S
C5938 C5936 1.384 . S
C5938 C5939 1.372 . S
C5939 C5938 1.372 . S
C5939 C5940 1.400 . S
C5939 C5944 1.490 . S
C5940 H5930 0.930 . S
C5940 C5939 1.400 . S
C5940 C5943 1.386 . S
H5941 C5957 0.930 . S
H5942 C5958 0.931 . S
C5943 H5931 0.929 . S
C5943 C5937 1.390 . S
C5943 C5940 1.386 . S
C5944 C5939 1.490 . S
C5944 C5946 1.395 . S
C5944 C5947 1.403 . S
H5945 C5951 0.930 . S
C5946 H5932 0.930 . S
C5946 C5944 1.395 . S
C5946 C5949 1.403 . S
C5947 C5944 1.403 . S
C5947 C5948 1.524 . S
C5947 C5951 1.400 . S
C5948 H5933 0.960 . S
C5948 H5934 0.960 . S
C5948 H5935 0.960 . S
C5948 C5947 1.524 . S
C5949 C5946 1.403 . S
C5949 C5950 1.392 . S
C5949 C5953 1.495 . S
C5950 C5949 1.392 . S
C5950 C5951 1.385 . S
C5950 C5952 1.478 . S
C5951 H5945 0.930 . S
C5951 C5947 1.400 . S
C5951 C5950 1.385 . S
C5952 C5950 1.478 . S
C5952 C5954 1.381 . S
C5952 C5958 1.383 . S
C5953 C5949 1.495 . S
C5953 H5959 0.959 . S
C5953 H5960 0.961 . S
C5953 H5961 0.960 . S
C5954 C5952 1.381 . S
C5954 C5955 1.394 . S
C5954 H5962 0.930 . S
C5955 C5954 1.394 . S
C5955 C5956 1.383 . S
C5955 H5963 0.929 . S
C5956 C5955 1.383 . S
C5956 C5957 1.377 . S
C5957 H5941 0.930 . S
C5957 C5956 1.377 . S
C5957 C5958 1.379 . S
C5958 H5942 0.931 . S
C5958 C5952 1.383 . S
C5958 C5957 1.379 . S
H5959 C5953 0.959 . S
H5960 C5953 0.961 . S
H5961 C5953 0.960 . S
H5962 C5954 0.930 . S
H5963 C5955 0.929 . S
H5964 C5972 0.929 . S
H5965 C5974 0.930 . S
H5966 C5976 0.930 . S
H5967 C5979 0.929 . S
H5968 C5982 0.930 . S
H5969 C5984 0.960 . S
H5970 C5984 0.960 . S
H5971 C5984 0.960 . S
C5972 H5964 0.929 . S
C5972 C5973 1.377 . S
C5972 C5974 1.384 . S
C5973 C5972 1.377 . S
C5973 C5979 1.390 . S
C5974 H5965 0.930 . S
C5974 C5972 1.384 . S
C5974 C5975 1.372 . S
C5975 C5974 1.372 . S
C5975 C5976 1.400 . S
C5975 C5980 1.490 . S
C5976 H5966 0.930 . S
C5976 C5975 1.400 . S
C5976 C5979 1.386 . S
H5977 C5993 0.930 . S
H5978 C5994 0.931 . S
C5979 H5967 0.929 . S
C5979 C5973 1.390 . S
C5979 C5976 1.386 . S
C5980 C5975 1.490 . S
C5980 C5982 1.395 . S
C5980 C5983 1.403 . S
H5981 C5987 0.930 . S
C5982 H5968 0.930 . S
C5982 C5980 1.395 . S
C5982 C5985 1.403 . S
C5983 C5980 1.403 . S
C5983 C5984 1.524 . S
C5983 C5987 1.400 . S
C5984 H5969 0.960 . S
C5984 H5970 0.960 . S
C5984 H5971 0.960 . S
C5984 C5983 1.524 . S
C5985 C5982 1.403 . S
C5985 C5986 1.392 . S
C5985 C5989 1.495 . S
C5986 C5985 1.392 . S
C5986 C5987 1.385 . S
C5986 C5988 1.478 . S
C5987 H5981 0.930 . S
C5987 C5983 1.400 . S
C5987 C5986 1.385 . S
C5988 C5986 1.478 . S
C5988 C5990 1.381 . S
C5988 C5994 1.383 . S
C5989 C5985 1.495 . S
C5989 H5995 0.959 . S
C5989 H5996 0.961 . S
C5989 H5997 0.960 . S
C5990 C5988 1.381 . S
C5990 C5991 1.394 . S
C5990 H5998 0.930 . S
C5991 C5990 1.394 . S
C5991 C5992 1.383 . S
C5991 H5999 0.929 . S
C5992 C5991 1.383 . S
C5992 C5993 1.377 . S
C5993 H5977 0.930 . S
C5993 C5992 1.377 . S
C5993 C5994 1.379 . S
C5994 H5978 0.931 . S
C5994 C5988 1.383 . S
C5994 C5993 1.379 . S
H5995 C5989 0.959 . S
H5996 C5989 0.961 . S
H5997 C5989 0.960 . S
H5998 C5990 0.930 . S
H5999 C5991 0.929 . S
H6000 C6008 0.929 . S
H6001 C6010 0.930 . S
H6002 C6012 0.930 . S
H6003 C6015 0.929 . S
H6004 C6018 0.930 . S
H6005 C6020 0.960 . S
H6006 C6020 0.960 . S
H6007 C6020 0.960 . S
C6008 H6000 0.929 . S
C6008 C6009 1.377 . S
C6008 C6010 1.384 . S
C6009 C6008 1.377 . S
C6009 C6015 1.390 . S
C6010 H6001 0.930 . S
C6010 C6008 1.384 . S
C6010 C6011 1.372 . S
C6011 C6010 1.372 . S
C6011 C6012 1.400 . S
C6011 C6016 1.490 . S
C6012 H6002 0.930 . S
C6012 C6011 1.400 . S
C6012 C6015 1.386 . S
H6013 C6029 0.930 . S
H6014 C6030 0.931 . S
C6015 H6003 0.929 . S
C6015 C6009 1.390 . S
C6015 C6012 1.386 . S
C6016 C6011 1.490 . S
C6016 C6018 1.395 . S
C6016 C6019 1.403 . S
H6017 C6023 0.930 . S
C6018 H6004 0.930 . S
C6018 C6016 1.395 . S
C6018 C6021 1.403 . S
C6019 C6016 1.403 . S
C6019 C6020 1.524 . S
C6019 C6023 1.400 . S
C6020 H6005 0.960 . S
C6020 H6006 0.960 . S
C6020 H6007 0.960 . S
C6020 C6019 1.524 . S
C6021 C6018 1.403 . S
C6021 C6022 1.392 . S
C6021 C6025 1.495 . S
C6022 C6021 1.392 . S
C6022 C6023 1.385 . S
C6022 C6024 1.478 . S
C6023 H6017 0.930 . S
C6023 C6019 1.400 . S
C6023 C6022 1.385 . S
C6024 C6022 1.478 . S
C6024 C6026 1.381 . S
C6024 C6030 1.383 . S
C6025 C6021 1.495 . S
C6025 H6031 0.959 . S
C6025 H6032 0.961 . S
C6025 H6033 0.960 . S
C6026 C6024 1.381 . S
C6026 C6027 1.394 . S
C6026 H6034 0.930 . S
C6027 C6026 1.394 . S
C6027 C6028 1.383 . S
C6027 H6035 0.929 . S
C6028 C6027 1.383 . S
C6028 C6029 1.377 . S
C6029 H6013 0.930 . S
C6029 C6028 1.377 . S
C6029 C6030 1.379 . S
C6030 H6014 0.931 . S
C6030 C6024 1.383 . S
C6030 C6029 1.379 . S
H6031 C6025 0.959 . S
H6032 C6025 0.961 . S
H6033 C6025 0.960 . S
H6034 C6026 0.930 . S
H6035 C6027 0.929 . S
H6036 C6044 0.929 . S
H6037 C6046 0.930 . S
H6038 C6048 0.930 . S
H6039 C6051 0.929 . S
H6040 C6054 0.930 . S
H6041 C6056 0.960 . S
H6042 C6056 0.960 . S
H6043 C6056 0.960 1_556 S
C6044 H6036 0.929 . S
C6044 C6045 1.377 . S
C6044 C6046 1.384 . S
C6045 C6044 1.377 . S
C6045 C6051 1.390 . S
C6046 H6037 0.930 . S
C6046 C6044 1.384 . S
C6046 C6047 1.372 . S
C6047 C6046 1.372 . S
C6047 C6048 1.400 . S
C6047 C6052 1.490 . S
C6048 H6038 0.930 . S
C6048 C6047 1.400 . S
C6048 C6051 1.386 . S
H6049 C6065 0.930 . S
H6050 C6066 0.931 . S
C6051 H6039 0.929 . S
C6051 C6045 1.390 . S
C6051 C6048 1.386 . S
C6052 C6047 1.490 . S
C6052 C6054 1.395 . S
C6052 C6055 1.403 1_556 S
H6053 C6059 0.930 . S
C6054 H6040 0.930 . S
C6054 C6052 1.395 . S
C6054 C6057 1.403 . S
C6055 C6052 1.403 1_554 S
C6055 C6056 1.524 . S
C6055 C6059 1.400 . S
C6056 H6041 0.960 . S
C6056 H6042 0.960 . S
C6056 H6043 0.960 1_554 S
C6056 C6055 1.524 . S
C6057 C6054 1.403 . S
C6057 C6058 1.392 1_556 S
C6057 C6061 1.495 . S
C6058 C6057 1.392 1_554 S
C6058 C6059 1.385 . S
C6058 C6060 1.478 . S
C6059 H6053 0.930 . S
C6059 C6055 1.400 . S
C6059 C6058 1.385 . S
C6060 C6058 1.478 . S
C6060 C6062 1.381 . S
C6060 C6066 1.383 . S
C6061 C6057 1.495 . S
C6061 H6067 0.959 . S
C6061 H6068 0.961 . S
C6061 H6069 0.960 1_556 S
C6062 C6060 1.381 . S
C6062 C6063 1.394 . S
C6062 H6070 0.930 . S
C6063 C6062 1.394 . S
C6063 C6064 1.383 . S
C6063 H6071 0.929 . S
C6064 C6063 1.383 . S
C6064 C6065 1.377 . S
C6065 H6049 0.930 . S
C6065 C6064 1.377 . S
C6065 C6066 1.379 . S
C6066 H6050 0.931 . S
C6066 C6060 1.383 . S
C6066 C6065 1.379 . S
H6067 C6061 0.959 . S
H6068 C6061 0.961 . S
H6069 C6061 0.960 1_554 S
H6070 C6062 0.930 . S
H6071 C6063 0.929 . S
H6072 C6080 0.929 . S
H6073 C6082 0.930 . S
H6074 C6084 0.930 . S
H6075 C6087 0.929 . S
H6076 C6090 0.930 . S
H6077 C6092 0.960 . S
H6078 C6092 0.960 . S
H6079 C6092 0.960 . S
C6080 H6072 0.929 . S
C6080 C6081 1.377 . S
C6080 C6082 1.384 . S
C6081 C6080 1.377 . S
C6081 C6087 1.390 . S
C6082 H6073 0.930 . S
C6082 C6080 1.384 . S
C6082 C6083 1.372 . S
C6083 C6082 1.372 . S
C6083 C6084 1.400 . S
C6083 C6088 1.490 . S
C6084 H6074 0.930 . S
C6084 C6083 1.400 . S
C6084 C6087 1.386 . S
H6085 C6101 0.930 . S
H6086 C6102 0.931 . S
C6087 H6075 0.929 . S
C6087 C6081 1.390 . S
C6087 C6084 1.386 . S
C6088 C6083 1.490 . S
C6088 C6090 1.395 . S
C6088 C6091 1.403 . S
H6089 C6095 0.930 . S
C6090 H6076 0.930 . S
C6090 C6088 1.395 . S
C6090 C6093 1.403 . S
C6091 C6088 1.403 . S
C6091 C6092 1.524 . S
C6091 C6095 1.400 . S
C6092 H6077 0.960 . S
C6092 H6078 0.960 . S
C6092 H6079 0.960 . S
C6092 C6091 1.524 . S
C6093 C6090 1.403 . S
C6093 C6094 1.392 . S
C6093 C6097 1.495 . S
C6094 C6093 1.392 . S
C6094 C6095 1.385 . S
C6094 C6096 1.478 . S
C6095 H6089 0.930 . S
C6095 C6091 1.400 . S
C6095 C6094 1.385 . S
C6096 C6094 1.478 . S
C6096 C6098 1.381 . S
C6096 C6102 1.383 . S
C6097 C6093 1.495 . S
C6097 H6103 0.959 . S
C6097 H6104 0.961 . S
C6097 H6105 0.960 . S
C6098 C6096 1.381 . S
C6098 C6099 1.394 . S
C6098 H6106 0.930 . S
C6099 C6098 1.394 . S
C6099 C6100 1.383 . S
C6099 H6107 0.929 . S
C6100 C6099 1.383 . S
C6100 C6101 1.377 . S
C6101 H6085 0.930 . S
C6101 C6100 1.377 . S
C6101 C6102 1.379 . S
C6102 H6086 0.931 . S
C6102 C6096 1.383 . S
C6102 C6101 1.379 . S
H6103 C6097 0.959 . S
H6104 C6097 0.961 . S
H6105 C6097 0.960 . S
H6106 C6098 0.930 . S
H6107 C6099 0.929 . S
H6108 C6116 0.929 . S
H6109 C6118 0.930 . S
H6110 C6120 0.930 . S
H6111 C6123 0.929 . S
H6112 C6126 0.930 . S
H6113 C6128 0.960 . S
H6114 C6128 0.960 . S
H6115 C6128 0.960 . S
C6116 H6108 0.929 . S
C6116 C6117 1.377 . S
C6116 C6118 1.384 . S
C6117 C6116 1.377 . S
C6117 C6123 1.390 . S
C6118 H6109 0.930 . S
C6118 C6116 1.384 . S
C6118 C6119 1.372 . S
C6119 C6118 1.372 . S
C6119 C6120 1.400 . S
C6119 C6124 1.490 . S
C6120 H6110 0.930 . S
C6120 C6119 1.400 . S
C6120 C6123 1.386 . S
H6121 C6137 0.930 . S
H6122 C6138 0.931 . S
C6123 H6111 0.929 . S
C6123 C6117 1.390 . S
C6123 C6120 1.386 . S
C6124 C6119 1.490 . S
C6124 C6126 1.395 . S
C6124 C6127 1.403 . S
H6125 C6131 0.930 . S
C6126 H6112 0.930 . S
C6126 C6124 1.395 . S
C6126 C6129 1.403 . S
C6127 C6124 1.403 . S
C6127 C6128 1.524 . S
C6127 C6131 1.400 . S
C6128 H6113 0.960 . S
C6128 H6114 0.960 . S
C6128 H6115 0.960 . S
C6128 C6127 1.524 . S
C6129 C6126 1.403 . S
C6129 C6130 1.392 . S
C6129 C6133 1.495 . S
C6130 C6129 1.392 . S
C6130 C6131 1.385 . S
C6130 C6132 1.478 . S
C6131 H6125 0.930 . S
C6131 C6127 1.400 . S
C6131 C6130 1.385 . S
C6132 C6130 1.478 . S
C6132 C6134 1.381 . S
C6132 C6138 1.383 . S
C6133 C6129 1.495 . S
C6133 H6139 0.959 . S
C6133 H6140 0.961 . S
C6133 H6141 0.960 . S
C6134 C6132 1.381 . S
C6134 C6135 1.394 . S
C6134 H6142 0.930 . S
C6135 C6134 1.394 . S
C6135 C6136 1.383 . S
C6135 H6143 0.929 . S
C6136 C6135 1.383 . S
C6136 C6137 1.377 . S
C6137 H6121 0.930 . S
C6137 C6136 1.377 . S
C6137 C6138 1.379 . S
C6138 H6122 0.931 . S
C6138 C6132 1.383 . S
C6138 C6137 1.379 . S
H6139 C6133 0.959 . S
H6140 C6133 0.961 . S
H6141 C6133 0.960 . S
H6142 C6134 0.930 . S
H6143 C6135 0.929 . S
C2697 C58 0.749 . S
C2716 C2335 0.469 . S
C2733 C142 0.763 . S
C2752 C739 0.507 . S
C2769 C226 0.764 . S
C2788 C2167 0.506 . S
C2805 C907 0.481 . S
C2824 C310 0.810 . S
C2841 C394 0.757 . S
C2860 C2503 0.492 . S
C2877 C1243 0.472 . S
C2896 C478 0.743 . S
C2913 C2671 0.468 . S
C2932 C562 0.708 . S
C2949 C646 0.759 . S
C2968 C1075 0.498 . S
C2985 C742 0.751 . S
C3004 C1652 0.478 . S
C3021 C826 0.744 . S
C3040 C56 0.510 . S
C3057 C1484 0.470 . S
C3076 C910 0.759 . S
C3093 C224 0.483 . S
C3112 C994 0.726 . S
C3129 C1078 0.753 . S
C3148 C1820 0.473 . S
C3165 C1162 0.745 . S
C3184 C560 0.501 . S
C3201 C1246 0.762 . S
C3220 C1988 0.456 . S
C3237 C392 0.468 . S
C3256 C1330 0.817 . S
C3273 C991 0.468 . S
C3292 C1402 0.714 . S
C3309 C2083 0.481 . S
C3328 C1486 0.814 . S
C3345 C823 0.468 . S
C3364 C1570 0.706 . S
C3381 C1654 0.749 . S
C3400 C2251 0.464 . S
C3417 C1159 0.472 . S
C3436 C1738 0.742 . S
C3453 C2587 0.477 . S
C3472 C1822 0.784 . S
C3489 C1327 0.469 . S
C3508 C1906 0.715 . S
C3525 C1990 0.753 . S
C3544 C2419 0.475 . S
C3561 C2086 0.747 . S
C3580 C308 0.494 . S
C3597 C2170 0.746 . S
C3616 C1400 0.500 . S
C3633 C2254 0.755 . S
C3652 C140 0.468 . S
C3669 C2338 0.747 . S
C3688 C1568 0.490 . S
C3705 C476 0.473 . S
C3724 C2422 0.730 . S
C3741 C1904 0.483 . S
C3760 C2506 0.751 . S
C3777 C2590 0.748 . S
C3796 C644 0.487 . S
C3813 C2674 0.748 . S
C3832 C1736 0.490 . S
C3849 C63 2.952 . S
C3868 C1575 2.947 . S
C3885 C1659 2.951 . S
C3904 C147 2.950 . S
C3921 C231 2.951 . S
C3940 C1407 2.953 . S
C3957 C315 2.952 . S
C3976 C1491 2.944 . S
C3993 C1911 2.952 . S
C4012 C399 2.943 . S
C4029 C483 2.951 . S
C4048 C1995 2.952 . S
C4065 C1743 2.952 . S
C4084 C567 2.946 . S
C4101 C651 2.951 . S
C4120 C1827 2.949 . S
C4137 C2258 2.951 . S
C4156 C746 2.947 . S
C4173 C830 2.953 . S
C4192 C2342 2.953 . S
C4209 C914 2.953 . S
C4228 C2090 2.949 . S
C4245 C998 2.952 . S
C4264 C2174 2.952 . S
C4281 C2594 2.951 . S
C4300 C1082 2.944 . S
C4317 C2678 2.952 . S
C4336 C1166 2.944 . S
C4353 C1250 2.952 . S
C4372 C2426 2.943 . S
C4389 C1334 2.952 . S
C4408 C2510 2.953 . S
C4425 C67 2.933 . S
C4444 C2072 2.916 . S
C4461 C812 2.938 . S
C4480 C151 2.921 . S
C4497 C235 2.933 . S
C4516 C2240 2.932 . S
C4533 C319 2.934 . S
C4552 C980 2.915 . S
C4569 C2408 2.935 . S
C4588 C403 2.914 . S
C4605 C1148 2.938 . S
C4624 C487 2.950 . S
C4641 C571 2.938 . S
C4660 C2576 2.950 . S
C4677 C655 2.940 . S
C4696 C1316 2.949 . S
C4713 C1411 2.937 . S
C4732 C728 2.948 . S
C4749 C1579 2.936 . S
C4768 C896 2.914 . S
C4785 C1747 2.934 . S
C4804 C1064 2.935 . S
C4821 C1232 2.940 . S
C4840 C1915 2.931 . S
C4857 C1495 2.940 . S
C4876 C2156 2.948 . S
C4893 C1663 2.941 . S
C4912 C2324 2.944 . S
C4929 C2492 2.933 . S
C4948 C1831 2.918 . S
C4965 C2660 2.935 . S
C4984 C1999 2.941 . S
C5001 C74 4.376 . S
C5020 C494 4.369 1_545 S
C5037 C578 4.376 . S
C5056 C158 4.370 1_545 S
C5073 C662 4.375 1_565 S
C5092 C242 4.368 . S
C5109 C410 4.378 . S
C5128 C326 4.382 1_565 S
C5145 C735 4.373 . S
C5164 C1155 4.369 1_565 S
C5181 C819 4.378 1_565 S
C5200 C1239 4.357 . S
C5217 C1323 4.378 1_545 S
C5236 C903 4.357 . S
C5253 C987 4.373 1_545 S
C5272 C1071 4.375 . S
C5289 C1418 4.378 . S
C5308 C1838 4.380 . S
C5325 C1502 4.373 . S
C5344 C1922 4.360 . S
C5361 C1586 4.375 . S
C5380 C2006 4.367 . S
C5397 C1754 4.375 . S
C5416 C1670 4.366 . S
C5433 C2079 4.375 . S
C5452 C2499 4.359 . S
C5469 C2163 4.378 . S
C5488 C2583 4.369 . S
C5505 C2667 4.375 . S
C5524 C2247 4.359 . S
C5541 C2331 4.378 . S
C5560 C2415 4.357 . S
C5577 C70 1.140 . S
C5596 C406 1.181 . S
C5613 C154 1.160 . S
C5632 C490 1.170 . S
C5649 C574 1.144 . S
C5668 C238 1.137 . S
C5685 C658 1.141 . S
C5704 C322 1.204 . S
C5721 C730 1.159 . S
C5740 C1066 1.189 . S
C5757 C1150 1.141 . S
C5776 C814 1.148 . S
C5793 C1234 1.147 . S
C5812 C898 1.107 . S
C5829 C1318 1.140 . S
C5848 C982 1.185 . S
C5865 C1414 1.144 . S
C5884 C1750 1.211 . S
C5901 C1834 1.165 . S
C5920 C1498 1.129 . S
C5937 C1582 1.151 . S
C5956 C1918 1.108 . S
C5973 C2002 1.140 . S
C5992 C1666 1.197 . S
C6009 C2410 1.165 . S
C6028 C2074 1.151 . S
C6045 C2158 1.149 . S
C6064 C2494 1.102 . S
C6081 C2242 1.146 . S
C6100 C2578 1.113 . S
C6117 C2326 1.140 . S
C6136 C2662 1.161 . S
