# Generated by pormake.
# Topology afi, (4)-cn, num edge types: 1
# Building blocks:
#     Node 0, Type 0, BuildingBlock: TATPOV_clean_sbu_0, # of connection points: 4
#     Node 1, Type 0, BuildingBlock: TATPOV_clean_sbu_0, # of connection points: 4
#     Node 2, Type 0, BuildingBlock: TATPOV_clean_sbu_0, # of connection points: 4
#     Node 3, Type 0, BuildingBlock: TATPOV_clean_sbu_0, # of connection points: 4
#     Node 4, Type 0, BuildingBlock: TATPOV_clean_sbu_0, # of connection points: 4
#     Node 5, Type 0, BuildingBlock: TATPOV_clean_sbu_0, # of connection points: 4
#     Node 6, Type 0, BuildingBlock: TATPOV_clean_sbu_0, # of connection points: 4
#     Node 7, Type 0, BuildingBlock: TATPOV_clean_sbu_0, # of connection points: 4
#     Node 8, Type 0, BuildingBlock: TATPOV_clean_sbu_0, # of connection points: 4
#     Node 9, Type 0, BuildingBlock: TATPOV_clean_sbu_0, # of connection points: 4
#     Node 10, Type 0, BuildingBlock: TATPOV_clean_sbu_0, # of connection points: 4
#     Node 11, Type 0, BuildingBlock: TATPOV_clean_sbu_0, # of connection points: 4
#     Node 12, Type 0, BuildingBlock: TATPOV_clean_sbu_0, # of connection points: 4
#     Node 13, Type 0, BuildingBlock: TATPOV_clean_sbu_0, # of connection points: 4
#     Node 14, Type 0, BuildingBlock: TATPOV_clean_sbu_0, # of connection points: 4
#     Node 15, Type 0, BuildingBlock: TATPOV_clean_sbu_0, # of connection points: 4
#     Node 16, Type 0, BuildingBlock: TATPOV_clean_sbu_0, # of connection points: 4
#     Node 17, Type 0, BuildingBlock: TATPOV_clean_sbu_0, # of connection points: 4
#     Node 18, Type 0, BuildingBlock: TATPOV_clean_sbu_0, # of connection points: 4
#     Node 19, Type 0, BuildingBlock: TATPOV_clean_sbu_0, # of connection points: 4
#     Node 20, Type 0, BuildingBlock: TATPOV_clean_sbu_0, # of connection points: 4
#     Node 21, Type 0, BuildingBlock: TATPOV_clean_sbu_0, # of connection points: 4
#     Node 22, Type 0, BuildingBlock: TATPOV_clean_sbu_0, # of connection points: 4
#     Node 23, Type 0, BuildingBlock: TATPOV_clean_sbu_0, # of connection points: 4
#     Edge 24, Type (0, 0), BuildingBlock: MIFKUJ_clean_linker_0, # of connection points: 2
#     Edge 25, Type (0, 0), BuildingBlock: MIFKUJ_clean_linker_0, # of connection points: 2
#     Edge 26, Type (0, 0), BuildingBlock: MIFKUJ_clean_linker_0, # of connection points: 2
#     Edge 27, Type (0, 0), BuildingBlock: MIFKUJ_clean_linker_0, # of connection points: 2
#     Edge 28, Type (0, 0), BuildingBlock: MIFKUJ_clean_linker_0, # of connection points: 2
#     Edge 29, Type (0, 0), BuildingBlock: MIFKUJ_clean_linker_0, # of connection points: 2
#     Edge 30, Type (0, 0), BuildingBlock: MIFKUJ_clean_linker_0, # of connection points: 2
#     Edge 31, Type (0, 0), BuildingBlock: MIFKUJ_clean_linker_0, # of connection points: 2
#     Edge 32, Type (0, 0), BuildingBlock: MIFKUJ_clean_linker_0, # of connection points: 2
#     Edge 33, Type (0, 0), BuildingBlock: MIFKUJ_clean_linker_0, # of connection points: 2
#     Edge 34, Type (0, 0), BuildingBlock: MIFKUJ_clean_linker_0, # of connection points: 2
#     Edge 35, Type (0, 0), BuildingBlock: MIFKUJ_clean_linker_0, # of connection points: 2
#     Edge 36, Type (0, 0), BuildingBlock: MIFKUJ_clean_linker_0, # of connection points: 2
#     Edge 37, Type (0, 0), BuildingBlock: MIFKUJ_clean_linker_0, # of connection points: 2
#     Edge 38, Type (0, 0), BuildingBlock: MIFKUJ_clean_linker_0, # of connection points: 2
#     Edge 39, Type (0, 0), BuildingBlock: MIFKUJ_clean_linker_0, # of connection points: 2
#     Edge 40, Type (0, 0), BuildingBlock: MIFKUJ_clean_linker_0, # of connection points: 2
#     Edge 41, Type (0, 0), BuildingBlock: MIFKUJ_clean_linker_0, # of connection points: 2
#     Edge 42, Type (0, 0), BuildingBlock: MIFKUJ_clean_linker_0, # of connection points: 2
#     Edge 43, Type (0, 0), BuildingBlock: MIFKUJ_clean_linker_0, # of connection points: 2
#     Edge 44, Type (0, 0), BuildingBlock: MIFKUJ_clean_linker_0, # of connection points: 2
#     Edge 45, Type (0, 0), BuildingBlock: MIFKUJ_clean_linker_0, # of connection points: 2
#     Edge 46, Type (0, 0), BuildingBlock: MIFKUJ_clean_linker_0, # of connection points: 2
#     Edge 47, Type (0, 0), BuildingBlock: MIFKUJ_clean_linker_0, # of connection points: 2
#     Edge 48, Type (0, 0), BuildingBlock: MIFKUJ_clean_linker_0, # of connection points: 2
#     Edge 49, Type (0, 0), BuildingBlock: MIFKUJ_clean_linker_0, # of connection points: 2
#     Edge 50, Type (0, 0), BuildingBlock: MIFKUJ_clean_linker_0, # of connection points: 2
#     Edge 51, Type (0, 0), BuildingBlock: MIFKUJ_clean_linker_0, # of connection points: 2
#     Edge 52, Type (0, 0), BuildingBlock: MIFKUJ_clean_linker_0, # of connection points: 2
#     Edge 53, Type (0, 0), BuildingBlock: MIFKUJ_clean_linker_0, # of connection points: 2
#     Edge 54, Type (0, 0), BuildingBlock: MIFKUJ_clean_linker_0, # of connection points: 2
#     Edge 55, Type (0, 0), BuildingBlock: MIFKUJ_clean_linker_0, # of connection points: 2
#     Edge 56, Type (0, 0), BuildingBlock: MIFKUJ_clean_linker_0, # of connection points: 2
#     Edge 57, Type (0, 0), BuildingBlock: MIFKUJ_clean_linker_0, # of connection points: 2
#     Edge 58, Type (0, 0), BuildingBlock: MIFKUJ_clean_linker_0, # of connection points: 2
#     Edge 59, Type (0, 0), BuildingBlock: MIFKUJ_clean_linker_0, # of connection points: 2
#     Edge 60, Type (0, 0), BuildingBlock: MIFKUJ_clean_linker_0, # of connection points: 2
#     Edge 61, Type (0, 0), BuildingBlock: MIFKUJ_clean_linker_0, # of connection points: 2
#     Edge 62, Type (0, 0), BuildingBlock: MIFKUJ_clean_linker_0, # of connection points: 2
#     Edge 63, Type (0, 0), BuildingBlock: MIFKUJ_clean_linker_0, # of connection points: 2
#     Edge 64, Type (0, 0), BuildingBlock: MIFKUJ_clean_linker_0, # of connection points: 2
#     Edge 65, Type (0, 0), BuildingBlock: MIFKUJ_clean_linker_0, # of connection points: 2
#     Edge 66, Type (0, 0), BuildingBlock: MIFKUJ_clean_linker_0, # of connection points: 2
#     Edge 67, Type (0, 0), BuildingBlock: MIFKUJ_clean_linker_0, # of connection points: 2
#     Edge 68, Type (0, 0), BuildingBlock: MIFKUJ_clean_linker_0, # of connection points: 2
#     Edge 69, Type (0, 0), BuildingBlock: MIFKUJ_clean_linker_0, # of connection points: 2
#     Edge 70, Type (0, 0), BuildingBlock: MIFKUJ_clean_linker_0, # of connection points: 2
#     Edge 71, Type (0, 0), BuildingBlock: MIFKUJ_clean_linker_0, # of connection points: 2
# Relax obj value: 0.051
# Max RMSD: 0.065
# Mean RMSD: 0.065
data_MOF--net-afi--node1-TATPOV_clean_sbu_0--edge1-MIFKUJ_clean_linker_0
_symmetry_space_group_name_H-M    P1
_symmetry_Int_Tables_number       1
_symmetry_cell_setting            triclinic
loop_
_symmetry_equiv_pos_as_xyz
'x, y, z'
_cell_length_a     84.528197
_cell_length_b     84.530845
_cell_length_c     54.336086
_cell_angle_alpha  90.033798
_cell_angle_beta   89.985259
_cell_angle_gamma 119.97099
loop_
_atom_site_label
_atom_site_type_symbol
_atom_site_fract_x
_atom_site_fract_y
_atom_site_fract_z
_atom_type_partial_charge
Zn0 Zn 0.41514 0.09529 0.23379 0.0
Zn1 Zn 0.42761 0.10127 0.189 0.0
O2 O 0.40776 0.07358 0.19142 0.0
O3 O 0.39489 0.07031 0.22764 0.0
O4 O 0.43379 0.10513 0.15231 0.0
O5 O 0.4102 0.11576 0.23481 0.0
O6 O 0.4218 0.12196 0.19747 0.0
C7 C 0.39579 0.06356 0.20732 0.0
C8 C 0.45303 0.10425 0.23002 0.0
O9 O 0.45096 0.10615 0.20715 0.0
O10 O 0.43976 0.09927 0.24477 0.0
C11 C 0.4357 0.09366 0.13928 0.0
O12 O 0.43427 0.07905 0.14994 0.0
C13 C 0.41513 0.1259 0.21603 0.0
Zn14 Zn 0.31316 0.4179 0.23278 0.0
Zn15 Zn 0.32003 0.43102 0.18789 0.0
O16 O 0.32475 0.40896 0.18834 0.0
O17 O 0.31484 0.39603 0.22451 0.0
O18 O 0.32328 0.43847 0.15162 0.0
O19 O 0.28884 0.41582 0.23411 0.0
O20 O 0.2942 0.42706 0.19654 0.0
C21 C 0.32142 0.39618 0.2036 0.0
C22 C 0.34431 0.45447 0.22968 0.0
O23 O 0.33989 0.45312 0.20698 0.0
O24 O 0.33547 0.44112 0.24412 0.0
C25 C 0.33692 0.44044 0.13918 0.0
O26 O 0.34948 0.4382 0.15027 0.0
C27 C 0.28386 0.42111 0.21544 0.0
Zn28 Zn 0.89262 0.3131 0.23457 0.0
Zn29 Zn 0.89059 0.32085 0.18875 0.0
O30 O 0.91807 0.32864 0.19418 0.0
O31 O 0.91895 0.32148 0.2329 0.0
O32 O 0.88885 0.3246 0.15185 0.0
O33 O 0.87502 0.28679 0.23158 0.0
O34 O 0.87009 0.29364 0.19436 0.0
C35 C 0.92704 0.32804 0.21275 0.0
C36 C 0.88209 0.34051 0.22911 0.0
O37 O 0.88452 0.33887 0.20626 0.0
O38 O 0.88412 0.33058 0.24481 0.0
C39 C 0.89279 0.31565 0.13656 0.0
O40 O 0.89804 0.30446 0.14512 0.0
C41 C 0.86609 0.28205 0.21172 0.0
Zn42 Zn 0.56025 0.87832 0.2376 0.0
Zn43 Zn 0.55611 0.87946 0.19194 0.0
O44 O 0.57054 0.90712 0.20197 0.0
O45 O 0.56955 0.9046 0.24228 0.0
O46 O 0.55384 0.87934 0.15451 0.0
O47 O 0.57781 0.86942 0.23598 0.0
O48 O 0.56881 0.86385 0.19749 0.0
C49 C 0.57378 0.91451 0.22329 0.0
C50 C 0.52296 0.85897 0.22558 0.0
O51 O 0.52935 0.86648 0.20477 0.0
O52 O 0.5337 0.86065 0.24286 0.0
C53 C 0.54658 0.88727 0.14312 0.0
O54 O 0.54031 0.89618 0.15589 0.0
C55 C 0.57748 0.86211 0.21559 0.0
Zn56 Zn 0.68006 0.57145 0.22919 0.0
Zn57 Zn 0.67037 0.55989 0.18433 0.0
O58 O 0.66638 0.58228 0.18824 0.0
O59 O 0.67505 0.59181 0.22613 0.0
O60 O 0.6651 0.55315 0.14794 0.0
O61 O 0.70528 0.57615 0.22563 0.0
O62 O 0.696 0.56236 0.18986 0.0
C63 C 0.66868 0.5933 0.2058 0.0
C64 C 0.64921 0.5348 0.22665 0.0
O65 O 0.65077 0.53777 0.20351 0.0
O66 O 0.66032 0.54685 0.24139 0.0
C67 C 0.67339 0.56542 0.13166 0.0
O68 O 0.68512 0.58209 0.13887 0.0
C69 C 0.70818 0.56937 0.20664 0.0
Zn70 Zn 0.08878 0.68601 0.23752 0.0
Zn71 Zn 0.09243 0.67937 0.19133 0.0
O72 O 0.06545 0.67374 0.19589 0.0
O73 O 0.06445 0.68352 0.23311 0.0
O74 O 0.09401 0.67576 0.15433 0.0
O75 O 0.11063 0.71065 0.23693 0.0
O76 O 0.11424 0.70559 0.19813 0.0
C77 C 0.05676 0.67669 0.21285 0.0
C78 C 0.09532 0.65582 0.23132 0.0
O79 O 0.09689 0.66025 0.20863 0.0
O80 O 0.09118 0.66421 0.24706 0.0
C81 C 0.10737 0.67523 0.14434 0.0
O82 O 0.12076 0.67683 0.15835 0.0
C83 C 0.11959 0.7159 0.2171 0.0
Zn84 Zn 0.85737 0.51863 0.2871 0.0
Zn85 Zn 0.8606 0.52208 0.33184 0.0
O86 O 0.88272 0.54632 0.31898 0.0
O87 O 0.87345 0.54528 0.28091 0.0
O88 O 0.86158 0.52469 0.36933 0.0
O89 O 0.83052 0.50796 0.28583 0.0
O90 O 0.83556 0.5201 0.32273 0.0
C91 C 0.88454 0.55394 0.29806 0.0
C92 C 0.86738 0.49424 0.30454 0.0
O93 O 0.86316 0.49899 0.32474 0.0
O94 O 0.86778 0.50234 0.28483 0.0
C95 C 0.87566 0.52815 0.38193 0.0
O96 O 0.89017 0.52999 0.37047 0.0
C97 C 0.82501 0.51301 0.30421 0.0
Zn98 Zn 0.33979 0.85282 0.27622 0.0
Zn99 Zn 0.33567 0.85551 0.32122 0.0
O100 O 0.34612 0.88202 0.30837 0.0
O101 O 0.3562 0.87969 0.27201 0.0
O102 O 0.3337 0.85743 0.35851 0.0
O103 O 0.31356 0.84258 0.26909 0.0
O104 O 0.30877 0.83885 0.309 0.0
C105 C 0.35475 0.88943 0.28852 0.0
C106 C 0.35682 0.83723 0.3001 0.0
O107 O 0.35378 0.84542 0.31766 0.0
O108 O 0.35 0.8363 0.27913 0.0
C109 C 0.32502 0.86453 0.36827 0.0
O110 O 0.31685 0.87075 0.35387 0.0
C111 C 0.30261 0.83656 0.28702 0.0
Zn112 Zn 0.46627 0.33346 0.27729 0.0
Zn113 Zn 0.46286 0.33402 0.32287 0.0
O114 O 0.44018 0.33494 0.30976 0.0
O115 O 0.44064 0.32751 0.27106 0.0
O116 O 0.45998 0.33259 0.36027 0.0
O117 O 0.4723 0.31378 0.27622 0.0
O118 O 0.46224 0.30948 0.3143 0.0
C119 C 0.43278 0.33076 0.28849 0.0
C120 C 0.49376 0.36677 0.29573 0.0
O121 O 0.48732 0.35848 0.31612 0.0
O122 O 0.48615 0.35911 0.27575 0.0
C123 C 0.45902 0.34469 0.37313 0.0
O124 O 0.46006 0.35897 0.362 0.0
C125 C 0.46733 0.30412 0.29544 0.0
Zn126 Zn 0.14018 0.49506 0.27547 0.0
Zn127 Zn 0.1343 0.48567 0.32141 0.0
O128 O 0.11007 0.46596 0.30565 0.0
O129 O 0.11487 0.47523 0.26708 0.0
O130 O 0.13189 0.47989 0.35823 0.0
O131 O 0.1609 0.49079 0.27196 0.0
O132 O 0.15621 0.48215 0.31076 0.0
C133 C 0.10461 0.46416 0.28337 0.0
C134 C 0.14212 0.52378 0.30261 0.0
O135 O 0.1373 0.51191 0.31976 0.0
O136 O 0.14522 0.52011 0.28125 0.0
C137 C 0.12074 0.48171 0.37209 0.0
O138 O 0.11007 0.48717 0.36231 0.0
C139 C 0.16505 0.48478 0.29066 0.0
Zn140 Zn 0.65476 0.13935 0.27917 0.0
Zn141 Zn 0.6567 0.13264 0.32513 0.0
O142 O 0.64977 0.10771 0.30921 0.0
O143 O 0.64932 0.1142 0.27005 0.0
O144 O 0.65907 0.12941 0.36203 0.0
O145 O 0.67978 0.15988 0.27684 0.0
O146 O 0.68312 0.15328 0.31501 0.0
C147 C 0.64762 0.10293 0.2866 0.0
C148 C 0.62833 0.14277 0.30541 0.0
O149 O 0.63501 0.13802 0.32314 0.0
O150 O 0.63486 0.1447 0.28401 0.0
C151 C 0.64573 0.11759 0.37476 0.0
O152 O 0.63011 0.10695 0.36369 0.0
C153 C 0.68977 0.16276 0.29547 0.0
Zn154 Zn 0.51437 0.65547 0.27498 0.0
Zn155 Zn 0.5248 0.65614 0.32022 0.0
O156 O 0.54318 0.65075 0.30228 0.0
O157 O 0.53398 0.65017 0.26417 0.0
O158 O 0.53075 0.65813 0.35691 0.0
O159 O 0.51906 0.68079 0.27499 0.0
O160 O 0.53025 0.68256 0.31212 0.0
C161 C 0.54469 0.64885 0.27923 0.0
C162 C 0.48576 0.62782 0.30131 0.0
O163 O 0.4979 0.63405 0.31823 0.0
O164 O 0.48933 0.63528 0.28038 0.0
C165 C 0.5291 0.64501 0.37025 0.0
O166 O 0.52382 0.62906 0.35998 0.0
C167 C 0.52698 0.69003 0.29391 0.0
Zn168 Zn 0.50657 0.8604 0.7835 0.0
Zn169 Zn 0.51943 0.86681 0.82843 0.0
O170 O 0.53909 0.89 0.81073 0.0
O171 O 0.52719 0.88498 0.77349 0.0
O172 O 0.5269 0.86979 0.86472 0.0
O173 O 0.50924 0.83864 0.77963 0.0
O174 O 0.52114 0.84408 0.81684 0.0
C175 C 0.53976 0.89501 0.7884 0.0
C176 C 0.4809 0.86091 0.81433 0.0
O177 O 0.49383 0.86522 0.82975 0.0
O178 O 0.48257 0.85726 0.79231 0.0
C179 C 0.524 0.88015 0.87878 0.0
O180 O 0.51687 0.88948 0.8693 0.0
C181 C 0.51653 0.83465 0.79703 0.0
Zn182 Zn 0.63594 0.51112 0.77644 0.0
Zn183 Zn 0.63975 0.5163 0.82158 0.0
O184 O 0.63106 0.53416 0.80953 0.0
O185 O 0.62127 0.52338 0.77239 0.0
O186 O 0.64193 0.5196 0.85891 0.0
O187 O 0.66243 0.52519 0.76967 0.0
O188 O 0.66629 0.52461 0.80959 0.0
C189 C 0.62309 0.53423 0.78959 0.0
C190 C 0.6168 0.47773 0.79874 0.0
O191 O 0.6205 0.48841 0.81719 0.0
O192 O 0.62369 0.48424 0.778 0.0
C193 C 0.65196 0.53511 0.86889 0.0
O194 O 0.66121 0.54943 0.85468 0.0
C195 C 0.67293 0.52851 0.78785 0.0
Zn196 Zn 0.1228 0.65428 0.78492 0.0
Zn197 Zn 0.11727 0.65707 0.82894 0.0
O198 O 0.09452 0.65582 0.81169 0.0
O199 O 0.10384 0.65973 0.77327 0.0
O200 O 0.11348 0.6595 0.8657 0.0
O201 O 0.14873 0.67384 0.78491 0.0
O202 O 0.14131 0.68125 0.82008 0.0
C203 C 0.09216 0.65818 0.78903 0.0
C204 C 0.11643 0.62272 0.80785 0.0
O205 O 0.11818 0.63262 0.82659 0.0
O206 O 0.11645 0.62854 0.78648 0.0
C207 C 0.12457 0.65953 0.88161 0.0
O208 O 0.13855 0.6581 0.87395 0.0
C209 C 0.15256 0.68509 0.80231 0.0
Zn210 Zn 0.47521 0.13399 0.78126 0.0
Zn211 Zn 0.46399 0.12534 0.82561 0.0
O212 O 0.44598 0.10119 0.80811 0.0
O213 O 0.45695 0.10861 0.77049 0.0
O214 O 0.4578 0.12156 0.86228 0.0
O215 O 0.46925 0.15351 0.77818 0.0
O216 O 0.45848 0.14619 0.81586 0.0
C217 C 0.44556 0.09702 0.78542 0.0
C218 C 0.50359 0.1364 0.8085 0.0
O219 O 0.49085 0.12992 0.82459 0.0
O220 O 0.50067 0.14067 0.78744 0.0
C221 C 0.45849 0.10916 0.87476 0.0
O222 O 0.46268 0.09799 0.86348 0.0
C223 C 0.46143 0.15583 0.79647 0.0
Zn224 Zn 0.36104 0.49111 0.78304 0.0
Zn225 Zn 0.35264 0.48215 0.8269 0.0
O226 O 0.36213 0.46511 0.8143 0.0
O227 O 0.37569 0.4787 0.7798 0.0
O228 O 0.34688 0.47566 0.86329 0.0
O229 O 0.33542 0.47803 0.7717 0.0
O230 O 0.32748 0.47507 0.81069 0.0
C231 C 0.37185 0.46633 0.7956 0.0
C232 C 0.37763 0.52229 0.81092 0.0
O233 O 0.37218 0.51012 0.82773 0.0
O234 O 0.373 0.51764 0.78885 0.0
C235 C 0.3589 0.47567 0.87744 0.0
O236 O 0.37481 0.47967 0.86809 0.0
C237 C 0.32314 0.47314 0.7879 0.0
Zn238 Zn 0.86897 0.33145 0.7775 0.0
Zn239 Zn 0.87296 0.33189 0.82269 0.0
O240 O 0.89956 0.34186 0.8097 0.0
O241 O 0.89545 0.34739 0.77139 0.0
O242 O 0.87504 0.33234 0.86023 0.0
O243 O 0.85828 0.30482 0.77399 0.0
O244 O 0.85506 0.30433 0.81418 0.0
C245 C 0.90606 0.34856 0.78855 0.0
C246 C 0.85492 0.35159 0.79695 0.0
O247 O 0.86333 0.34993 0.81544 0.0
O248 O 0.85305 0.34249 0.77765 0.0
C249 C 0.88086 0.32308 0.87162 0.0
O250 O 0.88581 0.31309 0.85878 0.0
C251 C 0.852 0.2959 0.79365 0.0
Zn252 Zn 0.12273 0.4364 0.72966 0.0
Zn253 Zn 0.123 0.44519 0.68386 0.0
O254 O 0.09617 0.42433 0.68984 0.0
O255 O 0.09661 0.41766 0.72891 0.0
O256 O 0.12414 0.45042 0.64695 0.0
O257 O 0.1408 0.42846 0.72601 0.0
O258 O 0.14437 0.43955 0.6885 0.0
C259 C 0.08799 0.41503 0.70895 0.0
C260 C 0.13068 0.47331 0.72417 0.0
O261 O 0.12748 0.4688 0.70151 0.0
O262 O 0.13048 0.46213 0.73982 0.0
C263 C 0.11301 0.4539 0.63571 0.0
O264 O 0.1001 0.45456 0.64836 0.0
C265 C 0.1491 0.43243 0.70567 0.0
Zn266 Zn 0.6677 0.09461 0.73207 0.0
Zn267 Zn 0.66701 0.10203 0.68841 0.0
O268 O 0.66249 0.07525 0.68951 0.0
O269 O 0.67209 0.07399 0.72656 0.0
O270 O 0.66686 0.10709 0.65159 0.0
O271 O 0.68829 0.11873 0.74093 0.0
O272 O 0.69232 0.12318 0.70101 0.0
C273 C 0.66639 0.06679 0.70571 0.0
C274 C 0.63667 0.09722 0.72337 0.0
O275 O 0.64536 0.10405 0.70335 0.0
O276 O 0.64246 0.08988 0.73841 0.0
C277 C 0.65307 0.09691 0.63823 0.0
O278 O 0.63874 0.0832 0.64862 0.0
C279 C 0.69767 0.1284 0.72306 0.0
Zn280 Zn 0.58019 0.69189 0.72474 0.0
Zn281 Zn 0.56544 0.68243 0.68193 0.0
O282 O 0.58425 0.67327 0.68544 0.0
O283 O 0.59894 0.68481 0.72009 0.0
O284 O 0.55819 0.67811 0.6456 0.0
O285 O 0.58709 0.71781 0.72276 0.0
O286 O 0.5722 0.70962 0.68766 0.0
C287 C 0.59652 0.6754 0.70096 0.0
C288 C 0.54146 0.6642 0.72558 0.0
O289 O 0.54257 0.66583 0.7022 0.0
O290 O 0.55547 0.67358 0.73879 0.0
C291 C 0.55546 0.66383 0.63409 0.0
O292 O 0.55664 0.65101 0.64622 0.0
C293 C 0.58066 0.72168 0.70425 0.0
Zn294 Zn 0.88168 0.55709 0.74388 0.0
Zn295 Zn 0.87708 0.55269 0.69741 0.0
O296 O 0.90333 0.57544 0.70195 0.0
O297 O 0.90449 0.58069 0.74174 0.0
O298 O 0.87399 0.54965 0.66002 0.0
O299 O 0.85851 0.55681 0.74924 0.0
O300 O 0.85525 0.55599 0.70902 0.0
C301 C 0.91172 0.5852 0.7207 0.0
C302 C 0.8777 0.52329 0.73031 0.0
O303 O 0.87443 0.52803 0.70945 0.0
O304 O 0.88245 0.53417 0.74834 0.0
C305 C 0.88648 0.54984 0.64666 0.0
O306 O 0.90137 0.55199 0.65735 0.0
C307 C 0.84961 0.55678 0.73057 0.0
Zn308 Zn 0.3053 0.88735 0.7269 0.0
Zn309 Zn 0.31504 0.88397 0.68318 0.0
O310 O 0.32095 0.91115 0.68586 0.0
O311 O 0.31136 0.91288 0.72286 0.0
O312 O 0.31981 0.88108 0.64701 0.0
O313 O 0.27967 0.86785 0.72421 0.0
O314 O 0.28857 0.86194 0.68906 0.0
C315 C 0.3187 0.9204 0.70272 0.0
C316 C 0.3351 0.87979 0.72656 0.0
O317 O 0.33384 0.8806 0.70323 0.0
O318 O 0.32418 0.88176 0.7405 0.0
C319 C 0.31165 0.885 0.63047 0.0
O320 O 0.30067 0.89099 0.63735 0.0
C321 C 0.27633 0.85776 0.70556 0.0
Zn322 Zn 0.40897 0.3046 0.73032 0.0
Zn323 Zn 0.42139 0.311 0.68533 0.0
O324 O 0.40468 0.32263 0.6891 0.0
O325 O 0.39197 0.31395 0.7256 0.0
O326 O 0.42795 0.31398 0.64872 0.0
O327 O 0.39948 0.27806 0.72895 0.0
O328 O 0.41142 0.28317 0.69181 0.0
C329 C 0.3938 0.32234 0.70566 0.0
C330 C 0.44814 0.3293 0.72706 0.0
O331 O 0.44549 0.32645 0.70396 0.0
O332 O 0.43481 0.32175 0.74188 0.0
C333 C 0.43151 0.32837 0.63682 0.0
O334 O 0.43143 0.34191 0.64861 0.0
C335 C 0.4031 0.27223 0.70959 0.0
H336 H 0.4062 0.04202 0.18288 0.0
H337 H 0.39596 0.01016 0.19306 0.0
H338 H 0.35303 0.0081 0.23831 0.0
H339 H 0.36333 0.03994 0.22844 0.0
H340 H 0.3765 0.00187 0.26448 0.0
H341 H 0.34296 0.98005 0.18907 0.0
H342 H 0.3384 0.97871 0.14414 0.0
H343 H 0.38015 0.96447 0.1342 0.0
H344 H 0.38514 0.96597 0.17907 0.0
H345 H 0.34157 0.9106 0.30726 0.0
H346 H 0.34682 0.93975 0.29077 0.0
H347 H 0.38642 0.94063 0.23978 0.0
H348 H 0.38079 0.91126 0.25566 0.0
H349 H 0.36345 0.94697 0.21599 0.0
H350 H 0.39864 0.97042 0.2898 0.0
H351 H 0.40469 0.97259 0.33443 0.0
H352 H 0.36183 0.9849 0.34699 0.0
H353 H 0.35536 0.98257 0.30245 0.0
C354 C 0.39405 0.03451 0.19403 0.0
C355 C 0.38571 0.04349 0.20517 0.0
C356 C 0.38826 0.01631 0.19995 0.0
C357 C 0.37392 0.00687 0.21678 0.0
C358 C 0.36425 0.01521 0.22552 0.0
C359 C 0.37007 0.03337 0.21974 0.0
C360 C 0.37098 0.98974 0.22832 0.0
C361 C 0.37329 0.98972 0.25393 0.0
C362 C 0.36752 0.97421 0.21443 0.0
C363 C 0.36453 0.97328 0.18744 0.0
C364 C 0.35128 0.97679 0.1773 0.0
C365 C 0.34859 0.97597 0.15184 0.0
C366 C 0.35901 0.97155 0.13632 0.0
C367 C 0.3721 0.96791 0.14624 0.0
C368 C 0.37485 0.96871 0.17169 0.0
C369 C 0.35173 0.91725 0.29298 0.0
C370 C 0.36074 0.90866 0.2827 0.0
C371 C 0.35469 0.93389 0.2835 0.0
C372 C 0.36699 0.94237 0.26395 0.0
C373 C 0.37674 0.93427 0.25467 0.0
C374 C 0.37362 0.91755 0.2639 0.0
C375 C 0.36894 0.95909 0.25218 0.0
C376 C 0.36654 0.95907 0.22656 0.0
C377 C 0.37253 0.97471 0.26601 0.0
C378 C 0.37639 0.97613 0.29281 0.0
C379 C 0.3904 0.97344 0.3021 0.0
C380 C 0.39393 0.97473 0.32737 0.0
C381 C 0.38362 0.97883 0.34354 0.0
C382 C 0.36979 0.9817 0.33445 0.0
C383 C 0.3662 0.98041 0.30919 0.0
H384 H 0.38637 0.97982 0.3631 0.0
H385 H 0.35691 0.97093 0.11661 0.0
H386 H 0.40615 0.30972 0.25603 0.0
H387 H 0.38296 0.31578 0.239 0.0
H388 H 0.40004 0.36109 0.28914 0.0
H389 H 0.42275 0.3545 0.30697 0.0
H390 H 0.36526 0.34623 0.28184 0.0
H391 H 0.41743 0.3667 0.22951 0.0
H392 H 0.44037 0.36375 0.20495 0.0
H393 H 0.398 0.32433 0.15825 0.0
H394 H 0.37478 0.32687 0.18277 0.0
H395 H 0.35451 0.40423 0.18536 0.0
H396 H 0.37032 0.38753 0.19568 0.0
H397 H 0.32011 0.34316 0.22441 0.0
H398 H 0.3045 0.3602 0.21512 0.0
H399 H 0.37066 0.3564 0.19147 0.0
H400 H 0.32793 0.33226 0.28088 0.0
H401 H 0.30878 0.34033 0.30631 0.0
H402 H 0.33883 0.39567 0.28046 0.0
H403 H 0.35832 0.388 0.25522 0.0
C404 C 0.40458 0.32065 0.26387 0.0
C405 C 0.41629 0.33175 0.28266 0.0
C406 C 0.39144 0.3242 0.25399 0.0
C407 C 0.39016 0.33925 0.26224 0.0
C408 C 0.40088 0.34948 0.28234 0.0
C409 C 0.41381 0.34568 0.2926 0.0
C410 C 0.37872 0.34515 0.24876 0.0
C411 C 0.36634 0.34828 0.26206 0.0
C412 C 0.38043 0.34831 0.22299 0.0
C413 C 0.39436 0.34683 0.20813 0.0
C414 C 0.413 0.35732 0.2141 0.0
C415 C 0.42605 0.35573 0.20018 0.0
C416 C 0.42064 0.34382 0.18009 0.0
C417 C 0.40216 0.33352 0.17384 0.0
C418 C 0.38905 0.33503 0.18774 0.0
C419 C 0.34668 0.39055 0.1928 0.0
C420 C 0.32839 0.38355 0.19975 0.0
C421 C 0.35574 0.38105 0.19883 0.0
C422 C 0.34651 0.36438 0.21157 0.0
C423 C 0.32758 0.35622 0.21516 0.0
C424 C 0.31863 0.36587 0.20963 0.0
C425 C 0.35705 0.35719 0.22452 0.0
C426 C 0.36933 0.35396 0.21116 0.0
C427 C 0.3558 0.35464 0.2504 0.0
C428 C 0.34442 0.35949 0.26596 0.0
C429 C 0.33049 0.34616 0.28072 0.0
C430 C 0.31958 0.35067 0.29509 0.0
C431 C 0.32255 0.36848 0.29494 0.0
C432 C 0.3365 0.38186 0.28052 0.0
C433 C 0.34749 0.37744 0.26618 0.0
H434 H 0.31406 0.37193 0.30603 0.0
H435 H 0.43076 0.34261 0.16933 0.0
H436 H 0.95104 0.35626 0.18332 0.0
H437 H 0.98349 0.37689 0.19225 0.0
H438 H 0.98066 0.34187 0.25181 0.0
H439 H 0.94845 0.32127 0.243 0.0
H440 H 0.99076 0.37702 0.26658 0.0
H441 H 0.0073 0.34729 0.20473 0.0
H442 H 0.00716 0.33541 0.16324 0.0
H443 H 0.02971 0.38941 0.13323 0.0
H444 H 0.02975 0.40158 0.17452 0.0
H445 H 0.08217 0.43246 0.30837 0.0
H446 H 0.05322 0.40676 0.29392 0.0
H447 H 0.05737 0.43616 0.22708 0.0
H448 H 0.08638 0.46148 0.24099 0.0
H449 H 0.04702 0.40248 0.21598 0.0
H450 H 0.02831 0.43215 0.27502 0.0
H451 H 0.02749 0.4451 0.31537 0.0
H452 H 0.0078 0.39265 0.34921 0.0
H453 H 0.00873 0.37944 0.30908 0.0
C454 C 0.95753 0.35261 0.19767 0.0
C455 C 0.94718 0.33731 0.2127 0.0
C456 C 0.97604 0.36443 0.20282 0.0
C457 C 0.98436 0.36099 0.22291 0.0
C458 C 0.97444 0.34483 0.23638 0.0
C459 C 0.95604 0.33306 0.23127 0.0
C460 C 0.00239 0.37525 0.2321 0.0
C461 C 0.00315 0.38238 0.2557 0.0
C462 C 0.01834 0.38261 0.21754 0.0
C463 C 0.01837 0.37532 0.1927 0.0
C464 C 0.01208 0.35661 0.18926 0.0
C465 C 0.01205 0.34983 0.16578 0.0
C466 C 0.01838 0.36164 0.1456 0.0
C467 C 0.0248 0.38027 0.14888 0.0
C468 C 0.02484 0.38712 0.17232 0.0
C469 C 0.07682 0.43345 0.29069 0.0
C470 C 0.08655 0.44899 0.27585 0.0
C471 C 0.06029 0.41877 0.28243 0.0
C472 C 0.05306 0.41957 0.25944 0.0
C473 C 0.06271 0.43516 0.24478 0.0
C474 C 0.07927 0.44968 0.25285 0.0
C475 C 0.03542 0.40427 0.25053 0.0
C476 C 0.03468 0.39702 0.22697 0.0
C477 C 0.01936 0.39695 0.26496 0.0
C478 C 0.01879 0.40486 0.28911 0.0
C479 C 0.02395 0.42341 0.29111 0.0
C480 C 0.02344 0.43079 0.31392 0.0
C481 C 0.01766 0.41972 0.33485 0.0
C482 C 0.01232 0.40122 0.33299 0.0
C483 C 0.01282 0.39378 0.31021 0.0
H484 H 0.01727 0.42546 0.35251 0.0
H485 H 0.01835 0.35636 0.12744 0.0
H486 H 0.58762 0.94184 0.18816 0.0
H487 H 0.60122 0.97488 0.19549 0.0
H488 H 0.59225 0.96489 0.27348 0.0
H489 H 0.57881 0.93241 0.26652 0.0
H490 H 0.58092 0.98787 0.25716 0.0
H491 H 0.63388 0.98021 0.24959 0.0
H492 H 0.65396 0.97134 0.22805 0.0
H493 H 0.66214 0.00898 0.16978 0.0
H494 H 0.6419 0.0179 0.19085 0.0
H495 H 0.63519 0.07252 0.31584 0.0
H496 H 0.62379 0.04099 0.3022 0.0
H497 H 0.63665 0.05937 0.22701 0.0
H498 H 0.64814 0.09077 0.24038 0.0
H499 H 0.64536 0.03301 0.23742 0.0
H500 H 0.5941 0.04216 0.2461 0.0
H501 H 0.5741 0.0512 0.26748 0.0
H502 H 0.56237 0.01069 0.32304 0.0
H503 H 0.58253 0.00159 0.30217 0.0
C504 C 0.58858 0.94675 0.20682 0.0
C505 C 0.58215 0.93448 0.22671 0.0
C506 C 0.59637 0.96558 0.21099 0.0
C507 C 0.59773 0.97228 0.23506 0.0
C508 C 0.59126 0.96001 0.25478 0.0
C509 C 0.58362 0.94139 0.25069 0.0
C510 C 0.60576 0.992 0.24028 0.0
C511 C 0.59504 -0.00227 0.25296 0.0
C512 C 0.62404 0.0049 0.23427 0.0
C513 C 0.6362 -0.00045 0.22163 0.0
C514 C 0.63983 0.98647 0.23207 0.0
C515 C 0.65126 0.98146 0.21998 0.0
C516 C 0.65927 0.98954 0.19752 0.0
C517 C 0.6559 0.0027 0.18715 0.0
C518 C 0.64445 0.00774 0.19916 0.0
C519 C 0.6358 0.06986 0.29646 0.0
C520 C 0.64238 0.0841 0.27919 0.0
C521 C 0.62922 0.05186 0.28868 0.0
C522 C 0.62917 0.04787 0.26354 0.0
C523 C 0.63652 0.06216 0.24645 0.0
C524 C 0.643 0.08009 0.25417 0.0
C525 C 0.62063 0.02874 0.25488 0.0
C526 C 0.63121 0.02317 0.24146 0.0
C527 C 0.60218 0.01595 0.26016 0.0
C528 C 0.58996 0.02132 0.27269 0.0
C529 C 0.58737 0.03528 0.26298 0.0
C530 C 0.57599 0.0404 0.27499 0.0
C531 C 0.567 0.03156 0.29664 0.0
C532 C 0.56935 0.01754 0.30629 0.0
C533 C 0.58074 0.01239 0.29436 0.0
H534 H 0.5582 0.03554 0.30591 0.0
H535 H 0.66812 0.98565 0.18819 0.0
H536 H 0.54696 0.63812 0.23282 0.0
H537 H 0.5704 0.63263 0.21571 0.0
H538 H 0.59832 0.64609 0.28557 0.0
H539 H 0.5747 0.65163 0.30311 0.0
H540 H 0.62151 0.66255 0.2426 0.0
H541 H 0.57457 0.60369 0.27231 0.0
H542 H 0.54299 0.57807 0.27593 0.0
H543 H 0.54077 0.56962 0.19779 0.0
H544 H 0.57228 0.59537 0.19366 0.0
H545 H 0.6754 0.62092 0.23731 0.0
H546 H 0.65674 0.63497 0.24311 0.0
H547 H 0.62618 0.60831 0.17752 0.0
H548 H 0.64452 0.59347 0.17213 0.0
H549 H 0.60408 0.60018 0.21399 0.0
H550 H 0.65192 0.6565 0.18397 0.0
H551 H 0.6833 0.68228 0.17931 0.0
H552 H 0.68408 0.69624 0.25546 0.0
H553 H 0.65279 0.67038 0.26071 0.0
C554 C 0.55806 0.63995 0.24465 0.0
C555 C 0.55893 0.64525 0.26941 0.0
C556 C 0.57145 0.6368 0.23478 0.0
C557 C 0.58602 0.63893 0.24939 0.0
C558 C 0.58715 0.64444 0.27402 0.0
C559 C 0.57361 0.64745 0.28404 0.0
C560 C 0.5997 0.63478 0.23895 0.0
C561 C 0.61784 0.64891 0.23655 0.0
C562 C 0.59462 0.61713 0.23017 0.0
C563 C 0.57571 0.60158 0.23265 0.0
C564 C 0.56729 0.59647 0.25587 0.0
C565 C 0.54942 0.58191 0.25802 0.0
C566 C 0.53986 0.57226 0.23709 0.0
C567 C 0.54818 0.57712 0.21398 0.0
C568 C 0.56605 0.59169 0.21173 0.0
C569 C 0.66506 0.61842 0.22366 0.0
C570 C 0.66121 0.6058 0.2045 0.0
C571 C 0.65445 0.62663 0.22692 0.0
C572 C 0.63998 0.62271 0.2108 0.0
C573 C 0.63722 0.61147 0.19027 0.0
C574 C 0.64779 0.60309 0.1871 0.0
C575 C 0.6262 0.62793 0.21776 0.0
C576 C 0.6079 0.61396 0.21961 0.0
C577 C 0.63116 0.64578 0.22581 0.0
C578 C 0.65001 0.6614 0.22276 0.0
C579 C 0.65882 0.66498 0.19978 0.0
C580 C 0.67659 0.67963 0.19703 0.0
C581 C 0.68569 0.69087 0.21709 0.0
C582 C 0.67701 0.68751 0.23994 0.0
C583 C 0.65924 0.67288 0.2428 0.0
H584 H 0.69945 0.70221 0.21491 0.0
H585 H 0.52602 0.56098 0.23879 0.0
H586 H 0.03115 0.64381 0.19463 0.0
H587 H -0.00115 0.62773 0.20573 0.0
H588 H 0.00532 0.67682 0.23972 0.0
H589 H 0.03785 0.69258 0.22971 0.0
H590 H 0.99162 0.6518 0.27118 0.0
H591 H 0.97587 0.65514 0.1886 0.0
H592 H 0.97632 0.65296 0.14338 0.0
H593 H 0.95601 0.59529 0.14863 0.0
H594 H 0.95568 0.59714 0.1939 0.0
H595 H 0.88577 0.57902 0.2659 0.0
H596 H 0.91298 0.60568 0.24977 0.0
H597 H 0.94656 0.59503 0.29922 0.0
H598 H 0.91922 0.56882 0.31617 0.0
H599 H 0.93795 0.60551 0.22459 0.0
H600 H 0.98701 0.63169 0.30921 0.0
H601 H 0.98542 0.6362 0.35379 0.0
H602 H 0.937 0.63982 0.34311 0.0
H603 H 0.93843 0.63558 0.29843 0.0
C604 C 0.02548 0.65135 0.20352 0.0
C605 C 0.03692 0.66938 0.21138 0.0
C606 C 0.00699 0.64215 0.20994 0.0
C607 C -0.00041 0.65101 0.22374 0.0
C608 C 0.01071 0.66962 0.22933 0.0
C609 C 0.02925 0.67867 0.2234 0.0
C610 C 0.98125 0.64032 0.2353 0.0
C611 C 0.97983 0.64184 0.26089 0.0
C612 C 0.96571 0.62754 0.22195 0.0
C613 C 0.96585 0.62631 0.19469 0.0
C614 C 0.97162 0.64201 0.18013 0.0
C615 C 0.97183 0.64083 0.15448 0.0
C616 C 0.96622 0.62401 0.14314 0.0
C617 C 0.96035 0.60832 0.15744 0.0
C618 C 0.96012 0.60942 0.1831 0.0
C619 C 0.89894 0.58271 0.27381 0.0
C620 C 0.90044 0.5719 0.29227 0.0
C621 C 0.91449 0.59788 0.26447 0.0
C622 C 0.93188 0.6024 0.27316 0.0
C623 C 0.93331 0.59208 0.29247 0.0
C624 C 0.91768 0.57708 0.30218 0.0
C625 C 0.9485 0.61671 0.2605 0.0
C626 C 0.94963 0.61576 0.23477 0.0
C627 C 0.9636 0.6304 0.27361 0.0
C628 C 0.96276 0.63318 0.30046 0.0
C629 C 0.97608 0.63354 0.31635 0.0
C630 C 0.97519 0.63603 0.34165 0.0
C631 C 0.9611 0.63825 0.35129 0.0
C632 C 0.94788 0.63804 0.33563 0.0
C633 C 0.94871 0.63557 0.31032 0.0
H634 H 0.96043 0.64016 0.37088 0.0
H635 H 0.9664 0.62313 0.12328 0.0
H636 H 0.57411 0.91484 0.80825 0.0
H637 H 0.6004 0.9418 0.7904 0.0
H638 H 0.56683 0.94059 0.72976 0.0
H639 H 0.54085 0.91347 0.74697 0.0
H640 H 0.59835 0.94724 0.71267 0.0
H641 H 0.57833 0.97084 0.77943 0.0
H642 H 0.5706 0.97337 0.82249 0.0
H643 H 0.62501 0.98832 0.84502 0.0
H644 H 0.63298 0.98566 0.8021 0.0
H645 H 0.63805 0.04107 0.6784 0.0
H646 H 0.62141 0.00843 0.68776 0.0
H647 H 0.66415 0.0157 0.73781 0.0
H648 H 0.68075 0.04831 0.72865 0.0
H649 H 0.63191 0.00445 0.76084 0.0
H650 H 0.65273 0.98605 0.69091 0.0
H651 H 0.65951 0.98476 0.64708 0.0
H652 H 0.60268 0.96143 0.62934 0.0
H653 H 0.59556 0.96282 0.67303 0.0
C654 C 0.57235 0.92043 0.79121 0.0
C655 C 0.55541 0.91208 0.77906 0.0
C656 C 0.58737 0.9358 0.78099 0.0
C657 C 0.58558 0.94328 0.75875 0.0
C658 C 0.56862 0.935 0.74679 0.0
C659 C 0.55373 0.91956 0.75677 0.0
C660 C 0.60111 0.95998 0.74803 0.0
C661 C 0.60565 0.9598 0.72316 0.0
C662 C 0.61096 0.97624 0.76184 0.0
C663 C 0.60618 0.97782 0.78763 0.0
C664 C 0.58859 0.97452 0.7936 0.0
C665 C 0.58418 0.97601 0.81797 0.0
C666 C 0.59728 0.98094 0.83649 0.0
C667 C 0.61485 0.98446 0.83067 0.0
C668 C 0.61933 0.98297 0.80633 0.0
C669 C 0.64434 0.03556 0.69041 0.0
C670 C 0.66051 0.04724 0.70315 0.0
C671 C 0.63479 0.01688 0.69583 0.0
C672 C 0.64143 0.00971 0.7138 0.0
C673 C 0.65872 0.021 0.72407 0.0
C674 C 0.66822 0.03962 0.71874 0.0
C675 C 0.62896 0.99184 0.72535 0.0
C676 C 0.62491 0.99183 0.75042 0.0
C677 C 0.61943 0.97555 0.71159 0.0
C678 C 0.62363 0.97466 0.68527 0.0
C679 C 0.64169 0.98078 0.67765 0.0
C680 C 0.64559 0.98001 0.65282 0.0
C681 C 0.63154 0.97305 0.63543 0.0
C682 C 0.61355 0.96682 0.64283 0.0
C683 C 0.60957 0.96758 0.66764 0.0
H684 H 0.63459 0.97246 0.61621 0.0
H685 H 0.59384 0.98209 0.85535 0.0
H686 H 0.63949 0.56907 0.80759 0.0
H687 H 0.63667 0.5944 0.7907 0.0
H688 H 0.59356 0.55691 0.74251 0.0
H689 H 0.59674 0.53174 0.75877 0.0
H690 H 0.61826 0.58411 0.71685 0.0
H691 H 0.58583 0.57865 0.79179 0.0
H692 H 0.58105 0.577 0.8367 0.0
H693 H 0.62799 0.63042 0.84504 0.0
H694 H 0.63319 0.6323 0.80018 0.0
H695 H 0.58308 0.64193 0.67937 0.0
H696 H 0.59067 0.61873 0.69177 0.0
H697 H 0.63597 0.65896 0.73455 0.0
H698 H 0.62829 0.68212 0.7225 0.0
H699 H 0.61194 0.63136 0.76268 0.0
H700 H 0.64281 0.6371 0.6864 0.0
H701 H 0.64641 0.63833 0.6413 0.0
H702 H 0.6009 0.58381 0.6352 0.0
H703 H 0.59685 0.58234 0.68026 0.0
C704 C 0.62905 0.56619 0.79394 0.0
C705 C 0.61837 0.54848 0.78442 0.0
C706 C 0.62749 0.58067 0.78421 0.0
C707 C 0.61497 0.57757 0.76519 0.0
C708 C 0.60345 0.55967 0.75694 0.0
C709 C 0.60517 0.54528 0.7664 0.0
C710 C 0.61471 0.59302 0.7526 0.0
C711 C 0.61664 0.59432 0.72685 0.0
C712 C 0.61313 0.60662 0.76568 0.0
C713 C 0.61001 0.60553 0.79265 0.0
C714 C 0.59522 0.58999 0.80322 0.0
C715 C 0.59242 0.58902 0.82866 0.0
C716 C 0.60424 0.60357 0.84372 0.0
C717 C 0.61886 0.61915 0.83336 0.0
C718 C 0.62174 0.62018 0.80792 0.0
C719 C 0.59515 0.64602 0.69048 0.0
C720 C 0.60494 0.66376 0.70026 0.0
C721 C 0.59944 0.63271 0.69768 0.0
C722 C 0.61372 0.63708 0.7144 0.0
C723 C 0.62476 0.65527 0.72187 0.0
C724 C 0.62043 0.66851 0.71482 0.0
C725 C 0.6154 0.6224 0.72693 0.0
C726 C 0.61368 0.62122 0.75269 0.0
C727 C 0.61701 0.60884 0.71383 0.0
C728 C 0.61944 0.60967 0.68672 0.0
C729 C 0.63347 0.62543 0.67544 0.0
C730 C 0.63561 0.62616 0.64988 0.0
C731 C 0.62387 0.61117 0.63539 0.0
C732 C 0.60998 0.59541 0.64645 0.0
C733 C 0.60777 0.59461 0.672 0.0
H734 H 0.62555 0.61177 0.6156 0.0
H735 H 0.60205 0.6028 0.86341 0.0
H736 H 0.92911 0.61238 0.75393 0.0
H737 H 0.96175 0.63191 0.75856 0.0
H738 H 0.97047 0.61262 0.68909 0.0
H739 H 0.93741 0.59218 0.68488 0.0
H740 H 0.98883 0.60763 0.72213 0.0
H741 H 0.98468 0.65943 0.70071 0.0
H742 H 0.97272 0.6807 0.69992 0.0
H743 H 0.98467 0.69187 0.77685 0.0
H744 H -0.00354 0.67046 0.77823 0.0
H745 H 0.08379 0.66176 0.74181 0.0
H746 H 0.05455 0.65598 0.72569 0.0
H747 H 0.03281 0.64744 0.79929 0.0
H748 H 0.06218 0.65287 0.81588 0.0
H749 H 0.0235 0.66969 0.75847 0.0
H750 H 0.02182 0.61207 0.77857 0.0
H751 H 0.035 0.59181 0.77698 0.0
H752 H 0.03506 0.59351 0.69799 0.0
H753 H 0.02215 0.61404 0.69916 0.0
C754 C 0.9379 0.61261 0.73926 0.0
C755 C 0.93072 0.60049 0.71925 0.0
C756 C 0.95666 0.624 0.74181 0.0
C757 C 0.96869 0.62382 0.72419 0.0
C758 C 0.96145 0.61295 0.70298 0.0
C759 C 0.94256 0.60137 0.70049 0.0
C760 C 0.98844 0.63245 0.73022 0.0
C761 C -0.00354 0.62138 0.72948 0.0
C762 C -0.00154 0.6503 0.74026 0.0
C763 C 0.99139 0.66324 0.73958 0.0
C764 C 0.98464 0.66631 0.71751 0.0
C765 C 0.97791 0.67842 0.71695 0.0
C766 C 0.97791 0.68761 0.73833 0.0
C767 C 0.98468 0.68474 0.7603 0.0
C768 C 0.99143 0.67265 0.76097 0.0
C769 C 0.07295 0.65895 0.75476 0.0
C770 C 0.07526 0.65752 0.78019 0.0
C771 C 0.05627 0.65574 0.74543 0.0
C772 C 0.04162 0.65126 0.7613 0.0
C773 C 0.0441 0.65099 0.78682 0.0
C774 C 0.06082 0.65401 0.79624 0.0
C775 C 0.02326 0.64462 0.75084 0.0
C776 C 0.01572 0.65608 0.75074 0.0
C777 C 0.01371 0.62724 0.73967 0.0
C778 C 0.02125 0.61475 0.73896 0.0
C779 C 0.02482 0.60826 0.76088 0.0
C780 C 0.0322 0.59671 0.76005 0.0
C781 C 0.03592 0.59143 0.7374 0.0
C782 C 0.03221 0.59764 0.71552 0.0
C783 C 0.02486 0.60923 0.71626 0.0
H784 H 0.04164 0.58248 0.73679 0.0
H785 H 0.97269 0.69698 0.73785 0.0
H786 H 0.44431 0.08328 0.73975 0.0
H787 H 0.42084 0.05454 0.72248 0.0
H788 H 0.39146 0.04112 0.79127 0.0
H789 H 0.41525 0.07001 0.80903 0.0
H790 H 0.39245 0.01226 0.77264 0.0
H791 H 0.37719 0.05586 0.74225 0.0
H792 H 0.38284 0.08441 0.7223 0.0
H793 H 0.39666 0.06771 0.65483 0.0
H794 H 0.39138 0.03917 0.67449 0.0
H795 H 0.30993 0.94205 0.72935 0.0
H796 H 0.33027 0.97425 0.73846 0.0
H797 H 0.36795 0.97665 0.68315 0.0
H798 H 0.34774 0.9441 0.67415 0.0
H799 H 0.3618 0.01121 0.69414 0.0
H800 H 0.38021 0.96898 0.72774 0.0
H801 H 0.37366 0.94041 0.7486 0.0
H802 H 0.35254 0.95502 0.8111 0.0
H803 H 0.35869 0.98354 0.79039 0.0
C804 C 0.43289 0.07426 0.75132 0.0
C805 C 0.43159 0.07901 0.77577 0.0
C806 C 0.41942 0.05785 0.74131 0.0
C807 C 0.40422 0.04587 0.75539 0.0
C808 C 0.40305 0.05028 0.78003 0.0
C809 C 0.41663 0.06675 0.79016 0.0
C810 C 0.38979 0.02863 0.74433 0.0
C811 C 0.38563 0.0121 0.75565 0.0
C812 C 0.38105 0.02837 0.72191 0.0
C813 C 0.38405 0.04544 0.70992 0.0
C814 C 0.38157 0.05833 0.72321 0.0
C815 C 0.38468 0.07451 0.71194 0.0
C816 C 0.39015 0.07789 0.68733 0.0
C817 C 0.39244 0.06508 0.67391 0.0
C818 C 0.38938 0.04889 0.6851 0.0
C819 C 0.32222 0.94955 0.71846 0.0
C820 C 0.32743 0.94048 0.70136 0.0
C821 C 0.33381 0.96795 0.7237 0.0
C822 C 0.35066 0.97763 0.71174 0.0
C823 C 0.35494 0.96929 0.69254 0.0
C824 C 0.34336 0.95073 0.68737 0.0
C825 C 0.36479 0.99508 0.72236 0.0
C826 C 0.36876 0.01153 0.71107 0.0
C827 C 0.37331 0.99534 0.74487 0.0
C828 C 0.36969 0.97825 0.75739 0.0
C829 C 0.37398 0.96599 0.74581 0.0
C830 C 0.37038 0.94983 0.75763 0.0
C831 C 0.36263 0.94587 0.78113 0.0
C832 C 0.35851 0.95809 0.79287 0.0
C833 C 0.36205 0.97425 0.78111 0.0
H834 H 0.35988 0.93337 0.79026 0.0
H835 H 0.39257 0.09043 0.67865 0.0
H836 H 0.35423 0.43095 0.8116 0.0
H837 H 0.35678 0.40568 0.794 0.0
H838 H 0.40143 0.44364 0.74823 0.0
H839 H 0.39858 0.46884 0.76523 0.0
H840 H 0.37714 0.417 0.72111 0.0
H841 H 0.40752 0.4206 0.79715 0.0
H842 H 0.41136 0.4216 0.84221 0.0
H843 H 0.36346 0.36866 0.84858 0.0
H844 H 0.3592 0.36744 0.80356 0.0
H845 H 0.4089 0.3559 0.68405 0.0
H846 H 0.40274 0.38018 0.69621 0.0
H847 H 0.35616 0.34135 0.73838 0.0
H848 H 0.36247 0.31718 0.72665 0.0
H849 H 0.38066 0.36813 0.7668 0.0
H850 H 0.35141 0.36438 0.68965 0.0
H851 H 0.34863 0.36372 0.64444 0.0
H852 H 0.39576 0.41734 0.63996 0.0
H853 H 0.39898 0.41823 0.68513 0.0
C854 C 0.36491 0.43395 0.7983 0.0
C855 C 0.37616 0.45184 0.78973 0.0
C856 C 0.36633 0.41949 0.78817 0.0
C857 C 0.37925 0.42275 0.76968 0.0
C858 C 0.39124 0.44077 0.76227 0.0
C859 C 0.38969 0.45517 0.77215 0.0
C860 C 0.37953 0.40736 0.7569 0.0
C861 C 0.37816 0.40643 0.73108 0.0
C862 C 0.38039 0.39334 0.76992 0.0
C863 C 0.38294 0.39402 0.797 0.0
C864 C 0.39772 0.40924 0.80817 0.0
C865 C 0.39999 0.40983 0.83371 0.0
C866 C 0.38763 0.39523 0.84826 0.0
C867 C 0.37301 0.37997 0.83729 0.0
C868 C 0.37067 0.37932 0.81177 0.0
C869 C 0.39685 0.35239 0.69494 0.0
C870 C 0.38627 0.33473 0.70464 0.0
C871 C 0.39339 0.3663 0.70202 0.0
C872 C 0.37914 0.36261 0.71852 0.0
C873 C 0.36735 0.34453 0.72587 0.0
C874 C 0.37088 0.33071 0.719 0.0
C875 C 0.37821 0.37772 0.73102 0.0
C876 C 0.37954 0.37864 0.75682 0.0
C877 C 0.37746 0.39178 0.71796 0.0
C878 C 0.37553 0.3913 0.69078 0.0
C879 C 0.36127 0.37597 0.67902 0.0
C880 C 0.3596 0.37557 0.6534 0.0
C881 C 0.37204 0.39046 0.63933 0.0
C882 C 0.38615 0.40581 0.65087 0.0
C883 C 0.38789 0.40628 0.67649 0.0
H884 H 0.37072 0.39012 0.6195 0.0
H885 H 0.38941 0.39571 0.86802 0.0
H886 H 0.06216 0.41745 0.6814 0.0
H887 H 0.0297 0.40359 0.69197 0.0
H888 H 0.03666 0.37253 0.74965 0.0
H889 H 0.06882 0.38602 0.73896 0.0
H890 H 0.00299 0.35371 0.73024 0.0
H891 H 0.04291 0.41433 0.76172 0.0
H892 H 0.06564 0.4471 0.7583 0.0
H893 H 0.02858 0.45546 0.71356 0.0
H894 H 0.00573 0.42265 0.71641 0.0
H895 H 0.93162 0.34241 0.81113 0.0
H896 H 0.96274 0.35249 0.79634 0.0
H897 H 0.95532 0.38258 0.73771 0.0
H898 H 0.92458 0.37279 0.75237 0.0
H899 H 0.98905 0.40152 0.75736 0.0
H900 H 0.94865 0.34037 0.72733 0.0
H901 H 0.92623 0.30759 0.73185 0.0
H902 H 0.96449 0.30032 0.77546 0.0
H903 H 0.98705 0.33313 0.77147 0.0
C904 C 0.05657 0.40712 0.69564 0.0
C905 C 0.06801 0.40301 0.70963 0.0
C906 C 0.03809 0.39934 0.70183 0.0
C907 C 0.03094 0.38742 0.72204 0.0
C908 C 0.04193 0.38181 0.73416 0.0
C909 C 0.06032 0.38957 0.72804 0.0
C910 C 0.01296 0.38261 0.7327 0.0
C911 C -4e-05 0.36415 0.73628 0.0
C912 C 0.00904 0.39626 0.74061 0.0
C913 C 0.0227 0.41601 0.73905 0.0
C914 C 0.03966 0.42313 0.75101 0.0
C915 C 0.05256 0.44172 0.74919 0.0
C916 C 0.04857 0.45335 0.73566 0.0
C917 C 0.03166 0.44642 0.72399 0.0
C918 C 0.01873 0.42784 0.7257 0.0
C919 C 0.93682 0.35148 0.79542 0.0
C920 C 0.92566 0.35669 0.78277 0.0
C921 C 0.95449 0.35709 0.78687 0.0
C922 C 0.96117 0.36803 0.76568 0.0
C923 C 0.9504 0.37408 0.754 0.0
C924 C 0.93281 0.36842 0.76238 0.0
C925 C 0.979 0.37261 0.75474 0.0
C926 C 0.99203 0.39107 0.75122 0.0
C927 C 0.98296 0.35896 0.74704 0.0
C928 C 0.96946 0.33923 0.74932 0.0
C929 C 0.95223 0.3318 0.73804 0.0
C930 C 0.9395 0.31322 0.74047 0.0
C931 C 0.94391 0.30189 0.75399 0.0
C932 C 0.96108 0.30912 0.76503 0.0
C933 C 0.97384 0.3277 0.76267 0.0
H934 H 0.93405 0.28751 0.75585 0.0
H935 H 0.05858 0.46773 0.73428 0.0
H936 H 0.39509 0.13489 0.246 0.0
H937 H 0.4031 0.16561 0.25896 0.0
H938 H 0.44623 0.18836 0.20489 0.0
H939 H 0.43834 0.15752 0.19192 0.0
H940 H 0.45867 0.19986 0.25139 0.0
H941 H 0.41033 0.19552 0.20069 0.0
H942 H 0.37895 0.18144 0.18445 0.0
H943 H 0.35886 0.18296 0.25649 0.0
H944 H 0.3901 0.19681 0.27325 0.0
H945 H 0.4857 0.29296 0.26596 0.0
H946 H 0.47623 0.26166 0.25441 0.0
H947 H 0.43324 0.24181 0.30866 0.0
H948 H 0.4426 0.27339 0.32016 0.0
H949 H 0.4202 0.22829 0.26357 0.0
H950 H 0.46835 0.23309 0.3143 0.0
H951 H 0.49961 0.24698 0.33093 0.0
H952 H 0.51992 0.24427 0.25954 0.0
H953 H 0.48881 0.2306 0.24238 0.0
C954 C 0.40589 0.14644 0.23629 0.0
C955 C 0.41621 0.14382 0.2181 0.0
C956 C 0.41045 0.164 0.24371 0.0
C957 C 0.42535 0.17925 0.23303 0.0
C958 C 0.43472 0.17673 0.21344 0.0
C959 C 0.43009 0.15911 0.20587 0.0
C960 C 0.43248 0.19749 0.2444 0.0
C961 C 0.45038 0.20626 0.25367 0.0
C962 C 0.42137 0.20538 0.24831 0.0
C963 C 0.40255 0.19705 0.23827 0.0
C964 C 0.3992 0.1927 0.21312 0.0
C965 C 0.38144 0.1848 0.20381 0.0
C966 C 0.36691 0.18127 0.21944 0.0
C967 C 0.37012 0.18568 0.24441 0.0
C968 C 0.38786 0.19358 0.25382 0.0
C969 C 0.47457 0.28193 0.27597 0.0
C970 C 0.46481 0.28559 0.29385 0.0
C971 C 0.46919 0.26402 0.26937 0.0
C972 C 0.45399 0.2494 0.28061 0.0
C973 C 0.44498 0.25294 0.29973 0.0
C974 C 0.45045 0.27095 0.30646 0.0
C975 C 0.44647 0.23075 0.27036 0.0
C976 C 0.42849 0.22188 0.26135 0.0
C977 C 0.45749 0.22271 0.26676 0.0
C978 C 0.47624 0.23094 0.27701 0.0
C979 C 0.4795 0.23559 0.30209 0.0
C980 C 0.49719 0.2434 0.31162 0.0
C981 C 0.51175 0.24654 0.29629 0.0
C982 C 0.50863 0.24184 0.27139 0.0
C983 C 0.49096 0.23403 0.26176 0.0
H984 H 0.52543 0.25259 0.30371 0.0
H985 H 0.35317 0.17515 0.21219 0.0
H986 H 0.16739 0.45742 0.31454 0.0
H987 H 0.18627 0.44422 0.30204 0.0
H988 H 0.21246 0.48624 0.24697 0.0
H989 H 0.19355 0.4992 0.25903 0.0
H990 H 0.19936 0.45318 0.22712 0.0
H991 H 0.23517 0.48507 0.29852 0.0
H992 H 0.24026 0.49321 0.34254 0.0
H993 H 0.22146 0.43722 0.3612 0.0
H994 H 0.21602 0.42871 0.31728 0.0
H995 H 0.27621 0.44503 0.19169 0.0
H996 H 0.25321 0.45299 0.20403 0.0
H997 H 0.23155 0.40918 0.25712 0.0
H998 H 0.25469 0.40142 0.24522 0.0
H999 H 0.23993 0.44025 0.27872 0.0
H1000 H 0.20629 0.40865 0.20709 0.0
H1001 H 0.20131 0.40047 0.16309 0.0
H1002 H 0.21581 0.45549 0.14474 0.0
H1003 H 0.22112 0.46407 0.18861 0.0
C1004 C 0.17754 0.4641 0.30026 0.0
C1005 C 0.17895 0.47924 0.28764 0.0
C1006 C 0.18825 0.45651 0.29305 0.0
C1007 C 0.20063 0.46416 0.27339 0.0
C1008 C 0.20284 0.47999 0.26196 0.0
C1009 C 0.1921 0.48744 0.26898 0.0
C1010 C 0.21048 0.45516 0.26343 0.0
C1011 C 0.20839 0.4505 0.23834 0.0
C1012 C 0.22173 0.45112 0.27825 0.0
C1013 C 0.22499 0.45622 0.30465 0.0
C1014 C 0.23197 0.47447 0.31203 0.0
C1015 C 0.23495 0.47915 0.33695 0.0
C1016 C 0.23113 0.46573 0.35466 0.0
C1017 C 0.22437 0.4476 0.34747 0.0
C1018 C 0.22135 0.44284 0.32256 0.0
C1019 C 0.26615 0.43672 0.20538 0.0
C1020 C 0.26733 0.42273 0.21765 0.0
C1021 C 0.25303 0.4413 0.21248 0.0
C1022 C 0.24074 0.43175 0.23165 0.0
C1023 C 0.241 0.41683 0.24247 0.0
C1024 C 0.25417 0.41237 0.23555 0.0
C1025 C 0.22906 0.43852 0.24226 0.0
C1026 C 0.23078 0.44274 0.26751 0.0
C1027 C 0.21745 0.44215 0.22757 0.0
C1028 C 0.21425 0.43704 0.20115 0.0
C1029 C 0.20856 0.41904 0.19366 0.0
C1030 C 0.20565 0.41432 0.16874 0.0
C1031 C 0.20828 0.42746 0.15113 0.0
C1032 C 0.21379 0.44533 0.1584 0.0
C1033 C 0.21673 0.45012 0.1833 0.0
H1034 H 0.20602 0.42378 0.13184 0.0
H1035 H 0.23345 0.46939 0.37395 0.0
H1036 H 0.71874 0.16042 0.31386 0.0
H1037 H 0.7504 0.17778 0.29891 0.0
H1038 H 0.73623 0.21131 0.25477 0.0
H1039 H 0.70482 0.19402 0.26935 0.0
H1040 H 0.75161 0.19565 0.22738 0.0
H1041 H 0.76356 0.22849 0.30468 0.0
H1042 H 0.76407 0.23112 0.34992 0.0
H1043 H 0.79822 0.20701 0.35482 0.0
H1044 H 0.79772 0.20403 0.3096 0.0
H1045 H 0.83364 0.27377 0.19061 0.0
H1046 H 0.80388 0.24869 0.20313 0.0
H1047 H 0.83032 0.22531 0.24557 0.0
H1048 H 0.86009 0.25073 0.23372 0.0
H1049 H 0.80926 0.23106 0.27403 0.0
H1050 H 0.80089 0.20198 0.19652 0.0
H1051 H 0.80062 0.19927 0.15132 0.0
H1052 H 0.75997 0.21542 0.14634 0.0
H1053 H 0.76017 0.21848 0.19148 0.0
C1054 C 0.72261 0.17191 0.30166 0.0
C1055 C 0.70939 0.17588 0.29266 0.0
C1056 C 0.74062 0.18171 0.29297 0.0
C1057 C 0.74555 0.19564 0.27543 0.0
C1058 C 0.73264 0.20044 0.268 0.0
C1059 C 0.71475 0.19066 0.27651 0.0
C1060 C 0.76366 0.20448 0.2633 0.0
C1061 C 0.76425 0.20351 0.23752 0.0
C1062 C 0.78013 0.21405 0.27663 0.0
C1063 C 0.78041 0.21583 0.3038 0.0
C1064 C 0.77103 0.2236 0.31542 0.0
C1065 C 0.77135 0.22519 0.34105 0.0
C1066 C 0.78112 0.21918 0.35524 0.0
C1067 C 0.79063 0.21162 0.34381 0.0
C1068 C 0.79034 0.20999 0.31819 0.0
C1069 C 0.83309 0.26285 0.20169 0.0
C1070 C 0.84912 0.26424 0.21138 0.0
C1071 C 0.81604 0.2485 0.20893 0.0
C1072 C 0.81484 0.23516 0.22552 0.0
C1073 C 0.8309 0.23553 0.23299 0.0
C1074 C 0.8479 0.24998 0.22605 0.0
C1075 C 0.79726 0.22273 0.23789 0.0
C1076 C 0.79672 0.22296 0.26377 0.0
C1077 C 0.78084 0.21241 0.22462 0.0
C1078 C 0.78064 0.21057 0.19742 0.0
C1079 C 0.79199 0.20508 0.18578 0.0
C1080 C 0.79183 0.20346 0.16017 0.0
C1081 C 0.78031 0.2072 0.14597 0.0
C1082 C 0.76889 0.21253 0.15736 0.0
C1083 C 0.769 0.21418 0.18297 0.0
H1084 H 0.7802 0.20594 0.12613 0.0
H1085 H 0.78135 0.22043 0.37508 0.0
H1086 H 0.56551 0.83227 0.18558 0.0
H1087 H 0.56473 0.80405 0.19776 0.0
H1088 H 0.60093 0.83219 0.25828 0.0
H1089 H 0.60207 0.86046 0.24607 0.0
H1090 H 0.59237 0.79044 0.22308 0.0
H1091 H 0.56893 0.8148 0.30174 0.0
H1092 H 0.55768 0.83606 0.31131 0.0
H1093 H 0.52779 0.82195 0.24331 0.0
H1094 H 0.53866 0.80044 0.23362 0.0
H1095 H 0.56028 0.71698 0.30966 0.0
H1096 H 0.57526 0.74924 0.2972 0.0
H1097 H 0.52541 0.73961 0.26223 0.0
H1098 H 0.51059 0.7075 0.27418 0.0
H1099 H 0.54417 0.77348 0.28659 0.0
H1100 H 0.55502 0.73581 0.22884 0.0
H1101 H 0.56618 0.7148 0.21764 0.0
H1102 H 0.62025 0.75452 0.241 0.0
H1103 H 0.60933 0.77565 0.2527 0.0
C1104 C 0.5742 0.83274 0.20054 0.0
C1105 C 0.58342 0.8484 0.21533 0.0
C1106 C 0.57375 0.81658 0.20747 0.0
C1107 C 0.58253 0.81607 0.22914 0.0
C1108 C 0.59407 0.83236 0.24153 0.0
C1109 C 0.5946 0.84849 0.23457 0.0
C1110 C 0.57549 0.79868 0.24253 0.0
C1111 C 0.58198 0.78674 0.23712 0.0
C1112 C 0.5619 0.79393 0.26074 0.0
C1113 C 0.55465 0.80615 0.26694 0.0
C1114 C 0.55985 0.81618 0.28897 0.0
C1115 C 0.55356 0.82827 0.29439 0.0
C1116 C 0.54204 0.83037 0.27792 0.0
C1117 C 0.53671 0.82032 0.25606 0.0
C1118 C 0.54291 0.80817 0.25061 0.0
C1119 C 0.5524 0.72196 0.30008 0.0
C1120 C 0.53432 0.70986 0.29284 0.0
C1121 C 0.56099 0.74028 0.29278 0.0
C1122 C 0.55147 0.74666 0.27854 0.0
C1123 C 0.53297 0.73491 0.27316 0.0
C1124 C 0.52452 0.71661 0.28004 0.0
C1125 C 0.56091 0.76498 0.26717 0.0
C1126 C 0.55482 0.7772 0.27293 0.0
C1127 C 0.57474 0.76982 0.24917 0.0
C1128 C 0.58132 0.75721 0.24191 0.0
C1129 C 0.56926 0.73999 0.23178 0.0
C1130 C 0.57554 0.72808 0.22531 0.0
C1131 C 0.5939 0.7333 0.22868 0.0
C1132 C 0.60603 0.75047 0.23845 0.0
C1133 C 0.5998 0.76243 0.245 0.0
H1134 H 0.59874 0.72405 0.22365 0.0
H1135 H 0.53723 0.83977 0.28213 0.0
H1136 H 0.71033 0.54085 0.18664 0.0
H1137 H 0.73071 0.53002 0.20108 0.0
H1138 H 0.76078 0.57911 0.24415 0.0
H1139 H 0.74066 0.59004 0.22962 0.0
H1140 H 0.78286 0.56682 0.22831 0.0
H1141 H 0.72449 0.54265 0.26835 0.0
H1142 H 0.69085 0.5268 0.26999 0.0
H1143 H 0.688 0.47797 0.24184 0.0
H1144 H 0.72166 0.49366 0.23956 0.0
H1145 H 0.81794 0.53864 0.32343 0.0
H1146 H 0.79622 0.5469 0.30641 0.0
H1147 H 0.77343 0.49917 0.25994 0.0
H1148 H 0.79515 0.4909 0.27673 0.0
H1149 H 0.74743 0.50963 0.27629 0.0
H1150 H 0.80687 0.53484 0.23761 0.0
H1151 H 0.84055 0.55133 0.23828 0.0
H1152 H 0.84115 0.59911 0.26638 0.0
H1153 H 0.80744 0.58276 0.26634 0.0
C1154 C 0.7218 0.5497 0.19826 0.0
C1155 C 0.72378 0.56617 0.20731 0.0
C1156 C 0.7333 0.5434 0.20674 0.0
C1157 C 0.74688 0.55353 0.22426 0.0
C1158 C 0.75026 0.57099 0.23085 0.0
C1159 C 0.73877 0.57724 0.22249 0.0
C1160 C 0.75597 0.54523 0.23816 0.0
C1161 C 0.77511 0.55436 0.23885 0.0
C1162 C 0.74583 0.52893 0.25193 0.0
C1163 C 0.72559 0.51941 0.25348 0.0
C1164 C 0.71669 0.52858 0.26231 0.0
C1165 C 0.69762 0.51962 0.26337 0.0
C1166 C 0.68729 0.50141 0.25595 0.0
C1167 C 0.69602 0.4921 0.24752 0.0
C1168 C 0.7151 0.50102 0.24632 0.0
C1169 C 0.80777 0.52948 0.31042 0.0
C1170 C 0.80835 0.51427 0.30115 0.0
C1171 C 0.79547 0.53428 0.30057 0.0
C1172 C 0.78354 0.52383 0.28156 0.0
C1173 C 0.78261 0.50745 0.27449 0.0
C1174 C 0.79502 0.50275 0.28411 0.0
C1175 C 0.77424 0.53131 0.26648 0.0
C1176 C 0.75512 0.52201 0.26558 0.0
C1177 C 0.78437 0.54755 0.2527 0.0
C1178 C 0.80464 0.55752 0.2522 0.0
C1179 C 0.81418 0.54882 0.2441 0.0
C1180 C 0.83327 0.55814 0.24435 0.0
C1181 C 0.84298 0.57624 0.25242 0.0
C1182 C 0.83361 0.58508 0.26017 0.0
C1183 C 0.81451 0.57579 0.26004 0.0
H1184 H 0.85776 0.58344 0.2526 0.0
H1185 H 0.67254 0.49451 0.25679 0.0
H1186 H 0.13009 0.74478 0.24778 0.0
H1187 H 0.16128 0.76858 0.25672 0.0
H1188 H 0.18109 0.74882 0.19784 0.0
H1189 H 0.14973 0.72472 0.18889 0.0
H1190 H 0.19757 0.75035 0.24108 0.0
H1191 H 0.18515 0.79071 0.19425 0.0
H1192 H 0.1679 0.80576 0.1815 0.0
H1193 H 0.17405 0.82865 0.25381 0.0
H1194 H 0.19112 0.81353 0.26711 0.0
H1195 H 0.2866 0.84112 0.24678 0.0
H1196 H 0.25484 0.82326 0.23418 0.0
H1197 H 0.24193 0.79249 0.30176 0.0
H1198 H 0.27411 0.81051 0.31463 0.0
H1199 H 0.22245 0.81688 0.25251 0.0
H1200 H 0.21158 0.7475 0.28548 0.0
H1201 H 0.22972 0.7328 0.29544 0.0
H1202 H 0.27153 0.76859 0.24512 0.0
H1203 H 0.25354 0.78332 0.23463 0.0
C1204 C 0.14103 0.74581 0.23626 0.0
C1205 C 0.13751 0.73283 0.21775 0.0
C1206 C 0.15886 0.75945 0.24138 0.0
C1207 C 0.1735 0.76041 0.22804 0.0
C1208 C 0.16994 0.74825 0.20839 0.0
C1209 C 0.15203 0.73461 0.20314 0.0
C1210 C 0.19246 0.77274 0.23647 0.0
C1211 C 0.20302 0.76491 0.24346 0.0
C1212 C 0.19954 0.79171 0.23967 0.0
C1213 C 0.18929 0.80085 0.23173 0.0
C1214 C 0.1827 0.79883 0.2075 0.0
C1215 C 0.17298 0.8074 0.20016 0.0
C1216 C 0.16984 0.81812 0.21685 0.0
C1217 C 0.17647 0.82033 0.2409 0.0
C1218 C 0.18619 0.81178 0.24834 0.0
C1219 C 0.27701 0.83068 0.25914 0.0
C1220 C 0.28287 0.82703 0.28157 0.0
C1221 C 0.25882 0.82057 0.25195 0.0
C1222 C 0.24609 0.80646 0.26689 0.0
C1223 C 0.25165 0.80327 0.28988 0.0
C1224 C 0.26995 0.81357 0.29725 0.0
C1225 C 0.22743 0.79444 0.25729 0.0
C1226 C 0.21692 0.80231 0.25017 0.0
C1227 C 0.22048 0.77555 0.25361 0.0
C1228 C 0.23131 0.76664 0.25952 0.0
C1229 C 0.22463 0.75219 0.2765 0.0
C1230 C 0.23488 0.74385 0.28224 0.0
C1231 C 0.2518 0.7498 0.27099 0.0
C1232 C 0.25846 0.76404 0.2539 0.0
C1233 C 0.24825 0.7724 0.24807 0.0
H1234 H 0.25972 0.74334 0.27547 0.0
H1235 H 0.16232 0.82475 0.21113 0.0
H1236 H 0.60224 0.75235 0.73071 0.0
H1237 H 0.59355 0.77433 0.74489 0.0
H1238 H 0.54727 0.75078 0.69585 0.0
H1239 H 0.55584 0.72861 0.68155 0.0
H1240 H 0.56303 0.78949 0.70383 0.0
H1241 H 0.53994 0.73325 0.74923 0.0
H1242 H 0.54264 0.7093 0.77151 0.0
H1243 H 0.57815 0.7489 0.82446 0.0
H1244 H 0.57585 0.77315 0.80225 0.0
H1245 H 0.50086 0.80666 0.76451 0.0
H1246 H 0.51402 0.78889 0.74831 0.0
H1247 H 0.55771 0.81369 0.80133 0.0
H1248 H 0.54452 0.83165 0.81781 0.0
H1249 H 0.54515 0.77599 0.79178 0.0
H1250 H 0.56568 0.83195 0.74725 0.0
H1251 H 0.56175 0.85504 0.72468 0.0
H1252 H 0.52995 0.81523 0.66967 0.0
H1253 H 0.53345 0.79181 0.69214 0.0
C1254 C 0.5906 0.75227 0.72223 0.0
C1255 C 0.5795 0.73853 0.70537 0.0
C1256 C 0.58563 0.7648 0.73044 0.0
C1257 C 0.56952 0.7638 0.72188 0.0
C1258 C 0.55969 0.75163 0.70279 0.0
C1259 C 0.56466 0.73903 0.69454 0.0
C1260 C 0.5616 0.77342 0.73533 0.0
C1261 C 0.55901 0.78648 0.72299 0.0
C1262 C 0.55658 0.7696 0.76043 0.0
C1263 C 0.5579 0.75504 0.77393 0.0
C1264 C 0.54845 0.73688 0.7655 0.0
C1265 C 0.54988 0.72325 0.77814 0.0
C1266 C 0.56061 0.72759 0.79935 0.0
C1267 C 0.56988 0.74557 0.808 0.0
C1268 C 0.5685 0.75926 0.79541 0.0
C1269 C 0.51303 0.80803 0.77316 0.0
C1270 C 0.5218 0.82072 0.79223 0.0
C1271 C 0.52057 0.79793 0.76379 0.0
C1272 C 0.53707 0.80037 0.77321 0.0
C1273 C 0.54503 0.81178 0.7937 0.0
C1274 C 0.53744 0.82193 0.80318 0.0
C1275 C 0.54654 0.79206 0.76029 0.0
C1276 C 0.54936 0.77917 0.77271 0.0
C1277 C 0.55166 0.79597 0.73521 0.0
C1278 C 0.5497 0.81008 0.7215 0.0
C1279 C 0.55774 0.82808 0.73044 0.0
C1280 C 0.5556 0.84124 0.71765 0.0
C1281 C 0.54557 0.8366 0.69578 0.0
C1282 C 0.5377 0.8188 0.68662 0.0
C1283 C 0.53977 0.80558 0.69937 0.0
H1284 H 0.54393 0.8468 0.6859 0.0
H1285 H 0.5617 0.71702 0.80911 0.0
H1286 H 0.6995 0.53047 0.81913 0.0
H1287 H 0.73119 0.5398 0.80828 0.0
H1288 H 0.72227 0.55302 0.73479 0.0
H1289 H 0.69086 0.54373 0.7453 0.0
H1290 H 0.73611 0.53048 0.73428 0.0
H1291 H 0.74934 0.5865 0.77397 0.0
H1292 H 0.74865 0.60563 0.80775 0.0
H1293 H 0.77645 0.58676 0.85507 0.0
H1294 H 0.77709 0.56731 0.82166 0.0
H1295 H 0.82801 0.56136 0.69646 0.0
H1296 H 0.79926 0.56109 0.7045 0.0
H1297 H 0.8037 0.55192 0.7817 0.0
H1298 H 0.83231 0.55273 0.77408 0.0
H1299 H 0.7926 0.57532 0.77746 0.0
H1300 H 0.77606 0.51677 0.74079 0.0
H1301 H 0.77613 0.49641 0.70829 0.0
H1302 H 0.75394 0.51876 0.65688 0.0
H1303 H 0.75394 0.53941 0.68903 0.0
C1304 C 0.70442 0.53565 0.80082 0.0
C1305 C 0.69263 0.53615 0.78301 0.0
C1306 C 0.7225 0.541 0.79464 0.0
C1307 C 0.72902 0.54704 0.77068 0.0
C1308 C 0.71747 0.54828 0.7533 0.0
C1309 C 0.69951 0.54294 0.7594 0.0
C1310 C 0.74736 0.55077 0.76299 0.0
C1311 C 0.74851 0.54051 0.74346 0.0
C1312 C 0.76344 0.5636 0.77526 0.0
C1313 C 0.76312 0.57533 0.79536 0.0
C1314 C 0.75518 0.58632 0.79163 0.0
C1315 C 0.75482 0.59724 0.81071 0.0
C1316 C 0.76246 0.59738 0.83356 0.0
C1317 C 0.77052 0.58663 0.83737 0.0
C1318 C 0.77091 0.57567 0.81836 0.0
C1319 C 0.82285 0.55938 0.71512 0.0
C1320 C 0.83243 0.55703 0.73458 0.0
C1321 C 0.80644 0.5592 0.7197 0.0
C1322 C 0.79926 0.55635 0.74371 0.0
C1323 C 0.80899 0.55426 0.76307 0.0
C1324 C 0.82536 0.55464 0.7586 0.0
C1325 C 0.78134 0.55481 0.74901 0.0
C1326 C 0.78023 0.56546 0.76809 0.0
C1327 C 0.76524 0.54218 0.73651 0.0
C1328 C 0.76521 0.52977 0.71721 0.0
C1329 C 0.77133 0.51743 0.7225 0.0
C1330 C 0.77133 0.50583 0.70415 0.0
C1331 C 0.7651 0.50634 0.68051 0.0
C1332 C 0.7588 0.51841 0.67518 0.0
C1333 C 0.75879 0.53006 0.69346 0.0
H1334 H 0.76511 0.49734 0.66633 0.0
H1335 H 0.76217 0.60585 0.8483 0.0
H1336 H 0.2722 0.82546 0.68892 0.0
H1337 H 0.2493 0.79526 0.70381 0.0
H1338 H 0.22058 0.81897 0.73996 0.0
H1339 H 0.24362 0.84917 0.72556 0.0
H1340 H 0.23005 0.8016 0.772 0.0
H1341 H 0.20091 0.78765 0.69308 0.0
H1342 H 0.19916 0.78489 0.64786 0.0
H1343 H 0.21855 0.74667 0.65087 0.0
H1344 H 0.22066 0.7494 0.69611 0.0
H1345 H 0.15567 0.7174 0.81705 0.0
H1346 H 0.17688 0.74747 0.79991 0.0
H1347 H 0.20555 0.72454 0.7617 0.0
H1348 H 0.18413 0.69445 0.77825 0.0
H1349 H 0.1955 0.74157 0.73045 0.0
H1350 H 0.22545 0.75605 0.80902 0.0
H1351 H 0.22756 0.75892 0.85423 0.0
H1352 H 0.20703 0.79622 0.85181 0.0
H1353 H 0.20457 0.79339 0.8066 0.0
C1354 C 0.26056 0.8241 0.69909 0.0
C1355 C 0.25973 0.83963 0.70628 0.0
C1356 C 0.24751 0.80683 0.70774 0.0
C1357 C 0.23336 0.8049 0.72329 0.0
C1358 C 0.2315 0.82018 0.72824 0.0
C1359 C 0.24459 0.8374 0.71982 0.0
C1360 C 0.22207 0.78768 0.73703 0.0
C1361 C 0.22222 0.78849 0.76289 0.0
C1362 C 0.21238 0.77055 0.7252 0.0
C1363 C 0.2111 0.76886 0.69799 0.0
C1364 C 0.20495 0.77877 0.68409 0.0
C1365 C 0.20386 0.77719 0.65845 0.0
C1366 C 0.20878 0.76565 0.64649 0.0
C1367 C 0.21476 0.75562 0.66016 0.0
C1368 C 0.21588 0.75717 0.6858 0.0
C1369 C 0.16692 0.71894 0.80576 0.0
C1370 C 0.16823 0.70362 0.79887 0.0
C1371 C 0.17899 0.73611 0.79585 0.0
C1372 C 0.19271 0.73822 0.7793 0.0
C1373 C 0.19495 0.72319 0.77418 0.0
C1374 C 0.18281 0.70605 0.78382 0.0
C1375 C 0.20351 0.75548 0.76542 0.0
C1376 C 0.20329 0.75468 0.73955 0.0
C1377 C 0.21317 0.77263 0.77724 0.0
C1378 C 0.21466 0.77436 0.80443 0.0
C1379 C 0.22124 0.76475 0.81814 0.0
C1380 C 0.22253 0.76639 0.84377 0.0
C1381 C 0.21738 0.7777 0.85589 0.0
C1382 C 0.21098 0.78744 0.8424 0.0
C1383 C 0.20966 0.78584 0.81677 0.0
H1384 H 0.21839 0.77896 0.87573 0.0
H1385 H 0.20793 0.76444 0.62664 0.0
H1386 H 0.37777 0.24292 0.73531 0.0
H1387 H 0.38124 0.21735 0.74917 0.0
H1388 H 0.4277 0.23489 0.70118 0.0
H1389 H 0.42411 0.26036 0.68693 0.0
H1390 H 0.40903 0.19729 0.70868 0.0
H1391 H 0.43413 0.253 0.75701 0.0
H1392 H 0.43199 0.27707 0.77992 0.0
H1393 H 0.39316 0.23681 0.82945 0.0
H1394 H 0.39486 0.21247 0.80655 0.0
H1395 H 0.47451 0.18512 0.7664 0.0
H1396 H 0.45842 0.20058 0.75231 0.0
H1397 H 0.41511 0.16984 0.80416 0.0
H1398 H 0.43123 0.15401 0.8184 0.0
H1399 H 0.42621 0.20907 0.79703 0.0
H1400 H 0.40591 0.15381 0.75161 0.0
H1401 H 0.40979 0.13088 0.72846 0.0
H1402 H 0.44094 0.17093 0.67344 0.0
H1403 H 0.43748 0.19419 0.69646 0.0
C1404 C 0.38824 0.24087 0.72692 0.0
C1405 C 0.40089 0.25379 0.71039 0.0
C1406 C 0.39024 0.2263 0.73494 0.0
C1407 C 0.40506 0.2246 0.72675 0.0
C1408 C 0.41626 0.23608 0.70788 0.0
C1409 C 0.41416 0.2506 0.69966 0.0
C1410 C 0.41073 0.21317 0.74057 0.0
C1411 C 0.41272 0.1998 0.72799 0.0
C1412 C 0.41528 0.21628 0.76593 0.0
C1413 C 0.41445 0.23091 0.77991 0.0
C1414 C 0.42505 0.24928 0.7727 0.0
C1415 C 0.42392 0.26297 0.78568 0.0
C1416 C 0.41241 0.25846 0.80609 0.0
C1417 C 0.40204 0.24027 0.8136 0.0
C1418 C 0.40307 0.22653 0.80063 0.0
C1419 C 0.46177 0.18191 0.77525 0.0
C1420 C 0.454 0.16822 0.7933 0.0
C1421 C 0.45256 0.1907 0.76709 0.0
C1422 C 0.43542 0.18599 0.77679 0.0
C1423 C 0.42829 0.17349 0.79634 0.0
C1424 C 0.43755 0.16459 0.80457 0.0
C1425 C 0.42473 0.1934 0.76503 0.0
C1426 C 0.42198 0.20614 0.77793 0.0
C1427 C 0.41958 0.18977 0.73995 0.0
C1428 C 0.42152 0.17578 0.72585 0.0
C1429 C 0.4137 0.15777 0.73467 0.0
C1430 C 0.4158 0.1447 0.72155 0.0
C1431 C 0.42562 0.14945 0.69951 0.0
C1432 C 0.43333 0.16727 0.69051 0.0
C1433 C 0.43128 0.1804 0.70357 0.0
H1434 H 0.42724 0.13932 0.68939 0.0
H1435 H 0.41155 0.26908 0.81613 0.0
H1436 H 0.15491 0.40682 0.72674 0.0
H1437 H 0.18462 0.41035 0.73672 0.0
H1438 H 0.21096 0.45912 0.6923 0.0
H1439 H 0.18109 0.45568 0.68237 0.0
H1440 H 0.21581 0.41461 0.71626 0.0
H1441 H 0.2448 0.49194 0.72811 0.0
H1442 H 0.23362 0.51371 0.73318 0.0
H1443 H 0.18459 0.47186 0.76709 0.0
H1444 H 0.19562 0.44995 0.76258 0.0
H1445 H 0.30998 0.46106 0.74208 0.0
H1446 H 0.27938 0.45044 0.7266 0.0
H1447 H 0.2621 0.45694 0.79877 0.0
H1448 H 0.29314 0.46789 0.81461 0.0
H1449 H 0.25167 0.47236 0.76294 0.0
H1450 H 0.24757 0.41483 0.77668 0.0
H1451 H 0.2571 0.39166 0.77458 0.0
H1452 H 0.25385 0.39133 0.69571 0.0
H1453 H 0.24455 0.41471 0.6973 0.0
C1454 C 0.16699 0.41791 0.71834 0.0
C1455 C 0.16579 0.43113 0.70408 0.0
C1456 C 0.18396 0.4199 0.72404 0.0
C1457 C 0.19996 0.43523 0.71574 0.0
C1458 C 0.19871 0.44732 0.69915 0.0
C1459 C 0.18166 0.44527 0.69331 0.0
C1460 C 0.21756 0.43986 0.72746 0.0
C1461 C 0.22377 0.42729 0.72627 0.0
C1462 C 0.22751 0.45609 0.74134 0.0
C1463 C 0.22096 0.46928 0.74474 0.0
C1464 C 0.23168 0.48742 0.73675 0.0
C1465 C 0.22536 0.49978 0.73952 0.0
C1466 C 0.20837 0.49415 0.75038 0.0
C1467 C 0.19771 0.47619 0.75862 0.0
C1468 C 0.20399 0.4638 0.75595 0.0
C1469 C 0.29971 0.46016 0.75482 0.0
C1470 C 0.30403 0.46542 0.7796 0.0
C1471 C 0.28215 0.45395 0.74591 0.0
C1472 C 0.26845 0.45276 0.76155 0.0
C1473 C 0.27254 0.45773 0.78644 0.0
C1474 C 0.29021 0.4639 0.79547 0.0
C1475 C 0.25021 0.44729 0.75128 0.0
C1476 C 0.24382 0.4597 0.75282 0.0
C1477 C 0.23992 0.43073 0.73817 0.0
C1478 C 0.2455 0.41665 0.73711 0.0
C1479 C 0.24903 0.40994 0.75887 0.0
C1480 C 0.25437 0.39674 0.75777 0.0
C1481 C 0.25612 0.39005 0.73502 0.0
C1482 C 0.2525 0.39653 0.71332 0.0
C1483 C 0.24717 0.40974 0.71431 0.0
H1484 H 0.26025 0.37983 0.73421 0.0
H1485 H 0.20349 0.50373 0.75245 0.0
H1486 H 0.82226 0.27367 0.82207 0.0
H1487 H 0.79812 0.2427 0.81121 0.0
H1488 H 0.83005 0.24268 0.74923 0.0
H1489 H 0.85391 0.27355 0.75972 0.0
H1490 H 0.79718 0.23602 0.73501 0.0
H1491 H 0.82084 0.21351 0.7977 0.0
H1492 H 0.83129 0.21169 0.83942 0.0
H1493 H 0.77834 0.19641 0.86856 0.0
H1494 H 0.76762 0.19838 0.82706 0.0
H1495 H 0.72912 0.14631 0.69547 0.0
H1496 H 0.75794 0.17329 0.70804 0.0
H1497 H 0.73261 0.17619 0.77562 0.0
H1498 H 0.70433 0.14915 0.76363 0.0
H1499 H 0.76417 0.18018 0.78588 0.0
H1500 H 0.74139 0.20589 0.72566 0.0
H1501 H 0.73036 0.20878 0.68481 0.0
H1502 H 0.78091 0.21914 0.65214 0.0
H1503 H 0.79216 0.21609 0.69278 0.0
C1504 C 0.82434 0.26678 0.80665 0.0
C1505 C 0.83981 0.27601 0.79158 0.0
C1506 C 0.81055 0.24912 0.8004 0.0
C1507 C 0.81225 0.24046 0.77926 0.0
C1508 C 0.82839 0.24917 0.76546 0.0
C1509 C 0.84202 0.26678 0.77153 0.0
C1510 C 0.79651 0.22342 0.76978 0.0
C1511 C 0.79016 0.22368 0.74597 0.0
C1512 C 0.78709 0.20753 0.78432 0.0
C1513 C 0.79347 0.20623 0.80928 0.0
C1514 C 0.81146 0.20989 0.81303 0.0
C1515 C 0.81743 0.20881 0.83663 0.0
C1516 C 0.8055 0.20398 0.85663 0.0
C1517 C 0.78756 0.20017 0.85306 0.0
C1518 C 0.78153 0.20124 0.82949 0.0
C1519 C 0.72975 0.15288 0.71285 0.0
C1520 C 0.71457 0.14563 0.72862 0.0
C1521 C 0.74617 0.16825 0.72005 0.0
C1522 C 0.74744 0.17677 0.74284 0.0
C1523 C 0.73207 0.16976 0.75814 0.0
C1524 C 0.71587 0.15434 0.75118 0.0
C1525 C 0.7647 0.19287 0.75122 0.0
C1526 C 0.77132 0.19245 0.77481 0.0
C1527 C 0.77427 0.20873 0.73662 0.0
C1528 C 0.76752 0.21055 0.71219 0.0
C1529 C 0.75009 0.20864 0.70973 0.0
C1530 C 0.74381 0.21034 0.68663 0.0
C1531 C 0.7549 0.21408 0.66588 0.0
C1532 C 0.77232 0.2162 0.66822 0.0
C1533 C 0.77866 0.2145 0.69128 0.0
H1534 H 0.75002 0.21539 0.64801 0.0
H1535 H 0.81015 0.20315 0.8749 0.0
H1536 H 0.43774 0.1214 0.11056 0.0
H1537 H 0.44182 0.12494 0.06588 0.0
H1538 H 0.44431 0.07528 0.06198 0.0
H1539 H 0.44047 0.07175 0.10657 0.0
H1540 H 0.47013 0.10112 0.03358 0.0
H1541 H 0.40556 0.07643 0.04546 0.0
H1542 H 0.37814 0.07549 0.06278 0.0
H1543 H 0.39397 0.12767 0.03046 0.0
H1544 H 0.42163 0.12903 0.01321 0.0
H1545 H 0.45714 0.08316 0.90605 0.0
H1546 H 0.45337 0.08146 0.95069 0.0
H1547 H 0.44963 0.13051 0.94986 0.0
H1548 H 0.45301 0.13208 0.905 0.0
H1549 H 0.42513 0.10645 0.98081 0.0
H1550 H 0.48921 0.13094 0.96797 0.0
H1551 H 0.51676 0.13212 0.95068 0.0
H1552 H 0.50223 0.08088 0.98497 0.0
H1553 H 0.47444 0.07926 1.00219 0.0
C1554 C 0.43921 0.11125 0.10022 0.0
C1555 C 0.43872 0.09626 0.11222 0.0
C1556 C 0.44145 0.11325 0.07462 0.0
C1557 C 0.44316 0.10026 0.06043 0.0
C1558 C 0.443 0.08547 0.07245 0.0
C1559 C 0.44075 0.08346 0.098 0.0
C1560 C 0.44511 0.102 0.0331 0.0
C1561 C 0.46017 0.10207 0.02204 0.0
C1562 C 0.43241 0.10374 0.01798 0.0
C1563 C 0.41576 0.10292 0.02826 0.0
C1564 C 0.40327 0.08777 0.04221 0.0
C1565 C 0.38767 0.08715 0.05199 0.0
C1566 C 0.38434 0.10154 0.04779 0.0
C1567 C 0.39658 0.11655 0.03374 0.0
C1568 C 0.41221 0.11724 0.02394 0.0
C1569 C 0.45547 0.09358 0.9153 0.0
C1570 C 0.45549 0.10782 0.90187 0.0
C1571 C 0.45341 0.09264 0.94091 0.0
C1572 C 0.45154 0.10604 0.95382 0.0
C1573 C 0.45112 0.12004 0.9404 0.0
C1574 C 0.45309 0.12094 0.91472 0.0
C1575 C 0.45008 0.10542 0.98125 0.0
C1576 C 0.43513 0.10557 0.99234 0.0
C1577 C 0.46292 0.10394 0.99643 0.0
C1578 C 0.47966 0.1049 0.98618 0.0
C1579 C 0.49182 0.11986 0.97168 0.0
C1580 C 0.50748 0.12062 0.96191 0.0
C1581 C 0.51122 0.10656 0.96667 0.0
C1582 C 0.49931 0.09174 0.98127 0.0
C1583 C 0.48361 0.09091 0.99106 0.0
H1584 H 0.52335 0.10718 0.95909 0.0
H1585 H 0.37225 0.10103 0.05537 0.0
H1586 H 0.3811 0.47265 0.91139 0.0
H1587 H 0.37558 0.46613 0.95527 0.0
H1588 H 0.32312 0.46267 0.94831 0.0
H1589 H 0.32861 0.46934 0.90418 0.0
H1590 H 0.34159 0.48239 0.98889 0.0
H1591 H 0.32557 0.42422 0.95451 0.0
H1592 H 0.32988 0.4024 0.92931 0.0
H1593 H 0.37695 0.41334 0.97218 0.0
H1594 H 0.37307 0.43543 0.99743 0.0
H1595 H 0.31263 0.44416 0.10945 0.0
H1596 H 0.31481 0.44971 0.06501 0.0
H1597 H 0.3667 0.45151 0.06368 0.0
H1598 H 0.36448 0.44568 0.1079 0.0
H1599 H 0.34614 0.43141 0.0267 0.0
H1600 H 0.36318 0.49067 0.05963 0.0
H1601 H 0.35923 0.51282 0.08461 0.0
H1602 H 0.3105 0.49998 0.04447 0.0
H1603 H 0.31403 0.47756 0.01944 0.0
C1604 C 0.36835 0.47048 0.91909 0.0
C1605 C 0.35527 0.47147 0.90415 0.0
C1606 C 0.36518 0.46667 0.94425 0.0
C1607 C 0.34884 0.4637 0.95513 0.0
C1608 C 0.33582 0.46487 0.94035 0.0
C1609 C 0.33895 0.46862 0.91509 0.0
C1610 C 0.34554 0.45952 0.98194 0.0
C1611 C 0.34228 0.47105 0.9971 0.0
C1612 C 0.34678 0.44495 0.99281 0.0
C1613 C 0.34912 0.43161 0.97773 0.0
C1614 C 0.33692 0.42208 0.95845 0.0
C1615 C 0.33928 0.40964 0.94417 0.0
C1616 C 0.35371 0.40652 0.9491 0.0
C1617 C 0.36579 0.41579 0.96837 0.0
C1618 C 0.36351 0.42826 0.98268 0.0
C1619 C 0.32455 0.44582 0.09973 0.0
C1620 C 0.33839 0.44449 0.11233 0.0
C1621 C 0.32581 0.44906 0.07428 0.0
C1622 C 0.34101 0.45119 0.06091 0.0
C1623 C 0.35483 0.44989 0.0735 0.0
C1624 C 0.35356 0.44662 0.09887 0.0
C1625 C 0.34246 0.45444 0.03376 0.0
C1626 C 0.34535 0.44269 0.01851 0.0
C1627 C 0.3409 0.46882 0.02284 0.0
C1628 C 0.33876 0.48229 0.03785 0.0
C1629 C 0.35153 0.49246 0.05627 0.0
C1630 C 0.34939 0.50508 0.07041 0.0
C1631 C 0.33459 0.50776 0.06618 0.0
C1632 C 0.32193 0.49786 0.04775 0.0
C1633 C 0.32401 0.48521 0.03357 0.0
H1634 H 0.33296 0.51755 0.07714 0.0
H1635 H 0.35551 0.39688 0.93803 0.0
H1636 H 0.89259 0.30476 0.90109 0.0
H1637 H 0.89376 0.30451 0.94595 0.0
H1638 H 0.87236 0.34129 0.94941 0.0
H1639 H 0.87137 0.34182 0.90433 0.0
H1640 H 0.89976 0.35113 0.98213 0.0
H1641 H 0.84503 0.2959 0.96176 0.0
H1642 H 0.82616 0.26663 0.94031 0.0
H1643 H 0.85832 0.24533 0.9717 0.0
H1644 H 0.87755 0.27457 0.99309 0.0
H1645 H 0.88125 0.33652 0.11179 0.0
H1646 H 0.87841 0.3387 0.06718 0.0
H1647 H 0.8983 0.3012 0.05552 0.0
H1648 H 0.90089 0.29874 0.09987 0.0
H1649 H 0.86967 0.29219 0.02709 0.0
H1650 H 0.92533 0.34799 0.04576 0.0
H1651 H 0.94431 0.37736 0.06697 0.0
H1652 H 0.91028 0.39754 0.03883 0.0
H1653 H 0.89094 0.3682 0.0177 0.0
C1654 C 0.88813 0.31283 0.91132 0.0
C1655 C 0.88179 0.32324 0.89901 0.0
C1656 C 0.88874 0.3126 0.93705 0.0
C1657 C 0.8829 0.32267 0.95118 0.0
C1658 C 0.87688 0.33336 0.93897 0.0
C1659 C 0.87628 0.3336 0.91316 0.0
C1660 C 0.88308 0.32193 0.97864 0.0
C1661 C 0.89293 0.33825 0.99199 0.0
C1662 C 0.87443 0.30514 0.99159 0.0
C1663 C 0.86283 0.28749 0.97886 0.0
C1664 C 0.84816 0.28502 0.96395 0.0
C1665 C 0.83739 0.26842 0.95182 0.0
C1666 C 0.84106 0.25414 0.95459 0.0
C1667 C 0.8555 0.25641 0.96956 0.0
C1668 C 0.86633 0.27299 0.98171 0.0
C1669 C 0.88506 0.32877 0.09972 0.0
C1670 C 0.89131 0.31746 0.1095 0.0
C1671 C 0.88349 0.33009 0.07417 0.0
C1672 C 0.88828 0.32023 0.05785 0.0
C1673 C 0.89449 0.30893 0.06763 0.0
C1674 C 0.89602 0.30758 0.09309 0.0
C1675 C 0.88662 0.32136 0.0306 0.0
C1676 C 0.87643 0.30508 0.01727 0.0
C1677 C 0.89495 0.33819 0.01772 0.0
C1678 C 0.90657 0.35583 0.03038 0.0
C1679 C 0.92181 0.35864 0.04426 0.0
C1680 C 0.93265 0.37529 0.05624 0.0
C1681 C 0.92847 0.38929 0.05431 0.0
C1682 C 0.91347 0.38668 0.04034 0.0
C1683 C 0.90258 0.37005 0.02835 0.0
H1684 H 0.93688 0.40217 0.06359 0.0
H1685 H 0.83271 0.2413 0.94519 0.0
H1686 H 0.53216 0.903 0.11334 0.0
H1687 H 0.52908 0.90115 0.0686 0.0
H1688 H 0.554 0.8674 0.06602 0.0
H1689 H 0.55739 0.86942 0.11087 0.0
H1690 H 0.56718 0.89226 0.02992 0.0
H1691 H 0.50777 0.84881 0.05914 0.0
H1692 H 0.4797 0.83761 0.08382 0.0
H1693 H 0.46855 0.87667 0.04923 0.0
H1694 H 0.4967 0.88828 0.02457 0.0
H1695 H 0.53936 0.86336 0.90504 0.0
H1696 H 0.54401 0.86411 0.94967 0.0
H1697 H 0.52136 0.89957 0.95807 0.0
H1698 H 0.51661 0.89883 0.91369 0.0
H1699 H 0.50692 0.87212 0.99118 0.0
H1700 H 0.56715 0.91602 0.96282 0.0
H1701 H 0.59517 0.92679 0.93815 0.0
H1702 H 0.6045 0.88597 0.97101 0.0
H1703 H 0.57638 0.8748 0.99564 0.0
C1704 C 0.537 0.89518 0.10331 0.0
C1705 C 0.54495 0.88629 0.1158 0.0
C1706 C 0.53516 0.89406 0.07767 0.0
C1707 C 0.54107 0.88391 0.06386 0.0
C1708 C 0.54929 0.87527 0.07622 0.0
C1709 C 0.55117 0.87641 0.1019 0.0
C1710 C 0.53862 0.88234 0.03658 0.0
C1711 C 0.55394 0.88758 0.02147 0.0
C1712 C 0.52142 0.8765 0.02542 0.0
C1713 C 0.50444 0.86953 0.04017 0.0
C1714 C 0.49941 0.85511 0.05693 0.0
C1715 C 0.48347 0.84867 0.07089 0.0
C1716 C 0.47237 0.85645 0.06814 0.0
C1717 C 0.47717 0.87066 0.05136 0.0
C1718 C 0.49311 0.87717 0.03737 0.0
C1719 C 0.53546 0.87139 0.91637 0.0
C1720 C 0.52762 0.88104 0.90571 0.0
C1721 C 0.53817 0.87185 0.94191 0.0
C1722 C 0.53311 0.88197 0.95729 0.0
C1723 C 0.52534 0.89164 0.94665 0.0
C1724 C 0.5227 0.89125 0.92119 0.0
C1725 C 0.53551 0.88226 0.98453 0.0
C1726 C 0.52015 0.87673 0.99964 0.0
C1727 C 0.55265 0.88774 0.99564 0.0
C1728 C 0.56955 0.89444 0.98086 0.0
C1729 C 0.57509 0.90924 0.96462 0.0
C1730 C 0.59101 0.91544 0.95068 0.0
C1731 C 0.60158 0.90704 0.95296 0.0
C1732 C 0.59628 0.89245 0.96923 0.0
C1733 C 0.58036 0.88618 0.9832 0.0
H1734 H 0.6139 0.91186 0.94215 0.0
H1735 H 0.46003 0.85145 0.07896 0.0
H1736 H 0.65121 0.53217 0.10957 0.0
H1737 H 0.64608 0.52559 0.06541 0.0
H1738 H 0.68295 0.58239 0.04914 0.0
H1739 H 0.68799 0.58908 0.09305 0.0
H1740 H 0.65281 0.56941 0.02143 0.0
H1741 H 0.69592 0.55007 0.04249 0.0
H1742 H 0.70719 0.53258 0.06562 0.0
H1743 H 0.66092 0.48231 0.04166 0.0
H1744 H 0.64925 0.49952 0.01864 0.0
H1745 H 0.67196 0.56639 0.8956 0.0
H1746 H 0.67396 0.56994 0.94026 0.0
H1747 H 0.63676 0.5122 0.94891 0.0
H1748 H 0.63486 0.50848 0.90407 0.0
H1749 H 0.66472 0.52379 0.98084 0.0
H1750 H 0.62238 0.54304 0.95801 0.0
H1751 H 0.61111 0.56047 0.93476 0.0
H1752 H 0.65559 0.61074 0.96212 0.0
H1753 H 0.66729 0.59362 0.98527 0.0
C1754 C 0.65822 0.54326 0.09659 0.0
C1755 C 0.67005 0.56116 0.10492 0.0
C1756 C 0.65533 0.53946 0.07132 0.0
C1757 C 0.66424 0.55347 0.05385 0.0
C1758 C 0.67589 0.57134 0.06218 0.0
C1759 C 0.67881 0.57514 0.08737 0.0
C1760 C 0.66148 0.54965 0.02689 0.0
C1761 C 0.6556 0.55956 0.01254 0.0
C1762 C 0.6646 0.53644 0.01529 0.0
C1763 C 0.67161 0.52608 0.02908 0.0
C1764 C 0.68807 0.53529 0.04233 0.0
C1765 C 0.69454 0.52543 0.05538 0.0
C1766 C 0.68475 0.50635 0.05517 0.0
C1767 C 0.66848 0.49709 0.04184 0.0
C1768 C 0.66193 0.50689 0.02878 0.0
C1769 C 0.66417 0.55441 0.90694 0.0
C1770 C 0.65318 0.53715 0.89616 0.0
C1771 C 0.66527 0.55649 0.93254 0.0
C1772 C 0.65531 0.54139 0.94805 0.0
C1773 C 0.64453 0.52408 0.93737 0.0
C1774 C 0.64341 0.52198 0.91171 0.0
C1775 C 0.6563 0.54374 0.97534 0.0
C1776 C 0.66182 0.53355 0.98975 0.0
C1777 C 0.65282 0.55669 0.98703 0.0
C1778 C 0.6458 0.56704 0.97321 0.0
C1779 C 0.62984 0.55782 0.95893 0.0
C1780 C 0.62336 0.56764 0.94579 0.0
C1781 C 0.63265 0.5867 0.94692 0.0
C1782 C 0.64842 0.59598 0.96124 0.0
C1783 C 0.65497 0.58622 0.9744 0.0
H1784 H 0.62762 0.59428 0.93673 0.0
H1785 H 0.68978 0.49874 0.06529 0.0
H1786 H 0.09716 0.66264 0.90447 0.0
H1787 H 0.09288 0.66481 0.94871 0.0
H1788 H 0.14158 0.66211 0.96369 0.0
H1789 H 0.14579 0.65969 0.91969 0.0
H1790 H 0.11522 0.64059 0.99454 0.0
H1791 H 0.14093 0.70267 0.96697 0.0
H1792 H 0.14282 0.72769 0.94149 0.0
H1793 H 0.09025 0.71633 0.96779 0.0
H1794 H 0.08795 0.69107 0.99319 0.0
H1795 H 0.1332 0.67213 0.11774 0.0
H1796 H 0.13457 0.66891 0.07324 0.0
H1797 H 0.08454 0.67025 0.06465 0.0
H1798 H 0.08314 0.67363 0.10928 0.0
H1799 H 0.10959 0.69151 0.03049 0.0
H1800 H 0.08462 0.63022 0.05957 0.0
H1801 H 0.08313 0.60551 0.08536 0.0
H1802 H 0.13459 0.61556 0.05632 0.0
H1803 H 0.13652 0.64052 0.03061 0.0
C1804 C 0.10697 0.66253 0.91718 0.0
C1805 C 0.12185 0.66103 0.90843 0.0
C1806 C 0.10455 0.66385 0.9425 0.0
C1807 C 0.117 0.66379 0.95965 0.0
C1808 C 0.13176 0.66217 0.95092 0.0
C1809 C 0.13419 0.66085 0.92567 0.0
C1810 C 0.11466 0.66528 0.98667 0.0
C1811 C 0.1142 0.65185 1.00239 0.0
C1812 C 0.11283 0.67968 0.99701 0.0
C1813 C 0.11418 0.69485 0.98176 0.0
C1814 C 0.12971 0.70541 0.96716 0.0
C1815 C 0.13086 0.71965 0.95276 0.0
C1816 C 0.11664 0.72356 0.95296 0.0
C1817 C 0.10125 0.71327 0.96761 0.0
C1818 C 0.10002 0.69899 0.98202 0.0
C1819 C 0.12244 0.67171 0.10645 0.0
C1820 C 0.10802 0.67308 0.11719 0.0
C1821 C 0.12321 0.66979 0.08094 0.0
C1822 C 0.10955 0.66912 0.06551 0.0
C1823 C 0.09523 0.67069 0.07613 0.0
C1824 C 0.09442 0.67256 0.10169 0.0
C1825 C 0.11036 0.66694 0.03833 0.0
C1826 C 0.11052 0.68021 0.02261 0.0
C1827 C 0.11194 0.65241 0.02797 0.0
C1828 C 0.11079 0.63735 0.04332 0.0
C1829 C 0.09569 0.62725 0.05882 0.0
C1830 C 0.09475 0.61319 0.0734 0.0
C1831 C 0.10877 0.609 0.07252 0.0
C1832 C 0.12374 0.61884 0.057 0.0
C1833 C 0.12476 0.63293 0.0424 0.0
H1834 H 0.10802 0.59811 0.08383 0.0
H1835 H 0.11756 0.7346 0.94181 0.0
H1836 H 0.85698 0.5436 0.61813 0.0
H1837 H 0.85402 0.54015 0.57329 0.0
H1838 H 0.90831 0.54771 0.56875 0.0
H1839 H 0.91143 0.55132 0.61336 0.0
H1840 H 0.90332 0.56729 0.53398 0.0
H1841 H 0.87022 0.50527 0.5633 0.0
H1842 H 0.84678 0.47964 0.58764 0.0
H1843 H 0.8046 0.48493 0.55114 0.0
H1844 H 0.82783 0.51077 0.5268 0.0
H1845 H 0.90346 0.53529 0.41393 0.0
H1846 H 0.90405 0.53919 0.45849 0.0
H1847 H 0.84912 0.53008 0.45649 0.0
H1848 H 0.84831 0.52587 0.41179 0.0
H1849 H 0.85311 0.51211 0.4944 0.0
H1850 H 0.88591 0.5732 0.46379 0.0
H1851 H 0.90921 0.59887 0.43938 0.0
H1852 H 0.95174 0.59567 0.47829 0.0
H1853 H 0.92867 0.5698 0.50272 0.0
C1854 C 0.86829 0.54452 0.60759 0.0
C1855 C 0.88444 0.5477 0.61944 0.0
C1856 C 0.86655 0.54247 0.58193 0.0
C1857 C 0.88089 0.54351 0.56757 0.0
C1858 C 0.89705 0.54686 0.57936 0.0
C1859 C 0.89879 0.54886 0.60495 0.0
C1860 C 0.87921 0.54124 0.54026 0.0
C1861 C 0.89245 0.55513 0.52536 0.0
C1862 C 0.86475 0.52562 0.52886 0.0
C1863 C 0.85077 0.51008 0.54343 0.0
C1864 C 0.85596 0.50107 0.56061 0.0
C1865 C 0.84271 0.48649 0.57438 0.0
C1866 C 0.82422 0.4807 0.57099 0.0
C1867 C 0.81893 0.48945 0.55378 0.0
C1868 C 0.83213 0.50405 0.53998 0.0
C1869 C 0.89147 0.53411 0.4229 0.0
C1870 C 0.87586 0.53034 0.40916 0.0
C1871 C 0.89187 0.53643 0.44845 0.0
C1872 C 0.87673 0.5352 0.46093 0.0
C1873 C 0.861 0.53115 0.44733 0.0
C1874 C 0.86058 0.5288 0.42173 0.0
C1875 C 0.87736 0.53807 0.48813 0.0
C1876 C 0.86393 0.52432 0.503 0.0
C1877 C 0.89163 0.55385 0.49953 0.0
C1878 C 0.90555 0.56945 0.48493 0.0
C1879 C 0.90023 0.57788 0.46701 0.0
C1880 C 0.91339 0.59248 0.4532 0.0
C1881 C 0.93194 0.59887 0.45724 0.0
C1882 C 0.93736 0.5907 0.47516 0.0
C1883 C 0.92425 0.57607 0.48902 0.0
H1884 H 0.94212 0.61018 0.44652 0.0
H1885 H 0.81398 0.4694 0.58166 0.0
H1886 H 0.29714 0.89365 0.59135 0.0
H1887 H 0.30022 0.88917 0.54768 0.0
H1888 H 0.33433 0.86617 0.56508 0.0
H1889 H 0.33156 0.87093 0.60908 0.0
H1890 H 0.34784 0.88875 0.52624 0.0
H1891 H 0.28957 0.83868 0.54823 0.0
H1892 H 0.25869 0.82354 0.56634 0.0
H1893 H 0.24281 0.85273 0.51687 0.0
H1894 H 0.27368 0.86825 0.49868 0.0
H1895 H 0.3411 0.85404 0.40379 0.0
H1896 H 0.33956 0.85655 0.44854 0.0
H1897 H 0.30564 0.88087 0.43922 0.0
H1898 H 0.30694 0.87823 0.3946 0.0
H1899 H 0.2923 0.85552 0.47466 0.0
H1900 H 0.3513 0.90662 0.45416 0.0
H1901 H 0.38224 0.9216 0.43625 0.0
H1902 H 0.39668 0.88983 0.48299 0.0
H1903 H 0.36573 0.87448 0.50096 0.0
C1904 C 0.30533 0.88764 0.58599 0.0
C1905 C 0.31402 0.88255 0.60383 0.0
C1906 C 0.30701 0.88501 0.56092 0.0
C1907 C 0.31726 0.87703 0.55299 0.0
C1908 C 0.32628 0.87227 0.5707 0.0
C1909 C 0.32465 0.87496 0.59587 0.0
C1910 C 0.31844 0.87371 0.52623 0.0
C1911 C 0.33569 0.88122 0.51505 0.0
C1912 C 0.30261 0.86412 0.51143 0.0
C1913 C 0.28399 0.85475 0.52223 0.0
C1914 C 0.27953 0.84197 0.54133 0.0
C1915 C 0.26203 0.8333 0.55159 0.0
C1916 C 0.24881 0.8372 0.5428 0.0
C1917 C 0.25307 0.84974 0.52368 0.0
C1918 C 0.27056 0.85846 0.51337 0.0
C1919 C 0.33331 0.85993 0.41125 0.0
C1920 C 0.32417 0.86596 0.39552 0.0
C1921 C 0.33251 0.86143 0.43688 0.0
C1922 C 0.32262 0.86906 0.44735 0.0
C1923 C 0.31336 0.87493 0.43166 0.0
C1924 C 0.31417 0.87346 0.40608 0.0
C1925 C 0.32169 0.87082 0.47459 0.0
C1926 C 0.30445 0.86296 0.48587 0.0
C1927 C 0.33753 0.88002 0.48945 0.0
C1928 C 0.35614 0.88926 0.4787 0.0
C1929 C 0.36102 0.90272 0.46047 0.0
C1930 C 0.37857 0.9113 0.45034 0.0
C1931 C 0.3914 0.90663 0.45842 0.0
C1932 C 0.38672 0.89341 0.47672 0.0
C1933 C 0.36918 0.88478 0.48689 0.0
H1934 H 0.40498 0.91329 0.45056 0.0
H1935 H 0.23527 0.83047 0.55076 0.0
H1936 H 0.43756 0.35642 0.60598 0.0
H1937 H 0.44238 0.35836 0.56153 0.0
H1938 H 0.43817 0.30538 0.56171 0.0
H1939 H 0.43345 0.30337 0.60639 0.0
H1940 H 0.46616 0.32941 0.53242 0.0
H1941 H 0.4027 0.30996 0.54216 0.0
H1942 H 0.37615 0.3113 0.55837 0.0
H1943 H 0.39612 0.3641 0.52553 0.0
H1944 H 0.42294 0.36319 0.5094 0.0
H1945 H 0.45572 0.31659 0.40218 0.0
H1946 H 0.45132 0.31324 0.44679 0.0
H1947 H 0.45258 0.36483 0.45036 0.0
H1948 H 0.45669 0.36814 0.40577 0.0
H1949 H 0.42552 0.34028 0.47781 0.0
H1950 H 0.48926 0.36021 0.46887 0.0
H1951 H 0.51606 0.35921 0.4529 0.0
H1952 H 0.49583 0.3059 0.48425 0.0
H1953 H 0.46877 0.30648 0.50014 0.0
C1954 C 0.43769 0.34517 0.59665 0.0
C1955 C 0.43502 0.32969 0.60983 0.0
C1956 C 0.44039 0.34628 0.57115 0.0
C1957 C 0.44041 0.33192 0.55815 0.0
C1958 C 0.43816 0.31661 0.5713 0.0
C1959 C 0.43541 0.31547 0.59685 0.0
C1960 C 0.44263 0.33288 0.53085 0.0
C1961 C 0.45711 0.33151 0.52044 0.0
C1962 C 0.43107 0.33601 0.51519 0.0
C1963 C 0.41492 0.33657 0.52477 0.0
C1964 C 0.40151 0.32192 0.53856 0.0
C1965 C 0.3864 0.32259 0.5477 0.0
C1966 C 0.38447 0.3378 0.54304 0.0
C1967 C 0.39764 0.35234 0.52916 0.0
C1968 C 0.41279 0.35175 0.51999 0.0
C1969 C 0.4551 0.32725 0.41244 0.0
C1970 C 0.4566 0.34266 0.40032 0.0
C1971 C 0.45266 0.32535 0.43802 0.0
C1972 C 0.4518 0.33887 0.45208 0.0
C1973 C 0.4532 0.3542 0.43998 0.0
C1974 C 0.45561 0.3561 0.41444 0.0
C1975 C 0.44916 0.33696 0.47933 0.0
C1976 C 0.43457 0.33813 0.48975 0.0
C1977 C 0.46064 0.33369 0.49497 0.0
C1978 C 0.4769 0.33331 0.48546 0.0
C1979 C 0.49045 0.34821 0.47219 0.0
C1980 C 0.5057 0.34773 0.46318 0.0
C1981 C 0.50762 0.33248 0.46749 0.0
C1982 C 0.49431 0.31769 0.48088 0.0
C1983 C 0.47902 0.3181 0.48991 0.0
H1984 H 0.51944 0.33213 0.46051 0.0
H1985 H 0.37276 0.33829 0.55013 0.0
H1986 H 0.13684 0.45171 0.60336 0.0
H1987 H 0.13845 0.45593 0.5587 0.0
H1988 H 0.09394 0.46705 0.56186 0.0
H1989 H 0.09202 0.46252 0.60642 0.0
H1990 H 0.08896 0.44486 0.5247 0.0
H1991 H 0.1391 0.50145 0.55374 0.0
H1992 H 0.16755 0.52101 0.57657 0.0
H1993 H 0.19548 0.49953 0.53424 0.0
H1994 H 0.16712 0.47965 0.51137 0.0
H1995 H 0.09816 0.4839 0.40636 0.0
H1996 H 0.09725 0.47862 0.45064 0.0
H1997 H 0.14065 0.46612 0.44344 0.0
H1998 H 0.1418 0.4716 0.39902 0.0
H1999 H 0.14654 0.48822 0.48231 0.0
H2000 H 0.09645 0.43223 0.45245 0.0
H2001 H 0.068 0.41295 0.42948 0.0
H2002 H 0.03993 0.43351 0.47333 0.0
H2003 H 0.06829 0.45311 0.49635 0.0
C2004 C 0.12742 0.45511 0.59458 0.0
C2005 C 0.11433 0.45682 0.60857 0.0
C2006 C 0.1284 0.45759 0.569 0.0
C2007 C 0.11645 0.46202 0.55681 0.0
C2008 C 0.10333 0.46365 0.57075 0.0
C2009 C 0.10229 0.46111 0.5963 0.0
C2010 C 0.11742 0.46473 0.52956 0.0
C2011 C 0.10152 0.45452 0.51551 0.0
C2012 C 0.13387 0.47697 0.51732 0.0
C2013 C 0.15094 0.48893 0.53102 0.0
C2014 C 0.15128 0.50079 0.54944 0.0
C2015 C 0.16739 0.51196 0.56236 0.0
C2016 C 0.1833 0.51147 0.55691 0.0
C2017 C 0.18314 0.49986 0.53847 0.0
C2018 C 0.16705 0.48866 0.52551 0.0
C2019 C 0.1075 0.47998 0.41412 0.0
C2020 C 0.12002 0.47813 0.39902 0.0
C2021 C 0.10691 0.47688 0.4395 0.0
C2022 C 0.11874 0.47176 0.45044 0.0
C2023 C 0.13135 0.47003 0.43547 0.0
C2024 C 0.13195 0.47311 0.41003 0.0
C2025 C 0.11806 0.46844 0.47752 0.0
C2026 C 0.13401 0.47852 0.49152 0.0
C2027 C 0.10164 0.4561 0.48972 0.0
C2028 C 0.08454 0.44427 0.47598 0.0
C2029 C 0.08424 0.43275 0.45707 0.0
C2030 C 0.06813 0.42174 0.44406 0.0
C2031 C 0.05218 0.42204 0.4499 0.0
C2032 C 0.0523 0.43331 0.46881 0.0
C2033 C 0.06839 0.44436 0.48186 0.0
H2034 H 0.03972 0.41351 0.4398 0.0
H2035 H 0.19576 0.52013 0.56693 0.0
H2036 H 0.61997 0.09337 0.40666 0.0
H2037 H 0.62244 0.09121 0.45113 0.0
H2038 H 0.67776 0.1363 0.44904 0.0
H2039 H 0.67549 0.13836 0.4043 0.0
H2040 H 0.67537 0.11009 0.47913 0.0
H2041 H 0.64246 0.14209 0.46944 0.0
H2042 H 0.6182 0.14744 0.45359 0.0
H2043 H 0.57745 0.09791 0.48775 0.0
H2044 H 0.60146 0.09212 0.50353 0.0
H2045 H 0.68083 0.12304 0.60988 0.0
H2046 H 0.6807 0.1278 0.56541 0.0
H2047 H 0.62543 0.0828 0.56102 0.0
H2048 H 0.62538 0.07809 0.60535 0.0
H2049 H 0.62909 0.11099 0.53437 0.0
H2050 H 0.66207 0.07848 0.54257 0.0
H2051 H 0.68639 0.07315 0.55829 0.0
H2052 H 0.72715 0.12399 0.52702 0.0
H2053 H 0.70306 0.12974 0.51139 0.0
C2054 C 0.6327 0.10284 0.41558 0.0
C2055 C 0.6475 0.11611 0.40182 0.0
C2056 C 0.63406 0.10164 0.44111 0.0
C2057 C 0.6502 0.11377 0.45362 0.0
C2058 C 0.66514 0.12681 0.43989 0.0
C2059 C 0.6638 0.128 0.41428 0.0
C2060 C 0.65138 0.11279 0.48096 0.0
C2061 C 0.66542 0.11058 0.49122 0.0
C2062 C 0.63824 0.11311 0.49684 0.0
C2063 C 0.62376 0.11659 0.48749 0.0
C2064 C 0.62832 0.13227 0.47343 0.0
C2065 C 0.61461 0.13539 0.46448 0.0
C2066 C 0.59629 0.123 0.46961 0.0
C2067 C 0.59165 0.10749 0.48376 0.0
C2068 C 0.6053 0.10429 0.49274 0.0
C2069 C 0.66864 0.11416 0.59946 0.0
C2070 C 0.65313 0.10014 0.61127 0.0
C2071 C 0.66861 0.11686 0.57398 0.0
C2072 C 0.65311 0.10555 0.55972 0.0
C2073 C 0.63756 0.09171 0.57154 0.0
C2074 C 0.63758 0.089 0.59695 0.0
C2075 C 0.65295 0.10807 0.53252 0.0
C2076 C 0.63911 0.11059 0.52229 0.0
C2077 C 0.66629 0.10807 0.5167 0.0
C2078 C 0.68078 0.10463 0.52605 0.0
C2079 C 0.67623 0.08859 0.53922 0.0
C2080 C 0.68996 0.08548 0.54808 0.0
C2081 C 0.7083 0.09825 0.54372 0.0
C2082 C 0.71294 0.11413 0.53042 0.0
C2083 C 0.69925 0.11731 0.52154 0.0
H2084 H 0.71892 0.09582 0.55059 0.0
H2085 H 0.5857 0.12545 0.46266 0.0
H2086 H 0.53635 0.67489 0.39833 0.0
H2087 H 0.54054 0.6784 0.44291 0.0
H2088 H 0.5336 0.62437 0.44805 0.0
H2089 H 0.52896 0.6206 0.40355 0.0
H2090 H 0.51493 0.62884 0.4832 0.0
H2091 H 0.57636 0.6642 0.4532 0.0
H2092 H 0.60135 0.68794 0.42833 0.0
H2093 H 0.59384 0.72929 0.46329 0.0
H2094 H 0.56863 0.70575 0.48815 0.0
H2095 H 0.54911 0.63508 0.60436 0.0
H2096 H 0.54431 0.63237 0.55989 0.0
H2097 H 0.54884 0.68548 0.55797 0.0
H2098 H 0.55388 0.68841 0.60254 0.0
H2099 H 0.56837 0.68197 0.52139 0.0
H2100 H 0.50729 0.64635 0.55213 0.0
H2101 H 0.48254 0.62243 0.5771 0.0
H2102 H 0.48973 0.58134 0.54076 0.0
H2103 H 0.5147 0.60505 0.51579 0.0
C2104 C 0.5358 0.66377 0.40891 0.0
C2105 C 0.53236 0.64747 0.39727 0.0
C2106 C 0.53828 0.66583 0.43445 0.0
C2107 C 0.53761 0.65174 0.44895 0.0
C2108 C 0.53419 0.63546 0.43735 0.0
C2109 C 0.53159 0.63334 0.41184 0.0
C2110 C 0.54014 0.65378 0.47622 0.0
C2111 C 0.52676 0.64035 0.4915 0.0
C2112 C 0.55531 0.66902 0.48724 0.0
C2113 C 0.57048 0.68319 0.47235 0.0
C2114 C 0.57994 0.67834 0.45545 0.0
C2115 C 0.59416 0.69176 0.44138 0.0
C2116 C 0.59914 0.7101 0.44418 0.0
C2117 C 0.58994 0.71507 0.46111 0.0
C2118 C 0.5757 0.7017 0.47521 0.0
C2119 C 0.549 0.64618 0.59456 0.0
C2120 C 0.55184 0.66196 0.60712 0.0
C2121 C 0.54618 0.64457 0.56907 0.0
C2122 C 0.54602 0.65864 0.55551 0.0
C2123 C 0.54888 0.67443 0.56798 0.0
C2124 C 0.55169 0.67605 0.59351 0.0
C2125 C 0.54322 0.65699 0.5283 0.0
C2126 C 0.55653 0.67049 0.51305 0.0
C2127 C 0.52802 0.64179 0.5173 0.0
C2128 C 0.51298 0.6275 0.53225 0.0
C2129 C 0.50369 0.63223 0.5496 0.0
C2130 C 0.4896 0.61871 0.56373 0.0
C2131 C 0.4846 0.60039 0.56056 0.0
C2132 C 0.49364 0.59554 0.54321 0.0
C2133 C 0.50775 0.60901 0.52905 0.0
H2134 H 0.47369 0.58994 0.57152 0.0
H2135 H 0.61016 0.72047 0.43327 0.0
H2136 H 0.48675 0.12506 0.20918 0.0
H2137 H 0.51636 0.13302 0.22707 0.0
H2138 H 0.48931 0.10012 0.29087 0.0
H2139 H 0.45977 0.09277 0.27355 0.0
H2140 H 0.51725 0.12985 0.30572 0.0
H2141 H 0.50818 0.08564 0.24464 0.0
H2142 H 0.50132 0.0713 0.20357 0.0
H2143 H 0.54798 0.11856 0.17356 0.0
H2144 H 0.55498 0.1333 0.2144 0.0
H2145 H 0.59867 0.12209 0.33488 0.0
H2146 H 0.56782 0.11739 0.3281 0.0
H2147 H 0.58935 0.16051 0.27409 0.0
H2148 H 0.61995 0.16531 0.28083 0.0
H2149 H 0.56351 0.12389 0.25675 0.0
H2150 H 0.57181 0.16734 0.32075 0.0
H2151 H 0.57818 0.17925 0.36319 0.0
H2152 H 0.53222 0.12964 0.38941 0.0
H2153 H 0.52572 0.11732 0.34713 0.0
C2154 C 0.48713 0.11944 0.22693 0.0
C2155 C 0.47095 0.10824 0.2399 0.0
C2156 C 0.50405 0.12396 0.23715 0.0
C2157 C 0.50508 0.11698 0.26023 0.0
C2158 C 0.4889 0.10572 0.27311 0.0
C2159 C 0.47202 0.10146 0.26311 0.0
C2160 C 0.52302 0.12144 0.27092 0.0
C2161 C 0.52727 0.12832 0.29509 0.0
C2162 C 0.53614 0.11946 0.25715 0.0
C2163 C 0.532 0.11064 0.23255 0.0
C2164 C 0.5169 0.09303 0.22925 0.0
C2165 C 0.513 0.08482 0.20602 0.0
C2166 C 0.52418 0.09403 0.18596 0.0
C2167 C 0.53932 0.11145 0.18911 0.0
C2168 C 0.54327 0.11973 0.2123 0.0
C2169 C 0.59689 0.13109 0.32243 0.0
C2170 C 0.61159 0.14392 0.30815 0.0
C2171 C 0.57929 0.12833 0.31846 0.0
C2172 C 0.57637 0.13846 0.30034 0.0
C2173 C 0.59135 0.1525 0.28802 0.0
C2174 C 0.60882 0.15525 0.29195 0.0
C2175 C 0.55781 0.13266 0.29117 0.0
C2176 C 0.55343 0.12538 0.26732 0.0
C2177 C 0.54452 0.13391 0.30543 0.0
C2178 C 0.54841 0.14133 0.33081 0.0
C2179 C 0.56317 0.15889 0.33559 0.0
C2180 C 0.56678 0.16574 0.35961 0.0
C2181 C 0.55565 0.15519 0.379 0.0
C2182 C 0.54085 0.13778 0.37439 0.0
C2183 C 0.53719 0.13087 0.3504 0.0
H2184 H 0.55846 0.16051 0.39758 0.0
H2185 H 0.52113 0.08765 0.16799 0.0
H2186 H 0.45471 0.61764 0.27575 0.0
H2187 H 0.4286 0.58714 0.2722 0.0
H2188 H 0.45051 0.56838 0.32968 0.0
H2189 H 0.47729 0.59918 0.33277 0.0
H2190 H 0.44303 0.54753 0.29113 0.0
H2191 H 0.40878 0.56768 0.33645 0.0
H2192 H 0.39721 0.58802 0.34929 0.0
H2193 H 0.37275 0.5824 0.27823 0.0
H2194 H 0.38438 0.56224 0.2648 0.0
H2195 H 0.363 0.45925 0.27244 0.0
H2196 H 0.38573 0.48804 0.29119 0.0
H2197 H 0.38144 0.51769 0.22943 0.0
H2198 H 0.3588 0.48886 0.21029 0.0
H2199 H 0.37842 0.53072 0.27784 0.0
H2200 H 0.41709 0.51382 0.23216 0.0
H2201 H 0.42856 0.49315 0.22058 0.0
H2202 H 0.44408 0.4921 0.29554 0.0
H2203 H 0.43245 0.51258 0.30764 0.0
C2204 C 0.45378 0.60716 0.28814 0.0
C2205 C 0.46813 0.61076 0.30439 0.0
C2206 C 0.43872 0.58969 0.28621 0.0
C2207 C 0.43747 0.5754 0.30074 0.0
C2208 C 0.45117 0.57921 0.31828 0.0
C2209 C 0.46639 0.59682 0.3202 0.0
C2210 C 0.42319 0.55633 0.29497 0.0
C2211 C 0.4288 0.54372 0.28891 0.0
C2212 C 0.40465 0.55138 0.29161 0.0
C2213 C 0.39754 0.56348 0.29958 0.0
C2214 C 0.40104 0.57087 0.32349 0.0
C2215 C 0.39445 0.58236 0.33089 0.0
C2216 C 0.38427 0.58651 0.31458 0.0
C2217 C 0.38063 0.57916 0.29085 0.0
C2218 C 0.38719 0.56767 0.28335 0.0
C2219 C 0.36699 0.47189 0.26272 0.0
C2220 C 0.35911 0.47181 0.23987 0.0
C2221 C 0.37997 0.4883 0.27348 0.0
C2222 C 0.38518 0.50493 0.26172 0.0
C2223 C 0.37751 0.50494 0.2388 0.0
C2224 C 0.3647 0.48848 0.22782 0.0
C2225 C 0.39848 0.52237 0.27347 0.0
C2226 C 0.3926 0.53454 0.28062 0.0
C2227 C 0.4167 0.52683 0.27813 0.0
C2228 C 0.42369 0.51454 0.27086 0.0
C2229 C 0.42278 0.50903 0.24622 0.0
C2230 C 0.42935 0.49739 0.23955 0.0
C2231 C 0.43699 0.49126 0.25733 0.0
C2232 C 0.43812 0.49682 0.2818 0.0
C2233 C 0.43155 0.50845 0.28857 0.0
H2234 H 0.44207 0.48226 0.25212 0.0
H2235 H 0.37918 0.59541 0.32034 0.0
H2236 H 0.88629 0.48842 0.26906 0.0
H2237 H 0.88707 0.46055 0.26091 0.0
H2238 H 0.85648 0.43648 0.32731 0.0
H2239 H 0.85557 0.46469 0.33572 0.0
H2240 H 0.88639 0.42877 0.31578 0.0
H2241 H 0.83281 0.42483 0.2793 0.0
H2242 H 0.81596 0.43637 0.25524 0.0
H2243 H 0.84793 0.44113 0.19133 0.0
H2244 H 0.86518 0.4299 0.21512 0.0
H2245 H 0.86795 0.34186 0.2736 0.0
H2246 H 0.8635 0.36626 0.28987 0.0
H2247 H 0.88279 0.39563 0.2214 0.0
H2248 H 0.88672 0.3709 0.20469 0.0
H2249 H 0.85522 0.39854 0.23787 0.0
H2250 H 0.91063 0.40583 0.27378 0.0
H2251 H 0.92933 0.39605 0.29704 0.0
H2252 H 0.89577 0.38641 0.36091 0.0
H2253 H 0.87673 0.39591 0.33792 0.0
C2254 C 0.87993 0.47734 0.2822 0.0
C2255 C 0.87062 0.47863 0.30287 0.0
C2256 C 0.88041 0.46142 0.27748 0.0
C2257 C 0.87152 0.44638 0.29323 0.0
C2258 C 0.86331 0.44797 0.31487 0.0
C2259 C 0.86285 0.46406 0.31968 0.0
C2260 C 0.86988 0.4288 0.28569 0.0
C2261 C 0.87925 0.42188 0.29906 0.0
C2262 C 0.86092 0.42014 0.26354 0.0
C2263 C 0.85037 0.42663 0.24905 0.0
C2264 C 0.83633 0.42845 0.26016 0.0
C2265 C 0.82669 0.43493 0.24657 0.0
C2266 C 0.83089 0.43951 0.22178 0.0
C2267 C 0.8447 0.43758 0.21053 0.0
C2268 C 0.85439 0.43114 0.22405 0.0
C2269 C 0.87111 0.35345 0.26191 0.0
C2270 C 0.87784 0.35454 0.2379 0.0
C2271 C 0.86865 0.36744 0.27131 0.0
C2272 C 0.87321 0.38299 0.25709 0.0
C2273 C 0.87926 0.3838 0.23277 0.0
C2274 C 0.8815 0.36966 0.22322 0.0
C2275 C 0.87204 0.39859 0.26768 0.0
C2276 C 0.86214 0.40518 0.25482 0.0
C2277 C 0.88066 0.40702 0.29018 0.0
C2278 C 0.89215 0.40139 0.30405 0.0
C2279 C 0.90717 0.4015 0.29274 0.0
C2280 C 0.91783 0.39602 0.30588 0.0
C2281 C 0.91371 0.39056 0.33042 0.0
C2282 C 0.89893 0.39061 0.34189 0.0
C2283 C 0.88821 0.39605 0.32882 0.0
H2284 H 0.92198 0.38633 0.34056 0.0
H2285 H 0.82342 0.44452 0.21129 0.0
H2286 H 0.50408 0.83136 0.25796 0.0
H2287 H 0.47278 0.81963 0.2722 0.0
H2288 H 0.46663 0.85544 0.22135 0.0
H2289 H 0.49762 0.86644 0.20616 0.0
H2290 H 0.46004 0.83601 0.29603 0.0
H2291 H 0.42364 0.8419 0.208 0.0
H2292 H 0.42323 0.83644 0.16336 0.0
H2293 H 0.44212 0.79849 0.17606 0.0
H2294 H 0.44241 0.80352 0.2208 0.0
H2295 H 0.39031 0.85612 0.32125 0.0
H2296 H 0.4164 0.85223 0.31192 0.0
H2297 H 0.38086 0.80202 0.27347 0.0
H2298 H 0.35497 0.80658 0.28157 0.0
H2299 H 0.40597 0.82145 0.24475 0.0
H2300 H 0.40672 0.80449 0.32729 0.0
H2301 H 0.40584 0.80587 0.37256 0.0
H2302 H 0.45535 0.85782 0.37211 0.0
H2303 H 0.45641 0.85688 0.32681 0.0
C2304 C 0.49584 0.83634 0.24936 0.0
C2305 C 0.50322 0.84977 0.23092 0.0
C2306 C 0.478 0.82972 0.25763 0.0
C2307 C 0.46725 0.83659 0.24791 0.0
C2308 C 0.47443 0.84957 0.22883 0.0
C2309 C 0.49218 0.85591 0.22016 0.0
C2310 C 0.44923 0.83141 0.25912 0.0
C2311 C 0.44815 0.83264 0.28482 0.0
C2312 C 0.43351 0.82647 0.24468 0.0
C2313 C 0.43316 0.8232 0.21777 0.0
C2314 C 0.4276 0.83231 0.20129 0.0
C2315 C 0.42742 0.82931 0.17596 0.0
C2316 C 0.43269 0.81716 0.16688 0.0
C2317 C 0.4381 0.80794 0.18312 0.0
C2318 C 0.4383 0.81088 0.20846 0.0
C2319 C 0.38798 0.84389 0.3117 0.0
C2320 C 0.3707 0.83165 0.30211 0.0
C2321 C 0.40293 0.84165 0.30631 0.0
C2322 C 0.40069 0.82683 0.29186 0.0
C2323 C 0.38302 0.81366 0.2844 0.0
C2324 C 0.36819 0.81616 0.28924 0.0
C2325 C 0.41689 0.82653 0.28165 0.0
C2326 C 0.41769 0.8244 0.25607 0.0
C2327 C 0.43212 0.82998 0.29632 0.0
C2328 C 0.43158 0.83065 0.3236 0.0
C2329 C 0.41736 0.81627 0.33682 0.0
C2330 C 0.41684 0.81697 0.3625 0.0
C2331 C 0.43051 0.83194 0.3752 0.0
C2332 C 0.44476 0.84623 0.36225 0.0
C2333 C 0.44535 0.8456 0.33657 0.0
H2334 H 0.43009 0.83245 0.39508 0.0
H2335 H 0.43255 0.81487 0.14726 0.0
H2336 H 0.64622 0.52142 0.27315 0.0
H2337 H 0.62069 0.49387 0.29072 0.0
H2338 H 0.5927 0.48172 0.22095 0.0
H2339 H 0.61822 0.50929 0.20313 0.0
H2340 H 0.57105 0.48 0.26126 0.0
H2341 H 0.61238 0.45835 0.23837 0.0
H2342 H 0.64211 0.45949 0.23896 0.0
H2343 H 0.6383 0.45229 0.31738 0.0
H2344 H 0.60867 0.45141 0.31729 0.0
H2345 H 0.5049 0.38939 0.25643 0.0
H2346 H 0.532 0.41907 0.25225 0.0
H2347 H 0.54697 0.41639 0.32737 0.0
H2348 H 0.51942 0.38604 0.33181 0.0
H2349 H 0.57615 0.42774 0.2933 0.0
H2350 H 0.5328 0.44514 0.31561 0.0
H2351 H 0.50329 0.44441 0.31524 0.0
H2352 H 0.511 0.4602 0.23916 0.0
H2353 H 0.54044 0.46076 0.23893 0.0
C2354 C 0.63466 0.51286 0.26148 0.0
C2355 C 0.6342 0.51756 0.23674 0.0
C2356 C 0.62013 0.4971 0.27156 0.0
C2357 C 0.60485 0.4858 0.25713 0.0
C2358 C 0.60439 0.49033 0.23238 0.0
C2359 C 0.619 0.50602 0.2222 0.0
C2360 C 0.58912 0.46941 0.26789 0.0
C2361 C 0.57212 0.46853 0.26815 0.0
C2362 C 0.59077 0.45484 0.27787 0.0
C2363 C 0.60841 0.45502 0.27786 0.0
C2364 C 0.61794 0.45714 0.25576 0.0
C2365 C 0.63476 0.45772 0.256 0.0
C2366 C 0.64211 0.45601 0.2782 0.0
C2367 C 0.63261 0.45364 0.3002 0.0
C2368 C 0.61579 0.45309 0.30007 0.0
C2369 C 0.51383 0.39501 0.27222 0.0
C2370 C 0.50999 0.38529 0.29449 0.0
C2371 C 0.52932 0.41209 0.26979 0.0
C2372 C 0.54138 0.42002 0.28955 0.0
C2373 C 0.53773 0.41048 0.31194 0.0
C2374 C 0.522 0.39324 0.31448 0.0
C2375 C 0.55793 0.43808 0.28588 0.0
C2376 C 0.57512 0.43936 0.28692 0.0
C2377 C 0.55651 0.45311 0.27722 0.0
C2378 C 0.53883 0.45292 0.27724 0.0
C2379 C 0.52816 0.44834 0.29875 0.0
C2380 C 0.51144 0.44798 0.29865 0.0
C2381 C 0.50527 0.45224 0.27719 0.0
C2382 C 0.51581 0.45691 0.25578 0.0
C2383 C 0.53254 0.45729 0.25576 0.0
H2384 H 0.49232 0.45195 0.27715 0.0
H2385 H 0.65516 0.45651 0.27835 0.0
H2386 H 0.11735 0.6447 0.20979 0.0
H2387 H 0.12611 0.62332 0.22652 0.0
H2388 H 0.09055 0.61313 0.28881 0.0
H2389 H 0.08251 0.63517 0.27275 0.0
H2390 H 0.1203 0.61633 0.30494 0.0
H2391 H 0.08001 0.58156 0.23979 0.0
H2392 H 0.06764 0.575 0.19757 0.0
H2393 H 0.11808 0.58085 0.17071 0.0
H2394 H 0.13083 0.58769 0.21273 0.0
H2395 H 0.11912 0.53009 0.33131 0.0
H2396 H 0.11228 0.55485 0.32475 0.0
H2397 H 0.15679 0.58019 0.27304 0.0
H2398 H 0.16372 0.55577 0.27957 0.0
H2399 H 0.12076 0.56805 0.25363 0.0
H2400 H 0.16022 0.60273 0.32123 0.0
H2401 H 0.17051 0.6075 0.36443 0.0
H2402 H 0.11825 0.59885 0.38785 0.0
H2403 H 0.10755 0.59377 0.34478 0.0
C2404 C 0.11126 0.63773 0.2269 0.0
C2405 C 0.09921 0.64154 0.23992 0.0
C2406 C 0.11623 0.62548 0.23645 0.0
C2407 C 0.10882 0.61639 0.25883 0.0
C2408 C 0.09651 0.61998 0.2716 0.0
C2409 C 0.09185 0.6325 0.26232 0.0
C2410 C 0.11417 0.60345 0.26917 0.0
C2411 C 0.12013 0.6056 0.29378 0.0
C2412 C 0.11408 0.58948 0.25469 0.0
C2413 C 0.10642 0.58529 0.22939 0.0
C2414 C 0.0885 0.58157 0.22486 0.0
C2415 C 0.08142 0.57778 0.20096 0.0
C2416 C 0.09208 0.57755 0.18147 0.0
C2417 C 0.10984 0.58106 0.18583 0.0
C2418 C 0.11699 0.58486 0.20969 0.0
C2419 C 0.12793 0.54139 0.31943 0.0
C2420 C 0.1418 0.54095 0.30572 0.0
C2421 C 0.12395 0.55544 0.31558 0.0
C2422 C 0.13389 0.56914 0.29812 0.0
C2423 C 0.1489 0.56965 0.28641 0.0
C2424 C 0.15286 0.55572 0.29025 0.0
C2425 C 0.12716 0.58121 0.28907 0.0
C2426 C 0.12083 0.57876 0.26473 0.0
C2427 C 0.12658 0.59459 0.30394 0.0
C2428 C 0.13302 0.59766 0.32981 0.0
C2429 C 0.15085 0.60166 0.33561 0.0
C2430 C 0.15678 0.60446 0.36007 0.0
C2431 C 0.14502 0.60342 0.37888 0.0
C2432 C 0.12733 0.59962 0.37326 0.0
C2433 C 0.12134 0.59679 0.34883 0.0
H2434 H 0.14964 0.60561 0.3978 0.0
H2435 H 0.08658 0.57463 0.16298 0.0
H2436 H 0.44595 0.83341 0.81775 0.0
H2437 H 0.41917 0.83665 0.81016 0.0
H2438 H 0.45332 0.8953 0.81243 0.0
H2439 H 0.47989 0.89196 0.82135 0.0
H2440 H 0.41976 0.88652 0.82478 0.0
H2441 H 0.44781 0.87196 0.75901 0.0
H2442 H 0.4597 0.85429 0.73771 0.0
H2443 H 0.40603 0.80699 0.73741 0.0
H2444 H 0.39388 0.82433 0.75909 0.0
H2445 H 0.36636 0.88393 0.70519 0.0
H2446 H 0.39093 0.88135 0.72533 0.0
H2447 H 0.36046 0.86636 0.79332 0.0
H2448 H 0.33627 0.86946 0.77362 0.0
H2449 H 0.3933 0.85501 0.74557 0.0
H2450 H 0.38849 0.88232 0.84227 0.0
H2451 H 0.38006 0.90404 0.85978 0.0
H2452 H 0.39331 0.93328 0.79133 0.0
H2453 H 0.40208 0.91193 0.77355 0.0
C2454 C 0.44748 0.84692 0.81807 0.0
C2455 C 0.46483 0.86244 0.82029 0.0
C2456 C 0.43225 0.8488 0.8134 0.0
C2457 C 0.43437 0.86623 0.80989 0.0
C2458 C 0.45137 0.88172 0.8149 0.0
C2459 C 0.46653 0.87982 0.82016 0.0
C2460 C 0.41991 0.86827 0.79724 0.0
C2461 C 0.41385 0.87952 0.80759 0.0
C2462 C 0.41278 0.8598 0.77419 0.0
C2463 C 0.41998 0.84939 0.76088 0.0
C2464 C 0.43857 0.85776 0.75452 0.0
C2465 C 0.44535 0.84781 0.74238 0.0
C2466 C 0.43364 0.82951 0.73626 0.0
C2467 C 0.4151 0.82116 0.74221 0.0
C2468 C 0.40825 0.83104 0.75442 0.0
C2469 C 0.36491 0.88003 0.7244 0.0
C2470 C 0.34946 0.87705 0.73785 0.0
C2471 C 0.37894 0.87857 0.7359 0.0
C2472 C 0.37769 0.87399 0.76097 0.0
C2473 C 0.36196 0.87037 0.77414 0.0
C2474 C 0.34809 0.87205 0.76279 0.0
C2475 C 0.39274 0.87287 0.77341 0.0
C2476 C 0.39903 0.86188 0.76291 0.0
C2477 C 0.40059 0.8822 0.79574 0.0
C2478 C 0.39576 0.89539 0.80651 0.0
C2479 C 0.3897 0.89344 0.831 0.0
C2480 C 0.38484 0.90568 0.84096 0.0
C2481 C 0.38608 0.91999 0.82665 0.0
C2482 C 0.39228 0.92215 0.80238 0.0
C2483 C 0.39719 0.90998 0.79234 0.0
H2484 H 0.38227 0.92942 0.83437 0.0
H2485 H 0.43892 0.82183 0.72686 0.0
H2486 H 0.58718 0.46099 0.82963 0.0
H2487 H 0.55971 0.43127 0.82223 0.0
H2488 H 0.58684 0.42125 0.76208 0.0
H2489 H 0.61417 0.45067 0.76938 0.0
H2490 H 0.55558 0.42325 0.74893 0.0
H2491 H 0.57443 0.39364 0.8081 0.0
H2492 H 0.58439 0.38919 0.84888 0.0
H2493 H 0.53463 0.38152 0.88103 0.0
H2494 H 0.52448 0.38619 0.84047 0.0
H2495 H 0.48111 0.34235 0.70371 0.0
H2496 H 0.51136 0.36397 0.71998 0.0
H2497 H 0.48695 0.36662 0.7885 0.0
H2498 H 0.45687 0.34453 0.77278 0.0
H2499 H 0.51744 0.36756 0.79827 0.0
H2500 H 0.49938 0.39964 0.74259 0.0
H2501 H 0.48875 0.40572 0.70335 0.0
H2502 H 0.53619 0.41109 0.66666 0.0
H2503 H 0.54699 0.4048 0.70565 0.0
C2504 C 0.58751 0.45211 0.81551 0.0
C2505 C 0.60267 0.45823 0.79982 0.0
C2506 C 0.57181 0.43517 0.81126 0.0
C2507 C 0.57123 0.42422 0.79141 0.0
C2508 C 0.587 0.42957 0.77737 0.0
C2509 C 0.6026 0.44638 0.78159 0.0
C2510 C 0.55364 0.40895 0.7826 0.0
C2511 C 0.54738 0.41091 0.75953 0.0
C2512 C 0.5427 0.39325 0.79688 0.0
C2513 C 0.54878 0.39045 0.82128 0.0
C2514 C 0.56569 0.39119 0.8239 0.0
C2515 C 0.57135 0.38858 0.84697 0.0
C2516 C 0.56017 0.38513 0.86754 0.0
C2517 C 0.54328 0.38422 0.86508 0.0
C2518 C 0.53756 0.38683 0.84205 0.0
C2519 C 0.48222 0.34747 0.72229 0.0
C2520 C 0.46659 0.34185 0.73687 0.0
C2521 C 0.49951 0.35985 0.73156 0.0
C2522 C 0.50142 0.36718 0.75535 0.0
C2523 C 0.48586 0.36117 0.77014 0.0
C2524 C 0.46864 0.34859 0.76104 0.0
C2525 C 0.51944 0.38177 0.76441 0.0
C2526 C 0.52572 0.37981 0.78756 0.0
C2527 C 0.53032 0.39773 0.75044 0.0
C2528 C 0.52389 0.40155 0.72697 0.0
C2529 C 0.50748 0.40199 0.72611 0.0
C2530 C 0.50143 0.40549 0.70393 0.0
C2531 C 0.51176 0.40874 0.68251 0.0
C2532 C 0.52819 0.40854 0.68325 0.0
C2533 C 0.53428 0.40502 0.70539 0.0
H2534 H 0.50706 0.41145 0.66535 0.0
H2535 H 0.56457 0.38311 0.88539 0.0
H2536 H 0.09365 0.59254 0.78257 0.0
H2537 H 0.09663 0.56569 0.77621 0.0
H2538 H 0.14006 0.58573 0.82987 0.0
H2539 H 0.13711 0.61302 0.83616 0.0
H2540 H 0.15064 0.57823 0.78726 0.0
H2541 H 0.10018 0.54541 0.83972 0.0
H2542 H 0.06974 0.53464 0.8578 0.0
H2543 H 0.04452 0.51001 0.78895 0.0
H2544 H 0.07481 0.52087 0.7703 0.0
H2545 H 0.15035 0.4931 0.76366 0.0
H2546 H 0.14925 0.51866 0.7832 0.0
H2547 H 0.11349 0.51746 0.72575 0.0
H2548 H 0.11488 0.49213 0.70573 0.0
H2549 H 0.10064 0.51414 0.77756 0.0
H2550 H 0.15242 0.55122 0.72486 0.0
H2551 H 0.1832 0.56176 0.7081 0.0
H2552 H 0.20615 0.57757 0.78051 0.0
H2553 H 0.17543 0.56687 0.79777 0.0
C2554 C 0.10341 0.59091 0.79365 0.0
C2555 C 0.11513 0.60476 0.80988 0.0
C2556 C 0.10508 0.57553 0.79005 0.0
C2557 C 0.11853 0.57362 0.80261 0.0
C2558 C 0.12955 0.58691 0.82005 0.0
C2559 C 0.12775 0.60237 0.82383 0.0
C2560 C 0.12233 0.55899 0.79485 0.0
C2561 C 0.13981 0.56411 0.78576 0.0
C2562 C 0.10814 0.54062 0.7925 0.0
C2563 C 0.08982 0.53406 0.80357 0.0
C2564 C 0.08816 0.53782 0.82836 0.0
C2565 C 0.07092 0.53168 0.83873 0.0
C2566 C 0.05521 0.52167 0.82453 0.0
C2567 C 0.05671 0.51777 0.79993 0.0
C2568 C 0.07391 0.52389 0.78946 0.0
C2569 C 0.1426 0.49858 0.7549 0.0
C2570 C 0.1327 0.49068 0.73318 0.0
C2571 C 0.14197 0.51313 0.7661 0.0
C2572 C 0.1312 0.5198 0.75597 0.0
C2573 C 0.12185 0.51242 0.7338 0.0
C2574 C 0.12278 0.49809 0.7223 0.0
C2575 C 0.12869 0.5336 0.76939 0.0
C2576 C 0.11148 0.52822 0.77954 0.0
C2577 C 0.14315 0.55163 0.773 0.0
C2578 C 0.1616 0.55802 0.76265 0.0
C2579 C 0.164 0.55675 0.73725 0.0
C2580 C 0.18144 0.5628 0.72765 0.0
C2581 C 0.19662 0.57027 0.74324 0.0
C2582 C 0.19438 0.57175 0.76847 0.0
C2583 C 0.17696 0.5657 0.77816 0.0
H2584 H 0.21011 0.57495 0.73577 0.0
H2585 H 0.04188 0.51692 0.83259 0.0
H2586 H 0.61001 0.07654 0.75612 0.0
H2587 H 0.58799 0.08353 0.7749 0.0
H2588 H 0.60673 0.1306 0.72779 0.0
H2589 H 0.62892 0.12363 0.70876 0.0
H2590 H 0.60636 0.13832 0.77807 0.0
H2591 H 0.56589 0.09506 0.71823 0.0
H2592 H 0.55058 0.06562 0.69621 0.0
H2593 H 0.52688 0.03764 0.76398 0.0
H2594 H 0.54226 0.06691 0.78648 0.0
H2595 H 0.53659 0.16009 0.78932 0.0
H2596 H 0.56125 0.15379 0.78179 0.0
H2597 H 0.53387 0.10529 0.82663 0.0
H2598 H 0.50883 0.11149 0.8339 0.0
H2599 H 0.53926 0.09714 0.78162 0.0
H2600 H 0.57731 0.14047 0.8412 0.0
H2601 H 0.59247 0.16976 0.86356 0.0
H2602 H 0.62073 0.19748 0.79766 0.0
H2603 H 0.60555 0.1684 0.77478 0.0
C2604 C 0.60921 0.08819 0.74939 0.0
C2605 C 0.6212 0.09957 0.731 0.0
C2606 C 0.59662 0.09215 0.76016 0.0
C2607 C 0.59581 0.10762 0.75281 0.0
C2608 C 0.60723 0.11863 0.73375 0.0
C2609 C 0.61975 0.11454 0.72274 0.0
C2610 C 0.5837 0.11274 0.76601 0.0
C2611 C 0.59165 0.12946 0.77863 0.0
C2612 C 0.56464 0.10078 0.76757 0.0
C2613 C 0.5554 0.08316 0.75408 0.0
C2614 C 0.55756 0.08261 0.72848 0.0
C2615 C 0.54883 0.06596 0.7159 0.0
C2616 C 0.5378 0.04976 0.7287 0.0
C2617 C 0.53544 0.05019 0.7541 0.0
C2618 C 0.54415 0.06681 0.76677 0.0
C2619 C 0.53619 0.1485 0.79843 0.0
C2620 C 0.52076 0.13619 0.81202 0.0
C2621 C 0.55035 0.14491 0.79415 0.0
C2622 C 0.54939 0.129 0.80351 0.0
C2623 C 0.53485 0.11763 0.81917 0.0
C2624 C 0.52064 0.12127 0.82355 0.0
C2625 C 0.56184 0.12292 0.79352 0.0
C2626 C 0.55398 0.10598 0.78142 0.0
C2627 C 0.58099 0.13467 0.79255 0.0
C2628 C 0.59019 0.15223 0.80622 0.0
C2629 C 0.58665 0.15282 0.83141 0.0
C2630 C 0.59527 0.16939 0.84419 0.0
C2631 C 0.60753 0.18547 0.83203 0.0
C2632 C 0.61123 0.18501 0.80706 0.0
C2633 C 0.60264 0.16848 0.79418 0.0
H2634 H 0.61419 0.19828 0.84196 0.0
H2635 H 0.53105 0.03688 0.71893 0.0
H2636 H 0.3801 0.552 0.78876 0.0
H2637 H 0.40829 0.58096 0.78306 0.0
H2638 H 0.43529 0.56475 0.83622 0.0
H2639 H 0.40696 0.53552 0.84202 0.0
H2640 H 0.44652 0.60936 0.82405 0.0
H2641 H 0.44315 0.55156 0.79427 0.0
H2642 H 0.4243 0.52075 0.77659 0.0
H2643 H 0.41001 0.54355 0.71574 0.0
H2644 H 0.42855 0.57446 0.73335 0.0
H2645 H 0.53601 0.6547 0.77407 0.0
H2646 H 0.50747 0.63371 0.79447 0.0
H2647 H 0.47863 0.62413 0.72562 0.0
H2648 H 0.50738 0.64486 0.7048 0.0
H2649 H 0.46805 0.59316 0.74812 0.0
H2650 H 0.47587 0.65096 0.77203 0.0
H2651 H 0.49225 0.68221 0.78888 0.0
H2652 H 0.49614 0.66124 0.85918 0.0
H2653 H 0.48005 0.62986 0.84264 0.0
C2654 C 0.39178 0.55498 0.80018 0.0
C2655 C 0.3915 0.54148 0.81554 0.0
C2656 C 0.40785 0.57156 0.79696 0.0
C2657 C 0.42384 0.57483 0.80902 0.0
C2658 C 0.42299 0.56244 0.8269 0.0
C2659 C 0.40681 0.54577 0.83021 0.0
C2660 C 0.44153 0.58817 0.79808 0.0
C2661 C 0.45151 0.60584 0.80775 0.0
C2662 C 0.44754 0.58364 0.77632 0.0
C2663 C 0.43711 0.56523 0.76516 0.0
C2664 C 0.43594 0.54997 0.77716 0.0
C2665 C 0.42531 0.5325 0.76718 0.0
C2666 C 0.41594 0.53019 0.74508 0.0
C2667 C 0.41726 0.54536 0.73286 0.0
C2668 C 0.42783 0.56285 0.74282 0.0
C2669 C 0.5236 0.64819 0.76319 0.0
C2670 C 0.52397 0.65148 0.73775 0.0
C2671 C 0.50726 0.63626 0.77499 0.0
C2672 C 0.49085 0.62757 0.7617 0.0
C2673 C 0.49114 0.63076 0.73627 0.0
C2674 C 0.50756 0.6426 0.72437 0.0
C2675 C 0.47354 0.61457 0.7742 0.0
C2676 C 0.4634 0.59684 0.76462 0.0
C2677 C 0.46742 0.61922 0.79592 0.0
C2678 C 0.4769 0.63806 0.80602 0.0
C2679 C 0.48034 0.65301 0.79104 0.0
C2680 C 0.48956 0.67075 0.80054 0.0
C2681 C 0.49528 0.67371 0.82507 0.0
C2682 C 0.49173 0.65893 0.84017 0.0
C2683 C 0.48255 0.64115 0.83075 0.0
H2684 H 0.50242 0.68746 0.83238 0.0
H2685 H 0.40767 0.51666 0.73741 0.0
H2686 H 0.86901 0.38283 0.82452 0.0
H2687 H 0.86784 0.41036 0.81413 0.0
H2688 H 0.82967 0.38127 0.75566 0.0
H2689 H 0.83099 0.35383 0.76572 0.0
H2690 H 0.85873 0.4108 0.73845 0.0
H2691 H 0.81727 0.39792 0.80499 0.0
H2692 H 0.80577 0.39007 0.84751 0.0
H2693 H 0.85244 0.439 0.87399 0.0
H2694 H 0.86437 0.44703 0.83167 0.0
H2695 H 0.85635 0.49196 0.70388 0.0
H2696 H 0.84823 0.46073 0.71553 0.0
H2697 H 0.88418 0.48177 0.77829 0.0
H2698 H 0.892 0.51271 0.76711 0.0
H2699 H 0.85197 0.45459 0.79193 0.0
H2700 H 0.89503 0.46538 0.72648 0.0
H2701 H 0.90709 0.47318 0.68419 0.0
H2702 H 0.85767 0.42799 0.65604 0.0
H2703 H 0.84522 0.42005 0.69817 0.0
C2704 C 0.85987 0.38212 0.81004 0.0
C2705 C 0.85026 0.36625 0.79575 0.0
C2706 C 0.85923 0.39789 0.80407 0.0
C2707 C 0.84877 0.39791 0.78395 0.0
C2708 C 0.83795 0.38161 0.77109 0.0
C2709 C 0.83866 0.36591 0.77695 0.0
C2710 C 0.85094 0.41533 0.77443 0.0
C2711 C 0.85686 0.42021 0.75001 0.0
C2712 C 0.84892 0.42777 0.78964 0.0
C2713 C 0.84178 0.42301 0.81515 0.0
C2714 C 0.82516 0.40694 0.8199 0.0
C2715 C 0.81855 0.40247 0.84396 0.0
C2716 C 0.82838 0.41401 0.86344 0.0
C2717 C 0.84484 0.43007 0.85889 0.0
C2718 C 0.85152 0.4346 0.83485 0.0
C2719 C 0.86273 0.48989 0.7199 0.0
C2720 C 0.87474 0.50475 0.73463 0.0
C2721 C 0.85805 0.47207 0.72659 0.0
C2722 C 0.86553 0.46892 0.74789 0.0
C2723 C 0.87807 0.48384 0.76198 0.0
C2724 C 0.88261 0.50154 0.75545 0.0
C2725 C 0.8601 0.45016 0.75614 0.0
C2726 C 0.85357 0.44504 0.7803 0.0
C2727 C 0.86163 0.43751 0.74074 0.0
C2728 C 0.86911 0.44226 0.71543 0.0
C2729 C 0.88667 0.4572 0.71125 0.0
C2730 C 0.89359 0.46163 0.68732 0.0
C2731 C 0.88313 0.45113 0.66743 0.0
C2732 C 0.86574 0.43614 0.67145 0.0
C2733 C 0.85875 0.43166 0.69535 0.0
H2734 H 0.88851 0.45457 0.64892 0.0
H2735 H 0.82324 0.41052 0.88206 0.0
loop_
_geom_bond_atom_site_label_1
_geom_bond_atom_site_label_2
_geom_bond_distance
_geom_bond_site_symmetry_2
_ccdc_geom_bond_type
Zn0 O3 2.031 . S
Zn0 O5 2.049 . S
Zn0 O10 2.067 . S
Zn1 O2 1.962 . S
Zn1 O4 1.986 . S
Zn1 O6 1.996 . S
Zn1 O9 1.943 . S
O2 Zn1 1.962 . S
O2 C7 1.254 . S
O3 Zn0 2.031 . S
O3 C7 1.269 . S
O4 Zn1 1.986 . S
O4 C11 1.262 . S
O5 Zn0 2.049 . S
O5 C13 1.260 . S
O6 Zn1 1.996 . S
O6 C13 1.257 . S
C7 O2 1.254 . S
C7 O3 1.269 . S
C8 O9 1.249 . S
C8 O10 1.270 . S
O9 Zn1 1.943 . S
O9 C8 1.249 . S
O10 Zn0 2.067 . S
O10 C8 1.270 . S
C11 O4 1.262 . S
C11 O12 1.232 . S
O12 C11 1.232 . S
C13 O5 1.260 . S
C13 O6 1.257 . S
Zn14 O17 2.031 . S
Zn14 O19 2.049 . S
Zn14 O24 2.067 . S
Zn15 O16 1.962 . S
Zn15 O18 1.986 . S
Zn15 O20 1.996 . S
Zn15 O23 1.943 . S
O16 Zn15 1.962 . S
O16 C21 1.254 . S
O17 Zn14 2.031 . S
O17 C21 1.269 . S
O18 Zn15 1.986 . S
O18 C25 1.262 . S
O19 Zn14 2.049 . S
O19 C27 1.260 . S
O20 Zn15 1.996 . S
O20 C27 1.257 . S
C21 O16 1.254 . S
C21 O17 1.269 . S
C22 O23 1.249 . S
C22 O24 1.270 . S
O23 Zn15 1.943 . S
O23 C22 1.249 . S
O24 Zn14 2.067 . S
O24 C22 1.270 . S
C25 O18 1.262 . S
C25 O26 1.232 . S
O26 C25 1.232 . S
C27 O19 1.260 . S
C27 O20 1.257 . S
Zn28 O31 2.031 . S
Zn28 O33 2.049 . S
Zn28 O38 2.067 . S
Zn29 O30 1.962 . S
Zn29 O32 1.986 . S
Zn29 O34 1.996 . S
Zn29 O37 1.943 . S
O30 Zn29 1.962 . S
O30 C35 1.254 . S
O31 Zn28 2.031 . S
O31 C35 1.269 . S
O32 Zn29 1.986 . S
O32 C39 1.262 . S
O33 Zn28 2.049 . S
O33 C41 1.260 . S
O34 Zn29 1.996 . S
O34 C41 1.257 . S
C35 O30 1.254 . S
C35 O31 1.269 . S
C36 O37 1.249 . S
C36 O38 1.270 . S
O37 Zn29 1.943 . S
O37 C36 1.249 . S
O38 Zn28 2.067 . S
O38 C36 1.270 . S
C39 O32 1.262 . S
C39 O40 1.232 . S
O40 C39 1.232 . S
C41 O33 1.260 . S
C41 O34 1.257 . S
Zn42 O45 2.031 . S
Zn42 O47 2.049 . S
Zn42 O52 2.067 . S
Zn43 O44 1.962 . S
Zn43 O46 1.986 . S
Zn43 O48 1.996 . S
Zn43 O51 1.943 . S
O44 Zn43 1.962 . S
O44 C49 1.254 . S
O45 Zn42 2.031 . S
O45 C49 1.269 . S
O46 Zn43 1.986 . S
O46 C53 1.262 . S
O47 Zn42 2.049 . S
O47 C55 1.260 . S
O48 Zn43 1.996 . S
O48 C55 1.257 . S
C49 O44 1.254 . S
C49 O45 1.269 . S
C50 O51 1.249 . S
C50 O52 1.270 . S
O51 Zn43 1.943 . S
O51 C50 1.249 . S
O52 Zn42 2.067 . S
O52 C50 1.270 . S
C53 O46 1.262 . S
C53 O54 1.232 . S
O54 C53 1.232 . S
C55 O47 1.260 . S
C55 O48 1.257 . S
Zn56 O59 2.031 . S
Zn56 O61 2.049 . S
Zn56 O66 2.067 . S
Zn57 O58 1.962 . S
Zn57 O60 1.986 . S
Zn57 O62 1.996 . S
Zn57 O65 1.943 . S
O58 Zn57 1.962 . S
O58 C63 1.254 . S
O59 Zn56 2.031 . S
O59 C63 1.269 . S
O60 Zn57 1.986 . S
O60 C67 1.262 . S
O61 Zn56 2.049 . S
O61 C69 1.260 . S
O62 Zn57 1.996 . S
O62 C69 1.257 . S
C63 O58 1.254 . S
C63 O59 1.269 . S
C64 O65 1.249 . S
C64 O66 1.270 . S
O65 Zn57 1.943 . S
O65 C64 1.249 . S
O66 Zn56 2.067 . S
O66 C64 1.270 . S
C67 O60 1.262 . S
C67 O68 1.232 . S
O68 C67 1.232 . S
C69 O61 1.260 . S
C69 O62 1.257 . S
Zn70 O73 2.031 . S
Zn70 O75 2.049 . S
Zn70 O80 2.067 . S
Zn71 O72 1.962 . S
Zn71 O74 1.986 . S
Zn71 O76 1.996 . S
Zn71 O79 1.943 . S
O72 Zn71 1.962 . S
O72 C77 1.254 . S
O73 Zn70 2.031 . S
O73 C77 1.269 . S
O74 Zn71 1.986 . S
O74 C81 1.262 . S
O75 Zn70 2.049 . S
O75 C83 1.260 . S
O76 Zn71 1.996 . S
O76 C83 1.257 . S
C77 O72 1.254 . S
C77 O73 1.269 . S
C78 O79 1.249 . S
C78 O80 1.270 . S
O79 Zn71 1.943 . S
O79 C78 1.249 . S
O80 Zn70 2.067 . S
O80 C78 1.270 . S
C81 O74 1.262 . S
C81 O82 1.232 . S
O82 C81 1.232 . S
C83 O75 1.260 . S
C83 O76 1.257 . S
Zn84 O87 2.031 . S
Zn84 O89 2.049 . S
Zn84 O94 2.067 . S
Zn85 O86 1.962 . S
Zn85 O88 1.986 . S
Zn85 O90 1.996 . S
Zn85 O93 1.943 . S
O86 Zn85 1.962 . S
O86 C91 1.254 . S
O87 Zn84 2.031 . S
O87 C91 1.269 . S
O88 Zn85 1.986 . S
O88 C95 1.262 . S
O89 Zn84 2.049 . S
O89 C97 1.260 . S
O90 Zn85 1.996 . S
O90 C97 1.257 . S
C91 O86 1.254 . S
C91 O87 1.269 . S
C92 O93 1.249 . S
C92 O94 1.270 . S
O93 Zn85 1.943 . S
O93 C92 1.249 . S
O94 Zn84 2.067 . S
O94 C92 1.270 . S
C95 O88 1.262 . S
C95 O96 1.232 . S
O96 C95 1.232 . S
C97 O89 1.260 . S
C97 O90 1.257 . S
Zn98 O101 2.031 . S
Zn98 O103 2.049 . S
Zn98 O108 2.067 . S
Zn99 O100 1.962 . S
Zn99 O102 1.986 . S
Zn99 O104 1.996 . S
Zn99 O107 1.943 . S
O100 Zn99 1.962 . S
O100 C105 1.254 . S
O101 Zn98 2.031 . S
O101 C105 1.269 . S
O102 Zn99 1.986 . S
O102 C109 1.262 . S
O103 Zn98 2.049 . S
O103 C111 1.260 . S
O104 Zn99 1.996 . S
O104 C111 1.257 . S
C105 O100 1.254 . S
C105 O101 1.269 . S
C106 O107 1.249 . S
C106 O108 1.270 . S
O107 Zn99 1.943 . S
O107 C106 1.249 . S
O108 Zn98 2.067 . S
O108 C106 1.270 . S
C109 O102 1.262 . S
C109 O110 1.232 . S
O110 C109 1.232 . S
C111 O103 1.260 . S
C111 O104 1.257 . S
Zn112 O115 2.031 . S
Zn112 O117 2.049 . S
Zn112 O122 2.067 . S
Zn113 O114 1.962 . S
Zn113 O116 1.986 . S
Zn113 O118 1.996 . S
Zn113 O121 1.943 . S
O114 Zn113 1.962 . S
O114 C119 1.254 . S
O115 Zn112 2.031 . S
O115 C119 1.269 . S
O116 Zn113 1.986 . S
O116 C123 1.262 . S
O117 Zn112 2.049 . S
O117 C125 1.260 . S
O118 Zn113 1.996 . S
O118 C125 1.257 . S
C119 O114 1.254 . S
C119 O115 1.269 . S
C120 O121 1.249 . S
C120 O122 1.270 . S
O121 Zn113 1.943 . S
O121 C120 1.249 . S
O122 Zn112 2.067 . S
O122 C120 1.270 . S
C123 O116 1.262 . S
C123 O124 1.232 . S
O124 C123 1.232 . S
C125 O117 1.260 . S
C125 O118 1.257 . S
Zn126 O129 2.031 . S
Zn126 O131 2.049 . S
Zn126 O136 2.067 . S
Zn127 O128 1.962 . S
Zn127 O130 1.986 . S
Zn127 O132 1.996 . S
Zn127 O135 1.943 . S
O128 Zn127 1.962 . S
O128 C133 1.254 . S
O129 Zn126 2.031 . S
O129 C133 1.269 . S
O130 Zn127 1.986 . S
O130 C137 1.262 . S
O131 Zn126 2.049 . S
O131 C139 1.260 . S
O132 Zn127 1.996 . S
O132 C139 1.257 . S
C133 O128 1.254 . S
C133 O129 1.269 . S
C134 O135 1.249 . S
C134 O136 1.270 . S
O135 Zn127 1.943 . S
O135 C134 1.249 . S
O136 Zn126 2.067 . S
O136 C134 1.270 . S
C137 O130 1.262 . S
C137 O138 1.232 . S
O138 C137 1.232 . S
C139 O131 1.260 . S
C139 O132 1.257 . S
Zn140 O143 2.031 . S
Zn140 O145 2.049 . S
Zn140 O150 2.067 . S
Zn141 O142 1.962 . S
Zn141 O144 1.986 . S
Zn141 O146 1.996 . S
Zn141 O149 1.943 . S
O142 Zn141 1.962 . S
O142 C147 1.254 . S
O143 Zn140 2.031 . S
O143 C147 1.269 . S
O144 Zn141 1.986 . S
O144 C151 1.262 . S
O145 Zn140 2.049 . S
O145 C153 1.260 . S
O146 Zn141 1.996 . S
O146 C153 1.257 . S
C147 O142 1.254 . S
C147 O143 1.269 . S
C148 O149 1.249 . S
C148 O150 1.270 . S
O149 Zn141 1.943 . S
O149 C148 1.249 . S
O150 Zn140 2.067 . S
O150 C148 1.270 . S
C151 O144 1.262 . S
C151 O152 1.232 . S
O152 C151 1.232 . S
C153 O145 1.260 . S
C153 O146 1.257 . S
Zn154 O157 2.031 . S
Zn154 O159 2.049 . S
Zn154 O164 2.067 . S
Zn155 O156 1.962 . S
Zn155 O158 1.986 . S
Zn155 O160 1.996 . S
Zn155 O163 1.943 . S
O156 Zn155 1.962 . S
O156 C161 1.254 . S
O157 Zn154 2.031 . S
O157 C161 1.269 . S
O158 Zn155 1.986 . S
O158 C165 1.262 . S
O159 Zn154 2.049 . S
O159 C167 1.260 . S
O160 Zn155 1.996 . S
O160 C167 1.257 . S
C161 O156 1.254 . S
C161 O157 1.269 . S
C162 O163 1.249 . S
C162 O164 1.270 . S
O163 Zn155 1.943 . S
O163 C162 1.249 . S
O164 Zn154 2.067 . S
O164 C162 1.270 . S
C165 O158 1.262 . S
C165 O166 1.232 . S
O166 C165 1.232 . S
C167 O159 1.260 . S
C167 O160 1.257 . S
Zn168 O171 2.031 . S
Zn168 O173 2.049 . S
Zn168 O178 2.067 . S
Zn169 O170 1.962 . S
Zn169 O172 1.986 . S
Zn169 O174 1.996 . S
Zn169 O177 1.943 . S
O170 Zn169 1.962 . S
O170 C175 1.254 . S
O171 Zn168 2.031 . S
O171 C175 1.269 . S
O172 Zn169 1.986 . S
O172 C179 1.262 . S
O173 Zn168 2.049 . S
O173 C181 1.260 . S
O174 Zn169 1.996 . S
O174 C181 1.257 . S
C175 O170 1.254 . S
C175 O171 1.269 . S
C176 O177 1.249 . S
C176 O178 1.270 . S
O177 Zn169 1.943 . S
O177 C176 1.249 . S
O178 Zn168 2.067 . S
O178 C176 1.270 . S
C179 O172 1.262 . S
C179 O180 1.232 . S
O180 C179 1.232 . S
C181 O173 1.260 . S
C181 O174 1.257 . S
Zn182 O185 2.031 . S
Zn182 O187 2.049 . S
Zn182 O192 2.067 . S
Zn183 O184 1.962 . S
Zn183 O186 1.986 . S
Zn183 O188 1.996 . S
Zn183 O191 1.943 . S
O184 Zn183 1.962 . S
O184 C189 1.254 . S
O185 Zn182 2.031 . S
O185 C189 1.269 . S
O186 Zn183 1.986 . S
O186 C193 1.262 . S
O187 Zn182 2.049 . S
O187 C195 1.260 . S
O188 Zn183 1.996 . S
O188 C195 1.257 . S
C189 O184 1.254 . S
C189 O185 1.269 . S
C190 O191 1.249 . S
C190 O192 1.270 . S
O191 Zn183 1.943 . S
O191 C190 1.249 . S
O192 Zn182 2.067 . S
O192 C190 1.270 . S
C193 O186 1.262 . S
C193 O194 1.232 . S
O194 C193 1.232 . S
C195 O187 1.260 . S
C195 O188 1.257 . S
Zn196 O199 2.031 . S
Zn196 O201 2.049 . S
Zn196 O206 2.067 . S
Zn197 O198 1.962 . S
Zn197 O200 1.986 . S
Zn197 O202 1.996 . S
Zn197 O205 1.943 . S
O198 Zn197 1.962 . S
O198 C203 1.254 . S
O199 Zn196 2.031 . S
O199 C203 1.269 . S
O200 Zn197 1.986 . S
O200 C207 1.262 . S
O201 Zn196 2.049 . S
O201 C209 1.260 . S
O202 Zn197 1.996 . S
O202 C209 1.257 . S
C203 O198 1.254 . S
C203 O199 1.269 . S
C204 O205 1.249 . S
C204 O206 1.270 . S
O205 Zn197 1.943 . S
O205 C204 1.249 . S
O206 Zn196 2.067 . S
O206 C204 1.270 . S
C207 O200 1.262 . S
C207 O208 1.232 . S
O208 C207 1.232 . S
C209 O201 1.260 . S
C209 O202 1.257 . S
Zn210 O213 2.031 . S
Zn210 O215 2.049 . S
Zn210 O220 2.067 . S
Zn211 O212 1.962 . S
Zn211 O214 1.986 . S
Zn211 O216 1.996 . S
Zn211 O219 1.943 . S
O212 Zn211 1.962 . S
O212 C217 1.254 . S
O213 Zn210 2.031 . S
O213 C217 1.269 . S
O214 Zn211 1.986 . S
O214 C221 1.262 . S
O215 Zn210 2.049 . S
O215 C223 1.260 . S
O216 Zn211 1.996 . S
O216 C223 1.257 . S
C217 O212 1.254 . S
C217 O213 1.269 . S
C218 O219 1.249 . S
C218 O220 1.270 . S
O219 Zn211 1.943 . S
O219 C218 1.249 . S
O220 Zn210 2.067 . S
O220 C218 1.270 . S
C221 O214 1.262 . S
C221 O222 1.232 . S
O222 C221 1.232 . S
C223 O215 1.260 . S
C223 O216 1.257 . S
Zn224 O227 2.031 . S
Zn224 O229 2.049 . S
Zn224 O234 2.067 . S
Zn225 O226 1.962 . S
Zn225 O228 1.986 . S
Zn225 O230 1.996 . S
Zn225 O233 1.943 . S
O226 Zn225 1.962 . S
O226 C231 1.254 . S
O227 Zn224 2.031 . S
O227 C231 1.269 . S
O228 Zn225 1.986 . S
O228 C235 1.262 . S
O229 Zn224 2.049 . S
O229 C237 1.260 . S
O230 Zn225 1.996 . S
O230 C237 1.257 . S
C231 O226 1.254 . S
C231 O227 1.269 . S
C232 O233 1.249 . S
C232 O234 1.270 . S
O233 Zn225 1.943 . S
O233 C232 1.249 . S
O234 Zn224 2.067 . S
O234 C232 1.270 . S
C235 O228 1.262 . S
C235 O236 1.232 . S
O236 C235 1.232 . S
C237 O229 1.260 . S
C237 O230 1.257 . S
Zn238 O241 2.031 . S
Zn238 O243 2.049 . S
Zn238 O248 2.067 . S
Zn239 O240 1.962 . S
Zn239 O242 1.986 . S
Zn239 O244 1.996 . S
Zn239 O247 1.943 . S
O240 Zn239 1.962 . S
O240 C245 1.254 . S
O241 Zn238 2.031 . S
O241 C245 1.269 . S
O242 Zn239 1.986 . S
O242 C249 1.262 . S
O243 Zn238 2.049 . S
O243 C251 1.260 . S
O244 Zn239 1.996 . S
O244 C251 1.257 . S
C245 O240 1.254 . S
C245 O241 1.269 . S
C246 O247 1.249 . S
C246 O248 1.270 . S
O247 Zn239 1.943 . S
O247 C246 1.249 . S
O248 Zn238 2.067 . S
O248 C246 1.270 . S
C249 O242 1.262 . S
C249 O250 1.232 . S
O250 C249 1.232 . S
C251 O243 1.260 . S
C251 O244 1.257 . S
Zn252 O255 2.031 . S
Zn252 O257 2.049 . S
Zn252 O262 2.067 . S
Zn253 O254 1.962 . S
Zn253 O256 1.986 . S
Zn253 O258 1.996 . S
Zn253 O261 1.943 . S
O254 Zn253 1.962 . S
O254 C259 1.254 . S
O255 Zn252 2.031 . S
O255 C259 1.269 . S
O256 Zn253 1.986 . S
O256 C263 1.262 . S
O257 Zn252 2.049 . S
O257 C265 1.260 . S
O258 Zn253 1.996 . S
O258 C265 1.257 . S
C259 O254 1.254 . S
C259 O255 1.269 . S
C260 O261 1.249 . S
C260 O262 1.270 . S
O261 Zn253 1.943 . S
O261 C260 1.249 . S
O262 Zn252 2.067 . S
O262 C260 1.270 . S
C263 O256 1.262 . S
C263 O264 1.232 . S
O264 C263 1.232 . S
C265 O257 1.260 . S
C265 O258 1.257 . S
Zn266 O269 2.031 . S
Zn266 O271 2.049 . S
Zn266 O276 2.067 . S
Zn267 O268 1.962 . S
Zn267 O270 1.986 . S
Zn267 O272 1.996 . S
Zn267 O275 1.943 . S
O268 Zn267 1.962 . S
O268 C273 1.254 . S
O269 Zn266 2.031 . S
O269 C273 1.269 . S
O270 Zn267 1.986 . S
O270 C277 1.262 . S
O271 Zn266 2.049 . S
O271 C279 1.260 . S
O272 Zn267 1.996 . S
O272 C279 1.257 . S
C273 O268 1.254 . S
C273 O269 1.269 . S
C274 O275 1.249 . S
C274 O276 1.270 . S
O275 Zn267 1.943 . S
O275 C274 1.249 . S
O276 Zn266 2.067 . S
O276 C274 1.270 . S
C277 O270 1.262 . S
C277 O278 1.232 . S
O278 C277 1.232 . S
C279 O271 1.260 . S
C279 O272 1.257 . S
Zn280 O283 2.031 . S
Zn280 O285 2.049 . S
Zn280 O290 2.067 . S
Zn281 O282 1.962 . S
Zn281 O284 1.986 . S
Zn281 O286 1.996 . S
Zn281 O289 1.943 . S
O282 Zn281 1.962 . S
O282 C287 1.254 . S
O283 Zn280 2.031 . S
O283 C287 1.269 . S
O284 Zn281 1.986 . S
O284 C291 1.262 . S
O285 Zn280 2.049 . S
O285 C293 1.260 . S
O286 Zn281 1.996 . S
O286 C293 1.257 . S
C287 O282 1.254 . S
C287 O283 1.269 . S
C288 O289 1.249 . S
C288 O290 1.270 . S
O289 Zn281 1.943 . S
O289 C288 1.249 . S
O290 Zn280 2.067 . S
O290 C288 1.270 . S
C291 O284 1.262 . S
C291 O292 1.232 . S
O292 C291 1.232 . S
C293 O285 1.260 . S
C293 O286 1.257 . S
Zn294 O297 2.031 . S
Zn294 O299 2.049 . S
Zn294 O304 2.067 . S
Zn295 O296 1.962 . S
Zn295 O298 1.986 . S
Zn295 O300 1.996 . S
Zn295 O303 1.943 . S
O296 Zn295 1.962 . S
O296 C301 1.254 . S
O297 Zn294 2.031 . S
O297 C301 1.269 . S
O298 Zn295 1.986 . S
O298 C305 1.262 . S
O299 Zn294 2.049 . S
O299 C307 1.260 . S
O300 Zn295 1.996 . S
O300 C307 1.257 . S
C301 O296 1.254 . S
C301 O297 1.269 . S
C302 O303 1.249 . S
C302 O304 1.270 . S
O303 Zn295 1.943 . S
O303 C302 1.249 . S
O304 Zn294 2.067 . S
O304 C302 1.270 . S
C305 O298 1.262 . S
C305 O306 1.232 . S
O306 C305 1.232 . S
C307 O299 1.260 . S
C307 O300 1.257 . S
Zn308 O311 2.031 . S
Zn308 O313 2.049 . S
Zn308 O318 2.067 . S
Zn309 O310 1.962 . S
Zn309 O312 1.986 . S
Zn309 O314 1.996 . S
Zn309 O317 1.943 . S
O310 Zn309 1.962 . S
O310 C315 1.254 . S
O311 Zn308 2.031 . S
O311 C315 1.269 . S
O312 Zn309 1.986 . S
O312 C319 1.262 . S
O313 Zn308 2.049 . S
O313 C321 1.260 . S
O314 Zn309 1.996 . S
O314 C321 1.257 . S
C315 O310 1.254 . S
C315 O311 1.269 . S
C316 O317 1.249 . S
C316 O318 1.270 . S
O317 Zn309 1.943 . S
O317 C316 1.249 . S
O318 Zn308 2.067 . S
O318 C316 1.270 . S
C319 O312 1.262 . S
C319 O320 1.232 . S
O320 C319 1.232 . S
C321 O313 1.260 . S
C321 O314 1.257 . S
Zn322 O325 2.031 . S
Zn322 O327 2.049 . S
Zn322 O332 2.067 . S
Zn323 O324 1.962 . S
Zn323 O326 1.986 . S
Zn323 O328 1.996 . S
Zn323 O331 1.943 . S
O324 Zn323 1.962 . S
O324 C329 1.254 . S
O325 Zn322 2.031 . S
O325 C329 1.269 . S
O326 Zn323 1.986 . S
O326 C333 1.262 . S
O327 Zn322 2.049 . S
O327 C335 1.260 . S
O328 Zn323 1.996 . S
O328 C335 1.257 . S
C329 O324 1.254 . S
C329 O325 1.269 . S
C330 O331 1.249 . S
C330 O332 1.270 . S
O331 Zn323 1.943 . S
O331 C330 1.249 . S
O332 Zn322 2.067 . S
O332 C330 1.270 . S
C333 O326 1.262 . S
C333 O334 1.232 . S
O334 C333 1.232 . S
C335 O327 1.260 . S
C335 O328 1.257 . S
H336 C354 0.951 . S
H337 C356 0.951 . S
H338 C358 0.950 . S
H339 C359 0.950 . S
H340 C361 0.950 . S
H341 C364 0.950 . S
H342 C365 0.950 . S
H343 C367 0.950 . S
H344 C368 0.950 . S
H345 C369 0.951 . S
H346 C371 0.951 . S
H347 C373 0.950 . S
H348 C374 0.950 . S
H349 C376 0.950 . S
H350 C379 0.950 . S
H351 C380 0.950 . S
H352 C382 0.950 . S
H353 C383 0.950 . S
C354 H336 0.951 . S
C354 C355 1.366 . S
C354 C356 1.388 . S
C355 C354 1.366 . S
C355 C359 1.385 . S
C356 H337 0.951 . S
C356 C354 1.388 . S
C356 C357 1.366 . S
C357 C356 1.366 . S
C357 C358 1.414 . S
C357 C360 1.499 . S
C358 H338 0.950 . S
C358 C357 1.414 . S
C358 C359 1.374 . S
C359 H339 0.950 . S
C359 C355 1.385 . S
C359 C358 1.374 . S
C360 C357 1.499 . S
C360 C361 1.373 . S
C360 C362 1.389 . S
C361 H340 0.950 . S
C361 C360 1.373 . S
C361 C377 1.377 1_545 S
C362 C360 1.389 . S
C362 C363 1.524 . S
C362 C376 1.377 1_545 S
C363 C362 1.524 . S
C363 C364 1.397 . S
C363 C368 1.363 1_545 S
C364 H341 0.950 . S
C364 C363 1.397 . S
C364 C365 1.334 . S
C365 H342 0.950 . S
C365 C364 1.334 . S
C365 C366 1.287 . S
C366 C365 1.287 . S
C366 C367 1.524 1_545 S
C366 H385 0.913 . S
C367 H343 0.950 . S
C367 C366 1.524 1_565 S
C367 C368 1.415 . S
C368 H344 0.950 . S
C368 C363 1.363 1_565 S
C368 C367 1.415 . S
C369 H345 0.951 . S
C369 C370 1.366 . S
C369 C371 1.388 . S
C370 C369 1.366 . S
C370 C374 1.385 . S
C371 H346 0.951 . S
C371 C369 1.388 . S
C371 C372 1.366 . S
C372 C371 1.366 . S
C372 C373 1.414 . S
C372 C375 1.499 . S
C373 H347 0.950 . S
C373 C372 1.414 . S
C373 C374 1.374 . S
C374 H348 0.950 . S
C374 C370 1.385 . S
C374 C373 1.374 . S
C375 C372 1.499 . S
C375 C376 1.373 . S
C375 C377 1.389 . S
C376 H349 0.950 . S
C376 C362 1.377 1_565 S
C376 C375 1.373 . S
C377 C361 1.377 1_565 S
C377 C375 1.389 . S
C377 C378 1.524 . S
C378 C377 1.524 . S
C378 C379 1.397 . S
C378 C383 1.363 1_565 S
C379 H350 0.950 . S
C379 C378 1.397 . S
C379 C380 1.334 . S
C380 H351 0.950 . S
C380 C379 1.334 . S
C380 C381 1.287 . S
C381 C380 1.287 . S
C381 C382 1.524 1_565 S
C381 H384 0.999 . S
C382 H352 0.950 . S
C382 C381 1.524 1_545 S
C382 C383 1.415 . S
C383 H353 0.950 . S
C383 C378 1.363 1_545 S
C383 C382 1.415 . S
H384 C381 0.999 . S
H385 C366 0.913 . S
H386 C404 0.951 . S
H387 C406 0.951 . S
H388 C408 0.950 . S
H389 C409 0.950 . S
H390 C411 0.950 . S
H391 C414 0.950 . S
H392 C415 0.950 . S
H393 C417 0.950 . S
H394 C418 0.950 . S
H395 C419 0.951 . S
H396 C421 0.951 . S
H397 C423 0.950 . S
H398 C424 0.950 . S
H399 C426 0.950 . S
H400 C429 0.950 . S
H401 C430 0.950 . S
H402 C432 0.950 . S
H403 C433 0.950 . S
C404 H386 0.951 . S
C404 C405 1.366 . S
C404 C406 1.388 . S
C405 C404 1.366 . S
C405 C409 1.385 . S
C406 H387 0.951 . S
C406 C404 1.388 . S
C406 C407 1.366 . S
C407 C406 1.366 . S
C407 C408 1.414 . S
C407 C410 1.499 . S
C408 H388 0.950 . S
C408 C407 1.414 . S
C408 C409 1.374 . S
C409 H389 0.950 . S
C409 C405 1.385 . S
C409 C408 1.374 . S
C410 C407 1.499 . S
C410 C411 1.373 . S
C410 C412 1.389 . S
C411 H390 0.950 . S
C411 C410 1.373 . S
C411 C427 1.377 . S
C412 C410 1.389 . S
C412 C413 1.524 . S
C412 C426 1.377 . S
C413 C412 1.524 . S
C413 C414 1.397 . S
C413 C418 1.363 . S
C414 H391 0.950 . S
C414 C413 1.397 . S
C414 C415 1.334 . S
C415 H392 0.950 . S
C415 C414 1.334 . S
C415 C416 1.287 . S
C416 C415 1.287 . S
C416 C417 1.524 . S
C416 H435 0.913 . S
C417 H393 0.950 . S
C417 C416 1.524 . S
C417 C418 1.415 . S
C418 H394 0.950 . S
C418 C413 1.363 . S
C418 C417 1.415 . S
C419 H395 0.951 . S
C419 C420 1.366 . S
C419 C421 1.388 . S
C420 C419 1.366 . S
C420 C424 1.385 . S
C421 H396 0.951 . S
C421 C419 1.388 . S
C421 C422 1.366 . S
C422 C421 1.366 . S
C422 C423 1.414 . S
C422 C425 1.499 . S
C423 H397 0.950 . S
C423 C422 1.414 . S
C423 C424 1.374 . S
C424 H398 0.950 . S
C424 C420 1.385 . S
C424 C423 1.374 . S
C425 C422 1.499 . S
C425 C426 1.373 . S
C425 C427 1.389 . S
C426 H399 0.950 . S
C426 C412 1.377 . S
C426 C425 1.373 . S
C427 C411 1.377 . S
C427 C425 1.389 . S
C427 C428 1.524 . S
C428 C427 1.524 . S
C428 C429 1.397 . S
C428 C433 1.363 . S
C429 H400 0.950 . S
C429 C428 1.397 . S
C429 C430 1.334 . S
C430 H401 0.950 . S
C430 C429 1.334 . S
C430 C431 1.287 . S
C431 C430 1.287 . S
C431 C432 1.524 . S
C431 H434 0.999 . S
C432 H402 0.950 . S
C432 C431 1.524 . S
C432 C433 1.415 . S
C433 H403 0.950 . S
C433 C428 1.363 . S
C433 C432 1.415 . S
H434 C431 0.999 . S
H435 C416 0.913 . S
H436 C454 0.951 . S
H437 C456 0.951 . S
H438 C458 0.950 . S
H439 C459 0.950 . S
H440 C461 0.950 . S
H441 C464 0.950 . S
H442 C465 0.950 . S
H443 C467 0.950 . S
H444 C468 0.950 1_455 S
H445 C469 0.951 . S
H446 C471 0.951 . S
H447 C473 0.950 . S
H448 C474 0.950 . S
H449 C476 0.950 . S
H450 C479 0.950 . S
H451 C480 0.950 . S
H452 C482 0.950 . S
H453 C483 0.950 1_655 S
C454 H436 0.951 . S
C454 C455 1.366 . S
C454 C456 1.388 . S
C455 C454 1.366 . S
C455 C459 1.385 . S
C456 H437 0.951 . S
C456 C454 1.388 . S
C456 C457 1.366 . S
C457 C456 1.366 . S
C457 C458 1.414 . S
C457 C460 1.499 . S
C458 H438 0.950 . S
C458 C457 1.414 . S
C458 C459 1.374 . S
C459 H439 0.950 . S
C459 C455 1.385 . S
C459 C458 1.374 . S
C460 C457 1.499 . S
C460 C461 1.373 . S
C460 C462 1.389 . S
C461 H440 0.950 . S
C461 C460 1.373 . S
C461 C477 1.377 1_655 S
C462 C460 1.389 . S
C462 C463 1.524 . S
C462 C476 1.377 1_655 S
C463 C462 1.524 . S
C463 C464 1.397 . S
C463 C468 1.363 . S
C464 H441 0.950 . S
C464 C463 1.397 . S
C464 C465 1.334 . S
C465 H442 0.950 . S
C465 C464 1.334 . S
C465 C466 1.287 . S
C466 C465 1.287 . S
C466 C467 1.524 . S
C466 H485 0.913 . S
C467 H443 0.950 . S
C467 C466 1.524 . S
C467 C468 1.415 . S
C468 H444 0.950 1_655 S
C468 C463 1.363 . S
C468 C467 1.415 . S
C469 H445 0.951 . S
C469 C470 1.366 . S
C469 C471 1.388 . S
C470 C469 1.366 . S
C470 C474 1.385 . S
C471 H446 0.951 . S
C471 C469 1.388 . S
C471 C472 1.366 . S
C472 C471 1.366 . S
C472 C473 1.414 . S
C472 C475 1.499 . S
C473 H447 0.950 . S
C473 C472 1.414 . S
C473 C474 1.374 . S
C474 H448 0.950 . S
C474 C470 1.385 . S
C474 C473 1.374 . S
C475 C472 1.499 . S
C475 C476 1.373 . S
C475 C477 1.389 . S
C476 H449 0.950 . S
C476 C462 1.377 1_455 S
C476 C475 1.373 . S
C477 C461 1.377 1_455 S
C477 C475 1.389 . S
C477 C478 1.524 . S
C478 C477 1.524 . S
C478 C479 1.397 . S
C478 C483 1.363 . S
C479 H450 0.950 . S
C479 C478 1.397 . S
C479 C480 1.334 . S
C480 H451 0.950 . S
C480 C479 1.334 . S
C480 C481 1.287 . S
C481 C480 1.287 . S
C481 C482 1.524 . S
C481 H484 0.999 . S
C482 H452 0.950 . S
C482 C481 1.524 . S
C482 C483 1.415 . S
C483 H453 0.950 1_455 S
C483 C478 1.363 . S
C483 C482 1.415 . S
H484 C481 0.999 . S
H485 C466 0.913 . S
H486 C504 0.951 . S
H487 C506 0.951 . S
H488 C508 0.950 . S
H489 C509 0.950 . S
H490 C511 0.950 . S
H491 C514 0.950 . S
H492 C515 0.950 . S
H493 C517 0.950 1_545 S
H494 C518 0.950 . S
H495 C519 0.951 . S
H496 C521 0.951 . S
H497 C523 0.950 . S
H498 C524 0.950 . S
H499 C526 0.950 . S
H500 C529 0.950 . S
H501 C530 0.950 . S
H502 C532 0.950 1_565 S
H503 C533 0.950 . S
C504 H486 0.951 . S
C504 C505 1.366 . S
C504 C506 1.388 . S
C505 C504 1.366 . S
C505 C509 1.385 . S
C506 H487 0.951 . S
C506 C504 1.388 . S
C506 C507 1.366 . S
C507 C506 1.366 . S
C507 C508 1.414 . S
C507 C510 1.499 . S
C508 H488 0.950 . S
C508 C507 1.414 . S
C508 C509 1.374 . S
C509 H489 0.950 . S
C509 C505 1.385 . S
C509 C508 1.374 . S
C510 C507 1.499 . S
C510 C511 1.373 . S
C510 C512 1.389 . S
C511 H490 0.950 . S
C511 C510 1.373 . S
C511 C527 1.377 1_565 S
C512 C510 1.389 . S
C512 C513 1.524 . S
C512 C526 1.377 1_565 S
C513 C512 1.524 . S
C513 C514 1.397 . S
C513 C518 1.363 1_565 S
C514 H491 0.950 . S
C514 C513 1.397 . S
C514 C515 1.334 . S
C515 H492 0.950 . S
C515 C514 1.334 . S
C515 C516 1.287 . S
C516 C515 1.287 . S
C516 C517 1.524 . S
C516 H535 0.913 . S
C517 H493 0.950 1_565 S
C517 C516 1.524 . S
C517 C518 1.415 1_565 S
C518 H494 0.950 . S
C518 C513 1.363 1_545 S
C518 C517 1.415 1_545 S
C519 H495 0.951 . S
C519 C520 1.366 . S
C519 C521 1.388 . S
C520 C519 1.366 . S
C520 C524 1.385 . S
C521 H496 0.951 . S
C521 C519 1.388 . S
C521 C522 1.366 . S
C522 C521 1.366 . S
C522 C523 1.414 . S
C522 C525 1.499 . S
C523 H497 0.950 . S
C523 C522 1.414 . S
C523 C524 1.374 . S
C524 H498 0.950 . S
C524 C520 1.385 . S
C524 C523 1.374 . S
C525 C522 1.499 . S
C525 C526 1.373 . S
C525 C527 1.389 . S
C526 H499 0.950 . S
C526 C512 1.377 1_545 S
C526 C525 1.373 . S
C527 C511 1.377 1_545 S
C527 C525 1.389 . S
C527 C528 1.524 . S
C528 C527 1.524 . S
C528 C529 1.397 . S
C528 C533 1.363 1_545 S
C529 H500 0.950 . S
C529 C528 1.397 . S
C529 C530 1.334 . S
C530 H501 0.950 . S
C530 C529 1.334 . S
C530 C531 1.287 . S
C531 C530 1.287 . S
C531 C532 1.524 . S
C531 H534 0.999 . S
C532 H502 0.950 1_545 S
C532 C531 1.524 . S
C532 C533 1.415 1_545 S
C533 H503 0.950 . S
C533 C528 1.363 1_565 S
C533 C532 1.415 1_565 S
H534 C531 0.999 . S
H535 C516 0.913 . S
H536 C554 0.951 . S
H537 C556 0.951 . S
H538 C558 0.950 . S
H539 C559 0.950 . S
H540 C561 0.950 . S
H541 C564 0.950 . S
H542 C565 0.950 . S
H543 C567 0.950 . S
H544 C568 0.950 . S
H545 C569 0.951 . S
H546 C571 0.951 . S
H547 C573 0.950 . S
H548 C574 0.950 . S
H549 C576 0.950 . S
H550 C579 0.950 . S
H551 C580 0.950 . S
H552 C582 0.950 . S
H553 C583 0.950 . S
C554 H536 0.951 . S
C554 C555 1.366 . S
C554 C556 1.388 . S
C555 C554 1.366 . S
C555 C559 1.385 . S
C556 H537 0.951 . S
C556 C554 1.388 . S
C556 C557 1.366 . S
C557 C556 1.366 . S
C557 C558 1.414 . S
C557 C560 1.499 . S
C558 H538 0.950 . S
C558 C557 1.414 . S
C558 C559 1.374 . S
C559 H539 0.950 . S
C559 C555 1.385 . S
C559 C558 1.374 . S
C560 C557 1.499 . S
C560 C561 1.373 . S
C560 C562 1.389 . S
C561 H540 0.950 . S
C561 C560 1.373 . S
C561 C577 1.377 . S
C562 C560 1.389 . S
C562 C563 1.524 . S
C562 C576 1.377 . S
C563 C562 1.524 . S
C563 C564 1.397 . S
C563 C568 1.363 . S
C564 H541 0.950 . S
C564 C563 1.397 . S
C564 C565 1.334 . S
C565 H542 0.950 . S
C565 C564 1.334 . S
C565 C566 1.287 . S
C566 C565 1.287 . S
C566 C567 1.524 . S
C566 H585 0.913 . S
C567 H543 0.950 . S
C567 C566 1.524 . S
C567 C568 1.415 . S
C568 H544 0.950 . S
C568 C563 1.363 . S
C568 C567 1.415 . S
C569 H545 0.951 . S
C569 C570 1.366 . S
C569 C571 1.388 . S
C570 C569 1.366 . S
C570 C574 1.385 . S
C571 H546 0.951 . S
C571 C569 1.388 . S
C571 C572 1.366 . S
C572 C571 1.366 . S
C572 C573 1.414 . S
C572 C575 1.499 . S
C573 H547 0.950 . S
C573 C572 1.414 . S
C573 C574 1.374 . S
C574 H548 0.950 . S
C574 C570 1.385 . S
C574 C573 1.374 . S
C575 C572 1.499 . S
C575 C576 1.373 . S
C575 C577 1.389 . S
C576 H549 0.950 . S
C576 C562 1.377 . S
C576 C575 1.373 . S
C577 C561 1.377 . S
C577 C575 1.389 . S
C577 C578 1.524 . S
C578 C577 1.524 . S
C578 C579 1.397 . S
C578 C583 1.363 . S
C579 H550 0.950 . S
C579 C578 1.397 . S
C579 C580 1.334 . S
C580 H551 0.950 . S
C580 C579 1.334 . S
C580 C581 1.287 . S
C581 C580 1.287 . S
C581 C582 1.524 . S
C581 H584 0.999 . S
C582 H552 0.950 . S
C582 C581 1.524 . S
C582 C583 1.415 . S
C583 H553 0.950 . S
C583 C578 1.363 . S
C583 C582 1.415 . S
H584 C581 0.999 . S
H585 C566 0.913 . S
H586 C604 0.951 . S
H587 C606 0.951 . S
H588 C608 0.950 . S
H589 C609 0.950 . S
H590 C611 0.950 . S
H591 C614 0.950 . S
H592 C615 0.950 . S
H593 C617 0.950 . S
H594 C618 0.950 . S
H595 C619 0.951 . S
H596 C621 0.951 . S
H597 C623 0.950 . S
H598 C624 0.950 . S
H599 C626 0.950 . S
H600 C629 0.950 . S
H601 C630 0.950 . S
H602 C632 0.950 . S
H603 C633 0.950 . S
C604 H586 0.951 . S
C604 C605 1.366 . S
C604 C606 1.388 . S
C605 C604 1.366 . S
C605 C609 1.385 . S
C606 H587 0.951 . S
C606 C604 1.388 . S
C606 C607 1.366 . S
C607 C606 1.366 . S
C607 C608 1.414 . S
C607 C610 1.499 . S
C608 H588 0.950 . S
C608 C607 1.414 . S
C608 C609 1.374 . S
C609 H589 0.950 . S
C609 C605 1.385 . S
C609 C608 1.374 . S
C610 C607 1.499 . S
C610 C611 1.373 . S
C610 C612 1.389 . S
C611 H590 0.950 . S
C611 C610 1.373 . S
C611 C627 1.377 1_455 S
C612 C610 1.389 . S
C612 C613 1.524 . S
C612 C626 1.377 1_455 S
C613 C612 1.524 . S
C613 C614 1.397 . S
C613 C618 1.363 . S
C614 H591 0.950 . S
C614 C613 1.397 . S
C614 C615 1.334 . S
C615 H592 0.950 . S
C615 C614 1.334 . S
C615 C616 1.287 . S
C616 C615 1.287 . S
C616 C617 1.524 . S
C616 H635 0.913 . S
C617 H593 0.950 . S
C617 C616 1.524 . S
C617 C618 1.415 . S
C618 H594 0.950 . S
C618 C613 1.363 . S
C618 C617 1.415 . S
C619 H595 0.951 . S
C619 C620 1.366 . S
C619 C621 1.388 . S
C620 C619 1.366 . S
C620 C624 1.385 . S
C621 H596 0.951 . S
C621 C619 1.388 . S
C621 C622 1.366 . S
C622 C621 1.366 . S
C622 C623 1.414 . S
C622 C625 1.499 . S
C623 H597 0.950 . S
C623 C622 1.414 . S
C623 C624 1.374 . S
C624 H598 0.950 . S
C624 C620 1.385 . S
C624 C623 1.374 . S
C625 C622 1.499 . S
C625 C626 1.373 . S
C625 C627 1.389 . S
C626 H599 0.950 . S
C626 C612 1.377 1_655 S
C626 C625 1.373 . S
C627 C611 1.377 1_655 S
C627 C625 1.389 . S
C627 C628 1.524 . S
C628 C627 1.524 . S
C628 C629 1.397 . S
C628 C633 1.363 . S
C629 H600 0.950 . S
C629 C628 1.397 . S
C629 C630 1.334 . S
C630 H601 0.950 . S
C630 C629 1.334 . S
C630 C631 1.287 . S
C631 C630 1.287 . S
C631 C632 1.524 . S
C631 H634 0.999 . S
C632 H602 0.950 . S
C632 C631 1.524 . S
C632 C633 1.415 . S
C633 H603 0.950 . S
C633 C628 1.363 . S
C633 C632 1.415 . S
H634 C631 0.999 . S
H635 C616 0.913 . S
H636 C654 0.951 . S
H637 C656 0.951 . S
H638 C658 0.950 . S
H639 C659 0.950 . S
H640 C661 0.950 . S
H641 C664 0.950 . S
H642 C665 0.950 . S
H643 C667 0.950 . S
H644 C668 0.950 . S
H645 C669 0.951 . S
H646 C671 0.951 . S
H647 C673 0.950 . S
H648 C674 0.950 . S
H649 C676 0.950 . S
H650 C679 0.950 . S
H651 C680 0.950 . S
H652 C682 0.950 . S
H653 C683 0.950 . S
C654 H636 0.951 . S
C654 C655 1.366 . S
C654 C656 1.388 . S
C655 C654 1.366 . S
C655 C659 1.385 . S
C656 H637 0.951 . S
C656 C654 1.388 . S
C656 C657 1.366 . S
C657 C656 1.366 . S
C657 C658 1.414 . S
C657 C660 1.499 . S
C658 H638 0.950 . S
C658 C657 1.414 . S
C658 C659 1.374 . S
C659 H639 0.950 . S
C659 C655 1.385 . S
C659 C658 1.374 . S
C660 C657 1.499 . S
C660 C661 1.373 . S
C660 C662 1.389 . S
C661 H640 0.950 . S
C661 C660 1.373 . S
C661 C677 1.377 1_565 S
C662 C660 1.389 . S
C662 C663 1.524 . S
C662 C676 1.377 1_565 S
C663 C662 1.524 . S
C663 C664 1.397 . S
C663 C668 1.363 1_565 S
C664 H641 0.950 . S
C664 C663 1.397 . S
C664 C665 1.334 . S
C665 H642 0.950 . S
C665 C664 1.334 . S
C665 C666 1.287 . S
C666 C665 1.287 . S
C666 C667 1.524 1_565 S
C666 H685 0.913 . S
C667 H643 0.950 . S
C667 C666 1.524 1_545 S
C667 C668 1.415 . S
C668 H644 0.950 . S
C668 C663 1.363 1_545 S
C668 C667 1.415 . S
C669 H645 0.951 . S
C669 C670 1.366 . S
C669 C671 1.388 . S
C670 C669 1.366 . S
C670 C674 1.385 . S
C671 H646 0.951 . S
C671 C669 1.388 . S
C671 C672 1.366 . S
C672 C671 1.366 . S
C672 C673 1.414 . S
C672 C675 1.499 . S
C673 H647 0.950 . S
C673 C672 1.414 . S
C673 C674 1.374 . S
C674 H648 0.950 . S
C674 C670 1.385 . S
C674 C673 1.374 . S
C675 C672 1.499 . S
C675 C676 1.373 . S
C675 C677 1.389 . S
C676 H649 0.950 . S
C676 C662 1.377 1_545 S
C676 C675 1.373 . S
C677 C661 1.377 1_545 S
C677 C675 1.389 . S
C677 C678 1.524 . S
C678 C677 1.524 . S
C678 C679 1.397 . S
C678 C683 1.363 1_545 S
C679 H650 0.950 . S
C679 C678 1.397 . S
C679 C680 1.334 . S
C680 H651 0.950 . S
C680 C679 1.334 . S
C680 C681 1.287 . S
C681 C680 1.287 . S
C681 C682 1.524 1_545 S
C681 H684 0.999 . S
C682 H652 0.950 . S
C682 C681 1.524 1_565 S
C682 C683 1.415 . S
C683 H653 0.950 . S
C683 C678 1.363 1_565 S
C683 C682 1.415 . S
H684 C681 0.999 . S
H685 C666 0.913 . S
H686 C704 0.951 . S
H687 C706 0.951 . S
H688 C708 0.950 . S
H689 C709 0.950 . S
H690 C711 0.950 . S
H691 C714 0.950 . S
H692 C715 0.950 . S
H693 C717 0.950 . S
H694 C718 0.950 . S
H695 C719 0.951 . S
H696 C721 0.951 . S
H697 C723 0.950 . S
H698 C724 0.950 . S
H699 C726 0.950 . S
H700 C729 0.950 . S
H701 C730 0.950 . S
H702 C732 0.950 . S
H703 C733 0.950 . S
C704 H686 0.951 . S
C704 C705 1.366 . S
C704 C706 1.388 . S
C705 C704 1.366 . S
C705 C709 1.385 . S
C706 H687 0.951 . S
C706 C704 1.388 . S
C706 C707 1.366 . S
C707 C706 1.366 . S
C707 C708 1.414 . S
C707 C710 1.499 . S
C708 H688 0.950 . S
C708 C707 1.414 . S
C708 C709 1.374 . S
C709 H689 0.950 . S
C709 C705 1.385 . S
C709 C708 1.374 . S
C710 C707 1.499 . S
C710 C711 1.373 . S
C710 C712 1.389 . S
C711 H690 0.950 . S
C711 C710 1.373 . S
C711 C727 1.377 . S
C712 C710 1.389 . S
C712 C713 1.524 . S
C712 C726 1.377 . S
C713 C712 1.524 . S
C713 C714 1.397 . S
C713 C718 1.363 . S
C714 H691 0.950 . S
C714 C713 1.397 . S
C714 C715 1.334 . S
C715 H692 0.950 . S
C715 C714 1.334 . S
C715 C716 1.287 . S
C716 C715 1.287 . S
C716 C717 1.524 . S
C716 H735 0.913 . S
C717 H693 0.950 . S
C717 C716 1.524 . S
C717 C718 1.415 . S
C718 H694 0.950 . S
C718 C713 1.363 . S
C718 C717 1.415 . S
C719 H695 0.951 . S
C719 C720 1.366 . S
C719 C721 1.388 . S
C720 C719 1.366 . S
C720 C724 1.385 . S
C721 H696 0.951 . S
C721 C719 1.388 . S
C721 C722 1.366 . S
C722 C721 1.366 . S
C722 C723 1.414 . S
C722 C725 1.499 . S
C723 H697 0.950 . S
C723 C722 1.414 . S
C723 C724 1.374 . S
C724 H698 0.950 . S
C724 C720 1.385 . S
C724 C723 1.374 . S
C725 C722 1.499 . S
C725 C726 1.373 . S
C725 C727 1.389 . S
C726 H699 0.950 . S
C726 C712 1.377 . S
C726 C725 1.373 . S
C727 C711 1.377 . S
C727 C725 1.389 . S
C727 C728 1.524 . S
C728 C727 1.524 . S
C728 C729 1.397 . S
C728 C733 1.363 . S
C729 H700 0.950 . S
C729 C728 1.397 . S
C729 C730 1.334 . S
C730 H701 0.950 . S
C730 C729 1.334 . S
C730 C731 1.287 . S
C731 C730 1.287 . S
C731 C732 1.524 . S
C731 H734 0.999 . S
C732 H702 0.950 . S
C732 C731 1.524 . S
C732 C733 1.415 . S
C733 H703 0.950 . S
C733 C728 1.363 . S
C733 C732 1.415 . S
H734 C731 0.999 . S
H735 C716 0.913 . S
H736 C754 0.951 . S
H737 C756 0.951 . S
H738 C758 0.950 . S
H739 C759 0.950 . S
H740 C761 0.950 . S
H741 C764 0.950 . S
H742 C765 0.950 . S
H743 C767 0.950 . S
H744 C768 0.950 . S
H745 C769 0.951 . S
H746 C771 0.951 . S
H747 C773 0.950 . S
H748 C774 0.950 . S
H749 C776 0.950 . S
H750 C779 0.950 . S
H751 C780 0.950 . S
H752 C782 0.950 . S
H753 C783 0.950 . S
C754 H736 0.951 . S
C754 C755 1.366 . S
C754 C756 1.388 . S
C755 C754 1.366 . S
C755 C759 1.385 . S
C756 H737 0.951 . S
C756 C754 1.388 . S
C756 C757 1.366 . S
C757 C756 1.366 . S
C757 C758 1.414 . S
C757 C760 1.499 . S
C758 H738 0.950 . S
C758 C757 1.414 . S
C758 C759 1.374 . S
C759 H739 0.950 . S
C759 C755 1.385 . S
C759 C758 1.374 . S
C760 C757 1.499 . S
C760 C761 1.373 . S
C760 C762 1.389 . S
C761 H740 0.950 . S
C761 C760 1.373 . S
C761 C777 1.377 1_655 S
C762 C760 1.389 . S
C762 C763 1.524 . S
C762 C776 1.377 1_655 S
C763 C762 1.524 . S
C763 C764 1.397 . S
C763 C768 1.363 . S
C764 H741 0.950 . S
C764 C763 1.397 . S
C764 C765 1.334 . S
C765 H742 0.950 . S
C765 C764 1.334 . S
C765 C766 1.287 . S
C766 C765 1.287 . S
C766 C767 1.524 . S
C766 H785 0.913 . S
C767 H743 0.950 . S
C767 C766 1.524 . S
C767 C768 1.415 . S
C768 H744 0.950 . S
C768 C763 1.363 . S
C768 C767 1.415 . S
C769 H745 0.951 . S
C769 C770 1.366 . S
C769 C771 1.388 . S
C770 C769 1.366 . S
C770 C774 1.385 . S
C771 H746 0.951 . S
C771 C769 1.388 . S
C771 C772 1.366 . S
C772 C771 1.366 . S
C772 C773 1.414 . S
C772 C775 1.499 . S
C773 H747 0.950 . S
C773 C772 1.414 . S
C773 C774 1.374 . S
C774 H748 0.950 . S
C774 C770 1.385 . S
C774 C773 1.374 . S
C775 C772 1.499 . S
C775 C776 1.373 . S
C775 C777 1.389 . S
C776 H749 0.950 . S
C776 C762 1.377 1_455 S
C776 C775 1.373 . S
C777 C761 1.377 1_455 S
C777 C775 1.389 . S
C777 C778 1.524 . S
C778 C777 1.524 . S
C778 C779 1.397 . S
C778 C783 1.363 . S
C779 H750 0.950 . S
C779 C778 1.397 . S
C779 C780 1.334 . S
C780 H751 0.950 . S
C780 C779 1.334 . S
C780 C781 1.287 . S
C781 C780 1.287 . S
C781 C782 1.524 . S
C781 H784 0.999 . S
C782 H752 0.950 . S
C782 C781 1.524 . S
C782 C783 1.415 . S
C783 H753 0.950 . S
C783 C778 1.363 . S
C783 C782 1.415 . S
H784 C781 0.999 . S
H785 C766 0.913 . S
H786 C804 0.951 . S
H787 C806 0.951 . S
H788 C808 0.950 . S
H789 C809 0.950 . S
H790 C811 0.950 . S
H791 C814 0.950 . S
H792 C815 0.950 . S
H793 C817 0.950 . S
H794 C818 0.950 . S
H795 C819 0.951 . S
H796 C821 0.951 . S
H797 C823 0.950 . S
H798 C824 0.950 . S
H799 C826 0.950 . S
H800 C829 0.950 . S
H801 C830 0.950 . S
H802 C832 0.950 . S
H803 C833 0.950 . S
C804 H786 0.951 . S
C804 C805 1.366 . S
C804 C806 1.388 . S
C805 C804 1.366 . S
C805 C809 1.385 . S
C806 H787 0.951 . S
C806 C804 1.388 . S
C806 C807 1.366 . S
C807 C806 1.366 . S
C807 C808 1.414 . S
C807 C810 1.499 . S
C808 H788 0.950 . S
C808 C807 1.414 . S
C808 C809 1.374 . S
C809 H789 0.950 . S
C809 C805 1.385 . S
C809 C808 1.374 . S
C810 C807 1.499 . S
C810 C811 1.373 . S
C810 C812 1.389 . S
C811 H790 0.950 . S
C811 C810 1.373 . S
C811 C827 1.377 1_545 S
C812 C810 1.389 . S
C812 C813 1.524 . S
C812 C826 1.377 1_545 S
C813 C812 1.524 . S
C813 C814 1.397 . S
C813 C818 1.363 . S
C814 H791 0.950 . S
C814 C813 1.397 . S
C814 C815 1.334 . S
C815 H792 0.950 . S
C815 C814 1.334 . S
C815 C816 1.287 . S
C816 C815 1.287 . S
C816 C817 1.524 . S
C816 H835 0.913 . S
C817 H793 0.950 . S
C817 C816 1.524 . S
C817 C818 1.415 . S
C818 H794 0.950 . S
C818 C813 1.363 . S
C818 C817 1.415 . S
C819 H795 0.951 . S
C819 C820 1.366 . S
C819 C821 1.388 . S
C820 C819 1.366 . S
C820 C824 1.385 . S
C821 H796 0.951 . S
C821 C819 1.388 . S
C821 C822 1.366 . S
C822 C821 1.366 . S
C822 C823 1.414 . S
C822 C825 1.499 . S
C823 H797 0.950 . S
C823 C822 1.414 . S
C823 C824 1.374 . S
C824 H798 0.950 . S
C824 C820 1.385 . S
C824 C823 1.374 . S
C825 C822 1.499 . S
C825 C826 1.373 . S
C825 C827 1.389 . S
C826 H799 0.950 . S
C826 C812 1.377 1_565 S
C826 C825 1.373 . S
C827 C811 1.377 1_565 S
C827 C825 1.389 . S
C827 C828 1.524 . S
C828 C827 1.524 . S
C828 C829 1.397 . S
C828 C833 1.363 . S
C829 H800 0.950 . S
C829 C828 1.397 . S
C829 C830 1.334 . S
C830 H801 0.950 . S
C830 C829 1.334 . S
C830 C831 1.287 . S
C831 C830 1.287 . S
C831 C832 1.524 . S
C831 H834 0.999 . S
C832 H802 0.950 . S
C832 C831 1.524 . S
C832 C833 1.415 . S
C833 H803 0.950 . S
C833 C828 1.363 . S
C833 C832 1.415 . S
H834 C831 0.999 . S
H835 C816 0.913 . S
H836 C854 0.951 . S
H837 C856 0.951 . S
H838 C858 0.950 . S
H839 C859 0.950 . S
H840 C861 0.950 . S
H841 C864 0.950 . S
H842 C865 0.950 . S
H843 C867 0.950 . S
H844 C868 0.950 . S
H845 C869 0.951 . S
H846 C871 0.951 . S
H847 C873 0.950 . S
H848 C874 0.950 . S
H849 C876 0.950 . S
H850 C879 0.950 . S
H851 C880 0.950 . S
H852 C882 0.950 . S
H853 C883 0.950 . S
C854 H836 0.951 . S
C854 C855 1.366 . S
C854 C856 1.388 . S
C855 C854 1.366 . S
C855 C859 1.385 . S
C856 H837 0.951 . S
C856 C854 1.388 . S
C856 C857 1.366 . S
C857 C856 1.366 . S
C857 C858 1.414 . S
C857 C860 1.499 . S
C858 H838 0.950 . S
C858 C857 1.414 . S
C858 C859 1.374 . S
C859 H839 0.950 . S
C859 C855 1.385 . S
C859 C858 1.374 . S
C860 C857 1.499 . S
C860 C861 1.373 . S
C860 C862 1.389 . S
C861 H840 0.950 . S
C861 C860 1.373 . S
C861 C877 1.377 . S
C862 C860 1.389 . S
C862 C863 1.524 . S
C862 C876 1.377 . S
C863 C862 1.524 . S
C863 C864 1.397 . S
C863 C868 1.363 . S
C864 H841 0.950 . S
C864 C863 1.397 . S
C864 C865 1.334 . S
C865 H842 0.950 . S
C865 C864 1.334 . S
C865 C866 1.287 . S
C866 C865 1.287 . S
C866 C867 1.524 . S
C866 H885 0.913 . S
C867 H843 0.950 . S
C867 C866 1.524 . S
C867 C868 1.415 . S
C868 H844 0.950 . S
C868 C863 1.363 . S
C868 C867 1.415 . S
C869 H845 0.951 . S
C869 C870 1.366 . S
C869 C871 1.388 . S
C870 C869 1.366 . S
C870 C874 1.385 . S
C871 H846 0.951 . S
C871 C869 1.388 . S
C871 C872 1.366 . S
C872 C871 1.366 . S
C872 C873 1.414 . S
C872 C875 1.499 . S
C873 H847 0.950 . S
C873 C872 1.414 . S
C873 C874 1.374 . S
C874 H848 0.950 . S
C874 C870 1.385 . S
C874 C873 1.374 . S
C875 C872 1.499 . S
C875 C876 1.373 . S
C875 C877 1.389 . S
C876 H849 0.950 . S
C876 C862 1.377 . S
C876 C875 1.373 . S
C877 C861 1.377 . S
C877 C875 1.389 . S
C877 C878 1.524 . S
C878 C877 1.524 . S
C878 C879 1.397 . S
C878 C883 1.363 . S
C879 H850 0.950 . S
C879 C878 1.397 . S
C879 C880 1.334 . S
C880 H851 0.950 . S
C880 C879 1.334 . S
C880 C881 1.287 . S
C881 C880 1.287 . S
C881 C882 1.524 . S
C881 H884 0.999 . S
C882 H852 0.950 . S
C882 C881 1.524 . S
C882 C883 1.415 . S
C883 H853 0.950 . S
C883 C878 1.363 . S
C883 C882 1.415 . S
H884 C881 0.999 . S
H885 C866 0.913 . S
H886 C904 0.951 . S
H887 C906 0.951 . S
H888 C908 0.950 . S
H889 C909 0.950 . S
H890 C911 0.950 . S
H891 C914 0.950 . S
H892 C915 0.950 . S
H893 C917 0.950 . S
H894 C918 0.950 1_655 S
H895 C919 0.951 . S
H896 C921 0.951 . S
H897 C923 0.950 . S
H898 C924 0.950 . S
H899 C926 0.950 . S
H900 C929 0.950 . S
H901 C930 0.950 . S
H902 C932 0.950 . S
H903 C933 0.950 1_455 S
C904 H886 0.951 . S
C904 C905 1.366 . S
C904 C906 1.388 . S
C905 C904 1.366 . S
C905 C909 1.385 . S
C906 H887 0.951 . S
C906 C904 1.388 . S
C906 C907 1.366 . S
C907 C906 1.366 . S
C907 C908 1.414 . S
C907 C910 1.499 . S
C908 H888 0.950 . S
C908 C907 1.414 . S
C908 C909 1.374 . S
C909 H889 0.950 . S
C909 C905 1.385 . S
C909 C908 1.374 . S
C910 C907 1.499 . S
C910 C911 1.373 . S
C910 C912 1.389 . S
C911 H890 0.950 . S
C911 C910 1.373 . S
C911 C927 1.377 1_455 S
C912 C910 1.389 . S
C912 C913 1.524 . S
C912 C926 1.377 1_455 S
C913 C912 1.524 . S
C913 C914 1.397 . S
C913 C918 1.363 . S
C914 H891 0.950 . S
C914 C913 1.397 . S
C914 C915 1.334 . S
C915 H892 0.950 . S
C915 C914 1.334 . S
C915 C916 1.287 . S
C916 C915 1.287 . S
C916 C917 1.524 . S
C916 H935 0.913 . S
C917 H893 0.950 . S
C917 C916 1.524 . S
C917 C918 1.415 . S
C918 H894 0.950 1_455 S
C918 C913 1.363 . S
C918 C917 1.415 . S
C919 H895 0.951 . S
C919 C920 1.366 . S
C919 C921 1.388 . S
C920 C919 1.366 . S
C920 C924 1.385 . S
C921 H896 0.951 . S
C921 C919 1.388 . S
C921 C922 1.366 . S
C922 C921 1.366 . S
C922 C923 1.414 . S
C922 C925 1.499 . S
C923 H897 0.950 . S
C923 C922 1.414 . S
C923 C924 1.374 . S
C924 H898 0.950 . S
C924 C920 1.385 . S
C924 C923 1.374 . S
C925 C922 1.499 . S
C925 C926 1.373 . S
C925 C927 1.389 . S
C926 H899 0.950 . S
C926 C912 1.377 1_655 S
C926 C925 1.373 . S
C927 C911 1.377 1_655 S
C927 C925 1.389 . S
C927 C928 1.524 . S
C928 C927 1.524 . S
C928 C929 1.397 . S
C928 C933 1.363 . S
C929 H900 0.950 . S
C929 C928 1.397 . S
C929 C930 1.334 . S
C930 H901 0.950 . S
C930 C929 1.334 . S
C930 C931 1.287 . S
C931 C930 1.287 . S
C931 C932 1.524 . S
C931 H934 0.999 . S
C932 H902 0.950 . S
C932 C931 1.524 . S
C932 C933 1.415 . S
C933 H903 0.950 1_655 S
C933 C928 1.363 . S
C933 C932 1.415 . S
H934 C931 0.999 . S
H935 C916 0.913 . S
H936 C954 0.951 . S
H937 C956 0.951 . S
H938 C958 0.950 . S
H939 C959 0.950 . S
H940 C961 0.950 . S
H941 C964 0.950 . S
H942 C965 0.950 . S
H943 C967 0.950 . S
H944 C968 0.950 . S
H945 C969 0.951 . S
H946 C971 0.951 . S
H947 C973 0.950 . S
H948 C974 0.950 . S
H949 C976 0.950 . S
H950 C979 0.950 . S
H951 C980 0.950 . S
H952 C982 0.950 . S
H953 C983 0.950 . S
C954 H936 0.951 . S
C954 C955 1.366 . S
C954 C956 1.388 . S
C955 C954 1.366 . S
C955 C959 1.385 . S
C956 H937 0.951 . S
C956 C954 1.388 . S
C956 C957 1.366 . S
C957 C956 1.366 . S
C957 C958 1.414 . S
C957 C960 1.499 . S
C958 H938 0.950 . S
C958 C957 1.414 . S
C958 C959 1.374 . S
C959 H939 0.950 . S
C959 C955 1.385 . S
C959 C958 1.374 . S
C960 C957 1.499 . S
C960 C961 1.373 . S
C960 C962 1.389 . S
C961 H940 0.950 . S
C961 C960 1.373 . S
C961 C977 1.377 . S
C962 C960 1.389 . S
C962 C963 1.524 . S
C962 C976 1.377 . S
C963 C962 1.524 . S
C963 C964 1.397 . S
C963 C968 1.363 . S
C964 H941 0.950 . S
C964 C963 1.397 . S
C964 C965 1.334 . S
C965 H942 0.950 . S
C965 C964 1.334 . S
C965 C966 1.287 . S
C966 C965 1.287 . S
C966 C967 1.524 . S
C966 H985 0.913 . S
C967 H943 0.950 . S
C967 C966 1.524 . S
C967 C968 1.415 . S
C968 H944 0.950 . S
C968 C963 1.363 . S
C968 C967 1.415 . S
C969 H945 0.951 . S
C969 C970 1.366 . S
C969 C971 1.388 . S
C970 C969 1.366 . S
C970 C974 1.385 . S
C971 H946 0.951 . S
C971 C969 1.388 . S
C971 C972 1.366 . S
C972 C971 1.366 . S
C972 C973 1.414 . S
C972 C975 1.499 . S
C973 H947 0.950 . S
C973 C972 1.414 . S
C973 C974 1.374 . S
C974 H948 0.950 . S
C974 C970 1.385 . S
C974 C973 1.374 . S
C975 C972 1.499 . S
C975 C976 1.373 . S
C975 C977 1.389 . S
C976 H949 0.950 . S
C976 C962 1.377 . S
C976 C975 1.373 . S
C977 C961 1.377 . S
C977 C975 1.389 . S
C977 C978 1.524 . S
C978 C977 1.524 . S
C978 C979 1.397 . S
C978 C983 1.363 . S
C979 H950 0.950 . S
C979 C978 1.397 . S
C979 C980 1.334 . S
C980 H951 0.950 . S
C980 C979 1.334 . S
C980 C981 1.287 . S
C981 C980 1.287 . S
C981 C982 1.524 . S
C981 H984 0.999 . S
C982 H952 0.950 . S
C982 C981 1.524 . S
C982 C983 1.415 . S
C983 H953 0.950 . S
C983 C978 1.363 . S
C983 C982 1.415 . S
H984 C981 0.999 . S
H985 C966 0.913 . S
H986 C1004 0.951 . S
H987 C1006 0.951 . S
H988 C1008 0.950 . S
H989 C1009 0.950 . S
H990 C1011 0.950 . S
H991 C1014 0.950 . S
H992 C1015 0.950 . S
H993 C1017 0.950 . S
H994 C1018 0.950 . S
H995 C1019 0.951 . S
H996 C1021 0.951 . S
H997 C1023 0.950 . S
H998 C1024 0.950 . S
H999 C1026 0.950 . S
H1000 C1029 0.950 . S
H1001 C1030 0.950 . S
H1002 C1032 0.950 . S
H1003 C1033 0.950 . S
C1004 H986 0.951 . S
C1004 C1005 1.366 . S
C1004 C1006 1.388 . S
C1005 C1004 1.366 . S
C1005 C1009 1.385 . S
C1006 H987 0.951 . S
C1006 C1004 1.388 . S
C1006 C1007 1.366 . S
C1007 C1006 1.366 . S
C1007 C1008 1.414 . S
C1007 C1010 1.499 . S
C1008 H988 0.950 . S
C1008 C1007 1.414 . S
C1008 C1009 1.374 . S
C1009 H989 0.950 . S
C1009 C1005 1.385 . S
C1009 C1008 1.374 . S
C1010 C1007 1.499 . S
C1010 C1011 1.373 . S
C1010 C1012 1.389 . S
C1011 H990 0.950 . S
C1011 C1010 1.373 . S
C1011 C1027 1.377 . S
C1012 C1010 1.389 . S
C1012 C1013 1.524 . S
C1012 C1026 1.377 . S
C1013 C1012 1.524 . S
C1013 C1014 1.397 . S
C1013 C1018 1.363 . S
C1014 H991 0.950 . S
C1014 C1013 1.397 . S
C1014 C1015 1.334 . S
C1015 H992 0.950 . S
C1015 C1014 1.334 . S
C1015 C1016 1.287 . S
C1016 C1015 1.287 . S
C1016 C1017 1.524 . S
C1016 H1035 0.913 . S
C1017 H993 0.950 . S
C1017 C1016 1.524 . S
C1017 C1018 1.415 . S
C1018 H994 0.950 . S
C1018 C1013 1.363 . S
C1018 C1017 1.415 . S
C1019 H995 0.951 . S
C1019 C1020 1.366 . S
C1019 C1021 1.388 . S
C1020 C1019 1.366 . S
C1020 C1024 1.385 . S
C1021 H996 0.951 . S
C1021 C1019 1.388 . S
C1021 C1022 1.366 . S
C1022 C1021 1.366 . S
C1022 C1023 1.414 . S
C1022 C1025 1.499 . S
C1023 H997 0.950 . S
C1023 C1022 1.414 . S
C1023 C1024 1.374 . S
C1024 H998 0.950 . S
C1024 C1020 1.385 . S
C1024 C1023 1.374 . S
C1025 C1022 1.499 . S
C1025 C1026 1.373 . S
C1025 C1027 1.389 . S
C1026 H999 0.950 . S
C1026 C1012 1.377 . S
C1026 C1025 1.373 . S
C1027 C1011 1.377 . S
C1027 C1025 1.389 . S
C1027 C1028 1.524 . S
C1028 C1027 1.524 . S
C1028 C1029 1.397 . S
C1028 C1033 1.363 . S
C1029 H1000 0.950 . S
C1029 C1028 1.397 . S
C1029 C1030 1.334 . S
C1030 H1001 0.950 . S
C1030 C1029 1.334 . S
C1030 C1031 1.287 . S
C1031 C1030 1.287 . S
C1031 C1032 1.524 . S
C1031 H1034 0.999 . S
C1032 H1002 0.950 . S
C1032 C1031 1.524 . S
C1032 C1033 1.415 . S
C1033 H1003 0.950 . S
C1033 C1028 1.363 . S
C1033 C1032 1.415 . S
H1034 C1031 0.999 . S
H1035 C1016 0.913 . S
H1036 C1054 0.951 . S
H1037 C1056 0.951 . S
H1038 C1058 0.950 . S
H1039 C1059 0.950 . S
H1040 C1061 0.950 . S
H1041 C1064 0.950 . S
H1042 C1065 0.950 . S
H1043 C1067 0.950 . S
H1044 C1068 0.950 . S
H1045 C1069 0.951 . S
H1046 C1071 0.951 . S
H1047 C1073 0.950 . S
H1048 C1074 0.950 . S
H1049 C1076 0.950 . S
H1050 C1079 0.950 . S
H1051 C1080 0.950 . S
H1052 C1082 0.950 . S
H1053 C1083 0.950 . S
C1054 H1036 0.951 . S
C1054 C1055 1.366 . S
C1054 C1056 1.388 . S
C1055 C1054 1.366 . S
C1055 C1059 1.385 . S
C1056 H1037 0.951 . S
C1056 C1054 1.388 . S
C1056 C1057 1.366 . S
C1057 C1056 1.366 . S
C1057 C1058 1.414 . S
C1057 C1060 1.499 . S
C1058 H1038 0.950 . S
C1058 C1057 1.414 . S
C1058 C1059 1.374 . S
C1059 H1039 0.950 . S
C1059 C1055 1.385 . S
C1059 C1058 1.374 . S
C1060 C1057 1.499 . S
C1060 C1061 1.373 . S
C1060 C1062 1.389 . S
C1061 H1040 0.950 . S
C1061 C1060 1.373 . S
C1061 C1077 1.377 . S
C1062 C1060 1.389 . S
C1062 C1063 1.524 . S
C1062 C1076 1.377 . S
C1063 C1062 1.524 . S
C1063 C1064 1.397 . S
C1063 C1068 1.363 . S
C1064 H1041 0.950 . S
C1064 C1063 1.397 . S
C1064 C1065 1.334 . S
C1065 H1042 0.950 . S
C1065 C1064 1.334 . S
C1065 C1066 1.287 . S
C1066 C1065 1.287 . S
C1066 C1067 1.524 . S
C1066 H1085 0.913 . S
C1067 H1043 0.950 . S
C1067 C1066 1.524 . S
C1067 C1068 1.415 . S
C1068 H1044 0.950 . S
C1068 C1063 1.363 . S
C1068 C1067 1.415 . S
C1069 H1045 0.951 . S
C1069 C1070 1.366 . S
C1069 C1071 1.388 . S
C1070 C1069 1.366 . S
C1070 C1074 1.385 . S
C1071 H1046 0.951 . S
C1071 C1069 1.388 . S
C1071 C1072 1.366 . S
C1072 C1071 1.366 . S
C1072 C1073 1.414 . S
C1072 C1075 1.499 . S
C1073 H1047 0.950 . S
C1073 C1072 1.414 . S
C1073 C1074 1.374 . S
C1074 H1048 0.950 . S
C1074 C1070 1.385 . S
C1074 C1073 1.374 . S
C1075 C1072 1.499 . S
C1075 C1076 1.373 . S
C1075 C1077 1.389 . S
C1076 H1049 0.950 . S
C1076 C1062 1.377 . S
C1076 C1075 1.373 . S
C1077 C1061 1.377 . S
C1077 C1075 1.389 . S
C1077 C1078 1.524 . S
C1078 C1077 1.524 . S
C1078 C1079 1.397 . S
C1078 C1083 1.363 . S
C1079 H1050 0.950 . S
C1079 C1078 1.397 . S
C1079 C1080 1.334 . S
C1080 H1051 0.950 . S
C1080 C1079 1.334 . S
C1080 C1081 1.287 . S
C1081 C1080 1.287 . S
C1081 C1082 1.524 . S
C1081 H1084 0.999 . S
C1082 H1052 0.950 . S
C1082 C1081 1.524 . S
C1082 C1083 1.415 . S
C1083 H1053 0.950 . S
C1083 C1078 1.363 . S
C1083 C1082 1.415 . S
H1084 C1081 0.999 . S
H1085 C1066 0.913 . S
H1086 C1104 0.951 . S
H1087 C1106 0.951 . S
H1088 C1108 0.950 . S
H1089 C1109 0.950 . S
H1090 C1111 0.950 . S
H1091 C1114 0.950 . S
H1092 C1115 0.950 . S
H1093 C1117 0.950 . S
H1094 C1118 0.950 . S
H1095 C1119 0.951 . S
H1096 C1121 0.951 . S
H1097 C1123 0.950 . S
H1098 C1124 0.950 . S
H1099 C1126 0.950 . S
H1100 C1129 0.950 . S
H1101 C1130 0.950 . S
H1102 C1132 0.950 . S
H1103 C1133 0.950 . S
C1104 H1086 0.951 . S
C1104 C1105 1.366 . S
C1104 C1106 1.388 . S
C1105 C1104 1.366 . S
C1105 C1109 1.385 . S
C1106 H1087 0.951 . S
C1106 C1104 1.388 . S
C1106 C1107 1.366 . S
C1107 C1106 1.366 . S
C1107 C1108 1.414 . S
C1107 C1110 1.499 . S
C1108 H1088 0.950 . S
C1108 C1107 1.414 . S
C1108 C1109 1.374 . S
C1109 H1089 0.950 . S
C1109 C1105 1.385 . S
C1109 C1108 1.374 . S
C1110 C1107 1.499 . S
C1110 C1111 1.373 . S
C1110 C1112 1.389 . S
C1111 H1090 0.950 . S
C1111 C1110 1.373 . S
C1111 C1127 1.377 . S
C1112 C1110 1.389 . S
C1112 C1113 1.524 . S
C1112 C1126 1.377 . S
C1113 C1112 1.524 . S
C1113 C1114 1.397 . S
C1113 C1118 1.363 . S
C1114 H1091 0.950 . S
C1114 C1113 1.397 . S
C1114 C1115 1.334 . S
C1115 H1092 0.950 . S
C1115 C1114 1.334 . S
C1115 C1116 1.287 . S
C1116 C1115 1.287 . S
C1116 C1117 1.524 . S
C1116 H1135 0.913 . S
C1117 H1093 0.950 . S
C1117 C1116 1.524 . S
C1117 C1118 1.415 . S
C1118 H1094 0.950 . S
C1118 C1113 1.363 . S
C1118 C1117 1.415 . S
C1119 H1095 0.951 . S
C1119 C1120 1.366 . S
C1119 C1121 1.388 . S
C1120 C1119 1.366 . S
C1120 C1124 1.385 . S
C1121 H1096 0.951 . S
C1121 C1119 1.388 . S
C1121 C1122 1.366 . S
C1122 C1121 1.366 . S
C1122 C1123 1.414 . S
C1122 C1125 1.499 . S
C1123 H1097 0.950 . S
C1123 C1122 1.414 . S
C1123 C1124 1.374 . S
C1124 H1098 0.950 . S
C1124 C1120 1.385 . S
C1124 C1123 1.374 . S
C1125 C1122 1.499 . S
C1125 C1126 1.373 . S
C1125 C1127 1.389 . S
C1126 H1099 0.950 . S
C1126 C1112 1.377 . S
C1126 C1125 1.373 . S
C1127 C1111 1.377 . S
C1127 C1125 1.389 . S
C1127 C1128 1.524 . S
C1128 C1127 1.524 . S
C1128 C1129 1.397 . S
C1128 C1133 1.363 . S
C1129 H1100 0.950 . S
C1129 C1128 1.397 . S
C1129 C1130 1.334 . S
C1130 H1101 0.950 . S
C1130 C1129 1.334 . S
C1130 C1131 1.287 . S
C1131 C1130 1.287 . S
C1131 C1132 1.524 . S
C1131 H1134 0.999 . S
C1132 H1102 0.950 . S
C1132 C1131 1.524 . S
C1132 C1133 1.415 . S
C1133 H1103 0.950 . S
C1133 C1128 1.363 . S
C1133 C1132 1.415 . S
H1134 C1131 0.999 . S
H1135 C1116 0.913 . S
H1136 C1154 0.951 . S
H1137 C1156 0.951 . S
H1138 C1158 0.950 . S
H1139 C1159 0.950 . S
H1140 C1161 0.950 . S
H1141 C1164 0.950 . S
H1142 C1165 0.950 . S
H1143 C1167 0.950 . S
H1144 C1168 0.950 . S
H1145 C1169 0.951 . S
H1146 C1171 0.951 . S
H1147 C1173 0.950 . S
H1148 C1174 0.950 . S
H1149 C1176 0.950 . S
H1150 C1179 0.950 . S
H1151 C1180 0.950 . S
H1152 C1182 0.950 . S
H1153 C1183 0.950 . S
C1154 H1136 0.951 . S
C1154 C1155 1.366 . S
C1154 C1156 1.388 . S
C1155 C1154 1.366 . S
C1155 C1159 1.385 . S
C1156 H1137 0.951 . S
C1156 C1154 1.388 . S
C1156 C1157 1.366 . S
C1157 C1156 1.366 . S
C1157 C1158 1.414 . S
C1157 C1160 1.499 . S
C1158 H1138 0.950 . S
C1158 C1157 1.414 . S
C1158 C1159 1.374 . S
C1159 H1139 0.950 . S
C1159 C1155 1.385 . S
C1159 C1158 1.374 . S
C1160 C1157 1.499 . S
C1160 C1161 1.373 . S
C1160 C1162 1.389 . S
C1161 H1140 0.950 . S
C1161 C1160 1.373 . S
C1161 C1177 1.377 . S
C1162 C1160 1.389 . S
C1162 C1163 1.524 . S
C1162 C1176 1.377 . S
C1163 C1162 1.524 . S
C1163 C1164 1.397 . S
C1163 C1168 1.363 . S
C1164 H1141 0.950 . S
C1164 C1163 1.397 . S
C1164 C1165 1.334 . S
C1165 H1142 0.950 . S
C1165 C1164 1.334 . S
C1165 C1166 1.287 . S
C1166 C1165 1.287 . S
C1166 C1167 1.524 . S
C1166 H1185 0.913 . S
C1167 H1143 0.950 . S
C1167 C1166 1.524 . S
C1167 C1168 1.415 . S
C1168 H1144 0.950 . S
C1168 C1163 1.363 . S
C1168 C1167 1.415 . S
C1169 H1145 0.951 . S
C1169 C1170 1.366 . S
C1169 C1171 1.388 . S
C1170 C1169 1.366 . S
C1170 C1174 1.385 . S
C1171 H1146 0.951 . S
C1171 C1169 1.388 . S
C1171 C1172 1.366 . S
C1172 C1171 1.366 . S
C1172 C1173 1.414 . S
C1172 C1175 1.499 . S
C1173 H1147 0.950 . S
C1173 C1172 1.414 . S
C1173 C1174 1.374 . S
C1174 H1148 0.950 . S
C1174 C1170 1.385 . S
C1174 C1173 1.374 . S
C1175 C1172 1.499 . S
C1175 C1176 1.373 . S
C1175 C1177 1.389 . S
C1176 H1149 0.950 . S
C1176 C1162 1.377 . S
C1176 C1175 1.373 . S
C1177 C1161 1.377 . S
C1177 C1175 1.389 . S
C1177 C1178 1.524 . S
C1178 C1177 1.524 . S
C1178 C1179 1.397 . S
C1178 C1183 1.363 . S
C1179 H1150 0.950 . S
C1179 C1178 1.397 . S
C1179 C1180 1.334 . S
C1180 H1151 0.950 . S
C1180 C1179 1.334 . S
C1180 C1181 1.287 . S
C1181 C1180 1.287 . S
C1181 C1182 1.524 . S
C1181 H1184 0.999 . S
C1182 H1152 0.950 . S
C1182 C1181 1.524 . S
C1182 C1183 1.415 . S
C1183 H1153 0.950 . S
C1183 C1178 1.363 . S
C1183 C1182 1.415 . S
H1184 C1181 0.999 . S
H1185 C1166 0.913 . S
H1186 C1204 0.951 . S
H1187 C1206 0.951 . S
H1188 C1208 0.950 . S
H1189 C1209 0.950 . S
H1190 C1211 0.950 . S
H1191 C1214 0.950 . S
H1192 C1215 0.950 . S
H1193 C1217 0.950 . S
H1194 C1218 0.950 . S
H1195 C1219 0.951 . S
H1196 C1221 0.951 . S
H1197 C1223 0.950 . S
H1198 C1224 0.950 . S
H1199 C1226 0.950 . S
H1200 C1229 0.950 . S
H1201 C1230 0.950 . S
H1202 C1232 0.950 . S
H1203 C1233 0.950 . S
C1204 H1186 0.951 . S
C1204 C1205 1.366 . S
C1204 C1206 1.388 . S
C1205 C1204 1.366 . S
C1205 C1209 1.385 . S
C1206 H1187 0.951 . S
C1206 C1204 1.388 . S
C1206 C1207 1.366 . S
C1207 C1206 1.366 . S
C1207 C1208 1.414 . S
C1207 C1210 1.499 . S
C1208 H1188 0.950 . S
C1208 C1207 1.414 . S
C1208 C1209 1.374 . S
C1209 H1189 0.950 . S
C1209 C1205 1.385 . S
C1209 C1208 1.374 . S
C1210 C1207 1.499 . S
C1210 C1211 1.373 . S
C1210 C1212 1.389 . S
C1211 H1190 0.950 . S
C1211 C1210 1.373 . S
C1211 C1227 1.377 . S
C1212 C1210 1.389 . S
C1212 C1213 1.524 . S
C1212 C1226 1.377 . S
C1213 C1212 1.524 . S
C1213 C1214 1.397 . S
C1213 C1218 1.363 . S
C1214 H1191 0.950 . S
C1214 C1213 1.397 . S
C1214 C1215 1.334 . S
C1215 H1192 0.950 . S
C1215 C1214 1.334 . S
C1215 C1216 1.287 . S
C1216 C1215 1.287 . S
C1216 C1217 1.524 . S
C1216 H1235 0.913 . S
C1217 H1193 0.950 . S
C1217 C1216 1.524 . S
C1217 C1218 1.415 . S
C1218 H1194 0.950 . S
C1218 C1213 1.363 . S
C1218 C1217 1.415 . S
C1219 H1195 0.951 . S
C1219 C1220 1.366 . S
C1219 C1221 1.388 . S
C1220 C1219 1.366 . S
C1220 C1224 1.385 . S
C1221 H1196 0.951 . S
C1221 C1219 1.388 . S
C1221 C1222 1.366 . S
C1222 C1221 1.366 . S
C1222 C1223 1.414 . S
C1222 C1225 1.499 . S
C1223 H1197 0.950 . S
C1223 C1222 1.414 . S
C1223 C1224 1.374 . S
C1224 H1198 0.950 . S
C1224 C1220 1.385 . S
C1224 C1223 1.374 . S
C1225 C1222 1.499 . S
C1225 C1226 1.373 . S
C1225 C1227 1.389 . S
C1226 H1199 0.950 . S
C1226 C1212 1.377 . S
C1226 C1225 1.373 . S
C1227 C1211 1.377 . S
C1227 C1225 1.389 . S
C1227 C1228 1.524 . S
C1228 C1227 1.524 . S
C1228 C1229 1.397 . S
C1228 C1233 1.363 . S
C1229 H1200 0.950 . S
C1229 C1228 1.397 . S
C1229 C1230 1.334 . S
C1230 H1201 0.950 . S
C1230 C1229 1.334 . S
C1230 C1231 1.287 . S
C1231 C1230 1.287 . S
C1231 C1232 1.524 . S
C1231 H1234 0.999 . S
C1232 H1202 0.950 . S
C1232 C1231 1.524 . S
C1232 C1233 1.415 . S
C1233 H1203 0.950 . S
C1233 C1228 1.363 . S
C1233 C1232 1.415 . S
H1234 C1231 0.999 . S
H1235 C1216 0.913 . S
H1236 C1254 0.951 . S
H1237 C1256 0.951 . S
H1238 C1258 0.950 . S
H1239 C1259 0.950 . S
H1240 C1261 0.950 . S
H1241 C1264 0.950 . S
H1242 C1265 0.950 . S
H1243 C1267 0.950 . S
H1244 C1268 0.950 . S
H1245 C1269 0.951 . S
H1246 C1271 0.951 . S
H1247 C1273 0.950 . S
H1248 C1274 0.950 . S
H1249 C1276 0.950 . S
H1250 C1279 0.950 . S
H1251 C1280 0.950 . S
H1252 C1282 0.950 . S
H1253 C1283 0.950 . S
C1254 H1236 0.951 . S
C1254 C1255 1.366 . S
C1254 C1256 1.388 . S
C1255 C1254 1.366 . S
C1255 C1259 1.385 . S
C1256 H1237 0.951 . S
C1256 C1254 1.388 . S
C1256 C1257 1.366 . S
C1257 C1256 1.366 . S
C1257 C1258 1.414 . S
C1257 C1260 1.499 . S
C1258 H1238 0.950 . S
C1258 C1257 1.414 . S
C1258 C1259 1.374 . S
C1259 H1239 0.950 . S
C1259 C1255 1.385 . S
C1259 C1258 1.374 . S
C1260 C1257 1.499 . S
C1260 C1261 1.373 . S
C1260 C1262 1.389 . S
C1261 H1240 0.950 . S
C1261 C1260 1.373 . S
C1261 C1277 1.377 . S
C1262 C1260 1.389 . S
C1262 C1263 1.524 . S
C1262 C1276 1.377 . S
C1263 C1262 1.524 . S
C1263 C1264 1.397 . S
C1263 C1268 1.363 . S
C1264 H1241 0.950 . S
C1264 C1263 1.397 . S
C1264 C1265 1.334 . S
C1265 H1242 0.950 . S
C1265 C1264 1.334 . S
C1265 C1266 1.287 . S
C1266 C1265 1.287 . S
C1266 C1267 1.524 . S
C1266 H1285 0.913 . S
C1267 H1243 0.950 . S
C1267 C1266 1.524 . S
C1267 C1268 1.415 . S
C1268 H1244 0.950 . S
C1268 C1263 1.363 . S
C1268 C1267 1.415 . S
C1269 H1245 0.951 . S
C1269 C1270 1.366 . S
C1269 C1271 1.388 . S
C1270 C1269 1.366 . S
C1270 C1274 1.385 . S
C1271 H1246 0.951 . S
C1271 C1269 1.388 . S
C1271 C1272 1.366 . S
C1272 C1271 1.366 . S
C1272 C1273 1.414 . S
C1272 C1275 1.499 . S
C1273 H1247 0.950 . S
C1273 C1272 1.414 . S
C1273 C1274 1.374 . S
C1274 H1248 0.950 . S
C1274 C1270 1.385 . S
C1274 C1273 1.374 . S
C1275 C1272 1.499 . S
C1275 C1276 1.373 . S
C1275 C1277 1.389 . S
C1276 H1249 0.950 . S
C1276 C1262 1.377 . S
C1276 C1275 1.373 . S
C1277 C1261 1.377 . S
C1277 C1275 1.389 . S
C1277 C1278 1.524 . S
C1278 C1277 1.524 . S
C1278 C1279 1.397 . S
C1278 C1283 1.363 . S
C1279 H1250 0.950 . S
C1279 C1278 1.397 . S
C1279 C1280 1.334 . S
C1280 H1251 0.950 . S
C1280 C1279 1.334 . S
C1280 C1281 1.287 . S
C1281 C1280 1.287 . S
C1281 C1282 1.524 . S
C1281 H1284 0.999 . S
C1282 H1252 0.950 . S
C1282 C1281 1.524 . S
C1282 C1283 1.415 . S
C1283 H1253 0.950 . S
C1283 C1278 1.363 . S
C1283 C1282 1.415 . S
H1284 C1281 0.999 . S
H1285 C1266 0.913 . S
H1286 C1304 0.951 . S
H1287 C1306 0.951 . S
H1288 C1308 0.950 . S
H1289 C1309 0.950 . S
H1290 C1311 0.950 . S
H1291 C1314 0.950 . S
H1292 C1315 0.950 . S
H1293 C1317 0.950 . S
H1294 C1318 0.950 . S
H1295 C1319 0.951 . S
H1296 C1321 0.951 . S
H1297 C1323 0.950 . S
H1298 C1324 0.950 . S
H1299 C1326 0.950 . S
H1300 C1329 0.950 . S
H1301 C1330 0.950 . S
H1302 C1332 0.950 . S
H1303 C1333 0.950 . S
C1304 H1286 0.951 . S
C1304 C1305 1.366 . S
C1304 C1306 1.388 . S
C1305 C1304 1.366 . S
C1305 C1309 1.385 . S
C1306 H1287 0.951 . S
C1306 C1304 1.388 . S
C1306 C1307 1.366 . S
C1307 C1306 1.366 . S
C1307 C1308 1.414 . S
C1307 C1310 1.499 . S
C1308 H1288 0.950 . S
C1308 C1307 1.414 . S
C1308 C1309 1.374 . S
C1309 H1289 0.950 . S
C1309 C1305 1.385 . S
C1309 C1308 1.374 . S
C1310 C1307 1.499 . S
C1310 C1311 1.373 . S
C1310 C1312 1.389 . S
C1311 H1290 0.950 . S
C1311 C1310 1.373 . S
C1311 C1327 1.377 . S
C1312 C1310 1.389 . S
C1312 C1313 1.524 . S
C1312 C1326 1.377 . S
C1313 C1312 1.524 . S
C1313 C1314 1.397 . S
C1313 C1318 1.363 . S
C1314 H1291 0.950 . S
C1314 C1313 1.397 . S
C1314 C1315 1.334 . S
C1315 H1292 0.950 . S
C1315 C1314 1.334 . S
C1315 C1316 1.287 . S
C1316 C1315 1.287 . S
C1316 C1317 1.524 . S
C1316 H1335 0.913 . S
C1317 H1293 0.950 . S
C1317 C1316 1.524 . S
C1317 C1318 1.415 . S
C1318 H1294 0.950 . S
C1318 C1313 1.363 . S
C1318 C1317 1.415 . S
C1319 H1295 0.951 . S
C1319 C1320 1.366 . S
C1319 C1321 1.388 . S
C1320 C1319 1.366 . S
C1320 C1324 1.385 . S
C1321 H1296 0.951 . S
C1321 C1319 1.388 . S
C1321 C1322 1.366 . S
C1322 C1321 1.366 . S
C1322 C1323 1.414 . S
C1322 C1325 1.499 . S
C1323 H1297 0.950 . S
C1323 C1322 1.414 . S
C1323 C1324 1.374 . S
C1324 H1298 0.950 . S
C1324 C1320 1.385 . S
C1324 C1323 1.374 . S
C1325 C1322 1.499 . S
C1325 C1326 1.373 . S
C1325 C1327 1.389 . S
C1326 H1299 0.950 . S
C1326 C1312 1.377 . S
C1326 C1325 1.373 . S
C1327 C1311 1.377 . S
C1327 C1325 1.389 . S
C1327 C1328 1.524 . S
C1328 C1327 1.524 . S
C1328 C1329 1.397 . S
C1328 C1333 1.363 . S
C1329 H1300 0.950 . S
C1329 C1328 1.397 . S
C1329 C1330 1.334 . S
C1330 H1301 0.950 . S
C1330 C1329 1.334 . S
C1330 C1331 1.287 . S
C1331 C1330 1.287 . S
C1331 C1332 1.524 . S
C1331 H1334 0.999 . S
C1332 H1302 0.950 . S
C1332 C1331 1.524 . S
C1332 C1333 1.415 . S
C1333 H1303 0.950 . S
C1333 C1328 1.363 . S
C1333 C1332 1.415 . S
H1334 C1331 0.999 . S
H1335 C1316 0.913 . S
H1336 C1354 0.951 . S
H1337 C1356 0.951 . S
H1338 C1358 0.950 . S
H1339 C1359 0.950 . S
H1340 C1361 0.950 . S
H1341 C1364 0.950 . S
H1342 C1365 0.950 . S
H1343 C1367 0.950 . S
H1344 C1368 0.950 . S
H1345 C1369 0.951 . S
H1346 C1371 0.951 . S
H1347 C1373 0.950 . S
H1348 C1374 0.950 . S
H1349 C1376 0.950 . S
H1350 C1379 0.950 . S
H1351 C1380 0.950 . S
H1352 C1382 0.950 . S
H1353 C1383 0.950 . S
C1354 H1336 0.951 . S
C1354 C1355 1.366 . S
C1354 C1356 1.388 . S
C1355 C1354 1.366 . S
C1355 C1359 1.385 . S
C1356 H1337 0.951 . S
C1356 C1354 1.388 . S
C1356 C1357 1.366 . S
C1357 C1356 1.366 . S
C1357 C1358 1.414 . S
C1357 C1360 1.499 . S
C1358 H1338 0.950 . S
C1358 C1357 1.414 . S
C1358 C1359 1.374 . S
C1359 H1339 0.950 . S
C1359 C1355 1.385 . S
C1359 C1358 1.374 . S
C1360 C1357 1.499 . S
C1360 C1361 1.373 . S
C1360 C1362 1.389 . S
C1361 H1340 0.950 . S
C1361 C1360 1.373 . S
C1361 C1377 1.377 . S
C1362 C1360 1.389 . S
C1362 C1363 1.524 . S
C1362 C1376 1.377 . S
C1363 C1362 1.524 . S
C1363 C1364 1.397 . S
C1363 C1368 1.363 . S
C1364 H1341 0.950 . S
C1364 C1363 1.397 . S
C1364 C1365 1.334 . S
C1365 H1342 0.950 . S
C1365 C1364 1.334 . S
C1365 C1366 1.287 . S
C1366 C1365 1.287 . S
C1366 C1367 1.524 . S
C1366 H1385 0.913 . S
C1367 H1343 0.950 . S
C1367 C1366 1.524 . S
C1367 C1368 1.415 . S
C1368 H1344 0.950 . S
C1368 C1363 1.363 . S
C1368 C1367 1.415 . S
C1369 H1345 0.951 . S
C1369 C1370 1.366 . S
C1369 C1371 1.388 . S
C1370 C1369 1.366 . S
C1370 C1374 1.385 . S
C1371 H1346 0.951 . S
C1371 C1369 1.388 . S
C1371 C1372 1.366 . S
C1372 C1371 1.366 . S
C1372 C1373 1.414 . S
C1372 C1375 1.499 . S
C1373 H1347 0.950 . S
C1373 C1372 1.414 . S
C1373 C1374 1.374 . S
C1374 H1348 0.950 . S
C1374 C1370 1.385 . S
C1374 C1373 1.374 . S
C1375 C1372 1.499 . S
C1375 C1376 1.373 . S
C1375 C1377 1.389 . S
C1376 H1349 0.950 . S
C1376 C1362 1.377 . S
C1376 C1375 1.373 . S
C1377 C1361 1.377 . S
C1377 C1375 1.389 . S
C1377 C1378 1.524 . S
C1378 C1377 1.524 . S
C1378 C1379 1.397 . S
C1378 C1383 1.363 . S
C1379 H1350 0.950 . S
C1379 C1378 1.397 . S
C1379 C1380 1.334 . S
C1380 H1351 0.950 . S
C1380 C1379 1.334 . S
C1380 C1381 1.287 . S
C1381 C1380 1.287 . S
C1381 C1382 1.524 . S
C1381 H1384 0.999 . S
C1382 H1352 0.950 . S
C1382 C1381 1.524 . S
C1382 C1383 1.415 . S
C1383 H1353 0.950 . S
C1383 C1378 1.363 . S
C1383 C1382 1.415 . S
H1384 C1381 0.999 . S
H1385 C1366 0.913 . S
H1386 C1404 0.951 . S
H1387 C1406 0.951 . S
H1388 C1408 0.950 . S
H1389 C1409 0.950 . S
H1390 C1411 0.950 . S
H1391 C1414 0.950 . S
H1392 C1415 0.950 . S
H1393 C1417 0.950 . S
H1394 C1418 0.950 . S
H1395 C1419 0.951 . S
H1396 C1421 0.951 . S
H1397 C1423 0.950 . S
H1398 C1424 0.950 . S
H1399 C1426 0.950 . S
H1400 C1429 0.950 . S
H1401 C1430 0.950 . S
H1402 C1432 0.950 . S
H1403 C1433 0.950 . S
C1404 H1386 0.951 . S
C1404 C1405 1.366 . S
C1404 C1406 1.388 . S
C1405 C1404 1.366 . S
C1405 C1409 1.385 . S
C1406 H1387 0.951 . S
C1406 C1404 1.388 . S
C1406 C1407 1.366 . S
C1407 C1406 1.366 . S
C1407 C1408 1.414 . S
C1407 C1410 1.499 . S
C1408 H1388 0.950 . S
C1408 C1407 1.414 . S
C1408 C1409 1.374 . S
C1409 H1389 0.950 . S
C1409 C1405 1.385 . S
C1409 C1408 1.374 . S
C1410 C1407 1.499 . S
C1410 C1411 1.373 . S
C1410 C1412 1.389 . S
C1411 H1390 0.950 . S
C1411 C1410 1.373 . S
C1411 C1427 1.377 . S
C1412 C1410 1.389 . S
C1412 C1413 1.524 . S
C1412 C1426 1.377 . S
C1413 C1412 1.524 . S
C1413 C1414 1.397 . S
C1413 C1418 1.363 . S
C1414 H1391 0.950 . S
C1414 C1413 1.397 . S
C1414 C1415 1.334 . S
C1415 H1392 0.950 . S
C1415 C1414 1.334 . S
C1415 C1416 1.287 . S
C1416 C1415 1.287 . S
C1416 C1417 1.524 . S
C1416 H1435 0.913 . S
C1417 H1393 0.950 . S
C1417 C1416 1.524 . S
C1417 C1418 1.415 . S
C1418 H1394 0.950 . S
C1418 C1413 1.363 . S
C1418 C1417 1.415 . S
C1419 H1395 0.951 . S
C1419 C1420 1.366 . S
C1419 C1421 1.388 . S
C1420 C1419 1.366 . S
C1420 C1424 1.385 . S
C1421 H1396 0.951 . S
C1421 C1419 1.388 . S
C1421 C1422 1.366 . S
C1422 C1421 1.366 . S
C1422 C1423 1.414 . S
C1422 C1425 1.499 . S
C1423 H1397 0.950 . S
C1423 C1422 1.414 . S
C1423 C1424 1.374 . S
C1424 H1398 0.950 . S
C1424 C1420 1.385 . S
C1424 C1423 1.374 . S
C1425 C1422 1.499 . S
C1425 C1426 1.373 . S
C1425 C1427 1.389 . S
C1426 H1399 0.950 . S
C1426 C1412 1.377 . S
C1426 C1425 1.373 . S
C1427 C1411 1.377 . S
C1427 C1425 1.389 . S
C1427 C1428 1.524 . S
C1428 C1427 1.524 . S
C1428 C1429 1.397 . S
C1428 C1433 1.363 . S
C1429 H1400 0.950 . S
C1429 C1428 1.397 . S
C1429 C1430 1.334 . S
C1430 H1401 0.950 . S
C1430 C1429 1.334 . S
C1430 C1431 1.287 . S
C1431 C1430 1.287 . S
C1431 C1432 1.524 . S
C1431 H1434 0.999 . S
C1432 H1402 0.950 . S
C1432 C1431 1.524 . S
C1432 C1433 1.415 . S
C1433 H1403 0.950 . S
C1433 C1428 1.363 . S
C1433 C1432 1.415 . S
H1434 C1431 0.999 . S
H1435 C1416 0.913 . S
H1436 C1454 0.951 . S
H1437 C1456 0.951 . S
H1438 C1458 0.950 . S
H1439 C1459 0.950 . S
H1440 C1461 0.950 . S
H1441 C1464 0.950 . S
H1442 C1465 0.950 . S
H1443 C1467 0.950 . S
H1444 C1468 0.950 . S
H1445 C1469 0.951 . S
H1446 C1471 0.951 . S
H1447 C1473 0.950 . S
H1448 C1474 0.950 . S
H1449 C1476 0.950 . S
H1450 C1479 0.950 . S
H1451 C1480 0.950 . S
H1452 C1482 0.950 . S
H1453 C1483 0.950 . S
C1454 H1436 0.951 . S
C1454 C1455 1.366 . S
C1454 C1456 1.388 . S
C1455 C1454 1.366 . S
C1455 C1459 1.385 . S
C1456 H1437 0.951 . S
C1456 C1454 1.388 . S
C1456 C1457 1.366 . S
C1457 C1456 1.366 . S
C1457 C1458 1.414 . S
C1457 C1460 1.499 . S
C1458 H1438 0.950 . S
C1458 C1457 1.414 . S
C1458 C1459 1.374 . S
C1459 H1439 0.950 . S
C1459 C1455 1.385 . S
C1459 C1458 1.374 . S
C1460 C1457 1.499 . S
C1460 C1461 1.373 . S
C1460 C1462 1.389 . S
C1461 H1440 0.950 . S
C1461 C1460 1.373 . S
C1461 C1477 1.377 . S
C1462 C1460 1.389 . S
C1462 C1463 1.524 . S
C1462 C1476 1.377 . S
C1463 C1462 1.524 . S
C1463 C1464 1.397 . S
C1463 C1468 1.363 . S
C1464 H1441 0.950 . S
C1464 C1463 1.397 . S
C1464 C1465 1.334 . S
C1465 H1442 0.950 . S
C1465 C1464 1.334 . S
C1465 C1466 1.287 . S
C1466 C1465 1.287 . S
C1466 C1467 1.524 . S
C1466 H1485 0.913 . S
C1467 H1443 0.950 . S
C1467 C1466 1.524 . S
C1467 C1468 1.415 . S
C1468 H1444 0.950 . S
C1468 C1463 1.363 . S
C1468 C1467 1.415 . S
C1469 H1445 0.951 . S
C1469 C1470 1.366 . S
C1469 C1471 1.388 . S
C1470 C1469 1.366 . S
C1470 C1474 1.385 . S
C1471 H1446 0.951 . S
C1471 C1469 1.388 . S
C1471 C1472 1.366 . S
C1472 C1471 1.366 . S
C1472 C1473 1.414 . S
C1472 C1475 1.499 . S
C1473 H1447 0.950 . S
C1473 C1472 1.414 . S
C1473 C1474 1.374 . S
C1474 H1448 0.950 . S
C1474 C1470 1.385 . S
C1474 C1473 1.374 . S
C1475 C1472 1.499 . S
C1475 C1476 1.373 . S
C1475 C1477 1.389 . S
C1476 H1449 0.950 . S
C1476 C1462 1.377 . S
C1476 C1475 1.373 . S
C1477 C1461 1.377 . S
C1477 C1475 1.389 . S
C1477 C1478 1.524 . S
C1478 C1477 1.524 . S
C1478 C1479 1.397 . S
C1478 C1483 1.363 . S
C1479 H1450 0.950 . S
C1479 C1478 1.397 . S
C1479 C1480 1.334 . S
C1480 H1451 0.950 . S
C1480 C1479 1.334 . S
C1480 C1481 1.287 . S
C1481 C1480 1.287 . S
C1481 C1482 1.524 . S
C1481 H1484 0.999 . S
C1482 H1452 0.950 . S
C1482 C1481 1.524 . S
C1482 C1483 1.415 . S
C1483 H1453 0.950 . S
C1483 C1478 1.363 . S
C1483 C1482 1.415 . S
H1484 C1481 0.999 . S
H1485 C1466 0.913 . S
H1486 C1504 0.951 . S
H1487 C1506 0.951 . S
H1488 C1508 0.950 . S
H1489 C1509 0.950 . S
H1490 C1511 0.950 . S
H1491 C1514 0.950 . S
H1492 C1515 0.950 . S
H1493 C1517 0.950 . S
H1494 C1518 0.950 . S
H1495 C1519 0.951 . S
H1496 C1521 0.951 . S
H1497 C1523 0.950 . S
H1498 C1524 0.950 . S
H1499 C1526 0.950 . S
H1500 C1529 0.950 . S
H1501 C1530 0.950 . S
H1502 C1532 0.950 . S
H1503 C1533 0.950 . S
C1504 H1486 0.951 . S
C1504 C1505 1.366 . S
C1504 C1506 1.388 . S
C1505 C1504 1.366 . S
C1505 C1509 1.385 . S
C1506 H1487 0.951 . S
C1506 C1504 1.388 . S
C1506 C1507 1.366 . S
C1507 C1506 1.366 . S
C1507 C1508 1.414 . S
C1507 C1510 1.499 . S
C1508 H1488 0.950 . S
C1508 C1507 1.414 . S
C1508 C1509 1.374 . S
C1509 H1489 0.950 . S
C1509 C1505 1.385 . S
C1509 C1508 1.374 . S
C1510 C1507 1.499 . S
C1510 C1511 1.373 . S
C1510 C1512 1.389 . S
C1511 H1490 0.950 . S
C1511 C1510 1.373 . S
C1511 C1527 1.377 . S
C1512 C1510 1.389 . S
C1512 C1513 1.524 . S
C1512 C1526 1.377 . S
C1513 C1512 1.524 . S
C1513 C1514 1.397 . S
C1513 C1518 1.363 . S
C1514 H1491 0.950 . S
C1514 C1513 1.397 . S
C1514 C1515 1.334 . S
C1515 H1492 0.950 . S
C1515 C1514 1.334 . S
C1515 C1516 1.287 . S
C1516 C1515 1.287 . S
C1516 C1517 1.524 . S
C1516 H1535 0.913 . S
C1517 H1493 0.950 . S
C1517 C1516 1.524 . S
C1517 C1518 1.415 . S
C1518 H1494 0.950 . S
C1518 C1513 1.363 . S
C1518 C1517 1.415 . S
C1519 H1495 0.951 . S
C1519 C1520 1.366 . S
C1519 C1521 1.388 . S
C1520 C1519 1.366 . S
C1520 C1524 1.385 . S
C1521 H1496 0.951 . S
C1521 C1519 1.388 . S
C1521 C1522 1.366 . S
C1522 C1521 1.366 . S
C1522 C1523 1.414 . S
C1522 C1525 1.499 . S
C1523 H1497 0.950 . S
C1523 C1522 1.414 . S
C1523 C1524 1.374 . S
C1524 H1498 0.950 . S
C1524 C1520 1.385 . S
C1524 C1523 1.374 . S
C1525 C1522 1.499 . S
C1525 C1526 1.373 . S
C1525 C1527 1.389 . S
C1526 H1499 0.950 . S
C1526 C1512 1.377 . S
C1526 C1525 1.373 . S
C1527 C1511 1.377 . S
C1527 C1525 1.389 . S
C1527 C1528 1.524 . S
C1528 C1527 1.524 . S
C1528 C1529 1.397 . S
C1528 C1533 1.363 . S
C1529 H1500 0.950 . S
C1529 C1528 1.397 . S
C1529 C1530 1.334 . S
C1530 H1501 0.950 . S
C1530 C1529 1.334 . S
C1530 C1531 1.287 . S
C1531 C1530 1.287 . S
C1531 C1532 1.524 . S
C1531 H1534 0.999 . S
C1532 H1502 0.950 . S
C1532 C1531 1.524 . S
C1532 C1533 1.415 . S
C1533 H1503 0.950 . S
C1533 C1528 1.363 . S
C1533 C1532 1.415 . S
H1534 C1531 0.999 . S
H1535 C1516 0.913 . S
H1536 C1554 0.951 . S
H1537 C1556 0.951 . S
H1538 C1558 0.950 . S
H1539 C1559 0.950 . S
H1540 C1561 0.950 . S
H1541 C1564 0.950 . S
H1542 C1565 0.950 . S
H1543 C1567 0.950 . S
H1544 C1568 0.950 . S
H1545 C1569 0.951 . S
H1546 C1571 0.951 . S
H1547 C1573 0.950 . S
H1548 C1574 0.950 . S
H1549 C1576 0.950 . S
H1550 C1579 0.950 . S
H1551 C1580 0.950 . S
H1552 C1582 0.950 . S
H1553 C1583 0.950 . S
C1554 H1536 0.951 . S
C1554 C1555 1.366 . S
C1554 C1556 1.388 . S
C1555 C1554 1.366 . S
C1555 C1559 1.385 . S
C1556 H1537 0.951 . S
C1556 C1554 1.388 . S
C1556 C1557 1.366 . S
C1557 C1556 1.366 . S
C1557 C1558 1.414 . S
C1557 C1560 1.499 . S
C1558 H1538 0.950 . S
C1558 C1557 1.414 . S
C1558 C1559 1.374 . S
C1559 H1539 0.950 . S
C1559 C1555 1.385 . S
C1559 C1558 1.374 . S
C1560 C1557 1.499 . S
C1560 C1561 1.373 . S
C1560 C1562 1.389 . S
C1561 H1540 0.950 . S
C1561 C1560 1.373 . S
C1561 C1577 1.377 1_554 S
C1562 C1560 1.389 . S
C1562 C1563 1.524 . S
C1562 C1576 1.377 1_554 S
C1563 C1562 1.524 . S
C1563 C1564 1.397 . S
C1563 C1568 1.363 . S
C1564 H1541 0.950 . S
C1564 C1563 1.397 . S
C1564 C1565 1.334 . S
C1565 H1542 0.950 . S
C1565 C1564 1.334 . S
C1565 C1566 1.287 . S
C1566 C1565 1.287 . S
C1566 C1567 1.524 . S
C1566 H1585 0.913 . S
C1567 H1543 0.950 . S
C1567 C1566 1.524 . S
C1567 C1568 1.415 . S
C1568 H1544 0.950 . S
C1568 C1563 1.363 . S
C1568 C1567 1.415 . S
C1569 H1545 0.951 . S
C1569 C1570 1.366 . S
C1569 C1571 1.388 . S
C1570 C1569 1.366 . S
C1570 C1574 1.385 . S
C1571 H1546 0.951 . S
C1571 C1569 1.388 . S
C1571 C1572 1.366 . S
C1572 C1571 1.366 . S
C1572 C1573 1.414 . S
C1572 C1575 1.499 . S
C1573 H1547 0.950 . S
C1573 C1572 1.414 . S
C1573 C1574 1.374 . S
C1574 H1548 0.950 . S
C1574 C1570 1.385 . S
C1574 C1573 1.374 . S
C1575 C1572 1.499 . S
C1575 C1576 1.373 . S
C1575 C1577 1.389 . S
C1576 H1549 0.950 . S
C1576 C1562 1.377 1_556 S
C1576 C1575 1.373 . S
C1577 C1561 1.377 1_556 S
C1577 C1575 1.389 . S
C1577 C1578 1.524 . S
C1578 C1577 1.524 . S
C1578 C1579 1.397 . S
C1578 C1583 1.363 . S
C1579 H1550 0.950 . S
C1579 C1578 1.397 . S
C1579 C1580 1.334 . S
C1580 H1551 0.950 . S
C1580 C1579 1.334 . S
C1580 C1581 1.287 . S
C1581 C1580 1.287 . S
C1581 C1582 1.524 . S
C1581 H1584 0.999 . S
C1582 H1552 0.950 . S
C1582 C1581 1.524 . S
C1582 C1583 1.415 . S
C1583 H1553 0.950 . S
C1583 C1578 1.363 . S
C1583 C1582 1.415 . S
H1584 C1581 0.999 . S
H1585 C1566 0.913 . S
H1586 C1604 0.951 . S
H1587 C1606 0.951 . S
H1588 C1608 0.950 . S
H1589 C1609 0.950 . S
H1590 C1611 0.950 . S
H1591 C1614 0.950 . S
H1592 C1615 0.950 . S
H1593 C1617 0.950 . S
H1594 C1618 0.950 . S
H1595 C1619 0.951 . S
H1596 C1621 0.951 . S
H1597 C1623 0.950 . S
H1598 C1624 0.950 . S
H1599 C1626 0.950 . S
H1600 C1629 0.950 . S
H1601 C1630 0.950 . S
H1602 C1632 0.950 . S
H1603 C1633 0.950 . S
C1604 H1586 0.951 . S
C1604 C1605 1.366 . S
C1604 C1606 1.388 . S
C1605 C1604 1.366 . S
C1605 C1609 1.385 . S
C1606 H1587 0.951 . S
C1606 C1604 1.388 . S
C1606 C1607 1.366 . S
C1607 C1606 1.366 . S
C1607 C1608 1.414 . S
C1607 C1610 1.499 . S
C1608 H1588 0.950 . S
C1608 C1607 1.414 . S
C1608 C1609 1.374 . S
C1609 H1589 0.950 . S
C1609 C1605 1.385 . S
C1609 C1608 1.374 . S
C1610 C1607 1.499 . S
C1610 C1611 1.373 . S
C1610 C1612 1.389 . S
C1611 H1590 0.950 . S
C1611 C1610 1.373 . S
C1611 C1627 1.377 1_556 S
C1612 C1610 1.389 . S
C1612 C1613 1.524 . S
C1612 C1626 1.377 1_556 S
C1613 C1612 1.524 . S
C1613 C1614 1.397 . S
C1613 C1618 1.363 . S
C1614 H1591 0.950 . S
C1614 C1613 1.397 . S
C1614 C1615 1.334 . S
C1615 H1592 0.950 . S
C1615 C1614 1.334 . S
C1615 C1616 1.287 . S
C1616 C1615 1.287 . S
C1616 C1617 1.524 . S
C1616 H1635 0.913 . S
C1617 H1593 0.950 . S
C1617 C1616 1.524 . S
C1617 C1618 1.415 . S
C1618 H1594 0.950 . S
C1618 C1613 1.363 . S
C1618 C1617 1.415 . S
C1619 H1595 0.951 . S
C1619 C1620 1.366 . S
C1619 C1621 1.388 . S
C1620 C1619 1.366 . S
C1620 C1624 1.385 . S
C1621 H1596 0.951 . S
C1621 C1619 1.388 . S
C1621 C1622 1.366 . S
C1622 C1621 1.366 . S
C1622 C1623 1.414 . S
C1622 C1625 1.499 . S
C1623 H1597 0.950 . S
C1623 C1622 1.414 . S
C1623 C1624 1.374 . S
C1624 H1598 0.950 . S
C1624 C1620 1.385 . S
C1624 C1623 1.374 . S
C1625 C1622 1.499 . S
C1625 C1626 1.373 . S
C1625 C1627 1.389 . S
C1626 H1599 0.950 . S
C1626 C1612 1.377 1_554 S
C1626 C1625 1.373 . S
C1627 C1611 1.377 1_554 S
C1627 C1625 1.389 . S
C1627 C1628 1.524 . S
C1628 C1627 1.524 . S
C1628 C1629 1.397 . S
C1628 C1633 1.363 . S
C1629 H1600 0.950 . S
C1629 C1628 1.397 . S
C1629 C1630 1.334 . S
C1630 H1601 0.950 . S
C1630 C1629 1.334 . S
C1630 C1631 1.287 . S
C1631 C1630 1.287 . S
C1631 C1632 1.524 . S
C1631 H1634 0.999 . S
C1632 H1602 0.950 . S
C1632 C1631 1.524 . S
C1632 C1633 1.415 . S
C1633 H1603 0.950 . S
C1633 C1628 1.363 . S
C1633 C1632 1.415 . S
H1634 C1631 0.999 . S
H1635 C1616 0.913 . S
H1636 C1654 0.951 . S
H1637 C1656 0.951 . S
H1638 C1658 0.950 . S
H1639 C1659 0.950 . S
H1640 C1661 0.950 . S
H1641 C1664 0.950 . S
H1642 C1665 0.950 . S
H1643 C1667 0.950 . S
H1644 C1668 0.950 . S
H1645 C1669 0.951 . S
H1646 C1671 0.951 . S
H1647 C1673 0.950 . S
H1648 C1674 0.950 . S
H1649 C1676 0.950 . S
H1650 C1679 0.950 . S
H1651 C1680 0.950 . S
H1652 C1682 0.950 . S
H1653 C1683 0.950 . S
C1654 H1636 0.951 . S
C1654 C1655 1.366 . S
C1654 C1656 1.388 . S
C1655 C1654 1.366 . S
C1655 C1659 1.385 . S
C1656 H1637 0.951 . S
C1656 C1654 1.388 . S
C1656 C1657 1.366 . S
C1657 C1656 1.366 . S
C1657 C1658 1.414 . S
C1657 C1660 1.499 . S
C1658 H1638 0.950 . S
C1658 C1657 1.414 . S
C1658 C1659 1.374 . S
C1659 H1639 0.950 . S
C1659 C1655 1.385 . S
C1659 C1658 1.374 . S
C1660 C1657 1.499 . S
C1660 C1661 1.373 . S
C1660 C1662 1.389 . S
C1661 H1640 0.950 . S
C1661 C1660 1.373 . S
C1661 C1677 1.377 1_556 S
C1662 C1660 1.389 . S
C1662 C1663 1.524 . S
C1662 C1676 1.377 1_556 S
C1663 C1662 1.524 . S
C1663 C1664 1.397 . S
C1663 C1668 1.363 . S
C1664 H1641 0.950 . S
C1664 C1663 1.397 . S
C1664 C1665 1.334 . S
C1665 H1642 0.950 . S
C1665 C1664 1.334 . S
C1665 C1666 1.287 . S
C1666 C1665 1.287 . S
C1666 C1667 1.524 . S
C1666 H1685 0.913 . S
C1667 H1643 0.950 . S
C1667 C1666 1.524 . S
C1667 C1668 1.415 . S
C1668 H1644 0.950 . S
C1668 C1663 1.363 . S
C1668 C1667 1.415 . S
C1669 H1645 0.951 . S
C1669 C1670 1.366 . S
C1669 C1671 1.388 . S
C1670 C1669 1.366 . S
C1670 C1674 1.385 . S
C1671 H1646 0.951 . S
C1671 C1669 1.388 . S
C1671 C1672 1.366 . S
C1672 C1671 1.366 . S
C1672 C1673 1.414 . S
C1672 C1675 1.499 . S
C1673 H1647 0.950 . S
C1673 C1672 1.414 . S
C1673 C1674 1.374 . S
C1674 H1648 0.950 . S
C1674 C1670 1.385 . S
C1674 C1673 1.374 . S
C1675 C1672 1.499 . S
C1675 C1676 1.373 . S
C1675 C1677 1.389 . S
C1676 H1649 0.950 . S
C1676 C1662 1.377 1_554 S
C1676 C1675 1.373 . S
C1677 C1661 1.377 1_554 S
C1677 C1675 1.389 . S
C1677 C1678 1.524 . S
C1678 C1677 1.524 . S
C1678 C1679 1.397 . S
C1678 C1683 1.363 . S
C1679 H1650 0.950 . S
C1679 C1678 1.397 . S
C1679 C1680 1.334 . S
C1680 H1651 0.950 . S
C1680 C1679 1.334 . S
C1680 C1681 1.287 . S
C1681 C1680 1.287 . S
C1681 C1682 1.524 . S
C1681 H1684 0.999 . S
C1682 H1652 0.950 . S
C1682 C1681 1.524 . S
C1682 C1683 1.415 . S
C1683 H1653 0.950 . S
C1683 C1678 1.363 . S
C1683 C1682 1.415 . S
H1684 C1681 0.999 . S
H1685 C1666 0.913 . S
H1686 C1704 0.951 . S
H1687 C1706 0.951 . S
H1688 C1708 0.950 . S
H1689 C1709 0.950 . S
H1690 C1711 0.950 . S
H1691 C1714 0.950 . S
H1692 C1715 0.950 . S
H1693 C1717 0.950 . S
H1694 C1718 0.950 . S
H1695 C1719 0.951 . S
H1696 C1721 0.951 . S
H1697 C1723 0.950 . S
H1698 C1724 0.950 . S
H1699 C1726 0.950 . S
H1700 C1729 0.950 . S
H1701 C1730 0.950 . S
H1702 C1732 0.950 . S
H1703 C1733 0.950 . S
C1704 H1686 0.951 . S
C1704 C1705 1.366 . S
C1704 C1706 1.388 . S
C1705 C1704 1.366 . S
C1705 C1709 1.385 . S
C1706 H1687 0.951 . S
C1706 C1704 1.388 . S
C1706 C1707 1.366 . S
C1707 C1706 1.366 . S
C1707 C1708 1.414 . S
C1707 C1710 1.499 . S
C1708 H1688 0.950 . S
C1708 C1707 1.414 . S
C1708 C1709 1.374 . S
C1709 H1689 0.950 . S
C1709 C1705 1.385 . S
C1709 C1708 1.374 . S
C1710 C1707 1.499 . S
C1710 C1711 1.373 . S
C1710 C1712 1.389 . S
C1711 H1690 0.950 . S
C1711 C1710 1.373 . S
C1711 C1727 1.377 1_554 S
C1712 C1710 1.389 . S
C1712 C1713 1.524 . S
C1712 C1726 1.377 1_554 S
C1713 C1712 1.524 . S
C1713 C1714 1.397 . S
C1713 C1718 1.363 . S
C1714 H1691 0.950 . S
C1714 C1713 1.397 . S
C1714 C1715 1.334 . S
C1715 H1692 0.950 . S
C1715 C1714 1.334 . S
C1715 C1716 1.287 . S
C1716 C1715 1.287 . S
C1716 C1717 1.524 . S
C1716 H1735 0.913 . S
C1717 H1693 0.950 . S
C1717 C1716 1.524 . S
C1717 C1718 1.415 . S
C1718 H1694 0.950 . S
C1718 C1713 1.363 . S
C1718 C1717 1.415 . S
C1719 H1695 0.951 . S
C1719 C1720 1.366 . S
C1719 C1721 1.388 . S
C1720 C1719 1.366 . S
C1720 C1724 1.385 . S
C1721 H1696 0.951 . S
C1721 C1719 1.388 . S
C1721 C1722 1.366 . S
C1722 C1721 1.366 . S
C1722 C1723 1.414 . S
C1722 C1725 1.499 . S
C1723 H1697 0.950 . S
C1723 C1722 1.414 . S
C1723 C1724 1.374 . S
C1724 H1698 0.950 . S
C1724 C1720 1.385 . S
C1724 C1723 1.374 . S
C1725 C1722 1.499 . S
C1725 C1726 1.373 . S
C1725 C1727 1.389 . S
C1726 H1699 0.950 . S
C1726 C1712 1.377 1_556 S
C1726 C1725 1.373 . S
C1727 C1711 1.377 1_556 S
C1727 C1725 1.389 . S
C1727 C1728 1.524 . S
C1728 C1727 1.524 . S
C1728 C1729 1.397 . S
C1728 C1733 1.363 . S
C1729 H1700 0.950 . S
C1729 C1728 1.397 . S
C1729 C1730 1.334 . S
C1730 H1701 0.950 . S
C1730 C1729 1.334 . S
C1730 C1731 1.287 . S
C1731 C1730 1.287 . S
C1731 C1732 1.524 . S
C1731 H1734 0.999 . S
C1732 H1702 0.950 . S
C1732 C1731 1.524 . S
C1732 C1733 1.415 . S
C1733 H1703 0.950 . S
C1733 C1728 1.363 . S
C1733 C1732 1.415 . S
H1734 C1731 0.999 . S
H1735 C1716 0.913 . S
H1736 C1754 0.951 . S
H1737 C1756 0.951 . S
H1738 C1758 0.950 . S
H1739 C1759 0.950 . S
H1740 C1761 0.950 . S
H1741 C1764 0.950 . S
H1742 C1765 0.950 . S
H1743 C1767 0.950 . S
H1744 C1768 0.950 . S
H1745 C1769 0.951 . S
H1746 C1771 0.951 . S
H1747 C1773 0.950 . S
H1748 C1774 0.950 . S
H1749 C1776 0.950 . S
H1750 C1779 0.950 . S
H1751 C1780 0.950 . S
H1752 C1782 0.950 . S
H1753 C1783 0.950 . S
C1754 H1736 0.951 . S
C1754 C1755 1.366 . S
C1754 C1756 1.388 . S
C1755 C1754 1.366 . S
C1755 C1759 1.385 . S
C1756 H1737 0.951 . S
C1756 C1754 1.388 . S
C1756 C1757 1.366 . S
C1757 C1756 1.366 . S
C1757 C1758 1.414 . S
C1757 C1760 1.499 . S
C1758 H1738 0.950 . S
C1758 C1757 1.414 . S
C1758 C1759 1.374 . S
C1759 H1739 0.950 . S
C1759 C1755 1.385 . S
C1759 C1758 1.374 . S
C1760 C1757 1.499 . S
C1760 C1761 1.373 . S
C1760 C1762 1.389 . S
C1761 H1740 0.950 . S
C1761 C1760 1.373 . S
C1761 C1777 1.377 1_554 S
C1762 C1760 1.389 . S
C1762 C1763 1.524 . S
C1762 C1776 1.377 1_554 S
C1763 C1762 1.524 . S
C1763 C1764 1.397 . S
C1763 C1768 1.363 . S
C1764 H1741 0.950 . S
C1764 C1763 1.397 . S
C1764 C1765 1.334 . S
C1765 H1742 0.950 . S
C1765 C1764 1.334 . S
C1765 C1766 1.287 . S
C1766 C1765 1.287 . S
C1766 C1767 1.524 . S
C1766 H1785 0.913 . S
C1767 H1743 0.950 . S
C1767 C1766 1.524 . S
C1767 C1768 1.415 . S
C1768 H1744 0.950 . S
C1768 C1763 1.363 . S
C1768 C1767 1.415 . S
C1769 H1745 0.951 . S
C1769 C1770 1.366 . S
C1769 C1771 1.388 . S
C1770 C1769 1.366 . S
C1770 C1774 1.385 . S
C1771 H1746 0.951 . S
C1771 C1769 1.388 . S
C1771 C1772 1.366 . S
C1772 C1771 1.366 . S
C1772 C1773 1.414 . S
C1772 C1775 1.499 . S
C1773 H1747 0.950 . S
C1773 C1772 1.414 . S
C1773 C1774 1.374 . S
C1774 H1748 0.950 . S
C1774 C1770 1.385 . S
C1774 C1773 1.374 . S
C1775 C1772 1.499 . S
C1775 C1776 1.373 . S
C1775 C1777 1.389 . S
C1776 H1749 0.950 . S
C1776 C1762 1.377 1_556 S
C1776 C1775 1.373 . S
C1777 C1761 1.377 1_556 S
C1777 C1775 1.389 . S
C1777 C1778 1.524 . S
C1778 C1777 1.524 . S
C1778 C1779 1.397 . S
C1778 C1783 1.363 . S
C1779 H1750 0.950 . S
C1779 C1778 1.397 . S
C1779 C1780 1.334 . S
C1780 H1751 0.950 . S
C1780 C1779 1.334 . S
C1780 C1781 1.287 . S
C1781 C1780 1.287 . S
C1781 C1782 1.524 . S
C1781 H1784 0.999 . S
C1782 H1752 0.950 . S
C1782 C1781 1.524 . S
C1782 C1783 1.415 . S
C1783 H1753 0.950 . S
C1783 C1778 1.363 . S
C1783 C1782 1.415 . S
H1784 C1781 0.999 . S
H1785 C1766 0.913 . S
H1786 C1804 0.951 . S
H1787 C1806 0.951 . S
H1788 C1808 0.950 . S
H1789 C1809 0.950 . S
H1790 C1811 0.950 . S
H1791 C1814 0.950 . S
H1792 C1815 0.950 . S
H1793 C1817 0.950 . S
H1794 C1818 0.950 . S
H1795 C1819 0.951 . S
H1796 C1821 0.951 . S
H1797 C1823 0.950 . S
H1798 C1824 0.950 . S
H1799 C1826 0.950 . S
H1800 C1829 0.950 . S
H1801 C1830 0.950 . S
H1802 C1832 0.950 . S
H1803 C1833 0.950 . S
C1804 H1786 0.951 . S
C1804 C1805 1.366 . S
C1804 C1806 1.388 . S
C1805 C1804 1.366 . S
C1805 C1809 1.385 . S
C1806 H1787 0.951 . S
C1806 C1804 1.388 . S
C1806 C1807 1.366 . S
C1807 C1806 1.366 . S
C1807 C1808 1.414 . S
C1807 C1810 1.499 . S
C1808 H1788 0.950 . S
C1808 C1807 1.414 . S
C1808 C1809 1.374 . S
C1809 H1789 0.950 . S
C1809 C1805 1.385 . S
C1809 C1808 1.374 . S
C1810 C1807 1.499 . S
C1810 C1811 1.373 . S
C1810 C1812 1.389 . S
C1811 H1790 0.950 . S
C1811 C1810 1.373 . S
C1811 C1827 1.377 1_556 S
C1812 C1810 1.389 . S
C1812 C1813 1.524 . S
C1812 C1826 1.377 1_556 S
C1813 C1812 1.524 . S
C1813 C1814 1.397 . S
C1813 C1818 1.363 . S
C1814 H1791 0.950 . S
C1814 C1813 1.397 . S
C1814 C1815 1.334 . S
C1815 H1792 0.950 . S
C1815 C1814 1.334 . S
C1815 C1816 1.287 . S
C1816 C1815 1.287 . S
C1816 C1817 1.524 . S
C1816 H1835 0.913 . S
C1817 H1793 0.950 . S
C1817 C1816 1.524 . S
C1817 C1818 1.415 . S
C1818 H1794 0.950 . S
C1818 C1813 1.363 . S
C1818 C1817 1.415 . S
C1819 H1795 0.951 . S
C1819 C1820 1.366 . S
C1819 C1821 1.388 . S
C1820 C1819 1.366 . S
C1820 C1824 1.385 . S
C1821 H1796 0.951 . S
C1821 C1819 1.388 . S
C1821 C1822 1.366 . S
C1822 C1821 1.366 . S
C1822 C1823 1.414 . S
C1822 C1825 1.499 . S
C1823 H1797 0.950 . S
C1823 C1822 1.414 . S
C1823 C1824 1.374 . S
C1824 H1798 0.950 . S
C1824 C1820 1.385 . S
C1824 C1823 1.374 . S
C1825 C1822 1.499 . S
C1825 C1826 1.373 . S
C1825 C1827 1.389 . S
C1826 H1799 0.950 . S
C1826 C1812 1.377 1_554 S
C1826 C1825 1.373 . S
C1827 C1811 1.377 1_554 S
C1827 C1825 1.389 . S
C1827 C1828 1.524 . S
C1828 C1827 1.524 . S
C1828 C1829 1.397 . S
C1828 C1833 1.363 . S
C1829 H1800 0.950 . S
C1829 C1828 1.397 . S
C1829 C1830 1.334 . S
C1830 H1801 0.950 . S
C1830 C1829 1.334 . S
C1830 C1831 1.287 . S
C1831 C1830 1.287 . S
C1831 C1832 1.524 . S
C1831 H1834 0.999 . S
C1832 H1802 0.950 . S
C1832 C1831 1.524 . S
C1832 C1833 1.415 . S
C1833 H1803 0.950 . S
C1833 C1828 1.363 . S
C1833 C1832 1.415 . S
H1834 C1831 0.999 . S
H1835 C1816 0.913 . S
H1836 C1854 0.951 . S
H1837 C1856 0.951 . S
H1838 C1858 0.950 . S
H1839 C1859 0.950 . S
H1840 C1861 0.950 . S
H1841 C1864 0.950 . S
H1842 C1865 0.950 . S
H1843 C1867 0.950 . S
H1844 C1868 0.950 . S
H1845 C1869 0.951 . S
H1846 C1871 0.951 . S
H1847 C1873 0.950 . S
H1848 C1874 0.950 . S
H1849 C1876 0.950 . S
H1850 C1879 0.950 . S
H1851 C1880 0.950 . S
H1852 C1882 0.950 . S
H1853 C1883 0.950 . S
C1854 H1836 0.951 . S
C1854 C1855 1.366 . S
C1854 C1856 1.388 . S
C1855 C1854 1.366 . S
C1855 C1859 1.385 . S
C1856 H1837 0.951 . S
C1856 C1854 1.388 . S
C1856 C1857 1.366 . S
C1857 C1856 1.366 . S
C1857 C1858 1.414 . S
C1857 C1860 1.499 . S
C1858 H1838 0.950 . S
C1858 C1857 1.414 . S
C1858 C1859 1.374 . S
C1859 H1839 0.950 . S
C1859 C1855 1.385 . S
C1859 C1858 1.374 . S
C1860 C1857 1.499 . S
C1860 C1861 1.373 . S
C1860 C1862 1.389 . S
C1861 H1840 0.950 . S
C1861 C1860 1.373 . S
C1861 C1877 1.377 . S
C1862 C1860 1.389 . S
C1862 C1863 1.524 . S
C1862 C1876 1.377 . S
C1863 C1862 1.524 . S
C1863 C1864 1.397 . S
C1863 C1868 1.363 . S
C1864 H1841 0.950 . S
C1864 C1863 1.397 . S
C1864 C1865 1.334 . S
C1865 H1842 0.950 . S
C1865 C1864 1.334 . S
C1865 C1866 1.287 . S
C1866 C1865 1.287 . S
C1866 C1867 1.524 . S
C1866 H1885 0.913 . S
C1867 H1843 0.950 . S
C1867 C1866 1.524 . S
C1867 C1868 1.415 . S
C1868 H1844 0.950 . S
C1868 C1863 1.363 . S
C1868 C1867 1.415 . S
C1869 H1845 0.951 . S
C1869 C1870 1.366 . S
C1869 C1871 1.388 . S
C1870 C1869 1.366 . S
C1870 C1874 1.385 . S
C1871 H1846 0.951 . S
C1871 C1869 1.388 . S
C1871 C1872 1.366 . S
C1872 C1871 1.366 . S
C1872 C1873 1.414 . S
C1872 C1875 1.499 . S
C1873 H1847 0.950 . S
C1873 C1872 1.414 . S
C1873 C1874 1.374 . S
C1874 H1848 0.950 . S
C1874 C1870 1.385 . S
C1874 C1873 1.374 . S
C1875 C1872 1.499 . S
C1875 C1876 1.373 . S
C1875 C1877 1.389 . S
C1876 H1849 0.950 . S
C1876 C1862 1.377 . S
C1876 C1875 1.373 . S
C1877 C1861 1.377 . S
C1877 C1875 1.389 . S
C1877 C1878 1.524 . S
C1878 C1877 1.524 . S
C1878 C1879 1.397 . S
C1878 C1883 1.363 . S
C1879 H1850 0.950 . S
C1879 C1878 1.397 . S
C1879 C1880 1.334 . S
C1880 H1851 0.950 . S
C1880 C1879 1.334 . S
C1880 C1881 1.287 . S
C1881 C1880 1.287 . S
C1881 C1882 1.524 . S
C1881 H1884 0.999 . S
C1882 H1852 0.950 . S
C1882 C1881 1.524 . S
C1882 C1883 1.415 . S
C1883 H1853 0.950 . S
C1883 C1878 1.363 . S
C1883 C1882 1.415 . S
H1884 C1881 0.999 . S
H1885 C1866 0.913 . S
H1886 C1904 0.951 . S
H1887 C1906 0.951 . S
H1888 C1908 0.950 . S
H1889 C1909 0.950 . S
H1890 C1911 0.950 . S
H1891 C1914 0.950 . S
H1892 C1915 0.950 . S
H1893 C1917 0.950 . S
H1894 C1918 0.950 . S
H1895 C1919 0.951 . S
H1896 C1921 0.951 . S
H1897 C1923 0.950 . S
H1898 C1924 0.950 . S
H1899 C1926 0.950 . S
H1900 C1929 0.950 . S
H1901 C1930 0.950 . S
H1902 C1932 0.950 . S
H1903 C1933 0.950 . S
C1904 H1886 0.951 . S
C1904 C1905 1.366 . S
C1904 C1906 1.388 . S
C1905 C1904 1.366 . S
C1905 C1909 1.385 . S
C1906 H1887 0.951 . S
C1906 C1904 1.388 . S
C1906 C1907 1.366 . S
C1907 C1906 1.366 . S
C1907 C1908 1.414 . S
C1907 C1910 1.499 . S
C1908 H1888 0.950 . S
C1908 C1907 1.414 . S
C1908 C1909 1.374 . S
C1909 H1889 0.950 . S
C1909 C1905 1.385 . S
C1909 C1908 1.374 . S
C1910 C1907 1.499 . S
C1910 C1911 1.373 . S
C1910 C1912 1.389 . S
C1911 H1890 0.950 . S
C1911 C1910 1.373 . S
C1911 C1927 1.377 . S
C1912 C1910 1.389 . S
C1912 C1913 1.524 . S
C1912 C1926 1.377 . S
C1913 C1912 1.524 . S
C1913 C1914 1.397 . S
C1913 C1918 1.363 . S
C1914 H1891 0.950 . S
C1914 C1913 1.397 . S
C1914 C1915 1.334 . S
C1915 H1892 0.950 . S
C1915 C1914 1.334 . S
C1915 C1916 1.287 . S
C1916 C1915 1.287 . S
C1916 C1917 1.524 . S
C1916 H1935 0.913 . S
C1917 H1893 0.950 . S
C1917 C1916 1.524 . S
C1917 C1918 1.415 . S
C1918 H1894 0.950 . S
C1918 C1913 1.363 . S
C1918 C1917 1.415 . S
C1919 H1895 0.951 . S
C1919 C1920 1.366 . S
C1919 C1921 1.388 . S
C1920 C1919 1.366 . S
C1920 C1924 1.385 . S
C1921 H1896 0.951 . S
C1921 C1919 1.388 . S
C1921 C1922 1.366 . S
C1922 C1921 1.366 . S
C1922 C1923 1.414 . S
C1922 C1925 1.499 . S
C1923 H1897 0.950 . S
C1923 C1922 1.414 . S
C1923 C1924 1.374 . S
C1924 H1898 0.950 . S
C1924 C1920 1.385 . S
C1924 C1923 1.374 . S
C1925 C1922 1.499 . S
C1925 C1926 1.373 . S
C1925 C1927 1.389 . S
C1926 H1899 0.950 . S
C1926 C1912 1.377 . S
C1926 C1925 1.373 . S
C1927 C1911 1.377 . S
C1927 C1925 1.389 . S
C1927 C1928 1.524 . S
C1928 C1927 1.524 . S
C1928 C1929 1.397 . S
C1928 C1933 1.363 . S
C1929 H1900 0.950 . S
C1929 C1928 1.397 . S
C1929 C1930 1.334 . S
C1930 H1901 0.950 . S
C1930 C1929 1.334 . S
C1930 C1931 1.287 . S
C1931 C1930 1.287 . S
C1931 C1932 1.524 . S
C1931 H1934 0.999 . S
C1932 H1902 0.950 . S
C1932 C1931 1.524 . S
C1932 C1933 1.415 . S
C1933 H1903 0.950 . S
C1933 C1928 1.363 . S
C1933 C1932 1.415 . S
H1934 C1931 0.999 . S
H1935 C1916 0.913 . S
H1936 C1954 0.951 . S
H1937 C1956 0.951 . S
H1938 C1958 0.950 . S
H1939 C1959 0.950 . S
H1940 C1961 0.950 . S
H1941 C1964 0.950 . S
H1942 C1965 0.950 . S
H1943 C1967 0.950 . S
H1944 C1968 0.950 . S
H1945 C1969 0.951 . S
H1946 C1971 0.951 . S
H1947 C1973 0.950 . S
H1948 C1974 0.950 . S
H1949 C1976 0.950 . S
H1950 C1979 0.950 . S
H1951 C1980 0.950 . S
H1952 C1982 0.950 . S
H1953 C1983 0.950 . S
C1954 H1936 0.951 . S
C1954 C1955 1.366 . S
C1954 C1956 1.388 . S
C1955 C1954 1.366 . S
C1955 C1959 1.385 . S
C1956 H1937 0.951 . S
C1956 C1954 1.388 . S
C1956 C1957 1.366 . S
C1957 C1956 1.366 . S
C1957 C1958 1.414 . S
C1957 C1960 1.499 . S
C1958 H1938 0.950 . S
C1958 C1957 1.414 . S
C1958 C1959 1.374 . S
C1959 H1939 0.950 . S
C1959 C1955 1.385 . S
C1959 C1958 1.374 . S
C1960 C1957 1.499 . S
C1960 C1961 1.373 . S
C1960 C1962 1.389 . S
C1961 H1940 0.950 . S
C1961 C1960 1.373 . S
C1961 C1977 1.377 . S
C1962 C1960 1.389 . S
C1962 C1963 1.524 . S
C1962 C1976 1.377 . S
C1963 C1962 1.524 . S
C1963 C1964 1.397 . S
C1963 C1968 1.363 . S
C1964 H1941 0.950 . S
C1964 C1963 1.397 . S
C1964 C1965 1.334 . S
C1965 H1942 0.950 . S
C1965 C1964 1.334 . S
C1965 C1966 1.287 . S
C1966 C1965 1.287 . S
C1966 C1967 1.524 . S
C1966 H1985 0.913 . S
C1967 H1943 0.950 . S
C1967 C1966 1.524 . S
C1967 C1968 1.415 . S
C1968 H1944 0.950 . S
C1968 C1963 1.363 . S
C1968 C1967 1.415 . S
C1969 H1945 0.951 . S
C1969 C1970 1.366 . S
C1969 C1971 1.388 . S
C1970 C1969 1.366 . S
C1970 C1974 1.385 . S
C1971 H1946 0.951 . S
C1971 C1969 1.388 . S
C1971 C1972 1.366 . S
C1972 C1971 1.366 . S
C1972 C1973 1.414 . S
C1972 C1975 1.499 . S
C1973 H1947 0.950 . S
C1973 C1972 1.414 . S
C1973 C1974 1.374 . S
C1974 H1948 0.950 . S
C1974 C1970 1.385 . S
C1974 C1973 1.374 . S
C1975 C1972 1.499 . S
C1975 C1976 1.373 . S
C1975 C1977 1.389 . S
C1976 H1949 0.950 . S
C1976 C1962 1.377 . S
C1976 C1975 1.373 . S
C1977 C1961 1.377 . S
C1977 C1975 1.389 . S
C1977 C1978 1.524 . S
C1978 C1977 1.524 . S
C1978 C1979 1.397 . S
C1978 C1983 1.363 . S
C1979 H1950 0.950 . S
C1979 C1978 1.397 . S
C1979 C1980 1.334 . S
C1980 H1951 0.950 . S
C1980 C1979 1.334 . S
C1980 C1981 1.287 . S
C1981 C1980 1.287 . S
C1981 C1982 1.524 . S
C1981 H1984 0.999 . S
C1982 H1952 0.950 . S
C1982 C1981 1.524 . S
C1982 C1983 1.415 . S
C1983 H1953 0.950 . S
C1983 C1978 1.363 . S
C1983 C1982 1.415 . S
H1984 C1981 0.999 . S
H1985 C1966 0.913 . S
H1986 C2004 0.951 . S
H1987 C2006 0.951 . S
H1988 C2008 0.950 . S
H1989 C2009 0.950 . S
H1990 C2011 0.950 . S
H1991 C2014 0.950 . S
H1992 C2015 0.950 . S
H1993 C2017 0.950 . S
H1994 C2018 0.950 . S
H1995 C2019 0.951 . S
H1996 C2021 0.951 . S
H1997 C2023 0.950 . S
H1998 C2024 0.950 . S
H1999 C2026 0.950 . S
H2000 C2029 0.950 . S
H2001 C2030 0.950 . S
H2002 C2032 0.950 . S
H2003 C2033 0.950 . S
C2004 H1986 0.951 . S
C2004 C2005 1.366 . S
C2004 C2006 1.388 . S
C2005 C2004 1.366 . S
C2005 C2009 1.385 . S
C2006 H1987 0.951 . S
C2006 C2004 1.388 . S
C2006 C2007 1.366 . S
C2007 C2006 1.366 . S
C2007 C2008 1.414 . S
C2007 C2010 1.499 . S
C2008 H1988 0.950 . S
C2008 C2007 1.414 . S
C2008 C2009 1.374 . S
C2009 H1989 0.950 . S
C2009 C2005 1.385 . S
C2009 C2008 1.374 . S
C2010 C2007 1.499 . S
C2010 C2011 1.373 . S
C2010 C2012 1.389 . S
C2011 H1990 0.950 . S
C2011 C2010 1.373 . S
C2011 C2027 1.377 . S
C2012 C2010 1.389 . S
C2012 C2013 1.524 . S
C2012 C2026 1.377 . S
C2013 C2012 1.524 . S
C2013 C2014 1.397 . S
C2013 C2018 1.363 . S
C2014 H1991 0.950 . S
C2014 C2013 1.397 . S
C2014 C2015 1.334 . S
C2015 H1992 0.950 . S
C2015 C2014 1.334 . S
C2015 C2016 1.287 . S
C2016 C2015 1.287 . S
C2016 C2017 1.524 . S
C2016 H2035 0.913 . S
C2017 H1993 0.950 . S
C2017 C2016 1.524 . S
C2017 C2018 1.415 . S
C2018 H1994 0.950 . S
C2018 C2013 1.363 . S
C2018 C2017 1.415 . S
C2019 H1995 0.951 . S
C2019 C2020 1.366 . S
C2019 C2021 1.388 . S
C2020 C2019 1.366 . S
C2020 C2024 1.385 . S
C2021 H1996 0.951 . S
C2021 C2019 1.388 . S
C2021 C2022 1.366 . S
C2022 C2021 1.366 . S
C2022 C2023 1.414 . S
C2022 C2025 1.499 . S
C2023 H1997 0.950 . S
C2023 C2022 1.414 . S
C2023 C2024 1.374 . S
C2024 H1998 0.950 . S
C2024 C2020 1.385 . S
C2024 C2023 1.374 . S
C2025 C2022 1.499 . S
C2025 C2026 1.373 . S
C2025 C2027 1.389 . S
C2026 H1999 0.950 . S
C2026 C2012 1.377 . S
C2026 C2025 1.373 . S
C2027 C2011 1.377 . S
C2027 C2025 1.389 . S
C2027 C2028 1.524 . S
C2028 C2027 1.524 . S
C2028 C2029 1.397 . S
C2028 C2033 1.363 . S
C2029 H2000 0.950 . S
C2029 C2028 1.397 . S
C2029 C2030 1.334 . S
C2030 H2001 0.950 . S
C2030 C2029 1.334 . S
C2030 C2031 1.287 . S
C2031 C2030 1.287 . S
C2031 C2032 1.524 . S
C2031 H2034 0.999 . S
C2032 H2002 0.950 . S
C2032 C2031 1.524 . S
C2032 C2033 1.415 . S
C2033 H2003 0.950 . S
C2033 C2028 1.363 . S
C2033 C2032 1.415 . S
H2034 C2031 0.999 . S
H2035 C2016 0.913 . S
H2036 C2054 0.951 . S
H2037 C2056 0.951 . S
H2038 C2058 0.950 . S
H2039 C2059 0.950 . S
H2040 C2061 0.950 . S
H2041 C2064 0.950 . S
H2042 C2065 0.950 . S
H2043 C2067 0.950 . S
H2044 C2068 0.950 . S
H2045 C2069 0.951 . S
H2046 C2071 0.951 . S
H2047 C2073 0.950 . S
H2048 C2074 0.950 . S
H2049 C2076 0.950 . S
H2050 C2079 0.950 . S
H2051 C2080 0.950 . S
H2052 C2082 0.950 . S
H2053 C2083 0.950 . S
C2054 H2036 0.951 . S
C2054 C2055 1.366 . S
C2054 C2056 1.388 . S
C2055 C2054 1.366 . S
C2055 C2059 1.385 . S
C2056 H2037 0.951 . S
C2056 C2054 1.388 . S
C2056 C2057 1.366 . S
C2057 C2056 1.366 . S
C2057 C2058 1.414 . S
C2057 C2060 1.499 . S
C2058 H2038 0.950 . S
C2058 C2057 1.414 . S
C2058 C2059 1.374 . S
C2059 H2039 0.950 . S
C2059 C2055 1.385 . S
C2059 C2058 1.374 . S
C2060 C2057 1.499 . S
C2060 C2061 1.373 . S
C2060 C2062 1.389 . S
C2061 H2040 0.950 . S
C2061 C2060 1.373 . S
C2061 C2077 1.377 . S
C2062 C2060 1.389 . S
C2062 C2063 1.524 . S
C2062 C2076 1.377 . S
C2063 C2062 1.524 . S
C2063 C2064 1.397 . S
C2063 C2068 1.363 . S
C2064 H2041 0.950 . S
C2064 C2063 1.397 . S
C2064 C2065 1.334 . S
C2065 H2042 0.950 . S
C2065 C2064 1.334 . S
C2065 C2066 1.287 . S
C2066 C2065 1.287 . S
C2066 C2067 1.524 . S
C2066 H2085 0.913 . S
C2067 H2043 0.950 . S
C2067 C2066 1.524 . S
C2067 C2068 1.415 . S
C2068 H2044 0.950 . S
C2068 C2063 1.363 . S
C2068 C2067 1.415 . S
C2069 H2045 0.951 . S
C2069 C2070 1.366 . S
C2069 C2071 1.388 . S
C2070 C2069 1.366 . S
C2070 C2074 1.385 . S
C2071 H2046 0.951 . S
C2071 C2069 1.388 . S
C2071 C2072 1.366 . S
C2072 C2071 1.366 . S
C2072 C2073 1.414 . S
C2072 C2075 1.499 . S
C2073 H2047 0.950 . S
C2073 C2072 1.414 . S
C2073 C2074 1.374 . S
C2074 H2048 0.950 . S
C2074 C2070 1.385 . S
C2074 C2073 1.374 . S
C2075 C2072 1.499 . S
C2075 C2076 1.373 . S
C2075 C2077 1.389 . S
C2076 H2049 0.950 . S
C2076 C2062 1.377 . S
C2076 C2075 1.373 . S
C2077 C2061 1.377 . S
C2077 C2075 1.389 . S
C2077 C2078 1.524 . S
C2078 C2077 1.524 . S
C2078 C2079 1.397 . S
C2078 C2083 1.363 . S
C2079 H2050 0.950 . S
C2079 C2078 1.397 . S
C2079 C2080 1.334 . S
C2080 H2051 0.950 . S
C2080 C2079 1.334 . S
C2080 C2081 1.287 . S
C2081 C2080 1.287 . S
C2081 C2082 1.524 . S
C2081 H2084 0.999 . S
C2082 H2052 0.950 . S
C2082 C2081 1.524 . S
C2082 C2083 1.415 . S
C2083 H2053 0.950 . S
C2083 C2078 1.363 . S
C2083 C2082 1.415 . S
H2084 C2081 0.999 . S
H2085 C2066 0.913 . S
H2086 C2104 0.951 . S
H2087 C2106 0.951 . S
H2088 C2108 0.950 . S
H2089 C2109 0.950 . S
H2090 C2111 0.950 . S
H2091 C2114 0.950 . S
H2092 C2115 0.950 . S
H2093 C2117 0.950 . S
H2094 C2118 0.950 . S
H2095 C2119 0.951 . S
H2096 C2121 0.951 . S
H2097 C2123 0.950 . S
H2098 C2124 0.950 . S
H2099 C2126 0.950 . S
H2100 C2129 0.950 . S
H2101 C2130 0.950 . S
H2102 C2132 0.950 . S
H2103 C2133 0.950 . S
C2104 H2086 0.951 . S
C2104 C2105 1.366 . S
C2104 C2106 1.388 . S
C2105 C2104 1.366 . S
C2105 C2109 1.385 . S
C2106 H2087 0.951 . S
C2106 C2104 1.388 . S
C2106 C2107 1.366 . S
C2107 C2106 1.366 . S
C2107 C2108 1.414 . S
C2107 C2110 1.499 . S
C2108 H2088 0.950 . S
C2108 C2107 1.414 . S
C2108 C2109 1.374 . S
C2109 H2089 0.950 . S
C2109 C2105 1.385 . S
C2109 C2108 1.374 . S
C2110 C2107 1.499 . S
C2110 C2111 1.373 . S
C2110 C2112 1.389 . S
C2111 H2090 0.950 . S
C2111 C2110 1.373 . S
C2111 C2127 1.377 . S
C2112 C2110 1.389 . S
C2112 C2113 1.524 . S
C2112 C2126 1.377 . S
C2113 C2112 1.524 . S
C2113 C2114 1.397 . S
C2113 C2118 1.363 . S
C2114 H2091 0.950 . S
C2114 C2113 1.397 . S
C2114 C2115 1.334 . S
C2115 H2092 0.950 . S
C2115 C2114 1.334 . S
C2115 C2116 1.287 . S
C2116 C2115 1.287 . S
C2116 C2117 1.524 . S
C2116 H2135 0.913 . S
C2117 H2093 0.950 . S
C2117 C2116 1.524 . S
C2117 C2118 1.415 . S
C2118 H2094 0.950 . S
C2118 C2113 1.363 . S
C2118 C2117 1.415 . S
C2119 H2095 0.951 . S
C2119 C2120 1.366 . S
C2119 C2121 1.388 . S
C2120 C2119 1.366 . S
C2120 C2124 1.385 . S
C2121 H2096 0.951 . S
C2121 C2119 1.388 . S
C2121 C2122 1.366 . S
C2122 C2121 1.366 . S
C2122 C2123 1.414 . S
C2122 C2125 1.499 . S
C2123 H2097 0.950 . S
C2123 C2122 1.414 . S
C2123 C2124 1.374 . S
C2124 H2098 0.950 . S
C2124 C2120 1.385 . S
C2124 C2123 1.374 . S
C2125 C2122 1.499 . S
C2125 C2126 1.373 . S
C2125 C2127 1.389 . S
C2126 H2099 0.950 . S
C2126 C2112 1.377 . S
C2126 C2125 1.373 . S
C2127 C2111 1.377 . S
C2127 C2125 1.389 . S
C2127 C2128 1.524 . S
C2128 C2127 1.524 . S
C2128 C2129 1.397 . S
C2128 C2133 1.363 . S
C2129 H2100 0.950 . S
C2129 C2128 1.397 . S
C2129 C2130 1.334 . S
C2130 H2101 0.950 . S
C2130 C2129 1.334 . S
C2130 C2131 1.287 . S
C2131 C2130 1.287 . S
C2131 C2132 1.524 . S
C2131 H2134 0.999 . S
C2132 H2102 0.950 . S
C2132 C2131 1.524 . S
C2132 C2133 1.415 . S
C2133 H2103 0.950 . S
C2133 C2128 1.363 . S
C2133 C2132 1.415 . S
H2134 C2131 0.999 . S
H2135 C2116 0.913 . S
H2136 C2154 0.951 . S
H2137 C2156 0.951 . S
H2138 C2158 0.950 . S
H2139 C2159 0.950 . S
H2140 C2161 0.950 . S
H2141 C2164 0.950 . S
H2142 C2165 0.950 . S
H2143 C2167 0.950 . S
H2144 C2168 0.950 . S
H2145 C2169 0.951 . S
H2146 C2171 0.951 . S
H2147 C2173 0.950 . S
H2148 C2174 0.950 . S
H2149 C2176 0.950 . S
H2150 C2179 0.950 . S
H2151 C2180 0.950 . S
H2152 C2182 0.950 . S
H2153 C2183 0.950 . S
C2154 H2136 0.951 . S
C2154 C2155 1.366 . S
C2154 C2156 1.388 . S
C2155 C2154 1.366 . S
C2155 C2159 1.385 . S
C2156 H2137 0.951 . S
C2156 C2154 1.388 . S
C2156 C2157 1.366 . S
C2157 C2156 1.366 . S
C2157 C2158 1.414 . S
C2157 C2160 1.499 . S
C2158 H2138 0.950 . S
C2158 C2157 1.414 . S
C2158 C2159 1.374 . S
C2159 H2139 0.950 . S
C2159 C2155 1.385 . S
C2159 C2158 1.374 . S
C2160 C2157 1.499 . S
C2160 C2161 1.373 . S
C2160 C2162 1.389 . S
C2161 H2140 0.950 . S
C2161 C2160 1.373 . S
C2161 C2177 1.377 . S
C2162 C2160 1.389 . S
C2162 C2163 1.524 . S
C2162 C2176 1.377 . S
C2163 C2162 1.524 . S
C2163 C2164 1.397 . S
C2163 C2168 1.363 . S
C2164 H2141 0.950 . S
C2164 C2163 1.397 . S
C2164 C2165 1.334 . S
C2165 H2142 0.950 . S
C2165 C2164 1.334 . S
C2165 C2166 1.287 . S
C2166 C2165 1.287 . S
C2166 C2167 1.524 . S
C2166 H2185 0.913 . S
C2167 H2143 0.950 . S
C2167 C2166 1.524 . S
C2167 C2168 1.415 . S
C2168 H2144 0.950 . S
C2168 C2163 1.363 . S
C2168 C2167 1.415 . S
C2169 H2145 0.951 . S
C2169 C2170 1.366 . S
C2169 C2171 1.388 . S
C2170 C2169 1.366 . S
C2170 C2174 1.385 . S
C2171 H2146 0.951 . S
C2171 C2169 1.388 . S
C2171 C2172 1.366 . S
C2172 C2171 1.366 . S
C2172 C2173 1.414 . S
C2172 C2175 1.499 . S
C2173 H2147 0.950 . S
C2173 C2172 1.414 . S
C2173 C2174 1.374 . S
C2174 H2148 0.950 . S
C2174 C2170 1.385 . S
C2174 C2173 1.374 . S
C2175 C2172 1.499 . S
C2175 C2176 1.373 . S
C2175 C2177 1.389 . S
C2176 H2149 0.950 . S
C2176 C2162 1.377 . S
C2176 C2175 1.373 . S
C2177 C2161 1.377 . S
C2177 C2175 1.389 . S
C2177 C2178 1.524 . S
C2178 C2177 1.524 . S
C2178 C2179 1.397 . S
C2178 C2183 1.363 . S
C2179 H2150 0.950 . S
C2179 C2178 1.397 . S
C2179 C2180 1.334 . S
C2180 H2151 0.950 . S
C2180 C2179 1.334 . S
C2180 C2181 1.287 . S
C2181 C2180 1.287 . S
C2181 C2182 1.524 . S
C2181 H2184 0.999 . S
C2182 H2152 0.950 . S
C2182 C2181 1.524 . S
C2182 C2183 1.415 . S
C2183 H2153 0.950 . S
C2183 C2178 1.363 . S
C2183 C2182 1.415 . S
H2184 C2181 0.999 . S
H2185 C2166 0.913 . S
H2186 C2204 0.951 . S
H2187 C2206 0.951 . S
H2188 C2208 0.950 . S
H2189 C2209 0.950 . S
H2190 C2211 0.950 . S
H2191 C2214 0.950 . S
H2192 C2215 0.950 . S
H2193 C2217 0.950 . S
H2194 C2218 0.950 . S
H2195 C2219 0.951 . S
H2196 C2221 0.951 . S
H2197 C2223 0.950 . S
H2198 C2224 0.950 . S
H2199 C2226 0.950 . S
H2200 C2229 0.950 . S
H2201 C2230 0.950 . S
H2202 C2232 0.950 . S
H2203 C2233 0.950 . S
C2204 H2186 0.951 . S
C2204 C2205 1.366 . S
C2204 C2206 1.388 . S
C2205 C2204 1.366 . S
C2205 C2209 1.385 . S
C2206 H2187 0.951 . S
C2206 C2204 1.388 . S
C2206 C2207 1.366 . S
C2207 C2206 1.366 . S
C2207 C2208 1.414 . S
C2207 C2210 1.499 . S
C2208 H2188 0.950 . S
C2208 C2207 1.414 . S
C2208 C2209 1.374 . S
C2209 H2189 0.950 . S
C2209 C2205 1.385 . S
C2209 C2208 1.374 . S
C2210 C2207 1.499 . S
C2210 C2211 1.373 . S
C2210 C2212 1.389 . S
C2211 H2190 0.950 . S
C2211 C2210 1.373 . S
C2211 C2227 1.377 . S
C2212 C2210 1.389 . S
C2212 C2213 1.524 . S
C2212 C2226 1.377 . S
C2213 C2212 1.524 . S
C2213 C2214 1.397 . S
C2213 C2218 1.363 . S
C2214 H2191 0.950 . S
C2214 C2213 1.397 . S
C2214 C2215 1.334 . S
C2215 H2192 0.950 . S
C2215 C2214 1.334 . S
C2215 C2216 1.287 . S
C2216 C2215 1.287 . S
C2216 C2217 1.524 . S
C2216 H2235 0.913 . S
C2217 H2193 0.950 . S
C2217 C2216 1.524 . S
C2217 C2218 1.415 . S
C2218 H2194 0.950 . S
C2218 C2213 1.363 . S
C2218 C2217 1.415 . S
C2219 H2195 0.951 . S
C2219 C2220 1.366 . S
C2219 C2221 1.388 . S
C2220 C2219 1.366 . S
C2220 C2224 1.385 . S
C2221 H2196 0.951 . S
C2221 C2219 1.388 . S
C2221 C2222 1.366 . S
C2222 C2221 1.366 . S
C2222 C2223 1.414 . S
C2222 C2225 1.499 . S
C2223 H2197 0.950 . S
C2223 C2222 1.414 . S
C2223 C2224 1.374 . S
C2224 H2198 0.950 . S
C2224 C2220 1.385 . S
C2224 C2223 1.374 . S
C2225 C2222 1.499 . S
C2225 C2226 1.373 . S
C2225 C2227 1.389 . S
C2226 H2199 0.950 . S
C2226 C2212 1.377 . S
C2226 C2225 1.373 . S
C2227 C2211 1.377 . S
C2227 C2225 1.389 . S
C2227 C2228 1.524 . S
C2228 C2227 1.524 . S
C2228 C2229 1.397 . S
C2228 C2233 1.363 . S
C2229 H2200 0.950 . S
C2229 C2228 1.397 . S
C2229 C2230 1.334 . S
C2230 H2201 0.950 . S
C2230 C2229 1.334 . S
C2230 C2231 1.287 . S
C2231 C2230 1.287 . S
C2231 C2232 1.524 . S
C2231 H2234 0.999 . S
C2232 H2202 0.950 . S
C2232 C2231 1.524 . S
C2232 C2233 1.415 . S
C2233 H2203 0.950 . S
C2233 C2228 1.363 . S
C2233 C2232 1.415 . S
H2234 C2231 0.999 . S
H2235 C2216 0.913 . S
H2236 C2254 0.951 . S
H2237 C2256 0.951 . S
H2238 C2258 0.950 . S
H2239 C2259 0.950 . S
H2240 C2261 0.950 . S
H2241 C2264 0.950 . S
H2242 C2265 0.950 . S
H2243 C2267 0.950 . S
H2244 C2268 0.950 . S
H2245 C2269 0.951 . S
H2246 C2271 0.951 . S
H2247 C2273 0.950 . S
H2248 C2274 0.950 . S
H2249 C2276 0.950 . S
H2250 C2279 0.950 . S
H2251 C2280 0.950 . S
H2252 C2282 0.950 . S
H2253 C2283 0.950 . S
C2254 H2236 0.951 . S
C2254 C2255 1.366 . S
C2254 C2256 1.388 . S
C2255 C2254 1.366 . S
C2255 C2259 1.385 . S
C2256 H2237 0.951 . S
C2256 C2254 1.388 . S
C2256 C2257 1.366 . S
C2257 C2256 1.366 . S
C2257 C2258 1.414 . S
C2257 C2260 1.499 . S
C2258 H2238 0.950 . S
C2258 C2257 1.414 . S
C2258 C2259 1.374 . S
C2259 H2239 0.950 . S
C2259 C2255 1.385 . S
C2259 C2258 1.374 . S
C2260 C2257 1.499 . S
C2260 C2261 1.373 . S
C2260 C2262 1.389 . S
C2261 H2240 0.950 . S
C2261 C2260 1.373 . S
C2261 C2277 1.377 . S
C2262 C2260 1.389 . S
C2262 C2263 1.524 . S
C2262 C2276 1.377 . S
C2263 C2262 1.524 . S
C2263 C2264 1.397 . S
C2263 C2268 1.363 . S
C2264 H2241 0.950 . S
C2264 C2263 1.397 . S
C2264 C2265 1.334 . S
C2265 H2242 0.950 . S
C2265 C2264 1.334 . S
C2265 C2266 1.287 . S
C2266 C2265 1.287 . S
C2266 C2267 1.524 . S
C2266 H2285 0.913 . S
C2267 H2243 0.950 . S
C2267 C2266 1.524 . S
C2267 C2268 1.415 . S
C2268 H2244 0.950 . S
C2268 C2263 1.363 . S
C2268 C2267 1.415 . S
C2269 H2245 0.951 . S
C2269 C2270 1.366 . S
C2269 C2271 1.388 . S
C2270 C2269 1.366 . S
C2270 C2274 1.385 . S
C2271 H2246 0.951 . S
C2271 C2269 1.388 . S
C2271 C2272 1.366 . S
C2272 C2271 1.366 . S
C2272 C2273 1.414 . S
C2272 C2275 1.499 . S
C2273 H2247 0.950 . S
C2273 C2272 1.414 . S
C2273 C2274 1.374 . S
C2274 H2248 0.950 . S
C2274 C2270 1.385 . S
C2274 C2273 1.374 . S
C2275 C2272 1.499 . S
C2275 C2276 1.373 . S
C2275 C2277 1.389 . S
C2276 H2249 0.950 . S
C2276 C2262 1.377 . S
C2276 C2275 1.373 . S
C2277 C2261 1.377 . S
C2277 C2275 1.389 . S
C2277 C2278 1.524 . S
C2278 C2277 1.524 . S
C2278 C2279 1.397 . S
C2278 C2283 1.363 . S
C2279 H2250 0.950 . S
C2279 C2278 1.397 . S
C2279 C2280 1.334 . S
C2280 H2251 0.950 . S
C2280 C2279 1.334 . S
C2280 C2281 1.287 . S
C2281 C2280 1.287 . S
C2281 C2282 1.524 . S
C2281 H2284 0.999 . S
C2282 H2252 0.950 . S
C2282 C2281 1.524 . S
C2282 C2283 1.415 . S
C2283 H2253 0.950 . S
C2283 C2278 1.363 . S
C2283 C2282 1.415 . S
H2284 C2281 0.999 . S
H2285 C2266 0.913 . S
H2286 C2304 0.951 . S
H2287 C2306 0.951 . S
H2288 C2308 0.950 . S
H2289 C2309 0.950 . S
H2290 C2311 0.950 . S
H2291 C2314 0.950 . S
H2292 C2315 0.950 . S
H2293 C2317 0.950 . S
H2294 C2318 0.950 . S
H2295 C2319 0.951 . S
H2296 C2321 0.951 . S
H2297 C2323 0.950 . S
H2298 C2324 0.950 . S
H2299 C2326 0.950 . S
H2300 C2329 0.950 . S
H2301 C2330 0.950 . S
H2302 C2332 0.950 . S
H2303 C2333 0.950 . S
C2304 H2286 0.951 . S
C2304 C2305 1.366 . S
C2304 C2306 1.388 . S
C2305 C2304 1.366 . S
C2305 C2309 1.385 . S
C2306 H2287 0.951 . S
C2306 C2304 1.388 . S
C2306 C2307 1.366 . S
C2307 C2306 1.366 . S
C2307 C2308 1.414 . S
C2307 C2310 1.499 . S
C2308 H2288 0.950 . S
C2308 C2307 1.414 . S
C2308 C2309 1.374 . S
C2309 H2289 0.950 . S
C2309 C2305 1.385 . S
C2309 C2308 1.374 . S
C2310 C2307 1.499 . S
C2310 C2311 1.373 . S
C2310 C2312 1.389 . S
C2311 H2290 0.950 . S
C2311 C2310 1.373 . S
C2311 C2327 1.377 . S
C2312 C2310 1.389 . S
C2312 C2313 1.524 . S
C2312 C2326 1.377 . S
C2313 C2312 1.524 . S
C2313 C2314 1.397 . S
C2313 C2318 1.363 . S
C2314 H2291 0.950 . S
C2314 C2313 1.397 . S
C2314 C2315 1.334 . S
C2315 H2292 0.950 . S
C2315 C2314 1.334 . S
C2315 C2316 1.287 . S
C2316 C2315 1.287 . S
C2316 C2317 1.524 . S
C2316 H2335 0.913 . S
C2317 H2293 0.950 . S
C2317 C2316 1.524 . S
C2317 C2318 1.415 . S
C2318 H2294 0.950 . S
C2318 C2313 1.363 . S
C2318 C2317 1.415 . S
C2319 H2295 0.951 . S
C2319 C2320 1.366 . S
C2319 C2321 1.388 . S
C2320 C2319 1.366 . S
C2320 C2324 1.385 . S
C2321 H2296 0.951 . S
C2321 C2319 1.388 . S
C2321 C2322 1.366 . S
C2322 C2321 1.366 . S
C2322 C2323 1.414 . S
C2322 C2325 1.499 . S
C2323 H2297 0.950 . S
C2323 C2322 1.414 . S
C2323 C2324 1.374 . S
C2324 H2298 0.950 . S
C2324 C2320 1.385 . S
C2324 C2323 1.374 . S
C2325 C2322 1.499 . S
C2325 C2326 1.373 . S
C2325 C2327 1.389 . S
C2326 H2299 0.950 . S
C2326 C2312 1.377 . S
C2326 C2325 1.373 . S
C2327 C2311 1.377 . S
C2327 C2325 1.389 . S
C2327 C2328 1.524 . S
C2328 C2327 1.524 . S
C2328 C2329 1.397 . S
C2328 C2333 1.363 . S
C2329 H2300 0.950 . S
C2329 C2328 1.397 . S
C2329 C2330 1.334 . S
C2330 H2301 0.950 . S
C2330 C2329 1.334 . S
C2330 C2331 1.287 . S
C2331 C2330 1.287 . S
C2331 C2332 1.524 . S
C2331 H2334 0.999 . S
C2332 H2302 0.950 . S
C2332 C2331 1.524 . S
C2332 C2333 1.415 . S
C2333 H2303 0.950 . S
C2333 C2328 1.363 . S
C2333 C2332 1.415 . S
H2334 C2331 0.999 . S
H2335 C2316 0.913 . S
H2336 C2354 0.951 . S
H2337 C2356 0.951 . S
H2338 C2358 0.950 . S
H2339 C2359 0.950 . S
H2340 C2361 0.950 . S
H2341 C2364 0.950 . S
H2342 C2365 0.950 . S
H2343 C2367 0.950 . S
H2344 C2368 0.950 . S
H2345 C2369 0.951 . S
H2346 C2371 0.951 . S
H2347 C2373 0.950 . S
H2348 C2374 0.950 . S
H2349 C2376 0.950 . S
H2350 C2379 0.950 . S
H2351 C2380 0.950 . S
H2352 C2382 0.950 . S
H2353 C2383 0.950 . S
C2354 H2336 0.951 . S
C2354 C2355 1.366 . S
C2354 C2356 1.388 . S
C2355 C2354 1.366 . S
C2355 C2359 1.385 . S
C2356 H2337 0.951 . S
C2356 C2354 1.388 . S
C2356 C2357 1.366 . S
C2357 C2356 1.366 . S
C2357 C2358 1.414 . S
C2357 C2360 1.499 . S
C2358 H2338 0.950 . S
C2358 C2357 1.414 . S
C2358 C2359 1.374 . S
C2359 H2339 0.950 . S
C2359 C2355 1.385 . S
C2359 C2358 1.374 . S
C2360 C2357 1.499 . S
C2360 C2361 1.373 . S
C2360 C2362 1.389 . S
C2361 H2340 0.950 . S
C2361 C2360 1.373 . S
C2361 C2377 1.377 . S
C2362 C2360 1.389 . S
C2362 C2363 1.524 . S
C2362 C2376 1.377 . S
C2363 C2362 1.524 . S
C2363 C2364 1.397 . S
C2363 C2368 1.363 . S
C2364 H2341 0.950 . S
C2364 C2363 1.397 . S
C2364 C2365 1.334 . S
C2365 H2342 0.950 . S
C2365 C2364 1.334 . S
C2365 C2366 1.287 . S
C2366 C2365 1.287 . S
C2366 C2367 1.524 . S
C2366 H2385 0.913 . S
C2367 H2343 0.950 . S
C2367 C2366 1.524 . S
C2367 C2368 1.415 . S
C2368 H2344 0.950 . S
C2368 C2363 1.363 . S
C2368 C2367 1.415 . S
C2369 H2345 0.951 . S
C2369 C2370 1.366 . S
C2369 C2371 1.388 . S
C2370 C2369 1.366 . S
C2370 C2374 1.385 . S
C2371 H2346 0.951 . S
C2371 C2369 1.388 . S
C2371 C2372 1.366 . S
C2372 C2371 1.366 . S
C2372 C2373 1.414 . S
C2372 C2375 1.499 . S
C2373 H2347 0.950 . S
C2373 C2372 1.414 . S
C2373 C2374 1.374 . S
C2374 H2348 0.950 . S
C2374 C2370 1.385 . S
C2374 C2373 1.374 . S
C2375 C2372 1.499 . S
C2375 C2376 1.373 . S
C2375 C2377 1.389 . S
C2376 H2349 0.950 . S
C2376 C2362 1.377 . S
C2376 C2375 1.373 . S
C2377 C2361 1.377 . S
C2377 C2375 1.389 . S
C2377 C2378 1.524 . S
C2378 C2377 1.524 . S
C2378 C2379 1.397 . S
C2378 C2383 1.363 . S
C2379 H2350 0.950 . S
C2379 C2378 1.397 . S
C2379 C2380 1.334 . S
C2380 H2351 0.950 . S
C2380 C2379 1.334 . S
C2380 C2381 1.287 . S
C2381 C2380 1.287 . S
C2381 C2382 1.524 . S
C2381 H2384 0.999 . S
C2382 H2352 0.950 . S
C2382 C2381 1.524 . S
C2382 C2383 1.415 . S
C2383 H2353 0.950 . S
C2383 C2378 1.363 . S
C2383 C2382 1.415 . S
H2384 C2381 0.999 . S
H2385 C2366 0.913 . S
H2386 C2404 0.951 . S
H2387 C2406 0.951 . S
H2388 C2408 0.950 . S
H2389 C2409 0.950 . S
H2390 C2411 0.950 . S
H2391 C2414 0.950 . S
H2392 C2415 0.950 . S
H2393 C2417 0.950 . S
H2394 C2418 0.950 . S
H2395 C2419 0.951 . S
H2396 C2421 0.951 . S
H2397 C2423 0.950 . S
H2398 C2424 0.950 . S
H2399 C2426 0.950 . S
H2400 C2429 0.950 . S
H2401 C2430 0.950 . S
H2402 C2432 0.950 . S
H2403 C2433 0.950 . S
C2404 H2386 0.951 . S
C2404 C2405 1.366 . S
C2404 C2406 1.388 . S
C2405 C2404 1.366 . S
C2405 C2409 1.385 . S
C2406 H2387 0.951 . S
C2406 C2404 1.388 . S
C2406 C2407 1.366 . S
C2407 C2406 1.366 . S
C2407 C2408 1.414 . S
C2407 C2410 1.499 . S
C2408 H2388 0.950 . S
C2408 C2407 1.414 . S
C2408 C2409 1.374 . S
C2409 H2389 0.950 . S
C2409 C2405 1.385 . S
C2409 C2408 1.374 . S
C2410 C2407 1.499 . S
C2410 C2411 1.373 . S
C2410 C2412 1.389 . S
C2411 H2390 0.950 . S
C2411 C2410 1.373 . S
C2411 C2427 1.377 . S
C2412 C2410 1.389 . S
C2412 C2413 1.524 . S
C2412 C2426 1.377 . S
C2413 C2412 1.524 . S
C2413 C2414 1.397 . S
C2413 C2418 1.363 . S
C2414 H2391 0.950 . S
C2414 C2413 1.397 . S
C2414 C2415 1.334 . S
C2415 H2392 0.950 . S
C2415 C2414 1.334 . S
C2415 C2416 1.287 . S
C2416 C2415 1.287 . S
C2416 C2417 1.524 . S
C2416 H2435 0.913 . S
C2417 H2393 0.950 . S
C2417 C2416 1.524 . S
C2417 C2418 1.415 . S
C2418 H2394 0.950 . S
C2418 C2413 1.363 . S
C2418 C2417 1.415 . S
C2419 H2395 0.951 . S
C2419 C2420 1.366 . S
C2419 C2421 1.388 . S
C2420 C2419 1.366 . S
C2420 C2424 1.385 . S
C2421 H2396 0.951 . S
C2421 C2419 1.388 . S
C2421 C2422 1.366 . S
C2422 C2421 1.366 . S
C2422 C2423 1.414 . S
C2422 C2425 1.499 . S
C2423 H2397 0.950 . S
C2423 C2422 1.414 . S
C2423 C2424 1.374 . S
C2424 H2398 0.950 . S
C2424 C2420 1.385 . S
C2424 C2423 1.374 . S
C2425 C2422 1.499 . S
C2425 C2426 1.373 . S
C2425 C2427 1.389 . S
C2426 H2399 0.950 . S
C2426 C2412 1.377 . S
C2426 C2425 1.373 . S
C2427 C2411 1.377 . S
C2427 C2425 1.389 . S
C2427 C2428 1.524 . S
C2428 C2427 1.524 . S
C2428 C2429 1.397 . S
C2428 C2433 1.363 . S
C2429 H2400 0.950 . S
C2429 C2428 1.397 . S
C2429 C2430 1.334 . S
C2430 H2401 0.950 . S
C2430 C2429 1.334 . S
C2430 C2431 1.287 . S
C2431 C2430 1.287 . S
C2431 C2432 1.524 . S
C2431 H2434 0.999 . S
C2432 H2402 0.950 . S
C2432 C2431 1.524 . S
C2432 C2433 1.415 . S
C2433 H2403 0.950 . S
C2433 C2428 1.363 . S
C2433 C2432 1.415 . S
H2434 C2431 0.999 . S
H2435 C2416 0.913 . S
H2436 C2454 0.951 . S
H2437 C2456 0.951 . S
H2438 C2458 0.950 . S
H2439 C2459 0.950 . S
H2440 C2461 0.950 . S
H2441 C2464 0.950 . S
H2442 C2465 0.950 . S
H2443 C2467 0.950 . S
H2444 C2468 0.950 . S
H2445 C2469 0.951 . S
H2446 C2471 0.951 . S
H2447 C2473 0.950 . S
H2448 C2474 0.950 . S
H2449 C2476 0.950 . S
H2450 C2479 0.950 . S
H2451 C2480 0.950 . S
H2452 C2482 0.950 . S
H2453 C2483 0.950 . S
C2454 H2436 0.951 . S
C2454 C2455 1.366 . S
C2454 C2456 1.388 . S
C2455 C2454 1.366 . S
C2455 C2459 1.385 . S
C2456 H2437 0.951 . S
C2456 C2454 1.388 . S
C2456 C2457 1.366 . S
C2457 C2456 1.366 . S
C2457 C2458 1.414 . S
C2457 C2460 1.499 . S
C2458 H2438 0.950 . S
C2458 C2457 1.414 . S
C2458 C2459 1.374 . S
C2459 H2439 0.950 . S
C2459 C2455 1.385 . S
C2459 C2458 1.374 . S
C2460 C2457 1.499 . S
C2460 C2461 1.373 . S
C2460 C2462 1.389 . S
C2461 H2440 0.950 . S
C2461 C2460 1.373 . S
C2461 C2477 1.377 . S
C2462 C2460 1.389 . S
C2462 C2463 1.524 . S
C2462 C2476 1.377 . S
C2463 C2462 1.524 . S
C2463 C2464 1.397 . S
C2463 C2468 1.363 . S
C2464 H2441 0.950 . S
C2464 C2463 1.397 . S
C2464 C2465 1.334 . S
C2465 H2442 0.950 . S
C2465 C2464 1.334 . S
C2465 C2466 1.287 . S
C2466 C2465 1.287 . S
C2466 C2467 1.524 . S
C2466 H2485 0.913 . S
C2467 H2443 0.950 . S
C2467 C2466 1.524 . S
C2467 C2468 1.415 . S
C2468 H2444 0.950 . S
C2468 C2463 1.363 . S
C2468 C2467 1.415 . S
C2469 H2445 0.951 . S
C2469 C2470 1.366 . S
C2469 C2471 1.388 . S
C2470 C2469 1.366 . S
C2470 C2474 1.385 . S
C2471 H2446 0.951 . S
C2471 C2469 1.388 . S
C2471 C2472 1.366 . S
C2472 C2471 1.366 . S
C2472 C2473 1.414 . S
C2472 C2475 1.499 . S
C2473 H2447 0.950 . S
C2473 C2472 1.414 . S
C2473 C2474 1.374 . S
C2474 H2448 0.950 . S
C2474 C2470 1.385 . S
C2474 C2473 1.374 . S
C2475 C2472 1.499 . S
C2475 C2476 1.373 . S
C2475 C2477 1.389 . S
C2476 H2449 0.950 . S
C2476 C2462 1.377 . S
C2476 C2475 1.373 . S
C2477 C2461 1.377 . S
C2477 C2475 1.389 . S
C2477 C2478 1.524 . S
C2478 C2477 1.524 . S
C2478 C2479 1.397 . S
C2478 C2483 1.363 . S
C2479 H2450 0.950 . S
C2479 C2478 1.397 . S
C2479 C2480 1.334 . S
C2480 H2451 0.950 . S
C2480 C2479 1.334 . S
C2480 C2481 1.287 . S
C2481 C2480 1.287 . S
C2481 C2482 1.524 . S
C2481 H2484 0.999 . S
C2482 H2452 0.950 . S
C2482 C2481 1.524 . S
C2482 C2483 1.415 . S
C2483 H2453 0.950 . S
C2483 C2478 1.363 . S
C2483 C2482 1.415 . S
H2484 C2481 0.999 . S
H2485 C2466 0.913 . S
H2486 C2504 0.951 . S
H2487 C2506 0.951 . S
H2488 C2508 0.950 . S
H2489 C2509 0.950 . S
H2490 C2511 0.950 . S
H2491 C2514 0.950 . S
H2492 C2515 0.950 . S
H2493 C2517 0.950 . S
H2494 C2518 0.950 . S
H2495 C2519 0.951 . S
H2496 C2521 0.951 . S
H2497 C2523 0.950 . S
H2498 C2524 0.950 . S
H2499 C2526 0.950 . S
H2500 C2529 0.950 . S
H2501 C2530 0.950 . S
H2502 C2532 0.950 . S
H2503 C2533 0.950 . S
C2504 H2486 0.951 . S
C2504 C2505 1.366 . S
C2504 C2506 1.388 . S
C2505 C2504 1.366 . S
C2505 C2509 1.385 . S
C2506 H2487 0.951 . S
C2506 C2504 1.388 . S
C2506 C2507 1.366 . S
C2507 C2506 1.366 . S
C2507 C2508 1.414 . S
C2507 C2510 1.499 . S
C2508 H2488 0.950 . S
C2508 C2507 1.414 . S
C2508 C2509 1.374 . S
C2509 H2489 0.950 . S
C2509 C2505 1.385 . S
C2509 C2508 1.374 . S
C2510 C2507 1.499 . S
C2510 C2511 1.373 . S
C2510 C2512 1.389 . S
C2511 H2490 0.950 . S
C2511 C2510 1.373 . S
C2511 C2527 1.377 . S
C2512 C2510 1.389 . S
C2512 C2513 1.524 . S
C2512 C2526 1.377 . S
C2513 C2512 1.524 . S
C2513 C2514 1.397 . S
C2513 C2518 1.363 . S
C2514 H2491 0.950 . S
C2514 C2513 1.397 . S
C2514 C2515 1.334 . S
C2515 H2492 0.950 . S
C2515 C2514 1.334 . S
C2515 C2516 1.287 . S
C2516 C2515 1.287 . S
C2516 C2517 1.524 . S
C2516 H2535 0.913 . S
C2517 H2493 0.950 . S
C2517 C2516 1.524 . S
C2517 C2518 1.415 . S
C2518 H2494 0.950 . S
C2518 C2513 1.363 . S
C2518 C2517 1.415 . S
C2519 H2495 0.951 . S
C2519 C2520 1.366 . S
C2519 C2521 1.388 . S
C2520 C2519 1.366 . S
C2520 C2524 1.385 . S
C2521 H2496 0.951 . S
C2521 C2519 1.388 . S
C2521 C2522 1.366 . S
C2522 C2521 1.366 . S
C2522 C2523 1.414 . S
C2522 C2525 1.499 . S
C2523 H2497 0.950 . S
C2523 C2522 1.414 . S
C2523 C2524 1.374 . S
C2524 H2498 0.950 . S
C2524 C2520 1.385 . S
C2524 C2523 1.374 . S
C2525 C2522 1.499 . S
C2525 C2526 1.373 . S
C2525 C2527 1.389 . S
C2526 H2499 0.950 . S
C2526 C2512 1.377 . S
C2526 C2525 1.373 . S
C2527 C2511 1.377 . S
C2527 C2525 1.389 . S
C2527 C2528 1.524 . S
C2528 C2527 1.524 . S
C2528 C2529 1.397 . S
C2528 C2533 1.363 . S
C2529 H2500 0.950 . S
C2529 C2528 1.397 . S
C2529 C2530 1.334 . S
C2530 H2501 0.950 . S
C2530 C2529 1.334 . S
C2530 C2531 1.287 . S
C2531 C2530 1.287 . S
C2531 C2532 1.524 . S
C2531 H2534 0.999 . S
C2532 H2502 0.950 . S
C2532 C2531 1.524 . S
C2532 C2533 1.415 . S
C2533 H2503 0.950 . S
C2533 C2528 1.363 . S
C2533 C2532 1.415 . S
H2534 C2531 0.999 . S
H2535 C2516 0.913 . S
H2536 C2554 0.951 . S
H2537 C2556 0.951 . S
H2538 C2558 0.950 . S
H2539 C2559 0.950 . S
H2540 C2561 0.950 . S
H2541 C2564 0.950 . S
H2542 C2565 0.950 . S
H2543 C2567 0.950 . S
H2544 C2568 0.950 . S
H2545 C2569 0.951 . S
H2546 C2571 0.951 . S
H2547 C2573 0.950 . S
H2548 C2574 0.950 . S
H2549 C2576 0.950 . S
H2550 C2579 0.950 . S
H2551 C2580 0.950 . S
H2552 C2582 0.950 . S
H2553 C2583 0.950 . S
C2554 H2536 0.951 . S
C2554 C2555 1.366 . S
C2554 C2556 1.388 . S
C2555 C2554 1.366 . S
C2555 C2559 1.385 . S
C2556 H2537 0.951 . S
C2556 C2554 1.388 . S
C2556 C2557 1.366 . S
C2557 C2556 1.366 . S
C2557 C2558 1.414 . S
C2557 C2560 1.499 . S
C2558 H2538 0.950 . S
C2558 C2557 1.414 . S
C2558 C2559 1.374 . S
C2559 H2539 0.950 . S
C2559 C2555 1.385 . S
C2559 C2558 1.374 . S
C2560 C2557 1.499 . S
C2560 C2561 1.373 . S
C2560 C2562 1.389 . S
C2561 H2540 0.950 . S
C2561 C2560 1.373 . S
C2561 C2577 1.377 . S
C2562 C2560 1.389 . S
C2562 C2563 1.524 . S
C2562 C2576 1.377 . S
C2563 C2562 1.524 . S
C2563 C2564 1.397 . S
C2563 C2568 1.363 . S
C2564 H2541 0.950 . S
C2564 C2563 1.397 . S
C2564 C2565 1.334 . S
C2565 H2542 0.950 . S
C2565 C2564 1.334 . S
C2565 C2566 1.287 . S
C2566 C2565 1.287 . S
C2566 C2567 1.524 . S
C2566 H2585 0.913 . S
C2567 H2543 0.950 . S
C2567 C2566 1.524 . S
C2567 C2568 1.415 . S
C2568 H2544 0.950 . S
C2568 C2563 1.363 . S
C2568 C2567 1.415 . S
C2569 H2545 0.951 . S
C2569 C2570 1.366 . S
C2569 C2571 1.388 . S
C2570 C2569 1.366 . S
C2570 C2574 1.385 . S
C2571 H2546 0.951 . S
C2571 C2569 1.388 . S
C2571 C2572 1.366 . S
C2572 C2571 1.366 . S
C2572 C2573 1.414 . S
C2572 C2575 1.499 . S
C2573 H2547 0.950 . S
C2573 C2572 1.414 . S
C2573 C2574 1.374 . S
C2574 H2548 0.950 . S
C2574 C2570 1.385 . S
C2574 C2573 1.374 . S
C2575 C2572 1.499 . S
C2575 C2576 1.373 . S
C2575 C2577 1.389 . S
C2576 H2549 0.950 . S
C2576 C2562 1.377 . S
C2576 C2575 1.373 . S
C2577 C2561 1.377 . S
C2577 C2575 1.389 . S
C2577 C2578 1.524 . S
C2578 C2577 1.524 . S
C2578 C2579 1.397 . S
C2578 C2583 1.363 . S
C2579 H2550 0.950 . S
C2579 C2578 1.397 . S
C2579 C2580 1.334 . S
C2580 H2551 0.950 . S
C2580 C2579 1.334 . S
C2580 C2581 1.287 . S
C2581 C2580 1.287 . S
C2581 C2582 1.524 . S
C2581 H2584 0.999 . S
C2582 H2552 0.950 . S
C2582 C2581 1.524 . S
C2582 C2583 1.415 . S
C2583 H2553 0.950 . S
C2583 C2578 1.363 . S
C2583 C2582 1.415 . S
H2584 C2581 0.999 . S
H2585 C2566 0.913 . S
H2586 C2604 0.951 . S
H2587 C2606 0.951 . S
H2588 C2608 0.950 . S
H2589 C2609 0.950 . S
H2590 C2611 0.950 . S
H2591 C2614 0.950 . S
H2592 C2615 0.950 . S
H2593 C2617 0.950 . S
H2594 C2618 0.950 . S
H2595 C2619 0.951 . S
H2596 C2621 0.951 . S
H2597 C2623 0.950 . S
H2598 C2624 0.950 . S
H2599 C2626 0.950 . S
H2600 C2629 0.950 . S
H2601 C2630 0.950 . S
H2602 C2632 0.950 . S
H2603 C2633 0.950 . S
C2604 H2586 0.951 . S
C2604 C2605 1.366 . S
C2604 C2606 1.388 . S
C2605 C2604 1.366 . S
C2605 C2609 1.385 . S
C2606 H2587 0.951 . S
C2606 C2604 1.388 . S
C2606 C2607 1.366 . S
C2607 C2606 1.366 . S
C2607 C2608 1.414 . S
C2607 C2610 1.499 . S
C2608 H2588 0.950 . S
C2608 C2607 1.414 . S
C2608 C2609 1.374 . S
C2609 H2589 0.950 . S
C2609 C2605 1.385 . S
C2609 C2608 1.374 . S
C2610 C2607 1.499 . S
C2610 C2611 1.373 . S
C2610 C2612 1.389 . S
C2611 H2590 0.950 . S
C2611 C2610 1.373 . S
C2611 C2627 1.377 . S
C2612 C2610 1.389 . S
C2612 C2613 1.524 . S
C2612 C2626 1.377 . S
C2613 C2612 1.524 . S
C2613 C2614 1.397 . S
C2613 C2618 1.363 . S
C2614 H2591 0.950 . S
C2614 C2613 1.397 . S
C2614 C2615 1.334 . S
C2615 H2592 0.950 . S
C2615 C2614 1.334 . S
C2615 C2616 1.287 . S
C2616 C2615 1.287 . S
C2616 C2617 1.524 . S
C2616 H2635 0.913 . S
C2617 H2593 0.950 . S
C2617 C2616 1.524 . S
C2617 C2618 1.415 . S
C2618 H2594 0.950 . S
C2618 C2613 1.363 . S
C2618 C2617 1.415 . S
C2619 H2595 0.951 . S
C2619 C2620 1.366 . S
C2619 C2621 1.388 . S
C2620 C2619 1.366 . S
C2620 C2624 1.385 . S
C2621 H2596 0.951 . S
C2621 C2619 1.388 . S
C2621 C2622 1.366 . S
C2622 C2621 1.366 . S
C2622 C2623 1.414 . S
C2622 C2625 1.499 . S
C2623 H2597 0.950 . S
C2623 C2622 1.414 . S
C2623 C2624 1.374 . S
C2624 H2598 0.950 . S
C2624 C2620 1.385 . S
C2624 C2623 1.374 . S
C2625 C2622 1.499 . S
C2625 C2626 1.373 . S
C2625 C2627 1.389 . S
C2626 H2599 0.950 . S
C2626 C2612 1.377 . S
C2626 C2625 1.373 . S
C2627 C2611 1.377 . S
C2627 C2625 1.389 . S
C2627 C2628 1.524 . S
C2628 C2627 1.524 . S
C2628 C2629 1.397 . S
C2628 C2633 1.363 . S
C2629 H2600 0.950 . S
C2629 C2628 1.397 . S
C2629 C2630 1.334 . S
C2630 H2601 0.950 . S
C2630 C2629 1.334 . S
C2630 C2631 1.287 . S
C2631 C2630 1.287 . S
C2631 C2632 1.524 . S
C2631 H2634 0.999 . S
C2632 H2602 0.950 . S
C2632 C2631 1.524 . S
C2632 C2633 1.415 . S
C2633 H2603 0.950 . S
C2633 C2628 1.363 . S
C2633 C2632 1.415 . S
H2634 C2631 0.999 . S
H2635 C2616 0.913 . S
H2636 C2654 0.951 . S
H2637 C2656 0.951 . S
H2638 C2658 0.950 . S
H2639 C2659 0.950 . S
H2640 C2661 0.950 . S
H2641 C2664 0.950 . S
H2642 C2665 0.950 . S
H2643 C2667 0.950 . S
H2644 C2668 0.950 . S
H2645 C2669 0.951 . S
H2646 C2671 0.951 . S
H2647 C2673 0.950 . S
H2648 C2674 0.950 . S
H2649 C2676 0.950 . S
H2650 C2679 0.950 . S
H2651 C2680 0.950 . S
H2652 C2682 0.950 . S
H2653 C2683 0.950 . S
C2654 H2636 0.951 . S
C2654 C2655 1.366 . S
C2654 C2656 1.388 . S
C2655 C2654 1.366 . S
C2655 C2659 1.385 . S
C2656 H2637 0.951 . S
C2656 C2654 1.388 . S
C2656 C2657 1.366 . S
C2657 C2656 1.366 . S
C2657 C2658 1.414 . S
C2657 C2660 1.499 . S
C2658 H2638 0.950 . S
C2658 C2657 1.414 . S
C2658 C2659 1.374 . S
C2659 H2639 0.950 . S
C2659 C2655 1.385 . S
C2659 C2658 1.374 . S
C2660 C2657 1.499 . S
C2660 C2661 1.373 . S
C2660 C2662 1.389 . S
C2661 H2640 0.950 . S
C2661 C2660 1.373 . S
C2661 C2677 1.377 . S
C2662 C2660 1.389 . S
C2662 C2663 1.524 . S
C2662 C2676 1.377 . S
C2663 C2662 1.524 . S
C2663 C2664 1.397 . S
C2663 C2668 1.363 . S
C2664 H2641 0.950 . S
C2664 C2663 1.397 . S
C2664 C2665 1.334 . S
C2665 H2642 0.950 . S
C2665 C2664 1.334 . S
C2665 C2666 1.287 . S
C2666 C2665 1.287 . S
C2666 C2667 1.524 . S
C2666 H2685 0.913 . S
C2667 H2643 0.950 . S
C2667 C2666 1.524 . S
C2667 C2668 1.415 . S
C2668 H2644 0.950 . S
C2668 C2663 1.363 . S
C2668 C2667 1.415 . S
C2669 H2645 0.951 . S
C2669 C2670 1.366 . S
C2669 C2671 1.388 . S
C2670 C2669 1.366 . S
C2670 C2674 1.385 . S
C2671 H2646 0.951 . S
C2671 C2669 1.388 . S
C2671 C2672 1.366 . S
C2672 C2671 1.366 . S
C2672 C2673 1.414 . S
C2672 C2675 1.499 . S
C2673 H2647 0.950 . S
C2673 C2672 1.414 . S
C2673 C2674 1.374 . S
C2674 H2648 0.950 . S
C2674 C2670 1.385 . S
C2674 C2673 1.374 . S
C2675 C2672 1.499 . S
C2675 C2676 1.373 . S
C2675 C2677 1.389 . S
C2676 H2649 0.950 . S
C2676 C2662 1.377 . S
C2676 C2675 1.373 . S
C2677 C2661 1.377 . S
C2677 C2675 1.389 . S
C2677 C2678 1.524 . S
C2678 C2677 1.524 . S
C2678 C2679 1.397 . S
C2678 C2683 1.363 . S
C2679 H2650 0.950 . S
C2679 C2678 1.397 . S
C2679 C2680 1.334 . S
C2680 H2651 0.950 . S
C2680 C2679 1.334 . S
C2680 C2681 1.287 . S
C2681 C2680 1.287 . S
C2681 C2682 1.524 . S
C2681 H2684 0.999 . S
C2682 H2652 0.950 . S
C2682 C2681 1.524 . S
C2682 C2683 1.415 . S
C2683 H2653 0.950 . S
C2683 C2678 1.363 . S
C2683 C2682 1.415 . S
H2684 C2681 0.999 . S
H2685 C2666 0.913 . S
H2686 C2704 0.951 . S
H2687 C2706 0.951 . S
H2688 C2708 0.950 . S
H2689 C2709 0.950 . S
H2690 C2711 0.950 . S
H2691 C2714 0.950 . S
H2692 C2715 0.950 . S
H2693 C2717 0.950 . S
H2694 C2718 0.950 . S
H2695 C2719 0.951 . S
H2696 C2721 0.951 . S
H2697 C2723 0.950 . S
H2698 C2724 0.950 . S
H2699 C2726 0.950 . S
H2700 C2729 0.950 . S
H2701 C2730 0.950 . S
H2702 C2732 0.950 . S
H2703 C2733 0.950 . S
C2704 H2686 0.951 . S
C2704 C2705 1.366 . S
C2704 C2706 1.388 . S
C2705 C2704 1.366 . S
C2705 C2709 1.385 . S
C2706 H2687 0.951 . S
C2706 C2704 1.388 . S
C2706 C2707 1.366 . S
C2707 C2706 1.366 . S
C2707 C2708 1.414 . S
C2707 C2710 1.499 . S
C2708 H2688 0.950 . S
C2708 C2707 1.414 . S
C2708 C2709 1.374 . S
C2709 H2689 0.950 . S
C2709 C2705 1.385 . S
C2709 C2708 1.374 . S
C2710 C2707 1.499 . S
C2710 C2711 1.373 . S
C2710 C2712 1.389 . S
C2711 H2690 0.950 . S
C2711 C2710 1.373 . S
C2711 C2727 1.377 . S
C2712 C2710 1.389 . S
C2712 C2713 1.524 . S
C2712 C2726 1.377 . S
C2713 C2712 1.524 . S
C2713 C2714 1.397 . S
C2713 C2718 1.363 . S
C2714 H2691 0.950 . S
C2714 C2713 1.397 . S
C2714 C2715 1.334 . S
C2715 H2692 0.950 . S
C2715 C2714 1.334 . S
C2715 C2716 1.287 . S
C2716 C2715 1.287 . S
C2716 C2717 1.524 . S
C2716 H2735 0.913 . S
C2717 H2693 0.950 . S
C2717 C2716 1.524 . S
C2717 C2718 1.415 . S
C2718 H2694 0.950 . S
C2718 C2713 1.363 . S
C2718 C2717 1.415 . S
C2719 H2695 0.951 . S
C2719 C2720 1.366 . S
C2719 C2721 1.388 . S
C2720 C2719 1.366 . S
C2720 C2724 1.385 . S
C2721 H2696 0.951 . S
C2721 C2719 1.388 . S
C2721 C2722 1.366 . S
C2722 C2721 1.366 . S
C2722 C2723 1.414 . S
C2722 C2725 1.499 . S
C2723 H2697 0.950 . S
C2723 C2722 1.414 . S
C2723 C2724 1.374 . S
C2724 H2698 0.950 . S
C2724 C2720 1.385 . S
C2724 C2723 1.374 . S
C2725 C2722 1.499 . S
C2725 C2726 1.373 . S
C2725 C2727 1.389 . S
C2726 H2699 0.950 . S
C2726 C2712 1.377 . S
C2726 C2725 1.373 . S
C2727 C2711 1.377 . S
C2727 C2725 1.389 . S
C2727 C2728 1.524 . S
C2728 C2727 1.524 . S
C2728 C2729 1.397 . S
C2728 C2733 1.363 . S
C2729 H2700 0.950 . S
C2729 C2728 1.397 . S
C2729 C2730 1.334 . S
C2730 H2701 0.950 . S
C2730 C2729 1.334 . S
C2730 C2731 1.287 . S
C2731 C2730 1.287 . S
C2731 C2732 1.524 . S
C2731 H2734 0.999 . S
C2732 H2702 0.950 . S
C2732 C2731 1.524 . S
C2732 C2733 1.415 . S
C2733 H2703 0.950 . S
C2733 C2728 1.363 . S
C2733 C2732 1.415 . S
H2734 C2731 0.999 . S
H2735 C2716 0.913 . S
C355 C7 1.270 . S
C370 C105 1.270 . S
C405 C119 1.271 . S
C420 C21 1.271 . S
C455 C35 1.271 . S
C470 C133 1.271 . S
C505 C49 1.270 . S
C520 C147 1.271 . S
C555 C161 1.271 . S
C570 C63 1.270 . S
C605 C77 1.271 . S
C620 C91 1.270 . S
C655 C175 1.271 . S
C670 C273 1.270 . S
C705 C189 1.270 . S
C720 C287 1.270 . S
C755 C301 1.270 . S
C770 C203 1.271 . S
C805 C217 1.271 . S
C820 C315 1.271 . S
C855 C231 1.270 . S
C870 C329 1.270 . S
C905 C259 1.271 . S
C920 C245 1.271 . S
C955 C13 1.162 . S
C970 C125 1.162 . S
C1005 C139 1.161 . S
C1020 C27 1.161 . S
C1055 C153 1.161 . S
C1070 C41 1.161 . S
C1105 C55 1.163 . S
C1120 C167 1.163 . S
C1155 C69 1.161 . S
C1170 C97 1.161 . S
C1205 C83 1.161 . S
C1220 C111 1.161 . S
C1255 C293 1.163 . S
C1270 C181 1.163 . S
C1305 C195 1.161 . S
C1320 C307 1.161 . S
C1355 C321 1.161 . S
C1370 C209 1.161 . S
C1405 C335 1.163 . S
C1420 C223 1.163 . S
C1455 C265 1.161 . S
C1470 C237 1.161 . S
C1505 C251 1.161 . S
C1520 C279 1.161 . S
C1555 C11 1.518 . S
C1570 C221 1.518 . S
C1605 C235 1.518 . S
C1620 C25 1.518 . S
C1655 C249 1.518 . S
C1670 C39 1.518 . S
C1705 C53 1.518 . S
C1720 C179 1.518 . S
C1755 C67 1.518 . S
C1770 C193 1.518 . S
C1805 C207 1.518 . S
C1820 C81 1.518 . S
C1855 C305 1.518 . S
C1870 C95 1.518 . S
C1905 C319 1.518 . S
C1920 C109 1.518 . S
C1955 C333 1.518 . S
C1970 C123 1.518 . S
C2005 C263 1.518 . S
C2020 C137 1.518 . S
C2055 C151 1.518 . S
C2070 C277 1.518 . S
C2105 C165 1.518 . S
C2120 C291 1.518 . S
C2155 C8 1.485 . S
C2170 C148 1.485 . S
C2205 C162 1.485 . S
C2220 C22 1.485 . S
C2255 C92 1.486 . S
C2270 C36 1.485 . S
C2305 C50 1.484 . S
C2320 C106 1.485 . S
C2355 C64 1.485 . S
C2370 C120 1.485 . S
C2405 C78 1.485 . S
C2420 C134 1.485 . S
C2455 C176 1.485 . S
C2470 C316 1.485 . S
C2505 C190 1.485 . S
C2520 C330 1.485 . S
C2555 C204 1.485 . S
C2570 C260 1.485 . S
C2605 C274 1.484 . S
C2620 C218 1.485 . S
C2655 C232 1.485 . S
C2670 C288 1.485 . S
C2705 C246 1.485 . S
C2720 C302 1.485 . S
