# Generated by pormake.
# Topology whk, (6)-cn, num edge types: 1
# Building blocks:
#     Node 0, Type 0, BuildingBlock: MIFKUJ_clean_sbu_0, # of connection points: 6
#     Node 1, Type 0, BuildingBlock: MIFKUJ_clean_sbu_0, # of connection points: 6
#     Node 2, Type 0, BuildingBlock: MIFKUJ_clean_sbu_0, # of connection points: 6
#     Node 3, Type 0, BuildingBlock: MIFKUJ_clean_sbu_0, # of connection points: 6
#     Node 4, Type 0, BuildingBlock: MIFKUJ_clean_sbu_0, # of connection points: 6
#     Node 5, Type 0, BuildingBlock: MIFKUJ_clean_sbu_0, # of connection points: 6
#     Node 6, Type 0, BuildingBlock: MIFKUJ_clean_sbu_0, # of connection points: 6
#     Node 7, Type 0, BuildingBlock: MIFKUJ_clean_sbu_0, # of connection points: 6
#     Node 8, Type 0, BuildingBlock: MIFKUJ_clean_sbu_0, # of connection points: 6
#     Node 9, Type 0, BuildingBlock: MIFKUJ_clean_sbu_0, # of connection points: 6
#     Node 10, Type 0, BuildingBlock: MIFKUJ_clean_sbu_0, # of connection points: 6
#     Node 11, Type 0, BuildingBlock: MIFKUJ_clean_sbu_0, # of connection points: 6
#     Node 12, Type 0, BuildingBlock: MIFKUJ_clean_sbu_0, # of connection points: 6
#     Node 13, Type 0, BuildingBlock: MIFKUJ_clean_sbu_0, # of connection points: 6
#     Node 14, Type 0, BuildingBlock: MIFKUJ_clean_sbu_0, # of connection points: 6
#     Node 15, Type 0, BuildingBlock: MIFKUJ_clean_sbu_0, # of connection points: 6
#     Edge 16, Type (0, 0), BuildingBlock: CIFDUS_clean_linker_0, # of connection points: 2
#     Edge 17, Type (0, 0), BuildingBlock: CIFDUS_clean_linker_0, # of connection points: 2
#     Edge 18, Type (0, 0), BuildingBlock: CIFDUS_clean_linker_0, # of connection points: 2
#     Edge 19, Type (0, 0), BuildingBlock: CIFDUS_clean_linker_0, # of connection points: 2
#     Edge 20, Type (0, 0), BuildingBlock: CIFDUS_clean_linker_0, # of connection points: 2
#     Edge 21, Type (0, 0), BuildingBlock: CIFDUS_clean_linker_0, # of connection points: 2
#     Edge 22, Type (0, 0), BuildingBlock: CIFDUS_clean_linker_0, # of connection points: 2
#     Edge 23, Type (0, 0), BuildingBlock: CIFDUS_clean_linker_0, # of connection points: 2
#     Edge 24, Type (0, 0), BuildingBlock: CIFDUS_clean_linker_0, # of connection points: 2
#     Edge 25, Type (0, 0), BuildingBlock: CIFDUS_clean_linker_0, # of connection points: 2
#     Edge 26, Type (0, 0), BuildingBlock: CIFDUS_clean_linker_0, # of connection points: 2
#     Edge 27, Type (0, 0), BuildingBlock: CIFDUS_clean_linker_0, # of connection points: 2
#     Edge 28, Type (0, 0), BuildingBlock: CIFDUS_clean_linker_0, # of connection points: 2
#     Edge 29, Type (0, 0), BuildingBlock: CIFDUS_clean_linker_0, # of connection points: 2
#     Edge 30, Type (0, 0), BuildingBlock: CIFDUS_clean_linker_0, # of connection points: 2
#     Edge 31, Type (0, 0), BuildingBlock: CIFDUS_clean_linker_0, # of connection points: 2
#     Edge 32, Type (0, 0), BuildingBlock: CIFDUS_clean_linker_0, # of connection points: 2
#     Edge 33, Type (0, 0), BuildingBlock: CIFDUS_clean_linker_0, # of connection points: 2
#     Edge 34, Type (0, 0), BuildingBlock: CIFDUS_clean_linker_0, # of connection points: 2
#     Edge 35, Type (0, 0), BuildingBlock: CIFDUS_clean_linker_0, # of connection points: 2
#     Edge 36, Type (0, 0), BuildingBlock: CIFDUS_clean_linker_0, # of connection points: 2
#     Edge 37, Type (0, 0), BuildingBlock: CIFDUS_clean_linker_0, # of connection points: 2
#     Edge 38, Type (0, 0), BuildingBlock: CIFDUS_clean_linker_0, # of connection points: 2
#     Edge 39, Type (0, 0), BuildingBlock: CIFDUS_clean_linker_0, # of connection points: 2
#     Edge 40, Type (0, 0), BuildingBlock: CIFDUS_clean_linker_0, # of connection points: 2
#     Edge 41, Type (0, 0), BuildingBlock: CIFDUS_clean_linker_0, # of connection points: 2
#     Edge 42, Type (0, 0), BuildingBlock: CIFDUS_clean_linker_0, # of connection points: 2
#     Edge 43, Type (0, 0), BuildingBlock: CIFDUS_clean_linker_0, # of connection points: 2
#     Edge 44, Type (0, 0), BuildingBlock: CIFDUS_clean_linker_0, # of connection points: 2
#     Edge 45, Type (0, 0), BuildingBlock: CIFDUS_clean_linker_0, # of connection points: 2
#     Edge 46, Type (0, 0), BuildingBlock: CIFDUS_clean_linker_0, # of connection points: 2
#     Edge 47, Type (0, 0), BuildingBlock: CIFDUS_clean_linker_0, # of connection points: 2
#     Edge 48, Type (0, 0), BuildingBlock: CIFDUS_clean_linker_0, # of connection points: 2
#     Edge 49, Type (0, 0), BuildingBlock: CIFDUS_clean_linker_0, # of connection points: 2
#     Edge 50, Type (0, 0), BuildingBlock: CIFDUS_clean_linker_0, # of connection points: 2
#     Edge 51, Type (0, 0), BuildingBlock: CIFDUS_clean_linker_0, # of connection points: 2
#     Edge 52, Type (0, 0), BuildingBlock: CIFDUS_clean_linker_0, # of connection points: 2
#     Edge 53, Type (0, 0), BuildingBlock: CIFDUS_clean_linker_0, # of connection points: 2
#     Edge 54, Type (0, 0), BuildingBlock: CIFDUS_clean_linker_0, # of connection points: 2
#     Edge 55, Type (0, 0), BuildingBlock: CIFDUS_clean_linker_0, # of connection points: 2
#     Edge 56, Type (0, 0), BuildingBlock: CIFDUS_clean_linker_0, # of connection points: 2
#     Edge 57, Type (0, 0), BuildingBlock: CIFDUS_clean_linker_0, # of connection points: 2
#     Edge 58, Type (0, 0), BuildingBlock: CIFDUS_clean_linker_0, # of connection points: 2
#     Edge 59, Type (0, 0), BuildingBlock: CIFDUS_clean_linker_0, # of connection points: 2
#     Edge 60, Type (0, 0), BuildingBlock: CIFDUS_clean_linker_0, # of connection points: 2
#     Edge 61, Type (0, 0), BuildingBlock: CIFDUS_clean_linker_0, # of connection points: 2
#     Edge 62, Type (0, 0), BuildingBlock: CIFDUS_clean_linker_0, # of connection points: 2
#     Edge 63, Type (0, 0), BuildingBlock: CIFDUS_clean_linker_0, # of connection points: 2
# Relax obj value: 0.396
# Max RMSD: 0.270
# Mean RMSD: 0.270
data_MOF--net-whk--node1-MIFKUJ_clean_sbu_0--edge1-CIFDUS_clean_linker_0
_symmetry_space_group_name_H-M    P1
_symmetry_Int_Tables_number       1
_symmetry_cell_setting            triclinic
loop_
_symmetry_equiv_pos_as_xyz
'x, y, z'
_cell_length_a     36.080636
_cell_length_b     36.123653
_cell_length_c     37.538509
_cell_angle_alpha  89.9511
_cell_angle_beta   90.054523
_cell_angle_gamma 89.640742
loop_
_atom_site_label
_atom_site_type_symbol
_atom_site_fract_x
_atom_site_fract_y
_atom_site_fract_z
_atom_type_partial_charge
Zn0 Zn 0.49732 0.16711 0.40146 0.0
Zn1 Zn 0.60792 0.12522 0.41038 0.0
C2 C 0.47073 0.23674 0.37476 0.0
O3 O 0.46381 0.21643 0.34654 0.0
C4 C 0.6529 0.05988 0.41232 0.0
O5 O 0.66005 0.07036 0.37952 0.0
O6 O 0.45181 0.13892 0.4163 0.0
O7 O 0.51348 0.14776 0.35336 0.0
O8 O 0.56925 0.12786 0.36994 0.0
C9 C 0.42977 0.12924 0.39156 0.0
O10 O 0.43783 0.13784 0.35847 0.0
O11 O 0.48622 0.22173 0.40155 0.0
C12 C 0.67855 0.15192 0.41358 0.0
O13 O 0.67344 0.13792 0.44553 0.0
O14 O 0.65288 0.14914 0.39067 0.0
O15 O 0.5959 0.15993 0.45155 0.0
O16 O 0.54087 0.15568 0.4305 0.0
O17 O 0.62594 0.07531 0.4286 0.0
C18 C 0.54375 0.13067 0.34641 0.0
C19 C 0.56332 0.17281 0.45025 0.0
Zn20 Zn 0.3453 0.50146 0.38546 0.0
Zn21 Zn 0.38221 0.60115 0.39921 0.0
C22 C 0.27293 0.4719 0.39528 0.0
O23 O 0.28673 0.46629 0.42725 0.0
C24 C 0.43507 0.65655 0.4204 0.0
O25 O 0.43565 0.66358 0.38607 0.0
O26 O 0.37401 0.4535 0.38732 0.0
O27 O 0.36731 0.53123 0.34503 0.0
O28 O 0.40955 0.55941 0.37649 0.0
C29 C 0.37332 0.43509 0.35847 0.0
O30 O 0.35505 0.4488 0.33111 0.0
O31 O 0.29298 0.48746 0.37186 0.0
C32 C 0.32807 0.63505 0.35455 0.0
O33 O 0.31093 0.60379 0.36111 0.0
O34 O 0.3617 0.63824 0.36406 0.0
O35 O 0.33826 0.58526 0.42819 0.0
O36 O 0.34176 0.52438 0.43499 0.0
O37 O 0.41574 0.62969 0.43178 0.0
C38 C 0.39647 0.55068 0.34641 0.0
C39 C 0.32643 0.55539 0.44181 0.0
Zn40 Zn 0.00866 0.33338 0.39157 0.0
Zn41 Zn 0.90661 0.32859 0.39421 0.0
C42 C 0.0435 0.26236 0.39808 0.0
O43 O 0.04677 0.27466 0.43086 0.0
C44 C 0.86964 0.39132 0.42344 0.0
O45 O 0.86678 0.39858 0.38925 0.0
O46 O 0.05379 0.36396 0.40282 0.0
O47 O 0.98015 0.35908 0.3498 0.0
O48 O 0.9184 0.35612 0.35063 0.0
C49 C 0.07413 0.37728 0.37837 0.0
O50 O 0.06481 0.37203 0.34492 0.0
O51 O 0.0283 0.2832 0.37476 0.0
C52 C 0.85403 0.28211 0.41738 0.0
O53 O 0.87251 0.29179 0.446 0.0
O54 O 0.86247 0.29663 0.38763 0.0
O55 O 0.9456 0.29099 0.40558 0.0
O56 O 0.98338 0.32144 0.43923 0.0
O57 O 0.88991 0.36414 0.4333 0.0
C58 C 0.94838 0.36669 0.33634 0.0
C59 C 0.96043 0.2953 0.43564 0.0
Zn60 Zn 0.16773 0.98941 0.3931 0.0
Zn61 Zn 0.17223 0.88355 0.38356 0.0
C62 C 0.23526 0.02589 0.40117 0.0
O63 O 0.22184 0.02696 0.43369 0.0
C64 C 0.11292 0.84231 0.41058 0.0
O65 O 0.10993 0.83664 0.37612 0.0
O66 O 0.13752 0.03466 0.4076 0.0
O67 O 0.14167 0.96581 0.35007 0.0
O68 O 0.14292 0.90437 0.34391 0.0
C69 C 0.12917 0.05789 0.38325 0.0
O70 O 0.13885 0.05054 0.35026 0.0
O71 O 0.21635 0.01044 0.3768 0.0
C72 C 0.20429 0.81157 0.3885 0.0
O73 O 0.19316 0.81599 0.42151 0.0
O74 O 0.19975 0.83775 0.3662 0.0
O75 O 0.20971 0.9196 0.40063 0.0
O76 O 0.18214 0.9582 0.43672 0.0
O77 O 0.13693 0.86537 0.42157 0.0
C78 C 0.13285 0.93632 0.33348 0.0
C79 C 0.20497 0.93172 0.43188 0.0
Zn80 Zn 1.00214 0.83716 0.09436 0.0
Zn81 Zn 0.1043 0.86523 0.08113 0.0
C82 C 0.96902 0.76641 0.08881 0.0
O83 O 0.9639 0.77872 0.05622 0.0
C84 C 0.12219 0.9332 0.05098 0.0
O85 O 0.13002 0.93918 0.08468 0.0
O86 O 0.95481 0.86542 0.08436 0.0
O87 O 0.02734 0.86229 0.13612 0.0
O88 O 0.08478 0.88243 0.12778 0.0
C89 C 0.93646 0.87871 0.11038 0.0
O90 O 0.94969 0.87506 0.14282 0.0
O91 O 0.98565 0.78689 0.11115 0.0
C92 C 0.1807 0.85656 0.06241 0.0
O93 O 0.16698 0.86054 0.0302 0.0
O94 O 0.15892 0.8573 0.08904 0.0
O95 O 0.08753 0.81519 0.06438 0.0
O96 O 0.03031 0.8281 0.04823 0.0
O97 O 0.10321 0.90471 0.04323 0.0
C98 C 0.05603 0.87921 0.14692 0.0
C99 C 0.05782 0.80597 0.04877 0.0
Zn100 Zn 0.66386 0.9984 0.11582 0.0
Zn101 Zn 0.65211 0.11301 0.09621 0.0
C102 C 0.73112 0.96178 0.11393 0.0
O103 O 0.71231 0.94761 0.08729 0.0
C104 C 0.59621 0.16731 0.07419 0.0
O105 O 0.5881 0.1682 0.10829 0.0
O106 O 0.63464 0.95131 0.12045 0.0
O107 O 0.63987 0.04163 0.14589 0.0
O108 O 0.62802 0.10255 0.14258 0.0
C109 C 0.60587 0.94516 0.13902 0.0
O110 O 0.59054 0.97229 0.15717 0.0
O111 O 0.71528 0.9856 0.13387 0.0
C112 C 0.71519 0.15469 0.07829 0.0
O113 O 0.70025 0.15094 0.04658 0.0
O114 O 0.69973 0.1395 0.10485 0.0
O115 O 0.66032 0.06304 0.07939 0.0
O116 O 0.67398 0.00818 0.06265 0.0
O117 O 0.62069 0.14454 0.06316 0.0
C118 C 0.62664 0.0717 0.15923 0.0
C119 C 0.67417 0.04234 0.05599 0.0
Zn120 Zn 0.50507 0.67372 0.11428 0.0
Zn121 Zn 0.38912 0.67812 0.09848 0.0
C122 C 0.55304 0.73199 0.12036 0.0
O123 O 0.56775 0.71026 0.09606 0.0
C124 C 0.3237 0.64002 0.08068 0.0
O125 O 0.31447 0.65438 0.1116 0.0
O126 O 0.54868 0.63778 0.11597 0.0
O127 O 0.46141 0.65086 0.14442 0.0
O128 O 0.39924 0.65053 0.14236 0.0
C129 C 0.564 0.63375 0.14629 0.0
O130 O 0.54944 0.65094 0.17382 0.0
O131 O 0.52351 0.72157 0.13588 0.0
C132 C 0.36982 0.75867 0.10382 0.0
O133 O 0.40122 0.76728 0.08837 0.0
O134 O 0.36204 0.72509 0.11012 0.0
O135 O 0.4391 0.68306 0.0803 0.0
O136 O 0.49467 0.69128 0.06277 0.0
O137 O 0.35588 0.64634 0.06825 0.0
C138 C 0.42978 0.64113 0.15696 0.0
C139 C 0.46047 0.69647 0.0573 0.0
Zn140 Zn 0.83025 0.50236 0.10309 0.0
Zn141 Zn 0.86101 0.39697 0.08787 0.0
C142 C 0.76135 0.53253 0.13415 0.0
O143 O 0.78211 0.54104 0.16169 0.0
C144 C 0.92993 0.37652 0.0608 0.0
O145 O 0.93318 0.36531 0.09399 0.0
O146 O 0.85746 0.54937 0.0916 0.0
O147 O 0.85298 0.47838 0.14784 0.0
O148 O 0.87253 0.42079 0.13522 0.0
C149 C 0.87229 0.56987 0.11508 0.0
O150 O 0.87049 0.56012 0.14875 0.0
O151 O 0.77587 0.51546 0.10804 0.0
C152 C 0.84836 0.32522 0.06507 0.0
O153 O 0.85323 0.34344 0.03514 0.0
O154 O 0.85147 0.34257 0.09442 0.0
O155 O 0.81331 0.41368 0.06638 0.0
O156 O 0.83436 0.46955 0.06094 0.0
O157 O 0.90347 0.39862 0.05322 0.0
C158 C 0.86962 0.44824 0.15641 0.0
C159 C 0.80812 0.44682 0.05692 0.0
Zn160 Zn 0.39532 0.83912 0.62212 0.0
Zn161 Zn 0.50267 0.83512 0.61645 0.0
C162 C 0.34572 0.89371 0.5927 0.0
O163 O 0.34034 0.90124 0.62654 0.0
C164 C 0.53669 0.76603 0.60421 0.0
O165 O 0.5402 0.78222 0.57305 0.0
O166 O 0.35252 0.81476 0.64607 0.0
O167 O 0.42293 0.79721 0.59984 0.0
O168 O 0.46812 0.82812 0.57459 0.0
C169 C 0.35374 0.78317 0.66097 0.0
O170 O 0.38579 0.76604 0.66432 0.0
O171 O 0.37053 0.87014 0.58414 0.0
C172 C 0.5698 0.87457 0.62499 0.0
O173 O 0.56106 0.86899 0.65853 0.0
O174 O 0.54812 0.86288 0.60079 0.0
O175 O 0.48264 0.86265 0.65973 0.0
O176 O 0.42114 0.86892 0.65898 0.0
O177 O 0.521 0.78377 0.62941 0.0
C178 C 0.44926 0.79875 0.57762 0.0
C179 C 0.45263 0.87572 0.6725 0.0
Zn180 Zn 0.64232 0.39839 0.58963 0.0
Zn181 Zn 0.66845 0.49821 0.59099 0.0
C182 C 0.58734 0.36451 0.54671 0.0
O183 O 0.57348 0.35835 0.57851 0.0
C184 C 0.74001 0.52898 0.58655 0.0
O185 O 0.72981 0.52922 0.55295 0.0
O186 O 0.65524 0.34773 0.60711 0.0
O187 O 0.6936 0.41833 0.58305 0.0
O188 O 0.68433 0.46616 0.54844 0.0
C189 C 0.67052 0.3285 0.58288 0.0
O190 O 0.67527 0.3431 0.55116 0.0
O191 O 0.6141 0.38725 0.54394 0.0
C192 C 0.63154 0.56563 0.60146 0.0
O193 O 0.64087 0.55582 0.63399 0.0
O194 O 0.64043 0.54438 0.57573 0.0
O195 O 0.63886 0.4772 0.63316 0.0
O196 O 0.61328 0.42164 0.62817 0.0
O197 O 0.71745 0.51696 0.60985 0.0
C198 C 0.7024 0.43683 0.55579 0.0
C199 C 0.61798 0.45165 0.64505 0.0
Zn200 Zn 0.10364 0.65028 0.60488 0.0
Zn201 Zn 0.00564 0.66054 0.59594 0.0
C202 C 0.15289 0.60496 0.56449 0.0
O203 O 0.1575 0.5899 0.59607 0.0
C204 C 0.97011 0.72678 0.62963 0.0
O205 O 0.9752 0.71132 0.66096 0.0
O206 O 0.1459 0.66906 0.63477 0.0
O207 O 0.07504 0.69699 0.59416 0.0
O208 O 0.03927 0.67258 0.5541 0.0
C209 C 0.16139 0.69597 0.619 0.0
O210 O 0.15016 0.70534 0.58695 0.0
O211 O 0.12846 0.63021 0.56068 0.0
C212 C 0.94094 0.61792 0.60594 0.0
O213 O 0.94558 0.6313 0.63816 0.0
O214 O 0.96479 0.62546 0.58208 0.0
O215 O 0.02663 0.64468 0.64461 0.0
O216 O 0.07642 0.61131 0.6319 0.0
O217 O 0.98026 0.70978 0.60168 0.0
C218 C 0.06101 0.69828 0.56335 0.0
C219 C 0.05107 0.62077 0.65347 0.0
Zn220 Zn 0.83305 0.09067 0.59823 0.0
Zn221 Zn 0.84279 0.99028 0.61106 0.0
C222 C 0.88212 0.13857 0.56447 0.0
O223 O 0.8812 0.15107 0.59732 0.0
C224 C 0.77367 0.95647 0.60994 0.0
O225 O 0.78924 0.9443 0.58053 0.0
O226 O 0.79793 0.13261 0.60604 0.0
O227 O 0.7986 0.04905 0.58763 0.0
O228 O 0.83194 0.00786 0.56 0.0
C229 C 0.77834 0.13779 0.57829 0.0
O230 O 0.78354 0.1161 0.55063 0.0
O231 O 0.86446 0.10905 0.55716 0.0
C232 C 0.87157 0.92522 0.64066 0.0
O233 O 0.85639 0.94139 0.66845 0.0
O234 O 0.87002 0.9415 0.61061 0.0
O235 O 0.87066 0.02248 0.64716 0.0
O236 O 0.86483 0.08347 0.6405 0.0
O237 O 0.79204 0.9778 0.63023 0.0
C238 C 0.80403 0.02944 0.56026 0.0
C239 C 0.87795 0.05549 0.65669 0.0
Zn240 Zn 0.88405 0.17084 0.89596 0.0
Zn241 Zn 0.9902 0.16011 0.89599 0.0
C242 C 0.82703 0.12769 0.92739 0.0
O243 O 0.81606 0.12736 0.89401 0.0
C244 C 0.0245 0.22916 0.89911 0.0
O245 O 0.03213 0.215 0.93055 0.0
O246 O 0.84362 0.19887 0.87039 0.0
O247 O 0.91777 0.20845 0.91751 0.0
O248 O 0.96003 0.1712 0.94027 0.0
C249 C 0.8416 0.23396 0.86891 0.0
O250 O 0.86828 0.25385 0.88284 0.0
O251 O 0.85736 0.14359 0.9352 0.0
C252 C 0.05953 0.12275 0.88694 0.0
O253 O 0.05059 0.12761 0.85331 0.0
O254 O 0.03722 0.13388 0.91091 0.0
O255 O 0.96648 0.12891 0.85725 0.0
O256 O 0.90516 0.13495 0.86095 0.0
O257 O 0.00624 0.20986 0.87692 0.0
C258 C 0.94433 0.20275 0.93896 0.0
C259 C 0.93392 0.12051 0.84719 0.0
Zn260 Zn 0.34917 0.90809 0.90608 0.0
Zn261 Zn 0.33901 0.01671 0.90051 0.0
C262 C 0.41259 0.86841 0.93255 0.0
O263 O 0.42302 0.87081 0.89913 0.0
C264 C 0.26686 0.04695 0.90586 0.0
O265 O 0.28032 0.05523 0.93739 0.0
O266 O 0.32506 0.86263 0.88701 0.0
O267 O 0.30649 0.93533 0.92762 0.0
O268 O 0.33228 0.98694 0.94562 0.0
C269 C 0.31091 0.84408 0.91227 0.0
O270 O 0.31238 0.85738 0.94481 0.0
O271 O 0.38387 0.88598 0.94281 0.0
C272 C 0.37408 0.08614 0.88768 0.0
O273 O 0.36788 0.07627 0.85453 0.0
O274 O 0.36431 0.06458 0.91272 0.0
O275 O 0.36796 0.9932 0.85981 0.0
O276 O 0.37542 0.93218 0.86567 0.0
O277 O 0.28756 0.03015 0.88365 0.0
C278 C 0.30465 0.96539 0.94481 0.0
C279 C 0.38132 0.96237 0.84933 0.0
Zn280 Zn 0.59456 0.38277 0.89586 0.0
Zn281 Zn 0.49621 0.35773 0.89104 0.0
C282 C 0.62709 0.43461 0.94244 0.0
O283 O 0.63612 0.44907 0.91153 0.0
C284 C 0.46316 0.28769 0.89929 0.0
O285 O 0.4605 0.30084 0.93182 0.0
O286 O 0.64616 0.37264 0.87859 0.0
O287 O 0.57418 0.3317 0.90229 0.0
O288 O 0.52635 0.34485 0.93564 0.0
C289 C 0.65356 0.34603 0.85764 0.0
O290 O 0.6263 0.32628 0.84454 0.0
O291 O 0.60408 0.40803 0.94288 0.0
C292 C 0.43644 0.41138 0.882 0.0
O293 O 0.45718 0.42257 0.85542 0.0
O294 O 0.44854 0.38582 0.90241 0.0
O295 O 0.52029 0.38134 0.84709 0.0
O296 O 0.57105 0.41375 0.85835 0.0
O297 O 0.47795 0.30765 0.87532 0.0
C298 C 0.55505 0.32528 0.92979 0.0
C299 C 0.54523 0.4041 0.83743 0.0
Zn300 Zn 0.16915 0.59182 0.89583 0.0
Zn301 Zn 0.15597 0.4952 0.89803 0.0
C302 C 0.11276 0.63152 0.93182 0.0
O303 O 0.10629 0.64148 0.89871 0.0
C304 C 0.21972 0.45103 0.90755 0.0
O305 O 0.19958 0.4419 0.93531 0.0
O306 O 0.20017 0.63721 0.88918 0.0
O307 O 0.20559 0.55128 0.90602 0.0
O308 O 0.16914 0.52373 0.94343 0.0
C309 C 0.21511 0.64692 0.91838 0.0
O310 O 0.20914 0.62689 0.94694 0.0
O311 O 0.13647 0.60596 0.93768 0.0
C312 C 0.11271 0.43049 0.88571 0.0
O313 O 0.12188 0.43827 0.85268 0.0
O314 O 0.12337 0.45189 0.91053 0.0
O315 O 0.13261 0.52124 0.85435 0.0
O316 O 0.13919 0.58243 0.85299 0.0
O317 O 0.206 0.47319 0.88458 0.0
C318 C 0.2002 0.53852 0.93688 0.0
C319 C 0.12691 0.55266 0.83966 0.0
H320 H 0.59348 0.07858 0.32357 0.0
H321 H 0.51087 0.15639 0.28605 0.0
H322 H 0.52722 0.14236 0.22457 0.0
H323 H 0.5685 0.11231 0.18164 0.0
H324 H 0.64944 0.03241 0.2177 0.0
H325 H 0.62983 0.04237 0.27958 0.0
C326 C 0.57888 0.09217 0.30188 0.0
C327 C 0.55137 0.11888 0.30939 0.0
C328 C 0.58809 0.0836 0.2664 0.0
C329 C 0.53224 0.13584 0.28105 0.0
C330 C 0.54161 0.12791 0.24585 0.0
C331 C 0.58143 0.09666 0.20305 0.0
C332 C 0.61058 0.072 0.19535 0.0
C333 C 0.56997 0.10246 0.23826 0.0
C334 C 0.62685 0.05149 0.2231 0.0
C335 C 0.61585 0.05742 0.25844 0.0
H336 H 0.46359 0.64756 0.22184 0.0
H337 H 0.38847 0.57995 0.16112 0.0
H338 H 0.37317 0.54432 0.21418 0.0
H339 H 0.37637 0.5362 0.27846 0.0
H340 H 0.44956 0.60444 0.34083 0.0
H341 H 0.47024 0.63603 0.2868 0.0
C342 C 0.4446 0.62446 0.2203 0.0
C343 C 0.42714 0.61625 0.18784 0.0
C344 C 0.43499 0.60471 0.25129 0.0
C345 C 0.40214 0.58666 0.18599 0.0
C346 C 0.39323 0.56643 0.21631 0.0
C347 C 0.39696 0.55788 0.28029 0.0
C348 C 0.41087 0.56836 0.31368 0.0
C349 C 0.40863 0.5759 0.24924 0.0
C350 C 0.43799 0.59614 0.31546 0.0
C351 C 0.44993 0.61417 0.28456 0.0
H352 H 0.89842 0.41957 0.31912 0.0
H353 H 0.99038 0.35709 0.27656 0.0
H354 H 0.9756 0.37952 0.21647 0.0
H355 H 0.93163 0.4106 0.17564 0.0
H356 H 0.84115 0.47501 0.21866 0.0
H357 H 0.8604 0.45844 0.27923 0.0
C358 C 0.91567 0.41153 0.29673 0.0
C359 C 0.94519 0.38645 0.30202 0.0
C360 C 0.90698 0.42453 0.26246 0.0
C361 C 0.96763 0.37647 0.27304 0.0
C362 C 0.95895 0.38902 0.23871 0.0
C363 C 0.91649 0.42143 0.19835 0.0
C364 C 0.88466 0.44349 0.1928 0.0
C365 C 0.92794 0.41206 0.23301 0.0
C366 C 0.86564 0.45791 0.22233 0.0
C367 C 0.87654 0.4483 0.2569 0.0
H368 H 0.07724 0.89264 0.31142 0.0
H369 H 0.1453 0.98425 0.27891 0.0
H370 H 0.12378 0.9773 0.21735 0.0
H371 H 0.09318 0.93873 0.17196 0.0
H372 H 0.02354 0.84838 0.20506 0.0
H373 H 0.03757 0.8616 0.26747 0.0
C374 C 0.08655 0.91164 0.29093 0.0
C375 C 0.11308 0.93857 0.29929 0.0
C376 C 0.07411 0.90741 0.25581 0.0
C377 C 0.1248 0.96337 0.27289 0.0
C378 C 0.11277 0.95917 0.23772 0.0
C379 C 0.08051 0.92247 0.19294 0.0
C380 C 0.05796 0.89222 0.18407 0.0
C381 C 0.0886 0.93031 0.2287 0.0
C382 C 0.04112 0.87171 0.21133 0.0
C383 C 0.0493 0.8791 0.24697 0.0
H384 H 0.44023 0.91941 0.83232 0.0
H385 H 0.3631 0.99889 0.78841 0.0
H386 H 0.38249 0.98215 0.72807 0.0
H387 H 0.41346 0.93728 0.68848 0.0
H388 H 0.49208 0.85921 0.73218 0.0
H389 H 0.48059 0.88339 0.79212 0.0
C390 C 0.42849 0.93374 0.80949 0.0
C391 C 0.39997 0.95988 0.81455 0.0
C392 C 0.43974 0.92393 0.775 0.0
C393 C 0.38513 0.97868 0.78502 0.0
C394 C 0.39596 0.96888 0.75056 0.0
C395 C 0.42877 0.92634 0.71109 0.0
C396 C 0.45313 0.89628 0.70628 0.0
C397 C 0.42204 0.94041 0.74529 0.0
C398 C 0.47321 0.8824 0.73545 0.0
C399 C 0.46641 0.89602 0.76968 0.0
H400 H 0.58771 0.45895 0.80925 0.0
H401 H 0.50737 0.37596 0.78057 0.0
H402 H 0.51972 0.38696 0.7176 0.0
H403 H 0.55936 0.41375 0.67137 0.0
H404 H 0.63995 0.49647 0.69975 0.0
H405 H 0.62099 0.49234 0.76212 0.0
C406 C 0.57242 0.44368 0.78924 0.0
C407 C 0.54716 0.41614 0.79971 0.0
C408 C 0.57992 0.44985 0.75302 0.0
C409 C 0.52717 0.39711 0.77337 0.0
C410 C 0.53435 0.40324 0.73729 0.0
C411 C 0.57238 0.43133 0.69111 0.0
C412 C 0.6015 0.45487 0.68103 0.0
C413 C 0.56162 0.42854 0.72691 0.0
C414 C 0.6176 0.47797 0.7068 0.0
C415 C 0.60693 0.47545 0.74252 0.0
H416 H 0.0817 0.55694 0.67834 0.0
H417 H 0.0287 0.65815 0.71276 0.0
H418 H 0.0447 0.64403 0.77457 0.0
H419 H 0.08029 0.60674 0.81761 0.0
H420 H 0.13123 0.50431 0.78402 0.0
H421 H 0.10908 0.51476 0.72307 0.0
C422 C 0.07313 0.57556 0.69948 0.0
C423 C 0.05455 0.60879 0.69099 0.0
C424 C 0.08227 0.56717 0.73498 0.0
C425 C 0.04308 0.63243 0.71861 0.0
C426 C 0.05242 0.62449 0.75393 0.0
C427 C 0.08595 0.58642 0.79701 0.0
C428 C 0.10774 0.55509 0.805 0.0
C429 C 0.07299 0.59254 0.76224 0.0
C430 C 0.1145 0.52864 0.77838 0.0
C431 C 0.10206 0.53474 0.74354 0.0
H432 H 0.86671 0.0279 0.72261 0.0
H433 H 0.93759 0.10006 0.6623 0.0
H434 H 0.96711 0.12149 0.71721 0.0
H435 H 0.96569 0.12684 0.7825 0.0
H436 H 0.88808 0.06166 0.84252 0.0
H437 H 0.86858 0.02987 0.78814 0.0
C438 C 0.88935 0.0475 0.72163 0.0
C439 C 0.9003 0.06229 0.68875 0.0
C440 C 0.90465 0.0612 0.75341 0.0
C441 C 0.92899 0.08831 0.68752 0.0
C442 C 0.94569 0.10066 0.71886 0.0
C443 C 0.94536 0.10487 0.78364 0.0
C444 C 0.9285 0.09622 0.81623 0.0
C445 C 0.9328 0.08834 0.75202 0.0
C446 C 0.90149 0.06845 0.81756 0.0
C447 C 0.89021 0.05048 0.78649 0.0
H448 H 0.38216 0.09866 0.34418 0.0
H449 H 0.39945 0.11502 0.4569 0.0
H450 H 0.34097 0.08394 0.46966 0.0
H451 H 0.28449 0.05344 0.44875 0.0
H452 H 0.26749 0.03656 0.33606 0.0
H453 H 0.32656 0.06654 0.32337 0.0
C454 C 0.3732 0.09542 0.37158 0.0
C455 C 0.39507 0.10931 0.39955 0.0
C456 C 0.33965 0.07749 0.37871 0.0
C457 C 0.38315 0.1046 0.43488 0.0
C458 C 0.34969 0.08689 0.44219 0.0
C459 C 0.29367 0.05628 0.42138 0.0
C460 C 0.27149 0.04297 0.39337 0.0
C461 C 0.32764 0.07345 0.4143 0.0
C462 C 0.28399 0.04661 0.35811 0.0
C463 C 0.31774 0.06378 0.35083 0.0
H464 H 0.41578 0.39946 0.40835 0.0
H465 H 0.3716 0.38804 0.30197 0.0
H466 H 0.39918 0.3266 0.29718 0.0
H467 H 0.43388 0.27521 0.32361 0.0
H468 H 0.47832 0.28575 0.42993 0.0
H469 H 0.45289 0.34846 0.43411 0.0
C470 C 0.4123 0.38357 0.38409 0.0
C471 C 0.39147 0.39834 0.35566 0.0
C472 C 0.42828 0.34806 0.38144 0.0
C473 C 0.3874 0.37741 0.32434 0.0
C474 C 0.40316 0.3422 0.32153 0.0
C475 C 0.43824 0.29125 0.34765 0.0
C476 C 0.45778 0.27568 0.37645 0.0
C477 C 0.42339 0.32714 0.34998 0.0
C478 C 0.46325 0.29698 0.40736 0.0
C479 C 0.44865 0.33285 0.40982 0.0
H480 H 0.12235 0.41109 0.33309 0.0
H481 H 0.10462 0.38654 0.44436 0.0
H482 H 0.1638 0.41483 0.45936 0.0
H483 H 0.22166 0.44425 0.44082 0.0
H484 H 0.23974 0.46908 0.32971 0.0
H485 H 0.17925 0.44317 0.31482 0.0
C486 C 0.13133 0.41207 0.36065 0.0
C487 C 0.10909 0.39648 0.3875 0.0
C488 C 0.16551 0.42836 0.36915 0.0
C489 C 0.12113 0.39822 0.4231 0.0
C490 C 0.15504 0.41436 0.43174 0.0
C491 C 0.21237 0.44413 0.41333 0.0
C492 C 0.23536 0.45836 0.38641 0.0
C493 C 0.17762 0.42914 0.40495 0.0
C494 C 0.22266 0.45826 0.35098 0.0
C495 C 0.18809 0.44337 0.34242 0.0
H496 H 0.10375 0.11032 0.33686 0.0
H497 H 0.11425 0.08664 0.44919 0.0
H498 H 0.08823 0.14745 0.46342 0.0
H499 H 0.06439 0.20802 0.44409 0.0
H500 H 0.05302 0.23167 0.33189 0.0
H501 H 0.07745 0.17011 0.31752 0.0
C502 C 0.10022 0.11834 0.36449 0.0
C503 C 0.11115 0.09388 0.39192 0.0
C504 C 0.08523 0.15342 0.3725 0.0
C505 C 0.10612 0.10479 0.42753 0.0
C506 C 0.09132 0.13965 0.4357 0.0
C507 C 0.06725 0.19978 0.41645 0.0
C508 C 0.05716 0.22463 0.38909 0.0
C509 C 0.08112 0.16431 0.40841 0.0
C510 C 0.06064 0.2132 0.35347 0.0
C511 C 0.07465 0.178 0.34524 0.0
H512 H 0.89412 0.91633 0.1585 0.0
H513 H 0.89518 0.87824 0.04947 0.0
H514 H 0.83207 0.90127 0.04118 0.0
H515 H 0.77594 0.92975 0.06533 0.0
H516 H 0.77439 0.96948 0.17368 0.0
H517 H 0.83857 0.94831 0.1818 0.0
C518 C 0.88061 0.91323 0.13287 0.0
C519 C 0.8993 0.89533 0.10471 0.0
C520 C 0.84426 0.92664 0.12823 0.0
C521 C 0.8815 0.89186 0.07159 0.0
C522 C 0.84534 0.90492 0.06684 0.0
C523 C 0.78958 0.93379 0.09079 0.0
C524 C 0.77031 0.95074 0.11903 0.0
C525 C 0.82635 0.9219 0.09508 0.0
C526 C 0.78861 0.95638 0.15159 0.0
C527 C 0.82525 0.94423 0.15623 0.0
H528 H 0.5207 0.7928 0.15157 0.0
H529 H 0.62152 0.75459 0.10131 0.0
H530 H 0.64665 0.81682 0.10328 0.0
H531 H 0.63918 0.88236 0.11613 0.0
H532 H 0.53914 0.92232 0.16634 0.0
H533 H 0.51459 0.85921 0.16753 0.0
C534 C 0.54835 0.79807 0.14156 0.0
C535 C 0.5691 0.76908 0.12615 0.0
C536 C 0.56265 0.83428 0.14237 0.0
C537 C 0.60482 0.77639 0.11309 0.0
C538 C 0.61925 0.81202 0.11412 0.0
C539 C 0.61197 0.8774 0.12736 0.0
C540 C 0.59088 0.9071 0.14078 0.0
C541 C 0.59819 0.84124 0.12808 0.0
C542 C 0.5559 0.89996 0.15567 0.0
C543 C 0.54185 0.86388 0.15637 0.0
H544 H 0.6008 0.59222 0.09639 0.0
H545 H 0.60739 0.62931 0.20552 0.0
H546 H 0.66799 0.60002 0.21185 0.0
H547 H 0.7207 0.56663 0.18579 0.0
H548 H 0.71426 0.52836 0.07706 0.0
H549 H 0.65217 0.55499 0.07141 0.0
C550 C 0.61538 0.59366 0.12162 0.0
C551 C 0.59954 0.61322 0.15032 0.0
C552 C 0.65042 0.57661 0.1252 0.0
C553 C 0.61881 0.61457 0.1829 0.0
C554 C 0.6536 0.59786 0.18658 0.0
C555 C 0.70566 0.56387 0.16092 0.0
C556 C 0.72238 0.5458 0.13185 0.0
C557 C 0.6699 0.57923 0.1578 0.0
C558 C 0.70223 0.54225 0.09989 0.0
C559 C 0.66668 0.55756 0.09658 0.0
H560 H 0.9371 0.71505 0.04617 0.0
H561 H 0.96796 0.73557 0.15548 0.0
H562 H 0.94139 0.67627 0.17319 0.0
H563 H 0.90792 0.61929 0.15781 0.0
H564 H 0.87733 0.59924 0.04828 0.0
H565 H 0.90531 0.65765 0.03059 0.0
C566 C 0.9381 0.70658 0.07388 0.0
C567 C 0.95434 0.72984 0.09946 0.0
C568 C 0.92274 0.67253 0.08389 0.0
C569 C 0.9556 0.71824 0.13521 0.0
C570 C 0.94035 0.68435 0.14539 0.0
C571 C 0.90744 0.62764 0.13005 0.0
C572 C 0.89039 0.6049 0.10447 0.0
C573 C 0.92361 0.66138 0.11998 0.0
C574 C 0.89018 0.61616 0.06859 0.0
C575 C 0.90617 0.64961 0.0584 0.0
H576 H 0.72246 0.92993 0.56423 0.0
H577 H 0.73853 0.95962 0.67445 0.0
H578 H 0.67593 0.93831 0.68853 0.0
H579 H 0.61803 0.90838 0.6699 0.0
H580 H 0.60208 0.87951 0.55936 0.0
H581 H 0.66333 0.90365 0.54497 0.0
C582 C 0.71229 0.93172 0.59136 0.0
C583 C 0.73523 0.9458 0.61839 0.0
C584 C 0.67637 0.91958 0.59916 0.0
C585 C 0.72141 0.94871 0.65324 0.0
C586 C 0.68569 0.93646 0.66129 0.0
C587 C 0.62786 0.90751 0.64262 0.0
C588 C 0.60563 0.89183 0.6158 0.0
C589 C 0.66313 0.9214 0.63453 0.0
C590 C 0.61864 0.89132 0.58053 0.0
C591 C 0.65371 0.90502 0.57229 0.0
H592 H 0.6025 0.61141 0.65155 0.0
H593 H 0.61689 0.60028 0.5379 0.0
H594 H 0.58769 0.66089 0.5288 0.0
H595 H 0.56022 0.71789 0.55334 0.0
H596 H 0.54563 0.72858 0.66701 0.0
H597 H 0.57266 0.66704 0.67583 0.0
C598 C 0.59922 0.62214 0.62473 0.0
C599 C 0.61214 0.6014 0.59545 0.0
C600 C 0.58245 0.65693 0.61972 0.0
C601 C 0.60728 0.61565 0.5609 0.0
C602 C 0.59065 0.65035 0.55569 0.0
C603 C 0.56294 0.70678 0.58007 0.0
C604 C 0.55128 0.72801 0.60953 0.0
C605 C 0.5785 0.67138 0.58494 0.0
C606 C 0.55449 0.71293 0.64391 0.0
C607 C 0.57001 0.67776 0.64897 0.0
H608 H 0.88655 0.59598 0.65129 0.0
H609 H 0.91798 0.59443 0.54033 0.0
H610 H 0.85899 0.56578 0.52491 0.0
H611 H 0.79747 0.54394 0.54247 0.0
H612 H 0.76587 0.54516 0.65334 0.0
H613 H 0.82611 0.57111 0.66925 0.0
C614 C 0.88065 0.58917 0.62374 0.0
C615 C 0.90663 0.59758 0.59698 0.0
C616 C 0.84658 0.57284 0.61502 0.0
C617 C 0.89854 0.58832 0.56147 0.0
C618 C 0.86474 0.57204 0.5526 0.0
C619 C 0.80372 0.54984 0.57015 0.0
C620 C 0.77704 0.54297 0.59664 0.0
C621 C 0.83837 0.56467 0.57908 0.0
C622 C 0.78584 0.55029 0.63241 0.0
C623 C 0.82027 0.56518 0.64152 0.0
H624 H 0.90418 0.88348 0.58894 0.0
H625 H 0.8787 0.88407 0.70128 0.0
H626 H 0.90704 0.823 0.70799 0.0
H627 H 0.93876 0.76902 0.68193 0.0
H628 H 0.96382 0.76859 0.56945 0.0
H629 H 0.93606 0.82982 0.56299 0.0
C630 C 0.90488 0.8703 0.61491 0.0
C631 C 0.88934 0.88839 0.64451 0.0
C632 C 0.92115 0.83509 0.61862 0.0
C633 C 0.89047 0.87083 0.67798 0.0
C634 C 0.90667 0.83585 0.68189 0.0
C635 C 0.93818 0.78234 0.65603 0.0
C636 C 0.95326 0.7641 0.62627 0.0
C637 C 0.92205 0.81766 0.65238 0.0
C638 C 0.95224 0.78182 0.59285 0.0
C639 C 0.93641 0.81693 0.58908 0.0
H640 H 0.11145 0.09362 0.84237 0.0
H641 H 0.08982 0.11593 0.95344 0.0
H642 H 0.15161 0.09321 0.96908 0.0
H643 H 0.21265 0.06959 0.95101 0.0
H644 H 0.23434 0.04706 0.84005 0.0
H645 H 0.17151 0.06713 0.82463 0.0
C646 C 0.12015 0.09339 0.87003 0.0
C647 C 0.09608 0.10673 0.89664 0.0
C648 C 0.15577 0.08039 0.87885 0.0
C649 C 0.10777 0.10593 0.93238 0.0
C650 C 0.14315 0.09301 0.94136 0.0
C651 C 0.20366 0.06909 0.92343 0.0
C652 C 0.2283 0.0573 0.89665 0.0
C653 C 0.16753 0.08064 0.91477 0.0
C654 C 0.21599 0.05618 0.86115 0.0
C655 C 0.18008 0.06771 0.85231 0.0
H656 H 0.402 0.13603 0.84055 0.0
H657 H 0.38468 0.11765 0.95298 0.0
H658 H 0.41118 0.17806 0.96629 0.0
H659 H 0.43807 0.23647 0.94611 0.0
H660 H 0.456 0.25504 0.83384 0.0
H661 H 0.43052 0.19405 0.82042 0.0
C662 C 0.40406 0.14519 0.86798 0.0
C663 C 0.39122 0.12234 0.8957 0.0
C664 C 0.41938 0.17999 0.87549 0.0
C665 C 0.39431 0.13462 0.93111 0.0
C666 C 0.40942 0.16921 0.93876 0.0
C667 C 0.43643 0.22724 0.91867 0.0
C668 C 0.44874 0.2504 0.891 0.0
C669 C 0.42184 0.19218 0.91117 0.0
C670 C 0.44668 0.2378 0.85564 0.0
C671 C 0.43207 0.20294 0.84794 0.0
H672 H 0.38074 0.38324 0.92276 0.0
H673 H 0.40476 0.46978 0.84702 0.0
H674 H 0.3398 0.48902 0.84722 0.0
H675 H 0.27567 0.48059 0.86798 0.0
H676 H 0.2519 0.3941 0.9438 0.0
H677 H 0.31699 0.37541 0.94415 0.0
C678 C 0.37187 0.40655 0.90656 0.0
C679 C 0.39769 0.42502 0.88495 0.0
C680 C 0.33432 0.41724 0.90644 0.0
C681 C 0.38554 0.45501 0.86393 0.0
C682 C 0.34832 0.46599 0.8639 0.0
C683 C 0.28469 0.45742 0.88429 0.0
C684 C 0.25887 0.43859 0.90559 0.0
C685 C 0.32236 0.44705 0.88474 0.0
C686 C 0.27115 0.40902 0.92705 0.0
C687 C 0.30842 0.39835 0.92737 0.0
H688 H 0.08427 0.38056 0.8389 0.0
H689 H 0.09701 0.40199 0.9514 0.0
H690 H 0.06929 0.34224 0.96525 0.0
H691 H 0.04475 0.28258 0.94551 0.0
H692 H 0.0315 0.26087 0.83323 0.0
H693 H 0.05596 0.32225 0.8192 0.0
C694 C 0.08081 0.37229 0.86646 0.0
C695 C 0.09304 0.39565 0.89405 0.0
C696 C 0.06497 0.33778 0.87428 0.0
C697 C 0.088 0.38456 0.92962 0.0
C698 C 0.07223 0.35033 0.93759 0.0
C699 C 0.04723 0.29126 0.91794 0.0
C700 C 0.03689 0.26703 0.8904 0.0
C701 C 0.06121 0.32649 0.91014 0.0
C702 C 0.03946 0.27896 0.85488 0.0
C703 C 0.05352 0.314 0.84686 0.0
H704 H 0.73662 0.16212 0.45724 0.0
H705 H 0.69495 0.19084 0.35301 0.0
H706 H 0.74721 0.2326 0.34403 0.0
H707 H 0.80225 0.26409 0.36781 0.0
H708 H 0.84118 0.2369 0.47358 0.0
H709 H 0.79221 0.19149 0.48008 0.0
C710 C 0.73898 0.17743 0.43254 0.0
C711 C 0.71182 0.17383 0.40609 0.0
C712 C 0.76837 0.20189 0.42799 0.0
C713 C 0.71552 0.19334 0.3739 0.0
C714 C 0.74526 0.2173 0.3688 0.0
C715 C 0.80003 0.24807 0.39216 0.0
C716 C 0.82498 0.25402 0.42025 0.0
C717 C 0.77143 0.22233 0.39599 0.0
C718 C 0.82199 0.2331 0.45169 0.0
C719 C 0.79407 0.20705 0.45544 0.0
H720 H 0.25721 0.64708 0.37378 0.0
H721 H 0.35057 0.6999 0.32383 0.0
H722 H 0.31788 0.75962 0.32556 0.0
H723 H 0.26574 0.79788 0.34841 0.0
H724 H 0.17699 0.74474 0.40529 0.0
H725 H 0.20465 0.68408 0.39375 0.0
C726 C 0.27005 0.67144 0.36236 0.0
C727 C 0.30611 0.6691 0.34843 0.0
C728 C 0.25202 0.70576 0.36529 0.0
C729 C 0.3227 0.70108 0.33451 0.0
C730 C 0.30413 0.73522 0.33574 0.0
C731 C 0.25231 0.77285 0.35761 0.0
C732 C 0.2195 0.77548 0.37761 0.0
C733 C 0.26926 0.73811 0.35214 0.0
C734 C 0.20241 0.74315 0.38998 0.0
C735 C 0.21816 0.70854 0.38336 0.0
H736 H 0.3472 0.80572 0.05237 0.0
H737 H 0.32309 0.76915 0.15911 0.0
H738 H 0.26322 0.8012 0.15727 0.0
H739 H 0.21454 0.8313 0.12222 0.0
H740 H 0.23605 0.86259 0.0132 0.0
H741 H 0.3001 0.84098 0.01889 0.0
C742 C 0.32928 0.80595 0.07557 0.0
C743 C 0.33938 0.78562 0.10598 0.0
C744 C 0.29413 0.8227 0.07355 0.0
C745 C 0.31575 0.78506 0.13562 0.0
C746 C 0.28147 0.80304 0.13442 0.0
C747 C 0.23339 0.83397 0.09988 0.0
C748 C 0.22045 0.84801 0.06722 0.0
C749 C 0.2698 0.82065 0.10303 0.0
C750 C 0.24522 0.85135 0.03851 0.0
C751 C 0.28186 0.83909 0.04174 0.0
H752 H 0.82078 0.28454 0.12003 0.0
H753 H 0.84237 0.28072 0.00695 0.0
H754 H 0.80625 0.22421 0.0018 0.0
H755 H 0.76114 0.18163 0.02773 0.0
H756 H 0.73903 0.18532 0.14065 0.0
H757 H 0.78302 0.23589 0.14755 0.0
C758 C 0.81819 0.27094 0.0944 0.0
C759 C 0.8334 0.28731 0.0638 0.0
C760 C 0.79687 0.23872 0.09148 0.0
C761 C 0.83025 0.2691 0.03084 0.0
C762 C 0.80955 0.2368 0.02781 0.0
C763 C 0.76642 0.1931 0.05394 0.0
C764 C 0.74638 0.1803 0.08349 0.0
C765 C 0.79148 0.2223 0.05768 0.0
C766 C 0.75391 0.19494 0.1174 0.0
C767 C 0.77896 0.22396 0.12136 0.0
H768 H 0.22244 0.67057 0.65418 0.0
H769 H 0.16599 0.76999 0.62003 0.0
H770 H 0.21925 0.8072 0.6372 0.0
H771 H 0.28436 0.81025 0.65278 0.0
H772 H 0.34426 0.71064 0.68096 0.0
H773 H 0.28711 0.67484 0.67624 0.0
C774 C 0.22169 0.70047 0.65146 0.0
C775 C 0.19072 0.71772 0.63584 0.0
C776 C 0.25313 0.72155 0.65996 0.0
C777 C 0.18984 0.75632 0.63187 0.0
C778 C 0.22023 0.77755 0.6416 0.0
C779 C 0.28491 0.78081 0.65855 0.0
C780 C 0.31865 0.76303 0.66651 0.0
C781 C 0.25249 0.76028 0.65428 0.0
C782 C 0.31869 0.72497 0.67442 0.0
C783 C 0.28605 0.70443 0.6715 0.0
H784 H 0.75846 0.18653 0.63039 0.0
H785 H 0.73971 0.15926 0.51993 0.0
H786 H 0.70221 0.21489 0.51232 0.0
H787 H 0.67892 0.27353 0.53574 0.0
H788 H 0.69576 0.30105 0.64631 0.0
H789 H 0.72924 0.24257 0.65554 0.0
C790 C 0.74586 0.19264 0.60479 0.0
C791 C 0.75248 0.16931 0.57553 0.0
C792 C 0.72399 0.22459 0.60069 0.0
C793 C 0.73552 0.17717 0.54266 0.0
C794 C 0.714 0.20892 0.53829 0.0
C795 C 0.68964 0.2665 0.56193 0.0
C796 C 0.68549 0.29147 0.5902 0.0
C797 C 0.70876 0.23317 0.56691 0.0
C798 C 0.69876 0.28202 0.62419 0.0
C799 C 0.71806 0.24879 0.62939 0.0
H800 H 0.82189 0.30626 0.8758 0.0
H801 H 0.78302 0.20163 0.83523 0.0
H802 H 0.72215 0.22888 0.82364 0.0
H803 H 0.67812 0.28014 0.83171 0.0
H804 H 0.71618 0.38364 0.87553 0.0
H805 H 0.7793 0.35921 0.8787 0.0
C806 C 0.80032 0.28956 0.86385 0.0
C807 C 0.80688 0.25188 0.85677 0.0
C808 C 0.76511 0.30513 0.85808 0.0
C809 C 0.77861 0.23065 0.84124 0.0
C810 C 0.74375 0.24618 0.83466 0.0
C811 C 0.70033 0.29761 0.8413 0.0
C812 C 0.6924 0.33351 0.85368 0.0
C813 C 0.73638 0.28307 0.84397 0.0
C814 C 0.72151 0.35577 0.86609 0.0
C815 C 0.7576 0.34181 0.86801 0.0
H816 H 0.30026 0.791 0.96116 0.0
H817 H 0.28505 0.81533 0.84953 0.0
H818 H 0.255 0.75529 0.84096 0.0
H819 H 0.2308 0.69711 0.86619 0.0
H820 H 0.248 0.67363 0.97794 0.0
H821 H 0.27979 0.73221 0.98535 0.0
C822 C 0.29034 0.78322 0.93492 0.0
C823 C 0.29433 0.80759 0.9061 0.0
C824 C 0.27349 0.74887 0.93023 0.0
C825 C 0.28206 0.79693 0.87213 0.0
C826 C 0.26488 0.76271 0.86726 0.0
C827 C 0.24172 0.70476 0.89206 0.0
C828 C 0.23667 0.68125 0.92149 0.0
C829 C 0.26011 0.73862 0.89624 0.0
C830 C 0.2512 0.69135 0.95486 0.0
C831 C 0.26939 0.72487 0.9592 0.0
H832 H 0.65126 0.04068 0.48248 0.0
H833 H 0.72207 0.03849 0.38994 0.0
H834 H 0.7754 0.02339 0.42739 0.0
H835 H 0.80366 0.02065 0.48772 0.0
H836 H 0.7321 0.02574 0.57957 0.0
H837 H 0.67778 0.02919 0.54133 0.0
C838 C 0.67815 0.03603 0.47032 0.0
C839 C 0.68258 0.04135 0.43347 0.0
C840 C 0.70894 0.02826 0.4921 0.0
C841 C 0.71772 0.03487 0.41827 0.0
C842 C 0.74842 0.02646 0.43973 0.0
C843 C 0.77609 0.02151 0.49919 0.0
C844 C 0.77198 0.02331 0.53637 0.0
C845 C 0.74467 0.02457 0.47688 0.0
C846 C 0.73607 0.02472 0.55098 0.0
C847 C 0.70491 0.02678 0.52913 0.0
H848 H 0.47362 0.79855 0.50885 0.0
H849 H 0.43834 0.72686 0.5941 0.0
H850 H 0.43687 0.67434 0.55342 0.0
H851 H 0.43623 0.6512 0.49244 0.0
H852 H 0.46773 0.72316 0.40592 0.0
H853 H 0.48067 0.77281 0.4482 0.0
C854 C 0.4664 0.77124 0.51854 0.0
C855 C 0.45544 0.76661 0.55415 0.0
C856 C 0.46449 0.74128 0.49469 0.0
C857 C 0.44622 0.73113 0.56656 0.0
C858 C 0.44537 0.7011 0.54335 0.0
C859 C 0.44654 0.67751 0.48281 0.0
C860 C 0.45026 0.68366 0.44603 0.0
C861 C 0.45293 0.70621 0.50711 0.0
C862 C 0.4642 0.71777 0.43409 0.0
C863 C 0.47147 0.74629 0.45825 0.0
H864 H 0.84479 0.36406 0.48654 0.0
H865 H 0.83292 0.45703 0.41522 0.0
H866 H 0.78079 0.48049 0.45035 0.0
H867 H 0.7352 0.47182 0.49879 0.0
H868 H 0.74667 0.37705 0.56831 0.0
H869 H 0.80169 0.35715 0.53633 0.0
C870 C 0.83134 0.38988 0.4791 0.0
C871 C 0.84285 0.40879 0.44835 0.0
C872 C 0.80066 0.40262 0.49877 0.0
C873 C 0.82466 0.44193 0.43882 0.0
C874 C 0.79465 0.45526 0.45878 0.0
C875 C 0.74983 0.44694 0.50703 0.0
C876 C 0.73642 0.42599 0.53587 0.0
C877 C 0.78177 0.43534 0.48834 0.0
C878 C 0.75598 0.3938 0.54615 0.0
C879 C 0.78768 0.38232 0.52791 0.0
H880 H 0.04197 0.70812 0.49323 0.0
H881 H 0.09876 0.76065 0.58078 0.0
H882 H 0.11736 0.81118 0.54211 0.0
H883 H 0.12112 0.8388 0.48267 0.0
H884 H 0.06418 0.78713 0.39481 0.0
H885 H 0.04158 0.73869 0.4344 0.0
C886 C 0.05817 0.73075 0.50387 0.0
C887 C 0.06955 0.73004 0.53971 0.0
C888 C 0.06874 0.76013 0.48144 0.0
C889 C 0.09022 0.75991 0.55313 0.0
C890 C 0.10078 0.78905 0.53107 0.0
C891 C 0.1033 0.81729 0.47224 0.0
C892 C 0.09463 0.81657 0.43574 0.0
C893 C 0.09073 0.78919 0.49505 0.0
C894 C 0.07146 0.78839 0.42277 0.0
C895 C 0.05861 0.7605 0.44538 0.0
H896 H 0.23513 0.94644 0.92691 0.0
H897 H 0.29798 1.00154 0.00868 0.0
H898 H 0.24309 0.00311 0.04715 0.0
H899 H 0.1809 0.97928 0.06066 0.0
H900 H 0.11922 0.92231 0.97893 0.0
H901 H 0.16968 0.93207 0.93688 0.0
C902 C 0.23662 0.95929 0.95299 0.0
C903 C 0.27063 0.97306 0.9654 0.0
C904 C 0.20521 0.95969 0.9749 0.0
C905 C 0.27212 0.99046 0.99877 0.0
C906 C 0.24079 0.99122 0.02076 0.0
C907 C 0.17798 0.96986 0.03339 0.0
C908 C 0.14661 0.94926 0.02326 0.0
C909 C 0.20764 0.97455 0.00961 0.0
C910 C 0.14319 0.93779 0.98763 0.0
C911 C 0.1722 0.94309 0.96361 0.0
H912 H 0.62122 0.18529 0.00836 0.0
H913 H 0.53737 0.21421 0.08549 0.0
H914 H 0.51599 0.26496 0.04722 0.0
H915 H 0.52319 0.30308 0.99278 0.0
H916 H 0.60943 0.27454 0.91771 0.0
H917 H 0.62763 0.222 0.95423 0.0
C918 C 0.59797 0.20238 0.01669 0.0
C919 C 0.58091 0.19586 0.04973 0.0
C920 C 0.58639 0.23194 0.99499 0.0
C921 C 0.55105 0.2186 0.06018 0.0
C922 C 0.53885 0.24771 0.03834 0.0
C923 C 0.54585 0.28528 0.9844 0.0
C924 C 0.56487 0.29299 0.95252 0.0
C925 C 0.55666 0.255 0.00586 0.0
C926 C 0.59425 0.26954 0.94211 0.0
C927 C 0.60475 0.23932 0.96297 0.0
H928 H 0.18797 0.56281 0.0049 0.0
H929 H 0.27404 0.53543 0.92963 0.0
H930 H 0.32061 0.56266 0.96853 0.0
H931 H 0.33601 0.60005 0.02058 0.0
H932 H 0.25021 0.63005 0.09535 0.0
H933 H 0.20454 0.59644 0.06007 0.0
C934 C 0.21707 0.5619 0.99769 0.0
C935 C 0.22769 0.54728 0.96456 0.0
C936 C 0.24366 0.57889 0.01967 0.0
C937 C 0.26534 0.54676 0.95504 0.0
C938 C 0.29194 0.56254 0.97711 0.0
C939 C 0.30739 0.59904 0.02932 0.0
C940 C 0.29655 0.61783 0.06036 0.0
C941 C 0.28126 0.57976 0.0089 0.0
C942 C 0.25934 0.61595 0.07144 0.0
C943 C 0.23316 0.59668 0.0513 0.0
H944 H 0.96583 0.31034 0.06764 0.0
H945 H 0.92679 0.38873 0.98898 0.0
H946 H 0.93293 0.34179 0.94263 0.0
H947 H 0.93802 0.27612 0.92696 0.0
H948 H 0.97446 0.1969 0.00573 0.0
H949 H 0.98089 0.24664 0.04959 0.0
C950 C 0.95965 0.31756 0.04022 0.0
C951 C 0.94502 0.35282 0.03197 0.0
C952 C 0.96193 0.29003 0.0139 0.0
C953 C 0.93763 0.3617 0.99617 0.0
C954 C 0.94082 0.33476 0.96968 0.0
C955 C 0.94781 0.26983 0.95364 0.0
C956 C 0.9548 0.23287 0.9635 0.0
C957 C 0.951 0.29841 0.97865 0.0
C958 C 0.9685 0.22513 0.99772 0.0
C959 C 0.97206 0.25354 0.02278 0.0
H960 H 0.33152 0.86392 0.52801 0.0
H961 H 0.29902 0.95358 0.59727 0.0
H962 H 0.25148 0.97298 0.55438 0.0
H963 H 0.21869 0.9639 0.49699 0.0
H964 H 0.25091 0.87223 0.42974 0.0
H965 H 0.29839 0.854 0.47225 0.0
C966 C 0.31435 0.88798 0.5336 0.0
C967 C 0.31909 0.9075 0.56561 0.0
C968 C 0.28655 0.89836 0.50933 0.0
C969 C 0.29608 0.93819 0.57269 0.0
C970 C 0.26876 0.9492 0.54825 0.0
C971 C 0.23587 0.93976 0.49186 0.0
C972 C 0.23116 0.91957 0.46011 0.0
C973 C 0.26353 0.9293 0.51654 0.0
C974 C 0.25386 0.88841 0.45385 0.0
C975 C 0.28122 0.87796 0.4781 0.0
H976 H 0.53062 0.315 0.54138 0.0
H977 H 0.63037 0.35061 0.48828 0.0
H978 H 0.6296 0.29525 0.45131 0.0
H979 H 0.60592 0.23272 0.44023 0.0
H980 H 0.50509 0.19721 0.49077 0.0
H981 H 0.50059 0.25672 0.52228 0.0
C982 C 0.55167 0.31111 0.5211 0.0
C983 C 0.58091 0.33672 0.51818 0.0
C984 C 0.55112 0.279 0.4998 0.0
C985 C 0.60767 0.33141 0.49141 0.0
C986 C 0.60743 0.29954 0.47035 0.0
C987 C 0.58259 0.23835 0.45768 0.0
C988 C 0.55618 0.21059 0.46378 0.0
C989 C 0.58016 0.27253 0.47533 0.0
C990 C 0.52578 0.21821 0.48589 0.0
C991 C 0.52336 0.25213 0.50398 0.0
H992 H 0.27127 0.6062 0.44134 0.0
H993 H 0.30947 0.50857 0.49689 0.0
H994 H 0.25749 0.51391 0.5386 0.0
H995 H 0.20312 0.54845 0.561 0.0
H996 H 0.16411 0.64478 0.50363 0.0
H997 H 0.21423 0.63748 0.46057 0.0
C998 C 0.26827 0.58612 0.46265 0.0
C999 C 0.29455 0.55744 0.46651 0.0
C1000 C 0.23809 0.58904 0.48605 0.0
C1001 C 0.28978 0.53108 0.49361 0.0
C1002 C 0.26007 0.53413 0.51741 0.0
C1003 C 0.20535 0.56761 0.53886 0.0
C1004 C 0.18002 0.59729 0.53576 0.0
C1005 C 0.23431 0.56327 0.51413 0.0
C1006 C 0.18313 0.62167 0.5067 0.0
C1007 C 0.21195 0.61766 0.48216 0.0
H1008 H 0.92334 0.20089 0.57273 0.0
H1009 H 0.8785 0.1283 0.49235 0.0
H1010 H 0.90072 0.16976 0.44572 0.0
H1011 H 0.92953 0.2279 0.42796 0.0
H1012 H 0.97349 0.30166 0.50764 0.0
H1013 H 0.95527 0.25805 0.55455 0.0
C1014 C 0.91874 0.19389 0.545 0.0
C1015 C 0.89917 0.16146 0.5361 0.0
C1016 C 0.93131 0.21807 0.51829 0.0
C1017 C 0.89357 0.15288 0.50001 0.0
C1018 C 0.90616 0.17667 0.47332 0.0
C1019 C 0.93533 0.23449 0.45559 0.0
C1020 C 0.95246 0.26827 0.46436 0.0
C1021 C 0.92453 0.20955 0.4822 0.0
C1022 C 0.9602 0.27599 0.50022 0.0
C1023 C 0.94968 0.25111 0.527 0.0
H1024 H 0.76105 0.09262 0.91901 0.0
H1025 H 0.83848 0.12872 -0.00057 0.0
H1026 H 0.79743 0.10587 0.04608 0.0
H1027 H 0.73937 0.07585 0.06414 0.0
H1028 H 0.66198 0.03952 0.98436 0.0
H1029 H 0.70318 0.06218 0.9371 0.0
C1030 C 0.76906 0.09538 0.94672 0.0
C1031 C 0.80292 0.11228 0.95564 0.0
C1032 C 0.74522 0.08234 0.97345 0.0
C1033 C 0.81276 0.11565 0.99174 0.0
C1034 C 0.78925 0.10266 0.01847 0.0
C1035 C 0.7315 0.07338 0.03634 0.0
C1036 C 0.69756 0.05705 0.02742 0.0
C1037 C 0.75539 0.08615 0.00962 0.0
C1038 C 0.68781 0.05272 0.99155 0.0
C1039 C 0.71137 0.06554 0.96469 0.0
H1040 H 0.37431 0.81419 0.96486 0.0
H1041 H 0.48508 0.85436 0.948 0.0
H1042 H 0.51035 0.80251 0.98294 0.0
H1043 H 0.50035 0.74707 0.02001 0.0
H1044 H 0.38959 0.70476 0.03294 0.0
H1045 H 0.36485 0.75551 0.99684 0.0
C1046 C 0.40395 0.8117 0.96919 0.0
C1047 C 0.42787 0.83844 0.95491 0.0
C1048 C 0.4182 0.78114 0.98799 0.0
C1049 C 0.46625 0.83436 0.95944 0.0
C1050 C 0.48063 0.80464 0.97916 0.0
C1051 C 0.47089 0.74852 0.01434 0.0
C1052 C 0.44677 0.72241 0.02958 0.0
C1053 C 0.45685 0.77791 0.99365 0.0
C1054 C 0.4087 0.72461 0.02177 0.0
C1055 C 0.3945 0.75381 0.00135 0.0
H1056 H 0.74175 0.41367 0.06539 0.0
H1057 H 0.79482 0.50357 0.01012 0.0
H1058 H 0.73964 0.51199 0.97281 0.0
H1059 H 0.68088 0.48679 0.94984 0.0
H1060 H 0.62863 0.39629 0.00532 0.0
H1061 H 0.67856 0.39571 0.04907 0.0
C1062 C 0.74099 0.43555 0.04558 0.0
C1063 C 0.77259 0.4574 0.03988 0.0
C1064 C 0.70941 0.43994 0.02411 0.0
C1065 C 0.77095 0.48617 0.01475 0.0
C1066 C 0.73948 0.49084 0.9933 0.0
C1067 C 0.67993 0.46751 0.97197 0.0
C1068 C 0.65138 0.44108 0.97375 0.0
C1069 C 0.70917 0.46685 0.99679 0.0
C1070 C 0.65035 0.4167 0.00297 0.0
C1071 C 0.67908 0.41617 0.02794 0.0
H1072 H 0.10045 0.74476 0.05805 0.0
H1073 H 0.01592 0.79099 0.98961 0.0
H1074 H 0.0225 0.7383 0.94909 0.0
H1075 H 0.05711 0.68266 0.93006 0.0
H1076 H 0.14101 0.63623 -0.00073 0.0
H1077 H 0.12937 0.68507 0.04279 0.0
C1078 C 0.08324 0.74315 0.0344 0.0
C1079 C 0.05825 0.77211 0.02647 0.0
C1080 C 0.08708 0.71274 0.01136 0.0
C1081 C 0.03556 0.76923 0.99618 0.0
C1082 C 0.03939 0.73914 0.97295 0.0
C1083 C 0.07235 0.68282 0.95498 0.0
C1084 C 0.10015 0.656 0.96117 0.0
C1085 C 0.06574 0.71123 0.97982 0.0
C1086 C 0.11943 0.65643 0.99375 0.0
C1087 C 0.113 0.68457 0.01857 0.0
loop_
_geom_bond_atom_site_label_1
_geom_bond_atom_site_label_2
_geom_bond_distance
_geom_bond_site_symmetry_2
_ccdc_geom_bond_type
Zn0 O6 1.969 . S
Zn0 O7 1.965 . S
Zn0 O11 2.024 . S
Zn0 O16 1.969 . S
Zn1 O8 1.969 . S
Zn1 O14 1.969 . S
Zn1 O15 1.965 . S
Zn1 O17 2.024 . S
C2 O3 1.229 . S
C2 O11 1.058 . S
O3 C2 1.229 . S
C4 O5 1.229 . S
C4 O17 1.058 . S
O5 C4 1.229 . S
O6 Zn0 1.969 . S
O6 C9 1.267 . S
O7 Zn0 1.965 . S
O7 C18 1.260 . S
O8 Zn1 1.969 . S
O8 C18 1.258 . S
C9 O6 1.267 . S
C9 O10 1.228 . S
O10 C9 1.228 . S
O11 Zn0 2.024 . S
O11 C2 1.058 . S
C12 O13 1.228 . S
C12 O14 1.267 . S
O13 C12 1.228 . S
O14 Zn1 1.969 . S
O14 C12 1.267 . S
O15 Zn1 1.965 . S
O15 C19 1.260 . S
O16 Zn0 1.969 . S
O16 C19 1.258 . S
O17 Zn1 2.024 . S
O17 C4 1.058 . S
C18 O7 1.260 . S
C18 O8 1.258 . S
C19 O15 1.260 . S
C19 O16 1.258 . S
Zn20 O26 1.969 . S
Zn20 O27 1.965 . S
Zn20 O31 2.024 . S
Zn20 O36 1.969 . S
Zn21 O28 1.969 . S
Zn21 O34 1.969 . S
Zn21 O35 1.965 . S
Zn21 O37 2.024 . S
C22 O23 1.229 . S
C22 O31 1.058 . S
O23 C22 1.229 . S
C24 O25 1.229 . S
C24 O37 1.058 . S
O25 C24 1.229 . S
O26 Zn20 1.969 . S
O26 C29 1.267 . S
O27 Zn20 1.965 . S
O27 C38 1.260 . S
O28 Zn21 1.969 . S
O28 C38 1.258 . S
C29 O26 1.267 . S
C29 O30 1.228 . S
O30 C29 1.228 . S
O31 Zn20 2.024 . S
O31 C22 1.058 . S
C32 O33 1.228 . S
C32 O34 1.267 . S
O33 C32 1.228 . S
O34 Zn21 1.969 . S
O34 C32 1.267 . S
O35 Zn21 1.965 . S
O35 C39 1.260 . S
O36 Zn20 1.969 . S
O36 C39 1.258 . S
O37 Zn21 2.024 . S
O37 C24 1.058 . S
C38 O27 1.260 . S
C38 O28 1.258 . S
C39 O35 1.260 . S
C39 O36 1.258 . S
Zn40 O46 1.969 . S
Zn40 O47 1.965 1_455 S
Zn40 O51 2.024 . S
Zn40 O56 1.969 1_455 S
Zn41 O48 1.969 . S
Zn41 O54 1.969 . S
Zn41 O55 1.965 . S
Zn41 O57 2.024 . S
C42 O43 1.229 . S
C42 O51 1.058 . S
O43 C42 1.229 . S
C44 O45 1.229 . S
C44 O57 1.058 . S
O45 C44 1.229 . S
O46 Zn40 1.969 . S
O46 C49 1.267 . S
O47 Zn40 1.965 1_655 S
O47 C58 1.260 . S
O48 Zn41 1.969 . S
O48 C58 1.258 . S
C49 O46 1.267 . S
C49 O50 1.228 . S
O50 C49 1.228 . S
O51 Zn40 2.024 . S
O51 C42 1.058 . S
C52 O53 1.228 . S
C52 O54 1.267 . S
O53 C52 1.228 . S
O54 Zn41 1.969 . S
O54 C52 1.267 . S
O55 Zn41 1.965 . S
O55 C59 1.260 . S
O56 Zn40 1.969 1_655 S
O56 C59 1.258 . S
O57 Zn41 2.024 . S
O57 C44 1.058 . S
C58 O47 1.260 . S
C58 O48 1.258 . S
C59 O55 1.260 . S
C59 O56 1.258 . S
Zn60 O66 1.969 . S
Zn60 O67 1.965 1_545 S
Zn60 O71 2.024 . S
Zn60 O76 1.969 1_545 S
Zn61 O68 1.969 . S
Zn61 O74 1.969 . S
Zn61 O75 1.965 . S
Zn61 O77 2.024 . S
C62 O63 1.229 . S
C62 O71 1.058 . S
O63 C62 1.229 . S
C64 O65 1.229 . S
C64 O77 1.058 . S
O65 C64 1.229 . S
O66 Zn60 1.969 . S
O66 C69 1.267 . S
O67 Zn60 1.965 1_565 S
O67 C78 1.260 . S
O68 Zn61 1.969 . S
O68 C78 1.258 . S
C69 O66 1.267 . S
C69 O70 1.228 . S
O70 C69 1.228 . S
O71 Zn60 2.024 . S
O71 C62 1.058 . S
C72 O73 1.228 . S
C72 O74 1.267 . S
O73 C72 1.228 . S
O74 Zn61 1.969 . S
O74 C72 1.267 . S
O75 Zn61 1.965 . S
O75 C79 1.260 . S
O76 Zn60 1.969 1_565 S
O76 C79 1.258 . S
O77 Zn61 2.024 . S
O77 C64 1.058 . S
C78 O67 1.260 . S
C78 O68 1.258 . S
C79 O75 1.260 . S
C79 O76 1.258 . S
Zn80 O86 1.969 . S
Zn80 O87 1.965 1_655 S
Zn80 O91 2.024 . S
Zn80 O96 1.969 1_655 S
Zn81 O88 1.969 . S
Zn81 O94 1.969 . S
Zn81 O95 1.965 . S
Zn81 O97 2.024 . S
C82 O83 1.229 . S
C82 O91 1.058 . S
O83 C82 1.229 . S
C84 O85 1.229 . S
C84 O97 1.058 . S
O85 C84 1.229 . S
O86 Zn80 1.969 . S
O86 C89 1.267 . S
O87 Zn80 1.965 1_455 S
O87 C98 1.260 . S
O88 Zn81 1.969 . S
O88 C98 1.258 . S
C89 O86 1.267 . S
C89 O90 1.228 . S
O90 C89 1.228 . S
O91 Zn80 2.024 . S
O91 C82 1.058 . S
C92 O93 1.228 . S
C92 O94 1.267 . S
O93 C92 1.228 . S
O94 Zn81 1.969 . S
O94 C92 1.267 . S
O95 Zn81 1.965 . S
O95 C99 1.260 . S
O96 Zn80 1.969 1_455 S
O96 C99 1.258 . S
O97 Zn81 2.024 . S
O97 C84 1.058 . S
C98 O87 1.260 . S
C98 O88 1.258 . S
C99 O95 1.260 . S
C99 O96 1.258 . S
Zn100 O106 1.969 . S
Zn100 O107 1.965 1_565 S
Zn100 O111 2.024 . S
Zn100 O116 1.969 1_565 S
Zn101 O108 1.969 . S
Zn101 O114 1.969 . S
Zn101 O115 1.965 . S
Zn101 O117 2.024 . S
C102 O103 1.229 . S
C102 O111 1.058 . S
O103 C102 1.229 . S
C104 O105 1.229 . S
C104 O117 1.058 . S
O105 C104 1.229 . S
O106 Zn100 1.969 . S
O106 C109 1.267 . S
O107 Zn100 1.965 1_545 S
O107 C118 1.260 . S
O108 Zn101 1.969 . S
O108 C118 1.258 . S
C109 O106 1.267 . S
C109 O110 1.228 . S
O110 C109 1.228 . S
O111 Zn100 2.024 . S
O111 C102 1.058 . S
C112 O113 1.228 . S
C112 O114 1.267 . S
O113 C112 1.228 . S
O114 Zn101 1.969 . S
O114 C112 1.267 . S
O115 Zn101 1.965 . S
O115 C119 1.260 . S
O116 Zn100 1.969 1_545 S
O116 C119 1.258 . S
O117 Zn101 2.024 . S
O117 C104 1.058 . S
C118 O107 1.260 . S
C118 O108 1.258 . S
C119 O115 1.260 . S
C119 O116 1.258 . S
Zn120 O126 1.969 . S
Zn120 O127 1.965 . S
Zn120 O131 2.024 . S
Zn120 O136 1.969 . S
Zn121 O128 1.969 . S
Zn121 O134 1.969 . S
Zn121 O135 1.965 . S
Zn121 O137 2.024 . S
C122 O123 1.229 . S
C122 O131 1.058 . S
O123 C122 1.229 . S
C124 O125 1.229 . S
C124 O137 1.058 . S
O125 C124 1.229 . S
O126 Zn120 1.969 . S
O126 C129 1.267 . S
O127 Zn120 1.965 . S
O127 C138 1.260 . S
O128 Zn121 1.969 . S
O128 C138 1.258 . S
C129 O126 1.267 . S
C129 O130 1.228 . S
O130 C129 1.228 . S
O131 Zn120 2.024 . S
O131 C122 1.058 . S
C132 O133 1.228 . S
C132 O134 1.267 . S
O133 C132 1.228 . S
O134 Zn121 1.969 . S
O134 C132 1.267 . S
O135 Zn121 1.965 . S
O135 C139 1.260 . S
O136 Zn120 1.969 . S
O136 C139 1.258 . S
O137 Zn121 2.024 . S
O137 C124 1.058 . S
C138 O127 1.260 . S
C138 O128 1.258 . S
C139 O135 1.260 . S
C139 O136 1.258 . S
Zn140 O146 1.969 . S
Zn140 O147 1.965 . S
Zn140 O151 2.024 . S
Zn140 O156 1.969 . S
Zn141 O148 1.969 . S
Zn141 O154 1.969 . S
Zn141 O155 1.965 . S
Zn141 O157 2.024 . S
C142 O143 1.229 . S
C142 O151 1.058 . S
O143 C142 1.229 . S
C144 O145 1.229 . S
C144 O157 1.058 . S
O145 C144 1.229 . S
O146 Zn140 1.969 . S
O146 C149 1.267 . S
O147 Zn140 1.965 . S
O147 C158 1.260 . S
O148 Zn141 1.969 . S
O148 C158 1.258 . S
C149 O146 1.267 . S
C149 O150 1.228 . S
O150 C149 1.228 . S
O151 Zn140 2.024 . S
O151 C142 1.058 . S
C152 O153 1.228 . S
C152 O154 1.267 . S
O153 C152 1.228 . S
O154 Zn141 1.969 . S
O154 C152 1.267 . S
O155 Zn141 1.965 . S
O155 C159 1.260 . S
O156 Zn140 1.969 . S
O156 C159 1.258 . S
O157 Zn141 2.024 . S
O157 C144 1.058 . S
C158 O147 1.260 . S
C158 O148 1.258 . S
C159 O155 1.260 . S
C159 O156 1.258 . S
Zn160 O166 1.969 . S
Zn160 O167 1.965 . S
Zn160 O171 2.024 . S
Zn160 O176 1.969 . S
Zn161 O168 1.969 . S
Zn161 O174 1.969 . S
Zn161 O175 1.965 . S
Zn161 O177 2.024 . S
C162 O163 1.229 . S
C162 O171 1.058 . S
O163 C162 1.229 . S
C164 O165 1.229 . S
C164 O177 1.058 . S
O165 C164 1.229 . S
O166 Zn160 1.969 . S
O166 C169 1.267 . S
O167 Zn160 1.965 . S
O167 C178 1.260 . S
O168 Zn161 1.969 . S
O168 C178 1.258 . S
C169 O166 1.267 . S
C169 O170 1.228 . S
O170 C169 1.228 . S
O171 Zn160 2.024 . S
O171 C162 1.058 . S
C172 O173 1.228 . S
C172 O174 1.267 . S
O173 C172 1.228 . S
O174 Zn161 1.969 . S
O174 C172 1.267 . S
O175 Zn161 1.965 . S
O175 C179 1.260 . S
O176 Zn160 1.969 . S
O176 C179 1.258 . S
O177 Zn161 2.024 . S
O177 C164 1.058 . S
C178 O167 1.260 . S
C178 O168 1.258 . S
C179 O175 1.260 . S
C179 O176 1.258 . S
Zn180 O186 1.969 . S
Zn180 O187 1.965 . S
Zn180 O191 2.024 . S
Zn180 O196 1.969 . S
Zn181 O188 1.969 . S
Zn181 O194 1.969 . S
Zn181 O195 1.965 . S
Zn181 O197 2.024 . S
C182 O183 1.229 . S
C182 O191 1.058 . S
O183 C182 1.229 . S
C184 O185 1.229 . S
C184 O197 1.058 . S
O185 C184 1.229 . S
O186 Zn180 1.969 . S
O186 C189 1.267 . S
O187 Zn180 1.965 . S
O187 C198 1.260 . S
O188 Zn181 1.969 . S
O188 C198 1.258 . S
C189 O186 1.267 . S
C189 O190 1.228 . S
O190 C189 1.228 . S
O191 Zn180 2.024 . S
O191 C182 1.058 . S
C192 O193 1.228 . S
C192 O194 1.267 . S
O193 C192 1.228 . S
O194 Zn181 1.969 . S
O194 C192 1.267 . S
O195 Zn181 1.965 . S
O195 C199 1.260 . S
O196 Zn180 1.969 . S
O196 C199 1.258 . S
O197 Zn181 2.024 . S
O197 C184 1.058 . S
C198 O187 1.260 . S
C198 O188 1.258 . S
C199 O195 1.260 . S
C199 O196 1.258 . S
Zn200 O206 1.969 . S
Zn200 O207 1.965 . S
Zn200 O211 2.024 . S
Zn200 O216 1.969 . S
Zn201 O208 1.969 1_655 S
Zn201 O214 1.969 . S
Zn201 O215 1.965 1_655 S
Zn201 O217 2.024 . S
C202 O203 1.229 . S
C202 O211 1.058 . S
O203 C202 1.229 . S
C204 O205 1.229 . S
C204 O217 1.058 . S
O205 C204 1.229 . S
O206 Zn200 1.969 . S
O206 C209 1.267 . S
O207 Zn200 1.965 . S
O207 C218 1.260 . S
O208 Zn201 1.969 1_455 S
O208 C218 1.258 . S
C209 O206 1.267 . S
C209 O210 1.228 . S
O210 C209 1.228 . S
O211 Zn200 2.024 . S
O211 C202 1.058 . S
C212 O213 1.228 . S
C212 O214 1.267 . S
O213 C212 1.228 . S
O214 Zn201 1.969 . S
O214 C212 1.267 . S
O215 Zn201 1.965 1_455 S
O215 C219 1.260 . S
O216 Zn200 1.969 . S
O216 C219 1.258 . S
O217 Zn201 2.024 . S
O217 C204 1.058 . S
C218 O207 1.260 . S
C218 O208 1.258 . S
C219 O215 1.260 . S
C219 O216 1.258 . S
Zn220 O226 1.969 . S
Zn220 O227 1.965 . S
Zn220 O231 2.024 . S
Zn220 O236 1.969 . S
Zn221 O228 1.969 1_565 S
Zn221 O234 1.969 . S
Zn221 O235 1.965 1_565 S
Zn221 O237 2.024 . S
C222 O223 1.229 . S
C222 O231 1.058 . S
O223 C222 1.229 . S
C224 O225 1.229 . S
C224 O237 1.058 . S
O225 C224 1.229 . S
O226 Zn220 1.969 . S
O226 C229 1.267 . S
O227 Zn220 1.965 . S
O227 C238 1.260 . S
O228 Zn221 1.969 1_545 S
O228 C238 1.258 . S
C229 O226 1.267 . S
C229 O230 1.228 . S
O230 C229 1.228 . S
O231 Zn220 2.024 . S
O231 C222 1.058 . S
C232 O233 1.228 . S
C232 O234 1.267 . S
O233 C232 1.228 . S
O234 Zn221 1.969 . S
O234 C232 1.267 . S
O235 Zn221 1.965 1_545 S
O235 C239 1.260 . S
O236 Zn220 1.969 . S
O236 C239 1.258 . S
O237 Zn221 2.024 . S
O237 C224 1.058 . S
C238 O227 1.260 . S
C238 O228 1.258 . S
C239 O235 1.260 . S
C239 O236 1.258 . S
Zn240 O246 1.969 . S
Zn240 O247 1.965 . S
Zn240 O251 2.024 . S
Zn240 O256 1.969 . S
Zn241 O248 1.969 1_455 S
Zn241 O254 1.969 . S
Zn241 O255 1.965 1_455 S
Zn241 O257 2.024 . S
C242 O243 1.229 . S
C242 O251 1.058 . S
O243 C242 1.229 . S
C244 O245 1.229 . S
C244 O257 1.058 . S
O245 C244 1.229 . S
O246 Zn240 1.969 . S
O246 C249 1.267 . S
O247 Zn240 1.965 . S
O247 C258 1.260 . S
O248 Zn241 1.969 1_655 S
O248 C258 1.258 . S
C249 O246 1.267 . S
C249 O250 1.228 . S
O250 C249 1.228 . S
O251 Zn240 2.024 . S
O251 C242 1.058 . S
C252 O253 1.228 . S
C252 O254 1.267 . S
O253 C252 1.228 . S
O254 Zn241 1.969 . S
O254 C252 1.267 . S
O255 Zn241 1.965 1_655 S
O255 C259 1.260 . S
O256 Zn240 1.969 . S
O256 C259 1.258 . S
O257 Zn241 2.024 . S
O257 C244 1.058 . S
C258 O247 1.260 . S
C258 O248 1.258 . S
C259 O255 1.260 . S
C259 O256 1.258 . S
Zn260 O266 1.969 . S
Zn260 O267 1.965 . S
Zn260 O271 2.024 . S
Zn260 O276 1.969 . S
Zn261 O268 1.969 1_545 S
Zn261 O274 1.969 . S
Zn261 O275 1.965 1_545 S
Zn261 O277 2.024 . S
C262 O263 1.229 . S
C262 O271 1.058 . S
O263 C262 1.229 . S
C264 O265 1.229 . S
C264 O277 1.058 . S
O265 C264 1.229 . S
O266 Zn260 1.969 . S
O266 C269 1.267 . S
O267 Zn260 1.965 . S
O267 C278 1.260 . S
O268 Zn261 1.969 1_565 S
O268 C278 1.258 . S
C269 O266 1.267 . S
C269 O270 1.228 . S
O270 C269 1.228 . S
O271 Zn260 2.024 . S
O271 C262 1.058 . S
C272 O273 1.228 . S
C272 O274 1.267 . S
O273 C272 1.228 . S
O274 Zn261 1.969 . S
O274 C272 1.267 . S
O275 Zn261 1.965 1_565 S
O275 C279 1.260 . S
O276 Zn260 1.969 . S
O276 C279 1.258 . S
O277 Zn261 2.024 . S
O277 C264 1.058 . S
C278 O267 1.260 . S
C278 O268 1.258 . S
C279 O275 1.260 . S
C279 O276 1.258 . S
Zn280 O286 1.969 . S
Zn280 O287 1.965 . S
Zn280 O291 2.024 . S
Zn280 O296 1.969 . S
Zn281 O288 1.969 . S
Zn281 O294 1.969 . S
Zn281 O295 1.965 . S
Zn281 O297 2.024 . S
C282 O283 1.229 . S
C282 O291 1.058 . S
O283 C282 1.229 . S
C284 O285 1.229 . S
C284 O297 1.058 . S
O285 C284 1.229 . S
O286 Zn280 1.969 . S
O286 C289 1.267 . S
O287 Zn280 1.965 . S
O287 C298 1.260 . S
O288 Zn281 1.969 . S
O288 C298 1.258 . S
C289 O286 1.267 . S
C289 O290 1.228 . S
O290 C289 1.228 . S
O291 Zn280 2.024 . S
O291 C282 1.058 . S
C292 O293 1.228 . S
C292 O294 1.267 . S
O293 C292 1.228 . S
O294 Zn281 1.969 . S
O294 C292 1.267 . S
O295 Zn281 1.965 . S
O295 C299 1.260 . S
O296 Zn280 1.969 . S
O296 C299 1.258 . S
O297 Zn281 2.024 . S
O297 C284 1.058 . S
C298 O287 1.260 . S
C298 O288 1.258 . S
C299 O295 1.260 . S
C299 O296 1.258 . S
Zn300 O306 1.969 . S
Zn300 O307 1.965 . S
Zn300 O311 2.024 . S
Zn300 O316 1.969 . S
Zn301 O308 1.969 . S
Zn301 O314 1.969 . S
Zn301 O315 1.965 . S
Zn301 O317 2.024 . S
C302 O303 1.229 . S
C302 O311 1.058 . S
O303 C302 1.229 . S
C304 O305 1.229 . S
C304 O317 1.058 . S
O305 C304 1.229 . S
O306 Zn300 1.969 . S
O306 C309 1.267 . S
O307 Zn300 1.965 . S
O307 C318 1.260 . S
O308 Zn301 1.969 . S
O308 C318 1.258 . S
C309 O306 1.267 . S
C309 O310 1.228 . S
O310 C309 1.228 . S
O311 Zn300 2.024 . S
O311 C302 1.058 . S
C312 O313 1.228 . S
C312 O314 1.267 . S
O313 C312 1.228 . S
O314 Zn301 1.969 . S
O314 C312 1.267 . S
O315 Zn301 1.965 . S
O315 C319 1.260 . S
O316 Zn300 1.969 . S
O316 C319 1.258 . S
O317 Zn301 2.024 . S
O317 C304 1.058 . S
C318 O307 1.260 . S
C318 O308 1.258 . S
C319 O315 1.260 . S
C319 O316 1.258 . S
H320 C326 0.930 . S
H321 C329 0.930 . S
H322 C330 0.930 . S
H323 C331 0.930 . S
H324 C334 0.930 . S
H325 C335 0.930 . S
C326 H320 0.930 . S
C326 C327 1.355 . S
C326 C328 1.415 . S
C327 C326 1.355 . S
C327 C329 1.419 . S
C328 C326 1.415 . S
C328 C333 1.425 . S
C328 C335 1.409 . S
C329 H321 0.930 . S
C329 C327 1.419 . S
C329 C330 1.362 . S
C330 H322 0.930 . S
C330 C329 1.362 . S
C330 C333 1.409 . S
C331 H323 0.930 . S
C331 C332 1.355 . S
C331 C333 1.415 . S
C332 C331 1.355 . S
C332 C334 1.419 . S
C333 C328 1.425 . S
C333 C330 1.409 . S
C333 C331 1.415 . S
C334 H324 0.930 . S
C334 C332 1.419 . S
C334 C335 1.362 . S
C335 H325 0.930 . S
C335 C328 1.409 . S
C335 C334 1.362 . S
H336 C342 0.930 . S
H337 C345 0.930 . S
H338 C346 0.930 . S
H339 C347 0.930 . S
H340 C350 0.930 . S
H341 C351 0.930 . S
C342 H336 0.930 . S
C342 C343 1.355 . S
C342 C344 1.415 . S
C343 C342 1.355 . S
C343 C345 1.419 . S
C344 C342 1.415 . S
C344 C349 1.425 . S
C344 C351 1.409 . S
C345 H337 0.930 . S
C345 C343 1.419 . S
C345 C346 1.362 . S
C346 H338 0.930 . S
C346 C345 1.362 . S
C346 C349 1.409 . S
C347 H339 0.930 . S
C347 C348 1.355 . S
C347 C349 1.415 . S
C348 C347 1.355 . S
C348 C350 1.419 . S
C349 C344 1.425 . S
C349 C346 1.409 . S
C349 C347 1.415 . S
C350 H340 0.930 . S
C350 C348 1.419 . S
C350 C351 1.362 . S
C351 H341 0.930 . S
C351 C344 1.409 . S
C351 C350 1.362 . S
H352 C358 0.930 . S
H353 C361 0.930 . S
H354 C362 0.930 . S
H355 C363 0.930 . S
H356 C366 0.930 . S
H357 C367 0.930 . S
C358 H352 0.930 . S
C358 C359 1.355 . S
C358 C360 1.415 . S
C359 C358 1.355 . S
C359 C361 1.419 . S
C360 C358 1.415 . S
C360 C365 1.425 . S
C360 C367 1.409 . S
C361 H353 0.930 . S
C361 C359 1.419 . S
C361 C362 1.362 . S
C362 H354 0.930 . S
C362 C361 1.362 . S
C362 C365 1.409 . S
C363 H355 0.930 . S
C363 C364 1.355 . S
C363 C365 1.415 . S
C364 C363 1.355 . S
C364 C366 1.419 . S
C365 C360 1.425 . S
C365 C362 1.409 . S
C365 C363 1.415 . S
C366 H356 0.930 . S
C366 C364 1.419 . S
C366 C367 1.362 . S
C367 H357 0.930 . S
C367 C360 1.409 . S
C367 C366 1.362 . S
H368 C374 0.930 . S
H369 C377 0.930 . S
H370 C378 0.930 . S
H371 C379 0.930 . S
H372 C382 0.930 . S
H373 C383 0.930 . S
C374 H368 0.930 . S
C374 C375 1.355 . S
C374 C376 1.415 . S
C375 C374 1.355 . S
C375 C377 1.419 . S
C376 C374 1.415 . S
C376 C381 1.425 . S
C376 C383 1.409 . S
C377 H369 0.930 . S
C377 C375 1.419 . S
C377 C378 1.362 . S
C378 H370 0.930 . S
C378 C377 1.362 . S
C378 C381 1.409 . S
C379 H371 0.930 . S
C379 C380 1.355 . S
C379 C381 1.415 . S
C380 C379 1.355 . S
C380 C382 1.419 . S
C381 C376 1.425 . S
C381 C378 1.409 . S
C381 C379 1.415 . S
C382 H372 0.930 . S
C382 C380 1.419 . S
C382 C383 1.362 . S
C383 H373 0.930 . S
C383 C376 1.409 . S
C383 C382 1.362 . S
H384 C390 0.930 . S
H385 C393 0.930 . S
H386 C394 0.930 . S
H387 C395 0.930 . S
H388 C398 0.930 . S
H389 C399 0.930 . S
C390 H384 0.930 . S
C390 C391 1.355 . S
C390 C392 1.415 . S
C391 C390 1.355 . S
C391 C393 1.419 . S
C392 C390 1.415 . S
C392 C397 1.425 . S
C392 C399 1.409 . S
C393 H385 0.930 . S
C393 C391 1.419 . S
C393 C394 1.362 . S
C394 H386 0.930 . S
C394 C393 1.362 . S
C394 C397 1.409 . S
C395 H387 0.930 . S
C395 C396 1.355 . S
C395 C397 1.415 . S
C396 C395 1.355 . S
C396 C398 1.419 . S
C397 C392 1.425 . S
C397 C394 1.409 . S
C397 C395 1.415 . S
C398 H388 0.930 . S
C398 C396 1.419 . S
C398 C399 1.362 . S
C399 H389 0.930 . S
C399 C392 1.409 . S
C399 C398 1.362 . S
H400 C406 0.930 . S
H401 C409 0.930 . S
H402 C410 0.930 . S
H403 C411 0.930 . S
H404 C414 0.930 . S
H405 C415 0.930 . S
C406 H400 0.930 . S
C406 C407 1.355 . S
C406 C408 1.415 . S
C407 C406 1.355 . S
C407 C409 1.419 . S
C408 C406 1.415 . S
C408 C413 1.425 . S
C408 C415 1.409 . S
C409 H401 0.930 . S
C409 C407 1.419 . S
C409 C410 1.362 . S
C410 H402 0.930 . S
C410 C409 1.362 . S
C410 C413 1.409 . S
C411 H403 0.930 . S
C411 C412 1.355 . S
C411 C413 1.415 . S
C412 C411 1.355 . S
C412 C414 1.419 . S
C413 C408 1.425 . S
C413 C410 1.409 . S
C413 C411 1.415 . S
C414 H404 0.930 . S
C414 C412 1.419 . S
C414 C415 1.362 . S
C415 H405 0.930 . S
C415 C408 1.409 . S
C415 C414 1.362 . S
H416 C422 0.930 . S
H417 C425 0.930 . S
H418 C426 0.930 . S
H419 C427 0.930 . S
H420 C430 0.930 . S
H421 C431 0.930 . S
C422 H416 0.930 . S
C422 C423 1.355 . S
C422 C424 1.415 . S
C423 C422 1.355 . S
C423 C425 1.419 . S
C424 C422 1.415 . S
C424 C429 1.425 . S
C424 C431 1.409 . S
C425 H417 0.930 . S
C425 C423 1.419 . S
C425 C426 1.362 . S
C426 H418 0.930 . S
C426 C425 1.362 . S
C426 C429 1.409 . S
C427 H419 0.930 . S
C427 C428 1.355 . S
C427 C429 1.415 . S
C428 C427 1.355 . S
C428 C430 1.419 . S
C429 C424 1.425 . S
C429 C426 1.409 . S
C429 C427 1.415 . S
C430 H420 0.930 . S
C430 C428 1.419 . S
C430 C431 1.362 . S
C431 H421 0.930 . S
C431 C424 1.409 . S
C431 C430 1.362 . S
H432 C438 0.930 . S
H433 C441 0.930 . S
H434 C442 0.930 . S
H435 C443 0.930 . S
H436 C446 0.930 . S
H437 C447 0.930 . S
C438 H432 0.930 . S
C438 C439 1.355 . S
C438 C440 1.415 . S
C439 C438 1.355 . S
C439 C441 1.419 . S
C440 C438 1.415 . S
C440 C445 1.425 . S
C440 C447 1.409 . S
C441 H433 0.930 . S
C441 C439 1.419 . S
C441 C442 1.362 . S
C442 H434 0.930 . S
C442 C441 1.362 . S
C442 C445 1.409 . S
C443 H435 0.930 . S
C443 C444 1.355 . S
C443 C445 1.415 . S
C444 C443 1.355 . S
C444 C446 1.419 . S
C445 C440 1.425 . S
C445 C442 1.409 . S
C445 C443 1.415 . S
C446 H436 0.930 . S
C446 C444 1.419 . S
C446 C447 1.362 . S
C447 H437 0.930 . S
C447 C440 1.409 . S
C447 C446 1.362 . S
H448 C454 0.930 . S
H449 C457 0.930 . S
H450 C458 0.930 . S
H451 C459 0.930 . S
H452 C462 0.930 . S
H453 C463 0.930 . S
C454 H448 0.930 . S
C454 C455 1.355 . S
C454 C456 1.415 . S
C455 C454 1.355 . S
C455 C457 1.419 . S
C456 C454 1.415 . S
C456 C461 1.425 . S
C456 C463 1.409 . S
C457 H449 0.930 . S
C457 C455 1.419 . S
C457 C458 1.362 . S
C458 H450 0.930 . S
C458 C457 1.362 . S
C458 C461 1.409 . S
C459 H451 0.930 . S
C459 C460 1.355 . S
C459 C461 1.415 . S
C460 C459 1.355 . S
C460 C462 1.419 . S
C461 C456 1.425 . S
C461 C458 1.409 . S
C461 C459 1.415 . S
C462 H452 0.930 . S
C462 C460 1.419 . S
C462 C463 1.362 . S
C463 H453 0.930 . S
C463 C456 1.409 . S
C463 C462 1.362 . S
H464 C470 0.930 . S
H465 C473 0.930 . S
H466 C474 0.930 . S
H467 C475 0.930 . S
H468 C478 0.930 . S
H469 C479 0.930 . S
C470 H464 0.930 . S
C470 C471 1.355 . S
C470 C472 1.415 . S
C471 C470 1.355 . S
C471 C473 1.419 . S
C472 C470 1.415 . S
C472 C477 1.425 . S
C472 C479 1.409 . S
C473 H465 0.930 . S
C473 C471 1.419 . S
C473 C474 1.362 . S
C474 H466 0.930 . S
C474 C473 1.362 . S
C474 C477 1.409 . S
C475 H467 0.930 . S
C475 C476 1.355 . S
C475 C477 1.415 . S
C476 C475 1.355 . S
C476 C478 1.419 . S
C477 C472 1.425 . S
C477 C474 1.409 . S
C477 C475 1.415 . S
C478 H468 0.930 . S
C478 C476 1.419 . S
C478 C479 1.362 . S
C479 H469 0.930 . S
C479 C472 1.409 . S
C479 C478 1.362 . S
H480 C486 0.930 . S
H481 C489 0.930 . S
H482 C490 0.930 . S
H483 C491 0.930 . S
H484 C494 0.930 . S
H485 C495 0.930 . S
C486 H480 0.930 . S
C486 C487 1.355 . S
C486 C488 1.415 . S
C487 C486 1.355 . S
C487 C489 1.419 . S
C488 C486 1.415 . S
C488 C493 1.425 . S
C488 C495 1.409 . S
C489 H481 0.930 . S
C489 C487 1.419 . S
C489 C490 1.362 . S
C490 H482 0.930 . S
C490 C489 1.362 . S
C490 C493 1.409 . S
C491 H483 0.930 . S
C491 C492 1.355 . S
C491 C493 1.415 . S
C492 C491 1.355 . S
C492 C494 1.419 . S
C493 C488 1.425 . S
C493 C490 1.409 . S
C493 C491 1.415 . S
C494 H484 0.930 . S
C494 C492 1.419 . S
C494 C495 1.362 . S
C495 H485 0.930 . S
C495 C488 1.409 . S
C495 C494 1.362 . S
H496 C502 0.930 . S
H497 C505 0.930 . S
H498 C506 0.930 . S
H499 C507 0.930 . S
H500 C510 0.930 . S
H501 C511 0.930 . S
C502 H496 0.930 . S
C502 C503 1.355 . S
C502 C504 1.415 . S
C503 C502 1.355 . S
C503 C505 1.419 . S
C504 C502 1.415 . S
C504 C509 1.425 . S
C504 C511 1.409 . S
C505 H497 0.930 . S
C505 C503 1.419 . S
C505 C506 1.362 . S
C506 H498 0.930 . S
C506 C505 1.362 . S
C506 C509 1.409 . S
C507 H499 0.930 . S
C507 C508 1.355 . S
C507 C509 1.415 . S
C508 C507 1.355 . S
C508 C510 1.419 . S
C509 C504 1.425 . S
C509 C506 1.409 . S
C509 C507 1.415 . S
C510 H500 0.930 . S
C510 C508 1.419 . S
C510 C511 1.362 . S
C511 H501 0.930 . S
C511 C504 1.409 . S
C511 C510 1.362 . S
H512 C518 0.930 . S
H513 C521 0.930 . S
H514 C522 0.930 . S
H515 C523 0.930 . S
H516 C526 0.930 . S
H517 C527 0.930 . S
C518 H512 0.930 . S
C518 C519 1.355 . S
C518 C520 1.415 . S
C519 C518 1.355 . S
C519 C521 1.419 . S
C520 C518 1.415 . S
C520 C525 1.425 . S
C520 C527 1.409 . S
C521 H513 0.930 . S
C521 C519 1.419 . S
C521 C522 1.362 . S
C522 H514 0.930 . S
C522 C521 1.362 . S
C522 C525 1.409 . S
C523 H515 0.930 . S
C523 C524 1.355 . S
C523 C525 1.415 . S
C524 C523 1.355 . S
C524 C526 1.419 . S
C525 C520 1.425 . S
C525 C522 1.409 . S
C525 C523 1.415 . S
C526 H516 0.930 . S
C526 C524 1.419 . S
C526 C527 1.362 . S
C527 H517 0.930 . S
C527 C520 1.409 . S
C527 C526 1.362 . S
H528 C534 0.930 . S
H529 C537 0.930 . S
H530 C538 0.930 . S
H531 C539 0.930 . S
H532 C542 0.930 . S
H533 C543 0.930 . S
C534 H528 0.930 . S
C534 C535 1.355 . S
C534 C536 1.415 . S
C535 C534 1.355 . S
C535 C537 1.419 . S
C536 C534 1.415 . S
C536 C541 1.425 . S
C536 C543 1.409 . S
C537 H529 0.930 . S
C537 C535 1.419 . S
C537 C538 1.362 . S
C538 H530 0.930 . S
C538 C537 1.362 . S
C538 C541 1.409 . S
C539 H531 0.930 . S
C539 C540 1.355 . S
C539 C541 1.415 . S
C540 C539 1.355 . S
C540 C542 1.419 . S
C541 C536 1.425 . S
C541 C538 1.409 . S
C541 C539 1.415 . S
C542 H532 0.930 . S
C542 C540 1.419 . S
C542 C543 1.362 . S
C543 H533 0.930 . S
C543 C536 1.409 . S
C543 C542 1.362 . S
H544 C550 0.930 . S
H545 C553 0.930 . S
H546 C554 0.930 . S
H547 C555 0.930 . S
H548 C558 0.930 . S
H549 C559 0.930 . S
C550 H544 0.930 . S
C550 C551 1.355 . S
C550 C552 1.415 . S
C551 C550 1.355 . S
C551 C553 1.419 . S
C552 C550 1.415 . S
C552 C557 1.425 . S
C552 C559 1.409 . S
C553 H545 0.930 . S
C553 C551 1.419 . S
C553 C554 1.362 . S
C554 H546 0.930 . S
C554 C553 1.362 . S
C554 C557 1.409 . S
C555 H547 0.930 . S
C555 C556 1.355 . S
C555 C557 1.415 . S
C556 C555 1.355 . S
C556 C558 1.419 . S
C557 C552 1.425 . S
C557 C554 1.409 . S
C557 C555 1.415 . S
C558 H548 0.930 . S
C558 C556 1.419 . S
C558 C559 1.362 . S
C559 H549 0.930 . S
C559 C552 1.409 . S
C559 C558 1.362 . S
H560 C566 0.930 . S
H561 C569 0.930 1_455 S
H562 C570 0.930 . S
H563 C571 0.930 . S
H564 C574 0.930 . S
H565 C575 0.930 . S
C566 H560 0.930 . S
C566 C567 1.355 . S
C566 C568 1.415 . S
C567 C566 1.355 . S
C567 C569 1.419 . S
C568 C566 1.415 . S
C568 C573 1.425 . S
C568 C575 1.409 . S
C569 H561 0.930 1_655 S
C569 C567 1.419 . S
C569 C570 1.362 . S
C570 H562 0.930 . S
C570 C569 1.362 . S
C570 C573 1.409 . S
C571 H563 0.930 . S
C571 C572 1.355 . S
C571 C573 1.415 . S
C572 C571 1.355 . S
C572 C574 1.419 . S
C573 C568 1.425 . S
C573 C570 1.409 . S
C573 C571 1.415 . S
C574 H564 0.930 . S
C574 C572 1.419 . S
C574 C575 1.362 . S
C575 H565 0.930 . S
C575 C568 1.409 . S
C575 C574 1.362 . S
H576 C582 0.930 . S
H577 C585 0.930 . S
H578 C586 0.930 . S
H579 C587 0.930 . S
H580 C590 0.930 . S
H581 C591 0.930 . S
C582 H576 0.930 . S
C582 C583 1.355 . S
C582 C584 1.415 . S
C583 C582 1.355 . S
C583 C585 1.419 . S
C584 C582 1.415 . S
C584 C589 1.425 . S
C584 C591 1.409 . S
C585 H577 0.930 . S
C585 C583 1.419 . S
C585 C586 1.362 . S
C586 H578 0.930 . S
C586 C585 1.362 . S
C586 C589 1.409 . S
C587 H579 0.930 . S
C587 C588 1.355 . S
C587 C589 1.415 . S
C588 C587 1.355 . S
C588 C590 1.419 . S
C589 C584 1.425 . S
C589 C586 1.409 . S
C589 C587 1.415 . S
C590 H580 0.930 . S
C590 C588 1.419 . S
C590 C591 1.362 . S
C591 H581 0.930 . S
C591 C584 1.409 . S
C591 C590 1.362 . S
H592 C598 0.930 . S
H593 C601 0.930 . S
H594 C602 0.930 . S
H595 C603 0.930 . S
H596 C606 0.930 . S
H597 C607 0.930 . S
C598 H592 0.930 . S
C598 C599 1.355 . S
C598 C600 1.415 . S
C599 C598 1.355 . S
C599 C601 1.419 . S
C600 C598 1.415 . S
C600 C605 1.425 . S
C600 C607 1.409 . S
C601 H593 0.930 . S
C601 C599 1.419 . S
C601 C602 1.362 . S
C602 H594 0.930 . S
C602 C601 1.362 . S
C602 C605 1.409 . S
C603 H595 0.930 . S
C603 C604 1.355 . S
C603 C605 1.415 . S
C604 C603 1.355 . S
C604 C606 1.419 . S
C605 C600 1.425 . S
C605 C602 1.409 . S
C605 C603 1.415 . S
C606 H596 0.930 . S
C606 C604 1.419 . S
C606 C607 1.362 . S
C607 H597 0.930 . S
C607 C600 1.409 . S
C607 C606 1.362 . S
H608 C614 0.930 . S
H609 C617 0.930 . S
H610 C618 0.930 . S
H611 C619 0.930 . S
H612 C622 0.930 . S
H613 C623 0.930 . S
C614 H608 0.930 . S
C614 C615 1.355 . S
C614 C616 1.415 . S
C615 C614 1.355 . S
C615 C617 1.419 . S
C616 C614 1.415 . S
C616 C621 1.425 . S
C616 C623 1.409 . S
C617 H609 0.930 . S
C617 C615 1.419 . S
C617 C618 1.362 . S
C618 H610 0.930 . S
C618 C617 1.362 . S
C618 C621 1.409 . S
C619 H611 0.930 . S
C619 C620 1.355 . S
C619 C621 1.415 . S
C620 C619 1.355 . S
C620 C622 1.419 . S
C621 C616 1.425 . S
C621 C618 1.409 . S
C621 C619 1.415 . S
C622 H612 0.930 . S
C622 C620 1.419 . S
C622 C623 1.362 . S
C623 H613 0.930 . S
C623 C616 1.409 . S
C623 C622 1.362 . S
H624 C630 0.930 . S
H625 C633 0.930 . S
H626 C634 0.930 . S
H627 C635 0.930 . S
H628 C638 0.930 1_455 S
H629 C639 0.930 . S
C630 H624 0.930 . S
C630 C631 1.355 . S
C630 C632 1.415 . S
C631 C630 1.355 . S
C631 C633 1.419 . S
C632 C630 1.415 . S
C632 C637 1.425 . S
C632 C639 1.409 . S
C633 H625 0.930 . S
C633 C631 1.419 . S
C633 C634 1.362 . S
C634 H626 0.930 . S
C634 C633 1.362 . S
C634 C637 1.409 . S
C635 H627 0.930 . S
C635 C636 1.355 . S
C635 C637 1.415 . S
C636 C635 1.355 . S
C636 C638 1.419 . S
C637 C632 1.425 . S
C637 C634 1.409 . S
C637 C635 1.415 . S
C638 H628 0.930 1_655 S
C638 C636 1.419 . S
C638 C639 1.362 . S
C639 H629 0.930 . S
C639 C632 1.409 . S
C639 C638 1.362 . S
H640 C646 0.930 . S
H641 C649 0.930 . S
H642 C650 0.930 . S
H643 C651 0.930 . S
H644 C654 0.930 . S
H645 C655 0.930 . S
C646 H640 0.930 . S
C646 C647 1.355 . S
C646 C648 1.415 . S
C647 C646 1.355 . S
C647 C649 1.419 . S
C648 C646 1.415 . S
C648 C653 1.425 . S
C648 C655 1.409 . S
C649 H641 0.930 . S
C649 C647 1.419 . S
C649 C650 1.362 . S
C650 H642 0.930 . S
C650 C649 1.362 . S
C650 C653 1.409 . S
C651 H643 0.930 . S
C651 C652 1.355 . S
C651 C653 1.415 . S
C652 C651 1.355 . S
C652 C654 1.419 . S
C653 C648 1.425 . S
C653 C650 1.409 . S
C653 C651 1.415 . S
C654 H644 0.930 . S
C654 C652 1.419 . S
C654 C655 1.362 . S
C655 H645 0.930 . S
C655 C648 1.409 . S
C655 C654 1.362 . S
H656 C662 0.930 . S
H657 C665 0.930 . S
H658 C666 0.930 . S
H659 C667 0.930 . S
H660 C670 0.930 . S
H661 C671 0.930 . S
C662 H656 0.930 . S
C662 C663 1.355 . S
C662 C664 1.415 . S
C663 C662 1.355 . S
C663 C665 1.419 . S
C664 C662 1.415 . S
C664 C669 1.425 . S
C664 C671 1.409 . S
C665 H657 0.930 . S
C665 C663 1.419 . S
C665 C666 1.362 . S
C666 H658 0.930 . S
C666 C665 1.362 . S
C666 C669 1.409 . S
C667 H659 0.930 . S
C667 C668 1.355 . S
C667 C669 1.415 . S
C668 C667 1.355 . S
C668 C670 1.419 . S
C669 C664 1.425 . S
C669 C666 1.409 . S
C669 C667 1.415 . S
C670 H660 0.930 . S
C670 C668 1.419 . S
C670 C671 1.362 . S
C671 H661 0.930 . S
C671 C664 1.409 . S
C671 C670 1.362 . S
H672 C678 0.930 . S
H673 C681 0.930 . S
H674 C682 0.930 . S
H675 C683 0.930 . S
H676 C686 0.930 . S
H677 C687 0.930 . S
C678 H672 0.930 . S
C678 C679 1.355 . S
C678 C680 1.415 . S
C679 C678 1.355 . S
C679 C681 1.419 . S
C680 C678 1.415 . S
C680 C685 1.425 . S
C680 C687 1.409 . S
C681 H673 0.930 . S
C681 C679 1.419 . S
C681 C682 1.362 . S
C682 H674 0.930 . S
C682 C681 1.362 . S
C682 C685 1.409 . S
C683 H675 0.930 . S
C683 C684 1.355 . S
C683 C685 1.415 . S
C684 C683 1.355 . S
C684 C686 1.419 . S
C685 C680 1.425 . S
C685 C682 1.409 . S
C685 C683 1.415 . S
C686 H676 0.930 . S
C686 C684 1.419 . S
C686 C687 1.362 . S
C687 H677 0.930 . S
C687 C680 1.409 . S
C687 C686 1.362 . S
H688 C694 0.930 . S
H689 C697 0.930 . S
H690 C698 0.930 . S
H691 C699 0.930 . S
H692 C702 0.930 . S
H693 C703 0.930 . S
C694 H688 0.930 . S
C694 C695 1.355 . S
C694 C696 1.415 . S
C695 C694 1.355 . S
C695 C697 1.419 . S
C696 C694 1.415 . S
C696 C701 1.425 . S
C696 C703 1.409 . S
C697 H689 0.930 . S
C697 C695 1.419 . S
C697 C698 1.362 . S
C698 H690 0.930 . S
C698 C697 1.362 . S
C698 C701 1.409 . S
C699 H691 0.930 . S
C699 C700 1.355 . S
C699 C701 1.415 . S
C700 C699 1.355 . S
C700 C702 1.419 . S
C701 C696 1.425 . S
C701 C698 1.409 . S
C701 C699 1.415 . S
C702 H692 0.930 . S
C702 C700 1.419 . S
C702 C703 1.362 . S
C703 H693 0.930 . S
C703 C696 1.409 . S
C703 C702 1.362 . S
H704 C710 0.930 . S
H705 C713 0.930 . S
H706 C714 0.930 . S
H707 C715 0.930 . S
H708 C718 0.930 . S
H709 C719 0.930 . S
C710 H704 0.930 . S
C710 C711 1.355 . S
C710 C712 1.415 . S
C711 C710 1.355 . S
C711 C713 1.419 . S
C712 C710 1.415 . S
C712 C717 1.425 . S
C712 C719 1.409 . S
C713 H705 0.930 . S
C713 C711 1.419 . S
C713 C714 1.362 . S
C714 H706 0.930 . S
C714 C713 1.362 . S
C714 C717 1.409 . S
C715 H707 0.930 . S
C715 C716 1.355 . S
C715 C717 1.415 . S
C716 C715 1.355 . S
C716 C718 1.419 . S
C717 C712 1.425 . S
C717 C714 1.409 . S
C717 C715 1.415 . S
C718 H708 0.930 . S
C718 C716 1.419 . S
C718 C719 1.362 . S
C719 H709 0.930 . S
C719 C712 1.409 . S
C719 C718 1.362 . S
H720 C726 0.930 . S
H721 C729 0.930 . S
H722 C730 0.930 . S
H723 C731 0.930 . S
H724 C734 0.930 . S
H725 C735 0.930 . S
C726 H720 0.930 . S
C726 C727 1.355 . S
C726 C728 1.415 . S
C727 C726 1.355 . S
C727 C729 1.419 . S
C728 C726 1.415 . S
C728 C733 1.425 . S
C728 C735 1.409 . S
C729 H721 0.930 . S
C729 C727 1.419 . S
C729 C730 1.362 . S
C730 H722 0.930 . S
C730 C729 1.362 . S
C730 C733 1.409 . S
C731 H723 0.930 . S
C731 C732 1.355 . S
C731 C733 1.415 . S
C732 C731 1.355 . S
C732 C734 1.419 . S
C733 C728 1.425 . S
C733 C730 1.409 . S
C733 C731 1.415 . S
C734 H724 0.930 . S
C734 C732 1.419 . S
C734 C735 1.362 . S
C735 H725 0.930 . S
C735 C728 1.409 . S
C735 C734 1.362 . S
H736 C742 0.930 . S
H737 C745 0.930 . S
H738 C746 0.930 . S
H739 C747 0.930 . S
H740 C750 0.930 . S
H741 C751 0.930 . S
C742 H736 0.930 . S
C742 C743 1.355 . S
C742 C744 1.415 . S
C743 C742 1.355 . S
C743 C745 1.419 . S
C744 C742 1.415 . S
C744 C749 1.425 . S
C744 C751 1.409 . S
C745 H737 0.930 . S
C745 C743 1.419 . S
C745 C746 1.362 . S
C746 H738 0.930 . S
C746 C745 1.362 . S
C746 C749 1.409 . S
C747 H739 0.930 . S
C747 C748 1.355 . S
C747 C749 1.415 . S
C748 C747 1.355 . S
C748 C750 1.419 . S
C749 C744 1.425 . S
C749 C746 1.409 . S
C749 C747 1.415 . S
C750 H740 0.930 . S
C750 C748 1.419 . S
C750 C751 1.362 . S
C751 H741 0.930 . S
C751 C744 1.409 . S
C751 C750 1.362 . S
H752 C758 0.930 . S
H753 C761 0.930 . S
H754 C762 0.930 . S
H755 C763 0.930 . S
H756 C766 0.930 . S
H757 C767 0.930 . S
C758 H752 0.930 . S
C758 C759 1.355 . S
C758 C760 1.415 . S
C759 C758 1.355 . S
C759 C761 1.419 . S
C760 C758 1.415 . S
C760 C765 1.425 . S
C760 C767 1.409 . S
C761 H753 0.930 . S
C761 C759 1.419 . S
C761 C762 1.362 . S
C762 H754 0.930 . S
C762 C761 1.362 . S
C762 C765 1.409 . S
C763 H755 0.930 . S
C763 C764 1.355 . S
C763 C765 1.415 . S
C764 C763 1.355 . S
C764 C766 1.419 . S
C765 C760 1.425 . S
C765 C762 1.409 . S
C765 C763 1.415 . S
C766 H756 0.930 . S
C766 C764 1.419 . S
C766 C767 1.362 . S
C767 H757 0.930 . S
C767 C760 1.409 . S
C767 C766 1.362 . S
H768 C774 0.930 . S
H769 C777 0.930 . S
H770 C778 0.930 . S
H771 C779 0.930 . S
H772 C782 0.930 . S
H773 C783 0.930 . S
C774 H768 0.930 . S
C774 C775 1.355 . S
C774 C776 1.415 . S
C775 C774 1.355 . S
C775 C777 1.419 . S
C776 C774 1.415 . S
C776 C781 1.425 . S
C776 C783 1.409 . S
C777 H769 0.930 . S
C777 C775 1.419 . S
C777 C778 1.362 . S
C778 H770 0.930 . S
C778 C777 1.362 . S
C778 C781 1.409 . S
C779 H771 0.930 . S
C779 C780 1.355 . S
C779 C781 1.415 . S
C780 C779 1.355 . S
C780 C782 1.419 . S
C781 C776 1.425 . S
C781 C778 1.409 . S
C781 C779 1.415 . S
C782 H772 0.930 . S
C782 C780 1.419 . S
C782 C783 1.362 . S
C783 H773 0.930 . S
C783 C776 1.409 . S
C783 C782 1.362 . S
H784 C790 0.930 . S
H785 C793 0.930 . S
H786 C794 0.930 . S
H787 C795 0.930 . S
H788 C798 0.930 . S
H789 C799 0.930 . S
C790 H784 0.930 . S
C790 C791 1.355 . S
C790 C792 1.415 . S
C791 C790 1.355 . S
C791 C793 1.419 . S
C792 C790 1.415 . S
C792 C797 1.425 . S
C792 C799 1.409 . S
C793 H785 0.930 . S
C793 C791 1.419 . S
C793 C794 1.362 . S
C794 H786 0.930 . S
C794 C793 1.362 . S
C794 C797 1.409 . S
C795 H787 0.930 . S
C795 C796 1.355 . S
C795 C797 1.415 . S
C796 C795 1.355 . S
C796 C798 1.419 . S
C797 C792 1.425 . S
C797 C794 1.409 . S
C797 C795 1.415 . S
C798 H788 0.930 . S
C798 C796 1.419 . S
C798 C799 1.362 . S
C799 H789 0.930 . S
C799 C792 1.409 . S
C799 C798 1.362 . S
H800 C806 0.930 . S
H801 C809 0.930 . S
H802 C810 0.930 . S
H803 C811 0.930 . S
H804 C814 0.930 . S
H805 C815 0.930 . S
C806 H800 0.930 . S
C806 C807 1.355 . S
C806 C808 1.415 . S
C807 C806 1.355 . S
C807 C809 1.419 . S
C808 C806 1.415 . S
C808 C813 1.425 . S
C808 C815 1.409 . S
C809 H801 0.930 . S
C809 C807 1.419 . S
C809 C810 1.362 . S
C810 H802 0.930 . S
C810 C809 1.362 . S
C810 C813 1.409 . S
C811 H803 0.930 . S
C811 C812 1.355 . S
C811 C813 1.415 . S
C812 C811 1.355 . S
C812 C814 1.419 . S
C813 C808 1.425 . S
C813 C810 1.409 . S
C813 C811 1.415 . S
C814 H804 0.930 . S
C814 C812 1.419 . S
C814 C815 1.362 . S
C815 H805 0.930 . S
C815 C808 1.409 . S
C815 C814 1.362 . S
H816 C822 0.930 . S
H817 C825 0.930 . S
H818 C826 0.930 . S
H819 C827 0.930 . S
H820 C830 0.930 . S
H821 C831 0.930 . S
C822 H816 0.930 . S
C822 C823 1.355 . S
C822 C824 1.415 . S
C823 C822 1.355 . S
C823 C825 1.419 . S
C824 C822 1.415 . S
C824 C829 1.425 . S
C824 C831 1.409 . S
C825 H817 0.930 . S
C825 C823 1.419 . S
C825 C826 1.362 . S
C826 H818 0.930 . S
C826 C825 1.362 . S
C826 C829 1.409 . S
C827 H819 0.930 . S
C827 C828 1.355 . S
C827 C829 1.415 . S
C828 C827 1.355 . S
C828 C830 1.419 . S
C829 C824 1.425 . S
C829 C826 1.409 . S
C829 C827 1.415 . S
C830 H820 0.930 . S
C830 C828 1.419 . S
C830 C831 1.362 . S
C831 H821 0.930 . S
C831 C824 1.409 . S
C831 C830 1.362 . S
H832 C838 0.930 . S
H833 C841 0.930 . S
H834 C842 0.930 . S
H835 C843 0.930 . S
H836 C846 0.930 . S
H837 C847 0.930 . S
C838 H832 0.930 . S
C838 C839 1.355 . S
C838 C840 1.415 . S
C839 C838 1.355 . S
C839 C841 1.419 . S
C840 C838 1.415 . S
C840 C845 1.425 . S
C840 C847 1.409 . S
C841 H833 0.930 . S
C841 C839 1.419 . S
C841 C842 1.362 . S
C842 H834 0.930 . S
C842 C841 1.362 . S
C842 C845 1.409 . S
C843 H835 0.930 . S
C843 C844 1.355 . S
C843 C845 1.415 . S
C844 C843 1.355 . S
C844 C846 1.419 . S
C845 C840 1.425 . S
C845 C842 1.409 . S
C845 C843 1.415 . S
C846 H836 0.930 . S
C846 C844 1.419 . S
C846 C847 1.362 . S
C847 H837 0.930 . S
C847 C840 1.409 . S
C847 C846 1.362 . S
H848 C854 0.930 . S
H849 C857 0.930 . S
H850 C858 0.930 . S
H851 C859 0.930 . S
H852 C862 0.930 . S
H853 C863 0.930 . S
C854 H848 0.930 . S
C854 C855 1.355 . S
C854 C856 1.415 . S
C855 C854 1.355 . S
C855 C857 1.419 . S
C856 C854 1.415 . S
C856 C861 1.425 . S
C856 C863 1.409 . S
C857 H849 0.930 . S
C857 C855 1.419 . S
C857 C858 1.362 . S
C858 H850 0.930 . S
C858 C857 1.362 . S
C858 C861 1.409 . S
C859 H851 0.930 . S
C859 C860 1.355 . S
C859 C861 1.415 . S
C860 C859 1.355 . S
C860 C862 1.419 . S
C861 C856 1.425 . S
C861 C858 1.409 . S
C861 C859 1.415 . S
C862 H852 0.930 . S
C862 C860 1.419 . S
C862 C863 1.362 . S
C863 H853 0.930 . S
C863 C856 1.409 . S
C863 C862 1.362 . S
H864 C870 0.930 . S
H865 C873 0.930 . S
H866 C874 0.930 . S
H867 C875 0.930 . S
H868 C878 0.930 . S
H869 C879 0.930 . S
C870 H864 0.930 . S
C870 C871 1.355 . S
C870 C872 1.415 . S
C871 C870 1.355 . S
C871 C873 1.419 . S
C872 C870 1.415 . S
C872 C877 1.425 . S
C872 C879 1.409 . S
C873 H865 0.930 . S
C873 C871 1.419 . S
C873 C874 1.362 . S
C874 H866 0.930 . S
C874 C873 1.362 . S
C874 C877 1.409 . S
C875 H867 0.930 . S
C875 C876 1.355 . S
C875 C877 1.415 . S
C876 C875 1.355 . S
C876 C878 1.419 . S
C877 C872 1.425 . S
C877 C874 1.409 . S
C877 C875 1.415 . S
C878 H868 0.930 . S
C878 C876 1.419 . S
C878 C879 1.362 . S
C879 H869 0.930 . S
C879 C872 1.409 . S
C879 C878 1.362 . S
H880 C886 0.930 . S
H881 C889 0.930 . S
H882 C890 0.930 . S
H883 C891 0.930 . S
H884 C894 0.930 . S
H885 C895 0.930 . S
C886 H880 0.930 . S
C886 C887 1.355 . S
C886 C888 1.415 . S
C887 C886 1.355 . S
C887 C889 1.419 . S
C888 C886 1.415 . S
C888 C893 1.425 . S
C888 C895 1.409 . S
C889 H881 0.930 . S
C889 C887 1.419 . S
C889 C890 1.362 . S
C890 H882 0.930 . S
C890 C889 1.362 . S
C890 C893 1.409 . S
C891 H883 0.930 . S
C891 C892 1.355 . S
C891 C893 1.415 . S
C892 C891 1.355 . S
C892 C894 1.419 . S
C893 C888 1.425 . S
C893 C890 1.409 . S
C893 C891 1.415 . S
C894 H884 0.930 . S
C894 C892 1.419 . S
C894 C895 1.362 . S
C895 H885 0.930 . S
C895 C888 1.409 . S
C895 C894 1.362 . S
H896 C902 0.930 . S
H897 C905 0.929 1_554 S
H898 C906 0.930 . S
H899 C907 0.930 . S
H900 C910 0.930 . S
H901 C911 0.930 . S
C902 H896 0.930 . S
C902 C903 1.355 . S
C902 C904 1.415 . S
C903 C902 1.355 . S
C903 C905 1.427 . S
C904 C902 1.415 . S
C904 C909 1.425 1_556 S
C904 C911 1.409 . S
C905 H897 0.929 1_556 S
C905 C903 1.427 . S
C905 C906 1.355 1_556 S
C906 H898 0.930 . S
C906 C905 1.355 1_554 S
C906 C909 1.409 . S
C907 H899 0.930 . S
C907 C908 1.355 . S
C907 C909 1.415 . S
C908 C907 1.355 . S
C908 C910 1.419 . S
C909 C904 1.425 1_554 S
C909 C906 1.409 . S
C909 C907 1.415 . S
C910 H900 0.930 . S
C910 C908 1.419 . S
C910 C911 1.362 1_554 S
C911 H901 0.930 . S
C911 C904 1.409 . S
C911 C910 1.362 1_556 S
H912 C918 0.930 . S
H913 C921 0.930 . S
H914 C922 0.930 . S
H915 C923 0.920 1_554 S
H916 C926 0.930 . S
H917 C927 0.930 . S
C918 H912 0.930 . S
C918 C919 1.355 . S
C918 C920 1.415 1_554 S
C919 C918 1.355 . S
C919 C921 1.419 . S
C920 C918 1.415 1_556 S
C920 C925 1.425 1_556 S
C920 C927 1.409 . S
C921 H913 0.930 . S
C921 C919 1.419 . S
C921 C922 1.362 . S
C922 H914 0.930 . S
C922 C921 1.362 . S
C922 C925 1.409 . S
C923 H915 0.920 1_556 S
C923 C924 1.372 . S
C923 C925 1.407 1_556 S
C924 C923 1.372 . S
C924 C926 1.419 . S
C925 C920 1.425 1_554 S
C925 C922 1.409 . S
C925 C923 1.407 1_554 S
C926 H916 0.930 . S
C926 C924 1.419 . S
C926 C927 1.362 . S
C927 H917 0.930 . S
C927 C920 1.409 . S
C927 C926 1.362 . S
H928 C934 0.920 1_554 S
H929 C937 0.930 . S
H930 C938 0.930 . S
H931 C939 0.930 . S
H932 C942 0.930 . S
H933 C943 0.930 . S
C934 H928 0.920 1_556 S
C934 C935 1.373 . S
C934 C936 1.406 1_556 S
C935 C934 1.373 . S
C935 C937 1.419 . S
C936 C934 1.406 1_554 S
C936 C941 1.425 1_554 S
C936 C943 1.409 . S
C937 H929 0.930 . S
C937 C935 1.419 . S
C937 C938 1.362 . S
C938 H930 0.930 . S
C938 C937 1.362 . S
C938 C941 1.409 . S
C939 H931 0.930 . S
C939 C940 1.355 . S
C939 C941 1.415 1_554 S
C940 C939 1.355 . S
C940 C942 1.419 . S
C941 C936 1.425 1_556 S
C941 C938 1.409 . S
C941 C939 1.415 1_556 S
C942 H932 0.930 . S
C942 C940 1.419 . S
C942 C943 1.362 . S
C943 H933 0.930 . S
C943 C936 1.409 . S
C943 C942 1.362 . S
H944 C950 0.930 . S
H945 C953 0.930 . S
H946 C954 0.930 . S
H947 C955 0.930 . S
H948 C958 0.930 . S
H949 C959 0.930 . S
C950 H944 0.930 . S
C950 C951 1.355 . S
C950 C952 1.415 . S
C951 C950 1.355 . S
C951 C953 1.419 . S
C952 C950 1.415 . S
C952 C957 1.425 1_554 S
C952 C959 1.409 . S
C953 H945 0.930 . S
C953 C951 1.419 . S
C953 C954 1.362 1_554 S
C954 H946 0.930 . S
C954 C953 1.362 1_556 S
C954 C957 1.409 . S
C955 H947 0.930 . S
C955 C956 1.355 . S
C955 C957 1.415 . S
C956 C955 1.355 . S
C956 C958 1.419 1_556 S
C957 C952 1.425 1_556 S
C957 C954 1.409 . S
C957 C955 1.415 . S
C958 H948 0.930 . S
C958 C956 1.419 1_554 S
C958 C959 1.362 . S
C959 H949 0.930 . S
C959 C952 1.409 . S
C959 C958 1.362 . S
H960 C966 0.930 . S
H961 C969 0.930 . S
H962 C970 0.930 . S
H963 C971 0.930 . S
H964 C974 0.930 . S
H965 C975 0.930 . S
C966 H960 0.930 . S
C966 C967 1.355 . S
C966 C968 1.415 . S
C967 C966 1.355 . S
C967 C969 1.419 . S
C968 C966 1.415 . S
C968 C973 1.425 . S
C968 C975 1.409 . S
C969 H961 0.930 . S
C969 C967 1.419 . S
C969 C970 1.362 . S
C970 H962 0.930 . S
C970 C969 1.362 . S
C970 C973 1.409 . S
C971 H963 0.930 . S
C971 C972 1.355 . S
C971 C973 1.415 . S
C972 C971 1.355 . S
C972 C974 1.419 . S
C973 C968 1.425 . S
C973 C970 1.409 . S
C973 C971 1.415 . S
C974 H964 0.930 . S
C974 C972 1.419 . S
C974 C975 1.362 . S
C975 H965 0.930 . S
C975 C968 1.409 . S
C975 C974 1.362 . S
H976 C982 0.930 . S
H977 C985 0.930 . S
H978 C986 0.930 . S
H979 C987 0.930 . S
H980 C990 0.930 . S
H981 C991 0.930 . S
C982 H976 0.930 . S
C982 C983 1.355 . S
C982 C984 1.415 . S
C983 C982 1.355 . S
C983 C985 1.419 . S
C984 C982 1.415 . S
C984 C989 1.425 . S
C984 C991 1.409 . S
C985 H977 0.930 . S
C985 C983 1.419 . S
C985 C986 1.362 . S
C986 H978 0.930 . S
C986 C985 1.362 . S
C986 C989 1.409 . S
C987 H979 0.930 . S
C987 C988 1.355 . S
C987 C989 1.415 . S
C988 C987 1.355 . S
C988 C990 1.419 . S
C989 C984 1.425 . S
C989 C986 1.409 . S
C989 C987 1.415 . S
C990 H980 0.930 . S
C990 C988 1.419 . S
C990 C991 1.362 . S
C991 H981 0.930 . S
C991 C984 1.409 . S
C991 C990 1.362 . S
H992 C998 0.930 . S
H993 C1001 0.930 . S
H994 C1002 0.930 . S
H995 C1003 0.930 . S
H996 C1006 0.930 . S
H997 C1007 0.930 . S
C998 H992 0.930 . S
C998 C999 1.355 . S
C998 C1000 1.415 . S
C999 C998 1.355 . S
C999 C1001 1.419 . S
C1000 C998 1.415 . S
C1000 C1005 1.425 . S
C1000 C1007 1.409 . S
C1001 H993 0.930 . S
C1001 C999 1.419 . S
C1001 C1002 1.362 . S
C1002 H994 0.930 . S
C1002 C1001 1.362 . S
C1002 C1005 1.409 . S
C1003 H995 0.930 . S
C1003 C1004 1.355 . S
C1003 C1005 1.415 . S
C1004 C1003 1.355 . S
C1004 C1006 1.419 . S
C1005 C1000 1.425 . S
C1005 C1002 1.409 . S
C1005 C1003 1.415 . S
C1006 H996 0.930 . S
C1006 C1004 1.419 . S
C1006 C1007 1.362 . S
C1007 H997 0.930 . S
C1007 C1000 1.409 . S
C1007 C1006 1.362 . S
H1008 C1014 0.930 . S
H1009 C1017 0.930 . S
H1010 C1018 0.930 . S
H1011 C1019 0.930 . S
H1012 C1022 0.930 . S
H1013 C1023 0.930 . S
C1014 H1008 0.930 . S
C1014 C1015 1.355 . S
C1014 C1016 1.415 . S
C1015 C1014 1.355 . S
C1015 C1017 1.419 . S
C1016 C1014 1.415 . S
C1016 C1021 1.425 . S
C1016 C1023 1.409 . S
C1017 H1009 0.930 . S
C1017 C1015 1.419 . S
C1017 C1018 1.362 . S
C1018 H1010 0.930 . S
C1018 C1017 1.362 . S
C1018 C1021 1.409 . S
C1019 H1011 0.930 . S
C1019 C1020 1.355 . S
C1019 C1021 1.415 . S
C1020 C1019 1.355 . S
C1020 C1022 1.419 . S
C1021 C1016 1.425 . S
C1021 C1018 1.409 . S
C1021 C1019 1.415 . S
C1022 H1012 0.930 . S
C1022 C1020 1.419 . S
C1022 C1023 1.362 . S
C1023 H1013 0.930 . S
C1023 C1016 1.409 . S
C1023 C1022 1.362 . S
H1024 C1030 0.930 . S
H1025 C1033 0.930 . S
H1026 C1034 0.930 . S
H1027 C1035 0.930 . S
H1028 C1038 0.930 . S
H1029 C1039 0.930 . S
C1030 H1024 0.930 . S
C1030 C1031 1.355 . S
C1030 C1032 1.415 . S
C1031 C1030 1.355 . S
C1031 C1033 1.419 . S
C1032 C1030 1.415 . S
C1032 C1037 1.435 . S
C1032 C1039 1.409 . S
C1033 H1025 0.930 . S
C1033 C1031 1.419 . S
C1033 C1034 1.362 . S
C1034 H1026 0.930 . S
C1034 C1033 1.362 . S
C1034 C1037 1.418 . S
C1035 H1027 0.930 . S
C1035 C1036 1.355 . S
C1035 C1037 1.397 1_554 S
C1036 C1035 1.355 . S
C1036 C1038 1.419 . S
C1037 C1032 1.435 . S
C1037 C1034 1.418 . S
C1037 C1035 1.397 1_556 S
C1038 H1028 0.930 . S
C1038 C1036 1.419 . S
C1038 C1039 1.362 1_554 S
C1039 H1029 0.930 . S
C1039 C1032 1.409 . S
C1039 C1038 1.362 1_556 S
H1040 C1046 0.930 . S
H1041 C1049 0.930 . S
H1042 C1050 0.930 . S
H1043 C1051 0.930 . S
H1044 C1054 0.930 . S
H1045 C1055 0.930 . S
C1046 H1040 0.930 . S
C1046 C1047 1.355 . S
C1046 C1048 1.415 . S
C1047 C1046 1.355 . S
C1047 C1049 1.419 . S
C1048 C1046 1.415 . S
C1048 C1053 1.425 . S
C1048 C1055 1.409 1_556 S
C1049 H1041 0.930 . S
C1049 C1047 1.419 . S
C1049 C1050 1.362 . S
C1050 H1042 0.930 . S
C1050 C1049 1.362 . S
C1050 C1053 1.409 . S
C1051 H1043 0.930 . S
C1051 C1052 1.355 . S
C1051 C1053 1.415 1_554 S
C1052 C1051 1.355 . S
C1052 C1054 1.419 . S
C1053 C1048 1.425 . S
C1053 C1050 1.409 . S
C1053 C1051 1.415 1_556 S
C1054 H1044 0.930 . S
C1054 C1052 1.419 . S
C1054 C1055 1.362 . S
C1055 H1045 0.930 . S
C1055 C1048 1.409 1_554 S
C1055 C1054 1.362 . S
H1056 C1062 0.930 . S
H1057 C1065 0.930 . S
H1058 C1066 0.930 . S
H1059 C1067 0.930 . S
H1060 C1070 0.930 . S
H1061 C1071 0.930 . S
C1062 H1056 0.930 . S
C1062 C1063 1.355 . S
C1062 C1064 1.415 . S
C1063 C1062 1.355 . S
C1063 C1065 1.419 1_554 S
C1064 C1062 1.415 . S
C1064 C1069 1.425 1_554 S
C1064 C1071 1.409 . S
C1065 H1057 0.930 . S
C1065 C1063 1.419 1_556 S
C1065 C1066 1.362 . S
C1066 H1058 0.930 . S
C1066 C1065 1.362 . S
C1066 C1069 1.409 . S
C1067 H1059 0.930 . S
C1067 C1068 1.355 . S
C1067 C1069 1.415 . S
C1068 C1067 1.355 . S
C1068 C1070 1.419 . S
C1069 C1064 1.425 1_556 S
C1069 C1066 1.409 . S
C1069 C1067 1.415 . S
C1070 H1060 0.930 . S
C1070 C1068 1.419 . S
C1070 C1071 1.362 1_556 S
C1071 H1061 0.930 . S
C1071 C1064 1.409 . S
C1071 C1070 1.362 1_554 S
H1072 C1078 0.930 . S
H1073 C1081 0.930 . S
H1074 C1082 0.930 . S
H1075 C1083 0.930 . S
H1076 C1086 0.930 . S
H1077 C1087 0.930 . S
C1078 H1072 0.930 . S
C1078 C1079 1.355 . S
C1078 C1080 1.415 . S
C1079 C1078 1.355 . S
C1079 C1081 1.419 . S
C1080 C1078 1.415 . S
C1080 C1085 1.425 1_554 S
C1080 C1087 1.409 . S
C1081 H1073 0.930 . S
C1081 C1079 1.419 . S
C1081 C1082 1.362 1_554 S
C1082 H1074 0.930 . S
C1082 C1081 1.362 1_556 S
C1082 C1085 1.409 . S
C1083 H1075 0.930 . S
C1083 C1084 1.355 . S
C1083 C1085 1.415 . S
C1084 C1083 1.355 . S
C1084 C1086 1.419 . S
C1085 C1080 1.425 1_556 S
C1085 C1082 1.409 . S
C1085 C1083 1.415 . S
C1086 H1076 0.930 . S
C1086 C1084 1.419 . S
C1086 C1087 1.362 1_556 S
C1087 H1077 0.930 . S
C1087 C1080 1.409 . S
C1087 C1086 1.362 1_554 S
C327 C18 1.902 . S
C332 C118 1.943 . S
C343 C138 1.900 . S
C348 C38 1.903 . S
C359 C58 1.947 . S
C364 C158 1.955 . S
C375 C78 1.959 . S
C380 C98 1.927 . S
C391 C279 1.947 . S
C396 C179 1.955 . S
C407 C299 1.958 . S
C412 C199 1.927 . S
C423 C219 1.914 . S
C428 C319 1.954 . S
C439 C239 1.907 . S
C444 C259 1.898 . S
C455 C9 1.798 . S
C460 C62 1.714 . S
C471 C29 1.750 . S
C476 C2 1.636 . S
C487 C49 1.823 . S
C492 C22 1.712 . S
C503 C69 1.801 . S
C508 C42 1.717 . S
C519 C89 1.797 . S
C524 C102 1.714 . S
C535 C122 1.624 . S
C540 C109 1.762 . S
C551 C129 1.769 . S
C556 C142 1.628 . S
C567 C82 1.707 . S
C572 C149 1.791 . S
C583 C224 1.687 . S
C588 C172 1.814 . S
C599 C192 1.789 . S
C604 C164 1.648 . S
C615 C212 1.823 . S
C620 C184 1.720 . S
C631 C232 1.779 . S
C636 C204 1.693 . S
C647 C252 1.811 . S
C652 C264 1.724 . S
C663 C272 1.821 . S
C668 C284 1.704 . S
C679 C292 1.770 . S
C684 C304 1.629 . S
C695 C312 1.810 . S
C700 C244 1.723 . S
C711 C12 0.683 . S
C716 C52 0.571 . S
C727 C32 0.594 . S
C732 C72 0.502 . S
C743 C132 0.632 . S
C748 C92 0.505 . S
C759 C152 0.501 . S
C764 C112 0.607 . S
C775 C209 0.643 . S
C780 C169 0.674 . S
C791 C229 0.580 . S
C796 C189 0.685 . S
C807 C249 0.505 . S
C812 C289 0.580 . S
C823 C269 0.608 . S
C828 C309 0.501 . S
C839 C4 1.312 . S
C844 C238 1.340 . S
C855 C178 1.324 . S
C860 C24 1.239 . S
C871 C44 1.267 . S
C876 C198 1.323 . S
C887 C218 1.353 . S
C892 C64 1.329 . S
C903 C278 1.397 . S
C908 C84 1.318 . S
C919 C104 1.246 . S
C924 C298 1.322 . S
C935 C318 1.327 . S
C940 C124 1.285 . S
C951 C144 1.328 . S
C956 C258 1.395 . S
C967 C162 1.294 . S
C972 C79 1.331 . S
C983 C182 1.319 . S
C988 C19 1.397 . S
C999 C39 1.357 . S
C1004 C202 1.231 . S
C1015 C222 1.340 . S
C1020 C59 1.388 . S
C1031 C242 1.342 . S
C1036 C119 1.384 . S
C1047 C262 1.342 . S
C1052 C139 1.373 . S
C1063 C159 1.396 . S
C1068 C282 1.309 . S
C1079 C99 1.383 . S
C1084 C302 1.342 . S
