# Generated by pormake.
# Topology can, (4)-cn, num edge types: 1
# Building blocks:
#     Node 0, Type 0, BuildingBlock: AZAVOO_clean_sbu_0, # of connection points: 4
#     Node 1, Type 0, BuildingBlock: AZAVOO_clean_sbu_0, # of connection points: 4
#     Node 2, Type 0, BuildingBlock: AZAVOO_clean_sbu_0, # of connection points: 4
#     Node 3, Type 0, BuildingBlock: AZAVOO_clean_sbu_0, # of connection points: 4
#     Node 4, Type 0, BuildingBlock: AZAVOO_clean_sbu_0, # of connection points: 4
#     Node 5, Type 0, BuildingBlock: AZAVOO_clean_sbu_0, # of connection points: 4
#     Node 6, Type 0, BuildingBlock: AZAVOO_clean_sbu_0, # of connection points: 4
#     Node 7, Type 0, BuildingBlock: AZAVOO_clean_sbu_0, # of connection points: 4
#     Node 8, Type 0, BuildingBlock: AZAVOO_clean_sbu_0, # of connection points: 4
#     Node 9, Type 0, BuildingBlock: AZAVOO_clean_sbu_0, # of connection points: 4
#     Node 10, Type 0, BuildingBlock: AZAVOO_clean_sbu_0, # of connection points: 4
#     Node 11, Type 0, BuildingBlock: AZAVOO_clean_sbu_0, # of connection points: 4
#     Edge 12, Type (0, 0), BuildingBlock: KIFKEQ_clean_linker_1, # of connection points: 2
#     Edge 13, Type (0, 0), BuildingBlock: KIFKEQ_clean_linker_1, # of connection points: 2
#     Edge 14, Type (0, 0), BuildingBlock: KIFKEQ_clean_linker_1, # of connection points: 2
#     Edge 15, Type (0, 0), BuildingBlock: KIFKEQ_clean_linker_1, # of connection points: 2
#     Edge 16, Type (0, 0), BuildingBlock: KIFKEQ_clean_linker_1, # of connection points: 2
#     Edge 17, Type (0, 0), BuildingBlock: KIFKEQ_clean_linker_1, # of connection points: 2
#     Edge 18, Type (0, 0), BuildingBlock: KIFKEQ_clean_linker_1, # of connection points: 2
#     Edge 19, Type (0, 0), BuildingBlock: KIFKEQ_clean_linker_1, # of connection points: 2
#     Edge 20, Type (0, 0), BuildingBlock: KIFKEQ_clean_linker_1, # of connection points: 2
#     Edge 21, Type (0, 0), BuildingBlock: KIFKEQ_clean_linker_1, # of connection points: 2
#     Edge 22, Type (0, 0), BuildingBlock: KIFKEQ_clean_linker_1, # of connection points: 2
#     Edge 23, Type (0, 0), BuildingBlock: KIFKEQ_clean_linker_1, # of connection points: 2
#     Edge 24, Type (0, 0), BuildingBlock: KIFKEQ_clean_linker_1, # of connection points: 2
#     Edge 25, Type (0, 0), BuildingBlock: KIFKEQ_clean_linker_1, # of connection points: 2
#     Edge 26, Type (0, 0), BuildingBlock: KIFKEQ_clean_linker_1, # of connection points: 2
#     Edge 27, Type (0, 0), BuildingBlock: KIFKEQ_clean_linker_1, # of connection points: 2
#     Edge 28, Type (0, 0), BuildingBlock: KIFKEQ_clean_linker_1, # of connection points: 2
#     Edge 29, Type (0, 0), BuildingBlock: KIFKEQ_clean_linker_1, # of connection points: 2
#     Edge 30, Type (0, 0), BuildingBlock: KIFKEQ_clean_linker_1, # of connection points: 2
#     Edge 31, Type (0, 0), BuildingBlock: KIFKEQ_clean_linker_1, # of connection points: 2
#     Edge 32, Type (0, 0), BuildingBlock: KIFKEQ_clean_linker_1, # of connection points: 2
#     Edge 33, Type (0, 0), BuildingBlock: KIFKEQ_clean_linker_1, # of connection points: 2
#     Edge 34, Type (0, 0), BuildingBlock: KIFKEQ_clean_linker_1, # of connection points: 2
#     Edge 35, Type (0, 0), BuildingBlock: KIFKEQ_clean_linker_1, # of connection points: 2
# Relax obj value: 0.086
# Max RMSD: 0.099
# Mean RMSD: 0.099
data_MOF--net-can--node1-AZAVOO_clean_sbu_0--edge1-KIFKEQ_clean_linker_1
_symmetry_space_group_name_H-M    P1
_symmetry_Int_Tables_number       1
_symmetry_cell_setting            triclinic
loop_
_symmetry_equiv_pos_as_xyz
'x, y, z'
_cell_length_a     59.325423
_cell_length_b     59.291082
_cell_length_c     27.152119
_cell_angle_alpha  90.139852
_cell_angle_beta   90.016882
_cell_angle_gamma 119.94882
loop_
_atom_site_label
_atom_site_type_symbol
_atom_site_fract_x
_atom_site_fract_y
_atom_site_fract_z
_atom_type_partial_charge
Mg0 Mg 0.06469 0.39684 0.25446 0.0
O1 O 0.06558 0.43597 0.25618 0.0
O2 O 0.08077 0.45422 0.32989 0.0
Mg3 Mg 0.0889 0.42697 0.3761 0.0
C4 C 0.07219 0.45459 0.28694 0.0
C5 C 0.04123 0.36964 0.1578 0.0
O6 O 0.03448 0.3508 0.18994 0.0
O7 O 0.10906 0.41816 0.24621 0.0
O8 O 0.12121 0.43312 0.32304 0.0
O9 O 0.02474 0.37649 0.28655 0.0
O10 O 0.06105 0.39469 0.3304 0.0
C11 C 0.12667 0.42993 0.27901 0.0
C12 C 0.03609 0.38311 0.32905 0.0
O13 O 0.05625 0.39296 0.17183 0.0
Mg14 Mg 0.66712 0.07037 0.76228 0.0
O15 O 0.62936 0.07182 0.76642 0.0
O16 O 0.62715 0.08775 0.83973 0.0
Mg17 Mg 0.66394 0.0974 0.88282 0.0
C18 C 0.61762 0.07857 0.79736 0.0
C19 C 0.65716 0.0375 0.67026 0.0
O20 O 0.66167 0.025 0.70525 0.0
O21 O 0.69029 0.11455 0.74989 0.0
O22 O 0.68824 0.12817 0.82591 0.0
O23 O 0.64741 0.03166 0.79975 0.0
O24 O 0.6688 0.06931 0.83866 0.0
C25 C 0.69622 0.13281 0.78142 0.0
C26 C 0.6547 0.04446 0.84077 0.0
O27 O 0.65925 0.05944 0.68045 0.0
Mg28 Mg 0.5922 0.66418 0.26081 0.0
O29 O 0.55225 0.62702 0.2614 0.0
O30 O 0.53307 0.62557 0.33303 0.0
Mg31 Mg 0.56033 0.66097 0.37927 0.0
C32 C 0.53304 0.6159 0.29097 0.0
C33 C 0.61659 0.65485 0.17046 0.0
O34 O 0.63205 0.65728 0.2072 0.0
O35 O 0.57296 0.6891 0.2474 0.0
O36 O 0.55779 0.68807 0.32349 0.0
O37 O 0.60984 0.64324 0.29928 0.0
O38 O 0.59341 0.6646 0.33746 0.0
C39 C 0.562 0.69644 0.27929 0.0
C40 C 0.60391 0.65027 0.34011 0.0
O41 O 0.5971 0.65778 0.17902 0.0
Mg42 Mg 0.92384 0.59998 0.74824 0.0
O43 O 0.92336 0.56143 0.75793 0.0
O44 O 0.91008 0.54667 0.83409 0.0
Mg45 Mg 0.90237 0.57612 0.87422 0.0
C46 C 0.91783 0.54442 0.79147 0.0
C47 C 0.95032 0.59716 0.65263 0.0
O48 O 0.96309 0.5922 0.68641 0.0
O49 O 0.87925 0.57771 0.74216 0.0
O50 O 0.86902 0.5672 0.82156 0.0
O51 O 0.96416 0.62179 0.77957 0.0
O52 O 0.92806 0.60651 0.82318 0.0
C53 C 0.86254 0.56788 0.77697 0.0
C54 C 0.95297 0.61803 0.82205 0.0
O55 O 0.93113 0.59977 0.66568 0.0
Mg56 Mg 0.32242 0.9235 0.25272 0.0
O57 O 0.36021 0.92221 0.25914 0.0
O58 O 0.36321 0.90928 0.33496 0.0
Mg59 Mg 0.32589 0.89979 0.37598 0.0
C60 C 0.37232 0.91691 0.29181 0.0
C61 C 0.31524 0.9383 0.14743 0.0
O62 O 0.29415 0.93531 0.16927 0.0
O63 O 0.29983 0.87921 0.2435 0.0
O64 O 0.30205 0.8673 0.3208 0.0
O65 O 0.34159 0.96319 0.28687 0.0
O66 O 0.32057 0.92637 0.32833 0.0
C67 C 0.29416 0.86167 0.27628 0.0
C68 C 0.33426 0.9513 0.32872 0.0
O69 O 0.33024 0.93261 0.17096 0.0
Mg70 Mg 0.38769 0.31929 0.74934 0.0
O71 O 0.42755 0.35654 0.7552 0.0
O72 O 0.44262 0.35981 0.8321 0.0
Mg73 Mg 0.41351 0.32391 0.87485 0.0
C74 C 0.44479 0.36852 0.78837 0.0
C75 C 0.39028 0.34637 0.65153 0.0
O76 O 0.39715 0.36513 0.68406 0.0
O77 O 0.40835 0.29546 0.74493 0.0
O78 O 0.42142 0.29821 0.82318 0.0
O79 O 0.3674 0.33987 0.77778 0.0
O80 O 0.38328 0.32059 0.82467 0.0
C81 C 0.41937 0.28965 0.77923 0.0
C82 C 0.37259 0.33476 0.8212 0.0
O83 O 0.38641 0.3243 0.66602 0.0
Mg84 Mg 0.59437 0.92445 0.24129 0.0
O85 O 0.55456 0.92167 0.23609 0.0
O86 O 0.53896 0.90901 0.15985 0.0
Mg87 Mg 0.56794 0.90189 0.11663 0.0
C88 C 0.53706 0.91601 0.20342 0.0
C89 C 0.59295 0.95079 0.33843 0.0
O90 O 0.58624 0.96272 0.30583 0.0
O91 O 0.57421 0.87996 0.24726 0.0
O92 O 0.56188 0.86914 0.16853 0.0
O93 O 0.61381 0.96471 0.20918 0.0
O94 O 0.5989 0.92848 0.16588 0.0
C95 C 0.56414 0.86307 0.21262 0.0
C96 C 0.60954 0.95333 0.16671 0.0
O97 O 0.59615 0.93209 0.32424 0.0
Mg98 Mg 0.66216 0.58851 0.73983 0.0
O99 O 0.62472 0.54879 0.73671 0.0
O100 O 0.62177 0.53246 0.66091 0.0
Mg101 Mg 0.6573 0.5606 0.61603 0.0
C102 C 0.61288 0.53102 0.70431 0.0
C103 C 0.65924 0.61338 0.83411 0.0
O104 O 0.66536 0.63087 0.79937 0.0
O105 O 0.6862 0.56812 0.74635 0.0
O106 O 0.68439 0.55516 0.66809 0.0
O107 O 0.64133 0.60807 0.7092 0.0
O108 O 0.66064 0.5916 0.66395 0.0
C109 C 0.6929 0.55776 0.71214 0.0
C110 C 0.64651 0.60235 0.66629 0.0
O111 O 0.65754 0.59172 0.82283 0.0
Mg112 Mg 0.06885 0.67015 0.22855 0.0
O113 O 0.06892 0.63176 0.22149 0.0
O114 O 0.08541 0.63029 0.14843 0.0
Mg115 Mg 0.09664 0.66825 0.10829 0.0
C116 C 0.0755 0.62013 0.18992 0.0
C117 C 0.03495 0.65808 0.31961 0.0
O118 O 0.0222 0.66231 0.2847 0.0
O119 O 0.11277 0.69177 0.24309 0.0
O120 O 0.12716 0.69073 0.16732 0.0
O121 O 0.03061 0.65232 0.18962 0.0
O122 O 0.06866 0.67337 0.15231 0.0
C123 C 0.13134 0.69774 0.21248 0.0
C124 C 0.04378 0.66002 0.14918 0.0
O125 O 0.05724 0.66101 0.30974 0.0
Mg126 Mg 0.39414 0.06609 0.73673 0.0
O127 O 0.4336 0.06817 0.73125 0.0
O128 O 0.45153 0.08525 0.65859 0.0
Mg129 Mg 0.42367 0.09455 0.61723 0.0
C130 C 0.45213 0.07564 0.70025 0.0
C131 C 0.37149 0.05008 0.84206 0.0
O132 O 0.35438 0.05523 0.82214 0.0
O133 O 0.41452 0.10997 0.7513 0.0
O134 O 0.4299 0.12482 0.67581 0.0
O135 O 0.37521 0.02765 0.69851 0.0
O136 O 0.39108 0.06553 0.66069 0.0
C137 C 0.42652 0.12871 0.72083 0.0
C138 C 0.38047 0.04067 0.65785 0.0
O139 O 0.39154 0.05463 0.81746 0.0
Mg140 Mg 0.31865 0.39525 0.22882 0.0
O141 O 0.35708 0.43396 0.22378 0.0
O142 O 0.35826 0.45266 0.1518 0.0
Mg143 Mg 0.32064 0.42642 0.11039 0.0
C144 C 0.36852 0.45256 0.19305 0.0
C145 C 0.32932 0.37162 0.31918 0.0
O146 O 0.32466 0.35474 0.2837 0.0
O147 O 0.29677 0.41724 0.24489 0.0
O148 O 0.29777 0.4334 0.16997 0.0
O149 O 0.33638 0.37502 0.18858 0.0
O150 O 0.31578 0.39282 0.15234 0.0
C151 C 0.29066 0.43002 0.21501 0.0
C152 C 0.32889 0.38103 0.14843 0.0
O153 O 0.32731 0.39158 0.30982 0.0
Mg154 Mg 0.9213 0.32698 0.73621 0.0
O155 O 0.92108 0.36562 0.73364 0.0
O156 O 0.90404 0.36737 0.66136 0.0
Mg157 Mg 0.89363 0.33075 0.61724 0.0
C158 C 0.91394 0.37723 0.70315 0.0
C159 C 0.94747 0.32483 0.83036 0.0
O160 O 0.95286 0.3118 0.79775 0.0
O161 O 0.87724 0.30459 0.74981 0.0
O162 O 0.86304 0.30632 0.67427 0.0
O163 O 0.95986 0.34524 0.69812 0.0
O164 O 0.92193 0.32556 0.65996 0.0
C165 C 0.85876 0.29849 0.71885 0.0
C166 C 0.94685 0.3385 0.65726 0.0
O167 O 0.93259 0.33353 0.81765 0.0
H168 H 0.01296 0.32192 0.11502 0.0
H169 H 0.04164 0.40365 0.08879 0.0
H170 H 0.9899 0.31121 0.0367 0.0
H171 H 0.01858 0.39284 0.00981 0.0
H172 H 0.94882 0.35894 0.90062 0.0
H173 H 0.97246 0.37039 0.979 0.0
H174 H -0.00059 0.31632 0.94799 0.0
H175 H 0.97577 0.30476 0.87028 0.0
C176 C 0.01454 0.33765 0.09233 0.0
C177 C 0.02918 0.36366 0.10817 0.0
C178 C 0.00136 0.33149 0.04734 0.0
C179 C 0.00233 0.35116 0.01711 0.0
C180 C 0.01721 0.37723 0.03258 0.0
C181 C 0.03062 0.38343 0.07756 0.0
C182 C 0.95964 0.34938 0.91076 0.0
C183 C 0.96035 0.33088 0.87925 0.0
C184 C 0.97337 0.35611 0.95541 0.0
C185 C 0.98787 0.34432 0.96962 0.0
C186 C 0.98825 0.3256 0.93834 0.0
C187 C 0.97474 0.31903 0.89369 0.0
H188 H 0.6207 0.94096 0.40708 0.0
H189 H 0.5819 0.98528 0.3837 0.0
H190 H 0.63664 0.96235 0.48634 0.0
H191 H 0.5969 0.00594 0.4639 0.0
H192 H 0.65096 0.05886 0.5851 0.0
H193 H 0.63481 0.03723 0.50568 0.0
H194 H 0.62484 0.96562 0.56722 0.0
H195 H 0.64193 0.98745 0.64532 0.0
C196 C 0.61515 0.95491 0.4193 0.0
C197 C 0.60007 0.96144 0.38904 0.0
C198 C 0.62426 0.9672 0.46489 0.0
C199 C 0.61822 0.98607 0.48166 0.0
C200 C 0.60245 0.99197 0.45188 0.0
C201 C 0.5936 0.9799 0.40605 0.0
C202 C 0.64545 0.03855 0.58144 0.0
C203 C 0.64788 0.02495 0.62147 0.0
C204 C 0.63596 0.02604 0.53604 0.0
C205 C 0.62844 -0.00042 0.52982 0.0
C206 C 0.63085 0.98608 0.5701 0.0
C207 C 0.64057 -0.00138 0.61514 0.0
H208 H 0.5936 0.65463 0.08237 0.0
H209 H 0.65095 0.63885 0.14662 0.0
H210 H 0.60284 0.64321 0.001 0.0
H211 H 0.66005 0.6275 0.06577 0.0
H212 H 0.65022 0.58446 0.91842 0.0
H213 H 0.63839 0.59327 -0.00021 0.0
H214 H 0.64103 0.66251 0.94303 0.0
H215 H 0.65284 0.65388 0.86228 0.0
C216 C 0.6081 0.6487 0.07918 0.0
C217 C 0.62162 0.6478 0.12091 0.0
C218 C 0.61343 0.64222 0.03264 0.0
C219 C 0.63214 0.63441 0.02709 0.0
C220 C 0.64534 0.63315 0.06894 0.0
C221 C 0.64024 0.63989 0.11523 0.0
C222 C 0.64831 0.60156 0.92341 0.0
C223 C 0.65259 0.6185 0.88392 0.0
C224 C 0.64157 0.60662 0.96994 0.0
C225 C 0.63866 0.62852 0.97766 0.0
C226 C 0.64279 0.64531 0.93808 0.0
C227 C 0.64979 0.64044 0.89189 0.0
H228 H 0.98424 0.6399 0.34308 0.0
H229 H 0.05717 0.65416 0.40567 0.0
H230 H 0.96279 0.62306 0.42135 0.0
H231 H 0.03587 0.63828 0.48521 0.0
H232 H 0.98595 0.58697 0.60996 0.0
H233 H 0.00595 0.60059 0.52908 0.0
H234 H 0.95902 0.63626 0.50079 0.0
H235 H 0.93833 0.62167 0.58071 0.0
C236 C -0.0042 0.63971 0.3738 0.0
C237 C 0.02248 0.64849 0.36818 0.0
C238 C 0.98347 0.63014 0.4189 0.0
C239 C -0.00247 0.62938 0.45992 0.0
C240 C 0.02428 0.63819 0.4543 0.0
C241 C 0.03659 0.6475 0.40883 0.0
C242 C 0.9797 0.59745 0.58616 0.0
C243 C 0.96053 0.60321 0.60173 0.0
C244 C 0.99136 0.60551 0.53994 0.0
C245 C 0.98434 0.61976 0.50835 0.0
C246 C 0.96473 0.62502 0.52367 0.0
C247 C 0.95286 0.6167 0.56965 0.0
H248 H 0.39316 0.02218 0.87806 0.0
H249 H 0.33562 0.0443 0.91121 0.0
H250 H 0.37938 0.9937 0.94949 0.0
H251 H 0.32263 0.01684 0.9841 0.0
H252 H 0.28534 0.946 0.08073 0.0
H253 H 0.29974 0.973 0.00726 0.0
H254 H 0.37875 0.99089 0.03538 0.0
H255 H 0.36401 0.96284 0.10741 0.0
C256 C 0.37791 0.02137 0.90122 0.0
C257 C 0.36541 0.03544 0.88888 0.0
C258 C 0.37 0.00503 0.94234 0.0
C259 C 0.34964 0.00264 0.97256 0.0
C260 C 0.33787 0.01755 0.96109 0.0
C261 C 0.34552 0.03358 0.91957 0.0
C262 C 0.30572 0.95543 0.07078 0.0
C263 C 0.32352 0.95227 0.09989 0.0
C264 C 0.31408 0.9712 0.02893 0.0
C265 C 0.34054 0.98458 0.01555 0.0
C266 C 0.3582 0.98078 0.04404 0.0
C267 C 0.34975 0.96468 0.08549 0.0
H268 H 0.34355 0.33595 0.34336 0.0
H269 H 0.33584 0.39903 0.40483 0.0
H270 H 0.35994 0.33038 0.42156 0.0
H271 H 0.35133 0.39278 0.48417 0.0
H272 H 0.40307 0.3922 0.60623 0.0
H273 H 0.38899 0.39846 0.52573 0.0
H274 H 0.34736 0.31516 0.50248 0.0
H275 H 0.36234 0.30906 0.58223 0.0
C276 C 0.34508 0.34848 0.3738 0.0
C277 C 0.33834 0.36793 0.36783 0.0
C278 C 0.35439 0.34518 0.41886 0.0
C279 C 0.35698 0.36107 0.45944 0.0
C280 C 0.35003 0.38044 0.45356 0.0
C281 C 0.34094 0.38392 0.4082 0.0
C282 C 0.39115 0.37524 0.58365 0.0
C283 C 0.38383 0.35012 0.60062 0.0
C284 C 0.38283 0.37881 0.53765 0.0
C285 C 0.36677 0.35733 0.50761 0.0
C286 C 0.35996 0.33223 0.52422 0.0
C287 C 0.36851 0.32868 0.57005 0.0
H288 H 0.00275 0.62794 0.8379 0.0
H289 H 0.93593 0.62341 0.91105 0.0
H290 H 0.02528 0.63665 0.91725 0.0
H291 H 0.95843 0.63268 0.9894 0.0
H292 H 0.06537 0.68057 0.06051 0.0
H293 H 0.04422 0.67003 0.98033 0.0
H294 H 0.97257 0.61211 0.048 0.0
H295 H -0.00639 0.62322 0.12855 0.0
C296 C -0.00698 0.62902 0.87082 0.0
C297 C 0.96757 0.62477 0.86854 0.0
C298 C 0.00586 0.63401 0.91614 0.0
C299 C -0.00654 0.63501 0.95962 0.0
C300 C 0.96824 0.63134 0.95683 0.0
C301 C 0.95542 0.62619 0.91185 0.0
C302 C 0.04515 0.66544 0.0582 0.0
C303 C 0.03106 0.65273 0.10071 0.0
C304 C 0.03309 0.65933 0.01222 0.0
C305 C 0.00674 0.64032 0.00787 0.0
C306 C 0.99282 0.62719 0.05034 0.0
C307 C 0.00484 0.63345 0.09641 0.0
H308 H 0.37352 0.0012 0.34617 0.0
H309 H 0.31322 0.93258 0.41808 0.0
H310 H 0.38715 0.0231 0.42613 0.0
H311 H 0.32623 0.95445 0.49711 0.0
H312 H 0.36922 0.99096 0.63748 0.0
H313 H 0.36049 0.96998 0.5568 0.0
H314 H 0.37149 0.04064 0.48882 0.0
H315 H 0.38091 0.06172 0.56895 0.0
C316 C 0.36315 0.99089 0.37898 0.0
C317 C 0.34247 0.96519 0.37605 0.0
C318 C 0.37088 0.00338 0.42468 0.0
C319 C 0.35789 0.9904 0.46799 0.0
C320 C 0.33706 0.96477 0.46469 0.0
C321 C 0.3295 0.9523 0.41928 0.0
C322 C 0.36989 0.00198 0.60521 0.0
C323 C 0.37572 0.02792 0.60943 0.0
C324 C 0.36483 0.98999 0.55906 0.0
C325 C 0.36523 0.00366 0.51644 0.0
C326 C 0.37144 0.02972 0.52077 0.0
C327 C 0.3767 0.04174 0.56677 0.0
H328 H 0.40592 0.35916 0.89668 0.0
H329 H 0.32833 0.33494 0.84506 0.0
H330 H 0.39617 0.37216 0.97525 0.0
H331 H 0.31804 0.34722 0.92437 0.0
H332 H 0.31399 0.3898 0.05891 0.0
H333 H 0.3263 0.38214 0.97818 0.0
H334 H 0.37081 0.35095 0.04629 0.0
H335 H 0.35967 0.3601 0.12741 0.0
C336 C 0.3867 0.35649 0.90244 0.0
C337 C 0.36767 0.34565 0.86556 0.0
C338 C 0.38108 0.36388 0.9474 0.0
C339 C 0.35619 0.36028 0.95644 0.0
C340 C 0.33748 0.35042 0.9185 0.0
C341 C 0.34328 0.34336 0.87318 0.0
C342 C 0.3268 0.38177 0.05679 0.0
C343 C 0.33623 0.37596 0.09958 0.0
C344 C 0.33357 0.37704 0.01039 0.0
C345 C 0.34959 0.36601 0.00573 0.0
C346 C 0.35885 0.35997 0.04859 0.0
C347 C 0.3523 0.36499 0.09508 0.0
H348 H 0.92386 0.32472 0.56707 0.0
H349 H -0.00114 0.36889 0.63785 0.0
H350 H 0.94424 0.33738 0.48714 0.0
H351 H 0.01964 0.38028 0.55713 0.0
H352 H 0.04685 0.41596 0.40665 0.0
H353 H 0.02496 0.40601 0.48601 0.0
H354 H 0.97016 0.32861 0.43364 0.0
H355 H 0.99183 0.33908 0.35374 0.0
C356 C 0.94473 0.33729 0.56565 0.0
C357 C 0.9597 0.34619 0.60889 0.0
C358 C 0.95648 0.34422 0.51961 0.0
C359 C 0.98357 0.35981 0.51563 0.0
C360 C -0.00135 0.36861 0.55891 0.0
C361 C 0.9868 0.36193 0.60515 0.0
C362 C 0.03019 0.39683 0.4123 0.0
C363 C 0.0212 0.3781 0.37466 0.0
C364 C 0.01766 0.3911 0.45773 0.0
C365 C -0.00397 0.3664 0.46647 0.0
C366 C 0.9866 0.34793 0.42804 0.0
C367 C -0.00104 0.35384 0.38233 0.0
H368 H 0.61588 0.99479 0.85924 0.0
H369 H 0.67434 0.0651 0.93059 0.0
H370 H 0.60271 0.9735 0.9393 0.0
H371 H 0.66173 0.04372 0.01013 0.0
H372 H 0.61937 0.00317 0.15111 0.0
H373 H 0.6278 0.02562 0.07183 0.0
H374 H 0.62155 0.95786 -0.00132 0.0
H375 H 0.61266 0.93552 0.07683 0.0
C376 C 0.62589 0.00565 0.89199 0.0
C377 C 0.64612 0.03153 0.88876 0.0
C378 C 0.61842 0.9935 0.93778 0.0
C379 C 0.63126 0.00694 0.98101 0.0
C380 C 0.65118 0.03298 0.97767 0.0
C381 C 0.6585 0.04516 0.93202 0.0
C382 C 0.61977 0.99318 0.11795 0.0
C383 C 0.61517 0.96759 0.11999 0.0
C384 C 0.6246 0.00597 0.07267 0.0
C385 C 0.62507 0.99338 0.02896 0.0
C386 C 0.62065 0.96786 0.0314 0.0
C387 C 0.6157 0.95512 0.07633 0.0
H388 H 0.59431 0.66352 0.43052 0.0
H389 H 0.6235 0.61804 0.35894 0.0
H390 H 0.6007 0.6495 0.51012 0.0
H391 H 0.63179 0.60542 0.4394 0.0
H392 H 0.62377 0.56958 0.58898 0.0
H393 H 0.61143 0.57979 0.51017 0.0
H394 H 0.63488 0.6573 0.5635 0.0
H395 H 0.64627 0.64648 0.64284 0.0
C396 C 0.6019 0.65033 0.43167 0.0
C397 C 0.60795 0.64151 0.38831 0.0
C398 C 0.60599 0.64262 0.47754 0.0
C399 C 0.61683 0.6264 0.48125 0.0
C400 C 0.62296 0.61757 0.43784 0.0
C401 C 0.61844 0.62497 0.39175 0.0
C402 C 0.62623 0.58875 0.58365 0.0
C403 C 0.63627 0.60743 0.62131 0.0
C404 C 0.61923 0.59464 0.53856 0.0
C405 C 0.62249 0.61946 0.53024 0.0
C406 C 0.63181 0.63787 0.5688 0.0
C407 C 0.63839 0.63177 0.61417 0.0
H408 H 0.08878 0.58993 0.13429 0.0
H409 H 0.05481 0.59191 0.27404 0.0
H410 H 0.08586 0.54888 0.15722 0.0
H411 H 0.05149 0.55061 0.29641 0.0
H412 H 0.08329 0.49731 0.34286 0.0
H413 H 0.08194 0.53596 0.3182 0.0
H414 H 0.05505 0.50285 0.17352 0.0
H415 H 0.05683 0.46418 0.19782 0.0
C416 C 0.08046 0.58152 0.16969 0.0
C417 C 0.07223 0.59436 0.20248 0.0
C418 C 0.07864 0.55789 0.18268 0.0
C419 C 0.06856 0.54657 0.22872 0.0
C420 C 0.05971 0.55905 0.26097 0.0
C421 C 0.06153 0.58268 0.24801 0.0
C422 C 0.07699 0.49815 0.30581 0.0
C423 C 0.07028 0.47763 0.27227 0.0
C424 C 0.07604 0.52027 0.2918 0.0
C425 C 0.06836 0.52246 0.24393 0.0
C426 C 0.06132 0.50184 0.21052 0.0
C427 C 0.06223 0.47964 0.22455 0.0
H428 H 0.4614 0.05762 0.78629 0.0
H429 H 0.49555 0.08948 0.64452 0.0
H430 H 0.50039 0.05626 0.8094 0.0
H431 H 0.53463 0.0885 0.66812 0.0
H432 H 0.59151 0.06124 0.70978 0.0
H433 H 0.55052 0.05838 0.68616 0.0
H434 H 0.54572 0.0878 0.82915 0.0
H435 H 0.58641 0.09028 0.85321 0.0
C436 C 0.47716 0.06429 0.75999 0.0
C437 C 0.47535 0.07377 0.71359 0.0
C438 C 0.49956 0.06362 0.77338 0.0
C439 C 0.52062 0.07236 0.74067 0.0
C440 C 0.51862 0.08136 0.69394 0.0
C441 C 0.49625 0.08207 0.68055 0.0
C442 C 0.58167 0.067 0.73631 0.0
C443 C 0.59234 0.07609 0.78337 0.0
C444 C 0.55824 0.06546 0.72265 0.0
C445 C 0.54492 0.07291 0.75575 0.0
C446 C 0.55536 0.08162 0.80302 0.0
C447 C 0.5788 0.0832 0.81667 0.0
H448 H 0.48951 0.58556 0.34549 0.0
H449 H 0.52418 0.5897 0.20326 0.0
H450 H 0.45109 0.54521 0.32105 0.0
H451 H 0.48573 0.54897 0.17921 0.0
H452 H 0.39923 0.4953 0.13675 0.0
H453 H 0.43988 0.53374 0.16017 0.0
H454 H 0.43674 0.49958 0.30213 0.0
H455 H 0.39579 0.4612 0.27917 0.0
C456 C 0.48904 0.57783 0.30908 0.0
C457 C 0.50994 0.59099 0.27627 0.0
C458 C 0.46705 0.55455 0.29525 0.0
C459 C 0.46539 0.54387 0.24825 0.0
C460 C 0.48635 0.55686 0.21552 0.0
C461 C 0.50841 0.58015 0.2294 0.0
C462 C 0.40723 0.49586 0.1729 0.0
C463 C 0.3941 0.47519 0.2062 0.0
C464 C 0.43065 0.51786 0.18616 0.0
C465 C 0.44146 0.51974 0.23305 0.0
C466 C 0.42869 0.49884 0.26596 0.0
C467 C 0.40528 0.47679 0.25268 0.0
H468 H 0.93506 0.53342 0.70623 0.0
H469 H 0.90536 0.50249 0.85088 0.0
H470 H 0.9366 0.49421 0.68605 0.0
H471 H 0.90645 0.46304 0.83014 0.0
H472 H 0.9322 0.40436 0.78989 0.0
H473 H 0.93558 0.44589 0.81208 0.0
H474 H 0.90487 0.44896 0.66954 0.0
H475 H 0.90193 0.40794 0.64697 0.0
C476 C 0.92889 0.5183 0.73378 0.0
C477 C 0.9199 0.52107 0.78008 0.0
C478 C 0.92967 0.49576 0.7221 0.0
C479 C 0.92148 0.47543 0.75637 0.0
C480 C 0.91313 0.47845 0.8031 0.0
C481 C 0.91235 0.50101 0.81484 0.0
C482 C 0.9263 0.41397 0.76319 0.0
C483 C 0.91675 0.40275 0.71666 0.0
C484 C 0.92812 0.43769 0.77602 0.0
C485 C 0.92052 0.45072 0.74256 0.0
C486 C 0.91126 0.43963 0.69591 0.0
C487 C 0.9094 0.41597 0.68312 0.0
H488 H 0.41399 0.92999 0.35161 0.0
H489 H 0.38671 0.90768 0.2024 0.0
H490 H 0.45486 0.93213 0.33014 0.0
H491 H 0.42656 0.9078 0.18142 0.0
H492 H 0.50836 0.92882 0.14361 0.0
H493 H 0.47005 0.93164 0.16514 0.0
H494 H 0.47395 0.90761 0.31388 0.0
H495 H 0.51338 0.90682 0.29282 0.0
C496 C 0.41672 0.92533 0.31427 0.0
C497 C 0.39728 0.91872 0.27863 0.0
C498 C 0.44007 0.92631 0.30194 0.0
C499 C 0.4442 0.91998 0.25398 0.0
C500 C 0.42455 0.91338 0.21842 0.0
C501 C 0.40154 0.91311 0.23046 0.0
C502 C 0.501 0.92426 0.18093 0.0
C503 C 0.51375 0.91756 0.21654 0.0
C504 C 0.47888 0.92568 0.19331 0.0
C505 C 0.46855 0.9197 0.24131 0.0
C506 C 0.48146 0.91292 0.27684 0.0
C507 C 0.50398 0.91222 0.26473 0.0
H508 H 0.57155 0.50337 0.64376 0.0
H509 H 0.59766 0.5071 0.79345 0.0
H510 H 0.52996 0.46551 0.6641 0.0
H511 H 0.55684 0.46805 0.81339 0.0
H512 H 0.47364 0.40988 0.84855 0.0
H513 H 0.51314 0.45016 0.82821 0.0
H514 H 0.50961 0.42177 0.67971 0.0
H515 H 0.46912 0.38244 0.69953 0.0
C516 C 0.56843 0.49581 0.68095 0.0
C517 C 0.58776 0.50806 0.71705 0.0
C518 C 0.54464 0.47396 0.69263 0.0
C519 C 0.53988 0.46339 0.74041 0.0
C520 C 0.55941 0.47579 0.77647 0.0
C521 C 0.58295 0.49808 0.76505 0.0
C522 C 0.48131 0.41244 0.8115 0.0
C523 C 0.4684 0.39311 0.77559 0.0
C524 C 0.5041 0.43545 0.79985 0.0
C525 C 0.51489 0.43936 0.75231 0.0
C526 C 0.50177 0.41987 0.71642 0.0
C527 C 0.47861 0.39717 0.72778 0.0
H528 H 0.1681 0.45272 0.3419 0.0
H529 H 0.1474 0.42476 0.19212 0.0
H530 H 0.21145 0.45907 0.32922 0.0
H531 H 0.19104 0.43136 0.17966 0.0
H532 H 0.26278 0.41915 0.30103 0.0
H533 H 0.22578 0.42548 0.31676 0.0
H534 H 0.23906 0.46581 0.17831 0.0
H535 H 0.27604 0.45978 0.16251 0.0
C536 C 0.17286 0.44832 0.30596 0.0
C537 C 0.15408 0.43785 0.26814 0.0
C538 C 0.19772 0.45192 0.29891 0.0
C539 C 0.20446 0.44548 0.25374 0.0
C540 C 0.18633 0.43661 0.21486 0.0
C541 C 0.16132 0.43275 0.22202 0.0
C542 C 0.25825 0.42995 0.27456 0.0
C543 C 0.27209 0.43851 0.23015 0.0
C544 C 0.23708 0.43359 0.28357 0.0
C545 C 0.22939 0.44576 0.24827 0.0
C546 C 0.24435 0.45598 0.20566 0.0
C547 C 0.26558 0.45254 0.19682 0.0
H548 H 0.81543 0.2815 0.66161 0.0
H549 H 0.84062 0.27118 0.8052 0.0
H550 H 0.77276 0.24379 0.67555 0.0
H551 H 0.79756 0.23348 0.81906 0.0
H552 H 0.71242 0.17566 0.83984 0.0
H553 H 0.7491 0.21902 0.82621 0.0
H554 H 0.76017 0.19569 0.68166 0.0
H555 H 0.72346 0.15193 0.6952 0.0
C556 C 0.81178 0.27153 0.69658 0.0
C557 C 0.83165 0.27915 0.73205 0.0
C558 C 0.78732 0.24987 0.70433 0.0
C559 C 0.78205 0.2356 0.74797 0.0
C560 C 0.80117 0.24425 0.78504 0.0
C561 C 0.82582 0.26582 0.77711 0.0
C562 C 0.72236 0.17975 0.80475 0.0
C563 C 0.71523 0.16012 0.76882 0.0
C564 C 0.74342 0.20462 0.79716 0.0
C565 C 0.75758 0.21054 0.75325 0.0
C566 C 0.74945 0.19158 0.71587 0.0
C567 C 0.72847 0.16653 0.72363 0.0
H568 H 0.54769 0.70839 0.19094 0.0
H569 H 0.56541 0.73297 0.34265 0.0
H570 H 0.54137 0.7454 0.17433 0.0
H571 H 0.56133 0.7706 0.32589 0.0
H572 H 0.54488 0.83386 0.29643 0.0
H573 H 0.53759 0.79006 0.31048 0.0
H574 H 0.56461 0.78916 0.16266 0.0
H575 H 0.56957 0.83153 0.14792 0.0
C576 C 0.55029 0.72177 0.22057 0.0
C577 C 0.55698 0.71783 0.26798 0.0
C578 C 0.54686 0.74309 0.21117 0.0
C579 C 0.55092 0.76131 0.24869 0.0
C580 C 0.55727 0.75689 0.29618 0.0
C581 C 0.55992 0.73532 0.30577 0.0
C582 C 0.5488 0.82395 0.26694 0.0
C583 C 0.55787 0.83605 0.22129 0.0
C584 C 0.54485 0.79893 0.27492 0.0
C585 C 0.55088 0.78596 0.23797 0.0
C586 C 0.55923 0.798 0.19186 0.0
C587 C 0.56235 0.82255 0.18348 0.0
H588 H 0.82914 0.57057 0.84077 0.0
H589 H 0.83401 0.54703 0.69241 0.0
H590 H 0.78569 0.56224 0.8253 0.0
H591 H 0.78914 0.53642 0.67752 0.0
H592 H 0.72819 0.56028 0.64629 0.0
H593 H 0.7665 0.5571 0.66178 0.0
H594 H 0.74241 0.53634 0.81336 0.0
H595 H 0.7049 0.54187 0.79822 0.0
C596 C 0.82055 0.56287 0.80506 0.0
C597 C 0.83504 0.55969 0.76757 0.0
C598 C 0.79534 0.55776 0.79625 0.0
C599 C 0.78357 0.54867 0.74999 0.0
C600 C 0.79766 0.54406 0.71324 0.0
C601 C 0.82332 0.54995 0.7217 0.0
C602 C 0.7309 0.55473 0.68284 0.0
C603 C 0.71377 0.55167 0.72128 0.0
C604 C 0.75289 0.55263 0.69172 0.0
C605 C 0.75801 0.54673 0.73907 0.0
C606 C 0.73971 0.54177 0.77675 0.0
C607 C 0.71805 0.54469 0.76814 0.0
H608 H 0.26854 0.84074 0.18919 0.0
H609 H 0.27703 0.82001 0.33798 0.0
H610 H 0.23207 0.79682 0.17638 0.0
H611 H 0.24058 0.77633 0.32494 0.0
H612 H 0.14923 0.72513 0.29902 0.0
H613 H 0.19273 0.76184 0.31428 0.0
H614 H 0.2184 0.74889 0.17368 0.0
H615 H 0.17516 0.7122 0.1583 0.0
C616 C 0.26304 0.82674 0.21876 0.0
C617 C 0.27546 0.83407 0.2648 0.0
C618 C 0.24221 0.80155 0.21138 0.0
C619 C 0.23338 0.78334 0.24996 0.0
C620 C 0.24681 0.79014 0.29488 0.0
C621 C 0.26773 0.81518 0.30215 0.0
C622 C 0.16429 0.72966 0.27194 0.0
C623 C 0.15855 0.71603 0.22708 0.0
C624 C 0.18922 0.75066 0.2807 0.0
C625 C 0.20875 0.75839 0.24472 0.0
C626 C 0.20355 0.74357 0.2016 0.0
C627 C 0.17876 0.72252 0.19298 0.0
H628 H 0.44177 0.27179 0.84467 0.0
H629 H 0.41638 0.26398 0.69304 0.0
H630 H 0.45 0.23583 0.83355 0.0
H631 H 0.42471 0.22792 0.68221 0.0
H632 H 0.41439 0.1453 0.80606 0.0
H633 H 0.41888 0.18798 0.82081 0.0
H634 H 0.45959 0.21554 0.68279 0.0
H635 H 0.45524 0.17309 0.66787 0.0
C636 C 0.43828 0.26269 0.80871 0.0
C637 C 0.42804 0.27056 0.76984 0.0
C638 C 0.44296 0.24203 0.80253 0.0
C639 C 0.43778 0.22898 0.75726 0.0
C640 C 0.42904 0.23779 0.7175 0.0
C641 C 0.42416 0.25836 0.72374 0.0
C642 C 0.42488 0.16063 0.77947 0.0
C643 C 0.43401 0.15561 0.73541 0.0
C644 C 0.42748 0.18509 0.78793 0.0
C645 C 0.43921 0.20488 0.75246 0.0
C646 C 0.45005 0.20046 0.71025 0.0
C647 C 0.4476 0.17613 0.70191 0.0
loop_
_geom_bond_atom_site_label_1
_geom_bond_atom_site_label_2
_geom_bond_distance
_geom_bond_site_symmetry_2
_ccdc_geom_bond_type
Mg0 O1 2.028 . S
Mg0 O7 1.986 . S
Mg0 O9 2.114 . S
Mg0 O10 2.251 . S
Mg0 O13 2.010 . S
O1 Mg0 2.028 . S
O1 C4 1.250 . S
O2 Mg3 2.028 . S
O2 C4 1.248 . S
Mg3 O2 2.028 . S
Mg3 O8 2.032 . S
Mg3 O10 2.079 . S
C4 O1 1.250 . S
C4 O2 1.248 . S
C5 O6 1.264 . S
C5 O13 1.249 . S
O6 C5 1.264 . S
O7 Mg0 1.986 . S
O7 C11 1.246 . S
O8 Mg3 2.032 . S
O8 C11 1.259 . S
O9 Mg0 2.114 . S
O9 C12 1.252 . S
O10 Mg0 2.251 . S
O10 Mg3 2.079 . S
O10 C12 1.273 . S
C11 O7 1.246 . S
C11 O8 1.259 . S
C12 O9 1.252 . S
C12 O10 1.273 . S
O13 Mg0 2.010 . S
O13 C5 1.249 . S
Mg14 O15 2.028 . S
Mg14 O21 1.986 . S
Mg14 O23 2.114 . S
Mg14 O24 2.251 . S
Mg14 O27 2.010 . S
O15 Mg14 2.028 . S
O15 C18 1.250 . S
O16 Mg17 2.028 . S
O16 C18 1.248 . S
Mg17 O16 2.028 . S
Mg17 O22 2.032 . S
Mg17 O24 2.079 . S
C18 O15 1.250 . S
C18 O16 1.248 . S
C19 O20 1.264 . S
C19 O27 1.249 . S
O20 C19 1.264 . S
O21 Mg14 1.986 . S
O21 C25 1.246 . S
O22 Mg17 2.032 . S
O22 C25 1.259 . S
O23 Mg14 2.114 . S
O23 C26 1.252 . S
O24 Mg14 2.251 . S
O24 Mg17 2.079 . S
O24 C26 1.273 . S
C25 O21 1.246 . S
C25 O22 1.259 . S
C26 O23 1.252 . S
C26 O24 1.273 . S
O27 Mg14 2.010 . S
O27 C19 1.249 . S
Mg28 O29 2.028 . S
Mg28 O35 1.986 . S
Mg28 O37 2.114 . S
Mg28 O38 2.251 . S
Mg28 O41 2.010 . S
O29 Mg28 2.028 . S
O29 C32 1.250 . S
O30 Mg31 2.028 . S
O30 C32 1.248 . S
Mg31 O30 2.028 . S
Mg31 O36 2.032 . S
Mg31 O38 2.079 . S
C32 O29 1.250 . S
C32 O30 1.248 . S
C33 O34 1.264 . S
C33 O41 1.249 . S
O34 C33 1.264 . S
O35 Mg28 1.986 . S
O35 C39 1.246 . S
O36 Mg31 2.032 . S
O36 C39 1.259 . S
O37 Mg28 2.114 . S
O37 C40 1.252 . S
O38 Mg28 2.251 . S
O38 Mg31 2.079 . S
O38 C40 1.273 . S
C39 O35 1.246 . S
C39 O36 1.259 . S
C40 O37 1.252 . S
C40 O38 1.273 . S
O41 Mg28 2.010 . S
O41 C33 1.249 . S
Mg42 O43 2.028 . S
Mg42 O49 1.986 . S
Mg42 O51 2.114 . S
Mg42 O52 2.251 . S
Mg42 O55 2.010 . S
O43 Mg42 2.028 . S
O43 C46 1.250 . S
O44 Mg45 2.028 . S
O44 C46 1.248 . S
Mg45 O44 2.028 . S
Mg45 O50 2.032 . S
Mg45 O52 2.079 . S
C46 O43 1.250 . S
C46 O44 1.248 . S
C47 O48 1.264 . S
C47 O55 1.249 . S
O48 C47 1.264 . S
O49 Mg42 1.986 . S
O49 C53 1.246 . S
O50 Mg45 2.032 . S
O50 C53 1.259 . S
O51 Mg42 2.114 . S
O51 C54 1.252 . S
O52 Mg42 2.251 . S
O52 Mg45 2.079 . S
O52 C54 1.273 . S
C53 O49 1.246 . S
C53 O50 1.259 . S
C54 O51 1.252 . S
C54 O52 1.273 . S
O55 Mg42 2.010 . S
O55 C47 1.249 . S
Mg56 O57 2.028 . S
Mg56 O63 1.986 . S
Mg56 O65 2.114 . S
Mg56 O66 2.251 . S
Mg56 O69 2.010 . S
O57 Mg56 2.028 . S
O57 C60 1.250 . S
O58 Mg59 2.028 . S
O58 C60 1.248 . S
Mg59 O58 2.028 . S
Mg59 O64 2.032 . S
Mg59 O66 2.079 . S
C60 O57 1.250 . S
C60 O58 1.248 . S
C61 O62 1.264 . S
C61 O69 1.249 . S
O62 C61 1.264 . S
O63 Mg56 1.986 . S
O63 C67 1.246 . S
O64 Mg59 2.032 . S
O64 C67 1.259 . S
O65 Mg56 2.114 . S
O65 C68 1.252 . S
O66 Mg56 2.251 . S
O66 Mg59 2.079 . S
O66 C68 1.273 . S
C67 O63 1.246 . S
C67 O64 1.259 . S
C68 O65 1.252 . S
C68 O66 1.273 . S
O69 Mg56 2.010 . S
O69 C61 1.249 . S
Mg70 O71 2.028 . S
Mg70 O77 1.986 . S
Mg70 O79 2.114 . S
Mg70 O80 2.251 . S
Mg70 O83 2.010 . S
O71 Mg70 2.028 . S
O71 C74 1.250 . S
O72 Mg73 2.028 . S
O72 C74 1.248 . S
Mg73 O72 2.028 . S
Mg73 O78 2.032 . S
Mg73 O80 2.079 . S
C74 O71 1.250 . S
C74 O72 1.248 . S
C75 O76 1.264 . S
C75 O83 1.249 . S
O76 C75 1.264 . S
O77 Mg70 1.986 . S
O77 C81 1.246 . S
O78 Mg73 2.032 . S
O78 C81 1.259 . S
O79 Mg70 2.114 . S
O79 C82 1.252 . S
O80 Mg70 2.251 . S
O80 Mg73 2.079 . S
O80 C82 1.273 . S
C81 O77 1.246 . S
C81 O78 1.259 . S
C82 O79 1.252 . S
C82 O80 1.273 . S
O83 Mg70 2.010 . S
O83 C75 1.249 . S
Mg84 O85 2.028 . S
Mg84 O91 1.986 . S
Mg84 O93 2.114 . S
Mg84 O94 2.251 . S
Mg84 O97 2.010 . S
O85 Mg84 2.028 . S
O85 C88 1.250 . S
O86 Mg87 2.028 . S
O86 C88 1.248 . S
Mg87 O86 2.028 . S
Mg87 O92 2.032 . S
Mg87 O94 2.079 . S
C88 O85 1.250 . S
C88 O86 1.248 . S
C89 O90 1.264 . S
C89 O97 1.249 . S
O90 C89 1.264 . S
O91 Mg84 1.986 . S
O91 C95 1.246 . S
O92 Mg87 2.032 . S
O92 C95 1.259 . S
O93 Mg84 2.114 . S
O93 C96 1.252 . S
O94 Mg84 2.251 . S
O94 Mg87 2.079 . S
O94 C96 1.273 . S
C95 O91 1.246 . S
C95 O92 1.259 . S
C96 O93 1.252 . S
C96 O94 1.273 . S
O97 Mg84 2.010 . S
O97 C89 1.249 . S
Mg98 O99 2.028 . S
Mg98 O105 1.986 . S
Mg98 O107 2.114 . S
Mg98 O108 2.251 . S
Mg98 O111 2.010 . S
O99 Mg98 2.028 . S
O99 C102 1.250 . S
O100 Mg101 2.028 . S
O100 C102 1.248 . S
Mg101 O100 2.028 . S
Mg101 O106 2.032 . S
Mg101 O108 2.079 . S
C102 O99 1.250 . S
C102 O100 1.248 . S
C103 O104 1.264 . S
C103 O111 1.249 . S
O104 C103 1.264 . S
O105 Mg98 1.986 . S
O105 C109 1.246 . S
O106 Mg101 2.032 . S
O106 C109 1.259 . S
O107 Mg98 2.114 . S
O107 C110 1.252 . S
O108 Mg98 2.251 . S
O108 Mg101 2.079 . S
O108 C110 1.273 . S
C109 O105 1.246 . S
C109 O106 1.259 . S
C110 O107 1.252 . S
C110 O108 1.273 . S
O111 Mg98 2.010 . S
O111 C103 1.249 . S
Mg112 O113 2.028 . S
Mg112 O119 1.986 . S
Mg112 O121 2.114 . S
Mg112 O122 2.251 . S
Mg112 O125 2.010 . S
O113 Mg112 2.028 . S
O113 C116 1.250 . S
O114 Mg115 2.028 . S
O114 C116 1.248 . S
Mg115 O114 2.028 . S
Mg115 O120 2.032 . S
Mg115 O122 2.079 . S
C116 O113 1.250 . S
C116 O114 1.248 . S
C117 O118 1.264 . S
C117 O125 1.249 . S
O118 C117 1.264 . S
O119 Mg112 1.986 . S
O119 C123 1.246 . S
O120 Mg115 2.032 . S
O120 C123 1.259 . S
O121 Mg112 2.114 . S
O121 C124 1.252 . S
O122 Mg112 2.251 . S
O122 Mg115 2.079 . S
O122 C124 1.273 . S
C123 O119 1.246 . S
C123 O120 1.259 . S
C124 O121 1.252 . S
C124 O122 1.273 . S
O125 Mg112 2.010 . S
O125 C117 1.249 . S
Mg126 O127 2.028 . S
Mg126 O133 1.986 . S
Mg126 O135 2.114 . S
Mg126 O136 2.251 . S
Mg126 O139 2.010 . S
O127 Mg126 2.028 . S
O127 C130 1.250 . S
O128 Mg129 2.028 . S
O128 C130 1.248 . S
Mg129 O128 2.028 . S
Mg129 O134 2.032 . S
Mg129 O136 2.079 . S
C130 O127 1.250 . S
C130 O128 1.248 . S
C131 O132 1.264 . S
C131 O139 1.249 . S
O132 C131 1.264 . S
O133 Mg126 1.986 . S
O133 C137 1.246 . S
O134 Mg129 2.032 . S
O134 C137 1.259 . S
O135 Mg126 2.114 . S
O135 C138 1.252 . S
O136 Mg126 2.251 . S
O136 Mg129 2.079 . S
O136 C138 1.273 . S
C137 O133 1.246 . S
C137 O134 1.259 . S
C138 O135 1.252 . S
C138 O136 1.273 . S
O139 Mg126 2.010 . S
O139 C131 1.249 . S
Mg140 O141 2.028 . S
Mg140 O147 1.986 . S
Mg140 O149 2.114 . S
Mg140 O150 2.251 . S
Mg140 O153 2.010 . S
O141 Mg140 2.028 . S
O141 C144 1.250 . S
O142 Mg143 2.028 . S
O142 C144 1.248 . S
Mg143 O142 2.028 . S
Mg143 O148 2.032 . S
Mg143 O150 2.079 . S
C144 O141 1.250 . S
C144 O142 1.248 . S
C145 O146 1.264 . S
C145 O153 1.249 . S
O146 C145 1.264 . S
O147 Mg140 1.986 . S
O147 C151 1.246 . S
O148 Mg143 2.032 . S
O148 C151 1.259 . S
O149 Mg140 2.114 . S
O149 C152 1.252 . S
O150 Mg140 2.251 . S
O150 Mg143 2.079 . S
O150 C152 1.273 . S
C151 O147 1.246 . S
C151 O148 1.259 . S
C152 O149 1.252 . S
C152 O150 1.273 . S
O153 Mg140 2.010 . S
O153 C145 1.249 . S
Mg154 O155 2.028 . S
Mg154 O161 1.986 . S
Mg154 O163 2.114 . S
Mg154 O164 2.251 . S
Mg154 O167 2.010 . S
O155 Mg154 2.028 . S
O155 C158 1.250 . S
O156 Mg157 2.028 . S
O156 C158 1.248 . S
Mg157 O156 2.028 . S
Mg157 O162 2.032 . S
Mg157 O164 2.079 . S
C158 O155 1.250 . S
C158 O156 1.248 . S
C159 O160 1.264 . S
C159 O167 1.249 . S
O160 C159 1.264 . S
O161 Mg154 1.986 . S
O161 C165 1.246 . S
O162 Mg157 2.032 . S
O162 C165 1.259 . S
O163 Mg154 2.114 . S
O163 C166 1.252 . S
O164 Mg154 2.251 . S
O164 Mg157 2.079 . S
O164 C166 1.273 . S
C165 O161 1.246 . S
C165 O162 1.259 . S
C166 O163 1.252 . S
C166 O164 1.273 . S
O167 Mg154 2.010 . S
O167 C159 1.249 . S
H168 C176 0.950 . S
H169 C181 0.950 . S
H170 C178 0.940 1_655 S
H171 C180 0.950 . S
H172 C182 0.950 . S
H173 C184 0.940 1_455 S
H174 C186 0.950 . S
H175 C187 0.950 . S
C176 H168 0.950 . S
C176 C177 1.386 . S
C176 C178 1.406 . S
C177 C176 1.386 . S
C177 C181 1.393 . S
C178 H170 0.940 1_455 S
C178 C176 1.406 . S
C178 C179 1.396 . S
C179 C178 1.396 . S
C179 C180 1.398 . S
C179 C185 1.491 1_454 S
C180 H171 0.950 . S
C180 C179 1.398 . S
C180 C181 1.391 . S
C181 H169 0.950 . S
C181 C177 1.393 . S
C181 C180 1.391 . S
C182 H172 0.950 . S
C182 C183 1.386 . S
C182 C184 1.406 . S
C183 C182 1.386 . S
C183 C187 1.393 . S
C184 H173 0.940 1_655 S
C184 C182 1.406 . S
C184 C185 1.396 . S
C185 C179 1.491 1_656 S
C185 C184 1.396 . S
C185 C186 1.398 . S
C186 H174 0.950 . S
C186 C185 1.398 . S
C186 C187 1.391 . S
C187 H175 0.950 . S
C187 C183 1.393 . S
C187 C186 1.391 . S
H188 C196 0.950 . S
H189 C201 0.950 . S
H190 C198 0.950 . S
H191 C200 0.951 . S
H192 C202 0.950 . S
H193 C204 0.950 . S
H194 C206 0.951 . S
H195 C207 0.950 . S
C196 H188 0.950 . S
C196 C197 1.386 . S
C196 C198 1.391 . S
C197 C196 1.386 . S
C197 C201 1.393 . S
C198 H190 0.950 . S
C198 C196 1.391 . S
C198 C199 1.400 . S
C199 C198 1.400 . S
C199 C200 1.398 1_565 S
C199 C205 1.491 1_565 S
C200 H191 0.951 . S
C200 C199 1.398 1_545 S
C200 C201 1.390 1_545 S
C201 H189 0.950 . S
C201 C197 1.393 . S
C201 C200 1.390 1_565 S
C202 H192 0.950 . S
C202 C203 1.386 . S
C202 C204 1.391 . S
C203 C202 1.386 . S
C203 C207 1.393 . S
C204 H193 0.950 . S
C204 C202 1.391 . S
C204 C205 1.400 . S
C205 C199 1.491 1_545 S
C205 C204 1.400 . S
C205 C206 1.398 1_545 S
C206 H194 0.951 . S
C206 C205 1.398 1_565 S
C206 C207 1.390 1_565 S
C207 H195 0.950 . S
C207 C203 1.393 . S
C207 C206 1.390 1_545 S
H208 C216 0.950 . S
H209 C221 0.950 . S
H210 C218 0.950 . S
H211 C220 0.950 . S
H212 C222 0.950 . S
H213 C224 0.950 . S
H214 C226 0.950 . S
H215 C227 0.950 . S
C216 H208 0.950 . S
C216 C217 1.386 . S
C216 C218 1.391 . S
C217 C216 1.386 . S
C217 C221 1.393 . S
C218 H210 0.950 . S
C218 C216 1.391 . S
C218 C219 1.400 . S
C219 C218 1.400 . S
C219 C220 1.398 . S
C219 C225 1.491 1_554 S
C220 H211 0.950 . S
C220 C219 1.398 . S
C220 C221 1.391 . S
C221 H209 0.950 . S
C221 C217 1.393 . S
C221 C220 1.391 . S
C222 H212 0.950 . S
C222 C223 1.386 . S
C222 C224 1.391 . S
C223 C222 1.386 . S
C223 C227 1.393 . S
C224 H213 0.950 . S
C224 C222 1.391 . S
C224 C225 1.400 . S
C225 C219 1.491 1_556 S
C225 C224 1.400 . S
C225 C226 1.398 . S
C226 H214 0.950 . S
C226 C225 1.398 . S
C226 C227 1.391 . S
C227 H215 0.950 . S
C227 C223 1.393 . S
C227 C226 1.391 . S
H228 C236 0.950 . S
H229 C241 0.950 . S
H230 C238 0.950 . S
H231 C240 0.950 . S
H232 C242 0.950 . S
H233 C244 0.950 . S
H234 C246 0.950 . S
H235 C247 0.950 . S
C236 H228 0.950 . S
C236 C237 1.386 . S
C236 C238 1.391 1_455 S
C237 C236 1.386 . S
C237 C241 1.393 . S
C238 H230 0.950 . S
C238 C236 1.391 1_655 S
C238 C239 1.400 1_655 S
C239 C238 1.400 1_455 S
C239 C240 1.398 . S
C239 C245 1.491 1_455 S
C240 H231 0.950 . S
C240 C239 1.398 . S
C240 C241 1.391 . S
C241 H229 0.950 . S
C241 C237 1.393 . S
C241 C240 1.391 . S
C242 H232 0.950 . S
C242 C243 1.386 . S
C242 C244 1.391 1_655 S
C243 C242 1.386 . S
C243 C247 1.393 . S
C244 H233 0.950 . S
C244 C242 1.391 1_455 S
C244 C245 1.400 1_455 S
C245 C239 1.491 1_655 S
C245 C244 1.400 1_655 S
C245 C246 1.398 . S
C246 H234 0.950 . S
C246 C245 1.398 . S
C246 C247 1.391 . S
C247 H235 0.950 . S
C247 C243 1.393 . S
C247 C246 1.391 . S
H248 C256 0.950 . S
H249 C261 0.950 . S
H250 C258 0.950 . S
H251 C260 0.950 . S
H252 C262 0.950 . S
H253 C264 0.950 . S
H254 C266 0.950 . S
H255 C267 0.950 . S
C256 H248 0.950 . S
C256 C257 1.386 . S
C256 C258 1.391 . S
C257 C256 1.386 . S
C257 C261 1.393 . S
C258 H250 0.950 . S
C258 C256 1.391 . S
C258 C259 1.400 . S
C259 C258 1.400 . S
C259 C260 1.398 . S
C259 C265 1.491 1_546 S
C260 H251 0.950 . S
C260 C259 1.398 . S
C260 C261 1.391 . S
C261 H249 0.950 . S
C261 C257 1.393 . S
C261 C260 1.391 . S
C262 H252 0.950 . S
C262 C263 1.386 . S
C262 C264 1.391 . S
C263 C262 1.386 . S
C263 C267 1.393 . S
C264 H253 0.950 . S
C264 C262 1.391 . S
C264 C265 1.400 . S
C265 C259 1.491 1_564 S
C265 C264 1.400 . S
C265 C266 1.398 . S
C266 H254 0.950 . S
C266 C265 1.398 . S
C266 C267 1.391 . S
C267 H255 0.950 . S
C267 C263 1.393 . S
C267 C266 1.391 . S
H268 C276 0.950 . S
H269 C281 0.950 . S
H270 C278 0.950 . S
H271 C280 0.950 . S
H272 C282 0.950 . S
H273 C284 0.950 . S
H274 C286 0.950 . S
H275 C287 0.950 . S
C276 H268 0.950 . S
C276 C277 1.386 . S
C276 C278 1.391 . S
C277 C276 1.386 . S
C277 C281 1.393 . S
C278 H270 0.950 . S
C278 C276 1.391 . S
C278 C279 1.400 . S
C279 C278 1.400 . S
C279 C280 1.398 . S
C279 C285 1.491 . S
C280 H271 0.950 . S
C280 C279 1.398 . S
C280 C281 1.391 . S
C281 H269 0.950 . S
C281 C277 1.393 . S
C281 C280 1.391 . S
C282 H272 0.950 . S
C282 C283 1.386 . S
C282 C284 1.391 . S
C283 C282 1.386 . S
C283 C287 1.393 . S
C284 H273 0.950 . S
C284 C282 1.391 . S
C284 C285 1.400 . S
C285 C279 1.491 . S
C285 C284 1.400 . S
C285 C286 1.398 . S
C286 H274 0.950 . S
C286 C285 1.398 . S
C286 C287 1.391 . S
C287 H275 0.950 . S
C287 C283 1.393 . S
C287 C286 1.391 . S
H288 C296 0.950 . S
H289 C301 0.950 . S
H290 C298 0.950 . S
H291 C300 0.950 . S
H292 C302 0.950 . S
H293 C304 0.950 . S
H294 C306 0.950 . S
H295 C307 0.950 . S
C296 H288 0.950 . S
C296 C297 1.386 . S
C296 C298 1.391 . S
C297 C296 1.386 . S
C297 C301 1.393 . S
C298 H290 0.950 . S
C298 C296 1.391 . S
C298 C299 1.400 . S
C299 C298 1.400 . S
C299 C300 1.398 . S
C299 C305 1.491 1_656 S
C300 H291 0.950 . S
C300 C299 1.398 . S
C300 C301 1.391 . S
C301 H289 0.950 . S
C301 C297 1.393 . S
C301 C300 1.391 . S
C302 H292 0.950 . S
C302 C303 1.386 . S
C302 C304 1.391 . S
C303 C302 1.386 . S
C303 C307 1.393 . S
C304 H293 0.950 . S
C304 C302 1.391 . S
C304 C305 1.400 . S
C305 C299 1.491 1_454 S
C305 C304 1.400 . S
C305 C306 1.398 . S
C306 H294 0.950 . S
C306 C305 1.398 . S
C306 C307 1.391 . S
C307 H295 0.950 . S
C307 C303 1.393 . S
C307 C306 1.391 . S
H308 C316 0.950 . S
H309 C321 0.950 . S
H310 C318 0.950 . S
H311 C320 0.950 . S
H312 C322 0.950 . S
H313 C324 0.950 . S
H314 C326 0.950 . S
H315 C327 0.950 . S
C316 H308 0.950 . S
C316 C317 1.386 . S
C316 C318 1.391 1_565 S
C317 C316 1.386 . S
C317 C321 1.393 . S
C318 H310 0.950 . S
C318 C316 1.391 1_545 S
C318 C319 1.400 1_545 S
C319 C318 1.400 1_565 S
C319 C320 1.398 . S
C319 C325 1.491 1_565 S
C320 H311 0.950 . S
C320 C319 1.398 . S
C320 C321 1.391 . S
C321 H309 0.950 . S
C321 C317 1.393 . S
C321 C320 1.391 . S
C322 H312 0.950 . S
C322 C323 1.386 . S
C322 C324 1.391 1_545 S
C323 C322 1.386 . S
C323 C327 1.393 . S
C324 H313 0.950 . S
C324 C322 1.391 1_565 S
C324 C325 1.400 1_565 S
C325 C319 1.491 1_545 S
C325 C324 1.400 1_545 S
C325 C326 1.398 . S
C326 H314 0.950 . S
C326 C325 1.398 . S
C326 C327 1.391 . S
C327 H315 0.950 . S
C327 C323 1.393 . S
C327 C326 1.391 . S
H328 C336 0.950 . S
H329 C341 0.950 . S
H330 C338 0.950 . S
H331 C340 0.950 . S
H332 C342 0.950 . S
H333 C344 0.950 . S
H334 C346 0.950 . S
H335 C347 0.950 . S
C336 H328 0.950 . S
C336 C337 1.386 . S
C336 C338 1.391 . S
C337 C336 1.386 . S
C337 C341 1.393 . S
C338 H330 0.950 . S
C338 C336 1.391 . S
C338 C339 1.400 . S
C339 C338 1.400 . S
C339 C340 1.398 . S
C339 C345 1.491 1_556 S
C340 H331 0.950 . S
C340 C339 1.398 . S
C340 C341 1.391 . S
C341 H329 0.950 . S
C341 C337 1.393 . S
C341 C340 1.391 . S
C342 H332 0.950 . S
C342 C343 1.386 . S
C342 C344 1.391 . S
C343 C342 1.386 . S
C343 C347 1.393 . S
C344 H333 0.950 . S
C344 C342 1.391 . S
C344 C345 1.400 . S
C345 C339 1.491 1_554 S
C345 C344 1.400 . S
C345 C346 1.398 . S
C346 H334 0.950 . S
C346 C345 1.398 . S
C346 C347 1.391 . S
C347 H335 0.950 . S
C347 C343 1.393 . S
C347 C346 1.391 . S
H348 C356 0.950 . S
H349 C361 0.950 . S
H350 C358 0.950 . S
H351 C360 0.950 1_455 S
H352 C362 0.950 . S
H353 C364 0.950 . S
H354 C366 0.950 1_655 S
H355 C367 0.950 . S
C356 H348 0.950 . S
C356 C357 1.386 . S
C356 C358 1.391 . S
C357 C356 1.386 . S
C357 C361 1.393 . S
C358 H350 0.950 . S
C358 C356 1.391 . S
C358 C359 1.400 . S
C359 C358 1.400 . S
C359 C360 1.398 . S
C359 C365 1.491 1_655 S
C360 H351 0.950 1_655 S
C360 C359 1.398 . S
C360 C361 1.391 . S
C361 H349 0.950 . S
C361 C357 1.393 . S
C361 C360 1.391 . S
C362 H352 0.950 . S
C362 C363 1.386 . S
C362 C364 1.391 . S
C363 C362 1.386 . S
C363 C367 1.393 . S
C364 H353 0.950 . S
C364 C362 1.391 . S
C364 C365 1.400 . S
C365 C359 1.491 1_455 S
C365 C364 1.400 . S
C365 C366 1.398 . S
C366 H354 0.950 1_455 S
C366 C365 1.398 . S
C366 C367 1.391 . S
C367 H355 0.950 . S
C367 C363 1.393 . S
C367 C366 1.391 . S
H368 C376 0.950 . S
H369 C381 0.950 . S
H370 C378 0.950 . S
H371 C380 0.950 1_554 S
H372 C382 0.950 . S
H373 C384 0.950 . S
H374 C386 0.950 1_556 S
H375 C387 0.950 . S
C376 H368 0.950 . S
C376 C377 1.386 . S
C376 C378 1.391 1_545 S
C377 C376 1.386 . S
C377 C381 1.393 . S
C378 H370 0.950 . S
C378 C376 1.391 1_565 S
C378 C379 1.400 1_565 S
C379 C378 1.400 1_545 S
C379 C380 1.398 . S
C379 C385 1.491 1_546 S
C380 H371 0.950 1_556 S
C380 C379 1.398 . S
C380 C381 1.391 . S
C381 H369 0.950 . S
C381 C377 1.393 . S
C381 C380 1.391 . S
C382 H372 0.950 . S
C382 C383 1.386 . S
C382 C384 1.391 1_565 S
C383 C382 1.386 . S
C383 C387 1.393 . S
C384 H373 0.950 . S
C384 C382 1.391 1_545 S
C384 C385 1.400 1_545 S
C385 C379 1.491 1_564 S
C385 C384 1.400 1_565 S
C385 C386 1.398 . S
C386 H374 0.950 1_554 S
C386 C385 1.398 . S
C386 C387 1.391 . S
C387 H375 0.950 . S
C387 C383 1.393 . S
C387 C386 1.391 . S
H388 C396 0.950 . S
H389 C401 0.950 . S
H390 C398 0.950 . S
H391 C400 0.950 . S
H392 C402 0.950 . S
H393 C404 0.950 . S
H394 C406 0.950 . S
H395 C407 0.950 . S
C396 H388 0.950 . S
C396 C397 1.386 . S
C396 C398 1.391 . S
C397 C396 1.386 . S
C397 C401 1.393 . S
C398 H390 0.950 . S
C398 C396 1.391 . S
C398 C399 1.400 . S
C399 C398 1.400 . S
C399 C400 1.398 . S
C399 C405 1.491 . S
C400 H391 0.950 . S
C400 C399 1.398 . S
C400 C401 1.391 . S
C401 H389 0.950 . S
C401 C397 1.393 . S
C401 C400 1.391 . S
C402 H392 0.950 . S
C402 C403 1.386 . S
C402 C404 1.391 . S
C403 C402 1.386 . S
C403 C407 1.393 . S
C404 H393 0.950 . S
C404 C402 1.391 . S
C404 C405 1.400 . S
C405 C399 1.491 . S
C405 C404 1.400 . S
C405 C406 1.398 . S
C406 H394 0.950 . S
C406 C405 1.398 . S
C406 C407 1.391 . S
C407 H395 0.950 . S
C407 C403 1.393 . S
C407 C406 1.391 . S
H408 C416 0.950 . S
H409 C421 0.950 . S
H410 C418 0.950 . S
H411 C420 0.950 . S
H412 C422 0.950 . S
H413 C424 0.950 . S
H414 C426 0.950 . S
H415 C427 0.950 . S
C416 H408 0.950 . S
C416 C417 1.386 . S
C416 C418 1.391 . S
C417 C416 1.386 . S
C417 C421 1.393 . S
C418 H410 0.950 . S
C418 C416 1.391 . S
C418 C419 1.400 . S
C419 C418 1.400 . S
C419 C420 1.398 . S
C419 C425 1.491 . S
C420 H411 0.950 . S
C420 C419 1.398 . S
C420 C421 1.391 . S
C421 H409 0.950 . S
C421 C417 1.393 . S
C421 C420 1.391 . S
C422 H412 0.950 . S
C422 C423 1.386 . S
C422 C424 1.391 . S
C423 C422 1.386 . S
C423 C427 1.393 . S
C424 H413 0.950 . S
C424 C422 1.391 . S
C424 C425 1.400 . S
C425 C419 1.491 . S
C425 C424 1.400 . S
C425 C426 1.398 . S
C426 H414 0.950 . S
C426 C425 1.398 . S
C426 C427 1.391 . S
C427 H415 0.950 . S
C427 C423 1.393 . S
C427 C426 1.391 . S
H428 C436 0.950 . S
H429 C441 0.950 . S
H430 C438 0.950 . S
H431 C440 0.950 . S
H432 C442 0.950 . S
H433 C444 0.950 . S
H434 C446 0.950 . S
H435 C447 0.950 . S
C436 H428 0.950 . S
C436 C437 1.386 . S
C436 C438 1.391 . S
C437 C436 1.386 . S
C437 C441 1.393 . S
C438 H430 0.950 . S
C438 C436 1.391 . S
C438 C439 1.400 . S
C439 C438 1.400 . S
C439 C440 1.398 . S
C439 C445 1.491 . S
C440 H431 0.950 . S
C440 C439 1.398 . S
C440 C441 1.391 . S
C441 H429 0.950 . S
C441 C437 1.393 . S
C441 C440 1.391 . S
C442 H432 0.950 . S
C442 C443 1.386 . S
C442 C444 1.391 . S
C443 C442 1.386 . S
C443 C447 1.393 . S
C444 H433 0.950 . S
C444 C442 1.391 . S
C444 C445 1.400 . S
C445 C439 1.491 . S
C445 C444 1.400 . S
C445 C446 1.398 . S
C446 H434 0.950 . S
C446 C445 1.398 . S
C446 C447 1.391 . S
C447 H435 0.950 . S
C447 C443 1.393 . S
C447 C446 1.391 . S
H448 C456 0.950 . S
H449 C461 0.950 . S
H450 C458 0.950 . S
H451 C460 0.950 . S
H452 C462 0.950 . S
H453 C464 0.950 . S
H454 C466 0.950 . S
H455 C467 0.950 . S
C456 H448 0.950 . S
C456 C457 1.386 . S
C456 C458 1.391 . S
C457 C456 1.386 . S
C457 C461 1.393 . S
C458 H450 0.950 . S
C458 C456 1.391 . S
C458 C459 1.400 . S
C459 C458 1.400 . S
C459 C460 1.398 . S
C459 C465 1.491 . S
C460 H451 0.950 . S
C460 C459 1.398 . S
C460 C461 1.391 . S
C461 H449 0.950 . S
C461 C457 1.393 . S
C461 C460 1.391 . S
C462 H452 0.950 . S
C462 C463 1.386 . S
C462 C464 1.391 . S
C463 C462 1.386 . S
C463 C467 1.393 . S
C464 H453 0.950 . S
C464 C462 1.391 . S
C464 C465 1.400 . S
C465 C459 1.491 . S
C465 C464 1.400 . S
C465 C466 1.398 . S
C466 H454 0.950 . S
C466 C465 1.398 . S
C466 C467 1.391 . S
C467 H455 0.950 . S
C467 C463 1.393 . S
C467 C466 1.391 . S
H468 C476 0.950 . S
H469 C481 0.950 . S
H470 C478 0.950 . S
H471 C480 0.950 . S
H472 C482 0.950 . S
H473 C484 0.950 . S
H474 C486 0.950 . S
H475 C487 0.950 . S
C476 H468 0.950 . S
C476 C477 1.386 . S
C476 C478 1.391 . S
C477 C476 1.386 . S
C477 C481 1.393 . S
C478 H470 0.950 . S
C478 C476 1.391 . S
C478 C479 1.400 . S
C479 C478 1.400 . S
C479 C480 1.398 . S
C479 C485 1.491 . S
C480 H471 0.950 . S
C480 C479 1.398 . S
C480 C481 1.391 . S
C481 H469 0.950 . S
C481 C477 1.393 . S
C481 C480 1.391 . S
C482 H472 0.950 . S
C482 C483 1.386 . S
C482 C484 1.391 . S
C483 C482 1.386 . S
C483 C487 1.393 . S
C484 H473 0.950 . S
C484 C482 1.391 . S
C484 C485 1.400 . S
C485 C479 1.491 . S
C485 C484 1.400 . S
C485 C486 1.398 . S
C486 H474 0.950 . S
C486 C485 1.398 . S
C486 C487 1.391 . S
C487 H475 0.950 . S
C487 C483 1.393 . S
C487 C486 1.391 . S
H488 C496 0.950 . S
H489 C501 0.950 . S
H490 C498 0.950 . S
H491 C500 0.950 . S
H492 C502 0.950 . S
H493 C504 0.950 . S
H494 C506 0.950 . S
H495 C507 0.950 . S
C496 H488 0.950 . S
C496 C497 1.386 . S
C496 C498 1.391 . S
C497 C496 1.386 . S
C497 C501 1.393 . S
C498 H490 0.950 . S
C498 C496 1.391 . S
C498 C499 1.400 . S
C499 C498 1.400 . S
C499 C500 1.398 . S
C499 C505 1.491 . S
C500 H491 0.950 . S
C500 C499 1.398 . S
C500 C501 1.391 . S
C501 H489 0.950 . S
C501 C497 1.393 . S
C501 C500 1.391 . S
C502 H492 0.950 . S
C502 C503 1.386 . S
C502 C504 1.391 . S
C503 C502 1.386 . S
C503 C507 1.393 . S
C504 H493 0.950 . S
C504 C502 1.391 . S
C504 C505 1.400 . S
C505 C499 1.491 . S
C505 C504 1.400 . S
C505 C506 1.398 . S
C506 H494 0.950 . S
C506 C505 1.398 . S
C506 C507 1.391 . S
C507 H495 0.950 . S
C507 C503 1.393 . S
C507 C506 1.391 . S
H508 C516 0.950 . S
H509 C521 0.950 . S
H510 C518 0.950 . S
H511 C520 0.950 . S
H512 C522 0.950 . S
H513 C524 0.950 . S
H514 C526 0.950 . S
H515 C527 0.950 . S
C516 H508 0.950 . S
C516 C517 1.386 . S
C516 C518 1.391 . S
C517 C516 1.386 . S
C517 C521 1.393 . S
C518 H510 0.950 . S
C518 C516 1.391 . S
C518 C519 1.400 . S
C519 C518 1.400 . S
C519 C520 1.398 . S
C519 C525 1.491 . S
C520 H511 0.950 . S
C520 C519 1.398 . S
C520 C521 1.391 . S
C521 H509 0.950 . S
C521 C517 1.393 . S
C521 C520 1.391 . S
C522 H512 0.950 . S
C522 C523 1.386 . S
C522 C524 1.391 . S
C523 C522 1.386 . S
C523 C527 1.393 . S
C524 H513 0.950 . S
C524 C522 1.391 . S
C524 C525 1.400 . S
C525 C519 1.491 . S
C525 C524 1.400 . S
C525 C526 1.398 . S
C526 H514 0.950 . S
C526 C525 1.398 . S
C526 C527 1.391 . S
C527 H515 0.950 . S
C527 C523 1.393 . S
C527 C526 1.391 . S
H528 C536 0.950 . S
H529 C541 0.950 . S
H530 C538 0.950 . S
H531 C540 0.950 . S
H532 C542 0.950 . S
H533 C544 0.950 . S
H534 C546 0.950 . S
H535 C547 0.950 . S
C536 H528 0.950 . S
C536 C537 1.386 . S
C536 C538 1.391 . S
C537 C536 1.386 . S
C537 C541 1.393 . S
C538 H530 0.950 . S
C538 C536 1.391 . S
C538 C539 1.400 . S
C539 C538 1.400 . S
C539 C540 1.398 . S
C539 C545 1.491 . S
C540 H531 0.950 . S
C540 C539 1.398 . S
C540 C541 1.391 . S
C541 H529 0.950 . S
C541 C537 1.393 . S
C541 C540 1.391 . S
C542 H532 0.950 . S
C542 C543 1.386 . S
C542 C544 1.391 . S
C543 C542 1.386 . S
C543 C547 1.393 . S
C544 H533 0.950 . S
C544 C542 1.391 . S
C544 C545 1.400 . S
C545 C539 1.491 . S
C545 C544 1.400 . S
C545 C546 1.398 . S
C546 H534 0.950 . S
C546 C545 1.398 . S
C546 C547 1.391 . S
C547 H535 0.950 . S
C547 C543 1.393 . S
C547 C546 1.391 . S
H548 C556 0.950 . S
H549 C561 0.950 . S
H550 C558 0.950 . S
H551 C560 0.950 . S
H552 C562 0.950 . S
H553 C564 0.950 . S
H554 C566 0.950 . S
H555 C567 0.950 . S
C556 H548 0.950 . S
C556 C557 1.386 . S
C556 C558 1.391 . S
C557 C556 1.386 . S
C557 C561 1.393 . S
C558 H550 0.950 . S
C558 C556 1.391 . S
C558 C559 1.400 . S
C559 C558 1.400 . S
C559 C560 1.398 . S
C559 C565 1.491 . S
C560 H551 0.950 . S
C560 C559 1.398 . S
C560 C561 1.391 . S
C561 H549 0.950 . S
C561 C557 1.393 . S
C561 C560 1.391 . S
C562 H552 0.950 . S
C562 C563 1.386 . S
C562 C564 1.391 . S
C563 C562 1.386 . S
C563 C567 1.393 . S
C564 H553 0.950 . S
C564 C562 1.391 . S
C564 C565 1.400 . S
C565 C559 1.491 . S
C565 C564 1.400 . S
C565 C566 1.398 . S
C566 H554 0.950 . S
C566 C565 1.398 . S
C566 C567 1.391 . S
C567 H555 0.950 . S
C567 C563 1.393 . S
C567 C566 1.391 . S
H568 C576 0.950 . S
H569 C581 0.950 . S
H570 C578 0.950 . S
H571 C580 0.950 . S
H572 C582 0.950 . S
H573 C584 0.950 . S
H574 C586 0.950 . S
H575 C587 0.950 . S
C576 H568 0.950 . S
C576 C577 1.386 . S
C576 C578 1.391 . S
C577 C576 1.386 . S
C577 C581 1.393 . S
C578 H570 0.950 . S
C578 C576 1.391 . S
C578 C579 1.400 . S
C579 C578 1.400 . S
C579 C580 1.398 . S
C579 C585 1.491 . S
C580 H571 0.950 . S
C580 C579 1.398 . S
C580 C581 1.391 . S
C581 H569 0.950 . S
C581 C577 1.393 . S
C581 C580 1.391 . S
C582 H572 0.950 . S
C582 C583 1.386 . S
C582 C584 1.391 . S
C583 C582 1.386 . S
C583 C587 1.393 . S
C584 H573 0.950 . S
C584 C582 1.391 . S
C584 C585 1.400 . S
C585 C579 1.491 . S
C585 C584 1.400 . S
C585 C586 1.398 . S
C586 H574 0.950 . S
C586 C585 1.398 . S
C586 C587 1.391 . S
C587 H575 0.950 . S
C587 C583 1.393 . S
C587 C586 1.391 . S
H588 C596 0.950 . S
H589 C601 0.950 . S
H590 C598 0.950 . S
H591 C600 0.950 . S
H592 C602 0.950 . S
H593 C604 0.950 . S
H594 C606 0.950 . S
H595 C607 0.950 . S
C596 H588 0.950 . S
C596 C597 1.386 . S
C596 C598 1.391 . S
C597 C596 1.386 . S
C597 C601 1.393 . S
C598 H590 0.950 . S
C598 C596 1.391 . S
C598 C599 1.400 . S
C599 C598 1.400 . S
C599 C600 1.398 . S
C599 C605 1.491 . S
C600 H591 0.950 . S
C600 C599 1.398 . S
C600 C601 1.391 . S
C601 H589 0.950 . S
C601 C597 1.393 . S
C601 C600 1.391 . S
C602 H592 0.950 . S
C602 C603 1.386 . S
C602 C604 1.391 . S
C603 C602 1.386 . S
C603 C607 1.393 . S
C604 H593 0.950 . S
C604 C602 1.391 . S
C604 C605 1.400 . S
C605 C599 1.491 . S
C605 C604 1.400 . S
C605 C606 1.398 . S
C606 H594 0.950 . S
C606 C605 1.398 . S
C606 C607 1.391 . S
C607 H595 0.950 . S
C607 C603 1.393 . S
C607 C606 1.391 . S
H608 C616 0.950 . S
H609 C621 0.950 . S
H610 C618 0.950 . S
H611 C620 0.950 . S
H612 C622 0.950 . S
H613 C624 0.950 . S
H614 C626 0.950 . S
H615 C627 0.950 . S
C616 H608 0.950 . S
C616 C617 1.386 . S
C616 C618 1.391 . S
C617 C616 1.386 . S
C617 C621 1.393 . S
C618 H610 0.950 . S
C618 C616 1.391 . S
C618 C619 1.400 . S
C619 C618 1.400 . S
C619 C620 1.398 . S
C619 C625 1.491 . S
C620 H611 0.950 . S
C620 C619 1.398 . S
C620 C621 1.391 . S
C621 H609 0.950 . S
C621 C617 1.393 . S
C621 C620 1.391 . S
C622 H612 0.950 . S
C622 C623 1.386 . S
C622 C624 1.391 . S
C623 C622 1.386 . S
C623 C627 1.393 . S
C624 H613 0.950 . S
C624 C622 1.391 . S
C624 C625 1.400 . S
C625 C619 1.491 . S
C625 C624 1.400 . S
C625 C626 1.398 . S
C626 H614 0.950 . S
C626 C625 1.398 . S
C626 C627 1.391 . S
C627 H615 0.950 . S
C627 C623 1.393 . S
C627 C626 1.391 . S
H628 C636 0.950 . S
H629 C641 0.950 . S
H630 C638 0.950 . S
H631 C640 0.950 . S
H632 C642 0.950 . S
H633 C644 0.950 . S
H634 C646 0.950 . S
H635 C647 0.950 . S
C636 H628 0.950 . S
C636 C637 1.386 . S
C636 C638 1.391 . S
C637 C636 1.386 . S
C637 C641 1.393 . S
C638 H630 0.950 . S
C638 C636 1.391 . S
C638 C639 1.400 . S
C639 C638 1.400 . S
C639 C640 1.398 . S
C639 C645 1.491 . S
C640 H631 0.950 . S
C640 C639 1.398 . S
C640 C641 1.391 . S
C641 H629 0.950 . S
C641 C637 1.393 . S
C641 C640 1.391 . S
C642 H632 0.950 . S
C642 C643 1.386 . S
C642 C644 1.391 . S
C643 C642 1.386 . S
C643 C647 1.393 . S
C644 H633 0.950 . S
C644 C642 1.391 . S
C644 C645 1.400 . S
C645 C639 1.491 . S
C645 C644 1.400 . S
C645 C646 1.398 . S
C646 H634 0.950 . S
C646 C645 1.398 . S
C646 C647 1.391 . S
C647 H635 0.950 . S
C647 C643 1.393 . S
C647 C646 1.391 . S
C177 C5 1.180 . S
C183 C159 1.143 . S
C197 C89 1.147 . S
C203 C19 1.175 . S
C217 C33 1.146 . S
C223 C103 1.190 . S
C237 C117 1.186 . S
C243 C47 1.139 . S
C257 C131 1.172 . S
C263 C61 1.169 . S
C277 C145 1.189 . S
C283 C75 1.139 . S
C297 C54 1.604 . S
C303 C124 1.605 . S
C317 C68 1.609 . S
C323 C138 1.602 . S
C337 C82 1.604 . S
C343 C152 1.606 . S
C357 C166 1.604 . S
C363 C12 1.608 . S
C377 C26 1.609 . S
C383 C96 1.603 . S
C397 C40 1.605 . S
C403 C110 1.608 . S
C417 C116 1.343 . S
C423 C4 1.345 . S
C437 C130 1.342 . S
C443 C18 1.341 . S
C457 C32 1.344 . S
C463 C144 1.346 . S
C477 C46 1.353 . S
C483 C158 1.352 . S
C497 C60 1.345 . S
C503 C88 1.347 . S
C517 C102 1.355 . S
C523 C74 1.356 . S
C537 C11 1.248 . S
C543 C151 1.247 . S
C557 C165 1.262 . S
C563 C25 1.258 . S
C577 C39 1.246 . S
C583 C95 1.251 . S
C597 C53 1.260 . S
C603 C109 1.251 . S
C617 C67 1.254 . S
C623 C123 1.262 . S
C637 C81 1.249 . S
C643 C137 1.246 . S
