# Generated by pormake.
# Topology mon, (4)-cn, num edge types: 1
# Building blocks:
#     Node 0, Type 0, BuildingBlock: KUFVIS_clean_sbu_0, # of connection points: 4
#     Node 1, Type 0, BuildingBlock: KUFVIS_clean_sbu_0, # of connection points: 4
#     Node 2, Type 0, BuildingBlock: KUFVIS_clean_sbu_0, # of connection points: 4
#     Node 3, Type 0, BuildingBlock: KUFVIS_clean_sbu_0, # of connection points: 4
#     Node 4, Type 0, BuildingBlock: KUFVIS_clean_sbu_0, # of connection points: 4
#     Node 5, Type 0, BuildingBlock: KUFVIS_clean_sbu_0, # of connection points: 4
#     Node 6, Type 0, BuildingBlock: KUFVIS_clean_sbu_0, # of connection points: 4
#     Node 7, Type 0, BuildingBlock: KUFVIS_clean_sbu_0, # of connection points: 4
#     Node 8, Type 0, BuildingBlock: KUFVIS_clean_sbu_0, # of connection points: 4
#     Node 9, Type 0, BuildingBlock: KUFVIS_clean_sbu_0, # of connection points: 4
#     Node 10, Type 0, BuildingBlock: KUFVIS_clean_sbu_0, # of connection points: 4
#     Node 11, Type 0, BuildingBlock: KUFVIS_clean_sbu_0, # of connection points: 4
#     Node 12, Type 0, BuildingBlock: KUFVIS_clean_sbu_0, # of connection points: 4
#     Node 13, Type 0, BuildingBlock: KUFVIS_clean_sbu_0, # of connection points: 4
#     Node 14, Type 0, BuildingBlock: KUFVIS_clean_sbu_0, # of connection points: 4
#     Node 15, Type 0, BuildingBlock: KUFVIS_clean_sbu_0, # of connection points: 4
#     Edge 16, Type (0, 0), BuildingBlock: UVAHIK_clean_linker_0, # of connection points: 2
#     Edge 17, Type (0, 0), BuildingBlock: UVAHIK_clean_linker_0, # of connection points: 2
#     Edge 18, Type (0, 0), BuildingBlock: UVAHIK_clean_linker_0, # of connection points: 2
#     Edge 19, Type (0, 0), BuildingBlock: UVAHIK_clean_linker_0, # of connection points: 2
#     Edge 20, Type (0, 0), BuildingBlock: UVAHIK_clean_linker_0, # of connection points: 2
#     Edge 21, Type (0, 0), BuildingBlock: UVAHIK_clean_linker_0, # of connection points: 2
#     Edge 22, Type (0, 0), BuildingBlock: UVAHIK_clean_linker_0, # of connection points: 2
#     Edge 23, Type (0, 0), BuildingBlock: UVAHIK_clean_linker_0, # of connection points: 2
#     Edge 24, Type (0, 0), BuildingBlock: UVAHIK_clean_linker_0, # of connection points: 2
#     Edge 25, Type (0, 0), BuildingBlock: UVAHIK_clean_linker_0, # of connection points: 2
#     Edge 26, Type (0, 0), BuildingBlock: UVAHIK_clean_linker_0, # of connection points: 2
#     Edge 27, Type (0, 0), BuildingBlock: UVAHIK_clean_linker_0, # of connection points: 2
#     Edge 28, Type (0, 0), BuildingBlock: UVAHIK_clean_linker_0, # of connection points: 2
#     Edge 29, Type (0, 0), BuildingBlock: UVAHIK_clean_linker_0, # of connection points: 2
#     Edge 30, Type (0, 0), BuildingBlock: UVAHIK_clean_linker_0, # of connection points: 2
#     Edge 31, Type (0, 0), BuildingBlock: UVAHIK_clean_linker_0, # of connection points: 2
#     Edge 32, Type (0, 0), BuildingBlock: UVAHIK_clean_linker_0, # of connection points: 2
#     Edge 33, Type (0, 0), BuildingBlock: UVAHIK_clean_linker_0, # of connection points: 2
#     Edge 34, Type (0, 0), BuildingBlock: UVAHIK_clean_linker_0, # of connection points: 2
#     Edge 35, Type (0, 0), BuildingBlock: UVAHIK_clean_linker_0, # of connection points: 2
#     Edge 36, Type (0, 0), BuildingBlock: UVAHIK_clean_linker_0, # of connection points: 2
#     Edge 37, Type (0, 0), BuildingBlock: UVAHIK_clean_linker_0, # of connection points: 2
#     Edge 38, Type (0, 0), BuildingBlock: UVAHIK_clean_linker_0, # of connection points: 2
#     Edge 39, Type (0, 0), BuildingBlock: UVAHIK_clean_linker_0, # of connection points: 2
#     Edge 40, Type (0, 0), BuildingBlock: UVAHIK_clean_linker_0, # of connection points: 2
#     Edge 41, Type (0, 0), BuildingBlock: UVAHIK_clean_linker_0, # of connection points: 2
#     Edge 42, Type (0, 0), BuildingBlock: UVAHIK_clean_linker_0, # of connection points: 2
#     Edge 43, Type (0, 0), BuildingBlock: UVAHIK_clean_linker_0, # of connection points: 2
#     Edge 44, Type (0, 0), BuildingBlock: UVAHIK_clean_linker_0, # of connection points: 2
#     Edge 45, Type (0, 0), BuildingBlock: UVAHIK_clean_linker_0, # of connection points: 2
#     Edge 46, Type (0, 0), BuildingBlock: UVAHIK_clean_linker_0, # of connection points: 2
#     Edge 47, Type (0, 0), BuildingBlock: UVAHIK_clean_linker_0, # of connection points: 2
# Relax obj value: 0.170
# Max RMSD: 0.160
# Mean RMSD: 0.160
data_MOF--net-mon--node1-KUFVIS_clean_sbu_0--edge1-UVAHIK_clean_linker_0
_symmetry_space_group_name_H-M    P1
_symmetry_Int_Tables_number       1
_symmetry_cell_setting            triclinic
loop_
_symmetry_equiv_pos_as_xyz
'x, y, z'
_cell_length_a     43.466083
_cell_length_b     43.472743
_cell_length_c     109.54696
_cell_angle_alpha  89.998532
_cell_angle_beta   89.989238
_cell_angle_gamma 89.997785
loop_
_atom_site_label
_atom_site_type_symbol
_atom_site_fract_x
_atom_site_fract_y
_atom_site_fract_z
_atom_type_partial_charge
Mn0 Mn 0.01313 0.02114 0.58716 0.0
Mn1 Mn 0.94561 0.03906 0.57372 0.0
C2 C 0.96693 0.01107 0.59681 0.0
C3 C 0.05311 0.9873 0.59149 0.0
C4 C 0.98696 0.08645 0.58537 0.0
O5 O 0.02549 0.0255 0.56933 0.0
O6 O 0.97912 0.0378 0.56137 0.0
C7 C 0.93829 0.98255 0.55891 0.0
N8 N 0.92741 0.00208 0.56762 0.0
C9 C 0.88235 0.97082 0.57066 0.0
C10 C 0.893 0.95048 0.56167 0.0
C11 C 0.92109 0.95637 0.55578 0.0
C12 C 0.90036 0.99667 0.57333 0.0
H13 H 0.95996 0.98686 0.55441 0.0
C14 C 0.00807 0.03257 0.56036 0.0
O15 O 0.05664 0.01684 0.59248 0.0
O16 O 0.02677 0.97753 0.58748 0.0
N17 N 0.91145 0.04042 0.58475 0.0
C18 C 0.90517 0.06149 0.59362 0.0
C19 C 0.87818 0.05851 0.60057 0.0
C20 C 0.85794 0.03396 0.59832 0.0
C21 C 0.86478 0.0127 0.58909 0.0
C22 C 0.89184 0.01705 0.58236 0.0
H23 H 0.92076 0.08026 0.59544 0.0
O24 O 0.99186 0.01449 0.60319 0.0
O25 O 0.96981 0.0144 0.58511 0.0
O26 O 0.00799 0.06766 0.58853 0.0
O27 O 0.96227 0.07827 0.57996 0.0
C28 C 0.84612 0.98705 0.58645 0.0
C29 C 0.8549 0.96612 0.57725 0.0
H30 H 0.87992 0.93013 0.55929 0.0
H31 H 0.92954 0.9407 0.54887 0.0
H32 H 0.8731 0.07497 0.6077 0.0
H33 H 0.83734 0.03153 0.6038 0.0
H34 H 0.82515 0.983 0.59156 0.0
H35 H 0.84055 0.94628 0.57541 0.0
Mn36 Mn 0.24551 0.74374 0.83731 0.0
Mn37 Mn 0.22605 0.67729 0.82342 0.0
C38 C 0.2546 0.69697 0.84664 0.0
C39 C 0.27986 0.78295 0.84202 0.0
C40 C 0.17962 0.71893 0.83544 0.0
O41 O 0.24139 0.75706 0.81957 0.0
O42 O 0.22736 0.71148 0.81135 0.0
C43 C 0.28203 0.67003 0.80828 0.0
N44 N 0.26261 0.65894 0.81699 0.0
C45 C 0.29346 0.61342 0.81955 0.0
C46 C 0.31369 0.62428 0.81056 0.0
C47 C 0.30794 0.65271 0.8049 0.0
C48 C 0.26787 0.63156 0.82246 0.0
H49 H 0.27785 0.69197 0.80397 0.0
C50 C 0.23333 0.74033 0.81054 0.0
O51 O 0.25035 0.78687 0.84295 0.0
O52 O 0.28935 0.75669 0.83781 0.0
N53 N 0.2245 0.64254 0.83413 0.0
C54 C 0.20356 0.63605 0.84303 0.0
C55 C 0.20644 0.60872 0.84977 0.0
C56 C 0.23074 0.58835 0.84728 0.0
C57 C 0.25185 0.59541 0.83802 0.0
C58 C 0.24761 0.62281 0.8315 0.0
H59 H 0.18498 0.65173 0.84503 0.0
O60 O 0.25158 0.72168 0.85318 0.0
O61 O 0.25144 0.70038 0.83494 0.0
O62 O 0.19893 0.73946 0.83861 0.0
O63 O 0.18719 0.69415 0.82995 0.0
C64 C 0.27725 0.57662 0.83514 0.0
C65 C 0.29804 0.58562 0.82591 0.0
H66 H 0.33383 0.6111 0.80799 0.0
H67 H 0.32353 0.66131 0.798 0.0
H68 H 0.19009 0.60346 0.85692 0.0
H69 H 0.2331 0.56748 0.8526 0.0
H70 H 0.28121 0.55538 0.84007 0.0
H71 H 0.31767 0.57116 0.82388 0.0
Mn72 Mn 0.52282 0.9742 0.0874 0.0
Mn73 Mn 0.59099 0.95614 0.07456 0.0
C74 C 0.56843 0.98248 0.09775 0.0
C75 C 0.48319 0.0083 0.09185 0.0
C76 C 0.54758 0.90853 0.08483 0.0
O77 O 0.51185 0.97185 0.06935 0.0
O78 O 0.55866 0.95953 0.06179 0.0
C79 C 0.60096 0.01396 0.06082 0.0
N80 N 0.61056 0.9933 0.06936 0.0
C81 C 0.65581 0.02331 0.07366 0.0
C82 C 0.64649 0.04481 0.06486 0.0
C83 C 0.61894 0.04011 0.05843 0.0
C84 C 0.63708 0.99755 0.07558 0.0
H85 H 0.5797 0.01057 0.05591 0.0
C86 C 0.52991 0.96545 0.06049 0.0
O87 O 0.47903 0.97875 0.09227 0.0
O88 O 0.50996 0.018 0.08828 0.0
N89 N 0.62402 0.95284 0.08605 0.0
C90 C 0.62893 0.93077 0.09466 0.0
C91 C 0.65519 0.93248 0.1021 0.0
C92 C 0.67611 0.95682 0.1006 0.0
C93 C 0.67065 0.97916 0.09163 0.0
C94 C 0.64427 0.97606 0.08439 0.0
H95 H 0.61281 0.91213 0.09591 0.0
O96 O 0.54297 0.97885 0.10377 0.0
O97 O 0.56636 0.98021 0.08599 0.0
O98 O 0.52687 0.92754 0.08809 0.0
O99 O 0.57289 0.91661 0.07986 0.0
C100 C 0.69004 0.0047 0.08974 0.0
C101 C 0.68262 0.02676 0.08076 0.0
H102 H 0.66016 0.06514 0.06305 0.0
H103 H 0.61151 0.05668 0.05167 0.0
H104 H 0.6592 0.91519 0.10903 0.0
H105 H 0.69615 0.95826 0.10645 0.0
H106 H 0.71052 0.00778 0.09523 0.0
H107 H 0.6975 0.04649 0.0795 0.0
Mn108 Mn 0.29097 0.25315 0.3375 0.0
Mn109 Mn 0.30869 0.32122 0.3245 0.0
C110 C 0.28206 0.29889 0.34768 0.0
C111 C 0.25707 0.2133 0.3419 0.0
C112 C 0.35651 0.27834 0.33499 0.0
O113 O 0.29378 0.2419 0.31948 0.0
O114 O 0.30557 0.28871 0.3118 0.0
C115 C 0.25092 0.3307 0.31067 0.0
N116 N 0.27147 0.34053 0.31921 0.0
C117 C 0.2412 0.38569 0.32336 0.0
C118 C 0.21982 0.37613 0.31457 0.0
C119 C 0.2247 0.34851 0.3082 0.0
C120 C 0.26703 0.36712 0.32537 0.0
H121 H 0.25445 0.30937 0.30582 0.0
C122 C 0.29998 0.25987 0.31058 0.0
O123 O 0.28664 0.2094 0.34246 0.0
O124 O 0.24725 0.23995 0.33824 0.0
N125 N 0.31171 0.35441 0.33593 0.0
C126 C 0.33366 0.35953 0.34457 0.0
C127 C 0.33174 0.38588 0.35195 0.0
C128 C 0.30732 0.40667 0.35036 0.0
C129 C 0.2851 0.40099 0.34136 0.0
C130 C 0.28841 0.37453 0.33419 0.0
H131 H 0.35235 0.34351 0.34589 0.0
O132 O 0.28576 0.27359 0.3538 0.0
O133 O 0.28464 0.2966 0.33594 0.0
O134 O 0.3376 0.25761 0.33833 0.0
O135 O 0.34828 0.30342 0.32988 0.0
C136 C 0.25949 0.42023 0.3394 0.0
C137 C 0.23755 0.41258 0.33041 0.0
H138 H 0.19943 0.38968 0.3127 0.0
H139 H 0.20822 0.3409 0.30144 0.0
H140 H 0.34894 0.39006 0.3589 0.0
H141 H 0.30572 0.42677 0.35617 0.0
H142 H 0.25624 0.44076 0.34485 0.0
H143 H 0.21775 0.42734 0.32909 0.0
Mn144 Mn 0.01176 0.97512 0.40911 0.0
Mn145 Mn 0.94433 0.95788 0.42275 0.0
C146 C 0.96549 0.98467 0.39943 0.0
C147 C 0.0517 0.00861 0.40435 0.0
C148 C 0.98573 0.90988 0.41151 0.0
O149 O 0.02421 0.97186 0.42698 0.0
O150 O 0.97786 0.95997 0.43507 0.0
C151 C 0.93686 0.01518 0.43707 0.0
N152 N 0.92604 0.99515 0.42853 0.0
C153 C 0.88096 0.02618 0.42519 0.0
C154 C 0.89155 0.04704 0.43401 0.0
C155 C 0.91963 0.04151 0.43996 0.0
C156 C 0.899 0.0002 0.42277 0.0
H157 H 0.95853 0.01115 0.44162 0.0
C158 C 0.0068 0.96536 0.43602 0.0
O159 O 0.05521 0.979 0.40368 0.0
O160 O 0.02544 0.01869 0.40833 0.0
N161 N 0.91018 0.95583 0.41174 0.0
C162 C 0.90402 0.93433 0.40303 0.0
C163 C 0.87709 0.93693 0.39602 0.0
C164 C 0.8568 0.96156 0.39804 0.0
C165 C 0.86355 0.9833 0.40711 0.0
C166 C 0.89054 0.97932 0.41391 0.0
H167 H 0.91965 0.9155 0.40137 0.0
O168 O 0.99035 0.9808 0.39305 0.0
O169 O 0.96846 0.98196 0.41114 0.0
O170 O 0.00668 0.92855 0.40817 0.0
O171 O 0.96104 0.9183 0.41687 0.0
C172 C 0.84485 0.00907 0.40951 0.0
C173 C 0.85355 0.0305 0.41854 0.0
H174 H 0.87844 0.06751 0.43619 0.0
H175 H 0.92802 0.05758 0.44673 0.0
H176 H 0.87209 0.92011 0.38901 0.0
H177 H 0.83625 0.9637 0.39252 0.0
H178 H 0.82393 0.01285 0.40434 0.0
H179 H 0.83918 0.05043 0.42019 0.0
Mn180 Mn 0.28939 0.74009 0.65938 0.0
Mn181 Mn 0.30638 0.67402 0.67412 0.0
C182 C 0.28216 0.69296 0.65002 0.0
C183 C 0.25589 0.7792 0.65363 0.0
C184 C 0.35478 0.71536 0.66315 0.0
O185 O 0.2904 0.75397 0.67714 0.0
O186 O 0.30246 0.70852 0.6859 0.0
C187 C 0.24757 0.66698 0.68749 0.0
N188 N 0.26884 0.65562 0.67954 0.0
C189 C 0.23957 0.60916 0.67673 0.0
C190 C 0.21745 0.6203 0.68493 0.0
C191 C 0.22145 0.64935 0.69031 0.0
C192 C 0.26518 0.62771 0.67429 0.0
H193 H 0.25048 0.68934 0.69161 0.0
C194 C 0.29645 0.73738 0.68646 0.0
O195 O 0.28549 0.78308 0.65344 0.0
O196 O 0.24571 0.75301 0.65764 0.0
N197 N 0.31033 0.63879 0.66375 0.0
C198 C 0.33313 0.63196 0.65566 0.0
C199 C 0.33227 0.6039 0.64931 0.0
C200 C 0.30809 0.58312 0.6514 0.0
C201 C 0.28504 0.59053 0.65986 0.0
C202 C 0.28726 0.61871 0.66599 0.0
H203 H 0.35172 0.64788 0.65399 0.0
O204 O 0.28605 0.71752 0.64347 0.0
O205 O 0.28317 0.69669 0.66175 0.0
O206 O 0.33612 0.73579 0.65933 0.0
O207 O 0.34624 0.69089 0.66863 0.0
C208 C 0.25972 0.57127 0.66232 0.0
C209 C 0.23697 0.58061 0.67072 0.0
H210 H 0.19719 0.60683 0.68709 0.0
H211 H 0.20441 0.65816 0.69661 0.0
H212 H 0.35013 0.59836 0.64279 0.0
H213 H 0.30734 0.56163 0.6464 0.0
H214 H 0.25731 0.54941 0.65767 0.0
H215 H 0.2174 0.56578 0.67241 0.0
Mn216 Mn 0.52454 0.02192 0.90886 0.0
Mn217 Mn 0.59198 0.04172 0.92191 0.0
C218 C 0.57065 0.01311 0.89896 0.0
C219 C 0.4853 0.98722 0.90462 0.0
C220 C 0.54864 0.088 0.91069 0.0
O221 O 0.51277 0.02573 0.92679 0.0
O222 O 0.55911 0.03919 0.93451 0.0
C223 C 0.60191 0.98532 0.93654 0.0
N224 N 0.61166 0.00526 0.92777 0.0
C225 C 0.65737 0.97532 0.9242 0.0
C226 C 0.64789 0.95456 0.93325 0.0
C227 C 0.62003 0.95959 0.93944 0.0
C228 C 0.63849 0.0007 0.92178 0.0
H229 H 0.58041 0.98895 0.94127 0.0
C230 C 0.53035 0.0331 0.93568 0.0
O231 O 0.48102 0.01669 0.90378 0.0
O232 O 0.51198 0.97796 0.90848 0.0
N233 N 0.62545 0.04429 0.91059 0.0
C234 C 0.63048 0.06555 0.90167 0.0
C235 C 0.65702 0.06337 0.89441 0.0
C236 C 0.67809 0.03938 0.8964 0.0
C237 C 0.6725 0.01787 0.90567 0.0
C238 C 0.64584 0.02143 0.91271 0.0
H239 H 0.61423 0.08389 0.90005 0.0
O240 O 0.54545 0.01603 0.89271 0.0
O241 O 0.56805 0.01639 0.91067 0.0
O242 O 0.52824 0.06852 0.90756 0.0
O243 O 0.57379 0.08058 0.91594 0.0
C244 C 0.69203 0.9927 0.90805 0.0
C245 C 0.68447 0.97144 0.9173 0.0
H246 H 0.66167 0.93455 0.93544 0.0
H247 H 0.61248 0.94359 0.94639 0.0
H248 H 0.66112 0.08001 0.88725 0.0
H249 H 0.69835 0.03755 0.89068 0.0
H250 H 0.71272 0.98926 0.9027 0.0
H251 H 0.69946 0.95197 0.91894 0.0
Mn252 Mn 0.24506 0.25306 0.15891 0.0
Mn253 Mn 0.22732 0.32112 0.17193 0.0
C254 C 0.2548 0.29878 0.14888 0.0
C255 C 0.27865 0.21286 0.15465 0.0
C256 C 0.17978 0.27938 0.16063 0.0
O257 O 0.24115 0.24145 0.17684 0.0
O258 O 0.22854 0.28806 0.18448 0.0
C259 C 0.28396 0.32875 0.18665 0.0
N260 N 0.2644 0.3394 0.1779 0.0
C261 C 0.29584 0.3842 0.17457 0.0
C262 C 0.31621 0.37379 0.1836 0.0
C263 C 0.31024 0.34594 0.18965 0.0
C264 C 0.26989 0.36621 0.17203 0.0
H265 H 0.27959 0.30726 0.19127 0.0
C266 C 0.23397 0.2592 0.18569 0.0
O267 O 0.24906 0.20936 0.15386 0.0
O268 O 0.28864 0.23931 0.15847 0.0
N269 N 0.22599 0.35492 0.16074 0.0
C270 C 0.20484 0.36102 0.15188 0.0
C271 C 0.20786 0.38776 0.14478 0.0
C272 C 0.23253 0.40795 0.14688 0.0
C273 C 0.25386 0.40132 0.15611 0.0
C274 C 0.24947 0.37451 0.16299 0.0
H275 H 0.18598 0.34545 0.15017 0.0
O276 O 0.25121 0.27355 0.14271 0.0
O277 O 0.25187 0.29649 0.16063 0.0
O278 O 0.19854 0.25814 0.15768 0.0
O279 O 0.188 0.30438 0.16581 0.0
C280 C 0.27962 0.41996 0.15861 0.0
C281 C 0.3006 0.4114 0.16783 0.0
H282 H 0.33663 0.38687 0.18588 0.0
H283 H 0.32593 0.33768 0.19659 0.0
H284 H 0.19134 0.39268 0.13766 0.0
H285 H 0.235 0.42836 0.14129 0.0
H286 H 0.28371 0.44073 0.15339 0.0
H287 H 0.32051 0.42573 0.16957 0.0
Mn288 Mn 0.7909 0.24263 0.15805 0.0
Mn289 Mn 0.81093 0.176 0.1717 0.0
C290 C 0.78075 0.19592 0.14883 0.0
C291 C 0.75653 0.28214 0.15379 0.0
C292 C 0.85677 0.21764 0.15927 0.0
O293 O 0.79632 0.25577 0.17575 0.0
O294 O 0.81008 0.20996 0.18386 0.0
C295 C 0.7557 0.16833 0.18723 0.0
N296 N 0.77473 0.15745 0.17834 0.0
C297 C 0.74389 0.11188 0.17589 0.0
C298 C 0.72407 0.12252 0.18507 0.0
C299 C 0.73001 0.15087 0.19075 0.0
C300 C 0.76928 0.13015 0.17283 0.0
H301 H 0.76003 0.19019 0.19157 0.0
C302 C 0.80441 0.23886 0.18474 0.0
O303 O 0.78598 0.28582 0.15252 0.0
O304 O 0.74713 0.25591 0.15806 0.0
N305 N 0.81201 0.14149 0.16085 0.0
C306 C 0.83246 0.13527 0.15175 0.0
C307 C 0.82931 0.10807 0.14495 0.0
C308 C 0.80523 0.08756 0.14758 0.0
C309 C 0.7846 0.09436 0.15704 0.0
C310 C 0.7891 0.12164 0.1636 0.0
H311 H 0.85088 0.15106 0.14963 0.0
O312 O 0.78344 0.2206 0.14225 0.0
O313 O 0.78492 0.19933 0.16047 0.0
O314 O 0.8373 0.23809 0.15619 0.0
O315 O 0.84948 0.19302 0.16493 0.0
C316 C 0.75941 0.07544 0.16006 0.0
C317 C 0.73906 0.08419 0.16948 0.0
H318 H 0.70409 0.10925 0.18775 0.0
H319 H 0.71473 0.15931 0.1978 0.0
H320 H 0.84528 0.10301 0.13764 0.0
H321 H 0.80265 0.06679 0.14221 0.0
H322 H 0.75524 0.0543 0.1551 0.0
H323 H 0.71956 0.06964 0.17162 0.0
Mn324 Mn 0.74462 0.75343 0.65812 0.0
Mn325 Mn 0.72532 0.82083 0.67132 0.0
C326 C 0.75313 0.79958 0.64821 0.0
C327 C 0.77941 0.71434 0.65374 0.0
C328 C 0.67863 0.77768 0.66026 0.0
O329 O 0.74127 0.74156 0.67605 0.0
O330 O 0.72808 0.78786 0.68386 0.0
C331 C 0.78219 0.83042 0.6857 0.0
N332 N 0.76202 0.84033 0.67704 0.0
C333 C 0.79203 0.88595 0.67339 0.0
C334 C 0.81302 0.8763 0.68233 0.0
C335 C 0.80807 0.84841 0.6885 0.0
C336 C 0.7665 0.86719 0.67107 0.0
H337 H 0.77862 0.8089 0.69041 0.0
C338 C 0.73412 0.75909 0.68498 0.0
O339 O 0.74993 0.70993 0.65297 0.0
O340 O 0.78859 0.74103 0.65759 0.0
N341 N 0.72253 0.85441 0.66007 0.0
C342 C 0.70099 0.85962 0.65127 0.0
C343 C 0.70303 0.88624 0.64405 0.0
C344 C 0.72717 0.9072 0.64595 0.0
C345 C 0.74896 0.90142 0.6551 0.0
C346 C 0.74553 0.8747 0.66211 0.0
H347 H 0.68254 0.84346 0.64971 0.0
O348 O 0.75007 0.7744 0.64196 0.0
O349 O 0.75021 0.79693 0.65993 0.0
O350 O 0.69793 0.75719 0.65703 0.0
O351 O 0.68629 0.80278 0.66549 0.0
C352 C 0.77427 0.92083 0.65739 0.0
C353 C 0.79579 0.9131 0.66652 0.0
H354 H 0.83315 0.88999 0.68444 0.0
H355 H 0.82426 0.84074 0.69536 0.0
H356 H 0.68618 0.89049 0.63698 0.0
H357 H 0.72888 0.92751 0.64026 0.0
H358 H 0.77761 0.94157 0.65206 0.0
H359 H 0.81536 0.92801 0.66809 0.0
Mn360 Mn 0.74622 0.24244 0.33615 0.0
Mn361 Mn 0.72962 0.17464 0.3227 0.0
C362 C 0.75459 0.19646 0.34623 0.0
C363 C 0.77974 0.28216 0.34115 0.0
C364 C 0.681 0.21687 0.33303 0.0
O365 O 0.74454 0.25423 0.31816 0.0
O366 O 0.73313 0.20763 0.31021 0.0
C367 C 0.78812 0.16611 0.30926 0.0
N368 N 0.76724 0.15581 0.31758 0.0
C369 C 0.79765 0.11071 0.3217 0.0
C370 C 0.81938 0.12076 0.31312 0.0
C371 C 0.81459 0.14858 0.30688 0.0
C372 C 0.77158 0.12902 0.32361 0.0
H373 H 0.78467 0.18758 0.3045 0.0
C374 C 0.73878 0.23649 0.30914 0.0
O375 O 0.75014 0.28603 0.34139 0.0
O376 O 0.78984 0.25569 0.33741 0.0
N377 N 0.7263 0.14099 0.33391 0.0
C378 C 0.70397 0.13537 0.34235 0.0
C379 C 0.70573 0.10876 0.34958 0.0
C380 C 0.73039 0.08822 0.34806 0.0
C381 C 0.753 0.09441 0.33927 0.0
C382 C 0.74983 0.12111 0.33222 0.0
H383 H 0.68511 0.1512 0.34363 0.0
O384 O 0.75039 0.22159 0.3524 0.0
O385 O 0.75285 0.19904 0.33447 0.0
O386 O 0.69955 0.23778 0.33651 0.0
O387 O 0.68967 0.19193 0.32792 0.0
C388 C 0.77885 0.07545 0.33738 0.0
C389 C 0.80117 0.0836 0.32861 0.0
H390 H 0.83994 0.10743 0.31132 0.0
H391 H 0.83133 0.15656 0.30029 0.0
H392 H 0.68824 0.10419 0.35638 0.0
H393 H 0.73187 0.06791 0.35376 0.0
H394 H 0.782 0.05474 0.34275 0.0
H395 H 0.82114 0.06904 0.32735 0.0
Mn396 Mn 0.79084 0.75394 0.83655 0.0
Mn397 Mn 0.80791 0.82205 0.82344 0.0
C398 C 0.78126 0.79968 0.84662 0.0
C399 C 0.75736 0.71377 0.84096 0.0
C400 C 0.856 0.78024 0.83437 0.0
O401 O 0.79419 0.74238 0.8186 0.0
O402 O 0.80592 0.78913 0.81086 0.0
C403 C 0.75049 0.82996 0.80924 0.0
N404 N 0.77055 0.84048 0.81783 0.0
C405 C 0.73935 0.88526 0.82153 0.0
C406 C 0.71846 0.87499 0.81267 0.0
C407 C 0.72406 0.84721 0.80651 0.0
C408 C 0.76542 0.86722 0.8238 0.0
H409 H 0.75456 0.80852 0.80453 0.0
C410 C 0.80065 0.76022 0.80969 0.0
O411 O 0.78697 0.71022 0.84162 0.0
O412 O 0.74729 0.74021 0.83719 0.0
N413 N 0.8099 0.85569 0.83469 0.0
C414 C 0.83151 0.8616 0.8434 0.0
C415 C 0.82891 0.88825 0.85057 0.0
C416 C 0.80419 0.90853 0.84872 0.0
C417 C 0.78236 0.90206 0.83966 0.0
C418 C 0.78634 0.87535 0.83269 0.0
H419 H 0.85043 0.84598 0.84492 0.0
O420 O 0.78509 0.77448 0.85279 0.0
O421 O 0.78393 0.79732 0.83487 0.0
O422 O 0.83738 0.75909 0.83754 0.0
O423 O 0.84754 0.80515 0.82919 0.0
C424 C 0.7565 0.92078 0.83742 0.0
C425 C 0.735 0.91237 0.82837 0.0
H426 H 0.69793 0.88811 0.8106 0.0
H427 H 0.70796 0.83905 0.7997 0.0
H428 H 0.84581 0.89303 0.85757 0.0
H429 H 0.80206 0.92886 0.85438 0.0
H430 H 0.75272 0.94148 0.84272 0.0
H431 H 0.71501 0.92674 0.82684 0.0
Mn432 Mn 0.51096 0.51927 0.08574 0.0
Mn433 Mn 0.44505 0.53567 0.07086 0.0
C434 C 0.46385 0.51068 0.09486 0.0
C435 C 0.5503 0.48589 0.09131 0.0
C436 C 0.48565 0.58438 0.08212 0.0
O437 O 0.52503 0.52131 0.06807 0.0
O438 O 0.47962 0.53226 0.059 0.0
C439 C 0.43834 0.47716 0.05728 0.0
N440 N 0.42696 0.49802 0.06539 0.0
C441 C 0.38156 0.46742 0.06867 0.0
C442 C 0.39271 0.44572 0.0603 0.0
C443 C 0.42123 0.45062 0.05459 0.0
C444 C 0.39948 0.49359 0.07091 0.0
H445 H 0.46036 0.48068 0.05294 0.0
C446 C 0.50865 0.52684 0.05863 0.0
O447 O 0.55391 0.51551 0.09178 0.0
O448 O 0.52428 0.47572 0.08713 0.0
N449 N 0.41004 0.53891 0.0814 0.0
C450 C 0.40338 0.56116 0.08976 0.0
C451 C 0.37599 0.55925 0.09652 0.0
C452 C 0.35576 0.5345 0.09462 0.0
C453 C 0.36303 0.51197 0.08593 0.0
C454 C 0.39047 0.5153 0.07936 0.0
H455 H 0.41899 0.58007 0.09133 0.0
O456 O 0.48816 0.51484 0.10154 0.0
O457 O 0.46788 0.51247 0.08316 0.0
O458 O 0.50602 0.56588 0.08611 0.0
O459 O 0.46157 0.57567 0.07641 0.0
C460 C 0.34445 0.48602 0.08372 0.0
C461 C 0.3537 0.46376 0.07509 0.0
H462 H 0.37971 0.42508 0.05828 0.0
H463 H 0.43007 0.43389 0.04816 0.0
H464 H 0.3706 0.57667 0.10324 0.0
H465 H 0.33485 0.5329 0.09997 0.0
H466 H 0.32319 0.48274 0.08872 0.0
H467 H 0.3394 0.44371 0.07359 0.0
Mn468 Mn 0.02737 0.47596 0.58764 0.0
Mn469 Mn 0.09388 0.45595 0.57383 0.0
C470 C 0.07402 0.48266 0.5974 0.0
C471 C 0.98874 0.51082 0.59255 0.0
C472 C 0.05029 0.40964 0.58485 0.0
O473 O 0.01474 0.47395 0.56975 0.0
O474 O 0.06043 0.46018 0.56158 0.0
C475 C 0.10397 0.5135 0.55992 0.0
N476 N 0.11395 0.49248 0.56825 0.0
C477 C 0.16102 0.52053 0.57142 0.0
C478 C 0.15131 0.54238 0.56283 0.0
C479 C 0.12265 0.53886 0.55707 0.0
C480 C 0.14148 0.49566 0.57385 0.0
H481 H 0.08191 0.51098 0.55551 0.0
C482 C 0.03179 0.46693 0.56066 0.0
O483 O 0.98413 0.48136 0.59302 0.0
O484 O 0.01546 0.52008 0.58872 0.0
N485 N 0.12809 0.45162 0.5847 0.0
C486 C 0.13344 0.42927 0.59315 0.0
C487 C 0.16089 0.4298 0.59991 0.0
C488 C 0.18258 0.45319 0.59787 0.0
C489 C 0.17668 0.47579 0.58904 0.0
C490 C 0.14905 0.47392 0.58251 0.0
H491 H 0.1168 0.4113 0.59479 0.0
O492 O 0.04893 0.47994 0.60373 0.0
O493 O 0.07104 0.48078 0.58565 0.0
O494 O 0.03031 0.4292 0.5883 0.0
O495 O 0.0753 0.41701 0.57949 0.0
C496 C 0.1969 0.50037 0.58661 0.0
C497 C 0.18905 0.52275 0.57782 0.0
H498 H 0.16557 0.56206 0.56065 0.0
H499 H 0.11494 0.5557 0.55047 0.0
H500 H 0.16525 0.4123 0.60672 0.0
H501 H 0.20358 0.4537 0.60319 0.0
H502 H 0.21836 0.50251 0.59156 0.0
H503 H 0.2046 0.54176 0.57615 0.0
Mn504 Mn 0.51219 0.47651 0.90896 0.0
Mn505 Mn 0.44593 0.46048 0.92367 0.0
C506 C 0.46529 0.48554 0.89974 0.0
C507 C 0.55199 0.50953 0.90358 0.0
C508 C 0.48623 0.41159 0.91236 0.0
O509 O 0.526 0.47411 0.92666 0.0
O510 O 0.48039 0.46338 0.9356 0.0
C511 C 0.43965 0.51886 0.93737 0.0
N512 N 0.42815 0.49821 0.92921 0.0
C513 C 0.38298 0.5292 0.92599 0.0
C514 C 0.39427 0.55069 0.93441 0.0
C515 C 0.42274 0.54549 0.94013 0.0
C516 C 0.40073 0.50294 0.92369 0.0
H517 H 0.46163 0.5151 0.94172 0.0
C518 C 0.50946 0.46856 0.93604 0.0
O519 O 0.55527 0.47989 0.90305 0.0
O520 O 0.52599 0.51995 0.90769 0.0
N521 N 0.41096 0.45768 0.9131 0.0
C522 C 0.4041 0.43555 0.90472 0.0
C523 C 0.37671 0.43773 0.89798 0.0
C524 C 0.35668 0.46262 0.89992 0.0
C525 C 0.36414 0.48501 0.90864 0.0
C526 C 0.39157 0.48142 0.91519 0.0
H527 H 0.41955 0.41653 0.90312 0.0
O528 O 0.4897 0.48133 0.89312 0.0
O529 O 0.4691 0.48365 0.91146 0.0
O530 O 0.50682 0.42998 0.90848 0.0
O531 O 0.46214 0.42041 0.91805 0.0
C532 C 0.34573 0.51107 0.91091 0.0
C533 C 0.35515 0.53315 0.91958 0.0
H534 H 0.38142 0.57139 0.93649 0.0
H535 H 0.43168 0.56205 0.94659 0.0
H536 H 0.37117 0.42041 0.89124 0.0
H537 H 0.33577 0.46443 0.89459 0.0
H538 H 0.32449 0.51455 0.90593 0.0
H539 H 0.34099 0.55327 0.92113 0.0
Mn540 Mn 0.02228 0.52048 0.40917 0.0
Mn541 Mn 0.09008 0.53962 0.42209 0.0
C542 C 0.06822 0.51065 0.39928 0.0
C543 C 0.98237 0.48638 0.40511 0.0
C544 C 0.04746 0.58622 0.41066 0.0
O545 O 0.01063 0.52504 0.42709 0.0
O546 O 0.05722 0.53795 0.43471 0.0
C547 C 0.09916 0.48344 0.43695 0.0
N548 N 0.10923 0.50303 0.42811 0.0
C549 C 0.15458 0.47242 0.42471 0.0
C550 C 0.14477 0.45202 0.43383 0.0
C551 C 0.11693 0.45756 0.43997 0.0
C552 C 0.13603 0.49796 0.42217 0.0
H553 H 0.07768 0.48748 0.44164 0.0
C554 C 0.02837 0.53239 0.43593 0.0
O555 O 0.97865 0.5159 0.40414 0.0
O556 O 0.00889 0.47674 0.40899 0.0
N557 N 0.1236 0.54139 0.41077 0.0
C558 C 0.129 0.5624 0.40179 0.0
C559 C 0.15559 0.55973 0.39459 0.0
C560 C 0.17635 0.53553 0.39669 0.0
C561 C 0.1704 0.51431 0.40604 0.0
C562 C 0.1437 0.51835 0.41302 0.0
H563 H 0.11301 0.58091 0.40008 0.0
O564 O 0.04303 0.51373 0.39303 0.0
O565 O 0.06573 0.5143 0.41097 0.0
O566 O 0.02678 0.56696 0.40763 0.0
O567 O 0.07248 0.57858 0.41596 0.0
C568 C 0.1896 0.48898 0.40855 0.0
C569 C 0.1817 0.46804 0.41787 0.0
H570 H 0.15828 0.4319 0.43613 0.0
H571 H 0.10913 0.44185 0.44698 0.0
H572 H 0.15998 0.57616 0.38737 0.0
H573 H 0.19665 0.53333 0.39102 0.0
H574 H 0.21031 0.48516 0.40326 0.0
H575 H 0.19644 0.44844 0.41961 0.0
C576 C 0.02201 0.13083 0.58954 0.0
C577 C 0.99208 0.11958 0.58762 0.0
C578 C 0.02731 0.16235 0.59072 0.0
C579 C 0.99152 0.23726 0.58323 0.0
H580 H 0.05774 0.26934 0.60327 0.0
C581 C 0.01329 0.36702 0.58927 0.0
C582 C 0.04357 0.37667 0.58685 0.0
C583 C 0.00644 0.33583 0.59052 0.0
C584 C 0.03923 0.26061 0.59762 0.0
H585 H 0.94406 0.13249 0.58602 0.0
H586 H 0.95313 0.18741 0.58853 0.0
H587 H 0.04582 0.21446 0.60384 0.0
H588 H 0.09057 0.36116 0.58424 0.0
H589 H 0.07855 0.30654 0.58661 0.0
H590 H 0.98476 0.28358 0.57717 0.0
C591 C 0.97268 0.17198 0.58872 0.0
C592 C 0.03244 0.2292 0.5979 0.0
C593 C 0.96743 0.14046 0.58736 0.0
C594 C 0.067 0.35447 0.58605 0.0
C595 C 0.06019 0.32325 0.58747 0.0
C596 C 0.99804 0.26868 0.5831 0.0
C597 C 0.00276 0.18338 0.59019 0.0
C598 C 0.00872 0.21706 0.59059 0.0
C599 C 0.02978 0.31367 0.58955 0.0
C600 C 0.02214 0.28057 0.59019 0.0
H601 H 0.04155 0.11537 0.58971 0.0
H602 H 0.05082 0.17022 0.59164 0.0
H603 H 0.97353 0.22875 0.57729 0.0
H604 H 0.99467 0.3835 0.58993 0.0
H605 H 0.98285 0.329 0.5922 0.0
C606 C 0.90047 0.74514 0.83827 0.0
C607 C 0.8892 0.77509 0.83645 0.0
C608 C 0.93196 0.73986 0.83957 0.0
C609 C 0.00725 0.7759 0.83287 0.0
H610 H 0.03819 0.70974 0.85322 0.0
C611 C 0.13657 0.75513 0.8402 0.0
C612 C 0.14663 0.72503 0.83768 0.0
C613 C 0.10527 0.76161 0.8413 0.0
C614 C 0.02979 0.72823 0.84749 0.0
H615 H 0.90206 0.82315 0.83501 0.0
H616 H 0.95696 0.8141 0.83769 0.0
H617 H 0.98322 0.72136 0.85315 0.0
H618 H 0.13172 0.67792 0.83486 0.0
H619 H 0.07687 0.68932 0.83697 0.0
H620 H 0.05397 0.78295 0.82737 0.0
C621 C 0.94155 0.79453 0.83775 0.0
C622 C -0.00167 0.73484 0.84739 0.0
C623 C 0.91005 0.79977 0.83628 0.0
C624 C 0.12471 0.70135 0.83674 0.0
C625 C 0.09337 0.70782 0.83801 0.0
C626 C 0.03871 0.76956 0.83311 0.0
C627 C 0.95295 0.76445 0.83924 0.0
C628 C 0.98661 0.75855 0.83997 0.0
C629 C 0.08339 0.73811 0.84008 0.0
C630 C 0.05021 0.7455 0.84032 0.0
H631 H 0.88504 0.72557 0.83836 0.0
H632 H 0.93985 0.71635 0.84048 0.0
H633 H -0.00091 0.79389 0.82685 0.0
H634 H 0.15281 0.77393 0.84097 0.0
H635 H 0.09813 0.78511 0.843 0.0
C636 C 0.46635 0.63871 0.08295 0.0
C637 C 0.49078 0.6177 0.08392 0.0
C638 C 0.47161 0.67025 0.08429 0.0
C639 C 0.53011 0.72687 0.09515 0.0
H640 H 0.48517 0.78255 0.07401 0.0
C641 C 0.565 0.85351 0.08574 0.0
C642 C 0.54118 0.87534 0.08639 0.0
C643 C 0.55843 0.82209 0.08655 0.0
C644 C 0.49769 0.76726 0.08004 0.0
H645 H 0.53989 0.6133 0.08704 0.0
H646 H 0.54922 0.66813 0.08892 0.0
H647 H 0.47423 0.72766 0.07326 0.0
H648 H 0.49186 0.88127 0.08858 0.0
H649 H 0.48052 0.82646 0.08979 0.0
H650 H 0.55435 0.76671 0.10155 0.0
C651 C 0.52583 0.66037 0.0875 0.0
C652 C 0.49133 0.73581 0.07967 0.0
C653 C 0.5205 0.62886 0.08635 0.0
C654 C 0.51077 0.8651 0.08807 0.0
C655 C 0.5042 0.83373 0.08869 0.0
C656 C 0.53677 0.75831 0.09538 0.0
C657 C 0.50149 0.68151 0.08644 0.0
C658 C 0.50751 0.71516 0.0872 0.0
C659 C 0.52792 0.81196 0.08784 0.0
C660 C 0.52063 0.77874 0.08782 0.0
H661 H 0.44314 0.63081 0.08119 0.0
H662 H 0.4522 0.68577 0.08365 0.0
H663 H 0.54264 0.71179 0.10124 0.0
H664 H 0.58866 0.86067 0.0845 0.0
H665 H 0.5771 0.80568 0.08581 0.0
C666 C 0.62662 0.1978 0.33418 0.0
C667 C 0.64767 0.22228 0.3347 0.0
C668 C 0.59508 0.20325 0.3354 0.0
C669 C 0.53846 0.26283 0.34523 0.0
H670 H 0.48276 0.21554 0.32493 0.0
C671 C 0.41143 0.29613 0.33568 0.0
C672 C 0.38974 0.27225 0.33663 0.0
C673 C 0.44291 0.28982 0.33652 0.0
C674 C 0.49805 0.22873 0.33073 0.0
H675 H 0.6521 0.2717 0.33691 0.0
H676 H 0.59725 0.2813 0.33859 0.0
H677 H 0.53769 0.20472 0.32427 0.0
H678 H 0.38414 0.22308 0.33938 0.0
H679 H 0.43903 0.21216 0.34066 0.0
H680 H 0.49858 0.28754 0.3513 0.0
C681 C 0.605 0.25776 0.33761 0.0
C682 C 0.52953 0.22245 0.33041 0.0
C683 C 0.63652 0.25227 0.33656 0.0
C684 C 0.40019 0.24204 0.33863 0.0
C685 C 0.43161 0.23571 0.3393 0.0
C686 C 0.50698 0.26938 0.34541 0.0
C687 C 0.58383 0.23335 0.33699 0.0
C688 C 0.55018 0.23945 0.33764 0.0
C689 C 0.45325 0.25948 0.33814 0.0
C690 C 0.48653 0.25238 0.33815 0.0
H691 H 0.63449 0.17439 0.33286 0.0
H692 H 0.57953 0.1838 0.33511 0.0
H693 H 0.55356 0.27604 0.35109 0.0
H694 H 0.40413 0.31965 0.33418 0.0
H695 H 0.45919 0.30852 0.33554 0.0
C696 C 0.96629 0.85576 0.4098 0.0
C697 C 0.9909 0.87668 0.40943 0.0
C698 C 0.97156 0.82425 0.40838 0.0
C699 C 0.03109 0.76744 0.39856 0.0
H700 H 0.98374 0.71208 0.419 0.0
C701 C 0.065 0.64114 0.40926 0.0
C702 C 0.04128 0.61923 0.40848 0.0
C703 C 0.05851 0.67248 0.40799 0.0
C704 C 0.99692 0.72726 0.41315 0.0
H705 H 0.04033 0.88096 0.40719 0.0
H706 H 0.04963 0.82615 0.40515 0.0
H707 H 0.97273 0.76694 0.41943 0.0
H708 H 0.99224 0.61308 0.4055 0.0
H709 H 0.98102 0.66774 0.40349 0.0
H710 H 0.05606 0.72751 0.39271 0.0
C711 C 0.02613 0.83398 0.40619 0.0
C712 C 0.99053 0.75871 0.41334 0.0
C713 C 0.02081 0.86547 0.40744 0.0
C714 C 0.01109 0.6293 0.40615 0.0
C715 C 0.00458 0.66059 0.40505 0.0
C716 C 0.03775 0.73599 0.39852 0.0
C717 C 0.00162 0.81291 0.40673 0.0
C718 C 0.00759 0.77925 0.40608 0.0
C719 C 0.02814 0.68247 0.4061 0.0
C720 C 0.02076 0.71566 0.40583 0.0
H721 H 0.94293 0.8637 0.41121 0.0
H722 H 0.95204 0.8088 0.4086 0.0
H723 H 0.04434 0.78245 0.39269 0.0
H724 H 0.08851 0.63413 0.41099 0.0
H725 H 0.07706 0.68897 0.4089 0.0
C726 C 0.39914 0.75049 0.65906 0.0
C727 C 0.38806 0.72068 0.66133 0.0
C728 C 0.43063 0.75588 0.6578 0.0
C729 C 0.50629 0.72104 0.66506 0.0
H730 H 0.53662 0.78469 0.64335 0.0
C731 C 0.63543 0.74088 0.65651 0.0
C732 C 0.64555 0.77124 0.65841 0.0
C733 C 0.60408 0.73425 0.65578 0.0
C734 C 0.52838 0.76692 0.64946 0.0
H735 H 0.40129 0.67295 0.66372 0.0
H736 H 0.45615 0.68213 0.6611 0.0
H737 H 0.48167 0.77309 0.64388 0.0
H738 H 0.63069 0.8186 0.66054 0.0
H739 H 0.57578 0.80694 0.65905 0.0
H740 H 0.55319 0.71462 0.67045 0.0
C741 C 0.44061 0.70156 0.66065 0.0
C742 C 0.49693 0.76033 0.64983 0.0
C743 C 0.40912 0.69624 0.66208 0.0
C744 C 0.62363 0.79497 0.65912 0.0
C745 C 0.59225 0.78836 0.65822 0.0
C746 C 0.53774 0.72733 0.66456 0.0
C747 C 0.45181 0.73151 0.65862 0.0
C748 C 0.48544 0.73751 0.65773 0.0
C749 C 0.58222 0.75787 0.65676 0.0
C750 C 0.54902 0.75049 0.65683 0.0
H751 H 0.38354 0.76988 0.65853 0.0
H752 H 0.43836 0.77932 0.65649 0.0
H753 H 0.49831 0.70376 0.67144 0.0
H754 H 0.65168 0.72204 0.65595 0.0
H755 H 0.59688 0.71059 0.65456 0.0
C756 C 0.46651 0.35743 0.9113 0.0
C757 C 0.49111 0.37828 0.91046 0.0
C758 C 0.47156 0.32588 0.90985 0.0
C759 C 0.53 0.26905 0.89904 0.0
H760 H 0.48468 0.21344 0.92008 0.0
C761 C 0.56555 0.14308 0.90926 0.0
C762 C 0.54199 0.12097 0.90867 0.0
C763 C 0.5587 0.17437 0.90813 0.0
C764 C 0.49728 0.2287 0.91407 0.0
H765 H 0.5403 0.38237 0.90748 0.0
H766 H 0.54927 0.32754 0.90543 0.0
H767 H 0.47361 0.2683 0.92074 0.0
H768 H 0.49283 0.11439 0.90622 0.0
H769 H 0.48097 0.169 0.90446 0.0
H770 H 0.55451 0.22924 0.89279 0.0
C771 C 0.5259 0.33544 0.90681 0.0
C772 C 0.49085 0.26014 0.91439 0.0
C773 C 0.52078 0.36695 0.90807 0.0
C774 C 0.51155 0.13078 0.90669 0.0
C775 C 0.50468 0.16204 0.90575 0.0
C776 C 0.53673 0.23763 0.89887 0.0
C777 C 0.5014 0.31445 0.90773 0.0
C778 C 0.50723 0.28078 0.90693 0.0
C779 C 0.52813 0.1841 0.90658 0.0
C780 C 0.52049 0.21723 0.90641 0.0
H781 H 0.44333 0.36547 0.91303 0.0
H782 H 0.45203 0.31048 0.9104 0.0
H783 H 0.54267 0.28413 0.89299 0.0
H784 H 0.58923 0.13625 0.91073 0.0
H785 H 0.57715 0.19101 0.90886 0.0
C786 C 0.13546 0.24425 0.15652 0.0
C787 C 0.1467 0.27424 0.15828 0.0
C788 C 0.10403 0.239 0.155 0.0
C789 C 0.02861 0.27546 0.16102 0.0
H790 H -0.00176 0.2082 0.1411 0.0
C791 C 0.89948 0.25369 0.15388 0.0
C792 C 0.88965 0.22371 0.15675 0.0
C793 C 0.93071 0.26026 0.15259 0.0
C794 C 0.00649 0.22702 0.1467 0.0
H795 H 0.1339 0.32238 0.15932 0.0
H796 H 0.07914 0.31337 0.15623 0.0
H797 H 0.0532 0.21996 0.14126 0.0
H798 H 0.90488 0.17685 0.15993 0.0
H799 H 0.95961 0.18841 0.15751 0.0
H800 H 0.98177 0.28266 0.16632 0.0
C801 C 0.09449 0.29376 0.15641 0.0
C802 C 0.03793 0.23371 0.14685 0.0
C803 C 0.12591 0.29897 0.15812 0.0
C804 C 0.91171 0.2002 0.1578 0.0
C805 C 0.94299 0.20674 0.15634 0.0
C806 C 0.99718 0.26904 0.16073 0.0
C807 C 0.08309 0.26365 0.15502 0.0
C808 C 0.04944 0.25779 0.15414 0.0
C809 C 0.95275 0.23696 0.15398 0.0
C810 C 0.98589 0.24457 0.15368 0.0
H811 H 0.15084 0.22465 0.15669 0.0
H812 H 0.09614 0.21547 0.15417 0.0
H813 H 0.03659 0.29374 0.16694 0.0
H814 H 0.88314 0.27237 0.15301 0.0
H815 H 0.93769 0.28369 0.15067 0.0
C816 C 0.00473 0.95013 0.45787 0.0
C817 C 0.01945 0.96659 0.44852 0.0
C818 C 0.0116 0.95608 0.47005 0.0
C819 C 0.00692 0.99671 0.492 0.0
H820 H 0.08467 0.00868 0.50871 0.0
C821 C 0.00665 0.05026 0.5388 0.0
C822 C 0.02077 0.03234 0.54787 0.0
C823 C 0.01342 0.04539 0.52653 0.0
C824 C 0.06287 0.00544 0.50411 0.0
H825 H 0.05489 0.00023 0.44453 0.0
H826 H 0.06668 0.01098 0.46601 0.0
H827 H 0.08423 0.98997 0.48747 0.0
H828 H 0.05506 0.99719 0.55132 0.0
H829 H 0.06653 0.98821 0.52969 0.0
H830 H 0.98533 0.01178 0.5084 0.0
C831 C 0.04995 0.99335 0.46384 0.0
C832 C 0.06262 0.99485 0.492 0.0
C833 C 0.04318 0.98721 0.45157 0.0
C834 C 0.04384 0.01132 0.54449 0.0
C835 C 0.05043 0.00621 0.53213 0.0
C836 C 0.00717 0.00747 0.50394 0.0
C837 C 0.03315 0.97882 0.47317 0.0
C838 C 0.03454 0.99008 0.48591 0.0
C839 C 0.03417 0.02223 0.52304 0.0
C840 C 0.03506 0.01198 0.51015 0.0
H841 H 0.98671 0.93372 0.45579 0.0
H842 H -0.00123 0.94409 0.47707 0.0
H843 H 0.98494 0.99374 0.48748 0.0
H844 H 0.98915 0.06699 0.54116 0.0
H845 H 0.00105 0.05856 0.51971 0.0
C846 C 0.25479 0.77549 0.79453 0.0
C847 C 0.23266 0.75381 0.79819 0.0
C848 C 0.2584 0.78265 0.78213 0.0
C849 C 0.24913 0.74158 0.75362 0.0
H850 H 0.27398 0.81744 0.73777 0.0
C851 C 0.27352 0.77484 0.7014 0.0
C852 C 0.29426 0.75086 0.69881 0.0
C853 C 0.26666 0.78244 0.71355 0.0
C854 C 0.2669 0.79622 0.74212 0.0
H855 H 0.19468 0.72542 0.79209 0.0
H856 H 0.20043 0.73845 0.7706 0.0
H857 H 0.25653 0.81841 0.7592 0.0
H858 H 0.32653 0.71849 0.70676 0.0
H859 H 0.31462 0.73177 0.72779 0.0
H860 H 0.25994 0.7192 0.73683 0.0
C861 C 0.21561 0.74922 0.77718 0.0
C862 C 0.25706 0.79673 0.75433 0.0
C863 C 0.21229 0.7418 0.78948 0.0
C864 C 0.31005 0.73669 0.70847 0.0
C865 C 0.30329 0.74429 0.72051 0.0
C866 C 0.25919 0.74105 0.74158 0.0
C867 C 0.23973 0.76839 0.7733 0.0
C868 C 0.24816 0.76931 0.76019 0.0
C869 C 0.28055 0.76618 0.72317 0.0
C870 C 0.26855 0.7682 0.73576 0.0
H871 H 0.27079 0.78506 0.80109 0.0
H872 H 0.27722 0.79747 0.77941 0.0
H873 H 0.24299 0.71997 0.7579 0.0
H874 H 0.26102 0.78615 0.69412 0.0
H875 H 0.249 0.79939 0.71541 0.0
C876 C 0.53368 0.95094 0.03859 0.0
C877 C 0.51824 0.9671 0.04785 0.0
C878 C 0.52736 0.9569 0.02637 0.0
C879 C 0.53211 0.99693 0.00425 0.0
H880 H 0.45453 0.00832 0.98735 0.0
C881 C 0.53239 0.05014 0.95732 0.0
C882 C 0.51812 0.03236 0.94824 0.0
C883 C 0.52583 0.04508 0.9696 0.0
C884 C 0.47629 0.00522 0.992 0.0
H885 H 0.48221 0.0003 0.05158 0.0
H886 H 0.47141 0.01108 0.03002 0.0
H887 H 0.45477 0.99002 0.00864 0.0
H888 H 0.48383 0.99719 0.94481 0.0
H889 H 0.47273 0.9879 0.96644 0.0
H890 H 0.55385 0.01173 0.98785 0.0
C891 C 0.48827 0.99367 0.03231 0.0
C892 C 0.47642 0.99488 0.00415 0.0
C893 C 0.49449 0.98753 0.04463 0.0
C894 C 0.49518 0.01121 0.95163 0.0
C895 C 0.48879 0.00593 0.964 0.0
C896 C 0.53198 0.00743 0.99227 0.0
C897 C 0.50565 0.97935 0.0231 0.0
C898 C 0.50443 0.99035 0.01031 0.0
C899 C 0.50513 0.02189 0.97309 0.0
C900 C 0.50415 0.01173 0.986 0.0
H901 H 0.55172 0.93466 0.04079 0.0
H902 H 0.54063 0.94503 0.01944 0.0
H903 H 0.55404 0.99414 0.00882 0.0
H904 H 0.54978 0.06698 0.95496 0.0
H905 H 0.53825 0.05821 0.97641 0.0
C906 C 0.21628 0.26146 0.20725 0.0
C907 C 0.23422 0.24701 0.19826 0.0
C908 C 0.22096 0.25497 0.21955 0.0
C909 C 0.26039 0.20551 0.24216 0.0
H910 H 0.27104 0.28337 0.25893 0.0
C911 C 0.31451 0.26338 0.28867 0.0
C912 C 0.29842 0.24799 0.29796 0.0
C913 C 0.30852 0.25693 0.27646 0.0
C914 C 0.26836 0.26141 0.25438 0.0
H915 H 0.26928 0.21251 0.19502 0.0
H916 H 0.27795 0.20154 0.2167 0.0
H917 H 0.25363 0.28301 0.23794 0.0
H918 H 0.26533 0.21192 0.30177 0.0
H919 H 0.2545 0.20087 0.28023 0.0
H920 H 0.27559 0.18413 0.25883 0.0
C921 C 0.26006 0.21767 0.21416 0.0
C922 C 0.25795 0.26117 0.24239 0.0
C923 C 0.25514 0.22398 0.20177 0.0
C924 C 0.27805 0.22415 0.29479 0.0
C925 C 0.27187 0.21781 0.28248 0.0
C926 C 0.27065 0.20574 0.25431 0.0
C927 C 0.24396 0.23418 0.22317 0.0
C928 C 0.25383 0.2333 0.23612 0.0
C929 C 0.2861 0.23514 0.27324 0.0
C930 C 0.27505 0.23379 0.26046 0.0
H931 H 0.19961 0.27894 0.20479 0.0
H932 H 0.2077 0.26751 0.22629 0.0
H933 H 0.25743 0.1837 0.23752 0.0
H934 H 0.33074 0.2815 0.29084 0.0
H935 H 0.32031 0.27017 0.2695 0.0
C936 C 0.78298 0.27389 0.20078 0.0
C937 C 0.80501 0.2521 0.19713 0.0
C938 C 0.77892 0.28061 0.21319 0.0
C939 C 0.78672 0.23842 0.24156 0.0
H940 H 0.76183 0.31399 0.2576 0.0
C941 C 0.76066 0.27342 0.29374 0.0
C942 C 0.74107 0.24865 0.29657 0.0
C943 C 0.76761 0.2803 0.28154 0.0
C944 C 0.76888 0.29282 0.2532 0.0
H945 H 0.84242 0.22306 0.2033 0.0
H946 H 0.83593 0.23534 0.22482 0.0
H947 H 0.77993 0.31543 0.23628 0.0
H948 H 0.71092 0.21389 0.28889 0.0
H949 H 0.72287 0.22601 0.26776 0.0
H950 H 0.77546 0.21564 0.25821 0.0
C951 C 0.82114 0.24653 0.21821 0.0
C952 C 0.77911 0.29361 0.24104 0.0
C953 C 0.82492 0.23955 0.2059 0.0
C954 C 0.72653 0.23275 0.28702 0.0
C955 C 0.73337 0.23965 0.27492 0.0
C956 C 0.77632 0.23761 0.25354 0.0
C957 C 0.79705 0.26579 0.22205 0.0
C958 C 0.78808 0.26632 0.23512 0.0
C959 C 0.75499 0.26253 0.27207 0.0
C960 C 0.76693 0.26466 0.25945 0.0
H961 H 0.76732 0.28386 0.19418 0.0
H962 H 0.76015 0.29552 0.21588 0.0
H963 H 0.79291 0.2169 0.23721 0.0
H964 H 0.77218 0.28609 0.30092 0.0
H965 H 0.78435 0.29807 0.27956 0.0
C966 C 0.71717 0.76084 0.70663 0.0
C967 C 0.73502 0.74677 0.69753 0.0
C968 C 0.72236 0.75429 0.71889 0.0
C969 C 0.76268 0.70515 0.74127 0.0
H970 H 0.77355 0.78307 0.75798 0.0
C971 C 0.8161 0.76337 0.78788 0.0
C972 C 0.79969 0.7481 0.7971 0.0
C973 C 0.81056 0.75673 0.77564 0.0
C974 C 0.77084 0.7611 0.75344 0.0
H975 H 0.77046 0.71281 0.69403 0.0
H976 H 0.77999 0.7017 0.71565 0.0
H977 H 0.75594 0.78264 0.73701 0.0
H978 H 0.76656 0.71199 0.80081 0.0
H979 H 0.75649 0.70064 0.77924 0.0
H980 H 0.77793 0.68382 0.75794 0.0
C981 C 0.76181 0.71761 0.71323 0.0
C982 C 0.76032 0.76083 0.74147 0.0
C983 C 0.75639 0.724 0.70087 0.0
C984 C 0.77952 0.72414 0.79387 0.0
C985 C 0.77379 0.71761 0.78155 0.0
C986 C 0.77303 0.70542 0.75341 0.0
C987 C 0.74577 0.73379 0.72234 0.0
C988 C 0.75607 0.73294 0.73523 0.0
C989 C 0.78828 0.73487 0.77235 0.0
C990 C 0.77747 0.73349 0.75954 0.0
H991 H 0.70017 0.7781 0.7043 0.0
H992 H 0.70918 0.76658 0.72573 0.0
H993 H 0.75963 0.68335 0.73665 0.0
H994 H 0.83219 0.78158 0.79009 0.0
H995 H 0.82255 0.76992 0.76872 0.0
C996 C 0.50993 0.45483 0.95814 0.0
C997 C 0.5238 0.47003 0.94826 0.0
C998 C 0.5206 0.45945 0.97 0.0
C999 C 0.5534 0.46615 0.99428 0.0
H1000 H 0.55301 0.55275 0.00277 0.0
C1001 C 0.54879 0.50605 0.04438 0.0
C1002 C 0.52315 0.52509 0.04645 0.0
C1003 C 0.55936 0.50087 0.03248 0.0
C1004 C 0.55367 0.52849 0.00053 0.0
H1005 H 0.56071 0.50085 0.94297 0.0
H1006 H 0.57906 0.5094 0.96385 0.0
H1007 H 0.55295 0.53749 0.98132 0.0
H1008 H 0.48992 0.55529 0.03783 0.0
H1009 H 0.50849 0.54655 0.01718 0.0
H1010 H 0.55218 0.45716 0.01348 0.0
C1011 C 0.56002 0.49378 0.96234 0.0
C1012 C 0.55388 0.51975 0.98825 0.0
C1013 C 0.5496 0.48878 0.95041 0.0
C1014 C 0.50959 0.54034 0.03651 0.0
C1015 C 0.52041 0.53554 0.02469 0.0
C1016 C 0.55344 0.47489 0.00655 0.0
C1017 C 0.54517 0.47965 0.97227 0.0
C1018 C 0.5524 0.4885 0.98502 0.0
C1019 C 0.54482 0.51509 0.0225 0.0
C1020 C 0.55223 0.50615 0.00978 0.0
H1021 H 0.49014 0.44009 0.95677 0.0
H1022 H 0.50844 0.44852 0.97747 0.0
H1023 H 0.55253 0.4419 0.99203 0.0
H1024 H 0.55966 0.49393 0.05186 0.0
H1025 H 0.57827 0.48506 0.03104 0.0
C1026 C 0.03321 0.45189 0.53878 0.0
C1027 C 0.01912 0.46877 0.54817 0.0
C1028 C 0.02624 0.45795 0.52662 0.0
C1029 C 0.0312 0.49813 0.50453 0.0
H1030 H 0.9532 0.51064 0.48806 0.0
C1031 C 0.03077 0.55031 0.45745 0.0
C1032 C 0.01621 0.53232 0.44851 0.0
C1033 C 0.02437 0.54577 0.46977 0.0
C1034 C 0.97507 0.50724 0.4926 0.0
H1035 H 0.9847 0.5034 0.55225 0.0
H1036 H 0.97272 0.51431 0.53078 0.0
H1037 H 0.95392 0.49277 0.50942 0.0
H1038 H 0.98154 0.49737 0.44537 0.0
H1039 H 0.97068 0.48899 0.46708 0.0
H1040 H 0.05257 0.51223 0.48795 0.0
C1041 C 0.98905 0.49628 0.53292 0.0
C1042 C 0.97548 0.49715 0.50477 0.0
C1043 C 0.99593 0.49006 0.54518 0.0
C1044 C 0.99312 0.51154 0.45208 0.0
C1045 C 0.98686 0.50678 0.46449 0.0
C1046 C 0.0308 0.50843 0.49253 0.0
C1047 C 0.0052 0.48119 0.52355 0.0
C1048 C 0.00364 0.49218 0.51077 0.0
C1049 C 0.00351 0.5229 0.47345 0.0
C1050 C 0.00281 0.5131 0.4864 0.0
H1051 H 0.05078 0.43496 0.54081 0.0
H1052 H 0.03857 0.44555 0.51957 0.0
H1053 H 0.05324 0.49496 0.50898 0.0
H1054 H 0.0483 0.56688 0.45495 0.0
H1055 H 0.03705 0.55899 0.47648 0.0
C1056 C 0.20426 0.79474 0.64571 0.0
C1057 C 0.23493 0.80243 0.64837 0.0
C1058 C 0.18543 0.81534 0.63939 0.0
C1059 C 0.17525 0.89649 0.63133 0.0
H1060 H 0.13075 0.86426 0.60344 0.0
C1061 C 0.10569 0.97644 0.59975 0.0
C1062 C 0.07678 0.96566 0.59595 0.0
C1063 C 0.12664 0.95654 0.60536 0.0
C1064 C 0.14272 0.87361 0.61127 0.0
H1065 H 0.26957 0.83816 0.64695 0.0
H1066 H 0.23642 0.87438 0.63607 0.0
H1067 H 0.16278 0.82997 0.61562 0.0
H1068 H 0.04747 0.92542 0.59469 0.0
H1069 H 0.08354 0.89095 0.6047 0.0
H1070 H 0.15466 0.93994 0.62724 0.0
C1071 C 0.22706 0.85235 0.63882 0.0
C1072 C 0.16108 0.85394 0.61824 0.0
C1073 C 0.24602 0.8316 0.64502 0.0
C1074 C 0.06965 0.93439 0.59746 0.0
C1075 C 0.09044 0.91457 0.60317 0.0
C1076 C 0.15661 0.91612 0.62445 0.0
C1077 C 0.19679 0.84415 0.63573 0.0
C1078 C 0.17741 0.86516 0.62836 0.0
C1079 C 0.119 0.9255 0.60739 0.0
C1080 C 0.14 0.90491 0.61435 0.0
H1081 H 0.19506 0.77241 0.64815 0.0
H1082 H 0.16205 0.80861 0.63725 0.0
H1083 H 0.18744 0.90568 0.63915 0.0
H1084 H 0.1119 0.00041 0.59864 0.0
H1085 H 0.14866 0.96561 0.60824 0.0
C1086 C 0.29109 0.8351 0.85055 0.0
C1087 C 0.30163 0.80605 0.84681 0.0
C1088 C 0.31086 0.85549 0.85653 0.0
C1089 C 0.39336 0.87006 0.86362 0.0
H1090 H 0.35936 0.91561 0.89093 0.0
C1091 C 0.47018 0.93441 0.89793 0.0
C1092 C 0.46213 0.96526 0.90002 0.0
C1093 C 0.44988 0.91467 0.89191 0.0
C1094 C 0.3691 0.90314 0.88329 0.0
H1095 H 0.34133 0.77591 0.84605 0.0
H1096 H 0.37559 0.81108 0.85669 0.0
H1097 H 0.32589 0.8827 0.87874 0.0
H1098 H 0.42594 -0.00076 0.89801 0.0
H1099 H 0.39026 0.96454 0.88766 0.0
H1100 H 0.43672 0.89011 0.86839 0.0
C1101 C 0.35226 0.81847 0.85484 0.0
C1102 C 0.34993 0.88443 0.87624 0.0
C1103 C 0.33258 0.79822 0.84876 0.0
C1104 C 0.43279 0.97557 0.89652 0.0
C1105 C 0.41235 0.95572 0.89062 0.0
C1106 C 0.41257 0.8885 0.87075 0.0
C1107 C 0.3415 0.84714 0.859 0.0
C1108 C 0.36181 0.86767 0.8663 0.0
C1109 C 0.42101 0.92531 0.88799 0.0
C1110 C 0.40063 0.90522 0.88065 0.0
H1111 H 0.26738 0.84184 0.84911 0.0
H1112 H 0.30196 0.87764 0.85935 0.0
H1113 H 0.40323 0.85792 0.85593 0.0
H1114 H 0.49265 0.92579 0.90051 0.0
H1115 H 0.45695 0.8912 0.89013 0.0
C1116 C 0.43054 0.01905 0.10006 0.0
C1117 C 0.4598 0.02978 0.09664 0.0
C1118 C 0.40996 0.03841 0.10615 0.0
C1119 C 0.40991 0.10455 0.12659 0.0
H1120 H 0.32339 0.11137 0.11847 0.0
C1121 C 0.33117 0.19617 0.14823 0.0
C1122 C 0.3 0.18908 0.15008 0.0
C1123 C 0.35055 0.17535 0.14231 0.0
C1124 C 0.34737 0.10932 0.12101 0.0
H1125 H 0.49 0.06952 0.09649 0.0
H1126 H 0.45409 0.10322 0.10718 0.0
H1127 H 0.35673 0.07847 0.1062 0.0
H1128 H 0.26504 0.154 0.14779 0.0
H1129 H 0.2991 0.11719 0.13781 0.0
H1130 H 0.40069 0.13486 0.14151 0.0
C1131 C 0.44719 0.0798 0.10521 0.0
C1132 C 0.36647 0.09062 0.11392 0.0
C1133 C 0.46761 0.06057 0.099 0.0
C1134 C 0.28894 0.16017 0.14642 0.0
C1135 C 0.3084 0.1392 0.1406 0.0
C1136 C 0.39079 0.12297 0.13376 0.0
C1137 C 0.41842 0.06872 0.10906 0.0
C1138 C 0.39797 0.08831 0.11658 0.0
C1139 C 0.33928 0.14682 0.13821 0.0
C1140 C 0.35932 0.12583 0.13101 0.0
H1141 H 0.42387 0.99542 0.09836 0.0
H1142 H 0.38794 0.02928 0.10904 0.0
H1143 H 0.43403 0.10272 0.12898 0.0
H1144 H 0.34035 0.21835 0.15088 0.0
H1145 H 0.37407 0.18221 0.14052 0.0
C1146 C 0.10406 0.01872 0.39572 0.0
C1147 C 0.0752 0.02984 0.39947 0.0
C1148 C 0.12472 0.03801 0.38963 0.0
C1149 C 0.12527 0.10536 0.36981 0.0
H1150 H 0.21214 0.11032 0.37755 0.0
C1151 C 0.20462 0.19705 0.34859 0.0
C1152 C 0.23561 0.18964 0.34649 0.0
C1153 C 0.18517 0.1762 0.35446 0.0
C1154 C 0.18805 0.10881 0.37511 0.0
H1155 H 0.0458 0.07013 0.40018 0.0
H1156 H 0.08182 0.1037 0.38948 0.0
H1157 H 0.17867 0.07716 0.38966 0.0
H1158 H 0.27018 0.15399 0.34832 0.0
H1159 H 0.23598 0.11714 0.3582 0.0
H1160 H 0.13449 0.13646 0.35515 0.0
C1161 C 0.08836 0.08004 0.3912 0.0
C1162 C 0.16888 0.08995 0.38211 0.0
C1163 C 0.06787 0.06088 0.39741 0.0
C1164 C 0.24642 0.16041 0.34988 0.0
C1165 C 0.22688 0.13941 0.35564 0.0
C1166 C 0.14445 0.12393 0.36272 0.0
C1167 C 0.11673 0.06864 0.38705 0.0
C1168 C 0.13727 0.0883 0.3796 0.0
C1169 C 0.19618 0.1473 0.35825 0.0
C1170 C 0.17605 0.12614 0.36535 0.0
H1171 H 0.11035 0.99489 0.39718 0.0
H1172 H 0.14643 0.02863 0.3865 0.0
H1173 H 0.10105 0.10406 0.36754 0.0
H1174 H 0.19564 0.21948 0.34616 0.0
H1175 H 0.16181 0.18328 0.35643 0.0
C1176 C 0.93216 0.0305 0.39982 0.0
C1177 C 0.93993 0.00248 0.39429 0.0
C1178 C 0.90912 0.04891 0.39492 0.0
C1179 C 0.84121 0.05158 0.37574 0.0
H1180 H 0.8671 0.13553 0.36941 0.0
C1181 C 0.80057 0.16338 0.34656 0.0
C1182 C 0.77207 0.17113 0.3517 0.0
C1183 C 0.81868 0.14055 0.35179 0.0
C1184 C 0.85956 0.11218 0.37115 0.0
H1185 H 0.93069 0.97188 0.37916 0.0
H1186 H 0.88957 0.00435 0.3705 0.0
H1187 H 0.9032 0.09927 0.37851 0.0
H1188 H 0.74024 0.16205 0.36645 0.0
H1189 H 0.77215 0.12119 0.37565 0.0
H1190 H 0.7973 0.06496 0.36836 0.0
C1191 C 0.90111 0.01161 0.37878 0.0
C1192 C 0.88013 0.09151 0.37637 0.0
C1193 C 0.9246 0.99324 0.38364 0.0
C1194 C 0.762 0.15597 0.36228 0.0
C1195 C 0.78005 0.13264 0.36745 0.0
C1196 C 0.82034 0.07254 0.37063 0.0
C1197 C 0.89351 0.03977 0.38433 0.0
C1198 C 0.87122 0.06104 0.37867 0.0
C1199 C 0.8087 0.12509 0.36229 0.0
C1200 C 0.82955 0.10292 0.36823 0.0
H1201 H 0.94421 0.03836 0.4079 0.0
H1202 H 0.90367 0.07052 0.39935 0.0
H1203 H 0.83387 0.02819 0.37752 0.0
H1204 H 0.80905 0.17529 0.33855 0.0
H1205 H 0.84068 0.13511 0.34766 0.0
C1206 C 0.60176 0.02829 0.09801 0.0
C1207 C 0.59366 3e-05 0.10327 0.0
C1208 C 0.62447 0.04649 0.10326 0.0
C1209 C 0.69232 0.04892 0.12181 0.0
H1210 H 0.665 0.13127 0.13021 0.0
C1211 C 0.7711 0.15446 0.1334 0.0
C1212 C 0.76285 0.16986 0.14416 0.0
C1213 C 0.7526 0.13055 0.12895 0.0
C1214 C 0.67291 0.10833 0.12794 0.0
H1215 H 0.60204 0.96873 0.11825 0.0
H1216 H 0.64279 0.00076 0.12748 0.0
H1217 H 0.62857 0.09473 0.12145 0.0
H1218 H 0.72853 0.1738 0.15841 0.0
H1219 H 0.69609 0.13253 0.15057 0.0
H1220 H 0.73703 0.06307 0.12812 0.0
C1221 C 0.63163 0.00841 0.11918 0.0
C1222 C 0.65215 0.08752 0.12293 0.0
C1223 C 0.60838 0.99029 0.11399 0.0
C1224 C 0.73566 0.1617 0.15024 0.0
C1225 C 0.71707 0.13825 0.14574 0.0
C1226 C 0.71337 0.07004 0.12669 0.0
C1227 C 0.63951 0.03681 0.1139 0.0
C1228 C 0.66165 0.05772 0.1198 0.0
C1229 C 0.72524 0.12259 0.13503 0.0
C1230 C 0.70372 0.09989 0.1298 0.0
H1231 H 0.59019 0.03652 0.08987 0.0
H1232 H 0.63016 0.06833 0.09906 0.0
H1233 H 0.70007 0.02605 0.11937 0.0
H1234 H 0.79179 0.16084 0.1285 0.0
H1235 H 0.75908 0.11899 0.12058 0.0
C1236 C 0.7354 0.83298 0.84665 0.0
C1237 C 0.7636 0.82502 0.85199 0.0
C1238 C 0.71721 0.85594 0.85175 0.0
C1239 C 0.71551 0.9242 0.87039 0.0
H1240 H 0.63229 0.89842 0.87819 0.0
C1241 C 0.60458 0.96775 0.89961 0.0
C1242 C 0.59628 0.99533 0.89385 0.0
C1243 C 0.62754 0.94921 0.89471 0.0
C1244 C 0.65546 0.90591 0.87605 0.0
H1245 H 0.79476 0.83379 0.86699 0.0
H1246 H 0.76278 0.87493 0.87594 0.0
H1247 H 0.66817 0.86163 0.86924 0.0
H1248 H 0.60458 0.02507 0.87837 0.0
H1249 H 0.64563 0.99242 0.86974 0.0
H1250 H 0.70229 0.96881 0.87712 0.0
C1251 C 0.75516 0.86352 0.86769 0.0
C1252 C 0.67589 0.88495 0.87093 0.0
C1253 C 0.77325 0.84004 0.86265 0.0
C1254 C 0.61108 0.00406 0.88302 0.0
C1255 C 0.63452 0.98559 0.87816 0.0
C1256 C 0.69477 0.94546 0.87538 0.0
C1257 C 0.72686 0.87135 0.86231 0.0
C1258 C 0.70605 0.89386 0.86807 0.0
C1259 C 0.64257 0.95782 0.88392 0.0
C1260 C 0.66464 0.93632 0.87829 0.0
H1261 H 0.72723 0.82115 0.83856 0.0
H1262 H 0.69545 0.86157 0.84747 0.0
H1263 H 0.73867 0.93151 0.86816 0.0
H1264 H 0.59294 0.96026 0.90784 0.0
H1265 H 0.63334 0.92789 0.89929 0.0
C1266 C 0.76159 0.84011 0.63226 0.0
C1267 C 0.77073 0.82522 0.64303 0.0
C1268 C 0.77991 0.86356 0.62733 0.0
C1269 C 0.85937 0.88411 0.62457 0.0
H1270 H 0.83451 0.96821 0.61791 0.0
C1271 C 0.93327 0.9655 0.5962 0.0
C1272 C 0.94126 0.99329 0.60187 0.0
C1273 C 0.91002 0.94717 0.60101 0.0
C1274 C 0.8416 0.94478 0.61978 0.0
H1275 H 0.80634 0.8217 0.65679 0.0
H1276 H 0.83846 0.86209 0.64808 0.0
H1277 H 0.79719 0.93166 0.62675 0.0
H1278 H 0.93224 0.02354 0.61713 0.0
H1279 H 0.89069 0.99129 0.62559 0.0
H1280 H 0.90348 0.89675 0.61757 0.0
C1281 C 0.81693 0.85637 0.64364 0.0
C1282 C 0.82033 0.92396 0.6247 0.0
C1283 C 0.79855 0.83342 0.64862 0.0
C1284 C 0.92598 0.00237 0.61255 0.0
C1285 C 0.90224 0.98412 0.6173 0.0
C1286 C 0.88034 0.90464 0.61951 0.0
C1287 C 0.80791 0.87149 0.63292 0.0
C1288 C 0.82924 0.89355 0.6272 0.0
C1289 C 0.89439 0.95622 0.61161 0.0
C1290 C 0.87172 0.93513 0.61711 0.0
H1291 H 0.74039 0.83369 0.62774 0.0
H1292 H 0.77278 0.87477 0.61896 0.0
H1293 H 0.86667 0.86072 0.6264 0.0
H1294 H 0.94529 0.95776 0.5881 0.0
H1295 H 0.90438 0.92573 0.59649 0.0
C1296 C 0.70356 0.29779 0.14752 0.0
C1297 C 0.73464 0.30547 0.14928 0.0
C1298 C 0.68377 0.31817 0.14157 0.0
C1299 C 0.6724 0.39866 0.13268 0.0
H1300 H 0.62633 0.36407 0.10565 0.0
C1301 C 0.60248 0.47577 0.10008 0.0
C1302 C 0.57356 0.46475 0.09641 0.0
C1303 C 0.62318 0.45641 0.10611 0.0
C1304 C 0.63868 0.37408 0.11326 0.0
H1305 H 0.76898 0.34112 0.1468 0.0
H1306 H 0.73416 0.37699 0.13659 0.0
H1307 H 0.65895 0.33083 0.11801 0.0
H1308 H 0.54385 0.4247 0.09592 0.0
H1309 H 0.57948 0.39121 0.10667 0.0
H1310 H 0.65169 0.44178 0.12815 0.0
C1311 C 0.72523 0.35511 0.13974 0.0
C1312 C 0.65739 0.35501 0.12033 0.0
C1313 C 0.74515 0.33457 0.14555 0.0
C1314 C 0.56607 0.43381 0.09856 0.0
C1315 C 0.5866 0.41456 0.1047 0.0
C1316 C 0.65339 0.41771 0.1257 0.0
C1317 C 0.69458 0.34677 0.13741 0.0
C1318 C 0.67438 0.3671 0.13011 0.0
C1319 C 0.61526 0.42571 0.1087 0.0
C1320 C 0.63626 0.40565 0.1159 0.0
H1321 H 0.6948 0.27552 0.15028 0.0
H1322 H 0.66011 0.31137 0.14002 0.0
H1323 H 0.68515 0.40851 0.14023 0.0
H1324 H 0.60894 0.4995 0.09849 0.0
H1325 H 0.64529 0.46562 0.10883 0.0
C1326 C 0.83166 0.29779 0.34868 0.0
C1327 C 0.80084 0.30544 0.34628 0.0
C1328 C 0.85057 0.31804 0.35513 0.0
C1329 C 0.86042 0.39844 0.36442 0.0
H1330 H 0.90547 0.36356 0.39167 0.0
C1331 C 0.92957 0.47554 0.39714 0.0
C1332 C 0.95872 0.46476 0.40063 0.0
C1333 C 0.9087 0.45597 0.39132 0.0
C1334 C 0.89334 0.37365 0.38402 0.0
H1335 H 0.76607 0.34089 0.34824 0.0
H1336 H 0.79937 0.37652 0.35935 0.0
H1337 H 0.87353 0.33039 0.37898 0.0
H1338 H 0.98851 0.42478 0.40117 0.0
H1339 H 0.95251 0.39085 0.39081 0.0
H1340 H 0.88074 0.44154 0.36921 0.0
C1341 C 0.80877 0.35476 0.3563 0.0
C1342 C 0.87503 0.35463 0.37676 0.0
C1343 C 0.78973 0.33436 0.34995 0.0
C1344 C 0.96613 0.43372 0.39865 0.0
C1345 C 0.9454 0.41423 0.39273 0.0
C1346 C 0.879 0.41744 0.3716 0.0
C1347 C 0.83914 0.34647 0.3592 0.0
C1348 C 0.85851 0.36681 0.36686 0.0
C1349 C 0.91665 0.42527 0.38876 0.0
C1350 C 0.89579 0.40527 0.38148 0.0
H1351 H 0.8409 0.27567 0.34598 0.0
H1352 H 0.87404 0.31127 0.3571 0.0
H1353 H 0.84808 0.40837 0.35678 0.0
H1354 H 0.92313 0.49932 0.39861 0.0
H1355 H 0.88651 0.46508 0.38865 0.0
C1356 C 0.93608 0.5223 0.60051 0.0
C1357 C 0.96564 0.53263 0.59732 0.0
C1358 C 0.91541 0.54198 0.60638 0.0
C1359 C 0.91428 0.60897 0.62646 0.0
H1360 H 0.82814 0.61452 0.61756 0.0
C1361 C 0.83254 0.69919 0.64746 0.0
C1362 C 0.80151 0.69125 0.64916 0.0
C1363 C 0.85267 0.67894 0.64162 0.0
C1364 C 0.85201 0.61286 0.62031 0.0
H1365 H 0.99639 0.57192 0.5974 0.0
H1366 H 0.96026 0.60626 0.60771 0.0
H1367 H 0.86255 0.5818 0.6057 0.0
H1368 H 0.76757 0.65527 0.64662 0.0
H1369 H 0.80293 0.61949 0.63677 0.0
H1370 H 0.90382 0.63953 0.64118 0.0
C1371 C 0.9532 0.58289 0.60572 0.0
C1372 C 0.87173 0.59425 0.61346 0.0
C1373 C 0.97376 0.56331 0.59973 0.0
C1374 C 0.79133 0.6621 0.64539 0.0
C1375 C 0.81154 0.64172 0.63963 0.0
C1376 C 0.89452 0.62735 0.63339 0.0
C1377 C 0.92401 0.57226 0.60928 0.0
C1378 C 0.90308 0.59225 0.61643 0.0
C1379 C 0.8423 0.65016 0.63743 0.0
C1380 C 0.86315 0.62964 0.63037 0.0
H1381 H 0.92917 0.49877 0.59877 0.0
H1382 H 0.89311 0.53314 0.60907 0.0
H1383 H 0.93826 0.60743 0.62908 0.0
H1384 H 0.84105 0.72157 0.6502 0.0
H1385 H 0.87608 0.6864 0.63997 0.0
C1386 C 0.74715 0.6611 0.84928 0.0
C1387 C 0.73609 0.6901 0.84567 0.0
C1388 C 0.72781 0.64032 0.85529 0.0
C1389 C 0.661 0.63977 0.8753 0.0
H1390 H 0.65447 0.55325 0.86715 0.0
C1391 C 0.5687 0.5616 0.89664 0.0
C1392 C 0.57566 0.53048 0.89864 0.0
C1393 C 0.58963 0.58073 0.89066 0.0
C1394 C 0.65644 0.57724 0.86969 0.0
H1395 H 0.69584 0.71959 0.84509 0.0
H1396 H 0.66223 0.68338 0.85565 0.0
H1397 H 0.68789 0.5866 0.85506 0.0
H1398 H 0.61053 0.49525 0.89646 0.0
H1399 H 0.64757 0.52889 0.88637 0.0
H1400 H 0.63019 0.63059 0.89004 0.0
C1401 C 0.68586 0.67683 0.85388 0.0
C1402 C 0.67543 0.59632 0.86271 0.0
C1403 C 0.70505 0.69743 0.84775 0.0
C1404 C 0.60447 0.51913 0.89498 0.0
C1405 C 0.62557 0.53835 0.8891 0.0
C1406 C 0.64233 0.62067 0.88236 0.0
C1407 C 0.69722 0.64835 0.85792 0.0
C1408 C 0.67759 0.62783 0.86537 0.0
C1409 C 0.61818 0.56926 0.88666 0.0
C1410 C 0.63952 0.58921 0.87958 0.0
H1411 H 0.77097 0.65482 0.8478 0.0
H1412 H 0.73714 0.61852 0.85833 0.0
H1413 H 0.66273 0.6639 0.87768 0.0
H1414 H 0.54659 0.57098 0.89929 0.0
H1415 H 0.5829 0.60425 0.8888 0.0
C1416 C 0.42356 0.49237 0.8842 0.0
C1417 C 0.43922 0.50263 0.89462 0.0
C1418 C 0.4 0.5103 0.87914 0.0
C1419 C 0.38021 0.58965 0.87505 0.0
H1420 H 0.29592 0.56454 0.86893 0.0
C1421 C 0.29921 0.66196 0.84593 0.0
C1422 C 0.27165 0.67069 0.85161 0.0
C1423 C 0.31723 0.63861 0.85086 0.0
C1424 C 0.3194 0.5717 0.87063 0.0
H1425 H 0.44393 0.53982 0.90765 0.0
H1426 H 0.40327 0.57127 0.89872 0.0
H1427 H 0.33231 0.52809 0.87841 0.0
H1428 H 0.24142 0.66275 0.86697 0.0
H1429 H 0.27313 0.62111 0.87566 0.0
H1430 H 0.36779 0.63296 0.86727 0.0
C1431 C 0.4085 0.54916 0.89465 0.0
C1432 C 0.34013 0.55091 0.87594 0.0
C1433 C 0.43159 0.53116 0.89977 0.0
C1434 C 0.2624 0.6559 0.86238 0.0
C1435 C 0.28034 0.63211 0.86726 0.0
C1436 C 0.35978 0.61011 0.86962 0.0
C1437 C 0.39268 0.53904 0.88425 0.0
C1438 C 0.37062 0.55992 0.87825 0.0
C1439 C 0.30813 0.62367 0.86161 0.0
C1440 C 0.32921 0.6014 0.8674 0.0
H1441 H 0.42956 0.47061 0.88 0.0
H1442 H 0.38828 0.50229 0.87101 0.0
H1443 H 0.40366 0.59701 0.87671 0.0
H1444 H 0.30713 0.67362 0.83777 0.0
H1445 H 0.33857 0.63251 0.84636 0.0
C1446 C 0.11548 0.48585 0.61323 0.0
C1447 C 0.101 0.49764 0.60281 0.0
C1448 C 0.14097 0.50106 0.61821 0.0
C1449 C 0.19759 0.56369 0.61127 0.0
H1450 H 0.20126 0.57136 0.64645 0.0
C1451 C 0.27969 0.65039 0.63465 0.0
C1452 C 0.26714 0.6659 0.64469 0.0
C1453 C 0.26458 0.6247 0.62978 0.0
C1454 C 0.20058 0.56952 0.6366 0.0
H1455 H 0.09987 0.53527 0.58989 0.0
H1456 H 0.14329 0.56235 0.59871 0.0
H1457 H 0.16481 0.53591 0.63733 0.0
H1458 H 0.2283 0.66873 0.65699 0.0
H1459 H 0.20137 0.62501 0.64832 0.0
H1460 H 0.2316 0.59908 0.61051 0.0
C1461 C 0.13643 0.54068 0.60275 0.0
C1462 C 0.17993 0.54878 0.63136 0.0
C1463 C 0.11138 0.52532 0.59773 0.0
C1464 C 0.2388 0.65642 0.64946 0.0
C1465 C 0.22353 0.63119 0.64454 0.0
C1466 C 0.21792 0.58476 0.6165 0.0
C1467 C 0.15174 0.52871 0.61301 0.0
C1468 C 0.17737 0.54644 0.61861 0.0
C1469 C 0.23628 0.61477 0.6347 0.0
C1470 C 0.21884 0.58875 0.62923 0.0
H1471 H 0.10743 0.46469 0.61736 0.0
H1472 H 0.15223 0.49115 0.62609 0.0
H1473 H 0.19684 0.56189 0.60142 0.0
H1474 H 0.30139 0.65774 0.63076 0.0
H1475 H 0.27512 0.61259 0.62223 0.0
C1476 C 0.10192 0.4651 0.39999 0.0
C1477 C 0.09375 0.49267 0.39419 0.0
C1478 C 0.12505 0.44658 0.39519 0.0
C1479 C 0.19303 0.44358 0.37618 0.0
H1480 H 0.16812 0.35917 0.37021 0.0
C1481 C 0.27347 0.3392 0.36372 0.0
C1482 C 0.26412 0.32408 0.35304 0.0
C1483 C 0.25501 0.36244 0.36875 0.0
C1484 C 0.17539 0.38265 0.37187 0.0
H1485 H 0.10235 0.52234 0.37872 0.0
H1486 H 0.1437 0.48977 0.37028 0.0
H1487 H 0.13139 0.39544 0.37895 0.0
H1488 H 0.22797 0.31988 0.33953 0.0
H1489 H 0.1956 0.35985 0.3484 0.0
H1490 H 0.23732 0.43032 0.36913 0.0
C1491 C 0.13236 0.48291 0.37865 0.0
C1492 C 0.15446 0.40333 0.37687 0.0
C1493 C 0.10874 0.50134 0.38339 0.0
C1494 C 0.2359 0.33176 0.34764 0.0
C1495 C 0.21737 0.35447 0.35272 0.0
C1496 C 0.21427 0.42262 0.37132 0.0
C1497 C 0.14039 0.45523 0.38447 0.0
C1498 C 0.16301 0.43396 0.37903 0.0
C1499 C 0.22666 0.36992 0.36332 0.0
C1500 C 0.20542 0.39207 0.36905 0.0
H1501 H 0.09014 0.45767 0.4082 0.0
H1502 H 0.13083 0.42534 0.39983 0.0
H1503 H 0.20009 0.46711 0.37786 0.0
H1504 H 0.29499 0.33319 0.3681 0.0
H1505 H 0.26238 0.3739 0.37702 0.0
C1506 C 0.43039 0.46492 0.09467 0.0
C1507 C 0.43778 0.49341 0.09989 0.0
C1508 C 0.40742 0.44666 0.09972 0.0
C1509 C 0.33927 0.44398 0.11864 0.0
H1510 H 0.36767 0.36183 0.12677 0.0
C1511 C 0.29997 0.33307 0.14888 0.0
C1512 C 0.27206 0.32436 0.14348 0.0
C1513 C 0.31788 0.35611 0.14368 0.0
C1514 C 0.35945 0.38469 0.12455 0.0
H1515 H 0.42779 0.52512 0.11458 0.0
H1516 H 0.38675 0.49295 0.12348 0.0
H1517 H 0.40301 0.39825 0.11728 0.0
H1518 H 0.24117 0.33186 0.1283 0.0
H1519 H 0.27266 0.37304 0.11914 0.0
H1520 H 0.29542 0.42993 0.12587 0.0
C1521 C 0.39854 0.48518 0.11533 0.0
C1522 C 0.37957 0.40543 0.1191 0.0
C1523 C 0.42198 0.5034 0.11033 0.0
C1524 C 0.26243 0.33871 0.13268 0.0
C1525 C 0.28025 0.36223 0.12752 0.0
C1526 C 0.31885 0.42293 0.12397 0.0
C1527 C 0.39151 0.45645 0.11015 0.0
C1528 C 0.36972 0.43521 0.11611 0.0
C1529 C 0.30829 0.3708 0.13294 0.0
C1530 C 0.32894 0.39319 0.12701 0.0
H1531 H 0.44285 0.45646 0.08678 0.0
H1532 H 0.40239 0.42458 0.09558 0.0
H1533 H 0.33124 0.46685 0.11634 0.0
H1534 H 0.30815 0.32174 0.15707 0.0
H1535 H 0.33944 0.36231 0.148 0.0
loop_
_geom_bond_atom_site_label_1
_geom_bond_atom_site_label_2
_geom_bond_distance
_geom_bond_site_symmetry_2
_ccdc_geom_bond_type
Mn0 O5 2.095 . S
Mn0 O15 2.162 . S
Mn0 O16 2.297 1_545 S
Mn0 O24 2.385 1_455 S
Mn0 O25 2.209 1_455 S
Mn0 O26 2.094 . S
Mn1 O6 2.121 . S
Mn1 N8 2.257 . S
Mn1 N17 2.282 . S
Mn1 O25 2.215 . S
Mn1 O27 2.117 . S
C2 O24 1.234 . S
C2 O25 1.283 . S
C3 O15 1.281 1_565 S
C3 O16 1.236 . S
C4 O26 1.240 . S
C4 O27 1.264 1_455 S
O5 Mn0 2.095 . S
O5 C14 1.250 . S
O6 Mn1 2.121 . S
O6 C14 1.258 1_655 S
C7 N8 1.326 1_565 S
C7 C11 1.460 . S
C7 H13 0.929 . S
N8 Mn1 2.257 . S
N8 C7 1.326 1_545 S
N8 C12 1.362 . S
C9 C10 1.258 1_545 S
C9 C12 1.431 . S
C9 C29 1.449 . S
C10 C9 1.258 1_565 S
C10 C11 1.477 . S
C10 H30 0.931 . S
C11 C7 1.460 . S
C11 C10 1.477 . S
C11 H31 0.930 . S
C12 N8 1.362 . S
C12 C9 1.431 . S
C12 C22 1.476 . S
H13 C7 0.929 . S
C14 O5 1.250 . S
C14 O6 1.258 1_455 S
O15 Mn0 2.162 . S
O15 C3 1.281 1_545 S
O16 Mn0 2.297 1_565 S
O16 C3 1.236 . S
N17 Mn1 2.282 . S
N17 C18 1.328 . S
N17 C22 1.318 . S
C18 N17 1.328 . S
C18 C19 1.457 . S
C18 H23 0.929 . S
C19 C18 1.457 . S
C19 C20 1.291 . S
C19 H32 0.931 . S
C20 C19 1.291 . S
C20 C21 1.373 . S
C20 H33 0.929 . S
C21 C20 1.373 . S
C21 C22 1.396 . S
C21 C28 1.403 . S
C22 C12 1.476 . S
C22 N17 1.318 . S
C22 C21 1.396 . S
H23 C18 0.929 . S
O24 Mn0 2.385 1_655 S
O24 C2 1.234 . S
O25 Mn0 2.209 1_655 S
O25 Mn1 2.215 . S
O25 C2 1.283 . S
O26 Mn0 2.094 . S
O26 C4 1.240 . S
O27 Mn1 2.117 . S
O27 C4 1.264 1_655 S
C28 C21 1.403 . S
C28 C29 1.399 . S
C28 H34 0.929 . S
C29 C9 1.449 . S
C29 C28 1.399 . S
C29 H35 0.930 1_545 S
H30 C10 0.931 . S
H31 C11 0.930 . S
H32 C19 0.931 . S
H33 C20 0.929 . S
H34 C28 0.929 . S
H35 C29 0.930 1_565 S
Mn36 O41 2.095 . S
Mn36 O51 2.162 . S
Mn36 O52 2.297 . S
Mn36 O60 2.385 . S
Mn36 O61 2.209 . S
Mn36 O62 2.094 . S
Mn37 O42 2.121 . S
Mn37 N44 2.257 . S
Mn37 N53 2.282 . S
Mn37 O61 2.215 . S
Mn37 O63 2.117 . S
C38 O60 1.234 . S
C38 O61 1.283 . S
C39 O51 1.281 . S
C39 O52 1.236 . S
C40 O62 1.240 . S
C40 O63 1.264 . S
O41 Mn36 2.095 . S
O41 C50 1.250 . S
O42 Mn37 2.121 . S
O42 C50 1.258 . S
C43 N44 1.326 . S
C43 C47 1.460 . S
C43 H49 0.929 . S
N44 Mn37 2.257 . S
N44 C43 1.326 . S
N44 C48 1.362 . S
C45 C46 1.258 . S
C45 C48 1.431 . S
C45 C65 1.449 . S
C46 C45 1.258 . S
C46 C47 1.477 . S
C46 H66 0.931 . S
C47 C43 1.460 . S
C47 C46 1.477 . S
C47 H67 0.930 . S
C48 N44 1.362 . S
C48 C45 1.431 . S
C48 C58 1.476 . S
H49 C43 0.929 . S
C50 O41 1.250 . S
C50 O42 1.258 . S
O51 Mn36 2.162 . S
O51 C39 1.281 . S
O52 Mn36 2.297 . S
O52 C39 1.236 . S
N53 Mn37 2.282 . S
N53 C54 1.328 . S
N53 C58 1.318 . S
C54 N53 1.328 . S
C54 C55 1.457 . S
C54 H59 0.929 . S
C55 C54 1.457 . S
C55 C56 1.291 . S
C55 H68 0.931 . S
C56 C55 1.291 . S
C56 C57 1.373 . S
C56 H69 0.929 . S
C57 C56 1.373 . S
C57 C58 1.396 . S
C57 C64 1.403 . S
C58 C48 1.476 . S
C58 N53 1.318 . S
C58 C57 1.396 . S
H59 C54 0.929 . S
O60 Mn36 2.385 . S
O60 C38 1.234 . S
O61 Mn36 2.209 . S
O61 Mn37 2.215 . S
O61 C38 1.283 . S
O62 Mn36 2.094 . S
O62 C40 1.240 . S
O63 Mn37 2.117 . S
O63 C40 1.264 . S
C64 C57 1.403 . S
C64 C65 1.399 . S
C64 H70 0.929 . S
C65 C45 1.449 . S
C65 C64 1.399 . S
C65 H71 0.930 . S
H66 C46 0.931 . S
H67 C47 0.930 . S
H68 C55 0.931 . S
H69 C56 0.929 . S
H70 C64 0.929 . S
H71 C65 0.930 . S
Mn72 O77 2.095 . S
Mn72 O87 2.162 . S
Mn72 O88 2.297 1_565 S
Mn72 O96 2.385 . S
Mn72 O97 2.209 . S
Mn72 O98 2.094 . S
Mn73 O78 2.121 . S
Mn73 N80 2.257 . S
Mn73 N89 2.282 . S
Mn73 O97 2.215 . S
Mn73 O99 2.117 . S
C74 O96 1.234 . S
C74 O97 1.283 . S
C75 O87 1.281 1_545 S
C75 O88 1.236 . S
C76 O98 1.240 . S
C76 O99 1.264 . S
O77 Mn72 2.095 . S
O77 C86 1.250 . S
O78 Mn73 2.121 . S
O78 C86 1.258 . S
C79 N80 1.326 1_545 S
C79 C83 1.460 . S
C79 H85 0.929 . S
N80 Mn73 2.257 . S
N80 C79 1.326 1_565 S
N80 C84 1.362 . S
C81 C82 1.258 1_565 S
C81 C84 1.431 . S
C81 C101 1.449 . S
C82 C81 1.258 1_545 S
C82 C83 1.477 . S
C82 H102 0.931 . S
C83 C79 1.460 . S
C83 C82 1.477 . S
C83 H103 0.930 . S
C84 N80 1.362 . S
C84 C81 1.431 . S
C84 C94 1.476 . S
H85 C79 0.929 . S
C86 O77 1.250 . S
C86 O78 1.258 . S
O87 Mn72 2.162 . S
O87 C75 1.281 1_565 S
O88 Mn72 2.297 1_545 S
O88 C75 1.236 . S
N89 Mn73 2.282 . S
N89 C90 1.328 . S
N89 C94 1.318 . S
C90 N89 1.328 . S
C90 C91 1.457 . S
C90 H95 0.929 . S
C91 C90 1.457 . S
C91 C92 1.291 . S
C91 H104 0.931 . S
C92 C91 1.291 . S
C92 C93 1.373 . S
C92 H105 0.929 . S
C93 C92 1.373 . S
C93 C94 1.396 . S
C93 C100 1.403 . S
C94 C84 1.476 . S
C94 N89 1.318 . S
C94 C93 1.396 . S
H95 C90 0.929 . S
O96 Mn72 2.385 . S
O96 C74 1.234 . S
O97 Mn72 2.209 . S
O97 Mn73 2.215 . S
O97 C74 1.283 . S
O98 Mn72 2.094 . S
O98 C76 1.240 . S
O99 Mn73 2.117 . S
O99 C76 1.264 . S
C100 C93 1.403 . S
C100 C101 1.399 . S
C100 H106 0.929 . S
C101 C81 1.449 . S
C101 C100 1.399 . S
C101 H107 0.930 1_565 S
H102 C82 0.931 . S
H103 C83 0.930 . S
H104 C91 0.931 . S
H105 C92 0.929 . S
H106 C100 0.929 . S
H107 C101 0.930 1_545 S
Mn108 O113 2.095 . S
Mn108 O123 2.162 . S
Mn108 O124 2.297 . S
Mn108 O132 2.385 . S
Mn108 O133 2.209 . S
Mn108 O134 2.094 . S
Mn109 O114 2.121 . S
Mn109 N116 2.257 . S
Mn109 N125 2.282 . S
Mn109 O133 2.215 . S
Mn109 O135 2.117 . S
C110 O132 1.234 . S
C110 O133 1.283 . S
C111 O123 1.281 . S
C111 O124 1.236 . S
C112 O134 1.240 . S
C112 O135 1.264 . S
O113 Mn108 2.095 . S
O113 C122 1.250 . S
O114 Mn109 2.121 . S
O114 C122 1.258 . S
C115 N116 1.326 . S
C115 C119 1.460 . S
C115 H121 0.929 . S
N116 Mn109 2.257 . S
N116 C115 1.326 . S
N116 C120 1.362 . S
C117 C118 1.258 . S
C117 C120 1.431 . S
C117 C137 1.449 . S
C118 C117 1.258 . S
C118 C119 1.477 . S
C118 H138 0.931 . S
C119 C115 1.460 . S
C119 C118 1.477 . S
C119 H139 0.930 . S
C120 N116 1.362 . S
C120 C117 1.431 . S
C120 C130 1.476 . S
H121 C115 0.929 . S
C122 O113 1.250 . S
C122 O114 1.258 . S
O123 Mn108 2.162 . S
O123 C111 1.281 . S
O124 Mn108 2.297 . S
O124 C111 1.236 . S
N125 Mn109 2.282 . S
N125 C126 1.328 . S
N125 C130 1.318 . S
C126 N125 1.328 . S
C126 C127 1.457 . S
C126 H131 0.929 . S
C127 C126 1.457 . S
C127 C128 1.291 . S
C127 H140 0.931 . S
C128 C127 1.291 . S
C128 C129 1.373 . S
C128 H141 0.929 . S
C129 C128 1.373 . S
C129 C130 1.396 . S
C129 C136 1.403 . S
C130 C120 1.476 . S
C130 N125 1.318 . S
C130 C129 1.396 . S
H131 C126 0.929 . S
O132 Mn108 2.385 . S
O132 C110 1.234 . S
O133 Mn108 2.209 . S
O133 Mn109 2.215 . S
O133 C110 1.283 . S
O134 Mn108 2.094 . S
O134 C112 1.240 . S
O135 Mn109 2.117 . S
O135 C112 1.264 . S
C136 C129 1.403 . S
C136 C137 1.399 . S
C136 H142 0.929 . S
C137 C117 1.449 . S
C137 C136 1.399 . S
C137 H143 0.930 . S
H138 C118 0.931 . S
H139 C119 0.930 . S
H140 C127 0.931 . S
H141 C128 0.929 . S
H142 C136 0.929 . S
H143 C137 0.930 . S
Mn144 O149 2.095 . S
Mn144 O159 2.162 . S
Mn144 O160 2.297 1_565 S
Mn144 O168 2.385 1_455 S
Mn144 O169 2.209 1_455 S
Mn144 O170 2.094 . S
Mn145 O150 2.121 . S
Mn145 N152 2.257 . S
Mn145 N161 2.282 . S
Mn145 O169 2.215 . S
Mn145 O171 2.117 . S
C146 O168 1.234 . S
C146 O169 1.283 . S
C147 O159 1.281 1_545 S
C147 O160 1.236 . S
C148 O170 1.240 . S
C148 O171 1.264 1_455 S
O149 Mn144 2.095 . S
O149 C158 1.250 . S
O150 Mn145 2.121 . S
O150 C158 1.258 1_655 S
C151 N152 1.326 1_545 S
C151 C155 1.460 . S
C151 H157 0.929 . S
N152 Mn145 2.257 . S
N152 C151 1.326 1_565 S
N152 C156 1.362 . S
C153 C154 1.258 1_565 S
C153 C156 1.431 . S
C153 C173 1.449 . S
C154 C153 1.258 1_545 S
C154 C155 1.477 . S
C154 H174 0.931 . S
C155 C151 1.460 . S
C155 C154 1.477 . S
C155 H175 0.930 . S
C156 N152 1.362 . S
C156 C153 1.431 . S
C156 C166 1.476 . S
H157 C151 0.929 . S
C158 O149 1.250 . S
C158 O150 1.258 1_455 S
O159 Mn144 2.162 . S
O159 C147 1.281 1_565 S
O160 Mn144 2.297 1_545 S
O160 C147 1.236 . S
N161 Mn145 2.282 . S
N161 C162 1.328 . S
N161 C166 1.318 . S
C162 N161 1.328 . S
C162 C163 1.457 . S
C162 H167 0.929 . S
C163 C162 1.457 . S
C163 C164 1.291 . S
C163 H176 0.931 . S
C164 C163 1.291 . S
C164 C165 1.373 . S
C164 H177 0.929 . S
C165 C164 1.373 . S
C165 C166 1.396 . S
C165 C172 1.403 . S
C166 C156 1.476 . S
C166 N161 1.318 . S
C166 C165 1.396 . S
H167 C162 0.929 . S
O168 Mn144 2.385 1_655 S
O168 C146 1.234 . S
O169 Mn144 2.209 1_655 S
O169 Mn145 2.215 . S
O169 C146 1.283 . S
O170 Mn144 2.094 . S
O170 C148 1.240 . S
O171 Mn145 2.117 . S
O171 C148 1.264 1_655 S
C172 C165 1.403 . S
C172 C173 1.399 . S
C172 H178 0.929 . S
C173 C153 1.449 . S
C173 C172 1.399 . S
C173 H179 0.930 1_565 S
H174 C154 0.931 . S
H175 C155 0.930 . S
H176 C163 0.931 . S
H177 C164 0.929 . S
H178 C172 0.929 . S
H179 C173 0.930 1_545 S
Mn180 O185 2.095 . S
Mn180 O195 2.162 . S
Mn180 O196 2.297 . S
Mn180 O204 2.385 . S
Mn180 O205 2.209 . S
Mn180 O206 2.094 . S
Mn181 O186 2.121 . S
Mn181 N188 2.257 . S
Mn181 N197 2.282 . S
Mn181 O205 2.215 . S
Mn181 O207 2.117 . S
C182 O204 1.234 . S
C182 O205 1.283 . S
C183 O195 1.281 . S
C183 O196 1.236 . S
C184 O206 1.240 . S
C184 O207 1.264 . S
O185 Mn180 2.095 . S
O185 C194 1.250 . S
O186 Mn181 2.121 . S
O186 C194 1.258 . S
C187 N188 1.326 . S
C187 C191 1.460 . S
C187 H193 0.929 . S
N188 Mn181 2.257 . S
N188 C187 1.326 . S
N188 C192 1.362 . S
C189 C190 1.258 . S
C189 C192 1.431 . S
C189 C209 1.449 . S
C190 C189 1.258 . S
C190 C191 1.477 . S
C190 H210 0.931 . S
C191 C187 1.460 . S
C191 C190 1.477 . S
C191 H211 0.930 . S
C192 N188 1.362 . S
C192 C189 1.431 . S
C192 C202 1.476 . S
H193 C187 0.929 . S
C194 O185 1.250 . S
C194 O186 1.258 . S
O195 Mn180 2.162 . S
O195 C183 1.281 . S
O196 Mn180 2.297 . S
O196 C183 1.236 . S
N197 Mn181 2.282 . S
N197 C198 1.328 . S
N197 C202 1.318 . S
C198 N197 1.328 . S
C198 C199 1.457 . S
C198 H203 0.929 . S
C199 C198 1.457 . S
C199 C200 1.291 . S
C199 H212 0.931 . S
C200 C199 1.291 . S
C200 C201 1.373 . S
C200 H213 0.929 . S
C201 C200 1.373 . S
C201 C202 1.396 . S
C201 C208 1.403 . S
C202 C192 1.476 . S
C202 N197 1.318 . S
C202 C201 1.396 . S
H203 C198 0.929 . S
O204 Mn180 2.385 . S
O204 C182 1.234 . S
O205 Mn180 2.209 . S
O205 Mn181 2.215 . S
O205 C182 1.283 . S
O206 Mn180 2.094 . S
O206 C184 1.240 . S
O207 Mn181 2.117 . S
O207 C184 1.264 . S
C208 C201 1.403 . S
C208 C209 1.399 . S
C208 H214 0.929 . S
C209 C189 1.449 . S
C209 C208 1.399 . S
C209 H215 0.930 . S
H210 C190 0.931 . S
H211 C191 0.930 . S
H212 C199 0.931 . S
H213 C200 0.929 . S
H214 C208 0.929 . S
H215 C209 0.930 . S
Mn216 O221 2.095 . S
Mn216 O231 2.162 . S
Mn216 O232 2.297 1_545 S
Mn216 O240 2.385 . S
Mn216 O241 2.209 . S
Mn216 O242 2.094 . S
Mn217 O222 2.121 . S
Mn217 N224 2.257 . S
Mn217 N233 2.282 . S
Mn217 O241 2.215 . S
Mn217 O243 2.117 . S
C218 O240 1.234 . S
C218 O241 1.283 . S
C219 O231 1.281 1_565 S
C219 O232 1.236 . S
C220 O242 1.240 . S
C220 O243 1.264 . S
O221 Mn216 2.095 . S
O221 C230 1.250 . S
O222 Mn217 2.121 . S
O222 C230 1.258 . S
C223 N224 1.326 1_565 S
C223 C227 1.460 . S
C223 H229 0.929 . S
N224 Mn217 2.257 . S
N224 C223 1.326 1_545 S
N224 C228 1.362 . S
C225 C226 1.258 1_545 S
C225 C228 1.431 . S
C225 C245 1.449 . S
C226 C225 1.258 1_565 S
C226 C227 1.477 . S
C226 H246 0.931 . S
C227 C223 1.460 . S
C227 C226 1.477 . S
C227 H247 0.930 . S
C228 N224 1.362 . S
C228 C225 1.431 . S
C228 C238 1.476 . S
H229 C223 0.929 . S
C230 O221 1.250 . S
C230 O222 1.258 . S
O231 Mn216 2.162 . S
O231 C219 1.281 1_545 S
O232 Mn216 2.297 1_565 S
O232 C219 1.236 . S
N233 Mn217 2.282 . S
N233 C234 1.328 . S
N233 C238 1.318 . S
C234 N233 1.328 . S
C234 C235 1.457 . S
C234 H239 0.929 . S
C235 C234 1.457 . S
C235 C236 1.291 . S
C235 H248 0.931 . S
C236 C235 1.291 . S
C236 C237 1.373 . S
C236 H249 0.929 . S
C237 C236 1.373 . S
C237 C238 1.396 . S
C237 C244 1.403 . S
C238 C228 1.476 . S
C238 N233 1.318 . S
C238 C237 1.396 . S
H239 C234 0.929 . S
O240 Mn216 2.385 . S
O240 C218 1.234 . S
O241 Mn216 2.209 . S
O241 Mn217 2.215 . S
O241 C218 1.283 . S
O242 Mn216 2.094 . S
O242 C220 1.240 . S
O243 Mn217 2.117 . S
O243 C220 1.264 . S
C244 C237 1.403 . S
C244 C245 1.399 . S
C244 H250 0.929 . S
C245 C225 1.449 . S
C245 C244 1.399 . S
C245 H251 0.930 1_545 S
H246 C226 0.931 . S
H247 C227 0.930 . S
H248 C235 0.931 . S
H249 C236 0.929 . S
H250 C244 0.929 . S
H251 C245 0.930 1_565 S
Mn252 O257 2.095 . S
Mn252 O267 2.162 . S
Mn252 O268 2.297 . S
Mn252 O276 2.385 . S
Mn252 O277 2.209 . S
Mn252 O278 2.094 . S
Mn253 O258 2.121 . S
Mn253 N260 2.257 . S
Mn253 N269 2.282 . S
Mn253 O277 2.215 . S
Mn253 O279 2.117 . S
C254 O276 1.234 . S
C254 O277 1.283 . S
C255 O267 1.281 . S
C255 O268 1.236 . S
C256 O278 1.240 . S
C256 O279 1.264 . S
O257 Mn252 2.095 . S
O257 C266 1.250 . S
O258 Mn253 2.121 . S
O258 C266 1.258 . S
C259 N260 1.326 . S
C259 C263 1.460 . S
C259 H265 0.929 . S
N260 Mn253 2.257 . S
N260 C259 1.326 . S
N260 C264 1.362 . S
C261 C262 1.258 . S
C261 C264 1.431 . S
C261 C281 1.449 . S
C262 C261 1.258 . S
C262 C263 1.477 . S
C262 H282 0.931 . S
C263 C259 1.460 . S
C263 C262 1.477 . S
C263 H283 0.930 . S
C264 N260 1.362 . S
C264 C261 1.431 . S
C264 C274 1.476 . S
H265 C259 0.929 . S
C266 O257 1.250 . S
C266 O258 1.258 . S
O267 Mn252 2.162 . S
O267 C255 1.281 . S
O268 Mn252 2.297 . S
O268 C255 1.236 . S
N269 Mn253 2.282 . S
N269 C270 1.328 . S
N269 C274 1.318 . S
C270 N269 1.328 . S
C270 C271 1.457 . S
C270 H275 0.929 . S
C271 C270 1.457 . S
C271 C272 1.291 . S
C271 H284 0.931 . S
C272 C271 1.291 . S
C272 C273 1.373 . S
C272 H285 0.929 . S
C273 C272 1.373 . S
C273 C274 1.396 . S
C273 C280 1.403 . S
C274 C264 1.476 . S
C274 N269 1.318 . S
C274 C273 1.396 . S
H275 C270 0.929 . S
O276 Mn252 2.385 . S
O276 C254 1.234 . S
O277 Mn252 2.209 . S
O277 Mn253 2.215 . S
O277 C254 1.283 . S
O278 Mn252 2.094 . S
O278 C256 1.240 . S
O279 Mn253 2.117 . S
O279 C256 1.264 . S
C280 C273 1.403 . S
C280 C281 1.399 . S
C280 H286 0.929 . S
C281 C261 1.449 . S
C281 C280 1.399 . S
C281 H287 0.930 . S
H282 C262 0.931 . S
H283 C263 0.930 . S
H284 C271 0.931 . S
H285 C272 0.929 . S
H286 C280 0.929 . S
H287 C281 0.930 . S
Mn288 O293 2.095 . S
Mn288 O303 2.162 . S
Mn288 O304 2.297 . S
Mn288 O312 2.385 . S
Mn288 O313 2.209 . S
Mn288 O314 2.094 . S
Mn289 O294 2.121 . S
Mn289 N296 2.257 . S
Mn289 N305 2.282 . S
Mn289 O313 2.215 . S
Mn289 O315 2.117 . S
C290 O312 1.234 . S
C290 O313 1.283 . S
C291 O303 1.281 . S
C291 O304 1.236 . S
C292 O314 1.240 . S
C292 O315 1.264 . S
O293 Mn288 2.095 . S
O293 C302 1.250 . S
O294 Mn289 2.121 . S
O294 C302 1.258 . S
C295 N296 1.326 . S
C295 C299 1.460 . S
C295 H301 0.929 . S
N296 Mn289 2.257 . S
N296 C295 1.326 . S
N296 C300 1.362 . S
C297 C298 1.258 . S
C297 C300 1.431 . S
C297 C317 1.449 . S
C298 C297 1.258 . S
C298 C299 1.477 . S
C298 H318 0.931 . S
C299 C295 1.460 . S
C299 C298 1.477 . S
C299 H319 0.930 . S
C300 N296 1.362 . S
C300 C297 1.431 . S
C300 C310 1.476 . S
H301 C295 0.929 . S
C302 O293 1.250 . S
C302 O294 1.258 . S
O303 Mn288 2.162 . S
O303 C291 1.281 . S
O304 Mn288 2.297 . S
O304 C291 1.236 . S
N305 Mn289 2.282 . S
N305 C306 1.328 . S
N305 C310 1.318 . S
C306 N305 1.328 . S
C306 C307 1.457 . S
C306 H311 0.929 . S
C307 C306 1.457 . S
C307 C308 1.291 . S
C307 H320 0.931 . S
C308 C307 1.291 . S
C308 C309 1.373 . S
C308 H321 0.929 . S
C309 C308 1.373 . S
C309 C310 1.396 . S
C309 C316 1.403 . S
C310 C300 1.476 . S
C310 N305 1.318 . S
C310 C309 1.396 . S
H311 C306 0.929 . S
O312 Mn288 2.385 . S
O312 C290 1.234 . S
O313 Mn288 2.209 . S
O313 Mn289 2.215 . S
O313 C290 1.283 . S
O314 Mn288 2.094 . S
O314 C292 1.240 . S
O315 Mn289 2.117 . S
O315 C292 1.264 . S
C316 C309 1.403 . S
C316 C317 1.399 . S
C316 H322 0.929 . S
C317 C297 1.449 . S
C317 C316 1.399 . S
C317 H323 0.930 . S
H318 C298 0.931 . S
H319 C299 0.930 . S
H320 C307 0.931 . S
H321 C308 0.929 . S
H322 C316 0.929 . S
H323 C317 0.930 . S
Mn324 O329 2.095 . S
Mn324 O339 2.162 . S
Mn324 O340 2.297 . S
Mn324 O348 2.385 . S
Mn324 O349 2.209 . S
Mn324 O350 2.094 . S
Mn325 O330 2.121 . S
Mn325 N332 2.257 . S
Mn325 N341 2.282 . S
Mn325 O349 2.215 . S
Mn325 O351 2.117 . S
C326 O348 1.234 . S
C326 O349 1.283 . S
C327 O339 1.281 . S
C327 O340 1.236 . S
C328 O350 1.240 . S
C328 O351 1.264 . S
O329 Mn324 2.095 . S
O329 C338 1.250 . S
O330 Mn325 2.121 . S
O330 C338 1.258 . S
C331 N332 1.326 . S
C331 C335 1.460 . S
C331 H337 0.929 . S
N332 Mn325 2.257 . S
N332 C331 1.326 . S
N332 C336 1.362 . S
C333 C334 1.258 . S
C333 C336 1.431 . S
C333 C353 1.449 . S
C334 C333 1.258 . S
C334 C335 1.477 . S
C334 H354 0.931 . S
C335 C331 1.460 . S
C335 C334 1.477 . S
C335 H355 0.930 . S
C336 N332 1.362 . S
C336 C333 1.431 . S
C336 C346 1.476 . S
H337 C331 0.929 . S
C338 O329 1.250 . S
C338 O330 1.258 . S
O339 Mn324 2.162 . S
O339 C327 1.281 . S
O340 Mn324 2.297 . S
O340 C327 1.236 . S
N341 Mn325 2.282 . S
N341 C342 1.328 . S
N341 C346 1.318 . S
C342 N341 1.328 . S
C342 C343 1.457 . S
C342 H347 0.929 . S
C343 C342 1.457 . S
C343 C344 1.291 . S
C343 H356 0.931 . S
C344 C343 1.291 . S
C344 C345 1.373 . S
C344 H357 0.929 . S
C345 C344 1.373 . S
C345 C346 1.396 . S
C345 C352 1.403 . S
C346 C336 1.476 . S
C346 N341 1.318 . S
C346 C345 1.396 . S
H347 C342 0.929 . S
O348 Mn324 2.385 . S
O348 C326 1.234 . S
O349 Mn324 2.209 . S
O349 Mn325 2.215 . S
O349 C326 1.283 . S
O350 Mn324 2.094 . S
O350 C328 1.240 . S
O351 Mn325 2.117 . S
O351 C328 1.264 . S
C352 C345 1.403 . S
C352 C353 1.399 . S
C352 H358 0.929 . S
C353 C333 1.449 . S
C353 C352 1.399 . S
C353 H359 0.930 . S
H354 C334 0.931 . S
H355 C335 0.930 . S
H356 C343 0.931 . S
H357 C344 0.929 . S
H358 C352 0.929 . S
H359 C353 0.930 . S
Mn360 O365 2.095 . S
Mn360 O375 2.162 . S
Mn360 O376 2.297 . S
Mn360 O384 2.385 . S
Mn360 O385 2.209 . S
Mn360 O386 2.094 . S
Mn361 O366 2.121 . S
Mn361 N368 2.257 . S
Mn361 N377 2.282 . S
Mn361 O385 2.215 . S
Mn361 O387 2.117 . S
C362 O384 1.234 . S
C362 O385 1.283 . S
C363 O375 1.281 . S
C363 O376 1.236 . S
C364 O386 1.240 . S
C364 O387 1.264 . S
O365 Mn360 2.095 . S
O365 C374 1.250 . S
O366 Mn361 2.121 . S
O366 C374 1.258 . S
C367 N368 1.326 . S
C367 C371 1.460 . S
C367 H373 0.929 . S
N368 Mn361 2.257 . S
N368 C367 1.326 . S
N368 C372 1.362 . S
C369 C370 1.258 . S
C369 C372 1.431 . S
C369 C389 1.449 . S
C370 C369 1.258 . S
C370 C371 1.477 . S
C370 H390 0.931 . S
C371 C367 1.460 . S
C371 C370 1.477 . S
C371 H391 0.930 . S
C372 N368 1.362 . S
C372 C369 1.431 . S
C372 C382 1.476 . S
H373 C367 0.929 . S
C374 O365 1.250 . S
C374 O366 1.258 . S
O375 Mn360 2.162 . S
O375 C363 1.281 . S
O376 Mn360 2.297 . S
O376 C363 1.236 . S
N377 Mn361 2.282 . S
N377 C378 1.328 . S
N377 C382 1.318 . S
C378 N377 1.328 . S
C378 C379 1.457 . S
C378 H383 0.929 . S
C379 C378 1.457 . S
C379 C380 1.291 . S
C379 H392 0.931 . S
C380 C379 1.291 . S
C380 C381 1.373 . S
C380 H393 0.929 . S
C381 C380 1.373 . S
C381 C382 1.396 . S
C381 C388 1.403 . S
C382 C372 1.476 . S
C382 N377 1.318 . S
C382 C381 1.396 . S
H383 C378 0.929 . S
O384 Mn360 2.385 . S
O384 C362 1.234 . S
O385 Mn360 2.209 . S
O385 Mn361 2.215 . S
O385 C362 1.283 . S
O386 Mn360 2.094 . S
O386 C364 1.240 . S
O387 Mn361 2.117 . S
O387 C364 1.264 . S
C388 C381 1.403 . S
C388 C389 1.399 . S
C388 H394 0.929 . S
C389 C369 1.449 . S
C389 C388 1.399 . S
C389 H395 0.930 . S
H390 C370 0.931 . S
H391 C371 0.930 . S
H392 C379 0.931 . S
H393 C380 0.929 . S
H394 C388 0.929 . S
H395 C389 0.930 . S
Mn396 O401 2.095 . S
Mn396 O411 2.162 . S
Mn396 O412 2.297 . S
Mn396 O420 2.385 . S
Mn396 O421 2.209 . S
Mn396 O422 2.094 . S
Mn397 O402 2.121 . S
Mn397 N404 2.257 . S
Mn397 N413 2.282 . S
Mn397 O421 2.215 . S
Mn397 O423 2.117 . S
C398 O420 1.234 . S
C398 O421 1.283 . S
C399 O411 1.281 . S
C399 O412 1.236 . S
C400 O422 1.240 . S
C400 O423 1.264 . S
O401 Mn396 2.095 . S
O401 C410 1.250 . S
O402 Mn397 2.121 . S
O402 C410 1.258 . S
C403 N404 1.326 . S
C403 C407 1.460 . S
C403 H409 0.929 . S
N404 Mn397 2.257 . S
N404 C403 1.326 . S
N404 C408 1.362 . S
C405 C406 1.258 . S
C405 C408 1.431 . S
C405 C425 1.449 . S
C406 C405 1.258 . S
C406 C407 1.477 . S
C406 H426 0.931 . S
C407 C403 1.460 . S
C407 C406 1.477 . S
C407 H427 0.930 . S
C408 N404 1.362 . S
C408 C405 1.431 . S
C408 C418 1.476 . S
H409 C403 0.929 . S
C410 O401 1.250 . S
C410 O402 1.258 . S
O411 Mn396 2.162 . S
O411 C399 1.281 . S
O412 Mn396 2.297 . S
O412 C399 1.236 . S
N413 Mn397 2.282 . S
N413 C414 1.328 . S
N413 C418 1.318 . S
C414 N413 1.328 . S
C414 C415 1.457 . S
C414 H419 0.929 . S
C415 C414 1.457 . S
C415 C416 1.291 . S
C415 H428 0.931 . S
C416 C415 1.291 . S
C416 C417 1.373 . S
C416 H429 0.929 . S
C417 C416 1.373 . S
C417 C418 1.396 . S
C417 C424 1.403 . S
C418 C408 1.476 . S
C418 N413 1.318 . S
C418 C417 1.396 . S
H419 C414 0.929 . S
O420 Mn396 2.385 . S
O420 C398 1.234 . S
O421 Mn396 2.209 . S
O421 Mn397 2.215 . S
O421 C398 1.283 . S
O422 Mn396 2.094 . S
O422 C400 1.240 . S
O423 Mn397 2.117 . S
O423 C400 1.264 . S
C424 C417 1.403 . S
C424 C425 1.399 . S
C424 H430 0.929 . S
C425 C405 1.449 . S
C425 C424 1.399 . S
C425 H431 0.930 . S
H426 C406 0.931 . S
H427 C407 0.930 . S
H428 C415 0.931 . S
H429 C416 0.929 . S
H430 C424 0.929 . S
H431 C425 0.930 . S
Mn432 O437 2.095 . S
Mn432 O447 2.162 . S
Mn432 O448 2.297 . S
Mn432 O456 2.385 . S
Mn432 O457 2.209 . S
Mn432 O458 2.094 . S
Mn433 O438 2.121 . S
Mn433 N440 2.257 . S
Mn433 N449 2.282 . S
Mn433 O457 2.215 . S
Mn433 O459 2.117 . S
C434 O456 1.234 . S
C434 O457 1.283 . S
C435 O447 1.281 . S
C435 O448 1.236 . S
C436 O458 1.240 . S
C436 O459 1.264 . S
O437 Mn432 2.095 . S
O437 C446 1.250 . S
O438 Mn433 2.121 . S
O438 C446 1.258 . S
C439 N440 1.326 . S
C439 C443 1.460 . S
C439 H445 0.929 . S
N440 Mn433 2.257 . S
N440 C439 1.326 . S
N440 C444 1.362 . S
C441 C442 1.258 . S
C441 C444 1.431 . S
C441 C461 1.449 . S
C442 C441 1.258 . S
C442 C443 1.477 . S
C442 H462 0.931 . S
C443 C439 1.460 . S
C443 C442 1.477 . S
C443 H463 0.930 . S
C444 N440 1.362 . S
C444 C441 1.431 . S
C444 C454 1.476 . S
H445 C439 0.929 . S
C446 O437 1.250 . S
C446 O438 1.258 . S
O447 Mn432 2.162 . S
O447 C435 1.281 . S
O448 Mn432 2.297 . S
O448 C435 1.236 . S
N449 Mn433 2.282 . S
N449 C450 1.328 . S
N449 C454 1.318 . S
C450 N449 1.328 . S
C450 C451 1.457 . S
C450 H455 0.929 . S
C451 C450 1.457 . S
C451 C452 1.291 . S
C451 H464 0.931 . S
C452 C451 1.291 . S
C452 C453 1.373 . S
C452 H465 0.929 . S
C453 C452 1.373 . S
C453 C454 1.396 . S
C453 C460 1.403 . S
C454 C444 1.476 . S
C454 N449 1.318 . S
C454 C453 1.396 . S
H455 C450 0.929 . S
O456 Mn432 2.385 . S
O456 C434 1.234 . S
O457 Mn432 2.209 . S
O457 Mn433 2.215 . S
O457 C434 1.283 . S
O458 Mn432 2.094 . S
O458 C436 1.240 . S
O459 Mn433 2.117 . S
O459 C436 1.264 . S
C460 C453 1.403 . S
C460 C461 1.399 . S
C460 H466 0.929 . S
C461 C441 1.449 . S
C461 C460 1.399 . S
C461 H467 0.930 . S
H462 C442 0.931 . S
H463 C443 0.930 . S
H464 C451 0.931 . S
H465 C452 0.929 . S
H466 C460 0.929 . S
H467 C461 0.930 . S
Mn468 O473 2.095 . S
Mn468 O483 2.162 1_455 S
Mn468 O484 2.309 . S
Mn468 O492 2.385 . S
Mn468 O493 2.209 . S
Mn468 O494 2.094 . S
Mn469 O474 2.121 . S
Mn469 N476 2.257 . S
Mn469 N485 2.282 . S
Mn469 O493 2.215 . S
Mn469 O495 2.117 . S
C470 O492 1.234 . S
C470 O493 1.283 . S
C471 O483 1.281 . S
C471 O484 1.205 1_655 S
C472 O494 1.240 . S
C472 O495 1.264 . S
O473 Mn468 2.095 . S
O473 C482 1.250 . S
O474 Mn469 2.121 . S
O474 C482 1.258 . S
C475 N476 1.326 . S
C475 C479 1.460 . S
C475 H481 0.929 . S
N476 Mn469 2.257 . S
N476 C475 1.326 . S
N476 C480 1.362 . S
C477 C478 1.258 . S
C477 C480 1.431 . S
C477 C497 1.449 . S
C478 C477 1.258 . S
C478 C479 1.477 . S
C478 H498 0.931 . S
C479 C475 1.460 . S
C479 C478 1.477 . S
C479 H499 0.930 . S
C480 N476 1.362 . S
C480 C477 1.431 . S
C480 C490 1.476 . S
H481 C475 0.929 . S
C482 O473 1.250 . S
C482 O474 1.258 . S
O483 Mn468 2.162 1_655 S
O483 C471 1.281 . S
O484 Mn468 2.309 . S
O484 C471 1.205 1_455 S
N485 Mn469 2.282 . S
N485 C486 1.328 . S
N485 C490 1.318 . S
C486 N485 1.328 . S
C486 C487 1.457 . S
C486 H491 0.929 . S
C487 C486 1.457 . S
C487 C488 1.291 . S
C487 H500 0.931 . S
C488 C487 1.291 . S
C488 C489 1.373 . S
C488 H501 0.929 . S
C489 C488 1.373 . S
C489 C490 1.396 . S
C489 C496 1.403 . S
C490 C480 1.476 . S
C490 N485 1.318 . S
C490 C489 1.396 . S
H491 C486 0.929 . S
O492 Mn468 2.385 . S
O492 C470 1.234 . S
O493 Mn468 2.209 . S
O493 Mn469 2.215 . S
O493 C470 1.283 . S
O494 Mn468 2.094 . S
O494 C472 1.240 . S
O495 Mn469 2.117 . S
O495 C472 1.264 . S
C496 C489 1.403 . S
C496 C497 1.399 . S
C496 H502 0.929 . S
C497 C477 1.449 . S
C497 C496 1.399 . S
C497 H503 0.930 . S
H498 C478 0.931 . S
H499 C479 0.930 . S
H500 C487 0.931 . S
H501 C488 0.929 . S
H502 C496 0.929 . S
H503 C497 0.930 . S
Mn504 O509 2.095 . S
Mn504 O519 2.162 . S
Mn504 O520 2.297 . S
Mn504 O528 2.385 . S
Mn504 O529 2.209 . S
Mn504 O530 2.094 . S
Mn505 O510 2.121 . S
Mn505 N512 2.257 . S
Mn505 N521 2.282 . S
Mn505 O529 2.215 . S
Mn505 O531 2.117 . S
C506 O528 1.234 . S
C506 O529 1.283 . S
C507 O519 1.281 . S
C507 O520 1.236 . S
C508 O530 1.240 . S
C508 O531 1.264 . S
O509 Mn504 2.095 . S
O509 C518 1.250 . S
O510 Mn505 2.121 . S
O510 C518 1.258 . S
C511 N512 1.326 . S
C511 C515 1.460 . S
C511 H517 0.929 . S
N512 Mn505 2.257 . S
N512 C511 1.326 . S
N512 C516 1.362 . S
C513 C514 1.258 . S
C513 C516 1.431 . S
C513 C533 1.449 . S
C514 C513 1.258 . S
C514 C515 1.477 . S
C514 H534 0.931 . S
C515 C511 1.460 . S
C515 C514 1.477 . S
C515 H535 0.930 . S
C516 N512 1.362 . S
C516 C513 1.431 . S
C516 C526 1.476 . S
H517 C511 0.929 . S
C518 O509 1.250 . S
C518 O510 1.258 . S
O519 Mn504 2.162 . S
O519 C507 1.281 . S
O520 Mn504 2.297 . S
O520 C507 1.236 . S
N521 Mn505 2.282 . S
N521 C522 1.328 . S
N521 C526 1.318 . S
C522 N521 1.328 . S
C522 C523 1.457 . S
C522 H527 0.929 . S
C523 C522 1.457 . S
C523 C524 1.291 . S
C523 H536 0.931 . S
C524 C523 1.291 . S
C524 C525 1.373 . S
C524 H537 0.929 . S
C525 C524 1.373 . S
C525 C526 1.396 . S
C525 C532 1.403 . S
C526 C516 1.476 . S
C526 N521 1.318 . S
C526 C525 1.396 . S
H527 C522 0.929 . S
O528 Mn504 2.385 . S
O528 C506 1.234 . S
O529 Mn504 2.209 . S
O529 Mn505 2.215 . S
O529 C506 1.283 . S
O530 Mn504 2.094 . S
O530 C508 1.240 . S
O531 Mn505 2.117 . S
O531 C508 1.264 . S
C532 C525 1.403 . S
C532 C533 1.399 . S
C532 H538 0.929 . S
C533 C513 1.449 . S
C533 C532 1.399 . S
C533 H539 0.930 . S
H534 C514 0.931 . S
H535 C515 0.930 . S
H536 C523 0.931 . S
H537 C524 0.929 . S
H538 C532 0.929 . S
H539 C533 0.930 . S
Mn540 O545 2.095 . S
Mn540 O555 2.162 1_455 S
Mn540 O556 2.309 . S
Mn540 O564 2.385 . S
Mn540 O565 2.209 . S
Mn540 O566 2.094 . S
Mn541 O546 2.121 . S
Mn541 N548 2.257 . S
Mn541 N557 2.282 . S
Mn541 O565 2.215 . S
Mn541 O567 2.117 . S
C542 O564 1.234 . S
C542 O565 1.283 . S
C543 O555 1.281 . S
C543 O556 1.205 1_655 S
C544 O566 1.240 . S
C544 O567 1.264 . S
O545 Mn540 2.095 . S
O545 C554 1.250 . S
O546 Mn541 2.121 . S
O546 C554 1.258 . S
C547 N548 1.326 . S
C547 C551 1.460 . S
C547 H553 0.929 . S
N548 Mn541 2.257 . S
N548 C547 1.326 . S
N548 C552 1.362 . S
C549 C550 1.258 . S
C549 C552 1.431 . S
C549 C569 1.449 . S
C550 C549 1.258 . S
C550 C551 1.477 . S
C550 H570 0.931 . S
C551 C547 1.460 . S
C551 C550 1.477 . S
C551 H571 0.930 . S
C552 N548 1.362 . S
C552 C549 1.431 . S
C552 C562 1.476 . S
H553 C547 0.929 . S
C554 O545 1.250 . S
C554 O546 1.258 . S
O555 Mn540 2.162 1_655 S
O555 C543 1.281 . S
O556 Mn540 2.309 . S
O556 C543 1.205 1_455 S
N557 Mn541 2.282 . S
N557 C558 1.328 . S
N557 C562 1.318 . S
C558 N557 1.328 . S
C558 C559 1.457 . S
C558 H563 0.929 . S
C559 C558 1.457 . S
C559 C560 1.291 . S
C559 H572 0.931 . S
C560 C559 1.291 . S
C560 C561 1.373 . S
C560 H573 0.929 . S
C561 C560 1.373 . S
C561 C562 1.396 . S
C561 C568 1.403 . S
C562 C552 1.476 . S
C562 N557 1.318 . S
C562 C561 1.396 . S
H563 C558 0.929 . S
O564 Mn540 2.385 . S
O564 C542 1.234 . S
O565 Mn540 2.209 . S
O565 Mn541 2.215 . S
O565 C542 1.283 . S
O566 Mn540 2.094 . S
O566 C544 1.240 . S
O567 Mn541 2.117 . S
O567 C544 1.264 . S
C568 C561 1.403 . S
C568 C569 1.399 . S
C568 H574 0.929 . S
C569 C549 1.449 . S
C569 C568 1.399 . S
C569 H575 0.930 . S
H570 C550 0.931 . S
H571 C551 0.930 . S
H572 C559 0.931 . S
H573 C560 0.929 . S
H574 C568 0.929 . S
H575 C569 0.930 . S
C576 C577 1.349 . S
C576 C578 1.327 . S
C576 H601 0.950 . S
C577 C576 1.349 . S
C577 C593 1.349 1_455 S
C578 C576 1.327 . S
C578 C597 1.429 . S
C578 H602 0.950 . S
C579 C596 1.574 . S
C579 C598 1.368 . S
C579 H603 0.949 1_455 S
H580 C584 0.949 . S
C581 C582 1.349 . S
C581 C583 1.327 . S
C581 H604 0.950 . S
C582 C581 1.349 . S
C582 C594 1.349 . S
C583 C581 1.327 . S
C583 C599 1.429 . S
C583 H605 0.950 . S
C584 H580 0.949 . S
C584 C592 1.574 . S
C584 C600 1.368 . S
H585 C593 0.950 . S
H586 C591 0.950 . S
H587 C592 0.949 . S
H588 C594 0.950 . S
H589 C595 0.950 . S
H590 C596 0.949 1_655 S
C591 H586 0.950 . S
C591 C593 1.327 . S
C591 C597 1.429 1_655 S
C592 C584 1.574 . S
C592 H587 0.949 . S
C592 C598 1.368 . S
C593 C577 1.349 1_655 S
C593 H585 0.950 . S
C593 C591 1.327 . S
C594 C582 1.349 . S
C594 H588 0.950 . S
C594 C595 1.327 . S
C595 H589 0.950 . S
C595 C594 1.327 . S
C595 C599 1.429 . S
C596 C579 1.574 . S
C596 H590 0.949 1_455 S
C596 C600 1.368 . S
C597 C578 1.429 . S
C597 C591 1.429 1_455 S
C597 C598 1.523 . S
C598 C579 1.368 . S
C598 C592 1.368 . S
C598 C597 1.523 . S
C599 C583 1.429 . S
C599 C595 1.429 . S
C599 C600 1.523 . S
C600 C584 1.368 . S
C600 C596 1.368 . S
C600 C599 1.523 . S
H601 C576 0.950 . S
H602 C578 0.950 . S
H603 C579 0.949 1_655 S
H604 C581 0.950 . S
H605 C583 0.950 . S
C606 C607 1.349 . S
C606 C608 1.327 . S
C606 H631 0.950 . S
C607 C606 1.349 . S
C607 C623 1.349 . S
C608 C606 1.327 . S
C608 C627 1.429 . S
C608 H632 0.950 . S
C609 C626 1.574 . S
C609 C628 1.368 1_455 S
C609 H633 0.949 1_455 S
H610 C614 0.949 . S
C611 C612 1.349 . S
C611 C613 1.327 . S
C611 H634 0.950 . S
C612 C611 1.349 . S
C612 C624 1.349 . S
C613 C611 1.327 . S
C613 C629 1.429 . S
C613 H635 0.950 . S
C614 H610 0.949 . S
C614 C622 1.569 . S
C614 C630 1.368 . S
H615 C623 0.950 . S
H616 C621 0.950 . S
H617 C622 0.952 1_655 S
H618 C624 0.950 . S
H619 C625 0.950 . S
H620 C626 0.949 . S
C621 H616 0.950 . S
C621 C623 1.327 . S
C621 C627 1.429 . S
C622 C614 1.569 . S
C622 H617 0.952 1_455 S
C622 C628 1.370 1_455 S
C623 C607 1.349 . S
C623 H615 0.950 . S
C623 C621 1.327 . S
C624 C612 1.349 . S
C624 H618 0.950 . S
C624 C625 1.327 . S
C625 H619 0.950 . S
C625 C624 1.327 . S
C625 C629 1.429 . S
C626 C609 1.574 . S
C626 H620 0.949 . S
C626 C630 1.368 . S
C627 C608 1.429 . S
C627 C621 1.429 . S
C627 C628 1.523 . S
C628 C609 1.368 1_655 S
C628 C622 1.370 1_655 S
C628 C627 1.523 . S
C629 C613 1.429 . S
C629 C625 1.429 . S
C629 C630 1.523 . S
C630 C614 1.368 . S
C630 C626 1.368 . S
C630 C629 1.523 . S
H631 C606 0.950 . S
H632 C608 0.950 . S
H633 C609 0.949 1_655 S
H634 C611 0.950 . S
H635 C613 0.950 . S
C636 C637 1.349 . S
C636 C638 1.327 . S
C636 H661 0.950 . S
C637 C636 1.349 . S
C637 C653 1.349 . S
C638 C636 1.327 . S
C638 C657 1.429 . S
C638 H662 0.950 . S
C639 C656 1.574 . S
C639 C658 1.368 . S
C639 H663 0.949 . S
H640 C644 0.949 . S
C641 C642 1.349 . S
C641 C643 1.327 . S
C641 H664 0.950 . S
C642 C641 1.349 . S
C642 C654 1.349 . S
C643 C641 1.327 . S
C643 C659 1.429 . S
C643 H665 0.950 . S
C644 H640 0.949 . S
C644 C652 1.574 . S
C644 C660 1.368 . S
H645 C653 0.950 . S
H646 C651 0.950 . S
H647 C652 0.949 . S
H648 C654 0.950 . S
H649 C655 0.950 . S
H650 C656 0.949 . S
C651 H646 0.950 . S
C651 C653 1.327 . S
C651 C657 1.429 . S
C652 C644 1.574 . S
C652 H647 0.949 . S
C652 C658 1.368 . S
C653 C637 1.349 . S
C653 H645 0.950 . S
C653 C651 1.327 . S
C654 C642 1.349 . S
C654 H648 0.950 . S
C654 C655 1.327 . S
C655 H649 0.950 . S
C655 C654 1.327 . S
C655 C659 1.429 . S
C656 C639 1.574 . S
C656 H650 0.949 . S
C656 C660 1.368 . S
C657 C638 1.429 . S
C657 C651 1.429 . S
C657 C658 1.523 . S
C658 C639 1.368 . S
C658 C652 1.368 . S
C658 C657 1.523 . S
C659 C643 1.429 . S
C659 C655 1.429 . S
C659 C660 1.523 . S
C660 C644 1.368 . S
C660 C656 1.368 . S
C660 C659 1.523 . S
H661 C636 0.950 . S
H662 C638 0.950 . S
H663 C639 0.949 . S
H664 C641 0.950 . S
H665 C643 0.950 . S
C666 C667 1.349 . S
C666 C668 1.327 . S
C666 H691 0.950 . S
C667 C666 1.349 . S
C667 C683 1.349 . S
C668 C666 1.327 . S
C668 C687 1.429 . S
C668 H692 0.950 . S
C669 C686 1.574 . S
C669 C688 1.368 . S
C669 H693 0.949 . S
H670 C674 0.949 . S
C671 C672 1.349 . S
C671 C673 1.327 . S
C671 H694 0.950 . S
C672 C671 1.349 . S
C672 C684 1.349 . S
C673 C671 1.327 . S
C673 C689 1.429 . S
C673 H695 0.950 . S
C674 H670 0.949 . S
C674 C682 1.574 . S
C674 C690 1.368 . S
H675 C683 0.950 . S
H676 C681 0.950 . S
H677 C682 0.949 . S
H678 C684 0.950 . S
H679 C685 0.950 . S
H680 C686 0.949 . S
C681 H676 0.950 . S
C681 C683 1.327 . S
C681 C687 1.429 . S
C682 C674 1.574 . S
C682 H677 0.949 . S
C682 C688 1.368 . S
C683 C667 1.349 . S
C683 H675 0.950 . S
C683 C681 1.327 . S
C684 C672 1.349 . S
C684 H678 0.950 . S
C684 C685 1.327 . S
C685 H679 0.950 . S
C685 C684 1.327 . S
C685 C689 1.429 . S
C686 C669 1.574 . S
C686 H680 0.949 . S
C686 C690 1.368 . S
C687 C668 1.429 . S
C687 C681 1.429 . S
C687 C688 1.523 . S
C688 C669 1.368 . S
C688 C682 1.368 . S
C688 C687 1.523 . S
C689 C673 1.429 . S
C689 C685 1.429 . S
C689 C690 1.523 . S
C690 C674 1.368 . S
C690 C686 1.368 . S
C690 C689 1.523 . S
H691 C666 0.950 . S
H692 C668 0.950 . S
H693 C669 0.949 . S
H694 C671 0.950 . S
H695 C673 0.950 . S
C696 C697 1.349 1_655 S
C696 C698 1.327 . S
C696 H721 0.950 . S
C697 C696 1.349 1_455 S
C697 C713 1.349 . S
C698 C696 1.327 . S
C698 C717 1.429 1_655 S
C698 H722 0.950 . S
C699 C716 1.574 . S
C699 C718 1.368 . S
C699 H723 0.949 . S
H700 C704 0.949 1_655 S
C701 C702 1.349 . S
C701 C703 1.327 . S
C701 H724 0.950 . S
C702 C701 1.349 . S
C702 C714 1.349 . S
C703 C701 1.327 . S
C703 C719 1.429 . S
C703 H725 0.950 . S
C704 H700 0.949 1_455 S
C704 C712 1.574 . S
C704 C720 1.368 . S
H705 C713 0.950 . S
H706 C711 0.950 . S
H707 C712 0.949 1_655 S
H708 C714 0.950 . S
H709 C715 0.950 . S
H710 C716 0.949 . S
C711 H706 0.950 . S
C711 C713 1.327 . S
C711 C717 1.429 . S
C712 C704 1.574 . S
C712 H707 0.949 1_455 S
C712 C718 1.368 . S
C713 C697 1.349 . S
C713 H705 0.950 . S
C713 C711 1.327 . S
C714 C702 1.349 . S
C714 H708 0.950 . S
C714 C715 1.327 . S
C715 H709 0.950 . S
C715 C714 1.327 . S
C715 C719 1.429 . S
C716 C699 1.574 . S
C716 H710 0.949 . S
C716 C720 1.368 . S
C717 C698 1.429 1_455 S
C717 C711 1.429 . S
C717 C718 1.523 . S
C718 C699 1.368 . S
C718 C712 1.368 . S
C718 C717 1.523 . S
C719 C703 1.429 . S
C719 C715 1.429 . S
C719 C720 1.523 . S
C720 C704 1.368 . S
C720 C716 1.368 . S
C720 C719 1.523 . S
H721 C696 0.950 . S
H722 C698 0.950 . S
H723 C699 0.949 . S
H724 C701 0.950 . S
H725 C703 0.950 . S
C726 C727 1.349 . S
C726 C728 1.327 . S
C726 H751 0.950 . S
C727 C726 1.349 . S
C727 C743 1.349 . S
C728 C726 1.327 . S
C728 C747 1.429 . S
C728 H752 0.950 . S
C729 C746 1.574 . S
C729 C748 1.368 . S
C729 H753 0.949 . S
H730 C734 0.949 . S
C731 C732 1.349 . S
C731 C733 1.327 . S
C731 H754 0.950 . S
C732 C731 1.349 . S
C732 C744 1.349 . S
C733 C731 1.327 . S
C733 C749 1.429 . S
C733 H755 0.950 . S
C734 H730 0.949 . S
C734 C742 1.574 . S
C734 C750 1.368 . S
H735 C743 0.950 . S
H736 C741 0.950 . S
H737 C742 0.949 . S
H738 C744 0.950 . S
H739 C745 0.950 . S
H740 C746 0.949 . S
C741 H736 0.950 . S
C741 C743 1.327 . S
C741 C747 1.429 . S
C742 C734 1.574 . S
C742 H737 0.949 . S
C742 C748 1.368 . S
C743 C727 1.349 . S
C743 H735 0.950 . S
C743 C741 1.327 . S
C744 C732 1.349 . S
C744 H738 0.950 . S
C744 C745 1.327 . S
C745 H739 0.950 . S
C745 C744 1.327 . S
C745 C749 1.429 . S
C746 C729 1.574 . S
C746 H740 0.949 . S
C746 C750 1.368 . S
C747 C728 1.429 . S
C747 C741 1.429 . S
C747 C748 1.523 . S
C748 C729 1.368 . S
C748 C742 1.368 . S
C748 C747 1.523 . S
C749 C733 1.429 . S
C749 C745 1.429 . S
C749 C750 1.523 . S
C750 C734 1.368 . S
C750 C746 1.368 . S
C750 C749 1.523 . S
H751 C726 0.950 . S
H752 C728 0.950 . S
H753 C729 0.949 . S
H754 C731 0.950 . S
H755 C733 0.950 . S
C756 C757 1.349 . S
C756 C758 1.327 . S
C756 H781 0.950 . S
C757 C756 1.349 . S
C757 C773 1.349 . S
C758 C756 1.327 . S
C758 C777 1.429 . S
C758 H782 0.950 . S
C759 C776 1.574 . S
C759 C778 1.368 . S
C759 H783 0.949 . S
H760 C764 0.949 . S
C761 C762 1.349 . S
C761 C763 1.327 . S
C761 H784 0.950 . S
C762 C761 1.349 . S
C762 C774 1.349 . S
C763 C761 1.327 . S
C763 C779 1.429 . S
C763 H785 0.950 . S
C764 H760 0.949 . S
C764 C772 1.574 . S
C764 C780 1.368 . S
H765 C773 0.950 . S
H766 C771 0.950 . S
H767 C772 0.949 . S
H768 C774 0.950 . S
H769 C775 0.950 . S
H770 C776 0.949 . S
C771 H766 0.950 . S
C771 C773 1.327 . S
C771 C777 1.429 . S
C772 C764 1.574 . S
C772 H767 0.949 . S
C772 C778 1.368 . S
C773 C757 1.349 . S
C773 H765 0.950 . S
C773 C771 1.327 . S
C774 C762 1.349 . S
C774 H768 0.950 . S
C774 C775 1.327 . S
C775 H769 0.950 . S
C775 C774 1.327 . S
C775 C779 1.429 . S
C776 C759 1.574 . S
C776 H770 0.949 . S
C776 C780 1.368 . S
C777 C758 1.429 . S
C777 C771 1.429 . S
C777 C778 1.523 . S
C778 C759 1.368 . S
C778 C772 1.368 . S
C778 C777 1.523 . S
C779 C763 1.429 . S
C779 C775 1.429 . S
C779 C780 1.523 . S
C780 C764 1.368 . S
C780 C776 1.368 . S
C780 C779 1.523 . S
H781 C756 0.950 . S
H782 C758 0.950 . S
H783 C759 0.949 . S
H784 C761 0.950 . S
H785 C763 0.950 . S
C786 C787 1.349 . S
C786 C788 1.327 . S
C786 H811 0.950 . S
C787 C786 1.349 . S
C787 C803 1.349 . S
C788 C786 1.327 . S
C788 C807 1.429 . S
C788 H812 0.950 . S
C789 C806 1.569 . S
C789 C808 1.368 . S
C789 H813 0.949 . S
H790 C794 0.949 1_655 S
C791 C792 1.349 . S
C791 C793 1.327 . S
C791 H814 0.950 . S
C792 C791 1.349 . S
C792 C804 1.349 . S
C793 C791 1.327 . S
C793 C809 1.429 . S
C793 H815 0.950 . S
C794 H790 0.949 1_455 S
C794 C802 1.574 . S
C794 C810 1.368 1_455 S
H795 C803 0.950 . S
H796 C801 0.950 . S
H797 C802 0.949 . S
H798 C804 0.950 . S
H799 C805 0.950 . S
H800 C806 0.952 1_655 S
C801 H796 0.950 . S
C801 C803 1.327 . S
C801 C807 1.429 . S
C802 C794 1.574 . S
C802 H797 0.949 . S
C802 C808 1.368 . S
C803 C787 1.349 . S
C803 H795 0.950 . S
C803 C801 1.327 . S
C804 C792 1.349 . S
C804 H798 0.950 . S
C804 C805 1.327 . S
C805 H799 0.950 . S
C805 C804 1.327 . S
C805 C809 1.429 . S
C806 C789 1.569 . S
C806 H800 0.952 1_455 S
C806 C810 1.370 1_455 S
C807 C788 1.429 . S
C807 C801 1.429 . S
C807 C808 1.523 . S
C808 C789 1.368 . S
C808 C802 1.368 . S
C808 C807 1.523 . S
C809 C793 1.429 . S
C809 C805 1.429 . S
C809 C810 1.523 . S
C810 C794 1.368 1_655 S
C810 C806 1.370 1_655 S
C810 C809 1.523 . S
H811 C786 0.950 . S
H812 C788 0.950 . S
H813 C789 0.949 . S
H814 C791 0.950 . S
H815 C793 0.950 . S
C816 C817 1.349 . S
C816 C818 1.327 . S
C816 H841 0.950 . S
C817 C816 1.349 . S
C817 C833 1.349 1_565 S
C818 C816 1.327 . S
C818 C837 1.429 . S
C818 H842 0.950 . S
C819 C836 1.574 . S
C819 C838 1.368 1_545 S
C819 H843 0.949 1_455 S
H820 C824 0.949 . S
C821 C822 1.349 . S
C821 C823 1.327 . S
C821 H844 0.950 1_455 S
C822 C821 1.349 . S
C822 C834 1.349 1_545 S
C823 C821 1.327 . S
C823 C839 1.429 . S
C823 H845 0.950 1_455 S
C824 H820 0.949 . S
C824 C832 1.574 . S
C824 C840 1.368 1_565 S
H825 C833 0.950 1_655 S
H826 C831 0.950 1_655 S
H827 C832 0.949 . S
H828 C834 0.950 . S
H829 C835 0.950 . S
H830 C836 0.949 1_655 S
C831 H826 0.950 1_455 S
C831 C833 1.327 . S
C831 C837 1.429 1_545 S
C832 C824 1.574 . S
C832 H827 0.949 . S
C832 C838 1.368 . S
C833 C817 1.349 1_545 S
C833 H825 0.950 1_455 S
C833 C831 1.327 . S
C834 C822 1.349 1_565 S
C834 H828 0.950 . S
C834 C835 1.327 . S
C835 H829 0.950 . S
C835 C834 1.327 . S
C835 C839 1.429 1_565 S
C836 C819 1.574 . S
C836 H830 0.949 1_455 S
C836 C840 1.368 . S
C837 C818 1.429 . S
C837 C831 1.429 1_565 S
C837 C838 1.523 . S
C838 C819 1.368 1_565 S
C838 C832 1.368 . S
C838 C837 1.523 . S
C839 C823 1.429 . S
C839 C835 1.429 1_545 S
C839 C840 1.523 . S
C840 C824 1.368 1_545 S
C840 C836 1.368 . S
C840 C839 1.523 . S
H841 C816 0.950 . S
H842 C818 0.950 . S
H843 C819 0.949 1_655 S
H844 C821 0.950 1_655 S
H845 C823 0.950 1_655 S
C846 C847 1.349 . S
C846 C848 1.327 . S
C846 H871 0.950 . S
C847 C846 1.349 . S
C847 C863 1.349 . S
C848 C846 1.327 . S
C848 C867 1.429 . S
C848 H872 0.950 . S
C849 C866 1.574 . S
C849 C868 1.368 . S
C849 H873 0.949 . S
H850 C854 0.949 . S
C851 C852 1.349 . S
C851 C853 1.327 . S
C851 H874 0.950 . S
C852 C851 1.349 . S
C852 C864 1.349 . S
C853 C851 1.327 . S
C853 C869 1.429 . S
C853 H875 0.950 . S
C854 H850 0.949 . S
C854 C862 1.574 . S
C854 C870 1.368 . S
H855 C863 0.950 . S
H856 C861 0.950 . S
H857 C862 0.949 . S
H858 C864 0.950 . S
H859 C865 0.950 . S
H860 C866 0.949 . S
C861 H856 0.950 . S
C861 C863 1.327 . S
C861 C867 1.429 . S
C862 C854 1.574 . S
C862 H857 0.949 . S
C862 C868 1.368 . S
C863 C847 1.349 . S
C863 H855 0.950 . S
C863 C861 1.327 . S
C864 C852 1.349 . S
C864 H858 0.950 . S
C864 C865 1.327 . S
C865 H859 0.950 . S
C865 C864 1.327 . S
C865 C869 1.429 . S
C866 C849 1.574 . S
C866 H860 0.949 . S
C866 C870 1.368 . S
C867 C848 1.429 . S
C867 C861 1.429 . S
C867 C868 1.523 . S
C868 C849 1.368 . S
C868 C862 1.368 . S
C868 C867 1.523 . S
C869 C853 1.429 . S
C869 C865 1.429 . S
C869 C870 1.523 . S
C870 C854 1.368 . S
C870 C866 1.368 . S
C870 C869 1.523 . S
H871 C846 0.950 . S
H872 C848 0.950 . S
H873 C849 0.949 . S
H874 C851 0.950 . S
H875 C853 0.950 . S
C876 C877 1.349 . S
C876 C878 1.327 . S
C876 H901 0.950 . S
C877 C876 1.349 . S
C877 C893 1.349 1_565 S
C878 C876 1.327 . S
C878 C897 1.429 . S
C878 H902 0.950 . S
C879 C896 1.574 1_554 S
C879 C898 1.368 1_545 S
C879 H903 0.949 . S
H880 C884 0.949 . S
C881 C882 1.349 . S
C881 C883 1.327 . S
C881 H904 0.950 . S
C882 C881 1.349 . S
C882 C894 1.349 1_545 S
C883 C881 1.327 . S
C883 C899 1.429 . S
C883 H905 0.950 . S
C884 H880 0.949 . S
C884 C892 1.574 1_556 S
C884 C900 1.368 1_565 S
H885 C893 0.950 . S
H886 C891 0.950 . S
H887 C892 0.949 . S
H888 C894 0.950 . S
H889 C895 0.950 . S
H890 C896 0.949 . S
C891 H886 0.950 . S
C891 C893 1.327 . S
C891 C897 1.429 1_545 S
C892 C884 1.574 1_554 S
C892 H887 0.949 . S
C892 C898 1.368 . S
C893 C877 1.349 1_545 S
C893 H885 0.950 . S
C893 C891 1.327 . S
C894 C882 1.349 1_565 S
C894 H888 0.950 . S
C894 C895 1.327 . S
C895 H889 0.950 . S
C895 C894 1.327 . S
C895 C899 1.429 1_565 S
C896 C879 1.574 1_556 S
C896 H890 0.949 . S
C896 C900 1.368 . S
C897 C878 1.429 . S
C897 C891 1.429 1_565 S
C897 C898 1.523 . S
C898 C879 1.368 1_565 S
C898 C892 1.368 . S
C898 C897 1.523 . S
C899 C883 1.429 . S
C899 C895 1.429 1_545 S
C899 C900 1.523 . S
C900 C884 1.368 1_545 S
C900 C896 1.368 . S
C900 C899 1.523 . S
H901 C876 0.950 . S
H902 C878 0.950 . S
H903 C879 0.949 . S
H904 C881 0.950 . S
H905 C883 0.950 . S
C906 C907 1.349 . S
C906 C908 1.327 . S
C906 H931 0.950 . S
C907 C906 1.349 . S
C907 C923 1.349 . S
C908 C906 1.327 . S
C908 C927 1.429 . S
C908 H932 0.950 . S
C909 C926 1.574 . S
C909 C928 1.368 . S
C909 H933 0.949 . S
H910 C914 0.949 . S
C911 C912 1.349 . S
C911 C913 1.327 . S
C911 H934 0.950 . S
C912 C911 1.349 . S
C912 C924 1.349 . S
C913 C911 1.327 . S
C913 C929 1.429 . S
C913 H935 0.950 . S
C914 H910 0.949 . S
C914 C922 1.574 . S
C914 C930 1.368 . S
H915 C923 0.950 . S
H916 C921 0.950 . S
H917 C922 0.949 . S
H918 C924 0.950 . S
H919 C925 0.950 . S
H920 C926 0.949 . S
C921 H916 0.950 . S
C921 C923 1.327 . S
C921 C927 1.429 . S
C922 C914 1.574 . S
C922 H917 0.949 . S
C922 C928 1.368 . S
C923 C907 1.349 . S
C923 H915 0.950 . S
C923 C921 1.327 . S
C924 C912 1.349 . S
C924 H918 0.950 . S
C924 C925 1.327 . S
C925 H919 0.950 . S
C925 C924 1.327 . S
C925 C929 1.429 . S
C926 C909 1.574 . S
C926 H920 0.949 . S
C926 C930 1.368 . S
C927 C908 1.429 . S
C927 C921 1.429 . S
C927 C928 1.523 . S
C928 C909 1.368 . S
C928 C922 1.368 . S
C928 C927 1.523 . S
C929 C913 1.429 . S
C929 C925 1.429 . S
C929 C930 1.523 . S
C930 C914 1.368 . S
C930 C926 1.368 . S
C930 C929 1.523 . S
H931 C906 0.950 . S
H932 C908 0.950 . S
H933 C909 0.949 . S
H934 C911 0.950 . S
H935 C913 0.950 . S
C936 C937 1.349 . S
C936 C938 1.327 . S
C936 H961 0.950 . S
C937 C936 1.349 . S
C937 C953 1.349 . S
C938 C936 1.327 . S
C938 C957 1.429 . S
C938 H962 0.950 . S
C939 C956 1.574 . S
C939 C958 1.368 . S
C939 H963 0.949 . S
H940 C944 0.949 . S
C941 C942 1.349 . S
C941 C943 1.327 . S
C941 H964 0.950 . S
C942 C941 1.349 . S
C942 C954 1.349 . S
C943 C941 1.327 . S
C943 C959 1.429 . S
C943 H965 0.950 . S
C944 H940 0.949 . S
C944 C952 1.574 . S
C944 C960 1.368 . S
H945 C953 0.950 . S
H946 C951 0.950 . S
H947 C952 0.949 . S
H948 C954 0.950 . S
H949 C955 0.950 . S
H950 C956 0.949 . S
C951 H946 0.950 . S
C951 C953 1.327 . S
C951 C957 1.429 . S
C952 C944 1.574 . S
C952 H947 0.949 . S
C952 C958 1.368 . S
C953 C937 1.349 . S
C953 H945 0.950 . S
C953 C951 1.327 . S
C954 C942 1.349 . S
C954 H948 0.950 . S
C954 C955 1.327 . S
C955 H949 0.950 . S
C955 C954 1.327 . S
C955 C959 1.429 . S
C956 C939 1.574 . S
C956 H950 0.949 . S
C956 C960 1.368 . S
C957 C938 1.429 . S
C957 C951 1.429 . S
C957 C958 1.523 . S
C958 C939 1.368 . S
C958 C952 1.368 . S
C958 C957 1.523 . S
C959 C943 1.429 . S
C959 C955 1.429 . S
C959 C960 1.523 . S
C960 C944 1.368 . S
C960 C956 1.368 . S
C960 C959 1.523 . S
H961 C936 0.950 . S
H962 C938 0.950 . S
H963 C939 0.949 . S
H964 C941 0.950 . S
H965 C943 0.950 . S
C966 C967 1.349 . S
C966 C968 1.327 . S
C966 H991 0.950 . S
C967 C966 1.349 . S
C967 C983 1.349 . S
C968 C966 1.327 . S
C968 C987 1.429 . S
C968 H992 0.950 . S
C969 C986 1.574 . S
C969 C988 1.368 . S
C969 H993 0.949 . S
H970 C974 0.949 . S
C971 C972 1.349 . S
C971 C973 1.327 . S
C971 H994 0.950 . S
C972 C971 1.349 . S
C972 C984 1.349 . S
C973 C971 1.327 . S
C973 C989 1.429 . S
C973 H995 0.950 . S
C974 H970 0.949 . S
C974 C982 1.574 . S
C974 C990 1.368 . S
H975 C983 0.950 . S
H976 C981 0.950 . S
H977 C982 0.949 . S
H978 C984 0.950 . S
H979 C985 0.950 . S
H980 C986 0.949 . S
C981 H976 0.950 . S
C981 C983 1.327 . S
C981 C987 1.429 . S
C982 C974 1.574 . S
C982 H977 0.949 . S
C982 C988 1.368 . S
C983 C967 1.349 . S
C983 H975 0.950 . S
C983 C981 1.327 . S
C984 C972 1.349 . S
C984 H978 0.950 . S
C984 C985 1.327 . S
C985 H979 0.950 . S
C985 C984 1.327 . S
C985 C989 1.429 . S
C986 C969 1.574 . S
C986 H980 0.949 . S
C986 C990 1.368 . S
C987 C968 1.429 . S
C987 C981 1.429 . S
C987 C988 1.523 . S
C988 C969 1.368 . S
C988 C982 1.368 . S
C988 C987 1.523 . S
C989 C973 1.429 . S
C989 C985 1.429 . S
C989 C990 1.523 . S
C990 C974 1.368 . S
C990 C986 1.368 . S
C990 C989 1.523 . S
H991 C966 0.950 . S
H992 C968 0.950 . S
H993 C969 0.949 . S
H994 C971 0.950 . S
H995 C973 0.950 . S
C996 C997 1.349 . S
C996 C998 1.327 . S
C996 H1021 0.950 . S
C997 C996 1.349 . S
C997 C1013 1.349 . S
C998 C996 1.327 . S
C998 C1017 1.429 . S
C998 H1022 0.950 . S
C999 C1016 1.574 1_556 S
C999 C1018 1.368 . S
C999 H1023 0.949 . S
H1000 C1004 0.949 . S
C1001 C1002 1.349 . S
C1001 C1003 1.327 . S
C1001 H1024 0.950 . S
C1002 C1001 1.349 . S
C1002 C1014 1.349 . S
C1003 C1001 1.327 . S
C1003 C1019 1.429 . S
C1003 H1025 0.950 . S
C1004 H1000 0.949 . S
C1004 C1012 1.574 1_554 S
C1004 C1020 1.368 . S
H1005 C1013 0.950 . S
H1006 C1011 0.950 . S
H1007 C1012 0.949 . S
H1008 C1014 0.950 . S
H1009 C1015 0.950 . S
H1010 C1016 0.949 . S
C1011 H1006 0.950 . S
C1011 C1013 1.327 . S
C1011 C1017 1.429 . S
C1012 C1004 1.574 1_556 S
C1012 H1007 0.949 . S
C1012 C1018 1.368 . S
C1013 C997 1.349 . S
C1013 H1005 0.950 . S
C1013 C1011 1.327 . S
C1014 C1002 1.349 . S
C1014 H1008 0.950 . S
C1014 C1015 1.327 . S
C1015 H1009 0.950 . S
C1015 C1014 1.327 . S
C1015 C1019 1.429 . S
C1016 C999 1.574 1_554 S
C1016 H1010 0.949 . S
C1016 C1020 1.368 . S
C1017 C998 1.429 . S
C1017 C1011 1.429 . S
C1017 C1018 1.523 . S
C1018 C999 1.368 . S
C1018 C1012 1.368 . S
C1018 C1017 1.523 . S
C1019 C1003 1.429 . S
C1019 C1015 1.429 . S
C1019 C1020 1.523 . S
C1020 C1004 1.368 . S
C1020 C1016 1.368 . S
C1020 C1019 1.523 . S
H1021 C996 0.950 . S
H1022 C998 0.950 . S
H1023 C999 0.949 . S
H1024 C1001 0.950 . S
H1025 C1003 0.950 . S
C1026 C1027 1.349 . S
C1026 C1028 1.327 . S
C1026 H1051 0.950 1_455 S
C1027 C1026 1.349 . S
C1027 C1043 1.349 . S
C1028 C1026 1.327 . S
C1028 C1047 1.429 . S
C1028 H1052 0.950 1_455 S
C1029 C1046 1.574 . S
C1029 C1048 1.368 . S
C1029 H1053 0.949 . S
H1030 C1034 0.949 1_655 S
C1031 C1032 1.349 . S
C1031 C1033 1.327 . S
C1031 H1054 0.950 . S
C1032 C1031 1.349 . S
C1032 C1044 1.349 . S
C1033 C1031 1.327 . S
C1033 C1049 1.429 . S
C1033 H1055 0.950 . S
C1034 H1030 0.949 1_455 S
C1034 C1042 1.574 . S
C1034 C1050 1.368 . S
H1035 C1043 0.950 . S
H1036 C1041 0.950 . S
H1037 C1042 0.949 1_655 S
H1038 C1044 0.950 1_655 S
H1039 C1045 0.950 1_655 S
H1040 C1046 0.949 . S
C1041 H1036 0.950 . S
C1041 C1043 1.327 . S
C1041 C1047 1.429 . S
C1042 C1034 1.574 . S
C1042 H1037 0.949 1_455 S
C1042 C1048 1.368 . S
C1043 C1027 1.349 . S
C1043 H1035 0.950 . S
C1043 C1041 1.327 . S
C1044 C1032 1.349 . S
C1044 H1038 0.950 1_455 S
C1044 C1045 1.327 . S
C1045 H1039 0.950 1_455 S
C1045 C1044 1.327 . S
C1045 C1049 1.429 . S
C1046 C1029 1.574 . S
C1046 H1040 0.949 . S
C1046 C1050 1.368 . S
C1047 C1028 1.429 . S
C1047 C1041 1.429 . S
C1047 C1048 1.523 . S
C1048 C1029 1.368 . S
C1048 C1042 1.368 . S
C1048 C1047 1.523 . S
C1049 C1033 1.429 . S
C1049 C1045 1.429 . S
C1049 C1050 1.523 . S
C1050 C1034 1.368 . S
C1050 C1046 1.368 . S
C1050 C1049 1.523 . S
H1051 C1026 0.950 1_655 S
H1052 C1028 0.950 1_655 S
H1053 C1029 0.949 . S
H1054 C1031 0.950 . S
H1055 C1033 0.950 . S
C1056 C1057 1.349 . S
C1056 C1058 1.327 . S
C1056 H1081 0.950 . S
C1057 C1056 1.349 . S
C1057 C1073 1.349 . S
C1058 C1056 1.327 . S
C1058 C1077 1.429 . S
C1058 H1082 0.950 . S
C1059 C1076 1.574 . S
C1059 C1078 1.368 . S
C1059 H1083 0.949 . S
H1060 C1064 0.949 . S
C1061 C1062 1.349 . S
C1061 C1063 1.327 . S
C1061 H1084 0.950 1_565 S
C1062 C1061 1.349 . S
C1062 C1074 1.349 . S
C1063 C1061 1.327 . S
C1063 C1079 1.429 . S
C1063 H1085 0.950 . S
C1064 H1060 0.949 . S
C1064 C1072 1.574 . S
C1064 C1080 1.368 . S
H1065 C1073 0.950 . S
H1066 C1071 0.950 . S
H1067 C1072 0.949 . S
H1068 C1074 0.950 . S
H1069 C1075 0.950 . S
H1070 C1076 0.949 . S
C1071 H1066 0.950 . S
C1071 C1073 1.327 . S
C1071 C1077 1.429 . S
C1072 C1064 1.574 . S
C1072 H1067 0.949 . S
C1072 C1078 1.368 . S
C1073 C1057 1.349 . S
C1073 H1065 0.950 . S
C1073 C1071 1.327 . S
C1074 C1062 1.349 . S
C1074 H1068 0.950 . S
C1074 C1075 1.327 . S
C1075 H1069 0.950 . S
C1075 C1074 1.327 . S
C1075 C1079 1.429 . S
C1076 C1059 1.574 . S
C1076 H1070 0.949 . S
C1076 C1080 1.368 . S
C1077 C1058 1.429 . S
C1077 C1071 1.429 . S
C1077 C1078 1.523 . S
C1078 C1059 1.368 . S
C1078 C1072 1.368 . S
C1078 C1077 1.523 . S
C1079 C1063 1.429 . S
C1079 C1075 1.429 . S
C1079 C1080 1.523 . S
C1080 C1064 1.368 . S
C1080 C1076 1.368 . S
C1080 C1079 1.523 . S
H1081 C1056 0.950 . S
H1082 C1058 0.950 . S
H1083 C1059 0.949 . S
H1084 C1061 0.950 1_545 S
H1085 C1063 0.950 . S
C1086 C1087 1.349 . S
C1086 C1088 1.327 . S
C1086 H1111 0.950 . S
C1087 C1086 1.349 . S
C1087 C1103 1.349 . S
C1088 C1086 1.327 . S
C1088 C1107 1.429 . S
C1088 H1112 0.950 . S
C1089 C1106 1.574 . S
C1089 C1108 1.368 . S
C1089 H1113 0.949 . S
H1090 C1094 0.949 . S
C1091 C1092 1.349 . S
C1091 C1093 1.327 . S
C1091 H1114 0.950 . S
C1092 C1091 1.349 . S
C1092 C1104 1.349 . S
C1093 C1091 1.327 . S
C1093 C1109 1.429 . S
C1093 H1115 0.950 . S
C1094 H1090 0.949 . S
C1094 C1102 1.574 . S
C1094 C1110 1.368 . S
H1095 C1103 0.950 . S
H1096 C1101 0.950 . S
H1097 C1102 0.949 . S
H1098 C1104 0.950 . S
H1099 C1105 0.950 . S
H1100 C1106 0.949 . S
C1101 H1096 0.950 . S
C1101 C1103 1.327 . S
C1101 C1107 1.429 . S
C1102 C1094 1.574 . S
C1102 H1097 0.949 . S
C1102 C1108 1.368 . S
C1103 C1087 1.349 . S
C1103 H1095 0.950 . S
C1103 C1101 1.327 . S
C1104 C1092 1.349 . S
C1104 H1098 0.950 . S
C1104 C1105 1.327 . S
C1105 H1099 0.950 . S
C1105 C1104 1.327 . S
C1105 C1109 1.429 . S
C1106 C1089 1.574 . S
C1106 H1100 0.949 . S
C1106 C1110 1.368 . S
C1107 C1088 1.429 . S
C1107 C1101 1.429 . S
C1107 C1108 1.523 . S
C1108 C1089 1.368 . S
C1108 C1102 1.368 . S
C1108 C1107 1.523 . S
C1109 C1093 1.429 . S
C1109 C1105 1.429 . S
C1109 C1110 1.523 . S
C1110 C1094 1.368 . S
C1110 C1106 1.368 . S
C1110 C1109 1.523 . S
H1111 C1086 0.950 . S
H1112 C1088 0.950 . S
H1113 C1089 0.949 . S
H1114 C1091 0.950 . S
H1115 C1093 0.950 . S
C1116 C1117 1.349 . S
C1116 C1118 1.327 . S
C1116 H1141 0.950 . S
C1117 C1116 1.349 . S
C1117 C1133 1.349 . S
C1118 C1116 1.327 . S
C1118 C1137 1.429 . S
C1118 H1142 0.950 . S
C1119 C1136 1.574 . S
C1119 C1138 1.368 . S
C1119 H1143 0.949 . S
H1120 C1124 0.949 . S
C1121 C1122 1.349 . S
C1121 C1123 1.327 . S
C1121 H1144 0.950 . S
C1122 C1121 1.349 . S
C1122 C1134 1.349 . S
C1123 C1121 1.327 . S
C1123 C1139 1.429 . S
C1123 H1145 0.950 . S
C1124 H1120 0.949 . S
C1124 C1132 1.574 . S
C1124 C1140 1.368 . S
H1125 C1133 0.950 . S
H1126 C1131 0.950 . S
H1127 C1132 0.949 . S
H1128 C1134 0.950 . S
H1129 C1135 0.950 . S
H1130 C1136 0.949 . S
C1131 H1126 0.950 . S
C1131 C1133 1.327 . S
C1131 C1137 1.429 . S
C1132 C1124 1.574 . S
C1132 H1127 0.949 . S
C1132 C1138 1.368 . S
C1133 C1117 1.349 . S
C1133 H1125 0.950 . S
C1133 C1131 1.327 . S
C1134 C1122 1.349 . S
C1134 H1128 0.950 . S
C1134 C1135 1.327 . S
C1135 H1129 0.950 . S
C1135 C1134 1.327 . S
C1135 C1139 1.429 . S
C1136 C1119 1.574 . S
C1136 H1130 0.949 . S
C1136 C1140 1.368 . S
C1137 C1118 1.429 . S
C1137 C1131 1.429 . S
C1137 C1138 1.523 . S
C1138 C1119 1.368 . S
C1138 C1132 1.368 . S
C1138 C1137 1.523 . S
C1139 C1123 1.429 . S
C1139 C1135 1.429 . S
C1139 C1140 1.523 . S
C1140 C1124 1.368 . S
C1140 C1136 1.368 . S
C1140 C1139 1.523 . S
H1141 C1116 0.950 . S
H1142 C1118 0.950 . S
H1143 C1119 0.949 . S
H1144 C1121 0.950 . S
H1145 C1123 0.950 . S
C1146 C1147 1.349 . S
C1146 C1148 1.327 . S
C1146 H1171 0.950 . S
C1147 C1146 1.349 . S
C1147 C1163 1.349 . S
C1148 C1146 1.327 . S
C1148 C1167 1.429 . S
C1148 H1172 0.950 . S
C1149 C1166 1.574 . S
C1149 C1168 1.368 . S
C1149 H1173 0.949 . S
H1150 C1154 0.949 . S
C1151 C1152 1.349 . S
C1151 C1153 1.327 . S
C1151 H1174 0.950 . S
C1152 C1151 1.349 . S
C1152 C1164 1.349 . S
C1153 C1151 1.327 . S
C1153 C1169 1.429 . S
C1153 H1175 0.950 . S
C1154 H1150 0.949 . S
C1154 C1162 1.574 . S
C1154 C1170 1.368 . S
H1155 C1163 0.950 . S
H1156 C1161 0.950 . S
H1157 C1162 0.949 . S
H1158 C1164 0.950 . S
H1159 C1165 0.950 . S
H1160 C1166 0.949 . S
C1161 H1156 0.950 . S
C1161 C1163 1.327 . S
C1161 C1167 1.429 . S
C1162 C1154 1.574 . S
C1162 H1157 0.949 . S
C1162 C1168 1.368 . S
C1163 C1147 1.349 . S
C1163 H1155 0.950 . S
C1163 C1161 1.327 . S
C1164 C1152 1.349 . S
C1164 H1158 0.950 . S
C1164 C1165 1.327 . S
C1165 H1159 0.950 . S
C1165 C1164 1.327 . S
C1165 C1169 1.429 . S
C1166 C1149 1.574 . S
C1166 H1160 0.949 . S
C1166 C1170 1.368 . S
C1167 C1148 1.429 . S
C1167 C1161 1.429 . S
C1167 C1168 1.523 . S
C1168 C1149 1.368 . S
C1168 C1162 1.368 . S
C1168 C1167 1.523 . S
C1169 C1153 1.429 . S
C1169 C1165 1.429 . S
C1169 C1170 1.523 . S
C1170 C1154 1.368 . S
C1170 C1166 1.368 . S
C1170 C1169 1.523 . S
H1171 C1146 0.950 . S
H1172 C1148 0.950 . S
H1173 C1149 0.949 . S
H1174 C1151 0.950 . S
H1175 C1153 0.950 . S
C1176 C1177 1.349 . S
C1176 C1178 1.327 . S
C1176 H1201 0.950 . S
C1177 C1176 1.349 . S
C1177 C1193 1.349 1_545 S
C1178 C1176 1.327 . S
C1178 C1197 1.429 . S
C1178 H1202 0.950 . S
C1179 C1196 1.574 . S
C1179 C1198 1.368 . S
C1179 H1203 0.949 . S
H1180 C1184 0.949 . S
C1181 C1182 1.349 . S
C1181 C1183 1.327 . S
C1181 H1204 0.950 . S
C1182 C1181 1.349 . S
C1182 C1194 1.349 . S
C1183 C1181 1.327 . S
C1183 C1199 1.429 . S
C1183 H1205 0.950 . S
C1184 H1180 0.949 . S
C1184 C1192 1.574 . S
C1184 C1200 1.368 . S
H1185 C1193 0.950 . S
H1186 C1191 0.950 . S
H1187 C1192 0.949 . S
H1188 C1194 0.950 . S
H1189 C1195 0.950 . S
H1190 C1196 0.949 . S
C1191 H1186 0.950 . S
C1191 C1193 1.327 1_545 S
C1191 C1197 1.429 . S
C1192 C1184 1.574 . S
C1192 H1187 0.949 . S
C1192 C1198 1.368 . S
C1193 C1177 1.349 1_565 S
C1193 H1185 0.950 . S
C1193 C1191 1.327 1_565 S
C1194 C1182 1.349 . S
C1194 H1188 0.950 . S
C1194 C1195 1.327 . S
C1195 H1189 0.950 . S
C1195 C1194 1.327 . S
C1195 C1199 1.429 . S
C1196 C1179 1.574 . S
C1196 H1190 0.949 . S
C1196 C1200 1.368 . S
C1197 C1178 1.429 . S
C1197 C1191 1.429 . S
C1197 C1198 1.523 . S
C1198 C1179 1.368 . S
C1198 C1192 1.368 . S
C1198 C1197 1.523 . S
C1199 C1183 1.429 . S
C1199 C1195 1.429 . S
C1199 C1200 1.523 . S
C1200 C1184 1.368 . S
C1200 C1196 1.368 . S
C1200 C1199 1.523 . S
H1201 C1176 0.950 . S
H1202 C1178 0.950 . S
H1203 C1179 0.949 . S
H1204 C1181 0.950 . S
H1205 C1183 0.950 . S
C1206 C1207 1.349 . S
C1206 C1208 1.327 . S
C1206 H1231 0.950 . S
C1207 C1206 1.349 . S
C1207 C1223 1.349 1_545 S
C1208 C1206 1.327 . S
C1208 C1227 1.429 . S
C1208 H1232 0.950 . S
C1209 C1226 1.574 . S
C1209 C1228 1.368 . S
C1209 H1233 0.949 . S
H1210 C1214 0.949 . S
C1211 C1212 1.349 . S
C1211 C1213 1.327 . S
C1211 H1234 0.950 . S
C1212 C1211 1.349 . S
C1212 C1224 1.349 . S
C1213 C1211 1.327 . S
C1213 C1229 1.429 . S
C1213 H1235 0.950 . S
C1214 H1210 0.949 . S
C1214 C1222 1.574 . S
C1214 C1230 1.368 . S
H1215 C1223 0.950 . S
H1216 C1221 0.950 . S
H1217 C1222 0.949 . S
H1218 C1224 0.950 . S
H1219 C1225 0.950 . S
H1220 C1226 0.949 . S
C1221 H1216 0.950 . S
C1221 C1223 1.327 1_545 S
C1221 C1227 1.429 . S
C1222 C1214 1.574 . S
C1222 H1217 0.949 . S
C1222 C1228 1.368 . S
C1223 C1207 1.349 1_565 S
C1223 H1215 0.950 . S
C1223 C1221 1.327 1_565 S
C1224 C1212 1.349 . S
C1224 H1218 0.950 . S
C1224 C1225 1.327 . S
C1225 H1219 0.950 . S
C1225 C1224 1.327 . S
C1225 C1229 1.429 . S
C1226 C1209 1.574 . S
C1226 H1220 0.949 . S
C1226 C1230 1.368 . S
C1227 C1208 1.429 . S
C1227 C1221 1.429 . S
C1227 C1228 1.523 . S
C1228 C1209 1.368 . S
C1228 C1222 1.368 . S
C1228 C1227 1.523 . S
C1229 C1213 1.429 . S
C1229 C1225 1.429 . S
C1229 C1230 1.523 . S
C1230 C1214 1.368 . S
C1230 C1226 1.368 . S
C1230 C1229 1.523 . S
H1231 C1206 0.950 . S
H1232 C1208 0.950 . S
H1233 C1209 0.949 . S
H1234 C1211 0.950 . S
H1235 C1213 0.950 . S
C1236 C1237 1.349 . S
C1236 C1238 1.327 . S
C1236 H1261 0.950 . S
C1237 C1236 1.349 . S
C1237 C1253 1.349 . S
C1238 C1236 1.327 . S
C1238 C1257 1.429 . S
C1238 H1262 0.950 . S
C1239 C1256 1.574 . S
C1239 C1258 1.368 . S
C1239 H1263 0.949 . S
H1240 C1244 0.949 . S
C1241 C1242 1.349 . S
C1241 C1243 1.327 . S
C1241 H1264 0.950 1_565 S
C1242 C1241 1.349 . S
C1242 C1254 1.349 . S
C1243 C1241 1.327 . S
C1243 C1259 1.429 . S
C1243 H1265 0.950 . S
C1244 H1240 0.949 . S
C1244 C1252 1.574 . S
C1244 C1260 1.368 . S
H1245 C1253 0.950 . S
H1246 C1251 0.950 . S
H1247 C1252 0.949 . S
H1248 C1254 0.950 . S
H1249 C1255 0.950 . S
H1250 C1256 0.949 . S
C1251 H1246 0.950 . S
C1251 C1253 1.327 . S
C1251 C1257 1.429 . S
C1252 C1244 1.574 . S
C1252 H1247 0.949 . S
C1252 C1258 1.368 . S
C1253 C1237 1.349 . S
C1253 H1245 0.950 . S
C1253 C1251 1.327 . S
C1254 C1242 1.349 . S
C1254 H1248 0.950 . S
C1254 C1255 1.327 . S
C1255 H1249 0.950 . S
C1255 C1254 1.327 . S
C1255 C1259 1.429 . S
C1256 C1239 1.574 . S
C1256 H1250 0.949 . S
C1256 C1260 1.368 . S
C1257 C1238 1.429 . S
C1257 C1251 1.429 . S
C1257 C1258 1.523 . S
C1258 C1239 1.368 . S
C1258 C1252 1.368 . S
C1258 C1257 1.523 . S
C1259 C1243 1.429 . S
C1259 C1255 1.429 . S
C1259 C1260 1.523 . S
C1260 C1244 1.368 . S
C1260 C1256 1.368 . S
C1260 C1259 1.523 . S
H1261 C1236 0.950 . S
H1262 C1238 0.950 . S
H1263 C1239 0.949 . S
H1264 C1241 0.950 1_545 S
H1265 C1243 0.950 . S
C1266 C1267 1.349 . S
C1266 C1268 1.327 . S
C1266 H1291 0.950 . S
C1267 C1266 1.349 . S
C1267 C1283 1.349 . S
C1268 C1266 1.327 . S
C1268 C1287 1.429 . S
C1268 H1292 0.950 . S
C1269 C1286 1.574 . S
C1269 C1288 1.368 . S
C1269 H1293 0.949 . S
H1270 C1274 0.949 . S
C1271 C1272 1.349 . S
C1271 C1273 1.327 . S
C1271 H1294 0.950 . S
C1272 C1271 1.349 . S
C1272 C1284 1.349 1_565 S
C1273 C1271 1.327 . S
C1273 C1289 1.429 . S
C1273 H1295 0.950 . S
C1274 H1270 0.949 . S
C1274 C1282 1.574 . S
C1274 C1290 1.368 . S
H1275 C1283 0.950 . S
H1276 C1281 0.950 . S
H1277 C1282 0.949 . S
H1278 C1284 0.950 . S
H1279 C1285 0.950 . S
H1280 C1286 0.949 . S
C1281 H1276 0.950 . S
C1281 C1283 1.327 . S
C1281 C1287 1.429 . S
C1282 C1274 1.574 . S
C1282 H1277 0.949 . S
C1282 C1288 1.368 . S
C1283 C1267 1.349 . S
C1283 H1275 0.950 . S
C1283 C1281 1.327 . S
C1284 C1272 1.349 1_545 S
C1284 H1278 0.950 . S
C1284 C1285 1.327 1_545 S
C1285 H1279 0.950 . S
C1285 C1284 1.327 1_565 S
C1285 C1289 1.429 . S
C1286 C1269 1.574 . S
C1286 H1280 0.949 . S
C1286 C1290 1.368 . S
C1287 C1268 1.429 . S
C1287 C1281 1.429 . S
C1287 C1288 1.523 . S
C1288 C1269 1.368 . S
C1288 C1282 1.368 . S
C1288 C1287 1.523 . S
C1289 C1273 1.429 . S
C1289 C1285 1.429 . S
C1289 C1290 1.523 . S
C1290 C1274 1.368 . S
C1290 C1286 1.368 . S
C1290 C1289 1.523 . S
H1291 C1266 0.950 . S
H1292 C1268 0.950 . S
H1293 C1269 0.949 . S
H1294 C1271 0.950 . S
H1295 C1273 0.950 . S
C1296 C1297 1.349 . S
C1296 C1298 1.327 . S
C1296 H1321 0.950 . S
C1297 C1296 1.349 . S
C1297 C1313 1.349 . S
C1298 C1296 1.327 . S
C1298 C1317 1.429 . S
C1298 H1322 0.950 . S
C1299 C1316 1.574 . S
C1299 C1318 1.368 . S
C1299 H1323 0.949 . S
H1300 C1304 0.949 . S
C1301 C1302 1.349 . S
C1301 C1303 1.327 . S
C1301 H1324 0.950 . S
C1302 C1301 1.349 . S
C1302 C1314 1.349 . S
C1303 C1301 1.327 . S
C1303 C1319 1.429 . S
C1303 H1325 0.950 . S
C1304 H1300 0.949 . S
C1304 C1312 1.574 . S
C1304 C1320 1.368 . S
H1305 C1313 0.950 . S
H1306 C1311 0.950 . S
H1307 C1312 0.949 . S
H1308 C1314 0.950 . S
H1309 C1315 0.950 . S
H1310 C1316 0.949 . S
C1311 H1306 0.950 . S
C1311 C1313 1.327 . S
C1311 C1317 1.429 . S
C1312 C1304 1.574 . S
C1312 H1307 0.949 . S
C1312 C1318 1.368 . S
C1313 C1297 1.349 . S
C1313 H1305 0.950 . S
C1313 C1311 1.327 . S
C1314 C1302 1.349 . S
C1314 H1308 0.950 . S
C1314 C1315 1.327 . S
C1315 H1309 0.950 . S
C1315 C1314 1.327 . S
C1315 C1319 1.429 . S
C1316 C1299 1.574 . S
C1316 H1310 0.949 . S
C1316 C1320 1.368 . S
C1317 C1298 1.429 . S
C1317 C1311 1.429 . S
C1317 C1318 1.523 . S
C1318 C1299 1.368 . S
C1318 C1312 1.368 . S
C1318 C1317 1.523 . S
C1319 C1303 1.429 . S
C1319 C1315 1.429 . S
C1319 C1320 1.523 . S
C1320 C1304 1.368 . S
C1320 C1316 1.368 . S
C1320 C1319 1.523 . S
H1321 C1296 0.950 . S
H1322 C1298 0.950 . S
H1323 C1299 0.949 . S
H1324 C1301 0.950 . S
H1325 C1303 0.950 . S
C1326 C1327 1.349 . S
C1326 C1328 1.327 . S
C1326 H1351 0.950 . S
C1327 C1326 1.349 . S
C1327 C1343 1.349 . S
C1328 C1326 1.327 . S
C1328 C1347 1.429 . S
C1328 H1352 0.950 . S
C1329 C1346 1.574 . S
C1329 C1348 1.368 . S
C1329 H1353 0.949 . S
H1330 C1334 0.949 . S
C1331 C1332 1.349 . S
C1331 C1333 1.327 . S
C1331 H1354 0.950 . S
C1332 C1331 1.349 . S
C1332 C1344 1.349 . S
C1333 C1331 1.327 . S
C1333 C1349 1.429 . S
C1333 H1355 0.950 . S
C1334 H1330 0.949 . S
C1334 C1342 1.574 . S
C1334 C1350 1.368 . S
H1335 C1343 0.950 . S
H1336 C1341 0.950 . S
H1337 C1342 0.949 . S
H1338 C1344 0.950 . S
H1339 C1345 0.950 . S
H1340 C1346 0.949 . S
C1341 H1336 0.950 . S
C1341 C1343 1.327 . S
C1341 C1347 1.429 . S
C1342 C1334 1.574 . S
C1342 H1337 0.949 . S
C1342 C1348 1.368 . S
C1343 C1327 1.349 . S
C1343 H1335 0.950 . S
C1343 C1341 1.327 . S
C1344 C1332 1.349 . S
C1344 H1338 0.950 . S
C1344 C1345 1.327 . S
C1345 H1339 0.950 . S
C1345 C1344 1.327 . S
C1345 C1349 1.429 . S
C1346 C1329 1.574 . S
C1346 H1340 0.949 . S
C1346 C1350 1.368 . S
C1347 C1328 1.429 . S
C1347 C1341 1.429 . S
C1347 C1348 1.523 . S
C1348 C1329 1.368 . S
C1348 C1342 1.368 . S
C1348 C1347 1.523 . S
C1349 C1333 1.429 . S
C1349 C1345 1.429 . S
C1349 C1350 1.523 . S
C1350 C1334 1.368 . S
C1350 C1346 1.368 . S
C1350 C1349 1.523 . S
H1351 C1326 0.950 . S
H1352 C1328 0.950 . S
H1353 C1329 0.949 . S
H1354 C1331 0.950 . S
H1355 C1333 0.950 . S
C1356 C1357 1.349 . S
C1356 C1358 1.327 . S
C1356 H1381 0.950 . S
C1357 C1356 1.349 . S
C1357 C1373 1.349 . S
C1358 C1356 1.327 . S
C1358 C1377 1.429 . S
C1358 H1382 0.950 . S
C1359 C1376 1.574 . S
C1359 C1378 1.368 . S
C1359 H1383 0.949 . S
H1360 C1364 0.949 . S
C1361 C1362 1.349 . S
C1361 C1363 1.327 . S
C1361 H1384 0.950 . S
C1362 C1361 1.349 . S
C1362 C1374 1.349 . S
C1363 C1361 1.327 . S
C1363 C1379 1.429 . S
C1363 H1385 0.950 . S
C1364 H1360 0.949 . S
C1364 C1372 1.574 . S
C1364 C1380 1.368 . S
H1365 C1373 0.950 . S
H1366 C1371 0.950 . S
H1367 C1372 0.949 . S
H1368 C1374 0.950 . S
H1369 C1375 0.950 . S
H1370 C1376 0.949 . S
C1371 H1366 0.950 . S
C1371 C1373 1.327 . S
C1371 C1377 1.429 . S
C1372 C1364 1.574 . S
C1372 H1367 0.949 . S
C1372 C1378 1.368 . S
C1373 C1357 1.349 . S
C1373 H1365 0.950 . S
C1373 C1371 1.327 . S
C1374 C1362 1.349 . S
C1374 H1368 0.950 . S
C1374 C1375 1.327 . S
C1375 H1369 0.950 . S
C1375 C1374 1.327 . S
C1375 C1379 1.429 . S
C1376 C1359 1.574 . S
C1376 H1370 0.949 . S
C1376 C1380 1.368 . S
C1377 C1358 1.429 . S
C1377 C1371 1.429 . S
C1377 C1378 1.523 . S
C1378 C1359 1.368 . S
C1378 C1372 1.368 . S
C1378 C1377 1.523 . S
C1379 C1363 1.429 . S
C1379 C1375 1.429 . S
C1379 C1380 1.523 . S
C1380 C1364 1.368 . S
C1380 C1376 1.368 . S
C1380 C1379 1.523 . S
H1381 C1356 0.950 . S
H1382 C1358 0.950 . S
H1383 C1359 0.949 . S
H1384 C1361 0.950 . S
H1385 C1363 0.950 . S
C1386 C1387 1.349 . S
C1386 C1388 1.327 . S
C1386 H1411 0.950 . S
C1387 C1386 1.349 . S
C1387 C1403 1.349 . S
C1388 C1386 1.327 . S
C1388 C1407 1.429 . S
C1388 H1412 0.950 . S
C1389 C1406 1.574 . S
C1389 C1408 1.368 . S
C1389 H1413 0.949 . S
H1390 C1394 0.949 . S
C1391 C1392 1.349 . S
C1391 C1393 1.327 . S
C1391 H1414 0.950 . S
C1392 C1391 1.349 . S
C1392 C1404 1.349 . S
C1393 C1391 1.327 . S
C1393 C1409 1.429 . S
C1393 H1415 0.950 . S
C1394 H1390 0.949 . S
C1394 C1402 1.574 . S
C1394 C1410 1.368 . S
H1395 C1403 0.950 . S
H1396 C1401 0.950 . S
H1397 C1402 0.949 . S
H1398 C1404 0.950 . S
H1399 C1405 0.950 . S
H1400 C1406 0.949 . S
C1401 H1396 0.950 . S
C1401 C1403 1.327 . S
C1401 C1407 1.429 . S
C1402 C1394 1.574 . S
C1402 H1397 0.949 . S
C1402 C1408 1.368 . S
C1403 C1387 1.349 . S
C1403 H1395 0.950 . S
C1403 C1401 1.327 . S
C1404 C1392 1.349 . S
C1404 H1398 0.950 . S
C1404 C1405 1.327 . S
C1405 H1399 0.950 . S
C1405 C1404 1.327 . S
C1405 C1409 1.429 . S
C1406 C1389 1.574 . S
C1406 H1400 0.949 . S
C1406 C1410 1.368 . S
C1407 C1388 1.429 . S
C1407 C1401 1.429 . S
C1407 C1408 1.523 . S
C1408 C1389 1.368 . S
C1408 C1402 1.368 . S
C1408 C1407 1.523 . S
C1409 C1393 1.429 . S
C1409 C1405 1.429 . S
C1409 C1410 1.523 . S
C1410 C1394 1.368 . S
C1410 C1406 1.368 . S
C1410 C1409 1.523 . S
H1411 C1386 0.950 . S
H1412 C1388 0.950 . S
H1413 C1389 0.949 . S
H1414 C1391 0.950 . S
H1415 C1393 0.950 . S
C1416 C1417 1.349 . S
C1416 C1418 1.327 . S
C1416 H1441 0.950 . S
C1417 C1416 1.349 . S
C1417 C1433 1.349 . S
C1418 C1416 1.327 . S
C1418 C1437 1.429 . S
C1418 H1442 0.950 . S
C1419 C1436 1.574 . S
C1419 C1438 1.368 . S
C1419 H1443 0.949 . S
H1420 C1424 0.949 . S
C1421 C1422 1.349 . S
C1421 C1423 1.327 . S
C1421 H1444 0.950 . S
C1422 C1421 1.349 . S
C1422 C1434 1.349 . S
C1423 C1421 1.327 . S
C1423 C1439 1.429 . S
C1423 H1445 0.950 . S
C1424 H1420 0.949 . S
C1424 C1432 1.574 . S
C1424 C1440 1.368 . S
H1425 C1433 0.950 . S
H1426 C1431 0.950 . S
H1427 C1432 0.949 . S
H1428 C1434 0.950 . S
H1429 C1435 0.950 . S
H1430 C1436 0.949 . S
C1431 H1426 0.950 . S
C1431 C1433 1.327 . S
C1431 C1437 1.429 . S
C1432 C1424 1.574 . S
C1432 H1427 0.949 . S
C1432 C1438 1.368 . S
C1433 C1417 1.349 . S
C1433 H1425 0.950 . S
C1433 C1431 1.327 . S
C1434 C1422 1.349 . S
C1434 H1428 0.950 . S
C1434 C1435 1.327 . S
C1435 H1429 0.950 . S
C1435 C1434 1.327 . S
C1435 C1439 1.429 . S
C1436 C1419 1.574 . S
C1436 H1430 0.949 . S
C1436 C1440 1.368 . S
C1437 C1418 1.429 . S
C1437 C1431 1.429 . S
C1437 C1438 1.523 . S
C1438 C1419 1.368 . S
C1438 C1432 1.368 . S
C1438 C1437 1.523 . S
C1439 C1423 1.429 . S
C1439 C1435 1.429 . S
C1439 C1440 1.523 . S
C1440 C1424 1.368 . S
C1440 C1436 1.368 . S
C1440 C1439 1.523 . S
H1441 C1416 0.950 . S
H1442 C1418 0.950 . S
H1443 C1419 0.949 . S
H1444 C1421 0.950 . S
H1445 C1423 0.950 . S
C1446 C1447 1.349 . S
C1446 C1448 1.327 . S
C1446 H1471 0.950 . S
C1447 C1446 1.349 . S
C1447 C1463 1.349 . S
C1448 C1446 1.327 . S
C1448 C1467 1.429 . S
C1448 H1472 0.950 . S
C1449 C1466 1.574 . S
C1449 C1468 1.368 . S
C1449 H1473 0.949 . S
H1450 C1454 0.949 . S
C1451 C1452 1.349 . S
C1451 C1453 1.327 . S
C1451 H1474 0.950 . S
C1452 C1451 1.349 . S
C1452 C1464 1.349 . S
C1453 C1451 1.327 . S
C1453 C1469 1.429 . S
C1453 H1475 0.950 . S
C1454 H1450 0.949 . S
C1454 C1462 1.574 . S
C1454 C1470 1.368 . S
H1455 C1463 0.950 . S
H1456 C1461 0.950 . S
H1457 C1462 0.949 . S
H1458 C1464 0.950 . S
H1459 C1465 0.950 . S
H1460 C1466 0.949 . S
C1461 H1456 0.950 . S
C1461 C1463 1.327 . S
C1461 C1467 1.429 . S
C1462 C1454 1.574 . S
C1462 H1457 0.949 . S
C1462 C1468 1.368 . S
C1463 C1447 1.349 . S
C1463 H1455 0.950 . S
C1463 C1461 1.327 . S
C1464 C1452 1.349 . S
C1464 H1458 0.950 . S
C1464 C1465 1.327 . S
C1465 H1459 0.950 . S
C1465 C1464 1.327 . S
C1465 C1469 1.429 . S
C1466 C1449 1.574 . S
C1466 H1460 0.949 . S
C1466 C1470 1.368 . S
C1467 C1448 1.429 . S
C1467 C1461 1.429 . S
C1467 C1468 1.523 . S
C1468 C1449 1.368 . S
C1468 C1462 1.368 . S
C1468 C1467 1.523 . S
C1469 C1453 1.429 . S
C1469 C1465 1.429 . S
C1469 C1470 1.523 . S
C1470 C1454 1.368 . S
C1470 C1466 1.368 . S
C1470 C1469 1.523 . S
H1471 C1446 0.950 . S
H1472 C1448 0.950 . S
H1473 C1449 0.949 . S
H1474 C1451 0.950 . S
H1475 C1453 0.950 . S
C1476 C1477 1.349 . S
C1476 C1478 1.327 . S
C1476 H1501 0.950 . S
C1477 C1476 1.349 . S
C1477 C1493 1.349 . S
C1478 C1476 1.327 . S
C1478 C1497 1.429 . S
C1478 H1502 0.950 . S
C1479 C1496 1.574 . S
C1479 C1498 1.368 . S
C1479 H1503 0.949 . S
H1480 C1484 0.949 . S
C1481 C1482 1.349 . S
C1481 C1483 1.327 . S
C1481 H1504 0.950 . S
C1482 C1481 1.349 . S
C1482 C1494 1.349 . S
C1483 C1481 1.327 . S
C1483 C1499 1.429 . S
C1483 H1505 0.950 . S
C1484 H1480 0.949 . S
C1484 C1492 1.574 . S
C1484 C1500 1.368 . S
H1485 C1493 0.950 . S
H1486 C1491 0.950 . S
H1487 C1492 0.949 . S
H1488 C1494 0.950 . S
H1489 C1495 0.950 . S
H1490 C1496 0.949 . S
C1491 H1486 0.950 . S
C1491 C1493 1.327 . S
C1491 C1497 1.429 . S
C1492 C1484 1.574 . S
C1492 H1487 0.949 . S
C1492 C1498 1.368 . S
C1493 C1477 1.349 . S
C1493 H1485 0.950 . S
C1493 C1491 1.327 . S
C1494 C1482 1.349 . S
C1494 H1488 0.950 . S
C1494 C1495 1.327 . S
C1495 H1489 0.950 . S
C1495 C1494 1.327 . S
C1495 C1499 1.429 . S
C1496 C1479 1.574 . S
C1496 H1490 0.949 . S
C1496 C1500 1.368 . S
C1497 C1478 1.429 . S
C1497 C1491 1.429 . S
C1497 C1498 1.523 . S
C1498 C1479 1.368 . S
C1498 C1492 1.368 . S
C1498 C1497 1.523 . S
C1499 C1483 1.429 . S
C1499 C1495 1.429 . S
C1499 C1500 1.523 . S
C1500 C1484 1.368 . S
C1500 C1496 1.368 . S
C1500 C1499 1.523 . S
H1501 C1476 0.950 . S
H1502 C1478 0.950 . S
H1503 C1479 0.949 . S
H1504 C1481 0.950 . S
H1505 C1483 0.950 . S
C1506 C1507 1.349 . S
C1506 C1508 1.327 . S
C1506 H1531 0.950 . S
C1507 C1506 1.349 . S
C1507 C1523 1.349 . S
C1508 C1506 1.327 . S
C1508 C1527 1.429 . S
C1508 H1532 0.950 . S
C1509 C1526 1.574 . S
C1509 C1528 1.368 . S
C1509 H1533 0.949 . S
H1510 C1514 0.949 . S
C1511 C1512 1.349 . S
C1511 C1513 1.327 . S
C1511 H1534 0.950 . S
C1512 C1511 1.349 . S
C1512 C1524 1.349 . S
C1513 C1511 1.327 . S
C1513 C1529 1.429 . S
C1513 H1535 0.950 . S
C1514 H1510 0.949 . S
C1514 C1522 1.574 . S
C1514 C1530 1.368 . S
H1515 C1523 0.950 . S
H1516 C1521 0.950 . S
H1517 C1522 0.949 . S
H1518 C1524 0.950 . S
H1519 C1525 0.950 . S
H1520 C1526 0.949 . S
C1521 H1516 0.950 . S
C1521 C1523 1.327 . S
C1521 C1527 1.429 . S
C1522 C1514 1.574 . S
C1522 H1517 0.949 . S
C1522 C1528 1.368 . S
C1523 C1507 1.349 . S
C1523 H1515 0.950 . S
C1523 C1521 1.327 . S
C1524 C1512 1.349 . S
C1524 H1518 0.950 . S
C1524 C1525 1.327 . S
C1525 H1519 0.950 . S
C1525 C1524 1.327 . S
C1525 C1529 1.429 . S
C1526 C1509 1.574 . S
C1526 H1520 0.949 . S
C1526 C1530 1.368 . S
C1527 C1508 1.429 . S
C1527 C1521 1.429 . S
C1527 C1528 1.523 . S
C1528 C1509 1.368 . S
C1528 C1522 1.368 . S
C1528 C1527 1.523 . S
C1529 C1513 1.429 . S
C1529 C1525 1.429 . S
C1529 C1530 1.523 . S
C1530 C1514 1.368 . S
C1530 C1526 1.368 . S
C1530 C1529 1.523 . S
H1531 C1506 0.950 . S
H1532 C1508 0.950 . S
H1533 C1509 0.949 . S
H1534 C1511 0.950 . S
H1535 C1513 0.950 . S
C577 C4 1.150 . S
C582 C472 1.150 . S
C607 C400 1.150 . S
C612 C40 1.150 . S
C637 C436 1.150 . S
C642 C76 1.150 . S
C667 C364 1.150 . S
C672 C112 1.150 . S
C697 C148 1.150 . S
C702 C544 1.150 . S
C727 C184 1.150 . S
C732 C328 1.150 . S
C757 C508 1.150 . S
C762 C220 1.150 . S
C787 C256 1.150 . S
C792 C292 1.150 . S
C817 C158 1.592 . S
C822 C14 1.592 . S
C847 C50 1.592 . S
C852 C194 1.592 . S
C877 C86 1.592 . S
C882 C230 1.592 . S
C907 C266 1.592 . S
C912 C122 1.592 . S
C937 C302 1.592 . S
C942 C374 1.592 . S
C967 C338 1.592 . S
C972 C410 1.592 . S
C997 C518 1.592 . S
C1002 C446 1.592 . S
C1027 C482 1.592 . S
C1032 C554 1.592 . S
C1057 C183 1.121 . S
C1062 C3 1.121 . S
C1087 C39 1.121 . S
C1092 C219 1.121 . S
C1117 C75 1.121 . S
C1122 C255 1.121 . S
C1147 C147 1.121 . S
C1152 C111 1.121 . S
C1177 C146 1.320 1_545 S
C1182 C362 1.320 . S
C1207 C74 1.321 1_545 S
C1212 C290 1.321 . S
C1237 C398 1.321 . S
C1242 C218 1.321 1_565 S
C1267 C326 1.320 . S
C1272 C2 1.320 1_565 S
C1297 C291 1.121 . S
C1302 C435 1.121 . S
C1327 C363 1.121 . S
C1332 C543 1.121 . S
C1357 C471 1.121 . S
C1362 C327 1.121 . S
C1387 C399 1.121 . S
C1392 C507 1.121 . S
C1417 C506 1.321 . S
C1422 C38 1.321 . S
C1447 C470 1.321 . S
C1452 C182 1.321 . S
C1477 C542 1.321 . S
C1482 C110 1.321 . S
C1507 C434 1.321 . S
C1512 C254 1.321 . S
