# Generated by pormake.
# Topology fnu, (5)-cn, num edge types: 1
# Building blocks:
#     Node 0, Type 0, BuildingBlock: XOMCOT_clean_sbu_1, # of connection points: 5
#     Node 1, Type 0, BuildingBlock: XOMCOT_clean_sbu_1, # of connection points: 5
#     Node 2, Type 0, BuildingBlock: XOMCOT_clean_sbu_1, # of connection points: 5
#     Node 3, Type 0, BuildingBlock: XOMCOT_clean_sbu_1, # of connection points: 5
#     Node 4, Type 0, BuildingBlock: XOMCOT_clean_sbu_1, # of connection points: 5
#     Node 5, Type 0, BuildingBlock: XOMCOT_clean_sbu_1, # of connection points: 5
#     Edge 6, Type (0, 0), BuildingBlock: MIFKUJ_clean_linker_0, # of connection points: 2
#     Edge 7, Type (0, 0), BuildingBlock: MIFKUJ_clean_linker_0, # of connection points: 2
#     Edge 8, Type (0, 0), BuildingBlock: MIFKUJ_clean_linker_0, # of connection points: 2
#     Edge 9, Type (0, 0), BuildingBlock: MIFKUJ_clean_linker_0, # of connection points: 2
#     Edge 10, Type (0, 0), BuildingBlock: MIFKUJ_clean_linker_0, # of connection points: 2
#     Edge 11, Type (0, 0), BuildingBlock: MIFKUJ_clean_linker_0, # of connection points: 2
#     Edge 12, Type (0, 0), BuildingBlock: MIFKUJ_clean_linker_0, # of connection points: 2
#     Edge 13, Type (0, 0), BuildingBlock: MIFKUJ_clean_linker_0, # of connection points: 2
#     Edge 14, Type (0, 0), BuildingBlock: MIFKUJ_clean_linker_0, # of connection points: 2
#     Edge 15, Type (0, 0), BuildingBlock: MIFKUJ_clean_linker_0, # of connection points: 2
#     Edge 16, Type (0, 0), BuildingBlock: MIFKUJ_clean_linker_0, # of connection points: 2
#     Edge 17, Type (0, 0), BuildingBlock: MIFKUJ_clean_linker_0, # of connection points: 2
#     Edge 18, Type (0, 0), BuildingBlock: MIFKUJ_clean_linker_0, # of connection points: 2
#     Edge 19, Type (0, 0), BuildingBlock: MIFKUJ_clean_linker_0, # of connection points: 2
#     Edge 20, Type (0, 0), BuildingBlock: MIFKUJ_clean_linker_0, # of connection points: 2
# Relax obj value: 0.187
# Max RMSD: 0.139
# Mean RMSD: 0.139
data_MOF--net-fnu--node1-XOMCOT_clean_sbu_1--edge1-MIFKUJ_clean_linker_0
_symmetry_space_group_name_H-M    P1
_symmetry_Int_Tables_number       1
_symmetry_cell_setting            triclinic
loop_
_symmetry_equiv_pos_as_xyz
'x, y, z'
_cell_length_a     33.613659
_cell_length_b     35.338341
_cell_length_c     42.342987
_cell_angle_alpha  89.691002
_cell_angle_beta   95.637709
_cell_angle_gamma 121.6001
loop_
_atom_site_label
_atom_site_type_symbol
_atom_site_fract_x
_atom_site_fract_y
_atom_site_fract_z
_atom_type_partial_charge
C0 C 0.13959 0.0906 0.29414 0.0
C1 C 0.147 0.09609 0.32678 0.0
N2 N 0.11187 0.05991 0.33867 0.0
N3 N 0.10062 0.05053 0.28532 0.0
C4 C 0.08426 0.03301 0.31311 0.0
H5 H 0.15994 0.11544 0.27787 0.0
Co6 Co 0.06933 0.03062 0.24391 0.0
C7 C 1.0359 0.08406 0.25095 0.0
O8 O 1.01134 0.0515 0.26927 0.0
N9 N 1.0365 1.01106 0.20411 0.0
C10 C 0.97586 0.9788 0.16651 0.0
C11 C 0.99052 0.99669 0.19726 0.0
C12 C 1.04917 1.00177 0.17745 0.0
N13 N 1.01278 0.98149 0.15454 0.0
O14 O 0.13097 0.05843 0.22562 0.0
H15 H 0.96867 0.9977 0.21394 0.0
H16 H 0.08411 1.00883 0.17492 0.0
O17 O 0.06983 0.08493 0.23916 0.0
C18 C 0.16891 0.05951 0.2356 0.0
O19 O 0.16945 0.03795 0.26088 0.0
N20 N 0.06249 0.974 0.24758 0.0
C21 C 1.01478 0.88164 0.2338 0.0
C22 C 0.9986 0.89984 0.25484 0.0
C23 C 1.02224 0.94589 0.26071 0.0
C24 C 0.08112 0.95672 0.22916 0.0
C25 C 0.05786 0.91078 0.22204 0.0
H26 H 1.00504 0.9593 0.27274 0.0
H27 H 0.11059 0.97791 0.21641 0.0
H28 H 1.05151 1.00217 0.31479 0.0
H29 H 0.1743 0.12567 0.34058 0.0
H30 H 0.94072 0.96376 0.15425 0.0
H31 H 0.96602 0.87911 0.26504 0.0
H32 H 0.07161 0.89896 0.20514 0.0
C33 C 0.99484 0.0563 0.70637 0.0
C34 C 0.98843 0.05244 0.67366 0.0
N35 N 1.02002 0.04411 0.66362 0.0
N36 N 1.02967 0.04948 0.71711 0.0
C37 C 1.04453 0.0426 0.69036 0.0
H38 H 0.9763 0.06505 0.72139 0.0
Co39 Co 0.05727 0.05836 0.75952 0.0
C40 C 0.09039 0.14584 0.75258 0.0
O41 O 0.11484 0.13908 0.73345 0.0
N42 N 0.08627 0.06903 0.80041 0.0
C43 C 0.14309 0.0955 0.84052 0.0
C44 C 0.13165 0.1003 0.80928 0.0
C45 C 0.07065 0.04587 0.8264 0.0
N46 N 0.10462 0.061 0.85114 0.0
O47 O 0.99392 1.02375 0.77506 0.0
H48 H 0.15524 0.12408 0.79369 0.0
H49 H 1.03572 1.01696 0.82668 0.0
O50 O 0.05705 0.11222 0.7644 0.0
C51 C 0.95515 0.98988 0.76257 0.0
O52 O 0.95421 0.97087 0.73569 0.0
N53 N 0.06378 1.00866 0.75609 0.0
C54 C 0.10865 0.96156 0.77122 0.0
C55 C 0.12825 0.99817 0.752 0.0
C56 C 0.10593 1.02176 0.74551 0.0
C57 C 1.04185 0.97076 0.77242 0.0
C58 C 0.06376 0.94681 0.78025 0.0
H59 H 0.12483 0.0534 0.73472 0.0
H60 H 1.01015 0.96134 0.78282 0.0
H61 H 0.0737 0.03789 0.69019 0.0
H62 H 0.96408 0.05766 0.65847 0.0
H63 H 0.17719 0.11549 0.85412 0.0
H64 H 0.16221 1.01058 0.74372 0.0
H65 H 1.04723 0.91928 0.79554 0.0
C66 C 0.8231 0.4272 0.63461 0.0
C67 C 0.8247 0.42509 0.66714 0.0
N68 N 0.78064 0.39837 0.67431 0.0
N69 N 0.77831 0.40032 0.62107 0.0
C70 C 0.75317 0.38465 0.64628 0.0
H71 H 0.85279 0.44924 0.62223 0.0
Co72 Co 0.75217 0.3917 0.57797 0.0
C73 C 0.71338 0.43812 0.58725 0.0
O74 O 0.6842 0.39841 0.5969 0.0
N75 N 0.72462 0.38381 0.53678 0.0
C76 C 0.6701 0.3594 0.49537 0.0
C77 C 0.67996 0.35225 0.5263 0.0
C78 C 0.74118 0.41003 0.51221 0.0
N79 N 0.70867 0.39586 0.48661 0.0
O80 O 0.81624 0.42329 0.5629 0.0
H81 H 0.65599 0.32619 0.54049 0.0
H82 H 0.77583 0.43981 0.51347 0.0
O83 O 0.7536 0.44656 0.58114 0.0
C84 C 0.84998 0.41602 0.56733 0.0
O85 O 0.84512 0.38365 0.58523 0.0
N86 N 0.74459 0.33457 0.57339 0.0
C87 C 0.7029 0.24422 0.55436 0.0
C88 C 0.69065 0.25707 0.58131 0.0
C89 C 0.71157 0.30219 0.5902 0.0
C90 C 0.75801 0.32262 0.54761 0.0
C91 C 0.73855 0.27787 0.53825 0.0
H92 H 0.69732 0.31089 0.60851 0.0
H93 H 0.78066 0.34745 0.53222 0.0
H94 H 0.71522 0.36476 0.64435 0.0
H95 H 0.85545 0.44358 0.68429 0.0
H96 H 0.63722 0.33915 0.48046 0.0
H97 H 0.66236 0.2328 0.59405 0.0
H98 H 0.74956 0.26998 0.51737 0.0
C99 C 0.6311 0.31161 0.03949 0.0
C100 C 0.62559 0.30868 0.00673 0.0
N101 N 0.66844 0.33165 0.99662 0.0
N102 N 0.67742 0.33535 0.05017 0.0
C103 C 0.69897 0.3478 0.02332 0.0
H104 H 0.60257 0.29885 0.054 0.0
Co105 Co 0.71111 0.35647 0.09094 0.0
C106 C 0.74973 0.44228 0.07999 0.0
O107 O 0.77862 0.43228 0.06914 0.0
N108 N 0.74683 0.38018 0.12963 0.0
C109 C 0.80902 0.41278 0.16589 0.0
C110 C 0.79127 0.38978 0.13683 0.0
C111 C 0.7385 0.39828 0.15407 0.0
N112 N 0.77588 0.41846 0.17639 0.0
O113 O 0.65131 0.32845 0.11176 0.0
H114 H 0.80981 0.38142 0.12153 0.0
H115 H 0.70591 0.39721 0.15526 0.0
O116 O 0.7103 0.41027 0.08706 0.0
C117 C 0.61819 0.2877 0.11342 0.0
O118 O 0.61971 0.25587 0.09879 0.0
N119 N 0.7174 0.30601 0.0958 0.0
C120 C 0.75956 0.25652 0.11132 0.0
C121 C 0.76158 0.27406 0.08128 0.0
C122 C 0.74075 0.29901 0.07416 0.0
C123 C 0.71283 0.28694 0.12454 0.0
C124 C 0.73316 0.26185 0.13258 0.0
H125 H 0.74723 0.3159 0.05229 0.0
H126 H 0.69727 0.29453 0.14275 0.0
H127 H 0.73667 0.36863 0.02338 0.0
H128 H 0.59256 0.29255 0.99154 0.0
H129 H 0.84378 0.4251 0.17808 0.0
H130 H 0.78133 0.27068 0.06396 0.0
H131 H 0.73136 0.24992 0.15632 0.0
C132 C 0.47669 0.7952 0.9624 0.0
C133 C 0.48262 0.7999 0.99507 0.0
N134 N 0.45244 0.76035 0.00631 0.0
N135 N 0.4437 0.75257 0.95302 0.0
C136 C 0.42931 0.73241 0.98041 0.0
H137 H 0.49398 0.82167 0.94644 0.0
Co138 Co 0.41629 0.73062 0.91125 0.0
C139 C 0.37096 0.77319 0.913 0.0
O140 O 0.34668 0.73736 0.92874 0.0
N141 N 0.38703 0.70861 0.87094 0.0
C142 C 0.32972 0.66493 0.83349 0.0
C143 C 0.34002 0.68199 0.86429 0.0
C144 C 0.40471 0.70783 0.84397 0.0
N145 N 0.37054 0.68124 0.82093 0.0
O146 O 0.47967 0.76305 0.89542 0.0
H147 H 0.31503 0.67376 0.88129 0.0
H148 H 0.44186 0.72401 0.84174 0.0
O149 O 0.40995 0.7812 0.90456 0.0
C150 C 0.51946 0.77017 0.90817 0.0
O151 O 0.52156 0.75289 0.93539 0.0
N152 N 0.41595 0.67736 0.91662 0.0
C153 C 0.37679 0.58647 0.90175 0.0
C154 C 0.35504 0.60096 0.92089 0.0
C155 C 0.37494 0.64636 0.92773 0.0
C156 C 0.43951 0.66384 0.8998 0.0
C157 C 0.42073 0.61853 0.89246 0.0
H158 H 0.35404 0.65692 0.93822 0.0
H159 H 0.46976 0.68739 0.88854 0.0
H160 H 0.40121 0.69832 0.98159 0.0
H161 H 0.50536 0.83058 0.00933 0.0
H162 H 0.29514 0.6418 0.82144 0.0
H163 H 0.32051 0.57793 0.92789 0.0
H164 H 0.43892 0.60903 0.87765 0.0
C165 C 0.3243 0.70347 0.37368 0.0
C166 C 0.31712 0.7019 0.341 0.0
N167 N 0.3505 0.69768 0.32935 0.0
N168 N 0.36137 0.69911 0.38263 0.0
C169 C 0.37675 0.69615 0.35497 0.0
H170 H 0.30513 0.70963 0.38989 0.0
Co171 Co 0.39213 0.70789 0.42388 0.0
C172 C 0.42293 0.79578 0.4174 0.0
O173 O 0.44619 0.79049 0.39643 0.0
N174 N 0.42443 0.71849 0.46347 0.0
C175 C 0.48592 0.74105 0.49963 0.0
C176 C 0.47102 0.74767 0.46984 0.0
C177 C 0.4115 0.69488 0.48954 0.0
N178 N 0.44842 0.70729 0.51159 0.0
O179 O 0.33041 0.67374 0.4416 0.0
H180 H 0.49304 0.77057 0.45316 0.0
H181 H 0.37603 0.66797 0.49189 0.0
O182 O 0.39217 0.7616 0.43035 0.0
C183 C 0.29162 0.63885 0.43032 0.0
O184 O 0.29028 0.6185 0.40397 0.0
N185 N 0.39817 0.65791 0.41883 0.0
C186 C 0.44581 0.61307 0.43353 0.0
C187 C 0.46275 0.64811 0.41283 0.0
C188 C 0.4392 0.67067 0.40659 0.0
C189 C 0.3784 0.62095 0.43634 0.0
C190 C 0.40176 0.59832 0.44407 0.0
H191 H 0.45704 0.70188 0.39519 0.0
H192 H 0.34795 0.61187 0.44818 0.0
H193 H 0.40788 0.69497 0.35338 0.0
H194 H 0.29132 0.70643 0.32701 0.0
H195 H 0.5217 0.75837 0.51102 0.0
H196 H 0.49586 0.66045 0.40328 0.0
H197 H 0.38715 0.5721 0.46055 0.0
H198 H 0.18914 0.11978 0.18828 0.0
H199 H 0.26446 0.16519 0.16615 0.0
H200 H 0.32279 0.10148 0.22438 0.0
H201 H 0.24876 0.05717 0.2467 0.0
H202 H 0.38176 0.1849 0.23067 0.0
H203 H 0.29794 0.08373 0.1382 0.0
H204 H 0.23917 0.04475 0.09169 0.0
H205 H 0.26828 0.16994 0.05647 0.0
H206 H 0.32756 0.20967 0.10264 0.0
H207 H 0.57418 0.21765 0.15034 0.0
H208 H 0.49923 0.18928 0.17205 0.0
H209 H 0.49014 0.2983 0.13424 0.0
H210 H 0.56655 0.32787 0.11331 0.0
H211 H 0.40721 0.20373 0.1169 0.0
H212 H 0.49426 0.30405 0.20864 0.0
H213 H 0.55709 0.34156 0.25317 0.0
H214 H 0.52337 0.21483 0.2879 0.0
H215 H 0.45949 0.1766 0.24394 0.0
C216 C 0.21796 0.11524 0.19612 0.0
C217 C 0.21276 0.08497 0.21956 0.0
C218 C 0.26109 0.14114 0.18332 0.0
C219 C 0.29991 0.13714 0.19354 0.0
C220 C 0.29396 0.10585 0.21618 0.0
C221 C 0.25126 0.0803 0.22897 0.0
C222 C 0.34762 0.16683 0.18258 0.0
C223 C 0.38696 0.18852 0.20569 0.0
C224 C 0.35524 0.17342 0.15009 0.0
C225 C 0.31677 0.14959 0.124 0.0
C226 C 0.29135 0.10289 0.12074 0.0
C227 C 0.25834 0.0807 0.09428 0.0
C228 C 0.25028 0.1049 0.07103 0.0
C229 C 0.27477 0.15128 0.0744 0.0
C230 C 0.30814 0.17364 0.10066 0.0
C231 C 0.55673 0.23614 0.14721 0.0
C232 C 0.57635 0.27508 0.1302 0.0
C233 C 0.51384 0.21987 0.15964 0.0
C234 C 0.48884 0.2415 0.15475 0.0
C235 C 0.50879 0.28105 0.13838 0.0
C236 C 0.55256 0.29808 0.1266 0.0
C237 C 0.44061 0.22049 0.16495 0.0
C238 C 0.40146 0.20045 0.14179 0.0
C239 C 0.433 0.21502 0.19731 0.0
C240 C 0.47244 0.23755 0.22294 0.0
C241 C 0.50048 0.28422 0.22568 0.0
C242 C 0.53599 0.30559 0.25094 0.0
C243 C 0.54431 0.2806 0.27332 0.0
C244 C 0.51689 0.23415 0.27057 0.0
C245 C 0.48081 0.21262 0.24561 0.0
H246 H 0.57205 0.29724 0.29275 0.0
H247 H 0.2249 0.08769 0.05048 0.0
H248 H 0.9596 0.08313 0.26831 0.0
H249 H 0.9188 0.11678 0.242 0.0
H250 H 1.02658 0.18067 0.17914 0.0
H251 H 0.06764 0.14611 0.20506 0.0
H252 H 0.98819 0.23451 0.20609 0.0
H253 H 0.94147 0.09921 0.14678 0.0
H254 H 0.91561 1.01995 0.14126 0.0
H255 H 0.79049 0.98425 0.1839 0.0
H256 H 0.81595 0.06349 0.19 0.0
H257 H 0.84913 0.28492 0.09825 0.0
H258 H 0.90003 0.25857 0.11929 0.0
H259 H 0.78947 0.16074 0.17093 0.0
H260 H 0.73752 0.18578 0.14895 0.0
H261 H 0.83407 0.12581 0.1464 0.0
H262 H 0.88048 0.25975 0.20724 0.0
H263 H 0.90647 0.33882 0.21531 0.0
H264 H 1.03192 0.3773 0.1722 0.0
H265 H 1.00633 0.29836 0.16347 0.0
C266 C 0.97528 0.10489 0.24925 0.0
C267 C 1.01683 0.11159 0.23867 0.0
C268 C 0.95176 0.12407 0.23421 0.0
C269 C 0.9694 0.15082 0.20845 0.0
C270 C 1.0124 0.16005 0.199 0.0
C271 C 1.03584 0.14035 0.21386 0.0
C272 C 0.94061 0.16596 0.19025 0.0
C273 C 0.95493 0.211 0.19248 0.0
C274 C 0.89672 0.13502 0.1732 0.0
C275 C 0.88083 0.0873 0.16911 0.0
C276 C 0.90862 0.07448 0.15521 0.0
C277 C 0.89401 0.02956 0.15195 0.0
C278 C 0.85152 0.99707 0.16235 0.0
C279 C 0.82344 1.00946 0.17589 0.0
C280 C 0.8379 0.05438 0.17921 0.0
C281 C 0.8351 0.25711 0.1135 0.0
C282 C 0.78901 0.23752 0.12186 0.0
C283 C 0.8646 0.24246 0.12588 0.0
C284 C 0.84899 0.20817 0.14719 0.0
C285 C 0.8025 0.18744 0.1547 0.0
C286 C 0.77289 0.202 0.14225 0.0
C287 C 0.88136 0.1946 0.16224 0.0
C288 C 0.86757 0.14963 0.15959 0.0
C289 C 0.92567 0.22568 0.17901 0.0
C290 C 0.94124 0.27314 0.18439 0.0
C291 C 0.91344 0.28506 0.19926 0.0
C292 C 0.92812 0.32985 0.20399 0.0
C293 C 0.97075 0.36305 0.19419 0.0
C294 C 0.99886 0.35153 0.17973 0.0
C295 C 0.9843 0.30678 0.1749 0.0
H296 H 0.98207 0.39772 0.19787 0.0
H297 H 0.8403 0.96229 0.15984 0.0
H298 H 0.70923 0.47482 0.11661 0.0
H299 H 0.74855 0.5489 0.14415 0.0
H300 H 0.87459 0.58727 0.10121 0.0
H301 H 0.83567 0.51465 0.07302 0.0
H302 H 0.87944 0.59627 0.17457 0.0
H303 H 0.82836 0.63273 0.07287 0.0
H304 H 0.76758 0.62269 0.03024 0.0
H305 H 0.69711 0.64962 0.09787 0.0
H306 H 0.75717 0.65915 0.141 0.0
H307 H 1.0418 0.82455 0.21423 0.0
H308 H 0.99197 0.74992 0.1892 0.0
H309 H 0.86861 0.75456 0.20118 0.0
H310 H 0.91806 0.83035 0.22359 0.0
H311 H 0.85526 0.71985 0.14679 0.0
H312 H 0.90425 0.6894 0.24777 0.0
H313 H 0.95908 0.69578 0.2936 0.0
H314 H 1.02549 0.6529 0.23359 0.0
H315 H 0.97141 0.64678 0.18729 0.0
C316 C 0.74488 0.49944 0.11238 0.0
C317 C 0.76917 0.48867 0.09249 0.0
C318 C 0.7674 0.54159 0.12833 0.0
C319 C 0.8146 0.57334 0.12488 0.0
C320 C 0.83827 0.56315 0.10433 0.0
C321 C 0.81573 0.52157 0.08808 0.0
C322 C 0.84047 0.61674 0.14343 0.0
C323 C 0.87448 0.6235 0.16848 0.0
C324 C 0.83273 0.65156 0.13613 0.0
C325 C 0.79687 0.64606 0.11019 0.0
C326 C 0.79962 0.63602 0.0787 0.0
C327 C 0.76538 0.63055 0.05443 0.0
C328 C 0.7284 0.63535 0.06136 0.0
C329 C 0.7257 0.64581 0.09255 0.0
C330 C 0.75984 0.65127 0.1169 0.0
C331 C 1.00412 0.80997 0.21145 0.0
C332 C 0.9844 0.83401 0.22135 0.0
C333 C 0.97544 0.76675 0.19747 0.0
C334 C 0.92617 0.74587 0.19366 0.0
C335 C 0.90639 0.76954 0.20386 0.0
C336 C 0.93499 0.81297 0.21728 0.0
C337 C 0.89536 0.70019 0.17799 0.0
C338 C 0.86026 0.6928 0.15338 0.0
C339 C 0.90139 0.66439 0.18624 0.0
C340 C 0.93403 0.66803 0.214 0.0
C341 C 0.93077 0.68164 0.24429 0.0
C342 C 0.96167 0.68515 0.27037 0.0
C343 C 0.99582 0.67486 0.26649 0.0
C344 C 0.99905 0.66091 0.23654 0.0
C345 C 0.96824 0.65736 0.21038 0.0
H346 H 1.01972 0.67761 0.28671 0.0
H347 H 0.70193 0.63111 0.04254 0.0
H348 H 0.14755 0.22345 0.7256 0.0
H349 H 0.19284 0.29805 0.75142 0.0
H350 H 0.12488 0.24678 0.83623 0.0
H351 H 0.07852 0.17193 0.81015 0.0
H352 H 0.14059 0.32903 0.82718 0.0
H353 H 0.232 0.26124 0.82932 0.0
H354 H 0.26691 0.22256 0.8067 0.0
H355 H 0.34379 0.3326 0.7487 0.0
H356 H 0.30871 0.37164 0.7706 0.0
H357 H 0.31847 0.50952 0.93071 0.0
H358 H 0.26725 0.43454 0.90582 0.0
H359 H 0.32361 0.4818 0.81687 0.0
H360 H 0.37397 0.55697 0.84121 0.0
H361 H 0.31346 0.40056 0.82998 0.0
H362 H 0.22012 0.46753 0.82821 0.0
H363 H 0.1853 0.50554 0.85197 0.0
H364 H 0.11283 0.39609 0.91135 0.0
H365 H 0.14781 0.3577 0.88826 0.0
C366 C 0.14142 0.22818 0.7495 0.0
C367 C 0.10958 0.1917 0.76586 0.0
C368 C 0.16763 0.27085 0.76435 0.0
C369 C 0.16327 0.27794 0.7961 0.0
C370 C 0.12914 0.24215 0.8118 0.0
C371 C 0.10247 0.19937 0.7968 0.0
C372 C 0.1964 0.32193 0.81334 0.0
C373 C 0.17836 0.34436 0.82814 0.0
C374 C 0.24584 0.34237 0.81439 0.0
C375 C 0.26739 0.31919 0.8014 0.0
C376 C 0.25611 0.27706 0.81158 0.0
C377 C 0.27595 0.25508 0.79891 0.0
C378 C 0.30749 0.27507 0.77623 0.0
C379 C 0.31932 0.31713 0.76625 0.0
C380 C 0.29948 0.33922 0.77879 0.0
C381 C 0.32015 0.50402 0.90587 0.0
C382 C 0.35049 0.53957 0.88806 0.0
C383 C 0.2908 0.46107 0.89167 0.0
C384 C 0.29111 0.45261 0.85936 0.0
C385 C 0.32273 0.48749 0.84184 0.0
C386 C 0.35188 0.5305 0.85595 0.0
C387 C 0.25765 0.40777 0.84353 0.0
C388 C 0.27567 0.38515 0.82905 0.0
C389 C 0.20829 0.38708 0.84301 0.0
C390 C 0.18696 0.40995 0.85674 0.0
C391 C 0.19706 0.45172 0.84651 0.0
C392 C 0.17725 0.47331 0.85983 0.0
C393 C 0.14697 0.45329 0.88321 0.0
C394 C 0.13634 0.41158 0.89326 0.0
C395 C 0.15613 0.38988 0.88006 0.0
H396 H 0.13166 0.47006 0.89349 0.0
H397 H 0.32282 0.25801 0.76645 0.0
H398 H 0.60991 0.80811 0.93541 0.0
H399 H 0.68239 0.8482 0.9102 0.0
H400 H 0.60201 0.83081 0.81984 0.0
H401 H 0.52878 0.79087 0.84516 0.0
H402 H 0.67289 0.80891 0.81809 0.0
H403 H 0.66036 0.93008 0.85618 0.0
H404 H 0.6506 0.97353 0.89673 0.0
H405 H 0.77526 0.99559 0.95276 0.0
H406 H 0.7854 0.95172 0.91275 0.0
H407 H 0.86551 0.94426 0.7336 0.0
H408 H 0.79221 0.91087 0.75766 0.0
H409 H 0.87049 0.95718 0.85065 0.0
H410 H 0.9444 0.99307 0.82618 0.0
H411 H 0.79924 0.96426 0.85113 0.0
H412 H 0.81256 0.84307 0.81787 0.0
H413 H 0.8236 0.79621 0.78115 0.0
H414 H 0.70012 0.76944 0.72103 0.0
H415 H 0.68868 0.81663 0.75718 0.0
C416 C 0.60744 0.8129 0.91017 0.0
C417 C 0.5633 0.79616 0.89235 0.0
C418 C 0.64911 0.83605 0.89579 0.0
C419 C 0.64792 0.84284 0.8631 0.0
C420 C 0.60393 0.82611 0.84511 0.0
C421 C 0.56206 0.80343 0.85964 0.0
C422 C 0.69266 0.86649 0.84787 0.0
C423 C 0.70021 0.84315 0.82488 0.0
C424 C 0.72923 0.91058 0.85764 0.0
C425 C 0.72341 0.93729 0.88158 0.0
C426 C 0.6855 0.94391 0.87726 0.0
C427 C 0.67993 0.96867 0.90013 0.0
C428 C 0.71223 0.98723 0.92734 0.0
C429 C 0.75025 0.98117 0.93169 0.0
C430 C 0.75595 0.9564 0.9089 0.0
C431 C 0.86721 0.94746 0.7592 0.0
C432 C 0.91093 0.97107 0.77796 0.0
C433 C 0.82506 0.92795 0.77304 0.0
C434 C 0.82519 0.93007 0.80623 0.0
C435 C 0.86898 0.9546 0.82503 0.0
C436 C 0.91135 0.97513 0.81104 0.0
C437 C 0.77975 0.90679 0.82104 0.0
C438 C 0.77203 0.93009 0.8441 0.0
C439 C 0.74334 0.86222 0.81185 0.0
C440 C 0.75004 0.83374 0.79008 0.0
C441 C 0.78795 0.82744 0.7967 0.0
C442 C 0.79425 0.80078 0.77601 0.0
C443 C 0.76266 0.77996 0.74873 0.0
C444 C 0.72461 0.78565 0.74214 0.0
C445 C 0.71817 0.81231 0.76274 0.0
H446 H 0.7676 0.75934 0.73274 0.0
H447 H 0.70786 1.00637 0.94502 0.0
H448 H 0.20448 1.00512 0.78703 0.0
H449 H 0.25087 0.97533 0.81015 0.0
H450 H 0.12505 0.84623 0.81202 0.0
H451 H 0.07797 0.87496 0.78703 0.0
H452 H 0.18918 0.88147 0.87171 0.0
H453 H 0.19044 0.85625 0.75962 0.0
H454 H 0.20372 0.8796 0.70473 0.0
H455 H 0.34904 0.97464 0.73542 0.0
H456 H 0.33646 0.95229 0.79062 0.0
H457 H 0.2792 0.74682 0.91218 0.0
H458 H 0.23899 0.78211 0.88867 0.0
H459 H 0.37028 0.89123 0.86273 0.0
H460 H 0.41084 0.85427 0.88503 0.0
H461 H 0.30708 0.87178 0.81613 0.0
H462 H 0.31106 0.89919 0.92624 0.0
H463 H 0.3018 0.88251 0.9826 0.0
H464 H 0.15325 0.79325 0.95884 0.0
H465 H 0.16168 0.80889 0.90225 0.0
C466 C 0.18636 0.97003 0.79136 0.0
C467 C 0.13709 0.94245 0.78451 0.0
C468 C 0.21316 0.95321 0.805 0.0
C469 C 0.19149 0.90857 0.81268 0.0
C470 C 0.14247 0.88086 0.80627 0.0
C471 C 0.11558 0.89747 0.79208 0.0
C472 C 0.22012 0.89128 0.82802 0.0
C473 C 0.21451 0.87868 0.85949 0.0
C474 C 0.25472 0.88976 0.81252 0.0
C475 C 0.26239 0.9029 0.7793 0.0
C476 C 0.22514 0.88239 0.75472 0.0
C477 C 0.23255 0.89539 0.72354 0.0
C478 C 0.27717 0.92867 0.7166 0.0
C479 C 0.31449 0.94891 0.74083 0.0
C480 C 0.30724 0.93606 0.77206 0.0
C481 C 0.29991 0.7786 0.90184 0.0
C482 C 0.34849 0.79791 0.90082 0.0
C483 C 0.27671 0.79899 0.88848 0.0
C484 C 0.30151 0.84004 0.8745 0.0
C485 C 0.35023 0.85969 0.87352 0.0
C486 C 0.37349 0.83871 0.88642 0.0
C487 C 0.27577 0.86101 0.85995 0.0
C488 C 0.28197 0.87457 0.82861 0.0
C489 C 0.24239 0.86441 0.87587 0.0
C490 C 0.23709 0.85497 0.90993 0.0
C491 C 0.27646 0.87577 0.93299 0.0
C492 C 0.27135 0.86653 0.96499 0.0
C493 C 0.22698 0.83677 0.97428 0.0
C494 C 0.1876 0.81627 0.9516 0.0
C495 C 0.19252 0.82536 0.91956 0.0
H496 H 0.22311 0.82965 0.99907 0.0
H497 H 0.28284 0.93869 0.69245 0.0
H498 H 0.8846 0.49761 0.5404 0.0
H499 H 0.96071 0.543 0.51934 0.0
H500 H 0.99235 0.44131 0.54025 0.0
H501 H 0.91792 0.39714 0.56221 0.0
H502 H 0.067 0.51561 0.55627 0.0
H503 H 0.95313 0.46052 0.4623 0.0
H504 H 0.88465 0.45101 0.42767 0.0
H505 H 0.95292 0.59268 0.42229 0.0
H506 H 1.02143 0.60306 0.4573 0.0
H507 H 0.20367 0.57009 0.40877 0.0
H508 H 0.13127 0.54006 0.43347 0.0
H509 H 0.20621 0.63663 0.51231 0.0
H510 H 0.27953 0.66702 0.48754 0.0
H511 H 0.08036 0.57302 0.4483 0.0
H512 H 0.1533 0.58909 0.57968 0.0
H513 H 0.21831 0.5893 0.61257 0.0
H514 H 0.22809 0.51265 0.53878 0.0
H515 H 0.16296 0.51168 0.5056 0.0
C516 C 0.90783 0.485 0.54044 0.0
C517 C 0.89501 0.44369 0.55311 0.0
C518 C 0.9514 0.51094 0.52828 0.0
C519 C 0.98267 0.49571 0.5279 0.0
C520 C 0.96947 0.4543 0.54037 0.0
C521 C 0.92652 0.42883 0.55286 0.0
C522 C 1.02907 0.5221 0.5146 0.0
C523 C 0.06977 0.52843 0.53273 0.0
C524 C 1.03336 0.53892 0.4838 0.0
C525 C 0.99218 0.53258 0.46269 0.0
C526 C 0.95337 0.48964 0.45392 0.0
C527 C 0.91456 0.4841 0.43421 0.0
C528 C 0.9144 0.52122 0.42285 0.0
C529 C 0.95304 0.56396 0.43115 0.0
C530 C 0.99185 0.5697 0.45093 0.0
C531 C 0.20506 0.58509 0.4314 0.0
C532 C 0.24778 0.62097 0.44617 0.0
C533 C 0.16331 0.56794 0.44545 0.0
C534 C 0.16287 0.58582 0.47485 0.0
C535 C 0.20544 0.62187 0.48973 0.0
C536 C 0.24742 0.63929 0.47553 0.0
C537 C 0.11785 0.56575 0.48979 0.0
C538 C 0.07757 0.56078 0.47203 0.0
C539 C 0.11367 0.54936 0.52066 0.0
C540 C 0.15359 0.5507 0.54009 0.0
C541 C 0.16938 0.57233 0.5705 0.0
C542 C 0.20619 0.57252 0.58919 0.0
C543 C 0.22717 0.55086 0.5778 0.0
C544 C 0.21177 0.52939 0.54756 0.0
C545 C 0.17501 0.52911 0.52878 0.0
H546 H 0.25529 0.55061 0.59243 0.0
H547 H 0.88446 0.51688 0.40751 0.0
H548 H 0.75357 0.51245 0.55142 0.0
H549 H 0.71375 0.54791 0.52491 0.0
H550 H 0.58867 0.45939 0.56856 0.0
H551 H 0.62807 0.425 0.5957 0.0
H552 H 0.58077 0.46279 0.49658 0.0
H553 H 0.63817 0.5536 0.59607 0.0
H554 H 0.70094 0.60552 0.63701 0.0
H555 H 0.76652 0.70046 0.56658 0.0
H556 H 0.70444 0.64876 0.52513 0.0
H557 H 0.41892 0.52942 0.45482 0.0
H558 H 0.46871 0.50501 0.48106 0.0
H559 H 0.59207 0.63191 0.46724 0.0
H560 H 0.54269 0.65823 0.44415 0.0
H561 H 0.60729 0.61184 0.52124 0.0
H562 H 0.5532 0.52836 0.42202 0.0
H563 H 0.4959 0.47857 0.37784 0.0
H564 H 0.43187 0.37284 0.4414 0.0
H565 H 0.48842 0.42218 0.48606 0.0
C566 C 0.71805 0.5014 0.55604 0.0
C567 C 0.69407 0.46578 0.57569 0.0
C568 C 0.69525 0.52146 0.5407 0.0
C569 C 0.6481 0.50589 0.54456 0.0
C570 C 0.62491 0.47168 0.5651 0.0
C571 C 0.64771 0.4522 0.58071 0.0
C572 C 0.62154 0.52317 0.52612 0.0
C573 C 0.58627 0.49528 0.502 0.0
C574 C 0.62989 0.56606 0.53251 0.0
C575 C 0.66702 0.5971 0.55745 0.0
C576 C 0.66624 0.58535 0.58926 0.0
C577 C 0.70162 0.61478 0.61257 0.0
C578 C 0.73778 0.6562 0.60439 0.0
C579 C 0.73854 0.66833 0.57288 0.0
C580 C 0.70326 0.63899 0.54948 0.0
C581 C 0.45657 0.55246 0.45752 0.0
C582 C 0.47622 0.59591 0.44683 0.0
C583 C 0.48527 0.53808 0.47218 0.0
C584 C 0.53457 0.56616 0.4757 0.0
C585 C 0.55429 0.6093 0.4648 0.0
C586 C 0.52566 0.62409 0.4509 0.0
C587 C 0.56552 0.55122 0.49158 0.0
C588 C 0.60176 0.57949 0.51531 0.0
C589 C 0.55881 0.50898 0.48425 0.0
C590 C 0.52481 0.47911 0.45744 0.0
C591 C 0.52671 0.49458 0.42662 0.0
C592 C 0.49439 0.46642 0.40148 0.0
C593 C 0.4602 0.4226 0.40683 0.0
C594 C 0.45834 0.40681 0.4373 0.0
C595 C 0.49056 0.43484 0.46253 0.0
H596 H 0.43519 0.40086 0.38734 0.0
H597 H 0.76514 0.67895 0.62247 0.0
H598 H 0.46705 0.87313 0.38718 0.0
H599 H 0.51 0.94879 0.41128 0.0
H600 H 0.4652 0.89711 0.50224 0.0
H601 H 0.42048 0.82129 0.47783 0.0
H602 H 0.47033 0.97361 0.4978 0.0
H603 H 0.57422 0.92381 0.48076 0.0
H604 H 0.60979 0.89212 0.4502 0.0
H605 H 0.65764 1.00076 0.38832 0.0
H606 H 0.62174 0.03278 0.41825 0.0
H607 H 0.66204 0.16694 0.5869 0.0
H608 H 0.61061 0.09043 0.56471 0.0
H609 H 0.62949 0.13718 0.46995 0.0
H610 H 0.67901 0.21366 0.49162 0.0
H611 H 0.63826 0.06231 0.47899 0.0
H612 H 0.53204 0.11089 0.49829 0.0
H613 H 0.49794 0.1414 0.53149 0.0
H614 H 0.45737 0.03317 0.59319 0.0
H615 H 0.49187 1.00236 0.56059 0.0
C616 C 0.46544 0.87798 0.41216 0.0
C617 C 0.44054 0.84127 0.43062 0.0
C618 C 0.49038 0.92125 0.42601 0.0
C619 C 0.49215 0.92874 0.45884 0.0
C620 C 0.46476 0.8923 0.47693 0.0
C621 C 0.43902 0.84894 0.46292 0.0
C622 C 0.52469 0.97409 0.47441 0.0
C623 C 0.50715 0.9927 0.49398 0.0
C624 C 0.57288 0.99938 0.46946 0.0
C625 C 0.59494 0.98048 0.45158 0.0
C626 C 0.59209 0.9408 0.46052 0.0
C627 C 0.61232 0.92279 0.44332 0.0
C628 C 0.63587 0.94437 0.4173 0.0
C629 C 0.63935 0.98407 0.40847 0.0
C630 C 0.61909 1.00218 0.42556 0.0
C631 C 0.65515 0.16114 0.56133 0.0
C632 C 0.67505 0.19694 0.54119 0.0
C633 C 0.6258 0.11726 0.54869 0.0
C634 C 0.61598 0.10811 0.51567 0.0
C635 C 0.63672 0.14344 0.49551 0.0
C636 C 0.66553 0.18729 0.50806 0.0
C637 C 0.58371 0.06186 0.50193 0.0
C638 C 0.60142 0.04308 0.4828 0.0
C639 C 0.53599 0.03625 0.50773 0.0
C640 C 0.51499 0.05459 0.5272 0.0
C641 C 0.51621 0.0938 0.51909 0.0
C642 C 0.49674 0.11111 0.53777 0.0
C643 C 0.47562 0.08931 0.56449 0.0
C644 C 0.47381 0.05007 0.57252 0.0
C645 C 0.49329 0.03265 0.55394 0.0
H646 H 0.46056 0.10276 0.57891 0.0
H647 H 0.65151 0.93037 0.404 0.0
H648 H 0.95663 1.01438 0.61107 0.0
H649 H 0.97234 1.01374 0.55584 0.0
H650 H 0.11912 0.06845 0.58731 0.0
H651 H 0.10375 0.06972 0.64243 0.0
H652 H 0.10558 0.11239 0.53764 0.0
H653 H 1.05059 0.96095 0.56271 0.0
H654 H 0.99497 0.8873 0.58158 0.0
H655 H 0.88835 0.8703 0.50819 0.0
H656 H 0.94317 0.94417 0.48915 0.0
H657 H 0.17586 0.0891 0.39068 0.0
H658 H 0.16037 0.08304 0.44635 0.0
H659 H 1.01128 1.01316 0.41662 0.0
H660 H 1.02671 1.0183 0.36104 0.0
H661 H 1.02615 0.97617 0.46594 0.0
H662 H 0.07729 0.12645 0.44152 0.0
H663 H 0.13011 0.20086 0.42248 0.0
H664 H 0.24016 0.22131 0.49419 0.0
H665 H 0.18815 0.14674 0.5134 0.0
C666 C 0.99222 0.02625 0.6062 0.0
C667 C 1.02888 0.04196 0.63119 0.0
C668 C 1.00111 0.02559 0.57466 0.0
C669 C 1.04688 0.04076 0.56745 0.0
C670 C 0.08352 0.05644 0.59232 0.0
C671 C 0.0746 0.05679 0.62387 0.0
C672 C 0.05684 0.04154 0.53392 0.0
C673 C 0.08875 0.08251 0.52207 0.0
C674 C 1.03381 1.00278 0.51335 0.0
C675 C 1.00086 0.95828 0.5247 0.0
C676 C 1.01517 0.94167 0.55076 0.0
C677 C 0.98381 0.89985 0.56146 0.0
C678 C 0.93812 0.87418 0.54615 0.0
C679 C 0.92374 0.89024 0.52005 0.0
C680 C 0.95495 0.93207 0.50928 0.0
C681 C 0.13982 0.0724 0.39608 0.0
C682 C 0.10256 0.0543 0.37147 0.0
C683 C 0.13095 0.06904 0.42789 0.0
C684 C 0.08463 0.04834 0.43579 0.0
C685 C 1.04732 0.0293 0.41123 0.0
C686 C 0.05617 0.03216 0.37942 0.0
C687 C 0.07506 0.04711 0.46956 0.0
C688 C 1.04313 1.00609 0.48147 0.0
C689 C 0.09766 0.08595 0.49013 0.0
C690 C 0.12898 0.13084 0.47868 0.0
C691 C 0.11286 0.14669 0.45308 0.0
C692 C 0.14264 0.18891 0.44228 0.0
C693 C 0.1885 0.21574 0.45706 0.0
C694 C 0.20464 0.20045 0.48273 0.0
C695 C 0.17503 0.15823 0.4936 0.0
H696 H 0.2115 0.24842 0.44867 0.0
H697 H 0.91389 0.84181 0.55447 0.0
H698 H 0.73978 0.40562 0.97415 0.0
H699 H 0.75716 0.41837 0.91896 0.0
H700 H 0.63995 0.28619 0.8905 0.0
H701 H 0.62164 0.27414 0.94552 0.0
H702 H 0.78382 0.38586 0.87938 0.0
H703 H 0.59301 0.27944 0.81558 0.0
H704 H 0.51261 0.25833 0.82455 0.0
H705 H 0.56832 0.37452 0.88696 0.0
H706 H 0.64896 0.39664 0.87803 0.0
H707 H 0.8047 0.35754 0.71889 0.0
H708 H 0.78305 0.34498 0.77329 0.0
H709 H 0.70542 0.41051 0.75533 0.0
H710 H 0.7244 0.41969 0.70016 0.0
H711 H 0.66002 0.34963 0.7902 0.0
H712 H 0.82295 0.46165 0.79892 0.0
H713 H 0.9064 0.49602 0.79067 0.0
H714 H 0.91184 0.39208 0.84002 0.0
H715 H 0.82823 0.35677 0.84822 0.0
C716 C 0.71779 0.37931 0.95609 0.0
C717 C 0.6792 0.33894 0.96415 0.0
C718 C 0.72772 0.3866 0.9245 0.0
C719 C 0.69956 0.35353 0.90025 0.0
C720 C 0.66156 0.31279 0.90845 0.0
C721 C 0.65117 0.3058 0.93995 0.0
C722 C 0.71039 0.36142 0.86657 0.0
C723 C 0.75669 0.37798 0.85992 0.0
C724 C 0.67548 0.35237 0.84102 0.0
C725 C 0.62704 0.3394 0.84639 0.0
C726 C 0.58808 0.30054 0.83114 0.0
C727 C 0.54247 0.28839 0.83623 0.0
C728 C 0.53537 0.31498 0.8564 0.0
C729 C 0.57386 0.35385 0.87144 0.0
C730 C 0.61953 0.36618 0.86641 0.0
C731 C 0.78264 0.36873 0.72671 0.0
C732 C 0.76614 0.38952 0.70568 0.0
C733 C 0.77064 0.36206 0.75784 0.0
C734 C 0.74356 0.37785 0.76901 0.0
C735 C 0.72639 0.39801 0.74757 0.0
C736 C 0.73722 0.40338 0.7161 0.0
C737 C 0.73342 0.37362 0.80293 0.0
C738 C 0.68721 0.35764 0.80964 0.0
C739 C 0.76886 0.38513 0.82867 0.0
C740 C 0.81922 0.40638 0.82394 0.0
C741 C 0.84188 0.446 0.80785 0.0
C742 C 0.88921 0.46565 0.8032 0.0
C743 C 0.91437 0.44619 0.81475 0.0
C744 C 0.89229 0.40709 0.83106 0.0
C745 C 0.84494 0.38727 0.83574 0.0
H746 H 0.95101 0.46144 0.81111 0.0
H747 H 0.50004 0.30551 0.86031 0.0
H748 H 0.43603 0.73718 0.30801 0.0
H749 H 0.45281 0.74494 0.25266 0.0
H750 H 0.30426 0.67362 0.22128 0.0
H751 H 0.28721 0.66568 0.27689 0.0
H752 H 0.35755 0.64682 0.18833 0.0
H753 H 0.35996 0.77948 0.21826 0.0
H754 H 0.38498 0.84631 0.25229 0.0
H755 H 0.52856 0.89884 0.2363 0.0
H756 H 0.50446 0.83194 0.20253 0.0
H757 H 0.36842 0.70334 0.02729 0.0
H758 H 0.35163 0.69012 0.0824 0.0
H759 H 0.49785 0.78356 0.11439 0.0
H760 H 0.51457 0.79748 0.05906 0.0
H761 H 0.44581 0.79811 0.1477 0.0
H762 H 0.44622 0.66816 0.11797 0.0
H763 H 0.42416 0.60116 0.08516 0.0
H764 H 0.27996 0.5431 0.10184 0.0
H765 H 0.30105 0.61005 0.13441 0.0
C766 C 0.40691 0.72262 0.28937 0.0
C767 C 0.36025 0.7007 0.29675 0.0
C768 C 0.41656 0.72735 0.25777 0.0
C769 C 0.37977 0.71004 0.23294 0.0
C770 C 0.33311 0.68721 0.24016 0.0
C771 C 0.32343 0.68293 0.27183 0.0
C772 C 0.39027 0.71694 0.19948 0.0
C773 C 0.37629 0.6798 0.17923 0.0
C774 C 0.41593 0.76009 0.18804 0.0
C775 C 0.43045 0.8005 0.20813 0.0
C776 C 0.39692 0.8051 0.22221 0.0
C777 C 0.41092 0.84303 0.24142 0.0
C778 C 0.45835 0.87675 0.24652 0.0
C779 C 0.49185 0.87266 0.23236 0.0
C780 C 0.47803 0.83476 0.21317 0.0
C781 C 0.39712 0.72059 0.04603 0.0
C782 C 0.44292 0.75125 0.03884 0.0
C783 C 0.38749 0.713 0.07758 0.0
C784 C 0.42358 0.73533 0.10264 0.0
C785 C 0.46939 0.7659 0.0955 0.0
C786 C 0.47894 0.77386 0.06391 0.0
C787 C 0.41319 0.72792 0.13625 0.0
C788 C 0.42715 0.76503 0.15664 0.0
C789 C 0.38798 0.68471 0.14789 0.0
C790 C 0.37516 0.64432 0.12839 0.0
C791 C 0.40974 0.64125 0.11445 0.0
C792 C 0.39743 0.60326 0.09592 0.0
C793 C 0.35067 0.56794 0.09135 0.0
C794 C 0.31616 0.5705 0.10537 0.0
C795 C 0.32828 0.60845 0.12389 0.0
H796 H 0.34121 0.53855 0.077 0.0
H797 H 0.46912 0.90609 0.2614 0.0
H798 H 1.05332 0.9363 0.1402 0.0
H799 H 0.07188 0.92704 0.08716 0.0
H800 H 0.99621 0.9868 0.04669 0.0
H801 H 0.97651 0.99481 0.09945 0.0
H802 H 1.01262 0.89913 0.01402 0.0
H803 H 0.1016 0.08906 0.03018 0.0
H804 H 0.13511 0.1464 0.07422 0.0
H805 H 0.17163 0.06629 0.13172 0.0
H806 H 0.14065 1.0097 0.08753 0.0
H807 H 1.02522 1.01212 0.87939 0.0
H808 H 1.01816 0.97987 0.93081 0.0
H809 H 0.16783 0.03509 0.94463 0.0
H810 H 0.17521 0.06684 0.89242 0.0
H811 H 0.1358 0.05427 0.99483 0.0
H812 H 0.09936 0.92529 0.93708 0.0
H813 H 0.06363 0.86768 0.89325 0.0
H814 H 0.92609 0.8242 0.91887 0.0
H815 H 0.96087 0.88201 0.96255 0.0
C816 C 1.03941 0.94594 0.11969 0.0
C817 C 1.01433 0.96696 0.12354 0.0
C818 C 1.04956 0.94025 0.08956 0.0
C819 C 1.0358 0.95677 0.06339 0.0
C820 C 1.00694 0.97384 0.06682 0.0
C821 C 0.9959 0.97858 0.0968 0.0
C822 C 0.05927 0.96561 0.03442 0.0
C823 C 1.0401 0.93271 0.00973 0.0
C824 C 0.09625 1.00922 0.02966 0.0
C825 C 0.1179 0.04464 0.05568 0.0
C826 C 0.11721 0.08387 0.0521 0.0
C827 C 0.13589 0.11634 0.07708 0.0
C828 C 0.15522 0.10988 0.10584 0.0
C829 C 0.15627 0.07113 0.10957 0.0
C830 C 0.13825 0.03889 0.08451 0.0
C831 C 0.05661 1.01676 0.89293 0.0
C832 C 0.10078 0.04205 0.88168 0.0
C833 C 1.05248 0.99815 0.92234 0.0
C834 C 0.09237 1.00442 0.94119 0.0
C835 C 0.13661 0.02958 0.9302 0.0
C836 C 0.14077 0.04807 0.90055 0.0
C837 C 0.08749 0.98828 0.97362 0.0
C838 C 0.10991 1.02009 0.99914 0.0
C839 C 0.05422 0.94347 0.97919 0.0
C840 C 1.03282 0.90813 0.95315 0.0
C841 C 0.06147 0.90361 0.9333 0.0
C842 C 1.04138 0.87089 0.90846 0.0
C843 C 0.99262 0.8423 0.90328 0.0
C844 C 0.96387 0.84633 0.92295 0.0
C845 C 0.98378 0.87903 0.94781 0.0
H846 H 0.97712 0.817 0.88402 0.0
H847 H 0.16956 0.13499 0.12517 0.0
H848 H 0.81828 0.41436 0.23235 0.0
H849 H 0.80783 0.43458 0.28462 0.0
H850 H 0.72835 0.48852 0.24043 0.0
H851 H 0.73828 0.46776 0.18779 0.0
H852 H 0.80014 0.52993 0.30987 0.0
H853 H 0.6591 0.40677 0.24959 0.0
H854 H 0.62463 0.34207 0.21139 0.0
H855 H 0.67281 0.27693 0.27625 0.0
H856 H 0.70976 0.3423 0.31411 0.0
H857 H 0.64059 0.39162 0.44402 0.0
H858 H 0.64926 0.41685 0.38982 0.0
H859 H 0.79803 0.4681 0.40579 0.0
H860 H 0.78968 0.44291 0.45972 0.0
H861 H 0.67679 0.38483 0.34576 0.0
H862 H 0.85792 0.55388 0.35911 0.0
H863 H 0.90112 0.62032 0.3959 0.0
H864 H 0.77134 0.5938 0.4267 0.0
H865 H 0.72716 0.52773 0.3896 0.0
C866 C 0.80001 0.4319 0.23377 0.0
C867 C 0.77817 0.43869 0.20627 0.0
C868 C 0.79426 0.44361 0.26355 0.0
C869 C 0.76709 0.46266 0.26612 0.0
C870 C 0.74949 0.47389 0.23871 0.0
C871 C 0.75462 0.46152 0.20882 0.0
C872 C 0.74907 0.4612 0.29662 0.0
C873 C 0.77271 0.49861 0.31783 0.0
C874 C 0.71262 0.42028 0.3063 0.0
C875 C 0.68772 0.37972 0.28452 0.0
C876 C 0.66292 0.37893 0.25552 0.0
C877 C 0.64315 0.34223 0.23385 0.0
C878 C 0.64669 0.30548 0.24133 0.0
C879 C 0.67016 0.30545 0.27046 0.0
C880 C 0.69072 0.34242 0.29197 0.0
C881 C 0.6752 0.4086 0.43604 0.0
C882 C 0.71437 0.41484 0.45603 0.0
C883 C 0.68013 0.42332 0.4052 0.0
C884 C 0.72435 0.44474 0.39393 0.0
C885 C 0.76379 0.45261 0.41427 0.0
C886 C 0.75891 0.43799 0.44508 0.0
C887 C 0.72869 0.45347 0.35987 0.0
C888 C 0.70281 0.41693 0.33786 0.0
C889 C 0.76282 0.49534 0.34956 0.0
C890 C 0.78918 0.53556 0.37163 0.0
C891 C 0.83849 0.56235 0.37353 0.0
C892 C 0.86319 0.59993 0.3945 0.0
C893 C 0.83902 0.61117 0.41371 0.0
C894 C 0.79005 0.58496 0.41189 0.0
C895 C 0.76515 0.5474 0.3909 0.0
H896 H 0.85823 0.64025 0.42996 0.0
H897 H 0.63101 0.27695 0.22463 0.0
H898 H 0.39188 0.62113 0.52472 0.0
H899 H 0.37713 0.59291 0.57797 0.0
H900 H 0.48795 0.72128 0.61906 0.0
H901 H 0.50252 0.74977 0.56611 0.0
H902 H 0.4445 0.60874 0.64845 0.0
H903 H 0.41192 0.75109 0.64123 0.0
H904 H 0.38623 0.78714 0.60106 0.0
H905 H 0.29812 0.66189 0.54812 0.0
H906 H 0.32338 0.62542 0.588 0.0
H907 H 0.436 0.73718 0.7846 0.0
H908 H 0.44572 0.72083 0.73086 0.0
H909 H 0.3299 0.58555 0.73364 0.0
H910 H 0.31978 0.6019 0.78767 0.0
H911 H 0.35883 0.67995 0.67932 0.0
H912 H 0.38447 0.5346 0.68696 0.0
H913 H 0.40843 0.49673 0.72661 0.0
H914 H 0.50336 0.62159 0.77844 0.0
H915 H 0.48043 0.66019 0.73888 0.0
C916 C 0.41382 0.64292 0.54515 0.0
C917 C 0.4473 0.68802 0.54158 0.0
C918 C 0.40596 0.6265 0.5754 0.0
C919 C 0.43131 0.65522 0.60215 0.0
C920 C 0.46835 0.6987 0.59847 0.0
C921 C 0.47639 0.71504 0.56829 0.0
C922 C 0.41176 0.64517 0.63269 0.0
C923 C 0.42472 0.62318 0.65513 0.0
C924 C 0.38572 0.66383 0.64102 0.0
C925 C 0.36958 0.68557 0.61748 0.0
C926 C 0.38689 0.73129 0.62109 0.0
C927 C 0.37254 0.75184 0.59832 0.0
C928 C 0.34066 0.72687 0.57198 0.0
C929 C 0.32294 0.68129 0.56842 0.0
C930 C 0.33728 0.66069 0.59108 0.0
C931 C 0.41299 0.70389 0.77386 0.0
C932 C 0.37695 0.67089 0.78995 0.0
C933 C 0.4185 0.69462 0.74332 0.0
C934 C 0.3886 0.65204 0.72869 0.0
C935 C 0.3533 0.61851 0.74487 0.0
C936 C 0.34734 0.62798 0.7754 0.0
C937 C 0.39259 0.64458 0.69548 0.0
C938 C 0.37691 0.6638 0.67248 0.0
C939 C 0.41512 0.62253 0.68672 0.0
C940 C 0.43025 0.60011 0.71021 0.0
C941 C 0.41055 0.55394 0.70678 0.0
C942 C 0.42395 0.53236 0.72923 0.0
C943 C 0.45724 0.55671 0.7551 0.0
C944 C 0.4774 0.60273 0.75848 0.0
C945 C 0.46414 0.62446 0.73609 0.0
H946 H 0.46751 0.53994 0.77248 0.0
H947 H 0.32965 0.74283 0.55437 0.0
loop_
_geom_bond_atom_site_label_1
_geom_bond_atom_site_label_2
_geom_bond_distance
_geom_bond_site_symmetry_2
_ccdc_geom_bond_type
C0 C1 1.351 . S
C0 N3 1.368 . S
C0 H5 0.931 . S
C1 C0 1.351 . S
C1 N2 1.373 . S
C1 H29 0.930 . S
N2 C1 1.373 . S
N2 C4 1.340 . S
N3 C0 1.368 . S
N3 C4 1.321 . S
N3 Co6 2.135 . S
C4 N2 1.340 . S
C4 N3 1.321 . S
C4 H28 0.930 . S
H5 C0 0.931 . S
Co6 N3 2.135 . S
Co6 N9 2.121 . S
Co6 O14 2.055 . S
Co6 O17 2.039 . S
Co6 N20 2.140 1_445 S
C7 O8 1.227 . S
C7 O17 1.265 1_655 S
O8 C7 1.227 . S
N9 Co6 2.121 . S
N9 C11 1.375 1_455 S
N9 C12 1.313 . S
C10 C11 1.338 . S
C10 N13 1.377 1_655 S
C10 H30 0.930 . S
C11 N9 1.375 1_655 S
C11 C10 1.338 . S
C11 H15 0.931 . S
C12 N9 1.313 . S
C12 N13 1.344 . S
C12 H16 0.930 . S
N13 C10 1.377 1_455 S
N13 C12 1.344 . S
O14 Co6 2.055 . S
O14 C18 1.253 . S
H15 C11 0.931 . S
H16 C12 0.930 . S
O17 Co6 2.039 . S
O17 C7 1.265 1_455 S
C18 O14 1.253 . S
C18 O19 1.227 . S
O19 C18 1.227 . S
N20 Co6 2.140 1_665 S
N20 C23 1.346 . S
N20 C24 1.352 . S
C21 C22 1.387 . S
C21 C25 1.391 . S
C22 C21 1.387 . S
C22 C23 1.369 . S
C22 H31 0.929 . S
C23 N20 1.346 . S
C23 C22 1.369 . S
C23 H26 0.928 . S
C24 N20 1.352 . S
C24 C25 1.371 . S
C24 H27 0.923 1_655 S
C25 C21 1.391 . S
C25 C24 1.371 . S
C25 H32 0.930 . S
H26 C23 0.928 . S
H27 C24 0.923 1_455 S
H28 C4 0.930 . S
H29 C1 0.930 . S
H30 C10 0.930 . S
H31 C22 0.929 . S
H32 C25 0.930 . S
C33 C34 1.351 . S
C33 N36 1.368 1_565 S
C33 H38 0.931 . S
C34 C33 1.351 . S
C34 N35 1.373 1_565 S
C34 H62 0.930 . S
N35 C34 1.373 1_545 S
N35 C37 1.340 1_655 S
N36 C33 1.368 1_545 S
N36 C37 1.321 1_655 S
N36 Co39 2.135 . S
C37 N35 1.340 1_455 S
C37 N36 1.321 1_455 S
C37 H61 0.930 . S
H38 C33 0.931 . S
Co39 N36 2.135 . S
Co39 N42 2.121 1_655 S
Co39 O47 2.055 1_545 S
Co39 O50 2.039 1_655 S
Co39 N53 2.140 1_645 S
C40 O41 1.227 . S
C40 O50 1.265 . S
O41 C40 1.227 . S
N42 Co39 2.121 1_455 S
N42 C44 1.375 . S
N42 C45 1.313 1_455 S
C43 C44 1.338 . S
C43 N46 1.377 . S
C43 H63 0.930 . S
C44 N42 1.375 . S
C44 C43 1.338 . S
C44 H48 0.931 . S
C45 N42 1.313 1_655 S
C45 N46 1.344 1_655 S
C45 H49 0.930 1_545 S
N46 C43 1.377 . S
N46 C45 1.344 1_455 S
O47 Co39 2.055 1_565 S
O47 C51 1.253 . S
H48 C44 0.931 . S
H49 C45 0.930 1_565 S
O50 Co39 2.039 1_455 S
O50 C40 1.265 . S
C51 O47 1.253 . S
C51 O52 1.227 . S
O52 C51 1.227 . S
N53 Co39 2.140 1_465 S
N53 C56 1.346 . S
N53 C57 1.345 . S
C54 C55 1.387 . S
C54 C58 1.391 . S
C55 C54 1.387 . S
C55 C56 1.369 . S
C55 H64 0.929 . S
C56 N53 1.346 . S
C56 C55 1.369 . S
C56 H59 0.928 1_565 S
C57 N53 1.345 . S
C57 C58 1.371 . S
C57 H60 0.931 . S
C58 C54 1.391 . S
C58 C57 1.371 . S
C58 H65 0.930 . S
H59 C56 0.928 1_545 S
H60 C57 0.931 . S
H61 C37 0.930 . S
H62 C34 0.930 . S
H63 C43 0.930 . S
H64 C55 0.929 . S
H65 C58 0.930 . S
C66 C67 1.351 . S
C66 N69 1.368 . S
C66 H71 0.931 . S
C67 C66 1.351 . S
C67 N68 1.373 . S
C67 H95 0.930 . S
N68 C67 1.373 . S
N68 C70 1.340 . S
N69 C66 1.368 . S
N69 C70 1.321 . S
N69 Co72 2.135 . S
C70 N68 1.340 . S
C70 N69 1.321 . S
C70 H94 0.930 . S
H71 C66 0.931 . S
Co72 N69 2.135 . S
Co72 N75 2.121 . S
Co72 O80 2.055 . S
Co72 O83 2.039 . S
Co72 N86 2.140 . S
C73 O74 1.227 . S
C73 O83 1.265 . S
O74 C73 1.227 . S
N75 Co72 2.121 . S
N75 C77 1.375 . S
N75 C78 1.313 . S
C76 C77 1.338 . S
C76 N79 1.377 . S
C76 H96 0.930 . S
C77 N75 1.375 . S
C77 C76 1.338 . S
C77 H81 0.931 . S
C78 N75 1.313 . S
C78 N79 1.344 . S
C78 H82 0.930 . S
N79 C76 1.377 . S
N79 C78 1.344 . S
O80 Co72 2.055 . S
O80 C84 1.253 . S
H81 C77 0.931 . S
H82 C78 0.930 . S
O83 Co72 2.039 . S
O83 C73 1.265 . S
C84 O80 1.253 . S
C84 O85 1.227 . S
O85 C84 1.227 . S
N86 Co72 2.140 . S
N86 C89 1.346 . S
N86 C90 1.345 . S
C87 C88 1.387 . S
C87 C91 1.391 . S
C88 C87 1.387 . S
C88 C89 1.369 . S
C88 H97 0.929 . S
C89 N86 1.346 . S
C89 C88 1.369 . S
C89 H92 0.928 . S
C90 N86 1.345 . S
C90 C91 1.371 . S
C90 H93 0.931 . S
C91 C87 1.391 . S
C91 C90 1.371 . S
C91 H98 0.930 . S
H92 C89 0.928 . S
H93 C90 0.931 . S
H94 C70 0.930 . S
H95 C67 0.930 . S
H96 C76 0.930 . S
H97 C88 0.929 . S
H98 C91 0.930 . S
C99 C100 1.351 . S
C99 N102 1.368 . S
C99 H104 0.931 . S
C100 C99 1.351 . S
C100 N101 1.373 . S
C100 H128 0.930 . S
N101 C100 1.373 . S
N101 C103 1.340 . S
N102 C99 1.368 . S
N102 C103 1.321 . S
N102 Co105 2.135 . S
C103 N101 1.340 . S
C103 N102 1.321 . S
C103 H127 0.930 . S
H104 C99 0.931 . S
Co105 N102 2.135 . S
Co105 N108 2.121 . S
Co105 O113 2.055 . S
Co105 O116 2.039 . S
Co105 N119 2.140 . S
C106 O107 1.227 . S
C106 O116 1.265 . S
O107 C106 1.227 . S
N108 Co105 2.121 . S
N108 C110 1.375 . S
N108 C111 1.313 . S
C109 C110 1.338 . S
C109 N112 1.377 . S
C109 H129 0.930 . S
C110 N108 1.375 . S
C110 C109 1.338 . S
C110 H114 0.931 . S
C111 N108 1.313 . S
C111 N112 1.344 . S
C111 H115 0.930 . S
N112 C109 1.377 . S
N112 C111 1.344 . S
O113 Co105 2.055 . S
O113 C117 1.253 . S
H114 C110 0.931 . S
H115 C111 0.930 . S
O116 Co105 2.039 . S
O116 C106 1.265 . S
C117 O113 1.253 . S
C117 O118 1.227 . S
O118 C117 1.227 . S
N119 Co105 2.140 . S
N119 C122 1.346 . S
N119 C123 1.345 . S
C120 C121 1.387 . S
C120 C124 1.391 . S
C121 C120 1.387 . S
C121 C122 1.369 . S
C121 H130 0.929 . S
C122 N119 1.346 . S
C122 C121 1.369 . S
C122 H125 0.928 . S
C123 N119 1.345 . S
C123 C124 1.371 . S
C123 H126 0.931 . S
C124 C120 1.391 . S
C124 C123 1.371 . S
C124 H131 0.930 . S
H125 C122 0.928 . S
H126 C123 0.931 . S
H127 C103 0.930 . S
H128 C100 0.930 . S
H129 C109 0.930 . S
H130 C121 0.929 . S
H131 C124 0.930 . S
C132 C133 1.351 . S
C132 N135 1.368 . S
C132 H137 0.931 . S
C133 C132 1.351 . S
C133 N134 1.373 . S
C133 H161 0.930 . S
N134 C133 1.373 . S
N134 C136 1.340 . S
N135 C132 1.368 . S
N135 C136 1.321 . S
N135 Co138 2.135 . S
C136 N134 1.340 . S
C136 N135 1.321 . S
C136 H160 0.930 . S
H137 C132 0.931 . S
Co138 N135 2.135 . S
Co138 N141 2.121 . S
Co138 O146 2.055 . S
Co138 O149 2.039 . S
Co138 N152 2.140 . S
C139 O140 1.227 . S
C139 O149 1.265 . S
O140 C139 1.227 . S
N141 Co138 2.121 . S
N141 C143 1.375 . S
N141 C144 1.313 . S
C142 C143 1.338 . S
C142 N145 1.377 . S
C142 H162 0.930 . S
C143 N141 1.375 . S
C143 C142 1.338 . S
C143 H147 0.931 . S
C144 N141 1.313 . S
C144 N145 1.344 . S
C144 H148 0.930 . S
N145 C142 1.377 . S
N145 C144 1.344 . S
O146 Co138 2.055 . S
O146 C150 1.253 . S
H147 C143 0.931 . S
H148 C144 0.930 . S
O149 Co138 2.039 . S
O149 C139 1.265 . S
C150 O146 1.253 . S
C150 O151 1.227 . S
O151 C150 1.227 . S
N152 Co138 2.140 . S
N152 C155 1.346 . S
N152 C156 1.345 . S
C153 C154 1.387 . S
C153 C157 1.391 . S
C154 C153 1.387 . S
C154 C155 1.369 . S
C154 H163 0.929 . S
C155 N152 1.346 . S
C155 C154 1.369 . S
C155 H158 0.928 . S
C156 N152 1.345 . S
C156 C157 1.371 . S
C156 H159 0.931 . S
C157 C153 1.391 . S
C157 C156 1.371 . S
C157 H164 0.930 . S
H158 C155 0.928 . S
H159 C156 0.931 . S
H160 C136 0.930 . S
H161 C133 0.930 . S
H162 C142 0.930 . S
H163 C154 0.929 . S
H164 C157 0.930 . S
C165 C166 1.351 . S
C165 N168 1.368 . S
C165 H170 0.931 . S
C166 C165 1.351 . S
C166 N167 1.373 . S
C166 H194 0.930 . S
N167 C166 1.373 . S
N167 C169 1.340 . S
N168 C165 1.368 . S
N168 C169 1.321 . S
N168 Co171 2.135 . S
C169 N167 1.340 . S
C169 N168 1.321 . S
C169 H193 0.930 . S
H170 C165 0.931 . S
Co171 N168 2.135 . S
Co171 N174 2.121 . S
Co171 O179 2.055 . S
Co171 O182 2.039 . S
Co171 N185 2.140 . S
C172 O173 1.227 . S
C172 O182 1.265 . S
O173 C172 1.227 . S
N174 Co171 2.121 . S
N174 C176 1.375 . S
N174 C177 1.313 . S
C175 C176 1.338 . S
C175 N178 1.377 . S
C175 H195 0.930 . S
C176 N174 1.375 . S
C176 C175 1.338 . S
C176 H180 0.931 . S
C177 N174 1.313 . S
C177 N178 1.344 . S
C177 H181 0.930 . S
N178 C175 1.377 . S
N178 C177 1.344 . S
O179 Co171 2.055 . S
O179 C183 1.253 . S
H180 C176 0.931 . S
H181 C177 0.930 . S
O182 Co171 2.039 . S
O182 C172 1.265 . S
C183 O179 1.253 . S
C183 O184 1.227 . S
O184 C183 1.227 . S
N185 Co171 2.140 . S
N185 C188 1.346 . S
N185 C189 1.345 . S
C186 C187 1.387 . S
C186 C190 1.391 . S
C187 C186 1.387 . S
C187 C188 1.369 . S
C187 H196 0.929 . S
C188 N185 1.346 . S
C188 C187 1.369 . S
C188 H191 0.928 . S
C189 N185 1.345 . S
C189 C190 1.371 . S
C189 H192 0.931 . S
C190 C186 1.391 . S
C190 C189 1.371 . S
C190 H197 0.930 . S
H191 C188 0.928 . S
H192 C189 0.931 . S
H193 C169 0.930 . S
H194 C166 0.930 . S
H195 C175 0.930 . S
H196 C187 0.929 . S
H197 C190 0.930 . S
H198 C216 0.951 . S
H199 C218 0.951 . S
H200 C220 0.950 . S
H201 C221 0.950 . S
H202 C223 0.950 . S
H203 C226 0.950 . S
H204 C227 0.950 . S
H205 C229 0.950 . S
H206 C230 0.950 . S
H207 C231 0.951 . S
H208 C233 0.951 . S
H209 C235 0.950 . S
H210 C236 0.950 . S
H211 C238 0.950 . S
H212 C241 0.950 . S
H213 C242 0.950 . S
H214 C244 0.950 . S
H215 C245 0.950 . S
C216 H198 0.951 . S
C216 C217 1.366 . S
C216 C218 1.388 . S
C217 C216 1.366 . S
C217 C221 1.385 . S
C218 H199 0.951 . S
C218 C216 1.388 . S
C218 C219 1.366 . S
C219 C218 1.366 . S
C219 C220 1.414 . S
C219 C222 1.499 . S
C220 H200 0.950 . S
C220 C219 1.414 . S
C220 C221 1.374 . S
C221 H201 0.950 . S
C221 C217 1.385 . S
C221 C220 1.374 . S
C222 C219 1.499 . S
C222 C223 1.373 . S
C222 C224 1.389 . S
C223 H202 0.950 . S
C223 C222 1.373 . S
C223 C239 1.377 . S
C224 C222 1.389 . S
C224 C225 1.524 . S
C224 C238 1.377 . S
C225 C224 1.524 . S
C225 C226 1.397 . S
C225 C230 1.363 . S
C226 H203 0.950 . S
C226 C225 1.397 . S
C226 C227 1.334 . S
C227 H204 0.950 . S
C227 C226 1.334 . S
C227 C228 1.287 . S
C228 C227 1.287 . S
C228 C229 1.524 . S
C228 H247 0.913 . S
C229 H205 0.950 . S
C229 C228 1.524 . S
C229 C230 1.415 . S
C230 H206 0.950 . S
C230 C225 1.363 . S
C230 C229 1.415 . S
C231 H207 0.951 . S
C231 C232 1.366 . S
C231 C233 1.388 . S
C232 C231 1.366 . S
C232 C236 1.385 . S
C233 H208 0.951 . S
C233 C231 1.388 . S
C233 C234 1.366 . S
C234 C233 1.366 . S
C234 C235 1.414 . S
C234 C237 1.499 . S
C235 H209 0.950 . S
C235 C234 1.414 . S
C235 C236 1.374 . S
C236 H210 0.950 . S
C236 C232 1.385 . S
C236 C235 1.374 . S
C237 C234 1.499 . S
C237 C238 1.373 . S
C237 C239 1.389 . S
C238 H211 0.950 . S
C238 C224 1.377 . S
C238 C237 1.373 . S
C239 C223 1.377 . S
C239 C237 1.389 . S
C239 C240 1.524 . S
C240 C239 1.524 . S
C240 C241 1.397 . S
C240 C245 1.363 . S
C241 H212 0.950 . S
C241 C240 1.397 . S
C241 C242 1.334 . S
C242 H213 0.950 . S
C242 C241 1.334 . S
C242 C243 1.287 . S
C243 C242 1.287 . S
C243 C244 1.524 . S
C243 H246 0.999 . S
C244 H214 0.950 . S
C244 C243 1.524 . S
C244 C245 1.415 . S
C245 H215 0.950 . S
C245 C240 1.363 . S
C245 C244 1.415 . S
H246 C243 0.999 . S
H247 C228 0.913 . S
H248 C266 0.951 . S
H249 C268 0.951 . S
H250 C270 0.950 . S
H251 C271 0.950 . S
H252 C273 0.950 . S
H253 C276 0.950 . S
H254 C277 0.950 . S
H255 C279 0.950 1_565 S
H256 C280 0.950 . S
H257 C281 0.951 . S
H258 C283 0.951 . S
H259 C285 0.950 . S
H260 C286 0.950 . S
H261 C288 0.950 . S
H262 C291 0.950 . S
H263 C292 0.950 . S
H264 C294 0.950 . S
H265 C295 0.950 . S
C266 H248 0.951 . S
C266 C267 1.366 . S
C266 C268 1.388 . S
C267 C266 1.366 . S
C267 C271 1.385 . S
C268 H249 0.951 . S
C268 C266 1.388 . S
C268 C269 1.366 . S
C269 C268 1.366 . S
C269 C270 1.414 . S
C269 C272 1.499 . S
C270 H250 0.950 . S
C270 C269 1.414 . S
C270 C271 1.374 . S
C271 H251 0.950 . S
C271 C267 1.385 . S
C271 C270 1.374 . S
C272 C269 1.499 . S
C272 C273 1.373 . S
C272 C274 1.389 . S
C273 H252 0.950 . S
C273 C272 1.373 . S
C273 C289 1.377 . S
C274 C272 1.389 . S
C274 C275 1.524 . S
C274 C288 1.377 . S
C275 C274 1.524 . S
C275 C276 1.397 . S
C275 C280 1.363 . S
C276 H253 0.950 . S
C276 C275 1.397 . S
C276 C277 1.334 . S
C277 H254 0.950 . S
C277 C276 1.334 . S
C277 C278 1.287 . S
C278 C277 1.287 . S
C278 C279 1.524 . S
C278 H297 0.913 1_545 S
C279 H255 0.950 1_545 S
C279 C278 1.524 . S
C279 C280 1.415 . S
C280 H256 0.950 . S
C280 C275 1.363 . S
C280 C279 1.415 . S
C281 H257 0.951 . S
C281 C282 1.366 . S
C281 C283 1.388 . S
C282 C281 1.366 . S
C282 C286 1.385 . S
C283 H258 0.951 . S
C283 C281 1.388 . S
C283 C284 1.366 . S
C284 C283 1.366 . S
C284 C285 1.414 . S
C284 C287 1.499 . S
C285 H259 0.950 . S
C285 C284 1.414 . S
C285 C286 1.374 . S
C286 H260 0.950 . S
C286 C282 1.385 . S
C286 C285 1.374 . S
C287 C284 1.499 . S
C287 C288 1.373 . S
C287 C289 1.389 . S
C288 H261 0.950 . S
C288 C274 1.377 . S
C288 C287 1.373 . S
C289 C273 1.377 . S
C289 C287 1.389 . S
C289 C290 1.524 . S
C290 C289 1.524 . S
C290 C291 1.397 . S
C290 C295 1.363 . S
C291 H262 0.950 . S
C291 C290 1.397 . S
C291 C292 1.334 . S
C292 H263 0.950 . S
C292 C291 1.334 . S
C292 C293 1.287 . S
C293 C292 1.287 . S
C293 C294 1.524 . S
C293 H296 0.999 . S
C294 H264 0.950 . S
C294 C293 1.524 . S
C294 C295 1.415 . S
C295 H265 0.950 . S
C295 C290 1.363 . S
C295 C294 1.415 . S
H296 C293 0.999 . S
H297 C278 0.913 1_565 S
H298 C316 0.951 . S
H299 C318 0.951 . S
H300 C320 0.950 . S
H301 C321 0.950 . S
H302 C323 0.950 . S
H303 C326 0.950 . S
H304 C327 0.950 . S
H305 C329 0.950 . S
H306 C330 0.950 . S
H307 C331 0.951 . S
H308 C333 0.951 . S
H309 C335 0.950 . S
H310 C336 0.950 . S
H311 C338 0.950 . S
H312 C341 0.950 . S
H313 C342 0.950 . S
H314 C344 0.950 . S
H315 C345 0.950 . S
C316 H298 0.951 . S
C316 C317 1.366 . S
C316 C318 1.388 . S
C317 C316 1.366 . S
C317 C321 1.385 . S
C318 H299 0.951 . S
C318 C316 1.388 . S
C318 C319 1.366 . S
C319 C318 1.366 . S
C319 C320 1.414 . S
C319 C322 1.499 . S
C320 H300 0.950 . S
C320 C319 1.414 . S
C320 C321 1.374 . S
C321 H301 0.950 . S
C321 C317 1.385 . S
C321 C320 1.374 . S
C322 C319 1.499 . S
C322 C323 1.373 . S
C322 C324 1.389 . S
C323 H302 0.950 . S
C323 C322 1.373 . S
C323 C339 1.377 . S
C324 C322 1.389 . S
C324 C325 1.524 . S
C324 C338 1.377 . S
C325 C324 1.524 . S
C325 C326 1.397 . S
C325 C330 1.363 . S
C326 H303 0.950 . S
C326 C325 1.397 . S
C326 C327 1.334 . S
C327 H304 0.950 . S
C327 C326 1.334 . S
C327 C328 1.287 . S
C328 C327 1.287 . S
C328 C329 1.524 . S
C328 H347 0.913 . S
C329 H305 0.950 . S
C329 C328 1.524 . S
C329 C330 1.415 . S
C330 H306 0.950 . S
C330 C325 1.363 . S
C330 C329 1.415 . S
C331 H307 0.951 . S
C331 C332 1.366 . S
C331 C333 1.388 . S
C332 C331 1.366 . S
C332 C336 1.385 . S
C333 H308 0.951 . S
C333 C331 1.388 . S
C333 C334 1.366 . S
C334 C333 1.366 . S
C334 C335 1.414 . S
C334 C337 1.499 . S
C335 H309 0.950 . S
C335 C334 1.414 . S
C335 C336 1.374 . S
C336 H310 0.950 . S
C336 C332 1.385 . S
C336 C335 1.374 . S
C337 C334 1.499 . S
C337 C338 1.373 . S
C337 C339 1.389 . S
C338 H311 0.950 . S
C338 C324 1.377 . S
C338 C337 1.373 . S
C339 C323 1.377 . S
C339 C337 1.389 . S
C339 C340 1.524 . S
C340 C339 1.524 . S
C340 C341 1.397 . S
C340 C345 1.363 . S
C341 H312 0.950 . S
C341 C340 1.397 . S
C341 C342 1.334 . S
C342 H313 0.950 . S
C342 C341 1.334 . S
C342 C343 1.287 . S
C343 C342 1.287 . S
C343 C344 1.524 . S
C343 H346 0.999 . S
C344 H314 0.950 . S
C344 C343 1.524 . S
C344 C345 1.415 . S
C345 H315 0.950 . S
C345 C340 1.363 . S
C345 C344 1.415 . S
H346 C343 0.999 . S
H347 C328 0.913 . S
H348 C366 0.951 . S
H349 C368 0.951 . S
H350 C370 0.950 . S
H351 C371 0.950 . S
H352 C373 0.950 . S
H353 C376 0.950 . S
H354 C377 0.950 . S
H355 C379 0.950 . S
H356 C380 0.950 . S
H357 C381 0.951 . S
H358 C383 0.951 . S
H359 C385 0.950 . S
H360 C386 0.950 . S
H361 C388 0.950 . S
H362 C391 0.950 . S
H363 C392 0.950 . S
H364 C394 0.950 . S
H365 C395 0.950 . S
C366 H348 0.951 . S
C366 C367 1.366 . S
C366 C368 1.388 . S
C367 C366 1.366 . S
C367 C371 1.385 . S
C368 H349 0.951 . S
C368 C366 1.388 . S
C368 C369 1.366 . S
C369 C368 1.366 . S
C369 C370 1.414 . S
C369 C372 1.499 . S
C370 H350 0.950 . S
C370 C369 1.414 . S
C370 C371 1.374 . S
C371 H351 0.950 . S
C371 C367 1.385 . S
C371 C370 1.374 . S
C372 C369 1.499 . S
C372 C373 1.373 . S
C372 C374 1.389 . S
C373 H352 0.950 . S
C373 C372 1.373 . S
C373 C389 1.377 . S
C374 C372 1.389 . S
C374 C375 1.524 . S
C374 C388 1.377 . S
C375 C374 1.524 . S
C375 C376 1.397 . S
C375 C380 1.363 . S
C376 H353 0.950 . S
C376 C375 1.397 . S
C376 C377 1.334 . S
C377 H354 0.950 . S
C377 C376 1.334 . S
C377 C378 1.287 . S
C378 C377 1.287 . S
C378 C379 1.524 . S
C378 H397 0.913 . S
C379 H355 0.950 . S
C379 C378 1.524 . S
C379 C380 1.415 . S
C380 H356 0.950 . S
C380 C375 1.363 . S
C380 C379 1.415 . S
C381 H357 0.951 . S
C381 C382 1.366 . S
C381 C383 1.388 . S
C382 C381 1.366 . S
C382 C386 1.385 . S
C383 H358 0.951 . S
C383 C381 1.388 . S
C383 C384 1.366 . S
C384 C383 1.366 . S
C384 C385 1.414 . S
C384 C387 1.499 . S
C385 H359 0.950 . S
C385 C384 1.414 . S
C385 C386 1.374 . S
C386 H360 0.950 . S
C386 C382 1.385 . S
C386 C385 1.374 . S
C387 C384 1.499 . S
C387 C388 1.373 . S
C387 C389 1.389 . S
C388 H361 0.950 . S
C388 C374 1.377 . S
C388 C387 1.373 . S
C389 C373 1.377 . S
C389 C387 1.389 . S
C389 C390 1.524 . S
C390 C389 1.524 . S
C390 C391 1.397 . S
C390 C395 1.363 . S
C391 H362 0.950 . S
C391 C390 1.397 . S
C391 C392 1.334 . S
C392 H363 0.950 . S
C392 C391 1.334 . S
C392 C393 1.287 . S
C393 C392 1.287 . S
C393 C394 1.524 . S
C393 H396 0.999 . S
C394 H364 0.950 . S
C394 C393 1.524 . S
C394 C395 1.415 . S
C395 H365 0.950 . S
C395 C390 1.363 . S
C395 C394 1.415 . S
H396 C393 0.999 . S
H397 C378 0.913 . S
H398 C416 0.951 . S
H399 C418 0.951 . S
H400 C420 0.950 . S
H401 C421 0.950 . S
H402 C423 0.950 . S
H403 C426 0.950 . S
H404 C427 0.950 . S
H405 C429 0.950 . S
H406 C430 0.950 . S
H407 C431 0.951 . S
H408 C433 0.951 . S
H409 C435 0.950 . S
H410 C436 0.950 . S
H411 C438 0.950 . S
H412 C441 0.950 . S
H413 C442 0.950 . S
H414 C444 0.950 . S
H415 C445 0.950 . S
C416 H398 0.951 . S
C416 C417 1.366 . S
C416 C418 1.388 . S
C417 C416 1.366 . S
C417 C421 1.385 . S
C418 H399 0.951 . S
C418 C416 1.388 . S
C418 C419 1.366 . S
C419 C418 1.366 . S
C419 C420 1.414 . S
C419 C422 1.499 . S
C420 H400 0.950 . S
C420 C419 1.414 . S
C420 C421 1.374 . S
C421 H401 0.950 . S
C421 C417 1.385 . S
C421 C420 1.374 . S
C422 C419 1.499 . S
C422 C423 1.373 . S
C422 C424 1.389 . S
C423 H402 0.950 . S
C423 C422 1.373 . S
C423 C439 1.377 . S
C424 C422 1.389 . S
C424 C425 1.524 . S
C424 C438 1.377 . S
C425 C424 1.524 . S
C425 C426 1.397 . S
C425 C430 1.363 . S
C426 H403 0.950 . S
C426 C425 1.397 . S
C426 C427 1.334 . S
C427 H404 0.950 . S
C427 C426 1.334 . S
C427 C428 1.287 . S
C428 C427 1.287 . S
C428 C429 1.524 . S
C428 H447 0.913 . S
C429 H405 0.950 . S
C429 C428 1.524 . S
C429 C430 1.415 . S
C430 H406 0.950 . S
C430 C425 1.363 . S
C430 C429 1.415 . S
C431 H407 0.951 . S
C431 C432 1.366 . S
C431 C433 1.388 . S
C432 C431 1.366 . S
C432 C436 1.385 . S
C433 H408 0.951 . S
C433 C431 1.388 . S
C433 C434 1.366 . S
C434 C433 1.366 . S
C434 C435 1.414 . S
C434 C437 1.499 . S
C435 H409 0.950 . S
C435 C434 1.414 . S
C435 C436 1.374 . S
C436 H410 0.950 . S
C436 C432 1.385 . S
C436 C435 1.374 . S
C437 C434 1.499 . S
C437 C438 1.373 . S
C437 C439 1.389 . S
C438 H411 0.950 . S
C438 C424 1.377 . S
C438 C437 1.373 . S
C439 C423 1.377 . S
C439 C437 1.389 . S
C439 C440 1.524 . S
C440 C439 1.524 . S
C440 C441 1.397 . S
C440 C445 1.363 . S
C441 H412 0.950 . S
C441 C440 1.397 . S
C441 C442 1.334 . S
C442 H413 0.950 . S
C442 C441 1.334 . S
C442 C443 1.287 . S
C443 C442 1.287 . S
C443 C444 1.524 . S
C443 H446 0.999 . S
C444 H414 0.950 . S
C444 C443 1.524 . S
C444 C445 1.415 . S
C445 H415 0.950 . S
C445 C440 1.363 . S
C445 C444 1.415 . S
H446 C443 0.999 . S
H447 C428 0.913 . S
H448 C466 0.951 . S
H449 C468 0.951 . S
H450 C470 0.950 . S
H451 C471 0.950 . S
H452 C473 0.950 . S
H453 C476 0.950 . S
H454 C477 0.950 . S
H455 C479 0.950 . S
H456 C480 0.950 . S
H457 C481 0.951 . S
H458 C483 0.951 . S
H459 C485 0.950 . S
H460 C486 0.950 . S
H461 C488 0.950 . S
H462 C491 0.950 . S
H463 C492 0.950 . S
H464 C494 0.950 . S
H465 C495 0.950 . S
C466 H448 0.951 . S
C466 C467 1.366 . S
C466 C468 1.388 . S
C467 C466 1.366 . S
C467 C471 1.385 . S
C468 H449 0.951 . S
C468 C466 1.388 . S
C468 C469 1.366 . S
C469 C468 1.366 . S
C469 C470 1.414 . S
C469 C472 1.499 . S
C470 H450 0.950 . S
C470 C469 1.414 . S
C470 C471 1.374 . S
C471 H451 0.950 . S
C471 C467 1.385 . S
C471 C470 1.374 . S
C472 C469 1.499 . S
C472 C473 1.373 . S
C472 C474 1.389 . S
C473 H452 0.950 . S
C473 C472 1.373 . S
C473 C489 1.377 . S
C474 C472 1.389 . S
C474 C475 1.524 . S
C474 C488 1.377 . S
C475 C474 1.524 . S
C475 C476 1.397 . S
C475 C480 1.363 . S
C476 H453 0.950 . S
C476 C475 1.397 . S
C476 C477 1.334 . S
C477 H454 0.950 . S
C477 C476 1.334 . S
C477 C478 1.287 . S
C478 C477 1.287 . S
C478 C479 1.524 . S
C478 H497 0.913 . S
C479 H455 0.950 . S
C479 C478 1.524 . S
C479 C480 1.415 . S
C480 H456 0.950 . S
C480 C475 1.363 . S
C480 C479 1.415 . S
C481 H457 0.951 . S
C481 C482 1.366 . S
C481 C483 1.388 . S
C482 C481 1.366 . S
C482 C486 1.385 . S
C483 H458 0.951 . S
C483 C481 1.388 . S
C483 C484 1.366 . S
C484 C483 1.366 . S
C484 C485 1.414 . S
C484 C487 1.499 . S
C485 H459 0.950 . S
C485 C484 1.414 . S
C485 C486 1.374 . S
C486 H460 0.950 . S
C486 C482 1.385 . S
C486 C485 1.374 . S
C487 C484 1.499 . S
C487 C488 1.373 . S
C487 C489 1.389 . S
C488 H461 0.950 . S
C488 C474 1.377 . S
C488 C487 1.373 . S
C489 C473 1.377 . S
C489 C487 1.389 . S
C489 C490 1.524 . S
C490 C489 1.524 . S
C490 C491 1.397 . S
C490 C495 1.363 . S
C491 H462 0.950 . S
C491 C490 1.397 . S
C491 C492 1.334 . S
C492 H463 0.950 . S
C492 C491 1.334 . S
C492 C493 1.287 . S
C493 C492 1.287 . S
C493 C494 1.524 . S
C493 H496 0.999 . S
C494 H464 0.950 . S
C494 C493 1.524 . S
C494 C495 1.415 . S
C495 H465 0.950 . S
C495 C490 1.363 . S
C495 C494 1.415 . S
H496 C493 0.999 . S
H497 C478 0.913 . S
H498 C516 0.951 . S
H499 C518 0.951 . S
H500 C520 0.950 . S
H501 C521 0.950 . S
H502 C523 0.950 . S
H503 C526 0.950 . S
H504 C527 0.950 . S
H505 C529 0.950 . S
H506 C530 0.950 . S
H507 C531 0.951 . S
H508 C533 0.951 . S
H509 C535 0.950 . S
H510 C536 0.950 . S
H511 C538 0.950 . S
H512 C541 0.950 . S
H513 C542 0.950 . S
H514 C544 0.950 . S
H515 C545 0.950 . S
C516 H498 0.951 . S
C516 C517 1.366 . S
C516 C518 1.388 . S
C517 C516 1.366 . S
C517 C521 1.385 . S
C518 H499 0.951 . S
C518 C516 1.388 . S
C518 C519 1.366 . S
C519 C518 1.366 . S
C519 C520 1.414 . S
C519 C522 1.499 . S
C520 H500 0.950 . S
C520 C519 1.414 . S
C520 C521 1.374 . S
C521 H501 0.950 . S
C521 C517 1.385 . S
C521 C520 1.374 . S
C522 C519 1.499 . S
C522 C523 1.373 1_655 S
C522 C524 1.389 . S
C523 H502 0.950 . S
C523 C522 1.373 1_455 S
C523 C539 1.377 . S
C524 C522 1.389 . S
C524 C525 1.524 . S
C524 C538 1.377 1_655 S
C525 C524 1.524 . S
C525 C526 1.397 . S
C525 C530 1.363 . S
C526 H503 0.950 . S
C526 C525 1.397 . S
C526 C527 1.334 . S
C527 H504 0.950 . S
C527 C526 1.334 . S
C527 C528 1.287 . S
C528 C527 1.287 . S
C528 C529 1.524 . S
C528 H547 0.913 . S
C529 H505 0.950 . S
C529 C528 1.524 . S
C529 C530 1.415 . S
C530 H506 0.950 . S
C530 C525 1.363 . S
C530 C529 1.415 . S
C531 H507 0.951 . S
C531 C532 1.366 . S
C531 C533 1.388 . S
C532 C531 1.366 . S
C532 C536 1.385 . S
C533 H508 0.951 . S
C533 C531 1.388 . S
C533 C534 1.366 . S
C534 C533 1.366 . S
C534 C535 1.414 . S
C534 C537 1.499 . S
C535 H509 0.950 . S
C535 C534 1.414 . S
C535 C536 1.374 . S
C536 H510 0.950 . S
C536 C532 1.385 . S
C536 C535 1.374 . S
C537 C534 1.499 . S
C537 C538 1.373 . S
C537 C539 1.389 . S
C538 H511 0.950 . S
C538 C524 1.377 1_455 S
C538 C537 1.373 . S
C539 C523 1.377 . S
C539 C537 1.389 . S
C539 C540 1.524 . S
C540 C539 1.524 . S
C540 C541 1.397 . S
C540 C545 1.363 . S
C541 H512 0.950 . S
C541 C540 1.397 . S
C541 C542 1.334 . S
C542 H513 0.950 . S
C542 C541 1.334 . S
C542 C543 1.287 . S
C543 C542 1.287 . S
C543 C544 1.524 . S
C543 H546 0.999 . S
C544 H514 0.950 . S
C544 C543 1.524 . S
C544 C545 1.415 . S
C545 H515 0.950 . S
C545 C540 1.363 . S
C545 C544 1.415 . S
H546 C543 0.999 . S
H547 C528 0.913 . S
H548 C566 0.951 . S
H549 C568 0.951 . S
H550 C570 0.950 . S
H551 C571 0.950 . S
H552 C573 0.950 . S
H553 C576 0.950 . S
H554 C577 0.950 . S
H555 C579 0.950 . S
H556 C580 0.950 . S
H557 C581 0.951 . S
H558 C583 0.951 . S
H559 C585 0.950 . S
H560 C586 0.950 . S
H561 C588 0.950 . S
H562 C591 0.950 . S
H563 C592 0.950 . S
H564 C594 0.950 . S
H565 C595 0.950 . S
C566 H548 0.951 . S
C566 C567 1.366 . S
C566 C568 1.388 . S
C567 C566 1.366 . S
C567 C571 1.385 . S
C568 H549 0.951 . S
C568 C566 1.388 . S
C568 C569 1.366 . S
C569 C568 1.366 . S
C569 C570 1.414 . S
C569 C572 1.499 . S
C570 H550 0.950 . S
C570 C569 1.414 . S
C570 C571 1.374 . S
C571 H551 0.950 . S
C571 C567 1.385 . S
C571 C570 1.374 . S
C572 C569 1.499 . S
C572 C573 1.373 . S
C572 C574 1.389 . S
C573 H552 0.950 . S
C573 C572 1.373 . S
C573 C589 1.377 . S
C574 C572 1.389 . S
C574 C575 1.524 . S
C574 C588 1.377 . S
C575 C574 1.524 . S
C575 C576 1.397 . S
C575 C580 1.363 . S
C576 H553 0.950 . S
C576 C575 1.397 . S
C576 C577 1.334 . S
C577 H554 0.950 . S
C577 C576 1.334 . S
C577 C578 1.287 . S
C578 C577 1.287 . S
C578 C579 1.524 . S
C578 H597 0.913 . S
C579 H555 0.950 . S
C579 C578 1.524 . S
C579 C580 1.415 . S
C580 H556 0.950 . S
C580 C575 1.363 . S
C580 C579 1.415 . S
C581 H557 0.951 . S
C581 C582 1.366 . S
C581 C583 1.388 . S
C582 C581 1.366 . S
C582 C586 1.385 . S
C583 H558 0.951 . S
C583 C581 1.388 . S
C583 C584 1.366 . S
C584 C583 1.366 . S
C584 C585 1.414 . S
C584 C587 1.499 . S
C585 H559 0.950 . S
C585 C584 1.414 . S
C585 C586 1.374 . S
C586 H560 0.950 . S
C586 C582 1.385 . S
C586 C585 1.374 . S
C587 C584 1.499 . S
C587 C588 1.373 . S
C587 C589 1.389 . S
C588 H561 0.950 . S
C588 C574 1.377 . S
C588 C587 1.373 . S
C589 C573 1.377 . S
C589 C587 1.389 . S
C589 C590 1.524 . S
C590 C589 1.524 . S
C590 C591 1.397 . S
C590 C595 1.363 . S
C591 H562 0.950 . S
C591 C590 1.397 . S
C591 C592 1.334 . S
C592 H563 0.950 . S
C592 C591 1.334 . S
C592 C593 1.287 . S
C593 C592 1.287 . S
C593 C594 1.524 . S
C593 H596 0.999 . S
C594 H564 0.950 . S
C594 C593 1.524 . S
C594 C595 1.415 . S
C595 H565 0.950 . S
C595 C590 1.363 . S
C595 C594 1.415 . S
H596 C593 0.999 . S
H597 C578 0.913 . S
H598 C616 0.951 . S
H599 C618 0.951 . S
H600 C620 0.950 . S
H601 C621 0.950 . S
H602 C623 0.950 . S
H603 C626 0.950 . S
H604 C627 0.950 . S
H605 C629 0.950 . S
H606 C630 0.950 1_545 S
H607 C631 0.951 . S
H608 C633 0.951 . S
H609 C635 0.950 . S
H610 C636 0.950 . S
H611 C638 0.950 . S
H612 C641 0.950 . S
H613 C642 0.950 . S
H614 C644 0.944 1_565 S
H615 C645 0.950 . S
C616 H598 0.951 . S
C616 C617 1.366 . S
C616 C618 1.388 . S
C617 C616 1.366 . S
C617 C621 1.385 . S
C618 H599 0.951 . S
C618 C616 1.388 . S
C618 C619 1.366 . S
C619 C618 1.366 . S
C619 C620 1.414 . S
C619 C622 1.499 . S
C620 H600 0.950 . S
C620 C619 1.414 . S
C620 C621 1.374 . S
C621 H601 0.950 . S
C621 C617 1.385 . S
C621 C620 1.374 . S
C622 C619 1.499 . S
C622 C623 1.373 . S
C622 C624 1.389 . S
C623 H602 0.950 . S
C623 C622 1.373 . S
C623 C639 1.391 . S
C624 C622 1.389 . S
C624 C625 1.524 . S
C624 C638 1.377 1_565 S
C625 C624 1.524 . S
C625 C626 1.397 . S
C625 C630 1.363 . S
C626 H603 0.950 . S
C626 C625 1.397 . S
C626 C627 1.334 . S
C627 H604 0.950 . S
C627 C626 1.334 . S
C627 C628 1.287 . S
C628 C627 1.287 . S
C628 C629 1.524 . S
C628 H647 0.913 . S
C629 H605 0.950 . S
C629 C628 1.524 . S
C629 C630 1.415 . S
C630 H606 0.950 1_565 S
C630 C625 1.363 . S
C630 C629 1.415 . S
C631 H607 0.951 . S
C631 C632 1.366 . S
C631 C633 1.388 . S
C632 C631 1.366 . S
C632 C636 1.385 . S
C633 H608 0.951 . S
C633 C631 1.388 . S
C633 C634 1.366 . S
C634 C633 1.366 . S
C634 C635 1.414 . S
C634 C637 1.499 . S
C635 H609 0.950 . S
C635 C634 1.414 . S
C635 C636 1.374 . S
C636 H610 0.950 . S
C636 C632 1.385 . S
C636 C635 1.374 . S
C637 C634 1.499 . S
C637 C638 1.373 . S
C637 C639 1.385 1_545 S
C638 H611 0.950 . S
C638 C624 1.377 1_545 S
C638 C637 1.373 . S
C639 C623 1.391 . S
C639 C637 1.385 1_565 S
C639 C640 1.515 1_565 S
C640 C639 1.515 1_545 S
C640 C641 1.397 . S
C640 C645 1.363 1_545 S
C641 H612 0.950 . S
C641 C640 1.397 . S
C641 C642 1.334 . S
C642 H613 0.950 . S
C642 C641 1.334 . S
C642 C643 1.287 . S
C643 C642 1.287 . S
C643 C644 1.543 . S
C643 H646 0.999 . S
C644 H614 0.944 1_545 S
C644 C643 1.543 . S
C644 C645 1.403 1_545 S
C645 H615 0.950 . S
C645 C640 1.363 1_565 S
C645 C644 1.403 1_565 S
H646 C643 0.999 . S
H647 C628 0.913 . S
H648 C666 0.951 . S
H649 C668 0.951 . S
H650 C670 0.950 . S
H651 C671 0.950 . S
H652 C673 0.950 . S
H653 C676 0.950 . S
H654 C677 0.950 . S
H655 C679 0.950 . S
H656 C680 0.950 . S
H657 C681 0.951 . S
H658 C683 0.951 . S
H659 C685 0.950 . S
H660 C686 0.950 . S
H661 C688 0.950 . S
H662 C691 0.950 . S
H663 C692 0.950 . S
H664 C694 0.950 . S
H665 C695 0.950 . S
C666 H648 0.951 . S
C666 C667 1.366 1_655 S
C666 C668 1.388 . S
C667 C666 1.366 1_455 S
C667 C671 1.385 . S
C668 H649 0.951 . S
C668 C666 1.388 . S
C668 C669 1.366 1_655 S
C669 C668 1.366 1_455 S
C669 C670 1.414 . S
C669 C672 1.499 . S
C670 H650 0.950 . S
C670 C669 1.414 . S
C670 C671 1.374 . S
C671 H651 0.950 . S
C671 C667 1.385 . S
C671 C670 1.374 . S
C672 C669 1.499 . S
C672 C673 1.373 . S
C672 C674 1.389 1_445 S
C673 H652 0.950 . S
C673 C672 1.373 . S
C673 C689 1.377 . S
C674 C672 1.389 1_665 S
C674 C675 1.524 . S
C674 C688 1.377 . S
C675 C674 1.524 . S
C675 C676 1.397 . S
C675 C680 1.363 . S
C676 H653 0.950 . S
C676 C675 1.397 . S
C676 C677 1.334 . S
C677 H654 0.950 . S
C677 C676 1.334 . S
C677 C678 1.287 . S
C678 C677 1.287 . S
C678 C679 1.524 . S
C678 H697 0.913 . S
C679 H655 0.950 . S
C679 C678 1.524 . S
C679 C680 1.415 . S
C680 H656 0.950 . S
C680 C675 1.363 . S
C680 C679 1.415 . S
C681 H657 0.951 . S
C681 C682 1.366 . S
C681 C683 1.388 . S
C682 C681 1.366 . S
C682 C686 1.385 1_455 S
C683 H658 0.951 . S
C683 C681 1.388 . S
C683 C684 1.366 . S
C684 C683 1.366 . S
C684 C685 1.414 1_455 S
C684 C687 1.499 . S
C685 H659 0.950 . S
C685 C684 1.414 1_655 S
C685 C686 1.374 . S
C686 H660 0.950 . S
C686 C682 1.385 1_655 S
C686 C685 1.374 . S
C687 C684 1.499 . S
C687 C688 1.373 1_445 S
C687 C689 1.389 . S
C688 H661 0.950 . S
C688 C674 1.377 . S
C688 C687 1.373 1_665 S
C689 C673 1.377 . S
C689 C687 1.389 . S
C689 C690 1.524 . S
C690 C689 1.524 . S
C690 C691 1.397 . S
C690 C695 1.363 . S
C691 H662 0.950 . S
C691 C690 1.397 . S
C691 C692 1.334 . S
C692 H663 0.950 . S
C692 C691 1.334 . S
C692 C693 1.287 . S
C693 C692 1.287 . S
C693 C694 1.524 . S
C693 H696 0.999 . S
C694 H664 0.950 . S
C694 C693 1.524 . S
C694 C695 1.415 . S
C695 H665 0.950 . S
C695 C690 1.363 . S
C695 C694 1.415 . S
H696 C693 0.999 . S
H697 C678 0.913 . S
H698 C716 0.951 . S
H699 C718 0.951 . S
H700 C720 0.950 . S
H701 C721 0.950 . S
H702 C723 0.950 . S
H703 C726 0.950 . S
H704 C727 0.950 . S
H705 C729 0.950 . S
H706 C730 0.950 . S
H707 C731 0.951 . S
H708 C733 0.951 . S
H709 C735 0.950 . S
H710 C736 0.950 . S
H711 C738 0.950 . S
H712 C741 0.950 . S
H713 C742 0.950 . S
H714 C744 0.950 . S
H715 C745 0.950 . S
C716 H698 0.951 . S
C716 C717 1.366 . S
C716 C718 1.388 . S
C717 C716 1.366 . S
C717 C721 1.385 . S
C718 H699 0.951 . S
C718 C716 1.388 . S
C718 C719 1.366 . S
C719 C718 1.366 . S
C719 C720 1.414 . S
C719 C722 1.499 . S
C720 H700 0.950 . S
C720 C719 1.414 . S
C720 C721 1.374 . S
C721 H701 0.950 . S
C721 C717 1.385 . S
C721 C720 1.374 . S
C722 C719 1.499 . S
C722 C723 1.373 . S
C722 C724 1.389 . S
C723 H702 0.950 . S
C723 C722 1.373 . S
C723 C739 1.377 . S
C724 C722 1.389 . S
C724 C725 1.524 . S
C724 C738 1.377 . S
C725 C724 1.524 . S
C725 C726 1.397 . S
C725 C730 1.363 . S
C726 H703 0.950 . S
C726 C725 1.397 . S
C726 C727 1.334 . S
C727 H704 0.950 . S
C727 C726 1.334 . S
C727 C728 1.287 . S
C728 C727 1.287 . S
C728 C729 1.524 . S
C728 H747 0.913 . S
C729 H705 0.950 . S
C729 C728 1.524 . S
C729 C730 1.415 . S
C730 H706 0.950 . S
C730 C725 1.363 . S
C730 C729 1.415 . S
C731 H707 0.951 . S
C731 C732 1.366 . S
C731 C733 1.388 . S
C732 C731 1.366 . S
C732 C736 1.385 . S
C733 H708 0.951 . S
C733 C731 1.388 . S
C733 C734 1.366 . S
C734 C733 1.366 . S
C734 C735 1.414 . S
C734 C737 1.499 . S
C735 H709 0.950 . S
C735 C734 1.414 . S
C735 C736 1.374 . S
C736 H710 0.950 . S
C736 C732 1.385 . S
C736 C735 1.374 . S
C737 C734 1.499 . S
C737 C738 1.373 . S
C737 C739 1.389 . S
C738 H711 0.950 . S
C738 C724 1.377 . S
C738 C737 1.373 . S
C739 C723 1.377 . S
C739 C737 1.389 . S
C739 C740 1.524 . S
C740 C739 1.524 . S
C740 C741 1.397 . S
C740 C745 1.363 . S
C741 H712 0.950 . S
C741 C740 1.397 . S
C741 C742 1.334 . S
C742 H713 0.950 . S
C742 C741 1.334 . S
C742 C743 1.287 . S
C743 C742 1.287 . S
C743 C744 1.524 . S
C743 H746 0.999 . S
C744 H714 0.950 . S
C744 C743 1.524 . S
C744 C745 1.415 . S
C745 H715 0.950 . S
C745 C740 1.363 . S
C745 C744 1.415 . S
H746 C743 0.999 . S
H747 C728 0.913 . S
H748 C766 0.951 . S
H749 C768 0.951 . S
H750 C770 0.950 . S
H751 C771 0.950 . S
H752 C773 0.950 . S
H753 C776 0.950 . S
H754 C777 0.950 . S
H755 C779 0.950 . S
H756 C780 0.950 . S
H757 C781 0.951 . S
H758 C783 0.951 . S
H759 C785 0.950 . S
H760 C786 0.950 . S
H761 C788 0.950 . S
H762 C791 0.950 . S
H763 C792 0.950 . S
H764 C794 0.950 . S
H765 C795 0.950 . S
C766 H748 0.951 . S
C766 C767 1.366 . S
C766 C768 1.388 . S
C767 C766 1.366 . S
C767 C771 1.385 . S
C768 H749 0.951 . S
C768 C766 1.388 . S
C768 C769 1.366 . S
C769 C768 1.366 . S
C769 C770 1.414 . S
C769 C772 1.499 . S
C770 H750 0.950 . S
C770 C769 1.414 . S
C770 C771 1.374 . S
C771 H751 0.950 . S
C771 C767 1.385 . S
C771 C770 1.374 . S
C772 C769 1.499 . S
C772 C773 1.373 . S
C772 C774 1.389 . S
C773 H752 0.950 . S
C773 C772 1.373 . S
C773 C789 1.377 . S
C774 C772 1.389 . S
C774 C775 1.524 . S
C774 C788 1.377 . S
C775 C774 1.524 . S
C775 C776 1.397 . S
C775 C780 1.363 . S
C776 H753 0.950 . S
C776 C775 1.397 . S
C776 C777 1.334 . S
C777 H754 0.950 . S
C777 C776 1.334 . S
C777 C778 1.287 . S
C778 C777 1.287 . S
C778 C779 1.524 . S
C778 H797 0.913 . S
C779 H755 0.950 . S
C779 C778 1.524 . S
C779 C780 1.415 . S
C780 H756 0.950 . S
C780 C775 1.363 . S
C780 C779 1.415 . S
C781 H757 0.951 . S
C781 C782 1.366 . S
C781 C783 1.388 . S
C782 C781 1.366 . S
C782 C786 1.385 . S
C783 H758 0.951 . S
C783 C781 1.388 . S
C783 C784 1.366 . S
C784 C783 1.366 . S
C784 C785 1.414 . S
C784 C787 1.499 . S
C785 H759 0.950 . S
C785 C784 1.414 . S
C785 C786 1.374 . S
C786 H760 0.950 . S
C786 C782 1.385 . S
C786 C785 1.374 . S
C787 C784 1.499 . S
C787 C788 1.373 . S
C787 C789 1.389 . S
C788 H761 0.950 . S
C788 C774 1.377 . S
C788 C787 1.373 . S
C789 C773 1.377 . S
C789 C787 1.389 . S
C789 C790 1.524 . S
C790 C789 1.524 . S
C790 C791 1.397 . S
C790 C795 1.363 . S
C791 H762 0.950 . S
C791 C790 1.397 . S
C791 C792 1.334 . S
C792 H763 0.950 . S
C792 C791 1.334 . S
C792 C793 1.287 . S
C793 C792 1.287 . S
C793 C794 1.524 . S
C793 H796 0.999 . S
C794 H764 0.950 . S
C794 C793 1.524 . S
C794 C795 1.415 . S
C795 H765 0.950 . S
C795 C790 1.363 . S
C795 C794 1.415 . S
H796 C793 0.999 . S
H797 C778 0.913 . S
H798 C816 0.951 . S
H799 C818 0.951 . S
H800 C820 0.950 . S
H801 C821 0.962 . S
H802 C823 0.950 . S
H803 C826 0.950 . S
H804 C827 0.950 . S
H805 C829 0.950 . S
H806 C830 0.950 . S
H807 C831 0.951 . S
H808 C833 0.951 . S
H809 C835 0.950 . S
H810 C836 0.950 . S
H811 C838 0.950 . S
H812 C841 0.950 . S
H813 C842 0.950 . S
H814 C844 0.950 . S
H815 C845 0.950 . S
C816 H798 0.951 . S
C816 C817 1.366 . S
C816 C818 1.388 . S
C817 C816 1.366 . S
C817 C821 1.372 1_455 S
C818 H799 0.951 . S
C818 C816 1.388 . S
C818 C819 1.366 . S
C819 C818 1.366 . S
C819 C820 1.414 1_455 S
C819 C822 1.499 . S
C820 H800 0.950 . S
C820 C819 1.414 1_655 S
C820 C821 1.374 . S
C821 H801 0.962 . S
C821 C817 1.372 1_655 S
C821 C820 1.374 . S
C822 C819 1.499 . S
C822 C823 1.373 1_445 S
C822 C824 1.389 . S
C823 H802 0.950 . S
C823 C822 1.373 1_665 S
C823 C839 1.377 1_554 S
C824 C822 1.389 . S
C824 C825 1.524 . S
C824 C838 1.377 1_554 S
C825 C824 1.524 . S
C825 C826 1.397 . S
C825 C830 1.363 . S
C826 H803 0.950 . S
C826 C825 1.397 . S
C826 C827 1.334 . S
C827 H804 0.950 . S
C827 C826 1.334 . S
C827 C828 1.287 . S
C828 C827 1.287 . S
C828 C829 1.524 . S
C828 H847 0.913 . S
C829 H805 0.950 . S
C829 C828 1.524 . S
C829 C830 1.415 . S
C830 H806 0.950 . S
C830 C825 1.363 . S
C830 C829 1.415 . S
C831 H807 0.951 . S
C831 C832 1.366 1_565 S
C831 C833 1.388 . S
C832 C831 1.366 1_545 S
C832 C836 1.385 1_655 S
C833 H808 0.951 . S
C833 C831 1.388 . S
C833 C834 1.368 1_565 S
C834 C833 1.368 1_545 S
C834 C835 1.412 1_655 S
C834 C837 1.499 1_655 S
C835 H809 0.950 . S
C835 C834 1.412 1_455 S
C835 C836 1.374 . S
C836 H810 0.950 . S
C836 C832 1.385 1_455 S
C836 C835 1.374 . S
C837 C834 1.499 1_455 S
C837 C838 1.373 . S
C837 C839 1.389 1_445 S
C838 H811 0.950 . S
C838 C824 1.377 1_556 S
C838 C837 1.373 . S
C839 C823 1.377 1_556 S
C839 C837 1.389 1_665 S
C839 C840 1.524 . S
C840 C839 1.524 . S
C840 C841 1.397 . S
C840 C845 1.363 . S
C841 H812 0.950 . S
C841 C840 1.397 . S
C841 C842 1.334 . S
C842 H813 0.950 . S
C842 C841 1.334 . S
C842 C843 1.287 . S
C843 C842 1.287 . S
C843 C844 1.524 . S
C843 H846 0.999 . S
C844 H814 0.950 . S
C844 C843 1.524 . S
C844 C845 1.415 . S
C845 H815 0.950 . S
C845 C840 1.363 . S
C845 C844 1.415 . S
H846 C843 0.999 . S
H847 C828 0.913 . S
H848 C866 0.951 . S
H849 C868 0.951 . S
H850 C870 0.950 . S
H851 C871 0.950 . S
H852 C873 0.950 . S
H853 C876 0.950 . S
H854 C877 0.950 . S
H855 C879 0.950 . S
H856 C880 0.950 . S
H857 C881 0.951 . S
H858 C883 0.951 . S
H859 C885 0.950 . S
H860 C886 0.950 . S
H861 C888 0.950 . S
H862 C891 0.950 . S
H863 C892 0.950 . S
H864 C894 0.950 . S
H865 C895 0.950 . S
C866 H848 0.951 . S
C866 C867 1.366 . S
C866 C868 1.388 . S
C867 C866 1.366 . S
C867 C871 1.385 . S
C868 H849 0.951 . S
C868 C866 1.388 . S
C868 C869 1.366 . S
C869 C868 1.366 . S
C869 C870 1.414 . S
C869 C872 1.499 . S
C870 H850 0.950 . S
C870 C869 1.414 . S
C870 C871 1.374 . S
C871 H851 0.950 . S
C871 C867 1.385 . S
C871 C870 1.374 . S
C872 C869 1.499 . S
C872 C873 1.373 . S
C872 C874 1.389 . S
C873 H852 0.950 . S
C873 C872 1.373 . S
C873 C889 1.377 . S
C874 C872 1.389 . S
C874 C875 1.524 . S
C874 C888 1.377 . S
C875 C874 1.524 . S
C875 C876 1.397 . S
C875 C880 1.363 . S
C876 H853 0.950 . S
C876 C875 1.397 . S
C876 C877 1.334 . S
C877 H854 0.950 . S
C877 C876 1.334 . S
C877 C878 1.287 . S
C878 C877 1.287 . S
C878 C879 1.524 . S
C878 H897 0.913 . S
C879 H855 0.950 . S
C879 C878 1.524 . S
C879 C880 1.415 . S
C880 H856 0.950 . S
C880 C875 1.363 . S
C880 C879 1.415 . S
C881 H857 0.951 . S
C881 C882 1.366 . S
C881 C883 1.388 . S
C882 C881 1.366 . S
C882 C886 1.385 . S
C883 H858 0.951 . S
C883 C881 1.388 . S
C883 C884 1.366 . S
C884 C883 1.366 . S
C884 C885 1.414 . S
C884 C887 1.499 . S
C885 H859 0.950 . S
C885 C884 1.414 . S
C885 C886 1.374 . S
C886 H860 0.950 . S
C886 C882 1.385 . S
C886 C885 1.374 . S
C887 C884 1.499 . S
C887 C888 1.373 . S
C887 C889 1.389 . S
C888 H861 0.950 . S
C888 C874 1.377 . S
C888 C887 1.373 . S
C889 C873 1.377 . S
C889 C887 1.389 . S
C889 C890 1.524 . S
C890 C889 1.524 . S
C890 C891 1.397 . S
C890 C895 1.363 . S
C891 H862 0.950 . S
C891 C890 1.397 . S
C891 C892 1.334 . S
C892 H863 0.950 . S
C892 C891 1.334 . S
C892 C893 1.287 . S
C893 C892 1.287 . S
C893 C894 1.524 . S
C893 H896 0.999 . S
C894 H864 0.950 . S
C894 C893 1.524 . S
C894 C895 1.415 . S
C895 H865 0.950 . S
C895 C890 1.363 . S
C895 C894 1.415 . S
H896 C893 0.999 . S
H897 C878 0.913 . S
H898 C916 0.951 . S
H899 C918 0.951 . S
H900 C920 0.950 . S
H901 C921 0.950 . S
H902 C923 0.950 . S
H903 C926 0.950 . S
H904 C927 0.950 . S
H905 C929 0.950 . S
H906 C930 0.950 . S
H907 C931 0.951 . S
H908 C933 0.951 . S
H909 C935 0.950 . S
H910 C936 0.950 . S
H911 C938 0.950 . S
H912 C941 0.950 . S
H913 C942 0.950 . S
H914 C944 0.950 . S
H915 C945 0.950 . S
C916 H898 0.951 . S
C916 C917 1.366 . S
C916 C918 1.388 . S
C917 C916 1.366 . S
C917 C921 1.385 . S
C918 H899 0.951 . S
C918 C916 1.388 . S
C918 C919 1.366 . S
C919 C918 1.366 . S
C919 C920 1.414 . S
C919 C922 1.499 . S
C920 H900 0.950 . S
C920 C919 1.414 . S
C920 C921 1.374 . S
C921 H901 0.950 . S
C921 C917 1.385 . S
C921 C920 1.374 . S
C922 C919 1.499 . S
C922 C923 1.373 . S
C922 C924 1.389 . S
C923 H902 0.950 . S
C923 C922 1.373 . S
C923 C939 1.377 . S
C924 C922 1.389 . S
C924 C925 1.524 . S
C924 C938 1.377 . S
C925 C924 1.524 . S
C925 C926 1.397 . S
C925 C930 1.363 . S
C926 H903 0.950 . S
C926 C925 1.397 . S
C926 C927 1.334 . S
C927 H904 0.950 . S
C927 C926 1.334 . S
C927 C928 1.287 . S
C928 C927 1.287 . S
C928 C929 1.524 . S
C928 H947 0.913 . S
C929 H905 0.950 . S
C929 C928 1.524 . S
C929 C930 1.415 . S
C930 H906 0.950 . S
C930 C925 1.363 . S
C930 C929 1.415 . S
C931 H907 0.951 . S
C931 C932 1.366 . S
C931 C933 1.388 . S
C932 C931 1.366 . S
C932 C936 1.385 . S
C933 H908 0.951 . S
C933 C931 1.388 . S
C933 C934 1.366 . S
C934 C933 1.366 . S
C934 C935 1.414 . S
C934 C937 1.499 . S
C935 H909 0.950 . S
C935 C934 1.414 . S
C935 C936 1.374 . S
C936 H910 0.950 . S
C936 C932 1.385 . S
C936 C935 1.374 . S
C937 C934 1.499 . S
C937 C938 1.373 . S
C937 C939 1.389 . S
C938 H911 0.950 . S
C938 C924 1.377 . S
C938 C937 1.373 . S
C939 C923 1.377 . S
C939 C937 1.389 . S
C939 C940 1.524 . S
C940 C939 1.524 . S
C940 C941 1.397 . S
C940 C945 1.363 . S
C941 H912 0.950 . S
C941 C940 1.397 . S
C941 C942 1.334 . S
C942 H913 0.950 . S
C942 C941 1.334 . S
C942 C943 1.287 . S
C943 C942 1.287 . S
C943 C944 1.524 . S
C943 H946 0.999 . S
C944 H914 0.950 . S
C944 C943 1.524 . S
C944 C945 1.415 . S
C945 H915 0.950 . S
C945 C940 1.363 . S
C945 C944 1.415 . S
H946 C943 0.999 . S
H947 C928 0.913 . S
C217 C18 2.084 . S
C232 C117 2.084 . S
C267 C7 1.522 . S
C282 C120 1.512 . S
C317 C106 1.521 . S
C332 C21 1.512 . S
C367 C40 1.521 . S
C382 C153 1.512 . S
C417 C150 2.084 . S
C432 C51 2.084 . S
C467 C54 1.512 . S
C482 C139 1.521 . S
C517 C84 2.084 . S
C532 C183 2.084 . S
C567 C73 1.521 . S
C582 C186 1.512 . S
C617 C172 1.521 . S
C632 C87 1.512 . S
C667 N35 2.357 1_455 S
C682 N2 2.357 . S
C717 N101 2.357 1_556 S
C732 N68 2.357 . S
C767 N167 2.357 . S
C782 N134 2.357 1_554 S
C817 N13 1.018 . S
C832 N46 1.017 1_655 S
C867 N112 1.017 . S
C882 N79 1.017 . S
C917 N178 1.018 . S
C932 N145 1.017 . S
