# Generated by pormake.
# Topology teo, (8)-cn, num edge types: 1
# Building blocks:
#     Node 0, Type 0, BuildingBlock: LIZSOE_clean_sbu_0, # of connection points: 8
#     Node 1, Type 0, BuildingBlock: LIZSOE_clean_sbu_0, # of connection points: 8
#     Node 2, Type 0, BuildingBlock: LIZSOE_clean_sbu_0, # of connection points: 8
#     Node 3, Type 0, BuildingBlock: LIZSOE_clean_sbu_0, # of connection points: 8
#     Node 4, Type 0, BuildingBlock: LIZSOE_clean_sbu_0, # of connection points: 8
#     Node 5, Type 0, BuildingBlock: LIZSOE_clean_sbu_0, # of connection points: 8
#     Node 6, Type 0, BuildingBlock: LIZSOE_clean_sbu_0, # of connection points: 8
#     Node 7, Type 0, BuildingBlock: LIZSOE_clean_sbu_0, # of connection points: 8
#     Node 8, Type 0, BuildingBlock: LIZSOE_clean_sbu_0, # of connection points: 8
#     Node 9, Type 0, BuildingBlock: LIZSOE_clean_sbu_0, # of connection points: 8
#     Node 10, Type 0, BuildingBlock: LIZSOE_clean_sbu_0, # of connection points: 8
#     Node 11, Type 0, BuildingBlock: LIZSOE_clean_sbu_0, # of connection points: 8
#     Node 12, Type 0, BuildingBlock: LIZSOE_clean_sbu_0, # of connection points: 8
#     Node 13, Type 0, BuildingBlock: LIZSOE_clean_sbu_0, # of connection points: 8
#     Node 14, Type 0, BuildingBlock: LIZSOE_clean_sbu_0, # of connection points: 8
#     Node 15, Type 0, BuildingBlock: LIZSOE_clean_sbu_0, # of connection points: 8
#     Node 16, Type 0, BuildingBlock: LIZSOE_clean_sbu_0, # of connection points: 8
#     Node 17, Type 0, BuildingBlock: LIZSOE_clean_sbu_0, # of connection points: 8
#     Node 18, Type 0, BuildingBlock: LIZSOE_clean_sbu_0, # of connection points: 8
#     Node 19, Type 0, BuildingBlock: LIZSOE_clean_sbu_0, # of connection points: 8
#     Node 20, Type 0, BuildingBlock: LIZSOE_clean_sbu_0, # of connection points: 8
#     Node 21, Type 0, BuildingBlock: LIZSOE_clean_sbu_0, # of connection points: 8
#     Node 22, Type 0, BuildingBlock: LIZSOE_clean_sbu_0, # of connection points: 8
#     Node 23, Type 0, BuildingBlock: LIZSOE_clean_sbu_0, # of connection points: 8
#     Edge 24, Type (0, 0), BuildingBlock: XIVTED_clean_linker_0, # of connection points: 2
#     Edge 25, Type (0, 0), BuildingBlock: XIVTED_clean_linker_0, # of connection points: 2
#     Edge 26, Type (0, 0), BuildingBlock: XIVTED_clean_linker_0, # of connection points: 2
#     Edge 27, Type (0, 0), BuildingBlock: XIVTED_clean_linker_0, # of connection points: 2
#     Edge 28, Type (0, 0), BuildingBlock: XIVTED_clean_linker_0, # of connection points: 2
#     Edge 29, Type (0, 0), BuildingBlock: XIVTED_clean_linker_0, # of connection points: 2
#     Edge 30, Type (0, 0), BuildingBlock: XIVTED_clean_linker_0, # of connection points: 2
#     Edge 31, Type (0, 0), BuildingBlock: XIVTED_clean_linker_0, # of connection points: 2
#     Edge 32, Type (0, 0), BuildingBlock: XIVTED_clean_linker_0, # of connection points: 2
#     Edge 33, Type (0, 0), BuildingBlock: XIVTED_clean_linker_0, # of connection points: 2
#     Edge 34, Type (0, 0), BuildingBlock: XIVTED_clean_linker_0, # of connection points: 2
#     Edge 35, Type (0, 0), BuildingBlock: XIVTED_clean_linker_0, # of connection points: 2
#     Edge 36, Type (0, 0), BuildingBlock: XIVTED_clean_linker_0, # of connection points: 2
#     Edge 37, Type (0, 0), BuildingBlock: XIVTED_clean_linker_0, # of connection points: 2
#     Edge 38, Type (0, 0), BuildingBlock: XIVTED_clean_linker_0, # of connection points: 2
#     Edge 39, Type (0, 0), BuildingBlock: XIVTED_clean_linker_0, # of connection points: 2
#     Edge 40, Type (0, 0), BuildingBlock: XIVTED_clean_linker_0, # of connection points: 2
#     Edge 41, Type (0, 0), BuildingBlock: XIVTED_clean_linker_0, # of connection points: 2
#     Edge 42, Type (0, 0), BuildingBlock: XIVTED_clean_linker_0, # of connection points: 2
#     Edge 43, Type (0, 0), BuildingBlock: XIVTED_clean_linker_0, # of connection points: 2
#     Edge 44, Type (0, 0), BuildingBlock: XIVTED_clean_linker_0, # of connection points: 2
#     Edge 45, Type (0, 0), BuildingBlock: XIVTED_clean_linker_0, # of connection points: 2
#     Edge 46, Type (0, 0), BuildingBlock: XIVTED_clean_linker_0, # of connection points: 2
#     Edge 47, Type (0, 0), BuildingBlock: XIVTED_clean_linker_0, # of connection points: 2
#     Edge 48, Type (0, 0), BuildingBlock: XIVTED_clean_linker_0, # of connection points: 2
#     Edge 49, Type (0, 0), BuildingBlock: XIVTED_clean_linker_0, # of connection points: 2
#     Edge 50, Type (0, 0), BuildingBlock: XIVTED_clean_linker_0, # of connection points: 2
#     Edge 51, Type (0, 0), BuildingBlock: XIVTED_clean_linker_0, # of connection points: 2
#     Edge 52, Type (0, 0), BuildingBlock: XIVTED_clean_linker_0, # of connection points: 2
#     Edge 53, Type (0, 0), BuildingBlock: XIVTED_clean_linker_0, # of connection points: 2
#     Edge 54, Type (0, 0), BuildingBlock: XIVTED_clean_linker_0, # of connection points: 2
#     Edge 55, Type (0, 0), BuildingBlock: XIVTED_clean_linker_0, # of connection points: 2
#     Edge 56, Type (0, 0), BuildingBlock: XIVTED_clean_linker_0, # of connection points: 2
#     Edge 57, Type (0, 0), BuildingBlock: XIVTED_clean_linker_0, # of connection points: 2
#     Edge 58, Type (0, 0), BuildingBlock: XIVTED_clean_linker_0, # of connection points: 2
#     Edge 59, Type (0, 0), BuildingBlock: XIVTED_clean_linker_0, # of connection points: 2
#     Edge 60, Type (0, 0), BuildingBlock: XIVTED_clean_linker_0, # of connection points: 2
#     Edge 61, Type (0, 0), BuildingBlock: XIVTED_clean_linker_0, # of connection points: 2
#     Edge 62, Type (0, 0), BuildingBlock: XIVTED_clean_linker_0, # of connection points: 2
#     Edge 63, Type (0, 0), BuildingBlock: XIVTED_clean_linker_0, # of connection points: 2
#     Edge 64, Type (0, 0), BuildingBlock: XIVTED_clean_linker_0, # of connection points: 2
#     Edge 65, Type (0, 0), BuildingBlock: XIVTED_clean_linker_0, # of connection points: 2
#     Edge 66, Type (0, 0), BuildingBlock: XIVTED_clean_linker_0, # of connection points: 2
#     Edge 67, Type (0, 0), BuildingBlock: XIVTED_clean_linker_0, # of connection points: 2
#     Edge 68, Type (0, 0), BuildingBlock: XIVTED_clean_linker_0, # of connection points: 2
#     Edge 69, Type (0, 0), BuildingBlock: XIVTED_clean_linker_0, # of connection points: 2
#     Edge 70, Type (0, 0), BuildingBlock: XIVTED_clean_linker_0, # of connection points: 2
#     Edge 71, Type (0, 0), BuildingBlock: XIVTED_clean_linker_0, # of connection points: 2
#     Edge 72, Type (0, 0), BuildingBlock: XIVTED_clean_linker_0, # of connection points: 2
#     Edge 73, Type (0, 0), BuildingBlock: XIVTED_clean_linker_0, # of connection points: 2
#     Edge 74, Type (0, 0), BuildingBlock: XIVTED_clean_linker_0, # of connection points: 2
#     Edge 75, Type (0, 0), BuildingBlock: XIVTED_clean_linker_0, # of connection points: 2
#     Edge 76, Type (0, 0), BuildingBlock: XIVTED_clean_linker_0, # of connection points: 2
#     Edge 77, Type (0, 0), BuildingBlock: XIVTED_clean_linker_0, # of connection points: 2
#     Edge 78, Type (0, 0), BuildingBlock: XIVTED_clean_linker_0, # of connection points: 2
#     Edge 79, Type (0, 0), BuildingBlock: XIVTED_clean_linker_0, # of connection points: 2
#     Edge 80, Type (0, 0), BuildingBlock: XIVTED_clean_linker_0, # of connection points: 2
#     Edge 81, Type (0, 0), BuildingBlock: XIVTED_clean_linker_0, # of connection points: 2
#     Edge 82, Type (0, 0), BuildingBlock: XIVTED_clean_linker_0, # of connection points: 2
#     Edge 83, Type (0, 0), BuildingBlock: XIVTED_clean_linker_0, # of connection points: 2
#     Edge 84, Type (0, 0), BuildingBlock: XIVTED_clean_linker_0, # of connection points: 2
#     Edge 85, Type (0, 0), BuildingBlock: XIVTED_clean_linker_0, # of connection points: 2
#     Edge 86, Type (0, 0), BuildingBlock: XIVTED_clean_linker_0, # of connection points: 2
#     Edge 87, Type (0, 0), BuildingBlock: XIVTED_clean_linker_0, # of connection points: 2
#     Edge 88, Type (0, 0), BuildingBlock: XIVTED_clean_linker_0, # of connection points: 2
#     Edge 89, Type (0, 0), BuildingBlock: XIVTED_clean_linker_0, # of connection points: 2
#     Edge 90, Type (0, 0), BuildingBlock: XIVTED_clean_linker_0, # of connection points: 2
#     Edge 91, Type (0, 0), BuildingBlock: XIVTED_clean_linker_0, # of connection points: 2
#     Edge 92, Type (0, 0), BuildingBlock: XIVTED_clean_linker_0, # of connection points: 2
#     Edge 93, Type (0, 0), BuildingBlock: XIVTED_clean_linker_0, # of connection points: 2
#     Edge 94, Type (0, 0), BuildingBlock: XIVTED_clean_linker_0, # of connection points: 2
#     Edge 95, Type (0, 0), BuildingBlock: XIVTED_clean_linker_0, # of connection points: 2
#     Edge 96, Type (0, 0), BuildingBlock: XIVTED_clean_linker_0, # of connection points: 2
#     Edge 97, Type (0, 0), BuildingBlock: XIVTED_clean_linker_0, # of connection points: 2
#     Edge 98, Type (0, 0), BuildingBlock: XIVTED_clean_linker_0, # of connection points: 2
#     Edge 99, Type (0, 0), BuildingBlock: XIVTED_clean_linker_0, # of connection points: 2
#     Edge 100, Type (0, 0), BuildingBlock: XIVTED_clean_linker_0, # of connection points: 2
#     Edge 101, Type (0, 0), BuildingBlock: XIVTED_clean_linker_0, # of connection points: 2
#     Edge 102, Type (0, 0), BuildingBlock: XIVTED_clean_linker_0, # of connection points: 2
#     Edge 103, Type (0, 0), BuildingBlock: XIVTED_clean_linker_0, # of connection points: 2
#     Edge 104, Type (0, 0), BuildingBlock: XIVTED_clean_linker_0, # of connection points: 2
#     Edge 105, Type (0, 0), BuildingBlock: XIVTED_clean_linker_0, # of connection points: 2
#     Edge 106, Type (0, 0), BuildingBlock: XIVTED_clean_linker_0, # of connection points: 2
#     Edge 107, Type (0, 0), BuildingBlock: XIVTED_clean_linker_0, # of connection points: 2
#     Edge 108, Type (0, 0), BuildingBlock: XIVTED_clean_linker_0, # of connection points: 2
#     Edge 109, Type (0, 0), BuildingBlock: XIVTED_clean_linker_0, # of connection points: 2
#     Edge 110, Type (0, 0), BuildingBlock: XIVTED_clean_linker_0, # of connection points: 2
#     Edge 111, Type (0, 0), BuildingBlock: XIVTED_clean_linker_0, # of connection points: 2
#     Edge 112, Type (0, 0), BuildingBlock: XIVTED_clean_linker_0, # of connection points: 2
#     Edge 113, Type (0, 0), BuildingBlock: XIVTED_clean_linker_0, # of connection points: 2
#     Edge 114, Type (0, 0), BuildingBlock: XIVTED_clean_linker_0, # of connection points: 2
#     Edge 115, Type (0, 0), BuildingBlock: XIVTED_clean_linker_0, # of connection points: 2
#     Edge 116, Type (0, 0), BuildingBlock: XIVTED_clean_linker_0, # of connection points: 2
#     Edge 117, Type (0, 0), BuildingBlock: XIVTED_clean_linker_0, # of connection points: 2
#     Edge 118, Type (0, 0), BuildingBlock: XIVTED_clean_linker_0, # of connection points: 2
#     Edge 119, Type (0, 0), BuildingBlock: XIVTED_clean_linker_0, # of connection points: 2
# Relax obj value: 0.297
# Max RMSD: 0.241
# Mean RMSD: 0.241
data_MOF--net-teo--node1-LIZSOE_clean_sbu_0--edge1-XIVTED_clean_linker_0
_symmetry_space_group_name_H-M    P1
_symmetry_Int_Tables_number       1
_symmetry_cell_setting            triclinic
loop_
_symmetry_equiv_pos_as_xyz
'x, y, z'
_cell_length_a     45.54922
_cell_length_b     45.678131
_cell_length_c     45.660705
_cell_angle_alpha  89.982134
_cell_angle_beta   89.962745
_cell_angle_gamma 89.922052
loop_
_atom_site_label
_atom_site_type_symbol
_atom_site_fract_x
_atom_site_fract_y
_atom_site_fract_z
_atom_type_partial_charge
Co0 Co 0.98097 0.32969 0.36136 0.0
N1 N 0.94239 0.34487 0.35921 0.0
C2 C 0.9187 0.33165 0.37113 0.0
N3 N 0.90109 0.36934 0.34653 0.0
C4 C 0.93088 0.36777 0.34401 0.0
C5 C 0.89374 0.34661 0.36375 0.0
Co6 Co 0.08203 0.22546 0.36902 0.0
N7 N 0.12045 0.21237 0.35867 0.0
N8 N 0.16142 0.1868 0.34642 0.0
C9 C 0.16687 0.21559 0.34348 0.0
C10 C 0.14203 0.23099 0.35066 0.0
C11 C 0.13295 0.18535 0.35567 0.0
Co12 Co 0.03034 0.27591 0.37239 0.0
C13 C 0.04063 0.20802 0.36776 0.0
H14 H 0.1398 0.25451 0.34932 0.0
O15 O 1.01773 0.31792 0.36555 0.0
O16 O 0.06075 0.28555 0.40405 0.0
O17 O 0.99984 0.27115 0.40565 0.0
O18 O 1.00173 0.26275 0.34091 0.0
O19 O 0.96897 0.29887 0.33723 0.0
O20 O 0.09733 0.26197 0.38201 0.0
O21 O 0.04469 0.23441 0.3782 0.0
O22 O 0.07872 0.23991 0.3303 0.0
O23 O 0.97078 0.30916 0.39502 0.0
O24 O 0.99622 0.35805 0.38377 0.0
O25 O 0.05888 0.28311 0.33934 0.0
O26 O 0.0635 0.19363 0.35819 0.0
C27 C 0.97757 0.28785 0.41131 0.0
C28 C 0.11704 0.15743 0.36232 0.0
H29 H 0.10385 0.15996 0.38262 0.0
H30 H 0.13243 0.13884 0.36489 0.0
H31 H 0.10187 0.15234 0.34403 0.0
C32 C 0.08745 0.27579 0.40407 0.0
C33 C 0.97852 0.27393 0.32952 0.0
H34 H 0.91906 0.31155 0.38355 0.0
H35 H 0.97191 0.38946 0.33563 0.0
H36 H 0.9508 0.38037 0.30366 0.0
H37 H 0.93941 0.41066 0.32623 0.0
C38 C 0.94934 0.38847 0.32653 0.0
C39 C 1.0201 0.34253 0.38014 0.0
C40 C 0.07287 0.26582 0.32244 0.0
H41 H 0.87156 0.34057 0.36977 0.0
H42 H 0.18732 0.22489 0.33577 0.0
Co43 Co 0.97456 0.72756 0.61067 0.0
N44 N 0.95502 0.69464 0.59464 0.0
C45 C 0.94156 0.69819 0.56848 0.0
N46 N 0.93557 0.65175 0.57944 0.0
C47 C 0.95059 0.66584 0.60107 0.0
C48 C 0.92991 0.67232 0.55923 0.0
Co49 Co 0.08707 0.81713 0.6163 0.0
N50 N 0.10272 0.85499 0.60957 0.0
N51 N 0.12786 0.89596 0.59778 0.0
C52 C 0.10043 0.90357 0.60536 0.0
C53 C 0.0852 0.87879 0.61222 0.0
C54 C 0.12883 0.86626 0.60036 0.0
Co55 Co 0.03108 0.77045 0.62162 0.0
C56 C 0.09465 0.77577 0.60215 0.0
H57 H 0.06217 0.87833 0.6179 0.0
O58 O 0.98894 0.7603 0.62373 0.0
O59 O 0.0258 0.80009 0.65536 0.0
O60 O 0.03579 0.7369 0.65079 0.0
O61 O 0.03985 0.74268 0.58823 0.0
O62 O 0.99563 0.72869 0.57494 0.0
O63 O 0.06152 0.83236 0.6442 0.0
O64 O 0.07396 0.78125 0.62109 0.0
O65 O 0.06143 0.8257 0.58508 0.0
O66 O 1.00482 0.7044 0.62885 0.0
O67 O 0.94863 0.75354 0.59686 0.0
O68 O 1.02082 0.80037 0.59089 0.0
O69 O 0.11005 0.79751 0.5915 0.0
C70 C 1.02311 0.71135 0.64925 0.0
C71 C 0.1553 0.84791 0.59395 0.0
H72 H 0.15306 0.83836 0.57172 0.0
H73 H 0.15682 0.82964 0.6099 0.0
H74 H 0.17564 0.86122 0.59463 0.0
C75 C 0.03992 0.82435 0.6599 0.0
C76 C 1.02273 0.73087 0.56971 0.0
H77 H 0.94097 0.71838 0.55614 0.0
H78 H 0.94971 0.63159 0.63381 0.0
H79 H 0.98546 0.64444 0.62347 0.0
H80 H 0.96254 0.66694 0.6465 0.0
C81 C 0.96253 0.65132 0.62789 0.0
C82 C 0.96576 0.77123 0.61124 0.0
C83 C 0.03578 0.81928 0.57701 0.0
H84 H 0.91839 0.66871 0.5388 0.0
H85 H 0.09172 0.92564 0.60513 0.0
Co86 Co 0.48687 0.82935 0.85736 0.0
N87 N 0.45586 0.85362 0.84341 0.0
C88 C 0.46111 0.87047 0.81959 0.0
N89 N 0.41404 0.87584 0.82848 0.0
C90 C 0.42662 0.85773 0.84858 0.0
C91 C 0.43591 0.88385 0.81053 0.0
Co92 Co 0.55688 0.70463 0.8498 0.0
N93 N 0.58766 0.67883 0.84118 0.0
N94 N 0.62744 0.65368 0.82525 0.0
C95 C 0.60293 0.63922 0.81739 0.0
C96 C 0.57897 0.65452 0.82704 0.0
C97 C 0.61755 0.67779 0.84004 0.0
Co98 Co 0.52186 0.76715 0.86394 0.0
C99 C 0.51906 0.70146 0.87443 0.0
H100 H 0.55627 0.64889 0.82297 0.0
O101 O 0.5185 0.81024 0.86889 0.0
O102 O 0.5538 0.76498 0.89524 0.0
O103 O 0.48908 0.7653 0.89454 0.0
O104 O 0.49172 0.76457 0.83281 0.0
O105 O 0.48383 0.81015 0.82028 0.0
O106 O 0.57757 0.72372 0.88095 0.0
O107 O 0.52497 0.7243 0.85827 0.0
O108 O 0.5726 0.73109 0.82213 0.0
O109 O 0.46062 0.80178 0.87564 0.0
O110 O 0.51548 0.85196 0.84344 0.0
O111 O 0.55177 0.77402 0.83211 0.0
O112 O 0.53919 0.68122 0.8761 0.0
C113 C 0.46517 0.78106 0.89429 0.0
C114 C 0.63672 0.69985 0.85494 0.0
H115 H 0.66021 0.69364 0.85434 0.0
H116 H 0.62999 0.70171 0.8782 0.0
H117 H 0.63357 0.72162 0.84465 0.0
C118 C 0.57471 0.74588 0.89794 0.0
C119 C 0.48196 0.78313 0.81486 0.0
H120 H 0.48181 0.87185 0.80812 0.0
H121 H 0.38887 0.85351 0.87708 0.0
H122 H 0.40518 0.8198 0.865 0.0
H123 H 0.42343 0.8416 0.89252 0.0
C124 C 0.40998 0.84244 0.87229 0.0
C125 C 0.53159 0.83219 0.85617 0.0
C126 C 0.56922 0.75819 0.81696 0.0
H127 H 0.4335 0.89759 0.79134 0.0
H128 H 0.60231 0.6192 0.80473 0.0
Co129 Co 0.58669 0.30578 0.10041 0.0
N130 N 0.61233 0.33705 0.09422 0.0
C131 C 0.63992 0.33017 0.08599 0.0
N132 N 0.63653 0.37804 0.08119 0.0
C133 C 0.61083 0.36667 0.09109 0.0
C134 C 0.65463 0.35503 0.07779 0.0
Co135 Co 0.45926 0.23509 0.1055 0.0
N136 N 0.4333 0.20255 0.10296 0.0
N137 N 0.40807 0.16056 0.09428 0.0
C138 C 0.3889 0.18229 0.0998 0.0
C139 C 0.40419 0.20765 0.10486 0.0
C140 C 0.43505 0.17335 0.09645 0.0
Co141 Co 0.52326 0.27081 0.11097 0.0
C142 C 0.45851 0.27436 0.1284 0.0
H143 H 0.3945 0.22892 0.10879 0.0
O144 O 0.56672 0.27362 0.10787 0.0
O145 O 0.52495 0.23959 0.14328 0.0
O146 O 0.52361 0.30374 0.14215 0.0
O147 O 0.51839 0.3001 0.07868 0.0
O148 O 0.56165 0.32112 0.07091 0.0
O149 O 0.48221 0.21627 0.13426 0.0
O150 O 0.47953 0.26781 0.11001 0.0
O151 O 0.48253 0.21893 0.07518 0.0
O152 O 0.56604 0.32627 0.12996 0.0
O153 O 0.60846 0.28859 0.12822 0.0
O154 O 0.52645 0.23986 0.07983 0.0
O155 O 0.43933 0.25394 0.134 0.0
C156 C 0.54301 0.32433 0.14574 0.0
C157 C 0.46339 0.15707 0.0928 0.0
H158 H 0.48162 0.1684 0.10412 0.0
H159 H 0.46872 0.15555 0.06917 0.0
H160 H 0.46125 0.13447 0.10145 0.0
C161 C 0.50615 0.21893 0.14845 0.0
C162 C 0.5347 0.31783 0.06459 0.0
H163 H 0.64834 0.30806 0.08467 0.0
H164 H 0.58137 0.4012 0.07829 0.0
H165 H 0.56364 0.37074 0.0964 0.0
H166 H 0.58554 0.39625 0.117 0.0
C167 C 0.58359 0.38451 0.09582 0.0
C168 C 0.5887 0.26818 0.12549 0.0
C169 C 0.50914 0.22188 0.06724 0.0
H170 H 0.67674 0.35611 0.06913 0.0
H171 H 0.36527 0.18021 0.09914 0.0
Co172 Co 0.06754 0.82367 0.1877 0.0
N173 N 0.09893 0.84549 0.20352 0.0
C174 C 0.09751 0.85441 0.23169 0.0
N175 N 0.13768 0.8745 0.214 0.0
C176 C 0.12379 0.85835 0.19308 0.0
C177 C 0.12101 0.87172 0.23813 0.0
Co178 Co 0.98806 0.70392 0.18428 0.0
N179 N 0.95233 0.68316 0.18563 0.0
N180 N 0.91135 0.65905 0.19973 0.0
C181 C 0.91033 0.6635 0.17058 0.0
C182 C 0.9353 0.67798 0.16204 0.0
C183 C 0.93725 0.67112 0.20837 0.0
Co184 Co 0.02963 0.76406 0.17667 0.0
C185 C 0.02734 0.69893 0.16174 0.0
H186 H 0.94064 0.68434 0.13985 0.0
O187 O 0.03601 0.80688 0.17438 0.0
O188 O 0.99897 0.76733 0.14378 0.0
O189 O 0.06335 0.76269 0.14668 0.0
O190 O 0.05861 0.75731 0.20895 0.0
O191 O 0.06754 0.80205 0.2235 0.0
O192 O 0.97243 0.72766 0.1548 0.0
O193 O 1.02307 0.72068 0.17988 0.0
O194 O 0.97362 0.72954 0.21348 0.0
O195 O 0.09324 0.79594 0.16892 0.0
O196 O 0.03991 0.84708 0.20209 0.0
O197 O 0.99901 0.77087 0.20822 0.0
O198 O 1.00527 0.68134 0.15696 0.0
C199 C 0.08776 0.77772 0.14807 0.0
C200 C 0.9491 0.66976 0.2389 0.0
H201 H 0.93863 0.6871 0.25231 0.0
H202 H 0.97321 0.67333 0.23888 0.0
H203 H 0.9439 0.64828 0.249 0.0
C204 C 0.97677 0.75031 0.13943 0.0
C205 C 0.0678 0.77487 0.2282 0.0
H206 H 0.07985 0.84938 0.2467 0.0
H207 H 0.14127 0.87859 0.15432 0.0
H208 H 0.15104 0.84082 0.15934 0.0
H209 H 0.11435 0.84999 0.14762 0.0
C210 C 0.13297 0.85696 0.16164 0.0
C211 C 1.02349 0.82881 0.18754 0.0
C212 C 0.97947 0.75558 0.22133 0.0
H213 H 0.12537 0.8819 0.2591 0.0
H214 H 0.89268 0.65658 0.15629 0.0
Co215 Co 0.58032 0.73559 0.43844 0.0
N216 N 0.60395 0.70421 0.45328 0.0
C217 C 0.61875 0.70873 0.47851 0.0
N218 N 0.62747 0.66261 0.46723 0.0
C219 C 0.61005 0.67564 0.44667 0.0
C220 C 0.63282 0.68365 0.48704 0.0
Co221 Co 0.45772 0.81084 0.44018 0.0
N222 N 0.43243 0.84325 0.44634 0.0
N223 N 0.40606 0.88403 0.45759 0.0
C224 C 0.3882 0.86059 0.45794 0.0
C225 C 0.40422 0.83608 0.45136 0.0
C226 C 0.43308 0.87288 0.45051 0.0
Co227 Co 0.51951 0.77289 0.4296 0.0
C228 C 0.45486 0.77345 0.415 0.0
H229 H 0.39589 0.81392 0.45105 0.0
O230 O 0.56215 0.76692 0.42613 0.0
O231 O 0.51995 0.8041 0.39733 0.0
O232 O 0.51804 0.73964 0.39956 0.0
O233 O 0.51496 0.74387 0.46196 0.0
O234 O 0.56033 0.7345 0.47538 0.0
O235 O 0.47998 0.83054 0.41052 0.0
O236 O 0.47653 0.77799 0.43315 0.0
O237 O 0.48305 0.82461 0.46997 0.0
O238 O 0.55198 0.70968 0.42088 0.0
O239 O 0.60387 0.76454 0.45148 0.0
O240 O 0.52633 0.80346 0.4611 0.0
O241 O 0.43565 0.7944 0.41197 0.0
C242 C 0.53308 0.71529 0.40058 0.0
C243 C 0.46039 0.89085 0.44763 0.0
H244 H 0.47753 0.87897 0.43528 0.0
H245 H 0.46924 0.89563 0.46971 0.0
H246 H 0.45537 0.91196 0.43667 0.0
C247 C 0.50244 0.82631 0.39415 0.0
C248 C 0.5331 0.73447 0.48076 0.0
H249 H 0.61846 0.72892 0.49085 0.0
H250 H 0.61176 0.64125 0.41427 0.0
H251 H 0.5756 0.65191 0.42603 0.0
H252 H 0.59601 0.67555 0.40183 0.0
C253 C 0.59782 0.66016 0.42055 0.0
C254 C 0.58414 0.78029 0.43797 0.0
C255 C 0.50997 0.82051 0.47629 0.0
H256 H 0.64534 0.68074 0.50699 0.0
H257 H 0.36508 0.86096 0.4635 0.0
Co258 Co 0.55828 0.33781 0.69649 0.0
N259 N 0.58946 0.36313 0.70352 0.0
C260 C 0.58185 0.38988 0.71334 0.0
N261 N 0.62998 0.38781 0.71716 0.0
C262 C 0.61922 0.36236 0.70612 0.0
C263 C 0.60641 0.4049 0.72182 0.0
Co264 Co 0.48367 0.21282 0.68995 0.0
N265 N 0.44875 0.19035 0.68951 0.0
N266 N 0.40755 0.16523 0.70151 0.0
C267 C 0.40761 0.17049 0.67248 0.0
C268 C 0.43268 0.18547 0.66521 0.0
C269 C 0.43302 0.17746 0.71136 0.0
Co270 Co 0.52231 0.27527 0.68568 0.0
C271 C 0.52396 0.2103 0.66876 0.0
H272 H 0.4385 0.19279 0.64344 0.0
O273 O 0.52627 0.31835 0.68837 0.0
O274 O 0.49215 0.27836 0.65216 0.0
O275 O 0.55591 0.2748 0.65523 0.0
O276 O 0.5509 0.26969 0.719 0.0
O277 O 0.57301 0.31245 0.72605 0.0
O278 O 0.46782 0.23673 0.66077 0.0
O279 O 0.51779 0.23144 0.68706 0.0
O280 O 0.46739 0.2368 0.71965 0.0
O281 O 0.57913 0.31695 0.66718 0.0
O282 O 0.5417 0.36001 0.66844 0.0
O283 O 0.49073 0.27955 0.71608 0.0
O284 O 0.50292 0.19189 0.66252 0.0
C285 C 0.57685 0.29383 0.65162 0.0
C286 C 0.44371 0.17598 0.7423 0.0
H287 H 0.46784 0.17929 0.74314 0.0
H288 H 0.43793 0.15458 0.75227 0.0
H289 H 0.43303 0.19358 0.75521 0.0
C290 C 0.4712 0.26019 0.64641 0.0
C291 C 0.56909 0.28577 0.7329 0.0
H292 H 0.55944 0.39748 0.71542 0.0
H293 H 0.65716 0.33522 0.71415 0.0
H294 H 0.6248 0.31552 0.70222 0.0
H295 H 0.64541 0.33728 0.67665 0.0
C296 C 0.63764 0.33594 0.69965 0.0
C297 C 0.52125 0.34023 0.67058 0.0
C298 C 0.47155 0.26305 0.72791 0.0
H299 H 0.60692 0.42652 0.73152 0.0
H300 H 0.39023 0.16449 0.65752 0.0
Co301 Co 0.95887 0.31035 0.94113 0.0
N302 N 0.9332 0.34243 0.94289 0.0
C303 C 0.904 0.33763 0.94216 0.0
N304 N 0.90902 0.38478 0.9511 0.0
C305 C 0.93566 0.37167 0.94829 0.0
C306 C 0.88924 0.36338 0.94702 0.0
Co307 Co 0.0861 0.2403 0.94885 0.0
N308 N 0.11154 0.20957 0.95791 0.0
N309 N 0.13904 0.17023 0.97055 0.0
C310 C 0.1435 0.19189 0.99005 0.0
C311 C 0.12696 0.21556 0.98226 0.0
C312 C 0.1195 0.18167 0.95086 0.0
Co313 Co 1.02282 0.27515 0.93657 0.0
C314 C 0.08926 0.27781 0.92381 0.0
H315 H 0.12543 0.23595 0.99421 0.0
O316 O 0.97921 0.27786 0.9372 0.0
O317 O 1.02369 0.24155 0.90636 0.0
O318 O 0.02449 0.30572 0.90325 0.0
O319 O 0.02577 0.30652 0.96702 0.0
O320 O 0.98188 0.3273 0.97162 0.0
O321 O 0.06666 0.21956 0.91863 0.0
O322 O 0.06628 0.2721 0.94004 0.0
O323 O 0.05984 0.22451 0.97645 0.0
O324 O 0.98149 0.32867 0.91198 0.0
O325 O 0.93909 0.29112 0.91286 0.0
O326 O 1.0172 0.24688 0.96965 0.0
O327 O 0.10939 0.25752 0.92232 0.0
C328 C 1.00527 0.326 0.89757 0.0
C329 C 0.10898 0.16636 0.92382 0.0
H330 H 0.08724 0.15639 0.92828 0.0
H331 H 0.12455 0.14901 0.9169 0.0
H332 H 0.10647 0.18226 0.90563 0.0
C333 C 0.04354 0.22131 0.90285 0.0
C334 C 1.00849 0.32451 0.97959 0.0
H335 H 0.89398 0.31635 0.93943 0.0
H336 H 0.96931 0.39258 0.97336 0.0
H337 H 0.98254 0.37524 0.94053 0.0
H338 H 0.96224 0.40922 0.93866 0.0
C339 C 0.9642 0.38789 0.95014 0.0
C340 C 0.95841 0.27091 0.91878 0.0
C341 C 0.03313 0.22839 0.98305 0.0
H342 H 0.86572 0.36595 0.94896 0.0
H343 H 0.15719 0.19046 1.00937 0.0
Co344 Co 0.368 0.96739 0.31604 0.0
N345 N 0.35936 0.9297 0.33018 0.0
C346 C 0.34899 0.90799 0.31297 0.0
N347 N 0.35024 0.88968 0.35759 0.0
C348 C 0.36003 0.91774 0.35738 0.0
C349 C 0.34338 0.88361 0.32965 0.0
Co350 Co 0.35324 0.05934 0.20792 0.0
N351 N 0.34103 0.09282 0.18826 0.0
N352 N 0.32647 0.13379 0.16464 0.0
C353 C 0.30512 0.11354 0.16279 0.0
C354 C 0.31409 0.08883 0.17692 0.0
C355 C 0.34833 0.12061 0.18034 0.0
Co356 Co 0.37062 1.01592 0.26376 0.0
C357 C 0.38045 0.02491 0.198 0.0
H358 H 0.30158 0.06884 0.17909 0.0
O359 O 0.37538 1.00373 0.30545 0.0
O360 O 0.39991 0.04982 0.26683 0.0
O361 O 0.40475 0.98747 0.25658 0.0
O362 O 0.34048 0.98484 0.25582 0.0
O363 O 0.32924 0.96787 0.29951 0.0
O364 O 0.38322 0.07878 0.22982 0.0
O365 O 0.36481 0.02616 0.22198 0.0
O366 O 0.32542 0.06834 0.23699 0.0
O367 O 0.38374 0.95081 0.28122 0.0
O368 O 0.35403 0.98736 0.34675 0.0
O369 O 0.33739 0.04251 0.27635 0.0
O370 O 0.38001 0.04799 0.18118 0.0
C371 C 0.40548 0.96109 0.26707 0.0
C372 C 0.37765 0.13399 0.18665 0.0
H373 H 0.39485 0.11678 0.18753 0.0
H374 H 0.37675 0.14501 0.20827 0.0
H375 H 0.38355 0.15043 0.16976 0.0
C376 C 0.401 0.07349 0.25098 0.0
C377 C 0.32277 0.9719 0.27287 0.0
H378 H 0.3449 0.90998 0.28973 0.0
H379 H 0.3527 0.9422 0.39642 0.0
H380 H 0.38388 0.91779 0.39763 0.0
H381 H 0.38607 0.95167 0.37718 0.0
C382 C 0.37147 0.93336 0.38369 0.0
C383 C 0.36177 1.00917 0.32993 0.0
C384 C 0.32111 0.06114 0.26335 0.0
H385 H 0.33381 0.86329 0.32206 0.0
H386 H 0.28414 0.11646 0.15202 0.0
Co387 Co 0.22101 0.11599 0.47458 0.0
N388 N 0.18308 0.10472 0.46155 0.0
C389 C 0.16441 0.09037 0.47946 0.0
N390 N 0.14028 0.09583 0.43788 0.0
C391 C 0.16764 0.10791 0.43617 0.0
C392 C 0.13856 0.08494 0.46519 0.0
Co393 Co 0.31159 0.10492 0.5841 0.0
N394 N 0.34435 0.09388 0.60567 0.0
N395 N 0.38418 0.08107 0.63222 0.0
C396 C 0.36314 0.06072 0.63583 0.0
C397 C 0.33915 0.06861 0.61983 0.0
C398 C 0.37221 0.10119 0.61354 0.0
Co399 Co 0.26985 0.1206 0.5265 0.0
C400 C 0.27628 0.13146 0.5918 0.0
H401 H 0.31876 0.05657 0.61844 0.0
O402 O 0.25808 0.12596 0.48407 0.0
O403 O 0.30351 0.15081 0.52463 0.0
O404 O 0.24021 0.15351 0.53366 0.0
O405 O 0.23958 0.08961 0.53361 0.0
O406 O 0.22532 0.07697 0.48966 0.0
O407 O 0.33128 0.1352 0.56304 0.0
O408 O 0.27884 0.11526 0.56839 0.0
O409 O 0.32266 0.07756 0.55565 0.0
O410 O 0.20429 0.1302 0.51032 0.0
O411 O 0.24045 0.10451 0.44334 0.0
O412 O 0.29733 0.08749 0.51528 0.0
O413 O 0.29831 0.13141 0.61 0.0
C414 C 0.21364 0.15284 0.52366 0.0
C415 C 0.387 0.12867 0.60349 0.0
H416 H 0.39452 0.12565 0.58058 0.0
H417 H 0.40616 0.13415 0.61735 0.0
H418 H 0.37115 0.14714 0.60381 0.0
C419 C 0.32652 0.15269 0.54158 0.0
C420 C 0.22955 0.07051 0.51621 0.0
H421 H 0.16914 0.08431 0.50186 0.0
H422 H 0.17947 0.11134 0.3908 0.0
H423 H 0.16327 0.14362 0.4064 0.0
H424 H 0.20076 0.13437 0.41508 0.0
C425 C 0.17864 0.12528 0.41065 0.0
C426 C 0.26291 0.11396 0.45847 0.0
C427 C 0.31636 0.07222 0.52918 0.0
H428 H 0.11973 0.07368 0.47427 0.0
H429 H 0.36503 0.04119 0.64915 0.0
Co430 Co 0.19026 0.98486 0.71547 0.0
N431 N 0.19978 0.9533 0.68966 0.0
C432 C 0.20305 0.95942 0.66092 0.0
N433 N 0.21533 0.91291 0.66516 0.0
C434 C 0.20734 0.92435 0.69157 0.0
C435 C 0.21279 0.93511 0.64611 0.0
Co436 Co 0.19345 0.05558 0.84211 0.0
N437 N 0.19789 0.08802 0.86747 0.0
N438 N 0.20711 0.13058 0.89108 0.0
C439 C 0.20452 0.10909 0.911 0.0
C440 C 0.19901 0.08327 0.8966 0.0
C441 C 0.20294 0.11737 0.86472 0.0
Co442 Co 0.18394 1.02019 0.77874 0.0
C443 C 0.16867 1.0176 0.84328 0.0
H444 H 0.19677 0.062 0.90678 0.0
O445 O 0.18215 1.01688 0.73542 0.0
O446 O 0.15218 0.05229 0.77872 0.0
O447 O 0.15243 0.98767 0.77933 0.0
O448 O 0.21555 0.99033 0.78244 0.0
O449 O 0.22414 0.97454 0.73759 0.0
O450 O 0.16463 0.07571 0.8203 0.0
O451 O 0.18709 0.02318 0.82209 0.0
O452 O 0.22429 0.07005 0.81819 0.0
O453 O 0.16579 0.96107 0.73915 0.0
O454 O 0.21096 1.01191 0.69603 0.0
O455 O 0.21645 0.04994 0.77435 0.0
O456 O 0.16467 0.03805 0.86284 0.0
C457 C 0.14989 0.965 0.76206 0.0
C458 C 0.20261 0.13374 0.83626 0.0
H459 H 0.19894 0.11919 0.81728 0.0
H460 H 0.2236 0.14565 0.8334 0.0
H461 H 0.18489 0.15044 0.83697 0.0
C462 C 0.14883 0.07336 0.79744 0.0
C463 C 0.23086 0.97574 0.76447 0.0
H464 H 0.19938 0.98073 0.65131 0.0
H465 H 0.22821 0.89423 0.72102 0.0
H466 H 0.20527 0.92128 0.73894 0.0
H467 H 0.18908 0.8913 0.71905 0.0
C468 C 0.20757 0.90708 0.71945 0.0
C469 C 0.19783 0.02898 0.71485 0.0
C470 C 0.23141 0.06636 0.79149 0.0
H471 H 0.21813 0.93389 0.62302 0.0
H472 H 0.20767 0.11171 0.93431 0.0
Co473 Co 0.31176 0.94381 0.9569 0.0
N474 N 0.34574 0.95088 0.93326 0.0
C475 C 0.34042 0.95458 0.90443 0.0
N476 N 0.38821 0.96133 0.90906 0.0
C477 C 0.37536 0.95547 0.93554 0.0
C478 C 0.36595 0.96073 0.88978 0.0
Co479 Co 0.22284 0.93223 0.07075 0.0
N480 N 0.18499 0.94164 0.08659 0.0
N481 N 0.14407 0.95027 0.11375 0.0
C482 C 0.13796 0.9556 0.08547 0.0
C483 C 0.16277 0.95062 0.06913 0.0
C484 C 0.17285 0.94186 0.11397 0.0
Co485 Co 0.26994 0.92969 1.01611 0.0
C486 C 0.26574 0.93459 0.08471 0.0
H487 H 0.16443 0.95375 0.04572 0.0
O488 O 0.27795 0.93564 0.97383 0.0
O489 O 0.24024 0.89629 1.01033 0.0
O490 O 0.30317 0.89901 1.01724 0.0
O491 O 0.2982 0.96273 0.02572 0.0
O492 O 0.3252 0.97106 0.98552 0.0
O493 O 0.20496 0.91841 0.03568 0.0
O494 O 0.25954 0.92413 0.0588 0.0
O495 O 0.22439 0.97128 0.05579 0.0
O496 O 0.32982 0.91244 0.97743 0.0
O497 O 0.2954 0.91786 0.93194 0.0
O498 O 0.23908 0.96092 1.0109 0.0
O499 O 0.24397 0.94344 0.10127 0.0
C500 C 0.32528 0.89574 0.99946 0.0
C501 C 0.18928 0.9332 0.14097 0.0
H502 H 0.20377 0.91423 0.13623 0.0
H503 H 0.17395 0.92772 0.15902 0.0
H504 H 0.20331 0.95174 0.14802 0.0
C505 C 0.21433 0.89598 1.02209 0.0
C506 C 0.31832 0.97692 1.012 0.0
H507 H 0.31889 0.95339 0.89454 0.0
H508 H 0.41329 0.94318 0.9606 0.0
H509 H 0.396 0.97672 0.97166 0.0
H510 H 0.37892 0.94239 0.98083 0.0
C511 C 0.39177 0.95412 0.96389 0.0
C512 C 0.2738 0.91952 0.95055 0.0
C513 C 0.22739 0.97841 0.02915 0.0
H514 H 0.36793 0.96508 0.86654 0.0
H515 H 0.117 0.96318 0.07724 0.0
Co516 Co 0.21389 0.36235 0.06686 0.0
N517 N 0.19321 0.36436 0.10252 0.0
C518 C 0.1911 0.38877 0.11896 0.0
N519 N 0.16993 0.35373 0.14504 0.0
C520 C 0.17956 0.3434 0.11865 0.0
C521 C 0.17736 0.38233 0.14482 0.0
Co522 Co 0.33636 0.35099 0.98901 0.0
N523 N 0.36012 0.34072 0.9576 0.0
N524 N 0.38672 0.32819 0.91779 0.0
C525 C 0.39051 0.30778 0.93873 0.0
C526 C 0.37449 0.31552 0.96275 0.0
C527 C 0.36817 0.34833 0.92992 0.0
Co528 Co 0.27501 0.36471 0.02609 0.0
C529 C 0.34129 0.37772 0.02488 0.0
H530 H 0.37273 0.30311 0.98286 0.0
O531 O 0.23106 0.36403 0.03186 0.0
O532 O 0.27409 0.39391 0.99164 0.0
O533 O 0.27968 0.3992 0.05487 0.0
O534 O 0.28002 0.33524 0.05824 0.0
O535 O 0.23786 0.33216 0.08276 0.0
O536 O 0.31551 0.38011 0.96771 0.0
O537 O 0.31822 0.36111 1.021 0.0
O538 O 0.30968 0.32209 0.97639 0.0
O539 O 0.2391 0.39097 0.08084 0.0
O540 O 0.19294 0.39 0.04839 0.0
O541 O 0.2675 0.33068 0.99892 0.0
O542 O 0.36026 0.37858 1.00349 0.0
C543 C 0.26237 0.40525 0.07646 0.0
C544 C 0.35896 0.37635 0.91555 0.0
H545 H 0.33709 0.37326 0.90535 0.0
H546 H 0.37488 0.38302 0.8984 0.0
H547 H 0.3572 0.39407 0.93206 0.0
C548 C 0.29277 0.3964 0.97018 0.0
C549 C 0.26403 0.32368 0.07798 0.0
H550 H 0.19947 0.41005 0.11285 0.0
H551 H 0.19053 0.29802 0.11637 0.0
H552 H 0.15184 0.30569 0.11332 0.0
H553 H 0.17639 0.31299 0.08282 0.0
C554 C 0.17411 0.31328 0.10703 0.0
C555 C 0.20991 0.38271 0.0265 0.0
C556 C 0.28299 0.31584 0.98101 0.0
H557 H 0.17364 0.39777 0.16241 0.0
H558 H 0.4034 0.28796 0.93653 0.0
Co559 Co 0.71423 0.19426 0.99041 0.0
N560 N 0.68913 0.19873 0.95752 0.0
C561 C 0.6599 0.19589 0.96141 0.0
N562 N 0.66528 0.20871 0.9151 0.0
C563 C 0.69179 0.20673 0.9288 0.0
C564 C 0.64542 0.20175 0.93572 0.0
Co565 Co 0.84007 0.19298 0.06498 0.0
N566 N 0.86552 0.19694 0.09765 0.0
N567 N 0.8908 0.2061 0.1396 0.0
C568 C 0.90973 0.20448 0.11697 0.0
C569 C 0.89441 0.19905 0.09175 0.0
C570 C 0.86384 0.20143 0.12721 0.0
Co571 Co 0.77725 0.18554 0.02723 0.0
C572 C 0.84242 0.16943 0.02601 0.0
H573 H 0.90379 0.19762 0.07003 0.0
O574 O 0.73364 0.18779 0.02335 0.0
O575 O 0.7758 0.1533 0.05907 0.0
O576 O 0.77848 0.15405 0.99469 0.0
O577 O 0.78207 0.21781 0.99734 0.0
O578 O 0.73842 0.2249 0.97639 0.0
O579 O 0.81774 0.1633 0.0836 0.0
O580 O 0.82072 0.18735 0.03165 0.0
O581 O 0.81524 0.22269 0.08075 0.0
O582 O 0.73685 0.16592 0.97062 0.0
O583 O 0.69351 0.16529 1.00713 0.0
O584 O 0.77262 0.21696 0.05757 0.0
O585 O 0.86143 0.16514 0.0469 0.0
C586 C 0.76001 0.1505 0.97327 0.0
C587 C 0.83552 0.20113 0.14391 0.0
H588 H 0.81816 0.18957 0.13162 0.0
H589 H 0.82805 0.22395 0.14745 0.0
H590 H 0.83864 0.19058 0.16559 0.0
C591 C 0.79427 0.14842 0.08027 0.0
C592 C 0.76525 0.23182 0.97986 0.0
H593 H 0.64954 0.19061 0.98206 0.0
H594 H 0.72603 0.23596 0.9161 0.0
H595 H 0.73837 0.19937 0.9241 0.0
H596 H 0.71912 0.20713 0.89026 0.0
C597 C 0.72055 0.21241 0.91393 0.0
C598 C 0.71221 0.16941 0.0283 0.0
C599 C 0.78862 0.23001 0.07639 0.0
H600 H 0.62185 0.20191 0.93262 0.0
H601 H 0.93317 0.20804 0.11834 0.0
Co602 Co 0.10428 0.46163 0.23728 0.0
N603 N 0.09788 0.43618 0.20589 0.0
C604 C 0.08446 0.41072 0.21228 0.0
N605 N 0.08408 0.41371 0.16409 0.0
C606 C 0.09698 0.43773 0.17611 0.0
C607 C 0.07604 0.39697 0.18691 0.0
Co608 Co 0.10516 0.58846 0.30826 0.0
N609 N 0.10175 0.61414 0.34066 0.0
N610 N 0.09341 0.63876 0.38293 0.0
C611 C 0.09733 0.65818 0.36118 0.0
C612 C 0.10221 0.64322 0.33558 0.0
C613 C 0.09628 0.61202 0.37001 0.0
Co614 Co 0.11291 0.5251 0.27212 0.0
C615 C 0.12877 0.58973 0.26909 0.0
H616 H 0.1051 0.65307 0.31423 0.0
O617 O 0.11097 0.48171 0.26912 0.0
O618 O 0.14504 0.52425 0.30389 0.0
O619 O 0.14486 0.52518 0.23994 0.0
O620 O 0.08073 0.52963 0.24224 0.0
O621 O 0.07592 0.48623 0.22121 0.0
O622 O 0.13488 0.56679 0.32701 0.0
O623 O 0.11082 0.56841 0.2755 0.0
O624 O 0.07542 0.56397 0.32484 0.0
O625 O 0.13471 0.48214 0.2175 0.0
O626 O 0.13139 0.43958 0.2556 0.0
O627 O 0.08125 0.52124 0.30217 0.0
O628 O 0.13297 0.60947 0.28925 0.0
C629 C 0.14982 0.5056 0.21981 0.0
C630 C 0.09439 0.58367 0.38641 0.0
H631 H 0.10498 0.56559 0.37419 0.0
H632 H 0.071 0.57811 0.39002 0.0
H633 H 0.1049 0.58595 0.40822 0.0
C634 C 0.14982 0.54333 0.32441 0.0
C635 C 0.06823 0.5127 0.22396 0.0
H636 H 0.07983 0.4033 0.2343 0.0
H637 H 0.1326 0.4629 0.15947 0.0
H638 H 0.10114 0.46225 0.13564 0.0
H639 H 0.10075 0.48408 0.16875 0.0
C640 C 0.10826 0.46322 0.15883 0.0
C641 C 0.128 0.45962 0.2757 0.0
C642 C 0.06824 0.53733 0.3209 0.0
H643 H 0.06416 0.37651 0.18531 0.0
H644 H 0.09561 0.68166 0.36348 0.0
Co645 Co 0.71756 0.85716 0.56454 0.0
N646 N 0.69892 0.84206 0.59868 0.0
C647 C 0.69248 0.81314 0.59903 0.0
N648 N 0.67627 0.82988 0.64108 0.0
C649 C 0.68831 0.85188 0.62483 0.0
C650 C 0.67901 0.80571 0.62471 0.0
Co651 Co 0.82787 0.86715 0.46886 0.0
N652 N 0.84332 0.86105 0.43003 0.0
N653 N 0.86655 0.84458 0.3891 0.0
C654 C 0.84083 0.85665 0.38132 0.0
C655 C 0.82686 0.86658 0.40599 0.0
C656 C 0.86774 0.84757 0.41883 0.0
Co657 Co 0.77354 0.86992 0.51909 0.0
C658 C 0.83696 0.85265 0.50994 0.0
H659 H 0.80499 0.87574 0.40616 0.0
O660 O 0.73169 0.86848 0.53096 0.0
O661 O 0.76568 0.90345 0.48925 0.0
O662 O 0.77736 0.89993 0.55303 0.0
O663 O 0.78532 0.83678 0.54616 0.0
O664 O 0.74407 0.82561 0.56862 0.0
O665 O 0.80091 0.89457 0.45519 0.0
O666 O 0.81575 0.87141 0.5059 0.0
O667 O 0.80246 0.83545 0.46012 0.0
O668 O 0.74345 0.88198 0.5857 0.0
O669 O 0.69517 0.83666 0.53971 0.0
O670 O 0.76421 0.83877 0.48954 0.0
O671 O 0.85166 0.84273 0.48741 0.0
C672 C 0.76336 0.90061 0.57823 0.0
C673 C 0.89164 0.83494 0.43751 0.0
H674 H 0.89759 0.85066 0.45504 0.0
H675 H 0.91144 0.82952 0.42448 0.0
H676 H 0.88356 0.81455 0.44797 0.0
C677 C 0.77893 0.90916 0.46452 0.0
C678 C 0.77049 0.81995 0.56269 0.0
H679 H 0.69731 0.79802 0.58145 0.0
H680 H 0.66948 0.88925 0.6464 0.0
H681 H 0.70859 0.88579 0.64963 0.0
H682 H 0.693 0.89783 0.61533 0.0
C683 C 0.68979 0.88314 0.63443 0.0
C684 C 0.71109 0.85148 0.5212 0.0
C685 C 0.77778 0.82634 0.46871 0.0
H686 H 0.67151 0.78408 0.63091 0.0
H687 H 0.83217 0.85724 0.35924 0.0
Co688 Co 0.93029 0.9716 0.32954 0.0
N689 N 0.93784 0.95943 0.3687 0.0
C690 C 0.93477 0.97782 0.39169 0.0
N691 N 0.95307 0.93714 0.41033 0.0
C692 C 0.94912 0.93455 0.38088 0.0
C693 C 0.94407 0.96438 0.41692 0.0
Co694 Co 0.93105 0.06572 0.2201 0.0
N695 N 0.94205 0.07454 0.1815 0.0
N696 N 0.95384 0.09702 0.13903 0.0
C697 C 0.9623 0.06879 0.13757 0.0
C698 C 0.95507 0.05517 0.16336 0.0
C699 C 0.94118 0.09982 0.16595 0.0
Co700 Co 0.92345 1.02052 0.27503 0.0
C701 C 0.93591 0.0848 0.25996 0.0
H702 H 0.95973 0.03259 0.1688 0.0
O703 O 0.92459 0.98043 0.29257 0.0
O704 O 0.89047 1.01149 0.24564 0.0
O705 O 0.89138 0.03039 0.30604 0.0
O706 O 0.95631 0.03438 0.30122 0.0
O707 O 0.9601 1.00004 0.33521 0.0
O708 O 0.9153 0.02924 0.20766 0.0
O709 O 0.92194 0.06019 0.25687 0.0
O710 O 0.9691 0.04825 0.22504 0.0
O711 O 0.90153 0.99749 0.34195 0.0
O712 O 0.95606 0.9479 0.3123 0.0
O713 O 0.95525 1.0071 0.24636 0.0
O714 O 0.94489 0.09865 0.23657 0.0
C715 C 0.88617 1.01837 0.3315 0.0
C716 C 0.92617 0.12675 0.177 0.0
H717 H 0.90803 0.12071 0.19207 0.0
H718 H 0.91737 0.13991 0.15855 0.0
H719 H 0.94221 0.14001 0.18953 0.0
C720 C 0.89154 1.01919 0.21828 0.0
C721 C 0.96881 0.02369 0.32373 0.0
H722 H 0.92738 1.00027 0.39017 0.0
H723 H 0.97931 0.91412 0.35149 0.0
H724 H 0.9633 0.88936 0.37738 0.0
H725 H 0.94172 0.90301 0.34686 0.0
C726 C 0.95876 0.90858 0.3633 0.0
C727 C 0.94409 0.95989 0.28922 0.0
C728 C 0.97438 1.02202 0.23233 0.0
H729 H 0.945 0.9742 0.43848 0.0
H730 H 0.97395 0.05884 0.11944 0.0
Co731 Co 0.21357 0.69727 0.4888 0.0
N732 N 0.19004 0.70926 0.45752 0.0
C733 C 0.17721 0.73529 0.46269 0.0
N734 N 0.16266 0.72261 0.4184 0.0
C735 C 0.18064 0.70173 0.43022 0.0
C736 C 0.1608 0.74353 0.4391 0.0
Co737 Co 0.33528 0.68841 0.56052 0.0
N738 N 0.35845 0.70319 0.59179 0.0
N739 N 0.37967 0.71908 0.63362 0.0
C740 C 0.3877 0.73688 0.61169 0.0
C741 C 0.3749 0.72727 0.58649 0.0
C742 C 0.36213 0.69846 0.62108 0.0
Co743 Co 0.27445 0.68092 0.52482 0.0
C744 C 0.33955 0.68844 0.51592 0.0
H745 H 0.37648 0.73844 0.5657 0.0
O746 O 0.23159 0.68548 0.52044 0.0
O747 O 0.27251 0.64933 0.55645 0.0
O748 O 0.27339 0.65101 0.49147 0.0
O749 O 0.28249 0.7139 0.49658 0.0
O750 O 0.23938 0.72777 0.47919 0.0
O751 O 0.30721 0.66952 0.58626 0.0
O752 O 0.31738 0.67615 0.52901 0.0
O753 O 0.3152 0.72561 0.5625 0.0
O754 O 0.23555 0.66989 0.46531 0.0
O755 O 0.19055 0.66787 0.50061 0.0
O756 O 0.26998 0.71109 0.5565 0.0
O757 O 0.35863 0.70219 0.53204 0.0
C758 C 0.2564 0.65127 0.46864 0.0
C759 C 0.34709 0.67454 0.63767 0.0
H760 H 0.34728 0.65407 0.62459 0.0
H761 H 0.32396 0.68104 0.64166 0.0
H762 H 0.3577 0.67048 0.65912 0.0
C763 C 0.28757 0.64988 0.58078 0.0
C764 C 0.26667 0.73183 0.48216 0.0
H765 H 0.18 0.74773 0.48265 0.0
H766 H 0.17099 0.66653 0.40001 0.0
H767 H 0.20928 0.67538 0.40428 0.0
H768 H 0.19046 0.65573 0.4328 0.0
C769 C 0.18807 0.67312 0.41599 0.0
C770 C 0.20981 0.66703 0.52176 0.0
C771 C 0.288 0.73006 0.5656 0.0
H772 H 0.1485 0.76375 0.43722 0.0
H773 H 0.40122 0.75623 0.61398 0.0
Co774 Co 0.43671 0.58317 0.73029 0.0
N775 N 0.4354 0.60523 0.69539 0.0
C776 C 0.41144 0.60838 0.6783 0.0
N777 N 0.447 0.63228 0.6555 0.0
C778 C 0.4567 0.62043 0.68117 0.0
C779 C 0.41849 0.62454 0.65398 0.0
Co780 Co 0.44285 0.45895 0.80738 0.0
N781 N 0.44715 0.43412 0.84006 0.0
N782 N 0.45606 0.41059 0.88267 0.0
C783 C 0.45183 0.39057 0.86156 0.0
C784 C 0.44663 0.40491 0.83569 0.0
C785 C 0.45299 0.43698 0.86921 0.0
Co786 Co 0.43332 0.52128 0.7701 0.0
C787 C 0.41909 0.45608 0.7688 0.0
H788 H 0.44343 0.39454 0.81465 0.0
O789 O 0.43451 0.56506 0.7649 0.0
O790 O 0.40222 0.52249 0.80304 0.0
O791 O 0.39986 0.51754 0.73994 0.0
O792 O 0.46434 0.51721 0.73911 0.0
O793 O 0.46596 0.55857 0.71323 0.0
O794 O 0.413 0.48021 0.8262 0.0
O795 O 0.43657 0.47805 0.77448 0.0
O796 O 0.47222 0.48452 0.82266 0.0
O797 O 0.40722 0.55934 0.71569 0.0
O798 O 0.40978 0.60441 0.7496 0.0
O799 O 0.46613 0.52687 0.79905 0.0
O800 O 0.41525 0.437 0.78964 0.0
C801 C 0.39328 0.53574 0.7193 0.0
C802 C 0.45488 0.4657 0.88495 0.0
H803 H 0.44431 0.48354 0.87236 0.0
H804 H 0.47826 0.47131 0.88852 0.0
H805 H 0.44432 0.46389 0.90679 0.0
C806 C 0.3978 0.50347 0.82372 0.0
C807 C 0.47517 0.53277 0.71855 0.0
H808 H 0.38999 0.59942 0.68303 0.0
H809 H 0.50224 0.60953 0.68459 0.0
H810 H 0.49424 0.64784 0.68918 0.0
H811 H 0.48586 0.62187 0.71818 0.0
C812 C 0.48647 0.62536 0.69412 0.0
C813 C 0.41614 0.58632 0.77082 0.0
C814 C 0.47942 0.51108 0.81799 0.0
H815 H 0.40365 0.63002 0.63629 0.0
H816 H 0.4536 0.36712 0.86444 0.0
Co817 Co 0.85589 0.48812 0.83184 0.0
N818 N 0.84068 0.4571 0.85521 0.0
C819 C 0.81355 0.46081 0.86655 0.0
N820 N 0.82744 0.41706 0.88157 0.0
C821 C 0.84877 0.42994 0.86483 0.0
C822 C 0.80549 0.43676 0.88225 0.0
Co823 Co 0.85807 0.56045 0.70667 0.0
N824 N 0.85382 0.59287 0.68111 0.0
N825 N 0.84477 0.63442 0.65533 0.0
C826 C 0.84287 0.6113 0.63724 0.0
C827 C 0.84819 0.58624 0.65294 0.0
C828 C 0.85128 0.62268 0.68209 0.0
Co829 Co 0.86622 0.52345 0.7696 0.0
C830 C 0.88144 0.52149 0.70467 0.0
H831 H 0.84713 0.56415 0.64448 0.0
O832 O 0.86802 0.51967 0.81314 0.0
O833 O 0.89906 0.55411 0.77004 0.0
O834 O 0.89617 0.48964 0.76952 0.0
O835 O 0.8337 0.49451 0.76472 0.0
O836 O 0.82072 0.48452 0.80985 0.0
O837 O 0.88816 0.57905 0.72863 0.0
O838 O 0.86351 0.52737 0.72625 0.0
O839 O 0.82851 0.57628 0.73109 0.0
O840 O 0.87645 0.46195 0.80621 0.0
O841 O 0.83975 0.51658 0.85324 0.0
O842 O 0.83491 0.5544 0.77434 0.0
O843 O 0.88576 0.54208 0.68535 0.0
C844 C 0.89551 0.46609 0.78578 0.0
C845 C 0.85574 0.64044 0.7093 0.0
H846 H 0.86041 0.62641 0.7285 0.0
H847 H 0.83591 0.65365 0.714 0.0
H848 H 0.87421 0.65588 0.70581 0.0
C849 C 0.90365 0.57526 0.75164 0.0
C850 C 0.81552 0.48391 0.78274 0.0
H851 H 0.79991 0.47992 0.86324 0.0
H852 H 0.88516 0.40183 0.87638 0.0
H853 H 0.87661 0.40369 0.83798 0.0
H854 H 0.89484 0.43406 0.85522 0.0
C855 C 0.87816 0.41666 0.85845 0.0
C856 C 0.85344 0.53265 0.83407 0.0
C857 C 0.82121 0.57229 0.75765 0.0
H858 H 0.78459 0.43387 0.89318 0.0
H859 H 0.83711 0.61241 0.61425 0.0
Co860 Co 0.73435 0.60585 0.96244 0.0
N861 N 0.70152 0.60257 0.93784 0.0
C862 C 0.70594 0.60448 0.90873 0.0
N863 N 0.65928 0.59261 0.91392 0.0
C864 C 0.67263 0.59512 0.94044 0.0
C865 C 0.68035 0.5985 0.89423 0.0
Co866 Co 0.80772 0.6001 0.08692 0.0
N867 N 0.83956 0.59296 0.11132 0.0
N868 N 0.88159 0.57728 0.13202 0.0
C869 C 0.85886 0.56799 0.14833 0.0
C870 C 0.83337 0.57789 0.13589 0.0
C871 C 0.86938 0.59235 0.10942 0.0
Co872 Co 0.77113 0.61117 0.02499 0.0
C873 C 0.7699 0.62471 0.09037 0.0
H874 H 0.81137 0.57276 0.14318 0.0
O875 O 0.76719 0.61122 0.98174 0.0
O876 O 0.80335 0.64271 0.02477 0.0
O877 O 0.73935 0.6428 0.02816 0.0
O878 O 0.74093 0.57922 0.02855 0.0
O879 O 0.7206 0.57388 0.9846 0.0
O880 O 0.82744 0.63056 0.06637 0.0
O881 O 0.77526 0.60767 0.06803 0.0
O882 O 0.82293 0.57177 0.06101 0.0
O883 O 0.71455 0.63261 0.98672 0.0
O884 O 0.75064 0.63619 0.94332 0.0
O885 O 0.801 0.57973 1.01841 0.0
O886 O 0.7905 0.62701 0.11005 0.0
C887 C 0.71757 0.64693 1.01044 0.0
C888 C 0.88634 0.60405 0.08386 0.0
H889 H 0.87505 0.59865 0.06305 0.0
H890 H 0.90899 0.59513 0.08326 0.0
H891 H 0.88753 0.62823 0.08575 0.0
C892 C 0.82449 0.64641 0.04348 0.0
C893 C 0.72376 0.56584 1.01104 0.0
H894 H 0.72697 0.6087 0.89857 0.0
H895 H 0.65676 0.56609 0.97349 0.0
H896 H 0.66878 0.60097 0.98733 0.0
H897 H 0.63431 0.59784 0.96781 0.0
C898 C 0.65733 0.58994 0.96903 0.0
C899 C 0.77186 0.63111 0.96175 0.0
C900 C 0.81934 0.5658 0.03414 0.0
H901 H 0.67786 0.59681 0.87089 0.0
H902 H 0.86064 0.55422 0.16756 0.0
Co903 Co 0.69444 0.49071 0.21038 0.0
N904 N 0.70002 0.45834 0.18543 0.0
C905 C 0.69979 0.46243 0.15616 0.0
N906 N 0.71074 0.41582 0.16252 0.0
C907 C 0.70681 0.42943 0.1887 0.0
C908 C 0.70612 0.43658 0.14217 0.0
Co909 Co 0.68992 0.56254 0.33473 0.0
N910 N 0.70353 0.59431 0.3582 0.0
N911 N 0.71393 0.63551 0.38381 0.0
C912 C 0.7352 0.61578 0.38872 0.0
C913 C 0.72893 0.59096 0.37317 0.0
C914 C 0.69476 0.62202 0.36531 0.0
Co915 Co 0.68252 0.52599 0.27312 0.0
C916 C 0.69121 0.51778 0.33902 0.0
H917 H 0.74255 0.57157 0.37257 0.0
O918 O 0.68726 0.52302 0.22992 0.0
O919 O 0.65184 0.55869 0.27168 0.0
O920 O 0.65038 0.49417 0.27195 0.0
O921 O 0.71435 0.49585 0.27912 0.0
O922 O 0.72458 0.4768 0.23533 0.0
O923 O 0.67157 0.58816 0.30666 0.0
O924 O 0.67847 0.53005 0.31651 0.0
O925 O 0.727 0.56495 0.31524 0.0
O926 O 0.665 0.47033 0.2313 0.0
O927 O 0.66611 0.50765 0.18872 0.0
O928 O 0.71463 0.55562 0.26978 0.0
O929 O 0.70414 0.53473 0.358 0.0
C930 C 0.64799 0.47285 0.25329 0.0
C931 C 0.66665 0.63549 0.35507 0.0
H932 H 0.64981 0.61834 0.35146 0.0
H933 H 0.67075 0.64705 0.33411 0.0
H934 H 0.65845 0.6517 0.37125 0.0
C935 C 0.65206 0.58275 0.287 0.0
C936 C 0.73033 0.47996 0.2624 0.0
H937 H 0.69592 0.48326 0.14556 0.0
H938 H 0.69893 0.39195 0.21598 0.0
H939 H 0.73242 0.41096 0.22331 0.0
H940 H 0.69811 0.42648 0.23534 0.0
C941 C 0.70898 0.41401 0.21761 0.0
C942 C 0.66945 0.52828 0.20815 0.0
C943 C 0.73295 0.56526 0.28824 0.0
H944 H 0.70814 0.43341 0.11875 0.0
H945 H 0.75437 0.61936 0.40228 0.0
Co946 Co 0.81378 0.43894 0.46205 0.0
N947 N 0.84629 0.44286 0.43719 0.0
C948 C 0.84098 0.44666 0.4084 0.0
N949 N 0.88839 0.45436 0.41383 0.0
C950 C 0.87567 0.44788 0.43995 0.0
C951 C 0.86656 0.45364 0.39412 0.0
Co952 Co 0.73893 0.44367 0.5868 0.0
N953 N 0.70574 0.44836 0.61104 0.0
N954 N 0.66232 0.45789 0.63301 0.0
C955 C 0.68315 0.45585 0.65372 0.0
C956 C 0.70954 0.45017 0.64029 0.0
C957 C 0.67642 0.45321 0.60721 0.0
Co958 Co 0.7765 0.43352 0.52474 0.0
C959 C 0.77764 0.41996 0.59019 0.0
H960 H 0.73052 0.44823 0.6512 0.0
O961 O 0.7809 0.43359 0.48144 0.0
O962 O 0.74438 0.40161 0.52427 0.0
O963 O 0.80871 0.40158 0.52747 0.0
O964 O 0.80676 0.46522 0.52869 0.0
O965 O 0.82921 0.46894 0.4857 0.0
O966 O 0.72041 0.41344 0.56585 0.0
O967 O 0.77216 0.4372 0.56799 0.0
O968 O 0.72375 0.47254 0.56096 0.0
O969 O 0.83275 0.41013 0.48498 0.0
O970 O 0.79629 0.41041 0.44143 0.0
O971 O 0.7465 0.46558 0.51842 0.0
O972 O 0.75669 0.41654 0.60935 0.0
C973 C 0.82977 0.39613 0.50897 0.0
C974 C 0.66102 0.4528 0.5782 0.0
H975 H 0.64134 0.43857 0.57969 0.0
H976 H 0.67536 0.44485 0.56034 0.0
H977 H 0.65322 0.47518 0.5729 0.0
C978 C 0.72338 0.39761 0.54311 0.0
C979 C 0.82568 0.47717 0.51199 0.0
H980 H 0.81941 0.44568 0.39855 0.0
H981 H 0.90969 0.42957 0.46646 0.0
H982 H 0.9034 0.4677 0.47228 0.0
H983 H 0.87794 0.44128 0.48707 0.0
C984 C 0.89229 0.44651 0.46826 0.0
C985 C 0.77548 0.41482 0.46053 0.0
C986 C 0.72785 0.47928 0.53423 0.0
H987 H 0.86881 0.459 0.37113 0.0
H988 H 0.6796 0.45917 0.67694 0.0
Co989 Co 0.60755 0.09109 0.80718 0.0
N990 N 0.59933 0.11412 0.83986 0.0
C991 C 0.58823 0.14085 0.83409 0.0
N992 N 0.58358 0.13499 0.88172 0.0
C993 C 0.59631 0.11105 0.86937 0.0
C994 C 0.5784 0.15352 0.85946 0.0
Co995 Co 0.61537 0.97706 0.72211 0.0
N996 N 0.60271 0.96223 0.68523 0.0
N997 N 0.58629 0.93655 0.64607 0.0
C998 C 0.58143 0.96516 0.64131 0.0
C999 C 0.59148 0.98064 0.66491 0.0
C1000 C 0.59945 0.93526 0.67286 0.0
Co1001 Co 0.62156 0.03159 0.76743 0.0
C1002 C 0.61392 0.96394 0.76508 0.0
H1003 H 0.58953 1.00409 0.66746 0.0
O1004 O 0.61631 0.07405 0.77434 0.0
O1005 O 0.65453 0.03657 0.73718 0.0
O1006 O 0.65221 0.03033 0.80084 0.0
O1007 O 0.58833 1.02211 0.79581 0.0
O1008 O 0.57951 0.06338 0.82026 0.0
O1009 O 0.63075 1.01112 0.70298 0.0
O1010 O 0.62628 0.98869 0.75787 0.0
O1011 O 0.57687 0.99347 0.72574 0.0
O1012 O 0.63827 0.0706 0.82635 0.0
O1013 O 0.63416 0.11583 0.79172 0.0
O1014 O 0.59067 0.03794 0.73678 0.0
O1015 O 0.60326 0.94741 0.74421 0.0
C1016 C 0.65502 0.04842 0.82274 0.0
C1017 C 0.60825 0.90745 0.68765 0.0
H1018 H 0.62394 0.91172 0.70572 0.0
H1019 H 0.61858 0.8927 0.67146 0.0
H1020 H 0.58842 0.89645 0.69647 0.0
C1021 C 0.65361 0.02481 0.71134 0.0
C1022 C 0.57352 0.03677 0.81473 0.0
H1023 H 0.58607 0.14996 0.81232 0.0
H1024 H 0.58848 0.08026 0.90425 0.0
H1025 H 0.60433 0.0644 0.87148 0.0
H1026 H 0.62637 0.08655 0.89545 0.0
C1027 C 0.60412 0.08383 0.88596 0.0
C1028 C 0.63254 0.09727 0.77014 0.0
C1029 C 0.57144 1.02049 0.72722 0.0
H1030 H 0.56753 0.17454 0.86139 0.0
H1031 H 0.57041 0.9742 0.62234 0.0
H1032 H 0.10801 0.48477 0.32759 0.0
H1033 H 0.07623 0.3241 0.365 0.0
H1034 H 0.15819 0.41167 0.29549 0.0
H1035 H 0.02999 0.39701 0.40311 0.0
H1036 H 0.11724 0.3558 0.35418 0.0
H1037 H 0.09217 0.45548 0.36901 0.0
C1038 C 0.11635 0.46288 0.32945 0.0
C1039 C 0.13243 0.45007 0.30659 0.0
C1040 C 0.09845 0.36484 0.3656 0.0
C1041 C 0.11461 0.4161 0.35428 0.0
C1042 C 0.07478 0.34646 0.37185 0.0
C1043 C 0.0488 0.35779 0.38381 0.0
C1044 C 0.0959 0.39505 0.37076 0.0
C1045 C 0.0491 0.38725 0.39292 0.0
C1046 C 0.1073 0.44599 0.35335 0.0
C1047 C 0.14434 0.42209 0.31173 0.0
N1048 N 0.07179 0.40506 0.38533 0.0
N1049 N 0.13424 0.4056 0.33435 0.0
H1050 H 0.97532 0.82805 0.59229 0.0
H1051 H 0.85908 0.80132 0.52894 0.0
H1052 H 0.92314 0.77655 0.65144 0.0
H1053 H 0.8417 0.88995 0.55645 0.0
H1054 H 0.88589 0.79295 0.57438 0.0
H1055 H 0.93377 0.85997 0.58408 0.0
C1056 C 0.9558 0.82426 0.6049 0.0
C1057 C 0.95226 0.79866 0.62133 0.0
C1058 C 0.87532 0.81395 0.57091 0.0
C1059 C 0.90425 0.83425 0.61088 0.0
C1060 C 0.86014 0.8187 0.54506 0.0
C1061 C 0.84781 0.84609 0.53941 0.0
C1062 C 0.87994 0.83735 0.59023 0.0
C1063 C 0.85062 0.86834 0.56049 0.0
C1064 C 0.93186 0.84273 0.6003 0.0
C1065 C 0.92633 0.7956 0.63766 0.0
N1066 N 0.86756 0.86389 0.58466 0.0
N1067 N 0.90254 0.8121 0.63069 0.0
H1068 H 0.50034 0.65865 0.91192 0.0
H1069 H 0.43849 0.5645 0.82293 0.0
H1070 H 0.4675 0.72088 0.84914 0.0
H1071 H 0.38439 0.63396 0.78893 0.0
H1072 H 0.45043 0.59444 0.86469 0.0
H1073 H 0.4589 0.62674 0.90096 0.0
C1074 C 0.48385 0.66621 0.89656 0.0
C1075 C 0.48843 0.69191 0.8802 0.0
C1076 C 0.435 0.603 0.84886 0.0
C1077 C 0.44166 0.65485 0.86654 0.0
C1078 C 0.42827 0.58563 0.82459 0.0
C1079 C 0.41187 0.59715 0.80131 0.0
C1080 C 0.42529 0.63227 0.84973 0.0
C1081 C 0.39826 0.62448 0.80569 0.0
C1082 C 0.46042 0.64762 0.88988 0.0
C1083 C 0.46578 0.70092 0.86145 0.0
N1084 N 0.40619 0.64155 0.82875 0.0
N1085 N 0.44393 0.68198 0.85435 0.0
H1086 H 0.73034 0.19349 0.08096 0.0
H1087 H 0.56918 0.21564 0.10236 0.0
H1088 H 0.66699 0.13367 0.04481 0.0
H1089 H 0.63262 0.25102 0.16246 0.0
H1090 H 0.60244 0.17535 0.09181 0.0
H1091 H 0.69678 0.20404 0.12092 0.0
C1092 C 0.70991 0.18168 0.08186 0.0
C1093 C 0.70096 0.16396 0.05844 0.0
C1094 C 0.60882 0.19136 0.10809 0.0
C1095 C 0.66177 0.17647 0.10397 0.0
C1096 C 0.58956 0.21447 0.11422 0.0
C1097 C 0.59878 0.23784 0.13184 0.0
C1098 C 0.63752 0.19194 0.11953 0.0
C1099 C 0.62512 0.23418 0.14757 0.0
C1100 C 0.69048 0.18784 0.1048 0.0
C1101 C 0.67439 0.14855 0.06171 0.0
N1102 N 0.64416 0.21248 0.14008 0.0
N1103 N 0.65519 0.15609 0.08325 0.0
H1104 H 0.04306 0.65153 0.12826 0.0
H1105 H 0.11061 0.56356 0.21726 0.0
H1106 H 0.08106 0.71901 0.18187 0.0
H1107 H 0.16044 0.63675 0.2494 0.0
H1108 H 0.09971 0.59021 0.17335 0.0
H1109 H 0.08514 0.62045 0.13868 0.0
C1110 C 0.06056 0.66022 0.14173 0.0
C1111 C 0.05734 0.68735 0.15598 0.0
C1112 C 0.11386 0.60046 0.18932 0.0
C1113 C 0.10504 0.65121 0.16925 0.0
C1114 C 0.12009 0.58488 0.21488 0.0
C1115 C 0.13476 0.59841 0.2382 0.0
C1116 C 0.12217 0.63006 0.18725 0.0
C1117 C 0.14772 0.62579 0.23266 0.0
C1118 C 0.08451 0.64214 0.14812 0.0
C1119 C 0.08146 0.69778 0.17187 0.0
N1120 N 0.14015 0.64117 0.20831 0.0
N1121 N 0.10379 0.67936 0.17895 0.0
H1122 H 0.70194 0.80479 0.48672 0.0
H1123 H 0.5765 0.83464 0.46272 0.0
H1124 H 0.69769 0.89886 0.48768 0.0
H1125 H 0.61445 0.79085 0.38853 0.0
H1126 H 0.61579 0.87043 0.46114 0.0
H1127 H 0.6742 0.80424 0.4415 0.0
C1128 C 0.69646 0.8254 0.4764 0.0
C1129 C 0.70247 0.8518 0.49039 0.0
C1130 C 0.61473 0.85404 0.44401 0.0
C1131 C 0.66771 0.85143 0.4406 0.0
C1132 C 0.59228 0.83337 0.44521 0.0
C1133 C 0.5934 0.80892 0.42692 0.0
C1134 C 0.63916 0.84843 0.42602 0.0
C1135 C 0.61377 0.80891 0.4039 0.0
C1136 C 0.68045 0.82523 0.45061 0.0
C1137 C 0.69344 0.87805 0.47717 0.0
N1138 N 0.63689 0.8276 0.40483 0.0
N1139 N 0.67507 0.87719 0.45369 0.0
H1140 H 0.43963 0.47815 0.71594 0.0
H1141 H 0.50499 0.38305 0.6318 0.0
H1142 H 0.38664 0.40878 0.75137 0.0
H1143 H 0.46777 0.32012 0.69101 0.0
H1144 H 0.4632 0.41516 0.64044 0.0
H1145 H 0.4515 0.4479 0.67447 0.0
C1146 C 0.42966 0.45695 0.71468 0.0
C1147 C 0.41375 0.44557 0.73834 0.0
C1148 C 0.46389 0.39424 0.65151 0.0
C1149 C 0.42716 0.40988 0.69026 0.0
C1150 C 0.48757 0.37549 0.64608 0.0
C1151 C 0.49105 0.3497 0.66259 0.0
C1152 C 0.44382 0.38709 0.6738 0.0
C1153 C 0.46708 0.34057 0.67945 0.0
C1154 C 0.4364 0.43931 0.69058 0.0
C1155 C 0.40024 0.41815 0.73432 0.0
N1156 N 0.44502 0.3597 0.68561 0.0
N1157 N 0.40822 0.40079 0.71146 0.0
H1158 H 0.82016 0.19006 0.97332 0.0
H1159 H 0.91546 0.25004 0.88241 0.0
H1160 H 0.89 0.13719 1.00857 0.0
H1161 H 0.97714 0.22087 0.94761 0.0
H1162 H 0.8835 0.20918 0.89507 0.0
H1163 H 0.85064 0.20183 0.93163 0.0
C1164 C 0.84149 0.18006 0.97193 0.0
C1165 C 0.85298 0.16416 0.99556 0.0
C1166 C 0.90425 0.21142 0.90637 0.0
C1167 C 0.88866 0.17741 0.94738 0.0
C1168 C 0.92286 0.23455 0.89879 0.0
C1169 C 0.9484 0.24009 0.91524 0.0
C1170 C 0.91132 0.19377 0.93056 0.0
C1171 C 0.9572 0.21854 0.93529 0.0
C1172 C 0.85916 0.18672 0.94777 0.0
C1173 C 0.88054 0.15072 0.99153 0.0
N1174 N 0.93828 0.19689 0.94308 0.0
N1175 N 0.8979 0.15864 0.96863 0.0
H1176 H 0.40062 0.04626 0.35534 0.0
H1177 H 0.26812 0.14425 0.40851 0.0
H1178 H 0.30984 0.03708 0.33081 0.0
H1179 H 0.31941 0.09319 0.46906 0.0
H1180 H 0.30352 0.13268 0.37011 0.0
H1181 H 0.38719 0.08865 0.38617 0.0
C1182 C 0.3782 0.05423 0.35522 0.0
C1183 C 0.35626 0.0389 0.34016 0.0
C1184 C 0.30771 0.12527 0.39221 0.0
C1185 C 0.34119 0.0869 0.37435 0.0
C1186 C 0.2876 0.13181 0.41419 0.0
C1187 C 0.29022 0.11871 0.44187 0.0
C1188 C 0.33044 0.10554 0.3981 0.0
C1189 C 0.31591 0.10306 0.44808 0.0
C1190 C 0.37065 0.0782 0.37274 0.0
C1191 C 0.32737 0.04895 0.34154 0.0
N1192 N 0.33471 0.09609 0.42604 0.0
N1193 N 0.32061 0.07234 0.35845 0.0
H1194 H 0.15862 0.04288 0.67327 0.0
H1195 H 0.2653 0.16892 0.63716 0.0
H1196 H 0.22164 0.08235 0.73097 0.0
H1197 H 0.22047 0.11375 0.57537 0.0
H1198 H 0.22775 0.15763 0.67344 0.0
H1199 H 0.16016 0.08665 0.64248 0.0
C1200 C 0.17191 0.06129 0.68018 0.0
C1201 C 0.19071 0.05868 0.70436 0.0
C1202 C 0.22544 0.14894 0.65149 0.0
C1203 C 0.19309 0.10845 0.66899 0.0
C1204 C 0.24682 0.15555 0.63058 0.0
C1205 C 0.24733 0.14038 0.60377 0.0
C1206 C 0.20451 0.12733 0.64518 0.0
C1207 C 0.22216 0.12449 0.59618 0.0
C1208 C 0.17281 0.08625 0.66256 0.0
C1209 C 0.20743 0.08303 0.71233 0.0
N1210 N 0.20231 0.11735 0.61717 0.0
N1211 N 0.2088 0.10667 0.69432 0.0
H1212 H 0.13462 0.99898 0.88912 0.0
H1213 H 0.25995 0.88642 0.90259 0.0
H1214 H 0.18785 0.96536 0.81878 0.0
H1215 H 0.21893 0.93459 0.97249 0.0
H1216 H 0.21622 0.89411 0.87284 0.0
H1217 H 0.14599 0.95532 0.91759 0.0
C1218 C 0.14779 0.98198 0.87902 0.0
C1219 C 0.16204 0.98697 0.85215 0.0
C1220 C 0.21636 0.90207 0.89518 0.0
C1221 C 0.17531 0.93707 0.88481 0.0
C1222 C 0.24139 0.89766 0.91233 0.0
C1223 C 0.24403 0.91146 0.93976 0.0
C1224 C 0.19388 0.92035 0.90564 0.0
C1225 C 0.21881 0.92476 0.95128 0.0
C1226 C 0.15436 0.957 0.89544 0.0
C1227 C 0.17776 0.96353 0.83992 0.0
N1228 N 0.19514 0.9297 0.93391 0.0
N1229 N 0.18491 0.94005 0.85672 0.0
H1230 H 0.40397 1.01566 0.14341 0.0
H1231 H 0.27476 0.92002 0.141 0.0
H1232 H 0.37227 0.96831 0.21848 0.0
H1233 H 0.32304 0.93535 0.06137 0.0
H1234 H 0.31984 0.92365 0.1684 0.0
H1235 H 0.38802 0.97553 0.11231 0.0
C1236 C 0.39496 0.99631 0.15378 0.0
C1237 C 0.38749 0.99647 0.18374 0.0
C1238 C 0.32087 0.92626 0.14486 0.0
C1239 C 0.36949 0.95035 0.1482 0.0
C1240 C 0.2949 0.92445 0.12915 0.0
C1241 C 0.29457 0.9302 0.09899 0.0
C1242 C 0.34657 0.9355 0.13063 0.0
C1243 C 0.32164 0.93368 0.08475 0.0
C1244 C 0.38584 0.97326 0.13583 0.0
C1245 C 0.37717 0.97022 0.19571 0.0
N1246 N 0.34649 0.93776 0.10083 0.0
N1247 N 0.36762 0.94857 0.17787 0.0
H1248 H 0.319 0.36344 0.07986 0.0
H1249 H 0.41481 0.29461 0.16444 0.0
H1250 H 0.39152 0.40748 0.03875 0.0
H1251 H 0.47754 0.32491 0.10079 0.0
H1252 H 0.38364 0.33639 0.15304 0.0
H1253 H 0.35029 0.35083 0.12075 0.0
C1254 C 0.34127 0.37115 0.07966 0.0
C1255 C 0.35305 0.38445 0.05463 0.0
C1256 C 0.40435 0.3342 0.14167 0.0
C1257 C 0.38971 0.37022 0.10176 0.0
C1258 C 0.42255 0.31048 0.14858 0.0
C1259 C 0.44827 0.30513 0.1323 0.0
C1260 C 0.4119 0.35259 0.11814 0.0
C1261 C 0.45748 0.32713 0.11296 0.0
C1262 C 0.35946 0.36396 0.10333 0.0
C1263 C 0.38174 0.39568 0.05685 0.0
N1264 N 0.43892 0.34933 0.10572 0.0
N1265 N 0.39944 0.38723 0.07928 0.0
H1266 H 1.01384 0.86982 0.14682 0.0
H1267 H 0.90404 0.95306 0.24534 0.0
H1268 H 0.96829 0.8157 0.20886 0.0
H1269 H 0.99385 0.93452 0.26903 0.0
H1270 H 0.90928 0.9205 0.20257 0.0
H1271 H 0.98133 0.91034 0.15928 0.0
C1272 C 0.99554 0.86566 0.16142 0.0
C1273 C 0.99479 0.83994 0.17826 0.0
C1274 C 0.92795 0.92458 0.21666 0.0
C1275 C 0.95755 0.88566 0.192 0.0
C1276 C 0.92514 0.94308 0.24087 0.0
C1277 C 0.94867 0.94634 0.26053 0.0
C1278 C 0.9546 0.9101 0.21218 0.0
C1279 C 0.97525 0.93241 0.25442 0.0
C1280 C 0.97705 0.88892 0.16856 0.0
C1281 C 0.97063 0.83557 0.19656 0.0
N1282 N 0.97741 0.91463 0.23084 0.0
N1283 N 0.95347 0.8587 0.20391 0.0
H1284 H 0.11913 0.75454 0.55257 0.0
H1285 H 0.2276 0.68149 0.57773 0.0
H1286 H 0.09524 0.72975 0.64056 0.0
H1287 H 0.16782 0.62506 0.53171 0.0
H1288 H 0.18898 0.69345 0.61209 0.0
H1289 H 0.14366 0.70742 0.54654 0.0
C1290 C 0.1183 0.73878 0.57029 0.0
C1291 C 0.1046 0.74563 0.59678 0.0
C1292 C 0.18466 0.67705 0.59549 0.0
C1293 C 0.13404 0.69267 0.59068 0.0
C1294 C 0.20696 0.67007 0.57569 0.0
C1295 C 0.19993 0.65468 0.55005 0.0
C1296 C 0.15573 0.66906 0.58865 0.0
C1297 C 0.17328 0.6392 0.54994 0.0
C1298 C 0.13224 0.712 0.56688 0.0
C1299 C 0.10505 0.72481 0.61954 0.0
N1300 N 0.15118 0.64844 0.56765 0.0
N1301 N 0.1205 0.69944 0.61636 0.0
H1302 H 0.65145 0.91931 0.77295 0.0
H1303 H 0.54642 0.87131 0.89744 0.0
H1304 H 0.59094 0.97418 0.82011 0.0
H1305 H 0.58423 0.81686 0.8307 0.0
H1306 H 0.58494 0.90742 0.88883 0.0
H1307 H 0.64911 0.88348 0.81262 0.0
C1308 C 0.63856 0.92437 0.79227 0.0
C1309 C 0.62072 0.9494 0.793 0.0
C1310 C 0.58571 0.88683 0.87708 0.0
C1311 C 0.61737 0.90832 0.83795 0.0
C1312 C 0.5639 0.86599 0.88221 0.0
C1313 C 0.56152 0.84139 0.86394 0.0
C1314 C 0.60512 0.88273 0.85358 0.0
C1315 C 0.58462 0.83566 0.84464 0.0
C1316 C 0.63724 0.90392 0.81488 0.0
C1317 C 0.60454 0.95505 0.8184 0.0
N1318 N 0.60504 0.85658 0.83929 0.0
N1319 N 0.60261 0.93426 0.83962 0.0
H1320 H 0.89938 0.10694 0.30214 0.0
H1321 H 0.03964 0.154 0.39082 0.0
H1322 H 0.99013 0.09046 0.2813 0.0
H1323 H 0.98043 0.22039 0.35931 0.0
H1324 H 1.00355 0.11693 0.37828 0.0
H1325 H 0.91526 0.13516 0.34571 0.0
C1326 C 0.92251 0.10838 0.30745 0.0
C1327 C 0.94369 0.09636 0.28866 0.0
C1328 C 0.99807 0.13977 0.37509 0.0
C1329 C 0.96149 0.12701 0.338 0.0
C1330 C 1.01866 0.16102 0.38204 0.0
C1331 C 1.01413 0.19025 0.37356 0.0
C1332 C 0.97303 0.14788 0.35939 0.0
C1333 C 0.9861 0.19809 0.36365 0.0
C1334 C 0.93142 0.12432 0.33209 0.0
C1335 C 0.97332 0.09922 0.29563 0.0
N1336 N 0.96687 0.17681 0.35557 0.0
N1337 N 0.98138 0.11419 0.31983 0.0
H1338 H 0.57571 0.23466 0.68921 0.0
H1339 H 0.66577 0.14512 0.75568 0.0
H1340 H 0.5433 0.16164 0.63925 0.0
H1341 H 0.61433 0.07744 0.71539 0.0
H1342 H 0.65403 0.17739 0.71504 0.0
H1343 H 0.61932 0.20746 0.70068 0.0
C1344 C 0.57802 0.21325 0.67982 0.0
C1345 C 0.55479 0.20012 0.66458 0.0
C1346 C 0.64522 0.15543 0.71487 0.0
C1347 C 0.6054 0.16779 0.67794 0.0
C1348 C 0.65245 0.13663 0.73796 0.0
C1349 C 0.63894 0.10904 0.74036 0.0
C1350 C 0.62408 0.14654 0.69428 0.0
C1351 C 0.62338 0.099 0.7159 0.0
C1352 C 0.60337 0.19735 0.68642 0.0
C1353 C 0.56003 0.17243 0.65213 0.0
N1354 N 0.61539 0.11803 0.69445 0.0
N1355 N 0.58424 0.15681 0.65995 0.0
H1356 H 0.22887 0.35823 0.97419 0.0
H1357 H 0.06763 0.33028 0.94566 0.0
H1358 H 0.16074 0.41313 1.01001 0.0
H1359 H 0.13573 0.29545 0.89031 0.0
H1360 H 0.0995 0.37077 0.95862 0.0
H1361 H 0.19662 0.34551 0.93384 0.0
C1362 C 0.20753 0.36834 0.97327 0.0
C1363 C 0.19716 0.38553 0.99656 0.0
C1364 C 0.10728 0.3548 0.9429 0.0
C1365 C 0.15956 0.37067 0.95037 0.0
C1366 C 0.08881 0.33154 0.93535 0.0
C1367 C 0.09952 0.30828 0.91837 0.0
C1368 C 0.13671 0.35454 0.93349 0.0
C1369 C 0.12693 0.31219 0.90465 0.0
C1370 C 0.18892 0.36103 0.95005 0.0
C1371 C 0.16943 0.3988 0.99322 0.0
N1372 N 0.14509 0.33407 0.91348 0.0
N1373 N 0.1512 0.39025 0.97126 0.0
H1374 H 0.4104 0.75759 0.37802 0.0
H1375 H 0.38543 0.65304 0.50593 0.0
H1376 H 0.47582 0.7202 0.43496 0.0
H1377 H 0.31839 0.70071 0.45965 0.0
H1378 H 0.41636 0.65499 0.46247 0.0
H1379 H 0.37834 0.71627 0.38861 0.0
C1380 C 0.41873 0.74005 0.39169 0.0
C1381 C 0.44517 0.74344 0.40725 0.0
C1382 C 0.39451 0.66432 0.46143 0.0
C1383 C 0.40852 0.69625 0.41947 0.0
C1384 C 0.37676 0.66311 0.48625 0.0
C1385 C 0.35001 0.67834 0.48702 0.0
C1386 C 0.38577 0.68176 0.43766 0.0
C1387 C 0.33955 0.69034 0.46081 0.0
C1388 C 0.40024 0.71646 0.39782 0.0
C1389 C 0.45516 0.71946 0.4236 0.0
N1390 N 0.35792 0.69279 0.43743 0.0
N1391 N 0.43641 0.69735 0.43017 0.0
H1392 H 0.81932 0.58023 0.82354 0.0
H1393 H 0.82422 0.60404 0.97617 0.0
H1394 H 0.89751 0.55247 0.86801 0.0
H1395 H 0.78867 0.67231 0.92163 0.0
H1396 H 0.86101 0.59398 0.93913 0.0
H1397 H 0.8159 0.62228 0.85563 0.0
C1398 C 0.83688 0.58406 0.83875 0.0
C1399 C 0.85898 0.5632 0.84254 0.0
C1400 C 0.846 0.61206 0.93568 0.0
C1401 C 0.85382 0.60984 0.88175 0.0
C1402 C 0.82487 0.61794 0.95712 0.0
C1403 C 0.80198 0.63766 0.95118 0.0
C1404 C 0.84371 0.62578 0.90821 0.0
C1405 C 0.805 0.65573 0.92642 0.0
C1406 C 0.83476 0.60795 0.85763 0.0
C1407 C 0.88028 0.56837 0.86415 0.0
N1408 N 0.82444 0.64838 0.90506 0.0
N1409 N 0.87655 0.59052 0.88376 0.0
H1410 H 0.71715 0.60375 0.06902 0.0
H1411 H 0.63014 0.54645 0.16658 0.0
H1412 H 0.75277 0.66063 0.13513 0.0
H1413 H 0.69602 0.57966 0.22542 0.0
H1414 H 0.63961 0.58748 0.1337 0.0
H1415 H 0.67531 0.59427 0.09992 0.0
C1416 C 0.71569 0.61531 0.08948 0.0
C1417 C 0.73948 0.63163 0.10002 0.0
C1418 C 0.65164 0.58616 0.15408 0.0
C1419 C 0.69127 0.62072 0.13635 0.0
C1420 C 0.64587 0.56295 0.17321 0.0
C1421 C 0.66346 0.55865 0.19816 0.0
C1422 C 0.67533 0.60493 0.15998 0.0
C1423 C 0.68267 0.58128 0.20603 0.0
C1424 C 0.69146 0.60987 0.10747 0.0
C1425 C 0.73552 0.64678 0.12656 0.0
N1426 N 0.68884 0.6029 0.18652 0.0
N1427 N 0.7126 0.63997 0.14437 0.0
H1428 H 0.70459 0.46138 0.31921 0.0
H1429 H 0.72254 0.4369 0.48115 0.0
H1430 H 0.6569 0.50823 0.38575 0.0
H1431 H 0.75807 0.3788 0.41591 0.0
H1432 H 0.6828 0.44924 0.44822 0.0
H1433 H 0.70878 0.41967 0.35216 0.0
C1434 C 0.69429 0.46271 0.34036 0.0
C1435 C 0.68192 0.48893 0.35036 0.0
C1436 C 0.69877 0.4331 0.44124 0.0
C1437 C 0.68653 0.4413 0.38841 0.0
C1438 C 0.72161 0.42591 0.46035 0.0
C1439 C 0.74506 0.40861 0.45053 0.0
C1440 C 0.6999 0.42324 0.41205 0.0
C1441 C 0.74135 0.39372 0.4238 0.0
C1442 C 0.6965 0.43869 0.3593 0.0
C1443 C 0.66755 0.48864 0.37757 0.0
N1444 N 0.72009 0.40245 0.40483 0.0
N1445 N 0.67105 0.46563 0.39604 0.0
H1446 H 0.83054 0.43976 0.56753 0.0
H1447 H 0.91863 0.50265 0.6614 0.0
H1448 H 0.79506 0.38767 0.63762 0.0
H1449 H 0.85619 0.46991 0.72412 0.0
H1450 H 0.90799 0.461 0.62986 0.0
H1451 H 0.87255 0.45115 0.59736 0.0
C1452 C 0.83193 0.4298 0.58877 0.0
C1453 C 0.80815 0.41429 0.60052 0.0
C1454 C 0.8968 0.46265 0.6507 0.0
C1455 C 0.8568 0.4272 0.63561 0.0
C1456 C 0.90328 0.48625 0.66908 0.0
C1457 C 0.88685 0.49093 0.69478 0.0
C1458 C 0.87356 0.44382 0.65808 0.0
C1459 C 0.86829 0.46826 0.70398 0.0
C1460 C 0.85633 0.43627 0.60613 0.0
C1461 C 0.81223 0.40093 0.62799 0.0
N1462 N 0.86135 0.44624 0.68522 0.0
N1463 N 0.8354 0.40866 0.64507 0.0
H1464 H 0.23188 0.20719 0.50482 0.0
H1465 H 0.06804 0.25341 0.45653 0.0
H1466 H 0.1542 0.15903 0.52845 0.0
H1467 H 0.14623 0.28323 0.41281 0.0
H1468 H 0.09892 0.22888 0.49334 0.0
H1469 H 0.20061 0.24469 0.48177 0.0
C1470 C 0.20824 0.20511 0.50634 0.0
C1471 C 0.19575 0.18 0.51906 0.0
C1472 C 0.10934 0.24154 0.47619 0.0
C1473 C 0.15963 0.22267 0.49194 0.0
C1474 C 0.09164 0.25604 0.45543 0.0
C1475 C 0.10444 0.27096 0.4317 0.0
C1476 C 0.14018 0.24203 0.47347 0.0
C1477 C 0.13534 0.27246 0.43093 0.0
C1478 C 0.19036 0.22633 0.49272 0.0
C1479 C 0.16486 0.17814 0.5193 0.0
N1480 N 0.15204 0.25806 0.4512 0.0
N1481 N 0.14799 0.19891 0.50584 0.0
H1482 H 0.09193 0.97683 0.75263 0.0
H1483 H 0.05893 0.80842 0.71392 0.0
H1484 H 0.15129 0.90581 0.77083 0.0
H1485 H 1.02181 0.88102 0.66669 0.0
H1486 H 0.08085 0.84293 0.74881 0.0
H1487 H 0.05535 0.94124 0.73526 0.0
C1488 C 0.0967 0.95366 0.75451 0.0
C1489 C 0.12457 0.94436 0.76399 0.0
C1490 C 0.06694 0.8513 0.73149 0.0
C1491 C 0.08294 0.90331 0.7432 0.0
C1492 C 0.05374 0.83149 0.71191 0.0
C1493 C 0.03781 0.84161 0.68752 0.0
C1494 C 0.06399 0.88165 0.72702 0.0
C1495 C 0.03321 0.87206 0.68547 0.0
C1496 C 0.07597 0.93334 0.74404 0.0
C1497 C 0.1299 0.91399 0.76448 0.0
N1498 N 0.0465 0.89091 0.70457 0.0
N1499 N 0.1095 0.89469 0.75409 0.0
H1500 H 0.47869 0.79378 0.951 0.0
H1501 H 0.38333 0.89338 1.01374 0.0
H1502 H 0.40526 0.77421 0.8952 0.0
H1503 H 0.31253 0.84041 0.98129 0.0
H1504 H 0.41847 0.85737 0.99534 0.0
H1505 H 0.44499 0.81582 0.9866 0.0
C1506 C 0.45531 0.793 0.94676 0.0
C1507 C 0.44489 0.78194 0.92 0.0
C1508 C 0.3953 0.85268 0.9933 0.0
C1509 C 0.40592 0.80899 0.96007 0.0
C1510 C 0.37511 0.8733 1.00419 0.0
C1511 C 0.34477 0.86951 1.00015 0.0
C1512 C 0.38527 0.82819 0.97741 0.0
C1513 C 0.33559 0.84376 0.98594 0.0
C1514 C 0.43603 0.80639 0.9668 0.0
C1515 C 0.41431 0.78232 0.91555 0.0
N1516 N 0.35565 0.82451 0.97461 0.0
N1517 N 0.39605 0.79595 0.93505 0.0
H1518 H 0.49016 0.23107 0.20427 0.0
H1519 H 0.45739 0.06131 0.23558 0.0
H1520 H 0.52124 0.16106 0.1494 0.0
H1521 H 0.40147 0.13195 0.26357 0.0
H1522 H 0.49294 0.09732 0.21703 0.0
H1523 H 0.47058 0.19478 0.23879 0.0
C1524 C 0.49443 0.20806 0.20033 0.0
C1525 C 0.50814 0.19919 0.17421 0.0
C1526 C 0.47339 0.10496 0.22818 0.0
C1527 C 0.48464 0.15729 0.2132 0.0
C1528 C 0.45332 0.08439 0.2393 0.0
C1529 C 0.42667 0.09357 0.25186 0.0
C1530 C 0.46696 0.13505 0.2298 0.0
C1531 C 0.42202 0.12387 0.25475 0.0
C1532 C 0.48266 0.18731 0.21977 0.0
C1533 C 0.51162 0.16893 0.16961 0.0
N1534 N 0.44174 0.14344 0.24365 0.0
N1535 N 0.49972 0.14913 0.18866 0.0
H1536 H 0.07289 0.78935 0.091 0.0
H1537 H 0.23529 0.84663 0.04955 0.0
H1538 H 0.14801 0.77785 0.14696 0.0
H1539 H 0.15598 0.88417 1.01472 0.0
H1540 H 0.20553 0.81024 0.0761 0.0
H1541 H 0.10482 0.8124 0.05412 0.0
C1542 C 0.0963 0.79034 0.09501 0.0
C1543 C 0.10771 0.78097 0.12207 0.0
C1544 C 0.19466 0.82588 0.06194 0.0
C1545 C 0.14458 0.80827 0.07996 0.0
C1546 C 0.21174 0.84638 0.0463 0.0
C1547 C 0.1983 0.86818 0.02912 0.0
C1548 C 0.16376 0.82684 0.0603 0.0
C1549 C 0.16742 0.86744 0.02705 0.0
C1550 C 0.1145 0.80406 0.0741 0.0
C1551 C 0.13823 0.78413 0.12628 0.0
N1552 N 0.15133 0.84735 0.04241 0.0
N1553 N 0.15543 0.79755 0.1057 0.0
H1554 H 0.49413 0.81235 0.33657 0.0
H1555 H 0.45459 0.97909 0.2962 0.0
H1556 H 0.5105 0.88564 0.3934 0.0
H1557 H 0.41704 0.90422 0.25314 0.0
H1558 H 0.4879 0.94629 0.32301 0.0
H1559 H 0.47882 0.84654 0.29782 0.0
C1560 C 0.49582 0.83569 0.34046 0.0
C1561 C 0.50412 0.84609 0.3682 0.0
C1562 C 0.47309 0.93708 0.30693 0.0
C1563 C 0.48565 0.88555 0.32412 0.0
C1564 C 0.45446 0.95593 0.2911 0.0
C1565 C 0.4333 0.94456 0.27181 0.0
C1566 C 0.47074 0.90652 0.30344 0.0
C1567 C 0.43337 0.91406 0.26725 0.0
C1568 C 0.48658 0.85523 0.31847 0.0
C1569 C 0.50463 0.87663 0.37229 0.0
N1570 N 0.45142 0.89619 0.28312 0.0
N1571 N 0.49533 0.89517 0.35071 0.0
H1572 H 0.41394 0.27771 0.64399 0.0
H1573 H 0.38472 0.15383 0.5271 0.0
H1574 H 0.48298 0.24075 0.59143 0.0
H1575 H 0.31524 0.20818 0.56055 0.0
H1576 H 0.42083 0.18893 0.54585 0.0
H1577 H 0.37759 0.25744 0.60993 0.0
C1578 C 0.42157 0.2668 0.62433 0.0
C1579 C 0.4518 0.26196 0.62017 0.0
C1580 C 0.3977 0.19383 0.54827 0.0
C1581 C 0.40991 0.23661 0.58182 0.0
C1582 C 0.37698 0.17394 0.53707 0.0
C1583 C 0.34671 0.17844 0.54122 0.0
C1584 C 0.38831 0.21821 0.56471 0.0
C1585 C 0.33822 0.20424 0.55585 0.0
C1586 C 0.4007 0.25462 0.60512 0.0
C1587 C 0.46008 0.24603 0.59506 0.0
N1588 N 0.35877 0.22275 0.56746 0.0
N1589 N 0.43941 0.23351 0.57733 0.0
H1590 H 0.14895 0.13125 0.78258 0.0
H1591 H 0.02819 0.16344 0.90234 0.0
H1592 H 0.09322 0.06343 0.81674 0.0
H1593 H 0.06416 0.23137 0.84795 0.0
H1594 H 0.0476 0.1266 0.86822 0.0
H1595 H 0.11501 0.16817 0.80212 0.0
C1596 C 0.12873 0.12408 0.79282 0.0
C1597 C 0.12348 0.09404 0.79696 0.0
C1598 C 0.05041 0.14957 0.86309 0.0
C1599 C 0.08521 0.13647 0.82143 0.0
C1600 C 0.03883 0.17067 0.88239 0.0
C1601 C 0.04352 0.2007 0.87754 0.0
C1602 C 0.06773 0.15837 0.83907 0.0
C1603 C 0.05906 0.20859 0.85208 0.0
C1604 C 0.10954 0.14524 0.80451 0.0
C1605 C 0.09767 0.08623 0.81203 0.0
N1606 N 0.07098 0.18769 0.8342 0.0
N1607 N 0.0799 0.10717 0.82412 0.0
H1608 H 0.15249 0.52237 0.1622 0.0
H1609 H 0.28108 0.40884 0.13305 0.0
H1610 H 0.20493 0.48575 0.23139 0.0
H1611 H 0.24186 0.45978 0.06423 0.0
H1612 H 0.25905 0.44181 0.1693 0.0
H1613 H 0.18894 0.50523 0.12634 0.0
C1614 C 0.17242 0.51202 0.17 0.0
C1615 C 0.17602 0.50648 0.20009 0.0
C1616 C 0.25607 0.44656 0.14626 0.0
C1617 C 0.2174 0.48501 0.15875 0.0
C1618 C 0.26934 0.42803 0.12542 0.0
C1619 C 0.26428 0.43188 0.09526 0.0
C1620 C 0.23686 0.46897 0.13712 0.0
C1621 C 0.2473 0.45638 0.08706 0.0
C1622 C 0.19309 0.50175 0.14942 0.0
C1623 C 0.20165 0.49145 0.2086 0.0
N1624 N 0.23376 0.47345 0.1077 0.0
N1625 N 0.22096 0.48093 0.18818 0.0
H1626 H 0.65588 0.03167 0.88026 0.0
H1627 H 0.77628 0.15122 0.91564 0.0
H1628 H 0.71011 0.06957 0.81317 0.0
H1629 H 0.74042 0.09492 0.98206 0.0
H1630 H 0.75681 0.1183 0.87786 0.0
H1631 H 0.68987 0.05032 0.91755 0.0
C1632 C 0.67578 0.0426 0.87325 0.0
C1633 C 0.68059 0.04797 0.84328 0.0
C1634 C 0.75403 0.11247 0.90068 0.0
C1635 C 0.71898 0.07139 0.88632 0.0
C1636 C 0.76571 0.13107 0.92235 0.0
C1637 C 0.76108 0.12541 0.9523 0.0
C1638 C 0.73663 0.08829 0.90877 0.0
C1639 C 0.74557 0.0997 0.9594 0.0
C1640 C 0.69501 0.05376 0.89466 0.0
C1641 C 0.706 0.06387 0.83582 0.0
N1642 N 0.73352 0.08253 0.93798 0.0
N1643 N 0.72382 0.07537 0.85705 0.0
H1644 H 0.75925 0.91534 0.40841 0.0
H1645 H 0.87875 0.0386 0.38726 0.0
H1646 H 0.79509 0.96444 0.48025 0.0
H1647 H 0.83136 1.0007 0.31528 0.0
H1648 H 0.84196 1.01912 0.42118 0.0
H1649 H 0.7778 0.95238 0.37432 0.0
C1650 C 0.7695 0.93482 0.41724 0.0
C1651 C 0.77481 0.93688 0.44757 0.0
C1652 C 0.83886 1.0159 0.3979 0.0
C1653 C 0.79815 0.97899 0.40805 0.0
C1654 C 0.85964 0.02769 0.37834 0.0
C1655 C 0.85805 1.02205 0.34803 0.0
C1656 C 0.81632 0.99764 0.38739 0.0
C1657 C 0.83328 1.00641 0.33822 0.0
C1658 C 0.78075 0.95578 0.39759 0.0
C1659 C 0.78962 0.96214 0.45729 0.0
N1660 N 0.81397 0.99422 0.35774 0.0
N1661 N 0.8013 0.98166 0.43771 0.0
H1662 H 0.80456 0.09089 0.06734 0.0
H1663 H 0.84481 0.05368 0.2352 0.0
H1664 H 0.78443 0.14802 0.13946 0.0
H1665 H 0.87982 1.00733 0.16093 0.0
H1666 H 0.81242 0.08132 0.20198 0.0
H1667 H 0.82127 0.05349 0.10231 0.0
C1668 C 0.80224 0.09506 0.09058 0.0
C1669 C 0.79226 0.12253 0.10032 0.0
C1670 C 0.82654 0.06447 0.193 0.0
C1671 C 0.81281 0.08001 0.14089 0.0
C1672 C 0.84469 0.04823 0.21212 0.0
C1673 C 0.8647 0.02745 0.20109 0.0
C1674 C 0.8282 0.06001 0.16247 0.0
C1675 C 0.86436 1.02255 0.17061 0.0
C1676 C 0.81239 0.07386 0.11063 0.0
C1677 C 0.7913 0.12703 0.13086 0.0
N1678 N 0.84674 0.03871 0.15252 0.0
N1679 N 0.80162 0.10627 0.1499 0.0
H1680 H 0.38894 0.51914 0.66209 0.0
H1681 H 0.27718 0.64871 0.63992 0.0
H1682 H 0.33866 0.55469 0.73343 0.0
H1683 H 0.30382 0.59371 0.5682 0.0
H1684 H 0.29552 0.61176 0.67443 0.0
H1685 H 0.35454 0.54166 0.62739 0.0
C1686 C 0.36963 0.53017 0.67055 0.0
C1687 C 0.36634 0.5341 0.70094 0.0
C1688 C 0.2966 0.60724 0.65118 0.0
C1689 C 0.32771 0.56204 0.66102 0.0
C1690 C 0.28578 0.62828 0.63142 0.0
C1691 C 0.28828 0.62414 0.60102 0.0
C1692 C 0.31092 0.58201 0.64062 0.0
C1693 C 0.30068 0.59758 0.59139 0.0
C1694 C 0.35027 0.54366 0.65064 0.0
C1695 C 0.34165 0.55016 0.71034 0.0
N1696 N 0.31202 0.5779 0.61099 0.0
N1697 N 0.32384 0.56405 0.69062 0.0
H1698 H 0.24029 0.59512 0.48049 0.0
H1699 H 0.20502 0.56112 0.31137 0.0
H1700 H 0.26513 0.65158 0.40927 0.0
H1701 H 0.15213 0.52932 0.38262 0.0
H1702 H 0.23939 0.58235 0.34689 0.0
H1703 H 0.22037 0.5599 0.44492 0.0
C1704 C 0.24293 0.59944 0.45731 0.0
C1705 C 0.25517 0.62608 0.44789 0.0
C1706 C 0.22086 0.5698 0.35482 0.0
C1707 C 0.23158 0.58608 0.40688 0.0
C1708 C 0.20153 0.55706 0.33449 0.0
C1709 C 0.176 0.54254 0.34389 0.0
C1710 C 0.21483 0.56799 0.38498 0.0
C1711 C 0.17193 0.53947 0.3743 0.0
C1712 C 0.23105 0.57954 0.437 0.0
C1713 C 0.25662 0.63105 0.41752 0.0
N1714 N 0.19088 0.55225 0.39367 0.0
N1715 N 0.2449 0.61142 0.3982 0.0
H1716 H 0.39665 0.51919 0.88146 0.0
H1717 H 0.27882 0.39645 0.91189 0.0
H1718 H 0.3426 0.48384 0.81293 0.0
H1719 H 0.3116 0.4519 0.98051 0.0
H1720 H 0.29792 0.43107 0.8754 0.0
H1721 H 0.36266 0.49895 0.91798 0.0
C1722 C 0.37674 0.50857 0.87402 0.0
C1723 C 0.37204 0.50425 0.84389 0.0
C1724 C 0.3001 0.4363 0.89843 0.0
C1725 C 0.33377 0.47898 0.88589 0.0
C1726 C 0.2887 0.41669 0.91932 0.0
C1727 C 0.29257 0.42168 0.94946 0.0
C1728 C 0.31646 0.46082 0.90754 0.0
C1729 C 0.30713 0.4476 0.95762 0.0
C1730 C 0.35755 0.49646 0.89496 0.0
C1731 C 0.34663 0.4887 0.83579 0.0
N1732 N 0.31894 0.46579 0.93693 0.0
N1733 N 0.3289 0.47622 0.85651 0.0
H1734 H 0.63292 0.76007 0.90023 0.0
H1735 H 0.65978 0.64647 0.02568 0.0
H1736 H 0.56197 0.72725 0.95302 0.0
H1737 H 0.72847 0.70296 0.99449 0.0
H1738 H 0.62324 0.67961 1.00434 0.0
H1739 H 0.66792 0.74373 0.93773 0.0
C1740 C 0.62464 0.75059 0.92035 0.0
C1741 C 0.59441 0.74579 0.92386 0.0
C1742 C 0.64623 0.68547 1.00309 0.0
C1743 C 0.63451 0.72541 0.96634 0.0
C1744 C 0.66713 0.66677 1.01584 0.0
C1745 C 0.6973 0.67225 1.0126 0.0
C1746 C 0.65552 0.70948 0.98614 0.0
C1747 C 0.70548 0.69826 0.99827 0.0
C1748 C 0.64465 0.74092 0.94167 0.0
C1749 C 0.58501 0.73213 0.94981 0.0
N1750 N 0.68486 0.71543 0.98496 0.0
N1751 N 0.60493 0.72197 0.96973 0.0
H1752 H 0.59277 0.48401 0.2332 0.0
H1753 H 0.56178 0.3133 0.20122 0.0
H1754 H 0.64706 0.41416 0.26577 0.0
H1755 H 0.52993 0.38297 0.1464 0.0
H1756 H 0.58204 0.34984 0.23515 0.0
H1757 H 0.55923 0.44753 0.21205 0.0
C1758 C 0.59681 0.461 0.23735 0.0
C1759 C 0.62238 0.45234 0.25236 0.0
C1760 C 0.56976 0.35723 0.21623 0.0
C1761 C 0.58442 0.41004 0.22692 0.0
C1762 C 0.55758 0.33629 0.19711 0.0
C1763 C 0.54307 0.34487 0.17128 0.0
C1764 C 0.56753 0.38728 0.20971 0.0
C1765 C 0.53996 0.37519 0.16645 0.0
C1766 C 0.57793 0.44011 0.22467 0.0
C1767 C 0.62719 0.422 0.25538 0.0
N1768 N 0.55214 0.39515 0.18524 0.0
N1769 N 0.60862 0.40211 0.24275 0.0
H1770 H 0.92291 0.2646 0.41943 0.0
H1771 H 0.8873 0.39764 0.52571 0.0
H1772 H 0.98982 0.31439 0.46313 0.0
H1773 H 0.82092 0.33917 0.49341 0.0
H1774 H 0.92524 0.3629 0.50981 0.0
H1775 H 0.88606 0.28565 0.45251 0.0
C1776 C 0.93018 0.27861 0.43713 0.0
C1777 C 0.9599 0.28688 0.43886 0.0
C1778 C 0.90238 0.35705 0.50704 0.0
C1779 C 0.91712 0.31294 0.47603 0.0
C1780 C 0.8806 0.37676 0.51667 0.0
C1781 C 0.85064 0.37101 0.51195 0.0
C1782 C 0.89441 0.33147 0.49174 0.0
C1783 C 0.84358 0.34416 0.49854 0.0
C1784 C 0.90892 0.29124 0.45569 0.0
C1785 C 0.96746 0.30653 0.46142 0.0
N1786 N 0.86514 0.32576 0.48855 0.0
N1787 N 0.94633 0.31924 0.47856 0.0
H1788 H 0.95962 0.55943 0.73831 0.0
H1789 H 1.00354 0.72601 0.70349 0.0
H1790 H 0.90715 0.63394 0.76264 0.0
H1791 H 0.03408 0.65236 0.6532 0.0
H1792 H 0.98001 0.69215 0.73801 0.0
H1793 H 0.9979 0.59276 0.72018 0.0
C1794 C 0.95683 0.5828 0.74131 0.0
C1795 C 0.93041 0.59384 0.75279 0.0
C1796 C 0.9927 0.68333 0.71998 0.0
C1797 C 0.97381 0.6323 0.73109 0.0
C1798 C 1.00667 0.70268 0.70054 0.0
C1799 C 1.0212 0.69208 0.67552 0.0
C1800 C 0.99346 0.65301 0.71465 0.0
C1801 C 1.02351 0.66152 0.67237 0.0
C1802 C 0.97847 0.60185 0.73042 0.0
C1803 C 0.92744 0.62443 0.7547 0.0
N1804 N 1.00953 0.64313 0.69141 0.0
N1805 N 0.94867 0.64252 0.74381 0.0
H1806 H 0.66563 0.39566 0.52704 0.0
H1807 H 0.63515 0.27938 0.65151 0.0
H1808 H 0.73449 0.34306 0.56425 0.0
H1809 H 0.56646 0.31219 0.59589 0.0
H1810 H 0.67178 0.29809 0.61674 0.0
H1811 H 0.62916 0.36191 0.54767 0.0
C1812 C 0.67318 0.3761 0.53818 0.0
C1813 C 0.70339 0.37174 0.54286 0.0
C1814 C 0.64871 0.30036 0.61151 0.0
C1815 C 0.66138 0.33374 0.56858 0.0
C1816 C 0.62772 0.28918 0.63121 0.0
C1817 C 0.59751 0.29316 0.62622 0.0
C1818 C 0.63963 0.31662 0.58687 0.0
C1819 C 0.58938 0.30761 0.6002 0.0
C1820 C 0.65225 0.35705 0.55051 0.0
C1821 C 0.71159 0.3468 0.55908 0.0
N1822 N 0.61016 0.3192 0.5819 0.0
N1823 N 0.69086 0.32919 0.57174 0.0
H1824 H 1.01997 0.38394 0.89398 0.0
H1825 H 0.8951 0.40673 0.77736 0.0
H1826 H 0.9865 0.31239 0.84284 0.0
H1827 H 0.95193 0.47755 0.80233 0.0
H1828 H 0.93045 0.3718 0.79806 0.0
H1829 H 0.99886 0.4185 0.8585 0.0
C1830 C 1.00964 0.37542 0.8744 0.0
C1831 C 1.0061 0.345 0.87098 0.0
C1832 C 0.93576 0.39489 0.79822 0.0
C1833 C 0.97975 0.38476 0.83102 0.0
C1834 C 0.9157 0.41488 0.78594 0.0
C1835 C 0.92084 0.44522 0.78715 0.0
C1836 C 0.96093 0.40516 0.81286 0.0
C1837 C 0.94739 0.45441 0.79998 0.0
C1838 C 0.99702 0.39524 0.85435 0.0
C1839 C 0.99082 0.3355 0.84592 0.0
N1840 N 0.96603 0.43465 0.8128 0.0
N1841 N 0.97777 0.35515 0.82739 0.0
H1842 H 0.81445 0.70162 0.06322 0.0
H1843 H 0.98696 0.73038 0.08433 0.0
H1844 H 0.88195 0.64741 0.02573 0.0
H1845 H 0.91988 0.76898 0.13825 0.0
H1846 H 0.94876 0.71053 0.05208 0.0
H1847 H 0.85222 0.73619 0.07976 0.0
C1848 C 0.83711 0.69774 0.05713 0.0
C1849 C 0.84486 0.67191 0.04226 0.0
C1850 C 0.94235 0.72425 0.07033 0.0
C1851 C 0.88868 0.71096 0.06235 0.0
C1852 C 0.96427 0.73624 0.08842 0.0
C1853 C 0.95684 0.75227 0.11367 0.0
C1854 C 0.91253 0.72821 0.07742 0.0
C1855 C 0.92679 0.75762 0.1186 0.0
C1856 C 0.85879 0.71725 0.06709 0.0
C1857 C 0.87484 0.6674 0.03634 0.0
N1858 N 0.90586 0.74541 0.10098 0.0
N1859 N 0.89558 0.68648 0.04657 0.0
H1860 H 0.59684 0.5667 0.30306 0.0
H1861 H 0.55171 0.73141 0.34633 0.0
H1862 H 0.64804 0.64234 0.27993 0.0
H1863 H 0.52581 0.65573 0.39613 0.0
H1864 H 0.57542 0.69906 0.31037 0.0
H1865 H 0.55975 0.59905 0.32512 0.0
C1866 C 0.5996 0.59018 0.30127 0.0
C1867 C 0.62544 0.60176 0.28904 0.0
C1868 C 0.56376 0.68945 0.32866 0.0
C1869 C 0.58323 0.6391 0.31507 0.0
C1870 C 0.54968 0.70792 0.34896 0.0
C1871 C 0.53619 0.69633 0.37412 0.0
C1872 C 0.56413 0.65899 0.33324 0.0
C1873 C 0.53543 0.66565 0.37684 0.0
C1874 C 0.57863 0.60865 0.31439 0.0
C1875 C 0.62826 0.63244 0.28854 0.0
N1876 N 0.54934 0.64813 0.35689 0.0
N1877 N 0.60763 0.64995 0.3015 0.0
H1878 H 0.75087 0.95729 0.56319 0.0
H1879 H 0.70548 0.99932 0.72882 0.0
H1880 H 0.77076 0.90321 0.63777 0.0
H1881 H 0.66122 0.03234 0.65239 0.0
H1882 H 0.74071 0.97381 0.69673 0.0
H1883 H 0.73004 0.99433 0.59636 0.0
C1884 C 0.75237 0.95383 0.58662 0.0
C1885 C 0.76337 0.92718 0.59755 0.0
C1886 C 0.72383 0.98737 0.68696 0.0
C1887 C 0.7384 0.96939 0.63595 0.0
C1888 C 0.70398 1.00243 0.70535 0.0
C1889 C 0.68061 1.01873 0.69345 0.0
C1890 C 0.72065 0.98872 0.65627 0.0
C1891 C 0.67917 1.02065 0.66266 0.0
C1892 C 0.73983 0.97479 0.60559 0.0
C1893 C 0.76325 0.92361 0.62826 0.0
N1894 N 0.69866 1.00584 0.64529 0.0
N1895 N 0.75083 0.94418 0.64621 0.0
H1896 H 0.13313 0.37896 0.18372 0.0
H1897 H 0.10779 0.23661 0.28268 0.0
H1898 H 0.1734 0.29597 0.16367 0.0
H1899 H 0.06804 0.32093 0.29885 0.0
H1900 H 0.13102 0.25655 0.23855 0.0
H1901 H 0.10948 0.35688 0.22591 0.0
C1902 C 0.13657 0.35594 0.1877 0.0
C1903 C 0.15463 0.33936 0.16907 0.0
C1904 C 0.11711 0.27061 0.25169 0.0
C1905 C 0.12702 0.31357 0.21796 0.0
C1906 C 0.10373 0.25925 0.2769 0.0
C1907 C 0.08579 0.27708 0.29464 0.0
C1908 C 0.11261 0.30006 0.24408 0.0
C1909 C 0.08157 0.30627 0.28598 0.0
C1910 C 0.1229 0.34331 0.21188 0.0
C1911 C 0.15868 0.30959 0.17619 0.0
N1912 N 0.09489 0.31677 0.26146 0.0
N1913 N 0.14492 0.29764 0.19999 0.0
H1914 H 1.00127 0.94838 0.44218 0.0
H1915 H 0.98736 0.80477 0.54314 0.0
H1916 H 0.93585 0.88248 0.42666 0.0
H1917 H 0.05587 0.86942 0.55113 0.0
H1918 H 0.96786 0.83168 0.50065 0.0
H1919 H 1.02175 0.9185 0.4817 0.0
C1920 C 0.99154 0.92728 0.44693 0.0
C1921 C 0.96718 0.91762 0.43092 0.0
C1922 C 0.98718 0.8399 0.51172 0.0
C1923 C 0.98998 0.88332 0.47679 0.0
C1924 C 0.99825 0.82463 0.5361 0.0
C1925 C 1.02318 0.83492 0.55109 0.0
C1926 C 1.00117 0.86565 0.50214 0.0
C1927 C 0.03658 0.86056 0.54053 0.0
C1928 C 1.00311 0.91024 0.46957 0.0
C1929 C 0.955 0.89033 0.4382 0.0
N1930 N 0.02539 0.87496 0.51694 0.0
N1931 N 0.9664 0.87417 0.46072 0.0
H1932 H 0.36902 0.76867 0.66308 0.0
H1933 H 0.47914 0.72723 0.79334 0.0
H1934 H 0.40871 0.68364 0.67199 0.0
H1935 H 0.44667 0.81463 0.77736 0.0
H1936 H 0.44992 0.70945 0.75219 0.0
H1937 H 0.39214 0.78385 0.70895 0.0
C1938 C 0.38207 0.75296 0.6752 0.0
C1939 C 0.3869 0.72484 0.6638 0.0
C1940 C 0.44917 0.7325 0.75767 0.0
C1941 C 0.41426 0.74223 0.71593 0.0
C1942 C 0.46591 0.74274 0.78116 0.0
C1943 C 0.46551 0.77257 0.78884 0.0
C1944 C 0.4317 0.75214 0.74168 0.0
C1945 C 0.44791 0.79154 0.77216 0.0
C1946 C 0.39553 0.7617 0.70119 0.0
C1947 C 0.40426 0.70539 0.68008 0.0
N1948 N 0.43173 0.78099 0.74943 0.0
N1949 N 0.41758 0.71452 0.7052 0.0
H1950 H 0.4774 0.19004 0.02731 0.0
H1951 H 0.61641 0.14003 0.93098 0.0
H1952 H 0.56639 0.21417 0.04894 0.0
H1953 H 0.52773 0.14243 0.89882 0.0
H1954 H 0.59872 0.15783 0.97897 0.0
H1955 H 0.49581 0.16352 0.9846 0.0
C1956 C 0.50085 0.1895 0.02336 0.0
C1957 C 0.5203 0.20439 0.04198 0.0
C1958 C 0.58309 0.15399 0.96154 0.0
C1959 C 0.54159 0.17397 0.99277 0.0
C1960 C 0.59315 0.14358 0.93439 0.0
C1961 C 0.57339 0.13969 0.91121 0.0
C1962 C 0.55303 0.16018 0.96544 0.0
C1963 C 0.54352 0.1451 0.91632 0.0
C1964 C 0.51134 0.17442 0.99884 0.0
C1965 C 0.55048 0.20305 0.03535 0.0
N1966 N 0.53426 0.1551 0.94279 0.0
N1967 N 0.56018 0.18817 1.01133 0.0
H1968 H 0.09688 0.72277 0.2379 0.0
H1969 H 0.10833 0.74415 0.40966 0.0
H1970 H 0.06849 0.80162 0.28152 0.0
H1971 H 0.18153 0.70578 0.36355 0.0
H1972 H 0.08485 0.7549 0.36291 0.0
H1973 H 0.11997 0.70632 0.28397 0.0
C1974 C 0.0953 0.73649 0.25717 0.0
C1975 C 0.08076 0.76367 0.25588 0.0
C1976 C 0.10592 0.74387 0.36302 0.0
C1977 C 0.10663 0.74479 0.30841 0.0
C1978 C 0.1194 0.73772 0.38968 0.0
C1979 C 0.14715 0.72423 0.3907 0.0
C1980 C 0.11981 0.73595 0.33684 0.0
C1981 C 0.16002 0.7158 0.36396 0.0
C1982 C 0.10863 0.72717 0.2833 0.0
C1983 C 0.07956 0.78063 0.28146 0.0
N1984 N 0.14623 0.72181 0.33803 0.0
N1985 N 0.09205 0.77081 0.30666 0.0
H1986 H 0.56223 0.80957 0.50557 0.0
H1987 H 0.53006 0.92861 0.63101 0.0
H1988 H 0.48489 0.86404 0.50949 0.0
H1989 H 0.61684 0.89434 0.61634 0.0
H1990 H 0.51148 0.89815 0.59111 0.0
H1991 H 0.58128 0.83452 0.54929 0.0
C1992 C 0.54942 0.82707 0.51522 0.0
C1993 C 0.52227 0.83535 0.50291 0.0
C1994 C 0.53454 0.89684 0.59675 0.0
C1995 C 0.54348 0.8631 0.55402 0.0
C1996 C 0.54505 0.91401 0.61976 0.0
C1997 C 0.57491 0.91373 0.62726 0.0
C1998 C 0.55399 0.87914 0.58069 0.0
C1999 C 0.59356 0.89478 0.61164 0.0
C2000 C 0.56024 0.8411 0.54041 0.0
C2001 C 0.50618 0.85725 0.51749 0.0
N2002 N 0.58285 0.87835 0.58896 0.0
N2003 N 0.51699 0.87025 0.54206 0.0
H2004 H 0.36177 0.34199 0.86474 0.0
H2005 H 0.462 0.23404 0.77892 0.0
H2006 H 0.4404 0.30737 0.90445 0.0
H2007 H 0.44651 0.31729 0.73716 0.0
H2008 H 0.44113 0.25378 0.82439 0.0
H2009 H 0.38157 0.32868 0.81624 0.0
C2010 C 0.38343 0.33237 0.86332 0.0
C2011 C 0.39947 0.32586 0.88882 0.0
C2012 C 0.44203 0.26754 0.80508 0.0
C2013 C 0.42116 0.30909 0.83384 0.0
C2014 C 0.45363 0.25625 0.77912 0.0
C2015 C 0.45588 0.274 0.75418 0.0
C2016 C 0.43191 0.29656 0.80595 0.0
C2017 C 0.44526 0.3029 0.75587 0.0
C2018 C 0.39449 0.32445 0.83569 0.0
C2019 C 0.42705 0.31238 0.8855 0.0
N2020 N 0.43349 0.3133 0.78131 0.0
N2021 N 0.43672 0.30392 0.85869 0.0
H2022 H 0.04369 0.1707 0.99417 0.0
H2023 H 0.97234 0.15333 0.14677 0.0
H2024 H 0.99216 0.24397 0.02444 0.0
H2025 H 0.95274 0.08938 0.08033 0.0
H2026 H 0.98847 0.18743 0.10829 0.0
H2027 H 1.02077 0.1399 0.03193 0.0
C2028 C 0.02771 0.18033 1.0089 0.0
C2029 C 1.0198 0.20991 1.00622 0.0
C2030 C 0.98008 0.1661 0.10224 0.0
C2031 C 0.99413 0.17501 0.0497 0.0
C2032 C 0.97038 0.14684 0.12412 0.0
C2033 C 0.96025 0.11874 0.11679 0.0
C2034 C 0.98073 0.15675 0.07298 0.0
C2035 C 0.96023 0.11083 0.08701 0.0
C2036 C 1.01458 0.16275 0.03026 0.0
C2037 C 0.99878 0.22123 0.02577 0.0
N2038 N 0.97072 0.1295 0.06629 0.0
N2039 N 0.98694 0.20386 0.04702 0.0
H2040 H 0.15307 0.13742 0.31351 0.0
H2041 H 0.32617 0.10927 0.29796 0.0
H2042 H 0.21854 0.18514 0.36182 0.0
H2043 H 0.26224 0.04877 0.26422 0.0
H2044 H 0.28647 0.13748 0.32088 0.0
H2045 H 0.19162 0.10386 0.29596 0.0
C2046 C 0.1754 0.1404 0.32102 0.0
C2047 C 0.18252 0.16401 0.33941 0.0
C2048 C 0.28105 0.11771 0.30903 0.0
C2049 C 0.227 0.12633 0.31855 0.0
C2050 C 0.30374 0.10169 0.29586 0.0
C2051 C 0.29745 0.07647 0.27961 0.0
C2052 C 0.2517 0.10861 0.30586 0.0
C2053 C 0.26796 0.06791 0.27696 0.0
C2054 C 0.19749 0.12142 0.31075 0.0
C2055 C 0.21207 0.16729 0.34765 0.0
N2056 N 0.24617 0.08395 0.28989 0.0
N2057 N 0.23312 0.14893 0.33705 0.0
H2058 H 0.21034 1.02205 0.48574 0.0
H2059 H 0.14296 0.9451 0.62577 0.0
H2060 H 0.22429 0.05389 0.57363 0.0
H2061 H 0.1598 0.89589 0.5472 0.0
H2062 H 0.17075 0.98614 0.60562 0.0
H2063 H 0.19038 0.97644 0.50622 0.0
C2064 C 0.20936 1.01944 0.5093 0.0
C2065 C 0.21882 0.04204 0.52796 0.0
C2066 C 0.16912 0.96614 0.59301 0.0
C2067 C 0.19585 0.98998 0.55144 0.0
C2068 C 0.1533 0.94273 0.60453 0.0
C2069 C 0.14958 0.91692 0.58837 0.0
C2070 C 0.18124 0.96404 0.56485 0.0
C2071 C 0.16285 0.91514 0.56065 0.0
C2072 C 0.1981 0.99334 0.52094 0.0
C2073 C 0.21715 0.03727 0.55832 0.0
N2074 N 0.17788 0.93854 0.54958 0.0
N2075 N 0.20561 1.012 0.56904 0.0
H2076 H 0.38423 0.86484 0.77916 0.0
H2077 H 0.25198 0.97291 0.82084 0.0
H2078 H 0.37566 0.90432 0.8642 0.0
H2079 H 0.26763 0.93887 0.734 0.0
H2080 H 0.29363 0.94424 0.83892 0.0
H2081 H 0.3374 0.8866 0.76462 0.0
C2082 C 0.37199 0.87763 0.79498 0.0
C2083 C 0.38368 0.8828 0.8229 0.0
C2084 C 0.28789 0.94299 0.81594 0.0
C2085 C 0.33037 0.90863 0.80626 0.0
C2086 C 0.26413 0.95944 0.80552 0.0
C2087 C 0.25628 0.95854 0.77571 0.0
C2088 C 0.30396 0.92535 0.7965 0.0
C2089 C 0.27283 0.94047 0.75707 0.0
C2090 C 0.34541 0.89029 0.78663 0.0
C2091 C 0.36722 0.89973 0.84256 0.0
N2092 N 0.29583 0.92469 0.76776 0.0
N2093 N 0.34149 0.91234 0.83379 0.0
H2094 H 0.36768 0.12762 0.12138 0.0
H2095 H 0.31312 0.99523 0.06944 0.0
H2096 H 0.42699 0.12668 0.04831 0.0
H2097 H 0.35912 1.01561 0.9894 0.0
H2098 H 0.33752 0.03607 0.09325 0.0
H2099 H 0.34656 0.0817 0.10502 0.0
C2100 C 0.37674 0.11718 0.10224 0.0
C2101 C 0.39946 0.13087 0.08669 0.0
C2102 C 0.34214 0.03215 0.07037 0.0
C2103 C 0.37529 0.07735 0.06698 0.0
C2104 C 0.32831 1.00832 0.05676 0.0
C2105 C 0.33382 1.00169 0.02719 0.0
C2106 C 0.36143 0.0502 0.05429 0.0
C2107 C 0.35397 1.01969 1.01218 0.0
C2108 C 0.36472 0.09066 0.09274 0.0
C2109 C 0.41003 0.11663 0.06149 0.0
N2110 N 0.36682 0.04303 0.02578 0.0
N2111 N 0.3977 0.09088 0.05231 0.0
H2112 H 0.1915 0.86041 0.19122 0.0
H2113 H 0.27024 0.9651 0.30072 0.0
H2114 H 0.14409 0.92851 0.23631 0.0
H2115 H 0.31289 0.94972 0.21781 0.0
H2116 H 0.22494 0.94414 0.28074 0.0
H2117 H 0.23779 0.88658 0.2017 0.0
C2118 C 0.19073 0.88122 0.20252 0.0
C2119 C 0.16392 0.89225 0.21305 0.0
C2120 C 0.24423 0.94543 0.26691 0.0
C2121 C 0.21651 0.92131 0.22624 0.0
C2122 C 0.27008 0.95722 0.27835 0.0
C2123 C 0.2953 0.95922 0.26089 0.0
C2124 C 0.24374 0.93472 0.23806 0.0
C2125 C 0.29382 0.94872 0.23193 0.0
C2126 C 0.21711 0.89596 0.20875 0.0
C2127 C 0.1643 0.91907 0.22813 0.0
N2128 N 0.26856 0.93653 0.22148 0.0
N2129 N 0.19011 0.93229 0.23482 0.0
H2130 H 0.29895 0.03991 0.48095 0.0
H2131 H 0.43427 0.92646 0.48996 0.0
H2132 H 0.3682 0.04617 0.54505 0.0
H2133 H 0.35404 0.90875 0.44329 0.0
H2134 H 0.4143 0.9742 0.50443 0.0
H2135 H 0.32268 0.99583 0.46097 0.0
C2136 C 0.31929 0.03228 0.49061 0.0
C2137 C 0.33147 0.04687 0.51481 0.0
C2138 C 0.40126 0.96002 0.49061 0.0
C2139 C 0.3588 0.99622 0.49205 0.0
C2140 C 0.4129 0.93282 0.48192 0.0
C2141 C 0.3963 0.91364 0.46446 0.0
C2142 C 0.37276 0.96826 0.48185 0.0
C2143 C 0.3679 0.92284 0.45633 0.0
C2144 C 0.33276 1.00699 0.4793 0.0
C2145 C 0.35782 0.03566 0.52651 0.0
N2146 N 0.35717 0.94934 0.46489 0.0
N2147 N 0.37052 1.01114 0.51508 0.0
H2148 H 0.26188 0.11359 0.81412 0.0
H2149 H 0.37689 0.11915 0.68117 0.0
H2150 H 0.26448 0.05089 0.74359 0.0
H2151 H 0.38351 0.17627 0.75582 0.0
H2152 H 0.33568 0.09427 0.70418 0.0
H2153 H 0.30606 0.13697 0.79404 0.0
C2154 C 0.27153 0.10484 0.79431 0.0
C2155 C 0.25868 0.08072 0.78007 0.0
C2156 C 0.34629 0.11196 0.71587 0.0
C2157 C 0.30978 0.1072 0.75715 0.0
C2158 C 0.37004 0.12612 0.70271 0.0
C2159 C 0.38451 0.14932 0.71679 0.0
C2160 C 0.33615 0.12128 0.74338 0.0
C2161 C 0.37391 0.15788 0.74447 0.0
C2162 C 0.29689 0.11816 0.78292 0.0
C2163 C 0.27292 0.06991 0.75494 0.0
N2164 N 0.35033 0.14397 0.75677 0.0
N2165 N 0.29738 0.0833 0.74424 0.0
H2166 H 0.11548 0.11616 0.95757 0.0
H2167 H 0.22514 0.03068 0.05793 0.0
H2168 H 0.19331 0.15824 0.99102 0.0
H2169 H 0.20015 0.98971 0.97663 0.0
H2170 H 0.20406 0.07696 0.0403 0.0
H2171 H 0.13772 0.06829 0.96897 0.0
C2172 C 0.1374 0.11548 0.9666 0.0
C2173 C 0.15256 0.14151 0.9731 0.0
C2174 C 0.20319 0.05778 0.02638 0.0
C2175 C 0.1771 0.08695 0.98791 0.0
C2176 C 0.2151 0.03141 0.03644 0.0
C2177 C 0.21457 1.0064 1.01865 0.0
C2178 C 0.18978 0.05899 0.99871 0.0
C2179 C 0.20126 1.00859 0.99091 0.0
C2180 C 0.14988 0.08815 0.97346 0.0
C2181 C 0.18052 0.13895 0.98601 0.0
N2182 N 0.18907 0.03437 0.98187 0.0
N2183 N 0.19158 0.11234 0.99346 0.0
H2184 H 0.32143 0.31187 0.09291 0.0
H2185 H 0.30228 0.14602 0.11234 0.0
H2186 H 0.23411 0.27609 0.09843 0.0
H2187 H 0.34428 0.18713 0.18627 0.0
H2188 H 0.28853 0.19426 0.09376 0.0
H2189 H 0.34079 0.2671 0.11591 0.0
C2190 C 0.30625 0.29494 0.09945 0.0
C2191 C 0.27594 0.29809 0.09428 0.0
C2192 C 0.30112 0.19266 0.11383 0.0
C2193 C 0.29813 0.24658 0.11941 0.0
C2194 C 0.30899 0.16523 0.12449 0.0
C2195 C 0.32421 0.1624 0.15112 0.0
C2196 C 0.30905 0.21775 0.1294 0.0
C2197 C 0.33287 0.18821 0.16553 0.0
C2198 C 0.31736 0.26946 0.11253 0.0
C2199 C 0.25744 0.275 0.10261 0.0
N2200 N 0.3251 0.21497 0.15449 0.0
N2201 N 0.26887 0.25004 0.11424 0.0
H2202 H 0.84705 0.36276 0.86349 0.0
H2203 H 0.73471 0.27904 0.95925 0.0
H2204 H 0.80304 0.4072 0.93438 0.0
H2205 H 0.82265 0.24413 0.96397 0.0
H2206 H 0.75422 0.32294 0.93534 0.0
H2207 H 0.83523 0.31546 0.88716 0.0
C2208 C 0.83557 0.36272 0.88423 0.0
C2209 C 0.82593 0.38917 0.89684 0.0
C2210 C 0.76914 0.30546 0.94137 0.0
C2211 C 0.81118 0.33534 0.92299 0.0
C2212 C 0.75806 0.28037 0.95496 0.0
C2213 C 0.77702 0.25776 0.96377 0.0
C2214 C 0.79933 0.30783 0.93572 0.0
C2215 C 0.80721 0.26098 0.95765 0.0
C2216 C 0.82858 0.33574 0.89753 0.0
C2217 C 0.81042 0.38749 0.92348 0.0
N2218 N 0.81746 0.28549 0.94383 0.0
N2219 N 0.80303 0.36121 0.93525 0.0
H2220 H 0.92806 0.61367 0.13962 0.0
H2221 H 0.03376 0.48128 0.1864 0.0
H2222 H 0.90314 0.52294 0.13834 0.0
H2223 H 0.04623 0.56906 0.21926 0.0
H2224 H 0.99123 0.49817 0.15891 0.0
H2225 H 0.97662 0.59952 0.15922 0.0
C2226 C 0.93313 0.59079 0.14294 0.0
C2227 C 0.91173 0.56941 0.13757 0.0
C2228 C 1.0033 0.51379 0.17204 0.0
C2229 C 0.96679 0.55299 0.15953 0.0
C2230 C 0.02768 0.50418 0.18781 0.0
C2231 C 0.04346 0.52364 0.20569 0.0
C2232 C 0.99451 0.5432 0.17379 0.0
C2233 C 0.03453 0.55316 0.20614 0.0
C2234 C 0.96063 0.58272 0.15423 0.0
C2235 C 0.91913 0.54 0.14223 0.0
N2236 N 1.01056 0.56203 0.19053 0.0
N2237 N 0.94596 0.53266 0.15294 0.0
H2238 H 0.71406 0.65028 0.44076 0.0
H2239 H 0.77541 0.8114 0.4104 0.0
H2240 H 0.71779 0.68688 0.35409 0.0
H2241 H 0.75189 0.78008 0.49624 0.0
H2242 H 0.75447 0.76657 0.38895 0.0
H2243 H 0.72624 0.69826 0.4613 0.0
C2244 C 0.7166 0.66877 0.42614 0.0
C2245 C 0.71428 0.6648 0.39577 0.0
C2246 C 0.75363 0.76961 0.41245 0.0
C2247 C 0.72987 0.71972 0.41894 0.0
C2248 C 0.76572 0.79512 0.42469 0.0
C2249 C 0.76501 0.79963 0.45511 0.0
C2250 C 0.74129 0.74813 0.43081 0.0
C2251 C 0.75249 0.77769 0.47264 0.0
C2252 C 0.7239 0.69612 0.4378 0.0
C2253 C 0.71875 0.68924 0.37765 0.0
N2254 N 0.74125 0.75297 0.4603 0.0
N2255 N 0.72673 0.71556 0.38946 0.0
H2256 H 0.09201 0.92304 0.12019 0.0
H2257 H 0.03049 0.04345 0.2322 0.0
H2258 H 0.14713 0.98852 0.15936 0.0
H2259 H 0.97958 0.96985 0.20289 0.0
H2260 H 0.07395 1.0226 0.20794 0.0
H2261 H 0.05178 0.93754 0.15297 0.0
C2262 C 0.09579 0.94005 0.13627 0.0
C2263 C 0.12306 0.95434 0.13729 0.0
C2264 C 0.05344 1.01067 0.20721 0.0
C2265 C 0.07661 0.97206 0.17433 0.0
C2266 C 0.02859 1.02259 0.22108 0.0
C2267 C 1.00148 1.00796 0.22027 0.0
C2268 C 0.05118 0.98411 0.19174 0.0
C2269 C 1.00024 0.98127 0.20506 0.0
C2270 C 0.07275 0.94851 0.15486 0.0
C2271 C 0.12664 0.97662 0.15818 0.0
N2272 N 0.02456 0.97035 0.19129 0.0
N2273 N 0.10363 0.98504 0.17556 0.0
H2274 H 0.27165 0.89924 0.65355 0.0
H2275 H 0.23098 0.74472 0.57997 0.0
H2276 H 0.18486 0.86264 0.65652 0.0
H2277 H 0.31991 0.77575 0.58925 0.0
H2278 H 0.21363 0.78741 0.60755 0.0
H2279 H 0.28984 0.8539 0.63085 0.0
C2280 C 0.25662 0.88123 0.65007 0.0
C2281 C 0.22689 0.88437 0.65753 0.0
C2282 C 0.23695 0.78487 0.60364 0.0
C2283 C 0.24719 0.83263 0.63038 0.0
C2284 C 0.24693 0.76048 0.58771 0.0
C2285 C 0.27707 0.75646 0.58199 0.0
C2286 C 0.25712 0.80574 0.614 0.0
C2287 C 0.2965 0.77779 0.59288 0.0
C2288 C 0.2669 0.85544 0.63685 0.0
C2289 C 0.20807 0.86076 0.65175 0.0
N2290 N 0.28622 0.8014 0.60816 0.0
N2291 N 0.21844 0.83603 0.63835 0.0
H2292 H 0.05067 0.47995 0.32162 0.0
H2293 H 0.91562 0.50372 0.43219 0.0
H2294 H 0.02962 0.56396 0.35959 0.0
H2295 H 0.92681 0.42732 0.37837 0.0
H2296 H 0.96188 0.52366 0.41254 0.0
H2297 H 1.00989 0.45826 0.34837 0.0
C2298 C 0.03763 0.49393 0.33572 0.0
C2299 C 0.04385 0.524 0.33827 0.0
C2300 C 0.95451 0.5023 0.40539 0.0
C2301 C 0.99659 0.49895 0.36917 0.0
C2302 C 0.92839 0.4908 0.41689 0.0
C2303 C 0.91788 0.46363 0.4072 0.0
C2304 C 0.97018 0.48646 0.38403 0.0
C2305 C 0.93455 0.44815 0.38657 0.0
C2306 C 1.01423 0.48142 0.35102 0.0
C2307 C 0.02594 0.54071 0.35703 0.0
N2308 N 0.9598 0.45974 0.37564 0.0
N2309 N 1.00311 0.528 0.37166 0.0
H2310 H 0.63241 0.54179 0.92945 0.0
H2311 H 0.49772 0.5685 0.81865 0.0
H2312 H 0.62073 0.62056 0.8792 0.0
H2313 H 0.51818 0.48406 0.85592 0.0
H2314 H 0.53899 0.5896 0.84546 0.0
H2315 H 0.58661 0.52232 0.90846 0.0
C2316 C 0.61972 0.55527 0.91461 0.0
C2317 C 0.63007 0.58296 0.90626 0.0
C2318 C 0.53438 0.56648 0.84793 0.0
C2319 C 0.57812 0.56067 0.88155 0.0
C2320 C 0.51074 0.55433 0.83256 0.0
C2321 C 0.50419 0.52432 0.83496 0.0
C2322 C 0.55179 0.54863 0.86607 0.0
C2323 C 0.52205 0.5073 0.85351 0.0
C2324 C 0.59381 0.54405 0.90232 0.0
C2325 C 0.6133 0.5992 0.88623 0.0
N2326 N 0.54495 0.51964 0.86826 0.0
N2327 N 0.58828 0.58786 0.87453 0.0
H2328 H 0.62385 0.74335 0.79628 0.0
H2329 H 0.61998 0.84269 0.65387 0.0
H2330 H 0.55264 0.80375 0.78116 0.0
H2331 H 0.70066 0.81185 0.69149 0.0
H2332 H 0.59384 0.82847 0.69894 0.0
H2333 H 0.65119 0.76618 0.75609 0.0
C2334 C 0.61396 0.76144 0.78454 0.0
C2335 C 0.58597 0.77176 0.79233 0.0
C2336 C 0.6174 0.82553 0.69773 0.0
C2337 C 0.6171 0.79787 0.74583 0.0
C2338 C 0.63233 0.83414 0.67224 0.0
C2339 C 0.66268 0.82967 0.66959 0.0
C2340 C 0.63278 0.81114 0.72026 0.0
C2341 C 0.67745 0.81663 0.6932 0.0
C2342 C 0.62966 0.7746 0.76167 0.0
C2343 C 0.57424 0.79521 0.77607 0.0
N2344 N 0.66237 0.8075 0.71732 0.0
N2345 N 0.58972 0.80731 0.7535 0.0
H2346 H 0.50443 0.42933 0.91201 0.0
H2347 H 0.47866 0.31445 0.04278 0.0
H2348 H 0.42843 0.37418 0.91973 0.0
H2349 H 0.56052 0.36025 0.02991 0.0
H2350 H 0.45783 0.34087 1.0013 0.0
H2351 H 0.52288 0.40965 0.95874 0.0
C2352 C 0.49126 0.41368 0.92401 0.0
C2353 C 0.46468 0.40354 0.91227 0.0
C2354 C 0.48033 0.34525 1.00755 0.0
C2355 C 0.48589 0.38032 0.96521 0.0
C2356 C 0.49231 0.33013 0.03134 0.0
C2357 C 0.52159 0.33483 0.03989 0.0
C2358 C 0.49759 0.36542 0.99195 0.0
C2359 C 0.53796 0.35565 0.02408 0.0
C2360 C 0.50194 0.40215 0.95045 0.0
C2361 C 0.44891 0.38254 0.92818 0.0
N2362 N 0.5258 0.37005 1.00086 0.0
N2363 N 0.45973 0.37157 0.9537 0.0
H2364 H 0.99655 0.22647 0.2962 0.0
H2365 H 0.86283 0.2399 0.18139 0.0
H2366 H 0.92487 0.28761 0.30581 0.0
H2367 H 0.94079 0.18873 0.16619 0.0
H2368 H 0.88165 0.2526 0.23004 0.0
H2369 H 0.97286 0.20705 0.25197 0.0
C2370 C 0.9757 0.23559 0.2893 0.0
C2371 C 0.96295 0.25896 0.30479 0.0
C2372 C 0.8944 0.2381 0.21622 0.0
C2373 C 0.93566 0.2369 0.25383 0.0
C2374 C 0.88339 0.23045 0.18845 0.0
C2375 C 0.89968 0.21219 0.16967 0.0
C2376 C 0.92202 0.2276 0.2254 0.0
C2377 C 0.92709 0.2022 0.17994 0.0
C2378 C 0.96222 0.2246 0.2639 0.0
C2379 C 0.93581 0.2698 0.29457 0.0
N2380 N 0.93729 0.20991 0.20686 0.0
N2381 N 0.92325 0.25886 0.2698 0.0
H2382 H 0.06969 0.74708 0.53555 0.0
H2383 H 0.04709 0.61987 0.41589 0.0
H2384 H 1.0017 0.68205 0.54201 0.0
H2385 H 0.12157 0.67728 0.41712 0.0
H2386 H 0.03065 0.64098 0.46275 0.0
H2387 H 0.08951 0.72146 0.49251 0.0
C2388 C 0.05934 0.72709 0.52824 0.0
C2389 C 0.03455 0.71636 0.54289 0.0
C2390 C 0.05084 0.64878 0.45298 0.0
C2391 C 0.05623 0.68733 0.49283 0.0
C2392 C 0.06039 0.63642 0.4264 0.0
C2393 C 0.08594 0.6468 0.41272 0.0
C2394 C 0.06682 0.67187 0.46583 0.0
C2395 C 0.1018 0.66893 0.42693 0.0
C2396 C 0.07038 0.71262 0.50344 0.0
C2397 C 1.02093 0.69117 0.53148 0.0
N2398 N 0.092 0.68084 0.45246 0.0
N2399 N 0.0319 0.67757 0.50723 0.0
H2400 H 0.68061 0.25906 0.88691 0.0
H2401 H 0.5669 0.22961 0.75504 0.0
H2402 H 0.63113 0.17967 0.87706 0.0
H2403 H 0.61069 0.31233 0.76799 0.0
H2404 H 0.59377 0.20955 0.79688 0.0
H2405 H 0.65963 0.27725 0.84056 0.0
C2406 C 0.66588 0.24519 0.87457 0.0
C2407 C 0.65768 0.21771 0.88564 0.0
C2408 C 0.59758 0.23208 0.79057 0.0
C2409 C 0.63296 0.23855 0.83296 0.0
C2410 C 0.58216 0.24362 0.7666 0.0
C2411 C 0.58616 0.27292 0.75792 0.0
C2412 C 0.61738 0.24981 0.80621 0.0
C2413 C 0.60657 0.28974 0.77385 0.0
C2414 C 0.65361 0.25567 0.84829 0.0
C2415 C 0.63789 0.20094 0.86915 0.0
N2416 N 0.62125 0.27802 0.79716 0.0
N2417 N 0.62616 0.21157 0.84383 0.0
H2418 H 0.04472 0.44167 0.12962 0.0
H2419 H 0.97872 0.36312 1.01557 0.0
H2420 H 0.10529 0.36942 0.13141 0.0
H2421 H 0.06446 0.32506 1.00213 0.0
H2422 H 0.9979 0.38969 0.05787 0.0
H2423 H 0.0258 0.4241 0.08228 0.0
C2424 C 0.05441 0.42245 0.11961 0.0
C2425 C 0.0768 0.40712 0.13408 0.0
C2426 C 1.01274 0.3761 0.04529 0.0
C2427 C 0.05462 0.38607 0.0807 0.0
C2428 C 1.00171 0.36078 1.02106 0.0
C2429 C 1.01999 0.34204 1.00476 0.0
C2430 C 0.04226 0.37245 0.05366 0.0
C2431 C 0.04946 0.33934 1.01372 0.0
C2432 C 0.04329 0.41208 0.0929 0.0
C2433 C 0.08824 0.38195 0.12069 0.0
N2434 N 0.05951 0.35408 0.03762 0.0
N2435 N 0.07708 0.37223 0.09479 0.0
H2436 H 0.92583 0.73934 0.24342 0.0
H2437 H 0.92415 0.85474 0.37706 0.0
H2438 H 0.99635 0.80038 0.25847 0.0
H2439 H 0.85126 0.80002 0.35361 0.0
H2440 H 0.95308 0.83284 0.33678 0.0
H2441 H 0.90016 0.75904 0.28611 0.0
C2442 C 0.93602 0.75685 0.25574 0.0
C2443 C 0.96335 0.76818 0.24709 0.0
C2444 C 0.93088 0.82534 0.34065 0.0
C2445 C 0.9338 0.79111 0.29653 0.0
C2446 C 0.91456 0.83766 0.3638 0.0
C2447 C 0.88549 0.8289 0.36891 0.0
C2448 C 0.91798 0.80399 0.32244 0.0
C2449 C 0.8737 0.80717 0.35061 0.0
C2450 C 0.92125 0.76821 0.28017 0.0
C2451 C 0.97522 0.79108 0.26404 0.0
N2452 N 0.88988 0.79554 0.32834 0.0
N2453 N 0.96043 0.80175 0.28785 0.0
H2454 H 0.4774 0.73781 0.50289 0.0
H2455 H 0.50366 0.62623 0.63562 0.0
H2456 H 0.56268 0.7011 0.52183 0.0
H2457 H 0.42442 0.67632 0.6229 0.0
H2458 H 0.52639 0.65304 0.59493 0.0
H2459 H 0.45812 0.71484 0.54703 0.0
C2460 C 0.49216 0.72497 0.51637 0.0
C2461 C 0.52176 0.72142 0.50847 0.0
C2462 C 0.50417 0.65845 0.60141 0.0
C2463 C 0.4996 0.69469 0.55942 0.0
C2464 C 0.49126 0.64338 0.62497 0.0
C2465 C 0.46218 0.64945 0.63342 0.0
C2466 C 0.48775 0.67946 0.58589 0.0
C2467 C 0.4469 0.67103 0.61758 0.0
C2468 C 0.48111 0.71186 0.54171 0.0
C2469 C 0.53974 0.70454 0.52703 0.0
N2470 N 0.45975 0.68507 0.59469 0.0
N2471 N 0.52835 0.69165 0.55151 0.0
H2472 H 0.79985 0.62773 0.74598 0.0
H2473 H 0.64675 0.59809 0.82591 0.0
H2474 H 0.77991 0.54891 0.79386 0.0
H2475 H 0.67437 0.68575 0.80485 0.0
H2476 H 0.69436 0.57963 0.8102 0.0
H2477 H 0.75353 0.64944 0.76371 0.0
C2478 C 0.78584 0.61509 0.76034 0.0
C2479 C 0.794 0.58662 0.7688 0.0
C2480 C 0.69033 0.60298 0.80934 0.0
C2481 C 0.74078 0.61104 0.78867 0.0
C2482 C 0.66305 0.61358 0.81832 0.0
C2483 C 0.65681 0.64368 0.81795 0.0
C2484 C 0.71172 0.62244 0.79891 0.0
C2485 C 0.67865 0.66255 0.80702 0.0
C2486 C 0.75947 0.6275 0.77051 0.0
C2487 C 0.77478 0.57108 0.78713 0.0
N2488 N 0.70513 0.65163 0.79789 0.0
N2489 N 0.74917 0.5834 0.79631 0.0
H2490 H 0.69508 0.52452 0.97834 0.0
H2491 H 0.64082 0.42709 0.1144 0.0
H2492 H 0.71483 0.54728 0.06794 0.0
H2493 H 0.64878 0.39487 0.02626 0.0
H2494 H 0.65947 0.47514 0.09784 0.0
H2495 H 0.66978 0.48074 0.99566 0.0
C2496 C 0.69394 0.52049 1.00169 0.0
C2497 C 0.70726 0.53973 1.02165 0.0
C2498 C 0.65677 0.45765 0.08208 0.0
C2499 C 0.67813 0.48931 0.0417 0.0
C2500 C 0.6459 0.43046 0.09147 0.0
C2501 C 0.64312 0.40731 0.07151 0.0
C2502 C 0.6646 0.46161 0.0525 0.0
C2503 C 0.65053 0.41235 0.04216 0.0
C2504 C 0.67953 0.49537 1.01156 0.0
C2505 C 0.70505 0.53308 0.05169 0.0
N2506 N 0.6609 0.43888 0.03353 0.0
N2507 N 0.69079 0.50845 0.0608 0.0
H2508 H 0.89784 0.38918 0.28997 0.0
H2509 H 0.75178 0.48251 0.31884 0.0
H2510 H 0.85446 0.39297 0.37368 0.0
H2511 H 0.7715 0.4458 0.23396 0.0
H2512 H 0.79477 0.4576 0.33886 0.0
H2513 H 0.85735 0.41805 0.26862 0.0
C2514 C 0.88027 0.39676 0.30402 0.0
C2515 C 0.87988 0.38929 0.33386 0.0
C2516 C 0.78954 0.45484 0.31588 0.0
C2517 C 0.83334 0.42174 0.30955 0.0
C2518 C 0.76474 0.46883 0.30443 0.0
C2519 C 0.75698 0.46531 0.27483 0.0
C2520 C 0.80748 0.43781 0.29752 0.0
C2521 C 0.77591 0.44849 0.25708 0.0
C2522 C 0.85698 0.41286 0.29176 0.0
C2523 C 0.85583 0.39863 0.35071 0.0
N2524 N 0.80022 0.4354 0.26867 0.0
N2525 N 0.8337 0.41441 0.33845 0.0
H2526 H 0.90228 0.61764 0.61537 0.0
H2527 H 0.86803 0.50854 0.48302 0.0
H2528 H 0.94867 0.61788 0.5333 0.0
H2529 H 0.82766 0.49962 0.56814 0.0
H2530 H 0.89988 0.54655 0.5026 0.0
H2531 H 0.87851 0.5713 0.60096 0.0
C2532 C 0.90812 0.60745 0.59479 0.0
C2533 C 0.92761 0.62142 0.57557 0.0
C2534 C 0.88419 0.53622 0.51712 0.0
C2535 C 0.89933 0.56961 0.55834 0.0
C2536 C 0.86588 0.51444 0.50589 0.0
C2537 C 0.84496 0.50072 0.52385 0.0
C2538 C 0.88156 0.54479 0.54657 0.0
C2539 C 0.84329 0.50962 0.55334 0.0
C2540 C 0.89421 0.58135 0.58637 0.0
C2541 C 0.93383 0.60769 0.54876 0.0
N2542 N 0.86118 0.53117 0.5637 0.0
N2543 N 0.91948 0.58289 0.54077 0.0
H2544 H 0.79921 0.47174 0.72573 0.0
H2545 H 0.64655 0.39868 0.77228 0.0
H2546 H 0.77103 0.45995 0.81525 0.0
H2547 H 0.67877 0.39551 0.68381 0.0
H2548 H 0.69295 0.42036 0.7881 0.0
H2549 H 0.7559 0.44437 0.7093 0.0
C2550 C 0.78397 0.46349 0.74196 0.0
C2551 C 0.7889 0.46829 0.77201 0.0
C2552 C 0.69024 0.41462 0.76525 0.0
C2553 C 0.73928 0.43679 0.75325 0.0
C2554 C 0.66384 0.40207 0.75634 0.0
C2555 C 0.65913 0.39512 0.72685 0.0
C2556 C 0.71209 0.42085 0.74442 0.0
C2557 C 0.68189 0.40026 0.70682 0.0
C2558 C 0.75931 0.44771 0.73252 0.0
C2559 C 0.76832 0.45693 0.79191 0.0
N2560 N 0.70735 0.41315 0.7159 0.0
N2561 N 0.74452 0.44187 0.78219 0.0
H2562 H 0.86291 0.53215 0.05912 0.0
H2563 H 0.87181 0.42128 0.92401 0.0
H2564 H 0.81512 0.54392 0.97831 0.0
H2565 H 0.92786 0.41425 0.99928 0.0
H2566 H 0.85277 0.4678 0.94254 0.0
H2567 H 0.88873 0.49052 0.03713 0.0
C2568 C 0.85789 0.5261 0.03674 0.0
C2569 C 0.83651 0.5415 1.0207 0.0
C2570 C 0.8696 0.45646 0.95488 0.0
C2571 C 0.8661 0.49373 0.99537 0.0
C2572 C 0.88049 0.42999 0.94415 0.0
C2573 C 0.90169 0.41425 0.95979 0.0
C2574 C 0.87961 0.46715 0.98195 0.0
C2575 C 0.91204 0.42611 0.98618 0.0
C2576 C 0.87273 0.50234 0.02417 0.0
C2577 C 0.83121 0.5327 0.99168 0.0
N2578 N 0.9007 0.45173 0.99659 0.0
N2579 N 0.8457 0.50935 0.98009 0.0
H2580 H 0.88522 0.60912 0.184 0.0
H2581 H 0.77169 0.60119 0.31797 0.0
H2582 H 0.88608 0.6736 0.25247 0.0
H2583 H 0.75828 0.5597 0.23417 0.0
H2584 H 0.81714 0.62333 0.29893 0.0
H2585 H 0.84285 0.58561 0.20712 0.0
C2586 C 0.87656 0.61808 0.20409 0.0
C2587 C 0.88921 0.64325 0.21619 0.0
C2588 C 0.80422 0.60934 0.2848 0.0
C2589 C 0.84045 0.61653 0.24301 0.0
C2590 C 0.77832 0.59658 0.29566 0.0
C2591 C 0.76099 0.57849 0.27766 0.0
C2592 C 0.81316 0.60359 0.25589 0.0
C2593 C 0.77072 0.57351 0.24889 0.0
C2594 C 0.85238 0.60476 0.21725 0.0
C2595 C 0.87734 0.65396 0.24257 0.0
N2596 N 0.79606 0.58583 0.23903 0.0
N2597 N 0.85352 0.64061 0.25507 0.0
H2598 H 0.6123 0.62876 0.51269 0.0
H2599 H 0.72882 0.50099 0.47743 0.0
H2600 H 0.66319 0.62822 0.43333 0.0
H2601 H 0.6876 0.51505 0.56139 0.0
H2602 H 0.70132 0.54306 0.4578 0.0
H2603 H 0.63461 0.5822 0.52696 0.0
C2604 C 0.62774 0.61835 0.49793 0.0
C2605 C 0.63567 0.63226 0.4717 0.0
C2606 C 0.69821 0.53678 0.48045 0.0
C2607 C 0.66231 0.57901 0.4883 0.0
C2608 C 0.71393 0.51272 0.49175 0.0
C2609 C 0.71064 0.50418 0.52126 0.0
C2610 C 0.67881 0.55242 0.49866 0.0
C2611 C 0.69088 0.5204 0.53854 0.0
C2612 C 0.64076 0.5919 0.5062 0.0
C2613 C 0.6562 0.61806 0.45356 0.0
N2614 N 0.67588 0.54352 0.52704 0.0
N2615 N 0.66901 0.59233 0.46229 0.0
H2616 H 0.81174 0.7815 0.54076 0.0
H2617 H 0.80513 0.67266 0.67891 0.0
H2618 H 0.75914 0.79812 0.61732 0.0
H2619 H 0.86788 0.66315 0.60902 0.0
H2620 H 0.78931 0.71945 0.65774 0.0
H2621 H 0.83352 0.73885 0.56559 0.0
C2622 C 0.80534 0.77659 0.56304 0.0
C2623 C 0.78429 0.794 0.57722 0.0
C2624 C 0.80694 0.70745 0.64728 0.0
C2625 C 0.80806 0.7443 0.60552 0.0
C2626 C 0.81637 0.6809 0.65975 0.0
C2627 C 0.83855 0.66428 0.64629 0.0
C2628 C 0.81936 0.71735 0.62078 0.0
C2629 C 0.85101 0.67544 0.62036 0.0
C2630 C 0.81745 0.75199 0.57712 0.0
C2631 C 0.77549 0.78552 0.60555 0.0
N2632 N 0.8412 0.70104 0.60842 0.0
N2633 N 0.78732 0.76141 0.61867 0.0
H2634 H 0.37786 0.8399 0.37347 0.0
H2635 H 0.23934 0.77541 0.45098 0.0
H2636 H 0.30481 0.89564 0.39483 0.0
H2637 H 0.32524 0.74833 0.48051 0.0
H2638 H 0.26196 0.81657 0.42526 0.0
H2639 H 0.35877 0.80266 0.40765 0.0
C2640 C 0.35824 0.84452 0.38606 0.0
C2641 C 0.34312 0.87095 0.38194 0.0
C2642 C 0.27581 0.80158 0.4374 0.0
C2643 C 0.32062 0.82836 0.41999 0.0
C2644 C 0.26296 0.77793 0.45203 0.0
C2645 C 0.28039 0.7577 0.46747 0.0
C2646 C 0.30642 0.80485 0.43755 0.0
C2647 C 0.31091 0.76264 0.46819 0.0
C2648 C 0.34729 0.82332 0.40536 0.0
C2649 C 0.31733 0.87574 0.39801 0.0
N2650 N 0.323 0.78537 0.45302 0.0
N2651 N 0.30661 0.85447 0.41601 0.0
H2652 H 0.43903 0.09293 0.61009 0.0
H2653 H 0.5171 0.99569 0.72798 0.0
H2654 H 0.39366 0.06394 0.68775 0.0
H2655 H 0.56374 0.07126 0.69588 0.0
H2656 H 0.47201 1.01471 0.70553 0.0
H2657 H 0.48614 0.08142 0.63429 0.0
C2658 C 0.43893 0.08499 0.63242 0.0
C2659 C 0.41228 0.07963 0.64699 0.0
C2660 C 0.49215 0.02713 0.70348 0.0
C2661 C 0.4657 0.065 0.67393 0.0
C2662 C 0.51783 1.01626 0.71618 0.0
C2663 C 0.54408 0.03204 0.714 0.0
C2664 C 0.49286 0.05355 0.68772 0.0
C2665 C 0.54384 0.05862 0.69838 0.0
C2666 C 0.46576 0.07812 0.64605 0.0
C2667 C 0.41359 0.06823 0.67559 0.0
N2668 N 0.51867 0.06843 0.6855 0.0
N2669 N 0.43967 0.06087 0.68787 0.0
H2670 H 0.22662 0.2937 0.98494 0.0
H2671 H 0.25727 0.15858 0.87568 0.0
H2672 H 0.30911 0.27956 0.94052 0.0
H2673 H 0.17695 0.16934 0.92367 0.0
H2674 H 0.27478 0.20562 0.89528 0.0
H2675 H 0.20644 0.25079 0.95976 0.0
C2676 C 0.24052 0.28169 0.96988 0.0
C2677 C 0.26978 0.29034 0.96514 0.0
C2678 C 0.25313 0.19795 0.90132 0.0
C2679 C 0.24662 0.24097 0.93597 0.0
C2680 C 0.24304 0.17128 0.88982 0.0
C2681 C 0.21549 0.16031 0.89796 0.0
C2682 C 0.23557 0.21374 0.92128 0.0
C2683 C 0.19826 0.17717 0.91705 0.0
C2684 C 0.22893 0.25714 0.95545 0.0
C2685 C 0.28652 0.2738 0.94513 0.0
N2686 N 0.20853 0.2029 0.92816 0.0
N2687 N 0.27478 0.25002 0.93145 0.0
H2688 H 0.50671 0.55845 0.67354 0.0
H2689 H 0.62347 0.42686 0.66439 0.0
H2690 H 0.50074 0.47848 0.72351 0.0
H2691 H 0.63329 0.50695 0.616 0.0
H2692 H 0.57503 0.44356 0.68139 0.0
H2693 H 0.54996 0.53869 0.6483 0.0
C2694 C 0.51436 0.53676 0.67921 0.0
C2695 C 0.50014 0.52042 0.70115 0.0
C2696 C 0.58761 0.45743 0.66689 0.0
C2697 C 0.54968 0.49744 0.67198 0.0
C2698 C 0.61506 0.44779 0.65707 0.0
C2699 C 0.63208 0.46545 0.63867 0.0
C2700 C 0.57728 0.48532 0.65884 0.0
C2701 C 0.62051 0.49255 0.62984 0.0
C2702 C 0.53907 0.52544 0.66469 0.0
C2703 C 0.51098 0.49216 0.70707 0.0
N2704 N 0.59396 0.50183 0.64025 0.0
N2705 N 0.53505 0.48174 0.69276 0.0
H2706 H 0.73208 0.25088 0.07409 0.0
H2707 H 0.75959 0.38738 0.18162 0.0
H2708 H 0.81533 0.26712 0.11618 0.0
H2709 H 0.68317 0.37772 0.12738 0.0
H2710 H 0.77791 0.33985 0.16372 0.0
H2711 H 0.71168 0.29368 0.0987 0.0
C2712 C 0.74611 0.26326 0.08866 0.0
C2713 C 0.77563 0.25518 0.0929 0.0
C2714 C 0.75693 0.3479 0.156 0.0
C2715 C 0.75211 0.3047 0.12137 0.0
C2716 C 0.74635 0.37483 0.16648 0.0
C2717 C 0.71969 0.38618 0.15608 0.0
C2718 C 0.74065 0.33223 0.135 0.0
C2719 C 0.70376 0.36951 0.13584 0.0
C2720 C 0.73437 0.28783 0.10273 0.0
C2721 C 0.79249 0.27231 0.11221 0.0
N2722 N 0.71444 0.34349 0.12593 0.0
N2723 N 0.78055 0.29625 0.1256 0.0
H2724 H 0.54202 0.98688 0.80041 0.0
H2725 H 0.42496 1.0025 0.93254 0.0
H2726 H 0.54594 0.05544 0.8652 0.0
H2727 H 0.41951 0.9371 0.86497 0.0
H2728 H 0.47183 1.01935 0.91139 0.0
H2729 H 0.49963 0.966 0.82617 0.0
C2730 C 0.53428 0.9974 0.82023 0.0
C2731 C 0.54808 0.02289 0.83066 0.0
C2732 C 0.46061 1.001 0.90143 0.0
C2733 C 0.49876 0.99915 0.86032 0.0
C2734 C 0.43401 0.99113 0.91381 0.0
C2735 C 0.41835 0.96804 0.90081 0.0
C2736 C 0.47174 0.98779 0.87576 0.0
C2737 C 0.43083 0.95482 0.87584 0.0
C2738 C 0.50987 0.98551 0.83491 0.0
C2739 C 0.53632 0.03574 0.85623 0.0
N2740 N 0.4565 0.96488 0.86416 0.0
N2741 N 0.51253 0.02382 0.87005 0.0
H2742 H 1.01948 0.04426 0.29784 0.0
H2743 H 0.08373 0.10969 0.44742 0.0
H2744 H 0.97596 0.0373 0.38131 0.0
H2745 H 0.14189 0.07564 0.38133 0.0
H2746 H 0.04161 0.09561 0.41733 0.0
H2747 H 0.06214 0.06678 0.32257 0.0
C2748 C 1.01876 0.04784 0.32128 0.0
C2749 C 0.99405 0.03912 0.33755 0.0
C2750 C 0.06356 0.09168 0.40909 0.0
C2751 C 0.04255 0.06489 0.36584 0.0
C2752 C 0.08762 0.09993 0.42616 0.0
C2753 C 0.11645 0.09404 0.41689 0.0
C2754 C 0.06807 0.07745 0.38223 0.0
C2755 C 0.12015 0.08111 0.38915 0.0
C2756 C 0.04314 0.0605 0.33536 0.0
C2757 C 0.99448 0.04378 0.36792 0.0
N2758 N 0.09625 0.07309 0.37285 0.0
N2759 N 1.01816 0.05644 0.38099 0.0
loop_
_geom_bond_atom_site_label_1
_geom_bond_atom_site_label_2
_geom_bond_distance
_geom_bond_site_symmetry_2
_ccdc_geom_bond_type
Co0 N1 2.034 . S
Co0 O15 2.262 . S
Co0 O19 1.958 . S
Co0 O23 1.950 . S
Co0 O24 2.057 . S
N1 Co0 2.034 . S
N1 C2 1.366 . S
N1 C4 1.332 . S
C2 N1 1.366 . S
C2 C5 1.377 . S
C2 H34 0.931 . S
N3 C4 1.346 . S
N3 C5 1.337 . S
C4 N1 1.332 . S
C4 N3 1.346 . S
C4 C38 1.361 . S
C5 C2 1.377 . S
C5 N3 1.337 . S
C5 H41 0.930 . S
Co6 N7 2.034 . S
Co6 O20 1.950 . S
Co6 O21 2.262 . S
Co6 O22 1.958 . S
Co6 O26 2.057 . S
N7 Co6 2.034 . S
N7 C10 1.366 . S
N7 C11 1.332 . S
N8 C9 1.337 . S
N8 C11 1.346 . S
C9 N8 1.337 . S
C9 C10 1.377 . S
C9 H42 0.930 . S
C10 N7 1.366 . S
C10 C9 1.377 . S
C10 H14 0.931 . S
C11 N7 1.332 . S
C11 N8 1.346 . S
C11 C28 1.361 . S
Co12 O15 2.097 1_455 S
Co12 O16 2.065 . S
Co12 O17 2.065 1_455 S
Co12 O18 2.042 1_455 S
Co12 O21 2.097 . S
Co12 O25 2.042 . S
C13 O21 1.252 1_655 S
C13 O26 1.261 1_655 S
H14 C10 0.931 . S
O15 Co0 2.262 . S
O15 Co12 2.097 1_655 S
O15 C39 1.251 1_655 S
O16 Co12 2.065 . S
O16 C32 1.221 . S
O17 Co12 2.065 1_655 S
O17 C27 1.221 . S
O18 Co12 2.042 1_655 S
O18 C33 1.237 . S
O19 Co0 1.958 . S
O19 C33 1.278 . S
O20 Co6 1.950 . S
O20 C32 1.277 . S
O21 Co6 2.262 . S
O21 Co12 2.097 . S
O21 C13 1.252 1_455 S
O22 Co6 1.958 . S
O22 C40 1.278 . S
O23 Co0 1.950 . S
O23 C27 1.277 . S
O24 Co0 2.057 . S
O24 C39 1.254 1_655 S
O25 Co12 2.042 . S
O25 C40 1.237 . S
O26 Co6 2.057 . S
O26 C13 1.261 1_455 S
C27 O17 1.221 . S
C27 O23 1.277 . S
C28 C11 1.361 . S
C28 H29 0.960 . S
C28 H30 0.961 . S
C28 H31 0.961 . S
H29 C28 0.960 . S
H30 C28 0.961 . S
H31 C28 0.961 . S
C32 O16 1.221 . S
C32 O20 1.277 . S
C33 O18 1.237 . S
C33 O19 1.278 . S
H34 C2 0.931 . S
H35 C38 0.961 . S
H36 C38 0.961 . S
H37 C38 0.960 . S
C38 C4 1.361 . S
C38 H35 0.961 . S
C38 H36 0.961 . S
C38 H37 0.960 . S
C39 O15 1.251 1_455 S
C39 O24 1.254 1_455 S
C40 O22 1.278 . S
C40 O25 1.237 . S
H41 C5 0.930 . S
H42 C9 0.930 . S
Co43 N44 2.034 . S
Co43 O58 2.262 . S
Co43 O62 1.958 . S
Co43 O66 1.950 . S
Co43 O67 2.057 . S
N44 Co43 2.034 . S
N44 C45 1.366 . S
N44 C47 1.332 . S
C45 N44 1.366 . S
C45 C48 1.377 . S
C45 H77 0.931 . S
N46 C47 1.346 . S
N46 C48 1.337 . S
C47 N44 1.332 . S
C47 N46 1.346 . S
C47 C81 1.361 . S
C48 C45 1.377 . S
C48 N46 1.337 . S
C48 H84 0.930 . S
Co49 N50 2.034 . S
Co49 O63 1.950 . S
Co49 O64 2.262 . S
Co49 O65 1.958 . S
Co49 O69 2.057 . S
N50 Co49 2.034 . S
N50 C53 1.366 . S
N50 C54 1.332 . S
N51 C52 1.337 . S
N51 C54 1.346 . S
C52 N51 1.337 . S
C52 C53 1.377 . S
C52 H85 0.930 . S
C53 N50 1.366 . S
C53 C52 1.377 . S
C53 H57 0.931 . S
C54 N50 1.332 . S
C54 N51 1.346 . S
C54 C71 1.361 . S
Co55 O58 2.097 1_455 S
Co55 O59 2.065 1_455 S
Co55 O60 2.065 . S
Co55 O61 2.042 . S
Co55 O64 2.097 . S
Co55 O68 2.042 1_455 S
C56 O64 1.253 . S
C56 O69 1.263 . S
H57 C53 0.931 . S
O58 Co43 2.262 . S
O58 Co55 2.097 1_655 S
O58 C82 1.253 . S
O59 Co55 2.065 1_655 S
O59 C75 1.221 1_655 S
O60 Co55 2.065 . S
O60 C70 1.221 1_455 S
O61 Co55 2.042 . S
O61 C76 1.237 1_455 S
O62 Co43 1.958 . S
O62 C76 1.278 . S
O63 Co49 1.950 . S
O63 C75 1.277 . S
O64 Co49 2.262 . S
O64 Co55 2.097 . S
O64 C56 1.253 . S
O65 Co49 1.958 . S
O65 C83 1.278 . S
O66 Co43 1.950 . S
O66 C70 1.277 . S
O67 Co43 2.057 . S
O67 C82 1.263 . S
O68 Co55 2.042 1_655 S
O68 C83 1.237 1_655 S
O69 Co49 2.057 . S
O69 C56 1.263 . S
C70 O60 1.221 1_655 S
C70 O66 1.277 . S
C71 C54 1.361 . S
C71 H72 0.960 . S
C71 H73 0.961 . S
C71 H74 0.961 . S
H72 C71 0.960 . S
H73 C71 0.961 . S
H74 C71 0.961 . S
C75 O59 1.221 1_455 S
C75 O63 1.277 . S
C76 O61 1.237 1_655 S
C76 O62 1.278 . S
H77 C45 0.931 . S
H78 C81 0.961 . S
H79 C81 0.961 . S
H80 C81 0.960 . S
C81 C47 1.361 . S
C81 H78 0.961 . S
C81 H79 0.961 . S
C81 H80 0.960 . S
C82 O58 1.253 . S
C82 O67 1.263 . S
C83 O65 1.278 . S
C83 O68 1.237 1_455 S
H84 C48 0.930 . S
H85 C52 0.930 . S
Co86 N87 2.034 . S
Co86 O101 2.262 . S
Co86 O105 1.958 . S
Co86 O109 1.950 . S
Co86 O110 2.057 . S
N87 Co86 2.034 . S
N87 C88 1.366 . S
N87 C90 1.332 . S
C88 N87 1.366 . S
C88 C91 1.377 . S
C88 H120 0.931 . S
N89 C90 1.346 . S
N89 C91 1.337 . S
C90 N87 1.332 . S
C90 N89 1.346 . S
C90 C124 1.361 . S
C91 C88 1.377 . S
C91 N89 1.337 . S
C91 H127 0.930 . S
Co92 N93 2.034 . S
Co92 O106 1.950 . S
Co92 O107 2.262 . S
Co92 O108 1.958 . S
Co92 O112 2.057 . S
N93 Co92 2.034 . S
N93 C96 1.366 . S
N93 C97 1.332 . S
N94 C95 1.337 . S
N94 C97 1.346 . S
C95 N94 1.337 . S
C95 C96 1.377 . S
C95 H128 0.930 . S
C96 N93 1.366 . S
C96 C95 1.377 . S
C96 H100 0.931 . S
C97 N93 1.332 . S
C97 N94 1.346 . S
C97 C114 1.361 . S
Co98 O101 2.097 . S
Co98 O102 2.065 . S
Co98 O103 2.065 . S
Co98 O104 2.042 . S
Co98 O107 2.097 . S
Co98 O111 2.042 . S
C99 O107 1.253 . S
C99 O112 1.263 . S
H100 C96 0.931 . S
O101 Co86 2.262 . S
O101 Co98 2.097 . S
O101 C125 1.253 . S
O102 Co98 2.065 . S
O102 C118 1.221 . S
O103 Co98 2.065 . S
O103 C113 1.221 . S
O104 Co98 2.042 . S
O104 C119 1.237 . S
O105 Co86 1.958 . S
O105 C119 1.278 . S
O106 Co92 1.950 . S
O106 C118 1.277 . S
O107 Co92 2.262 . S
O107 Co98 2.097 . S
O107 C99 1.253 . S
O108 Co92 1.958 . S
O108 C126 1.278 . S
O109 Co86 1.950 . S
O109 C113 1.277 . S
O110 Co86 2.057 . S
O110 C125 1.263 . S
O111 Co98 2.042 . S
O111 C126 1.237 . S
O112 Co92 2.057 . S
O112 C99 1.263 . S
C113 O103 1.221 . S
C113 O109 1.277 . S
C114 C97 1.361 . S
C114 H115 0.960 . S
C114 H116 0.961 . S
C114 H117 0.961 . S
H115 C114 0.960 . S
H116 C114 0.961 . S
H117 C114 0.961 . S
C118 O102 1.221 . S
C118 O106 1.277 . S
C119 O104 1.237 . S
C119 O105 1.278 . S
H120 C88 0.931 . S
H121 C124 0.961 . S
H122 C124 0.961 . S
H123 C124 0.960 . S
C124 C90 1.361 . S
C124 H121 0.961 . S
C124 H122 0.961 . S
C124 H123 0.960 . S
C125 O101 1.253 . S
C125 O110 1.263 . S
C126 O108 1.278 . S
C126 O111 1.237 . S
H127 C91 0.930 . S
H128 C95 0.930 . S
Co129 N130 2.034 . S
Co129 O144 2.262 . S
Co129 O148 1.958 . S
Co129 O152 1.950 . S
Co129 O153 2.057 . S
N130 Co129 2.034 . S
N130 C131 1.366 . S
N130 C133 1.332 . S
C131 N130 1.366 . S
C131 C134 1.377 . S
C131 H163 0.931 . S
N132 C133 1.346 . S
N132 C134 1.337 . S
C133 N130 1.332 . S
C133 N132 1.346 . S
C133 C167 1.361 . S
C134 C131 1.377 . S
C134 N132 1.337 . S
C134 H170 0.930 . S
Co135 N136 2.034 . S
Co135 O149 1.950 . S
Co135 O150 2.262 . S
Co135 O151 1.958 . S
Co135 O155 2.057 . S
N136 Co135 2.034 . S
N136 C139 1.366 . S
N136 C140 1.332 . S
N137 C138 1.337 . S
N137 C140 1.346 . S
C138 N137 1.337 . S
C138 C139 1.377 . S
C138 H171 0.930 . S
C139 N136 1.366 . S
C139 C138 1.377 . S
C139 H143 0.931 . S
C140 N136 1.332 . S
C140 N137 1.346 . S
C140 C157 1.361 . S
Co141 O144 2.097 . S
Co141 O145 2.065 . S
Co141 O146 2.065 . S
Co141 O147 2.042 . S
Co141 O150 2.097 . S
Co141 O154 2.042 . S
C142 O150 1.253 . S
C142 O155 1.263 . S
H143 C139 0.931 . S
O144 Co129 2.262 . S
O144 Co141 2.097 . S
O144 C168 1.253 . S
O145 Co141 2.065 . S
O145 C161 1.221 . S
O146 Co141 2.065 . S
O146 C156 1.221 . S
O147 Co141 2.042 . S
O147 C162 1.237 . S
O148 Co129 1.958 . S
O148 C162 1.278 . S
O149 Co135 1.950 . S
O149 C161 1.277 . S
O150 Co135 2.262 . S
O150 Co141 2.097 . S
O150 C142 1.253 . S
O151 Co135 1.958 . S
O151 C169 1.278 . S
O152 Co129 1.950 . S
O152 C156 1.277 . S
O153 Co129 2.057 . S
O153 C168 1.263 . S
O154 Co141 2.042 . S
O154 C169 1.237 . S
O155 Co135 2.057 . S
O155 C142 1.263 . S
C156 O146 1.221 . S
C156 O152 1.277 . S
C157 C140 1.361 . S
C157 H158 0.960 . S
C157 H159 0.961 . S
C157 H160 0.961 . S
H158 C157 0.960 . S
H159 C157 0.961 . S
H160 C157 0.961 . S
C161 O145 1.221 . S
C161 O149 1.277 . S
C162 O147 1.237 . S
C162 O148 1.278 . S
H163 C131 0.931 . S
H164 C167 0.961 . S
H165 C167 0.961 . S
H166 C167 0.960 . S
C167 C133 1.361 . S
C167 H164 0.961 . S
C167 H165 0.961 . S
C167 H166 0.960 . S
C168 O144 1.253 . S
C168 O153 1.263 . S
C169 O151 1.278 . S
C169 O154 1.237 . S
H170 C134 0.930 . S
H171 C138 0.930 . S
Co172 N173 2.034 . S
Co172 O187 2.262 . S
Co172 O191 1.958 . S
Co172 O195 1.950 . S
Co172 O196 2.057 . S
N173 Co172 2.034 . S
N173 C174 1.366 . S
N173 C176 1.332 . S
C174 N173 1.366 . S
C174 C177 1.377 . S
C174 H206 0.931 . S
N175 C176 1.346 . S
N175 C177 1.337 . S
C176 N173 1.332 . S
C176 N175 1.346 . S
C176 C210 1.361 . S
C177 C174 1.377 . S
C177 N175 1.337 . S
C177 H213 0.930 . S
Co178 N179 2.034 . S
Co178 O192 1.950 . S
Co178 O193 2.262 . S
Co178 O194 1.958 . S
Co178 O198 2.057 . S
N179 Co178 2.034 . S
N179 C182 1.366 . S
N179 C183 1.332 . S
N180 C181 1.337 . S
N180 C183 1.346 . S
C181 N180 1.337 . S
C181 C182 1.377 . S
C181 H214 0.930 . S
C182 N179 1.366 . S
C182 C181 1.377 . S
C182 H186 0.931 . S
C183 N179 1.332 . S
C183 N180 1.346 . S
C183 C200 1.361 . S
Co184 O187 2.097 . S
Co184 O188 2.065 1_455 S
Co184 O189 2.065 . S
Co184 O190 2.042 . S
Co184 O193 2.097 1_455 S
Co184 O197 2.042 1_455 S
C185 O193 1.251 1_455 S
C185 O198 1.254 1_455 S
H186 C182 0.931 . S
O187 Co172 2.262 . S
O187 Co184 2.097 . S
O187 C211 1.252 1_455 S
O188 Co184 2.065 1_655 S
O188 C204 1.221 . S
O189 Co184 2.065 . S
O189 C199 1.221 . S
O190 Co184 2.042 . S
O190 C205 1.237 . S
O191 Co172 1.958 . S
O191 C205 1.278 . S
O192 Co178 1.950 . S
O192 C204 1.277 . S
O193 Co178 2.262 . S
O193 Co184 2.097 1_655 S
O193 C185 1.251 1_655 S
O194 Co178 1.958 . S
O194 C212 1.278 . S
O195 Co172 1.950 . S
O195 C199 1.277 . S
O196 Co172 2.057 . S
O196 C211 1.261 1_455 S
O197 Co184 2.042 1_655 S
O197 C212 1.237 . S
O198 Co178 2.057 . S
O198 C185 1.254 1_655 S
C199 O189 1.221 . S
C199 O195 1.277 . S
C200 C183 1.361 . S
C200 H201 0.960 . S
C200 H202 0.961 . S
C200 H203 0.961 . S
H201 C200 0.960 . S
H202 C200 0.961 . S
H203 C200 0.961 . S
C204 O188 1.221 . S
C204 O192 1.277 . S
C205 O190 1.237 . S
C205 O191 1.278 . S
H206 C174 0.931 . S
H207 C210 0.961 . S
H208 C210 0.961 . S
H209 C210 0.960 . S
C210 C176 1.361 . S
C210 H207 0.961 . S
C210 H208 0.961 . S
C210 H209 0.960 . S
C211 O187 1.252 1_655 S
C211 O196 1.261 1_655 S
C212 O194 1.278 . S
C212 O197 1.237 . S
H213 C177 0.930 . S
H214 C181 0.930 . S
Co215 N216 2.034 . S
Co215 O230 2.262 . S
Co215 O234 1.958 . S
Co215 O238 1.950 . S
Co215 O239 2.057 . S
N216 Co215 2.034 . S
N216 C217 1.366 . S
N216 C219 1.332 . S
C217 N216 1.366 . S
C217 C220 1.377 . S
C217 H249 0.931 . S
N218 C219 1.346 . S
N218 C220 1.337 . S
C219 N216 1.332 . S
C219 N218 1.346 . S
C219 C253 1.361 . S
C220 C217 1.377 . S
C220 N218 1.337 . S
C220 H256 0.930 . S
Co221 N222 2.034 . S
Co221 O235 1.950 . S
Co221 O236 2.262 . S
Co221 O237 1.958 . S
Co221 O241 2.057 . S
N222 Co221 2.034 . S
N222 C225 1.366 . S
N222 C226 1.332 . S
N223 C224 1.337 . S
N223 C226 1.346 . S
C224 N223 1.337 . S
C224 C225 1.377 . S
C224 H257 0.930 . S
C225 N222 1.366 . S
C225 C224 1.377 . S
C225 H229 0.931 . S
C226 N222 1.332 . S
C226 N223 1.346 . S
C226 C243 1.361 . S
Co227 O230 2.097 . S
Co227 O231 2.065 . S
Co227 O232 2.065 . S
Co227 O233 2.042 . S
Co227 O236 2.097 . S
Co227 O240 2.042 . S
C228 O236 1.253 . S
C228 O241 1.263 . S
H229 C225 0.931 . S
O230 Co215 2.262 . S
O230 Co227 2.097 . S
O230 C254 1.253 . S
O231 Co227 2.065 . S
O231 C247 1.221 . S
O232 Co227 2.065 . S
O232 C242 1.221 . S
O233 Co227 2.042 . S
O233 C248 1.237 . S
O234 Co215 1.958 . S
O234 C248 1.278 . S
O235 Co221 1.950 . S
O235 C247 1.277 . S
O236 Co221 2.262 . S
O236 Co227 2.097 . S
O236 C228 1.253 . S
O237 Co221 1.958 . S
O237 C255 1.278 . S
O238 Co215 1.950 . S
O238 C242 1.277 . S
O239 Co215 2.057 . S
O239 C254 1.263 . S
O240 Co227 2.042 . S
O240 C255 1.237 . S
O241 Co221 2.057 . S
O241 C228 1.263 . S
C242 O232 1.221 . S
C242 O238 1.277 . S
C243 C226 1.361 . S
C243 H244 0.960 . S
C243 H245 0.961 . S
C243 H246 0.961 . S
H244 C243 0.960 . S
H245 C243 0.961 . S
H246 C243 0.961 . S
C247 O231 1.221 . S
C247 O235 1.277 . S
C248 O233 1.237 . S
C248 O234 1.278 . S
H249 C217 0.931 . S
H250 C253 0.961 . S
H251 C253 0.961 . S
H252 C253 0.960 . S
C253 C219 1.361 . S
C253 H250 0.961 . S
C253 H251 0.961 . S
C253 H252 0.960 . S
C254 O230 1.253 . S
C254 O239 1.263 . S
C255 O237 1.278 . S
C255 O240 1.237 . S
H256 C220 0.930 . S
H257 C224 0.930 . S
Co258 N259 2.034 . S
Co258 O273 2.262 . S
Co258 O277 1.958 . S
Co258 O281 1.950 . S
Co258 O282 2.057 . S
N259 Co258 2.034 . S
N259 C260 1.366 . S
N259 C262 1.332 . S
C260 N259 1.366 . S
C260 C263 1.377 . S
C260 H292 0.931 . S
N261 C262 1.346 . S
N261 C263 1.337 . S
C262 N259 1.332 . S
C262 N261 1.346 . S
C262 C296 1.361 . S
C263 C260 1.377 . S
C263 N261 1.337 . S
C263 H299 0.930 . S
Co264 N265 2.034 . S
Co264 O278 1.950 . S
Co264 O279 2.262 . S
Co264 O280 1.958 . S
Co264 O284 2.057 . S
N265 Co264 2.034 . S
N265 C268 1.366 . S
N265 C269 1.332 . S
N266 C267 1.337 . S
N266 C269 1.346 . S
C267 N266 1.337 . S
C267 C268 1.377 . S
C267 H300 0.930 . S
C268 N265 1.366 . S
C268 C267 1.377 . S
C268 H272 0.931 . S
C269 N265 1.332 . S
C269 N266 1.346 . S
C269 C286 1.361 . S
Co270 O273 2.097 . S
Co270 O274 2.065 . S
Co270 O275 2.065 . S
Co270 O276 2.042 . S
Co270 O279 2.097 . S
Co270 O283 2.042 . S
C271 O279 1.253 . S
C271 O284 1.263 . S
H272 C268 0.931 . S
O273 Co258 2.262 . S
O273 Co270 2.097 . S
O273 C297 1.253 . S
O274 Co270 2.065 . S
O274 C290 1.221 . S
O275 Co270 2.065 . S
O275 C285 1.221 . S
O276 Co270 2.042 . S
O276 C291 1.237 . S
O277 Co258 1.958 . S
O277 C291 1.278 . S
O278 Co264 1.950 . S
O278 C290 1.277 . S
O279 Co264 2.262 . S
O279 Co270 2.097 . S
O279 C271 1.253 . S
O280 Co264 1.958 . S
O280 C298 1.278 . S
O281 Co258 1.950 . S
O281 C285 1.277 . S
O282 Co258 2.057 . S
O282 C297 1.263 . S
O283 Co270 2.042 . S
O283 C298 1.237 . S
O284 Co264 2.057 . S
O284 C271 1.263 . S
C285 O275 1.221 . S
C285 O281 1.277 . S
C286 C269 1.361 . S
C286 H287 0.960 . S
C286 H288 0.961 . S
C286 H289 0.961 . S
H287 C286 0.960 . S
H288 C286 0.961 . S
H289 C286 0.961 . S
C290 O274 1.221 . S
C290 O278 1.277 . S
C291 O276 1.237 . S
C291 O277 1.278 . S
H292 C260 0.931 . S
H293 C296 0.961 . S
H294 C296 0.961 . S
H295 C296 0.960 . S
C296 C262 1.361 . S
C296 H293 0.961 . S
C296 H294 0.961 . S
C296 H295 0.960 . S
C297 O273 1.253 . S
C297 O282 1.263 . S
C298 O280 1.278 . S
C298 O283 1.237 . S
H299 C263 0.930 . S
H300 C267 0.930 . S
Co301 N302 2.034 . S
Co301 O316 2.262 . S
Co301 O320 1.958 . S
Co301 O324 1.950 . S
Co301 O325 2.057 . S
N302 Co301 2.034 . S
N302 C303 1.366 . S
N302 C305 1.332 . S
C303 N302 1.366 . S
C303 C306 1.377 . S
C303 H335 0.931 . S
N304 C305 1.346 . S
N304 C306 1.337 . S
C305 N302 1.332 . S
C305 N304 1.346 . S
C305 C339 1.361 . S
C306 C303 1.377 . S
C306 N304 1.337 . S
C306 H342 0.930 . S
Co307 N308 2.034 . S
Co307 O321 1.950 . S
Co307 O322 2.262 . S
Co307 O323 1.958 . S
Co307 O327 2.057 . S
N308 Co307 2.034 . S
N308 C311 1.366 . S
N308 C312 1.332 . S
N309 C310 1.337 . S
N309 C312 1.346 . S
C310 N309 1.337 . S
C310 C311 1.377 . S
C310 H343 0.930 . S
C311 N308 1.366 . S
C311 C310 1.377 . S
C311 H315 0.931 . S
C312 N308 1.332 . S
C312 N309 1.346 . S
C312 C329 1.361 . S
Co313 O316 2.097 1_455 S
Co313 O317 2.065 1_455 S
Co313 O318 2.065 . S
Co313 O319 2.042 . S
Co313 O322 2.097 . S
Co313 O326 2.042 1_455 S
C314 O322 1.253 . S
C314 O327 1.263 . S
H315 C311 0.931 . S
O316 Co301 2.262 . S
O316 Co313 2.097 1_655 S
O316 C340 1.253 . S
O317 Co313 2.065 1_655 S
O317 C333 1.221 1_655 S
O318 Co313 2.065 . S
O318 C328 1.221 1_455 S
O319 Co313 2.042 . S
O319 C334 1.237 1_455 S
O320 Co301 1.958 . S
O320 C334 1.278 . S
O321 Co307 1.950 . S
O321 C333 1.277 . S
O322 Co307 2.262 . S
O322 Co313 2.097 . S
O322 C314 1.253 . S
O323 Co307 1.958 . S
O323 C341 1.278 . S
O324 Co301 1.950 . S
O324 C328 1.277 . S
O325 Co301 2.057 . S
O325 C340 1.263 . S
O326 Co313 2.042 1_655 S
O326 C341 1.237 1_655 S
O327 Co307 2.057 . S
O327 C314 1.263 . S
C328 O318 1.221 1_655 S
C328 O324 1.277 . S
C329 C312 1.361 . S
C329 H330 0.960 . S
C329 H331 0.961 . S
C329 H332 0.961 . S
H330 C329 0.960 . S
H331 C329 0.961 . S
H332 C329 0.961 . S
C333 O317 1.221 1_455 S
C333 O321 1.277 . S
C334 O319 1.237 1_655 S
C334 O320 1.278 . S
H335 C303 0.931 . S
H336 C339 0.961 . S
H337 C339 0.961 . S
H338 C339 0.960 . S
C339 C305 1.361 . S
C339 H336 0.961 . S
C339 H337 0.961 . S
C339 H338 0.960 . S
C340 O316 1.253 . S
C340 O325 1.263 . S
C341 O323 1.278 . S
C341 O326 1.237 1_455 S
H342 C306 0.930 . S
H343 C310 0.930 . S
Co344 N345 2.034 . S
Co344 O359 2.262 . S
Co344 O363 1.958 . S
Co344 O367 1.950 . S
Co344 O368 2.057 . S
N345 Co344 2.034 . S
N345 C346 1.366 . S
N345 C348 1.332 . S
C346 N345 1.366 . S
C346 C349 1.377 . S
C346 H378 0.931 . S
N347 C348 1.346 . S
N347 C349 1.337 . S
C348 N345 1.332 . S
C348 N347 1.346 . S
C348 C382 1.361 . S
C349 C346 1.377 . S
C349 N347 1.337 . S
C349 H385 0.930 . S
Co350 N351 2.034 . S
Co350 O364 1.950 . S
Co350 O365 2.262 . S
Co350 O366 1.958 . S
Co350 O370 2.057 . S
N351 Co350 2.034 . S
N351 C354 1.366 . S
N351 C355 1.332 . S
N352 C353 1.337 . S
N352 C355 1.346 . S
C353 N352 1.337 . S
C353 C354 1.377 . S
C353 H386 0.930 . S
C354 N351 1.366 . S
C354 C353 1.377 . S
C354 H358 0.931 . S
C355 N351 1.332 . S
C355 N352 1.346 . S
C355 C372 1.361 . S
Co356 O359 2.097 1_545 S
Co356 O360 2.065 . S
Co356 O361 2.065 1_545 S
Co356 O362 2.042 1_545 S
Co356 O365 2.097 . S
Co356 O369 2.042 . S
C357 O365 1.252 1_565 S
C357 O370 1.261 1_565 S
H358 C354 0.931 . S
O359 Co344 2.262 . S
O359 Co356 2.097 1_565 S
O359 C383 1.251 1_565 S
O360 Co356 2.065 . S
O360 C376 1.221 . S
O361 Co356 2.065 1_565 S
O361 C371 1.221 . S
O362 Co356 2.042 1_565 S
O362 C377 1.237 . S
O363 Co344 1.958 . S
O363 C377 1.278 . S
O364 Co350 1.950 . S
O364 C376 1.277 . S
O365 Co350 2.262 . S
O365 Co356 2.097 . S
O365 C357 1.252 1_545 S
O366 Co350 1.958 . S
O366 C384 1.278 . S
O367 Co344 1.950 . S
O367 C371 1.277 . S
O368 Co344 2.057 . S
O368 C383 1.254 1_565 S
O369 Co356 2.042 . S
O369 C384 1.237 . S
O370 Co350 2.057 . S
O370 C357 1.261 1_545 S
C371 O361 1.221 . S
C371 O367 1.277 . S
C372 C355 1.361 . S
C372 H373 0.960 . S
C372 H374 0.961 . S
C372 H375 0.961 . S
H373 C372 0.960 . S
H374 C372 0.961 . S
H375 C372 0.961 . S
C376 O360 1.221 . S
C376 O364 1.277 . S
C377 O362 1.237 . S
C377 O363 1.278 . S
H378 C346 0.931 . S
H379 C382 0.961 . S
H380 C382 0.961 . S
H381 C382 0.960 . S
C382 C348 1.361 . S
C382 H379 0.961 . S
C382 H380 0.961 . S
C382 H381 0.960 . S
C383 O359 1.251 1_545 S
C383 O368 1.254 1_545 S
C384 O366 1.278 . S
C384 O369 1.237 . S
H385 C349 0.930 . S
H386 C353 0.930 . S
Co387 N388 2.034 . S
Co387 O402 2.262 . S
Co387 O406 1.958 . S
Co387 O410 1.950 . S
Co387 O411 2.057 . S
N388 Co387 2.034 . S
N388 C389 1.366 . S
N388 C391 1.332 . S
C389 N388 1.366 . S
C389 C392 1.377 . S
C389 H421 0.931 . S
N390 C391 1.346 . S
N390 C392 1.337 . S
C391 N388 1.332 . S
C391 N390 1.346 . S
C391 C425 1.361 . S
C392 C389 1.377 . S
C392 N390 1.337 . S
C392 H428 0.930 . S
Co393 N394 2.034 . S
Co393 O407 1.950 . S
Co393 O408 2.262 . S
Co393 O409 1.958 . S
Co393 O413 2.057 . S
N394 Co393 2.034 . S
N394 C397 1.366 . S
N394 C398 1.332 . S
N395 C396 1.337 . S
N395 C398 1.346 . S
C396 N395 1.337 . S
C396 C397 1.377 . S
C396 H429 0.930 . S
C397 N394 1.366 . S
C397 C396 1.377 . S
C397 H401 0.931 . S
C398 N394 1.332 . S
C398 N395 1.346 . S
C398 C415 1.361 . S
Co399 O402 2.097 . S
Co399 O403 2.065 . S
Co399 O404 2.065 . S
Co399 O405 2.042 . S
Co399 O408 2.097 . S
Co399 O412 2.042 . S
C400 O408 1.253 . S
C400 O413 1.263 . S
H401 C397 0.931 . S
O402 Co387 2.262 . S
O402 Co399 2.097 . S
O402 C426 1.253 . S
O403 Co399 2.065 . S
O403 C419 1.221 . S
O404 Co399 2.065 . S
O404 C414 1.221 . S
O405 Co399 2.042 . S
O405 C420 1.237 . S
O406 Co387 1.958 . S
O406 C420 1.278 . S
O407 Co393 1.950 . S
O407 C419 1.277 . S
O408 Co393 2.262 . S
O408 Co399 2.097 . S
O408 C400 1.253 . S
O409 Co393 1.958 . S
O409 C427 1.278 . S
O410 Co387 1.950 . S
O410 C414 1.277 . S
O411 Co387 2.057 . S
O411 C426 1.263 . S
O412 Co399 2.042 . S
O412 C427 1.237 . S
O413 Co393 2.057 . S
O413 C400 1.263 . S
C414 O404 1.221 . S
C414 O410 1.277 . S
C415 C398 1.361 . S
C415 H416 0.960 . S
C415 H417 0.961 . S
C415 H418 0.961 . S
H416 C415 0.960 . S
H417 C415 0.961 . S
H418 C415 0.961 . S
C419 O403 1.221 . S
C419 O407 1.277 . S
C420 O405 1.237 . S
C420 O406 1.278 . S
H421 C389 0.931 . S
H422 C425 0.961 . S
H423 C425 0.961 . S
H424 C425 0.960 . S
C425 C391 1.361 . S
C425 H422 0.961 . S
C425 H423 0.961 . S
C425 H424 0.960 . S
C426 O402 1.253 . S
C426 O411 1.263 . S
C427 O409 1.278 . S
C427 O412 1.237 . S
H428 C392 0.930 . S
H429 C396 0.930 . S
Co430 N431 2.034 . S
Co430 O445 2.262 . S
Co430 O449 1.958 . S
Co430 O453 1.950 . S
Co430 O454 2.057 . S
N431 Co430 2.034 . S
N431 C432 1.366 . S
N431 C434 1.332 . S
C432 N431 1.366 . S
C432 C435 1.377 . S
C432 H464 0.931 . S
N433 C434 1.346 . S
N433 C435 1.337 . S
C434 N431 1.332 . S
C434 N433 1.346 . S
C434 C468 1.361 . S
C435 C432 1.377 . S
C435 N433 1.337 . S
C435 H471 0.930 . S
Co436 N437 2.034 . S
Co436 O450 1.950 . S
Co436 O451 2.262 . S
Co436 O452 1.958 . S
Co436 O456 2.057 . S
N437 Co436 2.034 . S
N437 C440 1.366 . S
N437 C441 1.332 . S
N438 C439 1.337 . S
N438 C441 1.346 . S
C439 N438 1.337 . S
C439 C440 1.377 . S
C439 H472 0.930 . S
C440 N437 1.366 . S
C440 C439 1.377 . S
C440 H444 0.931 . S
C441 N437 1.332 . S
C441 N438 1.346 . S
C441 C458 1.361 . S
Co442 O445 2.097 1_545 S
Co442 O446 2.065 . S
Co442 O447 2.065 1_545 S
Co442 O448 2.042 1_545 S
Co442 O451 2.097 . S
Co442 O455 2.042 . S
C443 O451 1.252 1_565 S
C443 O456 1.261 1_565 S
H444 C440 0.931 . S
O445 Co430 2.262 . S
O445 Co442 2.097 1_565 S
O445 C469 1.251 1_565 S
O446 Co442 2.065 . S
O446 C462 1.221 . S
O447 Co442 2.065 1_565 S
O447 C457 1.221 . S
O448 Co442 2.042 1_565 S
O448 C463 1.237 . S
O449 Co430 1.958 . S
O449 C463 1.278 . S
O450 Co436 1.950 . S
O450 C462 1.277 . S
O451 Co436 2.262 . S
O451 Co442 2.097 . S
O451 C443 1.252 1_545 S
O452 Co436 1.958 . S
O452 C470 1.278 . S
O453 Co430 1.950 . S
O453 C457 1.277 . S
O454 Co430 2.057 . S
O454 C469 1.254 1_565 S
O455 Co442 2.042 . S
O455 C470 1.237 . S
O456 Co436 2.057 . S
O456 C443 1.261 1_545 S
C457 O447 1.221 . S
C457 O453 1.277 . S
C458 C441 1.361 . S
C458 H459 0.960 . S
C458 H460 0.961 . S
C458 H461 0.961 . S
H459 C458 0.960 . S
H460 C458 0.961 . S
H461 C458 0.961 . S
C462 O446 1.221 . S
C462 O450 1.277 . S
C463 O448 1.237 . S
C463 O449 1.278 . S
H464 C432 0.931 . S
H465 C468 0.961 . S
H466 C468 0.961 . S
H467 C468 0.960 . S
C468 C434 1.361 . S
C468 H465 0.961 . S
C468 H466 0.961 . S
C468 H467 0.960 . S
C469 O445 1.251 1_545 S
C469 O454 1.254 1_545 S
C470 O452 1.278 . S
C470 O455 1.237 . S
H471 C435 0.930 . S
H472 C439 0.930 . S
Co473 N474 2.034 . S
Co473 O488 2.262 . S
Co473 O492 1.958 . S
Co473 O496 1.950 . S
Co473 O497 2.057 . S
N474 Co473 2.034 . S
N474 C475 1.366 . S
N474 C477 1.332 . S
C475 N474 1.366 . S
C475 C478 1.377 . S
C475 H507 0.931 . S
N476 C477 1.346 . S
N476 C478 1.337 . S
C477 N474 1.332 . S
C477 N476 1.346 . S
C477 C511 1.361 . S
C478 C475 1.377 . S
C478 N476 1.337 . S
C478 H514 0.930 . S
Co479 N480 2.034 . S
Co479 O493 1.950 . S
Co479 O494 2.262 . S
Co479 O495 1.958 . S
Co479 O499 2.057 . S
N480 Co479 2.034 . S
N480 C483 1.366 . S
N480 C484 1.332 . S
N481 C482 1.337 . S
N481 C484 1.346 . S
C482 N481 1.337 . S
C482 C483 1.377 . S
C482 H515 0.930 . S
C483 N480 1.366 . S
C483 C482 1.377 . S
C483 H487 0.931 . S
C484 N480 1.332 . S
C484 N481 1.346 . S
C484 C501 1.361 . S
Co485 O488 2.097 1_554 S
Co485 O489 2.065 1_554 S
Co485 O490 2.065 . S
Co485 O491 2.042 . S
Co485 O494 2.097 . S
Co485 O498 2.042 1_554 S
C486 O494 1.253 . S
C486 O499 1.263 . S
H487 C483 0.931 . S
O488 Co473 2.262 . S
O488 Co485 2.097 1_556 S
O488 C512 1.253 . S
O489 Co485 2.065 1_556 S
O489 C505 1.221 1_556 S
O490 Co485 2.065 . S
O490 C500 1.221 1_554 S
O491 Co485 2.042 . S
O491 C506 1.237 1_554 S
O492 Co473 1.958 . S
O492 C506 1.278 . S
O493 Co479 1.950 . S
O493 C505 1.277 . S
O494 Co479 2.262 . S
O494 Co485 2.097 . S
O494 C486 1.253 . S
O495 Co479 1.958 . S
O495 C513 1.278 . S
O496 Co473 1.950 . S
O496 C500 1.277 . S
O497 Co473 2.057 . S
O497 C512 1.263 . S
O498 Co485 2.042 1_556 S
O498 C513 1.237 1_556 S
O499 Co479 2.057 . S
O499 C486 1.263 . S
C500 O490 1.221 1_556 S
C500 O496 1.277 . S
C501 C484 1.361 . S
C501 H502 0.960 . S
C501 H503 0.961 . S
C501 H504 0.961 . S
H502 C501 0.960 . S
H503 C501 0.961 . S
H504 C501 0.961 . S
C505 O489 1.221 1_554 S
C505 O493 1.277 . S
C506 O491 1.237 1_556 S
C506 O492 1.278 . S
H507 C475 0.931 . S
H508 C511 0.961 . S
H509 C511 0.961 . S
H510 C511 0.960 . S
C511 C477 1.361 . S
C511 H508 0.961 . S
C511 H509 0.961 . S
C511 H510 0.960 . S
C512 O488 1.253 . S
C512 O497 1.263 . S
C513 O495 1.278 . S
C513 O498 1.237 1_554 S
H514 C478 0.930 . S
H515 C482 0.930 . S
Co516 N517 2.034 . S
Co516 O531 2.262 . S
Co516 O535 1.958 . S
Co516 O539 1.950 . S
Co516 O540 2.057 . S
N517 Co516 2.034 . S
N517 C518 1.366 . S
N517 C520 1.332 . S
C518 N517 1.366 . S
C518 C521 1.377 . S
C518 H550 0.931 . S
N519 C520 1.346 . S
N519 C521 1.337 . S
C520 N517 1.332 . S
C520 N519 1.346 . S
C520 C554 1.361 . S
C521 C518 1.377 . S
C521 N519 1.337 . S
C521 H557 0.930 . S
Co522 N523 2.034 . S
Co522 O536 1.950 . S
Co522 O537 2.262 . S
Co522 O538 1.958 . S
Co522 O542 2.057 . S
N523 Co522 2.034 . S
N523 C526 1.366 . S
N523 C527 1.332 . S
N524 C525 1.337 . S
N524 C527 1.346 . S
C525 N524 1.337 . S
C525 C526 1.377 . S
C525 H558 0.930 . S
C526 N523 1.366 . S
C526 C525 1.377 . S
C526 H530 0.931 . S
C527 N523 1.332 . S
C527 N524 1.346 . S
C527 C544 1.361 . S
Co528 O531 2.097 . S
Co528 O532 2.065 1_554 S
Co528 O533 2.065 . S
Co528 O534 2.042 . S
Co528 O537 2.097 1_554 S
Co528 O541 2.042 1_554 S
C529 O537 1.251 1_554 S
C529 O542 1.254 1_554 S
H530 C526 0.931 . S
O531 Co516 2.262 . S
O531 Co528 2.097 . S
O531 C555 1.252 1_554 S
O532 Co528 2.065 1_556 S
O532 C548 1.221 . S
O533 Co528 2.065 . S
O533 C543 1.221 . S
O534 Co528 2.042 . S
O534 C549 1.237 . S
O535 Co516 1.958 . S
O535 C549 1.278 . S
O536 Co522 1.950 . S
O536 C548 1.277 . S
O537 Co522 2.262 . S
O537 Co528 2.097 1_556 S
O537 C529 1.251 1_556 S
O538 Co522 1.958 . S
O538 C556 1.278 . S
O539 Co516 1.950 . S
O539 C543 1.277 . S
O540 Co516 2.057 . S
O540 C555 1.261 1_554 S
O541 Co528 2.042 1_556 S
O541 C556 1.237 . S
O542 Co522 2.057 . S
O542 C529 1.254 1_556 S
C543 O533 1.221 . S
C543 O539 1.277 . S
C544 C527 1.361 . S
C544 H545 0.960 . S
C544 H546 0.961 . S
C544 H547 0.961 . S
H545 C544 0.960 . S
H546 C544 0.961 . S
H547 C544 0.961 . S
C548 O532 1.221 . S
C548 O536 1.277 . S
C549 O534 1.237 . S
C549 O535 1.278 . S
H550 C518 0.931 . S
H551 C554 0.961 . S
H552 C554 0.961 . S
H553 C554 0.960 . S
C554 C520 1.361 . S
C554 H551 0.961 . S
C554 H552 0.961 . S
C554 H553 0.960 . S
C555 O531 1.252 1_556 S
C555 O540 1.261 1_556 S
C556 O538 1.278 . S
C556 O541 1.237 . S
H557 C521 0.930 . S
H558 C525 0.930 . S
Co559 N560 2.034 . S
Co559 O574 2.262 . S
Co559 O578 1.958 . S
Co559 O582 1.950 . S
Co559 O583 2.057 . S
N560 Co559 2.034 . S
N560 C561 1.366 . S
N560 C563 1.332 . S
C561 N560 1.366 . S
C561 C564 1.377 . S
C561 H593 0.931 . S
N562 C563 1.346 . S
N562 C564 1.337 . S
C563 N560 1.332 . S
C563 N562 1.346 . S
C563 C597 1.361 . S
C564 C561 1.377 . S
C564 N562 1.337 . S
C564 H600 0.930 . S
Co565 N566 2.034 . S
Co565 O579 1.950 . S
Co565 O580 2.262 . S
Co565 O581 1.958 . S
Co565 O585 2.057 . S
N566 Co565 2.034 . S
N566 C569 1.366 . S
N566 C570 1.332 . S
N567 C568 1.337 . S
N567 C570 1.346 . S
C568 N567 1.337 . S
C568 C569 1.377 . S
C568 H601 0.930 . S
C569 N566 1.366 . S
C569 C568 1.377 . S
C569 H573 0.931 . S
C570 N566 1.332 . S
C570 N567 1.346 . S
C570 C587 1.361 . S
Co571 O574 2.097 1_554 S
Co571 O575 2.065 . S
Co571 O576 2.065 1_554 S
Co571 O577 2.042 1_554 S
Co571 O580 2.097 . S
Co571 O584 2.042 . S
C572 O580 1.252 1_556 S
C572 O585 1.261 1_556 S
H573 C569 0.931 . S
O574 Co559 2.262 . S
O574 Co571 2.097 1_556 S
O574 C598 1.251 1_556 S
O575 Co571 2.065 . S
O575 C591 1.221 . S
O576 Co571 2.065 1_556 S
O576 C586 1.221 . S
O577 Co571 2.042 1_556 S
O577 C592 1.237 . S
O578 Co559 1.958 . S
O578 C592 1.278 . S
O579 Co565 1.950 . S
O579 C591 1.277 . S
O580 Co565 2.262 . S
O580 Co571 2.097 . S
O580 C572 1.252 1_554 S
O581 Co565 1.958 . S
O581 C599 1.278 . S
O582 Co559 1.950 . S
O582 C586 1.277 . S
O583 Co559 2.057 . S
O583 C598 1.254 1_556 S
O584 Co571 2.042 . S
O584 C599 1.237 . S
O585 Co565 2.057 . S
O585 C572 1.261 1_554 S
C586 O576 1.221 . S
C586 O582 1.277 . S
C587 C570 1.361 . S
C587 H588 0.960 . S
C587 H589 0.961 . S
C587 H590 0.961 . S
H588 C587 0.960 . S
H589 C587 0.961 . S
H590 C587 0.961 . S
C591 O575 1.221 . S
C591 O579 1.277 . S
C592 O577 1.237 . S
C592 O578 1.278 . S
H593 C561 0.931 . S
H594 C597 0.961 . S
H595 C597 0.961 . S
H596 C597 0.960 . S
C597 C563 1.361 . S
C597 H594 0.961 . S
C597 H595 0.961 . S
C597 H596 0.960 . S
C598 O574 1.251 1_554 S
C598 O583 1.254 1_554 S
C599 O581 1.278 . S
C599 O584 1.237 . S
H600 C564 0.930 . S
H601 C568 0.930 . S
Co602 N603 2.034 . S
Co602 O617 2.262 . S
Co602 O621 1.958 . S
Co602 O625 1.950 . S
Co602 O626 2.057 . S
N603 Co602 2.034 . S
N603 C604 1.366 . S
N603 C606 1.332 . S
C604 N603 1.366 . S
C604 C607 1.377 . S
C604 H636 0.931 . S
N605 C606 1.346 . S
N605 C607 1.337 . S
C606 N603 1.332 . S
C606 N605 1.346 . S
C606 C640 1.361 . S
C607 C604 1.377 . S
C607 N605 1.337 . S
C607 H643 0.930 . S
Co608 N609 2.034 . S
Co608 O622 1.950 . S
Co608 O623 2.262 . S
Co608 O624 1.958 . S
Co608 O628 2.057 . S
N609 Co608 2.034 . S
N609 C612 1.366 . S
N609 C613 1.332 . S
N610 C611 1.337 . S
N610 C613 1.346 . S
C611 N610 1.337 . S
C611 C612 1.377 . S
C611 H644 0.930 . S
C612 N609 1.366 . S
C612 C611 1.377 . S
C612 H616 0.931 . S
C613 N609 1.332 . S
C613 N610 1.346 . S
C613 C630 1.361 . S
Co614 O617 2.097 . S
Co614 O618 2.065 . S
Co614 O619 2.065 . S
Co614 O620 2.042 . S
Co614 O623 2.097 . S
Co614 O627 2.042 . S
C615 O623 1.253 . S
C615 O628 1.263 . S
H616 C612 0.931 . S
O617 Co602 2.262 . S
O617 Co614 2.097 . S
O617 C641 1.253 . S
O618 Co614 2.065 . S
O618 C634 1.221 . S
O619 Co614 2.065 . S
O619 C629 1.221 . S
O620 Co614 2.042 . S
O620 C635 1.237 . S
O621 Co602 1.958 . S
O621 C635 1.278 . S
O622 Co608 1.950 . S
O622 C634 1.277 . S
O623 Co608 2.262 . S
O623 Co614 2.097 . S
O623 C615 1.253 . S
O624 Co608 1.958 . S
O624 C642 1.278 . S
O625 Co602 1.950 . S
O625 C629 1.277 . S
O626 Co602 2.057 . S
O626 C641 1.263 . S
O627 Co614 2.042 . S
O627 C642 1.237 . S
O628 Co608 2.057 . S
O628 C615 1.263 . S
C629 O619 1.221 . S
C629 O625 1.277 . S
C630 C613 1.361 . S
C630 H631 0.960 . S
C630 H632 0.961 . S
C630 H633 0.961 . S
H631 C630 0.960 . S
H632 C630 0.961 . S
H633 C630 0.961 . S
C634 O618 1.221 . S
C634 O622 1.277 . S
C635 O620 1.237 . S
C635 O621 1.278 . S
H636 C604 0.931 . S
H637 C640 0.961 . S
H638 C640 0.961 . S
H639 C640 0.960 . S
C640 C606 1.361 . S
C640 H637 0.961 . S
C640 H638 0.961 . S
C640 H639 0.960 . S
C641 O617 1.253 . S
C641 O626 1.263 . S
C642 O624 1.278 . S
C642 O627 1.237 . S
H643 C607 0.930 . S
H644 C611 0.930 . S
Co645 N646 2.034 . S
Co645 O660 2.262 . S
Co645 O664 1.958 . S
Co645 O668 1.950 . S
Co645 O669 2.057 . S
N646 Co645 2.034 . S
N646 C647 1.366 . S
N646 C649 1.332 . S
C647 N646 1.366 . S
C647 C650 1.377 . S
C647 H679 0.931 . S
N648 C649 1.346 . S
N648 C650 1.337 . S
C649 N646 1.332 . S
C649 N648 1.346 . S
C649 C683 1.361 . S
C650 C647 1.377 . S
C650 N648 1.337 . S
C650 H686 0.930 . S
Co651 N652 2.034 . S
Co651 O665 1.950 . S
Co651 O666 2.262 . S
Co651 O667 1.958 . S
Co651 O671 2.057 . S
N652 Co651 2.034 . S
N652 C655 1.366 . S
N652 C656 1.332 . S
N653 C654 1.337 . S
N653 C656 1.346 . S
C654 N653 1.337 . S
C654 C655 1.377 . S
C654 H687 0.930 . S
C655 N652 1.366 . S
C655 C654 1.377 . S
C655 H659 0.931 . S
C656 N652 1.332 . S
C656 N653 1.346 . S
C656 C673 1.361 . S
Co657 O660 2.097 . S
Co657 O661 2.065 . S
Co657 O662 2.065 . S
Co657 O663 2.042 . S
Co657 O666 2.097 . S
Co657 O670 2.042 . S
C658 O666 1.253 . S
C658 O671 1.263 . S
H659 C655 0.931 . S
O660 Co645 2.262 . S
O660 Co657 2.097 . S
O660 C684 1.253 . S
O661 Co657 2.065 . S
O661 C677 1.221 . S
O662 Co657 2.065 . S
O662 C672 1.221 . S
O663 Co657 2.042 . S
O663 C678 1.237 . S
O664 Co645 1.958 . S
O664 C678 1.278 . S
O665 Co651 1.950 . S
O665 C677 1.277 . S
O666 Co651 2.262 . S
O666 Co657 2.097 . S
O666 C658 1.253 . S
O667 Co651 1.958 . S
O667 C685 1.278 . S
O668 Co645 1.950 . S
O668 C672 1.277 . S
O669 Co645 2.057 . S
O669 C684 1.263 . S
O670 Co657 2.042 . S
O670 C685 1.237 . S
O671 Co651 2.057 . S
O671 C658 1.263 . S
C672 O662 1.221 . S
C672 O668 1.277 . S
C673 C656 1.361 . S
C673 H674 0.960 . S
C673 H675 0.961 . S
C673 H676 0.961 . S
H674 C673 0.960 . S
H675 C673 0.961 . S
H676 C673 0.961 . S
C677 O661 1.221 . S
C677 O665 1.277 . S
C678 O663 1.237 . S
C678 O664 1.278 . S
H679 C647 0.931 . S
H680 C683 0.961 . S
H681 C683 0.961 . S
H682 C683 0.960 . S
C683 C649 1.361 . S
C683 H680 0.961 . S
C683 H681 0.961 . S
C683 H682 0.960 . S
C684 O660 1.253 . S
C684 O669 1.263 . S
C685 O667 1.278 . S
C685 O670 1.237 . S
H686 C650 0.930 . S
H687 C654 0.930 . S
Co688 N689 2.034 . S
Co688 O703 2.262 . S
Co688 O707 1.958 . S
Co688 O711 1.950 . S
Co688 O712 2.057 . S
N689 Co688 2.034 . S
N689 C690 1.366 . S
N689 C692 1.332 . S
C690 N689 1.366 . S
C690 C693 1.377 . S
C690 H722 0.931 . S
N691 C692 1.346 . S
N691 C693 1.337 . S
C692 N689 1.332 . S
C692 N691 1.346 . S
C692 C726 1.361 . S
C693 C690 1.377 . S
C693 N691 1.337 . S
C693 H729 0.930 . S
Co694 N695 2.034 . S
Co694 O708 1.950 . S
Co694 O709 2.262 . S
Co694 O710 1.958 . S
Co694 O714 2.057 . S
N695 Co694 2.034 . S
N695 C698 1.366 . S
N695 C699 1.332 . S
N696 C697 1.337 . S
N696 C699 1.346 . S
C697 N696 1.337 . S
C697 C698 1.377 . S
C697 H730 0.930 . S
C698 N695 1.366 . S
C698 C697 1.377 . S
C698 H702 0.931 . S
C699 N695 1.332 . S
C699 N696 1.346 . S
C699 C716 1.361 . S
Co700 O703 2.097 1_545 S
Co700 O704 2.065 1_545 S
Co700 O705 2.065 . S
Co700 O706 2.042 . S
Co700 O709 2.097 . S
Co700 O713 2.042 1_545 S
C701 O709 1.253 . S
C701 O714 1.263 . S
H702 C698 0.931 . S
O703 Co688 2.262 . S
O703 Co700 2.097 1_565 S
O703 C727 1.253 . S
O704 Co700 2.065 1_565 S
O704 C720 1.221 1_565 S
O705 Co700 2.065 . S
O705 C715 1.221 1_545 S
O706 Co700 2.042 . S
O706 C721 1.237 1_545 S
O707 Co688 1.958 . S
O707 C721 1.278 . S
O708 Co694 1.950 . S
O708 C720 1.277 . S
O709 Co694 2.262 . S
O709 Co700 2.097 . S
O709 C701 1.253 . S
O710 Co694 1.958 . S
O710 C728 1.278 . S
O711 Co688 1.950 . S
O711 C715 1.277 . S
O712 Co688 2.057 . S
O712 C727 1.263 . S
O713 Co700 2.042 1_565 S
O713 C728 1.237 1_565 S
O714 Co694 2.057 . S
O714 C701 1.263 . S
C715 O705 1.221 1_565 S
C715 O711 1.277 . S
C716 C699 1.361 . S
C716 H717 0.960 . S
C716 H718 0.961 . S
C716 H719 0.961 . S
H717 C716 0.960 . S
H718 C716 0.961 . S
H719 C716 0.961 . S
C720 O704 1.221 1_545 S
C720 O708 1.277 . S
C721 O706 1.237 1_565 S
C721 O707 1.278 . S
H722 C690 0.931 . S
H723 C726 0.961 . S
H724 C726 0.961 . S
H725 C726 0.960 . S
C726 C692 1.361 . S
C726 H723 0.961 . S
C726 H724 0.961 . S
C726 H725 0.960 . S
C727 O703 1.253 . S
C727 O712 1.263 . S
C728 O710 1.278 . S
C728 O713 1.237 1_545 S
H729 C693 0.930 . S
H730 C697 0.930 . S
Co731 N732 2.034 . S
Co731 O746 2.262 . S
Co731 O750 1.958 . S
Co731 O754 1.950 . S
Co731 O755 2.057 . S
N732 Co731 2.034 . S
N732 C733 1.366 . S
N732 C735 1.332 . S
C733 N732 1.366 . S
C733 C736 1.377 . S
C733 H765 0.931 . S
N734 C735 1.346 . S
N734 C736 1.337 . S
C735 N732 1.332 . S
C735 N734 1.346 . S
C735 C769 1.361 . S
C736 C733 1.377 . S
C736 N734 1.337 . S
C736 H772 0.930 . S
Co737 N738 2.034 . S
Co737 O751 1.950 . S
Co737 O752 2.262 . S
Co737 O753 1.958 . S
Co737 O757 2.057 . S
N738 Co737 2.034 . S
N738 C741 1.366 . S
N738 C742 1.332 . S
N739 C740 1.337 . S
N739 C742 1.346 . S
C740 N739 1.337 . S
C740 C741 1.377 . S
C740 H773 0.930 . S
C741 N738 1.366 . S
C741 C740 1.377 . S
C741 H745 0.931 . S
C742 N738 1.332 . S
C742 N739 1.346 . S
C742 C759 1.361 . S
Co743 O746 2.097 . S
Co743 O747 2.065 . S
Co743 O748 2.065 . S
Co743 O749 2.042 . S
Co743 O752 2.097 . S
Co743 O756 2.042 . S
C744 O752 1.253 . S
C744 O757 1.263 . S
H745 C741 0.931 . S
O746 Co731 2.262 . S
O746 Co743 2.097 . S
O746 C770 1.253 . S
O747 Co743 2.065 . S
O747 C763 1.221 . S
O748 Co743 2.065 . S
O748 C758 1.221 . S
O749 Co743 2.042 . S
O749 C764 1.237 . S
O750 Co731 1.958 . S
O750 C764 1.278 . S
O751 Co737 1.950 . S
O751 C763 1.277 . S
O752 Co737 2.262 . S
O752 Co743 2.097 . S
O752 C744 1.253 . S
O753 Co737 1.958 . S
O753 C771 1.278 . S
O754 Co731 1.950 . S
O754 C758 1.277 . S
O755 Co731 2.057 . S
O755 C770 1.263 . S
O756 Co743 2.042 . S
O756 C771 1.237 . S
O757 Co737 2.057 . S
O757 C744 1.263 . S
C758 O748 1.221 . S
C758 O754 1.277 . S
C759 C742 1.361 . S
C759 H760 0.960 . S
C759 H761 0.961 . S
C759 H762 0.961 . S
H760 C759 0.960 . S
H761 C759 0.961 . S
H762 C759 0.961 . S
C763 O747 1.221 . S
C763 O751 1.277 . S
C764 O749 1.237 . S
C764 O750 1.278 . S
H765 C733 0.931 . S
H766 C769 0.961 . S
H767 C769 0.961 . S
H768 C769 0.960 . S
C769 C735 1.361 . S
C769 H766 0.961 . S
C769 H767 0.961 . S
C769 H768 0.960 . S
C770 O746 1.253 . S
C770 O755 1.263 . S
C771 O753 1.278 . S
C771 O756 1.237 . S
H772 C736 0.930 . S
H773 C740 0.930 . S
Co774 N775 2.034 . S
Co774 O789 2.262 . S
Co774 O793 1.958 . S
Co774 O797 1.950 . S
Co774 O798 2.057 . S
N775 Co774 2.034 . S
N775 C776 1.366 . S
N775 C778 1.332 . S
C776 N775 1.366 . S
C776 C779 1.377 . S
C776 H808 0.931 . S
N777 C778 1.346 . S
N777 C779 1.337 . S
C778 N775 1.332 . S
C778 N777 1.346 . S
C778 C812 1.361 . S
C779 C776 1.377 . S
C779 N777 1.337 . S
C779 H815 0.930 . S
Co780 N781 2.034 . S
Co780 O794 1.950 . S
Co780 O795 2.262 . S
Co780 O796 1.958 . S
Co780 O800 2.057 . S
N781 Co780 2.034 . S
N781 C784 1.366 . S
N781 C785 1.332 . S
N782 C783 1.337 . S
N782 C785 1.346 . S
C783 N782 1.337 . S
C783 C784 1.377 . S
C783 H816 0.930 . S
C784 N781 1.366 . S
C784 C783 1.377 . S
C784 H788 0.931 . S
C785 N781 1.332 . S
C785 N782 1.346 . S
C785 C802 1.361 . S
Co786 O789 2.097 . S
Co786 O790 2.065 . S
Co786 O791 2.065 . S
Co786 O792 2.042 . S
Co786 O795 2.097 . S
Co786 O799 2.042 . S
C787 O795 1.253 . S
C787 O800 1.263 . S
H788 C784 0.931 . S
O789 Co774 2.262 . S
O789 Co786 2.097 . S
O789 C813 1.253 . S
O790 Co786 2.065 . S
O790 C806 1.221 . S
O791 Co786 2.065 . S
O791 C801 1.221 . S
O792 Co786 2.042 . S
O792 C807 1.237 . S
O793 Co774 1.958 . S
O793 C807 1.278 . S
O794 Co780 1.950 . S
O794 C806 1.277 . S
O795 Co780 2.262 . S
O795 Co786 2.097 . S
O795 C787 1.253 . S
O796 Co780 1.958 . S
O796 C814 1.278 . S
O797 Co774 1.950 . S
O797 C801 1.277 . S
O798 Co774 2.057 . S
O798 C813 1.263 . S
O799 Co786 2.042 . S
O799 C814 1.237 . S
O800 Co780 2.057 . S
O800 C787 1.263 . S
C801 O791 1.221 . S
C801 O797 1.277 . S
C802 C785 1.361 . S
C802 H803 0.960 . S
C802 H804 0.961 . S
C802 H805 0.961 . S
H803 C802 0.960 . S
H804 C802 0.961 . S
H805 C802 0.961 . S
C806 O790 1.221 . S
C806 O794 1.277 . S
C807 O792 1.237 . S
C807 O793 1.278 . S
H808 C776 0.931 . S
H809 C812 0.961 . S
H810 C812 0.961 . S
H811 C812 0.960 . S
C812 C778 1.361 . S
C812 H809 0.961 . S
C812 H810 0.961 . S
C812 H811 0.960 . S
C813 O789 1.253 . S
C813 O798 1.263 . S
C814 O796 1.278 . S
C814 O799 1.237 . S
H815 C779 0.930 . S
H816 C783 0.930 . S
Co817 N818 2.034 . S
Co817 O832 2.262 . S
Co817 O836 1.958 . S
Co817 O840 1.950 . S
Co817 O841 2.057 . S
N818 Co817 2.034 . S
N818 C819 1.366 . S
N818 C821 1.332 . S
C819 N818 1.366 . S
C819 C822 1.377 . S
C819 H851 0.931 . S
N820 C821 1.346 . S
N820 C822 1.337 . S
C821 N818 1.332 . S
C821 N820 1.346 . S
C821 C855 1.361 . S
C822 C819 1.377 . S
C822 N820 1.337 . S
C822 H858 0.930 . S
Co823 N824 2.034 . S
Co823 O837 1.950 . S
Co823 O838 2.262 . S
Co823 O839 1.958 . S
Co823 O843 2.057 . S
N824 Co823 2.034 . S
N824 C827 1.366 . S
N824 C828 1.332 . S
N825 C826 1.337 . S
N825 C828 1.346 . S
C826 N825 1.337 . S
C826 C827 1.377 . S
C826 H859 0.930 . S
C827 N824 1.366 . S
C827 C826 1.377 . S
C827 H831 0.931 . S
C828 N824 1.332 . S
C828 N825 1.346 . S
C828 C845 1.361 . S
Co829 O832 2.097 . S
Co829 O833 2.065 . S
Co829 O834 2.065 . S
Co829 O835 2.042 . S
Co829 O838 2.097 . S
Co829 O842 2.042 . S
C830 O838 1.253 . S
C830 O843 1.263 . S
H831 C827 0.931 . S
O832 Co817 2.262 . S
O832 Co829 2.097 . S
O832 C856 1.253 . S
O833 Co829 2.065 . S
O833 C849 1.221 . S
O834 Co829 2.065 . S
O834 C844 1.221 . S
O835 Co829 2.042 . S
O835 C850 1.237 . S
O836 Co817 1.958 . S
O836 C850 1.278 . S
O837 Co823 1.950 . S
O837 C849 1.277 . S
O838 Co823 2.262 . S
O838 Co829 2.097 . S
O838 C830 1.253 . S
O839 Co823 1.958 . S
O839 C857 1.278 . S
O840 Co817 1.950 . S
O840 C844 1.277 . S
O841 Co817 2.057 . S
O841 C856 1.263 . S
O842 Co829 2.042 . S
O842 C857 1.237 . S
O843 Co823 2.057 . S
O843 C830 1.263 . S
C844 O834 1.221 . S
C844 O840 1.277 . S
C845 C828 1.361 . S
C845 H846 0.960 . S
C845 H847 0.961 . S
C845 H848 0.961 . S
H846 C845 0.960 . S
H847 C845 0.961 . S
H848 C845 0.961 . S
C849 O833 1.221 . S
C849 O837 1.277 . S
C850 O835 1.237 . S
C850 O836 1.278 . S
H851 C819 0.931 . S
H852 C855 0.961 . S
H853 C855 0.961 . S
H854 C855 0.960 . S
C855 C821 1.361 . S
C855 H852 0.961 . S
C855 H853 0.961 . S
C855 H854 0.960 . S
C856 O832 1.253 . S
C856 O841 1.263 . S
C857 O839 1.278 . S
C857 O842 1.237 . S
H858 C822 0.930 . S
H859 C826 0.930 . S
Co860 N861 2.034 . S
Co860 O875 2.262 . S
Co860 O879 1.958 . S
Co860 O883 1.950 . S
Co860 O884 2.057 . S
N861 Co860 2.034 . S
N861 C862 1.366 . S
N861 C864 1.332 . S
C862 N861 1.366 . S
C862 C865 1.377 . S
C862 H894 0.931 . S
N863 C864 1.346 . S
N863 C865 1.337 . S
C864 N861 1.332 . S
C864 N863 1.346 . S
C864 C898 1.361 . S
C865 C862 1.377 . S
C865 N863 1.337 . S
C865 H901 0.930 . S
Co866 N867 2.034 . S
Co866 O880 1.950 . S
Co866 O881 2.262 . S
Co866 O882 1.958 . S
Co866 O886 2.057 . S
N867 Co866 2.034 . S
N867 C870 1.366 . S
N867 C871 1.332 . S
N868 C869 1.337 . S
N868 C871 1.346 . S
C869 N868 1.337 . S
C869 C870 1.377 . S
C869 H902 0.930 . S
C870 N867 1.366 . S
C870 C869 1.377 . S
C870 H874 0.931 . S
C871 N867 1.332 . S
C871 N868 1.346 . S
C871 C888 1.361 . S
Co872 O875 2.097 1_554 S
Co872 O876 2.065 1_554 S
Co872 O877 2.065 . S
Co872 O878 2.042 . S
Co872 O881 2.097 . S
Co872 O885 2.042 1_554 S
C873 O881 1.253 . S
C873 O886 1.263 . S
H874 C870 0.931 . S
O875 Co860 2.262 . S
O875 Co872 2.097 1_556 S
O875 C899 1.253 . S
O876 Co872 2.065 1_556 S
O876 C892 1.221 1_556 S
O877 Co872 2.065 . S
O877 C887 1.221 1_554 S
O878 Co872 2.042 . S
O878 C893 1.237 1_554 S
O879 Co860 1.958 . S
O879 C893 1.278 . S
O880 Co866 1.950 . S
O880 C892 1.277 . S
O881 Co866 2.262 . S
O881 Co872 2.097 . S
O881 C873 1.253 . S
O882 Co866 1.958 . S
O882 C900 1.278 . S
O883 Co860 1.950 . S
O883 C887 1.277 . S
O884 Co860 2.057 . S
O884 C899 1.263 . S
O885 Co872 2.042 1_556 S
O885 C900 1.237 1_556 S
O886 Co866 2.057 . S
O886 C873 1.263 . S
C887 O877 1.221 1_556 S
C887 O883 1.277 . S
C888 C871 1.361 . S
C888 H889 0.960 . S
C888 H890 0.961 . S
C888 H891 0.961 . S
H889 C888 0.960 . S
H890 C888 0.961 . S
H891 C888 0.961 . S
C892 O876 1.221 1_554 S
C892 O880 1.277 . S
C893 O878 1.237 1_556 S
C893 O879 1.278 . S
H894 C862 0.931 . S
H895 C898 0.961 . S
H896 C898 0.961 . S
H897 C898 0.960 . S
C898 C864 1.361 . S
C898 H895 0.961 . S
C898 H896 0.961 . S
C898 H897 0.960 . S
C899 O875 1.253 . S
C899 O884 1.263 . S
C900 O882 1.278 . S
C900 O885 1.237 1_554 S
H901 C865 0.930 . S
H902 C869 0.930 . S
Co903 N904 2.034 . S
Co903 O918 2.262 . S
Co903 O922 1.958 . S
Co903 O926 1.950 . S
Co903 O927 2.057 . S
N904 Co903 2.034 . S
N904 C905 1.366 . S
N904 C907 1.332 . S
C905 N904 1.366 . S
C905 C908 1.377 . S
C905 H937 0.931 . S
N906 C907 1.346 . S
N906 C908 1.337 . S
C907 N904 1.332 . S
C907 N906 1.346 . S
C907 C941 1.361 . S
C908 C905 1.377 . S
C908 N906 1.337 . S
C908 H944 0.930 . S
Co909 N910 2.034 . S
Co909 O923 1.950 . S
Co909 O924 2.262 . S
Co909 O925 1.958 . S
Co909 O929 2.057 . S
N910 Co909 2.034 . S
N910 C913 1.366 . S
N910 C914 1.332 . S
N911 C912 1.337 . S
N911 C914 1.346 . S
C912 N911 1.337 . S
C912 C913 1.377 . S
C912 H945 0.930 . S
C913 N910 1.366 . S
C913 C912 1.377 . S
C913 H917 0.931 . S
C914 N910 1.332 . S
C914 N911 1.346 . S
C914 C931 1.361 . S
Co915 O918 2.097 . S
Co915 O919 2.065 . S
Co915 O920 2.065 . S
Co915 O921 2.042 . S
Co915 O924 2.097 . S
Co915 O928 2.042 . S
C916 O924 1.253 . S
C916 O929 1.263 . S
H917 C913 0.931 . S
O918 Co903 2.262 . S
O918 Co915 2.097 . S
O918 C942 1.253 . S
O919 Co915 2.065 . S
O919 C935 1.221 . S
O920 Co915 2.065 . S
O920 C930 1.221 . S
O921 Co915 2.042 . S
O921 C936 1.237 . S
O922 Co903 1.958 . S
O922 C936 1.278 . S
O923 Co909 1.950 . S
O923 C935 1.277 . S
O924 Co909 2.262 . S
O924 Co915 2.097 . S
O924 C916 1.253 . S
O925 Co909 1.958 . S
O925 C943 1.278 . S
O926 Co903 1.950 . S
O926 C930 1.277 . S
O927 Co903 2.057 . S
O927 C942 1.263 . S
O928 Co915 2.042 . S
O928 C943 1.237 . S
O929 Co909 2.057 . S
O929 C916 1.263 . S
C930 O920 1.221 . S
C930 O926 1.277 . S
C931 C914 1.361 . S
C931 H932 0.960 . S
C931 H933 0.961 . S
C931 H934 0.961 . S
H932 C931 0.960 . S
H933 C931 0.961 . S
H934 C931 0.961 . S
C935 O919 1.221 . S
C935 O923 1.277 . S
C936 O921 1.237 . S
C936 O922 1.278 . S
H937 C905 0.931 . S
H938 C941 0.961 . S
H939 C941 0.961 . S
H940 C941 0.960 . S
C941 C907 1.361 . S
C941 H938 0.961 . S
C941 H939 0.961 . S
C941 H940 0.960 . S
C942 O918 1.253 . S
C942 O927 1.263 . S
C943 O925 1.278 . S
C943 O928 1.237 . S
H944 C908 0.930 . S
H945 C912 0.930 . S
Co946 N947 2.034 . S
Co946 O961 2.262 . S
Co946 O965 1.958 . S
Co946 O969 1.950 . S
Co946 O970 2.057 . S
N947 Co946 2.034 . S
N947 C948 1.366 . S
N947 C950 1.332 . S
C948 N947 1.366 . S
C948 C951 1.377 . S
C948 H980 0.931 . S
N949 C950 1.346 . S
N949 C951 1.337 . S
C950 N947 1.332 . S
C950 N949 1.346 . S
C950 C984 1.361 . S
C951 C948 1.377 . S
C951 N949 1.337 . S
C951 H987 0.930 . S
Co952 N953 2.034 . S
Co952 O966 1.950 . S
Co952 O967 2.262 . S
Co952 O968 1.958 . S
Co952 O972 2.057 . S
N953 Co952 2.034 . S
N953 C956 1.366 . S
N953 C957 1.332 . S
N954 C955 1.337 . S
N954 C957 1.346 . S
C955 N954 1.337 . S
C955 C956 1.377 . S
C955 H988 0.930 . S
C956 N953 1.366 . S
C956 C955 1.377 . S
C956 H960 0.931 . S
C957 N953 1.332 . S
C957 N954 1.346 . S
C957 C974 1.361 . S
Co958 O961 2.097 . S
Co958 O962 2.065 . S
Co958 O963 2.065 . S
Co958 O964 2.042 . S
Co958 O967 2.097 . S
Co958 O971 2.042 . S
C959 O967 1.253 . S
C959 O972 1.263 . S
H960 C956 0.931 . S
O961 Co946 2.262 . S
O961 Co958 2.097 . S
O961 C985 1.253 . S
O962 Co958 2.065 . S
O962 C978 1.221 . S
O963 Co958 2.065 . S
O963 C973 1.221 . S
O964 Co958 2.042 . S
O964 C979 1.237 . S
O965 Co946 1.958 . S
O965 C979 1.278 . S
O966 Co952 1.950 . S
O966 C978 1.277 . S
O967 Co952 2.262 . S
O967 Co958 2.097 . S
O967 C959 1.253 . S
O968 Co952 1.958 . S
O968 C986 1.278 . S
O969 Co946 1.950 . S
O969 C973 1.277 . S
O970 Co946 2.057 . S
O970 C985 1.263 . S
O971 Co958 2.042 . S
O971 C986 1.237 . S
O972 Co952 2.057 . S
O972 C959 1.263 . S
C973 O963 1.221 . S
C973 O969 1.277 . S
C974 C957 1.361 . S
C974 H975 0.960 . S
C974 H976 0.961 . S
C974 H977 0.961 . S
H975 C974 0.960 . S
H976 C974 0.961 . S
H977 C974 0.961 . S
C978 O962 1.221 . S
C978 O966 1.277 . S
C979 O964 1.237 . S
C979 O965 1.278 . S
H980 C948 0.931 . S
H981 C984 0.961 . S
H982 C984 0.961 . S
H983 C984 0.960 . S
C984 C950 1.361 . S
C984 H981 0.961 . S
C984 H982 0.961 . S
C984 H983 0.960 . S
C985 O961 1.253 . S
C985 O970 1.263 . S
C986 O968 1.278 . S
C986 O971 1.237 . S
H987 C951 0.930 . S
H988 C955 0.930 . S
Co989 N990 2.034 . S
Co989 O1004 2.262 . S
Co989 O1008 1.958 . S
Co989 O1012 1.950 . S
Co989 O1013 2.057 . S
N990 Co989 2.034 . S
N990 C991 1.366 . S
N990 C993 1.332 . S
C991 N990 1.366 . S
C991 C994 1.377 . S
C991 H1023 0.931 . S
N992 C993 1.346 . S
N992 C994 1.337 . S
C993 N990 1.332 . S
C993 N992 1.346 . S
C993 C1027 1.361 . S
C994 C991 1.377 . S
C994 N992 1.337 . S
C994 H1030 0.930 . S
Co995 N996 2.034 . S
Co995 O1009 1.950 . S
Co995 O1010 2.262 . S
Co995 O1011 1.958 . S
Co995 O1015 2.057 . S
N996 Co995 2.034 . S
N996 C999 1.366 . S
N996 C1000 1.332 . S
N997 C998 1.337 . S
N997 C1000 1.346 . S
C998 N997 1.337 . S
C998 C999 1.377 . S
C998 H1031 0.930 . S
C999 N996 1.366 . S
C999 C998 1.377 . S
C999 H1003 0.931 . S
C1000 N996 1.332 . S
C1000 N997 1.346 . S
C1000 C1017 1.361 . S
Co1001 O1004 2.097 . S
Co1001 O1005 2.065 . S
Co1001 O1006 2.065 1_545 S
Co1001 O1007 2.042 1_545 S
Co1001 O1010 2.097 1_545 S
Co1001 O1014 2.042 . S
C1002 O1010 1.253 . S
C1002 O1015 1.263 . S
H1003 C999 0.931 . S
O1004 Co989 2.262 . S
O1004 Co1001 2.097 . S
O1004 C1028 1.253 . S
O1005 Co1001 2.065 . S
O1005 C1021 1.221 1_545 S
O1006 Co1001 2.065 1_565 S
O1006 C1016 1.221 1_565 S
O1007 Co1001 2.042 1_565 S
O1007 C1022 1.237 1_565 S
O1008 Co989 1.958 . S
O1008 C1022 1.278 . S
O1009 Co995 1.950 . S
O1009 C1021 1.277 . S
O1010 Co995 2.262 . S
O1010 Co1001 2.097 1_565 S
O1010 C1002 1.253 . S
O1011 Co995 1.958 . S
O1011 C1029 1.278 . S
O1012 Co989 1.950 . S
O1012 C1016 1.277 . S
O1013 Co989 2.057 . S
O1013 C1028 1.263 . S
O1014 Co1001 2.042 . S
O1014 C1029 1.237 1_545 S
O1015 Co995 2.057 . S
O1015 C1002 1.263 . S
C1016 O1006 1.221 1_545 S
C1016 O1012 1.277 . S
C1017 C1000 1.361 . S
C1017 H1018 0.960 . S
C1017 H1019 0.961 . S
C1017 H1020 0.961 . S
H1018 C1017 0.960 . S
H1019 C1017 0.961 . S
H1020 C1017 0.961 . S
C1021 O1005 1.221 1_565 S
C1021 O1009 1.277 . S
C1022 O1007 1.237 1_545 S
C1022 O1008 1.278 . S
H1023 C991 0.931 . S
H1024 C1027 0.961 . S
H1025 C1027 0.961 . S
H1026 C1027 0.960 . S
C1027 C993 1.361 . S
C1027 H1024 0.961 . S
C1027 H1025 0.961 . S
C1027 H1026 0.960 . S
C1028 O1004 1.253 . S
C1028 O1013 1.263 . S
C1029 O1011 1.278 . S
C1029 O1014 1.237 1_565 S
H1030 C994 0.930 . S
H1031 C998 0.930 . S
H1032 C1038 0.930 . S
H1033 C1042 0.930 . S
H1034 C1047 0.929 . S
H1035 C1045 0.929 . S
H1036 C1040 0.929 . S
H1037 C1046 0.929 . S
C1038 H1032 0.930 . S
C1038 C1039 1.367 . S
C1038 C1046 1.378 . S
C1039 C1038 1.367 . S
C1039 C1047 1.433 . S
C1040 H1036 0.929 . S
C1040 C1042 1.378 . S
C1040 C1044 1.350 . S
C1041 C1044 1.463 . S
C1041 C1046 1.350 . S
C1041 N1049 1.427 . S
C1042 H1033 0.930 . S
C1042 C1040 1.378 . S
C1042 C1043 1.367 . S
C1043 C1042 1.367 . S
C1043 C1045 1.433 1_455 S
C1044 C1040 1.350 . S
C1044 C1041 1.463 . S
C1044 N1048 1.427 . S
C1045 H1035 0.929 . S
C1045 C1043 1.433 1_655 S
C1045 N1048 1.384 1_655 S
C1046 H1037 0.929 . S
C1046 C1038 1.378 . S
C1046 C1041 1.350 . S
C1047 H1034 0.929 . S
C1047 C1039 1.433 . S
C1047 N1049 1.384 . S
N1048 C1044 1.427 . S
N1048 C1045 1.384 1_455 S
N1049 C1041 1.427 . S
N1049 C1047 1.384 . S
H1050 C1056 0.930 . S
H1051 C1060 0.930 . S
H1052 C1065 0.929 . S
H1053 C1063 0.929 . S
H1054 C1058 0.929 . S
H1055 C1064 0.929 . S
C1056 H1050 0.930 . S
C1056 C1057 1.367 . S
C1056 C1064 1.378 . S
C1057 C1056 1.367 . S
C1057 C1065 1.433 . S
C1058 H1054 0.929 . S
C1058 C1060 1.378 . S
C1058 C1062 1.350 . S
C1059 C1062 1.463 . S
C1059 C1064 1.350 . S
C1059 N1067 1.427 . S
C1060 H1051 0.930 . S
C1060 C1058 1.378 . S
C1060 C1061 1.367 . S
C1061 C1060 1.367 . S
C1061 C1063 1.433 . S
C1062 C1058 1.350 . S
C1062 C1059 1.463 . S
C1062 N1066 1.427 . S
C1063 H1053 0.929 . S
C1063 C1061 1.433 . S
C1063 N1066 1.384 . S
C1064 H1055 0.929 . S
C1064 C1056 1.378 . S
C1064 C1059 1.350 . S
C1065 H1052 0.929 . S
C1065 C1057 1.433 . S
C1065 N1067 1.384 . S
N1066 C1062 1.427 . S
N1066 C1063 1.384 . S
N1067 C1059 1.427 . S
N1067 C1065 1.384 . S
H1068 C1074 0.930 . S
H1069 C1078 0.930 . S
H1070 C1083 0.929 . S
H1071 C1081 0.929 . S
H1072 C1076 0.929 . S
H1073 C1082 0.929 . S
C1074 H1068 0.930 . S
C1074 C1075 1.367 . S
C1074 C1082 1.378 . S
C1075 C1074 1.367 . S
C1075 C1083 1.433 . S
C1076 H1072 0.929 . S
C1076 C1078 1.378 . S
C1076 C1080 1.350 . S
C1077 C1080 1.463 . S
C1077 C1082 1.350 . S
C1077 N1085 1.427 . S
C1078 H1069 0.930 . S
C1078 C1076 1.378 . S
C1078 C1079 1.367 . S
C1079 C1078 1.367 . S
C1079 C1081 1.433 . S
C1080 C1076 1.350 . S
C1080 C1077 1.463 . S
C1080 N1084 1.427 . S
C1081 H1071 0.929 . S
C1081 C1079 1.433 . S
C1081 N1084 1.384 . S
C1082 H1073 0.929 . S
C1082 C1074 1.378 . S
C1082 C1077 1.350 . S
C1083 H1070 0.929 . S
C1083 C1075 1.433 . S
C1083 N1085 1.384 . S
N1084 C1080 1.427 . S
N1084 C1081 1.384 . S
N1085 C1077 1.427 . S
N1085 C1083 1.384 . S
H1086 C1092 0.930 . S
H1087 C1096 0.930 . S
H1088 C1101 0.929 . S
H1089 C1099 0.929 . S
H1090 C1094 0.929 . S
H1091 C1100 0.929 . S
C1092 H1086 0.930 . S
C1092 C1093 1.367 . S
C1092 C1100 1.378 . S
C1093 C1092 1.367 . S
C1093 C1101 1.433 1_554 S
C1094 H1090 0.929 . S
C1094 C1096 1.378 . S
C1094 C1098 1.350 . S
C1095 C1098 1.463 . S
C1095 C1100 1.350 . S
C1095 N1103 1.427 . S
C1096 H1087 0.930 . S
C1096 C1094 1.378 . S
C1096 C1097 1.367 . S
C1097 C1096 1.367 . S
C1097 C1099 1.433 . S
C1098 C1094 1.350 . S
C1098 C1095 1.463 . S
C1098 N1102 1.427 . S
C1099 H1089 0.929 . S
C1099 C1097 1.433 . S
C1099 N1102 1.384 . S
C1100 H1091 0.929 . S
C1100 C1092 1.378 . S
C1100 C1095 1.350 . S
C1101 H1088 0.929 . S
C1101 C1093 1.433 1_556 S
C1101 N1103 1.384 1_556 S
N1102 C1098 1.427 . S
N1102 C1099 1.384 . S
N1103 C1095 1.427 . S
N1103 C1101 1.384 1_554 S
H1104 C1110 0.930 . S
H1105 C1114 0.930 . S
H1106 C1119 0.929 1_655 S
H1107 C1117 0.929 . S
H1108 C1112 0.929 . S
H1109 C1118 0.929 . S
C1110 H1104 0.930 . S
C1110 C1111 1.367 . S
C1110 C1118 1.378 . S
C1111 C1110 1.367 . S
C1111 C1119 1.433 . S
C1112 H1108 0.929 . S
C1112 C1114 1.378 . S
C1112 C1116 1.350 . S
C1113 C1116 1.463 . S
C1113 C1118 1.350 . S
C1113 N1121 1.427 . S
C1114 H1105 0.930 . S
C1114 C1112 1.378 . S
C1114 C1115 1.367 . S
C1115 C1114 1.367 . S
C1115 C1117 1.433 . S
C1116 C1112 1.350 . S
C1116 C1113 1.463 . S
C1116 N1120 1.427 . S
C1117 H1107 0.929 . S
C1117 C1115 1.433 . S
C1117 N1120 1.384 . S
C1118 H1109 0.929 . S
C1118 C1110 1.378 . S
C1118 C1113 1.350 . S
C1119 H1106 0.929 1_455 S
C1119 C1111 1.433 . S
C1119 N1121 1.384 . S
N1120 C1116 1.427 . S
N1120 C1117 1.384 . S
N1121 C1113 1.427 . S
N1121 C1119 1.384 . S
H1122 C1128 0.930 . S
H1123 C1132 0.930 . S
H1124 C1137 0.929 . S
H1125 C1135 0.929 . S
H1126 C1130 0.929 . S
H1127 C1136 0.929 . S
C1128 H1122 0.930 . S
C1128 C1129 1.367 . S
C1128 C1136 1.378 . S
C1129 C1128 1.367 . S
C1129 C1137 1.433 . S
C1130 H1126 0.929 . S
C1130 C1132 1.378 . S
C1130 C1134 1.350 . S
C1131 C1134 1.463 . S
C1131 C1136 1.350 . S
C1131 N1139 1.427 . S
C1132 H1123 0.930 . S
C1132 C1130 1.378 . S
C1132 C1133 1.367 . S
C1133 C1132 1.367 . S
C1133 C1135 1.433 . S
C1134 C1130 1.350 . S
C1134 C1131 1.463 . S
C1134 N1138 1.427 . S
C1135 H1125 0.929 . S
C1135 C1133 1.433 . S
C1135 N1138 1.384 . S
C1136 H1127 0.929 . S
C1136 C1128 1.378 . S
C1136 C1131 1.350 . S
C1137 H1124 0.929 . S
C1137 C1129 1.433 . S
C1137 N1139 1.384 . S
N1138 C1134 1.427 . S
N1138 C1135 1.384 . S
N1139 C1131 1.427 . S
N1139 C1137 1.384 . S
H1140 C1146 0.930 . S
H1141 C1150 0.930 . S
H1142 C1155 0.929 . S
H1143 C1153 0.929 . S
H1144 C1148 0.929 . S
H1145 C1154 0.929 . S
C1146 H1140 0.930 . S
C1146 C1147 1.367 . S
C1146 C1154 1.378 . S
C1147 C1146 1.367 . S
C1147 C1155 1.433 . S
C1148 H1144 0.929 . S
C1148 C1150 1.378 . S
C1148 C1152 1.350 . S
C1149 C1152 1.463 . S
C1149 C1154 1.350 . S
C1149 N1157 1.427 . S
C1150 H1141 0.930 . S
C1150 C1148 1.378 . S
C1150 C1151 1.367 . S
C1151 C1150 1.367 . S
C1151 C1153 1.433 . S
C1152 C1148 1.350 . S
C1152 C1149 1.463 . S
C1152 N1156 1.427 . S
C1153 H1143 0.929 . S
C1153 C1151 1.433 . S
C1153 N1156 1.384 . S
C1154 H1145 0.929 . S
C1154 C1146 1.378 . S
C1154 C1149 1.350 . S
C1155 H1142 0.929 . S
C1155 C1147 1.433 . S
C1155 N1157 1.384 . S
N1156 C1152 1.427 . S
N1156 C1153 1.384 . S
N1157 C1149 1.427 . S
N1157 C1155 1.384 . S
H1158 C1164 0.930 1_554 S
H1159 C1168 0.930 . S
H1160 C1173 0.929 . S
H1161 C1171 0.929 . S
H1162 C1166 0.929 . S
H1163 C1172 0.929 . S
C1164 H1158 0.930 1_556 S
C1164 C1165 1.367 . S
C1164 C1172 1.378 . S
C1165 C1164 1.367 . S
C1165 C1173 1.433 . S
C1166 H1162 0.929 . S
C1166 C1168 1.378 . S
C1166 C1170 1.350 . S
C1167 C1170 1.463 . S
C1167 C1172 1.350 . S
C1167 N1175 1.427 . S
C1168 H1159 0.930 . S
C1168 C1166 1.378 . S
C1168 C1169 1.367 . S
C1169 C1168 1.367 . S
C1169 C1171 1.433 . S
C1170 C1166 1.350 . S
C1170 C1167 1.463 . S
C1170 N1174 1.427 . S
C1171 H1161 0.929 . S
C1171 C1169 1.433 . S
C1171 N1174 1.384 . S
C1172 H1163 0.929 . S
C1172 C1164 1.378 . S
C1172 C1167 1.350 . S
C1173 H1160 0.929 . S
C1173 C1165 1.433 . S
C1173 N1175 1.384 . S
N1174 C1170 1.427 . S
N1174 C1171 1.384 . S
N1175 C1167 1.427 . S
N1175 C1173 1.384 . S
H1176 C1182 0.955 . S
H1177 C1186 0.930 . S
H1178 C1191 0.929 . S
H1179 C1189 0.929 . S
H1180 C1184 0.929 . S
H1181 C1190 0.929 . S
C1182 H1176 0.955 . S
C1182 C1183 1.355 1_565 S
C1182 C1190 1.365 1_565 S
C1183 C1182 1.355 1_545 S
C1183 C1191 1.433 . S
C1184 H1180 0.929 . S
C1184 C1186 1.378 . S
C1184 C1188 1.350 . S
C1185 C1188 1.463 . S
C1185 C1190 1.350 . S
C1185 N1193 1.427 . S
C1186 H1177 0.930 . S
C1186 C1184 1.378 . S
C1186 C1187 1.367 . S
C1187 C1186 1.367 . S
C1187 C1189 1.433 . S
C1188 C1184 1.350 . S
C1188 C1185 1.463 . S
C1188 N1192 1.427 . S
C1189 H1179 0.929 . S
C1189 C1187 1.433 . S
C1189 N1192 1.384 . S
C1190 H1181 0.929 . S
C1190 C1182 1.365 1_545 S
C1190 C1185 1.350 . S
C1191 H1178 0.929 . S
C1191 C1183 1.433 . S
C1191 N1193 1.384 . S
N1192 C1188 1.427 . S
N1192 C1189 1.384 . S
N1193 C1185 1.427 . S
N1193 C1191 1.384 . S
H1194 C1200 0.930 . S
H1195 C1204 0.930 . S
H1196 C1209 0.929 . S
H1197 C1207 0.929 . S
H1198 C1202 0.929 . S
H1199 C1208 0.929 1_565 S
C1200 H1194 0.930 . S
C1200 C1201 1.367 1_565 S
C1200 C1208 1.378 1_565 S
C1201 C1200 1.367 1_545 S
C1201 C1209 1.433 . S
C1202 H1198 0.929 . S
C1202 C1204 1.378 . S
C1202 C1206 1.350 . S
C1203 C1206 1.463 . S
C1203 C1208 1.350 . S
C1203 N1211 1.427 . S
C1204 H1195 0.930 . S
C1204 C1202 1.378 . S
C1204 C1205 1.367 . S
C1205 C1204 1.367 . S
C1205 C1207 1.433 . S
C1206 C1202 1.350 . S
C1206 C1203 1.463 . S
C1206 N1210 1.427 . S
C1207 H1197 0.929 . S
C1207 C1205 1.433 . S
C1207 N1210 1.384 . S
C1208 H1199 0.929 1_545 S
C1208 C1200 1.378 1_545 S
C1208 C1203 1.350 . S
C1209 H1196 0.929 . S
C1209 C1201 1.433 . S
C1209 N1211 1.384 . S
N1210 C1206 1.427 . S
N1210 C1207 1.384 . S
N1211 C1203 1.427 . S
N1211 C1209 1.384 . S
H1212 C1218 0.930 . S
H1213 C1222 0.930 . S
H1214 C1227 0.929 . S
H1215 C1225 0.929 . S
H1216 C1220 0.929 . S
H1217 C1226 0.929 . S
C1218 H1212 0.930 . S
C1218 C1219 1.367 . S
C1218 C1226 1.378 . S
C1219 C1218 1.367 . S
C1219 C1227 1.433 . S
C1220 H1216 0.929 . S
C1220 C1222 1.378 . S
C1220 C1224 1.350 . S
C1221 C1224 1.463 . S
C1221 C1226 1.350 . S
C1221 N1229 1.427 . S
C1222 H1213 0.930 . S
C1222 C1220 1.378 . S
C1222 C1223 1.367 . S
C1223 C1222 1.367 . S
C1223 C1225 1.433 . S
C1224 C1220 1.350 . S
C1224 C1221 1.463 . S
C1224 N1228 1.427 . S
C1225 H1215 0.929 . S
C1225 C1223 1.433 . S
C1225 N1228 1.384 . S
C1226 H1217 0.929 . S
C1226 C1218 1.378 . S
C1226 C1221 1.350 . S
C1227 H1214 0.929 . S
C1227 C1219 1.433 . S
C1227 N1229 1.384 . S
N1228 C1224 1.427 . S
N1228 C1225 1.384 . S
N1229 C1221 1.427 . S
N1229 C1227 1.384 . S
H1230 C1236 0.930 . S
H1231 C1240 0.930 . S
H1232 C1245 0.929 . S
H1233 C1243 0.929 . S
H1234 C1238 0.929 . S
H1235 C1244 0.929 . S
C1236 H1230 0.930 . S
C1236 C1237 1.367 . S
C1236 C1244 1.378 . S
C1237 C1236 1.367 . S
C1237 C1245 1.433 . S
C1238 H1234 0.929 . S
C1238 C1240 1.378 . S
C1238 C1242 1.350 . S
C1239 C1242 1.463 . S
C1239 C1244 1.350 . S
C1239 N1247 1.427 . S
C1240 H1231 0.930 . S
C1240 C1238 1.378 . S
C1240 C1241 1.367 . S
C1241 C1240 1.367 . S
C1241 C1243 1.433 . S
C1242 C1238 1.350 . S
C1242 C1239 1.463 . S
C1242 N1246 1.427 . S
C1243 H1233 0.929 . S
C1243 C1241 1.433 . S
C1243 N1246 1.384 . S
C1244 H1235 0.929 . S
C1244 C1236 1.378 . S
C1244 C1239 1.350 . S
C1245 H1232 0.929 . S
C1245 C1237 1.433 . S
C1245 N1247 1.384 . S
N1246 C1242 1.427 . S
N1246 C1243 1.384 . S
N1247 C1239 1.427 . S
N1247 C1245 1.384 . S
H1248 C1254 0.930 1_556 S
H1249 C1258 0.930 . S
H1250 C1263 0.929 . S
H1251 C1261 0.929 . S
H1252 C1256 0.929 . S
H1253 C1262 0.929 . S
C1254 H1248 0.930 1_554 S
C1254 C1255 1.367 . S
C1254 C1262 1.378 . S
C1255 C1254 1.367 . S
C1255 C1263 1.433 . S
C1256 H1252 0.929 . S
C1256 C1258 1.378 . S
C1256 C1260 1.350 . S
C1257 C1260 1.463 . S
C1257 C1262 1.350 . S
C1257 N1265 1.427 . S
C1258 H1249 0.930 . S
C1258 C1256 1.378 . S
C1258 C1259 1.367 . S
C1259 C1258 1.367 . S
C1259 C1261 1.433 . S
C1260 C1256 1.350 . S
C1260 C1257 1.463 . S
C1260 N1264 1.427 . S
C1261 H1251 0.929 . S
C1261 C1259 1.433 . S
C1261 N1264 1.384 . S
C1262 H1253 0.929 . S
C1262 C1254 1.378 . S
C1262 C1257 1.350 . S
C1263 H1250 0.929 . S
C1263 C1255 1.433 . S
C1263 N1265 1.384 . S
N1264 C1260 1.427 . S
N1264 C1261 1.384 . S
N1265 C1257 1.427 . S
N1265 C1263 1.384 . S
H1266 C1272 0.910 1_455 S
H1267 C1276 0.930 . S
H1268 C1281 0.929 . S
H1269 C1279 0.929 . S
H1270 C1274 0.929 . S
H1271 C1280 0.929 . S
C1272 H1266 0.910 1_655 S
C1272 C1273 1.376 . S
C1272 C1280 1.390 . S
C1273 C1272 1.376 . S
C1273 C1281 1.433 . S
C1274 H1270 0.929 . S
C1274 C1276 1.378 . S
C1274 C1278 1.350 . S
C1275 C1278 1.463 . S
C1275 C1280 1.350 . S
C1275 N1283 1.427 . S
C1276 H1267 0.930 . S
C1276 C1274 1.378 . S
C1276 C1277 1.367 . S
C1277 C1276 1.367 . S
C1277 C1279 1.433 . S
C1278 C1274 1.350 . S
C1278 C1275 1.463 . S
C1278 N1282 1.427 . S
C1279 H1269 0.929 . S
C1279 C1277 1.433 . S
C1279 N1282 1.384 . S
C1280 H1271 0.929 . S
C1280 C1272 1.390 . S
C1280 C1275 1.350 . S
C1281 H1268 0.929 . S
C1281 C1273 1.433 . S
C1281 N1283 1.384 . S
N1282 C1278 1.427 . S
N1282 C1279 1.384 . S
N1283 C1275 1.427 . S
N1283 C1281 1.384 . S
H1284 C1290 0.930 . S
H1285 C1294 0.930 . S
H1286 C1299 0.929 . S
H1287 C1297 0.929 . S
H1288 C1292 0.929 . S
H1289 C1298 0.929 . S
C1290 H1284 0.930 . S
C1290 C1291 1.367 . S
C1290 C1298 1.378 . S
C1291 C1290 1.367 . S
C1291 C1299 1.433 . S
C1292 H1288 0.929 . S
C1292 C1294 1.378 . S
C1292 C1296 1.350 . S
C1293 C1296 1.463 . S
C1293 C1298 1.350 . S
C1293 N1301 1.427 . S
C1294 H1285 0.930 . S
C1294 C1292 1.378 . S
C1294 C1295 1.367 . S
C1295 C1294 1.367 . S
C1295 C1297 1.433 . S
C1296 C1292 1.350 . S
C1296 C1293 1.463 . S
C1296 N1300 1.427 . S
C1297 H1287 0.929 . S
C1297 C1295 1.433 . S
C1297 N1300 1.384 . S
C1298 H1289 0.929 . S
C1298 C1290 1.378 . S
C1298 C1293 1.350 . S
C1299 H1286 0.929 . S
C1299 C1291 1.433 . S
C1299 N1301 1.384 . S
N1300 C1296 1.427 . S
N1300 C1297 1.384 . S
N1301 C1293 1.427 . S
N1301 C1299 1.384 . S
H1302 C1308 0.930 . S
H1303 C1312 0.930 . S
H1304 C1317 0.929 . S
H1305 C1315 0.929 . S
H1306 C1310 0.929 . S
H1307 C1316 0.929 . S
C1308 H1302 0.930 . S
C1308 C1309 1.367 . S
C1308 C1316 1.378 . S
C1309 C1308 1.367 . S
C1309 C1317 1.433 . S
C1310 H1306 0.929 . S
C1310 C1312 1.378 . S
C1310 C1314 1.350 . S
C1311 C1314 1.463 . S
C1311 C1316 1.350 . S
C1311 N1319 1.427 . S
C1312 H1303 0.930 . S
C1312 C1310 1.378 . S
C1312 C1313 1.367 . S
C1313 C1312 1.367 . S
C1313 C1315 1.433 . S
C1314 C1310 1.350 . S
C1314 C1311 1.463 . S
C1314 N1318 1.427 . S
C1315 H1305 0.929 . S
C1315 C1313 1.433 . S
C1315 N1318 1.384 . S
C1316 H1307 0.929 . S
C1316 C1308 1.378 . S
C1316 C1311 1.350 . S
C1317 H1304 0.929 . S
C1317 C1309 1.433 . S
C1317 N1319 1.384 . S
N1318 C1314 1.427 . S
N1318 C1315 1.384 . S
N1319 C1311 1.427 . S
N1319 C1317 1.384 . S
H1320 C1326 0.930 . S
H1321 C1330 0.930 1_455 S
H1322 C1335 0.929 . S
H1323 C1333 0.929 . S
H1324 C1328 0.929 . S
H1325 C1334 0.929 . S
C1326 H1320 0.930 . S
C1326 C1327 1.367 . S
C1326 C1334 1.378 . S
C1327 C1326 1.367 . S
C1327 C1335 1.433 . S
C1328 H1324 0.929 . S
C1328 C1330 1.378 . S
C1328 C1332 1.350 . S
C1329 C1332 1.463 . S
C1329 C1334 1.350 . S
C1329 N1337 1.427 . S
C1330 H1321 0.930 1_655 S
C1330 C1328 1.378 . S
C1330 C1331 1.367 . S
C1331 C1330 1.367 . S
C1331 C1333 1.433 . S
C1332 C1328 1.350 . S
C1332 C1329 1.463 . S
C1332 N1336 1.427 . S
C1333 H1323 0.929 . S
C1333 C1331 1.433 . S
C1333 N1336 1.384 . S
C1334 H1325 0.929 . S
C1334 C1326 1.378 . S
C1334 C1329 1.350 . S
C1335 H1322 0.929 . S
C1335 C1327 1.433 . S
C1335 N1337 1.384 . S
N1336 C1332 1.427 . S
N1336 C1333 1.384 . S
N1337 C1329 1.427 . S
N1337 C1335 1.384 . S
H1338 C1344 0.930 . S
H1339 C1348 0.930 . S
H1340 C1353 0.929 . S
H1341 C1351 0.929 . S
H1342 C1346 0.929 . S
H1343 C1352 0.929 . S
C1344 H1338 0.930 . S
C1344 C1345 1.367 . S
C1344 C1352 1.378 . S
C1345 C1344 1.367 . S
C1345 C1353 1.433 . S
C1346 H1342 0.929 . S
C1346 C1348 1.378 . S
C1346 C1350 1.350 . S
C1347 C1350 1.463 . S
C1347 C1352 1.350 . S
C1347 N1355 1.427 . S
C1348 H1339 0.930 . S
C1348 C1346 1.378 . S
C1348 C1349 1.367 . S
C1349 C1348 1.367 . S
C1349 C1351 1.433 . S
C1350 C1346 1.350 . S
C1350 C1347 1.463 . S
C1350 N1354 1.427 . S
C1351 H1341 0.929 . S
C1351 C1349 1.433 . S
C1351 N1354 1.384 . S
C1352 H1343 0.929 . S
C1352 C1344 1.378 . S
C1352 C1347 1.350 . S
C1353 H1340 0.929 . S
C1353 C1345 1.433 . S
C1353 N1355 1.384 . S
N1354 C1350 1.427 . S
N1354 C1351 1.384 . S
N1355 C1347 1.427 . S
N1355 C1353 1.384 . S
H1356 C1362 0.930 . S
H1357 C1366 0.930 . S
H1358 C1371 0.929 . S
H1359 C1369 0.929 . S
H1360 C1364 0.929 . S
H1361 C1370 0.929 . S
C1362 H1356 0.930 . S
C1362 C1363 1.367 . S
C1362 C1370 1.378 . S
C1363 C1362 1.367 . S
C1363 C1371 1.433 1_556 S
C1364 H1360 0.929 . S
C1364 C1366 1.378 . S
C1364 C1368 1.350 . S
C1365 C1368 1.463 . S
C1365 C1370 1.350 . S
C1365 N1373 1.427 . S
C1366 H1357 0.930 . S
C1366 C1364 1.378 . S
C1366 C1367 1.367 . S
C1367 C1366 1.367 . S
C1367 C1369 1.433 . S
C1368 C1364 1.350 . S
C1368 C1365 1.463 . S
C1368 N1372 1.427 . S
C1369 H1359 0.929 . S
C1369 C1367 1.433 . S
C1369 N1372 1.384 . S
C1370 H1361 0.929 . S
C1370 C1362 1.378 . S
C1370 C1365 1.350 . S
C1371 H1358 0.929 . S
C1371 C1363 1.433 1_554 S
C1371 N1373 1.384 1_554 S
N1372 C1368 1.427 . S
N1372 C1369 1.384 . S
N1373 C1365 1.427 . S
N1373 C1371 1.384 1_556 S
H1374 C1380 0.930 . S
H1375 C1384 0.930 . S
H1376 C1389 0.929 . S
H1377 C1387 0.929 . S
H1378 C1382 0.929 . S
H1379 C1388 0.929 . S
C1380 H1374 0.930 . S
C1380 C1381 1.367 . S
C1380 C1388 1.378 . S
C1381 C1380 1.367 . S
C1381 C1389 1.433 . S
C1382 H1378 0.929 . S
C1382 C1384 1.378 . S
C1382 C1386 1.350 . S
C1383 C1386 1.463 . S
C1383 C1388 1.350 . S
C1383 N1391 1.427 . S
C1384 H1375 0.930 . S
C1384 C1382 1.378 . S
C1384 C1385 1.367 . S
C1385 C1384 1.367 . S
C1385 C1387 1.433 . S
C1386 C1382 1.350 . S
C1386 C1383 1.463 . S
C1386 N1390 1.427 . S
C1387 H1377 0.929 . S
C1387 C1385 1.433 . S
C1387 N1390 1.384 . S
C1388 H1379 0.929 . S
C1388 C1380 1.378 . S
C1388 C1383 1.350 . S
C1389 H1376 0.929 . S
C1389 C1381 1.433 . S
C1389 N1391 1.384 . S
N1390 C1386 1.427 . S
N1390 C1387 1.384 . S
N1391 C1383 1.427 . S
N1391 C1389 1.384 . S
H1392 C1398 0.930 . S
H1393 C1402 0.930 . S
H1394 C1407 0.929 . S
H1395 C1405 0.929 . S
H1396 C1400 0.929 . S
H1397 C1406 0.929 . S
C1398 H1392 0.930 . S
C1398 C1399 1.367 . S
C1398 C1406 1.378 . S
C1399 C1398 1.367 . S
C1399 C1407 1.433 . S
C1400 H1396 0.929 . S
C1400 C1402 1.378 . S
C1400 C1404 1.350 . S
C1401 C1404 1.463 . S
C1401 C1406 1.350 . S
C1401 N1409 1.427 . S
C1402 H1393 0.930 . S
C1402 C1400 1.378 . S
C1402 C1403 1.367 . S
C1403 C1402 1.367 . S
C1403 C1405 1.433 . S
C1404 C1400 1.350 . S
C1404 C1401 1.463 . S
C1404 N1408 1.427 . S
C1405 H1395 0.929 . S
C1405 C1403 1.433 . S
C1405 N1408 1.384 . S
C1406 H1397 0.929 . S
C1406 C1398 1.378 . S
C1406 C1401 1.350 . S
C1407 H1394 0.929 . S
C1407 C1399 1.433 . S
C1407 N1409 1.384 . S
N1408 C1404 1.427 . S
N1408 C1405 1.384 . S
N1409 C1401 1.427 . S
N1409 C1407 1.384 . S
H1410 C1416 0.930 . S
H1411 C1420 0.930 . S
H1412 C1425 0.929 . S
H1413 C1423 0.929 . S
H1414 C1418 0.929 . S
H1415 C1424 0.929 . S
C1416 H1410 0.930 . S
C1416 C1417 1.367 . S
C1416 C1424 1.378 . S
C1417 C1416 1.367 . S
C1417 C1425 1.433 . S
C1418 H1414 0.929 . S
C1418 C1420 1.378 . S
C1418 C1422 1.350 . S
C1419 C1422 1.463 . S
C1419 C1424 1.350 . S
C1419 N1427 1.427 . S
C1420 H1411 0.930 . S
C1420 C1418 1.378 . S
C1420 C1421 1.367 . S
C1421 C1420 1.367 . S
C1421 C1423 1.433 . S
C1422 C1418 1.350 . S
C1422 C1419 1.463 . S
C1422 N1426 1.427 . S
C1423 H1413 0.929 . S
C1423 C1421 1.433 . S
C1423 N1426 1.384 . S
C1424 H1415 0.929 . S
C1424 C1416 1.378 . S
C1424 C1419 1.350 . S
C1425 H1412 0.929 . S
C1425 C1417 1.433 . S
C1425 N1427 1.384 . S
N1426 C1422 1.427 . S
N1426 C1423 1.384 . S
N1427 C1419 1.427 . S
N1427 C1425 1.384 . S
H1428 C1434 0.930 . S
H1429 C1438 0.930 . S
H1430 C1443 0.929 . S
H1431 C1441 0.929 . S
H1432 C1436 0.929 . S
H1433 C1442 0.929 . S
C1434 H1428 0.930 . S
C1434 C1435 1.367 . S
C1434 C1442 1.378 . S
C1435 C1434 1.367 . S
C1435 C1443 1.433 . S
C1436 H1432 0.929 . S
C1436 C1438 1.378 . S
C1436 C1440 1.350 . S
C1437 C1440 1.463 . S
C1437 C1442 1.350 . S
C1437 N1445 1.427 . S
C1438 H1429 0.930 . S
C1438 C1436 1.378 . S
C1438 C1439 1.367 . S
C1439 C1438 1.367 . S
C1439 C1441 1.433 . S
C1440 C1436 1.350 . S
C1440 C1437 1.463 . S
C1440 N1444 1.427 . S
C1441 H1431 0.929 . S
C1441 C1439 1.433 . S
C1441 N1444 1.384 . S
C1442 H1433 0.929 . S
C1442 C1434 1.378 . S
C1442 C1437 1.350 . S
C1443 H1430 0.929 . S
C1443 C1435 1.433 . S
C1443 N1445 1.384 . S
N1444 C1440 1.427 . S
N1444 C1441 1.384 . S
N1445 C1437 1.427 . S
N1445 C1443 1.384 . S
H1446 C1452 0.930 . S
H1447 C1456 0.930 . S
H1448 C1461 0.929 . S
H1449 C1459 0.929 . S
H1450 C1454 0.929 . S
H1451 C1460 0.929 . S
C1452 H1446 0.930 . S
C1452 C1453 1.367 . S
C1452 C1460 1.378 . S
C1453 C1452 1.367 . S
C1453 C1461 1.433 . S
C1454 H1450 0.929 . S
C1454 C1456 1.378 . S
C1454 C1458 1.350 . S
C1455 C1458 1.463 . S
C1455 C1460 1.350 . S
C1455 N1463 1.427 . S
C1456 H1447 0.930 . S
C1456 C1454 1.378 . S
C1456 C1457 1.367 . S
C1457 C1456 1.367 . S
C1457 C1459 1.433 . S
C1458 C1454 1.350 . S
C1458 C1455 1.463 . S
C1458 N1462 1.427 . S
C1459 H1449 0.929 . S
C1459 C1457 1.433 . S
C1459 N1462 1.384 . S
C1460 H1451 0.929 . S
C1460 C1452 1.378 . S
C1460 C1455 1.350 . S
C1461 H1448 0.929 . S
C1461 C1453 1.433 . S
C1461 N1463 1.384 . S
N1462 C1458 1.427 . S
N1462 C1459 1.384 . S
N1463 C1455 1.427 . S
N1463 C1461 1.384 . S
H1464 C1470 0.930 . S
H1465 C1474 0.930 . S
H1466 C1479 0.929 . S
H1467 C1477 0.929 . S
H1468 C1472 0.929 . S
H1469 C1478 0.929 . S
C1470 H1464 0.930 . S
C1470 C1471 1.367 . S
C1470 C1478 1.378 . S
C1471 C1470 1.367 . S
C1471 C1479 1.433 . S
C1472 H1468 0.929 . S
C1472 C1474 1.378 . S
C1472 C1476 1.350 . S
C1473 C1476 1.463 . S
C1473 C1478 1.350 . S
C1473 N1481 1.427 . S
C1474 H1465 0.930 . S
C1474 C1472 1.378 . S
C1474 C1475 1.367 . S
C1475 C1474 1.367 . S
C1475 C1477 1.433 . S
C1476 C1472 1.350 . S
C1476 C1473 1.463 . S
C1476 N1480 1.427 . S
C1477 H1467 0.929 . S
C1477 C1475 1.433 . S
C1477 N1480 1.384 . S
C1478 H1469 0.929 . S
C1478 C1470 1.378 . S
C1478 C1473 1.350 . S
C1479 H1466 0.929 . S
C1479 C1471 1.433 . S
C1479 N1481 1.384 . S
N1480 C1476 1.427 . S
N1480 C1477 1.384 . S
N1481 C1473 1.427 . S
N1481 C1479 1.384 . S
H1482 C1488 0.930 . S
H1483 C1492 0.930 . S
H1484 C1497 0.929 . S
H1485 C1495 0.929 . S
H1486 C1490 0.929 . S
H1487 C1496 0.929 . S
C1488 H1482 0.930 . S
C1488 C1489 1.367 . S
C1488 C1496 1.378 . S
C1489 C1488 1.367 . S
C1489 C1497 1.433 . S
C1490 H1486 0.929 . S
C1490 C1492 1.378 . S
C1490 C1494 1.350 . S
C1491 C1494 1.463 . S
C1491 C1496 1.350 . S
C1491 N1499 1.427 . S
C1492 H1483 0.930 . S
C1492 C1490 1.378 . S
C1492 C1493 1.367 . S
C1493 C1492 1.367 . S
C1493 C1495 1.433 . S
C1494 C1490 1.350 . S
C1494 C1491 1.463 . S
C1494 N1498 1.427 . S
C1495 H1485 0.929 . S
C1495 C1493 1.433 . S
C1495 N1498 1.384 . S
C1496 H1487 0.929 . S
C1496 C1488 1.378 . S
C1496 C1491 1.350 . S
C1497 H1484 0.929 . S
C1497 C1489 1.433 . S
C1497 N1499 1.384 . S
N1498 C1494 1.427 . S
N1498 C1495 1.384 . S
N1499 C1491 1.427 . S
N1499 C1497 1.384 . S
H1500 C1506 0.930 . S
H1501 C1510 0.930 . S
H1502 C1515 0.929 . S
H1503 C1513 0.929 . S
H1504 C1508 0.929 . S
H1505 C1514 0.929 . S
C1506 H1500 0.930 . S
C1506 C1507 1.367 . S
C1506 C1514 1.378 . S
C1507 C1506 1.367 . S
C1507 C1515 1.433 . S
C1508 H1504 0.929 . S
C1508 C1510 1.378 . S
C1508 C1512 1.350 . S
C1509 C1512 1.463 . S
C1509 C1514 1.350 . S
C1509 N1517 1.427 . S
C1510 H1501 0.930 . S
C1510 C1508 1.378 . S
C1510 C1511 1.367 . S
C1511 C1510 1.367 . S
C1511 C1513 1.433 . S
C1512 C1508 1.350 . S
C1512 C1509 1.463 . S
C1512 N1516 1.427 . S
C1513 H1503 0.929 . S
C1513 C1511 1.433 . S
C1513 N1516 1.384 . S
C1514 H1505 0.929 . S
C1514 C1506 1.378 . S
C1514 C1509 1.350 . S
C1515 H1502 0.929 . S
C1515 C1507 1.433 . S
C1515 N1517 1.384 . S
N1516 C1512 1.427 . S
N1516 C1513 1.384 . S
N1517 C1509 1.427 . S
N1517 C1515 1.384 . S
H1518 C1524 0.930 . S
H1519 C1528 0.930 . S
H1520 C1533 0.929 . S
H1521 C1531 0.929 . S
H1522 C1526 0.929 . S
H1523 C1532 0.929 . S
C1524 H1518 0.930 . S
C1524 C1525 1.367 . S
C1524 C1532 1.378 . S
C1525 C1524 1.367 . S
C1525 C1533 1.433 . S
C1526 H1522 0.929 . S
C1526 C1528 1.378 . S
C1526 C1530 1.350 . S
C1527 C1530 1.463 . S
C1527 C1532 1.350 . S
C1527 N1535 1.427 . S
C1528 H1519 0.930 . S
C1528 C1526 1.378 . S
C1528 C1529 1.367 . S
C1529 C1528 1.367 . S
C1529 C1531 1.433 . S
C1530 C1526 1.350 . S
C1530 C1527 1.463 . S
C1530 N1534 1.427 . S
C1531 H1521 0.929 . S
C1531 C1529 1.433 . S
C1531 N1534 1.384 . S
C1532 H1523 0.929 . S
C1532 C1524 1.378 . S
C1532 C1527 1.350 . S
C1533 H1520 0.929 . S
C1533 C1525 1.433 . S
C1533 N1535 1.384 . S
N1534 C1530 1.427 . S
N1534 C1531 1.384 . S
N1535 C1527 1.427 . S
N1535 C1533 1.384 . S
H1536 C1542 0.930 . S
H1537 C1546 0.930 . S
H1538 C1551 0.929 . S
H1539 C1549 0.929 1_556 S
H1540 C1544 0.929 . S
H1541 C1550 0.929 . S
C1542 H1536 0.930 . S
C1542 C1543 1.367 . S
C1542 C1550 1.378 . S
C1543 C1542 1.367 . S
C1543 C1551 1.433 . S
C1544 H1540 0.929 . S
C1544 C1546 1.378 . S
C1544 C1548 1.350 . S
C1545 C1548 1.463 . S
C1545 C1550 1.350 . S
C1545 N1553 1.427 . S
C1546 H1537 0.930 . S
C1546 C1544 1.378 . S
C1546 C1547 1.367 . S
C1547 C1546 1.367 . S
C1547 C1549 1.433 . S
C1548 C1544 1.350 . S
C1548 C1545 1.463 . S
C1548 N1552 1.427 . S
C1549 H1539 0.929 1_554 S
C1549 C1547 1.433 . S
C1549 N1552 1.384 . S
C1550 H1541 0.929 . S
C1550 C1542 1.378 . S
C1550 C1545 1.350 . S
C1551 H1538 0.929 . S
C1551 C1543 1.433 . S
C1551 N1553 1.384 . S
N1552 C1548 1.427 . S
N1552 C1549 1.384 . S
N1553 C1545 1.427 . S
N1553 C1551 1.384 . S
H1554 C1560 0.930 . S
H1555 C1564 0.930 . S
H1556 C1569 0.929 . S
H1557 C1567 0.929 . S
H1558 C1562 0.929 . S
H1559 C1568 0.929 . S
C1560 H1554 0.930 . S
C1560 C1561 1.367 . S
C1560 C1568 1.378 . S
C1561 C1560 1.367 . S
C1561 C1569 1.433 . S
C1562 H1558 0.929 . S
C1562 C1564 1.378 . S
C1562 C1566 1.350 . S
C1563 C1566 1.463 . S
C1563 C1568 1.350 . S
C1563 N1571 1.427 . S
C1564 H1555 0.930 . S
C1564 C1562 1.378 . S
C1564 C1565 1.367 . S
C1565 C1564 1.367 . S
C1565 C1567 1.433 . S
C1566 C1562 1.350 . S
C1566 C1563 1.463 . S
C1566 N1570 1.427 . S
C1567 H1557 0.929 . S
C1567 C1565 1.433 . S
C1567 N1570 1.384 . S
C1568 H1559 0.929 . S
C1568 C1560 1.378 . S
C1568 C1563 1.350 . S
C1569 H1556 0.929 . S
C1569 C1561 1.433 . S
C1569 N1571 1.384 . S
N1570 C1566 1.427 . S
N1570 C1567 1.384 . S
N1571 C1563 1.427 . S
N1571 C1569 1.384 . S
H1572 C1578 0.930 . S
H1573 C1582 0.930 . S
H1574 C1587 0.929 . S
H1575 C1585 0.929 . S
H1576 C1580 0.929 . S
H1577 C1586 0.929 . S
C1578 H1572 0.930 . S
C1578 C1579 1.367 . S
C1578 C1586 1.378 . S
C1579 C1578 1.367 . S
C1579 C1587 1.433 . S
C1580 H1576 0.929 . S
C1580 C1582 1.378 . S
C1580 C1584 1.350 . S
C1581 C1584 1.463 . S
C1581 C1586 1.350 . S
C1581 N1589 1.427 . S
C1582 H1573 0.930 . S
C1582 C1580 1.378 . S
C1582 C1583 1.367 . S
C1583 C1582 1.367 . S
C1583 C1585 1.433 . S
C1584 C1580 1.350 . S
C1584 C1581 1.463 . S
C1584 N1588 1.427 . S
C1585 H1575 0.929 . S
C1585 C1583 1.433 . S
C1585 N1588 1.384 . S
C1586 H1577 0.929 . S
C1586 C1578 1.378 . S
C1586 C1581 1.350 . S
C1587 H1574 0.929 . S
C1587 C1579 1.433 . S
C1587 N1589 1.384 . S
N1588 C1584 1.427 . S
N1588 C1585 1.384 . S
N1589 C1581 1.427 . S
N1589 C1587 1.384 . S
H1590 C1596 0.930 . S
H1591 C1600 0.930 . S
H1592 C1605 0.929 . S
H1593 C1603 0.929 . S
H1594 C1598 0.929 . S
H1595 C1604 0.929 . S
C1596 H1590 0.930 . S
C1596 C1597 1.367 . S
C1596 C1604 1.378 . S
C1597 C1596 1.367 . S
C1597 C1605 1.433 . S
C1598 H1594 0.929 . S
C1598 C1600 1.378 . S
C1598 C1602 1.350 . S
C1599 C1602 1.463 . S
C1599 C1604 1.350 . S
C1599 N1607 1.427 . S
C1600 H1591 0.930 . S
C1600 C1598 1.378 . S
C1600 C1601 1.367 . S
C1601 C1600 1.367 . S
C1601 C1603 1.433 . S
C1602 C1598 1.350 . S
C1602 C1599 1.463 . S
C1602 N1606 1.427 . S
C1603 H1593 0.929 . S
C1603 C1601 1.433 . S
C1603 N1606 1.384 . S
C1604 H1595 0.929 . S
C1604 C1596 1.378 . S
C1604 C1599 1.350 . S
C1605 H1592 0.929 . S
C1605 C1597 1.433 . S
C1605 N1607 1.384 . S
N1606 C1602 1.427 . S
N1606 C1603 1.384 . S
N1607 C1599 1.427 . S
N1607 C1605 1.384 . S
H1608 C1614 0.930 . S
H1609 C1618 0.930 . S
H1610 C1623 0.929 . S
H1611 C1621 0.929 . S
H1612 C1616 0.929 . S
H1613 C1622 0.929 . S
C1614 H1608 0.930 . S
C1614 C1615 1.367 . S
C1614 C1622 1.378 . S
C1615 C1614 1.367 . S
C1615 C1623 1.433 . S
C1616 H1612 0.929 . S
C1616 C1618 1.378 . S
C1616 C1620 1.350 . S
C1617 C1620 1.463 . S
C1617 C1622 1.350 . S
C1617 N1625 1.427 . S
C1618 H1609 0.930 . S
C1618 C1616 1.378 . S
C1618 C1619 1.367 . S
C1619 C1618 1.367 . S
C1619 C1621 1.433 . S
C1620 C1616 1.350 . S
C1620 C1617 1.463 . S
C1620 N1624 1.427 . S
C1621 H1611 0.929 . S
C1621 C1619 1.433 . S
C1621 N1624 1.384 . S
C1622 H1613 0.929 . S
C1622 C1614 1.378 . S
C1622 C1617 1.350 . S
C1623 H1610 0.929 . S
C1623 C1615 1.433 . S
C1623 N1625 1.384 . S
N1624 C1620 1.427 . S
N1624 C1621 1.384 . S
N1625 C1617 1.427 . S
N1625 C1623 1.384 . S
H1626 C1632 0.930 . S
H1627 C1636 0.930 . S
H1628 C1641 0.929 . S
H1629 C1639 0.929 . S
H1630 C1634 0.929 . S
H1631 C1640 0.929 . S
C1632 H1626 0.930 . S
C1632 C1633 1.367 . S
C1632 C1640 1.378 . S
C1633 C1632 1.367 . S
C1633 C1641 1.433 . S
C1634 H1630 0.929 . S
C1634 C1636 1.378 . S
C1634 C1638 1.350 . S
C1635 C1638 1.463 . S
C1635 C1640 1.350 . S
C1635 N1643 1.427 . S
C1636 H1627 0.930 . S
C1636 C1634 1.378 . S
C1636 C1637 1.367 . S
C1637 C1636 1.367 . S
C1637 C1639 1.433 . S
C1638 C1634 1.350 . S
C1638 C1635 1.463 . S
C1638 N1642 1.427 . S
C1639 H1629 0.929 . S
C1639 C1637 1.433 . S
C1639 N1642 1.384 . S
C1640 H1631 0.929 . S
C1640 C1632 1.378 . S
C1640 C1635 1.350 . S
C1641 H1628 0.929 . S
C1641 C1633 1.433 . S
C1641 N1643 1.384 . S
N1642 C1638 1.427 . S
N1642 C1639 1.384 . S
N1643 C1635 1.427 . S
N1643 C1641 1.384 . S
H1644 C1650 0.930 . S
H1645 C1654 0.930 . S
H1646 C1659 0.929 . S
H1647 C1657 0.929 . S
H1648 C1652 0.929 . S
H1649 C1658 0.929 . S
C1650 H1644 0.930 . S
C1650 C1651 1.367 . S
C1650 C1658 1.378 . S
C1651 C1650 1.367 . S
C1651 C1659 1.433 . S
C1652 H1648 0.929 . S
C1652 C1654 1.378 . S
C1652 C1656 1.350 . S
C1653 C1656 1.463 . S
C1653 C1658 1.350 . S
C1653 N1661 1.427 . S
C1654 H1645 0.930 . S
C1654 C1652 1.378 . S
C1654 C1655 1.367 . S
C1655 C1654 1.367 . S
C1655 C1657 1.433 . S
C1656 C1652 1.350 . S
C1656 C1653 1.463 . S
C1656 N1660 1.427 . S
C1657 H1647 0.929 . S
C1657 C1655 1.433 . S
C1657 N1660 1.384 . S
C1658 H1649 0.929 . S
C1658 C1650 1.378 . S
C1658 C1653 1.350 . S
C1659 H1646 0.929 . S
C1659 C1651 1.433 . S
C1659 N1661 1.384 . S
N1660 C1656 1.427 . S
N1660 C1657 1.384 . S
N1661 C1653 1.427 . S
N1661 C1659 1.384 . S
H1662 C1668 0.930 . S
H1663 C1672 0.930 . S
H1664 C1677 0.929 . S
H1665 C1675 0.929 . S
H1666 C1670 0.929 . S
H1667 C1676 0.929 . S
C1668 H1662 0.930 . S
C1668 C1669 1.367 . S
C1668 C1676 1.378 . S
C1669 C1668 1.367 . S
C1669 C1677 1.433 . S
C1670 H1666 0.929 . S
C1670 C1672 1.378 . S
C1670 C1674 1.350 . S
C1671 C1674 1.463 . S
C1671 C1676 1.350 . S
C1671 N1679 1.427 . S
C1672 H1663 0.930 . S
C1672 C1670 1.378 . S
C1672 C1673 1.367 . S
C1673 C1672 1.367 . S
C1673 C1675 1.433 . S
C1674 C1670 1.350 . S
C1674 C1671 1.463 . S
C1674 N1678 1.427 . S
C1675 H1665 0.929 . S
C1675 C1673 1.433 . S
C1675 N1678 1.384 . S
C1676 H1667 0.929 . S
C1676 C1668 1.378 . S
C1676 C1671 1.350 . S
C1677 H1664 0.929 . S
C1677 C1669 1.433 . S
C1677 N1679 1.384 . S
N1678 C1674 1.427 . S
N1678 C1675 1.384 . S
N1679 C1671 1.427 . S
N1679 C1677 1.384 . S
H1680 C1686 0.930 . S
H1681 C1690 0.930 . S
H1682 C1695 0.929 . S
H1683 C1693 0.929 . S
H1684 C1688 0.929 . S
H1685 C1694 0.929 . S
C1686 H1680 0.930 . S
C1686 C1687 1.367 . S
C1686 C1694 1.378 . S
C1687 C1686 1.367 . S
C1687 C1695 1.433 . S
C1688 H1684 0.929 . S
C1688 C1690 1.378 . S
C1688 C1692 1.350 . S
C1689 C1692 1.463 . S
C1689 C1694 1.350 . S
C1689 N1697 1.427 . S
C1690 H1681 0.930 . S
C1690 C1688 1.378 . S
C1690 C1691 1.367 . S
C1691 C1690 1.367 . S
C1691 C1693 1.433 . S
C1692 C1688 1.350 . S
C1692 C1689 1.463 . S
C1692 N1696 1.427 . S
C1693 H1683 0.929 . S
C1693 C1691 1.433 . S
C1693 N1696 1.384 . S
C1694 H1685 0.929 . S
C1694 C1686 1.378 . S
C1694 C1689 1.350 . S
C1695 H1682 0.929 . S
C1695 C1687 1.433 . S
C1695 N1697 1.384 . S
N1696 C1692 1.427 . S
N1696 C1693 1.384 . S
N1697 C1689 1.427 . S
N1697 C1695 1.384 . S
H1698 C1704 0.930 . S
H1699 C1708 0.930 . S
H1700 C1713 0.929 . S
H1701 C1711 0.929 . S
H1702 C1706 0.929 . S
H1703 C1712 0.929 . S
C1704 H1698 0.930 . S
C1704 C1705 1.367 . S
C1704 C1712 1.378 . S
C1705 C1704 1.367 . S
C1705 C1713 1.433 . S
C1706 H1702 0.929 . S
C1706 C1708 1.378 . S
C1706 C1710 1.350 . S
C1707 C1710 1.463 . S
C1707 C1712 1.350 . S
C1707 N1715 1.427 . S
C1708 H1699 0.930 . S
C1708 C1706 1.378 . S
C1708 C1709 1.367 . S
C1709 C1708 1.367 . S
C1709 C1711 1.433 . S
C1710 C1706 1.350 . S
C1710 C1707 1.463 . S
C1710 N1714 1.427 . S
C1711 H1701 0.929 . S
C1711 C1709 1.433 . S
C1711 N1714 1.384 . S
C1712 H1703 0.929 . S
C1712 C1704 1.378 . S
C1712 C1707 1.350 . S
C1713 H1700 0.929 . S
C1713 C1705 1.433 . S
C1713 N1715 1.384 . S
N1714 C1710 1.427 . S
N1714 C1711 1.384 . S
N1715 C1707 1.427 . S
N1715 C1713 1.384 . S
H1716 C1722 0.930 . S
H1717 C1726 0.930 . S
H1718 C1731 0.929 . S
H1719 C1729 0.929 . S
H1720 C1724 0.929 . S
H1721 C1730 0.929 . S
C1722 H1716 0.930 . S
C1722 C1723 1.367 . S
C1722 C1730 1.378 . S
C1723 C1722 1.367 . S
C1723 C1731 1.433 . S
C1724 H1720 0.929 . S
C1724 C1726 1.378 . S
C1724 C1728 1.350 . S
C1725 C1728 1.463 . S
C1725 C1730 1.350 . S
C1725 N1733 1.427 . S
C1726 H1717 0.930 . S
C1726 C1724 1.378 . S
C1726 C1727 1.367 . S
C1727 C1726 1.367 . S
C1727 C1729 1.433 . S
C1728 C1724 1.350 . S
C1728 C1725 1.463 . S
C1728 N1732 1.427 . S
C1729 H1719 0.929 . S
C1729 C1727 1.433 . S
C1729 N1732 1.384 . S
C1730 H1721 0.929 . S
C1730 C1722 1.378 . S
C1730 C1725 1.350 . S
C1731 H1718 0.929 . S
C1731 C1723 1.433 . S
C1731 N1733 1.384 . S
N1732 C1728 1.427 . S
N1732 C1729 1.384 . S
N1733 C1725 1.427 . S
N1733 C1731 1.384 . S
H1734 C1740 0.930 . S
H1735 C1744 0.930 . S
H1736 C1749 0.929 . S
H1737 C1747 0.929 . S
H1738 C1742 0.929 . S
H1739 C1748 0.929 . S
C1740 H1734 0.930 . S
C1740 C1741 1.367 . S
C1740 C1748 1.378 . S
C1741 C1740 1.367 . S
C1741 C1749 1.433 . S
C1742 H1738 0.929 . S
C1742 C1744 1.378 . S
C1742 C1746 1.350 . S
C1743 C1746 1.463 . S
C1743 C1748 1.350 . S
C1743 N1751 1.427 . S
C1744 H1735 0.930 . S
C1744 C1742 1.378 . S
C1744 C1745 1.367 . S
C1745 C1744 1.367 . S
C1745 C1747 1.433 . S
C1746 C1742 1.350 . S
C1746 C1743 1.463 . S
C1746 N1750 1.427 . S
C1747 H1737 0.929 . S
C1747 C1745 1.433 . S
C1747 N1750 1.384 . S
C1748 H1739 0.929 . S
C1748 C1740 1.378 . S
C1748 C1743 1.350 . S
C1749 H1736 0.929 . S
C1749 C1741 1.433 . S
C1749 N1751 1.384 . S
N1750 C1746 1.427 . S
N1750 C1747 1.384 . S
N1751 C1743 1.427 . S
N1751 C1749 1.384 . S
H1752 C1758 0.930 . S
H1753 C1762 0.930 . S
H1754 C1767 0.929 . S
H1755 C1765 0.929 . S
H1756 C1760 0.929 . S
H1757 C1766 0.929 . S
C1758 H1752 0.930 . S
C1758 C1759 1.367 . S
C1758 C1766 1.378 . S
C1759 C1758 1.367 . S
C1759 C1767 1.433 . S
C1760 H1756 0.929 . S
C1760 C1762 1.378 . S
C1760 C1764 1.350 . S
C1761 C1764 1.463 . S
C1761 C1766 1.350 . S
C1761 N1769 1.427 . S
C1762 H1753 0.930 . S
C1762 C1760 1.378 . S
C1762 C1763 1.367 . S
C1763 C1762 1.367 . S
C1763 C1765 1.433 . S
C1764 C1760 1.350 . S
C1764 C1761 1.463 . S
C1764 N1768 1.427 . S
C1765 H1755 0.929 . S
C1765 C1763 1.433 . S
C1765 N1768 1.384 . S
C1766 H1757 0.929 . S
C1766 C1758 1.378 . S
C1766 C1761 1.350 . S
C1767 H1754 0.929 . S
C1767 C1759 1.433 . S
C1767 N1769 1.384 . S
N1768 C1764 1.427 . S
N1768 C1765 1.384 . S
N1769 C1761 1.427 . S
N1769 C1767 1.384 . S
H1770 C1776 0.930 . S
H1771 C1780 0.930 . S
H1772 C1785 0.929 . S
H1773 C1783 0.929 . S
H1774 C1778 0.929 . S
H1775 C1784 0.929 . S
C1776 H1770 0.930 . S
C1776 C1777 1.367 . S
C1776 C1784 1.378 . S
C1777 C1776 1.367 . S
C1777 C1785 1.433 . S
C1778 H1774 0.929 . S
C1778 C1780 1.378 . S
C1778 C1782 1.350 . S
C1779 C1782 1.463 . S
C1779 C1784 1.350 . S
C1779 N1787 1.427 . S
C1780 H1771 0.930 . S
C1780 C1778 1.378 . S
C1780 C1781 1.367 . S
C1781 C1780 1.367 . S
C1781 C1783 1.433 . S
C1782 C1778 1.350 . S
C1782 C1779 1.463 . S
C1782 N1786 1.427 . S
C1783 H1773 0.929 . S
C1783 C1781 1.433 . S
C1783 N1786 1.384 . S
C1784 H1775 0.929 . S
C1784 C1776 1.378 . S
C1784 C1779 1.350 . S
C1785 H1772 0.929 . S
C1785 C1777 1.433 . S
C1785 N1787 1.384 . S
N1786 C1782 1.427 . S
N1786 C1783 1.384 . S
N1787 C1779 1.427 . S
N1787 C1785 1.384 . S
H1788 C1794 0.930 . S
H1789 C1798 0.930 . S
H1790 C1803 0.929 . S
H1791 C1801 0.929 . S
H1792 C1796 0.929 . S
H1793 C1802 0.929 . S
C1794 H1788 0.930 . S
C1794 C1795 1.367 . S
C1794 C1802 1.378 . S
C1795 C1794 1.367 . S
C1795 C1803 1.433 . S
C1796 H1792 0.929 . S
C1796 C1798 1.378 . S
C1796 C1800 1.350 . S
C1797 C1800 1.463 . S
C1797 C1802 1.350 . S
C1797 N1805 1.427 . S
C1798 H1789 0.930 . S
C1798 C1796 1.378 . S
C1798 C1799 1.367 . S
C1799 C1798 1.367 . S
C1799 C1801 1.433 . S
C1800 C1796 1.350 . S
C1800 C1797 1.463 . S
C1800 N1804 1.427 . S
C1801 H1791 0.929 . S
C1801 C1799 1.433 . S
C1801 N1804 1.384 . S
C1802 H1793 0.929 . S
C1802 C1794 1.378 . S
C1802 C1797 1.350 . S
C1803 H1790 0.929 . S
C1803 C1795 1.433 . S
C1803 N1805 1.384 . S
N1804 C1800 1.427 . S
N1804 C1801 1.384 . S
N1805 C1797 1.427 . S
N1805 C1803 1.384 . S
H1806 C1812 0.930 . S
H1807 C1816 0.930 . S
H1808 C1821 0.929 . S
H1809 C1819 0.929 . S
H1810 C1814 0.929 . S
H1811 C1820 0.929 . S
C1812 H1806 0.930 . S
C1812 C1813 1.367 . S
C1812 C1820 1.378 . S
C1813 C1812 1.367 . S
C1813 C1821 1.433 . S
C1814 H1810 0.929 . S
C1814 C1816 1.378 . S
C1814 C1818 1.350 . S
C1815 C1818 1.463 . S
C1815 C1820 1.350 . S
C1815 N1823 1.427 . S
C1816 H1807 0.930 . S
C1816 C1814 1.378 . S
C1816 C1817 1.367 . S
C1817 C1816 1.367 . S
C1817 C1819 1.433 . S
C1818 C1814 1.350 . S
C1818 C1815 1.463 . S
C1818 N1822 1.427 . S
C1819 H1809 0.929 . S
C1819 C1817 1.433 . S
C1819 N1822 1.384 . S
C1820 H1811 0.929 . S
C1820 C1812 1.378 . S
C1820 C1815 1.350 . S
C1821 H1808 0.929 . S
C1821 C1813 1.433 . S
C1821 N1823 1.384 . S
N1822 C1818 1.427 . S
N1822 C1819 1.384 . S
N1823 C1815 1.427 . S
N1823 C1821 1.384 . S
H1824 C1830 0.930 . S
H1825 C1834 0.930 . S
H1826 C1839 0.929 . S
H1827 C1837 0.929 . S
H1828 C1832 0.929 . S
H1829 C1838 0.929 . S
C1830 H1824 0.930 . S
C1830 C1831 1.367 . S
C1830 C1838 1.378 . S
C1831 C1830 1.367 . S
C1831 C1839 1.433 . S
C1832 H1828 0.929 . S
C1832 C1834 1.378 . S
C1832 C1836 1.350 . S
C1833 C1836 1.463 . S
C1833 C1838 1.350 . S
C1833 N1841 1.427 . S
C1834 H1825 0.930 . S
C1834 C1832 1.378 . S
C1834 C1835 1.367 . S
C1835 C1834 1.367 . S
C1835 C1837 1.433 . S
C1836 C1832 1.350 . S
C1836 C1833 1.463 . S
C1836 N1840 1.427 . S
C1837 H1827 0.929 . S
C1837 C1835 1.433 . S
C1837 N1840 1.384 . S
C1838 H1829 0.929 . S
C1838 C1830 1.378 . S
C1838 C1833 1.350 . S
C1839 H1826 0.929 . S
C1839 C1831 1.433 . S
C1839 N1841 1.384 . S
N1840 C1836 1.427 . S
N1840 C1837 1.384 . S
N1841 C1833 1.427 . S
N1841 C1839 1.384 . S
H1842 C1848 0.930 . S
H1843 C1852 0.930 . S
H1844 C1857 0.929 . S
H1845 C1855 0.929 . S
H1846 C1850 0.929 . S
H1847 C1856 0.929 . S
C1848 H1842 0.930 . S
C1848 C1849 1.367 . S
C1848 C1856 1.378 . S
C1849 C1848 1.367 . S
C1849 C1857 1.433 . S
C1850 H1846 0.929 . S
C1850 C1852 1.378 . S
C1850 C1854 1.350 . S
C1851 C1854 1.463 . S
C1851 C1856 1.350 . S
C1851 N1859 1.427 . S
C1852 H1843 0.930 . S
C1852 C1850 1.378 . S
C1852 C1853 1.367 . S
C1853 C1852 1.367 . S
C1853 C1855 1.433 . S
C1854 C1850 1.350 . S
C1854 C1851 1.463 . S
C1854 N1858 1.427 . S
C1855 H1845 0.929 . S
C1855 C1853 1.433 . S
C1855 N1858 1.384 . S
C1856 H1847 0.929 . S
C1856 C1848 1.378 . S
C1856 C1851 1.350 . S
C1857 H1844 0.929 . S
C1857 C1849 1.433 . S
C1857 N1859 1.384 . S
N1858 C1854 1.427 . S
N1858 C1855 1.384 . S
N1859 C1851 1.427 . S
N1859 C1857 1.384 . S
H1860 C1866 0.930 . S
H1861 C1870 0.930 . S
H1862 C1875 0.929 . S
H1863 C1873 0.929 . S
H1864 C1868 0.929 . S
H1865 C1874 0.929 . S
C1866 H1860 0.930 . S
C1866 C1867 1.367 . S
C1866 C1874 1.378 . S
C1867 C1866 1.367 . S
C1867 C1875 1.433 . S
C1868 H1864 0.929 . S
C1868 C1870 1.378 . S
C1868 C1872 1.350 . S
C1869 C1872 1.463 . S
C1869 C1874 1.350 . S
C1869 N1877 1.427 . S
C1870 H1861 0.930 . S
C1870 C1868 1.378 . S
C1870 C1871 1.367 . S
C1871 C1870 1.367 . S
C1871 C1873 1.433 . S
C1872 C1868 1.350 . S
C1872 C1869 1.463 . S
C1872 N1876 1.427 . S
C1873 H1863 0.929 . S
C1873 C1871 1.433 . S
C1873 N1876 1.384 . S
C1874 H1865 0.929 . S
C1874 C1866 1.378 . S
C1874 C1869 1.350 . S
C1875 H1862 0.929 . S
C1875 C1867 1.433 . S
C1875 N1877 1.384 . S
N1876 C1872 1.427 . S
N1876 C1873 1.384 . S
N1877 C1869 1.427 . S
N1877 C1875 1.384 . S
H1878 C1884 0.930 . S
H1879 C1888 0.930 . S
H1880 C1893 0.929 . S
H1881 C1891 0.929 . S
H1882 C1886 0.929 . S
H1883 C1892 0.929 . S
C1884 H1878 0.930 . S
C1884 C1885 1.367 . S
C1884 C1892 1.378 . S
C1885 C1884 1.367 . S
C1885 C1893 1.433 . S
C1886 H1882 0.929 . S
C1886 C1888 1.378 . S
C1886 C1890 1.350 . S
C1887 C1890 1.463 . S
C1887 C1892 1.350 . S
C1887 N1895 1.427 . S
C1888 H1879 0.930 . S
C1888 C1886 1.378 . S
C1888 C1889 1.367 . S
C1889 C1888 1.367 . S
C1889 C1891 1.433 . S
C1890 C1886 1.350 . S
C1890 C1887 1.463 . S
C1890 N1894 1.427 . S
C1891 H1881 0.929 . S
C1891 C1889 1.433 . S
C1891 N1894 1.384 . S
C1892 H1883 0.929 . S
C1892 C1884 1.378 . S
C1892 C1887 1.350 . S
C1893 H1880 0.929 . S
C1893 C1885 1.433 . S
C1893 N1895 1.384 . S
N1894 C1890 1.427 . S
N1894 C1891 1.384 . S
N1895 C1887 1.427 . S
N1895 C1893 1.384 . S
H1896 C1902 0.930 . S
H1897 C1906 0.930 . S
H1898 C1911 0.929 . S
H1899 C1909 0.929 . S
H1900 C1904 0.929 . S
H1901 C1910 0.929 . S
C1902 H1896 0.930 . S
C1902 C1903 1.367 . S
C1902 C1910 1.378 . S
C1903 C1902 1.367 . S
C1903 C1911 1.433 . S
C1904 H1900 0.929 . S
C1904 C1906 1.378 . S
C1904 C1908 1.350 . S
C1905 C1908 1.463 . S
C1905 C1910 1.350 . S
C1905 N1913 1.427 . S
C1906 H1897 0.930 . S
C1906 C1904 1.378 . S
C1906 C1907 1.367 . S
C1907 C1906 1.367 . S
C1907 C1909 1.433 . S
C1908 C1904 1.350 . S
C1908 C1905 1.463 . S
C1908 N1912 1.427 . S
C1909 H1899 0.929 . S
C1909 C1907 1.433 . S
C1909 N1912 1.384 . S
C1910 H1901 0.929 . S
C1910 C1902 1.378 . S
C1910 C1905 1.350 . S
C1911 H1898 0.929 . S
C1911 C1903 1.433 . S
C1911 N1913 1.384 . S
N1912 C1908 1.427 . S
N1912 C1909 1.384 . S
N1913 C1905 1.427 . S
N1913 C1911 1.384 . S
H1914 C1920 0.930 . S
H1915 C1924 0.930 . S
H1916 C1929 0.929 . S
H1917 C1927 0.929 . S
H1918 C1922 0.929 . S
H1919 C1928 0.929 . S
C1920 H1914 0.930 . S
C1920 C1921 1.367 . S
C1920 C1928 1.378 . S
C1921 C1920 1.367 . S
C1921 C1929 1.433 . S
C1922 H1918 0.929 . S
C1922 C1924 1.378 . S
C1922 C1926 1.350 . S
C1923 C1926 1.463 . S
C1923 C1928 1.350 . S
C1923 N1931 1.427 . S
C1924 H1915 0.930 . S
C1924 C1922 1.378 . S
C1924 C1925 1.367 . S
C1925 C1924 1.367 . S
C1925 C1927 1.433 1_655 S
C1926 C1922 1.350 . S
C1926 C1923 1.463 . S
C1926 N1930 1.427 1_655 S
C1927 H1917 0.929 . S
C1927 C1925 1.433 1_455 S
C1927 N1930 1.384 . S
C1928 H1919 0.929 . S
C1928 C1920 1.378 . S
C1928 C1923 1.350 . S
C1929 H1916 0.929 . S
C1929 C1921 1.433 . S
C1929 N1931 1.384 . S
N1930 C1926 1.427 1_455 S
N1930 C1927 1.384 . S
N1931 C1923 1.427 . S
N1931 C1929 1.384 . S
H1932 C1938 0.930 . S
H1933 C1942 0.930 . S
H1934 C1947 0.929 . S
H1935 C1945 0.929 . S
H1936 C1940 0.929 . S
H1937 C1946 0.929 . S
C1938 H1932 0.930 . S
C1938 C1939 1.367 . S
C1938 C1946 1.378 . S
C1939 C1938 1.367 . S
C1939 C1947 1.433 . S
C1940 H1936 0.929 . S
C1940 C1942 1.378 . S
C1940 C1944 1.350 . S
C1941 C1944 1.463 . S
C1941 C1946 1.350 . S
C1941 N1949 1.427 . S
C1942 H1933 0.930 . S
C1942 C1940 1.378 . S
C1942 C1943 1.367 . S
C1943 C1942 1.367 . S
C1943 C1945 1.433 . S
C1944 C1940 1.350 . S
C1944 C1941 1.463 . S
C1944 N1948 1.427 . S
C1945 H1935 0.929 . S
C1945 C1943 1.433 . S
C1945 N1948 1.384 . S
C1946 H1937 0.929 . S
C1946 C1938 1.378 . S
C1946 C1941 1.350 . S
C1947 H1934 0.929 . S
C1947 C1939 1.433 . S
C1947 N1949 1.384 . S
N1948 C1944 1.427 . S
N1948 C1945 1.384 . S
N1949 C1941 1.427 . S
N1949 C1947 1.384 . S
H1950 C1956 0.930 1_554 S
H1951 C1960 0.930 . S
H1952 C1965 0.929 . S
H1953 C1963 0.929 . S
H1954 C1958 0.929 . S
H1955 C1964 0.929 . S
C1956 H1950 0.930 1_556 S
C1956 C1957 1.367 . S
C1956 C1964 1.378 . S
C1957 C1956 1.367 . S
C1957 C1965 1.433 . S
C1958 H1954 0.929 . S
C1958 C1960 1.378 . S
C1958 C1962 1.350 . S
C1959 C1962 1.463 . S
C1959 C1964 1.350 . S
C1959 N1967 1.427 . S
C1960 H1951 0.930 . S
C1960 C1958 1.378 . S
C1960 C1961 1.367 . S
C1961 C1960 1.367 . S
C1961 C1963 1.433 . S
C1962 C1958 1.350 . S
C1962 C1959 1.463 . S
C1962 N1966 1.427 . S
C1963 H1953 0.929 . S
C1963 C1961 1.433 . S
C1963 N1966 1.384 . S
C1964 H1955 0.929 . S
C1964 C1956 1.378 . S
C1964 C1959 1.350 . S
C1965 H1952 0.929 . S
C1965 C1957 1.433 . S
C1965 N1967 1.384 . S
N1966 C1962 1.427 . S
N1966 C1963 1.384 . S
N1967 C1959 1.427 . S
N1967 C1965 1.384 . S
H1968 C1974 0.930 . S
H1969 C1978 0.930 . S
H1970 C1983 0.929 . S
H1971 C1981 0.929 . S
H1972 C1976 0.929 . S
H1973 C1982 0.929 . S
C1974 H1968 0.930 . S
C1974 C1975 1.367 . S
C1974 C1982 1.378 . S
C1975 C1974 1.367 . S
C1975 C1983 1.433 . S
C1976 H1972 0.929 . S
C1976 C1978 1.378 . S
C1976 C1980 1.350 . S
C1977 C1980 1.463 . S
C1977 C1982 1.350 . S
C1977 N1985 1.427 . S
C1978 H1969 0.930 . S
C1978 C1976 1.378 . S
C1978 C1979 1.367 . S
C1979 C1978 1.367 . S
C1979 C1981 1.433 . S
C1980 C1976 1.350 . S
C1980 C1977 1.463 . S
C1980 N1984 1.427 . S
C1981 H1971 0.929 . S
C1981 C1979 1.433 . S
C1981 N1984 1.384 . S
C1982 H1973 0.929 . S
C1982 C1974 1.378 . S
C1982 C1977 1.350 . S
C1983 H1970 0.929 . S
C1983 C1975 1.433 . S
C1983 N1985 1.384 . S
N1984 C1980 1.427 . S
N1984 C1981 1.384 . S
N1985 C1977 1.427 . S
N1985 C1983 1.384 . S
H1986 C1992 0.930 . S
H1987 C1996 0.930 . S
H1988 C2001 0.929 . S
H1989 C1999 0.929 . S
H1990 C1994 0.929 . S
H1991 C2000 0.929 . S
C1992 H1986 0.930 . S
C1992 C1993 1.367 . S
C1992 C2000 1.378 . S
C1993 C1992 1.367 . S
C1993 C2001 1.433 . S
C1994 H1990 0.929 . S
C1994 C1996 1.378 . S
C1994 C1998 1.350 . S
C1995 C1998 1.463 . S
C1995 C2000 1.350 . S
C1995 N2003 1.427 . S
C1996 H1987 0.930 . S
C1996 C1994 1.378 . S
C1996 C1997 1.367 . S
C1997 C1996 1.367 . S
C1997 C1999 1.433 . S
C1998 C1994 1.350 . S
C1998 C1995 1.463 . S
C1998 N2002 1.427 . S
C1999 H1989 0.929 . S
C1999 C1997 1.433 . S
C1999 N2002 1.384 . S
C2000 H1991 0.929 . S
C2000 C1992 1.378 . S
C2000 C1995 1.350 . S
C2001 H1988 0.929 . S
C2001 C1993 1.433 . S
C2001 N2003 1.384 . S
N2002 C1998 1.427 . S
N2002 C1999 1.384 . S
N2003 C1995 1.427 . S
N2003 C2001 1.384 . S
H2004 C2010 0.930 . S
H2005 C2014 0.930 . S
H2006 C2019 0.929 . S
H2007 C2017 0.929 . S
H2008 C2012 0.929 . S
H2009 C2018 0.929 . S
C2010 H2004 0.930 . S
C2010 C2011 1.367 . S
C2010 C2018 1.378 . S
C2011 C2010 1.367 . S
C2011 C2019 1.433 . S
C2012 H2008 0.929 . S
C2012 C2014 1.378 . S
C2012 C2016 1.350 . S
C2013 C2016 1.463 . S
C2013 C2018 1.350 . S
C2013 N2021 1.427 . S
C2014 H2005 0.930 . S
C2014 C2012 1.378 . S
C2014 C2015 1.367 . S
C2015 C2014 1.367 . S
C2015 C2017 1.433 . S
C2016 C2012 1.350 . S
C2016 C2013 1.463 . S
C2016 N2020 1.427 . S
C2017 H2007 0.929 . S
C2017 C2015 1.433 . S
C2017 N2020 1.384 . S
C2018 H2009 0.929 . S
C2018 C2010 1.378 . S
C2018 C2013 1.350 . S
C2019 H2006 0.929 . S
C2019 C2011 1.433 . S
C2019 N2021 1.384 . S
N2020 C2016 1.427 . S
N2020 C2017 1.384 . S
N2021 C2013 1.427 . S
N2021 C2019 1.384 . S
H2022 C2028 0.930 1_556 S
H2023 C2032 0.930 . S
H2024 C2037 0.929 . S
H2025 C2035 0.929 . S
H2026 C2030 0.929 . S
H2027 C2036 0.929 . S
C2028 H2022 0.930 1_554 S
C2028 C2029 1.382 . S
C2028 C2036 1.378 . S
C2029 C2028 1.382 . S
C2029 C2037 1.432 1_655 S
C2030 H2026 0.929 . S
C2030 C2032 1.378 . S
C2030 C2034 1.350 . S
C2031 C2034 1.463 . S
C2031 C2036 1.350 . S
C2031 N2039 1.427 . S
C2032 H2023 0.930 . S
C2032 C2030 1.378 . S
C2032 C2033 1.367 . S
C2033 C2032 1.367 . S
C2033 C2035 1.433 . S
C2034 C2030 1.350 . S
C2034 C2031 1.463 . S
C2034 N2038 1.427 . S
C2035 H2025 0.929 . S
C2035 C2033 1.433 . S
C2035 N2038 1.384 . S
C2036 H2027 0.929 . S
C2036 C2028 1.378 . S
C2036 C2031 1.350 . S
C2037 H2024 0.929 . S
C2037 C2029 1.432 1_455 S
C2037 N2039 1.384 1_455 S
N2038 C2034 1.427 . S
N2038 C2035 1.384 . S
N2039 C2031 1.427 . S
N2039 C2037 1.384 1_655 S
H2040 C2046 0.930 . S
H2041 C2050 0.930 . S
H2042 C2055 0.929 . S
H2043 C2053 0.929 . S
H2044 C2048 0.929 . S
H2045 C2054 0.929 . S
C2046 H2040 0.930 . S
C2046 C2047 1.367 . S
C2046 C2054 1.378 . S
C2047 C2046 1.367 . S
C2047 C2055 1.433 . S
C2048 H2044 0.929 . S
C2048 C2050 1.378 . S
C2048 C2052 1.350 . S
C2049 C2052 1.463 . S
C2049 C2054 1.350 . S
C2049 N2057 1.427 . S
C2050 H2041 0.930 . S
C2050 C2048 1.378 . S
C2050 C2051 1.367 . S
C2051 C2050 1.367 . S
C2051 C2053 1.433 . S
C2052 C2048 1.350 . S
C2052 C2049 1.463 . S
C2052 N2056 1.427 . S
C2053 H2043 0.929 . S
C2053 C2051 1.433 . S
C2053 N2056 1.384 . S
C2054 H2045 0.929 . S
C2054 C2046 1.378 . S
C2054 C2049 1.350 . S
C2055 H2042 0.929 . S
C2055 C2047 1.433 . S
C2055 N2057 1.384 . S
N2056 C2052 1.427 . S
N2056 C2053 1.384 . S
N2057 C2049 1.427 . S
N2057 C2055 1.384 . S
H2058 C2064 0.930 . S
H2059 C2068 0.930 . S
H2060 C2073 0.929 1_545 S
H2061 C2071 0.929 . S
H2062 C2066 0.929 . S
H2063 C2072 0.929 . S
C2064 H2058 0.930 . S
C2064 C2065 1.367 . S
C2064 C2072 1.378 . S
C2065 C2064 1.367 . S
C2065 C2073 1.433 . S
C2066 H2062 0.929 . S
C2066 C2068 1.378 . S
C2066 C2070 1.350 . S
C2067 C2070 1.463 . S
C2067 C2072 1.350 . S
C2067 N2075 1.427 . S
C2068 H2059 0.930 . S
C2068 C2066 1.378 . S
C2068 C2069 1.367 . S
C2069 C2068 1.367 . S
C2069 C2071 1.433 . S
C2070 C2066 1.350 . S
C2070 C2067 1.463 . S
C2070 N2074 1.427 . S
C2071 H2061 0.929 . S
C2071 C2069 1.433 . S
C2071 N2074 1.384 . S
C2072 H2063 0.929 . S
C2072 C2064 1.378 . S
C2072 C2067 1.350 . S
C2073 H2060 0.929 1_565 S
C2073 C2065 1.433 . S
C2073 N2075 1.384 . S
N2074 C2070 1.427 . S
N2074 C2071 1.384 . S
N2075 C2067 1.427 . S
N2075 C2073 1.384 . S
H2076 C2082 0.930 . S
H2077 C2086 0.930 . S
H2078 C2091 0.929 . S
H2079 C2089 0.929 . S
H2080 C2084 0.929 . S
H2081 C2090 0.929 . S
C2082 H2076 0.930 . S
C2082 C2083 1.367 . S
C2082 C2090 1.378 . S
C2083 C2082 1.367 . S
C2083 C2091 1.433 . S
C2084 H2080 0.929 . S
C2084 C2086 1.378 . S
C2084 C2088 1.350 . S
C2085 C2088 1.463 . S
C2085 C2090 1.350 . S
C2085 N2093 1.427 . S
C2086 H2077 0.930 . S
C2086 C2084 1.378 . S
C2086 C2087 1.367 . S
C2087 C2086 1.367 . S
C2087 C2089 1.433 . S
C2088 C2084 1.350 . S
C2088 C2085 1.463 . S
C2088 N2092 1.427 . S
C2089 H2079 0.929 . S
C2089 C2087 1.433 . S
C2089 N2092 1.384 . S
C2090 H2081 0.929 . S
C2090 C2082 1.378 . S
C2090 C2085 1.350 . S
C2091 H2078 0.929 . S
C2091 C2083 1.433 . S
C2091 N2093 1.384 . S
N2092 C2088 1.427 . S
N2092 C2089 1.384 . S
N2093 C2085 1.427 . S
N2093 C2091 1.384 . S
H2094 C2100 0.930 . S
H2095 C2104 0.930 1_565 S
H2096 C2109 0.929 . S
H2097 C2107 0.929 . S
H2098 C2102 0.929 . S
H2099 C2108 0.929 . S
C2100 H2094 0.930 . S
C2100 C2101 1.367 . S
C2100 C2108 1.378 . S
C2101 C2100 1.367 . S
C2101 C2109 1.433 . S
C2102 H2098 0.929 . S
C2102 C2104 1.378 . S
C2102 C2106 1.350 . S
C2103 C2106 1.463 . S
C2103 C2108 1.350 . S
C2103 N2111 1.427 . S
C2104 H2095 0.930 1_545 S
C2104 C2102 1.378 . S
C2104 C2105 1.367 . S
C2105 C2104 1.367 . S
C2105 C2107 1.433 1_554 S
C2106 C2102 1.350 . S
C2106 C2103 1.463 . S
C2106 N2110 1.427 1_554 S
C2107 H2097 0.929 . S
C2107 C2105 1.433 1_556 S
C2107 N2110 1.384 . S
C2108 H2099 0.929 . S
C2108 C2100 1.378 . S
C2108 C2103 1.350 . S
C2109 H2096 0.929 . S
C2109 C2101 1.433 . S
C2109 N2111 1.384 . S
N2110 C2106 1.427 1_556 S
N2110 C2107 1.384 . S
N2111 C2103 1.427 . S
N2111 C2109 1.384 . S
H2112 C2118 0.930 . S
H2113 C2122 0.930 . S
H2114 C2127 0.929 . S
H2115 C2125 0.929 . S
H2116 C2120 0.929 . S
H2117 C2126 0.929 . S
C2118 H2112 0.930 . S
C2118 C2119 1.367 . S
C2118 C2126 1.378 . S
C2119 C2118 1.367 . S
C2119 C2127 1.433 . S
C2120 H2116 0.929 . S
C2120 C2122 1.378 . S
C2120 C2124 1.350 . S
C2121 C2124 1.463 . S
C2121 C2126 1.350 . S
C2121 N2129 1.427 . S
C2122 H2113 0.930 . S
C2122 C2120 1.378 . S
C2122 C2123 1.367 . S
C2123 C2122 1.367 . S
C2123 C2125 1.433 . S
C2124 C2120 1.350 . S
C2124 C2121 1.463 . S
C2124 N2128 1.427 . S
C2125 H2115 0.929 . S
C2125 C2123 1.433 . S
C2125 N2128 1.384 . S
C2126 H2117 0.929 . S
C2126 C2118 1.378 . S
C2126 C2121 1.350 . S
C2127 H2114 0.929 . S
C2127 C2119 1.433 . S
C2127 N2129 1.384 . S
N2128 C2124 1.427 . S
N2128 C2125 1.384 . S
N2129 C2121 1.427 . S
N2129 C2127 1.384 . S
H2130 C2136 0.930 . S
H2131 C2140 0.930 . S
H2132 C2145 0.929 1_545 S
H2133 C2143 0.929 . S
H2134 C2138 0.929 . S
H2135 C2144 0.929 . S
C2136 H2130 0.930 . S
C2136 C2137 1.367 . S
C2136 C2144 1.378 . S
C2137 C2136 1.367 . S
C2137 C2145 1.433 . S
C2138 H2134 0.929 . S
C2138 C2140 1.378 . S
C2138 C2142 1.350 . S
C2139 C2142 1.463 . S
C2139 C2144 1.350 . S
C2139 N2147 1.427 . S
C2140 H2131 0.930 . S
C2140 C2138 1.378 . S
C2140 C2141 1.367 . S
C2141 C2140 1.367 . S
C2141 C2143 1.433 . S
C2142 C2138 1.350 . S
C2142 C2139 1.463 . S
C2142 N2146 1.427 . S
C2143 H2133 0.929 . S
C2143 C2141 1.433 . S
C2143 N2146 1.384 . S
C2144 H2135 0.929 . S
C2144 C2136 1.378 . S
C2144 C2139 1.350 . S
C2145 H2132 0.929 1_565 S
C2145 C2137 1.433 . S
C2145 N2147 1.384 . S
N2146 C2142 1.427 . S
N2146 C2143 1.384 . S
N2147 C2139 1.427 . S
N2147 C2145 1.384 . S
H2148 C2154 0.930 . S
H2149 C2158 0.930 . S
H2150 C2163 0.929 . S
H2151 C2161 0.929 . S
H2152 C2156 0.929 . S
H2153 C2162 0.929 . S
C2154 H2148 0.930 . S
C2154 C2155 1.367 . S
C2154 C2162 1.378 . S
C2155 C2154 1.367 . S
C2155 C2163 1.433 . S
C2156 H2152 0.929 . S
C2156 C2158 1.378 . S
C2156 C2160 1.350 . S
C2157 C2160 1.463 . S
C2157 C2162 1.350 . S
C2157 N2165 1.427 . S
C2158 H2149 0.930 . S
C2158 C2156 1.378 . S
C2158 C2159 1.367 . S
C2159 C2158 1.367 . S
C2159 C2161 1.433 . S
C2160 C2156 1.350 . S
C2160 C2157 1.463 . S
C2160 N2164 1.427 . S
C2161 H2151 0.929 . S
C2161 C2159 1.433 . S
C2161 N2164 1.384 . S
C2162 H2153 0.929 . S
C2162 C2154 1.378 . S
C2162 C2157 1.350 . S
C2163 H2150 0.929 . S
C2163 C2155 1.433 . S
C2163 N2165 1.384 . S
N2164 C2160 1.427 . S
N2164 C2161 1.384 . S
N2165 C2157 1.427 . S
N2165 C2163 1.384 . S
H2166 C2172 0.930 . S
H2167 C2176 0.930 . S
H2168 C2181 0.929 . S
H2169 C2179 0.934 . S
H2170 C2174 0.929 . S
H2171 C2180 0.929 . S
C2172 H2166 0.930 . S
C2172 C2173 1.367 . S
C2172 C2180 1.378 . S
C2173 C2172 1.367 . S
C2173 C2181 1.433 . S
C2174 H2170 0.929 . S
C2174 C2176 1.378 . S
C2174 C2178 1.350 1_554 S
C2175 C2178 1.463 . S
C2175 C2180 1.350 . S
C2175 N2183 1.427 . S
C2176 H2167 0.930 . S
C2176 C2174 1.378 . S
C2176 C2177 1.365 1_554 S
C2177 C2176 1.365 1_556 S
C2177 C2179 1.437 . S
C2178 C2174 1.350 1_556 S
C2178 C2175 1.463 . S
C2178 N2182 1.427 . S
C2179 H2169 0.934 . S
C2179 C2177 1.437 . S
C2179 N2182 1.384 . S
C2180 H2171 0.929 . S
C2180 C2172 1.378 . S
C2180 C2175 1.350 . S
C2181 H2168 0.929 . S
C2181 C2173 1.433 . S
C2181 N2183 1.384 . S
N2182 C2178 1.427 . S
N2182 C2179 1.384 . S
N2183 C2175 1.427 . S
N2183 C2181 1.384 . S
H2184 C2190 0.930 . S
H2185 C2194 0.930 . S
H2186 C2199 0.929 . S
H2187 C2197 0.929 . S
H2188 C2192 0.929 . S
H2189 C2198 0.929 . S
C2190 H2184 0.930 . S
C2190 C2191 1.367 . S
C2190 C2198 1.378 . S
C2191 C2190 1.367 . S
C2191 C2199 1.433 . S
C2192 H2188 0.929 . S
C2192 C2194 1.378 . S
C2192 C2196 1.350 . S
C2193 C2196 1.463 . S
C2193 C2198 1.350 . S
C2193 N2201 1.427 . S
C2194 H2185 0.930 . S
C2194 C2192 1.378 . S
C2194 C2195 1.367 . S
C2195 C2194 1.367 . S
C2195 C2197 1.433 . S
C2196 C2192 1.350 . S
C2196 C2193 1.463 . S
C2196 N2200 1.427 . S
C2197 H2187 0.929 . S
C2197 C2195 1.433 . S
C2197 N2200 1.384 . S
C2198 H2189 0.929 . S
C2198 C2190 1.378 . S
C2198 C2193 1.350 . S
C2199 H2186 0.929 . S
C2199 C2191 1.433 . S
C2199 N2201 1.384 . S
N2200 C2196 1.427 . S
N2200 C2197 1.384 . S
N2201 C2193 1.427 . S
N2201 C2199 1.384 . S
H2202 C2208 0.930 . S
H2203 C2212 0.930 . S
H2204 C2217 0.929 . S
H2205 C2215 0.929 . S
H2206 C2210 0.929 . S
H2207 C2216 0.929 . S
C2208 H2202 0.930 . S
C2208 C2209 1.367 . S
C2208 C2216 1.378 . S
C2209 C2208 1.367 . S
C2209 C2217 1.433 . S
C2210 H2206 0.929 . S
C2210 C2212 1.378 . S
C2210 C2214 1.350 . S
C2211 C2214 1.463 . S
C2211 C2216 1.350 . S
C2211 N2219 1.427 . S
C2212 H2203 0.930 . S
C2212 C2210 1.378 . S
C2212 C2213 1.367 . S
C2213 C2212 1.367 . S
C2213 C2215 1.433 . S
C2214 C2210 1.350 . S
C2214 C2211 1.463 . S
C2214 N2218 1.427 . S
C2215 H2205 0.929 . S
C2215 C2213 1.433 . S
C2215 N2218 1.384 . S
C2216 H2207 0.929 . S
C2216 C2208 1.378 . S
C2216 C2211 1.350 . S
C2217 H2204 0.929 . S
C2217 C2209 1.433 . S
C2217 N2219 1.384 . S
N2218 C2214 1.427 . S
N2218 C2215 1.384 . S
N2219 C2211 1.427 . S
N2219 C2217 1.384 . S
H2220 C2226 0.930 . S
H2221 C2230 0.936 . S
H2222 C2235 0.929 . S
H2223 C2233 0.929 . S
H2224 C2228 0.929 . S
H2225 C2234 0.929 . S
C2226 H2220 0.930 . S
C2226 C2227 1.367 . S
C2226 C2234 1.378 . S
C2227 C2226 1.367 . S
C2227 C2235 1.433 . S
C2228 H2224 0.929 . S
C2228 C2230 1.378 . S
C2228 C2232 1.350 . S
C2229 C2232 1.463 . S
C2229 C2234 1.350 . S
C2229 N2237 1.427 . S
C2230 H2221 0.936 . S
C2230 C2228 1.378 . S
C2230 C2231 1.367 . S
C2231 C2230 1.367 . S
C2231 C2233 1.433 . S
C2232 C2228 1.350 . S
C2232 C2229 1.463 . S
C2232 N2236 1.427 . S
C2233 H2223 0.929 . S
C2233 C2231 1.433 . S
C2233 N2236 1.384 . S
C2234 H2225 0.929 . S
C2234 C2226 1.378 . S
C2234 C2229 1.350 . S
C2235 H2222 0.929 . S
C2235 C2227 1.433 . S
C2235 N2237 1.384 . S
N2236 C2232 1.427 . S
N2236 C2233 1.384 . S
N2237 C2229 1.427 . S
N2237 C2235 1.384 . S
H2238 C2244 0.930 . S
H2239 C2248 0.930 . S
H2240 C2253 0.929 . S
H2241 C2251 0.929 . S
H2242 C2246 0.929 . S
H2243 C2252 0.929 . S
C2244 H2238 0.930 . S
C2244 C2245 1.367 . S
C2244 C2252 1.378 . S
C2245 C2244 1.367 . S
C2245 C2253 1.433 . S
C2246 H2242 0.929 . S
C2246 C2248 1.378 . S
C2246 C2250 1.350 . S
C2247 C2250 1.463 . S
C2247 C2252 1.350 . S
C2247 N2255 1.427 . S
C2248 H2239 0.930 . S
C2248 C2246 1.378 . S
C2248 C2249 1.367 . S
C2249 C2248 1.367 . S
C2249 C2251 1.433 . S
C2250 C2246 1.350 . S
C2250 C2247 1.463 . S
C2250 N2254 1.427 . S
C2251 H2241 0.929 . S
C2251 C2249 1.433 . S
C2251 N2254 1.384 . S
C2252 H2243 0.929 . S
C2252 C2244 1.378 . S
C2252 C2247 1.350 . S
C2253 H2240 0.929 . S
C2253 C2245 1.433 . S
C2253 N2255 1.384 . S
N2254 C2250 1.427 . S
N2254 C2251 1.384 . S
N2255 C2247 1.427 . S
N2255 C2253 1.384 . S
H2256 C2262 0.930 . S
H2257 C2266 0.930 1_545 S
H2258 C2271 0.929 . S
H2259 C2269 0.929 1_655 S
H2260 C2264 0.929 . S
H2261 C2270 0.929 . S
C2262 H2256 0.930 . S
C2262 C2263 1.367 . S
C2262 C2270 1.378 . S
C2263 C2262 1.367 . S
C2263 C2271 1.433 . S
C2264 H2260 0.929 . S
C2264 C2266 1.378 . S
C2264 C2268 1.350 . S
C2265 C2268 1.463 . S
C2265 C2270 1.350 . S
C2265 N2273 1.427 . S
C2266 H2257 0.930 1_565 S
C2266 C2264 1.378 . S
C2266 C2267 1.367 . S
C2267 C2266 1.367 . S
C2267 C2269 1.442 . S
C2268 C2264 1.350 . S
C2268 C2265 1.463 . S
C2268 N2272 1.427 . S
C2269 H2259 0.929 1_455 S
C2269 C2267 1.442 . S
C2269 N2272 1.384 . S
C2270 H2261 0.929 . S
C2270 C2262 1.378 . S
C2270 C2265 1.350 . S
C2271 H2258 0.929 . S
C2271 C2263 1.433 . S
C2271 N2273 1.384 . S
N2272 C2268 1.427 . S
N2272 C2269 1.384 . S
N2273 C2265 1.427 . S
N2273 C2271 1.384 . S
H2274 C2280 0.930 . S
H2275 C2284 0.930 . S
H2276 C2289 0.929 . S
H2277 C2287 0.929 . S
H2278 C2282 0.929 . S
H2279 C2288 0.929 . S
C2280 H2274 0.930 . S
C2280 C2281 1.367 . S
C2280 C2288 1.378 . S
C2281 C2280 1.367 . S
C2281 C2289 1.433 . S
C2282 H2278 0.929 . S
C2282 C2284 1.378 . S
C2282 C2286 1.350 . S
C2283 C2286 1.463 . S
C2283 C2288 1.350 . S
C2283 N2291 1.427 . S
C2284 H2275 0.930 . S
C2284 C2282 1.378 . S
C2284 C2285 1.367 . S
C2285 C2284 1.367 . S
C2285 C2287 1.433 . S
C2286 C2282 1.350 . S
C2286 C2283 1.463 . S
C2286 N2290 1.427 . S
C2287 H2277 0.929 . S
C2287 C2285 1.433 . S
C2287 N2290 1.384 . S
C2288 H2279 0.929 . S
C2288 C2280 1.378 . S
C2288 C2283 1.350 . S
C2289 H2276 0.929 . S
C2289 C2281 1.433 . S
C2289 N2291 1.384 . S
N2290 C2286 1.427 . S
N2290 C2287 1.384 . S
N2291 C2283 1.427 . S
N2291 C2289 1.384 . S
H2292 C2298 0.930 . S
H2293 C2302 0.930 . S
H2294 C2307 0.929 1_455 S
H2295 C2305 0.929 . S
H2296 C2300 0.929 . S
H2297 C2306 0.929 . S
C2298 H2292 0.930 . S
C2298 C2299 1.367 . S
C2298 C2306 1.378 . S
C2299 C2298 1.367 . S
C2299 C2307 1.433 . S
C2300 H2296 0.929 . S
C2300 C2302 1.378 . S
C2300 C2304 1.350 . S
C2301 C2304 1.463 . S
C2301 C2306 1.350 . S
C2301 N2309 1.427 . S
C2302 H2293 0.930 . S
C2302 C2300 1.378 . S
C2302 C2303 1.367 . S
C2303 C2302 1.367 . S
C2303 C2305 1.433 . S
C2304 C2300 1.350 . S
C2304 C2301 1.463 . S
C2304 N2308 1.427 . S
C2305 H2295 0.929 . S
C2305 C2303 1.433 . S
C2305 N2308 1.384 . S
C2306 H2297 0.929 . S
C2306 C2298 1.378 . S
C2306 C2301 1.350 . S
C2307 H2294 0.929 1_655 S
C2307 C2299 1.433 . S
C2307 N2309 1.384 . S
N2308 C2304 1.427 . S
N2308 C2305 1.384 . S
N2309 C2301 1.427 . S
N2309 C2307 1.384 . S
H2310 C2316 0.930 . S
H2311 C2320 0.930 . S
H2312 C2325 0.929 . S
H2313 C2323 0.929 . S
H2314 C2318 0.929 . S
H2315 C2324 0.929 . S
C2316 H2310 0.930 . S
C2316 C2317 1.367 . S
C2316 C2324 1.378 . S
C2317 C2316 1.367 . S
C2317 C2325 1.433 . S
C2318 H2314 0.929 . S
C2318 C2320 1.378 . S
C2318 C2322 1.350 . S
C2319 C2322 1.463 . S
C2319 C2324 1.350 . S
C2319 N2327 1.427 . S
C2320 H2311 0.930 . S
C2320 C2318 1.378 . S
C2320 C2321 1.367 . S
C2321 C2320 1.367 . S
C2321 C2323 1.433 . S
C2322 C2318 1.350 . S
C2322 C2319 1.463 . S
C2322 N2326 1.427 . S
C2323 H2313 0.929 . S
C2323 C2321 1.433 . S
C2323 N2326 1.384 . S
C2324 H2315 0.929 . S
C2324 C2316 1.378 . S
C2324 C2319 1.350 . S
C2325 H2312 0.929 . S
C2325 C2317 1.433 . S
C2325 N2327 1.384 . S
N2326 C2322 1.427 . S
N2326 C2323 1.384 . S
N2327 C2319 1.427 . S
N2327 C2325 1.384 . S
H2328 C2334 0.930 . S
H2329 C2338 0.930 . S
H2330 C2343 0.929 . S
H2331 C2341 0.929 . S
H2332 C2336 0.929 . S
H2333 C2342 0.929 . S
C2334 H2328 0.930 . S
C2334 C2335 1.367 . S
C2334 C2342 1.378 . S
C2335 C2334 1.367 . S
C2335 C2343 1.433 . S
C2336 H2332 0.929 . S
C2336 C2338 1.378 . S
C2336 C2340 1.350 . S
C2337 C2340 1.463 . S
C2337 C2342 1.350 . S
C2337 N2345 1.427 . S
C2338 H2329 0.930 . S
C2338 C2336 1.378 . S
C2338 C2339 1.367 . S
C2339 C2338 1.367 . S
C2339 C2341 1.433 . S
C2340 C2336 1.350 . S
C2340 C2337 1.463 . S
C2340 N2344 1.427 . S
C2341 H2331 0.929 . S
C2341 C2339 1.433 . S
C2341 N2344 1.384 . S
C2342 H2333 0.929 . S
C2342 C2334 1.378 . S
C2342 C2337 1.350 . S
C2343 H2330 0.929 . S
C2343 C2335 1.433 . S
C2343 N2345 1.384 . S
N2344 C2340 1.427 . S
N2344 C2341 1.384 . S
N2345 C2337 1.427 . S
N2345 C2343 1.384 . S
H2346 C2352 0.930 . S
H2347 C2356 0.930 . S
H2348 C2361 0.929 . S
H2349 C2359 0.929 1_554 S
H2350 C2354 0.929 . S
H2351 C2360 0.929 . S
C2352 H2346 0.930 . S
C2352 C2353 1.367 . S
C2352 C2360 1.378 . S
C2353 C2352 1.367 . S
C2353 C2361 1.433 . S
C2354 H2350 0.929 . S
C2354 C2356 1.378 . S
C2354 C2358 1.350 . S
C2355 C2358 1.463 . S
C2355 C2360 1.350 . S
C2355 N2363 1.427 . S
C2356 H2347 0.930 . S
C2356 C2354 1.378 . S
C2356 C2357 1.367 . S
C2357 C2356 1.367 . S
C2357 C2359 1.433 . S
C2358 C2354 1.350 . S
C2358 C2355 1.463 . S
C2358 N2362 1.427 . S
C2359 H2349 0.929 1_556 S
C2359 C2357 1.433 . S
C2359 N2362 1.384 . S
C2360 H2351 0.929 . S
C2360 C2352 1.378 . S
C2360 C2355 1.350 . S
C2361 H2348 0.929 . S
C2361 C2353 1.433 . S
C2361 N2363 1.384 . S
N2362 C2358 1.427 . S
N2362 C2359 1.384 . S
N2363 C2355 1.427 . S
N2363 C2361 1.384 . S
H2364 C2370 0.930 . S
H2365 C2374 0.930 . S
H2366 C2379 0.929 . S
H2367 C2377 0.929 . S
H2368 C2372 0.929 . S
H2369 C2378 0.929 . S
C2370 H2364 0.930 . S
C2370 C2371 1.367 . S
C2370 C2378 1.378 . S
C2371 C2370 1.367 . S
C2371 C2379 1.433 . S
C2372 H2368 0.929 . S
C2372 C2374 1.378 . S
C2372 C2376 1.350 . S
C2373 C2376 1.463 . S
C2373 C2378 1.350 . S
C2373 N2381 1.427 . S
C2374 H2365 0.930 . S
C2374 C2372 1.378 . S
C2374 C2375 1.367 . S
C2375 C2374 1.367 . S
C2375 C2377 1.433 . S
C2376 C2372 1.350 . S
C2376 C2373 1.463 . S
C2376 N2380 1.427 . S
C2377 H2367 0.929 . S
C2377 C2375 1.433 . S
C2377 N2380 1.384 . S
C2378 H2369 0.929 . S
C2378 C2370 1.378 . S
C2378 C2373 1.350 . S
C2379 H2366 0.929 . S
C2379 C2371 1.433 . S
C2379 N2381 1.384 . S
N2380 C2376 1.427 . S
N2380 C2377 1.384 . S
N2381 C2373 1.427 . S
N2381 C2379 1.384 . S
H2382 C2388 0.930 . S
H2383 C2392 0.930 . S
H2384 C2397 0.929 . S
H2385 C2395 0.929 . S
H2386 C2390 0.929 . S
H2387 C2396 0.929 . S
C2388 H2382 0.930 . S
C2388 C2389 1.367 . S
C2388 C2396 1.378 . S
C2389 C2388 1.367 . S
C2389 C2397 1.433 1_455 S
C2390 H2386 0.929 . S
C2390 C2392 1.378 . S
C2390 C2394 1.350 . S
C2391 C2394 1.463 . S
C2391 C2396 1.350 . S
C2391 N2399 1.427 . S
C2392 H2383 0.930 . S
C2392 C2390 1.378 . S
C2392 C2393 1.367 . S
C2393 C2392 1.367 . S
C2393 C2395 1.433 . S
C2394 C2390 1.350 . S
C2394 C2391 1.463 . S
C2394 N2398 1.427 . S
C2395 H2385 0.929 . S
C2395 C2393 1.433 . S
C2395 N2398 1.384 . S
C2396 H2387 0.929 . S
C2396 C2388 1.378 . S
C2396 C2391 1.350 . S
C2397 H2384 0.929 . S
C2397 C2389 1.433 1_655 S
C2397 N2399 1.384 1_655 S
N2398 C2394 1.427 . S
N2398 C2395 1.384 . S
N2399 C2391 1.427 . S
N2399 C2397 1.384 1_455 S
H2400 C2406 0.930 . S
H2401 C2410 0.930 . S
H2402 C2415 0.929 . S
H2403 C2413 0.929 . S
H2404 C2408 0.929 . S
H2405 C2414 0.929 . S
C2406 H2400 0.930 . S
C2406 C2407 1.367 . S
C2406 C2414 1.378 . S
C2407 C2406 1.367 . S
C2407 C2415 1.433 . S
C2408 H2404 0.929 . S
C2408 C2410 1.378 . S
C2408 C2412 1.350 . S
C2409 C2412 1.463 . S
C2409 C2414 1.350 . S
C2409 N2417 1.427 . S
C2410 H2401 0.930 . S
C2410 C2408 1.378 . S
C2410 C2411 1.367 . S
C2411 C2410 1.367 . S
C2411 C2413 1.433 . S
C2412 C2408 1.350 . S
C2412 C2409 1.463 . S
C2412 N2416 1.427 . S
C2413 H2403 0.929 . S
C2413 C2411 1.433 . S
C2413 N2416 1.384 . S
C2414 H2405 0.929 . S
C2414 C2406 1.378 . S
C2414 C2409 1.350 . S
C2415 H2402 0.929 . S
C2415 C2407 1.433 . S
C2415 N2417 1.384 . S
N2416 C2412 1.427 . S
N2416 C2413 1.384 . S
N2417 C2409 1.427 . S
N2417 C2415 1.384 . S
H2418 C2424 0.930 . S
H2419 C2428 0.930 . S
H2420 C2433 0.929 . S
H2421 C2431 0.929 1_556 S
H2422 C2426 0.929 . S
H2423 C2432 0.929 . S
C2424 H2418 0.930 . S
C2424 C2425 1.367 . S
C2424 C2432 1.378 . S
C2425 C2424 1.367 . S
C2425 C2433 1.433 . S
C2426 H2422 0.929 . S
C2426 C2428 1.378 . S
C2426 C2430 1.350 1_655 S
C2427 C2430 1.463 . S
C2427 C2432 1.350 . S
C2427 N2435 1.427 . S
C2428 H2419 0.930 . S
C2428 C2426 1.378 . S
C2428 C2429 1.365 1_655 S
C2429 C2428 1.365 1_455 S
C2429 C2431 1.437 . S
C2430 C2426 1.350 1_455 S
C2430 C2427 1.463 . S
C2430 N2434 1.427 . S
C2431 H2421 0.929 1_554 S
C2431 C2429 1.437 . S
C2431 N2434 1.384 . S
C2432 H2423 0.929 . S
C2432 C2424 1.378 . S
C2432 C2427 1.350 . S
C2433 H2420 0.929 . S
C2433 C2425 1.433 . S
C2433 N2435 1.384 . S
N2434 C2430 1.427 . S
N2434 C2431 1.384 . S
N2435 C2427 1.427 . S
N2435 C2433 1.384 . S
H2436 C2442 0.930 . S
H2437 C2446 0.930 . S
H2438 C2451 0.929 . S
H2439 C2449 0.929 . S
H2440 C2444 0.929 . S
H2441 C2450 0.929 . S
C2442 H2436 0.930 . S
C2442 C2443 1.367 . S
C2442 C2450 1.378 . S
C2443 C2442 1.367 . S
C2443 C2451 1.433 . S
C2444 H2440 0.929 . S
C2444 C2446 1.378 . S
C2444 C2448 1.350 . S
C2445 C2448 1.463 . S
C2445 C2450 1.350 . S
C2445 N2453 1.427 . S
C2446 H2437 0.930 . S
C2446 C2444 1.378 . S
C2446 C2447 1.367 . S
C2447 C2446 1.367 . S
C2447 C2449 1.433 . S
C2448 C2444 1.350 . S
C2448 C2445 1.463 . S
C2448 N2452 1.427 . S
C2449 H2439 0.929 . S
C2449 C2447 1.433 . S
C2449 N2452 1.384 . S
C2450 H2441 0.929 . S
C2450 C2442 1.378 . S
C2450 C2445 1.350 . S
C2451 H2438 0.929 . S
C2451 C2443 1.433 . S
C2451 N2453 1.384 . S
N2452 C2448 1.427 . S
N2452 C2449 1.384 . S
N2453 C2445 1.427 . S
N2453 C2451 1.384 . S
H2454 C2460 0.930 . S
H2455 C2464 0.930 . S
H2456 C2469 0.929 . S
H2457 C2467 0.929 . S
H2458 C2462 0.929 . S
H2459 C2468 0.929 . S
C2460 H2454 0.930 . S
C2460 C2461 1.367 . S
C2460 C2468 1.378 . S
C2461 C2460 1.367 . S
C2461 C2469 1.433 . S
C2462 H2458 0.929 . S
C2462 C2464 1.378 . S
C2462 C2466 1.350 . S
C2463 C2466 1.463 . S
C2463 C2468 1.350 . S
C2463 N2471 1.427 . S
C2464 H2455 0.930 . S
C2464 C2462 1.378 . S
C2464 C2465 1.367 . S
C2465 C2464 1.367 . S
C2465 C2467 1.433 . S
C2466 C2462 1.350 . S
C2466 C2463 1.463 . S
C2466 N2470 1.427 . S
C2467 H2457 0.929 . S
C2467 C2465 1.433 . S
C2467 N2470 1.384 . S
C2468 H2459 0.929 . S
C2468 C2460 1.378 . S
C2468 C2463 1.350 . S
C2469 H2456 0.929 . S
C2469 C2461 1.433 . S
C2469 N2471 1.384 . S
N2470 C2466 1.427 . S
N2470 C2467 1.384 . S
N2471 C2463 1.427 . S
N2471 C2469 1.384 . S
H2472 C2478 0.930 . S
H2473 C2482 0.930 . S
H2474 C2487 0.929 . S
H2475 C2485 0.929 . S
H2476 C2480 0.929 . S
H2477 C2486 0.929 . S
C2478 H2472 0.930 . S
C2478 C2479 1.367 . S
C2478 C2486 1.378 . S
C2479 C2478 1.367 . S
C2479 C2487 1.433 . S
C2480 H2476 0.929 . S
C2480 C2482 1.378 . S
C2480 C2484 1.350 . S
C2481 C2484 1.463 . S
C2481 C2486 1.350 . S
C2481 N2489 1.427 . S
C2482 H2473 0.930 . S
C2482 C2480 1.378 . S
C2482 C2483 1.367 . S
C2483 C2482 1.367 . S
C2483 C2485 1.433 . S
C2484 C2480 1.350 . S
C2484 C2481 1.463 . S
C2484 N2488 1.427 . S
C2485 H2475 0.929 . S
C2485 C2483 1.433 . S
C2485 N2488 1.384 . S
C2486 H2477 0.929 . S
C2486 C2478 1.378 . S
C2486 C2481 1.350 . S
C2487 H2474 0.929 . S
C2487 C2479 1.433 . S
C2487 N2489 1.384 . S
N2488 C2484 1.427 . S
N2488 C2485 1.384 . S
N2489 C2481 1.427 . S
N2489 C2487 1.384 . S
H2490 C2496 0.930 . S
H2491 C2500 0.930 . S
H2492 C2505 0.929 1_556 S
H2493 C2503 0.929 . S
H2494 C2498 0.929 . S
H2495 C2504 0.929 . S
C2496 H2490 0.930 . S
C2496 C2497 1.382 . S
C2496 C2504 1.378 . S
C2497 C2496 1.382 . S
C2497 C2505 1.435 . S
C2498 H2494 0.929 . S
C2498 C2500 1.378 . S
C2498 C2502 1.350 . S
C2499 C2502 1.463 . S
C2499 C2504 1.350 . S
C2499 N2507 1.427 . S
C2500 H2491 0.930 . S
C2500 C2498 1.378 . S
C2500 C2501 1.367 . S
C2501 C2500 1.367 . S
C2501 C2503 1.433 . S
C2502 C2498 1.350 . S
C2502 C2499 1.463 . S
C2502 N2506 1.427 . S
C2503 H2493 0.929 . S
C2503 C2501 1.433 . S
C2503 N2506 1.384 . S
C2504 H2495 0.929 . S
C2504 C2496 1.378 . S
C2504 C2499 1.350 . S
C2505 H2492 0.929 1_554 S
C2505 C2497 1.435 . S
C2505 N2507 1.384 . S
N2506 C2502 1.427 . S
N2506 C2503 1.384 . S
N2507 C2499 1.427 . S
N2507 C2505 1.384 . S
H2508 C2514 0.930 . S
H2509 C2518 0.930 . S
H2510 C2523 0.929 . S
H2511 C2521 0.929 . S
H2512 C2516 0.929 . S
H2513 C2522 0.929 . S
C2514 H2508 0.930 . S
C2514 C2515 1.367 . S
C2514 C2522 1.378 . S
C2515 C2514 1.367 . S
C2515 C2523 1.433 . S
C2516 H2512 0.929 . S
C2516 C2518 1.378 . S
C2516 C2520 1.350 . S
C2517 C2520 1.463 . S
C2517 C2522 1.350 . S
C2517 N2525 1.427 . S
C2518 H2509 0.930 . S
C2518 C2516 1.378 . S
C2518 C2519 1.367 . S
C2519 C2518 1.367 . S
C2519 C2521 1.433 . S
C2520 C2516 1.350 . S
C2520 C2517 1.463 . S
C2520 N2524 1.427 . S
C2521 H2511 0.929 . S
C2521 C2519 1.433 . S
C2521 N2524 1.384 . S
C2522 H2513 0.929 . S
C2522 C2514 1.378 . S
C2522 C2517 1.350 . S
C2523 H2510 0.929 . S
C2523 C2515 1.433 . S
C2523 N2525 1.384 . S
N2524 C2520 1.427 . S
N2524 C2521 1.384 . S
N2525 C2517 1.427 . S
N2525 C2523 1.384 . S
H2526 C2532 0.930 . S
H2527 C2536 0.930 . S
H2528 C2541 0.929 . S
H2529 C2539 0.929 . S
H2530 C2534 0.929 . S
H2531 C2540 0.929 . S
C2532 H2526 0.930 . S
C2532 C2533 1.367 . S
C2532 C2540 1.378 . S
C2533 C2532 1.367 . S
C2533 C2541 1.433 . S
C2534 H2530 0.929 . S
C2534 C2536 1.378 . S
C2534 C2538 1.350 . S
C2535 C2538 1.463 . S
C2535 C2540 1.350 . S
C2535 N2543 1.427 . S
C2536 H2527 0.930 . S
C2536 C2534 1.378 . S
C2536 C2537 1.367 . S
C2537 C2536 1.367 . S
C2537 C2539 1.433 . S
C2538 C2534 1.350 . S
C2538 C2535 1.463 . S
C2538 N2542 1.427 . S
C2539 H2529 0.929 . S
C2539 C2537 1.433 . S
C2539 N2542 1.384 . S
C2540 H2531 0.929 . S
C2540 C2532 1.378 . S
C2540 C2535 1.350 . S
C2541 H2528 0.929 . S
C2541 C2533 1.433 . S
C2541 N2543 1.384 . S
N2542 C2538 1.427 . S
N2542 C2539 1.384 . S
N2543 C2535 1.427 . S
N2543 C2541 1.384 . S
H2544 C2550 0.930 . S
H2545 C2554 0.930 . S
H2546 C2559 0.929 . S
H2547 C2557 0.929 . S
H2548 C2552 0.929 . S
H2549 C2558 0.929 . S
C2550 H2544 0.930 . S
C2550 C2551 1.367 . S
C2550 C2558 1.378 . S
C2551 C2550 1.367 . S
C2551 C2559 1.433 . S
C2552 H2548 0.929 . S
C2552 C2554 1.378 . S
C2552 C2556 1.350 . S
C2553 C2556 1.463 . S
C2553 C2558 1.350 . S
C2553 N2561 1.427 . S
C2554 H2545 0.930 . S
C2554 C2552 1.378 . S
C2554 C2555 1.367 . S
C2555 C2554 1.367 . S
C2555 C2557 1.433 . S
C2556 C2552 1.350 . S
C2556 C2553 1.463 . S
C2556 N2560 1.427 . S
C2557 H2547 0.929 . S
C2557 C2555 1.433 . S
C2557 N2560 1.384 . S
C2558 H2549 0.929 . S
C2558 C2550 1.378 . S
C2558 C2553 1.350 . S
C2559 H2546 0.929 . S
C2559 C2551 1.433 . S
C2559 N2561 1.384 . S
N2560 C2556 1.427 . S
N2560 C2557 1.384 . S
N2561 C2553 1.427 . S
N2561 C2559 1.384 . S
H2562 C2568 0.930 . S
H2563 C2572 0.930 . S
H2564 C2577 0.929 . S
H2565 C2575 0.929 . S
H2566 C2570 0.929 . S
H2567 C2576 0.929 . S
C2568 H2562 0.930 . S
C2568 C2569 1.372 . S
C2568 C2576 1.378 . S
C2569 C2568 1.372 . S
C2569 C2577 1.438 . S
C2570 H2566 0.929 . S
C2570 C2572 1.378 . S
C2570 C2574 1.350 . S
C2571 C2574 1.463 . S
C2571 C2576 1.350 . S
C2571 N2579 1.427 . S
C2572 H2563 0.930 . S
C2572 C2570 1.378 . S
C2572 C2573 1.367 . S
C2573 C2572 1.367 . S
C2573 C2575 1.433 . S
C2574 C2570 1.350 . S
C2574 C2571 1.463 . S
C2574 N2578 1.427 . S
C2575 H2565 0.929 . S
C2575 C2573 1.433 . S
C2575 N2578 1.384 . S
C2576 H2567 0.929 . S
C2576 C2568 1.378 . S
C2576 C2571 1.350 . S
C2577 H2564 0.929 . S
C2577 C2569 1.438 . S
C2577 N2579 1.384 . S
N2578 C2574 1.427 . S
N2578 C2575 1.384 . S
N2579 C2571 1.427 . S
N2579 C2577 1.384 . S
H2580 C2586 0.930 . S
H2581 C2590 0.930 . S
H2582 C2595 0.929 . S
H2583 C2593 0.929 . S
H2584 C2588 0.929 . S
H2585 C2594 0.929 . S
C2586 H2580 0.930 . S
C2586 C2587 1.367 . S
C2586 C2594 1.378 . S
C2587 C2586 1.367 . S
C2587 C2595 1.433 . S
C2588 H2584 0.929 . S
C2588 C2590 1.378 . S
C2588 C2592 1.350 . S
C2589 C2592 1.463 . S
C2589 C2594 1.350 . S
C2589 N2597 1.427 . S
C2590 H2581 0.930 . S
C2590 C2588 1.378 . S
C2590 C2591 1.367 . S
C2591 C2590 1.367 . S
C2591 C2593 1.433 . S
C2592 C2588 1.350 . S
C2592 C2589 1.463 . S
C2592 N2596 1.427 . S
C2593 H2583 0.929 . S
C2593 C2591 1.433 . S
C2593 N2596 1.384 . S
C2594 H2585 0.929 . S
C2594 C2586 1.378 . S
C2594 C2589 1.350 . S
C2595 H2582 0.929 . S
C2595 C2587 1.433 . S
C2595 N2597 1.384 . S
N2596 C2592 1.427 . S
N2596 C2593 1.384 . S
N2597 C2589 1.427 . S
N2597 C2595 1.384 . S
H2598 C2604 0.930 . S
H2599 C2608 0.930 . S
H2600 C2613 0.929 . S
H2601 C2611 0.929 . S
H2602 C2606 0.929 . S
H2603 C2612 0.929 . S
C2604 H2598 0.930 . S
C2604 C2605 1.367 . S
C2604 C2612 1.378 . S
C2605 C2604 1.367 . S
C2605 C2613 1.433 . S
C2606 H2602 0.929 . S
C2606 C2608 1.378 . S
C2606 C2610 1.350 . S
C2607 C2610 1.463 . S
C2607 C2612 1.350 . S
C2607 N2615 1.427 . S
C2608 H2599 0.930 . S
C2608 C2606 1.378 . S
C2608 C2609 1.367 . S
C2609 C2608 1.367 . S
C2609 C2611 1.433 . S
C2610 C2606 1.350 . S
C2610 C2607 1.463 . S
C2610 N2614 1.427 . S
C2611 H2601 0.929 . S
C2611 C2609 1.433 . S
C2611 N2614 1.384 . S
C2612 H2603 0.929 . S
C2612 C2604 1.378 . S
C2612 C2607 1.350 . S
C2613 H2600 0.929 . S
C2613 C2605 1.433 . S
C2613 N2615 1.384 . S
N2614 C2610 1.427 . S
N2614 C2611 1.384 . S
N2615 C2607 1.427 . S
N2615 C2613 1.384 . S
H2616 C2622 0.930 . S
H2617 C2626 0.930 . S
H2618 C2631 0.929 . S
H2619 C2629 0.929 . S
H2620 C2624 0.929 . S
H2621 C2630 0.929 . S
C2622 H2616 0.930 . S
C2622 C2623 1.367 . S
C2622 C2630 1.378 . S
C2623 C2622 1.367 . S
C2623 C2631 1.433 . S
C2624 H2620 0.929 . S
C2624 C2626 1.378 . S
C2624 C2628 1.350 . S
C2625 C2628 1.463 . S
C2625 C2630 1.350 . S
C2625 N2633 1.427 . S
C2626 H2617 0.930 . S
C2626 C2624 1.378 . S
C2626 C2627 1.367 . S
C2627 C2626 1.367 . S
C2627 C2629 1.433 . S
C2628 C2624 1.350 . S
C2628 C2625 1.463 . S
C2628 N2632 1.427 . S
C2629 H2619 0.929 . S
C2629 C2627 1.433 . S
C2629 N2632 1.384 . S
C2630 H2621 0.929 . S
C2630 C2622 1.378 . S
C2630 C2625 1.350 . S
C2631 H2618 0.929 . S
C2631 C2623 1.433 . S
C2631 N2633 1.384 . S
N2632 C2628 1.427 . S
N2632 C2629 1.384 . S
N2633 C2625 1.427 . S
N2633 C2631 1.384 . S
H2634 C2640 0.930 . S
H2635 C2644 0.930 . S
H2636 C2649 0.929 . S
H2637 C2647 0.929 . S
H2638 C2642 0.929 . S
H2639 C2648 0.929 . S
C2640 H2634 0.930 . S
C2640 C2641 1.367 . S
C2640 C2648 1.378 . S
C2641 C2640 1.367 . S
C2641 C2649 1.433 . S
C2642 H2638 0.929 . S
C2642 C2644 1.378 . S
C2642 C2646 1.350 . S
C2643 C2646 1.463 . S
C2643 C2648 1.350 . S
C2643 N2651 1.427 . S
C2644 H2635 0.930 . S
C2644 C2642 1.378 . S
C2644 C2645 1.367 . S
C2645 C2644 1.367 . S
C2645 C2647 1.433 . S
C2646 C2642 1.350 . S
C2646 C2643 1.463 . S
C2646 N2650 1.427 . S
C2647 H2637 0.929 . S
C2647 C2645 1.433 . S
C2647 N2650 1.384 . S
C2648 H2639 0.929 . S
C2648 C2640 1.378 . S
C2648 C2643 1.350 . S
C2649 H2636 0.929 . S
C2649 C2641 1.433 . S
C2649 N2651 1.384 . S
N2650 C2646 1.427 . S
N2650 C2647 1.384 . S
N2651 C2643 1.427 . S
N2651 C2649 1.384 . S
H2652 C2658 0.930 . S
H2653 C2662 0.930 . S
H2654 C2667 0.929 . S
H2655 C2665 0.929 . S
H2656 C2660 0.929 . S
H2657 C2666 0.929 . S
C2658 H2652 0.930 . S
C2658 C2659 1.367 . S
C2658 C2666 1.378 . S
C2659 C2658 1.367 . S
C2659 C2667 1.433 . S
C2660 H2656 0.929 . S
C2660 C2662 1.378 . S
C2660 C2664 1.350 . S
C2661 C2664 1.463 . S
C2661 C2666 1.350 . S
C2661 N2669 1.427 . S
C2662 H2653 0.930 . S
C2662 C2660 1.378 . S
C2662 C2663 1.388 . S
C2663 C2662 1.388 . S
C2663 C2665 1.429 1_545 S
C2664 C2660 1.350 . S
C2664 C2661 1.463 . S
C2664 N2668 1.427 . S
C2665 H2655 0.929 . S
C2665 C2663 1.429 1_565 S
C2665 N2668 1.384 1_565 S
C2666 H2657 0.929 . S
C2666 C2658 1.378 . S
C2666 C2661 1.350 . S
C2667 H2654 0.929 . S
C2667 C2659 1.433 . S
C2667 N2669 1.384 . S
N2668 C2664 1.427 . S
N2668 C2665 1.384 1_545 S
N2669 C2661 1.427 . S
N2669 C2667 1.384 . S
H2670 C2676 0.930 . S
H2671 C2680 0.930 . S
H2672 C2685 0.929 . S
H2673 C2683 0.929 . S
H2674 C2678 0.929 . S
H2675 C2684 0.929 . S
C2676 H2670 0.930 . S
C2676 C2677 1.367 . S
C2676 C2684 1.378 . S
C2677 C2676 1.367 . S
C2677 C2685 1.433 . S
C2678 H2674 0.929 . S
C2678 C2680 1.378 . S
C2678 C2682 1.350 . S
C2679 C2682 1.463 . S
C2679 C2684 1.350 . S
C2679 N2687 1.427 . S
C2680 H2671 0.930 . S
C2680 C2678 1.378 . S
C2680 C2681 1.367 . S
C2681 C2680 1.367 . S
C2681 C2683 1.433 . S
C2682 C2678 1.350 . S
C2682 C2679 1.463 . S
C2682 N2686 1.427 . S
C2683 H2673 0.929 . S
C2683 C2681 1.433 . S
C2683 N2686 1.384 . S
C2684 H2675 0.929 . S
C2684 C2676 1.378 . S
C2684 C2679 1.350 . S
C2685 H2672 0.929 . S
C2685 C2677 1.433 . S
C2685 N2687 1.384 . S
N2686 C2682 1.427 . S
N2686 C2683 1.384 . S
N2687 C2679 1.427 . S
N2687 C2685 1.384 . S
H2688 C2694 0.930 . S
H2689 C2698 0.930 . S
H2690 C2703 0.929 . S
H2691 C2701 0.929 . S
H2692 C2696 0.929 . S
H2693 C2702 0.929 . S
C2694 H2688 0.930 . S
C2694 C2695 1.367 . S
C2694 C2702 1.378 . S
C2695 C2694 1.367 . S
C2695 C2703 1.433 . S
C2696 H2692 0.929 . S
C2696 C2698 1.378 . S
C2696 C2700 1.350 . S
C2697 C2700 1.463 . S
C2697 C2702 1.350 . S
C2697 N2705 1.427 . S
C2698 H2689 0.930 . S
C2698 C2696 1.378 . S
C2698 C2699 1.367 . S
C2699 C2698 1.367 . S
C2699 C2701 1.433 . S
C2700 C2696 1.350 . S
C2700 C2697 1.463 . S
C2700 N2704 1.427 . S
C2701 H2691 0.929 . S
C2701 C2699 1.433 . S
C2701 N2704 1.384 . S
C2702 H2693 0.929 . S
C2702 C2694 1.378 . S
C2702 C2697 1.350 . S
C2703 H2690 0.929 . S
C2703 C2695 1.433 . S
C2703 N2705 1.384 . S
N2704 C2700 1.427 . S
N2704 C2701 1.384 . S
N2705 C2697 1.427 . S
N2705 C2703 1.384 . S
H2706 C2712 0.930 . S
H2707 C2716 0.930 . S
H2708 C2721 0.929 . S
H2709 C2719 0.929 . S
H2710 C2714 0.929 . S
H2711 C2720 0.929 . S
C2712 H2706 0.930 . S
C2712 C2713 1.367 . S
C2712 C2720 1.378 . S
C2713 C2712 1.367 . S
C2713 C2721 1.433 . S
C2714 H2710 0.929 . S
C2714 C2716 1.378 . S
C2714 C2718 1.350 . S
C2715 C2718 1.463 . S
C2715 C2720 1.350 . S
C2715 N2723 1.427 . S
C2716 H2707 0.930 . S
C2716 C2714 1.378 . S
C2716 C2717 1.367 . S
C2717 C2716 1.367 . S
C2717 C2719 1.433 . S
C2718 C2714 1.350 . S
C2718 C2715 1.463 . S
C2718 N2722 1.427 . S
C2719 H2709 0.929 . S
C2719 C2717 1.433 . S
C2719 N2722 1.384 . S
C2720 H2711 0.929 . S
C2720 C2712 1.378 . S
C2720 C2715 1.350 . S
C2721 H2708 0.929 . S
C2721 C2713 1.433 . S
C2721 N2723 1.384 . S
N2722 C2718 1.427 . S
N2722 C2719 1.384 . S
N2723 C2715 1.427 . S
N2723 C2721 1.384 . S
H2724 C2730 0.930 . S
H2725 C2734 0.930 . S
H2726 C2739 0.929 . S
H2727 C2737 0.929 . S
H2728 C2732 0.929 . S
H2729 C2738 0.929 . S
C2730 H2724 0.930 . S
C2730 C2731 1.400 . S
C2730 C2738 1.378 . S
C2731 C2730 1.400 . S
C2731 C2739 1.418 1_565 S
C2732 H2728 0.929 . S
C2732 C2734 1.378 . S
C2732 C2736 1.350 . S
C2733 C2736 1.463 . S
C2733 C2738 1.350 . S
C2733 N2741 1.427 . S
C2734 H2725 0.930 . S
C2734 C2732 1.378 . S
C2734 C2735 1.367 . S
C2735 C2734 1.367 . S
C2735 C2737 1.433 . S
C2736 C2732 1.350 . S
C2736 C2733 1.463 . S
C2736 N2740 1.427 . S
C2737 H2727 0.929 . S
C2737 C2735 1.433 . S
C2737 N2740 1.384 . S
C2738 H2729 0.929 . S
C2738 C2730 1.378 . S
C2738 C2733 1.350 . S
C2739 H2726 0.929 . S
C2739 C2731 1.418 1_545 S
C2739 N2741 1.384 1_545 S
N2740 C2736 1.427 . S
N2740 C2737 1.384 . S
N2741 C2733 1.427 . S
N2741 C2739 1.384 1_565 S
H2742 C2748 0.930 . S
H2743 C2752 0.930 . S
H2744 C2757 0.929 . S
H2745 C2755 0.929 . S
H2746 C2750 0.929 . S
H2747 C2756 0.929 . S
C2748 H2742 0.930 . S
C2748 C2749 1.367 . S
C2748 C2756 1.378 . S
C2749 C2748 1.367 . S
C2749 C2757 1.433 1_545 S
C2750 H2746 0.929 . S
C2750 C2752 1.378 . S
C2750 C2754 1.350 . S
C2751 C2754 1.463 . S
C2751 C2756 1.350 . S
C2751 N2759 1.427 . S
C2752 H2743 0.930 . S
C2752 C2750 1.378 . S
C2752 C2753 1.367 . S
C2753 C2752 1.367 . S
C2753 C2755 1.433 . S
C2754 C2750 1.350 . S
C2754 C2751 1.463 . S
C2754 N2758 1.427 . S
C2755 H2745 0.929 . S
C2755 C2753 1.433 . S
C2755 N2758 1.384 . S
C2756 H2747 0.929 . S
C2756 C2748 1.378 . S
C2756 C2751 1.350 . S
C2757 H2744 0.929 . S
C2757 C2749 1.433 1_565 S
C2757 N2759 1.384 1_565 S
N2758 C2754 1.427 . S
N2758 C2755 1.384 . S
N2759 C2751 1.427 . S
N2759 C2757 1.384 1_545 S
C1039 C641 0.570 . S
C1043 C39 0.612 . S
C1057 C82 0.589 . S
C1061 C658 0.593 . S
C1075 C99 0.607 . S
C1079 C813 0.557 . S
C1093 C598 0.616 . S
C1097 C168 0.572 . S
C1111 C185 0.611 . S
C1115 C615 0.554 . S
C1129 C684 0.591 . S
C1133 C254 0.593 . S
C1147 C787 0.553 . S
C1151 C297 0.594 . S
C1165 C572 0.565 . S
C1169 C340 0.604 . S
C1183 C383 0.576 . S
C1187 C426 0.574 . S
C1201 C469 0.568 . S
C1205 C400 0.585 . S
C1219 C443 0.593 . S
C1223 C512 0.550 . S
C1237 C357 0.586 . S
C1241 C486 0.556 . S
C1255 C529 0.572 . S
C1259 C142 0.610 . S
C1273 C211 0.571 . S
C1277 C727 0.565 . S
C1291 C56 0.604 . S
C1295 C770 0.578 . S
C1309 C1002 0.557 . S
C1313 C125 0.582 . S
C1327 C701 0.564 . S
C1331 C13 0.582 . S
C1345 C271 0.556 . S
C1349 C1028 0.608 . S
C1363 C555 0.609 . S
C1367 C314 0.569 . S
C1381 C228 0.582 . S
C1385 C744 0.558 . S
C1399 C856 0.605 . S
C1403 C899 0.572 . S
C1417 C873 0.561 . S
C1421 C942 0.609 . S
C1435 C916 0.605 . S
C1439 C985 0.574 . S
C1453 C959 0.568 . S
C1457 C830 0.607 . S
C1471 C414 2.531 . S
C1475 C32 2.542 . S
C1489 C457 2.540 . S
C1493 C75 2.538 . S
C1507 C113 2.545 . S
C1511 C500 2.532 . S
C1525 C161 2.541 . S
C1529 C376 2.533 . S
C1543 C199 2.545 . S
C1547 C505 2.527 . S
C1561 C247 2.542 . S
C1565 C371 2.537 . S
C1579 C290 2.545 . S
C1583 C419 2.531 . S
C1597 C462 2.543 . S
C1601 C333 2.527 . S
C1615 C629 2.531 . S
C1619 C543 2.542 . S
C1633 C1016 2.531 . S
C1637 C586 2.544 . S
C1651 C677 2.545 . S
C1655 C715 2.532 . S
C1669 C591 2.533 . S
C1673 C720 2.538 . S
C1687 C801 2.545 . S
C1691 C763 2.531 . S
C1705 C758 2.541 . S
C1709 C634 2.535 . S
C1723 C806 2.539 . S
C1727 C548 2.539 . S
C1741 C118 2.538 . S
C1745 C887 2.539 . S
C1759 C930 2.542 . S
C1763 C156 2.534 . S
C1777 C27 2.534 . S
C1781 C973 2.544 . S
C1795 C849 2.535 . S
C1799 C70 2.543 . S
C1813 C978 2.532 . S
C1817 C285 2.543 . S
C1831 C328 2.535 . S
C1835 C844 2.543 . S
C1849 C892 2.544 . S
C1853 C204 2.531 . S
C1867 C935 2.534 . S
C1871 C242 2.542 . S
C1885 C672 2.545 . S
C1889 C1021 2.533 . S
C1903 N519 1.170 . S
C1907 C40 1.318 . S
C1921 N691 1.147 . S
C1925 C83 1.326 1_655 S
C1939 N739 1.140 . S
C1943 C119 1.323 . S
C1957 C169 1.323 1_556 S
C1961 N992 1.166 . S
C1975 C205 1.322 . S
C1979 N734 1.148 . S
C1993 C255 1.322 . S
C1997 N997 1.148 . S
C2011 N524 1.168 . S
C2015 C298 1.328 . S
C2029 C341 1.310 1_654 S
C2033 N696 1.160 . S
C2047 N8 1.165 . S
C2051 C384 1.317 . S
C2065 C420 1.325 1_565 S
C2069 N51 1.153 . S
C2083 N89 1.140 . S
C2087 C463 1.325 . S
C2101 N137 1.143 . S
C2105 C506 1.320 1_544 S
C2119 N175 1.140 . S
C2123 C377 1.322 . S
C2137 C427 1.325 1_565 S
C2141 N223 1.149 . S
C2155 C470 1.324 . S
C2159 N266 1.166 . S
C2173 N309 1.168 . S
C2177 C513 1.323 1_546 S
C2191 C549 1.322 . S
C2195 N352 1.155 . S
C2209 N820 1.153 . S
C2213 C592 1.327 . S
C2227 N868 1.171 . S
C2231 C635 1.321 1_655 S
C2245 N911 1.158 . S
C2249 C685 1.322 . S
C2263 N481 1.146 . S
C2267 C728 1.316 1_465 S
C2281 N433 1.141 . S
C2285 C771 1.328 . S
C2299 C642 1.324 1_655 S
C2303 N949 1.140 . S
C2317 N863 1.140 . S
C2321 C814 1.325 . S
C2335 C126 1.323 . S
C2339 N648 1.165 . S
C2353 N782 1.141 . S
C2357 C162 1.324 1_556 S
C2371 C33 1.325 . S
C2375 N567 1.151 . S
C2389 C76 1.323 1_455 S
C2393 N610 1.139 . S
C2407 N562 1.140 . S
C2411 C291 1.327 . S
C2425 N605 1.160 . S
C2429 C334 1.321 1_454 S
C2443 C212 1.324 . S
C2447 N653 1.174 . S
C2461 C248 1.323 . S
C2465 N777 1.142 . S
C2479 C857 1.323 . S
C2483 N94 1.167 . S
C2497 C893 1.307 1_554 S
C2501 N132 1.165 . S
C2515 N3 1.148 . S
C2519 C936 1.326 . S
C2533 N46 1.167 . S
C2537 C979 1.325 . S
C2551 C850 1.324 . S
C2555 N261 1.140 . S
C2569 C900 1.313 1_556 S
C2573 N304 1.172 . S
C2587 N180 1.170 . S
C2591 C943 1.328 . S
C2605 N218 1.140 . S
C2609 C986 1.323 . S
C2623 C678 1.323 . S
C2627 N825 1.139 . S
C2641 N347 1.157 . S
C2645 C764 1.329 . S
C2659 N395 1.140 . S
C2663 C1029 1.306 1_545 S
C2677 C556 1.323 . S
C2681 N438 1.140 . S
C2695 C807 1.322 . S
C2699 N954 1.154 . S
C2713 C599 1.324 . S
C2717 N906 1.139 . S
C2731 C1022 1.306 1_565 S
C2735 N476 1.144 . S
C2749 C721 1.323 1_445 S
C2753 N390 1.139 . S
