# Generated by pormake.
# Topology zni, (4)-cn, num edge types: 1
# Building blocks:
#     Node 0, Type 0, BuildingBlock: NAHDIM_clean_sbu_0, # of connection points: 4
#     Node 1, Type 0, BuildingBlock: NAHDIM_clean_sbu_0, # of connection points: 4
#     Node 2, Type 0, BuildingBlock: NAHDIM_clean_sbu_0, # of connection points: 4
#     Node 3, Type 0, BuildingBlock: NAHDIM_clean_sbu_0, # of connection points: 4
#     Node 4, Type 0, BuildingBlock: NAHDIM_clean_sbu_0, # of connection points: 4
#     Node 5, Type 0, BuildingBlock: NAHDIM_clean_sbu_0, # of connection points: 4
#     Node 6, Type 0, BuildingBlock: NAHDIM_clean_sbu_0, # of connection points: 4
#     Node 7, Type 0, BuildingBlock: NAHDIM_clean_sbu_0, # of connection points: 4
#     Node 8, Type 0, BuildingBlock: NAHDIM_clean_sbu_0, # of connection points: 4
#     Node 9, Type 0, BuildingBlock: NAHDIM_clean_sbu_0, # of connection points: 4
#     Node 10, Type 0, BuildingBlock: NAHDIM_clean_sbu_0, # of connection points: 4
#     Node 11, Type 0, BuildingBlock: NAHDIM_clean_sbu_0, # of connection points: 4
#     Node 12, Type 0, BuildingBlock: NAHDIM_clean_sbu_0, # of connection points: 4
#     Node 13, Type 0, BuildingBlock: NAHDIM_clean_sbu_0, # of connection points: 4
#     Node 14, Type 0, BuildingBlock: NAHDIM_clean_sbu_0, # of connection points: 4
#     Node 15, Type 0, BuildingBlock: NAHDIM_clean_sbu_0, # of connection points: 4
#     Node 16, Type 0, BuildingBlock: NAHDIM_clean_sbu_0, # of connection points: 4
#     Node 17, Type 0, BuildingBlock: NAHDIM_clean_sbu_0, # of connection points: 4
#     Node 18, Type 0, BuildingBlock: NAHDIM_clean_sbu_0, # of connection points: 4
#     Node 19, Type 0, BuildingBlock: NAHDIM_clean_sbu_0, # of connection points: 4
#     Node 20, Type 0, BuildingBlock: NAHDIM_clean_sbu_0, # of connection points: 4
#     Node 21, Type 0, BuildingBlock: NAHDIM_clean_sbu_0, # of connection points: 4
#     Node 22, Type 0, BuildingBlock: NAHDIM_clean_sbu_0, # of connection points: 4
#     Node 23, Type 0, BuildingBlock: NAHDIM_clean_sbu_0, # of connection points: 4
#     Node 24, Type 0, BuildingBlock: NAHDIM_clean_sbu_0, # of connection points: 4
#     Node 25, Type 0, BuildingBlock: NAHDIM_clean_sbu_0, # of connection points: 4
#     Node 26, Type 0, BuildingBlock: NAHDIM_clean_sbu_0, # of connection points: 4
#     Node 27, Type 0, BuildingBlock: NAHDIM_clean_sbu_0, # of connection points: 4
#     Node 28, Type 0, BuildingBlock: NAHDIM_clean_sbu_0, # of connection points: 4
#     Node 29, Type 0, BuildingBlock: NAHDIM_clean_sbu_0, # of connection points: 4
#     Node 30, Type 0, BuildingBlock: NAHDIM_clean_sbu_0, # of connection points: 4
#     Node 31, Type 0, BuildingBlock: NAHDIM_clean_sbu_0, # of connection points: 4
#     Edge 32, Type (0, 0), BuildingBlock: EZIPEK_clean_linker_0, # of connection points: 2
#     Edge 33, Type (0, 0), BuildingBlock: EZIPEK_clean_linker_0, # of connection points: 2
#     Edge 34, Type (0, 0), BuildingBlock: EZIPEK_clean_linker_0, # of connection points: 2
#     Edge 35, Type (0, 0), BuildingBlock: EZIPEK_clean_linker_0, # of connection points: 2
#     Edge 36, Type (0, 0), BuildingBlock: EZIPEK_clean_linker_0, # of connection points: 2
#     Edge 37, Type (0, 0), BuildingBlock: EZIPEK_clean_linker_0, # of connection points: 2
#     Edge 38, Type (0, 0), BuildingBlock: EZIPEK_clean_linker_0, # of connection points: 2
#     Edge 39, Type (0, 0), BuildingBlock: EZIPEK_clean_linker_0, # of connection points: 2
#     Edge 40, Type (0, 0), BuildingBlock: EZIPEK_clean_linker_0, # of connection points: 2
#     Edge 41, Type (0, 0), BuildingBlock: EZIPEK_clean_linker_0, # of connection points: 2
#     Edge 42, Type (0, 0), BuildingBlock: EZIPEK_clean_linker_0, # of connection points: 2
#     Edge 43, Type (0, 0), BuildingBlock: EZIPEK_clean_linker_0, # of connection points: 2
#     Edge 44, Type (0, 0), BuildingBlock: EZIPEK_clean_linker_0, # of connection points: 2
#     Edge 45, Type (0, 0), BuildingBlock: EZIPEK_clean_linker_0, # of connection points: 2
#     Edge 46, Type (0, 0), BuildingBlock: EZIPEK_clean_linker_0, # of connection points: 2
#     Edge 47, Type (0, 0), BuildingBlock: EZIPEK_clean_linker_0, # of connection points: 2
#     Edge 48, Type (0, 0), BuildingBlock: EZIPEK_clean_linker_0, # of connection points: 2
#     Edge 49, Type (0, 0), BuildingBlock: EZIPEK_clean_linker_0, # of connection points: 2
#     Edge 50, Type (0, 0), BuildingBlock: EZIPEK_clean_linker_0, # of connection points: 2
#     Edge 51, Type (0, 0), BuildingBlock: EZIPEK_clean_linker_0, # of connection points: 2
#     Edge 52, Type (0, 0), BuildingBlock: EZIPEK_clean_linker_0, # of connection points: 2
#     Edge 53, Type (0, 0), BuildingBlock: EZIPEK_clean_linker_0, # of connection points: 2
#     Edge 54, Type (0, 0), BuildingBlock: EZIPEK_clean_linker_0, # of connection points: 2
#     Edge 55, Type (0, 0), BuildingBlock: EZIPEK_clean_linker_0, # of connection points: 2
#     Edge 56, Type (0, 0), BuildingBlock: EZIPEK_clean_linker_0, # of connection points: 2
#     Edge 57, Type (0, 0), BuildingBlock: EZIPEK_clean_linker_0, # of connection points: 2
#     Edge 58, Type (0, 0), BuildingBlock: EZIPEK_clean_linker_0, # of connection points: 2
#     Edge 59, Type (0, 0), BuildingBlock: EZIPEK_clean_linker_0, # of connection points: 2
#     Edge 60, Type (0, 0), BuildingBlock: EZIPEK_clean_linker_0, # of connection points: 2
#     Edge 61, Type (0, 0), BuildingBlock: EZIPEK_clean_linker_0, # of connection points: 2
#     Edge 62, Type (0, 0), BuildingBlock: EZIPEK_clean_linker_0, # of connection points: 2
#     Edge 63, Type (0, 0), BuildingBlock: EZIPEK_clean_linker_0, # of connection points: 2
#     Edge 64, Type (0, 0), BuildingBlock: EZIPEK_clean_linker_0, # of connection points: 2
#     Edge 65, Type (0, 0), BuildingBlock: EZIPEK_clean_linker_0, # of connection points: 2
#     Edge 66, Type (0, 0), BuildingBlock: EZIPEK_clean_linker_0, # of connection points: 2
#     Edge 67, Type (0, 0), BuildingBlock: EZIPEK_clean_linker_0, # of connection points: 2
#     Edge 68, Type (0, 0), BuildingBlock: EZIPEK_clean_linker_0, # of connection points: 2
#     Edge 69, Type (0, 0), BuildingBlock: EZIPEK_clean_linker_0, # of connection points: 2
#     Edge 70, Type (0, 0), BuildingBlock: EZIPEK_clean_linker_0, # of connection points: 2
#     Edge 71, Type (0, 0), BuildingBlock: EZIPEK_clean_linker_0, # of connection points: 2
#     Edge 72, Type (0, 0), BuildingBlock: EZIPEK_clean_linker_0, # of connection points: 2
#     Edge 73, Type (0, 0), BuildingBlock: EZIPEK_clean_linker_0, # of connection points: 2
#     Edge 74, Type (0, 0), BuildingBlock: EZIPEK_clean_linker_0, # of connection points: 2
#     Edge 75, Type (0, 0), BuildingBlock: EZIPEK_clean_linker_0, # of connection points: 2
#     Edge 76, Type (0, 0), BuildingBlock: EZIPEK_clean_linker_0, # of connection points: 2
#     Edge 77, Type (0, 0), BuildingBlock: EZIPEK_clean_linker_0, # of connection points: 2
#     Edge 78, Type (0, 0), BuildingBlock: EZIPEK_clean_linker_0, # of connection points: 2
#     Edge 79, Type (0, 0), BuildingBlock: EZIPEK_clean_linker_0, # of connection points: 2
#     Edge 80, Type (0, 0), BuildingBlock: EZIPEK_clean_linker_0, # of connection points: 2
#     Edge 81, Type (0, 0), BuildingBlock: EZIPEK_clean_linker_0, # of connection points: 2
#     Edge 82, Type (0, 0), BuildingBlock: EZIPEK_clean_linker_0, # of connection points: 2
#     Edge 83, Type (0, 0), BuildingBlock: EZIPEK_clean_linker_0, # of connection points: 2
#     Edge 84, Type (0, 0), BuildingBlock: EZIPEK_clean_linker_0, # of connection points: 2
#     Edge 85, Type (0, 0), BuildingBlock: EZIPEK_clean_linker_0, # of connection points: 2
#     Edge 86, Type (0, 0), BuildingBlock: EZIPEK_clean_linker_0, # of connection points: 2
#     Edge 87, Type (0, 0), BuildingBlock: EZIPEK_clean_linker_0, # of connection points: 2
#     Edge 88, Type (0, 0), BuildingBlock: EZIPEK_clean_linker_0, # of connection points: 2
#     Edge 89, Type (0, 0), BuildingBlock: EZIPEK_clean_linker_0, # of connection points: 2
#     Edge 90, Type (0, 0), BuildingBlock: EZIPEK_clean_linker_0, # of connection points: 2
#     Edge 91, Type (0, 0), BuildingBlock: EZIPEK_clean_linker_0, # of connection points: 2
#     Edge 92, Type (0, 0), BuildingBlock: EZIPEK_clean_linker_0, # of connection points: 2
#     Edge 93, Type (0, 0), BuildingBlock: EZIPEK_clean_linker_0, # of connection points: 2
#     Edge 94, Type (0, 0), BuildingBlock: EZIPEK_clean_linker_0, # of connection points: 2
#     Edge 95, Type (0, 0), BuildingBlock: EZIPEK_clean_linker_0, # of connection points: 2
# Relax obj value: 0.184
# Max RMSD: 0.102
# Mean RMSD: 0.102
data_MOF--net-zni--node1-NAHDIM_clean_sbu_0--edge1-EZIPEK_clean_linker_0
_symmetry_space_group_name_H-M    P1
_symmetry_Int_Tables_number       1
_symmetry_cell_setting            triclinic
loop_
_symmetry_equiv_pos_as_xyz
'x, y, z'
_cell_length_a     40.438993
_cell_length_b     40.452318
_cell_length_c     23.207244
_cell_angle_alpha  90.014159
_cell_angle_beta   89.967339
_cell_angle_gamma 89.98909
loop_
_atom_site_label
_atom_site_type_symbol
_atom_site_fract_x
_atom_site_fract_y
_atom_site_fract_z
_atom_type_partial_charge
C0 C 0.16373 0.05311 0.32269 0.0
O1 O 0.1386 0.04269 0.35359 0.0
O2 O 0.15991 0.10754 0.46356 0.0
Zn3 Zn 0.14602 0.11199 0.38026 0.0
O4 O 0.09735 0.10057 0.37021 0.0
C5 C 0.16769 0.1808 0.38533 0.0
O6 O 0.18717 0.17035 0.42674 0.0
O7 O 0.17346 0.08281 0.32827 0.0
C8 C 0.07543 0.11098 0.40514 0.0
O9 O 0.0844 0.12833 0.45031 0.0
C10 C 0.14451 0.08987 0.50002 0.0
O11 O 0.12143 0.06947 0.48215 0.0
O12 O 0.1496 0.1603 0.35828 0.0
C13 C 0.20188 0.9211 0.59899 0.0
O14 O 0.20099 0.94256 0.64143 0.0
O15 O 0.15288 0.90426 0.73401 0.0
Zn16 Zn 0.14788 0.88317 0.65628 0.0
O17 O 0.15244 0.83388 0.66575 0.0
C18 C 0.07928 0.88217 0.66354 0.0
O19 O 0.08792 0.86968 0.71356 0.0
O20 O 0.18195 0.89686 0.59822 0.0
C21 C 0.1526 0.81654 0.62012 0.0
O22 O 0.15036 0.83111 0.56972 0.0
C23 C 0.17852 0.90243 0.76538 0.0
O24 O 0.20533 0.88815 0.74536 0.0
O25 O 0.10159 0.89149 0.62853 0.0
C26 C 0.34088 0.95765 0.85051 0.0
O27 O 0.35501 0.96722 0.89865 0.0
O28 O 0.34675 0.90197 0.97433 0.0
Zn29 Zn 0.36297 0.89615 0.89275 0.0
O30 O 0.41183 0.90794 0.88959 0.0
C31 C 0.3333 0.83049 0.88013 0.0
O32 O 0.30802 0.84306 0.90812 0.0
O33 O 0.33911 0.92697 0.83911 0.0
C34 C 0.43395 0.88561 0.8914 0.0
O35 O 0.42525 0.85451 0.89704 0.0
C36 C 0.36092 0.88455 0.01252 0.0
O37 O 0.38451 0.86404 0.99744 0.0
O38 O 0.35798 0.84857 0.86789 0.0
C39 C 0.30585 0.09972 0.08585 0.0
O40 O 0.29464 0.11866 0.12748 0.0
O41 O 0.35267 0.09816 0.2256 0.0
Zn42 Zn 0.36423 0.11377 0.14547 0.0
O43 O 0.35337 0.16249 0.14218 0.0
C44 C 0.43405 0.09589 0.16278 0.0
O45 O 0.42391 0.08285 0.2114 0.0
O46 O 0.33622 0.09169 0.08523 0.0
C47 C 0.36916 0.18159 0.10864 0.0
O48 O 0.39278 0.16965 0.07586 0.0
C49 C 0.36257 0.11717 0.2656 0.0
O50 O 0.37883 0.14418 0.25209 0.0
O51 O 0.41329 0.10887 0.12846 0.0
C52 C 0.18578 0.94848 0.16534 0.0
O53 O 0.20309 0.94483 0.11786 0.0
O54 O 0.15979 0.89905 0.04194 0.0
Zn55 Zn 0.14131 0.89588 0.12221 0.0
O56 O 0.09238 0.90727 0.1206 0.0
C57 C 0.14404 0.82576 0.11377 0.0
O58 O 0.13814 0.8336 0.05983 0.0
O59 O 0.16136 0.92963 0.17552 0.0
C60 C 0.06896 0.88751 0.10841 0.0
O61 O 0.07549 0.85692 0.09354 0.0
C62 C 0.15474 0.9231 0.0079 0.0
O63 O 0.13795 0.94895 0.02564 0.0
O64 O 0.14767 0.84879 0.15063 0.0
C65 C 0.30128 0.91117 0.42147 0.0
O66 O 0.29162 0.90954 0.36754 0.0
O67 O 0.35377 0.89795 0.29682 0.0
Zn68 Zn 0.36261 0.88272 0.37872 0.0
O69 O 0.35561 0.8329 0.38457 0.0
C70 C 0.43326 0.88732 0.36872 0.0
O71 O 0.42692 0.87174 0.32031 0.0
O72 O 0.33057 0.90279 0.43483 0.0
C73 C 0.37793 0.81199 0.39724 0.0
O74 O 0.40822 0.82195 0.40726 0.0
C75 C 0.35301 0.87664 0.25653 0.0
O76 O 0.35594 0.84514 0.26901 0.0
O77 O 0.40938 0.89553 0.40136 0.0
C78 C 0.3271 0.0665 0.69503 0.0
O79 O 0.30159 0.07935 0.66816 0.0
O80 O 0.35232 0.10209 0.54917 0.0
Zn81 Zn 0.37151 0.11089 0.62776 0.0
O82 O 0.42104 0.10455 0.62159 0.0
C83 C 0.33734 0.1747 0.63824 0.0
O84 O 0.31377 0.16079 0.60785 0.0
O85 O 0.35614 0.07678 0.68442 0.0
C86 C 0.44139 0.12831 0.62667 0.0
O87 O 0.43033 0.15853 0.6341 0.0
C88 C 0.36479 0.1189 0.50842 0.0
O89 O 0.38783 0.14078 0.51988 0.0
O90 O 0.36244 0.15791 0.65321 0.0
C91 C 0.20832 0.08968 0.90716 0.0
O92 O 0.21371 0.08272 0.85269 0.0
O93 O 0.15803 0.10149 0.78446 0.0
Zn94 Zn 0.14975 0.12142 0.86261 0.0
O95 O 0.16007 0.17011 0.85427 0.0
C96 C 0.08117 0.09724 0.86215 0.0
O97 O 0.09156 0.07717 0.82156 0.0
O98 O 0.18167 0.10405 0.92184 0.0
C99 C 0.14895 0.19117 0.88995 0.0
O100 O 0.13042 0.18115 0.93305 0.0
C101 C 0.14124 0.11451 0.74426 0.0
O102 O 0.11977 0.13776 0.75708 0.0
O103 O 0.10157 0.11653 0.88692 0.0
C104 C 0.82266 0.94347 0.66521 0.0
O105 O 0.80358 0.93796 0.62045 0.0
O106 O 0.85355 0.8968 0.53769 0.0
Zn107 Zn 0.86906 0.89232 0.62068 0.0
O108 O 0.91857 0.89994 0.62498 0.0
C109 C 0.84033 0.82596 0.62669 0.0
O110 O 0.82 0.83668 0.5868 0.0
O111 O 0.84884 0.92665 0.67254 0.0
C112 C 0.93878 0.87587 0.62582 0.0
O113 O 0.92767 0.84548 0.6222 0.0
C114 C 0.87398 0.90467 0.49827 0.0
O115 O 0.90438 0.91266 0.51224 0.0
O116 O 0.86118 0.84566 0.64889 0.0
C117 C 0.80537 0.08732 0.41527 0.0
O118 O 0.79651 0.11225 0.38256 0.0
O119 O 0.8625 0.0831 0.27587 0.0
Zn120 Zn 0.86595 0.0993 0.35766 0.0
O121 O 0.85511 0.1481 0.36101 0.0
C122 C 0.93704 0.09294 0.3514 0.0
O123 O 0.93117 0.09176 0.29585 0.0
O124 O 0.8343 0.07536 0.41036 0.0
C125 C 0.87362 0.1697 0.33775 0.0
O126 O 0.89933 0.1602 0.30742 0.0
C127 C 0.84053 0.09375 0.24144 0.0
O128 O 0.81806 0.11465 0.25992 0.0
O129 O 0.91301 0.0945 0.38665 0.0
C130 C 0.66363 0.05715 0.17729 0.0
O131 O 0.64525 0.04379 0.13687 0.0
O132 O 0.66074 0.09992 0.03596 0.0
Zn133 Zn 0.64374 0.1123 0.11469 0.0
O134 O 0.59539 0.0991 0.12267 0.0
C135 C 0.67058 0.18022 0.1099 0.0
O136 O 0.6982 0.16689 0.09135 0.0
O137 O 0.669 0.08809 0.1762 0.0
C138 C 0.57248 0.12054 0.11878 0.0
O139 O 0.57998 0.15153 0.10822 0.0
C140 C 0.64247 0.10755 0.99354 0.0
O141 O 0.61342 0.12093 0.00311 0.0
O142 O 0.64632 0.16191 0.12366 0.0
C143 C 0.70458 0.92748 0.90894 0.0
O144 O 0.70936 0.93898 0.85673 0.0
O145 O 0.64999 0.91819 0.78485 0.0
Zn146 Zn 0.644 0.89736 0.8627 0.0
O147 O 0.64947 0.84806 0.85168 0.0
C148 C 0.57434 0.89538 0.85723 0.0
O149 O 0.5825 0.88115 0.80839 0.0
O150 O 0.67843 0.91134 0.92052 0.0
C151 C 0.64103 0.82826 0.8915 0.0
O152 O 0.62985 0.84017 0.9404 0.0
C153 C 0.67219 0.90752 0.75086 0.0
O154 O 0.69295 0.88479 0.7688 0.0
O155 O 0.59712 0.90605 0.89014 0.0
C156 C 0.85008 0.0433 0.82574 0.0
O157 O 0.87622 0.03128 0.85193 0.0
O158 O 0.86007 0.0975 0.96922 0.0
Zn159 Zn 0.87098 0.10159 0.88514 0.0
O160 O 0.91928 0.08989 0.87464 0.0
C161 C 0.85155 0.17035 0.89386 0.0
O162 O 0.83498 0.16005 0.9391 0.0
O163 O 0.84161 0.07308 0.83498 0.0
C164 C 0.94005 0.10706 0.90287 0.0
O165 O 0.92935 0.13033 0.93769 0.0
C166 C 0.8499 0.07221 0.99633 0.0
O167 O 0.84491 0.04426 0.96898 0.0
O168 O 0.86725 0.1497 0.86294 0.0
C169 C 0.7034 0.0757 0.5826 0.0
O170 O 0.69998 0.05811 0.62979 0.0
O171 O 0.65955 0.09926 0.71036 0.0
Zn172 Zn 0.65209 0.11865 0.63084 0.0
O173 O 0.65795 0.16821 0.6333 0.0
C174 C 0.58284 0.11887 0.64399 0.0
O175 O 0.59225 0.13072 0.69398 0.0
O176 O 0.6851 0.10074 0.57398 0.0
C177 C 0.64953 0.18559 0.59019 0.0
O178 O 0.63954 0.1709 0.54282 0.0
C179 C 0.66099 0.11868 0.75333 0.0
O180 O 0.66028 0.15074 0.74484 0.0
O181 O 0.60456 0.11039 0.60715 0.0
C182 C 0.68091 0.9584 0.35032 0.0
O183 O 0.69154 0.96108 0.40356 0.0
O184 O 0.66171 0.90752 0.47278 0.0
Zn185 Zn 0.64332 0.90189 0.39294 0.0
O186 O 0.59419 0.91146 0.39494 0.0
C187 C 0.66157 0.83267 0.40155 0.0
O188 O 0.6764 0.84242 0.44891 0.0
O189 O 0.66253 0.93426 0.33619 0.0
C190 C 0.57357 0.8885 0.4052 0.0
O191 O 0.58433 0.85882 0.41809 0.0
C192 C 0.65006 0.92839 0.50825 0.0
O193 O 0.62668 0.9488 0.49174 0.0
O194 O 0.64815 0.85392 0.36857 0.0
C195 C 0.80425 0.91291 0.08423 0.0
O196 O 0.79241 0.90397 0.13455 0.0
O197 O 0.85377 0.90453 0.21415 0.0
Zn198 Zn 0.86314 0.88738 0.13408 0.0
O199 O 0.85166 0.83852 0.13181 0.0
C200 C 0.92984 0.91581 0.13254 0.0
O201 O 0.91664 0.94104 0.15973 0.0
O202 O 0.83497 0.90972 0.07422 0.0
C203 C 0.87399 0.8164 0.13421 0.0
O204 O 0.90508 0.8251 0.14005 0.0
C205 C 0.86992 0.8903 0.25396 0.0
O206 O 0.89071 0.86659 0.24061 0.0
O207 O 0.91174 0.89198 0.11609 0.0
C208 C 0.63391 0.55648 0.82343 0.0
O209 O 0.6108 0.54971 0.86144 0.0
O210 O 0.64503 0.60671 0.96182 0.0
Zn211 Zn 0.62827 0.6169 0.88156 0.0
O212 O 0.57834 0.61026 0.87792 0.0
C213 C 0.63629 0.68699 0.8971 0.0
O214 O 0.62494 0.67932 0.94838 0.0
O215 O 0.64789 0.5846 0.82489 0.0
C216 C 0.557 0.63322 0.8741 0.0
O217 O 0.56656 0.66417 0.87468 0.0
C218 C 0.62515 0.60849 0.00413 0.0
O219 O 0.59377 0.61468 0.99454 0.0
O220 O 0.64063 0.66419 0.86007 0.0
C221 C 0.69638 0.4082 0.04914 0.0
O222 O 0.70719 0.38584 0.08556 0.0
O223 O 0.63932 0.40906 0.18465 0.0
Zn224 Zn 0.63623 0.39058 0.10342 0.0
O225 O 0.65243 0.34277 0.1018 0.0
C226 C 0.56429 0.38997 0.10628 0.0
O227 O 0.56884 0.38453 0.1614 0.0
O228 O 0.6661 0.41653 0.05045 0.0
C229 C 0.63384 0.31778 0.10909 0.0
O230 O 0.60203 0.32199 0.11756 0.0
C231 C 0.63402 0.38971 0.22679 0.0
O232 O 0.62727 0.35853 0.21692 0.0
O233 O 0.58909 0.39363 0.0732 0.0
C234 C 0.8548 0.44167 0.33507 0.0
O235 O 0.87732 0.4476 0.37445 0.0
O236 O 0.8418 0.38209 0.46598 0.0
Zn237 Zn 0.8605 0.37873 0.38588 0.0
O238 O 0.91 0.38604 0.39021 0.0
C239 C 0.86801 0.30983 0.38354 0.0
O240 O 0.88753 0.31835 0.42619 0.0
O241 O 0.84151 0.41323 0.33266 0.0
C242 C 0.9285 0.37826 0.34811 0.0
O243 O 0.91528 0.36565 0.30135 0.0
C244 C 0.85547 0.40044 0.50343 0.0
O245 O 0.88106 0.41859 0.48896 0.0
O246 O 0.85201 0.33224 0.35712 0.0
C247 C 0.80251 0.60153 0.58229 0.0
O248 O 0.79015 0.61662 0.62754 0.0
O249 O 0.84906 0.59378 0.7197 0.0
Zn250 Zn 0.85988 0.6161 0.64463 0.0
O251 O 0.8466 0.66434 0.64818 0.0
C252 C 0.92665 0.58787 0.63354 0.0
O253 O 0.91282 0.55956 0.64714 0.0
O254 O 0.83344 0.59606 0.57993 0.0
C255 C 0.86772 0.68697 0.65738 0.0
O256 O 0.89878 0.67909 0.66655 0.0
C257 C 0.85815 0.60769 0.7661 0.0
O258 O 0.87394 0.636 0.76398 0.0
O259 O 0.90903 0.61376 0.62927 0.0
C260 C 0.63026 0.45673 0.64958 0.0
O261 O 0.60548 0.46341 0.61491 0.0
O262 O 0.63781 0.40681 0.50958 0.0
Zn263 Zn 0.62342 0.39639 0.59108 0.0
O264 O 0.57354 0.40207 0.5998 0.0
C265 C 0.634 0.32632 0.57566 0.0
O266 O 0.622 0.33298 0.52444 0.0
O267 O 0.6445 0.42882 0.64577 0.0
C268 C 0.55283 0.37851 0.6031 0.0
O269 O 0.56303 0.34792 0.59732 0.0
C270 C 0.61753 0.40328 0.46825 0.0
O271 O 0.58678 0.39509 0.47945 0.0
O272 O 0.6375 0.34956 0.61209 0.0
C273 C 0.80327 0.42378 0.89427 0.0
O274 O 0.8072 0.43773 0.84364 0.0
O275 O 0.85436 0.39334 0.77948 0.0
Zn276 Zn 0.85883 0.38058 0.86282 0.0
O277 O 0.85175 0.33125 0.87001 0.0
C278 C 0.92825 0.39135 0.85334 0.0
O279 O 0.92094 0.38663 0.79885 0.0
O280 O 0.82316 0.40144 0.91095 0.0
C281 C 0.87266 0.30971 0.8539 0.0
O282 O 0.90096 0.31891 0.8314 0.0
C283 C 0.83331 0.38009 0.74614 0.0
O284 O 0.81227 0.35832 0.76654 0.0
O285 O 0.90514 0.39162 0.89059 0.0
C286 C 0.85979 0.54762 0.17405 0.0
O287 O 0.88773 0.54419 0.14591 0.0
O288 O 0.84425 0.59979 0.03069 0.0
Zn289 Zn 0.8614 0.60737 0.11092 0.0
O290 O 0.91134 0.60414 0.11241 0.0
C291 C 0.85955 0.67632 0.09948 0.0
O292 O 0.87205 0.66747 0.04958 0.0
O293 O 0.84236 0.57335 0.16578 0.0
C294 C 0.93052 0.60847 0.06968 0.0
O295 O 0.91831 0.61497 0.01851 0.0
C296 C 0.85124 0.57432 0.00103 0.0
O297 O 0.87164 0.55263 0.02344 0.0
O298 O 0.85058 0.6541 0.13496 0.0
C299 C 0.70429 0.59493 0.40353 0.0
O300 O 0.70999 0.59347 0.34786 0.0
O301 O 0.64725 0.6039 0.28718 0.0
Zn302 Zn 0.64175 0.6227 0.3677 0.0
O303 O 0.65146 0.67209 0.36805 0.0
C304 C 0.57028 0.61414 0.36585 0.0
O305 O 0.574 0.62064 0.31086 0.0
O306 O 0.67607 0.6041 0.4216 0.0
C307 C 0.63015 0.69496 0.3627 0.0
O308 O 0.59889 0.6875 0.35506 0.0
C309 C 0.6401 0.62248 0.24486 0.0
O310 O 0.63001 0.65277 0.25447 0.0
O311 O 0.59549 0.61331 0.39862 0.0
C312 C 0.32073 0.44143 0.17523 0.0
O313 O 0.29986 0.4402 0.13195 0.0
O314 O 0.33601 0.40235 0.03854 0.0
Zn315 Zn 0.35875 0.39081 0.11303 0.0
O316 O 0.40818 0.39536 0.10489 0.0
C317 C 0.35071 0.32244 0.09117 0.0
O318 O 0.3526 0.33333 0.038 0.0
O319 O 0.34549 0.42211 0.17641 0.0
C320 C 0.42489 0.38991 0.05947 0.0
O321 O 0.40976 0.38206 0.0113 0.0
C322 C 0.34383 0.42783 0.00956 0.0
O323 O 0.36796 0.44641 0.02908 0.0
O324 O 0.35094 0.34292 0.13275 0.0
C325 C 0.29789 0.57676 0.91022 0.0
O326 O 0.29923 0.5584 0.86361 0.0
O327 O 0.33642 0.59655 0.77869 0.0
Zn328 Zn 0.34661 0.61946 0.85406 0.0
O329 O 0.33592 0.66863 0.85191 0.0
C330 C 0.41683 0.61663 0.83768 0.0
O331 O 0.40804 0.62169 0.78394 0.0
O332 O 0.3167 0.60169 0.91538 0.0
C333 C 0.35575 0.69165 0.8378 0.0
O334 O 0.3854 0.68446 0.81863 0.0
C335 C 0.32973 0.61301 0.73364 0.0
O336 O 0.32821 0.64537 0.73659 0.0
O337 O 0.39462 0.61327 0.87602 0.0
C338 C 0.15799 0.54639 0.66517 0.0
O339 O 0.13002 0.53633 0.64242 0.0
O340 O 0.14511 0.60212 0.52523 0.0
Zn341 Zn 0.13736 0.60589 0.61071 0.0
O342 O 0.08961 0.59422 0.62767 0.0
C343 C 0.15562 0.67475 0.59908 0.0
O344 O 0.16619 0.66494 0.5484 0.0
O345 O 0.16785 0.57569 0.6555 0.0
C346 C 0.06671 0.60673 0.59718 0.0
O347 O 0.0742 0.62713 0.55519 0.0
C348 C 0.15161 0.57641 0.49592 0.0
O349 O 0.15371 0.54748 0.52123 0.0
O350 O 0.14385 0.65371 0.63429 0.0
C351 C 0.19629 0.4151 0.41782 0.0
O352 O 0.21058 0.40118 0.37316 0.0
O353 O 0.15178 0.4109 0.28006 0.0
Zn354 Zn 0.14059 0.39168 0.35828 0.0
O355 O 0.15586 0.34366 0.36573 0.0
C356 C 0.07031 0.3901 0.33211 0.0
O357 O 0.08105 0.38372 0.2799 0.0
O358 O 0.16494 0.41634 0.42016 0.0
C359 C 0.13821 0.31907 0.35094 0.0
O360 O 0.10879 0.32408 0.32882 0.0
C361 C 0.15484 0.39156 0.23729 0.0
O362 O 0.15281 0.35956 0.24529 0.0
O363 O 0.09102 0.39494 0.37253 0.0
C364 C 0.34883 0.54312 0.33902 0.0
O365 O 0.37323 0.5333 0.3722 0.0
O366 O 0.35069 0.59338 0.47906 0.0
Zn367 Zn 0.36312 0.60269 0.3971 0.0
O368 O 0.41249 0.59716 0.3862 0.0
C369 C 0.36094 0.67126 0.42042 0.0
O370 O 0.37051 0.66029 0.47096 0.0
O371 O 0.33856 0.57271 0.34287 0.0
C372 C 0.43268 0.60017 0.42787 0.0
O373 O 0.42139 0.60461 0.48038 0.0
C374 C 0.32411 0.58043 0.49744 0.0
O375 O 0.30189 0.56923 0.46109 0.0
O376 O 0.3542 0.65078 0.38051 0.0
C377 C 0.1995 0.60094 0.07948 0.0
O378 O 0.2093 0.6269 0.10878 0.0
O379 O 0.13967 0.59619 0.21812 0.0
Zn380 Zn 0.13882 0.61451 0.13786 0.0
O381 O 0.15136 0.66313 0.1398 0.0
C382 C 0.06753 0.60919 0.13605 0.0
O383 O 0.07099 0.61009 0.19227 0.0
O384 O 0.17044 0.58984 0.08664 0.0
C385 C 0.13021 0.68533 0.15191 0.0
O386 O 0.10023 0.67645 0.16713 0.0
C387 C 0.16346 0.6022 0.25227 0.0
O388 O 0.18898 0.61936 0.2341 0.0
O389 O 0.09296 0.61003 0.10392 0.0
C390 C 0.1848 0.44299 0.8197 0.0
O391 O 0.20541 0.43718 0.86226 0.0
O392 O 0.15934 0.4097 0.95508 0.0
Zn393 Zn 0.13962 0.39767 0.87856 0.0
O394 O 0.09027 0.40674 0.88348 0.0
C395 C 0.17155 0.33228 0.87811 0.0
O396 O 0.1978 0.34765 0.89792 0.0
O397 O 0.15755 0.42746 0.81683 0.0
C398 C 0.06909 0.38381 0.87693 0.0
O399 O 0.07915 0.35334 0.86842 0.0
C400 C 0.14559 0.3956 0.99758 0.0
O401 O 0.12094 0.37516 0.98844 0.0
O402 O 0.14612 0.34882 0.86398 0.0
C403 C 0.29037 0.42613 0.60088 0.0
O404 O 0.28841 0.44191 0.6502 0.0
O405 O 0.33482 0.41006 0.72978 0.0
Zn406 Zn 0.34332 0.38664 0.6542 0.0
O407 O 0.33342 0.33728 0.6591 0.0
C408 C 0.41456 0.39115 0.6631 0.0
O409 O 0.40833 0.38709 0.71818 0.0
O410 O 0.312 0.40368 0.59388 0.0
C411 C 0.35398 0.31497 0.67363 0.0
O412 O 0.38378 0.3232 0.69062 0.0
C413 C 0.3369 0.39463 0.77727 0.0
O414 O 0.34375 0.36294 0.77718 0.0
O415 O 0.39063 0.39317 0.62774 0.0
C416 C 0.19254 0.99985 0.30024 0.0
C417 C 0.17911 0.03024 0.28047 0.0
C418 C 0.17807 0.00924 0.18146 0.0
C419 C 0.18974 0.97825 0.20176 0.0
N420 N 0.21622 0.94634 0.27581 0.0
N421 N 0.16813 0.06723 0.20097 0.0
C422 C 0.19974 0.97437 0.25981 0.0
C423 C 0.17525 0.03616 0.22055 0.0
N424 N 0.19752 0.99517 0.35792 0.0
N425 N 0.16718 0.01229 0.12592 0.0
H426 H 0.16434 0.08739 0.22801 0.0
H427 H 0.16885 0.07374 0.15758 0.0
H428 H 0.16935 0.99353 0.09542 0.0
H429 H 0.15423 0.03272 0.11063 0.0
H430 H 0.20325 0.97242 0.3763 0.0
H431 H 0.19487 0.01421 0.38793 0.0
H432 H 0.22668 0.9428 0.3163 0.0
H433 H 0.2219 0.92758 0.24651 0.0
C434 C 0.24999 0.89276 0.55415 0.0
C435 C 0.22948 0.92111 0.5571 0.0
C436 C 0.25903 0.94527 0.47481 0.0
C437 C 0.27647 0.91507 0.46784 0.0
N438 N 0.28302 0.85747 0.49323 0.0
N439 N 0.212 0.97342 0.51782 0.0
C440 C 0.27054 0.88811 0.50552 0.0
C441 C 0.23345 0.94732 0.517 0.0
N442 N 0.2505 0.87061 0.59867 0.0
N443 N 0.26735 0.97203 0.44193 0.0
H444 H 0.19307 0.97558 0.54808 0.0
H445 H 0.21152 0.99181 0.48649 0.0
H446 H 0.28566 0.97112 0.41026 0.0
H447 H 0.25792 0.99566 0.44872 0.0
H448 H 0.26741 0.85123 0.60122 0.0
H449 H 0.23646 0.87363 0.63603 0.0
H450 H 0.27649 0.83628 0.51608 0.0
H451 H 0.29701 0.85246 0.45651 0.0
C452 C 0.34012 0.0073 0.71135 0.0
C453 C 0.32357 0.03619 0.73015 0.0
C454 C 0.31012 0.00886 0.82139 0.0
C455 C 0.33198 0.98269 0.80659 0.0
N456 N 0.37172 0.95944 0.73963 0.0
N457 N 0.29332 0.06555 0.80355 0.0
C458 C 0.34768 0.9822 0.75178 0.0
C459 C 0.30822 0.03716 0.78504 0.0
N460 N 0.34857 0.00389 0.65461 0.0
N461 N 0.29091 0.00638 0.86967 0.0
H462 H 0.29085 0.08643 0.77753 0.0
H463 H 0.28527 0.06907 0.84571 0.0
H464 H 0.29146 0.98571 0.89657 0.0
H465 H 0.27233 0.0232 0.88005 0.0
H466 H 0.35784 0.98199 0.63733 0.0
H467 H 0.34295 0.02178 0.62371 0.0
H468 H 0.38643 0.96056 0.7028 0.0
H469 H 0.37945 0.94131 0.76847 0.0
C470 C 0.26254 0.11108 0.94306 0.0
C471 C 0.2359 0.08845 0.94887 0.0
C472 C 0.25722 0.07042 0.04259 0.0
C473 C 0.28422 0.09252 0.03609 0.0
N474 N 0.31651 0.12892 0.9757 0.0
N475 N 0.21096 0.04219 0.99739 0.0
C476 C 0.28829 0.111 0.98461 0.0
C477 C 0.2342 0.06672 0.99665 0.0
N478 N 0.26215 0.13421 0.90001 0.0
N479 N 0.25325 0.05358 0.09319 0.0
H480 H 0.19379 0.03897 0.96431 0.0
H481 H 0.21045 0.02342 0.02801 0.0
H482 H 0.27061 0.05437 0.12642 0.0
H483 H 0.23214 0.04011 0.10349 0.0
H484 H 0.27862 0.15396 0.89782 0.0
H485 H 0.24373 0.1355 0.8687 0.0
H486 H 0.32258 0.13961 0.93627 0.0
H487 H 0.33531 0.13107 0.00614 0.0
C488 C 0.80851 0.96826 0.76021 0.0
C489 C 0.81785 0.97292 0.70204 0.0
C490 C 0.83545 0.02962 0.7234 0.0
C491 C 0.83241 0.02245 0.78309 0.0
N492 N 0.81179 0.98769 0.85922 0.0
N493 N 0.83721 0.00819 0.62557 0.0
C494 C 0.81714 0.9927 0.80171 0.0
C495 C 0.82957 0.00402 0.68255 0.0
N496 N 0.79151 0.94034 0.77513 0.0
N497 N 0.84481 0.06052 0.70596 0.0
H498 H 0.83203 0.99042 0.59432 0.0
H499 H 0.84966 0.02859 0.60903 0.0
H500 H 0.8505 0.07956 0.73443 0.0
H501 H 0.84474 0.06828 0.6633 0.0
H502 H 0.78197 0.9358 0.816 0.0
H503 H 0.78466 0.92261 0.74466 0.0
H504 H 0.80386 0.96546 0.87699 0.0
H505 H 0.8158 0.00617 0.88979 0.0
C506 C 0.75161 0.06207 0.44527 0.0
C507 C 0.78252 0.07599 0.46106 0.0
C508 C 0.7636 0.08256 0.56089 0.0
C509 C 0.73207 0.07048 0.54413 0.0
N510 N 0.69786 0.04167 0.47612 0.0
N511 N 0.82074 0.09351 0.53494 0.0
C512 C 0.72672 0.05787 0.48801 0.0
C513 C 0.78955 0.08386 0.51948 0.0
N514 N 0.74587 0.05387 0.38896 0.0
N515 N 0.76798 0.09476 0.61539 0.0
H516 H 0.84004 0.09644 0.50569 0.0
H517 H 0.82841 0.09686 0.57725 0.0
H518 H 0.74986 0.09348 0.64728 0.0
H519 H 0.78887 0.10757 0.62892 0.0
H520 H 0.72281 0.04732 0.37273 0.0
H521 H 0.76433 0.05463 0.35753 0.0
H522 H 0.69334 0.02918 0.4378 0.0
H523 H 0.67929 0.03838 0.50684 0.0
C524 C 0.7019 0.98615 0.26118 0.0
C525 C 0.68209 0.98731 0.31145 0.0
C526 C 0.65857 0.04031 0.28063 0.0
C527 C 0.67439 0.03645 0.22642 0.0
N528 N 0.71119 0.00624 0.16396 0.0
N529 N 0.63933 0.01368 0.3678 0.0
C530 C 0.69638 0.00966 0.21658 0.0
C531 C 0.66025 0.0142 0.32142 0.0
N532 N 0.72611 0.96271 0.25657 0.0
N533 N 0.64128 0.06852 0.2928 0.0
H534 H 0.6398 0.99528 0.39922 0.0
H535 H 0.61986 0.03022 0.37332 0.0
H536 H 0.63769 0.08755 0.26327 0.0
H537 H 0.63269 0.07436 0.33387 0.0
H538 H 0.7435 0.96218 0.2235 0.0
H539 H 0.73051 0.94524 0.28877 0.0
H540 H 0.72408 0.98518 0.15134 0.0
H541 H 0.70941 0.02414 0.13172 0.0
C542 C 0.74313 0.95328 0.98094 0.0
C543 C 0.73278 0.92513 0.94928 0.0
C544 C 0.77315 0.89048 8e-05 0.0
C545 C 0.78117 0.91791 0.03565 0.0
N546 N 0.77395 0.97489 0.06268 0.0
N547 N 0.73804 0.8673 0.92546 0.0
C548 C 0.76638 0.94928 0.02656 0.0
C549 C 0.74804 0.89386 0.95767 0.0
N550 N 0.73085 0.98373 0.96695 0.0
N551 N 0.78976 0.86124 0.00692 0.0
H552 H 0.72182 0.86928 0.8907 0.0
H553 H 0.74485 0.84296 0.93361 0.0
H554 H 0.80693 0.8572 0.03961 0.0
H555 H 0.78799 0.84124 0.97895 0.0
H556 H 0.73951 0.00581 0.98432 0.0
H557 H 0.71326 0.98722 0.93466 0.0
H558 H 0.76155 0.9974 0.06283 0.0
H559 H 0.79172 0.97303 0.09511 0.0
C560 C 0.64092 0.47293 0.75329 0.0
C561 C 0.63987 0.48139 0.69385 0.0
C562 C 0.64002 0.54021 0.71862 0.0
C563 C 0.64161 0.53178 0.77804 0.0
N564 N 0.65514 0.49088 0.84973 0.0
N565 N 0.65034 0.5223 0.62065 0.0
C566 C 0.64602 0.49833 0.79456 0.0
C567 C 0.64351 0.51483 0.67682 0.0
N568 N 0.63463 0.44135 0.7711 0.0
N569 N 0.63267 0.57171 0.70162 0.0
H570 H 0.65379 0.5041 0.58932 0.0
H571 H 0.65623 0.54611 0.60683 0.0
H572 H 0.62852 0.59113 0.73012 0.0
H573 H 0.62766 0.57792 0.65892 0.0
H574 H 0.63151 0.43502 0.81429 0.0
H575 H 0.62955 0.4219 0.74311 0.0
H576 H 0.66162 0.46709 0.8628 0.0
H577 H 0.65979 0.50908 0.88056 0.0
C578 C 0.77462 0.44327 0.98313 0.0
C579 C 0.77255 0.42881 0.92774 0.0
C580 C 0.71497 0.41299 0.94626 0.0
C581 C 0.7194 0.42152 0.00514 0.0
N582 N 0.75187 0.44722 0.07972 0.0
N583 N 0.74127 0.39948 0.85541 0.0
C584 C 0.74865 0.43784 0.0234 0.0
C585 C 0.74258 0.41431 0.90836 0.0
N586 N 0.80139 0.46234 0.9967 0.0
N587 N 0.68473 0.40285 0.92674 0.0
H588 H 0.76065 0.40023 0.82587 0.0
H589 H 0.72178 0.38459 0.84185 0.0
H590 H 0.66417 0.4 0.95323 0.0
H591 H 0.67913 0.4 0.88323 0.0
H592 H 0.80315 0.47633 0.03418 0.0
H593 H 0.82063 0.46653 0.96762 0.0
H594 H 0.77392 0.45548 0.0978 0.0
H595 H 0.7324 0.44572 0.10914 0.0
C596 C 0.853 0.46141 0.23214 0.0
C597 C 0.8475 0.46749 0.29167 0.0
C598 C 0.84374 0.52702 0.27299 0.0
C599 C 0.84922 0.52083 0.21351 0.0
N600 N 0.8477 0.48213 0.1347 0.0
N601 N 0.82768 0.50431 0.3656 0.0
C602 C 0.84993 0.48794 0.19257 0.0
C603 C 0.83947 0.49979 0.31097 0.0
N604 N 0.86364 0.43114 0.21355 0.0
N605 N 0.84487 0.55855 0.29406 0.0
H606 H 0.82386 0.48467 0.39401 0.0
H607 H 0.81853 0.52683 0.3805 0.0
H608 H 0.84813 0.5793 0.26813 0.0
H609 H 0.84498 0.56399 0.33794 0.0
H610 H 0.87174 0.42679 0.1716 0.0
H611 H 0.86722 0.41099 0.2407 0.0
H612 H 0.84507 0.45855 0.11723 0.0
H613 H 0.84484 0.50118 0.10477 0.0
C614 C 0.75755 0.61749 0.44226 0.0
C615 C 0.73213 0.59327 0.4449 0.0
C616 C 0.75497 0.57204 0.53559 0.0
C617 C 0.78095 0.59555 0.5318 0.0
N618 N 0.81085 0.63635 0.47637 0.0
N619 N 0.70958 0.54392 0.48751 0.0
C620 C 0.78368 0.61659 0.4831 0.0
C621 C 0.73175 0.56941 0.48967 0.0
N622 N 0.7554 0.64302 0.40372 0.0
N623 N 0.75218 0.55271 0.58367 0.0
H624 H 0.69241 0.54134 0.45427 0.0
H625 H 0.70984 0.52394 0.51576 0.0
H626 H 0.76988 0.55256 0.61637 0.0
H627 H 0.73168 0.538 0.59259 0.0
H628 H 0.77089 0.66357 0.40456 0.0
H629 H 0.73625 0.64554 0.37404 0.0
H630 H 0.8161 0.649 0.43836 0.0
H631 H 0.82965 0.63827 0.50684 0.0
C632 C 0.3109 0.46588 0.27269 0.0
C633 C 0.32076 0.47014 0.21464 0.0
C634 C 0.34017 0.52626 0.2361 0.0
C635 C 0.335 0.52006 0.29568 0.0
N636 N 0.31464 0.48491 0.37175 0.0
N637 N 0.34572 0.50336 0.14014 0.0
C638 C 0.31983 0.4902 0.31425 0.0
C639 C 0.33502 0.50032 0.19582 0.0
N640 N 0.29264 0.43875 0.28758 0.0
N641 N 0.35061 0.55669 0.21793 0.0
H642 H 0.34124 0.48558 0.10863 0.0
H643 H 0.36057 0.52263 0.12554 0.0
H644 H 0.35716 0.57576 0.24578 0.0
H645 H 0.35062 0.56396 0.1749 0.0
H646 H 0.282 0.43533 0.32798 0.0
H647 H 0.28577 0.42077 0.25763 0.0
H648 H 0.30754 0.46227 0.38906 0.0
H649 H 0.31856 0.50312 0.40286 0.0
C650 C 0.21383 0.5935 0.97546 0.0
C651 C 0.22124 0.58718 0.03425 0.0
C652 C 0.27456 0.56305 0.00663 0.0
C653 C 0.2694 0.5744 0.9497 0.0
N654 N 0.23495 0.60094 0.87858 0.0
N655 N 0.25743 0.56485 0.10694 0.0
C656 C 0.23894 0.58906 0.93336 0.0
C657 C 0.25115 0.57125 0.05012 0.0
N658 N 0.18308 0.60444 0.95999 0.0
N659 N 0.30181 0.5443 0.01858 0.0
H660 H 0.23996 0.56883 0.13933 0.0
H661 H 0.28019 0.55678 0.12246 0.0
H662 H 0.31914 0.538 0.98707 0.0
H663 H 0.30581 0.53267 0.0579 0.0
H664 H 0.175 0.60584 0.91749 0.0
H665 H 0.16451 0.60997 0.98958 0.0
H666 H 0.21542 0.61607 0.86605 0.0
H667 H 0.25224 0.5973 0.84585 0.0
C668 C 0.1946 0.46684 0.7222 0.0
C669 C 0.18927 0.47202 0.78179 0.0
C670 C 0.17745 0.53063 0.76406 0.0
C671 C 0.17626 0.52375 0.70411 0.0
N672 N 0.18863 0.48777 0.62444 0.0
N673 N 0.17711 0.50854 0.86126 0.0
C674 C 0.18682 0.49261 0.68266 0.0
C675 C 0.18205 0.50407 0.80343 0.0
N676 N 0.20693 0.43715 0.70404 0.0
N677 N 0.17341 0.56229 0.78342 0.0
H678 H 0.18104 0.49001 0.89166 0.0
H679 H 0.16753 0.53005 0.87935 0.0
H680 H 0.16904 0.5823 0.75631 0.0
H681 H 0.17713 0.56942 0.82598 0.0
H682 H 0.21298 0.43175 0.66158 0.0
H683 H 0.2133 0.41834 0.73279 0.0
H684 H 0.19299 0.46505 0.60489 0.0
H685 H 0.18548 0.50704 0.59509 0.0
C686 C 0.23696 0.44975 0.47275 0.0
C687 C 0.21615 0.42153 0.47007 0.0
C688 C 0.24014 0.39984 0.5593 0.0
C689 C 0.26226 0.42709 0.56026 0.0
N690 N 0.2785 0.48085 0.52627 0.0
N691 N 0.19319 0.37271 0.51472 0.0
C692 C 0.25947 0.45315 0.51972 0.0
C693 C 0.21613 0.39762 0.51488 0.0
N694 N 0.23549 0.47278 0.42966 0.0
N695 N 0.24292 0.37559 0.60021 0.0
H696 H 0.17639 0.3689 0.48137 0.0
H697 H 0.18924 0.35666 0.54903 0.0
H698 H 0.25824 0.37769 0.63618 0.0
H699 H 0.23093 0.35288 0.59825 0.0
H700 H 0.25138 0.49285 0.42596 0.0
H701 H 0.21838 0.47144 0.39611 0.0
H702 H 0.27658 0.50188 0.50077 0.0
H703 H 0.29531 0.4836 0.56003 0.0
C704 C 0.18451 0.23662 0.34761 0.0
C705 C 0.1617 0.2167 0.37849 0.0
C706 C 0.12887 0.26577 0.40201 0.0
C707 C 0.14877 0.28483 0.36439 0.0
N708 N 0.19488 0.28868 0.29874 0.0
N709 N 0.11029 0.2115 0.43081 0.0
C710 C 0.17669 0.27045 0.33687 0.0
C711 C 0.13332 0.23105 0.40442 0.0
N712 N 0.21361 0.22321 0.32881 0.0
N713 N 0.10675 0.28116 0.43762 0.0
H714 H 0.11301 0.18606 0.43519 0.0
H715 H 0.0873 0.22012 0.44438 0.0
H716 H 0.10432 0.30679 0.43929 0.0
H717 H 0.0937 0.26903 0.47002 0.0
H718 H 0.23286 0.2371 0.31145 0.0
H719 H 0.21951 0.1983 0.33429 0.0
H720 H 0.21304 0.27867 0.27213 0.0
H721 H 0.19054 0.31368 0.29114 0.0
C722 C 0.99647 0.86806 0.58948 0.0
C723 C 0.9748 0.88163 0.63135 0.0
C724 C 0.02239 0.90263 0.68542 0.0
C725 C 0.04381 0.88458 0.64863 0.0
N726 N 0.0511 0.84653 0.56935 0.0
N727 N 0.967 0.90845 0.7235 0.0
C728 C 0.03091 0.86656 0.60122 0.0
C729 C 0.98765 0.89836 0.68026 0.0
N730 N 0.9842 0.85725 0.53793 0.0
N731 N 0.03528 0.9243 0.72464 0.0
H732 H 0.94143 0.90531 0.72226 0.0
H733 H 0.97544 0.91733 0.76296 0.0
H734 H 0.06064 0.92836 0.72897 0.0
H735 H 0.02085 0.94059 0.74867 0.0
H736 H 0.99917 0.85014 0.50355 0.0
H737 H 0.95915 0.85859 0.52741 0.0
H738 H 0.04228 0.8299 0.53873 0.0
H739 H 0.07644 0.84436 0.57667 0.0
C740 C 0.33466 0.78236 0.81225 0.0
C741 C 0.33539 0.79446 0.86959 0.0
C742 C 0.3444 0.73825 0.90622 0.0
C743 C 0.34682 0.72664 0.84856 0.0
N744 N 0.34633 0.7372 0.74632 0.0
N745 N 0.34442 0.78526 0.97107 0.0
C746 C 0.3425 0.74859 0.80142 0.0
C747 C 0.34077 0.77271 0.91667 0.0
N748 N 0.32553 0.80306 0.76845 0.0
N749 N 0.346 0.71639 0.95112 0.0
H750 H 0.34166 0.81026 0.9808 0.0
H751 H 0.35252 0.77147 0.00617 0.0
H752 H 0.35136 0.69136 0.94603 0.0
H753 H 0.34008 0.72256 0.99343 0.0
H754 H 0.32122 0.79527 0.72639 0.0
H755 H 0.3196 0.82787 0.77513 0.0
H756 H 0.34742 0.75247 0.71029 0.0
H757 H 0.3502 0.71233 0.7366 0.0
C758 C 0.48605 0.08314 0.10773 0.0
C759 C 0.46987 0.10064 0.15263 0.0
C760 C 0.52236 0.12621 0.1807 0.0
C761 C 0.53779 0.11167 0.13203 0.0
N762 N 0.53421 0.0787 0.04566 0.0
N763 N 0.47116 0.14282 0.22624 0.0
C764 C 0.51968 0.09056 0.09469 0.0
C765 C 0.48764 0.12318 0.18778 0.0
N766 N 0.46945 0.05893 0.07855 0.0
N767 N 0.5411 0.14205 0.22126 0.0
H768 H 0.44568 0.14158 0.23266 0.0
H769 H 0.48224 0.16238 0.2481 0.0
H770 H 0.56673 0.14431 0.21809 0.0
H771 H 0.53175 0.15006 0.26069 0.0
H772 H 0.48073 0.04285 0.04954 0.0
H773 H 0.44473 0.05317 0.0867 0.0
H774 H 0.52135 0.06632 0.01336 0.0
H775 H 0.55889 0.08318 0.03522 0.0
C776 C 0.1551 0.73355 0.09728 0.0
C777 C 0.13839 0.7211 0.14667 0.0
C778 C 0.12638 0.77788 0.1774 0.0
C779 C 0.14516 0.79023 0.13029 0.0
N780 N 0.18616 0.77915 0.05717 0.0
N781 N 0.11775 0.73198 0.2425 0.0
C782 C 0.16243 0.76781 0.09413 0.0
C783 C 0.12713 0.74346 0.1896 0.0
N784 N 0.16199 0.71349 0.0514 0.0
N785 N 0.1061 0.79826 0.20836 0.0
H786 H 0.11944 0.7071 0.25398 0.0
H787 H 0.11206 0.7476 0.27684 0.0
H788 H 0.10327 0.82336 0.19975 0.0
H789 H 0.08945 0.78947 0.23904 0.0
H790 H 0.17121 0.72249 0.01249 0.0
H791 H 0.15519 0.6887 0.04929 0.0
H792 H 0.20144 0.76343 0.03351 0.0
H793 H 0.19311 0.80397 0.05534 0.0
C794 C 0.52377 0.90541 0.34713 0.0
C795 C 0.53751 0.89427 0.39994 0.0
C796 C 0.48192 0.88275 0.4372 0.0
C797 C 0.4682 0.8943 0.38448 0.0
N798 N 0.4754 0.92709 0.29882 0.0
N799 N 0.52962 0.88167 0.50045 0.0
C800 C 0.48898 0.90901 0.3425 0.0
C801 C 0.51651 0.88592 0.44668 0.0
N802 N 0.54352 0.9106 0.30017 0.0
N803 N 0.46252 0.86715 0.47702 0.0
H804 H 0.55477 0.88455 0.50897 0.0
H805 H 0.51527 0.87879 0.5374 0.0
H806 H 0.43699 0.865 0.47341 0.0
H807 H 0.47208 0.8544 0.51226 0.0
H808 H 0.53416 0.91511 0.25909 0.0
H809 H 0.56909 0.90749 0.30072 0.0
H810 H 0.48942 0.94078 0.26966 0.0
H811 H 0.45006 0.93157 0.29623 0.0
C812 C 0.34396 0.23205 0.59896 0.0
C813 C 0.33776 0.21101 0.64676 0.0
C814 C 0.34092 0.25845 0.71248 0.0
C815 C 0.34599 0.27961 0.66446 0.0
N816 N 0.34743 0.28786 0.56144 0.0
N817 N 0.32464 0.20412 0.74718 0.0
C818 C 0.3457 0.26681 0.6075 0.0
C819 C 0.33457 0.22423 0.70307 0.0
N820 N 0.35024 0.21867 0.54593 0.0
N821 N 0.34278 0.27102 0.76707 0.0
H822 H 0.31982 0.17898 0.7415 0.0
H823 H 0.31858 0.21263 0.78817 0.0
H824 H 0.34579 0.29616 0.77545 0.0
H825 H 0.34315 0.25649 0.80407 0.0
H826 H 0.35906 0.23218 0.51099 0.0
H827 H 0.34912 0.19341 0.53763 0.0
H828 H 0.34317 0.28052 0.51909 0.0
H829 H 0.35091 0.31328 0.56549 0.0
C830 C 0.02797 0.12934 0.85946 0.0
C831 C 0.04516 0.09986 0.87422 0.0
C832 C 0.99335 0.07519 0.90953 0.0
C833 C 0.97601 0.1039 0.89163 0.0
N834 N 0.97521 0.15579 0.84066 0.0
N835 N 0.04437 0.0435 0.9082 0.0
C836 C 0.99292 0.13038 0.86447 0.0
C837 C 0.02783 0.07235 0.89754 0.0
N838 N 0.04505 0.1564 0.84034 0.0
N839 N 0.97708 0.05128 0.94011 0.0
H840 H 0.06994 0.04117 0.90404 0.0
H841 H 0.0327 0.02133 0.91837 0.0
H842 H 0.95181 0.05235 0.94891 0.0
H843 H 0.98881 0.0315 0.96018 0.0
H844 H 0.03463 0.17983 0.83653 0.0
H845 H 0.07027 0.15621 0.83133 0.0
H846 H 0.98553 0.17395 0.81448 0.0
H847 H 0.94948 0.15727 0.84265 0.0
C848 C 0.83738 0.73851 0.68756 0.0
C849 C 0.85865 0.722 0.64826 0.0
C850 C 0.86817 0.7737 0.59612 0.0
C851 C 0.84564 0.78999 0.63353 0.0
N852 N 0.80506 0.78769 0.70932 0.0
N853 N 0.88806 0.72171 0.55782 0.0
C854 C 0.82902 0.77228 0.67759 0.0
C855 C 0.87226 0.73899 0.60041 0.0
N856 N 0.82625 0.72226 0.73544 0.0
N857 N 0.88645 0.79155 0.55751 0.0
H858 H 0.89116 0.69611 0.5589 0.0
H859 H 0.89526 0.73218 0.5188 0.0
H860 H 0.88398 0.81699 0.55233 0.0
H861 H 0.90605 0.78166 0.53403 0.0
H862 H 0.81355 0.73374 0.76895 0.0
H863 H 0.83166 0.69749 0.74364 0.0
H864 H 0.78963 0.77544 0.73819 0.0
H865 H 0.79897 0.81256 0.70371 0.0
C866 C 0.98341 0.12776 0.38884 0.0
C867 C 0.9716 0.09626 0.37162 0.0
C868 C 0.02733 0.07322 0.38352 0.0
C869 C 0.03976 0.1056 0.39327 0.0
N870 N 0.03037 0.1646 0.39218 0.0
N871 N 0.98238 0.03932 0.34738 0.0
C872 C 0.01799 0.13314 0.39278 0.0
C873 C 0.99363 0.06907 0.36728 0.0
N874 N 0.96171 0.15267 0.40132 0.0
N875 N 0.04724 0.04637 0.39223 0.0
H876 H 0.95749 0.03482 0.33843 0.0
H877 H 0.99793 0.01974 0.33664 0.0
H878 H 0.07178 0.04833 0.40551 0.0
H879 H 0.03867 0.02211 0.39149 0.0
H880 H 0.96896 0.17501 0.41972 0.0
H881 H 0.93617 0.14993 0.39884 0.0
H882 H 0.01575 0.18549 0.38583 0.0
H883 H 0.05561 0.16977 0.39134 0.0
C884 C 0.66995 0.27183 0.14697 0.0
C885 C 0.64739 0.2838 0.10487 0.0
C886 C 0.64332 0.22851 0.06216 0.0
C887 C 0.66522 0.21635 0.10505 0.0
N888 N 0.70456 0.22664 0.18075 0.0
N889 N 0.61891 0.27613 0.01477 0.0
C890 C 0.68034 0.23817 0.1449 0.0
C891 C 0.63587 0.26284 0.06022 0.0
N892 N 0.68013 0.29217 0.19056 0.0
N893 N 0.62946 0.2071 0.02347 0.0
H894 H 0.6137 0.30132 0.01141 0.0
H895 H 0.61246 0.26299 0.97791 0.0
H896 H 0.63676 0.18247 0.01981 0.0
H897 H 0.60993 0.21324 0.99633 0.0
H898 H 0.69314 0.28411 0.22658 0.0
H899 H 0.6741 0.31716 0.19246 0.0
H900 H 0.71912 0.24178 0.20665 0.0
H901 H 0.71187 0.20192 0.18168 0.0
C902 C 0.52573 0.88435 0.92309 0.0
C903 C 0.53876 0.89888 0.87215 0.0
C904 C 0.4825 0.90828 0.83601 0.0
C905 C 0.46955 0.89408 0.88718 0.0
N906 N 0.47816 0.87745 0.98564 0.0
N907 N 0.52982 0.93308 0.78859 0.0
C908 C 0.49101 0.88497 0.93276 0.0
C909 C 0.51716 0.91357 0.83132 0.0
N910 N 0.54612 0.86816 0.9606 0.0
N911 N 0.46205 0.91499 0.7906 0.0
H912 H 0.55506 0.93806 0.78483 0.0
H913 H 0.51519 0.94701 0.76078 0.0
H914 H 0.43654 0.91143 0.79201 0.0
H915 H 0.47065 0.92167 0.74992 0.0
H916 H 0.53746 0.85364 0.99446 0.0
H917 H 0.57166 0.86712 0.95563 0.0
H918 H 0.49265 0.8738 0.02219 0.0
H919 H 0.45285 0.87822 0.99429 0.0
C920 C 0.85175 0.2546 0.82057 0.0
C921 C 0.86617 0.2743 0.86445 0.0
C922 C 0.87275 0.22553 0.92586 0.0
C923 C 0.85605 0.20621 0.88385 0.0
N924 N 0.82545 0.20267 0.79498 0.0
N925 N 0.88561 0.28023 0.96209 0.0
C926 C 0.84445 0.22081 0.83207 0.0
C927 C 0.87516 0.26027 0.91815 0.0
N928 N 0.84551 0.26812 0.76768 0.0
N929 N 0.88785 0.21049 0.97163 0.0
H930 H 0.88844 0.30573 0.95768 0.0
H931 H 0.88891 0.27199 0.0042 0.0
H932 H 0.88727 0.18503 0.97849 0.0
H933 H 0.90352 0.22279 3e-05 0.0
H934 H 0.83854 0.25434 0.73181 0.0
H935 H 0.84935 0.29308 0.75855 0.0
H936 H 0.81332 0.21268 0.7595 0.0
H937 H 0.81958 0.1779 0.80219 0.0
C938 C 0.53238 0.13987 0.59254 0.0
C939 C 0.54706 0.11696 0.63108 0.0
C940 C 0.49231 0.10009 0.6653 0.0
C941 C 0.47752 0.12215 0.6252 0.0
N942 N 0.48311 0.15636 0.54063 0.0
N943 N 0.54141 0.06948 0.6927 0.0
C944 C 0.49748 0.13997 0.58563 0.0
C945 C 0.52708 0.09515 0.66372 0.0
N946 N 0.55153 0.16268 0.5648 0.0
N947 N 0.47359 0.08544 0.70722 0.0
H948 H 0.56678 0.0649 0.6911 0.0
H949 H 0.52793 0.05089 0.71301 0.0
H950 H 0.44818 0.08899 0.71123 0.0
H951 H 0.48371 0.07211 0.7413 0.0
H952 H 0.54182 0.18252 0.54172 0.0
H953 H 0.57719 0.16327 0.56842 0.0
H954 H 0.49659 0.1671 0.50727 0.0
H955 H 0.45764 0.15636 0.53351 0.0
C956 C 0.65844 0.74745 0.33155 0.0
C957 C 0.63983 0.72973 0.37325 0.0
C958 C 0.63497 0.77959 0.43256 0.0
C959 C 0.65498 0.79701 0.39235 0.0
N960 N 0.69011 0.79677 0.30853 0.0
N961 N 0.61635 0.72657 0.4686 0.0
C962 C 0.66792 0.78073 0.34311 0.0
C963 C 0.62982 0.74514 0.42526 0.0
N964 N 0.66621 0.73277 0.28026 0.0
N965 N 0.61962 0.79619 0.47642 0.0
H966 H 0.61227 0.70119 0.46505 0.0
H967 H 0.61206 0.7356 0.50996 0.0
H968 H 0.62276 0.82136 0.48397 0.0
H969 H 0.60152 0.78567 0.50256 0.0
H970 H 0.67633 0.74536 0.24535 0.0
H971 H 0.6606 0.70819 0.27113 0.0
H972 H 0.70319 0.78532 0.27544 0.0
H973 H 0.6975 0.82113 0.3158 0.0
C974 C 0.9859 0.90779 0.17664 0.0
C975 C 0.96619 0.91285 0.12677 0.0
C976 C 0.01421 0.90248 0.06469 0.0
C977 C 0.03412 0.89827 0.11454 0.0
N978 N 0.04071 0.90191 0.21773 0.0
N979 N 0.96209 0.92141 0.02441 0.0
C980 C 0.02054 0.90276 0.17044 0.0
C981 C 0.98053 0.91205 0.07103 0.0
N982 N 0.97122 0.90572 0.22968 0.0
N983 N 0.02743 0.89688 0.01133 0.0
H984 H 0.93744 0.92879 0.02782 0.0
H985 H 0.97177 0.92462 0.98323 0.0
H986 H 0.0524 0.89171 0.00482 0.0
H987 H 0.01347 0.89559 0.97374 0.0
H988 H 0.98346 0.89791 0.2667 0.0
H989 H 0.94602 0.90948 0.23642 0.0
H990 H 0.03314 0.90904 0.25877 0.0
H991 H 0.06581 0.89617 0.21562 0.0
C992 C 0.66576 0.77421 0.92215 0.0
C993 C 0.6447 0.79197 0.8842 0.0
C994 C 0.6242 0.7398 0.84324 0.0
C995 C 0.64359 0.72219 0.88399 0.0
N996 N 0.68957 0.72129 0.94938 0.0
N997 N 0.60897 0.7925 0.80081 0.0
C998 C 0.66649 0.73909 0.91954 0.0
C999 C 0.6258 0.775 0.84182 0.0
N1000 N 0.68477 0.791 0.96115 0.0
N1001 N 0.60286 0.723 0.80818 0.0
H1002 H 0.60732 0.81816 0.80067 0.0
H1003 H 0.5981 0.78185 0.76467 0.0
H1004 H 0.60282 0.69737 0.80454 0.0
H1005 H 0.58446 0.73419 0.78369 0.0
H1006 H 0.69745 0.77975 0.99485 0.0
H1007 H 0.68705 0.81668 0.96113 0.0
H1008 H 0.70884 0.73176 0.97279 0.0
H1009 H 0.69135 0.69563 0.94605 0.0
C1010 C 0.47663 0.42104 0.08305 0.0
C1011 C 0.46148 0.39175 0.06213 0.0
C1012 C 0.51598 0.36549 0.05405 0.0
C1013 C 0.53013 0.39257 0.08392 0.0
N1014 N 0.52446 0.44611 0.12846 0.0
N1015 N 0.4662 0.33443 0.03366 0.0
C1016 C 0.51061 0.42045 0.09866 0.0
C1017 C 0.48102 0.36363 0.04833 0.0
N1018 N 0.45871 0.44965 0.08634 0.0
N1019 N 0.53589 0.34145 0.03149 0.0
H1020 H 0.44068 0.33158 0.02999 0.0
H1021 H 0.47898 0.31218 0.03001 0.0
H1022 H 0.56156 0.34202 0.03506 0.0
H1023 H 0.52727 0.32279 0.00448 0.0
H1024 H 0.46904 0.47255 0.09606 0.0
H1025 H 0.43398 0.45111 0.07381 0.0
H1026 H 0.51073 0.46517 0.14686 0.0
H1027 H 0.54971 0.44749 0.13738 0.0
C1028 C 0.86484 0.21746 0.40567 0.0
C1029 C 0.868 0.20543 0.34843 0.0
C1030 C 0.86946 0.26241 0.31227 0.0
C1031 C 0.86416 0.27425 0.36919 0.0
N1032 N 0.84663 0.26248 0.46645 0.0
N1033 N 0.86457 0.21618 0.24635 0.0
C1034 C 0.85856 0.25155 0.41473 0.0
C1035 C 0.86757 0.22785 0.30138 0.0
N1036 N 0.86995 0.197 0.45171 0.0
N1037 N 0.87815 0.28371 0.26916 0.0
H1038 H 0.86225 0.19108 0.23686 0.0
H1039 H 0.86092 0.23153 0.21086 0.0
H1040 H 0.88035 0.30913 0.27504 0.0
H1041 H 0.88596 0.27581 0.22865 0.0
H1042 H 0.87128 0.20557 0.494 0.0
H1043 H 0.87641 0.17218 0.44769 0.0
H1044 H 0.83925 0.24654 0.49931 0.0
H1045 H 0.84055 0.28718 0.47401 0.0
C1046 C 0.98118 0.61092 0.66532 0.0
C1047 C 0.96305 0.59041 0.62702 0.0
C1048 C 0.01435 0.57593 0.57642 0.0
C1049 C 0.0316 0.59956 0.61006 0.0
N1050 N 0.03149 0.64194 0.68308 0.0
N1051 N 0.96132 0.55605 0.5421 0.0
C1052 C 0.01506 0.61765 0.65376 0.0
C1053 C 0.97937 0.57338 0.5817 0.0
N1054 N 0.96631 0.62298 0.71393 0.0
N1055 N 0.03155 0.5555 0.54028 0.0
H1056 H 0.93568 0.55364 0.54441 0.0
H1057 H 0.97134 0.54623 0.50446 0.0
H1058 H 0.05719 0.55664 0.53582 0.0
H1059 H 0.02093 0.53556 0.5188 0.0
H1060 H 0.97903 0.63526 0.74652 0.0
H1061 H 0.94172 0.61802 0.72448 0.0
H1062 H 0.01982 0.6587 0.71042 0.0
H1063 H 0.05658 0.64685 0.67714 0.0
C1064 C 0.62794 0.23845 0.6333 0.0
C1065 C 0.64941 0.22222 0.59374 0.0
C1066 C 0.66758 0.27588 0.55584 0.0
C1067 C 0.64306 0.29169 0.58969 0.0
N1068 N 0.60111 0.28934 0.66335 0.0
N1069 N 0.69056 0.2247 0.51863 0.0
C1070 C 0.62408 0.27343 0.63015 0.0
C1071 C 0.66964 0.24077 0.55557 0.0
N1072 N 0.61076 0.22037 0.67316 0.0
N1073 N 0.68959 0.29478 0.52554 0.0
H1074 H 0.69479 0.19928 0.52043 0.0
H1075 H 0.70291 0.23617 0.48475 0.0
H1076 H 0.68931 0.32056 0.52701 0.0
H1077 H 0.70988 0.28537 0.50341 0.0
H1078 H 0.59803 0.23061 0.70778 0.0
H1079 H 0.61021 0.19466 0.67358 0.0
H1080 H 0.58301 0.27747 0.68754 0.0
H1081 H 0.59949 0.31497 0.66593 0.0
C1082 C 0.01844 0.4136 0.84031 0.0
C1083 C 0.0331 0.39081 0.87921 0.0
C1084 C 0.97823 0.37119 0.90826 0.0
C1085 C 0.96353 0.39435 0.87001 0.0
N1086 N 0.96908 0.44387 0.81327 0.0
N1087 N 0.02705 0.35557 0.96227 0.0
C1088 C 0.98354 0.41767 0.84058 0.0
C1089 C 0.01297 0.3721 0.91716 0.0
N1090 N 0.03741 0.42976 0.8005 0.0
N1091 N 0.95959 0.3469 0.93322 0.0
H1092 H 0.05238 0.35634 0.9707 0.0
H1093 H 0.01331 0.34413 0.99459 0.0
H1094 H 0.93411 0.34494 0.92803 0.0
H1095 H 0.96982 0.32705 0.95557 0.0
H1096 H 0.02745 0.44367 0.76696 0.0
H1097 H 0.06299 0.42715 0.79772 0.0
H1098 H 0.98249 0.46339 0.79561 0.0
H1099 H 0.94356 0.4478 0.81371 0.0
C1100 C 0.84942 0.76846 0.07971 0.0
C1101 C 0.86547 0.78085 0.12963 0.0
C1102 C 0.87567 0.72428 0.16293 0.0
C1103 C 0.85816 0.71193 0.11442 0.0
N1104 N 0.82096 0.72229 0.03536 0.0
N1105 N 0.88566 0.77102 0.22584 0.0
C1106 C 0.84257 0.7341 0.07567 0.0
C1107 C 0.87594 0.75886 0.17357 0.0
N1108 N 0.84265 0.78899 0.03445 0.0
N1109 N 0.89388 0.70345 0.19676 0.0
H1110 H 0.88553 0.79622 0.23545 0.0
H1111 H 0.89049 0.756 0.26133 0.0
H1112 H 0.89525 0.67803 0.19002 0.0
H1113 H 0.91007 0.7118 0.22849 0.0
H1114 H 0.83412 0.78056 0.99474 0.0
H1115 H 0.84853 0.81406 0.03447 0.0
H1116 H 0.80646 0.73758 0.00954 0.0
H1117 H 0.815 0.69726 0.03196 0.0
C1118 C 0.52083 0.6332 0.42198 0.0
C1119 C 0.53655 0.60829 0.38879 0.0
C1120 C 0.4854 0.57552 0.38972 0.0
C1121 C 0.46868 0.60237 0.41624 0.0
N1122 N 0.4691 0.65917 0.44847 0.0
N1123 N 0.534 0.55628 0.33822 0.0
C1124 C 0.48606 0.63177 0.43047 0.0
C1125 C 0.51886 0.57956 0.37184 0.0
N1126 N 0.53903 0.65833 0.44527 0.0
N1127 N 0.46963 0.54584 0.38345 0.0
H1128 H 0.55907 0.55723 0.32768 0.0
H1129 H 0.52145 0.53689 0.31842 0.0
H1130 H 0.44528 0.54195 0.39669 0.0
H1131 H 0.48138 0.52432 0.3698 0.0
H1132 H 0.52946 0.67523 0.47477 0.0
H1133 H 0.56447 0.66052 0.43952 0.0
H1134 H 0.47996 0.68237 0.45302 0.0
H1135 H 0.44349 0.65972 0.45343 0.0
C1136 C 0.38411 0.27368 0.12321 0.0
C1137 C 0.35378 0.28657 0.10208 0.0
C1138 C 0.33288 0.23035 0.08641 0.0
C1139 C 0.36277 0.21757 0.10948 0.0
N1140 N 0.41359 0.22636 0.16151 0.0
N1141 N 0.29727 0.27813 0.07298 0.0
C1142 C 0.38742 0.23905 0.13144 0.0
C1143 C 0.3275 0.26514 0.08655 0.0
N1144 N 0.41035 0.29432 0.13269 0.0
N1145 N 0.31032 0.20934 0.06222 0.0
H1146 H 0.29266 0.30351 0.07261 0.0
H1147 H 0.27612 0.26391 0.06674 0.0
H1148 H 0.31318 0.18372 0.06221 0.0
H1149 H 0.28985 0.21725 0.0388 0.0
H1150 H 0.43421 0.28594 0.14108 0.0
H1151 H 0.40902 0.31991 0.12778 0.0
H1152 H 0.4305 0.24091 0.18389 0.0
H1153 H 0.41675 0.20108 0.16864 0.0
C1154 C 0.47501 0.59764 0.82137 0.0
C1155 C 0.45244 0.61738 0.85316 0.0
C1156 C 0.49872 0.64063 0.908 0.0
C1157 C 0.52127 0.62536 0.86951 0.0
N1158 N 0.53061 0.59239 0.78402 0.0
N1159 N 0.44341 0.66168 0.92175 0.0
C1160 C 0.50943 0.60438 0.82496 0.0
C1161 C 0.46435 0.63976 0.8956 0.0
N1162 N 0.46358 0.57198 0.78862 0.0
N1163 N 0.51004 0.65533 0.95723 0.0
H1164 H 0.41813 0.66274 0.9136 0.0
H1165 H 0.45167 0.68097 0.94778 0.0
H1166 H 0.53499 0.65568 0.96859 0.0
H1167 H 0.49441 0.66395 0.98964 0.0
H1168 H 0.4791 0.55478 0.76896 0.0
H1169 H 0.43857 0.5658 0.78619 0.0
H1170 H 0.52262 0.58001 0.74721 0.0
H1171 H 0.55589 0.59737 0.78372 0.0
C1172 C 0.12516 0.72709 0.62455 0.0
C1173 C 0.15549 0.71057 0.61282 0.0
C1174 C 0.18449 0.76381 0.60951 0.0
C1175 C 0.15442 0.7801 0.62309 0.0
N1176 N 0.0978 0.77749 0.65525 0.0
N1177 N 0.21498 0.71215 0.607 0.0
C1178 C 0.12535 0.76174 0.63485 0.0
C1179 C 0.18549 0.72866 0.60912 0.0
N1180 N 0.09588 0.71022 0.6218 0.0
N1181 N 0.21193 0.78198 0.59591 0.0
H1182 H 0.21659 0.68641 0.60803 0.0
H1183 H 0.2379 0.72378 0.60967 0.0
H1184 H 0.21254 0.80772 0.59856 0.0
H1185 H 0.23345 0.77177 0.57887 0.0
H1186 H 0.07283 0.72164 0.62333 0.0
H1187 H 0.0943 0.68504 0.61287 0.0
H1188 H 0.07705 0.76504 0.67064 0.0
H1189 H 0.09663 0.803 0.66136 0.0
C1190 C 0.01378 0.41217 0.31085 0.0
C1191 C 0.03414 0.3905 0.34328 0.0
C1192 C 0.98486 0.36653 0.38894 0.0
C1193 C 0.96459 0.38467 0.35028 0.0
N1194 N 0.95902 0.42512 0.27454 0.0
N1195 N 0.03934 0.34499 0.41002 0.0
C1196 C 0.97887 0.40765 0.31128 0.0
C1197 C 0.01981 0.36747 0.3822 0.0
N1198 N 0.02786 0.43787 0.28143 0.0
N1199 N 0.97082 0.34819 0.43194 0.0
H1200 H 0.06499 0.345 0.40719 0.0
H1201 H 0.03013 0.32476 0.43264 0.0
H1202 H 0.9454 0.34553 0.437 0.0
H1203 H 0.98427 0.33773 0.46556 0.0
H1204 H 0.0144 0.45646 0.26118 0.0
H1205 H 0.05324 0.44243 0.28183 0.0
H1206 H 0.96794 0.43896 0.24008 0.0
H1207 H 0.93326 0.42472 0.27694 0.0
C1208 C 0.34172 0.72878 0.44153 0.0
C1209 C 0.36204 0.70719 0.40885 0.0
C1210 C 0.38726 0.75472 0.3604 0.0
C1211 C 0.37036 0.77621 0.39866 0.0
N1212 N 0.33434 0.78387 0.48055 0.0
N1213 N 0.40789 0.69945 0.34331 0.0
C1214 C 0.34805 0.76336 0.44026 0.0
C1215 C 0.38565 0.72005 0.36949 0.0
N1216 N 0.3161 0.7162 0.47313 0.0
N1217 N 0.40432 0.76743 0.3146 0.0
H1218 H 0.40805 0.67391 0.3492 0.0
H1219 H 0.42806 0.70797 0.31967 0.0
H1220 H 0.40572 0.79273 0.30617 0.0
H1221 H 0.41428 0.75283 0.28193 0.0
H1222 H 0.29838 0.73086 0.49334 0.0
H1223 H 0.31079 0.69097 0.47477 0.0
H1224 H 0.3207 0.77545 0.51568 0.0
H1225 H 0.3389 0.80922 0.48176 0.0
C1226 C 0.98169 0.57772 0.09765 0.0
C1227 C 0.9667 0.6075 0.07879 0.0
C1228 C 0.02027 0.63567 0.08344 0.0
C1229 C 0.03397 0.60743 0.1108 0.0
N1230 N 0.02804 0.55159 0.14575 0.0
N1231 N 0.97049 0.66599 0.0594 0.0
C1232 C 0.01476 0.5784 0.11835 0.0
C1233 C 0.98571 0.63674 0.07248 0.0
N1234 N 0.96462 0.54864 0.09373 0.0
N1235 N 0.04016 0.66151 0.06802 0.0
H1236 H 0.9452 0.66797 0.05135 0.0
H1237 H 0.98236 0.68881 0.06113 0.0
H1238 H 0.06551 0.66192 0.07582 0.0
H1239 H 0.03215 0.68119 0.04269 0.0
H1240 H 0.97506 0.52558 0.10181 0.0
H1241 H 0.94078 0.54727 0.07674 0.0
H1242 H 0.01417 0.53127 0.15895 0.0
H1243 H 0.05283 0.55032 0.15799 0.0
C1244 C 0.15071 0.24436 0.83309 0.0
C1245 C 0.15777 0.22668 0.88455 0.0
C1246 C 0.17411 0.27828 0.93193 0.0
C1247 C 0.16943 0.29563 0.87932 0.0
N1248 N 0.16039 0.29389 0.7767 0.0
N1249 N 0.1848 0.2255 0.97722 0.0
C1250 C 0.15994 0.27823 0.82887 0.0
C1251 C 0.17215 0.24324 0.93222 0.0
N1252 N 0.13365 0.22943 0.78941 0.0
N1253 N 0.17834 0.29514 0.98246 0.0
H1254 H 0.18472 0.19971 0.97829 0.0
H1255 H 0.19852 0.23622 0.01031 0.0
H1256 H 0.17832 0.32083 0.98512 0.0
H1257 H 0.17837 0.28364 0.02263 0.0
H1258 H 0.12479 0.24215 0.75358 0.0
H1259 H 0.12562 0.20498 0.79122 0.0
H1260 H 0.15691 0.28164 0.73769 0.0
H1261 H 0.16751 0.31854 0.77197 0.0
C1262 C 0.4596 0.36909 0.59802 0.0
C1263 C 0.44939 0.39097 0.6426 0.0
C1264 C 0.50733 0.4051 0.66168 0.0
C1265 C 0.51727 0.38517 0.61427 0.0
N1266 N 0.50177 0.35604 0.52763 0.0
N1267 N 0.46297 0.43639 0.70574 0.0
C1268 C 0.49304 0.36963 0.57937 0.0
C1269 C 0.47311 0.41108 0.67093 0.0
N1270 N 0.43816 0.34631 0.57573 0.0
N1271 N 0.53019 0.41675 0.70002 0.0
H1272 H 0.4381 0.44219 0.7121 0.0
H1273 H 0.4792 0.45375 0.72309 0.0
H1274 H 0.55544 0.41196 0.69672 0.0
H1275 H 0.52373 0.42841 0.73845 0.0
H1276 H 0.44562 0.32757 0.54778 0.0
H1277 H 0.41375 0.34379 0.58928 0.0
H1278 H 0.48451 0.34721 0.49805 0.0
H1279 H 0.52584 0.35695 0.51151 0.0
C1280 C 0.15039 0.06859 0.60129 0.0
C1281 C 0.14878 0.09584 0.56279 0.0
C1282 C 0.15336 0.13359 0.64483 0.0
C1283 C 0.14803 0.10688 0.68302 0.0
N1284 N 0.13888 0.04842 0.69748 0.0
N1285 N 0.14216 0.15518 0.5505 0.0
C1286 C 0.1462 0.07409 0.66143 0.0
C1287 C 0.14888 0.12866 0.58504 0.0
N1288 N 0.15668 0.0376 0.58062 0.0
N1289 N 0.16305 0.1637 0.66559 0.0
H1290 H 0.13616 0.1532 0.50717 0.0
H1291 H 0.13871 0.17901 0.56654 0.0
H1292 H 0.1677 0.16793 0.70921 0.0
H1293 H 0.17015 0.18316 0.63887 0.0
H1294 H 0.16107 0.01734 0.60725 0.0
H1295 H 0.16102 0.03288 0.53707 0.0
H1296 H 0.13354 0.02468 0.68278 0.0
H1297 H 0.13561 0.05127 0.74171 0.0
C1298 C 0.15359 0.8854 0.85864 0.0
C1299 C 0.17454 0.90735 0.82806 0.0
C1300 C 0.185 0.93854 0.9169 0.0
C1301 C 0.16141 0.91848 0.94578 0.0
N1302 N 0.11834 0.87718 0.94144 0.0
N1303 N 0.20826 0.9564 0.82536 0.0
C1304 C 0.14438 0.89307 0.91593 0.0
C1305 C 0.18986 0.93437 0.85645 0.0
N1306 N 0.14331 0.85657 0.83352 0.0
N1307 N 0.20335 0.96079 0.94759 0.0
H1308 H 0.21283 0.95348 0.78138 0.0
H1309 H 0.21727 0.97851 0.84207 0.0
H1310 H 0.20015 0.96449 0.99173 0.0
H1311 H 0.22321 0.97388 0.93044 0.0
H1312 H 0.13099 0.83797 0.85595 0.0
H1313 H 0.14993 0.84964 0.79178 0.0
H1314 H 0.10267 0.86113 0.9194 0.0
H1315 H 0.11029 0.88238 0.98313 0.0
C1316 C 0.32692 0.87333 0.10069 0.0
C1317 C 0.35395 0.88966 0.07429 0.0
C1318 C 0.37663 0.9044 0.1686 0.0
C1319 C 0.35047 0.88659 0.19525 0.0
N1320 N 0.29627 0.86237 0.18873 0.0
N1321 N 0.39911 0.92816 0.08081 0.0
C1322 C 0.32411 0.87373 0.16177 0.0
C1323 C 0.37699 0.90774 0.10766 0.0
N1324 N 0.30483 0.8563 0.06748 0.0
N1325 N 0.40216 0.91631 0.20103 0.0
H1326 H 0.39995 0.93093 0.03611 0.0
H1327 H 0.41451 0.94454 0.10262 0.0
H1328 H 0.40224 0.91563 0.2458 0.0
H1329 H 0.42408 0.92543 0.18367 0.0
H1330 H 0.28691 0.84049 0.08411 0.0
H1331 H 0.30539 0.85692 0.02257 0.0
H1332 H 0.27491 0.85523 0.16705 0.0
H1333 H 0.29348 0.863 0.23344 0.0
C1334 C 0.33475 0.13373 0.41841 0.0
C1335 C 0.35633 0.11198 0.44777 0.0
C1336 C 0.37045 0.08481 0.35668 0.0
C1337 C 0.35451 0.1109 0.32683 0.0
N1338 N 0.31852 0.15835 0.32732 0.0
N1339 N 0.39397 0.06583 0.44704 0.0
C1340 C 0.33537 0.1346 0.35722 0.0
C1341 C 0.37347 0.08675 0.41764 0.0
N1342 N 0.31358 0.15319 0.44932 0.0
N1343 N 0.38282 0.05846 0.32684 0.0
H1344 H 0.39577 0.06581 0.49188 0.0
H1345 H 0.41038 0.04961 0.42713 0.0
H1346 H 0.3806 0.05618 0.28233 0.0
H1347 H 0.39231 0.03734 0.34642 0.0
H1348 H 0.2954 0.16802 0.43095 0.0
H1349 H 0.31225 0.15208 0.49415 0.0
H1350 H 0.30734 0.17877 0.34644 0.0
H1351 H 0.3165 0.15805 0.28248 0.0
C1352 C 0.87301 0.92766 0.34054 0.0
C1353 C 0.86319 0.89728 0.31538 0.0
C1354 C 0.85417 0.87323 0.41081 0.0
C1355 C 0.86476 0.90339 0.43637 0.0
N1356 N 0.87469 0.96181 0.42653 0.0
N1357 N 0.83487 0.84526 0.32472 0.0
C1358 C 0.87106 0.93147 0.40139 0.0
C1359 C 0.85056 0.87144 0.35007 0.0
N1360 N 0.88578 0.9522 0.30675 0.0
N1361 N 0.84975 0.8456 0.44373 0.0
H1362 H 0.83165 0.84345 0.2802 0.0
H1363 H 0.82219 0.8272 0.34784 0.0
H1364 H 0.85162 0.84561 0.48832 0.0
H1365 H 0.84644 0.82205 0.42655 0.0
H1366 H 0.89718 0.97326 0.32319 0.0
H1367 H 0.88667 0.95063 0.26196 0.0
H1368 H 0.87641 0.98376 0.40329 0.0
H1369 H 0.87264 0.96534 0.47095 0.0
C1370 C 0.81733 0.06826 0.08869 0.0
C1371 C 0.84778 0.07381 0.05984 0.0
C1372 C 0.87248 0.09417 0.14904 0.0
C1373 C 0.84302 0.08616 0.1792 0.0
N1374 N 0.78955 0.0597 0.18014 0.0
N1375 N 0.90658 0.08345 0.06561 0.0
C1376 C 0.81601 0.07143 0.14974 0.0
C1377 C 0.87608 0.08404 0.09104 0.0
N1378 N 0.78938 0.06157 0.05775 0.0
N1379 N 0.89625 0.11324 0.17443 0.0
H1380 H 0.91036 0.07522 0.02351 0.0
H1381 H 0.92844 0.08766 0.08822 0.0
H1382 H 0.89382 0.12291 0.21578 0.0
H1383 H 0.91662 0.12254 0.1522 0.0
H1384 H 0.76582 0.06116 0.07592 0.0
H1385 H 0.78937 0.05887 0.01307 0.0
H1386 H 0.77077 0.04569 0.16155 0.0
H1387 H 0.78786 0.0614 0.2249 0.0
C1388 C 0.63504 0.08761 0.83602 0.0
C1389 C 0.66185 0.10619 0.81329 0.0
C1390 C 0.68103 0.11915 0.91068 0.0
C1391 C 0.65326 0.10205 0.93338 0.0
N1392 N 0.61064 0.06133 0.91991 0.0
N1393 N 0.71591 0.12948 0.82749 0.0
C1394 C 0.63256 0.08331 0.89661 0.0
C1395 C 0.68678 0.11847 0.85035 0.0
N1396 N 0.61079 0.07594 0.80047 0.0
N1397 N 0.70054 0.13791 0.94587 0.0
H1398 H 0.72074 0.12872 0.7833 0.0
H1399 H 0.73632 0.13603 0.85237 0.0
H1400 H 0.6975 0.13889 0.99033 0.0
H1401 H 0.71847 0.15418 0.93061 0.0
H1402 H 0.58847 0.06632 0.81536 0.0
H1403 H 0.61209 0.07729 0.7558 0.0
H1404 H 0.59691 0.04467 0.89547 0.0
H1405 H 0.60872 0.05749 0.96428 0.0
C1406 C 0.67856 0.94423 0.60028 0.0
C1407 C 0.65621 0.92337 0.5703 0.0
C1408 C 0.64451 0.89249 0.65883 0.0
C1409 C 0.66774 0.91258 0.68842 0.0
N1410 N 0.71021 0.95426 0.68774 0.0
N1411 N 0.62034 0.87567 0.56793 0.0
C1412 C 0.68578 0.93755 0.65925 0.0
C1413 C 0.63988 0.89692 0.59874 0.0
N1414 N 0.69245 0.97057 0.5724 0.0
N1415 N 0.62643 0.86952 0.68861 0.0
H1416 H 0.61469 0.87908 0.52454 0.0
H1417 H 0.61107 0.85355 0.58407 0.0
H1418 H 0.63072 0.86373 0.73173 0.0
H1419 H 0.60602 0.85719 0.67182 0.0
H1420 H 0.70649 0.98869 0.5927 0.0
H1421 H 0.68835 0.97541 0.52883 0.0
H1422 H 0.72656 0.97055 0.66796 0.0
H1423 H 0.71563 0.95014 0.73111 0.0
C1424 C 0.62033 0.58253 0.1011 0.0
C1425 C 0.63675 0.60527 0.06445 0.0
C1426 C 0.66526 0.62882 0.14803 0.0
C1427 C 0.64356 0.61117 0.18464 0.0
N1428 N 0.60081 0.57025 0.19754 0.0
N1429 N 0.6756 0.6503 0.05256 0.0
C1430 C 0.62167 0.58716 0.16177 0.0
C1431 C 0.66008 0.62799 0.08754 0.0
N1432 N 0.60369 0.5564 0.07757 0.0
N1433 N 0.69084 0.64634 0.17147 0.0
H1434 H 0.67359 0.65008 0.00792 0.0
H1435 H 0.68919 0.67029 0.06796 0.0
H1436 H 0.69522 0.64704 0.2158 0.0
H1437 H 0.70948 0.6573 0.1471 0.0
H1438 H 0.59356 0.53726 0.10182 0.0
H1439 H 0.60291 0.55223 0.03319 0.0
H1440 H 0.5814 0.55559 0.18289 0.0
H1441 H 0.60185 0.57213 0.24227 0.0
C1442 C 0.60989 0.42769 0.3704 0.0
C1443 C 0.62822 0.40661 0.40738 0.0
C1444 C 0.65896 0.38553 0.3241 0.0
C1445 C 0.63597 0.40117 0.28716 0.0
N1446 N 0.58951 0.4378 0.2738 0.0
N1447 N 0.67046 0.36471 0.41952 0.0
C1448 C 0.6118 0.42302 0.30977 0.0
C1449 C 0.65339 0.38583 0.38449 0.0
N1450 N 0.59099 0.45238 0.39352 0.0
N1451 N 0.68622 0.37049 0.30109 0.0
H1452 H 0.66804 0.36441 0.46409 0.0
H1453 H 0.68569 0.34592 0.40408 0.0
H1454 H 0.69098 0.37032 0.25687 0.0
H1455 H 0.70563 0.36128 0.32582 0.0
H1456 H 0.57934 0.47049 0.36894 0.0
H1457 H 0.58972 0.45668 0.43782 0.0
H1458 H 0.56874 0.45055 0.28831 0.0
H1459 H 0.59078 0.4359 0.22909 0.0
C1460 C 0.86413 0.3677 0.65553 0.0
C1461 C 0.83738 0.38397 0.68327 0.0
C1462 C 0.82239 0.41153 0.59283 0.0
C1463 C 0.84856 0.39453 0.56495 0.0
N1464 N 0.89127 0.35289 0.56602 0.0
N1465 N 0.78831 0.41761 0.6786 0.0
C1466 C 0.86858 0.3716 0.59528 0.0
C1467 C 0.81557 0.40471 0.65189 0.0
N1468 N 0.88561 0.34888 0.68711 0.0
N1469 N 0.80481 0.43486 0.56315 0.0
H1470 H 0.78322 0.41377 0.72216 0.0
H1471 H 0.76962 0.4303 0.65719 0.0
H1472 H 0.80884 0.43985 0.51959 0.0
H1473 H 0.78765 0.45067 0.58206 0.0
H1474 H 0.90804 0.34002 0.67143 0.0
H1475 H 0.88193 0.34341 0.73048 0.0
H1476 H 0.90379 0.3329 0.5839 0.0
H1477 H 0.89613 0.35579 0.52219 0.0
C1478 C 0.82135 0.59827 0.91553 0.0
C1479 C 0.84287 0.57384 0.93812 0.0
C1480 C 0.8661 0.56441 0.84222 0.0
C1481 C 0.84954 0.59321 0.82254 0.0
N1482 N 0.80884 0.63598 0.8372 0.0
N1483 N 0.86947 0.52209 0.91588 0.0
C1484 C 0.82596 0.6094 0.85801 0.0
C1485 C 0.86036 0.55316 0.89935 0.0
N1486 N 0.79542 0.60912 0.9482 0.0
N1487 N 0.88871 0.54896 0.80767 0.0
H1488 H 0.86169 0.51181 0.95478 0.0
H1489 H 0.88022 0.50494 0.88813 0.0
H1490 H 0.89331 0.5562 0.76529 0.0
H1491 H 0.90447 0.53039 0.82222 0.0
H1492 H 0.77731 0.62531 0.93344 0.0
H1493 H 0.78987 0.59859 0.98812 0.0
H1494 H 0.79443 0.65145 0.8628 0.0
H1495 H 0.81007 0.64341 0.7942 0.0
C1496 C 0.30621 0.39965 0.87044 0.0
C1497 C 0.33118 0.41172 0.8328 0.0
C1498 C 0.35012 0.44954 0.90815 0.0
C1499 C 0.33184 0.43099 0.9488 0.0
N1500 N 0.28097 0.40209 0.96574 0.0
N1501 N 0.37632 0.44967 0.81459 0.0
C1502 C 0.30607 0.41021 0.92896 0.0
C1503 C 0.35243 0.43776 0.8507 0.0
N1504 N 0.28342 0.37752 0.85035 0.0
N1505 N 0.36371 0.4791 0.92369 0.0
H1506 H 0.37897 0.44203 0.77199 0.0
H1507 H 0.39496 0.46564 0.82817 0.0
H1508 H 0.35894 0.48988 0.96367 0.0
H1509 H 0.37531 0.49492 0.89461 0.0
H1510 H 0.26672 0.36489 0.87636 0.0
H1511 H 0.28151 0.37136 0.80679 0.0
H1512 H 0.26037 0.38821 0.95424 0.0
H1513 H 0.27932 0.41233 0.00696 0.0
C1514 C 0.29469 0.60537 0.64623 0.0
C1515 C 0.32336 0.59636 0.67777 0.0
C1516 C 0.34273 0.56414 0.59503 0.0
C1517 C 0.31858 0.57971 0.56035 0.0
N1518 N 0.27077 0.61523 0.55222 0.0
N1519 N 0.37537 0.56665 0.68202 0.0
C1520 C 0.29379 0.59977 0.58584 0.0
C1521 C 0.34725 0.5749 0.65272 0.0
N1522 N 0.26828 0.61899 0.67432 0.0
N1523 N 0.36142 0.53919 0.5723 0.0
H1524 H 0.37992 0.57351 0.72444 0.0
H1525 H 0.39537 0.55466 0.66294 0.0
H1526 H 0.35816 0.53081 0.53011 0.0
H1527 H 0.37745 0.52469 0.59669 0.0
H1528 H 0.24556 0.62341 0.65464 0.0
H1529 H 0.26804 0.62256 0.71887 0.0
H1530 H 0.25479 0.63338 0.56769 0.0
H1531 H 0.26881 0.61137 0.50797 0.0
C1532 C 0.12729 0.59409 0.40231 0.0
C1533 C 0.1539 0.5793 0.43248 0.0
C1534 C 0.18498 0.57475 0.34207 0.0
C1535 C 0.16025 0.59381 0.31406 0.0
N1536 N 0.11126 0.62792 0.32146 0.0
N1537 N 0.21009 0.55904 0.4329 0.0
C1538 C 0.13223 0.60514 0.34515 0.0
C1539 C 0.1833 0.57033 0.40287 0.0
N1540 N 0.09693 0.59672 0.42775 0.0
N1541 N 0.20948 0.56011 0.3105 0.0
H1542 H 0.20989 0.5555 0.4774 0.0
H1543 H 0.23331 0.5557 0.41436 0.0
H1544 H 0.21128 0.56254 0.26586 0.0
H1545 H 0.22618 0.5432 0.32779 0.0
H1546 H 0.07587 0.60454 0.40574 0.0
H1547 H 0.09205 0.58747 0.46879 0.0
H1548 H 0.09241 0.63934 0.34475 0.0
H1549 H 0.1148 0.6382 0.28074 0.0
C1550 C 0.13196 0.4212 0.15096 0.0
C1551 C 0.1585 0.40409 0.17776 0.0
C1552 C 0.18264 0.39105 0.08368 0.0
C1553 C 0.15414 0.4046 0.05729 0.0
N1554 N 0.10781 0.44168 0.06194 0.0
N1555 N 0.21381 0.38271 0.17215 0.0
C1556 C 0.13085 0.42283 0.08987 0.0
C1557 C 0.18555 0.39243 0.14467 0.0
N1558 N 0.10688 0.43401 0.18352 0.0
N1559 N 0.20591 0.37552 0.05065 0.0
H1560 H 0.21633 0.38416 0.21687 0.0
H1561 H 0.23551 0.37608 0.15099 0.0
H1562 H 0.20505 0.37564 0.00576 0.0
H1563 H 0.22545 0.36179 0.06732 0.0
H1564 H 0.0846 0.44242 0.16654 0.0
H1565 H 0.10791 0.4356 0.22821 0.0
H1566 H 0.09176 0.45791 0.08265 0.0
H1567 H 0.10681 0.44329 0.01707 0.0
loop_
_geom_bond_atom_site_label_1
_geom_bond_atom_site_label_2
_geom_bond_distance
_geom_bond_site_symmetry_2
_ccdc_geom_bond_type
C0 O1 1.160 . S
C0 O7 1.185 . S
O1 C0 1.160 . S
O2 Zn3 1.899 . S
O2 C10 1.284 . S
Zn3 O2 1.899 . S
Zn3 O4 2.032 . S
Zn3 O7 2.086 . S
Zn3 O12 1.977 . S
O4 Zn3 2.032 . S
O4 C8 1.278 . S
C5 O6 1.203 . S
C5 O12 1.267 . S
O6 C5 1.203 . S
O7 C0 1.185 . S
O7 Zn3 2.086 . S
C8 O4 1.278 . S
C8 O9 1.211 . S
O9 C8 1.211 . S
C10 O2 1.284 . S
C10 O11 1.273 . S
O11 C10 1.273 . S
O12 Zn3 1.977 . S
O12 C5 1.267 . S
C13 O14 1.160 . S
C13 O20 1.185 . S
O14 C13 1.160 . S
O15 Zn16 1.899 . S
O15 C23 1.284 . S
Zn16 O15 1.899 . S
Zn16 O17 2.032 . S
Zn16 O20 2.086 . S
Zn16 O25 1.977 . S
O17 Zn16 2.032 . S
O17 C21 1.278 . S
C18 O19 1.203 . S
C18 O25 1.267 . S
O19 C18 1.203 . S
O20 C13 1.185 . S
O20 Zn16 2.086 . S
C21 O17 1.278 . S
C21 O22 1.211 . S
O22 C21 1.211 . S
C23 O15 1.284 . S
C23 O24 1.273 . S
O24 C23 1.273 . S
O25 Zn16 1.977 . S
O25 C18 1.267 . S
C26 O27 1.160 . S
C26 O33 1.185 . S
O27 C26 1.160 . S
O28 Zn29 1.899 . S
O28 C36 1.284 1_556 S
Zn29 O28 1.899 . S
Zn29 O30 2.032 . S
Zn29 O33 2.086 . S
Zn29 O38 1.977 . S
O30 Zn29 2.032 . S
O30 C34 1.278 . S
C31 O32 1.203 . S
C31 O38 1.267 . S
O32 C31 1.203 . S
O33 C26 1.185 . S
O33 Zn29 2.086 . S
C34 O30 1.278 . S
C34 O35 1.211 . S
O35 C34 1.211 . S
C36 O28 1.284 1_554 S
C36 O37 1.273 . S
O37 C36 1.273 . S
O38 Zn29 1.977 . S
O38 C31 1.267 . S
C39 O40 1.160 . S
C39 O46 1.185 . S
O40 C39 1.160 . S
O41 Zn42 1.899 . S
O41 C49 1.284 . S
Zn42 O41 1.899 . S
Zn42 O43 2.032 . S
Zn42 O46 2.086 . S
Zn42 O51 1.977 . S
O43 Zn42 2.032 . S
O43 C47 1.278 . S
C44 O45 1.203 . S
C44 O51 1.267 . S
O45 C44 1.203 . S
O46 C39 1.185 . S
O46 Zn42 2.086 . S
C47 O43 1.278 . S
C47 O48 1.211 . S
O48 C47 1.211 . S
C49 O41 1.284 . S
C49 O50 1.273 . S
O50 C49 1.273 . S
O51 Zn42 1.977 . S
O51 C44 1.267 . S
C52 O53 1.160 . S
C52 O59 1.185 . S
O53 C52 1.160 . S
O54 Zn55 1.899 . S
O54 C62 1.284 1_554 S
Zn55 O54 1.899 . S
Zn55 O56 2.032 . S
Zn55 O59 2.086 . S
Zn55 O64 1.977 . S
O56 Zn55 2.032 . S
O56 C60 1.278 . S
C57 O58 1.203 . S
C57 O64 1.267 . S
O58 C57 1.203 . S
O59 C52 1.185 . S
O59 Zn55 2.086 . S
C60 O56 1.278 . S
C60 O61 1.211 . S
O61 C60 1.211 . S
C62 O54 1.284 1_556 S
C62 O63 1.273 . S
O63 C62 1.273 . S
O64 Zn55 1.977 . S
O64 C57 1.267 . S
C65 O66 1.160 . S
C65 O72 1.185 . S
O66 C65 1.160 . S
O67 Zn68 1.899 . S
O67 C75 1.284 . S
Zn68 O67 1.899 . S
Zn68 O69 2.032 . S
Zn68 O72 2.086 . S
Zn68 O77 1.977 . S
O69 Zn68 2.032 . S
O69 C73 1.278 . S
C70 O71 1.203 . S
C70 O77 1.267 . S
O71 C70 1.203 . S
O72 C65 1.185 . S
O72 Zn68 2.086 . S
C73 O69 1.278 . S
C73 O74 1.211 . S
O74 C73 1.211 . S
C75 O67 1.284 . S
C75 O76 1.273 . S
O76 C75 1.273 . S
O77 Zn68 1.977 . S
O77 C70 1.267 . S
C78 O79 1.160 . S
C78 O85 1.185 . S
O79 C78 1.160 . S
O80 Zn81 1.899 . S
O80 C88 1.284 . S
Zn81 O80 1.899 . S
Zn81 O82 2.032 . S
Zn81 O85 2.086 . S
Zn81 O90 1.977 . S
O82 Zn81 2.032 . S
O82 C86 1.278 . S
C83 O84 1.203 . S
C83 O90 1.267 . S
O84 C83 1.203 . S
O85 C78 1.185 . S
O85 Zn81 2.086 . S
C86 O82 1.278 . S
C86 O87 1.211 . S
O87 C86 1.211 . S
C88 O80 1.284 . S
C88 O89 1.273 . S
O89 C88 1.273 . S
O90 Zn81 1.977 . S
O90 C83 1.267 . S
C91 O92 1.160 . S
C91 O98 1.185 . S
O92 C91 1.160 . S
O93 Zn94 1.899 . S
O93 C101 1.284 . S
Zn94 O93 1.899 . S
Zn94 O95 2.032 . S
Zn94 O98 2.086 . S
Zn94 O103 1.977 . S
O95 Zn94 2.032 . S
O95 C99 1.278 . S
C96 O97 1.203 . S
C96 O103 1.267 . S
O97 C96 1.203 . S
O98 C91 1.185 . S
O98 Zn94 2.086 . S
C99 O95 1.278 . S
C99 O100 1.211 . S
O100 C99 1.211 . S
C101 O93 1.284 . S
C101 O102 1.273 . S
O102 C101 1.273 . S
O103 Zn94 1.977 . S
O103 C96 1.267 . S
C104 O105 1.160 . S
C104 O111 1.185 . S
O105 C104 1.160 . S
O106 Zn107 1.899 . S
O106 C114 1.284 . S
Zn107 O106 1.899 . S
Zn107 O108 2.032 . S
Zn107 O111 2.086 . S
Zn107 O116 1.977 . S
O108 Zn107 2.032 . S
O108 C112 1.278 . S
C109 O110 1.203 . S
C109 O116 1.267 . S
O110 C109 1.203 . S
O111 C104 1.185 . S
O111 Zn107 2.086 . S
C112 O108 1.278 . S
C112 O113 1.211 . S
O113 C112 1.211 . S
C114 O106 1.284 . S
C114 O115 1.273 . S
O115 C114 1.273 . S
O116 Zn107 1.977 . S
O116 C109 1.267 . S
C117 O118 1.160 . S
C117 O124 1.185 . S
O118 C117 1.160 . S
O119 Zn120 1.899 . S
O119 C127 1.284 . S
Zn120 O119 1.899 . S
Zn120 O121 2.032 . S
Zn120 O124 2.086 . S
Zn120 O129 1.977 . S
O121 Zn120 2.032 . S
O121 C125 1.278 . S
C122 O123 1.203 . S
C122 O129 1.267 . S
O123 C122 1.203 . S
O124 C117 1.185 . S
O124 Zn120 2.086 . S
C125 O121 1.278 . S
C125 O126 1.211 . S
O126 C125 1.211 . S
C127 O119 1.284 . S
C127 O128 1.273 . S
O128 C127 1.273 . S
O129 Zn120 1.977 . S
O129 C122 1.267 . S
C130 O131 1.160 . S
C130 O137 1.185 . S
O131 C130 1.160 . S
O132 Zn133 1.899 . S
O132 C140 1.284 1_554 S
Zn133 O132 1.899 . S
Zn133 O134 2.032 . S
Zn133 O137 2.086 . S
Zn133 O142 1.977 . S
O134 Zn133 2.032 . S
O134 C138 1.278 . S
C135 O136 1.203 . S
C135 O142 1.267 . S
O136 C135 1.203 . S
O137 C130 1.185 . S
O137 Zn133 2.086 . S
C138 O134 1.278 . S
C138 O139 1.211 . S
O139 C138 1.211 . S
C140 O132 1.284 1_556 S
C140 O141 1.273 . S
O141 C140 1.273 . S
O142 Zn133 1.977 . S
O142 C135 1.267 . S
C143 O144 1.160 . S
C143 O150 1.185 . S
O144 C143 1.160 . S
O145 Zn146 1.899 . S
O145 C153 1.284 . S
Zn146 O145 1.899 . S
Zn146 O147 2.032 . S
Zn146 O150 2.086 . S
Zn146 O155 1.977 . S
O147 Zn146 2.032 . S
O147 C151 1.278 . S
C148 O149 1.203 . S
C148 O155 1.267 . S
O149 C148 1.203 . S
O150 C143 1.185 . S
O150 Zn146 2.086 . S
C151 O147 1.278 . S
C151 O152 1.211 . S
O152 C151 1.211 . S
C153 O145 1.284 . S
C153 O154 1.273 . S
O154 C153 1.273 . S
O155 Zn146 1.977 . S
O155 C148 1.267 . S
C156 O157 1.160 . S
C156 O163 1.185 . S
O157 C156 1.160 . S
O158 Zn159 1.899 . S
O158 C166 1.284 1_556 S
Zn159 O158 1.899 . S
Zn159 O160 2.032 . S
Zn159 O163 2.086 . S
Zn159 O168 1.977 . S
O160 Zn159 2.032 . S
O160 C164 1.278 . S
C161 O162 1.203 . S
C161 O168 1.267 . S
O162 C161 1.203 . S
O163 C156 1.185 . S
O163 Zn159 2.086 . S
C164 O160 1.278 . S
C164 O165 1.211 . S
O165 C164 1.211 . S
C166 O158 1.284 1_554 S
C166 O167 1.273 . S
O167 C166 1.273 . S
O168 Zn159 1.977 . S
O168 C161 1.267 . S
C169 O170 1.160 . S
C169 O176 1.185 . S
O170 C169 1.160 . S
O171 Zn172 1.899 . S
O171 C179 1.284 . S
Zn172 O171 1.899 . S
Zn172 O173 2.032 . S
Zn172 O176 2.086 . S
Zn172 O181 1.977 . S
O173 Zn172 2.032 . S
O173 C177 1.278 . S
C174 O175 1.203 . S
C174 O181 1.267 . S
O175 C174 1.203 . S
O176 C169 1.185 . S
O176 Zn172 2.086 . S
C177 O173 1.278 . S
C177 O178 1.211 . S
O178 C177 1.211 . S
C179 O171 1.284 . S
C179 O180 1.273 . S
O180 C179 1.273 . S
O181 Zn172 1.977 . S
O181 C174 1.267 . S
C182 O183 1.160 . S
C182 O189 1.185 . S
O183 C182 1.160 . S
O184 Zn185 1.899 . S
O184 C192 1.284 . S
Zn185 O184 1.899 . S
Zn185 O186 2.032 . S
Zn185 O189 2.086 . S
Zn185 O194 1.977 . S
O186 Zn185 2.032 . S
O186 C190 1.278 . S
C187 O188 1.203 . S
C187 O194 1.267 . S
O188 C187 1.203 . S
O189 C182 1.185 . S
O189 Zn185 2.086 . S
C190 O186 1.278 . S
C190 O191 1.211 . S
O191 C190 1.211 . S
C192 O184 1.284 . S
C192 O193 1.273 . S
O193 C192 1.273 . S
O194 Zn185 1.977 . S
O194 C187 1.267 . S
C195 O196 1.160 . S
C195 O202 1.185 . S
O196 C195 1.160 . S
O197 Zn198 1.899 . S
O197 C205 1.284 . S
Zn198 O197 1.899 . S
Zn198 O199 2.032 . S
Zn198 O202 2.086 . S
Zn198 O207 1.977 . S
O199 Zn198 2.032 . S
O199 C203 1.278 . S
C200 O201 1.203 . S
C200 O207 1.267 . S
O201 C200 1.203 . S
O202 C195 1.185 . S
O202 Zn198 2.086 . S
C203 O199 1.278 . S
C203 O204 1.211 . S
O204 C203 1.211 . S
C205 O197 1.284 . S
C205 O206 1.273 . S
O206 C205 1.273 . S
O207 Zn198 1.977 . S
O207 C200 1.267 . S
C208 O209 1.160 . S
C208 O215 1.185 . S
O209 C208 1.160 . S
O210 Zn211 1.899 . S
O210 C218 1.284 1_556 S
Zn211 O210 1.899 . S
Zn211 O212 2.032 . S
Zn211 O215 2.086 . S
Zn211 O220 1.977 . S
O212 Zn211 2.032 . S
O212 C216 1.278 . S
C213 O214 1.203 . S
C213 O220 1.267 . S
O214 C213 1.203 . S
O215 C208 1.185 . S
O215 Zn211 2.086 . S
C216 O212 1.278 . S
C216 O217 1.211 . S
O217 C216 1.211 . S
C218 O210 1.284 1_554 S
C218 O219 1.273 . S
O219 C218 1.273 . S
O220 Zn211 1.977 . S
O220 C213 1.267 . S
C221 O222 1.160 . S
C221 O228 1.185 . S
O222 C221 1.160 . S
O223 Zn224 1.899 . S
O223 C231 1.284 . S
Zn224 O223 1.899 . S
Zn224 O225 2.032 . S
Zn224 O228 2.086 . S
Zn224 O233 1.977 . S
O225 Zn224 2.032 . S
O225 C229 1.278 . S
C226 O227 1.203 . S
C226 O233 1.267 . S
O227 C226 1.203 . S
O228 C221 1.185 . S
O228 Zn224 2.086 . S
C229 O225 1.278 . S
C229 O230 1.211 . S
O230 C229 1.211 . S
C231 O223 1.284 . S
C231 O232 1.273 . S
O232 C231 1.273 . S
O233 Zn224 1.977 . S
O233 C226 1.267 . S
C234 O235 1.160 . S
C234 O241 1.185 . S
O235 C234 1.160 . S
O236 Zn237 1.899 . S
O236 C244 1.284 . S
Zn237 O236 1.899 . S
Zn237 O238 2.032 . S
Zn237 O241 2.086 . S
Zn237 O246 1.977 . S
O238 Zn237 2.032 . S
O238 C242 1.278 . S
C239 O240 1.203 . S
C239 O246 1.267 . S
O240 C239 1.203 . S
O241 C234 1.185 . S
O241 Zn237 2.086 . S
C242 O238 1.278 . S
C242 O243 1.211 . S
O243 C242 1.211 . S
C244 O236 1.284 . S
C244 O245 1.273 . S
O245 C244 1.273 . S
O246 Zn237 1.977 . S
O246 C239 1.267 . S
C247 O248 1.160 . S
C247 O254 1.185 . S
O248 C247 1.160 . S
O249 Zn250 1.899 . S
O249 C257 1.284 . S
Zn250 O249 1.899 . S
Zn250 O251 2.032 . S
Zn250 O254 2.086 . S
Zn250 O259 1.977 . S
O251 Zn250 2.032 . S
O251 C255 1.278 . S
C252 O253 1.203 . S
C252 O259 1.267 . S
O253 C252 1.203 . S
O254 C247 1.185 . S
O254 Zn250 2.086 . S
C255 O251 1.278 . S
C255 O256 1.211 . S
O256 C255 1.211 . S
C257 O249 1.284 . S
C257 O258 1.273 . S
O258 C257 1.273 . S
O259 Zn250 1.977 . S
O259 C252 1.267 . S
C260 O261 1.160 . S
C260 O267 1.185 . S
O261 C260 1.160 . S
O262 Zn263 1.899 . S
O262 C270 1.284 . S
Zn263 O262 1.899 . S
Zn263 O264 2.032 . S
Zn263 O267 2.086 . S
Zn263 O272 1.977 . S
O264 Zn263 2.032 . S
O264 C268 1.278 . S
C265 O266 1.203 . S
C265 O272 1.267 . S
O266 C265 1.203 . S
O267 C260 1.185 . S
O267 Zn263 2.086 . S
C268 O264 1.278 . S
C268 O269 1.211 . S
O269 C268 1.211 . S
C270 O262 1.284 . S
C270 O271 1.273 . S
O271 C270 1.273 . S
O272 Zn263 1.977 . S
O272 C265 1.267 . S
C273 O274 1.160 . S
C273 O280 1.185 . S
O274 C273 1.160 . S
O275 Zn276 1.899 . S
O275 C283 1.284 . S
Zn276 O275 1.899 . S
Zn276 O277 2.032 . S
Zn276 O280 2.086 . S
Zn276 O285 1.977 . S
O277 Zn276 2.032 . S
O277 C281 1.278 . S
C278 O279 1.203 . S
C278 O285 1.267 . S
O279 C278 1.203 . S
O280 C273 1.185 . S
O280 Zn276 2.086 . S
C281 O277 1.278 . S
C281 O282 1.211 . S
O282 C281 1.211 . S
C283 O275 1.284 . S
C283 O284 1.273 . S
O284 C283 1.273 . S
O285 Zn276 1.977 . S
O285 C278 1.267 . S
C286 O287 1.160 . S
C286 O293 1.185 . S
O287 C286 1.160 . S
O288 Zn289 1.899 . S
O288 C296 1.284 1_554 S
Zn289 O288 1.899 . S
Zn289 O290 2.032 . S
Zn289 O293 2.086 . S
Zn289 O298 1.977 . S
O290 Zn289 2.032 . S
O290 C294 1.278 . S
C291 O292 1.203 . S
C291 O298 1.267 . S
O292 C291 1.203 . S
O293 C286 1.185 . S
O293 Zn289 2.086 . S
C294 O290 1.278 . S
C294 O295 1.211 . S
O295 C294 1.211 . S
C296 O288 1.284 1_556 S
C296 O297 1.273 . S
O297 C296 1.273 . S
O298 Zn289 1.977 . S
O298 C291 1.267 . S
C299 O300 1.160 . S
C299 O306 1.185 . S
O300 C299 1.160 . S
O301 Zn302 1.899 . S
O301 C309 1.284 . S
Zn302 O301 1.899 . S
Zn302 O303 2.032 . S
Zn302 O306 2.086 . S
Zn302 O311 1.977 . S
O303 Zn302 2.032 . S
O303 C307 1.278 . S
C304 O305 1.203 . S
C304 O311 1.267 . S
O305 C304 1.203 . S
O306 C299 1.185 . S
O306 Zn302 2.086 . S
C307 O303 1.278 . S
C307 O308 1.211 . S
O308 C307 1.211 . S
C309 O301 1.284 . S
C309 O310 1.273 . S
O310 C309 1.273 . S
O311 Zn302 1.977 . S
O311 C304 1.267 . S
C312 O313 1.160 . S
C312 O319 1.185 . S
O313 C312 1.160 . S
O314 Zn315 1.899 . S
O314 C322 1.284 1_554 S
Zn315 O314 1.899 . S
Zn315 O316 2.032 . S
Zn315 O319 2.086 . S
Zn315 O324 1.977 . S
O316 Zn315 2.032 . S
O316 C320 1.278 . S
C317 O318 1.203 . S
C317 O324 1.267 . S
O318 C317 1.203 . S
O319 C312 1.185 . S
O319 Zn315 2.086 . S
C320 O316 1.278 . S
C320 O321 1.211 . S
O321 C320 1.211 . S
C322 O314 1.284 1_556 S
C322 O323 1.273 . S
O323 C322 1.273 . S
O324 Zn315 1.977 . S
O324 C317 1.267 . S
C325 O326 1.160 . S
C325 O332 1.185 . S
O326 C325 1.160 . S
O327 Zn328 1.899 . S
O327 C335 1.284 . S
Zn328 O327 1.899 . S
Zn328 O329 2.032 . S
Zn328 O332 2.086 . S
Zn328 O337 1.977 . S
O329 Zn328 2.032 . S
O329 C333 1.278 . S
C330 O331 1.203 . S
C330 O337 1.267 . S
O331 C330 1.203 . S
O332 C325 1.185 . S
O332 Zn328 2.086 . S
C333 O329 1.278 . S
C333 O334 1.211 . S
O334 C333 1.211 . S
C335 O327 1.284 . S
C335 O336 1.273 . S
O336 C335 1.273 . S
O337 Zn328 1.977 . S
O337 C330 1.267 . S
C338 O339 1.160 . S
C338 O345 1.185 . S
O339 C338 1.160 . S
O340 Zn341 1.899 . S
O340 C348 1.284 . S
Zn341 O340 1.899 . S
Zn341 O342 2.032 . S
Zn341 O345 2.086 . S
Zn341 O350 1.977 . S
O342 Zn341 2.032 . S
O342 C346 1.278 . S
C343 O344 1.203 . S
C343 O350 1.267 . S
O344 C343 1.203 . S
O345 C338 1.185 . S
O345 Zn341 2.086 . S
C346 O342 1.278 . S
C346 O347 1.211 . S
O347 C346 1.211 . S
C348 O340 1.284 . S
C348 O349 1.273 . S
O349 C348 1.273 . S
O350 Zn341 1.977 . S
O350 C343 1.267 . S
C351 O352 1.160 . S
C351 O358 1.185 . S
O352 C351 1.160 . S
O353 Zn354 1.899 . S
O353 C361 1.284 . S
Zn354 O353 1.899 . S
Zn354 O355 2.032 . S
Zn354 O358 2.086 . S
Zn354 O363 1.977 . S
O355 Zn354 2.032 . S
O355 C359 1.278 . S
C356 O357 1.203 . S
C356 O363 1.267 . S
O357 C356 1.203 . S
O358 C351 1.185 . S
O358 Zn354 2.086 . S
C359 O355 1.278 . S
C359 O360 1.211 . S
O360 C359 1.211 . S
C361 O353 1.284 . S
C361 O362 1.273 . S
O362 C361 1.273 . S
O363 Zn354 1.977 . S
O363 C356 1.267 . S
C364 O365 1.160 . S
C364 O371 1.185 . S
O365 C364 1.160 . S
O366 Zn367 1.899 . S
O366 C374 1.284 . S
Zn367 O366 1.899 . S
Zn367 O368 2.032 . S
Zn367 O371 2.086 . S
Zn367 O376 1.977 . S
O368 Zn367 2.032 . S
O368 C372 1.278 . S
C369 O370 1.203 . S
C369 O376 1.267 . S
O370 C369 1.203 . S
O371 C364 1.185 . S
O371 Zn367 2.086 . S
C372 O368 1.278 . S
C372 O373 1.211 . S
O373 C372 1.211 . S
C374 O366 1.284 . S
C374 O375 1.273 . S
O375 C374 1.273 . S
O376 Zn367 1.977 . S
O376 C369 1.267 . S
C377 O378 1.160 . S
C377 O384 1.185 . S
O378 C377 1.160 . S
O379 Zn380 1.899 . S
O379 C387 1.284 . S
Zn380 O379 1.899 . S
Zn380 O381 2.032 . S
Zn380 O384 2.086 . S
Zn380 O389 1.977 . S
O381 Zn380 2.032 . S
O381 C385 1.278 . S
C382 O383 1.203 . S
C382 O389 1.267 . S
O383 C382 1.203 . S
O384 C377 1.185 . S
O384 Zn380 2.086 . S
C385 O381 1.278 . S
C385 O386 1.211 . S
O386 C385 1.211 . S
C387 O379 1.284 . S
C387 O388 1.273 . S
O388 C387 1.273 . S
O389 Zn380 1.977 . S
O389 C382 1.267 . S
C390 O391 1.160 . S
C390 O397 1.185 . S
O391 C390 1.160 . S
O392 Zn393 1.899 . S
O392 C400 1.284 1_556 S
Zn393 O392 1.899 . S
Zn393 O394 2.032 . S
Zn393 O397 2.086 . S
Zn393 O402 1.977 . S
O394 Zn393 2.032 . S
O394 C398 1.278 . S
C395 O396 1.203 . S
C395 O402 1.267 . S
O396 C395 1.203 . S
O397 C390 1.185 . S
O397 Zn393 2.086 . S
C398 O394 1.278 . S
C398 O399 1.211 . S
O399 C398 1.211 . S
C400 O392 1.284 1_554 S
C400 O401 1.273 . S
O401 C400 1.273 . S
O402 Zn393 1.977 . S
O402 C395 1.267 . S
C403 O404 1.160 . S
C403 O410 1.185 . S
O404 C403 1.160 . S
O405 Zn406 1.899 . S
O405 C413 1.284 . S
Zn406 O405 1.899 . S
Zn406 O407 2.032 . S
Zn406 O410 2.086 . S
Zn406 O415 1.977 . S
O407 Zn406 2.032 . S
O407 C411 1.278 . S
C408 O409 1.203 . S
C408 O415 1.267 . S
O409 C408 1.203 . S
O410 C403 1.185 . S
O410 Zn406 2.086 . S
C411 O407 1.278 . S
C411 O412 1.211 . S
O412 C411 1.211 . S
C413 O405 1.284 . S
C413 O414 1.273 . S
O414 C413 1.273 . S
O415 Zn406 1.977 . S
O415 C408 1.267 . S
C416 C417 1.363 1_565 S
C416 C422 1.379 . S
C416 N424 1.360 . S
C417 C416 1.363 1_545 S
C417 C423 1.363 . S
C418 C419 1.363 1_545 S
C418 C423 1.379 . S
C418 N425 1.360 . S
C419 C418 1.363 1_565 S
C419 C422 1.363 . S
N420 C422 1.356 . S
N420 H432 0.984 . S
N420 H433 0.985 . S
N421 C423 1.356 . S
N421 H426 0.984 . S
N421 H427 0.985 . S
C422 C416 1.379 . S
C422 C419 1.363 . S
C422 N420 1.356 . S
C423 C417 1.363 . S
C423 C418 1.379 . S
C423 N421 1.356 . S
N424 C416 1.360 . S
N424 H430 1.008 . S
N424 H431 0.958 1_565 S
N425 C418 1.360 . S
N425 H428 0.957 1_545 S
N425 H429 1.008 . S
H426 N421 0.984 . S
H427 N421 0.985 . S
H428 N425 0.957 1_565 S
H429 N425 1.008 . S
H430 N424 1.008 . S
H431 N424 0.958 1_545 S
H432 N420 0.984 . S
H433 N420 0.985 . S
C434 C435 1.363 . S
C434 C440 1.379 . S
C434 N442 1.356 . S
C435 C434 1.363 . S
C435 C441 1.363 . S
C436 C437 1.363 . S
C436 C441 1.379 . S
C436 N443 1.356 . S
C437 C436 1.363 . S
C437 C440 1.363 . S
N438 C440 1.356 . S
N438 H450 0.984 . S
N438 H451 0.985 . S
N439 C441 1.356 . S
N439 H444 0.984 . S
N439 H445 0.985 . S
C440 C434 1.379 . S
C440 C437 1.363 . S
C440 N438 1.356 . S
C441 C435 1.363 . S
C441 C436 1.379 . S
C441 N439 1.356 . S
N442 C434 1.356 . S
N442 H448 0.984 . S
N442 H449 0.984 . S
N443 C436 1.356 . S
N443 H446 0.984 . S
N443 H447 0.985 . S
H444 N439 0.984 . S
H445 N439 0.985 . S
H446 N443 0.984 . S
H447 N443 0.985 . S
H448 N442 0.984 . S
H449 N442 0.984 . S
H450 N438 0.984 . S
H451 N438 0.985 . S
C452 C453 1.363 1_565 S
C452 C458 1.379 . S
C452 N460 1.356 . S
C453 C452 1.363 1_545 S
C453 C459 1.363 . S
C454 C455 1.363 1_545 S
C454 C459 1.379 . S
C454 N461 1.356 . S
C455 C454 1.363 1_565 S
C455 C458 1.363 . S
N456 C458 1.356 . S
N456 H468 0.984 . S
N456 H469 0.985 . S
N457 C459 1.356 . S
N457 H462 0.984 . S
N457 H463 0.985 . S
C458 C452 1.379 . S
C458 C455 1.363 . S
C458 N456 1.356 . S
C459 C453 1.363 . S
C459 C454 1.379 . S
C459 N457 1.356 . S
N460 C452 1.356 . S
N460 H466 0.984 . S
N460 H467 0.984 1_565 S
N461 C454 1.356 . S
N461 H464 0.984 1_545 S
N461 H465 0.985 . S
H462 N457 0.984 . S
H463 N457 0.985 . S
H464 N461 0.984 1_565 S
H465 N461 0.985 . S
H466 N460 0.984 . S
H467 N460 0.984 1_545 S
H468 N456 0.984 . S
H469 N456 0.985 . S
C470 C471 1.363 . S
C470 C476 1.365 1_556 S
C470 N478 1.356 . S
C471 C470 1.363 . S
C471 C477 1.377 . S
C472 C473 1.363 . S
C472 C477 1.365 1_554 S
C472 N479 1.356 . S
C473 C472 1.363 . S
C473 C476 1.377 . S
N474 C476 1.361 . S
N474 H486 0.984 1_554 S
N474 H487 0.985 . S
N475 C477 1.361 . S
N475 H480 0.984 . S
N475 H481 0.985 1_556 S
C476 C470 1.365 1_554 S
C476 C473 1.377 . S
C476 N474 1.361 . S
C477 C471 1.377 . S
C477 C472 1.365 1_556 S
C477 N475 1.361 . S
N478 C470 1.356 . S
N478 H484 0.984 . S
N478 H485 0.984 . S
N479 C472 1.356 . S
N479 H482 0.984 . S
N479 H483 0.985 . S
H480 N475 0.984 . S
H481 N475 0.985 1_554 S
H482 N479 0.984 . S
H483 N479 0.985 . S
H484 N478 0.984 . S
H485 N478 0.984 . S
H486 N474 0.984 1_556 S
H487 N474 0.985 . S
C488 C489 1.363 . S
C488 C494 1.379 . S
C488 N496 1.356 . S
C489 C488 1.363 . S
C489 C495 1.363 1_565 S
C490 C491 1.363 . S
C490 C495 1.379 . S
C490 N497 1.356 . S
C491 C490 1.363 . S
C491 C494 1.363 1_545 S
N492 C494 1.356 . S
N492 H504 0.984 . S
N492 H505 0.985 1_565 S
N493 C495 1.356 . S
N493 H498 0.984 1_545 S
N493 H499 0.985 . S
C494 C488 1.379 . S
C494 C491 1.363 1_565 S
C494 N492 1.356 . S
C495 C489 1.363 1_545 S
C495 C490 1.379 . S
C495 N493 1.356 . S
N496 C488 1.356 . S
N496 H502 0.984 . S
N496 H503 0.984 . S
N497 C490 1.356 . S
N497 H500 0.984 . S
N497 H501 0.985 . S
H498 N493 0.984 1_565 S
H499 N493 0.985 . S
H500 N497 0.984 . S
H501 N497 0.985 . S
H502 N496 0.984 . S
H503 N496 0.984 . S
H504 N492 0.984 . S
H505 N492 0.985 1_545 S
C506 C507 1.363 . S
C506 C512 1.379 . S
C506 N514 1.356 . S
C507 C506 1.363 . S
C507 C513 1.363 . S
C508 C509 1.363 . S
C508 C513 1.379 . S
C508 N515 1.356 . S
C509 C508 1.363 . S
C509 C512 1.363 . S
N510 C512 1.356 . S
N510 H522 0.984 . S
N510 H523 0.985 . S
N511 C513 1.356 . S
N511 H516 0.984 . S
N511 H517 0.985 . S
C512 C506 1.379 . S
C512 C509 1.363 . S
C512 N510 1.356 . S
C513 C507 1.363 . S
C513 C508 1.379 . S
C513 N511 1.356 . S
N514 C506 1.356 . S
N514 H520 0.984 . S
N514 H521 0.984 . S
N515 C508 1.356 . S
N515 H518 0.984 . S
N515 H519 0.985 . S
H516 N511 0.984 . S
H517 N511 0.985 . S
H518 N515 0.984 . S
H519 N515 0.985 . S
H520 N514 0.984 . S
H521 N514 0.984 . S
H522 N510 0.984 . S
H523 N510 0.985 . S
C524 C525 1.363 . S
C524 C530 1.379 1_565 S
C524 N532 1.356 . S
C525 C524 1.363 . S
C525 C531 1.363 . S
C526 C527 1.363 . S
C526 C531 1.379 1_545 S
C526 N533 1.356 . S
C527 C526 1.363 . S
C527 C530 1.363 . S
N528 C530 1.356 . S
N528 H540 0.984 . S
N528 H541 0.985 . S
N529 C531 1.356 . S
N529 H534 0.984 . S
N529 H535 0.985 . S
C530 C524 1.379 1_545 S
C530 C527 1.363 . S
C530 N528 1.356 . S
C531 C525 1.363 . S
C531 C526 1.379 1_565 S
C531 N529 1.356 . S
N532 C524 1.356 . S
N532 H538 0.984 . S
N532 H539 0.984 . S
N533 C526 1.356 . S
N533 H536 0.984 . S
N533 H537 0.985 . S
H534 N529 0.984 . S
H535 N529 0.985 . S
H536 N533 0.984 . S
H537 N533 0.985 . S
H538 N532 0.984 . S
H539 N532 0.984 . S
H540 N528 0.984 . S
H541 N528 0.985 . S
C542 C543 1.363 . S
C542 C548 1.365 1_556 S
C542 N550 1.356 . S
C543 C542 1.363 . S
C543 C549 1.377 . S
C544 C545 1.363 . S
C544 C549 1.365 1_554 S
C544 N551 1.356 . S
C545 C544 1.363 . S
C545 C548 1.377 . S
N546 C548 1.361 . S
N546 H558 0.984 1_554 S
N546 H559 0.985 . S
N547 C549 1.361 . S
N547 H552 0.984 . S
N547 H553 0.985 1_556 S
C548 C542 1.365 1_554 S
C548 C545 1.377 . S
C548 N546 1.361 . S
C549 C543 1.377 . S
C549 C544 1.365 1_556 S
C549 N547 1.361 . S
N550 C542 1.356 . S
N550 H556 0.984 . S
N550 H557 0.984 . S
N551 C544 1.356 . S
N551 H554 0.984 . S
N551 H555 0.985 . S
H552 N547 0.984 . S
H553 N547 0.985 1_554 S
H554 N551 0.984 . S
H555 N551 0.985 . S
H556 N550 0.984 . S
H557 N550 0.984 . S
H558 N546 0.984 1_556 S
H559 N546 0.985 . S
C560 C561 1.363 . S
C560 C566 1.379 . S
C560 N568 1.356 . S
C561 C560 1.363 . S
C561 C567 1.363 . S
C562 C563 1.363 . S
C562 C567 1.379 . S
C562 N569 1.356 . S
C563 C562 1.363 . S
C563 C566 1.363 . S
N564 C566 1.356 . S
N564 H576 0.984 . S
N564 H577 0.985 . S
N565 C567 1.356 . S
N565 H570 0.984 . S
N565 H571 0.985 . S
C566 C560 1.379 . S
C566 C563 1.363 . S
C566 N564 1.356 . S
C567 C561 1.363 . S
C567 C562 1.379 . S
C567 N565 1.356 . S
N568 C560 1.356 . S
N568 H574 0.984 . S
N568 H575 0.984 . S
N569 C562 1.356 . S
N569 H572 0.984 . S
N569 H573 0.985 . S
H570 N565 0.984 . S
H571 N565 0.985 . S
H572 N569 0.984 . S
H573 N569 0.985 . S
H574 N568 0.984 . S
H575 N568 0.984 . S
H576 N564 0.984 . S
H577 N564 0.985 . S
C578 C579 1.377 . S
C578 C584 1.365 1_556 S
C578 N586 1.361 . S
C579 C578 1.377 . S
C579 C585 1.363 . S
C580 C581 1.377 . S
C580 C585 1.365 1_554 S
C580 N587 1.361 . S
C581 C580 1.377 . S
C581 C584 1.363 . S
N582 C584 1.356 . S
N582 H594 0.984 . S
N582 H595 0.985 . S
N583 C585 1.356 . S
N583 H588 0.984 . S
N583 H589 0.985 . S
C584 C578 1.365 1_554 S
C584 C581 1.363 . S
C584 N582 1.356 . S
C585 C579 1.363 . S
C585 C580 1.365 1_556 S
C585 N583 1.356 . S
N586 C578 1.361 . S
N586 H592 0.984 1_556 S
N586 H593 0.984 . S
N587 C580 1.361 . S
N587 H590 0.984 . S
N587 H591 0.985 1_554 S
H588 N583 0.984 . S
H589 N583 0.985 . S
H590 N587 0.984 . S
H591 N587 0.985 1_556 S
H592 N586 0.984 1_554 S
H593 N586 0.984 . S
H594 N582 0.984 . S
H595 N582 0.985 . S
C596 C597 1.363 . S
C596 C602 1.379 . S
C596 N604 1.356 . S
C597 C596 1.363 . S
C597 C603 1.363 . S
C598 C599 1.363 . S
C598 C603 1.379 . S
C598 N605 1.356 . S
C599 C598 1.363 . S
C599 C602 1.363 . S
N600 C602 1.356 . S
N600 H612 0.984 . S
N600 H613 0.985 . S
N601 C603 1.356 . S
N601 H606 0.984 . S
N601 H607 0.985 . S
C602 C596 1.379 . S
C602 C599 1.363 . S
C602 N600 1.356 . S
C603 C597 1.363 . S
C603 C598 1.379 . S
C603 N601 1.356 . S
N604 C596 1.356 . S
N604 H610 0.984 . S
N604 H611 0.984 . S
N605 C598 1.356 . S
N605 H608 0.984 . S
N605 H609 0.985 . S
H606 N601 0.984 . S
H607 N601 0.985 . S
H608 N605 0.984 . S
H609 N605 0.985 . S
H610 N604 0.984 . S
H611 N604 0.984 . S
H612 N600 0.984 . S
H613 N600 0.985 . S
C614 C615 1.363 . S
C614 C620 1.379 . S
C614 N622 1.356 . S
C615 C614 1.363 . S
C615 C621 1.363 . S
C616 C617 1.363 . S
C616 C621 1.379 . S
C616 N623 1.356 . S
C617 C616 1.363 . S
C617 C620 1.363 . S
N618 C620 1.356 . S
N618 H630 0.984 . S
N618 H631 0.985 . S
N619 C621 1.356 . S
N619 H624 0.984 . S
N619 H625 0.985 . S
C620 C614 1.379 . S
C620 C617 1.363 . S
C620 N618 1.356 . S
C621 C615 1.363 . S
C621 C616 1.379 . S
C621 N619 1.356 . S
N622 C614 1.356 . S
N622 H628 0.984 . S
N622 H629 0.984 . S
N623 C616 1.356 . S
N623 H626 0.984 . S
N623 H627 0.985 . S
H624 N619 0.984 . S
H625 N619 0.985 . S
H626 N623 0.984 . S
H627 N623 0.985 . S
H628 N622 0.984 . S
H629 N622 0.984 . S
H630 N618 0.984 . S
H631 N618 0.985 . S
C632 C633 1.363 . S
C632 C638 1.379 . S
C632 N640 1.356 . S
C633 C632 1.363 . S
C633 C639 1.363 . S
C634 C635 1.363 . S
C634 C639 1.379 . S
C634 N641 1.356 . S
C635 C634 1.363 . S
C635 C638 1.363 . S
N636 C638 1.356 . S
N636 H648 0.984 . S
N636 H649 0.985 . S
N637 C639 1.356 . S
N637 H642 0.984 . S
N637 H643 0.985 . S
C638 C632 1.379 . S
C638 C635 1.363 . S
C638 N636 1.356 . S
C639 C633 1.363 . S
C639 C634 1.379 . S
C639 N637 1.356 . S
N640 C632 1.356 . S
N640 H646 0.984 . S
N640 H647 0.984 . S
N641 C634 1.356 . S
N641 H644 0.984 . S
N641 H645 0.985 . S
H642 N637 0.984 . S
H643 N637 0.985 . S
H644 N641 0.984 . S
H645 N641 0.985 . S
H646 N640 0.984 . S
H647 N640 0.984 . S
H648 N636 0.984 . S
H649 N636 0.985 . S
C650 C651 1.377 . S
C650 C656 1.365 1_554 S
C650 N658 1.361 . S
C651 C650 1.377 . S
C651 C657 1.363 . S
C652 C653 1.377 . S
C652 C657 1.365 1_556 S
C652 N659 1.361 . S
C653 C652 1.377 . S
C653 C656 1.363 . S
N654 C656 1.356 . S
N654 H666 0.984 . S
N654 H667 0.985 . S
N655 C657 1.356 . S
N655 H660 0.984 . S
N655 H661 0.985 . S
C656 C650 1.365 1_556 S
C656 C653 1.363 . S
C656 N654 1.356 . S
C657 C651 1.363 . S
C657 C652 1.365 1_554 S
C657 N655 1.356 . S
N658 C650 1.361 . S
N658 H664 0.984 1_554 S
N658 H665 0.984 . S
N659 C652 1.361 . S
N659 H662 0.984 . S
N659 H663 0.985 1_556 S
H660 N655 0.984 . S
H661 N655 0.985 . S
H662 N659 0.984 . S
H663 N659 0.985 1_554 S
H664 N658 0.984 1_556 S
H665 N658 0.984 . S
H666 N654 0.984 . S
H667 N654 0.985 . S
C668 C669 1.363 . S
C668 C674 1.379 . S
C668 N676 1.356 . S
C669 C668 1.363 . S
C669 C675 1.363 . S
C670 C671 1.363 . S
C670 C675 1.379 . S
C670 N677 1.356 . S
C671 C670 1.363 . S
C671 C674 1.363 . S
N672 C674 1.356 . S
N672 H684 0.984 . S
N672 H685 0.985 . S
N673 C675 1.356 . S
N673 H678 0.984 . S
N673 H679 0.985 . S
C674 C668 1.379 . S
C674 C671 1.363 . S
C674 N672 1.356 . S
C675 C669 1.363 . S
C675 C670 1.379 . S
C675 N673 1.356 . S
N676 C668 1.356 . S
N676 H682 0.984 . S
N676 H683 0.984 . S
N677 C670 1.356 . S
N677 H680 0.984 . S
N677 H681 0.985 . S
H678 N673 0.984 . S
H679 N673 0.985 . S
H680 N677 0.984 . S
H681 N677 0.985 . S
H682 N676 0.984 . S
H683 N676 0.984 . S
H684 N672 0.984 . S
H685 N672 0.985 . S
C686 C687 1.363 . S
C686 C692 1.379 . S
C686 N694 1.356 . S
C687 C686 1.363 . S
C687 C693 1.363 . S
C688 C689 1.363 . S
C688 C693 1.379 . S
C688 N695 1.356 . S
C689 C688 1.363 . S
C689 C692 1.363 . S
N690 C692 1.356 . S
N690 H702 0.984 . S
N690 H703 0.985 . S
N691 C693 1.356 . S
N691 H696 0.984 . S
N691 H697 0.985 . S
C692 C686 1.379 . S
C692 C689 1.363 . S
C692 N690 1.356 . S
C693 C687 1.363 . S
C693 C688 1.379 . S
C693 N691 1.356 . S
N694 C686 1.356 . S
N694 H700 0.984 . S
N694 H701 0.984 . S
N695 C688 1.356 . S
N695 H698 0.984 . S
N695 H699 0.985 . S
H696 N691 0.984 . S
H697 N691 0.985 . S
H698 N695 0.984 . S
H699 N695 0.985 . S
H700 N694 0.984 . S
H701 N694 0.984 . S
H702 N690 0.984 . S
H703 N690 0.985 . S
C704 C705 1.363 . S
C704 C710 1.379 . S
C704 N712 1.356 . S
C705 C704 1.363 . S
C705 C711 1.363 . S
C706 C707 1.363 . S
C706 C711 1.379 . S
C706 N713 1.356 . S
C707 C706 1.363 . S
C707 C710 1.363 . S
N708 C710 1.356 . S
N708 H720 0.984 . S
N708 H721 0.985 . S
N709 C711 1.356 . S
N709 H714 0.984 . S
N709 H715 0.985 . S
C710 C704 1.379 . S
C710 C707 1.363 . S
C710 N708 1.356 . S
C711 C705 1.363 . S
C711 C706 1.379 . S
C711 N709 1.356 . S
N712 C704 1.356 . S
N712 H718 0.984 . S
N712 H719 0.984 . S
N713 C706 1.356 . S
N713 H716 0.984 . S
N713 H717 0.985 . S
H714 N709 0.984 . S
H715 N709 0.985 . S
H716 N713 0.984 . S
H717 N713 0.985 . S
H718 N712 0.984 . S
H719 N712 0.984 . S
H720 N708 0.984 . S
H721 N708 0.985 . S
C722 C723 1.363 . S
C722 C728 1.379 1_655 S
C722 N730 1.356 . S
C723 C722 1.363 . S
C723 C729 1.363 . S
C724 C725 1.363 . S
C724 C729 1.379 1_455 S
C724 N731 1.356 . S
C725 C724 1.363 . S
C725 C728 1.363 . S
N726 C728 1.356 . S
N726 H738 0.984 . S
N726 H739 0.985 . S
N727 C729 1.356 . S
N727 H732 0.984 . S
N727 H733 0.985 . S
C728 C722 1.379 1_455 S
C728 C725 1.363 . S
C728 N726 1.356 . S
C729 C723 1.363 . S
C729 C724 1.379 1_655 S
C729 N727 1.356 . S
N730 C722 1.356 . S
N730 H736 0.984 . S
N730 H737 0.984 . S
N731 C724 1.356 . S
N731 H734 0.984 . S
N731 H735 0.985 . S
H732 N727 0.984 . S
H733 N727 0.985 . S
H734 N731 0.984 . S
H735 N731 0.985 . S
H736 N730 0.984 . S
H737 N730 0.984 . S
H738 N726 0.984 . S
H739 N726 0.985 . S
C740 C741 1.363 . S
C740 C746 1.379 . S
C740 N748 1.356 . S
C741 C740 1.363 . S
C741 C747 1.363 . S
C742 C743 1.363 . S
C742 C747 1.379 . S
C742 N749 1.356 . S
C743 C742 1.363 . S
C743 C746 1.363 . S
N744 C746 1.356 . S
N744 H756 0.984 . S
N744 H757 0.985 . S
N745 C747 1.356 . S
N745 H750 0.984 . S
N745 H751 0.985 . S
C746 C740 1.379 . S
C746 C743 1.363 . S
C746 N744 1.356 . S
C747 C741 1.363 . S
C747 C742 1.379 . S
C747 N745 1.356 . S
N748 C740 1.356 . S
N748 H754 0.984 . S
N748 H755 0.984 . S
N749 C742 1.356 . S
N749 H752 0.984 . S
N749 H753 0.985 . S
H750 N745 0.984 . S
H751 N745 0.985 . S
H752 N749 0.984 . S
H753 N749 0.985 . S
H754 N748 0.984 . S
H755 N748 0.984 . S
H756 N744 0.984 . S
H757 N744 0.985 . S
C758 C759 1.363 . S
C758 C764 1.379 . S
C758 N766 1.356 . S
C759 C758 1.363 . S
C759 C765 1.363 . S
C760 C761 1.363 . S
C760 C765 1.379 . S
C760 N767 1.356 . S
C761 C760 1.363 . S
C761 C764 1.363 . S
N762 C764 1.356 . S
N762 H774 0.984 . S
N762 H775 0.985 . S
N763 C765 1.356 . S
N763 H768 0.984 . S
N763 H769 0.985 . S
C764 C758 1.379 . S
C764 C761 1.363 . S
C764 N762 1.356 . S
C765 C759 1.363 . S
C765 C760 1.379 . S
C765 N763 1.356 . S
N766 C758 1.356 . S
N766 H772 0.984 . S
N766 H773 0.984 . S
N767 C760 1.356 . S
N767 H770 0.984 . S
N767 H771 0.985 . S
H768 N763 0.984 . S
H769 N763 0.985 . S
H770 N767 0.984 . S
H771 N767 0.985 . S
H772 N766 0.984 . S
H773 N766 0.984 . S
H774 N762 0.984 . S
H775 N762 0.985 . S
C776 C777 1.363 . S
C776 C782 1.379 . S
C776 N784 1.356 . S
C777 C776 1.363 . S
C777 C783 1.363 . S
C778 C779 1.363 . S
C778 C783 1.379 . S
C778 N785 1.356 . S
C779 C778 1.363 . S
C779 C782 1.363 . S
N780 C782 1.356 . S
N780 H792 0.984 . S
N780 H793 0.985 . S
N781 C783 1.356 . S
N781 H786 0.984 . S
N781 H787 0.985 . S
C782 C776 1.379 . S
C782 C779 1.363 . S
C782 N780 1.356 . S
C783 C777 1.363 . S
C783 C778 1.379 . S
C783 N781 1.356 . S
N784 C776 1.356 . S
N784 H790 0.984 . S
N784 H791 0.984 . S
N785 C778 1.356 . S
N785 H788 0.984 . S
N785 H789 0.985 . S
H786 N781 0.984 . S
H787 N781 0.985 . S
H788 N785 0.984 . S
H789 N785 0.985 . S
H790 N784 0.984 . S
H791 N784 0.984 . S
H792 N780 0.984 . S
H793 N780 0.985 . S
C794 C795 1.363 . S
C794 C800 1.379 . S
C794 N802 1.356 . S
C795 C794 1.363 . S
C795 C801 1.363 . S
C796 C797 1.363 . S
C796 C801 1.379 . S
C796 N803 1.356 . S
C797 C796 1.363 . S
C797 C800 1.363 . S
N798 C800 1.356 . S
N798 H810 0.984 . S
N798 H811 0.985 . S
N799 C801 1.356 . S
N799 H804 0.984 . S
N799 H805 0.985 . S
C800 C794 1.379 . S
C800 C797 1.363 . S
C800 N798 1.356 . S
C801 C795 1.363 . S
C801 C796 1.379 . S
C801 N799 1.356 . S
N802 C794 1.356 . S
N802 H808 0.984 . S
N802 H809 0.984 . S
N803 C796 1.356 . S
N803 H806 0.984 . S
N803 H807 0.985 . S
H804 N799 0.984 . S
H805 N799 0.985 . S
H806 N803 0.984 . S
H807 N803 0.985 . S
H808 N802 0.984 . S
H809 N802 0.984 . S
H810 N798 0.984 . S
H811 N798 0.985 . S
C812 C813 1.363 . S
C812 C818 1.379 . S
C812 N820 1.356 . S
C813 C812 1.363 . S
C813 C819 1.363 . S
C814 C815 1.363 . S
C814 C819 1.379 . S
C814 N821 1.356 . S
C815 C814 1.363 . S
C815 C818 1.363 . S
N816 C818 1.356 . S
N816 H828 0.984 . S
N816 H829 0.985 . S
N817 C819 1.356 . S
N817 H822 0.984 . S
N817 H823 0.985 . S
C818 C812 1.379 . S
C818 C815 1.363 . S
C818 N816 1.356 . S
C819 C813 1.363 . S
C819 C814 1.379 . S
C819 N817 1.356 . S
N820 C812 1.356 . S
N820 H826 0.984 . S
N820 H827 0.984 . S
N821 C814 1.356 . S
N821 H824 0.984 . S
N821 H825 0.985 . S
H822 N817 0.984 . S
H823 N817 0.985 . S
H824 N821 0.984 . S
H825 N821 0.985 . S
H826 N820 0.984 . S
H827 N820 0.984 . S
H828 N816 0.984 . S
H829 N816 0.985 . S
C830 C831 1.363 . S
C830 C836 1.379 1_455 S
C830 N838 1.356 . S
C831 C830 1.363 . S
C831 C837 1.363 . S
C832 C833 1.363 . S
C832 C837 1.379 1_655 S
C832 N839 1.356 . S
C833 C832 1.363 . S
C833 C836 1.363 . S
N834 C836 1.356 . S
N834 H846 0.984 . S
N834 H847 0.985 . S
N835 C837 1.356 . S
N835 H840 0.984 . S
N835 H841 0.985 . S
C836 C830 1.379 1_655 S
C836 C833 1.363 . S
C836 N834 1.356 . S
C837 C831 1.363 . S
C837 C832 1.379 1_455 S
C837 N835 1.356 . S
N838 C830 1.356 . S
N838 H844 0.984 . S
N838 H845 0.984 . S
N839 C832 1.356 . S
N839 H842 0.984 . S
N839 H843 0.985 . S
H840 N835 0.984 . S
H841 N835 0.985 . S
H842 N839 0.984 . S
H843 N839 0.985 . S
H844 N838 0.984 . S
H845 N838 0.984 . S
H846 N834 0.984 . S
H847 N834 0.985 . S
C848 C849 1.363 . S
C848 C854 1.379 . S
C848 N856 1.356 . S
C849 C848 1.363 . S
C849 C855 1.363 . S
C850 C851 1.363 . S
C850 C855 1.379 . S
C850 N857 1.356 . S
C851 C850 1.363 . S
C851 C854 1.363 . S
N852 C854 1.356 . S
N852 H864 0.984 . S
N852 H865 0.985 . S
N853 C855 1.356 . S
N853 H858 0.984 . S
N853 H859 0.985 . S
C854 C848 1.379 . S
C854 C851 1.363 . S
C854 N852 1.356 . S
C855 C849 1.363 . S
C855 C850 1.379 . S
C855 N853 1.356 . S
N856 C848 1.356 . S
N856 H862 0.984 . S
N856 H863 0.984 . S
N857 C850 1.356 . S
N857 H860 0.984 . S
N857 H861 0.985 . S
H858 N853 0.984 . S
H859 N853 0.985 . S
H860 N857 0.984 . S
H861 N857 0.985 . S
H862 N856 0.984 . S
H863 N856 0.984 . S
H864 N852 0.984 . S
H865 N852 0.985 . S
C866 C867 1.363 . S
C866 C872 1.379 1_655 S
C866 N874 1.356 . S
C867 C866 1.363 . S
C867 C873 1.363 . S
C868 C869 1.363 . S
C868 C873 1.379 1_455 S
C868 N875 1.356 . S
C869 C868 1.363 . S
C869 C872 1.363 . S
N870 C872 1.356 . S
N870 H882 0.984 . S
N870 H883 0.985 . S
N871 C873 1.356 . S
N871 H876 0.984 . S
N871 H877 0.985 . S
C872 C866 1.379 1_455 S
C872 C869 1.363 . S
C872 N870 1.356 . S
C873 C867 1.363 . S
C873 C868 1.379 1_655 S
C873 N871 1.356 . S
N874 C866 1.356 . S
N874 H880 0.984 . S
N874 H881 0.984 . S
N875 C868 1.356 . S
N875 H878 0.984 . S
N875 H879 0.985 . S
H876 N871 0.984 . S
H877 N871 0.985 . S
H878 N875 0.984 . S
H879 N875 0.985 . S
H880 N874 0.984 . S
H881 N874 0.984 . S
H882 N870 0.984 . S
H883 N870 0.985 . S
C884 C885 1.363 . S
C884 C890 1.379 . S
C884 N892 1.356 . S
C885 C884 1.363 . S
C885 C891 1.363 . S
C886 C887 1.363 . S
C886 C891 1.379 . S
C886 N893 1.356 . S
C887 C886 1.363 . S
C887 C890 1.363 . S
N888 C890 1.356 . S
N888 H900 0.984 . S
N888 H901 0.985 . S
N889 C891 1.356 . S
N889 H894 0.984 . S
N889 H895 0.985 . S
C890 C884 1.379 . S
C890 C887 1.363 . S
C890 N888 1.356 . S
C891 C885 1.363 . S
C891 C886 1.379 . S
C891 N889 1.356 . S
N892 C884 1.356 . S
N892 H898 0.984 . S
N892 H899 0.984 . S
N893 C886 1.356 . S
N893 H896 0.984 . S
N893 H897 0.985 . S
H894 N889 0.984 . S
H895 N889 0.985 . S
H896 N893 0.984 . S
H897 N893 0.985 . S
H898 N892 0.984 . S
H899 N892 0.984 . S
H900 N888 0.984 . S
H901 N888 0.985 . S
C902 C903 1.363 . S
C902 C908 1.379 . S
C902 N910 1.356 . S
C903 C902 1.363 . S
C903 C909 1.363 . S
C904 C905 1.363 . S
C904 C909 1.379 . S
C904 N911 1.356 . S
C905 C904 1.363 . S
C905 C908 1.363 . S
N906 C908 1.356 . S
N906 H918 0.984 1_556 S
N906 H919 0.985 . S
N907 C909 1.356 . S
N907 H912 0.984 . S
N907 H913 0.985 . S
C908 C902 1.379 . S
C908 C905 1.363 . S
C908 N906 1.356 . S
C909 C903 1.363 . S
C909 C904 1.379 . S
C909 N907 1.356 . S
N910 C902 1.356 . S
N910 H916 0.984 1_556 S
N910 H917 0.984 . S
N911 C904 1.356 . S
N911 H914 0.984 . S
N911 H915 0.985 . S
H912 N907 0.984 . S
H913 N907 0.985 . S
H914 N911 0.984 . S
H915 N911 0.985 . S
H916 N910 0.984 1_554 S
H917 N910 0.984 . S
H918 N906 0.984 1_554 S
H919 N906 0.985 . S
C920 C921 1.363 . S
C920 C926 1.379 . S
C920 N928 1.356 . S
C921 C920 1.363 . S
C921 C927 1.363 . S
C922 C923 1.363 . S
C922 C927 1.379 . S
C922 N929 1.356 . S
C923 C922 1.363 . S
C923 C926 1.363 . S
N924 C926 1.356 . S
N924 H936 0.984 . S
N924 H937 0.985 . S
N925 C927 1.356 . S
N925 H930 0.984 . S
N925 H931 0.985 . S
C926 C920 1.379 . S
C926 C923 1.363 . S
C926 N924 1.356 . S
C927 C921 1.363 . S
C927 C922 1.379 . S
C927 N925 1.356 . S
N928 C920 1.356 . S
N928 H934 0.984 . S
N928 H935 0.984 . S
N929 C922 1.356 . S
N929 H932 0.984 . S
N929 H933 0.985 . S
H930 N925 0.984 . S
H931 N925 0.985 . S
H932 N929 0.984 . S
H933 N929 0.985 . S
H934 N928 0.984 . S
H935 N928 0.984 . S
H936 N924 0.984 . S
H937 N924 0.985 . S
C938 C939 1.363 . S
C938 C944 1.379 . S
C938 N946 1.356 . S
C939 C938 1.363 . S
C939 C945 1.363 . S
C940 C941 1.363 . S
C940 C945 1.379 . S
C940 N947 1.356 . S
C941 C940 1.363 . S
C941 C944 1.363 . S
N942 C944 1.356 . S
N942 H954 0.984 . S
N942 H955 0.985 . S
N943 C945 1.356 . S
N943 H948 0.984 . S
N943 H949 0.985 . S
C944 C938 1.379 . S
C944 C941 1.363 . S
C944 N942 1.356 . S
C945 C939 1.363 . S
C945 C940 1.379 . S
C945 N943 1.356 . S
N946 C938 1.356 . S
N946 H952 0.984 . S
N946 H953 0.984 . S
N947 C940 1.356 . S
N947 H950 0.984 . S
N947 H951 0.985 . S
H948 N943 0.984 . S
H949 N943 0.985 . S
H950 N947 0.984 . S
H951 N947 0.985 . S
H952 N946 0.984 . S
H953 N946 0.984 . S
H954 N942 0.984 . S
H955 N942 0.985 . S
C956 C957 1.363 . S
C956 C962 1.379 . S
C956 N964 1.356 . S
C957 C956 1.363 . S
C957 C963 1.363 . S
C958 C959 1.363 . S
C958 C963 1.379 . S
C958 N965 1.356 . S
C959 C958 1.363 . S
C959 C962 1.363 . S
N960 C962 1.356 . S
N960 H972 0.984 . S
N960 H973 0.985 . S
N961 C963 1.356 . S
N961 H966 0.984 . S
N961 H967 0.985 . S
C962 C956 1.379 . S
C962 C959 1.363 . S
C962 N960 1.356 . S
C963 C957 1.363 . S
C963 C958 1.379 . S
C963 N961 1.356 . S
N964 C956 1.356 . S
N964 H970 0.984 . S
N964 H971 0.984 . S
N965 C958 1.356 . S
N965 H968 0.984 . S
N965 H969 0.985 . S
H966 N961 0.984 . S
H967 N961 0.985 . S
H968 N965 0.984 . S
H969 N965 0.985 . S
H970 N964 0.984 . S
H971 N964 0.984 . S
H972 N960 0.984 . S
H973 N960 0.985 . S
C974 C975 1.363 . S
C974 C980 1.379 1_655 S
C974 N982 1.356 . S
C975 C974 1.363 . S
C975 C981 1.363 . S
C976 C977 1.363 . S
C976 C981 1.379 1_455 S
C976 N983 1.356 . S
C977 C976 1.363 . S
C977 C980 1.363 . S
N978 C980 1.356 . S
N978 H990 0.984 . S
N978 H991 0.985 . S
N979 C981 1.356 . S
N979 H984 0.984 . S
N979 H985 0.985 1_554 S
C980 C974 1.379 1_455 S
C980 C977 1.363 . S
C980 N978 1.356 . S
C981 C975 1.363 . S
C981 C976 1.379 1_655 S
C981 N979 1.356 . S
N982 C974 1.356 . S
N982 H988 0.984 . S
N982 H989 0.984 . S
N983 C976 1.356 . S
N983 H986 0.984 . S
N983 H987 0.985 1_554 S
H984 N979 0.984 . S
H985 N979 0.985 1_556 S
H986 N983 0.984 . S
H987 N983 0.985 1_556 S
H988 N982 0.984 . S
H989 N982 0.984 . S
H990 N978 0.984 . S
H991 N978 0.985 . S
C992 C993 1.363 . S
C992 C998 1.379 . S
C992 N1000 1.356 . S
C993 C992 1.363 . S
C993 C999 1.363 . S
C994 C995 1.363 . S
C994 C999 1.379 . S
C994 N1001 1.356 . S
C995 C994 1.363 . S
C995 C998 1.363 . S
N996 C998 1.356 . S
N996 H1008 0.984 . S
N996 H1009 0.985 . S
N997 C999 1.356 . S
N997 H1002 0.984 . S
N997 H1003 0.985 . S
C998 C992 1.379 . S
C998 C995 1.363 . S
C998 N996 1.356 . S
C999 C993 1.363 . S
C999 C994 1.379 . S
C999 N997 1.356 . S
N1000 C992 1.356 . S
N1000 H1006 0.984 . S
N1000 H1007 0.984 . S
N1001 C994 1.356 . S
N1001 H1004 0.984 . S
N1001 H1005 0.985 . S
H1002 N997 0.984 . S
H1003 N997 0.985 . S
H1004 N1001 0.984 . S
H1005 N1001 0.985 . S
H1006 N1000 0.984 . S
H1007 N1000 0.984 . S
H1008 N996 0.984 . S
H1009 N996 0.985 . S
C1010 C1011 1.363 . S
C1010 C1016 1.379 . S
C1010 N1018 1.356 . S
C1011 C1010 1.363 . S
C1011 C1017 1.363 . S
C1012 C1013 1.363 . S
C1012 C1017 1.379 . S
C1012 N1019 1.356 . S
C1013 C1012 1.363 . S
C1013 C1016 1.363 . S
N1014 C1016 1.356 . S
N1014 H1026 0.984 . S
N1014 H1027 0.985 . S
N1015 C1017 1.356 . S
N1015 H1020 0.984 . S
N1015 H1021 0.985 . S
C1016 C1010 1.379 . S
C1016 C1013 1.363 . S
C1016 N1014 1.356 . S
C1017 C1011 1.363 . S
C1017 C1012 1.379 . S
C1017 N1015 1.356 . S
N1018 C1010 1.356 . S
N1018 H1024 0.984 . S
N1018 H1025 0.984 . S
N1019 C1012 1.356 . S
N1019 H1022 0.984 . S
N1019 H1023 0.985 . S
H1020 N1015 0.984 . S
H1021 N1015 0.985 . S
H1022 N1019 0.984 . S
H1023 N1019 0.985 . S
H1024 N1018 0.984 . S
H1025 N1018 0.984 . S
H1026 N1014 0.984 . S
H1027 N1014 0.985 . S
C1028 C1029 1.363 . S
C1028 C1034 1.379 . S
C1028 N1036 1.356 . S
C1029 C1028 1.363 . S
C1029 C1035 1.363 . S
C1030 C1031 1.363 . S
C1030 C1035 1.379 . S
C1030 N1037 1.356 . S
C1031 C1030 1.363 . S
C1031 C1034 1.363 . S
N1032 C1034 1.356 . S
N1032 H1044 0.984 . S
N1032 H1045 0.985 . S
N1033 C1035 1.356 . S
N1033 H1038 0.984 . S
N1033 H1039 0.985 . S
C1034 C1028 1.379 . S
C1034 C1031 1.363 . S
C1034 N1032 1.356 . S
C1035 C1029 1.363 . S
C1035 C1030 1.379 . S
C1035 N1033 1.356 . S
N1036 C1028 1.356 . S
N1036 H1042 0.984 . S
N1036 H1043 0.984 . S
N1037 C1030 1.356 . S
N1037 H1040 0.984 . S
N1037 H1041 0.985 . S
H1038 N1033 0.984 . S
H1039 N1033 0.985 . S
H1040 N1037 0.984 . S
H1041 N1037 0.985 . S
H1042 N1036 0.984 . S
H1043 N1036 0.984 . S
H1044 N1032 0.984 . S
H1045 N1032 0.985 . S
C1046 C1047 1.363 . S
C1046 C1052 1.379 1_655 S
C1046 N1054 1.356 . S
C1047 C1046 1.363 . S
C1047 C1053 1.363 . S
C1048 C1049 1.363 . S
C1048 C1053 1.379 1_455 S
C1048 N1055 1.356 . S
C1049 C1048 1.363 . S
C1049 C1052 1.363 . S
N1050 C1052 1.356 . S
N1050 H1062 0.984 . S
N1050 H1063 0.985 . S
N1051 C1053 1.356 . S
N1051 H1056 0.984 . S
N1051 H1057 0.985 . S
C1052 C1046 1.379 1_455 S
C1052 C1049 1.363 . S
C1052 N1050 1.356 . S
C1053 C1047 1.363 . S
C1053 C1048 1.379 1_655 S
C1053 N1051 1.356 . S
N1054 C1046 1.356 . S
N1054 H1060 0.984 . S
N1054 H1061 0.984 . S
N1055 C1048 1.356 . S
N1055 H1058 0.984 . S
N1055 H1059 0.985 . S
H1056 N1051 0.984 . S
H1057 N1051 0.985 . S
H1058 N1055 0.984 . S
H1059 N1055 0.985 . S
H1060 N1054 0.984 . S
H1061 N1054 0.984 . S
H1062 N1050 0.984 . S
H1063 N1050 0.985 . S
C1064 C1065 1.363 . S
C1064 C1070 1.379 . S
C1064 N1072 1.356 . S
C1065 C1064 1.363 . S
C1065 C1071 1.363 . S
C1066 C1067 1.363 . S
C1066 C1071 1.379 . S
C1066 N1073 1.356 . S
C1067 C1066 1.363 . S
C1067 C1070 1.363 . S
N1068 C1070 1.356 . S
N1068 H1080 0.984 . S
N1068 H1081 0.985 . S
N1069 C1071 1.356 . S
N1069 H1074 0.984 . S
N1069 H1075 0.985 . S
C1070 C1064 1.379 . S
C1070 C1067 1.363 . S
C1070 N1068 1.356 . S
C1071 C1065 1.363 . S
C1071 C1066 1.379 . S
C1071 N1069 1.356 . S
N1072 C1064 1.356 . S
N1072 H1078 0.984 . S
N1072 H1079 0.984 . S
N1073 C1066 1.356 . S
N1073 H1076 0.984 . S
N1073 H1077 0.985 . S
H1074 N1069 0.984 . S
H1075 N1069 0.985 . S
H1076 N1073 0.984 . S
H1077 N1073 0.985 . S
H1078 N1072 0.984 . S
H1079 N1072 0.984 . S
H1080 N1068 0.984 . S
H1081 N1068 0.985 . S
C1082 C1083 1.363 . S
C1082 C1088 1.379 1_455 S
C1082 N1090 1.356 . S
C1083 C1082 1.363 . S
C1083 C1089 1.363 . S
C1084 C1085 1.363 . S
C1084 C1089 1.379 1_655 S
C1084 N1091 1.356 . S
C1085 C1084 1.363 . S
C1085 C1088 1.363 . S
N1086 C1088 1.356 . S
N1086 H1098 0.984 . S
N1086 H1099 0.985 . S
N1087 C1089 1.356 . S
N1087 H1092 0.984 . S
N1087 H1093 0.985 1_556 S
C1088 C1082 1.379 1_655 S
C1088 C1085 1.363 . S
C1088 N1086 1.356 . S
C1089 C1083 1.363 . S
C1089 C1084 1.379 1_455 S
C1089 N1087 1.356 . S
N1090 C1082 1.356 . S
N1090 H1096 0.984 . S
N1090 H1097 0.984 . S
N1091 C1084 1.356 . S
N1091 H1094 0.984 . S
N1091 H1095 0.985 1_556 S
H1092 N1087 0.984 . S
H1093 N1087 0.985 1_554 S
H1094 N1091 0.984 . S
H1095 N1091 0.985 1_554 S
H1096 N1090 0.984 . S
H1097 N1090 0.984 . S
H1098 N1086 0.984 . S
H1099 N1086 0.985 . S
C1100 C1101 1.363 . S
C1100 C1106 1.379 . S
C1100 N1108 1.356 . S
C1101 C1100 1.363 . S
C1101 C1107 1.363 . S
C1102 C1103 1.363 . S
C1102 C1107 1.379 . S
C1102 N1109 1.356 . S
C1103 C1102 1.363 . S
C1103 C1106 1.363 . S
N1104 C1106 1.356 . S
N1104 H1116 0.984 . S
N1104 H1117 0.985 . S
N1105 C1107 1.356 . S
N1105 H1110 0.984 . S
N1105 H1111 0.985 . S
C1106 C1100 1.379 . S
C1106 C1103 1.363 . S
C1106 N1104 1.356 . S
C1107 C1101 1.363 . S
C1107 C1102 1.379 . S
C1107 N1105 1.356 . S
N1108 C1100 1.356 . S
N1108 H1114 0.984 . S
N1108 H1115 0.984 . S
N1109 C1102 1.356 . S
N1109 H1112 0.984 . S
N1109 H1113 0.985 . S
H1110 N1105 0.984 . S
H1111 N1105 0.985 . S
H1112 N1109 0.984 . S
H1113 N1109 0.985 . S
H1114 N1108 0.984 . S
H1115 N1108 0.984 . S
H1116 N1104 0.984 . S
H1117 N1104 0.985 . S
C1118 C1119 1.363 . S
C1118 C1124 1.379 . S
C1118 N1126 1.356 . S
C1119 C1118 1.363 . S
C1119 C1125 1.363 . S
C1120 C1121 1.363 . S
C1120 C1125 1.379 . S
C1120 N1127 1.356 . S
C1121 C1120 1.363 . S
C1121 C1124 1.363 . S
N1122 C1124 1.356 . S
N1122 H1134 0.984 . S
N1122 H1135 0.985 . S
N1123 C1125 1.356 . S
N1123 H1128 0.984 . S
N1123 H1129 0.985 . S
C1124 C1118 1.379 . S
C1124 C1121 1.363 . S
C1124 N1122 1.356 . S
C1125 C1119 1.363 . S
C1125 C1120 1.379 . S
C1125 N1123 1.356 . S
N1126 C1118 1.356 . S
N1126 H1132 0.984 . S
N1126 H1133 0.984 . S
N1127 C1120 1.356 . S
N1127 H1130 0.984 . S
N1127 H1131 0.985 . S
H1128 N1123 0.984 . S
H1129 N1123 0.985 . S
H1130 N1127 0.984 . S
H1131 N1127 0.985 . S
H1132 N1126 0.984 . S
H1133 N1126 0.984 . S
H1134 N1122 0.984 . S
H1135 N1122 0.985 . S
C1136 C1137 1.363 . S
C1136 C1142 1.379 . S
C1136 N1144 1.356 . S
C1137 C1136 1.363 . S
C1137 C1143 1.363 . S
C1138 C1139 1.363 . S
C1138 C1143 1.379 . S
C1138 N1145 1.356 . S
C1139 C1138 1.363 . S
C1139 C1142 1.363 . S
N1140 C1142 1.356 . S
N1140 H1152 0.984 . S
N1140 H1153 0.985 . S
N1141 C1143 1.356 . S
N1141 H1146 0.984 . S
N1141 H1147 0.985 . S
C1142 C1136 1.379 . S
C1142 C1139 1.363 . S
C1142 N1140 1.356 . S
C1143 C1137 1.363 . S
C1143 C1138 1.379 . S
C1143 N1141 1.356 . S
N1144 C1136 1.356 . S
N1144 H1150 0.984 . S
N1144 H1151 0.984 . S
N1145 C1138 1.356 . S
N1145 H1148 0.984 . S
N1145 H1149 0.985 . S
H1146 N1141 0.984 . S
H1147 N1141 0.985 . S
H1148 N1145 0.984 . S
H1149 N1145 0.985 . S
H1150 N1144 0.984 . S
H1151 N1144 0.984 . S
H1152 N1140 0.984 . S
H1153 N1140 0.985 . S
C1154 C1155 1.363 . S
C1154 C1160 1.379 . S
C1154 N1162 1.356 . S
C1155 C1154 1.363 . S
C1155 C1161 1.363 . S
C1156 C1157 1.363 . S
C1156 C1161 1.379 . S
C1156 N1163 1.356 . S
C1157 C1156 1.363 . S
C1157 C1160 1.363 . S
N1158 C1160 1.356 . S
N1158 H1170 0.984 . S
N1158 H1171 0.985 . S
N1159 C1161 1.356 . S
N1159 H1164 0.984 . S
N1159 H1165 0.985 1_556 S
C1160 C1154 1.379 . S
C1160 C1157 1.363 . S
C1160 N1158 1.356 . S
C1161 C1155 1.363 . S
C1161 C1156 1.379 . S
C1161 N1159 1.356 . S
N1162 C1154 1.356 . S
N1162 H1168 0.984 . S
N1162 H1169 0.984 . S
N1163 C1156 1.356 . S
N1163 H1166 0.984 . S
N1163 H1167 0.985 1_556 S
H1164 N1159 0.984 . S
H1165 N1159 0.985 1_554 S
H1166 N1163 0.984 . S
H1167 N1163 0.985 1_554 S
H1168 N1162 0.984 . S
H1169 N1162 0.984 . S
H1170 N1158 0.984 . S
H1171 N1158 0.985 . S
C1172 C1173 1.363 . S
C1172 C1178 1.379 . S
C1172 N1180 1.356 . S
C1173 C1172 1.363 . S
C1173 C1179 1.363 . S
C1174 C1175 1.363 . S
C1174 C1179 1.379 . S
C1174 N1181 1.356 . S
C1175 C1174 1.363 . S
C1175 C1178 1.363 . S
N1176 C1178 1.356 . S
N1176 H1188 0.984 . S
N1176 H1189 0.985 . S
N1177 C1179 1.356 . S
N1177 H1182 0.984 . S
N1177 H1183 0.985 . S
C1178 C1172 1.379 . S
C1178 C1175 1.363 . S
C1178 N1176 1.356 . S
C1179 C1173 1.363 . S
C1179 C1174 1.379 . S
C1179 N1177 1.356 . S
N1180 C1172 1.356 . S
N1180 H1186 0.984 . S
N1180 H1187 0.984 . S
N1181 C1174 1.356 . S
N1181 H1184 0.984 . S
N1181 H1185 0.985 . S
H1182 N1177 0.984 . S
H1183 N1177 0.985 . S
H1184 N1181 0.984 . S
H1185 N1181 0.985 . S
H1186 N1180 0.984 . S
H1187 N1180 0.984 . S
H1188 N1176 0.984 . S
H1189 N1176 0.985 . S
C1190 C1191 1.363 . S
C1190 C1196 1.379 1_455 S
C1190 N1198 1.356 . S
C1191 C1190 1.363 . S
C1191 C1197 1.363 . S
C1192 C1193 1.363 . S
C1192 C1197 1.379 1_655 S
C1192 N1199 1.356 . S
C1193 C1192 1.363 . S
C1193 C1196 1.363 . S
N1194 C1196 1.356 . S
N1194 H1206 0.984 . S
N1194 H1207 0.985 . S
N1195 C1197 1.356 . S
N1195 H1200 0.984 . S
N1195 H1201 0.985 . S
C1196 C1190 1.379 1_655 S
C1196 C1193 1.363 . S
C1196 N1194 1.356 . S
C1197 C1191 1.363 . S
C1197 C1192 1.379 1_455 S
C1197 N1195 1.356 . S
N1198 C1190 1.356 . S
N1198 H1204 0.984 . S
N1198 H1205 0.984 . S
N1199 C1192 1.356 . S
N1199 H1202 0.984 . S
N1199 H1203 0.985 . S
H1200 N1195 0.984 . S
H1201 N1195 0.985 . S
H1202 N1199 0.984 . S
H1203 N1199 0.985 . S
H1204 N1198 0.984 . S
H1205 N1198 0.984 . S
H1206 N1194 0.984 . S
H1207 N1194 0.985 . S
C1208 C1209 1.363 . S
C1208 C1214 1.379 . S
C1208 N1216 1.356 . S
C1209 C1208 1.363 . S
C1209 C1215 1.363 . S
C1210 C1211 1.363 . S
C1210 C1215 1.379 . S
C1210 N1217 1.356 . S
C1211 C1210 1.363 . S
C1211 C1214 1.363 . S
N1212 C1214 1.356 . S
N1212 H1224 0.984 . S
N1212 H1225 0.985 . S
N1213 C1215 1.356 . S
N1213 H1218 0.984 . S
N1213 H1219 0.985 . S
C1214 C1208 1.379 . S
C1214 C1211 1.363 . S
C1214 N1212 1.356 . S
C1215 C1209 1.363 . S
C1215 C1210 1.379 . S
C1215 N1213 1.356 . S
N1216 C1208 1.356 . S
N1216 H1222 0.984 . S
N1216 H1223 0.984 . S
N1217 C1210 1.356 . S
N1217 H1220 0.984 . S
N1217 H1221 0.985 . S
H1218 N1213 0.984 . S
H1219 N1213 0.985 . S
H1220 N1217 0.984 . S
H1221 N1217 0.985 . S
H1222 N1216 0.984 . S
H1223 N1216 0.984 . S
H1224 N1212 0.984 . S
H1225 N1212 0.985 . S
C1226 C1227 1.363 . S
C1226 C1232 1.379 1_655 S
C1226 N1234 1.356 . S
C1227 C1226 1.363 . S
C1227 C1233 1.363 . S
C1228 C1229 1.363 . S
C1228 C1233 1.379 1_455 S
C1228 N1235 1.356 . S
C1229 C1228 1.363 . S
C1229 C1232 1.363 . S
N1230 C1232 1.356 . S
N1230 H1242 0.984 . S
N1230 H1243 0.985 . S
N1231 C1233 1.356 . S
N1231 H1236 0.984 . S
N1231 H1237 0.985 . S
C1232 C1226 1.379 1_455 S
C1232 C1229 1.363 . S
C1232 N1230 1.356 . S
C1233 C1227 1.363 . S
C1233 C1228 1.379 1_655 S
C1233 N1231 1.356 . S
N1234 C1226 1.356 . S
N1234 H1240 0.984 . S
N1234 H1241 0.984 . S
N1235 C1228 1.356 . S
N1235 H1238 0.984 . S
N1235 H1239 0.985 . S
H1236 N1231 0.984 . S
H1237 N1231 0.985 . S
H1238 N1235 0.984 . S
H1239 N1235 0.985 . S
H1240 N1234 0.984 . S
H1241 N1234 0.984 . S
H1242 N1230 0.984 . S
H1243 N1230 0.985 . S
C1244 C1245 1.363 . S
C1244 C1250 1.379 . S
C1244 N1252 1.356 . S
C1245 C1244 1.363 . S
C1245 C1251 1.363 . S
C1246 C1247 1.363 . S
C1246 C1251 1.379 . S
C1246 N1253 1.356 . S
C1247 C1246 1.363 . S
C1247 C1250 1.363 . S
N1248 C1250 1.356 . S
N1248 H1260 0.984 . S
N1248 H1261 0.985 . S
N1249 C1251 1.356 . S
N1249 H1254 0.984 . S
N1249 H1255 0.985 . S
C1250 C1244 1.379 . S
C1250 C1247 1.363 . S
C1250 N1248 1.356 . S
C1251 C1245 1.363 . S
C1251 C1246 1.379 . S
C1251 N1249 1.356 . S
N1252 C1244 1.356 . S
N1252 H1258 0.984 . S
N1252 H1259 0.984 . S
N1253 C1246 1.356 . S
N1253 H1256 0.984 . S
N1253 H1257 0.985 . S
H1254 N1249 0.984 . S
H1255 N1249 0.985 . S
H1256 N1253 0.984 . S
H1257 N1253 0.985 . S
H1258 N1252 0.984 . S
H1259 N1252 0.984 . S
H1260 N1248 0.984 . S
H1261 N1248 0.985 . S
C1262 C1263 1.363 . S
C1262 C1268 1.379 . S
C1262 N1270 1.356 . S
C1263 C1262 1.363 . S
C1263 C1269 1.363 . S
C1264 C1265 1.363 . S
C1264 C1269 1.379 . S
C1264 N1271 1.356 . S
C1265 C1264 1.363 . S
C1265 C1268 1.363 . S
N1266 C1268 1.356 . S
N1266 H1278 0.984 . S
N1266 H1279 0.985 . S
N1267 C1269 1.356 . S
N1267 H1272 0.984 . S
N1267 H1273 0.985 . S
C1268 C1262 1.379 . S
C1268 C1265 1.363 . S
C1268 N1266 1.356 . S
C1269 C1263 1.363 . S
C1269 C1264 1.379 . S
C1269 N1267 1.356 . S
N1270 C1262 1.356 . S
N1270 H1276 0.984 . S
N1270 H1277 0.984 . S
N1271 C1264 1.356 . S
N1271 H1274 0.984 . S
N1271 H1275 0.985 . S
H1272 N1267 0.984 . S
H1273 N1267 0.985 . S
H1274 N1271 0.984 . S
H1275 N1271 0.985 . S
H1276 N1270 0.984 . S
H1277 N1270 0.984 . S
H1278 N1266 0.984 . S
H1279 N1266 0.985 . S
C1280 C1281 1.363 . S
C1280 C1286 1.379 . S
C1280 N1288 1.356 . S
C1281 C1280 1.363 . S
C1281 C1287 1.363 . S
C1282 C1283 1.363 . S
C1282 C1287 1.379 . S
C1282 N1289 1.356 . S
C1283 C1282 1.363 . S
C1283 C1286 1.363 . S
N1284 C1286 1.356 . S
N1284 H1296 0.984 . S
N1284 H1297 0.985 . S
N1285 C1287 1.356 . S
N1285 H1290 0.984 . S
N1285 H1291 0.985 . S
C1286 C1280 1.379 . S
C1286 C1283 1.363 . S
C1286 N1284 1.356 . S
C1287 C1281 1.363 . S
C1287 C1282 1.379 . S
C1287 N1285 1.356 . S
N1288 C1280 1.356 . S
N1288 H1294 0.984 . S
N1288 H1295 0.984 . S
N1289 C1282 1.356 . S
N1289 H1292 0.984 . S
N1289 H1293 0.985 . S
H1290 N1285 0.984 . S
H1291 N1285 0.985 . S
H1292 N1289 0.984 . S
H1293 N1289 0.985 . S
H1294 N1288 0.984 . S
H1295 N1288 0.984 . S
H1296 N1284 0.984 . S
H1297 N1284 0.985 . S
C1298 C1299 1.363 . S
C1298 C1304 1.379 . S
C1298 N1306 1.356 . S
C1299 C1298 1.363 . S
C1299 C1305 1.363 . S
C1300 C1301 1.363 . S
C1300 C1305 1.379 . S
C1300 N1307 1.356 . S
C1301 C1300 1.363 . S
C1301 C1304 1.363 . S
N1302 C1304 1.356 . S
N1302 H1314 0.984 . S
N1302 H1315 0.985 . S
N1303 C1305 1.356 . S
N1303 H1308 0.984 . S
N1303 H1309 0.985 . S
C1304 C1298 1.379 . S
C1304 C1301 1.363 . S
C1304 N1302 1.356 . S
C1305 C1299 1.363 . S
C1305 C1300 1.379 . S
C1305 N1303 1.356 . S
N1306 C1298 1.356 . S
N1306 H1312 0.984 . S
N1306 H1313 0.984 . S
N1307 C1300 1.356 . S
N1307 H1310 0.984 . S
N1307 H1311 0.985 . S
H1308 N1303 0.984 . S
H1309 N1303 0.985 . S
H1310 N1307 0.984 . S
H1311 N1307 0.985 . S
H1312 N1306 0.984 . S
H1313 N1306 0.984 . S
H1314 N1302 0.984 . S
H1315 N1302 0.985 . S
C1316 C1317 1.363 . S
C1316 C1322 1.379 . S
C1316 N1324 1.356 . S
C1317 C1316 1.363 . S
C1317 C1323 1.363 . S
C1318 C1319 1.363 . S
C1318 C1323 1.379 . S
C1318 N1325 1.356 . S
C1319 C1318 1.363 . S
C1319 C1322 1.363 . S
N1320 C1322 1.356 . S
N1320 H1332 0.984 . S
N1320 H1333 0.985 . S
N1321 C1323 1.356 . S
N1321 H1326 0.984 . S
N1321 H1327 0.985 . S
C1322 C1316 1.379 . S
C1322 C1319 1.363 . S
C1322 N1320 1.356 . S
C1323 C1317 1.363 . S
C1323 C1318 1.379 . S
C1323 N1321 1.356 . S
N1324 C1316 1.356 . S
N1324 H1330 0.984 . S
N1324 H1331 0.984 . S
N1325 C1318 1.356 . S
N1325 H1328 0.984 . S
N1325 H1329 0.985 . S
H1326 N1321 0.984 . S
H1327 N1321 0.985 . S
H1328 N1325 0.984 . S
H1329 N1325 0.985 . S
H1330 N1324 0.984 . S
H1331 N1324 0.984 . S
H1332 N1320 0.984 . S
H1333 N1320 0.985 . S
C1334 C1335 1.363 . S
C1334 C1340 1.379 . S
C1334 N1342 1.356 . S
C1335 C1334 1.363 . S
C1335 C1341 1.363 . S
C1336 C1337 1.363 . S
C1336 C1341 1.379 . S
C1336 N1343 1.356 . S
C1337 C1336 1.363 . S
C1337 C1340 1.363 . S
N1338 C1340 1.356 . S
N1338 H1350 0.984 . S
N1338 H1351 0.985 . S
N1339 C1341 1.356 . S
N1339 H1344 0.984 . S
N1339 H1345 0.985 . S
C1340 C1334 1.379 . S
C1340 C1337 1.363 . S
C1340 N1338 1.356 . S
C1341 C1335 1.363 . S
C1341 C1336 1.379 . S
C1341 N1339 1.356 . S
N1342 C1334 1.356 . S
N1342 H1348 0.984 . S
N1342 H1349 0.984 . S
N1343 C1336 1.356 . S
N1343 H1346 0.984 . S
N1343 H1347 0.985 . S
H1344 N1339 0.984 . S
H1345 N1339 0.985 . S
H1346 N1343 0.984 . S
H1347 N1343 0.985 . S
H1348 N1342 0.984 . S
H1349 N1342 0.984 . S
H1350 N1338 0.984 . S
H1351 N1338 0.985 . S
C1352 C1353 1.363 . S
C1352 C1358 1.379 . S
C1352 N1360 1.356 . S
C1353 C1352 1.363 . S
C1353 C1359 1.363 . S
C1354 C1355 1.363 . S
C1354 C1359 1.379 . S
C1354 N1361 1.356 . S
C1355 C1354 1.363 . S
C1355 C1358 1.363 . S
N1356 C1358 1.356 . S
N1356 H1368 0.984 . S
N1356 H1369 0.985 . S
N1357 C1359 1.356 . S
N1357 H1362 0.984 . S
N1357 H1363 0.985 . S
C1358 C1352 1.379 . S
C1358 C1355 1.363 . S
C1358 N1356 1.356 . S
C1359 C1353 1.363 . S
C1359 C1354 1.379 . S
C1359 N1357 1.356 . S
N1360 C1352 1.356 . S
N1360 H1366 0.984 . S
N1360 H1367 0.984 . S
N1361 C1354 1.356 . S
N1361 H1364 0.984 . S
N1361 H1365 0.985 . S
H1362 N1357 0.984 . S
H1363 N1357 0.985 . S
H1364 N1361 0.984 . S
H1365 N1361 0.985 . S
H1366 N1360 0.984 . S
H1367 N1360 0.984 . S
H1368 N1356 0.984 . S
H1369 N1356 0.985 . S
C1370 C1371 1.363 . S
C1370 C1376 1.379 . S
C1370 N1378 1.356 . S
C1371 C1370 1.363 . S
C1371 C1377 1.363 . S
C1372 C1373 1.363 . S
C1372 C1377 1.379 . S
C1372 N1379 1.356 . S
C1373 C1372 1.363 . S
C1373 C1376 1.363 . S
N1374 C1376 1.356 . S
N1374 H1386 0.984 . S
N1374 H1387 0.985 . S
N1375 C1377 1.356 . S
N1375 H1380 0.984 . S
N1375 H1381 0.985 . S
C1376 C1370 1.379 . S
C1376 C1373 1.363 . S
C1376 N1374 1.356 . S
C1377 C1371 1.363 . S
C1377 C1372 1.379 . S
C1377 N1375 1.356 . S
N1378 C1370 1.356 . S
N1378 H1384 0.984 . S
N1378 H1385 0.984 . S
N1379 C1372 1.356 . S
N1379 H1382 0.984 . S
N1379 H1383 0.985 . S
H1380 N1375 0.984 . S
H1381 N1375 0.985 . S
H1382 N1379 0.984 . S
H1383 N1379 0.985 . S
H1384 N1378 0.984 . S
H1385 N1378 0.984 . S
H1386 N1374 0.984 . S
H1387 N1374 0.985 . S
C1388 C1389 1.363 . S
C1388 C1394 1.379 . S
C1388 N1396 1.356 . S
C1389 C1388 1.363 . S
C1389 C1395 1.363 . S
C1390 C1391 1.363 . S
C1390 C1395 1.379 . S
C1390 N1397 1.356 . S
C1391 C1390 1.363 . S
C1391 C1394 1.363 . S
N1392 C1394 1.356 . S
N1392 H1404 0.984 . S
N1392 H1405 0.985 . S
N1393 C1395 1.356 . S
N1393 H1398 0.984 . S
N1393 H1399 0.985 . S
C1394 C1388 1.379 . S
C1394 C1391 1.363 . S
C1394 N1392 1.356 . S
C1395 C1389 1.363 . S
C1395 C1390 1.379 . S
C1395 N1393 1.356 . S
N1396 C1388 1.356 . S
N1396 H1402 0.984 . S
N1396 H1403 0.984 . S
N1397 C1390 1.356 . S
N1397 H1400 0.984 . S
N1397 H1401 0.985 . S
H1398 N1393 0.984 . S
H1399 N1393 0.985 . S
H1400 N1397 0.984 . S
H1401 N1397 0.985 . S
H1402 N1396 0.984 . S
H1403 N1396 0.984 . S
H1404 N1392 0.984 . S
H1405 N1392 0.985 . S
C1406 C1407 1.363 . S
C1406 C1412 1.379 . S
C1406 N1414 1.356 . S
C1407 C1406 1.363 . S
C1407 C1413 1.363 . S
C1408 C1409 1.363 . S
C1408 C1413 1.379 . S
C1408 N1415 1.356 . S
C1409 C1408 1.363 . S
C1409 C1412 1.363 . S
N1410 C1412 1.356 . S
N1410 H1422 0.984 . S
N1410 H1423 0.985 . S
N1411 C1413 1.356 . S
N1411 H1416 0.984 . S
N1411 H1417 0.985 . S
C1412 C1406 1.379 . S
C1412 C1409 1.363 . S
C1412 N1410 1.356 . S
C1413 C1407 1.363 . S
C1413 C1408 1.379 . S
C1413 N1411 1.356 . S
N1414 C1406 1.356 . S
N1414 H1420 0.984 . S
N1414 H1421 0.984 . S
N1415 C1408 1.356 . S
N1415 H1418 0.984 . S
N1415 H1419 0.985 . S
H1416 N1411 0.984 . S
H1417 N1411 0.985 . S
H1418 N1415 0.984 . S
H1419 N1415 0.985 . S
H1420 N1414 0.984 . S
H1421 N1414 0.984 . S
H1422 N1410 0.984 . S
H1423 N1410 0.985 . S
C1424 C1425 1.363 . S
C1424 C1430 1.379 . S
C1424 N1432 1.356 . S
C1425 C1424 1.363 . S
C1425 C1431 1.363 . S
C1426 C1427 1.363 . S
C1426 C1431 1.379 . S
C1426 N1433 1.356 . S
C1427 C1426 1.363 . S
C1427 C1430 1.363 . S
N1428 C1430 1.356 . S
N1428 H1440 0.984 . S
N1428 H1441 0.985 . S
N1429 C1431 1.356 . S
N1429 H1434 0.984 . S
N1429 H1435 0.985 . S
C1430 C1424 1.379 . S
C1430 C1427 1.363 . S
C1430 N1428 1.356 . S
C1431 C1425 1.363 . S
C1431 C1426 1.379 . S
C1431 N1429 1.356 . S
N1432 C1424 1.356 . S
N1432 H1438 0.984 . S
N1432 H1439 0.984 . S
N1433 C1426 1.356 . S
N1433 H1436 0.984 . S
N1433 H1437 0.985 . S
H1434 N1429 0.984 . S
H1435 N1429 0.985 . S
H1436 N1433 0.984 . S
H1437 N1433 0.985 . S
H1438 N1432 0.984 . S
H1439 N1432 0.984 . S
H1440 N1428 0.984 . S
H1441 N1428 0.985 . S
C1442 C1443 1.363 . S
C1442 C1448 1.379 . S
C1442 N1450 1.356 . S
C1443 C1442 1.363 . S
C1443 C1449 1.363 . S
C1444 C1445 1.363 . S
C1444 C1449 1.379 . S
C1444 N1451 1.356 . S
C1445 C1444 1.363 . S
C1445 C1448 1.363 . S
N1446 C1448 1.356 . S
N1446 H1458 0.984 . S
N1446 H1459 0.985 . S
N1447 C1449 1.356 . S
N1447 H1452 0.984 . S
N1447 H1453 0.985 . S
C1448 C1442 1.379 . S
C1448 C1445 1.363 . S
C1448 N1446 1.356 . S
C1449 C1443 1.363 . S
C1449 C1444 1.379 . S
C1449 N1447 1.356 . S
N1450 C1442 1.356 . S
N1450 H1456 0.984 . S
N1450 H1457 0.984 . S
N1451 C1444 1.356 . S
N1451 H1454 0.984 . S
N1451 H1455 0.985 . S
H1452 N1447 0.984 . S
H1453 N1447 0.985 . S
H1454 N1451 0.984 . S
H1455 N1451 0.985 . S
H1456 N1450 0.984 . S
H1457 N1450 0.984 . S
H1458 N1446 0.984 . S
H1459 N1446 0.985 . S
C1460 C1461 1.363 . S
C1460 C1466 1.379 . S
C1460 N1468 1.356 . S
C1461 C1460 1.363 . S
C1461 C1467 1.363 . S
C1462 C1463 1.363 . S
C1462 C1467 1.379 . S
C1462 N1469 1.356 . S
C1463 C1462 1.363 . S
C1463 C1466 1.363 . S
N1464 C1466 1.356 . S
N1464 H1476 0.984 . S
N1464 H1477 0.985 . S
N1465 C1467 1.356 . S
N1465 H1470 0.984 . S
N1465 H1471 0.985 . S
C1466 C1460 1.379 . S
C1466 C1463 1.363 . S
C1466 N1464 1.356 . S
C1467 C1461 1.363 . S
C1467 C1462 1.379 . S
C1467 N1465 1.356 . S
N1468 C1460 1.356 . S
N1468 H1474 0.984 . S
N1468 H1475 0.984 . S
N1469 C1462 1.356 . S
N1469 H1472 0.984 . S
N1469 H1473 0.985 . S
H1470 N1465 0.984 . S
H1471 N1465 0.985 . S
H1472 N1469 0.984 . S
H1473 N1469 0.985 . S
H1474 N1468 0.984 . S
H1475 N1468 0.984 . S
H1476 N1464 0.984 . S
H1477 N1464 0.985 . S
C1478 C1479 1.363 . S
C1478 C1484 1.379 . S
C1478 N1486 1.356 . S
C1479 C1478 1.363 . S
C1479 C1485 1.363 . S
C1480 C1481 1.363 . S
C1480 C1485 1.379 . S
C1480 N1487 1.356 . S
C1481 C1480 1.363 . S
C1481 C1484 1.363 . S
N1482 C1484 1.356 . S
N1482 H1494 0.984 . S
N1482 H1495 0.985 . S
N1483 C1485 1.356 . S
N1483 H1488 0.984 . S
N1483 H1489 0.985 . S
C1484 C1478 1.379 . S
C1484 C1481 1.363 . S
C1484 N1482 1.356 . S
C1485 C1479 1.363 . S
C1485 C1480 1.379 . S
C1485 N1483 1.356 . S
N1486 C1478 1.356 . S
N1486 H1492 0.984 . S
N1486 H1493 0.984 . S
N1487 C1480 1.356 . S
N1487 H1490 0.984 . S
N1487 H1491 0.985 . S
H1488 N1483 0.984 . S
H1489 N1483 0.985 . S
H1490 N1487 0.984 . S
H1491 N1487 0.985 . S
H1492 N1486 0.984 . S
H1493 N1486 0.984 . S
H1494 N1482 0.984 . S
H1495 N1482 0.985 . S
C1496 C1497 1.363 . S
C1496 C1502 1.379 . S
C1496 N1504 1.356 . S
C1497 C1496 1.363 . S
C1497 C1503 1.363 . S
C1498 C1499 1.363 . S
C1498 C1503 1.379 . S
C1498 N1505 1.356 . S
C1499 C1498 1.363 . S
C1499 C1502 1.363 . S
N1500 C1502 1.356 . S
N1500 H1512 0.984 . S
N1500 H1513 0.985 . S
N1501 C1503 1.356 . S
N1501 H1506 0.984 . S
N1501 H1507 0.985 . S
C1502 C1496 1.379 . S
C1502 C1499 1.363 . S
C1502 N1500 1.356 . S
C1503 C1497 1.363 . S
C1503 C1498 1.379 . S
C1503 N1501 1.356 . S
N1504 C1496 1.356 . S
N1504 H1510 0.984 . S
N1504 H1511 0.984 . S
N1505 C1498 1.356 . S
N1505 H1508 0.984 . S
N1505 H1509 0.985 . S
H1506 N1501 0.984 . S
H1507 N1501 0.985 . S
H1508 N1505 0.984 . S
H1509 N1505 0.985 . S
H1510 N1504 0.984 . S
H1511 N1504 0.984 . S
H1512 N1500 0.984 . S
H1513 N1500 0.985 . S
C1514 C1515 1.363 . S
C1514 C1520 1.379 . S
C1514 N1522 1.356 . S
C1515 C1514 1.363 . S
C1515 C1521 1.363 . S
C1516 C1517 1.363 . S
C1516 C1521 1.379 . S
C1516 N1523 1.356 . S
C1517 C1516 1.363 . S
C1517 C1520 1.363 . S
N1518 C1520 1.356 . S
N1518 H1530 0.984 . S
N1518 H1531 0.985 . S
N1519 C1521 1.356 . S
N1519 H1524 0.984 . S
N1519 H1525 0.985 . S
C1520 C1514 1.379 . S
C1520 C1517 1.363 . S
C1520 N1518 1.356 . S
C1521 C1515 1.363 . S
C1521 C1516 1.379 . S
C1521 N1519 1.356 . S
N1522 C1514 1.356 . S
N1522 H1528 0.984 . S
N1522 H1529 0.984 . S
N1523 C1516 1.356 . S
N1523 H1526 0.984 . S
N1523 H1527 0.985 . S
H1524 N1519 0.984 . S
H1525 N1519 0.985 . S
H1526 N1523 0.984 . S
H1527 N1523 0.985 . S
H1528 N1522 0.984 . S
H1529 N1522 0.984 . S
H1530 N1518 0.984 . S
H1531 N1518 0.985 . S
C1532 C1533 1.363 . S
C1532 C1538 1.379 . S
C1532 N1540 1.356 . S
C1533 C1532 1.363 . S
C1533 C1539 1.363 . S
C1534 C1535 1.363 . S
C1534 C1539 1.379 . S
C1534 N1541 1.356 . S
C1535 C1534 1.363 . S
C1535 C1538 1.363 . S
N1536 C1538 1.356 . S
N1536 H1548 0.984 . S
N1536 H1549 0.985 . S
N1537 C1539 1.356 . S
N1537 H1542 0.984 . S
N1537 H1543 0.985 . S
C1538 C1532 1.379 . S
C1538 C1535 1.363 . S
C1538 N1536 1.356 . S
C1539 C1533 1.363 . S
C1539 C1534 1.379 . S
C1539 N1537 1.356 . S
N1540 C1532 1.356 . S
N1540 H1546 0.984 . S
N1540 H1547 0.984 . S
N1541 C1534 1.356 . S
N1541 H1544 0.984 . S
N1541 H1545 0.985 . S
H1542 N1537 0.984 . S
H1543 N1537 0.985 . S
H1544 N1541 0.984 . S
H1545 N1541 0.985 . S
H1546 N1540 0.984 . S
H1547 N1540 0.984 . S
H1548 N1536 0.984 . S
H1549 N1536 0.985 . S
C1550 C1551 1.363 . S
C1550 C1556 1.379 . S
C1550 N1558 1.356 . S
C1551 C1550 1.363 . S
C1551 C1557 1.363 . S
C1552 C1553 1.363 . S
C1552 C1557 1.379 . S
C1552 N1559 1.356 . S
C1553 C1552 1.363 . S
C1553 C1556 1.363 . S
N1554 C1556 1.356 . S
N1554 H1566 0.984 . S
N1554 H1567 0.985 . S
N1555 C1557 1.356 . S
N1555 H1560 0.984 . S
N1555 H1561 0.985 . S
C1556 C1550 1.379 . S
C1556 C1553 1.363 . S
C1556 N1554 1.356 . S
C1557 C1551 1.363 . S
C1557 C1552 1.379 . S
C1557 N1555 1.356 . S
N1558 C1550 1.356 . S
N1558 H1564 0.984 . S
N1558 H1565 0.984 . S
N1559 C1552 1.356 . S
N1559 H1562 0.984 . S
N1559 H1563 0.985 . S
H1560 N1555 0.984 . S
H1561 N1555 0.985 . S
H1562 N1559 0.984 . S
H1563 N1559 0.985 . S
H1564 N1558 0.984 . S
H1565 N1558 0.984 . S
H1566 N1554 0.984 . S
H1567 N1554 0.985 . S
C417 C0 1.408 . S
C419 C52 1.408 . S
C435 C13 1.408 . S
C437 C65 1.408 . S
C453 C78 1.408 . S
C455 C26 1.408 . S
C471 C91 1.408 . S
C473 C39 1.408 . S
C489 C104 1.408 . S
C491 C156 1.408 . S
C507 C117 1.408 . S
C509 C169 1.408 . S
C525 C182 1.408 . S
C527 C130 1.408 . S
C543 C143 1.408 . S
C545 C195 1.408 . S
C561 C260 1.408 . S
C563 C208 1.408 . S
C579 C273 1.408 . S
C581 C221 1.408 . S
C597 C234 1.408 . S
C599 C286 1.408 . S
C615 C299 1.408 . S
C617 C247 1.408 . S
C633 C312 1.408 . S
C635 C364 1.408 . S
C651 C377 1.408 . S
C653 C325 1.408 . S
C669 C390 1.408 . S
C671 C338 1.408 . S
C687 C351 1.408 . S
C689 C403 1.408 . S
C705 C5 1.417 . S
C707 C359 1.501 . S
C723 C112 1.501 . S
C725 C18 1.417 . S
C741 C31 1.417 . S
C743 C333 1.501 . S
C759 C44 1.417 . S
C761 C138 1.501 . S
C777 C385 1.501 . S
C779 C57 1.417 . S
C795 C190 1.501 . S
C797 C70 1.417 . S
C813 C83 1.417 . S
C815 C411 1.501 . S
C831 C96 1.417 . S
C833 C164 1.501 . S
C849 C255 1.501 . S
C851 C109 1.417 . S
C867 C122 1.417 . S
C869 C8 1.501 . S
C885 C229 1.501 . S
C887 C135 1.417 . S
C903 C148 1.417 . S
C905 C34 1.501 . S
C921 C281 1.501 . S
C923 C161 1.417 . S
C939 C174 1.417 . S
C941 C86 1.501 . S
C957 C307 1.501 . S
C959 C187 1.417 . S
C975 C200 1.417 . S
C977 C60 1.501 . S
C993 C151 1.501 . S
C995 C213 1.417 . S
C1011 C320 1.501 . S
C1013 C226 1.417 . S
C1029 C125 1.501 . S
C1031 C239 1.417 . S
C1047 C252 1.417 . S
C1049 C346 1.501 . S
C1065 C177 1.501 . S
C1067 C265 1.417 . S
C1083 C398 1.501 . S
C1085 C278 1.417 . S
C1101 C203 1.501 . S
C1103 C291 1.417 . S
C1119 C304 1.417 . S
C1121 C372 1.501 . S
C1137 C317 1.417 . S
C1139 C47 1.501 . S
C1155 C330 1.417 . S
C1157 C216 1.501 . S
C1173 C343 1.417 . S
C1175 C21 1.501 . S
C1191 C356 1.417 . S
C1193 C242 1.501 . S
C1209 C369 1.417 . S
C1211 C73 1.501 . S
C1227 C294 1.501 . S
C1229 C382 1.417 . S
C1245 C99 1.501 . S
C1247 C395 1.417 . S
C1263 C408 1.417 . S
C1265 C268 1.501 . S
C1281 C10 1.277 . S
C1283 C101 1.277 . S
C1299 C23 1.277 . S
C1301 C62 1.277 . S
C1317 C36 1.277 . S
C1319 C75 1.277 . S
C1335 C88 1.277 . S
C1337 C49 1.277 . S
C1353 C205 1.277 . S
C1355 C114 1.277 . S
C1371 C166 1.277 . S
C1373 C127 1.277 . S
C1389 C179 1.277 . S
C1391 C140 1.277 . S
C1407 C192 1.277 . S
C1409 C153 1.277 . S
C1425 C218 1.277 . S
C1427 C309 1.277 . S
C1443 C270 1.277 . S
C1445 C231 1.277 . S
C1461 C283 1.277 . S
C1463 C244 1.277 . S
C1479 C296 1.277 . S
C1481 C257 1.277 . S
C1497 C413 1.277 . S
C1499 C322 1.277 . S
C1515 C335 1.277 . S
C1517 C374 1.277 . S
C1533 C348 1.277 . S
C1535 C387 1.277 . S
C1551 C361 1.277 . S
C1553 C400 1.277 . S
