# Generated by pormake.
# Topology crb, (4)-cn, num edge types: 1
# Building blocks:
#     Node 0, Type 0, BuildingBlock: NAHDIM_clean_sbu_0, # of connection points: 4
#     Node 1, Type 0, BuildingBlock: NAHDIM_clean_sbu_0, # of connection points: 4
#     Node 2, Type 0, BuildingBlock: NAHDIM_clean_sbu_0, # of connection points: 4
#     Node 3, Type 0, BuildingBlock: NAHDIM_clean_sbu_0, # of connection points: 4
#     Node 4, Type 0, BuildingBlock: NAHDIM_clean_sbu_0, # of connection points: 4
#     Node 5, Type 0, BuildingBlock: NAHDIM_clean_sbu_0, # of connection points: 4
#     Node 6, Type 0, BuildingBlock: NAHDIM_clean_sbu_0, # of connection points: 4
#     Node 7, Type 0, BuildingBlock: NAHDIM_clean_sbu_0, # of connection points: 4
#     Edge 8, Type (0, 0), BuildingBlock: FUNLAD_clean_linker_0, # of connection points: 2
#     Edge 9, Type (0, 0), BuildingBlock: FUNLAD_clean_linker_0, # of connection points: 2
#     Edge 10, Type (0, 0), BuildingBlock: FUNLAD_clean_linker_0, # of connection points: 2
#     Edge 11, Type (0, 0), BuildingBlock: FUNLAD_clean_linker_0, # of connection points: 2
#     Edge 12, Type (0, 0), BuildingBlock: FUNLAD_clean_linker_0, # of connection points: 2
#     Edge 13, Type (0, 0), BuildingBlock: FUNLAD_clean_linker_0, # of connection points: 2
#     Edge 14, Type (0, 0), BuildingBlock: FUNLAD_clean_linker_0, # of connection points: 2
#     Edge 15, Type (0, 0), BuildingBlock: FUNLAD_clean_linker_0, # of connection points: 2
#     Edge 16, Type (0, 0), BuildingBlock: FUNLAD_clean_linker_0, # of connection points: 2
#     Edge 17, Type (0, 0), BuildingBlock: FUNLAD_clean_linker_0, # of connection points: 2
#     Edge 18, Type (0, 0), BuildingBlock: FUNLAD_clean_linker_0, # of connection points: 2
#     Edge 19, Type (0, 0), BuildingBlock: FUNLAD_clean_linker_0, # of connection points: 2
#     Edge 20, Type (0, 0), BuildingBlock: FUNLAD_clean_linker_0, # of connection points: 2
#     Edge 21, Type (0, 0), BuildingBlock: FUNLAD_clean_linker_0, # of connection points: 2
#     Edge 22, Type (0, 0), BuildingBlock: FUNLAD_clean_linker_0, # of connection points: 2
#     Edge 23, Type (0, 0), BuildingBlock: FUNLAD_clean_linker_0, # of connection points: 2
# Relax obj value: 0.033
# Max RMSD: 0.065
# Mean RMSD: 0.065
data_MOF--net-crb--node1-NAHDIM_clean_sbu_0--edge1-FUNLAD_clean_linker_0
_symmetry_space_group_name_H-M    P1
_symmetry_Int_Tables_number       1
_symmetry_cell_setting            triclinic
loop_
_symmetry_equiv_pos_as_xyz
'x, y, z'
_cell_length_a     48.895623
_cell_length_b     50.934089
_cell_length_c     28.623087
_cell_angle_alpha  90.037095
_cell_angle_beta   90.010069
_cell_angle_gamma 90.190949
loop_
_atom_site_label
_atom_site_type_symbol
_atom_site_fract_x
_atom_site_fract_y
_atom_site_fract_z
_atom_type_partial_charge
C0 C 0.30422 0.28176 0.13511 0.0
O1 O 0.31571 0.2683 0.10125 0.0
O2 O 0.35575 0.31801 0.06678 0.0
Zn3 Zn 0.31504 0.3237 0.07171 0.0
O4 O 0.29581 0.30719 0.01666 0.0
C5 C 0.32416 0.37874 0.0553 0.0
O6 O 0.34576 0.36949 0.03358 0.0
O7 O 0.30151 0.30643 0.13051 0.0
C8 C 0.29709 0.31689 0.97582 0.0
O9 O 0.311 0.33866 0.96912 0.0
C10 C 0.36667 0.30074 0.04075 0.0
O11 O 0.35099 0.28515 0.01576 0.0
O12 O 0.30758 0.36273 0.07442 0.0
C13 C 0.68108 0.27988 0.9267 0.0
O14 O 0.66312 0.26623 0.95079 0.0
O15 O 0.63167 0.31039 0.00333 0.0
Zn16 Zn 0.67212 0.31778 -0.00021 0.0
O17 O 0.69086 0.30168 0.05529 0.0
C18 C 0.67914 0.3702 0.03714 0.0
O19 O 0.67808 0.35788 0.07742 0.0
O20 O 0.68792 0.3026 0.94093 0.0
C21 C 0.71637 0.3044 0.06218 0.0
O22 O 0.73099 0.3179 0.03203 0.0
C23 C 0.62002 0.30959 0.043 0.0
O24 O 0.63481 0.31302 0.08085 0.0
O25 O 0.67748 0.35699 -0.00046 0.0
C26 C 0.69713 0.70968 0.13297 0.0
O27 O 0.6877 0.72254 0.09664 0.0
O28 O 0.63658 0.67228 0.08231 0.0
Zn29 Zn 0.67735 0.66725 0.07854 0.0
O30 O 0.69259 0.68448 0.02083 0.0
C31 C 0.66859 0.6127 0.0598 0.0
O32 O 0.64631 0.62221 0.04061 0.0
O33 O 0.69484 0.68481 0.13393 0.0
C34 C 0.69087 0.67553 0.9795 0.0
O35 O 0.67842 0.65303 0.97211 0.0
C36 C 0.62353 0.68926 0.05874 0.0
O37 O 0.63699 0.705 0.0305 0.0
O38 O 0.68559 0.62843 0.07857 0.0
C39 C 0.30199 0.7128 0.93538 0.0
O40 O 0.31544 0.72819 0.96426 0.0
O41 O 0.35787 0.68144 0.00077 0.0
Zn42 Zn 0.31742 0.67401 0.00275 0.0
O43 O 0.30149 0.69157 0.05949 0.0
C44 C 0.31266 0.62154 0.0421 0.0
O45 O 0.31639 0.63376 0.08203 0.0
O46 O 0.29992 0.6885 0.94478 0.0
C47 C 0.27706 0.68818 0.07337 0.0
O48 O 0.26084 0.67234 0.04989 0.0
C49 C 0.37123 0.68414 0.03858 0.0
O50 O 0.35828 0.68207 0.07862 0.0
O51 O 0.31188 0.63481 0.00452 0.0
C52 C 0.80902 0.80653 0.67559 0.0
O53 O 0.83393 0.81597 0.67995 0.0
O54 O 0.85667 0.8135 0.58423 0.0
Zn55 Zn 0.81645 0.8219 0.57949 0.0
O56 O 0.79997 0.80451 0.52297 0.0
C57 C 0.83105 0.87595 0.56332 0.0
O58 O 0.85473 0.86529 0.55312 0.0
O59 O 0.79729 0.80751 0.63602 0.0
C60 C 0.79914 0.81539 0.48307 0.0
O61 O 0.8095 0.83903 0.47785 0.0
C62 C 0.86946 0.79918 0.55521 0.0
O63 O 0.8561 0.78853 0.52015 0.0
O64 O 0.81131 0.86122 0.57577 0.0
C65 C 0.18552 0.78536 0.43885 0.0
O66 O 0.17231 0.77189 0.47089 0.0
O67 O 0.13299 0.81831 0.50394 0.0
Zn68 Zn 0.17348 0.8258 0.50339 0.0
O69 O 0.19129 0.80995 0.56006 0.0
C70 C 0.1721 0.87713 0.5415 0.0
O71 O 0.16193 0.86364 0.57659 0.0
O72 O 0.18927 0.80982 0.44511 0.0
C73 C 0.21544 0.81629 0.57205 0.0
O74 O 0.2292 0.83308 0.54626 0.0
C75 C 0.12088 0.80694 0.53766 0.0
O76 O 0.13508 0.79971 0.5744 0.0
O77 O 0.17907 0.86499 0.50457 0.0
C78 C 0.19656 0.21267 0.62304 0.0
O79 O 0.1891 0.2259 0.5858 0.0
O80 O 0.13087 0.17731 0.57885 0.0
Zn81 Zn 0.1713 0.17139 0.57129 0.0
O82 O 0.18428 0.18758 0.5111 0.0
C83 C 0.16945 0.12005 0.5334 0.0
O84 O 0.15697 0.1332 0.5002 0.0
O85 O 0.19121 0.18826 0.62521 0.0
C86 C 0.20865 0.18414 0.49713 0.0
O87 O 0.22521 0.16953 0.52215 0.0
C88 C 0.11844 0.19595 0.55845 0.0
O89 O 0.13234 0.21216 0.53174 0.0
O90 O 0.17809 0.13242 0.56909 0.0
C91 C 0.80331 0.20389 0.42747 0.0
O92 O 0.81733 0.21974 0.45475 0.0
O93 O 0.85636 0.18044 0.50138 0.0
Zn94 Zn 0.81695 0.16865 0.50041 0.0
O95 O 0.79642 0.18493 0.55395 0.0
C96 C 0.82866 0.11883 0.54026 0.0
O97 O 0.8414 0.13412 0.57022 0.0
O98 O 0.80001 0.18013 0.43983 0.0
C99 C 0.77533 0.17397 0.57118 0.0
O100 O 0.76663 0.1517 0.55326 0.0
C101 C 0.86768 0.19025 0.53739 0.0
O102 O 0.85325 0.1933 0.5757 0.0
O103 O 0.816 0.12923 0.50621 0.0
C104 C 0.33669 0.42467 0.03289 0.0
C105 C 0.3195 0.40742 0.05759 0.0
C106 C 0.33274 0.45177 0.03527 0.0
C107 C 0.31141 0.46229 0.06236 0.0
C108 C 0.29441 0.44509 0.08749 0.0
C109 C 0.29826 0.41791 0.08487 0.0
C110 C 0.30725 0.4911 0.0666 0.0
C111 C 0.31403 0.50803 0.03233 0.0
C112 C 0.31155 0.53703 0.03635 0.0
C113 C 0.31037 0.55199 0.99526 0.0
C114 C 0.31 0.57939 -0.00282 0.0
C115 C 0.31113 0.5925 0.04036 0.0
H116 H 0.31383 0.53935 0.11214 0.0
C117 C 0.31196 0.57757 0.08162 0.0
C118 C 0.3122 0.55011 0.07969 0.0
H119 H 0.31297 0.58706 0.11545 0.0
H120 H 0.35338 0.41728 0.01182 0.0
H121 H 0.34685 0.4644 0.01664 0.0
H122 H 0.27803 0.45269 0.10903 0.0
H123 H 0.28476 0.40516 0.10457 0.0
H124 H 0.29754 0.4983 0.0982 0.0
H125 H 0.32121 0.50038 -0.00091 0.0
H126 H 0.31003 0.54245 0.9614 0.0
H127 H 0.3094 0.59026 0.96469 0.0
C128 C 0.41351 0.31578 0.06408 0.0
C129 C 0.39682 0.29872 0.03796 0.0
C130 C 0.44196 0.31435 0.06086 0.0
C131 C 0.45442 0.29563 0.03165 0.0
C132 C 0.43773 0.27871 0.00532 0.0
C133 C 0.40923 0.28013 0.00857 0.0
C134 C 0.48461 0.29413 0.02619 0.0
C135 C 0.50224 0.30226 0.05941 0.0
C136 C 0.53248 0.30233 0.05382 0.0
C137 C 0.54882 0.30396 0.09405 0.0
C138 C 0.57725 0.30577 0.09054 0.0
C139 C 0.59002 0.30617 0.04658 0.0
H140 H 0.5335 0.30195 0.97778 0.0
C141 C 0.57376 0.30423 0.00623 0.0
C142 C 0.54528 0.30243 0.00974 0.0
H143 H 0.58296 0.30465 0.97181 0.0
H144 H 0.40462 0.33052 0.08671 0.0
H145 H 0.45399 0.32839 0.0805 0.0
H146 H 0.44676 0.2643 0.98217 0.0
H147 H 0.39696 0.26677 0.9878 0.0
H148 H 0.49234 0.2853 0.99432 0.0
H149 H 0.49433 0.30871 0.09294 0.0
H150 H 0.53955 0.3041 0.12843 0.0
H151 H 0.58916 0.30725 0.12235 0.0
C152 C 0.68223 0.41396 0.07697 0.0
C153 C 0.68062 0.39922 0.03553 0.0
C154 C 0.682 0.4414 0.07558 0.0
C155 C 0.68027 0.45469 0.03257 0.0
C156 C 0.679 0.43993 0.9912 0.0
C157 C 0.67932 0.41252 0.99258 0.0
C158 C 0.67776 0.48371 0.02956 0.0
C159 C 0.68639 0.50036 0.06312 0.0
C160 C 0.68202 0.52918 0.06061 0.0
C161 C 0.69998 0.54608 0.08443 0.0
C162 C 0.6959 0.57326 0.0838 0.0
C163 C 0.67349 0.58404 0.05983 0.0
H164 H 0.6447 0.5276 0.01933 0.0
C165 C 0.65539 0.5671 0.03635 0.0
C166 C 0.65954 0.54 0.03678 0.0
H167 H 0.6378 0.57472 0.01783 0.0
H168 H 0.68312 0.40432 0.11065 0.0
H169 H 0.68226 0.45198 0.10835 0.0
H170 H 0.67746 0.44963 0.95763 0.0
H171 H 0.67801 0.40178 0.95998 0.0
H172 H 0.66888 0.49162 -0.00222 0.0
H173 H 0.69772 0.49288 0.09287 0.0
H174 H 0.71727 0.53825 0.10349 0.0
H175 H 0.71014 0.58577 0.10246 0.0
C176 C 0.41572 0.69218 0.07951 0.0
C177 C 0.4011 0.68885 0.03764 0.0
C178 C 0.44405 0.69575 0.07891 0.0
C179 C 0.45846 0.69583 0.03633 0.0
C180 C 0.44373 0.69331 0.99445 0.0
C181 C 0.41537 0.68976 0.99504 0.0
C182 C 0.48872 0.69849 0.03424 0.0
C183 C 0.50531 0.691 0.06936 0.0
C184 C 0.53564 0.69159 0.0664 0.0
C185 C 0.55064 0.6746 0.09516 0.0
C186 C 0.57914 0.67399 0.0929 0.0
C187 C 0.59337 0.6906 0.06207 0.0
H188 H 0.53914 0.72267 0.01463 0.0
C189 C 0.57845 0.70812 0.03409 0.0
C190 C 0.54988 0.70868 0.03626 0.0
H191 H 0.58881 0.72135 0.01029 0.0
H192 H 0.4053 0.69196 0.1129 0.0
H193 H 0.45447 0.69861 0.11187 0.0
H194 H 0.45426 0.69358 0.96114 0.0
H195 H 0.40471 0.68744 0.96212 0.0
H196 H 0.49753 0.70495 0.00137 0.0
H197 H 0.4965 0.6822 0.10047 0.0
H198 H 0.54024 0.66142 0.11902 0.0
H199 H 0.58999 0.66035 0.11516 0.0
C200 C 0.85008 0.921 0.55043 0.0
C201 C 0.82746 0.90472 0.55968 0.0
C202 C 0.8469 0.94815 0.54675 0.0
C203 C 0.82099 0.95966 0.5523 0.0
C204 C 0.79831 0.94338 0.56077 0.0
C205 C 0.80152 0.91618 0.5648 0.0
C206 C 0.81694 0.98845 0.54793 0.0
C207 C 0.83649 0.006 0.55939 0.0
C208 C 0.83307 0.03484 0.55486 0.0
C209 C 0.84882 0.05139 0.58345 0.0
C210 C 0.84704 0.07864 0.57915 0.0
C211 C 0.82975 0.08996 0.54558 0.0
H212 H 0.80373 0.034 0.4978 0.0
C213 C 0.81402 0.07343 0.51676 0.0
C214 C 0.81563 0.04613 0.52134 0.0
H215 H 0.80059 0.08155 0.4904 0.0
H216 H 0.87032 0.91279 0.54593 0.0
H217 H 0.86472 0.95997 0.53869 0.0
H218 H 0.77809 0.95173 0.56469 0.0
H219 H 0.78365 0.90416 0.57161 0.0
H220 H 0.79689 0.99527 0.53711 0.0
H221 H 0.8555 -0.00088 0.57467 0.0
H222 H 0.86258 0.04322 0.60926 0.0
H223 H 0.85954 0.0908 0.60177 0.0
C224 C 0.0772 0.79103 0.57388 0.0
C225 C 0.09103 0.80225 0.53571 0.0
C226 C 0.04888 0.78725 0.57243 0.0
C227 C 0.03378 0.79473 0.53276 0.0
C228 C 0.04773 0.80523 0.49418 0.0
C229 C 0.07601 0.80909 0.49568 0.0
C230 C 0.00357 0.79193 0.5302 0.0
C231 C 0.98727 0.79241 0.56814 0.0
C232 C 0.95695 0.79251 0.56507 0.0
C233 C 0.94198 0.8048 0.60066 0.0
C234 C 0.91353 0.80662 0.59783 0.0
C235 C 0.8994 0.79586 0.55953 0.0
H236 H 0.95351 0.77049 0.50022 0.0
C237 C 0.91427 0.78262 0.52479 0.0
C238 C 0.94275 0.78092 0.52752 0.0
H239 H 0.90397 0.77387 0.49508 0.0
H240 H 0.08822 0.78526 0.60504 0.0
H241 H 0.03901 0.77829 0.60228 0.0
H242 H 0.03665 0.81093 0.46303 0.0
H243 H 0.08604 0.81758 0.4655 0.0
H244 H 0.99443 0.79173 0.49562 0.0
H245 H 0.99624 0.7952 0.6025 0.0
H246 H 0.95237 0.81364 0.63022 0.0
H247 H 0.90268 0.81676 0.62542 0.0
C248 C 0.18489 0.07675 0.56574 0.0
C249 C 0.17266 0.09123 0.5296 0.0
C250 C 0.18711 0.04942 0.5625 0.0
C251 C 0.17698 0.03599 0.52306 0.0
C252 C 0.16543 0.05058 0.48651 0.0
C253 C 0.16317 0.07785 0.48978 0.0
C254 C 0.17823 0.00692 0.51843 0.0
C255 C 0.17924 0.99048 0.55527 0.0
C256 C 0.17832 0.96138 0.55078 0.0
C257 C 0.16885 0.94653 0.58881 0.0
C258 C 0.16699 0.91921 0.58584 0.0
C259 C 0.1748 0.90604 0.54482 0.0
H260 H 0.19503 0.95877 0.48048 0.0
C261 C 0.18492 0.9208 0.50708 0.0
C262 C 0.18675 0.94817 0.51002 0.0
H263 H 0.19139 0.91123 0.47515 0.0
H264 H 0.19268 0.08649 0.59668 0.0
H265 H 0.19699 0.03904 0.59077 0.0
H266 H 0.1577 0.04081 0.45554 0.0
H267 H 0.15379 0.0884 0.46114 0.0
H268 H 0.17619 -0.00111 0.48345 0.0
H269 H 0.17871 0.99848 0.59041 0.0
H270 H 0.16246 0.95613 0.62077 0.0
H271 H 0.15926 0.90845 0.6157 0.0
C272 C 0.91087 0.20347 0.57841 0.0
C273 C 0.89723 0.19661 0.53691 0.0
C274 C 0.93912 0.20782 0.57844 0.0
C275 C 0.95428 0.20539 0.53689 0.0
C276 C 0.94046 0.19961 0.49515 0.0
C277 C 0.91227 0.19508 0.49516 0.0
C278 C 0.98449 0.20837 0.53582 0.0
C279 C 0.0006 0.20212 0.57232 0.0
C280 C 0.03092 0.20192 0.56952 0.0
C281 C 0.04546 0.1844 0.59793 0.0
C282 C 0.07389 0.18263 0.59468 0.0
C283 C 0.08845 0.19867 0.56335 0.0
H284 H 0.03508 0.23288 0.51776 0.0
C285 C 0.07401 0.21691 0.53611 0.0
C286 C 0.04552 0.21854 0.53913 0.0
H287 H 0.08465 0.22974 0.51196 0.0
H288 H 0.89983 0.20507 0.61108 0.0
H289 H 0.94895 0.21309 0.61102 0.0
H290 H 0.95161 0.1979 0.46259 0.0
H291 H 0.90234 0.19008 0.4625 0.0
H292 H 0.99377 0.21345 0.50253 0.0
H293 H 0.99137 0.19451 0.60409 0.0
H294 H 0.03473 0.17156 0.62196 0.0
H295 H 0.08441 0.16853 0.61648 0.0
C296 C 0.24526 0.19307 0.43792 0.0
C297 C 0.21841 0.197 0.45387 0.0
C298 C 0.25462 0.20561 0.39752 0.0
C299 C 0.23722 0.22229 0.37203 0.0
C300 C 0.21047 0.22634 0.38823 0.0
C301 C 0.2011 0.21376 0.42854 0.0
C302 C 0.24649 0.23656 0.32957 0.0
C303 C 0.26711 0.22827 0.3021 0.0
C304 C 0.27616 0.24252 0.2595 0.0
C305 C 0.28942 0.22847 0.22397 0.0
C306 C 0.29842 0.24117 0.18352 0.0
C307 C 0.29461 0.26833 0.17794 0.0
H308 H 0.26333 0.28149 0.2814 0.0
C309 C 0.28169 0.28251 0.21378 0.0
C310 C 0.27262 0.26978 0.25419 0.0
H311 H 0.27867 0.3035 0.21077 0.0
H312 H 0.25919 0.18046 0.45685 0.0
H313 H 0.27564 0.20259 0.3871 0.0
H314 H 0.19671 0.23925 0.36954 0.0
H315 H 0.18032 0.21733 0.43998 0.0
H316 H 0.23493 0.25384 0.31955 0.0
H317 H 0.27693 0.20965 0.30951 0.0
H318 H 0.29265 0.20752 0.22734 0.0
H319 H 0.30842 0.22968 0.1567 0.0
C320 C 0.71338 0.27876 0.1366 0.0
C321 C 0.72919 0.29305 0.10439 0.0
C322 C 0.72525 0.26846 0.17698 0.0
C323 C 0.75332 0.27209 0.18593 0.0
C324 C 0.76906 0.28651 0.15386 0.0
C325 C 0.75719 0.29678 0.1134 0.0
C326 C 0.76652 0.26224 0.22927 0.0
C327 C 0.75683 0.24173 0.25408 0.0
C328 C 0.76954 0.23238 0.29818 0.0
C329 C 0.76501 0.20635 0.31237 0.0
C330 C 0.77606 0.197 0.3542 0.0
C331 C 0.79168 0.21362 0.38302 0.0
H332 H 0.78823 0.26951 0.31842 0.0
C333 C 0.796 0.23976 0.36909 0.0
C334 C 0.78501 0.24908 0.32723 0.0
H335 H 0.80775 0.25315 0.39066 0.0
H336 H 0.69169 0.27573 0.13094 0.0
H337 H 0.71217 0.25824 0.20149 0.0
H338 H 0.79066 0.28983 0.1601 0.0
H339 H 0.76993 0.3078 0.0894 0.0
H340 H 0.78543 0.27174 0.23998 0.0
H341 H 0.73949 0.23061 0.2409 0.0
H342 H 0.75294 0.19314 0.29093 0.0
H343 H 0.77225 0.17678 0.36399 0.0
C344 C 0.78398 0.81386 0.39948 0.0
C345 C 0.78662 0.80145 0.44304 0.0
C346 C 0.77191 0.80072 0.36181 0.0
C347 C 0.76241 0.77471 0.36683 0.0
C348 C 0.76498 0.76245 0.41052 0.0
C349 C 0.77696 0.77561 0.44816 0.0
C350 C 0.74913 0.75976 0.32822 0.0
C351 C 0.75005 0.7668 0.28287 0.0
C352 C 0.73635 0.75157 0.24524 0.0
C353 C 0.72798 0.76478 0.20472 0.0
C354 C 0.71508 0.7512 0.16845 0.0
C355 C 0.71058 0.72399 0.17168 0.0
H356 H 0.73911 0.71321 0.27827 0.0
C357 C 0.71934 0.71065 0.21191 0.0
C358 C 0.73213 0.72426 0.24831 0.0
H359 H 0.71642 0.68964 0.21527 0.0
H360 H 0.79102 0.83385 0.3945 0.0
H361 H 0.76979 0.81135 0.32938 0.0
H362 H 0.75774 0.74253 0.41562 0.0
H363 H 0.77863 0.76546 0.48128 0.0
H364 H 0.73808 0.74207 0.33798 0.0
H365 H 0.76052 0.78462 0.27239 0.0
H366 H 0.73121 0.78574 0.20126 0.0
H367 H 0.70875 0.76206 0.1378 0.0
C368 C 0.20814 0.78676 0.3602 0.0
C369 C 0.19503 0.77233 0.39558 0.0
C370 C 0.21652 0.77447 0.31894 0.0
C371 C 0.21214 0.74737 0.31233 0.0
C372 C 0.19887 0.73305 0.34758 0.0
C373 C 0.1905 0.74533 0.38881 0.0
C374 C 0.22032 0.73349 0.26879 0.0
C375 C 0.24035 0.74205 0.24021 0.0
C376 C 0.24905 0.72779 0.19739 0.0
C377 C 0.27555 0.73212 0.18014 0.0
C378 C 0.28462 0.71923 0.14 0.0
C379 C 0.26726 0.70185 0.11581 0.0
H380 H 0.21065 0.7074 0.18409 0.0
C381 C 0.24058 0.69777 0.13257 0.0
C382 C 0.23151 0.71065 0.17287 0.0
H383 H 0.22662 0.68469 0.11453 0.0
H384 H 0.21169 0.80765 0.36412 0.0
H385 H 0.22588 0.78643 0.2921 0.0
H386 H 0.19503 0.71222 0.34333 0.0
H387 H 0.18035 0.73363 0.41525 0.0
H388 H 0.2104 0.71482 0.26161 0.0
H389 H 0.25202 0.75942 0.24969 0.0
H390 H 0.28941 0.74539 0.19803 0.0
H391 H 0.30527 0.72293 0.12795 0.0
C392 C 0.21223 0.78851 0.64403 0.0
C393 C 0.22752 0.80545 0.61533 0.0
C394 C 0.22338 0.77865 0.68538 0.0
C395 C 0.25022 0.78534 0.69877 0.0
C396 C 0.26537 0.80245 0.67025 0.0
C397 C 0.25422 0.81234 0.6289 0.0
C398 C 0.26274 0.77566 0.74287 0.0
C399 C 0.25455 0.75357 0.76479 0.0
C400 C 0.2671 0.74375 0.80873 0.0
C401 C 0.26442 0.71702 0.81981 0.0
C402 C 0.27571 0.70697 0.86089 0.0
C403 C 0.28978 0.7235 0.89209 0.0
H404 H 0.28259 0.78128 0.83397 0.0
C405 C 0.29213 0.75035 0.88144 0.0
C406 C 0.28085 0.76041 0.84031 0.0
H407 H 0.30261 0.76367 0.90495 0.0
H408 H 0.19148 0.78304 0.63487 0.0
H409 H 0.21061 0.76626 0.70703 0.0
H410 H 0.28599 0.80815 0.67989 0.0
H411 H 0.2665 0.82545 0.60771 0.0
H412 H 0.28013 0.78658 0.75634 0.0
H413 H 0.23888 0.74132 0.74894 0.0
H414 H 0.25372 0.70378 0.7964 0.0
H415 H 0.27342 0.6862 0.8681 0.0
C416 C 0.28395 0.31466 0.89133 0.0
C417 C 0.28376 0.30336 0.93607 0.0
C418 C 0.27177 0.30172 0.85357 0.0
C419 C 0.25931 0.27695 0.85965 0.0
C420 C 0.25883 0.2659 0.90458 0.0
C421 C 0.27093 0.27889 0.94235 0.0
C422 C 0.24608 0.26222 0.82069 0.0
C423 C 0.25028 0.26738 0.77505 0.0
C424 C 0.23653 0.25269 0.73678 0.0
C425 C 0.23207 0.26546 0.69405 0.0
C426 C 0.2191 0.25246 0.65719 0.0
C427 C 0.21064 0.22621 0.66203 0.0
H428 H 0.23232 0.21548 0.77332 0.0
C429 C 0.21563 0.21318 0.70444 0.0
C430 C 0.22844 0.22627 0.74147 0.0
H431 H 0.20955 0.19288 0.70915 0.0
H432 H 0.29343 0.33362 0.8854 0.0
H433 H 0.27195 0.31151 0.82011 0.0
H434 H 0.24921 0.24699 0.91051 0.0
H435 H 0.27036 0.26964 0.9764 0.0
H436 H 0.23233 0.24634 0.83037 0.0
H437 H 0.26366 0.28335 0.76467 0.0
H438 H 0.23835 0.28571 0.68933 0.0
H439 H 0.21574 0.26302 0.62487 0.0
C440 C 0.68535 0.24414 0.86687 0.0
C441 C 0.69355 0.26883 0.8839 0.0
C442 C 0.69742 0.23359 0.82678 0.0
C443 C 0.71793 0.24759 0.80277 0.0
C444 C 0.72623 0.27214 0.82008 0.0
C445 C 0.7141 0.28273 0.86001 0.0
C446 C 0.73196 0.23694 0.7608 0.0
C447 C 0.72074 0.21895 0.73194 0.0
C448 C 0.73497 0.20815 0.69022 0.0
C449 C 0.72611 0.184 0.67185 0.0
C450 C 0.73908 0.17294 0.63306 0.0
C451 C 0.76115 0.1859 0.61158 0.0
H452 H 0.76358 0.24049 0.67967 0.0
C453 C 0.76969 0.21032 0.62929 0.0
C454 C 0.75669 0.22141 0.66798 0.0
H455 H 0.78642 0.22097 0.61319 0.0
H456 H 0.66971 0.23283 0.88468 0.0
H457 H 0.69101 0.21425 0.81554 0.0
H458 H 0.74213 0.28326 0.80255 0.0
H459 H 0.721 0.30175 0.87229 0.0
H460 H 0.75224 0.2446 0.7536 0.0
H461 H 0.70043 0.21135 0.73929 0.0
H462 H 0.70928 0.17346 0.68792 0.0
H463 H 0.73191 0.15414 0.62017 0.0
C464 C 0.71465 0.71537 0.94825 0.0
C465 C 0.70278 0.6906 0.94025 0.0
C466 C 0.72605 0.72968 0.91148 0.0
C467 C 0.72609 0.71941 0.86583 0.0
C468 C 0.71381 0.69486 0.85774 0.0
C469 C 0.70234 0.68054 0.89455 0.0
C470 C 0.73807 0.73399 0.82573 0.0
C471 C 0.75763 0.75253 0.83049 0.0
C472 C 0.77004 0.76673 0.79038 0.0
C473 C 0.79619 0.77779 0.79568 0.0
C474 C 0.80876 0.791 0.75863 0.0
C475 C 0.79529 0.79361 0.71553 0.0
H476 H 0.73569 0.76258 0.74258 0.0
C477 C 0.76881 0.78315 0.71057 0.0
C478 C 0.75625 0.76994 0.7476 0.0
H479 H 0.75774 0.78506 0.67796 0.0
H480 H 0.71502 0.72386 0.98296 0.0
H481 H 0.73437 0.74892 0.91906 0.0
H482 H 0.71329 0.6866 0.82285 0.0
H483 H 0.69323 0.66157 0.88717 0.0
H484 H 0.73145 0.72817 0.79102 0.0
H485 H 0.76613 0.75655 0.86479 0.0
H486 H 0.80715 0.77589 0.82841 0.0
H487 H 0.82913 0.79893 0.7637 0.0
loop_
_geom_bond_atom_site_label_1
_geom_bond_atom_site_label_2
_geom_bond_distance
_geom_bond_site_symmetry_2
_ccdc_geom_bond_type
C0 O1 1.160 . S
C0 O7 1.185 . S
O1 C0 1.160 . S
O2 Zn3 1.899 . S
O2 C10 1.284 . S
Zn3 O2 1.899 . S
Zn3 O4 2.032 . S
Zn3 O7 2.086 . S
Zn3 O12 1.977 . S
O4 Zn3 2.032 . S
O4 C8 1.278 1_554 S
C5 O6 1.203 . S
C5 O12 1.267 . S
O6 C5 1.203 . S
O7 C0 1.185 . S
O7 Zn3 2.086 . S
C8 O4 1.278 1_556 S
C8 O9 1.211 . S
O9 C8 1.211 . S
C10 O2 1.284 . S
C10 O11 1.273 . S
O11 C10 1.273 . S
O12 Zn3 1.977 . S
O12 C5 1.267 . S
C13 O14 1.160 . S
C13 O20 1.185 . S
O14 C13 1.160 . S
O15 Zn16 1.899 . S
O15 C23 1.284 . S
Zn16 O15 1.899 . S
Zn16 O17 2.032 . S
Zn16 O20 2.086 1_554 S
Zn16 O25 1.977 . S
O17 Zn16 2.032 . S
O17 C21 1.278 . S
C18 O19 1.203 . S
C18 O25 1.267 . S
O19 C18 1.203 . S
O20 C13 1.185 . S
O20 Zn16 2.086 1_556 S
C21 O17 1.278 . S
C21 O22 1.211 . S
O22 C21 1.211 . S
C23 O15 1.284 . S
C23 O24 1.273 . S
O24 C23 1.273 . S
O25 Zn16 1.977 . S
O25 C18 1.267 . S
C26 O27 1.160 . S
C26 O33 1.185 . S
O27 C26 1.160 . S
O28 Zn29 1.899 . S
O28 C36 1.284 . S
Zn29 O28 1.899 . S
Zn29 O30 2.032 . S
Zn29 O33 2.086 . S
Zn29 O38 1.977 . S
O30 Zn29 2.032 . S
O30 C34 1.278 1_554 S
C31 O32 1.203 . S
C31 O38 1.267 . S
O32 C31 1.203 . S
O33 C26 1.185 . S
O33 Zn29 2.086 . S
C34 O30 1.278 1_556 S
C34 O35 1.211 . S
O35 C34 1.211 . S
C36 O28 1.284 . S
C36 O37 1.273 . S
O37 C36 1.273 . S
O38 Zn29 1.977 . S
O38 C31 1.267 . S
C39 O40 1.160 . S
C39 O46 1.185 . S
O40 C39 1.160 . S
O41 Zn42 1.899 . S
O41 C49 1.284 . S
Zn42 O41 1.899 . S
Zn42 O43 2.032 . S
Zn42 O46 2.086 1_554 S
Zn42 O51 1.977 . S
O43 Zn42 2.032 . S
O43 C47 1.278 . S
C44 O45 1.203 . S
C44 O51 1.267 . S
O45 C44 1.203 . S
O46 C39 1.185 . S
O46 Zn42 2.086 1_556 S
C47 O43 1.278 . S
C47 O48 1.211 . S
O48 C47 1.211 . S
C49 O41 1.284 . S
C49 O50 1.273 . S
O50 C49 1.273 . S
O51 Zn42 1.977 . S
O51 C44 1.267 . S
C52 O53 1.160 . S
C52 O59 1.185 . S
O53 C52 1.160 . S
O54 Zn55 1.899 . S
O54 C62 1.284 . S
Zn55 O54 1.899 . S
Zn55 O56 2.032 . S
Zn55 O59 2.086 . S
Zn55 O64 1.977 . S
O56 Zn55 2.032 . S
O56 C60 1.278 . S
C57 O58 1.203 . S
C57 O64 1.267 . S
O58 C57 1.203 . S
O59 C52 1.185 . S
O59 Zn55 2.086 . S
C60 O56 1.278 . S
C60 O61 1.211 . S
O61 C60 1.211 . S
C62 O54 1.284 . S
C62 O63 1.273 . S
O63 C62 1.273 . S
O64 Zn55 1.977 . S
O64 C57 1.267 . S
C65 O66 1.160 . S
C65 O72 1.185 . S
O66 C65 1.160 . S
O67 Zn68 1.899 . S
O67 C75 1.284 . S
Zn68 O67 1.899 . S
Zn68 O69 2.032 . S
Zn68 O72 2.086 . S
Zn68 O77 1.977 . S
O69 Zn68 2.032 . S
O69 C73 1.278 . S
C70 O71 1.203 . S
C70 O77 1.267 . S
O71 C70 1.203 . S
O72 C65 1.185 . S
O72 Zn68 2.086 . S
C73 O69 1.278 . S
C73 O74 1.211 . S
O74 C73 1.211 . S
C75 O67 1.284 . S
C75 O76 1.273 . S
O76 C75 1.273 . S
O77 Zn68 1.977 . S
O77 C70 1.267 . S
C78 O79 1.160 . S
C78 O85 1.185 . S
O79 C78 1.160 . S
O80 Zn81 1.899 . S
O80 C88 1.284 . S
Zn81 O80 1.899 . S
Zn81 O82 2.032 . S
Zn81 O85 2.086 . S
Zn81 O90 1.977 . S
O82 Zn81 2.032 . S
O82 C86 1.278 . S
C83 O84 1.203 . S
C83 O90 1.267 . S
O84 C83 1.203 . S
O85 C78 1.185 . S
O85 Zn81 2.086 . S
C86 O82 1.278 . S
C86 O87 1.211 . S
O87 C86 1.211 . S
C88 O80 1.284 . S
C88 O89 1.273 . S
O89 C88 1.273 . S
O90 Zn81 1.977 . S
O90 C83 1.267 . S
C91 O92 1.160 . S
C91 O98 1.185 . S
O92 C91 1.160 . S
O93 Zn94 1.899 . S
O93 C101 1.284 . S
Zn94 O93 1.899 . S
Zn94 O95 2.032 . S
Zn94 O98 2.086 . S
Zn94 O103 1.977 . S
O95 Zn94 2.032 . S
O95 C99 1.278 . S
C96 O97 1.203 . S
C96 O103 1.267 . S
O97 C96 1.203 . S
O98 C91 1.185 . S
O98 Zn94 2.086 . S
C99 O95 1.278 . S
C99 O100 1.211 . S
O100 C99 1.211 . S
C101 O93 1.284 . S
C101 O102 1.273 . S
O102 C101 1.273 . S
O103 Zn94 1.977 . S
O103 C96 1.267 . S
C104 C105 1.386 . S
C104 C106 1.383 . S
C104 H120 0.951 1_554 S
C105 C104 1.386 . S
C105 C109 1.383 . S
C106 C104 1.383 . S
C106 C107 1.402 . S
C106 H121 0.951 1_554 S
C107 C106 1.402 . S
C107 C108 1.375 . S
C107 C110 1.481 . S
C108 C107 1.375 . S
C108 C109 1.367 . S
C108 H122 0.951 . S
C109 C105 1.383 . S
C109 C108 1.367 . S
C109 H123 0.950 . S
C110 C107 1.481 . S
C110 C111 1.297 . S
C110 H124 0.950 . S
C111 C110 1.297 . S
C111 C112 1.479 . S
C111 H125 0.950 1_554 S
C112 C111 1.479 . S
C112 C113 1.375 1_554 S
C112 C118 1.404 . S
C113 C112 1.375 1_556 S
C113 C114 1.369 . S
C113 H126 0.950 . S
C114 C113 1.369 . S
C114 C115 1.392 1_556 S
C114 H127 0.951 . S
C115 C114 1.392 1_554 S
C115 C117 1.384 . S
H116 C118 0.949 . S
C117 C115 1.384 . S
C117 C118 1.385 . S
C117 H119 0.950 . S
C118 C112 1.404 . S
C118 H116 0.949 . S
C118 C117 1.385 . S
H119 C117 0.950 . S
H120 C104 0.951 1_556 S
H121 C106 0.951 1_556 S
H122 C108 0.951 . S
H123 C109 0.950 . S
H124 C110 0.950 . S
H125 C111 0.950 1_556 S
H126 C113 0.950 . S
H127 C114 0.951 . S
C128 C129 1.386 . S
C128 C130 1.383 . S
C128 H144 0.951 . S
C129 C128 1.386 . S
C129 C133 1.383 . S
C130 C128 1.383 . S
C130 C131 1.402 . S
C130 H145 0.951 . S
C131 C130 1.402 . S
C131 C132 1.375 . S
C131 C134 1.481 . S
C132 C131 1.375 . S
C132 C133 1.367 . S
C132 H146 0.951 1_554 S
C133 C129 1.383 . S
C133 C132 1.367 . S
C133 H147 0.950 1_554 S
C134 C131 1.481 . S
C134 C135 1.297 . S
C134 H148 0.950 1_554 S
C135 C134 1.297 . S
C135 C136 1.479 . S
C135 H149 0.950 . S
C136 C135 1.479 . S
C136 C137 1.375 . S
C136 C142 1.404 . S
C137 C136 1.375 . S
C137 C138 1.369 . S
C137 H150 0.950 . S
C138 C137 1.369 . S
C138 C139 1.392 . S
C138 H151 0.951 . S
C139 C138 1.392 . S
C139 C141 1.399 . S
H140 C142 0.949 1_556 S
C141 C139 1.399 . S
C141 C142 1.388 . S
C141 H143 0.932 1_554 S
C142 C136 1.404 . S
C142 H140 0.949 1_554 S
C142 C141 1.388 . S
H143 C141 0.932 1_556 S
H144 C128 0.951 . S
H145 C130 0.951 . S
H146 C132 0.951 1_556 S
H147 C133 0.950 1_556 S
H148 C134 0.950 1_556 S
H149 C135 0.950 . S
H150 C137 0.950 . S
H151 C138 0.951 . S
C152 C153 1.386 . S
C152 C154 1.383 . S
C152 H168 0.951 . S
C153 C152 1.386 . S
C153 C157 1.383 1_554 S
C154 C152 1.383 . S
C154 C155 1.402 . S
C154 H169 0.951 . S
C155 C154 1.402 . S
C155 C156 1.375 1_554 S
C155 C158 1.481 . S
C156 C155 1.375 1_556 S
C156 C157 1.367 . S
C156 H170 0.951 . S
C157 C153 1.383 1_556 S
C157 C156 1.367 . S
C157 H171 0.950 . S
C158 C155 1.481 . S
C158 C159 1.297 . S
C158 H172 0.950 1_554 S
C159 C158 1.297 . S
C159 C160 1.479 . S
C159 H173 0.950 . S
C160 C159 1.479 . S
C160 C161 1.375 . S
C160 C166 1.404 . S
C161 C160 1.375 . S
C161 C162 1.369 . S
C161 H174 0.950 . S
C162 C161 1.369 . S
C162 C163 1.392 . S
C162 H175 0.951 . S
C163 C162 1.392 . S
C163 C165 1.384 . S
H164 C166 0.949 1_556 S
C165 C163 1.384 . S
C165 C166 1.385 . S
C165 H167 0.950 1_554 S
C166 C160 1.404 . S
C166 H164 0.949 1_554 S
C166 C165 1.385 . S
H167 C165 0.950 1_556 S
H168 C152 0.951 . S
H169 C154 0.951 . S
H170 C156 0.951 . S
H171 C157 0.950 . S
H172 C158 0.950 1_556 S
H173 C159 0.950 . S
H174 C161 0.950 . S
H175 C162 0.951 . S
C176 C177 1.386 . S
C176 C178 1.383 . S
C176 H192 0.951 . S
C177 C176 1.386 . S
C177 C181 1.383 . S
C178 C176 1.383 . S
C178 C179 1.402 . S
C178 H193 0.951 . S
C179 C178 1.402 . S
C179 C180 1.375 . S
C179 C182 1.481 . S
C180 C179 1.375 . S
C180 C181 1.367 . S
C180 H194 0.951 1_554 S
C181 C177 1.383 . S
C181 C180 1.367 . S
C181 H195 0.950 1_554 S
C182 C179 1.481 . S
C182 C183 1.297 . S
C182 H196 0.950 . S
C183 C182 1.297 . S
C183 C184 1.479 . S
C183 H197 0.950 . S
C184 C183 1.479 . S
C184 C185 1.375 . S
C184 C190 1.404 . S
C185 C184 1.375 . S
C185 C186 1.369 . S
C185 H198 0.950 . S
C186 C185 1.369 . S
C186 C187 1.392 . S
C186 H199 0.951 . S
C187 C186 1.392 . S
C187 C189 1.384 . S
H188 C190 0.949 . S
C189 C187 1.384 . S
C189 C190 1.385 . S
C189 H191 0.950 . S
C190 C184 1.404 . S
C190 H188 0.949 . S
C190 C189 1.385 . S
H191 C189 0.950 . S
H192 C176 0.951 . S
H193 C178 0.951 . S
H194 C180 0.951 1_556 S
H195 C181 0.950 1_556 S
H196 C182 0.950 . S
H197 C183 0.950 . S
H198 C185 0.950 . S
H199 C186 0.951 . S
C200 C201 1.386 . S
C200 C202 1.383 . S
C200 H216 0.951 . S
C201 C200 1.386 . S
C201 C205 1.383 . S
C202 C200 1.383 . S
C202 C203 1.402 . S
C202 H217 0.951 . S
C203 C202 1.402 . S
C203 C204 1.375 . S
C203 C206 1.481 . S
C204 C203 1.375 . S
C204 C205 1.367 . S
C204 H218 0.951 . S
C205 C201 1.383 . S
C205 C204 1.367 . S
C205 H219 0.950 . S
C206 C203 1.481 . S
C206 C207 1.297 1_565 S
C206 H220 0.950 . S
C207 C206 1.297 1_545 S
C207 C208 1.479 . S
C207 H221 0.950 . S
C208 C207 1.479 . S
C208 C209 1.375 . S
C208 C214 1.404 . S
C209 C208 1.375 . S
C209 C210 1.369 . S
C209 H222 0.950 . S
C210 C209 1.369 . S
C210 C211 1.392 . S
C210 H223 0.951 . S
C211 C210 1.392 . S
C211 C213 1.384 . S
H212 C214 0.949 . S
C213 C211 1.384 . S
C213 C214 1.385 . S
C213 H215 0.950 . S
C214 C208 1.404 . S
C214 H212 0.949 . S
C214 C213 1.385 . S
H215 C213 0.950 . S
H216 C200 0.951 . S
H217 C202 0.951 . S
H218 C204 0.951 . S
H219 C205 0.950 . S
H220 C206 0.950 . S
H221 C207 0.950 . S
H222 C209 0.950 . S
H223 C210 0.951 . S
C224 C225 1.386 . S
C224 C226 1.383 . S
C224 H240 0.951 . S
C225 C224 1.386 . S
C225 C229 1.383 . S
C226 C224 1.383 . S
C226 C227 1.402 . S
C226 H241 0.951 . S
C227 C226 1.402 . S
C227 C228 1.375 . S
C227 C230 1.481 . S
C228 C227 1.375 . S
C228 C229 1.367 . S
C228 H242 0.951 . S
C229 C225 1.383 . S
C229 C228 1.367 . S
C229 H243 0.950 . S
C230 C227 1.481 . S
C230 C231 1.297 1_455 S
C230 H244 0.957 . S
C231 C230 1.297 1_655 S
C231 C232 1.479 . S
C231 H245 0.950 . S
C232 C231 1.479 . S
C232 C233 1.375 . S
C232 C238 1.404 . S
C233 C232 1.375 . S
C233 C234 1.369 . S
C233 H246 0.950 . S
C234 C233 1.369 . S
C234 C235 1.392 . S
C234 H247 0.951 . S
C235 C234 1.392 . S
C235 C237 1.384 . S
H236 C238 0.949 . S
C237 C235 1.384 . S
C237 C238 1.385 . S
C237 H239 0.950 . S
C238 C232 1.404 . S
C238 H236 0.949 . S
C238 C237 1.385 . S
H239 C237 0.950 . S
H240 C224 0.951 . S
H241 C226 0.951 . S
H242 C228 0.951 . S
H243 C229 0.950 . S
H244 C230 0.957 . S
H245 C231 0.950 . S
H246 C233 0.950 . S
H247 C234 0.951 . S
C248 C249 1.386 . S
C248 C250 1.383 . S
C248 H264 0.951 . S
C249 C248 1.386 . S
C249 C253 1.383 . S
C250 C248 1.383 . S
C250 C251 1.402 . S
C250 H265 0.951 . S
C251 C250 1.402 . S
C251 C252 1.375 . S
C251 C254 1.481 . S
C252 C251 1.375 . S
C252 C253 1.367 . S
C252 H266 0.951 . S
C253 C249 1.383 . S
C253 C252 1.367 . S
C253 H267 0.950 . S
C254 C251 1.481 . S
C254 C255 1.297 1_545 S
C254 H268 0.950 . S
C255 C254 1.297 1_565 S
C255 C256 1.479 . S
C255 H269 0.950 . S
C256 C255 1.479 . S
C256 C257 1.375 . S
C256 C262 1.404 . S
C257 C256 1.375 . S
C257 C258 1.369 . S
C257 H270 0.950 . S
C258 C257 1.369 . S
C258 C259 1.392 . S
C258 H271 0.951 . S
C259 C258 1.392 . S
C259 C261 1.384 . S
H260 C262 0.949 . S
C261 C259 1.384 . S
C261 C262 1.385 . S
C261 H263 0.950 . S
C262 C256 1.404 . S
C262 H260 0.949 . S
C262 C261 1.385 . S
H263 C261 0.950 . S
H264 C248 0.951 . S
H265 C250 0.951 . S
H266 C252 0.951 . S
H267 C253 0.950 . S
H268 C254 0.950 . S
H269 C255 0.950 . S
H270 C257 0.950 . S
H271 C258 0.951 . S
C272 C273 1.386 . S
C272 C274 1.383 . S
C272 H288 0.951 . S
C273 C272 1.386 . S
C273 C277 1.383 . S
C274 C272 1.383 . S
C274 C275 1.402 . S
C274 H289 0.951 . S
C275 C274 1.402 . S
C275 C276 1.375 . S
C275 C278 1.481 . S
C276 C275 1.375 . S
C276 C277 1.367 . S
C276 H290 0.951 . S
C277 C273 1.383 . S
C277 C276 1.367 . S
C277 H291 0.950 . S
C278 C275 1.481 . S
C278 C279 1.297 1_655 S
C278 H292 0.950 . S
C279 C278 1.297 1_455 S
C279 C280 1.479 . S
C279 H293 0.962 . S
C280 C279 1.479 . S
C280 C281 1.375 . S
C280 C286 1.404 . S
C281 C280 1.375 . S
C281 C282 1.369 . S
C281 H294 0.950 . S
C282 C281 1.369 . S
C282 C283 1.392 . S
C282 H295 0.951 . S
C283 C282 1.392 . S
C283 C285 1.384 . S
H284 C286 0.949 . S
C285 C283 1.384 . S
C285 C286 1.385 . S
C285 H287 0.950 . S
C286 C280 1.404 . S
C286 H284 0.949 . S
C286 C285 1.385 . S
H287 C285 0.950 . S
H288 C272 0.951 . S
H289 C274 0.951 . S
H290 C276 0.951 . S
H291 C277 0.950 . S
H292 C278 0.950 . S
H293 C279 0.962 . S
H294 C281 0.950 . S
H295 C282 0.951 . S
C296 C297 1.386 . S
C296 C298 1.383 . S
C296 H312 0.951 . S
C297 C296 1.386 . S
C297 C301 1.383 . S
C298 C296 1.383 . S
C298 C299 1.402 . S
C298 H313 0.951 . S
C299 C298 1.402 . S
C299 C300 1.375 . S
C299 C302 1.481 . S
C300 C299 1.375 . S
C300 C301 1.367 . S
C300 H314 0.951 . S
C301 C297 1.383 . S
C301 C300 1.367 . S
C301 H315 0.950 . S
C302 C299 1.481 . S
C302 C303 1.297 . S
C302 H316 0.950 . S
C303 C302 1.297 . S
C303 C304 1.479 . S
C303 H317 0.950 . S
C304 C303 1.479 . S
C304 C305 1.375 . S
C304 C310 1.404 . S
C305 C304 1.375 . S
C305 C306 1.369 . S
C305 H318 0.950 . S
C306 C305 1.369 . S
C306 C307 1.392 . S
C306 H319 0.951 . S
C307 C306 1.392 . S
C307 C309 1.384 . S
H308 C310 0.949 . S
C309 C307 1.384 . S
C309 C310 1.385 . S
C309 H311 0.950 . S
C310 C304 1.404 . S
C310 H308 0.949 . S
C310 C309 1.385 . S
H311 C309 0.950 . S
H312 C296 0.951 . S
H313 C298 0.951 . S
H314 C300 0.951 . S
H315 C301 0.950 . S
H316 C302 0.950 . S
H317 C303 0.950 . S
H318 C305 0.950 . S
H319 C306 0.951 . S
C320 C321 1.386 . S
C320 C322 1.383 . S
C320 H336 0.951 . S
C321 C320 1.386 . S
C321 C325 1.383 . S
C322 C320 1.383 . S
C322 C323 1.402 . S
C322 H337 0.951 . S
C323 C322 1.402 . S
C323 C324 1.375 . S
C323 C326 1.481 . S
C324 C323 1.375 . S
C324 C325 1.367 . S
C324 H338 0.951 . S
C325 C321 1.383 . S
C325 C324 1.367 . S
C325 H339 0.950 . S
C326 C323 1.481 . S
C326 C327 1.297 . S
C326 H340 0.950 . S
C327 C326 1.297 . S
C327 C328 1.479 . S
C327 H341 0.950 . S
C328 C327 1.479 . S
C328 C329 1.375 . S
C328 C334 1.404 . S
C329 C328 1.375 . S
C329 C330 1.369 . S
C329 H342 0.950 . S
C330 C329 1.369 . S
C330 C331 1.392 . S
C330 H343 0.951 . S
C331 C330 1.392 . S
C331 C333 1.384 . S
H332 C334 0.949 . S
C333 C331 1.384 . S
C333 C334 1.385 . S
C333 H335 0.950 . S
C334 C328 1.404 . S
C334 H332 0.949 . S
C334 C333 1.385 . S
H335 C333 0.950 . S
H336 C320 0.951 . S
H337 C322 0.951 . S
H338 C324 0.951 . S
H339 C325 0.950 . S
H340 C326 0.950 . S
H341 C327 0.950 . S
H342 C329 0.950 . S
H343 C330 0.951 . S
C344 C345 1.386 . S
C344 C346 1.383 . S
C344 H360 0.951 . S
C345 C344 1.386 . S
C345 C349 1.383 . S
C346 C344 1.383 . S
C346 C347 1.402 . S
C346 H361 0.951 . S
C347 C346 1.402 . S
C347 C348 1.375 . S
C347 C350 1.481 . S
C348 C347 1.375 . S
C348 C349 1.367 . S
C348 H362 0.951 . S
C349 C345 1.383 . S
C349 C348 1.367 . S
C349 H363 0.950 . S
C350 C347 1.481 . S
C350 C351 1.297 . S
C350 H364 0.950 . S
C351 C350 1.297 . S
C351 C352 1.479 . S
C351 H365 0.950 . S
C352 C351 1.479 . S
C352 C353 1.375 . S
C352 C358 1.404 . S
C353 C352 1.375 . S
C353 C354 1.369 . S
C353 H366 0.950 . S
C354 C353 1.369 . S
C354 C355 1.392 . S
C354 H367 0.951 . S
C355 C354 1.392 . S
C355 C357 1.384 . S
H356 C358 0.949 . S
C357 C355 1.384 . S
C357 C358 1.385 . S
C357 H359 0.950 . S
C358 C352 1.404 . S
C358 H356 0.949 . S
C358 C357 1.385 . S
H359 C357 0.950 . S
H360 C344 0.951 . S
H361 C346 0.951 . S
H362 C348 0.951 . S
H363 C349 0.950 . S
H364 C350 0.950 . S
H365 C351 0.950 . S
H366 C353 0.950 . S
H367 C354 0.951 . S
C368 C369 1.386 . S
C368 C370 1.383 . S
C368 H384 0.951 . S
C369 C368 1.386 . S
C369 C373 1.383 . S
C370 C368 1.383 . S
C370 C371 1.402 . S
C370 H385 0.951 . S
C371 C370 1.402 . S
C371 C372 1.375 . S
C371 C374 1.481 . S
C372 C371 1.375 . S
C372 C373 1.367 . S
C372 H386 0.951 . S
C373 C369 1.383 . S
C373 C372 1.367 . S
C373 H387 0.950 . S
C374 C371 1.481 . S
C374 C375 1.297 . S
C374 H388 0.950 . S
C375 C374 1.297 . S
C375 C376 1.479 . S
C375 H389 0.950 . S
C376 C375 1.479 . S
C376 C377 1.375 . S
C376 C382 1.404 . S
C377 C376 1.375 . S
C377 C378 1.369 . S
C377 H390 0.950 . S
C378 C377 1.369 . S
C378 C379 1.392 . S
C378 H391 0.951 . S
C379 C378 1.392 . S
C379 C381 1.384 . S
H380 C382 0.949 . S
C381 C379 1.384 . S
C381 C382 1.385 . S
C381 H383 0.950 . S
C382 C376 1.404 . S
C382 H380 0.949 . S
C382 C381 1.385 . S
H383 C381 0.950 . S
H384 C368 0.951 . S
H385 C370 0.951 . S
H386 C372 0.951 . S
H387 C373 0.950 . S
H388 C374 0.950 . S
H389 C375 0.950 . S
H390 C377 0.950 . S
H391 C378 0.951 . S
C392 C393 1.386 . S
C392 C394 1.383 . S
C392 H408 0.951 . S
C393 C392 1.386 . S
C393 C397 1.383 . S
C394 C392 1.383 . S
C394 C395 1.402 . S
C394 H409 0.951 . S
C395 C394 1.402 . S
C395 C396 1.375 . S
C395 C398 1.481 . S
C396 C395 1.375 . S
C396 C397 1.367 . S
C396 H410 0.951 . S
C397 C393 1.383 . S
C397 C396 1.367 . S
C397 H411 0.950 . S
C398 C395 1.481 . S
C398 C399 1.297 . S
C398 H412 0.950 . S
C399 C398 1.297 . S
C399 C400 1.479 . S
C399 H413 0.950 . S
C400 C399 1.479 . S
C400 C401 1.375 . S
C400 C406 1.404 . S
C401 C400 1.375 . S
C401 C402 1.369 . S
C401 H414 0.950 . S
C402 C401 1.369 . S
C402 C403 1.392 . S
C402 H415 0.951 . S
C403 C402 1.392 . S
C403 C405 1.384 . S
H404 C406 0.949 . S
C405 C403 1.384 . S
C405 C406 1.385 . S
C405 H407 0.950 . S
C406 C400 1.404 . S
C406 H404 0.949 . S
C406 C405 1.385 . S
H407 C405 0.950 . S
H408 C392 0.951 . S
H409 C394 0.951 . S
H410 C396 0.951 . S
H411 C397 0.950 . S
H412 C398 0.950 . S
H413 C399 0.950 . S
H414 C401 0.950 . S
H415 C402 0.951 . S
C416 C417 1.386 . S
C416 C418 1.383 . S
C416 H432 0.951 . S
C417 C416 1.386 . S
C417 C421 1.383 . S
C418 C416 1.383 . S
C418 C419 1.402 . S
C418 H433 0.951 . S
C419 C418 1.402 . S
C419 C420 1.375 . S
C419 C422 1.481 . S
C420 C419 1.375 . S
C420 C421 1.367 . S
C420 H434 0.951 . S
C421 C417 1.383 . S
C421 C420 1.367 . S
C421 H435 0.950 . S
C422 C419 1.481 . S
C422 C423 1.297 . S
C422 H436 0.950 . S
C423 C422 1.297 . S
C423 C424 1.479 . S
C423 H437 0.950 . S
C424 C423 1.479 . S
C424 C425 1.375 . S
C424 C430 1.404 . S
C425 C424 1.375 . S
C425 C426 1.369 . S
C425 H438 0.950 . S
C426 C425 1.369 . S
C426 C427 1.392 . S
C426 H439 0.951 . S
C427 C426 1.392 . S
C427 C429 1.384 . S
H428 C430 0.949 . S
C429 C427 1.384 . S
C429 C430 1.385 . S
C429 H431 0.950 . S
C430 C424 1.404 . S
C430 H428 0.949 . S
C430 C429 1.385 . S
H431 C429 0.950 . S
H432 C416 0.951 . S
H433 C418 0.951 . S
H434 C420 0.951 . S
H435 C421 0.950 . S
H436 C422 0.950 . S
H437 C423 0.950 . S
H438 C425 0.950 . S
H439 C426 0.951 . S
C440 C441 1.386 . S
C440 C442 1.383 . S
C440 H456 0.951 . S
C441 C440 1.386 . S
C441 C445 1.383 . S
C442 C440 1.383 . S
C442 C443 1.402 . S
C442 H457 0.951 . S
C443 C442 1.402 . S
C443 C444 1.375 . S
C443 C446 1.481 . S
C444 C443 1.375 . S
C444 C445 1.367 . S
C444 H458 0.951 . S
C445 C441 1.383 . S
C445 C444 1.367 . S
C445 H459 0.950 . S
C446 C443 1.481 . S
C446 C447 1.297 . S
C446 H460 0.950 . S
C447 C446 1.297 . S
C447 C448 1.479 . S
C447 H461 0.950 . S
C448 C447 1.479 . S
C448 C449 1.375 . S
C448 C454 1.404 . S
C449 C448 1.375 . S
C449 C450 1.369 . S
C449 H462 0.950 . S
C450 C449 1.369 . S
C450 C451 1.392 . S
C450 H463 0.951 . S
C451 C450 1.392 . S
C451 C453 1.384 . S
H452 C454 0.949 . S
C453 C451 1.384 . S
C453 C454 1.385 . S
C453 H455 0.950 . S
C454 C448 1.404 . S
C454 H452 0.949 . S
C454 C453 1.385 . S
H455 C453 0.950 . S
H456 C440 0.951 . S
H457 C442 0.951 . S
H458 C444 0.951 . S
H459 C445 0.950 . S
H460 C446 0.950 . S
H461 C447 0.950 . S
H462 C449 0.950 . S
H463 C450 0.951 . S
C464 C465 1.386 . S
C464 C466 1.383 . S
C464 H480 0.951 . S
C465 C464 1.386 . S
C465 C469 1.383 . S
C466 C464 1.383 . S
C466 C467 1.402 . S
C466 H481 0.951 . S
C467 C466 1.402 . S
C467 C468 1.375 . S
C467 C470 1.481 . S
C468 C467 1.375 . S
C468 C469 1.367 . S
C468 H482 0.951 . S
C469 C465 1.383 . S
C469 C468 1.367 . S
C469 H483 0.950 . S
C470 C467 1.481 . S
C470 C471 1.297 . S
C470 H484 0.950 . S
C471 C470 1.297 . S
C471 C472 1.479 . S
C471 H485 0.950 . S
C472 C471 1.479 . S
C472 C473 1.375 . S
C472 C478 1.404 . S
C473 C472 1.375 . S
C473 C474 1.369 . S
C473 H486 0.950 . S
C474 C473 1.369 . S
C474 C475 1.392 . S
C474 H487 0.951 . S
C475 C474 1.392 . S
C475 C477 1.384 . S
H476 C478 0.949 . S
C477 C475 1.384 . S
C477 C478 1.385 . S
C477 H479 0.950 . S
C478 C472 1.404 . S
C478 H476 0.949 . S
C478 C477 1.385 . S
H479 C477 0.950 . S
H480 C464 0.951 . S
H481 C466 0.951 . S
H482 C468 0.951 . S
H483 C469 0.950 . S
H484 C470 0.950 . S
H485 C471 0.950 . S
H486 C473 0.950 . S
H487 C474 0.951 . S
C105 C5 1.447 . S
C115 C44 1.455 . S
C129 C10 1.439 . S
C139 C23 1.429 . S
C153 C18 1.439 . S
C163 C31 1.453 . S
C177 C49 1.447 . S
C187 C36 1.462 . S
C201 C57 1.432 . S
C211 C96 1.418 . S
C225 C75 1.462 . S
C235 C62 1.431 . S
C249 C83 1.402 . S
C259 C70 1.373 . S
C273 C101 1.444 . S
C283 C88 1.465 . S
C297 C86 1.406 . S
C307 C0 1.397 . S
C321 C21 1.383 . S
C331 C91 1.354 . S
C345 C60 1.409 . S
C355 C26 1.415 . S
C369 C65 1.381 . S
C379 C47 1.351 . S
C393 C73 1.365 . S
C403 C39 1.350 . S
C417 C8 1.409 . S
C427 C78 1.405 . S
C441 C13 1.392 . S
C451 C99 1.407 . S
C465 C34 1.374 . S
C475 C52 1.378 . S
