# Generated by pormake.
# Topology snk, (6)-cn, num edge types: 1
# Building blocks:
#     Node 0, Type 0, BuildingBlock: MIFKUJ_clean_sbu_0, # of connection points: 6
#     Node 1, Type 0, BuildingBlock: MIFKUJ_clean_sbu_0, # of connection points: 6
#     Node 2, Type 0, BuildingBlock: MIFKUJ_clean_sbu_0, # of connection points: 6
#     Node 3, Type 0, BuildingBlock: MIFKUJ_clean_sbu_0, # of connection points: 6
#     Node 4, Type 0, BuildingBlock: MIFKUJ_clean_sbu_0, # of connection points: 6
#     Node 5, Type 0, BuildingBlock: MIFKUJ_clean_sbu_0, # of connection points: 6
#     Node 6, Type 0, BuildingBlock: MIFKUJ_clean_sbu_0, # of connection points: 6
#     Node 7, Type 0, BuildingBlock: MIFKUJ_clean_sbu_0, # of connection points: 6
#     Edge 8, Type (0, 0), BuildingBlock: ZUJKAS_clean_linker_0, # of connection points: 2
#     Edge 9, Type (0, 0), BuildingBlock: ZUJKAS_clean_linker_0, # of connection points: 2
#     Edge 10, Type (0, 0), BuildingBlock: ZUJKAS_clean_linker_0, # of connection points: 2
#     Edge 11, Type (0, 0), BuildingBlock: ZUJKAS_clean_linker_0, # of connection points: 2
#     Edge 12, Type (0, 0), BuildingBlock: ZUJKAS_clean_linker_0, # of connection points: 2
#     Edge 13, Type (0, 0), BuildingBlock: ZUJKAS_clean_linker_0, # of connection points: 2
#     Edge 14, Type (0, 0), BuildingBlock: ZUJKAS_clean_linker_0, # of connection points: 2
#     Edge 15, Type (0, 0), BuildingBlock: ZUJKAS_clean_linker_0, # of connection points: 2
#     Edge 16, Type (0, 0), BuildingBlock: ZUJKAS_clean_linker_0, # of connection points: 2
#     Edge 17, Type (0, 0), BuildingBlock: ZUJKAS_clean_linker_0, # of connection points: 2
#     Edge 18, Type (0, 0), BuildingBlock: ZUJKAS_clean_linker_0, # of connection points: 2
#     Edge 19, Type (0, 0), BuildingBlock: ZUJKAS_clean_linker_0, # of connection points: 2
#     Edge 20, Type (0, 0), BuildingBlock: ZUJKAS_clean_linker_0, # of connection points: 2
#     Edge 21, Type (0, 0), BuildingBlock: ZUJKAS_clean_linker_0, # of connection points: 2
#     Edge 22, Type (0, 0), BuildingBlock: ZUJKAS_clean_linker_0, # of connection points: 2
#     Edge 23, Type (0, 0), BuildingBlock: ZUJKAS_clean_linker_0, # of connection points: 2
#     Edge 24, Type (0, 0), BuildingBlock: ZUJKAS_clean_linker_0, # of connection points: 2
#     Edge 25, Type (0, 0), BuildingBlock: ZUJKAS_clean_linker_0, # of connection points: 2
#     Edge 26, Type (0, 0), BuildingBlock: ZUJKAS_clean_linker_0, # of connection points: 2
#     Edge 27, Type (0, 0), BuildingBlock: ZUJKAS_clean_linker_0, # of connection points: 2
#     Edge 28, Type (0, 0), BuildingBlock: ZUJKAS_clean_linker_0, # of connection points: 2
#     Edge 29, Type (0, 0), BuildingBlock: ZUJKAS_clean_linker_0, # of connection points: 2
#     Edge 30, Type (0, 0), BuildingBlock: ZUJKAS_clean_linker_0, # of connection points: 2
#     Edge 31, Type (0, 0), BuildingBlock: ZUJKAS_clean_linker_0, # of connection points: 2
# Relax obj value: 0.029
# Max RMSD: 0.068
# Mean RMSD: 0.065
data_MOF--net-snk--node1-MIFKUJ_clean_sbu_0--edge1-ZUJKAS_clean_linker_0
_symmetry_space_group_name_H-M    P1
_symmetry_Int_Tables_number       1
_symmetry_cell_setting            triclinic
loop_
_symmetry_equiv_pos_as_xyz
'x, y, z'
_cell_length_a     54.605412
_cell_length_b     54.67798
_cell_length_c     23.045769
_cell_angle_alpha  97.236938
_cell_angle_beta   83.339733
_cell_angle_gamma 89.899552
loop_
_atom_site_label
_atom_site_type_symbol
_atom_site_fract_x
_atom_site_fract_y
_atom_site_fract_z
_atom_type_partial_charge
Zn0 Zn 0.00429 0.00825 0.41741 0.0
Zn1 Zn 0.01614 0.01061 0.55878 0.0
C2 C 0.95635 0.02985 0.42884 0.0
O3 O 0.95184 0.00704 0.40781 0.0
C4 C 0.05827 0.98399 0.57414 0.0
O5 O 0.06286 0.00647 0.59743 0.0
O6 O 0.0041 1.00121 0.32932 0.0
O7 O 0.0377 0.02189 0.42718 0.0
O8 O 0.03449 0.03763 0.52115 0.0
C9 C 0.00271 0.02027 0.3033 0.0
O10 O 0.00236 0.04219 0.33422 0.0
O11 O 0.97794 0.03506 0.44172 0.0
C12 C 0.99677 0.00921 0.67894 0.0
O13 O 0.98307 0.99215 0.65415 0.0
O14 O 0.01198 0.02072 0.64664 0.0
O15 O 0.98232 1.00139 0.53689 0.0
O16 O 0.99411 0.97783 0.45402 0.0
O17 O 0.03859 0.98039 0.54976 0.0
C18 C 0.04486 0.03671 0.46856 0.0
C19 C 0.98005 0.98178 0.50219 0.0
Zn20 Zn 0.24803 0.74725 0.82596 0.0
Zn21 Zn 0.25397 0.75534 0.68532 0.0
C22 C 0.27111 0.70346 0.84441 0.0
O23 O 0.24906 0.70215 0.87337 0.0
C24 C 0.23136 0.80123 0.68023 0.0
O25 O 0.25391 0.8044 0.65585 0.0
O26 O 0.23883 0.75202 0.91453 0.0
O27 O 0.26144 0.7804 0.80803 0.0
O28 O 0.28384 0.7684 0.72359 0.0
C29 C 0.25647 0.75876 0.94417 0.0
O30 O 0.27792 0.76332 0.91572 0.0
O31 O 0.27568 0.72144 0.81486 0.0
C32 C 0.24394 0.74749 0.56766 0.0
O33 O 0.22249 0.74328 0.59655 0.0
O34 O 0.26211 0.75276 0.59671 0.0
O35 O 0.24041 0.72202 0.70003 0.0
O36 O 0.21897 0.7324 0.78683 0.0
O37 O 0.22646 0.78119 0.70159 0.0
C38 C 0.28062 0.7825 0.77222 0.0
C39 C 0.22189 0.71899 0.73712 0.0
Zn40 Zn 0.50685 1.00099 0.07289 0.0
Zn41 Zn 0.49714 0.99949 0.93326 0.0
C42 C 0.55195 0.02515 0.09168 0.0
O43 O 0.55528 0.00435 0.11292 0.0
C44 C 0.45117 0.97518 0.92424 0.0
O45 O 0.44537 0.99718 0.91219 0.0
O46 O 0.50428 0.9941 0.15712 0.0
O47 O 0.47322 0.01444 0.06395 0.0
O48 O 0.48313 0.03074 0.98193 0.0
C49 C 0.49865 0.01209 0.19709 0.0
O50 O 0.49415 0.03384 0.18159 0.0
O51 O 0.53231 0.02813 0.06831 0.0
C52 C 0.50473 0.9876 0.8091 0.0
O53 O 0.50944 0.96599 0.82504 0.0
O54 O 0.49921 0.00574 0.84873 0.0
O55 O 0.53115 0.98742 0.94324 0.0
O56 O 0.52032 0.96978 0.02283 0.0
O57 O 0.47263 0.97158 0.93838 0.0
C58 C 0.46995 0.03088 0.03115 0.0
C59 C 0.53426 0.97055 0.97497 0.0
Zn60 Zn 0.25009 0.25324 0.18434 0.0
Zn61 Zn 0.25766 0.25208 0.31858 0.0
C62 C 0.2703 0.29911 0.16615 0.0
O63 O 0.24862 0.30113 0.14751 0.0
C64 C 0.23741 0.20577 0.33332 0.0
O65 O 0.2591 0.20323 0.35156 0.0
O66 O 0.24293 0.24928 0.09869 0.0
O67 O 0.2661 0.22151 0.19776 0.0
O68 O 0.28816 0.23867 0.26574 0.0
C69 C 0.26142 0.24496 0.05949 0.0
O70 O 0.28325 0.24194 0.07653 0.0
O71 O 0.27547 0.27968 0.18755 0.0
C72 C 0.24599 0.25977 0.44342 0.0
O73 O 0.22419 0.26284 0.42623 0.0
O74 O 0.26454 0.25562 0.40437 0.0
O75 O 0.24167 0.28391 0.30552 0.0
O76 O 0.21968 0.26674 0.23738 0.0
O77 O 0.23228 0.2257 0.31402 0.0
C78 C 0.28554 0.22187 0.22342 0.0
C79 C 0.22222 0.28348 0.27988 0.0
Zn80 Zn 0.74884 0.24727 0.31929 0.0
Zn81 Zn 0.75386 0.25654 0.18043 0.0
C82 C 0.77334 0.20162 0.31847 0.0
O83 O 0.75049 0.19605 0.33585 0.0
C84 C 0.72982 0.30268 0.18294 0.0
O85 O 0.75259 0.30807 0.16432 0.0
O86 O 0.7406 0.24966 0.40777 0.0
O87 O 0.76058 0.28129 0.30451 0.0
O88 O 0.78322 0.2703 0.21989 0.0
C89 C 0.75853 0.25595 0.43688 0.0
O90 O 0.77967 0.26116 0.40803 0.0
O91 O 0.77769 0.22302 0.30391 0.0
C92 C 0.7439 0.24969 0.0629 0.0
O93 O 0.72253 0.24508 0.09163 0.0
O94 O 0.76204 0.25494 0.09203 0.0
O95 O 0.7412 0.22267 0.19312 0.0
O96 O 0.71988 0.23218 0.28036 0.0
O97 O 0.72547 0.2813 0.19759 0.0
C98 C 0.77968 0.28408 0.26897 0.0
C99 C 0.72285 0.21911 0.23021 0.0
Zn100 Zn 0.76633 0.76953 0.67855 0.0
Zn101 Zn 0.74171 0.73621 0.82598 0.0
C102 C 0.78792 0.81535 0.6593 0.0
O103 O 0.76516 0.82033 0.65079 0.0
C104 C 0.72034 0.69039 0.84557 0.0
O105 O 0.7431 0.68564 0.85454 0.0
O106 O 0.75681 0.76335 0.59672 0.0
O107 O 0.78224 0.73826 0.69456 0.0
O108 O 0.77051 0.71973 0.77309 0.0
C109 C 0.77416 0.75755 0.5555 0.0
O110 O 0.79669 0.75501 0.56894 0.0
O111 O 0.79297 0.79447 0.67403 0.0
C112 C 0.73387 0.74834 0.9489 0.0
O113 O 0.71136 0.75085 0.93534 0.0
O114 O 0.75125 0.74251 0.90778 0.0
O115 O 0.72569 0.76733 0.80961 0.0
O116 O 0.73743 0.78594 0.73124 0.0
O117 O 0.71516 0.71119 0.83062 0.0
C118 C 0.78447 0.72093 0.72552 0.0
C119 C 0.72341 0.78465 0.77866 0.0
Zn120 Zn 0.49184 0.49336 0.93971 0.0
Zn121 Zn 0.49998 0.4985 0.08116 0.0
C122 C 0.44943 0.51872 0.92089 0.0
O123 O 0.44727 0.49691 0.89086 0.0
C124 C 0.54656 0.47547 0.07841 0.0
O125 O 0.55132 0.49835 0.09823 0.0
O126 O 0.4968 0.4842 0.85121 0.0
O127 O 0.5252 0.50408 0.96097 0.0
O128 O 0.51302 0.52788 0.04347 0.0
C129 C 0.5046 0.50146 0.82202 0.0
O130 O 0.51013 0.52262 0.8509 0.0
O131 O 0.46753 0.52232 0.95101 0.0
C132 C 0.4928 0.48848 0.19824 0.0
O133 O 0.48794 0.46716 0.16904 0.0
O134 O 0.49818 0.50656 0.1696 0.0
O135 O 0.46647 0.48618 0.06559 0.0
O136 O 0.4755 0.46529 0.9771 0.0
O137 O 0.52521 0.47051 0.06355 0.0
C138 C 0.52753 0.52356 0.99602 0.0
C139 C 0.46233 0.46851 0.02679 0.0
Zn140 Zn 0.0061 0.50098 0.57339 0.0
Zn141 Zn 0.99662 0.49956 0.43334 0.0
C142 C 0.05065 0.52555 0.59541 0.0
O143 O 0.05377 0.50474 0.61682 0.0
C144 C 0.95017 0.47604 0.42589 0.0
O145 O 0.94458 0.49814 0.41416 0.0
O146 O 0.00287 0.49392 0.65759 0.0
O147 O 0.97248 0.51404 0.56281 0.0
O148 O 0.98324 0.53102 0.48221 0.0
C149 C 0.99668 0.51178 0.69756 0.0
O150 O 0.99199 0.53347 0.68206 0.0
O151 O 0.03136 0.5284 0.57059 0.0
C152 C 0.00371 0.48743 0.30929 0.0
O153 O 0.00831 0.46585 0.32551 0.0
O154 O 0.99846 0.5057 0.34872 0.0
O155 O 0.03046 0.48685 0.4425 0.0
O156 O 0.02025 0.46995 0.52359 0.0
O157 O 0.97169 0.47209 0.43924 0.0
C158 C 0.96955 0.53077 0.53059 0.0
C159 C 0.03376 0.47027 0.47492 0.0
H160 H 0.07057 0.06602 0.5451 0.0
H161 H 0.10399 0.09406 0.52019 0.0
H162 H 0.09822 0.07371 0.33533 0.0
H163 H 0.06528 0.04537 0.35954 0.0
H164 H 0.14592 0.07432 0.35966 0.0
H165 H 0.09638 0.16061 0.46213 0.0
H166 H 0.09832 0.13802 0.51166 0.0
H167 H 0.08098 0.13157 0.4499 0.0
C168 C 0.07639 0.06757 0.49917 0.0
C169 C 0.06521 0.05354 0.45433 0.0
C170 C 0.09539 0.08367 0.48504 0.0
C171 C 0.10327 0.08622 0.42595 0.0
C172 C 0.09234 0.07204 0.3812 0.0
H173 H 0.19088 0.20517 0.30026 0.0
H174 H 0.15877 0.17507 0.3191 0.0
C175 C 0.07351 0.05586 0.39519 0.0
C176 C 0.1231 0.10345 0.41032 0.0
H177 H 0.1387 0.1641 0.42727 0.0
C178 C 0.14435 0.09397 0.37431 0.0
C179 C 0.12078 0.1291 0.42877 0.0
C180 C 0.0978 0.14052 0.46477 0.0
C181 C 0.16353 0.10943 0.35679 0.0
C182 C 0.16156 0.13496 0.37684 0.0
C183 C 0.14019 0.14448 0.41227 0.0
C184 C 0.18151 0.15216 0.36206 0.0
C185 C 0.18551 0.09835 0.31614 0.0
C186 C 0.20493 0.14916 0.37978 0.0
C187 C 0.22334 0.1662 0.36878 0.0
C188 C 0.21855 0.18673 0.34046 0.0
C189 C 0.19515 0.18953 0.3221 0.0
C190 C 0.17678 0.1724 0.33292 0.0
H191 H 0.18107 0.08035 0.29182 0.0
H192 H 0.19223 0.11094 0.28373 0.0
H193 H 0.20068 0.09514 0.34254 0.0
H194 H 0.2088 0.13395 0.40342 0.0
H195 H 0.24112 0.1636 0.38382 0.0
H196 H 0.10039 0.9867 0.62719 0.0
H197 H 0.12655 0.95294 0.64512 0.0
H198 H 0.07988 0.90045 0.55734 0.0
H199 H 0.05341 0.93434 0.53883 0.0
H200 H 0.1119 0.9127 0.70873 0.0
H201 H 0.1508 0.88195 0.47681 0.0
H202 H 0.13589 0.91169 0.49916 0.0
H203 H 0.11775 0.8844 0.4916 0.0
C204 C 0.09569 0.96802 0.61119 0.0
C205 C 0.07479 0.96326 0.58136 0.0
C206 C 0.11066 0.94872 0.62174 0.0
C207 C 0.10524 0.9242 0.60241 0.0
C208 C 0.08454 0.91928 0.57209 0.0
H209 H 0.1815 0.79858 0.71414 0.0
H210 H 0.14904 0.82712 0.69731 0.0
C211 C 0.06944 0.93865 0.56159 0.0
C212 C 0.12129 0.90403 0.61504 0.0
H213 H 0.16421 0.86051 0.55004 0.0
C214 C 0.12317 0.90109 0.67407 0.0
C215 C 0.13609 0.88907 0.56972 0.0
C216 C 0.13529 0.89192 0.50569 0.0
C217 C 0.1398 0.88391 0.68903 0.0
C218 C 0.15481 0.86917 0.64372 0.0
C219 C 0.15259 0.87178 0.58467 0.0
C220 C 0.17419 0.8522 0.65653 0.0
C221 C 0.14189 0.8823 0.75314 0.0
C222 C 0.19904 0.85685 0.63933 0.0
C223 C 0.21755 0.8407 0.64895 0.0
C224 C 0.21163 0.81937 0.67568 0.0
C225 C 0.18671 0.81491 0.69382 0.0
C226 C 0.16813 0.83119 0.68424 0.0
H227 H 0.13212 0.89785 0.78249 0.0
H228 H 0.13367 0.86482 0.76523 0.0
H229 H 0.16154 0.88217 0.76123 0.0
H230 H 0.20412 0.87298 0.61799 0.0
H231 H 0.23652 0.84473 0.63433 0.0
H232 H 0.27815 0.81652 0.8706 0.0
H233 H 0.30801 0.84802 0.89633 0.0
H234 H 0.35494 0.82312 0.73604 0.0
H235 H 0.32483 0.79177 0.70919 0.0
H236 H 0.35593 0.84398 0.91599 0.0
H237 H 0.34945 0.89645 0.72716 0.0
H238 H 0.32769 0.87304 0.74551 0.0
H239 H 0.35745 0.86445 0.7061 0.0
C240 C 0.29474 0.81777 0.8405 0.0
C241 C 0.29894 0.80167 0.78748 0.0
C242 C 0.31187 0.83579 0.85546 0.0
C243 C 0.33361 0.83823 0.81782 0.0
C244 C 0.33807 0.82198 0.76524 0.0
H245 H 0.4601 0.92552 0.92163 0.0
H246 H 0.43222 0.89167 0.89726 0.0
C247 C 0.32087 0.80397 0.75007 0.0
C248 C 0.35154 0.8577 0.83417 0.0
H249 H 0.3802 0.90868 0.78883 0.0
C250 C 0.36125 0.85813 0.88816 0.0
C251 C 0.35827 0.87636 0.79825 0.0
C252 C 0.34753 0.87778 0.74129 0.0
C253 C 0.37749 0.87662 0.90716 0.0
C254 C 0.38462 0.89498 0.87066 0.0
C255 C 0.3749 0.89453 0.81667 0.0
C256 C 0.40142 0.91535 0.88824 0.0
C257 C 0.38626 0.8767 0.9669 0.0
C258 C 0.3936 0.93998 0.89073 0.0
C259 C 0.40955 0.95932 0.90409 0.0
C260 C 0.43377 0.95454 0.91529 0.0
C261 C 0.44149 0.92988 0.91385 0.0
C262 C 0.42552 0.91048 0.90008 0.0
H263 H 0.37412 0.86569 0.99547 0.0
H264 H 0.40509 0.86845 0.96137 0.0
H265 H 0.38701 0.89578 0.9897 0.0
H266 H 0.37513 0.94425 0.8818 0.0
H267 H 0.40296 0.97807 0.90479 0.0
H268 H 0.44148 0.03933 0.13779 0.0
H269 H 0.41035 0.07183 0.17054 0.0
H270 H 0.42368 0.09903 0.00221 0.0
H271 H 0.45515 0.06679 0.96924 0.0
H272 H 0.42162 0.13616 0.09611 0.0
H273 H 0.34121 0.07487 0.12105 0.0
H274 H 0.36594 0.06761 0.16131 0.0
H275 H 0.37064 0.06417 0.08215 0.0
C276 C 0.43773 0.05212 0.10753 0.0
C277 C 0.45075 0.05035 0.05072 0.0
C278 C 0.41983 0.07064 0.12629 0.0
C279 C 0.41442 0.08761 0.08851 0.0
C280 C 0.4275 0.08604 0.03199 0.0
H281 H 0.28693 0.18544 0.13026 0.0
H282 H 0.3187 0.15358 0.09796 0.0
C283 C 0.44546 0.06757 0.0132 0.0
C284 C 0.39544 0.10731 0.1083 0.0
H285 H 0.33441 0.11716 0.15811 0.0
C286 C 0.40253 0.13203 0.10956 0.0
C287 C 0.3705 0.10187 0.12518 0.0
C288 C 0.3615 0.0757 0.1219 0.0
C289 C 0.38541 0.15146 0.12791 0.0
C290 C 0.36062 0.14602 0.14641 0.0
C291 C 0.35348 0.1213 0.14449 0.0
C292 C 0.3416 0.16566 0.16632 0.0
C293 C 0.3939 0.17763 0.12614 0.0
C294 C 0.3438 0.18294 0.21588 0.0
C295 C 0.32567 0.20128 0.23447 0.0
C296 C 0.30488 0.20254 0.20408 0.0
C297 C 0.30267 0.18504 0.15477 0.0
C298 C 0.32081 0.16678 0.13619 0.0
H299 H 0.41154 0.17847 0.09717 0.0
H300 H 0.37981 0.18902 0.11034 0.0
H301 H 0.39689 0.18589 0.17122 0.0
H302 H 0.35944 0.18211 0.24052 0.0
H303 H 0.32787 0.21436 0.27283 0.0
H304 H 0.94235 0.98876 0.59149 0.0
H305 H 0.91043 0.95969 0.61806 0.0
H306 H 0.94078 0.90654 0.47317 0.0
H307 H 0.97291 0.93562 0.4459 0.0
H308 H 0.88926 0.91229 0.48276 0.0
H309 H 0.92079 0.8976 0.69633 0.0
H310 H 0.9161 0.92945 0.68822 0.0
H311 H 0.93986 0.91162 0.64065 0.0
C312 C 0.94239 0.97083 0.56542 0.0
C313 C 0.96036 0.96436 0.51699 0.0
C314 C 0.92415 0.95424 0.5808 0.0
C315 C 0.92358 0.93085 0.54825 0.0
C316 C 0.94109 0.92448 0.49907 0.0
H317 H 0.83754 0.80778 0.65621 0.0
H318 H 0.87049 0.8357 0.62837 0.0
C319 C 0.95939 0.9411 0.48357 0.0
C320 C 0.9044 0.91323 0.56518 0.0
H321 H 0.88132 0.88208 0.6782 0.0
C322 C 0.88756 0.90555 0.52533 0.0
C323 C 0.9025 0.9043 0.62048 0.0
C324 C 0.9209 0.91095 0.66373 0.0
C325 C 0.86845 0.8895 0.53983 0.0
C326 C 0.86595 0.88136 0.59608 0.0
C327 C 0.88313 0.88862 0.63541 0.0
C328 C 0.84586 0.86491 0.6146 0.0
C329 C 0.85135 0.88117 0.49451 0.0
C330 C 0.82111 0.87236 0.61737 0.0
C331 C 0.80221 0.85642 0.633 0.0
C332 C 0.8078 0.83287 0.64676 0.0
C333 C 0.83262 0.82579 0.64583 0.0
C334 C 0.85148 0.8417 0.62987 0.0
H335 H 0.85964 0.88362 0.44929 0.0
H336 H 0.84656 0.86149 0.49546 0.0
H337 H 0.83406 0.89236 0.50431 0.0
H338 H 0.8164 0.89046 0.60715 0.0
H339 H 0.78327 0.86247 0.63379 0.0
H340 H 0.90751 0.02442 0.41674 0.0
H341 H 0.87811 0.0561 0.40133 0.0
H342 H 0.93373 0.11141 0.42077 0.0
H343 H 0.96337 0.07979 0.43642 0.0
H344 H 0.86292 0.10335 0.47634 0.0
H345 H 0.90977 0.11441 0.25349 0.0
H346 H 0.91463 0.08752 0.28918 0.0
H347 H 0.92851 0.11616 0.31316 0.0
C348 C 0.91345 0.04336 0.41848 0.0
C349 C 0.93782 0.04956 0.42762 0.0
C350 C 0.89661 0.06143 0.40961 0.0
C351 C 0.90386 0.08599 0.40908 0.0
C352 C 0.92788 0.09247 0.42034 0.0
H353 H 0.82281 0.21118 0.31557 0.0
H354 H 0.85527 0.184 0.33809 0.0
C355 C 0.94472 0.07442 0.42973 0.0
C356 C 0.88635 0.10456 0.39508 0.0
H357 H 0.87396 0.13855 0.28692 0.0
C358 C 0.86535 0.11116 0.43509 0.0
C359 C 0.88969 0.11476 0.34133 0.0
C360 C 0.91176 0.10784 0.29643 0.0
C361 C 0.8475 0.12767 0.42273 0.0
C362 C 0.85038 0.13729 0.36807 0.0
C363 C 0.8717 0.13109 0.32861 0.0
C364 C 0.83114 0.15327 0.35064 0.0
C365 C 0.82584 0.13486 0.46871 0.0
C366 C 0.80702 0.14473 0.34802 0.0
C367 C 0.78848 0.1602 0.3354 0.0
C368 C 0.79372 0.18446 0.32429 0.0
C369 C 0.81817 0.19259 0.32388 0.0
C370 C 0.83672 0.17711 0.33695 0.0
H371 H 0.83012 0.13216 0.51347 0.0
H372 H 0.82024 0.15442 0.46913 0.0
H373 H 0.80996 0.12308 0.4587 0.0
H374 H 0.80242 0.12617 0.35665 0.0
H375 H 0.76991 0.15326 0.33548 0.0
H376 H 0.71875 0.19431 0.12122 0.0
H377 H 0.68897 0.16295 0.0939 0.0
H378 H 0.65697 0.16786 0.2752 0.0
H379 H 0.68626 0.19993 0.30263 0.0
H380 H 0.682 0.11848 0.1245 0.0
H381 H 0.59599 0.17324 0.19566 0.0
H382 H 0.626 0.18709 0.19122 0.0
H383 H 0.61472 0.17227 0.25433 0.0
C384 C 0.7053 0.18885 0.15536 0.0
C385 C 0.70484 0.19978 0.21416 0.0
C386 C 0.68825 0.17087 0.1396 0.0
C387 C 0.67036 0.16327 0.1822 0.0
C388 C 0.67009 0.17387 0.24114 0.0
H389 H 0.59256 0.02551 0.15038 0.0
H390 H 0.62099 0.05909 0.16901 0.0
C391 C 0.68699 0.19209 0.25689 0.0
C392 C 0.65271 0.14362 0.165 0.0
H393 H 0.59146 0.12978 0.17248 0.0
C394 C 0.66219 0.12105 0.13471 0.0
C395 C 0.6268 0.14701 0.17721 0.0
C396 C 0.61524 0.1713 0.20582 0.0
C397 C 0.64663 0.10168 0.11764 0.0
C398 C 0.6208 0.10461 0.13261 0.0
C399 C 0.61125 0.12738 0.16152 0.0
C400 C 0.60348 0.08408 0.12014 0.0
C401 C 0.65807 0.07837 0.08295 0.0
C402 C 0.58363 0.08705 0.0877 0.0
C403 C 0.56704 0.06785 0.07745 0.0
C404 C 0.56995 0.04532 0.09961 0.0
C405 C 0.58985 0.04247 0.13204 0.0
C406 C 0.60628 0.06166 0.14252 0.0
H407 H 0.67631 0.08192 0.05899 0.0
H408 H 0.66099 0.06485 0.11367 0.0
H409 H 0.64598 0.06997 0.05056 0.0
H410 H 0.58098 0.10424 0.07028 0.0
H411 H 0.55185 0.07072 0.05259 0.0
H412 H 0.69069 0.78889 0.87919 0.0
H413 H 0.65865 0.82052 0.91176 0.0
H414 H 0.68002 0.85576 0.75691 0.0
H415 H 0.71203 0.82413 0.72356 0.0
H416 H 0.6642 0.87221 0.93457 0.0
H417 H 0.60514 0.84706 0.75618 0.0
H418 H 0.62894 0.8267 0.77172 0.0
H419 H 0.63692 0.85215 0.7313 0.0
C420 C 0.68857 0.80328 0.85183 0.0
C421 C 0.70391 0.80384 0.79852 0.0
C422 C 0.67024 0.82137 0.87062 0.0
C423 C 0.66675 0.84027 0.83638 0.0
C424 C 0.68212 0.84106 0.78347 0.0
H425 H 0.56629 0.96586 0.8735 0.0
H426 H 0.59879 0.93464 0.84157 0.0
C427 C 0.70049 0.82301 0.76464 0.0
C428 C 0.64731 0.85943 0.85667 0.0
H429 H 0.59434 0.88378 0.8204 0.0
C430 C 0.64886 0.8747 0.90979 0.0
C431 C 0.62737 0.86264 0.82413 0.0
C432 C 0.62427 0.84616 0.7679 0.0
C433 C 0.63122 0.89342 0.93079 0.0
C434 C 0.61123 0.8966 0.89832 0.0
C435 C 0.60969 0.88131 0.84519 0.0
C436 C 0.59171 0.9157 0.91861 0.0
C437 C 0.63444 0.90997 0.98683 0.0
C438 C 0.57677 0.91527 0.9723 0.0
C439 C 0.55819 0.93314 0.99083 0.0
C440 C 0.55408 0.95169 0.95577 0.0
C441 C 0.56899 0.95192 0.90175 0.0
C442 C 0.58756 0.93406 0.88333 0.0
H443 H 0.65372 0.90941 0.99768 0.0
H444 H 0.62933 0.92936 0.9834 0.0
H445 H 0.62224 0.90372 0.02386 0.0
H446 H 0.57931 0.90096 0.99965 0.0
H447 H 0.54698 0.93232 0.03249 0.0
H448 H 0.56374 0.51728 0.90334 0.0
H449 H 0.59683 0.54539 0.87878 0.0
H450 H 0.56975 0.59683 0.03032 0.0
H451 H 0.53676 0.56848 0.05618 0.0
H452 H 0.59325 0.59226 0.85218 0.0
H453 H 0.6426 0.59053 0.04912 0.0
H454 H 0.6193 0.56849 0.03049 0.0
H455 H 0.61053 0.59893 0.06601 0.0
C456 C 0.56487 0.53449 0.93179 0.0
C457 C 0.54768 0.5406 0.98194 0.0
C458 C 0.58379 0.55054 0.91758 0.0
C459 C 0.58592 0.57301 0.95313 0.0
C460 C 0.56872 0.57931 0.00301 0.0
H461 H 0.67068 0.69743 0.84825 0.0
H462 H 0.63806 0.66871 0.87298 0.0
C463 C 0.54982 0.56317 0.01753 0.0
C464 C 0.60577 0.59006 0.93666 0.0
H465 H 0.65584 0.61988 0.98495 0.0
C466 C 0.60698 0.59827 0.88112 0.0
C467 C 0.62382 0.59756 0.97423 0.0
C468 C 0.62422 0.58826 0.03306 0.0
C469 C 0.62567 0.614 0.86223 0.0
C470 C 0.64326 0.62213 0.90055 0.0
C471 C 0.6422 0.61373 0.95588 0.0
C472 C 0.66301 0.63929 0.88408 0.0
C473 C 0.62668 0.62133 0.80103 0.0
C474 C 0.68783 0.63243 0.88324 0.0
C475 C 0.70652 0.64889 0.86974 0.0
C476 C 0.70068 0.67252 0.85689 0.0
C477 C 0.67579 0.67928 0.85739 0.0
C478 C 0.65712 0.66286 0.87127 0.0
H479 H 0.61652 0.60824 0.772 0.0
H480 H 0.61796 0.63984 0.80362 0.0
H481 H 0.64602 0.62223 0.78041 0.0
H482 H 0.69272 0.61433 0.89322 0.0
H483 H 0.72551 0.64316 0.8698 0.0
H484 H 0.68022 0.29346 0.18896 0.0
H485 H 0.64756 0.32076 0.16804 0.0
H486 H 0.70054 0.3782 0.14559 0.0
H487 H 0.73327 0.35097 0.16514 0.0
H488 H 0.62941 0.36628 0.21942 0.0
H489 H 0.67118 0.37206 0.99091 0.0
H490 H 0.68149 0.34987 0.03488 0.0
H491 H 0.69196 0.38117 0.04424 0.0
C492 C 0.68487 0.31199 0.18014 0.0
C493 C 0.7094 0.31996 0.17817 0.0
C494 C 0.66619 0.32754 0.16799 0.0
C495 C 0.67172 0.3513 0.15368 0.0
C496 C 0.69596 0.35969 0.15474 0.0
H497 H 0.59525 0.48059 0.0921 0.0
H498 H 0.62446 0.44868 0.10716 0.0
C499 C 0.71463 0.34415 0.16644 0.0
C500 C 0.6523 0.36732 0.13718 0.0
H501 H 0.6388 0.40117 0.02957 0.0
C502 C 0.63131 0.37367 0.17765 0.0
C503 C 0.65468 0.37682 0.08238 0.0
C504 C 0.67592 0.36944 0.03535 0.0
C505 C 0.61319 0.39006 0.16577 0.0
C506 C 0.61608 0.40019 0.11193 0.0
C507 C 0.63672 0.39341 0.0709 0.0
C508 C 0.59856 0.41894 0.09892 0.0
C509 C 0.59148 0.39712 0.2116 0.0
C510 C 0.57448 0.41263 0.08774 0.0
C511 C 0.55775 0.43083 0.07854 0.0
C512 C 0.56482 0.45564 0.08082 0.0
C513 C 0.58919 0.46168 0.09027 0.0
C514 C 0.60592 0.44349 0.09891 0.0
H515 H 0.59361 0.39022 0.25409 0.0
H516 H 0.58903 0.41749 0.21954 0.0
H517 H 0.57445 0.38929 0.19532 0.0
H518 H 0.56856 0.39371 0.087 0.0
H519 H 0.5391 0.42558 0.07156 0.0
H520 H 0.90177 0.47962 0.40853 0.0
H521 H 0.87349 0.4462 0.38554 0.0
H522 H 0.93033 0.39281 0.39739 0.0
H523 H 0.95865 0.42625 0.42179 0.0
H524 H 0.87788 0.41127 0.29151 0.0
H525 H 0.87246 0.36655 0.49552 0.0
H526 H 0.88556 0.3966 0.49073 0.0
H527 H 0.90336 0.36924 0.461 0.0
C528 C 0.90821 0.46078 0.40708 0.0
C529 C 0.93249 0.45564 0.41723 0.0
C530 C 0.892 0.44166 0.39373 0.0
C531 C 0.89963 0.41693 0.39019 0.0
C532 C 0.92379 0.41171 0.40106 0.0
H533 H 0.82359 0.29455 0.20659 0.0
H534 H 0.85325 0.32609 0.235 0.0
C535 C 0.94001 0.43087 0.41484 0.0
C536 C 0.88262 0.39681 0.37225 0.0
H537 H 0.85418 0.34532 0.41542 0.0
C538 C 0.87268 0.39687 0.31868 0.0
C539 C 0.87561 0.37812 0.40789 0.0
C540 C 0.88459 0.37767 0.46725 0.0
C541 C 0.85603 0.37883 0.29973 0.0
C542 C 0.8495 0.35979 0.33465 0.0
C543 C 0.85936 0.35976 0.38834 0.0
C544 C 0.83178 0.34026 0.31735 0.0
C545 C 0.84509 0.38076 0.24324 0.0
C546 C 0.81012 0.33722 0.35478 0.0
C547 C 0.79324 0.31907 0.33891 0.0
C548 C 0.79764 0.30346 0.28521 0.0
C549 C 0.81948 0.30637 0.248 0.0
C550 C 0.83642 0.3245 0.26406 0.0
H551 H 0.84676 0.39964 0.23032 0.0
H552 H 0.85507 0.36784 0.20724 0.0
H553 H 0.8253 0.3758 0.24739 0.0
H554 H 0.80614 0.34907 0.3962 0.0
H555 H 0.77671 0.31733 0.36887 0.0
H556 H 0.79607 0.68172 0.78127 0.0
H557 H 0.82776 0.64981 0.74759 0.0
H558 H 0.84772 0.68371 0.59005 0.0
H559 H 0.81641 0.71592 0.62364 0.0
H560 H 0.83243 0.6163 0.646 0.0
H561 H 0.91408 0.67649 0.65124 0.0
H562 H 0.88389 0.68661 0.68657 0.0
H563 H 0.89128 0.68619 0.60836 0.0
C564 C 0.80727 0.68251 0.73958 0.0
C565 C 0.80375 0.70154 0.70537 0.0
C566 C 0.82537 0.66421 0.72038 0.0
C567 C 0.84037 0.66459 0.66677 0.0
C568 C 0.83674 0.68336 0.6322 0.0
H569 H 0.95707 0.56869 0.47176 0.0
H570 H 0.92521 0.60061 0.50417 0.0
C571 C 0.8187 0.70171 0.65138 0.0
C572 C 0.85939 0.64499 0.64636 0.0
H573 H 0.9212 0.63514 0.60673 0.0
C574 C 0.85185 0.62039 0.63768 0.0
C575 C 0.88472 0.65038 0.6354 0.0
C576 C 0.89407 0.67632 0.64635 0.0
C577 C 0.86892 0.60107 0.61744 0.0
C578 C 0.89423 0.60647 0.60646 0.0
C579 C 0.90177 0.63106 0.61504 0.0
C580 C 0.91325 0.58685 0.58665 0.0
C581 C 0.85965 0.57509 0.60686 0.0
C582 C 0.91726 0.56867 0.62256 0.0
C583 C 0.93543 0.5504 0.60421 0.0
C584 C 0.95008 0.55002 0.54966 0.0
C585 C 0.94611 0.56838 0.51395 0.0
C586 C 0.92792 0.58666 0.5324 0.0
H587 H 0.83958 0.57481 0.60272 0.0
H588 H 0.86966 0.56486 0.56633 0.0
H589 H 0.86281 0.56522 0.64462 0.0
H590 H 0.90648 0.56877 0.66513 0.0
H591 H 0.93809 0.53668 0.63305 0.0
H592 H 0.26751 0.33828 0.10474 0.0
H593 H 0.29998 0.36724 0.0809 0.0
H594 H 0.34805 0.33187 0.18213 0.0
H595 H 0.31584 0.30232 0.20493 0.0
H596 H 0.32411 0.40044 0.14873 0.0
H597 H 0.38996 0.32993 0.0247 0.0
H598 H 0.35815 0.32324 0.04679 0.0
H599 H 0.3804 0.32411 0.09879 0.0
C600 C 0.28495 0.33669 0.12217 0.0
C601 C 0.2892 0.31788 0.15631 0.0
C602 C 0.30349 0.35325 0.10844 0.0
C603 C 0.32658 0.35137 0.1287 0.0
C604 C 0.33058 0.33322 0.16474 0.0
H605 H 0.43729 0.46415 0.13427 0.0
H606 H 0.40417 0.4359 0.15756 0.0
C607 C 0.3121 0.31649 0.1781 0.0
C608 C 0.3464 0.36845 0.11195 0.0
H609 H 0.40528 0.37044 0.04457 0.0
C610 C 0.34184 0.3939 0.12578 0.0
C611 C 0.36932 0.35987 0.08098 0.0
C612 C 0.37472 0.33281 0.06137 0.0
C613 C 0.35975 0.41103 0.1104 0.0
C614 C 0.38306 0.40241 0.0818 0.0
C615 C 0.38747 0.37698 0.06701 0.0
C616 C 0.40324 0.41946 0.06737 0.0
C617 C 0.35333 0.43817 0.12401 0.0
C618 C 0.41431 0.41902 0.00912 0.0
C619 C 0.43358 0.43491 0.99569 0.0
C620 C 0.44204 0.45154 0.04035 0.0
C621 C 0.43102 0.45177 0.0987 0.0
C622 C 0.41196 0.43573 0.11211 0.0
H623 H 0.33307 0.44148 0.12877 0.0
H624 H 0.36005 0.44553 0.1663 0.0
H625 H 0.36207 0.44865 0.08906 0.0
H626 H 0.40793 0.40646 0.974 0.0
H627 H 0.44171 0.43429 0.95035 0.0
H628 H 0.44165 0.56359 0.99007 0.0
H629 H 0.41206 0.59623 0.97941 0.0
H630 H 0.38969 0.55245 0.82598 0.0
H631 H 0.41826 0.51971 0.83756 0.0
H632 H 0.40708 0.62426 0.89311 0.0
H633 H 0.32426 0.56701 0.92154 0.0
H634 H 0.35408 0.55708 0.93687 0.0
H635 H 0.34618 0.55326 0.8625 0.0
C636 C 0.43026 0.56092 0.95438 0.0
C637 C 0.432 0.53889 0.9153 0.0
C638 C 0.41343 0.57959 0.9482 0.0
C639 C 0.39819 0.57658 0.90267 0.0
C640 C 0.4006 0.55493 0.86258 0.0
H641 H 0.31562 0.69305 0.77606 0.0
H642 H 0.34722 0.66298 0.78986 0.0
C643 C 0.41707 0.53621 0.86919 0.0
C644 C 0.37979 0.59593 0.89649 0.0
H645 H 0.31903 0.60459 0.88152 0.0
C646 C 0.38777 0.62004 0.89108 0.0
C647 C 0.35451 0.59056 0.89469 0.0
C648 C 0.3442 0.56564 0.90485 0.0
C649 C 0.37127 0.63876 0.88278 0.0
C650 C 0.34622 0.63304 0.87801 0.0
C651 C 0.33825 0.609 0.88434 0.0
C652 C 0.32755 0.65174 0.86913 0.0
C653 C 0.38078 0.66456 0.88061 0.0
C654 C 0.30562 0.65495 0.90775 0.0
C655 C 0.28736 0.67154 0.89898 0.0
C656 C 0.29063 0.68559 0.85168 0.0
C657 C 0.31263 0.68257 0.81305 0.0
C658 C 0.3308 0.66556 0.8213 0.0
H659 H 0.39789 0.66736 0.90227 0.0
H660 H 0.38523 0.66772 0.83396 0.0
H661 H 0.3668 0.67857 0.90234 0.0
H662 H 0.30258 0.64458 0.94495 0.0
H663 H 0.27074 0.67354 0.92992 0.0
H664 H 0.21812 0.69345 0.6288 0.0
H665 H 0.18814 0.66231 0.60179 0.0
H666 H 0.15484 0.6691 0.7823 0.0
H667 H 0.18437 0.701 0.80942 0.0
H668 H 0.1805 0.61836 0.6345 0.0
H669 H 0.09464 0.67399 0.69957 0.0
H670 H 0.12476 0.68762 0.69574 0.0
H671 H 0.11288 0.67335 0.75927 0.0
C672 C 0.20434 0.68847 0.66285 0.0
C673 C 0.20362 0.69987 0.72133 0.0
C674 C 0.18717 0.67061 0.64725 0.0
C675 C 0.16888 0.66356 0.68968 0.0
C676 C 0.16829 0.67466 0.74833 0.0
H677 H 0.09017 0.5262 0.65781 0.0
H678 H 0.11845 0.55976 0.67788 0.0
C679 C 0.18533 0.69278 0.76391 0.0
C680 C 0.15119 0.64391 0.67261 0.0
H681 H 0.08988 0.63054 0.67733 0.0
C682 C 0.16068 0.62112 0.64361 0.0
C683 C 0.12528 0.64754 0.6834 0.0
C684 C 0.11376 0.67203 0.71063 0.0
C685 C 0.14511 0.60179 0.62632 0.0
C686 C 0.11924 0.60499 0.63979 0.0
C687 C 0.10969 0.62795 0.66752 0.0
C688 C 0.10187 0.58455 0.62686 0.0
C689 C 0.1566 0.57825 0.59295 0.0
C690 C 0.08254 0.58741 0.59277 0.0
C691 C 0.06602 0.56822 0.58167 0.0
C692 C 0.0685 0.54579 0.60458 0.0
C693 C 0.08783 0.54306 0.63881 0.0
C694 C 0.10417 0.56225 0.65015 0.0
H695 H 0.1751 0.58151 0.56988 0.0
H696 H 0.15898 0.56489 0.62442 0.0
H697 H 0.14481 0.56979 0.55995 0.0
H698 H 0.08027 0.6045 0.57462 0.0
H699 H 0.05127 0.57099 0.55544 0.0
H700 H 0.22025 0.3194 0.37433 0.0
H701 H 0.18788 0.35056 0.40786 0.0
H702 H 0.14768 0.32229 0.26408 0.0
H703 H 0.17984 0.29076 0.23057 0.0
H704 H 0.17135 0.38724 0.35 0.0
H705 H 0.09552 0.32384 0.4065 0.0
H706 H 0.12745 0.31394 0.39298 0.0
H707 H 0.11027 0.31725 0.33234 0.0
C708 C 0.20451 0.31973 0.34981 0.0
C709 C 0.20261 0.30249 0.29983 0.0
C710 C 0.18602 0.33758 0.36909 0.0
C711 C 0.16519 0.33855 0.339 0.0
C712 C 0.16333 0.32156 0.28872 0.0
H713 H 0.06292 0.4628 0.36914 0.0
H714 H 0.09481 0.43104 0.33667 0.0
C715 C 0.18181 0.30363 0.26944 0.0
C716 C 0.14576 0.35771 0.35967 0.0
H717 H 0.08446 0.36601 0.4086 0.0
C718 C 0.15236 0.38261 0.36293 0.0
C719 C 0.12106 0.35163 0.37729 0.0
C720 C 0.11312 0.32523 0.37771 0.0
C721 C 0.13488 0.4016 0.38256 0.0
C722 C 0.11002 0.39553 0.39838 0.0
C723 C 0.10348 0.37063 0.39594 0.0
C724 C 0.09055 0.41475 0.41803 0.0
C725 C 0.14329 0.42798 0.38722 0.0
C726 C 0.07709 0.41578 0.47403 0.0
C727 C 0.05869 0.43382 0.49265 0.0
C728 C 0.05332 0.45116 0.45548 0.0
C729 C 0.06671 0.44991 0.39916 0.0
C730 C 0.08504 0.43182 0.38056 0.0
H731 H 0.16351 0.42922 0.389 0.0
H732 H 0.13896 0.43621 0.34791 0.0
H733 H 0.13369 0.43913 0.42698 0.0
H734 H 0.08097 0.4027 0.50355 0.0
H735 H 0.04872 0.43421 0.53623 0.0
H736 H 0.95853 1.00093 0.76039 0.0
H737 H 0.95836 0.00442 0.86728 0.0
H738 H 0.03421 0.02727 0.84939 0.0
H739 H 0.03396 0.02514 0.74289 0.0
H740 H 0.98293 0.97987 0.92971 0.0
H741 H 0.00714 0.07783 0.97883 0.0
H742 H 0.99913 0.06502 0.9077 0.0
H743 H 0.03003 0.06146 0.92614 0.0
C744 C 0.975 0.00713 0.7795 0.0
C745 C 0.99616 0.01303 0.74357 0.0
C746 C 0.97494 0.00903 0.84052 0.0
C747 C 0.99615 0.01649 0.8667 0.0
C748 C 0.01736 0.02227 0.83065 0.0
H749 H 0.02113 0.9837 0.21707 0.0
H750 H 0.01959 0.98218 0.11079 0.0
C751 C 0.01724 0.02093 0.76972 0.0
C752 C 0.99639 0.01696 0.93124 0.0
H753 H 0.01088 0.05253 0.05471 0.0
C754 C 0.98882 0.99587 0.95714 0.0
C755 C 0.00377 0.0379 0.9673 0.0
C756 C 0.0102 0.0619 0.94364 0.0
C757 C 0.98856 0.99506 0.01784 0.0
C758 C 0.99714 0.01555 0.05336 0.0
C759 C 0.00456 0.03669 0.02749 0.0
C760 C 0.99791 0.01591 0.11771 0.0
C761 C 0.97843 0.9725 0.04322 0.0
C762 C 0.98696 0.0357 0.15691 0.0
C763 C 0.98852 0.03695 0.21717 0.0
C764 C 1.00072 0.01824 0.23967 0.0
C765 C 0.01138 0.99821 0.2008 0.0
C766 C 0.01033 0.99726 0.14015 0.0
H767 H 0.9656 0.96252 0.01484 0.0
H768 H 0.99388 0.95965 0.046 0.0
H769 H 0.96849 0.9774 0.08802 0.0
H770 H 0.97726 0.0503 0.14083 0.0
H771 H 0.98001 0.05254 0.24627 0.0
H772 H 0.20883 0.73508 0.49467 0.0
H773 H 0.21138 0.7369 0.38889 0.0
H774 H 0.28606 0.76248 0.38815 0.0
H775 H 0.28381 0.76039 0.49425 0.0
H776 H 0.21977 0.77783 0.33052 0.0
H777 H 0.29223 0.70594 0.25309 0.0
H778 H 0.27614 0.70935 0.3267 0.0
H779 H 0.30077 0.72973 0.30782 0.0
C780 C 0.22591 0.7409 0.47205 0.0
C781 C 0.24617 0.74752 0.50295 0.0
C782 C 0.2273 0.74197 0.41153 0.0
C783 C 0.24898 0.74957 0.38047 0.0
C784 C 0.2693 0.7561 0.41102 0.0
H785 H 0.29088 0.77284 0.01795 0.0
H786 H 0.2881 0.77145 0.12392 0.0
C787 C 0.26796 0.75499 0.47171 0.0
C788 C 0.24986 0.75143 0.31655 0.0
H789 H 0.28002 0.72966 0.18168 0.0
C790 C 0.23288 0.76723 0.29791 0.0
C791 C 0.26696 0.73758 0.27412 0.0
C792 C 0.28493 0.71952 0.2912 0.0
C793 C 0.2328 0.76987 0.23808 0.0
C794 C 0.24993 0.75605 0.1957 0.0
C795 C 0.26691 0.74025 0.21431 0.0
C796 C 0.25083 0.75791 0.1318 0.0
C797 C 0.21476 0.78781 0.22085 0.0
C798 C 0.23073 0.75081 0.10095 0.0
C799 C 0.23222 0.75163 0.04012 0.0
C800 C 0.25391 0.75943 0.0091 0.0
C801 C 0.27388 0.76676 0.04038 0.0
C802 C 0.27237 0.76594 0.10101 0.0
H803 H 0.20714 0.80119 0.25903 0.0
H804 H 0.22363 0.79819 0.18584 0.0
H805 H 0.19916 0.77747 0.20341 0.0
H806 H 0.21408 0.74414 0.12368 0.0
H807 H 0.21659 0.74568 0.0173 0.0
H808 H 0.51545 0.95236 0.71437 0.0
H809 H 0.5148 0.95675 0.61029 0.0
H810 H 0.49334 0.03328 0.65685 0.0
H811 H 0.4942 0.02918 0.76109 0.0
H812 H 0.47469 0.97091 0.55563 0.0
H813 H 0.55236 0.0356 0.53026 0.0
H814 H 0.54706 0.01833 0.59224 0.0
H815 H 0.52886 0.04553 0.5898 0.0
C816 C 0.51076 0.97019 0.70252 0.0
C817 C 0.50498 0.99045 0.74603 0.0
C818 C 0.51036 0.97263 0.64302 0.0
C819 C 0.50433 0.9954 0.62587 0.0
C820 C 0.49851 0.01566 0.66912 0.0
H821 H 0.48769 0.04701 0.29233 0.0
H822 H 0.4883 0.04231 0.39622 0.0
C823 C 0.4989 0.01325 0.72867 0.0
C824 C 0.50339 0.9977 0.56283 0.0
H825 H 0.52859 0.02803 0.45016 0.0
C826 C 0.48654 0.9833 0.53242 0.0
C827 C 0.51886 0.01392 0.53283 0.0
C828 C 0.53797 0.02909 0.5627 0.0
C829 C 0.48444 0.98501 0.47293 0.0
C830 C 0.49988 1.00125 0.44296 0.0
C831 C 0.51675 0.01563 0.47336 0.0
C832 C 0.49884 0.00368 0.38002 0.0
C833 C 0.46533 0.96983 0.44304 0.0
C834 C 0.50468 0.98352 0.33649 0.0
C835 C 0.50431 0.98612 0.27701 0.0
C836 C 0.49824 0.00899 0.26005 0.0
C837 C 0.49239 0.02913 0.30386 0.0
C838 C 0.49276 0.0265 0.36326 0.0
H839 H 0.45101 0.9632 0.47545 0.0
H840 H 0.45616 0.98063 0.41374 0.0
H841 H 0.47447 0.95347 0.41565 0.0
H842 H 0.50988 0.96586 0.34846 0.0
H843 H 0.50906 0.97028 0.24435 0.0
H844 H 0.22007 0.25466 0.00776 0.0
H845 H 0.21728 0.25658 0.90289 0.0
H846 H 0.2947 0.23815 0.86293 0.0
H847 H 0.2976 0.23589 0.96694 0.0
H848 H 0.24294 0.28739 0.82964 0.0
H849 H 0.26404 0.18927 0.74471 0.0
H850 H 0.25561 0.19968 0.82196 0.0
H851 H 0.28655 0.20348 0.7884 0.0
C852 C 0.23643 0.25074 0.97655 0.0
C853 C 0.25903 0.24499 0.99586 0.0
C854 C 0.23482 0.25191 0.91664 0.0
C855 C 0.2557 0.24716 0.87483 0.0
C856 C 0.27822 0.24137 0.89405 0.0
H857 H 0.28726 0.25004 0.49539 0.0
H858 H 0.28994 0.24803 0.60027 0.0
C859 C 0.27985 0.24022 0.95376 0.0
C860 C 0.25428 0.2492 0.81146 0.0
H861 H 0.26419 0.21712 0.67332 0.0
C862 C 0.24742 0.27198 0.79549 0.0
C863 C 0.26029 0.22914 0.76681 0.0
C864 C 0.26682 0.20394 0.78122 0.0
C865 C 0.24683 0.27536 0.73615 0.0
C866 C 0.25285 0.2553 0.6915 0.0
C867 C 0.2597 0.23252 0.70747 0.0
C868 C 0.25148 0.25736 0.62811 0.0
C869 C 0.24029 0.30056 0.72173 0.0
C870 C 0.22898 0.26312 0.60878 0.0
C871 C 0.22741 0.26432 0.54905 0.0
C872 C 0.24828 0.25963 0.50707 0.0
C873 C 0.27086 0.25389 0.5265 0.0
C874 C 0.2724 0.25267 0.58642 0.0
H875 H 0.24301 0.31523 0.75828 0.0
H876 H 0.25155 0.30484 0.68106 0.0
H877 H 0.22058 0.30099 0.71438 0.0
H878 H 0.21247 0.2663 0.63981 0.0
H879 H 0.20968 0.26864 0.53577 0.0
H880 H 0.78424 0.26123 0.98893 0.0
H881 H 0.78665 0.26288 0.88249 0.0
H882 H 0.71112 0.23985 0.88442 0.0
H883 H 0.70843 0.23839 0.9903 0.0
H884 H 0.77876 0.22529 0.79106 0.0
H885 H 0.71154 0.3026 0.80426 0.0
H886 H 0.72533 0.29513 0.86748 0.0
H887 H 0.70008 0.27741 0.84201 0.0
C888 C 0.76816 0.25651 0.96666 0.0
C889 C 0.7461 0.24983 0.99822 0.0
C890 C 0.76956 0.25748 0.90589 0.0
C891 C 0.74892 0.25193 0.87579 0.0
C892 C 0.72709 0.24475 0.90698 0.0
H893 H 0.71849 0.24408 0.51129 0.0
H894 H 0.71624 0.24287 0.61786 0.0
C895 C 0.72566 0.24378 0.96753 0.0
C896 C 0.7502 0.25325 0.81159 0.0
H897 H 0.72408 0.28134 0.70894 0.0
C898 C 0.76693 0.23765 0.77308 0.0
C899 C 0.73465 0.26933 0.78827 0.0
C900 C 0.71703 0.28724 0.8276 0.0
C901 C 0.76822 0.23734 0.71176 0.0
C902 C 0.75263 0.25338 0.68845 0.0
C903 C 0.73592 0.269 0.72694 0.0
C904 C 0.75378 0.25455 0.62423 0.0
C905 C 0.78588 0.21949 0.67237 0.0
C906 C 0.77543 0.26201 0.59284 0.0
C907 C 0.77676 0.26275 0.53221 0.0
C908 C 0.7564 0.25616 0.50166 0.0
C909 C 0.7345 0.24921 0.53344 0.0
C910 C 0.7332 0.2485 0.59428 0.0
H911 H 0.79169 0.20431 0.69585 0.0
H912 H 0.77746 0.21136 0.63288 0.0
H913 H 0.80264 0.22945 0.65729 0.0
H914 H 0.79135 0.26725 0.61528 0.0
H915 H 0.79387 0.26834 0.50926 0.0
H916 H 0.80737 0.74587 0.45786 0.0
H917 H 0.80016 0.74459 0.35482 0.0
H918 H 0.72333 0.76272 0.40891 0.0
H919 H 0.73037 0.76432 0.51225 0.0
H920 H 0.76701 0.7153 0.29109 0.0
H921 H 0.7465 0.81552 0.30251 0.0
H922 H 0.76101 0.80266 0.35864 0.0
H923 H 0.72832 0.80006 0.35649 0.0
C924 C 0.78891 0.74954 0.44792 0.0
C925 C 0.76947 0.75536 0.49323 0.0
C926 C 0.78485 0.74879 0.38904 0.0
C927 C 0.76133 0.75395 0.37448 0.0
C928 C 0.74172 0.75915 0.41943 0.0
H929 H 0.70058 0.76009 0.04637 0.0
H930 H 0.70768 0.76137 0.14948 0.0
C931 C 0.74576 0.7599 0.47838 0.0
C932 C 0.75735 0.75385 0.31212 0.0
H933 H 0.74074 0.79059 0.21349 0.0
C934 C 0.76135 0.73175 0.27397 0.0
C935 C 0.74999 0.77538 0.29018 0.0
C936 C 0.74639 0.79983 0.32885 0.0
C937 C 0.75776 0.73051 0.2144 0.0
C938 C 0.75041 0.75205 0.19246 0.0
C939 C 0.7464 0.77414 0.23062 0.0
C940 C 0.7465 0.75195 0.13006 0.0
C941 C 0.76134 0.70606 0.17574 0.0
C942 C 0.76614 0.74675 0.08521 0.0
C943 C 0.76218 0.746 0.02622 0.0
C944 C 0.7385 0.75056 0.01122 0.0
C945 C 0.71902 0.7564 0.05643 0.0
C946 C 0.72302 0.75715 0.11535 0.0
H947 H 0.76117 0.69037 0.2021 0.0
H948 H 0.74675 0.70325 0.14587 0.0
H949 H 0.77943 0.7058 0.1482 0.0
H950 H 0.78451 0.74316 0.09585 0.0
H951 H 0.77759 0.74157 0.99244 0.0
H952 H 0.51954 0.53548 0.74892 0.0
H953 H 0.51761 0.53282 0.64303 0.0
H954 H 0.48942 0.45915 0.6416 0.0
H955 H 0.4909 0.46178 0.74807 0.0
H956 H 0.53994 0.50002 0.54998 0.0
H957 H 0.43788 0.49456 0.56525 0.0
H958 H 0.45391 0.50336 0.62871 0.0
H959 H 0.45238 0.47144 0.59917 0.0
C960 C 0.51299 0.51864 0.72618 0.0
C961 C 0.50521 0.49889 0.75708 0.0
C962 C 0.51192 0.51717 0.66558 0.0
C963 C 0.50296 0.49598 0.63463 0.0
C964 C 0.4959 0.4759 0.6649 0.0
H965 H 0.48053 0.45351 0.27058 0.0
H966 H 0.48331 0.456 0.37612 0.0
C967 C 0.49693 0.47735 0.72565 0.0
C968 C 0.50094 0.49508 0.57074 0.0
H969 H 0.4597 0.48939 0.46935 0.0
C970 C 0.5224 0.49777 0.53231 0.0
C971 C 0.47801 0.49225 0.5479 0.0
C972 C 0.45418 0.49046 0.58736 0.0
C973 C 0.52161 0.49724 0.47146 0.0
C974 C 0.49869 0.49432 0.44864 0.0
C975 C 0.47723 0.49165 0.48704 0.0
C976 C 0.49665 0.49335 0.38479 0.0
C977 C 0.54537 0.49924 0.43192 0.0
C978 C 0.50282 0.51372 0.35482 0.0
C979 C 0.50122 0.51239 0.29429 0.0
C980 C 0.49336 0.49067 0.26281 0.0
C981 C 0.48673 0.4705 0.29336 0.0
C982 C 0.48829 0.47187 0.35374 0.0
H983 H 0.56176 0.49573 0.45425 0.0
H984 H 0.54583 0.48601 0.39106 0.0
H985 H 0.54673 0.51813 0.41913 0.0
H986 H 0.50889 0.53063 0.37823 0.0
H987 H 0.50639 0.52826 0.27212 0.0
H988 H 0.00733 0.47006 0.74494 0.0
H989 H 0.00763 0.46558 0.84924 0.0
H990 H 0.98558 0.54192 0.89664 0.0
H991 H 0.98492 0.54652 0.79279 0.0
H992 H 0.03622 0.49184 0.92871 0.0
H993 H 0.93627 0.5062 0.00298 0.0
H994 H 0.94831 0.49944 0.92625 0.0
H995 H 0.94998 0.53013 0.96397 0.0
C996 C 0.00232 0.48584 0.77758 0.0
C997 C 0.996 0.50863 0.76056 0.0
C998 C 0.00255 0.48325 0.83711 0.0
C999 C 0.99631 0.50332 0.88064 0.0
C1000 C 0.98997 0.52606 0.86381 0.0
H1001 H 0.99296 0.52881 0.26071 0.0
H1002 H 0.99203 0.53263 0.15626 0.0
C1003 C 0.98973 0.52868 0.80437 0.0
C1004 C 0.9974 0.50079 0.94352 0.0
H1005 H 0.96274 0.50583 0.07778 0.0
C1006 C 0.02014 0.49474 0.9613 0.0
C1007 C 0.9764 0.50469 0.98586 0.0
C1008 C 0.9513 0.51026 0.96889 0.0
C1009 C 0.02255 0.49293 0.02059 0.0
C1010 C 1.00156 0.49689 0.06294 0.0
C1011 C 0.97881 0.50289 0.04516 0.0
C1012 C 0.00274 0.49464 0.12592 0.0
C1013 C 0.04764 0.48733 0.03759 0.0
C1014 C 0.0089 0.47197 0.14337 0.0
C1015 C 0.00948 0.46972 0.20291 0.0
C1016 C 0.00376 0.49009 0.24616 0.0
C1017 C 0.99755 0.51279 0.2285 0.0
C1018 C 0.99696 0.515 0.1689 0.0
H1019 H 0.06267 0.49102 0.00315 0.0
H1020 H 0.05075 0.49842 0.0798 0.0
H1021 H 0.04878 0.46754 0.04345 0.0
H1022 H 0.01296 0.45592 0.11096 0.0
H1023 H 0.0142 0.45194 0.215 0.0
loop_
_geom_bond_atom_site_label_1
_geom_bond_atom_site_label_2
_geom_bond_distance
_geom_bond_site_symmetry_2
_ccdc_geom_bond_type
Zn0 O6 1.969 1_545 S
Zn0 O7 1.965 1_655 S
Zn0 O11 2.024 . S
Zn0 O16 1.969 1_545 S
Zn1 O8 1.969 1_565 S
Zn1 O14 1.969 1_565 S
Zn1 O15 1.965 1_455 S
Zn1 O17 2.024 . S
C2 O3 1.229 . S
C2 O11 1.058 . S
O3 C2 1.229 . S
C4 O5 1.229 . S
C4 O17 1.058 . S
O5 C4 1.229 . S
O6 Zn0 1.969 1_565 S
O6 C9 1.267 1_565 S
O7 Zn0 1.965 1_455 S
O7 C18 1.260 . S
O8 Zn1 1.969 1_545 S
O8 C18 1.258 . S
C9 O6 1.267 1_545 S
C9 O10 1.228 . S
O10 C9 1.228 . S
O11 Zn0 2.024 . S
O11 C2 1.058 . S
C12 O13 1.228 . S
C12 O14 1.267 1_565 S
O13 C12 1.228 . S
O14 Zn1 1.969 1_545 S
O14 C12 1.267 1_545 S
O15 Zn1 1.965 1_655 S
O15 C19 1.260 . S
O16 Zn0 1.969 1_565 S
O16 C19 1.258 . S
O17 Zn1 2.024 . S
O17 C4 1.058 . S
C18 O7 1.260 . S
C18 O8 1.258 . S
C19 O15 1.260 . S
C19 O16 1.258 . S
Zn20 O26 1.969 . S
Zn20 O27 1.965 . S
Zn20 O31 2.024 . S
Zn20 O36 1.969 . S
Zn21 O28 1.969 . S
Zn21 O34 1.969 . S
Zn21 O35 1.965 . S
Zn21 O37 2.024 . S
C22 O23 1.229 . S
C22 O31 1.058 . S
O23 C22 1.229 . S
C24 O25 1.229 . S
C24 O37 1.058 . S
O25 C24 1.229 . S
O26 Zn20 1.969 . S
O26 C29 1.267 . S
O27 Zn20 1.965 . S
O27 C38 1.260 . S
O28 Zn21 1.969 . S
O28 C38 1.258 . S
C29 O26 1.267 . S
C29 O30 1.228 . S
O30 C29 1.228 . S
O31 Zn20 2.024 . S
O31 C22 1.058 . S
C32 O33 1.228 . S
C32 O34 1.267 . S
O33 C32 1.228 . S
O34 Zn21 1.969 . S
O34 C32 1.267 . S
O35 Zn21 1.965 . S
O35 C39 1.260 . S
O36 Zn20 1.969 . S
O36 C39 1.258 . S
O37 Zn21 2.024 . S
O37 C24 1.058 . S
C38 O27 1.260 . S
C38 O28 1.258 . S
C39 O35 1.260 . S
C39 O36 1.258 . S
Zn40 O46 1.969 1_545 S
Zn40 O47 1.965 . S
Zn40 O51 2.024 . S
Zn40 O56 1.969 1_545 S
Zn41 O48 1.969 1_565 S
Zn41 O54 1.969 1_565 S
Zn41 O55 1.965 . S
Zn41 O57 2.024 . S
C42 O43 1.229 . S
C42 O51 1.058 . S
O43 C42 1.229 . S
C44 O45 1.229 . S
C44 O57 1.058 . S
O45 C44 1.229 . S
O46 Zn40 1.969 1_565 S
O46 C49 1.267 1_565 S
O47 Zn40 1.965 . S
O47 C58 1.260 . S
O48 Zn41 1.969 1_545 S
O48 C58 1.258 1_556 S
C49 O46 1.267 1_545 S
C49 O50 1.228 . S
O50 C49 1.228 . S
O51 Zn40 2.024 . S
O51 C42 1.058 . S
C52 O53 1.228 . S
C52 O54 1.267 1_565 S
O53 C52 1.228 . S
O54 Zn41 1.969 1_545 S
O54 C52 1.267 1_545 S
O55 Zn41 1.965 . S
O55 C59 1.260 . S
O56 Zn40 1.969 1_565 S
O56 C59 1.258 1_554 S
O57 Zn41 2.024 . S
O57 C44 1.058 . S
C58 O47 1.260 . S
C58 O48 1.258 1_554 S
C59 O55 1.260 . S
C59 O56 1.258 1_556 S
Zn60 O66 1.969 . S
Zn60 O67 1.965 . S
Zn60 O71 2.024 . S
Zn60 O76 1.969 . S
Zn61 O68 1.969 . S
Zn61 O74 1.969 . S
Zn61 O75 1.965 . S
Zn61 O77 2.024 . S
C62 O63 1.229 . S
C62 O71 1.058 . S
O63 C62 1.229 . S
C64 O65 1.229 . S
C64 O77 1.058 . S
O65 C64 1.229 . S
O66 Zn60 1.969 . S
O66 C69 1.267 . S
O67 Zn60 1.965 . S
O67 C78 1.260 . S
O68 Zn61 1.969 . S
O68 C78 1.258 . S
C69 O66 1.267 . S
C69 O70 1.228 . S
O70 C69 1.228 . S
O71 Zn60 2.024 . S
O71 C62 1.058 . S
C72 O73 1.228 . S
C72 O74 1.267 . S
O73 C72 1.228 . S
O74 Zn61 1.969 . S
O74 C72 1.267 . S
O75 Zn61 1.965 . S
O75 C79 1.260 . S
O76 Zn60 1.969 . S
O76 C79 1.258 . S
O77 Zn61 2.024 . S
O77 C64 1.058 . S
C78 O67 1.260 . S
C78 O68 1.258 . S
C79 O75 1.260 . S
C79 O76 1.258 . S
Zn80 O86 1.969 . S
Zn80 O87 1.965 . S
Zn80 O91 2.024 . S
Zn80 O96 1.969 . S
Zn81 O88 1.969 . S
Zn81 O94 1.969 . S
Zn81 O95 1.965 . S
Zn81 O97 2.024 . S
C82 O83 1.229 . S
C82 O91 1.058 . S
O83 C82 1.229 . S
C84 O85 1.229 . S
C84 O97 1.058 . S
O85 C84 1.229 . S
O86 Zn80 1.969 . S
O86 C89 1.267 . S
O87 Zn80 1.965 . S
O87 C98 1.260 . S
O88 Zn81 1.969 . S
O88 C98 1.258 . S
C89 O86 1.267 . S
C89 O90 1.228 . S
O90 C89 1.228 . S
O91 Zn80 2.024 . S
O91 C82 1.058 . S
C92 O93 1.228 . S
C92 O94 1.267 . S
O93 C92 1.228 . S
O94 Zn81 1.969 . S
O94 C92 1.267 . S
O95 Zn81 1.965 . S
O95 C99 1.260 . S
O96 Zn80 1.969 . S
O96 C99 1.258 . S
O97 Zn81 2.024 . S
O97 C84 1.058 . S
C98 O87 1.260 . S
C98 O88 1.258 . S
C99 O95 1.260 . S
C99 O96 1.258 . S
Zn100 O106 1.969 . S
Zn100 O107 1.965 . S
Zn100 O111 2.024 . S
Zn100 O116 1.969 . S
Zn101 O108 1.969 . S
Zn101 O114 1.969 . S
Zn101 O115 1.965 . S
Zn101 O117 2.024 . S
C102 O103 1.229 . S
C102 O111 1.058 . S
O103 C102 1.229 . S
C104 O105 1.229 . S
C104 O117 1.058 . S
O105 C104 1.229 . S
O106 Zn100 1.969 . S
O106 C109 1.267 . S
O107 Zn100 1.965 . S
O107 C118 1.260 . S
O108 Zn101 1.969 . S
O108 C118 1.258 . S
C109 O106 1.267 . S
C109 O110 1.228 . S
O110 C109 1.228 . S
O111 Zn100 2.024 . S
O111 C102 1.058 . S
C112 O113 1.228 . S
C112 O114 1.267 . S
O113 C112 1.228 . S
O114 Zn101 1.969 . S
O114 C112 1.267 . S
O115 Zn101 1.965 . S
O115 C119 1.260 . S
O116 Zn100 1.969 . S
O116 C119 1.258 . S
O117 Zn101 2.024 . S
O117 C104 1.058 . S
C118 O107 1.260 . S
C118 O108 1.258 . S
C119 O115 1.260 . S
C119 O116 1.258 . S
Zn120 O126 1.969 . S
Zn120 O127 1.965 . S
Zn120 O131 2.024 . S
Zn120 O136 1.969 . S
Zn121 O128 1.969 . S
Zn121 O134 1.969 . S
Zn121 O135 1.965 . S
Zn121 O137 2.024 . S
C122 O123 1.229 . S
C122 O131 1.058 . S
O123 C122 1.229 . S
C124 O125 1.229 . S
C124 O137 1.058 . S
O125 C124 1.229 . S
O126 Zn120 1.969 . S
O126 C129 1.267 . S
O127 Zn120 1.965 . S
O127 C138 1.260 . S
O128 Zn121 1.969 . S
O128 C138 1.258 1_554 S
C129 O126 1.267 . S
C129 O130 1.228 . S
O130 C129 1.228 . S
O131 Zn120 2.024 . S
O131 C122 1.058 . S
C132 O133 1.228 . S
C132 O134 1.267 . S
O133 C132 1.228 . S
O134 Zn121 1.969 . S
O134 C132 1.267 . S
O135 Zn121 1.965 . S
O135 C139 1.260 . S
O136 Zn120 1.969 . S
O136 C139 1.258 1_556 S
O137 Zn121 2.024 . S
O137 C124 1.058 . S
C138 O127 1.260 . S
C138 O128 1.258 1_556 S
C139 O135 1.260 . S
C139 O136 1.258 1_554 S
Zn140 O146 1.969 . S
Zn140 O147 1.965 1_455 S
Zn140 O151 2.024 . S
Zn140 O156 1.969 . S
Zn141 O148 1.969 . S
Zn141 O154 1.969 . S
Zn141 O155 1.965 1_655 S
Zn141 O157 2.024 . S
C142 O143 1.229 . S
C142 O151 1.058 . S
O143 C142 1.229 . S
C144 O145 1.229 . S
C144 O157 1.058 . S
O145 C144 1.229 . S
O146 Zn140 1.969 . S
O146 C149 1.267 . S
O147 Zn140 1.965 1_655 S
O147 C158 1.260 . S
O148 Zn141 1.969 . S
O148 C158 1.258 . S
C149 O146 1.267 . S
C149 O150 1.238 . S
O150 C149 1.238 . S
O151 Zn140 2.024 . S
O151 C142 1.058 . S
C152 O153 1.236 . S
C152 O154 1.267 . S
O153 C152 1.236 . S
O154 Zn141 1.969 . S
O154 C152 1.267 . S
O155 Zn141 1.965 1_455 S
O155 C159 1.260 . S
O156 Zn140 1.969 . S
O156 C159 1.258 . S
O157 Zn141 2.024 . S
O157 C144 1.058 . S
C158 O147 1.260 . S
C158 O148 1.258 . S
C159 O155 1.260 . S
C159 O156 1.258 . S
H160 C168 0.929 . S
H161 C170 0.930 . S
H162 C172 0.930 . S
H163 C175 0.929 . S
H164 C178 0.930 . S
H165 C180 0.960 . S
H166 C180 0.960 . S
H167 C180 0.960 . S
C168 H160 0.929 . S
C168 C169 1.377 . S
C168 C170 1.384 . S
C169 C168 1.377 . S
C169 C175 1.390 . S
C170 H161 0.930 . S
C170 C168 1.384 . S
C170 C171 1.372 . S
C171 C170 1.372 . S
C171 C172 1.400 . S
C171 C176 1.490 . S
C172 H162 0.930 . S
C172 C171 1.400 . S
C172 C175 1.386 . S
H173 C189 0.930 . S
H174 C190 0.931 . S
C175 H163 0.929 . S
C175 C169 1.390 . S
C175 C172 1.386 . S
C176 C171 1.490 . S
C176 C178 1.395 . S
C176 C179 1.403 . S
H177 C183 0.930 . S
C178 H164 0.930 . S
C178 C176 1.395 . S
C178 C181 1.403 . S
C179 C176 1.403 . S
C179 C180 1.524 . S
C179 C183 1.400 . S
C180 H165 0.960 . S
C180 H166 0.960 . S
C180 H167 0.960 . S
C180 C179 1.524 . S
C181 C178 1.403 . S
C181 C182 1.392 . S
C181 C185 1.495 . S
C182 C181 1.392 . S
C182 C183 1.385 . S
C182 C184 1.478 . S
C183 H177 0.930 . S
C183 C179 1.400 . S
C183 C182 1.385 . S
C184 C182 1.478 . S
C184 C186 1.381 . S
C184 C190 1.383 . S
C185 C181 1.495 . S
C185 H191 0.959 . S
C185 H192 0.961 . S
C185 H193 0.960 . S
C186 C184 1.381 . S
C186 C187 1.394 . S
C186 H194 0.930 . S
C187 C186 1.394 . S
C187 C188 1.383 . S
C187 H195 0.929 . S
C188 C187 1.383 . S
C188 C189 1.377 . S
C189 H173 0.930 . S
C189 C188 1.377 . S
C189 C190 1.379 . S
C190 H174 0.931 . S
C190 C184 1.383 . S
C190 C189 1.379 . S
H191 C185 0.959 . S
H192 C185 0.961 . S
H193 C185 0.960 . S
H194 C186 0.930 . S
H195 C187 0.929 . S
H196 C204 0.929 . S
H197 C206 0.930 . S
H198 C208 0.930 . S
H199 C211 0.929 . S
H200 C214 0.930 . S
H201 C216 0.960 . S
H202 C216 0.960 . S
H203 C216 0.960 . S
C204 H196 0.929 . S
C204 C205 1.377 . S
C204 C206 1.384 . S
C205 C204 1.377 . S
C205 C211 1.390 . S
C206 H197 0.930 . S
C206 C204 1.384 . S
C206 C207 1.372 . S
C207 C206 1.372 . S
C207 C208 1.400 . S
C207 C212 1.490 . S
C208 H198 0.930 . S
C208 C207 1.400 . S
C208 C211 1.386 . S
H209 C225 0.930 . S
H210 C226 0.931 . S
C211 H199 0.929 . S
C211 C205 1.390 . S
C211 C208 1.386 . S
C212 C207 1.490 . S
C212 C214 1.395 . S
C212 C215 1.403 . S
H213 C219 0.930 . S
C214 H200 0.930 . S
C214 C212 1.395 . S
C214 C217 1.403 . S
C215 C212 1.403 . S
C215 C216 1.524 . S
C215 C219 1.400 . S
C216 H201 0.960 . S
C216 H202 0.960 . S
C216 H203 0.960 . S
C216 C215 1.524 . S
C217 C214 1.403 . S
C217 C218 1.392 . S
C217 C221 1.495 . S
C218 C217 1.392 . S
C218 C219 1.385 . S
C218 C220 1.478 . S
C219 H213 0.930 . S
C219 C215 1.400 . S
C219 C218 1.385 . S
C220 C218 1.478 . S
C220 C222 1.381 . S
C220 C226 1.383 . S
C221 C217 1.495 . S
C221 H227 0.959 . S
C221 H228 0.961 . S
C221 H229 0.960 . S
C222 C220 1.381 . S
C222 C223 1.394 . S
C222 H230 0.930 . S
C223 C222 1.394 . S
C223 C224 1.383 . S
C223 H231 0.929 . S
C224 C223 1.383 . S
C224 C225 1.377 . S
C225 H209 0.930 . S
C225 C224 1.377 . S
C225 C226 1.379 . S
C226 H210 0.931 . S
C226 C220 1.383 . S
C226 C225 1.379 . S
H227 C221 0.959 . S
H228 C221 0.961 . S
H229 C221 0.960 . S
H230 C222 0.930 . S
H231 C223 0.929 . S
H232 C240 0.929 . S
H233 C242 0.930 . S
H234 C244 0.930 . S
H235 C247 0.929 . S
H236 C250 0.930 . S
H237 C252 0.960 . S
H238 C252 0.960 . S
H239 C252 0.960 . S
C240 H232 0.929 . S
C240 C241 1.377 . S
C240 C242 1.384 . S
C241 C240 1.377 . S
C241 C247 1.390 . S
C242 H233 0.930 . S
C242 C240 1.384 . S
C242 C243 1.372 . S
C243 C242 1.372 . S
C243 C244 1.400 . S
C243 C248 1.490 . S
C244 H234 0.930 . S
C244 C243 1.400 . S
C244 C247 1.386 . S
H245 C261 0.930 . S
H246 C262 0.931 . S
C247 H235 0.929 . S
C247 C241 1.390 . S
C247 C244 1.386 . S
C248 C243 1.490 . S
C248 C250 1.395 . S
C248 C251 1.403 . S
H249 C255 0.930 . S
C250 H236 0.930 . S
C250 C248 1.395 . S
C250 C253 1.403 . S
C251 C248 1.403 . S
C251 C252 1.524 . S
C251 C255 1.400 . S
C252 H237 0.960 . S
C252 H238 0.960 . S
C252 H239 0.960 . S
C252 C251 1.524 . S
C253 C250 1.403 . S
C253 C254 1.392 . S
C253 C257 1.495 . S
C254 C253 1.392 . S
C254 C255 1.385 . S
C254 C256 1.478 . S
C255 H249 0.930 . S
C255 C251 1.400 . S
C255 C254 1.385 . S
C256 C254 1.478 . S
C256 C258 1.381 . S
C256 C262 1.383 . S
C257 C253 1.495 . S
C257 H263 0.959 . S
C257 H264 0.961 . S
C257 H265 0.960 . S
C258 C256 1.381 . S
C258 C259 1.394 . S
C258 H266 0.930 . S
C259 C258 1.394 . S
C259 C260 1.383 . S
C259 H267 0.929 . S
C260 C259 1.383 . S
C260 C261 1.377 . S
C261 H245 0.930 . S
C261 C260 1.377 . S
C261 C262 1.379 . S
C262 H246 0.931 . S
C262 C256 1.383 . S
C262 C261 1.379 . S
H263 C257 0.959 . S
H264 C257 0.961 . S
H265 C257 0.960 . S
H266 C258 0.930 . S
H267 C259 0.929 . S
H268 C276 0.929 . S
H269 C278 0.930 . S
H270 C280 0.930 . S
H271 C283 0.929 . S
H272 C286 0.930 . S
H273 C288 0.960 . S
H274 C288 0.960 . S
H275 C288 0.960 . S
C276 H268 0.929 . S
C276 C277 1.377 . S
C276 C278 1.384 . S
C277 C276 1.377 . S
C277 C283 1.390 . S
C278 H269 0.930 . S
C278 C276 1.384 . S
C278 C279 1.372 . S
C279 C278 1.372 . S
C279 C280 1.400 . S
C279 C284 1.490 . S
C280 H270 0.930 . S
C280 C279 1.400 . S
C280 C283 1.386 . S
H281 C297 0.930 . S
H282 C298 0.931 . S
C283 H271 0.929 . S
C283 C277 1.390 . S
C283 C280 1.386 . S
C284 C279 1.490 . S
C284 C286 1.395 . S
C284 C287 1.403 . S
H285 C291 0.930 . S
C286 H272 0.930 . S
C286 C284 1.395 . S
C286 C289 1.403 . S
C287 C284 1.403 . S
C287 C288 1.524 . S
C287 C291 1.400 . S
C288 H273 0.960 . S
C288 H274 0.960 . S
C288 H275 0.960 . S
C288 C287 1.524 . S
C289 C286 1.403 . S
C289 C290 1.392 . S
C289 C293 1.495 . S
C290 C289 1.392 . S
C290 C291 1.385 . S
C290 C292 1.478 . S
C291 H285 0.930 . S
C291 C287 1.400 . S
C291 C290 1.385 . S
C292 C290 1.478 . S
C292 C294 1.381 . S
C292 C298 1.383 . S
C293 C289 1.495 . S
C293 H299 0.959 . S
C293 H300 0.961 . S
C293 H301 0.960 . S
C294 C292 1.381 . S
C294 C295 1.394 . S
C294 H302 0.930 . S
C295 C294 1.394 . S
C295 C296 1.383 . S
C295 H303 0.929 . S
C296 C295 1.383 . S
C296 C297 1.377 . S
C297 H281 0.930 . S
C297 C296 1.377 . S
C297 C298 1.379 . S
C298 H282 0.931 . S
C298 C292 1.383 . S
C298 C297 1.379 . S
H299 C293 0.959 . S
H300 C293 0.961 . S
H301 C293 0.960 . S
H302 C294 0.930 . S
H303 C295 0.929 . S
H304 C312 0.929 . S
H305 C314 0.930 . S
H306 C316 0.930 . S
H307 C319 0.929 . S
H308 C322 0.930 . S
H309 C324 0.960 . S
H310 C324 0.960 . S
H311 C324 0.960 . S
C312 H304 0.929 . S
C312 C313 1.377 . S
C312 C314 1.384 . S
C313 C312 1.377 . S
C313 C319 1.390 . S
C314 H305 0.930 . S
C314 C312 1.384 . S
C314 C315 1.372 . S
C315 C314 1.372 . S
C315 C316 1.400 . S
C315 C320 1.490 . S
C316 H306 0.930 . S
C316 C315 1.400 . S
C316 C319 1.386 . S
H317 C333 0.930 . S
H318 C334 0.931 . S
C319 H307 0.929 . S
C319 C313 1.390 . S
C319 C316 1.386 . S
C320 C315 1.490 . S
C320 C322 1.395 . S
C320 C323 1.403 . S
H321 C327 0.930 . S
C322 H308 0.930 . S
C322 C320 1.395 . S
C322 C325 1.403 . S
C323 C320 1.403 . S
C323 C324 1.524 . S
C323 C327 1.400 . S
C324 H309 0.960 . S
C324 H310 0.960 . S
C324 H311 0.960 . S
C324 C323 1.524 . S
C325 C322 1.403 . S
C325 C326 1.392 . S
C325 C329 1.495 . S
C326 C325 1.392 . S
C326 C327 1.385 . S
C326 C328 1.478 . S
C327 H321 0.930 . S
C327 C323 1.400 . S
C327 C326 1.385 . S
C328 C326 1.478 . S
C328 C330 1.381 . S
C328 C334 1.383 . S
C329 C325 1.495 . S
C329 H335 0.959 . S
C329 H336 0.961 . S
C329 H337 0.960 . S
C330 C328 1.381 . S
C330 C331 1.394 . S
C330 H338 0.930 . S
C331 C330 1.394 . S
C331 C332 1.383 . S
C331 H339 0.929 . S
C332 C331 1.383 . S
C332 C333 1.377 . S
C333 H317 0.930 . S
C333 C332 1.377 . S
C333 C334 1.379 . S
C334 H318 0.931 . S
C334 C328 1.383 . S
C334 C333 1.379 . S
H335 C329 0.959 . S
H336 C329 0.961 . S
H337 C329 0.960 . S
H338 C330 0.930 . S
H339 C331 0.929 . S
H340 C348 0.929 . S
H341 C350 0.930 . S
H342 C352 0.930 . S
H343 C355 0.929 . S
H344 C358 0.930 . S
H345 C360 0.960 . S
H346 C360 0.960 . S
H347 C360 0.960 . S
C348 H340 0.929 . S
C348 C349 1.377 . S
C348 C350 1.384 . S
C349 C348 1.377 . S
C349 C355 1.390 . S
C350 H341 0.930 . S
C350 C348 1.384 . S
C350 C351 1.372 . S
C351 C350 1.372 . S
C351 C352 1.400 . S
C351 C356 1.490 . S
C352 H342 0.930 . S
C352 C351 1.400 . S
C352 C355 1.386 . S
H353 C369 0.930 . S
H354 C370 0.931 . S
C355 H343 0.929 . S
C355 C349 1.390 . S
C355 C352 1.386 . S
C356 C351 1.490 . S
C356 C358 1.395 . S
C356 C359 1.403 . S
H357 C363 0.930 . S
C358 H344 0.930 . S
C358 C356 1.395 . S
C358 C361 1.403 . S
C359 C356 1.403 . S
C359 C360 1.524 . S
C359 C363 1.400 . S
C360 H345 0.960 . S
C360 H346 0.960 . S
C360 H347 0.960 . S
C360 C359 1.524 . S
C361 C358 1.403 . S
C361 C362 1.392 . S
C361 C365 1.495 . S
C362 C361 1.392 . S
C362 C363 1.385 . S
C362 C364 1.478 . S
C363 H357 0.930 . S
C363 C359 1.400 . S
C363 C362 1.385 . S
C364 C362 1.478 . S
C364 C366 1.381 . S
C364 C370 1.383 . S
C365 C361 1.495 . S
C365 H371 0.959 . S
C365 H372 0.961 . S
C365 H373 0.960 . S
C366 C364 1.381 . S
C366 C367 1.394 . S
C366 H374 0.930 . S
C367 C366 1.394 . S
C367 C368 1.383 . S
C367 H375 0.929 . S
C368 C367 1.383 . S
C368 C369 1.377 . S
C369 H353 0.930 . S
C369 C368 1.377 . S
C369 C370 1.379 . S
C370 H354 0.931 . S
C370 C364 1.383 . S
C370 C369 1.379 . S
H371 C365 0.959 . S
H372 C365 0.961 . S
H373 C365 0.960 . S
H374 C366 0.930 . S
H375 C367 0.929 . S
H376 C384 0.929 . S
H377 C386 0.930 . S
H378 C388 0.930 . S
H379 C391 0.929 . S
H380 C394 0.930 . S
H381 C396 0.960 . S
H382 C396 0.960 . S
H383 C396 0.960 . S
C384 H376 0.929 . S
C384 C385 1.377 . S
C384 C386 1.384 . S
C385 C384 1.377 . S
C385 C391 1.390 . S
C386 H377 0.930 . S
C386 C384 1.384 . S
C386 C387 1.372 . S
C387 C386 1.372 . S
C387 C388 1.400 . S
C387 C392 1.490 . S
C388 H378 0.930 . S
C388 C387 1.400 . S
C388 C391 1.386 . S
H389 C405 0.930 . S
H390 C406 0.931 . S
C391 H379 0.929 . S
C391 C385 1.390 . S
C391 C388 1.386 . S
C392 C387 1.490 . S
C392 C394 1.395 . S
C392 C395 1.403 . S
H393 C399 0.930 . S
C394 H380 0.930 . S
C394 C392 1.395 . S
C394 C397 1.403 . S
C395 C392 1.403 . S
C395 C396 1.524 . S
C395 C399 1.400 . S
C396 H381 0.960 . S
C396 H382 0.960 . S
C396 H383 0.960 . S
C396 C395 1.524 . S
C397 C394 1.403 . S
C397 C398 1.392 . S
C397 C401 1.495 . S
C398 C397 1.392 . S
C398 C399 1.385 . S
C398 C400 1.478 . S
C399 H393 0.930 . S
C399 C395 1.400 . S
C399 C398 1.385 . S
C400 C398 1.478 . S
C400 C402 1.381 . S
C400 C406 1.383 . S
C401 C397 1.495 . S
C401 H407 0.959 1_554 S
C401 H408 0.961 . S
C401 H409 0.960 1_554 S
C402 C400 1.381 . S
C402 C403 1.394 . S
C402 H410 0.930 . S
C403 C402 1.394 . S
C403 C404 1.383 . S
C403 H411 0.929 . S
C404 C403 1.383 . S
C404 C405 1.377 . S
C405 H389 0.930 . S
C405 C404 1.377 . S
C405 C406 1.379 . S
C406 H390 0.931 . S
C406 C400 1.383 . S
C406 C405 1.379 . S
H407 C401 0.959 1_556 S
H408 C401 0.961 . S
H409 C401 0.960 1_556 S
H410 C402 0.930 . S
H411 C403 0.929 . S
H412 C420 0.929 . S
H413 C422 0.930 . S
H414 C424 0.930 . S
H415 C427 0.929 . S
H416 C430 0.930 . S
H417 C432 0.960 . S
H418 C432 0.960 . S
H419 C432 0.960 . S
C420 H412 0.929 . S
C420 C421 1.377 . S
C420 C422 1.384 . S
C421 C420 1.377 . S
C421 C427 1.390 . S
C422 H413 0.930 . S
C422 C420 1.384 . S
C422 C423 1.372 . S
C423 C422 1.372 . S
C423 C424 1.400 . S
C423 C428 1.490 . S
C424 H414 0.930 . S
C424 C423 1.400 . S
C424 C427 1.386 . S
H425 C441 0.930 . S
H426 C442 0.931 . S
C427 H415 0.929 . S
C427 C421 1.390 . S
C427 C424 1.386 . S
C428 C423 1.490 . S
C428 C430 1.395 . S
C428 C431 1.403 . S
H429 C435 0.930 . S
C430 H416 0.930 . S
C430 C428 1.395 . S
C430 C433 1.403 . S
C431 C428 1.403 . S
C431 C432 1.524 . S
C431 C435 1.400 . S
C432 H417 0.960 . S
C432 H418 0.960 . S
C432 H419 0.960 . S
C432 C431 1.524 . S
C433 C430 1.403 . S
C433 C434 1.392 . S
C433 C437 1.495 1_556 S
C434 C433 1.392 . S
C434 C435 1.385 . S
C434 C436 1.478 . S
C435 H429 0.930 . S
C435 C431 1.400 . S
C435 C434 1.385 . S
C436 C434 1.478 . S
C436 C438 1.381 . S
C436 C442 1.383 . S
C437 C433 1.495 1_554 S
C437 H443 0.959 . S
C437 H444 0.961 . S
C437 H445 0.960 . S
C438 C436 1.381 . S
C438 C439 1.394 . S
C438 H446 0.930 . S
C439 C438 1.394 . S
C439 C440 1.383 . S
C439 H447 0.929 . S
C440 C439 1.383 . S
C440 C441 1.377 . S
C441 H425 0.930 . S
C441 C440 1.377 . S
C441 C442 1.379 . S
C442 H426 0.931 . S
C442 C436 1.383 . S
C442 C441 1.379 . S
H443 C437 0.959 . S
H444 C437 0.961 . S
H445 C437 0.960 . S
H446 C438 0.930 . S
H447 C439 0.929 . S
H448 C456 0.929 . S
H449 C458 0.930 . S
H450 C460 0.930 . S
H451 C463 0.929 . S
H452 C466 0.930 . S
H453 C468 0.960 . S
H454 C468 0.960 . S
H455 C468 0.960 . S
C456 H448 0.929 . S
C456 C457 1.377 . S
C456 C458 1.384 . S
C457 C456 1.377 . S
C457 C463 1.390 . S
C458 H449 0.930 . S
C458 C456 1.384 . S
C458 C459 1.372 . S
C459 C458 1.372 . S
C459 C460 1.400 . S
C459 C464 1.490 . S
C460 H450 0.930 . S
C460 C459 1.400 . S
C460 C463 1.386 . S
H461 C477 0.930 . S
H462 C478 0.931 . S
C463 H451 0.929 . S
C463 C457 1.390 . S
C463 C460 1.386 . S
C464 C459 1.490 . S
C464 C466 1.395 . S
C464 C467 1.403 . S
H465 C471 0.930 . S
C466 H452 0.930 . S
C466 C464 1.395 . S
C466 C469 1.403 . S
C467 C464 1.403 . S
C467 C468 1.524 1_556 S
C467 C471 1.400 . S
C468 H453 0.960 . S
C468 H454 0.960 . S
C468 H455 0.960 . S
C468 C467 1.524 1_554 S
C469 C466 1.403 . S
C469 C470 1.392 . S
C469 C473 1.495 . S
C470 C469 1.392 . S
C470 C471 1.385 . S
C470 C472 1.478 . S
C471 H465 0.930 . S
C471 C467 1.400 . S
C471 C470 1.385 . S
C472 C470 1.478 . S
C472 C474 1.381 . S
C472 C478 1.383 . S
C473 C469 1.495 . S
C473 H479 0.959 . S
C473 H480 0.961 . S
C473 H481 0.960 . S
C474 C472 1.381 . S
C474 C475 1.394 . S
C474 H482 0.930 . S
C475 C474 1.394 . S
C475 C476 1.383 . S
C475 H483 0.929 . S
C476 C475 1.383 . S
C476 C477 1.377 . S
C477 H461 0.930 . S
C477 C476 1.377 . S
C477 C478 1.379 . S
C478 H462 0.931 . S
C478 C472 1.383 . S
C478 C477 1.379 . S
H479 C473 0.959 . S
H480 C473 0.961 . S
H481 C473 0.960 . S
H482 C474 0.930 . S
H483 C475 0.929 . S
H484 C492 0.929 . S
H485 C494 0.930 . S
H486 C496 0.930 . S
H487 C499 0.929 . S
H488 C502 0.930 . S
H489 C504 0.960 . S
H490 C504 0.960 . S
H491 C504 0.960 . S
C492 H484 0.929 . S
C492 C493 1.377 . S
C492 C494 1.384 . S
C493 C492 1.377 . S
C493 C499 1.390 . S
C494 H485 0.930 . S
C494 C492 1.384 . S
C494 C495 1.372 . S
C495 C494 1.372 . S
C495 C496 1.400 . S
C495 C500 1.490 . S
C496 H486 0.930 . S
C496 C495 1.400 . S
C496 C499 1.386 . S
H497 C513 0.930 . S
H498 C514 0.931 . S
C499 H487 0.929 . S
C499 C493 1.390 . S
C499 C496 1.386 . S
C500 C495 1.490 . S
C500 C502 1.395 . S
C500 C503 1.403 . S
H501 C507 0.930 . S
C502 H488 0.930 . S
C502 C500 1.395 . S
C502 C505 1.403 . S
C503 C500 1.403 . S
C503 C504 1.524 . S
C503 C507 1.400 . S
C504 H489 0.960 . S
C504 H490 0.960 . S
C504 H491 0.960 . S
C504 C503 1.524 . S
C505 C502 1.403 . S
C505 C506 1.392 . S
C505 C509 1.495 . S
C506 C505 1.392 . S
C506 C507 1.385 . S
C506 C508 1.478 . S
C507 H501 0.930 . S
C507 C503 1.400 . S
C507 C506 1.385 . S
C508 C506 1.478 . S
C508 C510 1.381 . S
C508 C514 1.383 . S
C509 C505 1.495 . S
C509 H515 0.959 . S
C509 H516 0.961 . S
C509 H517 0.960 . S
C510 C508 1.381 . S
C510 C511 1.394 . S
C510 H518 0.930 . S
C511 C510 1.394 . S
C511 C512 1.383 . S
C511 H519 0.929 . S
C512 C511 1.383 . S
C512 C513 1.377 . S
C513 H497 0.930 . S
C513 C512 1.377 . S
C513 C514 1.379 . S
C514 H498 0.931 . S
C514 C508 1.383 . S
C514 C513 1.379 . S
H515 C509 0.959 . S
H516 C509 0.961 . S
H517 C509 0.960 . S
H518 C510 0.930 . S
H519 C511 0.929 . S
H520 C528 0.929 . S
H521 C530 0.930 . S
H522 C532 0.930 . S
H523 C535 0.929 . S
H524 C538 0.930 . S
H525 C540 0.960 . S
H526 C540 0.960 . S
H527 C540 0.960 . S
C528 H520 0.929 . S
C528 C529 1.377 . S
C528 C530 1.384 . S
C529 C528 1.377 . S
C529 C535 1.390 . S
C530 H521 0.930 . S
C530 C528 1.384 . S
C530 C531 1.372 . S
C531 C530 1.372 . S
C531 C532 1.400 . S
C531 C536 1.490 . S
C532 H522 0.930 . S
C532 C531 1.400 . S
C532 C535 1.386 . S
H533 C549 0.930 . S
H534 C550 0.931 . S
C535 H523 0.929 . S
C535 C529 1.390 . S
C535 C532 1.386 . S
C536 C531 1.490 . S
C536 C538 1.395 . S
C536 C539 1.403 . S
H537 C543 0.930 . S
C538 H524 0.930 . S
C538 C536 1.395 . S
C538 C541 1.403 . S
C539 C536 1.403 . S
C539 C540 1.524 . S
C539 C543 1.400 . S
C540 H525 0.960 . S
C540 H526 0.960 . S
C540 H527 0.960 . S
C540 C539 1.524 . S
C541 C538 1.403 . S
C541 C542 1.392 . S
C541 C545 1.495 . S
C542 C541 1.392 . S
C542 C543 1.385 . S
C542 C544 1.478 . S
C543 H537 0.930 . S
C543 C539 1.400 . S
C543 C542 1.385 . S
C544 C542 1.478 . S
C544 C546 1.381 . S
C544 C550 1.383 . S
C545 C541 1.495 . S
C545 H551 0.959 . S
C545 H552 0.961 . S
C545 H553 0.960 . S
C546 C544 1.381 . S
C546 C547 1.394 . S
C546 H554 0.930 . S
C547 C546 1.394 . S
C547 C548 1.383 . S
C547 H555 0.929 . S
C548 C547 1.383 . S
C548 C549 1.377 . S
C549 H533 0.930 . S
C549 C548 1.377 . S
C549 C550 1.379 . S
C550 H534 0.931 . S
C550 C544 1.383 . S
C550 C549 1.379 . S
H551 C545 0.959 . S
H552 C545 0.961 . S
H553 C545 0.960 . S
H554 C546 0.930 . S
H555 C547 0.929 . S
H556 C564 0.929 . S
H557 C566 0.930 . S
H558 C568 0.930 . S
H559 C571 0.929 . S
H560 C574 0.930 . S
H561 C576 0.960 . S
H562 C576 0.960 . S
H563 C576 0.960 . S
C564 H556 0.929 . S
C564 C565 1.377 . S
C564 C566 1.384 . S
C565 C564 1.377 . S
C565 C571 1.390 . S
C566 H557 0.930 . S
C566 C564 1.384 . S
C566 C567 1.372 . S
C567 C566 1.372 . S
C567 C568 1.400 . S
C567 C572 1.490 . S
C568 H558 0.930 . S
C568 C567 1.400 . S
C568 C571 1.386 . S
H569 C585 0.930 . S
H570 C586 0.931 . S
C571 H559 0.929 . S
C571 C565 1.390 . S
C571 C568 1.386 . S
C572 C567 1.490 . S
C572 C574 1.395 . S
C572 C575 1.403 . S
H573 C579 0.930 . S
C574 H560 0.930 . S
C574 C572 1.395 . S
C574 C577 1.403 . S
C575 C572 1.403 . S
C575 C576 1.524 . S
C575 C579 1.400 . S
C576 H561 0.960 . S
C576 H562 0.960 . S
C576 H563 0.960 . S
C576 C575 1.524 . S
C577 C574 1.403 . S
C577 C578 1.392 . S
C577 C581 1.495 . S
C578 C577 1.392 . S
C578 C579 1.385 . S
C578 C580 1.478 . S
C579 H573 0.930 . S
C579 C575 1.400 . S
C579 C578 1.385 . S
C580 C578 1.478 . S
C580 C582 1.381 . S
C580 C586 1.383 . S
C581 C577 1.495 . S
C581 H587 0.959 . S
C581 H588 0.961 . S
C581 H589 0.960 . S
C582 C580 1.381 . S
C582 C583 1.394 . S
C582 H590 0.930 . S
C583 C582 1.394 . S
C583 C584 1.383 . S
C583 H591 0.929 . S
C584 C583 1.383 . S
C584 C585 1.377 . S
C585 H569 0.930 . S
C585 C584 1.377 . S
C585 C586 1.379 . S
C586 H570 0.931 . S
C586 C580 1.383 . S
C586 C585 1.379 . S
H587 C581 0.959 . S
H588 C581 0.961 . S
H589 C581 0.960 . S
H590 C582 0.930 . S
H591 C583 0.929 . S
H592 C600 0.929 . S
H593 C602 0.930 . S
H594 C604 0.930 . S
H595 C607 0.929 . S
H596 C610 0.930 . S
H597 C612 0.960 . S
H598 C612 0.960 . S
H599 C612 0.960 . S
C600 H592 0.929 . S
C600 C601 1.377 . S
C600 C602 1.384 . S
C601 C600 1.377 . S
C601 C607 1.390 . S
C602 H593 0.930 . S
C602 C600 1.384 . S
C602 C603 1.372 . S
C603 C602 1.372 . S
C603 C604 1.400 . S
C603 C608 1.490 . S
C604 H594 0.930 . S
C604 C603 1.400 . S
C604 C607 1.386 . S
H605 C621 0.930 . S
H606 C622 0.931 . S
C607 H595 0.929 . S
C607 C601 1.390 . S
C607 C604 1.386 . S
C608 C603 1.490 . S
C608 C610 1.395 . S
C608 C611 1.403 . S
H609 C615 0.930 . S
C610 H596 0.930 . S
C610 C608 1.395 . S
C610 C613 1.403 . S
C611 C608 1.403 . S
C611 C612 1.524 . S
C611 C615 1.400 . S
C612 H597 0.960 . S
C612 H598 0.960 . S
C612 H599 0.960 . S
C612 C611 1.524 . S
C613 C610 1.403 . S
C613 C614 1.392 . S
C613 C617 1.495 . S
C614 C613 1.392 . S
C614 C615 1.385 . S
C614 C616 1.478 . S
C615 H609 0.930 . S
C615 C611 1.400 . S
C615 C614 1.385 . S
C616 C614 1.478 . S
C616 C618 1.381 . S
C616 C622 1.383 . S
C617 C613 1.495 . S
C617 H623 0.959 . S
C617 H624 0.961 . S
C617 H625 0.960 . S
C618 C616 1.381 . S
C618 C619 1.394 . S
C618 H626 0.930 1_554 S
C619 C618 1.394 . S
C619 C620 1.383 . S
C619 H627 0.929 1_554 S
C620 C619 1.383 . S
C620 C621 1.377 . S
C621 H605 0.930 . S
C621 C620 1.377 . S
C621 C622 1.379 . S
C622 H606 0.931 . S
C622 C616 1.383 . S
C622 C621 1.379 . S
H623 C617 0.959 . S
H624 C617 0.961 . S
H625 C617 0.960 . S
H626 C618 0.930 1_556 S
H627 C619 0.929 1_556 S
H628 C636 0.929 1_554 S
H629 C638 0.930 . S
H630 C640 0.930 . S
H631 C643 0.929 . S
H632 C646 0.930 . S
H633 C648 0.960 . S
H634 C648 0.960 . S
H635 C648 0.960 . S
C636 H628 0.929 1_556 S
C636 C637 1.377 . S
C636 C638 1.384 . S
C637 C636 1.377 . S
C637 C643 1.390 . S
C638 H629 0.930 . S
C638 C636 1.384 . S
C638 C639 1.372 . S
C639 C638 1.372 . S
C639 C640 1.400 . S
C639 C644 1.490 . S
C640 H630 0.930 . S
C640 C639 1.400 . S
C640 C643 1.386 . S
H641 C657 0.930 . S
H642 C658 0.931 . S
C643 H631 0.929 . S
C643 C637 1.390 . S
C643 C640 1.386 . S
C644 C639 1.490 . S
C644 C646 1.395 . S
C644 C647 1.403 . S
H645 C651 0.930 . S
C646 H632 0.930 . S
C646 C644 1.395 . S
C646 C649 1.403 . S
C647 C644 1.403 . S
C647 C648 1.524 . S
C647 C651 1.400 . S
C648 H633 0.960 . S
C648 H634 0.960 . S
C648 H635 0.960 . S
C648 C647 1.524 . S
C649 C646 1.403 . S
C649 C650 1.392 . S
C649 C653 1.495 . S
C650 C649 1.392 . S
C650 C651 1.385 . S
C650 C652 1.478 . S
C651 H645 0.930 . S
C651 C647 1.400 . S
C651 C650 1.385 . S
C652 C650 1.478 . S
C652 C654 1.381 . S
C652 C658 1.383 . S
C653 C649 1.495 . S
C653 H659 0.959 . S
C653 H660 0.961 . S
C653 H661 0.960 . S
C654 C652 1.381 . S
C654 C655 1.394 . S
C654 H662 0.930 . S
C655 C654 1.394 . S
C655 C656 1.383 . S
C655 H663 0.929 . S
C656 C655 1.383 . S
C656 C657 1.377 . S
C657 H641 0.930 . S
C657 C656 1.377 . S
C657 C658 1.379 . S
C658 H642 0.931 . S
C658 C652 1.383 . S
C658 C657 1.379 . S
H659 C653 0.959 . S
H660 C653 0.961 . S
H661 C653 0.960 . S
H662 C654 0.930 . S
H663 C655 0.929 . S
H664 C672 0.929 . S
H665 C674 0.930 . S
H666 C676 0.930 . S
H667 C679 0.929 . S
H668 C682 0.930 . S
H669 C684 0.960 . S
H670 C684 0.960 . S
H671 C684 0.960 . S
C672 H664 0.929 . S
C672 C673 1.377 . S
C672 C674 1.384 . S
C673 C672 1.377 . S
C673 C679 1.390 . S
C674 H665 0.930 . S
C674 C672 1.384 . S
C674 C675 1.372 . S
C675 C674 1.372 . S
C675 C676 1.400 . S
C675 C680 1.490 . S
C676 H666 0.930 . S
C676 C675 1.400 . S
C676 C679 1.386 . S
H677 C693 0.930 . S
H678 C694 0.931 . S
C679 H667 0.929 . S
C679 C673 1.390 . S
C679 C676 1.386 . S
C680 C675 1.490 . S
C680 C682 1.395 . S
C680 C683 1.403 . S
H681 C687 0.930 . S
C682 H668 0.930 . S
C682 C680 1.395 . S
C682 C685 1.403 . S
C683 C680 1.403 . S
C683 C684 1.524 . S
C683 C687 1.400 . S
C684 H669 0.960 . S
C684 H670 0.960 . S
C684 H671 0.960 . S
C684 C683 1.524 . S
C685 C682 1.403 . S
C685 C686 1.392 . S
C685 C689 1.495 . S
C686 C685 1.392 . S
C686 C687 1.385 . S
C686 C688 1.478 . S
C687 H681 0.930 . S
C687 C683 1.400 . S
C687 C686 1.385 . S
C688 C686 1.478 . S
C688 C690 1.381 . S
C688 C694 1.383 . S
C689 C685 1.495 . S
C689 H695 0.959 . S
C689 H696 0.961 . S
C689 H697 0.960 . S
C690 C688 1.381 . S
C690 C691 1.394 . S
C690 H698 0.930 . S
C691 C690 1.394 . S
C691 C692 1.383 . S
C691 H699 0.929 . S
C692 C691 1.383 . S
C692 C693 1.377 . S
C693 H677 0.930 . S
C693 C692 1.377 . S
C693 C694 1.379 . S
C694 H678 0.931 . S
C694 C688 1.383 . S
C694 C693 1.379 . S
H695 C689 0.959 . S
H696 C689 0.961 . S
H697 C689 0.960 . S
H698 C690 0.930 . S
H699 C691 0.929 . S
H700 C708 0.929 . S
H701 C710 0.930 . S
H702 C712 0.930 . S
H703 C715 0.929 . S
H704 C718 0.930 . S
H705 C720 0.960 . S
H706 C720 0.960 . S
H707 C720 0.960 . S
C708 H700 0.929 . S
C708 C709 1.377 . S
C708 C710 1.384 . S
C709 C708 1.377 . S
C709 C715 1.390 . S
C710 H701 0.930 . S
C710 C708 1.384 . S
C710 C711 1.372 . S
C711 C710 1.372 . S
C711 C712 1.400 . S
C711 C716 1.490 . S
C712 H702 0.930 . S
C712 C711 1.400 . S
C712 C715 1.386 . S
H713 C729 0.930 . S
H714 C730 0.931 . S
C715 H703 0.929 . S
C715 C709 1.390 . S
C715 C712 1.386 . S
C716 C711 1.490 . S
C716 C718 1.395 . S
C716 C719 1.403 . S
H717 C723 0.930 . S
C718 H704 0.930 . S
C718 C716 1.395 . S
C718 C721 1.403 . S
C719 C716 1.403 . S
C719 C720 1.524 . S
C719 C723 1.400 . S
C720 H705 0.960 . S
C720 H706 0.960 . S
C720 H707 0.960 . S
C720 C719 1.524 . S
C721 C718 1.403 . S
C721 C722 1.392 . S
C721 C725 1.495 . S
C722 C721 1.392 . S
C722 C723 1.385 . S
C722 C724 1.478 . S
C723 H717 0.930 . S
C723 C719 1.400 . S
C723 C722 1.385 . S
C724 C722 1.478 . S
C724 C726 1.381 . S
C724 C730 1.383 . S
C725 C721 1.495 . S
C725 H731 0.959 . S
C725 H732 0.961 . S
C725 H733 0.960 . S
C726 C724 1.381 . S
C726 C727 1.394 . S
C726 H734 0.930 . S
C727 C726 1.394 . S
C727 C728 1.383 . S
C727 H735 0.929 . S
C728 C727 1.383 . S
C728 C729 1.377 . S
C729 H713 0.930 . S
C729 C728 1.377 . S
C729 C730 1.379 . S
C730 H714 0.931 . S
C730 C724 1.383 . S
C730 C729 1.379 . S
H731 C725 0.959 . S
H732 C725 0.961 . S
H733 C725 0.960 . S
H734 C726 0.930 . S
H735 C727 0.929 . S
H736 C744 0.929 . S
H737 C746 0.930 . S
H738 C748 0.930 . S
H739 C751 0.929 . S
H740 C754 0.930 . S
H741 C756 0.960 . S
H742 C756 0.960 . S
H743 C756 0.960 . S
C744 H736 0.929 . S
C744 C745 1.377 1_655 S
C744 C746 1.384 . S
C745 C744 1.377 1_455 S
C745 C751 1.390 1_545 S
C746 H737 0.930 . S
C746 C744 1.384 . S
C746 C747 1.368 1_655 S
C747 C746 1.368 1_455 S
C747 C748 1.403 1_545 S
C747 C752 1.495 1_455 S
C748 H738 0.930 . S
C748 C747 1.403 1_565 S
C748 C751 1.386 . S
H749 C765 0.930 . S
H750 C766 0.931 . S
C751 H739 0.929 . S
C751 C745 1.390 1_565 S
C751 C748 1.386 . S
C752 C747 1.495 1_655 S
C752 C754 1.375 1_545 S
C752 C755 1.418 1_655 S
H753 C759 0.930 . S
C754 H740 0.930 . S
C754 C752 1.375 1_565 S
C754 C757 1.403 1_556 S
C755 C752 1.418 1_455 S
C755 C756 1.524 . S
C755 C759 1.400 1_556 S
C756 H741 0.960 . S
C756 H742 0.960 . S
C756 H743 0.960 . S
C756 C755 1.524 . S
C757 C754 1.403 1_554 S
C757 C758 1.392 . S
C757 C761 1.495 . S
C758 C757 1.392 . S
C758 C759 1.385 1_665 S
C758 C760 1.478 . S
C759 H753 0.930 . S
C759 C755 1.400 1_554 S
C759 C758 1.385 1_445 S
C760 C758 1.478 . S
C760 C762 1.381 1_565 S
C760 C766 1.383 1_655 S
C761 C757 1.495 . S
C761 H767 0.959 . S
C761 H768 0.961 . S
C761 H769 0.960 . S
C762 C760 1.381 1_545 S
C762 C763 1.394 . S
C762 H770 0.930 . S
C763 C762 1.394 . S
C763 C764 1.383 1_545 S
C763 H771 0.929 . S
C764 C763 1.383 1_565 S
C764 C765 1.377 1_655 S
C765 H749 0.930 . S
C765 C764 1.377 1_455 S
C765 C766 1.379 . S
C766 H750 0.931 . S
C766 C760 1.383 1_455 S
C766 C765 1.379 . S
H767 C761 0.959 . S
H768 C761 0.961 . S
H769 C761 0.960 . S
H770 C762 0.930 . S
H771 C763 0.929 . S
H772 C780 0.929 . S
H773 C782 0.930 . S
H774 C784 0.930 . S
H775 C787 0.929 . S
H776 C790 0.930 . S
H777 C792 0.960 . S
H778 C792 0.960 . S
H779 C792 0.960 . S
C780 H772 0.929 . S
C780 C781 1.377 . S
C780 C782 1.384 . S
C781 C780 1.377 . S
C781 C787 1.390 . S
C782 H773 0.930 . S
C782 C780 1.384 . S
C782 C783 1.372 . S
C783 C782 1.372 . S
C783 C784 1.400 . S
C783 C788 1.490 . S
C784 H774 0.930 . S
C784 C783 1.400 . S
C784 C787 1.386 . S
H785 C801 0.930 . S
H786 C802 0.931 . S
C787 H775 0.929 . S
C787 C781 1.390 . S
C787 C784 1.386 . S
C788 C783 1.490 . S
C788 C790 1.395 . S
C788 C791 1.403 . S
H789 C795 0.930 . S
C790 H776 0.930 . S
C790 C788 1.395 . S
C790 C793 1.403 . S
C791 C788 1.403 . S
C791 C792 1.524 . S
C791 C795 1.400 . S
C792 H777 0.960 . S
C792 H778 0.960 . S
C792 H779 0.960 . S
C792 C791 1.524 . S
C793 C790 1.403 . S
C793 C794 1.392 . S
C793 C797 1.495 . S
C794 C793 1.392 . S
C794 C795 1.385 . S
C794 C796 1.478 . S
C795 H789 0.930 . S
C795 C791 1.400 . S
C795 C794 1.385 . S
C796 C794 1.478 . S
C796 C798 1.381 . S
C796 C802 1.383 . S
C797 C793 1.495 . S
C797 H803 0.959 . S
C797 H804 0.961 . S
C797 H805 0.960 . S
C798 C796 1.381 . S
C798 C799 1.394 . S
C798 H806 0.930 . S
C799 C798 1.394 . S
C799 C800 1.383 . S
C799 H807 0.929 . S
C800 C799 1.383 . S
C800 C801 1.377 . S
C801 H785 0.930 . S
C801 C800 1.377 . S
C801 C802 1.379 . S
C802 H786 0.931 . S
C802 C796 1.383 . S
C802 C801 1.379 . S
H803 C797 0.959 . S
H804 C797 0.961 . S
H805 C797 0.960 . S
H806 C798 0.930 . S
H807 C799 0.929 . S
H808 C816 0.929 . S
H809 C818 0.930 . S
H810 C820 0.930 . S
H811 C823 0.929 . S
H812 C826 0.930 . S
H813 C828 0.960 . S
H814 C828 0.960 1_565 S
H815 C828 0.960 . S
C816 H808 0.929 . S
C816 C817 1.377 . S
C816 C818 1.384 . S
C817 C816 1.377 . S
C817 C823 1.390 1_565 S
C818 H809 0.930 . S
C818 C816 1.384 . S
C818 C819 1.372 . S
C819 C818 1.372 . S
C819 C820 1.400 1_565 S
C819 C824 1.490 . S
C820 H810 0.930 . S
C820 C819 1.400 1_545 S
C820 C823 1.386 . S
H821 C837 0.930 . S
H822 C838 0.931 . S
C823 H811 0.929 . S
C823 C817 1.390 1_545 S
C823 C820 1.386 . S
C824 C819 1.490 . S
C824 C826 1.395 . S
C824 C827 1.403 1_565 S
H825 C831 0.930 . S
C826 H812 0.930 . S
C826 C824 1.395 . S
C826 C829 1.403 . S
C827 C824 1.403 1_545 S
C827 C828 1.524 . S
C827 C831 1.400 . S
C828 H813 0.960 . S
C828 H814 0.960 1_545 S
C828 H815 0.960 . S
C828 C827 1.524 . S
C829 C826 1.403 . S
C829 C830 1.403 . S
C829 C833 1.495 . S
C830 C829 1.403 . S
C830 C831 1.380 1_565 S
C830 C832 1.472 1_565 S
C831 H825 0.930 . S
C831 C827 1.400 . S
C831 C830 1.380 1_545 S
C832 C830 1.472 1_545 S
C832 C834 1.381 1_545 S
C832 C838 1.383 . S
C833 C829 1.495 . S
C833 H839 0.959 . S
C833 H840 0.961 . S
C833 H841 0.960 . S
C834 C832 1.381 1_565 S
C834 C835 1.394 . S
C834 H842 0.930 . S
C835 C834 1.394 . S
C835 C836 1.383 1_565 S
C835 H843 0.929 . S
C836 C835 1.383 1_545 S
C836 C837 1.377 . S
C837 H821 0.930 . S
C837 C836 1.377 . S
C837 C838 1.379 . S
C838 H822 0.931 . S
C838 C832 1.383 . S
C838 C837 1.379 . S
H839 C833 0.959 . S
H840 C833 0.961 . S
H841 C833 0.960 . S
H842 C834 0.930 . S
H843 C835 0.929 . S
H844 C852 0.929 . S
H845 C854 0.930 . S
H846 C856 0.930 . S
H847 C859 0.929 . S
H848 C862 0.930 . S
H849 C864 0.960 . S
H850 C864 0.960 . S
H851 C864 0.960 . S
C852 H844 0.929 . S
C852 C853 1.377 . S
C852 C854 1.384 . S
C853 C852 1.377 . S
C853 C859 1.390 . S
C854 H845 0.930 . S
C854 C852 1.384 . S
C854 C855 1.372 . S
C855 C854 1.372 . S
C855 C856 1.400 . S
C855 C860 1.490 . S
C856 H846 0.930 . S
C856 C855 1.400 . S
C856 C859 1.386 . S
H857 C873 0.930 . S
H858 C874 0.931 . S
C859 H847 0.929 . S
C859 C853 1.390 . S
C859 C856 1.386 . S
C860 C855 1.490 . S
C860 C862 1.395 . S
C860 C863 1.403 . S
H861 C867 0.930 . S
C862 H848 0.930 . S
C862 C860 1.395 . S
C862 C865 1.403 . S
C863 C860 1.403 . S
C863 C864 1.524 . S
C863 C867 1.400 . S
C864 H849 0.960 . S
C864 H850 0.960 . S
C864 H851 0.960 . S
C864 C863 1.524 . S
C865 C862 1.403 . S
C865 C866 1.392 . S
C865 C869 1.495 . S
C866 C865 1.392 . S
C866 C867 1.385 . S
C866 C868 1.478 . S
C867 H861 0.930 . S
C867 C863 1.400 . S
C867 C866 1.385 . S
C868 C866 1.478 . S
C868 C870 1.381 . S
C868 C874 1.383 . S
C869 C865 1.495 . S
C869 H875 0.959 . S
C869 H876 0.961 . S
C869 H877 0.960 . S
C870 C868 1.381 . S
C870 C871 1.394 . S
C870 H878 0.930 . S
C871 C870 1.394 . S
C871 C872 1.383 . S
C871 H879 0.929 . S
C872 C871 1.383 . S
C872 C873 1.377 . S
C873 H857 0.930 . S
C873 C872 1.377 . S
C873 C874 1.379 . S
C874 H858 0.931 . S
C874 C868 1.383 . S
C874 C873 1.379 . S
H875 C869 0.959 . S
H876 C869 0.961 . S
H877 C869 0.960 . S
H878 C870 0.930 . S
H879 C871 0.929 . S
H880 C888 0.929 . S
H881 C890 0.930 . S
H882 C892 0.930 . S
H883 C895 0.929 . S
H884 C898 0.930 . S
H885 C900 0.960 . S
H886 C900 0.960 . S
H887 C900 0.960 . S
C888 H880 0.929 . S
C888 C889 1.377 . S
C888 C890 1.384 . S
C889 C888 1.377 . S
C889 C895 1.390 . S
C890 H881 0.930 . S
C890 C888 1.384 . S
C890 C891 1.372 . S
C891 C890 1.372 . S
C891 C892 1.400 . S
C891 C896 1.490 . S
C892 H882 0.930 . S
C892 C891 1.400 . S
C892 C895 1.386 . S
H893 C909 0.930 . S
H894 C910 0.931 . S
C895 H883 0.929 . S
C895 C889 1.390 . S
C895 C892 1.386 . S
C896 C891 1.490 . S
C896 C898 1.395 . S
C896 C899 1.403 . S
H897 C903 0.930 . S
C898 H884 0.930 . S
C898 C896 1.395 . S
C898 C901 1.403 . S
C899 C896 1.403 . S
C899 C900 1.524 . S
C899 C903 1.400 . S
C900 H885 0.960 . S
C900 H886 0.960 . S
C900 H887 0.960 . S
C900 C899 1.524 . S
C901 C898 1.403 . S
C901 C902 1.392 . S
C901 C905 1.495 . S
C902 C901 1.392 . S
C902 C903 1.385 . S
C902 C904 1.478 . S
C903 H897 0.930 . S
C903 C899 1.400 . S
C903 C902 1.385 . S
C904 C902 1.478 . S
C904 C906 1.381 . S
C904 C910 1.383 . S
C905 C901 1.495 . S
C905 H911 0.959 . S
C905 H912 0.961 . S
C905 H913 0.960 . S
C906 C904 1.381 . S
C906 C907 1.394 . S
C906 H914 0.930 . S
C907 C906 1.394 . S
C907 C908 1.383 . S
C907 H915 0.929 . S
C908 C907 1.383 . S
C908 C909 1.377 . S
C909 H893 0.930 . S
C909 C908 1.377 . S
C909 C910 1.379 . S
C910 H894 0.931 . S
C910 C904 1.383 . S
C910 C909 1.379 . S
H911 C905 0.959 . S
H912 C905 0.961 . S
H913 C905 0.960 . S
H914 C906 0.930 . S
H915 C907 0.929 . S
H916 C924 0.929 . S
H917 C926 0.930 . S
H918 C928 0.930 . S
H919 C931 0.929 . S
H920 C934 0.930 . S
H921 C936 0.960 . S
H922 C936 0.960 . S
H923 C936 0.960 . S
C924 H916 0.929 . S
C924 C925 1.377 . S
C924 C926 1.384 . S
C925 C924 1.377 . S
C925 C931 1.390 . S
C926 H917 0.930 . S
C926 C924 1.384 . S
C926 C927 1.372 . S
C927 C926 1.372 . S
C927 C928 1.400 . S
C927 C932 1.490 . S
C928 H918 0.930 . S
C928 C927 1.400 . S
C928 C931 1.386 . S
H929 C945 0.930 . S
H930 C946 0.931 . S
C931 H919 0.929 . S
C931 C925 1.390 . S
C931 C928 1.386 . S
C932 C927 1.490 . S
C932 C934 1.395 . S
C932 C935 1.403 . S
H933 C939 0.930 . S
C934 H920 0.930 . S
C934 C932 1.395 . S
C934 C937 1.403 . S
C935 C932 1.403 . S
C935 C936 1.524 . S
C935 C939 1.400 . S
C936 H921 0.960 . S
C936 H922 0.960 . S
C936 H923 0.960 . S
C936 C935 1.524 . S
C937 C934 1.403 . S
C937 C938 1.392 . S
C937 C941 1.495 . S
C938 C937 1.392 . S
C938 C939 1.385 . S
C938 C940 1.478 . S
C939 H933 0.930 . S
C939 C935 1.400 . S
C939 C938 1.385 . S
C940 C938 1.478 . S
C940 C942 1.381 . S
C940 C946 1.383 . S
C941 C937 1.495 . S
C941 H947 0.959 . S
C941 H948 0.961 . S
C941 H949 0.960 . S
C942 C940 1.381 . S
C942 C943 1.394 . S
C942 H950 0.930 . S
C943 C942 1.394 . S
C943 C944 1.383 . S
C943 H951 0.929 . S
C944 C943 1.383 . S
C944 C945 1.377 . S
C945 H929 0.930 . S
C945 C944 1.377 . S
C945 C946 1.379 . S
C946 H930 0.931 . S
C946 C940 1.383 . S
C946 C945 1.379 . S
H947 C941 0.959 . S
H948 C941 0.961 . S
H949 C941 0.960 . S
H950 C942 0.930 . S
H951 C943 0.929 . S
H952 C960 0.929 . S
H953 C962 0.930 . S
H954 C964 0.930 . S
H955 C967 0.929 . S
H956 C970 0.930 . S
H957 C972 0.960 . S
H958 C972 0.960 . S
H959 C972 0.960 . S
C960 H952 0.929 . S
C960 C961 1.377 . S
C960 C962 1.384 . S
C961 C960 1.377 . S
C961 C967 1.390 . S
C962 H953 0.930 . S
C962 C960 1.384 . S
C962 C963 1.372 . S
C963 C962 1.372 . S
C963 C964 1.400 . S
C963 C968 1.490 . S
C964 H954 0.930 . S
C964 C963 1.400 . S
C964 C967 1.386 . S
H965 C981 0.930 . S
H966 C982 0.931 . S
C967 H955 0.929 . S
C967 C961 1.390 . S
C967 C964 1.386 . S
C968 C963 1.490 . S
C968 C970 1.395 . S
C968 C971 1.403 . S
H969 C975 0.930 . S
C970 H956 0.930 . S
C970 C968 1.395 . S
C970 C973 1.403 . S
C971 C968 1.403 . S
C971 C972 1.524 . S
C971 C975 1.400 . S
C972 H957 0.960 . S
C972 H958 0.960 . S
C972 H959 0.960 . S
C972 C971 1.524 . S
C973 C970 1.403 . S
C973 C974 1.392 . S
C973 C977 1.495 . S
C974 C973 1.392 . S
C974 C975 1.385 . S
C974 C976 1.478 . S
C975 H969 0.930 . S
C975 C971 1.400 . S
C975 C974 1.385 . S
C976 C974 1.478 . S
C976 C978 1.381 . S
C976 C982 1.383 . S
C977 C973 1.495 . S
C977 H983 0.959 . S
C977 H984 0.961 . S
C977 H985 0.960 . S
C978 C976 1.381 . S
C978 C979 1.394 . S
C978 H986 0.930 . S
C979 C978 1.394 . S
C979 C980 1.383 . S
C979 H987 0.929 . S
C980 C979 1.383 . S
C980 C981 1.377 . S
C981 H965 0.930 . S
C981 C980 1.377 . S
C981 C982 1.379 . S
C982 H966 0.931 . S
C982 C976 1.383 . S
C982 C981 1.379 . S
H983 C977 0.959 . S
H984 C977 0.961 . S
H985 C977 0.960 . S
H986 C978 0.930 . S
H987 C979 0.929 . S
H988 C996 0.929 . S
H989 C998 0.930 . S
H990 C1000 0.930 . S
H991 C1003 0.929 . S
H992 C1006 0.930 . S
H993 C1008 0.960 . S
H994 C1008 0.960 . S
H995 C1008 0.960 . S
C996 H988 0.929 . S
C996 C997 1.377 . S
C996 C998 1.384 . S
C997 C996 1.377 . S
C997 C1003 1.390 1_455 S
C998 H989 0.930 . S
C998 C996 1.384 . S
C998 C999 1.372 . S
C999 C998 1.372 . S
C999 C1000 1.400 1_455 S
C999 C1004 1.490 . S
C1000 H990 0.930 . S
C1000 C999 1.400 1_655 S
C1000 C1003 1.386 . S
H1001 C1017 0.930 . S
H1002 C1018 0.931 . S
C1003 H991 0.929 . S
C1003 C997 1.390 1_655 S
C1003 C1000 1.386 . S
C1004 C999 1.490 . S
C1004 C1006 1.395 . S
C1004 C1007 1.403 1_455 S
H1005 C1011 0.930 . S
C1006 H992 0.930 . S
C1006 C1004 1.395 . S
C1006 C1009 1.403 1_556 S
C1007 C1004 1.403 1_655 S
C1007 C1008 1.524 . S
C1007 C1011 1.400 1_556 S
C1008 H993 0.960 . S
C1008 H994 0.960 . S
C1008 H995 0.960 . S
C1008 C1007 1.524 . S
C1009 C1006 1.403 1_554 S
C1009 C1010 1.392 . S
C1009 C1013 1.495 . S
C1010 C1009 1.392 . S
C1010 C1011 1.385 1_455 S
C1010 C1012 1.478 . S
C1011 H1005 0.930 . S
C1011 C1007 1.400 1_554 S
C1011 C1010 1.385 1_655 S
C1012 C1010 1.478 . S
C1012 C1014 1.381 . S
C1012 C1018 1.383 1_455 S
C1013 C1009 1.495 . S
C1013 H1019 0.959 . S
C1013 H1020 0.961 . S
C1013 H1021 0.960 . S
C1014 C1012 1.381 . S
C1014 C1015 1.394 . S
C1014 H1022 0.930 . S
C1015 C1014 1.394 . S
C1015 C1016 1.367 1_455 S
C1015 H1023 0.929 . S
C1016 C1015 1.367 1_655 S
C1016 C1017 1.395 . S
C1017 H1001 0.930 . S
C1017 C1016 1.395 . S
C1017 C1018 1.379 . S
C1018 H1002 0.931 . S
C1018 C1012 1.383 1_655 S
C1018 C1017 1.379 . S
H1019 C1013 0.959 . S
H1020 C1013 0.961 . S
H1021 C1013 0.960 . S
H1022 C1014 0.930 . S
H1023 C1015 0.929 . S
C169 C18 1.500 . S
C188 C64 1.427 . S
C205 C4 1.042 . S
C224 C24 1.081 . S
C241 C38 1.497 . S
C260 C44 1.457 . S
C277 C58 1.945 . S
C296 C78 1.949 . S
C313 C19 1.498 . S
C332 C102 1.422 . S
C349 C2 1.040 . S
C368 C82 1.041 . S
C385 C99 1.501 . S
C404 C42 1.465 . S
C421 C119 1.944 . S
C440 C59 1.935 . S
C457 C138 1.496 . S
C476 C104 1.467 . S
C493 C84 1.041 . S
C512 C124 1.008 . S
C529 C144 1.450 . S
C548 C98 1.490 . S
C565 C118 1.942 . S
C584 C158 1.929 . S
C601 C62 1.442 . S
C620 C139 1.482 . S
C637 C122 1.052 . S
C656 C22 1.048 . S
C673 C39 1.500 . S
C692 C142 1.431 . S
C709 C79 1.945 . S
C728 C159 1.924 . S
C745 C12 1.494 1_545 S
C764 C9 1.501 1_565 S
C781 C32 1.485 . S
C800 C29 1.496 1_554 S
C817 C52 1.537 . S
C836 C49 1.544 . S
C853 C69 1.539 1_556 S
C872 C72 1.523 . S
C889 C92 1.486 1_556 S
C908 C89 1.461 . S
C925 C109 1.536 . S
C944 C112 1.519 1_554 S
C961 C129 1.490 . S
C980 C132 1.509 . S
C997 C149 1.541 . S
C1016 C152 1.547 . S
