# Generated by pormake.
# Topology unj, (4)-cn, num edge types: 1
# Building blocks:
#     Node 0, Type 0, BuildingBlock: CEKHIL_clean_sbu_0, # of connection points: 4
#     Node 1, Type 0, BuildingBlock: CEKHIL_clean_sbu_0, # of connection points: 4
#     Node 2, Type 0, BuildingBlock: CEKHIL_clean_sbu_0, # of connection points: 4
#     Node 3, Type 0, BuildingBlock: CEKHIL_clean_sbu_0, # of connection points: 4
#     Node 4, Type 0, BuildingBlock: CEKHIL_clean_sbu_0, # of connection points: 4
#     Node 5, Type 0, BuildingBlock: CEKHIL_clean_sbu_0, # of connection points: 4
#     Edge 6, Type (0, 0), BuildingBlock: CIFDUS_clean_linker_0, # of connection points: 2
#     Edge 7, Type (0, 0), BuildingBlock: CIFDUS_clean_linker_0, # of connection points: 2
#     Edge 8, Type (0, 0), BuildingBlock: CIFDUS_clean_linker_0, # of connection points: 2
#     Edge 9, Type (0, 0), BuildingBlock: CIFDUS_clean_linker_0, # of connection points: 2
#     Edge 10, Type (0, 0), BuildingBlock: CIFDUS_clean_linker_0, # of connection points: 2
#     Edge 11, Type (0, 0), BuildingBlock: CIFDUS_clean_linker_0, # of connection points: 2
#     Edge 12, Type (0, 0), BuildingBlock: CIFDUS_clean_linker_0, # of connection points: 2
#     Edge 13, Type (0, 0), BuildingBlock: CIFDUS_clean_linker_0, # of connection points: 2
#     Edge 14, Type (0, 0), BuildingBlock: CIFDUS_clean_linker_0, # of connection points: 2
#     Edge 15, Type (0, 0), BuildingBlock: CIFDUS_clean_linker_0, # of connection points: 2
#     Edge 16, Type (0, 0), BuildingBlock: CIFDUS_clean_linker_0, # of connection points: 2
#     Edge 17, Type (0, 0), BuildingBlock: CIFDUS_clean_linker_0, # of connection points: 2
# Relax obj value: 0.028
# Max RMSD: 0.080
# Mean RMSD: 0.080
data_MOF--net-unj--node1-CEKHIL_clean_sbu_0--edge1-CIFDUS_clean_linker_0
_symmetry_space_group_name_H-M    P1
_symmetry_Int_Tables_number       1
_symmetry_cell_setting            triclinic
loop_
_symmetry_equiv_pos_as_xyz
'x, y, z'
_cell_length_a     28.494756
_cell_length_b     28.454728
_cell_length_c     31.757116
_cell_angle_alpha  90.262084
_cell_angle_beta   89.644901
_cell_angle_gamma 120.19521
loop_
_atom_site_label
_atom_site_type_symbol
_atom_site_fract_x
_atom_site_fract_y
_atom_site_fract_z
_atom_type_partial_charge
Co0 Co 0.51214 0.27186 0.5865 0.0
O1 O 0.53175 0.34178 0.60991 0.0
O2 O 0.45001 0.26936 0.61506 0.0
C3 C 0.55293 0.30687 0.52367 0.0
O4 O 0.47527 0.19289 0.56477 0.0
Co5 Co 0.59936 0.24438 0.55494 0.0
O6 O 0.53692 0.17711 0.53313 0.0
C7 C 0.58064 0.24933 0.64649 0.0
C8 C 0.48189 0.3209 0.62266 0.0
C9 C 0.48819 0.16197 0.54379 0.0
O10 O 0.53767 0.25259 0.63983 0.0
O11 O 0.61181 0.24999 0.61701 0.0
O12 O 0.50384 0.29704 0.53093 0.0
O13 O 0.57568 0.29695 0.55449 0.0
Co14 Co 0.25598 0.50943 0.75086 0.0
O15 O 0.20528 0.52748 0.77556 0.0
O16 O 0.19706 0.44624 0.77909 0.0
C17 C 0.26072 0.55093 0.68883 0.0
O18 O 0.29886 0.47424 0.72764 0.0
Co19 Co 0.37029 0.59896 0.71999 0.0
O20 O 0.37548 0.53767 0.696 0.0
C21 C 0.34713 0.57799 0.8113 0.0
C22 C 0.17703 0.47738 0.7879 0.0
C23 C 0.34259 0.48845 0.70606 0.0
O24 O 0.30116 0.5346 0.80405 0.0
O25 O 0.37752 0.61022 0.78228 0.0
O26 O 0.22178 0.50139 0.69567 0.0
O27 O 0.29361 0.57374 0.71968 0.0
Co28 Co 0.76436 0.24403 0.91926 0.0
O29 O 0.69504 0.19288 0.94262 0.0
O30 O 0.7698 0.1893 0.95246 0.0
C31 C 0.73096 0.24074 0.85426 0.0
O32 O 0.84334 0.28887 0.89817 0.0
Co33 Co 0.78403 0.35329 0.88332 0.0
O34 O 0.85312 0.36138 0.86245 0.0
C35 C 0.78072 0.33805 0.97536 0.0
C36 C 0.7178 0.1677 0.95891 0.0
C37 C 0.87162 0.33149 0.87522 0.0
O38 O 0.77953 0.29249 0.9702 0.0
O39 O 0.77911 0.36636 0.94479 0.0
O40 O 0.74405 0.20509 0.86575 0.0
O41 O 0.73584 0.27537 0.88277 0.0
Co42 Co 0.53033 0.75538 0.08834 0.0
O43 O 0.51124 0.68571 0.11106 0.0
O44 O 0.58979 0.7607 0.12202 0.0
C45 C 0.50156 0.72299 0.02278 0.0
O46 O 0.56573 0.83452 0.06821 0.0
Co47 Co 0.44238 0.77624 0.05133 0.0
O48 O 0.50454 0.8456 0.03179 0.0
C49 C 0.45221 0.77219 0.14353 0.0
C50 C 0.55914 0.70852 0.12771 0.0
C51 C 0.55259 0.86343 0.0453 0.0
O52 O 0.49619 0.77021 0.13898 0.0
O53 O 0.42325 0.7713 0.11256 0.0
O54 O 0.54997 0.7357 0.03494 0.0
O55 O 0.47121 0.72752 0.05095 0.0
Co56 Co 0.78375 0.52158 0.25288 0.0
O57 O 0.83298 0.50251 0.27805 0.0
O58 O 0.83618 0.58091 0.28816 0.0
C59 C 0.79115 0.49353 0.18768 0.0
O60 O 0.74149 0.55711 0.23077 0.0
Co61 Co 0.67718 0.43418 0.2104 0.0
O62 O 0.67165 0.49702 0.19106 0.0
C63 C 0.68215 0.44539 0.30321 0.0
C64 C 0.85751 0.55053 0.29493 0.0
C65 C 0.70088 0.54453 0.20629 0.0
O66 O 0.73078 0.48674 0.30147 0.0
O67 O 0.65565 0.41805 0.27096 0.0
O68 O 0.82652 0.54182 0.20085 0.0
O69 O 0.75447 0.46301 0.21464 0.0
Co70 Co 0.27132 0.78056 0.41955 0.0
O71 O 0.34046 0.83014 0.44398 0.0
O72 O 0.26611 0.83448 0.45453 0.0
C73 C 0.3059 0.78622 0.35417 0.0
O74 O 0.19278 0.73776 0.39805 0.0
Co75 Co 0.25059 0.67268 0.37796 0.0
O76 O 0.18177 0.66648 0.35931 0.0
C77 C 0.24651 0.68022 0.47079 0.0
C78 C 0.31797 0.85552 0.46089 0.0
C79 C 0.16398 0.69621 0.37423 0.0
O80 O 0.25352 0.72866 0.46868 0.0
O81 O 0.24691 0.65306 0.43871 0.0
O82 O 0.29355 0.82207 0.36702 0.0
O83 O 0.29958 0.75011 0.38148 0.0
H84 H 0.50416 0.07739 0.53185 0.0
H85 H 0.37776 0.11851 0.53181 0.0
H86 H 0.31182 0.02555 0.50891 0.0
H87 H 0.29213 0.93367 0.48428 0.0
H88 H 0.42151 0.89633 0.48629 0.0
H89 H 0.48386 0.98647 0.51321 0.0
C90 C 0.46217 0.06624 0.52689 0.0
C91 C 0.44618 0.10522 0.53289 0.0
C92 C 0.42488 1.01314 0.51404 0.0
C93 C 0.39127 0.08943 0.52721 0.0
C94 C 0.35361 0.03628 0.51403 0.0
C95 C 0.33373 0.94509 0.49128 0.0
C96 C 0.35204 0.90814 0.48292 0.0
C97 C 0.37014 0.99786 0.50674 0.0
C98 C 0.40619 0.92376 0.49208 0.0
C99 C 0.44211 0.9755 0.50745 0.0
H100 H 0.37828 0.29376 0.64861 0.0
H101 H 0.54296 0.42824 0.63961 0.0
H102 H 0.51408 0.49026 0.66484 0.0
H103 H 0.44309 0.50808 0.68683 0.0
H104 H 0.27773 0.37658 0.69845 0.0
H105 H 0.3059 0.3118 0.67523 0.0
C106 C 0.40781 0.33653 0.65259 0.0
C107 C 0.46281 0.35613 0.64193 0.0
C108 C 0.39085 0.37268 0.66737 0.0
C109 C 0.50046 0.41176 0.64735 0.0
C110 C 0.484 0.44751 0.66175 0.0
C111 C 0.41288 0.46526 0.68424 0.0
C112 C 0.35816 0.44747 0.69382 0.0
C113 C 0.42937 0.42862 0.6713 0.0
C114 C 0.32008 0.39155 0.69108 0.0
C115 C 0.33622 0.35452 0.67774 0.0
H116 H 0.95101 0.43316 0.85683 0.0
H117 H 0.92119 0.26943 0.86812 0.0
H118 H 1.01425 0.29988 0.84369 0.0
H119 H 0.10307 0.37347 0.81521 0.0
H120 H 0.12935 0.5365 0.80634 0.0
H121 H 0.03889 0.50573 0.83369 0.0
C122 C 0.96466 0.40389 0.85403 0.0
C123 C 0.92882 0.34891 0.86374 0.0
C124 C 1.01779 0.42166 0.84023 0.0
C125 C 0.94783 0.31198 0.86073 0.0
C126 C 1.00101 0.3294 0.84661 0.0
C127 C 0.08908 0.40223 0.81966 0.0
C128 C 0.12316 0.45728 0.80835 0.0
C129 C 0.03626 0.38418 0.8357 0.0
C130 C 0.10429 0.49397 0.8145 0.0
C131 C 0.05234 0.47642 0.83014 0.0
H132 H 0.5333 0.94503 0.0302 0.0
H133 H 0.66385 0.91028 0.0371 0.0
H134 H 0.72849 1.00321 0.01343 0.0
H135 H 0.74601 0.09288 0.98585 0.0
H136 H 0.61253 0.12404 0.98118 0.0
H137 H 0.55131 0.03426 0.009 0.0
C138 C 0.57594 0.95766 0.02666 0.0
C139 C 0.59356 0.92052 0.03477 0.0
C140 C 0.61245 1.0107 0.0133 0.0
C141 C 0.64917 0.93806 0.03089 0.0
C142 C 0.68607 0.99113 0.01722 0.0
C143 C 0.70371 0.08017 0.9915 0.0
C144 C 0.68396 0.1152 0.98096 0.0
C145 C 0.668 0.02767 0.00764 0.0
C146 C 0.62897 0.09804 0.98857 0.0
C147 C 0.59369 0.04652 0.00449 0.0
H148 H 0.59953 0.52399 0.19234 0.0
H149 H 0.76486 0.65609 0.19982 0.0
H150 H 0.73556 0.72049 0.17887 0.0
H151 H 0.66251 0.7374 0.15358 0.0
H152 H 0.49775 0.60258 0.14852 0.0
H153 H 0.52731 0.54136 0.17365 0.0
C154 C 0.62931 0.56691 0.18944 0.0
C155 C 0.68438 0.58513 0.19686 0.0
C156 C 0.61217 0.60326 0.17781 0.0
C157 C 0.72221 0.64104 0.194 0.0
C158 C 0.70544 0.67777 0.18195 0.0
C159 C 0.63311 0.6948 0.15862 0.0
C160 C 0.57802 0.67463 0.14873 0.0
C161 C 0.65048 0.65918 0.17312 0.0
C162 C 0.54041 0.61929 0.15548 0.0
C163 C 0.55724 0.58404 0.16982 0.0
H164 H 0.08225 0.59401 0.36276 0.0
H165 H 0.1166 0.75979 0.36567 0.0
H166 H 0.02266 0.72933 0.34434 0.0
H167 H 0.93233 0.65502 0.31964 0.0
H168 H 0.90133 0.48996 0.31884 0.0
H169 H 0.99215 0.52075 0.34486 0.0
C170 C 0.06927 0.62363 0.35884 0.0
C171 C 0.10657 0.67916 0.36507 0.0
C172 C 1.01565 0.60585 0.34693 0.0
C173 C 0.08869 0.7168 0.36084 0.0
C174 C 0.03505 0.69936 0.34855 0.0
C175 C 0.94524 0.62581 0.32587 0.0
C176 C 0.91 0.57022 0.31689 0.0
C177 C 0.9983 0.64392 0.34081 0.0
C178 C 0.92748 0.53294 0.32511 0.0
C179 C 0.97959 0.55049 0.33994 0.0
H180 H 0.51978 0.34032 0.45529 0.0
H181 H 0.65641 0.33286 0.50521 0.0
H182 H 0.71068 0.38041 0.44362 0.0
H183 H 0.71909 0.42234 0.37419 0.0
H184 H 0.58122 0.42511 0.32229 0.0
H185 H 0.52829 0.38257 0.38603 0.0
C186 C 0.56132 0.3489 0.45254 0.0
C187 C 0.58381 0.33285 0.48473 0.0
C188 C 0.59247 0.37621 0.41682 0.0
C189 C 0.63787 0.34452 0.4808 0.0
C190 C 0.66917 0.372 0.44565 0.0
C191 C 0.67781 0.41444 0.37735 0.0
C192 C 0.6541 0.42721 0.34407 0.0
C193 C 0.64698 0.38809 0.41343 0.0
C194 C 0.60021 0.41578 0.34785 0.0
C195 C 0.56987 0.39118 0.38411 0.0
H196 H 0.30921 0.71743 0.54074 0.0
H197 H 0.16445 0.58041 0.49107 0.0
H198 H 0.15533 0.52755 0.55424 0.0
H199 H 0.19143 0.51854 0.62203 0.0
H200 H 0.33909 0.65427 0.67 0.0
H201 H 0.34466 0.7088 0.60919 0.0
C202 C 0.27517 0.67641 0.54433 0.0
C203 C 0.23718 0.6529 0.51179 0.0
C204 C 0.27134 0.64556 0.58007 0.0
C205 C 0.19389 0.59929 0.51609 0.0
C206 C 0.18889 0.56896 0.55199 0.0
C207 C 0.22491 0.55994 0.61903 0.0
C208 C 0.26485 0.58208 0.6504 0.0
C209 C 0.22798 0.59126 0.58384 0.0
C210 C 0.30785 0.636 0.6462 0.0
C211 C 0.311 0.66744 0.6115 0.0
H212 H 0.66588 0.28154 0.83341 0.0
H213 H 0.73804 0.19102 0.78346 0.0
H214 H 0.69405 0.1823 0.71583 0.0
H215 H 0.63744 0.2021 0.67065 0.0
H216 H 0.56288 0.29081 0.71946 0.0
H217 H 0.60424 0.29723 0.78845 0.0
C218 C 0.67215 0.26021 0.80758 0.0
C219 C 0.70569 0.2375 0.81314 0.0
C220 C 0.64577 0.25439 0.76898 0.0
C221 C 0.7127 0.20908 0.77979 0.0
C222 C 0.68742 0.20393 0.74121 0.0
C223 C 0.62986 0.22258 0.69644 0.0
C224 C 0.59752 0.24636 0.6899 0.0
C225 C 0.65408 0.22653 0.73549 0.0
C226 C 0.58739 0.27195 0.72379 0.0
C227 C 0.61149 0.27608 0.76305 0.0
H228 H 0.45107 0.6367 0.83651 0.0
H229 H 0.28666 0.5563 0.88388 0.0
H230 H 0.32006 0.59552 0.95387 0.0
H231 H 0.39624 0.65675 1.00032 0.0
H232 H 0.56026 0.73429 0.95214 0.0
H233 H 0.5266 0.69278 0.88322 0.0
C234 C 0.42246 0.62741 0.86221 0.0
C235 C 0.36644 0.59403 0.85499 0.0
C236 C 0.44187 0.65028 0.90191 0.0
C237 C 0.32998 0.58167 0.88872 0.0
C238 C 0.34905 0.60451 0.92857 0.0
C239 C 0.42448 0.66472 0.9746 0.0
C240 C 0.48061 0.69905 0.981 0.0
C241 C 0.40487 0.6397 0.93529 0.0
C242 C 0.51691 0.70826 0.9478 0.0
C243 C 0.49772 0.68443 0.90849 0.0
H244 H 0.82159 0.44293 0.99935 0.0
H245 H 0.74332 0.27934 0.04814 0.0
H246 H 0.73845 0.31314 0.11812 0.0
H247 H 0.75378 0.38901 0.16474 0.0
H248 H 0.83683 0.55293 0.11673 0.0
H249 H 0.84211 0.51914 0.04682 0.0
C250 C 0.80362 0.41466 0.02534 0.0
C251 C 0.78241 0.35866 0.01851 0.0
C252 C 0.80142 0.43441 0.06543 0.0
C253 C 0.76005 0.32264 0.05261 0.0
C254 C 0.75696 0.34191 0.09254 0.0
C255 C 0.77285 0.41724 0.13887 0.0
C256 C 0.79432 0.47328 0.14556 0.0
C257 C 0.77694 0.39763 0.09916 0.0
C258 C 0.81986 0.50961 0.11215 0.0
C259 C 0.8229 0.49031 0.07228 0.0
H260 H 0.37184 0.74735 0.33211 0.0
H261 H 0.29388 0.83171 0.28271 0.0
H262 H 0.33351 0.83586 0.2132 0.0
H263 H 0.38899 0.81413 0.16652 0.0
H264 H 0.4714 0.73451 0.21677 0.0
H265 H 0.43202 0.73063 0.28631 0.0
C266 C 0.3634 0.76644 0.30603 0.0
C267 C 0.32949 0.78861 0.31222 0.0
C268 C 0.38742 0.76987 0.26657 0.0
C269 C 0.31968 0.81419 0.27853 0.0
C270 C 0.34235 0.81658 0.23888 0.0
C271 C 0.39847 0.79604 0.19272 0.0
C272 C 0.43268 0.77419 0.18643 0.0
C273 C 0.37613 0.79442 0.23255 0.0
C274 C 0.44529 0.75171 0.22082 0.0
C275 C 0.42253 0.74919 0.26049 0.0
loop_
_geom_bond_atom_site_label_1
_geom_bond_atom_site_label_2
_geom_bond_distance
_geom_bond_site_symmetry_2
_ccdc_geom_bond_type
Co0 O1 2.216 . S
Co0 O2 2.091 . S
Co0 O4 2.004 . S
Co0 O10 2.021 . S
Co0 O12 2.137 . S
Co0 O13 2.244 . S
O1 Co0 2.216 . S
O1 C8 1.247 . S
O2 Co0 2.091 . S
O2 C8 1.261 . S
C3 O12 1.247 . S
C3 O13 1.272 . S
O4 Co0 2.004 . S
O4 C9 1.259 . S
Co5 O6 2.061 . S
Co5 O11 2.052 . S
Co5 O13 2.135 . S
O6 Co5 2.061 . S
O6 C9 1.235 . S
C7 O10 1.238 . S
C7 O11 1.241 . S
C8 O1 1.247 . S
C8 O2 1.261 . S
C9 O4 1.259 . S
C9 O6 1.235 . S
O10 Co0 2.021 . S
O10 C7 1.238 . S
O11 Co5 2.052 . S
O11 C7 1.241 . S
O12 Co0 2.137 . S
O12 C3 1.247 . S
O13 Co0 2.244 . S
O13 C3 1.272 . S
O13 Co5 2.135 . S
Co14 O15 2.216 . S
Co14 O16 2.091 . S
Co14 O18 2.004 . S
Co14 O24 2.021 . S
Co14 O26 2.137 . S
Co14 O27 2.244 . S
O15 Co14 2.216 . S
O15 C22 1.247 . S
O16 Co14 2.091 . S
O16 C22 1.261 . S
C17 O26 1.247 . S
C17 O27 1.272 . S
O18 Co14 2.004 . S
O18 C23 1.259 . S
Co19 O20 2.061 . S
Co19 O25 2.052 . S
Co19 O27 2.135 . S
O20 Co19 2.061 . S
O20 C23 1.235 . S
C21 O24 1.238 . S
C21 O25 1.241 . S
C22 O15 1.247 . S
C22 O16 1.261 . S
C23 O18 1.259 . S
C23 O20 1.235 . S
O24 Co14 2.021 . S
O24 C21 1.238 . S
O25 Co19 2.052 . S
O25 C21 1.241 . S
O26 Co14 2.137 . S
O26 C17 1.247 . S
O27 Co14 2.244 . S
O27 C17 1.272 . S
O27 Co19 2.135 . S
Co28 O29 2.216 . S
Co28 O30 2.091 . S
Co28 O32 2.004 . S
Co28 O38 2.021 . S
Co28 O40 2.137 . S
Co28 O41 2.244 . S
O29 Co28 2.216 . S
O29 C36 1.247 . S
O30 Co28 2.091 . S
O30 C36 1.261 . S
C31 O40 1.247 . S
C31 O41 1.272 . S
O32 Co28 2.004 . S
O32 C37 1.259 . S
Co33 O34 2.061 . S
Co33 O39 2.052 . S
Co33 O41 2.135 . S
O34 Co33 2.061 . S
O34 C37 1.235 . S
C35 O38 1.238 . S
C35 O39 1.241 . S
C36 O29 1.247 . S
C36 O30 1.261 . S
C37 O32 1.259 . S
C37 O34 1.235 . S
O38 Co28 2.021 . S
O38 C35 1.238 . S
O39 Co33 2.052 . S
O39 C35 1.241 . S
O40 Co28 2.137 . S
O40 C31 1.247 . S
O41 Co28 2.244 . S
O41 C31 1.272 . S
O41 Co33 2.135 . S
Co42 O43 2.216 . S
Co42 O44 2.091 . S
Co42 O46 2.004 . S
Co42 O52 2.021 . S
Co42 O54 2.137 . S
Co42 O55 2.244 . S
O43 Co42 2.216 . S
O43 C50 1.247 . S
O44 Co42 2.091 . S
O44 C50 1.261 . S
C45 O54 1.247 . S
C45 O55 1.272 . S
O46 Co42 2.004 . S
O46 C51 1.259 . S
Co47 O48 2.061 . S
Co47 O53 2.052 . S
Co47 O55 2.135 . S
O48 Co47 2.061 . S
O48 C51 1.235 . S
C49 O52 1.238 . S
C49 O53 1.241 . S
C50 O43 1.247 . S
C50 O44 1.261 . S
C51 O46 1.259 . S
C51 O48 1.235 . S
O52 Co42 2.021 . S
O52 C49 1.238 . S
O53 Co47 2.052 . S
O53 C49 1.241 . S
O54 Co42 2.137 . S
O54 C45 1.247 . S
O55 Co42 2.244 . S
O55 C45 1.272 . S
O55 Co47 2.135 . S
Co56 O57 2.216 . S
Co56 O58 2.091 . S
Co56 O60 2.004 . S
Co56 O66 2.021 . S
Co56 O68 2.137 . S
Co56 O69 2.244 . S
O57 Co56 2.216 . S
O57 C64 1.247 . S
O58 Co56 2.091 . S
O58 C64 1.261 . S
C59 O68 1.247 . S
C59 O69 1.272 . S
O60 Co56 2.004 . S
O60 C65 1.259 . S
Co61 O62 2.061 . S
Co61 O67 2.052 . S
Co61 O69 2.135 . S
O62 Co61 2.061 . S
O62 C65 1.235 . S
C63 O66 1.238 . S
C63 O67 1.241 . S
C64 O57 1.247 . S
C64 O58 1.261 . S
C65 O60 1.259 . S
C65 O62 1.235 . S
O66 Co56 2.021 . S
O66 C63 1.238 . S
O67 Co61 2.052 . S
O67 C63 1.241 . S
O68 Co56 2.137 . S
O68 C59 1.247 . S
O69 Co56 2.244 . S
O69 C59 1.272 . S
O69 Co61 2.135 . S
Co70 O71 2.216 . S
Co70 O72 2.091 . S
Co70 O74 2.004 . S
Co70 O80 2.021 . S
Co70 O82 2.137 . S
Co70 O83 2.244 . S
O71 Co70 2.216 . S
O71 C78 1.247 . S
O72 Co70 2.091 . S
O72 C78 1.261 . S
C73 O82 1.247 . S
C73 O83 1.272 . S
O74 Co70 2.004 . S
O74 C79 1.259 . S
Co75 O76 2.061 . S
Co75 O81 2.052 . S
Co75 O83 2.135 . S
O76 Co75 2.061 . S
O76 C79 1.235 . S
C77 O80 1.238 . S
C77 O81 1.241 . S
C78 O71 1.247 . S
C78 O72 1.261 . S
C79 O74 1.259 . S
C79 O76 1.235 . S
O80 Co70 2.021 . S
O80 C77 1.238 . S
O81 Co75 2.052 . S
O81 C77 1.241 . S
O82 Co70 2.137 . S
O82 C73 1.247 . S
O83 Co70 2.244 . S
O83 C73 1.272 . S
O83 Co75 2.135 . S
H84 C90 0.930 . S
H85 C93 0.930 . S
H86 C94 0.930 1_565 S
H87 C95 0.930 . S
H88 C98 0.930 . S
H89 C99 0.930 . S
C90 H84 0.930 . S
C90 C91 1.355 . S
C90 C92 1.415 . S
C91 C90 1.355 . S
C91 C93 1.419 . S
C92 C90 1.415 . S
C92 C97 1.425 1_545 S
C92 C99 1.409 . S
C93 H85 0.930 . S
C93 C91 1.419 . S
C93 C94 1.362 . S
C94 H86 0.930 1_545 S
C94 C93 1.362 . S
C94 C97 1.409 1_545 S
C95 H87 0.930 . S
C95 C96 1.355 . S
C95 C97 1.415 . S
C96 C95 1.355 . S
C96 C98 1.419 . S
C97 C92 1.425 1_565 S
C97 C94 1.409 1_565 S
C97 C95 1.415 . S
C98 H88 0.930 . S
C98 C96 1.419 . S
C98 C99 1.362 1_565 S
C99 H89 0.930 . S
C99 C92 1.409 . S
C99 C98 1.362 1_545 S
H100 C106 0.930 . S
H101 C109 0.930 . S
H102 C110 0.930 . S
H103 C111 0.930 . S
H104 C114 0.930 . S
H105 C115 0.930 . S
C106 H100 0.930 . S
C106 C107 1.355 . S
C106 C108 1.415 . S
C107 C106 1.355 . S
C107 C109 1.419 . S
C108 C106 1.415 . S
C108 C113 1.425 . S
C108 C115 1.409 . S
C109 H101 0.930 . S
C109 C107 1.419 . S
C109 C110 1.362 . S
C110 H102 0.930 . S
C110 C109 1.362 . S
C110 C113 1.409 . S
C111 H103 0.930 . S
C111 C112 1.355 . S
C111 C113 1.415 . S
C112 C111 1.355 . S
C112 C114 1.419 . S
C113 C108 1.425 . S
C113 C110 1.409 . S
C113 C111 1.415 . S
C114 H104 0.930 . S
C114 C112 1.419 . S
C114 C115 1.362 . S
C115 H105 0.930 . S
C115 C108 1.409 . S
C115 C114 1.362 . S
H116 C122 0.930 . S
H117 C125 0.930 . S
H118 C126 0.930 1_455 S
H119 C127 0.930 . S
H120 C130 0.930 . S
H121 C131 0.930 1_655 S
C122 H116 0.930 . S
C122 C123 1.355 . S
C122 C124 1.415 . S
C123 C122 1.355 . S
C123 C125 1.419 . S
C124 C122 1.415 . S
C124 C129 1.425 1_655 S
C124 C131 1.409 1_655 S
C125 H117 0.930 . S
C125 C123 1.419 . S
C125 C126 1.362 . S
C126 H118 0.930 1_655 S
C126 C125 1.362 . S
C126 C129 1.409 1_655 S
C127 H119 0.930 . S
C127 C128 1.355 . S
C127 C129 1.415 . S
C128 C127 1.355 . S
C128 C130 1.419 . S
C129 C124 1.425 1_455 S
C129 C126 1.409 1_455 S
C129 C127 1.415 . S
C130 H120 0.930 . S
C130 C128 1.419 . S
C130 C131 1.362 . S
C131 H121 0.930 1_455 S
C131 C124 1.409 1_455 S
C131 C130 1.362 . S
H132 C138 0.922 1_556 S
H133 C141 0.930 . S
H134 C142 0.930 1_545 S
H135 C143 0.930 1_554 S
H136 C146 0.930 . S
H137 C147 0.930 1_565 S
C138 H132 0.922 1_554 S
C138 C139 1.355 . S
C138 C140 1.415 1_554 S
C139 C138 1.355 . S
C139 C141 1.419 . S
C140 C138 1.415 1_556 S
C140 C145 1.425 1_566 S
C140 C147 1.409 1_565 S
C141 H133 0.930 . S
C141 C139 1.419 . S
C141 C142 1.362 . S
C142 H134 0.930 1_565 S
C142 C141 1.362 . S
C142 C145 1.409 1_565 S
C143 H135 0.930 1_556 S
C143 C144 1.355 . S
C143 C145 1.415 1_556 S
C144 C143 1.355 . S
C144 C146 1.419 . S
C145 C140 1.425 1_544 S
C145 C142 1.409 1_545 S
C145 C143 1.415 1_554 S
C146 H136 0.930 . S
C146 C144 1.419 . S
C146 C147 1.362 . S
C147 H137 0.930 1_545 S
C147 C140 1.409 1_545 S
C147 C146 1.362 . S
H148 C154 0.930 . S
H149 C157 0.930 . S
H150 C158 0.930 . S
H151 C159 0.930 . S
H152 C162 0.930 . S
H153 C163 0.930 . S
C154 H148 0.930 . S
C154 C155 1.355 . S
C154 C156 1.415 . S
C155 C154 1.355 . S
C155 C157 1.419 . S
C156 C154 1.415 . S
C156 C161 1.425 . S
C156 C163 1.409 . S
C157 H149 0.930 . S
C157 C155 1.419 . S
C157 C158 1.362 . S
C158 H150 0.930 . S
C158 C157 1.362 . S
C158 C161 1.409 . S
C159 H151 0.930 . S
C159 C160 1.355 . S
C159 C161 1.415 . S
C160 C159 1.355 . S
C160 C162 1.419 . S
C161 C156 1.425 . S
C161 C158 1.409 . S
C161 C159 1.415 . S
C162 H152 0.930 . S
C162 C160 1.419 . S
C162 C163 1.362 . S
C163 H153 0.930 . S
C163 C156 1.409 . S
C163 C162 1.362 . S
H164 C170 0.930 . S
H165 C173 0.930 . S
H166 C174 0.930 . S
H167 C175 0.930 . S
H168 C178 0.930 . S
H169 C179 0.925 1_455 S
C170 H164 0.930 . S
C170 C171 1.355 . S
C170 C172 1.415 . S
C171 C170 1.355 . S
C171 C173 1.419 . S
C172 C170 1.415 . S
C172 C177 1.425 1_455 S
C172 C179 1.409 1_455 S
C173 H165 0.930 . S
C173 C171 1.419 . S
C173 C174 1.362 . S
C174 H166 0.930 . S
C174 C173 1.362 . S
C174 C177 1.409 1_455 S
C175 H167 0.930 . S
C175 C176 1.355 . S
C175 C177 1.415 . S
C176 C175 1.355 . S
C176 C178 1.419 . S
C177 C172 1.425 1_655 S
C177 C174 1.409 1_655 S
C177 C175 1.415 . S
C178 H168 0.930 . S
C178 C176 1.419 . S
C178 C179 1.362 . S
C179 H169 0.925 1_655 S
C179 C172 1.409 1_655 S
C179 C178 1.362 . S
H180 C186 0.930 . S
H181 C189 0.930 . S
H182 C190 0.930 . S
H183 C191 0.930 . S
H184 C194 0.930 . S
H185 C195 0.930 . S
C186 H180 0.930 . S
C186 C187 1.355 . S
C186 C188 1.415 . S
C187 C186 1.355 . S
C187 C189 1.419 . S
C188 C186 1.415 . S
C188 C193 1.425 . S
C188 C195 1.409 . S
C189 H181 0.930 . S
C189 C187 1.419 . S
C189 C190 1.362 . S
C190 H182 0.930 . S
C190 C189 1.362 . S
C190 C193 1.409 . S
C191 H183 0.930 . S
C191 C192 1.355 . S
C191 C193 1.415 . S
C192 C191 1.355 . S
C192 C194 1.419 . S
C193 C188 1.425 . S
C193 C190 1.409 . S
C193 C191 1.415 . S
C194 H184 0.930 . S
C194 C192 1.419 . S
C194 C195 1.362 . S
C195 H185 0.930 . S
C195 C188 1.409 . S
C195 C194 1.362 . S
H196 C202 0.930 . S
H197 C205 0.930 . S
H198 C206 0.930 . S
H199 C207 0.930 . S
H200 C210 0.930 . S
H201 C211 0.930 . S
C202 H196 0.930 . S
C202 C203 1.355 . S
C202 C204 1.415 . S
C203 C202 1.355 . S
C203 C205 1.419 . S
C204 C202 1.415 . S
C204 C209 1.425 . S
C204 C211 1.409 . S
C205 H197 0.930 . S
C205 C203 1.419 . S
C205 C206 1.362 . S
C206 H198 0.930 . S
C206 C205 1.362 . S
C206 C209 1.409 . S
C207 H199 0.930 . S
C207 C208 1.355 . S
C207 C209 1.415 . S
C208 C207 1.355 . S
C208 C210 1.419 . S
C209 C204 1.425 . S
C209 C206 1.409 . S
C209 C207 1.415 . S
C210 H200 0.930 . S
C210 C208 1.419 . S
C210 C211 1.362 . S
C211 H201 0.930 . S
C211 C204 1.409 . S
C211 C210 1.362 . S
H212 C218 0.930 . S
H213 C221 0.930 . S
H214 C222 0.930 . S
H215 C223 0.930 . S
H216 C226 0.930 . S
H217 C227 0.930 . S
C218 H212 0.930 . S
C218 C219 1.355 . S
C218 C220 1.415 . S
C219 C218 1.355 . S
C219 C221 1.419 . S
C220 C218 1.415 . S
C220 C225 1.425 . S
C220 C227 1.409 . S
C221 H213 0.930 . S
C221 C219 1.419 . S
C221 C222 1.362 . S
C222 H214 0.930 . S
C222 C221 1.362 . S
C222 C225 1.409 . S
C223 H215 0.930 . S
C223 C224 1.355 . S
C223 C225 1.415 . S
C224 C223 1.355 . S
C224 C226 1.419 . S
C225 C220 1.425 . S
C225 C222 1.409 . S
C225 C223 1.415 . S
C226 H216 0.930 . S
C226 C224 1.419 . S
C226 C227 1.362 . S
C227 H217 0.930 . S
C227 C220 1.409 . S
C227 C226 1.362 . S
H228 C234 0.930 . S
H229 C237 0.930 . S
H230 C238 0.930 . S
H231 C239 0.930 . S
H232 C242 0.930 . S
H233 C243 0.930 . S
C234 H228 0.930 . S
C234 C235 1.355 . S
C234 C236 1.415 . S
C235 C234 1.355 . S
C235 C237 1.419 . S
C236 C234 1.415 . S
C236 C241 1.425 . S
C236 C243 1.409 . S
C237 H229 0.930 . S
C237 C235 1.419 . S
C237 C238 1.362 . S
C238 H230 0.930 . S
C238 C237 1.362 . S
C238 C241 1.409 . S
C239 H231 0.930 . S
C239 C240 1.355 . S
C239 C241 1.415 . S
C240 C239 1.355 . S
C240 C242 1.419 . S
C241 C236 1.425 . S
C241 C238 1.409 . S
C241 C239 1.415 . S
C242 H232 0.930 . S
C242 C240 1.419 . S
C242 C243 1.362 . S
C243 H233 0.930 . S
C243 C236 1.409 . S
C243 C242 1.362 . S
H244 C250 0.953 . S
H245 C253 0.930 . S
H246 C254 0.930 . S
H247 C255 0.930 . S
H248 C258 0.930 . S
H249 C259 0.930 . S
C250 H244 0.953 . S
C250 C251 1.355 . S
C250 C252 1.415 . S
C251 C250 1.355 . S
C251 C253 1.419 . S
C252 C250 1.415 . S
C252 C257 1.425 . S
C252 C259 1.409 . S
C253 H245 0.930 . S
C253 C251 1.419 . S
C253 C254 1.362 . S
C254 H246 0.930 . S
C254 C253 1.362 . S
C254 C257 1.409 . S
C255 H247 0.930 . S
C255 C256 1.355 . S
C255 C257 1.415 . S
C256 C255 1.355 . S
C256 C258 1.419 . S
C257 C252 1.425 . S
C257 C254 1.409 . S
C257 C255 1.415 . S
C258 H248 0.930 . S
C258 C256 1.419 . S
C258 C259 1.362 . S
C259 H249 0.930 . S
C259 C252 1.409 . S
C259 C258 1.362 . S
H260 C266 0.930 . S
H261 C269 0.930 . S
H262 C270 0.930 . S
H263 C271 0.930 . S
H264 C274 0.930 . S
H265 C275 0.930 . S
C266 H260 0.930 . S
C266 C267 1.355 . S
C266 C268 1.415 . S
C267 C266 1.355 . S
C267 C269 1.419 . S
C268 C266 1.415 . S
C268 C273 1.425 . S
C268 C275 1.409 . S
C269 H261 0.930 . S
C269 C267 1.419 . S
C269 C270 1.362 . S
C270 H262 0.930 . S
C270 C269 1.362 . S
C270 C273 1.409 . S
C271 H263 0.930 . S
C271 C272 1.355 . S
C271 C273 1.415 . S
C272 C271 1.355 . S
C272 C274 1.419 . S
C273 C268 1.425 . S
C273 C270 1.409 . S
C273 C271 1.415 . S
C274 H264 0.930 . S
C274 C272 1.419 . S
C274 C275 1.362 . S
C275 H265 0.930 . S
C275 C268 1.409 . S
C275 C274 1.362 . S
C91 C9 1.603 . S
C96 C78 1.602 . S
C107 C8 1.597 . S
C112 C23 1.599 . S
C123 C37 1.602 . S
C128 C22 1.604 . S
C139 C51 1.602 . S
C144 C36 1.604 . S
C155 C65 1.596 . S
C160 C50 1.604 . S
C171 C79 1.599 . S
C176 C64 1.605 . S
C187 C3 1.459 . S
C192 C63 1.404 . S
C203 C77 1.399 . S
C208 C17 1.458 . S
C219 C31 1.456 . S
C224 C7 1.449 . S
C235 C21 1.455 . S
C240 C45 1.457 1_556 S
C251 C35 1.451 1_554 S
C256 C59 1.457 . S
C267 C73 1.456 . S
C272 C49 1.448 . S
