# Generated by pormake.
# Topology mmt, (4)-cn, num edge types: 1
# Building blocks:
#     Node 0, Type 0, BuildingBlock: ICAMEG_clean_sbu_1, # of connection points: 4
#     Node 1, Type 0, BuildingBlock: ICAMEG_clean_sbu_1, # of connection points: 4
#     Node 2, Type 0, BuildingBlock: ICAMEG_clean_sbu_1, # of connection points: 4
#     Node 3, Type 0, BuildingBlock: ICAMEG_clean_sbu_1, # of connection points: 4
#     Node 4, Type 0, BuildingBlock: ICAMEG_clean_sbu_1, # of connection points: 4
#     Node 5, Type 0, BuildingBlock: ICAMEG_clean_sbu_1, # of connection points: 4
#     Node 6, Type 0, BuildingBlock: ICAMEG_clean_sbu_1, # of connection points: 4
#     Node 7, Type 0, BuildingBlock: ICAMEG_clean_sbu_1, # of connection points: 4
#     Edge 8, Type (0, 0), BuildingBlock: UVAHIK_clean_linker_0, # of connection points: 2
#     Edge 9, Type (0, 0), BuildingBlock: UVAHIK_clean_linker_0, # of connection points: 2
#     Edge 10, Type (0, 0), BuildingBlock: UVAHIK_clean_linker_0, # of connection points: 2
#     Edge 11, Type (0, 0), BuildingBlock: UVAHIK_clean_linker_0, # of connection points: 2
#     Edge 12, Type (0, 0), BuildingBlock: UVAHIK_clean_linker_0, # of connection points: 2
#     Edge 13, Type (0, 0), BuildingBlock: UVAHIK_clean_linker_0, # of connection points: 2
#     Edge 14, Type (0, 0), BuildingBlock: UVAHIK_clean_linker_0, # of connection points: 2
#     Edge 15, Type (0, 0), BuildingBlock: UVAHIK_clean_linker_0, # of connection points: 2
#     Edge 16, Type (0, 0), BuildingBlock: UVAHIK_clean_linker_0, # of connection points: 2
#     Edge 17, Type (0, 0), BuildingBlock: UVAHIK_clean_linker_0, # of connection points: 2
#     Edge 18, Type (0, 0), BuildingBlock: UVAHIK_clean_linker_0, # of connection points: 2
#     Edge 19, Type (0, 0), BuildingBlock: UVAHIK_clean_linker_0, # of connection points: 2
#     Edge 20, Type (0, 0), BuildingBlock: UVAHIK_clean_linker_0, # of connection points: 2
#     Edge 21, Type (0, 0), BuildingBlock: UVAHIK_clean_linker_0, # of connection points: 2
#     Edge 22, Type (0, 0), BuildingBlock: UVAHIK_clean_linker_0, # of connection points: 2
#     Edge 23, Type (0, 0), BuildingBlock: UVAHIK_clean_linker_0, # of connection points: 2
# Relax obj value: 0.086
# Max RMSD: 0.130
# Mean RMSD: 0.130
data_MOF--net-mmt--node1-ICAMEG_clean_sbu_1--edge1-UVAHIK_clean_linker_0
_symmetry_space_group_name_H-M    P1
_symmetry_Int_Tables_number       1
_symmetry_cell_setting            triclinic
loop_
_symmetry_equiv_pos_as_xyz
'x, y, z'
_cell_length_a     30.475212
_cell_length_b     53.723533
_cell_length_c     54.144871
_cell_angle_alpha  90.041202
_cell_angle_beta   89.938526
_cell_angle_gamma 89.996624
loop_
_atom_site_label
_atom_site_type_symbol
_atom_site_fract_x
_atom_site_fract_y
_atom_site_fract_z
_atom_type_partial_charge
Co0 Co 0.18764 0.55018 0.35556 0.0
Co1 Co 0.1174 0.59975 0.35575 0.0
O2 O 0.17594 0.58562 0.3506 0.0
C3 C 0.22913 0.55694 0.3058 0.0
O4 O 0.19124 0.56407 0.29669 0.0
C5 C 0.17685 0.63494 0.38209 0.0
O6 O 0.19848 0.6158 0.39092 0.0
O7 O 0.11579 0.58629 0.38999 0.0
O8 O 0.14407 0.54836 0.38328 0.0
H9 H 0.96025 0.59855 0.38397 0.0
H10 H 0.26224 0.58563 0.35522 0.0
O11 O 0.2325 0.55107 0.32848 0.0
H12 H 0.26779 0.54487 0.43672 0.0
H13 H 0.28427 0.47432 0.36104 0.0
H14 H 0.1323 0.50567 0.36453 0.0
H15 H 0.21071 0.53348 0.40654 0.0
H16 H 0.26881 0.51905 0.35573 0.0
O17 O 0.14396 0.63161 0.36799 0.0
H18 H 0.03377 0.58085 0.37667 0.0
H19 H 0.0773 0.64957 0.34662 0.0
H20 H 0.14634 0.46083 0.37014 0.0
H21 H 0.32027 0.59734 0.38472 0.0
H22 H 0.22279 0.44488 0.36841 0.0
H23 H 0.3232 0.57697 0.42586 0.0
O24 O 0.14026 0.54132 0.33159 0.0
H25 H 0.18715 0.6428 0.28335 0.0
H26 H 0.05521 0.59894 0.31317 0.0
H27 H 0.05789 0.61396 0.27017 0.0
H28 H 0.12418 0.63612 0.25501 0.0
H29 H 0.18322 0.6273 0.32617 0.0
H30 H 1.00432 0.66808 0.35377 0.0
H31 H 0.94513 0.64248 0.37249 0.0
O32 O 0.0886 0.56861 0.34347 0.0
C33 C 0.12239 0.56376 0.39649 0.0
C34 C 0.98572 0.60988 0.37573 0.0
C35 C 0.01048 0.64891 0.35881 0.0
N36 N 0.05972 0.61409 0.36107 0.0
C37 C 0.0274 0.59993 0.37149 0.0
C38 C 0.05177 0.63834 0.35486 0.0
C39 C 0.97728 0.63453 0.36931 0.0
C40 C 0.26355 0.5765 0.37298 0.0
N41 N 0.23312 0.55887 0.37912 0.0
C42 C 0.29638 0.58329 0.38966 0.0
C43 C 0.29796 0.57188 0.41275 0.0
C44 C 0.26685 0.5539 0.41887 0.0
C45 C 0.23447 0.5476 0.40173 0.0
C46 C 0.25082 0.48105 0.36187 0.0
C47 C 0.16568 0.4989 0.36386 0.0
C48 C 0.24184 0.50635 0.35881 0.0
N49 N 0.19969 0.515 0.35997 0.0
C50 C 0.17341 0.47348 0.367 0.0
C51 C 0.21631 0.46454 0.36601 0.0
C52 C 0.10055 0.54888 0.33219 0.0
C53 C 0.15802 0.63325 0.28976 0.0
C54 C 0.08421 0.60853 0.30671 0.0
C55 C 0.0855 0.61703 0.28235 0.0
C56 C 0.1227 0.62946 0.27386 0.0
N57 N 0.11893 0.6124 0.32221 0.0
C58 C 0.15555 0.62451 0.31401 0.0
Co59 Co 0.33014 0.97069 0.3555 0.0
Co60 Co 0.39448 0.91814 0.35419 0.0
O61 O 0.33746 0.93473 0.35098 0.0
C62 C 0.28457 0.96208 0.30743 0.0
O63 O 0.31911 0.94997 0.29927 0.0
C64 C 0.33345 0.88649 0.38399 0.0
O65 O 0.31369 0.90662 0.39205 0.0
O66 O 0.40335 0.93305 0.38763 0.0
O67 O 0.37491 0.97118 0.38234 0.0
H68 H 0.55519 0.91385 0.37437 0.0
H69 H 0.25148 0.93821 0.35657 0.0
O70 O 0.2844 0.97131 0.32907 0.0
H71 H 0.25455 0.97967 0.43783 0.0
H72 H 0.24279 0.05005 0.36177 0.0
H73 H 0.39093 0.01314 0.36291 0.0
H74 H 0.31142 0.98864 0.40668 0.0
H75 H 0.25276 1.00477 0.35683 0.0
O76 O 0.36596 0.88816 0.36931 0.0
H77 H 0.48325 0.93433 0.36974 0.0
H78 H 0.4264 0.86621 0.346 0.0
H79 H 0.38242 0.05849 0.3681 0.0
H80 H 0.19356 0.92897 0.38706 0.0
H81 H 0.30791 0.07723 0.36755 0.0
H82 H 0.19497 0.9497 0.42807 0.0
O83 O 0.37708 0.97771 0.3307 0.0
H84 H 0.30753 0.87497 0.28804 0.0
H85 H 0.44983 0.91318 0.30884 0.0
H86 H 0.43824 0.89607 0.2671 0.0
H87 H 0.36666 0.87673 0.25649 0.0
H88 H 0.32042 0.89257 0.32949 0.0
H89 H 0.49765 0.84495 0.35058 0.0
H90 H 0.56272 0.86883 0.36476 0.0
O91 O 0.4251 0.94714 0.33877 0.0
C92 C 0.39781 0.95558 0.39451 0.0
C93 C 0.52711 0.90326 0.36811 0.0
C94 C 0.4948 0.86458 0.35479 0.0
N95 N 0.45072 0.90153 0.35746 0.0
C96 C 0.48631 0.91477 0.3654 0.0
C97 C 0.45451 0.87671 0.3523 0.0
C98 C 0.5313 0.87799 0.36274 0.0
C99 C 0.25207 0.9475 0.37428 0.0
N100 N 0.28482 0.96395 0.37982 0.0
C101 C 0.21929 0.94211 0.39151 0.0
C102 C 0.22015 0.95371 0.41454 0.0
C103 C 0.25361 0.9705 0.42004 0.0
C104 C 0.28586 0.97542 0.40236 0.0
C105 C 0.27542 0.0421 0.36207 0.0
C106 C 0.35839 0.02113 0.36276 0.0
C107 C 0.28129 0.01647 0.35921 0.0
N108 N 0.32239 1.00629 0.3597 0.0
C109 C 0.35378 0.04684 0.36565 0.0
C110 C 0.31197 0.05734 0.36532 0.0
C111 C 0.415 0.96781 0.32866 0.0
C112 C 0.33889 0.88331 0.29246 0.0
C113 C 0.41854 0.90495 0.30433 0.0
C114 C 0.41221 0.8952 0.28069 0.0
C115 C 0.37206 0.88433 0.27475 0.0
N116 N 0.38588 0.90386 0.32161 0.0
C117 C 0.34643 0.89323 0.31592 0.0
Co118 Co 0.68882 0.47124 0.14448 0.0
Co119 Co 0.61845 0.42177 0.14334 0.0
O120 O 0.67685 0.4358 0.14901 0.0
C121 C 0.72929 0.46394 0.19441 0.0
O122 O 0.69116 0.45696 0.20336 0.0
C123 C 0.67822 0.38719 0.11657 0.0
O124 O 0.69861 0.40664 0.10744 0.0
O125 O 0.6176 0.43566 0.10925 0.0
O126 O 0.64593 0.47347 0.11652 0.0
H127 H 0.46194 0.42328 0.11424 0.0
H128 H 0.76292 0.43547 0.14481 0.0
O129 O 0.73308 0.46995 0.17178 0.0
H130 H 0.7709 0.47726 0.06387 0.0
H131 H 0.78597 0.54697 0.14039 0.0
H132 H 0.63392 0.51595 0.13569 0.0
H133 H 0.71337 0.48857 0.09389 0.0
H134 H 0.77015 0.50221 0.14512 0.0
O135 O 0.64552 0.39009 0.13094 0.0
H136 H 0.53526 0.44092 0.1222 0.0
H137 H 0.57826 0.37181 0.15156 0.0
H138 H 0.64833 0.56082 0.13065 0.0
H139 H 0.82135 0.4238 0.11546 0.0
H140 H 0.72482 0.5766 0.13299 0.0
H141 H 0.8255 0.4447 0.07461 0.0
O142 O 0.6409 0.47988 0.16827 0.0
H143 H 0.68647 0.37781 0.21566 0.0
H144 H 0.55525 0.42204 0.18551 0.0
H145 H 0.55686 0.40647 0.22834 0.0
H146 H 0.62279 0.38412 0.24365 0.0
H147 H 0.6836 0.39387 0.17302 0.0
H148 H 0.50548 0.35336 0.14374 0.0
H149 H 0.44665 0.37919 0.12503 0.0
O150 O 0.58939 0.45277 0.15583 0.0
C151 C 0.62455 0.45823 0.10301 0.0
C152 C 0.48725 0.41186 0.12247 0.0
C153 C 0.51171 0.37261 0.13899 0.0
N154 N 0.56093 0.40747 0.13749 0.0
C155 C 0.52881 0.42176 0.12708 0.0
C156 C 0.55289 0.38314 0.14332 0.0
C157 C 0.47871 0.38711 0.1285 0.0
C158 C 0.76476 0.44482 0.12717 0.0
N159 N 0.73477 0.46271 0.1211 0.0
C160 C 0.79782 0.43806 0.11058 0.0
C161 C 0.80008 0.44976 0.08766 0.0
C162 C 0.76942 0.46801 0.08161 0.0
C163 C 0.7368 0.47427 0.09865 0.0
C164 C 0.75251 0.54032 0.1393 0.0
C165 C 0.66731 0.52265 0.13662 0.0
C166 C 0.74332 0.515 0.14203 0.0
N167 N 0.70116 0.50644 0.14054 0.0
C168 C 0.67526 0.54809 0.13381 0.0
C169 C 0.71819 0.55693 0.13514 0.0
C170 C 0.60119 0.47234 0.16742 0.0
C171 C 0.6575 0.38745 0.20918 0.0
C172 C 0.58409 0.41237 0.19205 0.0
C173 C 0.58478 0.40356 0.21631 0.0
C174 C 0.62178 0.39102 0.22488 0.0
N175 N 0.6192 0.40872 0.17673 0.0
C176 C 0.65563 0.3965 0.18503 0.0
Co177 Co 0.83072 0.05104 0.14604 0.0
Co178 Co 0.89827 0.10236 0.14308 0.0
O179 O 0.84065 0.08706 0.14943 0.0
C180 C 0.77705 0.06676 0.19077 0.0
O181 O 0.79252 0.08951 0.19001 0.0
C182 C 0.83481 0.13524 0.11635 0.0
O183 O 0.81198 0.11559 0.10989 0.0
O184 O 0.90041 0.08712 0.10958 0.0
O185 O 0.87146 0.04952 0.11706 0.0
H186 H 0.05504 0.10277 0.11422 0.0
H187 H 0.75407 0.08571 0.14648 0.0
O188 O 0.78934 0.05049 0.17507 0.0
H189 H 0.74348 0.03987 0.06789 0.0
H190 H 0.7406 0.97239 0.1455 0.0
H191 H 0.88902 1.00786 0.13661 0.0
H192 H 0.80388 0.03136 0.09686 0.0
H193 H 0.75244 0.01766 0.14903 0.0
O194 O 0.8696 0.13287 0.12912 0.0
H195 H 0.98282 0.08401 0.1229 0.0
H196 H 0.93515 0.15352 0.14907 0.0
H197 H 0.87858 0.96251 0.13275 0.0
H198 H 0.69277 0.09447 0.1183 0.0
H199 H 0.80393 0.94449 0.1372 0.0
H200 H 0.68719 0.07154 0.07859 0.0
O201 O 0.8804 0.044 0.16884 0.0
H202 H 0.82891 0.15092 0.21225 0.0
H203 H 0.96056 0.10477 0.1856 0.0
H204 H 0.95821 0.12311 0.2273 0.0
H205 H 0.89207 0.14646 0.24086 0.0
H206 H 0.83239 0.13194 0.17082 0.0
H207 H 1.00677 0.17305 0.14051 0.0
H208 H 0.06739 0.14761 0.12303 0.0
O209 O 0.92942 0.07272 0.15703 0.0
C210 C 0.89312 0.06455 0.1035 0.0
C211 C 0.02893 0.11404 0.12189 0.0
C212 C 1.00182 0.15349 0.13662 0.0
N213 N 0.95486 0.1176 0.13662 0.0
C214 C 0.98798 0.10351 0.1269 0.0
C215 C 0.9613 0.14233 0.14138 0.0
C216 C 0.03582 0.1392 0.12682 0.0
C217 C 0.75158 0.07528 0.12954 0.0
N218 N 0.78235 0.05777 0.12361 0.0
C219 C 0.71691 0.08049 0.11351 0.0
C220 C 0.71386 0.06768 0.0912 0.0
C221 C 0.74545 0.04993 0.08518 0.0
C222 C 0.77968 0.04524 0.10166 0.0
C223 C 0.77328 0.98003 0.14348 0.0
C224 C 0.85639 1.00019 0.13844 0.0
C225 C 0.78021 1.00564 0.14552 0.0
N226 N 0.82136 0.01543 0.14285 0.0
C227 C 0.8507 0.97448 0.13629 0.0
C228 C 0.80882 0.96438 0.13882 0.0
C229 C 0.91929 0.05277 0.16844 0.0
C230 C 0.85791 0.14078 0.20656 0.0
C231 C 0.93144 0.11464 0.19143 0.0
C232 C 0.93042 0.12512 0.21503 0.0
C233 C 0.89333 0.13825 0.22262 0.0
N234 N 0.89651 0.11713 0.1758 0.0
C235 C 0.86013 0.13006 0.18308 0.0
Co236 Co 0.83102 0.4681 0.64594 0.0
Co237 Co 0.89982 0.41761 0.64268 0.0
O238 O 0.8417 0.43219 0.64923 0.0
C239 C 0.77602 0.45172 0.68995 0.0
O240 O 0.79124 0.42891 0.68892 0.0
C241 C 0.83758 0.38385 0.61634 0.0
O242 O 0.81508 0.40335 0.60912 0.0
O243 O 0.90028 0.43235 0.60903 0.0
O244 O 0.87256 0.47009 0.61722 0.0
H245 H 0.05564 0.41858 0.61222 0.0
H246 H 0.75533 0.43275 0.64524 0.0
O247 O 0.78887 0.4682 0.67462 0.0
H248 H 0.74569 0.4794 0.56715 0.0
H249 H 0.73935 0.54616 0.64523 0.0
H250 H 0.88869 0.5117 0.63729 0.0
H251 H 0.80501 0.48812 0.59677 0.0
H252 H 0.75202 0.50096 0.64857 0.0
O253 O 0.87187 0.38654 0.62947 0.0
H254 H 0.98299 0.4366 0.62128 0.0
H255 H 0.93889 0.36709 0.64922 0.0
H256 H 0.87741 0.55699 0.6336 0.0
H257 H 0.69513 0.42376 0.61639 0.0
H258 H 0.8023 0.57451 0.63757 0.0
H259 H 0.69002 0.4471 0.57692 0.0
O260 O 0.87986 0.47513 0.66931 0.0
H261 H 0.83441 0.3696 0.71334 0.0
H262 H 0.96335 0.41693 0.68466 0.0
H263 H 0.96287 0.39947 0.72673 0.0
H264 H 0.8981 0.37554 0.74132 0.0
H265 H 0.83603 0.38767 0.6715 0.0
H266 H 0.01099 0.34827 0.64029 0.0
H267 H 0.07004 0.3741 0.62174 0.0
O268 O 0.93028 0.44794 0.65584 0.0
C269 C 0.89351 0.45504 0.60328 0.0
C270 C 0.03023 0.40715 0.62037 0.0
C271 C 1.00515 0.36769 0.6361 0.0
N272 N 0.95681 0.40298 0.63594 0.0
C273 C 0.98905 0.41727 0.62561 0.0
C274 C 0.96436 0.37844 0.64107 0.0
C275 C 0.03827 0.38219 0.6257 0.0
C276 C 0.75303 0.44336 0.62842 0.0
N277 N 0.78344 0.46123 0.623 0.0
C278 C 0.71898 0.43802 0.612 0.0
C279 C 0.7162 0.45106 0.58983 0.0
C280 C 0.74744 0.46916 0.58433 0.0
C281 C 0.78105 0.47398 0.60118 0.0
C282 C 0.77223 0.53875 0.64342 0.0
C283 C 0.85587 0.51915 0.63891 0.0
C284 C 0.77963 0.51317 0.64536 0.0
N285 N 0.82104 0.50366 0.64296 0.0
C286 C 0.8497 0.54483 0.63686 0.0
C287 C 0.80756 0.55464 0.63912 0.0
C288 C 0.91926 0.46723 0.66812 0.0
C289 C 0.86283 0.37999 0.70721 0.0
C290 C 0.93484 0.40676 0.69092 0.0
C291 C 0.93487 0.3968 0.71474 0.0
C292 C 0.89855 0.38335 0.7229 0.0
N293 N 0.89962 0.40344 0.67565 0.0
C294 C 0.86398 0.39021 0.6835 0.0
Co295 Co 0.68829 0.0491 0.64483 0.0
Co296 Co 0.61915 0.09937 0.64386 0.0
O297 O 0.6772 0.08472 0.64896 0.0
C298 C 0.72962 0.05409 0.69508 0.0
O299 O 0.69107 0.05784 0.70529 0.0
C300 C 0.67913 0.13252 0.61541 0.0
O301 O 0.69917 0.11269 0.60683 0.0
O302 O 0.6157 0.08441 0.6102 0.0
O303 O 0.64504 0.04677 0.61716 0.0
H304 H 0.46096 0.09878 0.6178 0.0
H305 H 0.76317 0.08442 0.64441 0.0
O306 O 0.73309 0.05067 0.6719 0.0
H307 H 0.76916 0.04144 0.56398 0.0
H308 H 0.78404 0.97276 0.64149 0.0
H309 H 0.63249 1.00458 0.63685 0.0
H310 H 0.71177 0.03097 0.59436 0.0
H311 H 0.76907 0.01768 0.64557 0.0
O312 O 0.64657 0.13027 0.62997 0.0
H313 H 0.53407 0.08052 0.62501 0.0
H314 H 0.58132 0.15012 0.65109 0.0
H315 H 0.64604 0.95954 0.63248 0.0
H316 H 0.82149 0.09522 0.6147 0.0
H317 H 0.72228 0.94336 0.63479 0.0
H318 H 0.82465 0.07373 0.5741 0.0
O319 O 0.64034 0.04092 0.66872 0.0
H320 H 0.69332 0.14479 0.71338 0.0
H321 H 0.55833 0.10172 0.6871 0.0
H322 H 0.56306 0.11886 0.72926 0.0
H323 H 0.6309 0.14064 0.74263 0.0
H324 H 0.6873 0.12718 0.67143 0.0
H325 H 0.5088 0.16917 0.64399 0.0
H326 H 0.44795 0.14341 0.62731 0.0
O327 O 0.58982 0.06928 0.65798 0.0
C328 C 0.62274 0.06183 0.60396 0.0
C329 C 0.48717 0.11018 0.62513 0.0
C330 C 0.51404 0.14969 0.6398 0.0
N331 N 0.56186 0.11419 0.6386 0.0
C332 C 0.52862 0.09993 0.6293 0.0
C333 C 0.55507 0.13881 0.64373 0.0
C334 C 0.47991 0.13523 0.63045 0.0
C335 C 0.76459 0.07478 0.62689 0.0
N336 N 0.73412 0.05704 0.62117 0.0
C337 C 0.79758 0.08107 0.61009 0.0
C338 C 0.79928 0.06904 0.5873 0.0
C339 C 0.76812 0.05094 0.5816 0.0
C340 C 0.73558 0.04516 0.59885 0.0
C341 C 0.75068 0.97959 0.64041 0.0
C342 C 0.66578 0.99771 0.63775 0.0
C343 C 0.74199 1.005 0.64276 0.0
N344 N 0.69996 0.01378 0.64129 0.0
C345 C 0.67324 0.97217 0.63532 0.0
C346 C 0.71602 0.9631 0.63664 0.0
C347 C 0.60111 0.04933 0.66908 0.0
C348 C 0.66354 0.1354 0.70775 0.0
C349 C 0.58801 0.11109 0.69279 0.0
C350 C 0.59046 0.12081 0.71668 0.0
C351 C 0.62853 0.13304 0.72416 0.0
N352 N 0.62243 0.11356 0.67677 0.0
C353 C 0.6599 0.12546 0.684 0.0
Co354 Co 0.3307 0.55075 0.85508 0.0
Co355 Co 0.39749 0.60229 0.85392 0.0
O356 O 0.34001 0.58645 0.85037 0.0
C357 C 0.28877 0.55593 0.8053 0.0
O358 O 0.32674 0.56211 0.7956 0.0
C359 C 0.3376 0.63432 0.88386 0.0
O360 O 0.3183 0.61422 0.8923 0.0
O361 O 0.40524 0.58731 0.88738 0.0
O362 O 0.37464 0.54965 0.88238 0.0
H363 H 0.55796 0.60469 0.87496 0.0
H364 H 0.254 0.5848 0.85531 0.0
O365 O 0.28552 0.55108 0.82824 0.0
H366 H 0.25216 0.54368 0.93669 0.0
H367 H 0.23845 0.47316 0.86054 0.0
H368 H 0.38863 0.5072 0.86356 0.0
H369 H 0.30939 0.53347 0.90611 0.0
H370 H 0.25135 0.51819 0.85547 0.0
O371 O 0.36965 0.63258 0.86887 0.0
H372 H 0.48539 0.58504 0.86989 0.0
H373 H 0.43139 0.65382 0.84601 0.0
H374 H 0.37717 0.46209 0.8689 0.0
H375 H 0.1958 0.59531 0.88522 0.0
H376 H 0.30163 0.44479 0.86741 0.0
H377 H 0.19473 0.57476 0.92629 0.0
O378 O 0.37833 0.54261 0.83097 0.0
H379 H 0.31322 0.64609 0.78714 0.0
H380 H 0.45392 0.60658 0.80895 0.0
H381 H 0.44373 0.62369 0.76711 0.0
H382 H 0.37297 0.64368 0.75599 0.0
H383 H 0.32473 0.62852 0.8287 0.0
H384 H 0.5033 0.67426 0.85102 0.0
H385 H 0.56726 0.64962 0.86549 0.0
O386 O 0.42719 0.57289 0.83868 0.0
C387 C 0.39836 0.56497 0.89444 0.0
C388 C 0.53037 0.61561 0.86857 0.0
C389 C 0.49967 0.65466 0.85517 0.0
N390 N 0.45425 0.61822 0.85752 0.0
C391 C 0.48922 0.60457 0.86561 0.0
C392 C 0.45901 0.643 0.85243 0.0
C393 C 0.53555 0.64082 0.86328 0.0
C394 C 0.2535 0.57557 0.87304 0.0
N395 N 0.28504 0.5585 0.87892 0.0
C396 C 0.22057 0.58169 0.88994 0.0
C397 C 0.22004 0.57019 0.913 0.0
C398 C 0.25229 0.55278 0.91886 0.0
C399 C 0.28473 0.54714 0.9015 0.0
C400 C 0.27152 0.48048 0.86126 0.0
C401 C 0.35563 0.49984 0.86301 0.0
C402 C 0.27904 0.50595 0.85835 0.0
N403 N 0.32069 0.51534 0.85937 0.0
C404 C 0.34936 0.47427 0.86599 0.0
C405 C 0.30698 0.46457 0.86512 0.0
C406 C 0.41656 0.55214 0.82888 0.0
C407 C 0.34423 0.63746 0.79177 0.0
C408 C 0.42299 0.61511 0.80422 0.0
C409 C 0.41745 0.62485 0.78052 0.0
C410 C 0.37775 0.63608 0.7743 0.0
N411 N 0.39001 0.61658 0.82128 0.0
C412 C 0.35098 0.62754 0.8153 0.0
Co413 Co 0.18824 0.97005 0.85591 0.0
Co414 Co 0.11967 0.9197 0.85561 0.0
O415 O 0.17813 0.93435 0.85133 0.0
C416 C 0.23438 0.96041 0.80799 0.0
O417 O 0.19924 0.94914 0.7995 0.0
C418 C 0.17898 0.88532 0.88316 0.0
O419 O 0.20042 0.90466 0.89172 0.0
O420 O 0.11564 0.9337 0.8896 0.0
O421 O 0.14303 0.97179 0.88275 0.0
H422 H 0.96101 0.91984 0.88102 0.0
H423 H 0.26422 0.93564 0.85746 0.0
O424 O 0.23456 0.96952 0.82968 0.0
H425 H 0.26333 0.97767 0.93844 0.0
H426 H 0.28122 0.0473 0.86237 0.0
H427 H 0.13049 0.01393 0.86288 0.0
H428 H 0.20762 0.98786 0.90706 0.0
H429 H 0.26803 1.00228 0.85749 0.0
O430 O 0.14629 0.88829 0.86886 0.0
H431 H 0.03441 0.93809 0.87483 0.0
H432 H 0.08149 0.86937 0.84641 0.0
H433 H 0.14222 0.05905 0.86803 0.0
H434 H 0.32096 0.92515 0.88818 0.0
H435 H 0.21805 0.07601 0.86779 0.0
H436 H 0.32063 0.94617 0.92906 0.0
O437 O 0.14222 0.97783 0.83084 0.0
H438 H 0.19467 0.87566 0.78541 0.0
H439 H 0.06014 0.91925 0.81182 0.0
H440 H 0.06574 0.90337 0.76919 0.0
H441 H 0.13335 0.88134 0.75576 0.0
H442 H 0.18785 0.89205 0.82781 0.0
H443 H 0.00866 0.85032 0.85248 0.0
H444 H 0.94775 0.87563 0.8698 0.0
O445 O 0.09068 0.95033 0.84225 0.0
C446 C 0.12124 0.95639 0.89587 0.0
C447 C 0.98724 0.90864 0.87337 0.0
C448 C 0.014 0.86961 0.85738 0.0
N449 N 0.06212 0.90489 0.86008 0.0
C450 C 0.02885 0.9189 0.86975 0.0
C451 C 0.0552 0.8805 0.85404 0.0
C452 C 0.97983 0.88383 0.8671 0.0
C453 C 0.26412 0.94505 0.87511 0.0
N454 N 0.23262 0.96235 0.88044 0.0
C455 C 0.29622 0.93895 0.89247 0.0
C456 C 0.29597 0.95072 0.91542 0.0
C457 C 0.26379 0.96837 0.92071 0.0
C458 C 0.23219 0.97398 0.9029 0.0
C459 C 0.24803 0.04013 0.86253 0.0
C460 C 0.16359 0.02115 0.86285 0.0
C461 C 0.24034 0.01466 0.8597 0.0
N462 N 0.19852 1.00546 0.86001 0.0
C463 C 0.17003 0.04672 0.86573 0.0
C464 C 0.21257 0.05623 0.86558 0.0
C465 C 0.1027 0.96994 0.8308 0.0
C466 C 0.16499 0.88515 0.79107 0.0
C467 C 0.08972 0.90975 0.8061 0.0
C468 C 0.09266 0.90075 0.78195 0.0
C469 C 0.1306 0.88838 0.77443 0.0
N470 N 0.12356 0.90645 0.82233 0.0
C471 C 0.16087 0.89438 0.81508 0.0
C472 C 0.26408 0.55162 0.26399 0.0
C473 C 0.26824 0.55411 0.28972 0.0
C474 C 0.30093 0.54637 0.24937 0.0
C475 C 0.42222 0.54784 0.24778 0.0
H476 H 0.41037 0.491 0.20423 0.0
C477 C 0.57238 0.49842 0.20255 0.0
C478 C 0.56603 0.48686 0.17957 0.0
C479 C 0.53683 0.50938 0.21501 0.0
C480 C 0.41431 0.50725 0.21586 0.0
H481 H 0.31467 0.55427 0.3201 0.0
H482 H 0.37876 0.54551 0.29456 0.0
H483 H 0.34681 0.50607 0.2268 0.0
H484 H 0.51853 0.47922 0.15081 0.0
H485 H 0.45754 0.49919 0.17171 0.0
H486 H 0.4897 0.54919 0.23669 0.0
C487 C 0.34709 0.54746 0.28571 0.0
C488 C 0.3777 0.51583 0.22888 0.0
C489 C 0.31027 0.55233 0.30034 0.0
C490 C 0.52424 0.48763 0.16871 0.0
C491 C 0.48911 0.49893 0.18085 0.0
C492 C 0.45885 0.53947 0.23446 0.0
C493 C 0.34275 0.54392 0.26013 0.0
C494 C 0.38125 0.5361 0.24511 0.0
C495 C 0.49445 0.50932 0.20451 0.0
C496 C 0.45547 0.51894 0.21837 0.0
H497 H 0.2322 0.55287 0.25526 0.0
H498 H 0.29667 0.5439 0.22966 0.0
H499 H 0.42589 0.56359 0.26011 0.0
H500 H 0.60427 0.49797 0.21136 0.0
H501 H 0.54233 0.51702 0.23325 0.0
C502 C 0.99799 0.04889 0.18118 0.0
C503 C 0.95511 0.03915 0.18123 0.0
C504 C 0.03215 0.03636 0.19297 0.0
C505 C 0.05436 0.99043 0.24179 0.0
H506 H 0.17187 0.99284 0.21428 0.0
C507 C 0.20804 0.97765 0.30148 0.0
C508 C 0.24533 0.96578 0.29164 0.0
C509 C 0.17144 0.98237 0.28678 0.0
C510 C 0.13922 0.99161 0.22209 0.0
H511 H 0.91492 1.00821 0.19356 0.0
H512 H 0.97489 0.98621 0.21412 0.0
H513 H 0.11023 1.00851 0.19026 0.0
H514 H 0.27274 0.94895 0.25866 0.0
H515 H 0.20834 0.95714 0.23285 0.0
H516 H 0.08335 0.97353 0.27362 0.0
C517 C 0.98179 1.00377 0.20511 0.0
C518 C 0.10389 1.00091 0.20844 0.0
C519 C 0.94743 0.01637 0.19328 0.0
C520 C 0.24466 0.95823 0.26678 0.0
C521 C 0.20783 0.96301 0.25198 0.0
C522 C 0.08967 0.98108 0.25542 0.0
C523 C 0.0246 0.01364 0.20509 0.0
C524 C 0.06118 1.00102 0.21837 0.0
C525 C 0.17089 0.97532 0.2618 0.0
C526 C 0.13271 0.98214 0.246 0.0
H527 H 1.00539 0.06636 0.17212 0.0
H528 H 0.06442 0.0448 0.19296 0.0
H529 H 0.022 0.99027 0.25007 0.0
H530 H 0.2072 0.9837 0.32056 0.0
H531 H 0.14401 0.99226 0.2949 0.0
C532 C 0.76382 0.46906 0.2363 0.0
C533 C 0.76824 0.46648 0.21059 0.0
C534 C 0.80058 0.47418 0.25099 0.0
C535 C 0.92191 0.47241 0.25279 0.0
H536 H 0.91003 0.52961 0.29587 0.0
C537 C 0.07193 0.52239 0.29736 0.0
C538 C 0.06553 0.53414 0.32024 0.0
C539 C 0.03643 0.51123 0.28507 0.0
C540 C 0.91396 0.51326 0.28439 0.0
H541 H 0.81502 0.46593 0.18033 0.0
H542 H 0.87894 0.47446 0.20598 0.0
H543 H 0.84652 0.51441 0.27343 0.0
H544 H 0.01806 0.5419 0.34905 0.0
H545 H 0.95716 0.52161 0.32845 0.0
H546 H 0.98937 0.47112 0.26386 0.0
C547 C 0.84714 0.47269 0.21478 0.0
C548 C 0.87739 0.5046 0.27144 0.0
C549 C 0.81042 0.46796 0.20007 0.0
C550 C 0.02378 0.53335 0.33121 0.0
C551 C 0.98872 0.52186 0.31925 0.0
C552 C 0.95852 0.48087 0.26603 0.0
C553 C 0.84255 0.47639 0.24032 0.0
C554 C 0.88096 0.48421 0.25536 0.0
C555 C 0.99408 0.51129 0.29566 0.0
C556 C 0.95512 0.50153 0.28193 0.0
H557 H 0.7318 0.46804 0.24494 0.0
H558 H 0.79613 0.47676 0.27068 0.0
H559 H 0.92559 0.45656 0.24058 0.0
H560 H 0.10379 0.52284 0.28848 0.0
H561 H 0.04193 0.50345 0.26689 0.0
C562 C 0.73446 0.03503 0.2144 0.0
C563 C 0.74162 0.06011 0.20828 0.0
C564 C 0.69935 0.02822 0.22953 0.0
C565 C 0.589 0.04549 0.24709 0.0
H566 H 0.60791 1.00035 0.30186 0.0
C567 C 0.4458 1.00588 0.30731 0.0
C568 C 0.45017 0.98091 0.31476 0.0
C569 C 0.48075 0.01822 0.29562 0.0
C570 C 0.60187 0.01274 0.28647 0.0
H571 H 0.71754 0.09777 0.21322 0.0
H572 H 0.65516 0.08567 0.23937 0.0
H573 H 0.67063 0.01695 0.27939 0.0
H574 H 0.49468 0.94929 0.31509 0.0
H575 H 0.55394 0.9702 0.29412 0.0
H576 H 0.5201 0.04038 0.25339 0.0
C577 C 0.67723 0.07141 0.23258 0.0
C578 C 0.6379 0.02237 0.27374 0.0
C579 C 0.71303 0.07831 0.21779 0.0
C580 C 0.48985 0.9685 0.30974 0.0
C581 C 0.52431 0.98066 0.29791 0.0
C582 C 0.55274 0.03554 0.25964 0.0
C583 C 0.67009 0.04627 0.23854 0.0
C584 C 0.63185 0.03846 0.25364 0.0
C585 C 0.52068 1.00579 0.29103 0.0
C586 C 0.55874 0.01856 0.27914 0.0
H587 H 0.75586 0.02057 0.20733 0.0
H588 H 0.6944 1.00869 0.23369 0.0
H589 H 0.58348 0.05779 0.23155 0.0
H590 H 0.41582 0.01606 0.311 0.0
H591 H 0.47681 0.03761 0.29068 0.0
C592 C 0.44618 0.51373 0.80747 0.0
C593 C 0.4514 0.53862 0.81507 0.0
C594 C 0.48072 0.50106 0.7957 0.0
C595 C 0.60201 0.50526 0.7866 0.0
H596 H 0.58222 0.46133 0.73088 0.0
C597 C 0.73373 0.48332 0.71398 0.0
C598 C 0.74051 0.45829 0.70746 0.0
C599 C 0.69872 0.49008 0.72922 0.0
C600 C 0.58812 0.4733 0.74664 0.0
H601 H 0.49704 0.5697 0.81564 0.0
H602 H 0.55559 0.54824 0.7946 0.0
H603 H 0.51938 0.47896 0.7531 0.0
H604 H 0.71578 0.4207 0.71176 0.0
H605 H 0.65356 0.43274 0.7381 0.0
H606 H 0.67062 0.50055 0.77938 0.0
C607 C 0.5256 0.53809 0.79831 0.0
C608 C 0.55217 0.48337 0.75941 0.0
C609 C 0.49153 0.55058 0.81018 0.0
C610 C 0.71157 0.44011 0.71665 0.0
C611 C 0.67587 0.44698 0.73154 0.0
C612 C 0.63773 0.49551 0.77367 0.0
C613 C 0.52108 0.51306 0.79123 0.0
C614 C 0.5587 0.49999 0.77919 0.0
C615 C 0.66917 0.47205 0.73794 0.0
C616 C 0.63119 0.47985 0.75327 0.0
H617 H 0.4158 0.50389 0.81104 0.0
H618 H 0.4761 0.48176 0.79058 0.0
H619 H 0.60843 0.51735 0.80219 0.0
H620 H 0.75539 0.49776 0.70717 0.0
H621 H 0.69412 0.50957 0.73371 0.0
C622 C 0.81126 0.05476 0.69937 0.0
C623 C 0.76974 0.05204 0.71039 0.0
C624 C 0.84951 0.05054 0.71293 0.0
C625 C 0.89199 0.04063 0.77704 0.0
H626 H 0.98571 1.0062 0.74254 0.0
C627 C 0.02424 0.98207 0.8257 0.0
C628 C 0.0681 0.98425 0.81786 0.0
C629 C 0.99061 0.99427 0.81315 0.0
C630 C 0.96015 0.01617 0.75234 0.0
H631 H 0.73585 0.04338 0.74449 0.0
H632 H 0.8025 0.03514 0.76803 0.0
H633 H 0.92118 0.01981 0.7198 0.0
H634 H 0.11111 1.00133 0.79087 0.0
H635 H 0.05166 0.02234 0.76836 0.0
H636 H 0.93043 0.03571 0.80983 0.0
C637 C 0.80571 0.04113 0.74903 0.0
C638 C 0.92306 0.02406 0.73931 0.0
C639 C 0.76735 0.04575 0.73552 0.0
C640 C 0.07765 0.99933 0.79735 0.0
C641 C 0.04369 0.01125 0.78444 0.0
C642 C 0.92886 0.03243 0.79011 0.0
C643 C 0.84736 0.04306 0.7378 0.0
C644 C 0.88815 0.03615 0.75152 0.0
C645 C 0.9998 1.00872 0.7922 0.0
C646 C 0.96307 0.01984 0.77795 0.0
H647 H 0.81425 0.05988 0.68009 0.0
H648 H 0.88082 0.05288 0.70375 0.0
H649 H 0.86637 0.05032 0.78704 0.0
H650 H 0.01573 0.97076 0.84154 0.0
H651 H 0.95713 0.99176 0.81942 0.0
C652 C 0.25291 0.54685 0.76453 0.0
C653 C 0.24933 0.55295 0.78966 0.0
C654 C 0.21534 0.54122 0.7507 0.0
C655 C 0.09906 0.52135 0.75962 0.0
H656 H 0.0923 0.53245 0.689 0.0
C657 C 0.94529 0.49643 0.7014 0.0
C658 C 0.95452 0.48105 0.68103 0.0
C659 C 0.97942 0.5082 0.71424 0.0
C660 C 0.09377 0.5293 0.70874 0.0
H661 H 0.20356 0.55949 0.81965 0.0
H662 H 0.13823 0.55095 0.79542 0.0
H663 H 0.1552 0.54827 0.71208 0.0
H664 H 1.00663 0.46675 0.65761 0.0
H665 H 0.06573 0.48762 0.67967 0.0
H666 H 0.03728 0.5026 0.75616 0.0
C667 C 0.1699 0.54939 0.78648 0.0
C668 C 0.12995 0.5382 0.72198 0.0
C669 C 0.20741 0.55453 0.80037 0.0
C670 C 0.99837 0.47834 0.67332 0.0
C671 C 0.03225 0.49043 0.68583 0.0
C672 C 0.06261 0.51283 0.74644 0.0
C673 C 0.1733 0.54201 0.76161 0.0
C674 C 0.13346 0.53404 0.74758 0.0
C675 C 0.02324 0.50522 0.70659 0.0
C676 C 0.0599 0.51638 0.72082 0.0
H677 H 0.28482 0.54535 0.75583 0.0
H678 H 0.21955 0.53535 0.73172 0.0
H679 H 0.10075 0.51723 0.77916 0.0
H680 H 0.91187 0.49887 0.70779 0.0
H681 H 0.97162 0.51957 0.73017 0.0
C682 C 0.27526 0.95566 0.76766 0.0
C683 C 0.27426 0.9634 0.79246 0.0
C684 C 0.31264 0.95984 0.75307 0.0
C685 C 0.43139 0.97726 0.75689 0.0
H686 H 0.41205 1.00381 0.6913 0.0
C687 C 0.57428 0.01276 0.69442 0.0
C688 C 0.566 0.03544 0.6823 0.0
C689 C 0.54021 0.99998 0.70647 0.0
C690 C 0.41808 0.99642 0.70959 0.0
H691 H 0.31245 0.98099 0.8215 0.0
H692 H 0.37657 0.98859 0.79618 0.0
H693 H 0.35 0.98853 0.7152 0.0
H694 H 0.515 0.06234 0.67352 0.0
H695 H 0.45674 0.04051 0.69458 0.0
H696 H 0.49924 0.98637 0.75169 0.0
C697 C 0.34898 0.97897 0.78795 0.0
C698 C 0.38249 0.98734 0.7232 0.0
C699 C 0.31183 0.97482 0.80246 0.0
C700 C 0.52293 0.04493 0.68254 0.0
C701 C 0.48916 0.03224 0.69447 0.0
C702 C 0.46701 0.9864 0.74328 0.0
C703 C 0.34985 0.97178 0.763 0.0
C704 C 0.38848 0.97824 0.74729 0.0
C705 C 0.49716 1.00956 0.70654 0.0
C706 C 0.4606 0.99674 0.71972 0.0
H707 H 0.24701 0.9467 0.75941 0.0
H708 H 0.31231 0.95383 0.73398 0.0
H709 H 0.43737 0.96996 0.77522 0.0
H710 H 0.60696 1.00483 0.69454 0.0
H711 H 0.54748 0.98249 0.71553 0.0
C712 C 0.10957 0.52951 0.427 0.0
C713 C 0.10134 0.5541 0.4193 0.0
C714 C 0.0874 0.51938 0.44719 0.0
C715 C 0.98612 0.52654 0.4838 0.0
H716 H 0.04563 0.48227 0.52934 0.0
C717 C 0.90541 0.49004 0.57341 0.0
C718 C 0.91377 0.46527 0.58048 0.0
C719 C 0.92724 0.50064 0.55332 0.0
C720 C 0.02839 0.49433 0.5166 0.0
H721 H 0.06375 0.58744 0.4273 0.0
H722 H 0.02531 0.56976 0.46284 0.0
H723 H 0.08706 0.50229 0.49636 0.0
H724 H 0.95106 0.43209 0.5714 0.0
H725 H 0.98895 0.4506 0.53615 0.0
H726 H 0.92745 0.51858 0.50411 0.0
C727 C 0.04866 0.55827 0.45296 0.0
C728 C 0.05217 0.50588 0.49772 0.0
C729 C 0.07098 0.56848 0.43271 0.0
C730 C 0.94376 0.45119 0.56651 0.0
C731 C 0.96577 0.46187 0.54642 0.0
C732 C 0.96234 0.515 0.50272 0.0
C733 C 0.05633 0.53351 0.46029 0.0
C734 C 0.03132 0.52206 0.48102 0.0
C735 C 0.95813 0.48682 0.53977 0.0
C736 C 0.98317 0.4987 0.51931 0.0
H737 H 0.13258 0.51778 0.41714 0.0
H738 H 0.09374 0.50017 0.45207 0.0
H739 H 0.96886 0.53855 0.47103 0.0
H740 H 0.88265 0.50153 0.58371 0.0
H741 H 0.92088 0.51996 0.54889 0.0
C742 C 0.41198 0.98942 0.42525 0.0
C743 C 0.41997 0.96492 0.41713 0.0
C744 C 0.4339 0.99912 0.44567 0.0
C745 C 0.53386 0.9916 0.48293 0.0
H746 H 0.47166 0.03422 0.52905 0.0
C747 C 0.61151 0.02722 0.57358 0.0
C748 C 0.60223 0.05174 0.58118 0.0
C749 C 0.59026 0.01677 0.55326 0.0
C750 C 0.48965 0.02264 0.51616 0.0
H751 H 0.45742 0.9314 0.42444 0.0
H752 H 0.49571 0.94842 0.46045 0.0
H753 H 0.43182 0.01448 0.49531 0.0
H754 H 0.56367 0.08462 0.57287 0.0
H755 H 0.52673 0.06637 0.53713 0.0
H756 H 0.59173 0.9998 0.50381 0.0
C757 C 0.47249 0.9601 0.45073 0.0
C758 C 0.46678 0.01124 0.49686 0.0
C759 C 0.45033 0.95028 0.43021 0.0
C760 C 0.57168 0.06572 0.56756 0.0
C761 C 0.55025 0.05518 0.54719 0.0
C762 C 0.55675 1.00301 0.50226 0.0
C763 C 0.46457 0.98468 0.45863 0.0
C764 C 0.48863 0.99568 0.47992 0.0
C765 C 0.55903 0.03049 0.53994 0.0
C766 C 0.53494 0.01874 0.51906 0.0
H767 H 0.38913 1.00141 0.41564 0.0
H768 H 0.42751 0.01823 0.45094 0.0
H769 H 0.55182 0.98005 0.47 0.0
H770 H 0.63471 0.01578 0.58361 0.0
H771 H 0.59745 0.99763 0.54841 0.0
C772 C 0.61377 0.49259 0.07234 0.0
C773 C 0.60438 0.46813 0.08008 0.0
C774 C 0.59243 0.50295 0.05201 0.0
C775 C 0.49116 0.49724 0.01556 0.0
H776 H 0.55288 0.53923 0.96876 0.0
C777 C 0.41124 0.53119 0.92542 0.0
C778 C 0.42023 0.55548 0.91707 0.0
C779 C 0.43336 0.52127 0.94568 0.0
C780 C 0.53504 0.52785 0.98186 0.0
H781 H 0.56564 0.43526 0.07195 0.0
H782 H 0.5285 0.45338 0.03624 0.0
H783 H 0.5933 0.51943 0.00231 0.0
H784 H 0.45946 0.58846 0.92389 0.0
H785 H 0.4979 0.57113 0.95962 0.0
H786 H 0.4329 0.50569 0.99522 0.0
C787 C 0.55219 0.46457 0.04619 0.0
C788 C 0.55823 0.51642 0.00104 0.0
C789 C 0.57374 0.45411 0.06654 0.0
C790 C 0.4516 0.56974 0.92983 0.0
C791 C 0.47388 0.55973 0.95018 0.0
C792 C 0.46796 0.50871 0.99643 0.0
C793 C 0.56099 0.48921 0.03885 0.0
C794 C 0.53659 0.50091 0.01808 0.0
C795 C 0.46516 0.5353 0.95825 0.0
C796 C 0.48962 0.52407 0.97927 0.0
H797 H 0.63704 0.50404 0.0823 0.0
H798 H 0.59966 0.52204 0.04706 0.0
H799 H 0.47332 0.48583 0.02864 0.0
H800 H 0.38752 0.51951 0.91608 0.0
H801 H 0.42625 0.50229 0.95109 0.0
C802 C 0.06874 0.95184 0.93165 0.0
C803 C 0.09916 0.96623 0.91831 0.0
C804 C 0.04578 0.96218 0.95163 0.0
C805 C 0.01182 0.02322 0.97725 0.0
H806 H 0.99082 0.98587 0.0373 0.0
C807 C 0.94318 0.06844 0.06661 0.0
C808 C 0.91308 0.05442 0.08056 0.0
C809 C 0.96462 0.05781 0.04627 0.0
C810 C 0.99595 0.99647 0.02054 0.0
H811 H 0.13001 1.00266 0.91612 0.0
H812 H 0.09079 0.02029 0.95092 0.0
H813 H 0.03094 0.96651 0.00335 0.0
H814 H 0.88106 0.01837 0.08342 0.0
H815 H 0.91777 1.0002 0.04796 0.0
H816 H 0.97696 0.0532 0.99445 0.0
C817 C 0.08394 1.00121 0.9457 0.0
C818 C 0.01895 0.98534 0.00107 0.0
C819 C 0.10676 0.99096 0.92581 0.0
C820 C 0.90413 0.02978 0.07325 0.0
C821 C 0.92548 0.01922 0.05298 0.0
C822 C 0.98884 0.03434 0.9967 0.0
C823 C 0.05274 0.9871 0.95867 0.0
C824 C 0.02735 0.99862 0.97923 0.0
C825 C 0.95645 0.03295 0.03944 0.0
C826 C 0.98068 0.02112 0.01861 0.0
H827 H 0.0619 0.9328 0.92633 0.0
H828 H 0.02175 0.95083 0.96115 0.0
H829 H 0.01704 0.03384 0.96051 0.0
H830 H 0.95107 0.0874 0.07175 0.0
H831 H 0.98855 0.06886 0.03634 0.0
C832 C 0.23522 0.66602 0.3932 0.0
C833 C 0.19131 0.66071 0.38741 0.0
C834 C 0.24919 0.69071 0.39614 0.0
C835 C 0.21453 0.75581 0.38108 0.0
H836 H 0.31231 0.77321 0.42345 0.0
C837 C 0.27179 0.85771 0.39555 0.0
C838 C 0.31638 0.86143 0.39006 0.0
C839 C 0.25509 0.83355 0.39833 0.0
C840 C 0.28488 0.76858 0.41159 0.0
H841 H 0.12713 0.67697 0.3814 0.0
H842 H 0.15071 0.71969 0.38772 0.0
H843 H 0.28537 0.73041 0.42279 0.0
H844 H 0.37882 0.84289 0.38437 0.0
H845 H 0.34989 0.80089 0.38991 0.0
H846 H 0.21381 0.79419 0.37028 0.0
C847 C 0.17505 0.70507 0.38898 0.0
C848 C 0.26959 0.744 0.41103 0.0
C849 C 0.16134 0.68049 0.38555 0.0
C850 C 0.34426 0.84062 0.38853 0.0
C851 C 0.32778 0.81657 0.39181 0.0
C852 C 0.22931 0.78044 0.38201 0.0
C853 C 0.21937 0.71066 0.39381 0.0
C854 C 0.23449 0.73714 0.39552 0.0
C855 C 0.28289 0.81273 0.39623 0.0
C856 C 0.26497 0.78703 0.39703 0.0
H857 H 0.25912 0.65115 0.39457 0.0
H858 H 0.28368 0.6941 0.39948 0.0
H859 H 0.18817 0.75138 0.36845 0.0
H860 H 0.24949 0.87337 0.3967 0.0
H861 H 0.22035 0.83109 0.40182 0.0
C862 C 0.77419 0.16572 0.10774 0.0
C863 C 0.81909 0.16066 0.11062 0.0
C864 C 0.75942 0.19031 0.10517 0.0
C865 C 0.79653 0.25562 0.1169 0.0
H866 H 0.69048 0.27249 0.08116 0.0
C867 C 0.7378 0.35739 0.10405 0.0
C868 C 0.69423 0.36165 0.11146 0.0
C869 C 0.75358 0.33304 0.10127 0.0
C870 C 0.72018 0.26801 0.0912 0.0
H871 H 0.88394 0.17716 0.11164 0.0
H872 H 0.85871 0.21965 0.1059 0.0
H873 H 0.71736 0.22965 0.0806 0.0
H874 H 0.6326 0.34376 0.12082 0.0
H875 H 0.65991 0.30138 0.11542 0.0
H876 H 0.79953 0.29413 0.1271 0.0
C877 C 0.83444 0.20496 0.10669 0.0
C878 C 0.7355 0.24341 0.09104 0.0
C879 C 0.84904 0.18051 0.10975 0.0
C880 C 0.66639 0.3411 0.11517 0.0
C881 C 0.68192 0.31682 0.11196 0.0
C882 C 0.78161 0.28023 0.11669 0.0
C883 C 0.78933 0.21036 0.10499 0.0
C884 C 0.77372 0.23678 0.1041 0.0
C885 C 0.72585 0.31251 0.10536 0.0
C886 C 0.74307 0.28666 0.10405 0.0
H887 H 0.75031 0.1508 0.10854 0.0
H888 H 0.72442 0.19358 0.10423 0.0
H889 H 0.82542 0.25135 0.1277 0.0
H890 H 0.76008 0.37283 0.10114 0.0
H891 H 0.78755 0.33023 0.09607 0.0
C892 C 0.7398 0.1617 0.60316 0.0
C893 C 0.69573 0.15781 0.60977 0.0
C894 C 0.75616 0.18592 0.60033 0.0
C895 C 0.72474 0.25103 0.58893 0.0
H896 H 0.82674 0.26759 0.6283 0.0
C897 C 0.77763 0.35326 0.60666 0.0
C898 C 0.82224 0.35832 0.61072 0.0
C899 C 0.76304 0.32867 0.60384 0.0
C900 C 0.79882 0.26334 0.61671 0.0
H901 H 0.63383 0.17616 0.61755 0.0
H902 H 0.66216 0.2183 0.61202 0.0
H903 H 0.80059 0.22487 0.62709 0.0
H904 H 0.88688 0.34177 0.61367 0.0
H905 H 0.86204 0.29925 0.60755 0.0
H906 H 0.72315 0.28934 0.57817 0.0
C907 C 0.68412 0.20268 0.60924 0.0
C908 C 0.78375 0.23876 0.61614 0.0
C909 C 0.66799 0.17855 0.61252 0.0
C910 C 0.85217 0.33843 0.61086 0.0
C911 C 0.83778 0.31397 0.60757 0.0
C912 C 0.74025 0.27559 0.58914 0.0
C913 C 0.72853 0.20666 0.60356 0.0
C914 C 0.74629 0.23239 0.60248 0.0
C915 C 0.79287 0.30859 0.60459 0.0
C916 C 0.77728 0.28219 0.60326 0.0
H917 H 0.762 0.14609 0.60103 0.0
H918 H 0.79052 0.18847 0.59586 0.0
H919 H 0.6959 0.24659 0.57811 0.0
H920 H 0.75376 0.36821 0.60663 0.0
H921 H 0.72816 0.32542 0.60192 0.0
C922 C 0.34814 0.68027 0.88799 0.0
C923 C 0.32055 0.65938 0.89001 0.0
C924 C 0.33159 0.70428 0.8915 0.0
C925 C 0.23241 0.7401 0.88319 0.0
H926 H 0.28964 0.7903 0.92332 0.0
C927 C 0.16379 0.83983 0.88743 0.0
C928 C 0.19369 0.85968 0.88881 0.0
C929 C 0.17777 0.81531 0.89086 0.0
C930 C 0.27351 0.77666 0.91174 0.0
H931 H 0.25412 0.64725 0.89769 0.0
H932 H 0.22482 0.68946 0.90318 0.0
H933 H 0.31706 0.74758 0.92352 0.0
H934 H 0.26165 0.86945 0.89522 0.0
H935 H 0.28667 0.82659 0.90012 0.0
H936 H 0.19042 0.76903 0.87023 0.0
C937 C 0.2594 0.6871 0.89916 0.0
C938 C 0.28909 0.75213 0.91205 0.0
C939 C 0.27619 0.66298 0.89615 0.0
C940 C 0.2378 0.85452 0.89422 0.0
C941 C 0.25204 0.82988 0.89715 0.0
C942 C 0.21734 0.76468 0.88251 0.0
C943 C 0.28689 0.70798 0.89662 0.0
C944 C 0.26876 0.73363 0.89771 0.0
C945 C 0.2223 0.80985 0.89521 0.0
C946 C 0.2377 0.78341 0.89671 0.0
H947 H 0.38251 0.67808 0.88332 0.0
H948 H 0.35343 0.72003 0.88925 0.0
H949 H 0.21657 0.72631 0.87164 0.0
H950 H 0.12943 0.84325 0.88357 0.0
H951 H 0.1535 0.80063 0.88993 0.0
loop_
_geom_bond_atom_site_label_1
_geom_bond_atom_site_label_2
_geom_bond_distance
_geom_bond_site_symmetry_2
_ccdc_geom_bond_type
Co0 O2 2.143 . S
Co0 O8 2.074 . S
Co0 O11 2.093 . S
Co0 O24 2.097 . S
Co0 N41 2.151 . S
Co0 N49 2.214 . S
Co1 O2 2.160 . S
Co1 O7 2.058 . S
Co1 O17 2.057 . S
Co1 O32 2.037 . S
Co1 N36 2.145 . S
Co1 N57 2.257 . S
O2 Co0 2.143 . S
O2 Co1 2.160 . S
C3 O4 1.278 . S
C3 O11 1.224 . S
O4 C3 1.278 . S
C5 O6 1.245 . S
C5 O17 1.232 . S
O6 C5 1.245 . S
O7 Co1 2.058 . S
O7 C33 1.269 . S
O8 Co0 2.074 . S
O8 C33 1.257 . S
H9 C34 0.930 . S
H10 C40 0.930 . S
O11 Co0 2.093 . S
O11 C3 1.224 . S
H12 C44 0.929 . S
H13 C46 0.930 . S
H14 C47 0.930 . S
H15 C45 0.929 . S
H16 C48 0.928 . S
O17 Co1 2.057 . S
O17 C5 1.232 . S
H18 C37 0.929 . S
H19 C38 0.929 . S
H20 C50 0.931 . S
H21 C42 0.929 . S
H22 C51 0.930 . S
H23 C43 0.931 . S
O24 Co0 2.097 . S
O24 C52 1.214 . S
H25 C53 0.929 . S
H26 C54 0.929 . S
H27 C55 0.930 . S
H28 C56 0.929 . S
H29 C58 0.930 . S
H30 C35 0.930 . S
H31 C39 0.930 . S
O32 Co1 2.037 . S
O32 C52 1.234 . S
C33 O7 1.269 . S
C33 O8 1.257 . S
C34 H9 0.930 . S
C34 C37 1.388 1_655 S
C34 C39 1.418 . S
C35 H30 0.930 . S
C35 C38 1.404 . S
C35 C39 1.353 1_455 S
N36 Co1 2.145 . S
N36 C37 1.397 . S
N36 C38 1.334 . S
C37 H18 0.929 . S
C37 C34 1.388 1_455 S
C37 N36 1.397 . S
C38 H19 0.929 . S
C38 C35 1.404 . S
C38 N36 1.334 . S
C39 H31 0.930 . S
C39 C34 1.418 . S
C39 C35 1.353 1_655 S
C40 H10 0.930 . S
C40 N41 1.330 . S
C40 C42 1.446 . S
N41 Co0 2.151 . S
N41 C40 1.330 . S
N41 C45 1.418 . S
C42 H21 0.929 . S
C42 C40 1.446 . S
C42 C43 1.332 . S
C43 H23 0.931 . S
C43 C42 1.332 . S
C43 C44 1.267 . S
C44 H12 0.929 . S
C44 C43 1.267 . S
C44 C45 1.251 . S
C45 H15 0.929 . S
C45 N41 1.418 . S
C45 C44 1.251 . S
C46 H13 0.930 . S
C46 C48 1.406 . S
C46 C51 1.261 . S
C47 H14 0.930 . S
C47 N49 1.325 . S
C47 C50 1.357 . S
C48 H16 0.928 . S
C48 C46 1.406 . S
C48 N49 1.261 . S
N49 Co0 2.214 . S
N49 C47 1.325 . S
N49 C48 1.261 . S
C50 H20 0.931 . S
C50 C47 1.357 . S
C50 C51 1.312 . S
C51 H22 0.930 . S
C51 C46 1.261 . S
C51 C50 1.312 . S
C52 O24 1.214 . S
C52 O32 1.234 . S
C53 H25 0.929 . S
C53 C56 1.391 . S
C53 C58 1.391 . S
C54 H26 0.929 . S
C54 C55 1.390 . S
C54 N57 1.391 . S
C55 H27 0.930 . S
C55 C54 1.390 . S
C55 C56 1.392 . S
C56 H28 0.929 . S
C56 C53 1.391 . S
C56 C55 1.392 . S
N57 Co1 2.257 . S
N57 C54 1.391 . S
N57 C58 1.388 . S
C58 H29 0.930 . S
C58 C53 1.391 . S
C58 N57 1.388 . S
Co59 O61 2.143 . S
Co59 O67 2.074 . S
Co59 O70 2.093 . S
Co59 O83 2.097 . S
Co59 N100 2.151 . S
Co59 N108 2.214 1_565 S
Co60 O61 2.160 . S
Co60 O66 2.058 . S
Co60 O76 2.057 . S
Co60 O91 2.037 . S
Co60 N95 2.145 . S
Co60 N116 2.257 . S
O61 Co59 2.143 . S
O61 Co60 2.160 . S
C62 O63 1.278 . S
C62 O70 1.224 . S
O63 C62 1.278 . S
C64 O65 1.245 . S
C64 O76 1.232 . S
O65 C64 1.245 . S
O66 Co60 2.058 . S
O66 C92 1.269 . S
O67 Co59 2.074 . S
O67 C92 1.257 . S
H68 C93 0.930 . S
H69 C99 0.930 . S
O70 Co59 2.093 . S
O70 C62 1.224 . S
H71 C103 0.929 . S
H72 C105 0.930 . S
H73 C106 0.930 . S
H74 C104 0.929 . S
H75 C107 0.928 . S
O76 Co60 2.057 . S
O76 C64 1.232 . S
H77 C96 0.929 . S
H78 C97 0.929 . S
H79 C109 0.931 . S
H80 C101 0.929 . S
H81 C110 0.930 . S
H82 C102 0.931 . S
O83 Co59 2.097 . S
O83 C111 1.214 . S
H84 C112 0.929 . S
H85 C113 0.929 . S
H86 C114 0.930 . S
H87 C115 0.929 . S
H88 C117 0.930 . S
H89 C94 0.930 . S
H90 C98 0.930 . S
O91 Co60 2.037 . S
O91 C111 1.234 . S
C92 O66 1.269 . S
C92 O67 1.257 . S
C93 H68 0.930 . S
C93 C96 1.388 . S
C93 C98 1.418 . S
C94 H89 0.930 . S
C94 C97 1.404 . S
C94 C98 1.353 . S
N95 Co60 2.145 . S
N95 C96 1.397 . S
N95 C97 1.334 . S
C96 H77 0.929 . S
C96 C93 1.388 . S
C96 N95 1.397 . S
C97 H78 0.929 . S
C97 C94 1.404 . S
C97 N95 1.334 . S
C98 H90 0.930 . S
C98 C93 1.418 . S
C98 C94 1.353 . S
C99 H69 0.930 . S
C99 N100 1.330 . S
C99 C101 1.446 . S
N100 Co59 2.151 . S
N100 C99 1.330 . S
N100 C104 1.418 . S
C101 H80 0.929 . S
C101 C99 1.446 . S
C101 C102 1.332 . S
C102 H82 0.931 . S
C102 C101 1.332 . S
C102 C103 1.267 . S
C103 H71 0.929 . S
C103 C102 1.267 . S
C103 C104 1.251 . S
C104 H74 0.929 . S
C104 N100 1.418 . S
C104 C103 1.251 . S
C105 H72 0.930 . S
C105 C107 1.406 . S
C105 C110 1.261 . S
C106 H73 0.930 . S
C106 N108 1.325 . S
C106 C109 1.357 . S
C107 H75 0.928 . S
C107 C105 1.406 . S
C107 N108 1.261 . S
N108 Co59 2.214 1_545 S
N108 C106 1.325 . S
N108 C107 1.261 . S
C109 H79 0.931 . S
C109 C106 1.357 . S
C109 C110 1.312 . S
C110 H81 0.930 . S
C110 C105 1.261 . S
C110 C109 1.312 . S
C111 O83 1.214 . S
C111 O91 1.234 . S
C112 H84 0.929 . S
C112 C115 1.391 . S
C112 C117 1.391 . S
C113 H85 0.929 . S
C113 C114 1.390 . S
C113 N116 1.391 . S
C114 H86 0.930 . S
C114 C113 1.390 . S
C114 C115 1.392 . S
C115 H87 0.929 . S
C115 C112 1.391 . S
C115 C114 1.392 . S
N116 Co60 2.257 . S
N116 C113 1.391 . S
N116 C117 1.388 . S
C117 H88 0.930 . S
C117 C112 1.391 . S
C117 N116 1.388 . S
Co118 O120 2.143 . S
Co118 O126 2.074 . S
Co118 O129 2.093 . S
Co118 O142 2.097 . S
Co118 N159 2.151 . S
Co118 N167 2.214 . S
Co119 O120 2.160 . S
Co119 O125 2.058 . S
Co119 O135 2.057 . S
Co119 O150 2.037 . S
Co119 N154 2.145 . S
Co119 N175 2.257 . S
O120 Co118 2.143 . S
O120 Co119 2.160 . S
C121 O122 1.278 . S
C121 O129 1.224 . S
O122 C121 1.278 . S
C123 O124 1.245 . S
C123 O135 1.232 . S
O124 C123 1.245 . S
O125 Co119 2.058 . S
O125 C151 1.269 . S
O126 Co118 2.074 . S
O126 C151 1.257 . S
H127 C152 0.930 . S
H128 C158 0.930 . S
O129 Co118 2.093 . S
O129 C121 1.224 . S
H130 C162 0.929 . S
H131 C164 0.930 . S
H132 C165 0.930 . S
H133 C163 0.929 . S
H134 C166 0.928 . S
O135 Co119 2.057 . S
O135 C123 1.232 . S
H136 C155 0.929 . S
H137 C156 0.929 . S
H138 C168 0.931 . S
H139 C160 0.929 . S
H140 C169 0.930 . S
H141 C161 0.931 . S
O142 Co118 2.097 . S
O142 C170 1.214 . S
H143 C171 0.929 . S
H144 C172 0.929 . S
H145 C173 0.930 . S
H146 C174 0.929 . S
H147 C176 0.930 . S
H148 C153 0.930 . S
H149 C157 0.930 . S
O150 Co119 2.037 . S
O150 C170 1.234 . S
C151 O125 1.269 . S
C151 O126 1.257 . S
C152 H127 0.930 . S
C152 C155 1.388 . S
C152 C157 1.418 . S
C153 H148 0.930 . S
C153 C156 1.404 . S
C153 C157 1.353 . S
N154 Co119 2.145 . S
N154 C155 1.397 . S
N154 C156 1.334 . S
C155 H136 0.929 . S
C155 C152 1.388 . S
C155 N154 1.397 . S
C156 H137 0.929 . S
C156 C153 1.404 . S
C156 N154 1.334 . S
C157 H149 0.930 . S
C157 C152 1.418 . S
C157 C153 1.353 . S
C158 H128 0.930 . S
C158 N159 1.330 . S
C158 C160 1.446 . S
N159 Co118 2.151 . S
N159 C158 1.330 . S
N159 C163 1.418 . S
C160 H139 0.929 . S
C160 C158 1.446 . S
C160 C161 1.332 . S
C161 H141 0.931 . S
C161 C160 1.332 . S
C161 C162 1.267 . S
C162 H130 0.929 . S
C162 C161 1.267 . S
C162 C163 1.251 . S
C163 H133 0.929 . S
C163 N159 1.418 . S
C163 C162 1.251 . S
C164 H131 0.930 . S
C164 C166 1.406 . S
C164 C169 1.261 . S
C165 H132 0.930 . S
C165 N167 1.325 . S
C165 C168 1.357 . S
C166 H134 0.928 . S
C166 C164 1.406 . S
C166 N167 1.261 . S
N167 Co118 2.214 . S
N167 C165 1.325 . S
N167 C166 1.261 . S
C168 H138 0.931 . S
C168 C165 1.357 . S
C168 C169 1.312 . S
C169 H140 0.930 . S
C169 C164 1.261 . S
C169 C168 1.312 . S
C170 O142 1.214 . S
C170 O150 1.234 . S
C171 H143 0.929 . S
C171 C174 1.391 . S
C171 C176 1.391 . S
C172 H144 0.929 . S
C172 C173 1.390 . S
C172 N175 1.391 . S
C173 H145 0.930 . S
C173 C172 1.390 . S
C173 C174 1.392 . S
C174 H146 0.929 . S
C174 C171 1.391 . S
C174 C173 1.392 . S
N175 Co119 2.257 . S
N175 C172 1.391 . S
N175 C176 1.388 . S
C176 H147 0.930 . S
C176 C171 1.391 . S
C176 N175 1.388 . S
Co177 O179 2.143 . S
Co177 O185 2.074 . S
Co177 O188 2.093 . S
Co177 O201 2.097 . S
Co177 N218 2.151 . S
Co177 N226 2.214 1_545 S
Co178 O179 2.160 . S
Co178 O184 2.058 . S
Co178 O194 2.057 . S
Co178 O209 2.037 . S
Co178 N213 2.145 . S
Co178 N234 2.257 . S
O179 Co177 2.143 . S
O179 Co178 2.160 . S
C180 O181 1.278 . S
C180 O188 1.224 . S
O181 C180 1.278 . S
C182 O183 1.245 . S
C182 O194 1.232 . S
O183 C182 1.245 . S
O184 Co178 2.058 . S
O184 C210 1.269 . S
O185 Co177 2.074 . S
O185 C210 1.257 . S
H186 C211 0.930 . S
H187 C217 0.930 . S
O188 Co177 2.093 . S
O188 C180 1.224 . S
H189 C221 0.929 . S
H190 C223 0.930 . S
H191 C224 0.930 . S
H192 C222 0.929 . S
H193 C225 0.928 . S
O194 Co178 2.057 . S
O194 C182 1.232 . S
H195 C214 0.929 . S
H196 C215 0.929 . S
H197 C227 0.931 . S
H198 C219 0.929 . S
H199 C228 0.930 . S
H200 C220 0.931 . S
O201 Co177 2.097 . S
O201 C229 1.214 . S
H202 C230 0.929 . S
H203 C231 0.929 . S
H204 C232 0.930 . S
H205 C233 0.929 . S
H206 C235 0.930 . S
H207 C212 0.930 . S
H208 C216 0.930 . S
O209 Co178 2.037 . S
O209 C229 1.234 . S
C210 O184 1.269 . S
C210 O185 1.257 . S
C211 H186 0.930 . S
C211 C214 1.388 1_455 S
C211 C216 1.418 . S
C212 H207 0.930 . S
C212 C215 1.404 . S
C212 C216 1.353 1_655 S
N213 Co178 2.145 . S
N213 C214 1.397 . S
N213 C215 1.334 . S
C214 H195 0.929 . S
C214 C211 1.388 1_655 S
C214 N213 1.397 . S
C215 H196 0.929 . S
C215 C212 1.404 . S
C215 N213 1.334 . S
C216 H208 0.930 . S
C216 C211 1.418 . S
C216 C212 1.353 1_455 S
C217 H187 0.930 . S
C217 N218 1.330 . S
C217 C219 1.446 . S
N218 Co177 2.151 . S
N218 C217 1.330 . S
N218 C222 1.418 . S
C219 H198 0.929 . S
C219 C217 1.446 . S
C219 C220 1.332 . S
C220 H200 0.931 . S
C220 C219 1.332 . S
C220 C221 1.267 . S
C221 H189 0.929 . S
C221 C220 1.267 . S
C221 C222 1.251 . S
C222 H192 0.929 . S
C222 N218 1.418 . S
C222 C221 1.251 . S
C223 H190 0.930 . S
C223 C225 1.406 . S
C223 C228 1.261 . S
C224 H191 0.930 . S
C224 N226 1.325 . S
C224 C227 1.357 . S
C225 H193 0.928 . S
C225 C223 1.406 . S
C225 N226 1.261 . S
N226 Co177 2.214 1_565 S
N226 C224 1.325 . S
N226 C225 1.261 . S
C227 H197 0.931 . S
C227 C224 1.357 . S
C227 C228 1.312 . S
C228 H199 0.930 . S
C228 C223 1.261 . S
C228 C227 1.312 . S
C229 O201 1.214 . S
C229 O209 1.234 . S
C230 H202 0.929 . S
C230 C233 1.391 . S
C230 C235 1.391 . S
C231 H203 0.929 . S
C231 C232 1.390 . S
C231 N234 1.391 . S
C232 H204 0.930 . S
C232 C231 1.390 . S
C232 C233 1.392 . S
C233 H205 0.929 . S
C233 C230 1.391 . S
C233 C232 1.392 . S
N234 Co178 2.257 . S
N234 C231 1.391 . S
N234 C235 1.388 . S
C235 H206 0.930 . S
C235 C230 1.391 . S
C235 N234 1.388 . S
Co236 O238 2.143 . S
Co236 O244 2.074 . S
Co236 O247 2.093 . S
Co236 O260 2.097 . S
Co236 N277 2.151 . S
Co236 N285 2.214 . S
Co237 O238 2.160 . S
Co237 O243 2.058 . S
Co237 O253 2.057 . S
Co237 O268 2.037 . S
Co237 N272 2.145 . S
Co237 N293 2.257 . S
O238 Co236 2.143 . S
O238 Co237 2.160 . S
C239 O240 1.278 . S
C239 O247 1.224 . S
O240 C239 1.278 . S
C241 O242 1.245 . S
C241 O253 1.232 . S
O242 C241 1.245 . S
O243 Co237 2.058 . S
O243 C269 1.269 . S
O244 Co236 2.074 . S
O244 C269 1.257 . S
H245 C270 0.930 . S
H246 C276 0.930 . S
O247 Co236 2.093 . S
O247 C239 1.224 . S
H248 C280 0.929 . S
H249 C282 0.930 . S
H250 C283 0.930 . S
H251 C281 0.929 . S
H252 C284 0.928 . S
O253 Co237 2.057 . S
O253 C241 1.232 . S
H254 C273 0.929 . S
H255 C274 0.929 . S
H256 C286 0.931 . S
H257 C278 0.929 . S
H258 C287 0.930 . S
H259 C279 0.931 . S
O260 Co236 2.097 . S
O260 C288 1.214 . S
H261 C289 0.929 . S
H262 C290 0.929 . S
H263 C291 0.930 . S
H264 C292 0.929 . S
H265 C294 0.930 . S
H266 C271 0.930 . S
H267 C275 0.930 . S
O268 Co237 2.037 . S
O268 C288 1.234 . S
C269 O243 1.269 . S
C269 O244 1.257 . S
C270 H245 0.930 . S
C270 C273 1.388 1_455 S
C270 C275 1.418 . S
C271 H266 0.930 . S
C271 C274 1.404 . S
C271 C275 1.353 1_655 S
N272 Co237 2.145 . S
N272 C273 1.397 . S
N272 C274 1.334 . S
C273 H254 0.929 . S
C273 C270 1.388 1_655 S
C273 N272 1.397 . S
C274 H255 0.929 . S
C274 C271 1.404 . S
C274 N272 1.334 . S
C275 H267 0.930 . S
C275 C270 1.418 . S
C275 C271 1.353 1_455 S
C276 H246 0.930 . S
C276 N277 1.330 . S
C276 C278 1.446 . S
N277 Co236 2.151 . S
N277 C276 1.330 . S
N277 C281 1.418 . S
C278 H257 0.929 . S
C278 C276 1.446 . S
C278 C279 1.332 . S
C279 H259 0.931 . S
C279 C278 1.332 . S
C279 C280 1.267 . S
C280 H248 0.929 . S
C280 C279 1.267 . S
C280 C281 1.251 . S
C281 H251 0.929 . S
C281 N277 1.418 . S
C281 C280 1.251 . S
C282 H249 0.930 . S
C282 C284 1.406 . S
C282 C287 1.261 . S
C283 H250 0.930 . S
C283 N285 1.325 . S
C283 C286 1.357 . S
C284 H252 0.928 . S
C284 C282 1.406 . S
C284 N285 1.261 . S
N285 Co236 2.214 . S
N285 C283 1.325 . S
N285 C284 1.261 . S
C286 H256 0.931 . S
C286 C283 1.357 . S
C286 C287 1.312 . S
C287 H258 0.930 . S
C287 C282 1.261 . S
C287 C286 1.312 . S
C288 O260 1.214 . S
C288 O268 1.234 . S
C289 H261 0.929 . S
C289 C292 1.391 . S
C289 C294 1.391 . S
C290 H262 0.929 . S
C290 C291 1.390 . S
C290 N293 1.391 . S
C291 H263 0.930 . S
C291 C290 1.390 . S
C291 C292 1.392 . S
C292 H264 0.929 . S
C292 C289 1.391 . S
C292 C291 1.392 . S
N293 Co237 2.257 . S
N293 C290 1.391 . S
N293 C294 1.388 . S
C294 H265 0.930 . S
C294 C289 1.391 . S
C294 N293 1.388 . S
Co295 O297 2.143 . S
Co295 O303 2.074 . S
Co295 O306 2.093 . S
Co295 O319 2.097 . S
Co295 N336 2.151 . S
Co295 N344 2.214 1_545 S
Co296 O297 2.160 . S
Co296 O302 2.058 . S
Co296 O312 2.057 . S
Co296 O327 2.037 . S
Co296 N331 2.145 . S
Co296 N352 2.257 . S
O297 Co295 2.143 . S
O297 Co296 2.160 . S
C298 O299 1.278 . S
C298 O306 1.224 . S
O299 C298 1.278 . S
C300 O301 1.245 . S
C300 O312 1.232 . S
O301 C300 1.245 . S
O302 Co296 2.058 . S
O302 C328 1.269 . S
O303 Co295 2.074 . S
O303 C328 1.257 . S
H304 C329 0.930 . S
H305 C335 0.930 . S
O306 Co295 2.093 . S
O306 C298 1.224 . S
H307 C339 0.929 . S
H308 C341 0.930 . S
H309 C342 0.930 . S
H310 C340 0.929 . S
H311 C343 0.928 . S
O312 Co296 2.057 . S
O312 C300 1.232 . S
H313 C332 0.929 . S
H314 C333 0.929 . S
H315 C345 0.931 . S
H316 C337 0.929 . S
H317 C346 0.930 . S
H318 C338 0.931 . S
O319 Co295 2.097 . S
O319 C347 1.214 . S
H320 C348 0.929 . S
H321 C349 0.929 . S
H322 C350 0.930 . S
H323 C351 0.929 . S
H324 C353 0.930 . S
H325 C330 0.930 . S
H326 C334 0.930 . S
O327 Co296 2.037 . S
O327 C347 1.234 . S
C328 O302 1.269 . S
C328 O303 1.257 . S
C329 H304 0.930 . S
C329 C332 1.388 . S
C329 C334 1.418 . S
C330 H325 0.930 . S
C330 C333 1.404 . S
C330 C334 1.353 . S
N331 Co296 2.145 . S
N331 C332 1.397 . S
N331 C333 1.334 . S
C332 H313 0.929 . S
C332 C329 1.388 . S
C332 N331 1.397 . S
C333 H314 0.929 . S
C333 C330 1.404 . S
C333 N331 1.334 . S
C334 H326 0.930 . S
C334 C329 1.418 . S
C334 C330 1.353 . S
C335 H305 0.930 . S
C335 N336 1.330 . S
C335 C337 1.446 . S
N336 Co295 2.151 . S
N336 C335 1.330 . S
N336 C340 1.418 . S
C337 H316 0.929 . S
C337 C335 1.446 . S
C337 C338 1.332 . S
C338 H318 0.931 . S
C338 C337 1.332 . S
C338 C339 1.267 . S
C339 H307 0.929 . S
C339 C338 1.267 . S
C339 C340 1.251 . S
C340 H310 0.929 . S
C340 N336 1.418 . S
C340 C339 1.251 . S
C341 H308 0.930 . S
C341 C343 1.406 . S
C341 C346 1.261 . S
C342 H309 0.930 . S
C342 N344 1.325 . S
C342 C345 1.357 . S
C343 H311 0.928 . S
C343 C341 1.406 . S
C343 N344 1.261 . S
N344 Co295 2.214 1_565 S
N344 C342 1.325 . S
N344 C343 1.261 . S
C345 H315 0.931 . S
C345 C342 1.357 . S
C345 C346 1.312 . S
C346 H317 0.930 . S
C346 C341 1.261 . S
C346 C345 1.312 . S
C347 O319 1.214 . S
C347 O327 1.234 . S
C348 H320 0.929 . S
C348 C351 1.391 . S
C348 C353 1.391 . S
C349 H321 0.929 . S
C349 C350 1.390 . S
C349 N352 1.391 . S
C350 H322 0.930 . S
C350 C349 1.390 . S
C350 C351 1.392 . S
C351 H323 0.929 . S
C351 C348 1.391 . S
C351 C350 1.392 . S
N352 Co296 2.257 . S
N352 C349 1.391 . S
N352 C353 1.388 . S
C353 H324 0.930 . S
C353 C348 1.391 . S
C353 N352 1.388 . S
Co354 O356 2.143 . S
Co354 O362 2.074 . S
Co354 O365 2.093 . S
Co354 O378 2.097 . S
Co354 N395 2.151 . S
Co354 N403 2.214 . S
Co355 O356 2.160 . S
Co355 O361 2.058 . S
Co355 O371 2.057 . S
Co355 O386 2.037 . S
Co355 N390 2.145 . S
Co355 N411 2.257 . S
O356 Co354 2.143 . S
O356 Co355 2.160 . S
C357 O358 1.278 . S
C357 O365 1.224 . S
O358 C357 1.278 . S
C359 O360 1.245 . S
C359 O371 1.232 . S
O360 C359 1.245 . S
O361 Co355 2.058 . S
O361 C387 1.269 . S
O362 Co354 2.074 . S
O362 C387 1.257 . S
H363 C388 0.930 . S
H364 C394 0.930 . S
O365 Co354 2.093 . S
O365 C357 1.224 . S
H366 C398 0.929 . S
H367 C400 0.930 . S
H368 C401 0.930 . S
H369 C399 0.929 . S
H370 C402 0.928 . S
O371 Co355 2.057 . S
O371 C359 1.232 . S
H372 C391 0.929 . S
H373 C392 0.929 . S
H374 C404 0.931 . S
H375 C396 0.929 . S
H376 C405 0.930 . S
H377 C397 0.931 . S
O378 Co354 2.097 . S
O378 C406 1.214 . S
H379 C407 0.929 . S
H380 C408 0.929 . S
H381 C409 0.930 . S
H382 C410 0.929 . S
H383 C412 0.930 . S
H384 C389 0.930 . S
H385 C393 0.930 . S
O386 Co355 2.037 . S
O386 C406 1.234 . S
C387 O361 1.269 . S
C387 O362 1.257 . S
C388 H363 0.930 . S
C388 C391 1.388 . S
C388 C393 1.418 . S
C389 H384 0.930 . S
C389 C392 1.404 . S
C389 C393 1.353 . S
N390 Co355 2.145 . S
N390 C391 1.397 . S
N390 C392 1.334 . S
C391 H372 0.929 . S
C391 C388 1.388 . S
C391 N390 1.397 . S
C392 H373 0.929 . S
C392 C389 1.404 . S
C392 N390 1.334 . S
C393 H385 0.930 . S
C393 C388 1.418 . S
C393 C389 1.353 . S
C394 H364 0.930 . S
C394 N395 1.330 . S
C394 C396 1.446 . S
N395 Co354 2.151 . S
N395 C394 1.330 . S
N395 C399 1.418 . S
C396 H375 0.929 . S
C396 C394 1.446 . S
C396 C397 1.332 . S
C397 H377 0.931 . S
C397 C396 1.332 . S
C397 C398 1.267 . S
C398 H366 0.929 . S
C398 C397 1.267 . S
C398 C399 1.251 . S
C399 H369 0.929 . S
C399 N395 1.418 . S
C399 C398 1.251 . S
C400 H367 0.930 . S
C400 C402 1.406 . S
C400 C405 1.261 . S
C401 H368 0.930 . S
C401 N403 1.325 . S
C401 C404 1.357 . S
C402 H370 0.928 . S
C402 C400 1.406 . S
C402 N403 1.261 . S
N403 Co354 2.214 . S
N403 C401 1.325 . S
N403 C402 1.261 . S
C404 H374 0.931 . S
C404 C401 1.357 . S
C404 C405 1.312 . S
C405 H376 0.930 . S
C405 C400 1.261 . S
C405 C404 1.312 . S
C406 O378 1.214 . S
C406 O386 1.234 . S
C407 H379 0.929 . S
C407 C410 1.391 . S
C407 C412 1.391 . S
C408 H380 0.929 . S
C408 C409 1.390 . S
C408 N411 1.391 . S
C409 H381 0.930 . S
C409 C408 1.390 . S
C409 C410 1.392 . S
C410 H382 0.929 . S
C410 C407 1.391 . S
C410 C409 1.392 . S
N411 Co355 2.257 . S
N411 C408 1.391 . S
N411 C412 1.388 . S
C412 H383 0.930 . S
C412 C407 1.391 . S
C412 N411 1.388 . S
Co413 O415 2.143 . S
Co413 O421 2.074 . S
Co413 O424 2.093 . S
Co413 O437 2.097 . S
Co413 N454 2.151 . S
Co413 N462 2.214 1_565 S
Co414 O415 2.160 . S
Co414 O420 2.058 . S
Co414 O430 2.057 . S
Co414 O445 2.037 . S
Co414 N449 2.145 . S
Co414 N470 2.257 . S
O415 Co413 2.143 . S
O415 Co414 2.160 . S
C416 O417 1.278 . S
C416 O424 1.224 . S
O417 C416 1.278 . S
C418 O419 1.245 . S
C418 O430 1.232 . S
O419 C418 1.245 . S
O420 Co414 2.058 . S
O420 C446 1.269 . S
O421 Co413 2.074 . S
O421 C446 1.257 . S
H422 C447 0.930 . S
H423 C453 0.930 . S
O424 Co413 2.093 . S
O424 C416 1.224 . S
H425 C457 0.929 . S
H426 C459 0.930 . S
H427 C460 0.930 . S
H428 C458 0.929 . S
H429 C461 0.928 . S
O430 Co414 2.057 . S
O430 C418 1.232 . S
H431 C450 0.929 . S
H432 C451 0.929 . S
H433 C463 0.931 . S
H434 C455 0.929 . S
H435 C464 0.930 . S
H436 C456 0.931 . S
O437 Co413 2.097 . S
O437 C465 1.214 . S
H438 C466 0.929 . S
H439 C467 0.929 . S
H440 C468 0.930 . S
H441 C469 0.929 . S
H442 C471 0.930 . S
H443 C448 0.930 . S
H444 C452 0.930 . S
O445 Co414 2.037 . S
O445 C465 1.234 . S
C446 O420 1.269 . S
C446 O421 1.257 . S
C447 H422 0.930 . S
C447 C450 1.388 1_655 S
C447 C452 1.418 . S
C448 H443 0.930 . S
C448 C451 1.404 . S
C448 C452 1.353 1_455 S
N449 Co414 2.145 . S
N449 C450 1.397 . S
N449 C451 1.334 . S
C450 H431 0.929 . S
C450 C447 1.388 1_455 S
C450 N449 1.397 . S
C451 H432 0.929 . S
C451 C448 1.404 . S
C451 N449 1.334 . S
C452 H444 0.930 . S
C452 C447 1.418 . S
C452 C448 1.353 1_655 S
C453 H423 0.930 . S
C453 N454 1.330 . S
C453 C455 1.446 . S
N454 Co413 2.151 . S
N454 C453 1.330 . S
N454 C458 1.418 . S
C455 H434 0.929 . S
C455 C453 1.446 . S
C455 C456 1.332 . S
C456 H436 0.931 . S
C456 C455 1.332 . S
C456 C457 1.267 . S
C457 H425 0.929 . S
C457 C456 1.267 . S
C457 C458 1.251 . S
C458 H428 0.929 . S
C458 N454 1.418 . S
C458 C457 1.251 . S
C459 H426 0.930 . S
C459 C461 1.406 . S
C459 C464 1.261 . S
C460 H427 0.930 . S
C460 N462 1.325 . S
C460 C463 1.357 . S
C461 H429 0.928 . S
C461 C459 1.406 . S
C461 N462 1.261 . S
N462 Co413 2.214 1_545 S
N462 C460 1.325 . S
N462 C461 1.261 . S
C463 H433 0.931 . S
C463 C460 1.357 . S
C463 C464 1.312 . S
C464 H435 0.930 . S
C464 C459 1.261 . S
C464 C463 1.312 . S
C465 O437 1.214 . S
C465 O445 1.234 . S
C466 H438 0.929 . S
C466 C469 1.391 . S
C466 C471 1.391 . S
C467 H439 0.929 . S
C467 C468 1.390 . S
C467 N470 1.391 . S
C468 H440 0.930 . S
C468 C467 1.390 . S
C468 C469 1.392 . S
C469 H441 0.929 . S
C469 C466 1.391 . S
C469 C468 1.392 . S
N470 Co414 2.257 . S
N470 C467 1.391 . S
N470 C471 1.388 . S
C471 H442 0.930 . S
C471 C466 1.391 . S
C471 N470 1.388 . S
C472 C473 1.349 . S
C472 C474 1.327 . S
C472 H497 0.950 . S
C473 C472 1.349 . S
C473 C489 1.349 . S
C474 C472 1.327 . S
C474 C493 1.429 . S
C474 H498 0.950 . S
C475 C492 1.574 . S
C475 C494 1.368 . S
C475 H499 0.949 . S
H476 C480 0.949 . S
C477 C478 1.349 . S
C477 C479 1.327 . S
C477 H500 0.950 . S
C478 C477 1.349 . S
C478 C490 1.349 . S
C479 C477 1.327 . S
C479 C495 1.429 . S
C479 H501 0.950 . S
C480 H476 0.949 . S
C480 C488 1.574 . S
C480 C496 1.368 . S
H481 C489 0.950 . S
H482 C487 0.950 . S
H483 C488 0.949 . S
H484 C490 0.950 . S
H485 C491 0.950 . S
H486 C492 0.949 . S
C487 H482 0.950 . S
C487 C489 1.327 . S
C487 C493 1.429 . S
C488 C480 1.574 . S
C488 H483 0.949 . S
C488 C494 1.368 . S
C489 C473 1.349 . S
C489 H481 0.950 . S
C489 C487 1.327 . S
C490 C478 1.349 . S
C490 H484 0.950 . S
C490 C491 1.327 . S
C491 H485 0.950 . S
C491 C490 1.327 . S
C491 C495 1.429 . S
C492 C475 1.574 . S
C492 H486 0.949 . S
C492 C496 1.368 . S
C493 C474 1.429 . S
C493 C487 1.429 . S
C493 C494 1.523 . S
C494 C475 1.368 . S
C494 C488 1.368 . S
C494 C493 1.523 . S
C495 C479 1.429 . S
C495 C491 1.429 . S
C495 C496 1.523 . S
C496 C480 1.368 . S
C496 C492 1.368 . S
C496 C495 1.523 . S
H497 C472 0.950 . S
H498 C474 0.950 . S
H499 C475 0.949 . S
H500 C477 0.950 . S
H501 C479 0.950 . S
C502 C503 1.349 . S
C502 C504 1.327 1_655 S
C502 H527 0.950 . S
C503 C502 1.349 . S
C503 C519 1.349 . S
C504 C502 1.327 1_455 S
C504 C523 1.429 . S
C504 H528 0.950 . S
C505 C522 1.568 1_545 S
C505 C524 1.368 . S
C505 H529 0.949 . S
H506 C510 0.949 . S
C507 C508 1.349 . S
C507 C509 1.327 . S
C507 H530 0.950 . S
C508 C507 1.349 . S
C508 C520 1.349 . S
C509 C507 1.327 . S
C509 C525 1.429 . S
C509 H531 0.950 . S
C510 H506 0.949 . S
C510 C518 1.574 . S
C510 C526 1.368 . S
H511 C519 0.950 . S
H512 C517 0.950 . S
H513 C518 0.949 . S
H514 C520 0.950 . S
H515 C521 0.950 . S
H516 C522 0.948 1_545 S
C517 H512 0.950 . S
C517 C519 1.327 . S
C517 C523 1.429 1_655 S
C518 C510 1.574 . S
C518 H513 0.949 . S
C518 C524 1.368 1_565 S
C519 C503 1.349 . S
C519 H511 0.950 . S
C519 C517 1.327 . S
C520 C508 1.349 . S
C520 H514 0.950 . S
C520 C521 1.327 . S
C521 H515 0.950 . S
C521 C520 1.327 . S
C521 C525 1.429 . S
C522 C505 1.568 1_565 S
C522 H516 0.948 1_565 S
C522 C526 1.376 . S
C523 C504 1.429 . S
C523 C517 1.429 1_455 S
C523 C524 1.523 . S
C524 C505 1.368 . S
C524 C518 1.368 1_545 S
C524 C523 1.523 . S
C525 C509 1.429 . S
C525 C521 1.429 . S
C525 C526 1.523 . S
C526 C510 1.368 . S
C526 C522 1.376 . S
C526 C525 1.523 . S
H527 C502 0.950 . S
H528 C504 0.950 . S
H529 C505 0.949 . S
H530 C507 0.950 . S
H531 C509 0.950 . S
C532 C533 1.349 . S
C532 C534 1.327 . S
C532 H557 0.950 . S
C533 C532 1.349 . S
C533 C549 1.349 . S
C534 C532 1.327 . S
C534 C553 1.429 . S
C534 H558 0.950 . S
C535 C552 1.574 . S
C535 C554 1.368 . S
C535 H559 0.949 . S
H536 C540 0.949 . S
C537 C538 1.349 . S
C537 C539 1.327 . S
C537 H560 0.950 . S
C538 C537 1.349 . S
C538 C550 1.349 . S
C539 C537 1.327 . S
C539 C555 1.429 1_455 S
C539 H561 0.950 . S
C540 H536 0.949 . S
C540 C548 1.574 . S
C540 C556 1.368 . S
H541 C549 0.950 . S
H542 C547 0.950 . S
H543 C548 0.949 . S
H544 C550 0.950 . S
H545 C551 0.950 . S
H546 C552 0.953 . S
C547 H542 0.950 . S
C547 C549 1.327 . S
C547 C553 1.429 . S
C548 C540 1.574 . S
C548 H543 0.949 . S
C548 C554 1.368 . S
C549 C533 1.349 . S
C549 H541 0.950 . S
C549 C547 1.327 . S
C550 C538 1.349 . S
C550 H544 0.950 . S
C550 C551 1.327 1_455 S
C551 H545 0.950 . S
C551 C550 1.327 1_655 S
C551 C555 1.429 . S
C552 C535 1.574 . S
C552 H546 0.953 . S
C552 C556 1.368 . S
C553 C534 1.429 . S
C553 C547 1.429 . S
C553 C554 1.523 . S
C554 C535 1.368 . S
C554 C548 1.368 . S
C554 C553 1.523 . S
C555 C539 1.429 1_655 S
C555 C551 1.429 . S
C555 C556 1.523 . S
C556 C540 1.368 . S
C556 C552 1.368 . S
C556 C555 1.523 . S
H557 C532 0.950 . S
H558 C534 0.950 . S
H559 C535 0.949 . S
H560 C537 0.950 . S
H561 C539 0.950 . S
C562 C563 1.349 . S
C562 C564 1.327 . S
C562 H587 0.950 . S
C563 C562 1.349 . S
C563 C579 1.349 . S
C564 C562 1.327 . S
C564 C583 1.429 . S
C564 H588 0.950 1_545 S
C565 C582 1.574 . S
C565 C584 1.368 . S
C565 H589 0.949 . S
H566 C570 0.949 . S
C567 C568 1.349 . S
C567 C569 1.327 . S
C567 H590 0.950 . S
C568 C567 1.349 . S
C568 C580 1.349 . S
C569 C567 1.327 . S
C569 C585 1.429 . S
C569 H591 0.950 1_565 S
C570 H566 0.949 . S
C570 C578 1.574 . S
C570 C586 1.368 . S
H571 C579 0.950 . S
H572 C577 0.950 . S
H573 C578 0.949 . S
H574 C580 0.950 . S
H575 C581 0.950 . S
H576 C582 0.949 . S
C577 H572 0.950 . S
C577 C579 1.327 . S
C577 C583 1.429 . S
C578 C570 1.574 . S
C578 H573 0.949 . S
C578 C584 1.368 1_565 S
C579 C563 1.349 . S
C579 H571 0.950 . S
C579 C577 1.327 . S
C580 C568 1.349 . S
C580 H574 0.950 . S
C580 C581 1.327 . S
C581 H575 0.950 . S
C581 C580 1.327 . S
C581 C585 1.429 . S
C582 C565 1.574 . S
C582 H576 0.949 . S
C582 C586 1.368 1_545 S
C583 C564 1.429 . S
C583 C577 1.429 . S
C583 C584 1.523 . S
C584 C565 1.368 . S
C584 C578 1.368 1_545 S
C584 C583 1.523 . S
C585 C569 1.429 . S
C585 C581 1.429 . S
C585 C586 1.523 . S
C586 C570 1.368 . S
C586 C582 1.368 1_565 S
C586 C585 1.523 . S
H587 C562 0.950 . S
H588 C564 0.950 1_565 S
H589 C565 0.949 . S
H590 C567 0.950 . S
H591 C569 0.950 1_545 S
C592 C593 1.349 . S
C592 C594 1.327 . S
C592 H617 0.950 . S
C593 C592 1.349 . S
C593 C609 1.349 . S
C594 C592 1.327 . S
C594 C613 1.429 . S
C594 H618 0.950 . S
C595 C612 1.574 . S
C595 C614 1.368 . S
C595 H619 0.949 . S
H596 C600 0.949 . S
C597 C598 1.349 . S
C597 C599 1.327 . S
C597 H620 0.950 . S
C598 C597 1.349 . S
C598 C610 1.349 . S
C599 C597 1.327 . S
C599 C615 1.429 . S
C599 H621 0.950 . S
C600 H596 0.949 . S
C600 C608 1.574 . S
C600 C616 1.368 . S
H601 C609 0.950 . S
H602 C607 0.950 . S
H603 C608 0.949 . S
H604 C610 0.950 . S
H605 C611 0.950 . S
H606 C612 0.949 . S
C607 H602 0.950 . S
C607 C609 1.327 . S
C607 C613 1.429 . S
C608 C600 1.574 . S
C608 H603 0.949 . S
C608 C614 1.368 . S
C609 C593 1.349 . S
C609 H601 0.950 . S
C609 C607 1.327 . S
C610 C598 1.349 . S
C610 H604 0.950 . S
C610 C611 1.327 . S
C611 H605 0.950 . S
C611 C610 1.327 . S
C611 C615 1.429 . S
C612 C595 1.574 . S
C612 H606 0.949 . S
C612 C616 1.368 . S
C613 C594 1.429 . S
C613 C607 1.429 . S
C613 C614 1.523 . S
C614 C595 1.368 . S
C614 C608 1.368 . S
C614 C613 1.523 . S
C615 C599 1.429 . S
C615 C611 1.429 . S
C615 C616 1.523 . S
C616 C600 1.368 . S
C616 C612 1.368 . S
C616 C615 1.523 . S
H617 C592 0.950 . S
H618 C594 0.950 . S
H619 C595 0.949 . S
H620 C597 0.950 . S
H621 C599 0.950 . S
C622 C623 1.349 . S
C622 C624 1.327 . S
C622 H647 0.950 . S
C623 C622 1.349 . S
C623 C639 1.349 . S
C624 C622 1.327 . S
C624 C643 1.429 . S
C624 H648 0.950 1_545 S
C625 C642 1.574 . S
C625 C644 1.368 . S
C625 H649 0.949 . S
H626 C630 0.949 . S
C627 C628 1.349 . S
C627 C629 1.327 . S
C627 H650 0.950 . S
C628 C627 1.349 . S
C628 C640 1.349 . S
C629 C627 1.327 . S
C629 C645 1.429 1_455 S
C629 H651 0.950 1_465 S
C630 H626 0.949 . S
C630 C638 1.574 . S
C630 C646 1.368 . S
H631 C639 0.950 . S
H632 C637 0.950 . S
H633 C638 0.949 . S
H634 C640 0.950 . S
H635 C641 0.950 . S
H636 C642 0.949 . S
C637 H632 0.950 . S
C637 C639 1.327 . S
C637 C643 1.429 . S
C638 C630 1.574 . S
C638 H633 0.949 . S
C638 C644 1.368 1_565 S
C639 C623 1.349 . S
C639 H631 0.950 . S
C639 C637 1.327 . S
C640 C628 1.349 . S
C640 H634 0.950 . S
C640 C641 1.327 . S
C641 H635 0.950 . S
C641 C640 1.327 . S
C641 C645 1.429 1_455 S
C642 C625 1.574 . S
C642 H636 0.949 . S
C642 C646 1.368 1_545 S
C643 C624 1.429 . S
C643 C637 1.429 . S
C643 C644 1.523 . S
C644 C625 1.368 . S
C644 C638 1.368 1_545 S
C644 C643 1.523 . S
C645 C629 1.429 1_655 S
C645 C641 1.429 1_655 S
C645 C646 1.523 . S
C646 C630 1.368 . S
C646 C642 1.368 1_565 S
C646 C645 1.523 . S
H647 C622 0.950 . S
H648 C624 0.950 1_565 S
H649 C625 0.949 . S
H650 C627 0.950 . S
H651 C629 0.950 1_645 S
C652 C653 1.349 . S
C652 C654 1.327 . S
C652 H677 0.950 . S
C653 C652 1.349 . S
C653 C669 1.349 . S
C654 C652 1.327 . S
C654 C673 1.429 . S
C654 H678 0.950 . S
C655 C672 1.574 . S
C655 C674 1.368 . S
C655 H679 0.949 . S
H656 C660 0.949 . S
C657 C658 1.349 . S
C657 C659 1.327 . S
C657 H680 0.950 . S
C658 C657 1.349 . S
C658 C670 1.349 . S
C659 C657 1.327 . S
C659 C675 1.429 1_655 S
C659 H681 0.950 . S
C660 H656 0.949 . S
C660 C668 1.574 . S
C660 C676 1.368 . S
H661 C669 0.950 . S
H662 C667 0.950 . S
H663 C668 0.949 . S
H664 C670 0.950 . S
H665 C671 0.950 1_455 S
H666 C672 0.949 . S
C667 H662 0.950 . S
C667 C669 1.327 . S
C667 C673 1.429 . S
C668 C660 1.574 . S
C668 H663 0.949 . S
C668 C674 1.368 . S
C669 C653 1.349 . S
C669 H661 0.950 . S
C669 C667 1.327 . S
C670 C658 1.349 . S
C670 H664 0.950 . S
C670 C671 1.327 . S
C671 H665 0.950 1_655 S
C671 C670 1.327 . S
C671 C675 1.429 1_655 S
C672 C655 1.574 . S
C672 H666 0.949 . S
C672 C676 1.368 . S
C673 C654 1.429 . S
C673 C667 1.429 . S
C673 C674 1.523 . S
C674 C655 1.368 . S
C674 C668 1.368 . S
C674 C673 1.523 . S
C675 C659 1.429 1_455 S
C675 C671 1.429 1_455 S
C675 C676 1.523 . S
C676 C660 1.368 . S
C676 C672 1.368 . S
C676 C675 1.523 . S
H677 C652 0.950 . S
H678 C654 0.950 . S
H679 C655 0.949 . S
H680 C657 0.950 . S
H681 C659 0.950 . S
C682 C683 1.349 . S
C682 C684 1.327 . S
C682 H707 0.950 . S
C683 C682 1.349 . S
C683 C699 1.349 . S
C684 C682 1.327 . S
C684 C703 1.429 . S
C684 H708 0.950 . S
C685 C702 1.574 1_565 S
C685 C704 1.368 . S
C685 H709 0.949 . S
H686 C690 0.949 . S
C687 C688 1.349 . S
C687 C689 1.327 . S
C687 H710 0.950 . S
C688 C687 1.349 . S
C688 C700 1.349 . S
C689 C687 1.327 . S
C689 C705 1.429 . S
C689 H711 0.950 . S
C690 H686 0.949 . S
C690 C698 1.574 . S
C690 C706 1.368 1_565 S
H691 C699 0.950 . S
H692 C697 0.950 . S
H693 C698 0.949 . S
H694 C700 0.950 . S
H695 C701 0.950 . S
H696 C702 0.949 . S
C697 H692 0.950 . S
C697 C699 1.327 . S
C697 C703 1.429 . S
C698 C690 1.574 . S
C698 H693 0.949 . S
C698 C704 1.368 . S
C699 C683 1.349 . S
C699 H691 0.950 . S
C699 C697 1.327 . S
C700 C688 1.349 . S
C700 H694 0.950 . S
C700 C701 1.327 . S
C701 H695 0.950 . S
C701 C700 1.327 . S
C701 C705 1.429 . S
C702 C685 1.574 1_545 S
C702 H696 0.949 . S
C702 C706 1.368 . S
C703 C684 1.429 . S
C703 C697 1.429 . S
C703 C704 1.523 . S
C704 C685 1.368 . S
C704 C698 1.368 . S
C704 C703 1.523 . S
C705 C689 1.429 . S
C705 C701 1.429 . S
C705 C706 1.523 . S
C706 C690 1.368 1_545 S
C706 C702 1.368 . S
C706 C705 1.523 . S
H707 C682 0.950 . S
H708 C684 0.950 . S
H709 C685 0.949 . S
H710 C687 0.950 . S
H711 C689 0.950 . S
C712 C713 1.349 . S
C712 C714 1.327 . S
C712 H737 0.950 . S
C713 C712 1.349 . S
C713 C729 1.349 . S
C714 C712 1.327 . S
C714 C733 1.429 . S
C714 H738 0.950 . S
C715 C732 1.574 . S
C715 C734 1.368 1_655 S
C715 H739 0.949 . S
H716 C720 0.949 . S
C717 C718 1.349 . S
C717 C719 1.327 . S
C717 H740 0.950 . S
C718 C717 1.349 . S
C718 C730 1.349 . S
C719 C717 1.327 . S
C719 C735 1.429 . S
C719 H741 0.950 . S
C720 H716 0.949 . S
C720 C728 1.574 . S
C720 C736 1.368 1_455 S
H721 C729 0.950 . S
H722 C727 0.950 . S
H723 C728 0.949 . S
H724 C730 0.950 . S
H725 C731 0.950 . S
H726 C732 0.949 . S
C727 H722 0.950 . S
C727 C729 1.327 . S
C727 C733 1.429 . S
C728 C720 1.574 . S
C728 H723 0.949 . S
C728 C734 1.368 . S
C729 C713 1.349 . S
C729 H721 0.950 . S
C729 C727 1.327 . S
C730 C718 1.349 . S
C730 H724 0.950 . S
C730 C731 1.327 . S
C731 H725 0.950 . S
C731 C730 1.327 . S
C731 C735 1.429 . S
C732 C715 1.574 . S
C732 H726 0.949 . S
C732 C736 1.368 . S
C733 C714 1.429 . S
C733 C727 1.429 . S
C733 C734 1.523 . S
C734 C715 1.368 1_455 S
C734 C728 1.368 . S
C734 C733 1.523 . S
C735 C719 1.429 . S
C735 C731 1.429 . S
C735 C736 1.523 . S
C736 C720 1.368 1_655 S
C736 C732 1.368 . S
C736 C735 1.523 . S
H737 C712 0.950 . S
H738 C714 0.950 . S
H739 C715 0.949 . S
H740 C717 0.950 . S
H741 C719 0.950 . S
C742 C743 1.349 . S
C742 C744 1.327 . S
C742 H767 0.950 . S
C743 C742 1.349 . S
C743 C759 1.349 . S
C744 C742 1.327 . S
C744 C763 1.429 . S
C744 H768 0.950 1_565 S
C745 C762 1.574 . S
C745 C764 1.368 . S
C745 H769 0.949 . S
H746 C750 0.949 . S
C747 C748 1.349 . S
C747 C749 1.327 . S
C747 H770 0.950 . S
C748 C747 1.349 . S
C748 C760 1.349 . S
C749 C747 1.327 . S
C749 C765 1.429 . S
C749 H771 0.950 1_545 S
C750 H746 0.949 . S
C750 C758 1.574 . S
C750 C766 1.368 . S
H751 C759 0.950 . S
H752 C757 0.950 . S
H753 C758 0.949 . S
H754 C760 0.950 . S
H755 C761 0.950 . S
H756 C762 0.949 . S
C757 H752 0.950 . S
C757 C759 1.327 . S
C757 C763 1.429 . S
C758 C750 1.574 . S
C758 H753 0.949 . S
C758 C764 1.368 1_545 S
C759 C743 1.349 . S
C759 H751 0.950 . S
C759 C757 1.327 . S
C760 C748 1.349 . S
C760 H754 0.950 . S
C760 C761 1.327 . S
C761 H755 0.950 . S
C761 C760 1.327 . S
C761 C765 1.429 . S
C762 C745 1.574 . S
C762 H756 0.949 . S
C762 C766 1.368 1_565 S
C763 C744 1.429 . S
C763 C757 1.429 . S
C763 C764 1.523 . S
C764 C745 1.368 . S
C764 C758 1.368 1_565 S
C764 C763 1.523 . S
C765 C749 1.429 . S
C765 C761 1.429 . S
C765 C766 1.523 . S
C766 C750 1.368 . S
C766 C762 1.368 1_545 S
C766 C765 1.523 . S
H767 C742 0.950 . S
H768 C744 0.950 1_545 S
H769 C745 0.949 . S
H770 C747 0.950 . S
H771 C749 0.950 1_565 S
C772 C773 1.349 . S
C772 C774 1.327 . S
C772 H797 0.950 . S
C773 C772 1.349 . S
C773 C789 1.349 . S
C774 C772 1.327 . S
C774 C793 1.429 . S
C774 H798 0.950 . S
C775 C792 1.574 1_554 S
C775 C794 1.368 . S
C775 H799 0.949 . S
H776 C780 0.949 . S
C777 C778 1.349 . S
C777 C779 1.327 . S
C777 H800 0.950 . S
C778 C777 1.349 . S
C778 C790 1.349 . S
C779 C777 1.327 . S
C779 C795 1.429 . S
C779 H801 0.950 . S
C780 H776 0.949 . S
C780 C788 1.574 1_556 S
C780 C796 1.368 . S
H781 C789 0.950 . S
H782 C787 0.950 . S
H783 C788 0.949 . S
H784 C790 0.950 . S
H785 C791 0.950 . S
H786 C792 0.949 . S
C787 H782 0.950 . S
C787 C789 1.327 . S
C787 C793 1.429 . S
C788 C780 1.574 1_554 S
C788 H783 0.949 . S
C788 C794 1.368 . S
C789 C773 1.349 . S
C789 H781 0.950 . S
C789 C787 1.327 . S
C790 C778 1.349 . S
C790 H784 0.950 . S
C790 C791 1.327 . S
C791 H785 0.950 . S
C791 C790 1.327 . S
C791 C795 1.429 . S
C792 C775 1.574 1_556 S
C792 H786 0.949 . S
C792 C796 1.368 . S
C793 C774 1.429 . S
C793 C787 1.429 . S
C793 C794 1.523 . S
C794 C775 1.368 . S
C794 C788 1.368 . S
C794 C793 1.523 . S
C795 C779 1.429 . S
C795 C791 1.429 . S
C795 C796 1.523 . S
C796 C780 1.368 . S
C796 C792 1.368 . S
C796 C795 1.523 . S
H797 C772 0.950 . S
H798 C774 0.950 . S
H799 C775 0.949 . S
H800 C777 0.950 . S
H801 C779 0.950 . S
C802 C803 1.349 . S
C802 C804 1.327 . S
C802 H827 0.950 . S
C803 C802 1.349 . S
C803 C819 1.349 . S
C804 C802 1.327 . S
C804 C823 1.429 . S
C804 H828 0.950 . S
C805 C822 1.574 . S
C805 C824 1.368 1_645 S
C805 H829 0.949 . S
H806 C810 0.949 . S
C807 C808 1.349 . S
C807 C809 1.327 . S
C807 H830 0.950 . S
C808 C807 1.349 . S
C808 C820 1.349 . S
C809 C807 1.327 . S
C809 C825 1.429 . S
C809 H831 0.950 . S
C810 H806 0.949 . S
C810 C818 1.574 . S
C810 C826 1.368 1_465 S
H811 C819 0.950 . S
H812 C817 0.950 . S
H813 C818 0.949 . S
H814 C820 0.950 . S
H815 C821 0.950 . S
H816 C822 0.949 . S
C817 H812 0.950 . S
C817 C819 1.327 . S
C817 C823 1.429 . S
C818 C810 1.574 . S
C818 H813 0.949 . S
C818 C824 1.368 1_554 S
C819 C803 1.349 . S
C819 H811 0.950 . S
C819 C817 1.327 . S
C820 C808 1.349 . S
C820 H814 0.950 . S
C820 C821 1.327 . S
C821 H815 0.950 . S
C821 C820 1.327 . S
C821 C825 1.429 . S
C822 C805 1.574 . S
C822 H816 0.949 . S
C822 C826 1.368 1_556 S
C823 C804 1.429 . S
C823 C817 1.429 . S
C823 C824 1.523 . S
C824 C805 1.368 1_465 S
C824 C818 1.368 1_556 S
C824 C823 1.523 . S
C825 C809 1.429 . S
C825 C821 1.429 . S
C825 C826 1.523 . S
C826 C810 1.368 1_645 S
C826 C822 1.368 1_554 S
C826 C825 1.523 . S
H827 C802 0.950 . S
H828 C804 0.950 . S
H829 C805 0.949 . S
H830 C807 0.950 . S
H831 C809 0.950 . S
C832 C833 1.349 . S
C832 C834 1.327 . S
C832 H857 0.950 . S
C833 C832 1.349 . S
C833 C849 1.349 . S
C834 C832 1.327 . S
C834 C853 1.429 . S
C834 H858 0.950 . S
C835 C852 1.574 . S
C835 C854 1.368 . S
C835 H859 0.949 . S
H836 C840 0.949 . S
C837 C838 1.349 . S
C837 C839 1.327 . S
C837 H860 0.950 . S
C838 C837 1.349 . S
C838 C850 1.349 . S
C839 C837 1.327 . S
C839 C855 1.429 . S
C839 H861 0.950 . S
C840 H836 0.949 . S
C840 C848 1.574 . S
C840 C856 1.368 . S
H841 C849 0.950 . S
H842 C847 0.950 . S
H843 C848 0.949 . S
H844 C850 0.950 . S
H845 C851 0.950 . S
H846 C852 0.949 . S
C847 H842 0.950 . S
C847 C849 1.327 . S
C847 C853 1.429 . S
C848 C840 1.574 . S
C848 H843 0.949 . S
C848 C854 1.368 . S
C849 C833 1.349 . S
C849 H841 0.950 . S
C849 C847 1.327 . S
C850 C838 1.349 . S
C850 H844 0.950 . S
C850 C851 1.327 . S
C851 H845 0.950 . S
C851 C850 1.327 . S
C851 C855 1.429 . S
C852 C835 1.574 . S
C852 H846 0.949 . S
C852 C856 1.368 . S
C853 C834 1.429 . S
C853 C847 1.429 . S
C853 C854 1.523 . S
C854 C835 1.368 . S
C854 C848 1.368 . S
C854 C853 1.523 . S
C855 C839 1.429 . S
C855 C851 1.429 . S
C855 C856 1.523 . S
C856 C840 1.368 . S
C856 C852 1.368 . S
C856 C855 1.523 . S
H857 C832 0.950 . S
H858 C834 0.950 . S
H859 C835 0.949 . S
H860 C837 0.950 . S
H861 C839 0.950 . S
C862 C863 1.349 . S
C862 C864 1.327 . S
C862 H887 0.950 . S
C863 C862 1.349 . S
C863 C879 1.349 . S
C864 C862 1.327 . S
C864 C883 1.429 . S
C864 H888 0.950 . S
C865 C882 1.574 . S
C865 C884 1.368 . S
C865 H889 0.949 . S
H866 C870 0.949 . S
C867 C868 1.349 . S
C867 C869 1.327 . S
C867 H890 0.950 . S
C868 C867 1.349 . S
C868 C880 1.349 . S
C869 C867 1.327 . S
C869 C885 1.429 . S
C869 H891 0.950 . S
C870 H866 0.949 . S
C870 C878 1.574 . S
C870 C886 1.368 . S
H871 C879 0.950 . S
H872 C877 0.950 . S
H873 C878 0.949 . S
H874 C880 0.950 . S
H875 C881 0.950 . S
H876 C882 0.949 . S
C877 H872 0.950 . S
C877 C879 1.327 . S
C877 C883 1.429 . S
C878 C870 1.574 . S
C878 H873 0.949 . S
C878 C884 1.368 . S
C879 C863 1.349 . S
C879 H871 0.950 . S
C879 C877 1.327 . S
C880 C868 1.349 . S
C880 H874 0.950 . S
C880 C881 1.327 . S
C881 H875 0.950 . S
C881 C880 1.327 . S
C881 C885 1.429 . S
C882 C865 1.574 . S
C882 H876 0.949 . S
C882 C886 1.368 . S
C883 C864 1.429 . S
C883 C877 1.429 . S
C883 C884 1.523 . S
C884 C865 1.368 . S
C884 C878 1.368 . S
C884 C883 1.523 . S
C885 C869 1.429 . S
C885 C881 1.429 . S
C885 C886 1.523 . S
C886 C870 1.368 . S
C886 C882 1.368 . S
C886 C885 1.523 . S
H887 C862 0.950 . S
H888 C864 0.950 . S
H889 C865 0.949 . S
H890 C867 0.950 . S
H891 C869 0.950 . S
C892 C893 1.349 . S
C892 C894 1.327 . S
C892 H917 0.950 . S
C893 C892 1.349 . S
C893 C909 1.349 . S
C894 C892 1.327 . S
C894 C913 1.429 . S
C894 H918 0.950 . S
C895 C912 1.574 . S
C895 C914 1.368 . S
C895 H919 0.949 . S
H896 C900 0.949 . S
C897 C898 1.349 . S
C897 C899 1.327 . S
C897 H920 0.950 . S
C898 C897 1.349 . S
C898 C910 1.349 . S
C899 C897 1.327 . S
C899 C915 1.429 . S
C899 H921 0.950 . S
C900 H896 0.949 . S
C900 C908 1.574 . S
C900 C916 1.368 . S
H901 C909 0.950 . S
H902 C907 0.950 . S
H903 C908 0.949 . S
H904 C910 0.950 . S
H905 C911 0.950 . S
H906 C912 0.949 . S
C907 H902 0.950 . S
C907 C909 1.327 . S
C907 C913 1.429 . S
C908 C900 1.574 . S
C908 H903 0.949 . S
C908 C914 1.368 . S
C909 C893 1.349 . S
C909 H901 0.950 . S
C909 C907 1.327 . S
C910 C898 1.349 . S
C910 H904 0.950 . S
C910 C911 1.327 . S
C911 H905 0.950 . S
C911 C910 1.327 . S
C911 C915 1.429 . S
C912 C895 1.574 . S
C912 H906 0.949 . S
C912 C916 1.368 . S
C913 C894 1.429 . S
C913 C907 1.429 . S
C913 C914 1.523 . S
C914 C895 1.368 . S
C914 C908 1.368 . S
C914 C913 1.523 . S
C915 C899 1.429 . S
C915 C911 1.429 . S
C915 C916 1.523 . S
C916 C900 1.368 . S
C916 C912 1.368 . S
C916 C915 1.523 . S
H917 C892 0.950 . S
H918 C894 0.950 . S
H919 C895 0.949 . S
H920 C897 0.950 . S
H921 C899 0.950 . S
C922 C923 1.349 . S
C922 C924 1.327 . S
C922 H947 0.950 . S
C923 C922 1.349 . S
C923 C939 1.349 . S
C924 C922 1.327 . S
C924 C943 1.429 . S
C924 H948 0.950 . S
C925 C942 1.574 . S
C925 C944 1.368 . S
C925 H949 0.949 . S
H926 C930 0.949 . S
C927 C928 1.349 . S
C927 C929 1.327 . S
C927 H950 0.950 . S
C928 C927 1.349 . S
C928 C940 1.349 . S
C929 C927 1.327 . S
C929 C945 1.429 . S
C929 H951 0.950 . S
C930 H926 0.949 . S
C930 C938 1.574 . S
C930 C946 1.368 . S
H931 C939 0.950 . S
H932 C937 0.950 . S
H933 C938 0.949 . S
H934 C940 0.950 . S
H935 C941 0.950 . S
H936 C942 0.949 . S
C937 H932 0.950 . S
C937 C939 1.327 . S
C937 C943 1.429 . S
C938 C930 1.574 . S
C938 H933 0.949 . S
C938 C944 1.368 . S
C939 C923 1.349 . S
C939 H931 0.950 . S
C939 C937 1.327 . S
C940 C928 1.349 . S
C940 H934 0.950 . S
C940 C941 1.327 . S
C941 H935 0.950 . S
C941 C940 1.327 . S
C941 C945 1.429 . S
C942 C925 1.574 . S
C942 H936 0.949 . S
C942 C946 1.368 . S
C943 C924 1.429 . S
C943 C937 1.429 . S
C943 C944 1.523 . S
C944 C925 1.368 . S
C944 C938 1.368 . S
C944 C943 1.523 . S
C945 C929 1.429 . S
C945 C941 1.429 . S
C945 C946 1.523 . S
C946 C930 1.368 . S
C946 C942 1.368 . S
C946 C945 1.523 . S
H947 C922 0.950 . S
H948 C924 0.950 . S
H949 C925 0.949 . S
H950 C927 0.950 . S
H951 C929 0.950 . S
C473 C3 1.572 . S
C478 C170 1.573 . S
C503 C229 1.573 . S
C508 C62 1.572 . S
C533 C121 1.572 . S
C538 C52 1.573 . S
C563 C180 1.572 . S
C568 C111 1.573 . S
C593 C406 1.573 . S
C598 C239 1.572 . S
C623 C298 1.572 . S
C628 C465 1.573 . S
C653 C357 1.572 . S
C658 C288 1.573 . S
C683 C416 1.572 . S
C688 C347 1.573 . S
C713 C33 1.594 . S
C718 C269 1.594 . S
C743 C92 1.594 . S
C748 C328 1.594 . S
C773 C151 1.594 . S
C778 C387 1.594 . S
C803 C446 1.594 . S
C808 C210 1.594 . S
C833 C5 1.655 . S
C838 C64 1.655 . S
C863 C182 1.655 . S
C868 C123 1.655 . S
C893 C300 1.655 . S
C898 C241 1.655 . S
C923 C359 1.655 . S
C928 C418 1.655 . S
