# Generated by pormake.
# Topology kag, (6)-cn, num edge types: 1
# Building blocks:
#     Node 0, Type 0, BuildingBlock: KUMJIN_clean_sbu_0, # of connection points: 6
#     Node 1, Type 0, BuildingBlock: KUMJIN_clean_sbu_0, # of connection points: 6
#     Node 2, Type 0, BuildingBlock: KUMJIN_clean_sbu_0, # of connection points: 6
#     Edge 3, Type (0, 0), BuildingBlock: EZIPEK_clean_linker_0, # of connection points: 2
#     Edge 4, Type (0, 0), BuildingBlock: EZIPEK_clean_linker_0, # of connection points: 2
#     Edge 5, Type (0, 0), BuildingBlock: EZIPEK_clean_linker_0, # of connection points: 2
#     Edge 6, Type (0, 0), BuildingBlock: EZIPEK_clean_linker_0, # of connection points: 2
#     Edge 7, Type (0, 0), BuildingBlock: EZIPEK_clean_linker_0, # of connection points: 2
#     Edge 8, Type (0, 0), BuildingBlock: EZIPEK_clean_linker_0, # of connection points: 2
#     Edge 9, Type (0, 0), BuildingBlock: EZIPEK_clean_linker_0, # of connection points: 2
#     Edge 10, Type (0, 0), BuildingBlock: EZIPEK_clean_linker_0, # of connection points: 2
#     Edge 11, Type (0, 0), BuildingBlock: EZIPEK_clean_linker_0, # of connection points: 2
# Relax obj value: 0.105
# Max RMSD: 0.223
# Mean RMSD: 0.161
data_MOF--net-kag--node1-KUMJIN_clean_sbu_0--edge1-EZIPEK_clean_linker_0
_symmetry_space_group_name_H-M    P1
_symmetry_Int_Tables_number       1
_symmetry_cell_setting            triclinic
loop_
_symmetry_equiv_pos_as_xyz
'x, y, z'
_cell_length_a     31.934354
_cell_length_b     22.443794
_cell_length_c     11.30486
_cell_angle_alpha  95.262212
_cell_angle_beta   114.42718
_cell_angle_gamma 93.09873
loop_
_atom_site_label
_atom_site_type_symbol
_atom_site_fract_x
_atom_site_fract_y
_atom_site_fract_z
_atom_type_partial_charge
Eu0 Eu 1.00301 0.4646 0.96788 0.0
C1 C 0.93503 0.7204 -0.00014 0.0
C2 C 0.87451 0.71725 0.7817 0.0
C3 C 0.87431 0.78773 0.957 0.0
C4 C 0.91566 0.69636 0.87024 0.0
C5 C 0.91442 0.76621 0.045 0.0
C6 C 0.85444 0.76338 0.82544 0.0
C7 C 0.97442 0.76676 0.26171 0.0
N8 N 0.97347 0.69829 0.08294 0.0
C9 C 0.99364 0.72178 0.21265 0.0
C10 C 0.93458 0.78912 0.17754 0.0
Eu11 Eu 1.00947 0.62673 -0.00472 0.0
N12 N 0.93528 0.65038 0.83223 0.0
C13 C 0.91119 0.61981 0.70868 0.0
C14 C 0.85376 0.69011 0.65233 0.0
C15 C 0.87196 0.64067 0.61611 0.0
H16 H 0.02443 0.70543 0.28111 0.0
H17 H 0.85453 0.61663 0.51829 0.0
H18 H 0.82303 0.77975 0.7587 0.0
H19 H 0.99046 0.78413 0.36469 0.0
H20 H 0.91988 0.57744 0.67915 0.0
H21 H 0.18509 0.43125 0.22179 0.0
H22 H 0.82245 0.70501 0.58159 0.0
H23 H 0.9222 0.37617 0.71664 0.0
H24 H 0.1102 0.4669 0.19795 0.0
H25 H 0.91659 0.29433 0.54691 0.0
H26 H 0.85818 0.82286 -0.01002 0.0
H27 H 0.19023 0.37035 0.03519 0.0
H28 H 0.14864 0.31235 0.81027 0.0
H29 H 0.91971 0.82406 0.21575 0.0
H30 H 0.07461 0.27311 0.62643 0.0
N31 N 0.07512 0.43112 -0.00218 0.0
C32 C 0.1127 0.44166 0.11552 0.0
C33 C 0.15768 0.38686 0.02378 0.0
C34 C 0.11765 0.37092 0.90777 0.0
C35 C 0.15488 0.421 0.12951 0.0
C36 C 0.07623 0.39378 0.89808 0.0
H37 H 0.98763 0.26336 0.53174 0.0
N38 N 0.99537 0.39229 0.79336 0.0
C39 C 0.95004 0.31659 0.6144 0.0
C40 C 0.03483 0.37288 0.79308 0.0
C41 C 0.95331 0.36305 0.71026 0.0
C42 C 0.99023 0.29932 0.606 0.0
C43 C 0.03339 0.32693 0.69724 0.0
O44 O 0.95018 0.40124 0.97502 0.0
O45 O 0.96668 0.54445 -0.00591 0.0
O46 O 1.01001 0.59743 0.17949 0.0
O47 O 0.03 0.5005 0.18427 0.0
O48 O 0.9258 0.47484 0.85938 0.0
O49 O 0.0217 0.39612 0.10261 0.0
O50 O 0.06809 0.66833 0.16832 0.0
O51 O 0.0536 0.54836 0.03014 0.0
O52 O 0.99605 0.49048 0.76829 0.0
O53 O 1.00014 0.59559 0.78985 0.0
O54 O 0.06497 0.61367 0.92339 0.0
O55 O 0.04145 0.71671 -0.00112 0.0
C56 C 0.92482 0.52653 0.9181 0.0
C57 C 0.97067 0.30584 0.02881 0.0
C58 C 0.9197 0.21586 0.00134 0.0
C59 C 0.93449 0.27691 0.04804 0.0
C60 C 0.94203 0.18352 0.93609 0.0
C61 C 0.99389 0.27262 0.96782 0.0
C62 C 0.97951 0.21168 0.92158 0.0
C63 C 0.0214 0.5498 0.24036 0.0
C64 C 0.97941 0.37155 0.06024 0.0
C65 C 0.07491 0.30745 0.70076 0.0
C66 C 0.11707 0.32978 0.80552 0.0
C67 C 0.07966 0.56558 0.97517 0.0
C68 C 0.12258 0.73477 0.14363 0.0
C69 C 0.1334 0.77291 0.06629 0.0
C70 C 0.17971 0.79313 0.09943 0.0
C71 C 0.21528 0.7737 0.20675 0.0
C72 C 0.15872 0.71816 0.25498 0.0
C73 C 0.20473 0.73621 0.28414 0.0
C74 C 0.99532 0.54288 0.72023 0.0
C75 C 0.0741 0.71572 0.11651 0.0
H76 H 0.91653 0.30256 0.09529 0.0
H77 H 0.9306 0.13666 0.89729 0.0
H78 H 0.02235 0.29386 0.95357 0.0
H79 H 0.99697 0.18649 0.87244 0.0
H80 H 0.10612 0.78858 0.9837 0.0
H81 H 0.25109 0.78909 0.23271 0.0
H82 H 0.15147 0.69163 0.32082 0.0
H83 H 0.23218 0.72233 0.3688 0.0
Eu84 Eu 0.57143 0.0793 0.07024 0.0
C85 C 0.3789 0.08944 0.62002 0.0
C86 C 0.34582 0.17926 0.65992 0.0
C87 C 0.32153 0.13106 0.43708 0.0
C88 C 0.37785 0.13672 0.70575 0.0
C89 C 0.351 0.08616 0.48451 0.0
C90 C 0.31838 0.177 0.52491 0.0
C91 C 0.37935 0.99082 0.455 0.0
N92 N 0.40575 1.04513 0.67023 0.0
C93 C 0.40502 0.99506 0.59059 0.0
C94 C 0.35239 1.03676 0.40152 0.0
Eu95 Eu 0.447 1.05499 0.90167 0.0
N96 N 0.40487 0.13782 0.83568 0.0
C97 C 0.40121 0.17949 0.92548 0.0
C98 C 0.34026 0.22022 0.752 0.0
C99 C 0.36799 0.22014 0.88546 0.0
H100 H 0.42496 0.95901 0.63171 0.0
H101 H 0.36388 0.25163 0.95743 0.0
H102 H 0.29393 0.20976 0.48779 0.0
H103 H 0.37989 0.95177 0.39208 0.0
H104 H 0.42226 0.17912 0.02873 0.0
H105 H 0.6479 0.87871 -0.00938 0.0
H106 H 0.31457 0.25195 0.72128 0.0
H107 H 0.59319 0.16838 0.34962 0.0
H108 H 0.59146 0.95422 0.92957 0.0
H109 H 0.64048 0.1715 0.58749 0.0
H110 H 0.29975 0.12933 0.33336 0.0
H111 H 0.7007 0.87691 0.22345 0.0
H112 H 0.72591 0.91823 0.45954 0.0
H113 H 0.33192 1.03291 0.29668 0.0
H114 H 0.7219 0.99571 0.6223 0.0
N115 N 0.61263 0.99468 0.12521 0.0
C116 C 0.61384 0.95291 0.0315 0.0
C117 C 0.6759 0.90995 0.19717 0.0
C118 C 0.67288 0.9511 0.29336 0.0
C119 C 0.64612 0.91075 0.0656 0.0
C120 C 0.64113 0.99441 0.2535 0.0
H121 H 0.68989 0.09004 0.67114 0.0
N122 N 0.61233 0.08368 0.30088 0.0
C123 C 0.64056 0.13395 0.52034 0.0
C124 C 0.64009 1.03931 0.3445 0.0
C125 C 0.61365 0.13201 0.38586 0.0
C126 C 0.66832 0.0878 0.56716 0.0
C127 C 0.66916 1.04043 0.47873 0.0
O128 O 0.62296 0.1547 0.11054 0.0
O129 O 0.50668 0.12934 -0.01076 0.0
O130 O 0.47452 0.07994 0.75462 0.0
O131 O 0.54856 1.05083 0.85001 0.0
O132 O 0.56627 0.18122 0.09863 0.0
O133 O 0.6248 0.07318 -0.00477 0.0
O134 O 0.39012 0.9855 0.85509 0.0
O135 O 0.51179 1.00504 0.98034 0.0
O136 O 0.54323 1.05364 0.21518 0.0
O137 O 0.47113 0.08789 0.12067 0.0
O138 O 0.45167 0.95279 0.88023 0.0
O139 O 0.40143 0.06122 0.00219 0.0
C140 C 0.52326 0.18575 0.02811 0.0
C141 C 0.6965 0.12918 0.13574 0.0
C142 C 0.7747 0.14416 0.14993 0.0
C143 C 0.72671 0.13171 0.07429 0.0
C144 C 0.79228 0.15008 0.28721 0.0
C145 C 0.71489 0.13577 0.27329 0.0
C146 C 0.76249 0.1451 0.34825 0.0
C147 C 0.51315 0.06581 0.74784 0.0
C148 C 0.64614 0.12554 0.05669 0.0
C149 C 0.69927 0.9956 0.51967 0.0
C150 C 0.70154 0.95148 0.42701 0.0
C151 C 0.49488 0.94868 0.94763 0.0
C152 C 0.32502 1.01307 0.88785 0.0
C153 C 0.3004 0.97006 0.92311 0.0
C154 C 0.25237 0.96932 0.87893 0.0
C155 C 0.22871 1.01142 0.79807 0.0
C156 C 0.30108 1.05524 0.80751 0.0
C157 C 0.25315 1.05429 0.76244 0.0
C158 C 0.50535 0.07063 0.22254 0.0
C159 C 0.37533 1.01219 0.93573 0.0
H160 H 0.7129 0.1275 0.96832 0.0
H161 H 0.82909 0.15972 0.34716 0.0
H162 H 0.69261 0.13574 0.32343 0.0
H163 H 0.77624 0.15042 0.45408 0.0
H164 H 0.31858 0.93753 0.98617 0.0
H165 H 0.19163 1.01141 0.76412 0.0
H166 H 0.31908 0.08893 0.7799 0.0
H167 H 0.23503 0.08709 0.70059 0.0
Eu168 Eu 0.44539 0.56085 0.90271 0.0
C169 C 0.63655 0.62258 0.36972 0.0
C170 C 0.64955 0.73053 0.38377 0.0
C171 C 0.67889 0.68197 0.58203 0.0
C172 C 0.6301 0.67404 0.30991 0.0
C173 C 0.66071 0.6256 0.50663 0.0
C174 C 0.67367 0.73436 0.52053 0.0
C175 C 0.64708 0.51726 0.48276 0.0
N176 N 0.61709 0.56945 0.2932 0.0
C177 C 0.62357 0.51671 0.34718 0.0
C178 C 0.66508 0.57198 0.56305 0.0
Eu179 Eu 0.57231 0.57264 0.06474 0.0
N180 N 0.6055 0.66864 0.17826 0.0
C181 C 0.60391 0.71659 0.11234 0.0
C182 C 0.64413 0.78114 0.31732 0.0
C183 C 0.62182 0.77372 0.18063 0.0
H184 H 0.60938 0.47425 0.28644 0.0
H185 H 0.61703 0.81164 0.12675 0.0
H186 H 0.68838 0.77748 0.57938 0.0
H187 H 0.65086 0.47552 0.52536 0.0
H188 H 0.5879 0.71072 0.00666 0.0
H189 H 0.38828 0.32593 0.84203 0.0
H190 H 0.6576 0.82563 0.37018 0.0
H191 H 0.41856 0.65835 0.67396 0.0
H192 H 0.42338 0.42448 0.9621 0.0
H193 H 0.38958 0.65353 0.43458 0.0
H194 H 0.69702 0.68565 0.68756 0.0
H195 H 0.35537 0.30983 0.59782 0.0
H196 H 0.33739 0.35492 0.38804 0.0
H197 H 0.68215 0.57214 0.66802 0.0
H198 H 0.33901 0.4444 0.27813 0.0
N199 N 0.41248 0.465 0.79111 0.0
C200 C 0.40912 0.41849 0.85633 0.0
C201 C 0.37038 0.35393 0.65082 0.0
C202 C 0.3714 0.40306 0.58407 0.0
C203 C 0.38844 0.36237 0.78755 0.0
C204 C 0.39166 0.4593 0.65817 0.0
H205 H 0.36083 0.5554 0.29532 0.0
N206 N 0.40878 0.56377 0.672 0.0
C207 C 0.38972 0.61277 0.47892 0.0
C208 C 0.39012 0.51004 0.59635 0.0
C209 C 0.40661 0.61531 0.61508 0.0
C210 C 0.37325 0.55736 0.40058 0.0
C211 C 0.37181 0.50534 0.45871 0.0
O212 O 0.37644 0.59136 0.85067 0.0
O213 O 0.50953 0.63017 -0.00902 0.0
O214 O 0.54803 0.57966 0.22602 0.0
O215 O 0.46798 0.55937 0.12203 0.0
O216 O 0.44686 0.66366 0.90978 0.0
O217 O 0.40002 0.52869 -0.00805 0.0
O218 O 0.63479 0.52877 0.08303 0.0
O219 O 0.50696 0.50434 0.98139 0.0
O220 O 0.47798 0.54 0.75796 0.0
O221 O 0.54555 0.60084 0.86242 0.0
O222 O 0.56813 0.46881 0.04755 0.0
O223 O 0.61475 0.59965 0.96356 0.0
C224 C 0.49054 0.68082 0.96757 0.0
C225 C 0.34104 0.58873 0.00081 0.0
C226 C 0.27146 0.59512 0.04669 0.0
C227 C 0.29658 0.56413 0.98514 0.0
C228 C 0.29249 0.65005 0.12554 0.0
C229 C 0.36067 0.64302 0.0824 0.0
C230 C 0.3366 0.67322 0.14415 0.0
C231 C 0.50732 0.57026 0.2284 0.0
C232 C 0.36608 0.55959 0.92803 0.0
C233 C 0.35329 0.44894 0.3841 0.0
C234 C 0.35258 0.39797 0.44666 0.0
C235 C 0.52439 0.45278 -0.00189 0.0
C236 C 0.69549 0.58843 0.0607 0.0
C237 C 0.72635 0.56438 0.01103 0.0
C238 C 0.77267 0.59139 0.05658 0.0
C239 C 0.78701 0.64272 0.1499 0.0
C240 C 0.7119 0.63916 0.15556 0.0
C241 C 0.75702 0.66604 0.19923 0.0
C242 C 0.51409 0.57056 0.75492 0.0
C243 C 0.64595 0.56286 0.0112 0.0
H244 H 0.28114 0.52196 0.92301 0.0
H245 H 0.27456 0.67535 0.17311 0.0
H246 H 0.39449 0.66256 0.09695 0.0
H247 H 0.35207 0.71539 0.20603 0.0
H248 H 0.71456 0.52508 0.93812 0.0
H249 H 0.82196 0.66432 0.18626 0.0
H250 H 0.68973 0.6586 0.1956 0.0
H251 H 0.76885 0.7053 0.27215 0.0
C252 C 0.98909 0.59755 0.52153 0.0
C253 C 0.99437 0.54454 0.5861 0.0
C254 C 0.02484 0.4999 0.43716 0.0
C255 C 0.01347 0.54844 0.36162 0.0
N256 N 0.95601 0.62175 0.30388 0.0
N257 N 0.98542 0.43736 0.52518 0.0
C258 C 0.98752 0.59178 0.39473 0.0
C259 C 1.00362 0.49276 0.52276 0.0
N260 N 0.98302 0.65268 0.57102 0.0
N261 N 0.05412 0.45976 0.42754 0.0
H262 H 0.95834 0.4335 0.55326 0.0
H263 H 0.98959 0.39924 0.4724 0.0
H264 H 0.07534 0.46681 0.37967 0.0
H265 H 0.06156 0.42406 0.48381 0.0
H266 H 0.98362 0.69061 0.52435 0.0
H267 H 0.97901 0.66359 0.65617 0.0
H268 H 0.93453 0.64944 0.32711 0.0
H269 H 0.94546 0.61241 0.20367 0.0
C270 C 0.50364 1.0143 0.40396 0.0
C271 C 0.50225 0.06969 0.352 0.0
C272 C 0.5139 0.12296 0.56579 0.0
C273 C 0.51584 0.06748 0.61796 0.0
N274 N 0.52706 0.96262 0.59668 0.0
N275 N 0.49243 0.17505 0.37335 0.0
C276 C 0.51475 1.0137 0.5398 0.0
C277 C 0.50354 0.12367 0.4301 0.0
N278 N 0.49041 0.96198 0.32053 0.0
N279 N 0.52597 0.17527 0.64912 0.0
H280 H 0.48162 0.17595 0.27323 0.0
H281 H 0.48859 0.21469 0.42178 0.0
H282 H 0.53761 0.17554 0.75013 0.0
H283 H 0.52979 0.21744 0.62124 0.0
H284 H 0.48595 0.92015 0.34909 0.0
H285 H 0.47848 0.96159 0.21939 0.0
H286 H 0.53087 0.92322 0.54735 0.0
H287 H 0.53928 0.9622 0.69731 0.0
C288 C 0.53711 0.62247 0.59049 0.0
C289 C 0.51814 0.57128 0.62576 0.0
C290 C 0.48775 0.52308 0.3976 0.0
C291 C 0.50686 0.57307 0.36128 0.0
N292 N 0.55135 0.67014 0.42445 0.0
N293 N 0.49862 0.4648 0.57447 0.0
C294 C 0.53201 0.6226 0.45854 0.0
C295 C 0.49946 0.51951 0.53202 0.0
N296 N 0.56034 0.67106 0.6812 0.0
N297 N 0.45933 0.47773 0.30576 0.0
H298 H 0.51634 0.4604 0.6734 0.0
H299 H 0.48852 0.42419 0.51276 0.0
H300 H 0.45132 0.47535 0.20646 0.0
H301 H 0.44093 0.44417 0.3282 0.0
H302 H 0.56743 0.71314 0.65839 0.0
H303 H 0.57265 0.6715 0.78143 0.0
H304 H 0.57534 0.70405 0.48991 0.0
H305 H 0.54486 0.67498 0.32828 0.0
C306 C 0.16616 0.56615 0.12685 0.0
C307 C 0.12887 0.55325 0.00044 0.0
C308 C 0.18515 0.56306 0.9029 0.0
C309 C 0.22282 0.5732 0.0288 0.0
N310 N 0.24839 0.56527 0.25901 0.0
N311 N 0.10723 0.51672 0.77481 0.0
C312 C 0.21297 0.56857 0.14026 0.0
C313 C 0.13992 0.54451 0.89088 0.0
N314 N 0.1573 0.5775 0.23444 0.0
N315 N 0.19134 0.57473 0.79445 0.0
H316 H 0.07577 0.49783 0.76789 0.0
H317 H 0.1141 0.50469 0.69385 0.0
H318 H 0.22294 0.5915 0.79805 0.0
H319 H 0.16387 0.57374 0.70268 0.0
H320 H 0.18294 0.59262 0.32754 0.0
H321 H 0.12397 0.57517 0.22956 0.0
H322 H 0.24348 0.55608 0.34131 0.0
H323 H 0.28242 0.565 0.27073 0.0
C324 C 0.8036 0.20339 0.01414 0.0
C325 C 0.80716 0.15455 0.08825 0.0
C326 C 0.88374 0.14097 0.09546 0.0
C327 C 0.87913 0.18799 0.0164 0.0
N328 N 0.82838 0.24921 0.86518 0.0
N329 N 0.84397 0.06574 0.16343 0.0
C330 C 0.83677 0.21404 0.96343 0.0
C331 C 0.84504 0.1195 0.11656 0.0
N332 N 0.77097 0.24248 4e-05 0.0
N333 N 0.92554 0.11936 0.15736 0.0
H334 H 0.81557 1.04828 0.17719 0.0
H335 H 0.86893 1.03595 0.17517 0.0
H336 H 0.95524 0.13491 0.14811 0.0
H337 H 0.93163 0.0897 0.2271 0.0
H338 H 0.77042 0.28212 0.95833 0.0
H339 H 0.7474 0.23896 0.0415 0.0
H340 H 0.79641 0.26511 0.81559 0.0
H341 H 0.85176 0.25687 0.8241 0.0
C342 C 0.49979 0.84011 0.85143 0.0
C343 C 0.5121 0.88357 0.96526 0.0
C344 C 0.51526 0.79343 0.08695 0.0
C345 C 0.507 0.74995 0.97601 0.0
N346 N 0.49528 0.73735 0.75147 0.0
N347 N 0.54395 0.89551 0.19954 0.0
C348 C 0.50109 0.77552 0.85905 0.0
C349 C 0.52408 0.85803 0.08524 0.0
N350 N 0.48428 0.86049 0.73215 0.0
N351 N 0.51097 0.77389 0.19221 0.0
H352 H 0.55045 0.94153 0.20051 0.0
H353 H 0.55782 0.88007 0.29091 0.0
H354 H 0.4999 0.72927 0.19095 0.0
H355 H 0.51274 0.80285 0.27203 0.0
H356 H 0.468 0.83301 0.64309 0.0
H357 H 0.48523 0.90605 0.7229 0.0
H358 H 0.49479 0.75125 0.66564 0.0
H359 H 0.49477 0.69106 0.75257 0.0
C360 C 0.84193 0.55385 0.8533 0.0
C361 C 0.88359 0.53761 0.94986 0.0
C362 C 0.8458 0.53973 0.10323 0.0
C363 C 0.80798 0.56645 0.0134 0.0
N364 N 0.77488 0.60837 0.80965 0.0
N365 N 0.91514 0.4899 0.1468 0.0
C366 C 0.80723 0.57568 0.88994 0.0
C367 C 0.88265 0.52334 0.06948 0.0
N368 N 0.83319 0.54306 0.72425 0.0
N369 N 0.84746 0.53213 0.22373 0.0
H370 H 0.94216 0.47679 0.12595 0.0
H371 H 0.91357 0.47101 0.22574 0.0
H372 H 0.81974 0.53854 0.2481 0.0
H373 H 0.87695 0.52252 0.30196 0.0
H374 H 0.80153 0.54898 0.64902 0.0
H375 H 0.85539 0.52109 0.69272 0.0
H376 H 0.77583 0.62186 0.72486 0.0
H377 H 0.74981 0.6265 0.83453 0.0
C378 C 0.19876 0.90034 0.08424 0.0
C379 C 0.19147 0.83914 0.02987 0.0
C380 C 0.21455 0.8661 0.85903 0.0
C381 C 0.22751 0.92582 0.92369 0.0
N382 N 0.23566 1.00003 0.10237 0.0
N383 N 0.19418 0.76176 0.8714 0.0
C384 C 0.22022 0.94323 0.03692 0.0
C385 C 0.19942 0.82142 0.91793 0.0
N386 N 0.18482 0.91732 0.18056 0.0
N387 N 0.2164 0.85253 0.74098 0.0
H388 H 0.18183 0.72808 0.91012 0.0
H389 H 0.20446 0.74511 0.79966 0.0
H390 H 0.22782 0.88431 0.69618 0.0
H391 H 0.20331 0.81136 0.6825 0.0
H392 H 0.18478 0.96195 0.21491 0.0
H393 H 0.16957 0.88686 0.21907 0.0
H394 H 0.23668 1.01322 0.19433 0.0
H395 H 0.25052 1.03333 0.06899 0.0
C396 C 0.51758 0.36008 0.11521 0.0
C397 C 0.50709 0.38446 -0.00533 0.0
C398 C 0.48982 0.27545 0.88845 0.0
C399 C 0.50624 0.25127 0.01111 0.0
N400 N 0.53895 0.27668 0.2453 0.0
N401 N 0.48462 0.36098 0.76476 0.0
C402 C 0.52032 0.29572 0.12468 0.0
C403 C 0.49351 0.34043 0.88133 0.0
N404 N 0.52533 0.39922 0.22357 0.0
N405 N 0.47014 0.23612 0.77677 0.0
H406 H 0.48097 0.4062 0.75509 0.0
H407 H 0.48094 0.33399 0.68039 0.0
H408 H 0.46842 0.18997 0.77956 0.0
H409 H 0.45252 0.2489 0.68397 0.0
H410 H 0.52772 0.386 0.31184 0.0
H411 H 0.52518 0.4455 0.22117 0.0
H412 H 0.55643 0.30521 0.33244 0.0
H413 H 0.53914 0.23142 0.25763 0.0
loop_
_geom_bond_atom_site_label_1
_geom_bond_atom_site_label_2
_geom_bond_distance
_geom_bond_site_symmetry_2
_ccdc_geom_bond_type
Eu0 N31 2.657 1_656 S
Eu0 N38 2.609 . S
Eu0 O44 2.558 . S
Eu0 O45 2.612 . S
Eu0 O47 2.339 1_656 S
Eu0 O48 2.563 . S
Eu0 O49 2.419 1_556 S
Eu0 O51 2.380 1_656 S
Eu0 O52 2.432 . S
Eu0 C64 2.848 . S
C1 C4 1.429 1_554 S
C1 C5 1.411 . S
C1 N8 1.377 1_655 S
C2 C4 1.420 . S
C2 C6 1.423 1_556 S
C2 C14 1.392 . S
C3 C5 1.420 . S
C3 C6 1.351 . S
C3 H26 0.931 . S
C4 C1 1.429 1_556 S
C4 C2 1.420 . S
C4 N12 1.362 . S
C5 C1 1.411 . S
C5 C3 1.420 . S
C5 C10 1.395 . S
C6 C2 1.423 1_554 S
C6 C3 1.351 . S
C6 H18 0.930 1_554 S
C7 C9 1.400 . S
C7 C10 1.386 1_455 S
C7 H19 0.930 . S
N8 C1 1.377 1_455 S
N8 C9 1.321 . S
N8 Eu11 2.609 . S
C9 C7 1.400 . S
C9 N8 1.321 . S
C9 H16 0.930 . S
C10 C5 1.395 . S
C10 C7 1.386 1_655 S
C10 H29 0.930 . S
Eu11 N8 2.609 . S
Eu11 N12 2.657 1_454 S
Eu11 O45 2.380 1_454 S
Eu11 O46 2.432 . S
Eu11 O50 2.558 . S
Eu11 O51 2.612 . S
Eu11 O53 2.342 1_454 S
Eu11 O54 2.563 . S
Eu11 O55 2.419 1_554 S
Eu11 C75 2.848 . S
N12 C4 1.362 . S
N12 Eu11 2.657 1_656 S
N12 C13 1.334 . S
C13 N12 1.334 . S
C13 C15 1.413 . S
C13 H20 0.929 . S
C14 C2 1.392 . S
C14 C15 1.367 . S
C14 H22 0.930 . S
C15 C13 1.413 . S
C15 C14 1.367 . S
C15 H17 0.930 . S
H16 C9 0.930 . S
H17 C15 0.930 . S
H18 C6 0.930 1_556 S
H19 C7 0.930 . S
H20 C13 0.929 . S
H21 C35 0.930 . S
H22 C14 0.930 . S
H23 C41 0.930 . S
H24 C32 0.929 . S
H25 C39 0.930 . S
H26 C3 0.931 . S
H27 C33 0.930 . S
H28 C66 0.930 1_554 S
H29 C10 0.930 . S
H30 C65 0.931 . S
N31 Eu0 2.657 1_454 S
N31 C32 1.334 . S
N31 C36 1.362 . S
C32 H24 0.929 . S
C32 N31 1.334 . S
C32 C35 1.413 . S
C33 H27 0.930 . S
C33 C34 1.392 . S
C33 C35 1.367 . S
C34 C33 1.392 . S
C34 C36 1.420 . S
C34 C66 1.423 1_554 S
C35 H21 0.930 . S
C35 C32 1.413 . S
C35 C33 1.367 . S
C36 N31 1.362 . S
C36 C34 1.420 . S
C36 C40 1.429 1_554 S
H37 C42 0.930 . S
N38 Eu0 2.609 . S
N38 C40 1.377 1_655 S
N38 C41 1.321 . S
C39 H25 0.930 . S
C39 C41 1.400 . S
C39 C42 1.386 1_655 S
C40 C36 1.429 1_556 S
C40 N38 1.377 1_455 S
C40 C43 1.411 . S
C41 H23 0.930 . S
C41 N38 1.321 . S
C41 C39 1.400 . S
C42 H37 0.930 . S
C42 C39 1.386 1_455 S
C42 C43 1.395 . S
C43 C40 1.411 . S
C43 C42 1.395 . S
C43 C65 1.420 . S
O44 Eu0 2.558 . S
O44 C64 1.257 . S
O45 Eu0 2.612 . S
O45 Eu11 2.380 1_656 S
O45 C56 1.276 . S
O46 Eu11 2.432 . S
O46 C63 1.264 . S
O47 Eu0 2.339 1_454 S
O47 C63 1.254 . S
O48 Eu0 2.563 . S
O48 C56 1.235 . S
O49 Eu0 2.419 1_554 S
O49 C64 1.249 1_554 S
O50 Eu11 2.558 . S
O50 C75 1.257 . S
O51 Eu0 2.380 1_454 S
O51 Eu11 2.612 . S
O51 C67 1.276 . S
O52 Eu0 2.432 . S
O52 C74 1.264 . S
O53 Eu11 2.342 1_656 S
O53 C74 1.251 . S
O54 Eu11 2.563 . S
O54 C67 1.235 . S
O55 Eu11 2.419 1_556 S
O55 C75 1.249 1_556 S
C56 O45 1.276 . S
C56 O48 1.235 . S
C57 C59 1.393 1_556 S
C57 C61 1.395 . S
C57 C64 1.492 . S
C58 C59 1.392 1_556 S
C58 C60 1.386 . S
C59 C57 1.393 1_554 S
C59 C58 1.392 1_554 S
C59 H76 0.930 . S
C60 C58 1.386 . S
C60 C62 1.395 . S
C60 H77 0.930 . S
C61 C57 1.395 . S
C61 C62 1.379 . S
C61 H78 0.930 . S
C62 C60 1.395 . S
C62 C61 1.379 . S
C62 H79 0.930 . S
C63 O46 1.264 . S
C63 O47 1.254 . S
C64 Eu0 2.848 . S
C64 O44 1.257 . S
C64 O49 1.249 1_556 S
C64 C57 1.492 . S
C65 H30 0.931 . S
C65 C43 1.420 . S
C65 C66 1.351 . S
C66 H28 0.930 1_556 S
C66 C34 1.423 1_556 S
C66 C65 1.351 . S
C67 O51 1.276 . S
C67 O54 1.235 . S
C68 C69 1.393 1_554 S
C68 C72 1.395 . S
C68 C75 1.492 . S
C69 C68 1.393 1_556 S
C69 C70 1.392 1_556 S
C69 H80 0.930 . S
C70 C69 1.392 1_554 S
C70 C71 1.386 . S
C71 C70 1.386 . S
C71 C73 1.395 . S
C71 H81 0.930 . S
C72 C68 1.395 . S
C72 C73 1.379 . S
C72 H82 0.930 . S
C73 C71 1.395 . S
C73 C72 1.379 . S
C73 H83 0.930 . S
C74 O52 1.264 . S
C74 O53 1.251 . S
C75 Eu11 2.848 . S
C75 O50 1.257 . S
C75 O55 1.249 1_554 S
C75 C68 1.492 . S
H76 C59 0.930 . S
H77 C60 0.930 . S
H78 C61 0.930 . S
H79 C62 0.930 . S
H80 C69 0.930 . S
H81 C71 0.930 . S
H82 C72 0.930 . S
H83 C73 0.930 . S
Eu84 N115 2.657 1_545 S
Eu84 N122 2.609 1_545 S
Eu84 O128 2.558 . S
Eu84 O129 2.612 1_554 S
Eu84 O131 2.339 1_554 S
Eu84 O132 2.563 . S
Eu84 O133 2.419 . S
Eu84 O135 2.380 1_545 S
Eu84 O136 2.432 . S
Eu84 C148 2.848 . S
C85 C88 1.429 . S
C85 C89 1.411 . S
C85 N92 1.377 . S
C86 C88 1.420 . S
C86 C90 1.423 . S
C86 C98 1.392 1_556 S
C87 C89 1.420 . S
C87 C90 1.351 . S
C87 H110 0.931 . S
C88 C85 1.429 . S
C88 C86 1.420 . S
C88 N96 1.362 . S
C89 C85 1.411 . S
C89 C87 1.420 . S
C89 C94 1.395 . S
C90 C86 1.423 . S
C90 C87 1.351 . S
C90 H102 0.930 . S
C91 C93 1.400 . S
C91 C94 1.386 . S
C91 H103 0.930 . S
N92 C85 1.377 . S
N92 C93 1.321 . S
N92 Eu95 2.609 1_545 S
C93 C91 1.400 . S
C93 N92 1.321 . S
C93 H100 0.930 1_545 S
C94 C89 1.395 . S
C94 C91 1.386 . S
C94 H113 0.930 . S
Eu95 N92 2.609 1_565 S
Eu95 N96 2.657 1_565 S
Eu95 O129 2.380 1_565 S
Eu95 O130 2.432 . S
Eu95 O134 2.558 . S
Eu95 O135 2.612 1_556 S
Eu95 O137 2.339 1_556 S
Eu95 O138 2.563 . S
Eu95 O139 2.419 . S
Eu95 C159 2.848 . S
N96 C88 1.362 . S
N96 Eu95 2.657 1_545 S
N96 C97 1.334 1_556 S
C97 N96 1.334 1_554 S
C97 C99 1.413 . S
C97 H104 0.929 . S
C98 C86 1.392 1_554 S
C98 C99 1.367 . S
C98 H106 0.930 . S
C99 C97 1.413 . S
C99 C98 1.367 . S
C99 H101 0.930 . S
H100 C93 0.930 1_565 S
H101 C99 0.930 . S
H102 C90 0.930 . S
H103 C91 0.930 . S
H104 C97 0.929 . S
H105 C119 0.930 . S
H106 C98 0.930 . S
H107 C125 0.930 1_545 S
H108 C116 0.929 . S
H109 C123 0.930 . S
H110 C87 0.931 . S
H111 C117 0.930 . S
H112 C150 0.930 . S
H113 C94 0.930 . S
H114 C149 0.931 . S
N115 Eu84 2.657 1_565 S
N115 C116 1.334 1_554 S
N115 C120 1.362 . S
C116 H108 0.929 . S
C116 N115 1.334 1_556 S
C116 C119 1.413 . S
C117 H111 0.930 . S
C117 C118 1.392 1_556 S
C117 C119 1.367 . S
C118 C117 1.392 1_554 S
C118 C120 1.420 . S
C118 C150 1.423 . S
C119 H105 0.930 . S
C119 C116 1.413 . S
C119 C117 1.367 . S
C120 N115 1.362 . S
C120 C118 1.420 . S
C120 C124 1.429 . S
H121 C126 0.930 . S
N122 Eu84 2.609 1_565 S
N122 C124 1.377 . S
N122 C125 1.321 . S
C123 H109 0.930 . S
C123 C125 1.400 . S
C123 C126 1.386 . S
C124 C120 1.429 . S
C124 N122 1.377 . S
C124 C127 1.411 . S
C125 H107 0.930 1_565 S
C125 N122 1.321 . S
C125 C123 1.400 . S
C126 H121 0.930 . S
C126 C123 1.386 . S
C126 C127 1.395 . S
C127 C124 1.411 . S
C127 C126 1.395 . S
C127 C149 1.420 . S
O128 Eu84 2.558 . S
O128 C148 1.257 . S
O129 Eu84 2.612 1_556 S
O129 Eu95 2.380 1_545 S
O129 C140 1.276 . S
O130 Eu95 2.432 . S
O130 C147 1.262 1_565 S
O131 Eu84 2.339 1_556 S
O131 C147 1.253 . S
O132 Eu84 2.563 . S
O132 C140 1.235 1_554 S
O133 Eu84 2.419 . S
O133 C148 1.249 . S
O134 Eu95 2.558 . S
O134 C159 1.257 . S
O135 Eu84 2.380 1_565 S
O135 Eu95 2.612 1_554 S
O135 C151 1.276 . S
O136 Eu84 2.432 . S
O136 C158 1.264 1_545 S
O137 Eu95 2.339 1_554 S
O137 C158 1.253 . S
O138 Eu95 2.563 . S
O138 C151 1.235 1_556 S
O139 Eu95 2.419 . S
O139 C159 1.249 . S
C140 O129 1.276 . S
C140 O132 1.235 1_556 S
C141 C143 1.393 . S
C141 C145 1.395 . S
C141 C148 1.492 . S
C142 C143 1.392 . S
C142 C144 1.386 . S
C143 C141 1.393 . S
C143 C142 1.392 . S
C143 H160 0.930 1_554 S
C144 C142 1.386 . S
C144 C146 1.395 . S
C144 H161 0.930 . S
C145 C141 1.395 . S
C145 C146 1.379 . S
C145 H162 0.930 . S
C146 C144 1.395 . S
C146 C145 1.379 . S
C146 H163 0.930 . S
C147 O130 1.262 1_545 S
C147 O131 1.253 . S
C148 Eu84 2.848 . S
C148 O128 1.257 . S
C148 O133 1.249 . S
C148 C141 1.492 . S
C149 H114 0.931 . S
C149 C127 1.420 . S
C149 C150 1.351 . S
C150 H112 0.930 . S
C150 C118 1.423 . S
C150 C149 1.351 . S
C151 O135 1.276 . S
C151 O138 1.235 1_554 S
C152 C153 1.393 . S
C152 C156 1.395 . S
C152 C159 1.492 . S
C153 C152 1.393 . S
C153 C154 1.392 . S
C153 H164 0.930 1_556 S
C154 C153 1.392 . S
C154 C155 1.386 . S
C155 C154 1.386 . S
C155 C157 1.395 . S
C155 H165 0.930 . S
C156 C152 1.395 . S
C156 C157 1.379 . S
C156 H166 0.930 . S
C157 C155 1.395 . S
C157 C156 1.379 . S
C157 H167 0.930 . S
C158 O136 1.264 1_565 S
C158 O137 1.253 . S
C159 Eu95 2.848 . S
C159 O134 1.257 . S
C159 O139 1.249 . S
C159 C152 1.492 . S
H160 C143 0.930 1_556 S
H161 C144 0.930 . S
H162 C145 0.930 . S
H163 C146 0.930 . S
H164 C153 0.930 1_554 S
H165 C155 0.930 . S
H166 C156 0.930 . S
H167 C157 0.930 . S
Eu168 N199 2.657 . S
Eu168 N206 2.609 . S
Eu168 O212 2.558 . S
Eu168 O213 2.612 1_556 S
Eu168 O215 2.339 1_556 S
Eu168 O216 2.563 . S
Eu168 O217 2.419 . S
Eu168 O219 2.380 . S
Eu168 O220 2.432 . S
Eu168 C232 2.848 . S
C169 C172 1.429 . S
C169 C173 1.411 . S
C169 N176 1.377 . S
C170 C172 1.420 . S
C170 C174 1.423 . S
C170 C182 1.392 1_554 S
C171 C173 1.420 . S
C171 C174 1.351 . S
C171 H194 0.931 . S
C172 C169 1.429 . S
C172 C170 1.420 . S
C172 N180 1.362 . S
C173 C169 1.411 . S
C173 C171 1.420 . S
C173 C178 1.395 . S
C174 C170 1.423 . S
C174 C171 1.351 . S
C174 H186 0.930 . S
C175 C177 1.400 . S
C175 C178 1.386 . S
C175 H187 0.930 . S
N176 C169 1.377 . S
N176 C177 1.321 . S
N176 Eu179 2.609 . S
C177 C175 1.400 . S
C177 N176 1.321 . S
C177 H184 0.930 . S
C178 C173 1.395 . S
C178 C175 1.386 . S
C178 H197 0.930 . S
Eu179 N176 2.609 . S
Eu179 N180 2.657 . S
Eu179 O213 2.380 . S
Eu179 O214 2.432 . S
Eu179 O218 2.558 . S
Eu179 O219 2.612 1_554 S
Eu179 O221 2.339 1_554 S
Eu179 O222 2.563 . S
Eu179 O223 2.419 . S
Eu179 C243 2.848 . S
N180 C172 1.362 . S
N180 Eu179 2.657 . S
N180 C181 1.334 1_554 S
C181 N180 1.334 1_556 S
C181 C183 1.413 . S
C181 H188 0.929 . S
C182 C170 1.392 1_556 S
C182 C183 1.367 . S
C182 H190 0.930 . S
C183 C181 1.413 . S
C183 C182 1.367 . S
C183 H185 0.930 . S
H184 C177 0.930 . S
H185 C183 0.930 . S
H186 C174 0.930 . S
H187 C175 0.930 . S
H188 C181 0.929 . S
H189 C203 0.930 . S
H190 C182 0.930 . S
H191 C209 0.930 . S
H192 C200 0.929 . S
H193 C207 0.930 . S
H194 C171 0.931 . S
H195 C201 0.930 . S
H196 C234 0.930 . S
H197 C178 0.930 . S
H198 C233 0.931 . S
N199 Eu168 2.657 . S
N199 C200 1.334 1_556 S
N199 C204 1.362 . S
C200 H192 0.929 . S
C200 N199 1.334 1_554 S
C200 C203 1.413 . S
C201 H195 0.930 . S
C201 C202 1.392 1_554 S
C201 C203 1.367 . S
C202 C201 1.392 1_556 S
C202 C204 1.420 . S
C202 C234 1.423 . S
C203 H189 0.930 . S
C203 C200 1.413 . S
C203 C201 1.367 . S
C204 N199 1.362 . S
C204 C202 1.420 . S
C204 C208 1.429 . S
H205 C210 0.930 . S
N206 Eu168 2.609 . S
N206 C208 1.377 . S
N206 C209 1.321 . S
C207 H193 0.930 . S
C207 C209 1.400 . S
C207 C210 1.386 . S
C208 C204 1.429 . S
C208 N206 1.377 . S
C208 C211 1.411 . S
C209 H191 0.930 . S
C209 N206 1.321 . S
C209 C207 1.400 . S
C210 H205 0.930 . S
C210 C207 1.386 . S
C210 C211 1.395 . S
C211 C208 1.411 . S
C211 C210 1.395 . S
C211 C233 1.420 . S
O212 Eu168 2.558 . S
O212 C232 1.257 . S
O213 Eu168 2.612 1_554 S
O213 Eu179 2.380 . S
O213 C224 1.276 . S
O214 Eu179 2.432 . S
O214 C231 1.264 . S
O215 Eu168 2.339 1_554 S
O215 C231 1.254 . S
O216 Eu168 2.563 . S
O216 C224 1.235 1_556 S
O217 Eu168 2.419 . S
O217 C232 1.249 . S
O218 Eu179 2.558 . S
O218 C243 1.257 . S
O219 Eu168 2.380 . S
O219 Eu179 2.612 1_556 S
O219 C235 1.276 . S
O220 Eu168 2.432 . S
O220 C242 1.264 . S
O221 Eu179 2.339 1_556 S
O221 C242 1.254 . S
O222 Eu179 2.563 . S
O222 C235 1.235 1_554 S
O223 Eu179 2.419 . S
O223 C243 1.249 . S
C224 O213 1.276 . S
C224 O216 1.235 1_554 S
C225 C227 1.393 . S
C225 C229 1.395 . S
C225 C232 1.492 . S
C226 C227 1.392 . S
C226 C228 1.386 . S
C227 C225 1.393 . S
C227 C226 1.392 . S
C227 H244 0.930 1_556 S
C228 C226 1.386 . S
C228 C230 1.395 . S
C228 H245 0.930 . S
C229 C225 1.395 . S
C229 C230 1.379 . S
C229 H246 0.930 . S
C230 C228 1.395 . S
C230 C229 1.379 . S
C230 H247 0.930 . S
C231 O214 1.264 . S
C231 O215 1.254 . S
C232 Eu168 2.848 . S
C232 O212 1.257 . S
C232 O217 1.249 . S
C232 C225 1.492 . S
C233 H198 0.931 . S
C233 C211 1.420 . S
C233 C234 1.351 . S
C234 H196 0.930 . S
C234 C202 1.423 . S
C234 C233 1.351 . S
C235 O219 1.276 . S
C235 O222 1.235 1_556 S
C236 C237 1.393 . S
C236 C240 1.395 . S
C236 C243 1.492 . S
C237 C236 1.393 . S
C237 C238 1.392 . S
C237 H248 0.930 1_554 S
C238 C237 1.392 . S
C238 C239 1.386 . S
C239 C238 1.386 . S
C239 C241 1.395 . S
C239 H249 0.930 . S
C240 C236 1.395 . S
C240 C241 1.379 . S
C240 H250 0.930 . S
C241 C239 1.395 . S
C241 C240 1.379 . S
C241 H251 0.930 . S
C242 O220 1.264 . S
C242 O221 1.254 . S
C243 Eu179 2.848 . S
C243 O218 1.257 . S
C243 O223 1.249 . S
C243 C236 1.492 . S
H244 C227 0.930 1_554 S
H245 C228 0.930 . S
H246 C229 0.930 . S
H247 C230 0.930 . S
H248 C237 0.930 1_556 S
H249 C239 0.930 . S
H250 C240 0.930 . S
H251 C241 0.930 . S
C252 C253 1.363 . S
C252 C258 1.379 . S
C252 N260 1.356 . S
C253 C252 1.363 . S
C253 C259 1.363 1_655 S
C254 C255 1.363 . S
C254 C259 1.379 . S
C254 N261 1.356 . S
C255 C254 1.363 . S
C255 C258 1.363 1_455 S
N256 C258 1.356 . S
N256 H268 0.984 . S
N256 H269 0.985 . S
N257 C259 1.356 . S
N257 H262 0.984 . S
N257 H263 0.985 . S
C258 C252 1.379 . S
C258 C255 1.363 1_655 S
C258 N256 1.356 . S
C259 C253 1.363 1_455 S
C259 C254 1.379 . S
C259 N257 1.356 . S
N260 C252 1.356 . S
N260 H266 0.984 . S
N260 H267 0.984 . S
N261 C254 1.356 . S
N261 H264 0.984 . S
N261 H265 0.985 . S
H262 N257 0.984 . S
H263 N257 0.985 . S
H264 N261 0.984 . S
H265 N261 0.985 . S
H266 N260 0.984 . S
H267 N260 0.984 . S
H268 N256 0.984 . S
H269 N256 0.985 . S
C270 C271 1.363 . S
C270 C276 1.379 . S
C270 N278 1.356 . S
C271 C270 1.363 . S
C271 C277 1.363 1_565 S
C272 C273 1.363 . S
C272 C277 1.379 . S
C272 N279 1.356 . S
C273 C272 1.363 . S
C273 C276 1.363 1_545 S
N274 C276 1.356 . S
N274 H286 0.984 . S
N274 H287 0.985 . S
N275 C277 1.356 . S
N275 H280 0.984 . S
N275 H281 0.985 . S
C276 C270 1.379 . S
C276 C273 1.363 1_565 S
C276 N274 1.356 . S
C277 C271 1.363 1_545 S
C277 C272 1.379 . S
C277 N275 1.356 . S
N278 C270 1.356 . S
N278 H284 0.984 . S
N278 H285 0.984 . S
N279 C272 1.356 . S
N279 H282 0.984 . S
N279 H283 0.985 . S
H280 N275 0.984 . S
H281 N275 0.985 . S
H282 N279 0.984 . S
H283 N279 0.985 . S
H284 N278 0.984 . S
H285 N278 0.984 . S
H286 N274 0.984 . S
H287 N274 0.985 . S
C288 C289 1.363 . S
C288 C294 1.379 . S
C288 N296 1.356 . S
C289 C288 1.363 . S
C289 C295 1.363 . S
C290 C291 1.363 . S
C290 C295 1.379 . S
C290 N297 1.356 . S
C291 C290 1.363 . S
C291 C294 1.363 . S
N292 C294 1.356 . S
N292 H304 0.984 . S
N292 H305 0.985 . S
N293 C295 1.356 . S
N293 H298 0.984 . S
N293 H299 0.985 . S
C294 C288 1.379 . S
C294 C291 1.363 . S
C294 N292 1.356 . S
C295 C289 1.363 . S
C295 C290 1.379 . S
C295 N293 1.356 . S
N296 C288 1.356 . S
N296 H302 0.984 . S
N296 H303 0.984 . S
N297 C290 1.356 . S
N297 H300 0.984 . S
N297 H301 0.985 . S
H298 N293 0.984 . S
H299 N293 0.985 . S
H300 N297 0.984 . S
H301 N297 0.985 . S
H302 N296 0.984 . S
H303 N296 0.984 . S
H304 N292 0.984 . S
H305 N292 0.985 . S
C306 C307 1.363 . S
C306 C312 1.379 . S
C306 N314 1.356 . S
C307 C306 1.363 . S
C307 C313 1.363 1_554 S
C308 C309 1.363 1_556 S
C308 C313 1.379 . S
C308 N315 1.356 . S
C309 C308 1.363 1_554 S
C309 C312 1.363 . S
N310 C312 1.356 . S
N310 H322 0.984 . S
N310 H323 0.985 . S
N311 C313 1.356 . S
N311 H316 0.984 . S
N311 H317 0.985 . S
C312 C306 1.379 . S
C312 C309 1.363 . S
C312 N310 1.356 . S
C313 C307 1.363 1_556 S
C313 C308 1.379 . S
C313 N311 1.356 . S
N314 C306 1.356 . S
N314 H320 0.984 . S
N314 H321 0.984 . S
N315 C308 1.356 . S
N315 H318 0.984 . S
N315 H319 0.985 . S
H316 N311 0.984 . S
H317 N311 0.985 . S
H318 N315 0.984 . S
H319 N315 0.985 . S
H320 N314 0.984 . S
H321 N314 0.984 . S
H322 N310 0.984 . S
H323 N310 0.985 . S
C324 C325 1.363 . S
C324 C330 1.379 . S
C324 N332 1.356 . S
C325 C324 1.363 . S
C325 C331 1.363 1_554 S
C326 C327 1.363 1_556 S
C326 C331 1.379 . S
C326 N333 1.356 . S
C327 C326 1.363 1_554 S
C327 C330 1.363 . S
N328 C330 1.356 . S
N328 H340 0.984 . S
N328 H341 0.985 . S
N329 C331 1.356 . S
N329 H334 0.984 . S
N329 H335 0.985 . S
C330 C324 1.379 . S
C330 C327 1.363 . S
C330 N328 1.356 . S
C331 C325 1.363 1_556 S
C331 C326 1.379 . S
C331 N329 1.356 . S
N332 C324 1.356 . S
N332 H338 0.984 . S
N332 H339 0.984 . S
N333 C326 1.356 . S
N333 H336 0.984 . S
N333 H337 0.985 . S
H334 N329 0.984 . S
H335 N329 0.985 . S
H336 N333 0.984 . S
H337 N333 0.985 . S
H338 N332 0.984 . S
H339 N332 0.984 . S
H340 N328 0.984 . S
H341 N328 0.985 . S
C342 C343 1.363 1_556 S
C342 C348 1.379 . S
C342 N350 1.356 . S
C343 C342 1.363 1_554 S
C343 C349 1.363 . S
C344 C345 1.363 . S
C344 C349 1.379 . S
C344 N351 1.356 . S
C345 C344 1.363 . S
C345 C348 1.363 1_554 S
N346 C348 1.356 . S
N346 H358 0.984 . S
N346 H359 0.985 . S
N347 C349 1.356 . S
N347 H352 0.984 . S
N347 H353 0.985 . S
C348 C342 1.379 . S
C348 C345 1.363 1_556 S
C348 N346 1.356 . S
C349 C343 1.363 . S
C349 C344 1.379 . S
C349 N347 1.356 . S
N350 C342 1.356 . S
N350 H356 0.984 . S
N350 H357 0.984 . S
N351 C344 1.356 . S
N351 H354 0.984 . S
N351 H355 0.985 . S
H352 N347 0.984 . S
H353 N347 0.985 . S
H354 N351 0.984 . S
H355 N351 0.985 . S
H356 N350 0.984 . S
H357 N350 0.984 . S
H358 N346 0.984 . S
H359 N346 0.985 . S
C360 C361 1.363 . S
C360 C366 1.379 . S
C360 N368 1.356 . S
C361 C360 1.363 . S
C361 C367 1.363 1_556 S
C362 C363 1.363 1_554 S
C362 C367 1.379 . S
C362 N369 1.356 . S
C363 C362 1.363 1_556 S
C363 C366 1.363 . S
N364 C366 1.356 . S
N364 H376 0.984 . S
N364 H377 0.985 . S
N365 C367 1.356 . S
N365 H370 0.984 . S
N365 H371 0.985 . S
C366 C360 1.379 . S
C366 C363 1.363 . S
C366 N364 1.356 . S
C367 C361 1.363 1_554 S
C367 C362 1.379 . S
C367 N365 1.356 . S
N368 C360 1.356 . S
N368 H374 0.984 . S
N368 H375 0.984 . S
N369 C362 1.356 . S
N369 H372 0.984 . S
N369 H373 0.985 . S
H370 N365 0.984 . S
H371 N365 0.985 . S
H372 N369 0.984 . S
H373 N369 0.985 . S
H374 N368 0.984 . S
H375 N368 0.984 . S
H376 N364 0.984 . S
H377 N364 0.985 . S
C378 C379 1.363 1_554 S
C378 C384 1.379 . S
C378 N386 1.356 . S
C379 C378 1.363 1_556 S
C379 C385 1.363 . S
C380 C381 1.363 . S
C380 C385 1.379 . S
C380 N387 1.356 . S
C381 C380 1.363 . S
C381 C384 1.363 1_556 S
N382 C384 1.356 . S
N382 H394 0.984 . S
N382 H395 0.985 . S
N383 C385 1.356 . S
N383 H388 0.984 . S
N383 H389 0.985 . S
C384 C378 1.379 . S
C384 C381 1.363 1_554 S
C384 N382 1.356 . S
C385 C379 1.363 . S
C385 C380 1.379 . S
C385 N383 1.356 . S
N386 C378 1.356 . S
N386 H392 0.984 . S
N386 H393 0.984 . S
N387 C380 1.356 . S
N387 H390 0.984 . S
N387 H391 0.985 . S
H388 N383 0.984 . S
H389 N383 0.985 . S
H390 N387 0.984 . S
H391 N387 0.985 . S
H392 N386 0.984 . S
H393 N386 0.984 . S
H394 N382 0.984 . S
H395 N382 0.985 . S
C396 C397 1.363 1_554 S
C396 C402 1.379 . S
C396 N404 1.356 . S
C397 C396 1.363 1_556 S
C397 C403 1.363 . S
C398 C399 1.363 . S
C398 C403 1.379 . S
C398 N405 1.356 . S
C399 C398 1.363 . S
C399 C402 1.363 1_556 S
N400 C402 1.356 . S
N400 H412 0.984 . S
N400 H413 0.985 . S
N401 C403 1.356 . S
N401 H406 0.984 . S
N401 H407 0.985 . S
C402 C396 1.379 . S
C402 C399 1.363 1_554 S
C402 N400 1.356 . S
C403 C397 1.363 . S
C403 C398 1.379 . S
C403 N401 1.356 . S
N404 C396 1.356 . S
N404 H410 0.984 . S
N404 H411 0.984 . S
N405 C398 1.356 . S
N405 H408 0.984 . S
N405 H409 0.985 . S
H406 N401 0.984 . S
H407 N401 0.985 . S
H408 N405 0.984 . S
H409 N405 0.985 . S
H410 N404 0.984 . S
H411 N404 0.984 . S
H412 N400 0.984 . S
H413 N400 0.985 . S
C253 C74 1.493 . S
C255 C63 1.493 . S
C271 C158 1.470 . S
C273 C147 1.471 . S
C289 C242 1.486 . S
C291 C231 1.486 . S
C307 C67 1.686 . S
C309 C226 1.639 1_554 S
C325 C142 0.828 . S
C327 C58 0.854 1_554 S
C343 C151 2.356 . S
C345 C224 2.451 . S
C361 C56 1.686 . S
C363 C238 1.639 1_556 S
C379 C70 0.854 1_556 S
C381 C154 0.829 . S
C397 C235 2.449 . S
C399 C140 2.354 . S
