# Generated by pormake.
# Topology qtz-x, (6)-cn, num edge types: 1
# Building blocks:
#     Node 0, Type 0, BuildingBlock: NUHQIS_clean_sbu_0, # of connection points: 6
#     Node 1, Type 0, BuildingBlock: NUHQIS_clean_sbu_0, # of connection points: 6
#     Node 2, Type 0, BuildingBlock: NUHQIS_clean_sbu_0, # of connection points: 6
#     Edge 3, Type (0, 0), BuildingBlock: FUNLAD_clean_linker_1, # of connection points: 2
#     Edge 4, Type (0, 0), BuildingBlock: FUNLAD_clean_linker_1, # of connection points: 2
#     Edge 5, Type (0, 0), BuildingBlock: FUNLAD_clean_linker_1, # of connection points: 2
#     Edge 6, Type (0, 0), BuildingBlock: FUNLAD_clean_linker_1, # of connection points: 2
#     Edge 7, Type (0, 0), BuildingBlock: FUNLAD_clean_linker_1, # of connection points: 2
#     Edge 8, Type (0, 0), BuildingBlock: FUNLAD_clean_linker_1, # of connection points: 2
#     Edge 9, Type (0, 0), BuildingBlock: FUNLAD_clean_linker_1, # of connection points: 2
#     Edge 10, Type (0, 0), BuildingBlock: FUNLAD_clean_linker_1, # of connection points: 2
#     Edge 11, Type (0, 0), BuildingBlock: FUNLAD_clean_linker_1, # of connection points: 2
# Relax obj value: 0.230
# Max RMSD: 0.259
# Mean RMSD: 0.242
data_MOF--net-qtz-x--node1-NUHQIS_clean_sbu_0--edge1-FUNLAD_clean_linker_1
_symmetry_space_group_name_H-M    P1
_symmetry_Int_Tables_number       1
_symmetry_cell_setting            triclinic
loop_
_symmetry_equiv_pos_as_xyz
'x, y, z'
_cell_length_a     15.831834
_cell_length_b     15.860113
_cell_length_c     54.694719
_cell_angle_alpha  68.75549
_cell_angle_beta   113.90629
_cell_angle_gamma 121.59599
loop_
_atom_site_label
_atom_site_type_symbol
_atom_site_fract_x
_atom_site_fract_y
_atom_site_fract_z
_atom_type_partial_charge
Tb0 Tb 0.98477 0.54328 0.20354 0.0
Eu1 Eu 0.20883 0.71258 0.18864 0.0
C2 C 0.06065 0.78194 0.19511 0.0
C3 C 0.9937 0.61978 0.14161 0.0
C4 C 0.81598 0.37851 0.25007 0.0
C5 C 0.84572 0.41347 0.29356 0.0
C6 C 0.85538 0.44764 0.26683 0.0
C7 C 0.76658 0.27506 0.26046 0.0
C8 C 0.75791 0.24092 0.28718 0.0
C9 C 0.79731 0.30935 0.30411 0.0
C10 C 0.83359 0.4112 0.2228 0.0
O11 O 1.02556 0.46403 0.18847 0.0
O12 O 0.20086 0.55691 0.20042 0.0
O13 O 0.23243 0.71788 0.23146 0.0
O14 O 0.11059 0.55597 0.24087 0.0
C15 C 0.11861 0.47345 0.19428 0.0
O16 O 0.37185 0.75919 0.19527 0.0
O17 O 0.29875 0.85045 0.16429 0.0
O18 O 0.1393 0.80714 0.18681 0.0
O19 O 0.99884 0.68798 0.20364 0.0
O20 O 0.936 0.57252 0.15881 0.0
O21 O 0.09482 0.66751 0.14918 0.0
C22 C 0.18934 0.63842 0.24884 0.0
O23 O 0.84214 0.50061 0.20908 0.0
O24 O 0.90315 0.39346 0.22163 0.0
C25 C 0.42132 0.83842 0.15403 0.0
C26 C 0.4797 0.84905 0.11031 0.0
C27 C 0.4269 0.75519 0.12553 0.0
C28 C 0.39686 0.74978 0.14703 0.0
C29 C 0.47741 0.9323 0.13953 0.0
C30 C 0.50655 0.93775 0.11784 0.0
C31 C 0.38007 0.83419 0.17442 0.0
H32 H 0.87947 0.46859 0.30613 0.0
H33 H 0.89583 0.52786 0.25953 0.0
H34 H 0.73682 0.22026 0.24808 0.0
H35 H 0.72094 0.16042 0.29474 0.0
H36 H 0.40558 0.68589 0.12014 0.0
H37 H 0.35229 0.67642 0.15771 0.0
H38 H 0.49645 0.00147 0.14454 0.0
H39 H 0.54934 0.0113 0.10691 0.0
Tb40 Tb 0.85684 0.14802 0.56841 0.0
Eu41 Eu 0.72031 0.92213 0.55335 0.0
C42 C 0.96229 0.03707 0.56276 0.0
C43 C 0.77441 0.12246 0.5077 0.0
C44 C 0.96637 0.35847 0.60195 0.0
C45 C 1.0344 0.49434 0.62531 0.0
C46 C 1.03064 0.45938 0.60461 0.0
C47 C 0.90549 0.29273 0.61998 0.0
C48 C 0.9091 0.32728 0.64058 0.0
C49 C 0.97395 0.42802 0.64366 0.0
C50 C 0.96058 0.32102 0.58022 0.0
O51 O 0.71412 0.08832 0.57858 0.0
O52 O 0.60958 -0.01897 0.54847 0.0
O53 O 0.73737 0.88911 0.59843 0.0
O54 O 0.86184 0.04663 0.6084 0.0
C55 C 0.62222 0.0329 0.56477 0.0
O56 O 0.56956 0.80783 0.53576 0.0
O57 O 0.70461 0.7848 0.5475 0.0
O58 O 0.88699 0.9498 0.56926 0.0
O59 O 0.95388 0.12115 0.55589 0.0
O60 O 0.78331 0.16997 0.52454 0.0
O61 O 0.76847 0.03155 0.51606 0.0
C62 C 0.80215 0.95011 0.61591 0.0
O63 O 0.99646 0.25483 0.58836 0.0
O64 O 0.87137 0.29295 0.56211 0.0
C65 C 0.58139 0.74236 0.5058 0.0
C66 C 0.52115 0.73127 0.4504 0.0
C67 C 0.45522 0.66214 0.46727 0.0
C68 C 0.48513 0.6681 0.49471 0.0
C69 C 0.64808 0.80965 0.4892 0.0
C70 C 0.61847 0.80371 0.46188 0.0
C71 C 0.60808 0.75649 0.53364 0.0
H72 H 0.08386 0.57294 0.62664 0.0
H73 H 0.07765 0.51093 0.59069 0.0
H74 H 0.85514 0.21454 0.61811 0.0
H75 H 0.8618 0.27455 0.65439 0.0
H76 H 0.38069 0.60341 0.45951 0.0
H77 H 0.43233 0.61587 0.50714 0.0
H78 H 0.72245 0.86832 0.49719 0.0
H79 H 0.6711 0.8576 0.4495 0.0
Tb80 Tb 0.80919 0.88155 0.8712 0.0
Eu81 Eu 0.90512 0.72675 0.88077 0.0
C82 C 0.0449 0.95587 0.88419 0.0
C83 C 0.83823 0.85168 0.82144 0.0
C84 C 0.68178 -0.0086 0.88339 0.0
C85 C 0.65003 0.07485 0.90585 0.0
C86 C 0.68796 0.07911 0.88612 0.0
C87 C 0.63357 0.89879 0.89979 0.0
C88 C 0.59603 0.89453 0.9195 0.0
C89 C 0.60719 -0.0168 0.92336 0.0
C90 C 0.73726 -0.00221 0.86634 0.0
O91 O 0.67561 0.73646 0.86629 0.0
O92 O 0.74988 0.62729 0.88824 0.0
O93 O 0.92627 0.73942 0.92324 0.0
O94 O 0.8073 0.79872 0.91268 0.0
C95 C 0.66953 0.64583 0.87788 0.0
O96 O 0.88273 0.585 0.87628 0.0
O97 O 1.03583 0.69223 0.89427 0.0
O98 O 1.02667 0.88555 0.87309 0.0
O99 O 0.97269 0.95234 0.89098 0.0
O100 O 0.84579 0.91539 0.83319 0.0
O101 O 0.83781 0.76436 0.83529 0.0
C102 C 0.8698 0.7599 0.93049 0.0
O103 O 0.83237 0.01377 0.87881 0.0
O104 O 0.69007 0.9265 0.85238 0.0
C105 C 1.018 0.60441 0.86383 0.0
C106 C 0.06047 0.5989 0.81927 0.0
C107 C 0.98596 0.51283 0.83129 0.0
C108 C 0.96532 0.51556 0.85343 0.0
C109 C 0.09632 0.6888 0.85274 0.0
C110 C 0.11801 0.68551 0.83083 0.0
C111 C 0.98124 0.61123 0.8836 0.0
H112 H 0.65844 0.14397 0.90826 0.0
H113 H 0.72565 0.15132 0.87377 0.0
H114 H 0.62821 0.83013 0.89804 0.0
H115 H 0.56006 0.82201 0.93195 0.0
H116 H 0.9426 0.44366 0.82345 0.0
H117 H 0.90506 0.44938 0.86174 0.0
H118 H 0.13825 0.75855 0.86026 0.0
H119 H 0.17675 0.75227 0.82212 0.0
H120 H 0.96524 0.84349 0.19625 0.0
C121 C 1.04069 0.86326 0.19514 0.0
H122 H 0.18921 -0.02087 0.19338 0.0
H123 H 0.09805 0.35437 0.14447 0.0
H124 H 0.14753 0.35091 0.10847 0.0
H125 H 0.17228 0.20708 0.11055 0.0
H126 H 0.14762 0.0659 0.1486 0.0
C127 C 0.11388 0.9596 0.19452 0.0
C128 C 0.0946 0.0442 0.19321 0.0
C129 C 0.10992 0.12683 0.17082 0.0
C130 C 0.09599 0.21015 0.16962 0.0
C131 C 0.10956 0.29022 0.14671 0.0
C132 C 0.13737 0.28895 0.12579 0.0
C133 C 0.15128 0.20797 0.12696 0.0
C134 C 0.13738 0.12754 0.14906 0.0
H135 H 0.20973 0.39935 0.19772 0.0
C136 C 0.13203 0.3883 0.19397 0.0
H137 H 0.9742 0.28457 0.18698 0.0
H138 H 0.07019 0.90492 0.24088 0.0
H139 H 1.01259 0.90553 0.27554 0.0
H140 H 0.98071 0.04617 0.27221 0.0
H141 H 1.00537 0.18685 0.23395 0.0
C142 C 0.05191 0.29796 0.18973 0.0
C143 C 0.06684 0.21111 0.1908 0.0
C144 C 0.04967 0.12797 0.21293 0.0
C145 C 0.06559 0.04543 0.21447 0.0
C146 C 0.05426 -0.03301 0.23779 0.0
C147 C 1.02272 -0.03289 0.25813 0.0
C148 C 1.0047 0.04627 0.25626 0.0
C149 C 1.01879 0.12637 0.23411 0.0
H150 H 0.54687 0.05095 0.58734 0.0
C151 C 0.53277 0.02694 0.56922 0.0
H152 H 0.42269 -0.02746 0.53381 0.0
H153 H 1.01467 0.7946 0.56612 0.0
H154 H 1.00411 0.64911 0.5579 0.0
H155 H 0.15156 0.65739 0.55021 0.0
H156 H 0.31 0.81191 0.55024 0.0
C157 C 0.43761 -0.00262 0.55186 0.0
C158 C 0.34935 -0.00734 0.5574 0.0
C159 C 0.25779 0.9007 0.55817 0.0
C160 C 0.17363 0.89495 0.56355 0.0
C161 C 0.08199 0.80308 0.56293 0.0
C162 C 0.07461 0.71873 0.55813 0.0
C163 C 0.15754 0.72344 0.55375 0.0
C164 C 0.2481 0.81298 0.55374 0.0
H165 H 0.09168 0.10542 0.54505 0.0
C166 C 0.05319 0.0419 0.5595 0.0
H167 H 0.0528 0.91103 0.58834 0.0
H168 H 0.50131 0.1875 0.5515 0.0
H169 H 0.52055 0.3278 0.56483 0.0
H170 H 0.39093 0.30761 0.58327 0.0
H171 H 0.23884 0.14853 0.58707 0.0
C172 C 0.0912 -0.02583 0.57382 0.0
C173 C 0.18202 -0.01995 0.56928 0.0
C174 C 0.27601 0.0703 0.57004 0.0
C175 C 0.35645 0.07861 0.56234 0.0
C176 C 0.44227 0.1741 0.55952 0.0
C177 C 0.4537 0.25581 0.56678 0.0
C178 C 0.38038 0.24468 0.57695 0.0
C179 C 0.29261 0.15321 0.57866 0.0
H180 H 0.20236 0.04993 0.8795 0.0
C181 C 0.14724 0.04239 0.88814 0.0
H182 H 0.11654 0.10944 0.90872 0.0
H183 H 0.6237 0.36632 0.92427 0.0
H184 H 0.63159 0.22573 0.96102 0.0
H185 H 0.47246 0.07575 0.96964 0.0
H186 H 0.30439 0.06572 0.94133 0.0
C187 C 0.17135 0.11459 0.90045 0.0
C188 C 0.26662 0.21004 0.89905 0.0
C189 C 0.36381 0.21309 0.91491 0.0
C190 C 0.45502 0.29934 0.90973 0.0
C191 C 0.5515 0.30204 0.92678 0.0
C192 C 0.55723 0.22197 0.94811 0.0
C193 C 0.46773 0.13748 0.95295 0.0
C194 C 0.37187 0.13239 0.93649 0.0
H195 H 0.51593 0.58113 0.88354 0.0
C196 C 0.56944 0.56316 0.88123 0.0
H197 H 0.59935 0.45114 0.87963 0.0
H198 H 0.09367 0.2392 0.87162 0.0
H199 H 0.08331 0.38415 0.83741 0.0
H200 H 0.23612 0.52057 0.82173 0.0
H201 H 0.40158 0.51716 0.84259 0.0
C202 C 0.54452 0.46761 0.88184 0.0
C203 C 0.44811 0.38097 0.88805 0.0
C204 C 0.34992 0.37892 0.87293 0.0
C205 C 0.25986 0.29566 0.87971 0.0
C206 C 0.16388 0.29904 0.86645 0.0
C207 C 0.1567 0.38149 0.84657 0.0
C208 C 0.24291 0.45873 0.83809 0.0
C209 C 0.33818 0.4568 0.85067 0.0
H210 H 0.55913 0.04201 0.94382 0.0
C211 C 0.57856 -0.0171 0.94606 0.0
H212 H 0.6076 0.86031 0.97325 0.0
H213 H 0.66398 0.08846 0.06212 0.0
H214 H 0.8147 0.22376 0.04752 0.0
H215 H 0.85351 0.22122 1.0085 0.0
H216 H 0.74135 0.08408 0.9837 0.0
C217 C 0.5853 0.91839 0.97007 0.0
C218 C 0.56158 0.92225 0.99317 0.0
C219 C 0.62926 0.00234 1.00775 0.0
C220 C 0.6078 0.0029 1.03053 0.0
C221 C 0.67625 0.08417 0.04462 0.0
C222 C 0.76335 0.16225 1.03652 0.0
C223 C 0.78518 0.16085 1.01455 0.0
C224 C 0.71965 0.08176 1.00038 0.0
H225 H 0.51603 0.79037 0.08668 0.0
C226 C 0.50355 0.85201 0.08637 0.0
H227 H 0.4859 -0.01656 0.06242 0.0
H228 H 0.41452 0.76033 0.96888 0.0
H229 H 0.2616 0.62656 0.98279 0.0
H230 H 0.22493 0.62634 1.02257 0.0
H231 H 0.34087 0.75901 0.04869 0.0
C232 C 0.50078 0.92249 0.06351 0.0
C233 C 0.5206 0.92192 1.0392 0.0
C234 C 0.45216 0.84243 1.02438 0.0
C235 C 0.47287 0.84276 1.00135 0.0
C236 C 0.40278 0.76344 0.98664 0.0
C237 C 0.31454 0.68629 0.99435 0.0
C238 C 0.29396 0.68612 1.01675 0.0
C239 C 0.36163 0.76286 1.03166 0.0
H240 H 0.77239 0.24652 0.47195 0.0
C241 C 0.77506 0.17426 0.47904 0.0
H242 H 0.78379 0.06318 0.46887 0.0
H243 H 0.60708 0.16776 0.3419 0.0
H244 H 0.46459 0.01021 0.35372 0.0
H245 H 0.46573 0.93178 0.40191 0.0
H246 H 0.60839 0.01082 0.43831 0.0
C247 C 0.7826 0.13609 0.46203 0.0
C248 C 0.78278 0.18654 0.43299 0.0
C249 C 0.6994 0.13887 0.41173 0.0
C250 C 0.70024 0.18297 0.38395 0.0
C251 C 0.61306 0.13569 0.36331 0.0
C252 C 0.52996 0.04559 0.36981 0.0
C253 C 0.53044 0.00147 0.39688 0.0
C254 C 0.61336 0.04759 0.41764 0.0
H255 H 0.7832 0.19198 0.34169 0.0
C256 C 0.79129 0.26846 0.33293 0.0
H257 H 0.79799 0.39434 0.34019 0.0
H258 H 0.95908 0.29458 0.46852 0.0
H259 H 0.10417 0.44965 0.45684 0.0
H260 H 0.1059 0.52617 0.40884 0.0
H261 H 0.96264 0.4478 0.37221 0.0
C262 C 0.79103 0.31826 0.34832 0.0
C263 C 0.78648 0.27336 0.37736 0.0
C264 C 0.86968 0.32143 0.39864 0.0
C265 C 0.86819 0.2778 0.42643 0.0
C266 C 0.95461 0.32545 0.44713 0.0
C267 C 1.03891 0.41431 0.44071 0.0
C268 C 1.03992 0.45735 0.41369 0.0
C269 C 0.95684 0.41164 0.39284 0.0
H270 H 0.8354 0.95589 0.78143 0.0
C271 C 0.83451 0.88281 0.79198 0.0
H272 H 0.82998 0.75259 0.78808 0.0
H273 H 0.63602 0.8254 0.65926 0.0
H274 H 0.48908 0.68439 0.67411 0.0
H275 H 0.49724 0.62136 0.72297 0.0
H276 H 0.65235 0.7007 0.75729 0.0
C277 C 0.83329 0.82684 0.77808 0.0
C278 C 0.83183 0.8618 0.74845 0.0
C279 C 0.74254 0.81202 0.72851 0.0
C280 C 0.73938 0.84593 0.70024 0.0
C281 C 0.64558 0.79961 0.68095 0.0
C282 C 0.55978 0.71915 0.68919 0.0
C283 C 0.56425 0.68386 0.7167 0.0
C284 C 0.65398 0.72992 0.73619 0.0
H285 H 0.78413 0.82861 0.65274 0.0
C286 C 0.80551 0.9087 0.64527 0.0
H287 H 0.84605 0.04551 0.65431 0.0
H288 H 1.0183 -0.03027 0.7811 0.0
H289 H 0.16668 0.10994 0.76652 0.0
H290 H 0.16285 0.16719 0.7179 0.0
H291 H 1.01098 0.08436 0.68357 0.0
C292 C 0.82632 -0.03419 0.66216 0.0
C293 C 0.82779 0.92686 0.69185 0.0
C294 C 0.91751 -0.02402 0.71192 0.0
C295 C 0.91961 0.94338 0.74009 0.0
C296 C 1.01132 -0.00734 0.75947 0.0
C297 C 0.09752 0.07289 0.7514 0.0
C298 C 0.09537 0.1051 0.72403 0.0
C299 C 1.00714 0.0571 0.70448 0.0
H300 H 0.83246 0.76728 0.96408 0.0
C301 C 0.8754 0.74174 0.95958 0.0
H302 H 0.97755 0.67533 0.97653 0.0
H303 H 0.16488 0.79416 0.09153 0.0
H304 H 0.30831 0.90027 0.07191 0.0
H305 H 0.28682 0.91402 1.02359 0.0
H306 H 0.12165 0.8181 0.9949 0.0
C307 C 0.93127 0.69834 0.98045 0.0
C308 C 0.94139 0.69246 1.00948 0.0
C309 C 1.03861 0.7484 1.02621 0.0
C310 C 0.04964 0.7448 0.05374 0.0
C311 C 0.14954 0.79786 0.07012 0.0
C312 C 0.23352 0.85843 0.05921 0.0
C313 C 0.22142 0.86598 1.03204 0.0
C314 C 0.12589 0.81045 1.01578 0.0
H315 H 0.89671 0.53684 0.10759 0.0
C316 C 0.94591 0.61161 0.1125 0.0
H317 H 1.02458 0.7666 0.09895 0.0
H318 H 0.74661 0.56602 0.98458 0.0
H319 H 0.59599 0.47997 1.00158 0.0
H320 H 0.60928 0.49618 0.04634 0.0
H321 H 0.77357 0.59505 0.07477 0.0
C322 C 0.97607 0.69356 0.09288 0.0
C323 C 0.96203 0.68986 0.06428 0.0
C324 C 0.86369 0.63747 0.04705 0.0
C325 C 0.85442 0.63494 1.02019 0.0
C326 C 0.75701 0.57499 1.00444 0.0
C327 C 0.67001 0.52471 1.01402 0.0
C328 C 0.67762 0.53334 1.03929 0.0
C329 C 0.77293 0.58928 0.05562 0.0
H330 H 0.19637 0.56745 0.29197 0.0
C331 C 0.23031 0.63788 0.27837 0.0
H332 H 0.3342 0.79289 0.27569 0.0
H333 H 0.29656 0.79153 0.38752 0.0
H334 H 0.21147 0.894 0.35502 0.0
H335 H 0.18202 0.91757 0.30566 0.0
H336 H 0.23471 0.8366 0.28839 0.0
C337 C 0.30274 0.72054 0.28893 0.0
C338 C 0.33262 0.71659 0.31878 0.0
C339 C 0.30148 0.7647 0.32851 0.0
C340 C 0.3201 0.75245 0.35703 0.0
C341 C 0.28561 0.79919 0.36612 0.0
C342 C 0.23634 0.85802 0.34767 0.0
C343 C 0.21947 0.87106 0.31987 0.0
C344 C 0.25058 0.82444 0.31025 0.0
H345 H 0.55417 0.77305 0.41088 0.0
C346 C 0.49259 0.73073 0.42093 0.0
H347 H 0.33057 0.6488 0.41422 0.0
H348 H 0.41421 0.62529 0.30702 0.0
H349 H 0.50111 0.52413 0.33949 0.0
H350 H 0.52736 0.49717 0.38885 0.0
H351 H 0.46811 0.57215 0.40607 0.0
C352 C 0.39543 0.68574 0.40568 0.0
C353 C 0.37288 0.69486 0.37582 0.0
C354 C 0.40542 0.64795 0.36608 0.0
C355 C 0.38664 0.66011 0.33755 0.0
C356 C 0.42332 0.61559 0.32842 0.0
C357 C 0.47388 0.55786 0.34684 0.0
C358 C 0.48898 0.54299 0.37464 0.0
C359 C 0.45519 0.58712 0.38426 0.0
H360 H 0.15471 0.64999 0.79127 0.0
C361 C 0.07841 0.60083 0.79446 0.0
H362 H 0.92415 0.5035 0.77691 0.0
H363 H 1.02612 0.70146 0.66043 0.0
H364 H 0.97965 0.82507 0.66069 0.0
H365 H 0.95445 0.82599 0.70222 0.0
H366 H 0.974 0.70291 0.74366 0.0
C367 C 1.0025 0.54905 0.77511 0.0
C368 C 1.0228 0.55229 0.75052 0.0
C369 C 1.01331 0.62624 0.72676 0.0
C370 C 1.02844 0.62604 0.70287 0.0
C371 C 1.01556 0.69863 0.67911 0.0
C372 C 0.98913 0.76994 0.67901 0.0
C373 C 0.97487 0.77048 0.70241 0.0
C374 C 0.98656 0.69958 0.72606 0.0
H375 H 0.91643 0.40616 0.67705 0.0
C376 C 0.9764 0.45856 0.66662 0.0
H377 H 0.11526 0.59548 0.66811 0.0
H378 H 1.03726 0.39516 0.7916 0.0
H379 H 0.09373 0.27777 0.79253 0.0
H380 H 0.1369 0.28797 0.7526 0.0
H381 H 0.12208 0.41422 0.71163 0.0
C382 C 0.05228 0.5404 0.67714 0.0
C383 C 0.05377 0.55245 0.70301 0.0
C384 C 0.06922 0.48236 0.72728 0.0
C385 C 0.04989 0.47991 0.75072 0.0
C386 C 0.05684 0.4035 0.77388 0.0
C387 C 0.08794 0.3351 0.77449 0.0
C388 C 0.11181 0.34058 0.752 0.0
C389 C 0.10239 0.41299 0.72857 0.0
loop_
_geom_bond_atom_site_label_1
_geom_bond_atom_site_label_2
_geom_bond_distance
_geom_bond_site_symmetry_2
_ccdc_geom_bond_type
Tb0 C10 2.825 . S
Tb0 O11 2.347 . S
Tb0 O14 2.366 1_655 S
Tb0 O19 2.418 . S
Tb0 O20 2.384 . S
Tb0 O23 2.479 . S
Tb0 O24 2.471 . S
Eu1 O12 2.418 . S
Eu1 O13 2.384 . S
Eu1 O16 2.479 . S
Eu1 O17 2.471 . S
Eu1 O18 2.347 . S
Eu1 O21 2.366 1_455 S
Eu1 C31 2.825 . S
C2 O18 1.259 1_655 S
C2 O19 1.265 . S
C3 O20 1.255 . S
C3 O21 1.265 . S
C4 C6 1.380 . S
C4 C7 1.374 . S
C4 C10 1.507 . S
C5 C6 1.384 . S
C5 C9 1.387 . S
C5 H32 0.930 . S
C6 C4 1.380 . S
C6 C5 1.384 . S
C6 H33 0.931 . S
C7 C4 1.374 . S
C7 C8 1.390 . S
C7 H34 0.930 . S
C8 C7 1.390 . S
C8 C9 1.391 . S
C8 H35 0.930 . S
C9 C5 1.387 . S
C9 C8 1.391 . S
C10 Tb0 2.825 . S
C10 C4 1.507 . S
C10 O23 1.238 . S
C10 O24 1.247 . S
O11 Tb0 2.347 . S
O11 C15 1.259 1_655 S
O12 Eu1 2.418 . S
O12 C15 1.265 . S
O13 Eu1 2.384 . S
O13 C22 1.255 . S
O14 Tb0 2.366 1_455 S
O14 C22 1.265 . S
C15 O11 1.259 1_455 S
C15 O12 1.265 . S
O16 Eu1 2.479 . S
O16 C31 1.238 . S
O17 Eu1 2.471 . S
O17 C31 1.247 . S
O18 Eu1 2.347 . S
O18 C2 1.259 1_455 S
O19 Tb0 2.418 . S
O19 C2 1.265 . S
O20 Tb0 2.384 . S
O20 C3 1.255 . S
O21 Eu1 2.366 1_655 S
O21 C3 1.265 . S
C22 O13 1.255 . S
C22 O14 1.265 . S
O23 Tb0 2.479 . S
O23 C10 1.238 . S
O24 Tb0 2.471 . S
O24 C10 1.247 . S
C25 C28 1.380 . S
C25 C29 1.374 . S
C25 C31 1.507 . S
C26 C27 1.387 . S
C26 C30 1.391 . S
C27 C26 1.387 . S
C27 C28 1.384 . S
C27 H36 0.930 . S
C28 C25 1.380 . S
C28 C27 1.384 . S
C28 H37 0.931 . S
C29 C25 1.374 . S
C29 C30 1.390 . S
C29 H38 0.930 . S
C30 C26 1.391 . S
C30 C29 1.390 . S
C30 H39 0.930 1_565 S
C31 Eu1 2.825 . S
C31 O16 1.238 . S
C31 O17 1.247 . S
C31 C25 1.507 . S
H32 C5 0.930 . S
H33 C6 0.931 . S
H34 C7 0.930 . S
H35 C8 0.930 . S
H36 C27 0.930 . S
H37 C28 0.931 . S
H38 C29 0.930 . S
H39 C30 0.930 1_545 S
Tb40 C50 2.825 . S
Tb40 O51 2.347 . S
Tb40 O54 2.366 . S
Tb40 O59 2.418 . S
Tb40 O60 2.384 . S
Tb40 O63 2.479 . S
Tb40 O64 2.471 . S
Eu41 O52 2.418 . S
Eu41 O53 2.384 . S
Eu41 O56 2.479 . S
Eu41 O57 2.471 . S
Eu41 O58 2.347 . S
Eu41 O61 2.370 . S
Eu41 C71 2.825 . S
C42 O58 1.259 1_545 S
C42 O59 1.265 . S
C43 O60 1.255 . S
C43 O61 1.259 1_545 S
C44 C46 1.380 1_655 S
C44 C47 1.374 . S
C44 C50 1.507 . S
C45 C46 1.384 . S
C45 C49 1.387 1_455 S
C45 H72 0.930 . S
C46 C44 1.380 1_455 S
C46 C45 1.384 . S
C46 H73 0.931 . S
C47 C44 1.374 . S
C47 C48 1.390 . S
C47 H74 0.930 . S
C48 C47 1.390 . S
C48 C49 1.391 . S
C48 H75 0.930 . S
C49 C45 1.387 1_655 S
C49 C48 1.391 . S
C50 Tb40 2.825 . S
C50 C44 1.507 . S
C50 O63 1.238 . S
C50 O64 1.247 . S
O51 Tb40 2.347 . S
O51 C55 1.259 1_545 S
O52 Eu41 2.418 . S
O52 C55 1.265 . S
O53 Eu41 2.384 . S
O53 C62 1.255 . S
O54 Tb40 2.366 . S
O54 C62 1.265 1_545 S
C55 O51 1.259 1_565 S
C55 O52 1.265 . S
O56 Eu41 2.479 . S
O56 C71 1.238 . S
O57 Eu41 2.471 . S
O57 C71 1.247 . S
O58 Eu41 2.347 . S
O58 C42 1.259 1_565 S
O59 Tb40 2.418 . S
O59 C42 1.265 . S
O60 Tb40 2.384 . S
O60 C43 1.255 . S
O61 Eu41 2.370 . S
O61 C43 1.259 1_565 S
C62 O53 1.255 . S
C62 O54 1.265 1_565 S
O63 Tb40 2.479 . S
O63 C50 1.238 . S
O64 Tb40 2.471 . S
O64 C50 1.247 . S
C65 C68 1.380 . S
C65 C69 1.374 . S
C65 C71 1.507 . S
C66 C67 1.387 . S
C66 C70 1.391 . S
C67 C66 1.387 . S
C67 C68 1.384 . S
C67 H76 0.930 . S
C68 C65 1.380 . S
C68 C67 1.384 . S
C68 H77 0.931 . S
C69 C65 1.374 . S
C69 C70 1.390 . S
C69 H78 0.930 . S
C70 C66 1.391 . S
C70 C69 1.390 . S
C70 H79 0.930 . S
C71 Eu41 2.825 . S
C71 O56 1.238 . S
C71 O57 1.247 . S
C71 C65 1.507 . S
H72 C45 0.930 . S
H73 C46 0.931 . S
H74 C47 0.930 . S
H75 C48 0.930 . S
H76 C67 0.930 . S
H77 C68 0.931 . S
H78 C69 0.930 . S
H79 C70 0.930 . S
Tb80 C90 2.825 1_565 S
Tb80 O91 2.347 . S
Tb80 O94 2.366 . S
Tb80 O99 2.418 1_565 S
Tb80 O100 2.384 . S
Tb80 O103 2.479 1_565 S
Tb80 O104 2.471 . S
Eu81 O92 2.418 . S
Eu81 O93 2.384 . S
Eu81 O96 2.479 . S
Eu81 O97 2.471 1_655 S
Eu81 O98 2.347 . S
Eu81 O101 2.366 . S
Eu81 C111 2.821 1_655 S
C82 O98 1.259 1_445 S
C82 O99 1.265 1_455 S
C83 O100 1.255 . S
C83 O101 1.265 . S
C84 C86 1.380 . S
C84 C87 1.374 1_545 S
C84 C90 1.507 . S
C85 C86 1.384 . S
C85 C89 1.387 . S
C85 H112 0.930 . S
C86 C84 1.380 . S
C86 C85 1.384 . S
C86 H113 0.931 . S
C87 C84 1.374 1_565 S
C87 C88 1.390 . S
C87 H114 0.930 . S
C88 C87 1.390 . S
C88 C89 1.391 1_565 S
C88 H115 0.930 . S
C89 C85 1.387 . S
C89 C88 1.391 1_545 S
C90 Tb80 2.825 1_545 S
C90 C84 1.507 . S
C90 O103 1.238 . S
C90 O104 1.247 1_545 S
O91 Tb80 2.347 . S
O91 C95 1.259 . S
O92 Eu81 2.418 . S
O92 C95 1.265 . S
O93 Eu81 2.384 . S
O93 C102 1.255 . S
O94 Tb80 2.366 . S
O94 C102 1.265 . S
C95 O91 1.259 . S
C95 O92 1.265 . S
O96 Eu81 2.479 . S
O96 C111 1.234 1_655 S
O97 Eu81 2.471 1_455 S
O97 C111 1.247 . S
O98 Eu81 2.347 . S
O98 C82 1.259 1_665 S
O99 Tb80 2.418 1_545 S
O99 C82 1.265 1_655 S
O100 Tb80 2.384 . S
O100 C83 1.255 . S
O101 Eu81 2.366 . S
O101 C83 1.265 . S
C102 O93 1.255 . S
C102 O94 1.265 . S
O103 Tb80 2.479 1_545 S
O103 C90 1.238 . S
O104 Tb80 2.471 . S
O104 C90 1.247 1_565 S
C105 C108 1.380 . S
C105 C109 1.374 . S
C105 C111 1.510 . S
C106 C107 1.387 . S
C106 C110 1.391 . S
C107 C106 1.387 . S
C107 C108 1.384 . S
C107 H116 0.930 . S
C108 C105 1.380 . S
C108 C107 1.384 . S
C108 H117 0.931 1_455 S
C109 C105 1.374 . S
C109 C110 1.390 . S
C109 H118 0.930 . S
C110 C106 1.391 . S
C110 C109 1.390 . S
C110 H119 0.930 . S
C111 Eu81 2.821 1_455 S
C111 O96 1.234 1_455 S
C111 O97 1.247 . S
C111 C105 1.510 . S
H112 C85 0.930 . S
H113 C86 0.931 . S
H114 C87 0.930 . S
H115 C88 0.930 . S
H116 C107 0.930 . S
H117 C108 0.931 1_655 S
H118 C109 0.930 . S
H119 C110 0.930 . S
H120 C121 0.951 . S
C121 H120 0.951 . S
C121 C127 1.265 1_665 S
H122 C127 0.950 . S
H123 C131 0.949 . S
H124 C132 0.950 . S
H125 C133 0.951 . S
H126 C134 0.951 . S
C127 C121 1.265 1_445 S
C127 H122 0.950 . S
C127 C128 1.478 . S
C128 C127 1.478 . S
C128 C129 1.397 . S
C128 C145 1.394 1_455 S
C129 C128 1.397 . S
C129 C130 1.438 . S
C129 C134 1.429 . S
C130 C129 1.438 . S
C130 C131 1.428 . S
C130 C143 1.394 1_455 S
C131 H123 0.949 . S
C131 C130 1.428 . S
C131 C132 1.345 . S
C132 H124 0.950 . S
C132 C131 1.345 . S
C132 C133 1.424 . S
C133 H125 0.951 . S
C133 C132 1.424 . S
C133 C134 1.347 . S
C134 H126 0.951 . S
C134 C129 1.429 . S
C134 C133 1.347 . S
H135 C136 0.951 . S
C136 H135 0.951 . S
C136 C142 1.265 1_455 S
H137 C142 0.950 . S
H138 C146 0.949 . S
H139 C147 0.950 . S
H140 C148 0.951 . S
H141 C149 0.951 . S
C142 C136 1.265 1_655 S
C142 H137 0.950 . S
C142 C143 1.478 . S
C143 C130 1.394 1_655 S
C143 C142 1.478 . S
C143 C144 1.397 . S
C144 C143 1.397 . S
C144 C145 1.438 . S
C144 C149 1.429 . S
C145 C128 1.394 1_655 S
C145 C144 1.438 . S
C145 C146 1.428 1_545 S
C146 H138 0.949 . S
C146 C145 1.428 1_565 S
C146 C147 1.345 . S
C147 H139 0.950 . S
C147 C146 1.345 . S
C147 C148 1.424 1_565 S
C148 H140 0.951 . S
C148 C147 1.424 1_545 S
C148 C149 1.347 . S
C149 H141 0.951 . S
C149 C144 1.429 . S
C149 C148 1.347 . S
H150 C151 0.951 . S
C151 H150 0.951 . S
C151 C157 1.265 1_545 S
H152 C157 0.949 . S
H153 C161 0.949 1_655 S
H154 C162 0.950 1_655 S
H155 C163 0.951 . S
H156 C164 0.951 . S
C157 C151 1.265 1_565 S
C157 H152 0.949 . S
C157 C158 1.478 1_565 S
C158 C157 1.478 1_545 S
C158 C159 1.397 1_545 S
C158 C175 1.394 . S
C159 C158 1.397 1_565 S
C159 C160 1.438 . S
C159 C164 1.429 . S
C160 C159 1.438 . S
C160 C161 1.428 . S
C160 C173 1.394 1_565 S
C161 H153 0.949 1_455 S
C161 C160 1.428 . S
C161 C162 1.345 . S
C162 H154 0.950 1_455 S
C162 C161 1.345 . S
C162 C163 1.424 . S
C163 H155 0.951 . S
C163 C162 1.424 . S
C163 C164 1.347 . S
C164 H156 0.951 . S
C164 C159 1.429 . S
C164 C163 1.347 . S
H165 C166 0.951 1_655 S
C166 H165 0.951 1_455 S
C166 C172 1.265 1_565 S
H167 C172 0.950 . S
H168 C176 0.949 . S
H169 C177 0.950 . S
H170 C178 0.951 . S
H171 C179 0.951 . S
C172 C166 1.265 1_545 S
C172 H167 0.950 . S
C172 C173 1.478 . S
C173 C160 1.394 1_545 S
C173 C172 1.478 . S
C173 C174 1.397 . S
C174 C173 1.397 . S
C174 C175 1.438 . S
C174 C179 1.429 . S
C175 C158 1.394 . S
C175 C174 1.438 . S
C175 C176 1.428 . S
C176 H168 0.949 . S
C176 C175 1.428 . S
C176 C177 1.345 . S
C177 H169 0.950 . S
C177 C176 1.345 . S
C177 C178 1.424 . S
C178 H170 0.951 . S
C178 C177 1.424 . S
C178 C179 1.347 . S
C179 H171 0.951 . S
C179 C174 1.429 . S
C179 C178 1.347 . S
H180 C181 0.951 . S
C181 H180 0.951 . S
C181 C187 1.265 . S
H182 C187 0.950 . S
H183 C191 0.949 . S
H184 C192 0.950 . S
H185 C193 0.951 . S
H186 C194 0.951 . S
C187 C181 1.265 . S
C187 H182 0.950 . S
C187 C188 1.478 . S
C188 C187 1.478 . S
C188 C189 1.397 . S
C188 C205 1.394 . S
C189 C188 1.397 . S
C189 C190 1.438 . S
C189 C194 1.429 . S
C190 C189 1.438 . S
C190 C191 1.428 . S
C190 C203 1.394 . S
C191 H183 0.949 . S
C191 C190 1.428 . S
C191 C192 1.345 . S
C192 H184 0.950 . S
C192 C191 1.345 . S
C192 C193 1.424 . S
C193 H185 0.951 . S
C193 C192 1.424 . S
C193 C194 1.347 . S
C194 H186 0.951 . S
C194 C189 1.429 . S
C194 C193 1.347 . S
H195 C196 0.951 . S
C196 H195 0.951 . S
C196 C202 1.265 . S
H197 C202 0.950 . S
H198 C206 0.949 . S
H199 C207 0.950 . S
H200 C208 0.951 . S
H201 C209 0.951 . S
C202 C196 1.265 . S
C202 H197 0.950 . S
C202 C203 1.478 . S
C203 C190 1.394 . S
C203 C202 1.478 . S
C203 C204 1.397 . S
C204 C203 1.397 . S
C204 C205 1.438 . S
C204 C209 1.429 . S
C205 C188 1.394 . S
C205 C204 1.438 . S
C205 C206 1.428 . S
C206 H198 0.949 . S
C206 C205 1.428 . S
C206 C207 1.345 . S
C207 H199 0.950 . S
C207 C206 1.345 . S
C207 C208 1.424 . S
C208 H200 0.951 . S
C208 C207 1.424 . S
C208 C209 1.347 . S
C209 H201 0.951 . S
C209 C204 1.429 . S
C209 C208 1.347 . S
H210 C211 0.951 . S
C211 H210 0.951 . S
C211 C217 1.265 . S
H212 C217 0.950 . S
H213 C221 0.958 . S
H214 C222 0.984 . S
H215 C223 0.951 . S
H216 C224 0.951 . S
C217 C211 1.265 . S
C217 H212 0.950 . S
C217 C218 1.478 . S
C218 C217 1.478 . S
C218 C219 1.397 . S
C218 C235 1.394 1_545 S
C219 C218 1.397 . S
C219 C220 1.438 . S
C219 C224 1.429 . S
C220 C219 1.438 . S
C220 C221 1.420 1_556 S
C220 C233 1.394 . S
C221 H213 0.958 . S
C221 C220 1.420 1_554 S
C221 C222 1.348 . S
C222 H214 0.984 . S
C222 C221 1.348 . S
C222 C223 1.387 1_554 S
C223 H215 0.951 . S
C223 C222 1.387 1_556 S
C223 C224 1.347 . S
C224 H216 0.951 . S
C224 C219 1.429 . S
C224 C223 1.347 . S
H225 C226 0.951 1_545 S
C226 H225 0.951 1_565 S
C226 C232 1.247 1_554 S
H227 C232 0.955 . S
H228 C236 0.949 . S
H229 C237 0.950 . S
H230 C238 0.951 . S
H231 C239 0.951 . S
C232 C226 1.247 1_556 S
C232 H227 0.955 . S
C232 C233 1.492 1_565 S
C233 C220 1.394 . S
C233 C232 1.492 1_545 S
C233 C234 1.397 1_545 S
C234 C233 1.397 1_565 S
C234 C235 1.438 . S
C234 C239 1.429 . S
C235 C218 1.394 1_565 S
C235 C234 1.438 . S
C235 C236 1.428 . S
C236 H228 0.949 . S
C236 C235 1.428 . S
C236 C237 1.345 . S
C237 H229 0.950 . S
C237 C236 1.345 . S
C237 C238 1.424 . S
C238 H230 0.951 . S
C238 C237 1.424 . S
C238 C239 1.347 . S
C239 H231 0.951 . S
C239 C234 1.429 . S
C239 C238 1.347 . S
H240 C241 0.951 . S
C241 H240 0.951 . S
C241 C247 1.265 . S
H242 C247 0.950 . S
H243 C251 0.949 . S
H244 C252 0.950 1_565 S
H245 C253 0.951 . S
H246 C254 0.951 1_565 S
C247 C241 1.265 . S
C247 H242 0.950 . S
C247 C248 1.478 . S
C248 C247 1.478 . S
C248 C249 1.397 . S
C248 C265 1.394 . S
C249 C248 1.397 . S
C249 C250 1.438 . S
C249 C254 1.429 . S
C250 C249 1.438 . S
C250 C251 1.428 . S
C250 C263 1.394 . S
C251 H243 0.949 . S
C251 C250 1.428 . S
C251 C252 1.345 . S
C252 H244 0.950 1_545 S
C252 C251 1.345 . S
C252 C253 1.424 1_545 S
C253 H245 0.951 . S
C253 C252 1.424 1_565 S
C253 C254 1.347 1_565 S
C254 H246 0.951 1_545 S
C254 C249 1.429 . S
C254 C253 1.347 1_545 S
H255 C256 0.951 . S
C256 H255 0.951 . S
C256 C262 1.265 . S
H257 C262 0.950 . S
H258 C266 0.949 . S
H259 C267 0.950 . S
H260 C268 0.951 . S
H261 C269 0.951 . S
C262 C256 1.265 . S
C262 H257 0.950 . S
C262 C263 1.478 . S
C263 C250 1.394 . S
C263 C262 1.478 . S
C263 C264 1.397 . S
C264 C263 1.397 . S
C264 C265 1.438 . S
C264 C269 1.429 . S
C265 C248 1.394 . S
C265 C264 1.438 . S
C265 C266 1.428 . S
C266 H258 0.949 . S
C266 C265 1.428 . S
C266 C267 1.345 . S
C267 H259 0.950 . S
C267 C266 1.345 . S
C267 C268 1.424 . S
C268 H260 0.951 . S
C268 C267 1.424 . S
C268 C269 1.347 . S
C269 H261 0.951 . S
C269 C264 1.429 . S
C269 C268 1.347 . S
H270 C271 0.951 . S
C271 H270 0.951 . S
C271 C277 1.265 . S
H272 C277 0.950 . S
H273 C281 0.949 . S
H274 C282 0.950 . S
H275 C283 0.951 . S
H276 C284 0.951 . S
C277 C271 1.265 . S
C277 H272 0.950 . S
C277 C278 1.478 . S
C278 C277 1.478 . S
C278 C279 1.397 . S
C278 C295 1.394 1_565 S
C279 C278 1.397 . S
C279 C280 1.438 . S
C279 C284 1.429 . S
C280 C279 1.438 . S
C280 C281 1.428 . S
C280 C293 1.394 . S
C281 H273 0.949 . S
C281 C280 1.428 . S
C281 C282 1.345 . S
C282 H274 0.950 . S
C282 C281 1.345 . S
C282 C283 1.424 . S
C283 H275 0.951 . S
C283 C282 1.424 . S
C283 C284 1.347 . S
C284 H276 0.951 . S
C284 C279 1.429 . S
C284 C283 1.347 . S
H285 C286 0.951 . S
C286 H285 0.951 . S
C286 C292 1.265 . S
H287 C292 0.950 . S
H288 C296 0.949 . S
H289 C297 0.950 . S
H290 C298 0.951 . S
H291 C299 0.951 . S
C292 C286 1.265 . S
C292 H287 0.950 . S
C292 C293 1.478 . S
C293 C280 1.394 . S
C293 C292 1.478 . S
C293 C294 1.397 1_565 S
C294 C293 1.397 1_545 S
C294 C295 1.438 . S
C294 C299 1.429 . S
C295 C278 1.394 1_545 S
C295 C294 1.438 . S
C295 C296 1.428 . S
C296 H288 0.949 . S
C296 C295 1.428 . S
C296 C297 1.345 . S
C297 H289 0.950 . S
C297 C296 1.345 . S
C297 C298 1.424 . S
C298 H290 0.951 . S
C298 C297 1.424 . S
C298 C299 1.347 . S
C299 H291 0.951 . S
C299 C294 1.429 . S
C299 C298 1.347 . S
H300 C301 0.951 . S
C301 H300 0.951 . S
C301 C307 1.265 . S
H302 C307 0.950 1_455 S
H303 C311 0.949 1_655 S
H304 C312 0.950 1_545 S
H305 C313 0.957 . S
H306 C314 0.951 . S
C307 C301 1.265 . S
C307 H302 0.950 1_655 S
C307 C308 1.478 . S
C308 C307 1.478 . S
C308 C309 1.397 . S
C308 C325 1.394 . S
C309 C308 1.397 . S
C309 C310 1.438 1_556 S
C309 C314 1.429 1_655 S
C310 C309 1.438 1_554 S
C310 C311 1.428 1_655 S
C310 C323 1.394 . S
C311 H303 0.949 1_455 S
C311 C310 1.428 1_455 S
C311 C312 1.345 . S
C312 H304 0.950 1_565 S
C312 C311 1.345 . S
C312 C313 1.395 1_564 S
C313 H305 0.957 . S
C313 C312 1.395 1_546 S
C313 C314 1.370 1_545 S
C314 H306 0.951 . S
C314 C309 1.429 1_455 S
C314 C313 1.370 1_565 S
H315 C316 0.951 . S
C316 H315 0.951 . S
C316 C322 1.265 . S
H317 C322 0.950 . S
H318 C326 0.949 . S
H319 C327 0.950 . S
H320 C328 0.951 . S
H321 C329 0.951 . S
C322 C316 1.265 . S
C322 H317 0.950 . S
C322 C323 1.478 . S
C323 C310 1.394 . S
C323 C322 1.478 . S
C323 C324 1.397 1_554 S
C324 C323 1.397 1_556 S
C324 C325 1.438 . S
C324 C329 1.429 1_556 S
C325 C308 1.394 . S
C325 C324 1.438 . S
C325 C326 1.428 . S
C326 H318 0.949 . S
C326 C325 1.428 . S
C326 C327 1.345 . S
C327 H319 0.950 . S
C327 C326 1.345 . S
C327 C328 1.424 . S
C328 H320 0.951 . S
C328 C327 1.424 . S
C328 C329 1.347 1_556 S
C329 H321 0.951 . S
C329 C324 1.429 1_554 S
C329 C328 1.347 1_554 S
H330 C331 0.951 . S
C331 H330 0.951 . S
C331 C337 1.265 . S
H332 C337 0.950 . S
H333 C341 0.949 . S
H334 C342 0.950 . S
H335 C343 0.951 . S
H336 C344 0.951 . S
C337 C331 1.265 . S
C337 H332 0.950 . S
C337 C338 1.478 . S
C338 C337 1.478 . S
C338 C339 1.397 . S
C338 C355 1.394 . S
C339 C338 1.397 . S
C339 C340 1.438 . S
C339 C344 1.429 . S
C340 C339 1.438 . S
C340 C341 1.428 . S
C340 C353 1.394 . S
C341 H333 0.949 . S
C341 C340 1.428 . S
C341 C342 1.345 . S
C342 H334 0.950 . S
C342 C341 1.345 . S
C342 C343 1.424 . S
C343 H335 0.951 . S
C343 C342 1.424 . S
C343 C344 1.347 . S
C344 H336 0.951 . S
C344 C339 1.429 . S
C344 C343 1.347 . S
H345 C346 0.951 . S
C346 H345 0.951 . S
C346 C352 1.265 . S
H347 C352 0.950 . S
H348 C356 0.949 . S
H349 C357 0.950 . S
H350 C358 0.951 . S
H351 C359 0.951 . S
C352 C346 1.265 . S
C352 H347 0.950 . S
C352 C353 1.478 . S
C353 C340 1.394 . S
C353 C352 1.478 . S
C353 C354 1.397 . S
C354 C353 1.397 . S
C354 C355 1.438 . S
C354 C359 1.429 . S
C355 C338 1.394 . S
C355 C354 1.438 . S
C355 C356 1.428 . S
C356 H348 0.949 . S
C356 C355 1.428 . S
C356 C357 1.345 . S
C357 H349 0.950 . S
C357 C356 1.345 . S
C357 C358 1.424 . S
C358 H350 0.951 . S
C358 C357 1.424 . S
C358 C359 1.347 . S
C359 H351 0.951 . S
C359 C354 1.429 . S
C359 C358 1.347 . S
H360 C361 0.951 . S
C361 H360 0.951 . S
C361 C367 1.265 . S
H362 C367 0.950 1_655 S
H363 C371 0.949 . S
H364 C372 0.950 . S
H365 C373 0.951 . S
H366 C374 0.951 . S
C367 C361 1.265 . S
C367 H362 0.950 1_455 S
C367 C368 1.478 . S
C368 C367 1.478 . S
C368 C369 1.397 1_455 S
C368 C385 1.394 . S
C369 C368 1.397 1_655 S
C369 C370 1.438 . S
C369 C374 1.429 . S
C370 C369 1.438 . S
C370 C371 1.428 . S
C370 C383 1.394 1_655 S
C371 H363 0.949 . S
C371 C370 1.428 . S
C371 C372 1.345 . S
C372 H364 0.950 . S
C372 C371 1.345 . S
C372 C373 1.424 . S
C373 H365 0.951 . S
C373 C372 1.424 . S
C373 C374 1.347 . S
C374 H366 0.951 . S
C374 C369 1.429 . S
C374 C373 1.347 . S
H375 C376 0.951 . S
C376 H375 0.951 . S
C376 C382 1.265 1_655 S
H377 C382 0.950 . S
H378 C386 0.949 . S
H379 C387 0.950 . S
H380 C388 0.951 . S
H381 C389 0.951 . S
C382 C376 1.265 1_455 S
C382 H377 0.950 . S
C382 C383 1.478 . S
C383 C370 1.394 1_455 S
C383 C382 1.478 . S
C383 C384 1.397 . S
C384 C383 1.397 . S
C384 C385 1.438 . S
C384 C389 1.429 . S
C385 C368 1.394 . S
C385 C384 1.438 . S
C385 C386 1.428 . S
C386 H378 0.949 . S
C386 C385 1.428 . S
C386 C387 1.345 . S
C387 H379 0.950 . S
C387 C386 1.345 . S
C387 C388 1.424 . S
C388 H380 0.951 . S
C388 C387 1.424 . S
C388 C389 1.347 . S
C389 H381 0.951 . S
C389 C384 1.429 . S
C389 C388 1.347 . S
C121 C2 1.502 . S
C136 C15 1.502 . S
C151 C55 1.606 1_545 S
C166 C42 1.606 1_465 S
C181 C82 1.345 . S
C196 C95 1.345 . S
C211 C89 0.950 . S
C226 C26 0.902 . S
C241 C43 1.845 . S
C256 C9 1.790 . S
C271 C83 2.394 . S
C286 C62 2.364 . S
C301 C102 2.291 . S
C316 C3 2.244 . S
C331 C22 1.802 . S
C346 C66 1.682 . S
C361 C106 1.074 . S
C376 C49 1.047 . S
