# Generated by pormake.
# Topology mdf, (4)-cn, num edge types: 1
# Building blocks:
#     Node 0, Type 0, BuildingBlock: QUQFOY_clean_sbu_1, # of connection points: 4
#     Node 1, Type 0, BuildingBlock: QUQFOY_clean_sbu_1, # of connection points: 4
#     Node 2, Type 0, BuildingBlock: QUQFOY_clean_sbu_1, # of connection points: 4
#     Node 3, Type 0, BuildingBlock: QUQFOY_clean_sbu_1, # of connection points: 4
#     Node 4, Type 0, BuildingBlock: QUQFOY_clean_sbu_1, # of connection points: 4
#     Node 5, Type 0, BuildingBlock: QUQFOY_clean_sbu_1, # of connection points: 4
#     Node 6, Type 0, BuildingBlock: QUQFOY_clean_sbu_1, # of connection points: 4
#     Node 7, Type 0, BuildingBlock: QUQFOY_clean_sbu_1, # of connection points: 4
#     Edge 8, Type (0, 0), BuildingBlock: CIFDUS_clean_linker_0, # of connection points: 2
#     Edge 9, Type (0, 0), BuildingBlock: CIFDUS_clean_linker_0, # of connection points: 2
#     Edge 10, Type (0, 0), BuildingBlock: CIFDUS_clean_linker_0, # of connection points: 2
#     Edge 11, Type (0, 0), BuildingBlock: CIFDUS_clean_linker_0, # of connection points: 2
#     Edge 12, Type (0, 0), BuildingBlock: CIFDUS_clean_linker_0, # of connection points: 2
#     Edge 13, Type (0, 0), BuildingBlock: CIFDUS_clean_linker_0, # of connection points: 2
#     Edge 14, Type (0, 0), BuildingBlock: CIFDUS_clean_linker_0, # of connection points: 2
#     Edge 15, Type (0, 0), BuildingBlock: CIFDUS_clean_linker_0, # of connection points: 2
#     Edge 16, Type (0, 0), BuildingBlock: CIFDUS_clean_linker_0, # of connection points: 2
#     Edge 17, Type (0, 0), BuildingBlock: CIFDUS_clean_linker_0, # of connection points: 2
#     Edge 18, Type (0, 0), BuildingBlock: CIFDUS_clean_linker_0, # of connection points: 2
#     Edge 19, Type (0, 0), BuildingBlock: CIFDUS_clean_linker_0, # of connection points: 2
#     Edge 20, Type (0, 0), BuildingBlock: CIFDUS_clean_linker_0, # of connection points: 2
#     Edge 21, Type (0, 0), BuildingBlock: CIFDUS_clean_linker_0, # of connection points: 2
#     Edge 22, Type (0, 0), BuildingBlock: CIFDUS_clean_linker_0, # of connection points: 2
#     Edge 23, Type (0, 0), BuildingBlock: CIFDUS_clean_linker_0, # of connection points: 2
# Relax obj value: 0.010
# Max RMSD: 0.062
# Mean RMSD: 0.062
data_MOF--net-mdf--node1-QUQFOY_clean_sbu_1--edge1-CIFDUS_clean_linker_0
_symmetry_space_group_name_H-M    P1
_symmetry_Int_Tables_number       1
_symmetry_cell_setting            triclinic
loop_
_symmetry_equiv_pos_as_xyz
'x, y, z'
_cell_length_a     34.281274
_cell_length_b     34.174934
_cell_length_c     10.912328
_cell_angle_alpha  90.064167
_cell_angle_beta   89.995895
_cell_angle_gamma 89.898939
loop_
_atom_site_label
_atom_site_type_symbol
_atom_site_fract_x
_atom_site_fract_y
_atom_site_fract_z
_atom_type_partial_charge
O0 O 0.32498 0.50079 0.34318 0.0
Cd1 Cd 0.28349 0.53744 0.26763 0.0
Cd2 Cd 0.2551 0.53754 0.49622 0.0
O3 O 0.30918 0.5127 0.5357 0.0
O4 O 0.30605 0.56326 0.11808 0.0
O5 O 0.29359 0.59461 0.29121 0.0
C6 C 0.30741 0.59519 0.18135 0.0
C7 C 0.23057 0.5951 0.58384 0.0
C8 C 0.33172 0.49675 0.45714 0.0
C9 C 0.20706 0.49691 0.30587 0.0
O10 O 0.21376 0.50097 0.41987 0.0
O11 O 0.22959 0.51275 0.22745 0.0
O12 O 0.23223 0.56308 0.64638 0.0
O13 O 0.24452 0.59478 0.47413 0.0
O14 O 0.54086 0.72127 0.70486 0.0
Cd15 Cd 0.50267 0.76586 0.74576 0.0
Cd16 Cd 0.50446 0.77639 0.50444 0.0
O17 O 0.52908 0.72089 0.50617 0.0
O18 O 0.47396 0.7508 0.89862 0.0
O19 O 0.44686 0.75255 0.71449 0.0
C20 C 0.44418 0.74388 0.82929 0.0
C21 C 0.4516 0.79517 0.3831 0.0
C22 C 0.54507 0.70558 0.6 0.0
C23 C 0.5429 0.83763 0.66134 0.0
O24 O 0.53996 0.82217 0.55568 0.0
O25 O 0.52622 0.82183 0.75317 0.0
O26 O 0.48541 0.78872 0.33505 0.0
O27 O 0.44734 0.7886 0.49873 0.0
O28 O 0.32532 0.03807 0.92028 0.0
Cd29 Cd 0.28239 1.0025 0.99252 0.0
Cd30 Cd 0.25629 1.00244 0.76427 0.0
O31 O 0.30959 0.02814 0.72705 0.0
O32 O 0.30243 0.98272 0.15226 0.0
O33 O 0.29255 0.94448 0.99124 0.0
C34 C 0.30431 0.94845 0.10302 0.0
C35 C 0.2344 0.94804 0.65532 0.0
C36 C 0.33221 0.04299 0.80684 0.0
C37 C 0.20626 0.0429 0.94978 0.0
O38 O 0.21321 0.03804 0.83632 0.0
O39 O 0.22896 0.0281 0.02946 0.0
O40 O 0.2362 0.98214 0.60517 0.0
O41 O 0.24634 0.94441 0.76702 0.0
O42 O 0.99571 0.72177 0.06247 0.0
Cd43 Cd 0.03406 0.76609 0.02124 0.0
Cd44 Cd 0.03187 0.77718 0.26283 0.0
O45 O 1.00714 0.72179 0.26137 0.0
O46 O 0.0627 0.75062 0.86809 0.0
O47 O 0.08987 0.75227 0.05204 0.0
C48 C 0.09249 0.74349 0.93725 0.0
C49 C 0.08526 0.79564 0.38237 0.0
C50 C 0.9913 0.70634 0.1675 0.0
C51 C 0.99383 0.83843 0.10511 0.0
O52 O 0.99649 0.82314 0.21101 0.0
O53 O 1.01068 0.82234 0.01382 0.0
O54 O 0.05156 0.78963 0.43157 0.0
O55 O 0.08907 0.78888 0.26664 0.0
O56 O 0.81987 1.00032 0.80323 0.0
Cd57 Cd 0.77449 0.03626 0.75076 0.0
Cd58 Cd 0.76327 0.0387 0.99205 0.0
O59 O 0.81915 1.01476 1.00028 0.0
O60 O 0.78759 0.05548 0.582 0.0
O61 O 0.78724 0.09353 0.74611 0.0
C62 C 0.79429 0.08925 0.63067 0.0
C63 C 0.74148 0.09729 0.07881 0.0
C64 C 0.83508 0.99764 0.90921 0.0
C65 C 0.70348 0.99588 0.84491 0.0
O66 O 0.71878 1.0005 0.95009 0.0
O67 O 0.71903 1.01163 0.75105 0.0
O68 O 0.74816 0.06698 0.14637 0.0
O69 O 0.75012 0.09506 0.96381 0.0
O70 O 0.03861 0.21389 0.16725 0.0
Cd71 Cd 1.0032 0.25733 0.23894 0.0
Cd72 Cd 1.00414 0.28342 0.00877 0.0
O73 O 0.02935 0.22962 0.97369 0.0
O74 O 0.98367 0.23736 0.39949 0.0
O75 O 0.94527 0.24695 0.23928 0.0
C76 C 0.94944 0.23516 0.35096 0.0
C77 C 0.94994 0.30488 0.89885 0.0
C78 C 0.04369 0.20681 0.05394 0.0
C79 C 0.04422 0.33358 0.19464 0.0
O80 O 0.03966 0.32652 0.08109 0.0
O81 O 0.02903 0.31106 0.27423 0.0
O82 O 0.98398 0.30307 0.84881 0.0
O83 O 0.94635 0.29339 0.01105 0.0
O84 O 0.81932 0.54117 0.45663 0.0
Cd85 Cd 0.77438 0.50442 0.50491 0.0
Cd86 Cd 0.76342 0.50409 0.26453 0.0
O87 O 0.81868 0.52857 0.25855 0.0
O88 O 0.78798 0.4851 0.67194 0.0
O89 O 0.78734 0.44712 0.50741 0.0
C90 C 0.79479 0.45142 0.62278 0.0
C91 C 0.74284 0.45115 0.14635 0.0
C92 C 0.83445 0.5449 0.35097 0.0
C93 C 0.70316 0.54481 0.41755 0.0
O94 O 0.71837 0.54093 0.31204 0.0
O95 O 0.719 0.52873 0.51023 0.0
O96 O 0.74973 0.4848 0.09752 0.0
O97 O 0.75041 0.44676 0.26157 0.0
O98 O 0.49994 0.21411 0.59347 0.0
Cd99 Cd 0.53644 0.25713 0.52584 0.0
Cd100 Cd 0.53446 0.28314 0.75651 0.0
O101 O 0.50924 0.22914 0.78776 0.0
O102 O 0.56322 0.23627 0.3758 0.0
O103 O 0.59367 0.2477 0.55106 0.0
C104 C 0.59483 0.23469 0.43998 0.0
C105 C 0.58827 0.30441 0.86909 0.0
C106 C 0.49474 0.20675 0.70654 0.0
C107 C 0.49539 0.3335 0.56783 0.0
O108 O 0.4993 0.3262 0.6815 0.0
O109 O 0.51119 0.31116 0.48845 0.0
O110 O 0.55411 0.30252 0.91828 0.0
O111 O 0.59211 0.29324 0.75673 0.0
H112 H 0.42244 0.7331 0.06701 0.0
H113 H 0.39044 0.7035 0.69605 0.0
H114 H 0.34292 0.65626 0.77191 0.0
H115 H 0.31593 0.61799 0.94379 0.0
H116 H 0.34498 0.65062 0.31459 0.0
H117 H 0.3876 0.70247 0.23887 0.0
C118 C 0.4044 0.71707 1.00285 0.0
C119 C 0.41027 0.72164 0.87617 0.0
C120 C 0.37684 0.69015 0.04708 0.0
C121 C 0.38657 0.70059 0.79414 0.0
C122 C 0.35953 0.67332 0.8374 0.0
C123 C 0.33119 0.63686 0.00778 0.0
C124 C 0.32784 0.63015 0.13438 0.0
C125 C 0.35529 0.66699 0.96363 0.0
C126 C 0.3472 0.65516 0.21659 0.0
C127 C 0.37173 0.68469 0.1734 0.0
H128 H 0.39103 0.83743 0.471 0.0
H129 H 0.44328 0.79715 0.13417 0.0
H130 H 0.39704 0.8365 0.01587 0.0
H131 H 0.34748 0.8889 0.00965 0.0
H132 H 0.30308 0.93616 0.34856 0.0
H133 H 0.34001 0.88758 0.46474 0.0
C134 C 0.39175 0.83662 0.37164 0.0
C135 C 0.42024 0.81408 0.3113 0.0
C136 C 0.36664 0.86106 0.30475 0.0
C137 C 0.42132 0.81393 0.1826 0.0
C138 C 0.39508 0.83668 0.11501 0.0
C139 C 0.34532 0.88791 0.10877 0.0
C140 C 0.32233 0.91572 0.17067 0.0
C141 C 0.36841 0.86129 0.17521 0.0
C142 C 0.32035 0.9148 0.29914 0.0
C143 C 0.34163 0.88717 0.36554 0.0
H144 H 0.14591 0.83697 0.29203 0.0
H145 H 0.09457 0.79784 0.63109 0.0
H146 H 0.14144 0.83701 0.74732 0.0
H147 H 0.19128 0.88902 0.75117 0.0
H148 H 0.23504 0.93491 0.4101 0.0
H149 H 0.19742 0.88644 0.29593 0.0
C150 C 0.14552 0.83636 0.39142 0.0
C151 C 0.11704 0.81429 0.45296 0.0
C152 C 0.17106 0.86064 0.45715 0.0
C153 C 0.11643 0.81435 0.58171 0.0
C154 C 0.14306 0.83696 0.64813 0.0
C155 C 0.19316 0.88774 0.65201 0.0
C156 C 0.21615 0.91518 0.58893 0.0
C157 C 0.16971 0.86118 0.58673 0.0
C158 C 0.21778 0.91386 0.46044 0.0
C159 C 0.19609 0.8863 0.39517 0.0
H160 H 0.11457 0.73286 0.69941 0.0
H161 H 0.14583 0.70245 0.07023 0.0
H162 H 0.19352 0.65521 0.99416 0.0
H163 H 0.22112 0.61733 0.82192 0.0
H164 H 0.19287 0.65072 0.45134 0.0
H165 H 0.1498 0.70234 0.52745 0.0
C166 C 0.13244 0.71659 0.76352 0.0
C167 C 0.12634 0.72099 0.89022 0.0
C168 C 0.16013 0.68966 0.71916 0.0
C169 C 0.14987 0.69968 0.97215 0.0
C170 C 0.17702 0.67241 0.92876 0.0
C171 C 0.20593 0.6363 0.75807 0.0
C172 C 0.20969 0.62987 0.63136 0.0
C173 C 0.18156 0.66632 0.80246 0.0
C174 C 0.19037 0.65502 0.54941 0.0
C175 C 0.16557 0.68444 0.59281 0.0
H176 H 0.83878 0.14805 0.71985 0.0
H177 H 0.79577 0.0988 0.38212 0.0
H178 H 0.83572 0.14462 0.26455 0.0
H179 H 0.88889 0.19324 0.2584 0.0
H180 H 0.93875 0.23435 0.59747 0.0
H181 H 0.89019 0.19773 0.71387 0.0
C182 C 0.83753 0.14792 0.62052 0.0
C183 C 0.81394 0.12043 0.55973 0.0
C184 C 0.86229 0.17275 0.5538 0.0
C185 C 0.8133 0.12002 0.43098 0.0
C186 C 0.8364 0.14602 0.36376 0.0
C187 C 0.88853 0.19474 0.35768 0.0
C188 C 0.91701 0.21688 0.41937 0.0
C189 C 0.86186 0.17177 0.42419 0.0
C190 C 0.91684 0.2179 0.54804 0.0
C191 C 0.88923 0.19675 0.61463 0.0
H192 H 0.89199 0.34938 0.99332 0.0
H193 H 0.93582 0.30218 0.65383 0.0
H194 H 0.88628 0.33842 0.53923 0.0
H195 H 0.83586 0.38959 0.534 0.0
H196 H 0.80133 0.44575 0.87116 0.0
H197 H 0.84089 0.39984 0.98828 0.0
C198 C 0.89006 0.34646 0.89449 0.0
C199 C 0.91703 0.32275 0.832 0.0
C200 C 0.86312 0.3693 0.82881 0.0
C201 C 0.91499 0.3199 0.70377 0.0
C202 C 0.88684 0.34082 0.63826 0.0
C203 C 0.83634 0.3912 0.63327 0.0
C204 C 0.81473 0.42041 0.69389 0.0
C205 C 0.86146 0.36648 0.69953 0.0
C206 C 0.8166 0.42282 0.82237 0.0
C207 C 0.83971 0.39687 0.88944 0.0
H208 H 0.70297 0.38836 0.23409 0.0
H209 H 0.73476 0.44673 0.89839 0.0
H210 H 0.69496 0.40127 0.78096 0.0
H211 H 0.64456 0.35051 0.77562 0.0
H212 H 0.60416 0.29946 0.11339 0.0
H213 H 0.6535 0.33616 0.22812 0.0
C214 C 0.70183 0.39055 0.13501 0.0
C215 C 0.72273 0.42031 0.07491 0.0
C216 C 0.67665 0.36592 0.06862 0.0
C217 C 0.72004 0.42343 0.94674 0.0
C218 C 0.6968 0.39771 0.8795 0.0
C219 C 0.64715 0.34689 0.87406 0.0
C220 C 0.62105 0.3223 0.93621 0.0
C221 C 0.67414 0.36958 0.93972 0.0
C222 C 0.62405 0.31833 0.06393 0.0
C223 C 0.65216 0.33936 0.1294 0.0
H224 H 0.73113 0.11806 0.3181 0.0
H225 H 0.70178 0.15263 0.94932 0.0
H226 H 0.65557 0.20086 0.02846 0.0
H227 H 0.61789 0.2276 0.20218 0.0
H228 H 0.65016 0.19601 0.57104 0.0
H229 H 0.70131 0.15284 0.49238 0.0
C230 C 0.71538 0.13679 0.25513 0.0
C231 C 0.71973 0.13143 0.12801 0.0
C232 C 0.68906 0.16479 0.3013 0.0
C233 C 0.69904 0.15605 0.04765 0.0
C234 C 0.67237 0.18352 0.09279 0.0
C235 C 0.63659 0.21176 0.26519 0.0
C236 C 0.62992 0.21454 0.39207 0.0
C237 C 0.66626 0.18728 0.21935 0.0
C238 C 0.65468 0.19431 0.47291 0.0
C239 C 0.68379 0.16942 0.42799 0.0
H240 H 0.38274 0.45559 0.31454 0.0
H241 H 0.35422 0.48009 0.69239 0.0
H242 H 0.40409 0.43376 0.75967 0.0
H243 H 0.45286 0.38323 0.71148 0.0
H244 H 0.48033 0.3578 0.33344 0.0
H245 H 0.43403 0.40772 0.26657 0.0
C246 C 0.38759 0.45112 0.41173 0.0
C247 C 0.36444 0.47126 0.49809 0.0
C248 C 0.41608 0.42408 0.44996 0.0
C249 C 0.37139 0.46501 0.62363 0.0
C250 C 0.39991 0.43841 0.66231 0.0
C251 C 0.44906 0.38881 0.6144 0.0
C252 C 0.47002 0.36647 0.52779 0.0
C253 C 0.42199 0.41731 0.5763 0.0
C254 C 0.4646 0.37431 0.40238 0.0
C255 C 0.43802 0.40286 0.3639 0.0
H256 H 0.66713 0.97324 0.63387 0.0
H257 H 0.66228 0.95975 0.02693 0.0
H258 H 0.6099 0.91206 1.00582 0.0
H259 H 0.56882 0.87029 0.87522 0.0
H260 H 0.57494 0.88286 0.48203 0.0
H261 H 0.62297 0.93483 0.50423 0.0
C262 C 0.65437 0.96022 0.71507 0.0
C263 C 0.66899 0.96994 0.83166 0.0
C264 C 0.62447 0.93237 0.70241 0.0
C265 C 0.6519 0.95273 0.9358 0.0
C266 C 0.62189 0.92535 0.92394 0.0
C267 C 0.58025 0.88475 0.79445 0.0
C268 C 0.56841 0.87235 0.67718 0.0
C269 C 0.60843 0.91437 0.80759 0.0
C270 C 0.58366 0.89149 0.57355 0.0
C271 C 0.61123 0.92126 0.58601 0.0
H272 H 0.08484 0.15676 0.1995 0.0
H273 H 0.05899 0.18205 0.82041 0.0
H274 H 0.10489 0.13156 0.75518 0.0
H275 H 0.15573 0.08357 0.80501 0.0
H276 H 0.18279 0.05936 0.18395 0.0
H277 H 0.13286 0.10585 0.24949 0.0
C278 C 0.08891 0.15101 0.10258 0.0
C279 C 0.06863 0.17348 0.01515 0.0
C280 C 0.11576 0.12222 0.06544 0.0
C281 C 0.0743 0.16544 0.88992 0.0
C282 C 0.10063 0.13657 0.85237 0.0
C283 C 0.1505 0.08812 0.902 0.0
C284 C 0.17329 0.06814 0.98924 0.0
C285 C 0.12205 0.11529 0.93925 0.0
C286 C 0.1659 0.07443 0.11457 0.0
C287 C 0.13735 0.10109 0.15228 0.0
H288 H 0.96879 0.67024 0.37865 0.0
H289 H 0.95569 0.6646 0.98546 0.0
H290 H 0.90842 0.61184 0.00685 0.0
H291 H 0.86696 0.57073 0.13755 0.0
H292 H 0.87898 0.57772 0.53087 0.0
H293 H 0.9306 0.6261 0.50859 0.0
C294 C 0.95593 0.65723 0.29749 0.0
C295 C 0.9656 0.67171 0.18078 0.0
C296 C 0.92833 0.62716 0.31032 0.0
C297 C 0.94865 0.65432 0.07666 0.0
C298 C 0.92153 0.6241 0.08868 0.0
C299 C 0.88119 0.58245 0.21837 0.0
C300 C 0.86879 0.57078 0.33564 0.0
C301 C 0.91056 0.6108 0.20515 0.0
C302 C 0.88765 0.58633 0.43935 0.0
C303 C 0.9172 0.6141 0.42684 0.0
H304 H 0.38281 0.08327 0.95221 0.0
H305 H 0.35528 0.06017 0.57283 0.0
H306 H 0.40502 0.1068 0.50826 0.0
H307 H 0.45316 0.15744 0.55944 0.0
H308 H 0.47946 0.18146 0.93917 0.0
H309 H 0.43359 0.13101 1.00307 0.0
C310 C 0.38789 0.08809 0.8553 0.0
C311 C 0.36504 0.06835 0.7677 0.0
C312 C 0.41623 0.11533 0.81864 0.0
C313 C 0.37223 0.07501 0.6425 0.0
C314 C 0.40067 0.10177 0.60534 0.0
C315 C 0.44918 0.15142 0.65619 0.0
C316 C 0.46961 0.17352 0.7442 0.0
C317 C 0.42236 0.12261 0.69263 0.0
C318 C 0.46405 0.16514 0.8692 0.0
C319 C 0.43774 0.13628 0.90601 0.0
H320 H 0.86896 0.9744 0.12429 0.0
H321 H 0.87926 0.96285 0.73158 0.0
H322 H 0.93144 0.91506 0.75696 0.0
H323 H 0.97065 0.87242 0.89019 0.0
H324 H 0.95931 0.88286 0.28291 0.0
H325 H 0.9116 0.93516 0.25758 0.0
C326 C 0.88293 0.96183 0.04421 0.0
C327 C 0.86982 0.97208 0.9263 0.0
C328 C 0.91273 0.93382 0.05926 0.0
C329 C 0.88842 0.95539 0.82365 0.0
C330 C 0.91833 0.92794 0.83793 0.0
C331 C 0.95815 0.88645 0.9703 0.0
C332 C 0.96844 0.87334 0.08818 0.0
C333 C 0.93019 0.9163 0.95527 0.0
C334 C 0.95183 0.89202 0.19086 0.0
C335 C 0.92442 0.92199 0.1766 0.0
H336 H 0.08655 0.3832 0.05077 0.0
H337 H 0.05913 0.35802 0.4288 0.0
H338 H 0.10511 0.40806 0.49579 0.0
H339 H 0.15612 0.45591 0.44807 0.0
H340 H 0.18472 0.48022 0.07039 0.0
H341 H 0.13508 0.43382 1.00278 0.0
C342 C 0.0903 0.38886 0.14785 0.0
C343 C 0.06947 0.36656 0.23445 0.0
C344 C 0.11719 0.41745 0.18606 0.0
C345 C 0.07481 0.3745 0.35988 0.0
C346 C 0.10119 0.40312 0.39844 0.0
C347 C 0.15134 0.45139 0.35085 0.0
C348 C 0.17444 0.47146 0.26464 0.0
C349 C 0.12302 0.4243 0.31245 0.0
C350 C 0.16758 0.46516 0.13904 0.0
C351 C 0.1392 0.43853 0.10016 0.0
H352 H 0.56799 0.66959 0.38884 0.0
H353 H 0.58037 0.66371 0.78219 0.0
H354 H 0.628 0.61108 0.76098 0.0
H355 H 0.67002 0.5703 0.63055 0.0
H356 H 0.65879 0.57756 0.23707 0.0
H357 H 0.60673 0.62569 0.25901 0.0
C358 C 0.58076 0.65654 0.47006 0.0
C359 C 0.57081 0.67092 0.58678 0.0
C360 C 0.60858 0.62658 0.45733 0.0
C361 C 0.58765 0.6535 0.691 0.0
C362 C 0.61496 0.62336 0.67908 0.0
C363 C 0.65587 0.58203 0.5496 0.0
C364 C 0.66862 0.57052 0.43243 0.0
C365 C 0.62625 0.61022 0.56263 0.0
C366 C 0.64985 0.58606 0.32853 0.0
C367 C 0.62005 0.61367 0.34085 0.0
loop_
_geom_bond_atom_site_label_1
_geom_bond_atom_site_label_2
_geom_bond_distance
_geom_bond_site_symmetry_2
_ccdc_geom_bond_type
O0 Cd1 2.223 . S
O0 C8 1.315 . S
Cd1 O0 2.223 . S
Cd1 O4 2.297 . S
Cd1 O5 2.439 . S
Cd1 O11 2.240 . S
Cd2 O3 2.240 . S
Cd2 O10 2.223 . S
Cd2 O12 2.297 . S
Cd2 O13 2.439 . S
O3 Cd2 2.240 . S
O3 C8 1.279 . S
O4 Cd1 2.297 . S
O4 C6 1.247 . S
O5 Cd1 2.439 . S
O5 C6 1.208 . S
C6 O4 1.247 . S
C6 O5 1.208 . S
C7 O12 1.247 . S
C7 O13 1.208 . S
C8 O0 1.315 . S
C8 O3 1.279 . S
C9 O10 1.315 . S
C9 O11 1.279 . S
O10 Cd2 2.223 . S
O10 C9 1.315 . S
O11 Cd1 2.240 . S
O11 C9 1.279 . S
O12 Cd2 2.297 . S
O12 C7 1.247 . S
O13 Cd2 2.439 . S
O13 C7 1.208 . S
O14 Cd15 2.223 . S
O14 C22 1.315 . S
Cd15 O14 2.223 . S
Cd15 O18 2.297 . S
Cd15 O19 2.439 . S
Cd15 O25 2.240 . S
Cd16 O17 2.240 . S
Cd16 O24 2.223 . S
Cd16 O26 2.297 . S
Cd16 O27 2.439 . S
O17 Cd16 2.240 . S
O17 C22 1.279 . S
O18 Cd15 2.297 . S
O18 C20 1.247 . S
O19 Cd15 2.439 . S
O19 C20 1.208 . S
C20 O18 1.247 . S
C20 O19 1.208 . S
C21 O26 1.247 . S
C21 O27 1.208 . S
C22 O14 1.315 . S
C22 O17 1.279 . S
C23 O24 1.315 . S
C23 O25 1.279 . S
O24 Cd16 2.223 . S
O24 C23 1.315 . S
O25 Cd15 2.240 . S
O25 C23 1.279 . S
O26 Cd16 2.297 . S
O26 C21 1.247 . S
O27 Cd16 2.439 . S
O27 C21 1.208 . S
O28 Cd29 2.223 1_556 S
O28 C36 1.315 . S
Cd29 O28 2.223 1_554 S
Cd29 O32 2.297 1_545 S
Cd29 O33 2.439 1_544 S
Cd29 O39 2.240 1_554 S
Cd30 O31 2.240 . S
Cd30 O38 2.223 . S
Cd30 O40 2.297 1_545 S
Cd30 O41 2.439 1_545 S
O31 Cd30 2.240 . S
O31 C36 1.279 . S
O32 Cd29 2.297 1_565 S
O32 C34 1.247 . S
O33 Cd29 2.439 1_566 S
O33 C34 1.208 1_556 S
C34 O32 1.247 . S
C34 O33 1.208 1_554 S
C35 O40 1.247 . S
C35 O41 1.208 . S
C36 O28 1.315 . S
C36 O31 1.279 . S
C37 O38 1.315 . S
C37 O39 1.279 . S
O38 Cd30 2.223 . S
O38 C37 1.315 . S
O39 Cd29 2.240 1_556 S
O39 C37 1.279 . S
O40 Cd30 2.297 1_565 S
O40 C35 1.247 . S
O41 Cd30 2.439 1_565 S
O41 C35 1.208 . S
O42 Cd43 2.223 1_554 S
O42 C50 1.315 . S
Cd43 O42 2.223 1_556 S
Cd43 O46 2.297 1_655 S
Cd43 O47 2.439 1_656 S
Cd43 O53 2.240 1_556 S
Cd44 O45 2.240 . S
Cd44 O52 2.223 . S
Cd44 O54 2.297 1_655 S
Cd44 O55 2.439 1_655 S
O45 Cd44 2.240 . S
O45 C50 1.279 . S
O46 Cd43 2.297 1_455 S
O46 C48 1.247 . S
O47 Cd43 2.439 1_454 S
O47 C48 1.208 1_554 S
C48 O46 1.247 . S
C48 O47 1.208 1_556 S
C49 O54 1.247 . S
C49 O55 1.208 . S
C50 O42 1.315 . S
C50 O45 1.279 . S
C51 O52 1.315 . S
C51 O53 1.279 . S
O52 Cd44 2.223 . S
O52 C51 1.315 . S
O53 Cd43 2.240 1_554 S
O53 C51 1.279 . S
O54 Cd44 2.297 1_455 S
O54 C49 1.247 . S
O55 Cd44 2.439 1_455 S
O55 C49 1.208 . S
O56 Cd57 2.223 . S
O56 C64 1.315 . S
Cd57 O56 2.223 . S
Cd57 O60 2.297 1_565 S
Cd57 O61 2.439 1_565 S
Cd57 O67 2.240 . S
Cd58 O59 2.240 1_554 S
Cd58 O66 2.223 1_554 S
Cd58 O68 2.297 1_565 S
Cd58 O69 2.439 1_564 S
O59 Cd58 2.240 1_556 S
O59 C64 1.279 . S
O60 Cd57 2.297 1_545 S
O60 C62 1.247 . S
O61 Cd57 2.439 1_545 S
O61 C62 1.208 . S
C62 O60 1.247 . S
C62 O61 1.208 . S
C63 O68 1.247 . S
C63 O69 1.208 1_554 S
C64 O56 1.315 . S
C64 O59 1.279 . S
C65 O66 1.315 . S
C65 O67 1.279 . S
O66 Cd58 2.223 1_556 S
O66 C65 1.315 . S
O67 Cd57 2.240 . S
O67 C65 1.279 . S
O68 Cd58 2.297 1_545 S
O68 C63 1.247 . S
O69 Cd58 2.439 1_546 S
O69 C63 1.208 1_556 S
O70 Cd71 2.223 . S
O70 C78 1.315 . S
Cd71 O70 2.223 . S
Cd71 O74 2.297 1_455 S
Cd71 O75 2.439 1_455 S
Cd71 O81 2.240 . S
Cd72 O73 2.240 1_556 S
Cd72 O80 2.223 1_556 S
Cd72 O82 2.297 1_455 S
Cd72 O83 2.439 1_456 S
O73 Cd72 2.240 1_554 S
O73 C78 1.279 . S
O74 Cd71 2.297 1_655 S
O74 C76 1.247 . S
O75 Cd71 2.439 1_655 S
O75 C76 1.208 . S
C76 O74 1.247 . S
C76 O75 1.208 . S
C77 O82 1.247 . S
C77 O83 1.208 1_556 S
C78 O70 1.315 . S
C78 O73 1.279 . S
C79 O80 1.315 . S
C79 O81 1.279 . S
O80 Cd72 2.223 1_554 S
O80 C79 1.315 . S
O81 Cd71 2.240 . S
O81 C79 1.279 . S
O82 Cd72 2.297 1_655 S
O82 C77 1.247 . S
O83 Cd72 2.439 1_654 S
O83 C77 1.208 1_554 S
O84 Cd85 2.223 . S
O84 C92 1.315 . S
Cd85 O84 2.223 . S
Cd85 O88 2.297 . S
Cd85 O89 2.439 . S
Cd85 O95 2.240 . S
Cd86 O87 2.240 . S
Cd86 O94 2.223 . S
Cd86 O96 2.297 . S
Cd86 O97 2.439 . S
O87 Cd86 2.240 . S
O87 C92 1.279 . S
O88 Cd85 2.297 . S
O88 C90 1.247 . S
O89 Cd85 2.439 . S
O89 C90 1.208 . S
C90 O88 1.247 . S
C90 O89 1.208 . S
C91 O96 1.247 . S
C91 O97 1.208 . S
C92 O84 1.315 . S
C92 O87 1.279 . S
C93 O94 1.315 . S
C93 O95 1.279 . S
O94 Cd86 2.223 . S
O94 C93 1.315 . S
O95 Cd85 2.240 . S
O95 C93 1.279 . S
O96 Cd86 2.297 . S
O96 C91 1.247 . S
O97 Cd86 2.439 . S
O97 C91 1.208 . S
O98 Cd99 2.223 . S
O98 C106 1.315 . S
Cd99 O98 2.223 . S
Cd99 O102 2.297 . S
Cd99 O103 2.439 . S
Cd99 O109 2.240 . S
Cd100 O101 2.240 . S
Cd100 O108 2.223 . S
Cd100 O110 2.297 . S
Cd100 O111 2.439 . S
O101 Cd100 2.240 . S
O101 C106 1.279 . S
O102 Cd99 2.297 . S
O102 C104 1.247 . S
O103 Cd99 2.439 . S
O103 C104 1.208 . S
C104 O102 1.247 . S
C104 O103 1.208 . S
C105 O110 1.247 . S
C105 O111 1.208 . S
C106 O98 1.315 . S
C106 O101 1.279 . S
C107 O108 1.315 . S
C107 O109 1.279 . S
O108 Cd100 2.223 . S
O108 C107 1.315 . S
O109 Cd99 2.240 . S
O109 C107 1.279 . S
O110 Cd100 2.297 . S
O110 C105 1.247 . S
O111 Cd100 2.439 . S
O111 C105 1.208 . S
H112 C118 0.930 . S
H113 C121 0.930 . S
H114 C122 0.930 . S
H115 C123 0.930 . S
H116 C126 0.930 . S
H117 C127 0.930 . S
C118 H112 0.930 . S
C118 C119 1.355 . S
C118 C120 1.415 1_556 S
C119 C118 1.355 . S
C119 C121 1.419 . S
C120 C118 1.415 1_554 S
C120 C125 1.425 1_554 S
C120 C127 1.409 . S
C121 H113 0.930 . S
C121 C119 1.419 . S
C121 C122 1.362 . S
C122 H114 0.930 . S
C122 C121 1.362 . S
C122 C125 1.409 . S
C123 H115 0.930 . S
C123 C124 1.355 . S
C123 C125 1.415 1_554 S
C124 C123 1.355 . S
C124 C126 1.419 . S
C125 C120 1.425 1_556 S
C125 C122 1.409 . S
C125 C123 1.415 1_556 S
C126 H116 0.930 . S
C126 C124 1.419 . S
C126 C127 1.362 . S
C127 H117 0.930 . S
C127 C120 1.409 . S
C127 C126 1.362 . S
H128 C134 0.930 . S
H129 C137 0.930 . S
H130 C138 0.930 . S
H131 C139 0.930 . S
H132 C142 0.930 . S
H133 C143 0.930 . S
C134 H128 0.930 . S
C134 C135 1.355 . S
C134 C136 1.415 . S
C135 C134 1.355 . S
C135 C137 1.419 . S
C136 C134 1.415 . S
C136 C141 1.425 . S
C136 C143 1.409 . S
C137 H129 0.930 . S
C137 C135 1.419 . S
C137 C138 1.362 . S
C138 H130 0.930 . S
C138 C137 1.362 . S
C138 C141 1.409 . S
C139 H131 0.930 . S
C139 C140 1.355 . S
C139 C141 1.415 . S
C140 C139 1.355 . S
C140 C142 1.419 . S
C141 C136 1.425 . S
C141 C138 1.409 . S
C141 C139 1.415 . S
C142 H132 0.930 . S
C142 C140 1.419 . S
C142 C143 1.362 . S
C143 H133 0.930 . S
C143 C136 1.409 . S
C143 C142 1.362 . S
H144 C150 0.930 . S
H145 C153 0.930 . S
H146 C154 0.930 . S
H147 C155 0.930 . S
H148 C158 0.930 . S
H149 C159 0.930 . S
C150 H144 0.930 . S
C150 C151 1.355 . S
C150 C152 1.415 . S
C151 C150 1.355 . S
C151 C153 1.419 . S
C152 C150 1.415 . S
C152 C157 1.425 . S
C152 C159 1.409 . S
C153 H145 0.930 . S
C153 C151 1.419 . S
C153 C154 1.362 . S
C154 H146 0.930 . S
C154 C153 1.362 . S
C154 C157 1.409 . S
C155 H147 0.930 . S
C155 C156 1.355 . S
C155 C157 1.415 . S
C156 C155 1.355 . S
C156 C158 1.419 . S
C157 C152 1.425 . S
C157 C154 1.409 . S
C157 C155 1.415 . S
C158 H148 0.930 . S
C158 C156 1.419 . S
C158 C159 1.362 . S
C159 H149 0.930 . S
C159 C152 1.409 . S
C159 C158 1.362 . S
H160 C166 0.930 . S
H161 C169 0.930 1_554 S
H162 C170 0.930 . S
H163 C171 0.930 . S
H164 C174 0.930 . S
H165 C175 0.930 . S
C166 H160 0.930 . S
C166 C167 1.355 . S
C166 C168 1.415 . S
C167 C166 1.355 . S
C167 C169 1.419 . S
C168 C166 1.415 . S
C168 C173 1.425 . S
C168 C175 1.409 . S
C169 H161 0.930 1_556 S
C169 C167 1.419 . S
C169 C170 1.362 . S
C170 H162 0.930 . S
C170 C169 1.362 . S
C170 C173 1.409 . S
C171 H163 0.930 . S
C171 C172 1.355 . S
C171 C173 1.415 . S
C172 C171 1.355 . S
C172 C174 1.419 . S
C173 C168 1.425 . S
C173 C170 1.409 . S
C173 C171 1.415 . S
C174 H164 0.930 . S
C174 C172 1.419 . S
C174 C175 1.362 . S
C175 H165 0.930 . S
C175 C168 1.409 . S
C175 C174 1.362 . S
H176 C182 0.930 . S
H177 C185 0.930 . S
H178 C186 0.930 . S
H179 C187 0.930 . S
H180 C190 0.930 . S
H181 C191 0.930 . S
C182 H176 0.930 . S
C182 C183 1.355 . S
C182 C184 1.415 . S
C183 C182 1.355 . S
C183 C185 1.419 . S
C184 C182 1.415 . S
C184 C189 1.425 . S
C184 C191 1.409 . S
C185 H177 0.930 . S
C185 C183 1.419 . S
C185 C186 1.362 . S
C186 H178 0.930 . S
C186 C185 1.362 . S
C186 C189 1.409 . S
C187 H179 0.930 . S
C187 C188 1.355 . S
C187 C189 1.415 . S
C188 C187 1.355 . S
C188 C190 1.419 . S
C189 C184 1.425 . S
C189 C186 1.409 . S
C189 C187 1.415 . S
C190 H180 0.930 . S
C190 C188 1.419 . S
C190 C191 1.362 . S
C191 H181 0.930 . S
C191 C184 1.409 . S
C191 C190 1.362 . S
H192 C198 0.930 . S
H193 C201 0.930 . S
H194 C202 0.930 . S
H195 C203 0.930 . S
H196 C206 0.930 . S
H197 C207 0.930 . S
C198 H192 0.930 . S
C198 C199 1.355 . S
C198 C200 1.415 . S
C199 C198 1.355 . S
C199 C201 1.419 . S
C200 C198 1.415 . S
C200 C205 1.425 . S
C200 C207 1.409 . S
C201 H193 0.930 . S
C201 C199 1.419 . S
C201 C202 1.362 . S
C202 H194 0.930 . S
C202 C201 1.362 . S
C202 C205 1.409 . S
C203 H195 0.930 . S
C203 C204 1.355 . S
C203 C205 1.415 . S
C204 C203 1.355 . S
C204 C206 1.419 . S
C205 C200 1.425 . S
C205 C202 1.409 . S
C205 C203 1.415 . S
C206 H196 0.930 . S
C206 C204 1.419 . S
C206 C207 1.362 . S
C207 H197 0.930 . S
C207 C200 1.409 . S
C207 C206 1.362 . S
H208 C214 0.930 . S
H209 C217 0.930 1_556 S
H210 C218 0.930 . S
H211 C219 0.930 . S
H212 C222 0.930 1_554 S
H213 C223 0.930 . S
C214 H208 0.930 . S
C214 C215 1.355 . S
C214 C216 1.415 . S
C215 C214 1.355 . S
C215 C217 1.419 . S
C216 C214 1.415 . S
C216 C221 1.425 1_554 S
C216 C223 1.409 . S
C217 H209 0.930 1_554 S
C217 C215 1.419 . S
C217 C218 1.362 1_554 S
C218 H210 0.930 . S
C218 C217 1.362 1_556 S
C218 C221 1.409 . S
C219 H211 0.930 . S
C219 C220 1.355 . S
C219 C221 1.415 . S
C220 C219 1.355 . S
C220 C222 1.419 . S
C221 C216 1.425 1_556 S
C221 C218 1.409 . S
C221 C219 1.415 . S
C222 H212 0.930 1_556 S
C222 C220 1.419 . S
C222 C223 1.362 1_556 S
C223 H213 0.930 . S
C223 C216 1.409 . S
C223 C222 1.362 1_554 S
H224 C230 0.930 . S
H225 C233 0.930 . S
H226 C234 0.930 . S
H227 C235 0.930 . S
H228 C238 0.930 . S
H229 C239 0.930 . S
C230 H224 0.930 . S
C230 C231 1.355 . S
C230 C232 1.415 . S
C231 C230 1.355 . S
C231 C233 1.419 . S
C232 C230 1.415 . S
C232 C237 1.425 . S
C232 C239 1.409 . S
C233 H225 0.930 . S
C233 C231 1.419 . S
C233 C234 1.362 . S
C234 H226 0.930 . S
C234 C233 1.362 . S
C234 C237 1.409 . S
C235 H227 0.930 . S
C235 C236 1.355 . S
C235 C237 1.415 . S
C236 C235 1.355 . S
C236 C238 1.419 . S
C237 C232 1.425 . S
C237 C234 1.409 . S
C237 C235 1.415 . S
C238 H228 0.930 . S
C238 C236 1.419 . S
C238 C239 1.362 . S
C239 H229 0.930 . S
C239 C232 1.409 . S
C239 C238 1.362 . S
H240 C246 0.930 . S
H241 C249 0.930 . S
H242 C250 0.930 . S
H243 C251 0.930 . S
H244 C254 0.930 . S
H245 C255 0.930 . S
C246 H240 0.930 . S
C246 C247 1.355 . S
C246 C248 1.415 . S
C247 C246 1.355 . S
C247 C249 1.419 . S
C248 C246 1.415 . S
C248 C253 1.425 . S
C248 C255 1.409 . S
C249 H241 0.930 . S
C249 C247 1.419 . S
C249 C250 1.362 . S
C250 H242 0.930 . S
C250 C249 1.362 . S
C250 C253 1.409 . S
C251 H243 0.930 . S
C251 C252 1.355 . S
C251 C253 1.415 . S
C252 C251 1.355 . S
C252 C254 1.419 . S
C253 C248 1.425 . S
C253 C250 1.409 . S
C253 C251 1.415 . S
C254 H244 0.930 . S
C254 C252 1.419 . S
C254 C255 1.362 . S
C255 H245 0.930 . S
C255 C248 1.409 . S
C255 C254 1.362 . S
H256 C262 0.930 . S
H257 C265 0.930 . S
H258 C266 0.930 . S
H259 C267 0.930 . S
H260 C270 0.930 . S
H261 C271 0.930 . S
C262 H256 0.930 . S
C262 C263 1.355 . S
C262 C264 1.415 . S
C263 C262 1.355 . S
C263 C265 1.419 . S
C264 C262 1.415 . S
C264 C269 1.425 . S
C264 C271 1.409 . S
C265 H257 0.930 . S
C265 C263 1.419 . S
C265 C266 1.362 . S
C266 H258 0.930 . S
C266 C265 1.362 . S
C266 C269 1.409 . S
C267 H259 0.930 . S
C267 C268 1.355 . S
C267 C269 1.415 . S
C268 C267 1.355 . S
C268 C270 1.419 . S
C269 C264 1.425 . S
C269 C266 1.409 . S
C269 C267 1.415 . S
C270 H260 0.930 . S
C270 C268 1.419 . S
C270 C271 1.362 . S
C271 H261 0.930 . S
C271 C264 1.409 . S
C271 C270 1.362 . S
H272 C278 0.930 . S
H273 C281 0.930 . S
H274 C282 0.930 . S
H275 C283 0.930 . S
H276 C286 0.930 . S
H277 C287 0.930 . S
C278 H272 0.930 . S
C278 C279 1.355 . S
C278 C280 1.415 . S
C279 C278 1.355 . S
C279 C281 1.419 . S
C280 C278 1.415 . S
C280 C285 1.425 1_554 S
C280 C287 1.409 . S
C281 H273 0.930 . S
C281 C279 1.419 . S
C281 C282 1.362 1_554 S
C282 H274 0.930 . S
C282 C281 1.362 1_556 S
C282 C285 1.409 . S
C283 H275 0.930 . S
C283 C284 1.355 . S
C283 C285 1.415 . S
C284 C283 1.355 . S
C284 C286 1.419 . S
C285 C280 1.425 1_556 S
C285 C282 1.409 . S
C285 C283 1.415 . S
C286 H276 0.930 . S
C286 C284 1.419 . S
C286 C287 1.362 1_556 S
C287 H277 0.930 . S
C287 C280 1.409 . S
C287 C286 1.362 1_554 S
H288 C294 0.930 . S
H289 C297 0.930 . S
H290 C298 0.930 . S
H291 C299 0.930 . S
H292 C302 0.930 . S
H293 C303 0.930 . S
C294 H288 0.930 . S
C294 C295 1.355 . S
C294 C296 1.415 . S
C295 C294 1.355 . S
C295 C297 1.419 . S
C296 C294 1.415 . S
C296 C301 1.425 . S
C296 C303 1.409 . S
C297 H289 0.930 . S
C297 C295 1.419 . S
C297 C298 1.362 . S
C298 H290 0.930 . S
C298 C297 1.362 . S
C298 C301 1.409 . S
C299 H291 0.930 . S
C299 C300 1.355 . S
C299 C301 1.415 . S
C300 C299 1.355 . S
C300 C302 1.419 . S
C301 C296 1.425 . S
C301 C298 1.409 . S
C301 C299 1.415 . S
C302 H292 0.930 . S
C302 C300 1.419 . S
C302 C303 1.362 . S
C303 H293 0.930 . S
C303 C296 1.409 . S
C303 C302 1.362 . S
H304 C310 0.930 . S
H305 C313 0.930 . S
H306 C314 0.930 . S
H307 C315 0.930 . S
H308 C318 0.930 . S
H309 C319 0.930 . S
C310 H304 0.930 . S
C310 C311 1.355 . S
C310 C312 1.415 . S
C311 C310 1.355 . S
C311 C313 1.419 . S
C312 C310 1.415 . S
C312 C317 1.425 . S
C312 C319 1.409 . S
C313 H305 0.930 . S
C313 C311 1.419 . S
C313 C314 1.362 . S
C314 H306 0.930 . S
C314 C313 1.362 . S
C314 C317 1.409 . S
C315 H307 0.930 . S
C315 C316 1.355 . S
C315 C317 1.415 . S
C316 C315 1.355 . S
C316 C318 1.419 . S
C317 C312 1.425 . S
C317 C314 1.409 . S
C317 C315 1.415 . S
C318 H308 0.930 . S
C318 C316 1.419 . S
C318 C319 1.362 . S
C319 H309 0.930 . S
C319 C312 1.409 . S
C319 C318 1.362 . S
H320 C326 0.930 . S
H321 C329 0.930 . S
H322 C330 0.930 . S
H323 C331 0.930 . S
H324 C334 0.930 . S
H325 C335 0.930 . S
C326 H320 0.930 . S
C326 C327 1.355 1_554 S
C326 C328 1.415 . S
C327 C326 1.355 1_556 S
C327 C329 1.419 . S
C328 C326 1.415 . S
C328 C333 1.425 1_554 S
C328 C335 1.409 . S
C329 H321 0.930 . S
C329 C327 1.419 . S
C329 C330 1.362 . S
C330 H322 0.930 . S
C330 C329 1.362 . S
C330 C333 1.409 . S
C331 H323 0.930 . S
C331 C332 1.355 1_556 S
C331 C333 1.415 . S
C332 C331 1.355 1_554 S
C332 C334 1.419 . S
C333 C328 1.425 1_556 S
C333 C330 1.409 . S
C333 C331 1.415 . S
C334 H324 0.930 . S
C334 C332 1.419 . S
C334 C335 1.362 . S
C335 H325 0.930 . S
C335 C328 1.409 . S
C335 C334 1.362 . S
H336 C342 0.930 . S
H337 C345 0.930 . S
H338 C346 0.930 . S
H339 C347 0.930 . S
H340 C350 0.930 . S
H341 C351 0.930 . S
C342 H336 0.930 . S
C342 C343 1.355 . S
C342 C344 1.415 . S
C343 C342 1.355 . S
C343 C345 1.419 . S
C344 C342 1.415 . S
C344 C349 1.425 . S
C344 C351 1.409 . S
C345 H337 0.930 . S
C345 C343 1.419 . S
C345 C346 1.362 . S
C346 H338 0.930 . S
C346 C345 1.362 . S
C346 C349 1.409 . S
C347 H339 0.930 . S
C347 C348 1.355 . S
C347 C349 1.415 . S
C348 C347 1.355 . S
C348 C350 1.419 . S
C349 C344 1.425 . S
C349 C346 1.409 . S
C349 C347 1.415 . S
C350 H340 0.930 . S
C350 C348 1.419 . S
C350 C351 1.362 . S
C351 H341 0.930 . S
C351 C344 1.409 . S
C351 C350 1.362 . S
H352 C358 0.930 . S
H353 C361 0.930 . S
H354 C362 0.930 . S
H355 C363 0.930 . S
H356 C366 0.930 . S
H357 C367 0.930 . S
C358 H352 0.930 . S
C358 C359 1.355 . S
C358 C360 1.415 . S
C359 C358 1.355 . S
C359 C361 1.419 . S
C360 C358 1.415 . S
C360 C365 1.425 . S
C360 C367 1.409 . S
C361 H353 0.930 . S
C361 C359 1.419 . S
C361 C362 1.362 . S
C362 H354 0.930 . S
C362 C361 1.362 . S
C362 C365 1.409 . S
C363 H355 0.930 . S
C363 C364 1.355 . S
C363 C365 1.415 . S
C364 C363 1.355 . S
C364 C366 1.419 . S
C365 C360 1.425 . S
C365 C362 1.409 . S
C365 C363 1.415 . S
C366 H356 0.930 . S
C366 C364 1.419 . S
C366 C367 1.362 . S
C367 H357 0.930 . S
C367 C360 1.409 . S
C367 C366 1.362 . S
C119 C20 1.536 . S
C124 C6 1.526 . S
C135 C21 1.531 . S
C140 C34 1.518 . S
C151 C49 1.490 . S
C156 C35 1.500 . S
C167 C48 1.534 . S
C172 C7 1.538 . S
C183 C62 1.495 . S
C188 C76 1.488 . S
C199 C77 1.504 . S
C204 C90 1.492 . S
C215 C91 1.488 . S
C220 C105 1.491 . S
C231 C63 1.515 . S
C236 C104 1.529 . S
C247 C8 1.552 . S
C252 C107 1.550 . S
C263 C65 1.523 . S
C268 C23 1.515 . S
C279 C78 1.535 . S
C284 C37 1.549 . S
C295 C50 1.521 . S
C300 C92 1.535 . S
C311 C36 1.550 . S
C316 C106 1.552 . S
C327 C64 1.521 . S
C332 C51 1.536 . S
C343 C79 1.540 . S
C348 C9 1.525 . S
C359 C22 1.519 . S
C364 C93 1.534 . S
