# Generated by pormake.
# Topology fcm, (5)-cn, num edge types: 1
# Building blocks:
#     Node 0, Type 0, BuildingBlock: XOMCOT_clean_sbu_1, # of connection points: 5
#     Node 1, Type 0, BuildingBlock: XOMCOT_clean_sbu_1, # of connection points: 5
#     Node 2, Type 0, BuildingBlock: XOMCOT_clean_sbu_1, # of connection points: 5
#     Node 3, Type 0, BuildingBlock: XOMCOT_clean_sbu_1, # of connection points: 5
#     Node 4, Type 0, BuildingBlock: XOMCOT_clean_sbu_1, # of connection points: 5
#     Node 5, Type 0, BuildingBlock: XOMCOT_clean_sbu_1, # of connection points: 5
#     Node 6, Type 0, BuildingBlock: XOMCOT_clean_sbu_1, # of connection points: 5
#     Node 7, Type 0, BuildingBlock: XOMCOT_clean_sbu_1, # of connection points: 5
#     Node 8, Type 0, BuildingBlock: XOMCOT_clean_sbu_1, # of connection points: 5
#     Node 9, Type 0, BuildingBlock: XOMCOT_clean_sbu_1, # of connection points: 5
#     Node 10, Type 0, BuildingBlock: XOMCOT_clean_sbu_1, # of connection points: 5
#     Node 11, Type 0, BuildingBlock: XOMCOT_clean_sbu_1, # of connection points: 5
#     Node 12, Type 0, BuildingBlock: XOMCOT_clean_sbu_1, # of connection points: 5
#     Node 13, Type 0, BuildingBlock: XOMCOT_clean_sbu_1, # of connection points: 5
#     Node 14, Type 0, BuildingBlock: XOMCOT_clean_sbu_1, # of connection points: 5
#     Node 15, Type 0, BuildingBlock: XOMCOT_clean_sbu_1, # of connection points: 5
#     Node 16, Type 0, BuildingBlock: XOMCOT_clean_sbu_1, # of connection points: 5
#     Node 17, Type 0, BuildingBlock: XOMCOT_clean_sbu_1, # of connection points: 5
#     Node 18, Type 0, BuildingBlock: XOMCOT_clean_sbu_1, # of connection points: 5
#     Node 19, Type 0, BuildingBlock: XOMCOT_clean_sbu_1, # of connection points: 5
#     Node 20, Type 0, BuildingBlock: XOMCOT_clean_sbu_1, # of connection points: 5
#     Node 21, Type 0, BuildingBlock: XOMCOT_clean_sbu_1, # of connection points: 5
#     Node 22, Type 0, BuildingBlock: XOMCOT_clean_sbu_1, # of connection points: 5
#     Node 23, Type 0, BuildingBlock: XOMCOT_clean_sbu_1, # of connection points: 5
#     Node 24, Type 0, BuildingBlock: XOMCOT_clean_sbu_1, # of connection points: 5
#     Node 25, Type 0, BuildingBlock: XOMCOT_clean_sbu_1, # of connection points: 5
#     Node 26, Type 0, BuildingBlock: XOMCOT_clean_sbu_1, # of connection points: 5
#     Node 27, Type 0, BuildingBlock: XOMCOT_clean_sbu_1, # of connection points: 5
#     Node 28, Type 0, BuildingBlock: XOMCOT_clean_sbu_1, # of connection points: 5
#     Node 29, Type 0, BuildingBlock: XOMCOT_clean_sbu_1, # of connection points: 5
#     Node 30, Type 0, BuildingBlock: XOMCOT_clean_sbu_1, # of connection points: 5
#     Node 31, Type 0, BuildingBlock: XOMCOT_clean_sbu_1, # of connection points: 5
#     Node 32, Type 0, BuildingBlock: XOMCOT_clean_sbu_1, # of connection points: 5
#     Node 33, Type 0, BuildingBlock: XOMCOT_clean_sbu_1, # of connection points: 5
#     Node 34, Type 0, BuildingBlock: XOMCOT_clean_sbu_1, # of connection points: 5
#     Node 35, Type 0, BuildingBlock: XOMCOT_clean_sbu_1, # of connection points: 5
#     Node 36, Type 0, BuildingBlock: XOMCOT_clean_sbu_1, # of connection points: 5
#     Node 37, Type 0, BuildingBlock: XOMCOT_clean_sbu_1, # of connection points: 5
#     Node 38, Type 0, BuildingBlock: XOMCOT_clean_sbu_1, # of connection points: 5
#     Node 39, Type 0, BuildingBlock: XOMCOT_clean_sbu_1, # of connection points: 5
#     Node 40, Type 0, BuildingBlock: XOMCOT_clean_sbu_1, # of connection points: 5
#     Node 41, Type 0, BuildingBlock: XOMCOT_clean_sbu_1, # of connection points: 5
#     Node 42, Type 0, BuildingBlock: XOMCOT_clean_sbu_1, # of connection points: 5
#     Node 43, Type 0, BuildingBlock: XOMCOT_clean_sbu_1, # of connection points: 5
#     Node 44, Type 0, BuildingBlock: XOMCOT_clean_sbu_1, # of connection points: 5
#     Node 45, Type 0, BuildingBlock: XOMCOT_clean_sbu_1, # of connection points: 5
#     Node 46, Type 0, BuildingBlock: XOMCOT_clean_sbu_1, # of connection points: 5
#     Node 47, Type 0, BuildingBlock: XOMCOT_clean_sbu_1, # of connection points: 5
#     Edge 48, Type (0, 0), BuildingBlock: EZIPEK_clean_linker_0, # of connection points: 2
#     Edge 49, Type (0, 0), BuildingBlock: EZIPEK_clean_linker_0, # of connection points: 2
#     Edge 50, Type (0, 0), BuildingBlock: EZIPEK_clean_linker_0, # of connection points: 2
#     Edge 51, Type (0, 0), BuildingBlock: EZIPEK_clean_linker_0, # of connection points: 2
#     Edge 52, Type (0, 0), BuildingBlock: EZIPEK_clean_linker_0, # of connection points: 2
#     Edge 53, Type (0, 0), BuildingBlock: EZIPEK_clean_linker_0, # of connection points: 2
#     Edge 54, Type (0, 0), BuildingBlock: EZIPEK_clean_linker_0, # of connection points: 2
#     Edge 55, Type (0, 0), BuildingBlock: EZIPEK_clean_linker_0, # of connection points: 2
#     Edge 56, Type (0, 0), BuildingBlock: EZIPEK_clean_linker_0, # of connection points: 2
#     Edge 57, Type (0, 0), BuildingBlock: EZIPEK_clean_linker_0, # of connection points: 2
#     Edge 58, Type (0, 0), BuildingBlock: EZIPEK_clean_linker_0, # of connection points: 2
#     Edge 59, Type (0, 0), BuildingBlock: EZIPEK_clean_linker_0, # of connection points: 2
#     Edge 60, Type (0, 0), BuildingBlock: EZIPEK_clean_linker_0, # of connection points: 2
#     Edge 61, Type (0, 0), BuildingBlock: EZIPEK_clean_linker_0, # of connection points: 2
#     Edge 62, Type (0, 0), BuildingBlock: EZIPEK_clean_linker_0, # of connection points: 2
#     Edge 63, Type (0, 0), BuildingBlock: EZIPEK_clean_linker_0, # of connection points: 2
#     Edge 64, Type (0, 0), BuildingBlock: EZIPEK_clean_linker_0, # of connection points: 2
#     Edge 65, Type (0, 0), BuildingBlock: EZIPEK_clean_linker_0, # of connection points: 2
#     Edge 66, Type (0, 0), BuildingBlock: EZIPEK_clean_linker_0, # of connection points: 2
#     Edge 67, Type (0, 0), BuildingBlock: EZIPEK_clean_linker_0, # of connection points: 2
#     Edge 68, Type (0, 0), BuildingBlock: EZIPEK_clean_linker_0, # of connection points: 2
#     Edge 69, Type (0, 0), BuildingBlock: EZIPEK_clean_linker_0, # of connection points: 2
#     Edge 70, Type (0, 0), BuildingBlock: EZIPEK_clean_linker_0, # of connection points: 2
#     Edge 71, Type (0, 0), BuildingBlock: EZIPEK_clean_linker_0, # of connection points: 2
#     Edge 72, Type (0, 0), BuildingBlock: EZIPEK_clean_linker_0, # of connection points: 2
#     Edge 73, Type (0, 0), BuildingBlock: EZIPEK_clean_linker_0, # of connection points: 2
#     Edge 74, Type (0, 0), BuildingBlock: EZIPEK_clean_linker_0, # of connection points: 2
#     Edge 75, Type (0, 0), BuildingBlock: EZIPEK_clean_linker_0, # of connection points: 2
#     Edge 76, Type (0, 0), BuildingBlock: EZIPEK_clean_linker_0, # of connection points: 2
#     Edge 77, Type (0, 0), BuildingBlock: EZIPEK_clean_linker_0, # of connection points: 2
#     Edge 78, Type (0, 0), BuildingBlock: EZIPEK_clean_linker_0, # of connection points: 2
#     Edge 79, Type (0, 0), BuildingBlock: EZIPEK_clean_linker_0, # of connection points: 2
#     Edge 80, Type (0, 0), BuildingBlock: EZIPEK_clean_linker_0, # of connection points: 2
#     Edge 81, Type (0, 0), BuildingBlock: EZIPEK_clean_linker_0, # of connection points: 2
#     Edge 82, Type (0, 0), BuildingBlock: EZIPEK_clean_linker_0, # of connection points: 2
#     Edge 83, Type (0, 0), BuildingBlock: EZIPEK_clean_linker_0, # of connection points: 2
#     Edge 84, Type (0, 0), BuildingBlock: EZIPEK_clean_linker_0, # of connection points: 2
#     Edge 85, Type (0, 0), BuildingBlock: EZIPEK_clean_linker_0, # of connection points: 2
#     Edge 86, Type (0, 0), BuildingBlock: EZIPEK_clean_linker_0, # of connection points: 2
#     Edge 87, Type (0, 0), BuildingBlock: EZIPEK_clean_linker_0, # of connection points: 2
#     Edge 88, Type (0, 0), BuildingBlock: EZIPEK_clean_linker_0, # of connection points: 2
#     Edge 89, Type (0, 0), BuildingBlock: EZIPEK_clean_linker_0, # of connection points: 2
#     Edge 90, Type (0, 0), BuildingBlock: EZIPEK_clean_linker_0, # of connection points: 2
#     Edge 91, Type (0, 0), BuildingBlock: EZIPEK_clean_linker_0, # of connection points: 2
#     Edge 92, Type (0, 0), BuildingBlock: EZIPEK_clean_linker_0, # of connection points: 2
#     Edge 93, Type (0, 0), BuildingBlock: EZIPEK_clean_linker_0, # of connection points: 2
#     Edge 94, Type (0, 0), BuildingBlock: EZIPEK_clean_linker_0, # of connection points: 2
#     Edge 95, Type (0, 0), BuildingBlock: EZIPEK_clean_linker_0, # of connection points: 2
#     Edge 96, Type (0, 0), BuildingBlock: EZIPEK_clean_linker_0, # of connection points: 2
#     Edge 97, Type (0, 0), BuildingBlock: EZIPEK_clean_linker_0, # of connection points: 2
#     Edge 98, Type (0, 0), BuildingBlock: EZIPEK_clean_linker_0, # of connection points: 2
#     Edge 99, Type (0, 0), BuildingBlock: EZIPEK_clean_linker_0, # of connection points: 2
#     Edge 100, Type (0, 0), BuildingBlock: EZIPEK_clean_linker_0, # of connection points: 2
#     Edge 101, Type (0, 0), BuildingBlock: EZIPEK_clean_linker_0, # of connection points: 2
#     Edge 102, Type (0, 0), BuildingBlock: EZIPEK_clean_linker_0, # of connection points: 2
#     Edge 103, Type (0, 0), BuildingBlock: EZIPEK_clean_linker_0, # of connection points: 2
#     Edge 104, Type (0, 0), BuildingBlock: EZIPEK_clean_linker_0, # of connection points: 2
#     Edge 105, Type (0, 0), BuildingBlock: EZIPEK_clean_linker_0, # of connection points: 2
#     Edge 106, Type (0, 0), BuildingBlock: EZIPEK_clean_linker_0, # of connection points: 2
#     Edge 107, Type (0, 0), BuildingBlock: EZIPEK_clean_linker_0, # of connection points: 2
#     Edge 108, Type (0, 0), BuildingBlock: EZIPEK_clean_linker_0, # of connection points: 2
#     Edge 109, Type (0, 0), BuildingBlock: EZIPEK_clean_linker_0, # of connection points: 2
#     Edge 110, Type (0, 0), BuildingBlock: EZIPEK_clean_linker_0, # of connection points: 2
#     Edge 111, Type (0, 0), BuildingBlock: EZIPEK_clean_linker_0, # of connection points: 2
#     Edge 112, Type (0, 0), BuildingBlock: EZIPEK_clean_linker_0, # of connection points: 2
#     Edge 113, Type (0, 0), BuildingBlock: EZIPEK_clean_linker_0, # of connection points: 2
#     Edge 114, Type (0, 0), BuildingBlock: EZIPEK_clean_linker_0, # of connection points: 2
#     Edge 115, Type (0, 0), BuildingBlock: EZIPEK_clean_linker_0, # of connection points: 2
#     Edge 116, Type (0, 0), BuildingBlock: EZIPEK_clean_linker_0, # of connection points: 2
#     Edge 117, Type (0, 0), BuildingBlock: EZIPEK_clean_linker_0, # of connection points: 2
#     Edge 118, Type (0, 0), BuildingBlock: EZIPEK_clean_linker_0, # of connection points: 2
#     Edge 119, Type (0, 0), BuildingBlock: EZIPEK_clean_linker_0, # of connection points: 2
#     Edge 120, Type (0, 0), BuildingBlock: EZIPEK_clean_linker_0, # of connection points: 2
#     Edge 121, Type (0, 0), BuildingBlock: EZIPEK_clean_linker_0, # of connection points: 2
#     Edge 122, Type (0, 0), BuildingBlock: EZIPEK_clean_linker_0, # of connection points: 2
#     Edge 123, Type (0, 0), BuildingBlock: EZIPEK_clean_linker_0, # of connection points: 2
#     Edge 124, Type (0, 0), BuildingBlock: EZIPEK_clean_linker_0, # of connection points: 2
#     Edge 125, Type (0, 0), BuildingBlock: EZIPEK_clean_linker_0, # of connection points: 2
#     Edge 126, Type (0, 0), BuildingBlock: EZIPEK_clean_linker_0, # of connection points: 2
#     Edge 127, Type (0, 0), BuildingBlock: EZIPEK_clean_linker_0, # of connection points: 2
#     Edge 128, Type (0, 0), BuildingBlock: EZIPEK_clean_linker_0, # of connection points: 2
#     Edge 129, Type (0, 0), BuildingBlock: EZIPEK_clean_linker_0, # of connection points: 2
#     Edge 130, Type (0, 0), BuildingBlock: EZIPEK_clean_linker_0, # of connection points: 2
#     Edge 131, Type (0, 0), BuildingBlock: EZIPEK_clean_linker_0, # of connection points: 2
#     Edge 132, Type (0, 0), BuildingBlock: EZIPEK_clean_linker_0, # of connection points: 2
#     Edge 133, Type (0, 0), BuildingBlock: EZIPEK_clean_linker_0, # of connection points: 2
#     Edge 134, Type (0, 0), BuildingBlock: EZIPEK_clean_linker_0, # of connection points: 2
#     Edge 135, Type (0, 0), BuildingBlock: EZIPEK_clean_linker_0, # of connection points: 2
#     Edge 136, Type (0, 0), BuildingBlock: EZIPEK_clean_linker_0, # of connection points: 2
#     Edge 137, Type (0, 0), BuildingBlock: EZIPEK_clean_linker_0, # of connection points: 2
#     Edge 138, Type (0, 0), BuildingBlock: EZIPEK_clean_linker_0, # of connection points: 2
#     Edge 139, Type (0, 0), BuildingBlock: EZIPEK_clean_linker_0, # of connection points: 2
#     Edge 140, Type (0, 0), BuildingBlock: EZIPEK_clean_linker_0, # of connection points: 2
#     Edge 141, Type (0, 0), BuildingBlock: EZIPEK_clean_linker_0, # of connection points: 2
#     Edge 142, Type (0, 0), BuildingBlock: EZIPEK_clean_linker_0, # of connection points: 2
#     Edge 143, Type (0, 0), BuildingBlock: EZIPEK_clean_linker_0, # of connection points: 2
#     Edge 144, Type (0, 0), BuildingBlock: EZIPEK_clean_linker_0, # of connection points: 2
#     Edge 145, Type (0, 0), BuildingBlock: EZIPEK_clean_linker_0, # of connection points: 2
#     Edge 146, Type (0, 0), BuildingBlock: EZIPEK_clean_linker_0, # of connection points: 2
#     Edge 147, Type (0, 0), BuildingBlock: EZIPEK_clean_linker_0, # of connection points: 2
#     Edge 148, Type (0, 0), BuildingBlock: EZIPEK_clean_linker_0, # of connection points: 2
#     Edge 149, Type (0, 0), BuildingBlock: EZIPEK_clean_linker_0, # of connection points: 2
#     Edge 150, Type (0, 0), BuildingBlock: EZIPEK_clean_linker_0, # of connection points: 2
#     Edge 151, Type (0, 0), BuildingBlock: EZIPEK_clean_linker_0, # of connection points: 2
#     Edge 152, Type (0, 0), BuildingBlock: EZIPEK_clean_linker_0, # of connection points: 2
#     Edge 153, Type (0, 0), BuildingBlock: EZIPEK_clean_linker_0, # of connection points: 2
#     Edge 154, Type (0, 0), BuildingBlock: EZIPEK_clean_linker_0, # of connection points: 2
#     Edge 155, Type (0, 0), BuildingBlock: EZIPEK_clean_linker_0, # of connection points: 2
#     Edge 156, Type (0, 0), BuildingBlock: EZIPEK_clean_linker_0, # of connection points: 2
#     Edge 157, Type (0, 0), BuildingBlock: EZIPEK_clean_linker_0, # of connection points: 2
#     Edge 158, Type (0, 0), BuildingBlock: EZIPEK_clean_linker_0, # of connection points: 2
#     Edge 159, Type (0, 0), BuildingBlock: EZIPEK_clean_linker_0, # of connection points: 2
#     Edge 160, Type (0, 0), BuildingBlock: EZIPEK_clean_linker_0, # of connection points: 2
#     Edge 161, Type (0, 0), BuildingBlock: EZIPEK_clean_linker_0, # of connection points: 2
#     Edge 162, Type (0, 0), BuildingBlock: EZIPEK_clean_linker_0, # of connection points: 2
#     Edge 163, Type (0, 0), BuildingBlock: EZIPEK_clean_linker_0, # of connection points: 2
#     Edge 164, Type (0, 0), BuildingBlock: EZIPEK_clean_linker_0, # of connection points: 2
#     Edge 165, Type (0, 0), BuildingBlock: EZIPEK_clean_linker_0, # of connection points: 2
#     Edge 166, Type (0, 0), BuildingBlock: EZIPEK_clean_linker_0, # of connection points: 2
#     Edge 167, Type (0, 0), BuildingBlock: EZIPEK_clean_linker_0, # of connection points: 2
# Relax obj value: 0.360
# Max RMSD: 0.279
# Mean RMSD: 0.279
data_MOF--net-fcm--node1-XOMCOT_clean_sbu_1--edge1-EZIPEK_clean_linker_0
_symmetry_space_group_name_H-M    P1
_symmetry_Int_Tables_number       1
_symmetry_cell_setting            triclinic
loop_
_symmetry_equiv_pos_as_xyz
'x, y, z'
_cell_length_a     53.110081
_cell_length_b     53.115626
_cell_length_c     53.16332
_cell_angle_alpha  90.068479
_cell_angle_beta   90.026545
_cell_angle_gamma 90.026693
loop_
_atom_site_label
_atom_site_type_symbol
_atom_site_fract_x
_atom_site_fract_y
_atom_site_fract_z
_atom_type_partial_charge
C0 C 0.98924 0.02007 0.33573 0.0
C1 C 0.98019 0.00994 0.31373 0.0
N2 N 0.99967 0.00777 0.29781 0.0
N3 N 0.0142 0.02419 0.33339 0.0
C4 C 0.02011 0.01624 0.31011 0.0
H5 H 0.9783 0.02457 0.35227 0.0
Co6 Co 0.03346 0.03748 0.35875 0.0
C7 C 0.07932 0.05813 0.3359 0.0
O8 O 0.07296 0.07914 0.34731 0.0
N9 N 0.05304 0.05014 0.38593 0.0
C10 C 0.06653 0.0686 0.42116 0.0
C11 C 0.0516 0.07131 0.40005 0.0
C12 C 0.06986 0.0356 0.39834 0.0
N13 N 0.07751 0.04579 0.42014 0.0
O14 O 0.03978 0.00356 0.3694 0.0
H15 H 0.03928 0.08705 0.39645 0.0
H16 H 0.07514 0.01679 0.39267 0.0
O17 O 0.06471 0.03882 0.3375 0.0
C18 C 0.023 0.99939 0.38608 0.0
O19 O 0.00889 0.01823 0.39367 0.0
N20 N 0.02238 0.06954 0.34872 0.0
C21 C 0.98421 0.09885 0.32804 0.0
C22 C 0.00539 0.0926 0.31376 0.0
C23 C 0.02414 0.07756 0.32431 0.0
C24 C 0.00275 0.07732 0.36338 0.0
C25 C 0.98346 0.09214 0.35343 0.0
H26 H 0.03797 0.06971 0.31173 0.0
H27 H 0.00026 0.06928 0.38189 0.0
H28 H 0.03875 0.01699 0.30208 0.0
H29 H 0.9608 0.0054 0.30936 0.0
H30 H 0.06717 0.08119 0.43718 0.0
H31 H 0.00618 0.09713 0.29391 0.0
H32 H 0.96703 0.0963 0.36477 0.0
C33 C 0.21609 0.74679 0.587 0.0
C34 C 0.21855 0.74115 0.56192 0.0
N35 N 0.21428 0.76241 0.54901 0.0
N36 N 0.21056 0.77144 0.58958 0.0
C37 C 0.20964 0.78054 0.56604 0.0
H38 H 0.21892 0.73395 0.60248 0.0
Co39 Co 0.20597 0.78671 0.62018 0.0
C40 C 0.17911 0.83398 0.61064 0.0
O41 O 0.16262 0.82443 0.62635 0.0
N42 N 0.20248 0.80201 0.65237 0.0
C43 C 0.19746 0.80895 0.69348 0.0
C44 C 0.1885 0.796 0.67279 0.0
C45 C 0.21902 0.81939 0.66111 0.0
N46 N 0.21683 0.82337 0.68598 0.0
O47 O 0.24105 0.79441 0.62026 0.0
H48 H 0.17365 0.78216 0.67328 0.0
H49 H 0.23353 0.82805 0.64981 0.0
O50 O 0.1977 0.8199 0.60453 0.0
C51 C 0.25066 0.77557 0.63149 0.0
O52 O 0.23559 0.75881 0.64166 0.0
N53 N 0.17255 0.77457 0.61936 0.0
C54 C 0.14574 0.73399 0.59957 0.0
C55 C 0.14488 0.75755 0.58783 0.0
C56 C 0.15811 0.77781 0.59823 0.0
C57 C 0.17101 0.7525 0.63248 0.0
C58 C 0.15714 0.7321 0.6232 0.0
H59 H 0.16017 0.7944 0.58673 0.0
H60 H 0.18381 0.74903 0.64789 0.0
H61 H 0.20626 0.80005 0.56134 0.0
H62 H 0.22391 0.72324 0.5538 0.0
H63 H 0.19129 0.80676 0.71276 0.0
H64 H 0.13598 0.75967 0.56961 0.0
H65 H 0.15797 0.71415 0.63281 0.0
C66 C 0.51956 0.97188 0.84446 0.0
C67 C 0.52609 0.98214 0.82171 0.0
N68 N 0.50491 0.98461 0.80817 0.0
N69 N 0.49446 0.96794 0.84494 0.0
C70 C 0.48596 0.97607 0.82255 0.0
H71 H 0.53236 0.96697 0.85949 0.0
Co72 Co 0.47779 0.95463 0.87198 0.0
C73 C 0.42822 0.93651 0.8534 0.0
O74 O 0.43365 0.91538 0.86497 0.0
N75 N 0.46109 0.94195 0.90067 0.0
C76 C 0.44892 0.92273 0.93598 0.0
C77 C 0.46255 0.92025 0.91394 0.0
C78 C 0.44591 0.95674 0.91469 0.0
N79 N 0.43919 0.9461 0.93649 0.0
O80 O 0.47387 0.98848 0.88415 0.0
H81 H 0.47356 0.90399 0.9087 0.0
H82 H 0.44064 0.97577 0.90984 0.0
O83 O 0.44417 0.95483 0.85386 0.0
C84 C 0.49312 0.99266 0.89799 0.0
O85 O 0.50869 0.97399 0.90253 0.0
N86 N 0.48643 0.9225 0.86017 0.0
C87 C 0.51985 0.8919 0.83398 0.0
C88 C 0.49732 0.89951 0.82285 0.0
C89 C 0.48112 0.91525 0.8361 0.0
C90 C 0.50734 0.91336 0.872 0.0
C91 C 0.52439 0.8979 0.8592 0.0
H92 H 0.46676 0.92456 0.82557 0.0
H93 H 0.51255 0.92067 0.89027 0.0
H94 H 0.46654 0.97503 0.81649 0.0
H95 H 0.54489 0.98649 0.81516 0.0
H96 H 0.44774 0.90919 0.95114 0.0
H97 H 0.49365 0.89562 0.80317 0.0
H98 H 0.54193 0.8926 0.86814 0.0
C99 C 0.26455 0.256 0.08167 0.0
C100 C 0.25487 0.26464 0.05944 0.0
N101 N 0.25692 0.24608 0.04238 0.0
N102 N 0.27253 0.23212 0.07854 0.0
C103 C 0.26771 0.22649 0.05427 0.0
H104 H 0.26571 0.26643 0.09911 0.0
Co105 Co 0.28541 0.21394 0.10485 0.0
C106 C 0.31346 0.17108 0.08358 0.0
O107 O 0.33224 0.17866 0.09775 0.0
N108 N 0.29762 0.19532 0.13284 0.0
C109 C 0.3156 0.18241 0.16851 0.0
C110 C 0.31797 0.19808 0.14795 0.0
C111 C 0.28391 0.17712 0.14421 0.0
N112 N 0.29378 0.16973 0.16622 0.0
O113 O 0.25148 0.20322 0.11178 0.0
H114 H 0.33301 0.21145 0.14519 0.0
H115 H 0.26591 0.17038 0.13757 0.0
O116 O 0.29286 0.1839 0.08315 0.0
C117 C 0.24332 0.21917 0.12786 0.0
O118 O 0.25938 0.23516 0.13782 0.0
N119 N 0.31664 0.2291 0.09846 0.0
C120 C 0.34242 0.27132 0.08124 0.0
C121 C 0.33947 0.25026 0.06574 0.0
C122 C 0.32629 0.22939 0.07462 0.0
C123 C 0.32104 0.24886 0.11434 0.0
C124 C 0.33415 0.27017 0.10616 0.0
H125 H 0.32033 0.21566 0.061 0.0
H126 H 0.31157 0.24959 0.13233 0.0
H127 H 0.27181 0.20855 0.04554 0.0
H128 H 0.24707 0.28314 0.0559 0.0
H129 H 0.32765 0.18213 0.18493 0.0
H130 H 0.34506 0.25095 0.04616 0.0
H131 H 0.33572 0.28642 0.11838 0.0
C132 C 0.9837 0.96985 0.15736 0.0
C133 C 0.97529 0.97782 0.18045 0.0
N134 N 0.99563 0.9824 0.19471 0.0
N135 N 0.00911 0.96933 0.15739 0.0
C136 C 0.01586 0.97753 0.18035 0.0
H137 H 0.97204 0.9645 0.14157 0.0
Co138 Co 0.02796 0.95974 0.12997 0.0
C139 C 0.07769 0.94291 0.14775 0.0
O140 O 0.07265 0.9235 0.13322 0.0
N141 N 0.04666 0.95188 0.10094 0.0
C142 C 0.05661 0.94786 0.06043 0.0
C143 C 0.04058 0.9399 0.07934 0.0
C144 C 0.06645 0.9667 0.09463 0.0
N145 N 0.07252 0.96504 0.07018 0.0
O146 O 0.02869 0.99431 0.11971 0.0
H147 H 0.02424 0.92813 0.07665 0.0
H148 H 0.07478 0.98042 0.10721 0.0
O149 O 0.06123 0.96083 0.14948 0.0
C150 C 0.00915 0.99587 0.1056 0.0
O151 O 0.99665 0.97516 0.10035 0.0
N152 N 0.02218 0.92584 0.13962 0.0
C153 C 0.98839 0.89512 0.16544 0.0
C154 C 0.01044 0.90335 0.17706 0.0
C155 C 0.02709 0.91867 0.16392 0.0
C156 C 0.00239 0.91518 0.12707 0.0
C157 C 0.98534 0.89938 0.13961 0.0
H158 H 0.04124 0.9279 0.17501 0.0
H159 H 0.99727 0.92198 0.10867 0.0
H160 H 0.03502 0.98007 0.1865 0.0
H161 H 0.95593 0.97955 0.18656 0.0
H162 H 0.05564 0.94269 0.04076 0.0
H163 H 0.01347 0.90014 0.19697 0.0
H164 H 0.96846 0.89308 0.13004 0.0
C165 C 0.23369 0.81021 0.41468 0.0
C166 C 0.22034 0.80689 0.43649 0.0
N167 N 0.227 0.78453 0.44617 0.0
N168 N 0.24899 0.79029 0.41099 0.0
C169 C 0.24385 0.77453 0.43019 0.0
H170 H 0.2333 0.82671 0.40278 0.0
Co171 Co 0.26985 0.79096 0.38338 0.0
C172 C 0.3121 0.82335 0.40206 0.0
O173 O 0.32809 0.80509 0.39739 0.0
N174 N 0.28766 0.79423 0.35432 0.0
C175 C 0.30851 0.80194 0.31886 0.0
C176 C 0.31024 0.79176 0.34286 0.0
C177 C 0.27294 0.80581 0.33741 0.0
N178 N 0.28491 0.81076 0.31591 0.0
O179 O 0.25013 0.76375 0.3678 0.0
H180 H 0.3269 0.78377 0.3514 0.0
H181 H 0.25354 0.81092 0.3411 0.0
O182 O 0.28861 0.81985 0.39774 0.0
C183 C 0.24454 0.74101 0.37341 0.0
O184 O 0.25259 0.73103 0.3945 0.0
N185 N 0.29314 0.76711 0.39799 0.0
C186 C 0.32094 0.72916 0.42169 0.0
C187 C 0.31341 0.75056 0.43502 0.0
C188 C 0.29968 0.76931 0.42284 0.0
C189 C 0.30221 0.74723 0.38433 0.0
C190 C 0.31567 0.72777 0.39592 0.0
H191 H 0.29365 0.78542 0.43368 0.0
H192 H 0.29787 0.74551 0.36462 0.0
H193 H 0.25349 0.75699 0.43375 0.0
H194 H 0.20834 0.8206 0.44563 0.0
H195 H 0.32331 0.80307 0.30493 0.0
H196 H 0.31761 0.75247 0.45488 0.0
H197 H 0.32157 0.71161 0.38497 0.0
C198 C 0.51344 0.01796 0.66667 0.0
C199 C 0.52149 0.00992 0.68986 0.0
N200 N 0.50147 0.01003 0.70525 0.0
N201 N 0.48854 0.02285 0.66774 0.0
C202 C 0.4817 0.01774 0.69155 0.0
H203 H 0.52497 0.02019 0.65006 0.0
Co204 Co 0.47016 0.03352 0.64073 0.0
C205 C 0.42067 0.05017 0.65981 0.0
O206 O 0.42345 0.07019 0.64564 0.0
N207 N 0.45186 0.04382 0.61217 0.0
C208 C 0.43919 0.06088 0.57601 0.0
C209 C 0.45325 0.06462 0.59753 0.0
C210 C 0.43623 0.02829 0.59952 0.0
N211 N 0.42904 0.03773 0.5773 0.0
O212 O 0.46591 0.99874 0.63171 0.0
H213 H 0.46479 0.08093 0.60127 0.0
H214 H 0.43137 0.00947 0.6055 0.0
O215 O 0.43813 0.03347 0.66058 0.0
C216 C 0.48326 0.99308 0.61612 0.0
O217 O 0.49756 0.01119 0.60722 0.0
N218 N 0.47861 0.06662 0.64953 0.0
C219 C 0.5133 0.0983 0.67248 0.0
C220 C 0.49058 0.09268 0.6844 0.0
C221 C 0.47346 0.07666 0.67263 0.0
C222 C 0.49964 0.07399 0.63672 0.0
C223 C 0.51725 0.09009 0.64781 0.0
H224 H 0.45823 0.06973 0.68377 0.0
H225 H 0.50447 0.06474 0.61924 0.0
H226 H 0.4628 0.01968 0.69884 0.0
H227 H 0.54047 0.00473 0.69517 0.0
H228 H 0.43844 0.07311 0.55975 0.0
H229 H 0.48725 0.09857 0.70364 0.0
H230 H 0.53486 0.09393 0.63829 0.0
C231 C 0.228 0.26365 0.90001 0.0
C232 C 0.23705 0.27166 0.92271 0.0
N233 N 0.22699 0.25729 0.94114 0.0
N234 N 0.21329 0.24341 0.90346 0.0
C235 C 0.21389 0.23935 0.92847 0.0
H236 H 0.23256 0.27173 0.88211 0.0
Co237 Co 0.19731 0.22574 0.87794 0.0
C238 C 0.18281 0.1764 0.90058 0.0
O239 O 0.16078 0.1791 0.88972 0.0
N240 N 0.18172 0.2076 0.85152 0.0
C241 C 0.16045 0.19777 0.81668 0.0
C242 C 0.16018 0.2118 0.83861 0.0
C243 C 0.19413 0.1903 0.83759 0.0
N244 N 0.18226 0.18492 0.81592 0.0
O245 O 0.22997 0.22122 0.86292 0.0
H246 H 0.14609 0.22559 0.84356 0.0
H247 H 0.21292 0.18371 0.84182 0.0
O248 O 0.19962 0.19365 0.89799 0.0
C249 C 0.2331 0.23429 0.84287 0.0
O250 O 0.21344 0.23978 0.82895 0.0
N251 N 0.16631 0.23586 0.89136 0.0
C252 C 0.14251 0.27391 0.91829 0.0
C253 C 0.14452 0.24965 0.9284 0.0
C254 C 0.15674 0.23078 0.91463 0.0
C255 C 0.16146 0.25845 0.88014 0.0
C256 C 0.14965 0.27786 0.89333 0.0
H257 H 0.16119 0.21362 0.92413 0.0
H258 H 0.17012 0.26271 0.86223 0.0
H259 H 0.2053 0.2231 0.93709 0.0
H260 H 0.25088 0.28636 0.92458 0.0
H261 H 0.14688 0.19872 0.80151 0.0
H262 H 0.13907 0.24606 0.9477 0.0
H263 H 0.14849 0.29644 0.88503 0.0
C264 C 0.34403 0.98456 0.02313 0.0
C265 C 0.32206 0.97946 0.01035 0.0
N266 N 0.30893 0.00101 0.0088 0.0
N267 N 0.34454 0.0092 0.02935 0.0
C268 C 0.32301 0.01881 0.01996 0.0
H269 H 0.35852 0.97111 0.02788 0.0
Co270 Co 0.37059 0.02531 0.04592 0.0
C271 C 0.34916 0.0748 0.06053 0.0
O272 O 0.3581 0.07088 0.08321 0.0
N273 N 0.39802 0.04191 0.06198 0.0
C274 C 0.42991 0.05406 0.08664 0.0
C275 C 0.40791 0.04021 0.08541 0.0
C276 C 0.41413 0.05734 0.04966 0.0
N277 N 0.43373 0.06451 0.06396 0.0
O278 O 0.38657 0.02893 0.01399 0.0
H279 H 0.40016 0.02927 0.10066 0.0
H280 H 0.4121 0.06283 0.03019 0.0
O281 O 0.35279 0.05836 0.04322 0.0
C282 C 0.39985 0.00886 0.01334 0.0
O283 O 0.40215 0.99559 0.03404 0.0
N284 N 0.35549 0.01635 0.07657 0.0
C285 C 0.3273 0.97929 0.10053 0.0
C286 C 0.31647 0.00263 0.09484 0.0
C287 C 0.33086 0.02087 0.08247 0.0
C288 C 0.3669 0.9949 0.08491 0.0
C289 C 0.35312 0.97602 0.09681 0.0
H290 H 0.32117 0.0367 0.07472 0.0
H291 H 0.38598 0.99075 0.07924 0.0
H292 H 0.31726 0.03824 0.0217 0.0
H293 H 0.31578 0.96131 0.00353 0.0
H294 H 0.44245 0.05575 0.1026 0.0
H295 H 0.29645 0.00562 0.09737 0.0
H296 H 0.36205 0.95815 0.10088 0.0
C297 C 0.26597 0.07183 0.28634 0.0
C298 C 0.27434 0.04922 0.27714 0.0
N299 N 0.25565 0.03929 0.26335 0.0
N300 N 0.24196 0.07572 0.27895 0.0
C301 C 0.23657 0.05594 0.26402 0.0
H302 H 0.27673 0.08488 0.29745 0.0
Co303 Co 0.2236 0.10474 0.2864 0.0
C304 C 0.17909 0.0659 0.29091 0.0
O305 O 0.19164 0.04465 0.2899 0.0
N306 N 0.2048 0.13453 0.29313 0.0
C307 C 0.18204 0.16505 0.31028 0.0
C308 C 0.19707 0.14458 0.31504 0.0
C309 C 0.19321 0.14894 0.27557 0.0
N310 N 0.18074 0.16907 0.28515 0.0
O311 O 0.2217 0.11139 0.25114 0.0
H312 H 0.20074 0.13685 0.33347 0.0
H313 H 0.19215 0.14342 0.25616 0.0
O314 O 0.1906 0.08703 0.28868 0.0
C315 C 0.24299 0.12231 0.24776 0.0
O316 O 0.25848 0.12427 0.26695 0.0
N317 N 0.23047 0.09962 0.32073 0.0
C318 C 0.2664 0.0842 0.35526 0.0
C319 C 0.24632 0.06835 0.34896 0.0
C320 C 0.22827 0.07653 0.33181 0.0
C321 C 0.24795 0.11644 0.32936 0.0
C322 C 0.2659 0.10924 0.34719 0.0
H323 H 0.21508 0.06289 0.32493 0.0
H324 H 0.2502 0.13436 0.31999 0.0
H325 H 0.2192 0.05382 0.2536 0.0
H326 H 0.29251 0.0406 0.28043 0.0
H327 H 0.17156 0.17479 0.32469 0.0
H328 H 0.24591 0.049 0.35539 0.0
H329 H 0.28087 0.12213 0.35228 0.0
C330 C 0.16904 0.01741 0.5317 0.0
C331 C 0.19295 0.0213 0.52267 0.0
N332 N 0.20342 0.99862 0.51883 0.0
N333 N 0.16484 0.99246 0.53382 0.0
C334 C 0.18604 0.98143 0.52536 0.0
H335 H 0.15547 0.03184 0.53636 0.0
Co336 Co 0.13483 0.9784 0.54429 0.0
C337 C 0.14713 0.93185 0.57101 0.0
O338 O 0.13376 0.94259 0.58885 0.0
N339 N 0.10352 0.96355 0.55301 0.0
C340 C 0.06203 0.95727 0.55484 0.0
C341 C 0.08164 0.97281 0.56215 0.0
C342 C 0.0966 0.94207 0.54097 0.0
N343 N 0.07158 0.93831 0.54102 0.0
O344 O 0.12657 0.97242 0.50983 0.0
H345 H 0.0793 0.9909 0.57104 0.0
H346 H 0.10937 0.93085 0.52973 0.0
O347 O 0.15087 0.94417 0.55042 0.0
C348 C 0.11546 0.99333 0.50503 0.0
O349 O 0.11283 0.00984 0.52326 0.0
N350 N 0.14242 0.98995 0.57716 0.0
C351 C 0.16416 0.02686 0.60769 0.0
C352 C 0.17693 0.00436 0.6028 0.0
C353 C 0.16579 0.98611 0.58741 0.0
C354 C 0.12914 0.01109 0.58336 0.0
C355 C 0.13956 0.02969 0.59883 0.0
H356 H 0.17746 0.97072 0.58108 0.0
H357 H 0.11208 0.01561 0.57342 0.0
H358 H 0.18866 0.96134 0.52366 0.0
H359 H 0.20198 0.03923 0.51918 0.0
H360 H 0.04215 0.9607 0.55773 0.0
H361 H 0.19619 0.00185 0.60904 0.0
H362 H 0.12945 0.04714 0.60184 0.0
C363 C 0.24399 0.9125 0.79438 0.0
C364 C 0.24027 0.93703 0.7872 0.0
N365 N 0.26278 0.94849 0.78771 0.0
N366 N 0.26862 0.90897 0.79946 0.0
C367 C 0.27963 0.93132 0.79506 0.0
H368 H 0.22987 0.89795 0.79511 0.0
Co369 Co 0.28335 0.87939 0.80958 0.0
C370 C 0.33004 0.90377 0.83429 0.0
O371 O 0.32254 0.89818 0.85712 0.0
N372 N 0.29851 0.84849 0.81904 0.0
C373 C 0.32737 0.82033 0.83102 0.0
C374 C 0.31525 0.8425 0.83728 0.0
C375 C 0.29958 0.82865 0.80319 0.0
N376 N 0.31773 0.81217 0.8091 0.0
O377 O 0.29117 0.87296 0.77426 0.0
H378 H 0.31976 0.85396 0.85332 0.0
H379 H 0.2883 0.82665 0.78662 0.0
O380 O 0.31654 0.89734 0.81517 0.0
C381 C 0.27066 0.86455 0.76461 0.0
O382 O 0.25187 0.85924 0.77977 0.0
N383 N 0.27104 0.88553 0.8424 0.0
C384 C 0.2284 0.90399 0.86688 0.0
C385 C 0.2498 0.91902 0.86422 0.0
C386 C 0.27092 0.9095 0.85191 0.0
C387 C 0.25161 0.86959 0.84795 0.0
C388 C 0.22989 0.87852 0.86013 0.0
H389 H 0.28481 0.92296 0.84607 0.0
H390 H 0.25111 0.85106 0.83951 0.0
H391 H 0.29953 0.93516 0.79688 0.0
H392 H 0.22268 0.94569 0.78166 0.0
H393 H 0.34326 0.81201 0.84067 0.0
H394 H 0.24919 0.93883 0.86911 0.0
H395 H 0.21358 0.8664 0.8619 0.0
C396 C 0.34017 0.00737 0.47371 0.0
C397 C 0.31725 0.01309 0.48417 0.0
N398 N 0.30409 0.9916 0.48604 0.0
N399 N 0.34123 0.98245 0.46892 0.0
C400 C 0.31901 0.97323 0.47701 0.0
H401 H 0.35508 0.0206 0.46959 0.0
Co402 Co 0.36977 0.9669 0.45649 0.0
C403 C 0.35348 0.91969 0.43306 0.0
O404 O 0.36479 0.92857 0.41301 0.0
N405 N 0.40008 0.95085 0.44516 0.0
C406 C 0.43357 0.93477 0.42544 0.0
C407 C 0.41235 0.94966 0.42289 0.0
C408 C 0.41453 0.93665 0.46069 0.0
N409 N 0.4352 0.92719 0.44958 0.0
O410 O 0.37963 0.96191 0.49052 0.0
H411 H 0.40627 0.95867 0.40572 0.0
H412 H 0.41044 0.93325 0.48025 0.0
O413 O 0.35261 0.93318 0.45324 0.0
C414 C 0.39292 0.98166 0.49429 0.0
O415 O 0.39818 0.99632 0.4751 0.0
N416 N 0.35999 0.97722 0.42411 0.0
C417 C 0.33663 0.01425 0.39546 0.0
C418 C 0.32386 0.992 0.40132 0.0
C419 C 0.33578 0.97376 0.41591 0.0
C420 C 0.37343 0.99769 0.41635 0.0
C421 C 0.36206 0.01655 0.40197 0.0
H422 H 0.32426 0.95885 0.42344 0.0
H423 H 0.39194 0.00113 0.4241 0.0
H424 H 0.31391 0.9536 0.47674 0.0
H425 H 0.31047 0.03158 0.48941 0.0
H426 H 0.44715 0.93052 0.41087 0.0
H427 H 0.30406 0.98992 0.39687 0.0
H428 H 0.37228 0.03373 0.39798 0.0
C429 C 0.24666 0.07552 0.73197 0.0
C430 C 0.24355 0.05325 0.74431 0.0
N431 N 0.26551 0.04761 0.75534 0.0
N432 N 0.27067 0.08359 0.735 0.0
C433 C 0.28157 0.06634 0.74988 0.0
H434 H 0.23269 0.08405 0.72011 0.0
Co435 Co 0.28684 0.11134 0.72191 0.0
C436 C 0.32679 0.08422 0.68981 0.0
O437 O 0.3177 0.09218 0.66829 0.0
N438 N 0.3037 0.13975 0.71092 0.0
C439 C 0.33309 0.16412 0.69418 0.0
C440 C 0.31597 0.1453 0.68945 0.0
C441 C 0.31248 0.1565 0.72789 0.0
N442 N 0.3307 0.17144 0.71837 0.0
O443 O 0.25995 0.13253 0.73655 0.0
H444 H 0.31339 0.136 0.67165 0.0
H445 H 0.30655 0.15672 0.74736 0.0
O446 O 0.31575 0.08988 0.71056 0.0
C447 C 0.2363 0.13709 0.73542 0.0
O448 O 0.22221 0.1273 0.71773 0.0
N449 N 0.26962 0.10651 0.69043 0.0
C450 C 0.23366 0.09293 0.65487 0.0
C451 C 0.25039 0.0751 0.66416 0.0
C452 C 0.26819 0.08222 0.6818 0.0
C453 C 0.2561 0.12491 0.67855 0.0
C454 C 0.23735 0.1184 0.66095 0.0
H455 H 0.27896 0.06741 0.69057 0.0
H456 H 0.25779 0.14428 0.68463 0.0
H457 H 0.30123 0.06664 0.75525 0.0
H458 H 0.22701 0.04132 0.74403 0.0
H459 H 0.34651 0.17169 0.68084 0.0
H460 H 0.24834 0.05534 0.65943 0.0
H461 H 0.22489 0.13273 0.65358 0.0
C462 C 0.17296 0.98866 0.95935 0.0
C463 C 0.1971 0.9821 0.96575 0.0
N464 N 0.2095 0.00341 0.97133 0.0
N465 N 0.17045 0.01387 0.9607 0.0
C466 C 0.19307 0.02242 0.9683 0.0
H467 H 0.1578 0.97598 0.95497 0.0
Co468 Co 0.14088 0.03095 0.95416 0.0
C469 C 0.16208 0.07808 0.93009 0.0
O470 O 0.15225 0.07126 0.90853 0.0
N471 N 0.11016 0.04855 0.94841 0.0
C472 C 0.08022 0.07382 0.93328 0.0
C473 C 0.10132 0.05992 0.92744 0.0
C474 C 0.09312 0.05489 0.96632 0.0
N475 N 0.07514 0.07054 0.95784 0.0
O476 O 0.1373 0.03554 0.99005 0.0
H477 H 0.10927 0.05811 0.90888 0.0
H478 H 0.09353 0.04845 0.98546 0.0
O479 O 0.15974 0.06378 0.94954 0.0
C480 C 0.12715 0.01464 0.9967 0.0
O481 O 0.12031 0.99883 0.97893 0.0
N482 N 0.14384 0.02116 0.92006 0.0
C483 C 0.15788 0.9787 0.89274 0.0
C484 C 0.17455 0.99893 0.89548 0.0
C485 C 0.16711 0.02018 0.90903 0.0
C486 C 0.12618 0.00339 0.91412 0.0
C487 C 0.13282 0.9819 0.90027 0.0
H488 H 0.18167 0.03314 0.91468 0.0
H489 H 0.10809 0.00368 0.92343 0.0
H490 H 0.19735 0.04199 0.97203 0.0
H491 H 0.20475 0.96326 0.96707 0.0
H492 H 0.06908 0.08497 0.92037 0.0
H493 H 0.19401 0.99717 0.88962 0.0
H494 H 0.11931 0.9668 0.89795 0.0
C495 C 0.26016 0.90956 0.19536 0.0
C496 C 0.27031 0.93155 0.20432 0.0
N497 N 0.25295 0.94234 0.21913 0.0
N498 N 0.23628 0.90706 0.20367 0.0
C499 C 0.23298 0.92675 0.21931 0.0
H500 H 0.26966 0.89587 0.18394 0.0
Co501 Co 0.21607 0.87924 0.19646 0.0
C502 C 0.17347 0.92077 0.19573 0.0
O503 O 0.18754 0.94094 0.19797 0.0
N504 N 0.19582 0.85025 0.19023 0.0
C505 C 0.175 0.81695 0.17486 0.0
C506 C 0.18959 0.83769 0.1689 0.0
C507 C 0.18396 0.83709 0.2086 0.0
N508 N 0.17178 0.81673 0.19992 0.0
O509 O 0.21569 0.87199 0.23162 0.0
H510 H 0.19519 0.84299 0.15012 0.0
H511 H 0.18415 0.84189 0.22834 0.0
O512 O 0.18357 0.89876 0.19612 0.0
C513 C 0.23601 0.85913 0.23378 0.0
O514 O 0.24991 0.85546 0.21366 0.0
N515 N 0.22119 0.88513 0.16184 0.0
C516 C 0.25682 0.90333 0.12835 0.0
C517 C 0.23635 0.91828 0.13544 0.0
C518 C 0.21843 0.90868 0.15191 0.0
C519 C 0.23872 0.86909 0.15194 0.0
C520 C 0.25652 0.87773 0.13454 0.0
H521 H 0.2051 0.92175 0.15944 0.0
H522 H 0.2414 0.85071 0.16025 0.0
H523 H 0.21653 0.92951 0.23097 0.0
H524 H 0.28877 0.93916 0.20024 0.0
H525 H 0.1676 0.80303 0.16193 0.0
H526 H 0.23562 0.93804 0.1304 0.0
H527 H 0.27158 0.86537 0.12852 0.0
C528 C 0.0482 0.33365 0.99049 0.0
C529 C 0.04148 0.31063 0.98072 0.0
N530 N 0.02981 0.29781 0.99909 0.0
N531 N 0.04096 0.33493 0.01475 0.0
C532 C 0.02955 0.31282 0.01941 0.0
H533 H 0.05722 0.34884 0.98063 0.0
Co534 Co 0.04649 0.36162 0.0363 0.0
C535 C 0.05877 0.33242 0.0837 0.0
O536 O 0.08202 0.34069 0.08346 0.0
N537 N 0.05133 0.38939 0.05842 0.0
C538 C 0.064 0.41476 0.0895 0.0
C539 C 0.07035 0.39447 0.07461 0.0
C540 C 0.03436 0.40785 0.0631 0.0
N541 N 0.04129 0.42308 0.0821 0.0
O542 O 0.01067 0.36772 0.03529 0.0
H543 H 0.08801 0.38451 0.07546 0.0
H544 H 0.01697 0.41042 0.05305 0.0
O545 O 0.04327 0.33887 0.06625 0.0
C546 C 0.00755 0.38102 0.01546 0.0
O547 O 0.02779 0.38941 0.00394 0.0
N548 N 0.08148 0.35631 0.03263 0.0
C549 C 0.1155 0.34254 0.99541 0.0
C550 C 0.10735 0.32491 0.0131 0.0
C551 C 0.09041 0.33218 0.03168 0.0
C552 C 0.09255 0.37453 0.01826 0.0
C553 C 0.10991 0.36802 -0.00055 0.0
H554 H 0.08068 0.31734 0.04127 0.0
H555 H 0.08502 0.39344 0.01849 0.0
H556 H 0.02129 0.30767 0.03728 0.0
H557 H 0.04462 0.3039 0.96176 0.0
H558 H 0.07544 0.42321 0.10411 0.0
H559 H 0.11146 0.30507 0.01064 0.0
H560 H 0.11653 0.38226 0.98648 0.0
C561 C 0.52391 0.18181 0.01085 0.0
C562 C 0.51334 0.20504 0.01282 0.0
N563 N 0.50706 0.21244 0.9896 0.0
N564 N 0.52453 0.17466 0.98641 0.0
C565 C 0.51373 0.19379 0.9738 0.0
H566 H 0.53197 0.17162 0.02628 0.0
Co567 Co 0.53753 0.14476 0.97415 0.0
C568 C 0.57624 0.16326 0.9365 0.0
O569 O 0.59449 0.15483 0.95086 0.0
N570 N 0.54832 0.11448 0.96148 0.0
C571 C 0.56489 0.07894 0.94691 0.0
C572 C 0.56999 0.10139 0.95911 0.0
C573 C 0.53064 0.10004 0.95047 0.0
N574 N 0.54013 0.07842 0.94154 0.0
O575 O 0.51896 0.12647 0.00094 0.0
H576 H 0.58818 0.10751 0.96586 0.0
H577 H 0.51094 0.10517 0.94942 0.0
O578 O 0.55344 0.162 0.94447 0.0
C579 C 0.51691 0.12101 0.02434 0.0
O580 O 0.53303 0.12948 0.041 0.0
N581 N 0.56711 0.14972 0.99493 0.0
C582 C 0.59788 0.16492 0.03477 0.0
C583 C 0.59192 0.18162 0.01549 0.0
C584 C 0.57674 0.17368 0.99573 0.0
C585 C 0.57571 0.13223 0.01174 0.0
C586 C 0.59079 0.13958 0.03227 0.0
H587 H 0.57072 0.18769 0.98228 0.0
H588 H 0.56888 0.11308 0.01089 0.0
H589 H 0.5114 0.19436 0.95359 0.0
H590 H 0.51121 0.21614 0.02978 0.0
H591 H 0.57814 0.06407 0.94261 0.0
H592 H 0.59753 0.20122 0.01658 0.0
H593 H 0.59554 0.12605 0.04672 0.0
C594 C 0.07783 0.29011 0.26297 0.0
C595 C 0.05597 0.28289 0.27473 0.0
N596 N 0.04431 0.26641 0.25952 0.0
N597 N 0.0793 0.27902 0.24016 0.0
C598 C 0.05934 0.26346 0.23944 0.0
H599 H 0.09188 0.3024 0.27064 0.0
Co600 Co 0.10491 0.28234 0.21646 0.0
C601 C 0.05862 0.28304 0.17879 0.0
O602 O 0.0396 0.27726 0.19338 0.0
N603 N 0.13131 0.28469 0.19259 0.0
C604 C 0.16708 0.29357 0.17249 0.0
C605 C 0.14889 0.3027 0.18856 0.0
C606 C 0.13878 0.26533 0.17772 0.0
N607 N 0.16072 0.26998 0.16597 0.0
O608 O 0.10777 0.24623 0.21644 0.0
H609 H 0.14957 0.32086 0.1976 0.0
H610 H 0.12937 0.24735 0.17671 0.0
O611 O 0.08121 0.28402 0.18743 0.0
C612 C 0.12308 0.24345 0.23482 0.0
O613 O 0.13251 0.26381 0.24533 0.0
N614 N 0.10354 0.31761 0.22059 0.0
C615 C 0.09142 0.35727 0.25239 0.0
C616 C 0.07526 0.35051 0.2327 0.0
C617 C 0.08188 0.33083 0.21665 0.0
C618 C 0.12103 0.32638 0.23734 0.0
C619 C 0.11557 0.3468 0.25308 0.0
H620 H 0.06792 0.32432 0.20368 0.0
H621 H 0.13783 0.31549 0.241 0.0
H622 H 0.05585 0.25002 0.22456 0.0
H623 H 0.04876 0.28974 0.29251 0.0
H624 H 0.18452 0.30282 0.16744 0.0
H625 H 0.05665 0.35874 0.2312 0.0
H626 H 0.12886 0.35222 0.26757 0.0
C627 C 0.9623 0.8322 0.51467 0.0
C628 C 0.97099 0.80844 0.51977 0.0
N629 N 0.97788 0.798 0.49783 0.0
N630 N 0.9634 0.83628 0.48968 0.0
C631 C 0.97331 0.81517 0.47985 0.0
H632 H 0.95708 0.84631 0.52828 0.0
Co633 Co 0.95617 0.86663 0.47502 0.0
C634 C 0.93025 0.85567 0.42746 0.0
O635 O 0.91345 0.87078 0.43752 0.0
N636 N 0.95027 0.89819 0.45985 0.0
C637 C 0.94452 0.93866 0.45036 0.0
C638 C 0.93668 0.919 0.46548 0.0
C639 C 0.96541 0.90558 0.44081 0.0
N640 N 0.96281 0.93001 0.43514 0.0
O641 O 0.99196 0.87157 0.47057 0.0
H642 H 0.92318 0.92064 0.48052 0.0
H643 H 0.97961 0.89369 0.43234 0.0
O644 O 0.95014 0.85066 0.44054 0.0
C645 C 0.9977 0.88292 0.4911 0.0
O646 O 0.97937 0.8887 0.50668 0.0
N647 N 0.9224 0.86198 0.48503 0.0
C648 C 0.89037 0.8421 0.52128 0.0
C649 C 0.89458 0.82914 0.49878 0.0
C650 C 0.91068 0.83937 0.48081 0.0
C651 C 0.9164 0.87585 0.50584 0.0
C652 C 0.89984 0.86649 0.52399 0.0
H653 H 0.9167 0.82718 0.46571 0.0
H654 H 0.92742 0.89224 0.51064 0.0
H655 H 0.97829 0.81285 0.46028 0.0
H656 H 0.97325 0.79992 0.53812 0.0
H657 H 0.93878 0.95815 0.45185 0.0
H658 H 0.88756 0.81014 0.49626 0.0
H659 H 0.89705 0.87681 0.54136 0.0
C660 C 0.90822 0.2123 0.26425 0.0
C661 C 0.93005 0.22082 0.27503 0.0
N662 N 0.94392 0.23115 0.25672 0.0
N663 N 0.90868 0.21656 0.2392 0.0
C664 C 0.93032 0.22928 0.2354 0.0
H665 H 0.89271 0.20369 0.27411 0.0
Co666 Co 0.88158 0.20636 0.21945 0.0
C667 C 0.92255 0.2028 0.17564 0.0
O668 O 0.94346 0.20501 0.18858 0.0
N669 N 0.85295 0.19632 0.20046 0.0
C670 C 0.82237 0.17467 0.1812 0.0
C671 C 0.84445 0.17293 0.19474 0.0
C672 C 0.83582 0.21183 0.18966 0.0
N673 N 0.81709 0.19919 0.17827 0.0
O674 O 0.87331 0.24129 0.21474 0.0
H675 H 0.85354 0.15551 0.19994 0.0
H676 H 0.83681 0.23213 0.18981 0.0
O677 O 0.90108 0.20393 0.18689 0.0
C678 C 0.86069 0.24717 0.23441 0.0
O679 O 0.85464 0.22911 0.25018 0.0
N680 N 0.88916 0.17275 0.22818 0.0
C681 C 0.90901 0.13972 0.26342 0.0
C682 C 0.92286 0.14623 0.24209 0.0
C683 C 0.91255 0.16268 0.22457 0.0
C684 C 0.8742 0.16392 0.24713 0.0
C685 C 0.88376 0.1471 0.26503 0.0
H686 H 0.92476 0.16939 0.21012 0.0
H687 H 0.856 0.17247 0.25037 0.0
H688 H 0.9358 0.23771 0.21778 0.0
H689 H 0.93551 0.21938 0.29459 0.0
H690 H 0.81107 0.15925 0.1741 0.0
H691 H 0.94231 0.1404 0.24012 0.0
H692 H 0.87248 0.14204 0.28122 0.0
C693 C 0.45187 0.67546 0.48171 0.0
C694 C 0.46347 0.69657 0.47244 0.0
N695 N 0.47846 0.70571 0.49064 0.0
N696 N 0.45902 0.67179 0.50583 0.0
C697 C 0.47587 0.6902 0.51047 0.0
H698 H 0.43955 0.66306 0.47136 0.0
Co699 Co 0.45091 0.64312 0.52417 0.0
C700 C 0.44709 0.68294 0.56866 0.0
O701 O 0.45186 0.70358 0.55603 0.0
N702 N 0.44378 0.61327 0.54205 0.0
C703 C 0.43364 0.58769 0.57371 0.0
C704 C 0.42753 0.60967 0.56128 0.0
C705 C 0.45883 0.59274 0.54269 0.0
N706 N 0.45368 0.5774 0.56213 0.0
O707 O 0.48661 0.63705 0.52801 0.0
H708 H 0.41347 0.62304 0.56723 0.0
H709 H 0.47438 0.5895 0.53014 0.0
O710 O 0.44727 0.66145 0.55742 0.0
C711 C 0.49349 0.62733 0.50701 0.0
O712 O 0.47602 0.62222 0.49022 0.0
N713 N 0.41645 0.64859 0.51677 0.0
C714 C 0.37659 0.66319 0.48593 0.0
C715 C 0.38679 0.67997 0.50338 0.0
C716 C 0.40681 0.67241 0.51843 0.0
C717 C 0.40508 0.6312 0.50159 0.0
C718 C 0.38487 0.6381 0.48598 0.0
H719 H 0.41639 0.68674 0.52904 0.0
H720 H 0.41341 0.61274 0.49945 0.0
H721 H 0.48675 0.69175 0.52761 0.0
H722 H 0.46115 0.70466 0.45391 0.0
H723 H 0.4253 0.58082 0.59096 0.0
H724 H 0.38092 0.6995 0.50369 0.0
H725 H 0.3774 0.62471 0.47254 0.0
C726 C 0.06026 0.70069 0.25994 0.0
C727 C 0.03963 0.71582 0.26216 0.0
N728 N 0.0439 0.7317 0.28125 0.0
N729 N 0.0774 0.70671 0.27763 0.0
C730 C 0.06678 0.72607 0.29033 0.0
H731 H 0.06315 0.68754 0.24526 0.0
Co732 Co 0.10962 0.69352 0.28301 0.0
C733 C 0.09295 0.68633 0.32868 0.0
O734 O 0.08225 0.66953 0.31398 0.0
N735 N 0.14202 0.68192 0.28931 0.0
C736 C 0.17795 0.66189 0.29762 0.0
C737 C 0.15458 0.66003 0.28606 0.0
C738 C 0.15799 0.69658 0.30253 0.0
N739 N 0.17972 0.68501 0.30787 0.0
O740 O 0.12492 0.72592 0.2721 0.0
H741 H 0.14697 0.64348 0.27697 0.0
H742 H 0.15336 0.71526 0.30925 0.0
O743 O 0.10714 0.703 0.31847 0.0
C744 C 0.11796 0.7433 0.25694 0.0
O745 O 0.09568 0.74225 0.24634 0.0
N746 N 0.11005 0.6794 0.24988 0.0
C747 C 0.08575 0.65768 0.20865 0.0
C748 C 0.08866 0.64409 0.231 0.0
C749 C 0.10077 0.65544 0.2515 0.0
C750 C 0.1116 0.69076 0.22684 0.0
C751 C 0.09894 0.68043 0.20604 0.0
H752 H 0.09982 0.64635 0.26967 0.0
H753 H 0.12053 0.70869 0.22448 0.0
H754 H 0.07591 0.73647 0.30526 0.0
H755 H 0.02303 0.71572 0.25032 0.0
H756 H 0.19199 0.64722 0.29927 0.0
H757 H 0.07922 0.62618 0.23351 0.0
H758 H 0.09793 0.69098 0.18864 0.0
C759 C 0.42228 0.29814 0.74328 0.0
C760 C 0.44484 0.28831 0.73537 0.0
N761 N 0.45378 0.27391 0.75409 0.0
N762 N 0.41772 0.29063 0.76711 0.0
C763 C 0.43689 0.27511 0.7728 0.0
H764 H 0.40982 0.3098 0.73236 0.0
Co765 Co 0.38872 0.29643 0.78578 0.0
C766 C 0.42904 0.30518 0.82834 0.0
O767 O 0.44959 0.30464 0.8147 0.0
N768 N 0.35917 0.30119 0.8045 0.0
C769 C 0.33312 0.31079 0.83594 0.0
C770 C 0.3554 0.31698 0.82412 0.0
C771 C 0.3387 0.28608 0.80446 0.0
N772 N 0.323 0.29121 0.82352 0.0
O773 O 0.38551 0.26045 0.78908 0.0
H774 H 0.36856 0.33121 0.83028 0.0
H775 H 0.33552 0.27072 0.79157 0.0
O776 O 0.40739 0.30156 0.81818 0.0
C777 C 0.37476 0.25606 0.76788 0.0
O778 O 0.36717 0.27564 0.75472 0.0
N779 N 0.39061 0.33093 0.77816 0.0
C780 C 0.40028 0.36597 0.74093 0.0
C781 C 0.41856 0.36053 0.75899 0.0
C782 C 0.41338 0.34288 0.7775 0.0
C783 C 0.37135 0.33908 0.76321 0.0
C784 C 0.37574 0.357 0.74442 0.0
H785 H 0.42904 0.33598 0.78821 0.0
H786 H 0.35355 0.32919 0.76329 0.0
H787 H 0.43851 0.26487 0.79031 0.0
H788 H 0.45413 0.29163 0.71756 0.0
H789 H 0.32536 0.31938 0.85271 0.0
H790 H 0.43766 0.36745 0.75696 0.0
H791 H 0.36104 0.36139 0.731 0.0
C792 C 0.48824 0.52721 0.83183 0.0
C793 C 0.4839 0.51689 0.80857 0.0
N794 N 0.50518 0.51908 0.79512 0.0
N795 N 0.51216 0.5356 0.83305 0.0
C796 C 0.52221 0.52988 0.81045 0.0
H797 H 0.47467 0.52876 0.84668 0.0
Co798 Co 0.52656 0.54986 0.86132 0.0
C799 C 0.57683 0.56697 0.84702 0.0
O800 O 0.56786 0.58821 0.85602 0.0
N801 N 0.54205 0.56289 0.89072 0.0
C802 C 0.55123 0.57655 0.92932 0.0
C803 C 0.53697 0.58098 0.90794 0.0
C804 C 0.55995 0.54858 0.90166 0.0
N805 N 0.56549 0.55603 0.92509 0.0
O806 O 0.52528 0.51676 0.87641 0.0
H807 H 0.52243 0.59506 0.90621 0.0
H808 H 0.56725 0.53141 0.89343 0.0
O809 O 0.56212 0.54756 0.8465 0.0
C810 C 0.50715 0.51783 0.89251 0.0
O811 O 0.50055 0.53999 0.90115 0.0
N812 N 0.52048 0.58159 0.84746 0.0
C813 C 0.48608 0.60836 0.81897 0.0
C814 C 0.50975 0.60253 0.80897 0.0
C815 C 0.52659 0.58845 0.82339 0.0
C816 C 0.49897 0.59033 0.85835 0.0
C817 C 0.48137 0.6037 0.84437 0.0
H818 H 0.54257 0.58027 0.81391 0.0
H819 H 0.49325 0.58323 0.87648 0.0
H820 H 0.54131 0.53404 0.80497 0.0
H821 H 0.46638 0.50898 0.80176 0.0
H822 H 0.54991 0.58643 0.94708 0.0
H823 H 0.51375 0.60589 0.78928 0.0
H824 H 0.4631 0.60774 0.85249 0.0
C825 C 0.7131 0.24816 0.06786 0.0
C826 C 0.72562 0.24091 0.04665 0.0
N827 N 0.74048 0.26006 0.03975 0.0
N828 N 0.71976 0.272 0.07422 0.0
C829 C 0.73712 0.27842 0.05691 0.0
H830 H 0.69959 0.23658 0.07751 0.0
Co831 Co 0.71107 0.29053 0.1029 0.0
C832 C 0.69291 0.32715 0.0609 0.0
O833 O 0.70289 0.31528 0.04177 0.0
N834 N 0.70391 0.30878 0.13162 0.0
C835 C 0.68933 0.33856 0.15705 0.0
C836 C 0.68421 0.32417 0.13609 0.0
C837 C 0.72048 0.3137 0.15022 0.0
N838 N 0.71213 0.33183 0.1659 0.0
O839 O 0.73003 0.26572 0.12299 0.0
H840 H 0.66783 0.32586 0.1241 0.0
H841 H 0.73895 0.30518 0.15151 0.0
O842 O 0.69478 0.31821 0.08322 0.0
C843 C 0.73185 0.24224 0.12792 0.0
O844 O 0.71602 0.22593 0.11838 0.0
N845 N 0.67965 0.27258 0.10524 0.0
C846 C 0.64485 0.23388 0.09883 0.0
C847 C 0.64774 0.25232 0.0804 0.0
C848 C 0.66509 0.27162 0.08402 0.0
C849 C 0.67357 0.25764 0.12528 0.0
C850 C 0.65647 0.23757 0.12229 0.0
H851 H 0.66962 0.28294 0.0679 0.0
H852 H 0.68391 0.25935 0.14271 0.0
H853 H 0.74641 0.29655 0.05631 0.0
H854 H 0.72295 0.22361 0.03618 0.0
H855 H 0.67754 0.35321 0.1649 0.0
H856 H 0.63867 0.25034 0.06224 0.0
H857 H 0.65397 0.22403 0.13729 0.0
C858 C 0.0182 0.48271 0.32632 0.0
C859 C 0.02707 0.49371 0.30471 0.0
N860 N 0.00715 0.49886 0.29006 0.0
N861 N 0.99287 0.481 0.32505 0.0
C862 C 0.9866 0.49122 0.30274 0.0
H863 H 0.02946 0.47611 0.34192 0.0
Co864 Co 0.97398 0.46725 0.35055 0.0
C865 C 0.92735 0.4472 0.32804 0.0
O866 O 0.93462 0.42585 0.33818 0.0
N867 N 0.95474 0.4541 0.37765 0.0
C868 C 0.94004 0.43466 0.41181 0.0
C869 C 0.95551 0.43244 0.391 0.0
C870 C 0.9379 0.46852 0.39022 0.0
N871 N 0.92946 0.45769 0.4114 0.0
O872 O 0.96911 0.50111 0.36317 0.0
H873 H 0.96752 0.41656 0.38698 0.0
H874 H 0.93294 0.48753 0.38501 0.0
O875 O 0.9417 0.46679 0.33003 0.0
C876 C 0.98649 0.5039 0.37969 0.0
O877 O 0.00035 0.48431 0.3856 0.0
N878 N 0.98417 0.43538 0.33898 0.0
C879 C 0.02122 0.40577 0.3166 0.0
C880 C 0.00015 0.4134 0.3028 0.0
C881 C 0.98205 0.42863 0.31418 0.0
C882 C 0.00369 0.42641 0.35307 0.0
C883 C 0.02247 0.41155 0.34224 0.0
H884 H 0.96839 0.43751 0.30211 0.0
H885 H 0.00656 0.43351 0.37192 0.0
H886 H 0.96756 0.49278 0.29575 0.0
H887 H 0.04656 0.49712 0.29981 0.0
H888 H 0.93869 0.42147 0.42726 0.0
H889 H 0.99897 0.40966 0.28279 0.0
H890 H 0.03881 0.40633 0.35327 0.0
C891 C 0.76882 0.75506 0.58301 0.0
C892 C 0.76489 0.76629 0.56032 0.0
N893 N 0.77289 0.7507 0.5419 0.0
N894 N 0.77796 0.73175 0.57943 0.0
C895 C 0.77923 0.72917 0.55421 0.0
H896 H 0.76562 0.76377 0.60107 0.0
Co897 Co 0.78913 0.713 0.60672 0.0
C898 C 0.81441 0.66768 0.58745 0.0
O899 O 0.83421 0.67752 0.59849 0.0
N900 N 0.79975 0.69443 0.63561 0.0
C901 C 0.81924 0.6782 0.66903 0.0
C902 C 0.82199 0.69305 0.64797 0.0
C903 C 0.78414 0.67993 0.64957 0.0
N904 N 0.79503 0.67076 0.67042 0.0
O905 O 0.75444 0.70602 0.61438 0.0
H906 H 0.83915 0.70247 0.64248 0.0
H907 H 0.76454 0.67672 0.64534 0.0
O908 O 0.79379 0.68056 0.58671 0.0
C909 C 0.749 0.72306 0.63058 0.0
O910 O 0.76736 0.73697 0.63966 0.0
N911 N 0.82162 0.72523 0.60011 0.0
C912 C 0.85079 0.76526 0.58372 0.0
C913 C 0.84703 0.7444 0.56815 0.0
C914 C 0.83229 0.72448 0.57668 0.0
C915 C 0.82724 0.74444 0.61625 0.0
C916 C 0.8421 0.76465 0.6085 0.0
H917 H 0.82695 0.71018 0.56326 0.0
H918 H 0.81766 0.74569 0.63414 0.0
H919 H 0.78499 0.71184 0.54526 0.0
H920 H 0.7563 0.78454 0.55817 0.0
H921 H 0.83349 0.67463 0.68316 0.0
H922 H 0.85349 0.74456 0.54882 0.0
H923 H 0.84464 0.7807 0.62082 0.0
C924 C 0.48023 0.4773 0.65899 0.0
C925 C 0.47661 0.48877 0.6819 0.0
N926 N 0.49902 0.48973 0.69356 0.0
N927 N 0.50472 0.47097 0.65665 0.0
C928 C 0.5158 0.47931 0.67783 0.0
H929 H 0.46583 0.47315 0.64522 0.0
Co930 Co 0.51831 0.45514 0.62908 0.0
C931 C 0.56625 0.43233 0.6477 0.0
O932 O 0.55742 0.41077 0.6394 0.0
N933 N 0.53224 0.43978 0.59985 0.0
C934 C 0.54443 0.41617 0.5671 0.0
C935 C 0.53189 0.41623 0.58997 0.0
C936 C 0.54539 0.4532 0.58281 0.0
N937 N 0.55234 0.43979 0.56261 0.0
O938 O 0.52453 0.48819 0.61561 0.0
H939 H 0.52312 0.40005 0.5986 0.0
H940 H 0.55008 0.47287 0.58468 0.0
O941 O 0.55264 0.45234 0.64557 0.0
C942 C 0.50477 0.49276 0.60255 0.0
O943 O 0.48811 0.47468 0.59969 0.0
N944 N 0.50684 0.42444 0.64197 0.0
C945 C 0.46858 0.39947 0.66742 0.0
C946 C 0.49146 0.4046 0.67946 0.0
C947 C 0.51035 0.41742 0.66646 0.0
C948 C 0.48558 0.41731 0.62941 0.0
C949 C 0.46613 0.40478 0.64181 0.0
H950 H 0.52603 0.42458 0.67714 0.0
H951 H 0.48219 0.42427 0.61061 0.0
H952 H 0.53561 0.47775 0.68189 0.0
H953 H 0.45891 0.49499 0.68983 0.0
H954 H 0.54702 0.40029 0.5546 0.0
H955 H 0.49369 0.40099 0.69939 0.0
H956 H 0.44851 0.40133 0.63212 0.0
C957 C 0.78577 0.24672 0.9029 0.0
C958 C 0.77828 0.23968 0.9266 0.0
N959 N 0.77981 0.26008 0.94143 0.0
N960 N 0.79166 0.27144 0.903 0.0
C961 C 0.7879 0.27902 0.92689 0.0
H962 H 0.78612 0.23471 0.88649 0.0
Co963 Co 0.79927 0.29054 0.87493 0.0
C964 C 0.80849 0.34368 0.89272 0.0
O965 O 0.82068 0.34906 0.87197 0.0
N966 N 0.80581 0.30984 0.84563 0.0
C967 C 0.8201 0.32763 0.81039 0.0
C968 C 0.82633 0.31278 0.83084 0.0
C969 C 0.78765 0.32331 0.83383 0.0
N970 N 0.79559 0.33382 0.81232 0.0
O971 O 0.76406 0.28998 0.86698 0.0
H972 H 0.84449 0.30427 0.83418 0.0
H973 H 0.76843 0.32496 0.84026 0.0
O974 O 0.79763 0.32219 0.89534 0.0
C975 C 0.76263 0.2707 0.85258 0.0
O976 O 0.78369 0.26008 0.84509 0.0
N977 N 0.83348 0.28614 0.88252 0.0
C978 C 0.86247 0.25029 0.90715 0.0
C979 C 0.85619 0.27283 0.91918 0.0
C980 C 0.84191 0.29077 0.90641 0.0
C981 C 0.84263 0.26598 0.86944 0.0
C982 C 0.85739 0.24774 0.88144 0.0
H983 H 0.83393 0.30568 0.91757 0.0
H984 H 0.83517 0.26175 0.85099 0.0
H985 H 0.78974 0.2982 0.93347 0.0
H986 H 0.77147 0.22136 0.93235 0.0
H987 H 0.83206 0.33204 0.79451 0.0
H988 H 0.86009 0.27542 0.93902 0.0
H989 H 0.86227 0.23058 0.87156 0.0
C990 C 0.01501 0.55465 0.15446 0.0
C991 C 0.02619 0.54794 0.17685 0.0
N992 N 0.00894 0.53536 0.19039 0.0
N993 N 0.99091 0.5465 0.1544 0.0
C994 C 0.98791 0.53454 0.17645 0.0
H995 H 0.02359 0.56531 0.13946 0.0
Co996 Co 0.96664 0.55137 0.12997 0.0
C997 C 0.921 0.56354 0.16228 0.0
O998 O 0.92043 0.58637 0.15302 0.0
N999 N 0.94167 0.55536 0.10468 0.0
C1000 C 0.90771 0.56776 0.08334 0.0
C1001 C 0.92585 0.57484 0.10042 0.0
C1002 C 0.93341 0.53723 0.08872 0.0
N1003 N 0.91277 0.54412 0.07578 0.0
O1004 O 0.96815 0.51566 0.12436 0.0
H1005 H 0.92725 0.59322 0.10895 0.0
H1006 H 0.94192 0.51895 0.0865 0.0
O1007 O 0.93839 0.54798 0.15551 0.0
C1008 C 0.98541 0.51243 0.10786 0.0
O1009 O 0.99268 0.53216 0.09481 0.0
N1010 N 0.97007 0.5864 0.13464 0.0
C1011 C 0.00602 0.62293 0.14578 0.0
C1012 C 0.99045 0.61308 0.16463 0.0
C1013 C 0.97243 0.59517 0.15867 0.0
C1014 C 0.98248 0.59827 0.11549 0.0
C1015 C 0.00035 0.61712 0.12065 0.0
H1016 H 0.96446 0.5849 0.17408 0.0
H1017 H 0.9812 0.59082 0.09659 0.0
H1018 H 0.9705 0.52593 0.18257 0.0
H1019 H 0.04509 0.55244 0.18301 0.0
H1020 H 0.89255 0.57938 0.07626 0.0
H1021 H 0.99394 0.61715 0.18431 0.0
H1022 H 0.01133 0.62508 0.10545 0.0
C1023 C 0.72423 0.75699 0.40471 0.0
C1024 C 0.73649 0.76779 0.42467 0.0
N1025 N 0.7385 0.75041 0.44295 0.0
N1026 N 0.71924 0.7327 0.41008 0.0
C1027 C 0.72781 0.7293 0.43367 0.0
H1028 H 0.72074 0.76578 0.38671 0.0
Co1029 Co 0.70895 0.71043 0.38559 0.0
C1030 C 0.70228 0.65972 0.40843 0.0
O1031 O 0.68438 0.65544 0.39195 0.0
N1032 N 0.69922 0.68884 0.35949 0.0
C1033 C 0.68187 0.67313 0.32475 0.0
C1034 C 0.6781 0.6886 0.34531 0.0
C1035 C 0.71515 0.67305 0.34756 0.0
N1036 N 0.70545 0.6639 0.32612 0.0
O1037 O 0.74351 0.70905 0.37458 0.0
H1038 H 0.66185 0.70043 0.34844 0.0
H1039 H 0.73447 0.66993 0.35319 0.0
O1040 O 0.71372 0.68104 0.4087 0.0
C1041 C 0.74662 0.72435 0.35634 0.0
O1042 O 0.72668 0.73497 0.3463 0.0
N1043 N 0.67556 0.71574 0.3958 0.0
C1044 C 0.64769 0.74807 0.42548 0.0
C1045 C 0.64949 0.72258 0.43194 0.0
C1046 C 0.66409 0.70665 0.41694 0.0
C1047 C 0.66908 0.73878 0.38662 0.0
C1048 C 0.65576 0.75568 0.40161 0.0
H1049 H 0.66791 0.6882 0.42398 0.0
H1050 H 0.67821 0.74573 0.36982 0.0
H1051 H 0.72787 0.71144 0.44331 0.0
H1052 H 0.74425 0.78663 0.42538 0.0
H1053 H 0.66947 0.67116 0.3087 0.0
H1054 H 0.64251 0.71591 0.44988 0.0
H1055 H 0.65399 0.77512 0.39571 0.0
C1056 C 0.83578 0.4857 0.51158 0.0
C1057 C 0.81116 0.47846 0.50979 0.0
N1058 N 0.79721 0.49265 0.52564 0.0
N1059 N 0.83765 0.50554 0.52723 0.0
C1060 C 0.81372 0.51007 0.53443 0.0
H1061 H 0.85116 0.47677 0.50182 0.0
Co1062 Co 0.86764 0.52135 0.53678 0.0
C1063 C 0.8539 0.56967 0.55949 0.0
O1064 O 0.86853 0.56116 0.5775 0.0
N1065 N 0.89832 0.53746 0.5448 0.0
C1066 C 0.93945 0.54459 0.54854 0.0
C1067 C 0.9198 0.52895 0.5554 0.0
C1068 C 0.90534 0.55854 0.53229 0.0
N1069 N 0.93023 0.56279 0.53353 0.0
O1070 O 0.87557 0.52661 0.50193 0.0
H1071 H 0.92173 0.51139 0.56541 0.0
H1072 H 0.89282 0.56921 0.52027 0.0
O1073 O 0.84999 0.55489 0.54073 0.0
C1074 C 0.88972 0.50752 0.49758 0.0
O1075 O 0.89421 0.4918 0.51611 0.0
N1076 N 0.86147 0.51084 0.57051 0.0
C1077 C 0.84012 0.47434 0.60133 0.0
C1078 C 0.83059 0.49885 0.60133 0.0
C1079 C 0.84108 0.51676 0.58517 0.0
C1080 C 0.87353 0.48841 0.57416 0.0
C1081 C 0.86311 0.46975 0.58947 0.0
H1082 H 0.83046 0.53377 0.5822 0.0
H1083 H 0.88906 0.48321 0.5622 0.0
H1084 H 0.80847 0.52621 0.54559 0.0
H1085 H 0.80463 0.46417 0.49697 0.0
H1086 H 0.95919 0.54188 0.55285 0.0
H1087 H 0.81317 0.50309 0.61104 0.0
H1088 H 0.87108 0.45098 0.58925 0.0
C1089 C 0.76537 0.58672 0.77244 0.0
C1090 C 0.77111 0.56466 0.76024 0.0
N1091 N 0.75057 0.54998 0.76106 0.0
N1092 N 0.74138 0.58565 0.78068 0.0
C1093 C 0.73271 0.56308 0.77319 0.0
H1094 H 0.77773 0.60263 0.77489 0.0
Co1095 Co 0.7247 0.61251 0.7942 0.0
C1096 C 0.67831 0.59428 0.81729 0.0
O1097 O 0.68889 0.6044 0.83723 0.0
N1098 N 0.70662 0.64104 0.80636 0.0
C1099 C 0.6955 0.68027 0.81642 0.0
C1100 C 0.71158 0.66046 0.82207 0.0
C1101 C 0.68695 0.6492 0.79233 0.0
N1102 N 0.68028 0.67302 0.79746 0.0
O1103 O 0.72063 0.62397 0.76015 0.0
H1104 H 0.72745 0.66141 0.83474 0.0
H1105 H 0.67939 0.6388 0.7765 0.0
O1106 O 0.69103 0.59387 0.79654 0.0
C1107 C 0.7375 0.64112 0.75777 0.0
O1108 O 0.7445 0.653 0.77824 0.0
N1109 N 0.73567 0.60152 0.82614 0.0
C1110 C 0.77514 0.57659 0.85022 0.0
C1111 C 0.75237 0.56419 0.84562 0.0
C1112 C 0.73297 0.57683 0.83322 0.0
C1113 C 0.75673 0.61455 0.83307 0.0
C1114 C 0.77682 0.60238 0.84501 0.0
H1115 H 0.71762 0.56556 0.82612 0.0
H1116 H 0.75984 0.63324 0.82571 0.0
H1117 H 0.71366 0.55652 0.77591 0.0
H1118 H 0.78877 0.55979 0.75132 0.0
H1119 H 0.6966 0.6992 0.8239 0.0
H1120 H 0.75064 0.54416 0.84904 0.0
H1121 H 0.79436 0.6124 0.84791 0.0
C1122 C 0.66987 0.5194 0.02617 0.0
C1123 C 0.69207 0.52461 0.01406 0.0
N1124 N 0.70189 0.50266 0.0063 0.0
N1125 N 0.66591 0.4943 0.0259 0.0
C1126 C 0.6857 0.48454 0.0134 0.0
H1127 H 0.65715 0.5331 0.03418 0.0
Co1128 Co 0.63686 0.47946 0.03742 0.0
C1129 C 0.64951 0.42677 0.05124 0.0
O1130 O 0.63556 0.43015 0.07136 0.0
N1131 N 0.60637 0.46495 0.04816 0.0
C1132 C 0.56854 0.45672 0.06442 0.0
C1133 C 0.59072 0.47001 0.06759 0.0
C1134 C 0.5934 0.44842 0.03378 0.0
N1135 N 0.57047 0.44328 0.04307 0.0
O1136 O 0.62539 0.47807 0.00309 0.0
H1137 H 0.59446 0.48335 0.08246 0.0
H1138 H 0.60017 0.44102 0.01607 0.0
O1139 O 0.65228 0.44496 0.03551 0.0
C1140 C 0.6145 0.49918 -0.00063 0.0
O1141 O 0.6118 0.51462 0.01849 0.0
N1142 N 0.6483 0.48534 0.07058 0.0
C1143 C 0.67895 0.51655 0.09973 0.0
C1144 C 0.68597 0.49158 0.09496 0.0
C1145 C 0.67053 0.47633 0.07999 0.0
C1146 C 0.63967 0.50833 0.0782 0.0
C1147 C 0.65485 0.52441 0.09251 0.0
H1148 H 0.67825 0.45883 0.07364 0.0
H1149 H 0.62282 0.51597 0.06974 0.0
H1150 H 0.68817 0.46476 0.00928 0.0
H1151 H 0.70058 0.54294 0.01142 0.0
H1152 H 0.55185 0.4579 0.07604 0.0
H1153 H 0.70448 0.48489 0.10031 0.0
H1154 H 0.64882 0.54362 0.09577 0.0
C1155 C 0.73486 0.41888 0.29148 0.0
C1156 C 0.72229 0.43952 0.28226 0.0
N1157 N 0.73857 0.45247 0.26791 0.0
N1158 N 0.75887 0.41916 0.28309 0.0
C1159 C 0.76038 0.43964 0.26833 0.0
H1160 H 0.72706 0.40458 0.30366 0.0
Co1161 Co 0.78238 0.39461 0.29049 0.0
C1162 C 0.82826 0.43432 0.28076 0.0
O1163 O 0.82047 0.45428 0.26845 0.0
N1164 N 0.80592 0.36844 0.2972 0.0
C1165 C 0.82548 0.33409 0.31147 0.0
C1166 C 0.8109 0.35462 0.31799 0.0
C1167 C 0.81883 0.35647 0.27874 0.0
N1168 N 0.83002 0.33523 0.28662 0.0
O1169 O 0.78074 0.38519 0.25567 0.0
H1170 H 0.80338 0.35807 0.33651 0.0
H1171 H 0.81876 0.36203 0.25926 0.0
O1172 O 0.8121 0.41712 0.28599 0.0
C1173 C 0.76523 0.36694 0.25345 0.0
O1174 O 0.75812 0.35518 0.27401 0.0
N1175 N 0.77984 0.40439 0.32465 0.0
C1176 C 0.74965 0.4274 0.36124 0.0
C1177 C 0.76642 0.44147 0.34652 0.0
C1178 C 0.78217 0.4296 0.32943 0.0
C1179 C 0.76487 0.38998 0.33981 0.0
C1180 C 0.75062 0.40101 0.35918 0.0
H1181 H 0.79273 0.44171 0.31714 0.0
H1182 H 0.76155 0.37044 0.33516 0.0
H1183 H 0.77687 0.44498 0.25783 0.0
H1184 H 0.70303 0.44493 0.28612 0.0
H1185 H 0.83048 0.31848 0.32355 0.0
H1186 H 0.76633 0.46186 0.34692 0.0
H1187 H 0.73846 0.38926 0.37055 0.0
C1188 C 0.83466 0.51185 0.94536 0.0
C1189 C 0.81103 0.52106 0.95072 0.0
N1190 N 0.79829 0.50259 0.96235 0.0
N1191 N 0.8364 0.48791 0.95354 0.0
C1192 C 0.81397 0.48293 0.96404 0.0
H1193 H 0.85004 0.52204 0.93709 0.0
Co1194 Co 0.86361 0.46652 0.95133 0.0
C1195 C 0.83149 0.42085 0.96444 0.0
O1196 O 0.8341 0.42206 0.98898 0.0
N1197 N 0.89074 0.44415 0.94942 0.0
C1198 C 0.91022 0.40783 0.9422 0.0
C1199 C 0.89134 0.42364 0.93438 0.0
C1200 C 0.91002 0.44073 0.96572 0.0
N1201 N 0.92186 0.4186 0.96196 0.0
O1202 O 0.86588 0.46766 0.98737 0.0
H1203 H 0.87772 0.41952 0.91981 0.0
H1204 H 0.91454 0.45334 0.98103 0.0
O1205 O 0.84174 0.43725 0.95034 0.0
C1206 C 0.87917 0.48749 0.99075 0.0
O1207 O 0.88994 0.49759 0.97089 0.0
N1208 N 0.86208 0.46919 0.91627 0.0
C1209 C 0.84803 0.50495 0.88125 0.0
C1210 C 0.83171 0.48505 0.88726 0.0
C1211 C 0.83939 0.46675 0.90441 0.0
C1212 C 0.87979 0.48539 0.90714 0.0
C1213 C 0.87319 0.50338 0.88907 0.0
H1214 H 0.82532 0.45386 0.91142 0.0
H1215 H 0.89772 0.4871 0.91665 0.0
H1216 H 0.80929 0.4656 0.9735 0.0
H1217 H 0.80399 0.53982 0.94709 0.0
H1218 H 0.91462 0.38947 0.93451 0.0
H1219 H 0.81233 0.48514 0.88086 0.0
H1220 H 0.88675 0.51757 0.88357 0.0
C1221 C 0.73957 0.58474 0.20482 0.0
C1222 C 0.72557 0.56373 0.2106 0.0
N1223 N 0.74097 0.54748 0.22224 0.0
N1224 N 0.76353 0.5815 0.2127 0.0
C1225 C 0.76364 0.55862 0.22353 0.0
H1226 H 0.73267 0.60162 0.19598 0.0
Co1227 Co 0.78976 0.60465 0.20922 0.0
C1228 C 0.83137 0.56233 0.22301 0.0
O1229 O 0.82748 0.54763 0.24246 0.0
N1230 N 0.81606 0.62795 0.20628 0.0
C1231 C 0.85394 0.64514 0.20062 0.0
C1232 C 0.83818 0.6255 0.19397 0.0
C1233 C 0.81873 0.64928 0.2199 0.0
N1234 N 0.84153 0.65987 0.21708 0.0
O1235 O 0.78519 0.61389 0.24379 0.0
H1236 H 0.84294 0.6099 0.18176 0.0
H1237 H 0.80478 0.65662 0.23259 0.0
O1238 O 0.81505 0.57912 0.2174 0.0
C1239 C 0.7656 0.62789 0.24418 0.0
O1240 O 0.75528 0.63404 0.22258 0.0
N1241 N 0.79093 0.5969 0.17501 0.0
C1242 C 0.75716 0.58045 0.13886 0.0
C1243 C 0.77412 0.56355 0.14993 0.0
C1244 C 0.79143 0.57229 0.16764 0.0
C1245 C 0.77775 0.61419 0.16137 0.0
C1246 C 0.76073 0.6063 0.14281 0.0
H1247 H 0.80158 0.55853 0.17845 0.0
H1248 H 0.77725 0.63359 0.16758 0.0
H1249 H 0.77978 0.55025 0.23256 0.0
H1250 H 0.70572 0.56075 0.20705 0.0
H1251 H 0.87299 0.64827 0.19411 0.0
H1252 H 0.77239 0.54348 0.14669 0.0
H1253 H 0.74862 0.61997 0.13376 0.0
C1254 C 0.65439 0.49886 0.51548 0.0
C1255 C 0.67452 0.49138 0.52956 0.0
N1256 N 0.69261 0.50875 0.52694 0.0
N1257 N 0.6593 0.52131 0.50441 0.0
C1258 C 0.6825 0.52735 0.51303 0.0
H1259 H 0.63842 0.487 0.51199 0.0
Co1260 Co 0.63814 0.53848 0.48126 0.0
C1261 C 0.66906 0.57508 0.4541 0.0
O1262 O 0.65865 0.56618 0.43352 0.0
N1263 N 0.61527 0.55634 0.46218 0.0
C1264 C 0.58268 0.57317 0.44199 0.0
C1265 C 0.60391 0.55825 0.43949 0.0
C1266 C 0.60138 0.57098 0.47752 0.0
N1267 N 0.58112 0.58086 0.46611 0.0
O1268 O 0.61201 0.51389 0.48756 0.0
H1269 H 0.60971 0.54886 0.42246 0.0
H1270 H 0.60516 0.57281 0.49746 0.0
O1271 O 0.66358 0.56528 0.47546 0.0
C1272 C 0.59919 0.49416 0.48283 0.0
O1273 O 0.60558 0.47984 0.46376 0.0
N1274 N 0.65228 0.51897 0.45349 0.0
C1275 C 0.67888 0.48811 0.41936 0.0
C1276 C 0.69086 0.49983 0.4395 0.0
C1277 C 0.67783 0.51622 0.45481 0.0
C1278 C 0.63986 0.50766 0.43389 0.0
C1279 C 0.65296 0.49281 0.41609 0.0
H1280 H 0.68902 0.52693 0.46759 0.0
H1281 H 0.6198 0.50976 0.43183 0.0
H1282 H 0.69306 0.54364 0.50683 0.0
H1283 H 0.67708 0.47294 0.53785 0.0
H1284 H 0.56899 0.57729 0.42748 0.0
H1285 H 0.71081 0.49733 0.44294 0.0
H1286 H 0.64286 0.48477 0.40032 0.0
C1287 C 0.7564 0.42124 0.69349 0.0
C1288 C 0.76473 0.44405 0.70217 0.0
N1289 N 0.74573 0.45448 0.71506 0.0
N1290 N 0.7321 0.41789 0.70002 0.0
C1291 C 0.72643 0.43814 0.71416 0.0
H1292 H 0.76746 0.40739 0.68391 0.0
Co1293 Co 0.71424 0.38839 0.69439 0.0
C1294 C 0.66933 0.42654 0.68702 0.0
O1295 O 0.68207 0.44769 0.68596 0.0
N1296 N 0.69566 0.35808 0.68989 0.0
C1297 C 0.6741 0.32462 0.67603 0.0
C1298 C 0.68779 0.34566 0.66904 0.0
C1299 C 0.68555 0.34467 0.70905 0.0
N1300 N 0.67295 0.32426 0.70127 0.0
O1301 O 0.71338 0.38394 0.73038 0.0
H1302 H 0.69173 0.35128 0.64991 0.0
H1303 H 0.6875 0.34907 0.72877 0.0
O1304 O 0.68074 0.40559 0.6911 0.0
C1305 C 0.73461 0.37256 0.73305 0.0
O1306 O 0.74818 0.36818 0.71284 0.0
N1307 N 0.72095 0.39135 0.65952 0.0
C1308 C 0.7613 0.40653 0.62984 0.0
C1309 C 0.74047 0.4224 0.63331 0.0
C1310 C 0.72003 0.41416 0.64769 0.0
C1311 C 0.73891 0.37423 0.65262 0.0
C1312 C 0.75912 0.38134 0.63726 0.0
H1313 H 0.70598 0.42779 0.65259 0.0
H1314 H 0.73996 0.35629 0.66214 0.0
H1315 H 0.7089 0.44059 0.72421 0.0
H1316 H 0.78331 0.45211 0.69981 0.0
H1317 H 0.66631 0.31038 0.6637 0.0
H1318 H 0.74102 0.44177 0.62696 0.0
H1319 H 0.77427 0.36815 0.63379 0.0
C1320 C 0.54842 0.83469 0.48218 0.0
C1321 C 0.5398 0.81305 0.47079 0.0
N1322 N 0.53162 0.79769 0.4891 0.0
N1323 N 0.54582 0.83249 0.50731 0.0
C1324 C 0.53524 0.80982 0.51092 0.0
H1325 H 0.55515 0.85142 0.47282 0.0
Co1326 Co 0.55137 0.85772 0.53003 0.0
C1327 C 0.55394 0.83453 0.58086 0.0
O1328 O 0.57323 0.84954 0.58462 0.0
N1329 N 0.5559 0.88433 0.55283 0.0
C1330 C 0.56541 0.92073 0.5713 0.0
C1331 C 0.57412 0.90188 0.55565 0.0
C1332 C 0.53676 0.89256 0.56741 0.0
N1333 N 0.54186 0.91473 0.5784 0.0
O1334 O 0.51708 0.86806 0.52394 0.0
H1335 H 0.59186 0.9021 0.54577 0.0
H1336 H 0.51849 0.88358 0.56828 0.0
O1337 O 0.54235 0.83508 0.55953 0.0
C1338 C 0.51735 0.8868 0.50881 0.0
O1339 O 0.53883 0.89874 0.50593 0.0
N1340 N 0.58553 0.84817 0.53088 0.0
C1341 C 0.61783 0.82282 0.49853 0.0
C1342 C 0.60725 0.81044 0.51912 0.0
C1343 C 0.59172 0.82364 0.53554 0.0
C1344 C 0.59887 0.86139 0.51332 0.0
C1345 C 0.61588 0.8491 0.49732 0.0
H1346 H 0.58146 0.81265 0.54873 0.0
H1347 H 0.59325 0.88034 0.50856 0.0
H1348 H 0.52908 0.8027 0.52892 0.0
H1349 H 0.53858 0.80929 0.45082 0.0
H1350 H 0.57482 0.93831 0.57554 0.0
H1351 H 0.60902 0.79022 0.52117 0.0
H1352 H 0.62462 0.85943 0.48209 0.0
C1353 C 0.03959 0.6688 0.51633 0.0
C1354 C 0.03053 0.69249 0.5213 0.0
N1355 N 0.02537 0.70341 0.49912 0.0
N1356 N 0.04036 0.66526 0.49126 0.0
C1357 C 0.03128 0.68661 0.48118 0.0
H1358 H 0.04376 0.65437 0.52994 0.0
Co1359 Co 0.04918 0.63561 0.47603 0.0
C1360 C 0.0766 0.65007 0.43028 0.0
O1361 O 0.09495 0.6366 0.43993 0.0
N1362 N 0.05666 0.60465 0.45974 0.0
C1363 C 0.06329 0.56436 0.44977 0.0
C1364 C 0.07028 0.58395 0.46554 0.0
C1365 C 0.04235 0.59725 0.43993 0.0
N1366 N 0.04544 0.57287 0.43394 0.0
O1367 O 0.0139 0.63006 0.46939 0.0
H1368 H 0.08306 0.58227 0.4812 0.0
H1369 H 0.02829 0.60905 0.43113 0.0
O1370 O 0.05604 0.65275 0.44291 0.0
C1371 C 0.00693 0.61807 0.48909 0.0
O1372 O 0.02421 0.61195 0.5057 0.0
N1373 N 0.08241 0.64102 0.48805 0.0
C1374 C 0.11025 0.66177 0.52754 0.0
C1375 C 0.10716 0.675 0.50506 0.0
C1376 C 0.09327 0.66433 0.48548 0.0
C1377 C 0.0875 0.62696 0.50897 0.0
C1378 C 0.10186 0.63682 0.52879 0.0
H1379 H 0.08793 0.67663 0.47028 0.0
H1380 H 0.07716 0.6098 0.51235 0.0
H1381 H 0.02801 0.68944 0.4613 0.0
H1382 H 0.02686 0.70063 0.53961 0.0
H1383 H 0.06928 0.54494 0.45123 0.0
H1384 H 0.11345 0.69435 0.50352 0.0
H1385 H 0.10391 0.62613 0.54601 0.0
C1386 C 0.58162 0.77332 0.7633 0.0
C1387 C 0.55885 0.76559 0.77291 0.0
N1388 N 0.5436 0.76061 0.75335 0.0
N1389 N 0.58042 0.77319 0.73797 0.0
C1390 C 0.55696 0.76533 0.73244 0.0
H1391 H 0.59839 0.77766 0.77397 0.0
Co1392 Co 0.60687 0.78032 0.71684 0.0
C1393 C 0.58368 0.79535 0.6683 0.0
O1394 O 0.59903 0.81471 0.66902 0.0
N1395 N 0.63438 0.78674 0.69509 0.0
C1396 C 0.66932 0.80028 0.67619 0.0
C1397 C 0.65 0.80669 0.69229 0.0
C1398 C 0.64419 0.76896 0.67972 0.0
N1399 N 0.66564 0.7764 0.66862 0.0
O1400 O 0.61432 0.74451 0.71639 0.0
H1401 H 0.64839 0.82445 0.70201 0.0
H1402 H 0.63665 0.75018 0.67764 0.0
O1403 O 0.58414 0.77911 0.68626 0.0
C1404 C 0.63006 0.7418 0.7345 0.0
O1405 O 0.6385 0.76207 0.74589 0.0
N1406 N 0.6009 0.81472 0.72282 0.0
C1407 C 0.58386 0.84882 0.75873 0.0
C1408 C 0.56834 0.84169 0.73872 0.0
C1409 C 0.57728 0.82467 0.72085 0.0
C1410 C 0.61706 0.82367 0.74075 0.0
C1411 C 0.60906 0.8412 0.75868 0.0
H1412 H 0.5638 0.81652 0.70837 0.0
H1413 H 0.63506 0.81458 0.74352 0.0
H1414 H 0.54988 0.76241 0.71358 0.0
H1415 H 0.55403 0.76315 0.79253 0.0
H1416 H 0.68584 0.81147 0.67205 0.0
H1417 H 0.54871 0.84722 0.73836 0.0
H1418 H 0.62145 0.84633 0.77404 0.0
C1419 C 0.45637 0.34367 0.01656 0.0
C1420 C 0.46563 0.31984 0.02077 0.0
N1421 N 0.47416 0.31101 0.99865 0.0
N1422 N 0.45878 0.34915 0.99191 0.0
C1423 C 0.47022 0.32909 0.98164 0.0
H1424 H 0.44799 0.35605 0.03029 0.0
Co1425 Co 0.44723 0.37703 0.9751 0.0
C1426 C 0.43194 0.34971 0.92682 0.0
O1427 O 0.40791 0.35311 0.93121 0.0
N1428 N 0.43619 0.40599 0.95754 0.0
C1429 C 0.42269 0.4286 0.92485 0.0
C1430 C 0.41737 0.40865 0.94058 0.0
C1431 C 0.45114 0.42605 0.9532 0.0
N1432 N 0.44438 0.43902 0.93264 0.0
O1433 O 0.4822 0.38764 0.9722 0.0
H1434 H 0.40142 0.3963 0.93871 0.0
H1435 H 0.4675 0.43056 0.96403 0.0
O1436 O 0.44869 0.35848 0.94198 0.0
C1437 C 0.48858 0.39671 0.99364 0.0
O1438 O 0.47117 0.39915 0.01101 0.0
N1439 N 0.41395 0.36674 0.98225 0.0
C1440 C 0.3799 0.3469 0.01667 0.0
C1441 C 0.39038 0.3316 0.9981 0.0
C1442 C 0.40759 0.34177 0.98127 0.0
C1443 C 0.40166 0.38246 0.99848 0.0
C1444 C 0.3844 0.37287 0.01599 0.0
H1445 H 0.41834 0.32873 0.97005 0.0
H1446 H 0.40763 0.40186 0.00016 0.0
H1447 H 0.47492 0.3272 0.96196 0.0
H1448 H 0.46538 0.3095 0.03829 0.0
H1449 H 0.41217 0.43425 0.90835 0.0
H1450 H 0.38737 0.31142 0.99832 0.0
H1451 H 0.37664 0.38512 0.03031 0.0
C1452 C 0.40756 0.70615 0.76225 0.0
C1453 C 0.43033 0.71347 0.77208 0.0
N1454 N 0.44393 0.7232 0.75319 0.0
N1455 N 0.4073 0.71072 0.73731 0.0
C1456 C 0.42964 0.72156 0.73237 0.0
H1457 H 0.39187 0.69858 0.77264 0.0
Co1458 Co 0.37979 0.70503 0.71699 0.0
C1459 C 0.39865 0.69541 0.66566 0.0
O1460 O 0.38322 0.67608 0.66675 0.0
N1461 N 0.35107 0.70094 0.69706 0.0
C1462 C 0.31104 0.69958 0.68469 0.0
C1463 C 0.32892 0.68871 0.70008 0.0
C1464 C 0.34613 0.71873 0.67966 0.0
N1465 N 0.32207 0.71863 0.67226 0.0
O1466 O 0.37082 0.7397 0.72132 0.0
H1467 H 0.32493 0.67462 0.71407 0.0
H1468 H 0.35928 0.7334 0.67444 0.0
O1469 O 0.40024 0.71034 0.68484 0.0
C1470 C 0.35698 0.73857 0.74105 0.0
O1471 O 0.3519 0.7163 0.75055 0.0
N1472 N 0.38752 0.67055 0.71754 0.0
C1473 C 0.40944 0.63537 0.74887 0.0
C1474 C 0.42316 0.64551 0.72891 0.0
C1475 C 0.41175 0.66295 0.71314 0.0
C1476 C 0.37298 0.65777 0.73444 0.0
C1477 C 0.38349 0.63931 0.74986 0.0
H1478 H 0.42402 0.67348 0.70102 0.0
H1479 H 0.35477 0.66488 0.73966 0.0
H1480 H 0.43533 0.72833 0.71407 0.0
H1481 H 0.43638 0.71208 0.79148 0.0
H1482 H 0.29117 0.69509 0.68404 0.0
H1483 H 0.44327 0.64239 0.72742 0.0
H1484 H 0.37234 0.63124 0.76489 0.0
C1485 C 0.9717 0.16459 0.98405 0.0
C1486 C 0.98422 0.18593 0.9766 0.0
N1487 N 0.98826 0.19997 0.99719 0.0
N1488 N 0.96786 0.16547 0.00909 0.0
C1489 C 0.97856 0.18715 0.0167 0.0
H1490 H 0.96505 0.14975 0.97191 0.0
Co1491 Co 0.95388 0.13944 0.02682 0.0
C1492 C 0.9357 0.15952 0.07511 0.0
O1493 O 0.91437 0.14928 0.06784 0.0
N1494 N 0.94118 0.11162 0.04547 0.0
C1495 C 0.92608 0.07429 0.05723 0.0
C1496 C 0.92149 0.09568 0.04303 0.0
C1497 C 0.95667 0.09996 0.06202 0.0
N1498 N 0.94867 0.07691 0.06854 0.0
O1499 O 0.9876 0.12559 0.02845 0.0
H1500 H 0.906 0.09812 0.03011 0.0
H1501 H 0.97494 0.10715 0.06745 0.0
O1502 O 0.95506 0.15833 0.06029 0.0
C1503 C 0.98838 0.10755 0.01234 0.0
O1504 O 0.9669 0.09773 0.00501 0.0
N1505 N 0.92181 0.15259 0.01863 0.0
C1506 C 0.89437 0.17917 0.98254 0.0
C1507 C 0.90265 0.19113 0.00446 0.0
C1508 C 0.91653 0.17761 0.02219 0.0
C1509 C 0.91173 0.1402 0.99847 0.0
C1510 C 0.89784 0.15315 0.98018 0.0
H1511 H 0.92604 0.18834 0.03653 0.0
H1512 H 0.91764 0.12116 0.99441 0.0
H1513 H 0.9794 0.19346 0.03599 0.0
H1514 H 0.98932 0.19113 0.95759 0.0
H1515 H 0.91511 0.05711 0.05695 0.0
H1516 H 0.90068 0.21133 0.00659 0.0
H1517 H 0.89213 0.14346 0.96317 0.0
C1518 C 0.58685 0.21749 0.74223 0.0
C1519 C 0.56346 0.2261 0.73566 0.0
N1520 N 0.55077 0.23066 0.75697 0.0
N1521 N 0.58871 0.21653 0.76752 0.0
C1522 C 0.5664 0.225 0.77611 0.0
H1523 H 0.60167 0.21224 0.72934 0.0
Co1524 Co 0.61805 0.20619 0.78291 0.0
C1525 C 0.6051 0.18657 0.83293 0.0
O1526 O 0.61508 0.16583 0.8239 0.0
N1527 N 0.649 0.19678 0.79832 0.0
C1528 C 0.68576 0.1809 0.81125 0.0
C1529 C 0.66378 0.176 0.79812 0.0
C1530 C 0.66223 0.21352 0.81227 0.0
N1531 N 0.68471 0.20479 0.81961 0.0
O1532 O 0.62792 0.24107 0.78416 0.0
H1533 H 0.65942 0.15854 0.78866 0.0
H1534 H 0.65609 0.23244 0.81653 0.0
O1535 O 0.60292 0.20581 0.81817 0.0
C1536 C 0.63983 0.24357 0.76335 0.0
O1537 O 0.64388 0.22328 0.74976 0.0
N1538 N 0.60831 0.17288 0.77595 0.0
C1539 C 0.58387 0.14088 0.74255 0.0
C1540 C 0.57172 0.14894 0.76442 0.0
C1541 C 0.58427 0.16499 0.78097 0.0
C1542 C 0.62104 0.1633 0.75579 0.0
C1543 C 0.60925 0.14687 0.73897 0.0
H1544 H 0.57334 0.17385 0.79565 0.0
H1545 H 0.63917 0.17102 0.75071 0.0
H1546 H 0.56179 0.22734 0.79576 0.0
H1547 H 0.55636 0.22912 0.71681 0.0
H1548 H 0.70185 0.16854 0.81309 0.0
H1549 H 0.55198 0.14477 0.76745 0.0
H1550 H 0.61894 0.14112 0.72199 0.0
C1551 C 0.92264 0.77832 0.25008 0.0
C1552 C 0.9476 0.77183 0.25153 0.0
N1553 N 0.95622 0.77961 0.27396 0.0
N1554 N 0.91582 0.78996 0.27155 0.0
C1555 C 0.93691 0.79075 0.28562 0.0
H1556 H 0.91024 0.7742 0.23471 0.0
Co1557 Co 0.88356 0.79734 0.28129 0.0
C1558 C 0.88851 0.81871 0.33212 0.0
O1559 O 0.87454 0.83653 0.3222 0.0
N1560 N 0.85038 0.80348 0.29225 0.0
C1561 C 0.80874 0.80734 0.2955 0.0
C1562 C 0.83011 0.81608 0.28339 0.0
C1563 C 0.84095 0.7881 0.31013 0.0
N1564 N 0.81589 0.78958 0.31207 0.0
O1565 O 0.87702 0.76127 0.28212 0.0
H1566 H 0.83026 0.82899 0.26772 0.0
H1567 H 0.85204 0.77413 0.31997 0.0
O1568 O 0.89463 0.80026 0.31769 0.0
C1569 C 0.86331 0.756 0.26285 0.0
O1570 O 0.85245 0.77471 0.25092 0.0
N1571 N 0.89024 0.83144 0.27417 0.0
C1572 C 0.91725 0.86113 0.24052 0.0
C1573 C 0.92527 0.85882 0.26551 0.0
C1574 C 0.91136 0.84393 0.28223 0.0
C1575 C 0.88082 0.83606 0.25074 0.0
C1576 C 0.89397 0.851 0.23363 0.0
H1577 H 0.91987 0.83959 0.30012 0.0
H1578 H 0.8655 0.82476 0.24363 0.0
H1579 H 0.93806 0.79799 0.30457 0.0
H1580 H 0.95836 0.76141 0.23771 0.0
H1581 H 0.78943 0.81206 0.29103 0.0
H1582 H 0.94336 0.86627 0.27129 0.0
H1583 H 0.8875 0.85215 0.21434 0.0
C1584 C 0.11218 0.02297 0.44114 0.0
C1585 C 0.08679 0.03112 0.44097 0.0
C1586 C 0.07887 0.00825 0.48011 0.0
C1587 C 0.1044 0.00018 0.4804 0.0
N1588 N 0.14392 0.9952 0.45887 0.0
N1589 N 0.04446 0.0269 0.45675 0.0
C1590 C 0.12055 0.00585 0.45999 0.0
C1591 C 0.06969 0.02248 0.4595 0.0
N1592 N 0.12848 0.03266 0.42386 0.0
N1593 N 0.06351 0.00273 0.49998 0.0
H1594 H 0.03683 0.0364 0.44143 0.0
H1595 H 0.03068 0.01893 0.46815 0.0
H1596 H 0.06888 0.99052 0.51429 0.0
H1597 H 0.04595 0.01093 0.50288 0.0
H1598 H 0.14782 0.02953 0.42401 0.0
H1599 H 0.12272 0.0457 0.41046 0.0
H1600 H 0.1559 0.99686 0.44348 0.0
H1601 H 0.15052 0.98274 0.47247 0.0
C1602 C 0.24874 0.87353 0.72451 0.0
C1603 C 0.26678 0.85884 0.73755 0.0
C1604 C 0.25473 0.82171 0.71311 0.0
C1605 C 0.23505 0.83581 0.70181 0.0
N1606 N 0.21656 0.87575 0.6919 0.0
N1607 N 0.29334 0.82263 0.73791 0.0
C1608 C 0.23332 0.86208 0.70577 0.0
C1609 C 0.27195 0.83406 0.72956 0.0
N1610 N 0.24571 0.89812 0.73122 0.0
N1611 N 0.25643 0.79646 0.70856 0.0
H1612 H 0.30684 0.83262 0.74815 0.0
H1613 H 0.29872 0.80444 0.73313 0.0
H1614 H 0.2447 0.78722 0.6958 0.0
H1615 H 0.26872 0.78451 0.71802 0.0
H1616 H 0.23132 0.90971 0.72475 0.0
H1617 H 0.25804 0.90676 0.7438 0.0
H1618 H 0.21528 0.89529 0.69243 0.0
H1619 H 0.20466 0.86742 0.67866 0.0
C1620 C 0.43599 0.98912 0.99213 0.0
C1621 C 0.41091 0.99791 0.99026 0.0
C1622 C 0.40395 0.97025 0.9541 0.0
C1623 C 0.42846 0.96017 0.957 0.0
N1624 N 0.46666 0.9572 0.98143 0.0
N1625 N 0.37143 0.99855 0.9676 0.0
C1626 C 0.44414 0.96872 0.97687 0.0
C1627 C 0.39512 0.98914 0.97063 0.0
N1628 N 0.45225 0.00117 0.00805 0.0
N1629 N 0.38825 0.9615 0.93585 0.0
H1630 H 0.36431 0.01328 0.97839 0.0
H1631 H 0.35938 0.99218 0.95344 0.0
H1632 H 0.39291 0.94684 0.92361 0.0
H1633 H 0.39291 0.94684 0.92361 0.0
H1634 H 0.47144 0.99736 0.00907 0.0
H1635 H 0.44676 0.01694 0.01841 0.0
H1636 H 0.47742 0.96054 0.99747 0.0
H1637 H 0.4741 0.94317 0.97 0.0
C1638 C 0.2576 0.16129 0.22639 0.0
C1639 C 0.25031 0.13558 0.22437 0.0
C1640 C 0.27212 0.13248 0.1838 0.0
C1641 C 0.27939 0.15806 0.18599 0.0
N1642 N 0.27308 0.19858 0.20542 0.0
N1643 N 0.24612 0.09808 0.19924 0.0
C1644 C 0.27045 0.17298 0.2062 0.0
C1645 C 0.25595 0.12165 0.2023 0.0
N1646 N 0.25275 0.17446 0.24799 0.0
N1647 N 0.28159 0.11843 0.16446 0.0
H1648 H 0.2344 0.08972 0.21255 0.0
H1649 H 0.24782 0.0876 0.18279 0.0
H1650 H 0.29358 0.12601 0.15089 0.0
H1651 H 0.27908 0.09908 0.16272 0.0
H1652 H 0.26086 0.19183 0.25215 0.0
H1653 H 0.24137 0.16757 0.26239 0.0
H1654 H 0.26468 0.21076 0.21828 0.0
H1655 H 0.28113 0.20806 0.19029 0.0
C1656 C 0.12806 0.98193 0.0299 0.0
C1657 C 0.12166 0.00696 0.02307 0.0
C1658 C 0.08656 0.00639 0.05277 0.0
C1659 C 0.09072 0.98019 0.05678 0.0
N1660 N 0.11825 0.94453 0.05453 0.0
N1661 N 0.10218 0.04576 0.0352 0.0
C1662 C 0.1126 0.96851 0.04715 0.0
C1663 C 0.10331 0.02016 0.03698 0.0
N1664 N 0.14861 0.97103 0.01901 0.0
N1665 N 0.06592 0.01778 0.06295 0.0
H1666 H 0.11523 0.05597 0.02469 0.0
H1667 H 0.09032 0.05698 0.04602 0.0
H1668 H 0.05395 0.00872 0.07544 0.0
H1669 H 0.05996 0.03583 0.05822 0.0
H1670 H 0.1537 0.95224 0.02093 0.0
H1671 H 0.16099 0.98153 0.00803 0.0
H1672 H 0.13443 0.93483 0.04933 0.0
H1673 H 0.107 0.93452 0.06712 0.0
C1674 C 0.26908 0.84922 0.29577 0.0
C1675 C 0.27337 0.82294 0.29476 0.0
C1676 C 0.24848 0.81985 0.25617 0.0
C1677 C 0.24399 0.84627 0.25719 0.0
N1678 N 0.24551 0.88522 0.28033 0.0
N1679 N 0.26401 0.7824 0.27725 0.0
C1680 C 0.2528 0.86069 0.27783 0.0
C1681 C 0.26216 0.80802 0.27583 0.0
N1682 N 0.28121 0.86315 0.31368 0.0
N1683 N 0.24006 0.80617 0.23606 0.0
H1684 H 0.27484 0.7734 0.29091 0.0
H1685 H 0.25382 0.77003 0.26597 0.0
H1686 H 0.22831 0.81371 0.22231 0.0
H1687 H 0.24539 0.78767 0.2324 0.0
H1688 H 0.28095 0.88273 0.31437 0.0
H1689 H 0.29325 0.85502 0.32689 0.0
H1690 H 0.24942 0.89621 0.29607 0.0
H1691 H 0.23361 0.89408 0.26752 0.0
C1692 C 0.42833 0.9947 0.52125 0.0
C1693 C 0.40221 0.98974 0.51919 0.0
C1694 C 0.39413 0.01529 0.55678 0.0
C1695 C 0.41975 0.02253 0.55696 0.0
N1696 N 0.46177 0.01933 0.54018 0.0
N1697 N 0.3599 0.99455 0.53474 0.0
C1698 C 0.43702 0.0123 0.53937 0.0
C1699 C 0.38502 0.99944 0.53719 0.0
N1700 N 0.44477 0.982 0.50603 0.0
N1701 N 0.37864 0.02372 0.57549 0.0
H1702 H 0.35294 0.98161 0.52178 0.0
H1703 H 0.3459 0.00358 0.54502 0.0
H1704 H 0.38462 0.03666 0.58902 0.0
H1705 H 0.36038 0.01725 0.57834 0.0
H1706 H 0.46427 0.98303 0.50747 0.0
H1707 H 0.43878 0.96848 0.49315 0.0
H1708 H 0.47482 0.01509 0.52622 0.0
H1709 H 0.4694 0.03018 0.55461 0.0
C1710 C 0.21857 0.13695 0.77923 0.0
C1711 C 0.22354 0.15019 0.75652 0.0
C1712 C 0.2014 0.18706 0.77328 0.0
C1713 C 0.19411 0.17283 0.79471 0.0
N1714 N 0.19229 0.13335 0.81641 0.0
N1715 N 0.217 0.18667 0.7304 0.0
C1716 C 0.2017 0.14746 0.79711 0.0
C1717 C 0.214 0.17486 0.75303 0.0
N1718 N 0.23036 0.11463 0.78403 0.0
N1719 N 0.19775 0.2125 0.77289 0.0
H1720 H 0.22733 0.17889 0.71562 0.0
H1721 H 0.20791 0.20341 0.72577 0.0
H1722 H 0.18929 0.22235 0.78756 0.0
H1723 H 0.20518 0.22422 0.75907 0.0
H1724 H 0.22932 0.10533 0.80123 0.0
H1725 H 0.24328 0.10661 0.77176 0.0
H1726 H 0.19506 0.11401 0.81805 0.0
H1727 H 0.17969 0.14067 0.82959 0.0
C1728 C 0.47789 0.06613 0.04916 0.0
C1729 C 0.4552 0.07871 0.05538 0.0
C1730 C 0.47185 0.11812 0.03815 0.0
C1731 C 0.4952 0.10599 0.0334 0.0
N1732 N 0.52169 0.06928 0.0363 0.0
N1733 N 0.43167 0.11687 0.05997 0.0
C1734 C 0.49859 0.0802 0.0395 0.0
C1735 C 0.45251 0.1048 0.05099 0.0
N1736 N 0.47925 0.0406 0.05177 0.0
N1737 N 0.46803 0.14222 0.03004 0.0
H1738 H 0.41746 0.10741 0.06969 0.0
H1739 H 0.42943 0.13634 0.05977 0.0
H1740 H 0.48182 0.15261 0.02077 0.0
H1741 H 0.45065 0.15125 0.03065 0.0
H1742 H 0.49407 0.02971 0.04503 0.0
H1743 H 0.46459 0.02995 0.0593 0.0
H1744 H 0.52628 0.05142 0.04287 0.0
H1745 H 0.53685 0.07865 0.02806 0.0
C1746 C 0.1652 0.18886 0.24451 0.0
C1747 C 0.16625 0.18831 0.27144 0.0
C1748 C 0.13147 0.21851 0.27258 0.0
C1749 C 0.13039 0.21892 0.24607 0.0
N1750 N 0.14119 0.19931 0.20696 0.0
N1751 N 0.16062 0.21626 0.30678 0.0
C1752 C 0.14543 0.20213 0.23211 0.0
C1753 C 0.1519 0.20656 0.28468 0.0
N1754 N 0.18538 0.18098 0.23083 0.0
N1755 N 0.11356 0.23087 0.28619 0.0
H1756 H 0.17907 0.21316 0.31275 0.0
H1757 H 0.15161 0.23085 0.31635 0.0
H1758 H 0.09834 0.23977 0.2775 0.0
H1759 H 0.1126 0.22987 0.30576 0.0
H1760 H 0.18594 0.18098 0.21128 0.0
H1761 H 0.20299 0.17866 0.23911 0.0
H1762 H 0.15027 0.18589 0.19592 0.0
H1763 H 0.1263 0.20832 0.19792 0.0
C1764 C 0.03873 0.90643 0.48608 0.0
C1765 C 0.02377 0.88906 0.49954 0.0
C1766 C 0.04522 0.90015 0.53891 0.0
C1767 C 0.05765 0.92001 0.52635 0.0
N1768 N 0.07104 0.93887 0.48731 0.0
N1769 N 0.02018 0.86205 0.53539 0.0
C1770 C 0.0562 0.92191 0.49959 0.0
C1771 C 0.02962 0.88351 0.52494 0.0
N1772 N 0.03551 0.90862 0.46069 0.0
N1773 N 0.0478 0.89777 0.56435 0.0
H1774 H 0.00969 0.8493 0.52476 0.0
H1775 H 0.0248 0.85562 0.55329 0.0
H1776 H 0.05993 0.90913 0.57483 0.0
H1777 H 0.0372 0.88542 0.57524 0.0
H1778 H 0.04443 0.92188 0.44945 0.0
H1779 H 0.02387 0.89652 0.45054 0.0
H1780 H 0.07294 0.93987 0.46789 0.0
H1781 H 0.08259 0.95153 0.49666 0.0
C1782 C 0.35177 0.79878 0.77998 0.0
C1783 C 0.3281 0.79424 0.79156 0.0
C1784 C 0.32095 0.75919 0.76257 0.0
C1785 C 0.34635 0.7608 0.75429 0.0
N1786 N 0.38702 0.78114 0.75723 0.0
N1787 N 0.2909 0.76893 0.79547 0.0
C1788 C 0.36206 0.78047 0.76334 0.0
C1789 C 0.31286 0.77412 0.78318 0.0
N1790 N 0.36395 0.82105 0.78403 0.0
N1791 N 0.30443 0.74366 0.75037 0.0
H1792 H 0.28478 0.77942 0.8109 0.0
H1793 H 0.28004 0.753 0.79185 0.0
H1794 H 0.3096 0.73288 0.73479 0.0
H1795 H 0.28516 0.74349 0.75398 0.0
H1796 H 0.3799 0.82653 0.77403 0.0
H1797 H 0.35669 0.83518 0.79549 0.0
H1798 H 0.39975 0.79343 0.76571 0.0
H1799 H 0.39549 0.76836 0.74504 0.0
C1800 C 0.46986 0.89 0.4992 0.0
C1801 C 0.49546 0.89413 0.49238 0.0
C1802 C 0.48107 0.92124 0.458 0.0
C1803 C 0.45569 0.91453 0.46256 0.0
N1804 N 0.42754 0.88525 0.48295 0.0
N1805 N 0.52296 0.90453 0.45726 0.0
C1806 C 0.45055 0.89655 0.48173 0.0
C1807 C 0.50038 0.90686 0.46928 0.0
N1808 N 0.46355 0.88122 0.52246 0.0
N1809 N 0.48715 0.94211 0.44438 0.0
H1810 H 0.5366 0.89155 0.4627 0.0
H1811 H 0.52635 0.91273 0.43975 0.0
H1812 H 0.47386 0.95522 0.43845 0.0
H1813 H 0.50574 0.94809 0.44219 0.0
H1814 H 0.4449 0.87996 0.52848 0.0
H1815 H 0.47659 0.87807 0.53671 0.0
H1816 H 0.42357 0.87072 0.49552 0.0
H1817 H 0.41364 0.88831 0.46943 0.0
C1818 C 0.35287 0.18789 0.75676 0.0
C1819 C 0.34487 0.1909 0.73131 0.0
C1820 C 0.36857 0.22994 0.72999 0.0
C1821 C 0.37 0.23073 0.75662 0.0
N1822 N 0.36132 0.20944 0.79603 0.0
N1823 N 0.34006 0.21996 0.69653 0.0
C1824 C 0.36172 0.20935 0.77038 0.0
C1825 C 0.35146 0.21329 0.71853 0.0
N1826 N 0.35332 0.16462 0.76753 0.0
N1827 N 0.38312 0.24542 0.71561 0.0
H1828 H 0.32458 0.21034 0.68925 0.0
H1829 H 0.34371 0.23709 0.68766 0.0
H1830 H 0.39709 0.25676 0.72349 0.0
H1831 H 0.38325 0.24444 0.696 0.0
H1832 H 0.3497 0.14825 0.7573 0.0
H1833 H 0.36058 0.16145 0.78548 0.0
H1834 H 0.35288 0.19509 0.8064 0.0
H1835 H 0.36785 0.22439 0.80686 0.0
C1836 C 0.05736 0.09249 0.99548 0.0
C1837 C 0.05395 0.08023 0.97192 0.0
C1838 C 0.00959 0.09133 0.9731 0.0
C1839 C 0.01178 0.09969 0.9986 0.0
N1840 N 0.03828 0.1027 0.03558 0.0
N1841 N 0.02479 0.06115 0.94291 0.0
C1842 C 0.03585 0.09879 0.01032 0.0
C1843 C 0.02945 0.07754 0.96214 0.0
N1844 N 0.08095 0.09898 0.00331 0.0
N1845 N 0.9893 0.09752 0.95857 0.0
H1846 H 0.03855 0.04921 0.93561 0.0
H1847 H 0.00661 0.05724 0.93656 0.0
H1848 H 0.97525 0.10982 0.96432 0.0
H1849 H 0.98833 0.09315 0.93945 0.0
H1850 H 0.08423 0.10973 0.0194 0.0
H1851 H 0.09691 0.096 0.9923 0.0
H1852 H 0.05521 0.09994 0.04511 0.0
H1853 H 0.023 0.1059 0.04742 0.0
C1854 C 0.12712 0.78795 0.24659 0.0
C1855 C 0.13578 0.76274 0.24735 0.0
C1856 C 0.17072 0.77436 0.21927 0.0
C1857 C 0.15934 0.79815 0.21529 0.0
N1858 N 0.12574 0.82724 0.22345 0.0
N1859 N 0.16649 0.73158 0.23438 0.0
C1860 C 0.13733 0.8049 0.22864 0.0
C1861 C 0.15801 0.75586 0.23399 0.0
N1862 N 0.10954 0.79576 0.26363 0.0
N1863 N 0.19406 0.76976 0.20953 0.0
H1864 H 0.15925 0.71777 0.24615 0.0
H1865 H 0.18025 0.72476 0.2222 0.0
H1866 H 0.20356 0.78271 0.19828 0.0
H1867 H 0.20485 0.75407 0.21416 0.0
H1868 H 0.10371 0.81439 0.26544 0.0
H1869 H 0.10293 0.78393 0.27785 0.0
H1870 H 0.10825 0.83227 0.23075 0.0
H1871 H 0.13263 0.8398 0.21004 0.0
C1872 C 0.00227 0.44257 0.09933 0.0
C1873 C 0.02765 0.44482 0.09108 0.0
C1874 C 0.0262 0.48973 0.10056 0.0
C1875 C 0.99969 0.48836 0.1047 0.0
N1876 N 0.96224 0.46228 0.10705 0.0
N1877 N 0.06148 0.47212 0.07812 0.0
C1878 C 0.98766 0.46447 0.10389 0.0
C1879 C 0.03903 0.46882 0.09021 0.0
N1880 N 0.99141 0.41966 0.103 0.0
N1881 N 0.03952 0.51061 0.10746 0.0
H1882 H 0.07077 0.45762 0.06873 0.0
H1883 H 0.06929 0.48983 0.07489 0.0
H1884 H 0.0314 0.52579 0.11675 0.0
H1885 H 0.05913 0.51143 0.10688 0.0
H1886 H 0.00101 0.40261 0.10123 0.0
H1887 H 0.00101 0.40261 0.10123 0.0
H1888 H 0.95307 0.4449 0.1063 0.0
H1889 H 0.95027 0.47763 0.10925 0.0
C1890 C 0.50186 0.01916 0.93577 0.0
C1891 C 0.49905 0.01754 0.90921 0.0
C1892 C 0.52198 0.05723 0.90436 0.0
C1893 C 0.52587 0.05816 0.93067 0.0
N1894 N 0.51571 0.0434 0.97208 0.0
N1895 N 0.50465 0.03627 0.86817 0.0
C1896 C 0.51455 0.04013 0.94659 0.0
C1897 C 0.50816 0.03715 0.8936 0.0
N1898 N 0.49334 -7e-05 0.95048 0.0
N1899 N 0.53155 0.0753 0.88896 0.0
H1900 H 0.49431 0.02213 0.85932 0.0
H1901 H 0.51163 0.05013 0.85613 0.0
H1902 H 0.54202 0.09067 0.89536 0.0
H1903 H 0.54202 0.09067 0.89536 0.0
H1904 H 0.49777 0.99795 0.96942 0.0
H1905 H 0.48255 0.98524 0.94321 0.0
H1906 H 0.50561 0.03265 0.98495 0.0
H1907 H 0.52575 0.05809 0.98042 0.0
C1908 C 0.20003 0.23526 0.11852 0.0
C1909 C 0.21646 0.22206 0.13489 0.0
C1910 C 0.19256 0.23653 0.17146 0.0
C1911 C 0.17743 0.25147 0.15534 0.0
N1912 N 0.1623 0.26104 0.11401 0.0
N1913 N 0.22371 0.20318 0.17494 0.0
C1914 C 0.17963 0.24932 0.12891 0.0
C1915 C 0.21086 0.22025 0.16076 0.0
N1916 N 0.20487 0.23536 0.09333 0.0
N1917 N 0.19032 0.23902 0.19695 0.0
H1918 H 0.23624 0.1905 0.16671 0.0
H1919 H 0.22065 0.20015 0.19399 0.0
H1920 H 0.17707 0.25076 0.20538 0.0
H1921 H 0.20245 0.23064 0.20982 0.0
H1922 H 0.19564 0.24679 0.0804 0.0
H1923 H 0.21864 0.22384 0.08545 0.0
H1924 H 0.16152 0.2591 0.09455 0.0
H1925 H 0.1475 0.27156 0.12154 0.0
C1926 C 0.9977 0.9604 0.38148 0.0
C1927 C 0.01612 0.97401 0.39506 0.0
C1928 C 0.00129 0.95605 0.43456 0.0
C1929 C 0.98112 0.94447 0.42143 0.0
N1930 N 0.96262 0.93089 0.38252 0.0
N1931 N 0.04193 0.97681 0.43155 0.0
C1932 C 0.98027 0.94499 0.39479 0.0
C1933 C 0.01996 0.96919 0.42076 0.0
N1934 N 0.99671 0.96298 0.35599 0.0
N1935 N 0.00224 0.95492 0.46021 0.0
H1936 H 0.05598 0.98554 0.42094 0.0
H1937 H 0.04712 0.97236 0.44987 0.0
H1938 H 0.98968 0.94426 0.47083 0.0
H1939 H 0.01492 0.96526 0.47103 0.0
H1940 H 0.98239 0.95589 0.34467 0.0
H1941 H 0.01095 0.97227 0.34618 0.0
H1942 H 0.96157 0.92897 0.36308 0.0
H1943 H 0.94935 0.92017 0.39216 0.0
C1944 C 0.77501 0.21875 0.17994 0.0
C1945 C 0.79576 0.21008 0.16565 0.0
C1946 C 0.77484 0.22288 0.12665 0.0
C1947 C 0.75447 0.23261 0.14104 0.0
N1948 N 0.7365 0.24344 0.1812 0.0
N1949 N 0.81768 0.20676 0.12639 0.0
C1950 C 0.75498 0.23168 0.16769 0.0
C1951 C 0.79628 0.21294 0.13923 0.0
N1952 N 0.77426 0.21383 0.20514 0.0
N1953 N 0.77349 0.22284 0.10097 0.0
H1954 H 0.83347 0.19911 0.13523 0.0
H1955 H 0.82056 0.21071 0.10744 0.0
H1956 H 0.75877 0.23119 0.09107 0.0
H1957 H 0.78622 0.21348 0.0894 0.0
H1958 H 0.75873 0.21746 0.2165 0.0
H1959 H 0.78876 0.20438 0.21442 0.0
H1960 H 0.73698 0.24561 0.20065 0.0
H1961 H 0.72144 0.25276 0.17272 0.0
C1962 C 0.48244 0.56033 0.59475 0.0
C1963 C 0.46988 0.55759 0.57134 0.0
C1964 C 0.49099 0.51709 0.56519 0.0
C1965 C 0.49901 0.51742 0.59067 0.0
N1966 N 0.50156 0.53938 0.6304 0.0
N1967 N 0.46112 0.53279 0.53452 0.0
C1968 C 0.4949 0.53922 0.60559 0.0
C1969 C 0.47417 0.53594 0.55643 0.0
N1970 N 0.48312 0.58333 0.60622 0.0
N1971 N 0.49951 0.49861 0.54947 0.0
H1972 H 0.44813 0.54596 0.52798 0.0
H1973 H 0.46153 0.51623 0.52401 0.0
H1974 H 0.51218 0.48485 0.55544 0.0
H1975 H 0.49616 0.49848 0.53016 0.0
H1976 H 0.49388 0.58706 0.62218 0.0
H1977 H 0.47509 0.59934 0.5982 0.0
H1978 H 0.49602 0.55347 0.64287 0.0
H1979 H 0.51147 0.52477 0.63888 0.0
C1980 C 0.23511 0.72285 0.33033 0.0
C1981 C 0.22867 0.72557 0.35621 0.0
C1982 C 0.19405 0.6955 0.35046 0.0
C1983 C 0.19865 0.69525 0.32429 0.0
N1984 N 0.22118 0.71079 0.2885 0.0
N1985 N 0.19881 0.71808 0.38972 0.0
C1986 C 0.21863 0.70943 0.31401 0.0
C1987 C 0.20737 0.71268 0.36606 0.0
N1988 N 0.25733 0.73222 0.32142 0.0
N1989 N 0.17664 0.67936 0.36024 0.0
H1990 H 0.20702 0.73167 0.40127 0.0
H1991 H 0.182 0.71106 0.39695 0.0
H1992 H 0.16678 0.66664 0.34899 0.0
H1993 H 0.1738 0.67687 0.37946 0.0
H1994 H 0.26423 0.72818 0.30353 0.0
H1995 H 0.26997 0.74228 0.33248 0.0
H1996 H 0.23337 0.72327 0.27955 0.0
H1997 H 0.20979 0.70048 0.27623 0.0
C1998 C 0.25502 0.27522 0.83291 0.0
C1999 C 0.25662 0.24896 0.83879 0.0
C2000 C 0.30266 0.25216 0.83838 0.0
C2001 C 0.30069 0.27729 0.8297 0.0
N2002 N 0.27547 0.31105 0.81362 0.0
N2003 N 0.28222 0.2116 0.84277 0.0
C2004 C 0.27699 0.28829 0.82546 0.0
C2005 C 0.28055 0.23717 0.84047 0.0
N2006 N 0.23296 0.28825 0.83576 0.0
N2007 N 0.32569 0.24287 0.84499 0.0
H2008 H 0.26648 0.19988 0.84348 0.0
H2009 H 0.29916 0.20179 0.84155 0.0
H2010 H 0.3421 0.25363 0.84386 0.0
H2011 H 0.3282 0.22547 0.85363 0.0
H2012 H 0.23179 0.30775 0.83404 0.0
H2013 H 0.21649 0.28055 0.84304 0.0
H2014 H 0.25856 0.31871 0.80729 0.0
H2015 H 0.29134 0.32115 0.80798 0.0
C2016 C 0.56869 0.5173 0.95035 0.0
C2017 C 0.57896 0.54084 0.94298 0.0
C2018 C 0.61791 0.53085 0.96532 0.0
C2019 C 0.60668 0.50842 0.9743 0.0
N2020 N 0.57667 0.47567 0.96727 0.0
N2021 N 0.61296 0.57055 0.94303 0.0
C2022 C 0.58368 0.50014 0.96422 0.0
C2023 C 0.60364 0.5477 0.95019 0.0
N2024 N 0.54397 0.51225 0.94562 0.0
N2025 N 0.64266 0.5351 0.97053 0.0
H2026 H 0.60248 0.58323 0.93236 0.0
H2027 H 0.63031 0.57767 0.94868 0.0
H2028 H 0.65343 0.5213 0.97927 0.0
H2029 H 0.653 0.55044 0.96415 0.0
H2030 H 0.53478 0.49621 0.95205 0.0
H2031 H 0.53202 0.52553 0.93759 0.0
H2032 H 0.56172 0.4676 0.95751 0.0
H2033 H 0.58775 0.46289 0.97722 0.0
C2034 C 0.71347 0.34343 0.21088 0.0
C2035 C 0.72532 0.34252 0.18713 0.0
C2036 C 0.76427 0.35881 0.20608 0.0
C2037 C 0.75163 0.36139 0.22952 0.0
N2038 N 0.71135 0.36519 0.25053 0.0
N2039 N 0.75954 0.35633 0.16078 0.0
C2040 C 0.72533 0.35651 0.23078 0.0
C2041 C 0.75004 0.35231 0.18428 0.0
N2042 N 0.69143 0.33083 0.21489 0.0
N2043 N 0.78977 0.36149 0.20459 0.0
H2044 H 0.74903 0.35313 0.14451 0.0
H2045 H 0.7766 0.36547 0.15758 0.0
H2046 H 0.80097 0.36622 0.21993 0.0
H2047 H 0.80001 0.35703 0.18848 0.0
H2048 H 0.68325 0.32924 0.23265 0.0
H2049 H 0.68294 0.31961 0.20121 0.0
H2050 H 0.69177 0.36381 0.25108 0.0
H2051 H 0.71888 0.37655 0.26463 0.0
C2052 C 0.88513 0.49549 0.4521 0.0
C2053 C 0.90092 0.50108 0.47284 0.0
C2054 C 0.93625 0.47937 0.45198 0.0
C2055 C 0.91966 0.47169 0.43249 0.0
N2056 N 0.87854 0.47444 0.4131 0.0
N2057 N 0.94189 0.49978 0.49241 0.0
C2058 C 0.89445 0.48049 0.43218 0.0
C2059 C 0.92669 0.49359 0.47255 0.0
N2060 N 0.86068 0.50346 0.45161 0.0
N2061 N 0.96142 0.47421 0.45003 0.0
H2062 H 0.93627 0.51221 0.50648 0.0
H2063 H 0.9597 0.4923 0.49554 0.0
H2064 H 0.96935 0.46502 0.43467 0.0
H2065 H 0.9751 0.48096 0.46229 0.0
H2066 H 0.84844 0.49908 0.43687 0.0
H2067 H 0.8528 0.51489 0.46542 0.0
H2068 H 0.88364 0.46316 0.39789 0.0
H2069 H 0.88364 0.46316 0.39789 0.0
C2070 C 0.77665 0.65786 0.73709 0.0
C2071 C 0.75294 0.64539 0.73445 0.0
C2072 C 0.76177 0.64325 0.68915 0.0
C2073 C 0.78159 0.66106 0.69202 0.0
N2074 N 0.80005 0.69219 0.71986 0.0
N2075 N 0.72134 0.62979 0.70515 0.0
C2076 C 0.78678 0.67049 0.71628 0.0
C2077 C 0.74493 0.6389 0.70966 0.0
N2078 N 0.79045 0.65688 0.75875 0.0
N2079 N 0.75934 0.63012 0.66724 0.0
H2080 H 0.70766 0.62785 0.71899 0.0
H2081 H 0.71452 0.62683 0.68699 0.0
H2082 H 0.77231 0.63181 0.6526 0.0
H2083 H 0.74629 0.61562 0.66496 0.0
H2084 H 0.80818 0.66529 0.76016 0.0
H2085 H 0.78639 0.64472 0.77353 0.0
H2086 H 0.80287 0.6998 0.73776 0.0
H2087 H 0.80479 0.70429 0.70521 0.0
C2088 C 0.58927 0.48715 0.52843 0.0
C2089 C 0.58266 0.48338 0.5029 0.0
C2090 C 0.55285 0.45075 0.5169 0.0
C2091 C 0.56453 0.45083 0.541 0.0
N2092 N 0.59878 0.4655 0.56685 0.0
N2093 N 0.55568 0.46246 0.47286 0.0
C2094 C 0.58462 0.46765 0.5456 0.0
C2095 C 0.56383 0.46519 0.49706 0.0
N2096 N 0.59835 0.50966 0.53691 0.0
N2097 N 0.53049 0.43857 0.51336 0.0
H2098 H 0.56045 0.47516 0.45869 0.0
H2099 H 0.54453 0.44744 0.46694 0.0
H2100 H 0.52129 0.42876 0.52756 0.0
H2101 H 0.51992 0.44009 0.49693 0.0
H2102 H 0.60228 0.51291 0.55586 0.0
H2103 H 0.59788 0.52602 0.52614 0.0
H2104 H 0.61461 0.47668 0.57015 0.0
H2105 H 0.59613 0.45081 0.57952 0.0
C2106 C 0.75101 0.37705 0.77753 0.0
C2107 C 0.74424 0.36155 0.75691 0.0
C2108 C 0.77179 0.32793 0.77286 0.0
C2109 C 0.77904 0.34361 0.79317 0.0
N2110 N 0.77412 0.3829 0.81573 0.0
N2111 N 0.74247 0.31994 0.73899 0.0
C2112 C 0.768 0.3678 0.79597 0.0
C2113 C 0.75291 0.33625 0.75591 0.0
N2114 N 0.74172 0.4009 0.77949 0.0
N2115 N 0.78343 0.30526 0.76932 0.0
H2116 H 0.72856 0.32545 0.72638 0.0
H2117 H 0.74568 0.3006 0.73906 0.0
H2118 H 0.79603 0.29753 0.78216 0.0
H2119 H 0.78159 0.29457 0.753 0.0
H2120 H 0.74657 0.4129 0.79429 0.0
H2121 H 0.72897 0.40839 0.7666 0.0
H2122 H 0.78687 0.3778 0.82978 0.0
H2123 H 0.78687 0.3778 0.82978 0.0
C2124 C 0.8868 0.48926 0.03838 0.0
C2125 C 0.88161 0.50128 0.01513 0.0
C2126 C 0.8965 0.5413 0.03231 0.0
C2127 C 0.90064 0.52994 0.05597 0.0
N2128 N 0.89409 0.49327 0.08255 0.0
N2129 N 0.87083 0.54072 0.99522 0.0
C2130 C 0.89392 0.50417 0.05942 0.0
C2131 C 0.88291 0.52796 0.01388 0.0
N2132 N 0.88525 0.46374 0.04079 0.0
N2133 N 0.90718 0.56392 0.02644 0.0
H2134 H 0.85905 0.53162 0.98254 0.0
H2135 H 0.86985 0.56033 0.99466 0.0
H2136 H 0.9199 0.57316 0.03816 0.0
H2137 H 0.90605 0.57174 0.00848 0.0
H2138 H 0.88948 0.45459 0.05765 0.0
H2139 H 0.88029 0.45179 0.02609 0.0
H2140 H 0.89769 0.50307 0.09918 0.0
H2141 H 0.89769 0.50307 0.09918 0.0
C2142 C 0.72903 0.67196 0.28704 0.0
C2143 C 0.72067 0.65483 0.30568 0.0
C2144 C 0.74667 0.62133 0.28736 0.0
C2145 C 0.75384 0.63786 0.26757 0.0
N2146 N 0.753 0.67948 0.24907 0.0
N2147 N 0.72298 0.61368 0.32478 0.0
C2148 C 0.74538 0.66338 0.26766 0.0
C2149 C 0.73002 0.62992 0.30628 0.0
N2150 N 0.72258 0.69685 0.28889 0.0
N2151 N 0.75484 0.59695 0.28798 0.0
H2152 H 0.71053 0.61835 0.33926 0.0
H2153 H 0.71053 0.61835 0.33926 0.0
H2154 H 0.76642 0.58891 0.27441 0.0
H2155 H 0.74985 0.58456 0.30237 0.0
H2156 H 0.7297 0.71107 0.27754 0.0
H2157 H 0.71148 0.70408 0.3033 0.0
H2158 H 0.74478 0.69685 0.24541 0.0
H2159 H 0.7675 0.67534 0.2366 0.0
C2160 C 0.95564 0.60151 0.53308 0.0
C2161 C 0.94449 0.58139 0.51974 0.0
C2162 C 0.96645 0.59457 0.48104 0.0
C2163 C 0.98036 0.61198 0.49559 0.0
N2164 N 0.9812 0.63935 0.5314 0.0
N2165 N 0.93395 0.56228 0.4799 0.0
C2166 C 0.9725 0.61784 0.52037 0.0
C2167 C 0.94795 0.57925 0.4932 0.0
N2168 N 0.95048 0.60444 0.55807 0.0
N2169 N 0.97157 0.59231 0.45598 0.0
H2170 H 0.92106 0.5503 0.48832 0.0
H2171 H 0.93396 0.56072 0.46042 0.0
H2172 H 0.98407 0.60427 0.44678 0.0
H2173 H 0.96333 0.57917 0.44404 0.0
H2174 H 0.95996 0.61696 0.5698 0.0
H2175 H 0.93702 0.59355 0.56735 0.0
H2176 H 0.97535 0.64595 0.54888 0.0
H2177 H 0.99245 0.65196 0.52149 0.0
C2178 C 0.66229 0.70858 0.7389 0.0
C2179 C 0.63802 0.71715 0.74514 0.0
C2180 C 0.64025 0.6934 0.78489 0.0
C2181 C 0.6661 0.68882 0.78045 0.0
N2182 N 0.70268 0.69464 0.75445 0.0
N2183 N 0.60217 0.71549 0.77234 0.0
C2184 C 0.67732 0.69687 0.75761 0.0
C2185 C 0.62638 0.70857 0.76758 0.0
N2186 N 0.67076 0.71149 0.71491 0.0
N2187 N 0.62914 0.68314 0.80563 0.0
H2188 H 0.59142 0.72425 0.75855 0.0
H2189 H 0.59294 0.71263 0.78935 0.0
H2190 H 0.63935 0.67295 0.81892 0.0
H2191 H 0.60989 0.68378 0.80921 0.0
H2192 H 0.68734 0.70335 0.70834 0.0
H2193 H 0.65951 0.71962 0.70103 0.0
H2194 H 0.71232 0.7019 0.73903 0.0
H2195 H 0.71435 0.68802 0.76869 0.0
C2196 C 0.54629 0.40451 0.03416 0.0
C2197 C 0.55075 0.43038 0.02967 0.0
C2198 C 0.52222 0.42911 0.99364 0.0
C2199 C 0.51459 0.40462 0.00039 0.0
N2200 N 0.51993 0.36792 0.02618 0.0
N2201 N 0.53998 0.46855 0.00802 0.0
C2202 C 0.52705 0.39189 0.02031 0.0
C2203 C 0.53783 0.44306 0.0102 0.0
N2204 N 0.56046 0.39226 0.05172 0.0
N2205 N 0.51528 0.4385 0.97089 0.0
H2206 H 0.55152 0.47924 0.0198 0.0
H2207 H 0.52882 0.47916 0.99589 0.0
H2208 H 0.50764 0.4267 0.95723 0.0
H2209 H 0.52004 0.45637 0.96453 0.0
H2210 H 0.55997 0.37288 0.05452 0.0
H2211 H 0.57377 0.40159 0.06278 0.0
H2212 H 0.52602 0.35824 0.04206 0.0
H2213 H 0.50735 0.35787 0.01496 0.0
C2214 C 0.86155 0.31439 0.25936 0.0
C2215 C 0.83727 0.31471 0.27035 0.0
C2216 C 0.82639 0.2758 0.24804 0.0
C2217 C 0.85189 0.2731 0.24057 0.0
N2218 N 0.89339 0.29094 0.23617 0.0
N2219 N 0.7958 0.29692 0.27451 0.0
C2220 C 0.86932 0.29298 0.24495 0.0
C2221 C 0.81938 0.29585 0.26427 0.0
N2222 N 0.87708 0.33456 0.26312 0.0
N2223 N 0.80882 0.25927 0.239 0.0
H2224 H 0.78947 0.31214 0.28513 0.0
H2225 H 0.78282 0.28227 0.27356 0.0
H2226 H 0.81349 0.24482 0.22659 0.0
H2227 H 0.78951 0.26116 0.24171 0.0
H2228 H 0.89447 0.33693 0.25449 0.0
H2229 H 0.87187 0.34987 0.2743 0.0
H2230 H 0.90759 0.30391 0.23978 0.0
H2231 H 0.89944 0.27601 0.22503 0.0
C2232 C 0.96386 0.39931 0.96358 0.0
C2233 C 0.94227 0.40794 0.97634 0.0
C2234 C 0.96182 0.39635 0.01671 0.0
C2235 C 0.98266 0.38608 0.00341 0.0
N2236 N 0.99751 0.36921 0.96393 0.0
N2237 N 0.9178 0.40848 0.01455 0.0
C2238 C 0.98173 0.38485 0.97675 0.0
C2239 C 0.94034 0.4047 0.00284 0.0
N2240 N 0.96795 0.40584 0.93909 0.0
N2241 N 0.96261 0.39889 0.04224 0.0
H2242 H 0.90144 0.41305 0.00474 0.0
H2243 H 0.91477 0.40444 0.03348 0.0
H2244 H 0.97717 0.39181 0.05324 0.0
H2245 H 0.94933 0.40919 0.05234 0.0
H2246 H 0.98462 0.4016 0.92964 0.0
H2247 H 0.95608 0.41798 0.92925 0.0
H2248 H 0.99625 0.36625 0.94458 0.0
H2249 H 0.00933 0.35674 0.97322 0.0
C2250 C 0.85268 0.70468 0.21362 0.0
C2251 C 0.84987 0.68301 0.2286 0.0
C2252 C 0.85619 0.70859 0.26677 0.0
C2253 C 0.86078 0.73018 0.25165 0.0
N2254 N 0.86965 0.74636 0.20964 0.0
N2255 N 0.85117 0.66394 0.26988 0.0
C2256 C 0.86091 0.72751 0.22479 0.0
C2257 C 0.85254 0.68478 0.25511 0.0
N2258 N 0.84592 0.70393 0.18882 0.0
N2259 N 0.85443 0.71052 0.29232 0.0
H2260 H 0.84909 0.6457 0.26283 0.0
H2261 H 0.84909 0.6457 0.26283 0.0
H2262 H 0.85525 0.72757 0.30195 0.0
H2263 H 0.8509 0.69495 0.30376 0.0
H2264 H 0.84443 0.71997 0.17765 0.0
H2265 H 0.83929 0.68769 0.18001 0.0
H2266 H 0.87304 0.7439 0.19048 0.0
H2267 H 0.87593 0.76367 0.2161 0.0
C2268 C 0.53115 0.59957 0.51321 0.0
C2269 C 0.51982 0.62017 0.50068 0.0
C2270 C 0.553 0.61795 0.46851 0.0
C2271 C 0.56083 0.59445 0.47817 0.0
N2272 N 0.55309 0.56021 0.50706 0.0
N2273 N 0.51858 0.64721 0.46406 0.0
C2274 C 0.54895 0.58457 0.5 0.0
C2275 C 0.53046 0.62899 0.47771 0.0
N2276 N 0.5247 0.59396 0.5374 0.0
N2277 N 0.56736 0.63002 0.45098 0.0
H2278 H 0.50239 0.65635 0.47029 0.0
H2279 H 0.524 0.65215 0.44588 0.0
H2280 H 0.58447 0.6228 0.44462 0.0
H2281 H 0.56363 0.6483 0.44492 0.0
H2282 H 0.53367 0.57997 0.54782 0.0
H2283 H 0.51256 0.6052 0.54792 0.0
H2284 H 0.54321 0.5515 0.52158 0.0
H2285 H 0.56399 0.5478 0.49647 0.0
C2286 C 0.63369 0.28837 0.7482 0.0
C2287 C 0.64982 0.26775 0.75331 0.0
C2288 C 0.681 0.2845 0.72354 0.0
C2289 C 0.66444 0.30449 0.71768 0.0
N2290 N 0.6256 0.32668 0.72601 0.0
N2291 N 0.69156 0.25052 0.75201 0.0
C2292 C 0.64123 0.30693 0.7306 0.0
C2293 C 0.67438 0.26724 0.74281 0.0
N2294 N 0.61096 0.29043 0.75989 0.0
N2295 N 0.70278 0.28172 0.71019 0.0
H2296 H 0.68715 0.23838 0.76675 0.0
H2297 H 0.71051 0.25043 0.74701 0.0
H2298 H 0.70845 0.29443 0.69638 0.0
H2299 H 0.71445 0.26605 0.71155 0.0
H2300 H 0.59855 0.30522 0.75623 0.0
H2301 H 0.60503 0.278 0.77379 0.0
H2302 H 0.62956 0.3409 0.71306 0.0
H2303 H 0.62956 0.3409 0.71306 0.0
C2304 C 0.52183 0.93404 0.61552 0.0
C2305 C 0.52348 0.93141 0.58912 0.0
C2306 C 0.48798 0.96015 0.58392 0.0
C2307 C 0.48994 0.96687 0.60945 0.0
N2308 N 0.5057 0.95824 0.65082 0.0
N2309 N 0.50902 0.94263 0.54764 0.0
C2310 C 0.5057 0.95285 0.62577 0.0
C2311 C 0.50649 0.94433 0.57313 0.0
N2312 N 0.53567 0.91846 0.63053 0.0
N2313 N 0.46819 0.96889 0.5702 0.0
H2314 H 0.52315 0.93205 0.53916 0.0
H2315 H 0.4986 0.95343 0.53504 0.0
H2316 H 0.4542 0.97994 0.57843 0.0
H2317 H 0.4642 0.96272 0.55204 0.0
H2318 H 0.5341 0.9179 0.65003 0.0
H2319 H 0.54772 0.90481 0.62313 0.0
H2320 H 0.51875 0.95113 0.66358 0.0
H2321 H 0.49229 0.97019 0.65866 0.0
C2322 C 0.98953 0.53266 0.41618 0.0
C2323 C 0.99425 0.52854 0.39043 0.0
C2324 C 0.03014 0.55764 0.39251 0.0
C2325 C 0.02797 0.55813 0.4191 0.0
N2326 N 0.00548 0.54648 0.45666 0.0
N2327 N 0.01597 0.53981 0.35269 0.0
C2328 C 0.00747 0.54589 0.43105 0.0
C2329 C 0.01345 0.54227 0.3781 0.0
N2330 N 0.96732 0.52451 0.42601 0.0
N2331 N 0.04839 0.57172 0.38126 0.0
H2332 H 0.00235 0.53058 0.34199 0.0
H2333 H 0.03095 0.54686 0.34227 0.0
H2334 H 0.06147 0.58182 0.39173 0.0
H2335 H 0.05023 0.57407 0.36194 0.0
H2336 H 0.96144 0.52849 0.44424 0.0
H2337 H 0.95372 0.51588 0.41475 0.0
H2338 H 0.99264 0.53564 0.46675 0.0
H2339 H 0.0174 0.55717 0.46801 0.0
C2340 C 0.68442 0.75309 0.63301 0.0
C2341 C 0.68448 0.7596 0.65882 0.0
C2342 C 0.72037 0.73176 0.66598 0.0
C2343 C 0.7232 0.72876 0.63964 0.0
N2344 N 0.70774 0.73607 0.59758 0.0
N2345 N 0.70257 0.75604 0.70018 0.0
C2346 C 0.70484 0.73881 0.62296 0.0
C2347 C 0.70239 0.74902 0.67543 0.0
N2348 N 0.66487 0.76081 0.61823 0.0
N2349 N 0.73511 0.71798 0.6819 0.0
H2350 H 0.68877 0.76744 0.70817 0.0
H2351 H 0.717 0.7515 0.71263 0.0
H2352 H 0.74794 0.70473 0.67532 0.0
H2353 H 0.73307 0.71783 0.70135 0.0
H2354 H 0.66222 0.75487 0.59975 0.0
H2355 H 0.65027 0.77197 0.62519 0.0
H2356 H 0.69697 0.74568 0.58435 0.0
H2357 H 0.72157 0.72468 0.58965 0.0
C2358 C 0.45011 0.48239 0.91758 0.0
C2359 C 0.45939 0.45775 0.91998 0.0
C2360 C 0.50052 0.47149 0.90367 0.0
C2361 C 0.49073 0.49604 0.89969 0.0
N2362 N 0.45258 0.5215 0.89531 0.0
N2363 N 0.4925 0.42781 0.91019 0.0
C2364 C 0.46446 0.50052 0.90435 0.0
C2365 C 0.48405 0.45194 0.9113 0.0
N2366 N 0.42798 0.48891 0.92894 0.0
N2367 N 0.52558 0.4665 0.90091 0.0
H2368 H 0.48151 0.41217 0.91469 0.0
H2369 H 0.48151 0.41217 0.91469 0.0
H2370 H 0.53901 0.48025 0.89713 0.0
H2371 H 0.53307 0.4486 0.90401 0.0
H2372 H 0.42175 0.50747 0.9303 0.0
H2373 H 0.41712 0.47617 0.93917 0.0
H2374 H 0.43311 0.52382 0.89606 0.0
H2375 H 0.46121 0.53529 0.88451 0.0
C2376 C 0.29115 0.77937 0.65297 0.0
C2377 C 0.27779 0.77031 0.6321 0.0
C2378 C 0.30107 0.7308 0.63302 0.0
C2379 C 0.30995 0.73747 0.65719 0.0
N2380 N 0.31681 0.76909 0.6892 0.0
N2381 N 0.27695 0.74349 0.59622 0.0
C2382 C 0.30663 0.76238 0.66661 0.0
C2383 C 0.28544 0.74801 0.61996 0.0
N2384 N 0.288 0.8039 0.65989 0.0
N2385 N 0.30694 0.70774 0.62328 0.0
H2386 H 0.26635 0.75703 0.58682 0.0
H2387 H 0.2817 0.72786 0.58542 0.0
H2388 H 0.31895 0.69524 0.63249 0.0
H2389 H 0.29988 0.70079 0.60639 0.0
H2390 H 0.29769 0.81269 0.67446 0.0
H2391 H 0.27675 0.816 0.64928 0.0
H2392 H 0.31495 0.78678 0.69727 0.0
H2393 H 0.32679 0.75665 0.70045 0.0
C2394 C 0.97612 0.0399 0.06067 0.0
C2395 C 0.96517 0.05731 0.0778 0.0
C2396 C 0.98832 0.03777 0.11281 0.0
C2397 C 0.99863 0.01986 0.09587 0.0
N2398 N 0.0055 0.00552 0.05343 0.0
N2399 N 0.96437 0.07613 0.11883 0.0
C2400 C 0.99348 0.02154 0.06967 0.0
C2401 C 0.9725 0.05726 0.10344 0.0
N2402 N 0.96974 0.04093 0.03578 0.0
N2403 N 0.9922 0.03521 0.13808 0.0
H2404 H 0.9515 0.08955 0.11285 0.0
H2405 H 0.97138 0.07941 0.13682 0.0
H2406 H 0.00461 0.02214 0.14571 0.0
H2407 H 0.98224 0.04521 0.15166 0.0
H2408 H 0.97455 0.02738 0.02251 0.0
H2409 H 0.95877 0.0552 0.02814 0.0
H2410 H 0.00478 0.00686 0.03394 0.0
H2411 H 0.01776 0.99145 0.05943 0.0
C2412 C 0.70317 0.23061 0.85367 0.0
C2413 C 0.70464 0.2207 0.82891 0.0
C2414 C 0.73731 0.25143 0.81888 0.0
C2415 C 0.73875 0.25863 0.84444 0.0
N2416 N 0.72374 0.25397 0.88702 0.0
N2417 N 0.72621 0.21915 0.78899 0.0
C2418 C 0.72166 0.24814 0.86211 0.0
C2419 C 0.72269 0.23031 0.81185 0.0
N2420 N 0.68394 0.2233 0.86902 0.0
N2421 N 0.74959 0.26541 0.80119 0.0
H2422 H 0.71534 0.2042 0.7825 0.0
H2423 H 0.74113 0.22372 0.77712 0.0
H2424 H 0.75945 0.28169 0.80603 0.0
H2425 H 0.7475 0.2626 0.78189 0.0
H2426 H 0.68002 0.23183 0.88623 0.0
H2427 H 0.67096 0.20958 0.86374 0.0
H2428 H 0.71413 0.24445 0.90119 0.0
H2429 H 0.73599 0.26771 0.89362 0.0
C2430 C 0.78291 0.75326 0.36292 0.0
C2431 C 0.77159 0.73396 0.34852 0.0
C2432 C 0.79292 0.74912 0.31072 0.0
C2433 C 0.80066 0.77085 0.32428 0.0
N2434 N 0.80458 0.79358 0.3631 0.0
N2435 N 0.77335 0.70765 0.31227 0.0
C2436 C 0.79641 0.77271 0.35048 0.0
C2437 C 0.77896 0.73011 0.32337 0.0
N2438 N 0.78146 0.75219 0.38847 0.0
N2439 N 0.79838 0.74715 0.28569 0.0
H2440 H 0.76425 0.69339 0.32227 0.0
H2441 H 0.77957 0.70225 0.29452 0.0
H2442 H 0.80894 0.7606 0.27613 0.0
H2443 H 0.79168 0.73286 0.27408 0.0
H2444 H 0.79051 0.76468 0.40056 0.0
H2445 H 0.77323 0.73686 0.39748 0.0
H2446 H 0.80023 0.79742 0.3818 0.0
H2447 H 0.8146 0.80796 0.35424 0.0
C2448 C 0.13327 0.05266 0.28764 0.0
C2449 C 0.15282 0.06509 0.30117 0.0
C2450 C 0.12538 0.06673 0.33827 0.0
C2451 C 0.10486 0.05726 0.32404 0.0
N2452 N 0.08832 0.04515 0.28357 0.0
N2453 N 0.16473 0.089 0.33824 0.0
C2454 C 0.10854 0.05108 0.29828 0.0
C2455 C 0.14803 0.07372 0.32606 0.0
N2456 N 0.13822 0.04259 0.26451 0.0
N2457 N 0.12357 0.06837 0.36385 0.0
H2458 H 0.18155 0.09494 0.3305 0.0
H2459 H 0.16059 0.09814 0.35509 0.0
H2460 H 0.10755 0.06286 0.37369 0.0
H2461 H 0.13884 0.07247 0.37548 0.0
H2462 H 0.1257 0.03084 0.25502 0.0
H2463 H 0.15549 0.04484 0.25544 0.0
H2464 H 0.08937 0.04304 0.26412 0.0
H2465 H 0.07004 0.04449 0.29055 0.0
C2466 C 0.15216 0.87287 0.60799 0.0
C2467 C 0.17391 0.85985 0.59934 0.0
C2468 C 0.1804 0.89599 0.57031 0.0
C2469 C 0.15589 0.90529 0.57604 0.0
N2470 N 0.11529 0.89443 0.59356 0.0
N2471 N 0.20823 0.85995 0.56862 0.0
C2472 C 0.14067 0.89075 0.59229 0.0
C2473 C 0.18786 0.87145 0.57921 0.0
N2474 N 0.14356 0.87032 0.63204 0.0
N2475 N 0.19725 0.91088 0.55795 0.0
H2476 H 0.21663 0.84373 0.5754 0.0
H2477 H 0.21636 0.86637 0.55196 0.0
H2478 H 0.19299 0.92899 0.55199 0.0
H2479 H 0.21615 0.90608 0.55578 0.0
H2480 H 0.12812 0.88049 0.63871 0.0
H2481 H 0.15424 0.86188 0.64618 0.0
H2482 H 0.10373 0.88331 0.60492 0.0
H2483 H 0.10584 0.90635 0.58117 0.0
C2484 C 0.3746 0.90963 0.81739 0.0
C2485 C 0.35398 0.91866 0.8318 0.0
C2486 C 0.38238 0.94845 0.85345 0.0
C2487 C 0.40312 0.93782 0.8406 0.0
N2488 N 0.41712 0.9177 0.80279 0.0
N2489 N 0.33695 0.953 0.85606 0.0
C2490 C 0.39858 0.9214 0.82008 0.0
C2491 C 0.35749 0.94024 0.84738 0.0
N2492 N 0.37186 0.88904 0.80225 0.0
N2493 N 0.38659 0.96556 0.87215 0.0
H2494 H 0.3187 0.94805 0.85086 0.0
H2495 H 0.33804 0.9699 0.86595 0.0
H2496 H 0.40451 0.97266 0.87598 0.0
H2497 H 0.37262 0.97203 0.88426 0.0
H2498 H 0.38701 0.87988 0.79382 0.0
H2499 H 0.35465 0.88017 0.79923 0.0
H2500 H 0.41472 0.90715 0.78644 0.0
H2501 H 0.43349 0.92849 0.80316 0.0
C2502 C 0.34969 0.12059 0.0491 0.0
C2503 C 0.33567 0.09901 0.0558 0.0
C2504 C 0.30239 0.12567 0.07364 0.0
C2505 C 0.3173 0.14735 0.06885 0.0
N2506 N 0.35094 0.16605 0.04485 0.0
N2507 N 0.29472 0.08175 0.06354 0.0
C2508 C 0.33955 0.14495 0.05406 0.0
C2509 C 0.31067 0.10182 0.06455 0.0
N2510 N 0.37312 0.11768 0.03892 0.0
N2511 N 0.2813 0.12739 0.08823 0.0
H2512 H 0.29992 0.06513 0.05453 0.0
H2513 H 0.27568 0.08282 0.06814 0.0
H2514 H 0.27424 0.1444 0.09493 0.0
H2515 H 0.27164 0.11169 0.09493 0.0
H2516 H 0.38571 0.13241 0.0361 0.0
H2517 H 0.3802 0.10006 0.03389 0.0
H2518 H 0.36601 0.16577 0.03236 0.0
H2519 H 0.34364 0.18396 0.04786 0.0
C2520 C 0.10545 0.94442 0.18763 0.0
C2521 C 0.10275 0.94222 0.16104 0.0
C2522 C 0.14314 0.9199 0.15935 0.0
C2523 C 0.14751 0.92458 0.18527 0.0
N2524 N 0.13391 0.94483 0.22352 0.0
N2525 N 0.12399 0.93587 0.1215 0.0
C2526 C 0.12905 0.93813 0.19919 0.0
C2527 C 0.12328 0.93262 0.14696 0.0
N2528 N 0.08542 0.95129 0.20207 0.0
N2529 N 0.15722 0.90273 0.14644 0.0
H2530 H 0.11037 0.94629 0.11201 0.0
H2531 H 0.13955 0.931 0.11057 0.0
H2532 H 0.17018 0.89096 0.15509 0.0
H2533 H 0.15337 0.89765 0.12788 0.0
H2534 H 0.08544 0.95031 0.22165 0.0
H2535 H 0.06824 0.95643 0.1944 0.0
H2536 H 0.12252 0.95713 0.23371 0.0
H2537 H 0.15013 0.93911 0.23302 0.0
C2538 C 0.30823 0.86324 0.42921 0.0
C2539 C 0.32202 0.84798 0.4119 0.0
C2540 C 0.35826 0.87582 0.41792 0.0
C2541 C 0.34316 0.8936 0.43083 0.0
N2542 N 0.3015 0.90561 0.44451 0.0
N2543 N 0.35809 0.84599 0.38395 0.0
C2544 C 0.3175 0.8877 0.43552 0.0
C2545 C 0.34656 0.85589 0.4047 0.0
N2546 N 0.28682 0.85444 0.4403 0.0
N2547 N 0.38386 0.87824 0.41775 0.0
H2548 H 0.349 0.83394 0.3714 0.0
H2549 H 0.37528 0.85269 0.37725 0.0
H2550 H 0.39313 0.89235 0.42781 0.0
H2551 H 0.39569 0.86463 0.40998 0.0
H2552 H 0.27756 0.86415 0.45462 0.0
H2553 H 0.27994 0.83638 0.43735 0.0
H2554 H 0.2821 0.90289 0.44578 0.0
H2555 H 0.30729 0.92389 0.44831 0.0
C2556 C 0.35102 0.04823 0.67131 0.0
C2557 C 0.34992 0.06828 0.68905 0.0
C2558 C 0.39502 0.06255 0.69696 0.0
C2559 C 0.39701 0.04821 0.67467 0.0
N2560 N 0.3769 0.02448 0.64197 0.0
N2561 N 0.37177 0.09479 0.71911 0.0
C2562 C 0.3749 0.03973 0.66254 0.0
C2563 C 0.37204 0.07515 0.7025 0.0
N2564 N 0.32922 0.03744 0.66296 0.0
N2565 N 0.41512 0.06384 0.71284 0.0
H2566 H 0.3556 0.1049 0.72363 0.0
H2567 H 0.38808 0.10223 0.72708 0.0
H2568 H 0.43105 0.05278 0.70985 0.0
H2569 H 0.4145 0.07277 0.73028 0.0
H2570 H 0.3287 0.02159 0.65143 0.0
H2571 H 0.31161 0.04291 0.66972 0.0
H2572 H 0.36179 0.01988 0.63035 0.0
H2573 H 0.39415 0.01703 0.63622 0.0
C2574 C 0.19879 0.13177 0.90256 0.0
C2575 C 0.18739 0.1525 0.91484 0.0
C2576 C 0.16603 0.12362 0.94405 0.0
C2577 C 0.1757 0.10278 0.93042 0.0
N2578 N 0.20811 0.08697 0.90314 0.0
N2579 N 0.16977 0.1683 0.95323 0.0
C2580 C 0.19449 0.10694 0.91185 0.0
C2581 C 0.17413 0.14843 0.93761 0.0
N2582 N 0.21264 0.13573 0.88132 0.0
N2583 N 0.148 0.12 0.96199 0.0
H2584 H 0.17771 0.18589 0.9497 0.0
H2585 H 0.16156 0.16655 0.97093 0.0
H2586 H 0.14206 0.10218 0.96762 0.0
H2587 H 0.13807 0.13471 0.97033 0.0
H2588 H 0.21876 0.12132 0.86951 0.0
H2589 H 0.21733 0.15376 0.87517 0.0
H2590 H 0.22329 0.08871 0.89088 0.0
H2591 H 0.20577 0.06891 0.91045 0.0
C2592 C 0.06492 0.28052 0.13212 0.0
C2593 C 0.05353 0.29268 0.15294 0.0
C2594 C 0.03656 0.32535 0.12464 0.0
C2595 C 0.05151 0.31558 0.1049 0.0
N2596 N 0.07727 0.28235 0.08821 0.0
N2597 N 0.02796 0.32675 0.16936 0.0
C2598 C 0.06467 0.29251 0.10815 0.0
C2599 C 0.03868 0.3148 0.14923 0.0
N2600 N 0.07544 0.25722 0.13526 0.0
N2601 N 0.02058 0.34496 0.1199 0.0
H2602 H 0.02803 0.31961 0.18756 0.0
H2603 H 0.0201 0.34466 0.16849 0.0
H2604 H 0.01901 0.35334 0.10225 0.0
H2605 H 0.00722 0.35151 0.13264 0.0
H2606 H 0.08241 0.24621 0.12066 0.0
H2607 H 0.07555 0.24788 0.15252 0.0
H2608 H 0.09023 0.26773 0.08958 0.0
H2609 H 0.07459 0.28883 0.06996 0.0
C2610 C 0.57024 0.19138 0.89717 0.0
C2611 C 0.58265 0.17128 0.91 0.0
C2612 C 0.61366 0.1703 0.87605 0.0
C2613 C 0.59861 0.18611 0.86062 0.0
N2614 N 0.55985 0.20967 0.85659 0.0
N2615 N 0.61134 0.13607 0.90526 0.0
C2616 C 0.57611 0.19627 0.87119 0.0
C2617 C 0.60303 0.15919 0.89767 0.0
N2618 N 0.55366 0.20641 0.90976 0.0
N2619 N 0.6382 0.16556 0.87007 0.0
H2620 H 0.60199 0.12529 0.91871 0.0
H2621 H 0.62519 0.12614 0.89549 0.0
H2622 H 0.64723 0.17422 0.85497 0.0
H2623 H 0.65013 0.15539 0.8819 0.0
H2624 H 0.54576 0.22251 0.90183 0.0
H2625 H 0.55002 0.20441 0.9289 0.0
H2626 H 0.54205 0.21514 0.86278 0.0
H2627 H 0.56333 0.21362 0.83777 0.0
C2628 C 0.92026 0.81087 0.3695 0.0
C2629 C 0.89904 0.82336 0.3584 0.0
C2630 C 0.9052 0.85794 0.3878 0.0
C2631 C 0.92367 0.8447 0.40183 0.0
N2632 N 0.94544 0.80492 0.40728 0.0
N2633 N 0.86483 0.85163 0.369 0.0
C2634 C 0.9305 0.82012 0.39301 0.0
C2635 C 0.88943 0.84459 0.37134 0.0
N2636 N 0.93046 0.79008 0.35843 0.0
N2637 N 0.90251 0.88341 0.38985 0.0
H2638 H 0.85154 0.84029 0.35997 0.0
H2639 H 0.8573 0.86667 0.37917 0.0
H2640 H 0.91515 0.89456 0.39992 0.0
H2641 H 0.8896 0.89339 0.37891 0.0
H2642 H 0.94797 0.78288 0.36359 0.0
H2643 H 0.92173 0.78008 0.34408 0.0
H2644 H 0.94853 0.786 0.4031 0.0
H2645 H 0.95315 0.81043 0.42434 0.0
C2646 C 0.93866 0.20652 0.13073 0.0
C2647 C 0.92475 0.19284 0.14917 0.0
C2648 C 0.92441 0.15623 0.1207 0.0
C2649 C 0.93588 0.17058 0.10124 0.0
N2650 N 0.95034 0.21105 0.08676 0.0
N2651 N 0.90045 0.15551 0.15915 0.0
C2652 C 0.94227 0.19615 0.10604 0.0
C2653 C 0.9164 0.16804 0.14336 0.0
N2654 N 0.9483 0.22962 0.13671 0.0
N2655 N 0.92173 0.13079 0.11784 0.0
H2656 H 0.89446 0.16243 0.17633 0.0
H2657 H 0.89111 0.139 0.15412 0.0
H2658 H 0.92708 0.1213 0.10158 0.0
H2659 H 0.91662 0.11874 0.13243 0.0
H2660 H 0.96121 0.23914 0.12545 0.0
H2661 H 0.94435 0.23878 0.15363 0.0
H2662 H 0.95243 0.23048 0.08823 0.0
H2663 H 0.95316 0.20424 0.06865 0.0
C2664 C 0.39811 0.6959 0.61908 0.0
C2665 C 0.41255 0.6988 0.64126 0.0
C2666 C 0.45088 0.69332 0.61541 0.0
C2667 C 0.43584 0.68583 0.5945 0.0
N2668 N 0.39442 0.67435 0.57959 0.0
N2669 N 0.45353 0.69938 0.66075 0.0
C2670 C 0.40926 0.68555 0.59724 0.0
C2671 C 0.43927 0.69753 0.63949 0.0
N2672 N 0.37347 0.70314 0.61885 0.0
N2673 N 0.47623 0.69632 0.61233 0.0
H2674 H 0.44583 0.7039 0.67816 0.0
H2675 H 0.47274 0.6955 0.66125 0.0
H2676 H 0.48536 0.69214 0.59545 0.0
H2677 H 0.48787 0.70425 0.62598 0.0
H2678 H 0.36254 0.70347 0.60256 0.0
H2679 H 0.36512 0.71182 0.63428 0.0
H2680 H 0.37506 0.67195 0.58173 0.0
H2681 H 0.40191 0.66414 0.56484 0.0
C2682 C 0.09313 0.64582 0.38616 0.0
C2683 C 0.08064 0.66093 0.40448 0.0
C2684 C 0.07886 0.69556 0.37352 0.0
C2685 C 0.09281 0.68079 0.35618 0.0
N2686 N 0.11909 0.64466 0.34884 0.0
N2687 N 0.06719 0.70255 0.41712 0.0
C2688 C 0.10194 0.65692 0.36359 0.0
C2689 C 0.075 0.68652 0.39862 0.0
N2690 N 0.09543 0.62041 0.3895 0.0
N2691 N 0.06873 0.71787 0.36588 0.0
H2692 H 0.0652 0.69705 0.43579 0.0
H2693 H 0.06509 0.72186 0.41443 0.0
H2694 H 0.07228 0.72542 0.34815 0.0
H2695 H 0.05581 0.72804 0.37656 0.0
H2696 H 0.10187 0.60826 0.37551 0.0
H2697 H 0.08829 0.61092 0.40504 0.0
H2698 H 0.12849 0.62842 0.35454 0.0
H2699 H 0.12596 0.65227 0.33213 0.0
C2700 C 0.42881 0.34239 0.85775 0.0
C2701 C 0.43084 0.31591 0.85431 0.0
C2702 C 0.43903 0.31141 0.89966 0.0
C2703 C 0.4385 0.33803 0.90232 0.0
N2704 N 0.44047 0.37863 0.88278 0.0
N2705 N 0.4421 0.27545 0.87139 0.0
C2706 C 0.4362 0.35336 0.88086 0.0
C2707 C 0.43747 0.30047 0.87509 0.0
N2708 N 0.41805 0.357 0.83968 0.0
N2709 N 0.4401 0.29666 0.92065 0.0
H2710 H 0.4401 0.2668 0.85387 0.0
H2711 H 0.44937 0.2637 0.88527 0.0
H2712 H 0.44226 0.30422 0.93863 0.0
H2713 H 0.4377 0.27721 0.92033 0.0
H2714 H 0.41444 0.37614 0.84194 0.0
H2715 H 0.40918 0.3492 0.82421 0.0
H2716 H 0.44121 0.3906 0.86727 0.0
H2717 H 0.44606 0.38693 0.89964 0.0
C2718 C 0.61881 0.58569 0.85286 0.0
C2719 C 0.60432 0.56762 0.83977 0.0
C2720 C 0.63995 0.5642 0.80975 0.0
C2721 C 0.65126 0.58609 0.82065 0.0
N2722 N 0.64286 0.62306 0.84611 0.0
N2723 N 0.60132 0.54004 0.80372 0.0
C2724 C 0.63791 0.59855 0.84009 0.0
C2725 C 0.61491 0.55683 0.81754 0.0
N2726 N 0.61411 0.591 0.87752 0.0
N2727 N 0.65297 0.55009 0.79277 0.0
H2728 H 0.58408 0.53304 0.80974 0.0
H2729 H 0.60687 0.53387 0.78595 0.0
H2730 H 0.67083 0.555 0.78648 0.0
H2731 H 0.64664 0.53269 0.78625 0.0
H2732 H 0.62523 0.60348 0.88788 0.0
H2733 H 0.60109 0.58068 0.88796 0.0
H2734 H 0.63236 0.63288 0.85951 0.0
H2735 H 0.6551 0.63418 0.83554 0.0
C2736 C 0.68804 0.39826 0.04917 0.0
C2737 C 0.66149 0.40143 0.04783 0.0
C2738 C 0.65558 0.35606 0.05525 0.0
C2739 C 0.68204 0.35275 0.0567 0.0
N2740 N 0.72381 0.36972 0.05125 0.0
N2741 N 0.62092 0.38243 0.04168 0.0
C2742 C 0.69837 0.37358 0.05237 0.0
C2743 C 0.64558 0.37999 0.04852 0.0
N2744 N 0.70338 0.41886 0.04828 0.0
N2745 N 0.63988 0.3365 0.06086 0.0
H2746 H 0.61343 0.39953 0.03565 0.0
H2747 H 0.60877 0.36724 0.03921 0.0
H2748 H 0.64642 0.31862 0.06535 0.0
H2749 H 0.62049 0.33847 0.06301 0.0
H2750 H 0.72242 0.41857 0.05291 0.0
H2751 H 0.6969 0.43663 0.04333 0.0
H2752 H 0.73664 0.38327 0.04528 0.0
H2753 H 0.73219 0.35237 0.05499 0.0
C2754 C 0.85845 0.42967 0.31826 0.0
C2755 C 0.85457 0.43497 0.29222 0.0
C2756 C 0.89844 0.4514 0.28996 0.0
C2757 C 0.90155 0.44733 0.3162 0.0
N2758 N 0.88489 0.43201 0.35542 0.0
N2759 N 0.87144 0.45025 0.253 0.0
C2760 C 0.88139 0.43675 0.33035 0.0
C2761 C 0.87478 0.44575 0.2781 0.0
N2762 N 0.84011 0.41794 0.33177 0.0
N2763 N 0.91867 0.45898 0.276 0.0
H2764 H 0.85644 0.44274 0.24278 0.0
H2765 H 0.88323 0.46159 0.24225 0.0
H2766 H 0.93591 0.46375 0.28398 0.0
H2767 H 0.91903 0.45944 0.25645 0.0
H2768 H 0.83803 0.41929 0.35118 0.0
H2769 H 0.82795 0.40513 0.3236 0.0
H2770 H 0.87299 0.42124 0.36659 0.0
H2771 H 0.90041 0.43862 0.3654 0.0
C2772 C 0.81152 0.63042 0.55594 0.0
C2773 C 0.81707 0.64042 0.58016 0.0
C2774 C 0.84947 0.60894 0.58509 0.0
C2775 C 0.84167 0.59531 0.56344 0.0
N2776 N 0.81103 0.59326 0.52919 0.0
N2777 N 0.83338 0.63037 0.62128 0.0
C2778 C 0.82127 0.60591 0.54905 0.0
C2779 C 0.83287 0.6262 0.596 0.0
N2780 N 0.79795 0.6444 0.53927 0.0
N2781 N 0.87352 0.6076 0.59408 0.0
H2782 H 0.82031 0.64218 0.62992 0.0
H2783 H 0.84475 0.61981 0.63333 0.0
H2784 H 0.88813 0.59943 0.5838 0.0
H2785 H 0.87948 0.61825 0.6095 0.0
H2786 H 0.79569 0.63927 0.52047 0.0
H2787 H 0.7903 0.66184 0.54402 0.0
H2788 H 0.79472 0.59934 0.52015 0.0
H2789 H 0.81755 0.57606 0.52264 0.0
C2790 C 0.63613 0.41627 0.65422 0.0
C2791 C 0.64246 0.42683 0.67804 0.0
C2792 C 0.59826 0.44055 0.68286 0.0
C2793 C 0.59273 0.43255 0.6579 0.0
N2794 N 0.60817 0.4167 0.61825 0.0
N2795 N 0.63005 0.45195 0.71374 0.0
C2796 C 0.6122 0.42148 0.64321 0.0
C2797 C 0.62369 0.44004 0.69184 0.0
N2798 N 0.65278 0.40099 0.64197 0.0
N2799 N 0.57908 0.44689 0.69871 0.0
H2800 H 0.6479 0.45061 0.72181 0.0
H2801 H 0.61805 0.46435 0.72305 0.0
H2802 H 0.5603 0.44586 0.69335 0.0
H2803 H 0.58156 0.45047 0.71781 0.0
H2804 H 0.64797 0.39023 0.62629 0.0
H2805 H 0.67075 0.39711 0.64855 0.0
H2806 H 0.62244 0.41167 0.60579 0.0
H2807 H 0.59107 0.42015 0.60929 0.0
C2808 C 0.8406 0.37872 0.94664 0.0
C2809 C 0.82254 0.39743 0.95206 0.0
C2810 C 0.79266 0.37634 0.92355 0.0
C2811 C 0.81242 0.3606 0.91478 0.0
N2812 N 0.85705 0.35065 0.91515 0.0
N2813 N 0.78131 0.41491 0.94559 0.0
C2814 C 0.83687 0.36266 0.92567 0.0
C2815 C 0.79838 0.39633 0.94069 0.0
N2816 N 0.86163 0.37656 0.96128 0.0
N2817 N 0.76867 0.37252 0.91513 0.0
H2818 H 0.78463 0.42893 0.95896 0.0
H2819 H 0.76448 0.41704 0.93577 0.0
H2820 H 0.76413 0.35855 0.90208 0.0
H2821 H 0.75307 0.38191 0.9224 0.0
H2822 H 0.8743 0.36166 0.95962 0.0
H2823 H 0.86508 0.38825 0.97668 0.0
H2824 H 0.87556 0.35395 0.92079 0.0
H2825 H 0.85583 0.33926 0.89926 0.0
C2826 C 0.89983 0.57167 0.20341 0.0
C2827 C 0.90102 0.55719 0.181 0.0
C2828 C 0.85807 0.54192 0.18927 0.0
C2829 C 0.85546 0.56007 0.2088 0.0
N2830 N 0.87366 0.59312 0.23405 0.0
N2831 N 0.88089 0.52898 0.15179 0.0
C2832 C 0.87634 0.57514 0.21582 0.0
C2833 C 0.88013 0.54213 0.17387 0.0
N2834 N 0.92147 0.58143 0.21324 0.0
N2835 N 0.83969 0.52429 0.18567 0.0
H2836 H 0.89702 0.52804 0.14065 0.0
H2837 H 0.86524 0.52015 0.14392 0.0
H2838 H 0.82341 0.52357 0.19662 0.0
H2839 H 0.84153 0.50917 0.17332 0.0
H2840 H 0.92239 0.59059 0.23055 0.0
H2841 H 0.93901 0.57739 0.20552 0.0
H2842 H 0.88731 0.60667 0.2379 0.0
H2843 H 0.85697 0.59578 0.24404 0.0
C2844 C 0.70614 0.59431 0.43294 0.0
C2845 C 0.68686 0.59656 0.45128 0.0
C2846 C 0.69266 0.64235 0.45089 0.0
C2847 C 0.70604 0.64012 0.42799 0.0
N2848 N 0.72897 0.61447 0.39881 0.0
N2849 N 0.66284 0.62294 0.47944 0.0
C2850 C 0.71444 0.61618 0.41993 0.0
C2851 C 0.68098 0.6206 0.46139 0.0
N2852 N 0.71596 0.57115 0.42774 0.0
N2853 N 0.69073 0.66531 0.46217 0.0
H2854 H 0.6543 0.60754 0.48803 0.0
H2855 H 0.65544 0.6402 0.4851 0.0
H2856 H 0.69959 0.68113 0.45475 0.0
H2857 H 0.68277 0.66807 0.47986 0.0
H2858 H 0.73114 0.5682 0.41571 0.0
H2859 H 0.71029 0.55511 0.43751 0.0
H2860 H 0.73331 0.59756 0.38989 0.0
H2861 H 0.73604 0.63045 0.38981 0.0
C2862 C 0.54514 0.81154 0.64686 0.0
C2863 C 0.56549 0.79434 0.64682 0.0
C2864 C 0.5621 0.7927 0.60085 0.0
C2865 C 0.54864 0.81573 0.6011 0.0
N2866 N 0.52445 0.84573 0.62472 0.0
N2867 N 0.59175 0.76605 0.62327 0.0
C2868 C 0.53883 0.82448 0.62426 0.0
C2869 C 0.57315 0.78373 0.62362 0.0
N2870 N 0.5317 0.81499 0.66837 0.0
N2871 N 0.5639 0.7794 0.57904 0.0
H2872 H 0.59935 0.75869 0.63982 0.0
H2873 H 0.60007 0.75961 0.60671 0.0
H2874 H 0.55386 0.78487 0.56308 0.0
H2875 H 0.57243 0.76178 0.57786 0.0
H2876 H 0.5159 0.82656 0.66945 0.0
H2877 H 0.53439 0.80317 0.68379 0.0
H2878 H 0.51908 0.85469 0.64132 0.0
H2879 H 0.51878 0.85473 0.6082 0.0
C2880 C 0.93343 0.14307 0.30354 0.0
C2881 C 0.92246 0.12758 0.28467 0.0
C2882 C 0.94681 0.09182 0.30014 0.0
C2883 C 0.96133 0.1085 0.31522 0.0
N2884 N 0.96931 0.15034 0.33081 0.0
N2885 N 0.91834 0.08709 0.26478 0.0
C2886 C 0.95471 0.13421 0.31704 0.0
C2887 C 0.92887 0.1018 0.28308 0.0
N2888 N 0.92329 0.16607 0.30874 0.0
N2889 N 0.94988 0.06644 0.30257 0.0
H2890 H 0.90403 0.09356 0.25298 0.0
H2891 H 0.92458 0.06898 0.26056 0.0
H2892 H 0.96234 0.05875 0.31555 0.0
H2893 H 0.93849 0.05318 0.29368 0.0
H2894 H 0.92921 0.17741 0.3236 0.0
H2895 H 0.90694 0.17243 0.3001 0.0
H2896 H 0.96717 0.16983 0.33037 0.0
H2897 H 0.98476 0.14435 0.34133 0.0
C2898 C 0.1108 0.70646 0.58316 0.0
C2899 C 0.13689 0.71123 0.58565 0.0
C2900 C 0.14597 0.68015 0.55262 0.0
C2901 C 0.11989 0.67536 0.55014 0.0
N2902 N 0.07853 0.67775 0.56874 0.0
N2903 N 0.17932 0.69631 0.57896 0.0
C2904 C 0.1026 0.68655 0.56725 0.0
C2905 C 0.15452 0.69607 0.57234 0.0
N2906 N 0.09385 0.7212 0.59568 0.0
N2907 N 0.16253 0.66994 0.5358 0.0
H2908 H 0.18595 0.70641 0.59431 0.0
H2909 H 0.19268 0.68419 0.57128 0.0
H2910 H 0.15706 0.65704 0.52202 0.0
H2911 H 0.18134 0.67538 0.53463 0.0
H2912 H 0.07455 0.72075 0.59218 0.0
H2913 H 0.09926 0.73493 0.60866 0.0
H2914 H 0.06554 0.68387 0.58207 0.0
H2915 H 0.07258 0.66204 0.55875 0.0
C2916 C 0.54475 0.85519 0.81771 0.0
C2917 C 0.54 0.88135 0.81785 0.0
C2918 C 0.56742 0.88707 0.78117 0.0
C2919 C 0.57235 0.86091 0.78116 0.0
N2920 N 0.57218 0.82165 0.80398 0.0
N2921 N 0.55223 0.92302 0.80473 0.0
C2922 C 0.56308 0.84545 0.80093 0.0
C2923 C 0.5531 0.89759 0.80113 0.0
N2924 N 0.53112 0.83955 0.8329 0.0
N2925 N 0.57588 0.90171 0.76182 0.0
H2926 H 0.54245 0.93112 0.81966 0.0
H2927 H 0.56299 0.93582 0.79452 0.0
H2928 H 0.5875 0.89475 0.7476 0.0
H2929 H 0.5703 0.92031 0.75916 0.0
H2930 H 0.53156 0.82 0.83136 0.0
H2931 H 0.51796 0.84615 0.84589 0.0
H2932 H 0.56761 0.81017 0.81917 0.0
H2933 H 0.58667 0.81458 0.79295 0.0
C2934 C 0.38393 0.3246 0.05764 0.0
C2935 C 0.36799 0.33439 0.03859 0.0
C2936 C 0.33318 0.30929 0.05499 0.0
C2937 C 0.35056 0.2955 0.0699 0.0
N2938 N 0.39256 0.28992 0.086 0.0
N2939 N 0.32717 0.33703 0.01924 0.0
C2940 C 0.37594 0.30336 0.07172 0.0
C2941 C 0.34236 0.32731 0.03754 0.0
N2942 N 0.40663 0.33574 0.06218 0.0
N2943 N 0.30796 0.30521 0.05775 0.0
H2944 H 0.33325 0.35112 0.00698 0.0
H2945 H 0.30908 0.33042 0.01555 0.0
H2946 H 0.30085 0.2925 0.07085 0.0
H2947 H 0.29419 0.31599 0.04891 0.0
H2948 H 0.41853 0.3306 0.07687 0.0
H2949 H 0.41209 0.35214 0.05296 0.0
H2950 H 0.41194 0.29293 0.08572 0.0
H2951 H 0.38708 0.2747 0.09711 0.0
C2952 C 0.93312 0.89427 0.21074 0.0
C2953 C 0.93498 0.86963 0.22057 0.0
C2954 C 0.97041 0.86058 0.19216 0.0
C2955 C 0.96782 0.88488 0.18153 0.0
N2956 N 0.94324 0.92285 0.17685 0.0
N2957 N 0.95223 0.82772 0.21786 0.0
C2958 C 0.94806 0.9011 0.18962 0.0
C2959 C 0.95274 0.85231 0.21044 0.0
N2960 N 0.91761 0.91139 0.2221 0.0
N2961 N 0.99011 0.84559 0.1851 0.0
H2962 H 0.94003 0.82123 0.23167 0.0
H2963 H 0.96257 0.81348 0.20925 0.0
H2964 H 0.00234 0.85029 0.17048 0.0
H2965 H 0.99512 0.82914 0.19448 0.0
H2966 H 0.91759 0.93051 0.2178 0.0
H2967 H 0.90616 0.90684 0.23738 0.0
H2968 H 0.92769 0.93427 0.18031 0.0
H2969 H 0.9533 0.92826 0.16101 0.0
C2970 C 0.33454 0.67863 0.47057 0.0
C2971 C 0.36028 0.67367 0.46571 0.0
C2972 C 0.35975 0.70322 0.43032 0.0
C2973 C 0.33396 0.70826 0.4351 0.0
N2974 N 0.29516 0.69607 0.45527 0.0
N2975 N 0.39503 0.67506 0.43664 0.0
C2976 C 0.3208 0.69439 0.45381 0.0
C2977 C 0.37203 0.68384 0.44403 0.0
N2978 N 0.32355 0.66898 0.49169 0.0
N2979 N 0.37298 0.71795 0.4139 0.0
H2980 H 0.40416 0.66044 0.44593 0.0
H2981 H 0.40364 0.68021 0.41982 0.0
H2982 H 0.36489 0.73265 0.40377 0.0
H2983 H 0.39247 0.71702 0.41192 0.0
H2984 H 0.30579 0.67431 0.49805 0.0
H2985 H 0.33284 0.65636 0.50352 0.0
H2986 H 0.28425 0.68482 0.46702 0.0
H2987 H 0.28455 0.70715 0.44302 0.0
C2988 C 0.54939 0.09284 0.70222 0.0
C2989 C 0.53419 0.10912 0.68744 0.0
C2990 C 0.55673 0.14545 0.70425 0.0
C2991 C 0.56885 0.12949 0.72197 0.0
N2992 N 0.57581 0.08813 0.73911 0.0
N2993 N 0.52203 0.15097 0.67512 0.0
C2994 C 0.56504 0.10316 0.72125 0.0
C2995 C 0.53756 0.13548 0.68855 0.0
N2996 N 0.54924 0.06755 0.69765 0.0
N2997 N 0.56399 0.16999 0.70206 0.0
H2998 H 0.50841 0.14419 0.66268 0.0
H2999 H 0.52153 0.17043 0.6775 0.0
H3000 H 0.57865 0.1775 0.71261 0.0
H3001 H 0.55745 0.18205 0.68809 0.0
H3002 H 0.56152 0.0549 0.70621 0.0
H3003 H 0.53836 0.05956 0.68347 0.0
H3004 H 0.57123 0.06921 0.74143 0.0
H3005 H 0.58821 0.09501 0.75272 0.0
C3006 C 0.11418 0.30866 0.93405 0.0
C3007 C 0.13744 0.29579 0.93504 0.0
C3008 C 0.14996 0.32051 0.97197 0.0
C3009 C 0.12637 0.33282 0.97145 0.0
N3010 N 0.09148 0.34632 0.9457 0.0
N3011 N 0.18074 0.29656 0.94855 0.0
C3012 C 0.11018 0.32941 0.95044 0.0
C3013 C 0.15643 0.30396 0.95203 0.0
N3014 N 0.09564 0.30064 0.91814 0.0
N3015 N 0.16583 0.32413 0.99185 0.0
H3016 H 0.18608 0.2855 0.93328 0.0
H3017 H 0.19573 0.30356 0.95907 0.0
H3018 H 0.16214 0.33736 0.00592 0.0
H3019 H 0.18192 0.31331 0.99484 0.0
H3020 H 0.07732 0.30764 0.91871 0.0
H3021 H 0.09809 0.28566 0.90566 0.0
H3022 H 0.08021 0.34564 0.92967 0.0
H3023 H 0.0894 0.36279 0.9561 0.0
C3024 C 0.29978 0.92208 0.1337 0.0
C3025 C 0.27929 0.91612 0.11756 0.0
C3026 C 0.29468 0.94733 0.08756 0.0
C3027 C 0.31118 0.9571 0.1063 0.0
N3028 N 0.32782 0.95482 0.14845 0.0
N3029 N 0.25757 0.92237 0.07838 0.0
C3030 C 0.31342 0.94467 0.1297 0.0
C3031 C 0.277 0.92843 0.09411 0.0
N3032 N 0.30679 0.9059 0.15231 0.0
N3033 N 0.29654 0.95549 0.06333 0.0
H3034 H 0.24545 0.90731 0.08198 0.0
H3035 H 0.25292 0.93285 0.0625 0.0
H3036 H 0.3099 0.96867 0.0579 0.0
H3037 H 0.28667 0.94751 0.04839 0.0
H3038 H 0.3227 0.90866 0.16346 0.0
H3039 H 0.2989 0.88811 0.15429 0.0
H3040 H 0.32788 0.94785 0.16677 0.0
H3041 H 0.33788 0.97155 0.14631 0.0
C3042 C 0.28659 0.06505 0.39315 0.0
C3043 C 0.28871 0.07309 0.36791 0.0
C3044 C 0.32456 0.0448 0.36132 0.0
C3045 C 0.32213 0.03637 0.38641 0.0
N3046 N 0.30664 0.04431 0.42827 0.0
N3047 N 0.31547 0.07784 0.33148 0.0
C3048 C 0.30494 0.0484 0.40302 0.0
C3049 C 0.30961 0.06534 0.35309 0.0
N3050 N 0.26666 0.07281 0.40742 0.0
N3051 N 0.3403 0.03258 0.34507 0.0
H3052 H 0.30624 0.09418 0.32598 0.0
H3053 H 0.33152 0.07406 0.32087 0.0
H3054 H 0.35177 0.01762 0.35056 0.0
H3055 H 0.34056 0.03603 0.32579 0.0
H3056 H 0.26224 0.06508 0.42486 0.0
H3057 H 0.25385 0.08634 0.40116 0.0
H3058 H 0.29606 0.05401 0.44162 0.0
H3059 H 0.32063 0.033 0.4359 0.0
C3060 C 0.17599 0.05352 0.6451 0.0
C3061 C 0.17789 0.04855 0.619 0.0
C3062 C 0.21224 0.07929 0.61516 0.0
C3063 C 0.21109 0.0834 0.6414 0.0
N3064 N 0.18798 0.08034 0.68016 0.0
N3065 N 0.19221 0.06183 0.57811 0.0
C3066 C 0.19147 0.07254 0.65593 0.0
C3067 C 0.19421 0.06319 0.60366 0.0
N3068 N 0.16029 0.03928 0.65966 0.0
N3069 N 0.23132 0.08982 0.60152 0.0
H3070 H 0.17873 0.05068 0.56932 0.0
H3071 H 0.20204 0.07346 0.56579 0.0
H3072 H 0.24403 0.10264 0.60932 0.0
H3073 H 0.23525 0.08507 0.58293 0.0
H3074 H 0.16011 0.03992 0.67923 0.0
H3075 H 0.14825 0.02568 0.65216 0.0
H3076 H 0.17291 0.07473 0.69134 0.0
H3077 H 0.19901 0.09441 0.68828 0.0
C3078 C 0.17597 0.93632 0.90345 0.0
C3079 C 0.16815 0.9538 0.88478 0.0
C3080 C 0.19085 0.92907 0.85343 0.0
C3081 C 0.20399 0.91647 0.87294 0.0
N3082 N 0.20872 0.90755 0.91702 0.0
N3083 N 0.16726 0.96618 0.84127 0.0
C3084 C 0.19627 0.91971 0.89815 0.0
C3085 C 0.17513 0.94983 0.85943 0.0
N3086 N 0.16359 0.93512 0.92585 0.0
N3087 N 0.19293 0.92066 0.82933 0.0
H3088 H 0.15462 0.98075 0.84501 0.0
H3089 H 0.17419 0.9659 0.82293 0.0
H3090 H 0.20217 0.90387 0.82532 0.0
H3091 H 0.18277 0.92813 0.81433 0.0
H3092 H 0.16761 0.92178 0.93963 0.0
H3093 H 0.14707 0.94514 0.92905 0.0
H3094 H 0.20577 0.91148 0.93601 0.0
H3095 H 0.22296 0.89448 0.91352 0.0
C3096 C 0.60571 0.20893 0.0897 0.0
C3097 C 0.63229 0.20986 0.09139 0.0
C3098 C 0.63586 0.17486 0.06136 0.0
C3099 C 0.60942 0.17535 0.05812 0.0
N3100 N 0.56871 0.18676 0.07429 0.0
N3101 N 0.67192 0.18867 0.08579 0.0
C3102 C 0.59418 0.19029 0.07423 0.0
C3103 C 0.64708 0.19093 0.07965 0.0
N3104 N 0.59171 0.22672 0.10189 0.0
N3105 N 0.65028 0.1602 0.04592 0.0
H3106 H 0.68027 0.19988 0.09953 0.0
H3107 H 0.68346 0.1742 0.07936 0.0
H3108 H 0.64249 0.14765 0.03296 0.0
H3109 H 0.66983 0.16128 0.04508 0.0
H3110 H 0.57245 0.22915 0.09921 0.0
H3111 H 0.5998 0.23973 0.11422 0.0
H3112 H 0.55651 0.19573 0.08671 0.0
H3113 H 0.56005 0.17297 0.06328 0.0
C3114 C 0.07379 0.39781 0.26882 0.0
C3115 C 0.08105 0.37263 0.27341 0.0
C3116 C 0.05094 0.3698 0.30812 0.0
C3117 C 0.04332 0.39485 0.30335 0.0
N3118 N 0.05358 0.43519 0.28523 0.0
N3119 N 0.0845 0.33948 0.3043 0.0
C3120 C 0.05672 0.40971 0.28558 0.0
C3121 C 0.07223 0.36012 0.29531 0.0
N3122 N 0.08275 0.41008 0.24812 0.0
N3123 N 0.03733 0.35485 0.32399 0.0
H3124 H 0.10165 0.33351 0.29703 0.0
H3125 H 0.07967 0.33064 0.32111 0.0
H3126 H 0.02143 0.36118 0.3336 0.0
H3127 H 0.04057 0.33559 0.32585 0.0
H3128 H 0.07579 0.42736 0.24201 0.0
H3129 H 0.09653 0.40227 0.23648 0.0
H3130 H 0.06429 0.44726 0.27411 0.0
H3131 H 0.04198 0.4444 0.29804 0.0
C3132 C 0.8531 0.82391 0.54375 0.0
C3133 C 0.87935 0.82819 0.54283 0.0
C3134 C 0.88669 0.79365 0.57241 0.0
C3135 C 0.86053 0.78886 0.57269 0.0
N3136 N 0.81834 0.80393 0.56538 0.0
N3137 N 0.91969 0.82357 0.56317 0.0
C3138 C 0.84353 0.80553 0.56058 0.0
C3139 C 0.89572 0.81513 0.55944 0.0
N3140 N 0.83748 0.8367 0.52784 0.0
N3141 N 0.9029 0.77731 0.58388 0.0
H3142 H 0.92604 0.8404 0.55553 0.0
H3143 H 0.93201 0.81583 0.57628 0.0
H3144 H 0.89675 0.76192 0.59441 0.0
H3145 H 0.92237 0.77814 0.58168 0.0
H3146 H 0.81854 0.83221 0.5254 0.0
H3147 H 0.84388 0.85117 0.51621 0.0
H3148 H 0.8055 0.81756 0.55961 0.0
H3149 H 0.8107 0.79048 0.57741 0.0
C3150 C 0.04118 0.65803 0.19257 0.0
C3151 C 0.06648 0.65002 0.18958 0.0
C3152 C 0.05361 0.62731 0.15145 0.0
C3153 C 0.02879 0.63742 0.15396 0.0
N3154 N 0.00311 0.67042 0.17118 0.0
N3155 N 0.09785 0.63104 0.1629 0.0
C3156 C 0.02453 0.65631 0.17206 0.0
C3157 C 0.07315 0.63622 0.16773 0.0
N3158 N 0.03186 0.66378 0.21571 0.0
N3159 N 0.05835 0.60822 0.13492 0.0
H3160 H 0.11233 0.6364 0.17505 0.0
H3161 H 0.10396 0.62309 0.14604 0.0
H3162 H 0.04518 0.60161 0.12206 0.0
H3163 H 0.07516 0.59811 0.13485 0.0
H3164 H 0.01316 0.66901 0.21865 0.0
H3165 H 0.04103 0.65793 0.23195 0.0
H3166 H 0.99972 0.68513 0.18376 0.0
H3167 H 0.99029 0.66877 0.15635 0.0
C3168 C 0.43617 0.36775 0.68118 0.0
C3169 C 0.44616 0.39241 0.68253 0.0
C3170 C 0.41792 0.40253 0.71758 0.0
C3171 C 0.40893 0.3775 0.71704 0.0
N3172 N 0.40216 0.33972 0.69268 0.0
N3173 N 0.44102 0.4354 0.69619 0.0
C3174 C 0.41554 0.36127 0.69685 0.0
C3175 C 0.43516 0.41055 0.69887 0.0
N3176 N 0.4472 0.35016 0.66599 0.0
N3177 N 0.41071 0.41818 0.73666 0.0
H3178 H 0.45305 0.4417 0.68212 0.0
H3179 H 0.43224 0.44983 0.70613 0.0
H3180 H 0.3969 0.41307 0.74966 0.0
H3181 H 0.419 0.43562 0.74014 0.0
H3182 H 0.44265 0.33109 0.66652 0.0
H3183 H 0.46228 0.35429 0.65412 0.0
H3184 H 0.40488 0.3282 0.67706 0.0
H3185 H 0.38644 0.33483 0.70327 0.0
C3186 C 0.45573 0.59562 0.78498 0.0
C3187 C 0.46467 0.61422 0.80211 0.0
C3188 C 0.42897 0.64073 0.79125 0.0
C3189 C 0.42362 0.62484 0.77039 0.0
N3190 N 0.43208 0.58696 0.74702 0.0
N3191 N 0.46115 0.65595 0.81962 0.0
C3192 C 0.43702 0.60213 0.7672 0.0
C3193 C 0.45163 0.63721 0.80477 0.0
N3194 N 0.46421 0.57148 0.78651 0.0
N3195 N 0.41213 0.65856 0.79878 0.0
H3196 H 0.47796 0.65409 0.8296 0.0
H3197 H 0.45359 0.67405 0.82009 0.0
H3198 H 0.39431 0.66019 0.7909 0.0
H3199 H 0.41447 0.66932 0.81501 0.0
H3200 H 0.45666 0.55665 0.7761 0.0
H3201 H 0.47712 0.56593 0.80007 0.0
H3202 H 0.44342 0.57176 0.74202 0.0
H3203 H 0.41722 0.59043 0.73463 0.0
C3204 C 0.86079 0.19619 0.95351 0.0
C3205 C 0.88641 0.19468 0.96055 0.0
C3206 C 0.89712 0.22767 0.92999 0.0
C3207 C 0.87162 0.22875 0.92253 0.0
N3208 N 0.83105 0.20836 0.92132 0.0
N3209 N 0.92966 0.20303 0.94986 0.0
C3210 C 0.854 0.2112 0.93246 0.0
C3211 C 0.90481 0.20867 0.94707 0.0
N3212 N 0.84288 0.18396 0.9673 0.0
N3213 N 0.91392 0.24498 0.92107 0.0
H3214 H 0.93551 0.18832 0.96127 0.0
H3215 H 0.94392 0.21093 0.93898 0.0
H3216 H 0.90918 0.2583 0.90746 0.0
H3217 H 0.93207 0.24699 0.92824 0.0
H3218 H 0.82363 0.18677 0.96477 0.0
H3219 H 0.8473 0.17246 0.98257 0.0
H3220 H 0.81816 0.19453 0.9265 0.0
H3221 H 0.82627 0.21781 0.9049 0.0
C3222 C 0.64968 0.79178 0.48283 0.0
C3223 C 0.6285 0.80722 0.47775 0.0
C3224 C 0.61895 0.78249 0.4399 0.0
C3225 C 0.64043 0.76745 0.44439 0.0
N3226 N 0.67685 0.75735 0.46975 0.0
N3227 N 0.59747 0.82162 0.44764 0.0
C3228 C 0.65604 0.77199 0.46579 0.0
C3229 C 0.61451 0.80393 0.45514 0.0
N3230 N 0.66409 0.79688 0.50359 0.0
N3231 N 0.60198 0.77547 0.42184 0.0
H3232 H 0.59414 0.83817 0.45743 0.0
H3233 H 0.5887 0.82139 0.43011 0.0
H3234 H 0.6043 0.75951 0.41062 0.0
H3235 H 0.58437 0.78386 0.41975 0.0
H3236 H 0.67978 0.78668 0.5092 0.0
H3237 H 0.6607 0.81235 0.51523 0.0
H3238 H 0.68777 0.75757 0.48595 0.0
H3239 H 0.68368 0.7446 0.4566 0.0
C3240 C 0.82219 0.44315 0.63234 0.0
C3241 C 0.82307 0.45303 0.60772 0.0
C3242 C 0.78662 0.42721 0.59572 0.0
C3243 C 0.78549 0.41751 0.62046 0.0
N3244 N 0.80904 0.40835 0.65837 0.0
N3245 N 0.81161 0.44807 0.56409 0.0
C3246 C 0.80537 0.42299 0.63764 0.0
C3247 C 0.80703 0.44302 0.58879 0.0
N3248 N 0.83707 0.45319 0.65075 0.0
N3249 N 0.76784 0.42185 0.57898 0.0
H3250 H 0.8261 0.45983 0.55814 0.0
H3251 H 0.80284 0.43833 0.54954 0.0
H3252 H 0.75359 0.40888 0.58284 0.0
H3253 H 0.76583 0.43114 0.56185 0.0
H3254 H 0.83507 0.44866 0.66971 0.0
H3255 H 0.8502 0.46738 0.64721 0.0
H3256 H 0.82428 0.41058 0.67051 0.0
H3257 H 0.79898 0.39188 0.66155 0.0
C3258 C 0.82553 0.52591 0.8456 0.0
C3259 C 0.83714 0.528 0.86944 0.0
C3260 C 0.81039 0.56421 0.87969 0.0
C3261 C 0.79811 0.56159 0.85623 0.0
N3262 N 0.80018 0.546 0.8137 0.0
N3263 N 0.84841 0.5564 0.90324 0.0
C3264 C 0.80768 0.54431 0.83814 0.0
C3265 C 0.83212 0.54948 0.88465 0.0
N3266 N 0.83112 0.50592 0.83042 0.0
N3267 N 0.80081 0.57992 0.89765 0.0
H3268 H 0.86554 0.54741 0.90614 0.0
H3269 H 0.84645 0.57297 0.91357 0.0
H3270 H 0.78486 0.59099 0.89472 0.0
H3271 H 0.80751 0.58036 0.91607 0.0
H3272 H 0.82095 0.50148 0.81425 0.0
H3273 H 0.84546 0.49319 0.83473 0.0
H3274 H 0.80807 0.53551 0.79914 0.0
H3275 H 0.7877 0.55981 0.80779 0.0
C3276 C 0.69443 0.54869 0.13127 0.0
C3277 C 0.69802 0.53538 0.10846 0.0
C3278 C 0.73866 0.55684 0.10244 0.0
C3279 C 0.73491 0.57011 0.12516 0.0
N3280 N 0.70453 0.58622 0.15482 0.0
N3281 N 0.71992 0.53295 0.06876 0.0
C3282 C 0.71133 0.56842 0.13765 0.0
C3283 C 0.71908 0.54132 0.09295 0.0
N3284 N 0.67547 0.542 0.14728 0.0
N3285 N 0.76116 0.55877 0.09012 0.0
H3286 H 0.70614 0.52128 0.06134 0.0
H3287 H 0.73293 0.53939 0.05559 0.0
H3288 H 0.77514 0.57146 0.09561 0.0
H3289 H 0.76628 0.54709 0.07522 0.0
H3290 H 0.67372 0.54942 0.16535 0.0
H3291 H 0.66294 0.52737 0.14342 0.0
H3292 H 0.6868 0.58683 0.16319 0.0
H3293 H 0.71522 0.60231 0.15791 0.0
C3294 C 0.73796 0.46351 0.38952 0.0
C3295 C 0.73057 0.44107 0.37712 0.0
C3296 C 0.68797 0.44777 0.39404 0.0
C3297 C 0.69478 0.47247 0.40193 0.0
N3298 N 0.72503 0.50623 0.39642 0.0
N3299 N 0.69487 0.41682 0.36154 0.0
C3300 C 0.71937 0.48117 0.39607 0.0
C3301 C 0.70448 0.43444 0.37758 0.0
N3302 N 0.76251 0.46786 0.39572 0.0
N3303 N 0.66667 0.43643 0.40278 0.0
H3304 H 0.70534 0.40861 0.34717 0.0
H3305 H 0.67564 0.41298 0.36051 0.0
H3306 H 0.65501 0.44457 0.41626 0.0
H3307 H 0.66234 0.41771 0.39865 0.0
H3308 H 0.76804 0.4837 0.40596 0.0
H3309 H 0.77651 0.4543 0.39322 0.0
H3310 H 0.74269 0.51302 0.3911 0.0
H3311 H 0.71128 0.52001 0.39917 0.0
C3312 C 0.99484 0.96943 0.23892 0.0
C3313 C 0.99588 0.98885 0.22077 0.0
C3314 C 0.99744 0.02079 0.25368 0.0
C3315 C 0.99826 0.00132 0.27178 0.0
N3316 N 0.00038 0.95755 0.28264 0.0
N3317 N 0.00054 0.03238 0.20971 0.0
C3318 C 0.99759 0.97569 0.26468 0.0
C3319 C 0.99782 0.01441 0.22784 0.0
N3320 N 0.99097 0.94515 0.23133 0.0
N3321 N 0.99563 0.04525 0.2614 0.0
H3322 H 0.0003 0.02801 0.19061 0.0
H3323 H 0.00453 0.05119 0.21345 0.0
H3324 H 0.9956 0.05034 0.28033 0.0
H3325 H 0.99245 0.06032 0.24932 0.0
H3326 H 0.98768 0.93026 0.24359 0.0
H3327 H 0.98947 0.94013 0.21243 0.0
H3328 H 0.00233 0.93846 0.2787 0.0
H3329 H 0.00241 0.96191 0.30165 0.0
C3330 C 0.24267 0.78564 0.48945 0.0
C3331 C 0.2243 0.77753 0.47192 0.0
C3332 C 0.19943 0.7585 0.50546 0.0
C3333 C 0.21815 0.76617 0.52277 0.0
N3334 N 0.25942 0.7825 0.5316 0.0
N3335 N 0.18726 0.75388 0.46156 0.0
C3336 C 0.24036 0.77839 0.51483 0.0
C3337 C 0.20326 0.76312 0.47944 0.0
N3338 N 0.26182 0.80102 0.48188 0.0
N3339 N 0.17783 0.7476 0.51417 0.0
H3340 H 0.18977 0.75753 0.44243 0.0
H3341 H 0.17254 0.74154 0.46536 0.0
H3342 H 0.17485 0.74398 0.53323 0.0
H3343 H 0.1624 0.74329 0.50289 0.0
H3344 H 0.27414 0.81006 0.49416 0.0
H3345 H 0.26444 0.80619 0.46323 0.0
H3346 H 0.27727 0.78879 0.52654 0.0
H3347 H 0.258 0.77771 0.55051 0.0
C3348 C 0.49934 0.97826 0.73843 0.0
C3349 C 0.50137 0.00377 0.73131 0.0
C3350 C 0.50355 0.01682 0.77526 0.0
C3351 C 0.50341 0.99116 0.78221 0.0
N3352 N 0.5041 0.94722 0.7714 0.0
N3353 N 0.5068 0.04748 0.74155 0.0
C3354 C 0.50206 0.97176 0.76404 0.0
C3355 C 0.50381 0.02317 0.74938 0.0
N3356 N 0.49413 0.96047 0.72063 0.0
N3357 N 0.50286 0.03488 0.79354 0.0
H3358 H 0.50611 0.05255 0.72263 0.0
H3359 H 0.51115 0.0624 0.75348 0.0
H3360 H 0.50284 0.03041 0.81264 0.0
H3361 H 0.50082 0.05403 0.78999 0.0
H3362 H 0.4901 0.94173 0.72471 0.0
H3363 H 0.49184 0.96501 0.70173 0.0
H3364 H 0.50596 0.93218 0.75897 0.0
H3365 H 0.50569 0.94201 0.7902 0.0
C3366 C 0.21638 0.24383 0.98496 0.0
C3367 C 0.231 0.25872 0.96825 0.0
C3368 C 0.26225 0.26529 0.0011 0.0
C3369 C 0.24945 0.24798 0.01661 0.0
N3370 N 0.21463 0.21994 0.02372 0.0
N3371 N 0.25558 0.29689 0.96976 0.0
C3372 C 0.22656 0.23696 0.00865 0.0
C3373 C 0.25083 0.27329 0.97857 0.0
N3374 N 0.19166 0.2394 0.9796 0.0
N3375 N 0.28532 0.27415 0.00805 0.0
H3376 H 0.24276 0.3061 0.95811 0.0
H3377 H 0.26899 0.3088 0.97776 0.0
H3378 H 0.29443 0.26791 0.02429 0.0
H3379 H 0.29623 0.28553 0.99635 0.0
H3380 H 0.17923 0.23042 0.99178 0.0
H3381 H 0.18282 0.24799 0.9644 0.0
H3382 H 0.1993 0.20921 0.01786 0.0
H3383 H 0.22131 0.21512 0.04149 0.0
C3384 C 0.25483 0.00672 0.96378 0.0
C3385 C 0.23456 0.0051 0.98087 0.0
C3386 C 0.26344 0.00438 0.01655 0.0
C3387 C 0.28383 0.00386 -0.0006 0.0
N3388 N 0.30013 0.0054 0.95738 0.0
N3389 N 0.21829 0.00139 0.02281 0.0
C3390 C 0.27984 0.00537 0.97313 0.0
C3391 C 0.23851 0.00385 0.00712 0.0
N3392 N 0.24985 0.00969 0.93873 0.0
N3393 N 0.26809 0.00572 0.04179 0.0
H3394 H 0.19978 0.0021 0.01634 0.0
H3395 H 0.21964 0.9975 0.04193 0.0
H3396 H 0.2862 0.00576 0.04922 0.0
H3397 H 0.25427 0.00839 0.05539 0.0
H3398 H 0.26351 0.01242 0.925 0.0
H3399 H 0.23152 0.0105 0.93168 0.0
H3400 H 0.29903 0.00458 0.93788 0.0
H3401 H 0.31853 0.00584 0.96415 0.0
C3402 C 0.25556 0.01253 0.22564 0.0
C3403 C 0.25528 0.01482 0.25211 0.0
C3404 C 0.2565 0.96913 0.25659 0.0
C3405 C 0.25427 0.96684 0.23024 0.0
N3406 N 0.2475 0.9857 0.18965 0.0
N3407 N 0.25107 0.99596 0.29304 0.0
C3408 C 0.25266 0.98839 0.21468 0.0
C3409 C 0.25454 0.99327 0.26773 0.0
N3410 N 0.25938 0.0334 0.21118 0.0
N3411 N 0.26124 0.94824 0.27073 0.0
H3412 H 0.24892 0.0135 0.30163 0.0
H3413 H 0.24807 0.98085 0.30514 0.0
H3414 H 0.26351 0.9305 0.26264 0.0
H3415 H 0.26524 0.94886 0.2899 0.0
H3416 H 0.26203 0.03274 0.19178 0.0
H3417 H 0.26214 0.0512 0.219 0.0
H3418 H 0.24378 0.00082 0.17776 0.0
H3419 H 0.24482 0.96818 0.18119 0.0
C3420 C 0.23379 0.99636 0.48414 0.0
C3421 C 0.22844 0.99393 0.51007 0.0
C3422 C 0.27255 0.98451 0.51901 0.0
C3423 C 0.27831 0.98959 0.49357 0.0
N3424 N 0.26562 0.00015 0.45155 0.0
N3425 N 0.24182 0.98732 0.55271 0.0
C3426 C 0.25918 0.99525 0.47594 0.0
C3427 C 0.24756 0.98815 0.52767 0.0
N3428 N 0.21438 0.99945 0.46757 0.0
N3429 N 0.29113 0.97619 0.53467 0.0
H3430 H 0.22356 0.98993 0.55946 0.0
H3431 H 0.25517 0.98557 0.56693 0.0
H3432 H 0.30953 0.97343 0.52848 0.0
H3433 H 0.28808 0.97021 0.55304 0.0
H3434 H 0.21646 0.99945 0.44811 0.0
H3435 H 0.19568 0.00051 0.47343 0.0
H3436 H 0.25318 0.00702 0.43808 0.0
H3437 H 0.28399 0.9981 0.44493 0.0
C3438 C 0.28117 0.0048 0.75018 0.0
C3439 C 0.27119 0.02377 0.76598 0.0
C3440 C 0.26138 0.99309 0.79847 0.0
C3441 C 0.26801 0.97392 0.78131 0.0
N3442 N 0.28496 0.96012 0.7417 0.0
N3443 N 0.25304 0.03759 0.80486 0.0
C3444 C 0.27866 0.97938 0.75757 0.0
C3445 C 0.26205 0.01839 0.7903 0.0
N3446 N 0.29227 0.01122 0.72789 0.0
N3447 N 0.25449 0.98679 0.82241 0.0
H3448 H 0.25436 0.0564 0.79931 0.0
H3449 H 0.24378 0.03505 0.8219 0.0
H3450 H 0.25397 0.96815 0.82858 0.0
H3451 H 0.25085 -0.00019 0.83657 0.0
H3452 H 0.30185 0.99865 0.71636 0.0
H3453 H 0.2933 0.02968 0.72141 0.0
H3454 H 0.29031 0.96247 0.72304 0.0
H3455 H 0.28393 0.9413 0.74697 0.0
C3456 C 0.99375 0.26998 0.9921 0.0
C3457 C 0.01959 0.27301 0.99765 0.0
C3458 C 0.02493 0.22759 0.00196 0.0
C3459 C 0.99882 0.22468 0.99779 0.0
N3460 N 0.95753 0.24208 0.99173 0.0
N3461 N 0.05961 0.25626 0.01027 0.0
C3462 C 0.98294 0.24564 0.99359 0.0
C3463 C 0.03521 0.2522 0.00321 0.0
N3464 N 0.97985 0.29047 0.98517 0.0
N3465 N 0.03972 0.2067 0.00429 0.0
H3466 H 0.0676 0.27421 0.0108 0.0
H3467 H 0.07156 0.24223 0.01688 0.0
H3468 H 0.03233 0.18849 0.00399 0.0
H3469 H 0.05929 0.2072 0.00515 0.0
H3470 H 0.96138 0.28949 0.97873 0.0
H3471 H 0.98745 0.30858 0.98441 0.0
H3472 H 0.94446 0.25661 0.99057 0.0
H3473 H 0.94928 0.22431 0.99302 0.0
C3474 C 0.51529 0.25662 0.98148 0.0
C3475 C 0.49771 0.23685 0.98395 0.0
C3476 C 0.46377 0.26672 0.99118 0.0
C3477 C 0.48202 0.28604 0.99283 0.0
N3478 N 0.52465 0.30069 0.98914 0.0
N3479 N 0.45572 0.22177 0.9904 0.0
C3480 C 0.50766 0.28145 0.98739 0.0
C3481 C 0.47193 0.24159 0.98806 0.0
N3482 N 0.53937 0.25119 0.9743 0.0
N3483 N 0.43877 0.27261 0.99231 0.0
H3484 H 0.46143 0.20322 0.98722 0.0
H3485 H 0.43713 0.2235 0.99632 0.0
H3486 H 0.43238 0.29099 0.99476 0.0
H3487 H 0.42438 0.2597 0.98904 0.0
H3488 H 0.55301 0.26473 0.97051 0.0
H3489 H 0.54521 0.23287 0.97033 0.0
H3490 H 0.54403 0.29844 0.98746 0.0
H3491 H 0.51936 0.31904 0.99364 0.0
C3492 C 0.97377 0.26626 0.25885 0.0
C3493 C 0.96919 0.24013 0.25908 0.0
C3494 C 0.01411 0.23179 0.26426 0.0
C3495 C 0.01885 0.25777 0.26115 0.0
N3496 N 0.00389 0.29935 0.25066 0.0
N3497 N 0.98437 0.19746 0.25924 0.0
C3498 C 0.99886 0.27501 0.25726 0.0
C3499 C 0.98921 0.22265 0.26116 0.0
N3500 N 0.95403 0.28257 0.26071 0.0
N3501 N 0.0335 0.21609 0.27044 0.0
H3502 H 0.96624 0.19032 0.25671 0.0
H3503 H 0.99836 0.18378 0.25829 0.0
H3504 H 0.05189 0.2226 0.27281 0.0
H3505 H 0.03109 0.19722 0.27512 0.0
H3506 H 0.95621 0.30195 0.26286 0.0
H3507 H 0.93553 0.27628 0.26261 0.0
H3508 H 0.99001 0.31205 0.24518 0.0
H3509 H 0.02212 0.30624 0.24835 0.0
C3510 C 0.02848 0.7491 0.49471 0.0
C3511 C 0.01344 0.72721 0.49564 0.0
C3512 C 0.97505 0.75232 0.49324 0.0
C3513 C 0.99002 0.77423 0.49485 0.0
N3514 N 0.03026 0.79469 0.49776 0.0
N3515 N 0.97311 0.70674 0.49617 0.0
C3516 C 0.01662 0.77299 0.49548 0.0
C3517 C 0.98684 0.72844 0.49475 0.0
N3518 N 0.05404 0.74675 0.49301 0.0
N3519 N 0.94961 0.75466 0.49019 0.0
H3520 H 0.98148 0.68899 0.4965 0.0
H3521 H 0.95363 0.70615 0.49801 0.0
H3522 H 0.94071 0.77216 0.48933 0.0
H3523 H 0.93748 0.73961 0.48701 0.0
H3524 H 0.06629 0.76179 0.49028 0.0
H3525 H 0.06298 0.72925 0.49278 0.0
H3526 H 0.04961 0.79524 0.50072 0.0
H3527 H 0.02189 0.81245 0.49777 0.0
C3528 C 0.4919 0.77469 0.48617 0.0
C3529 C 0.51848 0.77442 0.48648 0.0
C3530 C 0.51887 0.72856 0.48882 0.0
C3531 C 0.49221 0.72889 0.48987 0.0
N3532 N 0.45328 0.75163 0.49389 0.0
N3533 N 0.55785 0.75263 0.48958 0.0
C3534 C 0.47865 0.75182 0.48955 0.0
C3535 C 0.53217 0.75171 0.48803 0.0
N3536 N 0.47952 0.79698 0.48272 0.0
N3537 N 0.53126 0.70608 0.48842 0.0
H3538 H 0.56788 0.76948 0.48821 0.0
H3539 H 0.56921 0.73711 0.49316 0.0
H3540 H 0.52198 0.68901 0.49073 0.0
H3541 H 0.55046 0.70414 0.48506 0.0
H3542 H 0.46017 0.79839 0.47998 0.0
H3543 H 0.48896 0.8141 0.48079 0.0
H3544 H 0.44247 0.7678 0.49617 0.0
H3545 H 0.44325 0.73512 0.49741 0.0
C3546 C 0.0067 0.74252 0.30495 0.0
C3547 C 0.0266 0.75046 0.28943 0.0
C3548 C 0.00153 0.78556 0.27421 0.0
C3549 C 0.98018 0.77366 0.28442 0.0
N3550 N 0.96157 0.74206 0.31116 0.0
N3551 N 0.04523 0.78089 0.262 0.0
C3552 C 0.98254 0.75299 0.30107 0.0
C3553 C 0.02493 0.773 0.27551 0.0
N3554 N 0.01089 0.72379 0.32198 0.0
N3555 N 0.99885 0.80823 0.26246 0.0
H3556 H 0.0625 0.77177 0.26341 0.0
H3557 H 0.04488 0.79575 0.24927 0.0
H3558 H 0.98147 0.81739 0.26163 0.0
H3559 H 0.01382 0.81873 0.25545 0.0
H3560 H 0.99765 0.71792 0.33516 0.0
H3561 H 0.02866 0.71569 0.32418 0.0
H3562 H 0.96185 0.72534 0.32132 0.0
H3563 H 0.94349 0.74911 0.30839 0.0
C3564 C 0.52341 0.26754 0.76127 0.0
C3565 C 0.52609 0.24122 0.7584 0.0
C3566 C 0.48082 0.23653 0.7518 0.0
C3567 C 0.47815 0.26273 0.75561 0.0
N3568 N 0.49526 0.30278 0.76799 0.0
N3569 N 0.50834 0.19996 0.75361 0.0
C3570 C 0.49901 0.27815 0.76155 0.0
C3571 C 0.50499 0.22545 0.75451 0.0
N3572 N 0.54436 0.28234 0.76264 0.0
N3573 N 0.46026 0.22263 0.74501 0.0
H3574 H 0.52606 0.19166 0.75546 0.0
H3575 H 0.4937 0.187 0.75258 0.0
H3576 H 0.44238 0.23057 0.74308 0.0
H3577 H 0.46098 0.20371 0.73998 0.0
H3578 H 0.54398 0.30193 0.762 0.0
H3579 H 0.56243 0.2748 0.76267 0.0
H3580 H 0.50937 0.31445 0.77499 0.0
H3581 H 0.47749 0.31113 0.76809 0.0
C3582 C 0.50182 0.47845 0.73818 0.0
C3583 C 0.50349 0.49686 0.71907 0.0
C3584 C 0.51037 0.5299 0.7502 0.0
C3585 C 0.5083 0.51149 0.76943 0.0
N3586 N 0.50818 0.46822 0.7822 0.0
N3587 N 0.51368 0.53861 0.70546 0.0
C3588 C 0.50597 0.48567 0.76348 0.0
C3589 C 0.50923 0.52218 0.72469 0.0
N3590 N 0.49544 0.4543 0.73203 0.0
N3591 N 0.51223 0.55477 0.7564 0.0
H3592 H 0.51237 0.53326 0.68661 0.0
H3593 H 0.52027 0.55689 0.70799 0.0
H3594 H 0.51424 0.56094 0.77483 0.0
H3595 H 0.51066 0.5694 0.74351 0.0
H3596 H 0.49131 0.44041 0.74519 0.0
H3597 H 0.49278 0.4485 0.71348 0.0
H3598 H 0.50866 0.44888 0.77908 0.0
H3599 H 0.51178 0.47331 0.80083 0.0
C3600 C 0.73589 0.2702 0.99517 0.0
C3601 C 0.75142 0.26267 0.01543 0.0
C3602 C 0.78622 0.25408 0.98672 0.0
C3603 C 0.77078 0.26219 0.96661 0.0
N3604 N 0.73311 0.28234 0.95151 0.0
N3605 N 0.79136 0.24985 0.03203 0.0
C3606 C 0.74629 0.27171 0.97082 0.0
C3607 C 0.77673 0.25544 0.01165 0.0
N3608 N 0.71085 0.27467 0.99913 0.0
N3609 N 0.80969 0.24486 0.98165 0.0
H3610 H 0.78437 0.25051 0.05037 0.0
H3611 H 0.8105 0.24585 0.03107 0.0
H3612 H 0.81719 0.24469 0.96351 0.0
H3613 H 0.82141 0.23665 0.995 0.0
H3614 H 0.69784 0.27729 0.98473 0.0
H3615 H 0.70254 0.27391 0.01685 0.0
H3616 H 0.71633 0.29218 0.9539 0.0
H3617 H 0.73992 0.28314 0.93321 0.0
C3618 C 0.01225 0.4913 0.24482 0.0
C3619 C 0.00806 0.50828 0.2649 0.0
C3620 C 0.00547 0.54354 0.23563 0.0
C3621 C 0.01095 0.52674 0.21572 0.0
N3622 N 0.02253 0.48581 0.20062 0.0
N3623 N 0.00352 0.55037 0.28072 0.0
C3624 C 0.01534 0.5009 0.22015 0.0
C3625 C 0.00554 0.53442 0.26067 0.0
N3626 N 0.01235 0.46601 0.24944 0.0
N3627 N 0.99927 0.56793 0.23033 0.0
H3628 H 0.00279 0.54388 0.29919 0.0
H3629 H 0.00408 0.56989 0.27925 0.0
H3630 H 0.99956 0.57515 0.21209 0.0
H3631 H 0.99246 0.5806 0.24362 0.0
H3632 H 0.01337 0.4523 0.23548 0.0
H3633 H 0.00957 0.45864 0.26739 0.0
H3634 H 0.0281 0.46715 0.2027 0.0
H3635 H 0.02461 0.49264 0.18233 0.0
C3636 C 0.78205 0.73757 0.49761 0.0
C3637 C 0.77226 0.75526 0.5149 0.0
C3638 C 0.74615 0.77385 0.48246 0.0
C3639 C 0.75167 0.75318 0.46645 0.0
N3640 N 0.77921 0.71835 0.45632 0.0
N3641 N 0.76379 0.79973 0.515 0.0
C3642 C 0.7711 0.73592 0.47322 0.0
C3643 C 0.75976 0.77648 0.50499 0.0
N3644 N 0.80372 0.7251 0.50346 0.0
N3645 N 0.72736 0.79047 0.47695 0.0
H3646 H 0.7778 0.80267 0.52842 0.0
H3647 H 0.75647 0.81615 0.50711 0.0
H3648 H 0.71571 0.78883 0.46131 0.0
H3649 H 0.7218 0.80451 0.48951 0.0
H3650 H 0.81304 0.71284 0.49138 0.0
H3651 H 0.81407 0.72969 0.51952 0.0
H3652 H 0.7907 0.70321 0.46105 0.0
H3653 H 0.77424 0.7188 0.4374 0.0
C3654 C 0.75407 0.47644 0.51575 0.0
C3655 C 0.77027 0.49129 0.53075 0.0
C3656 C 0.73371 0.51396 0.54739 0.0
C3657 C 0.71889 0.50308 0.52827 0.0
N3658 N 0.71546 0.47511 0.4924 0.0
N3659 N 0.77193 0.51036 0.57161 0.0
C3660 C 0.72919 0.48464 0.5119 0.0
C3661 C 0.75919 0.50645 0.54977 0.0
N3662 N 0.76086 0.45273 0.50868 0.0
N3663 N 0.72343 0.53154 0.56304 0.0
H3664 H 0.78852 0.50061 0.57512 0.0
H3665 H 0.76448 0.51966 0.58717 0.0
H3666 H 0.70449 0.53669 0.56202 0.0
H3667 H 0.73402 0.54207 0.57577 0.0
H3668 H 0.74877 0.44049 0.4992 0.0
H3669 H 0.77646 0.4438 0.51642 0.0
H3670 H 0.72331 0.46353 0.47863 0.0
H3671 H 0.69704 0.48051 0.48862 0.0
C3672 C 0.7407 0.52401 0.72429 0.0
C3673 C 0.74782 0.52576 0.74985 0.0
C3674 C 0.75394 0.48039 0.75229 0.0
C3675 C 0.74596 0.4785 0.72701 0.0
N3676 N 0.72927 0.49687 0.68929 0.0
N3677 N 0.75714 0.50652 0.78961 0.0
C3678 C 0.73853 0.4999 0.71309 0.0
C3679 C 0.7532 0.50414 0.76433 0.0
N3680 N 0.73658 0.54553 0.71084 0.0
N3681 N 0.76285 0.45951 0.76431 0.0
H3682 H 0.75633 0.52387 0.79877 0.0
H3683 H 0.75927 0.49135 0.80178 0.0
H3684 H 0.76351 0.4419 0.75565 0.0
H3685 H 0.77112 0.45986 0.78206 0.0
H3686 H 0.73358 0.54593 0.69151 0.0
H3687 H 0.7373 0.56339 0.719 0.0
H3688 H 0.72141 0.51133 0.6787 0.0
H3689 H 0.72821 0.47932 0.68051 0.0
C3690 C 0.75238 0.50109 0.95723 0.0
C3691 C 0.77368 0.50353 0.97302 0.0
C3692 C 0.74748 0.49872 0.01021 0.0
C3693 C 0.72594 0.49962 0.99473 0.0
N3694 N 0.7068 0.5021 0.95391 0.0
N3695 N 0.79184 0.50832 0.01416 0.0
C3696 C 0.72807 0.50088 0.96826 0.0
C3697 C 0.77131 0.50341 -0.00053 0.0
N3698 N 0.75562 0.49809 0.93192 0.0
N3699 N 0.74505 0.49254 0.03499 0.0
H3700 H 0.80953 0.51223 0.00657 0.0
H3701 H 0.79083 0.51078 0.03357 0.0
H3702 H 0.72773 0.48764 0.04281 0.0
H3703 H 0.7603 0.48975 0.04698 0.0
H3704 H 0.74103 0.49379 0.91955 0.0
H3705 H 0.77335 0.49829 0.92348 0.0
H3706 H 0.70688 0.50564 0.93466 0.0
H3707 H 0.68885 0.50049 0.96169 0.0
C3708 C 0.73411 0.47781 0.2296 0.0
C3709 C 0.73461 0.47637 0.25617 0.0
C3710 C 0.73137 0.52207 0.25924 0.0
C3711 C 0.73476 0.52362 0.23298 0.0
N3712 N 0.73985 0.50402 0.19261 0.0
N3713 N 0.73622 0.49667 0.29668 0.0
C3714 C 0.73592 0.50174 0.21789 0.0
C3715 C 0.73351 0.49838 0.27118 0.0
N3716 N 0.73188 0.4562 0.21585 0.0
N3717 N 0.72627 0.54344 0.27256 0.0
H3718 H 0.73846 0.47957 0.306 0.0
H3719 H 0.73821 0.51225 0.30842 0.0
H3720 H 0.72451 0.56095 0.26386 0.0
H3721 H 0.72151 0.54348 0.29156 0.0
H3722 H 0.7295 0.45588 0.19642 0.0
H3723 H 0.73046 0.43852 0.22429 0.0
H3724 H 0.74346 0.48885 0.18074 0.0
H3725 H 0.74069 0.52149 0.18367 0.0
C3726 C 0.48904 0.71629 0.74695 0.0
C3727 C 0.46921 0.73228 0.75457 0.0
C3728 C 0.49855 0.76707 0.76125 0.0
C3729 C 0.51852 0.75086 0.75437 0.0
N3730 N 0.53406 0.70978 0.74347 0.0
N3731 N 0.4543 0.77125 0.77193 0.0
C3732 C 0.51411 0.72535 0.74795 0.0
C3733 C 0.47377 0.75722 0.76271 0.0
N3734 N 0.48362 0.69258 0.73851 0.0
N3735 N 0.50336 0.79203 0.76532 0.0
H3736 H 0.43592 0.76443 0.77266 0.0
H3737 H 0.45647 0.78884 0.78027 0.0
H3738 H 0.52142 0.79966 0.76412 0.0
H3739 H 0.48946 0.80551 0.76825 0.0
H3740 H 0.49669 0.68067 0.7301 0.0
H3741 H 0.46548 0.68507 0.73897 0.0
H3742 H 0.53257 0.6904 0.74102 0.0
H3743 H 0.55258 0.71612 0.74365 0.0
loop_
_geom_bond_atom_site_label_1
_geom_bond_atom_site_label_2
_geom_bond_distance
_geom_bond_site_symmetry_2
_ccdc_geom_bond_type
C0 C1 1.351 . S
C0 N3 1.368 1_655 S
C0 H5 0.931 . S
C1 C0 1.351 . S
C1 N2 1.373 1_655 S
C1 H29 0.930 . S
N2 C1 1.373 1_455 S
N2 C4 1.340 . S
N3 C0 1.368 1_455 S
N3 C4 1.321 . S
N3 Co6 2.135 . S
C4 N2 1.340 . S
C4 N3 1.321 . S
C4 H28 0.930 . S
H5 C0 0.931 . S
Co6 N3 2.135 . S
Co6 N9 2.121 . S
Co6 O14 2.055 . S
Co6 O17 2.039 . S
Co6 N20 2.140 1_455 S
C7 O8 1.227 . S
C7 O17 1.265 . S
O8 C7 1.227 . S
N9 Co6 2.121 . S
N9 C11 1.375 . S
N9 C12 1.313 . S
C10 C11 1.338 . S
C10 N13 1.377 . S
C10 H30 0.930 . S
C11 N9 1.375 . S
C11 C10 1.338 . S
C11 H15 0.931 . S
C12 N9 1.313 . S
C12 N13 1.344 . S
C12 H16 0.930 . S
N13 C10 1.377 . S
N13 C12 1.344 . S
O14 Co6 2.055 . S
O14 C18 1.253 1_455 S
H15 C11 0.931 . S
H16 C12 0.930 . S
O17 Co6 2.039 . S
O17 C7 1.265 . S
C18 O14 1.253 1_655 S
C18 O19 1.227 . S
O19 C18 1.227 . S
N20 Co6 2.140 1_655 S
N20 C23 1.346 . S
N20 C24 1.345 . S
C21 C22 1.387 . S
C21 C25 1.391 . S
C22 C21 1.387 . S
C22 C23 1.369 . S
C22 H31 0.929 . S
C23 N20 1.346 . S
C23 C22 1.369 . S
C23 H26 0.928 1_655 S
C24 N20 1.345 . S
C24 C25 1.371 . S
C24 H27 0.931 . S
C25 C21 1.391 . S
C25 C24 1.371 . S
C25 H32 0.930 . S
H26 C23 0.928 1_455 S
H27 C24 0.931 . S
H28 C4 0.930 . S
H29 C1 0.930 . S
H30 C10 0.930 . S
H31 C22 0.929 . S
H32 C25 0.930 . S
C33 C34 1.351 . S
C33 N36 1.368 . S
C33 H38 0.931 . S
C34 C33 1.351 . S
C34 N35 1.373 . S
C34 H62 0.930 . S
N35 C34 1.373 . S
N35 C37 1.340 . S
N36 C33 1.368 . S
N36 C37 1.321 . S
N36 Co39 2.135 . S
C37 N35 1.340 . S
C37 N36 1.321 . S
C37 H61 0.930 . S
H38 C33 0.931 . S
Co39 N36 2.135 . S
Co39 N42 2.121 . S
Co39 O47 2.055 . S
Co39 O50 2.039 . S
Co39 N53 2.140 . S
C40 O41 1.227 . S
C40 O50 1.265 . S
O41 C40 1.227 . S
N42 Co39 2.121 . S
N42 C44 1.375 . S
N42 C45 1.313 . S
C43 C44 1.338 . S
C43 N46 1.377 . S
C43 H63 0.930 . S
C44 N42 1.375 . S
C44 C43 1.338 . S
C44 H48 0.931 . S
C45 N42 1.313 . S
C45 N46 1.344 . S
C45 H49 0.930 . S
N46 C43 1.377 . S
N46 C45 1.344 . S
O47 Co39 2.055 . S
O47 C51 1.253 . S
H48 C44 0.931 . S
H49 C45 0.930 . S
O50 Co39 2.039 . S
O50 C40 1.265 . S
C51 O47 1.253 . S
C51 O52 1.227 . S
O52 C51 1.227 . S
N53 Co39 2.140 . S
N53 C56 1.346 . S
N53 C57 1.345 . S
C54 C55 1.387 . S
C54 C58 1.391 . S
C55 C54 1.387 . S
C55 C56 1.369 . S
C55 H64 0.929 . S
C56 N53 1.346 . S
C56 C55 1.369 . S
C56 H59 0.928 . S
C57 N53 1.345 . S
C57 C58 1.371 . S
C57 H60 0.931 . S
C58 C54 1.391 . S
C58 C57 1.371 . S
C58 H65 0.930 . S
H59 C56 0.928 . S
H60 C57 0.931 . S
H61 C37 0.930 . S
H62 C34 0.930 . S
H63 C43 0.930 . S
H64 C55 0.929 . S
H65 C58 0.930 . S
C66 C67 1.351 . S
C66 N69 1.368 . S
C66 H71 0.931 . S
C67 C66 1.351 . S
C67 N68 1.373 . S
C67 H95 0.930 . S
N68 C67 1.373 . S
N68 C70 1.340 . S
N69 C66 1.368 . S
N69 C70 1.321 . S
N69 Co72 2.135 . S
C70 N68 1.340 . S
C70 N69 1.321 . S
C70 H94 0.930 . S
H71 C66 0.931 . S
Co72 N69 2.135 . S
Co72 N75 2.121 . S
Co72 O80 2.055 . S
Co72 O83 2.039 . S
Co72 N86 2.140 . S
C73 O74 1.227 . S
C73 O83 1.265 . S
O74 C73 1.227 . S
N75 Co72 2.121 . S
N75 C77 1.375 . S
N75 C78 1.313 . S
C76 C77 1.338 . S
C76 N79 1.377 . S
C76 H96 0.930 . S
C77 N75 1.375 . S
C77 C76 1.338 . S
C77 H81 0.931 . S
C78 N75 1.313 . S
C78 N79 1.344 . S
C78 H82 0.930 . S
N79 C76 1.377 . S
N79 C78 1.344 . S
O80 Co72 2.055 . S
O80 C84 1.253 . S
H81 C77 0.931 . S
H82 C78 0.930 . S
O83 Co72 2.039 . S
O83 C73 1.265 . S
C84 O80 1.253 . S
C84 O85 1.227 . S
O85 C84 1.227 . S
N86 Co72 2.140 . S
N86 C89 1.346 . S
N86 C90 1.345 . S
C87 C88 1.387 . S
C87 C91 1.391 . S
C88 C87 1.387 . S
C88 C89 1.369 . S
C88 H97 0.929 . S
C89 N86 1.346 . S
C89 C88 1.369 . S
C89 H92 0.928 . S
C90 N86 1.345 . S
C90 C91 1.371 . S
C90 H93 0.931 . S
C91 C87 1.391 . S
C91 C90 1.371 . S
C91 H98 0.930 . S
H92 C89 0.928 . S
H93 C90 0.931 . S
H94 C70 0.930 . S
H95 C67 0.930 . S
H96 C76 0.930 . S
H97 C88 0.929 . S
H98 C91 0.930 . S
C99 C100 1.351 . S
C99 N102 1.368 . S
C99 H104 0.931 . S
C100 C99 1.351 . S
C100 N101 1.373 . S
C100 H128 0.930 . S
N101 C100 1.373 . S
N101 C103 1.340 . S
N102 C99 1.368 . S
N102 C103 1.321 . S
N102 Co105 2.135 . S
C103 N101 1.340 . S
C103 N102 1.321 . S
C103 H127 0.930 . S
H104 C99 0.931 . S
Co105 N102 2.135 . S
Co105 N108 2.121 . S
Co105 O113 2.055 . S
Co105 O116 2.039 . S
Co105 N119 2.140 . S
C106 O107 1.227 . S
C106 O116 1.265 . S
O107 C106 1.227 . S
N108 Co105 2.121 . S
N108 C110 1.375 . S
N108 C111 1.313 . S
C109 C110 1.338 . S
C109 N112 1.377 . S
C109 H129 0.930 . S
C110 N108 1.375 . S
C110 C109 1.338 . S
C110 H114 0.931 . S
C111 N108 1.313 . S
C111 N112 1.344 . S
C111 H115 0.930 . S
N112 C109 1.377 . S
N112 C111 1.344 . S
O113 Co105 2.055 . S
O113 C117 1.253 . S
H114 C110 0.931 . S
H115 C111 0.930 . S
O116 Co105 2.039 . S
O116 C106 1.265 . S
C117 O113 1.253 . S
C117 O118 1.227 . S
O118 C117 1.227 . S
N119 Co105 2.140 . S
N119 C122 1.346 . S
N119 C123 1.345 . S
C120 C121 1.387 . S
C120 C124 1.391 . S
C121 C120 1.387 . S
C121 C122 1.369 . S
C121 H130 0.929 . S
C122 N119 1.346 . S
C122 C121 1.369 . S
C122 H125 0.928 . S
C123 N119 1.345 . S
C123 C124 1.371 . S
C123 H126 0.931 . S
C124 C120 1.391 . S
C124 C123 1.371 . S
C124 H131 0.930 . S
H125 C122 0.928 . S
H126 C123 0.931 . S
H127 C103 0.930 . S
H128 C100 0.930 . S
H129 C109 0.930 . S
H130 C121 0.929 . S
H131 C124 0.930 . S
C132 C133 1.351 . S
C132 N135 1.368 1_655 S
C132 H137 0.931 . S
C133 C132 1.351 . S
C133 N134 1.373 1_655 S
C133 H161 0.930 . S
N134 C133 1.373 1_455 S
N134 C136 1.340 . S
N135 C132 1.368 1_455 S
N135 C136 1.321 . S
N135 Co138 2.135 . S
C136 N134 1.340 . S
C136 N135 1.321 . S
C136 H160 0.930 . S
H137 C132 0.931 . S
Co138 N135 2.135 . S
Co138 N141 2.121 . S
Co138 O146 2.055 . S
Co138 O149 2.039 . S
Co138 N152 2.140 1_455 S
C139 O140 1.227 . S
C139 O149 1.265 . S
O140 C139 1.227 . S
N141 Co138 2.121 . S
N141 C143 1.375 . S
N141 C144 1.313 . S
C142 C143 1.338 . S
C142 N145 1.377 . S
C142 H162 0.930 . S
C143 N141 1.375 . S
C143 C142 1.338 . S
C143 H147 0.931 . S
C144 N141 1.313 . S
C144 N145 1.344 . S
C144 H148 0.930 . S
N145 C142 1.377 . S
N145 C144 1.344 . S
O146 Co138 2.055 . S
O146 C150 1.253 1_455 S
H147 C143 0.931 . S
H148 C144 0.930 . S
O149 Co138 2.039 . S
O149 C139 1.265 . S
C150 O146 1.253 1_655 S
C150 O151 1.227 . S
O151 C150 1.227 . S
N152 Co138 2.140 1_655 S
N152 C155 1.346 . S
N152 C156 1.345 . S
C153 C154 1.387 . S
C153 C157 1.391 . S
C154 C153 1.387 . S
C154 C155 1.369 . S
C154 H163 0.929 . S
C155 N152 1.346 . S
C155 C154 1.369 . S
C155 H158 0.928 1_655 S
C156 N152 1.345 . S
C156 C157 1.371 . S
C156 H159 0.931 . S
C157 C153 1.391 . S
C157 C156 1.371 . S
C157 H164 0.930 . S
H158 C155 0.928 1_455 S
H159 C156 0.931 . S
H160 C136 0.930 . S
H161 C133 0.930 . S
H162 C142 0.930 . S
H163 C154 0.929 . S
H164 C157 0.930 . S
C165 C166 1.351 . S
C165 N168 1.368 . S
C165 H170 0.931 . S
C166 C165 1.351 . S
C166 N167 1.373 . S
C166 H194 0.930 . S
N167 C166 1.373 . S
N167 C169 1.340 . S
N168 C165 1.368 . S
N168 C169 1.321 . S
N168 Co171 2.135 . S
C169 N167 1.340 . S
C169 N168 1.321 . S
C169 H193 0.930 . S
H170 C165 0.931 . S
Co171 N168 2.135 . S
Co171 N174 2.121 . S
Co171 O179 2.055 . S
Co171 O182 2.039 . S
Co171 N185 2.140 . S
C172 O173 1.227 . S
C172 O182 1.265 . S
O173 C172 1.227 . S
N174 Co171 2.121 . S
N174 C176 1.375 . S
N174 C177 1.313 . S
C175 C176 1.338 . S
C175 N178 1.377 . S
C175 H195 0.930 . S
C176 N174 1.375 . S
C176 C175 1.338 . S
C176 H180 0.931 . S
C177 N174 1.313 . S
C177 N178 1.344 . S
C177 H181 0.930 . S
N178 C175 1.377 . S
N178 C177 1.344 . S
O179 Co171 2.055 . S
O179 C183 1.253 . S
H180 C176 0.931 . S
H181 C177 0.930 . S
O182 Co171 2.039 . S
O182 C172 1.265 . S
C183 O179 1.253 . S
C183 O184 1.227 . S
O184 C183 1.227 . S
N185 Co171 2.140 . S
N185 C188 1.346 . S
N185 C189 1.345 . S
C186 C187 1.387 . S
C186 C190 1.391 . S
C187 C186 1.387 . S
C187 C188 1.369 . S
C187 H196 0.929 . S
C188 N185 1.346 . S
C188 C187 1.369 . S
C188 H191 0.928 . S
C189 N185 1.345 . S
C189 C190 1.371 . S
C189 H192 0.931 . S
C190 C186 1.391 . S
C190 C189 1.371 . S
C190 H197 0.930 . S
H191 C188 0.928 . S
H192 C189 0.931 . S
H193 C169 0.930 . S
H194 C166 0.930 . S
H195 C175 0.930 . S
H196 C187 0.929 . S
H197 C190 0.930 . S
C198 C199 1.351 . S
C198 N201 1.368 . S
C198 H203 0.931 . S
C199 C198 1.351 . S
C199 N200 1.373 . S
C199 H227 0.930 . S
N200 C199 1.373 . S
N200 C202 1.340 . S
N201 C198 1.368 . S
N201 C202 1.321 . S
N201 Co204 2.135 . S
C202 N200 1.340 . S
C202 N201 1.321 . S
C202 H226 0.930 . S
H203 C198 0.931 . S
Co204 N201 2.135 . S
Co204 N207 2.121 . S
Co204 O212 2.055 . S
Co204 O215 2.039 . S
Co204 N218 2.140 . S
C205 O206 1.227 . S
C205 O215 1.265 . S
O206 C205 1.227 . S
N207 Co204 2.121 . S
N207 C209 1.375 . S
N207 C210 1.313 . S
C208 C209 1.338 . S
C208 N211 1.377 . S
C208 H228 0.930 . S
C209 N207 1.375 . S
C209 C208 1.338 . S
C209 H213 0.931 . S
C210 N207 1.313 . S
C210 N211 1.344 . S
C210 H214 0.930 . S
N211 C208 1.377 . S
N211 C210 1.344 . S
O212 Co204 2.055 . S
O212 C216 1.253 . S
H213 C209 0.931 . S
H214 C210 0.930 . S
O215 Co204 2.039 . S
O215 C205 1.265 . S
C216 O212 1.253 . S
C216 O217 1.227 . S
O217 C216 1.227 . S
N218 Co204 2.140 . S
N218 C221 1.346 . S
N218 C222 1.345 . S
C219 C220 1.387 . S
C219 C223 1.391 . S
C220 C219 1.387 . S
C220 C221 1.369 . S
C220 H229 0.929 . S
C221 N218 1.346 . S
C221 C220 1.369 . S
C221 H224 0.928 . S
C222 N218 1.345 . S
C222 C223 1.371 . S
C222 H225 0.931 . S
C223 C219 1.391 . S
C223 C222 1.371 . S
C223 H230 0.930 . S
H224 C221 0.928 . S
H225 C222 0.931 . S
H226 C202 0.930 . S
H227 C199 0.930 . S
H228 C208 0.930 . S
H229 C220 0.929 . S
H230 C223 0.930 . S
C231 C232 1.351 . S
C231 N234 1.368 . S
C231 H236 0.931 . S
C232 C231 1.351 . S
C232 N233 1.373 . S
C232 H260 0.930 . S
N233 C232 1.373 . S
N233 C235 1.340 . S
N234 C231 1.368 . S
N234 C235 1.321 . S
N234 Co237 2.135 . S
C235 N233 1.340 . S
C235 N234 1.321 . S
C235 H259 0.930 . S
H236 C231 0.931 . S
Co237 N234 2.135 . S
Co237 N240 2.121 . S
Co237 O245 2.055 . S
Co237 O248 2.039 . S
Co237 N251 2.140 . S
C238 O239 1.227 . S
C238 O248 1.265 . S
O239 C238 1.227 . S
N240 Co237 2.121 . S
N240 C242 1.375 . S
N240 C243 1.313 . S
C241 C242 1.338 . S
C241 N244 1.377 . S
C241 H261 0.930 . S
C242 N240 1.375 . S
C242 C241 1.338 . S
C242 H246 0.931 . S
C243 N240 1.313 . S
C243 N244 1.344 . S
C243 H247 0.930 . S
N244 C241 1.377 . S
N244 C243 1.344 . S
O245 Co237 2.055 . S
O245 C249 1.253 . S
H246 C242 0.931 . S
H247 C243 0.930 . S
O248 Co237 2.039 . S
O248 C238 1.265 . S
C249 O245 1.253 . S
C249 O250 1.227 . S
O250 C249 1.227 . S
N251 Co237 2.140 . S
N251 C254 1.346 . S
N251 C255 1.345 . S
C252 C253 1.387 . S
C252 C256 1.391 . S
C253 C252 1.387 . S
C253 C254 1.369 . S
C253 H262 0.929 . S
C254 N251 1.346 . S
C254 C253 1.369 . S
C254 H257 0.928 . S
C255 N251 1.345 . S
C255 C256 1.371 . S
C255 H258 0.931 . S
C256 C252 1.391 . S
C256 C255 1.371 . S
C256 H263 0.930 . S
H257 C254 0.928 . S
H258 C255 0.931 . S
H259 C235 0.930 . S
H260 C232 0.930 . S
H261 C241 0.930 . S
H262 C253 0.929 . S
H263 C256 0.930 . S
C264 C265 1.351 . S
C264 N267 1.368 1_565 S
C264 H269 0.931 . S
C265 C264 1.351 . S
C265 N266 1.373 1_565 S
C265 H293 0.930 . S
N266 C265 1.373 1_545 S
N266 C268 1.340 . S
N267 C264 1.368 1_545 S
N267 C268 1.321 . S
N267 Co270 2.135 . S
C268 N266 1.340 . S
C268 N267 1.321 . S
C268 H292 0.930 . S
H269 C264 0.931 . S
Co270 N267 2.135 . S
Co270 N273 2.121 . S
Co270 O278 2.055 . S
Co270 O281 2.039 . S
Co270 N284 2.140 1_545 S
C271 O272 1.227 . S
C271 O281 1.265 . S
O272 C271 1.227 . S
N273 Co270 2.121 . S
N273 C275 1.375 . S
N273 C276 1.313 . S
C274 C275 1.338 . S
C274 N277 1.377 . S
C274 H294 0.930 . S
C275 N273 1.375 . S
C275 C274 1.338 . S
C275 H279 0.931 . S
C276 N273 1.313 . S
C276 N277 1.344 . S
C276 H280 0.930 . S
N277 C274 1.377 . S
N277 C276 1.344 . S
O278 Co270 2.055 . S
O278 C282 1.253 1_545 S
H279 C275 0.931 . S
H280 C276 0.930 . S
O281 Co270 2.039 . S
O281 C271 1.265 . S
C282 O278 1.253 1_565 S
C282 O283 1.227 . S
O283 C282 1.227 . S
N284 Co270 2.140 1_565 S
N284 C287 1.346 . S
N284 C288 1.345 . S
C285 C286 1.387 . S
C285 C289 1.391 . S
C286 C285 1.387 . S
C286 C287 1.369 . S
C286 H295 0.929 . S
C287 N284 1.346 . S
C287 C286 1.369 . S
C287 H290 0.928 1_565 S
C288 N284 1.345 . S
C288 C289 1.371 . S
C288 H291 0.931 . S
C289 C285 1.391 . S
C289 C288 1.371 . S
C289 H296 0.930 . S
H290 C287 0.928 1_545 S
H291 C288 0.931 . S
H292 C268 0.930 . S
H293 C265 0.930 . S
H294 C274 0.930 . S
H295 C286 0.929 . S
H296 C289 0.930 . S
C297 C298 1.351 . S
C297 N300 1.368 . S
C297 H302 0.931 . S
C298 C297 1.351 . S
C298 N299 1.373 . S
C298 H326 0.930 . S
N299 C298 1.373 . S
N299 C301 1.340 . S
N300 C297 1.368 . S
N300 C301 1.321 . S
N300 Co303 2.135 . S
C301 N299 1.340 . S
C301 N300 1.321 . S
C301 H325 0.930 . S
H302 C297 0.931 . S
Co303 N300 2.135 . S
Co303 N306 2.121 . S
Co303 O311 2.055 . S
Co303 O314 2.039 . S
Co303 N317 2.140 . S
C304 O305 1.227 . S
C304 O314 1.265 . S
O305 C304 1.227 . S
N306 Co303 2.121 . S
N306 C308 1.375 . S
N306 C309 1.313 . S
C307 C308 1.338 . S
C307 N310 1.377 . S
C307 H327 0.930 . S
C308 N306 1.375 . S
C308 C307 1.338 . S
C308 H312 0.931 . S
C309 N306 1.313 . S
C309 N310 1.344 . S
C309 H313 0.930 . S
N310 C307 1.377 . S
N310 C309 1.344 . S
O311 Co303 2.055 . S
O311 C315 1.253 . S
H312 C308 0.931 . S
H313 C309 0.930 . S
O314 Co303 2.039 . S
O314 C304 1.265 . S
C315 O311 1.253 . S
C315 O316 1.227 . S
O316 C315 1.227 . S
N317 Co303 2.140 . S
N317 C320 1.346 . S
N317 C321 1.345 . S
C318 C319 1.387 . S
C318 C322 1.391 . S
C319 C318 1.387 . S
C319 C320 1.369 . S
C319 H328 0.929 . S
C320 N317 1.346 . S
C320 C319 1.369 . S
C320 H323 0.928 . S
C321 N317 1.345 . S
C321 C322 1.371 . S
C321 H324 0.931 . S
C322 C318 1.391 . S
C322 C321 1.371 . S
C322 H329 0.930 . S
H323 C320 0.928 . S
H324 C321 0.931 . S
H325 C301 0.930 . S
H326 C298 0.930 . S
H327 C307 0.930 . S
H328 C319 0.929 . S
H329 C322 0.930 . S
C330 C331 1.351 . S
C330 N333 1.368 1_545 S
C330 H335 0.931 . S
C331 C330 1.351 . S
C331 N332 1.373 1_545 S
C331 H359 0.930 . S
N332 C331 1.373 1_565 S
N332 C334 1.340 . S
N333 C330 1.368 1_565 S
N333 C334 1.321 . S
N333 Co336 2.135 . S
C334 N332 1.340 . S
C334 N333 1.321 . S
C334 H358 0.930 . S
H335 C330 0.931 . S
Co336 N333 2.135 . S
Co336 N339 2.121 . S
Co336 O344 2.055 . S
Co336 O347 2.039 . S
Co336 N350 2.140 1_565 S
C337 O338 1.227 . S
C337 O347 1.265 . S
O338 C337 1.227 . S
N339 Co336 2.121 . S
N339 C341 1.375 . S
N339 C342 1.313 . S
C340 C341 1.338 . S
C340 N343 1.377 . S
C340 H360 0.930 . S
C341 N339 1.375 . S
C341 C340 1.338 . S
C341 H345 0.931 . S
C342 N339 1.313 . S
C342 N343 1.344 . S
C342 H346 0.930 . S
N343 C340 1.377 . S
N343 C342 1.344 . S
O344 Co336 2.055 . S
O344 C348 1.253 1_565 S
H345 C341 0.931 . S
H346 C342 0.930 . S
O347 Co336 2.039 . S
O347 C337 1.265 . S
C348 O344 1.253 1_545 S
C348 O349 1.227 . S
O349 C348 1.227 . S
N350 Co336 2.140 1_545 S
N350 C353 1.346 . S
N350 C354 1.345 . S
C351 C352 1.387 . S
C351 C355 1.391 . S
C352 C351 1.387 . S
C352 C353 1.369 . S
C352 H361 0.929 . S
C353 N350 1.346 . S
C353 C352 1.369 . S
C353 H356 0.928 1_545 S
C354 N350 1.345 . S
C354 C355 1.371 . S
C354 H357 0.931 . S
C355 C351 1.391 . S
C355 C354 1.371 . S
C355 H362 0.930 . S
H356 C353 0.928 1_565 S
H357 C354 0.931 . S
H358 C334 0.930 . S
H359 C331 0.930 . S
H360 C340 0.930 . S
H361 C352 0.929 . S
H362 C355 0.930 . S
C363 C364 1.351 . S
C363 N366 1.368 . S
C363 H368 0.931 . S
C364 C363 1.351 . S
C364 N365 1.373 . S
C364 H392 0.930 . S
N365 C364 1.373 . S
N365 C367 1.340 . S
N366 C363 1.368 . S
N366 C367 1.321 . S
N366 Co369 2.135 . S
C367 N365 1.340 . S
C367 N366 1.321 . S
C367 H391 0.930 . S
H368 C363 0.931 . S
Co369 N366 2.135 . S
Co369 N372 2.121 . S
Co369 O377 2.055 . S
Co369 O380 2.039 . S
Co369 N383 2.140 . S
C370 O371 1.227 . S
C370 O380 1.265 . S
O371 C370 1.227 . S
N372 Co369 2.121 . S
N372 C374 1.375 . S
N372 C375 1.313 . S
C373 C374 1.338 . S
C373 N376 1.377 . S
C373 H393 0.930 . S
C374 N372 1.375 . S
C374 C373 1.338 . S
C374 H378 0.931 . S
C375 N372 1.313 . S
C375 N376 1.344 . S
C375 H379 0.930 . S
N376 C373 1.377 . S
N376 C375 1.344 . S
O377 Co369 2.055 . S
O377 C381 1.253 . S
H378 C374 0.931 . S
H379 C375 0.930 . S
O380 Co369 2.039 . S
O380 C370 1.265 . S
C381 O377 1.253 . S
C381 O382 1.227 . S
O382 C381 1.227 . S
N383 Co369 2.140 . S
N383 C386 1.346 . S
N383 C387 1.345 . S
C384 C385 1.387 . S
C384 C388 1.391 . S
C385 C384 1.387 . S
C385 C386 1.369 . S
C385 H394 0.929 . S
C386 N383 1.346 . S
C386 C385 1.369 . S
C386 H389 0.928 . S
C387 N383 1.345 . S
C387 C388 1.371 . S
C387 H390 0.931 . S
C388 C384 1.391 . S
C388 C387 1.371 . S
C388 H395 0.930 . S
H389 C386 0.928 . S
H390 C387 0.931 . S
H391 C367 0.930 . S
H392 C364 0.930 . S
H393 C373 0.930 . S
H394 C385 0.929 . S
H395 C388 0.930 . S
C396 C397 1.351 . S
C396 N399 1.368 1_545 S
C396 H401 0.931 . S
C397 C396 1.351 . S
C397 N398 1.373 1_545 S
C397 H425 0.930 . S
N398 C397 1.373 1_565 S
N398 C400 1.340 . S
N399 C396 1.368 1_565 S
N399 C400 1.321 . S
N399 Co402 2.135 . S
C400 N398 1.340 . S
C400 N399 1.321 . S
C400 H424 0.930 . S
H401 C396 0.931 . S
Co402 N399 2.135 . S
Co402 N405 2.121 . S
Co402 O410 2.055 . S
Co402 O413 2.039 . S
Co402 N416 2.140 1_565 S
C403 O404 1.227 . S
C403 O413 1.265 . S
O404 C403 1.227 . S
N405 Co402 2.121 . S
N405 C407 1.375 . S
N405 C408 1.313 . S
C406 C407 1.338 . S
C406 N409 1.377 . S
C406 H426 0.930 . S
C407 N405 1.375 . S
C407 C406 1.338 . S
C407 H411 0.931 . S
C408 N405 1.313 . S
C408 N409 1.344 . S
C408 H412 0.930 . S
N409 C406 1.377 . S
N409 C408 1.344 . S
O410 Co402 2.055 . S
O410 C414 1.253 1_565 S
H411 C407 0.931 . S
H412 C408 0.930 . S
O413 Co402 2.039 . S
O413 C403 1.265 . S
C414 O410 1.253 1_545 S
C414 O415 1.227 . S
O415 C414 1.227 . S
N416 Co402 2.140 1_545 S
N416 C419 1.346 . S
N416 C420 1.345 . S
C417 C418 1.387 . S
C417 C421 1.391 . S
C418 C417 1.387 . S
C418 C419 1.369 . S
C418 H427 0.929 . S
C419 N416 1.346 . S
C419 C418 1.369 . S
C419 H422 0.928 1_545 S
C420 N416 1.345 . S
C420 C421 1.371 . S
C420 H423 0.931 . S
C421 C417 1.391 . S
C421 C420 1.371 . S
C421 H428 0.930 . S
H422 C419 0.928 1_565 S
H423 C420 0.931 . S
H424 C400 0.930 . S
H425 C397 0.930 . S
H426 C406 0.930 . S
H427 C418 0.929 . S
H428 C421 0.930 . S
C429 C430 1.351 . S
C429 N432 1.368 . S
C429 H434 0.931 . S
C430 C429 1.351 . S
C430 N431 1.373 . S
C430 H458 0.930 . S
N431 C430 1.373 . S
N431 C433 1.340 . S
N432 C429 1.368 . S
N432 C433 1.321 . S
N432 Co435 2.135 . S
C433 N431 1.340 . S
C433 N432 1.321 . S
C433 H457 0.930 . S
H434 C429 0.931 . S
Co435 N432 2.135 . S
Co435 N438 2.121 . S
Co435 O443 2.055 . S
Co435 O446 2.039 . S
Co435 N449 2.140 . S
C436 O437 1.227 . S
C436 O446 1.265 . S
O437 C436 1.227 . S
N438 Co435 2.121 . S
N438 C440 1.375 . S
N438 C441 1.313 . S
C439 C440 1.338 . S
C439 N442 1.377 . S
C439 H459 0.930 . S
C440 N438 1.375 . S
C440 C439 1.338 . S
C440 H444 0.931 . S
C441 N438 1.313 . S
C441 N442 1.344 . S
C441 H445 0.930 . S
N442 C439 1.377 . S
N442 C441 1.344 . S
O443 Co435 2.055 . S
O443 C447 1.253 . S
H444 C440 0.931 . S
H445 C441 0.930 . S
O446 Co435 2.039 . S
O446 C436 1.265 . S
C447 O443 1.253 . S
C447 O448 1.227 . S
O448 C447 1.227 . S
N449 Co435 2.140 . S
N449 C452 1.346 . S
N449 C453 1.345 . S
C450 C451 1.387 . S
C450 C454 1.391 . S
C451 C450 1.387 . S
C451 C452 1.369 . S
C451 H460 0.929 . S
C452 N449 1.346 . S
C452 C451 1.369 . S
C452 H455 0.928 . S
C453 N449 1.345 . S
C453 C454 1.371 . S
C453 H456 0.931 . S
C454 C450 1.391 . S
C454 C453 1.371 . S
C454 H461 0.930 . S
H455 C452 0.928 . S
H456 C453 0.931 . S
H457 C433 0.930 . S
H458 C430 0.930 . S
H459 C439 0.930 . S
H460 C451 0.929 . S
H461 C454 0.930 . S
C462 C463 1.351 . S
C462 N465 1.368 1_565 S
C462 H467 0.931 . S
C463 C462 1.351 . S
C463 N464 1.373 1_565 S
C463 H491 0.930 . S
N464 C463 1.373 1_545 S
N464 C466 1.340 . S
N465 C462 1.368 1_545 S
N465 C466 1.321 . S
N465 Co468 2.135 . S
C466 N464 1.340 . S
C466 N465 1.321 . S
C466 H490 0.930 . S
H467 C462 0.931 . S
Co468 N465 2.135 . S
Co468 N471 2.121 . S
Co468 O476 2.055 . S
Co468 O479 2.039 . S
Co468 N482 2.140 1_545 S
C469 O470 1.227 . S
C469 O479 1.265 . S
O470 C469 1.227 . S
N471 Co468 2.121 . S
N471 C473 1.375 . S
N471 C474 1.313 . S
C472 C473 1.338 . S
C472 N475 1.377 . S
C472 H492 0.930 . S
C473 N471 1.375 . S
C473 C472 1.338 . S
C473 H477 0.931 . S
C474 N471 1.313 . S
C474 N475 1.344 . S
C474 H478 0.930 . S
N475 C472 1.377 . S
N475 C474 1.344 . S
O476 Co468 2.055 . S
O476 C480 1.253 1_545 S
H477 C473 0.931 . S
H478 C474 0.930 . S
O479 Co468 2.039 . S
O479 C469 1.265 . S
C480 O476 1.253 1_565 S
C480 O481 1.227 . S
O481 C480 1.227 . S
N482 Co468 2.140 1_565 S
N482 C485 1.346 . S
N482 C486 1.345 . S
C483 C484 1.387 . S
C483 C487 1.391 . S
C484 C483 1.387 . S
C484 C485 1.369 . S
C484 H493 0.929 . S
C485 N482 1.346 . S
C485 C484 1.369 . S
C485 H488 0.928 1_565 S
C486 N482 1.345 . S
C486 C487 1.371 . S
C486 H489 0.931 . S
C487 C483 1.391 . S
C487 C486 1.371 . S
C487 H494 0.930 . S
H488 C485 0.928 1_545 S
H489 C486 0.931 . S
H490 C466 0.930 . S
H491 C463 0.930 . S
H492 C472 0.930 . S
H493 C484 0.929 . S
H494 C487 0.930 . S
C495 C496 1.351 . S
C495 N498 1.368 . S
C495 H500 0.931 . S
C496 C495 1.351 . S
C496 N497 1.373 . S
C496 H524 0.930 . S
N497 C496 1.373 . S
N497 C499 1.340 . S
N498 C495 1.368 . S
N498 C499 1.321 . S
N498 Co501 2.135 . S
C499 N497 1.340 . S
C499 N498 1.321 . S
C499 H523 0.930 . S
H500 C495 0.931 . S
Co501 N498 2.135 . S
Co501 N504 2.121 . S
Co501 O509 2.055 . S
Co501 O512 2.039 . S
Co501 N515 2.140 . S
C502 O503 1.227 . S
C502 O512 1.265 . S
O503 C502 1.227 . S
N504 Co501 2.121 . S
N504 C506 1.375 . S
N504 C507 1.313 . S
C505 C506 1.338 . S
C505 N508 1.377 . S
C505 H525 0.930 . S
C506 N504 1.375 . S
C506 C505 1.338 . S
C506 H510 0.931 . S
C507 N504 1.313 . S
C507 N508 1.344 . S
C507 H511 0.930 . S
N508 C505 1.377 . S
N508 C507 1.344 . S
O509 Co501 2.055 . S
O509 C513 1.253 . S
H510 C506 0.931 . S
H511 C507 0.930 . S
O512 Co501 2.039 . S
O512 C502 1.265 . S
C513 O509 1.253 . S
C513 O514 1.227 . S
O514 C513 1.227 . S
N515 Co501 2.140 . S
N515 C518 1.346 . S
N515 C519 1.345 . S
C516 C517 1.387 . S
C516 C520 1.391 . S
C517 C516 1.387 . S
C517 C518 1.369 . S
C517 H526 0.929 . S
C518 N515 1.346 . S
C518 C517 1.369 . S
C518 H521 0.928 . S
C519 N515 1.345 . S
C519 C520 1.371 . S
C519 H522 0.931 . S
C520 C516 1.391 . S
C520 C519 1.371 . S
C520 H527 0.930 . S
H521 C518 0.928 . S
H522 C519 0.931 . S
H523 C499 0.930 . S
H524 C496 0.930 . S
H525 C505 0.930 . S
H526 C517 0.929 . S
H527 C520 0.930 . S
C528 C529 1.351 . S
C528 N531 1.368 1_556 S
C528 H533 0.931 . S
C529 C528 1.351 . S
C529 N530 1.373 1_556 S
C529 H557 0.930 . S
N530 C529 1.373 1_554 S
N530 C532 1.340 . S
N531 C528 1.368 1_554 S
N531 C532 1.321 . S
N531 Co534 2.135 . S
C532 N530 1.340 . S
C532 N531 1.321 . S
C532 H556 0.930 . S
H533 C528 0.931 . S
Co534 N531 2.135 . S
Co534 N537 2.121 . S
Co534 O542 2.055 . S
Co534 O545 2.039 . S
Co534 N548 2.140 1_554 S
C535 O536 1.227 . S
C535 O545 1.265 . S
O536 C535 1.227 . S
N537 Co534 2.121 . S
N537 C539 1.375 . S
N537 C540 1.313 . S
C538 C539 1.338 . S
C538 N541 1.377 . S
C538 H558 0.930 . S
C539 N537 1.375 . S
C539 C538 1.338 . S
C539 H543 0.931 . S
C540 N537 1.313 . S
C540 N541 1.344 . S
C540 H544 0.930 . S
N541 C538 1.377 . S
N541 C540 1.344 . S
O542 Co534 2.055 . S
O542 C546 1.253 1_554 S
H543 C539 0.931 . S
H544 C540 0.930 . S
O545 Co534 2.039 . S
O545 C535 1.265 . S
C546 O542 1.253 1_556 S
C546 O547 1.227 . S
O547 C546 1.227 . S
N548 Co534 2.140 1_556 S
N548 C551 1.346 . S
N548 C552 1.345 . S
C549 C550 1.387 . S
C549 C553 1.391 . S
C550 C549 1.387 . S
C550 C551 1.369 . S
C550 H559 0.929 . S
C551 N548 1.346 . S
C551 C550 1.369 . S
C551 H554 0.928 1_556 S
C552 N548 1.345 . S
C552 C553 1.371 . S
C552 H555 0.931 . S
C553 C549 1.391 . S
C553 C552 1.371 . S
C553 H560 0.930 . S
H554 C551 0.928 1_554 S
H555 C552 0.931 . S
H556 C532 0.930 . S
H557 C529 0.930 . S
H558 C538 0.930 . S
H559 C550 0.929 . S
H560 C553 0.930 . S
C561 C562 1.351 . S
C561 N564 1.368 1_554 S
C561 H566 0.931 . S
C562 C561 1.351 . S
C562 N563 1.373 1_554 S
C562 H590 0.930 . S
N563 C562 1.373 1_556 S
N563 C565 1.340 . S
N564 C561 1.368 1_556 S
N564 C565 1.321 . S
N564 Co567 2.135 . S
C565 N563 1.340 . S
C565 N564 1.321 . S
C565 H589 0.930 . S
H566 C561 0.931 . S
Co567 N564 2.135 . S
Co567 N570 2.121 . S
Co567 O575 2.055 . S
Co567 O578 2.039 . S
Co567 N581 2.140 1_556 S
C568 O569 1.227 . S
C568 O578 1.265 . S
O569 C568 1.227 . S
N570 Co567 2.121 . S
N570 C572 1.375 . S
N570 C573 1.313 . S
C571 C572 1.338 . S
C571 N574 1.377 . S
C571 H591 0.930 . S
C572 N570 1.375 . S
C572 C571 1.338 . S
C572 H576 0.931 . S
C573 N570 1.313 . S
C573 N574 1.344 . S
C573 H577 0.930 . S
N574 C571 1.377 . S
N574 C573 1.344 . S
O575 Co567 2.055 . S
O575 C579 1.253 1_556 S
H576 C572 0.931 . S
H577 C573 0.930 . S
O578 Co567 2.039 . S
O578 C568 1.265 . S
C579 O575 1.253 1_554 S
C579 O580 1.227 . S
O580 C579 1.227 . S
N581 Co567 2.140 1_554 S
N581 C584 1.346 . S
N581 C585 1.345 . S
C582 C583 1.387 . S
C582 C586 1.391 . S
C583 C582 1.387 . S
C583 C584 1.369 . S
C583 H592 0.929 . S
C584 N581 1.346 . S
C584 C583 1.369 . S
C584 H587 0.928 1_554 S
C585 N581 1.345 . S
C585 C586 1.371 . S
C585 H588 0.931 . S
C586 C582 1.391 . S
C586 C585 1.371 . S
C586 H593 0.930 . S
H587 C584 0.928 1_556 S
H588 C585 0.931 . S
H589 C565 0.930 . S
H590 C562 0.930 . S
H591 C571 0.930 . S
H592 C583 0.929 . S
H593 C586 0.930 . S
C594 C595 1.351 . S
C594 N597 1.368 . S
C594 H599 0.931 . S
C595 C594 1.351 . S
C595 N596 1.373 . S
C595 H623 0.930 . S
N596 C595 1.373 . S
N596 C598 1.340 . S
N597 C594 1.368 . S
N597 C598 1.321 . S
N597 Co600 2.135 . S
C598 N596 1.340 . S
C598 N597 1.321 . S
C598 H622 0.930 . S
H599 C594 0.931 . S
Co600 N597 2.135 . S
Co600 N603 2.121 . S
Co600 O608 2.055 . S
Co600 O611 2.039 . S
Co600 N614 2.140 . S
C601 O602 1.227 . S
C601 O611 1.265 . S
O602 C601 1.227 . S
N603 Co600 2.121 . S
N603 C605 1.375 . S
N603 C606 1.313 . S
C604 C605 1.338 . S
C604 N607 1.377 . S
C604 H624 0.930 . S
C605 N603 1.375 . S
C605 C604 1.338 . S
C605 H609 0.931 . S
C606 N603 1.313 . S
C606 N607 1.344 . S
C606 H610 0.930 . S
N607 C604 1.377 . S
N607 C606 1.344 . S
O608 Co600 2.055 . S
O608 C612 1.253 . S
H609 C605 0.931 . S
H610 C606 0.930 . S
O611 Co600 2.039 . S
O611 C601 1.265 . S
C612 O608 1.253 . S
C612 O613 1.227 . S
O613 C612 1.227 . S
N614 Co600 2.140 . S
N614 C617 1.346 . S
N614 C618 1.345 . S
C615 C616 1.387 . S
C615 C619 1.391 . S
C616 C615 1.387 . S
C616 C617 1.369 . S
C616 H625 0.929 . S
C617 N614 1.346 . S
C617 C616 1.369 . S
C617 H620 0.928 . S
C618 N614 1.345 . S
C618 C619 1.371 . S
C618 H621 0.931 . S
C619 C615 1.391 . S
C619 C618 1.371 . S
C619 H626 0.930 . S
H620 C617 0.928 . S
H621 C618 0.931 . S
H622 C598 0.930 . S
H623 C595 0.930 . S
H624 C604 0.930 . S
H625 C616 0.929 . S
H626 C619 0.930 . S
C627 C628 1.351 . S
C627 N630 1.368 . S
C627 H632 0.931 . S
C628 C627 1.351 . S
C628 N629 1.373 . S
C628 H656 0.930 . S
N629 C628 1.373 . S
N629 C631 1.340 . S
N630 C627 1.368 . S
N630 C631 1.321 . S
N630 Co633 2.135 . S
C631 N629 1.340 . S
C631 N630 1.321 . S
C631 H655 0.930 . S
H632 C627 0.931 . S
Co633 N630 2.135 . S
Co633 N636 2.121 . S
Co633 O641 2.055 . S
Co633 O644 2.039 . S
Co633 N647 2.140 . S
C634 O635 1.227 . S
C634 O644 1.265 . S
O635 C634 1.227 . S
N636 Co633 2.121 . S
N636 C638 1.375 . S
N636 C639 1.313 . S
C637 C638 1.338 . S
C637 N640 1.377 . S
C637 H657 0.930 . S
C638 N636 1.375 . S
C638 C637 1.338 . S
C638 H642 0.931 . S
C639 N636 1.313 . S
C639 N640 1.344 . S
C639 H643 0.930 . S
N640 C637 1.377 . S
N640 C639 1.344 . S
O641 Co633 2.055 . S
O641 C645 1.253 . S
H642 C638 0.931 . S
H643 C639 0.930 . S
O644 Co633 2.039 . S
O644 C634 1.265 . S
C645 O641 1.253 . S
C645 O646 1.227 . S
O646 C645 1.227 . S
N647 Co633 2.140 . S
N647 C650 1.346 . S
N647 C651 1.345 . S
C648 C649 1.387 . S
C648 C652 1.391 . S
C649 C648 1.387 . S
C649 C650 1.369 . S
C649 H658 0.929 . S
C650 N647 1.346 . S
C650 C649 1.369 . S
C650 H653 0.928 . S
C651 N647 1.345 . S
C651 C652 1.371 . S
C651 H654 0.931 . S
C652 C648 1.391 . S
C652 C651 1.371 . S
C652 H659 0.930 . S
H653 C650 0.928 . S
H654 C651 0.931 . S
H655 C631 0.930 . S
H656 C628 0.930 . S
H657 C637 0.930 . S
H658 C649 0.929 . S
H659 C652 0.930 . S
C660 C661 1.351 . S
C660 N663 1.368 . S
C660 H665 0.931 . S
C661 C660 1.351 . S
C661 N662 1.373 . S
C661 H689 0.930 . S
N662 C661 1.373 . S
N662 C664 1.340 . S
N663 C660 1.368 . S
N663 C664 1.321 . S
N663 Co666 2.135 . S
C664 N662 1.340 . S
C664 N663 1.321 . S
C664 H688 0.930 . S
H665 C660 0.931 . S
Co666 N663 2.135 . S
Co666 N669 2.121 . S
Co666 O674 2.055 . S
Co666 O677 2.039 . S
Co666 N680 2.140 . S
C667 O668 1.227 . S
C667 O677 1.265 . S
O668 C667 1.227 . S
N669 Co666 2.121 . S
N669 C671 1.375 . S
N669 C672 1.313 . S
C670 C671 1.338 . S
C670 N673 1.377 . S
C670 H690 0.930 . S
C671 N669 1.375 . S
C671 C670 1.338 . S
C671 H675 0.931 . S
C672 N669 1.313 . S
C672 N673 1.344 . S
C672 H676 0.930 . S
N673 C670 1.377 . S
N673 C672 1.344 . S
O674 Co666 2.055 . S
O674 C678 1.253 . S
H675 C671 0.931 . S
H676 C672 0.930 . S
O677 Co666 2.039 . S
O677 C667 1.265 . S
C678 O674 1.253 . S
C678 O679 1.227 . S
O679 C678 1.227 . S
N680 Co666 2.140 . S
N680 C683 1.346 . S
N680 C684 1.345 . S
C681 C682 1.387 . S
C681 C685 1.391 . S
C682 C681 1.387 . S
C682 C683 1.369 . S
C682 H691 0.929 . S
C683 N680 1.346 . S
C683 C682 1.369 . S
C683 H686 0.928 . S
C684 N680 1.345 . S
C684 C685 1.371 . S
C684 H687 0.931 . S
C685 C681 1.391 . S
C685 C684 1.371 . S
C685 H692 0.930 . S
H686 C683 0.928 . S
H687 C684 0.931 . S
H688 C664 0.930 . S
H689 C661 0.930 . S
H690 C670 0.930 . S
H691 C682 0.929 . S
H692 C685 0.930 . S
C693 C694 1.351 . S
C693 N696 1.368 . S
C693 H698 0.931 . S
C694 C693 1.351 . S
C694 N695 1.373 . S
C694 H722 0.930 . S
N695 C694 1.373 . S
N695 C697 1.340 . S
N696 C693 1.368 . S
N696 C697 1.321 . S
N696 Co699 2.135 . S
C697 N695 1.340 . S
C697 N696 1.321 . S
C697 H721 0.930 . S
H698 C693 0.931 . S
Co699 N696 2.135 . S
Co699 N702 2.121 . S
Co699 O707 2.055 . S
Co699 O710 2.039 . S
Co699 N713 2.140 . S
C700 O701 1.227 . S
C700 O710 1.265 . S
O701 C700 1.227 . S
N702 Co699 2.121 . S
N702 C704 1.375 . S
N702 C705 1.313 . S
C703 C704 1.338 . S
C703 N706 1.377 . S
C703 H723 0.930 . S
C704 N702 1.375 . S
C704 C703 1.338 . S
C704 H708 0.931 . S
C705 N702 1.313 . S
C705 N706 1.344 . S
C705 H709 0.930 . S
N706 C703 1.377 . S
N706 C705 1.344 . S
O707 Co699 2.055 . S
O707 C711 1.253 . S
H708 C704 0.931 . S
H709 C705 0.930 . S
O710 Co699 2.039 . S
O710 C700 1.265 . S
C711 O707 1.253 . S
C711 O712 1.227 . S
O712 C711 1.227 . S
N713 Co699 2.140 . S
N713 C716 1.346 . S
N713 C717 1.345 . S
C714 C715 1.387 . S
C714 C718 1.391 . S
C715 C714 1.387 . S
C715 C716 1.369 . S
C715 H724 0.929 . S
C716 N713 1.346 . S
C716 C715 1.369 . S
C716 H719 0.928 . S
C717 N713 1.345 . S
C717 C718 1.371 . S
C717 H720 0.931 . S
C718 C714 1.391 . S
C718 C717 1.371 . S
C718 H725 0.930 . S
H719 C716 0.928 . S
H720 C717 0.931 . S
H721 C697 0.930 . S
H722 C694 0.930 . S
H723 C703 0.930 . S
H724 C715 0.929 . S
H725 C718 0.930 . S
C726 C727 1.351 . S
C726 N729 1.368 . S
C726 H731 0.931 . S
C727 C726 1.351 . S
C727 N728 1.373 . S
C727 H755 0.930 . S
N728 C727 1.373 . S
N728 C730 1.340 . S
N729 C726 1.368 . S
N729 C730 1.321 . S
N729 Co732 2.135 . S
C730 N728 1.340 . S
C730 N729 1.321 . S
C730 H754 0.930 . S
H731 C726 0.931 . S
Co732 N729 2.135 . S
Co732 N735 2.121 . S
Co732 O740 2.055 . S
Co732 O743 2.039 . S
Co732 N746 2.140 . S
C733 O734 1.227 . S
C733 O743 1.265 . S
O734 C733 1.227 . S
N735 Co732 2.121 . S
N735 C737 1.375 . S
N735 C738 1.313 . S
C736 C737 1.338 . S
C736 N739 1.377 . S
C736 H756 0.930 . S
C737 N735 1.375 . S
C737 C736 1.338 . S
C737 H741 0.931 . S
C738 N735 1.313 . S
C738 N739 1.344 . S
C738 H742 0.930 . S
N739 C736 1.377 . S
N739 C738 1.344 . S
O740 Co732 2.055 . S
O740 C744 1.253 . S
H741 C737 0.931 . S
H742 C738 0.930 . S
O743 Co732 2.039 . S
O743 C733 1.265 . S
C744 O740 1.253 . S
C744 O745 1.227 . S
O745 C744 1.227 . S
N746 Co732 2.140 . S
N746 C749 1.346 . S
N746 C750 1.345 . S
C747 C748 1.387 . S
C747 C751 1.391 . S
C748 C747 1.387 . S
C748 C749 1.369 . S
C748 H757 0.929 . S
C749 N746 1.346 . S
C749 C748 1.369 . S
C749 H752 0.928 . S
C750 N746 1.345 . S
C750 C751 1.371 . S
C750 H753 0.931 . S
C751 C747 1.391 . S
C751 C750 1.371 . S
C751 H758 0.930 . S
H752 C749 0.928 . S
H753 C750 0.931 . S
H754 C730 0.930 . S
H755 C727 0.930 . S
H756 C736 0.930 . S
H757 C748 0.929 . S
H758 C751 0.930 . S
C759 C760 1.351 . S
C759 N762 1.368 . S
C759 H764 0.931 . S
C760 C759 1.351 . S
C760 N761 1.373 . S
C760 H788 0.930 . S
N761 C760 1.373 . S
N761 C763 1.340 . S
N762 C759 1.368 . S
N762 C763 1.321 . S
N762 Co765 2.135 . S
C763 N761 1.340 . S
C763 N762 1.321 . S
C763 H787 0.930 . S
H764 C759 0.931 . S
Co765 N762 2.135 . S
Co765 N768 2.121 . S
Co765 O773 2.055 . S
Co765 O776 2.039 . S
Co765 N779 2.140 . S
C766 O767 1.227 . S
C766 O776 1.265 . S
O767 C766 1.227 . S
N768 Co765 2.121 . S
N768 C770 1.375 . S
N768 C771 1.313 . S
C769 C770 1.338 . S
C769 N772 1.377 . S
C769 H789 0.930 . S
C770 N768 1.375 . S
C770 C769 1.338 . S
C770 H774 0.931 . S
C771 N768 1.313 . S
C771 N772 1.344 . S
C771 H775 0.930 . S
N772 C769 1.377 . S
N772 C771 1.344 . S
O773 Co765 2.055 . S
O773 C777 1.253 . S
H774 C770 0.931 . S
H775 C771 0.930 . S
O776 Co765 2.039 . S
O776 C766 1.265 . S
C777 O773 1.253 . S
C777 O778 1.227 . S
O778 C777 1.227 . S
N779 Co765 2.140 . S
N779 C782 1.346 . S
N779 C783 1.345 . S
C780 C781 1.387 . S
C780 C784 1.391 . S
C781 C780 1.387 . S
C781 C782 1.369 . S
C781 H790 0.929 . S
C782 N779 1.346 . S
C782 C781 1.369 . S
C782 H785 0.928 . S
C783 N779 1.345 . S
C783 C784 1.371 . S
C783 H786 0.931 . S
C784 C780 1.391 . S
C784 C783 1.371 . S
C784 H791 0.930 . S
H785 C782 0.928 . S
H786 C783 0.931 . S
H787 C763 0.930 . S
H788 C760 0.930 . S
H789 C769 0.930 . S
H790 C781 0.929 . S
H791 C784 0.930 . S
C792 C793 1.351 . S
C792 N795 1.368 . S
C792 H797 0.931 . S
C793 C792 1.351 . S
C793 N794 1.373 . S
C793 H821 0.930 . S
N794 C793 1.373 . S
N794 C796 1.340 . S
N795 C792 1.368 . S
N795 C796 1.321 . S
N795 Co798 2.135 . S
C796 N794 1.340 . S
C796 N795 1.321 . S
C796 H820 0.930 . S
H797 C792 0.931 . S
Co798 N795 2.135 . S
Co798 N801 2.121 . S
Co798 O806 2.055 . S
Co798 O809 2.039 . S
Co798 N812 2.140 . S
C799 O800 1.227 . S
C799 O809 1.265 . S
O800 C799 1.227 . S
N801 Co798 2.121 . S
N801 C803 1.375 . S
N801 C804 1.313 . S
C802 C803 1.338 . S
C802 N805 1.377 . S
C802 H822 0.930 . S
C803 N801 1.375 . S
C803 C802 1.338 . S
C803 H807 0.931 . S
C804 N801 1.313 . S
C804 N805 1.344 . S
C804 H808 0.930 . S
N805 C802 1.377 . S
N805 C804 1.344 . S
O806 Co798 2.055 . S
O806 C810 1.253 . S
H807 C803 0.931 . S
H808 C804 0.930 . S
O809 Co798 2.039 . S
O809 C799 1.265 . S
C810 O806 1.253 . S
C810 O811 1.227 . S
O811 C810 1.227 . S
N812 Co798 2.140 . S
N812 C815 1.346 . S
N812 C816 1.345 . S
C813 C814 1.387 . S
C813 C817 1.391 . S
C814 C813 1.387 . S
C814 C815 1.369 . S
C814 H823 0.929 . S
C815 N812 1.346 . S
C815 C814 1.369 . S
C815 H818 0.928 . S
C816 N812 1.345 . S
C816 C817 1.371 . S
C816 H819 0.931 . S
C817 C813 1.391 . S
C817 C816 1.371 . S
C817 H824 0.930 . S
H818 C815 0.928 . S
H819 C816 0.931 . S
H820 C796 0.930 . S
H821 C793 0.930 . S
H822 C802 0.930 . S
H823 C814 0.929 . S
H824 C817 0.930 . S
C825 C826 1.351 . S
C825 N828 1.368 . S
C825 H830 0.931 . S
C826 C825 1.351 . S
C826 N827 1.373 . S
C826 H854 0.930 . S
N827 C826 1.373 . S
N827 C829 1.340 . S
N828 C825 1.368 . S
N828 C829 1.321 . S
N828 Co831 2.135 . S
C829 N827 1.340 . S
C829 N828 1.321 . S
C829 H853 0.930 . S
H830 C825 0.931 . S
Co831 N828 2.135 . S
Co831 N834 2.121 . S
Co831 O839 2.055 . S
Co831 O842 2.039 . S
Co831 N845 2.140 . S
C832 O833 1.227 . S
C832 O842 1.265 . S
O833 C832 1.227 . S
N834 Co831 2.121 . S
N834 C836 1.375 . S
N834 C837 1.313 . S
C835 C836 1.338 . S
C835 N838 1.377 . S
C835 H855 0.930 . S
C836 N834 1.375 . S
C836 C835 1.338 . S
C836 H840 0.931 . S
C837 N834 1.313 . S
C837 N838 1.344 . S
C837 H841 0.930 . S
N838 C835 1.377 . S
N838 C837 1.344 . S
O839 Co831 2.055 . S
O839 C843 1.253 . S
H840 C836 0.931 . S
H841 C837 0.930 . S
O842 Co831 2.039 . S
O842 C832 1.265 . S
C843 O839 1.253 . S
C843 O844 1.227 . S
O844 C843 1.227 . S
N845 Co831 2.140 . S
N845 C848 1.346 . S
N845 C849 1.345 . S
C846 C847 1.387 . S
C846 C850 1.391 . S
C847 C846 1.387 . S
C847 C848 1.369 . S
C847 H856 0.929 . S
C848 N845 1.346 . S
C848 C847 1.369 . S
C848 H851 0.928 . S
C849 N845 1.345 . S
C849 C850 1.371 . S
C849 H852 0.931 . S
C850 C846 1.391 . S
C850 C849 1.371 . S
C850 H857 0.930 . S
H851 C848 0.928 . S
H852 C849 0.931 . S
H853 C829 0.930 . S
H854 C826 0.930 . S
H855 C835 0.930 . S
H856 C847 0.929 . S
H857 C850 0.930 . S
C858 C859 1.351 . S
C858 N861 1.368 1_455 S
C858 H863 0.931 . S
C859 C858 1.351 . S
C859 N860 1.373 1_455 S
C859 H887 0.930 . S
N860 C859 1.373 1_655 S
N860 C862 1.340 . S
N861 C858 1.368 1_655 S
N861 C862 1.321 . S
N861 Co864 2.135 . S
C862 N860 1.340 . S
C862 N861 1.321 . S
C862 H886 0.930 . S
H863 C858 0.931 . S
Co864 N861 2.135 . S
Co864 N867 2.121 . S
Co864 O872 2.055 . S
Co864 O875 2.039 . S
Co864 N878 2.140 1_655 S
C865 O866 1.227 . S
C865 O875 1.265 . S
O866 C865 1.227 . S
N867 Co864 2.121 . S
N867 C869 1.375 . S
N867 C870 1.313 . S
C868 C869 1.338 . S
C868 N871 1.377 . S
C868 H888 0.930 . S
C869 N867 1.375 . S
C869 C868 1.338 . S
C869 H873 0.931 . S
C870 N867 1.313 . S
C870 N871 1.344 . S
C870 H874 0.930 . S
N871 C868 1.377 . S
N871 C870 1.344 . S
O872 Co864 2.055 . S
O872 C876 1.253 1_655 S
H873 C869 0.931 . S
H874 C870 0.930 . S
O875 Co864 2.039 . S
O875 C865 1.265 . S
C876 O872 1.253 1_455 S
C876 O877 1.227 . S
O877 C876 1.227 . S
N878 Co864 2.140 1_455 S
N878 C881 1.346 . S
N878 C882 1.345 . S
C879 C880 1.387 . S
C879 C883 1.391 . S
C880 C879 1.387 . S
C880 C881 1.369 . S
C880 H889 0.929 . S
C881 N878 1.346 . S
C881 C880 1.369 . S
C881 H884 0.928 1_455 S
C882 N878 1.345 . S
C882 C883 1.371 . S
C882 H885 0.931 . S
C883 C879 1.391 . S
C883 C882 1.371 . S
C883 H890 0.930 . S
H884 C881 0.928 1_655 S
H885 C882 0.931 . S
H886 C862 0.930 . S
H887 C859 0.930 . S
H888 C868 0.930 . S
H889 C880 0.929 . S
H890 C883 0.930 . S
C891 C892 1.351 . S
C891 N894 1.368 . S
C891 H896 0.931 . S
C892 C891 1.351 . S
C892 N893 1.373 . S
C892 H920 0.930 . S
N893 C892 1.373 . S
N893 C895 1.340 . S
N894 C891 1.368 . S
N894 C895 1.321 . S
N894 Co897 2.135 . S
C895 N893 1.340 . S
C895 N894 1.321 . S
C895 H919 0.930 . S
H896 C891 0.931 . S
Co897 N894 2.135 . S
Co897 N900 2.121 . S
Co897 O905 2.055 . S
Co897 O908 2.039 . S
Co897 N911 2.140 . S
C898 O899 1.227 . S
C898 O908 1.265 . S
O899 C898 1.227 . S
N900 Co897 2.121 . S
N900 C902 1.375 . S
N900 C903 1.313 . S
C901 C902 1.338 . S
C901 N904 1.377 . S
C901 H921 0.930 . S
C902 N900 1.375 . S
C902 C901 1.338 . S
C902 H906 0.931 . S
C903 N900 1.313 . S
C903 N904 1.344 . S
C903 H907 0.930 . S
N904 C901 1.377 . S
N904 C903 1.344 . S
O905 Co897 2.055 . S
O905 C909 1.253 . S
H906 C902 0.931 . S
H907 C903 0.930 . S
O908 Co897 2.039 . S
O908 C898 1.265 . S
C909 O905 1.253 . S
C909 O910 1.227 . S
O910 C909 1.227 . S
N911 Co897 2.140 . S
N911 C914 1.346 . S
N911 C915 1.345 . S
C912 C913 1.387 . S
C912 C916 1.391 . S
C913 C912 1.387 . S
C913 C914 1.369 . S
C913 H922 0.929 . S
C914 N911 1.346 . S
C914 C913 1.369 . S
C914 H917 0.928 . S
C915 N911 1.345 . S
C915 C916 1.371 . S
C915 H918 0.931 . S
C916 C912 1.391 . S
C916 C915 1.371 . S
C916 H923 0.930 . S
H917 C914 0.928 . S
H918 C915 0.931 . S
H919 C895 0.930 . S
H920 C892 0.930 . S
H921 C901 0.930 . S
H922 C913 0.929 . S
H923 C916 0.930 . S
C924 C925 1.351 . S
C924 N927 1.368 . S
C924 H929 0.931 . S
C925 C924 1.351 . S
C925 N926 1.373 . S
C925 H953 0.930 . S
N926 C925 1.373 . S
N926 C928 1.340 . S
N927 C924 1.368 . S
N927 C928 1.321 . S
N927 Co930 2.135 . S
C928 N926 1.340 . S
C928 N927 1.321 . S
C928 H952 0.930 . S
H929 C924 0.931 . S
Co930 N927 2.135 . S
Co930 N933 2.121 . S
Co930 O938 2.055 . S
Co930 O941 2.039 . S
Co930 N944 2.140 . S
C931 O932 1.227 . S
C931 O941 1.265 . S
O932 C931 1.227 . S
N933 Co930 2.121 . S
N933 C935 1.375 . S
N933 C936 1.313 . S
C934 C935 1.338 . S
C934 N937 1.377 . S
C934 H954 0.930 . S
C935 N933 1.375 . S
C935 C934 1.338 . S
C935 H939 0.931 . S
C936 N933 1.313 . S
C936 N937 1.344 . S
C936 H940 0.930 . S
N937 C934 1.377 . S
N937 C936 1.344 . S
O938 Co930 2.055 . S
O938 C942 1.253 . S
H939 C935 0.931 . S
H940 C936 0.930 . S
O941 Co930 2.039 . S
O941 C931 1.265 . S
C942 O938 1.253 . S
C942 O943 1.227 . S
O943 C942 1.227 . S
N944 Co930 2.140 . S
N944 C947 1.346 . S
N944 C948 1.345 . S
C945 C946 1.387 . S
C945 C949 1.391 . S
C946 C945 1.387 . S
C946 C947 1.369 . S
C946 H955 0.929 . S
C947 N944 1.346 . S
C947 C946 1.369 . S
C947 H950 0.928 . S
C948 N944 1.345 . S
C948 C949 1.371 . S
C948 H951 0.931 . S
C949 C945 1.391 . S
C949 C948 1.371 . S
C949 H956 0.930 . S
H950 C947 0.928 . S
H951 C948 0.931 . S
H952 C928 0.930 . S
H953 C925 0.930 . S
H954 C934 0.930 . S
H955 C946 0.929 . S
H956 C949 0.930 . S
C957 C958 1.351 . S
C957 N960 1.368 . S
C957 H962 0.931 . S
C958 C957 1.351 . S
C958 N959 1.373 . S
C958 H986 0.930 . S
N959 C958 1.373 . S
N959 C961 1.340 . S
N960 C957 1.368 . S
N960 C961 1.321 . S
N960 Co963 2.135 . S
C961 N959 1.340 . S
C961 N960 1.321 . S
C961 H985 0.930 . S
H962 C957 0.931 . S
Co963 N960 2.135 . S
Co963 N966 2.121 . S
Co963 O971 2.055 . S
Co963 O974 2.039 . S
Co963 N977 2.140 . S
C964 O965 1.227 . S
C964 O974 1.265 . S
O965 C964 1.227 . S
N966 Co963 2.121 . S
N966 C968 1.375 . S
N966 C969 1.313 . S
C967 C968 1.338 . S
C967 N970 1.377 . S
C967 H987 0.930 . S
C968 N966 1.375 . S
C968 C967 1.338 . S
C968 H972 0.931 . S
C969 N966 1.313 . S
C969 N970 1.344 . S
C969 H973 0.930 . S
N970 C967 1.377 . S
N970 C969 1.344 . S
O971 Co963 2.055 . S
O971 C975 1.253 . S
H972 C968 0.931 . S
H973 C969 0.930 . S
O974 Co963 2.039 . S
O974 C964 1.265 . S
C975 O971 1.253 . S
C975 O976 1.227 . S
O976 C975 1.227 . S
N977 Co963 2.140 . S
N977 C980 1.346 . S
N977 C981 1.345 . S
C978 C979 1.387 . S
C978 C982 1.391 . S
C979 C978 1.387 . S
C979 C980 1.369 . S
C979 H988 0.929 . S
C980 N977 1.346 . S
C980 C979 1.369 . S
C980 H983 0.928 . S
C981 N977 1.345 . S
C981 C982 1.371 . S
C981 H984 0.931 . S
C982 C978 1.391 . S
C982 C981 1.371 . S
C982 H989 0.930 . S
H983 C980 0.928 . S
H984 C981 0.931 . S
H985 C961 0.930 . S
H986 C958 0.930 . S
H987 C967 0.930 . S
H988 C979 0.929 . S
H989 C982 0.930 . S
C990 C991 1.351 . S
C990 N993 1.368 1_455 S
C990 H995 0.931 . S
C991 C990 1.351 . S
C991 N992 1.373 1_455 S
C991 H1019 0.930 . S
N992 C991 1.373 1_655 S
N992 C994 1.340 . S
N993 C990 1.368 1_655 S
N993 C994 1.321 . S
N993 Co996 2.135 . S
C994 N992 1.340 . S
C994 N993 1.321 . S
C994 H1018 0.930 . S
H995 C990 0.931 . S
Co996 N993 2.135 . S
Co996 N999 2.121 . S
Co996 O1004 2.055 . S
Co996 O1007 2.039 . S
Co996 N1010 2.140 1_655 S
C997 O998 1.227 . S
C997 O1007 1.265 . S
O998 C997 1.227 . S
N999 Co996 2.121 . S
N999 C1001 1.375 . S
N999 C1002 1.313 . S
C1000 C1001 1.338 . S
C1000 N1003 1.377 . S
C1000 H1020 0.930 . S
C1001 N999 1.375 . S
C1001 C1000 1.338 . S
C1001 H1005 0.931 . S
C1002 N999 1.313 . S
C1002 N1003 1.344 . S
C1002 H1006 0.930 . S
N1003 C1000 1.377 . S
N1003 C1002 1.344 . S
O1004 Co996 2.055 . S
O1004 C1008 1.253 1_655 S
H1005 C1001 0.931 . S
H1006 C1002 0.930 . S
O1007 Co996 2.039 . S
O1007 C997 1.265 . S
C1008 O1004 1.253 1_455 S
C1008 O1009 1.227 . S
O1009 C1008 1.227 . S
N1010 Co996 2.140 1_455 S
N1010 C1013 1.346 . S
N1010 C1014 1.345 . S
C1011 C1012 1.387 . S
C1011 C1015 1.391 . S
C1012 C1011 1.387 . S
C1012 C1013 1.369 . S
C1012 H1021 0.929 . S
C1013 N1010 1.346 . S
C1013 C1012 1.369 . S
C1013 H1016 0.928 1_455 S
C1014 N1010 1.345 . S
C1014 C1015 1.371 . S
C1014 H1017 0.931 . S
C1015 C1011 1.391 . S
C1015 C1014 1.371 . S
C1015 H1022 0.930 . S
H1016 C1013 0.928 1_655 S
H1017 C1014 0.931 . S
H1018 C994 0.930 . S
H1019 C991 0.930 . S
H1020 C1000 0.930 . S
H1021 C1012 0.929 . S
H1022 C1015 0.930 . S
C1023 C1024 1.351 . S
C1023 N1026 1.368 . S
C1023 H1028 0.931 . S
C1024 C1023 1.351 . S
C1024 N1025 1.373 . S
C1024 H1052 0.930 . S
N1025 C1024 1.373 . S
N1025 C1027 1.340 . S
N1026 C1023 1.368 . S
N1026 C1027 1.321 . S
N1026 Co1029 2.135 . S
C1027 N1025 1.340 . S
C1027 N1026 1.321 . S
C1027 H1051 0.930 . S
H1028 C1023 0.931 . S
Co1029 N1026 2.135 . S
Co1029 N1032 2.121 . S
Co1029 O1037 2.055 . S
Co1029 O1040 2.039 . S
Co1029 N1043 2.140 . S
C1030 O1031 1.227 . S
C1030 O1040 1.265 . S
O1031 C1030 1.227 . S
N1032 Co1029 2.121 . S
N1032 C1034 1.375 . S
N1032 C1035 1.313 . S
C1033 C1034 1.338 . S
C1033 N1036 1.377 . S
C1033 H1053 0.930 . S
C1034 N1032 1.375 . S
C1034 C1033 1.338 . S
C1034 H1038 0.931 . S
C1035 N1032 1.313 . S
C1035 N1036 1.344 . S
C1035 H1039 0.930 . S
N1036 C1033 1.377 . S
N1036 C1035 1.344 . S
O1037 Co1029 2.055 . S
O1037 C1041 1.253 . S
H1038 C1034 0.931 . S
H1039 C1035 0.930 . S
O1040 Co1029 2.039 . S
O1040 C1030 1.265 . S
C1041 O1037 1.253 . S
C1041 O1042 1.227 . S
O1042 C1041 1.227 . S
N1043 Co1029 2.140 . S
N1043 C1046 1.346 . S
N1043 C1047 1.345 . S
C1044 C1045 1.387 . S
C1044 C1048 1.391 . S
C1045 C1044 1.387 . S
C1045 C1046 1.369 . S
C1045 H1054 0.929 . S
C1046 N1043 1.346 . S
C1046 C1045 1.369 . S
C1046 H1049 0.928 . S
C1047 N1043 1.345 . S
C1047 C1048 1.371 . S
C1047 H1050 0.931 . S
C1048 C1044 1.391 . S
C1048 C1047 1.371 . S
C1048 H1055 0.930 . S
H1049 C1046 0.928 . S
H1050 C1047 0.931 . S
H1051 C1027 0.930 . S
H1052 C1024 0.930 . S
H1053 C1033 0.930 . S
H1054 C1045 0.929 . S
H1055 C1048 0.930 . S
C1056 C1057 1.351 . S
C1056 N1059 1.368 . S
C1056 H1061 0.931 . S
C1057 C1056 1.351 . S
C1057 N1058 1.373 . S
C1057 H1085 0.930 . S
N1058 C1057 1.373 . S
N1058 C1060 1.340 . S
N1059 C1056 1.368 . S
N1059 C1060 1.321 . S
N1059 Co1062 2.135 . S
C1060 N1058 1.340 . S
C1060 N1059 1.321 . S
C1060 H1084 0.930 . S
H1061 C1056 0.931 . S
Co1062 N1059 2.135 . S
Co1062 N1065 2.121 . S
Co1062 O1070 2.055 . S
Co1062 O1073 2.039 . S
Co1062 N1076 2.140 . S
C1063 O1064 1.227 . S
C1063 O1073 1.265 . S
O1064 C1063 1.227 . S
N1065 Co1062 2.121 . S
N1065 C1067 1.375 . S
N1065 C1068 1.313 . S
C1066 C1067 1.338 . S
C1066 N1069 1.377 . S
C1066 H1086 0.930 . S
C1067 N1065 1.375 . S
C1067 C1066 1.338 . S
C1067 H1071 0.931 . S
C1068 N1065 1.313 . S
C1068 N1069 1.344 . S
C1068 H1072 0.930 . S
N1069 C1066 1.377 . S
N1069 C1068 1.344 . S
O1070 Co1062 2.055 . S
O1070 C1074 1.253 . S
H1071 C1067 0.931 . S
H1072 C1068 0.930 . S
O1073 Co1062 2.039 . S
O1073 C1063 1.265 . S
C1074 O1070 1.253 . S
C1074 O1075 1.227 . S
O1075 C1074 1.227 . S
N1076 Co1062 2.140 . S
N1076 C1079 1.346 . S
N1076 C1080 1.345 . S
C1077 C1078 1.387 . S
C1077 C1081 1.391 . S
C1078 C1077 1.387 . S
C1078 C1079 1.369 . S
C1078 H1087 0.929 . S
C1079 N1076 1.346 . S
C1079 C1078 1.369 . S
C1079 H1082 0.928 . S
C1080 N1076 1.345 . S
C1080 C1081 1.371 . S
C1080 H1083 0.931 . S
C1081 C1077 1.391 . S
C1081 C1080 1.371 . S
C1081 H1088 0.930 . S
H1082 C1079 0.928 . S
H1083 C1080 0.931 . S
H1084 C1060 0.930 . S
H1085 C1057 0.930 . S
H1086 C1066 0.930 . S
H1087 C1078 0.929 . S
H1088 C1081 0.930 . S
C1089 C1090 1.351 . S
C1089 N1092 1.368 . S
C1089 H1094 0.931 . S
C1090 C1089 1.351 . S
C1090 N1091 1.373 . S
C1090 H1118 0.930 . S
N1091 C1090 1.373 . S
N1091 C1093 1.340 . S
N1092 C1089 1.368 . S
N1092 C1093 1.321 . S
N1092 Co1095 2.135 . S
C1093 N1091 1.340 . S
C1093 N1092 1.321 . S
C1093 H1117 0.930 . S
H1094 C1089 0.931 . S
Co1095 N1092 2.135 . S
Co1095 N1098 2.121 . S
Co1095 O1103 2.055 . S
Co1095 O1106 2.039 . S
Co1095 N1109 2.140 . S
C1096 O1097 1.227 . S
C1096 O1106 1.265 . S
O1097 C1096 1.227 . S
N1098 Co1095 2.121 . S
N1098 C1100 1.375 . S
N1098 C1101 1.313 . S
C1099 C1100 1.338 . S
C1099 N1102 1.377 . S
C1099 H1119 0.930 . S
C1100 N1098 1.375 . S
C1100 C1099 1.338 . S
C1100 H1104 0.931 . S
C1101 N1098 1.313 . S
C1101 N1102 1.344 . S
C1101 H1105 0.930 . S
N1102 C1099 1.377 . S
N1102 C1101 1.344 . S
O1103 Co1095 2.055 . S
O1103 C1107 1.253 . S
H1104 C1100 0.931 . S
H1105 C1101 0.930 . S
O1106 Co1095 2.039 . S
O1106 C1096 1.265 . S
C1107 O1103 1.253 . S
C1107 O1108 1.227 . S
O1108 C1107 1.227 . S
N1109 Co1095 2.140 . S
N1109 C1112 1.346 . S
N1109 C1113 1.345 . S
C1110 C1111 1.387 . S
C1110 C1114 1.391 . S
C1111 C1110 1.387 . S
C1111 C1112 1.369 . S
C1111 H1120 0.929 . S
C1112 N1109 1.346 . S
C1112 C1111 1.369 . S
C1112 H1115 0.928 . S
C1113 N1109 1.345 . S
C1113 C1114 1.371 . S
C1113 H1116 0.931 . S
C1114 C1110 1.391 . S
C1114 C1113 1.371 . S
C1114 H1121 0.930 . S
H1115 C1112 0.928 . S
H1116 C1113 0.931 . S
H1117 C1093 0.930 . S
H1118 C1090 0.930 . S
H1119 C1099 0.930 . S
H1120 C1111 0.929 . S
H1121 C1114 0.930 . S
C1122 C1123 1.351 . S
C1122 N1125 1.368 . S
C1122 H1127 0.931 . S
C1123 C1122 1.351 . S
C1123 N1124 1.373 . S
C1123 H1151 0.930 . S
N1124 C1123 1.373 . S
N1124 C1126 1.340 . S
N1125 C1122 1.368 . S
N1125 C1126 1.321 . S
N1125 Co1128 2.135 . S
C1126 N1124 1.340 . S
C1126 N1125 1.321 . S
C1126 H1150 0.930 . S
H1127 C1122 0.931 . S
Co1128 N1125 2.135 . S
Co1128 N1131 2.121 . S
Co1128 O1136 2.055 . S
Co1128 O1139 2.039 . S
Co1128 N1142 2.140 . S
C1129 O1130 1.227 . S
C1129 O1139 1.265 . S
O1130 C1129 1.227 . S
N1131 Co1128 2.121 . S
N1131 C1133 1.375 . S
N1131 C1134 1.313 . S
C1132 C1133 1.338 . S
C1132 N1135 1.377 . S
C1132 H1152 0.930 . S
C1133 N1131 1.375 . S
C1133 C1132 1.338 . S
C1133 H1137 0.931 . S
C1134 N1131 1.313 . S
C1134 N1135 1.344 . S
C1134 H1138 0.930 . S
N1135 C1132 1.377 . S
N1135 C1134 1.344 . S
O1136 Co1128 2.055 . S
O1136 C1140 1.253 . S
H1137 C1133 0.931 . S
H1138 C1134 0.930 . S
O1139 Co1128 2.039 . S
O1139 C1129 1.265 . S
C1140 O1136 1.253 . S
C1140 O1141 1.227 . S
O1141 C1140 1.227 . S
N1142 Co1128 2.140 . S
N1142 C1145 1.346 . S
N1142 C1146 1.345 . S
C1143 C1144 1.387 . S
C1143 C1147 1.391 . S
C1144 C1143 1.387 . S
C1144 C1145 1.369 . S
C1144 H1153 0.929 . S
C1145 N1142 1.346 . S
C1145 C1144 1.369 . S
C1145 H1148 0.928 . S
C1146 N1142 1.345 . S
C1146 C1147 1.371 . S
C1146 H1149 0.931 . S
C1147 C1143 1.391 . S
C1147 C1146 1.371 . S
C1147 H1154 0.930 . S
H1148 C1145 0.928 . S
H1149 C1146 0.931 . S
H1150 C1126 0.930 . S
H1151 C1123 0.930 . S
H1152 C1132 0.930 . S
H1153 C1144 0.929 . S
H1154 C1147 0.930 . S
C1155 C1156 1.351 . S
C1155 N1158 1.368 . S
C1155 H1160 0.931 . S
C1156 C1155 1.351 . S
C1156 N1157 1.373 . S
C1156 H1184 0.930 . S
N1157 C1156 1.373 . S
N1157 C1159 1.340 . S
N1158 C1155 1.368 . S
N1158 C1159 1.321 . S
N1158 Co1161 2.135 . S
C1159 N1157 1.340 . S
C1159 N1158 1.321 . S
C1159 H1183 0.930 . S
H1160 C1155 0.931 . S
Co1161 N1158 2.135 . S
Co1161 N1164 2.121 . S
Co1161 O1169 2.055 . S
Co1161 O1172 2.039 . S
Co1161 N1175 2.140 . S
C1162 O1163 1.227 . S
C1162 O1172 1.265 . S
O1163 C1162 1.227 . S
N1164 Co1161 2.121 . S
N1164 C1166 1.375 . S
N1164 C1167 1.313 . S
C1165 C1166 1.338 . S
C1165 N1168 1.377 . S
C1165 H1185 0.930 . S
C1166 N1164 1.375 . S
C1166 C1165 1.338 . S
C1166 H1170 0.931 . S
C1167 N1164 1.313 . S
C1167 N1168 1.344 . S
C1167 H1171 0.930 . S
N1168 C1165 1.377 . S
N1168 C1167 1.344 . S
O1169 Co1161 2.055 . S
O1169 C1173 1.253 . S
H1170 C1166 0.931 . S
H1171 C1167 0.930 . S
O1172 Co1161 2.039 . S
O1172 C1162 1.265 . S
C1173 O1169 1.253 . S
C1173 O1174 1.227 . S
O1174 C1173 1.227 . S
N1175 Co1161 2.140 . S
N1175 C1178 1.346 . S
N1175 C1179 1.345 . S
C1176 C1177 1.387 . S
C1176 C1180 1.391 . S
C1177 C1176 1.387 . S
C1177 C1178 1.369 . S
C1177 H1186 0.929 . S
C1178 N1175 1.346 . S
C1178 C1177 1.369 . S
C1178 H1181 0.928 . S
C1179 N1175 1.345 . S
C1179 C1180 1.371 . S
C1179 H1182 0.931 . S
C1180 C1176 1.391 . S
C1180 C1179 1.371 . S
C1180 H1187 0.930 . S
H1181 C1178 0.928 . S
H1182 C1179 0.931 . S
H1183 C1159 0.930 . S
H1184 C1156 0.930 . S
H1185 C1165 0.930 . S
H1186 C1177 0.929 . S
H1187 C1180 0.930 . S
C1188 C1189 1.351 . S
C1188 N1191 1.368 . S
C1188 H1193 0.931 . S
C1189 C1188 1.351 . S
C1189 N1190 1.373 . S
C1189 H1217 0.930 . S
N1190 C1189 1.373 . S
N1190 C1192 1.340 . S
N1191 C1188 1.368 . S
N1191 C1192 1.321 . S
N1191 Co1194 2.135 . S
C1192 N1190 1.340 . S
C1192 N1191 1.321 . S
C1192 H1216 0.930 . S
H1193 C1188 0.931 . S
Co1194 N1191 2.135 . S
Co1194 N1197 2.121 . S
Co1194 O1202 2.055 . S
Co1194 O1205 2.039 . S
Co1194 N1208 2.140 . S
C1195 O1196 1.227 . S
C1195 O1205 1.265 . S
O1196 C1195 1.227 . S
N1197 Co1194 2.121 . S
N1197 C1199 1.375 . S
N1197 C1200 1.313 . S
C1198 C1199 1.338 . S
C1198 N1201 1.377 . S
C1198 H1218 0.930 . S
C1199 N1197 1.375 . S
C1199 C1198 1.338 . S
C1199 H1203 0.931 . S
C1200 N1197 1.313 . S
C1200 N1201 1.344 . S
C1200 H1204 0.930 . S
N1201 C1198 1.377 . S
N1201 C1200 1.344 . S
O1202 Co1194 2.055 . S
O1202 C1206 1.253 . S
H1203 C1199 0.931 . S
H1204 C1200 0.930 . S
O1205 Co1194 2.039 . S
O1205 C1195 1.265 . S
C1206 O1202 1.253 . S
C1206 O1207 1.227 . S
O1207 C1206 1.227 . S
N1208 Co1194 2.140 . S
N1208 C1211 1.346 . S
N1208 C1212 1.345 . S
C1209 C1210 1.387 . S
C1209 C1213 1.391 . S
C1210 C1209 1.387 . S
C1210 C1211 1.369 . S
C1210 H1219 0.929 . S
C1211 N1208 1.346 . S
C1211 C1210 1.369 . S
C1211 H1214 0.928 . S
C1212 N1208 1.345 . S
C1212 C1213 1.371 . S
C1212 H1215 0.931 . S
C1213 C1209 1.391 . S
C1213 C1212 1.371 . S
C1213 H1220 0.930 . S
H1214 C1211 0.928 . S
H1215 C1212 0.931 . S
H1216 C1192 0.930 . S
H1217 C1189 0.930 . S
H1218 C1198 0.930 . S
H1219 C1210 0.929 . S
H1220 C1213 0.930 . S
C1221 C1222 1.351 . S
C1221 N1224 1.368 . S
C1221 H1226 0.931 . S
C1222 C1221 1.351 . S
C1222 N1223 1.373 . S
C1222 H1250 0.930 . S
N1223 C1222 1.373 . S
N1223 C1225 1.340 . S
N1224 C1221 1.368 . S
N1224 C1225 1.321 . S
N1224 Co1227 2.135 . S
C1225 N1223 1.340 . S
C1225 N1224 1.321 . S
C1225 H1249 0.930 . S
H1226 C1221 0.931 . S
Co1227 N1224 2.135 . S
Co1227 N1230 2.121 . S
Co1227 O1235 2.055 . S
Co1227 O1238 2.039 . S
Co1227 N1241 2.140 . S
C1228 O1229 1.227 . S
C1228 O1238 1.265 . S
O1229 C1228 1.227 . S
N1230 Co1227 2.121 . S
N1230 C1232 1.375 . S
N1230 C1233 1.313 . S
C1231 C1232 1.338 . S
C1231 N1234 1.377 . S
C1231 H1251 0.930 . S
C1232 N1230 1.375 . S
C1232 C1231 1.338 . S
C1232 H1236 0.931 . S
C1233 N1230 1.313 . S
C1233 N1234 1.344 . S
C1233 H1237 0.930 . S
N1234 C1231 1.377 . S
N1234 C1233 1.344 . S
O1235 Co1227 2.055 . S
O1235 C1239 1.253 . S
H1236 C1232 0.931 . S
H1237 C1233 0.930 . S
O1238 Co1227 2.039 . S
O1238 C1228 1.265 . S
C1239 O1235 1.253 . S
C1239 O1240 1.227 . S
O1240 C1239 1.227 . S
N1241 Co1227 2.140 . S
N1241 C1244 1.346 . S
N1241 C1245 1.345 . S
C1242 C1243 1.387 . S
C1242 C1246 1.391 . S
C1243 C1242 1.387 . S
C1243 C1244 1.369 . S
C1243 H1252 0.929 . S
C1244 N1241 1.346 . S
C1244 C1243 1.369 . S
C1244 H1247 0.928 . S
C1245 N1241 1.345 . S
C1245 C1246 1.371 . S
C1245 H1248 0.931 . S
C1246 C1242 1.391 . S
C1246 C1245 1.371 . S
C1246 H1253 0.930 . S
H1247 C1244 0.928 . S
H1248 C1245 0.931 . S
H1249 C1225 0.930 . S
H1250 C1222 0.930 . S
H1251 C1231 0.930 . S
H1252 C1243 0.929 . S
H1253 C1246 0.930 . S
C1254 C1255 1.351 . S
C1254 N1257 1.368 . S
C1254 H1259 0.931 . S
C1255 C1254 1.351 . S
C1255 N1256 1.373 . S
C1255 H1283 0.930 . S
N1256 C1255 1.373 . S
N1256 C1258 1.340 . S
N1257 C1254 1.368 . S
N1257 C1258 1.321 . S
N1257 Co1260 2.135 . S
C1258 N1256 1.340 . S
C1258 N1257 1.321 . S
C1258 H1282 0.930 . S
H1259 C1254 0.931 . S
Co1260 N1257 2.135 . S
Co1260 N1263 2.121 . S
Co1260 O1268 2.055 . S
Co1260 O1271 2.039 . S
Co1260 N1274 2.140 . S
C1261 O1262 1.227 . S
C1261 O1271 1.265 . S
O1262 C1261 1.227 . S
N1263 Co1260 2.121 . S
N1263 C1265 1.375 . S
N1263 C1266 1.313 . S
C1264 C1265 1.338 . S
C1264 N1267 1.377 . S
C1264 H1284 0.930 . S
C1265 N1263 1.375 . S
C1265 C1264 1.338 . S
C1265 H1269 0.931 . S
C1266 N1263 1.313 . S
C1266 N1267 1.344 . S
C1266 H1270 0.930 . S
N1267 C1264 1.377 . S
N1267 C1266 1.344 . S
O1268 Co1260 2.055 . S
O1268 C1272 1.253 . S
H1269 C1265 0.931 . S
H1270 C1266 0.930 . S
O1271 Co1260 2.039 . S
O1271 C1261 1.265 . S
C1272 O1268 1.253 . S
C1272 O1273 1.227 . S
O1273 C1272 1.227 . S
N1274 Co1260 2.140 . S
N1274 C1277 1.346 . S
N1274 C1278 1.345 . S
C1275 C1276 1.387 . S
C1275 C1279 1.391 . S
C1276 C1275 1.387 . S
C1276 C1277 1.369 . S
C1276 H1285 0.929 . S
C1277 N1274 1.346 . S
C1277 C1276 1.369 . S
C1277 H1280 0.928 . S
C1278 N1274 1.345 . S
C1278 C1279 1.371 . S
C1278 H1281 0.931 . S
C1279 C1275 1.391 . S
C1279 C1278 1.371 . S
C1279 H1286 0.930 . S
H1280 C1277 0.928 . S
H1281 C1278 0.931 . S
H1282 C1258 0.930 . S
H1283 C1255 0.930 . S
H1284 C1264 0.930 . S
H1285 C1276 0.929 . S
H1286 C1279 0.930 . S
C1287 C1288 1.351 . S
C1287 N1290 1.368 . S
C1287 H1292 0.931 . S
C1288 C1287 1.351 . S
C1288 N1289 1.373 . S
C1288 H1316 0.930 . S
N1289 C1288 1.373 . S
N1289 C1291 1.340 . S
N1290 C1287 1.368 . S
N1290 C1291 1.321 . S
N1290 Co1293 2.135 . S
C1291 N1289 1.340 . S
C1291 N1290 1.321 . S
C1291 H1315 0.930 . S
H1292 C1287 0.931 . S
Co1293 N1290 2.135 . S
Co1293 N1296 2.121 . S
Co1293 O1301 2.055 . S
Co1293 O1304 2.039 . S
Co1293 N1307 2.140 . S
C1294 O1295 1.227 . S
C1294 O1304 1.265 . S
O1295 C1294 1.227 . S
N1296 Co1293 2.121 . S
N1296 C1298 1.375 . S
N1296 C1299 1.313 . S
C1297 C1298 1.338 . S
C1297 N1300 1.377 . S
C1297 H1317 0.930 . S
C1298 N1296 1.375 . S
C1298 C1297 1.338 . S
C1298 H1302 0.931 . S
C1299 N1296 1.313 . S
C1299 N1300 1.344 . S
C1299 H1303 0.930 . S
N1300 C1297 1.377 . S
N1300 C1299 1.344 . S
O1301 Co1293 2.055 . S
O1301 C1305 1.253 . S
H1302 C1298 0.931 . S
H1303 C1299 0.930 . S
O1304 Co1293 2.039 . S
O1304 C1294 1.265 . S
C1305 O1301 1.253 . S
C1305 O1306 1.227 . S
O1306 C1305 1.227 . S
N1307 Co1293 2.140 . S
N1307 C1310 1.346 . S
N1307 C1311 1.345 . S
C1308 C1309 1.387 . S
C1308 C1312 1.391 . S
C1309 C1308 1.387 . S
C1309 C1310 1.369 . S
C1309 H1318 0.929 . S
C1310 N1307 1.346 . S
C1310 C1309 1.369 . S
C1310 H1313 0.928 . S
C1311 N1307 1.345 . S
C1311 C1312 1.371 . S
C1311 H1314 0.931 . S
C1312 C1308 1.391 . S
C1312 C1311 1.371 . S
C1312 H1319 0.930 . S
H1313 C1310 0.928 . S
H1314 C1311 0.931 . S
H1315 C1291 0.930 . S
H1316 C1288 0.930 . S
H1317 C1297 0.930 . S
H1318 C1309 0.929 . S
H1319 C1312 0.930 . S
C1320 C1321 1.351 . S
C1320 N1323 1.368 . S
C1320 H1325 0.931 . S
C1321 C1320 1.351 . S
C1321 N1322 1.373 . S
C1321 H1349 0.930 . S
N1322 C1321 1.373 . S
N1322 C1324 1.340 . S
N1323 C1320 1.368 . S
N1323 C1324 1.321 . S
N1323 Co1326 2.135 . S
C1324 N1322 1.340 . S
C1324 N1323 1.321 . S
C1324 H1348 0.930 . S
H1325 C1320 0.931 . S
Co1326 N1323 2.135 . S
Co1326 N1329 2.121 . S
Co1326 O1334 2.055 . S
Co1326 O1337 2.039 . S
Co1326 N1340 2.140 . S
C1327 O1328 1.227 . S
C1327 O1337 1.265 . S
O1328 C1327 1.227 . S
N1329 Co1326 2.121 . S
N1329 C1331 1.375 . S
N1329 C1332 1.313 . S
C1330 C1331 1.338 . S
C1330 N1333 1.377 . S
C1330 H1350 0.930 . S
C1331 N1329 1.375 . S
C1331 C1330 1.338 . S
C1331 H1335 0.931 . S
C1332 N1329 1.313 . S
C1332 N1333 1.344 . S
C1332 H1336 0.930 . S
N1333 C1330 1.377 . S
N1333 C1332 1.344 . S
O1334 Co1326 2.055 . S
O1334 C1338 1.253 . S
H1335 C1331 0.931 . S
H1336 C1332 0.930 . S
O1337 Co1326 2.039 . S
O1337 C1327 1.265 . S
C1338 O1334 1.253 . S
C1338 O1339 1.227 . S
O1339 C1338 1.227 . S
N1340 Co1326 2.140 . S
N1340 C1343 1.346 . S
N1340 C1344 1.345 . S
C1341 C1342 1.387 . S
C1341 C1345 1.391 . S
C1342 C1341 1.387 . S
C1342 C1343 1.369 . S
C1342 H1351 0.929 . S
C1343 N1340 1.346 . S
C1343 C1342 1.369 . S
C1343 H1346 0.928 . S
C1344 N1340 1.345 . S
C1344 C1345 1.371 . S
C1344 H1347 0.931 . S
C1345 C1341 1.391 . S
C1345 C1344 1.371 . S
C1345 H1352 0.930 . S
H1346 C1343 0.928 . S
H1347 C1344 0.931 . S
H1348 C1324 0.930 . S
H1349 C1321 0.930 . S
H1350 C1330 0.930 . S
H1351 C1342 0.929 . S
H1352 C1345 0.930 . S
C1353 C1354 1.351 . S
C1353 N1356 1.368 . S
C1353 H1358 0.931 . S
C1354 C1353 1.351 . S
C1354 N1355 1.373 . S
C1354 H1382 0.930 . S
N1355 C1354 1.373 . S
N1355 C1357 1.340 . S
N1356 C1353 1.368 . S
N1356 C1357 1.321 . S
N1356 Co1359 2.135 . S
C1357 N1355 1.340 . S
C1357 N1356 1.321 . S
C1357 H1381 0.930 . S
H1358 C1353 0.931 . S
Co1359 N1356 2.135 . S
Co1359 N1362 2.121 . S
Co1359 O1367 2.055 . S
Co1359 O1370 2.039 . S
Co1359 N1373 2.140 . S
C1360 O1361 1.227 . S
C1360 O1370 1.265 . S
O1361 C1360 1.227 . S
N1362 Co1359 2.121 . S
N1362 C1364 1.375 . S
N1362 C1365 1.313 . S
C1363 C1364 1.338 . S
C1363 N1366 1.377 . S
C1363 H1383 0.930 . S
C1364 N1362 1.375 . S
C1364 C1363 1.338 . S
C1364 H1368 0.931 . S
C1365 N1362 1.313 . S
C1365 N1366 1.344 . S
C1365 H1369 0.930 . S
N1366 C1363 1.377 . S
N1366 C1365 1.344 . S
O1367 Co1359 2.055 . S
O1367 C1371 1.253 . S
H1368 C1364 0.931 . S
H1369 C1365 0.930 . S
O1370 Co1359 2.039 . S
O1370 C1360 1.265 . S
C1371 O1367 1.253 . S
C1371 O1372 1.227 . S
O1372 C1371 1.227 . S
N1373 Co1359 2.140 . S
N1373 C1376 1.346 . S
N1373 C1377 1.345 . S
C1374 C1375 1.387 . S
C1374 C1378 1.391 . S
C1375 C1374 1.387 . S
C1375 C1376 1.369 . S
C1375 H1384 0.929 . S
C1376 N1373 1.346 . S
C1376 C1375 1.369 . S
C1376 H1379 0.928 . S
C1377 N1373 1.345 . S
C1377 C1378 1.371 . S
C1377 H1380 0.931 . S
C1378 C1374 1.391 . S
C1378 C1377 1.371 . S
C1378 H1385 0.930 . S
H1379 C1376 0.928 . S
H1380 C1377 0.931 . S
H1381 C1357 0.930 . S
H1382 C1354 0.930 . S
H1383 C1363 0.930 . S
H1384 C1375 0.929 . S
H1385 C1378 0.930 . S
C1386 C1387 1.351 . S
C1386 N1389 1.368 . S
C1386 H1391 0.931 . S
C1387 C1386 1.351 . S
C1387 N1388 1.373 . S
C1387 H1415 0.930 . S
N1388 C1387 1.373 . S
N1388 C1390 1.340 . S
N1389 C1386 1.368 . S
N1389 C1390 1.321 . S
N1389 Co1392 2.135 . S
C1390 N1388 1.340 . S
C1390 N1389 1.321 . S
C1390 H1414 0.930 . S
H1391 C1386 0.931 . S
Co1392 N1389 2.135 . S
Co1392 N1395 2.121 . S
Co1392 O1400 2.055 . S
Co1392 O1403 2.039 . S
Co1392 N1406 2.140 . S
C1393 O1394 1.227 . S
C1393 O1403 1.265 . S
O1394 C1393 1.227 . S
N1395 Co1392 2.121 . S
N1395 C1397 1.375 . S
N1395 C1398 1.313 . S
C1396 C1397 1.338 . S
C1396 N1399 1.377 . S
C1396 H1416 0.930 . S
C1397 N1395 1.375 . S
C1397 C1396 1.338 . S
C1397 H1401 0.931 . S
C1398 N1395 1.313 . S
C1398 N1399 1.344 . S
C1398 H1402 0.930 . S
N1399 C1396 1.377 . S
N1399 C1398 1.344 . S
O1400 Co1392 2.055 . S
O1400 C1404 1.253 . S
H1401 C1397 0.931 . S
H1402 C1398 0.930 . S
O1403 Co1392 2.039 . S
O1403 C1393 1.265 . S
C1404 O1400 1.253 . S
C1404 O1405 1.227 . S
O1405 C1404 1.227 . S
N1406 Co1392 2.140 . S
N1406 C1409 1.346 . S
N1406 C1410 1.345 . S
C1407 C1408 1.387 . S
C1407 C1411 1.391 . S
C1408 C1407 1.387 . S
C1408 C1409 1.369 . S
C1408 H1417 0.929 . S
C1409 N1406 1.346 . S
C1409 C1408 1.369 . S
C1409 H1412 0.928 . S
C1410 N1406 1.345 . S
C1410 C1411 1.371 . S
C1410 H1413 0.931 . S
C1411 C1407 1.391 . S
C1411 C1410 1.371 . S
C1411 H1418 0.930 . S
H1412 C1409 0.928 . S
H1413 C1410 0.931 . S
H1414 C1390 0.930 . S
H1415 C1387 0.930 . S
H1416 C1396 0.930 . S
H1417 C1408 0.929 . S
H1418 C1411 0.930 . S
C1419 C1420 1.351 . S
C1419 N1422 1.368 1_554 S
C1419 H1424 0.931 . S
C1420 C1419 1.351 . S
C1420 N1421 1.373 1_554 S
C1420 H1448 0.930 . S
N1421 C1420 1.373 1_556 S
N1421 C1423 1.340 . S
N1422 C1419 1.368 1_556 S
N1422 C1423 1.321 . S
N1422 Co1425 2.135 . S
C1423 N1421 1.340 . S
C1423 N1422 1.321 . S
C1423 H1447 0.930 . S
H1424 C1419 0.931 . S
Co1425 N1422 2.135 . S
Co1425 N1428 2.121 . S
Co1425 O1433 2.055 . S
Co1425 O1436 2.039 . S
Co1425 N1439 2.140 1_556 S
C1426 O1427 1.227 . S
C1426 O1436 1.265 . S
O1427 C1426 1.227 . S
N1428 Co1425 2.121 . S
N1428 C1430 1.375 . S
N1428 C1431 1.313 . S
C1429 C1430 1.338 . S
C1429 N1432 1.377 . S
C1429 H1449 0.930 . S
C1430 N1428 1.375 . S
C1430 C1429 1.338 . S
C1430 H1434 0.931 . S
C1431 N1428 1.313 . S
C1431 N1432 1.344 . S
C1431 H1435 0.930 . S
N1432 C1429 1.377 . S
N1432 C1431 1.344 . S
O1433 Co1425 2.055 . S
O1433 C1437 1.253 1_556 S
H1434 C1430 0.931 . S
H1435 C1431 0.930 . S
O1436 Co1425 2.039 . S
O1436 C1426 1.265 . S
C1437 O1433 1.253 1_554 S
C1437 O1438 1.227 . S
O1438 C1437 1.227 . S
N1439 Co1425 2.140 1_554 S
N1439 C1442 1.346 . S
N1439 C1443 1.345 . S
C1440 C1441 1.387 . S
C1440 C1444 1.391 . S
C1441 C1440 1.387 . S
C1441 C1442 1.369 . S
C1441 H1450 0.929 . S
C1442 N1439 1.346 . S
C1442 C1441 1.369 . S
C1442 H1445 0.928 1_554 S
C1443 N1439 1.345 . S
C1443 C1444 1.371 . S
C1443 H1446 0.931 . S
C1444 C1440 1.391 . S
C1444 C1443 1.371 . S
C1444 H1451 0.930 . S
H1445 C1442 0.928 1_556 S
H1446 C1443 0.931 . S
H1447 C1423 0.930 . S
H1448 C1420 0.930 . S
H1449 C1429 0.930 . S
H1450 C1441 0.929 . S
H1451 C1444 0.930 . S
C1452 C1453 1.351 . S
C1452 N1455 1.368 . S
C1452 H1457 0.931 . S
C1453 C1452 1.351 . S
C1453 N1454 1.373 . S
C1453 H1481 0.930 . S
N1454 C1453 1.373 . S
N1454 C1456 1.340 . S
N1455 C1452 1.368 . S
N1455 C1456 1.321 . S
N1455 Co1458 2.135 . S
C1456 N1454 1.340 . S
C1456 N1455 1.321 . S
C1456 H1480 0.930 . S
H1457 C1452 0.931 . S
Co1458 N1455 2.135 . S
Co1458 N1461 2.121 . S
Co1458 O1466 2.055 . S
Co1458 O1469 2.039 . S
Co1458 N1472 2.140 . S
C1459 O1460 1.227 . S
C1459 O1469 1.265 . S
O1460 C1459 1.227 . S
N1461 Co1458 2.121 . S
N1461 C1463 1.375 . S
N1461 C1464 1.313 . S
C1462 C1463 1.338 . S
C1462 N1465 1.377 . S
C1462 H1482 0.930 . S
C1463 N1461 1.375 . S
C1463 C1462 1.338 . S
C1463 H1467 0.931 . S
C1464 N1461 1.313 . S
C1464 N1465 1.344 . S
C1464 H1468 0.930 . S
N1465 C1462 1.377 . S
N1465 C1464 1.344 . S
O1466 Co1458 2.055 . S
O1466 C1470 1.253 . S
H1467 C1463 0.931 . S
H1468 C1464 0.930 . S
O1469 Co1458 2.039 . S
O1469 C1459 1.265 . S
C1470 O1466 1.253 . S
C1470 O1471 1.227 . S
O1471 C1470 1.227 . S
N1472 Co1458 2.140 . S
N1472 C1475 1.346 . S
N1472 C1476 1.345 . S
C1473 C1474 1.387 . S
C1473 C1477 1.391 . S
C1474 C1473 1.387 . S
C1474 C1475 1.369 . S
C1474 H1483 0.929 . S
C1475 N1472 1.346 . S
C1475 C1474 1.369 . S
C1475 H1478 0.928 . S
C1476 N1472 1.345 . S
C1476 C1477 1.371 . S
C1476 H1479 0.931 . S
C1477 C1473 1.391 . S
C1477 C1476 1.371 . S
C1477 H1484 0.930 . S
H1478 C1475 0.928 . S
H1479 C1476 0.931 . S
H1480 C1456 0.930 . S
H1481 C1453 0.930 . S
H1482 C1462 0.930 . S
H1483 C1474 0.929 . S
H1484 C1477 0.930 . S
C1485 C1486 1.351 . S
C1485 N1488 1.368 1_556 S
C1485 H1490 0.931 . S
C1486 C1485 1.351 . S
C1486 N1487 1.373 1_556 S
C1486 H1514 0.930 . S
N1487 C1486 1.373 1_554 S
N1487 C1489 1.340 . S
N1488 C1485 1.368 1_554 S
N1488 C1489 1.321 . S
N1488 Co1491 2.135 . S
C1489 N1487 1.340 . S
C1489 N1488 1.321 . S
C1489 H1513 0.930 . S
H1490 C1485 0.931 . S
Co1491 N1488 2.135 . S
Co1491 N1494 2.121 . S
Co1491 O1499 2.055 . S
Co1491 O1502 2.039 . S
Co1491 N1505 2.140 1_554 S
C1492 O1493 1.227 . S
C1492 O1502 1.265 . S
O1493 C1492 1.227 . S
N1494 Co1491 2.121 . S
N1494 C1496 1.375 . S
N1494 C1497 1.313 . S
C1495 C1496 1.338 . S
C1495 N1498 1.377 . S
C1495 H1515 0.930 . S
C1496 N1494 1.375 . S
C1496 C1495 1.338 . S
C1496 H1500 0.931 . S
C1497 N1494 1.313 . S
C1497 N1498 1.344 . S
C1497 H1501 0.930 . S
N1498 C1495 1.377 . S
N1498 C1497 1.344 . S
O1499 Co1491 2.055 . S
O1499 C1503 1.253 1_554 S
H1500 C1496 0.931 . S
H1501 C1497 0.930 . S
O1502 Co1491 2.039 . S
O1502 C1492 1.265 . S
C1503 O1499 1.253 1_556 S
C1503 O1504 1.227 . S
O1504 C1503 1.227 . S
N1505 Co1491 2.140 1_556 S
N1505 C1508 1.346 . S
N1505 C1509 1.345 . S
C1506 C1507 1.387 . S
C1506 C1510 1.391 . S
C1507 C1506 1.387 . S
C1507 C1508 1.369 . S
C1507 H1516 0.929 . S
C1508 N1505 1.346 . S
C1508 C1507 1.369 . S
C1508 H1511 0.928 1_556 S
C1509 N1505 1.345 . S
C1509 C1510 1.371 . S
C1509 H1512 0.931 . S
C1510 C1506 1.391 . S
C1510 C1509 1.371 . S
C1510 H1517 0.930 . S
H1511 C1508 0.928 1_554 S
H1512 C1509 0.931 . S
H1513 C1489 0.930 . S
H1514 C1486 0.930 . S
H1515 C1495 0.930 . S
H1516 C1507 0.929 . S
H1517 C1510 0.930 . S
C1518 C1519 1.351 . S
C1518 N1521 1.368 . S
C1518 H1523 0.931 . S
C1519 C1518 1.351 . S
C1519 N1520 1.373 . S
C1519 H1547 0.930 . S
N1520 C1519 1.373 . S
N1520 C1522 1.340 . S
N1521 C1518 1.368 . S
N1521 C1522 1.321 . S
N1521 Co1524 2.135 . S
C1522 N1520 1.340 . S
C1522 N1521 1.321 . S
C1522 H1546 0.930 . S
H1523 C1518 0.931 . S
Co1524 N1521 2.135 . S
Co1524 N1527 2.121 . S
Co1524 O1532 2.055 . S
Co1524 O1535 2.039 . S
Co1524 N1538 2.140 . S
C1525 O1526 1.227 . S
C1525 O1535 1.265 . S
O1526 C1525 1.227 . S
N1527 Co1524 2.121 . S
N1527 C1529 1.375 . S
N1527 C1530 1.313 . S
C1528 C1529 1.338 . S
C1528 N1531 1.377 . S
C1528 H1548 0.930 . S
C1529 N1527 1.375 . S
C1529 C1528 1.338 . S
C1529 H1533 0.931 . S
C1530 N1527 1.313 . S
C1530 N1531 1.344 . S
C1530 H1534 0.930 . S
N1531 C1528 1.377 . S
N1531 C1530 1.344 . S
O1532 Co1524 2.055 . S
O1532 C1536 1.253 . S
H1533 C1529 0.931 . S
H1534 C1530 0.930 . S
O1535 Co1524 2.039 . S
O1535 C1525 1.265 . S
C1536 O1532 1.253 . S
C1536 O1537 1.227 . S
O1537 C1536 1.227 . S
N1538 Co1524 2.140 . S
N1538 C1541 1.346 . S
N1538 C1542 1.345 . S
C1539 C1540 1.387 . S
C1539 C1543 1.391 . S
C1540 C1539 1.387 . S
C1540 C1541 1.369 . S
C1540 H1549 0.929 . S
C1541 N1538 1.346 . S
C1541 C1540 1.369 . S
C1541 H1544 0.928 . S
C1542 N1538 1.345 . S
C1542 C1543 1.371 . S
C1542 H1545 0.931 . S
C1543 C1539 1.391 . S
C1543 C1542 1.371 . S
C1543 H1550 0.930 . S
H1544 C1541 0.928 . S
H1545 C1542 0.931 . S
H1546 C1522 0.930 . S
H1547 C1519 0.930 . S
H1548 C1528 0.930 . S
H1549 C1540 0.929 . S
H1550 C1543 0.930 . S
C1551 C1552 1.351 . S
C1551 N1554 1.368 . S
C1551 H1556 0.931 . S
C1552 C1551 1.351 . S
C1552 N1553 1.373 . S
C1552 H1580 0.930 . S
N1553 C1552 1.373 . S
N1553 C1555 1.340 . S
N1554 C1551 1.368 . S
N1554 C1555 1.321 . S
N1554 Co1557 2.135 . S
C1555 N1553 1.340 . S
C1555 N1554 1.321 . S
C1555 H1579 0.930 . S
H1556 C1551 0.931 . S
Co1557 N1554 2.135 . S
Co1557 N1560 2.121 . S
Co1557 O1565 2.055 . S
Co1557 O1568 2.039 . S
Co1557 N1571 2.140 . S
C1558 O1559 1.227 . S
C1558 O1568 1.265 . S
O1559 C1558 1.227 . S
N1560 Co1557 2.121 . S
N1560 C1562 1.375 . S
N1560 C1563 1.313 . S
C1561 C1562 1.338 . S
C1561 N1564 1.377 . S
C1561 H1581 0.930 . S
C1562 N1560 1.375 . S
C1562 C1561 1.338 . S
C1562 H1566 0.931 . S
C1563 N1560 1.313 . S
C1563 N1564 1.344 . S
C1563 H1567 0.930 . S
N1564 C1561 1.377 . S
N1564 C1563 1.344 . S
O1565 Co1557 2.055 . S
O1565 C1569 1.253 . S
H1566 C1562 0.931 . S
H1567 C1563 0.930 . S
O1568 Co1557 2.039 . S
O1568 C1558 1.265 . S
C1569 O1565 1.253 . S
C1569 O1570 1.227 . S
O1570 C1569 1.227 . S
N1571 Co1557 2.140 . S
N1571 C1574 1.346 . S
N1571 C1575 1.345 . S
C1572 C1573 1.387 . S
C1572 C1576 1.391 . S
C1573 C1572 1.387 . S
C1573 C1574 1.369 . S
C1573 H1582 0.929 . S
C1574 N1571 1.346 . S
C1574 C1573 1.369 . S
C1574 H1577 0.928 . S
C1575 N1571 1.345 . S
C1575 C1576 1.371 . S
C1575 H1578 0.931 . S
C1576 C1572 1.391 . S
C1576 C1575 1.371 . S
C1576 H1583 0.930 . S
H1577 C1574 0.928 . S
H1578 C1575 0.931 . S
H1579 C1555 0.930 . S
H1580 C1552 0.930 . S
H1581 C1561 0.930 . S
H1582 C1573 0.929 . S
H1583 C1576 0.930 . S
C1584 C1585 1.363 . S
C1584 C1590 1.379 . S
C1584 N1592 1.356 . S
C1585 C1584 1.363 . S
C1585 C1591 1.363 . S
C1586 C1587 1.363 . S
C1586 C1591 1.379 . S
C1586 N1593 1.356 . S
C1587 C1586 1.363 . S
C1587 C1590 1.363 . S
N1588 C1590 1.355 1_565 S
N1588 H1600 0.985 . S
N1588 H1601 0.985 . S
N1589 C1591 1.356 . S
N1589 H1594 0.984 . S
N1589 H1595 0.985 . S
C1590 C1584 1.379 . S
C1590 C1587 1.363 . S
C1590 N1588 1.355 1_545 S
C1591 C1585 1.363 . S
C1591 C1586 1.379 . S
C1591 N1589 1.356 . S
N1592 C1584 1.356 . S
N1592 H1598 0.984 . S
N1592 H1599 0.984 . S
N1593 C1586 1.356 . S
N1593 H1596 0.984 . S
N1593 H1597 0.985 . S
H1594 N1589 0.984 . S
H1595 N1589 0.985 . S
H1596 N1593 0.984 . S
H1597 N1593 0.985 . S
H1598 N1592 0.984 . S
H1599 N1592 0.984 . S
H1600 N1588 0.985 . S
H1601 N1588 0.985 . S
C1602 C1603 1.363 . S
C1602 C1608 1.379 . S
C1602 N1610 1.356 . S
C1603 C1602 1.363 . S
C1603 C1609 1.363 . S
C1604 C1605 1.363 . S
C1604 C1609 1.379 . S
C1604 N1611 1.356 . S
C1605 C1604 1.363 . S
C1605 C1608 1.363 . S
N1606 C1608 1.356 . S
N1606 H1618 0.984 . S
N1606 H1619 0.985 . S
N1607 C1609 1.356 . S
N1607 H1612 0.984 . S
N1607 H1613 0.985 . S
C1608 C1602 1.379 . S
C1608 C1605 1.363 . S
C1608 N1606 1.356 . S
C1609 C1603 1.363 . S
C1609 C1604 1.379 . S
C1609 N1607 1.356 . S
N1610 C1602 1.356 . S
N1610 H1616 0.984 . S
N1610 H1617 0.984 . S
N1611 C1604 1.356 . S
N1611 H1614 0.984 . S
N1611 H1615 0.985 . S
H1612 N1607 0.984 . S
H1613 N1607 0.985 . S
H1614 N1611 0.984 . S
H1615 N1611 0.985 . S
H1616 N1610 0.984 . S
H1617 N1610 0.984 . S
H1618 N1606 0.984 . S
H1619 N1606 0.985 . S
C1620 C1621 1.363 . S
C1620 C1626 1.379 . S
C1620 N1628 1.356 1_556 S
C1621 C1620 1.363 . S
C1621 C1627 1.363 . S
C1622 C1623 1.363 . S
C1622 C1627 1.379 . S
C1622 N1629 1.356 . S
C1623 C1622 1.363 . S
C1623 C1626 1.363 . S
N1624 C1626 1.356 . S
N1624 H1636 0.984 1_556 S
N1624 H1637 0.985 . S
N1625 C1627 1.356 . S
N1625 H1630 0.984 . S
N1625 H1631 0.985 . S
C1626 C1620 1.379 . S
C1626 C1623 1.363 . S
C1626 N1624 1.356 . S
C1627 C1621 1.363 . S
C1627 C1622 1.379 . S
C1627 N1625 1.356 . S
N1628 C1620 1.356 1_554 S
N1628 H1634 0.992 . S
N1628 H1635 0.984 1_565 S
N1629 C1622 1.356 . S
N1629 H1632 0.984 . S
N1629 H1633 0.985 . S
H1630 N1625 0.984 . S
H1631 N1625 0.985 . S
H1632 N1629 0.984 . S
H1633 N1629 0.985 . S
H1634 N1628 0.992 . S
H1635 N1628 0.984 1_545 S
H1636 N1624 0.984 1_554 S
H1637 N1624 0.985 . S
C1638 C1639 1.363 . S
C1638 C1644 1.379 . S
C1638 N1646 1.356 . S
C1639 C1638 1.363 . S
C1639 C1645 1.363 . S
C1640 C1641 1.363 . S
C1640 C1645 1.379 . S
C1640 N1647 1.356 . S
C1641 C1640 1.363 . S
C1641 C1644 1.363 . S
N1642 C1644 1.356 . S
N1642 H1654 0.984 . S
N1642 H1655 0.985 . S
N1643 C1645 1.356 . S
N1643 H1648 0.984 . S
N1643 H1649 0.985 . S
C1644 C1638 1.379 . S
C1644 C1641 1.363 . S
C1644 N1642 1.356 . S
C1645 C1639 1.363 . S
C1645 C1640 1.379 . S
C1645 N1643 1.356 . S
N1646 C1638 1.356 . S
N1646 H1652 0.984 . S
N1646 H1653 0.984 . S
N1647 C1640 1.356 . S
N1647 H1650 0.984 . S
N1647 H1651 0.985 . S
H1648 N1643 0.984 . S
H1649 N1643 0.985 . S
H1650 N1647 0.984 . S
H1651 N1647 0.985 . S
H1652 N1646 0.984 . S
H1653 N1646 0.984 . S
H1654 N1642 0.984 . S
H1655 N1642 0.985 . S
C1656 C1657 1.363 . S
C1656 C1662 1.379 . S
C1656 N1664 1.356 . S
C1657 C1656 1.363 . S
C1657 C1663 1.363 . S
C1658 C1659 1.363 . S
C1658 C1663 1.379 . S
C1658 N1665 1.356 . S
C1659 C1658 1.363 . S
C1659 C1662 1.363 . S
N1660 C1662 1.356 . S
N1660 H1672 0.984 . S
N1660 H1673 0.985 . S
N1661 C1663 1.356 1_545 S
N1661 H1666 0.984 . S
N1661 H1667 0.985 . S
C1662 C1656 1.379 . S
C1662 C1659 1.363 . S
C1662 N1660 1.356 . S
C1663 C1657 1.363 . S
C1663 C1658 1.379 . S
C1663 N1661 1.356 1_565 S
N1664 C1656 1.356 . S
N1664 H1670 0.984 . S
N1664 H1671 0.984 . S
N1665 C1658 1.356 . S
N1665 H1668 0.984 . S
N1665 H1669 0.985 . S
H1666 N1661 0.984 . S
H1667 N1661 0.985 . S
H1668 N1665 0.984 . S
H1669 N1665 0.985 . S
H1670 N1664 0.984 . S
H1671 N1664 0.984 . S
H1672 N1660 0.984 . S
H1673 N1660 0.985 . S
C1674 C1675 1.363 . S
C1674 C1680 1.379 . S
C1674 N1682 1.356 . S
C1675 C1674 1.363 . S
C1675 C1681 1.363 . S
C1676 C1677 1.363 . S
C1676 C1681 1.379 . S
C1676 N1683 1.356 . S
C1677 C1676 1.363 . S
C1677 C1680 1.363 . S
N1678 C1680 1.356 . S
N1678 H1690 0.984 . S
N1678 H1691 0.985 . S
N1679 C1681 1.356 . S
N1679 H1684 0.984 . S
N1679 H1685 0.985 . S
C1680 C1674 1.379 . S
C1680 C1677 1.363 . S
C1680 N1678 1.356 . S
C1681 C1675 1.363 . S
C1681 C1676 1.379 . S
C1681 N1679 1.356 . S
N1682 C1674 1.356 . S
N1682 H1688 0.984 . S
N1682 H1689 0.984 . S
N1683 C1676 1.356 . S
N1683 H1686 0.984 . S
N1683 H1687 0.985 . S
H1684 N1679 0.984 . S
H1685 N1679 0.985 . S
H1686 N1683 0.984 . S
H1687 N1683 0.985 . S
H1688 N1682 0.984 . S
H1689 N1682 0.984 . S
H1690 N1678 0.984 . S
H1691 N1678 0.985 . S
C1692 C1693 1.363 . S
C1692 C1698 1.379 . S
C1692 N1700 1.356 1_545 S
C1693 C1692 1.363 . S
C1693 C1699 1.363 . S
C1694 C1695 1.363 . S
C1694 C1699 1.379 . S
C1694 N1701 1.356 . S
C1695 C1694 1.363 . S
C1695 C1698 1.363 . S
N1696 C1698 1.356 . S
N1696 H1708 0.984 . S
N1696 H1709 0.985 . S
N1697 C1699 1.356 . S
N1697 H1702 0.984 . S
N1697 H1703 0.985 . S
C1698 C1692 1.379 . S
C1698 C1695 1.363 . S
C1698 N1696 1.356 . S
C1699 C1693 1.363 . S
C1699 C1694 1.379 . S
C1699 N1697 1.356 . S
N1700 C1692 1.356 1_565 S
N1700 H1706 0.984 . S
N1700 H1707 0.984 . S
N1701 C1694 1.356 . S
N1701 H1704 0.984 . S
N1701 H1705 0.985 . S
H1702 N1697 0.984 . S
H1703 N1697 0.985 . S
H1704 N1701 0.984 . S
H1705 N1701 0.985 . S
H1706 N1700 0.984 . S
H1707 N1700 0.984 . S
H1708 N1696 0.984 . S
H1709 N1696 0.985 . S
C1710 C1711 1.363 . S
C1710 C1716 1.379 . S
C1710 N1718 1.356 . S
C1711 C1710 1.363 . S
C1711 C1717 1.363 . S
C1712 C1713 1.363 . S
C1712 C1717 1.379 . S
C1712 N1719 1.356 . S
C1713 C1712 1.363 . S
C1713 C1716 1.363 . S
N1714 C1716 1.356 . S
N1714 H1726 0.984 . S
N1714 H1727 0.985 . S
N1715 C1717 1.356 . S
N1715 H1720 0.984 . S
N1715 H1721 0.985 . S
C1716 C1710 1.379 . S
C1716 C1713 1.363 . S
C1716 N1714 1.356 . S
C1717 C1711 1.363 . S
C1717 C1712 1.379 . S
C1717 N1715 1.356 . S
N1718 C1710 1.356 . S
N1718 H1724 0.984 . S
N1718 H1725 0.984 . S
N1719 C1712 1.356 . S
N1719 H1722 0.984 . S
N1719 H1723 0.985 . S
H1720 N1715 0.984 . S
H1721 N1715 0.985 . S
H1722 N1719 0.984 . S
H1723 N1719 0.985 . S
H1724 N1718 0.984 . S
H1725 N1718 0.984 . S
H1726 N1714 0.984 . S
H1727 N1714 0.985 . S
C1728 C1729 1.363 . S
C1728 C1734 1.379 . S
C1728 N1736 1.356 . S
C1729 C1728 1.363 . S
C1729 C1735 1.363 . S
C1730 C1731 1.363 . S
C1730 C1735 1.379 . S
C1730 N1737 1.356 . S
C1731 C1730 1.363 . S
C1731 C1734 1.363 . S
N1732 C1734 1.356 . S
N1732 H1744 0.984 1_554 S
N1732 H1745 0.985 1_554 S
N1733 C1735 1.356 . S
N1733 H1738 0.984 . S
N1733 H1739 0.985 . S
C1734 C1728 1.379 . S
C1734 C1731 1.363 . S
C1734 N1732 1.356 . S
C1735 C1729 1.363 . S
C1735 C1730 1.379 . S
C1735 N1733 1.356 . S
N1736 C1728 1.356 . S
N1736 H1742 0.984 . S
N1736 H1743 0.984 . S
N1737 C1730 1.356 . S
N1737 H1740 0.984 . S
N1737 H1741 0.985 . S
H1738 N1733 0.984 . S
H1739 N1733 0.985 . S
H1740 N1737 0.984 . S
H1741 N1737 0.985 . S
H1742 N1736 0.984 . S
H1743 N1736 0.984 . S
H1744 N1732 0.984 1_556 S
H1745 N1732 0.985 1_556 S
C1746 C1747 1.363 . S
C1746 C1752 1.379 . S
C1746 N1754 1.356 . S
C1747 C1746 1.363 . S
C1747 C1753 1.363 . S
C1748 C1749 1.363 . S
C1748 C1753 1.379 . S
C1748 N1755 1.356 . S
C1749 C1748 1.363 . S
C1749 C1752 1.363 . S
N1750 C1752 1.356 . S
N1750 H1762 0.984 . S
N1750 H1763 0.985 . S
N1751 C1753 1.356 . S
N1751 H1756 0.984 . S
N1751 H1757 0.985 . S
C1752 C1746 1.379 . S
C1752 C1749 1.363 . S
C1752 N1750 1.356 . S
C1753 C1747 1.363 . S
C1753 C1748 1.379 . S
C1753 N1751 1.356 . S
N1754 C1746 1.356 . S
N1754 H1760 0.984 . S
N1754 H1761 0.984 . S
N1755 C1748 1.356 . S
N1755 H1758 0.984 . S
N1755 H1759 0.985 . S
H1756 N1751 0.984 . S
H1757 N1751 0.985 . S
H1758 N1755 0.984 . S
H1759 N1755 0.985 . S
H1760 N1754 0.984 . S
H1761 N1754 0.984 . S
H1762 N1750 0.984 . S
H1763 N1750 0.985 . S
C1764 C1765 1.363 . S
C1764 C1770 1.379 . S
C1764 N1772 1.356 . S
C1765 C1764 1.363 . S
C1765 C1771 1.363 . S
C1766 C1767 1.363 . S
C1766 C1771 1.379 . S
C1766 N1773 1.356 . S
C1767 C1766 1.363 . S
C1767 C1770 1.363 . S
N1768 C1770 1.356 . S
N1768 H1780 0.984 . S
N1768 H1781 0.985 . S
N1769 C1771 1.356 . S
N1769 H1774 0.986 1_455 S
N1769 H1775 0.985 . S
C1770 C1764 1.379 . S
C1770 C1767 1.363 . S
C1770 N1768 1.356 . S
C1771 C1765 1.363 . S
C1771 C1766 1.379 . S
C1771 N1769 1.356 . S
N1772 C1764 1.356 . S
N1772 H1778 0.984 . S
N1772 H1779 0.984 . S
N1773 C1766 1.356 . S
N1773 H1776 0.984 . S
N1773 H1777 0.985 . S
H1774 N1769 0.986 1_655 S
H1775 N1769 0.985 . S
H1776 N1773 0.984 . S
H1777 N1773 0.985 . S
H1778 N1772 0.984 . S
H1779 N1772 0.984 . S
H1780 N1768 0.984 . S
H1781 N1768 0.985 . S
C1782 C1783 1.363 . S
C1782 C1788 1.379 . S
C1782 N1790 1.356 . S
C1783 C1782 1.363 . S
C1783 C1789 1.363 . S
C1784 C1785 1.363 . S
C1784 C1789 1.379 . S
C1784 N1791 1.356 . S
C1785 C1784 1.363 . S
C1785 C1788 1.363 . S
N1786 C1788 1.356 . S
N1786 H1798 0.984 . S
N1786 H1799 0.985 . S
N1787 C1789 1.356 . S
N1787 H1792 0.984 . S
N1787 H1793 0.985 . S
C1788 C1782 1.379 . S
C1788 C1785 1.363 . S
C1788 N1786 1.356 . S
C1789 C1783 1.363 . S
C1789 C1784 1.379 . S
C1789 N1787 1.356 . S
N1790 C1782 1.356 . S
N1790 H1796 0.984 . S
N1790 H1797 0.984 . S
N1791 C1784 1.356 . S
N1791 H1794 0.984 . S
N1791 H1795 0.985 . S
H1792 N1787 0.984 . S
H1793 N1787 0.985 . S
H1794 N1791 0.984 . S
H1795 N1791 0.985 . S
H1796 N1790 0.984 . S
H1797 N1790 0.984 . S
H1798 N1786 0.984 . S
H1799 N1786 0.985 . S
C1800 C1801 1.363 . S
C1800 C1806 1.379 . S
C1800 N1808 1.356 . S
C1801 C1800 1.363 . S
C1801 C1807 1.363 . S
C1802 C1803 1.363 . S
C1802 C1807 1.379 . S
C1802 N1809 1.356 . S
C1803 C1802 1.363 . S
C1803 C1806 1.363 . S
N1804 C1806 1.356 . S
N1804 H1816 0.984 . S
N1804 H1817 0.985 . S
N1805 C1807 1.356 . S
N1805 H1810 0.984 . S
N1805 H1811 0.985 . S
C1806 C1800 1.379 . S
C1806 C1803 1.363 . S
C1806 N1804 1.356 . S
C1807 C1801 1.363 . S
C1807 C1802 1.379 . S
C1807 N1805 1.356 . S
N1808 C1800 1.356 . S
N1808 H1814 0.984 . S
N1808 H1815 0.984 . S
N1809 C1802 1.356 . S
N1809 H1812 0.984 . S
N1809 H1813 0.985 . S
H1810 N1805 0.984 . S
H1811 N1805 0.985 . S
H1812 N1809 0.984 . S
H1813 N1809 0.985 . S
H1814 N1808 0.984 . S
H1815 N1808 0.984 . S
H1816 N1804 0.984 . S
H1817 N1804 0.985 . S
C1818 C1819 1.363 . S
C1818 C1824 1.379 . S
C1818 N1826 1.356 . S
C1819 C1818 1.363 . S
C1819 C1825 1.363 . S
C1820 C1821 1.363 . S
C1820 C1825 1.379 . S
C1820 N1827 1.356 . S
C1821 C1820 1.363 . S
C1821 C1824 1.363 . S
N1822 C1824 1.356 . S
N1822 H1834 0.984 . S
N1822 H1835 0.985 . S
N1823 C1825 1.356 . S
N1823 H1828 0.984 . S
N1823 H1829 0.985 . S
C1824 C1818 1.379 . S
C1824 C1821 1.363 . S
C1824 N1822 1.356 . S
C1825 C1819 1.363 . S
C1825 C1820 1.379 . S
C1825 N1823 1.356 . S
N1826 C1818 1.356 . S
N1826 H1832 0.984 . S
N1826 H1833 0.984 . S
N1827 C1820 1.356 . S
N1827 H1830 0.984 . S
N1827 H1831 0.985 . S
H1828 N1823 0.984 . S
H1829 N1823 0.985 . S
H1830 N1827 0.984 . S
H1831 N1827 0.985 . S
H1832 N1826 0.984 . S
H1833 N1826 0.984 . S
H1834 N1822 0.984 . S
H1835 N1822 0.985 . S
C1836 C1837 1.363 . S
C1836 C1842 1.379 . S
C1836 N1844 1.356 . S
C1837 C1836 1.363 . S
C1837 C1843 1.363 . S
C1838 C1839 1.363 . S
C1838 C1843 1.379 . S
C1838 N1845 1.356 1_455 S
C1839 C1838 1.363 . S
C1839 C1842 1.363 . S
N1840 C1842 1.356 1_554 S
N1840 H1852 0.984 . S
N1840 H1853 0.985 . S
N1841 C1843 1.356 . S
N1841 H1846 0.984 . S
N1841 H1847 0.985 1_455 S
C1842 C1836 1.379 . S
C1842 C1839 1.363 . S
C1842 N1840 1.356 1_556 S
C1843 C1837 1.363 . S
C1843 C1838 1.379 . S
C1843 N1841 1.356 . S
N1844 C1836 1.356 . S
N1844 H1850 0.984 . S
N1844 H1851 0.984 . S
N1845 C1838 1.356 1_655 S
N1845 H1848 0.984 . S
N1845 H1849 0.985 . S
H1846 N1841 0.984 . S
H1847 N1841 0.985 1_655 S
H1848 N1845 0.984 . S
H1849 N1845 0.985 . S
H1850 N1844 0.984 . S
H1851 N1844 0.984 . S
H1852 N1840 0.984 . S
H1853 N1840 0.985 . S
C1854 C1855 1.363 . S
C1854 C1860 1.379 . S
C1854 N1862 1.356 . S
C1855 C1854 1.363 . S
C1855 C1861 1.363 . S
C1856 C1857 1.363 . S
C1856 C1861 1.379 . S
C1856 N1863 1.356 . S
C1857 C1856 1.363 . S
C1857 C1860 1.363 . S
N1858 C1860 1.356 . S
N1858 H1870 0.984 . S
N1858 H1871 0.985 . S
N1859 C1861 1.356 . S
N1859 H1864 0.984 . S
N1859 H1865 0.985 . S
C1860 C1854 1.379 . S
C1860 C1857 1.363 . S
C1860 N1858 1.356 . S
C1861 C1855 1.363 . S
C1861 C1856 1.379 . S
C1861 N1859 1.356 . S
N1862 C1854 1.356 . S
N1862 H1868 0.984 . S
N1862 H1869 0.984 . S
N1863 C1856 1.356 . S
N1863 H1866 0.984 . S
N1863 H1867 0.985 . S
H1864 N1859 0.984 . S
H1865 N1859 0.985 . S
H1866 N1863 0.984 . S
H1867 N1863 0.985 . S
H1868 N1862 0.984 . S
H1869 N1862 0.984 . S
H1870 N1858 0.984 . S
H1871 N1858 0.985 . S
C1872 C1873 1.363 . S
C1872 C1878 1.379 . S
C1872 N1880 1.356 . S
C1873 C1872 1.363 . S
C1873 C1879 1.363 . S
C1874 C1875 1.363 . S
C1874 C1879 1.379 . S
C1874 N1881 1.356 . S
C1875 C1874 1.363 . S
C1875 C1878 1.363 . S
N1876 C1878 1.356 1_655 S
N1876 H1888 0.984 . S
N1876 H1889 0.985 . S
N1877 C1879 1.356 . S
N1877 H1882 0.984 . S
N1877 H1883 0.985 . S
C1878 C1872 1.379 . S
C1878 C1875 1.363 . S
C1878 N1876 1.356 1_455 S
C1879 C1873 1.363 . S
C1879 C1874 1.379 . S
C1879 N1877 1.356 . S
N1880 C1872 1.356 . S
N1880 H1886 0.984 . S
N1880 H1887 0.984 . S
N1881 C1874 1.356 . S
N1881 H1884 0.984 . S
N1881 H1885 0.985 . S
H1882 N1877 0.984 . S
H1883 N1877 0.985 . S
H1884 N1881 0.984 . S
H1885 N1881 0.985 . S
H1886 N1880 0.984 . S
H1887 N1880 0.984 . S
H1888 N1876 0.984 . S
H1889 N1876 0.985 . S
C1890 C1891 1.370 . S
C1890 C1896 1.383 . S
C1890 N1898 1.346 1_545 S
C1891 C1890 1.370 . S
C1891 C1897 1.363 . S
C1892 C1893 1.363 . S
C1892 C1897 1.379 . S
C1892 N1899 1.356 . S
C1893 C1892 1.363 . S
C1893 C1896 1.363 . S
N1894 C1896 1.362 . S
N1894 H1906 0.970 1_545 S
N1894 H1907 0.994 . S
N1895 C1897 1.356 . S
N1895 H1900 0.984 . S
N1895 H1901 0.985 . S
C1896 C1890 1.383 . S
C1896 C1893 1.363 . S
C1896 N1894 1.362 . S
C1897 C1891 1.363 . S
C1897 C1892 1.379 . S
C1897 N1895 1.356 . S
N1898 C1890 1.346 1_565 S
N1898 H1904 0.984 . S
N1898 H1905 0.984 . S
N1899 C1892 1.356 . S
N1899 H1902 0.984 . S
N1899 H1903 0.985 . S
H1900 N1895 0.984 . S
H1901 N1895 0.985 . S
H1902 N1899 0.984 . S
H1903 N1899 0.985 . S
H1904 N1898 0.984 . S
H1905 N1898 0.984 . S
H1906 N1894 0.970 1_565 S
H1907 N1894 0.994 . S
C1908 C1909 1.363 . S
C1908 C1914 1.379 . S
C1908 N1916 1.356 . S
C1909 C1908 1.363 . S
C1909 C1915 1.363 . S
C1910 C1911 1.363 . S
C1910 C1915 1.379 . S
C1910 N1917 1.356 . S
C1911 C1910 1.363 . S
C1911 C1914 1.363 . S
N1912 C1914 1.356 . S
N1912 H1924 0.984 . S
N1912 H1925 0.985 . S
N1913 C1915 1.356 . S
N1913 H1918 0.984 . S
N1913 H1919 0.985 . S
C1914 C1908 1.379 . S
C1914 C1911 1.363 . S
C1914 N1912 1.356 . S
C1915 C1909 1.363 . S
C1915 C1910 1.379 . S
C1915 N1913 1.356 . S
N1916 C1908 1.356 . S
N1916 H1922 0.984 . S
N1916 H1923 0.984 . S
N1917 C1910 1.356 . S
N1917 H1920 0.984 . S
N1917 H1921 0.985 . S
H1918 N1913 0.984 . S
H1919 N1913 0.985 . S
H1920 N1917 0.984 . S
H1921 N1917 0.985 . S
H1922 N1916 0.984 . S
H1923 N1916 0.984 . S
H1924 N1912 0.984 . S
H1925 N1912 0.985 . S
C1926 C1927 1.363 . S
C1926 C1932 1.379 . S
C1926 N1934 1.356 . S
C1927 C1926 1.363 . S
C1927 C1933 1.363 . S
C1928 C1929 1.363 . S
C1928 C1933 1.379 . S
C1928 N1935 1.356 . S
C1929 C1928 1.363 . S
C1929 C1932 1.363 . S
N1930 C1932 1.356 . S
N1930 H1942 0.984 . S
N1930 H1943 0.985 . S
N1931 C1933 1.356 1_455 S
N1931 H1936 0.984 . S
N1931 H1937 0.985 . S
C1932 C1926 1.379 . S
C1932 C1929 1.363 . S
C1932 N1930 1.356 . S
C1933 C1927 1.363 . S
C1933 C1928 1.379 . S
C1933 N1931 1.356 1_655 S
N1934 C1926 1.356 . S
N1934 H1940 0.984 . S
N1934 H1941 0.984 . S
N1935 C1928 1.356 . S
N1935 H1938 0.984 . S
N1935 H1939 0.985 . S
H1936 N1931 0.984 . S
H1937 N1931 0.985 . S
H1938 N1935 0.984 . S
H1939 N1935 0.985 . S
H1940 N1934 0.984 . S
H1941 N1934 0.984 . S
H1942 N1930 0.984 . S
H1943 N1930 0.985 . S
C1944 C1945 1.363 . S
C1944 C1950 1.379 . S
C1944 N1952 1.356 . S
C1945 C1944 1.363 . S
C1945 C1951 1.363 . S
C1946 C1947 1.363 . S
C1946 C1951 1.379 . S
C1946 N1953 1.356 . S
C1947 C1946 1.363 . S
C1947 C1950 1.363 . S
N1948 C1950 1.356 . S
N1948 H1960 0.984 . S
N1948 H1961 0.985 . S
N1949 C1951 1.356 . S
N1949 H1954 0.984 . S
N1949 H1955 0.985 . S
C1950 C1944 1.379 . S
C1950 C1947 1.363 . S
C1950 N1948 1.356 . S
C1951 C1945 1.363 . S
C1951 C1946 1.379 . S
C1951 N1949 1.356 . S
N1952 C1944 1.356 . S
N1952 H1958 0.984 . S
N1952 H1959 0.984 . S
N1953 C1946 1.356 . S
N1953 H1956 0.984 . S
N1953 H1957 0.985 . S
H1954 N1949 0.984 . S
H1955 N1949 0.985 . S
H1956 N1953 0.984 . S
H1957 N1953 0.985 . S
H1958 N1952 0.984 . S
H1959 N1952 0.984 . S
H1960 N1948 0.984 . S
H1961 N1948 0.985 . S
C1962 C1963 1.363 . S
C1962 C1968 1.379 . S
C1962 N1970 1.356 . S
C1963 C1962 1.363 . S
C1963 C1969 1.363 . S
C1964 C1965 1.363 . S
C1964 C1969 1.379 . S
C1964 N1971 1.356 . S
C1965 C1964 1.363 . S
C1965 C1968 1.363 . S
N1966 C1968 1.356 . S
N1966 H1978 0.984 . S
N1966 H1979 0.985 . S
N1967 C1969 1.356 . S
N1967 H1972 0.984 . S
N1967 H1973 0.985 . S
C1968 C1962 1.379 . S
C1968 C1965 1.363 . S
C1968 N1966 1.356 . S
C1969 C1963 1.363 . S
C1969 C1964 1.379 . S
C1969 N1967 1.356 . S
N1970 C1962 1.356 . S
N1970 H1976 0.984 . S
N1970 H1977 0.984 . S
N1971 C1964 1.356 . S
N1971 H1974 0.984 . S
N1971 H1975 0.985 . S
H1972 N1967 0.984 . S
H1973 N1967 0.985 . S
H1974 N1971 0.984 . S
H1975 N1971 0.985 . S
H1976 N1970 0.984 . S
H1977 N1970 0.984 . S
H1978 N1966 0.984 . S
H1979 N1966 0.985 . S
C1980 C1981 1.363 . S
C1980 C1986 1.379 . S
C1980 N1988 1.356 . S
C1981 C1980 1.363 . S
C1981 C1987 1.363 . S
C1982 C1983 1.363 . S
C1982 C1987 1.379 . S
C1982 N1989 1.356 . S
C1983 C1982 1.363 . S
C1983 C1986 1.363 . S
N1984 C1986 1.356 . S
N1984 H1996 0.984 . S
N1984 H1997 0.985 . S
N1985 C1987 1.356 . S
N1985 H1990 0.984 . S
N1985 H1991 0.985 . S
C1986 C1980 1.379 . S
C1986 C1983 1.363 . S
C1986 N1984 1.356 . S
C1987 C1981 1.363 . S
C1987 C1982 1.379 . S
C1987 N1985 1.356 . S
N1988 C1980 1.356 . S
N1988 H1994 0.984 . S
N1988 H1995 0.984 . S
N1989 C1982 1.356 . S
N1989 H1992 0.984 . S
N1989 H1993 0.985 . S
H1990 N1985 0.984 . S
H1991 N1985 0.985 . S
H1992 N1989 0.984 . S
H1993 N1989 0.985 . S
H1994 N1988 0.984 . S
H1995 N1988 0.984 . S
H1996 N1984 0.984 . S
H1997 N1984 0.985 . S
C1998 C1999 1.363 . S
C1998 C2004 1.379 . S
C1998 N2006 1.356 . S
C1999 C1998 1.363 . S
C1999 C2005 1.363 . S
C2000 C2001 1.363 . S
C2000 C2005 1.379 . S
C2000 N2007 1.356 . S
C2001 C2000 1.363 . S
C2001 C2004 1.363 . S
N2002 C2004 1.356 . S
N2002 H2014 0.984 . S
N2002 H2015 0.985 . S
N2003 C2005 1.356 . S
N2003 H2008 0.984 . S
N2003 H2009 0.985 . S
C2004 C1998 1.379 . S
C2004 C2001 1.363 . S
C2004 N2002 1.356 . S
C2005 C1999 1.363 . S
C2005 C2000 1.379 . S
C2005 N2003 1.356 . S
N2006 C1998 1.356 . S
N2006 H2012 0.984 . S
N2006 H2013 0.984 . S
N2007 C2000 1.356 . S
N2007 H2010 0.984 . S
N2007 H2011 0.985 . S
H2008 N2003 0.984 . S
H2009 N2003 0.985 . S
H2010 N2007 0.984 . S
H2011 N2007 0.985 . S
H2012 N2006 0.984 . S
H2013 N2006 0.984 . S
H2014 N2002 0.984 . S
H2015 N2002 0.985 . S
C2016 C2017 1.363 . S
C2016 C2022 1.379 . S
C2016 N2024 1.356 . S
C2017 C2016 1.363 . S
C2017 C2023 1.363 . S
C2018 C2019 1.363 . S
C2018 C2023 1.379 . S
C2018 N2025 1.356 . S
C2019 C2018 1.363 . S
C2019 C2022 1.363 . S
N2020 C2022 1.356 1_554 S
N2020 H2032 0.984 . S
N2020 H2033 0.985 . S
N2021 C2023 1.356 . S
N2021 H2026 0.984 . S
N2021 H2027 0.985 . S
C2022 C2016 1.379 . S
C2022 C2019 1.363 . S
C2022 N2020 1.356 1_556 S
C2023 C2017 1.363 . S
C2023 C2018 1.379 . S
C2023 N2021 1.356 . S
N2024 C2016 1.356 . S
N2024 H2030 0.984 . S
N2024 H2031 0.984 . S
N2025 C2018 1.356 . S
N2025 H2028 0.984 . S
N2025 H2029 0.985 . S
H2026 N2021 0.984 . S
H2027 N2021 0.985 . S
H2028 N2025 0.984 . S
H2029 N2025 0.985 . S
H2030 N2024 0.984 . S
H2031 N2024 0.984 . S
H2032 N2020 0.984 . S
H2033 N2020 0.985 . S
C2034 C2035 1.363 . S
C2034 C2040 1.379 . S
C2034 N2042 1.356 . S
C2035 C2034 1.363 . S
C2035 C2041 1.363 . S
C2036 C2037 1.363 . S
C2036 C2041 1.379 . S
C2036 N2043 1.356 . S
C2037 C2036 1.363 . S
C2037 C2040 1.363 . S
N2038 C2040 1.356 . S
N2038 H2050 0.984 . S
N2038 H2051 0.985 . S
N2039 C2041 1.356 . S
N2039 H2044 0.984 . S
N2039 H2045 0.985 . S
C2040 C2034 1.379 . S
C2040 C2037 1.363 . S
C2040 N2038 1.356 . S
C2041 C2035 1.363 . S
C2041 C2036 1.379 . S
C2041 N2039 1.356 . S
N2042 C2034 1.356 . S
N2042 H2048 0.984 . S
N2042 H2049 0.984 . S
N2043 C2036 1.356 . S
N2043 H2046 0.984 . S
N2043 H2047 0.985 . S
H2044 N2039 0.984 . S
H2045 N2039 0.985 . S
H2046 N2043 0.984 . S
H2047 N2043 0.985 . S
H2048 N2042 0.984 . S
H2049 N2042 0.984 . S
H2050 N2038 0.984 . S
H2051 N2038 0.985 . S
C2052 C2053 1.363 . S
C2052 C2058 1.379 . S
C2052 N2060 1.356 . S
C2053 C2052 1.363 . S
C2053 C2059 1.363 . S
C2054 C2055 1.363 . S
C2054 C2059 1.379 . S
C2054 N2061 1.356 . S
C2055 C2054 1.363 . S
C2055 C2058 1.363 . S
N2056 C2058 1.356 . S
N2056 H2068 0.984 . S
N2056 H2069 0.985 . S
N2057 C2059 1.356 . S
N2057 H2062 0.984 . S
N2057 H2063 0.985 . S
C2058 C2052 1.379 . S
C2058 C2055 1.363 . S
C2058 N2056 1.356 . S
C2059 C2053 1.363 . S
C2059 C2054 1.379 . S
C2059 N2057 1.356 . S
N2060 C2052 1.356 . S
N2060 H2066 0.984 . S
N2060 H2067 0.984 . S
N2061 C2054 1.356 . S
N2061 H2064 0.984 . S
N2061 H2065 0.985 . S
H2062 N2057 0.984 . S
H2063 N2057 0.985 . S
H2064 N2061 0.984 . S
H2065 N2061 0.985 . S
H2066 N2060 0.984 . S
H2067 N2060 0.984 . S
H2068 N2056 0.984 . S
H2069 N2056 0.985 . S
C2070 C2071 1.363 . S
C2070 C2076 1.379 . S
C2070 N2078 1.356 . S
C2071 C2070 1.363 . S
C2071 C2077 1.363 . S
C2072 C2073 1.363 . S
C2072 C2077 1.379 . S
C2072 N2079 1.356 . S
C2073 C2072 1.363 . S
C2073 C2076 1.363 . S
N2074 C2076 1.356 . S
N2074 H2086 0.984 . S
N2074 H2087 0.985 . S
N2075 C2077 1.356 . S
N2075 H2080 0.984 . S
N2075 H2081 0.985 . S
C2076 C2070 1.379 . S
C2076 C2073 1.363 . S
C2076 N2074 1.356 . S
C2077 C2071 1.363 . S
C2077 C2072 1.379 . S
C2077 N2075 1.356 . S
N2078 C2070 1.356 . S
N2078 H2084 0.984 . S
N2078 H2085 0.984 . S
N2079 C2072 1.356 . S
N2079 H2082 0.984 . S
N2079 H2083 0.985 . S
H2080 N2075 0.984 . S
H2081 N2075 0.985 . S
H2082 N2079 0.984 . S
H2083 N2079 0.985 . S
H2084 N2078 0.984 . S
H2085 N2078 0.984 . S
H2086 N2074 0.984 . S
H2087 N2074 0.985 . S
C2088 C2089 1.363 . S
C2088 C2094 1.379 . S
C2088 N2096 1.356 . S
C2089 C2088 1.363 . S
C2089 C2095 1.363 . S
C2090 C2091 1.363 . S
C2090 C2095 1.379 . S
C2090 N2097 1.356 . S
C2091 C2090 1.363 . S
C2091 C2094 1.363 . S
N2092 C2094 1.356 . S
N2092 H2104 0.984 . S
N2092 H2105 0.985 . S
N2093 C2095 1.356 . S
N2093 H2098 0.984 . S
N2093 H2099 0.985 . S
C2094 C2088 1.379 . S
C2094 C2091 1.363 . S
C2094 N2092 1.356 . S
C2095 C2089 1.363 . S
C2095 C2090 1.379 . S
C2095 N2093 1.356 . S
N2096 C2088 1.356 . S
N2096 H2102 0.984 . S
N2096 H2103 0.984 . S
N2097 C2090 1.356 . S
N2097 H2100 0.984 . S
N2097 H2101 0.985 . S
H2098 N2093 0.984 . S
H2099 N2093 0.985 . S
H2100 N2097 0.984 . S
H2101 N2097 0.985 . S
H2102 N2096 0.984 . S
H2103 N2096 0.984 . S
H2104 N2092 0.984 . S
H2105 N2092 0.985 . S
C2106 C2107 1.363 . S
C2106 C2112 1.379 . S
C2106 N2114 1.356 . S
C2107 C2106 1.363 . S
C2107 C2113 1.363 . S
C2108 C2109 1.363 . S
C2108 C2113 1.379 . S
C2108 N2115 1.356 . S
C2109 C2108 1.363 . S
C2109 C2112 1.363 . S
N2110 C2112 1.356 . S
N2110 H2122 0.984 . S
N2110 H2123 0.985 . S
N2111 C2113 1.356 . S
N2111 H2116 0.984 . S
N2111 H2117 0.985 . S
C2112 C2106 1.379 . S
C2112 C2109 1.363 . S
C2112 N2110 1.356 . S
C2113 C2107 1.363 . S
C2113 C2108 1.379 . S
C2113 N2111 1.356 . S
N2114 C2106 1.356 . S
N2114 H2120 0.984 . S
N2114 H2121 0.984 . S
N2115 C2108 1.356 . S
N2115 H2118 0.984 . S
N2115 H2119 0.985 . S
H2116 N2111 0.984 . S
H2117 N2111 0.985 . S
H2118 N2115 0.984 . S
H2119 N2115 0.985 . S
H2120 N2114 0.984 . S
H2121 N2114 0.984 . S
H2122 N2110 0.984 . S
H2123 N2110 0.985 . S
C2124 C2125 1.363 . S
C2124 C2130 1.379 . S
C2124 N2132 1.356 . S
C2125 C2124 1.363 . S
C2125 C2131 1.363 . S
C2126 C2127 1.363 . S
C2126 C2131 1.379 . S
C2126 N2133 1.356 . S
C2127 C2126 1.363 . S
C2127 C2130 1.363 . S
N2128 C2130 1.356 . S
N2128 H2140 0.984 . S
N2128 H2141 0.985 . S
N2129 C2131 1.356 1_556 S
N2129 H2134 0.984 . S
N2129 H2135 0.985 . S
C2130 C2124 1.379 . S
C2130 C2127 1.363 . S
C2130 N2128 1.356 . S
C2131 C2125 1.363 . S
C2131 C2126 1.379 . S
C2131 N2129 1.356 1_554 S
N2132 C2124 1.356 . S
N2132 H2138 0.984 . S
N2132 H2139 0.984 . S
N2133 C2126 1.356 . S
N2133 H2136 0.984 . S
N2133 H2137 0.985 1_554 S
H2134 N2129 0.984 . S
H2135 N2129 0.985 . S
H2136 N2133 0.984 . S
H2137 N2133 0.985 1_556 S
H2138 N2132 0.984 . S
H2139 N2132 0.984 . S
H2140 N2128 0.984 . S
H2141 N2128 0.985 . S
C2142 C2143 1.363 . S
C2142 C2148 1.379 . S
C2142 N2150 1.356 . S
C2143 C2142 1.363 . S
C2143 C2149 1.363 . S
C2144 C2145 1.363 . S
C2144 C2149 1.379 . S
C2144 N2151 1.356 . S
C2145 C2144 1.363 . S
C2145 C2148 1.363 . S
N2146 C2148 1.356 . S
N2146 H2158 0.984 . S
N2146 H2159 0.985 . S
N2147 C2149 1.356 . S
N2147 H2152 0.984 . S
N2147 H2153 0.985 . S
C2148 C2142 1.379 . S
C2148 C2145 1.363 . S
C2148 N2146 1.356 . S
C2149 C2143 1.363 . S
C2149 C2144 1.379 . S
C2149 N2147 1.356 . S
N2150 C2142 1.356 . S
N2150 H2156 0.984 . S
N2150 H2157 0.984 . S
N2151 C2144 1.356 . S
N2151 H2154 0.984 . S
N2151 H2155 0.985 . S
H2152 N2147 0.984 . S
H2153 N2147 0.985 . S
H2154 N2151 0.984 . S
H2155 N2151 0.985 . S
H2156 N2150 0.984 . S
H2157 N2150 0.984 . S
H2158 N2146 0.984 . S
H2159 N2146 0.985 . S
C2160 C2161 1.363 . S
C2160 C2166 1.379 . S
C2160 N2168 1.356 . S
C2161 C2160 1.363 . S
C2161 C2167 1.363 . S
C2162 C2163 1.363 . S
C2162 C2167 1.379 . S
C2162 N2169 1.356 1_655 S
C2163 C2162 1.363 . S
C2163 C2166 1.363 . S
N2164 C2166 1.356 . S
N2164 H2176 0.984 . S
N2164 H2177 0.985 . S
N2165 C2167 1.356 . S
N2165 H2170 0.984 . S
N2165 H2171 0.985 . S
C2166 C2160 1.379 . S
C2166 C2163 1.363 . S
C2166 N2164 1.356 . S
C2167 C2161 1.363 . S
C2167 C2162 1.379 . S
C2167 N2165 1.356 . S
N2168 C2160 1.356 . S
N2168 H2174 0.984 . S
N2168 H2175 0.984 . S
N2169 C2162 1.356 1_455 S
N2169 H2172 0.984 . S
N2169 H2173 0.985 . S
H2170 N2165 0.984 . S
H2171 N2165 0.985 . S
H2172 N2169 0.984 . S
H2173 N2169 0.985 . S
H2174 N2168 0.984 . S
H2175 N2168 0.984 . S
H2176 N2164 0.984 . S
H2177 N2164 0.985 . S
C2178 C2179 1.363 . S
C2178 C2184 1.379 . S
C2178 N2186 1.356 . S
C2179 C2178 1.363 . S
C2179 C2185 1.363 . S
C2180 C2181 1.363 . S
C2180 C2185 1.379 . S
C2180 N2187 1.356 . S
C2181 C2180 1.363 . S
C2181 C2184 1.363 . S
N2182 C2184 1.356 . S
N2182 H2194 0.984 . S
N2182 H2195 0.985 . S
N2183 C2185 1.356 . S
N2183 H2188 0.984 . S
N2183 H2189 0.985 . S
C2184 C2178 1.379 . S
C2184 C2181 1.363 . S
C2184 N2182 1.356 . S
C2185 C2179 1.363 . S
C2185 C2180 1.379 . S
C2185 N2183 1.356 . S
N2186 C2178 1.356 . S
N2186 H2192 0.984 . S
N2186 H2193 0.984 . S
N2187 C2180 1.356 . S
N2187 H2190 0.984 . S
N2187 H2191 0.985 . S
H2188 N2183 0.984 . S
H2189 N2183 0.985 . S
H2190 N2187 0.984 . S
H2191 N2187 0.985 . S
H2192 N2186 0.984 . S
H2193 N2186 0.984 . S
H2194 N2182 0.984 . S
H2195 N2182 0.985 . S
C2196 C2197 1.363 . S
C2196 C2202 1.379 . S
C2196 N2204 1.356 . S
C2197 C2196 1.363 . S
C2197 C2203 1.363 . S
C2198 C2199 1.363 . S
C2198 C2203 1.379 . S
C2198 N2205 1.385 . S
C2199 C2198 1.363 . S
C2199 C2202 1.363 . S
N2200 C2202 1.356 . S
N2200 H2212 0.984 . S
N2200 H2213 0.985 . S
N2201 C2203 1.356 . S
N2201 H2206 0.984 . S
N2201 H2207 0.985 . S
C2202 C2196 1.379 . S
C2202 C2199 1.363 . S
C2202 N2200 1.356 . S
C2203 C2197 1.363 . S
C2203 C2198 1.379 . S
C2203 N2201 1.356 . S
N2204 C2196 1.356 . S
N2204 H2210 0.984 . S
N2204 H2211 0.984 . S
N2205 C2198 1.385 . S
N2205 H2208 0.966 1_554 S
N2205 H2209 0.975 1_554 S
H2206 N2201 0.984 . S
H2207 N2201 0.985 . S
H2208 N2205 0.966 1_556 S
H2209 N2205 0.975 1_556 S
H2210 N2204 0.984 . S
H2211 N2204 0.984 . S
H2212 N2200 0.984 . S
H2213 N2200 0.985 . S
C2214 C2215 1.363 . S
C2214 C2220 1.379 . S
C2214 N2222 1.356 . S
C2215 C2214 1.363 . S
C2215 C2221 1.363 . S
C2216 C2217 1.363 . S
C2216 C2221 1.379 . S
C2216 N2223 1.356 . S
C2217 C2216 1.363 . S
C2217 C2220 1.363 . S
N2218 C2220 1.356 . S
N2218 H2230 0.984 . S
N2218 H2231 0.985 . S
N2219 C2221 1.356 . S
N2219 H2224 0.984 . S
N2219 H2225 0.985 . S
C2220 C2214 1.379 . S
C2220 C2217 1.363 . S
C2220 N2218 1.356 . S
C2221 C2215 1.363 . S
C2221 C2216 1.379 . S
C2221 N2219 1.356 . S
N2222 C2214 1.356 . S
N2222 H2228 0.984 . S
N2222 H2229 0.984 . S
N2223 C2216 1.356 . S
N2223 H2226 0.984 . S
N2223 H2227 0.985 . S
H2224 N2219 0.984 . S
H2225 N2219 0.985 . S
H2226 N2223 0.984 . S
H2227 N2223 0.985 . S
H2228 N2222 0.984 . S
H2229 N2222 0.984 . S
H2230 N2218 0.984 . S
H2231 N2218 0.985 . S
C2232 C2233 1.363 . S
C2232 C2238 1.379 . S
C2232 N2240 1.356 . S
C2233 C2232 1.363 . S
C2233 C2239 1.363 . S
C2234 C2235 1.363 . S
C2234 C2239 1.379 . S
C2234 N2241 1.356 1_556 S
C2235 C2234 1.363 . S
C2235 C2238 1.363 . S
N2236 C2238 1.356 1_455 S
N2236 H2248 0.984 . S
N2236 H2249 0.985 . S
N2237 C2239 1.356 . S
N2237 H2242 0.984 . S
N2237 H2243 0.985 . S
C2238 C2232 1.379 . S
C2238 C2235 1.363 . S
C2238 N2236 1.356 1_655 S
C2239 C2233 1.363 . S
C2239 C2234 1.379 . S
C2239 N2237 1.356 . S
N2240 C2232 1.356 . S
N2240 H2246 0.984 . S
N2240 H2247 0.984 . S
N2241 C2234 1.356 1_554 S
N2241 H2244 0.984 . S
N2241 H2245 0.985 . S
H2242 N2237 0.984 . S
H2243 N2237 0.985 . S
H2244 N2241 0.984 . S
H2245 N2241 0.985 . S
H2246 N2240 0.984 . S
H2247 N2240 0.984 . S
H2248 N2236 0.984 . S
H2249 N2236 0.985 . S
C2250 C2251 1.363 . S
C2250 C2256 1.379 . S
C2250 N2258 1.356 . S
C2251 C2250 1.363 . S
C2251 C2257 1.363 . S
C2252 C2253 1.363 . S
C2252 C2257 1.379 . S
C2252 N2259 1.356 . S
C2253 C2252 1.363 . S
C2253 C2256 1.363 . S
N2254 C2256 1.356 . S
N2254 H2266 0.984 . S
N2254 H2267 0.985 . S
N2255 C2257 1.356 . S
N2255 H2260 0.984 . S
N2255 H2261 0.985 . S
C2256 C2250 1.379 . S
C2256 C2253 1.363 . S
C2256 N2254 1.356 . S
C2257 C2251 1.363 . S
C2257 C2252 1.379 . S
C2257 N2255 1.356 . S
N2258 C2250 1.356 . S
N2258 H2264 0.984 . S
N2258 H2265 0.984 . S
N2259 C2252 1.356 . S
N2259 H2262 0.984 . S
N2259 H2263 0.985 . S
H2260 N2255 0.984 . S
H2261 N2255 0.985 . S
H2262 N2259 0.984 . S
H2263 N2259 0.985 . S
H2264 N2258 0.984 . S
H2265 N2258 0.984 . S
H2266 N2254 0.984 . S
H2267 N2254 0.985 . S
C2268 C2269 1.363 . S
C2268 C2274 1.379 . S
C2268 N2276 1.356 . S
C2269 C2268 1.363 . S
C2269 C2275 1.363 . S
C2270 C2271 1.363 . S
C2270 C2275 1.379 . S
C2270 N2277 1.356 . S
C2271 C2270 1.363 . S
C2271 C2274 1.363 . S
N2272 C2274 1.356 . S
N2272 H2284 0.984 . S
N2272 H2285 0.985 . S
N2273 C2275 1.356 . S
N2273 H2278 0.984 . S
N2273 H2279 0.985 . S
C2274 C2268 1.379 . S
C2274 C2271 1.363 . S
C2274 N2272 1.356 . S
C2275 C2269 1.363 . S
C2275 C2270 1.379 . S
C2275 N2273 1.356 . S
N2276 C2268 1.356 . S
N2276 H2282 0.984 . S
N2276 H2283 0.984 . S
N2277 C2270 1.356 . S
N2277 H2280 0.984 . S
N2277 H2281 0.985 . S
H2278 N2273 0.984 . S
H2279 N2273 0.985 . S
H2280 N2277 0.984 . S
H2281 N2277 0.985 . S
H2282 N2276 0.984 . S
H2283 N2276 0.984 . S
H2284 N2272 0.984 . S
H2285 N2272 0.985 . S
C2286 C2287 1.363 . S
C2286 C2292 1.379 . S
C2286 N2294 1.356 . S
C2287 C2286 1.363 . S
C2287 C2293 1.363 . S
C2288 C2289 1.363 . S
C2288 C2293 1.379 . S
C2288 N2295 1.356 . S
C2289 C2288 1.363 . S
C2289 C2292 1.363 . S
N2290 C2292 1.356 . S
N2290 H2302 0.984 . S
N2290 H2303 0.985 . S
N2291 C2293 1.356 . S
N2291 H2296 0.984 . S
N2291 H2297 0.985 . S
C2292 C2286 1.379 . S
C2292 C2289 1.363 . S
C2292 N2290 1.356 . S
C2293 C2287 1.363 . S
C2293 C2288 1.379 . S
C2293 N2291 1.356 . S
N2294 C2286 1.356 . S
N2294 H2300 0.984 . S
N2294 H2301 0.984 . S
N2295 C2288 1.356 . S
N2295 H2298 0.984 . S
N2295 H2299 0.985 . S
H2296 N2291 0.984 . S
H2297 N2291 0.985 . S
H2298 N2295 0.984 . S
H2299 N2295 0.985 . S
H2300 N2294 0.984 . S
H2301 N2294 0.984 . S
H2302 N2290 0.984 . S
H2303 N2290 0.985 . S
C2304 C2305 1.363 . S
C2304 C2310 1.379 . S
C2304 N2312 1.356 . S
C2305 C2304 1.363 . S
C2305 C2311 1.363 . S
C2306 C2307 1.339 1_545 S
C2306 C2311 1.366 1_545 S
C2306 N2313 1.391 . S
C2307 C2306 1.339 1_565 S
C2307 C2310 1.363 . S
N2308 C2310 1.356 . S
N2308 H2320 0.984 . S
N2308 H2321 0.985 . S
N2309 C2311 1.356 1_545 S
N2309 H2314 0.984 1_545 S
N2309 H2315 0.985 . S
C2310 C2304 1.379 . S
C2310 C2307 1.363 . S
C2310 N2308 1.356 . S
C2311 C2305 1.363 . S
C2311 C2306 1.366 1_565 S
C2311 N2309 1.356 1_565 S
N2312 C2304 1.356 . S
N2312 H2318 0.984 . S
N2312 H2319 0.984 . S
N2313 C2306 1.391 . S
N2313 H2316 0.984 . S
N2313 H2317 0.985 . S
H2314 N2309 0.984 1_565 S
H2315 N2309 0.985 . S
H2316 N2313 0.984 . S
H2317 N2313 0.985 . S
H2318 N2312 0.984 . S
H2319 N2312 0.984 . S
H2320 N2308 0.984 . S
H2321 N2308 0.985 . S
C2322 C2323 1.363 . S
C2322 C2328 1.379 . S
C2322 N2330 1.356 1_455 S
C2323 C2322 1.363 . S
C2323 C2329 1.363 . S
C2324 C2325 1.363 . S
C2324 C2329 1.379 . S
C2324 N2331 1.356 . S
C2325 C2324 1.363 . S
C2325 C2328 1.363 . S
N2326 C2328 1.356 . S
N2326 H2338 0.984 . S
N2326 H2339 0.985 . S
N2327 C2329 1.356 . S
N2327 H2332 0.984 . S
N2327 H2333 0.985 . S
C2328 C2322 1.379 . S
C2328 C2325 1.363 . S
C2328 N2326 1.356 . S
C2329 C2323 1.363 . S
C2329 C2324 1.379 . S
C2329 N2327 1.356 . S
N2330 C2322 1.356 1_655 S
N2330 H2336 0.984 . S
N2330 H2337 0.984 . S
N2331 C2324 1.356 . S
N2331 H2334 0.984 . S
N2331 H2335 0.985 . S
H2332 N2327 0.984 . S
H2333 N2327 0.985 . S
H2334 N2331 0.984 . S
H2335 N2331 0.985 . S
H2336 N2330 0.984 . S
H2337 N2330 0.984 . S
H2338 N2326 0.984 . S
H2339 N2326 0.985 . S
C2340 C2341 1.363 . S
C2340 C2346 1.379 . S
C2340 N2348 1.356 . S
C2341 C2340 1.363 . S
C2341 C2347 1.363 . S
C2342 C2343 1.363 . S
C2342 C2347 1.379 . S
C2342 N2349 1.356 . S
C2343 C2342 1.363 . S
C2343 C2346 1.363 . S
N2344 C2346 1.356 . S
N2344 H2356 0.984 . S
N2344 H2357 0.985 . S
N2345 C2347 1.356 . S
N2345 H2350 0.984 . S
N2345 H2351 0.985 . S
C2346 C2340 1.379 . S
C2346 C2343 1.363 . S
C2346 N2344 1.356 . S
C2347 C2341 1.363 . S
C2347 C2342 1.379 . S
C2347 N2345 1.356 . S
N2348 C2340 1.356 . S
N2348 H2354 0.984 . S
N2348 H2355 0.984 . S
N2349 C2342 1.356 . S
N2349 H2352 0.984 . S
N2349 H2353 0.985 . S
H2350 N2345 0.984 . S
H2351 N2345 0.985 . S
H2352 N2349 0.984 . S
H2353 N2349 0.985 . S
H2354 N2348 0.984 . S
H2355 N2348 0.984 . S
H2356 N2344 0.984 . S
H2357 N2344 0.985 . S
C2358 C2359 1.363 . S
C2358 C2364 1.379 . S
C2358 N2366 1.356 . S
C2359 C2358 1.363 . S
C2359 C2365 1.363 . S
C2360 C2361 1.363 . S
C2360 C2365 1.379 . S
C2360 N2367 1.356 . S
C2361 C2360 1.363 . S
C2361 C2364 1.363 . S
N2362 C2364 1.356 . S
N2362 H2374 0.984 . S
N2362 H2375 0.985 . S
N2363 C2365 1.356 . S
N2363 H2368 0.984 . S
N2363 H2369 0.985 . S
C2364 C2358 1.379 . S
C2364 C2361 1.363 . S
C2364 N2362 1.356 . S
C2365 C2359 1.363 . S
C2365 C2360 1.379 . S
C2365 N2363 1.356 . S
N2366 C2358 1.356 . S
N2366 H2372 0.984 . S
N2366 H2373 0.984 . S
N2367 C2360 1.356 . S
N2367 H2370 0.984 . S
N2367 H2371 0.985 . S
H2368 N2363 0.984 . S
H2369 N2363 0.985 . S
H2370 N2367 0.984 . S
H2371 N2367 0.985 . S
H2372 N2366 0.984 . S
H2373 N2366 0.984 . S
H2374 N2362 0.984 . S
H2375 N2362 0.985 . S
C2376 C2377 1.363 . S
C2376 C2382 1.379 . S
C2376 N2384 1.356 . S
C2377 C2376 1.363 . S
C2377 C2383 1.363 . S
C2378 C2379 1.363 . S
C2378 C2383 1.379 . S
C2378 N2385 1.356 . S
C2379 C2378 1.363 . S
C2379 C2382 1.363 . S
N2380 C2382 1.356 . S
N2380 H2392 0.984 . S
N2380 H2393 0.985 . S
N2381 C2383 1.356 . S
N2381 H2386 0.984 . S
N2381 H2387 0.985 . S
C2382 C2376 1.379 . S
C2382 C2379 1.363 . S
C2382 N2380 1.356 . S
C2383 C2377 1.363 . S
C2383 C2378 1.379 . S
C2383 N2381 1.356 . S
N2384 C2376 1.356 . S
N2384 H2390 0.984 . S
N2384 H2391 0.984 . S
N2385 C2378 1.356 . S
N2385 H2388 0.984 . S
N2385 H2389 0.985 . S
H2386 N2381 0.984 . S
H2387 N2381 0.985 . S
H2388 N2385 0.984 . S
H2389 N2385 0.985 . S
H2390 N2384 0.984 . S
H2391 N2384 0.984 . S
H2392 N2380 0.984 . S
H2393 N2380 0.985 . S
C2394 C2395 1.363 . S
C2394 C2400 1.374 1_545 S
C2394 N2402 1.343 1_545 S
C2395 C2394 1.363 . S
C2395 C2401 1.363 . S
C2396 C2397 1.363 . S
C2396 C2401 1.379 . S
C2396 N2403 1.384 . S
C2397 C2396 1.363 . S
C2397 C2400 1.355 1_545 S
N2398 C2400 1.368 . S
N2398 H2410 0.984 . S
N2398 H2411 0.985 . S
N2399 C2401 1.356 . S
N2399 H2404 0.984 . S
N2399 H2405 0.985 . S
C2400 C2394 1.374 1_565 S
C2400 C2397 1.355 1_565 S
C2400 N2398 1.368 . S
C2401 C2395 1.363 . S
C2401 C2396 1.379 . S
C2401 N2399 1.356 . S
N2402 C2394 1.343 1_565 S
N2402 H2408 1.021 . S
N2402 H2409 0.962 1_565 S
N2403 C2396 1.384 . S
N2403 H2406 0.967 1_655 S
N2403 H2407 0.976 1_655 S
H2404 N2399 0.984 . S
H2405 N2399 0.985 . S
H2406 N2403 0.967 1_455 S
H2407 N2403 0.976 1_455 S
H2408 N2402 1.021 . S
H2409 N2402 0.962 1_545 S
H2410 N2398 0.984 . S
H2411 N2398 0.985 . S
C2412 C2413 1.363 . S
C2412 C2418 1.379 . S
C2412 N2420 1.356 . S
C2413 C2412 1.363 . S
C2413 C2419 1.363 . S
C2414 C2415 1.363 . S
C2414 C2419 1.379 . S
C2414 N2421 1.356 . S
C2415 C2414 1.363 . S
C2415 C2418 1.363 . S
N2416 C2418 1.356 . S
N2416 H2428 0.984 . S
N2416 H2429 0.985 . S
N2417 C2419 1.356 . S
N2417 H2422 0.984 . S
N2417 H2423 0.985 . S
C2418 C2412 1.379 . S
C2418 C2415 1.363 . S
C2418 N2416 1.356 . S
C2419 C2413 1.363 . S
C2419 C2414 1.379 . S
C2419 N2417 1.356 . S
N2420 C2412 1.356 . S
N2420 H2426 0.984 . S
N2420 H2427 0.984 . S
N2421 C2414 1.356 . S
N2421 H2424 0.984 . S
N2421 H2425 0.985 . S
H2422 N2417 0.984 . S
H2423 N2417 0.985 . S
H2424 N2421 0.984 . S
H2425 N2421 0.985 . S
H2426 N2420 0.984 . S
H2427 N2420 0.984 . S
H2428 N2416 0.984 . S
H2429 N2416 0.985 . S
C2430 C2431 1.363 . S
C2430 C2436 1.379 . S
C2430 N2438 1.356 . S
C2431 C2430 1.363 . S
C2431 C2437 1.363 . S
C2432 C2433 1.363 . S
C2432 C2437 1.379 . S
C2432 N2439 1.356 . S
C2433 C2432 1.363 . S
C2433 C2436 1.363 . S
N2434 C2436 1.356 . S
N2434 H2446 0.984 . S
N2434 H2447 0.985 . S
N2435 C2437 1.356 . S
N2435 H2440 0.984 . S
N2435 H2441 0.985 . S
C2436 C2430 1.379 . S
C2436 C2433 1.363 . S
C2436 N2434 1.356 . S
C2437 C2431 1.363 . S
C2437 C2432 1.379 . S
C2437 N2435 1.356 . S
N2438 C2430 1.356 . S
N2438 H2444 0.984 . S
N2438 H2445 0.984 . S
N2439 C2432 1.356 . S
N2439 H2442 0.984 . S
N2439 H2443 0.985 . S
H2440 N2435 0.984 . S
H2441 N2435 0.985 . S
H2442 N2439 0.984 . S
H2443 N2439 0.985 . S
H2444 N2438 0.984 . S
H2445 N2438 0.984 . S
H2446 N2434 0.984 . S
H2447 N2434 0.985 . S
C2448 C2449 1.363 . S
C2448 C2454 1.379 . S
C2448 N2456 1.356 . S
C2449 C2448 1.363 . S
C2449 C2455 1.363 . S
C2450 C2451 1.363 . S
C2450 C2455 1.379 . S
C2450 N2457 1.356 . S
C2451 C2450 1.363 . S
C2451 C2454 1.363 . S
N2452 C2454 1.356 . S
N2452 H2464 0.984 . S
N2452 H2465 0.985 . S
N2453 C2455 1.356 . S
N2453 H2458 0.984 . S
N2453 H2459 0.985 . S
C2454 C2448 1.379 . S
C2454 C2451 1.363 . S
C2454 N2452 1.356 . S
C2455 C2449 1.363 . S
C2455 C2450 1.379 . S
C2455 N2453 1.356 . S
N2456 C2448 1.356 . S
N2456 H2462 0.984 . S
N2456 H2463 0.984 . S
N2457 C2450 1.356 . S
N2457 H2460 0.984 . S
N2457 H2461 0.985 . S
H2458 N2453 0.984 . S
H2459 N2453 0.985 . S
H2460 N2457 0.984 . S
H2461 N2457 0.985 . S
H2462 N2456 0.984 . S
H2463 N2456 0.984 . S
H2464 N2452 0.984 . S
H2465 N2452 0.985 . S
C2466 C2467 1.363 . S
C2466 C2472 1.379 . S
C2466 N2474 1.356 . S
C2467 C2466 1.363 . S
C2467 C2473 1.363 . S
C2468 C2469 1.363 . S
C2468 C2473 1.379 . S
C2468 N2475 1.356 . S
C2469 C2468 1.363 . S
C2469 C2472 1.363 . S
N2470 C2472 1.356 . S
N2470 H2482 0.984 . S
N2470 H2483 0.985 . S
N2471 C2473 1.356 . S
N2471 H2476 0.984 . S
N2471 H2477 0.985 . S
C2472 C2466 1.379 . S
C2472 C2469 1.363 . S
C2472 N2470 1.356 . S
C2473 C2467 1.363 . S
C2473 C2468 1.379 . S
C2473 N2471 1.356 . S
N2474 C2466 1.356 . S
N2474 H2480 0.984 . S
N2474 H2481 0.984 . S
N2475 C2468 1.356 . S
N2475 H2478 0.984 . S
N2475 H2479 0.985 . S
H2476 N2471 0.984 . S
H2477 N2471 0.985 . S
H2478 N2475 0.984 . S
H2479 N2475 0.985 . S
H2480 N2474 0.984 . S
H2481 N2474 0.984 . S
H2482 N2470 0.984 . S
H2483 N2470 0.985 . S
C2484 C2485 1.363 . S
C2484 C2490 1.379 . S
C2484 N2492 1.356 . S
C2485 C2484 1.363 . S
C2485 C2491 1.363 . S
C2486 C2487 1.363 . S
C2486 C2491 1.379 . S
C2486 N2493 1.356 . S
C2487 C2486 1.363 . S
C2487 C2490 1.363 . S
N2488 C2490 1.356 . S
N2488 H2500 0.984 . S
N2488 H2501 0.985 . S
N2489 C2491 1.356 . S
N2489 H2494 0.984 . S
N2489 H2495 0.985 . S
C2490 C2484 1.379 . S
C2490 C2487 1.363 . S
C2490 N2488 1.356 . S
C2491 C2485 1.363 . S
C2491 C2486 1.379 . S
C2491 N2489 1.356 . S
N2492 C2484 1.356 . S
N2492 H2498 0.984 . S
N2492 H2499 0.984 . S
N2493 C2486 1.356 . S
N2493 H2496 0.984 . S
N2493 H2497 0.985 . S
H2494 N2489 0.984 . S
H2495 N2489 0.985 . S
H2496 N2493 0.984 . S
H2497 N2493 0.985 . S
H2498 N2492 0.984 . S
H2499 N2492 0.984 . S
H2500 N2488 0.984 . S
H2501 N2488 0.985 . S
C2502 C2503 1.363 . S
C2502 C2508 1.379 . S
C2502 N2510 1.356 . S
C2503 C2502 1.363 . S
C2503 C2509 1.363 . S
C2504 C2505 1.363 . S
C2504 C2509 1.379 . S
C2504 N2511 1.356 . S
C2505 C2504 1.363 . S
C2505 C2508 1.363 . S
N2506 C2508 1.356 . S
N2506 H2518 0.984 . S
N2506 H2519 0.985 . S
N2507 C2509 1.356 . S
N2507 H2512 0.984 . S
N2507 H2513 0.985 . S
C2508 C2502 1.379 . S
C2508 C2505 1.363 . S
C2508 N2506 1.356 . S
C2509 C2503 1.363 . S
C2509 C2504 1.379 . S
C2509 N2507 1.356 . S
N2510 C2502 1.356 . S
N2510 H2516 0.984 . S
N2510 H2517 0.984 . S
N2511 C2504 1.356 . S
N2511 H2514 0.984 . S
N2511 H2515 0.985 . S
H2512 N2507 0.984 . S
H2513 N2507 0.985 . S
H2514 N2511 0.984 . S
H2515 N2511 0.985 . S
H2516 N2510 0.984 . S
H2517 N2510 0.984 . S
H2518 N2506 0.984 . S
H2519 N2506 0.985 . S
C2520 C2521 1.363 . S
C2520 C2526 1.379 . S
C2520 N2528 1.356 . S
C2521 C2520 1.363 . S
C2521 C2527 1.363 . S
C2522 C2523 1.363 . S
C2522 C2527 1.379 . S
C2522 N2529 1.356 . S
C2523 C2522 1.363 . S
C2523 C2526 1.363 . S
N2524 C2526 1.356 . S
N2524 H2536 0.984 . S
N2524 H2537 0.985 . S
N2525 C2527 1.356 . S
N2525 H2530 0.984 . S
N2525 H2531 0.985 . S
C2526 C2520 1.379 . S
C2526 C2523 1.363 . S
C2526 N2524 1.356 . S
C2527 C2521 1.363 . S
C2527 C2522 1.379 . S
C2527 N2525 1.356 . S
N2528 C2520 1.356 . S
N2528 H2534 0.984 . S
N2528 H2535 0.984 . S
N2529 C2522 1.356 . S
N2529 H2532 0.984 . S
N2529 H2533 0.985 . S
H2530 N2525 0.984 . S
H2531 N2525 0.985 . S
H2532 N2529 0.984 . S
H2533 N2529 0.985 . S
H2534 N2528 0.984 . S
H2535 N2528 0.984 . S
H2536 N2524 0.984 . S
H2537 N2524 0.985 . S
C2538 C2539 1.363 . S
C2538 C2544 1.379 . S
C2538 N2546 1.356 . S
C2539 C2538 1.363 . S
C2539 C2545 1.363 . S
C2540 C2541 1.363 . S
C2540 C2545 1.379 . S
C2540 N2547 1.356 . S
C2541 C2540 1.363 . S
C2541 C2544 1.363 . S
N2542 C2544 1.356 . S
N2542 H2554 0.984 . S
N2542 H2555 0.985 . S
N2543 C2545 1.356 . S
N2543 H2548 0.984 . S
N2543 H2549 0.985 . S
C2544 C2538 1.379 . S
C2544 C2541 1.363 . S
C2544 N2542 1.356 . S
C2545 C2539 1.363 . S
C2545 C2540 1.379 . S
C2545 N2543 1.356 . S
N2546 C2538 1.356 . S
N2546 H2552 0.984 . S
N2546 H2553 0.984 . S
N2547 C2540 1.356 . S
N2547 H2550 0.984 . S
N2547 H2551 0.985 . S
H2548 N2543 0.984 . S
H2549 N2543 0.985 . S
H2550 N2547 0.984 . S
H2551 N2547 0.985 . S
H2552 N2546 0.984 . S
H2553 N2546 0.984 . S
H2554 N2542 0.984 . S
H2555 N2542 0.985 . S
C2556 C2557 1.363 . S
C2556 C2562 1.379 . S
C2556 N2564 1.356 . S
C2557 C2556 1.363 . S
C2557 C2563 1.363 . S
C2558 C2559 1.363 . S
C2558 C2563 1.379 . S
C2558 N2565 1.356 . S
C2559 C2558 1.363 . S
C2559 C2562 1.363 . S
N2560 C2562 1.356 . S
N2560 H2572 0.984 . S
N2560 H2573 0.985 . S
N2561 C2563 1.356 . S
N2561 H2566 0.984 . S
N2561 H2567 0.985 . S
C2562 C2556 1.379 . S
C2562 C2559 1.363 . S
C2562 N2560 1.356 . S
C2563 C2557 1.363 . S
C2563 C2558 1.379 . S
C2563 N2561 1.356 . S
N2564 C2556 1.356 . S
N2564 H2570 0.984 . S
N2564 H2571 0.984 . S
N2565 C2558 1.356 . S
N2565 H2568 0.984 . S
N2565 H2569 0.985 . S
H2566 N2561 0.984 . S
H2567 N2561 0.985 . S
H2568 N2565 0.984 . S
H2569 N2565 0.985 . S
H2570 N2564 0.984 . S
H2571 N2564 0.984 . S
H2572 N2560 0.984 . S
H2573 N2560 0.985 . S
C2574 C2575 1.363 . S
C2574 C2580 1.379 . S
C2574 N2582 1.356 . S
C2575 C2574 1.363 . S
C2575 C2581 1.363 . S
C2576 C2577 1.363 . S
C2576 C2581 1.379 . S
C2576 N2583 1.356 . S
C2577 C2576 1.363 . S
C2577 C2580 1.363 . S
N2578 C2580 1.356 . S
N2578 H2590 0.984 . S
N2578 H2591 0.985 . S
N2579 C2581 1.356 . S
N2579 H2584 0.984 . S
N2579 H2585 0.985 . S
C2580 C2574 1.379 . S
C2580 C2577 1.363 . S
C2580 N2578 1.356 . S
C2581 C2575 1.363 . S
C2581 C2576 1.379 . S
C2581 N2579 1.356 . S
N2582 C2574 1.356 . S
N2582 H2588 0.984 . S
N2582 H2589 0.984 . S
N2583 C2576 1.356 . S
N2583 H2586 0.984 . S
N2583 H2587 0.985 . S
H2584 N2579 0.984 . S
H2585 N2579 0.985 . S
H2586 N2583 0.984 . S
H2587 N2583 0.985 . S
H2588 N2582 0.984 . S
H2589 N2582 0.984 . S
H2590 N2578 0.984 . S
H2591 N2578 0.985 . S
C2592 C2593 1.363 . S
C2592 C2598 1.379 . S
C2592 N2600 1.356 . S
C2593 C2592 1.363 . S
C2593 C2599 1.363 . S
C2594 C2595 1.363 . S
C2594 C2599 1.379 . S
C2594 N2601 1.356 . S
C2595 C2594 1.363 . S
C2595 C2598 1.363 . S
N2596 C2598 1.356 . S
N2596 H2608 0.984 . S
N2596 H2609 0.985 . S
N2597 C2599 1.356 . S
N2597 H2602 0.984 . S
N2597 H2603 0.985 . S
C2598 C2592 1.379 . S
C2598 C2595 1.363 . S
C2598 N2596 1.356 . S
C2599 C2593 1.363 . S
C2599 C2594 1.379 . S
C2599 N2597 1.356 . S
N2600 C2592 1.356 . S
N2600 H2606 0.984 . S
N2600 H2607 0.984 . S
N2601 C2594 1.356 . S
N2601 H2604 0.984 . S
N2601 H2605 0.985 . S
H2602 N2597 0.984 . S
H2603 N2597 0.985 . S
H2604 N2601 0.984 . S
H2605 N2601 0.985 . S
H2606 N2600 0.984 . S
H2607 N2600 0.984 . S
H2608 N2596 0.984 . S
H2609 N2596 0.985 . S
C2610 C2611 1.363 . S
C2610 C2616 1.379 . S
C2610 N2618 1.356 . S
C2611 C2610 1.363 . S
C2611 C2617 1.363 . S
C2612 C2613 1.363 . S
C2612 C2617 1.379 . S
C2612 N2619 1.356 . S
C2613 C2612 1.363 . S
C2613 C2616 1.363 . S
N2614 C2616 1.356 . S
N2614 H2626 0.984 . S
N2614 H2627 0.985 . S
N2615 C2617 1.356 . S
N2615 H2620 0.984 . S
N2615 H2621 0.985 . S
C2616 C2610 1.379 . S
C2616 C2613 1.363 . S
C2616 N2614 1.356 . S
C2617 C2611 1.363 . S
C2617 C2612 1.379 . S
C2617 N2615 1.356 . S
N2618 C2610 1.356 . S
N2618 H2624 0.984 . S
N2618 H2625 0.984 . S
N2619 C2612 1.356 . S
N2619 H2622 0.984 . S
N2619 H2623 0.985 . S
H2620 N2615 0.984 . S
H2621 N2615 0.985 . S
H2622 N2619 0.984 . S
H2623 N2619 0.985 . S
H2624 N2618 0.984 . S
H2625 N2618 0.984 . S
H2626 N2614 0.984 . S
H2627 N2614 0.985 . S
C2628 C2629 1.363 . S
C2628 C2634 1.379 . S
C2628 N2636 1.356 . S
C2629 C2628 1.363 . S
C2629 C2635 1.363 . S
C2630 C2631 1.363 . S
C2630 C2635 1.379 . S
C2630 N2637 1.356 . S
C2631 C2630 1.363 . S
C2631 C2634 1.363 . S
N2632 C2634 1.356 . S
N2632 H2644 0.984 . S
N2632 H2645 0.985 . S
N2633 C2635 1.356 . S
N2633 H2638 0.984 . S
N2633 H2639 0.985 . S
C2634 C2628 1.379 . S
C2634 C2631 1.363 . S
C2634 N2632 1.356 . S
C2635 C2629 1.363 . S
C2635 C2630 1.379 . S
C2635 N2633 1.356 . S
N2636 C2628 1.356 . S
N2636 H2642 0.984 . S
N2636 H2643 0.984 . S
N2637 C2630 1.356 . S
N2637 H2640 0.984 . S
N2637 H2641 0.985 . S
H2638 N2633 0.984 . S
H2639 N2633 0.985 . S
H2640 N2637 0.984 . S
H2641 N2637 0.985 . S
H2642 N2636 0.984 . S
H2643 N2636 0.984 . S
H2644 N2632 0.984 . S
H2645 N2632 0.985 . S
C2646 C2647 1.363 . S
C2646 C2652 1.379 . S
C2646 N2654 1.356 . S
C2647 C2646 1.363 . S
C2647 C2653 1.363 . S
C2648 C2649 1.363 . S
C2648 C2653 1.379 . S
C2648 N2655 1.356 . S
C2649 C2648 1.363 . S
C2649 C2652 1.363 . S
N2650 C2652 1.356 . S
N2650 H2662 0.984 . S
N2650 H2663 0.985 . S
N2651 C2653 1.356 . S
N2651 H2656 0.984 . S
N2651 H2657 0.985 . S
C2652 C2646 1.379 . S
C2652 C2649 1.363 . S
C2652 N2650 1.356 . S
C2653 C2647 1.363 . S
C2653 C2648 1.379 . S
C2653 N2651 1.356 . S
N2654 C2646 1.356 . S
N2654 H2660 0.984 . S
N2654 H2661 0.984 . S
N2655 C2648 1.356 . S
N2655 H2658 0.984 . S
N2655 H2659 0.985 . S
H2656 N2651 0.984 . S
H2657 N2651 0.985 . S
H2658 N2655 0.984 . S
H2659 N2655 0.985 . S
H2660 N2654 0.984 . S
H2661 N2654 0.984 . S
H2662 N2650 0.984 . S
H2663 N2650 0.985 . S
C2664 C2665 1.363 . S
C2664 C2670 1.379 . S
C2664 N2672 1.356 . S
C2665 C2664 1.363 . S
C2665 C2671 1.363 . S
C2666 C2667 1.363 . S
C2666 C2671 1.379 . S
C2666 N2673 1.356 . S
C2667 C2666 1.363 . S
C2667 C2670 1.363 . S
N2668 C2670 1.356 . S
N2668 H2680 0.984 . S
N2668 H2681 0.985 . S
N2669 C2671 1.356 . S
N2669 H2674 0.984 . S
N2669 H2675 0.985 . S
C2670 C2664 1.379 . S
C2670 C2667 1.363 . S
C2670 N2668 1.356 . S
C2671 C2665 1.363 . S
C2671 C2666 1.379 . S
C2671 N2669 1.356 . S
N2672 C2664 1.356 . S
N2672 H2678 0.984 . S
N2672 H2679 0.984 . S
N2673 C2666 1.356 . S
N2673 H2676 0.984 . S
N2673 H2677 0.985 . S
H2674 N2669 0.984 . S
H2675 N2669 0.985 . S
H2676 N2673 0.984 . S
H2677 N2673 0.985 . S
H2678 N2672 0.984 . S
H2679 N2672 0.984 . S
H2680 N2668 0.984 . S
H2681 N2668 0.985 . S
C2682 C2683 1.363 . S
C2682 C2688 1.379 . S
C2682 N2690 1.356 . S
C2683 C2682 1.363 . S
C2683 C2689 1.363 . S
C2684 C2685 1.363 . S
C2684 C2689 1.379 . S
C2684 N2691 1.356 . S
C2685 C2684 1.363 . S
C2685 C2688 1.363 . S
N2686 C2688 1.356 . S
N2686 H2698 0.984 . S
N2686 H2699 0.985 . S
N2687 C2689 1.356 . S
N2687 H2692 0.984 . S
N2687 H2693 0.985 . S
C2688 C2682 1.379 . S
C2688 C2685 1.363 . S
C2688 N2686 1.356 . S
C2689 C2683 1.363 . S
C2689 C2684 1.379 . S
C2689 N2687 1.356 . S
N2690 C2682 1.356 . S
N2690 H2696 0.984 . S
N2690 H2697 0.984 . S
N2691 C2684 1.356 . S
N2691 H2694 0.984 . S
N2691 H2695 0.985 . S
H2692 N2687 0.984 . S
H2693 N2687 0.985 . S
H2694 N2691 0.984 . S
H2695 N2691 0.985 . S
H2696 N2690 0.984 . S
H2697 N2690 0.984 . S
H2698 N2686 0.984 . S
H2699 N2686 0.985 . S
C2700 C2701 1.363 . S
C2700 C2706 1.379 . S
C2700 N2708 1.356 . S
C2701 C2700 1.363 . S
C2701 C2707 1.363 . S
C2702 C2703 1.363 . S
C2702 C2707 1.379 . S
C2702 N2709 1.356 . S
C2703 C2702 1.363 . S
C2703 C2706 1.363 . S
N2704 C2706 1.356 . S
N2704 H2716 0.984 . S
N2704 H2717 0.985 . S
N2705 C2707 1.356 . S
N2705 H2710 0.984 . S
N2705 H2711 0.985 . S
C2706 C2700 1.379 . S
C2706 C2703 1.363 . S
C2706 N2704 1.356 . S
C2707 C2701 1.363 . S
C2707 C2702 1.379 . S
C2707 N2705 1.356 . S
N2708 C2700 1.356 . S
N2708 H2714 0.984 . S
N2708 H2715 0.984 . S
N2709 C2702 1.356 . S
N2709 H2712 0.984 . S
N2709 H2713 0.985 . S
H2710 N2705 0.984 . S
H2711 N2705 0.985 . S
H2712 N2709 0.984 . S
H2713 N2709 0.985 . S
H2714 N2708 0.984 . S
H2715 N2708 0.984 . S
H2716 N2704 0.984 . S
H2717 N2704 0.985 . S
C2718 C2719 1.363 . S
C2718 C2724 1.379 . S
C2718 N2726 1.356 . S
C2719 C2718 1.363 . S
C2719 C2725 1.363 . S
C2720 C2721 1.363 . S
C2720 C2725 1.379 . S
C2720 N2727 1.356 . S
C2721 C2720 1.363 . S
C2721 C2724 1.363 . S
N2722 C2724 1.356 . S
N2722 H2734 0.984 . S
N2722 H2735 0.985 . S
N2723 C2725 1.356 . S
N2723 H2728 0.984 . S
N2723 H2729 0.985 . S
C2724 C2718 1.379 . S
C2724 C2721 1.363 . S
C2724 N2722 1.356 . S
C2725 C2719 1.363 . S
C2725 C2720 1.379 . S
C2725 N2723 1.356 . S
N2726 C2718 1.356 . S
N2726 H2732 0.984 . S
N2726 H2733 0.984 . S
N2727 C2720 1.356 . S
N2727 H2730 0.984 . S
N2727 H2731 0.985 . S
H2728 N2723 0.984 . S
H2729 N2723 0.985 . S
H2730 N2727 0.984 . S
H2731 N2727 0.985 . S
H2732 N2726 0.984 . S
H2733 N2726 0.984 . S
H2734 N2722 0.984 . S
H2735 N2722 0.985 . S
C2736 C2737 1.363 . S
C2736 C2742 1.379 . S
C2736 N2744 1.356 . S
C2737 C2736 1.363 . S
C2737 C2743 1.363 . S
C2738 C2739 1.363 . S
C2738 C2743 1.379 . S
C2738 N2745 1.356 . S
C2739 C2738 1.363 . S
C2739 C2742 1.363 . S
N2740 C2742 1.356 . S
N2740 H2752 0.984 . S
N2740 H2753 0.985 . S
N2741 C2743 1.356 . S
N2741 H2746 0.984 . S
N2741 H2747 0.985 . S
C2742 C2736 1.379 . S
C2742 C2739 1.363 . S
C2742 N2740 1.356 . S
C2743 C2737 1.363 . S
C2743 C2738 1.379 . S
C2743 N2741 1.356 . S
N2744 C2736 1.356 . S
N2744 H2750 0.984 . S
N2744 H2751 0.984 . S
N2745 C2738 1.356 . S
N2745 H2748 0.984 . S
N2745 H2749 0.985 . S
H2746 N2741 0.984 . S
H2747 N2741 0.985 . S
H2748 N2745 0.984 . S
H2749 N2745 0.985 . S
H2750 N2744 0.984 . S
H2751 N2744 0.984 . S
H2752 N2740 0.984 . S
H2753 N2740 0.985 . S
C2754 C2755 1.363 . S
C2754 C2760 1.379 . S
C2754 N2762 1.356 . S
C2755 C2754 1.363 . S
C2755 C2761 1.363 . S
C2756 C2757 1.363 . S
C2756 C2761 1.379 . S
C2756 N2763 1.356 . S
C2757 C2756 1.363 . S
C2757 C2760 1.363 . S
N2758 C2760 1.356 . S
N2758 H2770 0.984 . S
N2758 H2771 0.985 . S
N2759 C2761 1.356 . S
N2759 H2764 0.984 . S
N2759 H2765 0.985 . S
C2760 C2754 1.379 . S
C2760 C2757 1.363 . S
C2760 N2758 1.356 . S
C2761 C2755 1.363 . S
C2761 C2756 1.379 . S
C2761 N2759 1.356 . S
N2762 C2754 1.356 . S
N2762 H2768 0.984 . S
N2762 H2769 0.984 . S
N2763 C2756 1.356 . S
N2763 H2766 0.984 . S
N2763 H2767 0.985 . S
H2764 N2759 0.984 . S
H2765 N2759 0.985 . S
H2766 N2763 0.984 . S
H2767 N2763 0.985 . S
H2768 N2762 0.984 . S
H2769 N2762 0.984 . S
H2770 N2758 0.984 . S
H2771 N2758 0.985 . S
C2772 C2773 1.363 . S
C2772 C2778 1.379 . S
C2772 N2780 1.356 . S
C2773 C2772 1.363 . S
C2773 C2779 1.363 . S
C2774 C2775 1.363 . S
C2774 C2779 1.379 . S
C2774 N2781 1.356 . S
C2775 C2774 1.363 . S
C2775 C2778 1.363 . S
N2776 C2778 1.356 . S
N2776 H2788 0.984 . S
N2776 H2789 0.985 . S
N2777 C2779 1.356 . S
N2777 H2782 0.984 . S
N2777 H2783 0.985 . S
C2778 C2772 1.379 . S
C2778 C2775 1.363 . S
C2778 N2776 1.356 . S
C2779 C2773 1.363 . S
C2779 C2774 1.379 . S
C2779 N2777 1.356 . S
N2780 C2772 1.356 . S
N2780 H2786 0.984 . S
N2780 H2787 0.984 . S
N2781 C2774 1.356 . S
N2781 H2784 0.984 . S
N2781 H2785 0.985 . S
H2782 N2777 0.984 . S
H2783 N2777 0.985 . S
H2784 N2781 0.984 . S
H2785 N2781 0.985 . S
H2786 N2780 0.984 . S
H2787 N2780 0.984 . S
H2788 N2776 0.984 . S
H2789 N2776 0.985 . S
C2790 C2791 1.363 . S
C2790 C2796 1.379 . S
C2790 N2798 1.356 . S
C2791 C2790 1.363 . S
C2791 C2797 1.363 . S
C2792 C2793 1.363 . S
C2792 C2797 1.379 . S
C2792 N2799 1.356 . S
C2793 C2792 1.363 . S
C2793 C2796 1.363 . S
N2794 C2796 1.356 . S
N2794 H2806 0.984 . S
N2794 H2807 0.985 . S
N2795 C2797 1.356 . S
N2795 H2800 0.984 . S
N2795 H2801 0.985 . S
C2796 C2790 1.379 . S
C2796 C2793 1.363 . S
C2796 N2794 1.356 . S
C2797 C2791 1.363 . S
C2797 C2792 1.379 . S
C2797 N2795 1.356 . S
N2798 C2790 1.356 . S
N2798 H2804 0.984 . S
N2798 H2805 0.984 . S
N2799 C2792 1.356 . S
N2799 H2802 0.984 . S
N2799 H2803 0.985 . S
H2800 N2795 0.984 . S
H2801 N2795 0.985 . S
H2802 N2799 0.984 . S
H2803 N2799 0.985 . S
H2804 N2798 0.984 . S
H2805 N2798 0.984 . S
H2806 N2794 0.984 . S
H2807 N2794 0.985 . S
C2808 C2809 1.363 . S
C2808 C2814 1.379 . S
C2808 N2816 1.356 . S
C2809 C2808 1.363 . S
C2809 C2815 1.363 . S
C2810 C2811 1.363 . S
C2810 C2815 1.379 . S
C2810 N2817 1.356 . S
C2811 C2810 1.363 . S
C2811 C2814 1.363 . S
N2812 C2814 1.356 . S
N2812 H2824 0.984 . S
N2812 H2825 0.985 . S
N2813 C2815 1.356 . S
N2813 H2818 0.984 . S
N2813 H2819 0.985 . S
C2814 C2808 1.379 . S
C2814 C2811 1.363 . S
C2814 N2812 1.356 . S
C2815 C2809 1.363 . S
C2815 C2810 1.379 . S
C2815 N2813 1.356 . S
N2816 C2808 1.356 . S
N2816 H2822 0.984 . S
N2816 H2823 0.984 . S
N2817 C2810 1.356 . S
N2817 H2820 0.984 . S
N2817 H2821 0.985 . S
H2818 N2813 0.984 . S
H2819 N2813 0.985 . S
H2820 N2817 0.984 . S
H2821 N2817 0.985 . S
H2822 N2816 0.984 . S
H2823 N2816 0.984 . S
H2824 N2812 0.984 . S
H2825 N2812 0.985 . S
C2826 C2827 1.363 . S
C2826 C2832 1.379 . S
C2826 N2834 1.356 . S
C2827 C2826 1.363 . S
C2827 C2833 1.363 . S
C2828 C2829 1.363 . S
C2828 C2833 1.379 . S
C2828 N2835 1.356 . S
C2829 C2828 1.363 . S
C2829 C2832 1.363 . S
N2830 C2832 1.356 . S
N2830 H2842 0.984 . S
N2830 H2843 0.985 . S
N2831 C2833 1.356 . S
N2831 H2836 0.984 . S
N2831 H2837 0.985 . S
C2832 C2826 1.379 . S
C2832 C2829 1.363 . S
C2832 N2830 1.356 . S
C2833 C2827 1.363 . S
C2833 C2828 1.379 . S
C2833 N2831 1.356 . S
N2834 C2826 1.356 . S
N2834 H2840 0.984 . S
N2834 H2841 0.984 . S
N2835 C2828 1.356 . S
N2835 H2838 0.984 . S
N2835 H2839 0.985 . S
H2836 N2831 0.984 . S
H2837 N2831 0.985 . S
H2838 N2835 0.984 . S
H2839 N2835 0.985 . S
H2840 N2834 0.984 . S
H2841 N2834 0.984 . S
H2842 N2830 0.984 . S
H2843 N2830 0.985 . S
C2844 C2845 1.363 . S
C2844 C2850 1.379 . S
C2844 N2852 1.356 . S
C2845 C2844 1.363 . S
C2845 C2851 1.363 . S
C2846 C2847 1.363 . S
C2846 C2851 1.379 . S
C2846 N2853 1.356 . S
C2847 C2846 1.363 . S
C2847 C2850 1.363 . S
N2848 C2850 1.356 . S
N2848 H2860 0.984 . S
N2848 H2861 0.985 . S
N2849 C2851 1.356 . S
N2849 H2854 0.984 . S
N2849 H2855 0.985 . S
C2850 C2844 1.379 . S
C2850 C2847 1.363 . S
C2850 N2848 1.356 . S
C2851 C2845 1.363 . S
C2851 C2846 1.379 . S
C2851 N2849 1.356 . S
N2852 C2844 1.356 . S
N2852 H2858 0.984 . S
N2852 H2859 0.984 . S
N2853 C2846 1.356 . S
N2853 H2856 0.984 . S
N2853 H2857 0.985 . S
H2854 N2849 0.984 . S
H2855 N2849 0.985 . S
H2856 N2853 0.984 . S
H2857 N2853 0.985 . S
H2858 N2852 0.984 . S
H2859 N2852 0.984 . S
H2860 N2848 0.984 . S
H2861 N2848 0.985 . S
C2862 C2863 1.363 . S
C2862 C2868 1.379 . S
C2862 N2870 1.356 . S
C2863 C2862 1.363 . S
C2863 C2869 1.363 . S
C2864 C2865 1.363 . S
C2864 C2869 1.379 . S
C2864 N2871 1.356 . S
C2865 C2864 1.363 . S
C2865 C2868 1.363 . S
N2866 C2868 1.356 . S
N2866 H2878 0.984 . S
N2866 H2879 0.985 . S
N2867 C2869 1.356 . S
N2867 H2872 0.984 . S
N2867 H2873 0.985 . S
C2868 C2862 1.379 . S
C2868 C2865 1.363 . S
C2868 N2866 1.356 . S
C2869 C2863 1.363 . S
C2869 C2864 1.379 . S
C2869 N2867 1.356 . S
N2870 C2862 1.356 . S
N2870 H2876 0.984 . S
N2870 H2877 0.984 . S
N2871 C2864 1.356 . S
N2871 H2874 0.984 . S
N2871 H2875 0.985 . S
H2872 N2867 0.984 . S
H2873 N2867 0.985 . S
H2874 N2871 0.984 . S
H2875 N2871 0.985 . S
H2876 N2870 0.984 . S
H2877 N2870 0.984 . S
H2878 N2866 0.984 . S
H2879 N2866 0.985 . S
C2880 C2881 1.363 . S
C2880 C2886 1.379 . S
C2880 N2888 1.356 . S
C2881 C2880 1.363 . S
C2881 C2887 1.363 . S
C2882 C2883 1.363 . S
C2882 C2887 1.379 . S
C2882 N2889 1.356 . S
C2883 C2882 1.363 . S
C2883 C2886 1.363 . S
N2884 C2886 1.356 . S
N2884 H2896 0.984 . S
N2884 H2897 0.985 . S
N2885 C2887 1.356 . S
N2885 H2890 0.984 . S
N2885 H2891 0.985 . S
C2886 C2880 1.379 . S
C2886 C2883 1.363 . S
C2886 N2884 1.356 . S
C2887 C2881 1.363 . S
C2887 C2882 1.379 . S
C2887 N2885 1.356 . S
N2888 C2880 1.356 . S
N2888 H2894 0.984 . S
N2888 H2895 0.984 . S
N2889 C2882 1.356 . S
N2889 H2892 0.984 . S
N2889 H2893 0.985 . S
H2890 N2885 0.984 . S
H2891 N2885 0.985 . S
H2892 N2889 0.984 . S
H2893 N2889 0.985 . S
H2894 N2888 0.984 . S
H2895 N2888 0.984 . S
H2896 N2884 0.984 . S
H2897 N2884 0.985 . S
C2898 C2899 1.363 . S
C2898 C2904 1.379 . S
C2898 N2906 1.356 . S
C2899 C2898 1.363 . S
C2899 C2905 1.363 . S
C2900 C2901 1.363 . S
C2900 C2905 1.379 . S
C2900 N2907 1.356 . S
C2901 C2900 1.363 . S
C2901 C2904 1.363 . S
N2902 C2904 1.356 . S
N2902 H2914 0.984 . S
N2902 H2915 0.985 . S
N2903 C2905 1.356 . S
N2903 H2908 0.984 . S
N2903 H2909 0.985 . S
C2904 C2898 1.379 . S
C2904 C2901 1.363 . S
C2904 N2902 1.356 . S
C2905 C2899 1.363 . S
C2905 C2900 1.379 . S
C2905 N2903 1.356 . S
N2906 C2898 1.356 . S
N2906 H2912 0.984 . S
N2906 H2913 0.984 . S
N2907 C2900 1.356 . S
N2907 H2910 0.984 . S
N2907 H2911 0.985 . S
H2908 N2903 0.984 . S
H2909 N2903 0.985 . S
H2910 N2907 0.984 . S
H2911 N2907 0.985 . S
H2912 N2906 0.984 . S
H2913 N2906 0.984 . S
H2914 N2902 0.984 . S
H2915 N2902 0.985 . S
C2916 C2917 1.363 . S
C2916 C2922 1.379 . S
C2916 N2924 1.356 . S
C2917 C2916 1.363 . S
C2917 C2923 1.363 . S
C2918 C2919 1.363 . S
C2918 C2923 1.379 . S
C2918 N2925 1.356 . S
C2919 C2918 1.363 . S
C2919 C2922 1.363 . S
N2920 C2922 1.356 . S
N2920 H2932 0.984 . S
N2920 H2933 0.985 . S
N2921 C2923 1.356 . S
N2921 H2926 0.984 . S
N2921 H2927 0.985 . S
C2922 C2916 1.379 . S
C2922 C2919 1.363 . S
C2922 N2920 1.356 . S
C2923 C2917 1.363 . S
C2923 C2918 1.379 . S
C2923 N2921 1.356 . S
N2924 C2916 1.356 . S
N2924 H2930 0.984 . S
N2924 H2931 0.984 . S
N2925 C2918 1.356 . S
N2925 H2928 0.984 . S
N2925 H2929 0.985 . S
H2926 N2921 0.984 . S
H2927 N2921 0.985 . S
H2928 N2925 0.984 . S
H2929 N2925 0.985 . S
H2930 N2924 0.984 . S
H2931 N2924 0.984 . S
H2932 N2920 0.984 . S
H2933 N2920 0.985 . S
C2934 C2935 1.363 . S
C2934 C2940 1.379 . S
C2934 N2942 1.356 . S
C2935 C2934 1.363 . S
C2935 C2941 1.363 . S
C2936 C2937 1.363 . S
C2936 C2941 1.379 . S
C2936 N2943 1.356 . S
C2937 C2936 1.363 . S
C2937 C2940 1.363 . S
N2938 C2940 1.356 . S
N2938 H2950 0.984 . S
N2938 H2951 0.985 . S
N2939 C2941 1.356 . S
N2939 H2944 0.984 . S
N2939 H2945 0.985 . S
C2940 C2934 1.379 . S
C2940 C2937 1.363 . S
C2940 N2938 1.356 . S
C2941 C2935 1.363 . S
C2941 C2936 1.379 . S
C2941 N2939 1.356 . S
N2942 C2934 1.356 . S
N2942 H2948 0.984 . S
N2942 H2949 0.984 . S
N2943 C2936 1.356 . S
N2943 H2946 0.984 . S
N2943 H2947 0.985 . S
H2944 N2939 0.984 . S
H2945 N2939 0.985 . S
H2946 N2943 0.984 . S
H2947 N2943 0.985 . S
H2948 N2942 0.984 . S
H2949 N2942 0.984 . S
H2950 N2938 0.984 . S
H2951 N2938 0.985 . S
C2952 C2953 1.363 . S
C2952 C2958 1.379 . S
C2952 N2960 1.356 . S
C2953 C2952 1.363 . S
C2953 C2959 1.363 . S
C2954 C2955 1.363 . S
C2954 C2959 1.379 . S
C2954 N2961 1.356 . S
C2955 C2954 1.363 . S
C2955 C2958 1.363 . S
N2956 C2958 1.356 . S
N2956 H2968 0.984 . S
N2956 H2969 0.985 . S
N2957 C2959 1.356 . S
N2957 H2962 0.984 . S
N2957 H2963 0.985 . S
C2958 C2952 1.379 . S
C2958 C2955 1.363 . S
C2958 N2956 1.356 . S
C2959 C2953 1.363 . S
C2959 C2954 1.379 . S
C2959 N2957 1.356 . S
N2960 C2952 1.356 . S
N2960 H2966 0.984 . S
N2960 H2967 0.984 . S
N2961 C2954 1.356 . S
N2961 H2964 0.984 . S
N2961 H2965 0.985 . S
H2962 N2957 0.984 . S
H2963 N2957 0.985 . S
H2964 N2961 0.984 . S
H2965 N2961 0.985 . S
H2966 N2960 0.984 . S
H2967 N2960 0.984 . S
H2968 N2956 0.984 . S
H2969 N2956 0.985 . S
C2970 C2971 1.363 . S
C2970 C2976 1.379 . S
C2970 N2978 1.356 . S
C2971 C2970 1.363 . S
C2971 C2977 1.363 . S
C2972 C2973 1.363 . S
C2972 C2977 1.379 . S
C2972 N2979 1.356 . S
C2973 C2972 1.363 . S
C2973 C2976 1.363 . S
N2974 C2976 1.356 . S
N2974 H2986 0.984 . S
N2974 H2987 0.985 . S
N2975 C2977 1.356 . S
N2975 H2980 0.984 . S
N2975 H2981 0.985 . S
C2976 C2970 1.379 . S
C2976 C2973 1.363 . S
C2976 N2974 1.356 . S
C2977 C2971 1.363 . S
C2977 C2972 1.379 . S
C2977 N2975 1.356 . S
N2978 C2970 1.356 . S
N2978 H2984 0.984 . S
N2978 H2985 0.984 . S
N2979 C2972 1.356 . S
N2979 H2982 0.984 . S
N2979 H2983 0.985 . S
H2980 N2975 0.984 . S
H2981 N2975 0.985 . S
H2982 N2979 0.984 . S
H2983 N2979 0.985 . S
H2984 N2978 0.984 . S
H2985 N2978 0.984 . S
H2986 N2974 0.984 . S
H2987 N2974 0.985 . S
C2988 C2989 1.363 . S
C2988 C2994 1.379 . S
C2988 N2996 1.356 . S
C2989 C2988 1.363 . S
C2989 C2995 1.363 . S
C2990 C2991 1.363 . S
C2990 C2995 1.379 . S
C2990 N2997 1.356 . S
C2991 C2990 1.363 . S
C2991 C2994 1.363 . S
N2992 C2994 1.356 . S
N2992 H3004 0.984 . S
N2992 H3005 0.985 . S
N2993 C2995 1.356 . S
N2993 H2998 0.984 . S
N2993 H2999 0.985 . S
C2994 C2988 1.379 . S
C2994 C2991 1.363 . S
C2994 N2992 1.356 . S
C2995 C2989 1.363 . S
C2995 C2990 1.379 . S
C2995 N2993 1.356 . S
N2996 C2988 1.356 . S
N2996 H3002 0.984 . S
N2996 H3003 0.984 . S
N2997 C2990 1.356 . S
N2997 H3000 0.984 . S
N2997 H3001 0.985 . S
H2998 N2993 0.984 . S
H2999 N2993 0.985 . S
H3000 N2997 0.984 . S
H3001 N2997 0.985 . S
H3002 N2996 0.984 . S
H3003 N2996 0.984 . S
H3004 N2992 0.984 . S
H3005 N2992 0.985 . S
C3006 C3007 1.363 . S
C3006 C3012 1.379 . S
C3006 N3014 1.356 . S
C3007 C3006 1.363 . S
C3007 C3013 1.363 . S
C3008 C3009 1.363 . S
C3008 C3013 1.379 . S
C3008 N3015 1.356 . S
C3009 C3008 1.363 . S
C3009 C3012 1.363 . S
N3010 C3012 1.356 . S
N3010 H3022 0.984 . S
N3010 H3023 0.985 . S
N3011 C3013 1.356 . S
N3011 H3016 0.984 . S
N3011 H3017 0.985 . S
C3012 C3006 1.379 . S
C3012 C3009 1.363 . S
C3012 N3010 1.356 . S
C3013 C3007 1.363 . S
C3013 C3008 1.379 . S
C3013 N3011 1.356 . S
N3014 C3006 1.356 . S
N3014 H3020 0.984 . S
N3014 H3021 0.984 . S
N3015 C3008 1.356 . S
N3015 H3018 0.984 . S
N3015 H3019 0.985 . S
H3016 N3011 0.984 . S
H3017 N3011 0.985 . S
H3018 N3015 0.984 . S
H3019 N3015 0.985 . S
H3020 N3014 0.984 . S
H3021 N3014 0.984 . S
H3022 N3010 0.984 . S
H3023 N3010 0.985 . S
C3024 C3025 1.363 . S
C3024 C3030 1.379 . S
C3024 N3032 1.356 . S
C3025 C3024 1.363 . S
C3025 C3031 1.363 . S
C3026 C3027 1.363 . S
C3026 C3031 1.379 . S
C3026 N3033 1.356 . S
C3027 C3026 1.363 . S
C3027 C3030 1.363 . S
N3028 C3030 1.356 . S
N3028 H3040 0.984 . S
N3028 H3041 0.985 . S
N3029 C3031 1.356 . S
N3029 H3034 0.984 . S
N3029 H3035 0.985 . S
C3030 C3024 1.379 . S
C3030 C3027 1.363 . S
C3030 N3028 1.356 . S
C3031 C3025 1.363 . S
C3031 C3026 1.379 . S
C3031 N3029 1.356 . S
N3032 C3024 1.356 . S
N3032 H3038 0.984 . S
N3032 H3039 0.984 . S
N3033 C3026 1.356 . S
N3033 H3036 0.984 . S
N3033 H3037 0.985 . S
H3034 N3029 0.984 . S
H3035 N3029 0.985 . S
H3036 N3033 0.984 . S
H3037 N3033 0.985 . S
H3038 N3032 0.984 . S
H3039 N3032 0.984 . S
H3040 N3028 0.984 . S
H3041 N3028 0.985 . S
C3042 C3043 1.363 . S
C3042 C3048 1.379 . S
C3042 N3050 1.356 . S
C3043 C3042 1.363 . S
C3043 C3049 1.363 . S
C3044 C3045 1.363 . S
C3044 C3049 1.379 . S
C3044 N3051 1.356 . S
C3045 C3044 1.363 . S
C3045 C3048 1.363 . S
N3046 C3048 1.356 . S
N3046 H3058 0.984 . S
N3046 H3059 0.985 . S
N3047 C3049 1.356 . S
N3047 H3052 0.984 . S
N3047 H3053 0.985 . S
C3048 C3042 1.379 . S
C3048 C3045 1.363 . S
C3048 N3046 1.356 . S
C3049 C3043 1.363 . S
C3049 C3044 1.379 . S
C3049 N3047 1.356 . S
N3050 C3042 1.356 . S
N3050 H3056 0.984 . S
N3050 H3057 0.984 . S
N3051 C3044 1.356 . S
N3051 H3054 0.984 . S
N3051 H3055 0.985 . S
H3052 N3047 0.984 . S
H3053 N3047 0.985 . S
H3054 N3051 0.984 . S
H3055 N3051 0.985 . S
H3056 N3050 0.984 . S
H3057 N3050 0.984 . S
H3058 N3046 0.984 . S
H3059 N3046 0.985 . S
C3060 C3061 1.363 . S
C3060 C3066 1.379 . S
C3060 N3068 1.356 . S
C3061 C3060 1.363 . S
C3061 C3067 1.363 . S
C3062 C3063 1.363 . S
C3062 C3067 1.379 . S
C3062 N3069 1.356 . S
C3063 C3062 1.363 . S
C3063 C3066 1.363 . S
N3064 C3066 1.356 . S
N3064 H3076 0.984 . S
N3064 H3077 0.985 . S
N3065 C3067 1.356 . S
N3065 H3070 0.984 . S
N3065 H3071 0.985 . S
C3066 C3060 1.379 . S
C3066 C3063 1.363 . S
C3066 N3064 1.356 . S
C3067 C3061 1.363 . S
C3067 C3062 1.379 . S
C3067 N3065 1.356 . S
N3068 C3060 1.356 . S
N3068 H3074 0.984 . S
N3068 H3075 0.984 . S
N3069 C3062 1.356 . S
N3069 H3072 0.984 . S
N3069 H3073 0.985 . S
H3070 N3065 0.984 . S
H3071 N3065 0.985 . S
H3072 N3069 0.984 . S
H3073 N3069 0.985 . S
H3074 N3068 0.984 . S
H3075 N3068 0.984 . S
H3076 N3064 0.984 . S
H3077 N3064 0.985 . S
C3078 C3079 1.363 . S
C3078 C3084 1.379 . S
C3078 N3086 1.356 . S
C3079 C3078 1.363 . S
C3079 C3085 1.363 . S
C3080 C3081 1.363 . S
C3080 C3085 1.379 . S
C3080 N3087 1.356 . S
C3081 C3080 1.363 . S
C3081 C3084 1.363 . S
N3082 C3084 1.356 . S
N3082 H3094 0.984 . S
N3082 H3095 0.985 . S
N3083 C3085 1.356 . S
N3083 H3088 0.984 . S
N3083 H3089 0.985 . S
C3084 C3078 1.379 . S
C3084 C3081 1.363 . S
C3084 N3082 1.356 . S
C3085 C3079 1.363 . S
C3085 C3080 1.379 . S
C3085 N3083 1.356 . S
N3086 C3078 1.356 . S
N3086 H3092 0.984 . S
N3086 H3093 0.984 . S
N3087 C3080 1.356 . S
N3087 H3090 0.984 . S
N3087 H3091 0.985 . S
H3088 N3083 0.984 . S
H3089 N3083 0.985 . S
H3090 N3087 0.984 . S
H3091 N3087 0.985 . S
H3092 N3086 0.984 . S
H3093 N3086 0.984 . S
H3094 N3082 0.984 . S
H3095 N3082 0.985 . S
C3096 C3097 1.363 . S
C3096 C3102 1.379 . S
C3096 N3104 1.356 . S
C3097 C3096 1.363 . S
C3097 C3103 1.363 . S
C3098 C3099 1.363 . S
C3098 C3103 1.379 . S
C3098 N3105 1.356 . S
C3099 C3098 1.363 . S
C3099 C3102 1.363 . S
N3100 C3102 1.356 . S
N3100 H3112 0.984 . S
N3100 H3113 0.985 . S
N3101 C3103 1.356 . S
N3101 H3106 0.984 . S
N3101 H3107 0.985 . S
C3102 C3096 1.379 . S
C3102 C3099 1.363 . S
C3102 N3100 1.356 . S
C3103 C3097 1.363 . S
C3103 C3098 1.379 . S
C3103 N3101 1.356 . S
N3104 C3096 1.356 . S
N3104 H3110 0.984 . S
N3104 H3111 0.984 . S
N3105 C3098 1.356 . S
N3105 H3108 0.984 . S
N3105 H3109 0.985 . S
H3106 N3101 0.984 . S
H3107 N3101 0.985 . S
H3108 N3105 0.984 . S
H3109 N3105 0.985 . S
H3110 N3104 0.984 . S
H3111 N3104 0.984 . S
H3112 N3100 0.984 . S
H3113 N3100 0.985 . S
C3114 C3115 1.363 . S
C3114 C3120 1.379 . S
C3114 N3122 1.356 . S
C3115 C3114 1.363 . S
C3115 C3121 1.363 . S
C3116 C3117 1.363 . S
C3116 C3121 1.379 . S
C3116 N3123 1.356 . S
C3117 C3116 1.363 . S
C3117 C3120 1.363 . S
N3118 C3120 1.356 . S
N3118 H3130 0.984 . S
N3118 H3131 0.985 . S
N3119 C3121 1.356 . S
N3119 H3124 0.984 . S
N3119 H3125 0.985 . S
C3120 C3114 1.379 . S
C3120 C3117 1.363 . S
C3120 N3118 1.356 . S
C3121 C3115 1.363 . S
C3121 C3116 1.379 . S
C3121 N3119 1.356 . S
N3122 C3114 1.356 . S
N3122 H3128 0.984 . S
N3122 H3129 0.984 . S
N3123 C3116 1.356 . S
N3123 H3126 0.984 . S
N3123 H3127 0.985 . S
H3124 N3119 0.984 . S
H3125 N3119 0.985 . S
H3126 N3123 0.984 . S
H3127 N3123 0.985 . S
H3128 N3122 0.984 . S
H3129 N3122 0.984 . S
H3130 N3118 0.984 . S
H3131 N3118 0.985 . S
C3132 C3133 1.363 . S
C3132 C3138 1.379 . S
C3132 N3140 1.356 . S
C3133 C3132 1.363 . S
C3133 C3139 1.363 . S
C3134 C3135 1.363 . S
C3134 C3139 1.379 . S
C3134 N3141 1.356 . S
C3135 C3134 1.363 . S
C3135 C3138 1.363 . S
N3136 C3138 1.356 . S
N3136 H3148 0.984 . S
N3136 H3149 0.985 . S
N3137 C3139 1.356 . S
N3137 H3142 0.984 . S
N3137 H3143 0.985 . S
C3138 C3132 1.379 . S
C3138 C3135 1.363 . S
C3138 N3136 1.356 . S
C3139 C3133 1.363 . S
C3139 C3134 1.379 . S
C3139 N3137 1.356 . S
N3140 C3132 1.356 . S
N3140 H3146 0.984 . S
N3140 H3147 0.984 . S
N3141 C3134 1.356 . S
N3141 H3144 0.984 . S
N3141 H3145 0.985 . S
H3142 N3137 0.984 . S
H3143 N3137 0.985 . S
H3144 N3141 0.984 . S
H3145 N3141 0.985 . S
H3146 N3140 0.984 . S
H3147 N3140 0.984 . S
H3148 N3136 0.984 . S
H3149 N3136 0.985 . S
C3150 C3151 1.363 . S
C3150 C3156 1.379 . S
C3150 N3158 1.356 . S
C3151 C3150 1.363 . S
C3151 C3157 1.363 . S
C3152 C3153 1.363 . S
C3152 C3157 1.379 . S
C3152 N3159 1.356 . S
C3153 C3152 1.363 . S
C3153 C3156 1.363 . S
N3154 C3156 1.356 . S
N3154 H3166 0.984 . S
N3154 H3167 0.985 . S
N3155 C3157 1.356 . S
N3155 H3160 0.984 . S
N3155 H3161 0.985 . S
C3156 C3150 1.379 . S
C3156 C3153 1.363 . S
C3156 N3154 1.356 . S
C3157 C3151 1.363 . S
C3157 C3152 1.379 . S
C3157 N3155 1.356 . S
N3158 C3150 1.356 . S
N3158 H3164 0.984 . S
N3158 H3165 0.984 . S
N3159 C3152 1.356 . S
N3159 H3162 0.984 . S
N3159 H3163 0.985 . S
H3160 N3155 0.984 . S
H3161 N3155 0.985 . S
H3162 N3159 0.984 . S
H3163 N3159 0.985 . S
H3164 N3158 0.984 . S
H3165 N3158 0.984 . S
H3166 N3154 0.984 . S
H3167 N3154 0.985 . S
C3168 C3169 1.363 . S
C3168 C3174 1.379 . S
C3168 N3176 1.356 . S
C3169 C3168 1.363 . S
C3169 C3175 1.363 . S
C3170 C3171 1.363 . S
C3170 C3175 1.379 . S
C3170 N3177 1.356 . S
C3171 C3170 1.363 . S
C3171 C3174 1.363 . S
N3172 C3174 1.356 . S
N3172 H3184 0.984 . S
N3172 H3185 0.985 . S
N3173 C3175 1.356 . S
N3173 H3178 0.984 . S
N3173 H3179 0.985 . S
C3174 C3168 1.379 . S
C3174 C3171 1.363 . S
C3174 N3172 1.356 . S
C3175 C3169 1.363 . S
C3175 C3170 1.379 . S
C3175 N3173 1.356 . S
N3176 C3168 1.356 . S
N3176 H3182 0.984 . S
N3176 H3183 0.984 . S
N3177 C3170 1.356 . S
N3177 H3180 0.984 . S
N3177 H3181 0.985 . S
H3178 N3173 0.984 . S
H3179 N3173 0.985 . S
H3180 N3177 0.984 . S
H3181 N3177 0.985 . S
H3182 N3176 0.984 . S
H3183 N3176 0.984 . S
H3184 N3172 0.984 . S
H3185 N3172 0.985 . S
C3186 C3187 1.363 . S
C3186 C3192 1.379 . S
C3186 N3194 1.356 . S
C3187 C3186 1.363 . S
C3187 C3193 1.363 . S
C3188 C3189 1.363 . S
C3188 C3193 1.379 . S
C3188 N3195 1.356 . S
C3189 C3188 1.363 . S
C3189 C3192 1.363 . S
N3190 C3192 1.356 . S
N3190 H3202 0.984 . S
N3190 H3203 0.985 . S
N3191 C3193 1.356 . S
N3191 H3196 0.984 . S
N3191 H3197 0.985 . S
C3192 C3186 1.379 . S
C3192 C3189 1.363 . S
C3192 N3190 1.356 . S
C3193 C3187 1.363 . S
C3193 C3188 1.379 . S
C3193 N3191 1.356 . S
N3194 C3186 1.356 . S
N3194 H3200 0.984 . S
N3194 H3201 0.984 . S
N3195 C3188 1.356 . S
N3195 H3198 0.984 . S
N3195 H3199 0.985 . S
H3196 N3191 0.984 . S
H3197 N3191 0.985 . S
H3198 N3195 0.984 . S
H3199 N3195 0.985 . S
H3200 N3194 0.984 . S
H3201 N3194 0.984 . S
H3202 N3190 0.984 . S
H3203 N3190 0.985 . S
C3204 C3205 1.363 . S
C3204 C3210 1.379 . S
C3204 N3212 1.356 . S
C3205 C3204 1.363 . S
C3205 C3211 1.363 . S
C3206 C3207 1.363 . S
C3206 C3211 1.379 . S
C3206 N3213 1.356 . S
C3207 C3206 1.363 . S
C3207 C3210 1.363 . S
N3208 C3210 1.356 . S
N3208 H3220 0.984 . S
N3208 H3221 0.985 . S
N3209 C3211 1.356 . S
N3209 H3214 0.984 . S
N3209 H3215 0.985 . S
C3210 C3204 1.379 . S
C3210 C3207 1.363 . S
C3210 N3208 1.356 . S
C3211 C3205 1.363 . S
C3211 C3206 1.379 . S
C3211 N3209 1.356 . S
N3212 C3204 1.356 . S
N3212 H3218 0.984 . S
N3212 H3219 0.984 . S
N3213 C3206 1.356 . S
N3213 H3216 0.984 . S
N3213 H3217 0.985 . S
H3214 N3209 0.984 . S
H3215 N3209 0.985 . S
H3216 N3213 0.984 . S
H3217 N3213 0.985 . S
H3218 N3212 0.984 . S
H3219 N3212 0.984 . S
H3220 N3208 0.984 . S
H3221 N3208 0.985 . S
C3222 C3223 1.363 . S
C3222 C3228 1.379 . S
C3222 N3230 1.356 . S
C3223 C3222 1.363 . S
C3223 C3229 1.363 . S
C3224 C3225 1.363 . S
C3224 C3229 1.379 . S
C3224 N3231 1.356 . S
C3225 C3224 1.363 . S
C3225 C3228 1.363 . S
N3226 C3228 1.356 . S
N3226 H3238 0.984 . S
N3226 H3239 0.985 . S
N3227 C3229 1.356 . S
N3227 H3232 0.984 . S
N3227 H3233 0.985 . S
C3228 C3222 1.379 . S
C3228 C3225 1.363 . S
C3228 N3226 1.356 . S
C3229 C3223 1.363 . S
C3229 C3224 1.379 . S
C3229 N3227 1.356 . S
N3230 C3222 1.356 . S
N3230 H3236 0.984 . S
N3230 H3237 0.984 . S
N3231 C3224 1.356 . S
N3231 H3234 0.984 . S
N3231 H3235 0.985 . S
H3232 N3227 0.984 . S
H3233 N3227 0.985 . S
H3234 N3231 0.984 . S
H3235 N3231 0.985 . S
H3236 N3230 0.984 . S
H3237 N3230 0.984 . S
H3238 N3226 0.984 . S
H3239 N3226 0.985 . S
C3240 C3241 1.363 . S
C3240 C3246 1.379 . S
C3240 N3248 1.356 . S
C3241 C3240 1.363 . S
C3241 C3247 1.363 . S
C3242 C3243 1.363 . S
C3242 C3247 1.379 . S
C3242 N3249 1.356 . S
C3243 C3242 1.363 . S
C3243 C3246 1.363 . S
N3244 C3246 1.356 . S
N3244 H3256 0.984 . S
N3244 H3257 0.985 . S
N3245 C3247 1.356 . S
N3245 H3250 0.984 . S
N3245 H3251 0.985 . S
C3246 C3240 1.379 . S
C3246 C3243 1.363 . S
C3246 N3244 1.356 . S
C3247 C3241 1.363 . S
C3247 C3242 1.379 . S
C3247 N3245 1.356 . S
N3248 C3240 1.356 . S
N3248 H3254 0.984 . S
N3248 H3255 0.984 . S
N3249 C3242 1.356 . S
N3249 H3252 0.984 . S
N3249 H3253 0.985 . S
H3250 N3245 0.984 . S
H3251 N3245 0.985 . S
H3252 N3249 0.984 . S
H3253 N3249 0.985 . S
H3254 N3248 0.984 . S
H3255 N3248 0.984 . S
H3256 N3244 0.984 . S
H3257 N3244 0.985 . S
C3258 C3259 1.363 . S
C3258 C3264 1.379 . S
C3258 N3266 1.356 . S
C3259 C3258 1.363 . S
C3259 C3265 1.363 . S
C3260 C3261 1.363 . S
C3260 C3265 1.379 . S
C3260 N3267 1.356 . S
C3261 C3260 1.363 . S
C3261 C3264 1.363 . S
N3262 C3264 1.356 . S
N3262 H3274 0.984 . S
N3262 H3275 0.985 . S
N3263 C3265 1.356 . S
N3263 H3268 0.984 . S
N3263 H3269 0.985 . S
C3264 C3258 1.379 . S
C3264 C3261 1.363 . S
C3264 N3262 1.356 . S
C3265 C3259 1.363 . S
C3265 C3260 1.379 . S
C3265 N3263 1.356 . S
N3266 C3258 1.356 . S
N3266 H3272 0.984 . S
N3266 H3273 0.984 . S
N3267 C3260 1.356 . S
N3267 H3270 0.984 . S
N3267 H3271 0.985 . S
H3268 N3263 0.984 . S
H3269 N3263 0.985 . S
H3270 N3267 0.984 . S
H3271 N3267 0.985 . S
H3272 N3266 0.984 . S
H3273 N3266 0.984 . S
H3274 N3262 0.984 . S
H3275 N3262 0.985 . S
C3276 C3277 1.363 . S
C3276 C3282 1.379 . S
C3276 N3284 1.356 . S
C3277 C3276 1.363 . S
C3277 C3283 1.363 . S
C3278 C3279 1.363 . S
C3278 C3283 1.379 . S
C3278 N3285 1.356 . S
C3279 C3278 1.363 . S
C3279 C3282 1.363 . S
N3280 C3282 1.356 . S
N3280 H3292 0.984 . S
N3280 H3293 0.985 . S
N3281 C3283 1.356 . S
N3281 H3286 0.984 . S
N3281 H3287 0.985 . S
C3282 C3276 1.379 . S
C3282 C3279 1.363 . S
C3282 N3280 1.356 . S
C3283 C3277 1.363 . S
C3283 C3278 1.379 . S
C3283 N3281 1.356 . S
N3284 C3276 1.356 . S
N3284 H3290 0.984 . S
N3284 H3291 0.984 . S
N3285 C3278 1.356 . S
N3285 H3288 0.984 . S
N3285 H3289 0.985 . S
H3286 N3281 0.984 . S
H3287 N3281 0.985 . S
H3288 N3285 0.984 . S
H3289 N3285 0.985 . S
H3290 N3284 0.984 . S
H3291 N3284 0.984 . S
H3292 N3280 0.984 . S
H3293 N3280 0.985 . S
C3294 C3295 1.363 . S
C3294 C3300 1.379 . S
C3294 N3302 1.356 . S
C3295 C3294 1.363 . S
C3295 C3301 1.363 . S
C3296 C3297 1.363 . S
C3296 C3301 1.379 . S
C3296 N3303 1.356 . S
C3297 C3296 1.363 . S
C3297 C3300 1.363 . S
N3298 C3300 1.356 . S
N3298 H3310 0.984 . S
N3298 H3311 0.985 . S
N3299 C3301 1.356 . S
N3299 H3304 0.984 . S
N3299 H3305 0.985 . S
C3300 C3294 1.379 . S
C3300 C3297 1.363 . S
C3300 N3298 1.356 . S
C3301 C3295 1.363 . S
C3301 C3296 1.379 . S
C3301 N3299 1.356 . S
N3302 C3294 1.356 . S
N3302 H3308 0.984 . S
N3302 H3309 0.984 . S
N3303 C3296 1.356 . S
N3303 H3306 0.984 . S
N3303 H3307 0.985 . S
H3304 N3299 0.984 . S
H3305 N3299 0.985 . S
H3306 N3303 0.984 . S
H3307 N3303 0.985 . S
H3308 N3302 0.984 . S
H3309 N3302 0.984 . S
H3310 N3298 0.984 . S
H3311 N3298 0.985 . S
C3312 C3313 1.363 1_655 S
C3312 C3318 1.379 . S
C3312 N3320 1.356 . S
C3313 C3312 1.363 1_455 S
C3313 C3319 1.363 1_565 S
C3314 C3315 1.363 . S
C3314 C3319 1.379 . S
C3314 N3321 1.356 . S
C3315 C3314 1.363 . S
C3315 C3318 1.363 1_445 S
N3316 C3318 1.356 . S
N3316 H3328 0.984 . S
N3316 H3329 0.985 1_565 S
N3317 C3319 1.356 . S
N3317 H3322 0.984 1_545 S
N3317 H3323 0.985 . S
C3318 C3312 1.379 . S
C3318 C3315 1.363 1_665 S
C3318 N3316 1.356 . S
C3319 C3313 1.363 1_545 S
C3319 C3314 1.379 . S
C3319 N3317 1.356 . S
N3320 C3312 1.356 . S
N3320 H3326 0.984 . S
N3320 H3327 0.984 . S
N3321 C3314 1.356 . S
N3321 H3324 0.984 . S
N3321 H3325 0.985 . S
H3322 N3317 0.984 1_565 S
H3323 N3317 0.985 . S
H3324 N3321 0.984 . S
H3325 N3321 0.985 . S
H3326 N3320 0.984 . S
H3327 N3320 0.984 . S
H3328 N3316 0.984 . S
H3329 N3316 0.985 1_545 S
C3330 C3331 1.363 . S
C3330 C3336 1.379 . S
C3330 N3338 1.356 . S
C3331 C3330 1.363 . S
C3331 C3337 1.363 . S
C3332 C3333 1.363 . S
C3332 C3337 1.379 . S
C3332 N3339 1.356 . S
C3333 C3332 1.363 . S
C3333 C3336 1.363 . S
N3334 C3336 1.356 . S
N3334 H3346 0.984 . S
N3334 H3347 0.985 . S
N3335 C3337 1.356 . S
N3335 H3340 0.984 . S
N3335 H3341 0.985 . S
C3336 C3330 1.379 . S
C3336 C3333 1.363 . S
C3336 N3334 1.356 . S
C3337 C3331 1.363 . S
C3337 C3332 1.379 . S
C3337 N3335 1.356 . S
N3338 C3330 1.356 . S
N3338 H3344 0.984 . S
N3338 H3345 0.984 . S
N3339 C3332 1.356 . S
N3339 H3342 0.984 . S
N3339 H3343 0.985 . S
H3340 N3335 0.984 . S
H3341 N3335 0.985 . S
H3342 N3339 0.984 . S
H3343 N3339 0.985 . S
H3344 N3338 0.984 . S
H3345 N3338 0.984 . S
H3346 N3334 0.984 . S
H3347 N3334 0.985 . S
C3348 C3349 1.363 1_565 S
C3348 C3354 1.379 . S
C3348 N3356 1.356 . S
C3349 C3348 1.363 1_545 S
C3349 C3355 1.363 . S
C3350 C3351 1.363 1_545 S
C3350 C3355 1.379 . S
C3350 N3357 1.356 . S
C3351 C3350 1.363 1_565 S
C3351 C3354 1.363 . S
N3352 C3354 1.356 . S
N3352 H3364 0.984 . S
N3352 H3365 0.985 . S
N3353 C3355 1.356 . S
N3353 H3358 0.984 . S
N3353 H3359 0.985 . S
C3354 C3348 1.379 . S
C3354 C3351 1.363 . S
C3354 N3352 1.356 . S
C3355 C3349 1.363 . S
C3355 C3350 1.379 . S
C3355 N3353 1.356 . S
N3356 C3348 1.356 . S
N3356 H3362 0.984 . S
N3356 H3363 0.984 . S
N3357 C3350 1.356 . S
N3357 H3360 0.984 . S
N3357 H3361 0.985 . S
H3358 N3353 0.984 . S
H3359 N3353 0.985 . S
H3360 N3357 0.984 . S
H3361 N3357 0.985 . S
H3362 N3356 0.984 . S
H3363 N3356 0.984 . S
H3364 N3352 0.984 . S
H3365 N3352 0.985 . S
C3366 C3367 1.363 . S
C3366 C3372 1.379 1_556 S
C3366 N3374 1.356 . S
C3367 C3366 1.363 . S
C3367 C3373 1.363 . S
C3368 C3369 1.363 . S
C3368 C3373 1.379 1_554 S
C3368 N3375 1.356 . S
C3369 C3368 1.363 . S
C3369 C3372 1.363 . S
N3370 C3372 1.356 . S
N3370 H3382 0.984 . S
N3370 H3383 0.985 . S
N3371 C3373 1.356 . S
N3371 H3376 0.984 . S
N3371 H3377 0.985 . S
C3372 C3366 1.379 1_554 S
C3372 C3369 1.363 . S
C3372 N3370 1.356 . S
C3373 C3367 1.363 . S
C3373 C3368 1.379 1_556 S
C3373 N3371 1.356 . S
N3374 C3366 1.356 . S
N3374 H3380 0.984 . S
N3374 H3381 0.984 . S
N3375 C3368 1.356 . S
N3375 H3378 0.984 . S
N3375 H3379 0.985 . S
H3376 N3371 0.984 . S
H3377 N3371 0.985 . S
H3378 N3375 0.984 . S
H3379 N3375 0.985 . S
H3380 N3374 0.984 . S
H3381 N3374 0.984 . S
H3382 N3370 0.984 . S
H3383 N3370 0.985 . S
C3384 C3385 1.363 . S
C3384 C3390 1.379 . S
C3384 N3392 1.356 . S
C3385 C3384 1.363 . S
C3385 C3391 1.363 1_546 S
C3386 C3387 1.363 1_565 S
C3386 C3391 1.379 . S
C3386 N3393 1.356 . S
C3387 C3386 1.363 1_545 S
C3387 C3390 1.363 1_554 S
N3388 C3390 1.356 . S
N3388 H3400 0.984 . S
N3388 H3401 0.985 1_556 S
N3389 C3391 1.356 . S
N3389 H3394 0.984 1_554 S
N3389 H3395 0.985 . S
C3390 C3384 1.379 . S
C3390 C3387 1.363 1_556 S
C3390 N3388 1.356 . S
C3391 C3385 1.363 1_564 S
C3391 C3386 1.379 . S
C3391 N3389 1.356 . S
N3392 C3384 1.356 . S
N3392 H3398 0.984 . S
N3392 H3399 0.984 . S
N3393 C3386 1.356 . S
N3393 H3396 0.984 . S
N3393 H3397 0.985 . S
H3394 N3389 0.984 1_556 S
H3395 N3389 0.985 . S
H3396 N3393 0.984 . S
H3397 N3393 0.985 . S
H3398 N3392 0.984 . S
H3399 N3392 0.984 . S
H3400 N3388 0.984 . S
H3401 N3388 0.985 1_554 S
C3402 C3403 1.363 . S
C3402 C3408 1.379 1_545 S
C3402 N3410 1.356 . S
C3403 C3402 1.363 . S
C3403 C3409 1.363 . S
C3404 C3405 1.363 . S
C3404 C3409 1.379 1_565 S
C3404 N3411 1.356 . S
C3405 C3404 1.363 . S
C3405 C3408 1.363 . S
N3406 C3408 1.356 . S
N3406 H3418 1.000 . S
N3406 H3419 0.985 . S
N3407 C3409 1.356 . S
N3407 H3412 0.984 . S
N3407 H3413 0.997 . S
C3408 C3402 1.379 1_565 S
C3408 C3405 1.363 . S
C3408 N3406 1.356 . S
C3409 C3403 1.363 . S
C3409 C3404 1.379 1_545 S
C3409 N3407 1.356 . S
N3410 C3402 1.356 . S
N3410 H3416 0.984 . S
N3410 H3417 0.984 . S
N3411 C3404 1.356 . S
N3411 H3414 0.984 . S
N3411 H3415 0.985 . S
H3412 N3407 0.984 . S
H3413 N3407 0.997 . S
H3414 N3411 0.984 . S
H3415 N3411 0.985 . S
H3416 N3410 0.984 . S
H3417 N3410 0.984 . S
H3418 N3406 1.000 . S
H3419 N3406 0.985 . S
C3420 C3421 1.363 1_545 S
C3420 C3426 1.379 . S
C3420 N3428 1.356 . S
C3421 C3420 1.363 1_565 S
C3421 C3427 1.363 . S
C3422 C3423 1.363 . S
C3422 C3427 1.379 . S
C3422 N3429 1.356 . S
C3423 C3422 1.363 . S
C3423 C3426 1.363 1_565 S
N3424 C3426 1.356 . S
N3424 H3436 0.984 . S
N3424 H3437 0.985 . S
N3425 C3427 1.356 . S
N3425 H3430 0.984 . S
N3425 H3431 0.985 . S
C3426 C3420 1.379 . S
C3426 C3423 1.363 1_545 S
C3426 N3424 1.356 . S
C3427 C3421 1.363 . S
C3427 C3422 1.379 . S
C3427 N3425 1.356 . S
N3428 C3420 1.356 . S
N3428 H3434 0.984 . S
N3428 H3435 0.984 . S
N3429 C3422 1.356 . S
N3429 H3432 0.984 . S
N3429 H3433 0.985 . S
H3430 N3425 0.984 . S
H3431 N3425 0.985 . S
H3432 N3429 0.984 . S
H3433 N3429 0.985 . S
H3434 N3428 0.984 . S
H3435 N3428 0.984 . S
H3436 N3424 0.984 . S
H3437 N3424 0.985 . S
C3438 C3439 1.363 . S
C3438 C3444 1.379 1_545 S
C3438 N3446 1.356 . S
C3439 C3438 1.363 . S
C3439 C3445 1.363 . S
C3440 C3441 1.363 . S
C3440 C3445 1.379 1_565 S
C3440 N3447 1.356 . S
C3441 C3440 1.363 . S
C3441 C3444 1.363 . S
N3442 C3444 1.356 . S
N3442 H3454 0.984 . S
N3442 H3455 0.985 . S
N3443 C3445 1.356 . S
N3443 H3448 0.984 . S
N3443 H3449 0.985 . S
C3444 C3438 1.379 1_565 S
C3444 C3441 1.363 . S
C3444 N3442 1.356 . S
C3445 C3439 1.363 . S
C3445 C3440 1.379 1_545 S
C3445 N3443 1.356 . S
N3446 C3438 1.356 . S
N3446 H3452 0.984 . S
N3446 H3453 0.984 . S
N3447 C3440 1.356 . S
N3447 H3450 0.984 . S
N3447 H3451 0.985 . S
H3448 N3443 0.984 . S
H3449 N3443 0.985 . S
H3450 N3447 0.984 . S
H3451 N3447 0.985 . S
H3452 N3446 0.984 . S
H3453 N3446 0.984 . S
H3454 N3442 0.984 . S
H3455 N3442 0.985 . S
C3456 C3457 1.363 1_656 S
C3456 C3462 1.379 . S
C3456 N3464 1.356 . S
C3457 C3456 1.363 1_454 S
C3457 C3463 1.363 . S
C3458 C3459 1.363 1_455 S
C3458 C3463 1.379 . S
C3458 N3465 1.356 . S
C3459 C3458 1.363 1_655 S
C3459 C3462 1.363 1_554 S
N3460 C3462 1.356 . S
N3460 H3472 0.984 . S
N3460 H3473 0.985 . S
N3461 C3463 1.356 . S
N3461 H3466 0.984 . S
N3461 H3467 0.985 . S
C3462 C3456 1.379 . S
C3462 C3459 1.363 1_556 S
C3462 N3460 1.356 . S
C3463 C3457 1.363 . S
C3463 C3458 1.379 . S
C3463 N3461 1.356 . S
N3464 C3456 1.356 . S
N3464 H3470 0.984 . S
N3464 H3471 0.984 1_655 S
N3465 C3458 1.356 . S
N3465 H3468 0.984 1_455 S
N3465 H3469 0.985 . S
H3466 N3461 0.984 . S
H3467 N3461 0.985 . S
H3468 N3465 0.984 1_655 S
H3469 N3465 0.985 . S
H3470 N3464 0.984 . S
H3471 N3464 0.984 1_455 S
H3472 N3460 0.984 . S
H3473 N3460 0.985 . S
C3474 C3475 1.363 . S
C3474 C3480 1.379 . S
C3474 N3482 1.356 . S
C3475 C3474 1.363 . S
C3475 C3481 1.363 1_556 S
C3476 C3477 1.363 1_554 S
C3476 C3481 1.379 . S
C3476 N3483 1.356 . S
C3477 C3476 1.363 1_556 S
C3477 C3480 1.363 . S
N3478 C3480 1.356 . S
N3478 H3490 0.984 . S
N3478 H3491 0.985 . S
N3479 C3481 1.356 . S
N3479 H3484 0.984 . S
N3479 H3485 0.985 . S
C3480 C3474 1.379 . S
C3480 C3477 1.363 . S
C3480 N3478 1.356 . S
C3481 C3475 1.363 1_554 S
C3481 C3476 1.379 . S
C3481 N3479 1.356 . S
N3482 C3474 1.356 . S
N3482 H3488 0.984 . S
N3482 H3489 0.984 . S
N3483 C3476 1.356 . S
N3483 H3486 0.984 . S
N3483 H3487 0.985 . S
H3484 N3479 0.984 . S
H3485 N3479 0.985 . S
H3486 N3483 0.984 . S
H3487 N3483 0.985 . S
H3488 N3482 0.984 . S
H3489 N3482 0.984 . S
H3490 N3478 0.984 . S
H3491 N3478 0.985 . S
C3492 C3493 1.363 . S
C3492 C3498 1.379 1_655 S
C3492 N3500 1.356 . S
C3493 C3492 1.363 . S
C3493 C3499 1.363 . S
C3494 C3495 1.363 . S
C3494 C3499 1.379 1_455 S
C3494 N3501 1.356 . S
C3495 C3494 1.363 . S
C3495 C3498 1.363 . S
N3496 C3498 1.356 . S
N3496 H3508 0.984 . S
N3496 H3509 0.985 . S
N3497 C3499 1.356 . S
N3497 H3502 0.984 . S
N3497 H3503 0.985 . S
C3498 C3492 1.379 1_455 S
C3498 C3495 1.363 . S
C3498 N3496 1.356 . S
C3499 C3493 1.363 . S
C3499 C3494 1.379 1_655 S
C3499 N3497 1.356 . S
N3500 C3492 1.356 . S
N3500 H3506 0.984 . S
N3500 H3507 0.984 . S
N3501 C3494 1.356 . S
N3501 H3504 0.984 . S
N3501 H3505 0.985 . S
H3502 N3497 0.984 . S
H3503 N3497 0.985 . S
H3504 N3501 0.984 . S
H3505 N3501 0.985 . S
H3506 N3500 0.984 . S
H3507 N3500 0.984 . S
H3508 N3496 0.984 . S
H3509 N3496 0.985 . S
C3510 C3511 1.363 . S
C3510 C3516 1.379 . S
C3510 N3518 1.356 . S
C3511 C3510 1.363 . S
C3511 C3517 1.363 1_455 S
C3512 C3513 1.363 . S
C3512 C3517 1.379 . S
C3512 N3519 1.356 . S
C3513 C3512 1.363 . S
C3513 C3516 1.363 1_655 S
N3514 C3516 1.356 . S
N3514 H3526 0.984 . S
N3514 H3527 0.985 1_455 S
N3515 C3517 1.356 . S
N3515 H3520 0.984 1_655 S
N3515 H3521 0.985 . S
C3516 C3510 1.379 . S
C3516 C3513 1.363 1_455 S
C3516 N3514 1.356 . S
C3517 C3511 1.363 1_655 S
C3517 C3512 1.379 . S
C3517 N3515 1.356 . S
N3518 C3510 1.356 . S
N3518 H3524 0.984 . S
N3518 H3525 0.984 . S
N3519 C3512 1.356 . S
N3519 H3522 0.984 . S
N3519 H3523 0.985 . S
H3520 N3515 0.984 1_455 S
H3521 N3515 0.985 . S
H3522 N3519 0.984 . S
H3523 N3519 0.985 . S
H3524 N3518 0.984 . S
H3525 N3518 0.984 . S
H3526 N3514 0.984 . S
H3527 N3514 0.985 1_655 S
C3528 C3529 1.363 . S
C3528 C3534 1.379 . S
C3528 N3536 1.356 . S
C3529 C3528 1.363 . S
C3529 C3535 1.363 . S
C3530 C3531 1.363 . S
C3530 C3535 1.379 . S
C3530 N3537 1.356 . S
C3531 C3530 1.363 . S
C3531 C3534 1.363 . S
N3532 C3534 1.356 . S
N3532 H3544 0.984 . S
N3532 H3545 0.985 . S
N3533 C3535 1.356 . S
N3533 H3538 0.984 . S
N3533 H3539 0.985 . S
C3534 C3528 1.379 . S
C3534 C3531 1.363 . S
C3534 N3532 1.356 . S
C3535 C3529 1.363 . S
C3535 C3530 1.379 . S
C3535 N3533 1.356 . S
N3536 C3528 1.356 . S
N3536 H3542 0.984 . S
N3536 H3543 0.984 . S
N3537 C3530 1.356 . S
N3537 H3540 0.984 . S
N3537 H3541 0.985 . S
H3538 N3533 0.984 . S
H3539 N3533 0.985 . S
H3540 N3537 0.984 . S
H3541 N3537 0.985 . S
H3542 N3536 0.984 . S
H3543 N3536 0.984 . S
H3544 N3532 0.984 . S
H3545 N3532 0.985 . S
C3546 C3547 1.363 . S
C3546 C3552 1.379 1_455 S
C3546 N3554 1.356 . S
C3547 C3546 1.363 . S
C3547 C3553 1.363 . S
C3548 C3549 1.363 . S
C3548 C3553 1.379 1_655 S
C3548 N3555 1.356 . S
C3549 C3548 1.363 . S
C3549 C3552 1.363 . S
N3550 C3552 1.356 . S
N3550 H3562 0.984 . S
N3550 H3563 0.985 . S
N3551 C3553 1.356 . S
N3551 H3556 0.984 . S
N3551 H3557 0.985 . S
C3552 C3546 1.379 1_655 S
C3552 C3549 1.363 . S
C3552 N3550 1.356 . S
C3553 C3547 1.363 . S
C3553 C3548 1.379 1_455 S
C3553 N3551 1.356 . S
N3554 C3546 1.356 . S
N3554 H3560 0.984 . S
N3554 H3561 0.984 . S
N3555 C3548 1.356 . S
N3555 H3558 0.984 . S
N3555 H3559 0.985 . S
H3556 N3551 0.984 . S
H3557 N3551 0.985 . S
H3558 N3555 0.984 . S
H3559 N3555 0.985 . S
H3560 N3554 0.984 . S
H3561 N3554 0.984 . S
H3562 N3550 0.984 . S
H3563 N3550 0.985 . S
C3564 C3565 1.363 . S
C3564 C3570 1.379 . S
C3564 N3572 1.356 . S
C3565 C3564 1.363 . S
C3565 C3571 1.363 . S
C3566 C3567 1.363 . S
C3566 C3571 1.379 . S
C3566 N3573 1.356 . S
C3567 C3566 1.363 . S
C3567 C3570 1.363 . S
N3568 C3570 1.356 . S
N3568 H3580 0.984 . S
N3568 H3581 0.985 . S
N3569 C3571 1.356 . S
N3569 H3574 0.984 . S
N3569 H3575 0.985 . S
C3570 C3564 1.379 . S
C3570 C3567 1.363 . S
C3570 N3568 1.356 . S
C3571 C3565 1.363 . S
C3571 C3566 1.379 . S
C3571 N3569 1.356 . S
N3572 C3564 1.356 . S
N3572 H3578 0.984 . S
N3572 H3579 0.984 . S
N3573 C3566 1.356 . S
N3573 H3576 0.984 . S
N3573 H3577 0.985 . S
H3574 N3569 0.984 . S
H3575 N3569 0.985 . S
H3576 N3573 0.984 . S
H3577 N3573 0.985 . S
H3578 N3572 0.984 . S
H3579 N3572 0.984 . S
H3580 N3568 0.984 . S
H3581 N3568 0.985 . S
C3582 C3583 1.363 . S
C3582 C3588 1.379 . S
C3582 N3590 1.356 . S
C3583 C3582 1.363 . S
C3583 C3589 1.363 . S
C3584 C3585 1.363 . S
C3584 C3589 1.379 . S
C3584 N3591 1.356 . S
C3585 C3584 1.363 . S
C3585 C3588 1.363 . S
N3586 C3588 1.356 . S
N3586 H3598 0.984 . S
N3586 H3599 0.985 . S
N3587 C3589 1.356 . S
N3587 H3592 0.984 . S
N3587 H3593 0.985 . S
C3588 C3582 1.379 . S
C3588 C3585 1.363 . S
C3588 N3586 1.356 . S
C3589 C3583 1.363 . S
C3589 C3584 1.379 . S
C3589 N3587 1.356 . S
N3590 C3582 1.356 . S
N3590 H3596 0.984 . S
N3590 H3597 0.984 . S
N3591 C3584 1.356 . S
N3591 H3594 0.984 . S
N3591 H3595 0.985 . S
H3592 N3587 0.984 . S
H3593 N3587 0.985 . S
H3594 N3591 0.984 . S
H3595 N3591 0.985 . S
H3596 N3590 0.984 . S
H3597 N3590 0.984 . S
H3598 N3586 0.984 . S
H3599 N3586 0.985 . S
C3600 C3601 1.363 . S
C3600 C3606 1.379 1_554 S
C3600 N3608 1.356 . S
C3601 C3600 1.363 . S
C3601 C3607 1.363 . S
C3602 C3603 1.363 . S
C3602 C3607 1.379 1_556 S
C3602 N3609 1.356 . S
C3603 C3602 1.363 . S
C3603 C3606 1.363 . S
N3604 C3606 1.356 . S
N3604 H3616 0.984 . S
N3604 H3617 0.985 . S
N3605 C3607 1.356 . S
N3605 H3610 0.984 . S
N3605 H3611 0.985 . S
C3606 C3600 1.379 1_556 S
C3606 C3603 1.363 . S
C3606 N3604 1.356 . S
C3607 C3601 1.363 . S
C3607 C3602 1.379 1_554 S
C3607 N3605 1.356 . S
N3608 C3600 1.356 . S
N3608 H3614 0.984 . S
N3608 H3615 0.984 . S
N3609 C3602 1.356 . S
N3609 H3612 0.984 . S
N3609 H3613 0.985 . S
H3610 N3605 0.984 . S
H3611 N3605 0.985 . S
H3612 N3609 0.984 . S
H3613 N3609 0.985 . S
H3614 N3608 0.984 . S
H3615 N3608 0.984 . S
H3616 N3604 0.984 . S
H3617 N3604 0.985 . S
C3618 C3619 1.363 1_455 S
C3618 C3624 1.379 . S
C3618 N3626 1.356 . S
C3619 C3618 1.363 1_655 S
C3619 C3625 1.363 . S
C3620 C3621 1.363 . S
C3620 C3625 1.379 . S
C3620 N3627 1.356 . S
C3621 C3620 1.363 . S
C3621 C3624 1.363 1_655 S
N3622 C3624 1.356 . S
N3622 H3634 0.984 . S
N3622 H3635 0.985 . S
N3623 C3625 1.356 . S
N3623 H3628 0.984 . S
N3623 H3629 0.985 . S
C3624 C3618 1.379 . S
C3624 C3621 1.363 1_455 S
C3624 N3622 1.356 . S
C3625 C3619 1.363 . S
C3625 C3620 1.379 . S
C3625 N3623 1.356 . S
N3626 C3618 1.356 . S
N3626 H3632 0.984 . S
N3626 H3633 0.984 . S
N3627 C3620 1.356 . S
N3627 H3630 0.984 . S
N3627 H3631 0.985 . S
H3628 N3623 0.984 . S
H3629 N3623 0.985 . S
H3630 N3627 0.984 . S
H3631 N3627 0.985 . S
H3632 N3626 0.984 . S
H3633 N3626 0.984 . S
H3634 N3622 0.984 . S
H3635 N3622 0.985 . S
C3636 C3637 1.363 . S
C3636 C3642 1.379 . S
C3636 N3644 1.356 . S
C3637 C3636 1.363 . S
C3637 C3643 1.363 . S
C3638 C3639 1.363 . S
C3638 C3643 1.379 . S
C3638 N3645 1.356 . S
C3639 C3638 1.363 . S
C3639 C3642 1.363 . S
N3640 C3642 1.356 . S
N3640 H3652 0.984 . S
N3640 H3653 0.985 . S
N3641 C3643 1.356 . S
N3641 H3646 0.984 . S
N3641 H3647 0.985 . S
C3642 C3636 1.379 . S
C3642 C3639 1.363 . S
C3642 N3640 1.356 . S
C3643 C3637 1.363 . S
C3643 C3638 1.379 . S
C3643 N3641 1.356 . S
N3644 C3636 1.356 . S
N3644 H3650 0.984 . S
N3644 H3651 0.984 . S
N3645 C3638 1.356 . S
N3645 H3648 0.984 . S
N3645 H3649 0.985 . S
H3646 N3641 0.984 . S
H3647 N3641 0.985 . S
H3648 N3645 0.984 . S
H3649 N3645 0.985 . S
H3650 N3644 0.984 . S
H3651 N3644 0.984 . S
H3652 N3640 0.984 . S
H3653 N3640 0.985 . S
C3654 C3655 1.363 . S
C3654 C3660 1.379 . S
C3654 N3662 1.356 . S
C3655 C3654 1.363 . S
C3655 C3661 1.363 . S
C3656 C3657 1.363 . S
C3656 C3661 1.379 . S
C3656 N3663 1.356 . S
C3657 C3656 1.363 . S
C3657 C3660 1.363 . S
N3658 C3660 1.356 . S
N3658 H3670 0.984 . S
N3658 H3671 0.985 . S
N3659 C3661 1.356 . S
N3659 H3664 0.984 . S
N3659 H3665 0.985 . S
C3660 C3654 1.379 . S
C3660 C3657 1.363 . S
C3660 N3658 1.356 . S
C3661 C3655 1.363 . S
C3661 C3656 1.379 . S
C3661 N3659 1.356 . S
N3662 C3654 1.356 . S
N3662 H3668 0.984 . S
N3662 H3669 0.984 . S
N3663 C3656 1.356 . S
N3663 H3666 0.984 . S
N3663 H3667 0.985 . S
H3664 N3659 0.984 . S
H3665 N3659 0.985 . S
H3666 N3663 0.984 . S
H3667 N3663 0.985 . S
H3668 N3662 0.984 . S
H3669 N3662 0.984 . S
H3670 N3658 0.984 . S
H3671 N3658 0.985 . S
C3672 C3673 1.363 . S
C3672 C3678 1.379 . S
C3672 N3680 1.356 . S
C3673 C3672 1.363 . S
C3673 C3679 1.363 . S
C3674 C3675 1.363 . S
C3674 C3679 1.379 . S
C3674 N3681 1.356 . S
C3675 C3674 1.363 . S
C3675 C3678 1.363 . S
N3676 C3678 1.356 . S
N3676 H3688 0.984 . S
N3676 H3689 0.985 . S
N3677 C3679 1.356 . S
N3677 H3682 0.984 . S
N3677 H3683 0.985 . S
C3678 C3672 1.379 . S
C3678 C3675 1.363 . S
C3678 N3676 1.356 . S
C3679 C3673 1.363 . S
C3679 C3674 1.379 . S
C3679 N3677 1.356 . S
N3680 C3672 1.356 . S
N3680 H3686 0.984 . S
N3680 H3687 0.984 . S
N3681 C3674 1.356 . S
N3681 H3684 0.984 . S
N3681 H3685 0.985 . S
H3682 N3677 0.984 . S
H3683 N3677 0.985 . S
H3684 N3681 0.984 . S
H3685 N3681 0.985 . S
H3686 N3680 0.984 . S
H3687 N3680 0.984 . S
H3688 N3676 0.984 . S
H3689 N3676 0.985 . S
C3690 C3691 1.363 . S
C3690 C3696 1.379 . S
C3690 N3698 1.356 . S
C3691 C3690 1.363 . S
C3691 C3697 1.363 1_556 S
C3692 C3693 1.363 . S
C3692 C3697 1.379 . S
C3692 N3699 1.356 . S
C3693 C3692 1.363 . S
C3693 C3696 1.363 1_554 S
N3694 C3696 1.356 . S
N3694 H3706 0.984 . S
N3694 H3707 0.985 1_556 S
N3695 C3697 1.356 . S
N3695 H3700 0.984 1_554 S
N3695 H3701 0.985 . S
C3696 C3690 1.379 . S
C3696 C3693 1.363 1_556 S
C3696 N3694 1.356 . S
C3697 C3691 1.363 1_554 S
C3697 C3692 1.379 . S
C3697 N3695 1.356 . S
N3698 C3690 1.356 . S
N3698 H3704 0.984 . S
N3698 H3705 0.984 . S
N3699 C3692 1.356 . S
N3699 H3702 0.984 . S
N3699 H3703 0.985 . S
H3700 N3695 0.984 1_556 S
H3701 N3695 0.985 . S
H3702 N3699 0.984 . S
H3703 N3699 0.985 . S
H3704 N3698 0.984 . S
H3705 N3698 0.984 . S
H3706 N3694 0.984 . S
H3707 N3694 0.985 1_554 S
C3708 C3709 1.363 . S
C3708 C3714 1.379 . S
C3708 N3716 1.356 . S
C3709 C3708 1.363 . S
C3709 C3715 1.363 . S
C3710 C3711 1.363 . S
C3710 C3715 1.379 . S
C3710 N3717 1.356 . S
C3711 C3710 1.363 . S
C3711 C3714 1.363 . S
N3712 C3714 1.356 . S
N3712 H3724 0.984 . S
N3712 H3725 0.985 . S
N3713 C3715 1.356 . S
N3713 H3718 0.984 . S
N3713 H3719 0.985 . S
C3714 C3708 1.379 . S
C3714 C3711 1.363 . S
C3714 N3712 1.356 . S
C3715 C3709 1.363 . S
C3715 C3710 1.379 . S
C3715 N3713 1.356 . S
N3716 C3708 1.356 . S
N3716 H3722 0.984 . S
N3716 H3723 0.984 . S
N3717 C3710 1.356 . S
N3717 H3720 0.984 . S
N3717 H3721 0.985 . S
H3718 N3713 0.984 . S
H3719 N3713 0.985 . S
H3720 N3717 0.984 . S
H3721 N3717 0.985 . S
H3722 N3716 0.984 . S
H3723 N3716 0.984 . S
H3724 N3712 0.984 . S
H3725 N3712 0.985 . S
C3726 C3727 1.363 . S
C3726 C3732 1.379 . S
C3726 N3734 1.356 . S
C3727 C3726 1.363 . S
C3727 C3733 1.363 . S
C3728 C3729 1.363 . S
C3728 C3733 1.379 . S
C3728 N3735 1.356 . S
C3729 C3728 1.363 . S
C3729 C3732 1.363 . S
N3730 C3732 1.356 . S
N3730 H3742 0.984 . S
N3730 H3743 0.985 . S
N3731 C3733 1.356 . S
N3731 H3736 0.984 . S
N3731 H3737 0.985 . S
C3732 C3726 1.379 . S
C3732 C3729 1.363 . S
C3732 N3730 1.356 . S
C3733 C3727 1.363 . S
C3733 C3728 1.379 . S
C3733 N3731 1.356 . S
N3734 C3726 1.356 . S
N3734 H3740 0.984 . S
N3734 H3741 0.984 . S
N3735 C3728 1.356 . S
N3735 H3738 0.984 . S
N3735 H3739 0.985 . S
H3736 N3731 0.984 . S
H3737 N3731 0.985 . S
H3738 N3735 0.984 . S
H3739 N3735 0.985 . S
H3740 N3734 0.984 . S
H3741 N3734 0.984 . S
H3742 N3730 0.984 . S
H3743 N3730 0.985 . S
C1585 N13 1.579 . S
C1587 C348 1.837 . S
C1603 C381 1.837 . S
C1605 N46 1.579 . S
C1621 C282 1.837 1_556 S
C1623 N79 1.580 . S
C1639 C315 1.837 . S
C1641 N112 1.579 . S
C1657 C480 1.837 1_554 S
C1659 N145 1.579 . S
C1675 N178 1.580 . S
C1677 C513 1.837 . S
C1693 C414 1.837 . S
C1695 N211 1.579 . S
C1711 C447 1.837 . S
C1713 N244 1.579 . S
C1729 N277 1.579 . S
C1731 C579 1.837 . S
C1747 N310 1.579 . S
C1749 C612 1.837 . S
C1765 C645 1.837 1_455 S
C1767 N343 1.579 . S
C1783 N376 1.580 . S
C1785 C1470 1.837 . S
C1801 C1338 1.838 . S
C1803 N409 1.580 . S
C1819 N442 1.579 . S
C1821 C777 1.837 . S
C1837 N475 1.579 . S
C1839 C1503 1.837 1_455 S
C1855 C744 1.837 . S
C1857 N508 1.579 . S
C1873 N541 1.579 . S
C1875 C1008 1.837 . S
C1891 C84 1.837 1_545 S
C1893 N574 1.579 . S
C1909 C117 1.837 . S
C1911 N607 1.579 . S
C1927 C18 1.837 1_565 S
C1929 N640 1.580 . S
C1945 N673 1.579 . S
C1947 C843 1.837 . S
C1963 N706 1.580 . S
C1965 C942 1.838 . S
C1981 C183 1.837 . S
C1983 N739 1.579 . S
C1999 C249 1.837 . S
C2001 N772 1.580 . S
C2017 N805 1.580 . S
C2019 C1140 1.837 1_556 S
C2035 N838 1.579 . S
C2037 C1173 1.837 . S
C2053 C1074 1.838 . S
C2055 N871 1.580 . S
C2071 C1107 1.837 . S
C2073 N904 1.580 . S
C2089 C1272 1.838 . S
C2091 N937 1.580 . S
C2107 C1305 1.837 . S
C2109 N970 1.580 . S
C2125 C1206 1.837 1_554 S
C2127 N1003 1.579 . S
C2143 N1036 1.580 . S
C2145 C1239 1.838 . S
C2161 N1069 1.580 . S
C2163 C1371 1.837 1_655 S
C2179 C1404 1.837 . S
C2181 N1102 1.580 . S
C2197 N1135 1.579 . S
C2199 C1437 1.837 . S
C2215 N1168 1.580 . S
C2217 C678 1.837 . S
C2233 N1201 1.580 . S
C2235 C546 1.837 1_655 S
C2251 N1234 1.579 . S
C2253 C1569 1.837 . S
C2269 C711 1.838 . S
C2271 N1267 1.580 . S
C2287 C1536 1.838 . S
C2289 N1300 1.580 . S
C2305 N1333 1.580 . S
C2307 C216 1.837 1_565 S
C2323 C876 1.837 . S
C2325 N1366 1.579 . S
C2341 N1399 1.580 . S
C2343 C909 1.837 . S
C2359 N1432 1.580 . S
C2361 C810 1.838 . S
C2377 C51 1.838 . S
C2379 N1465 1.580 . S
C2395 N1498 1.579 . S
C2397 C150 1.837 1_545 S
C2413 N1531 1.579 . S
C2415 C975 1.837 . S
C2431 C1041 1.837 . S
C2433 N1564 1.580 . S
C2449 C304 1.977 . S
C2451 C7 1.977 . S
C2467 C40 1.977 . S
C2469 C337 1.977 . S
C2485 C370 1.977 . S
C2487 C73 1.977 . S
C2503 C271 1.977 . S
C2505 C106 1.977 . S
C2521 C139 1.977 . S
C2523 C502 1.977 . S
C2539 C172 1.977 . S
C2541 C403 1.977 . S
C2557 C436 1.977 . S
C2559 C205 1.977 . S
C2575 C238 1.977 . S
C2577 C469 1.977 . S
C2593 C601 1.977 . S
C2595 C535 1.977 . S
C2611 C568 1.977 . S
C2613 C1525 1.977 . S
C2629 C1558 1.977 . S
C2631 C634 1.977 . S
C2647 C667 1.977 . S
C2649 C1492 1.977 . S
C2665 C1459 1.977 . S
C2667 C700 1.977 . S
C2683 C1360 1.977 . S
C2685 C733 1.977 . S
C2701 C766 1.977 . S
C2703 C1426 1.977 . S
C2719 C799 1.977 . S
C2721 C1096 1.977 . S
C2737 C1129 1.977 . S
C2739 C832 1.977 . S
C2755 C1162 1.977 . S
C2757 C865 1.977 . S
C2773 C898 1.977 . S
C2775 C1063 1.977 . S
C2791 C1294 1.977 . S
C2793 C931 1.977 . S
C2809 C1195 1.977 . S
C2811 C964 1.977 . S
C2827 C997 1.977 . S
C2829 C1228 1.977 . S
C2845 C1261 1.977 . S
C2847 C1030 1.977 . S
C2863 C1393 1.977 . S
C2865 C1327 1.977 . S
C2881 C681 1.329 . S
C2883 C21 1.330 . S
C2899 C54 1.328 . S
C2901 C1374 1.328 . S
C2917 C87 1.329 . S
C2919 C1407 1.329 . S
C2935 C1440 1.329 . S
C2937 C120 1.329 . S
C2953 C1572 1.329 . S
C2955 C153 1.329 . S
C2971 C714 1.329 . S
C2973 C186 1.329 . S
C2989 C219 1.328 . S
C2991 C1539 1.328 . S
C3007 C252 1.329 . S
C3009 C549 1.330 . S
C3025 C516 1.329 . S
C3027 C285 1.330 . S
C3043 C318 1.329 . S
C3045 C417 1.329 . S
C3061 C351 1.328 . S
C3063 C450 1.328 . S
C3079 C483 1.329 . S
C3081 C384 1.329 . S
C3097 C846 1.328 . S
C3099 C582 1.328 . S
C3115 C615 1.329 . S
C3117 C879 1.329 . S
C3133 C648 1.329 . S
C3135 C912 1.329 . S
C3151 C747 1.328 . S
C3153 C1011 1.328 . S
C3169 C945 1.329 . S
C3171 C780 1.329 . S
C3187 C813 1.329 . S
C3189 C1473 1.329 . S
C3205 C1506 1.329 . S
C3207 C978 1.329 . S
C3223 C1341 1.329 . S
C3225 C1044 1.329 . S
C3241 C1077 1.329 . S
C3243 C1308 1.329 . S
C3259 C1209 1.329 . S
C3261 C1110 1.329 . S
C3277 C1143 1.328 . S
C3279 C1242 1.328 . S
C3295 C1176 1.329 . S
C3297 C1275 1.329 . S
C3313 N134 1.175 . S
C3315 N2 1.175 . S
C3331 N167 1.175 . S
C3333 N35 1.175 . S
C3349 N200 1.174 . S
C3351 N68 1.174 . S
C3367 N233 1.175 . S
C3369 N101 1.175 . S
C3385 N464 1.175 . S
C3387 N266 1.175 . S
C3403 N299 1.175 . S
C3405 N497 1.175 . S
C3421 N332 1.175 . S
C3423 N398 1.175 . S
C3439 N431 1.175 . S
C3441 N365 1.175 . S
C3457 N530 1.175 . S
C3459 N1487 1.175 . S
C3475 N563 1.175 . S
C3477 N1421 1.175 . S
C3493 N662 1.175 . S
C3495 N596 1.175 . S
C3511 N1355 1.174 . S
C3513 N629 1.174 . S
C3529 N1322 1.174 . S
C3531 N695 1.174 . S
C3547 N728 1.175 . S
C3549 N1553 1.175 . S
C3565 N1520 1.175 . S
C3567 N761 1.175 . S
C3583 N926 1.174 . S
C3585 N794 1.174 . S
C3601 N827 1.175 . S
C3603 N959 1.175 . S
C3619 N860 1.175 . S
C3621 N992 1.175 . S
C3637 N893 1.175 . S
C3639 N1025 1.175 . S
C3655 N1058 1.174 . S
C3657 N1256 1.174 . S
C3673 N1091 1.175 . S
C3675 N1289 1.175 . S
C3691 N1190 1.174 . S
C3693 N1124 1.174 . S
C3709 N1157 1.175 . S
C3711 N1223 1.175 . S
C3727 N1454 1.175 . S
C3729 N1388 1.175 . S
