# Generated by pormake.
# Topology whk, (6)-cn, num edge types: 1
# Building blocks:
#     Node 0, Type 0, BuildingBlock: MIFKUJ_clean_sbu_0, # of connection points: 6
#     Node 1, Type 0, BuildingBlock: MIFKUJ_clean_sbu_0, # of connection points: 6
#     Node 2, Type 0, BuildingBlock: MIFKUJ_clean_sbu_0, # of connection points: 6
#     Node 3, Type 0, BuildingBlock: MIFKUJ_clean_sbu_0, # of connection points: 6
#     Node 4, Type 0, BuildingBlock: MIFKUJ_clean_sbu_0, # of connection points: 6
#     Node 5, Type 0, BuildingBlock: MIFKUJ_clean_sbu_0, # of connection points: 6
#     Node 6, Type 0, BuildingBlock: MIFKUJ_clean_sbu_0, # of connection points: 6
#     Node 7, Type 0, BuildingBlock: MIFKUJ_clean_sbu_0, # of connection points: 6
#     Node 8, Type 0, BuildingBlock: MIFKUJ_clean_sbu_0, # of connection points: 6
#     Node 9, Type 0, BuildingBlock: MIFKUJ_clean_sbu_0, # of connection points: 6
#     Node 10, Type 0, BuildingBlock: MIFKUJ_clean_sbu_0, # of connection points: 6
#     Node 11, Type 0, BuildingBlock: MIFKUJ_clean_sbu_0, # of connection points: 6
#     Node 12, Type 0, BuildingBlock: MIFKUJ_clean_sbu_0, # of connection points: 6
#     Node 13, Type 0, BuildingBlock: MIFKUJ_clean_sbu_0, # of connection points: 6
#     Node 14, Type 0, BuildingBlock: MIFKUJ_clean_sbu_0, # of connection points: 6
#     Node 15, Type 0, BuildingBlock: MIFKUJ_clean_sbu_0, # of connection points: 6
#     Edge 16, Type (0, 0), None
#     Edge 17, Type (0, 0), None
#     Edge 18, Type (0, 0), None
#     Edge 19, Type (0, 0), None
#     Edge 20, Type (0, 0), None
#     Edge 21, Type (0, 0), None
#     Edge 22, Type (0, 0), None
#     Edge 23, Type (0, 0), None
#     Edge 24, Type (0, 0), None
#     Edge 25, Type (0, 0), None
#     Edge 26, Type (0, 0), None
#     Edge 27, Type (0, 0), None
#     Edge 28, Type (0, 0), None
#     Edge 29, Type (0, 0), None
#     Edge 30, Type (0, 0), None
#     Edge 31, Type (0, 0), None
#     Edge 32, Type (0, 0), None
#     Edge 33, Type (0, 0), None
#     Edge 34, Type (0, 0), None
#     Edge 35, Type (0, 0), None
#     Edge 36, Type (0, 0), None
#     Edge 37, Type (0, 0), None
#     Edge 38, Type (0, 0), None
#     Edge 39, Type (0, 0), None
#     Edge 40, Type (0, 0), None
#     Edge 41, Type (0, 0), None
#     Edge 42, Type (0, 0), None
#     Edge 43, Type (0, 0), None
#     Edge 44, Type (0, 0), None
#     Edge 45, Type (0, 0), None
#     Edge 46, Type (0, 0), None
#     Edge 47, Type (0, 0), None
#     Edge 48, Type (0, 0), None
#     Edge 49, Type (0, 0), None
#     Edge 50, Type (0, 0), None
#     Edge 51, Type (0, 0), None
#     Edge 52, Type (0, 0), None
#     Edge 53, Type (0, 0), None
#     Edge 54, Type (0, 0), None
#     Edge 55, Type (0, 0), None
#     Edge 56, Type (0, 0), None
#     Edge 57, Type (0, 0), None
#     Edge 58, Type (0, 0), None
#     Edge 59, Type (0, 0), None
#     Edge 60, Type (0, 0), None
#     Edge 61, Type (0, 0), None
#     Edge 62, Type (0, 0), None
#     Edge 63, Type (0, 0), None
# Relax obj value: 0.443
# Max RMSD: 0.283
# Mean RMSD: 0.283
data_MOF--net-whk--node1-MIFKUJ_clean_sbu_0--edge1-none
_symmetry_space_group_name_H-M    P1
_symmetry_Int_Tables_number       1
_symmetry_cell_setting            triclinic
loop_
_symmetry_equiv_pos_as_xyz
'x, y, z'
_cell_length_a     21.332966
_cell_length_b     21.116567
_cell_length_c     17.744354
_cell_angle_alpha  92.092314
_cell_angle_beta   88.683554
_cell_angle_gamma 89.777744
loop_
_atom_site_label
_atom_site_type_symbol
_atom_site_fract_x
_atom_site_fract_y
_atom_site_fract_z
_atom_type_partial_charge
Zn0 Zn 0.4645 0.18313 0.33343 0.0
Zn1 Zn 0.63569 0.12327 0.37184 0.0
C2 C 0.41981 0.31152 0.34803 0.0
O3 O 0.41936 0.29858 0.41985 0.0
C4 C 0.72262 0.051 0.46127 0.0
O5 O 0.73962 0.02041 0.39833 0.0
O6 O 0.38487 0.13863 0.36008 0.0
O7 O 0.51061 0.13333 0.25063 0.0
O8 O 0.55818 0.0804 0.33642 0.0
C9 C 0.35261 0.10486 0.31485 0.0
O10 O 0.37193 0.09481 0.24464 0.0
O11 O 0.43876 0.26969 0.29913 0.0
C12 C 0.75737 0.13409 0.29064 0.0
O13 O 0.79651 0.12007 0.23424 0.0
O14 O 0.70278 0.11038 0.29037 0.0
O15 O 0.61265 0.21567 0.40418 0.0
O16 O 0.51324 0.19542 0.42948 0.0
O17 O 0.6747 0.08734 0.46316 0.0
C18 C 0.54795 0.08942 0.26739 0.0
C19 C 0.55994 0.23236 0.43446 0.0
Zn20 Zn 0.31648 0.48302 0.33801 0.0
Zn21 Zn 0.38392 0.65817 0.37287 0.0
C22 C 0.19469 0.43041 0.35083 0.0
O23 O 0.20452 0.44652 0.42171 0.0
C24 C 0.44687 0.73605 0.48295 0.0
O25 O 0.48594 0.7434 0.42569 0.0
O26 O 0.36999 0.41124 0.37323 0.0
O27 O 0.35989 0.52599 0.25272 0.0
O28 O 0.421 0.57698 0.33082 0.0
C29 C 0.39164 0.37087 0.32423 0.0
O30 O 0.38238 0.3793 0.25237 0.0
O31 O 0.23667 0.44159 0.30103 0.0
C32 C 0.37099 0.77391 0.29375 0.0
O33 O 0.39089 0.81792 0.24888 0.0
O34 O 0.40529 0.7259 0.30221 0.0
O35 O 0.29229 0.64129 0.37918 0.0
O36 O 0.28832 0.5444 0.42433 0.0
O37 O 0.40416 0.69445 0.4774 0.0
C38 C 0.40474 0.56432 0.26322 0.0
C39 C 0.27582 0.60357 0.43012 0.0
Zn40 Zn 0.02173 0.32891 0.3742 0.0
Zn41 Zn 0.83381 0.30198 0.3881 0.0
C42 C 0.08529 0.21218 0.3586 0.0
O43 O 0.10076 0.23117 0.42693 0.0
C44 C 0.76875 0.38826 0.48619 0.0
O45 O 0.80143 0.42804 0.44609 0.0
O46 O 0.09673 0.38611 0.38322 0.0
O47 O 0.9511 0.37179 0.30865 0.0
O48 O 0.84572 0.36759 0.31228 0.0
C49 C 0.13754 0.3956 0.33158 0.0
O50 O 0.13089 0.36973 0.26383 0.0
O51 O 0.05106 0.24764 0.3201 0.0
C52 C 0.77418 0.18291 0.34719 0.0
O53 O 0.73867 0.19451 0.40735 0.0
O54 O 0.81785 0.22076 0.33124 0.0
O55 O 0.91465 0.30059 0.42778 0.0
O56 O 1.00085 0.30199 0.48401 0.0
O57 O 0.77226 0.32919 0.4702 0.0
C58 C 0.89704 0.38845 0.28469 0.0
C59 C 0.94363 0.28804 0.48592 0.0
Zn60 Zn 0.17433 0.02839 0.34855 0.0
Zn61 Zn 0.19096 0.84077 0.3625 0.0
C62 C 0.2917 0.08165 0.34096 0.0
O63 O 0.27076 0.09917 0.40875 0.0
C64 C 0.09274 0.75933 0.43054 0.0
O65 O 0.05944 0.77309 0.37197 0.0
O66 O 0.13491 0.11365 0.37299 0.0
O67 O 0.11675 0.97899 0.27838 0.0
O68 O 0.12682 0.87458 0.29081 0.0
C69 C 0.10717 0.15007 0.32895 0.0
O70 O 0.09926 0.13243 0.2581 0.0
O71 O 0.25734 0.0475 0.29844 0.0
C72 C 0.31209 0.78282 0.33725 0.0
O73 O 0.31303 0.78487 0.41119 0.0
O74 O 0.26238 0.79841 0.30409 0.0
O75 O 0.2387 0.90279 0.42498 0.0
O76 O 0.19422 0.99555 0.45111 0.0
O77 O 0.14827 0.7808 0.4361 0.0
C78 C 0.10163 0.92217 0.261 0.0
C79 C 0.23897 0.9567 0.45833 0.0
Zn80 Zn 0.97031 0.82097 0.13385 0.0
Zn81 Zn 0.14185 0.88952 0.09135 0.0
C82 C 0.92398 0.69429 0.12701 0.0
O83 O 0.93946 0.69965 0.05551 0.0
C84 C 0.21901 0.95397 0.98481 0.0
O85 O 0.22812 0.99218 0.04356 0.0
O86 O 0.8967 0.87261 0.10263 0.0
O87 O 0.01539 0.86579 0.21718 0.0
O88 O 0.06257 0.92595 0.1364 0.0
C89 C 0.85684 0.89236 0.15253 0.0
O90 O 0.86653 0.88246 0.22397 0.0
O91 O 0.93344 0.74037 0.17343 0.0
C92 C 0.25945 0.88047 0.16998 0.0
O93 O 0.29984 0.90147 0.21949 0.0
O94 O 0.20939 0.91138 0.1624 0.0
O95 O 0.12544 0.7964 0.08027 0.0
O96 O 0.02637 0.79438 0.04319 0.0
O97 O 0.17572 0.91287 0.98815 0.0
C98 C 0.05331 0.91035 0.20452 0.0
C99 C 0.0843 0.78088 0.03225 0.0
Zn100 Zn 0.6742 0.96899 0.13948 0.0
Zn101 Zn 0.64278 0.15356 0.12401 0.0
C102 C 0.79749 0.92002 0.12965 0.0
O103 O 0.78366 0.91934 0.05791 0.0
C104 C 0.57951 0.25666 0.04523 0.0
O105 O 0.56411 0.281 0.11227 0.0
O106 O 0.63121 0.8905 0.09828 0.0
O107 O 0.61998 0.00974 0.2227 0.0
O108 O 0.58857 0.07787 0.1416 0.0
C109 C 0.60216 0.85263 0.14074 0.0
O110 O 0.5975 0.86542 0.21363 0.0
O111 O 0.7571 0.94019 0.17873 0.0
C112 C 0.68249 0.2524 0.23378 0.0
O113 O 0.67839 0.28484 0.29824 0.0
O114 O 0.64311 0.20889 0.21956 0.0
O115 O 0.72955 0.12097 0.08918 0.0
O116 O 0.69344 0.02735 0.05316 0.0
O117 O 0.60962 0.20449 0.03889 0.0
C118 C 0.58624 0.05704 0.20778 0.0
C119 C 0.7382 0.06704 0.05555 0.0
Zn120 Zn 0.52445 0.66911 0.10365 0.0
Zn121 Zn 0.34807 0.70585 0.10422 0.0
C122 C 0.57801 0.7927 0.10885 0.0
O123 O 0.58922 0.77719 0.03746 0.0
C124 C 0.26249 0.61853 0.02318 0.0
O125 O 0.25039 0.59452 0.08912 0.0
O126 O 0.60508 0.62192 0.08098 0.0
O127 O 0.4717 0.61924 0.17958 0.0
O128 O 0.36848 0.63937 0.17923 0.0
C129 C 0.64287 0.60662 0.13157 0.0
O130 O 0.6288 0.61949 0.20293 0.0
O131 O 0.54931 0.75394 0.15051 0.0
C132 C 0.27296 0.82237 0.12465 0.0
O133 O 0.267 0.82124 0.05119 0.0
O134 O 0.29991 0.77683 0.15566 0.0
O135 O 0.42544 0.74826 0.06739 0.0
O136 O 0.48736 0.68478 0.00165 0.0
O137 O 0.30034 0.66484 0.01787 0.0
C138 C 0.41584 0.61053 0.20446 0.0
C139 C 0.44617 0.72806 0.0038 0.0
Zn140 Zn 0.82402 0.52027 0.12565 0.0
Zn141 Zn 0.82339 0.34375 0.11901 0.0
C142 C 0.70314 0.57719 0.10938 0.0
O143 O 0.71948 0.57145 0.03766 0.0
C144 C 0.90349 0.27181 0.01661 0.0
O145 O 0.94632 0.29104 0.06411 0.0
O146 O 0.88069 0.59299 0.10292 0.0
O147 O 0.85668 0.47191 0.21596 0.0
O148 O 0.89984 0.39184 0.15385 0.0
C149 C 0.89083 0.63761 0.15097 0.0
O150 O 0.86658 0.6352 0.21949 0.0
O151 O 0.74052 0.55872 0.15891 0.0
C152 C 0.73111 0.26818 0.17857 0.0
O153 O 0.72031 0.26124 0.10627 0.0
O154 O 0.77948 0.29794 0.19998 0.0
O155 O 0.75675 0.40233 0.08879 0.0
O156 O 0.80847 0.47165 0.0251 0.0
O157 O 0.84643 0.28658 0.02947 0.0
C158 C 0.89261 0.42365 0.21516 0.0
C159 C 0.77033 0.42575 0.02639 0.0
Zn160 Zn 0.3706 0.89247 0.60876 0.0
Zn161 Zn 0.54181 0.83257 0.64721 0.0
C162 C 0.28368 0.96476 0.51935 0.0
O163 O 0.26665 0.99532 0.58229 0.0
C164 C 0.58651 0.7042 0.63261 0.0
O165 O 0.58695 0.71714 0.56079 0.0
O166 O 0.30352 0.90535 0.69024 0.0
O167 O 0.39362 0.80007 0.5764 0.0
O168 O 0.49308 0.82027 0.55116 0.0
C169 C 0.24892 0.88164 0.68997 0.0
O170 O 0.20979 0.89565 0.74638 0.0
O171 O 0.3316 0.92842 0.51744 0.0
C172 C 0.65371 0.91083 0.66579 0.0
O173 O 0.63441 0.92088 0.73601 0.0
O174 O 0.62144 0.87708 0.62056 0.0
O175 O 0.4957 0.88239 0.73 0.0
O176 O 0.44813 0.9353 0.6442 0.0
O177 O 0.56756 0.74602 0.68152 0.0
C178 C 0.44636 0.78335 0.5462 0.0
C179 C 0.45835 0.92628 0.71323 0.0
Zn180 Zn 0.62238 0.35756 0.60774 0.0
Zn181 Zn 0.68984 0.5327 0.6426 0.0
C182 C 0.55942 0.27969 0.49768 0.0
O183 O 0.52033 0.27236 0.55493 0.0
C184 C 0.81164 0.58531 0.62977 0.0
O185 O 0.8018 0.5692 0.55889 0.0
O186 O 0.60102 0.28983 0.6784 0.0
O187 O 0.71401 0.37444 0.60142 0.0
O188 O 0.718 0.47132 0.55627 0.0
C189 C 0.63532 0.24182 0.68686 0.0
O190 O 0.61542 0.19782 0.73174 0.0
O191 O 0.60213 0.32128 0.50322 0.0
C192 C 0.61469 0.64484 0.6564 0.0
O193 O 0.62395 0.63641 0.72826 0.0
O194 O 0.63633 0.60448 0.60739 0.0
O195 O 0.64644 0.48973 0.72789 0.0
O196 O 0.58531 0.43875 0.6498 0.0
O197 O 0.76965 0.57413 0.67957 0.0
C198 C 0.73048 0.41215 0.55047 0.0
C199 C 0.60158 0.4514 0.71739 0.0
Zn200 Zn 0.17251 0.71374 0.59251 0.0
Zn201 Zn 0.98459 0.68681 0.6064 0.0
C202 C 0.23756 0.62746 0.49441 0.0
O203 O 0.20489 0.58768 0.53452 0.0
C204 C 0.92103 0.80354 0.622 0.0
O205 O 0.90557 0.78456 0.55367 0.0
O206 O 0.18847 0.79496 0.64938 0.0
O207 O 0.09167 0.71514 0.55283 0.0
O208 O 0.00547 0.71373 0.49659 0.0
C209 C 0.23212 0.83283 0.63341 0.0
O210 O 0.26761 0.82124 0.57323 0.0
O211 O 0.23405 0.68654 0.5104 0.0
C212 C 0.86879 0.62012 0.64902 0.0
O213 O 0.87543 0.64598 0.71677 0.0
O214 O 0.90959 0.62961 0.59738 0.0
O215 O 0.05522 0.64393 0.67196 0.0
O216 O 0.1606 0.64813 0.66832 0.0
O217 O 0.95525 0.76807 0.6605 0.0
C218 C 0.06269 0.7277 0.4947 0.0
C219 C 0.10928 0.62727 0.69591 0.0
Zn220 Zn 0.81536 0.17497 0.61811 0.0
Zn221 Zn 0.83198 0.98732 0.63206 0.0
C222 C 0.91359 0.25639 0.55007 0.0
O223 O 0.94689 0.24262 0.60862 0.0
C224 C 0.71461 0.93405 0.63967 0.0
O225 O 0.73555 0.91654 0.57188 0.0
O226 O 0.74393 0.21732 0.67652 0.0
O227 O 0.76763 0.11295 0.55563 0.0
O228 O 0.81206 0.02015 0.5295 0.0
C229 C 0.69422 0.23291 0.64335 0.0
O230 O 0.69329 0.23086 0.56942 0.0
O231 O 0.85804 0.23494 0.54452 0.0
C232 C 0.89915 0.86565 0.65165 0.0
O233 O 0.90705 0.88328 0.72251 0.0
O234 O 0.87142 0.90207 0.60762 0.0
O235 O 0.88956 0.03673 0.70222 0.0
O236 O 0.87949 0.14115 0.6898 0.0
O237 O 0.74898 0.96819 0.68219 0.0
C238 C 0.76732 0.05902 0.52231 0.0
C239 C 0.90468 0.09356 0.7196 0.0
Zn240 Zn 0.86447 0.1262 0.88925 0.0
Zn241 Zn 0.03599 0.19476 0.84675 0.0
C242 C 0.78731 0.06173 -0.00422 0.0
O243 O 0.77821 0.02351 0.93704 0.0
C244 C 0.08233 0.32143 0.85359 0.0
O245 O 0.06685 0.31607 0.92509 0.0
O246 O 0.79692 0.10433 0.8182 0.0
O247 O 0.88087 0.21931 0.90034 0.0
O248 O 0.97994 0.22134 0.93741 0.0
C249 C 0.74686 0.13526 0.81062 0.0
O250 O 0.70647 0.11426 0.76112 0.0
O251 O 0.8306 0.10284 -0.00755 0.0
C252 C 0.14947 0.12339 0.82806 0.0
O253 O 0.13979 0.13331 0.75662 0.0
O254 O 0.10961 0.14312 0.87796 0.0
O255 O 0.99091 0.14994 0.76342 0.0
O256 O 0.94375 0.08977 0.8442 0.0
O257 O 0.07286 0.27536 0.80717 0.0
C258 C 0.92201 0.23483 0.94836 0.0
C259 C 0.953 0.10537 0.77608 0.0
Zn260 Zn 0.36353 0.86215 0.8566 0.0
Zn261 Zn 0.33211 0.04675 0.84111 0.0
C262 C 0.4268 0.75905 0.93537 0.0
O263 O 0.44221 0.73471 0.86833 0.0
C264 C 0.20883 0.09572 0.85093 0.0
O265 O 0.22265 0.09637 0.92267 0.0
O266 O 0.36319 0.80683 0.76104 0.0
O267 O 0.27675 0.89474 0.89143 0.0
O268 O 0.31284 0.9884 0.92743 0.0
C269 C 0.32381 0.76332 0.74682 0.0
O270 O 0.3279 0.73089 0.68235 0.0
O271 O 0.39669 0.81121 0.94171 0.0
C272 C 0.40416 0.16311 0.83986 0.0
O273 O 0.40881 0.15031 0.76697 0.0
O274 O 0.37511 0.12524 0.88231 0.0
O275 O 0.38633 1.00598 0.7579 0.0
O276 O 0.41772 0.93785 0.83901 0.0
O277 O 0.24922 0.07557 0.80185 0.0
C278 C 0.2681 0.94868 0.92501 0.0
C279 C 0.42005 0.95867 0.77282 0.0
Zn280 Zn 0.65825 0.30987 0.87638 0.0
Zn281 Zn 0.48187 0.34662 0.87696 0.0
C282 C 0.74383 0.39718 0.95743 0.0
O283 O 0.75593 0.4212 0.89148 0.0
C284 C 0.42832 0.22303 0.87175 0.0
O285 O 0.4171 0.23854 0.94314 0.0
O286 O 0.70641 0.23889 0.82495 0.0
O287 O 0.58088 0.26745 0.91321 0.0
O288 O 0.51897 0.33095 0.97895 0.0
C289 C 0.73336 0.19336 0.85597 0.0
O290 O 0.7393 0.19448 0.92943 0.0
O291 O 0.70597 0.35088 0.96275 0.0
C292 C 0.36345 0.40911 0.84905 0.0
O293 O 0.37752 0.39623 0.77768 0.0
O294 O 0.40124 0.3938 0.89963 0.0
O295 O 0.53462 0.39649 0.80103 0.0
O296 O 0.63784 0.37635 0.80138 0.0
O297 O 0.45701 0.26179 0.83009 0.0
C298 C 0.56014 0.28764 0.9768 0.0
C299 C 0.59048 0.4052 0.77615 0.0
Zn300 Zn 0.18292 0.67197 0.8616 0.0
Zn301 Zn 0.1823 0.49545 0.85496 0.0
C302 C 0.10282 0.7439 0.964 0.0
O303 O 0.05999 0.72468 0.91649 0.0
C304 C 0.30318 0.43854 0.87123 0.0
O305 O 0.28685 0.44428 0.94295 0.0
O306 O 0.22683 0.71778 0.78062 0.0
O307 O 0.24956 0.61339 0.89182 0.0
O308 O 0.19784 0.54407 0.95551 0.0
C309 C 0.2752 0.74754 0.80204 0.0
O310 O 0.286 0.75447 0.87434 0.0
O311 O 0.15988 0.72913 0.95114 0.0
C312 C 0.11549 0.37811 0.82964 0.0
O313 O 0.13973 0.38053 0.76112 0.0
O314 O 0.12563 0.42273 0.87769 0.0
O315 O 0.14964 0.54381 0.76465 0.0
O316 O 0.10647 0.62388 0.82676 0.0
O317 O 0.2658 0.45699 0.8217 0.0
C318 C 0.23597 0.58997 0.95422 0.0
C319 C 0.11371 0.59207 0.76545 0.0
loop_
_geom_bond_atom_site_label_1
_geom_bond_atom_site_label_2
_geom_bond_distance
_geom_bond_site_symmetry_2
_ccdc_geom_bond_type
Zn0 O6 1.969 . S
Zn0 O7 1.965 . S
Zn0 O11 2.024 . S
Zn0 O16 1.969 . S
Zn1 O8 1.969 . S
Zn1 O14 1.969 . S
Zn1 O15 1.965 . S
Zn1 O17 2.024 . S
C2 O3 1.229 . S
C2 O11 1.058 . S
O3 C2 1.229 . S
C4 O5 1.229 . S
C4 O17 1.058 . S
O5 C4 1.229 . S
O6 Zn0 1.969 . S
O6 C9 1.267 . S
O7 Zn0 1.965 . S
O7 C18 1.260 . S
O8 Zn1 1.969 . S
O8 C18 1.258 . S
C9 O6 1.267 . S
C9 O10 1.228 . S
O10 C9 1.228 . S
O11 Zn0 2.024 . S
O11 C2 1.058 . S
C12 O13 1.228 . S
C12 O14 1.267 . S
O13 C12 1.228 . S
O14 Zn1 1.969 . S
O14 C12 1.267 . S
O15 Zn1 1.965 . S
O15 C19 1.260 . S
O16 Zn0 1.969 . S
O16 C19 1.258 . S
O17 Zn1 2.024 . S
O17 C4 1.058 . S
C18 O7 1.260 . S
C18 O8 1.258 . S
C19 O15 1.260 . S
C19 O16 1.258 . S
Zn20 O26 1.969 . S
Zn20 O27 1.965 . S
Zn20 O31 2.024 . S
Zn20 O36 1.969 . S
Zn21 O28 1.969 . S
Zn21 O34 1.969 . S
Zn21 O35 1.965 . S
Zn21 O37 2.024 . S
C22 O23 1.229 . S
C22 O31 1.058 . S
O23 C22 1.229 . S
C24 O25 1.229 . S
C24 O37 1.058 . S
O25 C24 1.229 . S
O26 Zn20 1.969 . S
O26 C29 1.267 . S
O27 Zn20 1.965 . S
O27 C38 1.260 . S
O28 Zn21 1.969 . S
O28 C38 1.258 . S
C29 O26 1.267 . S
C29 O30 1.228 . S
O30 C29 1.228 . S
O31 Zn20 2.024 . S
O31 C22 1.058 . S
C32 O33 1.228 . S
C32 O34 1.267 . S
O33 C32 1.228 . S
O34 Zn21 1.969 . S
O34 C32 1.267 . S
O35 Zn21 1.965 . S
O35 C39 1.260 . S
O36 Zn20 1.969 . S
O36 C39 1.258 . S
O37 Zn21 2.024 . S
O37 C24 1.058 . S
C38 O27 1.260 . S
C38 O28 1.258 . S
C39 O35 1.260 . S
C39 O36 1.258 . S
Zn40 O46 1.969 . S
Zn40 O47 1.965 1_455 S
Zn40 O51 2.024 . S
Zn40 O56 1.969 . S
Zn41 O48 1.969 . S
Zn41 O54 1.969 . S
Zn41 O55 1.965 . S
Zn41 O57 2.024 . S
C42 O43 1.229 . S
C42 O51 1.058 . S
O43 C42 1.229 . S
C44 O45 1.229 . S
C44 O57 1.058 . S
O45 C44 1.229 . S
O46 Zn40 1.969 . S
O46 C49 1.267 . S
O47 Zn40 1.965 1_655 S
O47 C58 1.260 . S
O48 Zn41 1.969 . S
O48 C58 1.258 . S
C49 O46 1.267 . S
C49 O50 1.228 . S
O50 C49 1.228 . S
O51 Zn40 2.024 . S
O51 C42 1.058 . S
C52 O53 1.228 . S
C52 O54 1.267 . S
O53 C52 1.228 . S
O54 Zn41 1.969 . S
O54 C52 1.267 . S
O55 Zn41 1.965 . S
O55 C59 1.260 . S
O56 Zn40 1.969 . S
O56 C59 1.258 1_455 S
O57 Zn41 2.024 . S
O57 C44 1.058 . S
C58 O47 1.260 . S
C58 O48 1.258 . S
C59 O55 1.260 . S
C59 O56 1.258 1_655 S
Zn60 O66 1.969 . S
Zn60 O67 1.965 1_545 S
Zn60 O71 2.024 . S
Zn60 O76 1.969 . S
Zn61 O68 1.969 . S
Zn61 O74 1.969 . S
Zn61 O75 1.965 . S
Zn61 O77 2.024 . S
C62 O63 1.229 . S
C62 O71 1.058 . S
O63 C62 1.229 . S
C64 O65 1.229 . S
C64 O77 1.058 . S
O65 C64 1.229 . S
O66 Zn60 1.969 . S
O66 C69 1.267 . S
O67 Zn60 1.965 1_565 S
O67 C78 1.260 . S
O68 Zn61 1.969 . S
O68 C78 1.258 . S
C69 O66 1.267 . S
C69 O70 1.228 . S
O70 C69 1.228 . S
O71 Zn60 2.024 . S
O71 C62 1.058 . S
C72 O73 1.228 . S
C72 O74 1.267 . S
O73 C72 1.228 . S
O74 Zn61 1.969 . S
O74 C72 1.267 . S
O75 Zn61 1.965 . S
O75 C79 1.260 . S
O76 Zn60 1.969 . S
O76 C79 1.258 1_545 S
O77 Zn61 2.024 . S
O77 C64 1.058 . S
C78 O67 1.260 . S
C78 O68 1.258 . S
C79 O75 1.260 . S
C79 O76 1.258 1_565 S
Zn80 O86 1.969 . S
Zn80 O87 1.965 1_655 S
Zn80 O91 2.024 . S
Zn80 O96 1.969 . S
Zn81 O88 1.969 . S
Zn81 O94 1.969 . S
Zn81 O95 1.965 . S
Zn81 O97 2.024 . S
C82 O83 1.229 . S
C82 O91 1.058 . S
O83 C82 1.229 . S
C84 O85 1.229 . S
C84 O97 1.058 . S
O85 C84 1.229 . S
O86 Zn80 1.969 . S
O86 C89 1.267 . S
O87 Zn80 1.965 1_455 S
O87 C98 1.260 . S
O88 Zn81 1.969 . S
O88 C98 1.258 . S
C89 O86 1.267 . S
C89 O90 1.228 . S
O90 C89 1.228 . S
O91 Zn80 2.024 . S
O91 C82 1.058 . S
C92 O93 1.228 . S
C92 O94 1.267 . S
O93 C92 1.228 . S
O94 Zn81 1.969 . S
O94 C92 1.267 . S
O95 Zn81 1.965 . S
O95 C99 1.260 . S
O96 Zn80 1.969 . S
O96 C99 1.258 1_655 S
O97 Zn81 2.024 . S
O97 C84 1.058 . S
C98 O87 1.260 . S
C98 O88 1.258 . S
C99 O95 1.260 . S
C99 O96 1.258 1_455 S
Zn100 O106 1.969 . S
Zn100 O107 1.965 1_565 S
Zn100 O111 2.024 . S
Zn100 O116 1.969 . S
Zn101 O108 1.969 . S
Zn101 O114 1.969 . S
Zn101 O115 1.965 . S
Zn101 O117 2.024 . S
C102 O103 1.229 . S
C102 O111 1.058 . S
O103 C102 1.229 . S
C104 O105 1.229 . S
C104 O117 1.058 . S
O105 C104 1.229 . S
O106 Zn100 1.969 . S
O106 C109 1.267 . S
O107 Zn100 1.965 1_545 S
O107 C118 1.260 . S
O108 Zn101 1.969 . S
O108 C118 1.258 . S
C109 O106 1.267 . S
C109 O110 1.228 . S
O110 C109 1.228 . S
O111 Zn100 2.024 . S
O111 C102 1.058 . S
C112 O113 1.228 . S
C112 O114 1.267 . S
O113 C112 1.228 . S
O114 Zn101 1.969 . S
O114 C112 1.267 . S
O115 Zn101 1.965 . S
O115 C119 1.260 . S
O116 Zn100 1.969 . S
O116 C119 1.258 1_565 S
O117 Zn101 2.024 . S
O117 C104 1.058 . S
C118 O107 1.260 . S
C118 O108 1.258 . S
C119 O115 1.260 . S
C119 O116 1.258 1_545 S
Zn120 O126 1.969 . S
Zn120 O127 1.965 . S
Zn120 O131 2.024 . S
Zn120 O136 1.969 . S
Zn121 O128 1.969 . S
Zn121 O134 1.969 . S
Zn121 O135 1.965 . S
Zn121 O137 2.024 . S
C122 O123 1.229 . S
C122 O131 1.058 . S
O123 C122 1.229 . S
C124 O125 1.229 . S
C124 O137 1.058 . S
O125 C124 1.229 . S
O126 Zn120 1.969 . S
O126 C129 1.267 . S
O127 Zn120 1.965 . S
O127 C138 1.260 . S
O128 Zn121 1.969 . S
O128 C138 1.258 . S
C129 O126 1.267 . S
C129 O130 1.228 . S
O130 C129 1.228 . S
O131 Zn120 2.024 . S
O131 C122 1.058 . S
C132 O133 1.228 . S
C132 O134 1.267 . S
O133 C132 1.228 . S
O134 Zn121 1.969 . S
O134 C132 1.267 . S
O135 Zn121 1.965 . S
O135 C139 1.260 . S
O136 Zn120 1.969 . S
O136 C139 1.258 . S
O137 Zn121 2.024 . S
O137 C124 1.058 . S
C138 O127 1.260 . S
C138 O128 1.258 . S
C139 O135 1.260 . S
C139 O136 1.258 . S
Zn140 O146 1.969 . S
Zn140 O147 1.965 . S
Zn140 O151 2.024 . S
Zn140 O156 1.969 . S
Zn141 O148 1.969 . S
Zn141 O154 1.969 . S
Zn141 O155 1.965 . S
Zn141 O157 2.024 . S
C142 O143 1.229 . S
C142 O151 1.058 . S
O143 C142 1.229 . S
C144 O145 1.229 . S
C144 O157 1.058 . S
O145 C144 1.229 . S
O146 Zn140 1.969 . S
O146 C149 1.267 . S
O147 Zn140 1.965 . S
O147 C158 1.260 . S
O148 Zn141 1.969 . S
O148 C158 1.258 . S
C149 O146 1.267 . S
C149 O150 1.228 . S
O150 C149 1.228 . S
O151 Zn140 2.024 . S
O151 C142 1.058 . S
C152 O153 1.228 . S
C152 O154 1.267 . S
O153 C152 1.228 . S
O154 Zn141 1.969 . S
O154 C152 1.267 . S
O155 Zn141 1.965 . S
O155 C159 1.260 . S
O156 Zn140 1.969 . S
O156 C159 1.258 . S
O157 Zn141 2.024 . S
O157 C144 1.058 . S
C158 O147 1.260 . S
C158 O148 1.258 . S
C159 O155 1.260 . S
C159 O156 1.258 . S
Zn160 O166 1.969 . S
Zn160 O167 1.965 . S
Zn160 O171 2.024 . S
Zn160 O176 1.969 . S
Zn161 O168 1.969 . S
Zn161 O174 1.969 . S
Zn161 O175 1.965 . S
Zn161 O177 2.024 . S
C162 O163 1.229 . S
C162 O171 1.058 . S
O163 C162 1.229 . S
C164 O165 1.229 . S
C164 O177 1.058 . S
O165 C164 1.229 . S
O166 Zn160 1.969 . S
O166 C169 1.267 . S
O167 Zn160 1.965 . S
O167 C178 1.260 . S
O168 Zn161 1.969 . S
O168 C178 1.258 . S
C169 O166 1.267 . S
C169 O170 1.228 . S
O170 C169 1.228 . S
O171 Zn160 2.024 . S
O171 C162 1.058 . S
C172 O173 1.228 . S
C172 O174 1.267 . S
O173 C172 1.228 . S
O174 Zn161 1.969 . S
O174 C172 1.267 . S
O175 Zn161 1.965 . S
O175 C179 1.260 . S
O176 Zn160 1.969 . S
O176 C179 1.258 . S
O177 Zn161 2.024 . S
O177 C164 1.058 . S
C178 O167 1.260 . S
C178 O168 1.258 . S
C179 O175 1.260 . S
C179 O176 1.258 . S
Zn180 O186 1.969 . S
Zn180 O187 1.965 . S
Zn180 O191 2.024 . S
Zn180 O196 1.969 . S
Zn181 O188 1.969 . S
Zn181 O194 1.969 . S
Zn181 O195 1.965 . S
Zn181 O197 2.024 . S
C182 O183 1.229 . S
C182 O191 1.058 . S
O183 C182 1.229 . S
C184 O185 1.229 . S
C184 O197 1.058 . S
O185 C184 1.229 . S
O186 Zn180 1.969 . S
O186 C189 1.267 . S
O187 Zn180 1.965 . S
O187 C198 1.260 . S
O188 Zn181 1.969 . S
O188 C198 1.258 . S
C189 O186 1.267 . S
C189 O190 1.228 . S
O190 C189 1.228 . S
O191 Zn180 2.024 . S
O191 C182 1.058 . S
C192 O193 1.228 . S
C192 O194 1.267 . S
O193 C192 1.228 . S
O194 Zn181 1.969 . S
O194 C192 1.267 . S
O195 Zn181 1.965 . S
O195 C199 1.260 . S
O196 Zn180 1.969 . S
O196 C199 1.258 . S
O197 Zn181 2.024 . S
O197 C184 1.058 . S
C198 O187 1.260 . S
C198 O188 1.258 . S
C199 O195 1.260 . S
C199 O196 1.258 . S
Zn200 O206 1.969 . S
Zn200 O207 1.965 . S
Zn200 O211 2.024 . S
Zn200 O216 1.969 . S
Zn201 O208 1.969 . S
Zn201 O214 1.969 . S
Zn201 O215 1.965 1_655 S
Zn201 O217 2.024 . S
C202 O203 1.229 . S
C202 O211 1.058 . S
O203 C202 1.229 . S
C204 O205 1.229 . S
C204 O217 1.058 . S
O205 C204 1.229 . S
O206 Zn200 1.969 . S
O206 C209 1.267 . S
O207 Zn200 1.965 . S
O207 C218 1.260 . S
O208 Zn201 1.969 . S
O208 C218 1.258 1_655 S
C209 O206 1.267 . S
C209 O210 1.228 . S
O210 C209 1.228 . S
O211 Zn200 2.024 . S
O211 C202 1.058 . S
C212 O213 1.228 . S
C212 O214 1.267 . S
O213 C212 1.228 . S
O214 Zn201 1.969 . S
O214 C212 1.267 . S
O215 Zn201 1.965 1_455 S
O215 C219 1.260 . S
O216 Zn200 1.969 . S
O216 C219 1.258 . S
O217 Zn201 2.024 . S
O217 C204 1.058 . S
C218 O207 1.260 . S
C218 O208 1.258 1_455 S
C219 O215 1.260 . S
C219 O216 1.258 . S
Zn220 O226 1.969 . S
Zn220 O227 1.965 . S
Zn220 O231 2.024 . S
Zn220 O236 1.969 . S
Zn221 O228 1.969 . S
Zn221 O234 1.969 . S
Zn221 O235 1.965 1_565 S
Zn221 O237 2.024 . S
C222 O223 1.229 . S
C222 O231 1.058 . S
O223 C222 1.229 . S
C224 O225 1.229 . S
C224 O237 1.058 . S
O225 C224 1.229 . S
O226 Zn220 1.969 . S
O226 C229 1.267 . S
O227 Zn220 1.965 . S
O227 C238 1.260 . S
O228 Zn221 1.969 . S
O228 C238 1.258 1_565 S
C229 O226 1.267 . S
C229 O230 1.228 . S
O230 C229 1.228 . S
O231 Zn220 2.024 . S
O231 C222 1.058 . S
C232 O233 1.228 . S
C232 O234 1.267 . S
O233 C232 1.228 . S
O234 Zn221 1.969 . S
O234 C232 1.267 . S
O235 Zn221 1.965 1_545 S
O235 C239 1.260 . S
O236 Zn220 1.969 . S
O236 C239 1.258 . S
O237 Zn221 2.024 . S
O237 C224 1.058 . S
C238 O227 1.260 . S
C238 O228 1.258 1_545 S
C239 O235 1.260 . S
C239 O236 1.258 . S
Zn240 O246 1.969 . S
Zn240 O247 1.965 . S
Zn240 O251 2.024 . S
Zn240 O256 1.969 . S
Zn241 O248 1.969 . S
Zn241 O254 1.969 . S
Zn241 O255 1.965 1_455 S
Zn241 O257 2.024 . S
C242 O243 1.229 . S
C242 O251 1.058 . S
O243 C242 1.229 . S
C244 O245 1.229 . S
C244 O257 1.058 . S
O245 C244 1.229 . S
O246 Zn240 1.969 . S
O246 C249 1.267 . S
O247 Zn240 1.965 . S
O247 C258 1.260 . S
O248 Zn241 1.969 . S
O248 C258 1.258 1_455 S
C249 O246 1.267 . S
C249 O250 1.228 . S
O250 C249 1.228 . S
O251 Zn240 2.024 . S
O251 C242 1.058 . S
C252 O253 1.228 . S
C252 O254 1.267 . S
O253 C252 1.228 . S
O254 Zn241 1.969 . S
O254 C252 1.267 . S
O255 Zn241 1.965 1_655 S
O255 C259 1.260 . S
O256 Zn240 1.969 . S
O256 C259 1.258 . S
O257 Zn241 2.024 . S
O257 C244 1.058 . S
C258 O247 1.260 . S
C258 O248 1.258 1_655 S
C259 O255 1.260 . S
C259 O256 1.258 . S
Zn260 O266 1.969 . S
Zn260 O267 1.965 . S
Zn260 O271 2.024 . S
Zn260 O276 1.969 . S
Zn261 O268 1.969 . S
Zn261 O274 1.969 . S
Zn261 O275 1.965 1_545 S
Zn261 O277 2.024 . S
C262 O263 1.229 . S
C262 O271 1.058 . S
O263 C262 1.229 . S
C264 O265 1.229 . S
C264 O277 1.058 . S
O265 C264 1.229 . S
O266 Zn260 1.969 . S
O266 C269 1.267 . S
O267 Zn260 1.965 . S
O267 C278 1.260 . S
O268 Zn261 1.969 . S
O268 C278 1.258 1_545 S
C269 O266 1.267 . S
C269 O270 1.228 . S
O270 C269 1.228 . S
O271 Zn260 2.024 . S
O271 C262 1.058 . S
C272 O273 1.228 . S
C272 O274 1.267 . S
O273 C272 1.228 . S
O274 Zn261 1.969 . S
O274 C272 1.267 . S
O275 Zn261 1.965 1_565 S
O275 C279 1.260 . S
O276 Zn260 1.969 . S
O276 C279 1.258 . S
O277 Zn261 2.024 . S
O277 C264 1.058 . S
C278 O267 1.260 . S
C278 O268 1.258 1_565 S
C279 O275 1.260 . S
C279 O276 1.258 . S
Zn280 O286 1.969 . S
Zn280 O287 1.965 . S
Zn280 O291 2.024 . S
Zn280 O296 1.969 . S
Zn281 O288 1.969 . S
Zn281 O294 1.969 . S
Zn281 O295 1.965 . S
Zn281 O297 2.024 . S
C282 O283 1.229 . S
C282 O291 1.058 . S
O283 C282 1.229 . S
C284 O285 1.229 . S
C284 O297 1.058 . S
O285 C284 1.229 . S
O286 Zn280 1.969 . S
O286 C289 1.267 . S
O287 Zn280 1.965 . S
O287 C298 1.260 . S
O288 Zn281 1.969 . S
O288 C298 1.258 . S
C289 O286 1.267 . S
C289 O290 1.228 . S
O290 C289 1.228 . S
O291 Zn280 2.024 . S
O291 C282 1.058 . S
C292 O293 1.228 . S
C292 O294 1.267 . S
O293 C292 1.228 . S
O294 Zn281 1.969 . S
O294 C292 1.267 . S
O295 Zn281 1.965 . S
O295 C299 1.260 . S
O296 Zn280 1.969 . S
O296 C299 1.258 . S
O297 Zn281 2.024 . S
O297 C284 1.058 . S
C298 O287 1.260 . S
C298 O288 1.258 . S
C299 O295 1.260 . S
C299 O296 1.258 . S
Zn300 O306 1.969 . S
Zn300 O307 1.965 . S
Zn300 O311 2.024 . S
Zn300 O316 1.969 . S
Zn301 O308 1.969 . S
Zn301 O314 1.969 . S
Zn301 O315 1.965 . S
Zn301 O317 2.024 . S
C302 O303 1.229 . S
C302 O311 1.058 . S
O303 C302 1.229 . S
C304 O305 1.229 . S
C304 O317 1.058 . S
O305 C304 1.229 . S
O306 Zn300 1.969 . S
O306 C309 1.267 . S
O307 Zn300 1.965 . S
O307 C318 1.260 . S
O308 Zn301 1.969 . S
O308 C318 1.258 . S
C309 O306 1.267 . S
C309 O310 1.228 . S
O310 C309 1.228 . S
O311 Zn300 2.024 . S
O311 C302 1.058 . S
C312 O313 1.228 . S
C312 O314 1.267 . S
O313 C312 1.228 . S
O314 Zn301 1.969 . S
O314 C312 1.267 . S
O315 Zn301 1.965 . S
O315 C319 1.260 . S
O316 Zn300 1.969 . S
O316 C319 1.258 . S
O317 Zn301 2.024 . S
O317 C304 1.058 . S
C318 O307 1.260 . S
C318 O308 1.258 . S
C319 O315 1.260 . S
C319 O316 1.258 . S
C18 C118 2.373 . S
C138 C38 2.373 . S
C58 C158 2.373 . S
C78 C98 2.373 . S
C279 C179 2.373 . S
C299 C199 2.373 . S
C219 C319 2.373 . S
C239 C259 2.373 . S
C9 C62 2.372 . S
C29 C2 2.372 . S
C49 C22 2.372 . S
C69 C42 2.372 . S
C89 C102 2.372 . S
C122 C109 2.372 . S
C129 C142 2.372 . S
C82 C149 2.372 . S
C224 C172 2.372 . S
C192 C164 2.372 . S
C212 C184 2.372 . S
C232 C204 2.372 . S
C252 C264 2.372 . S
C272 C284 2.372 . S
C292 C304 2.372 . S
C312 C244 2.372 . S
C12 C52 0.384 . S
C32 C72 0.384 . S
C132 C92 0.384 . S
C152 C112 0.384 . S
C209 C169 0.384 . S
C229 C189 0.384 . S
C249 C289 0.384 . S
C269 C309 0.384 . S
C4 C238 1.493 . S
C178 C24 1.493 . S
C44 C198 1.493 . S
C218 C64 1.493 . S
C278 C84 1.493 1_556 S
C104 C298 1.493 1_554 S
C318 C124 1.493 1_556 S
C144 C258 1.493 1_554 S
C162 C79 1.492 . S
C182 C19 1.492 . S
C39 C202 1.492 . S
C222 C59 1.492 . S
C242 C119 1.492 1_556 S
C262 C139 1.492 1_556 S
C159 C282 1.492 1_554 S
C99 C302 1.492 1_554 S
