# Generated by pormake.
# Topology ukk, (4)-cn, num edge types: 1
# Building blocks:
#     Node 0, Type 0, BuildingBlock: QUQFOY_clean_sbu_3, # of connection points: 4
#     Node 1, Type 0, BuildingBlock: QUQFOY_clean_sbu_3, # of connection points: 4
#     Node 2, Type 0, BuildingBlock: QUQFOY_clean_sbu_3, # of connection points: 4
#     Node 3, Type 0, BuildingBlock: QUQFOY_clean_sbu_3, # of connection points: 4
#     Node 4, Type 0, BuildingBlock: QUQFOY_clean_sbu_3, # of connection points: 4
#     Node 5, Type 0, BuildingBlock: QUQFOY_clean_sbu_3, # of connection points: 4
#     Node 6, Type 0, BuildingBlock: QUQFOY_clean_sbu_3, # of connection points: 4
#     Node 7, Type 0, BuildingBlock: QUQFOY_clean_sbu_3, # of connection points: 4
#     Node 8, Type 0, BuildingBlock: QUQFOY_clean_sbu_3, # of connection points: 4
#     Node 9, Type 0, BuildingBlock: QUQFOY_clean_sbu_3, # of connection points: 4
#     Node 10, Type 0, BuildingBlock: QUQFOY_clean_sbu_3, # of connection points: 4
#     Node 11, Type 0, BuildingBlock: QUQFOY_clean_sbu_3, # of connection points: 4
#     Node 12, Type 0, BuildingBlock: QUQFOY_clean_sbu_3, # of connection points: 4
#     Node 13, Type 0, BuildingBlock: QUQFOY_clean_sbu_3, # of connection points: 4
#     Node 14, Type 0, BuildingBlock: QUQFOY_clean_sbu_3, # of connection points: 4
#     Node 15, Type 0, BuildingBlock: QUQFOY_clean_sbu_3, # of connection points: 4
#     Edge 16, Type (0, 0), BuildingBlock: ZUJKAS_clean_linker_0, # of connection points: 2
#     Edge 17, Type (0, 0), BuildingBlock: ZUJKAS_clean_linker_0, # of connection points: 2
#     Edge 18, Type (0, 0), BuildingBlock: ZUJKAS_clean_linker_0, # of connection points: 2
#     Edge 19, Type (0, 0), BuildingBlock: ZUJKAS_clean_linker_0, # of connection points: 2
#     Edge 20, Type (0, 0), BuildingBlock: ZUJKAS_clean_linker_0, # of connection points: 2
#     Edge 21, Type (0, 0), BuildingBlock: ZUJKAS_clean_linker_0, # of connection points: 2
#     Edge 22, Type (0, 0), BuildingBlock: ZUJKAS_clean_linker_0, # of connection points: 2
#     Edge 23, Type (0, 0), BuildingBlock: ZUJKAS_clean_linker_0, # of connection points: 2
#     Edge 24, Type (0, 0), BuildingBlock: ZUJKAS_clean_linker_0, # of connection points: 2
#     Edge 25, Type (0, 0), BuildingBlock: ZUJKAS_clean_linker_0, # of connection points: 2
#     Edge 26, Type (0, 0), BuildingBlock: ZUJKAS_clean_linker_0, # of connection points: 2
#     Edge 27, Type (0, 0), BuildingBlock: ZUJKAS_clean_linker_0, # of connection points: 2
#     Edge 28, Type (0, 0), BuildingBlock: ZUJKAS_clean_linker_0, # of connection points: 2
#     Edge 29, Type (0, 0), BuildingBlock: ZUJKAS_clean_linker_0, # of connection points: 2
#     Edge 30, Type (0, 0), BuildingBlock: ZUJKAS_clean_linker_0, # of connection points: 2
#     Edge 31, Type (0, 0), BuildingBlock: ZUJKAS_clean_linker_0, # of connection points: 2
#     Edge 32, Type (0, 0), BuildingBlock: ZUJKAS_clean_linker_0, # of connection points: 2
#     Edge 33, Type (0, 0), BuildingBlock: ZUJKAS_clean_linker_0, # of connection points: 2
#     Edge 34, Type (0, 0), BuildingBlock: ZUJKAS_clean_linker_0, # of connection points: 2
#     Edge 35, Type (0, 0), BuildingBlock: ZUJKAS_clean_linker_0, # of connection points: 2
#     Edge 36, Type (0, 0), BuildingBlock: ZUJKAS_clean_linker_0, # of connection points: 2
#     Edge 37, Type (0, 0), BuildingBlock: ZUJKAS_clean_linker_0, # of connection points: 2
#     Edge 38, Type (0, 0), BuildingBlock: ZUJKAS_clean_linker_0, # of connection points: 2
#     Edge 39, Type (0, 0), BuildingBlock: ZUJKAS_clean_linker_0, # of connection points: 2
#     Edge 40, Type (0, 0), BuildingBlock: ZUJKAS_clean_linker_0, # of connection points: 2
#     Edge 41, Type (0, 0), BuildingBlock: ZUJKAS_clean_linker_0, # of connection points: 2
#     Edge 42, Type (0, 0), BuildingBlock: ZUJKAS_clean_linker_0, # of connection points: 2
#     Edge 43, Type (0, 0), BuildingBlock: ZUJKAS_clean_linker_0, # of connection points: 2
#     Edge 44, Type (0, 0), BuildingBlock: ZUJKAS_clean_linker_0, # of connection points: 2
#     Edge 45, Type (0, 0), BuildingBlock: ZUJKAS_clean_linker_0, # of connection points: 2
#     Edge 46, Type (0, 0), BuildingBlock: ZUJKAS_clean_linker_0, # of connection points: 2
#     Edge 47, Type (0, 0), BuildingBlock: ZUJKAS_clean_linker_0, # of connection points: 2
# Relax obj value: 0.125
# Max RMSD: 0.295
# Mean RMSD: 0.295
data_MOF--net-ukk--node1-QUQFOY_clean_sbu_3--edge1-ZUJKAS_clean_linker_0
_symmetry_space_group_name_H-M    P1
_symmetry_Int_Tables_number       1
_symmetry_cell_setting            triclinic
loop_
_symmetry_equiv_pos_as_xyz
'x, y, z'
_cell_length_a     72.063427
_cell_length_b     71.908912
_cell_length_c     22.290017
_cell_angle_alpha  90.055026
_cell_angle_beta   90.017882
_cell_angle_gamma 89.903728
loop_
_atom_site_label
_atom_site_type_symbol
_atom_site_fract_x
_atom_site_fract_y
_atom_site_fract_z
_atom_type_partial_charge
C0 C 0.33971 0.07584 0.28975 0.0
O1 O 0.34257 0.09057 0.31965 0.0
Cd2 Cd 0.34582 0.11987 0.2674 0.0
O3 O 0.33742 0.07669 0.23326 0.0
Cd4 Cd 0.33563 0.09972 0.15183 0.0
C5 C 0.38081 0.10902 0.16784 0.0
O6 O 0.32163 0.12795 0.19728 0.0
O7 O 0.33745 0.13093 0.11519 0.0
O8 O 0.30581 0.08698 0.12487 0.0
C9 C 0.32672 0.1382 0.15371 0.0
O10 O 0.37505 0.11791 0.21368 0.0
C11 C 0.30969 0.08325 0.07071 0.0
O12 O 0.36961 0.09927 0.13658 0.0
O13 O 0.32623 0.08655 0.05378 0.0
C14 C 0.07683 0.62635 0.71922 0.0
O15 O 0.09146 0.62364 0.68881 0.0
Cd16 Cd 0.12053 0.61987 0.74202 0.0
O17 O 0.07782 0.62825 0.77581 0.0
Cd18 Cd 0.10031 0.62982 0.85833 0.0
C19 C 0.109 0.58458 0.8401 0.0
O20 O 0.12821 0.64412 0.8128 0.0
O21 O 0.13144 0.62887 0.89595 0.0
O22 O 0.08537 0.65887 0.88188 0.0
C23 C 0.13854 0.63939 0.85659 0.0
O24 O 0.11792 0.59039 0.7945 0.0
C25 C 0.08224 0.65547 0.93673 0.0
O26 O 0.09954 0.59584 0.87213 0.0
O27 O 0.08716 0.63955 0.95605 0.0
C28 C 0.62735 0.89632 0.27149 0.0
O29 O 0.62504 0.88212 0.30427 0.0
Cd30 Cd 0.62165 0.85211 0.25663 0.0
O31 O 0.62914 0.89447 0.21505 0.0
Cd32 Cd 0.63083 0.87003 0.13779 0.0
C33 C 0.58593 0.86153 0.15797 0.0
O34 O 0.64597 0.8431 0.18807 0.0
O35 O 0.62914 0.83801 0.10932 0.0
O36 O 0.65856 0.8865 0.10664 0.0
C37 C 0.64058 0.83183 0.14757 0.0
O38 O 0.59199 0.85314 0.20436 0.0
C39 C 0.6554 0.88551 0.05079 0.0
O40 O 0.59693 0.87088 0.12486 0.0
O41 O 0.64028 0.87792 0.03467 0.0
C42 C 0.89249 0.34214 0.71327 0.0
O43 O 0.87765 0.34542 0.68454 0.0
Cd44 Cd 0.84821 0.3469 0.7375 0.0
O45 O 0.89188 0.33901 0.76933 0.0
Cd46 Cd 0.86898 0.33678 0.85052 0.0
C47 C 0.85818 0.38168 0.83718 0.0
O48 O 0.84111 0.32189 0.80568 0.0
O49 O 0.83782 0.33775 0.88764 0.0
O50 O 0.88403 0.30806 0.87932 0.0
C51 C 0.83082 0.32672 0.84949 0.0
O52 O 0.84834 0.37587 0.79358 0.0
C53 C 0.88653 0.31239 0.9339 0.0
O54 O 0.86932 0.37078 0.86443 0.0
O55 O 0.88142 0.32859 0.94992 0.0
C56 C 0.34215 0.39486 0.96116 0.0
O57 O 0.34523 0.38025 0.93085 0.0
Cd58 Cd 0.3484 0.35079 0.98226 0.0
O59 O 0.33959 0.39378 0.01748 0.0
Cd60 Cd 0.33757 0.37037 0.09769 0.0
C61 C 0.3829 0.36153 0.08349 0.0
O62 O 0.32384 0.34236 0.05041 0.0
O63 O 0.33957 0.33892 0.13253 0.0
O64 O 0.30756 0.38299 0.12375 0.0
C65 C 0.32883 0.33191 0.09361 0.0
O66 O 0.37742 0.35264 0.03735 0.0
C67 C 0.31111 0.38624 0.17847 0.0
O68 O 0.37148 0.37119 0.11432 0.0
O69 O 0.32757 0.38279 0.19613 0.0
C70 C 0.39584 0.62669 0.03618 0.0
O71 O 0.38136 0.6243 0.06754 0.0
Cd72 Cd 0.35191 0.62067 0.01676 0.0
O73 O 0.39449 0.62876 0.97971 0.0
Cd74 Cd 0.37101 0.63124 0.89994 0.0
C75 C 0.36293 0.58587 0.91572 0.0
O76 O 0.3431 0.64495 0.94784 0.0
O77 O 0.33959 0.62931 0.86547 0.0
O78 O 0.38442 0.66105 0.87671 0.0
C79 C 0.33257 0.63988 0.90495 0.0
O80 O 0.35438 0.59147 0.9624 0.0
C81 C 0.38718 0.65805 0.82137 0.0
O82 O 0.37203 0.59731 0.88337 0.0
O83 O 0.38298 0.64196 0.80174 0.0
C84 C 0.62678 0.57505 0.96475 0.0
O85 O 0.62445 0.58972 0.93412 0.0
Cd86 Cd 0.62176 0.61919 0.98616 0.0
O87 O 0.62909 0.57614 0.02118 0.0
Cd88 Cd 0.63207 0.59922 0.10196 0.0
C89 C 0.58701 0.60886 0.08737 0.0
O90 O 0.64645 0.62691 0.05482 0.0
O91 O 0.63122 0.63059 0.13781 0.0
O92 O 0.66126 0.58441 0.12438 0.0
C93 C 0.64183 0.63745 0.09831 0.0
O94 O 0.59271 0.61762 0.04129 0.0
C95 C 0.65833 0.58189 0.17986 0.0
O96 O 0.59821 0.59904 0.11846 0.0
O97 O 0.64255 0.58687 0.1999 0.0
C98 C 0.57425 0.34433 0.03548 0.0
O99 O 0.58872 0.34683 0.06684 0.0
Cd100 Cd 0.61831 0.34955 0.01604 0.0
O101 O 0.57566 0.34186 0.97919 0.0
Cd102 Cd 0.59936 0.33886 0.90043 0.0
C103 C 0.60843 0.3841 0.91378 0.0
O104 O 0.62704 0.32471 0.94876 0.0
O105 O 0.63083 0.34022 0.86636 0.0
O106 O 0.58558 0.30922 0.87664 0.0
C107 C 0.63764 0.32947 0.90569 0.0
O108 O 0.61702 0.37859 0.96048 0.0
C109 C 0.58296 0.31232 0.82129 0.0
O110 O 0.59885 0.37271 0.88266 0.0
O111 O 0.58741 0.32836 0.80202 0.0
C112 C 0.84697 0.57612 0.7698 0.0
O113 O 0.84398 0.59011 0.80304 0.0
Cd114 Cd 0.84843 0.61953 0.75216 0.0
O115 O 0.84752 0.57797 0.71316 0.0
Cd116 Cd 0.84089 0.6013 0.63567 0.0
C117 C 0.88524 0.61026 0.65588 0.0
O118 O 0.82526 0.62876 0.68044 0.0
O119 O 0.8425 0.63274 0.60169 0.0
O120 O 0.81196 0.58601 0.61318 0.0
C121 C 0.83086 0.63942 0.63857 0.0
O122 O 0.87885 0.61789 0.70325 0.0
C123 C 0.81511 0.58343 0.55779 0.0
O124 O 0.87445 0.60163 0.62011 0.0
O125 O 0.83089 0.58857 0.53816 0.0
C126 C 0.57225 0.13073 0.20212 0.0
O127 O 0.5865 0.12862 0.16946 0.0
Cd128 Cd 0.61626 0.12444 0.2181 0.0
O129 O 0.57401 0.13225 0.25865 0.0
Cd130 Cd 0.59823 0.13377 0.33618 0.0
C131 C 0.60604 0.08856 0.31508 0.0
O132 O 0.62619 0.14772 0.28937 0.0
O133 O 0.62968 0.13053 0.36847 0.0
O134 O 0.58624 0.1637 0.36607 0.0
C135 C 0.63673 0.14175 0.33108 0.0
O136 O 0.61428 0.09454 0.26838 0.0
C137 C 0.58309 0.15958 0.42042 0.0
O138 O 0.59724 0.09975 0.34928 0.0
O139 O 0.58642 0.14288 0.43615 0.0
C140 C 0.12577 0.39356 0.78565 0.0
O141 O 0.12268 0.37891 0.8156 0.0
Cd142 Cd 0.11723 0.3503 0.76201 0.0
O143 O 0.12754 0.39271 0.72892 0.0
Cd144 Cd 0.12844 0.37015 0.64557 0.0
C145 C 0.08272 0.36479 0.66443 0.0
O146 O 0.14122 0.34168 0.69173 0.0
O147 O 0.1257 0.33882 0.60897 0.0
O148 O 0.15848 0.38306 0.62273 0.0
C149 C 0.13604 0.33142 0.6483 0.0
O150 O 0.08793 0.35574 0.71058 0.0
C151 C 0.15553 0.38618 0.56759 0.0
O152 O 0.09458 0.37286 0.63088 0.0
O153 O 0.13937 0.38243 0.54789 0.0
C154 C 0.39444 0.84509 0.21612 0.0
O155 O 0.38 0.84823 0.18513 0.0
Cd156 Cd 0.35007 0.8512 0.23355 0.0
O157 O 0.39312 0.84231 0.2723 0.0
Cd158 Cd 0.36988 0.83971 0.35263 0.0
C159 C 0.36018 0.88523 0.33808 0.0
O160 O 0.34266 0.82623 0.30093 0.0
O161 O 0.33856 0.83874 0.38843 0.0
O162 O 0.38354 0.81001 0.37745 0.0
C163 C 0.33189 0.82955 0.34498 0.0
O164 O 0.35191 0.87985 0.29064 0.0
C165 C 0.38662 0.81353 0.43231 0.0
O166 O 0.36942 0.87373 0.36992 0.0
O167 O 0.38263 0.82984 0.45048 0.0
C168 C 0.84742 0.89746 0.47053 0.0
O169 O 0.85025 0.8832 0.43831 0.0
Cd170 Cd 0.85371 0.85343 0.48684 0.0
O171 O 0.84513 0.89574 0.52682 0.0
Cd172 Cd 0.84306 0.87149 0.60448 0.0
C173 C 0.88828 0.86351 0.58913 0.0
O174 O 0.82854 0.84468 0.55224 0.0
O175 O 0.84452 0.83938 0.63264 0.0
O176 O 0.81491 0.88781 0.63355 0.0
C177 C 0.83341 0.83335 0.59314 0.0
O178 O 0.88285 0.85499 0.54216 0.0
C179 C 0.81764 0.88674 0.68962 0.0
O180 O 0.87677 0.87269 0.62105 0.0
O181 O 0.83272 0.87926 0.70677 0.0
C182 C 0.89268 0.13039 0.54933 0.0
O183 O 0.87799 0.12778 0.57943 0.0
Cd184 Cd 0.84887 0.12445 0.52607 0.0
O185 O 0.89175 0.13259 0.49285 0.0
Cd186 Cd 0.86886 0.13477 0.41155 0.0
C187 C 0.86035 0.08952 0.42681 0.0
O188 O 0.84048 0.14873 0.45628 0.0
O189 O 0.83784 0.13276 0.37425 0.0
O190 O 0.88308 0.16407 0.38595 0.0
C191 C 0.8304 0.1435 0.41244 0.0
O192 O 0.85118 0.09511 0.47226 0.0
C193 C 0.88589 0.16038 0.33106 0.0
O194 O 0.87004 0.10092 0.39619 0.0
O195 O 0.88128 0.14423 0.3131 0.0
C196 C 0.12035 0.07307 0.46989 0.0
O197 O 0.11927 0.08774 0.43853 0.0
Cd198 Cd 0.11702 0.1174 0.4894 0.0
O199 O 0.12258 0.07424 0.52636 0.0
Cd200 Cd 0.12772 0.09752 0.60557 0.0
C201 C 0.08281 0.1078 0.59414 0.0
O202 O 0.14178 0.12515 0.55709 0.0
O203 O 0.12671 0.12894 0.64038 0.0
O204 O 0.15731 0.08312 0.62624 0.0
C205 C 0.13707 0.13581 0.60017 0.0
O206 O 0.08834 0.11614 0.54701 0.0
C207 C 0.15468 0.08053 0.68187 0.0
O208 O 0.09406 0.09803 0.62524 0.0
O209 O 0.13888 0.08519 0.70263 0.0
C210 C 0.07754 0.8447 0.53331 0.0
O211 O 0.0926 0.84949 0.55843 0.0
Cd212 Cd 0.12111 0.85151 0.50055 0.0
O213 O 0.07735 0.84045 0.47796 0.0
Cd214 Cd 0.09808 0.83759 0.39135 0.0
C215 C 0.1077 0.88339 0.39444 0.0
O216 O 0.12699 0.82522 0.43638 0.0
O217 O 0.12805 0.83585 0.34545 0.0
O218 O 0.08407 0.80762 0.37275 0.0
C219 C 0.13619 0.82758 0.38821 0.0
O220 O 0.11797 0.87902 0.43873 0.0
C221 C 0.07929 0.81085 0.31898 0.0
O222 O 0.09716 0.87133 0.36985 0.0
O223 O 0.08254 0.82708 0.29888 0.0
H224 H 0.34047 0.91207 0.28058 0.0
H225 H 0.33789 0.94479 0.30536 0.0
H226 H 0.37345 0.93685 0.45884 0.0
H227 H 0.37634 0.9036 0.43387 0.0
H228 H 0.32459 0.96138 0.41394 0.0
H229 H 0.39803 0.97987 0.36204 0.0
H230 H 0.38797 0.95831 0.33638 0.0
H231 H 0.3935 0.96132 0.41421 0.0
C232 C 0.34781 0.91713 0.31971 0.0
C233 C 0.35872 0.90514 0.35507 0.0
C234 C 0.34623 0.9359 0.33393 0.0
C235 C 0.35551 0.94327 0.38374 0.0
C236 C 0.36631 0.93144 0.41984 0.0
H237 H 0.3557 0.06622 0.39726 0.0
H238 H 0.3592 0.0347 0.43859 0.0
C239 C 0.3679 0.91247 0.40559 0.0
C240 C 0.35386 0.96348 0.39551 0.0
H241 H 0.37668 0.00433 0.37089 0.0
C242 C 0.33608 0.97081 0.40616 0.0
C243 C 0.36888 0.97574 0.38567 0.0
C244 C 0.38821 0.96855 0.3737 0.0
C245 C 0.33267 -0.01002 0.40261 0.0
C246 C 0.34737 0.00207 0.38758 0.0
C247 C 0.36544 -0.00504 0.38223 0.0
C248 C 0.34378 0.02135 0.36736 0.0
C249 C 0.31316 -0.00294 0.41173 0.0
C250 C 0.33393 0.0242 0.31388 0.0
C251 C 0.3321 0.04202 0.28997 0.0
C252 C 0.34 0.0574 0.31921 0.0
C253 C 0.34934 0.05464 0.37396 0.0
C254 C 0.3514 0.03668 0.39754 0.0
H255 H 0.30497 -0.01253 0.44037 0.0
H256 H 0.31319 0.01109 0.4326 0.0
H257 H 0.30613 -0.00193 0.36755 0.0
H258 H 0.3282 0.01252 0.28941 0.0
H259 H 0.32481 0.04367 0.24778 0.0
H260 H 0.0666 0.6113 0.61073 0.0
H261 H 0.03495 0.60894 0.56998 0.0
H262 H 0.01395 0.63934 0.7224 0.0
H263 H 0.0452 0.64163 0.76333 0.0
H264 H 0.00441 0.59173 0.63621 0.0
H265 H -0.01079 0.66474 0.57505 0.0
H266 H 0.01259 0.65582 0.5819 0.0
H267 H -0.00025 0.66252 0.6477 0.0
C268 C 0.05525 0.61776 0.63486 0.0
C269 C 0.05836 0.62662 0.69027 0.0
C270 C 0.03722 0.61636 0.61164 0.0
C271 C 0.02219 0.62416 0.64288 0.0
C272 C 0.0254 0.6335 0.69711 0.0
H273 H 0.91117 0.62879 0.72141 0.0
H274 H 0.94432 0.6311 0.7029 0.0
C275 C 0.04327 0.63469 0.72062 0.0
C276 C 0.00283 0.62132 0.62279 0.0
H277 H 0.96276 0.64546 0.59865 0.0
C278 C -0.00468 0.60335 0.62616 0.0
C279 C -0.00891 0.63653 0.60964 0.0
C280 C -0.00141 0.65598 0.60275 0.0
C281 C 0.97608 0.60044 0.62204 0.0
C282 C 0.96421 0.6159 0.61352 0.0
C283 C 0.9719 0.63364 0.60547 0.0
C284 C 0.94388 0.61446 0.62204 0.0
C285 C 0.96847 0.58113 0.6315 0.0
C286 C 0.93258 0.60436 0.58241 0.0
C287 C 0.91345 0.60295 0.59295 0.0
C288 C 0.90539 0.61164 0.64327 0.0
C289 C 0.91684 0.62186 0.68231 0.0
C290 C 0.93583 0.62327 0.67173 0.0
H291 H 0.97947 0.571 0.64392 0.0
H292 H 0.95778 0.58128 0.66736 0.0
H293 H 0.96174 0.57625 0.58959 0.0
H294 H 0.93854 0.59762 0.54344 0.0
H295 H 0.90501 0.59503 0.5619 0.0
H296 H 0.64026 0.92811 0.22064 0.0
H297 H 0.63704 0.95983 0.25789 0.0
H298 H 0.61009 0.93949 0.41748 0.0
H299 H 0.61338 0.90742 0.38051 0.0
H300 H 0.59055 0.96864 0.35096 0.0
H301 H 0.6636 -0.0128 0.39823 0.0
H302 H 0.66066 0.97578 0.32718 0.0
H303 H 0.65559 0.9634 0.39531 0.0
C304 C 0.63388 0.9303 0.26409 0.0
C305 C 0.62706 0.91525 0.29762 0.0
C306 C 0.63215 0.94844 0.28546 0.0
C307 C 0.62351 0.95196 0.34069 0.0
C308 C 0.61694 0.937 0.37498 0.0
H309 H 0.59226 0.06971 0.41339 0.0
H310 H 0.59559 0.03633 0.43537 0.0
C311 C 0.61888 0.91873 0.35387 0.0
C312 C 0.62017 0.97146 0.35911 0.0
H313 H 0.6429 0.0127 0.37532 0.0
C314 C 0.6019 0.97827 0.35813 0.0
C315 C 0.63503 0.9839 0.36867 0.0
C316 C 0.65482 0.97719 0.37303 0.0
C317 C 0.59826 -0.00254 0.36095 0.0
C318 C 0.61329 0.01 0.36558 0.0
C319 C 0.63141 0.00304 0.37148 0.0
C320 C 0.61094 0.03015 0.35432 0.0
C321 C 0.57857 0.00429 0.35418 0.0
C322 C 0.61852 0.03765 0.30184 0.0
C323 C 0.61669 0.05652 0.28927 0.0
C324 C 0.60724 0.06843 0.32903 0.0
C325 C 0.59955 0.0609 0.38175 0.0
C326 C 0.60141 0.04186 0.39433 0.0
H327 H 0.56865 -0.00725 0.34606 0.0
H328 H 0.57431 0.01172 0.39561 0.0
H329 H 0.57762 0.01429 0.31635 0.0
H330 H 0.62586 0.02884 0.27026 0.0
H331 H 0.62279 0.06174 0.24822 0.0
H332 H 0.06553 0.37266 0.55673 0.0
H333 H 0.03197 0.37126 0.53524 0.0
H334 H 0.02128 0.35736 0.72002 0.0
H335 H 0.05437 0.3585 0.74172 0.0
H336 H 0.00747 0.33386 0.58419 0.0
H337 H -0.01349 0.40542 0.65118 0.0
H338 H 0.00892 0.40027 0.61845 0.0
H339 H 0.00433 0.39427 0.6951 0.0
C340 C 0.05597 0.3695 0.59278 0.0
C341 C 0.06261 0.36559 0.65083 0.0
C342 C 0.03688 0.36866 0.58041 0.0
C343 C 0.02427 0.36421 0.62617 0.0
C344 C 0.03084 0.36083 0.68423 0.0
H345 H 0.92463 0.32575 0.74903 0.0
H346 H 0.95575 0.33092 0.70943 0.0
C347 C 0.04978 0.36145 0.69643 0.0
C348 C 0.00421 0.36211 0.61443 0.0
H349 H 0.96278 0.38237 0.64951 0.0
C350 C -0.00238 0.34461 0.59666 0.0
C351 C -0.00852 0.37616 0.63083 0.0
C352 C -0.00194 0.39518 0.6497 0.0
C353 C 0.97861 0.3404 0.59909 0.0
C354 C 0.96601 0.354 0.62018 0.0
C355 C 0.97247 0.37196 0.63336 0.0
C356 C 0.94681 0.34913 0.63777 0.0
C357 C 0.97224 0.32115 0.58202 0.0
C358 C 0.93143 0.35754 0.61024 0.0
C359 C 0.9135 0.35444 0.63252 0.0
C360 C 0.91081 0.34324 0.68351 0.0
C361 C 0.92624 0.33445 0.70974 0.0
C362 C 0.94403 0.33732 0.68697 0.0
H363 H 0.98221 0.31431 0.55102 0.0
H364 H 0.9712 0.3125 0.62309 0.0
H365 H 0.95835 0.3216 0.56044 0.0
H366 H 0.93334 0.36685 0.57258 0.0
H367 H 0.90189 0.36152 0.61171 0.0
H368 H 0.32725 0.42695 0.00412 0.0
H369 H 0.33085 0.45825 0.96397 0.0
H370 H 0.36208 0.43647 0.81457 0.0
H371 H 0.35839 0.40481 0.85446 0.0
H372 H 0.37956 0.46638 0.88289 0.0
H373 H 0.30791 0.48413 0.81447 0.0
H374 H 0.30899 0.47337 0.88705 0.0
H375 H 0.31595 0.4604 0.82172 0.0
C376 C 0.33463 0.42873 0.96219 0.0
C377 C 0.34255 0.41341 0.93249 0.0
C378 C 0.33659 0.44663 0.93911 0.0
C379 C 0.34656 0.44963 0.886 0.0
C380 C 0.35419 0.43438 0.85535 0.0
H381 H 0.37884 0.56738 0.81969 0.0
H382 H 0.37609 0.53408 0.79545 0.0
C383 C 0.35202 0.41634 0.8781 0.0
C384 C 0.35023 0.46897 0.86662 0.0
H385 H 0.32767 0.50996 0.84201 0.0
C386 C 0.36836 0.47589 0.87203 0.0
C387 C 0.33559 0.48125 0.85221 0.0
C388 C 0.31603 0.47439 0.84291 0.0
C389 C 0.37191 0.49509 0.86915 0.0
C390 C 0.35695 0.50751 0.85994 0.0
C391 C 0.33911 0.5004 0.84934 0.0
C392 C 0.35877 0.52768 0.87198 0.0
C393 C 0.39129 0.50208 0.88096 0.0
C394 C 0.34987 0.53504 0.92254 0.0
C395 C 0.35138 0.55384 0.93638 0.0
C396 C 0.36183 0.56586 0.89986 0.0
C397 C 0.37075 0.5585 0.84884 0.0
C398 C 0.36922 0.53951 0.83499 0.0
H399 H 0.40112 0.49062 0.89148 0.0
H400 H 0.39647 0.50957 0.84082 0.0
H401 H 0.39119 0.51206 0.91901 0.0
H402 H 0.3418 0.52614 0.95178 0.0
H403 H 0.34429 0.55892 0.97599 0.0
H404 H 0.42823 0.63874 0.98736 0.0
H405 H 0.45951 0.63512 0.02745 0.0
H406 H 0.43741 0.60951 0.18686 0.0
H407 H 0.40576 0.61319 0.1471 0.0
H408 H 0.47409 0.6473 0.15364 0.0
H409 H 0.47606 0.57153 0.09977 0.0
H410 H 0.46054 0.58694 0.06004 0.0
H411 H 0.45623 0.58156 0.13724 0.0
C412 C 0.42993 0.6325 0.03124 0.0
C413 C 0.4145 0.62616 0.06391 0.0
C414 C 0.44782 0.63048 0.05411 0.0
C415 C 0.45071 0.62195 0.10981 0.0
C416 C 0.43539 0.61608 0.14364 0.0
H417 H 0.56759 0.58981 0.17474 0.0
H418 H 0.53431 0.5926 0.19802 0.0
C419 C 0.41737 0.61826 0.12095 0.0
C420 C 0.46996 0.61858 0.12997 0.0
H421 H 0.50453 0.58627 0.11915 0.0
C422 C 0.4807 0.63386 0.14772 0.0
C423 C 0.47845 0.601 0.12268 0.0
C424 C 0.46734 0.58422 0.10388 0.0
C425 C 0.49999 0.63226 0.15448 0.0
C426 C 0.50874 0.61507 0.14164 0.0
C427 C 0.4978 0.59944 0.12872 0.0
C428 C 0.52903 0.61386 0.13149 0.0
C429 C 0.51092 0.64922 0.1727 0.0
C430 C 0.53696 0.62464 0.08591 0.0
C431 C 0.55574 0.62303 0.07239 0.0
C432 C 0.56713 0.61048 0.10389 0.0
C433 C 0.55922 0.59965 0.1498 0.0
C434 C 0.54024 0.60124 0.16319 0.0
H435 H 0.50246 0.65863 0.2013 0.0
H436 H 0.52374 0.64535 0.19743 0.0
H437 H 0.51493 0.65708 0.1319 0.0
H438 H 0.52849 0.63409 0.05973 0.0
H439 H 0.56127 0.63159 0.03669 0.0
H440 H 0.58915 0.40329 0.82626 0.0
H441 H 0.5918 0.43657 0.80188 0.0
H442 H 0.63365 0.44276 0.93871 0.0
H443 H 0.63126 0.40999 0.96289 0.0
H444 H 0.58571 0.46666 0.88083 0.0
H445 H 0.65748 0.46843 0.7951 0.0
H446 H 0.64423 0.44716 0.79969 0.0
H447 H 0.65627 0.45597 0.86461 0.0
C448 C 0.59904 0.41175 0.85063 0.0
C449 C 0.60999 0.40395 0.89651 0.0
C450 C 0.60054 0.43072 0.83661 0.0
C451 C 0.61321 0.44203 0.86761 0.0
C452 C 0.62414 0.43421 0.91309 0.0
H453 H 0.63889 0.54234 0.0116 0.0
H454 H 0.63495 0.51117 0.97045 0.0
C455 C 0.6226 0.41544 0.92727 0.0
C456 C 0.61433 0.46233 0.85691 0.0
H457 H 0.64643 0.49692 0.84329 0.0
C458 C 0.5988 0.47335 0.87055 0.0
C459 C 0.6314 0.47103 0.84313 0.0
C460 C 0.64823 0.46 0.82417 0.0
C461 C 0.60039 0.49274 0.87653 0.0
C462 C 0.6179 0.50118 0.86844 0.0
C463 C 0.63304 0.49036 0.84981 0.0
C464 C 0.62143 0.52038 0.88912 0.0
C465 C 0.58376 0.50393 0.89627 0.0
C466 C 0.61544 0.5359 0.85621 0.0
C467 C 0.6178 0.55386 0.87952 0.0
C468 C 0.62599 0.55646 0.93627 0.0
C469 C 0.63243 0.54084 0.96798 0.0
C470 C 0.63023 0.52301 0.9445 0.0
H471 H 0.57108 0.49526 0.90058 0.0
H472 H 0.58666 0.51061 0.94022 0.0
H473 H 0.581 0.51518 0.86336 0.0
H474 H 0.60866 0.53408 0.81325 0.0
H475 H 0.61266 0.56563 0.85411 0.0
H476 H 0.40891 0.33869 0.03482 0.0
H477 H 0.4417 0.33668 0.05838 0.0
H478 H 0.43536 0.37917 0.19349 0.0
H479 H 0.40205 0.38143 0.16973 0.0
H480 H 0.46522 0.38512 0.1138 0.0
H481 H 0.46777 0.31357 0.20265 0.0
H482 H 0.45525 0.31443 0.13317 0.0
H483 H 0.44641 0.3267 0.19767 0.0
C484 C 0.41433 0.34758 0.06993 0.0
C485 C 0.40278 0.36024 0.10039 0.0
C486 C 0.43312 0.34626 0.08374 0.0
C487 C 0.4409 0.35747 0.12857 0.0
C488 C 0.42954 0.37021 0.15925 0.0
H489 H 0.56423 0.35858 0.14546 0.0
H490 H 0.53254 0.36258 0.18459 0.0
C491 C 0.41055 0.3715 0.14559 0.0
C492 C 0.4612 0.35651 0.13903 0.0
H493 H 0.49607 0.32466 0.15426 0.0
C494 C 0.47204 0.37209 0.12468 0.0
C495 C 0.47007 0.33952 0.15355 0.0
C496 C 0.45924 0.32267 0.17326 0.0
C497 C 0.4914 0.37061 0.1189 0.0
C498 C 0.50002 0.35316 0.1279 0.0
C499 C 0.48937 0.338 0.14705 0.0
C500 C 0.51929 0.34972 0.10805 0.0
C501 C 0.50241 0.38727 0.09858 0.0
C502 C 0.52222 0.34088 0.05282 0.0
C503 C 0.54013 0.33868 0.03033 0.0
C504 C 0.55554 0.34515 0.06288 0.0
C505 C 0.55264 0.3534 0.11942 0.0
C506 C 0.53459 0.35576 0.14174 0.0
H507 H 0.49365 0.39991 0.09387 0.0
H508 H 0.51364 0.3902 0.13135 0.0
H509 H 0.50907 0.38423 0.05471 0.0
H510 H 0.51055 0.33612 0.02628 0.0
H511 H 0.54186 0.33217 0.98683 0.0
H512 H 0.82805 0.40397 0.82668 0.0
H513 H 0.8269 0.43775 0.83626 0.0
H514 H 0.88424 0.43832 0.89156 0.0
H515 H 0.88535 0.40421 0.88369 0.0
H516 H 0.8607 0.46625 0.94961 0.0
H517 H 0.85455 0.46551 0.70141 0.0
H518 H 0.83694 0.45223 0.73871 0.0
H519 H 0.86084 0.44513 0.74392 0.0
C520 C 0.84033 0.41124 0.84203 0.0
C521 C 0.8569 0.40154 0.85343 0.0
C522 C 0.83963 0.43052 0.84757 0.0
C523 C 0.85558 0.44052 0.86336 0.0
C524 C 0.8718 0.43081 0.8791 0.0
H525 H 0.87219 0.5512 0.73132 0.0
H526 H 0.87616 0.51911 0.76385 0.0
C527 C 0.87243 0.41138 0.87449 0.0
C528 C 0.85581 0.46096 0.85586 0.0
H529 H 0.85022 0.49447 0.74944 0.0
C530 C 0.85853 0.4725 0.90592 0.0
C531 C 0.85324 0.46901 0.7986 0.0
C532 C 0.85141 0.45735 0.74247 0.0
C533 C 0.85843 0.49201 0.90018 0.0
C534 C 0.85521 0.50002 0.8431 0.0
C535 C 0.85264 0.48836 0.79326 0.0
C536 C 0.85489 0.52039 0.83236 0.0
C537 C 0.86209 0.50379 0.95489 0.0
C538 C 0.84203 0.53207 0.86143 0.0
C539 C 0.84003 0.55067 0.8436 0.0
C540 C 0.8505 0.55759 0.79544 0.0
C541 C 0.8638 0.54611 0.76814 0.0
C542 C 0.8661 0.52778 0.78679 0.0
H543 H 0.8694 0.49579 0.99039 0.0
H544 H 0.87051 0.5162 0.9434 0.0
H545 H 0.84866 0.50864 0.97364 0.0
H546 H 0.83294 0.52661 0.89579 0.0
H547 H 0.82962 0.55929 0.86505 0.0
H548 H 0.5402 0.14255 0.25404 0.0
H549 H 0.50859 0.13841 0.21734 0.0
H550 H 0.52954 0.11318 0.0554 0.0
H551 H 0.5615 0.11738 0.09179 0.0
H552 H 0.49192 0.1503 0.09644 0.0
H553 H 0.4933 0.07408 0.14317 0.0
H554 H 0.50916 0.08968 0.18055 0.0
H555 H 0.51204 0.08479 0.10227 0.0
C556 C 0.53816 0.13632 0.21027 0.0
C557 C 0.55336 0.1302 0.17597 0.0
C558 C 0.52008 0.13399 0.18935 0.0
C559 C 0.51679 0.12536 0.134 0.0
C560 C 0.53187 0.11979 0.09843 0.0
H561 H 0.39994 0.09123 0.07675 0.0
H562 H 0.43303 0.09471 0.0516 0.0
C563 C 0.55007 0.12228 0.11915 0.0
C564 C 0.4974 0.12152 0.11616 0.0
H565 H 0.46416 0.08795 0.12771 0.0
C566 C 0.48588 0.13658 0.10167 0.0
C567 C 0.48964 0.10359 0.12259 0.0
C568 C 0.50156 0.08701 0.13806 0.0
C569 C 0.46659 0.1344 0.09731 0.0
C570 C 0.45865 0.1168 0.10918 0.0
C571 C 0.47029 0.10143 0.11886 0.0
C572 C 0.43855 0.11482 0.12161 0.0
C573 C 0.45481 0.15116 0.08276 0.0
C574 C 0.43086 0.12464 0.16991 0.0
C575 C 0.41221 0.12263 0.1845 0.0
C576 C 0.40069 0.11064 0.15133 0.0
C577 C 0.40841 0.10062 0.10307 0.0
C578 C 0.42727 0.10261 0.08858 0.0
H579 H 0.46261 0.1613 0.05492 0.0
H580 H 0.44195 0.14712 0.05861 0.0
H581 H 0.45084 0.15825 0.12509 0.0
H582 H 0.43941 0.13376 0.19702 0.0
H583 H 0.40685 0.13053 0.22211 0.0
H584 H 0.12763 0.5577 0.77892 0.0
H585 H 0.12991 0.52481 0.8018 0.0
H586 H 0.09555 0.53257 0.95821 0.0
H587 H 0.09297 0.56594 0.93521 0.0
H588 H 0.14386 0.50782 0.9087 0.0
H589 H 0.06988 0.49009 0.86216 0.0
H590 H 0.07994 0.51164 0.83661 0.0
H591 H 0.0749 0.50844 0.91469 0.0
C592 C 0.12048 0.55255 0.81826 0.0
C593 C 0.11004 0.56452 0.85512 0.0
C594 C 0.12188 0.53369 0.83137 0.0
C595 C 0.11287 0.52625 0.88153 0.0
C596 C 0.10247 0.53805 0.91893 0.0
H597 H 0.1109 0.40346 0.89447 0.0
H598 H 0.10841 0.43502 0.93626 0.0
C599 C 0.10104 0.55708 0.90577 0.0
C600 C 0.11444 0.50601 0.8926 0.0
H601 H 0.09099 0.4654 0.87004 0.0
C602 C 0.13222 0.49851 0.90181 0.0
C603 C 0.09922 0.49392 0.88399 0.0
C604 C 0.07987 0.5013 0.87357 0.0
C605 C 0.1354 0.47931 0.8981 0.0
C606 C 0.12045 0.46736 0.88437 0.0
C607 C 0.10242 0.47466 0.8804 0.0
C608 C 0.12364 0.44803 0.86408 0.0
C609 C 0.15489 0.47202 0.90577 0.0
C610 C 0.13309 0.44497 0.80996 0.0
C611 C 0.13435 0.42713 0.78579 0.0
C612 C 0.12626 0.41194 0.81542 0.0
C613 C 0.11738 0.41489 0.87087 0.0
C614 C 0.1159 0.43287 0.89471 0.0
H615 H 0.16339 0.48153 0.93382 0.0
H616 H 0.15487 0.45799 0.9266 0.0
H617 H 0.1616 0.47093 0.86108 0.0
H618 H 0.13888 0.45654 0.78514 0.0
H619 H 0.14129 0.42532 0.74306 0.0
H620 H 0.42672 0.83211 0.2636 0.0
H621 H 0.45799 0.8354 0.22331 0.0
H622 H 0.43605 0.86256 0.06616 0.0
H623 H 0.40443 0.85926 0.1062 0.0
H624 H 0.47258 0.82351 0.10048 0.0
H625 H 0.47499 0.89955 0.15005 0.0
H626 H 0.45887 0.88449 0.18847 0.0
H627 H 0.45537 0.88986 0.1108 0.0
C628 C 0.42846 0.83864 0.2202 0.0
C629 C 0.41309 0.84553 0.18827 0.0
C630 C 0.44634 0.84046 0.1972 0.0
C631 C 0.44928 0.84933 0.14209 0.0
C632 C 0.43401 0.85576 0.10898 0.0
H633 H 0.56611 0.8798 0.06981 0.0
H634 H 0.53268 0.87713 0.04891 0.0
C635 C 0.41599 0.85379 0.1318 0.0
C636 C 0.46855 0.85243 0.12179 0.0
H637 H 0.50325 0.88459 0.12932 0.0
C638 C 0.47923 0.83695 0.10524 0.0
C639 C 0.47712 0.87001 0.1276 0.0
C640 C 0.46612 0.88702 0.14527 0.0
C641 C 0.49851 0.83836 0.09811 0.0
C642 C 0.50732 0.85559 0.10925 0.0
C643 C 0.49646 0.87139 0.12106 0.0
C644 C 0.52765 0.85678 0.11844 0.0
C645 C 0.50938 0.82118 0.08127 0.0
C646 C 0.53575 0.84649 0.16495 0.0
C647 C 0.55462 0.84804 0.17714 0.0
C648 C 0.56592 0.86003 0.1433 0.0
C649 C 0.55781 0.8704 0.09656 0.0
C650 C 0.53875 0.86888 0.08451 0.0
H651 H 0.5008 0.81148 0.05418 0.0
H652 H 0.52206 0.82477 0.05549 0.0
H653 H 0.51362 0.81377 0.12273 0.0
H654 H 0.52736 0.83744 0.19273 0.0
H655 H 0.56031 0.83986 0.21356 0.0
H656 H 0.8605 0.90811 0.35992 0.0
H657 H 0.86339 0.94003 0.3215 0.0
H658 H 0.83783 0.96109 0.48269 0.0
H659 H 0.83499 0.92952 0.52149 0.0
H660 H 0.82493 0.97581 0.3573 0.0
H661 H 0.90061 0.97922 0.40909 0.0
H662 H 0.89098 0.95926 0.37118 0.0
H663 H 0.88574 0.96321 0.44872 0.0
C664 C 0.8553 0.91954 0.38679 0.0
C665 C 0.84762 0.91631 0.44392 0.0
C666 C 0.85701 0.93772 0.36485 0.0
C667 C 0.8509 0.95281 0.39953 0.0
C668 C 0.84263 0.94956 0.4554 0.0
H669 H 0.83869 0.06301 0.47793 0.0
H670 H 0.83702 0.03017 0.45372 0.0
C671 C 0.84107 0.93152 0.47752 0.0
C672 C 0.85374 0.97222 0.38004 0.0
H673 H 0.88513 0.0075 0.39164 0.0
C674 C 0.83819 0.9827 0.36317 0.0
C675 C 0.87109 0.98107 0.38725 0.0
C676 C 0.88815 0.97023 0.40506 0.0
C677 C 0.83927 0.00208 0.3573 0.0
C678 C 0.85622 0.01116 0.37015 0.0
C679 C 0.87213 0.00051 0.3821 0.0
C680 C 0.85694 0.03145 0.38126 0.0
C681 C 0.82204 0.01274 0.34007 0.0
C682 C 0.86914 0.04307 0.34958 0.0
C683 C 0.87024 0.06207 0.36365 0.0
C684 C 0.85935 0.06959 0.41016 0.0
C685 C 0.84727 0.05778 0.44174 0.0
C686 C 0.84613 0.03897 0.42757 0.0
H687 H 0.81278 0.00417 0.3114 0.0
H688 H 0.81421 0.01645 0.38128 0.0
H689 H 0.82552 0.02575 0.31578 0.0
H690 H 0.87779 0.03745 0.3142 0.0
H691 H 0.87973 0.07077 0.3386 0.0
H692 H 0.92517 0.14348 0.50438 0.0
H693 H 0.9563 0.13918 0.54494 0.0
H694 H 0.9336 0.11124 0.69931 0.0
H695 H 0.9021 0.11557 0.65897 0.0
H696 H 0.97151 0.14929 0.66838 0.0
H697 H 0.97112 0.07371 0.61127 0.0
H698 H 0.95539 0.0897 0.57495 0.0
H699 H 0.952 0.08376 0.65222 0.0
C700 C 0.92671 0.13661 0.54734 0.0
C701 C 0.91117 0.12975 0.57827 0.0
C702 C 0.94452 0.13422 0.5705 0.0
C703 C 0.94721 0.12477 0.62477 0.0
C704 C 0.93175 0.11848 0.65716 0.0
H705 H 0.06353 0.08933 0.68313 0.0
H706 H 0.03049 0.093 0.7088 0.0
C707 C 0.9138 0.12104 0.63419 0.0
C708 C 0.9664 0.12075 0.64439 0.0
H709 H -3e-05 0.08746 0.6313 0.0
C710 C 0.97768 0.13566 0.66192 0.0
C711 C 0.97435 0.10293 0.63636 0.0
C712 C 0.9627 0.08652 0.61759 0.0
C713 C -0.00305 0.13349 0.66762 0.0
C714 C 0.00513 0.11608 0.65401 0.0
C715 C -0.00632 0.1008 0.64146 0.0
C716 C 0.0253 0.11432 0.64241 0.0
C717 C 0.00848 0.15009 0.68538 0.0
C718 C 0.03318 0.12485 0.59612 0.0
C719 C 0.05181 0.12272 0.58122 0.0
C720 C 0.0631 0.10992 0.61203 0.0
C721 C 0.05524 0.09935 0.65868 0.0
C722 C 0.0364 0.10144 0.67344 0.0
H723 H 0.00044 0.15974 0.71446 0.0
H724 H 0.02129 0.14581 0.70943 0.0
H725 H 0.01254 0.15785 0.64443 0.0
H726 H 0.02478 0.1345 0.57049 0.0
H727 H 0.05731 0.1311 0.54502 0.0
H728 H 0.08126 0.90215 0.32859 0.0
H729 H 0.08059 0.93567 0.30665 0.0
H730 H 0.13377 0.94201 0.3931 0.0
H731 H 0.1346 0.90894 0.4145 0.0
H732 H 0.08041 0.96234 0.39409 0.0
H733 H 0.14052 0.97446 0.24675 0.0
H734 H 0.1304 0.95167 0.2565 0.0
H735 H 0.14723 0.96036 0.3094 0.0
C736 C 0.09297 0.91067 0.34157 0.0
C737 C 0.10791 0.90293 0.37365 0.0
C738 C 0.09258 0.92978 0.32901 0.0
C739 C 0.10728 0.9413 0.34733 0.0
C740 C 0.1225 0.93338 0.37709 0.0
H741 H 0.12017 0.03955 0.52653 0.0
H742 H 0.11451 0.00902 0.48326 0.0
C743 C 0.12283 0.91445 0.38999 0.0
C744 C 0.10593 0.96184 0.34372 0.0
H745 H 0.13264 3e-05 0.31558 0.0
C746 C 0.09152 0.97064 0.37525 0.0
C747 C 0.12026 0.97276 0.31847 0.0
C748 C 0.13535 0.96429 0.28032 0.0
C749 C 0.09209 -0.01023 0.38733 0.0
C750 C 0.10754 0.00026 0.36797 0.0
C751 C 0.12097 -0.00813 0.33131 0.0
C752 C 0.1112 0.01904 0.39241 0.0
C753 C 0.07664 -0.00158 0.42354 0.0
C754 C 0.11183 0.03476 0.35522 0.0
C755 C 0.11511 0.0524 0.37993 0.0
C756 C 0.11803 0.05448 0.44207 0.0
C757 C 0.11791 0.03854 0.47859 0.0
C758 C 0.11454 0.02105 0.45401 0.0
H759 H 0.06353 -0.00956 0.4187 0.0
H760 H 0.08055 -0.00166 0.47171 0.0
H761 H 0.07412 0.01304 0.40976 0.0
H762 H 0.10949 0.03342 0.30741 0.0
H763 H 0.11516 0.06438 0.35055 0.0
H764 H 0.90667 0.88171 0.68064 0.0
H765 H 0.93992 0.87973 0.70505 0.0
H766 H 0.94784 0.84094 0.55965 0.0
H767 H 0.91504 0.84269 0.53527 0.0
H768 H 0.96494 0.83061 0.67345 0.0
H769 H 0.98204 0.90254 0.59789 0.0
H770 H 0.96348 0.89917 0.65089 0.0
H771 H 0.96081 0.89126 0.57509 0.0
C772 C 0.91552 0.87274 0.65403 0.0
C773 C 0.90818 0.86245 0.60578 0.0
C774 C 0.93448 0.87166 0.66797 0.0
C775 C 0.9463 0.86024 0.63394 0.0
C776 C 0.93894 0.8498 0.58654 0.0
H777 H 0.04602 0.82602 0.50543 0.0
H778 H 0.0154 0.82978 0.5499 0.0
C779 C 0.92015 0.8509 0.57253 0.0
C780 C 0.96652 0.85921 0.64531 0.0
H781 H 0.00679 0.88185 0.61201 0.0
C782 C 0.97414 0.84196 0.6616 0.0
C783 C 0.97846 0.87407 0.6303 0.0
C784 C 0.97092 0.89284 0.61234 0.0
C785 C -0.00668 0.83878 0.65887 0.0
C786 C 0.00511 0.85313 0.63851 0.0
C787 C -0.00232 0.87086 0.62742 0.0
C788 C 0.0243 0.84921 0.61828 0.0
C789 C 0.00072 0.81978 0.6748 0.0
C790 C 0.03955 0.85886 0.64206 0.0
C791 C 0.05723 0.85666 0.61672 0.0
C792 C 0.05976 0.84508 0.56643 0.0
C793 C 0.04453 0.83505 0.54407 0.0
C794 C 0.02702 0.83708 0.56975 0.0
H795 H -0.00836 0.81279 0.70811 0.0
H796 H 0.00106 0.811 0.63383 0.0
H797 H 0.01501 0.82064 0.69323 0.0
H798 H 0.03767 0.86844 0.67911 0.0
H799 H 0.06869 0.86466 0.6346 0.0
H800 H 0.2998 0.31418 0.03747 0.0
H801 H 0.29034 0.28157 0.05008 0.0
H802 H 0.33637 0.27277 0.17069 0.0
H803 H 0.3453 0.30514 0.16034 0.0
H804 H 0.30669 0.2505 0.02349 0.0
H805 H 0.29647 0.24975 0.26749 0.0
H806 H 0.29891 0.2712 0.22626 0.0
H807 H 0.31913 0.25877 0.25256 0.0
C808 C 0.30776 0.30525 0.06695 0.0
C809 C 0.32317 0.31223 0.09835 0.0
C810 C 0.30232 0.28667 0.07432 0.0
C811 C 0.31228 0.27483 0.11292 0.0
C812 C 0.32796 0.28176 0.14276 0.0
H813 H 0.34334 0.16439 0.08531 0.0
H814 H 0.33507 0.19695 0.0747 0.0
C815 C 0.3332 0.30027 0.13619 0.0
C816 C 0.30743 0.25486 0.11918 0.0
H817 H 0.30664 0.22009 0.22318 0.0
C818 C 0.30621 0.24391 0.0672 0.0
C819 C 0.30607 0.24617 0.17604 0.0
C820 C 0.30498 0.25718 0.23359 0.0
C821 C 0.30553 0.22444 0.07066 0.0
C822 C 0.30686 0.21571 0.12747 0.0
C823 C 0.30618 0.2267 0.17948 0.0
C824 C 0.3112 0.1956 0.13356 0.0
C825 C 0.30389 0.21348 0.01316 0.0
C826 C 0.30113 0.18407 0.17274 0.0
C827 C 0.3062 0.16537 0.18023 0.0
C828 C 0.32133 0.15796 0.14839 0.0
C829 C 0.33144 0.1696 0.10983 0.0
C830 C 0.32657 0.18822 0.10312 0.0
H831 H 0.29543 0.22117 0.97966 0.0
H832 H 0.3179 0.21147 0.99354 0.0
H833 H 0.29748 0.19965 0.02075 0.0
H834 H 0.28938 0.18953 0.19744 0.0
H835 H 0.29818 0.1567 0.21029 0.0
H836 H 0.16505 0.62327 0.92522 0.0
H837 H 0.19754 0.63168 0.93388 0.0
H838 H 0.18928 0.67677 0.809 0.0
H839 H 0.15655 0.66778 0.79803 0.0
H840 H 0.21961 0.65959 0.78249 0.0
H841 H 0.22218 0.67174 0.02548 0.0
H842 H 0.21267 0.64909 0.01305 0.0
H843 H 0.20046 0.66936 0.9859 0.0
C844 C 0.17006 0.63508 0.89984 0.0
C845 C 0.15822 0.64494 0.86117 0.0
C846 C 0.18865 0.64003 0.90543 0.0
C847 C 0.19579 0.65528 0.87377 0.0
C848 C 0.18403 0.66512 0.83461 0.0
H849 H 0.31456 0.66874 0.96163 0.0
H850 H 0.2817 0.67748 0.95108 0.0
C851 C 0.16537 0.65995 0.8282 0.0
C852 C 0.21587 0.65969 0.87847 0.0
H853 H 0.25128 0.66064 0.98011 0.0
C854 C 0.22648 0.66029 0.82573 0.0
C855 C 0.22495 0.6613 0.93464 0.0
C856 C 0.21438 0.66308 0.9928 0.0
C857 C 0.24594 0.66065 0.82788 0.0
C858 C 0.25501 0.65962 0.88419 0.0
C859 C 0.2444 0.66087 0.93683 0.0
C860 C 0.27509 0.65518 0.88928 0.0
C861 C 0.25651 0.6617 0.76956 0.0
C862 C 0.28218 0.63954 0.85935 0.0
C863 C 0.30083 0.63472 0.86468 0.0
C864 C 0.31278 0.64513 0.90141 0.0
C865 C 0.30565 0.66049 0.93296 0.0
C866 C 0.28692 0.66552 0.92679 0.0
H867 H 0.2487 0.66997 0.73585 0.0
H868 H 0.27042 0.66803 0.77571 0.0
H869 H 0.25824 0.64747 0.751 0.0
H870 H 0.27323 0.63083 0.83228 0.0
H871 H 0.30582 0.62264 0.84049 0.0
H872 H 0.62217 0.80383 0.09325 0.0
H873 H 0.63089 0.77127 0.08659 0.0
H874 H 0.68061 0.78235 0.18848 0.0
H875 H 0.67141 0.81522 0.19751 0.0
H876 H 0.66015 0.75542 0.03517 0.0
H877 H 0.65984 0.73887 0.27921 0.0
H878 H 0.65085 0.76052 0.25056 0.0
H879 H 0.67548 0.75684 0.25553 0.0
C880 C 0.63493 0.79937 0.11462 0.0
C881 C 0.64609 0.81205 0.14612 0.0
C882 C 0.63995 0.78074 0.11054 0.0
C883 C 0.65637 0.77428 0.13716 0.0
C884 C 0.6677 0.78692 0.16848 0.0
H885 H 0.67095 0.65501 0.0421 0.0
H886 H 0.67987 0.68787 0.05194 0.0
C887 C 0.66248 0.80567 0.1735 0.0
C888 C 0.66104 0.75423 0.13161 0.0
H889 H 0.66342 0.71405 0.21247 0.0
C890 C 0.66114 0.74634 0.07389 0.0
C891 C 0.66247 0.74247 0.18222 0.0
C892 C 0.66204 0.75 0.24544 0.0
C893 C 0.66092 0.727 0.06542 0.0
C894 C 0.66139 0.71521 0.11618 0.0
C895 C 0.66297 0.72313 0.17366 0.0
C896 C 0.65725 0.69502 0.11176 0.0
C897 C 0.65873 0.7195 0.00252 0.0
C898 C 0.64197 0.68799 0.14336 0.0
C899 C 0.63715 0.66931 0.13883 0.0
C900 C 0.64735 0.6572 0.10192 0.0
C901 C 0.66272 0.66412 0.07029 0.0
C902 C 0.66778 0.68288 0.07575 0.0
H903 H 0.65499 0.73057 0.96992 0.0
H904 H 0.67203 0.7132 0.98774 0.0
H905 H 0.64786 0.70859 0.00096 0.0
H906 H 0.63355 0.69705 0.17113 0.0
H907 H 0.62521 0.66442 0.16372 0.0
H908 H 0.66463 0.34562 0.83957 0.0
H909 H 0.69689 0.33633 0.82994 0.0
H910 H 0.68751 0.29037 0.9505 0.0
H911 H 0.655 0.30021 0.9624 0.0
H912 H 0.71859 0.3063 0.97762 0.0
H913 H 0.71987 0.29617 0.73365 0.0
H914 H 0.71098 0.31897 0.74835 0.0
H915 H 0.69837 0.29883 0.77434 0.0
C916 C 0.66935 0.33345 0.86386 0.0
C917 C 0.65725 0.32356 0.90148 0.0
C918 C 0.68779 0.328 0.8577 0.0
C919 C 0.69454 0.31223 0.8877 0.0
C920 C 0.68256 0.30241 0.92611 0.0
H921 H 0.81266 0.29807 0.79214 0.0
H922 H 0.77994 0.28908 0.80436 0.0
C923 C 0.66403 0.30807 0.93308 0.0
C924 C 0.71446 0.30717 0.88185 0.0
H925 H 0.74941 0.30626 0.77863 0.0
C926 C 0.72526 0.30582 0.93405 0.0
C927 C 0.72327 0.30579 0.82518 0.0
C928 C 0.71242 0.30478 0.76736 0.0
C929 C 0.7447 0.30502 0.93101 0.0
C930 C 0.75356 0.30638 0.87444 0.0
C931 C 0.74272 0.30579 0.82218 0.0
C932 C 0.77364 0.31074 0.86889 0.0
C933 C 0.75549 0.30323 0.98873 0.0
C934 C 0.78087 0.32608 0.89993 0.0
C935 C 0.79943 0.33104 0.89359 0.0
C936 C 0.81117 0.32109 0.85478 0.0
C937 C 0.80392 0.30596 0.82242 0.0
C938 C 0.78528 0.3008 0.82955 0.0
H939 H 0.74775 0.29467 0.02177 0.0
H940 H 0.76933 0.29682 0.98132 0.0
H941 H 0.75739 0.31722 0.00885 0.0
H942 H 0.77207 0.33451 0.92848 0.0
H943 H 0.80449 0.34294 0.91852 0.0
H944 H 0.84838 0.66656 0.57684 0.0
H945 H 0.83991 0.69915 0.56859 0.0
H946 H 0.79151 0.68953 0.67827 0.0
H947 H 0.80051 0.65669 0.689 0.0
H948 H 0.81059 0.71613 0.52216 0.0
H949 H 0.81481 0.73202 0.76644 0.0
H950 H 0.82262 0.71015 0.73599 0.0
H951 H 0.79823 0.71466 0.74475 0.0
C952 C 0.83594 0.67133 0.59942 0.0
C953 C 0.82518 0.65911 0.63399 0.0
C954 C 0.83105 0.68999 0.59439 0.0
C955 C 0.81515 0.69688 0.62316 0.0
C956 C 0.80406 0.68463 0.6567 0.0
H957 H 0.80318 0.81727 0.53835 0.0
H958 H 0.79345 0.78455 0.54537 0.0
C959 C 0.80916 0.66588 0.66266 0.0
C960 C 0.81101 0.71706 0.61869 0.0
H961 H 0.81107 0.75706 0.70109 0.0
C962 C 0.81041 0.72512 0.56127 0.0
C963 C 0.81065 0.72872 0.66984 0.0
C964 C 0.81173 0.72104 0.73277 0.0
C965 C 0.81115 0.74447 0.55343 0.0
C966 C 0.81181 0.7561 0.6046 0.0
C967 C 0.81068 0.74808 0.66196 0.0
C968 C 0.81675 0.77608 0.60049 0.0
C969 C 0.8127 0.75214 0.49061 0.0
C970 C 0.8328 0.78226 0.62998 0.0
C971 C 0.83811 0.80082 0.627 0.0
C972 C 0.82763 0.81367 0.59379 0.0
C973 C 0.8116 0.80757 0.56372 0.0
C974 C 0.80608 0.78891 0.56759 0.0
H975 H 0.81535 0.74106 0.45691 0.0
H976 H 0.79952 0.75918 0.47843 0.0
H977 H 0.82406 0.76251 0.48779 0.0
H978 H 0.84135 0.77263 0.65523 0.0
H979 H 0.85056 0.80506 0.6505 0.0
H980 H 0.81144 0.1724 0.46597 0.0
H981 H 0.77858 0.1806 0.45161 0.0
H982 H 0.77206 0.13362 0.33282 0.0
H983 H 0.80466 0.12593 0.3449 0.0
H984 H 0.75549 0.16348 0.28757 0.0
H985 H 0.73495 0.15506 0.52683 0.0
H986 H 0.7524 0.17223 0.5119 0.0
H987 H 0.75744 0.14804 0.49968 0.0
C988 C 0.80291 0.16386 0.43697 0.0
C989 C 0.81059 0.14851 0.4067 0.0
C990 C 0.78415 0.16851 0.42891 0.0
C991 C 0.77277 0.15762 0.39153 0.0
C992 C 0.78053 0.14232 0.36156 0.0
H993 H 0.66347 0.12272 0.38993 0.0
H994 H 0.69592 0.13093 0.40263 0.0
C995 C 0.7992 0.13788 0.36876 0.0
C996 C 0.75267 0.1615 0.38351 0.0
H997 H 0.71121 0.16 0.45719 0.0
C998 C 0.74577 0.16298 0.3247 0.0
C999 C 0.74005 0.16094 0.43206 0.0
C1000 C 0.74649 0.15885 0.49617 0.0
C1001 C 0.72665 0.1624 0.31269 0.0
C1002 C 0.71405 0.16096 0.3611 0.0
C1003 C 0.72092 0.16102 0.42015 0.0
C1004 C 0.69413 0.15654 0.35187 0.0
C1005 C 0.72026 0.16193 0.2482 0.0
C1006 C 0.68223 0.1681 0.31845 0.0
C1007 C 0.66358 0.16318 0.30998 0.0
C1008 C 0.65652 0.14685 0.33594 0.0
C1009 C 0.66846 0.13544 0.36952 0.0
C1010 C 0.68703 0.14017 0.37707 0.0
H1011 H 0.73193 0.15954 0.21656 0.0
H1012 H 0.70978 0.15083 0.24129 0.0
H1013 H 0.71375 0.17546 0.23669 0.0
H1014 H 0.6873 0.18099 0.2995 0.0
H1015 H 0.6546 0.17232 0.28444 0.0
H1016 H 0.11757 0.30477 0.58688 0.0
H1017 H 0.12513 0.27188 0.57865 0.0
H1018 H 0.17375 0.28026 0.68857 0.0
H1019 H 0.1656 0.31327 0.69955 0.0
H1020 H 0.15355 0.25431 0.53176 0.0
H1021 H 0.1504 0.23801 0.77553 0.0
H1022 H 0.143 0.26012 0.74602 0.0
H1023 H 0.16732 0.2551 0.75474 0.0
C1024 C 0.12983 0.29961 0.60964 0.0
C1025 C 0.14091 0.31152 0.64432 0.0
C1026 C 0.1342 0.2808 0.60465 0.0
C1027 C 0.14991 0.27349 0.63345 0.0
C1028 C 0.1613 0.28545 0.66714 0.0
H1029 H 0.16578 0.15388 0.54345 0.0
H1030 H 0.17359 0.18709 0.55109 0.0
C1031 C 0.15668 0.3043 0.67323 0.0
C1032 C 0.1538 0.25325 0.6283 0.0
H1033 H 0.1555 0.21316 0.70983 0.0
C1034 C 0.15416 0.24528 0.57069 0.0
C1035 C 0.1547 0.24152 0.67917 0.0
C1036 C 0.1537 0.24905 0.74237 0.0
C1037 C 0.15398 0.22592 0.56247 0.0
C1038 C 0.15418 0.2142 0.6134 0.0
C1039 C 0.15528 0.22219 0.67087 0.0
C1040 C 0.15043 0.19394 0.60911 0.0
C1041 C 0.15225 0.21831 0.49957 0.0
C1042 C 0.13518 0.18667 0.64025 0.0
C1043 C 0.13101 0.16782 0.63705 0.0
C1044 C 0.14184 0.15576 0.60192 0.0
C1045 C 0.1571 0.16294 0.57035 0.0
C1046 C 0.16152 0.18189 0.57452 0.0
H1047 H 0.14849 0.22929 0.46666 0.0
H1048 H 0.16573 0.21223 0.48562 0.0
H1049 H 0.14158 0.20721 0.49752 0.0
H1050 H 0.12633 0.19566 0.6669 0.0
H1051 H 0.1191 0.16274 0.66171 0.0
H1052 H 0.15506 0.82187 0.28468 0.0
H1053 H 0.18815 0.81582 0.27243 0.0
H1054 H 0.19495 0.81542 0.46478 0.0
H1055 H 0.16157 0.82084 0.47731 0.0
H1056 H 0.21439 0.83904 0.30573 0.0
H1057 H 0.22662 0.7716 0.41861 0.0
H1058 H 0.20365 0.77973 0.39958 0.0
H1059 H 0.21504 0.78801 0.46634 0.0
C1060 C 0.16354 0.82016 0.32443 0.0
C1061 C 0.15578 0.82191 0.38199 0.0
C1062 C 0.18245 0.81667 0.31733 0.0
C1063 C 0.19404 0.815 0.3676 0.0
C1064 C 0.18623 0.8162 0.42531 0.0
H1065 H 0.30843 0.82984 0.44016 0.0
H1066 H 0.27517 0.82359 0.44044 0.0
C1067 C 0.16718 0.81943 0.43247 0.0
C1068 C 0.21444 0.81409 0.35923 0.0
H1069 H 0.2536 0.79042 0.39995 0.0
C1070 C 0.22292 0.82822 0.32549 0.0
C1071 C 0.22556 0.79997 0.38505 0.0
C1072 C 0.21723 0.78387 0.4189 0.0
C1073 C 0.24223 0.82901 0.31873 0.0
C1074 C 0.25336 0.81526 0.34616 0.0
C1075 C 0.24494 0.80089 0.37881 0.0
C1076 C 0.2738 0.81674 0.34611 0.0
C1077 C 0.25067 0.845 0.28447 0.0
C1078 C 0.28408 0.81453 0.29305 0.0
C1079 C 0.30319 0.81808 0.29267 0.0
C1080 C 0.31217 0.82399 0.34532 0.0
C1081 C 0.30188 0.82547 0.39873 0.0
C1082 C 0.2829 0.82181 0.39913 0.0
H1083 H 0.24024 0.85581 0.27279 0.0
H1084 H 0.2619 0.85158 0.31115 0.0
H1085 H 0.25689 0.8397 0.24224 0.0
H1086 H 0.27724 0.81053 0.25174 0.0
H1087 H 0.31078 0.81678 0.25094 0.0
H1088 H 0.1891 0.06921 0.64692 0.0
H1089 H 0.21607 0.06348 0.71053 0.0
H1090 H 0.18249 0.07214 0.8682 0.0
H1091 H 0.15529 0.07787 0.80471 0.0
H1092 H 0.22898 0.09144 0.78956 0.0
H1093 H 0.21415 0.02558 0.9101 0.0
H1094 H 0.2026 0.03195 0.8411 0.0
H1095 H 0.19567 0.04241 0.91081 0.0
C1096 C 0.18731 0.06953 0.69516 0.0
C1097 C 0.17006 0.07411 0.7208 0.0
C1098 C 0.20276 0.06623 0.7314 0.0
C1099 C 0.20126 0.06728 0.79399 0.0
C1100 C 0.18388 0.07097 0.81996 0.0
H1101 H 0.27322 0.07745 0.09595 0.0
H1102 H 0.24811 0.0714 0.02541 0.0
C1103 C 0.16836 0.07431 0.78363 0.0
C1104 C 0.21824 0.06675 0.83142 0.0
H1105 H 0.23943 0.04368 0.94643 0.0
C1106 C 0.23141 0.08088 0.8234 0.0
C1107 C 0.22125 0.05301 0.87563 0.0
C1108 C 0.20777 0.03726 0.88482 0.0
C1109 C 0.24722 0.08206 0.85989 0.0
C1110 C 0.25021 0.06842 0.90462 0.0
C1111 C 0.23719 0.05405 0.91185 0.0
C1112 C 0.26592 0.06978 0.94746 0.0
C1113 C 0.26008 0.09844 0.85198 0.0
C1114 C 0.28441 0.07024 0.92742 0.0
C1115 C 0.29887 0.0739 0.96773 0.0
C1116 C 0.29505 0.07693 0.02882 0.0
C1117 C 0.27664 0.0753 0.04914 0.0
C1118 C 0.26224 0.07179 0.00887 0.0
H1119 H 0.2535 0.1098 0.82573 0.0
H1120 H 0.26446 0.10413 0.89609 0.0
H1121 H 0.27268 0.09386 0.82745 0.0
H1122 H 0.2876 0.06828 0.88037 0.0
H1123 H 0.31291 0.07491 0.9508 0.0
H1124 H 0.07454 0.77447 0.34899 0.0
H1125 H 0.06843 0.74852 0.28139 0.0
H1126 H 0.06159 0.78678 0.13411 0.0
H1127 H 0.06828 0.81291 0.20134 0.0
H1128 H 0.04063 0.73753 0.20419 0.0
H1129 H 0.1052 0.75508 0.08016 0.0
H1130 H 0.09913 0.76598 0.15033 0.0
H1131 H 0.08822 0.77336 0.08177 0.0
C1132 C 0.07147 0.77743 0.3024 0.0
C1133 C 0.07222 0.79573 0.28025 0.0
C1134 C 0.06792 0.76256 0.26384 0.0
C1135 C 0.06499 0.76569 0.20252 0.0
C1136 C 0.06427 0.78405 0.1811 0.0
H1137 H 0.06807 0.68895 0.90332 0.0
H1138 H 0.06043 0.71524 0.96797 0.0
C1139 C 0.06799 0.79896 0.21959 0.0
C1140 C 0.06441 0.74966 0.16072 0.0
H1141 H 0.08813 0.72947 0.04524 0.0
C1142 C 0.05093 0.7358 0.16915 0.0
C1143 C 0.07803 0.74732 0.11556 0.0
C1144 C 0.09358 0.76111 0.10659 0.0
C1145 C 0.05069 0.71969 0.13336 0.0
C1146 C 0.06433 0.71741 0.08845 0.0
C1147 C 0.07762 0.73136 0.07955 0.0
C1148 C 0.06563 0.7005 0.0508 0.0
C1149 C 0.03588 0.70526 0.14361 0.0
C1150 C 0.07068 0.68335 0.07613 0.0
C1151 C 0.07511 0.66821 0.03917 0.0
C1152 C 0.07469 0.67012 0.97643 0.0
C1153 C 0.06865 0.68705 0.95149 0.0
C1154 C 0.06423 0.70209 0.98833 0.0
H1155 H 0.02407 0.7109 0.17005 0.0
H1156 H 0.03054 0.69985 0.10023 0.0
H1157 H 0.04193 0.6934 0.16879 0.0
H1158 H 0.07214 0.68194 0.12427 0.0
H1159 H 0.07976 0.65537 0.05965 0.0
H1160 H 0.66381 0.86852 0.94539 0.0
H1161 H 0.69154 0.87339 0.88432 0.0
H1162 H 0.70674 0.92013 0.9956 0.0
H1163 H 0.67974 0.91431 0.0595 0.0
H1164 H 0.70563 0.89804 0.81738 0.0
H1165 H 0.75261 0.89103 0.01281 0.0
H1166 H 0.72802 0.88711 0.01848 0.0
H1167 H 0.73718 0.91043 0.02045 0.0
C1168 C 0.67296 0.87998 0.95625 0.0
C1169 C 0.6698 0.89093 0.00735 0.0
C1170 C 0.68885 0.88274 0.92145 0.0
C1171 C 0.70164 0.89676 0.93643 0.0
C1172 C 0.69757 0.90873 0.98457 0.0
H1173 H 0.7923 0.91468 0.67843 0.0
H1174 H 0.76492 0.92006 0.7412 0.0
C1175 C 0.68201 0.90557 0.02055 0.0
C1176 C 0.71947 0.89824 0.90299 0.0
H1177 H 0.76656 0.89914 0.92069 0.0
C1178 C 0.71896 0.89826 0.84002 0.0
C1179 C 0.73693 0.89821 0.9324 0.0
C1180 C 0.73876 0.89649 -0.00032 0.0
C1181 C 0.73529 0.89781 0.80568 0.0
C1182 C 0.75274 0.89845 0.83508 0.0
C1183 C 0.75324 0.89887 0.89804 0.0
C1184 C 0.77061 0.8972 0.8018 0.0
C1185 C 0.73352 0.89566 0.73851 0.0
C1186 C 0.78379 0.88363 0.81781 0.0
C1187 C 0.79986 0.88114 0.78363 0.0
C1188 C 0.80284 0.8919 0.73209 0.0
C1189 C 0.79018 0.90609 0.71773 0.0
C1190 C 0.77441 0.90898 0.75307 0.0
H1191 H 0.71983 0.88979 0.72565 0.0
H1192 H 0.73472 0.90951 0.717 0.0
H1193 H 0.74452 0.88644 0.72023 0.0
H1194 H 0.78131 0.87442 0.8554 0.0
H1195 H 0.80935 0.87002 0.79542 0.0
H1196 H 0.90006 0.19424 0.36058 0.0
H1197 H 0.90611 0.22032 0.29316 0.0
H1198 H 0.89247 0.18597 0.14096 0.0
H1199 H 0.8864 0.15964 0.20813 0.0
H1200 H 0.92917 0.21858 0.15354 0.0
H1201 H 0.85441 0.2369 0.18241 0.0
H1202 H 0.86741 0.22683 0.24353 0.0
H1203 H 0.86172 0.2129 0.17951 0.0
C1204 C 0.89872 0.19208 0.31268 0.0
C1205 C 0.89259 0.17493 0.28964 0.0
C1206 C 0.90226 0.20698 0.27432 0.0
C1207 C 0.8997 0.20498 0.2124 0.0
C1208 C 0.8946 0.18765 0.18877 0.0
H1209 H 0.90123 0.27829 0.90932 0.0
H1210 H 0.90737 0.25318 0.98025 0.0
C1211 C 0.89113 0.17266 0.22716 0.0
C1212 C 0.90012 0.22158 0.17363 0.0
H1213 H 0.87232 0.25633 0.12111 0.0
C1214 C 0.9168 0.22689 0.14626 0.0
C1215 C 0.88396 0.23237 0.16511 0.0
C1216 C 0.86578 0.2271 0.19401 0.0
C1217 C 0.91765 0.2428 0.10978 0.0
C1218 C 0.90137 0.25345 0.10046 0.0
C1219 C 0.88479 0.2482 0.12866 0.0
C1220 C 0.90077 0.2695 0.05901 0.0
C1221 C 0.93592 0.24821 0.08193 0.0
C1222 C 0.89522 0.28708 0.07986 0.0
C1223 C 0.89166 0.30149 0.03936 0.0
C1224 C 0.89335 0.29844 0.97732 0.0
C1225 C 0.89977 0.28107 0.95686 0.0
C1226 C 0.90342 0.26673 0.99735 0.0
H1227 H 0.94783 0.24173 0.10576 0.0
H1228 H 0.93622 0.24342 0.03461 0.0
H1229 H 0.93771 0.26355 0.08218 0.0
H1230 H 0.89297 0.28943 0.12733 0.0
H1231 H 0.88668 0.31469 0.05646 0.0
H1232 H 0.19034 0.39644 0.60118 0.0
H1233 H 0.21703 0.40211 0.53653 0.0
H1234 H 0.18252 0.39508 0.38014 0.0
H1235 H 0.15556 0.38941 0.44476 0.0
H1236 H 0.22923 0.37458 0.45431 0.0
H1237 H 0.21438 0.44173 0.34082 0.0
H1238 H 0.20317 0.43491 0.40988 0.0
H1239 H 0.19584 0.42503 0.33979 0.0
C1240 C 0.18829 0.39644 0.55303 0.0
C1241 C 0.17083 0.39236 0.52806 0.0
C1242 C 0.20359 0.39971 0.51618 0.0
C1243 C 0.20174 0.39912 0.45364 0.0
C1244 C 0.18417 0.39589 0.42837 0.0
H1245 H 0.27476 0.3923 0.15153 0.0
H1246 H 0.24918 0.3974 0.22118 0.0
C1247 C 0.1688 0.39258 0.46532 0.0
C1248 C 0.21854 0.39979 0.41544 0.0
H1249 H 0.23982 0.4241 0.30348 0.0
C1250 C 0.23167 0.3855 0.4217 0.0
C1251 C 0.22156 0.414 0.37283 0.0
C1252 C 0.20809 0.4299 0.3655 0.0
C1253 C 0.24751 0.38468 0.38528 0.0
C1254 C 0.25058 0.39888 0.34245 0.0
C1255 C 0.23754 0.41333 0.33667 0.0
C1256 C 0.26652 0.39812 0.30038 0.0
C1257 C 0.26037 0.36819 0.39135 0.0
C1258 C 0.2849 0.39751 0.32151 0.0
C1259 C 0.29962 0.3944 0.28171 0.0
C1260 C 0.29619 0.3921 0.22007 0.0
C1261 C 0.27789 0.3939 0.19878 0.0
C1262 C 0.26322 0.39687 0.23854 0.0
H1263 H 0.2537 0.35648 0.4156 0.0
H1264 H 0.26495 0.36312 0.34666 0.0
H1265 H 0.27286 0.37239 0.41713 0.0
H1266 H 0.2878 0.39889 0.36897 0.0
H1267 H 0.31357 0.39323 0.29941 0.0
H1268 H 0.39329 0.77722 0.40488 0.0
H1269 H 0.39867 0.75162 0.47435 0.0
H1270 H 0.39972 0.79026 0.6224 0.0
H1271 H 0.39376 0.81604 0.55307 0.0
H1272 H 0.42521 0.74231 0.55685 0.0
H1273 H 0.35754 0.7559 0.66827 0.0
H1274 H 0.36422 0.76724 0.59952 0.0
H1275 H 0.37331 0.77518 0.67019 0.0
C1276 C 0.39488 0.78035 0.45214 0.0
C1277 C 0.39282 0.79865 0.4736 0.0
C1278 C 0.398 0.76567 0.49179 0.0
C1279 C 0.39919 0.76897 0.55366 0.0
C1280 C 0.39839 0.78736 0.57492 0.0
H1281 H 0.39798 0.6928 0.85451 0.0
H1282 H 0.40372 0.71946 0.78956 0.0
C1283 C 0.39511 0.80209 0.53524 0.0
C1284 C 0.39996 0.75299 0.59566 0.0
H1285 H 0.3757 0.73152 0.70734 0.0
C1286 C 0.41444 0.73998 0.58996 0.0
C1287 C 0.38576 0.74986 0.63834 0.0
C1288 C 0.36922 0.76266 0.64425 0.0
C1289 C 0.41513 0.72397 0.6261 0.0
C1290 C 0.40094 0.72092 0.66864 0.0
C1291 C 0.38661 0.734 0.6748 0.0
C1292 C 0.40031 0.70411 0.70687 0.0
C1293 C 0.43102 0.7105 0.61887 0.0
C1294 C 0.39682 0.68653 0.68176 0.0
C1295 C 0.39346 0.67119 0.71887 0.0
C1296 C 0.39345 0.67327 0.7816 0.0
C1297 C 0.39781 0.69073 0.80638 0.0
C1298 C 0.40112 0.70599 0.76937 0.0
H1299 H 0.44275 0.71672 0.59355 0.0
H1300 H 0.43615 0.70579 0.66333 0.0
H1301 H 0.42613 0.69808 0.59392 0.0
H1302 H 0.39585 0.68487 0.63356 0.0
H1303 H 0.39007 0.65795 0.69847 0.0
H1304 H 0.65917 0.58101 0.30298 0.0
H1305 H 0.6864 0.57509 0.36647 0.0
H1306 H 0.71883 0.56219 0.20939 0.0
H1307 H 0.69187 0.56803 0.14577 0.0
H1308 H 0.71491 0.54178 0.36976 0.0
H1309 H 0.74149 0.61069 0.29509 0.0
H1310 H 0.71723 0.6046 0.29067 0.0
H1311 H 0.73341 0.59498 0.2379 0.0
C1312 C 0.67198 0.57649 0.28213 0.0
C1313 C 0.67343 0.5752 0.21935 0.0
C1314 C 0.68749 0.57311 0.31841 0.0
C1315 C 0.70459 0.56839 0.29235 0.0
C1316 C 0.70575 0.56592 0.23015 0.0
H1317 H 0.81645 0.57837 0.43587 0.0
H1318 H 0.79037 0.57124 0.36918 0.0
C1319 C 0.69032 0.5693 0.19394 0.0
C1320 C 0.72167 0.56801 0.32901 0.0
H1321 H 0.76053 0.5933 0.35946 0.0
C1322 C 0.72495 0.55298 0.3676 0.0
C1323 C 0.73471 0.58262 0.32555 0.0
C1324 C 0.7316 0.59924 0.28542 0.0
C1325 C 0.74109 0.55217 0.40299 0.0
C1326 C 0.75399 0.567 0.40041 0.0
C1327 C 0.75073 0.58188 0.36111 0.0
C1328 C 0.77032 0.56818 0.4408 0.0
C1329 C 0.74425 0.53538 0.4422 0.0
C1330 C 0.76779 0.5685 0.50317 0.0
C1331 C 0.78265 0.57244 0.54125 0.0
C1332 C 0.80031 0.57642 0.5177 0.0
C1333 C 0.80303 0.57536 0.45537 0.0
C1334 C 0.78813 0.57131 0.41725 0.0
H1335 H 0.7369 0.52298 0.42435 0.0
H1336 H 0.75925 0.53206 0.44625 0.0
H1337 H 0.7387 0.53825 0.48772 0.0
H1338 H 0.75413 0.56661 0.52241 0.0
H1339 H 0.78006 0.57321 0.58905 0.0
H1340 H 0.57747 0.19633 0.39775 0.0
H1341 H 0.57212 0.22116 0.47016 0.0
H1342 H 0.56985 0.18084 0.6131 0.0
H1343 H 0.57577 0.1558 0.54075 0.0
H1344 H 0.54502 0.22958 0.55156 0.0
H1345 H 0.61183 0.21445 0.66659 0.0
H1346 H 0.60562 0.2039 0.59601 0.0
H1347 H 0.59588 0.19532 0.66488 0.0
C1348 C 0.57567 0.19267 0.44451 0.0
C1349 C 0.57731 0.1741 0.46366 0.0
C1350 C 0.57255 0.20691 0.48584 0.0
C1351 C 0.57097 0.20291 0.54715 0.0
C1352 C 0.57148 0.18427 0.5661 0.0
H1353 H 0.57188 0.27756 0.85334 0.0
H1354 H 0.56598 0.2511 0.78747 0.0
C1355 C 0.57474 0.16997 0.52472 0.0
C1356 C 0.56997 0.21842 0.59096 0.0
H1357 H 0.59374 0.23884 0.70588 0.0
C1358 C 0.55561 0.23156 0.58556 0.0
C1359 C 0.58391 0.22107 0.63489 0.0
C1360 C 0.60028 0.20806 0.64079 0.0
C1361 C 0.55483 0.2473 0.62293 0.0
C1362 C 0.56883 0.24995 0.66644 0.0
C1363 C 0.58298 0.23667 0.67255 0.0
C1364 C 0.56956 0.26664 0.70531 0.0
C1365 C 0.53908 0.26094 0.61578 0.0
C1366 C 0.57318 0.28425 0.6808 0.0
C1367 C 0.57663 0.29947 0.71842 0.0
C1368 C 0.57659 0.29724 0.78108 0.0
C1369 C 0.57209 0.27975 0.80527 0.0
C1370 C 0.56869 0.2646 0.76775 0.0
H1371 H 0.52732 0.25485 0.59028 0.0
H1372 H 0.53397 0.26568 0.66024 0.0
H1373 H 0.54411 0.27332 0.59097 0.0
H1374 H 0.57421 0.28603 0.63267 0.0
H1375 H 0.58012 0.31273 0.69846 0.0
loop_
_geom_bond_atom_site_label_1
_geom_bond_atom_site_label_2
_geom_bond_distance
_geom_bond_site_symmetry_2
_ccdc_geom_bond_type
C0 O1 1.306 . S
C0 O3 1.160 . S
O1 C0 1.306 . S
O1 Cd2 2.228 . S
Cd2 O1 2.228 . S
Cd2 O6 2.273 . S
Cd2 O10 2.277 . S
O3 C0 1.160 . S
O3 Cd4 2.203 . S
Cd4 O3 2.203 . S
Cd4 O6 2.411 . S
Cd4 O7 2.333 . S
Cd4 O8 2.352 . S
Cd4 O12 2.277 . S
Cd4 O13 2.356 . S
C5 O10 1.209 . S
C5 O12 1.226 . S
O6 Cd2 2.273 . S
O6 Cd4 2.411 . S
O6 C9 1.320 . S
O7 Cd4 2.333 . S
O7 C9 1.214 . S
O8 Cd4 2.352 . S
O8 C11 1.258 . S
C9 O6 1.320 . S
C9 O7 1.214 . S
O10 Cd2 2.277 . S
O10 C5 1.209 . S
C11 O8 1.258 . S
C11 O13 1.282 . S
O12 Cd4 2.277 . S
O12 C5 1.226 . S
O13 Cd4 2.356 . S
O13 C11 1.282 . S
C14 O15 1.306 . S
C14 O17 1.160 . S
O15 C14 1.306 . S
O15 Cd16 2.228 . S
Cd16 O15 2.228 . S
Cd16 O20 2.273 . S
Cd16 O24 2.277 . S
O17 C14 1.160 . S
O17 Cd18 2.203 . S
Cd18 O17 2.203 . S
Cd18 O20 2.411 . S
Cd18 O21 2.333 . S
Cd18 O22 2.352 . S
Cd18 O26 2.277 . S
Cd18 O27 2.356 . S
C19 O24 1.209 . S
C19 O26 1.226 . S
O20 Cd16 2.273 . S
O20 Cd18 2.411 . S
O20 C23 1.320 . S
O21 Cd18 2.333 . S
O21 C23 1.214 . S
O22 Cd18 2.352 . S
O22 C25 1.258 . S
C23 O20 1.320 . S
C23 O21 1.214 . S
O24 Cd16 2.277 . S
O24 C19 1.209 . S
C25 O22 1.258 . S
C25 O27 1.282 . S
O26 Cd18 2.277 . S
O26 C19 1.226 . S
O27 Cd18 2.356 . S
O27 C25 1.282 . S
C28 O29 1.306 . S
C28 O31 1.160 . S
O29 C28 1.306 . S
O29 Cd30 2.228 . S
Cd30 O29 2.228 . S
Cd30 O34 2.273 . S
Cd30 O38 2.277 . S
O31 C28 1.160 . S
O31 Cd32 2.203 . S
Cd32 O31 2.203 . S
Cd32 O34 2.411 . S
Cd32 O35 2.333 . S
Cd32 O36 2.352 . S
Cd32 O40 2.277 . S
Cd32 O41 2.356 . S
C33 O38 1.209 . S
C33 O40 1.226 . S
O34 Cd30 2.273 . S
O34 Cd32 2.411 . S
O34 C37 1.320 . S
O35 Cd32 2.333 . S
O35 C37 1.214 . S
O36 Cd32 2.352 . S
O36 C39 1.258 . S
C37 O34 1.320 . S
C37 O35 1.214 . S
O38 Cd30 2.277 . S
O38 C33 1.209 . S
C39 O36 1.258 . S
C39 O41 1.282 . S
O40 Cd32 2.277 . S
O40 C33 1.226 . S
O41 Cd32 2.356 . S
O41 C39 1.282 . S
C42 O43 1.306 . S
C42 O45 1.160 . S
O43 C42 1.306 . S
O43 Cd44 2.228 . S
Cd44 O43 2.228 . S
Cd44 O48 2.273 . S
Cd44 O52 2.277 . S
O45 C42 1.160 . S
O45 Cd46 2.203 . S
Cd46 O45 2.203 . S
Cd46 O48 2.411 . S
Cd46 O49 2.333 . S
Cd46 O50 2.352 . S
Cd46 O54 2.277 . S
Cd46 O55 2.356 . S
C47 O52 1.209 . S
C47 O54 1.226 . S
O48 Cd44 2.273 . S
O48 Cd46 2.411 . S
O48 C51 1.320 . S
O49 Cd46 2.333 . S
O49 C51 1.214 . S
O50 Cd46 2.352 . S
O50 C53 1.258 . S
C51 O48 1.320 . S
C51 O49 1.214 . S
O52 Cd44 2.277 . S
O52 C47 1.209 . S
C53 O50 1.258 . S
C53 O55 1.282 . S
O54 Cd46 2.277 . S
O54 C47 1.226 . S
O55 Cd46 2.356 . S
O55 C53 1.282 . S
C56 O57 1.306 1_554 S
C56 O59 1.160 . S
O57 C56 1.306 1_556 S
O57 Cd58 2.228 . S
Cd58 O57 2.228 . S
Cd58 O62 2.273 1_556 S
Cd58 O66 2.277 1_556 S
O59 C56 1.160 . S
O59 Cd60 2.203 . S
Cd60 O59 2.203 . S
Cd60 O62 2.411 . S
Cd60 O63 2.333 . S
Cd60 O64 2.352 . S
Cd60 O68 2.277 . S
Cd60 O69 2.356 . S
C61 O66 1.209 . S
C61 O68 1.226 . S
O62 Cd58 2.273 1_554 S
O62 Cd60 2.411 . S
O62 C65 1.320 . S
O63 Cd60 2.333 . S
O63 C65 1.214 . S
O64 Cd60 2.352 . S
O64 C67 1.258 . S
C65 O62 1.320 . S
C65 O63 1.214 . S
O66 Cd58 2.277 1_554 S
O66 C61 1.209 . S
C67 O64 1.258 . S
C67 O69 1.282 . S
O68 Cd60 2.277 . S
O68 C61 1.226 . S
O69 Cd60 2.356 . S
O69 C67 1.282 . S
C70 O71 1.306 1_556 S
C70 O73 1.160 . S
O71 C70 1.306 1_554 S
O71 Cd72 2.228 . S
Cd72 O71 2.228 . S
Cd72 O76 2.273 1_554 S
Cd72 O80 2.277 1_554 S
O73 C70 1.160 . S
O73 Cd74 2.203 . S
Cd74 O73 2.203 . S
Cd74 O76 2.411 . S
Cd74 O77 2.333 . S
Cd74 O78 2.352 . S
Cd74 O82 2.277 . S
Cd74 O83 2.356 . S
C75 O80 1.209 . S
C75 O82 1.226 . S
O76 Cd72 2.273 1_556 S
O76 Cd74 2.411 . S
O76 C79 1.320 . S
O77 Cd74 2.333 . S
O77 C79 1.214 . S
O78 Cd74 2.352 . S
O78 C81 1.258 . S
C79 O76 1.320 . S
C79 O77 1.214 . S
O80 Cd72 2.277 1_556 S
O80 C75 1.209 . S
C81 O78 1.258 . S
C81 O83 1.282 . S
O82 Cd74 2.277 . S
O82 C75 1.226 . S
O83 Cd74 2.356 . S
O83 C81 1.282 . S
C84 O85 1.306 1_554 S
C84 O87 1.160 . S
O85 C84 1.306 1_556 S
O85 Cd86 2.228 . S
Cd86 O85 2.228 . S
Cd86 O90 2.273 1_556 S
Cd86 O94 2.277 1_556 S
O87 C84 1.160 . S
O87 Cd88 2.203 . S
Cd88 O87 2.203 . S
Cd88 O90 2.411 . S
Cd88 O91 2.333 . S
Cd88 O92 2.352 . S
Cd88 O96 2.277 . S
Cd88 O97 2.356 . S
C89 O94 1.209 . S
C89 O96 1.226 . S
O90 Cd86 2.273 1_554 S
O90 Cd88 2.411 . S
O90 C93 1.320 . S
O91 Cd88 2.333 . S
O91 C93 1.214 . S
O92 Cd88 2.352 . S
O92 C95 1.258 . S
C93 O90 1.320 . S
C93 O91 1.214 . S
O94 Cd86 2.277 1_554 S
O94 C89 1.209 . S
C95 O92 1.258 . S
C95 O97 1.282 . S
O96 Cd88 2.277 . S
O96 C89 1.226 . S
O97 Cd88 2.356 . S
O97 C95 1.282 . S
C98 O99 1.306 1_556 S
C98 O101 1.160 . S
O99 C98 1.306 1_554 S
O99 Cd100 2.228 . S
Cd100 O99 2.228 . S
Cd100 O104 2.273 1_554 S
Cd100 O108 2.277 1_554 S
O101 C98 1.160 . S
O101 Cd102 2.203 . S
Cd102 O101 2.203 . S
Cd102 O104 2.411 . S
Cd102 O105 2.333 . S
Cd102 O106 2.352 . S
Cd102 O110 2.277 . S
Cd102 O111 2.356 . S
C103 O108 1.209 . S
C103 O110 1.226 . S
O104 Cd100 2.273 1_556 S
O104 Cd102 2.411 . S
O104 C107 1.320 . S
O105 Cd102 2.333 . S
O105 C107 1.214 . S
O106 Cd102 2.352 . S
O106 C109 1.258 . S
C107 O104 1.320 . S
C107 O105 1.214 . S
O108 Cd100 2.277 1_556 S
O108 C103 1.209 . S
C109 O106 1.258 . S
C109 O111 1.282 . S
O110 Cd102 2.277 . S
O110 C103 1.226 . S
O111 Cd102 2.356 . S
O111 C109 1.282 . S
C112 O113 1.306 . S
C112 O115 1.160 . S
O113 C112 1.306 . S
O113 Cd114 2.228 . S
Cd114 O113 2.228 . S
Cd114 O118 2.273 . S
Cd114 O122 2.277 . S
O115 C112 1.160 . S
O115 Cd116 2.203 . S
Cd116 O115 2.203 . S
Cd116 O118 2.411 . S
Cd116 O119 2.333 . S
Cd116 O120 2.352 . S
Cd116 O124 2.277 . S
Cd116 O125 2.356 . S
C117 O122 1.209 . S
C117 O124 1.226 . S
O118 Cd114 2.273 . S
O118 Cd116 2.411 . S
O118 C121 1.320 . S
O119 Cd116 2.333 . S
O119 C121 1.214 . S
O120 Cd116 2.352 . S
O120 C123 1.258 . S
C121 O118 1.320 . S
C121 O119 1.214 . S
O122 Cd114 2.277 . S
O122 C117 1.209 . S
C123 O120 1.258 . S
C123 O125 1.282 . S
O124 Cd116 2.277 . S
O124 C117 1.226 . S
O125 Cd116 2.356 . S
O125 C123 1.282 . S
C126 O127 1.306 . S
C126 O129 1.160 . S
O127 C126 1.306 . S
O127 Cd128 2.228 . S
Cd128 O127 2.228 . S
Cd128 O132 2.273 . S
Cd128 O136 2.277 . S
O129 C126 1.160 . S
O129 Cd130 2.203 . S
Cd130 O129 2.203 . S
Cd130 O132 2.411 . S
Cd130 O133 2.333 . S
Cd130 O134 2.352 . S
Cd130 O138 2.277 . S
Cd130 O139 2.356 . S
C131 O136 1.209 . S
C131 O138 1.226 . S
O132 Cd128 2.273 . S
O132 Cd130 2.411 . S
O132 C135 1.320 . S
O133 Cd130 2.333 . S
O133 C135 1.214 . S
O134 Cd130 2.352 . S
O134 C137 1.258 . S
C135 O132 1.320 . S
C135 O133 1.214 . S
O136 Cd128 2.277 . S
O136 C131 1.209 . S
C137 O134 1.258 . S
C137 O139 1.282 . S
O138 Cd130 2.277 . S
O138 C131 1.226 . S
O139 Cd130 2.356 . S
O139 C137 1.282 . S
C140 O141 1.306 . S
C140 O143 1.160 . S
O141 C140 1.306 . S
O141 Cd142 2.228 . S
Cd142 O141 2.228 . S
Cd142 O146 2.273 . S
Cd142 O150 2.277 . S
O143 C140 1.160 . S
O143 Cd144 2.203 . S
Cd144 O143 2.203 . S
Cd144 O146 2.411 . S
Cd144 O147 2.333 . S
Cd144 O148 2.352 . S
Cd144 O152 2.277 . S
Cd144 O153 2.356 . S
C145 O150 1.209 . S
C145 O152 1.226 . S
O146 Cd142 2.273 . S
O146 Cd144 2.411 . S
O146 C149 1.320 . S
O147 Cd144 2.333 . S
O147 C149 1.214 . S
O148 Cd144 2.352 . S
O148 C151 1.258 . S
C149 O146 1.320 . S
C149 O147 1.214 . S
O150 Cd142 2.277 . S
O150 C145 1.209 . S
C151 O148 1.258 . S
C151 O153 1.282 . S
O152 Cd144 2.277 . S
O152 C145 1.226 . S
O153 Cd144 2.356 . S
O153 C151 1.282 . S
C154 O155 1.306 . S
C154 O157 1.160 . S
O155 C154 1.306 . S
O155 Cd156 2.228 . S
Cd156 O155 2.228 . S
Cd156 O160 2.273 . S
Cd156 O164 2.277 . S
O157 C154 1.160 . S
O157 Cd158 2.203 . S
Cd158 O157 2.203 . S
Cd158 O160 2.411 . S
Cd158 O161 2.333 . S
Cd158 O162 2.352 . S
Cd158 O166 2.277 . S
Cd158 O167 2.356 . S
C159 O164 1.209 . S
C159 O166 1.226 . S
O160 Cd156 2.273 . S
O160 Cd158 2.411 . S
O160 C163 1.320 . S
O161 Cd158 2.333 . S
O161 C163 1.214 . S
O162 Cd158 2.352 . S
O162 C165 1.258 . S
C163 O160 1.320 . S
C163 O161 1.214 . S
O164 Cd156 2.277 . S
O164 C159 1.209 . S
C165 O162 1.258 . S
C165 O167 1.282 . S
O166 Cd158 2.277 . S
O166 C159 1.226 . S
O167 Cd158 2.356 . S
O167 C165 1.282 . S
C168 O169 1.306 . S
C168 O171 1.160 . S
O169 C168 1.306 . S
O169 Cd170 2.228 . S
Cd170 O169 2.228 . S
Cd170 O174 2.273 . S
Cd170 O178 2.277 . S
O171 C168 1.160 . S
O171 Cd172 2.203 . S
Cd172 O171 2.203 . S
Cd172 O174 2.411 . S
Cd172 O175 2.333 . S
Cd172 O176 2.352 . S
Cd172 O180 2.277 . S
Cd172 O181 2.356 . S
C173 O178 1.209 . S
C173 O180 1.226 . S
O174 Cd170 2.273 . S
O174 Cd172 2.411 . S
O174 C177 1.320 . S
O175 Cd172 2.333 . S
O175 C177 1.214 . S
O176 Cd172 2.352 . S
O176 C179 1.258 . S
C177 O174 1.320 . S
C177 O175 1.214 . S
O178 Cd170 2.277 . S
O178 C173 1.209 . S
C179 O176 1.258 . S
C179 O181 1.282 . S
O180 Cd172 2.277 . S
O180 C173 1.226 . S
O181 Cd172 2.356 . S
O181 C179 1.282 . S
C182 O183 1.306 . S
C182 O185 1.160 . S
O183 C182 1.306 . S
O183 Cd184 2.228 . S
Cd184 O183 2.228 . S
Cd184 O188 2.273 . S
Cd184 O192 2.277 . S
O185 C182 1.160 . S
O185 Cd186 2.203 . S
Cd186 O185 2.203 . S
Cd186 O188 2.411 . S
Cd186 O189 2.333 . S
Cd186 O190 2.352 . S
Cd186 O194 2.277 . S
Cd186 O195 2.356 . S
C187 O192 1.209 . S
C187 O194 1.226 . S
O188 Cd184 2.273 . S
O188 Cd186 2.411 . S
O188 C191 1.320 . S
O189 Cd186 2.333 . S
O189 C191 1.214 . S
O190 Cd186 2.352 . S
O190 C193 1.258 . S
C191 O188 1.320 . S
C191 O189 1.214 . S
O192 Cd184 2.277 . S
O192 C187 1.209 . S
C193 O190 1.258 . S
C193 O195 1.282 . S
O194 Cd186 2.277 . S
O194 C187 1.226 . S
O195 Cd186 2.356 . S
O195 C193 1.282 . S
C196 O197 1.306 . S
C196 O199 1.160 . S
O197 C196 1.306 . S
O197 Cd198 2.228 . S
Cd198 O197 2.228 . S
Cd198 O202 2.273 . S
Cd198 O206 2.277 . S
O199 C196 1.160 . S
O199 Cd200 2.203 . S
Cd200 O199 2.203 . S
Cd200 O202 2.411 . S
Cd200 O203 2.333 . S
Cd200 O204 2.352 . S
Cd200 O208 2.277 . S
Cd200 O209 2.356 . S
C201 O206 1.209 . S
C201 O208 1.226 . S
O202 Cd198 2.273 . S
O202 Cd200 2.411 . S
O202 C205 1.320 . S
O203 Cd200 2.333 . S
O203 C205 1.214 . S
O204 Cd200 2.352 . S
O204 C207 1.258 . S
C205 O202 1.320 . S
C205 O203 1.214 . S
O206 Cd198 2.277 . S
O206 C201 1.209 . S
C207 O204 1.258 . S
C207 O209 1.282 . S
O208 Cd200 2.277 . S
O208 C201 1.226 . S
O209 Cd200 2.356 . S
O209 C207 1.282 . S
C210 O211 1.306 . S
C210 O213 1.160 . S
O211 C210 1.306 . S
O211 Cd212 2.228 . S
Cd212 O211 2.228 . S
Cd212 O216 2.273 . S
Cd212 O220 2.277 . S
O213 C210 1.160 . S
O213 Cd214 2.203 . S
Cd214 O213 2.203 . S
Cd214 O216 2.411 . S
Cd214 O217 2.333 . S
Cd214 O218 2.352 . S
Cd214 O222 2.277 . S
Cd214 O223 2.356 . S
C215 O220 1.209 . S
C215 O222 1.226 . S
O216 Cd212 2.273 . S
O216 Cd214 2.411 . S
O216 C219 1.320 . S
O217 Cd214 2.333 . S
O217 C219 1.214 . S
O218 Cd214 2.352 . S
O218 C221 1.258 . S
C219 O216 1.320 . S
C219 O217 1.214 . S
O220 Cd212 2.277 . S
O220 C215 1.209 . S
C221 O218 1.258 . S
C221 O223 1.282 . S
O222 Cd214 2.277 . S
O222 C215 1.226 . S
O223 Cd214 2.356 . S
O223 C221 1.282 . S
H224 C232 0.929 . S
H225 C234 0.930 . S
H226 C236 0.930 . S
H227 C239 0.929 . S
H228 C242 0.930 . S
H229 C244 0.960 . S
H230 C244 0.960 . S
H231 C244 0.960 . S
C232 H224 0.929 . S
C232 C233 1.377 . S
C232 C234 1.384 . S
C233 C232 1.377 . S
C233 C239 1.390 . S
C234 H225 0.930 . S
C234 C232 1.384 . S
C234 C235 1.372 . S
C235 C234 1.372 . S
C235 C236 1.400 . S
C235 C240 1.490 . S
C236 H226 0.930 . S
C236 C235 1.400 . S
C236 C239 1.386 . S
H237 C253 0.930 . S
H238 C254 0.931 . S
C239 H227 0.929 . S
C239 C233 1.390 . S
C239 C236 1.386 . S
C240 C235 1.490 . S
C240 C242 1.395 . S
C240 C243 1.403 . S
H241 C247 0.930 . S
C242 H228 0.930 . S
C242 C240 1.395 . S
C242 C245 1.403 1_565 S
C243 C240 1.403 . S
C243 C244 1.524 . S
C243 C247 1.400 1_565 S
C244 H229 0.960 . S
C244 H230 0.960 . S
C244 H231 0.960 . S
C244 C243 1.524 . S
C245 C242 1.403 1_545 S
C245 C246 1.392 . S
C245 C249 1.495 . S
C246 C245 1.392 . S
C246 C247 1.385 . S
C246 C248 1.478 . S
C247 H241 0.930 . S
C247 C243 1.400 1_545 S
C247 C246 1.385 . S
C248 C246 1.478 . S
C248 C250 1.381 . S
C248 C254 1.383 . S
C249 C245 1.495 . S
C249 H255 0.959 . S
C249 H256 0.961 . S
C249 H257 0.960 . S
C250 C248 1.381 . S
C250 C251 1.394 . S
C250 H258 0.930 . S
C251 C250 1.394 . S
C251 C252 1.383 . S
C251 H259 0.929 . S
C252 C251 1.383 . S
C252 C253 1.377 . S
C253 H237 0.930 . S
C253 C252 1.377 . S
C253 C254 1.379 . S
C254 H238 0.931 . S
C254 C248 1.383 . S
C254 C253 1.379 . S
H255 C249 0.959 . S
H256 C249 0.961 . S
H257 C249 0.960 . S
H258 C250 0.930 . S
H259 C251 0.929 . S
H260 C268 0.929 . S
H261 C270 0.930 . S
H262 C272 0.930 . S
H263 C275 0.929 . S
H264 C278 0.930 . S
H265 C280 0.960 . S
H266 C280 0.960 . S
H267 C280 0.960 . S
C268 H260 0.929 . S
C268 C269 1.377 . S
C268 C270 1.384 . S
C269 C268 1.377 . S
C269 C275 1.390 . S
C270 H261 0.930 . S
C270 C268 1.384 . S
C270 C271 1.372 . S
C271 C270 1.372 . S
C271 C272 1.400 . S
C271 C276 1.490 . S
C272 H262 0.930 . S
C272 C271 1.400 . S
C272 C275 1.386 . S
H273 C289 0.930 . S
H274 C290 0.931 . S
C275 H263 0.929 . S
C275 C269 1.390 . S
C275 C272 1.386 . S
C276 C271 1.490 . S
C276 C278 1.395 . S
C276 C279 1.403 . S
H277 C283 0.930 . S
C278 H264 0.930 . S
C278 C276 1.395 . S
C278 C281 1.403 1_455 S
C279 C276 1.403 . S
C279 C280 1.524 . S
C279 C283 1.400 1_455 S
C280 H265 0.960 . S
C280 H266 0.960 . S
C280 H267 0.960 . S
C280 C279 1.524 . S
C281 C278 1.403 1_655 S
C281 C282 1.392 . S
C281 C285 1.495 . S
C282 C281 1.392 . S
C282 C283 1.385 . S
C282 C284 1.478 . S
C283 H277 0.930 . S
C283 C279 1.400 1_655 S
C283 C282 1.385 . S
C284 C282 1.478 . S
C284 C286 1.381 . S
C284 C290 1.383 . S
C285 C281 1.495 . S
C285 H291 0.959 . S
C285 H292 0.961 . S
C285 H293 0.960 . S
C286 C284 1.381 . S
C286 C287 1.394 . S
C286 H294 0.930 . S
C287 C286 1.394 . S
C287 C288 1.383 . S
C287 H295 0.929 . S
C288 C287 1.383 . S
C288 C289 1.377 . S
C289 H273 0.930 . S
C289 C288 1.377 . S
C289 C290 1.379 . S
C290 H274 0.931 . S
C290 C284 1.383 . S
C290 C289 1.379 . S
H291 C285 0.959 . S
H292 C285 0.961 . S
H293 C285 0.960 . S
H294 C286 0.930 . S
H295 C287 0.929 . S
H296 C304 0.929 . S
H297 C306 0.930 . S
H298 C308 0.930 . S
H299 C311 0.929 . S
H300 C314 0.930 . S
H301 C316 0.960 1_545 S
H302 C316 0.960 . S
H303 C316 0.960 . S
C304 H296 0.929 . S
C304 C305 1.377 . S
C304 C306 1.384 . S
C305 C304 1.377 . S
C305 C311 1.390 . S
C306 H297 0.930 . S
C306 C304 1.384 . S
C306 C307 1.372 . S
C307 C306 1.372 . S
C307 C308 1.400 . S
C307 C312 1.490 . S
C308 H298 0.930 . S
C308 C307 1.400 . S
C308 C311 1.386 . S
H309 C325 0.930 . S
H310 C326 0.931 . S
C311 H299 0.929 . S
C311 C305 1.390 . S
C311 C308 1.386 . S
C312 C307 1.490 . S
C312 C314 1.395 . S
C312 C315 1.416 . S
H313 C319 0.930 . S
C314 H300 0.930 . S
C314 C312 1.395 . S
C314 C317 1.403 1_565 S
C315 C312 1.416 . S
C315 C316 1.526 . S
C315 C319 1.383 1_565 S
C316 H301 0.960 1_565 S
C316 H302 0.960 . S
C316 H303 0.960 . S
C316 C315 1.526 . S
C317 C314 1.403 1_545 S
C317 C318 1.392 . S
C317 C321 1.495 . S
C318 C317 1.392 . S
C318 C319 1.385 . S
C318 C320 1.478 . S
C319 H313 0.930 . S
C319 C315 1.383 1_545 S
C319 C318 1.385 . S
C320 C318 1.478 . S
C320 C322 1.381 . S
C320 C326 1.383 . S
C321 C317 1.495 . S
C321 H327 0.959 1_545 S
C321 H328 0.961 . S
C321 H329 0.960 . S
C322 C320 1.381 . S
C322 C323 1.394 . S
C322 H330 0.930 . S
C323 C322 1.394 . S
C323 C324 1.383 . S
C323 H331 0.929 . S
C324 C323 1.383 . S
C324 C325 1.377 . S
C325 H309 0.930 . S
C325 C324 1.377 . S
C325 C326 1.379 . S
C326 H310 0.931 . S
C326 C320 1.383 . S
C326 C325 1.379 . S
H327 C321 0.959 1_565 S
H328 C321 0.961 . S
H329 C321 0.960 . S
H330 C322 0.930 . S
H331 C323 0.929 . S
H332 C340 0.929 . S
H333 C342 0.930 . S
H334 C344 0.930 . S
H335 C347 0.929 . S
H336 C350 0.930 . S
H337 C352 0.960 . S
H338 C352 0.960 . S
H339 C352 0.960 . S
C340 H332 0.929 . S
C340 C341 1.377 . S
C340 C342 1.384 . S
C341 C340 1.377 . S
C341 C347 1.390 . S
C342 H333 0.930 . S
C342 C340 1.384 . S
C342 C343 1.372 . S
C343 C342 1.372 . S
C343 C344 1.400 . S
C343 C348 1.490 . S
C344 H334 0.930 . S
C344 C343 1.400 . S
C344 C347 1.386 . S
H345 C361 0.930 . S
H346 C362 0.931 . S
C347 H335 0.929 . S
C347 C341 1.390 . S
C347 C344 1.386 . S
C348 C343 1.490 . S
C348 C350 1.395 . S
C348 C351 1.403 . S
H349 C355 0.930 . S
C350 H336 0.930 . S
C350 C348 1.395 . S
C350 C353 1.403 1_455 S
C351 C348 1.403 . S
C351 C352 1.524 . S
C351 C355 1.400 1_455 S
C352 H337 0.960 . S
C352 H338 0.960 . S
C352 H339 0.960 . S
C352 C351 1.524 . S
C353 C350 1.403 1_655 S
C353 C354 1.392 . S
C353 C357 1.495 . S
C354 C353 1.392 . S
C354 C355 1.385 . S
C354 C356 1.478 . S
C355 H349 0.930 . S
C355 C351 1.400 1_655 S
C355 C354 1.385 . S
C356 C354 1.478 . S
C356 C358 1.381 . S
C356 C362 1.383 . S
C357 C353 1.495 . S
C357 H363 0.959 . S
C357 H364 0.961 . S
C357 H365 0.960 . S
C358 C356 1.381 . S
C358 C359 1.394 . S
C358 H366 0.930 . S
C359 C358 1.394 . S
C359 C360 1.383 . S
C359 H367 0.929 . S
C360 C359 1.383 . S
C360 C361 1.377 . S
C361 H345 0.930 . S
C361 C360 1.377 . S
C361 C362 1.379 . S
C362 H346 0.931 . S
C362 C356 1.383 . S
C362 C361 1.379 . S
H363 C357 0.959 . S
H364 C357 0.961 . S
H365 C357 0.960 . S
H366 C358 0.930 . S
H367 C359 0.929 . S
H368 C376 0.929 . S
H369 C378 0.930 . S
H370 C380 0.930 . S
H371 C383 0.929 . S
H372 C386 0.930 . S
H373 C388 0.960 . S
H374 C388 0.960 . S
H375 C388 0.960 . S
C376 H368 0.929 . S
C376 C377 1.377 . S
C376 C378 1.384 . S
C377 C376 1.377 . S
C377 C383 1.390 1_554 S
C378 H369 0.930 . S
C378 C376 1.384 . S
C378 C379 1.372 1_554 S
C379 C378 1.372 1_556 S
C379 C380 1.400 . S
C379 C384 1.490 . S
C380 H370 0.930 . S
C380 C379 1.400 . S
C380 C383 1.386 . S
H381 C397 0.930 . S
H382 C398 0.931 . S
C383 H371 0.929 . S
C383 C377 1.390 1_556 S
C383 C380 1.386 . S
C384 C379 1.490 . S
C384 C386 1.395 1_556 S
C384 C387 1.403 . S
H385 C391 0.930 . S
C386 H372 0.930 . S
C386 C384 1.395 1_554 S
C386 C389 1.403 . S
C387 C384 1.403 . S
C387 C388 1.524 . S
C387 C391 1.400 . S
C388 H373 0.960 . S
C388 H374 0.960 . S
C388 H375 0.960 . S
C388 C387 1.524 . S
C389 C386 1.403 . S
C389 C390 1.392 1_554 S
C389 C393 1.495 . S
C390 C389 1.392 1_556 S
C390 C391 1.385 . S
C390 C392 1.478 . S
C391 H385 0.930 . S
C391 C387 1.400 . S
C391 C390 1.385 . S
C392 C390 1.478 . S
C392 C394 1.381 . S
C392 C398 1.383 . S
C393 C389 1.495 . S
C393 H399 0.959 . S
C393 H400 0.961 . S
C393 H401 0.960 . S
C394 C392 1.381 . S
C394 C395 1.394 . S
C394 H402 0.930 1_556 S
C395 C394 1.394 . S
C395 C396 1.383 . S
C395 H403 0.929 . S
C396 C395 1.383 . S
C396 C397 1.377 . S
C397 H381 0.930 . S
C397 C396 1.377 . S
C397 C398 1.379 . S
C398 H382 0.931 . S
C398 C392 1.383 . S
C398 C397 1.379 . S
H399 C393 0.959 . S
H400 C393 0.961 . S
H401 C393 0.960 . S
H402 C394 0.930 1_554 S
H403 C395 0.929 . S
H404 C412 0.929 . S
H405 C414 0.930 . S
H406 C416 0.930 . S
H407 C419 0.929 . S
H408 C422 0.930 . S
H409 C424 0.960 . S
H410 C424 0.960 . S
H411 C424 0.960 . S
C412 H404 0.929 . S
C412 C413 1.377 . S
C412 C414 1.384 . S
C413 C412 1.377 . S
C413 C419 1.390 1_556 S
C414 H405 0.930 . S
C414 C412 1.384 . S
C414 C415 1.372 1_556 S
C415 C414 1.372 1_554 S
C415 C416 1.400 . S
C415 C420 1.490 . S
C416 H406 0.930 . S
C416 C415 1.400 . S
C416 C419 1.386 . S
H417 C433 0.930 . S
H418 C434 0.931 . S
C419 H407 0.929 . S
C419 C413 1.390 1_554 S
C419 C416 1.386 . S
C420 C415 1.490 . S
C420 C422 1.395 1_554 S
C420 C423 1.403 . S
H421 C427 0.930 . S
C422 H408 0.930 . S
C422 C420 1.395 1_556 S
C422 C425 1.403 . S
C423 C420 1.403 . S
C423 C424 1.524 . S
C423 C427 1.400 . S
C424 H409 0.960 . S
C424 H410 0.960 . S
C424 H411 0.960 . S
C424 C423 1.524 . S
C425 C422 1.403 . S
C425 C426 1.392 1_556 S
C425 C429 1.495 . S
C426 C425 1.392 1_554 S
C426 C427 1.385 . S
C426 C428 1.478 . S
C427 H421 0.930 . S
C427 C423 1.400 . S
C427 C426 1.385 . S
C428 C426 1.478 . S
C428 C430 1.381 . S
C428 C434 1.383 . S
C429 C425 1.495 . S
C429 H435 0.959 . S
C429 H436 0.961 . S
C429 H437 0.960 . S
C430 C428 1.381 . S
C430 C431 1.394 . S
C430 H438 0.930 . S
C431 C430 1.394 . S
C431 C432 1.383 . S
C431 H439 0.929 . S
C432 C431 1.383 . S
C432 C433 1.377 . S
C433 H417 0.930 . S
C433 C432 1.377 . S
C433 C434 1.379 . S
C434 H418 0.931 . S
C434 C428 1.383 . S
C434 C433 1.379 . S
H435 C429 0.959 . S
H436 C429 0.961 . S
H437 C429 0.960 . S
H438 C430 0.930 . S
H439 C431 0.929 . S
H440 C448 0.929 . S
H441 C450 0.930 . S
H442 C452 0.930 . S
H443 C455 0.929 . S
H444 C458 0.930 . S
H445 C460 0.960 . S
H446 C460 0.960 . S
H447 C460 0.960 . S
C448 H440 0.929 . S
C448 C449 1.377 . S
C448 C450 1.384 . S
C449 C448 1.377 . S
C449 C455 1.390 . S
C450 H441 0.930 . S
C450 C448 1.384 . S
C450 C451 1.372 . S
C451 C450 1.372 . S
C451 C452 1.400 . S
C451 C456 1.490 . S
C452 H442 0.930 . S
C452 C451 1.400 . S
C452 C455 1.386 . S
H453 C469 0.930 . S
H454 C470 0.931 . S
C455 H443 0.929 . S
C455 C449 1.390 . S
C455 C452 1.386 . S
C456 C451 1.490 . S
C456 C458 1.395 . S
C456 C459 1.400 1_556 S
H457 C463 0.930 . S
C458 H444 0.930 . S
C458 C456 1.395 . S
C458 C461 1.403 . S
C459 C456 1.400 1_554 S
C459 C460 1.526 . S
C459 C463 1.400 . S
C460 H445 0.960 . S
C460 H446 0.960 . S
C460 H447 0.960 . S
C460 C459 1.526 . S
C461 C458 1.403 . S
C461 C462 1.392 . S
C461 C465 1.495 . S
C462 C461 1.392 . S
C462 C463 1.385 1_556 S
C462 C464 1.478 . S
C463 H457 0.930 . S
C463 C459 1.400 . S
C463 C462 1.385 1_554 S
C464 C462 1.478 . S
C464 C466 1.381 . S
C464 C470 1.383 1_556 S
C465 C461 1.495 . S
C465 H471 0.959 . S
C465 H472 0.961 . S
C465 H473 0.960 . S
C466 C464 1.381 . S
C466 C467 1.394 . S
C466 H474 0.930 . S
C467 C466 1.394 . S
C467 C468 1.383 1_556 S
C467 H475 0.929 . S
C468 C467 1.383 1_554 S
C468 C469 1.377 . S
C469 H453 0.930 . S
C469 C468 1.377 . S
C469 C470 1.379 . S
C470 H454 0.931 . S
C470 C464 1.383 1_554 S
C470 C469 1.379 . S
H471 C465 0.959 . S
H472 C465 0.961 . S
H473 C465 0.960 . S
H474 C466 0.930 . S
H475 C467 0.929 . S
H476 C484 0.929 . S
H477 C486 0.930 . S
H478 C488 0.930 . S
H479 C491 0.929 . S
H480 C494 0.930 . S
H481 C496 0.960 . S
H482 C496 0.960 . S
H483 C496 0.960 1_554 S
C484 H476 0.929 . S
C484 C485 1.377 . S
C484 C486 1.384 . S
C485 C484 1.377 . S
C485 C491 1.390 . S
C486 H477 0.930 . S
C486 C484 1.384 . S
C486 C487 1.372 . S
C487 C486 1.372 . S
C487 C488 1.400 . S
C487 C492 1.490 . S
C488 H478 0.930 . S
C488 C487 1.400 . S
C488 C491 1.386 . S
H489 C505 0.930 . S
H490 C506 0.931 . S
C491 H479 0.929 . S
C491 C485 1.390 . S
C491 C488 1.386 . S
C492 C487 1.490 . S
C492 C494 1.395 . S
C492 C495 1.403 . S
H493 C499 0.930 1_556 S
C494 H480 0.930 . S
C494 C492 1.395 . S
C494 C497 1.403 . S
C495 C492 1.403 . S
C495 C496 1.524 1_554 S
C495 C499 1.400 . S
C496 H481 0.960 . S
C496 H482 0.960 . S
C496 H483 0.960 1_556 S
C496 C495 1.524 1_556 S
C497 C494 1.403 . S
C497 C498 1.392 . S
C497 C501 1.495 . S
C498 C497 1.392 . S
C498 C499 1.385 . S
C498 C500 1.478 . S
C499 H493 0.930 1_554 S
C499 C495 1.400 . S
C499 C498 1.385 . S
C500 C498 1.478 . S
C500 C502 1.381 1_554 S
C500 C506 1.383 . S
C501 C497 1.495 . S
C501 H507 0.959 . S
C501 H508 0.961 . S
C501 H509 0.960 . S
C502 C500 1.381 1_556 S
C502 C503 1.394 . S
C502 H510 0.930 . S
C503 C502 1.394 . S
C503 C504 1.383 . S
C503 H511 0.929 . S
C504 C503 1.383 . S
C504 C505 1.377 1_556 S
C505 H489 0.930 . S
C505 C504 1.377 1_554 S
C505 C506 1.379 . S
C506 H490 0.931 . S
C506 C500 1.383 . S
C506 C505 1.379 . S
H507 C501 0.959 . S
H508 C501 0.961 . S
H509 C501 0.960 . S
H510 C502 0.930 . S
H511 C503 0.929 . S
H512 C520 0.929 . S
H513 C522 0.930 . S
H514 C524 0.930 . S
H515 C527 0.929 . S
H516 C530 0.930 . S
H517 C532 0.960 . S
H518 C532 0.960 . S
H519 C532 0.960 . S
C520 H512 0.929 . S
C520 C521 1.377 . S
C520 C522 1.384 . S
C521 C520 1.377 . S
C521 C527 1.390 . S
C522 H513 0.930 . S
C522 C520 1.384 . S
C522 C523 1.372 . S
C523 C522 1.372 . S
C523 C524 1.400 . S
C523 C528 1.490 . S
C524 H514 0.930 . S
C524 C523 1.400 . S
C524 C527 1.386 . S
H525 C541 0.930 . S
H526 C542 0.931 . S
C527 H515 0.929 . S
C527 C521 1.390 . S
C527 C524 1.386 . S
C528 C523 1.490 . S
C528 C530 1.395 . S
C528 C531 1.403 . S
H529 C535 0.930 . S
C530 H516 0.930 . S
C530 C528 1.395 . S
C530 C533 1.403 . S
C531 C528 1.403 . S
C531 C532 1.524 . S
C531 C535 1.400 . S
C532 H517 0.960 . S
C532 H518 0.960 . S
C532 H519 0.960 . S
C532 C531 1.524 . S
C533 C530 1.403 . S
C533 C534 1.392 . S
C533 C537 1.495 . S
C534 C533 1.392 . S
C534 C535 1.385 . S
C534 C536 1.478 . S
C535 H529 0.930 . S
C535 C531 1.400 . S
C535 C534 1.385 . S
C536 C534 1.478 . S
C536 C538 1.381 . S
C536 C542 1.383 . S
C537 C533 1.495 . S
C537 H543 0.959 . S
C537 H544 0.961 . S
C537 H545 0.960 . S
C538 C536 1.381 . S
C538 C539 1.394 . S
C538 H546 0.930 . S
C539 C538 1.394 . S
C539 C540 1.383 . S
C539 H547 0.929 . S
C540 C539 1.383 . S
C540 C541 1.377 . S
C541 H525 0.930 . S
C541 C540 1.377 . S
C541 C542 1.379 . S
C542 H526 0.931 . S
C542 C536 1.383 . S
C542 C541 1.379 . S
H543 C537 0.959 . S
H544 C537 0.961 . S
H545 C537 0.960 . S
H546 C538 0.930 . S
H547 C539 0.929 . S
H548 C556 0.929 . S
H549 C558 0.930 . S
H550 C560 0.930 . S
H551 C563 0.929 . S
H552 C566 0.930 . S
H553 C568 0.960 . S
H554 C568 0.960 . S
H555 C568 0.960 . S
C556 H548 0.929 . S
C556 C557 1.377 . S
C556 C558 1.384 . S
C557 C556 1.377 . S
C557 C563 1.390 . S
C558 H549 0.930 . S
C558 C556 1.384 . S
C558 C559 1.372 . S
C559 C558 1.372 . S
C559 C560 1.400 . S
C559 C564 1.490 . S
C560 H550 0.930 . S
C560 C559 1.400 . S
C560 C563 1.386 . S
H561 C577 0.930 . S
H562 C578 0.931 . S
C563 H551 0.929 . S
C563 C557 1.390 . S
C563 C560 1.386 . S
C564 C559 1.490 . S
C564 C566 1.395 . S
C564 C567 1.403 . S
H565 C571 0.930 . S
C566 H552 0.930 . S
C566 C564 1.395 . S
C566 C569 1.403 . S
C567 C564 1.403 . S
C567 C568 1.524 . S
C567 C571 1.400 . S
C568 H553 0.960 . S
C568 H554 0.960 . S
C568 H555 0.960 . S
C568 C567 1.524 . S
C569 C566 1.403 . S
C569 C570 1.392 . S
C569 C573 1.495 . S
C570 C569 1.392 . S
C570 C571 1.385 . S
C570 C572 1.478 . S
C571 H565 0.930 . S
C571 C567 1.400 . S
C571 C570 1.385 . S
C572 C570 1.478 . S
C572 C574 1.381 . S
C572 C578 1.383 . S
C573 C569 1.495 . S
C573 H579 0.959 . S
C573 H580 0.961 . S
C573 H581 0.960 . S
C574 C572 1.381 . S
C574 C575 1.394 . S
C574 H582 0.930 . S
C575 C574 1.394 . S
C575 C576 1.383 . S
C575 H583 0.929 . S
C576 C575 1.383 . S
C576 C577 1.377 . S
C577 H561 0.930 . S
C577 C576 1.377 . S
C577 C578 1.379 . S
C578 H562 0.931 . S
C578 C572 1.383 . S
C578 C577 1.379 . S
H579 C573 0.959 . S
H580 C573 0.961 . S
H581 C573 0.960 . S
H582 C574 0.930 . S
H583 C575 0.929 . S
H584 C592 0.929 . S
H585 C594 0.930 . S
H586 C596 0.930 . S
H587 C599 0.929 . S
H588 C602 0.930 . S
H589 C604 0.960 . S
H590 C604 0.960 . S
H591 C604 0.960 . S
C592 H584 0.929 . S
C592 C593 1.377 . S
C592 C594 1.384 . S
C593 C592 1.377 . S
C593 C599 1.390 . S
C594 H585 0.930 . S
C594 C592 1.384 . S
C594 C595 1.372 . S
C595 C594 1.372 . S
C595 C596 1.400 . S
C595 C600 1.490 . S
C596 H586 0.930 . S
C596 C595 1.400 . S
C596 C599 1.386 . S
H597 C613 0.930 . S
H598 C614 0.931 . S
C599 H587 0.929 . S
C599 C593 1.390 . S
C599 C596 1.386 . S
C600 C595 1.490 . S
C600 C602 1.395 . S
C600 C603 1.403 . S
H601 C607 0.930 . S
C602 H588 0.930 . S
C602 C600 1.395 . S
C602 C605 1.403 . S
C603 C600 1.403 . S
C603 C604 1.524 . S
C603 C607 1.400 . S
C604 H589 0.960 . S
C604 H590 0.960 . S
C604 H591 0.960 . S
C604 C603 1.524 . S
C605 C602 1.403 . S
C605 C606 1.392 . S
C605 C609 1.495 . S
C606 C605 1.392 . S
C606 C607 1.385 . S
C606 C608 1.478 . S
C607 H601 0.930 . S
C607 C603 1.400 . S
C607 C606 1.385 . S
C608 C606 1.478 . S
C608 C610 1.381 . S
C608 C614 1.383 . S
C609 C605 1.495 . S
C609 H615 0.959 . S
C609 H616 0.961 . S
C609 H617 0.960 . S
C610 C608 1.381 . S
C610 C611 1.394 . S
C610 H618 0.930 . S
C611 C610 1.394 . S
C611 C612 1.383 . S
C611 H619 0.929 . S
C612 C611 1.383 . S
C612 C613 1.377 . S
C613 H597 0.930 . S
C613 C612 1.377 . S
C613 C614 1.379 . S
C614 H598 0.931 . S
C614 C608 1.383 . S
C614 C613 1.379 . S
H615 C609 0.959 . S
H616 C609 0.961 . S
H617 C609 0.960 . S
H618 C610 0.930 . S
H619 C611 0.929 . S
H620 C628 0.929 . S
H621 C630 0.930 . S
H622 C632 0.930 . S
H623 C635 0.929 . S
H624 C638 0.930 . S
H625 C640 0.960 . S
H626 C640 0.960 . S
H627 C640 0.960 . S
C628 H620 0.929 . S
C628 C629 1.377 . S
C628 C630 1.384 . S
C629 C628 1.377 . S
C629 C635 1.390 . S
C630 H621 0.930 . S
C630 C628 1.384 . S
C630 C631 1.372 . S
C631 C630 1.372 . S
C631 C632 1.400 . S
C631 C636 1.490 . S
C632 H622 0.930 . S
C632 C631 1.400 . S
C632 C635 1.386 . S
H633 C649 0.930 . S
H634 C650 0.931 . S
C635 H623 0.929 . S
C635 C629 1.390 . S
C635 C632 1.386 . S
C636 C631 1.490 . S
C636 C638 1.395 . S
C636 C639 1.403 . S
H637 C643 0.930 . S
C638 H624 0.930 . S
C638 C636 1.395 . S
C638 C641 1.403 . S
C639 C636 1.403 . S
C639 C640 1.524 . S
C639 C643 1.400 . S
C640 H625 0.960 . S
C640 H626 0.960 . S
C640 H627 0.960 . S
C640 C639 1.524 . S
C641 C638 1.403 . S
C641 C642 1.392 . S
C641 C645 1.495 . S
C642 C641 1.392 . S
C642 C643 1.385 . S
C642 C644 1.478 . S
C643 H637 0.930 . S
C643 C639 1.400 . S
C643 C642 1.385 . S
C644 C642 1.478 . S
C644 C646 1.381 . S
C644 C650 1.383 . S
C645 C641 1.495 . S
C645 H651 0.959 . S
C645 H652 0.961 . S
C645 H653 0.960 . S
C646 C644 1.381 . S
C646 C647 1.394 . S
C646 H654 0.930 . S
C647 C646 1.394 . S
C647 C648 1.383 . S
C647 H655 0.929 . S
C648 C647 1.383 . S
C648 C649 1.377 . S
C649 H633 0.930 . S
C649 C648 1.377 . S
C649 C650 1.379 . S
C650 H634 0.931 . S
C650 C644 1.383 . S
C650 C649 1.379 . S
H651 C645 0.959 . S
H652 C645 0.961 . S
H653 C645 0.960 . S
H654 C646 0.930 . S
H655 C647 0.929 . S
H656 C664 0.929 . S
H657 C666 0.930 . S
H658 C668 0.930 . S
H659 C671 0.929 . S
H660 C674 0.930 . S
H661 C676 0.960 . S
H662 C676 0.960 . S
H663 C676 0.960 . S
C664 H656 0.929 . S
C664 C665 1.377 . S
C664 C666 1.384 . S
C665 C664 1.377 . S
C665 C671 1.390 . S
C666 H657 0.930 . S
C666 C664 1.384 . S
C666 C667 1.372 . S
C667 C666 1.372 . S
C667 C668 1.400 . S
C667 C672 1.490 . S
C668 H658 0.930 . S
C668 C667 1.400 . S
C668 C671 1.386 . S
H669 C685 0.930 . S
H670 C686 0.931 . S
C671 H659 0.929 . S
C671 C665 1.390 . S
C671 C668 1.386 . S
C672 C667 1.490 . S
C672 C674 1.395 . S
C672 C675 1.403 . S
H673 C679 0.930 . S
C674 H660 0.930 . S
C674 C672 1.395 . S
C674 C677 1.403 1_565 S
C675 C672 1.403 . S
C675 C676 1.524 . S
C675 C679 1.400 1_565 S
C676 H661 0.960 . S
C676 H662 0.960 . S
C676 H663 0.960 . S
C676 C675 1.524 . S
C677 C674 1.403 1_545 S
C677 C678 1.392 . S
C677 C681 1.495 . S
C678 C677 1.392 . S
C678 C679 1.385 . S
C678 C680 1.478 . S
C679 H673 0.930 . S
C679 C675 1.400 1_545 S
C679 C678 1.385 . S
C680 C678 1.478 . S
C680 C682 1.381 . S
C680 C686 1.383 . S
C681 C677 1.495 . S
C681 H687 0.959 . S
C681 H688 0.961 . S
C681 H689 0.960 . S
C682 C680 1.381 . S
C682 C683 1.394 . S
C682 H690 0.930 . S
C683 C682 1.394 . S
C683 C684 1.383 . S
C683 H691 0.929 . S
C684 C683 1.383 . S
C684 C685 1.377 . S
C685 H669 0.930 . S
C685 C684 1.377 . S
C685 C686 1.379 . S
C686 H670 0.931 . S
C686 C680 1.383 . S
C686 C685 1.379 . S
H687 C681 0.959 . S
H688 C681 0.961 . S
H689 C681 0.960 . S
H690 C682 0.930 . S
H691 C683 0.929 . S
H692 C700 0.929 . S
H693 C702 0.930 . S
H694 C704 0.930 . S
H695 C707 0.929 . S
H696 C710 0.930 . S
H697 C712 0.960 . S
H698 C712 0.960 . S
H699 C712 0.960 . S
C700 H692 0.929 . S
C700 C701 1.377 . S
C700 C702 1.384 . S
C701 C700 1.377 . S
C701 C707 1.390 . S
C702 H693 0.930 . S
C702 C700 1.384 . S
C702 C703 1.372 . S
C703 C702 1.372 . S
C703 C704 1.400 . S
C703 C708 1.490 . S
C704 H694 0.930 . S
C704 C703 1.400 . S
C704 C707 1.386 . S
H705 C721 0.930 . S
H706 C722 0.931 . S
C707 H695 0.929 . S
C707 C701 1.390 . S
C707 C704 1.386 . S
C708 C703 1.490 . S
C708 C710 1.395 . S
C708 C711 1.403 . S
H709 C715 0.930 . S
C710 H696 0.930 . S
C710 C708 1.395 . S
C710 C713 1.403 1_655 S
C711 C708 1.403 . S
C711 C712 1.524 . S
C711 C715 1.400 1_655 S
C712 H697 0.960 . S
C712 H698 0.960 . S
C712 H699 0.960 . S
C712 C711 1.524 . S
C713 C710 1.403 1_455 S
C713 C714 1.392 . S
C713 C717 1.495 . S
C714 C713 1.392 . S
C714 C715 1.385 . S
C714 C716 1.478 . S
C715 H709 0.930 . S
C715 C711 1.400 1_455 S
C715 C714 1.385 . S
C716 C714 1.478 . S
C716 C718 1.381 . S
C716 C722 1.383 . S
C717 C713 1.495 . S
C717 H723 0.959 . S
C717 H724 0.961 . S
C717 H725 0.960 . S
C718 C716 1.381 . S
C718 C719 1.394 . S
C718 H726 0.930 . S
C719 C718 1.394 . S
C719 C720 1.383 . S
C719 H727 0.929 . S
C720 C719 1.383 . S
C720 C721 1.377 . S
C721 H705 0.930 . S
C721 C720 1.377 . S
C721 C722 1.379 . S
C722 H706 0.931 . S
C722 C716 1.383 . S
C722 C721 1.379 . S
H723 C717 0.959 . S
H724 C717 0.961 . S
H725 C717 0.960 . S
H726 C718 0.930 . S
H727 C719 0.929 . S
H728 C736 0.929 . S
H729 C738 0.930 . S
H730 C740 0.930 . S
H731 C743 0.929 . S
H732 C746 0.930 . S
H733 C748 0.960 . S
H734 C748 0.960 . S
H735 C748 0.960 . S
C736 H728 0.929 . S
C736 C737 1.377 . S
C736 C738 1.384 . S
C737 C736 1.377 . S
C737 C743 1.390 . S
C738 H729 0.930 . S
C738 C736 1.384 . S
C738 C739 1.372 . S
C739 C738 1.372 . S
C739 C740 1.400 . S
C739 C744 1.490 . S
C740 H730 0.930 . S
C740 C739 1.400 . S
C740 C743 1.386 . S
H741 C757 0.930 . S
H742 C758 0.931 . S
C743 H731 0.929 . S
C743 C737 1.390 . S
C743 C740 1.386 . S
C744 C739 1.490 . S
C744 C746 1.395 . S
C744 C747 1.403 . S
H745 C751 0.930 . S
C746 H732 0.930 . S
C746 C744 1.395 . S
C746 C749 1.403 1_565 S
C747 C744 1.403 . S
C747 C748 1.524 . S
C747 C751 1.400 1_565 S
C748 H733 0.960 . S
C748 H734 0.960 . S
C748 H735 0.960 . S
C748 C747 1.524 . S
C749 C746 1.403 1_545 S
C749 C750 1.392 . S
C749 C753 1.495 . S
C750 C749 1.392 . S
C750 C751 1.385 . S
C750 C752 1.478 . S
C751 H745 0.930 . S
C751 C747 1.400 1_545 S
C751 C750 1.385 . S
C752 C750 1.478 . S
C752 C754 1.381 . S
C752 C758 1.383 . S
C753 C749 1.495 . S
C753 H759 0.983 . S
C753 H760 0.961 . S
C753 H761 0.960 . S
C754 C752 1.381 . S
C754 C755 1.394 . S
C754 H762 0.930 . S
C755 C754 1.394 . S
C755 C756 1.383 . S
C755 H763 0.929 . S
C756 C755 1.383 . S
C756 C757 1.377 . S
C757 H741 0.930 . S
C757 C756 1.377 . S
C757 C758 1.379 . S
C758 H742 0.931 . S
C758 C752 1.383 . S
C758 C757 1.379 . S
H759 C753 0.983 . S
H760 C753 0.961 . S
H761 C753 0.960 . S
H762 C754 0.930 . S
H763 C755 0.929 . S
H764 C772 0.929 . S
H765 C774 0.930 . S
H766 C776 0.930 . S
H767 C779 0.929 . S
H768 C782 0.930 . S
H769 C784 0.960 . S
H770 C784 0.960 . S
H771 C784 0.960 . S
C772 H764 0.929 . S
C772 C773 1.377 . S
C772 C774 1.384 . S
C773 C772 1.377 . S
C773 C779 1.390 . S
C774 H765 0.930 . S
C774 C772 1.384 . S
C774 C775 1.372 . S
C775 C774 1.372 . S
C775 C776 1.400 . S
C775 C780 1.490 . S
C776 H766 0.930 . S
C776 C775 1.400 . S
C776 C779 1.386 . S
H777 C793 0.930 . S
H778 C794 0.931 . S
C779 H767 0.929 . S
C779 C773 1.390 . S
C779 C776 1.386 . S
C780 C775 1.490 . S
C780 C782 1.395 . S
C780 C783 1.403 . S
H781 C787 0.930 . S
C782 H768 0.930 . S
C782 C780 1.395 . S
C782 C785 1.403 1_655 S
C783 C780 1.403 . S
C783 C784 1.524 . S
C783 C787 1.400 1_655 S
C784 H769 0.960 . S
C784 H770 0.960 . S
C784 H771 0.960 . S
C784 C783 1.524 . S
C785 C782 1.403 1_455 S
C785 C786 1.392 . S
C785 C789 1.495 . S
C786 C785 1.392 . S
C786 C787 1.385 . S
C786 C788 1.478 . S
C787 H781 0.930 . S
C787 C783 1.400 1_455 S
C787 C786 1.385 . S
C788 C786 1.478 . S
C788 C790 1.381 . S
C788 C794 1.383 . S
C789 C785 1.495 . S
C789 H795 0.959 . S
C789 H796 0.961 . S
C789 H797 0.960 . S
C790 C788 1.381 . S
C790 C791 1.394 . S
C790 H798 0.930 . S
C791 C790 1.394 . S
C791 C792 1.383 . S
C791 H799 0.929 . S
C792 C791 1.383 . S
C792 C793 1.377 . S
C793 H777 0.930 . S
C793 C792 1.377 . S
C793 C794 1.379 . S
C794 H778 0.931 . S
C794 C788 1.383 . S
C794 C793 1.379 . S
H795 C789 0.959 . S
H796 C789 0.961 . S
H797 C789 0.960 . S
H798 C790 0.930 . S
H799 C791 0.929 . S
H800 C808 0.929 . S
H801 C810 0.930 . S
H802 C812 0.930 . S
H803 C815 0.929 . S
H804 C818 0.930 . S
H805 C820 0.960 . S
H806 C820 0.960 . S
H807 C820 0.960 . S
C808 H800 0.929 . S
C808 C809 1.377 . S
C808 C810 1.384 . S
C809 C808 1.377 . S
C809 C815 1.390 . S
C810 H801 0.930 . S
C810 C808 1.384 . S
C810 C811 1.372 . S
C811 C810 1.372 . S
C811 C812 1.400 . S
C811 C816 1.490 . S
C812 H802 0.930 . S
C812 C811 1.400 . S
C812 C815 1.386 . S
H813 C829 0.930 . S
H814 C830 0.931 . S
C815 H803 0.929 . S
C815 C809 1.390 . S
C815 C812 1.386 . S
C816 C811 1.490 . S
C816 C818 1.395 . S
C816 C819 1.403 . S
H817 C823 0.930 . S
C818 H804 0.930 . S
C818 C816 1.395 . S
C818 C821 1.403 . S
C819 C816 1.403 . S
C819 C820 1.524 . S
C819 C823 1.400 . S
C820 H805 0.960 . S
C820 H806 0.960 . S
C820 H807 0.960 . S
C820 C819 1.524 . S
C821 C818 1.403 . S
C821 C822 1.392 . S
C821 C825 1.495 . S
C822 C821 1.392 . S
C822 C823 1.385 . S
C822 C824 1.478 . S
C823 H817 0.930 . S
C823 C819 1.400 . S
C823 C822 1.385 . S
C824 C822 1.478 . S
C824 C826 1.381 . S
C824 C830 1.383 . S
C825 C821 1.495 . S
C825 H831 0.959 . S
C825 H832 0.961 . S
C825 H833 0.960 . S
C826 C824 1.381 . S
C826 C827 1.394 . S
C826 H834 0.930 . S
C827 C826 1.394 . S
C827 C828 1.383 . S
C827 H835 0.929 . S
C828 C827 1.383 . S
C828 C829 1.377 . S
C829 H813 0.930 . S
C829 C828 1.377 . S
C829 C830 1.379 . S
C830 H814 0.931 . S
C830 C824 1.383 . S
C830 C829 1.379 . S
H831 C825 0.959 . S
H832 C825 0.961 . S
H833 C825 0.960 . S
H834 C826 0.930 . S
H835 C827 0.929 . S
H836 C844 0.929 . S
H837 C846 0.930 . S
H838 C848 0.930 . S
H839 C851 0.929 . S
H840 C854 0.930 . S
H841 C856 0.960 1_554 S
H842 C856 0.960 . S
H843 C856 0.960 . S
C844 H836 0.929 . S
C844 C845 1.377 . S
C844 C846 1.384 . S
C845 C844 1.377 . S
C845 C851 1.390 . S
C846 H837 0.930 . S
C846 C844 1.384 . S
C846 C847 1.372 . S
C847 C846 1.372 . S
C847 C848 1.400 . S
C847 C852 1.490 . S
C848 H838 0.930 . S
C848 C847 1.400 . S
C848 C851 1.386 . S
H849 C865 0.930 . S
H850 C866 0.931 . S
C851 H839 0.929 . S
C851 C845 1.390 . S
C851 C848 1.386 . S
C852 C847 1.490 . S
C852 C854 1.395 . S
C852 C855 1.403 . S
H853 C859 0.930 . S
C854 H840 0.930 . S
C854 C852 1.395 . S
C854 C857 1.403 . S
C855 C852 1.403 . S
C855 C856 1.524 . S
C855 C859 1.400 . S
C856 H841 0.960 1_556 S
C856 H842 0.960 . S
C856 H843 0.960 . S
C856 C855 1.524 . S
C857 C854 1.403 . S
C857 C858 1.392 . S
C857 C861 1.495 . S
C858 C857 1.392 . S
C858 C859 1.385 . S
C858 C860 1.478 . S
C859 H853 0.930 . S
C859 C855 1.400 . S
C859 C858 1.385 . S
C860 C858 1.478 . S
C860 C862 1.381 . S
C860 C866 1.383 . S
C861 C857 1.495 . S
C861 H867 0.959 . S
C861 H868 0.961 . S
C861 H869 0.960 . S
C862 C860 1.381 . S
C862 C863 1.394 . S
C862 H870 0.930 . S
C863 C862 1.394 . S
C863 C864 1.383 . S
C863 H871 0.929 . S
C864 C863 1.383 . S
C864 C865 1.377 . S
C865 H849 0.930 . S
C865 C864 1.377 . S
C865 C866 1.379 . S
C866 H850 0.931 . S
C866 C860 1.383 . S
C866 C865 1.379 . S
H867 C861 0.959 . S
H868 C861 0.961 . S
H869 C861 0.960 . S
H870 C862 0.930 . S
H871 C863 0.929 . S
H872 C880 0.929 . S
H873 C882 0.930 . S
H874 C884 0.930 . S
H875 C887 0.929 . S
H876 C890 0.930 . S
H877 C892 0.960 . S
H878 C892 0.960 . S
H879 C892 0.960 . S
C880 H872 0.929 . S
C880 C881 1.377 . S
C880 C882 1.384 . S
C881 C880 1.377 . S
C881 C887 1.390 . S
C882 H873 0.930 . S
C882 C880 1.384 . S
C882 C883 1.372 . S
C883 C882 1.372 . S
C883 C884 1.400 . S
C883 C888 1.490 . S
C884 H874 0.930 . S
C884 C883 1.400 . S
C884 C887 1.386 . S
H885 C901 0.930 . S
H886 C902 0.931 . S
C887 H875 0.929 . S
C887 C881 1.390 . S
C887 C884 1.386 . S
C888 C883 1.490 . S
C888 C890 1.395 . S
C888 C891 1.403 . S
H889 C895 0.930 . S
C890 H876 0.930 . S
C890 C888 1.395 . S
C890 C893 1.403 . S
C891 C888 1.403 . S
C891 C892 1.524 . S
C891 C895 1.400 . S
C892 H877 0.960 . S
C892 H878 0.960 . S
C892 H879 0.960 . S
C892 C891 1.524 . S
C893 C890 1.403 . S
C893 C894 1.392 . S
C893 C897 1.495 1_554 S
C894 C893 1.392 . S
C894 C895 1.385 . S
C894 C896 1.478 . S
C895 H889 0.930 . S
C895 C891 1.400 . S
C895 C894 1.385 . S
C896 C894 1.478 . S
C896 C898 1.381 . S
C896 C902 1.383 . S
C897 C893 1.495 1_556 S
C897 H903 0.959 . S
C897 H904 0.961 . S
C897 H905 0.960 . S
C898 C896 1.381 . S
C898 C899 1.394 . S
C898 H906 0.930 . S
C899 C898 1.394 . S
C899 C900 1.383 . S
C899 H907 0.929 . S
C900 C899 1.383 . S
C900 C901 1.377 . S
C901 H885 0.930 . S
C901 C900 1.377 . S
C901 C902 1.379 . S
C902 H886 0.931 . S
C902 C896 1.383 . S
C902 C901 1.379 . S
H903 C897 0.959 . S
H904 C897 0.961 . S
H905 C897 0.960 . S
H906 C898 0.930 . S
H907 C899 0.929 . S
H908 C916 0.929 . S
H909 C918 0.930 . S
H910 C920 0.930 . S
H911 C923 0.929 . S
H912 C926 0.930 . S
H913 C928 0.960 . S
H914 C928 0.960 . S
H915 C928 0.960 . S
C916 H908 0.929 . S
C916 C917 1.377 . S
C916 C918 1.384 . S
C917 C916 1.377 . S
C917 C923 1.390 . S
C918 H909 0.930 . S
C918 C916 1.384 . S
C918 C919 1.372 . S
C919 C918 1.372 . S
C919 C920 1.400 . S
C919 C924 1.490 . S
C920 H910 0.930 . S
C920 C919 1.400 . S
C920 C923 1.386 . S
H921 C937 0.930 . S
H922 C938 0.931 . S
C923 H911 0.929 . S
C923 C917 1.390 . S
C923 C920 1.386 . S
C924 C919 1.490 . S
C924 C926 1.395 . S
C924 C927 1.403 . S
H925 C931 0.930 . S
C926 H912 0.930 . S
C926 C924 1.395 . S
C926 C929 1.403 . S
C927 C924 1.403 . S
C927 C928 1.524 . S
C927 C931 1.400 . S
C928 H913 0.960 . S
C928 H914 0.960 . S
C928 H915 0.960 . S
C928 C927 1.524 . S
C929 C926 1.403 . S
C929 C930 1.392 . S
C929 C933 1.495 . S
C930 C929 1.392 . S
C930 C931 1.385 . S
C930 C932 1.478 . S
C931 H925 0.930 . S
C931 C927 1.400 . S
C931 C930 1.385 . S
C932 C930 1.478 . S
C932 C934 1.381 . S
C932 C938 1.383 . S
C933 C929 1.495 . S
C933 H939 0.959 . S
C933 H940 0.961 . S
C933 H941 0.960 . S
C934 C932 1.381 . S
C934 C935 1.394 . S
C934 H942 0.930 . S
C935 C934 1.394 . S
C935 C936 1.383 . S
C935 H943 0.929 . S
C936 C935 1.383 . S
C936 C937 1.377 . S
C937 H921 0.930 . S
C937 C936 1.377 . S
C937 C938 1.379 . S
C938 H922 0.931 . S
C938 C932 1.383 . S
C938 C937 1.379 . S
H939 C933 0.959 . S
H940 C933 0.961 . S
H941 C933 0.960 . S
H942 C934 0.930 . S
H943 C935 0.929 . S
H944 C952 0.929 . S
H945 C954 0.930 . S
H946 C956 0.930 . S
H947 C959 0.929 . S
H948 C962 0.930 . S
H949 C964 0.960 . S
H950 C964 0.960 . S
H951 C964 0.960 . S
C952 H944 0.929 . S
C952 C953 1.377 . S
C952 C954 1.384 . S
C953 C952 1.377 . S
C953 C959 1.390 . S
C954 H945 0.930 . S
C954 C952 1.384 . S
C954 C955 1.372 . S
C955 C954 1.372 . S
C955 C956 1.400 . S
C955 C960 1.490 . S
C956 H946 0.930 . S
C956 C955 1.400 . S
C956 C959 1.386 . S
H957 C973 0.930 . S
H958 C974 0.931 . S
C959 H947 0.929 . S
C959 C953 1.390 . S
C959 C956 1.386 . S
C960 C955 1.490 . S
C960 C962 1.395 . S
C960 C963 1.403 . S
H961 C967 0.930 . S
C962 H948 0.930 . S
C962 C960 1.395 . S
C962 C965 1.403 . S
C963 C960 1.403 . S
C963 C964 1.524 . S
C963 C967 1.400 . S
C964 H949 0.960 . S
C964 H950 0.960 . S
C964 H951 0.960 . S
C964 C963 1.524 . S
C965 C962 1.403 . S
C965 C966 1.392 . S
C965 C969 1.495 . S
C966 C965 1.392 . S
C966 C967 1.385 . S
C966 C968 1.478 . S
C967 H961 0.930 . S
C967 C963 1.400 . S
C967 C966 1.385 . S
C968 C966 1.478 . S
C968 C970 1.381 . S
C968 C974 1.383 . S
C969 C965 1.495 . S
C969 H975 0.959 . S
C969 H976 0.961 . S
C969 H977 0.960 . S
C970 C968 1.381 . S
C970 C971 1.394 . S
C970 H978 0.930 . S
C971 C970 1.394 . S
C971 C972 1.383 . S
C971 H979 0.929 . S
C972 C971 1.383 . S
C972 C973 1.377 . S
C973 H957 0.930 . S
C973 C972 1.377 . S
C973 C974 1.379 . S
C974 H958 0.931 . S
C974 C968 1.383 . S
C974 C973 1.379 . S
H975 C969 0.959 . S
H976 C969 0.961 . S
H977 C969 0.960 . S
H978 C970 0.930 . S
H979 C971 0.929 . S
H980 C988 0.929 . S
H981 C990 0.930 . S
H982 C992 0.930 . S
H983 C995 0.929 . S
H984 C998 0.930 . S
H985 C1000 0.960 . S
H986 C1000 0.960 . S
H987 C1000 0.960 . S
C988 H980 0.929 . S
C988 C989 1.377 . S
C988 C990 1.384 . S
C989 C988 1.377 . S
C989 C995 1.390 . S
C990 H981 0.930 . S
C990 C988 1.384 . S
C990 C991 1.372 . S
C991 C990 1.372 . S
C991 C992 1.400 . S
C991 C996 1.490 . S
C992 H982 0.930 . S
C992 C991 1.400 . S
C992 C995 1.386 . S
H993 C1009 0.930 . S
H994 C1010 0.931 . S
C995 H983 0.929 . S
C995 C989 1.390 . S
C995 C992 1.386 . S
C996 C991 1.490 . S
C996 C998 1.395 . S
C996 C999 1.403 . S
H997 C1003 0.930 . S
C998 H984 0.930 . S
C998 C996 1.395 . S
C998 C1001 1.403 . S
C999 C996 1.403 . S
C999 C1000 1.524 . S
C999 C1003 1.400 . S
C1000 H985 0.960 . S
C1000 H986 0.960 . S
C1000 H987 0.960 . S
C1000 C999 1.524 . S
C1001 C998 1.403 . S
C1001 C1002 1.392 . S
C1001 C1005 1.495 . S
C1002 C1001 1.392 . S
C1002 C1003 1.385 . S
C1002 C1004 1.478 . S
C1003 H997 0.930 . S
C1003 C999 1.400 . S
C1003 C1002 1.385 . S
C1004 C1002 1.478 . S
C1004 C1006 1.381 . S
C1004 C1010 1.383 . S
C1005 C1001 1.495 . S
C1005 H1011 0.959 . S
C1005 H1012 0.961 . S
C1005 H1013 0.960 . S
C1006 C1004 1.381 . S
C1006 C1007 1.394 . S
C1006 H1014 0.930 . S
C1007 C1006 1.394 . S
C1007 C1008 1.383 . S
C1007 H1015 0.929 . S
C1008 C1007 1.383 . S
C1008 C1009 1.377 . S
C1009 H993 0.930 . S
C1009 C1008 1.377 . S
C1009 C1010 1.379 . S
C1010 H994 0.931 . S
C1010 C1004 1.383 . S
C1010 C1009 1.379 . S
H1011 C1005 0.959 . S
H1012 C1005 0.961 . S
H1013 C1005 0.960 . S
H1014 C1006 0.930 . S
H1015 C1007 0.929 . S
H1016 C1024 0.929 . S
H1017 C1026 0.930 . S
H1018 C1028 0.930 . S
H1019 C1031 0.929 . S
H1020 C1034 0.930 . S
H1021 C1036 0.960 . S
H1022 C1036 0.960 . S
H1023 C1036 0.960 . S
C1024 H1016 0.929 . S
C1024 C1025 1.377 . S
C1024 C1026 1.384 . S
C1025 C1024 1.377 . S
C1025 C1031 1.390 . S
C1026 H1017 0.930 . S
C1026 C1024 1.384 . S
C1026 C1027 1.372 . S
C1027 C1026 1.372 . S
C1027 C1028 1.400 . S
C1027 C1032 1.490 . S
C1028 H1018 0.930 . S
C1028 C1027 1.400 . S
C1028 C1031 1.386 . S
H1029 C1045 0.930 . S
H1030 C1046 0.931 . S
C1031 H1019 0.929 . S
C1031 C1025 1.390 . S
C1031 C1028 1.386 . S
C1032 C1027 1.490 . S
C1032 C1034 1.395 . S
C1032 C1035 1.403 . S
H1033 C1039 0.930 . S
C1034 H1020 0.930 . S
C1034 C1032 1.395 . S
C1034 C1037 1.403 . S
C1035 C1032 1.403 . S
C1035 C1036 1.524 . S
C1035 C1039 1.400 . S
C1036 H1021 0.960 . S
C1036 H1022 0.960 . S
C1036 H1023 0.960 . S
C1036 C1035 1.524 . S
C1037 C1034 1.403 . S
C1037 C1038 1.392 . S
C1037 C1041 1.495 . S
C1038 C1037 1.392 . S
C1038 C1039 1.385 . S
C1038 C1040 1.478 . S
C1039 H1033 0.930 . S
C1039 C1035 1.400 . S
C1039 C1038 1.385 . S
C1040 C1038 1.478 . S
C1040 C1042 1.381 . S
C1040 C1046 1.383 . S
C1041 C1037 1.495 . S
C1041 H1047 0.959 . S
C1041 H1048 0.961 . S
C1041 H1049 0.960 . S
C1042 C1040 1.381 . S
C1042 C1043 1.394 . S
C1042 H1050 0.930 . S
C1043 C1042 1.394 . S
C1043 C1044 1.383 . S
C1043 H1051 0.929 . S
C1044 C1043 1.383 . S
C1044 C1045 1.377 . S
C1045 H1029 0.930 . S
C1045 C1044 1.377 . S
C1045 C1046 1.379 . S
C1046 H1030 0.931 . S
C1046 C1040 1.383 . S
C1046 C1045 1.379 . S
H1047 C1041 0.959 . S
H1048 C1041 0.961 . S
H1049 C1041 0.960 . S
H1050 C1042 0.930 . S
H1051 C1043 0.929 . S
H1052 C1060 0.929 . S
H1053 C1062 0.930 . S
H1054 C1064 0.930 . S
H1055 C1067 0.929 . S
H1056 C1070 0.930 . S
H1057 C1072 0.960 . S
H1058 C1072 0.960 . S
H1059 C1072 0.960 . S
C1060 H1052 0.929 . S
C1060 C1061 1.377 . S
C1060 C1062 1.384 . S
C1061 C1060 1.377 . S
C1061 C1067 1.390 . S
C1062 H1053 0.930 . S
C1062 C1060 1.384 . S
C1062 C1063 1.372 . S
C1063 C1062 1.372 . S
C1063 C1064 1.400 . S
C1063 C1068 1.490 . S
C1064 H1054 0.930 . S
C1064 C1063 1.400 . S
C1064 C1067 1.386 . S
H1065 C1081 0.930 . S
H1066 C1082 0.931 . S
C1067 H1055 0.929 . S
C1067 C1061 1.390 . S
C1067 C1064 1.386 . S
C1068 C1063 1.490 . S
C1068 C1070 1.395 . S
C1068 C1071 1.403 . S
H1069 C1075 0.930 . S
C1070 H1056 0.930 . S
C1070 C1068 1.395 . S
C1070 C1073 1.403 . S
C1071 C1068 1.403 . S
C1071 C1072 1.524 . S
C1071 C1075 1.400 . S
C1072 H1057 0.960 . S
C1072 H1058 0.960 . S
C1072 H1059 0.960 . S
C1072 C1071 1.524 . S
C1073 C1070 1.403 . S
C1073 C1074 1.392 . S
C1073 C1077 1.495 . S
C1074 C1073 1.392 . S
C1074 C1075 1.385 . S
C1074 C1076 1.478 . S
C1075 H1069 0.930 . S
C1075 C1071 1.400 . S
C1075 C1074 1.385 . S
C1076 C1074 1.478 . S
C1076 C1078 1.381 . S
C1076 C1082 1.383 . S
C1077 C1073 1.495 . S
C1077 H1083 0.959 . S
C1077 H1084 0.961 . S
C1077 H1085 0.960 . S
C1078 C1076 1.381 . S
C1078 C1079 1.394 . S
C1078 H1086 0.930 . S
C1079 C1078 1.394 . S
C1079 C1080 1.383 . S
C1079 H1087 0.929 . S
C1080 C1079 1.383 . S
C1080 C1081 1.377 . S
C1081 H1065 0.930 . S
C1081 C1080 1.377 . S
C1081 C1082 1.379 . S
C1082 H1066 0.931 . S
C1082 C1076 1.383 . S
C1082 C1081 1.379 . S
H1083 C1077 0.959 . S
H1084 C1077 0.961 . S
H1085 C1077 0.960 . S
H1086 C1078 0.930 . S
H1087 C1079 0.929 . S
H1088 C1096 0.929 . S
H1089 C1098 0.930 . S
H1090 C1100 0.930 . S
H1091 C1103 0.929 . S
H1092 C1106 0.930 . S
H1093 C1108 0.960 . S
H1094 C1108 0.960 . S
H1095 C1108 0.960 . S
C1096 H1088 0.929 . S
C1096 C1097 1.377 . S
C1096 C1098 1.384 . S
C1097 C1096 1.377 . S
C1097 C1103 1.390 . S
C1098 H1089 0.930 . S
C1098 C1096 1.384 . S
C1098 C1099 1.372 . S
C1099 C1098 1.372 . S
C1099 C1100 1.400 . S
C1099 C1104 1.490 . S
C1100 H1090 0.930 . S
C1100 C1099 1.400 . S
C1100 C1103 1.386 . S
H1101 C1117 0.930 . S
H1102 C1118 0.931 . S
C1103 H1091 0.929 . S
C1103 C1097 1.390 . S
C1103 C1100 1.386 . S
C1104 C1099 1.490 . S
C1104 C1106 1.395 . S
C1104 C1107 1.403 . S
H1105 C1111 0.930 . S
C1106 H1092 0.930 . S
C1106 C1104 1.395 . S
C1106 C1109 1.403 . S
C1107 C1104 1.403 . S
C1107 C1108 1.524 . S
C1107 C1111 1.400 . S
C1108 H1093 0.960 . S
C1108 H1094 0.960 . S
C1108 H1095 0.960 . S
C1108 C1107 1.524 . S
C1109 C1106 1.403 . S
C1109 C1110 1.392 . S
C1109 C1113 1.495 . S
C1110 C1109 1.392 . S
C1110 C1111 1.385 . S
C1110 C1112 1.478 . S
C1111 H1105 0.930 . S
C1111 C1107 1.400 . S
C1111 C1110 1.385 . S
C1112 C1110 1.478 . S
C1112 C1114 1.381 . S
C1112 C1118 1.383 . S
C1113 C1109 1.495 . S
C1113 H1119 0.959 . S
C1113 H1120 0.961 . S
C1113 H1121 0.960 . S
C1114 C1112 1.381 . S
C1114 C1115 1.394 . S
C1114 H1122 0.930 . S
C1115 C1114 1.394 . S
C1115 C1116 1.383 1_556 S
C1115 H1123 0.929 . S
C1116 C1115 1.383 1_554 S
C1116 C1117 1.377 . S
C1117 H1101 0.930 . S
C1117 C1116 1.377 . S
C1117 C1118 1.379 1_554 S
C1118 H1102 0.931 . S
C1118 C1112 1.383 . S
C1118 C1117 1.379 1_556 S
H1119 C1113 0.959 . S
H1120 C1113 0.961 . S
H1121 C1113 0.960 . S
H1122 C1114 0.930 . S
H1123 C1115 0.929 . S
H1124 C1132 0.929 . S
H1125 C1134 0.930 . S
H1126 C1136 0.930 . S
H1127 C1139 0.929 . S
H1128 C1142 0.930 . S
H1129 C1144 0.960 . S
H1130 C1144 0.960 . S
H1131 C1144 0.960 . S
C1132 H1124 0.929 . S
C1132 C1133 1.377 . S
C1132 C1134 1.384 . S
C1133 C1132 1.377 . S
C1133 C1139 1.390 . S
C1134 H1125 0.930 . S
C1134 C1132 1.384 . S
C1134 C1135 1.372 . S
C1135 C1134 1.372 . S
C1135 C1136 1.400 . S
C1135 C1140 1.490 . S
C1136 H1126 0.930 . S
C1136 C1135 1.400 . S
C1136 C1139 1.386 . S
H1137 C1153 0.930 1_556 S
H1138 C1154 0.931 . S
C1139 H1127 0.929 . S
C1139 C1133 1.390 . S
C1139 C1136 1.386 . S
C1140 C1135 1.490 . S
C1140 C1142 1.395 . S
C1140 C1143 1.403 . S
H1141 C1147 0.930 . S
C1142 H1128 0.930 . S
C1142 C1140 1.395 . S
C1142 C1145 1.403 . S
C1143 C1140 1.403 . S
C1143 C1144 1.524 . S
C1143 C1147 1.400 . S
C1144 H1129 0.960 . S
C1144 H1130 0.960 . S
C1144 H1131 0.960 . S
C1144 C1143 1.524 . S
C1145 C1142 1.403 . S
C1145 C1146 1.392 . S
C1145 C1149 1.495 . S
C1146 C1145 1.392 . S
C1146 C1147 1.385 . S
C1146 C1148 1.478 . S
C1147 H1141 0.930 . S
C1147 C1143 1.400 . S
C1147 C1146 1.385 . S
C1148 C1146 1.478 . S
C1148 C1150 1.381 . S
C1148 C1154 1.383 . S
C1149 C1145 1.495 . S
C1149 H1155 0.959 . S
C1149 H1156 0.961 . S
C1149 H1157 0.960 . S
C1150 C1148 1.381 . S
C1150 C1151 1.394 . S
C1150 H1158 0.930 . S
C1151 C1150 1.394 . S
C1151 C1152 1.383 1_554 S
C1151 H1159 0.929 . S
C1152 C1151 1.383 1_556 S
C1152 C1153 1.377 1_556 S
C1153 H1137 0.930 1_554 S
C1153 C1152 1.377 1_554 S
C1153 C1154 1.379 . S
C1154 H1138 0.931 . S
C1154 C1148 1.383 . S
C1154 C1153 1.379 . S
H1155 C1149 0.959 . S
H1156 C1149 0.961 . S
H1157 C1149 0.960 . S
H1158 C1150 0.930 . S
H1159 C1151 0.929 . S
H1160 C1168 0.929 1_554 S
H1161 C1170 0.930 . S
H1162 C1172 0.930 . S
H1163 C1175 0.929 . S
H1164 C1178 0.930 . S
H1165 C1180 0.960 . S
H1166 C1180 0.960 1_554 S
H1167 C1180 0.960 . S
C1168 H1160 0.929 1_556 S
C1168 C1169 1.377 1_556 S
C1168 C1170 1.384 . S
C1169 C1168 1.377 1_554 S
C1169 C1175 1.390 1_554 S
C1170 H1161 0.930 . S
C1170 C1168 1.384 . S
C1170 C1171 1.372 . S
C1171 C1170 1.372 . S
C1171 C1172 1.400 . S
C1171 C1176 1.490 . S
C1172 H1162 0.930 . S
C1172 C1171 1.400 . S
C1172 C1175 1.386 . S
H1173 C1189 0.930 . S
H1174 C1190 0.931 . S
C1175 H1163 0.929 . S
C1175 C1169 1.390 1_556 S
C1175 C1172 1.386 . S
C1176 C1171 1.490 . S
C1176 C1178 1.395 . S
C1176 C1179 1.403 . S
H1177 C1183 0.930 . S
C1178 H1164 0.930 . S
C1178 C1176 1.395 . S
C1178 C1181 1.403 . S
C1179 C1176 1.403 . S
C1179 C1180 1.524 . S
C1179 C1183 1.400 . S
C1180 H1165 0.960 . S
C1180 H1166 0.960 1_556 S
C1180 H1167 0.960 . S
C1180 C1179 1.524 . S
C1181 C1178 1.403 . S
C1181 C1182 1.392 . S
C1181 C1185 1.495 . S
C1182 C1181 1.392 . S
C1182 C1183 1.385 . S
C1182 C1184 1.478 . S
C1183 H1177 0.930 . S
C1183 C1179 1.400 . S
C1183 C1182 1.385 . S
C1184 C1182 1.478 . S
C1184 C1186 1.381 . S
C1184 C1190 1.383 . S
C1185 C1181 1.495 . S
C1185 H1191 0.959 . S
C1185 H1192 0.961 . S
C1185 H1193 0.960 . S
C1186 C1184 1.381 . S
C1186 C1187 1.394 . S
C1186 H1194 0.930 . S
C1187 C1186 1.394 . S
C1187 C1188 1.383 . S
C1187 H1195 0.929 . S
C1188 C1187 1.383 . S
C1188 C1189 1.377 . S
C1189 H1173 0.930 . S
C1189 C1188 1.377 . S
C1189 C1190 1.379 . S
C1190 H1174 0.931 . S
C1190 C1184 1.383 . S
C1190 C1189 1.379 . S
H1191 C1185 0.959 . S
H1192 C1185 0.961 . S
H1193 C1185 0.960 . S
H1194 C1186 0.930 . S
H1195 C1187 0.929 . S
H1196 C1204 0.929 . S
H1197 C1206 0.930 . S
H1198 C1208 0.930 . S
H1199 C1211 0.929 . S
H1200 C1214 0.930 . S
H1201 C1216 0.960 . S
H1202 C1216 0.960 . S
H1203 C1216 0.960 . S
C1204 H1196 0.929 . S
C1204 C1205 1.377 . S
C1204 C1206 1.384 . S
C1205 C1204 1.377 . S
C1205 C1211 1.390 . S
C1206 H1197 0.930 . S
C1206 C1204 1.384 . S
C1206 C1207 1.372 . S
C1207 C1206 1.372 . S
C1207 C1208 1.400 . S
C1207 C1212 1.490 . S
C1208 H1198 0.930 . S
C1208 C1207 1.400 . S
C1208 C1211 1.386 . S
H1209 C1225 0.930 . S
H1210 C1226 0.931 1_556 S
C1211 H1199 0.929 . S
C1211 C1205 1.390 . S
C1211 C1208 1.386 . S
C1212 C1207 1.490 . S
C1212 C1214 1.395 . S
C1212 C1215 1.403 . S
H1213 C1219 0.930 . S
C1214 H1200 0.930 . S
C1214 C1212 1.395 . S
C1214 C1217 1.403 . S
C1215 C1212 1.403 . S
C1215 C1216 1.524 . S
C1215 C1219 1.400 . S
C1216 H1201 0.960 . S
C1216 H1202 0.960 . S
C1216 H1203 0.960 . S
C1216 C1215 1.524 . S
C1217 C1214 1.403 . S
C1217 C1218 1.392 . S
C1217 C1221 1.495 . S
C1218 C1217 1.392 . S
C1218 C1219 1.385 . S
C1218 C1220 1.478 . S
C1219 H1213 0.930 . S
C1219 C1215 1.400 . S
C1219 C1218 1.385 . S
C1220 C1218 1.478 . S
C1220 C1222 1.381 . S
C1220 C1226 1.383 . S
C1221 C1217 1.495 . S
C1221 H1227 0.959 . S
C1221 H1228 0.961 . S
C1221 H1229 0.960 . S
C1222 C1220 1.381 . S
C1222 C1223 1.394 . S
C1222 H1230 0.930 . S
C1223 C1222 1.394 . S
C1223 C1224 1.383 1_554 S
C1223 H1231 0.929 . S
C1224 C1223 1.383 1_556 S
C1224 C1225 1.377 . S
C1225 H1209 0.930 . S
C1225 C1224 1.377 . S
C1225 C1226 1.379 1_556 S
C1226 H1210 0.931 1_554 S
C1226 C1220 1.383 . S
C1226 C1225 1.379 1_554 S
H1227 C1221 0.959 . S
H1228 C1221 0.961 . S
H1229 C1221 0.960 . S
H1230 C1222 0.930 . S
H1231 C1223 0.929 . S
H1232 C1240 0.929 . S
H1233 C1242 0.930 . S
H1234 C1244 0.930 . S
H1235 C1247 0.929 . S
H1236 C1250 0.930 . S
H1237 C1252 0.960 . S
H1238 C1252 0.960 . S
H1239 C1252 0.960 . S
C1240 H1232 0.929 . S
C1240 C1241 1.377 . S
C1240 C1242 1.384 . S
C1241 C1240 1.377 . S
C1241 C1247 1.390 . S
C1242 H1233 0.930 . S
C1242 C1240 1.384 . S
C1242 C1243 1.372 . S
C1243 C1242 1.372 . S
C1243 C1244 1.400 . S
C1243 C1248 1.490 . S
C1244 H1234 0.930 . S
C1244 C1243 1.400 . S
C1244 C1247 1.386 . S
H1245 C1261 0.930 . S
H1246 C1262 0.931 . S
C1247 H1235 0.929 . S
C1247 C1241 1.390 . S
C1247 C1244 1.386 . S
C1248 C1243 1.490 . S
C1248 C1250 1.395 . S
C1248 C1251 1.403 . S
H1249 C1255 0.930 . S
C1250 H1236 0.930 . S
C1250 C1248 1.395 . S
C1250 C1253 1.403 . S
C1251 C1248 1.403 . S
C1251 C1252 1.524 . S
C1251 C1255 1.400 . S
C1252 H1237 0.960 . S
C1252 H1238 0.960 . S
C1252 H1239 0.960 . S
C1252 C1251 1.524 . S
C1253 C1250 1.403 . S
C1253 C1254 1.392 . S
C1253 C1257 1.495 . S
C1254 C1253 1.392 . S
C1254 C1255 1.385 . S
C1254 C1256 1.478 . S
C1255 H1249 0.930 . S
C1255 C1251 1.400 . S
C1255 C1254 1.385 . S
C1256 C1254 1.478 . S
C1256 C1258 1.381 . S
C1256 C1262 1.383 . S
C1257 C1253 1.495 . S
C1257 H1263 0.959 . S
C1257 H1264 0.961 . S
C1257 H1265 0.960 . S
C1258 C1256 1.381 . S
C1258 C1259 1.394 . S
C1258 H1266 0.930 . S
C1259 C1258 1.394 . S
C1259 C1260 1.383 . S
C1259 H1267 0.929 . S
C1260 C1259 1.383 . S
C1260 C1261 1.377 . S
C1261 H1245 0.930 . S
C1261 C1260 1.377 . S
C1261 C1262 1.379 . S
C1262 H1246 0.931 . S
C1262 C1256 1.383 . S
C1262 C1261 1.379 . S
H1263 C1257 0.959 . S
H1264 C1257 0.961 . S
H1265 C1257 0.960 . S
H1266 C1258 0.930 . S
H1267 C1259 0.929 . S
H1268 C1276 0.929 . S
H1269 C1278 0.930 . S
H1270 C1280 0.930 . S
H1271 C1283 0.929 . S
H1272 C1286 0.930 . S
H1273 C1288 0.960 . S
H1274 C1288 0.960 . S
H1275 C1288 0.960 . S
C1276 H1268 0.929 . S
C1276 C1277 1.377 . S
C1276 C1278 1.384 . S
C1277 C1276 1.377 . S
C1277 C1283 1.390 . S
C1278 H1269 0.930 . S
C1278 C1276 1.384 . S
C1278 C1279 1.372 . S
C1279 C1278 1.372 . S
C1279 C1280 1.400 . S
C1279 C1284 1.490 . S
C1280 H1270 0.930 . S
C1280 C1279 1.400 . S
C1280 C1283 1.386 . S
H1281 C1297 0.930 . S
H1282 C1298 0.931 . S
C1283 H1271 0.929 . S
C1283 C1277 1.390 . S
C1283 C1280 1.386 . S
C1284 C1279 1.490 . S
C1284 C1286 1.395 . S
C1284 C1287 1.403 . S
H1285 C1291 0.930 . S
C1286 H1272 0.930 . S
C1286 C1284 1.395 . S
C1286 C1289 1.403 . S
C1287 C1284 1.403 . S
C1287 C1288 1.524 . S
C1287 C1291 1.400 . S
C1288 H1273 0.960 . S
C1288 H1274 0.960 . S
C1288 H1275 0.960 . S
C1288 C1287 1.524 . S
C1289 C1286 1.403 . S
C1289 C1290 1.392 . S
C1289 C1293 1.495 . S
C1290 C1289 1.392 . S
C1290 C1291 1.385 . S
C1290 C1292 1.478 . S
C1291 H1285 0.930 . S
C1291 C1287 1.400 . S
C1291 C1290 1.385 . S
C1292 C1290 1.478 . S
C1292 C1294 1.381 . S
C1292 C1298 1.383 . S
C1293 C1289 1.495 . S
C1293 H1299 0.959 . S
C1293 H1300 0.961 . S
C1293 H1301 0.960 . S
C1294 C1292 1.381 . S
C1294 C1295 1.394 . S
C1294 H1302 0.930 . S
C1295 C1294 1.394 . S
C1295 C1296 1.383 . S
C1295 H1303 0.929 . S
C1296 C1295 1.383 . S
C1296 C1297 1.377 . S
C1297 H1281 0.930 . S
C1297 C1296 1.377 . S
C1297 C1298 1.379 . S
C1298 H1282 0.931 . S
C1298 C1292 1.383 . S
C1298 C1297 1.379 . S
H1299 C1293 0.959 . S
H1300 C1293 0.961 . S
H1301 C1293 0.960 . S
H1302 C1294 0.930 . S
H1303 C1295 0.929 . S
H1304 C1312 0.929 . S
H1305 C1314 0.930 . S
H1306 C1316 0.930 . S
H1307 C1319 0.929 . S
H1308 C1322 0.930 . S
H1309 C1324 0.960 . S
H1310 C1324 0.960 . S
H1311 C1324 0.960 . S
C1312 H1304 0.929 . S
C1312 C1313 1.377 . S
C1312 C1314 1.384 . S
C1313 C1312 1.377 . S
C1313 C1319 1.390 . S
C1314 H1305 0.930 . S
C1314 C1312 1.384 . S
C1314 C1315 1.372 . S
C1315 C1314 1.372 . S
C1315 C1316 1.400 . S
C1315 C1320 1.490 . S
C1316 H1306 0.930 . S
C1316 C1315 1.400 . S
C1316 C1319 1.386 . S
H1317 C1333 0.930 . S
H1318 C1334 0.931 . S
C1319 H1307 0.929 . S
C1319 C1313 1.390 . S
C1319 C1316 1.386 . S
C1320 C1315 1.490 . S
C1320 C1322 1.395 . S
C1320 C1323 1.403 . S
H1321 C1327 0.930 . S
C1322 H1308 0.930 . S
C1322 C1320 1.395 . S
C1322 C1325 1.403 . S
C1323 C1320 1.403 . S
C1323 C1324 1.524 . S
C1323 C1327 1.400 . S
C1324 H1309 0.960 . S
C1324 H1310 0.960 . S
C1324 H1311 0.960 . S
C1324 C1323 1.524 . S
C1325 C1322 1.403 . S
C1325 C1326 1.392 . S
C1325 C1329 1.495 . S
C1326 C1325 1.392 . S
C1326 C1327 1.385 . S
C1326 C1328 1.478 . S
C1327 H1321 0.930 . S
C1327 C1323 1.400 . S
C1327 C1326 1.385 . S
C1328 C1326 1.478 . S
C1328 C1330 1.381 . S
C1328 C1334 1.383 . S
C1329 C1325 1.495 . S
C1329 H1335 0.959 . S
C1329 H1336 0.961 . S
C1329 H1337 0.960 . S
C1330 C1328 1.381 . S
C1330 C1331 1.394 . S
C1330 H1338 0.930 . S
C1331 C1330 1.394 . S
C1331 C1332 1.383 . S
C1331 H1339 0.929 . S
C1332 C1331 1.383 . S
C1332 C1333 1.377 . S
C1333 H1317 0.930 . S
C1333 C1332 1.377 . S
C1333 C1334 1.379 . S
C1334 H1318 0.931 . S
C1334 C1328 1.383 . S
C1334 C1333 1.379 . S
H1335 C1329 0.959 . S
H1336 C1329 0.961 . S
H1337 C1329 0.960 . S
H1338 C1330 0.930 . S
H1339 C1331 0.929 . S
H1340 C1348 0.929 . S
H1341 C1350 0.930 . S
H1342 C1352 0.930 . S
H1343 C1355 0.929 . S
H1344 C1358 0.930 . S
H1345 C1360 0.960 . S
H1346 C1360 0.960 . S
H1347 C1360 0.960 . S
C1348 H1340 0.929 . S
C1348 C1349 1.377 . S
C1348 C1350 1.384 . S
C1349 C1348 1.377 . S
C1349 C1355 1.390 . S
C1350 H1341 0.930 . S
C1350 C1348 1.384 . S
C1350 C1351 1.372 . S
C1351 C1350 1.372 . S
C1351 C1352 1.400 . S
C1351 C1356 1.490 . S
C1352 H1342 0.930 . S
C1352 C1351 1.400 . S
C1352 C1355 1.386 . S
H1353 C1369 0.930 . S
H1354 C1370 0.931 . S
C1355 H1343 0.929 . S
C1355 C1349 1.390 . S
C1355 C1352 1.386 . S
C1356 C1351 1.490 . S
C1356 C1358 1.395 . S
C1356 C1359 1.403 . S
H1357 C1363 0.930 . S
C1358 H1344 0.930 . S
C1358 C1356 1.395 . S
C1358 C1361 1.403 . S
C1359 C1356 1.403 . S
C1359 C1360 1.524 . S
C1359 C1363 1.400 . S
C1360 H1345 0.960 . S
C1360 H1346 0.960 . S
C1360 H1347 0.960 . S
C1360 C1359 1.524 . S
C1361 C1358 1.403 . S
C1361 C1362 1.392 . S
C1361 C1365 1.495 . S
C1362 C1361 1.392 . S
C1362 C1363 1.385 . S
C1362 C1364 1.478 . S
C1363 H1357 0.930 . S
C1363 C1359 1.400 . S
C1363 C1362 1.385 . S
C1364 C1362 1.478 . S
C1364 C1366 1.381 . S
C1364 C1370 1.383 . S
C1365 C1361 1.495 . S
C1365 H1371 0.959 . S
C1365 H1372 0.961 . S
C1365 H1373 0.960 . S
C1366 C1364 1.381 . S
C1366 C1367 1.394 . S
C1366 H1374 0.930 . S
C1367 C1366 1.394 . S
C1367 C1368 1.383 . S
C1367 H1375 0.929 . S
C1368 C1367 1.383 . S
C1368 C1369 1.377 . S
C1369 H1353 0.930 . S
C1369 C1368 1.377 . S
C1369 C1370 1.379 . S
C1370 H1354 0.931 . S
C1370 C1364 1.383 . S
C1370 C1369 1.379 . S
H1371 C1365 0.959 . S
H1372 C1365 0.961 . S
H1373 C1365 0.960 . S
H1374 C1366 0.930 . S
H1375 C1367 0.929 . S
C233 C159 1.173 . S
C252 C0 1.188 . S
C269 C14 1.164 . S
C288 C117 1.162 . S
C305 C28 1.161 . S
C324 C131 1.192 . S
C341 C145 1.175 . S
C360 C42 1.165 . S
C377 C56 1.169 . S
C396 C75 1.165 . S
C413 C70 1.161 . S
C432 C89 1.156 . S
C449 C103 1.174 . S
C468 C84 1.164 . S
C485 C61 1.173 . S
C504 C98 1.150 . S
C521 C47 1.173 . S
C540 C112 1.177 . S
C557 C126 1.162 . S
C576 C5 1.157 . S
C593 C19 1.174 . S
C612 C140 1.186 . S
C629 C154 1.160 . S
C648 C33 1.155 . S
C665 C168 1.166 . S
C684 C187 1.161 . S
C701 C182 1.160 . S
C720 C201 1.156 . S
C737 C215 1.180 . S
C756 C196 1.140 . S
C773 C173 1.179 . S
C792 C210 1.188 . S
C809 C65 0.988 . S
C828 C9 0.964 . S
C845 C23 0.988 . S
C864 C79 0.945 . S
C881 C37 0.996 . S
C900 C93 1.043 . S
C917 C107 0.986 . S
C936 C51 0.964 . S
C953 C121 1.004 . S
C972 C177 1.028 . S
C989 C191 1.005 . S
C1008 C135 1.042 . S
C1025 C149 1.004 . S
C1044 C205 1.029 . S
C1061 C219 0.989 . S
C1080 C163 0.993 . S
C1097 C207 1.294 . S
C1116 C11 1.300 . S
C1133 C221 1.291 . S
C1152 C25 1.301 . S
C1169 C39 1.288 . S
C1188 C179 1.273 . S
C1205 C193 1.288 . S
C1224 C53 1.298 . S
C1241 C151 1.291 . S
C1260 C67 1.285 . S
C1277 C165 1.289 . S
C1296 C81 1.303 . S
C1313 C95 1.292 . S
C1332 C123 1.291 . S
C1349 C137 1.291 . S
C1368 C109 1.304 . S
