# Generated by pormake.
# Topology wji, (4)-cn, num edge types: 1
# Building blocks:
#     Node 0, Type 0, BuildingBlock: TATPOV_clean_sbu_0, # of connection points: 4
#     Node 1, Type 0, BuildingBlock: TATPOV_clean_sbu_0, # of connection points: 4
#     Node 2, Type 0, BuildingBlock: TATPOV_clean_sbu_0, # of connection points: 4
#     Node 3, Type 0, BuildingBlock: TATPOV_clean_sbu_0, # of connection points: 4
#     Node 4, Type 0, BuildingBlock: TATPOV_clean_sbu_0, # of connection points: 4
#     Node 5, Type 0, BuildingBlock: TATPOV_clean_sbu_0, # of connection points: 4
#     Node 6, Type 0, BuildingBlock: TATPOV_clean_sbu_0, # of connection points: 4
#     Node 7, Type 0, BuildingBlock: TATPOV_clean_sbu_0, # of connection points: 4
#     Node 8, Type 0, BuildingBlock: TATPOV_clean_sbu_0, # of connection points: 4
#     Node 9, Type 0, BuildingBlock: TATPOV_clean_sbu_0, # of connection points: 4
#     Node 10, Type 0, BuildingBlock: TATPOV_clean_sbu_0, # of connection points: 4
#     Node 11, Type 0, BuildingBlock: TATPOV_clean_sbu_0, # of connection points: 4
#     Edge 12, Type (0, 0), BuildingBlock: AJUNOK_clean_linker_0, # of connection points: 2
#     Edge 13, Type (0, 0), BuildingBlock: AJUNOK_clean_linker_0, # of connection points: 2
#     Edge 14, Type (0, 0), BuildingBlock: AJUNOK_clean_linker_0, # of connection points: 2
#     Edge 15, Type (0, 0), BuildingBlock: AJUNOK_clean_linker_0, # of connection points: 2
#     Edge 16, Type (0, 0), BuildingBlock: AJUNOK_clean_linker_0, # of connection points: 2
#     Edge 17, Type (0, 0), BuildingBlock: AJUNOK_clean_linker_0, # of connection points: 2
#     Edge 18, Type (0, 0), BuildingBlock: AJUNOK_clean_linker_0, # of connection points: 2
#     Edge 19, Type (0, 0), BuildingBlock: AJUNOK_clean_linker_0, # of connection points: 2
#     Edge 20, Type (0, 0), BuildingBlock: AJUNOK_clean_linker_0, # of connection points: 2
#     Edge 21, Type (0, 0), BuildingBlock: AJUNOK_clean_linker_0, # of connection points: 2
#     Edge 22, Type (0, 0), BuildingBlock: AJUNOK_clean_linker_0, # of connection points: 2
#     Edge 23, Type (0, 0), BuildingBlock: AJUNOK_clean_linker_0, # of connection points: 2
#     Edge 24, Type (0, 0), BuildingBlock: AJUNOK_clean_linker_0, # of connection points: 2
#     Edge 25, Type (0, 0), BuildingBlock: AJUNOK_clean_linker_0, # of connection points: 2
#     Edge 26, Type (0, 0), BuildingBlock: AJUNOK_clean_linker_0, # of connection points: 2
#     Edge 27, Type (0, 0), BuildingBlock: AJUNOK_clean_linker_0, # of connection points: 2
#     Edge 28, Type (0, 0), BuildingBlock: AJUNOK_clean_linker_0, # of connection points: 2
#     Edge 29, Type (0, 0), BuildingBlock: AJUNOK_clean_linker_0, # of connection points: 2
#     Edge 30, Type (0, 0), BuildingBlock: AJUNOK_clean_linker_0, # of connection points: 2
#     Edge 31, Type (0, 0), BuildingBlock: AJUNOK_clean_linker_0, # of connection points: 2
#     Edge 32, Type (0, 0), BuildingBlock: AJUNOK_clean_linker_0, # of connection points: 2
#     Edge 33, Type (0, 0), BuildingBlock: AJUNOK_clean_linker_0, # of connection points: 2
#     Edge 34, Type (0, 0), BuildingBlock: AJUNOK_clean_linker_0, # of connection points: 2
#     Edge 35, Type (0, 0), BuildingBlock: AJUNOK_clean_linker_0, # of connection points: 2
# Relax obj value: 0.215
# Max RMSD: 0.097
# Mean RMSD: 0.097
data_MOF--net-wji--node1-TATPOV_clean_sbu_0--edge1-AJUNOK_clean_linker_0
_symmetry_space_group_name_H-M    P1
_symmetry_Int_Tables_number       1
_symmetry_cell_setting            triclinic
loop_
_symmetry_equiv_pos_as_xyz
'x, y, z'
_cell_length_a     42.487746
_cell_length_b     42.497186
_cell_length_c     16.3431
_cell_angle_alpha  90.434569
_cell_angle_beta   90.037641
_cell_angle_gamma 119.39652
loop_
_atom_site_label
_atom_site_type_symbol
_atom_site_fract_x
_atom_site_fract_y
_atom_site_fract_z
_atom_type_partial_charge
Zn0 Zn 0.44381 0.38896 0.2972 0.0
Zn1 Zn 0.42104 0.32685 0.36213 0.0
O2 O 0.47741 0.35121 0.35115 0.0
O3 O 0.49503 0.40135 0.28293 0.0
O4 O 0.40859 0.27677 0.40217 0.0
O5 O 0.42775 0.40428 0.40024 0.0
O6 O 0.41065 0.35132 0.45639 0.0
C7 C 0.50261 0.37966 0.31862 0.0
C8 C 0.38371 0.3399 0.21108 0.0
O9 O 0.38349 0.31948 0.26843 0.0
O10 O 0.41001 0.37147 0.20418 0.0
C11 C 0.40702 0.26958 0.47811 0.0
O12 O 0.41066 0.29427 0.5319 0.0
C13 C 0.41452 0.38291 0.45996 0.0
Zn14 Zn 0.0129 0.43977 0.68203 0.0
Zn15 Zn 0.07703 0.4415 0.66752 0.0
O16 O 0.09084 0.49521 0.68653 0.0
O17 O 0.0387 0.49234 0.71359 0.0
O18 O 0.12484 0.44122 0.67415 0.0
O19 O 0.99703 0.40252 0.76937 0.0
O20 O 0.05109 0.40771 0.7624 0.0
C21 C 0.07274 0.51044 0.70835 0.0
C22 C 0.02165 0.41207 0.52657 0.0
O23 O 0.05167 0.41778 0.55756 0.0
O24 O 1.00192 0.42167 0.56546 0.0
C25 C 0.15526 0.47006 0.67266 0.0
O26 O 0.15605 0.50055 0.65532 0.0
C27 C 0.01985 0.39379 0.79426 0.0
Zn28 Zn 0.61172 0.06024 0.66802 0.0
Zn29 Zn 0.67475 0.1048 0.73391 0.0
O30 O 0.64969 0.13563 0.71107 0.0
O31 O 0.6002 0.09937 0.64301 0.0
O32 O 0.72119 0.14004 0.7921 0.0
O33 O 0.59546 0.03266 0.77425 0.0
O34 O 0.64894 0.07025 0.82625 0.0
C35 C 0.62083 0.13002 0.67447 0.0
C36 C 0.6678 0.05432 0.58874 0.0
O37 O 0.68803 0.07848 0.64086 0.0
O38 O 0.63429 0.04335 0.58612 0.0
C39 C 0.71827 0.15871 0.84996 0.0
O40 O 0.68647 0.15552 0.86509 0.0
C41 C 0.61756 0.04315 0.8336 0.0
Zn42 Zn 0.57431 0.62109 0.81656 0.0
Zn43 Zn 0.60216 0.68296 0.87734 0.0
O44 O 0.54579 0.66007 0.86979 0.0
O45 O 0.52769 0.61661 0.77868 0.0
O46 O 0.61572 0.73032 0.93728 0.0
O47 O 0.57799 0.59954 0.92279 0.0
O48 O 0.61549 0.65562 0.95952 0.0
C49 C 0.52048 0.63576 0.82614 0.0
C50 C 0.63826 0.66824 0.73345 0.0
O51 O 0.63585 0.69267 0.77482 0.0
O52 O 0.61513 0.63538 0.74203 0.0
C53 C 0.603 0.72564 0.0096 0.0
O54 O 0.58401 0.69244 0.03638 0.0
C55 C 0.60164 0.62188 0.97174 0.0
Zn56 Zn 0.98758 0.56691 0.015 0.0
Zn57 Zn 0.92612 0.55504 0.05527 0.0
O58 O 0.92215 0.50451 0.02771 0.0
O59 O 0.97153 0.52008 0.95763 0.0
O60 O 0.87731 0.54535 0.09954 0.0
O61 O 1.00707 0.5738 0.12826 0.0
O62 O 0.95901 0.57908 0.15342 0.0
C63 C 0.94215 0.49552 0.9863 0.0
C64 C 0.97061 0.6174 0.94497 0.0
O65 O 0.9387 0.59432 0.9667 0.0
O66 O 0.99668 0.61196 0.96016 0.0
C67 C 0.87684 0.57123 0.13852 0.0
O68 O 0.90687 0.60231 0.14386 0.0
C69 C 0.98949 0.58312 0.17539 0.0
Zn70 Zn 0.39624 0.93976 0.15783 0.0
Zn71 Zn 0.33428 0.89698 0.22542 0.0
O72 O 0.3597 0.86606 0.20634 0.0
O73 O 0.40939 0.90129 0.13937 0.0
O74 O 0.28667 0.86063 0.27604 0.0
O75 O 0.41188 0.97021 0.26185 0.0
O76 O 0.36003 0.93205 0.31842 0.0
C77 C 0.38887 0.87124 0.17221 0.0
C78 C 0.3411 0.94525 0.07694 0.0
O79 O 0.3218 0.92363 0.13312 0.0
O80 O 0.37407 0.95426 0.07048 0.0
C81 C 0.27274 0.86808 0.337 0.0
O82 O 0.28815 0.90147 0.36463 0.0
C83 C 0.39079 0.96032 0.32264 0.0
Zn84 Zn 0.63158 0.54733 0.41351 0.0
Zn85 Zn 0.69268 0.56476 0.37614 0.0
O86 O 0.66016 0.50832 0.38347 0.0
O87 O 0.61822 0.50093 0.47051 0.0
O88 O 0.74177 0.57211 0.34097 0.0
O89 O 0.61754 0.54665 0.29595 0.0
O90 O 0.67581 0.58144 0.27724 0.0
C91 C 0.6326 0.48721 0.42564 0.0
C92 C 0.67818 0.61124 0.49504 0.0
O93 O 0.7009 0.60123 0.47349 0.0
O94 O 0.64557 0.59283 0.4731 0.0
C95 C 0.74275 0.55327 0.28097 0.0
O96 O 0.71213 0.52969 0.24636 0.0
C97 C 0.64344 0.56846 0.2518 0.0
Zn98 Zn 0.0428 0.65348 0.64028 0.0
Zn99 Zn 0.09354 0.7068 0.60616 0.0
O100 O 0.11145 0.6727 0.65006 0.0
O101 O 0.06866 0.64993 0.74077 0.0
O102 O 0.13709 0.75274 0.56818 0.0
O103 O 0.04582 0.62899 0.53915 0.0
O104 O 0.06471 0.68463 0.49996 0.0
C105 C 0.09755 0.65261 0.71217 0.0
C106 C 0.03099 0.70409 0.69072 0.0
O107 O 0.06524 0.7178 0.6951 0.0
O108 O 0.0152 0.68117 0.63452 0.0
C109 C 0.15331 0.74874 0.50687 0.0
O110 O 0.1419 0.71595 0.47794 0.0
C111 C 0.05151 0.65121 0.48275 0.0
Zn112 Zn 0.44862 0.06416 0.78837 0.0
Zn113 Zn 0.4229 0.10141 0.72397 0.0
O114 O 0.47882 0.1346 0.73683 0.0
O115 O 0.49774 0.10474 0.81232 0.0
O116 O 0.40734 0.13607 0.67871 0.0
O117 O 0.43869 0.03588 0.68178 0.0
O118 O 0.41544 0.06761 0.62897 0.0
C119 C 0.50453 0.13282 0.77299 0.0
C120 C 0.38625 0.0499 0.87112 0.0
O121 O 0.38597 0.07158 0.81763 0.0
O122 O 0.41233 0.04365 0.87476 0.0
C123 C 0.4179 0.1479 0.6068 0.0
O124 O 0.43766 0.13695 0.56698 0.0
C125 C 0.42408 0.043 0.62248 0.0
Zn126 Zn 0.39163 0.45637 0.92642 0.0
Zn127 Zn 0.33071 0.44527 0.86905 0.0
O128 O 0.36636 0.50075 0.8877 0.0
O129 O 0.41347 0.50801 0.95771 0.0
O130 O 0.28356 0.44248 0.82752 0.0
O131 O 0.4019 0.44154 0.81626 0.0
O132 O 0.34873 0.43035 0.76893 0.0
C133 C 0.39637 0.52154 0.92322 0.0
C134 C 0.33703 0.39877 0.00867 0.0
O135 O 0.31714 0.40499 0.9599 0.0
O136 O 0.37083 0.41904 0.00935 0.0
C137 C 0.28169 0.47127 0.81753 0.0
O138 O 0.30885 0.50216 0.84193 0.0
C139 C 0.37877 0.43105 0.75895 0.0
Zn140 Zn 0.01189 0.35575 0.13617 0.0
Zn141 Zn 0.91327 0.28556 0.11606 0.0
O142 O 0.92544 0.33581 0.07122 0.0
O143 O 0.98381 0.37882 0.08137 0.0
O144 O 0.86119 0.24996 0.08758 0.0
O145 O 0.98775 0.3004 0.1194 0.0
O146 O 0.94035 0.26456 0.05225 0.0
C147 C 0.95102 0.36825 0.0606 0.0
C148 C 0.95781 0.31001 0.25583 0.0
O149 O 0.92422 0.29449 0.23947 0.0
O150 O 0.97842 0.30929 0.20059 0.0
C151 C 0.84104 0.25909 0.04859 0.0
O152 O 0.8517 0.2935 0.03869 0.0
C153 C 0.97361 0.28724 0.05007 0.0
Zn154 Zn 0.56152 0.9368 0.29394 0.0
Zn155 Zn 0.58693 0.90099 0.22247 0.0
O156 O 0.53083 0.86713 0.23492 0.0
O157 O 0.51241 0.89635 0.31517 0.0
O158 O 0.60343 0.86796 0.17031 0.0
O159 O 0.57165 0.96709 0.19157 0.0
O160 O 0.59323 0.93517 0.13092 0.0
C161 C 0.50537 0.86856 0.27333 0.0
C162 C 0.62392 0.95126 0.37468 0.0
O163 O 0.62453 0.93097 0.31709 0.0
O164 O 0.59715 0.95623 0.38233 0.0
C165 C 0.59642 0.83812 0.20268 0.0
O166 O 0.5801 0.82985 0.27386 0.0
C167 C 0.58546 0.96048 0.12968 0.0
C168 C 0.33514 0.34112 0.02755 0.0
C169 C 0.32371 0.3653 0.05596 0.0
C170 C 0.34924 0.32565 0.0819 0.0
C171 C 0.35073 0.33269 0.16623 0.0
H172 H 0.33942 0.33945 0.96264 0.0
H173 H 0.36374 0.31277 0.05687 0.0
S174 S 0.31261 0.38364 0.27236 0.0
N175 N 0.30674 0.38822 0.1741 0.0
N176 N 0.33091 0.3572 0.27666 0.0
C177 C 0.33217 0.35021 0.19578 0.0
C178 C 0.31902 0.36699 0.14036 0.0
C179 C 0.02377 0.37086 0.41856 0.0
C180 C 1.00688 0.38954 0.45118 0.0
C181 C 1.00759 0.34535 0.35528 0.0
C182 C 0.97372 0.33713 0.32263 0.0
H183 H 0.04917 0.37512 0.44356 0.0
H184 H 0.02142 0.33131 0.33289 0.0
S185 S 0.92031 0.38167 0.37792 0.0
N186 N 0.95576 0.40042 0.43954 0.0
N187 N 0.92542 0.35208 0.32168 0.0
C188 C 0.95713 0.35651 0.35206 0.0
C189 C 0.97376 0.38283 0.41587 0.0
C190 C 0.65624 0.96946 0.50638 0.0
C191 C 0.65621 0.97611 0.42237 0.0
C192 C 0.66854 0.99793 0.5637 0.0
C193 C 0.68026 0.03363 0.53859 0.0
H194 H 0.64176 0.94199 0.52852 0.0
H195 H 0.66315 0.99111 0.62785 0.0
S196 S 0.69443 0.0658 0.32515 0.0
N197 N 0.67705 0.02158 0.31654 0.0
N198 N 0.69843 0.07476 0.42439 0.0
C199 C 0.68614 0.04111 0.45494 0.0
C200 C 0.67456 0.01227 0.39662 0.0
C201 C 0.69787 0.64215 0.63008 0.0
C202 C 0.68727 0.64259 0.54905 0.0
C203 C 0.68836 0.65876 0.69264 0.0
C204 C 0.66759 0.67565 0.67573 0.0
H205 H 0.70884 0.62482 0.64682 0.0
H206 H 0.69217 0.65329 0.75547 0.0
S207 S 0.64329 0.69319 0.47062 0.0
N208 N 0.6633 0.6689 0.45283 0.0
N209 N 0.64465 0.69911 0.57087 0.0
C210 C 0.6628 0.68171 0.59385 0.0
C211 C 0.67271 0.66516 0.53018 0.0
C212 C 0.97291 0.67191 0.76515 0.0
C213 C 0.00995 0.69841 0.76702 0.0
C214 C 0.95759 0.64725 0.8293 0.0
C215 C 0.97855 0.64984 0.89785 0.0
H216 H 0.95752 0.66623 0.70881 0.0
H217 H 0.93117 0.62379 0.82043 0.0
S218 S 0.06939 0.72561 0.94984 0.0
N219 N 0.0618 0.73389 0.85541 0.0
N220 N 0.03272 0.68827 0.97701 0.0
C221 C 0.01214 0.68133 0.90842 0.0
C222 C 0.02781 0.70603 0.8429 0.0
C223 C 0.35497 0.03162 0.00318 0.0
C224 C 0.35413 0.02542 0.91852 0.0
C225 C 0.34223 1.00272 0.05817 0.0
C226 C 0.32931 0.96704 0.02986 0.0
H227 H 0.37035 0.05888 0.02729 0.0
H228 H 0.34822 0.00899 0.12266 0.0
S229 S 0.31236 0.93629 0.81413 0.0
N230 N 0.33106 0.9807 0.80916 0.0
N231 N 0.309 0.92663 0.91258 0.0
C232 C 0.32263 0.96021 0.94591 0.0
C233 C 0.33458 0.98951 0.89005 0.0
C234 C 0.5832 0.42486 0.45336 0.0
C235 C 0.60895 0.44933 0.39839 0.0
C236 C 0.54973 0.39699 0.42525 0.0
C237 C 0.54081 0.39331 0.3415 0.0
H238 H 0.5871 0.42997 0.51865 0.0
H239 H 0.52911 0.38175 0.47007 0.0
S240 S 0.60222 0.44372 0.17179 0.0
N241 N 0.62627 0.46234 0.25543 0.0
N242 N 0.56283 0.41104 0.20338 0.0
C243 C 0.56827 0.41384 0.28569 0.0
C244 C 0.60264 0.4416 0.31405 0.0
C245 C 0.11135 0.57395 0.66262 0.0
C246 C 0.09044 0.54966 0.7238 0.0
C247 C 0.1185 0.60995 0.66483 0.0
C248 C 0.1049 0.6225 0.72837 0.0
H249 H 0.11911 0.5643 0.60896 0.0
H250 H 0.13127 0.62664 0.61206 0.0
S251 S 0.0581 0.57179 0.91451 0.0
N252 N 0.06288 0.54218 0.8574 0.0
N253 N 0.077 0.6099 0.8628 0.0
C254 C 0.08868 0.59971 0.79551 0.0
C255 C 0.08103 0.56311 0.79265 0.0
C256 C 0.57012 0.16114 0.80108 0.0
C257 C 0.54228 0.1553 0.74589 0.0
C258 C 0.6012 0.16058 0.77403 0.0
C259 C 0.60467 0.15323 0.69142 0.0
H260 H 0.56551 0.16075 0.86637 0.0
H261 H 0.61928 0.15984 0.81982 0.0
S262 S 0.54558 0.1489 0.52013 0.0
N263 N 0.52539 0.15278 0.60283 0.0
N264 N 0.58296 0.15006 0.55267 0.0
C265 C 0.5806 0.15453 0.63443 0.0
C266 C 0.54947 0.15607 0.66169 0.0
C267 C 0.47447 0.61425 0.93488 0.0
C268 C 0.48237 0.62064 0.85103 0.0
C269 C 0.44239 0.58415 0.96062 0.0
C270 C 0.41696 0.56034 0.90334 0.0
H271 H 0.49523 0.62903 0.9804 0.0
H272 H 0.43967 0.57699 0.02474 0.0
S273 S 0.41987 0.57287 0.67876 0.0
N274 N 0.45869 0.60631 0.71245 0.0
N275 N 0.39769 0.55064 0.76088 0.0
C276 C 0.4215 0.5707 0.82077 0.0
C277 C 0.45454 0.60078 0.79445 0.0
C278 C 0.96644 0.42129 0.97231 0.0
C279 C 0.94253 0.39556 0.02752 0.0
C280 C 0.96334 0.45161 0.95203 0.0
C281 C 0.93685 0.45812 0.9882 0.0
H282 H 0.98876 0.41882 0.94738 0.0
H283 H 0.9837 0.4714 0.91222 0.0
S284 S 0.86472 0.39606 0.12877 0.0
N285 N 0.88889 0.37597 0.11079 0.0
N286 N 0.88358 0.43361 0.07492 0.0
C287 C 0.91094 0.43098 0.03848 0.0
C288 C 0.91374 0.39961 0.05784 0.0
C289 C 0.42952 0.84696 0.13561 0.0
C290 C 0.40507 0.84828 0.19175 0.0
C291 C 0.46003 0.84533 0.16287 0.0
C292 C 0.46734 0.84606 0.24708 0.0
H293 H 0.42786 0.85233 0.07149 0.0
H294 H 0.4807 0.84973 0.11846 0.0
S295 S 0.40542 0.83657 0.4161 0.0
N296 N 0.38487 0.83951 0.33303 0.0
N297 N 0.44298 0.83798 0.38423 0.0
C298 C 0.43962 0.84017 0.30207 0.0
C299 C 0.40816 0.84098 0.27426 0.0
C300 C 0.40429 0.39797 0.68359 0.0
C301 C 0.3866 0.41853 0.68167 0.0
C302 C 0.41257 0.3859 0.61125 0.0
C303 C 0.40438 0.39496 0.53476 0.0
H304 H 0.41148 0.39085 0.74148 0.0
H305 H 0.42614 0.37003 0.61517 0.0
S306 S 0.35812 0.44815 0.49676 0.0
N307 N 0.36055 0.44692 0.59751 0.0
N308 N 0.37738 0.42529 0.46083 0.0
C309 C 0.38682 0.41561 0.53187 0.0
C310 C 0.37753 0.4271 0.60564 0.0
C311 C 0.96137 0.31355 0.92589 0.0
C312 C 0.98639 0.31199 0.97985 0.0
C313 C 0.97259 0.34027 0.86644 0.0
C314 C 0.00929 0.36584 0.85719 0.0
H315 H 0.93267 0.29502 0.93157 0.0
H316 H 0.95224 0.34092 0.8276 0.0
S317 S 0.08583 0.37109 0.9774 0.0
N318 N 0.04963 0.33664 0.01675 0.0
N319 N 0.07091 0.38666 0.90336 0.0
C320 C 0.03479 0.36354 0.90792 0.0
C321 C 0.02329 0.33659 0.96943 0.0
C322 C 0.58135 0.9648 0.97928 0.0
C323 C 0.59249 0.9821 0.05575 0.0
C324 C 0.58839 0.98488 0.90756 0.0
C325 C 0.60776 0.02281 0.91021 0.0
H326 H 0.567 0.93557 0.97498 0.0
H327 H 0.57964 0.97064 0.84952 0.0
S328 S 0.64283 0.0807 0.09571 0.0
N329 N 0.62299 0.03898 0.1307 0.0
N330 N 0.63763 0.07693 -0.00473 0.0
C331 C 0.619 0.0404 0.98642 0.0
C332 C 0.61096 0.01995 0.05954 0.0
C333 C 0.59189 0.5731 0.06877 0.0
C334 C 0.61376 0.60861 0.04131 0.0
C335 C 0.60236 0.55991 0.13537 0.0
C336 C 0.63532 0.58155 0.17604 0.0
H337 H 0.5661 0.55553 0.03976 0.0
H338 H 0.58426 0.53267 0.1558 0.0
S339 S 0.7032 0.67587 0.12576 0.0
N340 N 0.67049 0.66486 0.05812 0.0
N341 N 0.6903 0.63983 0.18313 0.0
C342 C 0.658 0.61674 0.14781 0.0
C343 C 0.64711 0.63037 0.0806 0.0
C344 C 0.04347 0.60867 0.37079 0.0
C345 C 0.03879 0.63717 0.40063 0.0
C346 C 0.02762 0.59141 0.29704 0.0
C347 C 1.0058 0.60151 0.25252 0.0
H348 H 0.05914 0.59942 0.40525 0.0
H349 H 0.03175 0.56949 0.27575 0.0
S350 S 0.98588 0.67505 0.30439 0.0
N351 N 0.01193 0.6755 0.37995 0.0
N352 N 0.98124 0.64242 0.24154 0.0
C353 C 1.00127 0.63027 0.2813 0.0
C354 C 0.01811 0.64838 0.35542 0.0
C355 C 0.39241 0.96477 0.47432 0.0
C356 C 0.40124 0.98206 0.39813 0.0
C357 C 0.40074 0.98482 0.54717 0.0
C358 C 0.41704 0.02263 0.54566 0.0
H359 H 0.3791 0.93557 0.47759 0.0
H360 H 0.39355 0.97065 0.6049 0.0
S361 S 0.44551 0.08067 0.36219 0.0
N362 N 0.42777 0.03906 0.32543 0.0
N363 N 0.44223 0.07673 0.46272 0.0
C364 C 0.42599 0.04024 0.47004 0.0
C365 C 0.41842 0.01992 0.39601 0.0
C366 C 0.3996 0.22665 0.59036 0.0
C367 C 0.40542 0.23567 0.50682 0.0
C368 C 0.40214 0.19731 0.62164 0.0
C369 C 0.41102 0.17599 0.57084 0.0
H370 H 0.39386 0.24292 0.63266 0.0
H371 H 0.39846 0.19222 0.68673 0.0
S372 S 0.4255 0.18581 0.34622 0.0
N373 N 0.41782 0.21899 0.37276 0.0
N374 N 0.42285 0.16412 0.43154 0.0
C375 C 0.41535 0.18367 0.48656 0.0
C376 C 0.41245 0.21337 0.45455 0.0
C377 C 0.21706 0.43851 0.76788 0.0
C378 C 0.25018 0.47076 0.7762 0.0
C379 C 0.1868 0.43822 0.73192 0.0
C380 C 0.18853 0.47013 0.70218 0.0
H381 H 0.21418 0.41342 0.791 0.0
H382 H 0.16166 0.41287 0.72916 0.0
S383 S 0.27011 0.56117 0.70196 0.0
N384 N 0.28352 0.53506 0.7465 0.0
N385 N 0.22716 0.53447 0.67888 0.0
C386 C 0.22195 0.50228 0.70733 0.0
C387 C 0.25258 0.50261 0.74437 0.0
C388 C 0.78019 0.23816 0.98593 0.0
C389 C 0.80894 0.23168 0.00301 0.0
C390 C 0.75089 0.21421 0.93697 0.0
C391 C 0.74971 0.1834 0.90121 0.0
H392 H 0.78037 0.26202 0.01042 0.0
H393 H 0.72932 0.2203 0.92575 0.0
S394 S 0.81818 0.15409 0.92669 0.0
N395 N 0.83415 0.1918 0.98104 0.0
N396 N 0.77954 0.14736 0.88731 0.0
C397 C 0.77823 0.17655 0.91777 0.0
C398 C 0.80769 0.2005 0.9692 0.0
C399 C 0.61037 0.81563 0.07204 0.0
C400 C 0.60263 0.81127 0.15648 0.0
C401 C 0.61215 0.7886 0.02527 0.0
C402 C 0.60618 0.75613 0.06106 0.0
H403 H 0.6138 0.83953 0.04098 0.0
H404 H 0.61676 0.79261 0.96006 0.0
S405 S 0.59037 0.73351 0.28178 0.0
N406 N 0.59283 0.77339 0.27519 0.0
N407 N 0.59614 0.72288 0.18777 0.0
C408 C 0.60046 0.75233 0.14618 0.0
C409 C 0.5987 0.77978 0.19371 0.0
C410 C 0.77729 0.53329 0.18983 0.0
C411 C 0.77755 0.55803 0.24825 0.0
C412 C 0.80941 0.53744 0.15558 0.0
C413 C 0.8432 0.56673 0.17753 0.0
H414 H 0.75201 0.51044 0.16996 0.0
H415 H 0.80761 0.51777 0.11058 0.0
S416 S 0.85915 0.63859 0.3298 0.0
N417 N 0.81485 0.61244 0.32808 0.0
N418 N 0.87505 0.6204 0.26363 0.0
C419 C 0.84395 0.59148 0.23661 0.0
C420 C 0.81124 0.58708 0.27199 0.0
C421 C 0.19847 0.7742 0.39403 0.0
C422 C 0.18348 0.78009 0.46547 0.0
C423 C 0.2267 0.80281 0.35245 0.0
C424 C 0.24137 0.83871 0.38036 0.0
H425 H 0.1884 0.74717 0.36958 0.0
H426 H 0.23728 0.79653 0.29822 0.0
S427 S 0.21164 0.86905 0.56416 0.0
N428 N 0.18526 0.82479 0.56204 0.0
N429 N 0.23838 0.87863 0.48409 0.0
C430 C 0.22649 0.84514 0.45147 0.0
C431 C 0.1976 0.81587 0.49392 0.0
loop_
_geom_bond_atom_site_label_1
_geom_bond_atom_site_label_2
_geom_bond_distance
_geom_bond_site_symmetry_2
_ccdc_geom_bond_type
Zn0 O3 2.031 . S
Zn0 O5 2.049 . S
Zn0 O10 2.067 . S
Zn1 O2 1.962 . S
Zn1 O4 1.986 . S
Zn1 O6 1.996 . S
Zn1 O9 1.943 . S
O2 Zn1 1.962 . S
O2 C7 1.254 . S
O3 Zn0 2.031 . S
O3 C7 1.269 . S
O4 Zn1 1.986 . S
O4 C11 1.262 . S
O5 Zn0 2.049 . S
O5 C13 1.260 . S
O6 Zn1 1.996 . S
O6 C13 1.257 . S
C7 O2 1.254 . S
C7 O3 1.269 . S
C8 O9 1.249 . S
C8 O10 1.270 . S
O9 Zn1 1.943 . S
O9 C8 1.249 . S
O10 Zn0 2.067 . S
O10 C8 1.270 . S
C11 O4 1.262 . S
C11 O12 1.232 . S
O12 C11 1.232 . S
C13 O5 1.260 . S
C13 O6 1.257 . S
Zn14 O17 2.031 . S
Zn14 O19 2.049 1_455 S
Zn14 O24 2.067 . S
Zn15 O16 1.962 . S
Zn15 O18 1.986 . S
Zn15 O20 1.996 . S
Zn15 O23 1.943 . S
O16 Zn15 1.962 . S
O16 C21 1.254 . S
O17 Zn14 2.031 . S
O17 C21 1.269 . S
O18 Zn15 1.986 . S
O18 C25 1.262 . S
O19 Zn14 2.049 1_655 S
O19 C27 1.256 1_655 S
O20 Zn15 1.996 . S
O20 C27 1.257 . S
C21 O16 1.254 . S
C21 O17 1.269 . S
C22 O23 1.249 . S
C22 O24 1.270 . S
O23 Zn15 1.943 . S
O23 C22 1.249 . S
O24 Zn14 2.067 . S
O24 C22 1.270 . S
C25 O18 1.262 . S
C25 O26 1.232 . S
O26 C25 1.232 . S
C27 O19 1.256 1_455 S
C27 O20 1.257 . S
Zn28 O31 2.031 . S
Zn28 O33 2.046 1_545 S
Zn28 O38 2.067 . S
Zn29 O30 1.962 . S
Zn29 O32 1.986 . S
Zn29 O34 1.996 . S
Zn29 O37 1.943 . S
O30 Zn29 1.962 . S
O30 C35 1.254 . S
O31 Zn28 2.031 . S
O31 C35 1.269 . S
O32 Zn29 1.986 . S
O32 C39 1.262 . S
O33 Zn28 2.046 1_565 S
O33 C41 1.258 1_565 S
O34 Zn29 1.996 . S
O34 C41 1.257 . S
C35 O30 1.254 . S
C35 O31 1.269 . S
C36 O37 1.249 . S
C36 O38 1.270 . S
O37 Zn29 1.943 . S
O37 C36 1.249 . S
O38 Zn28 2.067 . S
O38 C36 1.270 . S
C39 O32 1.262 . S
C39 O40 1.232 . S
O40 C39 1.232 . S
C41 O33 1.258 1_545 S
C41 O34 1.257 . S
Zn42 O45 2.031 . S
Zn42 O47 2.049 1_556 S
Zn42 O52 2.067 . S
Zn43 O44 1.962 . S
Zn43 O46 1.986 1_556 S
Zn43 O48 1.996 1_556 S
Zn43 O51 1.943 . S
O44 Zn43 1.962 . S
O44 C49 1.254 . S
O45 Zn42 2.031 . S
O45 C49 1.269 . S
O46 Zn43 1.986 1_554 S
O46 C53 1.262 1_554 S
O47 Zn42 2.049 1_554 S
O47 C55 1.260 . S
O48 Zn43 1.996 1_554 S
O48 C55 1.257 . S
C49 O44 1.254 . S
C49 O45 1.269 . S
C50 O51 1.249 . S
C50 O52 1.270 . S
O51 Zn43 1.943 . S
O51 C50 1.249 . S
O52 Zn42 2.067 . S
O52 C50 1.270 . S
C53 O46 1.262 1_556 S
C53 O54 1.232 . S
O54 C53 1.232 . S
C55 O47 1.260 . S
C55 O48 1.257 . S
Zn56 O59 2.031 . S
Zn56 O61 2.049 1_655 S
Zn56 O66 2.067 . S
Zn57 O58 1.962 . S
Zn57 O60 1.986 . S
Zn57 O62 1.996 . S
Zn57 O65 1.943 . S
O58 Zn57 1.962 . S
O58 C63 1.254 . S
O59 Zn56 2.031 . S
O59 C63 1.269 . S
O60 Zn57 1.986 . S
O60 C67 1.262 . S
O61 Zn56 2.049 1_455 S
O61 C69 1.256 1_455 S
O62 Zn57 1.996 . S
O62 C69 1.257 . S
C63 O58 1.254 . S
C63 O59 1.269 . S
C64 O65 1.249 1_556 S
C64 O66 1.270 1_556 S
O65 Zn57 1.943 . S
O65 C64 1.249 1_554 S
O66 Zn56 2.067 . S
O66 C64 1.270 1_554 S
C67 O60 1.262 . S
C67 O68 1.232 . S
O68 C67 1.232 . S
C69 O61 1.256 1_655 S
C69 O62 1.257 . S
Zn70 O73 2.031 . S
Zn70 O75 2.046 1_565 S
Zn70 O80 2.067 . S
Zn71 O72 1.962 . S
Zn71 O74 1.986 . S
Zn71 O76 1.996 . S
Zn71 O79 1.943 . S
O72 Zn71 1.962 . S
O72 C77 1.254 . S
O73 Zn70 2.031 . S
O73 C77 1.269 . S
O74 Zn71 1.986 . S
O74 C81 1.262 . S
O75 Zn70 2.046 1_545 S
O75 C83 1.258 1_545 S
O76 Zn71 1.996 . S
O76 C83 1.257 . S
C77 O72 1.254 . S
C77 O73 1.269 . S
C78 O79 1.249 . S
C78 O80 1.270 . S
O79 Zn71 1.943 . S
O79 C78 1.249 . S
O80 Zn70 2.067 . S
O80 C78 1.270 . S
C81 O74 1.262 . S
C81 O82 1.232 . S
O82 C81 1.232 . S
C83 O75 1.258 1_565 S
C83 O76 1.257 . S
Zn84 O87 2.031 . S
Zn84 O89 2.049 . S
Zn84 O94 2.067 . S
Zn85 O86 1.962 . S
Zn85 O88 1.986 . S
Zn85 O90 1.996 . S
Zn85 O93 1.943 . S
O86 Zn85 1.962 . S
O86 C91 1.254 . S
O87 Zn84 2.031 . S
O87 C91 1.269 . S
O88 Zn85 1.986 . S
O88 C95 1.262 . S
O89 Zn84 2.049 . S
O89 C97 1.260 . S
O90 Zn85 1.996 . S
O90 C97 1.257 . S
C91 O86 1.254 . S
C91 O87 1.269 . S
C92 O93 1.249 . S
C92 O94 1.270 . S
O93 Zn85 1.943 . S
O93 C92 1.249 . S
O94 Zn84 2.067 . S
O94 C92 1.270 . S
C95 O88 1.262 . S
C95 O96 1.232 . S
O96 C95 1.232 . S
C97 O89 1.260 . S
C97 O90 1.257 . S
Zn98 O101 2.031 . S
Zn98 O103 2.046 1_455 S
Zn98 O108 2.067 . S
Zn99 O100 1.962 . S
Zn99 O102 1.986 . S
Zn99 O104 1.996 . S
Zn99 O107 1.943 . S
O100 Zn99 1.962 . S
O100 C105 1.254 . S
O101 Zn98 2.031 . S
O101 C105 1.269 . S
O102 Zn99 1.986 . S
O102 C109 1.262 . S
O103 Zn98 2.046 1_655 S
O103 C111 1.258 1_655 S
O104 Zn99 1.996 . S
O104 C111 1.257 . S
C105 O100 1.254 . S
C105 O101 1.269 . S
C106 O107 1.249 . S
C106 O108 1.270 . S
O107 Zn99 1.943 . S
O107 C106 1.249 . S
O108 Zn98 2.067 . S
O108 C106 1.270 . S
C109 O102 1.262 . S
C109 O110 1.232 . S
O110 C109 1.232 . S
C111 O103 1.258 1_455 S
C111 O104 1.257 . S
Zn112 O115 2.031 . S
Zn112 O117 2.049 1_545 S
Zn112 O122 2.067 . S
Zn113 O114 1.962 . S
Zn113 O116 1.986 . S
Zn113 O118 1.996 . S
Zn113 O121 1.943 . S
O114 Zn113 1.962 . S
O114 C119 1.254 . S
O115 Zn112 2.031 . S
O115 C119 1.269 . S
O116 Zn113 1.986 . S
O116 C123 1.262 . S
O117 Zn112 2.049 1_565 S
O117 C125 1.256 1_565 S
O118 Zn113 1.996 . S
O118 C125 1.257 . S
C119 O114 1.254 . S
C119 O115 1.269 . S
C120 O121 1.249 . S
C120 O122 1.270 . S
O121 Zn113 1.943 . S
O121 C120 1.249 . S
O122 Zn112 2.067 . S
O122 C120 1.270 . S
C123 O116 1.262 . S
C123 O124 1.232 . S
O124 C123 1.232 . S
C125 O117 1.256 1_545 S
C125 O118 1.257 . S
Zn126 O129 2.031 . S
Zn126 O131 2.049 . S
Zn126 O136 2.067 . S
Zn127 O128 1.962 . S
Zn127 O130 1.986 . S
Zn127 O132 1.996 . S
Zn127 O135 1.943 . S
O128 Zn127 1.962 . S
O128 C133 1.254 . S
O129 Zn126 2.031 . S
O129 C133 1.269 . S
O130 Zn127 1.986 . S
O130 C137 1.262 . S
O131 Zn126 2.049 . S
O131 C139 1.260 . S
O132 Zn127 1.996 . S
O132 C139 1.257 . S
C133 O128 1.254 . S
C133 O129 1.269 . S
C134 O135 1.249 1_554 S
C134 O136 1.270 1_554 S
O135 Zn127 1.943 . S
O135 C134 1.249 1_556 S
O136 Zn126 2.067 . S
O136 C134 1.270 1_556 S
C137 O130 1.262 . S
C137 O138 1.232 . S
O138 C137 1.232 . S
C139 O131 1.260 . S
C139 O132 1.257 . S
Zn140 O143 2.031 . S
Zn140 O145 2.046 1_654 S
Zn140 O150 2.067 . S
Zn141 O142 1.962 . S
Zn141 O144 1.986 1_554 S
Zn141 O146 1.996 1_554 S
Zn141 O149 1.943 . S
O142 Zn141 1.962 . S
O142 C147 1.254 . S
O143 Zn140 2.031 . S
O143 C147 1.269 . S
O144 Zn141 1.986 1_556 S
O144 C151 1.262 1_556 S
O145 Zn140 2.046 1_456 S
O145 C153 1.258 1_455 S
O146 Zn141 1.996 1_556 S
O146 C153 1.257 . S
C147 O142 1.254 . S
C147 O143 1.269 . S
C148 O149 1.249 . S
C148 O150 1.270 . S
O149 Zn141 1.943 . S
O149 C148 1.249 . S
O150 Zn140 2.067 . S
O150 C148 1.270 . S
C151 O144 1.262 1_554 S
C151 O152 1.232 . S
O152 C151 1.232 . S
C153 O145 1.258 1_655 S
C153 O146 1.257 . S
Zn154 O157 2.031 . S
Zn154 O159 2.049 1_565 S
Zn154 O164 2.067 . S
Zn155 O156 1.962 . S
Zn155 O158 1.986 . S
Zn155 O160 1.996 . S
Zn155 O163 1.943 . S
O156 Zn155 1.962 . S
O156 C161 1.254 . S
O157 Zn154 2.031 . S
O157 C161 1.269 . S
O158 Zn155 1.986 . S
O158 C165 1.262 . S
O159 Zn154 2.049 1_545 S
O159 C167 1.256 1_545 S
O160 Zn155 1.996 . S
O160 C167 1.257 . S
C161 O156 1.254 . S
C161 O157 1.269 . S
C162 O163 1.249 . S
C162 O164 1.270 . S
O163 Zn155 1.943 . S
O163 C162 1.249 . S
O164 Zn154 2.067 . S
O164 C162 1.270 . S
C165 O158 1.262 . S
C165 O166 1.232 . S
O166 C165 1.232 . S
C167 O159 1.256 1_565 S
C167 O160 1.257 . S
C168 C169 1.369 . S
C168 C170 1.419 . S
C168 H172 0.930 . S
C169 C168 1.369 . S
C169 C178 1.429 . S
C170 C168 1.419 . S
C170 C171 1.363 . S
C170 H173 0.929 . S
C171 C170 1.363 . S
C171 C177 1.428 . S
H172 C168 0.930 . S
H173 C170 0.929 . S
S174 N175 1.613 . S
S174 N176 1.610 . S
N175 S174 1.613 . S
N175 C178 1.350 . S
N176 S174 1.610 . S
N176 C177 1.351 . S
C177 C171 1.428 . S
C177 N176 1.351 . S
C177 C178 1.434 . S
C178 C169 1.429 . S
C178 N175 1.350 . S
C178 C177 1.434 . S
C179 C180 1.369 . S
C179 C181 1.419 1_455 S
C179 H183 0.930 . S
C180 C179 1.369 . S
C180 C189 1.429 . S
C181 C179 1.419 1_655 S
C181 C182 1.363 . S
C181 H184 0.929 . S
C182 C181 1.363 . S
C182 C188 1.428 . S
H183 C179 0.930 . S
H184 C181 0.929 . S
S185 N186 1.613 . S
S185 N187 1.610 1_455 S
N186 S185 1.613 . S
N186 C189 1.350 . S
N187 S185 1.610 1_655 S
N187 C188 1.351 . S
C188 C182 1.428 . S
C188 N187 1.351 . S
C188 C189 1.434 1_655 S
C189 C180 1.429 . S
C189 N186 1.350 . S
C189 C188 1.434 1_455 S
C190 C191 1.369 . S
C190 C192 1.422 . S
C190 H194 0.930 . S
C191 C190 1.369 . S
C191 C200 1.429 1_565 S
C192 C190 1.422 . S
C192 C193 1.361 1_565 S
C192 H195 0.928 . S
C193 C192 1.361 1_545 S
C193 C199 1.428 . S
H194 C190 0.930 . S
H195 C192 0.928 . S
S196 N197 1.613 . S
S196 N198 1.610 . S
N197 S196 1.613 . S
N197 C200 1.350 . S
N198 S196 1.610 . S
N198 C199 1.351 . S
C199 C193 1.428 . S
C199 N198 1.351 . S
C199 C200 1.434 . S
C200 C191 1.429 1_545 S
C200 N197 1.350 . S
C200 C199 1.434 . S
C201 C202 1.369 . S
C201 C203 1.419 . S
C201 H205 0.930 . S
C202 C201 1.369 . S
C202 C211 1.429 . S
C203 C201 1.419 . S
C203 C204 1.363 . S
C203 H206 0.929 . S
C204 C203 1.363 . S
C204 C210 1.428 . S
H205 C201 0.930 . S
H206 C203 0.929 . S
S207 N208 1.613 . S
S207 N209 1.610 . S
N208 S207 1.613 . S
N208 C211 1.350 . S
N209 S207 1.610 . S
N209 C210 1.351 . S
C210 C204 1.428 . S
C210 N209 1.351 . S
C210 C211 1.434 . S
C211 C202 1.429 . S
C211 N208 1.350 . S
C211 C210 1.434 . S
C212 C213 1.369 . S
C212 C214 1.419 1_455 S
C212 H216 0.930 . S
C213 C212 1.369 . S
C213 C222 1.429 . S
C214 C212 1.419 1_655 S
C214 C215 1.363 . S
C214 H217 0.929 . S
C215 C214 1.363 . S
C215 C221 1.428 . S
H216 C212 0.930 . S
H217 C214 0.929 . S
S218 N219 1.613 . S
S218 N220 1.610 1_455 S
N219 S218 1.613 . S
N219 C222 1.350 . S
N220 S218 1.610 1_655 S
N220 C221 1.351 . S
C221 C215 1.428 . S
C221 N220 1.351 . S
C221 C222 1.434 1_655 S
C222 C213 1.429 . S
C222 N219 1.350 . S
C222 C221 1.434 1_455 S
C223 C224 1.369 1_554 S
C223 C225 1.419 . S
C223 H227 0.930 . S
C224 C223 1.369 1_556 S
C224 C233 1.429 1_545 S
C225 C223 1.419 . S
C225 C226 1.363 1_545 S
C225 H228 0.929 . S
C226 C225 1.363 1_565 S
C226 C232 1.428 1_554 S
H227 C223 0.930 . S
H228 C225 0.929 . S
S229 N230 1.613 . S
S229 N231 1.610 . S
N230 S229 1.613 . S
N230 C233 1.350 . S
N231 S229 1.610 . S
N231 C232 1.351 . S
C232 C226 1.428 1_556 S
C232 N231 1.351 . S
C232 C233 1.434 . S
C233 C224 1.429 1_565 S
C233 N230 1.350 . S
C233 C232 1.434 . S
C234 C235 1.369 . S
C234 C236 1.419 . S
C234 H238 0.930 . S
C235 C234 1.369 . S
C235 C244 1.429 . S
C236 C234 1.419 . S
C236 C237 1.363 . S
C236 H239 0.929 . S
C237 C236 1.363 . S
C237 C243 1.428 . S
H238 C234 0.930 . S
H239 C236 0.929 . S
S240 N241 1.613 . S
S240 N242 1.610 . S
N241 S240 1.613 . S
N241 C244 1.350 . S
N242 S240 1.610 . S
N242 C243 1.351 . S
C243 C237 1.428 . S
C243 N242 1.351 . S
C243 C244 1.434 . S
C244 C235 1.429 . S
C244 N241 1.350 . S
C244 C243 1.434 . S
C245 C246 1.369 . S
C245 C247 1.419 . S
C245 H249 0.930 . S
C246 C245 1.369 . S
C246 C255 1.429 . S
C247 C245 1.419 . S
C247 C248 1.363 . S
C247 H250 0.929 . S
C248 C247 1.363 . S
C248 C254 1.428 . S
H249 C245 0.930 . S
H250 C247 0.929 . S
S251 N252 1.613 . S
S251 N253 1.610 . S
N252 S251 1.613 . S
N252 C255 1.350 . S
N253 S251 1.610 . S
N253 C254 1.351 . S
C254 C248 1.428 . S
C254 N253 1.351 . S
C254 C255 1.434 . S
C255 C246 1.429 . S
C255 N252 1.350 . S
C255 C254 1.434 . S
C256 C257 1.369 . S
C256 C258 1.419 . S
C256 H260 0.930 . S
C257 C256 1.369 . S
C257 C266 1.429 . S
C258 C256 1.419 . S
C258 C259 1.363 . S
C258 H261 0.929 . S
C259 C258 1.363 . S
C259 C265 1.428 . S
H260 C256 0.930 . S
H261 C258 0.929 . S
S262 N263 1.613 . S
S262 N264 1.610 . S
N263 S262 1.613 . S
N263 C266 1.350 . S
N264 S262 1.610 . S
N264 C265 1.351 . S
C265 C259 1.428 . S
C265 N264 1.351 . S
C265 C266 1.434 . S
C266 C257 1.429 . S
C266 N263 1.350 . S
C266 C265 1.434 . S
C267 C268 1.369 . S
C267 C269 1.419 . S
C267 H271 0.930 . S
C268 C267 1.369 . S
C268 C277 1.429 . S
C269 C267 1.419 . S
C269 C270 1.363 . S
C269 H272 0.929 1_556 S
C270 C269 1.363 . S
C270 C276 1.428 . S
H271 C267 0.930 . S
H272 C269 0.929 1_554 S
S273 N274 1.613 . S
S273 N275 1.610 . S
N274 S273 1.613 . S
N274 C277 1.350 . S
N275 S273 1.610 . S
N275 C276 1.351 . S
C276 C270 1.428 . S
C276 N275 1.351 . S
C276 C277 1.434 . S
C277 C268 1.429 . S
C277 N274 1.350 . S
C277 C276 1.434 . S
C278 C279 1.369 . S
C278 C280 1.419 . S
C278 H282 0.930 . S
C279 C278 1.369 . S
C279 C288 1.429 . S
C280 C278 1.419 . S
C280 C281 1.363 . S
C280 H283 0.929 1_554 S
C281 C280 1.363 . S
C281 C287 1.428 . S
H282 C278 0.930 . S
H283 C280 0.929 1_556 S
S284 N285 1.613 . S
S284 N286 1.610 . S
N285 S284 1.613 . S
N285 C288 1.350 . S
N286 S284 1.610 . S
N286 C287 1.351 . S
C287 C281 1.428 . S
C287 N286 1.351 . S
C287 C288 1.434 . S
C288 C279 1.429 . S
C288 N285 1.350 . S
C288 C287 1.434 . S
C289 C290 1.369 . S
C289 C291 1.419 . S
C289 H293 0.930 . S
C290 C289 1.369 . S
C290 C299 1.429 . S
C291 C289 1.419 . S
C291 C292 1.363 . S
C291 H294 0.929 . S
C292 C291 1.363 . S
C292 C298 1.428 . S
H293 C289 0.930 . S
H294 C291 0.929 . S
S295 N296 1.613 . S
S295 N297 1.610 . S
N296 S295 1.613 . S
N296 C299 1.350 . S
N297 S295 1.610 . S
N297 C298 1.351 . S
C298 C292 1.428 . S
C298 N297 1.351 . S
C298 C299 1.434 . S
C299 C290 1.429 . S
C299 N296 1.350 . S
C299 C298 1.434 . S
C300 C301 1.369 . S
C300 C302 1.419 . S
C300 H304 0.930 . S
C301 C300 1.369 . S
C301 C310 1.429 . S
C302 C300 1.419 . S
C302 C303 1.363 . S
C302 H305 0.929 . S
C303 C302 1.363 . S
C303 C309 1.428 . S
H304 C300 0.930 . S
H305 C302 0.929 . S
S306 N307 1.613 . S
S306 N308 1.610 . S
N307 S306 1.613 . S
N307 C310 1.350 . S
N308 S306 1.610 . S
N308 C309 1.351 . S
C309 C303 1.428 . S
C309 N308 1.351 . S
C309 C310 1.434 . S
C310 C301 1.429 . S
C310 N307 1.350 . S
C310 C309 1.434 . S
C311 C312 1.369 . S
C311 C313 1.419 . S
C311 H315 0.930 . S
C312 C311 1.369 . S
C312 C321 1.429 1_655 S
C313 C311 1.419 . S
C313 C314 1.363 1_655 S
C313 H316 0.929 . S
C314 C313 1.363 1_455 S
C314 C320 1.428 . S
H315 C311 0.930 . S
H316 C313 0.929 . S
S317 N318 1.613 . S
S317 N319 1.610 . S
N318 S317 1.613 . S
N318 C321 1.350 . S
N319 S317 1.610 . S
N319 C320 1.351 . S
C320 C314 1.428 . S
C320 N319 1.351 . S
C320 C321 1.434 . S
C321 C312 1.429 1_455 S
C321 N318 1.350 . S
C321 C320 1.434 . S
C322 C323 1.369 . S
C322 C324 1.425 1_554 S
C322 H326 0.930 . S
C323 C322 1.369 . S
C323 C332 1.408 1_565 S
C324 C322 1.425 1_556 S
C324 C325 1.352 1_565 S
C324 H327 0.935 . S
C325 C324 1.352 1_545 S
C325 C331 1.428 . S
H326 C322 0.930 . S
H327 C324 0.935 . S
S328 N329 1.613 . S
S328 N330 1.610 1_554 S
N329 S328 1.613 . S
N329 C332 1.361 . S
N330 S328 1.610 1_556 S
N330 C331 1.351 . S
C331 C325 1.428 . S
C331 N330 1.351 . S
C331 C332 1.446 1_556 S
C332 C323 1.408 1_545 S
C332 N329 1.361 . S
C332 C331 1.446 1_554 S
C333 C334 1.369 . S
C333 C335 1.419 . S
C333 H337 0.930 . S
C334 C333 1.369 . S
C334 C343 1.429 . S
C335 C333 1.419 . S
C335 C336 1.363 . S
C335 H338 0.929 . S
C336 C335 1.363 . S
C336 C342 1.428 . S
H337 C333 0.930 . S
H338 C335 0.929 . S
S339 N340 1.613 . S
S339 N341 1.610 . S
N340 S339 1.613 . S
N340 C343 1.350 . S
N341 S339 1.610 . S
N341 C342 1.351 . S
C342 C336 1.428 . S
C342 N341 1.351 . S
C342 C343 1.434 . S
C343 C334 1.429 . S
C343 N340 1.350 . S
C343 C342 1.434 . S
C344 C345 1.369 . S
C344 C346 1.419 1_455 S
C344 H348 0.930 . S
C345 C344 1.369 . S
C345 C354 1.429 . S
C346 C344 1.419 1_655 S
C346 C347 1.363 . S
C346 H349 0.929 . S
C347 C346 1.363 . S
C347 C353 1.428 . S
H348 C344 0.930 . S
H349 C346 0.929 . S
S350 N351 1.581 1_655 S
S350 N352 1.610 . S
N351 S350 1.581 1_455 S
N351 C354 1.368 . S
N352 S350 1.610 . S
N352 C353 1.351 . S
C353 C347 1.428 . S
C353 N352 1.351 . S
C353 C354 1.434 1_655 S
C354 C345 1.429 . S
C354 N351 1.368 . S
C354 C353 1.434 1_455 S
C355 C356 1.369 . S
C355 C357 1.437 . S
C355 H359 0.930 . S
C356 C355 1.369 . S
C356 C365 1.429 1_565 S
C357 C355 1.437 . S
C357 C358 1.330 1_565 S
C357 H360 0.945 . S
C358 C357 1.330 1_545 S
C358 C364 1.428 . S
H359 C355 0.930 . S
H360 C357 0.945 . S
S361 N362 1.613 . S
S361 N363 1.610 . S
N362 S361 1.613 . S
N362 C365 1.350 . S
N363 S361 1.610 . S
N363 C364 1.351 . S
C364 C358 1.428 . S
C364 N363 1.351 . S
C364 C365 1.434 . S
C365 C356 1.429 1_545 S
C365 N362 1.350 . S
C365 C364 1.434 . S
C366 C367 1.369 . S
C366 C368 1.419 . S
C366 H370 0.930 . S
C367 C366 1.369 . S
C367 C376 1.429 . S
C368 C366 1.419 . S
C368 C369 1.363 . S
C368 H371 0.929 . S
C369 C368 1.363 . S
C369 C375 1.428 . S
H370 C366 0.930 . S
H371 C368 0.929 . S
S372 N373 1.613 . S
S372 N374 1.610 . S
N373 S372 1.613 . S
N373 C376 1.350 . S
N374 S372 1.610 . S
N374 C375 1.351 . S
C375 C369 1.428 . S
C375 N374 1.351 . S
C375 C376 1.434 . S
C376 C367 1.429 . S
C376 N373 1.350 . S
C376 C375 1.434 . S
C377 C378 1.369 . S
C377 C379 1.419 . S
C377 H381 0.930 . S
C378 C377 1.369 . S
C378 C387 1.429 . S
C379 C377 1.419 . S
C379 C380 1.363 . S
C379 H382 0.929 . S
C380 C379 1.363 . S
C380 C386 1.428 . S
H381 C377 0.930 . S
H382 C379 0.929 . S
S383 N384 1.613 . S
S383 N385 1.610 . S
N384 S383 1.613 . S
N384 C387 1.350 . S
N385 S383 1.610 . S
N385 C386 1.351 . S
C386 C380 1.428 . S
C386 N385 1.351 . S
C386 C387 1.434 . S
C387 C378 1.429 . S
C387 N384 1.350 . S
C387 C386 1.434 . S
C388 C389 1.369 . S
C388 C390 1.419 . S
C388 H392 0.930 . S
C389 C388 1.369 . S
C389 C398 1.429 . S
C390 C388 1.419 . S
C390 C391 1.363 . S
C390 H393 0.929 . S
C391 C390 1.363 . S
C391 C397 1.428 . S
H392 C388 0.930 . S
H393 C390 0.929 . S
S394 N395 1.613 . S
S394 N396 1.610 . S
N395 S394 1.613 . S
N395 C398 1.350 . S
N396 S394 1.610 . S
N396 C397 1.351 . S
C397 C391 1.428 . S
C397 N396 1.351 . S
C397 C398 1.434 . S
C398 C389 1.429 . S
C398 N395 1.350 . S
C398 C397 1.434 . S
C399 C400 1.369 . S
C399 C401 1.419 . S
C399 H403 0.930 . S
C400 C399 1.369 . S
C400 C409 1.429 . S
C401 C399 1.419 . S
C401 C402 1.363 . S
C401 H404 0.929 1_554 S
C402 C401 1.363 . S
C402 C408 1.428 . S
H403 C399 0.930 . S
H404 C401 0.929 1_556 S
S405 N406 1.613 . S
S405 N407 1.610 . S
N406 S405 1.613 . S
N406 C409 1.350 . S
N407 S405 1.610 . S
N407 C408 1.351 . S
C408 C402 1.428 . S
C408 N407 1.351 . S
C408 C409 1.434 . S
C409 C400 1.429 . S
C409 N406 1.350 . S
C409 C408 1.434 . S
C410 C411 1.369 . S
C410 C412 1.419 . S
C410 H414 0.930 . S
C411 C410 1.369 . S
C411 C420 1.429 . S
C412 C410 1.419 . S
C412 C413 1.363 . S
C412 H415 0.929 . S
C413 C412 1.363 . S
C413 C419 1.428 . S
H414 C410 0.930 . S
H415 C412 0.929 . S
S416 N417 1.613 . S
S416 N418 1.610 . S
N417 S416 1.613 . S
N417 C420 1.350 . S
N418 S416 1.610 . S
N418 C419 1.351 . S
C419 C413 1.428 . S
C419 N418 1.351 . S
C419 C420 1.434 . S
C420 C411 1.429 . S
C420 N417 1.350 . S
C420 C419 1.434 . S
C421 C422 1.369 . S
C421 C423 1.419 . S
C421 H425 0.930 . S
C422 C421 1.369 . S
C422 C431 1.429 . S
C423 C421 1.419 . S
C423 C424 1.363 . S
C423 H426 0.929 . S
C424 C423 1.363 . S
C424 C430 1.428 . S
H425 C421 0.930 . S
H426 C423 0.929 . S
S427 N428 1.613 . S
S427 N429 1.610 . S
N428 S427 1.613 . S
N428 C431 1.350 . S
N429 S427 1.610 . S
N429 C430 1.351 . S
C430 C424 1.428 . S
C430 N429 1.351 . S
C430 C431 1.434 . S
C431 C422 1.429 . S
C431 N428 1.350 . S
C431 C430 1.434 . S
C169 C134 1.563 . S
C171 C8 1.556 . S
C180 C22 1.556 . S
C182 C148 1.555 . S
C191 C162 1.557 . S
C193 C36 1.561 . S
C202 C92 1.553 . S
C204 C50 1.562 . S
C213 C106 1.562 . S
C215 C64 1.557 . S
C224 C120 1.551 . S
C226 C78 1.562 . S
C235 C91 1.525 . S
C237 C7 1.530 . S
C246 C21 1.523 . S
C248 C105 1.527 . S
C257 C119 1.526 . S
C259 C35 1.531 . S
C268 C49 1.531 . S
C270 C133 1.529 . S
C279 C147 1.532 . S
C281 C63 1.528 . S
C290 C77 1.524 . S
C292 C161 1.530 . S
C301 C139 0.850 . S
C303 C13 0.843 . S
C312 C153 0.826 . S
C314 C27 0.833 . S
C323 C167 0.827 . S
C325 C41 0.831 . S
C334 C55 0.842 . S
C336 C97 0.847 . S
C345 C111 0.842 . S
C347 C69 0.847 . S
C356 C83 0.840 . S
C358 C125 0.846 . S
C367 C11 1.527 . S
C369 C123 1.533 . S
C378 C137 1.534 . S
C380 C25 1.528 . S
C389 C151 1.530 1_556 S
C391 C39 1.534 . S
C400 C165 1.536 . S
C402 C53 1.528 1_554 S
C411 C95 1.526 . S
C413 C67 1.535 . S
C422 C109 1.527 . S
C424 C81 1.536 . S
