# Generated by pormake.
# Topology crb, (4)-cn, num edge types: 1
# Building blocks:
#     Node 0, Type 0, BuildingBlock: QUQFOY_clean_sbu_1, # of connection points: 4
#     Node 1, Type 0, BuildingBlock: QUQFOY_clean_sbu_1, # of connection points: 4
#     Node 2, Type 0, BuildingBlock: QUQFOY_clean_sbu_1, # of connection points: 4
#     Node 3, Type 0, BuildingBlock: QUQFOY_clean_sbu_1, # of connection points: 4
#     Node 4, Type 0, BuildingBlock: QUQFOY_clean_sbu_1, # of connection points: 4
#     Node 5, Type 0, BuildingBlock: QUQFOY_clean_sbu_1, # of connection points: 4
#     Node 6, Type 0, BuildingBlock: QUQFOY_clean_sbu_1, # of connection points: 4
#     Node 7, Type 0, BuildingBlock: QUQFOY_clean_sbu_1, # of connection points: 4
#     Edge 8, Type (0, 0), BuildingBlock: FUNLAD_clean_linker_0, # of connection points: 2
#     Edge 9, Type (0, 0), BuildingBlock: FUNLAD_clean_linker_0, # of connection points: 2
#     Edge 10, Type (0, 0), BuildingBlock: FUNLAD_clean_linker_0, # of connection points: 2
#     Edge 11, Type (0, 0), BuildingBlock: FUNLAD_clean_linker_0, # of connection points: 2
#     Edge 12, Type (0, 0), BuildingBlock: FUNLAD_clean_linker_0, # of connection points: 2
#     Edge 13, Type (0, 0), BuildingBlock: FUNLAD_clean_linker_0, # of connection points: 2
#     Edge 14, Type (0, 0), BuildingBlock: FUNLAD_clean_linker_0, # of connection points: 2
#     Edge 15, Type (0, 0), BuildingBlock: FUNLAD_clean_linker_0, # of connection points: 2
#     Edge 16, Type (0, 0), BuildingBlock: FUNLAD_clean_linker_0, # of connection points: 2
#     Edge 17, Type (0, 0), BuildingBlock: FUNLAD_clean_linker_0, # of connection points: 2
#     Edge 18, Type (0, 0), BuildingBlock: FUNLAD_clean_linker_0, # of connection points: 2
#     Edge 19, Type (0, 0), BuildingBlock: FUNLAD_clean_linker_0, # of connection points: 2
#     Edge 20, Type (0, 0), BuildingBlock: FUNLAD_clean_linker_0, # of connection points: 2
#     Edge 21, Type (0, 0), BuildingBlock: FUNLAD_clean_linker_0, # of connection points: 2
#     Edge 22, Type (0, 0), BuildingBlock: FUNLAD_clean_linker_0, # of connection points: 2
#     Edge 23, Type (0, 0), BuildingBlock: FUNLAD_clean_linker_0, # of connection points: 2
# Relax obj value: 0.154
# Max RMSD: 0.216
# Mean RMSD: 0.216
data_MOF--net-crb--node1-QUQFOY_clean_sbu_1--edge1-FUNLAD_clean_linker_0
_symmetry_space_group_name_H-M    P1
_symmetry_Int_Tables_number       1
_symmetry_cell_setting            triclinic
loop_
_symmetry_equiv_pos_as_xyz
'x, y, z'
_cell_length_a     46.978294
_cell_length_b     58.531859
_cell_length_c     26.986558
_cell_angle_alpha  90.004978
_cell_angle_beta   89.856784
_cell_angle_gamma 90.01803
loop_
_atom_site_label
_atom_site_type_symbol
_atom_site_fract_x
_atom_site_fract_y
_atom_site_fract_z
_atom_type_partial_charge
O0 O 0.29679 0.31586 0.05002 0.0
Cd1 Cd 0.31591 0.33138 0.11004 0.0
Cd2 Cd 0.30866 0.36945 0.04766 0.0
O3 O 0.28689 0.34621 0.00476 0.0
O4 O 0.31971 0.30535 0.15681 0.0
O5 O 0.29297 0.33547 0.17293 0.0
C6 C 0.30247 0.31571 0.1863 0.0
C7 C 0.28855 0.40487 0.06601 0.0
C8 C 0.28566 0.32477 0.01177 0.0
C9 C 0.36829 0.35692 0.07508 0.0
O10 O 0.35252 0.36869 0.04671 0.0
O11 O 0.35748 0.34234 0.10448 0.0
O12 O 0.29832 0.40028 0.02244 0.0
O13 O 0.28934 0.38892 0.09912 0.0
O14 O 0.70024 0.31191 0.12474 0.0
Cd15 Cd 0.68258 0.32936 0.06593 0.0
Cd16 Cd 0.68897 0.36481 0.14168 0.0
O17 O 0.70666 0.33851 0.18179 0.0
O18 O 0.6754 0.30309 0.02095 0.0
O19 O 0.70582 0.33049 0.00251 0.0
C20 C 0.69403 0.3113 0.99094 0.0
C21 C 0.71153 0.40027 0.13663 0.0
C22 C 0.70874 0.31791 0.16743 0.0
C23 C 0.63047 0.35593 0.10175 0.0
O24 O 0.64546 0.36561 0.13473 0.0
O25 O 0.64175 0.34239 0.07054 0.0
O26 O 0.69885 0.39368 0.17659 0.0
O27 O 0.71231 0.38624 0.09964 0.0
O28 O 0.69863 0.69044 0.08315 0.0
Cd29 Cd 0.68646 0.66982 0.14149 0.0
Cd30 Cd 0.68881 0.63793 0.06147 0.0
O31 O 0.7037 0.66564 0.02204 0.0
O32 O 0.68318 0.69291 0.1951 0.0
O33 O 0.71551 0.66556 0.19608 0.0
C34 C 0.70457 0.68348 0.21647 0.0
C35 C 0.71248 0.60295 0.06121 0.0
C36 C 0.70525 0.68594 0.03855 0.0
C37 C 0.63293 0.64373 0.11317 0.0
O38 O 0.64588 0.63588 0.07552 0.0
O39 O 0.64591 0.65618 0.14439 0.0
O40 O 0.69812 0.60981 0.02334 0.0
O41 O 0.71451 0.61657 0.09878 0.0
O42 O 0.30882 0.69816 0.13276 0.0
Cd43 Cd 0.32274 0.67966 0.07239 0.0
Cd44 Cd 0.31372 0.64409 0.13926 0.0
O45 O 0.2951 0.66969 0.18071 0.0
O46 O 0.3268 0.70392 0.02148 0.0
O47 O 0.296 0.67558 0.01459 0.0
C48 C 0.30681 0.69415 -0.0032 0.0
C49 C 0.28982 0.60977 0.12582 0.0
C50 C 0.29701 0.69099 0.17217 0.0
C51 C 0.37322 0.65126 0.10317 0.0
O52 O 0.35757 0.64194 0.13587 0.0
O53 O 0.36276 0.66548 0.07273 0.0
O54 O 0.30084 0.61459 0.16828 0.0
O55 O 0.29149 0.62495 0.09111 0.0
O56 O 0.79122 0.81166 0.58302 0.0
Cd57 Cd 0.80475 0.8317 0.64107 0.0
Cd58 Cd 0.80237 0.86441 0.56259 0.0
O59 O 0.78711 0.83693 0.52263 0.0
O60 O 0.80733 0.80853 0.69466 0.0
O61 O 0.77641 0.83691 0.69665 0.0
C62 C 0.78661 0.81866 0.71672 0.0
C63 C 0.77903 0.89955 0.56261 0.0
C64 C 0.78481 0.81658 0.53862 0.0
C65 C 0.85875 0.85704 0.61162 0.0
O66 O 0.84538 0.86624 0.57601 0.0
O67 O 0.84598 0.84388 0.64183 0.0
O68 O 0.79334 0.89261 0.52463 0.0
O69 O 0.77688 0.88594 0.60018 0.0
O70 O 0.19596 0.81043 0.6374 0.0
Cd71 Cd 0.17434 0.82382 0.57809 0.0
Cd72 Cd 0.17881 0.864 0.64148 0.0
O73 O 0.20107 0.84097 0.68461 0.0
O74 O 0.17131 0.79639 0.53506 0.0
O75 O 0.19484 0.82729 0.51237 0.0
C76 C 0.18664 0.80673 0.50255 0.0
C77 C 0.19676 0.90111 0.63411 0.0
C78 C 0.2052 0.81982 0.6766 0.0
C79 C 0.12022 0.84729 0.61287 0.0
O80 O 0.13502 0.86139 0.63768 0.0
O81 O 0.13206 0.83191 0.58681 0.0
O82 O 0.18512 0.89398 0.67451 0.0
O83 O 0.19881 0.88689 0.59764 0.0
O84 O 0.20049 0.19629 0.5507 0.0
Cd85 Cd 0.18022 0.1816 0.6103 0.0
Cd86 Cd 0.18504 0.14233 0.54666 0.0
O87 O 0.20602 0.166 0.50287 0.0
O88 O 0.17755 0.20774 0.65703 0.0
O89 O 0.20218 0.17659 0.67381 0.0
C90 C 0.19366 0.19666 0.68704 0.0
C91 C 0.2043 0.10571 0.55427 0.0
C92 C 0.20953 0.18722 0.51093 0.0
C93 C 0.12631 0.15738 0.57786 0.0
O94 O 0.14122 0.14373 0.55201 0.0
O95 O 0.13801 0.1729 0.60359 0.0
O96 O 0.19243 0.11245 0.51386 0.0
O97 O 0.20598 0.12009 0.59048 0.0
O98 O 0.80224 0.19109 0.62389 0.0
Cd99 Cd 0.81295 0.17181 0.56293 0.0
Cd100 Cd 0.80819 0.13706 0.63528 0.0
O101 O 0.7925 0.16374 0.67758 0.0
O102 O 0.81581 0.19577 0.51107 0.0
O103 O 0.78334 0.1685 0.50906 0.0
C104 C 0.79421 0.18667 0.48959 0.0
C105 C 0.78433 0.10208 0.63315 0.0
C106 C 0.7934 0.18482 0.66626 0.0
C107 C 0.86535 0.14429 0.58786 0.0
O108 O 0.85155 0.13497 0.623 0.0
O109 O 0.85313 0.15812 0.5586 0.0
O110 O 0.79859 0.10846 0.6715 0.0
O111 O 0.78269 0.11608 0.59621 0.0
C112 C 0.27737 0.44498 0.04081 0.0
C113 C 0.2788 0.42827 0.07813 0.0
C114 C 0.27185 0.46779 0.05262 0.0
C115 C 0.2675 0.47444 0.1022 0.0
C116 C 0.26783 0.45756 0.13924 0.0
C117 C 0.27326 0.4347 0.12737 0.0
C118 C 0.26593 0.4989 0.11722 0.0
C119 C 0.25888 0.51608 0.08619 0.0
C120 C 0.26292 0.54074 0.09827 0.0
C121 C 0.26506 0.55648 0.05907 0.0
C122 C 0.27243 0.57927 0.06806 0.0
C123 C 0.27778 0.5868 0.11655 0.0
H124 H 0.26365 0.5376 0.17871 0.0
C125 C 0.27383 0.57147 0.15604 0.0
C126 C 0.26629 0.54875 0.14712 0.0
H127 H 0.27729 0.57686 0.19396 0.0
H128 H 0.28159 0.44061 0.00248 0.0
H129 H 0.27256 0.48018 0.02294 0.0
H130 H 0.26474 0.46218 0.17777 0.0
H131 H 0.27426 0.42225 0.15701 0.0
H132 H 0.27258 0.5027 0.15476 0.0
H133 H 0.25191 0.51208 0.04888 0.0
H134 H 0.26224 0.55092 0.0211 0.0
H135 H 0.27514 0.59069 0.03682 0.0
C136 C 0.41665 0.34999 0.11051 0.0
C137 C 0.39955 0.3599 0.07365 0.0
C138 C 0.44621 0.35216 0.10872 0.0
C139 C 0.45936 0.36429 0.06992 0.0
C140 C 0.44233 0.37412 0.03299 0.0
C141 C 0.41269 0.37215 0.03505 0.0
C142 C 0.49079 0.36563 0.06556 0.0
C143 C 0.50806 0.36546 0.10529 0.0
C144 C 0.53954 0.36454 0.10152 0.0
C145 C 0.55594 0.37298 0.14085 0.0
C146 C 0.58555 0.37079 0.1403 0.0
C147 C 0.59934 0.35973 0.10071 0.0
H148 H 0.54136 0.34658 0.03106 0.0
C149 C 0.58292 0.35148 0.06107 0.0
C150 C 0.55334 0.35387 0.06141 0.0
H151 H 0.59286 0.34282 0.03005 0.0
H152 H 0.40723 0.34037 0.14067 0.0
H153 H 0.45869 0.34376 0.13703 0.0
H154 H 0.45199 0.38332 0.00244 0.0
H155 H 0.40012 0.37987 0.00592 0.0
H156 H 0.49981 0.36718 0.02861 0.0
H157 H 0.49888 0.36628 0.14224 0.0
H158 H 0.5458 0.38109 0.17237 0.0
H159 H 0.59755 0.37726 0.17153 0.0
C160 C 0.73383 0.43217 0.08765 0.0
C161 C 0.72282 0.42384 0.13262 0.0
C162 C 0.74109 0.45528 0.0826 0.0
C163 C 0.73722 0.47057 0.12245 0.0
C164 C 0.72785 0.46184 0.16813 0.0
C165 C 0.72067 0.43881 0.17316 0.0
C166 C 0.74098 0.4958 0.11786 0.0
C167 C 0.7407 0.50713 0.07431 0.0
C168 C 0.73765 0.53243 0.07028 0.0
C169 C 0.72674 0.54148 0.02605 0.0
C170 C 0.71989 0.56462 0.02236 0.0
C171 C 0.72393 0.57938 0.06282 0.0
H172 H 0.75306 0.54154 0.14376 0.0
C173 C 0.73667 0.57074 0.10599 0.0
C174 C 0.7436 0.54752 0.10967 0.0
H175 H 0.74042 0.58173 0.1376 0.0
H176 H 0.73608 0.42099 0.05588 0.0
H177 H 0.74924 0.46099 0.04723 0.0
H178 H 0.72497 0.47305 0.19969 0.0
H179 H 0.71252 0.43294 0.20852 0.0
H180 H 0.74061 0.50544 0.15217 0.0
H181 H 0.73917 0.49755 0.04003 0.0
H182 H 0.72227 0.53041 0.99483 0.0
H183 H 0.71037 0.57074 0.98833 0.0
C184 C 0.41746 0.63357 0.13842 0.0
C185 C 0.40392 0.6458 0.10035 0.0
C186 C 0.44674 0.62932 0.13624 0.0
C187 C 0.46297 0.63718 0.09576 0.0
C188 C 0.44923 0.64867 0.05705 0.0
C189 C 0.4201 0.6531 0.05942 0.0
C190 C 0.49424 0.63403 0.09265 0.0
C191 C 0.51117 0.63308 0.13276 0.0
C192 C 0.54267 0.63373 0.12887 0.0
C193 C 0.55828 0.64442 0.16656 0.0
C194 C 0.58769 0.64725 0.162 0.0
C195 C 0.60216 0.63918 0.11982 0.0
H196 H 0.54606 0.61565 0.05877 0.0
C197 C 0.58672 0.62742 0.08326 0.0
C198 C 0.55729 0.62469 0.08773 0.0
H199 H 0.59725 0.6207 0.05061 0.0
H200 H 0.40553 0.62753 0.17024 0.0
H201 H 0.45651 0.61983 0.16609 0.0
H202 H 0.46119 0.65474 0.02526 0.0
H203 H 0.4103 0.66236 0.02919 0.0
H204 H 0.5038 0.63499 0.05599 0.0
H205 H 0.50188 0.63445 0.16954 0.0
H206 H 0.54756 0.65132 0.19888 0.0
H207 H 0.59896 0.65617 0.19114 0.0
C208 C 0.75546 0.93202 0.60775 0.0
C209 C 0.76775 0.92318 0.56427 0.0
C210 C 0.74875 0.95528 0.61131 0.0
C211 C 0.75446 0.97021 0.57148 0.0
C212 C 0.76489 0.96096 0.527 0.0
C213 C 0.77154 0.93777 0.52343 0.0
C214 C 0.75172 0.99554 0.57526 0.0
C215 C 0.75222 0.00701 0.61863 0.0
C216 C 0.75654 0.03219 0.62254 0.0
C217 C 0.76721 0.04095 0.66724 0.0
C218 C 0.77505 0.06388 0.67123 0.0
C219 C 0.77226 0.07872 0.63062 0.0
H220 H 0.74286 0.04166 0.54825 0.0
C221 C 0.7599 0.07041 0.5868 0.0
C222 C 0.75201 0.0474 0.58279 0.0
H223 H 0.75714 0.0815 0.55505 0.0
H224 H 0.75192 0.92115 0.63966 0.0
H225 H 0.73967 0.96144 0.64564 0.0
H226 H 0.76916 0.9719 0.49544 0.0
H227 H 0.78069 0.93149 0.48916 0.0
H228 H 0.75291 0.005 0.54077 0.0
H229 H 0.75299 0.99747 0.65306 0.0
H230 H 0.77063 0.0298 0.69872 0.0
H231 H 0.78423 0.06974 0.70575 0.0
C232 C 0.07471 0.86747 0.63461 0.0
C233 C 0.0888 0.84822 0.6153 0.0
C234 C 0.04498 0.86797 0.63746 0.0
C235 C 0.02885 0.84913 0.62143 0.0
C236 C 0.04296 0.82987 0.60262 0.0
C237 C 0.07257 0.82949 0.59911 0.0
C238 C -0.00258 0.84852 0.62537 0.0
C239 C 0.98089 0.8672 0.62132 0.0
C240 C 0.94941 0.86555 0.62188 0.0
C241 C 0.93339 0.87986 0.59098 0.0
C242 C 0.90383 0.87738 0.5881 0.0
C243 C 0.88974 0.86081 0.61685 0.0
H244 H 0.94695 0.83874 0.67731 0.0
C245 C 0.90572 0.84725 0.64955 0.0
C246 C 0.93524 0.84956 0.65199 0.0
H247 H 0.89552 0.83447 0.67255 0.0
H248 H 0.08665 0.88213 0.64755 0.0
H249 H 0.03475 0.88288 0.6532 0.0
H250 H 0.031 0.81509 0.59035 0.0
H251 H 0.08274 0.81432 0.58438 0.0
H252 H 0.98747 0.8318 0.62819 0.0
H253 H 0.99045 0.88368 0.61319 0.0
H254 H 0.94384 0.89246 0.56784 0.0
H255 H 0.8921 0.88826 0.56291 0.0
C256 C 0.22138 0.07275 0.60586 0.0
C257 C 0.21391 0.08174 0.5594 0.0
C258 C 0.22706 0.04939 0.61123 0.0
C259 C 0.22533 0.03459 0.57014 0.0
C260 C 0.21959 0.0439 0.52333 0.0
C261 C 0.21377 0.06715 0.51802 0.0
C262 C 0.22803 0.00933 0.57461 0.0
C263 C 0.22055 0.99782 0.61594 0.0
C264 C 0.21788 0.97245 0.61963 0.0
C265 C 0.21022 0.96313 0.66572 0.0
C266 C 0.20432 0.93986 0.67062 0.0
C267 C 0.20596 0.92522 0.62947 0.0
H268 H 0.22637 0.96373 0.54231 0.0
C269 C 0.21475 0.93422 0.58368 0.0
C270 C 0.22061 0.95758 0.57869 0.0
H271 H 0.21625 0.92336 0.55128 0.0
H272 H 0.22198 0.08359 0.63836 0.0
H273 H 0.23246 0.04302 0.64764 0.0
H274 H 0.21846 0.03298 0.49095 0.0
H275 H 0.20839 0.07357 0.48158 0.0
H276 H 0.23378 1.00013 0.54124 0.0
H277 H 0.21407 0.00749 0.6484 0.0
H278 H 0.20799 0.974 0.69801 0.0
H279 H 0.19778 0.93349 0.70657 0.0
C280 C 0.91217 0.15303 0.54803 0.0
C281 C 0.89628 0.14015 0.58229 0.0
C282 C 0.94167 0.15076 0.54538 0.0
C283 C 0.95597 0.13552 0.5769 0.0
C284 C 0.94007 0.12174 0.60927 0.0
C285 C 0.91047 0.12416 0.6123 0.0
C286 C 0.98748 0.13429 0.57736 0.0
C287 C 0.00351 0.15321 0.57216 0.0
C288 C 0.03497 0.15325 0.57486 0.0
C289 C 0.04866 0.17297 0.5922 0.0
C290 C 0.07828 0.1741 0.59391 0.0
C291 C 0.09491 0.15567 0.57728 0.0
H292 H 0.04156 0.11941 0.54394 0.0
C293 C 0.08124 0.13593 0.55953 0.0
C294 C 0.0515 0.13467 0.55856 0.0
H295 H 0.0935 0.12147 0.54637 0.0
H296 H 0.90194 0.16532 0.52393 0.0
H297 H 0.95329 0.16111 0.51891 0.0
H298 H 0.95064 0.10969 0.6335 0.0
H299 H 0.89881 0.11383 0.63874 0.0
H300 H -0.00256 0.11804 0.58602 0.0
H301 H 0.99308 0.16972 0.56883 0.0
H302 H 0.03637 0.18756 0.60462 0.0
H303 H 0.08814 0.18961 0.6075 0.0
C304 C 0.22798 0.22518 0.4821 0.0
C305 C 0.22374 0.20173 0.47328 0.0
C306 C 0.24065 0.23907 0.44616 0.0
C307 C 0.24921 0.22983 0.40035 0.0
C308 C 0.24549 0.20633 0.39201 0.0
C309 C 0.23283 0.19243 0.42794 0.0
C310 C 0.2626 0.24386 0.36073 0.0
C311 C 0.26 0.26677 0.35718 0.0
C312 C 0.27251 0.28008 0.31554 0.0
C313 C 0.25977 0.30077 0.30125 0.0
C314 C 0.26996 0.31289 0.26012 0.0
C315 C 0.29318 0.30452 0.23271 0.0
H316 H 0.30795 0.25715 0.30072 0.0
C317 C 0.30676 0.28443 0.24852 0.0
C318 C 0.2967 0.27243 0.28962 0.0
H319 H 0.32505 0.27775 0.22874 0.0
H320 H 0.2215 0.23288 0.51684 0.0
H321 H 0.24395 0.25691 0.45485 0.0
H322 H 0.25212 0.19869 0.35728 0.0
H323 H 0.23001 0.17444 0.41996 0.0
H324 H 0.27369 0.2346 0.33165 0.0
H325 H 0.24671 0.27597 0.38338 0.0
H326 H 0.24137 0.30724 0.32105 0.0
H327 H 0.25916 0.3284 0.24899 0.0
C328 C 0.71843 0.30244 0.25219 0.0
C329 C 0.72095 0.30044 0.20052 0.0
C330 C 0.72904 0.28531 0.28316 0.0
C331 C 0.74285 0.26612 0.26291 0.0
C332 C 0.74597 0.26442 0.2114 0.0
C333 C 0.73472 0.28123 0.18041 0.0
C334 C 0.75556 0.2484 0.295 0.0
C335 C 0.74268 0.24087 0.33645 0.0
C336 C 0.75659 0.22482 0.37126 0.0
C337 C 0.7399 0.20969 0.39938 0.0
C338 C 0.75237 0.19607 0.43606 0.0
C339 C 0.7816 0.1979 0.44598 0.0
H340 H 0.79946 0.2377 0.35963 0.0
C341 C 0.79838 0.21262 0.41701 0.0
C342 C 0.78606 0.22586 0.37985 0.0
H343 H 0.82097 0.21441 0.42401 0.0
H344 H 0.70788 0.31707 0.26861 0.0
H345 H 0.72695 0.28729 0.3229 0.0
H346 H 0.75685 0.24992 0.19509 0.0
H347 H 0.73711 0.27933 0.14067 0.0
H348 H 0.77571 0.24098 0.28341 0.0
H349 H 0.72124 0.24662 0.34518 0.0
H350 H 0.71712 0.20873 0.39363 0.0
H351 H 0.73893 0.18502 0.45823 0.0
C352 C 0.77804 0.7996 0.4542 0.0
C353 C 0.77437 0.79824 0.50578 0.0
C354 C 0.76854 0.78189 0.42361 0.0
C355 C 0.75475 0.76273 0.44409 0.0
C356 C 0.75069 0.76159 0.49548 0.0
C357 C 0.76078 0.77899 0.52613 0.0
C358 C 0.74262 0.7446 0.41232 0.0
C359 C 0.75559 0.73716 0.37087 0.0
C360 C 0.74182 0.72099 0.33607 0.0
C361 C 0.75867 0.70619 0.30739 0.0
C362 C 0.74632 0.69266 0.27042 0.0
C363 C 0.71703 0.69424 0.26078 0.0
H364 H 0.69875 0.73326 0.34846 0.0
C365 C 0.70009 0.70853 0.29044 0.0
C366 C 0.7123 0.72169 0.32785 0.0
H367 H 0.67746 0.71013 0.28363 0.0
H368 H 0.78845 0.81424 0.43757 0.0
H369 H 0.77133 0.78347 0.38391 0.0
H370 H 0.7398 0.74713 0.51196 0.0
H371 H 0.7575 0.77756 0.56576 0.0
H372 H 0.72263 0.73691 0.42399 0.0
H373 H 0.77688 0.74319 0.36194 0.0
H374 H 0.7815 0.7055 0.31283 0.0
H375 H 0.75989 0.68195 0.2477 0.0
C376 C 0.21627 0.80372 0.42512 0.0
C377 C 0.19534 0.79469 0.45681 0.0
C378 C 0.22611 0.79102 0.38452 0.0
C379 C 0.21513 0.76903 0.37499 0.0
C380 C 0.19332 0.76059 0.40552 0.0
C381 C 0.18363 0.77318 0.44599 0.0
C382 C 0.22598 0.75386 0.33494 0.0
C383 C 0.25104 0.75667 0.31138 0.0
C384 C 0.26224 0.73959 0.27564 0.0
C385 C 0.27958 0.74692 0.23638 0.0
C386 C 0.29076 0.73116 0.20263 0.0
C387 C 0.28523 0.70766 0.20803 0.0
H388 H 0.24448 0.7097 0.31223 0.0
C389 C 0.26832 0.70029 0.24793 0.0
C390 C 0.25694 0.71607 0.28138 0.0
H391 H 0.2638 0.68231 0.25337 0.0
H392 H 0.22553 0.82034 0.43233 0.0
H393 H 0.24234 0.79853 0.36121 0.0
H394 H 0.18423 0.74385 0.39891 0.0
H395 H 0.16727 0.7658 0.46939 0.0
H396 H 0.21314 0.73896 0.32614 0.0
H397 H 0.26401 0.77166 0.31819 0.0
H398 H 0.28428 0.76491 0.23153 0.0
H399 H 0.30387 0.73742 0.17247 0.0
C400 C 0.22456 0.78221 0.70521 0.0
C401 C 0.22037 0.80569 0.7136 0.0
C402 C 0.23815 0.76864 0.74052 0.0
C403 C 0.24774 0.77825 0.78523 0.0
C404 C 0.24411 0.80179 0.79312 0.0
C405 C 0.23048 0.81537 0.75783 0.0
C406 C 0.26218 0.76449 0.82395 0.0
C407 C 0.25887 0.74172 0.82917 0.0
C408 C 0.2726 0.72864 0.86975 0.0
C409 C 0.25941 0.70876 0.88786 0.0
C410 C 0.27091 0.69698 0.92827 0.0
C411 C 0.29593 0.70484 0.95101 0.0
H412 H 0.30992 0.75037 0.87666 0.0
C413 C 0.30987 0.72404 0.93121 0.0
C414 C 0.29845 0.73573 0.89091 0.0
H415 H 0.32947 0.73031 0.94734 0.0
H416 H 0.2173 0.77421 0.67131 0.0
H417 H 0.24137 0.75074 0.73221 0.0
H418 H 0.25157 0.80969 0.82701 0.0
H419 H 0.22774 0.83341 0.76539 0.0
H420 H 0.27471 0.77384 0.85098 0.0
H421 H 0.24416 0.73257 0.8054 0.0
H422 H 0.2397 0.70273 0.8717 0.0
H423 H 0.25978 0.68215 0.94253 0.0
C424 C 0.26923 0.28624 0.98276 0.0
C425 C 0.27161 0.30991 0.97472 0.0
C426 C 0.25654 0.27213 0.94732 0.0
C427 C 0.24614 0.2814 0.90278 0.0
C428 C 0.24809 0.30509 0.89526 0.0
C429 C 0.26071 0.31919 0.93069 0.0
C430 C 0.23265 0.26724 0.86354 0.0
C431 C 0.23569 0.2444 0.85933 0.0
C432 C 0.22314 0.2312 0.81765 0.0
C433 C 0.23616 0.21076 0.8023 0.0
C434 C 0.22608 0.19892 0.76078 0.0
C435 C 0.20274 0.20736 0.73399 0.0
H436 H 0.1872 0.25382 0.80446 0.0
C437 C 0.18883 0.22712 0.75093 0.0
C438 C 0.19872 0.23879 0.79249 0.0
H439 H 0.17041 0.23379 0.73168 0.0
H440 H 0.27715 0.27855 0.01653 0.0
H441 H 0.25473 0.2541 0.95544 0.0
H442 H 0.24004 0.31276 0.86153 0.0
H443 H 0.26208 0.33735 0.92333 0.0
H444 H 0.22101 0.27646 0.83516 0.0
H445 H 0.24939 0.23521 0.88476 0.0
H446 H 0.25473 0.20432 0.82149 0.0
H447 H 0.23712 0.18365 0.74873 0.0
C448 C 0.72813 0.30288 0.9215 0.0
C449 C 0.70271 0.29802 0.94686 0.0
C450 C 0.73797 0.28823 0.88414 0.0
C451 C 0.7223 0.26856 0.87113 0.0
C452 C 0.69636 0.26435 0.89532 0.0
C453 C 0.68668 0.27885 0.93268 0.0
C454 C 0.73276 0.25115 0.83524 0.0
C455 C 0.75446 0.25437 0.80331 0.0
C456 C 0.7645 0.23615 0.76912 0.0
C457 C 0.77705 0.24242 0.72394 0.0
C458 C 0.78646 0.22575 0.69068 0.0
C459 C 0.78386 0.20239 0.70216 0.0
H460 H 0.75376 0.20729 0.8164 0.0
C461 C 0.77192 0.1961 0.74795 0.0
C462 C 0.76239 0.21279 0.78114 0.0
H463 H 0.76985 0.17828 0.75818 0.0
H464 H 0.74104 0.31743 0.93193 0.0
H465 H 0.75829 0.29202 0.8672 0.0
H466 H 0.68379 0.24941 0.88615 0.0
H467 H 0.66692 0.27466 0.95136 0.0
H468 H 0.72151 0.23494 0.83468 0.0
H469 H 0.76441 0.27102 0.80008 0.0
H470 H 0.77924 0.26027 0.71402 0.0
H471 H 0.79574 0.23124 0.65587 0.0
C472 C 0.71188 0.70345 0.95458 0.0
C473 C 0.71526 0.70464 0.0062 0.0
C474 C 0.72132 0.72134 0.92434 0.0
C475 C 0.7348 0.74051 0.94523 0.0
C476 C 0.73848 0.74155 0.99668 0.0
C477 C 0.72842 0.72397 0.02699 0.0
C478 C 0.74714 0.75871 0.91375 0.0
C479 C 0.73445 0.7662 0.87221 0.0
C480 C 0.74858 0.78217 0.83733 0.0
C481 C 0.73208 0.79715 0.80863 0.0
C482 C 0.74474 0.81039 0.77138 0.0
C483 C 0.77397 0.80832 0.76144 0.0
H484 H 0.79136 0.7693 0.84953 0.0
C485 C 0.79059 0.79387 0.79114 0.0
C486 C 0.77809 0.78103 0.82888 0.0
H487 H 0.81317 0.79189 0.78409 0.0
H488 H 0.7018 0.68876 0.93761 0.0
H489 H 0.71882 0.71984 0.88459 0.0
H490 H 0.74913 0.75603 0.01348 0.0
H491 H 0.73148 0.72528 0.06667 0.0
H492 H 0.76714 0.76629 0.92553 0.0
H493 H 0.71315 0.76027 0.86313 0.0
H494 H 0.70927 0.79818 0.81424 0.0
H495 H 0.73142 0.82123 0.74862 0.0
loop_
_geom_bond_atom_site_label_1
_geom_bond_atom_site_label_2
_geom_bond_distance
_geom_bond_site_symmetry_2
_ccdc_geom_bond_type
O0 Cd1 2.223 . S
O0 C8 1.315 . S
Cd1 O0 2.223 . S
Cd1 O4 2.297 . S
Cd1 O5 2.439 . S
Cd1 O11 2.240 . S
Cd2 O3 2.240 . S
Cd2 O10 2.223 . S
Cd2 O12 2.297 . S
Cd2 O13 2.439 . S
O3 Cd2 2.240 . S
O3 C8 1.279 . S
O4 Cd1 2.297 . S
O4 C6 1.247 . S
O5 Cd1 2.439 . S
O5 C6 1.208 . S
C6 O4 1.247 . S
C6 O5 1.208 . S
C7 O12 1.247 . S
C7 O13 1.208 . S
C8 O0 1.315 . S
C8 O3 1.279 . S
C9 O10 1.315 . S
C9 O11 1.279 . S
O10 Cd2 2.223 . S
O10 C9 1.315 . S
O11 Cd1 2.240 . S
O11 C9 1.279 . S
O12 Cd2 2.297 . S
O12 C7 1.247 . S
O13 Cd2 2.439 . S
O13 C7 1.208 . S
O14 Cd15 2.223 . S
O14 C22 1.315 . S
Cd15 O14 2.223 . S
Cd15 O18 2.297 1_554 S
Cd15 O19 2.439 1_554 S
Cd15 O25 2.240 . S
Cd16 O17 2.240 . S
Cd16 O24 2.223 . S
Cd16 O26 2.297 . S
Cd16 O27 2.439 . S
O17 Cd16 2.240 . S
O17 C22 1.279 . S
O18 Cd15 2.297 1_556 S
O18 C20 1.247 . S
O19 Cd15 2.439 1_556 S
O19 C20 1.208 . S
C20 O18 1.247 . S
C20 O19 1.208 . S
C21 O26 1.247 . S
C21 O27 1.208 . S
C22 O14 1.315 . S
C22 O17 1.279 . S
C23 O24 1.315 . S
C23 O25 1.279 . S
O24 Cd16 2.223 . S
O24 C23 1.315 . S
O25 Cd15 2.240 . S
O25 C23 1.279 . S
O26 Cd16 2.297 . S
O26 C21 1.247 . S
O27 Cd16 2.439 . S
O27 C21 1.208 . S
O28 Cd29 2.223 . S
O28 C36 1.315 . S
Cd29 O28 2.223 . S
Cd29 O32 2.297 . S
Cd29 O33 2.439 . S
Cd29 O39 2.240 . S
Cd30 O31 2.240 . S
Cd30 O38 2.223 . S
Cd30 O40 2.297 . S
Cd30 O41 2.439 . S
O31 Cd30 2.240 . S
O31 C36 1.279 . S
O32 Cd29 2.297 . S
O32 C34 1.247 . S
O33 Cd29 2.439 . S
O33 C34 1.208 . S
C34 O32 1.247 . S
C34 O33 1.208 . S
C35 O40 1.247 . S
C35 O41 1.208 . S
C36 O28 1.315 . S
C36 O31 1.279 . S
C37 O38 1.315 . S
C37 O39 1.279 . S
O38 Cd30 2.223 . S
O38 C37 1.315 . S
O39 Cd29 2.240 . S
O39 C37 1.279 . S
O40 Cd30 2.297 . S
O40 C35 1.247 . S
O41 Cd30 2.439 . S
O41 C35 1.208 . S
O42 Cd43 2.223 . S
O42 C50 1.315 . S
Cd43 O42 2.223 . S
Cd43 O46 2.297 1_554 S
Cd43 O47 2.439 1_554 S
Cd43 O53 2.240 . S
Cd44 O45 2.240 . S
Cd44 O52 2.223 . S
Cd44 O54 2.297 . S
Cd44 O55 2.439 . S
O45 Cd44 2.240 . S
O45 C50 1.279 . S
O46 Cd43 2.297 1_556 S
O46 C48 1.247 . S
O47 Cd43 2.439 1_556 S
O47 C48 1.208 . S
C48 O46 1.247 . S
C48 O47 1.208 . S
C49 O54 1.247 . S
C49 O55 1.208 . S
C50 O42 1.315 . S
C50 O45 1.279 . S
C51 O52 1.315 . S
C51 O53 1.279 . S
O52 Cd44 2.223 . S
O52 C51 1.315 . S
O53 Cd43 2.240 . S
O53 C51 1.279 . S
O54 Cd44 2.297 . S
O54 C49 1.247 . S
O55 Cd44 2.439 . S
O55 C49 1.208 . S
O56 Cd57 2.223 . S
O56 C64 1.315 . S
Cd57 O56 2.223 . S
Cd57 O60 2.297 . S
Cd57 O61 2.439 . S
Cd57 O67 2.240 . S
Cd58 O59 2.240 . S
Cd58 O66 2.223 . S
Cd58 O68 2.297 . S
Cd58 O69 2.439 . S
O59 Cd58 2.240 . S
O59 C64 1.279 . S
O60 Cd57 2.297 . S
O60 C62 1.247 . S
O61 Cd57 2.439 . S
O61 C62 1.208 . S
C62 O60 1.247 . S
C62 O61 1.208 . S
C63 O68 1.247 . S
C63 O69 1.208 . S
C64 O56 1.315 . S
C64 O59 1.279 . S
C65 O66 1.315 . S
C65 O67 1.279 . S
O66 Cd58 2.223 . S
O66 C65 1.315 . S
O67 Cd57 2.240 . S
O67 C65 1.279 . S
O68 Cd58 2.297 . S
O68 C63 1.247 . S
O69 Cd58 2.439 . S
O69 C63 1.208 . S
O70 Cd71 2.223 . S
O70 C78 1.315 . S
Cd71 O70 2.223 . S
Cd71 O74 2.297 . S
Cd71 O75 2.439 . S
Cd71 O81 2.240 . S
Cd72 O73 2.240 . S
Cd72 O80 2.223 . S
Cd72 O82 2.297 . S
Cd72 O83 2.439 . S
O73 Cd72 2.240 . S
O73 C78 1.279 . S
O74 Cd71 2.297 . S
O74 C76 1.247 . S
O75 Cd71 2.439 . S
O75 C76 1.208 . S
C76 O74 1.247 . S
C76 O75 1.208 . S
C77 O82 1.247 . S
C77 O83 1.208 . S
C78 O70 1.315 . S
C78 O73 1.279 . S
C79 O80 1.315 . S
C79 O81 1.279 . S
O80 Cd72 2.223 . S
O80 C79 1.315 . S
O81 Cd71 2.240 . S
O81 C79 1.279 . S
O82 Cd72 2.297 . S
O82 C77 1.247 . S
O83 Cd72 2.439 . S
O83 C77 1.208 . S
O84 Cd85 2.223 . S
O84 C92 1.315 . S
Cd85 O84 2.223 . S
Cd85 O88 2.297 . S
Cd85 O89 2.439 . S
Cd85 O95 2.240 . S
Cd86 O87 2.240 . S
Cd86 O94 2.223 . S
Cd86 O96 2.297 . S
Cd86 O97 2.439 . S
O87 Cd86 2.240 . S
O87 C92 1.279 . S
O88 Cd85 2.297 . S
O88 C90 1.247 . S
O89 Cd85 2.439 . S
O89 C90 1.208 . S
C90 O88 1.247 . S
C90 O89 1.208 . S
C91 O96 1.247 . S
C91 O97 1.208 . S
C92 O84 1.315 . S
C92 O87 1.279 . S
C93 O94 1.315 . S
C93 O95 1.279 . S
O94 Cd86 2.223 . S
O94 C93 1.315 . S
O95 Cd85 2.240 . S
O95 C93 1.279 . S
O96 Cd86 2.297 . S
O96 C91 1.247 . S
O97 Cd86 2.439 . S
O97 C91 1.208 . S
O98 Cd99 2.223 . S
O98 C106 1.315 . S
Cd99 O98 2.223 . S
Cd99 O102 2.297 . S
Cd99 O103 2.439 . S
Cd99 O109 2.240 . S
Cd100 O101 2.240 . S
Cd100 O108 2.223 . S
Cd100 O110 2.297 . S
Cd100 O111 2.439 . S
O101 Cd100 2.240 . S
O101 C106 1.279 . S
O102 Cd99 2.297 . S
O102 C104 1.247 . S
O103 Cd99 2.439 . S
O103 C104 1.208 . S
C104 O102 1.247 . S
C104 O103 1.208 . S
C105 O110 1.247 . S
C105 O111 1.208 . S
C106 O98 1.315 . S
C106 O101 1.279 . S
C107 O108 1.315 . S
C107 O109 1.279 . S
O108 Cd100 2.223 . S
O108 C107 1.315 . S
O109 Cd99 2.240 . S
O109 C107 1.279 . S
O110 Cd100 2.297 . S
O110 C105 1.247 . S
O111 Cd100 2.439 . S
O111 C105 1.208 . S
C112 C113 1.386 . S
C112 C114 1.383 . S
C112 H128 0.951 . S
C113 C112 1.386 . S
C113 C117 1.383 . S
C114 C112 1.383 . S
C114 C115 1.402 . S
C114 H129 0.951 . S
C115 C114 1.402 . S
C115 C116 1.375 . S
C115 C118 1.481 . S
C116 C115 1.375 . S
C116 C117 1.367 . S
C116 H130 0.951 . S
C117 C113 1.383 . S
C117 C116 1.367 . S
C117 H131 0.950 . S
C118 C115 1.481 . S
C118 C119 1.297 . S
C118 H132 0.950 . S
C119 C118 1.297 . S
C119 C120 1.479 . S
C119 H133 0.950 . S
C120 C119 1.479 . S
C120 C121 1.375 . S
C120 C126 1.404 . S
C121 C120 1.375 . S
C121 C122 1.369 . S
C121 H134 0.950 . S
C122 C121 1.369 . S
C122 C123 1.392 . S
C122 H135 0.951 . S
C123 C122 1.392 . S
C123 C125 1.384 . S
H124 C126 0.949 . S
C125 C123 1.384 . S
C125 C126 1.385 . S
C125 H127 0.950 . S
C126 C120 1.404 . S
C126 H124 0.949 . S
C126 C125 1.385 . S
H127 C125 0.950 . S
H128 C112 0.951 . S
H129 C114 0.951 . S
H130 C116 0.951 . S
H131 C117 0.950 . S
H132 C118 0.950 . S
H133 C119 0.950 . S
H134 C121 0.950 . S
H135 C122 0.951 . S
C136 C137 1.386 . S
C136 C138 1.383 . S
C136 H152 0.951 . S
C137 C136 1.386 . S
C137 C141 1.383 . S
C138 C136 1.383 . S
C138 C139 1.402 . S
C138 H153 0.951 . S
C139 C138 1.402 . S
C139 C140 1.375 . S
C139 C142 1.481 . S
C140 C139 1.375 . S
C140 C141 1.367 . S
C140 H154 0.951 . S
C141 C137 1.383 . S
C141 C140 1.367 . S
C141 H155 0.950 . S
C142 C139 1.481 . S
C142 C143 1.297 . S
C142 H156 0.950 . S
C143 C142 1.297 . S
C143 C144 1.479 . S
C143 H157 0.950 . S
C144 C143 1.479 . S
C144 C145 1.375 . S
C144 C150 1.404 . S
C145 C144 1.375 . S
C145 C146 1.369 . S
C145 H158 0.950 . S
C146 C145 1.369 . S
C146 C147 1.392 . S
C146 H159 0.951 . S
C147 C146 1.392 . S
C147 C149 1.384 . S
H148 C150 0.949 . S
C149 C147 1.384 . S
C149 C150 1.385 . S
C149 H151 0.950 . S
C150 C144 1.404 . S
C150 H148 0.949 . S
C150 C149 1.385 . S
H151 C149 0.950 . S
H152 C136 0.951 . S
H153 C138 0.951 . S
H154 C140 0.951 . S
H155 C141 0.950 . S
H156 C142 0.950 . S
H157 C143 0.950 . S
H158 C145 0.950 . S
H159 C146 0.951 . S
C160 C161 1.386 . S
C160 C162 1.383 . S
C160 H176 0.951 1_554 S
C161 C160 1.386 . S
C161 C165 1.383 . S
C162 C160 1.383 . S
C162 C163 1.402 . S
C162 H177 0.951 . S
C163 C162 1.402 . S
C163 C164 1.375 . S
C163 C166 1.481 . S
C164 C163 1.375 . S
C164 C165 1.367 . S
C164 H178 0.951 . S
C165 C161 1.383 . S
C165 C164 1.367 . S
C165 H179 0.950 . S
C166 C163 1.481 . S
C166 C167 1.297 . S
C166 H180 0.950 . S
C167 C166 1.297 . S
C167 C168 1.479 . S
C167 H181 0.950 . S
C168 C167 1.479 . S
C168 C169 1.375 . S
C168 C174 1.404 . S
C169 C168 1.375 . S
C169 C170 1.369 . S
C169 H182 0.950 . S
C170 C169 1.369 . S
C170 C171 1.392 . S
C170 H183 0.951 . S
C171 C170 1.392 . S
C171 C173 1.384 . S
H172 C174 0.949 . S
C173 C171 1.384 . S
C173 C174 1.385 . S
C173 H175 0.950 . S
C174 C168 1.404 . S
C174 H172 0.949 . S
C174 C173 1.385 . S
H175 C173 0.950 . S
H176 C160 0.951 1_556 S
H177 C162 0.951 . S
H178 C164 0.951 . S
H179 C165 0.950 . S
H180 C166 0.950 . S
H181 C167 0.950 . S
H182 C169 0.950 . S
H183 C170 0.951 . S
C184 C185 1.386 . S
C184 C186 1.383 . S
C184 H200 0.951 . S
C185 C184 1.386 . S
C185 C189 1.383 . S
C186 C184 1.383 . S
C186 C187 1.402 . S
C186 H201 0.951 . S
C187 C186 1.402 . S
C187 C188 1.375 . S
C187 C190 1.481 . S
C188 C187 1.375 . S
C188 C189 1.367 . S
C188 H202 0.951 . S
C189 C185 1.383 . S
C189 C188 1.367 . S
C189 H203 0.950 . S
C190 C187 1.481 . S
C190 C191 1.297 . S
C190 H204 0.950 . S
C191 C190 1.297 . S
C191 C192 1.479 . S
C191 H205 0.950 . S
C192 C191 1.479 . S
C192 C193 1.375 . S
C192 C198 1.404 . S
C193 C192 1.375 . S
C193 C194 1.369 . S
C193 H206 0.950 . S
C194 C193 1.369 . S
C194 C195 1.392 . S
C194 H207 0.951 . S
C195 C194 1.392 . S
C195 C197 1.384 . S
H196 C198 0.949 . S
C197 C195 1.384 . S
C197 C198 1.385 . S
C197 H199 0.950 . S
C198 C192 1.404 . S
C198 H196 0.949 . S
C198 C197 1.385 . S
H199 C197 0.950 . S
H200 C184 0.951 . S
H201 C186 0.951 . S
H202 C188 0.951 . S
H203 C189 0.950 . S
H204 C190 0.950 . S
H205 C191 0.950 . S
H206 C193 0.950 . S
H207 C194 0.951 . S
C208 C209 1.386 . S
C208 C210 1.383 . S
C208 H224 0.951 . S
C209 C208 1.386 . S
C209 C213 1.383 . S
C210 C208 1.383 . S
C210 C211 1.402 . S
C210 H225 0.951 . S
C211 C210 1.402 . S
C211 C212 1.375 . S
C211 C214 1.481 . S
C212 C211 1.375 . S
C212 C213 1.367 . S
C212 H226 0.951 . S
C213 C209 1.383 . S
C213 C212 1.367 . S
C213 H227 0.950 . S
C214 C211 1.481 . S
C214 C215 1.297 1_565 S
C214 H228 0.950 . S
C215 C214 1.297 1_545 S
C215 C216 1.479 . S
C215 H229 0.950 . S
C216 C215 1.479 . S
C216 C217 1.375 . S
C216 C222 1.404 . S
C217 C216 1.375 . S
C217 C218 1.369 . S
C217 H230 0.950 . S
C218 C217 1.369 . S
C218 C219 1.392 . S
C218 H231 0.951 . S
C219 C218 1.392 . S
C219 C221 1.384 . S
H220 C222 0.949 . S
C221 C219 1.384 . S
C221 C222 1.385 . S
C221 H223 0.950 . S
C222 C216 1.404 . S
C222 H220 0.949 . S
C222 C221 1.385 . S
H223 C221 0.950 . S
H224 C208 0.951 . S
H225 C210 0.951 . S
H226 C212 0.951 . S
H227 C213 0.950 . S
H228 C214 0.950 . S
H229 C215 0.950 . S
H230 C217 0.950 . S
H231 C218 0.951 . S
C232 C233 1.386 . S
C232 C234 1.383 . S
C232 H248 0.951 . S
C233 C232 1.386 . S
C233 C237 1.383 . S
C234 C232 1.383 . S
C234 C235 1.402 . S
C234 H249 0.951 . S
C235 C234 1.402 . S
C235 C236 1.375 . S
C235 C238 1.481 . S
C236 C235 1.375 . S
C236 C237 1.367 . S
C236 H250 0.951 . S
C237 C233 1.383 . S
C237 C236 1.367 . S
C237 H251 0.950 . S
C238 C235 1.481 . S
C238 C239 1.297 1_455 S
C238 H252 0.950 . S
C239 C238 1.297 1_655 S
C239 C240 1.479 . S
C239 H253 0.950 . S
C240 C239 1.479 . S
C240 C241 1.375 . S
C240 C246 1.404 . S
C241 C240 1.375 . S
C241 C242 1.369 . S
C241 H254 0.950 . S
C242 C241 1.369 . S
C242 C243 1.392 . S
C242 H255 0.951 . S
C243 C242 1.392 . S
C243 C245 1.384 . S
H244 C246 0.949 . S
C245 C243 1.384 . S
C245 C246 1.385 . S
C245 H247 0.950 . S
C246 C240 1.404 . S
C246 H244 0.949 . S
C246 C245 1.385 . S
H247 C245 0.950 . S
H248 C232 0.951 . S
H249 C234 0.951 . S
H250 C236 0.951 . S
H251 C237 0.950 . S
H252 C238 0.950 . S
H253 C239 0.950 . S
H254 C241 0.950 . S
H255 C242 0.951 . S
C256 C257 1.386 . S
C256 C258 1.383 . S
C256 H272 0.951 . S
C257 C256 1.386 . S
C257 C261 1.383 . S
C258 C256 1.383 . S
C258 C259 1.402 . S
C258 H273 0.951 . S
C259 C258 1.402 . S
C259 C260 1.375 . S
C259 C262 1.481 . S
C260 C259 1.375 . S
C260 C261 1.367 . S
C260 H274 0.951 . S
C261 C257 1.383 . S
C261 C260 1.367 . S
C261 H275 0.950 . S
C262 C259 1.481 . S
C262 C263 1.297 1_545 S
C262 H276 0.950 . S
C263 C262 1.297 1_565 S
C263 C264 1.479 . S
C263 H277 0.950 . S
C264 C263 1.479 . S
C264 C265 1.375 . S
C264 C270 1.404 . S
C265 C264 1.375 . S
C265 C266 1.369 . S
C265 H278 0.950 . S
C266 C265 1.369 . S
C266 C267 1.392 . S
C266 H279 0.951 . S
C267 C266 1.392 . S
C267 C269 1.384 . S
H268 C270 0.949 . S
C269 C267 1.384 . S
C269 C270 1.385 . S
C269 H271 0.950 . S
C270 C264 1.404 . S
C270 H268 0.949 . S
C270 C269 1.385 . S
H271 C269 0.950 . S
H272 C256 0.951 . S
H273 C258 0.951 . S
H274 C260 0.951 . S
H275 C261 0.950 . S
H276 C262 0.950 . S
H277 C263 0.950 . S
H278 C265 0.950 . S
H279 C266 0.951 . S
C280 C281 1.386 . S
C280 C282 1.383 . S
C280 H296 0.951 . S
C281 C280 1.386 . S
C281 C285 1.383 . S
C282 C280 1.383 . S
C282 C283 1.402 . S
C282 H297 0.951 . S
C283 C282 1.402 . S
C283 C284 1.375 . S
C283 C286 1.481 . S
C284 C283 1.375 . S
C284 C285 1.367 . S
C284 H298 0.951 . S
C285 C281 1.383 . S
C285 C284 1.367 . S
C285 H299 0.950 . S
C286 C283 1.481 . S
C286 C287 1.297 1_655 S
C286 H300 0.950 . S
C287 C286 1.297 1_455 S
C287 C288 1.479 . S
C287 H301 0.950 . S
C288 C287 1.479 . S
C288 C289 1.375 . S
C288 C294 1.404 . S
C289 C288 1.375 . S
C289 C290 1.369 . S
C289 H302 0.950 . S
C290 C289 1.369 . S
C290 C291 1.392 . S
C290 H303 0.951 . S
C291 C290 1.392 . S
C291 C293 1.384 . S
H292 C294 0.949 . S
C293 C291 1.384 . S
C293 C294 1.385 . S
C293 H295 0.950 . S
C294 C288 1.404 . S
C294 H292 0.949 . S
C294 C293 1.385 . S
H295 C293 0.950 . S
H296 C280 0.951 . S
H297 C282 0.951 . S
H298 C284 0.951 . S
H299 C285 0.950 . S
H300 C286 0.950 . S
H301 C287 0.950 . S
H302 C289 0.950 . S
H303 C290 0.951 . S
C304 C305 1.386 . S
C304 C306 1.383 . S
C304 H320 0.951 . S
C305 C304 1.386 . S
C305 C309 1.383 . S
C306 C304 1.383 . S
C306 C307 1.402 . S
C306 H321 0.951 . S
C307 C306 1.402 . S
C307 C308 1.375 . S
C307 C310 1.481 . S
C308 C307 1.375 . S
C308 C309 1.367 . S
C308 H322 0.951 . S
C309 C305 1.383 . S
C309 C308 1.367 . S
C309 H323 0.950 . S
C310 C307 1.481 . S
C310 C311 1.297 . S
C310 H324 0.950 . S
C311 C310 1.297 . S
C311 C312 1.479 . S
C311 H325 0.950 . S
C312 C311 1.479 . S
C312 C313 1.375 . S
C312 C318 1.404 . S
C313 C312 1.375 . S
C313 C314 1.369 . S
C313 H326 0.950 . S
C314 C313 1.369 . S
C314 C315 1.392 . S
C314 H327 0.951 . S
C315 C314 1.392 . S
C315 C317 1.384 . S
H316 C318 0.949 . S
C317 C315 1.384 . S
C317 C318 1.385 . S
C317 H319 0.950 . S
C318 C312 1.404 . S
C318 H316 0.949 . S
C318 C317 1.385 . S
H319 C317 0.950 . S
H320 C304 0.951 . S
H321 C306 0.951 . S
H322 C308 0.951 . S
H323 C309 0.950 . S
H324 C310 0.950 . S
H325 C311 0.950 . S
H326 C313 0.950 . S
H327 C314 0.951 . S
C328 C329 1.386 . S
C328 C330 1.383 . S
C328 H344 0.951 . S
C329 C328 1.386 . S
C329 C333 1.383 . S
C330 C328 1.383 . S
C330 C331 1.402 . S
C330 H345 0.951 . S
C331 C330 1.402 . S
C331 C332 1.375 . S
C331 C334 1.481 . S
C332 C331 1.375 . S
C332 C333 1.367 . S
C332 H346 0.951 . S
C333 C329 1.383 . S
C333 C332 1.367 . S
C333 H347 0.950 . S
C334 C331 1.481 . S
C334 C335 1.297 . S
C334 H348 0.950 . S
C335 C334 1.297 . S
C335 C336 1.479 . S
C335 H349 0.950 . S
C336 C335 1.479 . S
C336 C337 1.375 . S
C336 C342 1.404 . S
C337 C336 1.375 . S
C337 C338 1.369 . S
C337 H350 0.950 . S
C338 C337 1.369 . S
C338 C339 1.392 . S
C338 H351 0.951 . S
C339 C338 1.392 . S
C339 C341 1.384 . S
H340 C342 0.949 . S
C341 C339 1.384 . S
C341 C342 1.385 . S
C341 H343 0.950 . S
C342 C336 1.404 . S
C342 H340 0.949 . S
C342 C341 1.385 . S
H343 C341 0.950 . S
H344 C328 0.951 . S
H345 C330 0.951 . S
H346 C332 0.951 . S
H347 C333 0.950 . S
H348 C334 0.950 . S
H349 C335 0.950 . S
H350 C337 0.950 . S
H351 C338 0.951 . S
C352 C353 1.386 . S
C352 C354 1.383 . S
C352 H368 0.951 . S
C353 C352 1.386 . S
C353 C357 1.383 . S
C354 C352 1.383 . S
C354 C355 1.402 . S
C354 H369 0.951 . S
C355 C354 1.402 . S
C355 C356 1.375 . S
C355 C358 1.481 . S
C356 C355 1.375 . S
C356 C357 1.367 . S
C356 H370 0.951 . S
C357 C353 1.383 . S
C357 C356 1.367 . S
C357 H371 0.950 . S
C358 C355 1.481 . S
C358 C359 1.297 . S
C358 H372 0.950 . S
C359 C358 1.297 . S
C359 C360 1.479 . S
C359 H373 0.950 . S
C360 C359 1.479 . S
C360 C361 1.375 . S
C360 C366 1.404 . S
C361 C360 1.375 . S
C361 C362 1.369 . S
C361 H374 0.950 . S
C362 C361 1.369 . S
C362 C363 1.392 . S
C362 H375 0.951 . S
C363 C362 1.392 . S
C363 C365 1.384 . S
H364 C366 0.949 . S
C365 C363 1.384 . S
C365 C366 1.385 . S
C365 H367 0.950 . S
C366 C360 1.404 . S
C366 H364 0.949 . S
C366 C365 1.385 . S
H367 C365 0.950 . S
H368 C352 0.951 . S
H369 C354 0.951 . S
H370 C356 0.951 . S
H371 C357 0.950 . S
H372 C358 0.950 . S
H373 C359 0.950 . S
H374 C361 0.950 . S
H375 C362 0.951 . S
C376 C377 1.386 . S
C376 C378 1.383 . S
C376 H392 0.951 . S
C377 C376 1.386 . S
C377 C381 1.383 . S
C378 C376 1.383 . S
C378 C379 1.402 . S
C378 H393 0.951 . S
C379 C378 1.402 . S
C379 C380 1.375 . S
C379 C382 1.481 . S
C380 C379 1.375 . S
C380 C381 1.367 . S
C380 H394 0.951 . S
C381 C377 1.383 . S
C381 C380 1.367 . S
C381 H395 0.950 . S
C382 C379 1.481 . S
C382 C383 1.297 . S
C382 H396 0.950 . S
C383 C382 1.297 . S
C383 C384 1.479 . S
C383 H397 0.950 . S
C384 C383 1.479 . S
C384 C385 1.375 . S
C384 C390 1.404 . S
C385 C384 1.375 . S
C385 C386 1.369 . S
C385 H398 0.950 . S
C386 C385 1.369 . S
C386 C387 1.392 . S
C386 H399 0.951 . S
C387 C386 1.392 . S
C387 C389 1.384 . S
H388 C390 0.949 . S
C389 C387 1.384 . S
C389 C390 1.385 . S
C389 H391 0.950 . S
C390 C384 1.404 . S
C390 H388 0.949 . S
C390 C389 1.385 . S
H391 C389 0.950 . S
H392 C376 0.951 . S
H393 C378 0.951 . S
H394 C380 0.951 . S
H395 C381 0.950 . S
H396 C382 0.950 . S
H397 C383 0.950 . S
H398 C385 0.950 . S
H399 C386 0.951 . S
C400 C401 1.386 . S
C400 C402 1.383 . S
C400 H416 0.951 . S
C401 C400 1.386 . S
C401 C405 1.383 . S
C402 C400 1.383 . S
C402 C403 1.402 . S
C402 H417 0.951 . S
C403 C402 1.402 . S
C403 C404 1.375 . S
C403 C406 1.481 . S
C404 C403 1.375 . S
C404 C405 1.367 . S
C404 H418 0.951 . S
C405 C401 1.383 . S
C405 C404 1.367 . S
C405 H419 0.950 . S
C406 C403 1.481 . S
C406 C407 1.297 . S
C406 H420 0.950 . S
C407 C406 1.297 . S
C407 C408 1.479 . S
C407 H421 0.950 . S
C408 C407 1.479 . S
C408 C409 1.375 . S
C408 C414 1.404 . S
C409 C408 1.375 . S
C409 C410 1.369 . S
C409 H422 0.950 . S
C410 C409 1.369 . S
C410 C411 1.392 . S
C410 H423 0.951 . S
C411 C410 1.392 . S
C411 C413 1.384 . S
H412 C414 0.949 . S
C413 C411 1.384 . S
C413 C414 1.385 . S
C413 H415 0.950 . S
C414 C408 1.404 . S
C414 H412 0.949 . S
C414 C413 1.385 . S
H415 C413 0.950 . S
H416 C400 0.951 . S
H417 C402 0.951 . S
H418 C404 0.951 . S
H419 C405 0.950 . S
H420 C406 0.950 . S
H421 C407 0.950 . S
H422 C409 0.950 . S
H423 C410 0.951 . S
C424 C425 1.386 . S
C424 C426 1.383 1_554 S
C424 H440 0.951 . S
C425 C424 1.386 . S
C425 C429 1.383 1_554 S
C426 C424 1.383 1_556 S
C426 C427 1.402 . S
C426 H441 0.949 1_556 S
C427 C426 1.402 . S
C427 C428 1.375 . S
C427 C430 1.481 . S
C428 C427 1.375 . S
C428 C429 1.367 . S
C428 H442 0.951 . S
C429 C425 1.383 1_556 S
C429 C428 1.367 . S
C429 H443 0.950 . S
C430 C427 1.481 . S
C430 C431 1.297 . S
C430 H444 0.950 . S
C431 C430 1.297 . S
C431 C432 1.479 . S
C431 H445 0.950 . S
C432 C431 1.479 . S
C432 C433 1.375 . S
C432 C438 1.404 . S
C433 C432 1.375 . S
C433 C434 1.369 . S
C433 H446 0.950 . S
C434 C433 1.369 . S
C434 C435 1.392 . S
C434 H447 0.951 . S
C435 C434 1.392 . S
C435 C437 1.384 . S
H436 C438 0.949 . S
C437 C435 1.384 . S
C437 C438 1.385 . S
C437 H439 0.950 . S
C438 C432 1.404 . S
C438 H436 0.949 . S
C438 C437 1.385 . S
H439 C437 0.950 . S
H440 C424 0.951 . S
H441 C426 0.949 1_554 S
H442 C428 0.951 . S
H443 C429 0.950 . S
H444 C430 0.950 . S
H445 C431 0.950 . S
H446 C433 0.950 . S
H447 C434 0.951 . S
C448 C449 1.386 . S
C448 C450 1.383 . S
C448 H464 0.951 . S
C449 C448 1.386 . S
C449 C453 1.383 . S
C450 C448 1.383 . S
C450 C451 1.402 . S
C450 H465 0.951 . S
C451 C450 1.402 . S
C451 C452 1.375 . S
C451 C454 1.481 . S
C452 C451 1.375 . S
C452 C453 1.367 . S
C452 H466 0.951 . S
C453 C449 1.383 . S
C453 C452 1.367 . S
C453 H467 0.950 . S
C454 C451 1.481 . S
C454 C455 1.297 . S
C454 H468 0.950 . S
C455 C454 1.297 . S
C455 C456 1.479 . S
C455 H469 0.950 . S
C456 C455 1.479 . S
C456 C457 1.375 . S
C456 C462 1.404 . S
C457 C456 1.375 . S
C457 C458 1.369 . S
C457 H470 0.950 . S
C458 C457 1.369 . S
C458 C459 1.392 . S
C458 H471 0.951 . S
C459 C458 1.392 . S
C459 C461 1.384 . S
H460 C462 0.949 . S
C461 C459 1.384 . S
C461 C462 1.385 . S
C461 H463 0.950 . S
C462 C456 1.404 . S
C462 H460 0.949 . S
C462 C461 1.385 . S
H463 C461 0.950 . S
H464 C448 0.951 . S
H465 C450 0.951 . S
H466 C452 0.951 . S
H467 C453 0.950 . S
H468 C454 0.950 . S
H469 C455 0.950 . S
H470 C457 0.950 . S
H471 C458 0.951 . S
C472 C473 1.386 1_556 S
C472 C474 1.383 . S
C472 H488 0.951 . S
C473 C472 1.386 1_554 S
C473 C477 1.383 . S
C474 C472 1.383 . S
C474 C475 1.402 . S
C474 H489 0.951 . S
C475 C474 1.402 . S
C475 C476 1.375 1_556 S
C475 C478 1.481 . S
C476 C475 1.375 1_554 S
C476 C477 1.367 . S
C476 H490 0.951 . S
C477 C473 1.383 . S
C477 C476 1.367 . S
C477 H491 0.950 . S
C478 C475 1.481 . S
C478 C479 1.297 . S
C478 H492 0.950 . S
C479 C478 1.297 . S
C479 C480 1.479 . S
C479 H493 0.950 . S
C480 C479 1.479 . S
C480 C481 1.375 . S
C480 C486 1.404 . S
C481 C480 1.375 . S
C481 C482 1.369 . S
C481 H494 0.950 . S
C482 C481 1.369 . S
C482 C483 1.392 . S
C482 H495 0.951 . S
C483 C482 1.392 . S
C483 C485 1.384 . S
H484 C486 0.949 . S
C485 C483 1.384 . S
C485 C486 1.385 . S
C485 H487 0.950 . S
C486 C480 1.404 . S
C486 H484 0.949 . S
C486 C485 1.385 . S
H487 C485 0.950 . S
H488 C472 0.951 . S
H489 C474 0.951 . S
H490 C476 0.951 . S
H491 C477 0.950 . S
H492 C478 0.950 . S
H493 C479 0.950 . S
H494 C481 0.950 . S
H495 C482 0.951 . S
C113 C7 1.476 . S
C123 C49 1.549 . S
C137 C9 1.580 . S
C147 C23 1.583 . S
C161 C21 1.463 . S
C171 C35 1.496 . S
C185 C51 1.564 . S
C195 C37 1.551 . S
C209 C63 1.462 . S
C219 C105 1.536 . S
C233 C79 1.594 . S
C243 C65 1.589 . S
C257 C91 1.460 . S
C267 C77 1.514 . S
C281 C107 1.575 . S
C291 C93 1.575 . S
C305 C92 1.531 . S
C315 C6 1.504 . S
C329 C22 1.529 . S
C339 C104 1.526 . S
C353 C64 1.529 . S
C363 C34 1.525 . S
C377 C76 1.445 . S
C387 C50 1.556 . S
C401 C78 1.552 . S
C411 C48 1.418 . S
C425 C8 1.553 . S
C435 C90 1.417 . S
C449 C20 1.484 . S
C459 C106 1.537 . S
C473 C36 1.529 . S
C483 C62 1.525 . S
