# Generated by pormake.
# Topology cbo, (4)-cn, num edge types: 1
# Building blocks:
#     Node 0, Type 0, BuildingBlock: ICAMEG_clean_sbu_1, # of connection points: 4
#     Node 1, Type 0, BuildingBlock: ICAMEG_clean_sbu_1, # of connection points: 4
#     Node 2, Type 0, BuildingBlock: ICAMEG_clean_sbu_1, # of connection points: 4
#     Node 3, Type 0, BuildingBlock: ICAMEG_clean_sbu_1, # of connection points: 4
#     Node 4, Type 0, BuildingBlock: ICAMEG_clean_sbu_1, # of connection points: 4
#     Node 5, Type 0, BuildingBlock: ICAMEG_clean_sbu_1, # of connection points: 4
#     Node 6, Type 0, BuildingBlock: ICAMEG_clean_sbu_1, # of connection points: 4
#     Node 7, Type 0, BuildingBlock: ICAMEG_clean_sbu_1, # of connection points: 4
#     Node 8, Type 0, BuildingBlock: ICAMEG_clean_sbu_1, # of connection points: 4
#     Node 9, Type 0, BuildingBlock: ICAMEG_clean_sbu_1, # of connection points: 4
#     Node 10, Type 0, BuildingBlock: ICAMEG_clean_sbu_1, # of connection points: 4
#     Node 11, Type 0, BuildingBlock: ICAMEG_clean_sbu_1, # of connection points: 4
#     Node 12, Type 0, BuildingBlock: ICAMEG_clean_sbu_1, # of connection points: 4
#     Node 13, Type 0, BuildingBlock: ICAMEG_clean_sbu_1, # of connection points: 4
#     Node 14, Type 0, BuildingBlock: ICAMEG_clean_sbu_1, # of connection points: 4
#     Node 15, Type 0, BuildingBlock: ICAMEG_clean_sbu_1, # of connection points: 4
#     Node 16, Type 0, BuildingBlock: ICAMEG_clean_sbu_1, # of connection points: 4
#     Node 17, Type 0, BuildingBlock: ICAMEG_clean_sbu_1, # of connection points: 4
#     Node 18, Type 0, BuildingBlock: ICAMEG_clean_sbu_1, # of connection points: 4
#     Node 19, Type 0, BuildingBlock: ICAMEG_clean_sbu_1, # of connection points: 4
#     Node 20, Type 0, BuildingBlock: ICAMEG_clean_sbu_1, # of connection points: 4
#     Node 21, Type 0, BuildingBlock: ICAMEG_clean_sbu_1, # of connection points: 4
#     Node 22, Type 0, BuildingBlock: ICAMEG_clean_sbu_1, # of connection points: 4
#     Node 23, Type 0, BuildingBlock: ICAMEG_clean_sbu_1, # of connection points: 4
#     Edge 24, Type (0, 0), BuildingBlock: CIFDUS_clean_linker_0, # of connection points: 2
#     Edge 25, Type (0, 0), BuildingBlock: CIFDUS_clean_linker_0, # of connection points: 2
#     Edge 26, Type (0, 0), BuildingBlock: CIFDUS_clean_linker_0, # of connection points: 2
#     Edge 27, Type (0, 0), BuildingBlock: CIFDUS_clean_linker_0, # of connection points: 2
#     Edge 28, Type (0, 0), BuildingBlock: CIFDUS_clean_linker_0, # of connection points: 2
#     Edge 29, Type (0, 0), BuildingBlock: CIFDUS_clean_linker_0, # of connection points: 2
#     Edge 30, Type (0, 0), BuildingBlock: CIFDUS_clean_linker_0, # of connection points: 2
#     Edge 31, Type (0, 0), BuildingBlock: CIFDUS_clean_linker_0, # of connection points: 2
#     Edge 32, Type (0, 0), BuildingBlock: CIFDUS_clean_linker_0, # of connection points: 2
#     Edge 33, Type (0, 0), BuildingBlock: CIFDUS_clean_linker_0, # of connection points: 2
#     Edge 34, Type (0, 0), BuildingBlock: CIFDUS_clean_linker_0, # of connection points: 2
#     Edge 35, Type (0, 0), BuildingBlock: CIFDUS_clean_linker_0, # of connection points: 2
#     Edge 36, Type (0, 0), BuildingBlock: CIFDUS_clean_linker_0, # of connection points: 2
#     Edge 37, Type (0, 0), BuildingBlock: CIFDUS_clean_linker_0, # of connection points: 2
#     Edge 38, Type (0, 0), BuildingBlock: CIFDUS_clean_linker_0, # of connection points: 2
#     Edge 39, Type (0, 0), BuildingBlock: CIFDUS_clean_linker_0, # of connection points: 2
#     Edge 40, Type (0, 0), BuildingBlock: CIFDUS_clean_linker_0, # of connection points: 2
#     Edge 41, Type (0, 0), BuildingBlock: CIFDUS_clean_linker_0, # of connection points: 2
#     Edge 42, Type (0, 0), BuildingBlock: CIFDUS_clean_linker_0, # of connection points: 2
#     Edge 43, Type (0, 0), BuildingBlock: CIFDUS_clean_linker_0, # of connection points: 2
#     Edge 44, Type (0, 0), BuildingBlock: CIFDUS_clean_linker_0, # of connection points: 2
#     Edge 45, Type (0, 0), BuildingBlock: CIFDUS_clean_linker_0, # of connection points: 2
#     Edge 46, Type (0, 0), BuildingBlock: CIFDUS_clean_linker_0, # of connection points: 2
#     Edge 47, Type (0, 0), BuildingBlock: CIFDUS_clean_linker_0, # of connection points: 2
#     Edge 48, Type (0, 0), BuildingBlock: CIFDUS_clean_linker_0, # of connection points: 2
#     Edge 49, Type (0, 0), BuildingBlock: CIFDUS_clean_linker_0, # of connection points: 2
#     Edge 50, Type (0, 0), BuildingBlock: CIFDUS_clean_linker_0, # of connection points: 2
#     Edge 51, Type (0, 0), BuildingBlock: CIFDUS_clean_linker_0, # of connection points: 2
#     Edge 52, Type (0, 0), BuildingBlock: CIFDUS_clean_linker_0, # of connection points: 2
#     Edge 53, Type (0, 0), BuildingBlock: CIFDUS_clean_linker_0, # of connection points: 2
#     Edge 54, Type (0, 0), BuildingBlock: CIFDUS_clean_linker_0, # of connection points: 2
#     Edge 55, Type (0, 0), BuildingBlock: CIFDUS_clean_linker_0, # of connection points: 2
#     Edge 56, Type (0, 0), BuildingBlock: CIFDUS_clean_linker_0, # of connection points: 2
#     Edge 57, Type (0, 0), BuildingBlock: CIFDUS_clean_linker_0, # of connection points: 2
#     Edge 58, Type (0, 0), BuildingBlock: CIFDUS_clean_linker_0, # of connection points: 2
#     Edge 59, Type (0, 0), BuildingBlock: CIFDUS_clean_linker_0, # of connection points: 2
#     Edge 60, Type (0, 0), BuildingBlock: CIFDUS_clean_linker_0, # of connection points: 2
#     Edge 61, Type (0, 0), BuildingBlock: CIFDUS_clean_linker_0, # of connection points: 2
#     Edge 62, Type (0, 0), BuildingBlock: CIFDUS_clean_linker_0, # of connection points: 2
#     Edge 63, Type (0, 0), BuildingBlock: CIFDUS_clean_linker_0, # of connection points: 2
#     Edge 64, Type (0, 0), BuildingBlock: CIFDUS_clean_linker_0, # of connection points: 2
#     Edge 65, Type (0, 0), BuildingBlock: CIFDUS_clean_linker_0, # of connection points: 2
#     Edge 66, Type (0, 0), BuildingBlock: CIFDUS_clean_linker_0, # of connection points: 2
#     Edge 67, Type (0, 0), BuildingBlock: CIFDUS_clean_linker_0, # of connection points: 2
#     Edge 68, Type (0, 0), BuildingBlock: CIFDUS_clean_linker_0, # of connection points: 2
#     Edge 69, Type (0, 0), BuildingBlock: CIFDUS_clean_linker_0, # of connection points: 2
#     Edge 70, Type (0, 0), BuildingBlock: CIFDUS_clean_linker_0, # of connection points: 2
#     Edge 71, Type (0, 0), BuildingBlock: CIFDUS_clean_linker_0, # of connection points: 2
# Relax obj value: 0.088
# Max RMSD: 0.121
# Mean RMSD: 0.121
data_MOF--net-cbo--node1-ICAMEG_clean_sbu_1--edge1-CIFDUS_clean_linker_0
_symmetry_space_group_name_H-M    P1
_symmetry_Int_Tables_number       1
_symmetry_cell_setting            triclinic
loop_
_symmetry_equiv_pos_as_xyz
'x, y, z'
_cell_length_a     49.307036
_cell_length_b     49.303361
_cell_length_c     49.29008
_cell_angle_alpha  90.043571
_cell_angle_beta   89.982953
_cell_angle_gamma 89.999569
loop_
_atom_site_label
_atom_site_type_symbol
_atom_site_fract_x
_atom_site_fract_y
_atom_site_fract_z
_atom_type_partial_charge
Co0 Co 0.15494 0.21055 0.36575 0.0
Co1 Co 0.11135 0.17862 0.32095 0.0
O2 O 0.12124 0.19134 0.35717 0.0
C3 C 0.17765 0.17773 0.41097 0.0
O4 O 0.20018 0.17593 0.39684 0.0
C5 C 0.05774 0.20392 0.31223 0.0
O6 O 0.06868 0.21522 0.29072 0.0
O7 O 0.11967 0.21505 0.30517 0.0
O8 O 0.15304 0.23171 0.33133 0.0
H9 H 0.12362 0.16851 0.22022 0.0
H10 H 0.11001 0.20942 0.40581 0.0
O11 O 0.15702 0.18967 0.40081 0.0
H12 H 0.12548 0.30626 0.38621 0.0
H13 H 0.21941 0.26061 0.42747 0.0
H14 H 0.20413 0.22602 0.33484 0.0
H15 H 0.15322 0.27108 0.36397 0.0
H16 H 0.17705 0.23661 0.41597 0.0
O17 O 0.07247 0.18956 0.32797 0.0
H18 H 0.13582 0.18379 0.26627 0.0
H19 H 0.0653 0.1461 0.29836 0.0
H20 H 0.24677 0.24987 0.34546 0.0
H21 H 0.08202 0.24396 0.42876 0.0
H22 H 0.25465 0.26734 0.39208 0.0
H23 H 0.08966 0.29278 0.41898 0.0
O24 O 0.17707 0.18234 0.34654 0.0
H25 H 0.07081 0.11466 0.38915 0.0
H26 H 0.12662 0.12179 0.30645 0.0
H27 H 0.11779 0.07677 0.32632 0.0
H28 H 0.08958 0.07299 0.36791 0.0
H29 H 0.08044 0.15932 0.36877 0.0
H30 H 0.05233 0.13044 0.25264 0.0
H31 H 0.08159 0.14165 0.21317 0.0
O32 O 0.14945 0.16735 0.31347 0.0
C33 C 0.13806 0.23258 0.31027 0.0
C34 C 0.11071 0.16348 0.23726 0.0
C35 C 0.0707 0.14211 0.25545 0.0
N36 N 0.10132 0.16584 0.285 0.0
C37 C 0.11753 0.17206 0.26339 0.0
C38 C 0.07815 0.15104 0.28129 0.0
C39 C 0.08712 0.14841 0.23332 0.0
C40 C 0.11361 0.23062 0.4016 0.0
N41 N 0.13337 0.2382 0.3837 0.0
C42 C 0.09762 0.25009 0.41458 0.0
C43 C 0.10189 0.27748 0.40906 0.0
C44 C 0.12197 0.28505 0.39067 0.0
C45 C 0.13756 0.26502 0.37805 0.0
C46 C 0.21624 0.25305 0.40709 0.0
C47 C 0.20742 0.23349 0.35519 0.0
C48 C 0.19231 0.23942 0.40047 0.0
N49 N 0.18819 0.22974 0.37479 0.0
C50 C 0.2316 0.24702 0.36107 0.0
C51 C 0.236 0.25682 0.38723 0.0
C52 C 0.17264 0.1688 0.32483 0.0
C53 C 0.08308 0.11604 0.37099 0.0
C54 C 0.11453 0.12034 0.32467 0.0
C55 C 0.1095 0.09478 0.33577 0.0
C56 C 0.09365 0.09267 0.35908 0.0
N57 N 0.10398 0.14316 0.33637 0.0
C58 C 0.08854 0.14127 0.35932 0.0
Co59 Co 0.34358 0.7896 0.85757 0.0
Co60 Co 0.38398 0.83358 0.82144 0.0
O61 O 0.3747 0.81362 0.85409 0.0
C62 C 0.31778 0.81358 0.90692 0.0
O63 O 0.29479 0.81528 0.89356 0.0
C64 C 0.43446 0.80269 0.83138 0.0
O65 O 0.41992 0.7804 0.83071 0.0
O66 O 0.38068 0.80013 0.79894 0.0
O67 O 0.34883 0.77511 0.81998 0.0
H68 H 0.3737 0.86159 0.72398 0.0
H69 H 0.38766 0.78875 0.89866 0.0
O70 O 0.33885 0.80406 0.89534 0.0
H71 H 0.38362 0.69575 0.86201 0.0
H72 H 0.28379 0.72382 0.90797 0.0
H73 H 0.29743 0.77379 0.82242 0.0
H74 H 0.3521 0.7309 0.84559 0.0
H75 H 0.3233 0.75398 0.90216 0.0
O76 O 0.4233 0.82577 0.82826 0.0
H77 H 0.36149 0.83689 0.76572 0.0
H78 H 0.42807 0.87246 0.80726 0.0
H79 H 0.25769 0.74383 0.82733 0.0
H80 H 0.41939 0.75415 0.91584 0.0
H81 H 0.25066 0.71859 0.87037 0.0
H82 H 0.41753 0.70727 0.89745 0.0
O83 O 0.31869 0.81797 0.84269 0.0
H84 H 0.41417 0.88837 0.90196 0.0
H85 H 0.36275 0.88997 0.81618 0.0
H86 H 0.36551 0.93146 0.84403 0.0
H87 H 0.39145 0.93084 0.88722 0.0
H88 H 0.41069 0.84728 0.87358 0.0
H89 H 0.44114 0.89739 0.76589 0.0
H90 H 0.4138 0.8921 0.7239 0.0
O91 O 0.34509 0.84167 0.81407 0.0
C92 C 0.36455 0.77986 0.79993 0.0
C93 C 0.38572 0.86414 0.74218 0.0
C94 C 0.42359 0.8842 0.76569 0.0
N95 N 0.39391 0.85341 0.78896 0.0
C96 C 0.37886 0.85026 0.7659 0.0
C97 C 0.41613 0.86999 0.78903 0.0
C98 C 0.40824 0.88123 0.74214 0.0
C99 C 0.38652 0.76833 0.89075 0.0
N100 N 0.36786 0.76182 0.87131 0.0
C101 C 0.40463 0.74885 0.90047 0.0
C102 C 0.40361 0.72256 0.89012 0.0
C103 C 0.3846 0.71609 0.87022 0.0
C104 C 0.36683 0.7361 0.86096 0.0
C105 C 0.28661 0.73472 0.88913 0.0
C106 C 0.29451 0.76288 0.84121 0.0
C107 C 0.30891 0.75185 0.88574 0.0
N108 N 0.31261 0.76568 0.862 0.0
C109 C 0.27197 0.74594 0.84387 0.0
C110 C 0.26804 0.73179 0.86802 0.0
C111 C 0.32195 0.83546 0.82383 0.0
C112 C 0.40286 0.88891 0.88315 0.0
C113 C 0.37396 0.88951 0.83501 0.0
C114 C 0.37551 0.91308 0.85066 0.0
C115 C 0.39008 0.91273 0.87488 0.0
N116 N 0.38665 0.86627 0.84319 0.0
C117 C 0.40088 0.86573 0.86696 0.0
Co118 Co 0.66067 0.29252 0.64008 0.0
Co119 Co 0.62806 0.33282 0.68783 0.0
O120 O 0.63341 0.31971 0.65055 0.0
C121 C 0.69356 0.32117 0.59895 0.0
O122 O 0.71465 0.3158 0.6143 0.0
C123 C 0.5713 0.31808 0.66946 0.0
O124 O 0.58034 0.30066 0.65146 0.0
O125 O 0.62789 0.29497 0.70239 0.0
O126 O 0.65235 0.27041 0.67278 0.0
H127 H 0.6479 0.33632 0.78776 0.0
H128 H 0.6198 0.30923 0.59926 0.0
O129 O 0.66978 0.31448 0.60689 0.0
H130 H 0.60482 0.21132 0.61301 0.0
H131 H 0.70899 0.23067 0.5744 0.0
H132 H 0.70335 0.26188 0.66932 0.0
H133 H 0.64091 0.23526 0.63801 0.0
H134 H 0.67517 0.26497 0.58794 0.0
O135 O 0.58765 0.33159 0.68419 0.0
H136 H 0.65395 0.3205 0.74068 0.0
H137 H 0.59104 0.37304 0.71414 0.0
H138 H 0.73741 0.22751 0.65667 0.0
H139 H 0.5838 0.28597 0.57348 0.0
H140 H 0.7404 0.21169 0.6089 0.0
H141 H 0.57605 0.23668 0.58037 0.0
O142 O 0.68961 0.31169 0.66096 0.0
H143 H 0.60082 0.40693 0.62344 0.0
H144 H 0.65621 0.38415 0.7035 0.0
H145 H 0.6571 0.43077 0.68548 0.0
H146 H 0.62916 0.44245 0.64522 0.0
H147 H 0.60077 0.36048 0.64198 0.0
H148 H 0.58416 0.38924 0.76098 0.0
H149 H 0.61278 0.37093 0.79816 0.0
O150 O 0.66781 0.33498 0.69334 0.0
C151 C 0.63949 0.27298 0.69506 0.0
C152 C 0.63535 0.34451 0.77172 0.0
C153 C 0.59955 0.37418 0.7567 0.0
N154 N 0.62296 0.34592 0.72464 0.0
C155 C 0.63871 0.33567 0.74501 0.0
C156 C 0.60349 0.36487 0.73022 0.0
C157 C 0.61562 0.3639 0.77755 0.0
C158 C 0.61677 0.28772 0.60214 0.0
N159 N 0.63253 0.27362 0.62005 0.0
C160 C 0.59625 0.27468 0.58759 0.0
C161 C 0.59188 0.24704 0.5915 0.0
C162 C 0.608 0.2328 0.60984 0.0
C163 C 0.62832 0.24651 0.62404 0.0
C164 C 0.70787 0.23739 0.59529 0.0
C165 C 0.70448 0.25507 0.6485 0.0
C166 C 0.68876 0.2568 0.60308 0.0
N167 N 0.68725 0.2654 0.62942 0.0
C168 C 0.72383 0.23561 0.64145 0.0
C169 C 0.72549 0.22675 0.61465 0.0
C170 C 0.68944 0.32687 0.6819 0.0
C171 C 0.61302 0.40211 0.64104 0.0
C172 C 0.64414 0.38901 0.68589 0.0
C173 C 0.64465 0.41548 0.67582 0.0
C174 C 0.62895 0.42202 0.65325 0.0
N175 N 0.62835 0.36963 0.67389 0.0
C176 C 0.61301 0.37586 0.65168 0.0
Co177 Co 0.84098 0.72649 0.13737 0.0
Co178 Co 0.87726 0.68669 0.18181 0.0
O179 O 0.87079 0.70202 0.14603 0.0
C180 C 0.81586 0.6974 0.09114 0.0
O181 O 0.79248 0.69924 0.1038 0.0
C182 C 0.9297 0.71309 0.16891 0.0
O183 O 0.91625 0.73539 0.16334 0.0
O184 O 0.8743 0.72317 0.19904 0.0
O185 O 0.84471 0.74579 0.17275 0.0
H186 H 0.8597 0.67361 0.28136 0.0
H187 H 0.8867 0.71996 0.0987 0.0
O188 O 0.83727 0.70711 0.10189 0.0
H189 H 0.88596 0.81704 0.1228 0.0
H190 H 0.78746 0.78755 0.07533 0.0
H191 H 0.79328 0.74801 0.16702 0.0
H192 H 0.85194 0.78586 0.14205 0.0
H193 H 0.82512 0.75692 0.08745 0.0
O194 O 0.91714 0.69191 0.17667 0.0
H195 H 0.85126 0.69238 0.23577 0.0
H196 H 0.91857 0.64868 0.20437 0.0
H197 H 0.75532 0.77857 0.1558 0.0
H198 H 0.92092 0.7505 0.07878 0.0
H199 H 0.75223 0.79857 0.10966 0.0
H200 H 0.92073 0.79941 0.09087 0.0
O201 O 0.81421 0.70134 0.15433 0.0
H202 H 0.90969 0.61986 0.11195 0.0
H203 H 0.85352 0.63232 0.1938 0.0
H204 H 0.85613 0.58719 0.17235 0.0
H205 H 0.88446 0.58073 0.13117 0.0
H206 H 0.90629 0.66471 0.13392 0.0
H207 H 0.92787 0.62961 0.24968 0.0
H208 H 0.89825 0.64198 0.28854 0.0
O209 O 0.83769 0.68094 0.18759 0.0
C210 C 0.85897 0.7435 0.19422 0.0
C211 C 0.8727 0.668 0.26457 0.0
C212 C 0.91098 0.64333 0.2468 0.0
N213 N 0.88427 0.67146 0.2174 0.0
C214 C 0.86797 0.67849 0.2387 0.0
C215 C 0.90566 0.65424 0.2212 0.0
C216 C 0.89435 0.65027 0.26859 0.0
C217 C 0.88629 0.74126 0.10385 0.0
N218 N 0.8672 0.75112 0.12137 0.0
C219 C 0.90581 0.75844 0.0926 0.0
C220 C 0.90572 0.78587 0.09942 0.0
C221 C 0.88622 0.79578 0.11735 0.0
C222 C 0.86705 0.778 0.12824 0.0
C223 C 0.78859 0.77899 0.09551 0.0
C224 C 0.79211 0.75667 0.14691 0.0
C225 C 0.80986 0.76163 0.10248 0.0
N226 N 0.81142 0.75074 0.12793 0.0
C227 C 0.77055 0.77395 0.14067 0.0
C228 C 0.76883 0.78516 0.11478 0.0
C229 C 0.81557 0.68622 0.17529 0.0
C230 C 0.89732 0.62241 0.12992 0.0
C231 C 0.86575 0.62971 0.1758 0.0
C232 C 0.86723 0.60409 0.16379 0.0
C233 C 0.88314 0.60047 0.14069 0.0
N234 N 0.8798 0.65111 0.16517 0.0
C235 C 0.89537 0.64774 0.14248 0.0
Co236 Co 0.36038 0.16117 0.21607 0.0
Co237 Co 0.31918 0.11525 0.18255 0.0
O238 O 0.35432 0.12667 0.19719 0.0
C239 C 0.40236 0.16536 0.17217 0.0
O240 O 0.38362 0.16105 0.15373 0.0
C241 C 0.31033 0.06217 0.20838 0.0
O242 O 0.28825 0.07304 0.21859 0.0
O243 O 0.30094 0.12362 0.21787 0.0
O244 O 0.32531 0.15756 0.23593 0.0
H245 H 0.21892 0.12359 0.16616 0.0
H246 H 0.40246 0.11828 0.21732 0.0
O247 O 0.39616 0.1656 0.19726 0.0
H248 H 0.37905 0.13521 0.31313 0.0
H249 H 0.41684 0.2307 0.2653 0.0
H250 H 0.326 0.20858 0.22976 0.0
H251 H 0.35674 0.16099 0.27657 0.0
H252 H 0.40853 0.18714 0.24212 0.0
O253 O 0.32663 0.07687 0.19462 0.0
H254 H 0.2634 0.13762 0.18423 0.0
H255 H 0.30038 0.06803 0.14931 0.0
H256 H 0.33339 0.25228 0.25297 0.0
H257 H 0.42551 0.09222 0.25327 0.0
H258 H 0.37908 0.26358 0.27094 0.0
H259 H 0.4138 0.1006 0.30157 0.0
O260 O 0.34166 0.18195 0.18669 0.0
H261 H 0.39292 0.07657 0.12376 0.0
H262 H 0.30801 0.12939 0.12465 0.0
H263 H 0.33139 0.12109 0.08121 0.0
H264 H 0.37413 0.09443 0.08057 0.0
H265 H 0.36902 0.0856 0.1668 0.0
H266 H 0.25628 0.05323 0.13092 0.0
H267 H 0.21516 0.08111 0.1393 0.0
O268 O 0.31102 0.15267 0.17006 0.0
C269 C 0.30479 0.14184 0.23588 0.0
C270 C 0.2367 0.11128 0.16235 0.0
C271 C 0.25766 0.0718 0.14257 0.0
N272 N 0.28448 0.10371 0.1678 0.0
C273 C 0.26194 0.11913 0.17251 0.0
C274 C 0.28258 0.08029 0.15303 0.0
C275 C 0.2346 0.08744 0.14729 0.0
C276 C 0.39735 0.12212 0.23831 0.0
N277 N 0.3783 0.14116 0.24483 0.0
C278 C 0.41042 0.10726 0.25856 0.0
C279 C 0.40383 0.11196 0.28566 0.0
C280 C 0.38432 0.13136 0.29216 0.0
C281 C 0.37166 0.14582 0.27136 0.0
C282 C 0.39683 0.226 0.25759 0.0
C283 C 0.34592 0.21328 0.23764 0.0
C284 C 0.39202 0.20139 0.24438 0.0
N285 N 0.36677 0.19526 0.23471 0.0
C286 C 0.34999 0.23809 0.25071 0.0
C287 C 0.37563 0.24443 0.26076 0.0
C288 C 0.32125 0.17631 0.17174 0.0
C289 C 0.37426 0.08814 0.12377 0.0
C290 C 0.32665 0.11788 0.12457 0.0
C291 C 0.33976 0.11317 0.09989 0.0
C292 C 0.36373 0.0982 0.09955 0.0
N293 N 0.33705 0.10785 0.14824 0.0
C294 C 0.36058 0.09323 0.14806 0.0
Co295 Co 0.13526 0.83458 0.71201 0.0
Co296 Co 0.18002 0.87443 0.6763 0.0
O297 O 0.1438 0.86618 0.68978 0.0
C298 C 0.08931 0.81039 0.68132 0.0
O299 O 0.10248 0.78722 0.68154 0.0
C300 C 0.18758 0.93082 0.69506 0.0
O301 O 0.20971 0.92209 0.70705 0.0
O302 O 0.19515 0.87092 0.7137 0.0
O303 O 0.17021 0.83771 0.73236 0.0
H304 H 0.28087 0.86175 0.66897 0.0
H305 H 0.09592 0.87996 0.70804 0.0
O306 O 0.09997 0.83146 0.69193 0.0
H307 H 0.11754 0.87225 0.8054 0.0
H308 H 0.07366 0.77565 0.76848 0.0
H309 H 0.16554 0.78604 0.73033 0.0
H310 H 0.13845 0.84126 0.77217 0.0
H311 H 0.08532 0.81564 0.74078 0.0
O312 O 0.17238 0.91409 0.68247 0.0
H313 H 0.23474 0.85131 0.68525 0.0
H314 H 0.2027 0.9163 0.63868 0.0
H315 H 0.15477 0.74575 0.75794 0.0
H316 H 0.0743 0.91118 0.74063 0.0
H317 H 0.10854 0.74037 0.77723 0.0
H318 H 0.08511 0.90745 0.78971 0.0
O319 O 0.15322 0.8101 0.68522 0.0
H320 H 0.11238 0.90592 0.60687 0.0
H321 H 0.19533 0.85219 0.62201 0.0
H322 H 0.17595 0.85501 0.576 0.0
H323 H 0.13423 0.88214 0.56818 0.0
H324 H 0.13228 0.90231 0.65263 0.0
H325 H 0.24851 0.92748 0.62193 0.0
H326 H 0.28798 0.90009 0.63708 0.0
O327 O 0.1879 0.83523 0.66971 0.0
C328 C 0.19059 0.85368 0.73247 0.0
C329 C 0.26383 0.87381 0.66219 0.0
C330 C 0.24567 0.91071 0.6358 0.0
N331 N 0.21604 0.88312 0.66287 0.0
C332 C 0.23766 0.86799 0.67132 0.0
C333 C 0.21979 0.90428 0.64534 0.0
C334 C 0.26781 0.89533 0.64431 0.0
C335 C 0.10057 0.87806 0.72938 0.0
N336 N 0.11828 0.85866 0.73818 0.0
C337 C 0.08833 0.89586 0.74773 0.0
C338 C 0.09443 0.89379 0.77526 0.0
C339 C 0.11264 0.87406 0.78407 0.0
C340 C 0.12448 0.85661 0.76514 0.0
C341 C 0.09388 0.77777 0.7602 0.0
C342 C 0.14539 0.78385 0.73868 0.0
C343 C 0.1006 0.80036 0.7445 0.0
N344 N 0.1261 0.80318 0.73396 0.0
C345 C 0.1394 0.76099 0.75429 0.0
C346 C 0.11346 0.75798 0.7651 0.0
C347 C 0.17546 0.81268 0.67217 0.0
C348 C 0.13061 0.89411 0.61001 0.0
C349 C 0.17709 0.8639 0.61882 0.0
C350 C 0.16625 0.8655 0.59269 0.0
C351 C 0.14286 0.88073 0.58831 0.0
N352 N 0.16505 0.87721 0.63998 0.0
C353 C 0.14203 0.89206 0.63586 0.0
Co354 Co 0.86507 0.33926 0.79421 0.0
Co355 Co 0.83041 0.38236 0.83751 0.0
O356 O 0.86315 0.37103 0.81809 0.0
C357 C 0.9097 0.33127 0.83376 0.0
O358 O 0.8935 0.34033 0.85284 0.0
C359 C 0.84367 0.43209 0.80626 0.0
O360 O 0.84634 0.4168 0.7846 0.0
O361 O 0.80821 0.3797 0.80386 0.0
O362 O 0.82894 0.34805 0.77842 0.0
H363 H 0.73215 0.37695 0.8641 0.0
H364 H 0.91033 0.37882 0.79518 0.0
O365 O 0.9015 0.32948 0.80934 0.0
H366 H 0.87728 0.37858 0.70076 0.0
H367 H 0.91209 0.27396 0.73121 0.0
H368 H 0.82603 0.29694 0.77674 0.0
H369 H 0.85636 0.34884 0.73509 0.0
H370 H 0.90899 0.31407 0.76099 0.0
O371 O 0.83844 0.42132 0.82916 0.0
H372 H 0.77365 0.36254 0.84016 0.0
H373 H 0.8177 0.4274 0.87592 0.0
H374 H 0.82819 0.25678 0.74698 0.0
H375 H 0.93201 0.40873 0.76143 0.0
H376 H 0.87147 0.24505 0.72397 0.0
H377 H 0.91543 0.40877 0.71385 0.0
O378 O 0.84718 0.31573 0.8218 0.0
H379 H 0.91111 0.41086 0.89278 0.0
H380 H 0.82398 0.36177 0.89408 0.0
H381 H 0.85162 0.36397 0.93572 0.0
H382 H 0.89551 0.38869 0.93524 0.0
H383 H 0.88293 0.40794 0.85152 0.0
H384 H 0.77661 0.44266 0.90006 0.0
H385 H 0.73346 0.41729 0.89429 0.0
O386 O 0.82111 0.34397 0.84627 0.0
C387 C 0.80934 0.36423 0.78311 0.0
C388 C 0.75085 0.38812 0.86684 0.0
C389 C 0.77579 0.42502 0.887 0.0
N390 N 0.79813 0.39398 0.85681 0.0
C391 C 0.77444 0.38001 0.85341 0.0
C392 C 0.79898 0.41631 0.87324 0.0
C393 C 0.75159 0.41077 0.88376 0.0
C394 C 0.90317 0.37856 0.77446 0.0
N395 N 0.88222 0.362 0.76708 0.0
C396 C 0.91545 0.39561 0.75546 0.0
C397 C 0.90612 0.39565 0.72878 0.0
C398 C 0.8847 0.37873 0.72142 0.0
C399 C 0.8729 0.36197 0.74097 0.0
C400 C 0.89312 0.27888 0.74109 0.0
C401 C 0.8449 0.29207 0.76668 0.0
C402 C 0.89125 0.30153 0.75803 0.0
N403 N 0.86731 0.30793 0.77048 0.0
C404 C 0.84601 0.26926 0.74991 0.0
C405 C 0.87031 0.26268 0.73703 0.0
C406 C 0.82895 0.32024 0.83965 0.0
C407 C 0.89199 0.4001 0.89326 0.0
C408 C 0.8431 0.37246 0.89368 0.0
C409 C 0.85863 0.37371 0.91734 0.0
C410 C 0.88324 0.38761 0.91707 0.0
N411 N 0.85181 0.38478 0.87043 0.0
C412 C 0.87589 0.39848 0.87 0.0
Co413 Co 0.64093 0.65821 0.28739 0.0
Co414 Co 0.68094 0.62094 0.33078 0.0
O415 O 0.6467 0.62846 0.31268 0.0
C416 C 0.59248 0.68433 0.31229 0.0
O417 O 0.60549 0.70757 0.31163 0.0
C418 C 0.66792 0.56943 0.30296 0.0
O419 O 0.66435 0.58394 0.28093 0.0
O420 O 0.70104 0.62303 0.29585 0.0
O421 O 0.67783 0.65349 0.27114 0.0
H422 H 0.77963 0.63519 0.35187 0.0
H423 H 0.60077 0.61344 0.29069 0.0
O424 O 0.60391 0.66279 0.30363 0.0
H425 H 0.63313 0.61307 0.19602 0.0
H426 H 0.58576 0.71289 0.22099 0.0
H427 H 0.67352 0.70496 0.26829 0.0
H428 H 0.65037 0.64683 0.22865 0.0
H429 H 0.5942 0.67517 0.25276 0.0
O430 O 0.67477 0.58102 0.32507 0.0
H431 H 0.73604 0.64509 0.32943 0.0
H432 H 0.69894 0.57907 0.37047 0.0
H433 H 0.66598 0.74294 0.23665 0.0
H434 H 0.58278 0.57951 0.25863 0.0
H435 H 0.62183 0.74709 0.21275 0.0
H436 H 0.59904 0.57911 0.21094 0.0
O437 O 0.65641 0.68463 0.31383 0.0
H438 H 0.60539 0.59121 0.39239 0.0
H439 H 0.68929 0.64523 0.38555 0.0
H440 H 0.66443 0.64377 0.42896 0.0
H441 H 0.6222 0.61653 0.4326 0.0
H442 H 0.63077 0.59343 0.3493 0.0
H443 H 0.74221 0.5683 0.39319 0.0
H444 H 0.7829 0.59654 0.38401 0.0
O445 O 0.68774 0.66059 0.33661 0.0
C446 C 0.69853 0.63848 0.27524 0.0
C447 C 0.76202 0.62279 0.35611 0.0
C448 C 0.74102 0.58522 0.37927 0.0
N449 N 0.71493 0.61281 0.34882 0.0
C450 C 0.73726 0.62835 0.34353 0.0
C451 C 0.7166 0.59138 0.36631 0.0
C452 C 0.76385 0.60109 0.37411 0.0
C453 C 0.60771 0.61363 0.26989 0.0
N454 N 0.62645 0.63225 0.26153 0.0
C455 C 0.59755 0.59426 0.25186 0.0
C456 C 0.60672 0.59402 0.22512 0.0
C457 C 0.62586 0.61306 0.21674 0.0
C458 C 0.6356 0.63209 0.23534 0.0
C459 C 0.60509 0.7113 0.23127 0.0
C460 C 0.65427 0.7066 0.25793 0.0
C461 C 0.60997 0.69 0.24929 0.0
N462 N 0.63435 0.68785 0.26233 0.0
C463 C 0.65011 0.72816 0.24005 0.0
C464 C 0.62533 0.73048 0.22666 0.0
C465 C 0.67651 0.68302 0.33012 0.0
C466 C 0.6238 0.60309 0.39108 0.0
C467 C 0.67086 0.63344 0.38694 0.0
C468 C 0.65691 0.63263 0.4116 0.0
C469 C 0.63323 0.61733 0.41362 0.0
N470 N 0.66155 0.61931 0.36497 0.0
C471 C 0.63829 0.60436 0.36676 0.0
Co472 Co 0.21588 0.3613 0.16173 0.0
Co473 Co 0.17918 0.32094 0.11706 0.0
O474 O 0.19359 0.3563 0.12891 0.0
C475 C 0.17544 0.40767 0.16362 0.0
O476 O 0.16103 0.39745 0.14374 0.0
C477 C 0.20925 0.33589 0.06625 0.0
O478 O 0.23154 0.3394 0.0804 0.0
O479 O 0.21551 0.3032 0.12108 0.0
O480 O 0.23622 0.32759 0.15344 0.0
H481 H 0.16574 0.2201 0.12324 0.0
H482 H 0.21106 0.40501 0.12043 0.0
O483 O 0.19668 0.39571 0.17207 0.0
H484 H 0.30889 0.38572 0.12716 0.0
H485 H 0.27112 0.41456 0.22934 0.0
H486 H 0.23582 0.32426 0.20468 0.0
H487 H 0.2761 0.36092 0.15557 0.0
H488 H 0.24337 0.40849 0.18817 0.0
O489 O 0.18719 0.32964 0.07811 0.0
H490 H 0.18341 0.26461 0.13768 0.0
H491 H 0.14419 0.30263 0.07106 0.0
H492 H 0.26368 0.3294 0.24589 0.0
H493 H 0.24312 0.43052 0.0919 0.0
H494 H 0.28154 0.37481 0.25847 0.0
H495 H 0.29246 0.42091 0.09509 0.0
O496 O 0.18956 0.34027 0.18431 0.0
H497 H 0.11441 0.39244 0.08428 0.0
H498 H 0.12318 0.30724 0.13578 0.0
H499 H 0.07825 0.32865 0.13122 0.0
H500 H 0.07363 0.37154 0.1052 0.0
H501 H 0.15905 0.37057 0.0898 0.0
H502 H 0.12629 0.2585 0.05579 0.0
H503 H 0.13696 0.21684 0.08201 0.0
O504 O 0.17023 0.31107 0.15519 0.0
C505 C 0.23518 0.3074 0.13741 0.0
C506 C 0.1609 0.23812 0.11168 0.0
C507 C 0.13879 0.25966 0.0738 0.0
N508 N 0.16477 0.28624 0.1053 0.0
C509 C 0.1708 0.26339 0.11978 0.0
C510 C 0.14906 0.28459 0.08251 0.0
C511 C 0.14478 0.2363 0.08853 0.0
C512 C 0.23247 0.40089 0.12223 0.0
N513 N 0.24165 0.38165 0.13992 0.0
C514 C 0.25055 0.41533 0.10589 0.0
C515 C 0.27822 0.40989 0.10765 0.0
C516 C 0.28744 0.39015 0.12562 0.0
C517 C 0.26876 0.37611 0.14163 0.0
C518 C 0.26348 0.39466 0.22406 0.0
C519 C 0.24364 0.34407 0.20992 0.0
C520 C 0.24769 0.39111 0.20081 0.0
N521 N 0.23809 0.36601 0.19392 0.0
C522 C 0.25935 0.34686 0.23333 0.0
C523 C 0.26933 0.37235 0.24038 0.0
C524 C 0.17422 0.32006 0.1791 0.0
C525 C 0.11615 0.37376 0.09566 0.0
C526 C 0.12142 0.32607 0.12477 0.0
C527 C 0.09588 0.33802 0.12208 0.0
C528 C 0.09329 0.36205 0.10744 0.0
N529 N 0.14377 0.33772 0.11323 0.0
C530 C 0.14136 0.36122 0.09876 0.0
Co531 Co 0.71348 0.13744 0.83424 0.0
Co532 Co 0.68117 0.17646 0.88337 0.0
O533 O 0.69434 0.14147 0.86917 0.0
C534 C 0.67313 0.09088 0.83513 0.0
O535 O 0.66047 0.10076 0.85634 0.0
C536 C 0.70707 0.1803 0.93715 0.0
O537 O 0.71864 0.20238 0.92779 0.0
O538 O 0.71725 0.19374 0.87667 0.0
O539 O 0.73469 0.17099 0.84141 0.0
H540 H 0.66945 0.27773 0.88241 0.0
H541 H 0.71279 0.09235 0.87435 0.0
O542 O 0.6934 0.10319 0.82494 0.0
H543 H 0.80946 0.11226 0.85856 0.0
H544 H 0.76182 0.08621 0.76006 0.0
H545 H 0.72898 0.17566 0.79051 0.0
H546 H 0.774 0.13811 0.83467 0.0
H547 H 0.73835 0.09107 0.80397 0.0
O548 O 0.69255 0.16578 0.92131 0.0
H549 H 0.68555 0.23361 0.86521 0.0
H550 H 0.64843 0.19331 0.93171 0.0
H551 H 0.75253 0.17172 0.74656 0.0
H552 H 0.74755 0.06577 0.89837 0.0
H553 H 0.76914 0.12674 0.73106 0.0
H554 H 0.79632 0.07567 0.89058 0.0
O555 O 0.68513 0.159 0.815 0.0
H556 H 0.6182 0.10486 0.91941 0.0
H557 H 0.62413 0.19078 0.86864 0.0
H558 H 0.57946 0.16964 0.87605 0.0
H559 H 0.57626 0.12643 0.90173 0.0
H560 H 0.66254 0.12641 0.91106 0.0
H561 H 0.63199 0.23701 0.94965 0.0
H562 H 0.64247 0.27963 0.92494 0.0
O563 O 0.66942 0.18795 0.84646 0.0
C564 C 0.73533 0.19032 0.8585 0.0
C565 C 0.66472 0.2593 0.89335 0.0
C566 C 0.6437 0.23645 0.93108 0.0
N567 N 0.66791 0.21088 0.89738 0.0
C568 C 0.67377 0.23425 0.8837 0.0
C569 C 0.65306 0.21176 0.92081 0.0
C570 C 0.64959 0.26035 0.91721 0.0
C571 C 0.73391 0.09661 0.87056 0.0
N572 N 0.74127 0.11656 0.85281 0.0
C573 C 0.75354 0.08156 0.88436 0.0
C574 C 0.7809 0.08715 0.88002 0.0
C575 C 0.78827 0.10769 0.86206 0.0
C576 C 0.76808 0.12231 0.84863 0.0
C577 C 0.75472 0.10592 0.76661 0.0
C578 C 0.73628 0.15604 0.784 0.0
C579 C 0.74135 0.1088 0.79143 0.0
N580 N 0.73244 0.13367 0.7999 0.0
C581 C 0.74954 0.15392 0.75905 0.0
C582 C 0.75883 0.12867 0.75035 0.0
C583 C 0.67099 0.17952 0.82208 0.0
C584 C 0.61932 0.12371 0.90823 0.0
C585 C 0.62298 0.17181 0.87953 0.0
C586 C 0.59759 0.16002 0.88382 0.0
C587 C 0.5958 0.1358 0.89827 0.0
N588 N 0.64597 0.15984 0.88939 0.0
C589 C 0.64437 0.1361 0.90356 0.0
Co590 Co 0.78747 0.85955 0.35139 0.0
Co591 Co 0.83093 0.82345 0.39238 0.0
O592 O 0.81142 0.85632 0.38263 0.0
C593 C 0.81147 0.90771 0.32393 0.0
O594 O 0.81222 0.89352 0.30137 0.0
C595 C 0.80096 0.83551 0.44311 0.0
O596 O 0.77836 0.83502 0.42904 0.0
O597 O 0.79707 0.80137 0.38968 0.0
O598 O 0.77263 0.82218 0.35725 0.0
H599 H 0.85738 0.7254 0.3836 0.0
H600 H 0.78696 0.90167 0.39445 0.0
O601 O 0.80234 0.89706 0.34569 0.0
H602 H 0.69371 0.86564 0.39152 0.0
H603 H 0.72163 0.90894 0.2908 0.0
H604 H 0.77218 0.82389 0.30546 0.0
H605 H 0.72866 0.84824 0.36024 0.0
H606 H 0.7517 0.90376 0.33048 0.0
O607 O 0.82366 0.8312 0.43159 0.0
H608 H 0.83328 0.7673 0.37081 0.0
H609 H 0.86986 0.80942 0.43651 0.0
H610 H 0.74232 0.82817 0.26556 0.0
H611 H 0.75257 0.91983 0.42592 0.0
H612 H 0.71679 0.87095 0.25803 0.0
H613 H 0.70557 0.90175 0.42462 0.0
O614 O 0.81582 0.84415 0.32694 0.0
H615 H 0.8872 0.90363 0.42062 0.0
H616 H 0.88714 0.81675 0.371 0.0
H617 H 0.92909 0.84392 0.37298 0.0
H618 H 0.92931 0.88766 0.39801 0.0
H619 H 0.84563 0.87593 0.41793 0.0
H620 H 0.8942 0.76789 0.45014 0.0
H621 H 0.88811 0.72552 0.42353 0.0
O622 O 0.8388 0.81527 0.35362 0.0
C623 C 0.77699 0.8023 0.37329 0.0
C624 C 0.86027 0.74375 0.3953 0.0
C625 C 0.88091 0.7676 0.43267 0.0
N626 N 0.85032 0.79083 0.40277 0.0
C627 C 0.84674 0.76757 0.38811 0.0
C628 C 0.86703 0.79103 0.42489 0.0
C629 C 0.87749 0.74383 0.41773 0.0
C630 C 0.76649 0.89387 0.39357 0.0
N631 N 0.7598 0.87404 0.37538 0.0
C632 C 0.74713 0.90416 0.41152 0.0
C633 C 0.72077 0.89398 0.41081 0.0
C634 C 0.71411 0.8737 0.39226 0.0
C635 C 0.73401 0.86388 0.37464 0.0
C636 C 0.73263 0.8902 0.29387 0.0
C637 C 0.76109 0.84255 0.30235 0.0
C638 C 0.74969 0.88716 0.31628 0.0
N639 N 0.76364 0.86354 0.32029 0.0
C640 C 0.74423 0.84486 0.27971 0.0
C641 C 0.72993 0.86887 0.27549 0.0
C642 C 0.8331 0.82518 0.33043 0.0
C643 C 0.88738 0.88458 0.40971 0.0
C644 C 0.88704 0.83582 0.38182 0.0
C645 C 0.91088 0.85108 0.38293 0.0
C646 C 0.91099 0.87562 0.397 0.0
N647 N 0.864 0.84468 0.39444 0.0
C648 C 0.86392 0.86877 0.40817 0.0
Co649 Co 0.28869 0.64111 0.65102 0.0
Co650 Co 0.33677 0.6798 0.61822 0.0
O651 O 0.31751 0.6458 0.62432 0.0
C652 C 0.32783 0.5981 0.6663 0.0
O653 O 0.34689 0.61671 0.66631 0.0
C654 C 0.31716 0.66837 0.56211 0.0
O655 O 0.29215 0.66918 0.57121 0.0
O656 O 0.30195 0.70035 0.61504 0.0
O657 O 0.2734 0.67749 0.64227 0.0
H658 H 0.35675 0.7788 0.63206 0.0
H659 H 0.29809 0.59891 0.60918 0.0
O660 O 0.30348 0.60447 0.66045 0.0
H661 H 0.20392 0.62958 0.59527 0.0
H662 H 0.2172 0.58768 0.70064 0.0
H663 H 0.26274 0.67635 0.69239 0.0
H664 H 0.23187 0.64913 0.63187 0.0
H665 H 0.25341 0.59459 0.66679 0.0
O666 O 0.33707 0.67209 0.57817 0.0
H667 H 0.33261 0.73576 0.64007 0.0
H668 H 0.38226 0.69609 0.58183 0.0
H669 H 0.22647 0.6704 0.72632 0.0
H670 H 0.27079 0.57865 0.57245 0.0
H671 H 0.20344 0.6258 0.73062 0.0
H672 H 0.22335 0.59402 0.56529 0.0
O673 O 0.31111 0.65801 0.68014 0.0
H674 H 0.40072 0.60237 0.6007 0.0
H675 H 0.38774 0.68872 0.64956 0.0
H676 H 0.43033 0.6632 0.65558 0.0
H677 H 0.43704 0.61971 0.63101 0.0
H678 H 0.35835 0.62844 0.59544 0.0
H679 H 0.40679 0.7388 0.57301 0.0
H680 H 0.39414 0.78052 0.59831 0.0
O681 O 0.33717 0.68801 0.65789 0.0
C682 C 0.27944 0.698 0.62772 0.0
C683 C 0.3625 0.76075 0.62095 0.0
C684 C 0.39055 0.7383 0.58779 0.0
N685 N 0.35612 0.71339 0.61155 0.0
C686 C 0.34895 0.73629 0.62545 0.0
C687 C 0.37655 0.7142 0.59281 0.0
C688 C 0.38345 0.7617 0.602 0.0
C689 C 0.2774 0.60556 0.6063 0.0
N690 N 0.26654 0.62507 0.62273 0.0
C691 C 0.26207 0.59408 0.58542 0.0
C692 C 0.23547 0.60274 0.58139 0.0
C693 C 0.22455 0.6227 0.5982 0.0
C694 C 0.2405 0.63374 0.61885 0.0
C695 C 0.22706 0.60722 0.69893 0.0
C696 C 0.25271 0.65692 0.69402 0.0
C697 C 0.24762 0.61123 0.67985 0.0
N698 N 0.26005 0.6359 0.6775 0.0
C699 C 0.23223 0.65366 0.71332 0.0
C700 C 0.21934 0.62862 0.71574 0.0
C701 C 0.32772 0.67786 0.67973 0.0
C702 C 0.39807 0.62134 0.61145 0.0
C703 C 0.39048 0.66979 0.63884 0.0
C704 C 0.41467 0.65545 0.64229 0.0
C705 C 0.41843 0.63106 0.62849 0.0
N706 N 0.37064 0.66015 0.62205 0.0
C707 C 0.37417 0.63624 0.60846 0.0
Co708 Co 0.83392 0.79238 0.64175 0.0
Co709 Co 0.88159 0.82311 0.68256 0.0
O710 O 0.86849 0.81147 0.64684 0.0
C711 C 0.83294 0.83638 0.60016 0.0
O712 O 0.84556 0.85272 0.61694 0.0
C713 C 0.93019 0.79247 0.66317 0.0
O714 O 0.91497 0.77099 0.65909 0.0
O715 O 0.87686 0.78574 0.69735 0.0
O716 O 0.83947 0.77134 0.67581 0.0
H717 H 0.87944 0.82885 0.78433 0.0
H718 H 0.87495 0.793 0.59785 0.0
O719 O 0.82707 0.81227 0.60712 0.0
H720 H 0.86003 0.69631 0.61857 0.0
H721 H 0.76186 0.74449 0.58736 0.0
H722 H 0.78842 0.77735 0.67806 0.0
H723 H 0.83465 0.73178 0.64306 0.0
H724 H 0.8057 0.76759 0.59417 0.0
O725 O 0.91971 0.81447 0.67171 0.0
H726 H 0.86282 0.81517 0.73917 0.0
H727 H 0.92938 0.85503 0.70169 0.0
H728 H 0.74448 0.7542 0.67217 0.0
H729 H 0.9006 0.75818 0.57267 0.0
H730 H 0.73095 0.73758 0.62655 0.0
H731 H 0.89325 0.70943 0.58303 0.0
O732 O 0.81413 0.82104 0.66231 0.0
H733 H 0.91355 0.89203 0.61465 0.0
H734 H 0.86522 0.87843 0.70117 0.0
H735 H 0.87042 0.92468 0.68294 0.0
H736 H 0.89482 0.93173 0.63942 0.0
H737 H 0.90753 0.84606 0.63341 0.0
H738 H 0.94682 0.86897 0.74647 0.0
H739 H 0.92173 0.85595 0.78819 0.0
O740 O 0.84407 0.83257 0.69456 0.0
C741 C 0.8575 0.76885 0.69414 0.0
C742 C 0.8905 0.83472 0.7663 0.0
C743 C 0.92834 0.85721 0.74505 0.0
N744 N 0.89499 0.83447 0.7178 0.0
C745 C 0.88115 0.8271 0.74066 0.0
C746 C 0.91839 0.84921 0.71975 0.0
C747 C 0.91425 0.84991 0.76845 0.0
C748 C 0.8715 0.77182 0.60234 0.0
N749 N 0.85325 0.76444 0.62184 0.0
C750 C 0.88614 0.7522 0.58807 0.0
C751 C 0.88203 0.72486 0.59391 0.0
C752 C 0.86341 0.71748 0.61387 0.0
C753 C 0.84915 0.73767 0.62773 0.0
C754 C 0.76756 0.75159 0.60734 0.0
C755 C 0.78275 0.77004 0.65817 0.0
C756 C 0.79233 0.76473 0.61132 0.0
N757 N 0.7997 0.77365 0.63653 0.0
C758 C 0.75781 0.757 0.65495 0.0
C759 C 0.75022 0.74771 0.62934 0.0
C760 C 0.82026 0.8329 0.68451 0.0
C761 C 0.90293 0.88923 0.63366 0.0
C762 C 0.87564 0.88128 0.6821 0.0
C763 C 0.87864 0.90754 0.67194 0.0
C764 C 0.89237 0.91149 0.64754 0.0
N765 N 0.88603 0.85954 0.66836 0.0
C766 C 0.89956 0.86326 0.64445 0.0
Co767 Co 0.6557 0.216 0.1339 0.0
Co768 Co 0.61957 0.17589 0.17916 0.0
O769 O 0.62589 0.19061 0.14251 0.0
C770 C 0.66123 0.17276 0.09094 0.0
O771 O 0.65131 0.15417 0.10717 0.0
C772 C 0.56248 0.18931 0.1586 0.0
O773 O 0.57105 0.19934 0.13549 0.0
O774 O 0.62135 0.2129 0.19545 0.0
O775 O 0.64977 0.23599 0.16851 0.0
H776 H 0.63891 0.16673 0.27884 0.0
H777 H 0.61266 0.20707 0.09292 0.0
O778 O 0.66333 0.19731 0.09863 0.0
H779 H 0.60868 0.30463 0.11464 0.0
H780 H 0.71078 0.2766 0.07277 0.0
H781 H 0.70078 0.24035 0.16546 0.0
H782 H 0.64234 0.27504 0.13677 0.0
H783 H 0.67345 0.24524 0.08387 0.0
O784 O 0.57912 0.17996 0.17604 0.0
H785 H 0.64603 0.18423 0.23255 0.0
H786 H 0.58005 0.13692 0.20363 0.0
H787 H 0.73825 0.27186 0.15528 0.0
H788 H 0.57889 0.23601 0.07002 0.0
H789 H 0.74345 0.2902 0.10864 0.0
H790 H 0.5767 0.28515 0.08092 0.0
O791 O 0.68297 0.19227 0.15213 0.0
H792 H 0.58937 0.10538 0.11158 0.0
H793 H 0.6447 0.12272 0.19303 0.0
H794 H 0.64342 0.07674 0.1735 0.0
H795 H 0.61547 0.06776 0.13255 0.0
H796 H 0.59163 0.15108 0.13147 0.0
H797 H 0.57208 0.11911 0.24968 0.0
H798 H 0.6017 0.13393 0.28765 0.0
O799 O 0.65927 0.17125 0.18472 0.0
C800 C 0.63564 0.23378 0.18999 0.0
C801 C 0.62592 0.16005 0.26245 0.0
C802 C 0.58839 0.13336 0.24608 0.0
N803 N 0.61362 0.16147 0.21534 0.0
C804 C 0.6299 0.16983 0.23616 0.0
C805 C 0.59297 0.14356 0.22006 0.0
C806 C 0.60502 0.14167 0.26738 0.0
C807 C 0.61197 0.22848 0.0976 0.0
N808 N 0.62946 0.23933 0.11615 0.0
C809 C 0.59275 0.24474 0.08464 0.0
C810 C 0.5915 0.27231 0.0908 0.0
C811 C 0.60941 0.28324 0.10974 0.0
C812 C 0.62835 0.26635 0.12231 0.0
C813 C 0.7087 0.26879 0.09318 0.0
C814 C 0.7028 0.24837 0.14515 0.0
C815 C 0.68763 0.25097 0.09958 0.0
N816 N 0.68482 0.24108 0.12534 0.0
C817 C 0.7241 0.26615 0.13949 0.0
C818 C 0.72702 0.27641 0.11332 0.0
C819 C 0.68154 0.17725 0.17315 0.0
C820 C 0.60147 0.10898 0.12955 0.0
C821 C 0.63257 0.11907 0.17515 0.0
C822 C 0.63187 0.09293 0.16422 0.0
C823 C 0.61617 0.0879 0.14127 0.0
N824 N 0.61793 0.13963 0.16367 0.0
C825 C 0.60264 0.13485 0.14106 0.0
Co826 Co 0.33892 0.71153 0.3523 0.0
Co827 Co 0.38362 0.669 0.31865 0.0
O828 O 0.37129 0.68831 0.35128 0.0
C829 C 0.33388 0.67567 0.4015 0.0
O830 O 0.34861 0.65687 0.38978 0.0
C831 C 0.43303 0.70058 0.33272 0.0
O832 O 0.41787 0.72242 0.33444 0.0
O833 O 0.38122 0.70261 0.29626 0.0
O834 O 0.34789 0.72662 0.31586 0.0
H835 H 0.38052 0.64218 0.22031 0.0
H836 H 0.37856 0.71266 0.39751 0.0
O837 O 0.32848 0.69773 0.38923 0.0
H838 H 0.37551 0.80637 0.3628 0.0
H839 H 0.2717 0.77497 0.39601 0.0
H840 H 0.29663 0.72626 0.31221 0.0
H841 H 0.34673 0.77082 0.34259 0.0
H842 H 0.31248 0.74604 0.3946 0.0
O843 O 0.42226 0.67768 0.32755 0.0
H844 H 0.36505 0.66607 0.26147 0.0
H845 H 0.42929 0.63104 0.30692 0.0
H846 H 0.25581 0.75514 0.31268 0.0
H847 H 0.40749 0.74763 0.41853 0.0
H848 H 0.24311 0.77975 0.3548 0.0
H849 H 0.40613 0.79488 0.40112 0.0
O850 O 0.31633 0.68267 0.33503 0.0
H851 H 0.41271 0.61336 0.39891 0.0
H852 H 0.3631 0.61241 0.31206 0.0
H853 H 0.36572 0.57059 0.33933 0.0
H854 H 0.39075 0.57087 0.38305 0.0
H855 H 0.4092 0.65485 0.37121 0.0
H856 H 0.44559 0.60695 0.2662 0.0
H857 H 0.42107 0.61237 0.22251 0.0
O858 O 0.34555 0.65983 0.30859 0.0
C859 C 0.3649 0.72268 0.29679 0.0
C860 C 0.39133 0.63959 0.23924 0.0
C861 C 0.42786 0.61985 0.26499 0.0
N862 N 0.39612 0.64981 0.28663 0.0
C863 C 0.38262 0.65301 0.26264 0.0
C864 C 0.41857 0.63358 0.28797 0.0
C865 C 0.41409 0.62289 0.24049 0.0
C866 C 0.37766 0.73321 0.38998 0.0
N867 N 0.36085 0.7397 0.36894 0.0
C868 C 0.39417 0.75291 0.4019 0.0
C869 C 0.39343 0.77941 0.39209 0.0
C870 C 0.37627 0.78586 0.37059 0.0
C871 C 0.36007 0.76562 0.35916 0.0
C872 C 0.27705 0.76438 0.37752 0.0
C873 C 0.29133 0.73701 0.33058 0.0
C874 C 0.30008 0.74791 0.37662 0.0
N875 N 0.30703 0.73459 0.35329 0.0
C876 C 0.26815 0.75329 0.33074 0.0
C877 C 0.26102 0.76706 0.35439 0.0
C878 C 0.32157 0.66521 0.31659 0.0
C879 C 0.40179 0.61297 0.37987 0.0
C880 C 0.37379 0.61278 0.33119 0.0
C881 C 0.37533 0.58899 0.34648 0.0
C882 C 0.38942 0.58915 0.37099 0.0
N883 N 0.38595 0.63608 0.34006 0.0
C884 C 0.39985 0.63637 0.36403 0.0
Co885 Co 0.16145 0.28832 0.85876 0.0
Co886 Co 0.1176 0.32783 0.82145 0.0
O887 O 0.1286 0.31003 0.85491 0.0
C888 C 0.18724 0.31469 0.90687 0.0
O889 O 0.20978 0.31665 0.8928 0.0
C890 C 0.06667 0.29615 0.83056 0.0
O891 O 0.08011 0.27349 0.82674 0.0
O892 O 0.12225 0.29341 0.80054 0.0
O893 O 0.15661 0.27218 0.82175 0.0
H894 H 0.12448 0.35113 0.72244 0.0
H895 H 0.11841 0.28599 0.90084 0.0
O896 O 0.16609 0.30436 0.89606 0.0
H897 H 0.12762 0.19228 0.86706 0.0
H898 H 0.22599 0.22753 0.90962 0.0
H899 H 0.20823 0.27503 0.82342 0.0
H900 H 0.1565 0.22878 0.84882 0.0
H901 H 0.18457 0.255 0.90381 0.0
O902 O 0.07873 0.31897 0.82966 0.0
H903 H 0.13871 0.32925 0.76509 0.0
H904 H 0.07146 0.36395 0.80633 0.0
H905 H 0.24987 0.24778 0.82834 0.0
H906 H 0.08932 0.25004 0.91984 0.0
H907 H 0.25897 0.22379 0.87169 0.0
H908 H 0.09379 0.20279 0.90291 0.0
O909 O 0.18408 0.31784 0.84254 0.0
H910 H 0.08675 0.38514 0.89996 0.0
H911 H 0.1357 0.38492 0.81271 0.0
H912 H 0.13154 0.42759 0.83852 0.0
H913 H 0.10683 0.42789 0.88245 0.0
H914 H 0.09161 0.34287 0.8736 0.0
H915 H 0.05637 0.38602 0.76406 0.0
H916 H 0.08302 0.37975 0.72175 0.0
O917 O 0.1558 0.33748 0.81275 0.0
C918 C 0.14009 0.27463 0.80194 0.0
C919 C 0.11274 0.35408 0.74076 0.0
C920 C 0.07449 0.37363 0.76412 0.0
N921 N 0.10605 0.34547 0.78823 0.0
C922 C 0.12074 0.3418 0.765 0.0
C923 C 0.0831 0.36102 0.78798 0.0
C924 C 0.08946 0.37011 0.74038 0.0
C925 C 0.12067 0.26545 0.89353 0.0
N926 N 0.1393 0.25949 0.87388 0.0
C927 C 0.10405 0.24519 0.9043 0.0
C928 C 0.10655 0.21869 0.89476 0.0
C929 C 0.12551 0.21278 0.87464 0.0
C930 C 0.14176 0.23356 0.86433 0.0
C931 C 0.22226 0.2379 0.89063 0.0
C932 C 0.21205 0.26466 0.84235 0.0
C933 C 0.19886 0.25349 0.88724 0.0
N934 N 0.19402 0.26664 0.86331 0.0
C935 C 0.23566 0.24925 0.84501 0.0
C936 C 0.24076 0.2358 0.86934 0.0
C937 C 0.17936 0.33385 0.82271 0.0
C938 C 0.09751 0.38528 0.88082 0.0
C939 C 0.12505 0.38486 0.83187 0.0
C940 C 0.12269 0.4091 0.84636 0.0
C941 C 0.10881 0.40926 0.871 0.0
N942 N 0.11382 0.36145 0.84158 0.0
C943 C 0.10027 0.36143 0.86577 0.0
Co944 Co 0.63338 0.84046 0.7865 0.0
Co945 Co 0.67601 0.87577 0.82937 0.0
O946 O 0.64024 0.8685 0.81382 0.0
C947 C 0.59245 0.83002 0.82947 0.0
O948 O 0.61073 0.83592 0.84786 0.0
C949 C 0.66179 0.93197 0.81092 0.0
O950 O 0.66078 0.92362 0.78564 0.0
O951 O 0.69272 0.87857 0.79245 0.0
O952 O 0.66804 0.84923 0.76777 0.0
H953 H 0.77677 0.86398 0.83914 0.0
H954 H 0.59199 0.88245 0.79817 0.0
O955 O 0.59825 0.83082 0.80434 0.0
H956 H 0.61293 0.89223 0.70084 0.0
H957 H 0.57518 0.78704 0.72168 0.0
H958 H 0.66709 0.79867 0.75936 0.0
H959 H 0.63539 0.85697 0.72826 0.0
H960 H 0.58438 0.82251 0.75576 0.0
O961 O 0.66761 0.91555 0.82995 0.0
H962 H 0.73156 0.85461 0.81998 0.0
H963 H 0.69639 0.91362 0.87207 0.0
H964 H 0.65884 0.76311 0.72513 0.0
H965 H 0.56885 0.91786 0.77149 0.0
H966 H 0.61259 0.75712 0.70605 0.0
H967 H 0.57932 0.92295 0.72246 0.0
O968 O 0.65246 0.8125 0.80869 0.0
H969 H 0.60629 0.89486 0.90134 0.0
H970 H 0.69074 0.84578 0.87986 0.0
H971 H 0.67038 0.84103 0.92529 0.0
H972 H 0.62789 0.86576 0.93631 0.0
H973 H 0.62711 0.89871 0.85603 0.0
H974 H 0.74128 0.92376 0.89165 0.0
H975 H 0.78186 0.89878 0.87525 0.0
O976 O 0.68497 0.83635 0.82985 0.0
C977 C 0.68847 0.86475 0.7709 0.0
C978 C 0.75924 0.87496 0.84649 0.0
C979 C 0.73933 0.90854 0.87593 0.0
N980 N 0.71133 0.88348 0.84494 0.0
C981 C 0.73357 0.86972 0.83575 0.0
C982 C 0.71397 0.90277 0.8647 0.0
C983 C 0.76208 0.89451 0.86673 0.0
C984 C 0.59653 0.88444 0.77682 0.0
N985 N 0.61498 0.86762 0.76477 0.0
C986 C 0.58342 0.90457 0.76182 0.0
C987 C 0.58933 0.90744 0.73432 0.0
C988 C 0.60819 0.89022 0.72219 0.0
C989 C 0.62092 0.87034 0.73783 0.0
C990 C 0.59542 0.78948 0.72981 0.0
C991 C 0.64695 0.7963 0.75104 0.0
C992 C 0.60074 0.80949 0.74917 0.0
N993 N 0.62629 0.81277 0.75942 0.0
C994 C 0.64238 0.77608 0.73171 0.0
C995 C 0.61643 0.77271 0.72104 0.0
C996 C 0.67408 0.81396 0.82287 0.0
C997 C 0.62485 0.88404 0.89681 0.0
C998 C 0.67214 0.85643 0.88441 0.0
C999 C 0.66077 0.85376 0.91022 0.0
C1000 C 0.63694 0.86767 0.9164 0.0
N1001 N 0.66016 0.87252 0.86528 0.0
C1002 C 0.63681 0.88625 0.87122 0.0
Co1003 Co 0.85362 0.1613 0.28915 0.0
Co1004 Co 0.81903 0.11723 0.33133 0.0
O1005 O 0.85191 0.12896 0.31229 0.0
C1006 C 0.90072 0.16819 0.32694 0.0
O1007 O 0.88602 0.15861 0.34696 0.0
C1008 C 0.83214 0.06656 0.30087 0.0
O1009 O 0.83356 0.08075 0.27837 0.0
O1010 O 0.7971 0.11968 0.29731 0.0
O1011 O 0.81704 0.15326 0.27391 0.0
H1012 H 0.72043 0.12181 0.35679 0.0
H1013 H 0.89812 0.12093 0.28814 0.0
O1014 O 0.89068 0.17043 0.30325 0.0
H1015 H 0.86359 0.12441 0.19433 0.0
H1016 H 0.89951 0.22757 0.22637 0.0
H1017 H 0.81459 0.20444 0.27389 0.0
H1018 H 0.84382 0.15358 0.22984 0.0
H1019 H 0.89683 0.18678 0.25518 0.0
O1020 O 0.8276 0.07834 0.3234 0.0
H1021 H 0.76207 0.13652 0.33333 0.0
H1022 H 0.80629 0.07219 0.36974 0.0
H1023 H 0.81632 0.24528 0.24511 0.0
H1024 H 0.91868 0.09157 0.2532 0.0
H1025 H 0.85903 0.25708 0.2211 0.0
H1026 H 0.90136 0.09316 0.20591 0.0
O1027 O 0.8366 0.18434 0.31792 0.0
H1028 H 0.89953 0.08975 0.38737 0.0
H1029 H 0.81163 0.13743 0.388 0.0
H1030 H 0.83882 0.13548 0.42993 0.0
H1031 H 0.88309 0.11144 0.4298 0.0
H1032 H 0.8718 0.09247 0.34581 0.0
H1033 H 0.76507 0.05664 0.3934 0.0
H1034 H 0.72176 0.08158 0.38707 0.0
O1035 O 0.80933 0.15543 0.34009 0.0
C1036 C 0.79784 0.13634 0.27748 0.0
C1037 C 0.73919 0.11081 0.35977 0.0
C1038 C 0.76424 0.07421 0.38028 0.0
N1039 N 0.78664 0.10533 0.35026 0.0
C1040 C 0.76286 0.11909 0.34659 0.0
C1041 C 0.7875 0.08308 0.36677 0.0
C1042 C 0.73995 0.08822 0.37673 0.0
C1043 C 0.89061 0.12188 0.26757 0.0
N1044 N 0.86985 0.13902 0.26103 0.0
C1045 C 0.90227 0.10514 0.24789 0.0
C1046 C 0.89252 0.10602 0.22137 0.0
C1047 C 0.87132 0.12354 0.21486 0.0
C1048 C 0.86014 0.13995 0.23508 0.0
C1049 C 0.88079 0.22263 0.23671 0.0
C1050 C 0.83321 0.20936 0.26342 0.0
C1051 C 0.87917 0.1996 0.25312 0.0
N1052 N 0.85555 0.19318 0.26615 0.0
C1053 C 0.83409 0.23255 0.24719 0.0
C1054 C 0.85806 0.23917 0.23375 0.0
C1055 C 0.81777 0.1793 0.335 0.0
C1056 C 0.88025 0.10023 0.3877 0.0
C1057 C 0.83094 0.1271 0.38773 0.0
C1058 C 0.84621 0.12597 0.41157 0.0
C1059 C 0.87103 0.11245 0.41149 0.0
N1060 N 0.84011 0.11507 0.36448 0.0
C1061 C 0.86441 0.10175 0.36426 0.0
Co1062 Co 0.13385 0.65705 0.21083 0.0
Co1063 Co 0.17915 0.6226 0.17073 0.0
O1064 O 0.14266 0.6287 0.18471 0.0
C1065 C 0.08783 0.6846 0.18391 0.0
O1066 O 0.1016 0.70729 0.18624 0.0
C1067 C 0.16557 0.56632 0.18922 0.0
O1068 O 0.16376 0.57479 0.21442 0.0
O1069 O 0.19423 0.62083 0.20842 0.0
O1070 O 0.16903 0.65201 0.23009 0.0
H1071 H 0.27987 0.63728 0.16551 0.0
H1072 H 0.09539 0.6118 0.20134 0.0
O1073 O 0.09825 0.66228 0.19183 0.0
H1074 H 0.118 0.6073 0.29867 0.0
H1075 H 0.07216 0.70746 0.27503 0.0
H1076 H 0.1637 0.70336 0.2349 0.0
H1077 H 0.13769 0.64292 0.26965 0.0
H1078 H 0.08403 0.67145 0.24234 0.0
O1079 O 0.17185 0.58265 0.17025 0.0
H1080 H 0.23353 0.6455 0.18242 0.0
H1081 H 0.20261 0.58492 0.12948 0.0
H1082 H 0.15272 0.73966 0.26754 0.0
H1083 H 0.07502 0.57599 0.22969 0.0
H1084 H 0.10666 0.74188 0.28784 0.0
H1085 H 0.08634 0.57355 0.27873 0.0
O1086 O 0.15122 0.68491 0.18719 0.0
H1087 H 0.11206 0.60221 0.0967 0.0
H1088 H 0.19591 0.65136 0.12015 0.0
H1089 H 0.17732 0.65514 0.07389 0.0
H1090 H 0.13513 0.63036 0.06187 0.0
H1091 H 0.13121 0.59923 0.14282 0.0
H1092 H 0.24867 0.5759 0.11214 0.0
H1093 H 0.28767 0.60225 0.1301 0.0
O1094 O 0.18679 0.66231 0.16996 0.0
C1095 C 0.18962 0.63641 0.22867 0.0
C1096 C 0.26303 0.62571 0.15747 0.0
C1097 C 0.24552 0.59123 0.12755 0.0
N1098 N 0.21536 0.61582 0.15685 0.0
C1099 C 0.23673 0.63032 0.16692 0.0
C1100 C 0.21949 0.59638 0.1375 0.0
C1101 C 0.26739 0.60604 0.13762 0.0
C1102 C 0.10023 0.61102 0.22271 0.0
N1103 N 0.11756 0.62957 0.23385 0.0
C1104 C 0.08872 0.59063 0.23864 0.0
C1105 C 0.09511 0.58925 0.26614 0.0
C1106 C 0.11288 0.60817 0.27734 0.0
C1107 C 0.12403 0.62826 0.26078 0.0
C1108 C 0.09231 0.7067 0.26634 0.0
C1109 C 0.14362 0.70416 0.24367 0.0
C1110 C 0.09914 0.68637 0.24782 0.0
N1111 N 0.12455 0.68528 0.23675 0.0
C1112 C 0.13752 0.72477 0.26214 0.0
C1113 C 0.11167 0.72601 0.27352 0.0
C1114 C 0.17379 0.6842 0.17452 0.0
C1115 C 0.13048 0.61307 0.10168 0.0
C1116 C 0.17747 0.64067 0.11515 0.0
C1117 C 0.16708 0.6428 0.08888 0.0
C1118 C 0.14342 0.62888 0.08215 0.0
N1119 N 0.16472 0.62504 0.13417 0.0
C1120 C 0.14146 0.61141 0.12774 0.0
Co1121 Co 0.36762 0.34729 0.71543 0.0
Co1122 Co 0.32021 0.38094 0.67634 0.0
O1123 O 0.35714 0.37688 0.69083 0.0
C1124 C 0.4103 0.33842 0.6729 0.0
O1125 O 0.39151 0.33457 0.65442 0.0
C1126 C 0.33718 0.43824 0.69151 0.0
O1127 O 0.35864 0.42988 0.70478 0.0
O1128 O 0.30448 0.37862 0.71355 0.0
O1129 O 0.3321 0.34935 0.73472 0.0
H1130 H 0.22165 0.35634 0.66816 0.0
H1131 H 0.40543 0.3937 0.70939 0.0
O1132 O 0.40379 0.34438 0.69719 0.0
H1133 H 0.38036 0.39247 0.80624 0.0
H1134 H 0.43238 0.29585 0.77538 0.0
H1135 H 0.3399 0.29864 0.73743 0.0
H1136 H 0.3618 0.35837 0.77473 0.0
H1137 H 0.41849 0.33311 0.74508 0.0
O1138 O 0.32142 0.42144 0.67982 0.0
H1139 H 0.26836 0.35189 0.68543 0.0
H1140 H 0.29351 0.41856 0.63701 0.0
H1141 H 0.35289 0.26112 0.76781 0.0
H1142 H 0.42485 0.42792 0.74031 0.0
H1143 H 0.39944 0.25956 0.78701 0.0
H1144 H 0.41222 0.42753 0.7891 0.0
O1145 O 0.35226 0.31947 0.6904 0.0
H1146 H 0.3867 0.4134 0.60611 0.0
H1147 H 0.30746 0.35488 0.62317 0.0
H1148 H 0.32736 0.35654 0.57734 0.0
H1149 H 0.36723 0.38605 0.56853 0.0
H1150 H 0.36632 0.41091 0.65168 0.0
H1151 H 0.247 0.42388 0.6194 0.0
H1152 H 0.21072 0.39255 0.6349 0.0
O1153 O 0.31675 0.34099 0.672 0.0
C1154 C 0.31029 0.36315 0.73347 0.0
C1155 C 0.2373 0.37006 0.66118 0.0
C1156 C 0.25152 0.40799 0.63385 0.0
N1157 N 0.2837 0.38481 0.6621 0.0
C1158 C 0.26381 0.3676 0.67084 0.0
C1159 C 0.27781 0.40491 0.64394 0.0
C1160 C 0.23118 0.3904 0.64255 0.0
C1161 C 0.40002 0.39325 0.73064 0.0
N1162 N 0.38242 0.3741 0.7402 0.0
C1163 C 0.41099 0.41275 0.74803 0.0
C1164 C 0.40387 0.41254 0.77539 0.0
C1165 C 0.38596 0.39291 0.78501 0.0
C1166 C 0.37538 0.37373 0.76702 0.0
C1167 C 0.41203 0.29633 0.76717 0.0
C1168 C 0.36015 0.29819 0.74581 0.0
C1169 C 0.40406 0.31735 0.74995 0.0
N1170 N 0.37835 0.31815 0.73961 0.0
C1171 C 0.36741 0.27685 0.76296 0.0
C1172 C 0.39353 0.27598 0.7737 0.0
C1173 C 0.33052 0.31963 0.67639 0.0
C1174 C 0.36924 0.40058 0.60966 0.0
C1175 C 0.32482 0.36774 0.61955 0.0
C1176 C 0.33598 0.36863 0.59352 0.0
C1177 C 0.35834 0.38519 0.58859 0.0
N1178 N 0.3355 0.38304 0.64008 0.0
C1179 C 0.35752 0.39919 0.63542 0.0
Co1180 Co 0.79202 0.64017 0.84315 0.0
Co1181 Co 0.83395 0.67869 0.88377 0.0
O1182 O 0.81507 0.64524 0.87487 0.0
C1183 C 0.81847 0.59147 0.81865 0.0
O1184 O 0.81967 0.60435 0.79536 0.0
C1185 C 0.80159 0.6686 0.93336 0.0
O1186 O 0.78015 0.66537 0.91788 0.0
O1187 O 0.80021 0.70023 0.87834 0.0
O1188 O 0.77586 0.67719 0.84734 0.0
H1189 H 0.86037 0.77623 0.87062 0.0
H1190 H 0.79171 0.59963 0.88773 0.0
O1191 O 0.80821 0.60302 0.8394 0.0
H1192 H 0.69753 0.6326 0.88119 0.0
H1193 H 0.72972 0.58605 0.78281 0.0
H1194 H 0.77588 0.6738 0.79602 0.0
H1195 H 0.73272 0.64994 0.85019 0.0
H1196 H 0.75875 0.59379 0.82286 0.0
O1197 O 0.82463 0.67359 0.92283 0.0
H1198 H 0.83705 0.73348 0.85916 0.0
H1199 H 0.8707 0.69555 0.9288 0.0
H1200 H 0.74704 0.66698 0.75572 0.0
H1201 H 0.75708 0.58155 0.91894 0.0
H1202 H 0.72372 0.62282 0.74891 0.0
H1203 H 0.70961 0.5981 0.91583 0.0
O1204 O 0.8204 0.65571 0.81864 0.0
H1205 H 0.88872 0.60053 0.91943 0.0
H1206 H 0.89124 0.68439 0.86505 0.0
H1207 H 0.93302 0.6575 0.87071 0.0
H1208 H 0.93194 0.61527 0.89814 0.0
H1209 H 0.84735 0.62795 0.91304 0.0
H1210 H 0.89419 0.73798 0.94115 0.0
H1211 H 0.88918 0.77867 0.91188 0.0
O1212 O 0.84369 0.68458 0.84514 0.0
C1213 C 0.78003 0.69799 0.86223 0.0
C1214 C 0.86278 0.75861 0.88348 0.0
C1215 C 0.88173 0.73715 0.92309 0.0
N1216 N 0.8527 0.71198 0.89317 0.0
C1217 C 0.8497 0.73432 0.87705 0.0
C1218 C 0.86834 0.71321 0.91603 0.0
C1219 C 0.87892 0.75997 0.90665 0.0
C1220 C 0.77105 0.60673 0.88604 0.0
N1221 N 0.76423 0.62568 0.86699 0.0
C1222 C 0.75154 0.59651 0.90386 0.0
C1223 C 0.72492 0.60583 0.90213 0.0
C1224 C 0.71813 0.6252 0.88271 0.0
C1225 C 0.73817 0.63499 0.86525 0.0
C1226 C 0.7398 0.60537 0.78553 0.0
C1227 C 0.76582 0.65453 0.79318 0.0
C1228 C 0.75629 0.60984 0.80813 0.0
N1229 N 0.76908 0.63419 0.8117 0.0
C1230 C 0.74951 0.65079 0.77033 0.0
C1231 C 0.73644 0.62601 0.76652 0.0
C1232 C 0.83807 0.67436 0.82209 0.0
C1233 C 0.88946 0.61892 0.90747 0.0
C1234 C 0.89057 0.66597 0.87688 0.0
C1235 C 0.91432 0.65086 0.88009 0.0
C1236 C 0.9137 0.62718 0.8955 0.0
N1237 N 0.8669 0.65778 0.88876 0.0
C1238 C 0.86612 0.63455 0.90384 0.0
Co1239 Co 0.28187 0.8617 0.1559 0.0
Co1240 Co 0.32874 0.82527 0.11842 0.0
O1241 O 0.30832 0.85837 0.12647 0.0
C1242 C 0.32034 0.90715 0.16591 0.0
O1243 O 0.34048 0.89116 0.15905 0.0
C1244 C 0.30057 0.83636 0.06657 0.0
O1245 O 0.27836 0.84002 0.08083 0.0
O1246 O 0.29531 0.80264 0.11998 0.0
O1247 O 0.26701 0.82499 0.14782 0.0
H1248 H 0.35626 0.72798 0.13138 0.0
H1249 H 0.28589 0.90505 0.11451 0.0
O1250 O 0.29596 0.89863 0.1652 0.0
H1251 H 0.19209 0.87094 0.10814 0.0
H1252 H 0.21335 0.91141 0.21312 0.0
H1253 H 0.26144 0.82486 0.19885 0.0
H1254 H 0.22386 0.85185 0.14172 0.0
H1255 H 0.24631 0.90647 0.17578 0.0
O1256 O 0.32286 0.83107 0.07855 0.0
H1257 H 0.33076 0.76978 0.14163 0.0
H1258 H 0.37016 0.81063 0.07682 0.0
H1259 H 0.22847 0.82884 0.23626 0.0
H1260 H 0.25472 0.92488 0.08078 0.0
H1261 H 0.20417 0.87238 0.2436 0.0
H1262 H 0.20747 0.90776 0.0774 0.0
O1263 O 0.30753 0.84537 0.1824 0.0
H1264 H 0.3851 0.90505 0.08944 0.0
H1265 H 0.38368 0.82082 0.14334 0.0
H1266 H 0.42509 0.84887 0.14258 0.0
H1267 H 0.42598 0.8913 0.11545 0.0
H1268 H 0.34402 0.8765 0.09097 0.0
H1269 H 0.39589 0.76918 0.06569 0.0
H1270 H 0.38909 0.7275 0.09315 0.0
O1271 O 0.33481 0.8183 0.1579 0.0
C1272 C 0.27333 0.80439 0.13354 0.0
C1273 C 0.35947 0.74604 0.11932 0.0
C1274 C 0.38169 0.76915 0.08243 0.0
N1275 N 0.34914 0.79269 0.10999 0.0
C1276 C 0.34515 0.7698 0.12508 0.0
C1277 C 0.36702 0.79255 0.08879 0.0
C1278 C 0.37787 0.74578 0.09785 0.0
C1279 C 0.26529 0.89767 0.11332 0.0
N1280 N 0.25666 0.87743 0.13015 0.0
C1281 C 0.24776 0.9089 0.09411 0.0
C1282 C 0.22126 0.89926 0.0922 0.0
C1283 C 0.21263 0.87859 0.10943 0.0
C1284 C 0.23072 0.86782 0.12837 0.0
C1285 C 0.22377 0.89232 0.21009 0.0
C1286 C 0.25082 0.84382 0.20179 0.0
C1287 C 0.24249 0.88942 0.18902 0.0
N1288 N 0.25564 0.86534 0.18502 0.0
C1289 C 0.23222 0.84597 0.22307 0.0
C1290 C 0.21862 0.87041 0.22719 0.0
C1291 C 0.32603 0.82737 0.18051 0.0
C1292 C 0.38498 0.88656 0.10128 0.0
C1293 C 0.38388 0.83931 0.13157 0.0
C1294 C 0.40741 0.85507 0.13116 0.0
C1295 C 0.4079 0.87886 0.11591 0.0
N1296 N 0.3615 0.84699 0.11713 0.0
C1297 C 0.36183 0.87027 0.10212 0.0
Co1298 Co 0.23136 0.13968 0.65908 0.0
Co1299 Co 0.18086 0.17268 0.62333 0.0
O1300 O 0.20315 0.14062 0.6311 0.0
C1301 C 0.19815 0.09036 0.67173 0.0
O1302 O 0.17577 0.10345 0.66573 0.0
C1303 C 0.20521 0.16036 0.56971 0.0
O1304 O 0.22858 0.15817 0.58227 0.0
O1305 O 0.21343 0.19671 0.62142 0.0
O1306 O 0.24291 0.17712 0.64993 0.0
H1307 H 0.15038 0.26926 0.63501 0.0
H1308 H 0.2284 0.09574 0.61821 0.0
O1309 O 0.22114 0.10187 0.66949 0.0
H1310 H 0.31893 0.13658 0.60649 0.0
H1311 H 0.30716 0.09681 0.71248 0.0
H1312 H 0.25082 0.17859 0.70066 0.0
H1313 H 0.28774 0.15357 0.64172 0.0
H1314 H 0.27182 0.09838 0.67712 0.0
O1315 O 0.18378 0.16546 0.58326 0.0
H1316 H 0.17824 0.22889 0.64473 0.0
H1317 H 0.13587 0.18409 0.58452 0.0
H1318 H 0.2861 0.17797 0.73609 0.0
H1319 H 0.25905 0.07793 0.58286 0.0
H1320 H 0.31456 0.13685 0.74219 0.0
H1321 H 0.30465 0.09846 0.57678 0.0
O1322 O 0.20581 0.15443 0.6868 0.0
H1323 H 0.12577 0.0897 0.6018 0.0
H1324 H 0.12777 0.17615 0.65217 0.0
H1325 H 0.08755 0.1466 0.6556 0.0
H1326 H 0.08636 0.10305 0.63024 0.0
H1327 H 0.16569 0.11976 0.59916 0.0
H1328 H 0.10773 0.22407 0.57396 0.0
H1329 H 0.11483 0.26701 0.59937 0.0
O1330 O 0.17748 0.18098 0.66294 0.0
C1331 C 0.23561 0.19665 0.63477 0.0
C1332 C 0.14704 0.25065 0.62384 0.0
C1333 C 0.12313 0.22529 0.58956 0.0
N1334 N 0.15857 0.2041 0.61534 0.0
C1335 C 0.1627 0.22769 0.62931 0.0
C1336 C 0.13917 0.20274 0.59558 0.0
C1337 C 0.12712 0.24938 0.60383 0.0
C1338 C 0.24831 0.1046 0.61584 0.0
N1339 N 0.2563 0.12559 0.63208 0.0
C1340 C 0.26553 0.09451 0.59573 0.0
C1341 C 0.2911 0.10606 0.5923 0.0
C1342 C 0.29912 0.12746 0.60895 0.0
C1343 C 0.28133 0.13705 0.62882 0.0
C1344 C 0.29491 0.11485 0.71 0.0
C1345 C 0.26321 0.16066 0.70309 0.0
C1346 C 0.27482 0.11584 0.69006 0.0
N1347 N 0.25935 0.13861 0.68673 0.0
C1348 C 0.28312 0.16041 0.72323 0.0
C1349 C 0.29906 0.13733 0.72666 0.0
C1350 C 0.1871 0.1723 0.68536 0.0
C1351 C 0.12601 0.10866 0.61289 0.0
C1352 C 0.12746 0.15717 0.64118 0.0
C1353 C 0.10459 0.14056 0.64313 0.0
C1354 C 0.10393 0.11615 0.62888 0.0
N1355 N 0.14901 0.14971 0.62541 0.0
C1356 C 0.14851 0.12581 0.61138 0.0
Co1357 Co 0.70114 0.36144 0.34405 0.0
Co1358 Co 0.66795 0.31643 0.38522 0.0
O1359 O 0.67978 0.35304 0.37632 0.0
C1360 C 0.67143 0.40866 0.32098 0.0
O1361 O 0.67061 0.39581 0.29763 0.0
C1362 C 0.69242 0.33336 0.43837 0.0
O1363 O 0.71576 0.33866 0.42666 0.0
O1364 O 0.70607 0.30276 0.3823 0.0
O1365 O 0.72134 0.32645 0.34653 0.0
H1366 H 0.66473 0.21523 0.37364 0.0
H1367 H 0.69855 0.40031 0.39 0.0
O1368 O 0.68147 0.39702 0.34176 0.0
H1369 H 0.79557 0.37859 0.37927 0.0
H1370 H 0.75689 0.42241 0.2837 0.0
H1371 H 0.71781 0.33104 0.29493 0.0
H1372 H 0.76152 0.35832 0.3488 0.0
H1373 H 0.73017 0.41106 0.32444 0.0
O1374 O 0.67257 0.32439 0.4246 0.0
H1375 H 0.67851 0.2619 0.36217 0.0
H1376 H 0.63293 0.29258 0.4286 0.0
H1377 H 0.74438 0.34153 0.25388 0.0
H1378 H 0.73197 0.42129 0.4207 0.0
H1379 H 0.76414 0.38751 0.24806 0.0
H1380 H 0.78088 0.41041 0.41549 0.0
O1381 O 0.67349 0.34333 0.32025 0.0
H1382 H 0.59575 0.38244 0.41388 0.0
H1383 H 0.61405 0.29702 0.36526 0.0
H1384 H 0.56724 0.31437 0.36762 0.0
H1385 H 0.55782 0.35736 0.39218 0.0
H1386 H 0.64232 0.36448 0.4107 0.0
H1387 H 0.61884 0.2462 0.4409 0.0
H1388 H 0.63467 0.20714 0.41327 0.0
O1389 O 0.66197 0.30777 0.34625 0.0
C1390 C 0.72337 0.30696 0.36341 0.0
C1391 C 0.65762 0.23209 0.38579 0.0
C1392 C 0.63191 0.24947 0.42357 0.0
N1393 N 0.65641 0.27997 0.39458 0.0
C1394 C 0.6653 0.25857 0.37935 0.0
C1395 C 0.64002 0.27568 0.41654 0.0
C1396 C 0.64078 0.22756 0.40804 0.0
C1397 C 0.71981 0.39566 0.3874 0.0
N1398 N 0.72805 0.37823 0.36746 0.0
C1399 C 0.73863 0.40753 0.40494 0.0
C1400 C 0.76607 0.40138 0.40203 0.0
C1401 C 0.77432 0.38352 0.38173 0.0
C1402 C 0.75492 0.37202 0.36458 0.0
C1403 C 0.74836 0.40231 0.28599 0.0
C1404 C 0.72628 0.35111 0.29253 0.0
C1405 C 0.7332 0.39577 0.309 0.0
N1406 N 0.72232 0.37043 0.31202 0.0
C1407 C 0.74134 0.35692 0.26925 0.0
C1408 C 0.75242 0.38272 0.266 0.0
C1409 C 0.66225 0.32015 0.32356 0.0
C1410 C 0.59959 0.3637 0.40309 0.0
C1411 C 0.61019 0.31587 0.37565 0.0
C1412 C 0.5836 0.32553 0.37709 0.0
C1413 C 0.57833 0.34963 0.3909 0.0
N1414 N 0.63096 0.32976 0.38765 0.0
C1415 C 0.62592 0.35341 0.40123 0.0
H1416 H 0.18579 0.32323 0.23336 0.0
H1417 H 0.13432 0.28175 0.17583 0.0
H1418 H 0.11676 0.25291 0.2117 0.0
H1419 H 0.11854 0.23673 0.25859 0.0
H1420 H 0.17156 0.27653 0.31588 0.0
H1421 H 0.18562 0.30863 0.28108 0.0
C1422 C 0.17044 0.30818 0.22871 0.0
C1423 C 0.1615 0.30481 0.2018 0.0
C1424 C 0.16073 0.29108 0.24943 0.0
C1425 C 0.14169 0.28496 0.19626 0.0
C1426 C 0.13161 0.2683 0.2168 0.0
C1427 C 0.13288 0.25263 0.26363 0.0
C1428 C 0.14397 0.254 0.28989 0.0
C1429 C 0.14137 0.27079 0.24335 0.0
C1430 C 0.16265 0.2748 0.29588 0.0
C1431 C 0.17081 0.29322 0.27593 0.0
H1432 H 0.3351 0.73322 0.79489 0.0
H1433 H 0.39083 0.78491 0.75124 0.0
H1434 H 0.3859 0.75658 0.711 0.0
H1435 H 0.36372 0.71906 0.68735 0.0
H1436 H 0.3074 0.66768 0.73057 0.0
H1437 H 0.31502 0.69387 0.77192 0.0
C1438 C 0.34638 0.73824 0.77668 0.0
C1439 C 0.36319 0.76137 0.77617 0.0
C1440 C 0.34336 0.72193 0.75349 0.0
C1441 C 0.37769 0.76734 0.75232 0.0
C1442 C 0.37487 0.75115 0.72923 0.0
C1443 C 0.35326 0.71332 0.70584 0.0
C1444 C 0.33485 0.69145 0.70567 0.0
C1445 C 0.35745 0.72866 0.72947 0.0
C1446 C 0.32167 0.68437 0.72998 0.0
C1447 C 0.32592 0.69943 0.75366 0.0
H1448 H 0.62336 0.27198 0.74815 0.0
H1449 H 0.65981 0.22215 0.6859 0.0
H1450 H 0.67028 0.18745 0.71934 0.0
H1451 H 0.67396 0.1735 0.76696 0.0
H1452 H 0.63829 0.22379 0.82932 0.0
H1453 H 0.62256 0.25563 0.79512 0.0
C1454 C 0.63311 0.25333 0.74174 0.0
C1455 C 0.64103 0.25 0.71451 0.0
C1456 C 0.63955 0.23349 0.76119 0.0
C1457 C 0.65362 0.22554 0.70671 0.0
C1458 C 0.65974 0.20561 0.72587 0.0
C1459 C 0.66234 0.19115 0.77309 0.0
C1460 C 0.6577 0.19626 0.8008 0.0
C1461 C 0.65356 0.20972 0.7533 0.0
C1462 C 0.64247 0.21929 0.80821 0.0
C1463 C 0.63345 0.23765 0.78864 0.0
H1464 H 0.88224 0.74498 0.24441 0.0
H1465 H 0.82805 0.78957 0.19194 0.0
H1466 H 0.81757 0.82077 0.22878 0.0
H1467 H 0.82004 0.83256 0.27708 0.0
H1468 H 0.8734 0.78713 0.32968 0.0
H1469 H 0.8881 0.75954 0.2915 0.0
C1470 C 0.86844 0.76173 0.24085 0.0
C1471 C 0.85574 0.76459 0.21546 0.0
C1472 C 0.86216 0.77949 0.26223 0.0
C1473 C 0.83801 0.78661 0.2113 0.0
C1474 C 0.83192 0.80451 0.2324 0.0
C1475 C 0.83523 0.81696 0.28015 0.0
C1476 C 0.84527 0.81181 0.30636 0.0
C1477 C 0.84333 0.80072 0.25815 0.0
C1478 C 0.86506 0.79149 0.30983 0.0
C1479 C 0.87348 0.77558 0.28799 0.0
H1480 H 0.25377 0.12016 0.23887 0.0
H1481 H 0.30885 0.17345 0.28135 0.0
H1482 H 0.27394 0.1836 0.31473 0.0
H1483 H 0.22661 0.18055 0.32984 0.0
H1484 H 0.17071 0.12973 0.28555 0.0
H1485 H 0.20711 0.11512 0.25554 0.0
C1486 C 0.25829 0.13373 0.2556 0.0
C1487 C 0.28401 0.146 0.25739 0.0
C1488 C 0.23788 0.14001 0.27456 0.0
C1489 C 0.28931 0.16366 0.27925 0.0
C1490 C 0.2693 0.16955 0.29845 0.0
C1491 C 0.22244 0.16594 0.31393 0.0
C1492 C 0.19582 0.15643 0.31001 0.0
C1493 C 0.24334 0.15826 0.29603 0.0
C1494 C 0.19092 0.13751 0.28913 0.0
C1495 C 0.21174 0.12921 0.27179 0.0
H1496 H 0.26946 0.81769 0.82661 0.0
H1497 H 0.32017 0.87814 0.78858 0.0
H1498 H 0.28321 0.89064 0.75837 0.0
H1499 H 0.23838 0.88098 0.73921 0.0
H1500 H 0.18814 0.8194 0.77611 0.0
H1501 H 0.223 0.81089 0.81004 0.0
C1502 C 0.27232 0.83395 0.81208 0.0
C1503 C 0.29777 0.84667 0.80977 0.0
C1504 C 0.25114 0.84062 0.79416 0.0
C1505 C 0.30093 0.86778 0.79079 0.0
C1506 C 0.2798 0.8749 0.77333 0.0
C1507 C 0.23483 0.86594 0.75485 0.0
C1508 C 0.21067 0.85072 0.75478 0.0
C1509 C 0.25512 0.86086 0.77424 0.0
C1510 C 0.20656 0.83136 0.77539 0.0
C1511 C 0.22652 0.82643 0.79489 0.0
H1512 H 0.80487 0.33581 0.73583 0.0
H1513 H 0.76093 0.391 0.78799 0.0
H1514 H 0.72068 0.38581 0.75975 0.0
H1515 H 0.69707 0.36297 0.72281 0.0
H1516 H 0.74038 0.30712 0.67093 0.0
H1517 H 0.78197 0.31552 0.69657 0.0
C1518 C 0.78661 0.34698 0.74093 0.0
C1519 C 0.78595 0.36361 0.76422 0.0
C1520 C 0.76342 0.34371 0.72477 0.0
C1521 C 0.76209 0.378 0.7703 0.0
C1522 C 0.739 0.37499 0.75419 0.0
C1523 C 0.71561 0.3528 0.7168 0.0
C1524 C 0.71546 0.33425 0.69503 0.0
C1525 C 0.73931 0.35748 0.73176 0.0
C1526 C 0.73983 0.32147 0.68757 0.0
C1527 C 0.76362 0.32618 0.7023 0.0
H1528 H 0.81059 0.64875 0.21536 0.0
H1529 H 0.76319 0.70092 0.16337 0.0
H1530 H 0.7222 0.6889 0.18848 0.0
H1531 H 0.70073 0.66698 0.22778 0.0
H1532 H 0.7487 0.61527 0.27982 0.0
H1533 H 0.78851 0.62364 0.25181 0.0
C1534 C 0.79129 0.65728 0.2092 0.0
C1535 C 0.79012 0.67598 0.18764 0.0
C1536 C 0.76788 0.65052 0.22386 0.0
C1537 C 0.76479 0.68656 0.17991 0.0
C1538 C 0.74132 0.67978 0.19435 0.0
C1539 C 0.71979 0.65724 0.23286 0.0
C1540 C 0.72167 0.64074 0.25613 0.0
C1541 C 0.74276 0.6623 0.21677 0.0
C1542 C 0.74656 0.62816 0.26217 0.0
C1543 C 0.76942 0.63299 0.24618 0.0
H1544 H 0.32905 0.23091 0.17688 0.0
H1545 H 0.28006 0.17165 0.13484 0.0
H1546 H 0.25084 0.20746 0.1176 0.0
H1547 H 0.23581 0.25501 0.11894 0.0
H1548 H 0.28403 0.31372 0.16259 0.0
H1549 H 0.3168 0.27891 0.17421 0.0
C1550 C 0.31232 0.22582 0.16353 0.0
C1551 C 0.3067 0.19852 0.15753 0.0
C1552 C 0.29514 0.24649 0.15405 0.0
C1553 C 0.28486 0.19243 0.1401 0.0
C1554 C 0.268 0.21293 0.13022 0.0
C1555 C 0.25376 0.26031 0.13051 0.0
C1556 C 0.25716 0.28699 0.14003 0.0
C1557 C 0.27243 0.23996 0.13774 0.0
C1558 C 0.28062 0.29339 0.15507 0.0
C1559 C 0.29945 0.27343 0.16185 0.0
H1560 H 0.8309 0.26745 0.82331 0.0
H1561 H 0.79157 0.32059 0.88084 0.0
H1562 H 0.76043 0.28433 0.89347 0.0
H1563 H 0.74126 0.23901 0.88479 0.0
H1564 H 0.7798 0.18698 0.82564 0.0
H1565 H 0.81412 0.22126 0.81725 0.0
C1566 C 0.81587 0.27104 0.83897 0.0
C1567 C 0.81356 0.29688 0.85087 0.0
C1568 C 0.79752 0.25031 0.84569 0.0
C1569 C 0.79384 0.301 0.87116 0.0
C1570 C 0.77587 0.28027 0.87835 0.0
C1571 C 0.75737 0.23499 0.87035 0.0
C1572 C 0.75768 0.21038 0.85582 0.0
C1573 C 0.77701 0.25507 0.86519 0.0
C1574 C 0.7788 0.20567 0.83713 0.0
C1575 C 0.79854 0.22533 0.83223 0.0
H1576 H 0.72895 0.79854 0.34603 0.0
H1577 H 0.78366 0.75208 0.39625 0.0
H1578 H 0.75603 0.71162 0.38918 0.0
H1579 H 0.71847 0.68862 0.36591 0.0
H1580 H 0.6639 0.73519 0.31561 0.0
H1581 H 0.68921 0.77638 0.32596 0.0
C1582 C 0.73475 0.77967 0.35572 0.0
C1583 C 0.75857 0.77846 0.37149 0.0
C1584 C 0.71882 0.7564 0.35152 0.0
C1585 C 0.76552 0.75375 0.38397 0.0
C1586 C 0.74975 0.73051 0.37988 0.0
C1587 C 0.71183 0.7078 0.35745 0.0
C1588 C 0.68936 0.70859 0.33976 0.0
C1589 C 0.72665 0.73148 0.36328 0.0
C1590 C 0.68109 0.73379 0.32922 0.0
C1591 C 0.69565 0.75742 0.33503 0.0
H1592 H 0.22024 0.81031 0.63976 0.0
H1593 H 0.16122 0.75948 0.67993 0.0
H1594 H 0.1869 0.71921 0.66694 0.0
H1595 H 0.22817 0.69891 0.64826 0.0
H1596 H 0.2877 0.74973 0.60886 0.0
H1597 H 0.25935 0.78949 0.61713 0.0
C1598 C 0.21272 0.79044 0.64542 0.0
C1599 C 0.1889 0.78807 0.66112 0.0
C1600 C 0.22771 0.76734 0.63809 0.0
C1601 C 0.17948 0.76204 0.66798 0.0
C1602 C 0.19422 0.73895 0.66062 0.0
C1603 C 0.23487 0.71859 0.64108 0.0
C1604 C 0.26028 0.72126 0.62821 0.0
C1605 C 0.21868 0.74143 0.64627 0.0
C1606 C 0.26834 0.74697 0.61887 0.0
C1607 C 0.25219 0.76979 0.62373 0.0
H1608 H 0.81992 0.67329 0.7699 0.0
H1609 H 0.88298 0.70678 0.82057 0.0
H1610 H 0.89647 0.73738 0.78423 0.0
H1611 H 0.8865 0.75879 0.74038 0.0
H1612 H 0.82143 0.7269 0.69105 0.0
H1613 H 0.81274 0.6918 0.72445 0.0
C1614 C 0.83698 0.68684 0.77283 0.0
C1615 C 0.85013 0.68789 0.7981 0.0
C1616 C 0.84405 0.70514 0.75218 0.0
C1617 C 0.87229 0.70562 0.80142 0.0
C1618 C 0.87995 0.7233 0.78068 0.0
C1619 C 0.87068 0.74395 0.73673 0.0
C1620 C 0.85456 0.74579 0.71326 0.0
C1621 C 0.86533 0.72395 0.75634 0.0
C1622 C 0.83415 0.72624 0.70894 0.0
C1623 C 0.82908 0.70605 0.72808 0.0
H1624 H 0.6161 0.23403 0.24166 0.0
H1625 H 0.66151 0.2828 0.18485 0.0
H1626 H 0.67131 0.31573 0.22045 0.0
H1627 H 0.67091 0.3284 0.26901 0.0
H1628 H 0.62753 0.27735 0.32547 0.0
H1629 H 0.61284 0.24826 0.28883 0.0
C1630 C 0.62777 0.25205 0.23687 0.0
C1631 C 0.63815 0.25567 0.21059 0.0
C1632 C 0.63388 0.27068 0.25755 0.0
C1633 C 0.65329 0.27927 0.20492 0.0
C1634 C 0.65901 0.29817 0.22532 0.0
C1635 C 0.65785 0.31122 0.27321 0.0
C1636 C 0.65044 0.30528 0.30014 0.0
C1637 C 0.65 0.29376 0.25192 0.0
C1638 C 0.6336 0.2827 0.3051 0.0
C1639 C 0.62522 0.2658 0.28409 0.0
H1640 H 0.3387 0.77111 0.29402 0.0
H1641 H 0.38977 0.71749 0.24716 0.0
H1642 H 0.38457 0.74693 0.20761 0.0
H1643 H 0.36225 0.78563 0.18542 0.0
H1644 H 0.31066 0.83853 0.23269 0.0
H1645 H 0.3199 0.81178 0.27313 0.0
C1646 C 0.34903 0.76592 0.27531 0.0
C1647 C 0.36444 0.74191 0.27362 0.0
C1648 C 0.34585 0.78282 0.25266 0.0
C1649 C 0.37774 0.73576 0.24912 0.0
C1650 C 0.37472 0.75257 0.22644 0.0
C1651 C 0.35331 0.79162 0.20461 0.0
C1652 C 0.3355 0.81399 0.20579 0.0
C1653 C 0.35835 0.77585 0.22784 0.0
C1654 C 0.32432 0.82141 0.231 0.0
C1655 C 0.32949 0.80603 0.25418 0.0
H1656 H 0.14762 0.2108 0.69102 0.0
H1657 H 0.20617 0.16466 0.73708 0.0
H1658 H 0.19553 0.19121 0.77748 0.0
H1659 H 0.17237 0.22972 0.79883 0.0
H1660 H 0.11426 0.27627 0.75267 0.0
H1661 H 0.12204 0.24723 0.71331 0.0
C1662 C 0.15788 0.20624 0.70993 0.0
C1663 C 0.17786 0.18577 0.71079 0.0
C1664 C 0.15192 0.22183 0.73309 0.0
C1665 C 0.19074 0.18024 0.73565 0.0
C1666 C 0.18476 0.19552 0.75881 0.0
C1667 C 0.16116 0.23344 0.78028 0.0
C1668 C 0.14286 0.25539 0.77881 0.0
C1669 C 0.16581 0.21674 0.75762 0.0
C1670 C 0.12849 0.25964 0.75451 0.0
C1671 C 0.13297 0.24305 0.73191 0.0
H1672 H 0.74191 0.87928 0.77435 0.0
H1673 H 0.68222 0.84746 0.71871 0.0
H1674 H 0.71753 0.83742 0.68581 0.0
H1675 H 0.7657 0.8325 0.67491 0.0
H1676 H 0.82576 0.8623 0.73133 0.0
H1677 H 0.79008 0.87827 0.76149 0.0
C1678 C 0.73655 0.87069 0.75483 0.0
C1679 C 0.70939 0.86396 0.74925 0.0
C1680 C 0.75713 0.86417 0.73613 0.0
C1681 C 0.70291 0.85276 0.72375 0.0
C1682 C 0.72315 0.84685 0.70487 0.0
C1683 C 0.77105 0.84286 0.69358 0.0
C1684 C 0.79847 0.84586 0.70083 0.0
C1685 C 0.7504 0.85164 0.71118 0.0
C1686 C 0.80488 0.85944 0.72517 0.0
C1687 C 0.78445 0.86861 0.74255 0.0
H1688 H 0.68654 0.1413 0.21483 0.0
H1689 H 0.73375 0.19327 0.1624 0.0
H1690 H 0.77428 0.18356 0.18915 0.0
H1691 H 0.79525 0.16369 0.22954 0.0
H1692 H 0.74803 0.11191 0.28214 0.0
H1693 H 0.70849 0.11821 0.25295 0.0
C1694 C 0.70572 0.15027 0.20893 0.0
C1695 C 0.70692 0.16821 0.18665 0.0
C1696 C 0.7289 0.14482 0.22455 0.0
C1697 C 0.73211 0.17942 0.17937 0.0
C1698 C 0.75531 0.17399 0.19477 0.0
C1699 C 0.77645 0.15345 0.23454 0.0
C1700 C 0.77468 0.13748 0.25822 0.0
C1701 C 0.75378 0.15723 0.21774 0.0
C1702 C 0.75008 0.12433 0.26414 0.0
C1703 C 0.7274 0.12799 0.24748 0.0
H1704 H 0.26724 0.67457 0.32251 0.0
H1705 H 0.32458 0.62722 0.27612 0.0
H1706 H 0.28835 0.61183 0.24633 0.0
H1707 H 0.2412 0.6156 0.23036 0.0
H1708 H 0.18426 0.66357 0.27665 0.0
H1709 H 0.21936 0.67444 0.30943 0.0
C1710 C 0.27181 0.66052 0.3062 0.0
C1711 C 0.29877 0.65243 0.30151 0.0
C1712 C 0.25089 0.6519 0.28882 0.0
C1713 C 0.30412 0.63408 0.28022 0.0
C1714 C 0.28338 0.62524 0.26304 0.0
C1715 C 0.23632 0.62801 0.24786 0.0
C1716 C 0.21009 0.63893 0.25068 0.0
C1717 C 0.25679 0.63461 0.26667 0.0
C1718 C 0.20425 0.65498 0.27364 0.0
C1719 C 0.22437 0.66133 0.29249 0.0
H1720 H 0.25932 0.38466 0.73737 0.0
H1721 H 0.31568 0.3323 0.7793 0.0
H1722 H 0.28104 0.3211 0.8126 0.0
H1723 H 0.2335 0.32252 0.82737 0.0
H1724 H 0.17694 0.37394 0.7846 0.0
H1725 H 0.21296 0.38936 0.75468 0.0
C1726 C 0.2642 0.3711 0.75398 0.0
C1727 C 0.29008 0.3592 0.7555 0.0
C1728 C 0.24406 0.36442 0.77304 0.0
C1729 C 0.29592 0.34171 0.77734 0.0
C1730 C 0.27609 0.33521 0.79649 0.0
C1731 C 0.22912 0.33747 0.81185 0.0
C1732 C 0.20239 0.34674 0.80818 0.0
C1733 C 0.24988 0.34593 0.79419 0.0
C1734 C 0.19722 0.3662 0.78789 0.0
C1735 C 0.21783 0.37502 0.77061 0.0
H1736 H 0.73269 0.7005 0.83336 0.0
H1737 H 0.78452 0.74802 0.88577 0.0
H1738 H 0.75527 0.78728 0.87949 0.0
H1739 H 0.71679 0.80889 0.85729 0.0
H1740 H 0.66465 0.76205 0.8047 0.0
H1741 H 0.69218 0.72168 0.81322 0.0
C1742 C 0.73753 0.71936 0.8436 0.0
C1743 C 0.76097 0.72121 0.85991 0.0
C1744 C 0.7206 0.74202 0.83989 0.0
C1745 C 0.76672 0.74587 0.87307 0.0
C1746 C 0.75 0.76842 0.86947 0.0
C1747 C 0.71116 0.78984 0.84784 0.0
C1748 C 0.68867 0.78866 0.83025 0.0
C1749 C 0.72714 0.76682 0.85265 0.0
C1750 C 0.68179 0.76364 0.81836 0.0
C1751 C 0.69761 0.74055 0.82312 0.0
H1752 H 0.21752 0.69013 0.14155 0.0
H1753 H 0.15948 0.73628 0.18829 0.0
H1754 H 0.18409 0.77802 0.17775 0.0
H1755 H 0.22393 0.80068 0.15825 0.0
H1756 H 0.2819 0.75399 0.11183 0.0
H1757 H 0.25501 0.71316 0.11902 0.0
C1758 C 0.20995 0.70929 0.14923 0.0
C1759 C 0.18673 0.70995 0.16588 0.0
C1760 C 0.2242 0.73312 0.14319 0.0
C1761 C 0.17729 0.7351 0.17547 0.0
C1762 C 0.1914 0.75899 0.16951 0.0
C1763 C 0.23059 0.78167 0.14939 0.0
C1764 C 0.25512 0.78047 0.1347 0.0
C1765 C 0.21517 0.75814 0.15382 0.0
C1766 C 0.26321 0.75561 0.12327 0.0
C1767 C 0.24789 0.73218 0.12746 0.0
H1768 H 0.28722 0.31283 0.64286 0.0
H1769 H 0.34791 0.26791 0.68735 0.0
H1770 H 0.32515 0.2255 0.67563 0.0
H1771 H 0.28585 0.20189 0.65684 0.0
H1772 H 0.22435 0.24691 0.6136 0.0
H1773 H 0.25005 0.28872 0.62054 0.0
C1774 C 0.29578 0.2938 0.64976 0.0
C1775 C 0.31917 0.29368 0.66625 0.0
C1776 C 0.2824 0.26955 0.64328 0.0
C1777 C 0.32994 0.2687 0.67474 0.0
C1778 C 0.31687 0.24442 0.66812 0.0
C1779 C 0.27813 0.22073 0.64854 0.0
C1780 C 0.25297 0.22121 0.63493 0.0
C1781 C 0.29274 0.24471 0.65301 0.0
C1782 C 0.24356 0.24588 0.62419 0.0
C1783 C 0.25819 0.26983 0.62828 0.0
H1784 H 0.73127 0.25744 0.38744 0.0
H1785 H 0.76658 0.31258 0.32921 0.0
H1786 H 0.80094 0.27922 0.31774 0.0
H1787 H 0.81846 0.23283 0.32072 0.0
H1788 H 0.78207 0.17686 0.3774 0.0
H1789 H 0.75126 0.21209 0.39307 0.0
C1790 C 0.74671 0.26234 0.37255 0.0
C1791 C 0.74606 0.28753 0.35918 0.0
C1792 C 0.76634 0.24279 0.36556 0.0
C1793 C 0.76632 0.29339 0.33986 0.0
C1794 C 0.78608 0.27426 0.33317 0.0
C1795 C 0.80417 0.22844 0.33686 0.0
C1796 C 0.8026 0.20209 0.34764 0.0
C1797 C 0.78592 0.24866 0.34541 0.0
C1798 C 0.78378 0.19687 0.36854 0.0
C1799 C 0.76598 0.21702 0.3775 0.0
H1800 H 0.16072 0.16648 0.53738 0.0
H1801 H 0.24693 0.15147 0.53412 0.0
H1802 H 0.2456 0.1532 0.48462 0.0
H1803 H 0.22059 0.16216 0.44235 0.0
H1804 H 0.13456 0.17815 0.44588 0.0
H1805 H 0.13524 0.17256 0.49504 0.0
C1806 C 0.17922 0.16335 0.52588 0.0
C1807 C 0.20394 0.15908 0.53959 0.0
C1808 C 0.17838 0.1646 0.49738 0.0
C1809 C 0.22763 0.15495 0.52422 0.0
C1810 C 0.2269 0.15596 0.49585 0.0
C1811 C 0.20189 0.16404 0.45379 0.0
C1812 C 0.17758 0.1707 0.44031 0.0
C1813 C 0.20247 0.16121 0.48221 0.0
C1814 C 0.1536 0.17312 0.45561 0.0
C1815 C 0.15397 0.17001 0.4838 0.0
H1816 H 0.34249 0.82906 0.0315 0.0
H1817 H 0.25606 0.84276 0.03386 0.0
H1818 H 0.25382 0.83837 0.9845 0.0
H1819 H 0.27611 0.82802 0.94082 0.0
H1820 H 0.36258 0.81396 0.93927 0.0
H1821 H 0.36497 0.8212 0.98803 0.0
C1822 C 0.32315 0.83129 0.02127 0.0
C1823 C 0.29946 0.83604 0.03647 0.0
C1824 C 0.32196 0.82854 0.99293 0.0
C1825 C 0.27463 0.839 0.02274 0.0
C1826 C 0.27331 0.83644 0.99447 0.0
C1827 C 0.29551 0.82677 0.9511 0.0
C1828 C 0.31907 0.82024 0.93629 0.0
C1829 C 0.2968 0.8308 0.97937 0.0
C1830 C 0.34404 0.81876 0.95004 0.0
C1831 C 0.34548 0.8229 0.97801 0.0
H1832 H 0.7313 0.33846 0.4779 0.0
H1833 H 0.64466 0.33458 0.46561 0.0
H1834 H 0.63729 0.33345 0.51432 0.0
H1835 H 0.65522 0.32911 0.56018 0.0
H1836 H 0.74172 0.33172 0.57333 0.0
H1837 H 0.74921 0.33825 0.52479 0.0
C1838 C 0.71083 0.33777 0.48593 0.0
C1839 C 0.68865 0.3362 0.46806 0.0
C1840 C 0.70662 0.33677 0.51419 0.0
C1841 C 0.6622 0.33539 0.47883 0.0
C1842 C 0.65789 0.33478 0.50674 0.0
C1843 C 0.67572 0.33151 0.55255 0.0
C1844 C 0.69784 0.32963 0.57041 0.0
C1845 C 0.67994 0.33476 0.52459 0.0
C1846 C 0.72426 0.33294 0.56007 0.0
C1847 C 0.7286 0.33657 0.53225 0.0
H1848 H 0.77372 0.6859 0.05701 0.0
H1849 H 0.86121 0.68638 0.06173 0.0
H1850 H 0.86422 0.67513 0.01376 0.0
H1851 H 0.84242 0.669 0.9699 0.0
H1852 H 0.75508 0.66949 0.96399 0.0
H1853 H 0.75164 0.67609 0.01312 0.0
C1854 C 0.79342 0.68317 0.04763 0.0
C1855 C 0.81719 0.68728 0.06291 0.0
C1856 C 0.79507 0.67702 0.01981 0.0
C1857 C 0.84257 0.68362 0.05042 0.0
C1858 C 0.84435 0.67719 0.02296 0.0
C1859 C 0.82257 0.67033 0.97932 0.0
C1860 C 0.79905 0.66913 0.96325 0.0
C1861 C 0.82077 0.67448 0.00736 0.0
C1862 C 0.77352 0.67049 0.97588 0.0
C1863 C 0.77155 0.67437 0.00396 0.0
H1864 H 0.4453 0.17127 0.20587 0.0
H1865 H 0.42412 0.17099 0.12093 0.0
H1866 H 0.47157 0.17997 0.10897 0.0
H1867 H 0.51958 0.18708 0.12293 0.0
H1868 H 0.53942 0.18581 0.20825 0.0
H1869 H 0.492 0.17858 0.21965 0.0
C1870 C 0.45091 0.17321 0.18468 0.0
C1871 C 0.43105 0.17046 0.16435 0.0
C1872 C 0.4781 0.17824 0.17799 0.0
C1873 C 0.43893 0.17295 0.13703 0.0
C1874 C 0.46608 0.17816 0.13018 0.0
C1875 C 0.51341 0.18551 0.14399 0.0
C1876 C 0.53309 0.18704 0.16469 0.0
C1877 C 0.48591 0.18081 0.15051 0.0
C1878 C 0.52479 0.18463 0.19189 0.0
C1879 C 0.49764 0.18046 0.19847 0.0
H1880 H 0.96551 0.83447 0.66323 0.0
H1881 H 0.96227 0.74714 0.65819 0.0
H1882 H 0.01184 0.74502 0.66078 0.0
H1883 H 0.05569 0.76793 0.66898 0.0
H1884 H 0.05785 0.85532 0.67505 0.0
H1885 H 0.00912 0.85736 0.66744 0.0
C1886 C 0.9756 0.81492 0.66244 0.0
C1887 C 0.96014 0.79097 0.66086 0.0
C1888 C 0.00395 0.81386 0.66432 0.0
C1889 C 0.97363 0.76589 0.65948 0.0
C1890 C 0.00199 0.76467 0.66109 0.0
C1891 C 0.04558 0.78745 0.66821 0.0
C1892 C 0.06046 0.81142 0.67286 0.0
C1893 C 0.01732 0.78851 0.66418 0.0
C1894 C 0.04696 0.83652 0.67178 0.0
C1895 C 0.01903 0.83774 0.66746 0.0
H1896 H 0.03477 0.33061 0.85914 0.0
H1897 H 0.03172 0.26156 0.80548 0.0
H1898 H 0.98234 0.26564 0.80255 0.0
H1899 H 0.94055 0.29137 0.8122 0.0
H1900 H 0.94305 0.35834 0.86841 0.0
H1901 H 0.99213 0.3525 0.87363 0.0
C1902 C 0.02318 0.31622 0.84715 0.0
C1903 C 0.03678 0.29595 0.83236 0.0
C1904 C 0.9948 0.31846 0.8459 0.0
C1905 C 0.02164 0.27725 0.81711 0.0
C1906 C 0.99345 0.2797 0.81529 0.0
C1907 C 0.95186 0.30442 0.82585 0.0
C1908 C 0.93841 0.3254 0.83972 0.0
C1909 C 0.9799 0.30059 0.82912 0.0
C1910 C 0.95306 0.34202 0.8576 0.0
C1911 C 0.9811 0.33877 0.86046 0.0
H1912 H 0.46905 0.65907 0.33245 0.0
H1913 H 0.46458 0.74647 0.33472 0.0
H1914 H 0.51398 0.74924 0.33059 0.0
H1915 H 0.55808 0.72674 0.32261 0.0
H1916 H 0.56145 0.63923 0.31942 0.0
H1917 H 0.51287 0.63673 0.32766 0.0
C1918 C 0.47882 0.67878 0.33228 0.0
C1919 C 0.46304 0.70253 0.33361 0.0
C1920 C 0.50709 0.68022 0.32953 0.0
C1921 C 0.47618 0.72785 0.33364 0.0
C1922 C 0.50444 0.72945 0.33117 0.0
C1923 C 0.54825 0.70712 0.32404 0.0
C1924 C 0.56345 0.68323 0.32014 0.0
C1925 C 0.52006 0.70576 0.32853 0.0
C1926 C 0.55031 0.65798 0.32209 0.0
C1927 C 0.52247 0.65649 0.32682 0.0
H1928 H 0.15389 0.45046 0.13638 0.0
H1929 H 0.18552 0.42666 0.21433 0.0
H1930 H 0.18245 0.47347 0.23041 0.0
H1931 H 0.17483 0.52196 0.22088 0.0
H1932 H 0.14734 0.54604 0.14141 0.0
H1933 H 0.14453 0.49862 0.12746 0.0
C1934 C 0.15955 0.45548 0.15704 0.0
C1935 C 0.16977 0.43517 0.17419 0.0
C1936 C 0.15875 0.48264 0.16581 0.0
C1937 C 0.17756 0.442 0.20077 0.0
C1938 C 0.17589 0.46878 0.20995 0.0
C1939 C 0.16783 0.51674 0.20068 0.0
C1940 C 0.16135 0.53745 0.18222 0.0
C1941 C 0.16713 0.48939 0.19245 0.0
C1942 C 0.15261 0.53044 0.15597 0.0
C1943 C 0.15099 0.50332 0.14795 0.0
H1944 H 0.67003 0.97618 0.77869 0.0
H1945 H 0.64507 0.9527 0.85919 0.0
H1946 H 0.64303 1.00021 0.87294 0.0
H1947 H 0.65242 0.04826 0.86344 0.0
H1948 H 0.6811 0.07147 0.78413 0.0
H1949 H 0.67732 0.02457 0.76854 0.0
C1950 C 0.66374 0.98153 0.79909 0.0
C1951 C 0.65779 0.96094 0.81788 0.0
C1952 C 0.66341 0.00894 0.80715 0.0
C1953 C 0.64993 0.96816 0.84436 0.0
C1954 C 0.64875 0.99535 0.85227 0.0
C1955 C 0.6573 0.04311 0.8426 0.0
C1956 C 0.66694 0.0633 0.82496 0.0
C1957 C 0.65602 0.0159 0.83404 0.0
C1958 C 0.67364 0.05625 0.79812 0.0
C1959 C 0.67156 0.02942 0.7892 0.0
H1960 H 0.83055 0.0324 0.34392 0.0
H1961 H 0.8347 0.03285 0.25645 0.0
H1962 H 0.83046 0.98336 0.25585 0.0
H1963 H 0.82223 0.94028 0.28021 0.0
H1964 H 0.81685 0.94101 0.36768 0.0
H1965 H 0.82489 0.98971 0.36813 0.0
C1966 C 0.83074 0.02175 0.32466 0.0
C1967 C 0.83271 0.03644 0.30024 0.0
C1968 C 0.82786 0.99345 0.32445 0.0
C1969 C 0.83315 0.02213 0.27556 0.0
C1970 C 0.83062 0.99381 0.2752 0.0
C1971 C 0.82309 0.95104 0.29938 0.0
C1972 C 0.81873 0.93693 0.32386 0.0
C1973 C 0.82745 0.97929 0.29952 0.0
C1974 C 0.81992 0.95128 0.34851 0.0
C1975 C 0.82454 0.97919 0.34881 0.0
H1976 H 0.37229 0.48115 0.69614 0.0
H1977 H 0.28872 0.46103 0.67934 0.0
H1978 H 0.27857 0.5085 0.67066 0.0
H1979 H 0.29334 0.55535 0.66628 0.0
H1980 H 0.37691 0.57649 0.68149 0.0
H1981 H 0.3871 0.52909 0.69226 0.0
C1982 C 0.35184 0.48726 0.69085 0.0
C1983 C 0.33133 0.46753 0.68838 0.0
C1984 C 0.34613 0.51474 0.68538 0.0
C1985 C 0.30495 0.47573 0.68125 0.0
C1986 C 0.29908 0.5029 0.67626 0.0
C1987 C 0.31381 0.54971 0.67201 0.0
C1988 C 0.33431 0.56951 0.67305 0.0
C1989 C 0.31954 0.52251 0.67797 0.0
C1990 C 0.36071 0.56168 0.68049 0.0
C1991 C 0.36656 0.53456 0.68668 0.0
H1992 H 0.83886 0.85914 0.47509 0.0
H1993 H 0.76165 0.81813 0.4777 0.0
H1994 H 0.76371 0.8168 0.52729 0.0
H1995 H 0.78978 0.82313 0.56937 0.0
H1996 H 0.86577 0.86631 0.56725 0.0
H1997 H 0.86178 0.87139 0.51793 0.0
C1998 C 0.82234 0.85027 0.4866 0.0
C1999 C 0.8003 0.83842 0.47288 0.0
C2000 C 0.82351 0.84993 0.51508 0.0
C2001 C 0.7788 0.82734 0.48789 0.0
C2002 C 0.78005 0.82647 0.5162 0.0
C2003 C 0.80518 0.83411 0.55811 0.0
C2004 C 0.82813 0.84417 0.57171 0.0
C2005 C 0.80261 0.8371 0.52993 0.0
C2006 C 0.84788 0.85854 0.55712 0.0
C2007 C 0.8457 0.86124 0.52894 0.0
H2008 H 0.67369 0.14642 0.96629 0.0
H2009 H 0.73751 0.20579 0.97526 0.0
H2010 H 0.73009 0.20698 0.024 0.0
H2011 H 0.70237 0.19528 0.06328 0.0
H2012 H 0.639 0.13556 0.05587 0.0
H2013 H 0.6495 0.13016 0.0074 0.0
C2014 C 0.68638 0.15914 0.97898 0.0
C2015 C 0.70591 0.17628 0.96697 0.0
C2016 C 0.68187 0.15993 0.00724 0.0
C2017 C 0.72216 0.19261 0.98381 0.0
C2018 C 0.71789 0.19339 0.01175 0.0
C2019 C 0.69107 0.18081 0.05112 0.0
C2020 C 0.66973 0.16609 0.06294 0.0
C2021 C 0.69726 0.17783 0.02352 0.0
C2022 C 0.65551 0.14713 0.04714 0.0
C2023 C 0.66144 0.14416 0.01943 0.0
H2024 H 0.36136 0.65168 0.44286 0.0
H2025 H 0.28728 0.69416 0.42417 0.0
H2026 H 0.27426 0.69341 0.47205 0.0
H2027 H 0.28532 0.68339 0.51969 0.0
H2028 H 0.36162 0.64526 0.53893 0.0
H2029 H 0.37236 0.64147 0.49062 0.0
C2030 C 0.34219 0.66036 0.44929 0.0
C2031 C 0.32518 0.67273 0.43005 0.0
C2032 C 0.33534 0.66083 0.47703 0.0
C2033 C 0.30066 0.68446 0.43866 0.0
C2034 C 0.29323 0.68408 0.46602 0.0
C2035 C 0.30413 0.67396 0.51325 0.0
C2036 C 0.32259 0.66452 0.53281 0.0
C2037 C 0.3106 0.67272 0.48546 0.0
C2038 C 0.3471 0.65273 0.52422 0.0
C2039 C 0.35325 0.65056 0.49661 0.0
H2040 H 0.16635 0.3309 0.03206 0.0
H2041 H 0.25322 0.34165 0.03234 0.0
H2042 H 0.25397 0.33774 0.98281 0.0
H2043 H 0.23016 0.32822 0.93962 0.0
H2044 H 0.14335 0.31646 0.94044 0.0
H2045 H 0.1425 0.32381 0.98928 0.0
C2046 C 0.1855 0.33258 0.02138 0.0
C2047 C 0.20974 0.33636 0.03606 0.0
C2048 C 0.18582 0.32996 0.993 0.0
C2049 C 0.23426 0.3387 0.02166 0.0
C2050 C 0.23471 0.33636 0.9933 0.0
C2051 C 0.21102 0.32754 0.95043 0.0
C2052 C 0.18687 0.32162 0.93625 0.0
C2053 C 0.21065 0.33154 0.97877 0.0
C2054 C 0.16228 0.3208 0.95071 0.0
C2055 C 0.16175 0.32501 0.97872 0.0
H2056 H 0.55947 0.791 0.8102 0.0
H2057 H 0.56203 0.85875 0.86539 0.0
H2058 H 0.5128 0.85563 0.87201 0.0
H2059 H 0.46862 0.83609 0.8585 0.0
H2060 H 0.46679 0.76601 0.80617 0.0
H2061 H 0.51625 0.76727 0.80215 0.0
C2062 C 0.54922 0.8047 0.82406 0.0
C2063 C 0.56406 0.82516 0.83719 0.0
C2064 C 0.52114 0.80245 0.82807 0.0
C2065 C 0.55085 0.84277 0.85524 0.0
C2066 C 0.52276 0.8411 0.85884 0.0
C2067 C 0.47919 0.8209 0.84658 0.0
C2068 C 0.46426 0.80116 0.83241 0.0
C2069 C 0.50762 0.82142 0.84485 0.0
C2070 C 0.47798 0.78134 0.81727 0.0
C2071 C 0.5062 0.78214 0.81486 0.0
H2072 H 0.93104 0.2024 0.29668 0.0
H2073 H 0.93557 0.1494 0.36608 0.0
H2074 H 0.98459 0.15733 0.36915 0.0
H2075 H 0.0267 0.17666 0.34965 0.0
H2076 H 0.02099 0.23018 0.28053 0.0
H2077 H 0.97195 0.22487 0.28005 0.0
C2078 C 0.9427 0.19271 0.31262 0.0
C2079 C 0.92973 0.1751 0.33094 0.0
C2080 C 0.97073 0.19742 0.31428 0.0
C2081 C 0.94506 0.16305 0.35172 0.0
C2082 C 0.97311 0.1675 0.3534 0.0
C2083 C 0.0147 0.1875 0.33475 0.0
C2084 C 0.0277 0.20361 0.31498 0.0
C2085 C 0.98627 0.18428 0.33447 0.0
C2086 C 0.01171 0.21752 0.29589 0.0
C2087 C 0.98358 0.21445 0.29552 0.0
H2088 H 0.05666 0.72904 0.17283 0.0
H2089 H 0.05322 0.64171 0.17919 0.0
H2090 H 0.00419 0.64293 0.17354 0.0
H2091 H 0.96205 0.66874 0.17036 0.0
H2092 H 0.96474 0.75602 0.16422 0.0
H2093 H 0.01434 0.75479 0.16601 0.0
C2094 C 0.04524 0.71024 0.17262 0.0
C2095 C 0.05867 0.68535 0.17669 0.0
C2096 C 0.01689 0.71106 0.16963 0.0
C2097 C 0.04349 0.66119 0.17626 0.0
C2098 C 0.01539 0.66184 0.17311 0.0
C2099 C 0.97345 0.68754 0.16927 0.0
C2100 C 0.95969 0.71247 0.16753 0.0
C2101 C 0.00184 0.68668 0.17039 0.0
C2102 C 0.97482 0.73656 0.16571 0.0
C2103 C 0.00318 0.73587 0.16679 0.0
H2104 H 0.45294 0.34884 0.70566 0.0
H2105 H 0.43328 0.31781 0.62619 0.0
H2106 H 0.48137 0.30794 0.61802 0.0
H2107 H 0.52927 0.30756 0.63415 0.0
H2108 H 0.54714 0.33929 0.7139 0.0
H2109 H 0.49949 0.34908 0.72125 0.0
C2110 C 0.45903 0.33995 0.68646 0.0
C2111 C 0.43943 0.334 0.66662 0.0
C2112 C 0.4865 0.33424 0.68202 0.0
C2113 C 0.44792 0.32267 0.64183 0.0
C2114 C 0.47542 0.3169 0.6372 0.0
C2115 C 0.52264 0.31647 0.65315 0.0
C2116 C 0.54184 0.32266 0.67341 0.0
C2117 C 0.49492 0.32241 0.65727 0.0
C2118 C 0.53294 0.33444 0.69785 0.0
C2119 C 0.50562 0.34007 0.70214 0.0
H2120 H 0.83204 0.55655 0.7775 0.0
H2121 H 0.82275 0.56112 0.86454 0.0
H2122 H 0.83171 0.51277 0.86836 0.0
H2123 H 0.83918 0.46873 0.84712 0.0
H2124 H 0.84767 0.46306 0.76014 0.0
H2125 H 0.8424 0.51226 0.75629 0.0
C2126 C 0.83227 0.54702 0.79732 0.0
C2127 C 0.82648 0.56252 0.82065 0.0
C2128 C 0.83721 0.51895 0.79943 0.0
C2129 C 0.82689 0.54976 0.84618 0.0
C2130 C 0.83203 0.52204 0.84843 0.0
C2131 C 0.84012 0.47819 0.82728 0.0
C2132 C 0.8436 0.46211 0.80394 0.0
C2133 C 0.83673 0.50637 0.82519 0.0
C2134 C 0.84495 0.47488 0.77846 0.0
C2135 C 0.84184 0.50304 0.77624 0.0
H2136 H 0.29066 0.93665 0.20102 0.0
H2137 H 0.36131 0.94101 0.14968 0.0
H2138 H 0.36625 0.98942 0.16029 0.0
H2139 H 0.34777 0.03124 0.18115 0.0
H2140 H 0.27759 0.0255 0.23336 0.0
H2141 H 0.2755 0.97683 0.22573 0.0
C2142 C 0.30727 0.94816 0.1923 0.0
C2143 C 0.32536 0.93547 0.17431 0.0
C2144 C 0.31007 0.97574 0.19866 0.0
C2145 C 0.34709 0.95043 0.16355 0.0
C2146 C 0.34985 0.97809 0.16955 0.0
C2147 C 0.33234 0.01928 0.19127 0.0
C2148 C 0.31266 0.03218 0.20754 0.0
C2149 C 0.33111 0.99109 0.18669 0.0
C2150 C 0.29288 0.01626 0.22055 0.0
C2151 C 0.29156 0.98837 0.21613 0.0
H2152 H 0.22035 0.97151 0.71212 0.0
H2153 H 0.1445 0.95672 0.67104 0.0
H2154 H 0.13976 0.00527 0.66188 0.0
H2155 H 0.15912 0.05174 0.66258 0.0
H2156 H 0.23619 0.06495 0.702 0.0
H2157 H 0.23837 0.01738 0.71474 0.0
C2158 C 0.20258 0.97885 0.70144 0.0
C2159 C 0.18289 0.96042 0.69222 0.0
C2160 C 0.20029 0.00662 0.69571 0.0
C2161 C 0.16003 0.97043 0.67835 0.0
C2162 C 0.15734 0.99821 0.67302 0.0
C2163 C 0.17618 0.0442 0.67423 0.0
C2164 C 0.19754 0.06185 0.68113 0.0
C2165 C 0.17762 0.01648 0.68115 0.0
C2166 C 0.21961 0.05177 0.69613 0.0
C2167 C 0.22089 0.02454 0.70351 0.0
H2168 H 0.662 0.44359 0.27894 0.0
H2169 H 0.66987 0.44064 0.36614 0.0
H2170 H 0.66844 0.48998 0.36831 0.0
H2171 H 0.66834 0.53408 0.34537 0.0
H2172 H 0.66059 0.5374 0.25821 0.0
H2173 H 0.65851 0.48794 0.2562 0.0
C2174 C 0.66295 0.45369 0.29846 0.0
C2175 C 0.66621 0.43831 0.3223 0.0
C2176 C 0.66246 0.48223 0.29959 0.0
C2177 C 0.66748 0.45187 0.34741 0.0
C2178 C 0.66676 0.48015 0.3487 0.0
C2179 C 0.66607 0.52402 0.32592 0.0
C2180 C 0.66495 0.53949 0.30196 0.0
C2181 C 0.66487 0.49555 0.32489 0.0
C2182 C 0.66168 0.52606 0.27698 0.0
C2183 C 0.66049 0.49772 0.2758 0.0
loop_
_geom_bond_atom_site_label_1
_geom_bond_atom_site_label_2
_geom_bond_distance
_geom_bond_site_symmetry_2
_ccdc_geom_bond_type
Co0 O2 2.143 . S
Co0 O8 2.074 . S
Co0 O11 2.093 . S
Co0 O24 2.097 . S
Co0 N41 2.151 . S
Co0 N49 2.214 . S
Co1 O2 2.160 . S
Co1 O7 2.058 . S
Co1 O17 2.057 . S
Co1 O32 2.037 . S
Co1 N36 2.145 . S
Co1 N57 2.257 . S
O2 Co0 2.143 . S
O2 Co1 2.160 . S
C3 O4 1.278 . S
C3 O11 1.224 . S
O4 C3 1.278 . S
C5 O6 1.245 . S
C5 O17 1.232 . S
O6 C5 1.245 . S
O7 Co1 2.058 . S
O7 C33 1.269 . S
O8 Co0 2.074 . S
O8 C33 1.257 . S
H9 C34 0.930 . S
H10 C40 0.930 . S
O11 Co0 2.093 . S
O11 C3 1.224 . S
H12 C44 0.929 . S
H13 C46 0.930 . S
H14 C47 0.930 . S
H15 C45 0.929 . S
H16 C48 0.928 . S
O17 Co1 2.057 . S
O17 C5 1.232 . S
H18 C37 0.929 . S
H19 C38 0.929 . S
H20 C50 0.931 . S
H21 C42 0.929 . S
H22 C51 0.930 . S
H23 C43 0.931 . S
O24 Co0 2.097 . S
O24 C52 1.214 . S
H25 C53 0.929 . S
H26 C54 0.929 . S
H27 C55 0.930 . S
H28 C56 0.929 . S
H29 C58 0.930 . S
H30 C35 0.930 . S
H31 C39 0.930 . S
O32 Co1 2.037 . S
O32 C52 1.234 . S
C33 O7 1.269 . S
C33 O8 1.257 . S
C34 H9 0.930 . S
C34 C37 1.388 . S
C34 C39 1.418 . S
C35 H30 0.930 . S
C35 C38 1.404 . S
C35 C39 1.353 . S
N36 Co1 2.145 . S
N36 C37 1.397 . S
N36 C38 1.334 . S
C37 H18 0.929 . S
C37 C34 1.388 . S
C37 N36 1.397 . S
C38 H19 0.929 . S
C38 C35 1.404 . S
C38 N36 1.334 . S
C39 H31 0.930 . S
C39 C34 1.418 . S
C39 C35 1.353 . S
C40 H10 0.930 . S
C40 N41 1.330 . S
C40 C42 1.446 . S
N41 Co0 2.151 . S
N41 C40 1.330 . S
N41 C45 1.418 . S
C42 H21 0.929 . S
C42 C40 1.446 . S
C42 C43 1.332 . S
C43 H23 0.931 . S
C43 C42 1.332 . S
C43 C44 1.267 . S
C44 H12 0.929 . S
C44 C43 1.267 . S
C44 C45 1.251 . S
C45 H15 0.929 . S
C45 N41 1.418 . S
C45 C44 1.251 . S
C46 H13 0.930 . S
C46 C48 1.406 . S
C46 C51 1.261 . S
C47 H14 0.930 . S
C47 N49 1.325 . S
C47 C50 1.357 . S
C48 H16 0.928 . S
C48 C46 1.406 . S
C48 N49 1.261 . S
N49 Co0 2.214 . S
N49 C47 1.325 . S
N49 C48 1.261 . S
C50 H20 0.931 . S
C50 C47 1.357 . S
C50 C51 1.312 . S
C51 H22 0.930 . S
C51 C46 1.261 . S
C51 C50 1.312 . S
C52 O24 1.214 . S
C52 O32 1.234 . S
C53 H25 0.929 . S
C53 C56 1.391 . S
C53 C58 1.391 . S
C54 H26 0.929 . S
C54 C55 1.390 . S
C54 N57 1.391 . S
C55 H27 0.930 . S
C55 C54 1.390 . S
C55 C56 1.392 . S
C56 H28 0.929 . S
C56 C53 1.391 . S
C56 C55 1.392 . S
N57 Co1 2.257 . S
N57 C54 1.391 . S
N57 C58 1.388 . S
C58 H29 0.930 . S
C58 C53 1.391 . S
C58 N57 1.388 . S
Co59 O61 2.143 . S
Co59 O67 2.074 . S
Co59 O70 2.093 . S
Co59 O83 2.097 . S
Co59 N100 2.151 . S
Co59 N108 2.214 . S
Co60 O61 2.160 . S
Co60 O66 2.058 . S
Co60 O76 2.057 . S
Co60 O91 2.037 . S
Co60 N95 2.145 . S
Co60 N116 2.257 . S
O61 Co59 2.143 . S
O61 Co60 2.160 . S
C62 O63 1.278 . S
C62 O70 1.224 . S
O63 C62 1.278 . S
C64 O65 1.245 . S
C64 O76 1.232 . S
O65 C64 1.245 . S
O66 Co60 2.058 . S
O66 C92 1.269 . S
O67 Co59 2.074 . S
O67 C92 1.257 . S
H68 C93 0.930 . S
H69 C99 0.930 . S
O70 Co59 2.093 . S
O70 C62 1.224 . S
H71 C103 0.929 . S
H72 C105 0.930 . S
H73 C106 0.930 . S
H74 C104 0.929 . S
H75 C107 0.928 . S
O76 Co60 2.057 . S
O76 C64 1.232 . S
H77 C96 0.929 . S
H78 C97 0.929 . S
H79 C109 0.931 . S
H80 C101 0.929 . S
H81 C110 0.930 . S
H82 C102 0.931 . S
O83 Co59 2.097 . S
O83 C111 1.214 . S
H84 C112 0.929 . S
H85 C113 0.929 . S
H86 C114 0.930 . S
H87 C115 0.929 . S
H88 C117 0.930 . S
H89 C94 0.930 . S
H90 C98 0.930 . S
O91 Co60 2.037 . S
O91 C111 1.234 . S
C92 O66 1.269 . S
C92 O67 1.257 . S
C93 H68 0.930 . S
C93 C96 1.388 . S
C93 C98 1.418 . S
C94 H89 0.930 . S
C94 C97 1.404 . S
C94 C98 1.353 . S
N95 Co60 2.145 . S
N95 C96 1.397 . S
N95 C97 1.334 . S
C96 H77 0.929 . S
C96 C93 1.388 . S
C96 N95 1.397 . S
C97 H78 0.929 . S
C97 C94 1.404 . S
C97 N95 1.334 . S
C98 H90 0.930 . S
C98 C93 1.418 . S
C98 C94 1.353 . S
C99 H69 0.930 . S
C99 N100 1.330 . S
C99 C101 1.446 . S
N100 Co59 2.151 . S
N100 C99 1.330 . S
N100 C104 1.418 . S
C101 H80 0.929 . S
C101 C99 1.446 . S
C101 C102 1.332 . S
C102 H82 0.931 . S
C102 C101 1.332 . S
C102 C103 1.267 . S
C103 H71 0.929 . S
C103 C102 1.267 . S
C103 C104 1.251 . S
C104 H74 0.929 . S
C104 N100 1.418 . S
C104 C103 1.251 . S
C105 H72 0.930 . S
C105 C107 1.406 . S
C105 C110 1.261 . S
C106 H73 0.930 . S
C106 N108 1.325 . S
C106 C109 1.357 . S
C107 H75 0.928 . S
C107 C105 1.406 . S
C107 N108 1.261 . S
N108 Co59 2.214 . S
N108 C106 1.325 . S
N108 C107 1.261 . S
C109 H79 0.931 . S
C109 C106 1.357 . S
C109 C110 1.312 . S
C110 H81 0.930 . S
C110 C105 1.261 . S
C110 C109 1.312 . S
C111 O83 1.214 . S
C111 O91 1.234 . S
C112 H84 0.929 . S
C112 C115 1.391 . S
C112 C117 1.391 . S
C113 H85 0.929 . S
C113 C114 1.390 . S
C113 N116 1.391 . S
C114 H86 0.930 . S
C114 C113 1.390 . S
C114 C115 1.392 . S
C115 H87 0.929 . S
C115 C112 1.391 . S
C115 C114 1.392 . S
N116 Co60 2.257 . S
N116 C113 1.391 . S
N116 C117 1.388 . S
C117 H88 0.930 . S
C117 C112 1.391 . S
C117 N116 1.388 . S
Co118 O120 2.143 . S
Co118 O126 2.074 . S
Co118 O129 2.093 . S
Co118 O142 2.097 . S
Co118 N159 2.151 . S
Co118 N167 2.214 . S
Co119 O120 2.160 . S
Co119 O125 2.058 . S
Co119 O135 2.057 . S
Co119 O150 2.037 . S
Co119 N154 2.145 . S
Co119 N175 2.257 . S
O120 Co118 2.143 . S
O120 Co119 2.160 . S
C121 O122 1.278 . S
C121 O129 1.224 . S
O122 C121 1.278 . S
C123 O124 1.245 . S
C123 O135 1.232 . S
O124 C123 1.245 . S
O125 Co119 2.058 . S
O125 C151 1.269 . S
O126 Co118 2.074 . S
O126 C151 1.257 . S
H127 C152 0.930 . S
H128 C158 0.930 . S
O129 Co118 2.093 . S
O129 C121 1.224 . S
H130 C162 0.929 . S
H131 C164 0.930 . S
H132 C165 0.930 . S
H133 C163 0.929 . S
H134 C166 0.928 . S
O135 Co119 2.057 . S
O135 C123 1.232 . S
H136 C155 0.929 . S
H137 C156 0.929 . S
H138 C168 0.931 . S
H139 C160 0.929 . S
H140 C169 0.930 . S
H141 C161 0.931 . S
O142 Co118 2.097 . S
O142 C170 1.214 . S
H143 C171 0.929 . S
H144 C172 0.929 . S
H145 C173 0.930 . S
H146 C174 0.929 . S
H147 C176 0.930 . S
H148 C153 0.930 . S
H149 C157 0.930 . S
O150 Co119 2.037 . S
O150 C170 1.234 . S
C151 O125 1.269 . S
C151 O126 1.257 . S
C152 H127 0.930 . S
C152 C155 1.388 . S
C152 C157 1.418 . S
C153 H148 0.930 . S
C153 C156 1.404 . S
C153 C157 1.353 . S
N154 Co119 2.145 . S
N154 C155 1.397 . S
N154 C156 1.334 . S
C155 H136 0.929 . S
C155 C152 1.388 . S
C155 N154 1.397 . S
C156 H137 0.929 . S
C156 C153 1.404 . S
C156 N154 1.334 . S
C157 H149 0.930 . S
C157 C152 1.418 . S
C157 C153 1.353 . S
C158 H128 0.930 . S
C158 N159 1.330 . S
C158 C160 1.446 . S
N159 Co118 2.151 . S
N159 C158 1.330 . S
N159 C163 1.418 . S
C160 H139 0.929 . S
C160 C158 1.446 . S
C160 C161 1.332 . S
C161 H141 0.931 . S
C161 C160 1.332 . S
C161 C162 1.267 . S
C162 H130 0.929 . S
C162 C161 1.267 . S
C162 C163 1.251 . S
C163 H133 0.929 . S
C163 N159 1.418 . S
C163 C162 1.251 . S
C164 H131 0.930 . S
C164 C166 1.406 . S
C164 C169 1.261 . S
C165 H132 0.930 . S
C165 N167 1.325 . S
C165 C168 1.357 . S
C166 H134 0.928 . S
C166 C164 1.406 . S
C166 N167 1.261 . S
N167 Co118 2.214 . S
N167 C165 1.325 . S
N167 C166 1.261 . S
C168 H138 0.931 . S
C168 C165 1.357 . S
C168 C169 1.312 . S
C169 H140 0.930 . S
C169 C164 1.261 . S
C169 C168 1.312 . S
C170 O142 1.214 . S
C170 O150 1.234 . S
C171 H143 0.929 . S
C171 C174 1.391 . S
C171 C176 1.391 . S
C172 H144 0.929 . S
C172 C173 1.390 . S
C172 N175 1.391 . S
C173 H145 0.930 . S
C173 C172 1.390 . S
C173 C174 1.392 . S
C174 H146 0.929 . S
C174 C171 1.391 . S
C174 C173 1.392 . S
N175 Co119 2.257 . S
N175 C172 1.391 . S
N175 C176 1.388 . S
C176 H147 0.930 . S
C176 C171 1.391 . S
C176 N175 1.388 . S
Co177 O179 2.143 . S
Co177 O185 2.074 . S
Co177 O188 2.093 . S
Co177 O201 2.097 . S
Co177 N218 2.151 . S
Co177 N226 2.214 . S
Co178 O179 2.160 . S
Co178 O184 2.058 . S
Co178 O194 2.057 . S
Co178 O209 2.037 . S
Co178 N213 2.145 . S
Co178 N234 2.257 . S
O179 Co177 2.143 . S
O179 Co178 2.160 . S
C180 O181 1.278 . S
C180 O188 1.224 . S
O181 C180 1.278 . S
C182 O183 1.245 . S
C182 O194 1.232 . S
O183 C182 1.245 . S
O184 Co178 2.058 . S
O184 C210 1.269 . S
O185 Co177 2.074 . S
O185 C210 1.257 . S
H186 C211 0.930 . S
H187 C217 0.930 . S
O188 Co177 2.093 . S
O188 C180 1.224 . S
H189 C221 0.929 . S
H190 C223 0.930 . S
H191 C224 0.930 . S
H192 C222 0.929 . S
H193 C225 0.928 . S
O194 Co178 2.057 . S
O194 C182 1.232 . S
H195 C214 0.929 . S
H196 C215 0.929 . S
H197 C227 0.931 . S
H198 C219 0.929 . S
H199 C228 0.930 . S
H200 C220 0.931 . S
O201 Co177 2.097 . S
O201 C229 1.214 . S
H202 C230 0.929 . S
H203 C231 0.929 . S
H204 C232 0.930 . S
H205 C233 0.929 . S
H206 C235 0.930 . S
H207 C212 0.930 . S
H208 C216 0.930 . S
O209 Co178 2.037 . S
O209 C229 1.234 . S
C210 O184 1.269 . S
C210 O185 1.257 . S
C211 H186 0.930 . S
C211 C214 1.388 . S
C211 C216 1.418 . S
C212 H207 0.930 . S
C212 C215 1.404 . S
C212 C216 1.353 . S
N213 Co178 2.145 . S
N213 C214 1.397 . S
N213 C215 1.334 . S
C214 H195 0.929 . S
C214 C211 1.388 . S
C214 N213 1.397 . S
C215 H196 0.929 . S
C215 C212 1.404 . S
C215 N213 1.334 . S
C216 H208 0.930 . S
C216 C211 1.418 . S
C216 C212 1.353 . S
C217 H187 0.930 . S
C217 N218 1.330 . S
C217 C219 1.446 . S
N218 Co177 2.151 . S
N218 C217 1.330 . S
N218 C222 1.418 . S
C219 H198 0.929 . S
C219 C217 1.446 . S
C219 C220 1.332 . S
C220 H200 0.931 . S
C220 C219 1.332 . S
C220 C221 1.267 . S
C221 H189 0.929 . S
C221 C220 1.267 . S
C221 C222 1.251 . S
C222 H192 0.929 . S
C222 N218 1.418 . S
C222 C221 1.251 . S
C223 H190 0.930 . S
C223 C225 1.406 . S
C223 C228 1.261 . S
C224 H191 0.930 . S
C224 N226 1.325 . S
C224 C227 1.357 . S
C225 H193 0.928 . S
C225 C223 1.406 . S
C225 N226 1.261 . S
N226 Co177 2.214 . S
N226 C224 1.325 . S
N226 C225 1.261 . S
C227 H197 0.931 . S
C227 C224 1.357 . S
C227 C228 1.312 . S
C228 H199 0.930 . S
C228 C223 1.261 . S
C228 C227 1.312 . S
C229 O201 1.214 . S
C229 O209 1.234 . S
C230 H202 0.929 . S
C230 C233 1.391 . S
C230 C235 1.391 . S
C231 H203 0.929 . S
C231 C232 1.390 . S
C231 N234 1.391 . S
C232 H204 0.930 . S
C232 C231 1.390 . S
C232 C233 1.392 . S
C233 H205 0.929 . S
C233 C230 1.391 . S
C233 C232 1.392 . S
N234 Co178 2.257 . S
N234 C231 1.391 . S
N234 C235 1.388 . S
C235 H206 0.930 . S
C235 C230 1.391 . S
C235 N234 1.388 . S
Co236 O238 2.143 . S
Co236 O244 2.074 . S
Co236 O247 2.093 . S
Co236 O260 2.097 . S
Co236 N277 2.151 . S
Co236 N285 2.214 . S
Co237 O238 2.160 . S
Co237 O243 2.058 . S
Co237 O253 2.057 . S
Co237 O268 2.037 . S
Co237 N272 2.145 . S
Co237 N293 2.257 . S
O238 Co236 2.143 . S
O238 Co237 2.160 . S
C239 O240 1.278 . S
C239 O247 1.224 . S
O240 C239 1.278 . S
C241 O242 1.245 . S
C241 O253 1.232 . S
O242 C241 1.245 . S
O243 Co237 2.058 . S
O243 C269 1.269 . S
O244 Co236 2.074 . S
O244 C269 1.257 . S
H245 C270 0.930 . S
H246 C276 0.930 . S
O247 Co236 2.093 . S
O247 C239 1.224 . S
H248 C280 0.929 . S
H249 C282 0.930 . S
H250 C283 0.930 . S
H251 C281 0.929 . S
H252 C284 0.928 . S
O253 Co237 2.057 . S
O253 C241 1.232 . S
H254 C273 0.929 . S
H255 C274 0.929 . S
H256 C286 0.931 . S
H257 C278 0.929 . S
H258 C287 0.930 . S
H259 C279 0.931 . S
O260 Co236 2.097 . S
O260 C288 1.214 . S
H261 C289 0.929 . S
H262 C290 0.929 . S
H263 C291 0.930 . S
H264 C292 0.929 . S
H265 C294 0.930 . S
H266 C271 0.930 . S
H267 C275 0.930 . S
O268 Co237 2.037 . S
O268 C288 1.234 . S
C269 O243 1.269 . S
C269 O244 1.257 . S
C270 H245 0.930 . S
C270 C273 1.388 . S
C270 C275 1.418 . S
C271 H266 0.930 . S
C271 C274 1.404 . S
C271 C275 1.353 . S
N272 Co237 2.145 . S
N272 C273 1.397 . S
N272 C274 1.334 . S
C273 H254 0.929 . S
C273 C270 1.388 . S
C273 N272 1.397 . S
C274 H255 0.929 . S
C274 C271 1.404 . S
C274 N272 1.334 . S
C275 H267 0.930 . S
C275 C270 1.418 . S
C275 C271 1.353 . S
C276 H246 0.930 . S
C276 N277 1.330 . S
C276 C278 1.446 . S
N277 Co236 2.151 . S
N277 C276 1.330 . S
N277 C281 1.418 . S
C278 H257 0.929 . S
C278 C276 1.446 . S
C278 C279 1.332 . S
C279 H259 0.931 . S
C279 C278 1.332 . S
C279 C280 1.267 . S
C280 H248 0.929 . S
C280 C279 1.267 . S
C280 C281 1.251 . S
C281 H251 0.929 . S
C281 N277 1.418 . S
C281 C280 1.251 . S
C282 H249 0.930 . S
C282 C284 1.406 . S
C282 C287 1.261 . S
C283 H250 0.930 . S
C283 N285 1.325 . S
C283 C286 1.357 . S
C284 H252 0.928 . S
C284 C282 1.406 . S
C284 N285 1.261 . S
N285 Co236 2.214 . S
N285 C283 1.325 . S
N285 C284 1.261 . S
C286 H256 0.931 . S
C286 C283 1.357 . S
C286 C287 1.312 . S
C287 H258 0.930 . S
C287 C282 1.261 . S
C287 C286 1.312 . S
C288 O260 1.214 . S
C288 O268 1.234 . S
C289 H261 0.929 . S
C289 C292 1.391 . S
C289 C294 1.391 . S
C290 H262 0.929 . S
C290 C291 1.390 . S
C290 N293 1.391 . S
C291 H263 0.930 . S
C291 C290 1.390 . S
C291 C292 1.392 . S
C292 H264 0.929 . S
C292 C289 1.391 . S
C292 C291 1.392 . S
N293 Co237 2.257 . S
N293 C290 1.391 . S
N293 C294 1.388 . S
C294 H265 0.930 . S
C294 C289 1.391 . S
C294 N293 1.388 . S
Co295 O297 2.143 . S
Co295 O303 2.074 . S
Co295 O306 2.093 . S
Co295 O319 2.097 . S
Co295 N336 2.151 . S
Co295 N344 2.214 . S
Co296 O297 2.160 . S
Co296 O302 2.058 . S
Co296 O312 2.057 . S
Co296 O327 2.037 . S
Co296 N331 2.145 . S
Co296 N352 2.257 . S
O297 Co295 2.143 . S
O297 Co296 2.160 . S
C298 O299 1.278 . S
C298 O306 1.224 . S
O299 C298 1.278 . S
C300 O301 1.245 . S
C300 O312 1.232 . S
O301 C300 1.245 . S
O302 Co296 2.058 . S
O302 C328 1.269 . S
O303 Co295 2.074 . S
O303 C328 1.257 . S
H304 C329 0.930 . S
H305 C335 0.930 . S
O306 Co295 2.093 . S
O306 C298 1.224 . S
H307 C339 0.929 . S
H308 C341 0.930 . S
H309 C342 0.930 . S
H310 C340 0.929 . S
H311 C343 0.928 . S
O312 Co296 2.057 . S
O312 C300 1.232 . S
H313 C332 0.929 . S
H314 C333 0.929 . S
H315 C345 0.931 . S
H316 C337 0.929 . S
H317 C346 0.930 . S
H318 C338 0.931 . S
O319 Co295 2.097 . S
O319 C347 1.214 . S
H320 C348 0.929 . S
H321 C349 0.929 . S
H322 C350 0.930 . S
H323 C351 0.929 . S
H324 C353 0.930 . S
H325 C330 0.930 . S
H326 C334 0.930 . S
O327 Co296 2.037 . S
O327 C347 1.234 . S
C328 O302 1.269 . S
C328 O303 1.257 . S
C329 H304 0.930 . S
C329 C332 1.388 . S
C329 C334 1.418 . S
C330 H325 0.930 . S
C330 C333 1.404 . S
C330 C334 1.353 . S
N331 Co296 2.145 . S
N331 C332 1.397 . S
N331 C333 1.334 . S
C332 H313 0.929 . S
C332 C329 1.388 . S
C332 N331 1.397 . S
C333 H314 0.929 . S
C333 C330 1.404 . S
C333 N331 1.334 . S
C334 H326 0.930 . S
C334 C329 1.418 . S
C334 C330 1.353 . S
C335 H305 0.930 . S
C335 N336 1.330 . S
C335 C337 1.446 . S
N336 Co295 2.151 . S
N336 C335 1.330 . S
N336 C340 1.418 . S
C337 H316 0.929 . S
C337 C335 1.446 . S
C337 C338 1.332 . S
C338 H318 0.931 . S
C338 C337 1.332 . S
C338 C339 1.267 . S
C339 H307 0.929 . S
C339 C338 1.267 . S
C339 C340 1.251 . S
C340 H310 0.929 . S
C340 N336 1.418 . S
C340 C339 1.251 . S
C341 H308 0.930 . S
C341 C343 1.406 . S
C341 C346 1.261 . S
C342 H309 0.930 . S
C342 N344 1.325 . S
C342 C345 1.357 . S
C343 H311 0.928 . S
C343 C341 1.406 . S
C343 N344 1.261 . S
N344 Co295 2.214 . S
N344 C342 1.325 . S
N344 C343 1.261 . S
C345 H315 0.931 . S
C345 C342 1.357 . S
C345 C346 1.312 . S
C346 H317 0.930 . S
C346 C341 1.261 . S
C346 C345 1.312 . S
C347 O319 1.214 . S
C347 O327 1.234 . S
C348 H320 0.929 . S
C348 C351 1.391 . S
C348 C353 1.391 . S
C349 H321 0.929 . S
C349 C350 1.390 . S
C349 N352 1.391 . S
C350 H322 0.930 . S
C350 C349 1.390 . S
C350 C351 1.392 . S
C351 H323 0.929 . S
C351 C348 1.391 . S
C351 C350 1.392 . S
N352 Co296 2.257 . S
N352 C349 1.391 . S
N352 C353 1.388 . S
C353 H324 0.930 . S
C353 C348 1.391 . S
C353 N352 1.388 . S
Co354 O356 2.143 . S
Co354 O362 2.074 . S
Co354 O365 2.093 . S
Co354 O378 2.097 . S
Co354 N395 2.151 . S
Co354 N403 2.214 . S
Co355 O356 2.160 . S
Co355 O361 2.058 . S
Co355 O371 2.057 . S
Co355 O386 2.037 . S
Co355 N390 2.145 . S
Co355 N411 2.257 . S
O356 Co354 2.143 . S
O356 Co355 2.160 . S
C357 O358 1.278 . S
C357 O365 1.224 . S
O358 C357 1.278 . S
C359 O360 1.245 . S
C359 O371 1.232 . S
O360 C359 1.245 . S
O361 Co355 2.058 . S
O361 C387 1.269 . S
O362 Co354 2.074 . S
O362 C387 1.257 . S
H363 C388 0.930 . S
H364 C394 0.930 . S
O365 Co354 2.093 . S
O365 C357 1.224 . S
H366 C398 0.929 . S
H367 C400 0.930 . S
H368 C401 0.930 . S
H369 C399 0.929 . S
H370 C402 0.928 . S
O371 Co355 2.057 . S
O371 C359 1.232 . S
H372 C391 0.929 . S
H373 C392 0.929 . S
H374 C404 0.931 . S
H375 C396 0.929 . S
H376 C405 0.930 . S
H377 C397 0.931 . S
O378 Co354 2.097 . S
O378 C406 1.214 . S
H379 C407 0.929 . S
H380 C408 0.929 . S
H381 C409 0.930 . S
H382 C410 0.929 . S
H383 C412 0.930 . S
H384 C389 0.930 . S
H385 C393 0.930 . S
O386 Co355 2.037 . S
O386 C406 1.234 . S
C387 O361 1.269 . S
C387 O362 1.257 . S
C388 H363 0.930 . S
C388 C391 1.388 . S
C388 C393 1.418 . S
C389 H384 0.930 . S
C389 C392 1.404 . S
C389 C393 1.353 . S
N390 Co355 2.145 . S
N390 C391 1.397 . S
N390 C392 1.334 . S
C391 H372 0.929 . S
C391 C388 1.388 . S
C391 N390 1.397 . S
C392 H373 0.929 . S
C392 C389 1.404 . S
C392 N390 1.334 . S
C393 H385 0.930 . S
C393 C388 1.418 . S
C393 C389 1.353 . S
C394 H364 0.930 . S
C394 N395 1.330 . S
C394 C396 1.446 . S
N395 Co354 2.151 . S
N395 C394 1.330 . S
N395 C399 1.418 . S
C396 H375 0.929 . S
C396 C394 1.446 . S
C396 C397 1.332 . S
C397 H377 0.931 . S
C397 C396 1.332 . S
C397 C398 1.267 . S
C398 H366 0.929 . S
C398 C397 1.267 . S
C398 C399 1.251 . S
C399 H369 0.929 . S
C399 N395 1.418 . S
C399 C398 1.251 . S
C400 H367 0.930 . S
C400 C402 1.406 . S
C400 C405 1.261 . S
C401 H368 0.930 . S
C401 N403 1.325 . S
C401 C404 1.357 . S
C402 H370 0.928 . S
C402 C400 1.406 . S
C402 N403 1.261 . S
N403 Co354 2.214 . S
N403 C401 1.325 . S
N403 C402 1.261 . S
C404 H374 0.931 . S
C404 C401 1.357 . S
C404 C405 1.312 . S
C405 H376 0.930 . S
C405 C400 1.261 . S
C405 C404 1.312 . S
C406 O378 1.214 . S
C406 O386 1.234 . S
C407 H379 0.929 . S
C407 C410 1.391 . S
C407 C412 1.391 . S
C408 H380 0.929 . S
C408 C409 1.390 . S
C408 N411 1.391 . S
C409 H381 0.930 . S
C409 C408 1.390 . S
C409 C410 1.392 . S
C410 H382 0.929 . S
C410 C407 1.391 . S
C410 C409 1.392 . S
N411 Co355 2.257 . S
N411 C408 1.391 . S
N411 C412 1.388 . S
C412 H383 0.930 . S
C412 C407 1.391 . S
C412 N411 1.388 . S
Co413 O415 2.143 . S
Co413 O421 2.074 . S
Co413 O424 2.093 . S
Co413 O437 2.097 . S
Co413 N454 2.151 . S
Co413 N462 2.214 . S
Co414 O415 2.160 . S
Co414 O420 2.058 . S
Co414 O430 2.057 . S
Co414 O445 2.037 . S
Co414 N449 2.145 . S
Co414 N470 2.257 . S
O415 Co413 2.143 . S
O415 Co414 2.160 . S
C416 O417 1.278 . S
C416 O424 1.224 . S
O417 C416 1.278 . S
C418 O419 1.245 . S
C418 O430 1.232 . S
O419 C418 1.245 . S
O420 Co414 2.058 . S
O420 C446 1.269 . S
O421 Co413 2.074 . S
O421 C446 1.257 . S
H422 C447 0.930 . S
H423 C453 0.930 . S
O424 Co413 2.093 . S
O424 C416 1.224 . S
H425 C457 0.929 . S
H426 C459 0.930 . S
H427 C460 0.930 . S
H428 C458 0.929 . S
H429 C461 0.928 . S
O430 Co414 2.057 . S
O430 C418 1.232 . S
H431 C450 0.929 . S
H432 C451 0.929 . S
H433 C463 0.931 . S
H434 C455 0.929 . S
H435 C464 0.930 . S
H436 C456 0.931 . S
O437 Co413 2.097 . S
O437 C465 1.214 . S
H438 C466 0.929 . S
H439 C467 0.929 . S
H440 C468 0.930 . S
H441 C469 0.929 . S
H442 C471 0.930 . S
H443 C448 0.930 . S
H444 C452 0.930 . S
O445 Co414 2.037 . S
O445 C465 1.234 . S
C446 O420 1.269 . S
C446 O421 1.257 . S
C447 H422 0.930 . S
C447 C450 1.388 . S
C447 C452 1.418 . S
C448 H443 0.930 . S
C448 C451 1.404 . S
C448 C452 1.353 . S
N449 Co414 2.145 . S
N449 C450 1.397 . S
N449 C451 1.334 . S
C450 H431 0.929 . S
C450 C447 1.388 . S
C450 N449 1.397 . S
C451 H432 0.929 . S
C451 C448 1.404 . S
C451 N449 1.334 . S
C452 H444 0.930 . S
C452 C447 1.418 . S
C452 C448 1.353 . S
C453 H423 0.930 . S
C453 N454 1.330 . S
C453 C455 1.446 . S
N454 Co413 2.151 . S
N454 C453 1.330 . S
N454 C458 1.418 . S
C455 H434 0.929 . S
C455 C453 1.446 . S
C455 C456 1.332 . S
C456 H436 0.931 . S
C456 C455 1.332 . S
C456 C457 1.267 . S
C457 H425 0.929 . S
C457 C456 1.267 . S
C457 C458 1.251 . S
C458 H428 0.929 . S
C458 N454 1.418 . S
C458 C457 1.251 . S
C459 H426 0.930 . S
C459 C461 1.406 . S
C459 C464 1.261 . S
C460 H427 0.930 . S
C460 N462 1.325 . S
C460 C463 1.357 . S
C461 H429 0.928 . S
C461 C459 1.406 . S
C461 N462 1.261 . S
N462 Co413 2.214 . S
N462 C460 1.325 . S
N462 C461 1.261 . S
C463 H433 0.931 . S
C463 C460 1.357 . S
C463 C464 1.312 . S
C464 H435 0.930 . S
C464 C459 1.261 . S
C464 C463 1.312 . S
C465 O437 1.214 . S
C465 O445 1.234 . S
C466 H438 0.929 . S
C466 C469 1.391 . S
C466 C471 1.391 . S
C467 H439 0.929 . S
C467 C468 1.390 . S
C467 N470 1.391 . S
C468 H440 0.930 . S
C468 C467 1.390 . S
C468 C469 1.392 . S
C469 H441 0.929 . S
C469 C466 1.391 . S
C469 C468 1.392 . S
N470 Co414 2.257 . S
N470 C467 1.391 . S
N470 C471 1.388 . S
C471 H442 0.930 . S
C471 C466 1.391 . S
C471 N470 1.388 . S
Co472 O474 2.143 . S
Co472 O480 2.074 . S
Co472 O483 2.093 . S
Co472 O496 2.097 . S
Co472 N513 2.151 . S
Co472 N521 2.214 . S
Co473 O474 2.160 . S
Co473 O479 2.058 . S
Co473 O489 2.057 . S
Co473 O504 2.037 . S
Co473 N508 2.145 . S
Co473 N529 2.257 . S
O474 Co472 2.143 . S
O474 Co473 2.160 . S
C475 O476 1.278 . S
C475 O483 1.224 . S
O476 C475 1.278 . S
C477 O478 1.245 . S
C477 O489 1.232 . S
O478 C477 1.245 . S
O479 Co473 2.058 . S
O479 C505 1.269 . S
O480 Co472 2.074 . S
O480 C505 1.257 . S
H481 C506 0.930 . S
H482 C512 0.930 . S
O483 Co472 2.093 . S
O483 C475 1.224 . S
H484 C516 0.929 . S
H485 C518 0.930 . S
H486 C519 0.930 . S
H487 C517 0.929 . S
H488 C520 0.928 . S
O489 Co473 2.057 . S
O489 C477 1.232 . S
H490 C509 0.929 . S
H491 C510 0.929 . S
H492 C522 0.931 . S
H493 C514 0.929 . S
H494 C523 0.930 . S
H495 C515 0.931 . S
O496 Co472 2.097 . S
O496 C524 1.214 . S
H497 C525 0.929 . S
H498 C526 0.929 . S
H499 C527 0.930 . S
H500 C528 0.929 . S
H501 C530 0.930 . S
H502 C507 0.930 . S
H503 C511 0.930 . S
O504 Co473 2.037 . S
O504 C524 1.234 . S
C505 O479 1.269 . S
C505 O480 1.257 . S
C506 H481 0.930 . S
C506 C509 1.388 . S
C506 C511 1.418 . S
C507 H502 0.930 . S
C507 C510 1.404 . S
C507 C511 1.353 . S
N508 Co473 2.145 . S
N508 C509 1.397 . S
N508 C510 1.334 . S
C509 H490 0.929 . S
C509 C506 1.388 . S
C509 N508 1.397 . S
C510 H491 0.929 . S
C510 C507 1.404 . S
C510 N508 1.334 . S
C511 H503 0.930 . S
C511 C506 1.418 . S
C511 C507 1.353 . S
C512 H482 0.930 . S
C512 N513 1.330 . S
C512 C514 1.446 . S
N513 Co472 2.151 . S
N513 C512 1.330 . S
N513 C517 1.418 . S
C514 H493 0.929 . S
C514 C512 1.446 . S
C514 C515 1.332 . S
C515 H495 0.931 . S
C515 C514 1.332 . S
C515 C516 1.267 . S
C516 H484 0.929 . S
C516 C515 1.267 . S
C516 C517 1.251 . S
C517 H487 0.929 . S
C517 N513 1.418 . S
C517 C516 1.251 . S
C518 H485 0.930 . S
C518 C520 1.406 . S
C518 C523 1.261 . S
C519 H486 0.930 . S
C519 N521 1.325 . S
C519 C522 1.357 . S
C520 H488 0.928 . S
C520 C518 1.406 . S
C520 N521 1.261 . S
N521 Co472 2.214 . S
N521 C519 1.325 . S
N521 C520 1.261 . S
C522 H492 0.931 . S
C522 C519 1.357 . S
C522 C523 1.312 . S
C523 H494 0.930 . S
C523 C518 1.261 . S
C523 C522 1.312 . S
C524 O496 1.214 . S
C524 O504 1.234 . S
C525 H497 0.929 . S
C525 C528 1.391 . S
C525 C530 1.391 . S
C526 H498 0.929 . S
C526 C527 1.390 . S
C526 N529 1.391 . S
C527 H499 0.930 . S
C527 C526 1.390 . S
C527 C528 1.392 . S
C528 H500 0.929 . S
C528 C525 1.391 . S
C528 C527 1.392 . S
N529 Co473 2.257 . S
N529 C526 1.391 . S
N529 C530 1.388 . S
C530 H501 0.930 . S
C530 C525 1.391 . S
C530 N529 1.388 . S
Co531 O533 2.143 . S
Co531 O539 2.074 . S
Co531 O542 2.093 . S
Co531 O555 2.097 . S
Co531 N572 2.151 . S
Co531 N580 2.214 . S
Co532 O533 2.160 . S
Co532 O538 2.058 . S
Co532 O548 2.057 . S
Co532 O563 2.037 . S
Co532 N567 2.145 . S
Co532 N588 2.257 . S
O533 Co531 2.143 . S
O533 Co532 2.160 . S
C534 O535 1.278 . S
C534 O542 1.224 . S
O535 C534 1.278 . S
C536 O537 1.245 . S
C536 O548 1.232 . S
O537 C536 1.245 . S
O538 Co532 2.058 . S
O538 C564 1.269 . S
O539 Co531 2.074 . S
O539 C564 1.257 . S
H540 C565 0.930 . S
H541 C571 0.930 . S
O542 Co531 2.093 . S
O542 C534 1.224 . S
H543 C575 0.929 . S
H544 C577 0.930 . S
H545 C578 0.930 . S
H546 C576 0.929 . S
H547 C579 0.928 . S
O548 Co532 2.057 . S
O548 C536 1.232 . S
H549 C568 0.929 . S
H550 C569 0.929 . S
H551 C581 0.931 . S
H552 C573 0.929 . S
H553 C582 0.930 . S
H554 C574 0.931 . S
O555 Co531 2.097 . S
O555 C583 1.214 . S
H556 C584 0.929 . S
H557 C585 0.929 . S
H558 C586 0.930 . S
H559 C587 0.929 . S
H560 C589 0.930 . S
H561 C566 0.930 . S
H562 C570 0.930 . S
O563 Co532 2.037 . S
O563 C583 1.234 . S
C564 O538 1.269 . S
C564 O539 1.257 . S
C565 H540 0.930 . S
C565 C568 1.388 . S
C565 C570 1.418 . S
C566 H561 0.930 . S
C566 C569 1.404 . S
C566 C570 1.353 . S
N567 Co532 2.145 . S
N567 C568 1.397 . S
N567 C569 1.334 . S
C568 H549 0.929 . S
C568 C565 1.388 . S
C568 N567 1.397 . S
C569 H550 0.929 . S
C569 C566 1.404 . S
C569 N567 1.334 . S
C570 H562 0.930 . S
C570 C565 1.418 . S
C570 C566 1.353 . S
C571 H541 0.930 . S
C571 N572 1.330 . S
C571 C573 1.446 . S
N572 Co531 2.151 . S
N572 C571 1.330 . S
N572 C576 1.418 . S
C573 H552 0.929 . S
C573 C571 1.446 . S
C573 C574 1.332 . S
C574 H554 0.931 . S
C574 C573 1.332 . S
C574 C575 1.267 . S
C575 H543 0.929 . S
C575 C574 1.267 . S
C575 C576 1.251 . S
C576 H546 0.929 . S
C576 N572 1.418 . S
C576 C575 1.251 . S
C577 H544 0.930 . S
C577 C579 1.406 . S
C577 C582 1.261 . S
C578 H545 0.930 . S
C578 N580 1.325 . S
C578 C581 1.357 . S
C579 H547 0.928 . S
C579 C577 1.406 . S
C579 N580 1.261 . S
N580 Co531 2.214 . S
N580 C578 1.325 . S
N580 C579 1.261 . S
C581 H551 0.931 . S
C581 C578 1.357 . S
C581 C582 1.312 . S
C582 H553 0.930 . S
C582 C577 1.261 . S
C582 C581 1.312 . S
C583 O555 1.214 . S
C583 O563 1.234 . S
C584 H556 0.929 . S
C584 C587 1.391 . S
C584 C589 1.391 . S
C585 H557 0.929 . S
C585 C586 1.390 . S
C585 N588 1.391 . S
C586 H558 0.930 . S
C586 C585 1.390 . S
C586 C587 1.392 . S
C587 H559 0.929 . S
C587 C584 1.391 . S
C587 C586 1.392 . S
N588 Co532 2.257 . S
N588 C585 1.391 . S
N588 C589 1.388 . S
C589 H560 0.930 . S
C589 C584 1.391 . S
C589 N588 1.388 . S
Co590 O592 2.143 . S
Co590 O598 2.074 . S
Co590 O601 2.093 . S
Co590 O614 2.097 . S
Co590 N631 2.151 . S
Co590 N639 2.214 . S
Co591 O592 2.160 . S
Co591 O597 2.058 . S
Co591 O607 2.057 . S
Co591 O622 2.037 . S
Co591 N626 2.145 . S
Co591 N647 2.257 . S
O592 Co590 2.143 . S
O592 Co591 2.160 . S
C593 O594 1.278 . S
C593 O601 1.224 . S
O594 C593 1.278 . S
C595 O596 1.245 . S
C595 O607 1.232 . S
O596 C595 1.245 . S
O597 Co591 2.058 . S
O597 C623 1.269 . S
O598 Co590 2.074 . S
O598 C623 1.257 . S
H599 C624 0.930 . S
H600 C630 0.930 . S
O601 Co590 2.093 . S
O601 C593 1.224 . S
H602 C634 0.929 . S
H603 C636 0.930 . S
H604 C637 0.930 . S
H605 C635 0.929 . S
H606 C638 0.928 . S
O607 Co591 2.057 . S
O607 C595 1.232 . S
H608 C627 0.929 . S
H609 C628 0.929 . S
H610 C640 0.931 . S
H611 C632 0.929 . S
H612 C641 0.930 . S
H613 C633 0.931 . S
O614 Co590 2.097 . S
O614 C642 1.214 . S
H615 C643 0.929 . S
H616 C644 0.929 . S
H617 C645 0.930 . S
H618 C646 0.929 . S
H619 C648 0.930 . S
H620 C625 0.930 . S
H621 C629 0.930 . S
O622 Co591 2.037 . S
O622 C642 1.234 . S
C623 O597 1.269 . S
C623 O598 1.257 . S
C624 H599 0.930 . S
C624 C627 1.388 . S
C624 C629 1.418 . S
C625 H620 0.930 . S
C625 C628 1.404 . S
C625 C629 1.353 . S
N626 Co591 2.145 . S
N626 C627 1.397 . S
N626 C628 1.334 . S
C627 H608 0.929 . S
C627 C624 1.388 . S
C627 N626 1.397 . S
C628 H609 0.929 . S
C628 C625 1.404 . S
C628 N626 1.334 . S
C629 H621 0.930 . S
C629 C624 1.418 . S
C629 C625 1.353 . S
C630 H600 0.930 . S
C630 N631 1.330 . S
C630 C632 1.446 . S
N631 Co590 2.151 . S
N631 C630 1.330 . S
N631 C635 1.418 . S
C632 H611 0.929 . S
C632 C630 1.446 . S
C632 C633 1.332 . S
C633 H613 0.931 . S
C633 C632 1.332 . S
C633 C634 1.267 . S
C634 H602 0.929 . S
C634 C633 1.267 . S
C634 C635 1.251 . S
C635 H605 0.929 . S
C635 N631 1.418 . S
C635 C634 1.251 . S
C636 H603 0.930 . S
C636 C638 1.406 . S
C636 C641 1.261 . S
C637 H604 0.930 . S
C637 N639 1.325 . S
C637 C640 1.357 . S
C638 H606 0.928 . S
C638 C636 1.406 . S
C638 N639 1.261 . S
N639 Co590 2.214 . S
N639 C637 1.325 . S
N639 C638 1.261 . S
C640 H610 0.931 . S
C640 C637 1.357 . S
C640 C641 1.312 . S
C641 H612 0.930 . S
C641 C636 1.261 . S
C641 C640 1.312 . S
C642 O614 1.214 . S
C642 O622 1.234 . S
C643 H615 0.929 . S
C643 C646 1.391 . S
C643 C648 1.391 . S
C644 H616 0.929 . S
C644 C645 1.390 . S
C644 N647 1.391 . S
C645 H617 0.930 . S
C645 C644 1.390 . S
C645 C646 1.392 . S
C646 H618 0.929 . S
C646 C643 1.391 . S
C646 C645 1.392 . S
N647 Co591 2.257 . S
N647 C644 1.391 . S
N647 C648 1.388 . S
C648 H619 0.930 . S
C648 C643 1.391 . S
C648 N647 1.388 . S
Co649 O651 2.143 . S
Co649 O657 2.074 . S
Co649 O660 2.093 . S
Co649 O673 2.097 . S
Co649 N690 2.151 . S
Co649 N698 2.214 . S
Co650 O651 2.160 . S
Co650 O656 2.058 . S
Co650 O666 2.057 . S
Co650 O681 2.037 . S
Co650 N685 2.145 . S
Co650 N706 2.257 . S
O651 Co649 2.143 . S
O651 Co650 2.160 . S
C652 O653 1.278 . S
C652 O660 1.224 . S
O653 C652 1.278 . S
C654 O655 1.245 . S
C654 O666 1.232 . S
O655 C654 1.245 . S
O656 Co650 2.058 . S
O656 C682 1.269 . S
O657 Co649 2.074 . S
O657 C682 1.257 . S
H658 C683 0.930 . S
H659 C689 0.930 . S
O660 Co649 2.093 . S
O660 C652 1.224 . S
H661 C693 0.929 . S
H662 C695 0.930 . S
H663 C696 0.930 . S
H664 C694 0.929 . S
H665 C697 0.928 . S
O666 Co650 2.057 . S
O666 C654 1.232 . S
H667 C686 0.929 . S
H668 C687 0.929 . S
H669 C699 0.931 . S
H670 C691 0.929 . S
H671 C700 0.930 . S
H672 C692 0.931 . S
O673 Co649 2.097 . S
O673 C701 1.214 . S
H674 C702 0.929 . S
H675 C703 0.929 . S
H676 C704 0.930 . S
H677 C705 0.929 . S
H678 C707 0.930 . S
H679 C684 0.930 . S
H680 C688 0.930 . S
O681 Co650 2.037 . S
O681 C701 1.234 . S
C682 O656 1.269 . S
C682 O657 1.257 . S
C683 H658 0.930 . S
C683 C686 1.388 . S
C683 C688 1.418 . S
C684 H679 0.930 . S
C684 C687 1.404 . S
C684 C688 1.353 . S
N685 Co650 2.145 . S
N685 C686 1.397 . S
N685 C687 1.334 . S
C686 H667 0.929 . S
C686 C683 1.388 . S
C686 N685 1.397 . S
C687 H668 0.929 . S
C687 C684 1.404 . S
C687 N685 1.334 . S
C688 H680 0.930 . S
C688 C683 1.418 . S
C688 C684 1.353 . S
C689 H659 0.930 . S
C689 N690 1.330 . S
C689 C691 1.446 . S
N690 Co649 2.151 . S
N690 C689 1.330 . S
N690 C694 1.418 . S
C691 H670 0.929 . S
C691 C689 1.446 . S
C691 C692 1.332 . S
C692 H672 0.931 . S
C692 C691 1.332 . S
C692 C693 1.267 . S
C693 H661 0.929 . S
C693 C692 1.267 . S
C693 C694 1.251 . S
C694 H664 0.929 . S
C694 N690 1.418 . S
C694 C693 1.251 . S
C695 H662 0.930 . S
C695 C697 1.406 . S
C695 C700 1.261 . S
C696 H663 0.930 . S
C696 N698 1.325 . S
C696 C699 1.357 . S
C697 H665 0.928 . S
C697 C695 1.406 . S
C697 N698 1.261 . S
N698 Co649 2.214 . S
N698 C696 1.325 . S
N698 C697 1.261 . S
C699 H669 0.931 . S
C699 C696 1.357 . S
C699 C700 1.312 . S
C700 H671 0.930 . S
C700 C695 1.261 . S
C700 C699 1.312 . S
C701 O673 1.214 . S
C701 O681 1.234 . S
C702 H674 0.929 . S
C702 C705 1.391 . S
C702 C707 1.391 . S
C703 H675 0.929 . S
C703 C704 1.390 . S
C703 N706 1.391 . S
C704 H676 0.930 . S
C704 C703 1.390 . S
C704 C705 1.392 . S
C705 H677 0.929 . S
C705 C702 1.391 . S
C705 C704 1.392 . S
N706 Co650 2.257 . S
N706 C703 1.391 . S
N706 C707 1.388 . S
C707 H678 0.930 . S
C707 C702 1.391 . S
C707 N706 1.388 . S
Co708 O710 2.143 . S
Co708 O716 2.074 . S
Co708 O719 2.093 . S
Co708 O732 2.097 . S
Co708 N749 2.151 . S
Co708 N757 2.214 . S
Co709 O710 2.160 . S
Co709 O715 2.058 . S
Co709 O725 2.057 . S
Co709 O740 2.037 . S
Co709 N744 2.145 . S
Co709 N765 2.257 . S
O710 Co708 2.143 . S
O710 Co709 2.160 . S
C711 O712 1.278 . S
C711 O719 1.224 . S
O712 C711 1.278 . S
C713 O714 1.245 . S
C713 O725 1.232 . S
O714 C713 1.245 . S
O715 Co709 2.058 . S
O715 C741 1.269 . S
O716 Co708 2.074 . S
O716 C741 1.257 . S
H717 C742 0.930 . S
H718 C748 0.930 . S
O719 Co708 2.093 . S
O719 C711 1.224 . S
H720 C752 0.929 . S
H721 C754 0.930 . S
H722 C755 0.930 . S
H723 C753 0.929 . S
H724 C756 0.928 . S
O725 Co709 2.057 . S
O725 C713 1.232 . S
H726 C745 0.929 . S
H727 C746 0.929 . S
H728 C758 0.931 . S
H729 C750 0.929 . S
H730 C759 0.930 . S
H731 C751 0.931 . S
O732 Co708 2.097 . S
O732 C760 1.214 . S
H733 C761 0.929 . S
H734 C762 0.929 . S
H735 C763 0.930 . S
H736 C764 0.929 . S
H737 C766 0.930 . S
H738 C743 0.930 . S
H739 C747 0.930 . S
O740 Co709 2.037 . S
O740 C760 1.234 . S
C741 O715 1.269 . S
C741 O716 1.257 . S
C742 H717 0.930 . S
C742 C745 1.388 . S
C742 C747 1.418 . S
C743 H738 0.930 . S
C743 C746 1.404 . S
C743 C747 1.353 . S
N744 Co709 2.145 . S
N744 C745 1.397 . S
N744 C746 1.334 . S
C745 H726 0.929 . S
C745 C742 1.388 . S
C745 N744 1.397 . S
C746 H727 0.929 . S
C746 C743 1.404 . S
C746 N744 1.334 . S
C747 H739 0.930 . S
C747 C742 1.418 . S
C747 C743 1.353 . S
C748 H718 0.930 . S
C748 N749 1.330 . S
C748 C750 1.446 . S
N749 Co708 2.151 . S
N749 C748 1.330 . S
N749 C753 1.418 . S
C750 H729 0.929 . S
C750 C748 1.446 . S
C750 C751 1.332 . S
C751 H731 0.931 . S
C751 C750 1.332 . S
C751 C752 1.267 . S
C752 H720 0.929 . S
C752 C751 1.267 . S
C752 C753 1.251 . S
C753 H723 0.929 . S
C753 N749 1.418 . S
C753 C752 1.251 . S
C754 H721 0.930 . S
C754 C756 1.406 . S
C754 C759 1.261 . S
C755 H722 0.930 . S
C755 N757 1.325 . S
C755 C758 1.357 . S
C756 H724 0.928 . S
C756 C754 1.406 . S
C756 N757 1.261 . S
N757 Co708 2.214 . S
N757 C755 1.325 . S
N757 C756 1.261 . S
C758 H728 0.931 . S
C758 C755 1.357 . S
C758 C759 1.312 . S
C759 H730 0.930 . S
C759 C754 1.261 . S
C759 C758 1.312 . S
C760 O732 1.214 . S
C760 O740 1.234 . S
C761 H733 0.929 . S
C761 C764 1.391 . S
C761 C766 1.391 . S
C762 H734 0.929 . S
C762 C763 1.390 . S
C762 N765 1.391 . S
C763 H735 0.930 . S
C763 C762 1.390 . S
C763 C764 1.392 . S
C764 H736 0.929 . S
C764 C761 1.391 . S
C764 C763 1.392 . S
N765 Co709 2.257 . S
N765 C762 1.391 . S
N765 C766 1.388 . S
C766 H737 0.930 . S
C766 C761 1.391 . S
C766 N765 1.388 . S
Co767 O769 2.143 . S
Co767 O775 2.074 . S
Co767 O778 2.093 . S
Co767 O791 2.097 . S
Co767 N808 2.151 . S
Co767 N816 2.214 . S
Co768 O769 2.160 . S
Co768 O774 2.058 . S
Co768 O784 2.057 . S
Co768 O799 2.037 . S
Co768 N803 2.145 . S
Co768 N824 2.257 . S
O769 Co767 2.143 . S
O769 Co768 2.160 . S
C770 O771 1.278 . S
C770 O778 1.224 . S
O771 C770 1.278 . S
C772 O773 1.245 . S
C772 O784 1.232 . S
O773 C772 1.245 . S
O774 Co768 2.058 . S
O774 C800 1.269 . S
O775 Co767 2.074 . S
O775 C800 1.257 . S
H776 C801 0.930 . S
H777 C807 0.930 . S
O778 Co767 2.093 . S
O778 C770 1.224 . S
H779 C811 0.929 . S
H780 C813 0.930 . S
H781 C814 0.930 . S
H782 C812 0.929 . S
H783 C815 0.928 . S
O784 Co768 2.057 . S
O784 C772 1.232 . S
H785 C804 0.929 . S
H786 C805 0.929 . S
H787 C817 0.931 . S
H788 C809 0.929 . S
H789 C818 0.930 . S
H790 C810 0.931 . S
O791 Co767 2.097 . S
O791 C819 1.214 . S
H792 C820 0.929 . S
H793 C821 0.929 . S
H794 C822 0.930 . S
H795 C823 0.929 . S
H796 C825 0.930 . S
H797 C802 0.930 . S
H798 C806 0.930 . S
O799 Co768 2.037 . S
O799 C819 1.234 . S
C800 O774 1.269 . S
C800 O775 1.257 . S
C801 H776 0.930 . S
C801 C804 1.388 . S
C801 C806 1.418 . S
C802 H797 0.930 . S
C802 C805 1.404 . S
C802 C806 1.353 . S
N803 Co768 2.145 . S
N803 C804 1.397 . S
N803 C805 1.334 . S
C804 H785 0.929 . S
C804 C801 1.388 . S
C804 N803 1.397 . S
C805 H786 0.929 . S
C805 C802 1.404 . S
C805 N803 1.334 . S
C806 H798 0.930 . S
C806 C801 1.418 . S
C806 C802 1.353 . S
C807 H777 0.930 . S
C807 N808 1.330 . S
C807 C809 1.446 . S
N808 Co767 2.151 . S
N808 C807 1.330 . S
N808 C812 1.418 . S
C809 H788 0.929 . S
C809 C807 1.446 . S
C809 C810 1.332 . S
C810 H790 0.931 . S
C810 C809 1.332 . S
C810 C811 1.267 . S
C811 H779 0.929 . S
C811 C810 1.267 . S
C811 C812 1.251 . S
C812 H782 0.929 . S
C812 N808 1.418 . S
C812 C811 1.251 . S
C813 H780 0.930 . S
C813 C815 1.406 . S
C813 C818 1.261 . S
C814 H781 0.930 . S
C814 N816 1.325 . S
C814 C817 1.357 . S
C815 H783 0.928 . S
C815 C813 1.406 . S
C815 N816 1.261 . S
N816 Co767 2.214 . S
N816 C814 1.325 . S
N816 C815 1.261 . S
C817 H787 0.931 . S
C817 C814 1.357 . S
C817 C818 1.312 . S
C818 H789 0.930 . S
C818 C813 1.261 . S
C818 C817 1.312 . S
C819 O791 1.214 . S
C819 O799 1.234 . S
C820 H792 0.929 . S
C820 C823 1.391 . S
C820 C825 1.391 . S
C821 H793 0.929 . S
C821 C822 1.390 . S
C821 N824 1.391 . S
C822 H794 0.930 . S
C822 C821 1.390 . S
C822 C823 1.392 . S
C823 H795 0.929 . S
C823 C820 1.391 . S
C823 C822 1.392 . S
N824 Co768 2.257 . S
N824 C821 1.391 . S
N824 C825 1.388 . S
C825 H796 0.930 . S
C825 C820 1.391 . S
C825 N824 1.388 . S
Co826 O828 2.143 . S
Co826 O834 2.074 . S
Co826 O837 2.093 . S
Co826 O850 2.097 . S
Co826 N867 2.151 . S
Co826 N875 2.214 . S
Co827 O828 2.160 . S
Co827 O833 2.058 . S
Co827 O843 2.057 . S
Co827 O858 2.037 . S
Co827 N862 2.145 . S
Co827 N883 2.257 . S
O828 Co826 2.143 . S
O828 Co827 2.160 . S
C829 O830 1.278 . S
C829 O837 1.224 . S
O830 C829 1.278 . S
C831 O832 1.245 . S
C831 O843 1.232 . S
O832 C831 1.245 . S
O833 Co827 2.058 . S
O833 C859 1.269 . S
O834 Co826 2.074 . S
O834 C859 1.257 . S
H835 C860 0.930 . S
H836 C866 0.930 . S
O837 Co826 2.093 . S
O837 C829 1.224 . S
H838 C870 0.929 . S
H839 C872 0.930 . S
H840 C873 0.930 . S
H841 C871 0.929 . S
H842 C874 0.928 . S
O843 Co827 2.057 . S
O843 C831 1.232 . S
H844 C863 0.929 . S
H845 C864 0.929 . S
H846 C876 0.931 . S
H847 C868 0.929 . S
H848 C877 0.930 . S
H849 C869 0.931 . S
O850 Co826 2.097 . S
O850 C878 1.214 . S
H851 C879 0.929 . S
H852 C880 0.929 . S
H853 C881 0.930 . S
H854 C882 0.929 . S
H855 C884 0.930 . S
H856 C861 0.930 . S
H857 C865 0.930 . S
O858 Co827 2.037 . S
O858 C878 1.234 . S
C859 O833 1.269 . S
C859 O834 1.257 . S
C860 H835 0.930 . S
C860 C863 1.388 . S
C860 C865 1.418 . S
C861 H856 0.930 . S
C861 C864 1.404 . S
C861 C865 1.353 . S
N862 Co827 2.145 . S
N862 C863 1.397 . S
N862 C864 1.334 . S
C863 H844 0.929 . S
C863 C860 1.388 . S
C863 N862 1.397 . S
C864 H845 0.929 . S
C864 C861 1.404 . S
C864 N862 1.334 . S
C865 H857 0.930 . S
C865 C860 1.418 . S
C865 C861 1.353 . S
C866 H836 0.930 . S
C866 N867 1.330 . S
C866 C868 1.446 . S
N867 Co826 2.151 . S
N867 C866 1.330 . S
N867 C871 1.418 . S
C868 H847 0.929 . S
C868 C866 1.446 . S
C868 C869 1.332 . S
C869 H849 0.931 . S
C869 C868 1.332 . S
C869 C870 1.267 . S
C870 H838 0.929 . S
C870 C869 1.267 . S
C870 C871 1.251 . S
C871 H841 0.929 . S
C871 N867 1.418 . S
C871 C870 1.251 . S
C872 H839 0.930 . S
C872 C874 1.406 . S
C872 C877 1.261 . S
C873 H840 0.930 . S
C873 N875 1.325 . S
C873 C876 1.357 . S
C874 H842 0.928 . S
C874 C872 1.406 . S
C874 N875 1.261 . S
N875 Co826 2.214 . S
N875 C873 1.325 . S
N875 C874 1.261 . S
C876 H846 0.931 . S
C876 C873 1.357 . S
C876 C877 1.312 . S
C877 H848 0.930 . S
C877 C872 1.261 . S
C877 C876 1.312 . S
C878 O850 1.214 . S
C878 O858 1.234 . S
C879 H851 0.929 . S
C879 C882 1.391 . S
C879 C884 1.391 . S
C880 H852 0.929 . S
C880 C881 1.390 . S
C880 N883 1.391 . S
C881 H853 0.930 . S
C881 C880 1.390 . S
C881 C882 1.392 . S
C882 H854 0.929 . S
C882 C879 1.391 . S
C882 C881 1.392 . S
N883 Co827 2.257 . S
N883 C880 1.391 . S
N883 C884 1.388 . S
C884 H855 0.930 . S
C884 C879 1.391 . S
C884 N883 1.388 . S
Co885 O887 2.143 . S
Co885 O893 2.074 . S
Co885 O896 2.093 . S
Co885 O909 2.097 . S
Co885 N926 2.151 . S
Co885 N934 2.214 . S
Co886 O887 2.160 . S
Co886 O892 2.058 . S
Co886 O902 2.057 . S
Co886 O917 2.037 . S
Co886 N921 2.145 . S
Co886 N942 2.257 . S
O887 Co885 2.143 . S
O887 Co886 2.160 . S
C888 O889 1.278 . S
C888 O896 1.224 . S
O889 C888 1.278 . S
C890 O891 1.245 . S
C890 O902 1.232 . S
O891 C890 1.245 . S
O892 Co886 2.058 . S
O892 C918 1.269 . S
O893 Co885 2.074 . S
O893 C918 1.257 . S
H894 C919 0.930 . S
H895 C925 0.930 . S
O896 Co885 2.093 . S
O896 C888 1.224 . S
H897 C929 0.929 . S
H898 C931 0.930 . S
H899 C932 0.930 . S
H900 C930 0.929 . S
H901 C933 0.928 . S
O902 Co886 2.057 . S
O902 C890 1.232 . S
H903 C922 0.929 . S
H904 C923 0.929 . S
H905 C935 0.931 . S
H906 C927 0.929 . S
H907 C936 0.930 . S
H908 C928 0.931 . S
O909 Co885 2.097 . S
O909 C937 1.214 . S
H910 C938 0.929 . S
H911 C939 0.929 . S
H912 C940 0.930 . S
H913 C941 0.929 . S
H914 C943 0.930 . S
H915 C920 0.930 . S
H916 C924 0.930 . S
O917 Co886 2.037 . S
O917 C937 1.234 . S
C918 O892 1.269 . S
C918 O893 1.257 . S
C919 H894 0.930 . S
C919 C922 1.388 . S
C919 C924 1.418 . S
C920 H915 0.930 . S
C920 C923 1.404 . S
C920 C924 1.353 . S
N921 Co886 2.145 . S
N921 C922 1.397 . S
N921 C923 1.334 . S
C922 H903 0.929 . S
C922 C919 1.388 . S
C922 N921 1.397 . S
C923 H904 0.929 . S
C923 C920 1.404 . S
C923 N921 1.334 . S
C924 H916 0.930 . S
C924 C919 1.418 . S
C924 C920 1.353 . S
C925 H895 0.930 . S
C925 N926 1.330 . S
C925 C927 1.446 . S
N926 Co885 2.151 . S
N926 C925 1.330 . S
N926 C930 1.418 . S
C927 H906 0.929 . S
C927 C925 1.446 . S
C927 C928 1.332 . S
C928 H908 0.931 . S
C928 C927 1.332 . S
C928 C929 1.267 . S
C929 H897 0.929 . S
C929 C928 1.267 . S
C929 C930 1.251 . S
C930 H900 0.929 . S
C930 N926 1.418 . S
C930 C929 1.251 . S
C931 H898 0.930 . S
C931 C933 1.406 . S
C931 C936 1.261 . S
C932 H899 0.930 . S
C932 N934 1.325 . S
C932 C935 1.357 . S
C933 H901 0.928 . S
C933 C931 1.406 . S
C933 N934 1.261 . S
N934 Co885 2.214 . S
N934 C932 1.325 . S
N934 C933 1.261 . S
C935 H905 0.931 . S
C935 C932 1.357 . S
C935 C936 1.312 . S
C936 H907 0.930 . S
C936 C931 1.261 . S
C936 C935 1.312 . S
C937 O909 1.214 . S
C937 O917 1.234 . S
C938 H910 0.929 . S
C938 C941 1.391 . S
C938 C943 1.391 . S
C939 H911 0.929 . S
C939 C940 1.390 . S
C939 N942 1.391 . S
C940 H912 0.930 . S
C940 C939 1.390 . S
C940 C941 1.392 . S
C941 H913 0.929 . S
C941 C938 1.391 . S
C941 C940 1.392 . S
N942 Co886 2.257 . S
N942 C939 1.391 . S
N942 C943 1.388 . S
C943 H914 0.930 . S
C943 C938 1.391 . S
C943 N942 1.388 . S
Co944 O946 2.143 . S
Co944 O952 2.074 . S
Co944 O955 2.093 . S
Co944 O968 2.097 . S
Co944 N985 2.151 . S
Co944 N993 2.214 . S
Co945 O946 2.160 . S
Co945 O951 2.058 . S
Co945 O961 2.057 . S
Co945 O976 2.037 . S
Co945 N980 2.145 . S
Co945 N1001 2.257 . S
O946 Co944 2.143 . S
O946 Co945 2.160 . S
C947 O948 1.278 . S
C947 O955 1.224 . S
O948 C947 1.278 . S
C949 O950 1.245 . S
C949 O961 1.232 . S
O950 C949 1.245 . S
O951 Co945 2.058 . S
O951 C977 1.269 . S
O952 Co944 2.074 . S
O952 C977 1.257 . S
H953 C978 0.930 . S
H954 C984 0.930 . S
O955 Co944 2.093 . S
O955 C947 1.224 . S
H956 C988 0.929 . S
H957 C990 0.930 . S
H958 C991 0.930 . S
H959 C989 0.929 . S
H960 C992 0.928 . S
O961 Co945 2.057 . S
O961 C949 1.232 . S
H962 C981 0.929 . S
H963 C982 0.929 . S
H964 C994 0.931 . S
H965 C986 0.929 . S
H966 C995 0.930 . S
H967 C987 0.931 . S
O968 Co944 2.097 . S
O968 C996 1.214 . S
H969 C997 0.929 . S
H970 C998 0.929 . S
H971 C999 0.930 . S
H972 C1000 0.929 . S
H973 C1002 0.930 . S
H974 C979 0.930 . S
H975 C983 0.930 . S
O976 Co945 2.037 . S
O976 C996 1.234 . S
C977 O951 1.269 . S
C977 O952 1.257 . S
C978 H953 0.930 . S
C978 C981 1.388 . S
C978 C983 1.418 . S
C979 H974 0.930 . S
C979 C982 1.404 . S
C979 C983 1.353 . S
N980 Co945 2.145 . S
N980 C981 1.397 . S
N980 C982 1.334 . S
C981 H962 0.929 . S
C981 C978 1.388 . S
C981 N980 1.397 . S
C982 H963 0.929 . S
C982 C979 1.404 . S
C982 N980 1.334 . S
C983 H975 0.930 . S
C983 C978 1.418 . S
C983 C979 1.353 . S
C984 H954 0.930 . S
C984 N985 1.330 . S
C984 C986 1.446 . S
N985 Co944 2.151 . S
N985 C984 1.330 . S
N985 C989 1.418 . S
C986 H965 0.929 . S
C986 C984 1.446 . S
C986 C987 1.332 . S
C987 H967 0.931 . S
C987 C986 1.332 . S
C987 C988 1.267 . S
C988 H956 0.929 . S
C988 C987 1.267 . S
C988 C989 1.251 . S
C989 H959 0.929 . S
C989 N985 1.418 . S
C989 C988 1.251 . S
C990 H957 0.930 . S
C990 C992 1.406 . S
C990 C995 1.261 . S
C991 H958 0.930 . S
C991 N993 1.325 . S
C991 C994 1.357 . S
C992 H960 0.928 . S
C992 C990 1.406 . S
C992 N993 1.261 . S
N993 Co944 2.214 . S
N993 C991 1.325 . S
N993 C992 1.261 . S
C994 H964 0.931 . S
C994 C991 1.357 . S
C994 C995 1.312 . S
C995 H966 0.930 . S
C995 C990 1.261 . S
C995 C994 1.312 . S
C996 O968 1.214 . S
C996 O976 1.234 . S
C997 H969 0.929 . S
C997 C1000 1.391 . S
C997 C1002 1.391 . S
C998 H970 0.929 . S
C998 C999 1.390 . S
C998 N1001 1.391 . S
C999 H971 0.930 . S
C999 C998 1.390 . S
C999 C1000 1.392 . S
C1000 H972 0.929 . S
C1000 C997 1.391 . S
C1000 C999 1.392 . S
N1001 Co945 2.257 . S
N1001 C998 1.391 . S
N1001 C1002 1.388 . S
C1002 H973 0.930 . S
C1002 C997 1.391 . S
C1002 N1001 1.388 . S
Co1003 O1005 2.143 . S
Co1003 O1011 2.074 . S
Co1003 O1014 2.093 . S
Co1003 O1027 2.097 . S
Co1003 N1044 2.151 . S
Co1003 N1052 2.214 . S
Co1004 O1005 2.160 . S
Co1004 O1010 2.058 . S
Co1004 O1020 2.057 . S
Co1004 O1035 2.037 . S
Co1004 N1039 2.145 . S
Co1004 N1060 2.257 . S
O1005 Co1003 2.143 . S
O1005 Co1004 2.160 . S
C1006 O1007 1.278 . S
C1006 O1014 1.224 . S
O1007 C1006 1.278 . S
C1008 O1009 1.245 . S
C1008 O1020 1.232 . S
O1009 C1008 1.245 . S
O1010 Co1004 2.058 . S
O1010 C1036 1.269 . S
O1011 Co1003 2.074 . S
O1011 C1036 1.257 . S
H1012 C1037 0.930 . S
H1013 C1043 0.930 . S
O1014 Co1003 2.093 . S
O1014 C1006 1.224 . S
H1015 C1047 0.929 . S
H1016 C1049 0.930 . S
H1017 C1050 0.930 . S
H1018 C1048 0.929 . S
H1019 C1051 0.928 . S
O1020 Co1004 2.057 . S
O1020 C1008 1.232 . S
H1021 C1040 0.929 . S
H1022 C1041 0.929 . S
H1023 C1053 0.931 . S
H1024 C1045 0.929 . S
H1025 C1054 0.930 . S
H1026 C1046 0.931 . S
O1027 Co1003 2.097 . S
O1027 C1055 1.214 . S
H1028 C1056 0.929 . S
H1029 C1057 0.929 . S
H1030 C1058 0.930 . S
H1031 C1059 0.929 . S
H1032 C1061 0.930 . S
H1033 C1038 0.930 . S
H1034 C1042 0.930 . S
O1035 Co1004 2.037 . S
O1035 C1055 1.234 . S
C1036 O1010 1.269 . S
C1036 O1011 1.257 . S
C1037 H1012 0.930 . S
C1037 C1040 1.388 . S
C1037 C1042 1.418 . S
C1038 H1033 0.930 . S
C1038 C1041 1.404 . S
C1038 C1042 1.353 . S
N1039 Co1004 2.145 . S
N1039 C1040 1.397 . S
N1039 C1041 1.334 . S
C1040 H1021 0.929 . S
C1040 C1037 1.388 . S
C1040 N1039 1.397 . S
C1041 H1022 0.929 . S
C1041 C1038 1.404 . S
C1041 N1039 1.334 . S
C1042 H1034 0.930 . S
C1042 C1037 1.418 . S
C1042 C1038 1.353 . S
C1043 H1013 0.930 . S
C1043 N1044 1.330 . S
C1043 C1045 1.446 . S
N1044 Co1003 2.151 . S
N1044 C1043 1.330 . S
N1044 C1048 1.418 . S
C1045 H1024 0.929 . S
C1045 C1043 1.446 . S
C1045 C1046 1.332 . S
C1046 H1026 0.931 . S
C1046 C1045 1.332 . S
C1046 C1047 1.267 . S
C1047 H1015 0.929 . S
C1047 C1046 1.267 . S
C1047 C1048 1.251 . S
C1048 H1018 0.929 . S
C1048 N1044 1.418 . S
C1048 C1047 1.251 . S
C1049 H1016 0.930 . S
C1049 C1051 1.406 . S
C1049 C1054 1.261 . S
C1050 H1017 0.930 . S
C1050 N1052 1.325 . S
C1050 C1053 1.357 . S
C1051 H1019 0.928 . S
C1051 C1049 1.406 . S
C1051 N1052 1.261 . S
N1052 Co1003 2.214 . S
N1052 C1050 1.325 . S
N1052 C1051 1.261 . S
C1053 H1023 0.931 . S
C1053 C1050 1.357 . S
C1053 C1054 1.312 . S
C1054 H1025 0.930 . S
C1054 C1049 1.261 . S
C1054 C1053 1.312 . S
C1055 O1027 1.214 . S
C1055 O1035 1.234 . S
C1056 H1028 0.929 . S
C1056 C1059 1.391 . S
C1056 C1061 1.391 . S
C1057 H1029 0.929 . S
C1057 C1058 1.390 . S
C1057 N1060 1.391 . S
C1058 H1030 0.930 . S
C1058 C1057 1.390 . S
C1058 C1059 1.392 . S
C1059 H1031 0.929 . S
C1059 C1056 1.391 . S
C1059 C1058 1.392 . S
N1060 Co1004 2.257 . S
N1060 C1057 1.391 . S
N1060 C1061 1.388 . S
C1061 H1032 0.930 . S
C1061 C1056 1.391 . S
C1061 N1060 1.388 . S
Co1062 O1064 2.143 . S
Co1062 O1070 2.074 . S
Co1062 O1073 2.093 . S
Co1062 O1086 2.097 . S
Co1062 N1103 2.151 . S
Co1062 N1111 2.214 . S
Co1063 O1064 2.160 . S
Co1063 O1069 2.058 . S
Co1063 O1079 2.057 . S
Co1063 O1094 2.037 . S
Co1063 N1098 2.145 . S
Co1063 N1119 2.257 . S
O1064 Co1062 2.143 . S
O1064 Co1063 2.160 . S
C1065 O1066 1.278 . S
C1065 O1073 1.224 . S
O1066 C1065 1.278 . S
C1067 O1068 1.245 . S
C1067 O1079 1.232 . S
O1068 C1067 1.245 . S
O1069 Co1063 2.058 . S
O1069 C1095 1.269 . S
O1070 Co1062 2.074 . S
O1070 C1095 1.257 . S
H1071 C1096 0.930 . S
H1072 C1102 0.930 . S
O1073 Co1062 2.093 . S
O1073 C1065 1.224 . S
H1074 C1106 0.929 . S
H1075 C1108 0.930 . S
H1076 C1109 0.930 . S
H1077 C1107 0.929 . S
H1078 C1110 0.928 . S
O1079 Co1063 2.057 . S
O1079 C1067 1.232 . S
H1080 C1099 0.929 . S
H1081 C1100 0.929 . S
H1082 C1112 0.931 . S
H1083 C1104 0.929 . S
H1084 C1113 0.930 . S
H1085 C1105 0.931 . S
O1086 Co1062 2.097 . S
O1086 C1114 1.214 . S
H1087 C1115 0.929 . S
H1088 C1116 0.929 . S
H1089 C1117 0.930 . S
H1090 C1118 0.929 . S
H1091 C1120 0.930 . S
H1092 C1097 0.930 . S
H1093 C1101 0.930 . S
O1094 Co1063 2.037 . S
O1094 C1114 1.234 . S
C1095 O1069 1.269 . S
C1095 O1070 1.257 . S
C1096 H1071 0.930 . S
C1096 C1099 1.388 . S
C1096 C1101 1.418 . S
C1097 H1092 0.930 . S
C1097 C1100 1.404 . S
C1097 C1101 1.353 . S
N1098 Co1063 2.145 . S
N1098 C1099 1.397 . S
N1098 C1100 1.334 . S
C1099 H1080 0.929 . S
C1099 C1096 1.388 . S
C1099 N1098 1.397 . S
C1100 H1081 0.929 . S
C1100 C1097 1.404 . S
C1100 N1098 1.334 . S
C1101 H1093 0.930 . S
C1101 C1096 1.418 . S
C1101 C1097 1.353 . S
C1102 H1072 0.930 . S
C1102 N1103 1.330 . S
C1102 C1104 1.446 . S
N1103 Co1062 2.151 . S
N1103 C1102 1.330 . S
N1103 C1107 1.418 . S
C1104 H1083 0.929 . S
C1104 C1102 1.446 . S
C1104 C1105 1.332 . S
C1105 H1085 0.931 . S
C1105 C1104 1.332 . S
C1105 C1106 1.267 . S
C1106 H1074 0.929 . S
C1106 C1105 1.267 . S
C1106 C1107 1.251 . S
C1107 H1077 0.929 . S
C1107 N1103 1.418 . S
C1107 C1106 1.251 . S
C1108 H1075 0.930 . S
C1108 C1110 1.406 . S
C1108 C1113 1.261 . S
C1109 H1076 0.930 . S
C1109 N1111 1.325 . S
C1109 C1112 1.357 . S
C1110 H1078 0.928 . S
C1110 C1108 1.406 . S
C1110 N1111 1.261 . S
N1111 Co1062 2.214 . S
N1111 C1109 1.325 . S
N1111 C1110 1.261 . S
C1112 H1082 0.931 . S
C1112 C1109 1.357 . S
C1112 C1113 1.312 . S
C1113 H1084 0.930 . S
C1113 C1108 1.261 . S
C1113 C1112 1.312 . S
C1114 O1086 1.214 . S
C1114 O1094 1.234 . S
C1115 H1087 0.929 . S
C1115 C1118 1.391 . S
C1115 C1120 1.391 . S
C1116 H1088 0.929 . S
C1116 C1117 1.390 . S
C1116 N1119 1.391 . S
C1117 H1089 0.930 . S
C1117 C1116 1.390 . S
C1117 C1118 1.392 . S
C1118 H1090 0.929 . S
C1118 C1115 1.391 . S
C1118 C1117 1.392 . S
N1119 Co1063 2.257 . S
N1119 C1116 1.391 . S
N1119 C1120 1.388 . S
C1120 H1091 0.930 . S
C1120 C1115 1.391 . S
C1120 N1119 1.388 . S
Co1121 O1123 2.143 . S
Co1121 O1129 2.074 . S
Co1121 O1132 2.093 . S
Co1121 O1145 2.097 . S
Co1121 N1162 2.151 . S
Co1121 N1170 2.214 . S
Co1122 O1123 2.160 . S
Co1122 O1128 2.058 . S
Co1122 O1138 2.057 . S
Co1122 O1153 2.037 . S
Co1122 N1157 2.145 . S
Co1122 N1178 2.257 . S
O1123 Co1121 2.143 . S
O1123 Co1122 2.160 . S
C1124 O1125 1.278 . S
C1124 O1132 1.224 . S
O1125 C1124 1.278 . S
C1126 O1127 1.245 . S
C1126 O1138 1.232 . S
O1127 C1126 1.245 . S
O1128 Co1122 2.058 . S
O1128 C1154 1.269 . S
O1129 Co1121 2.074 . S
O1129 C1154 1.257 . S
H1130 C1155 0.930 . S
H1131 C1161 0.930 . S
O1132 Co1121 2.093 . S
O1132 C1124 1.224 . S
H1133 C1165 0.929 . S
H1134 C1167 0.930 . S
H1135 C1168 0.930 . S
H1136 C1166 0.929 . S
H1137 C1169 0.928 . S
O1138 Co1122 2.057 . S
O1138 C1126 1.232 . S
H1139 C1158 0.929 . S
H1140 C1159 0.929 . S
H1141 C1171 0.931 . S
H1142 C1163 0.929 . S
H1143 C1172 0.930 . S
H1144 C1164 0.931 . S
O1145 Co1121 2.097 . S
O1145 C1173 1.214 . S
H1146 C1174 0.929 . S
H1147 C1175 0.929 . S
H1148 C1176 0.930 . S
H1149 C1177 0.929 . S
H1150 C1179 0.930 . S
H1151 C1156 0.930 . S
H1152 C1160 0.930 . S
O1153 Co1122 2.037 . S
O1153 C1173 1.234 . S
C1154 O1128 1.269 . S
C1154 O1129 1.257 . S
C1155 H1130 0.930 . S
C1155 C1158 1.388 . S
C1155 C1160 1.418 . S
C1156 H1151 0.930 . S
C1156 C1159 1.404 . S
C1156 C1160 1.353 . S
N1157 Co1122 2.145 . S
N1157 C1158 1.397 . S
N1157 C1159 1.334 . S
C1158 H1139 0.929 . S
C1158 C1155 1.388 . S
C1158 N1157 1.397 . S
C1159 H1140 0.929 . S
C1159 C1156 1.404 . S
C1159 N1157 1.334 . S
C1160 H1152 0.930 . S
C1160 C1155 1.418 . S
C1160 C1156 1.353 . S
C1161 H1131 0.930 . S
C1161 N1162 1.330 . S
C1161 C1163 1.446 . S
N1162 Co1121 2.151 . S
N1162 C1161 1.330 . S
N1162 C1166 1.418 . S
C1163 H1142 0.929 . S
C1163 C1161 1.446 . S
C1163 C1164 1.332 . S
C1164 H1144 0.931 . S
C1164 C1163 1.332 . S
C1164 C1165 1.267 . S
C1165 H1133 0.929 . S
C1165 C1164 1.267 . S
C1165 C1166 1.251 . S
C1166 H1136 0.929 . S
C1166 N1162 1.418 . S
C1166 C1165 1.251 . S
C1167 H1134 0.930 . S
C1167 C1169 1.406 . S
C1167 C1172 1.261 . S
C1168 H1135 0.930 . S
C1168 N1170 1.325 . S
C1168 C1171 1.357 . S
C1169 H1137 0.928 . S
C1169 C1167 1.406 . S
C1169 N1170 1.261 . S
N1170 Co1121 2.214 . S
N1170 C1168 1.325 . S
N1170 C1169 1.261 . S
C1171 H1141 0.931 . S
C1171 C1168 1.357 . S
C1171 C1172 1.312 . S
C1172 H1143 0.930 . S
C1172 C1167 1.261 . S
C1172 C1171 1.312 . S
C1173 O1145 1.214 . S
C1173 O1153 1.234 . S
C1174 H1146 0.929 . S
C1174 C1177 1.391 . S
C1174 C1179 1.391 . S
C1175 H1147 0.929 . S
C1175 C1176 1.390 . S
C1175 N1178 1.391 . S
C1176 H1148 0.930 . S
C1176 C1175 1.390 . S
C1176 C1177 1.392 . S
C1177 H1149 0.929 . S
C1177 C1174 1.391 . S
C1177 C1176 1.392 . S
N1178 Co1122 2.257 . S
N1178 C1175 1.391 . S
N1178 C1179 1.388 . S
C1179 H1150 0.930 . S
C1179 C1174 1.391 . S
C1179 N1178 1.388 . S
Co1180 O1182 2.143 . S
Co1180 O1188 2.074 . S
Co1180 O1191 2.093 . S
Co1180 O1204 2.097 . S
Co1180 N1221 2.151 . S
Co1180 N1229 2.214 . S
Co1181 O1182 2.160 . S
Co1181 O1187 2.058 . S
Co1181 O1197 2.057 . S
Co1181 O1212 2.037 . S
Co1181 N1216 2.145 . S
Co1181 N1237 2.257 . S
O1182 Co1180 2.143 . S
O1182 Co1181 2.160 . S
C1183 O1184 1.278 . S
C1183 O1191 1.224 . S
O1184 C1183 1.278 . S
C1185 O1186 1.245 . S
C1185 O1197 1.232 . S
O1186 C1185 1.245 . S
O1187 Co1181 2.058 . S
O1187 C1213 1.269 . S
O1188 Co1180 2.074 . S
O1188 C1213 1.257 . S
H1189 C1214 0.930 . S
H1190 C1220 0.930 . S
O1191 Co1180 2.093 . S
O1191 C1183 1.224 . S
H1192 C1224 0.929 . S
H1193 C1226 0.930 . S
H1194 C1227 0.930 . S
H1195 C1225 0.929 . S
H1196 C1228 0.928 . S
O1197 Co1181 2.057 . S
O1197 C1185 1.232 . S
H1198 C1217 0.929 . S
H1199 C1218 0.929 . S
H1200 C1230 0.931 . S
H1201 C1222 0.929 . S
H1202 C1231 0.930 . S
H1203 C1223 0.931 . S
O1204 Co1180 2.097 . S
O1204 C1232 1.214 . S
H1205 C1233 0.929 . S
H1206 C1234 0.929 . S
H1207 C1235 0.930 . S
H1208 C1236 0.929 . S
H1209 C1238 0.930 . S
H1210 C1215 0.930 . S
H1211 C1219 0.930 . S
O1212 Co1181 2.037 . S
O1212 C1232 1.234 . S
C1213 O1187 1.269 . S
C1213 O1188 1.257 . S
C1214 H1189 0.930 . S
C1214 C1217 1.388 . S
C1214 C1219 1.418 . S
C1215 H1210 0.930 . S
C1215 C1218 1.404 . S
C1215 C1219 1.353 . S
N1216 Co1181 2.145 . S
N1216 C1217 1.397 . S
N1216 C1218 1.334 . S
C1217 H1198 0.929 . S
C1217 C1214 1.388 . S
C1217 N1216 1.397 . S
C1218 H1199 0.929 . S
C1218 C1215 1.404 . S
C1218 N1216 1.334 . S
C1219 H1211 0.930 . S
C1219 C1214 1.418 . S
C1219 C1215 1.353 . S
C1220 H1190 0.930 . S
C1220 N1221 1.330 . S
C1220 C1222 1.446 . S
N1221 Co1180 2.151 . S
N1221 C1220 1.330 . S
N1221 C1225 1.418 . S
C1222 H1201 0.929 . S
C1222 C1220 1.446 . S
C1222 C1223 1.332 . S
C1223 H1203 0.931 . S
C1223 C1222 1.332 . S
C1223 C1224 1.267 . S
C1224 H1192 0.929 . S
C1224 C1223 1.267 . S
C1224 C1225 1.251 . S
C1225 H1195 0.929 . S
C1225 N1221 1.418 . S
C1225 C1224 1.251 . S
C1226 H1193 0.930 . S
C1226 C1228 1.406 . S
C1226 C1231 1.261 . S
C1227 H1194 0.930 . S
C1227 N1229 1.325 . S
C1227 C1230 1.357 . S
C1228 H1196 0.928 . S
C1228 C1226 1.406 . S
C1228 N1229 1.261 . S
N1229 Co1180 2.214 . S
N1229 C1227 1.325 . S
N1229 C1228 1.261 . S
C1230 H1200 0.931 . S
C1230 C1227 1.357 . S
C1230 C1231 1.312 . S
C1231 H1202 0.930 . S
C1231 C1226 1.261 . S
C1231 C1230 1.312 . S
C1232 O1204 1.214 . S
C1232 O1212 1.234 . S
C1233 H1205 0.929 . S
C1233 C1236 1.391 . S
C1233 C1238 1.391 . S
C1234 H1206 0.929 . S
C1234 C1235 1.390 . S
C1234 N1237 1.391 . S
C1235 H1207 0.930 . S
C1235 C1234 1.390 . S
C1235 C1236 1.392 . S
C1236 H1208 0.929 . S
C1236 C1233 1.391 . S
C1236 C1235 1.392 . S
N1237 Co1181 2.257 . S
N1237 C1234 1.391 . S
N1237 C1238 1.388 . S
C1238 H1209 0.930 . S
C1238 C1233 1.391 . S
C1238 N1237 1.388 . S
Co1239 O1241 2.143 . S
Co1239 O1247 2.074 . S
Co1239 O1250 2.093 . S
Co1239 O1263 2.097 . S
Co1239 N1280 2.151 . S
Co1239 N1288 2.214 . S
Co1240 O1241 2.160 . S
Co1240 O1246 2.058 . S
Co1240 O1256 2.057 . S
Co1240 O1271 2.037 . S
Co1240 N1275 2.145 . S
Co1240 N1296 2.257 . S
O1241 Co1239 2.143 . S
O1241 Co1240 2.160 . S
C1242 O1243 1.278 . S
C1242 O1250 1.224 . S
O1243 C1242 1.278 . S
C1244 O1245 1.245 . S
C1244 O1256 1.232 . S
O1245 C1244 1.245 . S
O1246 Co1240 2.058 . S
O1246 C1272 1.269 . S
O1247 Co1239 2.074 . S
O1247 C1272 1.257 . S
H1248 C1273 0.930 . S
H1249 C1279 0.930 . S
O1250 Co1239 2.093 . S
O1250 C1242 1.224 . S
H1251 C1283 0.929 . S
H1252 C1285 0.930 . S
H1253 C1286 0.930 . S
H1254 C1284 0.929 . S
H1255 C1287 0.928 . S
O1256 Co1240 2.057 . S
O1256 C1244 1.232 . S
H1257 C1276 0.929 . S
H1258 C1277 0.929 . S
H1259 C1289 0.931 . S
H1260 C1281 0.929 . S
H1261 C1290 0.930 . S
H1262 C1282 0.931 . S
O1263 Co1239 2.097 . S
O1263 C1291 1.214 . S
H1264 C1292 0.929 . S
H1265 C1293 0.929 . S
H1266 C1294 0.930 . S
H1267 C1295 0.929 . S
H1268 C1297 0.930 . S
H1269 C1274 0.930 . S
H1270 C1278 0.930 . S
O1271 Co1240 2.037 . S
O1271 C1291 1.234 . S
C1272 O1246 1.269 . S
C1272 O1247 1.257 . S
C1273 H1248 0.930 . S
C1273 C1276 1.388 . S
C1273 C1278 1.418 . S
C1274 H1269 0.930 . S
C1274 C1277 1.404 . S
C1274 C1278 1.353 . S
N1275 Co1240 2.145 . S
N1275 C1276 1.397 . S
N1275 C1277 1.334 . S
C1276 H1257 0.929 . S
C1276 C1273 1.388 . S
C1276 N1275 1.397 . S
C1277 H1258 0.929 . S
C1277 C1274 1.404 . S
C1277 N1275 1.334 . S
C1278 H1270 0.930 . S
C1278 C1273 1.418 . S
C1278 C1274 1.353 . S
C1279 H1249 0.930 . S
C1279 N1280 1.330 . S
C1279 C1281 1.446 . S
N1280 Co1239 2.151 . S
N1280 C1279 1.330 . S
N1280 C1284 1.418 . S
C1281 H1260 0.929 . S
C1281 C1279 1.446 . S
C1281 C1282 1.332 . S
C1282 H1262 0.931 . S
C1282 C1281 1.332 . S
C1282 C1283 1.267 . S
C1283 H1251 0.929 . S
C1283 C1282 1.267 . S
C1283 C1284 1.251 . S
C1284 H1254 0.929 . S
C1284 N1280 1.418 . S
C1284 C1283 1.251 . S
C1285 H1252 0.930 . S
C1285 C1287 1.406 . S
C1285 C1290 1.261 . S
C1286 H1253 0.930 . S
C1286 N1288 1.325 . S
C1286 C1289 1.357 . S
C1287 H1255 0.928 . S
C1287 C1285 1.406 . S
C1287 N1288 1.261 . S
N1288 Co1239 2.214 . S
N1288 C1286 1.325 . S
N1288 C1287 1.261 . S
C1289 H1259 0.931 . S
C1289 C1286 1.357 . S
C1289 C1290 1.312 . S
C1290 H1261 0.930 . S
C1290 C1285 1.261 . S
C1290 C1289 1.312 . S
C1291 O1263 1.214 . S
C1291 O1271 1.234 . S
C1292 H1264 0.929 . S
C1292 C1295 1.391 . S
C1292 C1297 1.391 . S
C1293 H1265 0.929 . S
C1293 C1294 1.390 . S
C1293 N1296 1.391 . S
C1294 H1266 0.930 . S
C1294 C1293 1.390 . S
C1294 C1295 1.392 . S
C1295 H1267 0.929 . S
C1295 C1292 1.391 . S
C1295 C1294 1.392 . S
N1296 Co1240 2.257 . S
N1296 C1293 1.391 . S
N1296 C1297 1.388 . S
C1297 H1268 0.930 . S
C1297 C1292 1.391 . S
C1297 N1296 1.388 . S
Co1298 O1300 2.143 . S
Co1298 O1306 2.074 . S
Co1298 O1309 2.093 . S
Co1298 O1322 2.097 . S
Co1298 N1339 2.151 . S
Co1298 N1347 2.214 . S
Co1299 O1300 2.160 . S
Co1299 O1305 2.058 . S
Co1299 O1315 2.057 . S
Co1299 O1330 2.037 . S
Co1299 N1334 2.145 . S
Co1299 N1355 2.257 . S
O1300 Co1298 2.143 . S
O1300 Co1299 2.160 . S
C1301 O1302 1.278 . S
C1301 O1309 1.224 . S
O1302 C1301 1.278 . S
C1303 O1304 1.245 . S
C1303 O1315 1.232 . S
O1304 C1303 1.245 . S
O1305 Co1299 2.058 . S
O1305 C1331 1.269 . S
O1306 Co1298 2.074 . S
O1306 C1331 1.257 . S
H1307 C1332 0.930 . S
H1308 C1338 0.930 . S
O1309 Co1298 2.093 . S
O1309 C1301 1.224 . S
H1310 C1342 0.929 . S
H1311 C1344 0.930 . S
H1312 C1345 0.930 . S
H1313 C1343 0.929 . S
H1314 C1346 0.928 . S
O1315 Co1299 2.057 . S
O1315 C1303 1.232 . S
H1316 C1335 0.929 . S
H1317 C1336 0.929 . S
H1318 C1348 0.931 . S
H1319 C1340 0.929 . S
H1320 C1349 0.930 . S
H1321 C1341 0.931 . S
O1322 Co1298 2.097 . S
O1322 C1350 1.214 . S
H1323 C1351 0.929 . S
H1324 C1352 0.929 . S
H1325 C1353 0.930 . S
H1326 C1354 0.929 . S
H1327 C1356 0.930 . S
H1328 C1333 0.930 . S
H1329 C1337 0.930 . S
O1330 Co1299 2.037 . S
O1330 C1350 1.234 . S
C1331 O1305 1.269 . S
C1331 O1306 1.257 . S
C1332 H1307 0.930 . S
C1332 C1335 1.388 . S
C1332 C1337 1.418 . S
C1333 H1328 0.930 . S
C1333 C1336 1.404 . S
C1333 C1337 1.353 . S
N1334 Co1299 2.145 . S
N1334 C1335 1.397 . S
N1334 C1336 1.334 . S
C1335 H1316 0.929 . S
C1335 C1332 1.388 . S
C1335 N1334 1.397 . S
C1336 H1317 0.929 . S
C1336 C1333 1.404 . S
C1336 N1334 1.334 . S
C1337 H1329 0.930 . S
C1337 C1332 1.418 . S
C1337 C1333 1.353 . S
C1338 H1308 0.930 . S
C1338 N1339 1.330 . S
C1338 C1340 1.446 . S
N1339 Co1298 2.151 . S
N1339 C1338 1.330 . S
N1339 C1343 1.418 . S
C1340 H1319 0.929 . S
C1340 C1338 1.446 . S
C1340 C1341 1.332 . S
C1341 H1321 0.931 . S
C1341 C1340 1.332 . S
C1341 C1342 1.267 . S
C1342 H1310 0.929 . S
C1342 C1341 1.267 . S
C1342 C1343 1.251 . S
C1343 H1313 0.929 . S
C1343 N1339 1.418 . S
C1343 C1342 1.251 . S
C1344 H1311 0.930 . S
C1344 C1346 1.406 . S
C1344 C1349 1.261 . S
C1345 H1312 0.930 . S
C1345 N1347 1.325 . S
C1345 C1348 1.357 . S
C1346 H1314 0.928 . S
C1346 C1344 1.406 . S
C1346 N1347 1.261 . S
N1347 Co1298 2.214 . S
N1347 C1345 1.325 . S
N1347 C1346 1.261 . S
C1348 H1318 0.931 . S
C1348 C1345 1.357 . S
C1348 C1349 1.312 . S
C1349 H1320 0.930 . S
C1349 C1344 1.261 . S
C1349 C1348 1.312 . S
C1350 O1322 1.214 . S
C1350 O1330 1.234 . S
C1351 H1323 0.929 . S
C1351 C1354 1.391 . S
C1351 C1356 1.391 . S
C1352 H1324 0.929 . S
C1352 C1353 1.390 . S
C1352 N1355 1.391 . S
C1353 H1325 0.930 . S
C1353 C1352 1.390 . S
C1353 C1354 1.392 . S
C1354 H1326 0.929 . S
C1354 C1351 1.391 . S
C1354 C1353 1.392 . S
N1355 Co1299 2.257 . S
N1355 C1352 1.391 . S
N1355 C1356 1.388 . S
C1356 H1327 0.930 . S
C1356 C1351 1.391 . S
C1356 N1355 1.388 . S
Co1357 O1359 2.143 . S
Co1357 O1365 2.074 . S
Co1357 O1368 2.093 . S
Co1357 O1381 2.097 . S
Co1357 N1398 2.151 . S
Co1357 N1406 2.214 . S
Co1358 O1359 2.160 . S
Co1358 O1364 2.058 . S
Co1358 O1374 2.057 . S
Co1358 O1389 2.037 . S
Co1358 N1393 2.145 . S
Co1358 N1414 2.257 . S
O1359 Co1357 2.143 . S
O1359 Co1358 2.160 . S
C1360 O1361 1.278 . S
C1360 O1368 1.224 . S
O1361 C1360 1.278 . S
C1362 O1363 1.245 . S
C1362 O1374 1.232 . S
O1363 C1362 1.245 . S
O1364 Co1358 2.058 . S
O1364 C1390 1.269 . S
O1365 Co1357 2.074 . S
O1365 C1390 1.257 . S
H1366 C1391 0.930 . S
H1367 C1397 0.930 . S
O1368 Co1357 2.093 . S
O1368 C1360 1.224 . S
H1369 C1401 0.929 . S
H1370 C1403 0.930 . S
H1371 C1404 0.930 . S
H1372 C1402 0.929 . S
H1373 C1405 0.928 . S
O1374 Co1358 2.057 . S
O1374 C1362 1.232 . S
H1375 C1394 0.929 . S
H1376 C1395 0.929 . S
H1377 C1407 0.931 . S
H1378 C1399 0.929 . S
H1379 C1408 0.930 . S
H1380 C1400 0.931 . S
O1381 Co1357 2.097 . S
O1381 C1409 1.214 . S
H1382 C1410 0.929 . S
H1383 C1411 0.929 . S
H1384 C1412 0.930 . S
H1385 C1413 0.929 . S
H1386 C1415 0.930 . S
H1387 C1392 0.930 . S
H1388 C1396 0.930 . S
O1389 Co1358 2.037 . S
O1389 C1409 1.234 . S
C1390 O1364 1.269 . S
C1390 O1365 1.257 . S
C1391 H1366 0.930 . S
C1391 C1394 1.388 . S
C1391 C1396 1.418 . S
C1392 H1387 0.930 . S
C1392 C1395 1.404 . S
C1392 C1396 1.353 . S
N1393 Co1358 2.145 . S
N1393 C1394 1.397 . S
N1393 C1395 1.334 . S
C1394 H1375 0.929 . S
C1394 C1391 1.388 . S
C1394 N1393 1.397 . S
C1395 H1376 0.929 . S
C1395 C1392 1.404 . S
C1395 N1393 1.334 . S
C1396 H1388 0.930 . S
C1396 C1391 1.418 . S
C1396 C1392 1.353 . S
C1397 H1367 0.930 . S
C1397 N1398 1.330 . S
C1397 C1399 1.446 . S
N1398 Co1357 2.151 . S
N1398 C1397 1.330 . S
N1398 C1402 1.418 . S
C1399 H1378 0.929 . S
C1399 C1397 1.446 . S
C1399 C1400 1.332 . S
C1400 H1380 0.931 . S
C1400 C1399 1.332 . S
C1400 C1401 1.267 . S
C1401 H1369 0.929 . S
C1401 C1400 1.267 . S
C1401 C1402 1.251 . S
C1402 H1372 0.929 . S
C1402 N1398 1.418 . S
C1402 C1401 1.251 . S
C1403 H1370 0.930 . S
C1403 C1405 1.406 . S
C1403 C1408 1.261 . S
C1404 H1371 0.930 . S
C1404 N1406 1.325 . S
C1404 C1407 1.357 . S
C1405 H1373 0.928 . S
C1405 C1403 1.406 . S
C1405 N1406 1.261 . S
N1406 Co1357 2.214 . S
N1406 C1404 1.325 . S
N1406 C1405 1.261 . S
C1407 H1377 0.931 . S
C1407 C1404 1.357 . S
C1407 C1408 1.312 . S
C1408 H1379 0.930 . S
C1408 C1403 1.261 . S
C1408 C1407 1.312 . S
C1409 O1381 1.214 . S
C1409 O1389 1.234 . S
C1410 H1382 0.929 . S
C1410 C1413 1.391 . S
C1410 C1415 1.391 . S
C1411 H1383 0.929 . S
C1411 C1412 1.390 . S
C1411 N1414 1.391 . S
C1412 H1384 0.930 . S
C1412 C1411 1.390 . S
C1412 C1413 1.392 . S
C1413 H1385 0.929 . S
C1413 C1410 1.391 . S
C1413 C1412 1.392 . S
N1414 Co1358 2.257 . S
N1414 C1411 1.391 . S
N1414 C1415 1.388 . S
C1415 H1386 0.930 . S
C1415 C1410 1.391 . S
C1415 N1414 1.388 . S
H1416 C1422 0.930 . S
H1417 C1425 0.930 . S
H1418 C1426 0.930 . S
H1419 C1427 0.930 . S
H1420 C1430 0.930 . S
H1421 C1431 0.930 . S
C1422 H1416 0.930 . S
C1422 C1423 1.355 . S
C1422 C1424 1.415 . S
C1423 C1422 1.355 . S
C1423 C1425 1.419 . S
C1424 C1422 1.415 . S
C1424 C1429 1.425 . S
C1424 C1431 1.409 . S
C1425 H1417 0.930 . S
C1425 C1423 1.419 . S
C1425 C1426 1.362 . S
C1426 H1418 0.930 . S
C1426 C1425 1.362 . S
C1426 C1429 1.409 . S
C1427 H1419 0.930 . S
C1427 C1428 1.355 . S
C1427 C1429 1.415 . S
C1428 C1427 1.355 . S
C1428 C1430 1.419 . S
C1429 C1424 1.425 . S
C1429 C1426 1.409 . S
C1429 C1427 1.415 . S
C1430 H1420 0.930 . S
C1430 C1428 1.419 . S
C1430 C1431 1.362 . S
C1431 H1421 0.930 . S
C1431 C1424 1.409 . S
C1431 C1430 1.362 . S
H1432 C1438 0.930 . S
H1433 C1441 0.930 . S
H1434 C1442 0.930 . S
H1435 C1443 0.930 . S
H1436 C1446 0.930 . S
H1437 C1447 0.930 . S
C1438 H1432 0.930 . S
C1438 C1439 1.355 . S
C1438 C1440 1.415 . S
C1439 C1438 1.355 . S
C1439 C1441 1.419 . S
C1440 C1438 1.415 . S
C1440 C1445 1.425 . S
C1440 C1447 1.409 . S
C1441 H1433 0.930 . S
C1441 C1439 1.419 . S
C1441 C1442 1.362 . S
C1442 H1434 0.930 . S
C1442 C1441 1.362 . S
C1442 C1445 1.409 . S
C1443 H1435 0.930 . S
C1443 C1444 1.355 . S
C1443 C1445 1.415 . S
C1444 C1443 1.355 . S
C1444 C1446 1.419 . S
C1445 C1440 1.425 . S
C1445 C1442 1.409 . S
C1445 C1443 1.415 . S
C1446 H1436 0.930 . S
C1446 C1444 1.419 . S
C1446 C1447 1.362 . S
C1447 H1437 0.930 . S
C1447 C1440 1.409 . S
C1447 C1446 1.362 . S
H1448 C1454 0.930 . S
H1449 C1457 0.930 . S
H1450 C1458 0.930 . S
H1451 C1459 0.930 . S
H1452 C1462 0.930 . S
H1453 C1463 0.930 . S
C1454 H1448 0.930 . S
C1454 C1455 1.355 . S
C1454 C1456 1.415 . S
C1455 C1454 1.355 . S
C1455 C1457 1.419 . S
C1456 C1454 1.415 . S
C1456 C1461 1.425 . S
C1456 C1463 1.409 . S
C1457 H1449 0.930 . S
C1457 C1455 1.419 . S
C1457 C1458 1.362 . S
C1458 H1450 0.930 . S
C1458 C1457 1.362 . S
C1458 C1461 1.409 . S
C1459 H1451 0.930 . S
C1459 C1460 1.355 . S
C1459 C1461 1.415 . S
C1460 C1459 1.355 . S
C1460 C1462 1.419 . S
C1461 C1456 1.425 . S
C1461 C1458 1.409 . S
C1461 C1459 1.415 . S
C1462 H1452 0.930 . S
C1462 C1460 1.419 . S
C1462 C1463 1.362 . S
C1463 H1453 0.930 . S
C1463 C1456 1.409 . S
C1463 C1462 1.362 . S
H1464 C1470 0.930 . S
H1465 C1473 0.930 . S
H1466 C1474 0.930 . S
H1467 C1475 0.930 . S
H1468 C1478 0.930 . S
H1469 C1479 0.930 . S
C1470 H1464 0.930 . S
C1470 C1471 1.355 . S
C1470 C1472 1.415 . S
C1471 C1470 1.355 . S
C1471 C1473 1.419 . S
C1472 C1470 1.415 . S
C1472 C1477 1.425 . S
C1472 C1479 1.409 . S
C1473 H1465 0.930 . S
C1473 C1471 1.419 . S
C1473 C1474 1.362 . S
C1474 H1466 0.930 . S
C1474 C1473 1.362 . S
C1474 C1477 1.409 . S
C1475 H1467 0.930 . S
C1475 C1476 1.355 . S
C1475 C1477 1.415 . S
C1476 C1475 1.355 . S
C1476 C1478 1.419 . S
C1477 C1472 1.425 . S
C1477 C1474 1.409 . S
C1477 C1475 1.415 . S
C1478 H1468 0.930 . S
C1478 C1476 1.419 . S
C1478 C1479 1.362 . S
C1479 H1469 0.930 . S
C1479 C1472 1.409 . S
C1479 C1478 1.362 . S
H1480 C1486 0.930 . S
H1481 C1489 0.930 . S
H1482 C1490 0.930 . S
H1483 C1491 0.930 . S
H1484 C1494 0.930 . S
H1485 C1495 0.930 . S
C1486 H1480 0.930 . S
C1486 C1487 1.355 . S
C1486 C1488 1.415 . S
C1487 C1486 1.355 . S
C1487 C1489 1.419 . S
C1488 C1486 1.415 . S
C1488 C1493 1.425 . S
C1488 C1495 1.409 . S
C1489 H1481 0.930 . S
C1489 C1487 1.419 . S
C1489 C1490 1.362 . S
C1490 H1482 0.930 . S
C1490 C1489 1.362 . S
C1490 C1493 1.409 . S
C1491 H1483 0.930 . S
C1491 C1492 1.355 . S
C1491 C1493 1.415 . S
C1492 C1491 1.355 . S
C1492 C1494 1.419 . S
C1493 C1488 1.425 . S
C1493 C1490 1.409 . S
C1493 C1491 1.415 . S
C1494 H1484 0.930 . S
C1494 C1492 1.419 . S
C1494 C1495 1.362 . S
C1495 H1485 0.930 . S
C1495 C1488 1.409 . S
C1495 C1494 1.362 . S
H1496 C1502 0.930 . S
H1497 C1505 0.930 . S
H1498 C1506 0.930 . S
H1499 C1507 0.930 . S
H1500 C1510 0.930 . S
H1501 C1511 0.930 . S
C1502 H1496 0.930 . S
C1502 C1503 1.355 . S
C1502 C1504 1.415 . S
C1503 C1502 1.355 . S
C1503 C1505 1.419 . S
C1504 C1502 1.415 . S
C1504 C1509 1.425 . S
C1504 C1511 1.409 . S
C1505 H1497 0.930 . S
C1505 C1503 1.419 . S
C1505 C1506 1.362 . S
C1506 H1498 0.930 . S
C1506 C1505 1.362 . S
C1506 C1509 1.409 . S
C1507 H1499 0.930 . S
C1507 C1508 1.355 . S
C1507 C1509 1.415 . S
C1508 C1507 1.355 . S
C1508 C1510 1.419 . S
C1509 C1504 1.425 . S
C1509 C1506 1.409 . S
C1509 C1507 1.415 . S
C1510 H1500 0.930 . S
C1510 C1508 1.419 . S
C1510 C1511 1.362 . S
C1511 H1501 0.930 . S
C1511 C1504 1.409 . S
C1511 C1510 1.362 . S
H1512 C1518 0.930 . S
H1513 C1521 0.930 . S
H1514 C1522 0.930 . S
H1515 C1523 0.930 . S
H1516 C1526 0.930 . S
H1517 C1527 0.930 . S
C1518 H1512 0.930 . S
C1518 C1519 1.355 . S
C1518 C1520 1.415 . S
C1519 C1518 1.355 . S
C1519 C1521 1.419 . S
C1520 C1518 1.415 . S
C1520 C1525 1.425 . S
C1520 C1527 1.409 . S
C1521 H1513 0.930 . S
C1521 C1519 1.419 . S
C1521 C1522 1.362 . S
C1522 H1514 0.930 . S
C1522 C1521 1.362 . S
C1522 C1525 1.409 . S
C1523 H1515 0.930 . S
C1523 C1524 1.355 . S
C1523 C1525 1.415 . S
C1524 C1523 1.355 . S
C1524 C1526 1.419 . S
C1525 C1520 1.425 . S
C1525 C1522 1.409 . S
C1525 C1523 1.415 . S
C1526 H1516 0.930 . S
C1526 C1524 1.419 . S
C1526 C1527 1.362 . S
C1527 H1517 0.930 . S
C1527 C1520 1.409 . S
C1527 C1526 1.362 . S
H1528 C1534 0.930 . S
H1529 C1537 0.930 . S
H1530 C1538 0.930 . S
H1531 C1539 0.930 . S
H1532 C1542 0.930 . S
H1533 C1543 0.930 . S
C1534 H1528 0.930 . S
C1534 C1535 1.355 . S
C1534 C1536 1.415 . S
C1535 C1534 1.355 . S
C1535 C1537 1.419 . S
C1536 C1534 1.415 . S
C1536 C1541 1.425 . S
C1536 C1543 1.409 . S
C1537 H1529 0.930 . S
C1537 C1535 1.419 . S
C1537 C1538 1.362 . S
C1538 H1530 0.930 . S
C1538 C1537 1.362 . S
C1538 C1541 1.409 . S
C1539 H1531 0.930 . S
C1539 C1540 1.355 . S
C1539 C1541 1.415 . S
C1540 C1539 1.355 . S
C1540 C1542 1.419 . S
C1541 C1536 1.425 . S
C1541 C1538 1.409 . S
C1541 C1539 1.415 . S
C1542 H1532 0.930 . S
C1542 C1540 1.419 . S
C1542 C1543 1.362 . S
C1543 H1533 0.930 . S
C1543 C1536 1.409 . S
C1543 C1542 1.362 . S
H1544 C1550 0.930 . S
H1545 C1553 0.930 . S
H1546 C1554 0.930 . S
H1547 C1555 0.930 . S
H1548 C1558 0.930 . S
H1549 C1559 0.930 . S
C1550 H1544 0.930 . S
C1550 C1551 1.355 . S
C1550 C1552 1.415 . S
C1551 C1550 1.355 . S
C1551 C1553 1.419 . S
C1552 C1550 1.415 . S
C1552 C1557 1.425 . S
C1552 C1559 1.409 . S
C1553 H1545 0.930 . S
C1553 C1551 1.419 . S
C1553 C1554 1.362 . S
C1554 H1546 0.930 . S
C1554 C1553 1.362 . S
C1554 C1557 1.409 . S
C1555 H1547 0.930 . S
C1555 C1556 1.355 . S
C1555 C1557 1.415 . S
C1556 C1555 1.355 . S
C1556 C1558 1.419 . S
C1557 C1552 1.425 . S
C1557 C1554 1.409 . S
C1557 C1555 1.415 . S
C1558 H1548 0.930 . S
C1558 C1556 1.419 . S
C1558 C1559 1.362 . S
C1559 H1549 0.930 . S
C1559 C1552 1.409 . S
C1559 C1558 1.362 . S
H1560 C1566 0.930 . S
H1561 C1569 0.930 . S
H1562 C1570 0.930 . S
H1563 C1571 0.930 . S
H1564 C1574 0.930 . S
H1565 C1575 0.930 . S
C1566 H1560 0.930 . S
C1566 C1567 1.355 . S
C1566 C1568 1.415 . S
C1567 C1566 1.355 . S
C1567 C1569 1.419 . S
C1568 C1566 1.415 . S
C1568 C1573 1.425 . S
C1568 C1575 1.409 . S
C1569 H1561 0.930 . S
C1569 C1567 1.419 . S
C1569 C1570 1.362 . S
C1570 H1562 0.930 . S
C1570 C1569 1.362 . S
C1570 C1573 1.409 . S
C1571 H1563 0.930 . S
C1571 C1572 1.355 . S
C1571 C1573 1.415 . S
C1572 C1571 1.355 . S
C1572 C1574 1.419 . S
C1573 C1568 1.425 . S
C1573 C1570 1.409 . S
C1573 C1571 1.415 . S
C1574 H1564 0.930 . S
C1574 C1572 1.419 . S
C1574 C1575 1.362 . S
C1575 H1565 0.930 . S
C1575 C1568 1.409 . S
C1575 C1574 1.362 . S
H1576 C1582 0.930 . S
H1577 C1585 0.930 . S
H1578 C1586 0.930 . S
H1579 C1587 0.930 . S
H1580 C1590 0.930 . S
H1581 C1591 0.930 . S
C1582 H1576 0.930 . S
C1582 C1583 1.355 . S
C1582 C1584 1.415 . S
C1583 C1582 1.355 . S
C1583 C1585 1.419 . S
C1584 C1582 1.415 . S
C1584 C1589 1.425 . S
C1584 C1591 1.409 . S
C1585 H1577 0.930 . S
C1585 C1583 1.419 . S
C1585 C1586 1.362 . S
C1586 H1578 0.930 . S
C1586 C1585 1.362 . S
C1586 C1589 1.409 . S
C1587 H1579 0.930 . S
C1587 C1588 1.355 . S
C1587 C1589 1.415 . S
C1588 C1587 1.355 . S
C1588 C1590 1.419 . S
C1589 C1584 1.425 . S
C1589 C1586 1.409 . S
C1589 C1587 1.415 . S
C1590 H1580 0.930 . S
C1590 C1588 1.419 . S
C1590 C1591 1.362 . S
C1591 H1581 0.930 . S
C1591 C1584 1.409 . S
C1591 C1590 1.362 . S
H1592 C1598 0.930 . S
H1593 C1601 0.930 . S
H1594 C1602 0.930 . S
H1595 C1603 0.930 . S
H1596 C1606 0.930 . S
H1597 C1607 0.930 . S
C1598 H1592 0.930 . S
C1598 C1599 1.355 . S
C1598 C1600 1.415 . S
C1599 C1598 1.355 . S
C1599 C1601 1.419 . S
C1600 C1598 1.415 . S
C1600 C1605 1.425 . S
C1600 C1607 1.409 . S
C1601 H1593 0.930 . S
C1601 C1599 1.419 . S
C1601 C1602 1.362 . S
C1602 H1594 0.930 . S
C1602 C1601 1.362 . S
C1602 C1605 1.409 . S
C1603 H1595 0.930 . S
C1603 C1604 1.355 . S
C1603 C1605 1.415 . S
C1604 C1603 1.355 . S
C1604 C1606 1.419 . S
C1605 C1600 1.425 . S
C1605 C1602 1.409 . S
C1605 C1603 1.415 . S
C1606 H1596 0.930 . S
C1606 C1604 1.419 . S
C1606 C1607 1.362 . S
C1607 H1597 0.930 . S
C1607 C1600 1.409 . S
C1607 C1606 1.362 . S
H1608 C1614 0.930 . S
H1609 C1617 0.930 . S
H1610 C1618 0.930 . S
H1611 C1619 0.930 . S
H1612 C1622 0.930 . S
H1613 C1623 0.930 . S
C1614 H1608 0.930 . S
C1614 C1615 1.355 . S
C1614 C1616 1.415 . S
C1615 C1614 1.355 . S
C1615 C1617 1.419 . S
C1616 C1614 1.415 . S
C1616 C1621 1.425 . S
C1616 C1623 1.409 . S
C1617 H1609 0.930 . S
C1617 C1615 1.419 . S
C1617 C1618 1.362 . S
C1618 H1610 0.930 . S
C1618 C1617 1.362 . S
C1618 C1621 1.409 . S
C1619 H1611 0.930 . S
C1619 C1620 1.355 . S
C1619 C1621 1.415 . S
C1620 C1619 1.355 . S
C1620 C1622 1.419 . S
C1621 C1616 1.425 . S
C1621 C1618 1.409 . S
C1621 C1619 1.415 . S
C1622 H1612 0.930 . S
C1622 C1620 1.419 . S
C1622 C1623 1.362 . S
C1623 H1613 0.930 . S
C1623 C1616 1.409 . S
C1623 C1622 1.362 . S
H1624 C1630 0.930 . S
H1625 C1633 0.930 . S
H1626 C1634 0.930 . S
H1627 C1635 0.930 . S
H1628 C1638 0.930 . S
H1629 C1639 0.930 . S
C1630 H1624 0.930 . S
C1630 C1631 1.355 . S
C1630 C1632 1.415 . S
C1631 C1630 1.355 . S
C1631 C1633 1.419 . S
C1632 C1630 1.415 . S
C1632 C1637 1.425 . S
C1632 C1639 1.409 . S
C1633 H1625 0.930 . S
C1633 C1631 1.419 . S
C1633 C1634 1.362 . S
C1634 H1626 0.930 . S
C1634 C1633 1.362 . S
C1634 C1637 1.409 . S
C1635 H1627 0.930 . S
C1635 C1636 1.355 . S
C1635 C1637 1.415 . S
C1636 C1635 1.355 . S
C1636 C1638 1.419 . S
C1637 C1632 1.425 . S
C1637 C1634 1.409 . S
C1637 C1635 1.415 . S
C1638 H1628 0.930 . S
C1638 C1636 1.419 . S
C1638 C1639 1.362 . S
C1639 H1629 0.930 . S
C1639 C1632 1.409 . S
C1639 C1638 1.362 . S
H1640 C1646 0.930 . S
H1641 C1649 0.930 . S
H1642 C1650 0.930 . S
H1643 C1651 0.930 . S
H1644 C1654 0.930 . S
H1645 C1655 0.930 . S
C1646 H1640 0.930 . S
C1646 C1647 1.355 . S
C1646 C1648 1.415 . S
C1647 C1646 1.355 . S
C1647 C1649 1.419 . S
C1648 C1646 1.415 . S
C1648 C1653 1.425 . S
C1648 C1655 1.409 . S
C1649 H1641 0.930 . S
C1649 C1647 1.419 . S
C1649 C1650 1.362 . S
C1650 H1642 0.930 . S
C1650 C1649 1.362 . S
C1650 C1653 1.409 . S
C1651 H1643 0.930 . S
C1651 C1652 1.355 . S
C1651 C1653 1.415 . S
C1652 C1651 1.355 . S
C1652 C1654 1.419 . S
C1653 C1648 1.425 . S
C1653 C1650 1.409 . S
C1653 C1651 1.415 . S
C1654 H1644 0.930 . S
C1654 C1652 1.419 . S
C1654 C1655 1.362 . S
C1655 H1645 0.930 . S
C1655 C1648 1.409 . S
C1655 C1654 1.362 . S
H1656 C1662 0.930 . S
H1657 C1665 0.930 . S
H1658 C1666 0.930 . S
H1659 C1667 0.930 . S
H1660 C1670 0.930 . S
H1661 C1671 0.930 . S
C1662 H1656 0.930 . S
C1662 C1663 1.355 . S
C1662 C1664 1.415 . S
C1663 C1662 1.355 . S
C1663 C1665 1.419 . S
C1664 C1662 1.415 . S
C1664 C1669 1.425 . S
C1664 C1671 1.409 . S
C1665 H1657 0.930 . S
C1665 C1663 1.419 . S
C1665 C1666 1.362 . S
C1666 H1658 0.930 . S
C1666 C1665 1.362 . S
C1666 C1669 1.409 . S
C1667 H1659 0.930 . S
C1667 C1668 1.355 . S
C1667 C1669 1.415 . S
C1668 C1667 1.355 . S
C1668 C1670 1.419 . S
C1669 C1664 1.425 . S
C1669 C1666 1.409 . S
C1669 C1667 1.415 . S
C1670 H1660 0.930 . S
C1670 C1668 1.419 . S
C1670 C1671 1.362 . S
C1671 H1661 0.930 . S
C1671 C1664 1.409 . S
C1671 C1670 1.362 . S
H1672 C1678 0.930 . S
H1673 C1681 0.930 . S
H1674 C1682 0.930 . S
H1675 C1683 0.930 . S
H1676 C1686 0.930 . S
H1677 C1687 0.930 . S
C1678 H1672 0.930 . S
C1678 C1679 1.355 . S
C1678 C1680 1.415 . S
C1679 C1678 1.355 . S
C1679 C1681 1.419 . S
C1680 C1678 1.415 . S
C1680 C1685 1.425 . S
C1680 C1687 1.409 . S
C1681 H1673 0.930 . S
C1681 C1679 1.419 . S
C1681 C1682 1.362 . S
C1682 H1674 0.930 . S
C1682 C1681 1.362 . S
C1682 C1685 1.409 . S
C1683 H1675 0.930 . S
C1683 C1684 1.355 . S
C1683 C1685 1.415 . S
C1684 C1683 1.355 . S
C1684 C1686 1.419 . S
C1685 C1680 1.425 . S
C1685 C1682 1.409 . S
C1685 C1683 1.415 . S
C1686 H1676 0.930 . S
C1686 C1684 1.419 . S
C1686 C1687 1.362 . S
C1687 H1677 0.930 . S
C1687 C1680 1.409 . S
C1687 C1686 1.362 . S
H1688 C1694 0.930 . S
H1689 C1697 0.930 . S
H1690 C1698 0.930 . S
H1691 C1699 0.930 . S
H1692 C1702 0.930 . S
H1693 C1703 0.930 . S
C1694 H1688 0.930 . S
C1694 C1695 1.355 . S
C1694 C1696 1.415 . S
C1695 C1694 1.355 . S
C1695 C1697 1.419 . S
C1696 C1694 1.415 . S
C1696 C1701 1.425 . S
C1696 C1703 1.409 . S
C1697 H1689 0.930 . S
C1697 C1695 1.419 . S
C1697 C1698 1.362 . S
C1698 H1690 0.930 . S
C1698 C1697 1.362 . S
C1698 C1701 1.409 . S
C1699 H1691 0.930 . S
C1699 C1700 1.355 . S
C1699 C1701 1.415 . S
C1700 C1699 1.355 . S
C1700 C1702 1.419 . S
C1701 C1696 1.425 . S
C1701 C1698 1.409 . S
C1701 C1699 1.415 . S
C1702 H1692 0.930 . S
C1702 C1700 1.419 . S
C1702 C1703 1.362 . S
C1703 H1693 0.930 . S
C1703 C1696 1.409 . S
C1703 C1702 1.362 . S
H1704 C1710 0.930 . S
H1705 C1713 0.930 . S
H1706 C1714 0.930 . S
H1707 C1715 0.930 . S
H1708 C1718 0.930 . S
H1709 C1719 0.930 . S
C1710 H1704 0.930 . S
C1710 C1711 1.355 . S
C1710 C1712 1.415 . S
C1711 C1710 1.355 . S
C1711 C1713 1.419 . S
C1712 C1710 1.415 . S
C1712 C1717 1.425 . S
C1712 C1719 1.409 . S
C1713 H1705 0.930 . S
C1713 C1711 1.419 . S
C1713 C1714 1.362 . S
C1714 H1706 0.930 . S
C1714 C1713 1.362 . S
C1714 C1717 1.409 . S
C1715 H1707 0.930 . S
C1715 C1716 1.355 . S
C1715 C1717 1.415 . S
C1716 C1715 1.355 . S
C1716 C1718 1.419 . S
C1717 C1712 1.425 . S
C1717 C1714 1.409 . S
C1717 C1715 1.415 . S
C1718 H1708 0.930 . S
C1718 C1716 1.419 . S
C1718 C1719 1.362 . S
C1719 H1709 0.930 . S
C1719 C1712 1.409 . S
C1719 C1718 1.362 . S
H1720 C1726 0.930 . S
H1721 C1729 0.930 . S
H1722 C1730 0.930 . S
H1723 C1731 0.930 . S
H1724 C1734 0.930 . S
H1725 C1735 0.930 . S
C1726 H1720 0.930 . S
C1726 C1727 1.355 . S
C1726 C1728 1.415 . S
C1727 C1726 1.355 . S
C1727 C1729 1.419 . S
C1728 C1726 1.415 . S
C1728 C1733 1.425 . S
C1728 C1735 1.409 . S
C1729 H1721 0.930 . S
C1729 C1727 1.419 . S
C1729 C1730 1.362 . S
C1730 H1722 0.930 . S
C1730 C1729 1.362 . S
C1730 C1733 1.409 . S
C1731 H1723 0.930 . S
C1731 C1732 1.355 . S
C1731 C1733 1.415 . S
C1732 C1731 1.355 . S
C1732 C1734 1.419 . S
C1733 C1728 1.425 . S
C1733 C1730 1.409 . S
C1733 C1731 1.415 . S
C1734 H1724 0.930 . S
C1734 C1732 1.419 . S
C1734 C1735 1.362 . S
C1735 H1725 0.930 . S
C1735 C1728 1.409 . S
C1735 C1734 1.362 . S
H1736 C1742 0.930 . S
H1737 C1745 0.930 . S
H1738 C1746 0.930 . S
H1739 C1747 0.930 . S
H1740 C1750 0.930 . S
H1741 C1751 0.930 . S
C1742 H1736 0.930 . S
C1742 C1743 1.355 . S
C1742 C1744 1.415 . S
C1743 C1742 1.355 . S
C1743 C1745 1.419 . S
C1744 C1742 1.415 . S
C1744 C1749 1.425 . S
C1744 C1751 1.409 . S
C1745 H1737 0.930 . S
C1745 C1743 1.419 . S
C1745 C1746 1.362 . S
C1746 H1738 0.930 . S
C1746 C1745 1.362 . S
C1746 C1749 1.409 . S
C1747 H1739 0.930 . S
C1747 C1748 1.355 . S
C1747 C1749 1.415 . S
C1748 C1747 1.355 . S
C1748 C1750 1.419 . S
C1749 C1744 1.425 . S
C1749 C1746 1.409 . S
C1749 C1747 1.415 . S
C1750 H1740 0.930 . S
C1750 C1748 1.419 . S
C1750 C1751 1.362 . S
C1751 H1741 0.930 . S
C1751 C1744 1.409 . S
C1751 C1750 1.362 . S
H1752 C1758 0.930 . S
H1753 C1761 0.930 . S
H1754 C1762 0.930 . S
H1755 C1763 0.930 . S
H1756 C1766 0.930 . S
H1757 C1767 0.930 . S
C1758 H1752 0.930 . S
C1758 C1759 1.355 . S
C1758 C1760 1.415 . S
C1759 C1758 1.355 . S
C1759 C1761 1.419 . S
C1760 C1758 1.415 . S
C1760 C1765 1.425 . S
C1760 C1767 1.409 . S
C1761 H1753 0.930 . S
C1761 C1759 1.419 . S
C1761 C1762 1.362 . S
C1762 H1754 0.930 . S
C1762 C1761 1.362 . S
C1762 C1765 1.409 . S
C1763 H1755 0.930 . S
C1763 C1764 1.355 . S
C1763 C1765 1.415 . S
C1764 C1763 1.355 . S
C1764 C1766 1.419 . S
C1765 C1760 1.425 . S
C1765 C1762 1.409 . S
C1765 C1763 1.415 . S
C1766 H1756 0.930 . S
C1766 C1764 1.419 . S
C1766 C1767 1.362 . S
C1767 H1757 0.930 . S
C1767 C1760 1.409 . S
C1767 C1766 1.362 . S
H1768 C1774 0.930 . S
H1769 C1777 0.930 . S
H1770 C1778 0.930 . S
H1771 C1779 0.930 . S
H1772 C1782 0.930 . S
H1773 C1783 0.930 . S
C1774 H1768 0.930 . S
C1774 C1775 1.355 . S
C1774 C1776 1.415 . S
C1775 C1774 1.355 . S
C1775 C1777 1.419 . S
C1776 C1774 1.415 . S
C1776 C1781 1.425 . S
C1776 C1783 1.409 . S
C1777 H1769 0.930 . S
C1777 C1775 1.419 . S
C1777 C1778 1.362 . S
C1778 H1770 0.930 . S
C1778 C1777 1.362 . S
C1778 C1781 1.409 . S
C1779 H1771 0.930 . S
C1779 C1780 1.355 . S
C1779 C1781 1.415 . S
C1780 C1779 1.355 . S
C1780 C1782 1.419 . S
C1781 C1776 1.425 . S
C1781 C1778 1.409 . S
C1781 C1779 1.415 . S
C1782 H1772 0.930 . S
C1782 C1780 1.419 . S
C1782 C1783 1.362 . S
C1783 H1773 0.930 . S
C1783 C1776 1.409 . S
C1783 C1782 1.362 . S
H1784 C1790 0.930 . S
H1785 C1793 0.930 . S
H1786 C1794 0.930 . S
H1787 C1795 0.930 . S
H1788 C1798 0.930 . S
H1789 C1799 0.930 . S
C1790 H1784 0.930 . S
C1790 C1791 1.355 . S
C1790 C1792 1.415 . S
C1791 C1790 1.355 . S
C1791 C1793 1.419 . S
C1792 C1790 1.415 . S
C1792 C1797 1.425 . S
C1792 C1799 1.409 . S
C1793 H1785 0.930 . S
C1793 C1791 1.419 . S
C1793 C1794 1.362 . S
C1794 H1786 0.930 . S
C1794 C1793 1.362 . S
C1794 C1797 1.409 . S
C1795 H1787 0.930 . S
C1795 C1796 1.355 . S
C1795 C1797 1.415 . S
C1796 C1795 1.355 . S
C1796 C1798 1.419 . S
C1797 C1792 1.425 . S
C1797 C1794 1.409 . S
C1797 C1795 1.415 . S
C1798 H1788 0.930 . S
C1798 C1796 1.419 . S
C1798 C1799 1.362 . S
C1799 H1789 0.930 . S
C1799 C1792 1.409 . S
C1799 C1798 1.362 . S
H1800 C1806 0.930 . S
H1801 C1809 0.930 . S
H1802 C1810 0.930 . S
H1803 C1811 0.930 . S
H1804 C1814 0.930 . S
H1805 C1815 0.930 . S
C1806 H1800 0.930 . S
C1806 C1807 1.355 . S
C1806 C1808 1.415 . S
C1807 C1806 1.355 . S
C1807 C1809 1.419 . S
C1808 C1806 1.415 . S
C1808 C1813 1.425 . S
C1808 C1815 1.409 . S
C1809 H1801 0.930 . S
C1809 C1807 1.419 . S
C1809 C1810 1.362 . S
C1810 H1802 0.930 . S
C1810 C1809 1.362 . S
C1810 C1813 1.409 . S
C1811 H1803 0.930 . S
C1811 C1812 1.355 . S
C1811 C1813 1.415 . S
C1812 C1811 1.355 . S
C1812 C1814 1.419 . S
C1813 C1808 1.425 . S
C1813 C1810 1.409 . S
C1813 C1811 1.415 . S
C1814 H1804 0.930 . S
C1814 C1812 1.419 . S
C1814 C1815 1.362 . S
C1815 H1805 0.930 . S
C1815 C1808 1.409 . S
C1815 C1814 1.362 . S
H1816 C1822 0.930 . S
H1817 C1825 0.930 . S
H1818 C1826 0.930 . S
H1819 C1827 0.930 . S
H1820 C1830 0.930 . S
H1821 C1831 0.930 . S
C1822 H1816 0.930 . S
C1822 C1823 1.355 . S
C1822 C1824 1.415 1_554 S
C1823 C1822 1.355 . S
C1823 C1825 1.419 . S
C1824 C1822 1.415 1_556 S
C1824 C1829 1.425 . S
C1824 C1831 1.409 . S
C1825 H1817 0.930 . S
C1825 C1823 1.419 . S
C1825 C1826 1.362 1_554 S
C1826 H1818 0.930 . S
C1826 C1825 1.362 1_556 S
C1826 C1829 1.409 . S
C1827 H1819 0.930 . S
C1827 C1828 1.355 . S
C1827 C1829 1.415 . S
C1828 C1827 1.355 . S
C1828 C1830 1.419 . S
C1829 C1824 1.425 . S
C1829 C1826 1.409 . S
C1829 C1827 1.415 . S
C1830 H1820 0.930 . S
C1830 C1828 1.419 . S
C1830 C1831 1.362 . S
C1831 H1821 0.930 . S
C1831 C1824 1.409 . S
C1831 C1830 1.362 . S
H1832 C1838 0.930 . S
H1833 C1841 0.930 . S
H1834 C1842 0.930 . S
H1835 C1843 0.930 . S
H1836 C1846 0.930 . S
H1837 C1847 0.930 . S
C1838 H1832 0.930 . S
C1838 C1839 1.355 . S
C1838 C1840 1.415 . S
C1839 C1838 1.355 . S
C1839 C1841 1.419 . S
C1840 C1838 1.415 . S
C1840 C1845 1.425 . S
C1840 C1847 1.409 . S
C1841 H1833 0.930 . S
C1841 C1839 1.419 . S
C1841 C1842 1.362 . S
C1842 H1834 0.930 . S
C1842 C1841 1.362 . S
C1842 C1845 1.409 . S
C1843 H1835 0.930 . S
C1843 C1844 1.355 . S
C1843 C1845 1.415 . S
C1844 C1843 1.355 . S
C1844 C1846 1.419 . S
C1845 C1840 1.425 . S
C1845 C1842 1.409 . S
C1845 C1843 1.415 . S
C1846 H1836 0.930 . S
C1846 C1844 1.419 . S
C1846 C1847 1.362 . S
C1847 H1837 0.930 . S
C1847 C1840 1.409 . S
C1847 C1846 1.362 . S
H1848 C1854 0.930 . S
H1849 C1857 0.930 . S
H1850 C1858 0.930 . S
H1851 C1859 0.930 . S
H1852 C1862 0.930 . S
H1853 C1863 0.930 . S
C1854 H1848 0.930 . S
C1854 C1855 1.355 . S
C1854 C1856 1.415 . S
C1855 C1854 1.355 . S
C1855 C1857 1.419 . S
C1856 C1854 1.415 . S
C1856 C1861 1.425 . S
C1856 C1863 1.409 . S
C1857 H1849 0.930 . S
C1857 C1855 1.419 . S
C1857 C1858 1.362 . S
C1858 H1850 0.930 . S
C1858 C1857 1.362 . S
C1858 C1861 1.409 . S
C1859 H1851 0.930 . S
C1859 C1860 1.355 . S
C1859 C1861 1.415 1_556 S
C1860 C1859 1.355 . S
C1860 C1862 1.419 . S
C1861 C1856 1.425 . S
C1861 C1858 1.409 . S
C1861 C1859 1.415 1_554 S
C1862 H1852 0.930 . S
C1862 C1860 1.419 . S
C1862 C1863 1.362 1_556 S
C1863 H1853 0.930 . S
C1863 C1856 1.409 . S
C1863 C1862 1.362 1_554 S
H1864 C1870 0.930 . S
H1865 C1873 0.930 . S
H1866 C1874 0.930 . S
H1867 C1875 0.930 . S
H1868 C1878 0.930 . S
H1869 C1879 0.930 . S
C1870 H1864 0.930 . S
C1870 C1871 1.355 . S
C1870 C1872 1.415 . S
C1871 C1870 1.355 . S
C1871 C1873 1.419 . S
C1872 C1870 1.415 . S
C1872 C1877 1.425 . S
C1872 C1879 1.409 . S
C1873 H1865 0.930 . S
C1873 C1871 1.419 . S
C1873 C1874 1.362 . S
C1874 H1866 0.930 . S
C1874 C1873 1.362 . S
C1874 C1877 1.409 . S
C1875 H1867 0.930 . S
C1875 C1876 1.355 . S
C1875 C1877 1.415 . S
C1876 C1875 1.355 . S
C1876 C1878 1.419 . S
C1877 C1872 1.425 . S
C1877 C1874 1.409 . S
C1877 C1875 1.415 . S
C1878 H1868 0.930 . S
C1878 C1876 1.419 . S
C1878 C1879 1.362 . S
C1879 H1869 0.930 . S
C1879 C1872 1.409 . S
C1879 C1878 1.362 . S
H1880 C1886 0.930 . S
H1881 C1889 0.930 . S
H1882 C1890 0.930 . S
H1883 C1891 0.930 . S
H1884 C1894 0.930 . S
H1885 C1895 0.930 . S
C1886 H1880 0.930 . S
C1886 C1887 1.355 . S
C1886 C1888 1.415 1_655 S
C1887 C1886 1.355 . S
C1887 C1889 1.419 . S
C1888 C1886 1.415 1_455 S
C1888 C1893 1.425 . S
C1888 C1895 1.409 . S
C1889 H1881 0.930 . S
C1889 C1887 1.419 . S
C1889 C1890 1.362 1_655 S
C1890 H1882 0.930 . S
C1890 C1889 1.362 1_455 S
C1890 C1893 1.409 . S
C1891 H1883 0.930 . S
C1891 C1892 1.355 . S
C1891 C1893 1.415 . S
C1892 C1891 1.355 . S
C1892 C1894 1.419 . S
C1893 C1888 1.425 . S
C1893 C1890 1.409 . S
C1893 C1891 1.415 . S
C1894 H1884 0.930 . S
C1894 C1892 1.419 . S
C1894 C1895 1.362 . S
C1895 H1885 0.930 . S
C1895 C1888 1.409 . S
C1895 C1894 1.362 . S
H1896 C1902 0.930 . S
H1897 C1905 0.930 . S
H1898 C1906 0.930 . S
H1899 C1907 0.930 . S
H1900 C1910 0.930 . S
H1901 C1911 0.930 . S
C1902 H1896 0.930 . S
C1902 C1903 1.355 . S
C1902 C1904 1.415 1_455 S
C1903 C1902 1.355 . S
C1903 C1905 1.419 . S
C1904 C1902 1.415 1_655 S
C1904 C1909 1.425 . S
C1904 C1911 1.409 . S
C1905 H1897 0.930 . S
C1905 C1903 1.419 . S
C1905 C1906 1.362 1_455 S
C1906 H1898 0.930 . S
C1906 C1905 1.362 1_655 S
C1906 C1909 1.409 . S
C1907 H1899 0.930 . S
C1907 C1908 1.355 . S
C1907 C1909 1.415 . S
C1908 C1907 1.355 . S
C1908 C1910 1.419 . S
C1909 C1904 1.425 . S
C1909 C1906 1.409 . S
C1909 C1907 1.415 . S
C1910 H1900 0.930 . S
C1910 C1908 1.419 . S
C1910 C1911 1.362 . S
C1911 H1901 0.930 . S
C1911 C1904 1.409 . S
C1911 C1910 1.362 . S
H1912 C1918 0.930 . S
H1913 C1921 0.930 . S
H1914 C1922 0.930 . S
H1915 C1923 0.930 . S
H1916 C1926 0.930 . S
H1917 C1927 0.930 . S
C1918 H1912 0.930 . S
C1918 C1919 1.355 . S
C1918 C1920 1.415 . S
C1919 C1918 1.355 . S
C1919 C1921 1.419 . S
C1920 C1918 1.415 . S
C1920 C1925 1.425 . S
C1920 C1927 1.409 . S
C1921 H1913 0.930 . S
C1921 C1919 1.419 . S
C1921 C1922 1.362 . S
C1922 H1914 0.930 . S
C1922 C1921 1.362 . S
C1922 C1925 1.409 . S
C1923 H1915 0.930 . S
C1923 C1924 1.355 . S
C1923 C1925 1.415 . S
C1924 C1923 1.355 . S
C1924 C1926 1.419 . S
C1925 C1920 1.425 . S
C1925 C1922 1.409 . S
C1925 C1923 1.415 . S
C1926 H1916 0.930 . S
C1926 C1924 1.419 . S
C1926 C1927 1.362 . S
C1927 H1917 0.930 . S
C1927 C1920 1.409 . S
C1927 C1926 1.362 . S
H1928 C1934 0.930 . S
H1929 C1937 0.930 . S
H1930 C1938 0.930 . S
H1931 C1939 0.930 . S
H1932 C1942 0.930 . S
H1933 C1943 0.930 . S
C1934 H1928 0.930 . S
C1934 C1935 1.355 . S
C1934 C1936 1.415 . S
C1935 C1934 1.355 . S
C1935 C1937 1.419 . S
C1936 C1934 1.415 . S
C1936 C1941 1.425 . S
C1936 C1943 1.409 . S
C1937 H1929 0.930 . S
C1937 C1935 1.419 . S
C1937 C1938 1.362 . S
C1938 H1930 0.930 . S
C1938 C1937 1.362 . S
C1938 C1941 1.409 . S
C1939 H1931 0.930 . S
C1939 C1940 1.355 . S
C1939 C1941 1.415 . S
C1940 C1939 1.355 . S
C1940 C1942 1.419 . S
C1941 C1936 1.425 . S
C1941 C1938 1.409 . S
C1941 C1939 1.415 . S
C1942 H1932 0.930 . S
C1942 C1940 1.419 . S
C1942 C1943 1.362 . S
C1943 H1933 0.930 . S
C1943 C1936 1.409 . S
C1943 C1942 1.362 . S
H1944 C1950 0.930 . S
H1945 C1953 0.930 . S
H1946 C1954 0.930 . S
H1947 C1955 0.930 . S
H1948 C1958 0.930 . S
H1949 C1959 0.930 . S
C1950 H1944 0.930 . S
C1950 C1951 1.355 . S
C1950 C1952 1.415 1_565 S
C1951 C1950 1.355 . S
C1951 C1953 1.419 . S
C1952 C1950 1.415 1_545 S
C1952 C1957 1.425 . S
C1952 C1959 1.409 . S
C1953 H1945 0.930 . S
C1953 C1951 1.419 . S
C1953 C1954 1.362 . S
C1954 H1946 0.930 . S
C1954 C1953 1.362 . S
C1954 C1957 1.409 1_565 S
C1955 H1947 0.930 . S
C1955 C1956 1.355 . S
C1955 C1957 1.415 . S
C1956 C1955 1.355 . S
C1956 C1958 1.419 . S
C1957 C1952 1.425 . S
C1957 C1954 1.409 1_545 S
C1957 C1955 1.415 . S
C1958 H1948 0.930 . S
C1958 C1956 1.419 . S
C1958 C1959 1.362 . S
C1959 H1949 0.930 . S
C1959 C1952 1.409 . S
C1959 C1958 1.362 . S
H1960 C1966 0.930 . S
H1961 C1969 0.930 . S
H1962 C1970 0.930 . S
H1963 C1971 0.930 . S
H1964 C1974 0.930 . S
H1965 C1975 0.930 . S
C1966 H1960 0.930 . S
C1966 C1967 1.355 . S
C1966 C1968 1.415 1_545 S
C1967 C1966 1.355 . S
C1967 C1969 1.419 . S
C1968 C1966 1.415 1_565 S
C1968 C1973 1.425 . S
C1968 C1975 1.409 . S
C1969 H1961 0.930 . S
C1969 C1967 1.419 . S
C1969 C1970 1.362 1_545 S
C1970 H1962 0.930 . S
C1970 C1969 1.362 1_565 S
C1970 C1973 1.409 . S
C1971 H1963 0.930 . S
C1971 C1972 1.355 . S
C1971 C1973 1.415 . S
C1972 C1971 1.355 . S
C1972 C1974 1.419 . S
C1973 C1968 1.425 . S
C1973 C1970 1.409 . S
C1973 C1971 1.415 . S
C1974 H1964 0.930 . S
C1974 C1972 1.419 . S
C1974 C1975 1.362 . S
C1975 H1965 0.930 . S
C1975 C1968 1.409 . S
C1975 C1974 1.362 . S
H1976 C1982 0.930 . S
H1977 C1985 0.930 . S
H1978 C1986 0.930 . S
H1979 C1987 0.930 . S
H1980 C1990 0.930 . S
H1981 C1991 0.930 . S
C1982 H1976 0.930 . S
C1982 C1983 1.355 . S
C1982 C1984 1.415 . S
C1983 C1982 1.355 . S
C1983 C1985 1.419 . S
C1984 C1982 1.415 . S
C1984 C1989 1.425 . S
C1984 C1991 1.409 . S
C1985 H1977 0.930 . S
C1985 C1983 1.419 . S
C1985 C1986 1.362 . S
C1986 H1978 0.930 . S
C1986 C1985 1.362 . S
C1986 C1989 1.409 . S
C1987 H1979 0.930 . S
C1987 C1988 1.355 . S
C1987 C1989 1.415 . S
C1988 C1987 1.355 . S
C1988 C1990 1.419 . S
C1989 C1984 1.425 . S
C1989 C1986 1.409 . S
C1989 C1987 1.415 . S
C1990 H1980 0.930 . S
C1990 C1988 1.419 . S
C1990 C1991 1.362 . S
C1991 H1981 0.930 . S
C1991 C1984 1.409 . S
C1991 C1990 1.362 . S
H1992 C1998 0.930 . S
H1993 C2001 0.930 . S
H1994 C2002 0.930 . S
H1995 C2003 0.930 . S
H1996 C2006 0.930 . S
H1997 C2007 0.930 . S
C1998 H1992 0.930 . S
C1998 C1999 1.355 . S
C1998 C2000 1.415 . S
C1999 C1998 1.355 . S
C1999 C2001 1.419 . S
C2000 C1998 1.415 . S
C2000 C2005 1.425 . S
C2000 C2007 1.409 . S
C2001 H1993 0.930 . S
C2001 C1999 1.419 . S
C2001 C2002 1.362 . S
C2002 H1994 0.930 . S
C2002 C2001 1.362 . S
C2002 C2005 1.409 . S
C2003 H1995 0.930 . S
C2003 C2004 1.355 . S
C2003 C2005 1.415 . S
C2004 C2003 1.355 . S
C2004 C2006 1.419 . S
C2005 C2000 1.425 . S
C2005 C2002 1.409 . S
C2005 C2003 1.415 . S
C2006 H1996 0.930 . S
C2006 C2004 1.419 . S
C2006 C2007 1.362 . S
C2007 H1997 0.930 . S
C2007 C2000 1.409 . S
C2007 C2006 1.362 . S
H2008 C2014 0.930 . S
H2009 C2017 0.930 . S
H2010 C2018 0.930 . S
H2011 C2019 0.930 . S
H2012 C2022 0.930 . S
H2013 C2023 0.930 . S
C2014 H2008 0.930 . S
C2014 C2015 1.355 . S
C2014 C2016 1.415 1_556 S
C2015 C2014 1.355 . S
C2015 C2017 1.419 . S
C2016 C2014 1.415 1_554 S
C2016 C2021 1.425 . S
C2016 C2023 1.409 . S
C2017 H2009 0.930 . S
C2017 C2015 1.419 . S
C2017 C2018 1.362 1_556 S
C2018 H2010 0.930 . S
C2018 C2017 1.362 1_554 S
C2018 C2021 1.409 . S
C2019 H2011 0.930 . S
C2019 C2020 1.355 . S
C2019 C2021 1.415 . S
C2020 C2019 1.355 . S
C2020 C2022 1.419 . S
C2021 C2016 1.425 . S
C2021 C2018 1.409 . S
C2021 C2019 1.415 . S
C2022 H2012 0.930 . S
C2022 C2020 1.419 . S
C2022 C2023 1.362 . S
C2023 H2013 0.930 . S
C2023 C2016 1.409 . S
C2023 C2022 1.362 . S
H2024 C2030 0.930 . S
H2025 C2033 0.930 . S
H2026 C2034 0.930 . S
H2027 C2035 0.930 . S
H2028 C2038 0.930 . S
H2029 C2039 0.930 . S
C2030 H2024 0.930 . S
C2030 C2031 1.355 . S
C2030 C2032 1.415 . S
C2031 C2030 1.355 . S
C2031 C2033 1.419 . S
C2032 C2030 1.415 . S
C2032 C2037 1.425 . S
C2032 C2039 1.409 . S
C2033 H2025 0.930 . S
C2033 C2031 1.419 . S
C2033 C2034 1.362 . S
C2034 H2026 0.930 . S
C2034 C2033 1.362 . S
C2034 C2037 1.409 . S
C2035 H2027 0.930 . S
C2035 C2036 1.355 . S
C2035 C2037 1.415 . S
C2036 C2035 1.355 . S
C2036 C2038 1.419 . S
C2037 C2032 1.425 . S
C2037 C2034 1.409 . S
C2037 C2035 1.415 . S
C2038 H2028 0.930 . S
C2038 C2036 1.419 . S
C2038 C2039 1.362 . S
C2039 H2029 0.930 . S
C2039 C2032 1.409 . S
C2039 C2038 1.362 . S
H2040 C2046 0.930 . S
H2041 C2049 0.930 . S
H2042 C2050 0.930 1_556 S
H2043 C2051 0.930 . S
H2044 C2054 0.930 . S
H2045 C2055 0.930 . S
C2046 H2040 0.930 . S
C2046 C2047 1.355 . S
C2046 C2048 1.415 1_554 S
C2047 C2046 1.355 . S
C2047 C2049 1.419 . S
C2048 C2046 1.415 1_556 S
C2048 C2053 1.425 . S
C2048 C2055 1.409 . S
C2049 H2041 0.930 . S
C2049 C2047 1.419 . S
C2049 C2050 1.362 . S
C2050 H2042 0.930 1_554 S
C2050 C2049 1.362 . S
C2050 C2053 1.409 1_554 S
C2051 H2043 0.930 . S
C2051 C2052 1.355 . S
C2051 C2053 1.415 . S
C2052 C2051 1.355 . S
C2052 C2054 1.419 . S
C2053 C2048 1.425 . S
C2053 C2050 1.409 1_556 S
C2053 C2051 1.415 . S
C2054 H2044 0.930 . S
C2054 C2052 1.419 . S
C2054 C2055 1.362 . S
C2055 H2045 0.930 . S
C2055 C2048 1.409 . S
C2055 C2054 1.362 . S
H2056 C2062 0.930 . S
H2057 C2065 0.930 . S
H2058 C2066 0.930 . S
H2059 C2067 0.930 . S
H2060 C2070 0.930 . S
H2061 C2071 0.930 . S
C2062 H2056 0.930 . S
C2062 C2063 1.355 . S
C2062 C2064 1.415 . S
C2063 C2062 1.355 . S
C2063 C2065 1.419 . S
C2064 C2062 1.415 . S
C2064 C2069 1.425 . S
C2064 C2071 1.409 . S
C2065 H2057 0.930 . S
C2065 C2063 1.419 . S
C2065 C2066 1.362 . S
C2066 H2058 0.930 . S
C2066 C2065 1.362 . S
C2066 C2069 1.409 . S
C2067 H2059 0.930 . S
C2067 C2068 1.355 . S
C2067 C2069 1.415 . S
C2068 C2067 1.355 . S
C2068 C2070 1.419 . S
C2069 C2064 1.425 . S
C2069 C2066 1.409 . S
C2069 C2067 1.415 . S
C2070 H2060 0.930 . S
C2070 C2068 1.419 . S
C2070 C2071 1.362 . S
C2071 H2061 0.930 . S
C2071 C2064 1.409 . S
C2071 C2070 1.362 . S
H2072 C2078 0.930 . S
H2073 C2081 0.930 . S
H2074 C2082 0.930 . S
H2075 C2083 0.930 . S
H2076 C2086 0.930 . S
H2077 C2087 0.930 . S
C2078 H2072 0.930 . S
C2078 C2079 1.355 . S
C2078 C2080 1.415 . S
C2079 C2078 1.355 . S
C2079 C2081 1.419 . S
C2080 C2078 1.415 . S
C2080 C2085 1.425 . S
C2080 C2087 1.409 . S
C2081 H2073 0.930 . S
C2081 C2079 1.419 . S
C2081 C2082 1.362 . S
C2082 H2074 0.930 . S
C2082 C2081 1.362 . S
C2082 C2085 1.409 . S
C2083 H2075 0.930 . S
C2083 C2084 1.355 . S
C2083 C2085 1.415 1_455 S
C2084 C2083 1.355 . S
C2084 C2086 1.419 . S
C2085 C2080 1.425 . S
C2085 C2082 1.409 . S
C2085 C2083 1.415 1_655 S
C2086 H2076 0.930 . S
C2086 C2084 1.419 . S
C2086 C2087 1.362 1_455 S
C2087 H2077 0.930 . S
C2087 C2080 1.409 . S
C2087 C2086 1.362 1_655 S
H2088 C2094 0.930 . S
H2089 C2097 0.930 . S
H2090 C2098 0.930 . S
H2091 C2099 0.930 . S
H2092 C2102 0.930 . S
H2093 C2103 0.930 . S
C2094 H2088 0.930 . S
C2094 C2095 1.355 . S
C2094 C2096 1.415 . S
C2095 C2094 1.355 . S
C2095 C2097 1.419 . S
C2096 C2094 1.415 . S
C2096 C2101 1.425 . S
C2096 C2103 1.409 . S
C2097 H2089 0.930 . S
C2097 C2095 1.419 . S
C2097 C2098 1.362 . S
C2098 H2090 0.930 . S
C2098 C2097 1.362 . S
C2098 C2101 1.409 . S
C2099 H2091 0.930 . S
C2099 C2100 1.355 . S
C2099 C2101 1.415 1_655 S
C2100 C2099 1.355 . S
C2100 C2102 1.419 . S
C2101 C2096 1.425 . S
C2101 C2098 1.409 . S
C2101 C2099 1.415 1_455 S
C2102 H2092 0.930 . S
C2102 C2100 1.419 . S
C2102 C2103 1.362 1_655 S
C2103 H2093 0.930 . S
C2103 C2096 1.409 . S
C2103 C2102 1.362 1_455 S
H2104 C2110 0.930 . S
H2105 C2113 0.930 . S
H2106 C2114 0.930 . S
H2107 C2115 0.930 . S
H2108 C2118 0.930 . S
H2109 C2119 0.930 . S
C2110 H2104 0.930 . S
C2110 C2111 1.355 . S
C2110 C2112 1.415 . S
C2111 C2110 1.355 . S
C2111 C2113 1.419 . S
C2112 C2110 1.415 . S
C2112 C2117 1.425 . S
C2112 C2119 1.409 . S
C2113 H2105 0.930 . S
C2113 C2111 1.419 . S
C2113 C2114 1.362 . S
C2114 H2106 0.930 . S
C2114 C2113 1.362 . S
C2114 C2117 1.409 . S
C2115 H2107 0.930 . S
C2115 C2116 1.355 . S
C2115 C2117 1.415 . S
C2116 C2115 1.355 . S
C2116 C2118 1.419 . S
C2117 C2112 1.425 . S
C2117 C2114 1.409 . S
C2117 C2115 1.415 . S
C2118 H2108 0.930 . S
C2118 C2116 1.419 . S
C2118 C2119 1.362 . S
C2119 H2109 0.930 . S
C2119 C2112 1.409 . S
C2119 C2118 1.362 . S
H2120 C2126 0.930 . S
H2121 C2129 0.930 . S
H2122 C2130 0.930 . S
H2123 C2131 0.930 . S
H2124 C2134 0.930 . S
H2125 C2135 0.930 . S
C2126 H2120 0.930 . S
C2126 C2127 1.355 . S
C2126 C2128 1.415 . S
C2127 C2126 1.355 . S
C2127 C2129 1.419 . S
C2128 C2126 1.415 . S
C2128 C2133 1.425 . S
C2128 C2135 1.409 . S
C2129 H2121 0.930 . S
C2129 C2127 1.419 . S
C2129 C2130 1.362 . S
C2130 H2122 0.930 . S
C2130 C2129 1.362 . S
C2130 C2133 1.409 . S
C2131 H2123 0.930 . S
C2131 C2132 1.355 . S
C2131 C2133 1.415 . S
C2132 C2131 1.355 . S
C2132 C2134 1.419 . S
C2133 C2128 1.425 . S
C2133 C2130 1.409 . S
C2133 C2131 1.415 . S
C2134 H2124 0.930 . S
C2134 C2132 1.419 . S
C2134 C2135 1.362 . S
C2135 H2125 0.930 . S
C2135 C2128 1.409 . S
C2135 C2134 1.362 . S
H2136 C2142 0.930 . S
H2137 C2145 0.930 . S
H2138 C2146 0.930 . S
H2139 C2147 0.930 . S
H2140 C2150 0.930 . S
H2141 C2151 0.930 . S
C2142 H2136 0.930 . S
C2142 C2143 1.355 . S
C2142 C2144 1.415 . S
C2143 C2142 1.355 . S
C2143 C2145 1.419 . S
C2144 C2142 1.415 . S
C2144 C2149 1.425 . S
C2144 C2151 1.409 . S
C2145 H2137 0.930 . S
C2145 C2143 1.419 . S
C2145 C2146 1.362 . S
C2146 H2138 0.930 . S
C2146 C2145 1.362 . S
C2146 C2149 1.409 . S
C2147 H2139 0.930 . S
C2147 C2148 1.355 . S
C2147 C2149 1.415 1_545 S
C2148 C2147 1.355 . S
C2148 C2150 1.419 . S
C2149 C2144 1.425 . S
C2149 C2146 1.409 . S
C2149 C2147 1.415 1_565 S
C2150 H2140 0.930 . S
C2150 C2148 1.419 . S
C2150 C2151 1.362 1_545 S
C2151 H2141 0.930 . S
C2151 C2144 1.409 . S
C2151 C2150 1.362 1_565 S
H2152 C2158 0.930 . S
H2153 C2161 0.930 . S
H2154 C2162 0.930 . S
H2155 C2163 0.930 . S
H2156 C2166 0.930 . S
H2157 C2167 0.930 . S
C2158 H2152 0.930 . S
C2158 C2159 1.355 . S
C2158 C2160 1.415 1_565 S
C2159 C2158 1.355 . S
C2159 C2161 1.419 . S
C2160 C2158 1.415 1_545 S
C2160 C2165 1.425 . S
C2160 C2167 1.409 . S
C2161 H2153 0.930 . S
C2161 C2159 1.419 . S
C2161 C2162 1.362 . S
C2162 H2154 0.930 . S
C2162 C2161 1.362 . S
C2162 C2165 1.409 1_565 S
C2163 H2155 0.930 . S
C2163 C2164 1.355 . S
C2163 C2165 1.415 . S
C2164 C2163 1.355 . S
C2164 C2166 1.419 . S
C2165 C2160 1.425 . S
C2165 C2162 1.409 1_545 S
C2165 C2163 1.415 . S
C2166 H2156 0.930 . S
C2166 C2164 1.419 . S
C2166 C2167 1.362 . S
C2167 H2157 0.930 . S
C2167 C2160 1.409 . S
C2167 C2166 1.362 . S
H2168 C2174 0.930 . S
H2169 C2177 0.930 . S
H2170 C2178 0.930 . S
H2171 C2179 0.930 . S
H2172 C2182 0.930 . S
H2173 C2183 0.930 . S
C2174 H2168 0.930 . S
C2174 C2175 1.355 . S
C2174 C2176 1.415 . S
C2175 C2174 1.355 . S
C2175 C2177 1.419 . S
C2176 C2174 1.415 . S
C2176 C2181 1.425 . S
C2176 C2183 1.409 . S
C2177 H2169 0.930 . S
C2177 C2175 1.419 . S
C2177 C2178 1.362 . S
C2178 H2170 0.930 . S
C2178 C2177 1.362 . S
C2178 C2181 1.409 . S
C2179 H2171 0.930 . S
C2179 C2180 1.355 . S
C2179 C2181 1.415 . S
C2180 C2179 1.355 . S
C2180 C2182 1.419 . S
C2181 C2176 1.425 . S
C2181 C2178 1.409 . S
C2181 C2179 1.415 . S
C2182 H2172 0.930 . S
C2182 C2180 1.419 . S
C2182 C2183 1.362 . S
C2183 H2173 0.930 . S
C2183 C2176 1.409 . S
C2183 C2182 1.362 . S
C1423 C524 1.286 . S
C1428 C33 1.262 . S
C1439 C92 1.300 . S
C1444 C701 1.278 . S
C1455 C151 1.259 . S
C1460 C583 1.288 . S
C1471 C210 1.272 . S
C1476 C642 1.281 . S
C1487 C269 1.287 . S
C1492 C52 1.276 . S
C1503 C111 1.279 . S
C1508 C328 1.278 . S
C1519 C387 1.282 . S
C1524 C170 1.292 . S
C1535 C229 1.300 . S
C1540 C446 1.250 . S
C1551 C288 1.275 . S
C1556 C505 1.291 . S
C1567 C406 1.277 . S
C1572 C564 1.285 . S
C1583 C623 1.257 . S
C1588 C465 1.300 . S
C1599 C347 1.300 . S
C1604 C682 1.251 . S
C1615 C1232 1.294 . S
C1620 C741 1.250 . S
C1631 C800 1.294 . S
C1636 C1409 1.275 . S
C1647 C859 1.262 . S
C1652 C1291 1.299 . S
C1663 C1350 1.297 . S
C1668 C918 1.269 . S
C1679 C977 1.287 . S
C1684 C760 1.276 . S
C1695 C819 1.275 . S
C1700 C1036 1.296 . S
C1711 C878 1.279 . S
C1716 C1095 1.279 . S
C1727 C1154 1.272 . S
C1732 C937 1.281 . S
C1743 C1213 1.293 . S
C1748 C996 1.285 . S
C1759 C1114 1.299 . S
C1764 C1272 1.262 . S
C1775 C1173 1.295 . S
C1780 C1331 1.249 . S
C1791 C1390 1.282 . S
C1796 C1055 1.277 . S
C1807 C1303 1.515 . S
C1812 C3 1.495 . S
C1823 C1244 1.511 . S
C1828 C62 1.483 . S
C1839 C1362 1.493 . S
C1844 C121 1.464 . S
C1855 C180 1.489 . S
C1860 C1185 1.513 . S
C1871 C239 1.485 . S
C1876 C772 1.492 . S
C1887 C713 1.514 . S
C1892 C298 1.491 . S
C1903 C890 1.501 . S
C1908 C357 1.503 . S
C1919 C831 1.509 . S
C1924 C416 1.478 . S
C1935 C475 1.479 . S
C1940 C1067 1.509 . S
C1951 C949 1.498 . S
C1956 C534 1.465 . S
C1967 C1008 1.515 . S
C1972 C593 1.503 . S
C1983 C1126 1.491 . S
C1988 C652 1.479 . S
C1999 C595 1.496 . S
C2004 C711 1.496 . S
C2015 C536 1.501 . S
C2020 C770 1.503 . S
C2031 C829 1.465 . S
C2036 C654 1.493 . S
C2047 C477 1.511 . S
C2052 C888 1.482 . S
C2063 C947 1.510 . S
C2068 C64 1.511 . S
C2079 C1006 1.508 . S
C2084 C5 1.506 . S
C2095 C1065 1.503 . S
C2100 C182 1.515 . S
C2111 C1124 1.481 . S
C2116 C123 1.491 . S
C2127 C1183 1.486 . S
C2132 C359 1.512 . S
C2143 C1242 1.505 . S
C2148 C241 1.502 . S
C2159 C300 1.503 . S
C2164 C1301 1.470 . S
C2175 C1360 1.489 . S
C2180 C418 1.513 . S
