# Generated by pormake.
# Topology sod, (4)-cn, num edge types: 1
# Building blocks:
#     Node 0, Type 0, BuildingBlock: ICAMEG_clean_sbu_1, # of connection points: 4
#     Node 1, Type 0, BuildingBlock: ICAMEG_clean_sbu_1, # of connection points: 4
#     Node 2, Type 0, BuildingBlock: ICAMEG_clean_sbu_1, # of connection points: 4
#     Node 3, Type 0, BuildingBlock: ICAMEG_clean_sbu_1, # of connection points: 4
#     Node 4, Type 0, BuildingBlock: ICAMEG_clean_sbu_1, # of connection points: 4
#     Node 5, Type 0, BuildingBlock: ICAMEG_clean_sbu_1, # of connection points: 4
#     Node 6, Type 0, BuildingBlock: ICAMEG_clean_sbu_1, # of connection points: 4
#     Node 7, Type 0, BuildingBlock: ICAMEG_clean_sbu_1, # of connection points: 4
#     Node 8, Type 0, BuildingBlock: ICAMEG_clean_sbu_1, # of connection points: 4
#     Node 9, Type 0, BuildingBlock: ICAMEG_clean_sbu_1, # of connection points: 4
#     Node 10, Type 0, BuildingBlock: ICAMEG_clean_sbu_1, # of connection points: 4
#     Node 11, Type 0, BuildingBlock: ICAMEG_clean_sbu_1, # of connection points: 4
#     Edge 12, Type (0, 0), BuildingBlock: AJUNOK_clean_linker_0, # of connection points: 2
#     Edge 13, Type (0, 0), BuildingBlock: AJUNOK_clean_linker_0, # of connection points: 2
#     Edge 14, Type (0, 0), BuildingBlock: AJUNOK_clean_linker_0, # of connection points: 2
#     Edge 15, Type (0, 0), BuildingBlock: AJUNOK_clean_linker_0, # of connection points: 2
#     Edge 16, Type (0, 0), BuildingBlock: AJUNOK_clean_linker_0, # of connection points: 2
#     Edge 17, Type (0, 0), BuildingBlock: AJUNOK_clean_linker_0, # of connection points: 2
#     Edge 18, Type (0, 0), BuildingBlock: AJUNOK_clean_linker_0, # of connection points: 2
#     Edge 19, Type (0, 0), BuildingBlock: AJUNOK_clean_linker_0, # of connection points: 2
#     Edge 20, Type (0, 0), BuildingBlock: AJUNOK_clean_linker_0, # of connection points: 2
#     Edge 21, Type (0, 0), BuildingBlock: AJUNOK_clean_linker_0, # of connection points: 2
#     Edge 22, Type (0, 0), BuildingBlock: AJUNOK_clean_linker_0, # of connection points: 2
#     Edge 23, Type (0, 0), BuildingBlock: AJUNOK_clean_linker_0, # of connection points: 2
#     Edge 24, Type (0, 0), BuildingBlock: AJUNOK_clean_linker_0, # of connection points: 2
#     Edge 25, Type (0, 0), BuildingBlock: AJUNOK_clean_linker_0, # of connection points: 2
#     Edge 26, Type (0, 0), BuildingBlock: AJUNOK_clean_linker_0, # of connection points: 2
#     Edge 27, Type (0, 0), BuildingBlock: AJUNOK_clean_linker_0, # of connection points: 2
#     Edge 28, Type (0, 0), BuildingBlock: AJUNOK_clean_linker_0, # of connection points: 2
#     Edge 29, Type (0, 0), BuildingBlock: AJUNOK_clean_linker_0, # of connection points: 2
#     Edge 30, Type (0, 0), BuildingBlock: AJUNOK_clean_linker_0, # of connection points: 2
#     Edge 31, Type (0, 0), BuildingBlock: AJUNOK_clean_linker_0, # of connection points: 2
#     Edge 32, Type (0, 0), BuildingBlock: AJUNOK_clean_linker_0, # of connection points: 2
#     Edge 33, Type (0, 0), BuildingBlock: AJUNOK_clean_linker_0, # of connection points: 2
#     Edge 34, Type (0, 0), BuildingBlock: AJUNOK_clean_linker_0, # of connection points: 2
#     Edge 35, Type (0, 0), BuildingBlock: AJUNOK_clean_linker_0, # of connection points: 2
# Relax obj value: 0.210
# Max RMSD: 0.236
# Mean RMSD: 0.235
data_MOF--net-sod--node1-ICAMEG_clean_sbu_1--edge1-AJUNOK_clean_linker_0
_symmetry_space_group_name_H-M    P1
_symmetry_Int_Tables_number       1
_symmetry_cell_setting            triclinic
loop_
_symmetry_equiv_pos_as_xyz
'x, y, z'
_cell_length_a     31.599037
_cell_length_b     34.841264
_cell_length_c     33.248194
_cell_angle_alpha  90.249994
_cell_angle_beta   89.933695
_cell_angle_gamma 89.902742
loop_
_atom_site_label
_atom_site_type_symbol
_atom_site_fract_x
_atom_site_fract_y
_atom_site_fract_z
_atom_type_partial_charge
Co0 Co 0.00609 0.24211 0.56461 0.0
Co1 Co 1.0 0.24427 0.46331 0.0
O2 O 1.0024 0.27219 0.51477 0.0
C3 C 0.97011 0.31963 0.58725 0.0
O4 O 0.96083 0.32713 0.54971 0.0
C5 C 0.0322 0.3239 0.44414 0.0
O6 O 0.03772 0.33195 0.48232 0.0
O7 O 0.05724 0.22226 0.47654 0.0
O8 O 0.03593 0.19932 0.5359 0.0
H9 H 0.02382 0.12728 0.37714 0.0
H10 H 0.0459 0.32024 0.55784 0.0
O11 O 0.97925 0.28522 0.59734 0.0
H12 H 0.15853 0.23586 0.6089 0.0
H13 H 0.02789 0.21906 0.71289 0.0
H14 H 0.98868 0.16045 0.583 0.0
H15 H 0.08774 0.20999 0.59475 0.0
H16 H 0.02733 0.25765 0.65096 0.0
O17 O 0.02543 0.2892 0.43319 0.0
H18 H 0.02228 0.16441 0.44031 0.0
H19 H 0.97612 0.26193 0.37815 0.0
H20 H 0.98948 0.12063 0.64402 0.0
H21 H 0.11579 0.3473 0.57229 0.0
H22 H 0.0091 0.14992 0.70963 0.0
H23 H 0.17297 0.30508 0.59803 0.0
O24 O 0.94981 0.2185 0.55004 0.0
H25 H 0.88594 0.34626 0.46078 0.0
H26 H 0.91978 0.21109 0.43088 0.0
H27 H 0.84798 0.2352 0.41804 0.0
H28 H 0.83059 0.30339 0.43266 0.0
H29 H 0.95684 0.32089 0.4739 0.0
H30 H 0.9779 0.22618 0.31408 0.0
H31 H 1.00167 0.15819 0.31333 0.0
O32 O 0.97198 0.1993 0.48946 0.0
C33 C 0.06231 0.20016 0.5069 0.0
C34 C 0.01364 0.15696 0.37701 0.0
C35 C 0.98799 0.21247 0.34161 0.0
N36 N 0.99992 0.21568 0.4129 0.0
C37 C 0.01278 0.1782 0.41273 0.0
C38 C 0.98756 0.23279 0.37791 0.0
C39 C 1.00122 0.17431 0.34123 0.0
C40 C 0.06988 0.30167 0.56985 0.0
N41 N 0.06173 0.26373 0.57666 0.0
C42 C 0.10978 0.31717 0.57765 0.0
C43 C 0.14186 0.29348 0.592 0.0
C44 C 0.13375 0.25469 0.59816 0.0
C45 C 0.09342 0.24024 0.59018 0.0
C46 C 0.01907 0.206 0.68452 0.0
C47 C 0.99721 0.17349 0.61137 0.0
C48 C 0.01831 0.22784 0.6494 0.0
N49 N 0.00754 0.21153 0.61338 0.0
C50 C 0.99762 0.15075 0.64586 0.0
C51 C 0.0086 0.16721 0.68266 0.0
C52 C 0.94538 0.19772 0.51827 0.0
C53 C 0.8932 0.31658 0.45389 0.0
C54 C 0.91277 0.24082 0.43736 0.0
C55 C 0.87189 0.25431 0.42998 0.0
C56 C 0.86214 0.29252 0.43821 0.0
N57 N 0.94344 0.26466 0.4523 0.0
C58 C 0.9337 0.30202 0.46098 0.0
Co59 Co 0.72586 0.05527 0.51955 0.0
Co60 Co 0.73203 0.95962 0.50341 0.0
O61 O 0.76174 1.0089 0.51297 0.0
C62 C 0.81155 0.08387 0.49209 0.0
O63 O 0.82376 0.04908 0.48227 0.0
C64 C 0.8183 0.93659 0.53527 0.0
O65 O 0.82854 0.97247 0.54245 0.0
O66 O 0.70591 0.96634 0.55824 0.0
O67 O 0.67914 0.02359 0.54242 0.0
H68 H 0.60382 0.8748 0.51123 0.0
H69 H 0.80883 0.04484 0.56141 0.0
O70 O 0.77286 0.09063 0.50078 0.0
H71 H 0.70989 0.08831 0.66674 0.0
H72 H 0.68836 0.1939 0.54905 0.0
H73 H 0.63529 0.06872 0.5018 0.0
H74 H 0.68536 0.07933 0.59722 0.0
H75 H 0.73572 0.13803 0.54514 0.0
O76 O 0.78037 0.92813 0.5257 0.0
H77 H 0.64389 0.93492 0.51925 0.0
H78 H 0.7537 0.88166 0.4708 0.0
H79 H 0.58653 0.12367 0.50578 0.0
H80 H 0.8345 0.05321 0.63054 0.0
H81 H 0.6129 0.18693 0.52954 0.0
H82 H 0.78502 0.07537 0.6839 0.0
O83 O 0.70431 0.04571 0.46327 0.0
H84 H 0.8486 0.97114 0.40002 0.0
H85 H 0.69929 0.93672 0.42228 0.0
H86 H 0.72903 0.93283 0.35407 0.0
H87 H 0.80435 0.94982 0.34249 0.0
H88 H 0.81751 0.97535 0.46744 0.0
H89 H 0.71506 0.8207 0.46289 0.0
H90 H 0.63943 0.81705 0.48298 0.0
O91 O 0.68306 0.98664 0.47828 0.0
C92 C 0.68173 0.995 0.56598 0.0
C93 C 0.63681 0.87595 0.50254 0.0
C94 C 0.69924 0.84558 0.4755 0.0
N95 N 0.70138 0.91171 0.49614 0.0
C96 C 0.65973 0.90994 0.50709 0.0
C97 C 0.72112 0.88006 0.48046 0.0
C98 C 0.65681 0.84357 0.4867 0.0
C99 C 0.78702 0.05478 0.58407 0.0
N100 N 0.7459 0.06283 0.57453 0.0
C101 C 0.80179 0.05935 0.62338 0.0
C102 C 0.77403 0.07178 0.6533 0.0
C103 C 0.73195 0.07918 0.64366 0.0
C104 C 0.71833 0.07432 0.60403 0.0
C105 C 0.67646 0.16651 0.53862 0.0
C106 C 0.64719 0.096 0.51233 0.0
C107 C 0.70337 0.13474 0.5361 0.0
N108 N 0.68867 0.0999 0.52336 0.0
C109 C 0.61933 0.12711 0.51443 0.0
C110 C 0.63414 0.16258 0.52772 0.0
C111 C 0.6828 0.0155 0.45499 0.0
C112 C 0.81587 0.96321 0.40473 0.0
C113 C 0.73219 0.94397 0.41781 0.0
C114 C 0.74882 0.94177 0.37894 0.0
C115 C 0.79102 0.95134 0.37246 0.0
N116 N 0.75684 0.95518 0.44962 0.0
C117 C 0.79808 0.9652 0.44317 0.0
Co118 Co 0.01664 0.78405 0.45654 0.0
Co119 Co 0.00663 0.78204 0.55774 0.0
O120 O 0.01115 0.75399 0.50628 0.0
C121 C 0.98189 0.70656 0.43108 0.0
O122 O 0.97496 0.69684 0.46856 0.0
C123 C 0.03832 0.70252 0.5779 0.0
O124 O 0.0451 0.6944 0.53989 0.0
O125 O 0.06392 0.80491 0.54622 0.0
O126 O 0.04447 0.82713 0.48614 0.0
H127 H 0.02384 0.89968 0.64424 0.0
H128 H 0.05665 0.70602 0.46383 0.0
O129 O 0.99148 0.74123 0.42264 0.0
H130 H 0.17113 0.79132 0.41889 0.0
H131 H 0.04703 0.80801 0.30979 0.0
H132 H 0.99724 0.86521 0.43723 0.0
H133 H 0.09952 0.81683 0.4303 0.0
H134 H 0.04454 0.76949 0.37175 0.0
O135 O 0.03187 0.73735 0.58862 0.0
H136 H 0.02491 0.86257 0.58103 0.0
H137 H 0.98277 0.76334 0.64271 0.0
H138 H 0.99993 0.90502 0.37624 0.0
H139 H 0.1274 0.67931 0.45207 0.0
H140 H 0.0248 0.87642 0.31183 0.0
H141 H 0.18551 0.72199 0.42943 0.0
O142 O 0.95946 0.80673 0.46906 0.0
H143 H 0.89403 0.67899 0.5575 0.0
H144 H 0.9254 0.81417 0.58933 0.0
H145 H 0.85448 0.78863 0.6033 0.0
H146 H 0.83829 0.7205 0.58753 0.0
H147 H 0.96436 0.70549 0.54423 0.0
H148 H 0.98198 0.79911 0.70679 0.0
H149 H 1.00239 0.86792 0.7078 0.0
O150 O 0.97844 0.82664 0.53058 0.0
C151 C 0.06983 0.82677 0.51584 0.0
C152 C 0.01504 0.86968 0.64424 0.0
C153 C 0.99168 0.81322 0.67936 0.0
N154 N 1.00452 0.81058 0.60815 0.0
C155 C 0.01561 0.84848 0.60849 0.0
C156 C 0.99266 0.79294 0.64304 0.0
C157 C 1.00303 0.85184 0.67989 0.0
C158 C 0.08109 0.7248 0.45319 0.0
N159 N 0.07304 0.76281 0.44662 0.0
C160 C 0.12145 0.70949 0.4469 0.0
C161 C 0.15405 0.73345 0.43429 0.0
C162 C 0.14599 0.7723 0.42833 0.0
C163 C 0.10521 0.78655 0.4348 0.0
C164 C 0.0358 0.82074 0.33758 0.0
C165 C 0.00793 0.85245 0.40935 0.0
C166 C 0.03386 0.79891 0.37265 0.0
N167 N 0.01992 0.81476 0.40794 0.0
C168 C 0.00946 0.87519 0.37489 0.0
C169 C 0.02341 0.85913 0.33877 0.0
C170 C 0.95318 0.82721 0.5007 0.0
C171 C 0.90082 0.70859 0.56505 0.0
C172 C 0.91909 0.78429 0.5829 0.0
C173 C 0.87866 0.77004 0.59077 0.0
C174 C 0.86956 0.73188 0.58183 0.0
N175 N 0.95015 0.76104 0.56744 0.0
C176 C 0.94098 0.72379 0.55784 0.0
Co177 Co 0.28042 0.97047 0.52001 0.0
Co178 Co 0.28459 0.06714 0.50571 0.0
O179 O 0.25126 0.01972 0.51262 0.0
C180 C 0.19362 0.9489 0.49929 0.0
O181 O 0.18299 0.9814 0.51659 0.0
C182 C 0.19838 0.09107 0.53669 0.0
O183 O 0.19002 0.0559 0.54794 0.0
O184 O 0.30752 0.0591 0.56114 0.0
O185 O 0.32642 0.99706 0.55201 0.0
H186 H 0.41763 0.1462 0.51236 0.0
H187 H 0.24686 0.01938 0.5882 0.0
O188 O 0.23275 0.94215 0.49191 0.0
H189 H 0.20801 0.88698 0.62304 0.0
H190 H 0.33461 0.84471 0.46667 0.0
H191 H 0.33407 0.93214 0.58325 0.0
H192 H 0.24602 0.90032 0.56031 0.0
H193 H 0.29479 0.90556 0.46454 0.0
O194 O 0.23565 0.09986 0.52527 0.0
H195 H 0.3749 0.08762 0.51905 0.0
H196 H 0.26581 0.14731 0.47871 0.0
H197 H 0.37509 0.87222 0.58655 0.0
H198 H 0.20934 1.0072 0.65124 0.0
H199 H 0.37524 0.8277 0.52799 0.0
H200 H 0.18951 0.94056 0.66933 0.0
O201 O 0.31064 0.98041 0.46746 0.0
H202 H 0.1739 0.06006 0.39687 0.0
H203 H 0.3232 0.08899 0.42688 0.0
H204 H 0.29747 0.09432 0.35733 0.0
H205 H 0.22223 0.08004 0.34189 0.0
H206 H 0.20096 0.05452 0.46582 0.0
H207 H 0.30718 0.20676 0.47224 0.0
H208 H 0.38377 0.20648 0.48894 0.0
O209 O 0.33418 0.03813 0.48444 0.0
C210 C 0.32707 0.02852 0.57238 0.0
C211 C 0.38421 0.14681 0.50529 0.0
C212 C 0.32222 0.18079 0.48289 0.0
N213 N 0.31754 0.11406 0.50037 0.0
C214 C 0.35976 0.11368 0.50917 0.0
C215 C 0.29879 0.14708 0.48712 0.0
C216 C 0.3652 0.1806 0.49216 0.0
C217 C 0.23963 0.99021 0.59582 0.0
N218 N 0.25071 0.9606 0.57078 0.0
C219 C 0.21779 0.9835 0.63165 0.0
C220 C 0.20659 0.94615 0.64174 0.0
C221 C 0.21704 0.91611 0.61585 0.0
C222 C 0.23899 0.92391 0.58036 0.0
C223 C 0.33459 0.86373 0.49249 0.0
C224 C 0.33425 0.91334 0.55765 0.0
C225 C 0.31187 0.89815 0.49157 0.0
N226 N 0.31152 0.92234 0.52404 0.0
C227 C 0.35738 0.8792 0.55969 0.0
C228 C 0.35744 0.85424 0.52686 0.0
C229 C 0.33498 1.00906 0.4615 0.0
C230 C 0.20664 0.06678 0.40327 0.0
C231 C 0.29029 0.08305 0.42066 0.0
C232 C 0.27595 0.086 0.38108 0.0
C233 C 0.23378 0.07792 0.37243 0.0
N234 N 0.26341 0.0725 0.45095 0.0
C235 C 0.22214 0.064 0.44248 0.0
Co236 Co 0.4951 0.96423 0.27733 0.0
Co237 Co 0.51319 0.06132 0.27538 0.0
O238 O 0.50339 1.01234 0.24706 0.0
C239 C 0.52719 0.93961 0.19542 0.0
O240 O 0.53388 0.97508 0.18407 0.0
C241 C 0.49374 0.08605 0.19294 0.0
O242 O 0.50868 0.05274 0.18102 0.0
O243 O 0.45806 0.05363 0.30477 0.0
O244 O 0.46741 0.99224 0.32246 0.0
H245 H 0.5897 0.15655 0.36439 0.0
H246 H 0.45654 0.98105 0.19611 0.0
O247 O 0.52072 0.93219 0.23249 0.0
H248 H 0.34039 0.92913 0.27804 0.0
H249 H 0.46286 0.82336 0.2947 0.0
H250 H 0.50428 0.94315 0.36322 0.0
H251 H 0.41106 0.93792 0.30735 0.0
H252 H 0.4692 0.88367 0.25684 0.0
O253 O 0.48518 0.09102 0.23029 0.0
H254 H 0.58265 0.09693 0.32507 0.0
H255 H 0.45787 0.12789 0.29113 0.0
H256 H 0.49782 0.88365 0.40249 0.0
H257 H 0.38676 0.97224 0.1657 0.0
H258 H 0.47709 0.82308 0.36817 0.0
H259 H 0.32781 0.94595 0.20654 0.0
O260 O 0.55168 0.97216 0.30404 0.0
H261 H 0.64781 0.01657 0.20751 0.0
H262 H 0.56127 0.1292 0.24346 0.0
H263 H 0.62801 0.13837 0.20715 0.0
H264 H 0.67211 0.08185 0.18894 0.0
H265 H 0.58097 1.00855 0.24383 0.0
H266 H 0.46369 0.18833 0.32959 0.0
H267 H 0.53001 0.20301 0.36657 0.0
O268 O 0.544 0.03466 0.31976 0.0
C269 C 0.44816 0.02412 0.32555 0.0
C270 C 0.56071 0.15061 0.34822 0.0
C271 C 0.49005 0.16846 0.32865 0.0
N272 N 0.52022 0.10915 0.30507 0.0
C273 C 0.55652 0.11674 0.32597 0.0
C274 C 0.48702 0.13429 0.30673 0.0
C275 C 0.52722 0.17665 0.34944 0.0
C276 C 0.43193 0.96849 0.21406 0.0
N277 N 0.43918 0.95793 0.25303 0.0
C278 C 0.39202 0.96405 0.19666 0.0
C279 C 0.35894 0.94942 0.2196 0.0
C280 C 0.36601 0.93989 0.25964 0.0
C281 C 0.40635 0.94469 0.27599 0.0
C282 C 0.47237 0.84947 0.30995 0.0
C283 C 0.49573 0.91692 0.34801 0.0
C284 C 0.47655 0.88365 0.28853 0.0
N285 N 0.48835 0.91684 0.30754 0.0
C286 C 0.49189 0.8833 0.37043 0.0
C287 C 0.48025 0.84934 0.35117 0.0
C288 C 0.563 1.00254 0.32323 0.0
C289 C 0.62912 0.04148 0.21564 0.0
C290 C 0.58024 0.10434 0.23641 0.0
C291 C 0.61807 0.10978 0.21549 0.0
C292 C 0.64272 0.07808 0.2052 0.0
N293 N 0.56719 0.06837 0.24726 0.0
C294 C 0.59107 0.03715 0.23655 0.0
Co295 Co 1.00074 0.55422 0.23614 0.0
Co296 Co 0.01293 0.45787 0.24727 0.0
O297 O 1.00565 0.50913 0.27175 0.0
C298 C 0.03062 0.58554 0.31667 0.0
O299 O 0.03665 0.55087 0.33065 0.0
C300 C 0.97759 0.44158 0.32976 0.0
O301 O 0.9735 0.47798 0.33934 0.0
O302 O 0.95778 0.46599 0.21804 0.0
O303 O 0.97629 0.52245 0.19221 0.0
H304 H 0.00635 0.36602 0.13048 0.0
H305 H 0.95711 0.55004 0.31646 0.0
O306 O 0.0232 0.59034 0.27925 0.0
H307 H 0.84648 0.58853 0.22063 0.0
H308 H 0.96891 0.6917 0.19948 0.0
H309 H 0.02154 0.56689 0.14999 0.0
H310 H 0.91915 0.57653 0.19726 0.0
H311 H 0.97126 0.63563 0.24435 0.0
O312 O 0.98261 0.43171 0.29305 0.0
H313 H 1.00194 0.42907 0.16402 0.0
H314 H 0.03481 0.37854 0.27562 0.0
H315 H 0.01907 0.62192 0.1039 0.0
H316 H 0.88515 0.56214 0.34104 0.0
H317 H 0.99276 0.685 0.12856 0.0
H318 H 0.829 0.58164 0.29308 0.0
O319 O 0.05873 0.54202 0.21463 0.0
H320 H 0.11586 0.47292 0.36311 0.0
H321 H 0.09641 0.42116 0.22671 0.0
H322 H 0.16486 0.41337 0.25997 0.0
H323 H 0.17509 0.43891 0.32909 0.0
H324 H 0.04862 0.48098 0.32826 0.0
H325 H 0.03865 0.31474 0.24356 0.0
H326 H 0.02475 0.30821 0.17033 0.0
O327 O 0.04552 0.48015 0.20106 0.0
C328 C 0.95187 0.49365 0.19349 0.0
C329 C 0.0124 0.36845 0.16243 0.0
C330 C 0.03042 0.33967 0.22588 0.0
N331 N 0.0178 0.40758 0.22187 0.0
C332 C 0.00994 0.40413 0.18161 0.0
C333 C 0.02771 0.37583 0.24401 0.0
C334 C 0.02269 0.33604 0.1848 0.0
C335 C 0.93352 0.55928 0.29535 0.0
N336 N 0.94329 0.56394 0.25561 0.0
C337 C 0.89247 0.56577 0.30947 0.0
C338 C 0.86097 0.57663 0.28256 0.0
C339 C 0.87077 0.58057 0.24196 0.0
C340 C 0.91216 0.57385 0.22895 0.0
C341 C 0.98087 0.66449 0.18846 0.0
C342 C 0.01035 0.59423 0.16116 0.0
C343 C 0.9828 0.63276 0.21393 0.0
N344 N 0.99762 0.59819 0.20028 0.0
C345 C 0.0089 0.62531 0.13482 0.0
C346 C 0.99414 0.66068 0.14866 0.0
C347 C 0.06724 0.5106 0.1958 0.0
C348 C 0.11179 0.46137 0.33308 0.0
C349 C 0.1002 0.43287 0.25635 0.0
C350 C 0.13928 0.42812 0.27528 0.0
C351 C 0.14501 0.44239 0.314 0.0
N352 N 0.06723 0.45101 0.27528 0.0
C353 C 0.07323 0.46564 0.31309 0.0
Co354 Co 0.51186 0.06144 0.75153 0.0
Co355 Co 0.50755 0.96499 0.74095 0.0
O356 O 0.51313 1.01026 0.77695 0.0
C357 C 0.54593 0.07918 0.83403 0.0
O358 O 0.54354 0.04393 0.84766 0.0
C359 C 0.4867 0.93863 0.8251 0.0
O360 O 0.48338 0.97396 0.83832 0.0
O361 O 0.45017 0.98524 0.7252 0.0
O362 O 0.47561 0.04209 0.70655 0.0
H363 H 0.47091 0.90814 0.60607 0.0
H364 H 0.47107 0.04327 0.83218 0.0
O365 O 0.54662 0.08522 0.79617 0.0
H366 H 0.3669 0.12242 0.76112 0.0
H367 H 0.50291 0.20606 0.74397 0.0
H368 H 0.52937 0.08661 0.66808 0.0
H369 H 0.43392 0.10531 0.72874 0.0
H370 H 0.49864 0.14325 0.77756 0.0
O371 O 0.48566 0.93185 0.78715 0.0
H372 H 0.48371 0.9597 0.65482 0.0
H373 H 0.5072 0.87759 0.74587 0.0
H374 H 0.53405 0.14868 0.63332 0.0
H375 H 0.40523 0.06041 0.86602 0.0
H376 H 0.52059 0.20906 0.67126 0.0
H377 H 0.35215 0.10054 0.83068 0.0
O378 O 0.56471 0.04556 0.72191 0.0
H379 H 0.63519 0.94887 0.8306 0.0
H380 H 0.57691 0.92522 0.69546 0.0
H381 H 0.6488 0.90328 0.71124 0.0
H382 H 0.67853 0.91485 0.77929 0.0
H383 H 0.56337 0.97002 0.81392 0.0
H384 H 0.49483 0.8252 0.69823 0.0
H385 H 0.47663 0.84013 0.62738 0.0
O386 O 0.53396 0.99378 0.69572 0.0
C387 C 0.44674 0.01659 0.70522 0.0
C388 C 0.47947 0.90118 0.6367 0.0
C389 C 0.49284 0.85472 0.68837 0.0
N390 N 0.49822 0.92215 0.70352 0.0
C391 C 0.48717 0.93039 0.66464 0.0
C392 C 0.5002 0.88473 0.71548 0.0
C393 C 0.48257 0.86308 0.64867 0.0
C394 C 0.44968 0.06178 0.81681 0.0
N395 N 0.45878 0.07526 0.77924 0.0
C396 C 0.41165 0.07098 0.83606 0.0
C397 C 0.38183 0.09332 0.81621 0.0
C398 C 0.39014 0.10565 0.77729 0.0
C399 C 0.42859 0.09596 0.75913 0.0
C400 C 0.50901 0.17997 0.72714 0.0
C401 C 0.52386 0.11266 0.68498 0.0
C402 C 0.50695 0.14432 0.74609 0.0
N403 N 0.51388 0.11115 0.72495 0.0
C404 C 0.52642 0.14779 0.66505 0.0
C405 C 0.51888 0.18164 0.68634 0.0
C406 C 0.56454 0.01737 0.6971 0.0
C407 C 0.62235 0.94306 0.80104 0.0
C408 C 0.58876 0.92943 0.7256 0.0
C409 C 0.62992 0.91734 0.73416 0.0
C410 C 0.64666 0.92401 0.77225 0.0
N411 N 0.56445 0.94714 0.75434 0.0
C412 C 0.58133 0.9548 0.79138 0.0
Co413 Co 0.99596 0.46732 0.77763 0.0
Co414 Co 0.00613 0.56417 0.77545 0.0
O415 O 1.002 0.51488 0.74612 0.0
C416 C 0.02844 0.44171 0.69655 0.0
O417 O 0.03376 0.47709 0.68425 0.0
C418 C 0.97908 0.58515 0.69108 0.0
O419 O 0.97493 0.54907 0.68044 0.0
O420 O 0.94817 0.55379 0.79801 0.0
O421 O 0.96547 0.49569 0.82137 0.0
H422 H 0.98584 0.64759 0.89779 0.0
H423 H 0.95618 0.47854 0.69576 0.0
O424 O 0.02377 0.43504 0.73404 0.0
H425 H 0.84414 0.42293 0.77995 0.0
H426 H 0.97197 0.32592 0.80126 0.0
H427 H 0.00907 0.44978 0.86381 0.0
H428 H 0.9137 0.43775 0.80893 0.0
H429 H 0.97452 0.3849 0.76074 0.0
O430 O 0.98249 0.59399 0.72828 0.0
H431 H 0.98533 0.58712 0.8592 0.0
H432 H 0.03175 0.64485 0.75612 0.0
H433 H 0.00619 0.39171 0.90571 0.0
H434 H 0.88738 0.46419 0.66575 0.0
H435 H 0.98762 0.32911 0.87441 0.0
H436 H 0.83051 0.43587 0.70775 0.0
O437 O 0.05202 0.47966 0.80359 0.0
H438 H 0.12323 0.55968 0.67146 0.0
H439 H 0.08639 0.59397 0.81104 0.0
H440 H 0.15882 0.60477 0.78678 0.0
H441 H 0.17774 0.58793 0.71637 0.0
H442 H 0.05159 0.54896 0.69693 0.0
H443 H 0.03204 0.70618 0.79329 0.0
H444 H 0.00919 0.70779 0.8648 0.0
O445 O 0.03217 0.53847 0.82298 0.0
C446 C 0.94067 0.52455 0.8202 0.0
C447 C 0.9957 0.64732 0.8666 0.0
C448 C 0.02151 0.68021 0.80794 0.0
N449 N 0.00786 0.61242 0.80518 0.0
C450 C 0.99543 0.6131 0.84456 0.0
C451 C 0.0208 0.64545 0.78686 0.0
C452 C 0.00878 0.68108 0.84807 0.0
C453 C 0.93255 0.46538 0.71426 0.0
N454 N 0.94052 0.45696 0.75366 0.0
C455 C 0.89314 0.45769 0.69708 0.0
C456 C 0.86123 0.44191 0.72064 0.0
C457 C 0.8689 0.43455 0.76109 0.0
C458 C 0.90865 0.44276 0.77725 0.0
C459 C 0.9803 0.35298 0.81523 0.0
C460 C 1.00097 0.42276 0.84998 0.0
C461 C 0.98222 0.38644 0.79232 0.0
N462 N 0.9924 0.42084 0.80976 0.0
C463 C 0.99939 0.38991 0.87385 0.0
C464 C 0.989 0.3548 0.85627 0.0
C465 C 0.05754 0.51016 0.82467 0.0
C466 C 0.11522 0.5678 0.702 0.0
C467 C 0.09387 0.58708 0.78012 0.0
C468 C 0.13519 0.59308 0.76664 0.0
C469 C 0.14581 0.58354 0.72722 0.0
N470 N 0.0635 0.57254 0.75495 0.0
C471 C 0.07423 0.56218 0.71656 0.0
Co472 Co 0.23505 0.56863 0.0108 0.0
Co473 Co 0.22844 0.47263 0.99335 0.0
O474 O 0.26371 0.51926 0.99932 0.0
C475 C 0.31771 0.59113 0.97127 0.0
O476 O 0.32781 0.55524 0.9638 0.0
C477 C 0.31487 0.44409 0.01921 0.0
O478 O 0.32735 0.47925 0.02671 0.0
O479 O 0.20861 0.48069 0.05005 0.0
O480 O 0.18903 0.54184 0.04157 0.0
H481 H 0.09329 0.39851 0.0109 0.0
H482 H 0.32359 0.55114 0.03826 0.0
O483 O 0.28047 0.59956 0.98314 0.0
H484 H 0.25112 0.60174 0.15824 0.0
H485 H 0.2224 0.70885 0.04807 0.0
H486 H 0.1455 0.59281 1.00482 0.0
H487 H 0.21362 0.59677 0.09391 0.0
H488 H 0.26029 0.6477 0.0377 0.0
O489 O 0.2762 0.43756 0.01072 0.0
H490 H 0.13922 0.4554 0.01472 0.0
H491 H 0.24034 0.39268 0.96167 0.0
H492 H 0.10618 0.65315 0.01564 0.0
H493 H 0.36263 0.55655 0.10151 0.0
H494 H 0.14468 0.71178 0.0373 0.0
H495 H 0.32649 0.58189 0.16245 0.0
O496 O 0.20352 0.56197 0.95855 0.0
H497 H 0.33458 0.47415 0.87988 0.0
H498 H 0.18531 0.45237 0.91607 0.0
H499 H 0.20774 0.44495 0.8456 0.0
H500 H 0.28292 0.45572 0.82702 0.0
H501 H 0.31085 0.48144 0.94982 0.0
H502 H 0.19575 0.33482 0.95797 0.0
H503 H 0.12151 0.33755 0.98253 0.0
O504 O 0.17967 0.50377 0.97393 0.0
C505 C 0.18806 0.51061 0.06149 0.0
C506 C 0.12564 0.39688 1.00028 0.0
C507 C 0.18316 0.36112 0.9707 0.0
N508 N 0.19282 0.42726 0.9892 0.0
C509 C 0.15187 0.42904 1.00239 0.0
C510 C 0.20846 0.39386 0.97331 0.0
C511 C 0.1415 0.36269 0.98439 0.0
C512 C 0.30742 0.5626 0.06402 0.0
N513 N 0.266 0.57378 0.06161 0.0
C514 C 0.32982 0.56543 0.1001 0.0
C515 C 0.30955 0.57956 0.13427 0.0
C516 C 0.2673 0.59064 0.13193 0.0
C517 C 0.246 0.58745 0.09529 0.0
C518 C 0.20528 0.68356 0.03842 0.0
C519 C 0.16251 0.61817 0.01426 0.0
C520 C 0.22667 0.64894 0.03208 0.0
N521 N 0.20527 0.61675 0.02021 0.0
C522 C 0.14006 0.65227 0.02033 0.0
C523 C 0.16168 0.68516 0.03245 0.0
C524 C 0.17962 0.53313 0.9515 0.0
C525 C 0.3018 0.46903 0.88763 0.0
C526 C 0.21821 0.45679 0.90849 0.0
C527 C 0.23068 0.45263 0.8684 0.0
C528 C 0.27281 0.45874 0.85799 0.0
N529 N 0.24688 0.46648 0.93763 0.0
C530 C 0.28816 0.47292 0.92742 0.0
Co531 Co 0.51658 0.2901 0.9592 0.0
Co532 Co 0.49597 0.28815 0.059 0.0
O533 O 0.5089 0.25994 1.00886 0.0
C534 C 0.48994 0.20995 0.93291 0.0
O535 O 0.47491 0.20272 0.96886 0.0
C536 C 0.53576 0.21316 0.08503 0.0
O537 O 0.54641 0.20474 0.04787 0.0
O538 O 0.55163 0.31563 0.05228 0.0
O539 O 0.53572 0.33598 0.99057 0.0
H540 H 0.49184 0.40807 0.14354 0.0
H541 H 0.56246 0.2159 0.97116 0.0
O542 O 0.50088 0.24426 0.92393 0.0
H543 H 0.67324 0.30955 0.93713 0.0
H544 H 0.56357 0.31876 0.817 0.0
H545 H 0.4886 0.36838 0.93636 0.0
H546 H 0.59866 0.32956 0.94106 0.0
H547 H 0.55918 0.28049 0.87885 0.0
O548 O 0.52247 0.24683 0.09365 0.0
H549 H 0.50393 0.37019 0.08183 0.0
H550 H 0.46371 0.269 0.14124 0.0
H551 H 0.49311 0.40829 0.87574 0.0
H552 H 0.63644 0.19465 0.967 0.0
H553 H 0.53052 0.38347 0.81522 0.0
H554 H 0.69264 0.24158 0.94988 0.0
O555 O 0.45619 0.30784 0.96535 0.0
H556 H 0.39655 0.17479 0.05252 0.0
H557 H 0.40828 0.3134 0.08008 0.0
H558 H 0.33927 0.28167 0.08717 0.0
H559 H 0.33296 0.2118 0.07347 0.0
H560 H 0.46477 0.2075 0.04583 0.0
H561 H 0.4519 0.30561 0.20387 0.0
H562 H 0.46579 0.37576 0.20522 0.0
O563 O 0.46621 0.32937 0.0282 0.0
C564 C 0.55823 0.33771 0.02221 0.0
C565 C 0.48587 0.37748 0.1434 0.0
C566 C 0.46355 0.31999 0.17728 0.0
N567 N 0.48525 0.31722 0.10805 0.0
C568 C 0.49272 0.35584 0.10852 0.0
C569 C 0.47075 0.2993 0.14185 0.0
C570 C 0.47126 0.35935 0.178 0.0
C571 C 0.58631 0.2365 0.96313 0.0
N572 N 0.57566 0.27381 0.95556 0.0
C573 C 0.62838 0.22429 0.96105 0.0
C574 C 0.6599 0.25063 0.95151 0.0
C575 C 0.64904 0.28872 0.9443 0.0
C576 C 0.60663 0.29987 0.94662 0.0
C577 C 0.54647 0.32965 0.84287 0.0
C578 C 0.50443 0.35699 0.91014 0.0
C579 C 0.54314 0.30761 0.87771 0.0
N580 N 0.52193 0.32106 0.9107 0.0
C581 C 0.5071 0.37992 0.87587 0.0
C582 C 0.5281 0.366 0.84195 0.0
C583 C 0.4448 0.32825 0.99574 0.0
C584 C 0.39895 0.20518 0.05901 0.0
C585 C 0.40615 0.28289 0.07443 0.0
C586 C 0.36682 0.2651 0.07841 0.0
C587 C 0.36328 0.22594 0.07069 0.0
N588 N 0.44138 0.26223 0.06381 0.0
C589 C 0.43782 0.22392 0.05556 0.0
Co590 Co 0.7802 0.46567 0.01527 0.0
Co591 Co 0.78309 0.56239 1.00912 0.0
O592 O 0.74925 0.51497 0.01383 0.0
C593 C 0.69178 0.44695 0.9876 0.0
O594 O 0.68331 0.48339 0.98208 0.0
C595 C 0.69952 0.58624 0.04505 0.0
O596 O 0.68949 0.55043 0.05226 0.0
O597 O 0.80939 0.54861 0.06223 0.0
O598 O 0.83058 0.49114 0.04009 0.0
H599 H 0.91919 0.63584 0.02138 0.0
H600 H 0.69801 0.4769 0.05935 0.0
O601 O 0.72994 0.43629 0.99341 0.0
H602 H 0.79556 0.42195 0.15906 0.0
H603 H 0.80197 0.32332 0.03463 0.0
H604 H 0.86763 0.44467 0.99165 0.0
H605 H 0.81975 0.4344 0.09006 0.0
H606 H 0.76192 0.384 0.03765 0.0
O607 O 0.73753 0.59465 0.03569 0.0
H608 H 0.87388 0.57839 0.02322 0.0
H609 H 0.76721 0.64514 0.98954 0.0
H610 H 0.90918 0.38485 0.98886 0.0
H611 H 0.67252 0.46452 0.1277 0.0
H612 H 0.87634 0.32352 0.01032 0.0
H613 H 0.72135 0.43679 0.17835 0.0
O614 O 0.80162 0.47807 0.95981 0.0
H615 H 0.66467 0.56931 0.90741 0.0
H616 H 0.81666 0.59127 0.93074 0.0
H617 H 0.78649 0.60444 0.86411 0.0
H618 H 0.70988 0.59367 0.85201 0.0
H619 H 0.6961 0.55603 0.97327 0.0
H620 H 0.81122 0.70344 0.98788 0.0
H621 H 0.88789 0.69898 1.00366 0.0
O622 O 0.82883 0.53406 0.97963 0.0
C623 C 0.83128 0.51787 0.06631 0.0
C624 C 0.88581 0.63817 0.0145 0.0
C625 C 0.8252 0.67612 0.9958 0.0
N626 N 0.8178 0.60836 1.00678 0.0
C627 C 0.85996 0.60571 0.01549 0.0
C628 C 0.80033 0.64305 0.99713 0.0
C629 C 0.86823 0.67359 1.00459 0.0
C630 C 0.71941 0.46419 0.08056 0.0
N631 N 0.76003 0.45532 0.06979 0.0
C632 C 0.7048 0.45749 0.11956 0.0
C633 C 0.73221 0.442 0.14798 0.0
C634 C 0.77378 0.4336 0.13715 0.0
C635 C 0.78723 0.44061 0.09785 0.0
C636 C 0.81656 0.34979 0.02492 0.0
C637 C 0.85301 0.41816 1.00098 0.0
C638 C 0.7938 0.38418 0.02612 0.0
N639 N 0.81204 0.41783 0.01424 0.0
C640 C 0.87675 0.38434 0.99936 0.0
C641 C 0.8583 0.34994 0.01137 0.0
C642 C 0.82508 0.50741 0.95355 0.0
C643 C 0.69801 0.57456 0.91241 0.0
C644 C 0.78316 0.58689 0.92612 0.0
C645 C 0.7663 0.59429 0.88813 0.0
C646 C 0.72338 0.58817 0.88133 0.0
N647 N 0.75804 0.57394 0.95678 0.0
C648 C 0.71602 0.56736 0.94998 0.0
Co649 Co 0.5089 0.74191 0.06175 0.0
Co650 Co 0.51193 0.74515 0.96036 0.0
O651 O 0.50952 0.77239 0.01217 0.0
C652 C 0.47267 0.81966 0.0824 0.0
O653 O 0.46545 0.82735 0.04452 0.0
C654 C 0.54193 0.82579 0.94471 0.0
O655 O 0.53998 0.83503 0.98295 0.0
O656 O 0.56732 0.72222 0.97844 0.0
O657 O 0.53976 0.6986 0.03495 0.0
H658 H 0.53957 0.62861 0.87457 0.0
H659 H 0.55093 0.81907 0.05792 0.0
O660 O 0.48062 0.78515 0.09286 0.0
H661 H 0.65716 0.7327 0.11704 0.0
H662 H 0.51845 0.71715 0.21091 0.0
H663 H 0.4879 0.66054 0.07795 0.0
H664 H 0.58713 0.70814 0.09778 0.0
H665 H 0.52366 0.75628 0.14955 0.0
O666 O 0.54116 0.79047 0.93396 0.0
H667 H 0.53141 0.6645 0.93815 0.0
H668 H 0.50392 0.76644 0.87344 0.0
H669 H 0.48299 0.62017 0.1384 0.0
H670 H 0.6201 0.84485 0.07741 0.0
H671 H 0.49823 0.64845 0.20554 0.0
H672 H 0.67404 0.80162 0.10723 0.0
O673 O 0.45364 0.72005 0.04271 0.0
H674 H 0.39611 0.84559 0.94965 0.0
H675 H 0.43731 0.7126 0.91757 0.0
H676 H 0.36792 0.73649 0.89592 0.0
H677 H 0.34679 0.80356 0.91166 0.0
H678 H 0.46481 0.82059 0.97075 0.0
H679 H 0.51244 0.73177 0.80922 0.0
H680 H 0.53013 0.66227 0.80948 0.0
O681 O 0.48014 0.70031 0.98346 0.0
C682 C 0.5689 0.69936 1.00849 0.0
C683 C 0.53182 0.65888 0.87406 0.0
C684 C 0.51669 0.71678 0.83739 0.0
N685 N 0.51725 0.71756 0.90964 0.0
C686 C 0.5271 0.67936 0.91 0.0
C687 C 0.51221 0.73634 0.8739 0.0
C688 C 0.52657 0.67779 0.83755 0.0
C689 C 0.57346 0.80009 0.07166 0.0
N690 N 0.5639 0.76235 0.07792 0.0
C691 C 0.61296 0.81486 0.08233 0.0
C692 C 0.64324 0.7906 0.09898 0.0
C693 C 0.63376 0.75198 0.10456 0.0
C694 C 0.59386 0.73828 0.09368 0.0
C695 C 0.51152 0.70453 0.18185 0.0
C696 C 0.49457 0.67313 0.107 0.0
C697 C 0.51403 0.72668 0.14703 0.0
N698 N 0.5057 0.71092 0.11016 0.0
C699 C 0.49173 0.65009 0.14116 0.0
C700 C 0.50026 0.66598 0.17881 0.0
C701 C 0.45125 0.69986 0.01038 0.0
C702 C 0.40519 0.8165 0.94196 0.0
C703 C 0.42908 0.74212 0.92396 0.0
C704 C 0.38941 0.75538 0.91177 0.0
C705 C 0.37752 0.79293 0.92072 0.0
N706 N 0.45681 0.76568 0.94388 0.0
C707 C 0.44462 0.8022 0.95359 0.0
C708 C 0.00755 0.3459 0.37622 0.0
C709 C 0.02104 0.35534 0.41538 0.0
C710 C 0.99077 0.37352 0.35021 0.0
C711 C 0.98848 0.41254 0.36109 0.0
H712 H 0.00961 0.31676 0.36529 0.0
H713 H 0.98008 0.36406 0.32089 0.0
S714 S 0.02174 0.45364 0.45939 0.0
N715 N 0.03117 0.40722 0.46373 0.0
N716 N 1.00221 0.45955 0.4138 0.0
C717 C 1.00245 0.4228 0.39994 0.0
C718 C 0.0185 0.39429 0.42706 0.0
C719 C 0.61892 0.98731 0.42209 0.0
C720 C 0.65325 1.01324 0.42025 0.0
C721 C 0.59163 0.98166 0.38941 0.0
C722 C 0.59747 1.00156 0.35334 0.0
H723 H 0.61254 0.97141 0.44936 0.0
H724 H 0.56488 0.96277 0.39321 0.0
S725 S 0.68442 0.06985 0.33102 0.0
N726 N 0.69286 0.05717 0.37817 0.0
N727 N 0.6417 0.04633 0.3165 0.0
C728 C 0.63229 0.0267 0.35051 0.0
C729 C 0.66006 0.03266 0.38398 0.0
C730 C 0.01247 0.60931 0.38624 0.0
C731 C 0.02085 0.61753 0.3455 0.0
C732 C 0.99813 0.63779 0.41313 0.0
C733 C 0.99107 0.67587 0.40057 0.0
H734 H 0.01646 0.58043 0.39757 0.0
H735 H 0.99327 0.62985 0.44425 0.0
S736 S 0.0077 0.7127 0.29705 0.0
N737 N 0.02245 0.66731 0.2945 0.0
N738 N 0.99191 0.71965 0.34383 0.0
C739 C 0.99861 0.68434 0.35977 0.0
C740 C 0.01446 0.6556 0.33266 0.0
C741 C 0.35128 1.00166 0.38788 0.0
C742 C 0.36475 1.01091 0.42702 0.0
C743 C 0.37715 1.00928 0.35431 0.0
C744 C 0.41723 0.02647 0.35872 0.0
H745 H 0.32024 0.98933 0.38308 0.0
H746 H 0.36604 1.00101 0.32476 0.0
S747 S 0.46792 0.05461 0.45469 0.0
N748 N 0.42129 0.03755 0.46813 0.0
N749 N 0.46968 0.05112 0.40515 0.0
C750 C 0.43099 0.03573 0.39758 0.0
C751 C 0.40482 0.02813 0.43165 0.0
C752 C 0.99773 0.65299 0.67252 0.0
C753 C 0.99154 0.61458 0.66052 0.0
C754 C 0.01512 0.68034 0.64643 0.0
C755 C 0.02591 0.6712 0.60639 0.0
H756 H 0.98935 0.66222 0.70259 0.0
H757 H 0.01985 0.70906 0.65794 0.0
S758 S 0.01523 0.57478 0.55898 0.0
N759 N 0.99796 0.56872 0.60538 0.0
N760 N 0.02871 0.62042 0.55587 0.0
C761 C 0.01951 0.63292 0.59367 0.0
C762 C 1.0025 0.60475 0.62061 0.0
C763 C 0.38234 0.99336 0.66709 0.0
C764 C 0.41282 0.02191 0.67426 0.0
C765 C 0.35294 0.99693 0.63556 0.0
C766 C 0.3531 0.02884 0.60958 0.0
H767 H 0.38162 0.96772 0.68539 0.0
H768 H 0.32981 0.97448 0.6316 0.0
S769 S 0.42185 0.11429 0.61829 0.0
N770 N 0.43807 0.08539 0.65424 0.0
N771 N 0.38245 0.09156 0.59627 0.0
C772 C 0.38109 0.05875 0.61812 0.0
C773 C 0.4112 0.05527 0.6499 0.0
C774 C 0.99588 0.34383 0.65461 0.0
C775 C 0.98213 0.35183 0.61518 0.0
C776 C 0.01257 0.37257 0.6798 0.0
C777 C 0.0158 0.41101 0.66719 0.0
H778 H 0.99405 0.31497 0.66627 0.0
H779 H 0.02289 0.36446 0.70962 0.0
S780 S 0.98291 0.44815 0.5673 0.0
N781 N 0.97252 0.40179 0.56499 0.0
N782 N 1.00279 0.45568 0.6125 0.0
C783 C 1.00185 0.41964 0.62795 0.0
C784 C 0.98507 0.39025 0.60212 0.0
C785 C 0.63808 1.00555 0.67151 0.0
C786 C 0.59539 0.01456 0.66397 0.0
C787 C 0.66575 0.99578 0.63975 0.0
C788 C 0.65141 0.9949 0.59969 0.0
H789 H 0.64985 1.00528 0.7021 0.0
H790 H 0.69879 0.99043 0.64636 0.0
S791 S 0.5424 0.01547 0.56456 0.0
N792 N 0.54003 0.02097 0.61386 0.0
N793 N 0.5919 1.00356 0.55446 0.0
C794 C 0.60874 1.00352 0.59209 0.0
C795 C 0.58077 1.01312 0.62415 0.0
C796 C 0.42113 0.39588 0.99912 0.0
C797 C 0.41066 0.35709 0.99294 0.0
C798 C 0.3901 0.42347 1.00799 0.0
C799 C 0.34713 0.41339 0.01184 0.0
H800 H 0.45395 0.40476 0.99851 0.0
H801 H 0.40013 0.45292 0.01221 0.0
S802 S 0.30357 0.31485 1.00007 0.0
N803 N 0.35474 0.30967 0.99136 0.0
N804 N 0.29622 0.36095 1.00959 0.0
C805 C 0.33625 0.37448 1.00557 0.0
C806 C 0.368 0.34652 0.99572 0.0
C807 C 0.39387 0.60792 0.98391 0.0
C808 C 0.35178 0.62011 0.97804 0.0
C809 C 0.42552 0.63374 0.99605 0.0
C810 C 0.41623 0.67255 1.00389 0.0
H811 H 0.40246 0.57805 0.97978 0.0
H812 H 0.45763 0.62325 0.99932 0.0
S813 S 0.31288 0.72044 0.98892 0.0
N814 N 0.30403 0.67509 0.97698 0.0
N815 N 0.36308 0.72269 1.00247 0.0
C816 C 0.37472 0.68538 0.99772 0.0
C817 C 0.34268 0.65943 0.98408 0.0
C818 C 0.63427 0.35654 0.02303 0.0
C819 C 0.59155 0.36741 0.02217 0.0
C820 C 0.66616 0.38194 0.01047 0.0
C821 C 0.6568 0.41962 0.99753 0.0
H822 H 0.64289 0.32739 0.0308 0.0
H823 H 0.69831 0.37147 0.0102 0.0
S824 S 0.54903 0.46219 0.99175 0.0
N825 N 0.54113 0.41813 1.00812 0.0
N826 N 0.60074 0.46644 0.98621 0.0
C827 C 0.61399 0.43106 0.99786 0.0
C828 C 0.58158 0.40493 0.00994 0.0
C829 C 0.67609 0.65351 0.02733 0.0
C830 C 0.66552 0.61512 0.03667 0.0
C831 C 0.64517 0.6803 0.01534 0.0
C832 C 0.60241 0.66985 0.01251 0.0
H833 H 0.7085 0.66318 0.02963 0.0
H834 H 0.65454 0.70973 0.0099 0.0
S835 S 0.55723 0.57361 0.03268 0.0
N836 N 0.60837 0.56844 0.04121 0.0
N837 N 0.55078 0.61884 0.01949 0.0
C838 C 0.59131 0.63177 0.02153 0.0
C839 C 0.62262 0.60446 0.03348 0.0
C840 C 0.50326 0.88585 0.92438 0.0
C841 C 0.53071 0.85534 0.9142 0.0
C842 C 0.48819 0.91158 0.89514 0.0
C843 C 0.50002 0.90822 0.85439 0.0
H844 H 0.49234 0.88939 0.95507 0.0
H845 H 0.46706 0.93441 0.90463 0.0
S846 S 0.5764 0.8364 0.8135 0.0
N847 N 0.57148 0.82478 0.86131 0.0
N848 N 0.54539 0.874 0.80704 0.0
C849 C 0.52879 0.87855 0.84431 0.0
C850 C 0.54354 0.85199 0.87398 0.0
C851 C 0.16072 0.53126 0.87843 0.0
C852 C 0.1479 0.53303 0.91896 0.0
C853 C 0.13197 0.52079 0.84788 0.0
C854 C 0.08951 0.5122 0.85695 0.0
H855 H 0.19349 0.53639 0.87053 0.0
H856 H 0.14278 0.5202 0.81696 0.0
S857 S 0.04006 0.51438 0.95812 0.0
N858 N 0.09005 0.52567 0.96634 0.0
N859 N 0.0359 0.50797 0.90905 0.0
C860 C 0.07634 0.51481 0.89722 0.0
C861 C 0.10554 0.52474 0.92817 0.0
C862 C 0.5105 0.10718 0.89564 0.0
C863 C 0.53567 0.11231 0.86105 0.0
C864 C 0.49491 0.13876 0.91789 0.0
C865 C 0.50323 0.17696 0.90629 0.0
H866 H 0.50176 0.07856 0.9051 0.0
H867 H 0.47609 0.13302 0.94443 0.0
S868 S 0.56923 0.20573 0.81871 0.0
N869 N 0.57081 0.15843 0.81804 0.0
N870 N 0.53854 0.21721 0.85706 0.0
C871 C 0.52837 0.18217 0.87162 0.0
C872 C 0.54543 0.15011 0.8499 0.0
C873 C 0.92313 0.52771 0.89247 0.0
C874 C 0.90876 0.52617 0.85255 0.0
C875 C 0.89597 0.52019 0.92473 0.0
C876 C 0.85353 0.50972 0.91836 0.0
H877 H 0.95598 0.53394 0.89881 0.0
H878 H 0.9084 0.52235 0.95503 0.0
S879 S 0.79974 0.50301 0.81965 0.0
N880 N 0.84899 0.51478 0.8083 0.0
N881 N 0.79779 0.49976 0.86921 0.0
C882 C 0.83851 0.50829 0.87863 0.0
C883 C 0.86616 0.51676 0.84565 0.0
C884 C 0.51084 0.11329 0.12509 0.0
C885 C 0.50016 0.11974 0.16577 0.0
C886 C 0.52376 0.1433 0.09983 0.0
C887 C 0.52707 0.18134 0.114 0.0
H888 H 0.50973 0.08456 0.11255 0.0
H889 H 0.53067 0.13651 0.06868 0.0
S890 S 0.50416 0.21402 0.21836 0.0
N891 N 0.49325 0.16773 0.21877 0.0
N892 N 0.52022 0.22342 0.1722 0.0
C893 C 0.51689 0.18825 0.15471 0.0
C894 C 0.50261 0.15779 0.18023 0.0
C895 C 0.8773 0.50112 0.17021 0.0
C896 C 0.91978 0.49212 0.16145 0.0
C897 C 0.84896 0.51179 0.1395 0.0
C898 C 0.86225 0.51336 0.09913 0.0
H899 H 0.86646 0.5016 0.20112 0.0
H900 H 0.81638 0.51815 0.14724 0.0
S901 S 0.96992 0.49202 0.0606 0.0
N902 N 0.9736 0.48584 0.1097 0.0
N903 N 0.92019 0.5041 0.05203 0.0
C904 C 0.90432 0.50354 0.09006 0.0
C905 C 0.9331 0.49335 0.12118 0.0
C906 C 0.49445 0.84301 0.15109 0.0
C907 C 0.48389 0.85147 0.11093 0.0
C908 C 0.51047 0.87114 0.1773 0.0
C909 C 0.51595 0.90947 0.16504 0.0
H910 H 0.49061 0.81425 0.16257 0.0
H911 H 0.51839 0.86263 0.20764 0.0
S912 S 0.49267 0.94744 0.06309 0.0
N913 N 0.4804 0.9015 0.06011 0.0
N914 N 0.50917 0.95446 0.10962 0.0
C915 C 0.50539 0.91854 0.12498 0.0
C916 C 0.48943 0.8897 0.09806 0.0
C917 C 0.14289 0.5438 0.11359 0.0
C918 C 0.15873 0.50929 0.09676 0.0
C919 C 0.11509 0.54405 0.14654 0.0
C920 C 0.09959 0.50974 0.16282 0.0
H921 H 0.15121 0.5712 0.10091 0.0
H922 H 0.10451 0.57148 0.15827 0.0
S923 S 0.12589 0.41122 0.12585 0.0
N924 N 0.1552 0.43979 0.09799 0.0
N925 N 0.09913 0.4399 0.15618 0.0
C926 C 0.11354 0.4749 0.1449 0.0
C927 C 0.14382 0.47473 0.11283 0.0
C928 C 0.89472 0.91941 0.52385 0.0
C929 C 0.85231 0.9075 0.52762 0.0
C930 C 0.92682 0.89357 0.51259 0.0
C931 C 0.91786 0.85497 0.50347 0.0
H932 H 0.90338 0.949 0.52951 0.0
H933 H 0.95914 0.90377 0.51158 0.0
S934 S 0.81331 0.80792 0.51119 0.0
N935 N 0.80419 0.85296 0.52426 0.0
N936 N 0.86423 0.80552 0.50021 0.0
C937 C 0.87588 0.84253 0.5068 0.0
C938 C 0.84327 0.86846 0.51964 0.0
C939 C 0.91194 0.1428 0.48088 0.0
C940 C 0.91084 0.16863 0.5139 0.0
C941 C 0.87957 0.11611 0.47386 0.0
C942 C 0.84422 0.11402 0.49923 0.0
H943 H 0.93813 0.14301 0.45986 0.0
H944 H 0.88221 0.09702 0.44816 0.0
S945 S 0.82759 0.17168 0.59242 0.0
N946 N 0.8723 0.18836 0.5737 0.0
N947 N 0.81191 0.13776 0.56101 0.0
C948 C 0.84308 0.13884 0.53299 0.0
C949 C 0.87623 0.16612 0.54023 0.0
C950 C 0.14519 0.84943 0.51352 0.0
C951 C 0.10173 0.85775 0.51631 0.0
C952 C 0.17489 0.87863 0.50552 0.0
C953 C 0.1621 0.91717 0.50043 0.0
H954 H 0.15612 0.82007 0.51623 0.0
H955 H 0.20809 0.87101 0.50407 0.0
S956 S 0.05133 0.95299 0.50267 0.0
N957 N 0.0472 0.90659 0.51152 0.0
N958 N 0.10243 0.96128 0.49726 0.0
C959 C 0.11854 0.92544 0.50266 0.0
C960 C 0.08857 0.89584 0.51047 0.0
C961 C 0.13927 0.18262 0.5069 0.0
C962 C 0.09669 0.17136 0.50844 0.0
C963 C 0.17187 0.15679 0.51701 0.0
C964 C 0.16311 0.1187 0.52895 0.0
H965 H 0.14734 0.21199 0.4996 0.0
H966 H 0.20414 0.16705 0.51598 0.0
S967 S 0.05602 0.0751 0.53571 0.0
N968 N 0.04719 0.11971 0.52149 0.0
N969 N 0.10787 0.07115 0.54001 0.0
C970 C 0.1204 0.10712 0.52977 0.0
C971 C 0.08742 0.1334 0.51958 0.0
loop_
_geom_bond_atom_site_label_1
_geom_bond_atom_site_label_2
_geom_bond_distance
_geom_bond_site_symmetry_2
_ccdc_geom_bond_type
Co0 O2 2.143 . S
Co0 O8 2.074 . S
Co0 O11 2.093 1_455 S
Co0 O24 2.097 1_455 S
Co0 N41 2.151 . S
Co0 N49 2.214 . S
Co1 O2 2.160 1_655 S
Co1 O7 2.058 1_655 S
Co1 O17 2.057 1_655 S
Co1 O32 2.037 . S
Co1 N36 2.145 . S
Co1 N57 2.257 . S
O2 Co0 2.143 . S
O2 Co1 2.160 1_455 S
C3 O4 1.278 . S
C3 O11 1.224 . S
O4 C3 1.278 . S
C5 O6 1.245 . S
C5 O17 1.232 . S
O6 C5 1.245 . S
O7 Co1 2.058 1_455 S
O7 C33 1.269 . S
O8 Co0 2.074 . S
O8 C33 1.257 . S
H9 C34 0.930 . S
H10 C40 0.930 . S
O11 Co0 2.093 1_655 S
O11 C3 1.224 . S
H12 C44 0.929 . S
H13 C46 0.930 . S
H14 C47 0.930 . S
H15 C45 0.929 . S
H16 C48 0.928 . S
O17 Co1 2.057 1_455 S
O17 C5 1.232 . S
H18 C37 0.929 . S
H19 C38 0.929 . S
H20 C50 0.931 . S
H21 C42 0.929 . S
H22 C51 0.930 . S
H23 C43 0.931 . S
O24 Co0 2.097 1_655 S
O24 C52 1.214 . S
H25 C53 0.929 . S
H26 C54 0.929 . S
H27 C55 0.930 . S
H28 C56 0.929 . S
H29 C58 0.930 . S
H30 C35 0.930 . S
H31 C39 0.930 . S
O32 Co1 2.037 . S
O32 C52 1.234 . S
C33 O7 1.269 . S
C33 O8 1.257 . S
C34 H9 0.930 . S
C34 C37 1.388 . S
C34 C39 1.418 . S
C35 H30 0.930 . S
C35 C38 1.404 . S
C35 C39 1.353 . S
N36 Co1 2.145 . S
N36 C37 1.397 . S
N36 C38 1.334 . S
C37 H18 0.929 . S
C37 C34 1.388 . S
C37 N36 1.397 . S
C38 H19 0.929 . S
C38 C35 1.404 . S
C38 N36 1.334 . S
C39 H31 0.930 . S
C39 C34 1.418 . S
C39 C35 1.353 . S
C40 H10 0.930 . S
C40 N41 1.330 . S
C40 C42 1.446 . S
N41 Co0 2.151 . S
N41 C40 1.330 . S
N41 C45 1.418 . S
C42 H21 0.929 . S
C42 C40 1.446 . S
C42 C43 1.332 . S
C43 H23 0.931 . S
C43 C42 1.332 . S
C43 C44 1.267 . S
C44 H12 0.929 . S
C44 C43 1.267 . S
C44 C45 1.251 . S
C45 H15 0.929 . S
C45 N41 1.418 . S
C45 C44 1.251 . S
C46 H13 0.930 . S
C46 C48 1.406 . S
C46 C51 1.261 . S
C47 H14 0.930 . S
C47 N49 1.325 . S
C47 C50 1.357 . S
C48 H16 0.928 . S
C48 C46 1.406 . S
C48 N49 1.261 . S
N49 Co0 2.214 . S
N49 C47 1.325 . S
N49 C48 1.261 . S
C50 H20 0.931 . S
C50 C47 1.357 . S
C50 C51 1.312 . S
C51 H22 0.930 . S
C51 C46 1.261 . S
C51 C50 1.312 . S
C52 O24 1.214 . S
C52 O32 1.234 . S
C53 H25 0.929 . S
C53 C56 1.391 . S
C53 C58 1.391 . S
C54 H26 0.929 . S
C54 C55 1.390 . S
C54 N57 1.391 . S
C55 H27 0.930 . S
C55 C54 1.390 . S
C55 C56 1.392 . S
C56 H28 0.929 . S
C56 C53 1.391 . S
C56 C55 1.392 . S
N57 Co1 2.257 . S
N57 C54 1.391 . S
N57 C58 1.388 . S
C58 H29 0.930 . S
C58 C53 1.391 . S
C58 N57 1.388 . S
Co59 O61 2.143 . S
Co59 O67 2.074 . S
Co59 O70 2.093 . S
Co59 O83 2.097 . S
Co59 N100 2.151 . S
Co59 N108 2.214 . S
Co60 O61 2.160 1_565 S
Co60 O66 2.058 . S
Co60 O76 2.057 . S
Co60 O91 2.037 . S
Co60 N95 2.145 . S
Co60 N116 2.257 . S
O61 Co59 2.143 . S
O61 Co60 2.160 1_545 S
C62 O63 1.278 . S
C62 O70 1.224 . S
O63 C62 1.278 . S
C64 O65 1.245 . S
C64 O76 1.232 . S
O65 C64 1.245 . S
O66 Co60 2.058 . S
O66 C92 1.269 . S
O67 Co59 2.074 . S
O67 C92 1.257 1_545 S
H68 C93 0.930 . S
H69 C99 0.930 . S
O70 Co59 2.093 . S
O70 C62 1.224 . S
H71 C103 0.929 . S
H72 C105 0.930 . S
H73 C106 0.930 . S
H74 C104 0.929 . S
H75 C107 0.928 . S
O76 Co60 2.057 . S
O76 C64 1.232 . S
H77 C96 0.929 . S
H78 C97 0.929 . S
H79 C109 0.931 . S
H80 C101 0.929 . S
H81 C110 0.930 . S
H82 C102 0.931 . S
O83 Co59 2.097 . S
O83 C111 1.214 . S
H84 C112 0.929 . S
H85 C113 0.929 . S
H86 C114 0.930 . S
H87 C115 0.929 . S
H88 C117 0.930 . S
H89 C94 0.930 . S
H90 C98 0.930 . S
O91 Co60 2.037 . S
O91 C111 1.234 1_565 S
C92 O66 1.269 . S
C92 O67 1.257 1_565 S
C93 H68 0.930 . S
C93 C96 1.388 . S
C93 C98 1.418 . S
C94 H89 0.930 . S
C94 C97 1.404 . S
C94 C98 1.353 . S
N95 Co60 2.145 . S
N95 C96 1.397 . S
N95 C97 1.334 . S
C96 H77 0.929 . S
C96 C93 1.388 . S
C96 N95 1.397 . S
C97 H78 0.929 . S
C97 C94 1.404 . S
C97 N95 1.334 . S
C98 H90 0.930 . S
C98 C93 1.418 . S
C98 C94 1.353 . S
C99 H69 0.930 . S
C99 N100 1.330 . S
C99 C101 1.446 . S
N100 Co59 2.151 . S
N100 C99 1.330 . S
N100 C104 1.418 . S
C101 H80 0.929 . S
C101 C99 1.446 . S
C101 C102 1.332 . S
C102 H82 0.931 . S
C102 C101 1.332 . S
C102 C103 1.267 . S
C103 H71 0.929 . S
C103 C102 1.267 . S
C103 C104 1.251 . S
C104 H74 0.929 . S
C104 N100 1.418 . S
C104 C103 1.251 . S
C105 H72 0.930 . S
C105 C107 1.406 . S
C105 C110 1.261 . S
C106 H73 0.930 . S
C106 N108 1.325 . S
C106 C109 1.357 . S
C107 H75 0.928 . S
C107 C105 1.406 . S
C107 N108 1.261 . S
N108 Co59 2.214 . S
N108 C106 1.325 . S
N108 C107 1.261 . S
C109 H79 0.931 . S
C109 C106 1.357 . S
C109 C110 1.312 . S
C110 H81 0.930 . S
C110 C105 1.261 . S
C110 C109 1.312 . S
C111 O83 1.214 . S
C111 O91 1.234 1_545 S
C112 H84 0.929 . S
C112 C115 1.391 . S
C112 C117 1.391 . S
C113 H85 0.929 . S
C113 C114 1.390 . S
C113 N116 1.391 . S
C114 H86 0.930 . S
C114 C113 1.390 . S
C114 C115 1.392 . S
C115 H87 0.929 . S
C115 C112 1.391 . S
C115 C114 1.392 . S
N116 Co60 2.257 . S
N116 C113 1.391 . S
N116 C117 1.388 . S
C117 H88 0.930 . S
C117 C112 1.391 . S
C117 N116 1.388 . S
Co118 O120 2.143 . S
Co118 O126 2.074 . S
Co118 O129 2.093 1_455 S
Co118 O142 2.097 1_455 S
Co118 N159 2.151 . S
Co118 N167 2.214 . S
Co119 O120 2.160 1_655 S
Co119 O125 2.058 1_655 S
Co119 O135 2.057 1_655 S
Co119 O150 2.037 . S
Co119 N154 2.145 . S
Co119 N175 2.257 . S
O120 Co118 2.143 . S
O120 Co119 2.160 1_455 S
C121 O122 1.278 . S
C121 O129 1.224 . S
O122 C121 1.278 . S
C123 O124 1.245 . S
C123 O135 1.232 . S
O124 C123 1.245 . S
O125 Co119 2.058 1_455 S
O125 C151 1.269 . S
O126 Co118 2.074 . S
O126 C151 1.257 . S
H127 C152 0.930 . S
H128 C158 0.930 . S
O129 Co118 2.093 1_655 S
O129 C121 1.224 . S
H130 C162 0.929 . S
H131 C164 0.930 . S
H132 C165 0.930 . S
H133 C163 0.929 . S
H134 C166 0.928 . S
O135 Co119 2.057 1_455 S
O135 C123 1.232 . S
H136 C155 0.929 . S
H137 C156 0.929 . S
H138 C168 0.931 . S
H139 C160 0.929 . S
H140 C169 0.930 . S
H141 C161 0.931 . S
O142 Co118 2.097 1_655 S
O142 C170 1.214 . S
H143 C171 0.929 . S
H144 C172 0.929 . S
H145 C173 0.930 . S
H146 C174 0.929 . S
H147 C176 0.930 . S
H148 C153 0.930 . S
H149 C157 0.930 . S
O150 Co119 2.037 . S
O150 C170 1.234 . S
C151 O125 1.269 . S
C151 O126 1.257 . S
C152 H127 0.930 . S
C152 C155 1.388 . S
C152 C157 1.418 . S
C153 H148 0.930 . S
C153 C156 1.404 . S
C153 C157 1.353 . S
N154 Co119 2.145 . S
N154 C155 1.397 . S
N154 C156 1.334 . S
C155 H136 0.929 . S
C155 C152 1.388 . S
C155 N154 1.397 . S
C156 H137 0.929 . S
C156 C153 1.404 . S
C156 N154 1.334 . S
C157 H149 0.930 . S
C157 C152 1.418 . S
C157 C153 1.353 . S
C158 H128 0.930 . S
C158 N159 1.330 . S
C158 C160 1.446 . S
N159 Co118 2.151 . S
N159 C158 1.330 . S
N159 C163 1.418 . S
C160 H139 0.929 . S
C160 C158 1.446 . S
C160 C161 1.332 . S
C161 H141 0.931 . S
C161 C160 1.332 . S
C161 C162 1.267 . S
C162 H130 0.929 . S
C162 C161 1.267 . S
C162 C163 1.251 . S
C163 H133 0.929 . S
C163 N159 1.418 . S
C163 C162 1.251 . S
C164 H131 0.930 . S
C164 C166 1.406 . S
C164 C169 1.261 . S
C165 H132 0.930 . S
C165 N167 1.325 . S
C165 C168 1.357 . S
C166 H134 0.928 . S
C166 C164 1.406 . S
C166 N167 1.261 . S
N167 Co118 2.214 . S
N167 C165 1.325 . S
N167 C166 1.261 . S
C168 H138 0.931 . S
C168 C165 1.357 . S
C168 C169 1.312 . S
C169 H140 0.930 . S
C169 C164 1.261 . S
C169 C168 1.312 . S
C170 O142 1.214 . S
C170 O150 1.234 . S
C171 H143 0.929 . S
C171 C174 1.391 . S
C171 C176 1.391 . S
C172 H144 0.929 . S
C172 C173 1.390 . S
C172 N175 1.391 . S
C173 H145 0.930 . S
C173 C172 1.390 . S
C173 C174 1.392 . S
C174 H146 0.929 . S
C174 C171 1.391 . S
C174 C173 1.392 . S
N175 Co119 2.257 . S
N175 C172 1.391 . S
N175 C176 1.388 . S
C176 H147 0.930 . S
C176 C171 1.391 . S
C176 N175 1.388 . S
Co177 O179 2.169 . S
Co177 O185 2.074 . S
Co177 O188 2.093 . S
Co177 O201 2.097 . S
Co177 N218 2.151 . S
Co177 N226 2.214 . S
Co178 O179 2.134 1_545 S
Co178 O184 2.058 . S
Co178 O194 2.057 . S
Co178 O209 2.037 . S
Co178 N213 2.145 . S
Co178 N234 2.257 . S
O179 Co177 2.169 . S
O179 Co178 2.134 1_565 S
C180 O181 1.278 . S
C180 O188 1.224 . S
O181 C180 1.278 . S
C182 O183 1.245 . S
C182 O194 1.232 . S
O183 C182 1.245 . S
O184 Co178 2.058 . S
O184 C210 1.269 . S
O185 Co177 2.074 . S
O185 C210 1.257 1_565 S
H186 C211 0.930 . S
H187 C217 0.930 . S
O188 Co177 2.093 . S
O188 C180 1.224 . S
H189 C221 0.929 . S
H190 C223 0.930 . S
H191 C224 0.930 . S
H192 C222 0.929 . S
H193 C225 0.928 . S
O194 Co178 2.057 . S
O194 C182 1.232 . S
H195 C214 0.929 . S
H196 C215 0.929 . S
H197 C227 0.931 . S
H198 C219 0.929 . S
H199 C228 0.930 . S
H200 C220 0.931 . S
O201 Co177 2.097 . S
O201 C229 1.214 . S
H202 C230 0.929 . S
H203 C231 0.929 . S
H204 C232 0.930 . S
H205 C233 0.929 . S
H206 C235 0.930 . S
H207 C212 0.930 . S
H208 C216 0.930 . S
O209 Co178 2.037 . S
O209 C229 1.234 1_545 S
C210 O184 1.269 . S
C210 O185 1.257 1_545 S
C211 H186 0.930 . S
C211 C214 1.388 . S
C211 C216 1.418 . S
C212 H207 0.930 . S
C212 C215 1.404 . S
C212 C216 1.353 . S
N213 Co178 2.145 . S
N213 C214 1.397 . S
N213 C215 1.334 . S
C214 H195 0.929 . S
C214 C211 1.388 . S
C214 N213 1.397 . S
C215 H196 0.929 . S
C215 C212 1.404 . S
C215 N213 1.334 . S
C216 H208 0.930 . S
C216 C211 1.418 . S
C216 C212 1.353 . S
C217 H187 0.930 . S
C217 N218 1.330 . S
C217 C219 1.446 . S
N218 Co177 2.151 . S
N218 C217 1.330 . S
N218 C222 1.418 . S
C219 H198 0.929 . S
C219 C217 1.446 . S
C219 C220 1.332 . S
C220 H200 0.931 . S
C220 C219 1.332 . S
C220 C221 1.267 . S
C221 H189 0.929 . S
C221 C220 1.267 . S
C221 C222 1.251 . S
C222 H192 0.929 . S
C222 N218 1.418 . S
C222 C221 1.251 . S
C223 H190 0.930 . S
C223 C225 1.406 . S
C223 C228 1.261 . S
C224 H191 0.930 . S
C224 N226 1.325 . S
C224 C227 1.357 . S
C225 H193 0.928 . S
C225 C223 1.406 . S
C225 N226 1.261 . S
N226 Co177 2.214 . S
N226 C224 1.325 . S
N226 C225 1.261 . S
C227 H197 0.931 . S
C227 C224 1.357 . S
C227 C228 1.312 . S
C228 H199 0.930 . S
C228 C223 1.261 . S
C228 C227 1.312 . S
C229 O201 1.214 . S
C229 O209 1.234 1_565 S
C230 H202 0.929 . S
C230 C233 1.391 . S
C230 C235 1.391 . S
C231 H203 0.929 . S
C231 C232 1.390 . S
C231 N234 1.391 . S
C232 H204 0.930 . S
C232 C231 1.390 . S
C232 C233 1.392 . S
C233 H205 0.929 . S
C233 C230 1.391 . S
C233 C232 1.392 . S
N234 Co178 2.257 . S
N234 C231 1.391 . S
N234 C235 1.388 . S
C235 H206 0.930 . S
C235 C230 1.391 . S
C235 N234 1.388 . S
Co236 O238 2.143 . S
Co236 O244 2.074 . S
Co236 O247 2.093 . S
Co236 O260 2.097 . S
Co236 N277 2.151 . S
Co236 N285 2.214 . S
Co237 O238 2.160 1_545 S
Co237 O243 2.058 . S
Co237 O253 2.057 . S
Co237 O268 2.037 . S
Co237 N272 2.145 . S
Co237 N293 2.257 . S
O238 Co236 2.143 . S
O238 Co237 2.160 1_565 S
C239 O240 1.278 . S
C239 O247 1.224 . S
O240 C239 1.278 . S
C241 O242 1.245 . S
C241 O253 1.232 . S
O242 C241 1.245 . S
O243 Co237 2.058 . S
O243 C269 1.269 . S
O244 Co236 2.074 . S
O244 C269 1.257 1_565 S
H245 C270 0.930 . S
H246 C276 0.930 . S
O247 Co236 2.093 . S
O247 C239 1.224 . S
H248 C280 0.929 . S
H249 C282 0.930 . S
H250 C283 0.930 . S
H251 C281 0.929 . S
H252 C284 0.928 . S
O253 Co237 2.057 . S
O253 C241 1.232 . S
H254 C273 0.929 . S
H255 C274 0.929 . S
H256 C286 0.931 . S
H257 C278 0.929 . S
H258 C287 0.930 . S
H259 C279 0.931 . S
O260 Co236 2.097 . S
O260 C288 1.214 . S
H261 C289 0.929 . S
H262 C290 0.929 . S
H263 C291 0.930 . S
H264 C292 0.929 . S
H265 C294 0.930 . S
H266 C271 0.930 . S
H267 C275 0.930 . S
O268 Co237 2.037 . S
O268 C288 1.234 1_545 S
C269 O243 1.269 . S
C269 O244 1.257 1_545 S
C270 H245 0.930 . S
C270 C273 1.388 . S
C270 C275 1.418 . S
C271 H266 0.930 . S
C271 C274 1.404 . S
C271 C275 1.353 . S
N272 Co237 2.145 . S
N272 C273 1.397 . S
N272 C274 1.334 . S
C273 H254 0.929 . S
C273 C270 1.388 . S
C273 N272 1.397 . S
C274 H255 0.929 . S
C274 C271 1.404 . S
C274 N272 1.334 . S
C275 H267 0.930 . S
C275 C270 1.418 . S
C275 C271 1.353 . S
C276 H246 0.930 . S
C276 N277 1.330 . S
C276 C278 1.446 . S
N277 Co236 2.151 . S
N277 C276 1.330 . S
N277 C281 1.418 . S
C278 H257 0.929 . S
C278 C276 1.446 . S
C278 C279 1.332 . S
C279 H259 0.931 . S
C279 C278 1.332 . S
C279 C280 1.267 . S
C280 H248 0.929 . S
C280 C279 1.267 . S
C280 C281 1.251 . S
C281 H251 0.929 . S
C281 N277 1.418 . S
C281 C280 1.251 . S
C282 H249 0.930 . S
C282 C284 1.406 . S
C282 C287 1.261 . S
C283 H250 0.930 . S
C283 N285 1.325 . S
C283 C286 1.357 . S
C284 H252 0.928 . S
C284 C282 1.406 . S
C284 N285 1.261 . S
N285 Co236 2.214 . S
N285 C283 1.325 . S
N285 C284 1.261 . S
C286 H256 0.931 . S
C286 C283 1.357 . S
C286 C287 1.312 . S
C287 H258 0.930 . S
C287 C282 1.261 . S
C287 C286 1.312 . S
C288 O260 1.214 . S
C288 O268 1.234 1_565 S
C289 H261 0.929 . S
C289 C292 1.391 . S
C289 C294 1.391 . S
C290 H262 0.929 . S
C290 C291 1.390 . S
C290 N293 1.391 . S
C291 H263 0.930 . S
C291 C290 1.390 . S
C291 C292 1.392 . S
C292 H264 0.929 . S
C292 C289 1.391 . S
C292 C291 1.392 . S
N293 Co237 2.257 . S
N293 C290 1.391 . S
N293 C294 1.388 . S
C294 H265 0.930 . S
C294 C289 1.391 . S
C294 N293 1.388 . S
Co295 O297 2.143 . S
Co295 O303 2.074 . S
Co295 O306 2.093 1_655 S
Co295 O319 2.097 1_655 S
Co295 N336 2.151 . S
Co295 N344 2.214 . S
Co296 O297 2.160 1_455 S
Co296 O302 2.058 1_455 S
Co296 O312 2.057 1_455 S
Co296 O327 2.037 . S
Co296 N331 2.145 . S
Co296 N352 2.257 . S
O297 Co295 2.143 . S
O297 Co296 2.160 1_655 S
C298 O299 1.278 . S
C298 O306 1.224 . S
O299 C298 1.278 . S
C300 O301 1.245 . S
C300 O312 1.232 . S
O301 C300 1.245 . S
O302 Co296 2.058 1_655 S
O302 C328 1.269 . S
O303 Co295 2.074 . S
O303 C328 1.257 . S
H304 C329 0.930 . S
H305 C335 0.930 . S
O306 Co295 2.093 1_455 S
O306 C298 1.224 . S
H307 C339 0.929 . S
H308 C341 0.930 . S
H309 C342 0.930 . S
H310 C340 0.929 . S
H311 C343 0.928 . S
O312 Co296 2.057 1_655 S
O312 C300 1.232 . S
H313 C332 0.929 . S
H314 C333 0.929 . S
H315 C345 0.931 . S
H316 C337 0.929 . S
H317 C346 0.930 . S
H318 C338 0.931 . S
O319 Co295 2.097 1_455 S
O319 C347 1.214 . S
H320 C348 0.929 . S
H321 C349 0.929 . S
H322 C350 0.930 . S
H323 C351 0.929 . S
H324 C353 0.930 . S
H325 C330 0.930 . S
H326 C334 0.930 . S
O327 Co296 2.037 . S
O327 C347 1.234 . S
C328 O302 1.269 . S
C328 O303 1.257 . S
C329 H304 0.930 . S
C329 C332 1.388 . S
C329 C334 1.418 . S
C330 H325 0.930 . S
C330 C333 1.404 . S
C330 C334 1.353 . S
N331 Co296 2.145 . S
N331 C332 1.397 . S
N331 C333 1.334 . S
C332 H313 0.929 . S
C332 C329 1.388 . S
C332 N331 1.397 . S
C333 H314 0.929 . S
C333 C330 1.404 . S
C333 N331 1.334 . S
C334 H326 0.930 . S
C334 C329 1.418 . S
C334 C330 1.353 . S
C335 H305 0.930 . S
C335 N336 1.330 . S
C335 C337 1.446 . S
N336 Co295 2.151 . S
N336 C335 1.330 . S
N336 C340 1.418 . S
C337 H316 0.929 . S
C337 C335 1.446 . S
C337 C338 1.332 . S
C338 H318 0.931 . S
C338 C337 1.332 . S
C338 C339 1.267 . S
C339 H307 0.929 . S
C339 C338 1.267 . S
C339 C340 1.251 . S
C340 H310 0.929 . S
C340 N336 1.418 . S
C340 C339 1.251 . S
C341 H308 0.930 . S
C341 C343 1.406 . S
C341 C346 1.261 . S
C342 H309 0.930 . S
C342 N344 1.325 . S
C342 C345 1.357 . S
C343 H311 0.928 . S
C343 C341 1.406 . S
C343 N344 1.261 . S
N344 Co295 2.214 . S
N344 C342 1.325 . S
N344 C343 1.261 . S
C345 H315 0.931 . S
C345 C342 1.357 . S
C345 C346 1.312 . S
C346 H317 0.930 . S
C346 C341 1.261 . S
C346 C345 1.312 . S
C347 O319 1.214 . S
C347 O327 1.234 . S
C348 H320 0.929 . S
C348 C351 1.391 . S
C348 C353 1.391 . S
C349 H321 0.929 . S
C349 C350 1.390 . S
C349 N352 1.391 . S
C350 H322 0.930 . S
C350 C349 1.390 . S
C350 C351 1.392 . S
C351 H323 0.929 . S
C351 C348 1.391 . S
C351 C350 1.392 . S
N352 Co296 2.257 . S
N352 C349 1.391 . S
N352 C353 1.388 . S
C353 H324 0.930 . S
C353 C348 1.391 . S
C353 N352 1.388 . S
Co354 O356 2.143 . S
Co354 O362 2.074 . S
Co354 O365 2.093 . S
Co354 O378 2.097 . S
Co354 N395 2.151 . S
Co354 N403 2.214 . S
Co355 O356 2.160 1_565 S
Co355 O361 2.058 . S
Co355 O371 2.057 . S
Co355 O386 2.037 . S
Co355 N390 2.145 . S
Co355 N411 2.257 . S
O356 Co354 2.143 . S
O356 Co355 2.160 1_545 S
C357 O358 1.278 . S
C357 O365 1.224 . S
O358 C357 1.278 . S
C359 O360 1.245 . S
C359 O371 1.232 . S
O360 C359 1.245 . S
O361 Co355 2.058 . S
O361 C387 1.269 . S
O362 Co354 2.074 . S
O362 C387 1.257 1_545 S
H363 C388 0.930 . S
H364 C394 0.930 . S
O365 Co354 2.093 . S
O365 C357 1.224 . S
H366 C398 0.929 . S
H367 C400 0.930 . S
H368 C401 0.930 . S
H369 C399 0.929 . S
H370 C402 0.928 . S
O371 Co355 2.057 . S
O371 C359 1.232 . S
H372 C391 0.929 . S
H373 C392 0.929 . S
H374 C404 0.931 . S
H375 C396 0.929 . S
H376 C405 0.930 . S
H377 C397 0.931 . S
O378 Co354 2.097 . S
O378 C406 1.214 . S
H379 C407 0.929 . S
H380 C408 0.929 . S
H381 C409 0.930 . S
H382 C410 0.929 . S
H383 C412 0.930 . S
H384 C389 0.930 . S
H385 C393 0.930 . S
O386 Co355 2.037 . S
O386 C406 1.234 1_565 S
C387 O361 1.269 . S
C387 O362 1.257 1_565 S
C388 H363 0.930 . S
C388 C391 1.388 . S
C388 C393 1.418 . S
C389 H384 0.930 . S
C389 C392 1.404 . S
C389 C393 1.353 . S
N390 Co355 2.145 . S
N390 C391 1.397 . S
N390 C392 1.334 . S
C391 H372 0.929 . S
C391 C388 1.388 . S
C391 N390 1.397 . S
C392 H373 0.929 . S
C392 C389 1.404 . S
C392 N390 1.334 . S
C393 H385 0.930 . S
C393 C388 1.418 . S
C393 C389 1.353 . S
C394 H364 0.930 . S
C394 N395 1.330 . S
C394 C396 1.446 . S
N395 Co354 2.151 . S
N395 C394 1.330 . S
N395 C399 1.418 . S
C396 H375 0.929 . S
C396 C394 1.446 . S
C396 C397 1.332 . S
C397 H377 0.931 . S
C397 C396 1.332 . S
C397 C398 1.267 . S
C398 H366 0.929 . S
C398 C397 1.267 . S
C398 C399 1.251 . S
C399 H369 0.929 . S
C399 N395 1.418 . S
C399 C398 1.251 . S
C400 H367 0.930 . S
C400 C402 1.406 . S
C400 C405 1.261 . S
C401 H368 0.930 . S
C401 N403 1.325 . S
C401 C404 1.357 . S
C402 H370 0.928 . S
C402 C400 1.406 . S
C402 N403 1.261 . S
N403 Co354 2.214 . S
N403 C401 1.325 . S
N403 C402 1.261 . S
C404 H374 0.931 . S
C404 C401 1.357 . S
C404 C405 1.312 . S
C405 H376 0.930 . S
C405 C400 1.261 . S
C405 C404 1.312 . S
C406 O378 1.214 . S
C406 O386 1.234 1_545 S
C407 H379 0.929 . S
C407 C410 1.391 . S
C407 C412 1.391 . S
C408 H380 0.929 . S
C408 C409 1.390 . S
C408 N411 1.391 . S
C409 H381 0.930 . S
C409 C408 1.390 . S
C409 C410 1.392 . S
C410 H382 0.929 . S
C410 C407 1.391 . S
C410 C409 1.392 . S
N411 Co355 2.257 . S
N411 C408 1.391 . S
N411 C412 1.388 . S
C412 H383 0.930 . S
C412 C407 1.391 . S
C412 N411 1.388 . S
Co413 O415 2.143 . S
Co413 O421 2.074 . S
Co413 O424 2.093 1_655 S
Co413 O437 2.097 1_655 S
Co413 N454 2.151 . S
Co413 N462 2.214 . S
Co414 O415 2.160 1_455 S
Co414 O420 2.058 1_455 S
Co414 O430 2.057 1_455 S
Co414 O445 2.037 . S
Co414 N449 2.145 . S
Co414 N470 2.257 . S
O415 Co413 2.143 . S
O415 Co414 2.160 1_655 S
C416 O417 1.278 . S
C416 O424 1.224 . S
O417 C416 1.278 . S
C418 O419 1.245 . S
C418 O430 1.232 . S
O419 C418 1.245 . S
O420 Co414 2.058 1_655 S
O420 C446 1.269 . S
O421 Co413 2.074 . S
O421 C446 1.257 . S
H422 C447 0.930 . S
H423 C453 0.930 . S
O424 Co413 2.093 1_455 S
O424 C416 1.224 . S
H425 C457 0.929 . S
H426 C459 0.930 . S
H427 C460 0.930 . S
H428 C458 0.929 . S
H429 C461 0.928 . S
O430 Co414 2.057 1_655 S
O430 C418 1.232 . S
H431 C450 0.929 . S
H432 C451 0.929 . S
H433 C463 0.931 . S
H434 C455 0.929 . S
H435 C464 0.930 . S
H436 C456 0.931 . S
O437 Co413 2.097 1_455 S
O437 C465 1.214 . S
H438 C466 0.929 . S
H439 C467 0.929 . S
H440 C468 0.930 . S
H441 C469 0.929 . S
H442 C471 0.930 . S
H443 C448 0.930 . S
H444 C452 0.930 . S
O445 Co414 2.037 . S
O445 C465 1.234 . S
C446 O420 1.269 . S
C446 O421 1.257 . S
C447 H422 0.930 . S
C447 C450 1.388 . S
C447 C452 1.418 . S
C448 H443 0.930 . S
C448 C451 1.404 . S
C448 C452 1.353 . S
N449 Co414 2.145 . S
N449 C450 1.397 . S
N449 C451 1.334 . S
C450 H431 0.929 . S
C450 C447 1.388 . S
C450 N449 1.397 . S
C451 H432 0.929 . S
C451 C448 1.404 . S
C451 N449 1.334 . S
C452 H444 0.930 . S
C452 C447 1.418 . S
C452 C448 1.353 . S
C453 H423 0.930 . S
C453 N454 1.330 . S
C453 C455 1.446 . S
N454 Co413 2.151 . S
N454 C453 1.330 . S
N454 C458 1.418 . S
C455 H434 0.929 . S
C455 C453 1.446 . S
C455 C456 1.332 . S
C456 H436 0.931 . S
C456 C455 1.332 . S
C456 C457 1.267 . S
C457 H425 0.929 . S
C457 C456 1.267 . S
C457 C458 1.251 . S
C458 H428 0.929 . S
C458 N454 1.418 . S
C458 C457 1.251 . S
C459 H426 0.930 . S
C459 C461 1.406 . S
C459 C464 1.261 . S
C460 H427 0.930 . S
C460 N462 1.325 . S
C460 C463 1.357 . S
C461 H429 0.928 . S
C461 C459 1.406 . S
C461 N462 1.261 . S
N462 Co413 2.214 . S
N462 C460 1.325 . S
N462 C461 1.261 . S
C463 H433 0.931 . S
C463 C460 1.357 . S
C463 C464 1.312 . S
C464 H435 0.930 . S
C464 C459 1.261 . S
C464 C463 1.312 . S
C465 O437 1.214 . S
C465 O445 1.234 . S
C466 H438 0.929 . S
C466 C469 1.391 . S
C466 C471 1.391 . S
C467 H439 0.929 . S
C467 C468 1.390 . S
C467 N470 1.391 . S
C468 H440 0.930 . S
C468 C467 1.390 . S
C468 C469 1.392 . S
C469 H441 0.929 . S
C469 C466 1.391 . S
C469 C468 1.392 . S
N470 Co414 2.257 . S
N470 C467 1.391 . S
N470 C471 1.388 . S
C471 H442 0.930 . S
C471 C466 1.391 . S
C471 N470 1.388 . S
Co472 O474 2.143 . S
Co472 O480 2.074 . S
Co472 O483 2.093 1_554 S
Co472 O496 2.097 1_554 S
Co472 N513 2.151 . S
Co472 N521 2.214 . S
Co473 O474 2.160 1_556 S
Co473 O479 2.058 1_556 S
Co473 O489 2.057 1_556 S
Co473 O504 2.037 . S
Co473 N508 2.145 . S
Co473 N529 2.257 . S
O474 Co472 2.143 . S
O474 Co473 2.160 1_554 S
C475 O476 1.278 . S
C475 O483 1.224 . S
O476 C475 1.278 . S
C477 O478 1.245 . S
C477 O489 1.232 . S
O478 C477 1.245 . S
O479 Co473 2.058 1_554 S
O479 C505 1.269 . S
O480 Co472 2.074 . S
O480 C505 1.257 . S
H481 C506 0.930 . S
H482 C512 0.930 . S
O483 Co472 2.093 1_556 S
O483 C475 1.224 . S
H484 C516 0.929 . S
H485 C518 0.930 . S
H486 C519 0.930 . S
H487 C517 0.929 . S
H488 C520 0.928 . S
O489 Co473 2.057 1_554 S
O489 C477 1.232 . S
H490 C509 0.929 . S
H491 C510 0.929 . S
H492 C522 0.931 . S
H493 C514 0.929 . S
H494 C523 0.930 . S
H495 C515 0.931 . S
O496 Co472 2.097 1_556 S
O496 C524 1.214 . S
H497 C525 0.929 . S
H498 C526 0.929 . S
H499 C527 0.930 . S
H500 C528 0.929 . S
H501 C530 0.930 . S
H502 C507 0.930 . S
H503 C511 0.930 . S
O504 Co473 2.037 . S
O504 C524 1.234 . S
C505 O479 1.269 . S
C505 O480 1.257 . S
C506 H481 0.930 . S
C506 C509 1.388 . S
C506 C511 1.418 . S
C507 H502 0.930 . S
C507 C510 1.404 . S
C507 C511 1.353 . S
N508 Co473 2.145 . S
N508 C509 1.397 . S
N508 C510 1.334 . S
C509 H490 0.929 . S
C509 C506 1.388 . S
C509 N508 1.397 . S
C510 H491 0.929 . S
C510 C507 1.404 . S
C510 N508 1.334 . S
C511 H503 0.930 . S
C511 C506 1.418 . S
C511 C507 1.353 . S
C512 H482 0.930 . S
C512 N513 1.330 . S
C512 C514 1.446 . S
N513 Co472 2.151 . S
N513 C512 1.330 . S
N513 C517 1.418 . S
C514 H493 0.929 . S
C514 C512 1.446 . S
C514 C515 1.332 . S
C515 H495 0.931 . S
C515 C514 1.332 . S
C515 C516 1.267 . S
C516 H484 0.929 . S
C516 C515 1.267 . S
C516 C517 1.251 . S
C517 H487 0.929 . S
C517 N513 1.418 . S
C517 C516 1.251 . S
C518 H485 0.930 . S
C518 C520 1.406 . S
C518 C523 1.261 . S
C519 H486 0.930 . S
C519 N521 1.325 . S
C519 C522 1.357 . S
C520 H488 0.928 . S
C520 C518 1.406 . S
C520 N521 1.261 . S
N521 Co472 2.214 . S
N521 C519 1.325 . S
N521 C520 1.261 . S
C522 H492 0.931 . S
C522 C519 1.357 . S
C522 C523 1.312 . S
C523 H494 0.930 . S
C523 C518 1.261 . S
C523 C522 1.312 . S
C524 O496 1.214 . S
C524 O504 1.234 . S
C525 H497 0.929 . S
C525 C528 1.391 . S
C525 C530 1.391 . S
C526 H498 0.929 . S
C526 C527 1.390 . S
C526 N529 1.391 . S
C527 H499 0.930 . S
C527 C526 1.390 . S
C527 C528 1.392 . S
C528 H500 0.929 . S
C528 C525 1.391 . S
C528 C527 1.392 . S
N529 Co473 2.257 . S
N529 C526 1.391 . S
N529 C530 1.388 . S
C530 H501 0.930 . S
C530 C525 1.391 . S
C530 N529 1.388 . S
Co531 O533 2.143 . S
Co531 O539 2.074 . S
Co531 O542 2.093 . S
Co531 O555 2.097 . S
Co531 N572 2.151 . S
Co531 N580 2.214 . S
Co532 O533 2.160 1_554 S
Co532 O538 2.058 . S
Co532 O548 2.057 . S
Co532 O563 2.037 . S
Co532 N567 2.145 . S
Co532 N588 2.257 . S
O533 Co531 2.143 . S
O533 Co532 2.160 1_556 S
C534 O535 1.278 . S
C534 O542 1.224 . S
O535 C534 1.278 . S
C536 O537 1.245 . S
C536 O548 1.232 . S
O537 C536 1.245 . S
O538 Co532 2.058 . S
O538 C564 1.269 . S
O539 Co531 2.074 . S
O539 C564 1.257 1_556 S
H540 C565 0.930 . S
H541 C571 0.930 . S
O542 Co531 2.093 . S
O542 C534 1.224 . S
H543 C575 0.929 . S
H544 C577 0.930 . S
H545 C578 0.930 . S
H546 C576 0.929 . S
H547 C579 0.928 . S
O548 Co532 2.057 . S
O548 C536 1.232 . S
H549 C568 0.929 . S
H550 C569 0.929 . S
H551 C581 0.931 . S
H552 C573 0.929 . S
H553 C582 0.930 . S
H554 C574 0.931 . S
O555 Co531 2.097 . S
O555 C583 1.214 . S
H556 C584 0.929 . S
H557 C585 0.929 . S
H558 C586 0.930 . S
H559 C587 0.929 . S
H560 C589 0.930 . S
H561 C566 0.930 . S
H562 C570 0.930 . S
O563 Co532 2.037 . S
O563 C583 1.234 1_554 S
C564 O538 1.269 . S
C564 O539 1.257 1_554 S
C565 H540 0.930 . S
C565 C568 1.388 . S
C565 C570 1.418 . S
C566 H561 0.930 . S
C566 C569 1.404 . S
C566 C570 1.353 . S
N567 Co532 2.145 . S
N567 C568 1.397 . S
N567 C569 1.334 . S
C568 H549 0.929 . S
C568 C565 1.388 . S
C568 N567 1.397 . S
C569 H550 0.929 . S
C569 C566 1.404 . S
C569 N567 1.334 . S
C570 H562 0.930 . S
C570 C565 1.418 . S
C570 C566 1.353 . S
C571 H541 0.930 . S
C571 N572 1.330 . S
C571 C573 1.446 . S
N572 Co531 2.151 . S
N572 C571 1.330 . S
N572 C576 1.418 . S
C573 H552 0.929 . S
C573 C571 1.446 . S
C573 C574 1.332 . S
C574 H554 0.931 . S
C574 C573 1.332 . S
C574 C575 1.267 . S
C575 H543 0.929 . S
C575 C574 1.267 . S
C575 C576 1.251 . S
C576 H546 0.929 . S
C576 N572 1.418 . S
C576 C575 1.251 . S
C577 H544 0.930 . S
C577 C579 1.406 . S
C577 C582 1.261 . S
C578 H545 0.930 . S
C578 N580 1.325 . S
C578 C581 1.357 . S
C579 H547 0.928 . S
C579 C577 1.406 . S
C579 N580 1.261 . S
N580 Co531 2.214 . S
N580 C578 1.325 . S
N580 C579 1.261 . S
C581 H551 0.931 . S
C581 C578 1.357 . S
C581 C582 1.312 . S
C582 H553 0.930 . S
C582 C577 1.261 . S
C582 C581 1.312 . S
C583 O555 1.214 . S
C583 O563 1.234 1_556 S
C584 H556 0.929 . S
C584 C587 1.391 . S
C584 C589 1.391 . S
C585 H557 0.929 . S
C585 C586 1.390 . S
C585 N588 1.391 . S
C586 H558 0.930 . S
C586 C585 1.390 . S
C586 C587 1.392 . S
C587 H559 0.929 . S
C587 C584 1.391 . S
C587 C586 1.392 . S
N588 Co532 2.257 . S
N588 C585 1.391 . S
N588 C589 1.388 . S
C589 H560 0.930 . S
C589 C584 1.391 . S
C589 N588 1.388 . S
Co590 O592 2.143 . S
Co590 O598 2.074 . S
Co590 O601 2.093 1_554 S
Co590 O614 2.097 1_554 S
Co590 N631 2.151 . S
Co590 N639 2.214 . S
Co591 O592 2.160 1_556 S
Co591 O597 2.058 1_556 S
Co591 O607 2.057 1_556 S
Co591 O622 2.037 . S
Co591 N626 2.145 . S
Co591 N647 2.257 . S
O592 Co590 2.143 . S
O592 Co591 2.160 1_554 S
C593 O594 1.278 . S
C593 O601 1.224 . S
O594 C593 1.278 . S
C595 O596 1.245 . S
C595 O607 1.232 . S
O596 C595 1.245 . S
O597 Co591 2.058 1_554 S
O597 C623 1.269 . S
O598 Co590 2.074 . S
O598 C623 1.257 . S
H599 C624 0.930 . S
H600 C630 0.930 . S
O601 Co590 2.093 1_556 S
O601 C593 1.224 . S
H602 C634 0.929 . S
H603 C636 0.930 . S
H604 C637 0.930 . S
H605 C635 0.929 . S
H606 C638 0.928 . S
O607 Co591 2.057 1_554 S
O607 C595 1.232 . S
H608 C627 0.929 . S
H609 C628 0.929 . S
H610 C640 0.931 . S
H611 C632 0.929 . S
H612 C641 0.930 . S
H613 C633 0.931 . S
O614 Co590 2.097 1_556 S
O614 C642 1.214 . S
H615 C643 0.929 . S
H616 C644 0.929 . S
H617 C645 0.930 . S
H618 C646 0.929 . S
H619 C648 0.930 . S
H620 C625 0.930 . S
H621 C629 0.930 . S
O622 Co591 2.037 . S
O622 C642 1.234 . S
C623 O597 1.269 . S
C623 O598 1.257 . S
C624 H599 0.930 . S
C624 C627 1.388 . S
C624 C629 1.418 . S
C625 H620 0.930 . S
C625 C628 1.404 . S
C625 C629 1.353 . S
N626 Co591 2.145 . S
N626 C627 1.397 . S
N626 C628 1.334 . S
C627 H608 0.929 . S
C627 C624 1.388 . S
C627 N626 1.397 . S
C628 H609 0.929 . S
C628 C625 1.404 . S
C628 N626 1.334 . S
C629 H621 0.930 . S
C629 C624 1.418 . S
C629 C625 1.353 . S
C630 H600 0.930 . S
C630 N631 1.330 . S
C630 C632 1.446 . S
N631 Co590 2.151 . S
N631 C630 1.330 . S
N631 C635 1.418 . S
C632 H611 0.929 . S
C632 C630 1.446 . S
C632 C633 1.332 . S
C633 H613 0.931 . S
C633 C632 1.332 . S
C633 C634 1.267 . S
C634 H602 0.929 . S
C634 C633 1.267 . S
C634 C635 1.251 . S
C635 H605 0.929 . S
C635 N631 1.418 . S
C635 C634 1.251 . S
C636 H603 0.930 . S
C636 C638 1.406 . S
C636 C641 1.261 . S
C637 H604 0.930 . S
C637 N639 1.325 . S
C637 C640 1.357 . S
C638 H606 0.928 . S
C638 C636 1.406 . S
C638 N639 1.261 . S
N639 Co590 2.214 . S
N639 C637 1.325 . S
N639 C638 1.261 . S
C640 H610 0.931 . S
C640 C637 1.357 . S
C640 C641 1.312 . S
C641 H612 0.930 . S
C641 C636 1.261 . S
C641 C640 1.312 . S
C642 O614 1.214 . S
C642 O622 1.234 . S
C643 H615 0.929 . S
C643 C646 1.391 . S
C643 C648 1.391 . S
C644 H616 0.929 . S
C644 C645 1.390 . S
C644 N647 1.391 . S
C645 H617 0.930 . S
C645 C644 1.390 . S
C645 C646 1.392 . S
C646 H618 0.929 . S
C646 C643 1.391 . S
C646 C645 1.392 . S
N647 Co591 2.257 . S
N647 C644 1.391 . S
N647 C648 1.388 . S
C648 H619 0.930 . S
C648 C643 1.391 . S
C648 N647 1.388 . S
Co649 O651 2.143 . S
Co649 O657 2.074 . S
Co649 O660 2.093 . S
Co649 O673 2.097 . S
Co649 N690 2.151 . S
Co649 N698 2.214 . S
Co650 O651 2.160 1_556 S
Co650 O656 2.058 . S
Co650 O666 2.057 . S
Co650 O681 2.037 . S
Co650 N685 2.145 . S
Co650 N706 2.257 . S
O651 Co649 2.143 . S
O651 Co650 2.160 1_554 S
C652 O653 1.278 . S
C652 O660 1.224 . S
O653 C652 1.278 . S
C654 O655 1.245 . S
C654 O666 1.232 . S
O655 C654 1.245 . S
O656 Co650 2.058 . S
O656 C682 1.269 . S
O657 Co649 2.074 . S
O657 C682 1.257 1_554 S
H658 C683 0.930 . S
H659 C689 0.930 . S
O660 Co649 2.093 . S
O660 C652 1.224 . S
H661 C693 0.929 . S
H662 C695 0.930 . S
H663 C696 0.930 . S
H664 C694 0.929 . S
H665 C697 0.928 . S
O666 Co650 2.057 . S
O666 C654 1.232 . S
H667 C686 0.929 . S
H668 C687 0.929 . S
H669 C699 0.931 . S
H670 C691 0.929 . S
H671 C700 0.930 . S
H672 C692 0.931 . S
O673 Co649 2.097 . S
O673 C701 1.214 . S
H674 C702 0.929 . S
H675 C703 0.929 . S
H676 C704 0.930 . S
H677 C705 0.929 . S
H678 C707 0.930 . S
H679 C684 0.930 . S
H680 C688 0.930 . S
O681 Co650 2.037 . S
O681 C701 1.234 1_556 S
C682 O656 1.269 . S
C682 O657 1.257 1_556 S
C683 H658 0.930 . S
C683 C686 1.388 . S
C683 C688 1.418 . S
C684 H679 0.930 . S
C684 C687 1.404 . S
C684 C688 1.353 . S
N685 Co650 2.145 . S
N685 C686 1.397 . S
N685 C687 1.334 . S
C686 H667 0.929 . S
C686 C683 1.388 . S
C686 N685 1.397 . S
C687 H668 0.929 . S
C687 C684 1.404 . S
C687 N685 1.334 . S
C688 H680 0.930 . S
C688 C683 1.418 . S
C688 C684 1.353 . S
C689 H659 0.930 . S
C689 N690 1.330 . S
C689 C691 1.446 . S
N690 Co649 2.151 . S
N690 C689 1.330 . S
N690 C694 1.418 . S
C691 H670 0.929 . S
C691 C689 1.446 . S
C691 C692 1.332 . S
C692 H672 0.931 . S
C692 C691 1.332 . S
C692 C693 1.267 . S
C693 H661 0.929 . S
C693 C692 1.267 . S
C693 C694 1.251 . S
C694 H664 0.929 . S
C694 N690 1.418 . S
C694 C693 1.251 . S
C695 H662 0.930 . S
C695 C697 1.406 . S
C695 C700 1.261 . S
C696 H663 0.930 . S
C696 N698 1.325 . S
C696 C699 1.357 . S
C697 H665 0.928 . S
C697 C695 1.406 . S
C697 N698 1.261 . S
N698 Co649 2.214 . S
N698 C696 1.325 . S
N698 C697 1.261 . S
C699 H669 0.931 . S
C699 C696 1.357 . S
C699 C700 1.312 . S
C700 H671 0.930 . S
C700 C695 1.261 . S
C700 C699 1.312 . S
C701 O673 1.214 . S
C701 O681 1.234 1_554 S
C702 H674 0.929 . S
C702 C705 1.391 . S
C702 C707 1.391 . S
C703 H675 0.929 . S
C703 C704 1.390 . S
C703 N706 1.391 . S
C704 H676 0.930 . S
C704 C703 1.390 . S
C704 C705 1.392 . S
C705 H677 0.929 . S
C705 C702 1.391 . S
C705 C704 1.392 . S
N706 Co650 2.257 . S
N706 C703 1.391 . S
N706 C707 1.388 . S
C707 H678 0.930 . S
C707 C702 1.391 . S
C707 N706 1.388 . S
C708 C709 1.369 1_655 S
C708 C710 1.419 . S
C708 H712 0.930 . S
C709 C708 1.369 1_455 S
C709 C718 1.429 . S
C710 C708 1.419 . S
C710 C711 1.363 . S
C710 H713 0.929 . S
C711 C710 1.363 . S
C711 C717 1.428 1_655 S
H712 C708 0.930 . S
H713 C710 0.929 . S
S714 N715 1.613 . S
S714 N716 1.610 . S
N715 S714 1.613 . S
N715 C718 1.350 . S
N716 S714 1.610 . S
N716 C717 1.351 . S
C717 C711 1.428 1_455 S
C717 N716 1.351 . S
C717 C718 1.434 . S
C718 C709 1.429 . S
C718 N715 1.350 . S
C718 C717 1.434 . S
C719 C720 1.369 1_565 S
C719 C721 1.419 . S
C719 H723 0.930 . S
C720 C719 1.369 1_545 S
C720 C729 1.429 . S
C721 C719 1.419 . S
C721 C722 1.363 . S
C721 H724 0.929 . S
C722 C721 1.363 . S
C722 C728 1.428 1_565 S
H723 C719 0.930 . S
H724 C721 0.929 . S
S725 N726 1.613 . S
S725 N727 1.610 . S
N726 S725 1.613 . S
N726 C729 1.350 . S
N727 S725 1.610 . S
N727 C728 1.351 . S
C728 C722 1.428 1_545 S
C728 N727 1.351 . S
C728 C729 1.434 . S
C729 C720 1.429 . S
C729 N726 1.350 . S
C729 C728 1.434 . S
C730 C731 1.369 . S
C730 C732 1.419 1_455 S
C730 H734 0.930 . S
C731 C730 1.369 . S
C731 C740 1.429 . S
C732 C730 1.419 1_655 S
C732 C733 1.363 . S
C732 H735 0.929 . S
C733 C732 1.363 . S
C733 C739 1.428 . S
H734 C730 0.930 . S
H735 C732 0.929 . S
S736 N737 1.613 . S
S736 N738 1.610 1_455 S
N737 S736 1.613 . S
N737 C740 1.350 . S
N738 S736 1.610 1_655 S
N738 C739 1.351 . S
C739 C733 1.428 . S
C739 N738 1.351 . S
C739 C740 1.434 1_655 S
C740 C731 1.429 . S
C740 N737 1.350 . S
C740 C739 1.434 1_455 S
C741 C742 1.369 1_545 S
C741 C743 1.419 . S
C741 H745 0.930 . S
C742 C741 1.369 1_565 S
C742 C751 1.429 . S
C743 C741 1.419 . S
C743 C744 1.363 . S
C743 H746 0.929 . S
C744 C743 1.363 . S
C744 C750 1.428 1_545 S
H745 C741 0.930 . S
H746 C743 0.929 . S
S747 N748 1.613 . S
S747 N749 1.610 . S
N748 S747 1.613 . S
N748 C751 1.350 . S
N749 S747 1.610 . S
N749 C750 1.351 . S
C750 C744 1.428 1_565 S
C750 N749 1.351 . S
C750 C751 1.434 . S
C751 C742 1.429 . S
C751 N748 1.350 . S
C751 C750 1.434 . S
C752 C753 1.369 . S
C752 C754 1.419 1_655 S
C752 H756 0.930 . S
C753 C752 1.369 . S
C753 C762 1.429 . S
C754 C752 1.419 1_455 S
C754 C755 1.363 . S
C754 H757 0.929 . S
C755 C754 1.363 . S
C755 C761 1.428 . S
H756 C752 0.930 . S
H757 C754 0.929 . S
S758 N759 1.613 1_455 S
S758 N760 1.610 . S
N759 S758 1.613 1_655 S
N759 C762 1.350 . S
N760 S758 1.610 . S
N760 C761 1.351 . S
C761 C755 1.428 . S
C761 N760 1.351 . S
C761 C762 1.434 1_455 S
C762 C753 1.429 . S
C762 N759 1.350 . S
C762 C761 1.434 1_655 S
C763 C764 1.369 . S
C763 C765 1.419 . S
C763 H767 0.930 . S
C764 C763 1.369 . S
C764 C773 1.429 1_565 S
C765 C763 1.419 . S
C765 C766 1.363 1_565 S
C765 H768 0.929 . S
C766 C765 1.363 1_545 S
C766 C772 1.428 . S
H767 C763 0.930 . S
H768 C765 0.929 . S
S769 N770 1.613 . S
S769 N771 1.610 . S
N770 S769 1.613 . S
N770 C773 1.350 . S
N771 S769 1.610 . S
N771 C772 1.351 . S
C772 C766 1.428 . S
C772 N771 1.351 . S
C772 C773 1.434 . S
C773 C764 1.429 1_545 S
C773 N770 1.350 . S
C773 C772 1.434 . S
C774 C775 1.369 1_455 S
C774 C776 1.419 . S
C774 H778 0.930 . S
C775 C774 1.369 1_655 S
C775 C784 1.429 . S
C776 C774 1.419 . S
C776 C777 1.363 . S
C776 H779 0.929 . S
C777 C776 1.363 . S
C777 C783 1.428 1_455 S
H778 C774 0.930 . S
H779 C776 0.929 . S
S780 N781 1.613 . S
S780 N782 1.610 . S
N781 S780 1.613 . S
N781 C784 1.350 . S
N782 S780 1.610 . S
N782 C783 1.351 . S
C783 C777 1.428 1_655 S
C783 N782 1.351 . S
C783 C784 1.434 . S
C784 C775 1.429 . S
C784 N781 1.350 . S
C784 C783 1.434 . S
C785 C786 1.369 1_565 S
C785 C787 1.419 . S
C785 H789 0.930 . S
C786 C785 1.369 1_545 S
C786 C795 1.429 . S
C787 C785 1.419 . S
C787 C788 1.363 . S
C787 H790 0.929 . S
C788 C787 1.363 . S
C788 C794 1.428 1_565 S
H789 C785 0.930 . S
H790 C787 0.929 . S
S791 N792 1.613 . S
S791 N793 1.610 . S
N792 S791 1.613 . S
N792 C795 1.350 . S
N793 S791 1.610 . S
N793 C794 1.351 . S
C794 C788 1.428 1_545 S
C794 N793 1.351 . S
C794 C795 1.434 . S
C795 C786 1.429 . S
C795 N792 1.350 . S
C795 C794 1.434 . S
C796 C797 1.369 . S
C796 C798 1.419 1_556 S
C796 H800 0.930 . S
C797 C796 1.369 . S
C797 C806 1.429 . S
C798 C796 1.419 1_554 S
C798 C799 1.363 . S
C798 H801 0.929 . S
C799 C798 1.363 . S
C799 C805 1.428 . S
H800 C796 0.930 . S
H801 C798 0.929 . S
S802 N803 1.613 . S
S802 N804 1.610 1_556 S
N803 S802 1.613 . S
N803 C806 1.350 . S
N804 S802 1.610 1_554 S
N804 C805 1.351 . S
C805 C799 1.428 . S
C805 N804 1.351 . S
C805 C806 1.434 1_554 S
C806 C797 1.429 . S
C806 N803 1.350 . S
C806 C805 1.434 1_556 S
C807 C808 1.369 . S
C807 C809 1.419 1_556 S
C807 H811 0.930 . S
C808 C807 1.369 . S
C808 C817 1.429 . S
C809 C807 1.419 1_554 S
C809 C810 1.363 . S
C809 H812 0.929 . S
C810 C809 1.363 . S
C810 C816 1.428 . S
H811 C807 0.930 . S
H812 C809 0.929 . S
S813 N814 1.613 . S
S813 N815 1.610 1_556 S
N814 S813 1.613 . S
N814 C817 1.350 . S
N815 S813 1.610 1_554 S
N815 C816 1.351 . S
C816 C810 1.428 . S
C816 N815 1.351 . S
C816 C817 1.434 1_554 S
C817 C808 1.429 . S
C817 N814 1.350 . S
C817 C816 1.434 1_556 S
C818 C819 1.369 . S
C818 C820 1.419 . S
C818 H822 0.930 . S
C819 C818 1.369 . S
C819 C828 1.429 1_554 S
C820 C818 1.419 . S
C820 C821 1.363 1_554 S
C820 H823 0.929 . S
C821 C820 1.363 1_556 S
C821 C827 1.428 . S
H822 C818 0.930 . S
H823 C820 0.929 . S
S824 N825 1.613 . S
S824 N826 1.610 . S
N825 S824 1.613 . S
N825 C828 1.350 . S
N826 S824 1.610 . S
N826 C827 1.351 . S
C827 C821 1.428 . S
C827 N826 1.351 . S
C827 C828 1.434 . S
C828 C819 1.429 1_556 S
C828 N825 1.350 . S
C828 C827 1.434 . S
C829 C830 1.369 . S
C829 C831 1.419 . S
C829 H833 0.930 . S
C830 C829 1.369 . S
C830 C839 1.429 1_554 S
C831 C829 1.419 . S
C831 C832 1.363 1_554 S
C831 H834 0.929 . S
C832 C831 1.363 1_556 S
C832 C838 1.428 . S
H833 C829 0.930 . S
H834 C831 0.929 . S
S835 N836 1.613 . S
S835 N837 1.610 . S
N836 S835 1.613 . S
N836 C839 1.350 . S
N837 S835 1.610 . S
N837 C838 1.351 . S
C838 C832 1.428 . S
C838 N837 1.351 . S
C838 C839 1.434 . S
C839 C830 1.429 1_556 S
C839 N836 1.350 . S
C839 C838 1.434 . S
C840 C841 1.369 . S
C840 C842 1.419 . S
C840 H844 0.930 . S
C841 C840 1.369 . S
C841 C850 1.429 . S
C842 C840 1.419 . S
C842 C843 1.363 . S
C842 H845 0.929 . S
C843 C842 1.363 . S
C843 C849 1.428 . S
H844 C840 0.930 . S
H845 C842 0.929 . S
S846 N847 1.613 . S
S846 N848 1.610 . S
N847 S846 1.613 . S
N847 C850 1.350 . S
N848 S846 1.610 . S
N848 C849 1.351 . S
C849 C843 1.428 . S
C849 N848 1.351 . S
C849 C850 1.434 . S
C850 C841 1.429 . S
C850 N847 1.350 . S
C850 C849 1.434 . S
C851 C852 1.369 . S
C851 C853 1.419 . S
C851 H855 0.930 . S
C852 C851 1.369 . S
C852 C861 1.429 . S
C853 C851 1.419 . S
C853 C854 1.363 . S
C853 H856 0.929 . S
C854 C853 1.363 . S
C854 C860 1.428 . S
H855 C851 0.930 . S
H856 C853 0.929 . S
S857 N858 1.613 . S
S857 N859 1.610 . S
N858 S857 1.613 . S
N858 C861 1.350 . S
N859 S857 1.610 . S
N859 C860 1.351 . S
C860 C854 1.428 . S
C860 N859 1.351 . S
C860 C861 1.434 . S
C861 C852 1.429 . S
C861 N858 1.350 . S
C861 C860 1.434 . S
C862 C863 1.369 . S
C862 C864 1.419 . S
C862 H866 0.930 . S
C863 C862 1.369 . S
C863 C872 1.429 . S
C864 C862 1.419 . S
C864 C865 1.363 . S
C864 H867 0.929 . S
C865 C864 1.363 . S
C865 C871 1.428 . S
H866 C862 0.930 . S
H867 C864 0.929 . S
S868 N869 1.613 . S
S868 N870 1.610 . S
N869 S868 1.613 . S
N869 C872 1.350 . S
N870 S868 1.610 . S
N870 C871 1.351 . S
C871 C865 1.428 . S
C871 N870 1.351 . S
C871 C872 1.434 . S
C872 C863 1.429 . S
C872 N869 1.350 . S
C872 C871 1.434 . S
C873 C874 1.369 . S
C873 C875 1.419 . S
C873 H877 0.930 . S
C874 C873 1.369 . S
C874 C883 1.429 . S
C875 C873 1.419 . S
C875 C876 1.363 . S
C875 H878 0.929 . S
C876 C875 1.363 . S
C876 C882 1.428 . S
H877 C873 0.930 . S
H878 C875 0.929 . S
S879 N880 1.613 . S
S879 N881 1.610 . S
N880 S879 1.613 . S
N880 C883 1.350 . S
N881 S879 1.610 . S
N881 C882 1.351 . S
C882 C876 1.428 . S
C882 N881 1.351 . S
C882 C883 1.434 . S
C883 C874 1.429 . S
C883 N880 1.350 . S
C883 C882 1.434 . S
C884 C885 1.369 . S
C884 C886 1.419 . S
C884 H888 0.930 . S
C885 C884 1.369 . S
C885 C894 1.429 . S
C886 C884 1.419 . S
C886 C887 1.363 . S
C886 H889 0.929 . S
C887 C886 1.363 . S
C887 C893 1.428 . S
H888 C884 0.930 . S
H889 C886 0.929 . S
S890 N891 1.613 . S
S890 N892 1.610 . S
N891 S890 1.613 . S
N891 C894 1.350 . S
N892 S890 1.610 . S
N892 C893 1.351 . S
C893 C887 1.428 . S
C893 N892 1.351 . S
C893 C894 1.434 . S
C894 C885 1.429 . S
C894 N891 1.350 . S
C894 C893 1.434 . S
C895 C896 1.369 . S
C895 C897 1.419 . S
C895 H899 0.930 . S
C896 C895 1.369 . S
C896 C905 1.429 . S
C897 C895 1.419 . S
C897 C898 1.363 . S
C897 H900 0.929 . S
C898 C897 1.363 . S
C898 C904 1.428 . S
H899 C895 0.930 . S
H900 C897 0.929 . S
S901 N902 1.613 . S
S901 N903 1.610 . S
N902 S901 1.613 . S
N902 C905 1.350 . S
N903 S901 1.610 . S
N903 C904 1.351 . S
C904 C898 1.428 . S
C904 N903 1.351 . S
C904 C905 1.434 . S
C905 C896 1.429 . S
C905 N902 1.350 . S
C905 C904 1.434 . S
C906 C907 1.369 . S
C906 C908 1.419 . S
C906 H910 0.930 . S
C907 C906 1.369 . S
C907 C916 1.429 . S
C908 C906 1.419 . S
C908 C909 1.363 . S
C908 H911 0.929 . S
C909 C908 1.363 . S
C909 C915 1.428 . S
H910 C906 0.930 . S
H911 C908 0.929 . S
S912 N913 1.613 . S
S912 N914 1.610 . S
N913 S912 1.613 . S
N913 C916 1.350 . S
N914 S912 1.610 . S
N914 C915 1.351 . S
C915 C909 1.428 . S
C915 N914 1.351 . S
C915 C916 1.434 . S
C916 C907 1.429 . S
C916 N913 1.350 . S
C916 C915 1.434 . S
C917 C918 1.369 . S
C917 C919 1.419 . S
C917 H921 0.930 . S
C918 C917 1.369 . S
C918 C927 1.429 . S
C919 C917 1.419 . S
C919 C920 1.363 . S
C919 H922 0.929 . S
C920 C919 1.363 . S
C920 C926 1.428 . S
H921 C917 0.930 . S
H922 C919 0.929 . S
S923 N924 1.613 . S
S923 N925 1.610 . S
N924 S923 1.613 . S
N924 C927 1.350 . S
N925 S923 1.610 . S
N925 C926 1.351 . S
C926 C920 1.428 . S
C926 N925 1.351 . S
C926 C927 1.434 . S
C927 C918 1.429 . S
C927 N924 1.350 . S
C927 C926 1.434 . S
C928 C929 1.369 . S
C928 C930 1.419 . S
C928 H932 0.930 . S
C929 C928 1.369 . S
C929 C938 1.429 . S
C930 C928 1.419 . S
C930 C931 1.363 . S
C930 H933 0.929 . S
C931 C930 1.363 . S
C931 C937 1.428 . S
H932 C928 0.930 . S
H933 C930 0.929 . S
S934 N935 1.613 . S
S934 N936 1.610 . S
N935 S934 1.613 . S
N935 C938 1.350 . S
N936 S934 1.610 . S
N936 C937 1.351 . S
C937 C931 1.428 . S
C937 N936 1.351 . S
C937 C938 1.434 . S
C938 C929 1.429 . S
C938 N935 1.350 . S
C938 C937 1.434 . S
C939 C940 1.369 . S
C939 C941 1.419 . S
C939 H943 0.930 . S
C940 C939 1.369 . S
C940 C949 1.429 . S
C941 C939 1.419 . S
C941 C942 1.363 . S
C941 H944 0.929 . S
C942 C941 1.363 . S
C942 C948 1.428 . S
H943 C939 0.930 . S
H944 C941 0.929 . S
S945 N946 1.613 . S
S945 N947 1.610 . S
N946 S945 1.613 . S
N946 C949 1.350 . S
N947 S945 1.610 . S
N947 C948 1.351 . S
C948 C942 1.428 . S
C948 N947 1.351 . S
C948 C949 1.434 . S
C949 C940 1.429 . S
C949 N946 1.350 . S
C949 C948 1.434 . S
C950 C951 1.369 . S
C950 C952 1.419 . S
C950 H954 0.930 . S
C951 C950 1.369 . S
C951 C960 1.429 . S
C952 C950 1.419 . S
C952 C953 1.363 . S
C952 H955 0.929 . S
C953 C952 1.363 . S
C953 C959 1.428 . S
H954 C950 0.930 . S
H955 C952 0.929 . S
S956 N957 1.613 . S
S956 N958 1.610 . S
N957 S956 1.613 . S
N957 C960 1.350 . S
N958 S956 1.610 . S
N958 C959 1.351 . S
C959 C953 1.428 . S
C959 N958 1.351 . S
C959 C960 1.434 . S
C960 C951 1.429 . S
C960 N957 1.350 . S
C960 C959 1.434 . S
C961 C962 1.369 . S
C961 C963 1.419 . S
C961 H965 0.930 . S
C962 C961 1.369 . S
C962 C971 1.429 . S
C963 C961 1.419 . S
C963 C964 1.363 . S
C963 H966 0.929 . S
C964 C963 1.363 . S
C964 C970 1.428 . S
H965 C961 0.930 . S
H966 C963 0.929 . S
S967 N968 1.613 . S
S967 N969 1.610 . S
N968 S967 1.613 . S
N968 C971 1.350 . S
N969 S967 1.610 . S
N969 C970 1.351 . S
C970 C964 1.428 . S
C970 N969 1.351 . S
C970 C971 1.434 . S
C971 C962 1.429 . S
C971 N968 1.350 . S
C971 C970 1.434 . S
C709 C5 1.672 . S
C711 C300 1.668 . S
C720 C111 1.647 . S
C722 C288 1.639 . S
C731 C298 1.680 . S
C733 C121 1.677 . S
C742 C229 1.646 . S
C744 C269 1.645 . S
C753 C418 1.668 . S
C755 C123 1.672 . S
C764 C387 1.643 . S
C766 C210 1.649 . S
C775 C3 1.681 . S
C777 C416 1.677 . S
C786 C406 1.644 . S
C788 C92 1.644 . S
C797 C583 1.640 . S
C799 C477 1.651 . S
C808 C475 1.660 . S
C810 C701 1.635 . S
C819 C564 1.635 . S
C821 C593 1.663 . S
C830 C595 1.650 . S
C832 C682 1.643 . S
C841 C654 1.675 . S
C843 C359 1.667 . S
C852 C524 1.647 . S
C854 C465 1.639 . S
C863 C357 1.678 . S
C865 C534 1.679 . S
C874 C446 1.645 . S
C876 C642 1.645 . S
C885 C241 1.666 . S
C887 C536 1.674 . S
C896 C328 1.650 . S
C898 C623 1.643 . S
C907 C652 1.680 . S
C909 C239 1.679 . S
C918 C505 1.649 . S
C920 C347 1.639 . S
C929 C64 1.655 . S
C931 C170 1.636 . S
C940 C52 1.640 . S
C942 C62 1.657 . S
C951 C151 1.635 . S
C953 C180 1.662 . S
C962 C33 1.639 . S
C964 C182 1.654 . S
