# Generated by pormake.
# Topology ilc, (8)-cn, num edge types: 1
# Building blocks:
#     Node 0, Type 0, BuildingBlock: LIZSOE_clean_sbu_0, # of connection points: 8
#     Node 1, Type 0, BuildingBlock: LIZSOE_clean_sbu_0, # of connection points: 8
#     Node 2, Type 0, BuildingBlock: LIZSOE_clean_sbu_0, # of connection points: 8
#     Edge 3, Type (0, 0), BuildingBlock: TEMPAE_clean_linker_10, # of connection points: 2
#     Edge 4, Type (0, 0), BuildingBlock: TEMPAE_clean_linker_10, # of connection points: 2
#     Edge 5, Type (0, 0), BuildingBlock: TEMPAE_clean_linker_10, # of connection points: 2
#     Edge 6, Type (0, 0), BuildingBlock: TEMPAE_clean_linker_10, # of connection points: 2
#     Edge 7, Type (0, 0), BuildingBlock: TEMPAE_clean_linker_10, # of connection points: 2
#     Edge 8, Type (0, 0), BuildingBlock: TEMPAE_clean_linker_10, # of connection points: 2
#     Edge 9, Type (0, 0), BuildingBlock: TEMPAE_clean_linker_10, # of connection points: 2
#     Edge 10, Type (0, 0), BuildingBlock: TEMPAE_clean_linker_10, # of connection points: 2
#     Edge 11, Type (0, 0), BuildingBlock: TEMPAE_clean_linker_10, # of connection points: 2
#     Edge 12, Type (0, 0), BuildingBlock: TEMPAE_clean_linker_10, # of connection points: 2
#     Edge 13, Type (0, 0), BuildingBlock: TEMPAE_clean_linker_10, # of connection points: 2
#     Edge 14, Type (0, 0), BuildingBlock: TEMPAE_clean_linker_10, # of connection points: 2
# Relax obj value: 0.400
# Max RMSD: 0.184
# Mean RMSD: 0.184
data_MOF--net-ilc--node1-LIZSOE_clean_sbu_0--edge1-TEMPAE_clean_linker_10
_symmetry_space_group_name_H-M    P1
_symmetry_Int_Tables_number       1
_symmetry_cell_setting            triclinic
loop_
_symmetry_equiv_pos_as_xyz
'x, y, z'
_cell_length_a     20.941691
_cell_length_b     20.227246
_cell_length_c     16.267038
_cell_angle_alpha  88.37128
_cell_angle_beta   90.593495
_cell_angle_gamma 121.20492
loop_
_atom_site_label
_atom_site_type_symbol
_atom_site_fract_x
_atom_site_fract_y
_atom_site_fract_z
_atom_type_partial_charge
Co0 Co 0.07033 0.09119 0.94834 0.0
N1 N 1.01661 1.03621 0.85591 0.0
C2 C 0.95454 1.0372 0.83782 0.0
N3 N 1.03917 0.10874 0.74408 0.0
C4 C 0.05958 0.06628 0.7897 0.0
C5 C 0.96959 0.08481 0.77036 0.0
Co6 Co 0.90427 0.98576 0.22225 0.0
N7 N 0.86991 0.92498 0.31722 0.0
N8 N 0.86091 0.84658 0.42194 0.0
C9 C 0.84183 0.89725 0.44769 0.0
C10 C 0.85258 0.9479 0.38497 0.0
C11 C 0.85972 0.85525 0.33946 0.0
Co12 Co 1.02408 0.08743 0.08449 0.0
C13 C 0.85828 0.97664 0.16294 0.0
H14 H 0.85293 1.0007 0.39005 0.0
O15 O 0.13258 0.15494 1.03036 0.0
O16 O 0.07553 1.04206 0.15059 0.0
O17 O 0.9777 0.99017 1.0122 0.0
O18 O 0.97706 0.13653 1.01227 0.0
O19 O 0.05745 0.1747 0.91182 0.0
O20 O 0.97896 0.95282 0.21674 0.0
O21 O 0.92288 1.03681 0.13622 0.0
O22 O 0.97842 0.08496 0.27944 0.0
O23 O 0.08239 1.00484 0.9813 0.0
O24 O 0.15532 0.13258 0.90172 0.0
O25 O 0.05389 0.16697 0.17597 0.0
O26 O 0.84303 0.90583 0.15796 0.0
C27 C 1.01306 0.95832 0.9879 0.0
C28 C 0.85341 0.79532 0.28197 0.0
H29 H 0.88255 0.81968 0.22279 0.0
H30 H 0.87364 0.75966 0.31212 0.0
H31 H 0.79349 0.75608 0.26795 0.0
C32 C 0.04598 0.98032 0.19353 0.0
C33 C 1.00151 0.1728 0.94308 0.0
H34 H 0.90715 1.0159 0.87853 0.0
H35 H 0.0973 1.01138 0.70693 0.0
H36 H 0.1104 0.99796 0.81332 0.0
H37 H 0.16997 0.0887 0.76366 0.0
C38 C 0.11233 1.03999 0.76671 0.0
C39 C 0.17873 0.17113 0.96662 0.0
C40 C 1.03056 0.15358 0.25258 0.0
H41 H 0.93242 0.10019 0.74167 0.0
H42 H 0.83619 0.90774 0.51137 0.0
Co43 Co 0.78113 0.47082 0.24863 0.0
N44 N 0.78261 0.48654 0.13361 0.0
C45 C 0.80117 0.55604 0.09959 0.0
N46 N 0.85205 0.50913 1.0205 0.0
C47 C 0.81041 0.45758 0.08086 0.0
C48 C 0.84386 0.56996 1.03062 0.0
Co49 Co 0.59697 0.35582 0.58991 0.0
N50 N 0.58516 0.3292 0.70387 0.0
N51 N 0.63617 0.30476 0.81269 0.0
C52 C 0.62709 0.36424 0.82958 0.0
C53 C 0.59834 0.3808 0.76179 0.0
C54 C 0.59712 0.27711 0.74215 0.0
Co55 Co 0.69551 0.4211 0.41755 0.0
C56 C 0.54391 0.32735 0.53963 0.0
H57 H 0.59839 0.43356 0.75137 0.0
O58 O 0.79201 0.46639 0.35254 0.0
O59 O 0.73444 0.35667 0.4761 0.0
O60 O 0.64552 0.3291 0.33526 0.0
O61 O 0.66183 0.4885 0.34975 0.0
O62 O 0.68227 0.44403 0.24211 0.0
O63 O 0.66692 0.32344 0.58696 0.0
O64 O 0.59682 0.37965 0.48661 0.0
O65 O 0.67412 0.45884 0.61413 0.0
O66 O 0.73865 0.36153 0.24318 0.0
O67 O 0.81037 0.57106 0.27148 0.0
O68 O 0.74944 0.50833 0.503 0.0
O69 O 0.53442 0.2594 0.55333 0.0
C70 C 0.6757 0.31083 0.27652 0.0
C71 C 0.53897 0.19289 0.73446 0.0
H72 H 0.53202 0.1756 0.66952 0.0
H73 H 0.55217 0.1553 0.77178 0.0
H74 H 0.48445 0.18268 0.75571 0.0
C75 C 0.71535 0.32037 0.54517 0.0
C76 C 0.65629 0.4811 0.27136 0.0
H77 H 0.7926 0.59846 0.12813 0.0
H78 H 0.81767 0.36002 0.12341 0.0
H79 H 0.78961 0.35744 1.01828 0.0
H80 H 0.72444 0.33879 0.09634 0.0
C81 C 0.78451 0.37359 0.08019 0.0
C82 C 0.83059 0.52315 0.29603 0.0
C83 C 0.73326 0.51322 0.57888 0.0
H84 H 0.87185 0.62346 0.99518 0.0
H85 H 0.65738 0.40531 0.87707 0.0
Co86 Co 0.44837 0.76184 0.58218 0.0
N87 N 0.45393 0.71367 0.48862 0.0
C88 C 0.45152 0.73782 0.41214 0.0
N89 N 0.49104 0.6547 0.40262 0.0
C90 C 0.47492 0.66034 0.4815 0.0
C91 C 0.47232 0.70097 0.35971 0.0
Co92 Co 0.31039 0.67614 0.92126 0.0
N93 N 0.32131 0.63549 1.01907 0.0
N94 N 0.28128 0.54088 0.11716 0.0
C95 C 0.30543 0.61004 0.15237 0.0
C96 C 0.3305 0.66728 0.09276 0.0
C97 C 0.29021 0.55792 1.03557 0.0
Co98 Co 0.36796 0.75495 0.74802 0.0
C99 C 0.24967 0.71912 0.89641 0.0
H100 H 0.34841 0.72706 0.10241 0.0
O101 O 0.45417 0.81077 0.66628 0.0
O102 O 0.43589 0.72389 0.80785 0.0
O103 O 0.30267 0.64814 0.69975 0.0
O104 O 0.31725 0.79189 0.66038 0.0
O105 O 0.3748 0.78618 0.54153 0.0
O106 O 0.34901 0.62102 0.8673 0.0
O107 O 0.27919 0.70348 0.83202 0.0
O108 O 0.40759 0.77679 0.92958 0.0
O109 O 0.36783 0.66269 0.59427 0.0
O110 O 0.50954 0.74041 0.64185 0.0
O111 O 0.41682 0.85044 0.81846 0.0
O112 O 0.28252 0.73427 0.96639 0.0
C113 C 0.31117 0.6206 0.63565 0.0
C114 C 0.25545 0.49587 0.97197 0.0
H115 H 0.23739 0.51352 0.91593 0.0
H116 H 0.29556 0.47927 0.95396 0.0
H117 H 0.20636 0.4425 0.99743 0.0
C118 C 0.41647 0.66105 0.84634 0.0
C119 C 0.32727 0.79881 0.57901 0.0
H120 H 0.43704 0.78063 0.39589 0.0
H121 H 0.52903 0.61738 0.56111 0.0
H122 H 0.43393 0.54673 0.53427 0.0
H123 H 0.44962 0.61275 0.60921 0.0
C124 C 0.47236 0.60765 0.5507 0.0
C125 C 0.50443 0.80086 0.62645 0.0
C126 C 0.43085 0.8442 0.89544 0.0
H127 H 0.46912 0.70507 0.29365 0.0
H128 H 0.30792 0.61998 0.21766 0.0
C129 C 1.03083 0.15949 0.61567 0.0
C130 C 0.07782 0.16295 0.67828 0.0
C131 C 1.02218 0.11264 0.55093 0.0
C132 C 0.06629 0.07841 0.55219 0.0
C133 C 0.13702 0.11988 0.58981 0.0
C134 C 0.14429 0.16985 0.65165 0.0
C135 C 0.96182 0.09313 0.4905 0.0
C136 C 0.19995 0.10703 0.57307 0.0
C137 C 0.93217 0.86185 0.54286 0.0
C138 C 0.92954 0.8593 0.4583 0.0
C139 C 0.97581 0.93428 0.57768 0.0
C140 C 1.03304 0.99742 0.52902 0.0
C141 C 0.04587 0.98415 0.44907 0.0
C142 C 0.99578 0.91276 0.41652 0.0
C143 C 0.94527 0.94374 0.65626 0.0
C144 C 0.10107 0.04911 0.39208 0.0
H145 H 0.99087 0.17648 0.62676 0.0
H146 H 0.19324 0.19641 0.69033 0.0
H147 H 0.97376 0.0723 0.43414 0.0
H148 H 0.90784 0.04898 0.51877 0.0
H149 H 0.95828 0.14473 0.47439 0.0
H150 H 0.20087 0.06814 0.62148 0.0
H151 H 0.19534 0.08096 0.51328 0.0
H152 H 0.25375 0.16301 0.57411 0.0
H153 H 0.88354 0.81694 0.57597 0.0
H154 H 0.99475 0.91201 0.35208 0.0
H155 H 0.94892 0.99932 0.6552 0.0
H156 H 0.97306 0.93449 0.70947 0.0
H157 H 0.88483 0.90111 0.66362 0.0
H158 H 0.1233 0.10809 0.41457 0.0
H159 H 0.07543 1.04754 0.33232 0.0
H160 H 0.14954 1.04263 0.38307 0.0
C161 C 0.74179 0.29913 0.87164 0.0
C162 C 0.71322 0.32625 0.81159 0.0
C163 C 0.81783 0.32311 0.87188 0.0
C164 C 0.86859 0.38464 0.81593 0.0
C165 C 0.83612 0.40034 0.74675 0.0
C166 C 0.7608 0.37633 0.74921 0.0
C167 C 0.83956 0.2786 0.93042 0.0
C168 C 0.88064 0.44906 0.67311 0.0
C169 C 0.92246 0.54497 0.88807 0.0
C170 C 0.90191 0.50414 0.96431 0.0
C171 C 0.95734 0.52326 0.83028 0.0
C172 C 0.94645 0.44841 0.84141 0.0
C173 C 0.96659 0.44003 0.92134 0.0
C174 C 0.93515 0.46018 0.9849 0.0
C175 C 1.0148 0.58167 0.77117 0.0
C176 C 1.01116 0.40244 0.93659 0.0
H177 H 0.70444 0.25823 0.91798 0.0
H178 H 0.7394 0.39877 0.70285 0.0
H179 H 0.88208 0.27047 0.90243 0.0
H180 H 0.86048 0.30734 0.98963 0.0
H181 H 0.79136 0.22049 0.94689 0.0
H182 H 0.85205 0.42186 0.61539 0.0
H183 H 0.88314 0.50517 0.67303 0.0
H184 H 0.93732 0.45778 0.67078 0.0
H185 H 0.91506 0.59337 0.8755 0.0
H186 H 0.9348 0.44039 1.04726 0.0
H187 H 0.98878 0.60364 0.72736 0.0
H188 H 0.04306 0.55712 0.73695 0.0
H189 H 0.05752 0.63203 0.80534 0.0
H190 H 0.9991 0.36059 0.88963 0.0
H191 H 1.00051 0.37381 0.99824 0.0
H192 H 0.0709 0.44525 0.92687 0.0
C193 C 0.28358 0.41784 0.13109 0.0
C194 C 0.26349 0.46959 0.16143 0.0
C195 C 0.32396 0.39481 0.18247 0.0
C196 C 0.34949 0.43159 0.25818 0.0
C197 C 0.30693 0.45929 0.29475 0.0
C198 C 0.25716 0.46936 0.24624 0.0
C199 C 0.34914 0.34224 0.15265 0.0
C200 C 0.32721 0.49948 0.3749 0.0
C201 C 0.49846 0.53377 0.39913 0.0
C202 C 0.51407 0.6056 0.3651 0.0
C203 C 0.45808 0.46721 0.35131 0.0
C204 C 0.43149 0.47624 0.274 0.0
C205 C 0.4732 0.55016 0.23404 0.0
C206 C 0.52214 0.61276 0.28067 0.0
C207 C 0.43217 0.38874 0.38924 0.0
C208 C 0.45017 0.57207 0.15547 0.0
H209 H 0.27774 0.40335 1.06724 0.0
H210 H 0.23262 0.49987 0.27096 0.0
H211 H 0.40959 0.3668 0.16393 0.0
H212 H 0.31898 0.28671 0.18828 0.0
H213 H 0.33694 0.32986 0.08666 0.0
H214 H 0.27692 0.48627 0.40682 0.0
H215 H 0.35781 0.48256 0.41707 0.0
H216 H 0.3569 0.56219 0.36261 0.0
H217 H 0.51045 0.52723 0.46241 0.0
H218 H 0.54595 0.66943 0.25315 0.0
H219 H 0.39454 0.34153 0.34778 0.0
H220 H 0.40364 0.38199 0.44877 0.0
H221 H 0.48165 0.38394 0.40267 0.0
H222 H 0.49737 0.62175 0.12335 0.0
H223 H 0.41416 0.59378 0.17263 0.0
H224 H 0.42116 0.52452 0.11337 0.0
C225 C 0.24429 0.85685 0.54971 0.0
C226 C 0.28535 0.82469 0.52189 0.0
C227 C 0.21026 0.88516 0.49398 0.0
C228 C 0.21484 0.88017 0.40668 0.0
C229 C 0.25729 0.84841 0.37873 0.0
C230 C 0.29093 0.82138 0.43566 0.0
C231 C 0.17205 0.92284 0.53112 0.0
C232 C 0.27027 0.84336 0.28851 0.0
C233 C 0.06033 0.87406 0.26681 0.0
C234 C 0.09362 0.94903 0.23092 0.0
C235 C 0.09657 0.85476 0.32929 0.0
C236 C 0.17381 0.90457 0.34502 0.0
C237 C 0.21128 0.97617 0.29945 0.0
C238 C 0.17116 0.99762 0.24386 0.0
C239 C 0.04985 0.78504 0.38491 0.0
C240 C 0.2923 1.03371 0.31595 0.0
H241 H 0.23999 0.86181 0.61534 0.0
H242 H 0.32259 0.79763 0.41123 0.0
H243 H 0.15418 0.95066 0.48464 0.0
H244 H 0.12283 0.87927 0.56734 0.0
H245 H 0.21063 0.96674 0.57489 0.0
H246 H 0.33094 0.88007 0.27485 0.0
H247 H 0.25371 0.78308 0.27455 0.0
H248 H 0.24016 0.86186 0.24651 0.0
H249 H 1.00195 0.83381 0.25499 0.0
H250 H 0.19953 0.05514 0.21582 0.0
H251 H 0.05655 0.80347 0.44919 0.0
H252 H 0.06871 0.74309 0.38284 0.0
H253 H 0.98946 0.75633 0.37106 0.0
H254 H 0.30079 1.04436 0.3829 0.0
H255 H 0.31213 0.08975 0.28266 0.0
H256 H 0.32692 1.00978 0.29722 0.0
C257 C 0.22824 0.47424 0.62321 0.0
C258 C 0.24962 0.54877 0.5957 0.0
C259 C 0.18332 0.40865 0.5743 0.0
C260 C 0.15911 0.41507 0.49323 0.0
C261 C 0.17432 0.49119 0.47073 0.0
C262 C 0.21972 0.55567 0.52071 0.0
C263 C 0.16363 0.33258 0.61092 0.0
C264 C 0.15075 0.50998 0.39072 0.0
C265 C 0.13415 0.24924 0.34719 0.0
C266 C 0.06336 0.22055 0.31257 0.0
C267 C 0.16414 0.30821 0.40704 0.0
C268 C 0.12493 0.34593 0.43176 0.0
C269 C 0.05161 0.31452 0.39752 0.0
C270 C 1.02272 0.25384 0.33927 0.0
C271 C 0.23618 0.32354 0.44558 0.0
C272 C 1.00109 0.34289 0.42265 0.0
H273 H 0.24901 0.46741 0.68195 0.0
H274 H 0.2347 0.61316 0.49881 0.0
H275 H 0.12803 0.28675 0.56899 0.0
H276 H 0.21491 0.33073 0.62122 0.0
H277 H 0.135 0.32334 0.67093 0.0
H278 H 0.19759 0.56365 0.36203 0.0
H279 H 0.13052 0.46317 0.34621 0.0
H280 H 0.10659 0.52278 0.40434 0.0
H281 H 0.16605 0.22354 0.32912 0.0
H282 H 0.96723 0.23196 0.31463 0.0
H283 H 0.22442 0.27335 0.48613 0.0
H284 H 0.26448 0.37598 0.48239 0.0
H285 H 0.27494 0.3272 0.39741 0.0
H286 H 0.94171 0.29687 0.41833 0.0
H287 H 1.00681 0.38734 0.37828 0.0
H288 H 1.01369 0.36746 0.48494 0.0
C289 C 0.55704 0.91708 0.51728 0.0
C290 C 0.5633 0.85961 0.56168 0.0
C291 C 0.59719 0.95149 0.44155 0.0
C292 C 0.64252 0.92565 0.4054 0.0
C293 C 0.64562 0.8654 0.44917 0.0
C294 C 0.61254 0.83934 0.52784 0.0
C295 C 0.58449 1.01045 0.3981 0.0
C296 C 0.67372 0.8183 0.41008 0.0
C297 C 0.72096 0.92426 0.19359 0.0
C298 C 0.79528 0.98572 0.19851 0.0
C299 C 0.66627 0.91262 0.2523 0.0
C300 C 0.68644 0.9585 0.32344 0.0
C301 C 0.75694 1.02894 0.31945 0.0
C302 C 0.80951 1.04275 0.2558 0.0
C303 C 0.58872 0.84638 0.24044 0.0
C304 C 0.78059 0.08631 0.38681 0.0
H305 H 0.51801 0.93268 0.53916 0.0
H306 H 0.61816 0.79428 0.55824 0.0
H307 H 0.60425 0.06122 0.43773 0.0
H308 H 0.61298 1.03036 0.33758 0.0
H309 H 0.52368 0.98553 0.38874 0.0
H310 H 0.62627 0.76735 0.3821 0.0
H311 H 0.71401 0.84893 0.35984 0.0
H312 H 0.69683 0.79524 0.45664 0.0
H313 H 0.70623 0.88188 0.14653 0.0
H314 H 0.86475 0.0937 0.25781 0.0
H315 H 0.57104 0.84594 0.17575 0.0
H316 H 0.54831 0.84816 0.28239 0.0
H317 H 0.58949 0.79291 0.25101 0.0
H318 H 0.74185 0.10809 0.39024 0.0
H319 H 0.83784 0.1364 0.3759 0.0
H320 H 0.77877 0.05817 0.44708 0.0
C321 C 0.71128 0.22567 0.65194 0.0
C322 C 0.74763 0.27356 0.58296 0.0
C323 C 0.74465 0.1965 0.70576 0.0
C324 C 0.81622 0.20883 0.68652 0.0
C325 C 0.84042 0.23445 0.60387 0.0
C326 C 0.81092 0.27298 0.55568 0.0
C327 C 0.69836 0.14886 0.77887 0.0
C328 C 0.8869 0.20839 0.56296 0.0
C329 C 0.98619 0.24626 0.8234 0.0
C330 C 0.95324 0.18862 0.88564 0.0
C331 C 0.94313 0.25639 0.76177 0.0
C332 C 0.86591 0.1981 0.75038 0.0
C333 C 0.8374 0.13163 0.80445 0.0
C334 C 0.87697 0.13298 0.87656 0.0
C335 C 0.98303 0.33123 0.7118 0.0
C336 C 0.77294 0.05371 0.78041 0.0
H337 H 0.6561 0.21212 0.6654 0.0
H338 H 0.83538 0.29927 0.49644 0.0
H339 H 0.66357 0.08753 0.76154 0.0
H340 H 0.73171 0.15394 0.83355 0.0
H341 H 0.65853 0.16567 0.79712 0.0
H342 H 0.87043 0.19591 0.49817 0.0
H343 H 0.94656 0.25322 0.56478 0.0
H344 H 0.878 0.1542 0.59278 0.0
H345 H 0.04591 0.28703 0.82578 0.0
H346 H 0.85147 0.08351 0.91887 0.0
H347 H 0.94475 0.34715 0.68314 0.0
H348 H 1.01793 0.32701 0.66403 0.0
H349 H 1.02265 0.37995 0.75038 0.0
H350 H 0.72795 1.03135 0.82749 0.0
H351 H 0.79178 1.0115 0.7799 0.0
H352 H 0.75105 0.05473 0.71829 0.0
C353 C 0.85558 0.64222 0.60861 0.0
C354 C 0.78482 0.58094 0.63302 0.0
C355 C 0.90235 0.70312 0.6629 0.0
C356 C 0.87762 0.70506 0.74466 0.0
C357 C 0.80913 0.63868 0.77067 0.0
C358 C 0.76426 0.58027 0.71525 0.0
C359 C 0.97925 0.76132 0.63167 0.0
C360 C 0.78201 0.62452 0.85857 0.0
C361 C 1.01725 0.85808 0.89972 0.0
C362 C 0.97616 0.88878 0.93156 0.0
C363 C 0.98882 0.80173 0.8375 0.0
C364 C 0.91698 0.77488 0.80232 0.0
C365 C 0.87735 0.80988 0.83112 0.0
C366 C 0.90503 0.86212 0.89729 0.0
C367 C 1.03836 0.77376 0.80943 0.0
C368 C 0.80578 0.79399 0.79055 0.0
H369 H 0.87518 0.64224 0.54719 0.0
H370 H 0.71245 0.53255 0.7385 0.0
H371 H 1.00121 0.81868 0.65901 0.0
H372 H 1.01715 0.73953 0.64559 0.0
H373 H 0.98013 0.76713 0.56378 0.0
H374 H 0.77374 0.56814 0.88046 0.0
H375 H 0.82029 0.66937 0.90138 0.0
H376 H 0.72662 0.61916 0.86124 0.0
H377 H 0.07309 0.87911 0.92296 0.0
H378 H 0.87215 0.88548 0.91892 0.0
H379 H 0.0758 0.77747 0.85875 0.0
H380 H 0.07601 0.81301 0.75998 0.0
H381 H 1.00565 0.71364 0.78886 0.0
H382 H 0.79821 0.84424 0.79507 0.0
H383 H 0.75785 0.74373 0.82146 0.0
H384 H 0.80409 0.78004 0.72479 0.0
C385 C 0.42009 0.26451 0.61373 0.0
C386 C 0.48185 0.33461 0.5836 0.0
C387 C 0.38604 0.25757 0.6906 0.0
C388 C 0.40467 0.32386 0.73671 0.0
C389 C 0.45849 0.39731 0.69966 0.0
C390 C 0.49673 0.40163 0.62483 0.0
C391 C 0.33397 0.1772 0.72503 0.0
C392 C 0.48138 0.47203 0.74107 0.0
C393 C 0.25575 0.29759 0.89586 0.0
C394 C 0.25425 0.24226 0.95173 0.0
C395 C 0.30801 0.33051 0.82968 0.0
C396 C 0.36522 0.31291 0.82075 0.0
C397 C 0.37302 0.27034 0.88809 0.0
C398 C 0.3168 0.2339 0.9501 0.0
C399 C 0.29735 0.3799 0.76707 0.0
C400 C 0.43872 0.2594 0.89478 0.0
H401 H 0.40472 0.21173 0.58231 0.0
H402 H 0.54313 0.45693 0.6036 0.0
H403 H 0.28531 0.17447 0.75381 0.0
H404 H 0.31619 0.13234 0.67825 0.0
H405 H 0.3625 0.16242 0.77313 0.0
H406 H 0.45265 0.49928 0.71077 0.0
H407 H 0.46712 0.46318 0.80726 0.0
H408 H 0.54232 0.51356 0.73406 0.0
H409 H 0.20876 0.30623 0.89621 0.0
H410 H 0.31851 0.19291 0.99312 0.0
H411 H 0.31469 0.37497 0.70462 0.0
H412 H 0.33145 0.44118 0.7844 0.0
H413 H 0.23833 0.36473 0.76593 0.0
H414 H 0.42021 0.19881 0.91345 0.0
H415 H 0.47644 0.29694 0.94357 0.0
H416 H 0.4707 0.27425 0.83695 0.0
C417 C 0.64687 0.59507 0.20891 0.0
C418 C 0.63292 0.51956 0.20579 0.0
C419 C 0.63441 0.632 0.13904 0.0
C420 C 0.60741 0.5924 1.06221 0.0
C421 C 0.61119 0.52478 1.0561 0.0
C422 C 0.61639 0.48651 0.12719 0.0
C423 C 0.65734 0.71536 0.1483 0.0
C424 C 0.61462 0.49356 0.97434 0.0
C425 C 0.45051 0.56945 0.91199 0.0
C426 C 0.47252 0.64482 0.88749 0.0
C427 C 0.49277 0.55152 0.96636 0.0
C428 C 0.5652 0.61114 0.99454 0.0
C429 C 0.59293 0.68641 0.95688 0.0
C430 C 0.54535 0.70283 0.90819 0.0
C431 C 0.45497 0.46712 0.99299 0.0
C432 C 0.67374 0.7496 0.96039 0.0
H433 H 0.66881 0.62597 0.26546 0.0
H434 H 0.61265 0.43155 0.11912 0.0
H435 H 0.61636 0.72814 0.12038 0.0
H436 H 0.66561 0.73255 0.21356 0.0
H437 H 0.71285 0.75259 0.11925 0.0
H438 H 0.57369 0.43052 0.97273 0.0
H439 H 0.60653 0.52363 0.92087 0.0
H440 H 0.67034 0.50022 0.96871 0.0
H441 H 0.3983 0.52334 0.88911 0.0
H442 H 0.56587 0.76148 0.88576 0.0
H443 H 0.47096 0.45837 1.05533 0.0
H444 H 0.46755 0.43511 0.94842 0.0
H445 H 0.39332 0.43943 0.9925 0.0
H446 H 0.68044 0.79553 1.00152 0.0
H447 H 0.69208 0.77893 0.89926 0.0
H448 H 0.7105 0.72746 0.97931 0.0
C449 C 0.47448 0.90201 1.03648 0.0
C450 C 0.46711 0.91338 0.95157 0.0
C451 C 0.50057 0.96254 0.09308 0.0
C452 C 0.52406 1.03885 1.06541 0.0
C453 C 0.51531 0.05087 0.98033 0.0
C454 C 0.4875 0.98869 0.92478 0.0
C455 C 0.5014 0.94429 0.18346 0.0
C456 C 0.53454 0.1291 0.94646 0.0
C457 C 0.55603 0.19659 0.21939 0.0
C458 C 0.63334 0.23423 0.23376 0.0
C459 C 0.51971 0.13313 0.16564 0.0
C460 C 0.56106 0.10564 0.12488 0.0
C461 C 0.63865 0.14219 0.1413 0.0
C462 C 0.6732 0.20478 0.19547 0.0
C463 C 0.43727 0.09692 0.15025 0.0
C464 C 0.68613 0.11679 0.09944 0.0
H465 H 0.4585 0.84481 1.05979 0.0
H466 H 0.48103 0.99929 0.86042 0.0
H467 H 0.55992 0.96918 0.20383 0.0
H468 H 0.47668 0.97104 0.22013 0.0
H469 H 0.46982 0.88107 0.1972 0.0
H470 H 0.48946 0.12312 0.90511 0.0
H471 H 0.54374 0.17112 0.99419 0.0
H472 H 0.58613 0.15307 0.90957 0.0
H473 H 0.52439 0.21888 0.24721 0.0
H474 H 0.7328 0.23278 0.20576 0.0
H475 H 0.40755 1.03478 0.16902 0.0
H476 H 0.42708 0.1002 0.0836 0.0
H477 H 0.41318 0.12589 0.18409 0.0
H478 H 0.66884 0.05712 0.12045 0.0
H479 H 0.74653 0.15522 0.11254 0.0
H480 H 0.67787 0.11601 1.03185 0.0
C481 C 0.14855 0.59833 0.96113 0.0
C482 C 0.16928 0.66965 0.92302 0.0
C483 C 0.10769 0.57259 1.03648 0.0
C484 C 0.07181 0.61063 1.06874 0.0
C485 C 0.07862 0.67298 1.0166 0.0
C486 C 0.13332 0.70619 0.95299 0.0
C487 C 0.10988 0.50839 0.08194 0.0
C488 C 1.03014 0.70747 1.02465 0.0
C489 C 0.92036 0.49021 0.23089 0.0
C490 C 0.90764 0.54537 0.26428 0.0
C491 C 0.98923 0.51369 0.19158 0.0
C492 C 1.02962 0.58919 0.15356 0.0
C493 C 1.02685 0.64561 0.20032 0.0
C494 C 0.96363 0.62377 0.25075 0.0
C495 C 1.03293 0.48904 0.24482 0.0
C496 C 0.09137 0.72767 0.20013 0.0
H497 H 0.17632 0.56992 0.93985 0.0
H498 H 0.1527 0.76448 0.93114 0.0
H499 H 0.14693 0.53179 0.13549 0.0
H500 H 0.05324 0.46148 0.09845 0.0
H501 H 0.13338 0.48129 1.04525 0.0
H502 H 1.00223 0.70295 0.96531 0.0
H503 H 0.98501 0.67806 1.07046 0.0
H504 H 0.06501 0.77008 1.03729 0.0
H505 H 0.88382 0.43001 0.2489 0.0
H506 H 0.95655 0.66805 0.27651 0.0
H507 H 0.09339 0.53233 0.24361 0.0
H508 H 1.02067 0.43058 0.229 0.0
H509 H 1.01678 0.48559 0.31019 0.0
H510 H 0.11531 0.74002 0.26242 0.0
H511 H 0.07184 0.76786 0.18466 0.0
H512 H 0.13756 0.7387 0.15838 0.0
loop_
_geom_bond_atom_site_label_1
_geom_bond_atom_site_label_2
_geom_bond_distance
_geom_bond_site_symmetry_2
_ccdc_geom_bond_type
Co0 N1 2.034 1_455 S
Co0 O15 2.262 . S
Co0 O19 1.958 1_455 S
Co0 O23 1.950 1_445 S
Co0 O24 2.057 . S
N1 Co0 2.034 1_655 S
N1 C2 1.366 . S
N1 C4 1.332 1_645 S
C2 N1 1.366 . S
C2 C5 1.377 . S
C2 H34 0.931 . S
N3 C4 1.346 1_655 S
N3 C5 1.337 1_565 S
C4 N1 1.332 1_465 S
C4 N3 1.346 1_455 S
C4 C38 1.361 . S
C5 C2 1.377 . S
C5 N3 1.337 1_545 S
C5 H41 0.930 . S
Co6 N7 2.034 1_655 S
Co6 O20 1.950 1_645 S
Co6 O21 2.262 1_545 S
Co6 O22 1.958 1_655 S
Co6 O26 2.057 1_545 S
N7 Co6 2.034 1_455 S
N7 C10 1.366 . S
N7 C11 1.332 1_445 S
N8 C9 1.337 1_565 S
N8 C11 1.346 1_455 S
C9 N8 1.337 1_545 S
C9 C10 1.377 . S
C9 H42 0.930 . S
C10 N7 1.366 . S
C10 C9 1.377 . S
C10 H14 0.931 . S
C11 N7 1.332 1_665 S
C11 N8 1.346 1_655 S
C11 C28 1.361 . S
Co12 O15 2.097 1_554 S
Co12 O16 2.065 1_545 S
Co12 O17 2.065 1_444 S
Co12 O18 2.042 1_454 S
Co12 O21 2.097 1_445 S
Co12 O25 2.042 . S
C13 O21 1.253 . S
C13 O26 1.263 . S
H14 C10 0.931 . S
O15 Co0 2.262 . S
O15 Co12 2.097 1_556 S
O15 C39 1.253 . S
O16 Co12 2.065 1_565 S
O16 C32 1.221 . S
O17 Co12 2.065 1_666 S
O17 C27 1.221 . S
O18 Co12 2.042 1_656 S
O18 C33 1.237 . S
O19 Co0 1.958 1_655 S
O19 C33 1.278 . S
O20 Co6 1.950 1_465 S
O20 C32 1.277 . S
O21 Co6 2.262 1_565 S
O21 Co12 2.097 1_665 S
O21 C13 1.253 . S
O22 Co6 1.958 1_455 S
O22 C40 1.278 . S
O23 Co0 1.950 1_665 S
O23 C27 1.277 . S
O24 Co0 2.057 . S
O24 C39 1.263 . S
O25 Co12 2.042 . S
O25 C40 1.237 . S
O26 Co6 2.057 1_565 S
O26 C13 1.263 . S
C27 O17 1.221 . S
C27 O23 1.277 . S
C28 C11 1.361 . S
C28 H29 0.960 . S
C28 H30 0.961 . S
C28 H31 0.961 . S
H29 C28 0.960 . S
H30 C28 0.961 . S
H31 C28 0.961 . S
C32 O16 1.221 . S
C32 O20 1.277 . S
C33 O18 1.237 . S
C33 O19 1.278 . S
H34 C2 0.931 . S
H35 C38 0.961 . S
H36 C38 0.961 . S
H37 C38 0.960 . S
C38 C4 1.361 . S
C38 H35 0.961 . S
C38 H36 0.961 . S
C38 H37 0.960 . S
C39 O15 1.253 . S
C39 O24 1.263 . S
C40 O22 1.278 . S
C40 O25 1.237 . S
H41 C5 0.930 . S
H42 C9 0.930 . S
Co43 N44 2.034 . S
Co43 O58 2.262 . S
Co43 O62 1.958 . S
Co43 O66 1.950 . S
Co43 O67 2.057 . S
N44 Co43 2.034 . S
N44 C45 1.366 1_554 S
N44 C47 1.332 1_554 S
C45 N44 1.366 1_556 S
C45 C48 1.377 . S
C45 H77 0.931 1_556 S
N46 C47 1.346 . S
N46 C48 1.337 . S
C47 N44 1.332 1_556 S
C47 N46 1.346 . S
C47 C81 1.361 1_556 S
C48 C45 1.377 . S
C48 N46 1.337 . S
C48 H84 0.930 . S
Co49 N50 2.034 . S
Co49 O63 1.950 . S
Co49 O64 2.262 . S
Co49 O65 1.958 . S
Co49 O69 2.057 . S
N50 Co49 2.034 . S
N50 C53 1.366 . S
N50 C54 1.332 . S
N51 C52 1.337 . S
N51 C54 1.346 . S
C52 N51 1.337 . S
C52 C53 1.377 . S
C52 H85 0.930 . S
C53 N50 1.366 . S
C53 C52 1.377 . S
C53 H57 0.931 . S
C54 N50 1.332 . S
C54 N51 1.346 . S
C54 C71 1.361 . S
Co55 O58 2.097 . S
Co55 O59 2.065 . S
Co55 O60 2.065 . S
Co55 O61 2.042 . S
Co55 O64 2.097 . S
Co55 O68 2.042 . S
C56 O64 1.253 . S
C56 O69 1.263 . S
H57 C53 0.931 . S
O58 Co43 2.262 . S
O58 Co55 2.097 . S
O58 C82 1.253 . S
O59 Co55 2.065 . S
O59 C75 1.221 . S
O60 Co55 2.065 . S
O60 C70 1.221 . S
O61 Co55 2.042 . S
O61 C76 1.237 . S
O62 Co43 1.958 . S
O62 C76 1.278 . S
O63 Co49 1.950 . S
O63 C75 1.277 . S
O64 Co49 2.262 . S
O64 Co55 2.097 . S
O64 C56 1.253 . S
O65 Co49 1.958 . S
O65 C83 1.278 . S
O66 Co43 1.950 . S
O66 C70 1.277 . S
O67 Co43 2.057 . S
O67 C82 1.263 . S
O68 Co55 2.042 . S
O68 C83 1.237 . S
O69 Co49 2.057 . S
O69 C56 1.263 . S
C70 O60 1.221 . S
C70 O66 1.277 . S
C71 C54 1.361 . S
C71 H72 0.960 . S
C71 H73 0.961 . S
C71 H74 0.961 . S
H72 C71 0.960 . S
H73 C71 0.961 . S
H74 C71 0.961 . S
C75 O59 1.221 . S
C75 O63 1.277 . S
C76 O61 1.237 . S
C76 O62 1.278 . S
H77 C45 0.931 1_554 S
H78 C81 0.961 1_556 S
H79 C81 0.961 1_556 S
H80 C81 0.960 . S
C81 C47 1.361 1_554 S
C81 H78 0.961 1_554 S
C81 H79 0.961 1_554 S
C81 H80 0.960 . S
C82 O58 1.253 . S
C82 O67 1.263 . S
C83 O65 1.278 . S
C83 O68 1.237 . S
H84 C48 0.930 . S
H85 C52 0.930 . S
Co86 N87 2.034 . S
Co86 O101 2.262 . S
Co86 O105 1.958 . S
Co86 O109 1.950 . S
Co86 O110 2.057 . S
N87 Co86 2.034 . S
N87 C88 1.366 . S
N87 C90 1.332 . S
C88 N87 1.366 . S
C88 C91 1.377 . S
C88 H120 0.931 . S
N89 C90 1.346 . S
N89 C91 1.337 . S
C90 N87 1.332 . S
C90 N89 1.346 . S
C90 C124 1.361 . S
C91 C88 1.377 . S
C91 N89 1.337 . S
C91 H127 0.930 . S
Co92 N93 2.034 . S
Co92 O106 1.950 . S
Co92 O107 2.262 . S
Co92 O108 1.958 . S
Co92 O112 2.057 . S
N93 Co92 2.034 . S
N93 C96 1.366 1_556 S
N93 C97 1.332 1_556 S
N94 C95 1.337 . S
N94 C97 1.346 . S
C95 N94 1.337 . S
C95 C96 1.377 . S
C95 H128 0.930 . S
C96 N93 1.366 1_554 S
C96 C95 1.377 . S
C96 H100 0.931 1_554 S
C97 N93 1.332 1_554 S
C97 N94 1.346 . S
C97 C114 1.361 1_554 S
Co98 O101 2.097 . S
Co98 O102 2.065 . S
Co98 O103 2.065 . S
Co98 O104 2.042 . S
Co98 O107 2.097 . S
Co98 O111 2.042 . S
C99 O107 1.253 . S
C99 O112 1.263 . S
H100 C96 0.931 1_556 S
O101 Co86 2.262 . S
O101 Co98 2.097 . S
O101 C125 1.253 . S
O102 Co98 2.065 . S
O102 C118 1.221 . S
O103 Co98 2.065 . S
O103 C113 1.221 . S
O104 Co98 2.042 . S
O104 C119 1.237 . S
O105 Co86 1.958 . S
O105 C119 1.278 . S
O106 Co92 1.950 . S
O106 C118 1.277 . S
O107 Co92 2.262 . S
O107 Co98 2.097 . S
O107 C99 1.253 . S
O108 Co92 1.958 . S
O108 C126 1.278 . S
O109 Co86 1.950 . S
O109 C113 1.277 . S
O110 Co86 2.057 . S
O110 C125 1.263 . S
O111 Co98 2.042 . S
O111 C126 1.237 . S
O112 Co92 2.057 . S
O112 C99 1.263 . S
C113 O103 1.221 . S
C113 O109 1.277 . S
C114 C97 1.361 1_556 S
C114 H115 0.960 . S
C114 H116 0.961 1_556 S
C114 H117 0.961 1_556 S
H115 C114 0.960 . S
H116 C114 0.961 1_554 S
H117 C114 0.961 1_554 S
C118 O102 1.221 . S
C118 O106 1.277 . S
C119 O104 1.237 . S
C119 O105 1.278 . S
H120 C88 0.931 . S
H121 C124 0.961 . S
H122 C124 0.961 . S
H123 C124 0.960 . S
C124 C90 1.361 . S
C124 H121 0.961 . S
C124 H122 0.961 . S
C124 H123 0.960 . S
C125 O101 1.253 . S
C125 O110 1.263 . S
C126 O108 1.278 . S
C126 O111 1.237 . S
H127 C91 0.930 . S
H128 C95 0.930 . S
C129 C130 1.391 . S
C129 C131 1.394 1_455 S
C129 H145 0.931 1_455 S
C130 C129 1.391 . S
C130 C134 1.376 1_545 S
C131 C129 1.394 1_655 S
C131 C132 1.369 1_655 S
C131 C135 1.531 . S
C132 C131 1.369 1_455 S
C132 C133 1.410 1_545 S
C132 C140 1.503 1_545 S
C133 C132 1.410 1_565 S
C133 C134 1.392 . S
C133 C136 1.511 . S
C134 C130 1.376 1_565 S
C134 C133 1.392 . S
C134 H146 0.929 . S
C135 C131 1.531 . S
C135 H147 0.960 . S
C135 H148 0.962 . S
C135 H149 0.960 . S
C136 C133 1.511 . S
C136 H150 0.961 . S
C136 H151 0.961 . S
C136 H152 0.961 . S
C137 C138 1.370 . S
C137 C139 1.363 . S
C137 H153 0.931 . S
C138 C137 1.370 . S
C138 C142 1.408 1_665 S
C139 C137 1.363 . S
C139 C140 1.370 1_655 S
C139 C143 1.524 . S
C140 C132 1.503 1_565 S
C140 C139 1.370 1_455 S
C140 C141 1.403 1_565 S
C141 C140 1.403 1_545 S
C141 C142 1.404 . S
C141 C144 1.539 . S
C142 C138 1.408 1_445 S
C142 C141 1.404 . S
C142 H154 0.930 . S
C143 C139 1.524 . S
C143 H155 0.956 . S
C143 H156 0.961 . S
C143 H157 0.961 . S
C144 C141 1.539 . S
C144 H158 0.958 . S
C144 H159 0.961 . S
C144 H160 0.960 . S
H145 C129 0.931 1_655 S
H146 C134 0.929 . S
H147 C135 0.960 . S
H148 C135 0.962 . S
H149 C135 0.960 . S
H150 C136 0.961 . S
H151 C136 0.961 . S
H152 C136 0.961 . S
H153 C137 0.931 . S
H154 C142 0.930 . S
H155 C143 0.956 . S
H156 C143 0.961 . S
H157 C143 0.961 . S
H158 C144 0.958 . S
H159 C144 0.961 . S
H160 C144 0.960 . S
C161 C162 1.391 . S
C161 C163 1.394 . S
C161 H177 0.931 . S
C162 C161 1.391 . S
C162 C166 1.376 . S
C163 C161 1.394 . S
C163 C164 1.369 . S
C163 C167 1.531 . S
C164 C163 1.369 . S
C164 C165 1.410 . S
C164 C172 1.503 . S
C165 C164 1.410 . S
C165 C166 1.392 . S
C165 C168 1.511 . S
C166 C162 1.376 . S
C166 C165 1.392 . S
C166 H178 0.929 . S
C167 C163 1.531 . S
C167 H179 0.960 . S
C167 H180 0.962 . S
C167 H181 0.960 . S
C168 C165 1.511 . S
C168 H182 0.961 . S
C168 H183 0.961 . S
C168 H184 0.961 . S
C169 C170 1.370 1_556 S
C169 C171 1.363 . S
C169 H185 0.931 . S
C170 C169 1.370 1_554 S
C170 C174 1.408 1_554 S
C171 C169 1.363 . S
C171 C172 1.370 . S
C171 C175 1.524 . S
C172 C164 1.503 . S
C172 C171 1.370 . S
C172 C173 1.403 . S
C173 C172 1.403 . S
C173 C174 1.404 . S
C173 C176 1.539 . S
C174 C170 1.408 1_556 S
C174 C173 1.404 . S
C174 H186 0.930 1_556 S
C175 C171 1.524 . S
C175 H187 0.956 . S
C175 H188 0.961 . S
C175 H189 0.961 . S
C176 C173 1.539 . S
C176 H190 0.958 . S
C176 H191 0.961 . S
C176 H192 0.960 . S
H177 C161 0.931 . S
H178 C166 0.929 . S
H179 C167 0.960 . S
H180 C167 0.962 . S
H181 C167 0.960 . S
H182 C168 0.961 . S
H183 C168 0.961 . S
H184 C168 0.961 . S
H185 C169 0.931 . S
H186 C174 0.930 1_554 S
H187 C175 0.956 . S
H188 C175 0.961 . S
H189 C175 0.961 . S
H190 C176 0.958 . S
H191 C176 0.961 . S
H192 C176 0.960 . S
C193 C194 1.391 1_554 S
C193 C195 1.394 . S
C193 H209 0.931 1_554 S
C194 C193 1.391 1_556 S
C194 C198 1.376 1_556 S
C195 C193 1.394 . S
C195 C196 1.369 . S
C195 C199 1.531 . S
C196 C195 1.369 . S
C196 C197 1.410 . S
C196 C204 1.503 . S
C197 C196 1.410 . S
C197 C198 1.392 . S
C197 C200 1.511 . S
C198 C194 1.376 1_554 S
C198 C197 1.392 . S
C198 H210 0.929 . S
C199 C195 1.531 . S
C199 H211 0.960 . S
C199 H212 0.962 . S
C199 H213 0.960 . S
C200 C197 1.511 . S
C200 H214 0.961 . S
C200 H215 0.961 . S
C200 H216 0.961 . S
C201 C202 1.370 . S
C201 C203 1.363 . S
C201 H217 0.931 . S
C202 C201 1.370 . S
C202 C206 1.408 . S
C203 C201 1.363 . S
C203 C204 1.370 . S
C203 C207 1.524 . S
C204 C196 1.503 . S
C204 C203 1.370 . S
C204 C205 1.403 . S
C205 C204 1.403 . S
C205 C206 1.404 . S
C205 C208 1.539 . S
C206 C202 1.408 . S
C206 C205 1.404 . S
C206 H218 0.930 . S
C207 C203 1.524 . S
C207 H219 0.956 . S
C207 H220 0.961 . S
C207 H221 0.961 . S
C208 C205 1.539 . S
C208 H222 0.958 . S
C208 H223 0.961 . S
C208 H224 0.960 . S
H209 C193 0.931 1_556 S
H210 C198 0.929 . S
H211 C199 0.960 . S
H212 C199 0.962 . S
H213 C199 0.960 . S
H214 C200 0.961 . S
H215 C200 0.961 . S
H216 C200 0.961 . S
H217 C201 0.931 . S
H218 C206 0.930 . S
H219 C207 0.956 . S
H220 C207 0.961 . S
H221 C207 0.961 . S
H222 C208 0.958 . S
H223 C208 0.961 . S
H224 C208 0.960 . S
C225 C226 1.391 . S
C225 C227 1.394 . S
C225 H241 0.931 . S
C226 C225 1.391 . S
C226 C230 1.376 . S
C227 C225 1.394 . S
C227 C228 1.369 . S
C227 C231 1.531 . S
C228 C227 1.369 . S
C228 C229 1.410 . S
C228 C236 1.503 . S
C229 C228 1.410 . S
C229 C230 1.392 . S
C229 C232 1.511 . S
C230 C226 1.376 . S
C230 C229 1.392 . S
C230 H242 0.929 . S
C231 C227 1.531 . S
C231 H243 0.960 . S
C231 H244 0.962 . S
C231 H245 0.960 . S
C232 C229 1.511 . S
C232 H246 0.961 . S
C232 H247 0.961 . S
C232 H248 0.961 . S
C233 C234 1.370 . S
C233 C235 1.363 . S
C233 H249 0.931 . S
C234 C233 1.370 . S
C234 C238 1.408 . S
C235 C233 1.363 . S
C235 C236 1.370 . S
C235 C239 1.524 . S
C236 C228 1.503 . S
C236 C235 1.370 . S
C236 C237 1.403 . S
C237 C236 1.403 . S
C237 C238 1.404 . S
C237 C240 1.539 . S
C238 C234 1.408 . S
C238 C237 1.404 . S
C238 H250 0.930 . S
C239 C235 1.524 . S
C239 H251 0.956 . S
C239 H252 0.961 . S
C239 H253 0.961 . S
C240 C237 1.539 . S
C240 H254 0.958 1_565 S
C240 H255 0.961 1_565 S
C240 H256 0.960 . S
H241 C225 0.931 . S
H242 C230 0.929 . S
H243 C231 0.960 . S
H244 C231 0.962 . S
H245 C231 0.960 . S
H246 C232 0.961 . S
H247 C232 0.961 . S
H248 C232 0.961 . S
H249 C233 0.931 . S
H250 C238 0.930 . S
H251 C239 0.956 . S
H252 C239 0.961 . S
H253 C239 0.961 . S
H254 C240 0.958 1_545 S
H255 C240 0.961 1_545 S
H256 C240 0.960 . S
C257 C258 1.391 . S
C257 C259 1.394 . S
C257 H273 0.931 . S
C258 C257 1.391 . S
C258 C262 1.376 . S
C259 C257 1.394 . S
C259 C260 1.369 . S
C259 C263 1.531 . S
C260 C259 1.369 . S
C260 C261 1.410 . S
C260 C268 1.503 . S
C261 C260 1.410 . S
C261 C262 1.392 . S
C261 C264 1.511 . S
C262 C258 1.376 . S
C262 C261 1.392 . S
C262 H274 0.929 . S
C263 C259 1.531 . S
C263 H275 0.960 . S
C263 H276 0.962 . S
C263 H277 0.960 . S
C264 C261 1.511 . S
C264 H278 0.961 . S
C264 H279 0.961 . S
C264 H280 0.961 . S
C265 C266 1.370 . S
C265 C267 1.363 . S
C265 H281 0.931 . S
C266 C265 1.370 . S
C266 C270 1.408 . S
C267 C265 1.363 . S
C267 C268 1.370 . S
C267 C271 1.524 . S
C268 C260 1.503 . S
C268 C267 1.370 . S
C268 C269 1.403 . S
C269 C268 1.403 . S
C269 C270 1.404 . S
C269 C272 1.539 . S
C270 C266 1.408 . S
C270 C269 1.404 . S
C270 H282 0.930 . S
C271 C267 1.524 . S
C271 H283 0.956 . S
C271 H284 0.961 . S
C271 H285 0.961 . S
C272 C269 1.539 . S
C272 H286 0.958 . S
C272 H287 0.961 1_455 S
C272 H288 0.960 . S
H273 C257 0.931 . S
H274 C262 0.929 . S
H275 C263 0.960 . S
H276 C263 0.962 . S
H277 C263 0.960 . S
H278 C264 0.961 . S
H279 C264 0.961 . S
H280 C264 0.961 . S
H281 C265 0.931 . S
H282 C270 0.930 . S
H283 C271 0.956 . S
H284 C271 0.961 . S
H285 C271 0.961 . S
H286 C272 0.958 . S
H287 C272 0.961 1_655 S
H288 C272 0.960 . S
C289 C290 1.391 . S
C289 C291 1.394 . S
C289 H305 0.931 . S
C290 C289 1.391 . S
C290 C294 1.376 . S
C291 C289 1.394 . S
C291 C292 1.369 . S
C291 C295 1.531 . S
C292 C291 1.369 . S
C292 C293 1.410 . S
C292 C300 1.503 . S
C293 C292 1.410 . S
C293 C294 1.392 . S
C293 C296 1.511 . S
C294 C290 1.376 . S
C294 C293 1.392 . S
C294 H306 0.929 . S
C295 C291 1.531 . S
C295 H307 0.960 . S
C295 H308 0.962 . S
C295 H309 0.960 . S
C296 C293 1.511 . S
C296 H310 0.961 . S
C296 H311 0.961 . S
C296 H312 0.961 . S
C297 C298 1.370 . S
C297 C299 1.363 . S
C297 H313 0.931 . S
C298 C297 1.370 . S
C298 C302 1.408 . S
C299 C297 1.363 . S
C299 C300 1.370 . S
C299 C303 1.524 . S
C300 C292 1.503 . S
C300 C299 1.370 . S
C300 C301 1.403 . S
C301 C300 1.403 . S
C301 C302 1.404 . S
C301 C304 1.539 . S
C302 C298 1.408 . S
C302 C301 1.404 . S
C302 H314 0.930 . S
C303 C299 1.524 . S
C303 H315 0.956 . S
C303 H316 0.961 . S
C303 H317 0.961 . S
C304 C301 1.539 . S
C304 H318 0.958 1_565 S
C304 H319 0.961 . S
C304 H320 0.960 . S
H305 C289 0.931 . S
H306 C294 0.929 . S
H307 C295 0.960 . S
H308 C295 0.962 . S
H309 C295 0.960 . S
H310 C296 0.961 . S
H311 C296 0.961 . S
H312 C296 0.961 . S
H313 C297 0.931 . S
H314 C302 0.930 . S
H315 C303 0.956 . S
H316 C303 0.961 . S
H317 C303 0.961 . S
H318 C304 0.958 1_545 S
H319 C304 0.961 . S
H320 C304 0.960 . S
C321 C322 1.391 . S
C321 C323 1.394 . S
C321 H337 0.931 . S
C322 C321 1.391 . S
C322 C326 1.376 . S
C323 C321 1.394 . S
C323 C324 1.369 . S
C323 C327 1.531 . S
C324 C323 1.369 . S
C324 C325 1.410 . S
C324 C332 1.503 . S
C325 C324 1.410 . S
C325 C326 1.392 . S
C325 C328 1.511 . S
C326 C322 1.376 . S
C326 C325 1.392 . S
C326 H338 0.929 . S
C327 C323 1.531 . S
C327 H339 0.960 . S
C327 H340 0.962 . S
C327 H341 0.960 . S
C328 C325 1.511 . S
C328 H342 0.961 . S
C328 H343 0.961 . S
C328 H344 0.961 . S
C329 C330 1.370 . S
C329 C331 1.363 . S
C329 H345 0.931 . S
C330 C329 1.370 . S
C330 C334 1.408 . S
C331 C329 1.363 . S
C331 C332 1.370 . S
C331 C335 1.524 . S
C332 C324 1.503 . S
C332 C331 1.370 . S
C332 C333 1.403 . S
C333 C332 1.403 . S
C333 C334 1.404 . S
C333 C336 1.539 . S
C334 C330 1.408 . S
C334 C333 1.404 . S
C334 H346 0.930 . S
C335 C331 1.524 . S
C335 H347 0.956 . S
C335 H348 0.961 . S
C335 H349 0.961 . S
C336 C333 1.539 . S
C336 H350 0.958 . S
C336 H351 0.961 1_545 S
C336 H352 0.960 . S
H337 C321 0.931 . S
H338 C326 0.929 . S
H339 C327 0.960 . S
H340 C327 0.962 . S
H341 C327 0.960 . S
H342 C328 0.961 . S
H343 C328 0.961 . S
H344 C328 0.961 . S
H345 C329 0.931 . S
H346 C334 0.930 . S
H347 C335 0.956 . S
H348 C335 0.961 . S
H349 C335 0.961 . S
H350 C336 0.958 . S
H351 C336 0.961 1_565 S
H352 C336 0.960 . S
C353 C354 1.391 . S
C353 C355 1.394 . S
C353 H369 0.931 . S
C354 C353 1.391 . S
C354 C358 1.376 . S
C355 C353 1.394 . S
C355 C356 1.369 . S
C355 C359 1.531 . S
C356 C355 1.369 . S
C356 C357 1.410 . S
C356 C364 1.503 . S
C357 C356 1.410 . S
C357 C358 1.392 . S
C357 C360 1.511 . S
C358 C354 1.376 . S
C358 C357 1.392 . S
C358 H370 0.929 . S
C359 C355 1.531 . S
C359 H371 0.960 . S
C359 H372 0.962 . S
C359 H373 0.960 . S
C360 C357 1.511 . S
C360 H374 0.961 . S
C360 H375 0.961 . S
C360 H376 0.961 . S
C361 C362 1.370 . S
C361 C363 1.363 . S
C361 H377 0.931 . S
C362 C361 1.370 . S
C362 C366 1.408 . S
C363 C361 1.363 . S
C363 C364 1.370 . S
C363 C367 1.524 . S
C364 C356 1.503 . S
C364 C363 1.370 . S
C364 C365 1.403 . S
C365 C364 1.403 . S
C365 C366 1.404 . S
C365 C368 1.539 . S
C366 C362 1.408 . S
C366 C365 1.404 . S
C366 H378 0.930 . S
C367 C363 1.524 . S
C367 H379 0.956 . S
C367 H380 0.961 . S
C367 H381 0.961 . S
C368 C365 1.539 . S
C368 H382 0.958 . S
C368 H383 0.961 . S
C368 H384 0.960 . S
H369 C353 0.931 . S
H370 C358 0.929 . S
H371 C359 0.960 . S
H372 C359 0.962 . S
H373 C359 0.960 . S
H374 C360 0.961 . S
H375 C360 0.961 . S
H376 C360 0.961 . S
H377 C361 0.931 . S
H378 C366 0.930 . S
H379 C367 0.956 . S
H380 C367 0.961 . S
H381 C367 0.961 . S
H382 C368 0.958 . S
H383 C368 0.961 . S
H384 C368 0.960 . S
C385 C386 1.391 . S
C385 C387 1.394 . S
C385 H401 0.931 . S
C386 C385 1.391 . S
C386 C390 1.376 . S
C387 C385 1.394 . S
C387 C388 1.369 . S
C387 C391 1.531 . S
C388 C387 1.369 . S
C388 C389 1.410 . S
C388 C396 1.503 . S
C389 C388 1.410 . S
C389 C390 1.392 . S
C389 C392 1.511 . S
C390 C386 1.376 . S
C390 C389 1.392 . S
C390 H402 0.929 . S
C391 C387 1.531 . S
C391 H403 0.960 . S
C391 H404 0.962 . S
C391 H405 0.960 . S
C392 C389 1.511 . S
C392 H406 0.961 . S
C392 H407 0.961 . S
C392 H408 0.961 . S
C393 C394 1.370 . S
C393 C395 1.363 . S
C393 H409 0.931 . S
C394 C393 1.370 . S
C394 C398 1.408 . S
C395 C393 1.363 . S
C395 C396 1.370 . S
C395 C399 1.524 . S
C396 C388 1.503 . S
C396 C395 1.370 . S
C396 C397 1.403 . S
C397 C396 1.403 . S
C397 C398 1.404 . S
C397 C400 1.539 . S
C398 C394 1.408 . S
C398 C397 1.404 . S
C398 H410 0.930 . S
C399 C395 1.524 . S
C399 H411 0.956 . S
C399 H412 0.961 . S
C399 H413 0.961 . S
C400 C397 1.539 . S
C400 H414 0.958 . S
C400 H415 0.961 . S
C400 H416 0.960 . S
H401 C385 0.931 . S
H402 C390 0.929 . S
H403 C391 0.960 . S
H404 C391 0.962 . S
H405 C391 0.960 . S
H406 C392 0.961 . S
H407 C392 0.961 . S
H408 C392 0.961 . S
H409 C393 0.931 . S
H410 C398 0.930 . S
H411 C399 0.956 . S
H412 C399 0.961 . S
H413 C399 0.961 . S
H414 C400 0.958 . S
H415 C400 0.961 . S
H416 C400 0.960 . S
C417 C418 1.391 . S
C417 C419 1.394 . S
C417 H433 0.931 . S
C418 C417 1.391 . S
C418 C422 1.376 . S
C419 C417 1.394 . S
C419 C420 1.369 . S
C419 C423 1.531 . S
C420 C419 1.369 . S
C420 C421 1.410 . S
C420 C428 1.503 1_554 S
C421 C420 1.410 . S
C421 C422 1.392 . S
C421 C424 1.511 1_554 S
C422 C418 1.376 . S
C422 C421 1.392 . S
C422 H434 0.929 . S
C423 C419 1.531 . S
C423 H435 0.960 . S
C423 H436 0.962 . S
C423 H437 0.960 . S
C424 C421 1.511 1_556 S
C424 H438 0.961 . S
C424 H439 0.961 . S
C424 H440 0.961 . S
C425 C426 1.370 . S
C425 C427 1.363 . S
C425 H441 0.931 . S
C426 C425 1.370 . S
C426 C430 1.408 . S
C427 C425 1.363 . S
C427 C428 1.370 . S
C427 C431 1.524 1_556 S
C428 C420 1.503 1_556 S
C428 C427 1.370 . S
C428 C429 1.403 . S
C429 C428 1.403 . S
C429 C430 1.404 . S
C429 C432 1.539 . S
C430 C426 1.408 . S
C430 C429 1.404 . S
C430 H442 0.930 . S
C431 C427 1.524 1_554 S
C431 H443 0.956 . S
C431 H444 0.961 . S
C431 H445 0.961 . S
C432 C429 1.539 . S
C432 H446 0.958 . S
C432 H447 0.961 . S
C432 H448 0.960 . S
H433 C417 0.931 . S
H434 C422 0.929 . S
H435 C423 0.960 . S
H436 C423 0.962 . S
H437 C423 0.960 . S
H438 C424 0.961 . S
H439 C424 0.961 . S
H440 C424 0.961 . S
H441 C425 0.931 . S
H442 C430 0.930 . S
H443 C431 0.956 . S
H444 C431 0.961 . S
H445 C431 0.961 . S
H446 C432 0.958 . S
H447 C432 0.961 . S
H448 C432 0.960 . S
C449 C450 1.391 . S
C449 C451 1.394 . S
C449 H465 0.931 . S
C450 C449 1.391 . S
C450 C454 1.376 . S
C451 C449 1.394 . S
C451 C452 1.369 . S
C451 C455 1.531 1_556 S
C452 C451 1.369 . S
C452 C453 1.410 1_565 S
C452 C460 1.503 1_566 S
C453 C452 1.410 1_545 S
C453 C454 1.392 1_545 S
C453 C456 1.511 . S
C454 C450 1.376 . S
C454 C453 1.392 1_565 S
C454 H466 0.929 . S
C455 C451 1.531 1_554 S
C455 H467 0.960 . S
C455 H468 0.962 . S
C455 H469 0.960 . S
C456 C453 1.511 . S
C456 H470 0.961 . S
C456 H471 0.961 . S
C456 H472 0.961 . S
C457 C458 1.370 . S
C457 C459 1.363 . S
C457 H473 0.931 . S
C458 C457 1.370 . S
C458 C462 1.408 . S
C459 C457 1.363 . S
C459 C460 1.370 . S
C459 C463 1.524 1_554 S
C460 C452 1.503 1_544 S
C460 C459 1.370 . S
C460 C461 1.403 . S
C461 C460 1.403 . S
C461 C462 1.404 . S
C461 C464 1.539 1_545 S
C462 C458 1.408 . S
C462 C461 1.404 . S
C462 H474 0.930 . S
C463 C459 1.524 1_556 S
C463 H475 0.956 . S
C463 H476 0.961 . S
C463 H477 0.961 . S
C464 C461 1.539 1_565 S
C464 H478 0.958 . S
C464 H479 0.961 1_565 S
C464 H480 0.960 . S
H465 C449 0.931 . S
H466 C454 0.929 . S
H467 C455 0.960 . S
H468 C455 0.962 . S
H469 C455 0.960 . S
H470 C456 0.961 . S
H471 C456 0.961 . S
H472 C456 0.961 . S
H473 C457 0.931 . S
H474 C462 0.930 . S
H475 C463 0.956 . S
H476 C463 0.961 . S
H477 C463 0.961 . S
H478 C464 0.958 . S
H479 C464 0.961 1_545 S
H480 C464 0.960 . S
C481 C482 1.391 . S
C481 C483 1.394 . S
C481 H497 0.931 . S
C482 C481 1.391 . S
C482 C486 1.376 . S
C483 C481 1.394 . S
C483 C484 1.369 . S
C483 C487 1.531 1_556 S
C484 C483 1.369 . S
C484 C485 1.410 . S
C484 C492 1.503 1_456 S
C485 C484 1.410 . S
C485 C486 1.392 . S
C485 C488 1.511 1_455 S
C486 C482 1.376 . S
C486 C485 1.392 . S
C486 H498 0.929 . S
C487 C483 1.531 1_554 S
C487 H499 0.960 . S
C487 H500 0.962 . S
C487 H501 0.960 . S
C488 C485 1.511 1_655 S
C488 H502 0.961 . S
C488 H503 0.961 . S
C488 H504 0.961 . S
C489 C490 1.370 . S
C489 C491 1.363 . S
C489 H505 0.931 . S
C490 C489 1.370 . S
C490 C494 1.408 . S
C491 C489 1.363 . S
C491 C492 1.370 . S
C491 C495 1.524 1_554 S
C492 C484 1.503 1_654 S
C492 C491 1.370 . S
C492 C493 1.403 . S
C493 C492 1.403 . S
C493 C494 1.404 . S
C493 C496 1.539 1_655 S
C494 C490 1.408 . S
C494 C493 1.404 . S
C494 H506 0.930 . S
C495 C491 1.524 1_556 S
C495 H507 0.956 . S
C495 H508 0.961 . S
C495 H509 0.961 . S
C496 C493 1.539 1_455 S
C496 H510 0.958 . S
C496 H511 0.961 . S
C496 H512 0.960 . S
H497 C481 0.931 . S
H498 C486 0.929 . S
H499 C487 0.960 . S
H500 C487 0.962 . S
H501 C487 0.960 . S
H502 C488 0.961 . S
H503 C488 0.961 . S
H504 C488 0.961 . S
H505 C489 0.931 . S
H506 C494 0.930 . S
H507 C495 0.956 . S
H508 C495 0.961 . S
H509 C495 0.961 . S
H510 C496 0.958 . S
H511 C496 0.961 . S
H512 C496 0.960 . S
C130 N3 2.006 1_445 S
C138 N8 1.968 1_655 S
C162 N51 2.003 . S
C170 N46 1.985 1_554 S
C194 N94 1.982 1_556 S
C202 N89 1.973 . S
C226 C119 2.274 . S
C234 C32 2.276 . S
C258 C113 2.300 . S
C266 C40 2.261 . S
C290 C125 2.204 . S
C298 C13 2.164 . S
C322 C75 2.285 . S
C330 C33 2.271 . S
C354 C83 2.290 . S
C362 C27 2.273 . S
C386 C56 2.142 . S
C394 C39 2.194 . S
C418 C76 2.243 . S
C426 C118 2.289 . S
C450 C126 2.255 . S
C458 C70 2.285 . S
C482 C99 2.147 . S
C490 C82 2.187 . S
