# Generated by pormake.
# Topology svb, (7)-cn, num edge types: 1
# Building blocks:
#     Node 0, Type 0, BuildingBlock: NUHQUE_clean_sbu_2, # of connection points: 7
#     Node 1, Type 0, BuildingBlock: NUHQUE_clean_sbu_2, # of connection points: 7
#     Node 2, Type 0, BuildingBlock: NUHQUE_clean_sbu_2, # of connection points: 7
#     Node 3, Type 0, BuildingBlock: NUHQUE_clean_sbu_2, # of connection points: 7
#     Node 4, Type 0, BuildingBlock: NUHQUE_clean_sbu_2, # of connection points: 7
#     Node 5, Type 0, BuildingBlock: NUHQUE_clean_sbu_2, # of connection points: 7
#     Node 6, Type 0, BuildingBlock: NUHQUE_clean_sbu_2, # of connection points: 7
#     Node 7, Type 0, BuildingBlock: NUHQUE_clean_sbu_2, # of connection points: 7
#     Node 8, Type 0, BuildingBlock: NUHQUE_clean_sbu_2, # of connection points: 7
#     Node 9, Type 0, BuildingBlock: NUHQUE_clean_sbu_2, # of connection points: 7
#     Node 10, Type 0, BuildingBlock: NUHQUE_clean_sbu_2, # of connection points: 7
#     Node 11, Type 0, BuildingBlock: NUHQUE_clean_sbu_2, # of connection points: 7
#     Node 12, Type 0, BuildingBlock: NUHQUE_clean_sbu_2, # of connection points: 7
#     Node 13, Type 0, BuildingBlock: NUHQUE_clean_sbu_2, # of connection points: 7
#     Node 14, Type 0, BuildingBlock: NUHQUE_clean_sbu_2, # of connection points: 7
#     Node 15, Type 0, BuildingBlock: NUHQUE_clean_sbu_2, # of connection points: 7
#     Edge 16, Type (0, 0), BuildingBlock: EZIPEK_clean_linker_0, # of connection points: 2
#     Edge 17, Type (0, 0), BuildingBlock: EZIPEK_clean_linker_0, # of connection points: 2
#     Edge 18, Type (0, 0), BuildingBlock: EZIPEK_clean_linker_0, # of connection points: 2
#     Edge 19, Type (0, 0), BuildingBlock: EZIPEK_clean_linker_0, # of connection points: 2
#     Edge 20, Type (0, 0), BuildingBlock: EZIPEK_clean_linker_0, # of connection points: 2
#     Edge 21, Type (0, 0), BuildingBlock: EZIPEK_clean_linker_0, # of connection points: 2
#     Edge 22, Type (0, 0), BuildingBlock: EZIPEK_clean_linker_0, # of connection points: 2
#     Edge 23, Type (0, 0), BuildingBlock: EZIPEK_clean_linker_0, # of connection points: 2
#     Edge 24, Type (0, 0), BuildingBlock: EZIPEK_clean_linker_0, # of connection points: 2
#     Edge 25, Type (0, 0), BuildingBlock: EZIPEK_clean_linker_0, # of connection points: 2
#     Edge 26, Type (0, 0), BuildingBlock: EZIPEK_clean_linker_0, # of connection points: 2
#     Edge 27, Type (0, 0), BuildingBlock: EZIPEK_clean_linker_0, # of connection points: 2
#     Edge 28, Type (0, 0), BuildingBlock: EZIPEK_clean_linker_0, # of connection points: 2
#     Edge 29, Type (0, 0), BuildingBlock: EZIPEK_clean_linker_0, # of connection points: 2
#     Edge 30, Type (0, 0), BuildingBlock: EZIPEK_clean_linker_0, # of connection points: 2
#     Edge 31, Type (0, 0), BuildingBlock: EZIPEK_clean_linker_0, # of connection points: 2
#     Edge 32, Type (0, 0), BuildingBlock: EZIPEK_clean_linker_0, # of connection points: 2
#     Edge 33, Type (0, 0), BuildingBlock: EZIPEK_clean_linker_0, # of connection points: 2
#     Edge 34, Type (0, 0), BuildingBlock: EZIPEK_clean_linker_0, # of connection points: 2
#     Edge 35, Type (0, 0), BuildingBlock: EZIPEK_clean_linker_0, # of connection points: 2
#     Edge 36, Type (0, 0), BuildingBlock: EZIPEK_clean_linker_0, # of connection points: 2
#     Edge 37, Type (0, 0), BuildingBlock: EZIPEK_clean_linker_0, # of connection points: 2
#     Edge 38, Type (0, 0), BuildingBlock: EZIPEK_clean_linker_0, # of connection points: 2
#     Edge 39, Type (0, 0), BuildingBlock: EZIPEK_clean_linker_0, # of connection points: 2
#     Edge 40, Type (0, 0), BuildingBlock: EZIPEK_clean_linker_0, # of connection points: 2
#     Edge 41, Type (0, 0), BuildingBlock: EZIPEK_clean_linker_0, # of connection points: 2
#     Edge 42, Type (0, 0), BuildingBlock: EZIPEK_clean_linker_0, # of connection points: 2
#     Edge 43, Type (0, 0), BuildingBlock: EZIPEK_clean_linker_0, # of connection points: 2
#     Edge 44, Type (0, 0), BuildingBlock: EZIPEK_clean_linker_0, # of connection points: 2
#     Edge 45, Type (0, 0), BuildingBlock: EZIPEK_clean_linker_0, # of connection points: 2
#     Edge 46, Type (0, 0), BuildingBlock: EZIPEK_clean_linker_0, # of connection points: 2
#     Edge 47, Type (0, 0), BuildingBlock: EZIPEK_clean_linker_0, # of connection points: 2
#     Edge 48, Type (0, 0), BuildingBlock: EZIPEK_clean_linker_0, # of connection points: 2
#     Edge 49, Type (0, 0), BuildingBlock: EZIPEK_clean_linker_0, # of connection points: 2
#     Edge 50, Type (0, 0), BuildingBlock: EZIPEK_clean_linker_0, # of connection points: 2
#     Edge 51, Type (0, 0), BuildingBlock: EZIPEK_clean_linker_0, # of connection points: 2
#     Edge 52, Type (0, 0), BuildingBlock: EZIPEK_clean_linker_0, # of connection points: 2
#     Edge 53, Type (0, 0), BuildingBlock: EZIPEK_clean_linker_0, # of connection points: 2
#     Edge 54, Type (0, 0), BuildingBlock: EZIPEK_clean_linker_0, # of connection points: 2
#     Edge 55, Type (0, 0), BuildingBlock: EZIPEK_clean_linker_0, # of connection points: 2
#     Edge 56, Type (0, 0), BuildingBlock: EZIPEK_clean_linker_0, # of connection points: 2
#     Edge 57, Type (0, 0), BuildingBlock: EZIPEK_clean_linker_0, # of connection points: 2
#     Edge 58, Type (0, 0), BuildingBlock: EZIPEK_clean_linker_0, # of connection points: 2
#     Edge 59, Type (0, 0), BuildingBlock: EZIPEK_clean_linker_0, # of connection points: 2
#     Edge 60, Type (0, 0), BuildingBlock: EZIPEK_clean_linker_0, # of connection points: 2
#     Edge 61, Type (0, 0), BuildingBlock: EZIPEK_clean_linker_0, # of connection points: 2
#     Edge 62, Type (0, 0), BuildingBlock: EZIPEK_clean_linker_0, # of connection points: 2
#     Edge 63, Type (0, 0), BuildingBlock: EZIPEK_clean_linker_0, # of connection points: 2
#     Edge 64, Type (0, 0), BuildingBlock: EZIPEK_clean_linker_0, # of connection points: 2
#     Edge 65, Type (0, 0), BuildingBlock: EZIPEK_clean_linker_0, # of connection points: 2
#     Edge 66, Type (0, 0), BuildingBlock: EZIPEK_clean_linker_0, # of connection points: 2
#     Edge 67, Type (0, 0), BuildingBlock: EZIPEK_clean_linker_0, # of connection points: 2
#     Edge 68, Type (0, 0), BuildingBlock: EZIPEK_clean_linker_0, # of connection points: 2
#     Edge 69, Type (0, 0), BuildingBlock: EZIPEK_clean_linker_0, # of connection points: 2
#     Edge 70, Type (0, 0), BuildingBlock: EZIPEK_clean_linker_0, # of connection points: 2
#     Edge 71, Type (0, 0), BuildingBlock: EZIPEK_clean_linker_0, # of connection points: 2
# Relax obj value: 0.395
# Max RMSD: 0.313
# Mean RMSD: 0.302
data_MOF--net-svb--node1-NUHQUE_clean_sbu_2--edge1-EZIPEK_clean_linker_0
_symmetry_space_group_name_H-M    P1
_symmetry_Int_Tables_number       1
_symmetry_cell_setting            triclinic
loop_
_symmetry_equiv_pos_as_xyz
'x, y, z'
_cell_length_a     47.834285
_cell_length_b     47.156465
_cell_length_c     19.722916
_cell_angle_alpha  96.255025
_cell_angle_beta   93.590729
_cell_angle_gamma 89.839952
loop_
_atom_site_label
_atom_site_type_symbol
_atom_site_fract_x
_atom_site_fract_y
_atom_site_fract_z
_atom_type_partial_charge
O0 O 0.02443 0.3644 0.2577 0.0
Tb1 Tb 0.05576 0.35377 0.18183 0.0
Eu2 Eu 0.11607 0.34915 0.07669 0.0
C3 C 0.0304 0.36319 0.32367 0.0
O4 O 0.05667 0.36022 0.34531 0.0
C5 C 0.11071 0.32684 0.22764 0.0
O6 O 0.12979 0.3143 0.99438 0.0
C7 C 0.15311 0.39038 0.0974 0.0
C8 C 0.1145 0.30672 0.93682 0.0
O9 O 0.09083 0.31993 0.92494 0.0
C10 C 0.05076 0.37202 0.0339 0.0
C11 C 0.17495 0.41376 0.10828 0.0
C12 C 0.17076 0.43875 0.153 0.0
C13 C 0.19171 0.46011 0.16669 0.0
C14 C 0.21703 0.45644 0.1334 0.0
C15 C 0.22194 0.43182 0.08809 0.0
C16 C 0.20077 0.41056 0.07657 0.0
O17 O 0.09487 0.34947 0.24233 0.0
O18 O 0.11964 0.32137 0.16532 0.0
O19 O 0.03155 0.31508 0.18049 0.0
O20 O 0.06443 0.31591 0.11336 0.0
C21 C 0.04567 0.30007 0.1355 0.0
O22 O 0.07462 0.35925 1.01758 0.0
O23 O 0.04511 0.37976 0.09832 0.0
O24 O 0.15557 0.3679 0.05253 0.0
O25 O 0.12973 0.39097 0.12963 0.0
H26 H 0.15134 0.44148 0.17845 0.0
H27 H 0.23311 0.47277 0.14326 0.0
H28 H 0.20454 0.39143 0.04274 0.0
O29 O 0.90116 0.79351 0.5554 0.0
Tb30 Tb 0.9239 0.81996 0.49135 0.0
Eu31 Eu 0.94276 0.87249 0.39354 0.0
C32 C 0.91272 0.78874 0.61583 0.0
O33 O 0.93569 0.80278 0.63879 0.0
C34 C 0.96432 0.86765 0.5511 0.0
O35 O 0.96923 0.88113 0.30212 0.0
C36 C 0.90069 0.90655 0.42478 0.0
C37 C 0.99652 0.87529 0.30042 0.0
O38 O 1.00964 0.86744 0.3557 0.0
C39 C 0.90719 0.81483 0.33352 0.0
C40 C 0.87384 0.92254 0.41081 0.0
C41 C 0.84964 0.91921 0.44833 0.0
C42 C 0.82536 0.93651 0.44022 0.0
C43 C 0.82622 0.95763 0.39445 0.0
C44 C 0.85025 0.96191 0.35868 0.0
C45 C 0.87356 0.94406 0.36645 0.0
O46 O 0.93876 0.85796 0.55688 0.0
O47 O 0.97274 0.87028 0.48911 0.0
O48 O 0.95609 0.78909 0.51259 0.0
O49 O 0.95776 0.81061 0.42425 0.0
C50 C 0.96924 0.79115 0.45801 0.0
O51 O 0.92749 0.83281 0.3248 0.0
O52 O 0.89735 0.81332 0.39479 0.0
O53 O 0.92412 0.9149 0.40083 0.0
O54 O 0.9003 0.87901 0.43073 0.0
H55 H 0.8499 0.90361 0.48482 0.0
H56 H 0.80831 0.97143 0.38802 0.0
H57 H 0.89196 0.94772 0.33915 0.0
O58 O 0.3947 0.72442 0.48284 0.0
Tb59 Tb 0.41067 0.69951 0.56597 0.0
Eu60 Eu 0.43803 0.64859 0.67458 0.0
C61 C 0.40117 0.71828 0.41852 0.0
O62 O 0.41208 0.69327 0.39993 0.0
C63 C 0.45689 0.65596 0.52253 0.0
O64 O 0.4718 0.63863 0.75684 0.0
C65 C 0.40132 0.60777 0.64471 0.0
C66 C 0.47558 0.65396 0.81722 0.0
O67 O 0.459 0.67565 0.83241 0.0
C68 C 0.39693 0.70231 0.71581 0.0
C69 C 0.3749 0.59392 0.66026 0.0
C70 C 0.34967 0.59858 0.62206 0.0
C71 C 0.3258 0.58168 0.62703 0.0
C72 C 0.32701 0.56067 0.67225 0.0
C73 C 0.35164 0.55613 0.71167 0.0
C74 C 0.37556 0.57264 0.70539 0.0
O75 O 0.43084 0.66391 0.50701 0.0
O76 O 0.46539 0.65157 0.58565 0.0
O77 O 0.45041 0.70413 0.62463 0.0
O78 O 0.43088 0.74068 0.5893 0.0
C79 C 0.45262 0.73126 0.62229 0.0
O80 O 0.41971 0.68789 0.73135 0.0
O81 O 0.38457 0.69896 0.65321 0.0
O82 O 0.42367 0.60579 0.68627 0.0
O83 O 0.39986 0.63208 0.61757 0.0
H84 H 0.34889 0.61434 0.58589 0.0
H85 H 0.30884 0.54731 0.67569 0.0
H86 H 0.39487 0.56806 0.73381 0.0
O87 O 0.5369 0.13724 0.76204 0.0
Tb88 Tb 0.56596 0.1561 0.84719 0.0
Eu89 Eu 0.61907 0.17963 0.97189 0.0
C90 C 0.54246 0.13322 0.69674 0.0
O91 O 0.56858 0.1348 0.68043 0.0
C92 C 0.61212 0.19898 0.81707 0.0
O93 O 0.6316 0.2114 0.06883 0.0
C94 C 0.65322 0.13657 0.94694 0.0
C95 C 0.61419 0.23096 0.09683 0.0
O96 O 0.58883 0.23269 0.06805 0.0
C97 C 0.5623 0.14496 0.99743 0.0
C98 C 0.67365 0.11218 0.93416 0.0
C99 C 0.66754 0.08757 0.88649 0.0
C100 C 0.68761 0.06529 0.87579 0.0
C101 C 0.71333 0.06776 0.91451 0.0
C102 C 0.71996 0.09174 0.96138 0.0
C103 C 0.70023 0.11389 0.97011 0.0
O104 O 0.60084 0.1735 0.79618 0.0
O105 O 0.61707 0.20751 0.88319 0.0
O106 O 0.52819 0.18076 0.84381 0.0
O107 O 0.56256 0.19733 0.90806 0.0
C108 C 0.53736 0.20251 0.88454 0.0
O109 O 0.57899 0.16696 1.0182 0.0
O110 O 0.56378 0.13138 0.93508 0.0
O111 O 0.66002 0.15979 0.98795 0.0
O112 O 0.62731 0.13649 0.92009 0.0
H113 H 0.64749 0.0858 0.85763 0.0
H114 H 0.72862 0.05082 0.9076 0.0
H115 H 0.70567 0.13243 1.00591 0.0
O116 O 0.05138 0.63767 0.24487 0.0
Tb117 Tb 0.07263 0.65904 0.33862 0.0
Eu118 Eu 0.12722 0.6773 0.47398 0.0
C119 C 0.05658 0.64563 0.18461 0.0
O120 O 0.08031 0.65881 0.17859 0.0
C121 C 0.1221 0.69929 0.32483 0.0
O122 O 0.1366 0.70346 0.57982 0.0
C123 C 0.15784 0.63239 0.44539 0.0
C124 C 0.13359 0.73165 0.58848 0.0
O125 O 0.12826 0.74482 0.53375 0.0
C126 C 0.06409 0.65235 0.493 0.0
C127 C 0.17664 0.6071 0.43147 0.0
C128 C 0.16997 0.58376 0.38088 0.0
C129 C 0.18917 0.56085 0.36898 0.0
C130 C 0.21442 0.56129 0.40964 0.0
C131 C 0.22137 0.58426 0.45919 0.0
C132 C 0.20266 0.60706 0.46885 0.0
O133 O 0.11215 0.67339 0.30423 0.0
O134 O 0.12821 0.70684 0.39065 0.0
O135 O 0.03565 0.68219 0.30945 0.0
O136 O 0.06539 0.70192 0.38504 0.0
C137 C 0.04192 0.70492 0.35007 0.0
O138 O 0.08538 0.66919 0.5161 0.0
O139 O 0.06247 0.63884 0.42994 0.0
O140 O 0.16691 0.65542 0.48452 0.0
O141 O 0.13128 0.63327 0.42327 0.0
H142 H 0.15032 0.58356 0.35043 0.0
H143 H 0.22901 0.54375 0.40205 0.0
H144 H 0.20847 0.62476 0.5069 0.0
O145 O 0.53722 0.87295 0.81059 0.0
Tb146 Tb 0.56821 0.85418 0.74016 0.0
Eu147 Eu 0.62683 0.84227 0.62751 0.0
C148 C 0.54267 0.87857 0.87721 0.0
O149 O 0.56899 0.87978 0.90086 0.0
C150 C 0.61918 0.81744 0.7772 0.0
O151 O 0.6356 0.81115 0.53267 0.0
C152 C 0.66437 0.88368 0.65066 0.0
C153 C 0.61887 0.78912 0.51123 0.0
O154 O 0.59787 0.78391 0.54791 0.0
C155 C 0.56302 0.86759 0.58365 0.0
C156 C 0.68089 0.91047 0.64159 0.0
C157 C 0.67507 0.93628 0.68165 0.0
C158 C 0.69322 0.96004 0.68598 0.0
C159 C 0.71674 0.95823 0.64569 0.0
C160 C 0.72165 0.93454 0.59624 0.0
C161 C 0.70464 0.90977 0.60087 0.0
O162 O 0.60667 0.84199 0.79591 0.0
O163 O 0.62712 0.81232 0.71342 0.0
O164 O 0.54026 0.82161 0.7641 0.0
O165 O 0.56235 0.81481 0.6731 0.0
C166 C 0.5446 0.80412 0.71078 0.0
O167 O 0.58625 0.85354 0.56759 0.0
O168 O 0.55779 0.87649 0.64825 0.0
O169 O 0.6687 0.85929 0.61364 0.0
O170 O 0.63915 0.88532 0.67446 0.0
H171 H 0.65732 0.9374 0.71337 0.0
H172 H 0.73148 0.9757 0.65523 0.0
H173 H 0.71027 0.8893 0.57569 0.0
O174 O 0.39707 0.28918 0.04444 0.0
Tb175 Tb 0.4207 0.31954 0.99099 0.0
Eu176 Eu 0.44535 0.36914 0.88887 0.0
C177 C 0.3939 0.29127 0.11109 0.0
O178 O 0.39731 0.31623 0.14718 0.0
C179 C 0.4596 0.36816 0.05004 0.0
O180 O 0.47524 0.38032 0.80577 0.0
C181 C 0.40044 0.4002 0.90415 0.0
C182 C 0.49544 0.36283 0.78256 0.0
O183 O 0.4994 0.33882 0.80975 0.0
C184 C 0.41422 0.30972 0.82829 0.0
C185 C 0.37507 0.41906 0.91088 0.0
C186 C 0.35135 0.4128 0.94732 0.0
C187 C 0.32783 0.43157 0.95041 0.0
C188 C 0.32842 0.45609 0.91567 0.0
C189 C 0.3514 0.46209 0.87881 0.0
C190 C 0.37455 0.44389 0.8775 0.0
O191 O 0.433 0.36017 0.05047 0.0
O192 O 0.47092 0.36843 0.99044 0.0
O193 O 0.45217 0.29101 0.02889 0.0
O194 O 0.45977 0.31201 0.9425 0.0
C195 C 0.46986 0.29438 0.98355 0.0
O196 O 0.43438 0.32822 0.82279 0.0
O197 O 0.40115 0.30913 0.88602 0.0
O198 O 0.42385 0.40952 0.88213 0.0
O199 O 0.40135 0.37353 0.918 0.0
H200 H 0.3511 0.3936 0.97281 0.0
H201 H 0.31057 0.47033 0.91606 0.0
H202 H 0.39199 0.44889 0.84823 0.0
O203 O 0.90941 0.2311 0.94306 0.0
Tb204 Tb 0.92547 0.19973 1.01112 0.0
Eu205 Eu 0.94425 0.14665 0.12545 0.0
C206 C 0.89157 0.22532 0.88944 0.0
O207 O 0.87989 0.19993 0.87817 0.0
C208 C 0.95773 0.1482 0.96478 0.0
O209 O 0.98002 0.13912 0.20653 0.0
C210 C 0.90589 0.10645 0.11333 0.0
C211 C 0.98377 0.1555 0.26575 0.0
O212 O 0.96615 0.17643 0.27933 0.0
C213 C 0.909 0.20675 0.16347 0.0
C214 C 0.87943 0.09351 0.13414 0.0
C215 C 0.85327 0.10001 0.10203 0.0
C216 C 0.8289 0.08425 0.11054 0.0
C217 C 0.83065 0.0624 0.15373 0.0
C218 C 0.85608 0.05594 0.18806 0.0
C219 C 0.88047 0.07142 0.17768 0.0
O220 O 0.93183 0.15768 0.95779 0.0
O221 O 0.96859 0.14559 1.02761 0.0
O222 O 0.9621 0.19999 0.08231 0.0
O223 O 0.96412 0.22141 0.99421 0.0
C224 C 0.9784 0.21365 0.04709 0.0
O225 O 0.92808 0.18799 0.18082 0.0
O226 O 0.89999 0.20903 0.09929 0.0
O227 O 0.92919 0.10559 0.15213 0.0
O228 O 0.90425 0.12918 0.08002 0.0
H229 H 0.85196 0.11641 0.06753 0.0
H230 H 0.81208 0.05006 0.16011 0.0
H231 H 0.90031 0.06559 0.20183 0.0
O232 O 0.98038 0.65558 0.75123 0.0
Tb233 Tb 0.95199 0.67334 0.82931 0.0
Eu234 Eu 0.90056 0.68622 0.96177 0.0
C235 C 0.97415 0.65462 0.68469 0.0
O236 O 0.94852 0.66075 0.66314 0.0
C237 C 0.8985 0.70617 0.80908 0.0
O238 O 0.89293 0.71254 0.06492 0.0
C239 C 0.86901 0.64107 0.93492 0.0
C240 C 0.89265 0.74089 0.07431 0.0
O241 O 0.89372 0.75505 1.02078 0.0
C242 C 0.96449 0.65992 0.98103 0.0
C243 C 0.85441 0.61407 0.9448 0.0
C244 C 0.86012 0.58865 0.90308 0.0
C245 C 0.8425 0.56453 0.90088 0.0
C246 C 0.81995 0.56559 0.94303 0.0
C247 C 0.81402 0.59048 0.98495 0.0
C248 C 0.83129 0.61461 0.986 0.0
O249 O 0.90951 0.68083 0.79062 0.0
O250 O 0.89432 0.71361 0.87424 0.0
O251 O 0.97275 0.71141 0.80549 0.0
O252 O 0.9528 0.71243 0.89835 0.0
C253 C 0.96559 0.72761 0.85898 0.0
O254 O 0.94481 0.67753 1.00446 0.0
O255 O 0.96502 0.64959 0.91576 0.0
O256 O 0.86056 0.66534 0.9665 0.0
O257 O 0.89538 0.64129 0.91922 0.0
H258 H 0.87705 0.58816 0.86894 0.0
H259 H 0.80596 0.54738 0.94054 0.0
H260 H 0.82574 0.63415 1.01628 0.0
O261 O 0.10999 0.2489 0.49261 0.0
Tb262 Tb 0.10093 0.21637 0.56131 0.0
Eu263 Eu 0.08977 0.1565 0.65781 0.0
C264 C 0.11963 0.24326 0.4312 0.0
O265 O 0.1281 0.21724 0.41209 0.0
C266 C 0.06969 0.16165 0.49302 0.0
O267 O 0.05205 0.14519 0.71731 0.0
C268 C 0.1314 0.12114 0.6707 0.0
C269 C 0.04836 0.15589 0.78117 0.0
O270 O 0.06732 0.17327 0.81371 0.0
C271 C 0.11938 0.21807 0.71139 0.0
C272 C 0.15529 0.10063 0.67846 0.0
C273 C 0.18091 0.10472 0.64836 0.0
C274 C 0.20473 0.08795 0.66257 0.0
C275 C 0.20219 0.06636 0.70609 0.0
C276 C 0.17646 0.06004 0.73157 0.0
C277 C 0.15317 0.07765 0.71873 0.0
O278 O 0.09031 0.17976 0.48667 0.0
O279 O 0.06583 0.15133 0.552 0.0
O280 O 0.06279 0.20757 0.6102 0.0
O281 O 0.0697 0.24891 0.5818 0.0
C282 C 0.05269 0.23305 0.60986 0.0
O283 O 0.09976 0.19934 0.72042 0.0
O284 O 0.13012 0.21812 0.65119 0.0
O285 O 0.1076 0.11865 0.69955 0.0
O286 O 0.13228 0.14263 0.63334 0.0
H287 H 0.18258 0.12138 0.61508 0.0
H288 H 0.22024 0.05343 0.71808 0.0
H289 H 0.13354 0.07346 0.74042 0.0
O290 O 0.6267 0.28616 0.57251 0.0
Tb291 Tb 0.61026 0.31485 0.49745 0.0
Eu292 Eu 0.591 0.37618 0.40101 0.0
C293 C 0.6234 0.29067 0.63906 0.0
O294 O 0.61642 0.31629 0.6655 0.0
C295 C 0.5719 0.3647 0.5564 0.0
O296 O 0.55712 0.38834 0.3208 0.0
C297 C 0.63074 0.41545 0.42103 0.0
C298 C 0.54327 0.36875 0.27832 0.0
O299 O 0.54879 0.34175 0.28304 0.0
C300 C 0.62026 0.31513 0.34311 0.0
C301 C 0.6555 0.43303 0.40462 0.0
C302 C 0.68185 0.43011 0.4403 0.0
C303 C 0.70534 0.44724 0.43063 0.0
C304 C 0.70158 0.46823 0.38426 0.0
C305 C 0.67509 0.47344 0.35164 0.0
C306 C 0.65234 0.45532 0.36152 0.0
O307 O 0.59595 0.3511 0.56679 0.0
O308 O 0.56505 0.37393 0.49593 0.0
O309 O 0.58943 0.27495 0.46384 0.0
O310 O 0.5658 0.31302 0.46633 0.0
C311 C 0.56473 0.28553 0.45415 0.0
O312 O 0.60144 0.33517 0.33299 0.0
O313 O 0.63363 0.31513 0.40429 0.0
O314 O 0.6057 0.41955 0.39238 0.0
O315 O 0.63404 0.38935 0.43843 0.0
H316 H 0.68398 0.41465 0.47708 0.0
H317 H 0.71916 0.48152 0.37562 0.0
H318 H 0.63201 0.45916 0.33692 0.0
O319 O 0.39745 0.79438 0.99978 0.0
Tb320 Tb 0.41954 0.82049 0.08633 0.0
Eu321 Eu 0.4321 0.8726 0.22771 0.0
C322 C 0.40753 0.79085 0.93841 0.0
O323 O 0.42921 0.8062 0.92652 0.0
C324 C 0.45527 0.87361 0.07598 0.0
O325 O 0.45752 0.88078 0.3335 0.0
C326 C 0.38529 0.90043 0.21029 0.0
C327 C 0.48546 0.88177 0.34187 0.0
O328 O 0.49996 0.88161 0.28752 0.0
C329 C 0.40828 0.80808 0.23532 0.0
C330 C 0.35868 0.9176 0.2035 0.0
C331 C 0.33771 0.91243 0.14833 0.0
C332 C 0.31405 0.93097 0.14279 0.0
C333 C 0.31293 0.95503 0.19161 0.0
C334 C 0.33364 0.96093 0.24474 0.0
C335 C 0.3555 0.94142 0.25201 0.0
O336 O 0.43098 0.86139 0.05275 0.0
O337 O 0.46106 0.87887 0.14279 0.0
O338 O 0.45381 0.79311 0.05478 0.0
O339 O 0.45883 0.82084 0.14697 0.0
C340 C 0.47133 0.80294 0.10469 0.0
O341 O 0.42601 0.82844 0.26089 0.0
O342 O 0.39693 0.80726 0.17197 0.0
O343 O 0.40683 0.91037 0.25104 0.0
O344 O 0.38889 0.87451 0.17975 0.0
H345 H 0.34005 0.89461 0.10962 0.0
H346 H 0.29581 0.96997 0.1874 0.0
H347 H 0.37098 0.94577 0.29439 0.0
O348 O 0.8874 0.28254 0.45718 0.0
Tb349 Tb 0.90226 0.30877 0.55181 0.0
Eu350 Eu 0.92273 0.36735 0.67343 0.0
C351 C 0.88935 0.29088 0.39578 0.0
O352 O 0.8932 0.31805 0.39007 0.0
C353 C 0.94653 0.35363 0.52486 0.0
O354 O 0.94947 0.38204 0.77325 0.0
C355 C 0.88265 0.4013 0.63326 0.0
C356 C 0.97162 0.36691 0.79235 0.0
O357 O 0.97819 0.34406 0.75243 0.0
C358 C 0.88666 0.31153 0.69918 0.0
C359 C 0.8575 0.42014 0.64449 0.0
C360 C 0.83372 0.41875 0.59655 0.0
C361 C 0.81106 0.43843 0.60438 0.0
C362 C 0.81326 0.45963 0.66093 0.0
C363 C 0.83744 0.46255 0.70562 0.0
C364 C 0.85897 0.44246 0.69804 0.0
O365 O 0.92141 0.34324 0.50421 0.0
O366 O 0.95369 0.35975 0.5906 0.0
O367 O 0.9213 0.26724 0.5569 0.0
O368 O 0.94154 0.30381 0.61064 0.0
C369 C 0.94278 0.27636 0.59633 0.0
O370 O 0.90814 0.32846 0.72033 0.0
O371 O 0.87485 0.31198 0.63673 0.0
O372 O 0.90695 0.41004 0.66342 0.0
O373 O 0.88015 0.37334 0.62621 0.0
H374 H 0.83321 0.40287 0.55245 0.0
H375 H 0.79662 0.4751 0.66833 0.0
H376 H 0.8775 0.44506 0.73275 0.0
O377 O 0.47343 0.13732 0.2528 0.0
Tb378 Tb 0.44807 0.16023 0.33266 0.0
Eu379 Eu 0.39313 0.184 0.45233 0.0
C380 C 0.47462 0.1456 0.19069 0.0
O381 O 0.45531 0.16308 0.17024 0.0
C382 C 0.4008 0.20323 0.29973 0.0
O383 O 0.38559 0.21341 0.5503 0.0
C384 C 0.35299 0.14609 0.42709 0.0
C385 C 0.40048 0.2369 0.56862 0.0
O386 O 0.41923 0.24413 0.52764 0.0
C387 C 0.45152 0.14849 0.48697 0.0
C388 C 0.33881 0.12019 0.44687 0.0
C389 C 0.34164 0.09442 0.40503 0.0
C390 C 0.32781 0.06965 0.41786 0.0
C391 C 0.31098 0.07081 0.47371 0.0
C392 C 0.30692 0.09608 0.51801 0.0
C393 C 0.32033 0.12122 0.50089 0.0
O394 O 0.41062 0.1773 0.28091 0.0
O395 O 0.39688 0.2119 0.3649 0.0
O396 O 0.48586 0.185 0.33087 0.0
O397 O 0.45411 0.20052 0.3966 0.0
C398 C 0.47863 0.20526 0.3758 0.0
O399 O 0.43238 0.16757 0.50612 0.0
O400 O 0.45202 0.13631 0.4228 0.0
O401 O 0.34994 0.17088 0.46343 0.0
O402 O 0.37795 0.14291 0.40247 0.0
H403 H 0.35417 0.09374 0.36093 0.0
H404 H 0.29965 0.05154 0.47877 0.0
H405 H 0.31588 0.14195 0.52616 0.0
O406 O 0.53474 0.65703 0.25409 0.0
Tb407 Tb 0.56544 0.67195 0.18797 0.0
Eu408 Eu 0.61821 0.68761 0.09577 0.0
C409 C 0.5408 0.6548 0.31932 0.0
O410 O 0.56694 0.65771 0.34366 0.0
C411 C 0.61296 0.71145 0.2562 0.0
O412 O 0.63189 0.72042 1.02127 0.0
C413 C 0.6476 0.64273 0.12283 0.0
C414 C 0.61666 0.7262 0.96479 0.0
O415 O 0.59444 0.71047 0.94536 0.0
C416 C 0.56228 0.652 0.03569 0.0
C417 C 0.66528 0.61704 0.13735 0.0
C418 C 0.65732 0.59531 0.17826 0.0
C419 C 0.67568 0.5719 0.1898 0.0
C420 C 0.70158 0.57077 0.15961 0.0
C421 C 0.70961 0.59203 0.12022 0.0
C422 C 0.69162 0.61482 0.10976 0.0
O423 O 0.59964 0.68725 0.26154 0.0
O424 O 0.61955 0.71801 0.19532 0.0
O425 O 0.53166 0.70236 0.1827 0.0
O426 O 0.56955 0.70982 0.13595 0.0
C427 C 0.54486 0.71935 0.14818 0.0
O428 O 0.57922 0.67333 0.02831 0.0
O429 O 0.56252 0.64186 0.09552 0.0
O430 O 0.65603 0.6619 0.08425 0.0
O431 O 0.62259 0.6477 0.14551 0.0
H432 H 0.63725 0.59657 0.20086 0.0
H433 H 0.71572 0.55319 0.16694 0.0
H434 H 0.69841 0.63091 0.079 0.0
O435 O 0.10816 0.77559 0.06141 0.0
Tb436 Tb 0.09752 0.8086 0.99295 0.0
Eu437 Eu 0.09083 0.87091 0.91482 0.0
C438 C 0.1243 0.78056 0.11839 0.0
O439 O 0.13739 0.80519 0.13159 0.0
C440 C 0.06966 0.86067 0.06529 0.0
O441 O 0.06313 0.88424 0.82244 0.0
C442 C 0.13342 0.90556 0.9519 0.0
C443 C 0.03732 0.87427 0.80537 0.0
O444 O 0.02576 0.85872 0.8474 0.0
C445 C 0.11698 0.80832 0.84355 0.0
C446 C 0.15952 0.92092 0.93605 0.0
C447 C 0.18552 0.91719 0.9733 0.0
C448 C 0.21002 0.93284 0.96244 0.0
C449 C 0.20746 0.95272 0.91336 0.0
C450 C 0.18136 0.95889 0.88112 0.0
C451 C 0.1578 0.94237 0.89119 0.0
O452 O 0.09274 0.84525 0.06999 0.0
O453 O 0.06192 0.86942 1.00502 0.0
O454 O 0.05897 0.78399 0.97972 0.0
O455 O 0.06222 0.82095 0.92733 0.0
C456 C 0.04616 0.80019 0.93866 0.0
O457 O 0.10426 0.83321 0.83965 0.0
O458 O 0.12268 0.79869 0.90386 0.0
O459 O 0.10895 0.91367 0.92631 0.0
O460 O 0.13421 0.87804 0.95841 0.0
H461 H 0.18648 0.90256 1.01207 0.0
H462 H 0.22559 0.96497 0.90332 0.0
H463 H 0.13785 0.94715 0.86591 0.0
C464 C 0.01454 0.22818 0.1396 0.0
C465 C 1.00695 0.22355 0.06917 0.0
C466 C 0.04199 0.25792 0.04653 0.0
C467 C 0.04093 0.26947 0.11567 0.0
N468 N 0.0334 0.26177 0.23232 0.0
N469 N 0.02032 0.22524 0.95446 0.0
C470 C 0.02994 0.25302 0.16397 0.0
C471 C 0.02334 0.23533 1.02201 0.0
N472 N 1.00722 0.20888 0.18201 0.0
N473 N 0.06038 0.26844 1.00533 0.0
H474 H 1.00869 0.20684 0.93801 0.0
H475 H 0.0292 0.23465 0.91554 0.0
H476 H 0.07593 0.28307 1.02423 0.0
H477 H 0.06249 0.26045 0.95464 0.0
H478 H 0.01337 0.21043 0.23386 0.0
H479 H 0.99809 0.18939 0.16273 0.0
H480 H 0.02272 0.25283 0.26928 0.0
H481 H 0.04704 0.2783 0.25185 0.0
C482 C 0.99913 0.71849 0.40802 0.0
C483 C 0.02147 0.72622 0.37011 0.0
C484 C 1.00984 0.77629 0.38947 0.0
C485 C 0.98717 0.76884 0.42729 0.0
N486 N 0.9548 0.732 0.45196 0.0
N487 N 0.04268 0.75981 0.30567 0.0
C488 C 0.98019 0.7397 0.431 0.0
C489 C 0.02525 0.75434 0.35497 0.0
N490 N 0.99621 0.69102 0.42311 0.0
N491 N 0.01736 0.80413 0.38832 0.0
H492 H 0.05374 0.74375 0.27836 0.0
H493 H 0.04381 0.77957 0.28702 0.0
H494 H 1.00635 0.8211 0.41169 0.0
H495 H 0.03575 0.81031 0.36825 0.0
H496 H 0.98225 0.68504 0.45745 0.0
H497 H 1.00936 0.67439 0.40653 0.0
H498 H 0.94776 0.711 0.44852 0.0
H499 H 0.93882 0.74625 0.46381 0.0
C500 C 0.51932 0.75924 0.71944 0.0
C501 C 0.52362 0.78324 0.68434 0.0
C502 C 0.48541 0.76919 0.60229 0.0
C503 C 0.47795 0.74784 0.64294 0.0
N504 N 0.48533 0.72549 0.74773 0.0
N505 N 0.50403 0.81641 0.60859 0.0
C506 C 0.49437 0.74327 0.70337 0.0
C507 C 0.50489 0.78983 0.63017 0.0
N508 N 0.53858 0.75225 0.76895 0.0
N509 N 0.47477 0.76945 0.5365 0.0
H510 H 0.51677 0.83325 0.63057 0.0
H511 H 0.48843 0.82241 0.57363 0.0
H512 H 0.46241 0.75304 0.51104 0.0
H513 H 0.48141 0.78405 0.50478 0.0
H514 H 0.53793 0.7332 0.79109 0.0
H515 H 0.55637 0.76463 0.7842 0.0
H516 H 0.49544 0.72352 0.79531 0.0
H517 H 0.46614 0.71498 0.74065 0.0
C518 C 0.47537 0.24834 0.91628 0.0
C519 C 0.48794 0.27146 0.95915 0.0
C520 C 0.5345 0.25326 0.93785 0.0
C521 C 0.52166 0.22908 0.89911 0.0
N522 N 0.4822 0.21293 0.82203 0.0
N523 N 0.5283 0.29614 1.01563 0.0
C524 C 0.49271 0.22908 0.87974 0.0
C525 C 0.51725 0.27415 0.97117 0.0
N526 N 0.44686 0.24502 0.90928 0.0
N527 N 0.5627 0.25754 0.93692 0.0
H528 H 0.51589 0.31187 0.04006 0.0
H529 H 0.54938 0.29777 0.03224 0.0
H530 H 0.57513 0.24493 0.90433 0.0
H531 H 0.57321 0.27554 0.96085 0.0
H532 H 0.43711 0.22638 0.88622 0.0
H533 H 0.43278 0.25987 0.9302 0.0
H534 H 0.46116 0.21265 0.80499 0.0
H535 H 0.49494 0.20391 0.78454 0.0
C536 C 0.9871 0.77037 0.82336 0.0
C537 C 0.9741 0.75763 0.87486 0.0
C538 C 0.99748 0.79165 0.96073 0.0
C539 C 0.01715 0.79575 0.9126 0.0
N540 N 0.02723 0.7945 0.79335 0.0
N541 N 0.96024 0.76209 0.99173 0.0
C542 C 1.01059 0.78769 0.84244 0.0
C543 C 0.97652 0.77065 0.94334 0.0
N544 N 0.97834 0.76428 0.75622 0.0
N545 N 0.99928 0.8079 1.02234 0.0
H546 H 0.94277 0.74909 0.97955 0.0
H547 H 0.96397 0.76803 0.04392 0.0
H548 H 0.01389 0.82444 0.03195 0.0
H549 H 0.98483 0.80721 0.05947 0.0
H550 H 0.98822 0.7727 0.71707 0.0
H551 H 0.96013 0.75248 0.74119 0.0
H552 H 0.04527 0.8069 0.80403 0.0
H553 H 0.04527 0.8069 0.80403 0.0
C554 C 1.00886 0.23995 0.54328 0.0
C555 C 0.02286 0.23876 0.60821 0.0
C556 C 0.9812 0.25539 0.66507 0.0
C557 C 0.96893 0.26072 0.60044 0.0
N558 N 0.97219 0.26185 0.4784 0.0
N559 N 0.02371 0.24435 0.73106 0.0
C560 C 0.98276 0.25357 0.53936 0.0
C561 C 1.00932 0.24582 0.66943 0.0
N562 N 0.02067 0.22821 0.48528 0.0
N563 N 0.96587 0.2594 0.72153 0.0
H564 H 0.04409 0.23646 0.73515 0.0
H565 H 0.01603 0.25187 0.77784 0.0
H566 H 0.94525 0.26669 0.71937 0.0
H567 H 0.97271 0.25364 0.76924 0.0
H568 H 1.00994 0.22556 0.43738 0.0
H569 H 0.04021 0.21836 0.48576 0.0
H570 H 0.98329 0.26029 0.4344 0.0
H571 H 0.95356 0.27302 0.47254 0.0
C572 C 0.49304 0.25587 0.39144 0.0
C573 C 0.49761 0.22753 0.40609 0.0
C574 C 0.54045 0.24151 0.47248 0.0
C575 C 0.53933 0.26801 0.44489 0.0
N576 N 0.51521 0.29979 0.37228 0.0
N577 N 0.52724 0.19198 0.45383 0.0
C578 C 0.51558 0.27543 0.4038 0.0
C579 C 0.52183 0.21983 0.44449 0.0
N580 N 0.46762 0.26387 0.36429 0.0
N581 N 0.5587 0.23739 0.52666 0.0
H582 H 0.5133 0.17531 0.43743 0.0
H583 H 0.54634 0.18524 0.47477 0.0
H584 H 0.57018 0.25403 0.55431 0.0
H585 H 0.56011 0.21841 0.54904 0.0
H586 H 0.46255 0.28501 0.3584 0.0
H587 H 0.45076 0.24978 0.35358 0.0
H588 H 0.50003 0.30361 0.33423 0.0
H589 H 0.53112 0.31495 0.37926 0.0
C590 C 0.52986 0.75442 0.06835 0.0
C591 C 0.53509 0.74758 0.13621 0.0
C592 C 0.51165 0.79053 0.18133 0.0
C593 C 0.4999 0.79237 0.11458 0.0
N594 N 0.50594 0.78596 0.99403 0.0
N595 N 0.53449 0.76013 0.25835 0.0
C596 C 0.5121 0.77771 0.0576 0.0
C597 C 0.52768 0.76636 0.19319 0.0
N598 N 0.53995 0.73742 1.01486 0.0
N599 N 0.50781 0.81173 0.23262 0.0
H600 H 0.54776 0.74341 0.26929 0.0
H601 H 0.52616 0.77086 0.30146 0.0
H602 H 0.49677 0.83022 0.22502 0.0
H603 H 0.51865 0.81267 0.28025 0.0
H604 H 0.53585 0.74022 0.96366 0.0
H605 H 0.55256 0.71987 1.02176 0.0
H606 H 0.51413 0.77667 0.94936 0.0
H607 H 0.49387 0.80401 0.98701 0.0
C608 C 0.27545 0.42247 0.94761 0.0
C609 C 0.3015 0.42616 0.98661 0.0
C610 C 0.27549 0.42756 0.09168 0.0
C611 C 0.24939 0.42844 0.05276 0.0
N612 N 0.22538 0.43112 0.94231 0.0
N613 N 0.32583 0.43551 0.0975 0.0
C614 C 0.24961 0.42682 0.98025 0.0
C615 C 0.30139 0.42937 0.05921 0.0
N616 N 0.2754 0.41447 0.87891 0.0
N617 N 0.2756 0.42418 0.15961 0.0
H618 H 0.34511 0.43674 0.07606 0.0
H619 H 0.32668 0.44146 0.15002 0.0
H620 H 0.25726 0.42216 0.18469 0.0
H621 H 0.29376 0.42055 0.18933 0.0
H622 H 0.25728 0.40872 0.84851 0.0
H623 H 0.29382 0.41071 0.85372 0.0
H624 H 0.22476 0.43329 0.89025 0.0
H625 H 0.20625 0.43533 0.96381 0.0
C626 C 0.85557 0.0147 0.34617 0.0
C627 C 0.85184 0.98616 0.31505 0.0
C628 C 0.85573 1.00315 0.20192 0.0
C629 C 0.85672 0.03189 0.23255 0.0
N630 N 0.85378 0.06536 0.33316 0.0
N631 N 0.84465 0.9536 0.21261 0.0
C632 C 0.85565 0.03774 0.30457 0.0
C633 C 0.85098 0.98051 0.24265 0.0
N634 N 0.86006 0.01974 0.41556 0.0
N635 N 0.85995 0.99745 0.13388 0.0
H636 H 0.84103 0.93659 0.24064 0.0
H637 H 0.84068 0.94857 0.16019 0.0
H638 H 0.86339 0.01343 0.10265 0.0
H639 H 0.86245 0.97696 0.10959 0.0
H640 H 0.86596 0.03955 0.4409 0.0
H641 H 0.86022 1.00357 0.44768 0.0
H642 H 0.84953 0.071 0.38399 0.0
H643 H 0.85445 0.08274 0.3048 0.0
C644 C 0.24822 0.5864 0.57418 0.0
C645 C 0.2484 0.58452 0.50181 0.0
C646 C 0.29954 0.57944 0.51074 0.0
C647 C 0.29955 0.58468 0.58312 0.0
N648 N 0.274 0.60028 0.6821 0.0
N649 N 0.27523 0.58648 0.40259 0.0
C650 C 0.27389 0.59042 0.61432 0.0
C651 C 0.27438 0.58323 0.47041 0.0
N652 N 0.22378 0.58298 0.60474 0.0
N653 N 0.32305 0.56943 0.48032 0.0
H654 H 0.25741 0.59031 0.37172 0.0
H655 H 0.29391 0.58838 0.37892 0.0
H656 H 0.34163 0.56514 0.50774 0.0
H657 H 0.32316 0.5626 0.42827 0.0
H658 H 0.22303 0.58146 0.65692 0.0
H659 H 0.20467 0.57855 0.57724 0.0
H660 H 0.25597 0.60725 0.70582 0.0
H661 H 0.29244 0.60436 0.71272 0.0
C662 C 0.68359 0.01372 0.70799 0.0
C663 C 0.68821 0.98695 0.73418 0.0
C664 C 0.68313 0.01142 0.85046 0.0
C665 C 0.68302 0.0386 0.82533 0.0
N666 N 0.68634 0.06546 0.72896 0.0
N667 N 0.69653 0.96159 0.83337 0.0
C668 C 0.68387 0.03968 0.75362 0.0
C669 C 0.68882 0.98612 0.80628 0.0
N670 N 0.67817 0.01436 0.63935 0.0
N671 N 0.67761 1.00977 0.91703 0.0
H672 H 0.70185 0.94296 0.80361 0.0
H673 H 0.70031 0.9605 0.8856 0.0
H674 H 0.67308 0.02774 0.95021 0.0
H675 H 0.67467 0.99054 0.93711 0.0
H676 H 0.67192 0.03271 0.61763 0.0
H677 H 0.67719 0.99596 0.60476 0.0
H678 H 0.69051 0.06756 0.67853 0.0
H679 H 0.68627 0.0848 0.76005 0.0
C680 C 0.78816 0.59312 0.09338 0.0
C681 C 0.78754 0.5919 1.02108 0.0
C682 C 0.73652 0.58607 1.01458 0.0
C683 C 0.73677 0.59035 0.08692 0.0
N684 N 0.7624 0.60262 0.19546 0.0
N685 N 0.76064 0.59347 0.91377 0.0
C686 C 0.7625 0.59513 0.12655 0.0
C687 C 0.76154 0.59018 0.98192 0.0
N688 N 0.81317 0.59146 0.13019 0.0
N689 N 0.7125 0.57725 0.97708 0.0
H690 H 0.77845 0.59731 0.88816 0.0
H691 H 0.74202 0.59528 0.88427 0.0
H692 H 0.69383 0.57341 0.99928 0.0
H693 H 0.71182 0.57099 0.92469 0.0
H694 H 0.81474 0.58911 0.18219 0.0
H695 H 0.83236 0.59009 0.10769 0.0
H696 H 0.78025 0.60937 0.22581 0.0
H697 H 0.74407 0.60436 0.22157 0.0
C698 C 0.17526 0.01228 0.8783 0.0
C699 C 0.17819 0.9847 0.84215 0.0
C700 C 0.17428 1.00638 0.73351 0.0
C701 C 0.17447 0.03417 0.77 0.0
N702 N 0.17816 0.06374 0.87763 0.0
N703 N 0.18308 0.95559 0.73562 0.0
C704 C 0.17562 0.03714 0.84259 0.0
C705 C 0.1783 0.98179 0.76973 0.0
N706 N 0.17145 0.0147 0.9468 0.0
N707 N 0.1696 1.0035 0.66401 0.0
H708 H 0.18549 0.93717 0.76028 0.0
H709 H 0.18664 0.95234 0.68384 0.0
H710 H 0.16636 0.02092 0.63613 0.0
H711 H 0.16645 0.98395 0.63455 0.0
H712 H 0.16616 0.03371 0.97492 0.0
H713 H 0.17125 0.99716 0.97475 0.0
H714 H 0.18252 0.06736 0.93024 0.0
H715 H 0.17784 0.08236 0.85346 0.0
C716 C 0.7455 0.41692 0.48049 0.0
C717 C 0.73341 0.44419 0.47173 0.0
C718 C 0.77649 0.46567 0.53113 0.0
C719 C 0.78565 0.43911 0.55278 0.0
N720 N 0.77386 0.38943 0.55589 0.0
N721 N 0.73595 0.49472 0.51078 0.0
C722 C 0.7688 0.41463 0.52947 0.0
C723 C 0.74852 0.46866 0.5032 0.0
N724 N 0.73572 0.39319 0.44036 0.0
N725 N 0.79467 0.48809 0.53513 0.0
H726 H 0.7147 0.4976 0.49861 0.0
H727 H 0.74583 0.51258 0.5377 0.0
H728 H 0.81589 0.48598 0.54901 0.0
H729 H 0.78934 0.50728 0.51595 0.0
H730 H 0.74527 0.37332 0.44121 0.0
H731 H 0.7204 0.3941 0.40066 0.0
H732 H 0.7606 0.37181 0.54477 0.0
H733 H 0.78939 0.3871 0.59429 0.0
C734 C 0.35676 1.00665 0.30328 0.0
C735 C 0.3328 0.98851 0.29078 0.0
C736 C 0.30506 0.02659 0.34778 0.0
C737 C 0.32978 0.04224 0.37157 0.0
N738 N 0.38049 0.04178 0.38492 0.0
N739 N 0.28572 0.97926 0.32148 0.0
C740 C 0.35611 0.03073 0.35325 0.0
C741 C 0.30738 0.99785 0.31927 0.0
N742 N 0.37962 1.00208 0.26547 0.0
N743 N 0.27939 0.03928 0.34964 0.0
H744 H 0.28729 0.95749 0.30588 0.0
H745 H 0.2676 0.98504 0.34632 0.0
H746 H 0.27688 0.06097 0.36485 0.0
H747 H 0.26116 0.02893 0.32826 0.0
H748 H 0.39652 0.01623 0.27003 0.0
H749 H 0.38021 0.98638 0.22409 0.0
H750 H 0.3999 0.03241 0.37626 0.0
H751 H 0.38105 0.05804 0.42526 0.0
C752 C 0.7808 0.91048 0.47077 0.0
C753 C 0.79924 0.93455 0.48122 0.0
C754 C 0.7622 0.96071 0.54404 0.0
C755 C 0.74621 0.93534 0.54685 0.0
N756 N 0.73263 0.89442 0.46776 0.0
N757 N 0.80802 0.98155 0.54016 0.0
C758 C 0.75345 0.91193 0.49851 0.0
C759 C 0.79009 0.95918 0.52193 0.0
N760 N 0.78887 0.88627 0.43273 0.0
N761 N 0.74916 0.98654 0.54894 0.0
H762 H 0.82889 0.98108 0.52756 0.0
H763 H 0.80275 0.9991 0.57381 0.0
H764 H 0.72739 0.98822 0.54892 0.0
H765 H 0.75927 1.00543 0.54148 0.0
H766 H 0.7781 0.86698 0.43048 0.0
H767 H 0.80733 0.88493 0.4072 0.0
H768 H 0.73573 0.87823 0.42871 0.0
H769 H 0.71157 0.89968 0.47195 0.0
C770 C 0.35438 0.51494 0.86872 0.0
C771 C 0.35075 0.48658 0.83694 0.0
C772 C 0.35174 0.50373 0.72412 0.0
C773 C 0.35266 0.53229 0.75551 0.0
N774 N 0.35066 0.56554 0.85699 0.0
N775 N 0.34052 0.45443 0.73468 0.0
C776 C 0.35286 0.53806 0.82773 0.0
C777 C 0.34787 0.48111 0.76464 0.0
N778 N 0.36013 0.51971 0.93778 0.0
N779 N 0.35543 0.49816 0.65576 0.0
H780 H 0.33713 0.43734 0.76263 0.0
H781 H 0.33519 0.44987 0.68262 0.0
H782 H 0.3587 0.51414 0.62443 0.0
H783 H 0.35792 0.47766 0.63142 0.0
H784 H 0.36601 0.53954 0.96301 0.0
H785 H 0.36114 0.50334 0.96942 0.0
H786 H 0.34758 0.57091 0.9086 0.0
H787 H 0.34971 0.583 0.82869 0.0
C788 C 0.75022 0.09458 0.07308 0.0
C789 C 0.74808 0.09331 1.00055 0.0
C790 C 0.79899 0.08567 0.99947 0.0
C791 C 0.80147 0.08946 0.07216 0.0
N792 N 0.77986 0.10499 0.17707 0.0
N793 N 0.77187 0.09561 0.89693 0.0
C794 C 0.77718 0.0963 0.1086 0.0
C795 C 0.77296 0.09141 0.9645 0.0
N796 N 0.7267 0.09255 0.10818 0.0
N797 N 0.82088 0.07498 0.96347 0.0
H798 H 0.75337 0.10072 0.87012 0.0
H799 H 0.78973 0.09706 0.8698 0.0
H800 H 0.8399 0.06916 0.98663 0.0
H801 H 0.81912 0.06911 0.91089 0.0
H802 H 0.72739 0.09037 0.16027 0.0
H803 H 0.70664 0.09018 0.08439 0.0
H804 H 0.76314 0.11278 0.20494 0.0
H805 H 0.79926 0.10726 0.20439 0.0
C806 C 0.18708 0.53869 0.24444 0.0
C807 C 0.18405 0.53577 0.31469 0.0
C808 C 0.18576 0.48334 0.28816 0.0
C809 C 0.18754 0.48616 0.21738 0.0
N810 N 0.18327 0.51662 0.12686 0.0
N811 N 0.17373 0.50521 0.3999 0.0
C812 C 0.18614 0.51391 0.19521 0.0
C813 C 0.18114 0.50799 0.33517 0.0
N814 N 0.19226 0.565 0.22494 0.0
N815 N 0.1901 0.45732 0.31142 0.0
H816 H 0.16999 0.52278 0.43509 0.0
H817 H 0.16856 0.48574 0.4163 0.0
H818 H 0.19423 0.4389 0.27944 0.0
H819 H 0.19217 0.45444 0.3631 0.0
H820 H 0.19805 0.56815 0.17628 0.0
H821 H 0.19269 0.5836 0.25881 0.0
H822 H 0.17928 0.53598 0.10737 0.0
H823 H 0.18222 0.49908 0.08963 0.0
C824 C 0.27456 0.06883 0.58721 0.0
C825 C 0.28581 0.09529 0.57415 0.0
C826 C 0.24734 0.11824 0.63859 0.0
C827 C 0.23246 0.09162 0.63103 0.0
N828 N 0.23211 0.04189 0.5836 0.0
N829 N 0.29225 0.14199 0.63456 0.0
C830 C 0.24616 0.06702 0.6012 0.0
C831 C 0.2747 0.11976 0.61203 0.0
N832 N 0.29174 0.04612 0.5946 0.0
N833 N 0.23597 0.14175 0.67296 0.0
H834 H 0.3139 0.13981 0.63248 0.0
H835 H 0.28646 0.16017 0.66513 0.0
H836 H 0.21842 0.1408 0.70132 0.0
H837 H 0.24356 0.16236 0.672 0.0
H838 H 0.28452 0.02699 0.60938 0.0
H839 H 0.31346 0.04794 0.59299 0.0
H840 H 0.24168 0.02409 0.55876 0.0
H841 H 0.21051 0.03995 0.58646 0.0
C842 C 0.67232 0.52743 0.34392 0.0
C843 C 0.67119 0.49904 0.31026 0.0
C844 C 0.66425 0.51965 0.19964 0.0
C845 C 0.66928 0.54778 0.23261 0.0
N846 N 0.68061 0.57796 0.33703 0.0
N847 N 0.66819 0.46833 0.20428 0.0
C848 C 0.67374 0.5515 0.30512 0.0
C849 C 0.66742 0.49527 0.23758 0.0
N850 N 0.67129 0.53147 0.41337 0.0
N851 N 0.65616 0.51631 0.13158 0.0
H852 H 0.67031 0.45016 0.22989 0.0
H853 H 0.66884 0.46404 0.15151 0.0
H854 H 0.65359 0.53359 0.10291 0.0
H855 H 0.64949 0.49697 0.1051 0.0
H856 H 0.6692 0.55143 0.44081 0.0
H857 H 0.6698 0.5146 0.44306 0.0
H858 H 0.68765 0.58168 0.38825 0.0
H859 H 0.68098 0.59606 0.31106 0.0
C860 C 0.24946 0.90383 1.02111 0.0
C861 C 0.23783 0.93053 1.00523 0.0
C862 C 0.28194 0.953 0.05556 0.0
C863 C 0.29055 0.92807 0.08571 0.0
N864 N 0.27828 0.87976 0.10296 0.0
N865 N 0.24167 0.98185 0.03268 0.0
C866 C 0.2732 0.90334 0.06988 0.0
C867 C 0.25377 0.95553 0.02928 0.0
N868 N 0.23887 0.8789 0.98802 0.0
N869 N 0.30051 0.97471 0.05305 0.0
H870 H 0.22022 0.98472 1.02334 0.0
H871 H 0.25234 1.00027 0.05409 0.0
H872 H 0.32161 0.97311 0.06918 0.0
H873 H 0.29541 0.99261 0.02809 0.0
H874 H 0.24799 0.85917 0.99412 0.0
H875 H 0.22325 0.87831 0.94859 0.0
H876 H 0.26463 0.86234 0.09773 0.0
H877 H 0.2946 0.87866 0.14006 0.0
C878 C 0.84856 0.51137 0.87407 0.0
C879 C 0.84533 0.53869 0.85037 0.0
C880 C 0.84342 0.51576 0.73245 0.0
C881 C 0.84147 0.48853 0.75625 0.0
N882 N 0.83911 0.46061 0.85122 0.0
N883 N 0.83397 0.56607 0.75541 0.0
C884 C 0.84337 0.48633 0.82761 0.0
C885 C 0.84134 0.54073 0.77905 0.0
N886 N 0.85702 0.50938 0.94083 0.0
N887 N 0.84821 0.51784 0.66564 0.0
H888 H 0.83094 0.58477 0.78732 0.0
H889 H 0.82807 0.56777 0.70424 0.0
H890 H 0.85167 0.50001 0.6311 0.0
H891 H 0.85215 0.53719 0.647 0.0
H892 H 0.8622 0.49013 0.95969 0.0
H893 H 0.8616 0.52729 0.97568 0.0
H894 H 0.83737 0.45831 0.90272 0.0
H895 H 0.83486 0.44192 0.81886 0.0
C896 C 0.12329 0.271 0.75779 0.0
C897 C 0.12573 0.24162 0.76855 0.0
C898 C 0.12663 0.25548 0.89341 0.0
C899 C 0.12378 0.28461 0.88217 0.0
N900 N 0.12875 0.32045 0.806 0.0
N901 N 0.13813 0.20725 0.84705 0.0
C902 C 0.12522 0.29239 0.81501 0.0
C903 C 0.13012 0.23436 0.83668 0.0
N904 N 0.11718 0.27879 0.69382 0.0
N905 N 0.12461 0.2477 0.95763 0.0
H906 H 0.14164 0.19163 0.80679 0.0
H907 H 0.14409 0.2011 0.89498 0.0
H908 H 0.12309 0.26248 1.00053 0.0
H909 H 0.12277 0.2266 0.96782 0.0
H910 H 0.1112 0.29938 0.68485 0.0
H911 H 0.11606 0.26465 0.64963 0.0
H912 H 0.13286 0.32738 0.75922 0.0
H913 H 0.13066 0.3365 0.84691 0.0
C914 C 0.04043 0.84095 0.15624 0.0
C915 C 0.05022 0.86487 0.1251 0.0
C916 C 0.02266 0.89637 0.20668 0.0
C917 C 0.01206 0.87228 0.23471 0.0
N918 N 1.00603 0.82147 0.22476 0.0
N919 N 0.04806 0.91561 0.11828 0.0
C920 C 0.0197 0.8446 0.20617 0.0
C921 C 0.0403 0.8926 0.14937 0.0
N922 N 0.05065 0.81432 0.13808 0.0
N923 N 0.01678 0.92299 0.23684 0.0
H924 H 0.06284 0.91443 0.08145 0.0
H925 H 0.03904 0.93569 0.12676 0.0
H926 H 1.00337 0.92635 0.27668 0.0
H927 H 0.02621 0.94159 0.22532 0.0
H928 H 0.04745 0.79692 0.16498 0.0
H929 H 0.06368 0.80962 0.09838 0.0
H930 H 1.00769 0.80089 0.20031 0.0
H931 H 0.99061 0.82326 0.26014 0.0
C932 C 0.37726 0.75546 0.34909 0.0
C933 C 0.40199 0.7412 0.37087 0.0
C934 C 0.42872 0.76684 0.29344 0.0
C935 C 0.40482 0.78337 0.27701 0.0
N936 N 0.35663 0.79514 0.29405 0.0
N937 N 0.45245 0.73745 0.37198 0.0
C938 C 0.37909 0.77804 0.30597 0.0
C939 C 0.428 0.74804 0.34517 0.0
N940 N 0.35191 0.74677 0.36774 0.0
N941 N 0.452 0.76815 0.25727 0.0
H942 H 0.45331 0.72354 0.4096 0.0
H943 H 0.47218 0.74464 0.36184 0.0
H944 H 0.45289 0.78071 0.21738 0.0
H945 H 0.46901 0.75447 0.26126 0.0
H946 H 0.33282 0.754 0.34805 0.0
H947 H 0.34991 0.73059 0.39924 0.0
H948 H 0.33818 0.79462 0.31921 0.0
H949 H 0.35713 0.81125 0.26181 0.0
C950 C 0.48135 0.11597 0.55935 0.0
C951 C 0.47518 0.14365 0.5396 0.0
C952 C 0.51402 0.16348 0.62004 0.0
C953 C 0.51919 0.13622 0.64239 0.0
N954 N 0.50625 0.08692 0.63895 0.0
N955 N 0.48431 0.19454 0.55761 0.0
C956 C 0.50241 0.11255 0.61345 0.0
C957 C 0.49098 0.16759 0.57244 0.0
N958 N 0.4669 0.09294 0.52676 0.0
N959 N 0.5319 0.1855 0.64296 0.0
H960 H 0.47015 0.19899 0.51825 0.0
H961 H 0.49193 0.21312 0.58584 0.0
H962 H 0.5496 0.18312 0.67506 0.0
H963 H 0.53071 0.20577 0.62716 0.0
H964 H 0.47205 0.07187 0.53272 0.0
H965 H 0.45023 0.0948 0.49089 0.0
H966 H 0.49326 0.06928 0.62581 0.0
H967 H 0.52178 0.08378 0.67694 0.0
C968 C 0.10278 0.78663 0.719 0.0
C969 C 0.12291 0.78944 0.77673 0.0
C970 C 0.15168 0.753 0.70997 0.0
C971 C 0.12971 0.7483 0.6579 0.0
N972 N 0.08112 0.75501 0.62586 0.0
N973 N 0.16778 0.77445 0.82376 0.0
C974 C 0.10437 0.76331 0.66694 0.0
C975 C 0.14758 0.77204 0.77139 0.0
N976 N 0.0828 0.80679 0.7096 0.0
N977 N 0.17696 0.74032 0.69936 0.0
H978 H 0.16815 0.79093 0.86354 0.0
H979 H 0.18406 0.75994 0.82817 0.0
H980 H 0.18023 0.72609 0.65627 0.0
H981 H 0.19502 0.74502 0.73074 0.0
H982 H 0.07003 0.80654 0.6647 0.0
H983 H 0.0807 0.82566 0.74056 0.0
H984 H 0.06118 0.76299 0.63499 0.0
H985 H 0.08124 0.73784 0.58782 0.0
C986 C 0.47248 0.89077 0.96599 0.0
C987 C 0.47817 0.87723 1.0268 0.0
C988 C 0.52377 0.86173 0.98293 0.0
C989 C 0.51964 0.87788 0.92656 0.0
N990 N 0.49123 0.91171 0.87051 0.0
N991 N 0.51469 0.85716 0.09938 0.0
C992 C 0.49419 0.89336 0.91946 0.0
C993 C 0.50546 0.86522 0.03747 0.0
N994 N 0.44651 0.90182 0.95311 0.0
N995 N 0.54432 0.84147 0.98302 0.0
H996 H 0.50315 0.8586 0.1421 0.0
H997 H 0.53545 0.85159 0.11051 0.0
H998 H 0.55634 0.83583 0.94136 0.0
H999 H 0.54699 0.82758 1.02054 0.0
H1000 H 0.43983 0.90847 0.90613 0.0
H1001 H 0.43116 0.9033 0.98856 0.0
H1002 H 0.47458 0.92585 0.86693 0.0
H1003 H 0.50674 0.9147 0.83711 0.0
C1004 C 0.41294 0.24446 0.1462 0.0
C1005 C 0.39127 0.2651 0.14855 0.0
C1006 C 0.37213 0.24125 0.24195 0.0
C1007 C 0.39678 0.22434 0.24704 0.0
N1008 N 0.44455 0.21862 0.21555 0.0
N1009 N 0.3501 0.28357 0.20207 0.0
C1010 C 0.41819 0.22828 0.20216 0.0
C1011 C 0.37084 0.26365 0.19773 0.0
N1012 N 0.42858 0.23968 0.09066 0.0
N1013 N 0.34961 0.2354 0.27742 0.0
H1014 H 0.34722 0.29861 0.16717 0.0
H1015 H 0.3366 0.28588 0.24174 0.0
H1016 H 0.34953 0.21879 0.30827 0.0
H1017 H 0.33021 0.24517 0.27122 0.0
H1018 H 0.44362 0.22363 0.08622 0.0
H1019 H 0.42359 0.24826 0.04524 0.0
H1020 H 0.4616 0.22392 0.18881 0.0
H1021 H 0.4498 0.20791 0.25767 0.0
C1022 C 0.99855 0.14974 0.38827 0.0
C1023 C 1.00643 0.15049 0.32033 0.0
C1024 C 0.05607 0.15056 0.36477 0.0
C1025 C 0.04792 0.1553 0.4335 0.0
N1026 N 1.0094 0.16513 0.50745 0.0
N1027 N 0.0436 0.15351 0.2443 0.0
C1028 C 0.01862 0.15606 0.44452 0.0
C1029 C 0.03548 0.15116 0.30856 0.0
N1030 N 0.97163 0.14275 0.39932 0.0
N1031 N 0.08337 0.14446 0.3529 0.0
H1032 H 0.0295 0.15281 0.20174 0.0
H1033 H 0.06414 0.15796 0.23404 0.0
H1034 H 0.09862 0.14244 0.39221 0.0
H1035 H 0.0902 0.13831 0.30438 0.0
H1036 H 0.96526 0.1391 0.44722 0.0
H1037 H 0.95657 0.13734 0.35941 0.0
H1038 H 0.98834 0.16896 0.51569 0.0
H1039 H 0.02246 0.17254 0.54968 0.0
C1040 C 0.88016 0.80106 0.21862 0.0
C1041 C 0.89848 0.79333 0.27301 0.0
C1042 C 0.91264 0.75081 0.19826 0.0
C1043 C 0.89304 0.75742 0.14497 0.0
N1044 N 0.8533 0.78566 0.11224 0.0
N1045 N 0.9259 0.7565 0.31946 0.0
C1046 C 0.87536 0.78166 0.15755 0.0
C1047 C 0.91257 0.76675 0.26426 0.0
N1048 N 0.86765 0.8272 0.22473 0.0
N1049 N 0.93287 0.73077 0.18514 0.0
H1050 H 0.92531 0.76726 0.36823 0.0
H1051 H 0.93432 0.73605 0.31785 0.0
H1052 H 0.93495 0.71961 0.13719 0.0
H1053 H 0.94952 0.72746 0.22003 0.0
H1054 H 0.85673 0.83562 0.18421 0.0
H1055 H 0.86962 0.84115 0.26966 0.0
H1056 H 0.8382 0.80133 0.12123 0.0
H1057 H 0.84842 0.7714 0.0689 0.0
C1058 C 0.99791 0.16575 0.80725 0.0
C1059 C 0.02253 0.14957 0.81699 0.0
C1060 C 0.99968 0.12636 0.90552 0.0
C1061 C 0.97739 0.14655 0.90605 0.0
N1062 N 0.95723 0.18774 0.85594 0.0
N1063 N 0.04748 0.11482 0.87767 0.0
C1064 C 0.97664 0.16647 0.85557 0.0
C1065 C 0.02351 0.12991 0.86666 0.0
N1066 N 0.99483 0.18076 0.75173 0.0
N1067 N 0.99756 0.10295 0.9401 0.0
H1068 H 0.06469 0.11573 0.84796 0.0
H1069 H 0.05085 0.1028 0.91869 0.0
H1070 H 0.97976 0.09864 0.96527 0.0
H1071 H 0.01181 0.0862 0.93699 0.0
H1072 H 0.97612 0.19039 0.73697 0.0
H1073 H 1.01016 0.18125 0.71649 0.0
H1074 H 0.95893 0.20528 0.82856 0.0
H1075 H 0.94049 0.18961 0.88667 0.0
C1076 C 0.64192 0.22737 0.74386 0.0
C1077 C 0.61522 0.2206 0.76605 0.0
C1078 C 0.59442 0.25992 0.7059 0.0
C1079 C 0.62085 0.26586 0.68097 0.0
N1080 N 0.66915 0.25303 0.66924 0.0
N1081 N 0.56537 0.22733 0.7573 0.0
C1082 C 0.64439 0.24878 0.69767 0.0
C1083 C 0.59136 0.23614 0.74403 0.0
N1084 N 0.66504 0.21369 0.76819 0.0
N1085 N 0.5719 0.27688 0.69248 0.0
H1086 H 0.56247 0.20848 0.77837 0.0
H1087 H 0.54665 0.23618 0.74011 0.0
H1088 H 0.5718 0.29204 0.65776 0.0
H1089 H 0.55348 0.27692 0.71787 0.0
H1090 H 0.6855 0.21943 0.76065 0.0
H1091 H 0.66376 0.19733 0.79951 0.0
H1092 H 0.6864 0.23968 0.67307 0.0
H1093 H 0.67192 0.26912 0.63792 0.0
C1094 C 0.51405 0.90314 0.45047 0.0
C1095 C 0.50148 0.87897 0.41039 0.0
C1096 C 0.52948 0.84773 0.48221 0.0
C1097 C 0.54112 0.87188 0.52507 0.0
N1098 N 0.54182 0.92291 0.55277 0.0
N1099 N 0.49329 0.82843 0.39719 0.0
C1100 C 0.53235 0.89966 0.51025 0.0
C1101 C 0.50807 0.85138 0.42925 0.0
N1102 N 0.5092 0.92955 0.42988 0.0
N1103 N 0.53906 0.82099 0.49127 0.0
H1104 H 0.47747 0.8303 0.35909 0.0
H1105 H 0.49503 0.80789 0.41155 0.0
H1106 H 0.55223 0.81658 0.53278 0.0
H1107 H 0.53484 0.80317 0.45612 0.0
H1108 H 0.52001 0.94788 0.45076 0.0
H1109 H 0.49514 0.93288 0.38889 0.0
H1110 H 0.534 0.94341 0.55025 0.0
H1111 H 0.55662 0.92153 0.59335 0.0
C1112 C 0.92032 0.25283 0.23613 0.0
C1113 C 0.90161 0.22951 0.21847 0.0
C1114 C 0.87296 0.2477 0.3136 0.0
C1115 C 0.8933 0.26933 0.33516 0.0
N1116 N 0.93999 0.28753 0.32554 0.0
N1117 N 0.86178 0.20262 0.24465 0.0
C1118 C 0.91794 0.27061 0.29861 0.0
C1119 C 0.87835 0.22634 0.25846 0.0
N1120 N 0.9403 0.25829 0.19263 0.0
N1121 N 0.84812 0.24808 0.34427 0.0
H1122 H 0.8646 0.18727 0.20339 0.0
H1123 H 0.84643 0.19728 0.27627 0.0
H1124 H 0.84348 0.26338 0.38424 0.0
H1125 H 0.8313 0.23473 0.32673 0.0
H1126 H 0.95278 0.27657 0.19941 0.0
H1127 H 0.94239 0.24609 0.14594 0.0
H1128 H 0.95955 0.28686 0.30497 0.0
H1129 H 0.93999 0.29991 0.37266 0.0
C1130 C 0.51125 0.13493 1.02338 0.0
C1131 C 0.54023 0.13767 0.04519 0.0
C1132 C 0.52692 0.14061 0.1654 0.0
C1133 C 0.49798 0.1374 0.14338 0.0
N1134 N 0.46458 0.12166 0.05076 0.0
N1135 N 0.57535 0.13385 0.13662 0.0
C1136 C 0.4909 0.13132 0.07212 0.0
C1137 C 0.54788 0.13751 0.11613 0.0
N1138 N 0.50253 0.1377 0.95718 0.0
N1139 N 0.53469 0.14829 0.23266 0.0
H1140 H 0.59099 0.13054 0.10204 0.0
H1141 H 0.58206 0.13085 0.18661 0.0
H1142 H 0.52075 0.15 0.27115 0.0
H1143 H 0.55495 0.15482 0.24977 0.0
H1144 H 0.48151 0.13959 0.94103 0.0
H1145 H 0.51606 0.14056 0.91931 0.0
H1146 H 0.4588 0.11432 1.00007 0.0
H1147 H 0.44958 0.11788 0.08497 0.0
C1148 C 0.62448 0.77923 0.94512 0.0
C1149 C 0.62337 0.74972 0.91984 0.0
C1150 C 0.61839 0.76434 0.80211 0.0
C1151 C 0.62199 0.79397 0.82657 0.0
N1152 N 0.636 0.82761 0.92404 0.0
N1153 N 0.6273 0.71506 0.8221 0.0
C1154 C 0.62722 0.80078 0.89892 0.0
C1155 C 0.62304 0.74272 0.8477 0.0
N1156 N 0.62167 0.78705 1.01301 0.0
N1157 N 0.60821 0.75642 0.73649 0.0
H1158 H 0.63126 0.69888 0.85351 0.0
H1159 H 0.63009 0.70893 0.77058 0.0
H1160 H 0.60119 0.77081 0.70294 0.0
H1161 H 0.60279 0.73544 0.71838 0.0
H1162 H 0.61883 0.80814 0.03324 0.0
H1163 H 0.61994 0.77225 0.04814 0.0
H1164 H 0.64243 0.83318 0.97521 0.0
H1165 H 0.64009 0.84331 0.89265 0.0
C1166 C 0.97516 0.88771 0.67663 0.0
C1167 C 0.98436 0.87309 0.6149 0.0
C1168 C 0.03143 0.86965 0.67425 0.0
C1169 C 0.02082 0.879 0.73867 0.0
N1170 N 0.98151 0.89735 0.80035 0.0
N1171 N 0.02072 0.84431 0.56258 0.0
C1172 C 0.99231 0.88807 0.73941 0.0
C1173 C 0.01247 0.86279 0.61557 0.0
N1174 N 0.95055 0.90246 0.67496 0.0
N1175 N 0.05959 0.86722 0.66815 0.0
H1176 H 1.00695 0.8364 0.52225 0.0
H1177 H 0.04 0.83395 0.56334 0.0
H1178 H 0.07428 0.87271 0.70854 0.0
H1179 H 0.06837 0.86287 0.62109 0.0
H1180 H 0.94386 0.91575 0.71644 0.0
H1181 H 0.93822 0.90392 0.62997 0.0
H1182 H 0.96016 0.9004 0.806 0.0
H1183 H 0.99388 0.90101 0.84593 0.0
C1184 C 0.61153 0.76213 0.31985 0.0
C1185 C 0.61851 0.73256 0.31975 0.0
C1186 C 0.62823 0.74089 0.4453 0.0
C1187 C 0.6223 0.77046 0.44484 0.0
N1188 N 0.61369 0.81015 0.37932 0.0
N1189 N 0.64074 0.69623 0.38101 0.0
C1190 C 0.61602 0.78135 0.38122 0.0
C1191 C 0.62891 0.72268 0.38222 0.0
N1192 N 0.59857 0.77176 0.263 0.0
N1193 N 0.63304 0.72999 0.50638 0.0
H1194 H 0.64298 0.68294 0.33583 0.0
H1195 H 0.65111 0.6887 0.42345 0.0
H1196 H 0.63478 0.74275 0.55311 0.0
H1197 H 0.63376 0.7082 0.51097 0.0
H1198 H 0.58999 0.79206 0.26253 0.0
H1199 H 0.59341 0.75886 0.21786 0.0
H1200 H 0.61268 0.81976 0.33413 0.0
H1201 H 0.61515 0.82477 0.42298 0.0
C1202 C 0.52205 0.36114 0.60084 0.0
C1203 C 0.55123 0.36814 0.61376 0.0
C1204 C 0.54306 0.37428 0.7382 0.0
C1205 C 0.51382 0.3688 0.72483 0.0
N1206 N 0.47489 0.36257 0.64152 0.0
N1207 N 0.5871 0.38841 0.69589 0.0
C1208 C 0.50321 0.36427 0.65551 0.0
C1209 C 0.56098 0.37667 0.6829 0.0
N1210 N 0.51234 0.3494 0.53735 0.0
N1211 N 0.55399 0.37689 0.80425 0.0
H1212 H 0.6002 0.39187 0.65724 0.0
H1213 H 0.59459 0.3976 0.74399 0.0
H1214 H 0.54155 0.37716 0.84592 0.0
H1215 H 0.57542 0.37711 0.81748 0.0
H1216 H 0.49245 0.34046 0.52702 0.0
H1217 H 0.52473 0.34597 0.49589 0.0
H1218 H 0.46545 0.36259 0.59248 0.0
H1219 H 0.46067 0.36381 0.67969 0.0
C1220 C 0.88958 0.23936 0.76828 0.0
C1221 C 0.88622 0.24693 0.83915 0.0
C1222 C 0.87733 0.29665 0.8154 0.0
C1223 C 0.87995 0.28879 0.74422 0.0
N1224 N 0.87876 0.25012 0.65257 0.0
N1225 N 0.87015 0.28153 0.92709 0.0
C1226 C 0.88276 0.25937 0.7205 0.0
C1227 C 0.87811 0.27526 0.86181 0.0
N1228 N 0.9011 0.21368 0.74638 0.0
N1229 N 0.87423 0.32477 0.83883 0.0
H1230 H 0.86976 0.26633 0.9617 0.0
H1231 H 0.86142 0.30095 0.945 0.0
H1232 H 0.87067 0.34054 0.8061 0.0
H1233 H 0.87617 0.33255 0.89039 0.0
H1234 H 0.90738 0.20866 0.69686 0.0
H1235 H 0.90722 0.19853 0.77894 0.0
H1236 H 0.87821 0.22858 0.63381 0.0
H1237 H 0.87239 0.26331 0.61573 0.0
C1238 C 0.01817 0.62405 0.0988 0.0
C1239 C 0.03291 0.64839 0.13193 0.0
C1240 C 1.00573 0.67879 0.05823 0.0
C1241 C 0.98908 0.65504 0.02963 0.0
N1242 N 0.9773 0.60537 0.02817 0.0
N1243 N 0.03583 0.6999 0.15304 0.0
C1244 C 0.99478 0.62767 0.05125 0.0
C1245 C 0.02534 0.676 0.11431 0.0
N1246 N 0.02702 0.59744 0.11132 0.0
N1247 N 1.00366 0.70399 0.03009 0.0
H1248 H 0.04994 0.69933 0.19523 0.0
H1249 H 0.02835 0.72036 0.14768 0.0
H1250 H 0.99023 0.70674 0.98786 0.0
H1251 H 0.01738 0.72109 0.04367 0.0
H1252 H 0.01921 0.57873 0.08387 0.0
H1253 H 0.04377 0.59415 0.14605 0.0
H1254 H 0.97834 0.58565 0.04729 0.0
H1255 H 0.96037 0.60724 0.99294 0.0
C1256 C 0.62648 0.26262 0.28741 0.0
C1257 C 0.62564 0.29273 0.28201 0.0
C1258 C 0.62373 0.28154 0.15505 0.0
C1259 C 0.62225 0.25167 0.16037 0.0
N1260 N 0.62004 0.21388 0.23213 0.0
N1261 N 0.63301 0.32969 0.21003 0.0
C1262 C 0.62357 0.2423 0.22681 0.0
C1263 C 0.62688 0.30175 0.21541 0.0
N1264 N 0.63082 0.2531 0.35016 0.0
N1265 N 0.62116 0.29079 0.09163 0.0
H1266 H 0.63739 0.34451 0.2526 0.0
H1267 H 0.63692 0.33761 0.16432 0.0
H1268 H 0.62093 0.27692 0.04661 0.0
H1269 H 0.61778 0.31198 0.08332 0.0
H1270 H 0.63477 0.23191 0.3575 0.0
H1271 H 0.63335 0.26646 0.39546 0.0
H1272 H 0.61647 0.20553 0.27754 0.0
H1273 H 0.61884 0.1985 0.18982 0.0
C1274 C 0.99169 0.33861 0.47075 0.0
C1275 C 0.96782 0.35667 0.47308 0.0
C1276 C 0.98538 0.38049 0.37831 0.0
C1277 C 1.00771 0.36054 0.3722 0.0
N1278 N 0.02632 0.31527 0.4001 0.0
N1279 N 0.94007 0.39267 0.42284 0.0
C1280 C 1.00923 0.33812 0.41496 0.0
C1281 C 0.96399 0.3768 0.42448 0.0
N1282 N 0.99806 0.32196 0.52202 0.0
N1283 N 0.98533 0.40382 0.34284 0.0
H1284 H 0.92489 0.39196 0.45834 0.0
H1285 H 0.93448 0.4052 0.38385 0.0
H1286 H 1.0008 0.40757 0.30992 0.0
H1287 H 0.97139 0.42069 0.35045 0.0
H1288 H 0.01692 0.31099 0.52648 0.0
H1289 H 0.98579 0.32094 0.56333 0.0
H1290 H 0.02611 0.29698 0.4254 0.0
H1291 H 0.03819 0.31296 0.35728 0.0
C1292 C 0.90038 0.75852 0.77968 0.0
C1293 C 0.8962 0.72853 0.7588 0.0
C1294 C 0.89709 0.7389 0.63856 0.0
C1295 C 0.90082 0.76844 0.66025 0.0
N1296 N 0.89443 0.80662 0.74848 0.0
N1297 N 0.87989 0.6935 0.66613 0.0
C1298 C 0.89839 0.7782 0.72979 0.0
C1299 C 0.89128 0.71973 0.68747 0.0
N1300 N 0.90855 0.76879 0.84541 0.0
N1301 N 0.89994 0.72877 0.57193 0.0
H1302 H 0.87311 0.67987 0.70002 0.0
H1303 H 0.87387 0.6869 0.61517 0.0
H1304 H 0.90247 0.74209 0.53404 0.0
H1305 H 0.9012 0.70708 0.55527 0.0
H1306 H 0.91488 0.78987 0.85922 0.0
H1307 H 0.91269 0.75662 0.88528 0.0
H1308 H 0.88965 0.81477 0.79766 0.0
H1309 H 0.89262 0.82145 0.71279 0.0
C1310 C 0.51203 0.63738 0.98824 0.0
C1311 C 0.54062 0.64323 0.97732 0.0
C1312 C 0.52686 0.64968 0.85679 0.0
C1313 C 0.49814 0.64696 0.86953 0.0
N1314 N 0.46297 0.63779 0.94648 0.0
N1315 N 0.57547 0.64274 0.89449 0.0
C1316 C 0.4907 0.64043 0.93493 0.0
C1317 C 0.54801 0.64566 0.90936 0.0
N1318 N 0.50524 0.62732 0.04757 0.0
N1319 N 0.53401 0.65821 0.79607 0.0
H1320 H 0.59109 0.63793 0.93079 0.0
H1321 H 0.58226 0.64165 0.84514 0.0
H1322 H 0.51936 0.66141 0.75626 0.0
H1323 H 0.55422 0.66434 0.78704 0.0
H1324 H 0.48523 0.62087 0.05708 0.0
H1325 H 0.5199 0.62162 0.08458 0.0
H1326 H 0.45534 0.63758 0.99465 0.0
H1327 H 0.44709 0.63705 0.90756 0.0
C1328 C 0.38166 0.28537 0.73078 0.0
C1329 C 0.4084 0.2876 0.76741 0.0
C1330 C 0.42635 0.25092 0.68177 0.0
C1331 C 0.40114 0.25167 0.64052 0.0
N1332 N 0.35468 0.27013 0.62374 0.0
N1333 N 0.45734 0.27395 0.77234 0.0
C1334 C 0.37856 0.26874 0.66497 0.0
C1335 C 0.43102 0.27076 0.74125 0.0
N1336 N 0.35939 0.29967 0.75796 0.0
N1337 N 0.44558 0.23025 0.66507 0.0
H1338 H 0.46176 0.28598 0.8191 0.0
H1339 H 0.47524 0.26581 0.74992 0.0
H1340 H 0.44153 0.214 0.62546 0.0
H1341 H 0.46406 0.2273 0.694 0.0
H1342 H 0.33882 0.29681 0.73792 0.0
H1343 H 0.36117 0.31327 0.80334 0.0
H1344 H 0.33849 0.28441 0.63415 0.0
H1345 H 0.3517 0.25783 0.57657 0.0
C1346 C 0.47561 0.63511 0.40982 0.0
C1347 C 0.47815 0.6551 0.46945 0.0
C1348 C 0.51784 0.6776 0.42206 0.0
C1349 C 0.51796 0.65531 0.36781 0.0
N1350 N 0.49833 0.61114 0.31245 0.0
N1351 N 0.50637 0.69183 0.53766 0.0
C1352 C 0.49704 0.63368 0.36191 0.0
C1353 C 0.50065 0.67524 0.47724 0.0
N1354 N 0.45296 0.61724 0.39932 0.0
N1355 N 0.53325 0.70183 0.41958 0.0
H1356 H 0.49541 0.69057 0.58089 0.0
H1357 H 0.52419 0.70467 0.54739 0.0
H1358 H 0.5452 0.70507 0.37861 0.0
H1359 H 0.53149 0.72006 0.45403 0.0
H1360 H 0.44818 0.60452 0.35353 0.0
H1361 H 0.43793 0.61631 0.43512 0.0
H1362 H 0.4856 0.59313 0.30974 0.0
H1363 H 0.51365 0.60944 0.27686 0.0
C1364 C 0.11481 0.74943 0.288 0.0
C1365 C 0.12461 0.72081 0.27348 0.0
C1366 C 0.13652 0.73231 0.15857 0.0
C1367 C 0.12495 0.76001 0.17183 0.0
N1368 N 0.10132 0.79458 0.24694 0.0
N1369 N 0.14688 0.68574 0.1964 0.0
C1370 C 0.11411 0.76857 0.23637 0.0
C1371 C 0.13593 0.71249 0.20892 0.0
N1372 N 0.1056 0.75855 0.35094 0.0
N1373 N 0.14943 0.72557 0.09897 0.0
H1374 H 0.1512 0.67245 0.23459 0.0
H1375 H 0.15176 0.67643 0.14839 0.0
H1376 H 0.15047 0.7396 0.06181 0.0
H1377 H 0.16057 0.70692 0.08713 0.0
H1378 H 0.10395 0.77996 0.36961 0.0
H1379 H 0.0996 0.74507 0.3857 0.0
H1380 H 0.09005 0.80125 0.28916 0.0
H1381 H 0.10019 0.80932 0.21124 0.0
C1382 C 1.00099 0.36404 0.97718 0.0
C1383 C 0.02863 0.37547 0.97615 0.0
C1384 C 0.01747 0.38463 0.8558 0.0
C1385 C 0.98959 0.3744 0.85807 0.0
N1386 N 0.95326 0.35999 0.92598 0.0
N1387 N 0.06053 0.40243 0.91823 0.0
C1388 C 0.98086 0.36622 0.9207 0.0
C1389 C 0.03602 0.38748 0.91643 0.0
N1390 N 0.99445 0.34893 0.02941 0.0
N1391 N 0.02654 0.39106 0.79493 0.0
H1392 H 0.07408 0.40565 0.96194 0.0
H1393 H 0.06609 0.41401 0.87907 0.0
H1394 H 0.01325 0.39093 0.75086 0.0
H1395 H 0.04745 0.39499 0.78718 0.0
H1396 H 0.97596 0.3373 0.02915 0.0
H1397 H 1.00848 0.34552 0.07016 0.0
H1398 H 0.94483 0.3568 0.972 0.0
H1399 H 0.93827 0.36064 0.88543 0.0
C1400 C 0.38968 0.71777 0.83872 0.0
C1401 C 0.38856 0.72506 0.77059 0.0
C1402 C 0.38901 0.77588 0.81708 0.0
C1403 C 0.39647 0.76826 0.88357 0.0
N1404 N 0.40583 0.73094 0.9567 0.0
N1405 N 0.38623 0.76218 0.69484 0.0
C1406 C 0.39675 0.73894 0.89454 0.0
C1407 C 0.38736 0.75444 0.75965 0.0
N1408 N 0.38426 0.69028 0.84974 0.0
N1409 N 0.3831 0.80373 0.80905 0.0
H1410 H 0.38257 0.74782 0.65139 0.0
H1411 H 0.38982 0.78293 0.68397 0.0
H1412 H 0.38373 0.81971 0.85013 0.0
H1413 H 0.37486 0.81047 0.76339 0.0
H1414 H 0.38237 0.68388 0.89817 0.0
H1415 H 0.37866 0.67458 0.80966 0.0
H1416 H 0.40974 0.70981 0.96501 0.0
H1417 H 0.41175 0.74542 0.99882 0.0
C1418 C 1.0046 0.67863 0.60768 0.0
C1419 C 0.99711 0.65336 0.63542 0.0
C1420 C 0.03115 0.62626 0.56373 0.0
C1421 C 0.03987 0.65192 0.53909 0.0
N1422 N 0.03647 0.70335 0.54385 0.0
N1423 N 1.00461 0.60351 0.64508 0.0
C1424 C 0.02705 0.67826 0.56312 0.0
C1425 C 1.0108 0.62726 0.61479 0.0
N1426 N 0.98984 0.70319 0.623 0.0
N1427 N 0.04245 0.60091 0.53857 0.0
H1428 H 0.98938 0.60343 0.68069 0.0
H1429 H 0.01547 0.58438 0.63834 0.0
H1430 H 0.05834 0.59958 0.50453 0.0
H1431 H 0.03525 0.58106 0.54832 0.0
H1432 H 0.99081 0.721 0.59632 0.0
H1433 H 0.97508 0.70544 0.65989 0.0
H1434 H 0.031 0.72337 0.56653 0.0
H1435 H 0.05042 0.70449 0.50594 0.0
C1436 C 0.1075 0.27572 0.26115 0.0
C1437 C 0.11512 0.30508 0.2791 0.0
C1438 C 0.1287 0.29322 0.39654 0.0
C1439 C 0.11775 0.26509 0.38012 0.0
N1440 N 0.08996 0.23259 0.30041 0.0
N1441 N 0.13198 0.34179 0.36695 0.0
C1442 C 0.10543 0.25719 0.31337 0.0
C1443 C 0.12518 0.31382 0.34794 0.0
N1444 N 0.10205 0.26496 0.19447 0.0
N1445 N 0.14386 0.29991 0.4572 0.0
H1446 H 0.1329 0.35684 0.33216 0.0
H1447 H 0.13563 0.35035 0.41766 0.0
H1448 H 0.14746 0.2854 0.49303 0.0
H1449 H 0.15503 0.31888 0.46953 0.0
H1450 H 0.10027 0.24316 0.179 0.0
H1451 H 0.10135 0.27691 0.15333 0.0
H1452 H 0.0784 0.22678 0.25451 0.0
H1453 H 0.08585 0.21949 0.33796 0.0
C1454 C 0.50168 0.39231 0.11997 0.0
C1455 C 0.47851 0.37294 0.11561 0.0
C1456 C 0.49354 0.36221 0.23217 0.0
C1457 C 0.51965 0.37571 0.2288 0.0
N1458 N 0.54932 0.4031 0.166 0.0
N1459 N 0.45709 0.33461 0.16766 0.0
C1460 C 0.52388 0.3909 0.17198 0.0
C1461 C 0.47538 0.3569 0.17223 0.0
N1462 N 0.50213 0.41275 0.07606 0.0
N1463 N 0.48608 0.35419 0.29297 0.0
H1464 H 0.44554 0.32744 0.12314 0.0
H1465 H 0.45626 0.32082 0.20541 0.0
H1466 H 0.49875 0.35844 0.338 0.0
H1467 H 0.46619 0.34634 0.29972 0.0
H1468 H 0.51734 0.42873 0.08028 0.0
H1469 H 0.48549 0.41585 0.04093 0.0
H1470 H 0.55463 0.41162 0.12193 0.0
H1471 H 0.56567 0.40297 0.20349 0.0
loop_
_geom_bond_atom_site_label_1
_geom_bond_atom_site_label_2
_geom_bond_distance
_geom_bond_site_symmetry_2
_ccdc_geom_bond_type
O0 Tb1 2.292 . S
O0 C3 1.255 . S
Tb1 O0 2.292 . S
Tb1 O17 2.326 . S
Tb1 O19 2.500 . S
Tb1 O20 2.473 . S
Tb1 O23 2.324 . S
Eu2 O6 2.292 1_554 S
Eu2 C7 2.852 . S
Eu2 O18 2.324 . S
Eu2 O22 2.326 . S
Eu2 O24 2.500 . S
Eu2 O25 2.473 . S
C3 O0 1.255 . S
C3 O4 1.247 . S
O4 C3 1.247 . S
C5 O17 1.242 . S
C5 O18 1.258 . S
O6 Eu2 2.292 1_556 S
O6 C8 1.255 . S
C7 Eu2 2.852 . S
C7 C11 1.503 . S
C7 O24 1.273 . S
C7 O25 1.257 . S
C8 O6 1.255 . S
C8 O9 1.247 . S
O9 C8 1.247 . S
C10 O22 1.242 1_556 S
C10 O23 1.258 1_556 S
C11 C7 1.503 . S
C11 C12 1.379 . S
C11 C16 1.392 . S
C12 C11 1.379 . S
C12 C13 1.404 . S
C12 H26 0.929 . S
C13 C12 1.404 . S
C13 C14 1.389 . S
C14 C13 1.389 . S
C14 C15 1.399 . S
C14 H27 0.931 . S
C15 C14 1.399 . S
C15 C16 1.390 . S
C16 C11 1.392 . S
C16 C15 1.390 . S
C16 H28 0.921 1_554 S
O17 Tb1 2.326 . S
O17 C5 1.242 . S
O18 Eu2 2.324 . S
O18 C5 1.258 . S
O19 Tb1 2.500 . S
O19 C21 1.273 . S
O20 Tb1 2.473 . S
O20 C21 1.257 . S
C21 O19 1.273 . S
C21 O20 1.257 . S
O22 Eu2 2.326 . S
O22 C10 1.242 1_554 S
O23 Tb1 2.324 . S
O23 C10 1.258 1_554 S
O24 Eu2 2.500 . S
O24 C7 1.273 . S
O25 Eu2 2.473 . S
O25 C7 1.257 . S
H26 C12 0.929 . S
H27 C14 0.931 . S
H28 C16 0.921 1_556 S
O29 Tb30 2.292 . S
O29 C32 1.255 . S
Tb30 O29 2.292 . S
Tb30 O46 2.326 . S
Tb30 O48 2.500 . S
Tb30 O49 2.473 . S
Tb30 O52 2.324 . S
Eu31 O35 2.292 . S
Eu31 C36 2.852 . S
Eu31 O47 2.324 . S
Eu31 O51 2.326 . S
Eu31 O53 2.500 . S
Eu31 O54 2.473 . S
C32 O29 1.255 . S
C32 O33 1.247 . S
O33 C32 1.247 . S
C34 O46 1.242 . S
C34 O47 1.258 . S
O35 Eu31 2.292 . S
O35 C37 1.255 . S
C36 Eu31 2.852 . S
C36 C40 1.503 . S
C36 O53 1.273 . S
C36 O54 1.257 . S
C37 O35 1.255 . S
C37 O38 1.247 . S
O38 C37 1.247 . S
C39 O51 1.242 . S
C39 O52 1.258 . S
C40 C36 1.503 . S
C40 C41 1.379 . S
C40 C45 1.392 . S
C41 C40 1.379 . S
C41 C42 1.404 . S
C41 H55 0.929 . S
C42 C41 1.404 . S
C42 C43 1.389 . S
C43 C42 1.389 . S
C43 C44 1.399 . S
C43 H56 0.931 . S
C44 C43 1.399 . S
C44 C45 1.390 . S
C45 C40 1.392 . S
C45 C44 1.390 . S
C45 H57 0.929 . S
O46 Tb30 2.326 . S
O46 C34 1.242 . S
O47 Eu31 2.324 . S
O47 C34 1.258 . S
O48 Tb30 2.500 . S
O48 C50 1.273 . S
O49 Tb30 2.473 . S
O49 C50 1.257 . S
C50 O48 1.273 . S
C50 O49 1.257 . S
O51 Eu31 2.326 . S
O51 C39 1.242 . S
O52 Tb30 2.324 . S
O52 C39 1.258 . S
O53 Eu31 2.500 . S
O53 C36 1.273 . S
O54 Eu31 2.473 . S
O54 C36 1.257 . S
H55 C41 0.929 . S
H56 C43 0.931 . S
H57 C45 0.929 . S
O58 Tb59 2.292 . S
O58 C61 1.255 . S
Tb59 O58 2.292 . S
Tb59 O75 2.326 . S
Tb59 O77 2.500 . S
Tb59 O78 2.473 . S
Tb59 O81 2.324 . S
Eu60 O64 2.292 . S
Eu60 C65 2.852 . S
Eu60 O76 2.324 . S
Eu60 O80 2.326 . S
Eu60 O82 2.500 . S
Eu60 O83 2.473 . S
C61 O58 1.255 . S
C61 O62 1.247 . S
O62 C61 1.247 . S
C63 O75 1.242 . S
C63 O76 1.258 . S
O64 Eu60 2.292 . S
O64 C66 1.255 . S
C65 Eu60 2.852 . S
C65 C69 1.503 . S
C65 O82 1.273 . S
C65 O83 1.257 . S
C66 O64 1.255 . S
C66 O67 1.247 . S
O67 C66 1.247 . S
C68 O80 1.242 . S
C68 O81 1.258 . S
C69 C65 1.503 . S
C69 C70 1.379 . S
C69 C74 1.392 . S
C70 C69 1.379 . S
C70 C71 1.404 . S
C70 H84 0.929 . S
C71 C70 1.404 . S
C71 C72 1.389 . S
C72 C71 1.389 . S
C72 C73 1.399 . S
C72 H85 0.931 . S
C73 C72 1.399 . S
C73 C74 1.390 . S
C74 C69 1.392 . S
C74 C73 1.390 . S
C74 H86 0.929 . S
O75 Tb59 2.326 . S
O75 C63 1.242 . S
O76 Eu60 2.324 . S
O76 C63 1.258 . S
O77 Tb59 2.500 . S
O77 C79 1.273 . S
O78 Tb59 2.473 . S
O78 C79 1.257 . S
C79 O77 1.273 . S
C79 O78 1.257 . S
O80 Eu60 2.326 . S
O80 C68 1.242 . S
O81 Tb59 2.324 . S
O81 C68 1.258 . S
O82 Eu60 2.500 . S
O82 C65 1.273 . S
O83 Eu60 2.473 . S
O83 C65 1.257 . S
H84 C70 0.929 . S
H85 C72 0.931 . S
H86 C74 0.929 . S
O87 Tb88 2.292 . S
O87 C90 1.255 . S
Tb88 O87 2.292 . S
Tb88 O104 2.326 . S
Tb88 O106 2.500 . S
Tb88 O107 2.473 . S
Tb88 O110 2.324 . S
Eu89 O93 2.292 1_556 S
Eu89 C94 2.852 . S
Eu89 O105 2.324 . S
Eu89 O109 2.326 . S
Eu89 O111 2.500 . S
Eu89 O112 2.473 . S
C90 O87 1.255 . S
C90 O91 1.247 . S
O91 C90 1.247 . S
C92 O104 1.242 . S
C92 O105 1.258 . S
O93 Eu89 2.292 1_554 S
O93 C95 1.255 . S
C94 Eu89 2.852 . S
C94 C98 1.503 . S
C94 O111 1.273 . S
C94 O112 1.257 . S
C95 O93 1.255 . S
C95 O96 1.247 . S
O96 C95 1.247 . S
C97 O109 1.242 . S
C97 O110 1.258 . S
C98 C94 1.503 . S
C98 C99 1.379 . S
C98 C103 1.392 . S
C99 C98 1.379 . S
C99 C100 1.404 . S
C99 H113 0.929 . S
C100 C99 1.404 . S
C100 C101 1.389 . S
C101 C100 1.389 . S
C101 C102 1.399 . S
C101 H114 0.931 . S
C102 C101 1.399 . S
C102 C103 1.390 . S
C103 C98 1.392 . S
C103 C102 1.390 . S
C103 H115 0.929 1_556 S
O104 Tb88 2.326 . S
O104 C92 1.242 . S
O105 Eu89 2.324 . S
O105 C92 1.258 . S
O106 Tb88 2.500 . S
O106 C108 1.273 . S
O107 Tb88 2.473 . S
O107 C108 1.257 . S
C108 O106 1.273 . S
C108 O107 1.257 . S
O109 Eu89 2.326 . S
O109 C97 1.242 . S
O110 Tb88 2.324 . S
O110 C97 1.258 . S
O111 Eu89 2.500 . S
O111 C94 1.273 . S
O112 Eu89 2.473 . S
O112 C94 1.257 . S
H113 C99 0.929 . S
H114 C101 0.931 . S
H115 C103 0.929 1_554 S
O116 Tb117 2.292 . S
O116 C119 1.255 . S
Tb117 O116 2.292 . S
Tb117 O133 2.326 . S
Tb117 O135 2.499 1_455 S
Tb117 O136 2.473 . S
Tb117 O139 2.324 . S
Eu118 O122 2.292 . S
Eu118 C123 2.852 . S
Eu118 O134 2.324 . S
Eu118 O138 2.326 . S
Eu118 O140 2.500 . S
Eu118 O141 2.473 . S
C119 O116 1.255 . S
C119 O120 1.247 . S
O120 C119 1.247 . S
C121 O133 1.242 . S
C121 O134 1.258 . S
O122 Eu118 2.292 . S
O122 C124 1.255 . S
C123 Eu118 2.852 . S
C123 C127 1.503 . S
C123 O140 1.273 . S
C123 O141 1.257 . S
C124 O122 1.255 . S
C124 O125 1.247 . S
O125 C124 1.247 . S
C126 O138 1.242 . S
C126 O139 1.258 . S
C127 C123 1.503 . S
C127 C128 1.379 . S
C127 C132 1.392 . S
C128 C127 1.379 . S
C128 C129 1.404 . S
C128 H142 0.929 . S
C129 C128 1.404 . S
C129 C130 1.389 . S
C130 C129 1.389 . S
C130 C131 1.399 . S
C130 H143 0.931 . S
C131 C130 1.399 . S
C131 C132 1.390 . S
C132 C127 1.392 . S
C132 C131 1.390 . S
C132 H144 0.929 . S
O133 Tb117 2.326 . S
O133 C121 1.242 . S
O134 Eu118 2.324 . S
O134 C121 1.258 . S
O135 Tb117 2.499 1_655 S
O135 C137 1.272 1_655 S
O136 Tb117 2.473 . S
O136 C137 1.257 . S
C137 O135 1.272 1_455 S
C137 O136 1.257 . S
O138 Eu118 2.326 . S
O138 C126 1.242 . S
O139 Tb117 2.324 . S
O139 C126 1.258 . S
O140 Eu118 2.500 . S
O140 C123 1.273 . S
O141 Eu118 2.473 . S
O141 C123 1.257 . S
H142 C128 0.929 . S
H143 C130 0.931 . S
H144 C132 0.929 . S
O145 Tb146 2.292 . S
O145 C148 1.255 . S
Tb146 O145 2.292 . S
Tb146 O162 2.326 . S
Tb146 O164 2.500 . S
Tb146 O165 2.473 . S
Tb146 O168 2.324 . S
Eu147 O151 2.292 . S
Eu147 C152 2.852 . S
Eu147 O163 2.324 . S
Eu147 O167 2.326 . S
Eu147 O169 2.500 . S
Eu147 O170 2.473 . S
C148 O145 1.255 . S
C148 O149 1.247 . S
O149 C148 1.247 . S
C150 O162 1.242 . S
C150 O163 1.258 . S
O151 Eu147 2.292 . S
O151 C153 1.255 . S
C152 Eu147 2.852 . S
C152 C156 1.503 . S
C152 O169 1.273 . S
C152 O170 1.257 . S
C153 O151 1.255 . S
C153 O154 1.247 . S
O154 C153 1.247 . S
C155 O167 1.242 . S
C155 O168 1.258 . S
C156 C152 1.503 . S
C156 C157 1.379 . S
C156 C161 1.392 . S
C157 C156 1.379 . S
C157 C158 1.404 . S
C157 H171 0.929 . S
C158 C157 1.404 . S
C158 C159 1.389 . S
C159 C158 1.389 . S
C159 C160 1.399 . S
C159 H172 0.931 . S
C160 C159 1.399 . S
C160 C161 1.390 . S
C161 C156 1.392 . S
C161 C160 1.390 . S
C161 H173 0.929 . S
O162 Tb146 2.326 . S
O162 C150 1.242 . S
O163 Eu147 2.324 . S
O163 C150 1.258 . S
O164 Tb146 2.500 . S
O164 C166 1.273 . S
O165 Tb146 2.473 . S
O165 C166 1.257 . S
C166 O164 1.273 . S
C166 O165 1.257 . S
O167 Eu147 2.326 . S
O167 C155 1.242 . S
O168 Tb146 2.324 . S
O168 C155 1.258 . S
O169 Eu147 2.500 . S
O169 C152 1.273 . S
O170 Eu147 2.473 . S
O170 C152 1.257 . S
H171 C157 0.929 . S
H172 C159 0.931 . S
H173 C161 0.929 . S
O174 Tb175 2.292 1_554 S
O174 C177 1.255 . S
Tb175 O174 2.292 1_556 S
Tb175 O191 2.326 . S
Tb175 O193 2.500 . S
Tb175 O194 2.473 . S
Tb175 O197 2.324 . S
Eu176 O180 2.292 . S
Eu176 C181 2.852 . S
Eu176 O192 2.324 . S
Eu176 O196 2.326 . S
Eu176 O198 2.500 . S
Eu176 O199 2.473 . S
C177 O174 1.255 . S
C177 O178 1.247 . S
O178 C177 1.247 . S
C179 O191 1.242 1_554 S
C179 O192 1.258 1_554 S
O180 Eu176 2.292 . S
O180 C182 1.255 . S
C181 Eu176 2.852 . S
C181 C185 1.503 . S
C181 O198 1.273 . S
C181 O199 1.257 . S
C182 O180 1.255 . S
C182 O183 1.247 . S
O183 C182 1.247 . S
C184 O196 1.242 . S
C184 O197 1.258 . S
C185 C181 1.503 . S
C185 C186 1.379 . S
C185 C190 1.392 . S
C186 C185 1.379 . S
C186 C187 1.404 . S
C186 H200 0.929 . S
C187 C186 1.404 . S
C187 C188 1.389 . S
C188 C187 1.389 . S
C188 C189 1.399 . S
C188 H201 0.931 . S
C189 C188 1.399 . S
C189 C190 1.390 . S
C190 C185 1.392 . S
C190 C189 1.390 . S
C190 H202 0.929 . S
O191 Tb175 2.326 . S
O191 C179 1.242 1_556 S
O192 Eu176 2.324 . S
O192 C179 1.258 1_556 S
O193 Tb175 2.500 . S
O193 C195 1.273 . S
O194 Tb175 2.473 . S
O194 C195 1.257 . S
C195 O193 1.273 . S
C195 O194 1.257 . S
O196 Eu176 2.326 . S
O196 C184 1.242 . S
O197 Tb175 2.324 . S
O197 C184 1.258 . S
O198 Eu176 2.500 . S
O198 C181 1.273 . S
O199 Eu176 2.473 . S
O199 C181 1.257 . S
H200 C186 0.929 . S
H201 C188 0.931 . S
H202 C190 0.929 . S
O203 Tb204 2.292 1_556 S
O203 C206 1.255 . S
Tb204 O203 2.292 1_554 S
Tb204 O220 2.326 . S
Tb204 O222 2.500 . S
Tb204 O223 2.473 . S
Tb204 O226 2.324 . S
Eu205 O209 2.292 . S
Eu205 C210 2.852 . S
Eu205 O221 2.324 . S
Eu205 O225 2.326 . S
Eu205 O227 2.500 . S
Eu205 O228 2.473 . S
C206 O203 1.255 . S
C206 O207 1.247 . S
O207 C206 1.247 . S
C208 O220 1.242 1_556 S
C208 O221 1.258 1_556 S
O209 Eu205 2.292 . S
O209 C211 1.255 . S
C210 Eu205 2.852 . S
C210 C214 1.503 . S
C210 O227 1.273 . S
C210 O228 1.257 . S
C211 O209 1.255 . S
C211 O212 1.247 . S
O212 C211 1.247 . S
C213 O225 1.242 . S
C213 O226 1.258 . S
C214 C210 1.503 . S
C214 C215 1.379 . S
C214 C219 1.392 . S
C215 C214 1.379 . S
C215 C216 1.404 . S
C215 H229 0.929 . S
C216 C215 1.404 . S
C216 C217 1.389 . S
C217 C216 1.389 . S
C217 C218 1.399 . S
C217 H230 0.931 . S
C218 C217 1.399 . S
C218 C219 1.390 . S
C219 C214 1.392 . S
C219 C218 1.390 . S
C219 H231 0.929 . S
O220 Tb204 2.326 . S
O220 C208 1.242 1_554 S
O221 Eu205 2.324 . S
O221 C208 1.258 1_554 S
O222 Tb204 2.500 . S
O222 C224 1.273 . S
O223 Tb204 2.473 . S
O223 C224 1.257 . S
C224 O222 1.273 . S
C224 O223 1.257 . S
O225 Eu205 2.326 . S
O225 C213 1.242 . S
O226 Tb204 2.324 . S
O226 C213 1.258 . S
O227 Eu205 2.500 . S
O227 C210 1.273 . S
O228 Eu205 2.473 . S
O228 C210 1.257 . S
H229 C215 0.929 . S
H230 C217 0.931 . S
H231 C219 0.929 . S
O232 Tb233 2.292 . S
O232 C235 1.255 . S
Tb233 O232 2.292 . S
Tb233 O249 2.326 . S
Tb233 O251 2.500 1_655 S
Tb233 O252 2.473 . S
Tb233 O255 2.324 . S
Eu234 O238 2.292 1_556 S
Eu234 C239 2.852 . S
Eu234 O250 2.324 . S
Eu234 O254 2.326 . S
Eu234 O256 2.500 . S
Eu234 O257 2.473 . S
C235 O232 1.255 . S
C235 O236 1.247 . S
O236 C235 1.247 . S
C237 O249 1.242 . S
C237 O250 1.258 . S
O238 Eu234 2.292 1_554 S
O238 C240 1.255 . S
C239 Eu234 2.852 . S
C239 C243 1.503 . S
C239 O256 1.273 . S
C239 O257 1.257 . S
C240 O238 1.255 . S
C240 O241 1.247 . S
O241 C240 1.247 . S
C242 O254 1.242 . S
C242 O255 1.258 . S
C243 C239 1.503 . S
C243 C244 1.379 . S
C243 C248 1.392 . S
C244 C243 1.379 . S
C244 C245 1.404 . S
C244 H258 0.929 . S
C245 C244 1.404 . S
C245 C246 1.389 . S
C246 C245 1.389 . S
C246 C247 1.399 . S
C246 H259 0.931 . S
C247 C246 1.399 . S
C247 C248 1.390 . S
C248 C243 1.392 . S
C248 C247 1.390 . S
C248 H260 0.929 . S
O249 Tb233 2.326 . S
O249 C237 1.242 . S
O250 Eu234 2.324 . S
O250 C237 1.258 . S
O251 Tb233 2.500 1_455 S
O251 C253 1.273 1_455 S
O252 Tb233 2.473 . S
O252 C253 1.257 . S
C253 O251 1.273 1_655 S
C253 O252 1.257 . S
O254 Eu234 2.326 . S
O254 C242 1.242 . S
O255 Tb233 2.324 . S
O255 C242 1.258 . S
O256 Eu234 2.500 . S
O256 C239 1.273 . S
O257 Eu234 2.473 . S
O257 C239 1.257 . S
H258 C244 0.929 . S
H259 C246 0.931 . S
H260 C248 0.929 . S
O261 Tb262 2.292 . S
O261 C264 1.255 . S
Tb262 O261 2.292 . S
Tb262 O278 2.326 . S
Tb262 O280 2.500 . S
Tb262 O281 2.473 . S
Tb262 O284 2.324 . S
Eu263 O267 2.292 . S
Eu263 C268 2.852 . S
Eu263 O279 2.324 . S
Eu263 O283 2.326 . S
Eu263 O285 2.500 . S
Eu263 O286 2.473 . S
C264 O261 1.255 . S
C264 O265 1.247 . S
O265 C264 1.247 . S
C266 O278 1.242 . S
C266 O279 1.258 . S
O267 Eu263 2.292 . S
O267 C269 1.255 . S
C268 Eu263 2.852 . S
C268 C272 1.503 . S
C268 O285 1.273 . S
C268 O286 1.257 . S
C269 O267 1.255 . S
C269 O270 1.247 . S
O270 C269 1.247 . S
C271 O283 1.242 . S
C271 O284 1.258 . S
C272 C268 1.503 . S
C272 C273 1.379 . S
C272 C277 1.392 . S
C273 C272 1.379 . S
C273 C274 1.404 . S
C273 H287 0.929 . S
C274 C273 1.404 . S
C274 C275 1.389 . S
C275 C274 1.389 . S
C275 C276 1.399 . S
C275 H288 0.931 . S
C276 C275 1.399 . S
C276 C277 1.390 . S
C277 C272 1.392 . S
C277 C276 1.390 . S
C277 H289 0.929 . S
O278 Tb262 2.326 . S
O278 C266 1.242 . S
O279 Eu263 2.324 . S
O279 C266 1.258 . S
O280 Tb262 2.500 . S
O280 C282 1.273 . S
O281 Tb262 2.473 . S
O281 C282 1.257 . S
C282 O280 1.273 . S
C282 O281 1.257 . S
O283 Eu263 2.326 . S
O283 C271 1.242 . S
O284 Tb262 2.324 . S
O284 C271 1.258 . S
O285 Eu263 2.500 . S
O285 C268 1.273 . S
O286 Eu263 2.473 . S
O286 C268 1.257 . S
H287 C273 0.929 . S
H288 C275 0.931 . S
H289 C277 0.929 . S
O290 Tb291 2.292 . S
O290 C293 1.255 . S
Tb291 O290 2.292 . S
Tb291 O307 2.326 . S
Tb291 O309 2.500 . S
Tb291 O310 2.473 . S
Tb291 O313 2.324 . S
Eu292 O296 2.292 . S
Eu292 C297 2.852 . S
Eu292 O308 2.324 . S
Eu292 O312 2.326 . S
Eu292 O314 2.500 . S
Eu292 O315 2.473 . S
C293 O290 1.255 . S
C293 O294 1.247 . S
O294 C293 1.247 . S
C295 O307 1.242 . S
C295 O308 1.258 . S
O296 Eu292 2.292 . S
O296 C298 1.255 . S
C297 Eu292 2.852 . S
C297 C301 1.503 . S
C297 O314 1.273 . S
C297 O315 1.257 . S
C298 O296 1.255 . S
C298 O299 1.247 . S
O299 C298 1.247 . S
C300 O312 1.242 . S
C300 O313 1.258 . S
C301 C297 1.503 . S
C301 C302 1.379 . S
C301 C306 1.392 . S
C302 C301 1.379 . S
C302 C303 1.404 . S
C302 H316 0.929 . S
C303 C302 1.404 . S
C303 C304 1.389 . S
C304 C303 1.389 . S
C304 C305 1.399 . S
C304 H317 0.931 . S
C305 C304 1.399 . S
C305 C306 1.390 . S
C306 C301 1.392 . S
C306 C305 1.390 . S
C306 H318 0.929 . S
O307 Tb291 2.326 . S
O307 C295 1.242 . S
O308 Eu292 2.324 . S
O308 C295 1.258 . S
O309 Tb291 2.500 . S
O309 C311 1.273 . S
O310 Tb291 2.473 . S
O310 C311 1.257 . S
C311 O309 1.273 . S
C311 O310 1.257 . S
O312 Eu292 2.326 . S
O312 C300 1.242 . S
O313 Tb291 2.324 . S
O313 C300 1.258 . S
O314 Eu292 2.500 . S
O314 C297 1.273 . S
O315 Eu292 2.473 . S
O315 C297 1.257 . S
H316 C302 0.929 . S
H317 C304 0.931 . S
H318 C306 0.929 . S
O319 Tb320 2.292 1_556 S
O319 C322 1.255 . S
Tb320 O319 2.292 1_554 S
Tb320 O336 2.326 . S
Tb320 O338 2.500 . S
Tb320 O339 2.473 . S
Tb320 O342 2.324 . S
Eu321 O325 2.292 . S
Eu321 C326 2.852 . S
Eu321 O337 2.324 . S
Eu321 O341 2.326 . S
Eu321 O343 2.500 . S
Eu321 O344 2.473 . S
C322 O319 1.255 . S
C322 O323 1.247 . S
O323 C322 1.247 . S
C324 O336 1.242 . S
C324 O337 1.258 . S
O325 Eu321 2.292 . S
O325 C327 1.255 . S
C326 Eu321 2.852 . S
C326 C330 1.503 . S
C326 O343 1.273 . S
C326 O344 1.257 . S
C327 O325 1.255 . S
C327 O328 1.247 . S
O328 C327 1.247 . S
C329 O341 1.242 . S
C329 O342 1.258 . S
C330 C326 1.503 . S
C330 C331 1.379 . S
C330 C335 1.392 . S
C331 C330 1.379 . S
C331 C332 1.404 . S
C331 H345 0.929 . S
C332 C331 1.404 . S
C332 C333 1.389 . S
C333 C332 1.389 . S
C333 C334 1.399 . S
C333 H346 0.931 . S
C334 C333 1.399 . S
C334 C335 1.390 . S
C335 C330 1.392 . S
C335 C334 1.390 . S
C335 H347 0.929 . S
O336 Tb320 2.326 . S
O336 C324 1.242 . S
O337 Eu321 2.324 . S
O337 C324 1.258 . S
O338 Tb320 2.500 . S
O338 C340 1.273 . S
O339 Tb320 2.473 . S
O339 C340 1.257 . S
C340 O338 1.273 . S
C340 O339 1.257 . S
O341 Eu321 2.326 . S
O341 C329 1.242 . S
O342 Tb320 2.324 . S
O342 C329 1.258 . S
O343 Eu321 2.500 . S
O343 C326 1.273 . S
O344 Eu321 2.473 . S
O344 C326 1.257 . S
H345 C331 0.929 . S
H346 C333 0.931 . S
H347 C335 0.929 . S
O348 Tb349 2.292 . S
O348 C351 1.255 . S
Tb349 O348 2.292 . S
Tb349 O365 2.326 . S
Tb349 O367 2.500 . S
Tb349 O368 2.473 . S
Tb349 O371 2.324 . S
Eu350 O354 2.292 . S
Eu350 C355 2.852 . S
Eu350 O366 2.324 . S
Eu350 O370 2.326 . S
Eu350 O372 2.500 . S
Eu350 O373 2.473 . S
C351 O348 1.255 . S
C351 O352 1.247 . S
O352 C351 1.247 . S
C353 O365 1.242 . S
C353 O366 1.258 . S
O354 Eu350 2.292 . S
O354 C356 1.255 . S
C355 Eu350 2.852 . S
C355 C359 1.503 . S
C355 O372 1.273 . S
C355 O373 1.257 . S
C356 O354 1.255 . S
C356 O357 1.247 . S
O357 C356 1.247 . S
C358 O370 1.242 . S
C358 O371 1.258 . S
C359 C355 1.503 . S
C359 C360 1.379 . S
C359 C364 1.392 . S
C360 C359 1.379 . S
C360 C361 1.404 . S
C360 H374 0.929 . S
C361 C360 1.404 . S
C361 C362 1.389 . S
C362 C361 1.389 . S
C362 C363 1.399 . S
C362 H375 0.931 . S
C363 C362 1.399 . S
C363 C364 1.390 . S
C364 C359 1.392 . S
C364 C363 1.390 . S
C364 H376 0.929 . S
O365 Tb349 2.326 . S
O365 C353 1.242 . S
O366 Eu350 2.324 . S
O366 C353 1.258 . S
O367 Tb349 2.500 . S
O367 C369 1.273 . S
O368 Tb349 2.473 . S
O368 C369 1.257 . S
C369 O367 1.273 . S
C369 O368 1.257 . S
O370 Eu350 2.326 . S
O370 C358 1.242 . S
O371 Tb349 2.324 . S
O371 C358 1.258 . S
O372 Eu350 2.500 . S
O372 C355 1.273 . S
O373 Eu350 2.473 . S
O373 C355 1.257 . S
H374 C360 0.929 . S
H375 C362 0.931 . S
H376 C364 0.929 . S
O377 Tb378 2.292 . S
O377 C380 1.255 . S
Tb378 O377 2.292 . S
Tb378 O394 2.326 . S
Tb378 O396 2.500 . S
Tb378 O397 2.473 . S
Tb378 O400 2.324 . S
Eu379 O383 2.292 . S
Eu379 C384 2.852 . S
Eu379 O395 2.324 . S
Eu379 O399 2.326 . S
Eu379 O401 2.500 . S
Eu379 O402 2.473 . S
C380 O377 1.255 . S
C380 O381 1.247 . S
O381 C380 1.247 . S
C382 O394 1.242 . S
C382 O395 1.258 . S
O383 Eu379 2.292 . S
O383 C385 1.255 . S
C384 Eu379 2.852 . S
C384 C388 1.503 . S
C384 O401 1.273 . S
C384 O402 1.257 . S
C385 O383 1.255 . S
C385 O386 1.247 . S
O386 C385 1.247 . S
C387 O399 1.242 . S
C387 O400 1.258 . S
C388 C384 1.503 . S
C388 C389 1.379 . S
C388 C393 1.392 . S
C389 C388 1.379 . S
C389 C390 1.404 . S
C389 H403 0.929 . S
C390 C389 1.404 . S
C390 C391 1.389 . S
C391 C390 1.389 . S
C391 C392 1.399 . S
C391 H404 0.931 . S
C392 C391 1.399 . S
C392 C393 1.390 . S
C393 C388 1.392 . S
C393 C392 1.390 . S
C393 H405 0.929 . S
O394 Tb378 2.326 . S
O394 C382 1.242 . S
O395 Eu379 2.324 . S
O395 C382 1.258 . S
O396 Tb378 2.500 . S
O396 C398 1.273 . S
O397 Tb378 2.473 . S
O397 C398 1.257 . S
C398 O396 1.273 . S
C398 O397 1.257 . S
O399 Eu379 2.326 . S
O399 C387 1.242 . S
O400 Tb378 2.324 . S
O400 C387 1.258 . S
O401 Eu379 2.500 . S
O401 C384 1.273 . S
O402 Eu379 2.473 . S
O402 C384 1.257 . S
H403 C389 0.929 . S
H404 C391 0.931 . S
H405 C393 0.929 . S
O406 Tb407 2.292 . S
O406 C409 1.255 . S
Tb407 O406 2.292 . S
Tb407 O423 2.326 . S
Tb407 O425 2.500 . S
Tb407 O426 2.473 . S
Tb407 O429 2.324 . S
Eu408 O412 2.292 1_554 S
Eu408 C413 2.852 . S
Eu408 O424 2.324 . S
Eu408 O428 2.326 . S
Eu408 O430 2.500 . S
Eu408 O431 2.473 . S
C409 O406 1.255 . S
C409 O410 1.247 . S
O410 C409 1.247 . S
C411 O423 1.242 . S
C411 O424 1.258 . S
O412 Eu408 2.292 1_556 S
O412 C414 1.255 . S
C413 Eu408 2.852 . S
C413 C417 1.503 . S
C413 O430 1.273 . S
C413 O431 1.257 . S
C414 O412 1.255 . S
C414 O415 1.247 . S
O415 C414 1.247 . S
C416 O428 1.242 . S
C416 O429 1.258 . S
C417 C413 1.503 . S
C417 C418 1.379 . S
C417 C422 1.392 . S
C418 C417 1.379 . S
C418 C419 1.404 . S
C418 H432 0.929 . S
C419 C418 1.404 . S
C419 C420 1.389 . S
C420 C419 1.389 . S
C420 C421 1.399 . S
C420 H433 0.931 . S
C421 C420 1.399 . S
C421 C422 1.390 . S
C422 C417 1.392 . S
C422 C421 1.390 . S
C422 H434 0.929 1_554 S
O423 Tb407 2.326 . S
O423 C411 1.242 . S
O424 Eu408 2.324 . S
O424 C411 1.258 . S
O425 Tb407 2.500 . S
O425 C427 1.273 . S
O426 Tb407 2.473 . S
O426 C427 1.257 . S
C427 O425 1.273 . S
C427 O426 1.257 . S
O428 Eu408 2.326 . S
O428 C416 1.242 . S
O429 Tb407 2.324 . S
O429 C416 1.258 . S
O430 Eu408 2.500 . S
O430 C413 1.273 . S
O431 Eu408 2.473 . S
O431 C413 1.257 . S
H432 C418 0.929 . S
H433 C420 0.931 . S
H434 C422 0.929 1_556 S
O435 Tb436 2.292 1_554 S
O435 C438 1.255 . S
Tb436 O435 2.292 1_556 S
Tb436 O452 2.326 . S
Tb436 O454 2.500 . S
Tb436 O455 2.473 . S
Tb436 O458 2.324 . S
Eu437 O441 2.292 . S
Eu437 C442 2.852 . S
Eu437 O453 2.324 . S
Eu437 O457 2.326 . S
Eu437 O459 2.500 . S
Eu437 O460 2.473 . S
C438 O435 1.255 . S
C438 O439 1.247 . S
O439 C438 1.247 . S
C440 O452 1.242 1_554 S
C440 O453 1.258 1_554 S
O441 Eu437 2.292 . S
O441 C443 1.255 . S
C442 Eu437 2.852 . S
C442 C446 1.503 . S
C442 O459 1.273 . S
C442 O460 1.257 . S
C443 O441 1.255 . S
C443 O444 1.247 . S
O444 C443 1.247 . S
C445 O457 1.242 . S
C445 O458 1.258 . S
C446 C442 1.503 . S
C446 C447 1.379 . S
C446 C451 1.392 . S
C447 C446 1.379 . S
C447 C448 1.404 . S
C447 H461 0.929 . S
C448 C447 1.404 . S
C448 C449 1.389 . S
C449 C448 1.389 . S
C449 C450 1.399 . S
C449 H462 0.931 . S
C450 C449 1.399 . S
C450 C451 1.390 . S
C451 C446 1.392 . S
C451 C450 1.390 . S
C451 H463 0.929 . S
O452 Tb436 2.326 . S
O452 C440 1.242 1_556 S
O453 Eu437 2.324 . S
O453 C440 1.258 1_556 S
O454 Tb436 2.500 . S
O454 C456 1.273 . S
O455 Tb436 2.473 . S
O455 C456 1.257 . S
C456 O454 1.273 . S
C456 O455 1.257 . S
O457 Eu437 2.326 . S
O457 C445 1.242 . S
O458 Tb436 2.324 . S
O458 C445 1.258 . S
O459 Eu437 2.500 . S
O459 C442 1.273 . S
O460 Eu437 2.473 . S
O460 C442 1.257 . S
H461 C447 0.929 . S
H462 C449 0.931 . S
H463 C451 0.929 . S
C464 C465 1.363 . S
C464 C470 1.379 . S
C464 N472 1.356 . S
C465 C464 1.363 . S
C465 C471 1.363 . S
C466 C467 1.363 . S
C466 C471 1.379 1_455 S
C466 N473 1.356 . S
C467 C466 1.363 . S
C467 C470 1.363 1_455 S
N468 C470 1.356 1_455 S
N468 H480 0.984 1_455 S
N468 H481 0.985 . S
N469 C471 1.356 1_556 S
N469 H474 0.984 . S
N469 H475 0.985 . S
C470 C464 1.379 . S
C470 C467 1.363 1_655 S
C470 N468 1.356 1_655 S
C471 C465 1.363 . S
C471 C466 1.379 1_655 S
C471 N469 1.356 1_554 S
N472 C464 1.356 . S
N472 H478 0.984 . S
N472 H479 0.984 . S
N473 C466 1.356 . S
N473 H476 0.984 . S
N473 H477 0.985 . S
H474 N469 0.984 . S
H475 N469 0.985 . S
H476 N473 0.984 . S
H477 N473 0.985 . S
H478 N472 0.984 . S
H479 N472 0.984 . S
H480 N468 0.984 1_655 S
H481 N468 0.985 . S
C482 C483 1.363 1_655 S
C482 C488 1.379 . S
C482 N490 1.356 . S
C483 C482 1.363 1_455 S
C483 C489 1.363 . S
C484 C485 1.363 . S
C484 C489 1.379 1_655 S
C484 N491 1.356 . S
C485 C484 1.363 . S
C485 C488 1.363 . S
N486 C488 1.356 . S
N486 H498 0.984 . S
N486 H499 0.985 . S
N487 C489 1.356 . S
N487 H492 0.984 . S
N487 H493 0.985 . S
C488 C482 1.379 . S
C488 C485 1.363 . S
C488 N486 1.356 . S
C489 C483 1.363 . S
C489 C484 1.379 1_455 S
C489 N487 1.356 . S
N490 C482 1.356 . S
N490 H496 0.984 . S
N490 H497 0.984 1_655 S
N491 C484 1.356 . S
N491 H494 0.984 . S
N491 H495 0.985 1_655 S
H492 N487 0.984 . S
H493 N487 0.985 . S
H494 N491 0.984 . S
H495 N491 0.985 1_455 S
H496 N490 0.984 . S
H497 N490 0.984 1_455 S
H498 N486 0.984 . S
H499 N486 0.985 . S
C500 C501 1.363 . S
C500 C506 1.379 . S
C500 N508 1.356 . S
C501 C500 1.363 . S
C501 C507 1.363 . S
C502 C503 1.363 . S
C502 C507 1.379 . S
C502 N509 1.356 . S
C503 C502 1.363 . S
C503 C506 1.363 . S
N504 C506 1.356 . S
N504 H516 0.984 . S
N504 H517 0.985 . S
N505 C507 1.356 . S
N505 H510 0.984 . S
N505 H511 0.985 . S
C506 C500 1.379 . S
C506 C503 1.363 . S
C506 N504 1.356 . S
C507 C501 1.363 . S
C507 C502 1.379 . S
C507 N505 1.356 . S
N508 C500 1.356 . S
N508 H514 0.984 . S
N508 H515 0.984 . S
N509 C502 1.356 . S
N509 H512 0.984 . S
N509 H513 0.985 . S
H510 N505 0.984 . S
H511 N505 0.985 . S
H512 N509 0.984 . S
H513 N509 0.985 . S
H514 N508 0.984 . S
H515 N508 0.984 . S
H516 N504 0.984 . S
H517 N504 0.985 . S
C518 C519 1.363 . S
C518 C524 1.379 . S
C518 N526 1.356 . S
C519 C518 1.363 . S
C519 C525 1.363 . S
C520 C521 1.363 . S
C520 C525 1.379 . S
C520 N527 1.356 . S
C521 C520 1.363 . S
C521 C524 1.363 . S
N522 C524 1.356 . S
N522 H534 0.984 . S
N522 H535 0.985 . S
N523 C525 1.356 1_554 S
N523 H528 0.984 . S
N523 H529 0.985 . S
C524 C518 1.379 . S
C524 C521 1.363 . S
C524 N522 1.356 . S
C525 C519 1.363 . S
C525 C520 1.379 . S
C525 N523 1.356 1_556 S
N526 C518 1.356 . S
N526 H532 0.984 . S
N526 H533 0.984 . S
N527 C520 1.356 . S
N527 H530 0.984 . S
N527 H531 0.985 . S
H528 N523 0.984 . S
H529 N523 0.985 . S
H530 N527 0.984 . S
H531 N527 0.985 . S
H532 N526 0.984 . S
H533 N526 0.984 . S
H534 N522 0.984 . S
H535 N522 0.985 . S
C536 C537 1.363 1_455 S
C536 C542 1.379 . S
C536 N544 1.356 . S
C537 C536 1.363 1_655 S
C537 C543 1.363 . S
C538 C539 1.363 . S
C538 C543 1.379 1_455 S
C538 N545 1.356 1_556 S
C539 C538 1.363 . S
C539 C542 1.363 . S
N540 C542 1.356 . S
N540 H552 0.984 . S
N540 H553 0.985 . S
N541 C543 1.356 . S
N541 H546 0.984 . S
N541 H547 0.985 . S
C542 C536 1.379 . S
C542 C539 1.363 . S
C542 N540 1.356 . S
C543 C537 1.363 . S
C543 C538 1.379 1_655 S
C543 N541 1.356 . S
N544 C536 1.356 . S
N544 H550 0.984 . S
N544 H551 0.984 . S
N545 C538 1.356 1_554 S
N545 H548 0.984 . S
N545 H549 0.985 1_455 S
H546 N541 0.984 . S
H547 N541 0.985 . S
H548 N545 0.984 . S
H549 N545 0.985 1_655 S
H550 N544 0.984 . S
H551 N544 0.984 . S
H552 N540 0.984 . S
H553 N540 0.985 . S
C554 C555 1.363 . S
C554 C560 1.379 1_455 S
C554 N562 1.356 . S
C555 C554 1.363 . S
C555 C561 1.363 . S
C556 C557 1.363 . S
C556 C561 1.379 1_655 S
C556 N563 1.356 . S
C557 C556 1.363 . S
C557 C560 1.363 . S
N558 C560 1.356 . S
N558 H570 0.984 . S
N558 H571 0.985 . S
N559 C561 1.356 . S
N559 H564 0.984 . S
N559 H565 0.985 . S
C560 C554 1.379 1_655 S
C560 C557 1.363 . S
C560 N558 1.356 . S
C561 C555 1.363 . S
C561 C556 1.379 1_455 S
C561 N559 1.356 . S
N562 C554 1.356 . S
N562 H568 0.984 . S
N562 H569 0.984 . S
N563 C556 1.356 . S
N563 H566 0.984 . S
N563 H567 0.985 . S
H564 N559 0.984 . S
H565 N559 0.985 . S
H566 N563 0.984 . S
H567 N563 0.985 . S
H568 N562 0.984 . S
H569 N562 0.984 . S
H570 N558 0.984 . S
H571 N558 0.985 . S
C572 C573 1.363 . S
C572 C578 1.379 . S
C572 N580 1.356 . S
C573 C572 1.363 . S
C573 C579 1.363 . S
C574 C575 1.363 . S
C574 C579 1.379 . S
C574 N581 1.356 . S
C575 C574 1.363 . S
C575 C578 1.363 . S
N576 C578 1.356 . S
N576 H588 0.984 . S
N576 H589 0.985 . S
N577 C579 1.356 . S
N577 H582 0.984 . S
N577 H583 0.985 . S
C578 C572 1.379 . S
C578 C575 1.363 . S
C578 N576 1.356 . S
C579 C573 1.363 . S
C579 C574 1.379 . S
C579 N577 1.356 . S
N580 C572 1.356 . S
N580 H586 0.984 . S
N580 H587 0.984 . S
N581 C574 1.356 . S
N581 H584 0.984 . S
N581 H585 0.985 . S
H582 N577 0.984 . S
H583 N577 0.985 . S
H584 N581 0.984 . S
H585 N581 0.985 . S
H586 N580 0.984 . S
H587 N580 0.984 . S
H588 N576 0.984 . S
H589 N576 0.985 . S
C590 C591 1.363 . S
C590 C596 1.379 . S
C590 N598 1.356 . S
C591 C590 1.363 . S
C591 C597 1.363 . S
C592 C593 1.363 . S
C592 C597 1.379 . S
C592 N599 1.356 . S
C593 C592 1.363 . S
C593 C596 1.363 . S
N594 C596 1.356 1_556 S
N594 H606 0.984 . S
N594 H607 0.985 . S
N595 C597 1.356 . S
N595 H600 0.984 . S
N595 H601 0.985 . S
C596 C590 1.379 . S
C596 C593 1.363 . S
C596 N594 1.356 1_554 S
C597 C591 1.363 . S
C597 C592 1.379 . S
C597 N595 1.356 . S
N598 C590 1.356 . S
N598 H604 0.984 . S
N598 H605 0.984 . S
N599 C592 1.356 . S
N599 H602 0.984 . S
N599 H603 0.985 . S
H600 N595 0.984 . S
H601 N595 0.985 . S
H602 N599 0.984 . S
H603 N599 0.985 . S
H604 N598 0.984 . S
H605 N598 0.984 . S
H606 N594 0.984 . S
H607 N594 0.985 . S
C608 C609 1.363 . S
C608 C614 1.379 . S
C608 N616 1.356 . S
C609 C608 1.363 . S
C609 C615 1.363 1_556 S
C610 C611 1.363 1_554 S
C610 C615 1.379 . S
C610 N617 1.356 . S
C611 C610 1.363 1_556 S
C611 C614 1.363 . S
N612 C614 1.356 . S
N612 H624 0.984 . S
N612 H625 0.985 . S
N613 C615 1.356 . S
N613 H618 0.984 . S
N613 H619 0.985 . S
C614 C608 1.379 . S
C614 C611 1.363 . S
C614 N612 1.356 . S
C615 C609 1.363 1_554 S
C615 C610 1.379 . S
C615 N613 1.356 . S
N616 C608 1.356 . S
N616 H622 0.984 . S
N616 H623 0.984 . S
N617 C610 1.356 . S
N617 H620 0.984 . S
N617 H621 0.985 . S
H618 N613 0.984 . S
H619 N613 0.985 . S
H620 N617 0.984 . S
H621 N617 0.985 . S
H622 N616 0.984 . S
H623 N616 0.984 . S
H624 N612 0.984 . S
H625 N612 0.985 . S
C626 C627 1.363 . S
C626 C632 1.379 1_565 S
C626 N634 1.356 . S
C627 C626 1.363 . S
C627 C633 1.363 . S
C628 C629 1.363 . S
C628 C633 1.379 1_545 S
C628 N635 1.356 . S
C629 C628 1.363 . S
C629 C632 1.363 . S
N630 C632 1.356 . S
N630 H642 0.984 . S
N630 H643 0.985 . S
N631 C633 1.356 . S
N631 H636 0.984 . S
N631 H637 0.985 . S
C632 C626 1.379 1_545 S
C632 C629 1.363 . S
C632 N630 1.356 . S
C633 C627 1.363 . S
C633 C628 1.379 1_565 S
C633 N631 1.356 . S
N634 C626 1.356 . S
N634 H640 0.984 . S
N634 H641 0.984 . S
N635 C628 1.356 . S
N635 H638 0.984 . S
N635 H639 0.985 . S
H636 N631 0.984 . S
H637 N631 0.985 . S
H638 N635 0.984 . S
H639 N635 0.985 . S
H640 N634 0.984 . S
H641 N634 0.984 . S
H642 N630 0.984 . S
H643 N630 0.985 . S
C644 C645 1.363 . S
C644 C650 1.379 . S
C644 N652 1.356 . S
C645 C644 1.363 . S
C645 C651 1.363 . S
C646 C647 1.363 . S
C646 C651 1.379 . S
C646 N653 1.356 . S
C647 C646 1.363 . S
C647 C650 1.363 . S
N648 C650 1.356 . S
N648 H660 0.984 . S
N648 H661 0.985 . S
N649 C651 1.356 . S
N649 H654 0.984 . S
N649 H655 0.985 . S
C650 C644 1.379 . S
C650 C647 1.363 . S
C650 N648 1.356 . S
C651 C645 1.363 . S
C651 C646 1.379 . S
C651 N649 1.356 . S
N652 C644 1.356 . S
N652 H658 0.984 . S
N652 H659 0.984 . S
N653 C646 1.356 . S
N653 H656 0.984 . S
N653 H657 0.985 . S
H654 N649 0.984 . S
H655 N649 0.985 . S
H656 N653 0.984 . S
H657 N653 0.985 . S
H658 N652 0.984 . S
H659 N652 0.984 . S
H660 N648 0.984 . S
H661 N648 0.985 . S
C662 C663 1.363 1_545 S
C662 C668 1.378 . S
C662 N670 1.356 1_545 S
C663 C662 1.363 1_565 S
C663 C669 1.363 . S
C664 C665 1.363 . S
C664 C669 1.379 1_545 S
C664 N671 1.356 . S
C665 C664 1.363 . S
C665 C668 1.363 . S
N666 C668 1.356 . S
N666 H678 0.984 . S
N666 H679 0.985 . S
N667 C669 1.356 . S
N667 H672 0.984 . S
N667 H673 0.985 . S
C668 C662 1.378 . S
C668 C665 1.363 . S
C668 N666 1.356 . S
C669 C663 1.363 . S
C669 C664 1.379 1_565 S
C669 N667 1.356 . S
N670 C662 1.356 1_565 S
N670 H676 0.995 . S
N670 H677 0.984 . S
N671 C664 1.356 . S
N671 H674 0.984 . S
N671 H675 0.985 . S
H672 N667 0.984 . S
H673 N667 0.985 . S
H674 N671 0.984 . S
H675 N671 0.985 . S
H676 N670 0.995 . S
H677 N670 0.984 . S
H678 N666 0.984 . S
H679 N666 0.985 . S
C680 C681 1.363 1_554 S
C680 C686 1.379 . S
C680 N688 1.356 . S
C681 C680 1.363 1_556 S
C681 C687 1.363 . S
C682 C683 1.363 . S
C682 C687 1.379 . S
C682 N689 1.356 . S
C683 C682 1.363 . S
C683 C686 1.363 1_556 S
N684 C686 1.356 . S
N684 H696 0.984 . S
N684 H697 0.985 . S
N685 C687 1.356 . S
N685 H690 0.984 . S
N685 H691 0.985 . S
C686 C680 1.379 . S
C686 C683 1.363 1_554 S
C686 N684 1.356 . S
C687 C681 1.363 . S
C687 C682 1.379 . S
C687 N685 1.356 . S
N688 C680 1.356 . S
N688 H694 0.984 . S
N688 H695 0.984 . S
N689 C682 1.356 . S
N689 H692 0.984 . S
N689 H693 0.985 . S
H690 N685 0.984 . S
H691 N685 0.985 . S
H692 N689 0.984 . S
H693 N689 0.985 . S
H694 N688 0.984 . S
H695 N688 0.984 . S
H696 N684 0.984 . S
H697 N684 0.985 . S
C698 C699 1.363 . S
C698 C704 1.379 1_565 S
C698 N706 1.356 . S
C699 C698 1.363 . S
C699 C705 1.363 . S
C700 C701 1.359 1_565 S
C700 C705 1.384 . S
C700 N707 1.354 1_565 S
C701 C700 1.359 1_545 S
C701 C704 1.363 . S
N702 C704 1.356 . S
N702 H714 0.984 . S
N702 H715 0.985 . S
N703 C705 1.356 . S
N703 H708 0.984 . S
N703 H709 0.985 . S
C704 C698 1.379 1_545 S
C704 C701 1.363 . S
C704 N702 1.356 . S
C705 C699 1.363 . S
C705 C700 1.384 . S
C705 N703 1.356 . S
N706 C698 1.356 . S
N706 H712 0.984 . S
N706 H713 0.984 . S
N707 C700 1.354 1_545 S
N707 H710 0.984 . S
N707 H711 0.985 1_545 S
H708 N703 0.984 . S
H709 N703 0.985 . S
H710 N707 0.984 . S
H711 N707 0.985 1_565 S
H712 N706 0.984 . S
H713 N706 0.984 . S
H714 N702 0.984 . S
H715 N702 0.985 . S
C716 C717 1.363 . S
C716 C722 1.379 . S
C716 N724 1.356 . S
C717 C716 1.363 . S
C717 C723 1.363 . S
C718 C719 1.363 . S
C718 C723 1.379 . S
C718 N725 1.356 . S
C719 C718 1.363 . S
C719 C722 1.363 . S
N720 C722 1.356 . S
N720 H732 0.984 . S
N720 H733 0.985 . S
N721 C723 1.356 . S
N721 H726 0.984 . S
N721 H727 0.985 . S
C722 C716 1.379 . S
C722 C719 1.363 . S
C722 N720 1.356 . S
C723 C717 1.363 . S
C723 C718 1.379 . S
C723 N721 1.356 . S
N724 C716 1.356 . S
N724 H730 0.984 . S
N724 H731 0.984 . S
N725 C718 1.356 . S
N725 H728 0.984 . S
N725 H729 0.985 . S
H726 N721 0.984 . S
H727 N721 0.985 . S
H728 N725 0.984 . S
H729 N725 0.985 . S
H730 N724 0.984 . S
H731 N724 0.984 . S
H732 N720 0.984 . S
H733 N720 0.985 . S
C734 C735 1.363 . S
C734 C740 1.379 1_565 S
C734 N742 1.356 . S
C735 C734 1.363 . S
C735 C741 1.363 . S
C736 C737 1.363 . S
C736 C741 1.379 1_545 S
C736 N743 1.356 . S
C737 C736 1.363 . S
C737 C740 1.363 . S
N738 C740 1.356 . S
N738 H750 0.984 . S
N738 H751 0.985 . S
N739 C741 1.356 . S
N739 H744 0.984 . S
N739 H745 0.985 . S
C740 C734 1.379 1_545 S
C740 C737 1.363 . S
C740 N738 1.356 . S
C741 C735 1.363 . S
C741 C736 1.379 1_565 S
C741 N739 1.356 . S
N742 C734 1.356 . S
N742 H748 0.984 . S
N742 H749 0.984 . S
N743 C736 1.356 . S
N743 H746 0.984 . S
N743 H747 0.985 . S
H744 N739 0.984 . S
H745 N739 0.985 . S
H746 N743 0.984 . S
H747 N743 0.985 . S
H748 N742 0.984 . S
H749 N742 0.984 . S
H750 N738 0.984 . S
H751 N738 0.985 . S
C752 C753 1.363 . S
C752 C758 1.379 . S
C752 N760 1.356 . S
C753 C752 1.363 . S
C753 C759 1.363 . S
C754 C755 1.363 . S
C754 C759 1.379 . S
C754 N761 1.356 . S
C755 C754 1.363 . S
C755 C758 1.363 . S
N756 C758 1.356 . S
N756 H768 0.984 . S
N756 H769 0.985 . S
N757 C759 1.356 . S
N757 H762 0.984 . S
N757 H763 0.985 . S
C758 C752 1.379 . S
C758 C755 1.363 . S
C758 N756 1.356 . S
C759 C753 1.363 . S
C759 C754 1.379 . S
C759 N757 1.356 . S
N760 C752 1.356 . S
N760 H766 0.984 . S
N760 H767 0.984 . S
N761 C754 1.356 . S
N761 H764 0.984 . S
N761 H765 0.985 . S
H762 N757 0.984 . S
H763 N757 0.985 . S
H764 N761 0.984 . S
H765 N761 0.985 . S
H766 N760 0.984 . S
H767 N760 0.984 . S
H768 N756 0.984 . S
H769 N756 0.985 . S
C770 C771 1.363 . S
C770 C776 1.379 . S
C770 N778 1.356 . S
C771 C770 1.363 . S
C771 C777 1.363 . S
C772 C773 1.363 . S
C772 C777 1.379 . S
C772 N779 1.356 . S
C773 C772 1.363 . S
C773 C776 1.363 . S
N774 C776 1.356 . S
N774 H786 0.984 . S
N774 H787 0.985 . S
N775 C777 1.356 . S
N775 H780 0.984 . S
N775 H781 0.985 . S
C776 C770 1.379 . S
C776 C773 1.363 . S
C776 N774 1.356 . S
C777 C771 1.363 . S
C777 C772 1.379 . S
C777 N775 1.356 . S
N778 C770 1.356 . S
N778 H784 0.984 . S
N778 H785 0.984 . S
N779 C772 1.356 . S
N779 H782 0.984 . S
N779 H783 0.985 . S
H780 N775 0.984 . S
H781 N775 0.985 . S
H782 N779 0.984 . S
H783 N779 0.985 . S
H784 N778 0.984 . S
H785 N778 0.984 . S
H786 N774 0.984 . S
H787 N774 0.985 . S
C788 C789 1.363 . S
C788 C794 1.379 . S
C788 N796 1.356 . S
C789 C788 1.363 . S
C789 C795 1.363 1_554 S
C790 C791 1.363 1_556 S
C790 C795 1.379 . S
C790 N797 1.356 . S
C791 C790 1.363 1_554 S
C791 C794 1.363 . S
N792 C794 1.356 . S
N792 H804 0.984 . S
N792 H805 0.985 . S
N793 C795 1.356 . S
N793 H798 0.984 . S
N793 H799 0.985 . S
C794 C788 1.379 . S
C794 C791 1.363 . S
C794 N792 1.356 . S
C795 C789 1.363 1_556 S
C795 C790 1.379 . S
C795 N793 1.356 . S
N796 C788 1.356 . S
N796 H802 0.984 . S
N796 H803 0.984 . S
N797 C790 1.356 . S
N797 H800 0.984 . S
N797 H801 0.985 . S
H798 N793 0.984 . S
H799 N793 0.985 . S
H800 N797 0.984 . S
H801 N797 0.985 . S
H802 N796 0.984 . S
H803 N796 0.984 . S
H804 N792 0.984 . S
H805 N792 0.985 . S
C806 C807 1.363 . S
C806 C812 1.379 . S
C806 N814 1.356 . S
C807 C806 1.363 . S
C807 C813 1.363 . S
C808 C809 1.363 . S
C808 C813 1.379 . S
C808 N815 1.356 . S
C809 C808 1.363 . S
C809 C812 1.363 . S
N810 C812 1.356 . S
N810 H822 0.984 . S
N810 H823 0.985 . S
N811 C813 1.356 . S
N811 H816 0.984 . S
N811 H817 0.985 . S
C812 C806 1.379 . S
C812 C809 1.363 . S
C812 N810 1.356 . S
C813 C807 1.363 . S
C813 C808 1.379 . S
C813 N811 1.356 . S
N814 C806 1.356 . S
N814 H820 0.984 . S
N814 H821 0.984 . S
N815 C808 1.356 . S
N815 H818 0.984 . S
N815 H819 0.985 . S
H816 N811 0.984 . S
H817 N811 0.985 . S
H818 N815 0.984 . S
H819 N815 0.985 . S
H820 N814 0.984 . S
H821 N814 0.984 . S
H822 N810 0.984 . S
H823 N810 0.985 . S
C824 C825 1.363 . S
C824 C830 1.379 . S
C824 N832 1.356 . S
C825 C824 1.363 . S
C825 C831 1.363 . S
C826 C827 1.363 . S
C826 C831 1.379 . S
C826 N833 1.356 . S
C827 C826 1.363 . S
C827 C830 1.363 . S
N828 C830 1.356 . S
N828 H840 0.984 . S
N828 H841 0.985 . S
N829 C831 1.356 . S
N829 H834 0.984 . S
N829 H835 0.985 . S
C830 C824 1.379 . S
C830 C827 1.363 . S
C830 N828 1.356 . S
C831 C825 1.363 . S
C831 C826 1.379 . S
C831 N829 1.356 . S
N832 C824 1.356 . S
N832 H838 0.984 . S
N832 H839 0.984 . S
N833 C826 1.356 . S
N833 H836 0.984 . S
N833 H837 0.985 . S
H834 N829 0.984 . S
H835 N829 0.985 . S
H836 N833 0.984 . S
H837 N833 0.985 . S
H838 N832 0.984 . S
H839 N832 0.984 . S
H840 N828 0.984 . S
H841 N828 0.985 . S
C842 C843 1.363 . S
C842 C848 1.379 . S
C842 N850 1.356 . S
C843 C842 1.363 . S
C843 C849 1.363 . S
C844 C845 1.363 . S
C844 C849 1.379 . S
C844 N851 1.356 . S
C845 C844 1.363 . S
C845 C848 1.363 . S
N846 C848 1.356 . S
N846 H858 0.984 . S
N846 H859 0.985 . S
N847 C849 1.356 . S
N847 H852 0.984 . S
N847 H853 0.985 . S
C848 C842 1.379 . S
C848 C845 1.363 . S
C848 N846 1.356 . S
C849 C843 1.363 . S
C849 C844 1.379 . S
C849 N847 1.356 . S
N850 C842 1.356 . S
N850 H856 0.984 . S
N850 H857 0.984 . S
N851 C844 1.356 . S
N851 H854 0.984 . S
N851 H855 0.985 . S
H852 N847 0.984 . S
H853 N847 0.985 . S
H854 N851 0.984 . S
H855 N851 0.985 . S
H856 N850 0.984 . S
H857 N850 0.984 . S
H858 N846 0.984 . S
H859 N846 0.985 . S
C860 C861 1.363 1_556 S
C860 C866 1.379 1_556 S
C860 N868 1.356 . S
C861 C860 1.363 1_554 S
C861 C867 1.363 . S
C862 C863 1.363 . S
C862 C867 1.379 . S
C862 N869 1.356 . S
C863 C862 1.363 . S
C863 C866 1.363 . S
N864 C866 1.356 1_556 S
N864 H876 0.984 . S
N864 H877 0.985 1_556 S
N865 C867 1.356 . S
N865 H870 0.984 . S
N865 H871 0.985 . S
C866 C860 1.379 1_554 S
C866 C863 1.363 . S
C866 N864 1.356 1_554 S
C867 C861 1.363 . S
C867 C862 1.379 . S
C867 N865 1.356 . S
N868 C860 1.356 . S
N868 H874 0.984 . S
N868 H875 0.984 . S
N869 C862 1.356 . S
N869 H872 0.984 . S
N869 H873 0.985 . S
H870 N865 0.984 . S
H871 N865 0.985 . S
H872 N869 0.984 . S
H873 N869 0.985 . S
H874 N868 0.984 . S
H875 N868 0.984 . S
H876 N864 0.984 . S
H877 N864 0.985 1_554 S
C878 C879 1.363 . S
C878 C884 1.379 . S
C878 N886 1.356 . S
C879 C878 1.363 . S
C879 C885 1.363 . S
C880 C881 1.363 . S
C880 C885 1.379 . S
C880 N887 1.356 . S
C881 C880 1.363 . S
C881 C884 1.363 . S
N882 C884 1.356 . S
N882 H894 0.984 . S
N882 H895 0.985 . S
N883 C885 1.356 . S
N883 H888 0.984 . S
N883 H889 0.985 . S
C884 C878 1.379 . S
C884 C881 1.363 . S
C884 N882 1.356 . S
C885 C879 1.363 . S
C885 C880 1.379 . S
C885 N883 1.356 . S
N886 C878 1.356 . S
N886 H892 0.984 . S
N886 H893 0.984 . S
N887 C880 1.356 . S
N887 H890 0.984 . S
N887 H891 0.985 . S
H888 N883 0.984 . S
H889 N883 0.985 . S
H890 N887 0.984 . S
H891 N887 0.985 . S
H892 N886 0.984 . S
H893 N886 0.984 . S
H894 N882 0.984 . S
H895 N882 0.985 . S
C896 C897 1.363 . S
C896 C902 1.379 . S
C896 N904 1.356 . S
C897 C896 1.363 . S
C897 C903 1.363 . S
C898 C899 1.363 . S
C898 C903 1.379 . S
C898 N905 1.356 . S
C899 C898 1.363 . S
C899 C902 1.363 . S
N900 C902 1.356 . S
N900 H912 0.984 . S
N900 H913 0.985 . S
N901 C903 1.356 . S
N901 H906 0.984 . S
N901 H907 0.985 . S
C902 C896 1.379 . S
C902 C899 1.363 . S
C902 N900 1.356 . S
C903 C897 1.363 . S
C903 C898 1.379 . S
C903 N901 1.356 . S
N904 C896 1.356 . S
N904 H910 0.984 . S
N904 H911 0.984 . S
N905 C898 1.356 . S
N905 H908 0.984 . S
N905 H909 0.985 . S
H906 N901 0.984 . S
H907 N901 0.985 . S
H908 N905 0.984 . S
H909 N905 0.985 . S
H910 N904 0.984 . S
H911 N904 0.984 . S
H912 N900 0.984 . S
H913 N900 0.985 . S
C914 C915 1.363 . S
C914 C920 1.379 1_455 S
C914 N922 1.356 . S
C915 C914 1.363 . S
C915 C921 1.363 . S
C916 C917 1.363 1_455 S
C916 C921 1.379 . S
C916 N923 1.356 1_455 S
C917 C916 1.363 1_655 S
C917 C920 1.363 . S
N918 C920 1.356 . S
N918 H930 0.984 . S
N918 H931 0.985 . S
N919 C921 1.356 . S
N919 H924 0.984 . S
N919 H925 0.985 . S
C920 C914 1.379 1_655 S
C920 C917 1.363 . S
C920 N918 1.356 . S
C921 C915 1.363 . S
C921 C916 1.379 . S
C921 N919 1.356 . S
N922 C914 1.356 . S
N922 H928 0.984 . S
N922 H929 0.984 . S
N923 C916 1.356 1_655 S
N923 H926 0.984 . S
N923 H927 0.985 1_655 S
H924 N919 0.984 . S
H925 N919 0.985 . S
H926 N923 0.984 . S
H927 N923 0.985 1_455 S
H928 N922 0.984 . S
H929 N922 0.984 . S
H930 N918 0.984 . S
H931 N918 0.985 . S
C932 C933 1.363 . S
C932 C938 1.379 . S
C932 N940 1.356 . S
C933 C932 1.363 . S
C933 C939 1.363 . S
C934 C935 1.363 . S
C934 C939 1.379 . S
C934 N941 1.356 . S
C935 C934 1.363 . S
C935 C938 1.363 . S
N936 C938 1.356 . S
N936 H948 0.984 . S
N936 H949 0.985 . S
N937 C939 1.356 . S
N937 H942 0.984 . S
N937 H943 0.985 . S
C938 C932 1.379 . S
C938 C935 1.363 . S
C938 N936 1.356 . S
C939 C933 1.363 . S
C939 C934 1.379 . S
C939 N937 1.356 . S
N940 C932 1.356 . S
N940 H946 0.984 . S
N940 H947 0.984 . S
N941 C934 1.356 . S
N941 H944 0.984 . S
N941 H945 0.985 . S
H942 N937 0.984 . S
H943 N937 0.985 . S
H944 N941 0.984 . S
H945 N941 0.985 . S
H946 N940 0.984 . S
H947 N940 0.984 . S
H948 N936 0.984 . S
H949 N936 0.985 . S
C950 C951 1.363 . S
C950 C956 1.379 . S
C950 N958 1.356 . S
C951 C950 1.363 . S
C951 C957 1.363 . S
C952 C953 1.363 . S
C952 C957 1.379 . S
C952 N959 1.356 . S
C953 C952 1.363 . S
C953 C956 1.363 . S
N954 C956 1.356 . S
N954 H966 0.984 . S
N954 H967 0.985 . S
N955 C957 1.356 . S
N955 H960 0.984 . S
N955 H961 0.985 . S
C956 C950 1.379 . S
C956 C953 1.363 . S
C956 N954 1.356 . S
C957 C951 1.363 . S
C957 C952 1.379 . S
C957 N955 1.356 . S
N958 C950 1.356 . S
N958 H964 0.984 . S
N958 H965 0.984 . S
N959 C952 1.356 . S
N959 H962 0.984 . S
N959 H963 0.985 . S
H960 N955 0.984 . S
H961 N955 0.985 . S
H962 N959 0.984 . S
H963 N959 0.985 . S
H964 N958 0.984 . S
H965 N958 0.984 . S
H966 N954 0.984 . S
H967 N954 0.985 . S
C968 C969 1.363 . S
C968 C974 1.379 . S
C968 N976 1.356 . S
C969 C968 1.363 . S
C969 C975 1.363 . S
C970 C971 1.363 . S
C970 C975 1.379 . S
C970 N977 1.356 . S
C971 C970 1.363 . S
C971 C974 1.363 . S
N972 C974 1.356 . S
N972 H984 0.984 . S
N972 H985 0.985 . S
N973 C975 1.356 . S
N973 H978 0.984 . S
N973 H979 0.985 . S
C974 C968 1.379 . S
C974 C971 1.363 . S
C974 N972 1.356 . S
C975 C969 1.363 . S
C975 C970 1.379 . S
C975 N973 1.356 . S
N976 C968 1.356 . S
N976 H982 0.984 . S
N976 H983 0.984 . S
N977 C970 1.356 . S
N977 H980 0.984 . S
N977 H981 0.985 . S
H978 N973 0.984 . S
H979 N973 0.985 . S
H980 N977 0.984 . S
H981 N977 0.985 . S
H982 N976 0.984 . S
H983 N976 0.984 . S
H984 N972 0.984 . S
H985 N972 0.985 . S
C986 C987 1.363 . S
C986 C992 1.379 . S
C986 N994 1.356 1_556 S
C987 C986 1.363 . S
C987 C993 1.363 . S
C988 C989 1.363 . S
C988 C993 1.379 . S
C988 N995 1.356 . S
C989 C988 1.363 . S
C989 C992 1.363 . S
N990 C992 1.356 . S
N990 H1002 0.984 . S
N990 H1003 0.985 . S
N991 C993 1.356 . S
N991 H996 0.984 . S
N991 H997 0.985 . S
C992 C986 1.379 . S
C992 C989 1.363 . S
C992 N990 1.356 . S
C993 C987 1.363 . S
C993 C988 1.379 . S
C993 N991 1.356 . S
N994 C986 1.356 1_554 S
N994 H1000 0.984 . S
N994 H1001 0.984 . S
N995 C988 1.356 . S
N995 H998 0.984 . S
N995 H999 0.985 . S
H996 N991 0.984 . S
H997 N991 0.985 . S
H998 N995 0.984 . S
H999 N995 0.985 . S
H1000 N994 0.984 . S
H1001 N994 0.984 . S
H1002 N990 0.984 . S
H1003 N990 0.985 . S
C1004 C1005 1.363 . S
C1004 C1010 1.379 . S
C1004 N1012 1.356 . S
C1005 C1004 1.363 . S
C1005 C1011 1.363 . S
C1006 C1007 1.363 . S
C1006 C1011 1.379 . S
C1006 N1013 1.356 . S
C1007 C1006 1.363 . S
C1007 C1010 1.363 . S
N1008 C1010 1.356 . S
N1008 H1020 0.984 . S
N1008 H1021 0.985 . S
N1009 C1011 1.356 . S
N1009 H1014 0.984 . S
N1009 H1015 0.985 . S
C1010 C1004 1.379 . S
C1010 C1007 1.363 . S
C1010 N1008 1.356 . S
C1011 C1005 1.363 . S
C1011 C1006 1.379 . S
C1011 N1009 1.356 . S
N1012 C1004 1.356 . S
N1012 H1018 0.984 . S
N1012 H1019 0.984 . S
N1013 C1006 1.356 . S
N1013 H1016 0.984 . S
N1013 H1017 0.985 . S
H1014 N1009 0.984 . S
H1015 N1009 0.985 . S
H1016 N1013 0.984 . S
H1017 N1013 0.985 . S
H1018 N1012 0.984 . S
H1019 N1012 0.984 . S
H1020 N1008 0.984 . S
H1021 N1008 0.985 . S
C1022 C1023 1.363 . S
C1022 C1028 1.379 1_655 S
C1022 N1030 1.356 . S
C1023 C1022 1.363 . S
C1023 C1029 1.363 1_655 S
C1024 C1025 1.363 . S
C1024 C1029 1.379 . S
C1024 N1031 1.356 . S
C1025 C1024 1.363 . S
C1025 C1028 1.363 . S
N1026 C1028 1.356 . S
N1026 H1038 0.984 . S
N1026 H1039 0.985 . S
N1027 C1029 1.356 1_655 S
N1027 H1032 0.984 . S
N1027 H1033 0.985 1_655 S
C1028 C1022 1.379 1_455 S
C1028 C1025 1.363 . S
C1028 N1026 1.356 . S
C1029 C1023 1.363 1_455 S
C1029 C1024 1.379 . S
C1029 N1027 1.356 1_455 S
N1030 C1022 1.356 . S
N1030 H1036 0.984 . S
N1030 H1037 0.984 . S
N1031 C1024 1.356 . S
N1031 H1034 0.984 . S
N1031 H1035 0.985 . S
H1032 N1027 0.984 . S
H1033 N1027 0.985 1_455 S
H1034 N1031 0.984 . S
H1035 N1031 0.985 . S
H1036 N1030 0.984 . S
H1037 N1030 0.984 . S
H1038 N1026 0.984 . S
H1039 N1026 0.985 . S
C1040 C1041 1.363 . S
C1040 C1046 1.379 . S
C1040 N1048 1.356 . S
C1041 C1040 1.363 . S
C1041 C1047 1.363 . S
C1042 C1043 1.363 . S
C1042 C1047 1.379 . S
C1042 N1049 1.356 . S
C1043 C1042 1.363 . S
C1043 C1046 1.363 . S
N1044 C1046 1.356 . S
N1044 H1056 0.984 . S
N1044 H1057 0.985 . S
N1045 C1047 1.356 . S
N1045 H1050 0.984 . S
N1045 H1051 0.985 . S
C1046 C1040 1.379 . S
C1046 C1043 1.363 . S
C1046 N1044 1.356 . S
C1047 C1041 1.363 . S
C1047 C1042 1.379 . S
C1047 N1045 1.356 . S
N1048 C1040 1.356 . S
N1048 H1054 0.984 . S
N1048 H1055 0.984 . S
N1049 C1042 1.356 . S
N1049 H1052 0.984 . S
N1049 H1053 0.985 . S
H1050 N1045 0.984 . S
H1051 N1045 0.985 . S
H1052 N1049 0.984 . S
H1053 N1049 0.985 . S
H1054 N1048 0.984 . S
H1055 N1048 0.984 . S
H1056 N1044 0.984 . S
H1057 N1044 0.985 . S
C1058 C1059 1.363 1_655 S
C1058 C1064 1.379 . S
C1058 N1066 1.356 . S
C1059 C1058 1.363 1_455 S
C1059 C1065 1.363 . S
C1060 C1061 1.363 . S
C1060 C1065 1.379 1_655 S
C1060 N1067 1.356 . S
C1061 C1060 1.363 . S
C1061 C1064 1.363 . S
N1062 C1064 1.356 . S
N1062 H1074 0.984 . S
N1062 H1075 0.985 . S
N1063 C1065 1.356 . S
N1063 H1068 0.984 . S
N1063 H1069 0.985 . S
C1064 C1058 1.379 . S
C1064 C1061 1.363 . S
C1064 N1062 1.356 . S
C1065 C1059 1.363 . S
C1065 C1060 1.379 1_455 S
C1065 N1063 1.356 . S
N1066 C1058 1.356 . S
N1066 H1072 0.984 . S
N1066 H1073 0.984 1_655 S
N1067 C1060 1.356 . S
N1067 H1070 0.984 . S
N1067 H1071 0.985 1_556 S
H1068 N1063 0.984 . S
H1069 N1063 0.985 . S
H1070 N1067 0.984 . S
H1071 N1067 0.985 1_554 S
H1072 N1066 0.984 . S
H1073 N1066 0.984 1_455 S
H1074 N1062 0.984 . S
H1075 N1062 0.985 . S
C1076 C1077 1.363 . S
C1076 C1082 1.379 . S
C1076 N1084 1.356 . S
C1077 C1076 1.363 . S
C1077 C1083 1.363 . S
C1078 C1079 1.363 . S
C1078 C1083 1.379 . S
C1078 N1085 1.356 . S
C1079 C1078 1.363 . S
C1079 C1082 1.363 . S
N1080 C1082 1.356 . S
N1080 H1092 0.984 . S
N1080 H1093 0.985 . S
N1081 C1083 1.356 . S
N1081 H1086 0.984 . S
N1081 H1087 0.985 . S
C1082 C1076 1.379 . S
C1082 C1079 1.363 . S
C1082 N1080 1.356 . S
C1083 C1077 1.363 . S
C1083 C1078 1.379 . S
C1083 N1081 1.356 . S
N1084 C1076 1.356 . S
N1084 H1090 0.984 . S
N1084 H1091 0.984 . S
N1085 C1078 1.356 . S
N1085 H1088 0.984 . S
N1085 H1089 0.985 . S
H1086 N1081 0.984 . S
H1087 N1081 0.985 . S
H1088 N1085 0.984 . S
H1089 N1085 0.985 . S
H1090 N1084 0.984 . S
H1091 N1084 0.984 . S
H1092 N1080 0.984 . S
H1093 N1080 0.985 . S
C1094 C1095 1.363 . S
C1094 C1100 1.379 . S
C1094 N1102 1.356 . S
C1095 C1094 1.363 . S
C1095 C1101 1.363 . S
C1096 C1097 1.363 . S
C1096 C1101 1.379 . S
C1096 N1103 1.356 . S
C1097 C1096 1.363 . S
C1097 C1100 1.363 . S
N1098 C1100 1.356 . S
N1098 H1110 0.984 . S
N1098 H1111 0.985 . S
N1099 C1101 1.356 . S
N1099 H1104 0.984 . S
N1099 H1105 0.985 . S
C1100 C1094 1.379 . S
C1100 C1097 1.363 . S
C1100 N1098 1.356 . S
C1101 C1095 1.363 . S
C1101 C1096 1.379 . S
C1101 N1099 1.356 . S
N1102 C1094 1.356 . S
N1102 H1108 0.984 . S
N1102 H1109 0.984 . S
N1103 C1096 1.356 . S
N1103 H1106 0.984 . S
N1103 H1107 0.985 . S
H1104 N1099 0.984 . S
H1105 N1099 0.985 . S
H1106 N1103 0.984 . S
H1107 N1103 0.985 . S
H1108 N1102 0.984 . S
H1109 N1102 0.984 . S
H1110 N1098 0.984 . S
H1111 N1098 0.985 . S
C1112 C1113 1.363 . S
C1112 C1118 1.379 . S
C1112 N1120 1.356 . S
C1113 C1112 1.363 . S
C1113 C1119 1.363 . S
C1114 C1115 1.363 . S
C1114 C1119 1.379 . S
C1114 N1121 1.356 . S
C1115 C1114 1.363 . S
C1115 C1118 1.363 . S
N1116 C1118 1.356 . S
N1116 H1128 0.984 . S
N1116 H1129 0.985 . S
N1117 C1119 1.356 . S
N1117 H1122 0.984 . S
N1117 H1123 0.985 . S
C1118 C1112 1.379 . S
C1118 C1115 1.363 . S
C1118 N1116 1.356 . S
C1119 C1113 1.363 . S
C1119 C1114 1.379 . S
C1119 N1117 1.356 . S
N1120 C1112 1.356 . S
N1120 H1126 0.984 . S
N1120 H1127 0.984 . S
N1121 C1114 1.356 . S
N1121 H1124 0.984 . S
N1121 H1125 0.985 . S
H1122 N1117 0.984 . S
H1123 N1117 0.985 . S
H1124 N1121 0.984 . S
H1125 N1121 0.985 . S
H1126 N1120 0.984 . S
H1127 N1120 0.984 . S
H1128 N1116 0.984 . S
H1129 N1116 0.985 . S
C1130 C1131 1.363 . S
C1130 C1136 1.379 . S
C1130 N1138 1.356 1_554 S
C1131 C1130 1.363 . S
C1131 C1137 1.363 . S
C1132 C1133 1.363 . S
C1132 C1137 1.379 . S
C1132 N1139 1.356 . S
C1133 C1132 1.363 . S
C1133 C1136 1.363 . S
N1134 C1136 1.356 . S
N1134 H1146 0.984 . S
N1134 H1147 0.985 . S
N1135 C1137 1.356 . S
N1135 H1140 0.984 . S
N1135 H1141 0.985 . S
C1136 C1130 1.379 . S
C1136 C1133 1.363 . S
C1136 N1134 1.356 . S
C1137 C1131 1.363 . S
C1137 C1132 1.379 . S
C1137 N1135 1.356 . S
N1138 C1130 1.356 1_556 S
N1138 H1144 0.984 . S
N1138 H1145 0.984 . S
N1139 C1132 1.356 . S
N1139 H1142 0.984 . S
N1139 H1143 0.985 . S
H1140 N1135 0.984 . S
H1141 N1135 0.985 . S
H1142 N1139 0.984 . S
H1143 N1139 0.985 . S
H1144 N1138 0.984 . S
H1145 N1138 0.984 . S
H1146 N1134 0.984 . S
H1147 N1134 0.985 . S
C1148 C1149 1.363 . S
C1148 C1154 1.379 . S
C1148 N1156 1.356 . S
C1149 C1148 1.363 . S
C1149 C1155 1.363 . S
C1150 C1151 1.363 . S
C1150 C1155 1.379 . S
C1150 N1157 1.356 . S
C1151 C1150 1.363 . S
C1151 C1154 1.363 . S
N1152 C1154 1.356 . S
N1152 H1164 0.984 . S
N1152 H1165 0.985 . S
N1153 C1155 1.356 . S
N1153 H1158 0.984 . S
N1153 H1159 0.985 . S
C1154 C1148 1.379 . S
C1154 C1151 1.363 . S
C1154 N1152 1.356 . S
C1155 C1149 1.363 . S
C1155 C1150 1.379 . S
C1155 N1153 1.356 . S
N1156 C1148 1.356 . S
N1156 H1162 0.984 . S
N1156 H1163 0.984 . S
N1157 C1150 1.356 . S
N1157 H1160 0.984 . S
N1157 H1161 0.985 . S
H1158 N1153 0.984 . S
H1159 N1153 0.985 . S
H1160 N1157 0.984 . S
H1161 N1157 0.985 . S
H1162 N1156 0.984 . S
H1163 N1156 0.984 . S
H1164 N1152 0.984 . S
H1165 N1152 0.985 . S
C1166 C1167 1.363 . S
C1166 C1172 1.379 . S
C1166 N1174 1.356 . S
C1167 C1166 1.363 . S
C1167 C1173 1.363 . S
C1168 C1169 1.363 . S
C1168 C1173 1.379 1_455 S
C1168 N1175 1.356 . S
C1169 C1168 1.363 . S
C1169 C1172 1.363 1_455 S
N1170 C1172 1.356 . S
N1170 H1182 0.984 . S
N1170 H1183 0.985 1_655 S
N1171 C1173 1.356 . S
N1171 H1176 0.984 . S
N1171 H1177 0.985 1_655 S
C1172 C1166 1.379 . S
C1172 C1169 1.363 1_655 S
C1172 N1170 1.356 . S
C1173 C1167 1.363 . S
C1173 C1168 1.379 1_655 S
C1173 N1171 1.356 . S
N1174 C1166 1.356 . S
N1174 H1180 0.984 . S
N1174 H1181 0.984 . S
N1175 C1168 1.356 . S
N1175 H1178 0.984 . S
N1175 H1179 0.985 . S
H1176 N1171 0.984 . S
H1177 N1171 0.985 1_455 S
H1178 N1175 0.984 . S
H1179 N1175 0.985 . S
H1180 N1174 0.984 . S
H1181 N1174 0.984 . S
H1182 N1170 0.984 . S
H1183 N1170 0.985 1_455 S
C1184 C1185 1.363 . S
C1184 C1190 1.379 . S
C1184 N1192 1.356 . S
C1185 C1184 1.363 . S
C1185 C1191 1.363 . S
C1186 C1187 1.363 . S
C1186 C1191 1.379 . S
C1186 N1193 1.356 . S
C1187 C1186 1.363 . S
C1187 C1190 1.363 . S
N1188 C1190 1.356 . S
N1188 H1200 0.984 . S
N1188 H1201 0.985 . S
N1189 C1191 1.356 . S
N1189 H1194 0.984 . S
N1189 H1195 0.985 . S
C1190 C1184 1.379 . S
C1190 C1187 1.363 . S
C1190 N1188 1.356 . S
C1191 C1185 1.363 . S
C1191 C1186 1.379 . S
C1191 N1189 1.356 . S
N1192 C1184 1.356 . S
N1192 H1198 0.984 . S
N1192 H1199 0.984 . S
N1193 C1186 1.356 . S
N1193 H1196 0.984 . S
N1193 H1197 0.985 . S
H1194 N1189 0.984 . S
H1195 N1189 0.985 . S
H1196 N1193 0.984 . S
H1197 N1193 0.985 . S
H1198 N1192 0.984 . S
H1199 N1192 0.984 . S
H1200 N1188 0.984 . S
H1201 N1188 0.985 . S
C1202 C1203 1.363 . S
C1202 C1208 1.379 . S
C1202 N1210 1.356 . S
C1203 C1202 1.363 . S
C1203 C1209 1.363 . S
C1204 C1205 1.363 . S
C1204 C1209 1.379 . S
C1204 N1211 1.356 . S
C1205 C1204 1.363 . S
C1205 C1208 1.363 . S
N1206 C1208 1.356 . S
N1206 H1218 0.984 . S
N1206 H1219 0.985 . S
N1207 C1209 1.356 . S
N1207 H1212 0.984 . S
N1207 H1213 0.985 . S
C1208 C1202 1.379 . S
C1208 C1205 1.363 . S
C1208 N1206 1.356 . S
C1209 C1203 1.363 . S
C1209 C1204 1.379 . S
C1209 N1207 1.356 . S
N1210 C1202 1.356 . S
N1210 H1216 0.984 . S
N1210 H1217 0.984 . S
N1211 C1204 1.356 . S
N1211 H1214 0.984 . S
N1211 H1215 0.985 . S
H1212 N1207 0.984 . S
H1213 N1207 0.985 . S
H1214 N1211 0.984 . S
H1215 N1211 0.985 . S
H1216 N1210 0.984 . S
H1217 N1210 0.984 . S
H1218 N1206 0.984 . S
H1219 N1206 0.985 . S
C1220 C1221 1.363 . S
C1220 C1226 1.379 . S
C1220 N1228 1.356 . S
C1221 C1220 1.363 . S
C1221 C1227 1.363 . S
C1222 C1223 1.363 . S
C1222 C1227 1.379 . S
C1222 N1229 1.356 . S
C1223 C1222 1.363 . S
C1223 C1226 1.363 . S
N1224 C1226 1.356 . S
N1224 H1236 0.984 . S
N1224 H1237 0.985 . S
N1225 C1227 1.356 . S
N1225 H1230 0.984 . S
N1225 H1231 0.985 . S
C1226 C1220 1.379 . S
C1226 C1223 1.363 . S
C1226 N1224 1.356 . S
C1227 C1221 1.363 . S
C1227 C1222 1.379 . S
C1227 N1225 1.356 . S
N1228 C1220 1.356 . S
N1228 H1234 0.984 . S
N1228 H1235 0.984 . S
N1229 C1222 1.356 . S
N1229 H1232 0.984 . S
N1229 H1233 0.985 . S
H1230 N1225 0.984 . S
H1231 N1225 0.985 . S
H1232 N1229 0.984 . S
H1233 N1229 0.985 . S
H1234 N1228 0.984 . S
H1235 N1228 0.984 . S
H1236 N1224 0.984 . S
H1237 N1224 0.985 . S
C1238 C1239 1.363 1_655 S
C1238 C1244 1.379 . S
C1238 N1246 1.356 1_655 S
C1239 C1238 1.363 1_455 S
C1239 C1245 1.363 1_455 S
C1240 C1241 1.363 . S
C1240 C1245 1.379 . S
C1240 N1247 1.356 . S
C1241 C1240 1.363 . S
C1241 C1244 1.363 . S
N1242 C1244 1.356 1_556 S
N1242 H1254 0.984 . S
N1242 H1255 0.985 . S
N1243 C1245 1.356 1_455 S
N1243 H1248 0.984 . S
N1243 H1249 0.985 . S
C1244 C1238 1.379 . S
C1244 C1241 1.363 . S
C1244 N1242 1.356 1_554 S
C1245 C1239 1.363 1_655 S
C1245 C1240 1.379 . S
C1245 N1243 1.356 1_655 S
N1246 C1238 1.356 1_455 S
N1246 H1252 0.984 . S
N1246 H1253 0.984 . S
N1247 C1240 1.356 . S
N1247 H1250 0.984 . S
N1247 H1251 0.985 . S
H1248 N1243 0.984 . S
H1249 N1243 0.985 . S
H1250 N1247 0.984 . S
H1251 N1247 0.985 . S
H1252 N1246 0.984 . S
H1253 N1246 0.984 . S
H1254 N1242 0.984 . S
H1255 N1242 0.985 . S
C1256 C1257 1.363 . S
C1256 C1262 1.379 . S
C1256 N1264 1.356 . S
C1257 C1256 1.363 . S
C1257 C1263 1.363 . S
C1258 C1259 1.363 . S
C1258 C1263 1.379 . S
C1258 N1265 1.356 . S
C1259 C1258 1.363 . S
C1259 C1262 1.363 . S
N1260 C1262 1.356 . S
N1260 H1272 0.984 . S
N1260 H1273 0.985 . S
N1261 C1263 1.356 . S
N1261 H1266 0.984 . S
N1261 H1267 0.985 . S
C1262 C1256 1.379 . S
C1262 C1259 1.363 . S
C1262 N1260 1.356 . S
C1263 C1257 1.363 . S
C1263 C1258 1.379 . S
C1263 N1261 1.356 . S
N1264 C1256 1.356 . S
N1264 H1270 0.984 . S
N1264 H1271 0.984 . S
N1265 C1258 1.356 . S
N1265 H1268 0.984 . S
N1265 H1269 0.985 . S
H1266 N1261 0.984 . S
H1267 N1261 0.985 . S
H1268 N1265 0.984 . S
H1269 N1265 0.985 . S
H1270 N1264 0.984 . S
H1271 N1264 0.984 . S
H1272 N1260 0.984 . S
H1273 N1260 0.985 . S
C1274 C1275 1.363 1_455 S
C1274 C1280 1.379 . S
C1274 N1282 1.350 1_455 S
C1275 C1274 1.363 1_655 S
C1275 C1281 1.363 . S
C1276 C1277 1.363 1_655 S
C1276 C1281 1.379 . S
C1276 N1283 1.356 . S
C1277 C1276 1.363 1_455 S
C1277 C1280 1.363 . S
N1278 C1280 1.356 . S
N1278 H1290 0.984 . S
N1278 H1291 0.985 . S
N1279 C1281 1.356 . S
N1279 H1284 0.984 . S
N1279 H1285 0.985 . S
C1280 C1274 1.379 . S
C1280 C1277 1.363 . S
C1280 N1278 1.356 . S
C1281 C1275 1.363 . S
C1281 C1276 1.379 . S
C1281 N1279 1.356 . S
N1282 C1274 1.350 1_655 S
N1282 H1288 0.956 1_655 S
N1282 H1289 1.020 . S
N1283 C1276 1.356 . S
N1283 H1286 0.984 1_655 S
N1283 H1287 0.985 . S
H1284 N1279 0.984 . S
H1285 N1279 0.985 . S
H1286 N1283 0.984 1_455 S
H1287 N1283 0.985 . S
H1288 N1282 0.956 1_455 S
H1289 N1282 1.020 . S
H1290 N1278 0.984 . S
H1291 N1278 0.985 . S
C1292 C1293 1.363 . S
C1292 C1298 1.379 . S
C1292 N1300 1.356 . S
C1293 C1292 1.363 . S
C1293 C1299 1.363 . S
C1294 C1295 1.363 . S
C1294 C1299 1.379 . S
C1294 N1301 1.356 . S
C1295 C1294 1.363 . S
C1295 C1298 1.363 . S
N1296 C1298 1.356 . S
N1296 H1308 0.984 . S
N1296 H1309 0.985 . S
N1297 C1299 1.356 . S
N1297 H1302 0.984 . S
N1297 H1303 0.985 . S
C1298 C1292 1.379 . S
C1298 C1295 1.363 . S
C1298 N1296 1.356 . S
C1299 C1293 1.363 . S
C1299 C1294 1.379 . S
C1299 N1297 1.356 . S
N1300 C1292 1.356 . S
N1300 H1306 0.984 . S
N1300 H1307 0.984 . S
N1301 C1294 1.356 . S
N1301 H1304 0.984 . S
N1301 H1305 0.985 . S
H1302 N1297 0.984 . S
H1303 N1297 0.985 . S
H1304 N1301 0.984 . S
H1305 N1301 0.985 . S
H1306 N1300 0.984 . S
H1307 N1300 0.984 . S
H1308 N1296 0.984 . S
H1309 N1296 0.985 . S
C1310 C1311 1.363 . S
C1310 C1316 1.379 . S
C1310 N1318 1.356 1_556 S
C1311 C1310 1.363 . S
C1311 C1317 1.363 . S
C1312 C1313 1.363 . S
C1312 C1317 1.379 . S
C1312 N1319 1.356 . S
C1313 C1312 1.363 . S
C1313 C1316 1.363 . S
N1314 C1316 1.356 . S
N1314 H1326 0.984 . S
N1314 H1327 0.985 . S
N1315 C1317 1.356 . S
N1315 H1320 0.984 . S
N1315 H1321 0.985 . S
C1316 C1310 1.379 . S
C1316 C1313 1.363 . S
C1316 N1314 1.356 . S
C1317 C1311 1.363 . S
C1317 C1312 1.379 . S
C1317 N1315 1.356 . S
N1318 C1310 1.356 1_554 S
N1318 H1324 0.984 . S
N1318 H1325 0.984 . S
N1319 C1312 1.356 . S
N1319 H1322 0.984 . S
N1319 H1323 0.985 . S
H1320 N1315 0.984 . S
H1321 N1315 0.985 . S
H1322 N1319 0.984 . S
H1323 N1319 0.985 . S
H1324 N1318 0.984 . S
H1325 N1318 0.984 . S
H1326 N1314 0.984 . S
H1327 N1314 0.985 . S
C1328 C1329 1.363 . S
C1328 C1334 1.379 . S
C1328 N1336 1.356 . S
C1329 C1328 1.363 . S
C1329 C1335 1.363 . S
C1330 C1331 1.363 . S
C1330 C1335 1.379 . S
C1330 N1337 1.356 . S
C1331 C1330 1.363 . S
C1331 C1334 1.363 . S
N1332 C1334 1.356 . S
N1332 H1344 0.984 . S
N1332 H1345 0.985 . S
N1333 C1335 1.356 . S
N1333 H1338 0.984 . S
N1333 H1339 0.985 . S
C1334 C1328 1.379 . S
C1334 C1331 1.363 . S
C1334 N1332 1.356 . S
C1335 C1329 1.363 . S
C1335 C1330 1.379 . S
C1335 N1333 1.356 . S
N1336 C1328 1.356 . S
N1336 H1342 0.984 . S
N1336 H1343 0.984 . S
N1337 C1330 1.356 . S
N1337 H1340 0.984 . S
N1337 H1341 0.985 . S
H1338 N1333 0.984 . S
H1339 N1333 0.985 . S
H1340 N1337 0.984 . S
H1341 N1337 0.985 . S
H1342 N1336 0.984 . S
H1343 N1336 0.984 . S
H1344 N1332 0.984 . S
H1345 N1332 0.985 . S
C1346 C1347 1.363 . S
C1346 C1352 1.379 . S
C1346 N1354 1.356 . S
C1347 C1346 1.363 . S
C1347 C1353 1.363 . S
C1348 C1349 1.363 . S
C1348 C1353 1.379 . S
C1348 N1355 1.356 . S
C1349 C1348 1.363 . S
C1349 C1352 1.363 . S
N1350 C1352 1.356 . S
N1350 H1362 0.984 . S
N1350 H1363 0.985 . S
N1351 C1353 1.356 . S
N1351 H1356 0.984 . S
N1351 H1357 0.985 . S
C1352 C1346 1.379 . S
C1352 C1349 1.363 . S
C1352 N1350 1.356 . S
C1353 C1347 1.363 . S
C1353 C1348 1.379 . S
C1353 N1351 1.356 . S
N1354 C1346 1.356 . S
N1354 H1360 0.984 . S
N1354 H1361 0.984 . S
N1355 C1348 1.356 . S
N1355 H1358 0.984 . S
N1355 H1359 0.985 . S
H1356 N1351 0.984 . S
H1357 N1351 0.985 . S
H1358 N1355 0.984 . S
H1359 N1355 0.985 . S
H1360 N1354 0.984 . S
H1361 N1354 0.984 . S
H1362 N1350 0.984 . S
H1363 N1350 0.985 . S
C1364 C1365 1.363 . S
C1364 C1370 1.379 . S
C1364 N1372 1.356 . S
C1365 C1364 1.363 . S
C1365 C1371 1.363 . S
C1366 C1367 1.363 . S
C1366 C1371 1.379 . S
C1366 N1373 1.356 . S
C1367 C1366 1.363 . S
C1367 C1370 1.363 . S
N1368 C1370 1.356 . S
N1368 H1380 0.984 . S
N1368 H1381 0.985 . S
N1369 C1371 1.356 . S
N1369 H1374 0.984 . S
N1369 H1375 0.985 . S
C1370 C1364 1.379 . S
C1370 C1367 1.363 . S
C1370 N1368 1.356 . S
C1371 C1365 1.363 . S
C1371 C1366 1.379 . S
C1371 N1369 1.356 . S
N1372 C1364 1.356 . S
N1372 H1378 0.984 . S
N1372 H1379 0.984 . S
N1373 C1366 1.356 . S
N1373 H1376 0.984 . S
N1373 H1377 0.985 . S
H1374 N1369 0.984 . S
H1375 N1369 0.985 . S
H1376 N1373 0.984 . S
H1377 N1373 0.985 . S
H1378 N1372 0.984 . S
H1379 N1372 0.984 . S
H1380 N1368 0.984 . S
H1381 N1368 0.985 . S
C1382 C1383 1.363 . S
C1382 C1388 1.379 . S
C1382 N1390 1.356 1_556 S
C1383 C1382 1.363 . S
C1383 C1389 1.363 . S
C1384 C1385 1.369 . S
C1384 C1389 1.379 . S
C1384 N1391 1.356 . S
C1385 C1384 1.369 . S
C1385 C1388 1.363 . S
N1386 C1388 1.356 1_655 S
N1386 H1398 0.984 . S
N1386 H1399 0.985 . S
N1387 C1389 1.356 . S
N1387 H1392 0.984 . S
N1387 H1393 0.985 . S
C1388 C1382 1.379 . S
C1388 C1385 1.363 . S
C1388 N1386 1.356 1_455 S
C1389 C1383 1.363 . S
C1389 C1384 1.379 . S
C1389 N1387 1.356 . S
N1390 C1382 1.356 1_554 S
N1390 H1396 0.984 . S
N1390 H1397 0.984 . S
N1391 C1384 1.356 . S
N1391 H1394 0.984 1_455 S
N1391 H1395 0.985 . S
H1392 N1387 0.984 . S
H1393 N1387 0.985 . S
H1394 N1391 0.984 1_655 S
H1395 N1391 0.985 . S
H1396 N1390 0.984 . S
H1397 N1390 0.984 . S
H1398 N1386 0.984 . S
H1399 N1386 0.985 . S
C1400 C1401 1.363 . S
C1400 C1406 1.379 . S
C1400 N1408 1.356 . S
C1401 C1400 1.363 . S
C1401 C1407 1.363 . S
C1402 C1403 1.363 . S
C1402 C1407 1.379 . S
C1402 N1409 1.356 . S
C1403 C1402 1.363 . S
C1403 C1406 1.363 . S
N1404 C1406 1.356 . S
N1404 H1416 0.984 . S
N1404 H1417 0.985 . S
N1405 C1407 1.356 . S
N1405 H1410 0.984 . S
N1405 H1411 0.985 . S
C1406 C1400 1.379 . S
C1406 C1403 1.363 . S
C1406 N1404 1.356 . S
C1407 C1401 1.363 . S
C1407 C1402 1.379 . S
C1407 N1405 1.356 . S
N1408 C1400 1.356 . S
N1408 H1414 0.984 . S
N1408 H1415 0.984 . S
N1409 C1402 1.356 . S
N1409 H1412 0.984 . S
N1409 H1413 0.985 . S
H1410 N1405 0.984 . S
H1411 N1405 0.985 . S
H1412 N1409 0.984 . S
H1413 N1409 0.985 . S
H1414 N1408 0.984 . S
H1415 N1408 0.984 . S
H1416 N1404 0.984 . S
H1417 N1404 0.985 . S
C1418 C1419 1.363 . S
C1418 C1424 1.379 1_655 S
C1418 N1426 1.356 . S
C1419 C1418 1.363 . S
C1419 C1425 1.363 1_655 S
C1420 C1421 1.363 . S
C1420 C1425 1.379 . S
C1420 N1427 1.356 . S
C1421 C1420 1.363 . S
C1421 C1424 1.363 . S
N1422 C1424 1.356 . S
N1422 H1434 0.984 . S
N1422 H1435 0.985 . S
N1423 C1425 1.356 . S
N1423 H1428 0.984 1_455 S
N1423 H1429 0.985 . S
C1424 C1418 1.379 1_455 S
C1424 C1421 1.363 . S
C1424 N1422 1.356 . S
C1425 C1419 1.363 1_455 S
C1425 C1420 1.379 . S
C1425 N1423 1.356 . S
N1426 C1418 1.356 . S
N1426 H1432 0.984 . S
N1426 H1433 0.984 . S
N1427 C1420 1.356 . S
N1427 H1430 0.984 . S
N1427 H1431 0.985 . S
H1428 N1423 0.984 1_655 S
H1429 N1423 0.985 . S
H1430 N1427 0.984 . S
H1431 N1427 0.985 . S
H1432 N1426 0.984 . S
H1433 N1426 0.984 . S
H1434 N1422 0.984 . S
H1435 N1422 0.985 . S
C1436 C1437 1.363 . S
C1436 C1442 1.379 . S
C1436 N1444 1.356 . S
C1437 C1436 1.363 . S
C1437 C1443 1.363 . S
C1438 C1439 1.363 . S
C1438 C1443 1.379 . S
C1438 N1445 1.356 . S
C1439 C1438 1.363 . S
C1439 C1442 1.363 . S
N1440 C1442 1.356 . S
N1440 H1452 0.984 . S
N1440 H1453 0.985 . S
N1441 C1443 1.356 . S
N1441 H1446 0.984 . S
N1441 H1447 0.985 . S
C1442 C1436 1.379 . S
C1442 C1439 1.363 . S
C1442 N1440 1.356 . S
C1443 C1437 1.363 . S
C1443 C1438 1.379 . S
C1443 N1441 1.356 . S
N1444 C1436 1.356 . S
N1444 H1450 0.984 . S
N1444 H1451 0.984 . S
N1445 C1438 1.356 . S
N1445 H1448 0.984 . S
N1445 H1449 0.985 . S
H1446 N1441 0.984 . S
H1447 N1441 0.985 . S
H1448 N1445 0.984 . S
H1449 N1445 0.985 . S
H1450 N1444 0.984 . S
H1451 N1444 0.984 . S
H1452 N1440 0.984 . S
H1453 N1440 0.985 . S
C1454 C1455 1.363 . S
C1454 C1460 1.379 . S
C1454 N1462 1.356 1_554 S
C1455 C1454 1.363 . S
C1455 C1461 1.363 . S
C1456 C1457 1.363 . S
C1456 C1461 1.379 . S
C1456 N1463 1.356 . S
C1457 C1456 1.363 . S
C1457 C1460 1.363 . S
N1458 C1460 1.356 . S
N1458 H1470 0.984 . S
N1458 H1471 0.985 . S
N1459 C1461 1.356 . S
N1459 H1464 0.984 . S
N1459 H1465 0.985 . S
C1460 C1454 1.379 . S
C1460 C1457 1.363 . S
C1460 N1458 1.356 . S
C1461 C1455 1.363 . S
C1461 C1456 1.379 . S
C1461 N1459 1.356 . S
N1462 C1454 1.356 1_556 S
N1462 H1468 0.984 . S
N1462 H1469 0.984 . S
N1463 C1456 1.356 . S
N1463 H1466 0.984 . S
N1463 H1467 0.985 . S
H1464 N1459 0.984 . S
H1465 N1459 0.985 . S
H1466 N1463 0.984 . S
H1467 N1463 0.985 . S
H1468 N1462 0.984 . S
H1469 N1462 0.984 . S
H1470 N1458 0.984 . S
H1471 N1458 0.985 . S
C465 C224 0.462 . S
C467 C21 0.634 . S
C483 C137 0.523 . S
C485 C50 0.587 . S
C501 C166 0.501 . S
C503 C79 0.570 . S
C519 C195 0.613 . S
C521 C108 0.544 . S
C537 C253 0.565 . S
C539 C456 0.595 . S
C555 C282 0.212 . S
C557 C369 0.220 . S
C573 C398 0.475 . S
C575 C311 0.494 . S
C591 C427 0.528 . S
C593 C340 0.592 . S
C609 C187 2.424 . S
C611 C15 2.355 1_556 S
C627 C44 2.741 . S
C629 C218 2.721 . S
C645 C131 2.305 . S
C647 C71 2.392 . S
C663 C158 2.382 . S
C665 C100 2.359 . S
C681 C247 2.540 . S
C683 C421 2.515 1_556 S
C699 C450 2.696 . S
C701 C276 2.713 . S
C717 C303 2.362 . S
C719 C361 2.337 . S
C735 C334 2.299 . S
C737 C390 2.374 . S
C753 C42 2.690 . S
C755 C160 2.614 . S
C771 C189 2.489 . S
C773 C73 2.506 . S
C789 C102 2.144 1_554 S
C791 C216 2.230 . S
C807 C129 2.576 . S
C809 C13 2.597 . S
C825 C392 2.420 . S
C827 C274 2.499 . S
C843 C305 2.726 . S
C845 C419 2.780 . S
C861 C448 2.362 1_554 S
C863 C332 2.340 . S
C879 C245 2.356 . S
C881 C363 2.292 . S
C897 C271 1.689 . S
C899 C8 1.592 . S
C915 C440 1.726 . S
C917 C37 1.565 . S
C933 C61 2.201 . S
C935 C329 2.047 . S
C951 C387 1.580 . S
C953 C90 1.723 . S
C969 C445 1.696 . S
C971 C124 1.602 . S
C987 C324 1.895 1_556 S
C989 C148 1.927 . S
C1005 C177 2.037 . S
C1007 C382 2.007 . S
C1023 C211 1.285 . S
C1025 C266 1.395 . S
C1041 C39 1.608 . S
C1043 C240 1.552 . S
C1059 C269 1.755 . S
C1061 C208 1.923 . S
C1077 C92 2.053 . S
C1079 C293 2.079 . S
C1095 C327 1.525 . S
C1097 C155 1.603 . S
C1113 C213 1.472 . S
C1115 C351 1.597 . S
C1131 C97 2.019 1_554 S
C1133 C380 2.181 . S
C1149 C414 1.735 . S
C1151 C150 1.928 . S
C1167 C34 1.626 . S
C1169 C443 1.487 . S
C1185 C411 1.500 . S
C1187 C153 1.335 . S
C1203 C295 1.805 . S
C1205 C182 1.654 . S
C1221 C206 2.304 . S
C1223 C358 2.173 . S
C1239 C119 1.850 . S
C1241 C242 1.702 1_554 S
C1257 C300 1.564 . S
C1259 C95 1.462 . S
C1275 C353 1.756 . S
C1277 C3 1.795 . S
C1293 C237 1.935 . S
C1295 C32 1.966 . S
C1311 C416 1.575 1_556 S
C1313 C66 1.578 . S
C1329 C184 1.445 . S
C1331 C385 1.386 . S
C1347 C63 1.817 . S
C1349 C409 1.858 . S
C1365 C121 1.933 . S
C1367 C438 1.959 . S
C1383 C10 1.801 . S
C1385 C356 1.711 1_455 S
C1401 C68 1.642 . S
C1403 C322 1.770 . S
C1419 C235 2.054 . S
C1421 C126 1.889 . S
C1437 C5 1.837 . S
C1439 C264 1.866 . S
C1455 C179 1.466 . S
C1457 C298 1.333 . S
