# Generated by pormake.
# Topology mok, (4)-cn, num edge types: 1
# Building blocks:
#     Node 0, Type 0, BuildingBlock: CEKHIL_clean_sbu_0, # of connection points: 4
#     Node 1, Type 0, BuildingBlock: CEKHIL_clean_sbu_0, # of connection points: 4
#     Node 2, Type 0, BuildingBlock: CEKHIL_clean_sbu_0, # of connection points: 4
#     Node 3, Type 0, BuildingBlock: CEKHIL_clean_sbu_0, # of connection points: 4
#     Node 4, Type 0, BuildingBlock: CEKHIL_clean_sbu_0, # of connection points: 4
#     Node 5, Type 0, BuildingBlock: CEKHIL_clean_sbu_0, # of connection points: 4
#     Node 6, Type 0, BuildingBlock: CEKHIL_clean_sbu_0, # of connection points: 4
#     Node 7, Type 0, BuildingBlock: CEKHIL_clean_sbu_0, # of connection points: 4
#     Edge 8, Type (0, 0), BuildingBlock: XIVTED_clean_linker_0, # of connection points: 2
#     Edge 9, Type (0, 0), BuildingBlock: XIVTED_clean_linker_0, # of connection points: 2
#     Edge 10, Type (0, 0), BuildingBlock: XIVTED_clean_linker_0, # of connection points: 2
#     Edge 11, Type (0, 0), BuildingBlock: XIVTED_clean_linker_0, # of connection points: 2
#     Edge 12, Type (0, 0), BuildingBlock: XIVTED_clean_linker_0, # of connection points: 2
#     Edge 13, Type (0, 0), BuildingBlock: XIVTED_clean_linker_0, # of connection points: 2
#     Edge 14, Type (0, 0), BuildingBlock: XIVTED_clean_linker_0, # of connection points: 2
#     Edge 15, Type (0, 0), BuildingBlock: XIVTED_clean_linker_0, # of connection points: 2
#     Edge 16, Type (0, 0), BuildingBlock: XIVTED_clean_linker_0, # of connection points: 2
#     Edge 17, Type (0, 0), BuildingBlock: XIVTED_clean_linker_0, # of connection points: 2
#     Edge 18, Type (0, 0), BuildingBlock: XIVTED_clean_linker_0, # of connection points: 2
#     Edge 19, Type (0, 0), BuildingBlock: XIVTED_clean_linker_0, # of connection points: 2
#     Edge 20, Type (0, 0), BuildingBlock: XIVTED_clean_linker_0, # of connection points: 2
#     Edge 21, Type (0, 0), BuildingBlock: XIVTED_clean_linker_0, # of connection points: 2
#     Edge 22, Type (0, 0), BuildingBlock: XIVTED_clean_linker_0, # of connection points: 2
#     Edge 23, Type (0, 0), BuildingBlock: XIVTED_clean_linker_0, # of connection points: 2
# Relax obj value: 0.017
# Max RMSD: 0.041
# Mean RMSD: 0.041
data_MOF--net-mok--node1-CEKHIL_clean_sbu_0--edge1-XIVTED_clean_linker_0
_symmetry_space_group_name_H-M    P1
_symmetry_Int_Tables_number       1
_symmetry_cell_setting            triclinic
loop_
_symmetry_equiv_pos_as_xyz
'x, y, z'
_cell_length_a     53.548807
_cell_length_b     15.37703
_cell_length_c     27.292253
_cell_angle_alpha  89.994344
_cell_angle_beta   90.018534
_cell_angle_gamma 89.995552
loop_
_atom_site_label
_atom_site_type_symbol
_atom_site_fract_x
_atom_site_fract_y
_atom_site_fract_z
_atom_type_partial_charge
Co0 Co 0.6133 0.30602 0.01744 0.0
O1 O 0.57772 0.28824 0.01917 0.0
O2 O 0.60482 0.19106 0.99224 0.0
C3 C 0.61652 0.36045 0.09369 0.0
O4 O 0.65166 0.30235 0.0123 0.0
Co5 Co 0.63401 0.49504 0.02671 0.0
O6 O 0.66666 0.43507 0.03149 0.0
C7 C 0.60968 0.43868 0.9354 0.0
C8 C 0.58164 0.21151 0.00118 0.0
C9 C 0.66998 0.35507 0.02098 0.0
O10 O 0.61022 0.3591 0.95012 0.0
O11 O 0.616 0.50293 0.96253 0.0
O12 O 0.61589 0.27679 0.08703 0.0
O13 O 0.61285 0.40702 0.05512 0.0
Co14 Co 0.40559 0.70124 0.0201 0.0
O15 O 0.44121 0.71838 0.0216 0.0
O16 O 0.41419 0.81595 0.99479 0.0
C17 C 0.40243 0.64677 0.09637 0.0
O18 O 0.36725 0.70582 0.01509 0.0
Co19 Co 0.3844 0.51296 0.0295 0.0
O20 O 0.35191 0.57385 0.03479 0.0
C21 C 0.40846 0.56875 0.93777 0.0
C22 C 0.43736 0.79512 0.00354 0.0
C23 C 0.34879 0.65385 0.02405 0.0
O24 O 0.40844 0.64819 0.95275 0.0
O25 O 0.40188 0.50467 0.96479 0.0
O26 O 0.40319 0.73043 0.08973 0.0
O27 O 0.40591 0.60015 0.05776 0.0
Co28 Co 0.61246 0.69796 0.49784 0.0
O29 O 0.57685 0.71532 0.49624 0.0
O30 O 0.60389 0.81262 0.52327 0.0
C31 C 0.6157 0.64389 0.42154 0.0
O32 O 0.6508 0.70232 0.50293 0.0
Co33 Co 0.63356 0.50953 0.48826 0.0
O34 O 0.6661 0.57018 0.4834 0.0
C35 C 0.60921 0.56489 0.57973 0.0
C36 C 0.58072 0.79199 0.51436 0.0
C37 C 0.66924 0.6502 0.49408 0.0
O38 O 0.60953 0.64453 0.5651 0.0
O39 O 0.61567 0.50092 0.55252 0.0
O40 O 0.61494 0.72752 0.42829 0.0
O41 O 0.61214 0.59709 0.46005 0.0
Co42 Co 0.40508 0.30458 0.49964 0.0
O43 O 0.44067 0.2867 0.49812 0.0
O44 O 0.41349 0.18917 0.52429 0.0
C45 C 0.40203 0.36038 0.42366 0.0
O46 O 0.36672 0.30084 0.50445 0.0
Co47 Co 0.38439 0.49371 0.49134 0.0
O48 O 0.35171 0.43402 0.48627 0.0
C49 C 0.40838 0.43554 0.58265 0.0
C50 C 0.43669 0.20969 0.51567 0.0
C51 C 0.3484 0.35377 0.49618 0.0
O52 O 0.40802 0.35632 0.56732 0.0
O53 O 0.40207 0.50032 0.55592 0.0
O54 O 0.40264 0.27661 0.4299 0.0
O55 O 0.40563 0.4063 0.4625 0.0
Co56 Co 0.11261 0.80483 0.01557 0.0
O57 O 0.07703 0.78605 0.01716 0.0
O58 O 0.10444 0.68924 0.99108 0.0
C59 C 0.11559 0.86116 0.09137 0.0
O60 O 0.15096 0.8015 0.01074 0.0
Co61 Co 0.13339 0.99396 0.02394 0.0
O62 O 0.16608 0.93433 0.02928 0.0
C63 C 0.10883 0.93615 0.93311 0.0
C64 C 0.0812 0.70902 -0.00024 0.0
C65 C 0.16932 0.85411 0.01926 0.0
O66 O 0.10956 0.85664 0.94793 0.0
O67 O 0.1151 1.00068 0.96006 0.0
O68 O 0.11508 0.7773 0.08541 0.0
O69 O 0.11199 0.90671 0.05241 0.0
Co70 Co 0.90529 0.19749 0.01815 0.0
O71 O 0.94083 0.21708 0.01965 0.0
O72 O 0.91322 0.31326 0.99359 0.0
C73 C 0.9025 0.141 0.09398 0.0
O74 O 0.86692 0.19978 0.01331 0.0
Co75 Co 0.88496 0.00776 0.02653 0.0
O76 O 0.85218 0.06659 0.03214 0.0
C77 C 0.90904 0.06653 0.93538 0.0
C78 C 0.93651 0.29393 0.00214 0.0
C79 C 0.8487 0.14664 0.02195 0.0
O80 O 0.90839 0.14588 0.95049 0.0
O81 O 0.90286 0.00172 0.96221 0.0
O82 O 0.90282 0.22488 0.08803 0.0
O83 O 0.90616 0.09561 0.055 0.0
Co84 Co 0.1131 0.19606 0.49625 0.0
O85 O 0.07756 0.21551 0.49466 0.0
O86 O 0.10509 0.31137 0.52141 0.0
C87 C 0.116 0.14098 0.42014 0.0
O88 O 0.15146 0.19835 0.5013 0.0
Co89 Co 0.13349 0.0065 0.48682 0.0
O90 O 0.16622 0.06569 0.48135 0.0
C91 C 0.10914 0.06337 0.57804 0.0
C92 C 0.08182 0.29209 0.51259 0.0
C93 C 0.16969 0.14549 0.49215 0.0
O94 O 0.10992 0.14308 0.56357 0.0
O95 O 0.11533 0.99914 0.55079 0.0
O96 O 0.11565 0.22475 0.42653 0.0
O97 O 0.11232 0.09492 0.45886 0.0
Co98 Co 0.90544 0.80169 0.49799 0.0
O99 O 0.94102 0.78308 0.49645 0.0
O100 O 0.91363 0.68607 0.52241 0.0
C101 C 0.90249 0.85832 0.42222 0.0
O102 O 0.86708 0.79817 0.50283 0.0
Co103 Co 0.88454 0.99067 0.48978 0.0
O104 O 0.85191 0.93083 0.48411 0.0
C105 C 0.90886 0.93252 0.58085 0.0
C106 C 0.93688 0.70601 0.51383 0.0
C107 C 0.84869 0.85063 0.49423 0.0
O108 O 0.90843 0.85318 0.5657 0.0
O109 O 0.90247 0.99715 0.55407 0.0
O110 O 0.90301 0.77444 0.4281 0.0
O111 O 0.90603 0.90373 0.46124 0.0
H112 H 0.80609 0.04839 0.02563 0.0
H113 H 0.71261 0.45317 0.02154 0.0
H114 H 0.83079 0.31472 0.01254 0.0
H115 H 0.68776 0.18632 0.0144 0.0
H116 H 0.75573 0.40355 0.01965 0.0
H117 H 0.76293 0.0977 0.02306 0.0
C118 C 0.80252 0.11746 0.02221 0.0
C119 C 0.82233 0.17749 0.01947 0.0
C120 C 0.7409 0.35572 0.01836 0.0
C121 C 0.77245 0.23444 0.01654 0.0
C122 C 0.71614 0.38391 0.01957 0.0
C123 C 0.6963 0.32384 0.01835 0.0
C124 C 0.74615 0.26649 0.01623 0.0
C125 C 0.70233 0.23509 0.01542 0.0
C126 C 0.77774 0.14545 0.02061 0.0
C127 C 0.81626 0.26597 0.0148 0.0
N128 N 0.72669 0.20914 0.01472 0.0
N129 N 0.79189 0.29172 0.0137 0.0
H130 H 0.18663 0.68491 0.01393 0.0
H131 H 0.33161 0.82236 0.01228 0.0
H132 H 0.21222 0.95103 0.01971 0.0
H133 H 0.30578 0.55793 0.02891 0.0
H134 H 0.28796 0.87067 0.00877 0.0
H135 H 0.2303 0.63666 0.01304 0.0
C136 C 0.20135 0.7332 0.01483 0.0
C137 C 0.19559 0.82218 0.01715 0.0
C138 C 0.29191 0.80206 0.01316 0.0
C139 C 0.2457 0.76744 0.01602 0.0
C140 C 0.31686 0.77445 0.0151 0.0
C141 C 0.32255 0.68594 0.02111 0.0
C142 C 0.27247 0.74073 0.01692 0.0
C143 C 0.30249 0.62693 0.02452 0.0
C144 C 0.2263 0.70564 0.01444 0.0
C145 C 0.21559 0.88168 0.01826 0.0
N146 N 0.27847 0.65531 0.02235 0.0
N147 N 0.23964 0.85331 0.01768 0.0
H148 H 0.83143 0.6818 0.50314 0.0
H149 H 0.68644 0.81927 0.50226 0.0
H150 H 0.80574 0.94718 0.49104 0.0
H151 H 0.7122 0.55373 0.49216 0.0
H152 H 0.7301 0.86769 0.50447 0.0
H153 H 0.78777 0.63355 0.5054 0.0
C154 C 0.8167 0.72994 0.50108 0.0
C155 C 0.82243 0.8187 0.49667 0.0
C156 C 0.72613 0.7988 0.50182 0.0
C157 C 0.77233 0.76395 0.49939 0.0
C158 C 0.70118 0.77114 0.50066 0.0
C159 C 0.69548 0.68229 0.49677 0.0
C160 C 0.74556 0.7372 0.49944 0.0
C161 C 0.71552 0.62299 0.49484 0.0
C162 C 0.79175 0.70237 0.50228 0.0
C163 C 0.8024 0.87799 0.49417 0.0
N164 N 0.73954 0.65145 0.4962 0.0
N165 N 0.77837 0.84962 0.49558 0.0
H166 H 0.21233 0.04795 0.48489 0.0
H167 H 0.30582 0.45194 0.4989 0.0
H168 H 0.18761 0.31276 0.50557 0.0
H169 H 0.33063 0.18476 0.49884 0.0
H170 H 0.26268 0.40228 0.49994 0.0
H171 H 0.25547 0.09712 0.48823 0.0
C172 C 0.21589 0.11665 0.49016 0.0
C173 C 0.19607 0.17629 0.49483 0.0
C174 C 0.2775 0.35438 0.49983 0.0
C175 C 0.24595 0.23309 0.49867 0.0
C176 C 0.30227 0.3826 0.4991 0.0
C177 C 0.32209 0.32245 0.49853 0.0
C178 C 0.27225 0.26508 0.49965 0.0
C179 C 0.31607 0.23357 0.49926 0.0
C180 C 0.24066 0.14455 0.49219 0.0
C181 C 0.20214 0.2643 0.50176 0.0
N182 N 0.29171 0.20763 0.49951 0.0
N183 N 0.22651 0.29001 0.50328 0.0
H184 H 0.62234 0.2791 0.18216 0.0
H185 H 0.62148 0.72555 0.33313 0.0
H186 H 0.61991 0.53311 0.11499 0.0
H187 H 0.61955 0.4714 0.40017 0.0
H188 H 0.6255 0.65634 0.25277 0.0
H189 H 0.62593 0.34851 0.26252 0.0
C190 C 0.62274 0.34942 0.18433 0.0
C191 C 0.62059 0.40049 0.14203 0.0
C192 C 0.62435 0.61575 0.28512 0.0
C193 C 0.62462 0.48027 0.23355 0.0
C194 C 0.62208 0.65525 0.33093 0.0
C195 C 0.61995 0.60407 0.3732 0.0
C196 C 0.62447 0.52452 0.2817 0.0
C197 C 0.62094 0.51329 0.36842 0.0
C198 C 0.62477 0.38904 0.23016 0.0
C199 C 0.62133 0.4913 0.14679 0.0
N200 N 0.62298 0.47639 0.32345 0.0
N201 N 0.62313 0.52832 0.19177 0.0
H202 H 0.3972 0.72794 0.18509 0.0
H203 H 0.39595 0.28021 0.33495 0.0
H204 H 0.39838 0.47424 0.11747 0.0
H205 H 0.39907 0.53344 0.4029 0.0
H206 H 0.39236 0.35048 0.25485 0.0
H207 H 0.39343 0.65821 0.26538 0.0
C208 C 0.39648 0.65764 0.18714 0.0
C209 C 0.39832 0.60672 0.14472 0.0
C210 C 0.39368 0.39068 0.28732 0.0
C211 C 0.39408 0.52659 0.23614 0.0
C212 C 0.39571 0.35056 0.33301 0.0
C213 C 0.39803 0.40112 0.37546 0.0
C214 C 0.39401 0.48193 0.2842 0.0
C215 C 0.3975 0.492 0.37098 0.0
C216 C 0.39435 0.61785 0.23292 0.0
C217 C 0.3972 0.51594 0.14934 0.0
N218 N 0.39569 0.52953 0.32611 0.0
N219 N 0.3953 0.47875 0.19426 0.0
H220 H 0.41807 0.68518 0.86374 0.0
H221 H 0.41648 0.31775 0.65674 0.0
H222 H 0.41337 0.40972 0.89369 0.0
H223 H 0.41494 0.59366 0.62687 0.0
H224 H 0.42224 0.34987 0.74367 0.0
H225 H 0.42382 0.65219 0.77695 0.0
C226 C 0.41849 0.61779 0.85223 0.0
C227 C 0.4148 0.55024 0.88605 0.0
C228 C 0.42086 0.40332 0.71797 0.0
C229 C 0.42131 0.51208 0.78673 0.0
C230 C 0.41761 0.38502 0.66829 0.0
C231 C 0.41479 0.45306 0.63446 0.0
C232 C 0.4213 0.49021 0.73391 0.0
C233 C 0.41662 0.53899 0.65163 0.0
C234 C 0.42175 0.59899 0.80263 0.0
C235 C 0.41575 0.46409 0.86893 0.0
N236 N 0.41952 0.55506 0.70017 0.0
N237 N 0.41867 0.44757 0.82044 0.0
H238 H 0.6018 0.59763 0.89296 0.0
H239 H 0.60195 0.40556 0.62216 0.0
H240 H 0.60246 0.32279 0.86008 0.0
H241 H 0.60166 0.68038 0.6551 0.0
H242 H 0.59623 0.37422 0.70886 0.0
H243 H 0.59585 0.62867 0.8063 0.0
C244 C 0.6005 0.54363 0.86761 0.0
C245 C 0.60308 0.45738 0.88384 0.0
C246 C 0.59719 0.4414 0.69711 0.0
C247 C 0.59632 0.49283 0.78428 0.0
C248 C 0.60049 0.45948 0.64753 0.0
C249 C 0.60274 0.54585 0.63131 0.0
C250 C 0.59625 0.51006 0.73089 0.0
C251 C 0.60031 0.61282 0.66591 0.0
C252 C 0.59706 0.56154 0.81805 0.0
C253 C 0.60084 0.39028 0.84926 0.0
N254 N 0.59749 0.59345 0.71417 0.0
N255 N 0.59789 0.4095 0.80101 0.0
H256 H 0.11976 0.03431 0.11063 0.0
H257 H 0.12065 0.96823 0.40051 0.0
H258 H 0.12082 0.78282 0.18087 0.0
H259 H 0.12059 0.22005 0.33062 0.0
H260 H 0.12433 0.89953 0.32043 0.0
H261 H 0.12365 0.10351 0.19063 0.0
C262 C 0.12097 0.99359 0.14293 0.0
C263 C 0.11975 0.90269 0.13925 0.0
C264 C 0.12368 0.96982 0.32253 0.0
C265 C 0.1241 0.98154 0.23094 0.0
C266 C 0.12157 0.00916 0.36826 0.0
C267 C 0.1201 0.09998 0.37209 0.0
C268 C 0.12419 0.02164 0.28023 0.0
C269 C 0.12154 0.14978 0.32919 0.0
C270 C 0.1232 0.03319 0.1886 0.0
C271 C 0.12156 0.85313 0.18218 0.0
N272 N 0.12331 0.10986 0.28491 0.0
N273 N 0.12346 0.89329 0.22636 0.0
H274 H 0.89806 0.03147 0.40318 0.0
H275 H 0.8984 0.9678 0.11305 0.0
H276 H 0.8978 0.78042 0.33245 0.0
H277 H 0.89754 0.21889 0.18371 0.0
H278 H 0.89471 0.89817 0.19294 0.0
H279 H 0.89439 0.10108 0.32327 0.0
C280 C 0.89707 0.99092 0.37079 0.0
C281 C 0.89844 0.90003 0.37432 0.0
C282 C 0.89516 0.96849 0.19104 0.0
C283 C 0.89436 0.97939 0.2827 0.0
C284 C 0.89728 0.00836 0.14542 0.0
C285 C 0.89848 0.09927 0.14188 0.0
C286 C 0.89437 0.01988 0.23348 0.0
C287 C 0.8968 0.14858 0.18491 0.0
C288 C 0.89497 0.03077 0.32516 0.0
C289 C 0.89693 0.85072 0.33126 0.0
N290 N 0.89501 0.10817 0.22905 0.0
N291 N 0.89515 0.89112 0.28712 0.0
H292 H 0.91773 0.81545 0.65496 0.0
H293 H 0.91748 0.18383 0.86121 0.0
H294 H 0.91515 0.09111 0.62461 0.0
H295 H 0.91569 0.90811 0.89162 0.0
H296 H 0.92344 0.15108 0.77443 0.0
H297 H 0.92378 0.84835 0.74172 0.0
C298 C 0.91869 0.88283 0.66637 0.0
C299 C 0.91547 0.95054 0.63248 0.0
C300 C 0.92197 0.0978 0.80021 0.0
C301 C 0.92231 0.98861 0.7317 0.0
C302 C 0.91859 0.11648 0.84981 0.0
C303 C 0.91562 0.04869 0.88373 0.0
C304 C 0.92234 0.01079 0.78446 0.0
C305 C 0.91746 0.96262 0.86677 0.0
C306 C 0.92212 0.90159 0.71595 0.0
C307 C 0.91712 0.03665 0.64944 0.0
N308 N 0.92045 0.94618 0.8183 0.0
N309 N 0.92017 0.05316 0.69789 0.0
H310 H 0.10007 0.09472 0.89103 0.0
H311 H 0.1012 0.90409 0.61997 0.0
H312 H 0.10218 0.82018 0.85761 0.0
H313 H 0.1016 0.1787 0.65352 0.0
H314 H 0.09506 0.87232 0.70647 0.0
H315 H 0.09411 0.12599 0.80442 0.0
C316 C 0.09909 0.04081 0.86556 0.0
C317 C 0.1021 0.95463 0.88161 0.0
C318 C 0.09626 0.93956 0.6949 0.0
C319 C 0.09533 0.99036 0.78213 0.0
C320 C 0.0998 0.9579 0.64543 0.0
C321 C 0.10238 0.0443 0.62946 0.0
C322 C 0.0954 0.00799 0.72881 0.0
C323 C 0.10001 0.11111 0.66416 0.0
C324 C 0.09564 0.05886 0.81604 0.0
C325 C 0.10022 0.88762 0.84691 0.0
N326 N 0.09695 0.09147 0.71232 0.0
N327 N 0.09726 0.907 0.79868 0.0
H328 H 0.48706 0.75615 0.00329 0.0
H329 H 0.53196 0.25026 0.00027 0.0
H330 H 0.43625 0.97158 0.98561 0.0
H331 H 0.58283 0.03445 0.98501 0.0
H332 H 0.49682 0.14968 0.99444 0.0
H333 H 0.52223 0.85641 -0.0038 0.0
C334 C 0.48327 0.82462 -0.00239 0.0
C335 C 0.4586 0.85552 0.99529 0.0
C336 C 0.51563 0.1242 0.99195 0.0
C337 C 0.499 0.97119 0.98754 0.0
C338 C 0.53577 0.18162 -0.00463 0.0
C339 C 0.56044 0.15073 0.99337 0.0
C340 C 0.52008 0.03466 0.9871 0.0
C341 C 0.56415 0.06115 0.98673 0.0
C342 C 0.50343 0.88184 0.99346 0.0
C343 C 0.45492 0.94487 0.98764 0.0
N344 N 0.54419 0.00618 0.98434 0.0
N345 N 0.47489 0.99964 0.98453 0.0
H346 H 0.531 0.75346 0.51425 0.0
H347 H 0.4864 0.24801 0.51676 0.0
H348 H 0.58191 0.96847 0.53222 0.0
H349 H 0.43538 0.03258 0.53161 0.0
H350 H 0.52147 0.14713 0.52279 0.0
H351 H 0.49588 0.85405 0.52094 0.0
C352 C 0.53482 0.8219 0.51991 0.0
C353 C 0.5595 0.85259 0.52244 0.0
C354 C 0.50264 0.1218 0.52514 0.0
C355 C 0.51917 0.96864 0.52972 0.0
C356 C 0.48255 0.1794 0.5216 0.0
C357 C 0.45785 0.14871 0.52344 0.0
C358 C 0.49813 0.0323 0.52995 0.0
C359 C 0.45408 0.05913 0.53001 0.0
C360 C 0.51469 0.87932 0.52383 0.0
C361 C 0.56323 0.94192 0.53006 0.0
N362 N 0.474 0.00401 0.53253 0.0
N363 N 0.54329 0.99688 0.53294 0.0
H364 H 0.08333 0.53265 0.98243 0.0
H365 H 0.9342 0.47021 0.98438 0.0
H366 H 0.03123 0.74417 0.0007 0.0
H367 H 0.98649 0.25911 0.00224 0.0
H368 H 0.9695 0.57159 0.97779 0.0
H369 H 0.04797 0.43135 0.97706 0.0
C370 C 0.06448 0.55789 0.98484 0.0
C371 C 0.06027 0.64696 0.99234 0.0
C372 C 0.97322 0.50296 0.98288 0.0
C373 C 0.01971 0.53158 0.98616 0.0
C374 C 0.95307 0.44508 0.98646 0.0
C375 C 0.95736 0.35611 0.99419 0.0
C376 C 0.99784 0.47155 0.98658 0.0
C377 C 0.98225 0.32724 -0.00334 0.0
C378 C 0.0443 0.50005 0.98196 0.0
C379 C 0.0354 0.67597 0.99526 0.0
N380 N 1.00149 0.38463 0.99295 0.0
N381 N 0.01613 0.61859 0.99226 0.0
H382 H 0.084 0.4683 0.53063 0.0
H383 H 0.93484 0.52969 0.53133 0.0
H384 H 0.03188 0.25689 0.51229 0.0
H385 H 0.98683 0.74154 0.51321 0.0
H386 H 0.97025 0.42868 0.53714 0.0
H387 H 0.04863 0.56944 0.53702 0.0
C388 C 0.06515 0.44305 0.52843 0.0
C389 C 0.06093 0.35407 0.52059 0.0
C390 C 0.97388 0.49739 0.53217 0.0
C391 C 0.02036 0.46922 0.52796 0.0
C392 C 0.95367 0.55506 0.52904 0.0
C393 C 0.95784 0.64413 0.52144 0.0
C394 C 0.99846 0.5291 0.52815 0.0
C395 C 0.98269 0.67332 0.5187 0.0
C396 C 0.04496 0.50079 0.53188 0.0
C397 C 0.03606 0.32503 0.51795 0.0
N398 N 1.002 0.61611 0.52195 0.0
N399 N 0.01678 0.38229 0.52153 0.0
loop_
_geom_bond_atom_site_label_1
_geom_bond_atom_site_label_2
_geom_bond_distance
_geom_bond_site_symmetry_2
_ccdc_geom_bond_type
Co0 O1 2.216 . S
Co0 O2 2.091 . S
Co0 O4 2.004 . S
Co0 O10 2.021 1_554 S
Co0 O12 2.137 . S
Co0 O13 2.244 . S
O1 Co0 2.216 . S
O1 C8 1.247 . S
O2 Co0 2.091 . S
O2 C8 1.261 . S
C3 O12 1.247 . S
C3 O13 1.272 . S
O4 Co0 2.004 . S
O4 C9 1.259 . S
Co5 O6 2.061 . S
Co5 O11 2.052 1_554 S
Co5 O13 2.135 . S
O6 Co5 2.061 . S
O6 C9 1.235 . S
C7 O10 1.238 . S
C7 O11 1.241 . S
C8 O1 1.247 . S
C8 O2 1.261 . S
C9 O4 1.259 . S
C9 O6 1.235 . S
O10 Co0 2.021 1_556 S
O10 C7 1.238 . S
O11 Co5 2.052 1_556 S
O11 C7 1.241 . S
O12 Co0 2.137 . S
O12 C3 1.247 . S
O13 Co0 2.244 . S
O13 C3 1.272 . S
O13 Co5 2.135 . S
Co14 O15 2.216 . S
Co14 O16 2.091 . S
Co14 O18 2.004 . S
Co14 O24 2.021 1_554 S
Co14 O26 2.137 . S
Co14 O27 2.244 . S
O15 Co14 2.216 . S
O15 C22 1.247 . S
O16 Co14 2.091 . S
O16 C22 1.261 . S
C17 O26 1.247 . S
C17 O27 1.272 . S
O18 Co14 2.004 . S
O18 C23 1.259 . S
Co19 O20 2.061 . S
Co19 O25 2.052 1_554 S
Co19 O27 2.135 . S
O20 Co19 2.061 . S
O20 C23 1.235 . S
C21 O24 1.238 . S
C21 O25 1.241 . S
C22 O15 1.247 . S
C22 O16 1.261 . S
C23 O18 1.259 . S
C23 O20 1.235 . S
O24 Co14 2.021 1_556 S
O24 C21 1.238 . S
O25 Co19 2.052 1_556 S
O25 C21 1.241 . S
O26 Co14 2.137 . S
O26 C17 1.247 . S
O27 Co14 2.244 . S
O27 C17 1.272 . S
O27 Co19 2.135 . S
Co28 O29 2.216 . S
Co28 O30 2.091 . S
Co28 O32 2.004 . S
Co28 O38 2.021 . S
Co28 O40 2.137 . S
Co28 O41 2.244 . S
O29 Co28 2.216 . S
O29 C36 1.247 . S
O30 Co28 2.091 . S
O30 C36 1.261 . S
C31 O40 1.247 . S
C31 O41 1.272 . S
O32 Co28 2.004 . S
O32 C37 1.259 . S
Co33 O34 2.061 . S
Co33 O39 2.052 . S
Co33 O41 2.135 . S
O34 Co33 2.061 . S
O34 C37 1.235 . S
C35 O38 1.238 . S
C35 O39 1.241 . S
C36 O29 1.247 . S
C36 O30 1.261 . S
C37 O32 1.259 . S
C37 O34 1.235 . S
O38 Co28 2.021 . S
O38 C35 1.238 . S
O39 Co33 2.052 . S
O39 C35 1.241 . S
O40 Co28 2.137 . S
O40 C31 1.247 . S
O41 Co28 2.244 . S
O41 C31 1.272 . S
O41 Co33 2.135 . S
Co42 O43 2.216 . S
Co42 O44 2.091 . S
Co42 O46 2.004 . S
Co42 O52 2.021 . S
Co42 O54 2.137 . S
Co42 O55 2.244 . S
O43 Co42 2.216 . S
O43 C50 1.247 . S
O44 Co42 2.091 . S
O44 C50 1.261 . S
C45 O54 1.247 . S
C45 O55 1.272 . S
O46 Co42 2.004 . S
O46 C51 1.259 . S
Co47 O48 2.061 . S
Co47 O53 2.052 . S
Co47 O55 2.135 . S
O48 Co47 2.061 . S
O48 C51 1.235 . S
C49 O52 1.238 . S
C49 O53 1.241 . S
C50 O43 1.247 . S
C50 O44 1.261 . S
C51 O46 1.259 . S
C51 O48 1.235 . S
O52 Co42 2.021 . S
O52 C49 1.238 . S
O53 Co47 2.052 . S
O53 C49 1.241 . S
O54 Co42 2.137 . S
O54 C45 1.247 . S
O55 Co42 2.244 . S
O55 C45 1.272 . S
O55 Co47 2.135 . S
Co56 O57 2.216 . S
Co56 O58 2.091 . S
Co56 O60 2.004 . S
Co56 O66 2.021 1_554 S
Co56 O68 2.137 . S
Co56 O69 2.244 . S
O57 Co56 2.216 . S
O57 C64 1.247 . S
O58 Co56 2.091 . S
O58 C64 1.261 . S
C59 O68 1.247 . S
C59 O69 1.272 . S
O60 Co56 2.004 . S
O60 C65 1.259 . S
Co61 O62 2.061 . S
Co61 O67 2.052 1_554 S
Co61 O69 2.135 . S
O62 Co61 2.061 . S
O62 C65 1.235 . S
C63 O66 1.238 . S
C63 O67 1.241 . S
C64 O57 1.247 . S
C64 O58 1.261 . S
C65 O60 1.259 . S
C65 O62 1.235 . S
O66 Co56 2.021 1_556 S
O66 C63 1.238 . S
O67 Co61 2.052 1_556 S
O67 C63 1.241 . S
O68 Co56 2.137 . S
O68 C59 1.247 . S
O69 Co56 2.244 . S
O69 C59 1.272 . S
O69 Co61 2.135 . S
Co70 O71 2.216 . S
Co70 O72 2.091 . S
Co70 O74 2.004 . S
Co70 O80 2.021 1_554 S
Co70 O82 2.137 . S
Co70 O83 2.244 . S
O71 Co70 2.216 . S
O71 C78 1.247 . S
O72 Co70 2.091 . S
O72 C78 1.261 . S
C73 O82 1.247 . S
C73 O83 1.272 . S
O74 Co70 2.004 . S
O74 C79 1.259 . S
Co75 O76 2.061 . S
Co75 O81 2.052 1_554 S
Co75 O83 2.135 . S
O76 Co75 2.061 . S
O76 C79 1.235 . S
C77 O80 1.238 . S
C77 O81 1.241 . S
C78 O71 1.247 . S
C78 O72 1.261 . S
C79 O74 1.259 . S
C79 O76 1.235 . S
O80 Co70 2.021 1_556 S
O80 C77 1.238 . S
O81 Co75 2.052 1_556 S
O81 C77 1.241 . S
O82 Co70 2.137 . S
O82 C73 1.247 . S
O83 Co70 2.244 . S
O83 C73 1.272 . S
O83 Co75 2.135 . S
Co84 O85 2.216 . S
Co84 O86 2.091 . S
Co84 O88 2.004 . S
Co84 O94 2.021 . S
Co84 O96 2.137 . S
Co84 O97 2.244 . S
O85 Co84 2.216 . S
O85 C92 1.247 . S
O86 Co84 2.091 . S
O86 C92 1.261 . S
C87 O96 1.247 . S
C87 O97 1.272 . S
O88 Co84 2.004 . S
O88 C93 1.259 . S
Co89 O90 2.061 . S
Co89 O95 2.052 . S
Co89 O97 2.135 . S
O90 Co89 2.061 . S
O90 C93 1.235 . S
C91 O94 1.238 . S
C91 O95 1.241 . S
C92 O85 1.247 . S
C92 O86 1.261 . S
C93 O88 1.259 . S
C93 O90 1.235 . S
O94 Co84 2.021 . S
O94 C91 1.238 . S
O95 Co89 2.052 . S
O95 C91 1.241 . S
O96 Co84 2.137 . S
O96 C87 1.247 . S
O97 Co84 2.244 . S
O97 C87 1.272 . S
O97 Co89 2.135 . S
Co98 O99 2.216 . S
Co98 O100 2.091 . S
Co98 O102 2.004 . S
Co98 O108 2.021 . S
Co98 O110 2.137 . S
Co98 O111 2.244 . S
O99 Co98 2.216 . S
O99 C106 1.247 . S
O100 Co98 2.091 . S
O100 C106 1.261 . S
C101 O110 1.247 . S
C101 O111 1.272 . S
O102 Co98 2.004 . S
O102 C107 1.259 . S
Co103 O104 2.061 . S
Co103 O109 2.052 . S
Co103 O111 2.135 . S
O104 Co103 2.061 . S
O104 C107 1.235 . S
C105 O108 1.238 . S
C105 O109 1.241 . S
C106 O99 1.247 . S
C106 O100 1.261 . S
C107 O102 1.259 . S
C107 O104 1.235 . S
O108 Co98 2.021 . S
O108 C105 1.238 . S
O109 Co103 2.052 . S
O109 C105 1.241 . S
O110 Co98 2.137 . S
O110 C101 1.247 . S
O111 Co98 2.244 . S
O111 C101 1.272 . S
O111 Co103 2.135 . S
H112 C118 0.930 . S
H113 C122 0.930 . S
H114 C127 0.929 . S
H115 C125 0.929 . S
H116 C120 0.929 . S
H117 C126 0.929 . S
C118 H112 0.930 . S
C118 C119 1.367 . S
C118 C126 1.378 . S
C119 C118 1.367 . S
C119 C127 1.433 1_554 S
C120 H116 0.929 . S
C120 C122 1.378 . S
C120 C124 1.350 1_556 S
C121 C124 1.463 . S
C121 C126 1.350 . S
C121 N129 1.427 1_554 S
C122 H113 0.930 . S
C122 C120 1.378 . S
C122 C123 1.367 1_556 S
C123 C122 1.367 1_554 S
C123 C125 1.433 . S
C124 C120 1.350 1_554 S
C124 C121 1.463 . S
C124 N128 1.427 . S
C125 H115 0.929 . S
C125 C123 1.433 . S
C125 N128 1.384 . S
C126 H117 0.929 . S
C126 C118 1.378 . S
C126 C121 1.350 . S
C127 H114 0.929 . S
C127 C119 1.433 1_556 S
C127 N129 1.384 . S
N128 C124 1.427 . S
N128 C125 1.384 . S
N129 C121 1.427 1_556 S
N129 C127 1.384 . S
H130 C136 0.930 . S
H131 C140 0.930 . S
H132 C145 0.929 . S
H133 C143 0.929 . S
H134 C138 0.929 . S
H135 C144 0.929 . S
C136 H130 0.930 . S
C136 C137 1.367 . S
C136 C144 1.378 . S
C137 C136 1.367 . S
C137 C145 1.433 1_554 S
C138 H134 0.929 . S
C138 C140 1.378 . S
C138 C142 1.350 1_556 S
C139 C142 1.463 . S
C139 C144 1.350 . S
C139 N147 1.427 1_554 S
C140 H131 0.930 . S
C140 C138 1.378 . S
C140 C141 1.367 1_556 S
C141 C140 1.367 1_554 S
C141 C143 1.433 . S
C142 C138 1.350 1_554 S
C142 C139 1.463 . S
C142 N146 1.427 . S
C143 H133 0.929 . S
C143 C141 1.433 . S
C143 N146 1.384 . S
C144 H135 0.929 . S
C144 C136 1.378 . S
C144 C139 1.350 . S
C145 H132 0.929 . S
C145 C137 1.433 1_556 S
C145 N147 1.384 . S
N146 C142 1.427 . S
N146 C143 1.384 . S
N147 C139 1.427 1_556 S
N147 C145 1.384 . S
H148 C154 0.930 . S
H149 C158 0.930 . S
H150 C163 0.929 . S
H151 C161 0.929 . S
H152 C156 0.929 . S
H153 C162 0.929 . S
C154 H148 0.930 . S
C154 C155 1.367 . S
C154 C162 1.378 . S
C155 C154 1.367 . S
C155 C163 1.433 . S
C156 H152 0.929 . S
C156 C158 1.378 . S
C156 C160 1.350 . S
C157 C160 1.463 . S
C157 C162 1.350 . S
C157 N165 1.427 . S
C158 H149 0.930 . S
C158 C156 1.378 . S
C158 C159 1.367 . S
C159 C158 1.367 . S
C159 C161 1.433 . S
C160 C156 1.350 . S
C160 C157 1.463 . S
C160 N164 1.427 . S
C161 H151 0.929 . S
C161 C159 1.433 . S
C161 N164 1.384 . S
C162 H153 0.929 . S
C162 C154 1.378 . S
C162 C157 1.350 . S
C163 H150 0.929 . S
C163 C155 1.433 . S
C163 N165 1.384 . S
N164 C160 1.427 . S
N164 C161 1.384 . S
N165 C157 1.427 . S
N165 C163 1.384 . S
H166 C172 0.930 . S
H167 C176 0.930 . S
H168 C181 0.929 . S
H169 C179 0.929 . S
H170 C174 0.929 . S
H171 C180 0.929 . S
C172 H166 0.930 . S
C172 C173 1.367 . S
C172 C180 1.378 . S
C173 C172 1.367 . S
C173 C181 1.433 . S
C174 H170 0.929 . S
C174 C176 1.378 . S
C174 C178 1.350 . S
C175 C178 1.463 . S
C175 C180 1.350 . S
C175 N183 1.427 . S
C176 H167 0.930 . S
C176 C174 1.378 . S
C176 C177 1.367 . S
C177 C176 1.367 . S
C177 C179 1.433 . S
C178 C174 1.350 . S
C178 C175 1.463 . S
C178 N182 1.427 . S
C179 H169 0.929 . S
C179 C177 1.433 . S
C179 N182 1.384 . S
C180 H171 0.929 . S
C180 C172 1.378 . S
C180 C175 1.350 . S
C181 H168 0.929 . S
C181 C173 1.433 . S
C181 N183 1.384 . S
N182 C178 1.427 . S
N182 C179 1.384 . S
N183 C175 1.427 . S
N183 C181 1.384 . S
H184 C190 0.930 . S
H185 C194 0.930 . S
H186 C199 0.929 . S
H187 C197 0.929 . S
H188 C192 0.929 . S
H189 C198 0.929 . S
C190 H184 0.930 . S
C190 C191 1.367 . S
C190 C198 1.378 . S
C191 C190 1.367 . S
C191 C199 1.433 . S
C192 H188 0.929 . S
C192 C194 1.378 . S
C192 C196 1.350 . S
C193 C196 1.463 . S
C193 C198 1.350 . S
C193 N201 1.427 . S
C194 H185 0.930 . S
C194 C192 1.378 . S
C194 C195 1.367 . S
C195 C194 1.367 . S
C195 C197 1.433 . S
C196 C192 1.350 . S
C196 C193 1.463 . S
C196 N200 1.427 . S
C197 H187 0.929 . S
C197 C195 1.433 . S
C197 N200 1.384 . S
C198 H189 0.929 . S
C198 C190 1.378 . S
C198 C193 1.350 . S
C199 H186 0.929 . S
C199 C191 1.433 . S
C199 N201 1.384 . S
N200 C196 1.427 . S
N200 C197 1.384 . S
N201 C193 1.427 . S
N201 C199 1.384 . S
H202 C208 0.930 . S
H203 C212 0.930 . S
H204 C217 0.929 . S
H205 C215 0.929 . S
H206 C210 0.929 . S
H207 C216 0.929 . S
C208 H202 0.930 . S
C208 C209 1.367 . S
C208 C216 1.378 . S
C209 C208 1.367 . S
C209 C217 1.433 . S
C210 H206 0.929 . S
C210 C212 1.378 . S
C210 C214 1.350 . S
C211 C214 1.463 . S
C211 C216 1.350 . S
C211 N219 1.427 . S
C212 H203 0.930 . S
C212 C210 1.378 . S
C212 C213 1.367 . S
C213 C212 1.367 . S
C213 C215 1.433 . S
C214 C210 1.350 . S
C214 C211 1.463 . S
C214 N218 1.427 . S
C215 H205 0.929 . S
C215 C213 1.433 . S
C215 N218 1.384 . S
C216 H207 0.929 . S
C216 C208 1.378 . S
C216 C211 1.350 . S
C217 H204 0.929 . S
C217 C209 1.433 . S
C217 N219 1.384 . S
N218 C214 1.427 . S
N218 C215 1.384 . S
N219 C211 1.427 . S
N219 C217 1.384 . S
H220 C226 0.930 . S
H221 C230 0.930 . S
H222 C235 0.929 . S
H223 C233 0.929 . S
H224 C228 0.929 . S
H225 C234 0.929 . S
C226 H220 0.930 . S
C226 C227 1.367 . S
C226 C234 1.378 . S
C227 C226 1.367 . S
C227 C235 1.433 . S
C228 H224 0.929 . S
C228 C230 1.378 . S
C228 C232 1.350 . S
C229 C232 1.463 . S
C229 C234 1.350 . S
C229 N237 1.427 . S
C230 H221 0.930 . S
C230 C228 1.378 . S
C230 C231 1.367 . S
C231 C230 1.367 . S
C231 C233 1.433 . S
C232 C228 1.350 . S
C232 C229 1.463 . S
C232 N236 1.427 . S
C233 H223 0.929 . S
C233 C231 1.433 . S
C233 N236 1.384 . S
C234 H225 0.929 . S
C234 C226 1.378 . S
C234 C229 1.350 . S
C235 H222 0.929 . S
C235 C227 1.433 . S
C235 N237 1.384 . S
N236 C232 1.427 . S
N236 C233 1.384 . S
N237 C229 1.427 . S
N237 C235 1.384 . S
H238 C244 0.930 . S
H239 C248 0.930 . S
H240 C253 0.929 . S
H241 C251 0.929 . S
H242 C246 0.929 . S
H243 C252 0.929 . S
C244 H238 0.930 . S
C244 C245 1.367 . S
C244 C252 1.378 . S
C245 C244 1.367 . S
C245 C253 1.433 . S
C246 H242 0.929 . S
C246 C248 1.378 . S
C246 C250 1.350 . S
C247 C250 1.463 . S
C247 C252 1.350 . S
C247 N255 1.427 . S
C248 H239 0.930 . S
C248 C246 1.378 . S
C248 C249 1.367 . S
C249 C248 1.367 . S
C249 C251 1.433 . S
C250 C246 1.350 . S
C250 C247 1.463 . S
C250 N254 1.427 . S
C251 H241 0.929 . S
C251 C249 1.433 . S
C251 N254 1.384 . S
C252 H243 0.929 . S
C252 C244 1.378 . S
C252 C247 1.350 . S
C253 H240 0.929 . S
C253 C245 1.433 . S
C253 N255 1.384 . S
N254 C250 1.427 . S
N254 C251 1.384 . S
N255 C247 1.427 . S
N255 C253 1.384 . S
H256 C262 0.930 1_545 S
H257 C266 0.930 1_565 S
H258 C271 0.929 . S
H259 C269 0.929 . S
H260 C264 0.929 . S
H261 C270 0.929 . S
C262 H256 0.930 1_565 S
C262 C263 1.367 . S
C262 C270 1.378 1_565 S
C263 C262 1.367 . S
C263 C271 1.433 . S
C264 H260 0.929 . S
C264 C266 1.378 1_565 S
C264 C268 1.350 1_565 S
C265 C268 1.463 1_565 S
C265 C270 1.350 1_565 S
C265 N273 1.427 . S
C266 H257 0.930 1_545 S
C266 C264 1.378 1_545 S
C266 C267 1.367 . S
C267 C266 1.367 . S
C267 C269 1.433 . S
C268 C264 1.350 1_545 S
C268 C265 1.463 1_545 S
C268 N272 1.427 . S
C269 H259 0.929 . S
C269 C267 1.433 . S
C269 N272 1.384 . S
C270 H261 0.929 . S
C270 C262 1.378 1_545 S
C270 C265 1.350 1_545 S
C271 H258 0.929 . S
C271 C263 1.433 . S
C271 N273 1.384 . S
N272 C268 1.427 . S
N272 C269 1.384 . S
N273 C265 1.427 . S
N273 C271 1.384 . S
H274 C280 0.930 . S
H275 C284 0.930 . S
H276 C289 0.929 . S
H277 C287 0.929 . S
H278 C282 0.929 . S
H279 C288 0.929 . S
C280 H274 0.930 . S
C280 C281 1.367 1_545 S
C280 C288 1.378 . S
C281 C280 1.367 1_565 S
C281 C289 1.433 . S
C282 H278 0.929 . S
C282 C284 1.378 . S
C282 C286 1.350 1_565 S
C283 C286 1.463 1_565 S
C283 C288 1.350 1_565 S
C283 N291 1.427 . S
C284 H275 0.930 . S
C284 C282 1.378 . S
C284 C285 1.367 1_565 S
C285 C284 1.367 1_545 S
C285 C287 1.433 . S
C286 C282 1.350 1_545 S
C286 C283 1.463 1_545 S
C286 N290 1.427 . S
C287 H277 0.929 . S
C287 C285 1.433 . S
C287 N290 1.384 . S
C288 H279 0.929 . S
C288 C280 1.378 . S
C288 C283 1.350 1_545 S
C289 H276 0.929 . S
C289 C281 1.433 . S
C289 N291 1.384 . S
N290 C286 1.427 . S
N290 C287 1.384 . S
N291 C283 1.427 . S
N291 C289 1.384 . S
H292 C298 0.930 . S
H293 C302 0.930 . S
H294 C307 0.929 . S
H295 C305 0.929 . S
H296 C300 0.929 . S
H297 C306 0.929 . S
C298 H292 0.930 . S
C298 C299 1.367 . S
C298 C306 1.378 . S
C299 C298 1.367 . S
C299 C307 1.433 1_565 S
C300 H296 0.929 . S
C300 C302 1.378 . S
C300 C304 1.350 . S
C301 C304 1.463 1_565 S
C301 C306 1.350 . S
C301 N309 1.427 1_565 S
C302 H293 0.930 . S
C302 C300 1.378 . S
C302 C303 1.367 . S
C303 C302 1.367 . S
C303 C305 1.433 1_545 S
C304 C300 1.350 . S
C304 C301 1.463 1_545 S
C304 N308 1.427 1_545 S
C305 H295 0.929 . S
C305 C303 1.433 1_565 S
C305 N308 1.384 . S
C306 H297 0.929 . S
C306 C298 1.378 . S
C306 C301 1.350 . S
C307 H294 0.929 . S
C307 C299 1.433 1_545 S
C307 N309 1.384 . S
N308 C304 1.427 1_565 S
N308 C305 1.384 . S
N309 C301 1.427 1_545 S
N309 C307 1.384 . S
H310 C316 0.930 . S
H311 C320 0.930 . S
H312 C325 0.929 . S
H313 C323 0.929 . S
H314 C318 0.929 . S
H315 C324 0.929 . S
C316 H310 0.930 . S
C316 C317 1.367 1_545 S
C316 C324 1.378 . S
C317 C316 1.367 1_565 S
C317 C325 1.433 . S
C318 H314 0.929 . S
C318 C320 1.378 . S
C318 C322 1.350 1_565 S
C319 C322 1.463 1_565 S
C319 C324 1.350 1_565 S
C319 N327 1.427 . S
C320 H311 0.930 . S
C320 C318 1.378 . S
C320 C321 1.367 1_565 S
C321 C320 1.367 1_545 S
C321 C323 1.433 . S
C322 C318 1.350 1_545 S
C322 C319 1.463 1_545 S
C322 N326 1.427 . S
C323 H313 0.929 . S
C323 C321 1.433 . S
C323 N326 1.384 . S
C324 H315 0.929 . S
C324 C316 1.378 . S
C324 C319 1.350 1_545 S
C325 H312 0.929 . S
C325 C317 1.433 . S
C325 N327 1.384 . S
N326 C322 1.427 . S
N326 C323 1.384 . S
N327 C319 1.427 . S
N327 C325 1.384 . S
H328 C334 0.930 . S
H329 C338 0.930 . S
H330 C343 0.929 . S
H331 C341 0.929 . S
H332 C336 0.929 . S
H333 C342 0.929 . S
C334 H328 0.930 . S
C334 C335 1.367 . S
C334 C342 1.378 . S
C335 C334 1.367 . S
C335 C343 1.433 1_554 S
C336 H332 0.929 . S
C336 C338 1.378 . S
C336 C340 1.350 1_556 S
C337 C340 1.463 1_565 S
C337 C342 1.350 . S
C337 N345 1.427 1_554 S
C338 H329 0.930 . S
C338 C336 1.378 . S
C338 C339 1.367 1_556 S
C339 C338 1.367 1_554 S
C339 C341 1.433 . S
C340 C336 1.350 1_554 S
C340 C337 1.463 1_545 S
C340 N344 1.427 . S
C341 H331 0.929 . S
C341 C339 1.433 . S
C341 N344 1.384 . S
C342 H333 0.929 . S
C342 C334 1.378 . S
C342 C337 1.350 . S
C343 H330 0.929 . S
C343 C335 1.433 1_556 S
C343 N345 1.384 . S
N344 C340 1.427 . S
N344 C341 1.384 . S
N345 C337 1.427 1_556 S
N345 C343 1.384 . S
H346 C352 0.930 . S
H347 C356 0.930 . S
H348 C361 0.929 . S
H349 C359 0.929 . S
H350 C354 0.929 . S
H351 C360 0.929 . S
C352 H346 0.930 . S
C352 C353 1.367 . S
C352 C360 1.378 . S
C353 C352 1.367 . S
C353 C361 1.433 . S
C354 H350 0.929 . S
C354 C356 1.378 . S
C354 C358 1.350 . S
C355 C358 1.463 1_565 S
C355 C360 1.350 . S
C355 N363 1.427 . S
C356 H347 0.930 . S
C356 C354 1.378 . S
C356 C357 1.367 . S
C357 C356 1.367 . S
C357 C359 1.433 . S
C358 C354 1.350 . S
C358 C355 1.463 1_545 S
C358 N362 1.427 . S
C359 H349 0.929 . S
C359 C357 1.433 . S
C359 N362 1.384 . S
C360 H351 0.929 . S
C360 C352 1.378 . S
C360 C355 1.350 . S
C361 H348 0.929 . S
C361 C353 1.433 . S
C361 N363 1.384 . S
N362 C358 1.427 . S
N362 C359 1.384 . S
N363 C355 1.427 . S
N363 C361 1.384 . S
H364 C370 0.930 . S
H365 C374 0.930 . S
H366 C379 0.929 . S
H367 C377 0.929 . S
H368 C372 0.929 . S
H369 C378 0.929 . S
C370 H364 0.930 . S
C370 C371 1.367 . S
C370 C378 1.378 . S
C371 C370 1.367 . S
C371 C379 1.433 1_554 S
C372 H368 0.929 . S
C372 C374 1.378 . S
C372 C376 1.350 1_556 S
C373 C376 1.463 1_455 S
C373 C378 1.350 . S
C373 N381 1.427 1_554 S
C374 H365 0.930 . S
C374 C372 1.378 . S
C374 C375 1.367 1_556 S
C375 C374 1.367 1_554 S
C375 C377 1.433 . S
C376 C372 1.350 1_554 S
C376 C373 1.463 1_655 S
C376 N380 1.427 . S
C377 H367 0.929 . S
C377 C375 1.433 . S
C377 N380 1.384 . S
C378 H369 0.929 . S
C378 C370 1.378 . S
C378 C373 1.350 . S
C379 H366 0.929 . S
C379 C371 1.433 1_556 S
C379 N381 1.384 . S
N380 C376 1.427 . S
N380 C377 1.384 . S
N381 C373 1.427 1_556 S
N381 C379 1.384 . S
H382 C388 0.930 . S
H383 C392 0.930 . S
H384 C397 0.929 . S
H385 C395 0.929 . S
H386 C390 0.929 . S
H387 C396 0.929 . S
C388 H382 0.930 . S
C388 C389 1.367 . S
C388 C396 1.378 . S
C389 C388 1.367 . S
C389 C397 1.433 . S
C390 H386 0.929 . S
C390 C392 1.378 . S
C390 C394 1.350 . S
C391 C394 1.463 1_455 S
C391 C396 1.350 . S
C391 N399 1.427 . S
C392 H383 0.930 . S
C392 C390 1.378 . S
C392 C393 1.367 . S
C393 C392 1.367 . S
C393 C395 1.433 . S
C394 C390 1.350 . S
C394 C391 1.463 1_655 S
C394 N398 1.427 . S
C395 H385 0.929 . S
C395 C393 1.433 . S
C395 N398 1.384 . S
C396 H387 0.929 . S
C396 C388 1.378 . S
C396 C391 1.350 . S
C397 H384 0.929 . S
C397 C389 1.433 . S
C397 N399 1.384 . S
N398 C394 1.427 . S
N398 C395 1.384 . S
N399 C391 1.427 . S
N399 C397 1.384 . S
C119 C79 1.476 . S
C123 C9 1.477 . S
C137 C65 1.480 . S
C141 C23 1.481 . S
C155 C107 1.484 . S
C159 C37 1.484 . S
C173 C93 1.479 . S
C177 C51 1.480 . S
C191 C3 1.402 . S
C195 C31 1.401 . S
C209 C17 1.401 . S
C213 C45 1.402 . S
C227 C21 1.391 . S
C231 C49 1.385 . S
C245 C7 1.381 . S
C249 C35 1.384 . S
C263 C59 1.406 . S
C267 C87 1.405 . S
C281 C101 1.407 . S
C285 C73 1.406 . S
C299 C105 1.390 . S
C303 C77 1.387 . S
C317 C63 1.381 . S
C321 C91 1.384 . S
C335 C22 1.497 . S
C339 C8 1.499 . S
C353 C36 1.500 . S
C357 C50 1.499 . S
C371 C64 1.496 . S
C375 C78 1.497 . S
C389 C92 1.498 . S
C393 C106 1.496 . S
