# Generated by pormake.
# Topology acs-h, (5)-cn, num edge types: 1
# Building blocks:
#     Node 0, Type 0, BuildingBlock: XOMCOT_clean_sbu_0, # of connection points: 5
#     Node 1, Type 0, BuildingBlock: XOMCOT_clean_sbu_0, # of connection points: 5
#     Node 2, Type 0, BuildingBlock: XOMCOT_clean_sbu_0, # of connection points: 5
#     Node 3, Type 0, BuildingBlock: XOMCOT_clean_sbu_0, # of connection points: 5
#     Node 4, Type 0, BuildingBlock: XOMCOT_clean_sbu_0, # of connection points: 5
#     Node 5, Type 0, BuildingBlock: XOMCOT_clean_sbu_0, # of connection points: 5
#     Node 6, Type 0, BuildingBlock: XOMCOT_clean_sbu_0, # of connection points: 5
#     Node 7, Type 0, BuildingBlock: XOMCOT_clean_sbu_0, # of connection points: 5
#     Node 8, Type 0, BuildingBlock: XOMCOT_clean_sbu_0, # of connection points: 5
#     Node 9, Type 0, BuildingBlock: XOMCOT_clean_sbu_0, # of connection points: 5
#     Node 10, Type 0, BuildingBlock: XOMCOT_clean_sbu_0, # of connection points: 5
#     Node 11, Type 0, BuildingBlock: XOMCOT_clean_sbu_0, # of connection points: 5
#     Edge 12, Type (0, 0), BuildingBlock: TEMPAE_clean_linker_10, # of connection points: 2
#     Edge 13, Type (0, 0), BuildingBlock: TEMPAE_clean_linker_10, # of connection points: 2
#     Edge 14, Type (0, 0), BuildingBlock: TEMPAE_clean_linker_10, # of connection points: 2
#     Edge 15, Type (0, 0), BuildingBlock: TEMPAE_clean_linker_10, # of connection points: 2
#     Edge 16, Type (0, 0), BuildingBlock: TEMPAE_clean_linker_10, # of connection points: 2
#     Edge 17, Type (0, 0), BuildingBlock: TEMPAE_clean_linker_10, # of connection points: 2
#     Edge 18, Type (0, 0), BuildingBlock: TEMPAE_clean_linker_10, # of connection points: 2
#     Edge 19, Type (0, 0), BuildingBlock: TEMPAE_clean_linker_10, # of connection points: 2
#     Edge 20, Type (0, 0), BuildingBlock: TEMPAE_clean_linker_10, # of connection points: 2
#     Edge 21, Type (0, 0), BuildingBlock: TEMPAE_clean_linker_10, # of connection points: 2
#     Edge 22, Type (0, 0), BuildingBlock: TEMPAE_clean_linker_10, # of connection points: 2
#     Edge 23, Type (0, 0), BuildingBlock: TEMPAE_clean_linker_10, # of connection points: 2
#     Edge 24, Type (0, 0), BuildingBlock: TEMPAE_clean_linker_10, # of connection points: 2
#     Edge 25, Type (0, 0), BuildingBlock: TEMPAE_clean_linker_10, # of connection points: 2
#     Edge 26, Type (0, 0), BuildingBlock: TEMPAE_clean_linker_10, # of connection points: 2
#     Edge 27, Type (0, 0), BuildingBlock: TEMPAE_clean_linker_10, # of connection points: 2
#     Edge 28, Type (0, 0), BuildingBlock: TEMPAE_clean_linker_10, # of connection points: 2
#     Edge 29, Type (0, 0), BuildingBlock: TEMPAE_clean_linker_10, # of connection points: 2
#     Edge 30, Type (0, 0), BuildingBlock: TEMPAE_clean_linker_10, # of connection points: 2
#     Edge 31, Type (0, 0), BuildingBlock: TEMPAE_clean_linker_10, # of connection points: 2
#     Edge 32, Type (0, 0), BuildingBlock: TEMPAE_clean_linker_10, # of connection points: 2
#     Edge 33, Type (0, 0), BuildingBlock: TEMPAE_clean_linker_10, # of connection points: 2
#     Edge 34, Type (0, 0), BuildingBlock: TEMPAE_clean_linker_10, # of connection points: 2
#     Edge 35, Type (0, 0), BuildingBlock: TEMPAE_clean_linker_10, # of connection points: 2
#     Edge 36, Type (0, 0), BuildingBlock: TEMPAE_clean_linker_10, # of connection points: 2
#     Edge 37, Type (0, 0), BuildingBlock: TEMPAE_clean_linker_10, # of connection points: 2
#     Edge 38, Type (0, 0), BuildingBlock: TEMPAE_clean_linker_10, # of connection points: 2
#     Edge 39, Type (0, 0), BuildingBlock: TEMPAE_clean_linker_10, # of connection points: 2
#     Edge 40, Type (0, 0), BuildingBlock: TEMPAE_clean_linker_10, # of connection points: 2
#     Edge 41, Type (0, 0), BuildingBlock: TEMPAE_clean_linker_10, # of connection points: 2
# Relax obj value: 0.874
# Max RMSD: 0.273
# Mean RMSD: 0.273
data_MOF--net-acs-h--node1-XOMCOT_clean_sbu_0--edge1-TEMPAE_clean_linker_10
_symmetry_space_group_name_H-M    P1
_symmetry_Int_Tables_number       1
_symmetry_cell_setting            triclinic
loop_
_symmetry_equiv_pos_as_xyz
'x, y, z'
_cell_length_a     48.151844
_cell_length_b     48.18642
_cell_length_c     40.470908
_cell_angle_alpha  89.972435
_cell_angle_beta   90.066436
_cell_angle_gamma 119.98665
loop_
_atom_site_label
_atom_site_type_symbol
_atom_site_fract_x
_atom_site_fract_y
_atom_site_fract_z
_atom_type_partial_charge
Co0 Co 0.48425 0.15753 0.10197 0.0
C1 C 0.54362 0.18377 0.05935 0.0
C2 C 0.54296 0.21951 0.09004 0.0
C3 C 0.5716 0.23309 0.07346 0.0
N4 N 0.5252 0.18831 0.08151 0.0
N5 N 0.57225 0.21047 0.05447 0.0
H6 H 0.53797 0.1609 0.04938 0.0
H7 H 0.53669 0.23149 0.10864 0.0
C8 C 0.53417 0.15077 0.13992 0.0
O9 O 0.54707 0.14974 0.11179 0.0
N10 N 0.44423 0.12847 0.12273 0.0
C11 C 0.4151 0.11237 0.10843 0.0
C12 C 0.39211 0.10435 0.13264 0.0
C13 C 0.43871 0.1294 0.1551 0.0
N14 N 0.40717 0.11513 0.1619 0.0
C15 C 0.4797 0.12191 0.04376 0.0
C16 C 0.48992 0.07693 0.07547 0.0
C17 C 0.49422 0.08083 0.04123 0.0
C18 C 0.48683 0.10201 0.02502 0.0
C19 C 0.48307 0.09758 0.09317 0.0
N20 N 0.48192 0.122 0.07737 0.0
H21 H 0.47663 0.14004 0.0313 0.0
H22 H 0.48111 0.09544 0.11974 0.0
H23 H 0.41095 0.10989 0.08205 0.0
H24 H 0.45733 0.14431 0.17253 0.0
O25 O 0.46269 0.17103 0.07099 0.0
O26 O 0.48108 0.19247 0.12033 0.0
O27 O 0.50816 0.15187 0.14025 0.0
C28 C 0.46777 0.19311 0.09259 0.0
H29 H 0.59151 0.25703 0.07757 0.0
H30 H 0.36664 0.09439 0.12861 0.0
H31 H 0.49431 0.05993 0.08866 0.0
H32 H 0.48889 0.1048 0.99842 0.0
Co33 Co 0.84227 0.30569 0.08221 0.0
C34 C 0.81079 0.34059 0.05342 0.0
C35 C 0.86133 0.37068 0.06062 0.0
C36 C 0.84884 0.38957 0.05149 0.0
N37 N 0.83768 0.33978 0.06152 0.0
N38 N 0.81695 0.37077 0.04715 0.0
H39 H 0.78696 0.31997 0.05399 0.0
H40 H 0.88573 0.37935 0.06869 0.0
C41 C 0.87454 0.33847 0.14823 0.0
O42 O 0.88383 0.31817 0.1571 0.0
N43 N 0.84654 0.27241 0.10401 0.0
C44 C 0.85801 0.25401 0.09197 0.0
C45 C 0.85249 0.23059 0.11504 0.0
C46 C 0.83367 0.25965 0.13351 0.0
N47 N 0.83747 0.23457 0.14117 0.0
C48 C 0.88635 0.33021 0.0288 0.0
C49 C 0.93992 0.35759 0.06896 0.0
C50 C 0.941 0.37181 0.03838 0.0
C51 C 0.91489 0.35571 0.01675 0.0
C52 C 0.91078 0.3325 0.08008 0.0
N53 N 0.88383 0.32225 0.06143 0.0
H54 H 0.86502 0.32076 0.01365 0.0
H55 H 0.90937 0.32373 0.10475 0.0
H56 H 0.86883 0.2569 0.06789 0.0
H57 H 0.82106 0.26821 0.1488 0.0
O58 O 0.81552 0.27509 0.04882 0.0
O59 O 0.79862 0.28509 0.09605 0.0
O60 O 0.86045 0.33577 0.12075 0.0
C61 C 0.79174 0.26898 0.06858 0.0
H62 H 0.86195 0.41549 0.05108 0.0
H63 H 0.85883 0.21206 0.11274 0.0
H64 H 0.96021 0.36821 0.08568 0.0
H65 H 0.9148 0.36531 0.99258 0.0
Co66 Co 0.66544 0.50502 0.10665 0.0
C67 C 0.61319 0.43971 0.08524 0.0
C68 C 0.59594 0.46916 0.10611 0.0
C69 C 0.57003 0.44059 0.09702 0.0
N70 N 0.62307 0.46881 0.09876 0.0
N71 N 0.58079 0.42206 0.08385 0.0
H72 H 0.6291 0.4315 0.07663 0.0
H73 H 0.59498 0.48895 0.11748 0.0
C74 C 0.65256 0.49699 0.17786 0.0
O75 O 0.67225 0.48562 0.17853 0.0
N76 N 0.70716 0.54207 0.11478 0.0
C77 C 0.72193 0.56951 0.09725 0.0
C78 C 0.75102 0.58986 0.11187 0.0
C79 C 0.7277 0.54583 0.13924 0.0
N80 N 0.75455 0.57493 0.13841 0.0
C81 C 0.64346 0.52642 0.05321 0.0
C82 C 0.62963 0.56715 0.08858 0.0
C83 C 0.61917 0.55968 0.0557 0.0
C84 C 0.62745 0.54006 0.03767 0.0
C85 C 0.64607 0.55319 0.10319 0.0
N86 N 0.65133 0.53196 0.08581 0.0
H87 H 0.64743 0.50946 0.0396 0.0
H88 H 0.65319 0.55829 0.12879 0.0
H89 H 0.71232 0.57456 0.07537 0.0
H90 H 0.72351 0.52728 0.15673 0.0
O91 O 0.68283 0.49458 0.06817 0.0
O92 O 0.68169 0.47708 0.11888 0.0
O93 O 0.64915 0.50927 0.15123 0.0
C94 C 0.68992 0.47799 0.08828 0.0
H95 H 0.54514 0.43359 0.10091 0.0
H96 H 0.76797 0.61388 0.10373 0.0
H97 H 0.62395 0.58247 0.10321 0.0
H98 H 0.61942 0.53313 0.01245 0.0
Co99 Co 0.83501 0.51072 0.36364 0.0
C100 C 0.79851 0.44468 0.39527 0.0
C101 C 0.76938 0.45495 0.36343 0.0
C102 C 0.75141 0.424 0.37406 0.0
N103 N 0.79928 0.46838 0.37648 0.0
N104 N 0.76986 0.41738 0.39362 0.0
H105 H 0.81882 0.44612 0.40815 0.0
H106 H 0.76115 0.46574 0.34541 0.0
C107 C 0.85086 0.46536 0.32987 0.0
O108 O 0.84996 0.45271 0.35874 0.0
N109 N 0.86873 0.55202 0.3495 0.0
C110 C 0.88365 0.57959 0.36674 0.0
C111 C 0.89764 0.60474 0.34454 0.0
C112 C 0.87426 0.56053 0.3176 0.0
N113 N 0.89152 0.59255 0.31362 0.0
C114 C 0.85691 0.50417 0.42762 0.0
C115 C 0.91465 0.51139 0.406 0.0
C116 C 0.90596 0.50362 0.4392 0.0
C117 C 0.87705 0.50086 0.45019 0.0
C118 C 0.89381 0.51439 0.38438 0.0
N119 N 0.86445 0.50862 0.39485 0.0
H120 H 0.83449 0.50168 0.43612 0.0
H121 H 0.9008 0.52029 0.35883 0.0
H122 H 0.88168 0.58148 0.39317 0.0
H123 H 0.86188 0.54384 0.29766 0.0
O124 O 0.81763 0.53059 0.3918 0.0
O125 O 0.80515 0.51839 0.33906 0.0
O126 O 0.84702 0.48968 0.3273 0.0
C127 C 0.80004 0.52904 0.36663 0.0
H128 H 0.7276 0.40673 0.36549 0.0
H129 H 0.90862 0.62994 0.35058 0.0
H130 H 0.93689 0.51412 0.39648 0.0
H131 H 0.86995 0.49591 0.47587 0.0
Co132 Co 0.48808 0.32837 0.39966 0.0
C133 C 0.55287 0.38332 0.39786 0.0
C134 C 0.531 0.38519 0.44322 0.0
C135 C 0.56053 0.41256 0.44067 0.0
N136 N 0.5258 0.367 0.41591 0.0
N137 N 0.57404 0.41128 0.4121 0.0
H138 H 0.55637 0.37553 0.37391 0.0
H139 H 0.51505 0.37999 0.46374 0.0
C140 C 0.49723 0.3823 0.35729 0.0
O141 O 0.49702 0.39673 0.38476 0.0
N142 N 0.45177 0.29016 0.38273 0.0
C143 C 0.42693 0.26794 0.40036 0.0
C144 C 0.40871 0.2421 0.38023 0.0
C145 C 0.44848 0.27777 0.35227 0.0
N146 N 0.42232 0.24815 0.34991 0.0
C147 C 0.4568 0.34023 0.45394 0.0
C148 C 0.42083 0.35762 0.41513 0.0
C149 C 0.42588 0.36691 0.44844 0.0
C150 C 0.44166 0.35535 0.46859 0.0
C151 C 0.43704 0.34315 0.40161 0.0
N152 N 0.45817 0.33889 0.42043 0.0
H153 H 0.47009 0.33253 0.46926 0.0
H154 H 0.43465 0.33784 0.37548 0.0
H155 H 0.42322 0.26977 0.42644 0.0
H156 H 0.46575 0.28996 0.33284 0.0
O157 O 0.49234 0.30321 0.43458 0.0
O158 O 0.51582 0.31261 0.38554 0.0
O159 O 0.49063 0.35302 0.35815 0.0
C160 C 0.51082 0.29886 0.41429 0.0
H161 H 0.57138 0.4318 0.45856 0.0
H162 H 0.38807 0.21996 0.38811 0.0
H163 H 0.40701 0.36414 0.39905 0.0
H164 H 0.44518 0.36067 0.49475 0.0
Co165 Co 0.66146 0.126 0.40909 0.0
C166 C 0.62254 0.15409 0.43362 0.0
C167 C 0.59649 0.10276 0.43445 0.0
C168 C 0.57605 0.11363 0.44358 0.0
N169 N 0.62568 0.12814 0.42821 0.0
N170 N 0.59248 0.14593 0.44285 0.0
H171 H 0.64104 0.17846 0.42887 0.0
H172 H 0.58996 0.07801 0.43092 0.0
C173 C 0.62872 0.11903 0.34881 0.0
O174 O 0.61485 0.0895 0.36003 0.0
N175 N 0.69659 0.12336 0.38971 0.0
C176 C 0.72525 0.13268 0.40377 0.0
C177 C 0.74658 0.13583 0.37935 0.0
C178 C 0.70061 0.12027 0.35728 0.0
N179 N 0.73116 0.12849 0.34996 0.0
C180 C 0.66861 0.115 0.47694 0.0
C181 C 0.62341 0.0509 0.46944 0.0
C182 C 0.62538 0.06624 0.49962 0.0
C183 C 0.65103 0.09751 0.50431 0.0
C184 C 0.64201 0.06914 0.44289 0.0
N185 N 0.66117 0.10133 0.44636 0.0
H186 H 0.68455 0.14042 0.47983 0.0
H187 H 0.63652 0.05881 0.41838 0.0
H188 H 0.73097 0.13949 0.42941 0.0
H189 H 0.68203 0.11426 0.33915 0.0
O190 O 0.69263 0.1685 0.42853 0.0
O191 O 0.67336 0.16499 0.38063 0.0
O192 O 0.65212 0.14122 0.36562 0.0
C193 C 0.69263 0.18368 0.40307 0.0
H194 H 0.55076 0.09888 0.449 0.0
H195 H 0.7721 0.1457 0.38277 0.0
H196 H 0.60434 0.02668 0.46463 0.0
H197 H 0.6543 0.1098 0.52763 0.0
Co198 Co 0.52796 0.85594 0.88983 0.0
C199 C 0.45982 0.82871 0.90848 0.0
C200 C 0.48801 0.87224 0.93526 0.0
C201 C 0.45633 0.86031 0.94336 0.0
N202 N 0.49052 0.85237 0.9133 0.0
N203 N 0.43867 0.83291 0.92657 0.0
H204 H 0.45272 0.80927 0.89111 0.0
H205 H 0.507 0.89501 0.9437 0.0
C206 C 0.50838 0.89598 0.85106 0.0
O207 O 0.51017 0.91141 0.8784 0.0
N208 N 0.56378 0.85833 0.86626 0.0
C209 C 0.59201 0.8643 0.8791 0.0
C210 C 0.60852 0.85799 0.85531 0.0
C211 C 0.5634 0.84856 0.83506 0.0
N212 N 0.59044 0.84784 0.82755 0.0
C213 C 0.56141 0.9012 0.94185 0.0
C214 C 0.58736 0.95432 0.90112 0.0
C215 C 0.58444 0.95827 0.93501 0.0
C216 C 0.57451 0.93166 0.95588 0.0
C217 C 0.57368 0.92343 0.88831 0.0
N218 N 0.55697 0.89765 0.90853 0.0
H219 H 0.55064 0.8804 0.95777 0.0
H220 H 0.57361 0.9203 0.86187 0.0
H221 H 0.59926 0.87104 0.90449 0.0
H222 H 0.5429 0.84077 0.81898 0.0
O223 O 0.53183 0.82895 0.92299 0.0
O224 O 0.50302 0.812 0.87691 0.0
O225 O 0.51683 0.87467 0.85075 0.0
C226 C 0.5126 0.80508 0.90412 0.0
H227 H 0.44699 0.87128 0.95996 0.0
H228 H 0.63124 0.85901 0.85913 0.0
H229 H 0.59653 0.97451 0.88434 0.0
H230 H 0.57275 0.93367 0.98235 0.0
Co231 Co 0.14509 0.66103 0.91816 0.0
C232 C 0.17065 0.6203 0.94635 0.0
C233 C 0.11963 0.59523 0.94017 0.0
C234 C 0.12833 0.57399 0.95163 0.0
N235 N 0.14596 0.62443 0.93711 0.0
N236 N 0.16041 0.58959 0.95539 0.0
H237 H 0.19556 0.63883 0.94534 0.0
H238 H 0.09571 0.58911 0.93279 0.0
C239 C 0.10443 0.63335 0.85574 0.0
O240 O 0.09864 0.65704 0.85192 0.0
N241 N 0.14345 0.69683 0.899 0.0
C242 C 0.1301 0.71362 0.91089 0.0
C243 C 0.13383 0.73627 0.88765 0.0
C244 C 0.15585 0.70995 0.86951 0.0
N245 N 0.14955 0.73335 0.86155 0.0
C246 C 0.11382 0.65172 0.97931 0.0
C247 C 0.05351 0.61139 0.9538 0.0
C248 C 0.06086 0.60634 0.98602 0.0
C249 C 0.09 0.62945 -3e-05 0.0
C250 C 0.07799 0.63446 0.93413 0.0
N251 N 0.10854 0.65087 0.94612 0.0
H252 H 0.13778 0.66569 0.98912 0.0
H253 H 0.07313 0.63558 0.9084 0.0
H254 H 0.11807 0.70947 0.93443 0.0
H255 H 0.16816 0.70159 0.85353 0.0
O256 O 0.1797 0.69075 0.94679 0.0
O257 O 0.1858 0.67526 0.89706 0.0
O258 O 0.11834 0.63106 0.88163 0.0
C259 C 0.19889 0.69292 0.92298 0.0
H260 H 0.11242 0.54846 0.95453 0.0
H261 H 0.12486 0.75283 0.88933 0.0
H262 H 0.03087 0.59479 0.9423 0.0
H263 H 0.09607 0.62719 0.02524 0.0
Co264 Co 0.32385 0.48679 0.88845 0.0
C265 C 0.35881 0.55177 0.91854 0.0
C266 C 0.33213 0.54983 0.87512 0.0
C267 C 0.34698 0.58052 0.88727 0.0
N268 N 0.33975 0.53194 0.89455 0.0
N269 N 0.36385 0.58169 0.91437 0.0
H270 H 0.36942 0.54476 0.9381 0.0
H271 H 0.31721 0.54118 0.85329 0.0
C272 C 0.35605 0.48632 0.8257 0.0
O273 O 0.36352 0.46623 0.83955 0.0
N274 N 0.30582 0.44118 0.88117 0.0
C275 C 0.29186 0.41731 0.90363 0.0
C276 C 0.26838 0.39006 0.88816 0.0
C277 C 0.29057 0.42779 0.85263 0.0
N278 N 0.26754 0.39692 0.85604 0.0
C279 C 0.36551 0.47694 0.93163 0.0
C280 C 0.42182 0.52718 0.90683 0.0
C281 C 0.42282 0.51199 0.93584 0.0
C282 C 0.39445 0.48596 0.94775 0.0
C283 C 0.39256 0.51711 0.8912 0.0
N284 N 0.36469 0.49263 0.90391 0.0
H285 H 0.34364 0.45888 0.94281 0.0
H286 H 0.39209 0.53095 0.87044 0.0
H287 H 0.29455 0.42036 0.93008 0.0
H288 H 0.29202 0.44188 0.8312 0.0
O289 O 0.30209 0.47917 0.93025 0.0
O290 O 0.28186 0.48114 0.88152 0.0
O291 O 0.33964 0.49609 0.84152 0.0
C292 C 0.27884 0.47892 0.91353 0.0
H293 H 0.34686 0.60087 0.87605 0.0
H294 H 0.25077 0.36835 0.90038 0.0
H295 H 0.44331 0.54749 0.89704 0.0
H296 H 0.39436 0.47398 0.97045 0.0
Co297 Co 0.15278 0.48186 0.62514 0.0
C298 C 0.17646 0.5493 0.60196 0.0
C299 C 0.19002 0.52331 0.56915 0.0
C300 C 0.20347 0.55419 0.55802 0.0
N301 N 0.17327 0.52003 0.59703 0.0
N302 N 0.19509 0.57077 0.57861 0.0
H303 H 0.16562 0.55492 0.62224 0.0
H304 H 0.19308 0.50482 0.55763 0.0
C305 C 0.16043 0.52536 0.68 0.0
O306 O 0.19081 0.53343 0.68051 0.0
N307 N 0.13315 0.44425 0.65286 0.0
C308 C 0.11122 0.41412 0.64421 0.0
C309 C 0.109 0.39368 0.66925 0.0
C310 C 0.14397 0.44178 0.68275 0.0
N311 N 0.12993 0.4111 0.69339 0.0
C312 C 0.11094 0.46718 0.56952 0.0
C313 C 0.0587 0.45929 0.60563 0.0
C314 C 0.05796 0.46123 0.5711 0.0
C315 C 0.08404 0.46396 0.55293 0.0
C316 C 0.08615 0.46293 0.62119 0.0
N317 N 0.11233 0.46837 0.60315 0.0
H318 H 0.13135 0.47041 0.55537 0.0
H319 H 0.08672 0.46243 0.64786 0.0
H320 H 0.09914 0.40723 0.62057 0.0
H321 H 0.16382 0.46184 0.695 0.0
O322 O 0.17037 0.46122 0.5977 0.0
O323 O 0.19417 0.49163 0.64134 0.0
O324 O 0.14162 0.5053 0.6587 0.0
C325 C 0.19535 0.47469 0.61705 0.0
H326 H 0.21937 0.56381 0.53703 0.0
H327 H 0.09429 0.36785 0.66876 0.0
H328 H 0.03869 0.45613 0.62059 0.0
H329 H 0.08452 0.46543 0.52622 0.0
Co330 Co 0.50618 0.6735 0.5854 0.0
C331 C 0.43893 0.62415 0.57426 0.0
C332 C 0.44901 0.66776 0.55001 0.0
C333 C 0.41751 0.64518 0.54422 0.0
N334 N 0.46241 0.65467 0.56924 0.0
N335 N 0.41127 0.61781 0.55949 0.0
H336 H 0.4419 0.60695 0.5887 0.0
H337 H 0.46092 0.69184 0.54045 0.0
C338 C 0.47642 0.64763 0.65 0.0
O339 O 0.47495 0.6739 0.65385 0.0
N340 N 0.54927 0.6919 0.602 0.0
C341 C 0.57667 0.70652 0.58442 0.0
C342 C 0.60144 0.72604 0.60547 0.0
C343 C 0.5577 0.70202 0.63326 0.0
N344 N 0.58929 0.72296 0.63613 0.0
C345 C 0.50041 0.63587 0.52927 0.0
C346 C 0.50928 0.59136 0.56395 0.0
C347 C 0.49431 0.5832 0.53296 0.0
C348 C 0.49145 0.60637 0.51477 0.0
C349 C 0.51744 0.62098 0.57772 0.0
N350 N 0.51069 0.6416 0.56123 0.0
H351 H 0.49583 0.65277 0.51621 0.0
H352 H 0.52657 0.62617 0.60272 0.0
H353 H 0.57798 0.70578 0.55778 0.0
H354 H 0.54053 0.69767 0.65262 0.0
O355 O 0.52069 0.70711 0.55232 0.0
O356 O 0.50421 0.70955 0.60277 0.0
O357 O 0.48955 0.64387 0.6244 0.0
C358 C 0.51508 0.72334 0.57442 0.0
H359 H 0.40051 0.64867 0.52986 0.0
H360 H 0.62575 0.74327 0.59834 0.0
H361 H 0.51224 0.57411 0.57845 0.0
H362 H 0.48063 0.601 0.49042 0.0
Co363 Co 0.34123 0.86236 0.60583 0.0
C364 C 0.38741 0.84586 0.57365 0.0
C365 C 0.40949 0.89443 0.59051 0.0
C366 C 0.43296 0.88918 0.57832 0.0
N367 N 0.38082 0.86737 0.58761 0.0
N368 N 0.41921 0.85856 0.56784 0.0
H369 H 0.3696 0.82124 0.56878 0.0
H370 H 0.41332 0.91632 0.60201 0.0
C371 C 0.36289 0.89392 0.67416 0.0
O372 O 0.33554 0.8922 0.68143 0.0
N373 N 0.3022 0.85787 0.62424 0.0
C374 C 0.28424 0.87024 0.61312 0.0
C375 C 0.25859 0.86099 0.63419 0.0
C376 C 0.28655 0.84017 0.65077 0.0
N377 N 0.26046 0.84245 0.65805 0.0
C378 C 0.35943 0.90581 0.55244 0.0
C379 C 0.38174 0.95887 0.59296 0.0
C380 C 0.39727 0.96156 0.56282 0.0
C381 C 0.3833 0.93549 0.54085 0.0
C382 C 0.35834 0.92862 0.60369 0.0
N383 N 0.35089 0.90233 0.58491 0.0
H384 H 0.35245 0.88483 0.53733 0.0
H385 H 0.34939 0.92603 0.62853 0.0
H386 H 0.28951 0.88525 0.59151 0.0
H387 H 0.29485 0.82679 0.66515 0.0
O388 O 0.31524 0.83194 0.57174 0.0
O389 O 0.3288 0.81965 0.61978 0.0
O390 O 0.36765 0.88504 0.64607 0.0
C391 C 0.31335 0.80997 0.59201 0.0
H392 H 0.45842 0.90612 0.57923 0.0
H393 H 0.24064 0.86819 0.63266 0.0
H394 H 0.39059 0.9789 0.60993 0.0
H395 H 0.39388 0.93644 0.51699 0.0
C396 C 0.59402 0.10104 0.29873 0.0
C397 C 0.61677 0.12627 0.31819 0.0
C398 C 0.58132 0.10696 0.2702 0.0
C399 C 0.59147 0.13893 0.2609 0.0
C400 C 0.61451 0.1646 0.28036 0.0
C401 C 0.62698 0.15795 0.30878 0.0
C402 C 0.55702 0.07891 0.24997 0.0
C403 C 0.62583 0.199 0.27124 0.0
C404 C 0.5787 0.14963 0.17044 0.0
C405 C 0.54947 0.14947 0.17121 0.0
C406 C 0.59327 0.14751 0.19959 0.0
C407 C 0.57828 0.14513 0.23033 0.0
C408 C 0.54928 0.14595 0.23142 0.0
C409 C 0.53519 0.14809 0.20182 0.0
C410 C 0.6242 0.14672 0.19736 0.0
C411 C 0.53266 0.1436 0.26378 0.0
H412 H 0.58604 0.07648 0.30577 0.0
H413 H 0.64439 0.17755 0.32384 0.0
H414 H 0.53437 0.07959 0.24817 0.0
H415 H 0.5661 0.08048 0.22445 0.0
H416 H 0.55156 0.05549 0.26069 0.0
H417 H 0.64382 0.21619 0.28901 0.0
H418 H 0.63663 0.20417 0.2462 0.0
H419 H 0.60513 0.20311 0.27042 0.0
H420 H 0.59013 0.15104 0.14696 0.0
H421 H 0.51274 0.1482 0.20266 0.0
H422 H 0.61996 0.12286 0.20527 0.0
H423 H 0.64246 0.16474 0.21424 0.0
H424 H 0.63412 0.15144 0.17189 0.0
H425 H 0.52431 0.1197 0.27499 0.0
H426 H 0.51167 0.14708 0.26065 0.0
H427 H 0.54965 0.16177 0.28146 0.0
C428 C 0.89663 0.37189 0.19938 0.0
C429 C 0.87638 0.36277 0.17178 0.0
C430 C 0.89585 0.39265 0.22326 0.0
C431 C 0.87366 0.40366 0.21981 0.0
C432 C 0.8541 0.39553 0.19133 0.0
C433 C 0.85601 0.37554 0.16749 0.0
C434 C 0.91776 0.40166 0.25288 0.0
C435 C 0.82951 0.40602 0.18707 0.0
C436 C 0.84078 0.41696 0.29929 0.0
C437 C 0.85584 0.45041 0.30063 0.0
C438 C 0.84613 0.40156 0.27287 0.0
C439 C 0.86793 0.42016 0.24769 0.0
C440 C 0.88333 0.45407 0.24896 0.0
C441 C 0.87666 0.46887 0.27529 0.0
C442 C 0.82834 0.36535 0.27192 0.0
C443 C 0.90733 0.4746 0.223 0.0
H444 H 0.91267 0.3624 0.2026 0.0
H445 H 0.84022 0.36862 0.14621 0.0
H446 H 0.92931 0.42778 0.25774 0.0
H447 H 0.90356 0.38906 0.27509 0.0
H448 H 0.93673 0.39521 0.24949 0.0
H449 H 0.81833 0.40018 0.16214 0.0
H450 H 0.81031 0.39387 0.20579 0.0
H451 H 0.84053 0.43218 0.19114 0.0
H452 H 0.82452 0.40278 0.31892 0.0
H453 H 0.88852 0.49478 0.27671 0.0
H454 H 0.84561 0.3565 0.27279 0.0
H455 H 0.81473 0.35674 0.24844 0.0
H456 H 0.81132 0.35456 0.29286 0.0
H457 H 0.92745 0.46958 0.22252 0.0
H458 H 0.91719 0.5006 0.22757 0.0
H459 H 0.89606 0.46866 0.19818 0.0
C460 C 0.60045 0.48811 0.20117 0.0
C461 C 0.62965 0.48869 0.20555 0.0
C462 C 0.57579 0.47352 0.2247 0.0
C463 C 0.58058 0.45932 0.25316 0.0
C464 C 0.61072 0.46167 0.25869 0.0
C465 C 0.63493 0.47655 0.23496 0.0
C466 C 0.54409 0.47178 0.21824 0.0
C467 C 0.61694 0.44719 0.289 0.0
C468 C 0.52967 0.43566 0.33039 0.0
C469 C 0.51279 0.4021 0.32769 0.0
C470 C 0.55034 0.45493 0.30526 0.0
C471 C 0.55387 0.44032 0.27652 0.0
C472 C 0.53488 0.40667 0.27245 0.0
C473 C 0.51467 0.38791 0.29819 0.0
C474 C 0.57026 0.49064 0.31075 0.0
C475 C 0.53786 0.3902 0.24205 0.0
H476 H 0.5962 0.49754 0.17861 0.0
H477 H 0.65759 0.47731 0.23879 0.0
H478 H 0.52554 0.44662 0.21296 0.0
H479 H 0.53618 0.47948 0.24042 0.0
H480 H 0.54531 0.48691 0.19694 0.0
H481 H 0.64065 0.44862 0.28818 0.0
H482 H 0.61584 0.45978 0.31148 0.0
H483 H 0.59827 0.42161 0.29154 0.0
H484 H 0.52841 0.44695 0.35306 0.0
H485 H 0.50157 0.36204 0.29583 0.0
H486 H 0.57186 0.50399 0.28782 0.0
H487 H 0.59499 0.49685 0.31778 0.0
H488 H 0.56033 0.49885 0.33081 0.0
H489 H 0.53691 0.4026 0.21935 0.0
H490 H 0.51867 0.36466 0.24073 0.0
H491 H 0.56142 0.39124 0.24236 0.0
C492 C 0.49097 0.92886 0.81892 0.0
C493 C 0.49309 0.90095 0.82175 0.0
C494 C 0.47272 0.93209 0.79374 0.0
C495 C 0.45565 0.90651 0.77136 0.0
C496 C 0.45873 0.8788 0.77333 0.0
C497 C 0.47771 0.8765 0.79832 0.0
C498 C 0.47073 0.96234 0.79188 0.0
C499 C 0.44064 0.85086 0.75012 0.0
C500 C 0.37825 0.89381 0.73291 0.0
C501 C 0.38746 0.90223 0.69996 0.0
C502 C 0.40051 0.89599 0.75668 0.0
C503 C 0.43283 0.9076 0.74734 0.0
C504 C 0.44264 0.91812 0.71454 0.0
C505 C 0.41972 0.91491 0.69112 0.0
C506 C 0.389 0.88412 0.7913 0.0
C507 C 0.47701 0.93144 0.70381 0.0
H508 H 0.50305 0.94794 0.83685 0.0
H509 H 0.47912 0.85482 0.80053 0.0
H510 H 0.47527 0.97178 0.76625 0.0
H511 H 0.44624 0.95698 0.79871 0.0
H512 H 0.48816 0.98129 0.80869 0.0
H513 H 0.44671 0.83167 0.75401 0.0
H514 H 0.41447 0.8405 0.75383 0.0
H515 H 0.44595 0.85901 0.72408 0.0
H516 H 0.35326 0.88368 0.73971 0.0
H517 H 0.42691 0.92162 0.66564 0.0
H518 H 0.40378 0.90287 0.80963 0.0
H519 H 0.39173 0.86299 0.79655 0.0
H520 H 0.36346 0.87715 0.79494 0.0
H521 H 0.49358 0.94968 0.7217 0.0
H522 H 0.48152 0.9425 0.67886 0.0
H523 H 0.48286 0.91191 0.70324 0.0
C524 C 0.16931 0.56533 0.72407 0.0
C525 C 0.14815 0.54039 0.7033 0.0
C526 C 0.15798 0.57928 0.74684 0.0
C527 C 0.12463 0.56789 0.74906 0.0
C528 C 0.10317 0.54313 0.72776 0.0
C529 C 0.11519 0.52971 0.70507 0.0
C530 C 0.1817 0.60585 0.76897 0.0
C531 C 0.06748 0.53037 0.72944 0.0
C532 C 0.10118 0.58384 0.83304 0.0
C533 C 0.10136 0.61265 0.82744 0.0
C534 C 0.10652 0.56776 0.80717 0.0
C535 C 0.11243 0.58097 0.77496 0.0
C536 C 0.11019 0.60871 0.76868 0.0
C537 C 0.10448 0.62417 0.79504 0.0
C538 C 0.10829 0.53801 0.81486 0.0
C539 C 0.11641 0.62359 0.73471 0.0
H540 H 0.19481 0.57391 0.7227 0.0
H541 H 0.09864 0.5105 0.68904 0.0
H542 H 0.17887 0.62724 0.76656 0.0
H543 H 0.17696 0.59804 0.79516 0.0
H544 H 0.20692 0.61293 0.7631 0.0
H545 H 0.05419 0.51232 0.7099 0.0
H546 H 0.05826 0.51911 0.7539 0.0
H547 H 0.06231 0.55027 0.72692 0.0
H548 H 0.09859 0.57475 0.85805 0.0
H549 H 0.10488 0.64655 0.79058 0.0
H550 H 0.13357 0.54358 0.81317 0.0
H551 H 0.09422 0.51887 0.7966 0.0
H552 H 0.09927 0.52867 0.84003 0.0
H553 H 0.14245 0.63542 0.72927 0.0
H554 H 0.10881 0.64184 0.73277 0.0
H555 H 0.10372 0.60502 0.71553 0.0
C556 C 0.45715 0.6281 0.70701 0.0
C557 C 0.46056 0.62135 0.67413 0.0
C558 C 0.44042 0.60332 0.72982 0.0
C559 C 0.42591 0.57103 0.71916 0.0
C560 C 0.42941 0.56407 0.68597 0.0
C561 C 0.44724 0.58936 0.66396 0.0
C562 C 0.43784 0.61173 0.76522 0.0
C563 C 0.41335 0.53002 0.6734 0.0
C564 C 0.40312 0.50991 0.78788 0.0
C565 C 0.37176 0.50287 0.7948 0.0
C566 C 0.42073 0.53107 0.76226 0.0
C567 C 0.40627 0.54482 0.74275 0.0
C568 C 0.37378 0.53581 0.74811 0.0
C569 C 0.35704 0.51528 0.77442 0.0
C570 C 0.45544 0.54044 0.75762 0.0
C571 C 0.35722 0.54927 0.72731 0.0
H572 H 0.46763 0.65282 0.71494 0.0
H573 H 0.44973 0.58406 0.63849 0.0
H574 H 0.41244 0.60363 0.77123 0.0
H575 H 0.44596 0.59916 0.78227 0.0
H576 H 0.4523 0.6379 0.76998 0.0
H577 H 0.41959 0.52862 0.64727 0.0
H578 H 0.42023 0.51539 0.68885 0.0
H579 H 0.38693 0.51912 0.67525 0.0
H580 H 0.41464 0.50058 0.80385 0.0
H581 H 0.33271 0.50969 0.77969 0.0
H582 H 0.47099 0.56586 0.76497 0.0
H583 H 0.46044 0.53843 0.73125 0.0
H584 H 0.46219 0.52541 0.77263 0.0
H585 H 0.36642 0.57471 0.73404 0.0
H586 H 0.33083 0.53596 0.73098 0.0
H587 H 0.36238 0.54857 0.70071 0.0
C588 C 0.49926 0.03347 0.02578 0.0
C589 C 0.51046 0.06632 0.02343 0.0
C590 C 0.51583 0.01998 0.01046 0.0
C591 C 0.54458 0.04007 0.99306 0.0
C592 C 0.55619 0.07337 0.99101 0.0
C593 C 0.53882 0.0861 0.00609 0.0
C594 C 0.50237 0.98421 0.01258 0.0
C595 C 0.58699 0.09551 0.97314 0.0
C596 C 0.59308 -0.00084 0.97826 0.0
C597 C 0.58217 0.98615 0.94677 0.0
C598 C 0.58311 0.01918 0.99281 0.0
C599 C 0.5613 0.02561 0.97562 0.0
C600 C 0.55229 0.01461 0.94287 0.0
C601 C 0.56301 0.9952 0.92877 0.0
C602 C 0.59395 0.03138 0.02746 0.0
C603 C 0.52883 0.02067 0.9238 0.0
H604 H 0.47743 0.01836 0.03942 0.0
H605 H 0.54781 0.11169 0.00501 0.0
H606 H 0.49763 0.97374 0.98737 0.0
H607 H 0.5201 0.97902 0.02434 0.0
H608 H 0.47974 0.97203 0.02698 0.0
H609 H 0.59235 0.12077 0.97328 0.0
H610 H 0.60724 0.09444 0.98495 0.0
H611 H 0.58567 0.08771 0.94712 0.0
H612 H 0.60799 0.99232 0.99215 0.0
H613 H 0.55395 0.98483 0.90464 0.0
H614 H 0.57395 0.01761 0.04495 0.0
H615 H 0.60063 0.05695 0.02946 0.0
H616 H 0.61473 0.02886 0.03519 0.0
H617 H 0.50466 0.00667 0.93503 0.0
H618 H 0.52717 0.01363 0.89742 0.0
H619 H 0.53576 0.04633 0.92503 0.0
C620 C 0.97621 0.41814 0.0014 0.0
C621 C 0.96434 0.40624 0.033 0.0
C622 C 0.99307 0.45127 0.99532 0.0
C623 C 0.99796 0.47282 0.02144 0.0
C624 C 0.98725 0.46101 0.05362 0.0
C625 C 0.97057 0.42792 0.059 0.0
C626 C 0.00458 0.46316 0.96072 0.0
C627 C 0.99213 0.48327 0.08211 0.0
C628 C 0.06183 0.55965 0.01079 0.0
C629 C 0.04376 0.5736 0.00018 0.0
C630 C 0.0472 0.52699 0.01814 0.0
C631 C 0.0136 0.50773 0.01504 0.0
C632 C 0.99499 0.52175 0.00561 0.0
C633 C 0.01035 0.55458 0.99809 0.0
C634 C 0.0679 0.5129 0.02785 0.0
C635 C 0.95898 0.50186 0.00242 0.0
H636 H 0.97146 0.40153 0.98126 0.0
H637 H 0.9608 0.41905 0.08335 0.0
H638 H 0.99181 0.47522 0.9509 0.0
H639 H 0.03055 0.48114 0.96096 0.0
H640 H 0.00052 0.44344 0.94363 0.0
H641 H 0.98388 0.47031 0.106 0.0
H642 H 0.01785 0.50167 0.08443 0.0
H643 H 0.97872 0.49607 0.07739 0.0
H644 H 0.08776 0.57389 0.0116 0.0
H645 H 0.99635 0.5652 0.98972 0.0
H646 H 0.06635 0.4958 0.00859 0.0
H647 H 0.0592 0.49931 0.0513 0.0
H648 H 0.0935 0.53153 0.03097 0.0
H649 H 0.95265 0.4835 0.98289 0.0
H650 H 0.94791 0.51662 0.99613 0.0
H651 H 0.94839 0.48896 0.02587 0.0
C652 C 0.46435 0.50434 0.96435 0.0
C653 C 0.45294 0.52469 0.95477 0.0
C654 C 0.49308 0.5162 0.98206 0.0
C655 C 0.51037 0.54907 0.99094 0.0
C656 C 0.49847 0.56958 0.98197 0.0
C657 C 0.47005 0.55718 0.96355 0.0
C658 C 0.50511 0.49357 0.99094 0.0
C659 C 0.51577 0.60462 0.99122 0.0
C660 C 0.5681 0.56083 0.05962 0.0
C661 C 0.59548 0.56738 0.04141 0.0
C662 C 0.54088 0.55802 0.04381 0.0
C663 C 0.54111 0.56148 0.00908 0.0
C664 C 0.56988 0.57182 0.99126 0.0
C665 C 0.59687 0.57488 0.00773 0.0
C666 C 0.51098 0.54839 0.06379 0.0
C667 C 0.57125 0.57654 0.95431 0.0
H668 H 0.45106 0.47925 0.95744 0.0
H669 H 0.4609 0.57281 0.9564 0.0
H670 H 0.52933 0.50238 0.9803 0.0
H671 H 0.50729 0.49268 0.01816 0.0
H672 H 0.489 0.46884 0.98181 0.0
H673 H 0.49902 0.61416 0.99225 0.0
H674 H 0.52805 0.6089 0.01545 0.0
H675 H 0.53418 0.61841 0.97222 0.0
H676 H 0.56684 0.55511 0.08568 0.0
H677 H 0.61831 0.58071 0.99375 0.0
H678 H 0.49348 0.52271 0.05936 0.0
H679 H 0.49951 0.56242 0.05607 0.0
H680 H 0.51615 0.55192 0.0907 0.0
H681 H 0.55708 0.55292 0.94201 0.0
H682 H 0.5962 0.58818 0.94477 0.0
H683 H 0.56048 0.59137 0.94733 0.0
C684 C 0.01981 0.44885 0.5237 0.0
C685 C 0.03166 0.46347 0.55443 0.0
C686 C 0.99746 0.45382 0.50627 0.0
C687 C 0.98666 0.47377 0.52001 0.0
C688 C 0.99753 0.48755 0.55158 0.0
C689 C 0.02 0.48235 0.56833 0.0
C690 C 0.9863 0.43869 0.47265 0.0
C691 C 0.98647 0.50888 0.56707 0.0
C692 C 0.95994 0.51647 0.46035 0.0
C693 C 0.92648 0.49725 0.46167 0.0
C694 C 0.97976 0.50915 0.47938 0.0
C695 C 0.96575 0.48206 0.50041 0.0
C696 C 0.93198 0.46299 0.5025 0.0
C697 C 0.91272 0.47079 0.48304 0.0
C698 C 0.0157 0.53015 0.47661 0.0
C699 C 0.91625 0.43403 0.52481 0.0
H700 H 0.0284 0.43391 0.51302 0.0
H701 H 0.0294 0.49421 0.5918 0.0
H702 H 0.95973 0.42515 0.47155 0.0
H703 H 0.99474 0.45768 0.4535 0.0
H704 H 0.99538 0.42219 0.4664 0.0
H705 H 0.99504 0.51546 0.59293 0.0
H706 H 0.99555 0.53121 0.5524 0.0
H707 H 0.95991 0.49682 0.56691 0.0
H708 H 0.97068 0.5372 0.44422 0.0
H709 H 0.88687 0.45561 0.48384 0.0
H710 H 0.02639 0.51573 0.46787 0.0
H711 H 0.02619 0.53991 0.50123 0.0
H712 H 0.02274 0.55049 0.45929 0.0
H713 H 0.92311 0.41621 0.51699 0.0
H714 H 0.88968 0.42238 0.52447 0.0
H715 H 0.92474 0.441 0.55059 0.0
C716 C 0.41495 0.39643 0.49314 0.0
C717 C 0.42191 0.39399 0.45997 0.0
C718 C 0.42072 0.42583 0.50621 0.0
C719 C 0.43372 0.45319 0.48555 0.0
C720 C 0.43747 0.45003 0.45138 0.0
C721 C 0.43152 0.42049 0.43901 0.0
C722 C 0.4157 0.42818 0.54267 0.0
C723 C 0.45111 0.4786 0.42845 0.0
C724 C 0.44624 0.53395 0.51241 0.0
C725 C 0.47876 0.54979 0.52129 0.0
C726 C 0.43069 0.50193 0.502 0.0
C727 C 0.4483 0.48571 0.50007 0.0
C728 C 0.48103 0.5015 0.50962 0.0
C729 C 0.49581 0.53336 0.52038 0.0
C730 C 0.39566 0.48566 0.49266 0.0
C731 C 0.50067 0.48502 0.50765 0.0
H732 H 0.40691 0.37592 0.50935 0.0
H733 H 0.43733 0.41916 0.41341 0.0
H734 H 0.43916 0.4388 0.55557 0.0
H735 H 0.4055 0.44399 0.54726 0.0
H736 H 0.39956 0.40428 0.55368 0.0
H737 H 0.44823 0.47136 0.40204 0.0
H738 H 0.4394 0.49311 0.43254 0.0
H739 H 0.47708 0.49417 0.43362 0.0
H740 H 0.43291 0.54658 0.51394 0.0
H741 H 0.52088 0.54568 0.52751 0.0
H742 H 0.38197 0.46297 0.50666 0.0
H743 H 0.39278 0.47938 0.46603 0.0
H744 H 0.38498 0.50104 0.49753 0.0
H745 H 0.48902 0.46245 0.52212 0.0
H746 H 0.52547 0.50032 0.5171 0.0
H747 H 0.50204 0.47859 0.48161 0.0
C748 C 0.57573 0.02096 0.52484 0.0
C749 C 0.59626 0.05398 0.52058 0.0
C750 C 0.54413 0.00894 0.53584 0.0
C751 C 0.53307 0.03054 0.54313 0.0
C752 C 0.55449 0.06389 0.54182 0.0
C753 C 0.58573 0.07521 0.53037 0.0
C754 C 0.52193 0.97311 0.53729 0.0
C755 C 0.54378 0.0877 0.54995 0.0
C756 C 0.44448 0.99726 0.52724 0.0
C757 C 0.43159 0.98619 0.55873 0.0
C758 C 0.47772 0.01304 0.52205 0.0
C759 C 0.49846 0.01816 0.5491 0.0
C760 C 0.48582 0.0095 0.58132 0.0
C761 C 0.45255 0.99347 0.58573 0.0
C762 C 0.49047 0.02233 0.4873 0.0
C763 C 0.50722 0.01517 0.61085 0.0
H764 H 0.58376 0.00445 0.51769 0.0
H765 H 0.60098 0.10077 0.52669 0.0
H766 H 0.50949 0.96606 0.56147 0.0
H767 H 0.50322 0.9658 0.51791 0.0
H768 H 0.53484 0.95965 0.53343 0.0
H769 H 0.56447 0.11224 0.55361 0.0
H770 H 0.52899 0.08852 0.52935 0.0
H771 H 0.52878 0.08045 0.57257 0.0
H772 H 0.4285 0.99203 0.50636 0.0
H773 H 0.44304 0.9846 0.61016 0.0
H774 H 0.50146 0.00792 0.4794 0.0
H775 H 0.50948 0.04789 0.4864 0.0
H776 H 0.47139 0.01843 0.46934 0.0
H777 H 0.51668 0.9984 0.60996 0.0
H778 H 0.4942 0.01141 0.63456 0.0
H779 H 0.52808 0.03988 0.61048 0.0
C780 C 0.43436 0.23204 0.29607 0.0
C781 C 0.4131 0.22604 0.3224 0.0
C782 C 0.42675 0.20987 0.27044 0.0
C783 C 0.39729 0.18059 0.2712 0.0
C784 C 0.37526 0.17457 0.29701 0.0
C785 C 0.38328 0.19746 0.32213 0.0
C786 C 0.45078 0.21745 0.24298 0.0
C787 C 0.34367 0.14355 0.29863 0.0
C788 C 0.37896 0.13979 0.18804 0.0
C789 C 0.39504 0.12242 0.19094 0.0
C790 C 0.37681 0.15683 0.21508 0.0
C791 C 0.39077 0.156 0.24561 0.0
C792 C 0.40371 0.13549 0.2495 0.0
C793 C 0.40594 0.11914 0.22194 0.0
C794 C 0.36296 0.17851 0.2098 0.0
C795 C 0.41833 0.13344 0.28178 0.0
H796 H 0.45747 0.25368 0.29564 0.0
H797 H 0.3662 0.1926 0.34172 0.0
H798 H 0.45972 0.20024 0.24365 0.0
H799 H 0.43919 0.21489 0.21858 0.0
H800 H 0.47166 0.2421 0.24491 0.0
H801 H 0.32815 0.14348 0.31896 0.0
H802 H 0.33051 0.13912 0.27493 0.0
H803 H 0.34813 0.12332 0.30252 0.0
H804 H 0.37097 0.14267 0.1639 0.0
H805 H 0.41848 0.10576 0.22392 0.0
H806 H 0.38284 0.20352 0.20668 0.0
H807 H 0.34864 0.17805 0.23146 0.0
H808 H 0.34758 0.1717 0.18739 0.0
H809 H 0.44193 0.1555 0.28516 0.0
H810 H 0.42209 0.1125 0.28242 0.0
H811 H 0.40291 0.13176 0.3029 0.0
C812 C 0.77656 0.14003 0.31276 0.0
C813 C 0.74587 0.13602 0.31757 0.0
C814 C 0.79321 0.15236 0.28295 0.0
C815 C 0.77871 0.16059 0.25723 0.0
C816 C 0.74692 0.15443 0.26099 0.0
C817 C 0.73099 0.1424 0.29106 0.0
C818 C 0.82702 0.15842 0.27979 0.0
C819 C 0.73043 0.16263 0.23407 0.0
C820 C 0.82763 0.23104 0.20087 0.0
C821 C 0.82645 0.21589 0.17095 0.0
C822 C 0.81364 0.21327 0.22954 0.0
C823 C 0.79781 0.17939 0.22823 0.0
C824 C 0.79787 0.16395 0.19847 0.0
C825 C 0.81239 0.18247 0.1701 0.0
C826 C 0.81448 0.23077 0.26084 0.0
C827 C 0.78113 0.1279 0.19609 0.0
H828 H 0.78806 0.13456 0.33269 0.0
H829 H 0.7075 0.13977 0.2941 0.0
H830 H 0.83048 0.14978 0.25559 0.0
H831 H 0.84409 0.18458 0.28096 0.0
H832 H 0.83315 0.1466 0.29981 0.0
H833 H 0.70452 0.15287 0.23923 0.0
H834 H 0.74198 0.18906 0.23175 0.0
H835 H 0.73287 0.15321 0.20991 0.0
H836 H 0.83902 0.25693 0.2016 0.0
H837 H 0.81136 0.17077 0.14691 0.0
H838 H 0.82336 0.22248 0.28179 0.0
H839 H 0.78986 0.22541 0.26712 0.0
H840 H 0.82999 0.25715 0.25841 0.0
H841 H 0.78774 0.11776 0.21728 0.0
H842 H 0.78699 0.11981 0.17275 0.0
H843 H 0.75481 0.11798 0.1971 0.0
C844 C 0.88008 0.63034 0.28413 0.0
C845 C 0.89071 0.60804 0.28356 0.0
C846 C 0.86539 0.63473 0.25619 0.0
C847 C 0.86089 0.61592 0.22769 0.0
C848 C 0.87658 0.59781 0.22531 0.0
C849 C 0.89174 0.59444 0.25331 0.0
C850 C 0.8508 0.65598 0.2588 0.0
C851 C 0.87315 0.57801 0.19509 0.0
C852 C 0.77692 0.573 0.19263 0.0
C853 C 0.78109 0.58708 0.16135 0.0
C854 C 0.80264 0.58273 0.21449 0.0
C855 C 0.83339 0.60798 0.20537 0.0
C856 C 0.83757 0.62362 0.17466 0.0
C857 C 0.81145 0.61268 0.15279 0.0
C858 C 0.7969 0.56527 0.24709 0.0
C859 C 0.86964 0.65118 0.16423 0.0
H860 H 0.87972 0.64144 0.30727 0.0
H861 H 0.90075 0.57785 0.25276 0.0
H862 H 0.8523 0.66787 0.23484 0.0
H863 H 0.82509 0.64122 0.26545 0.0
H864 H 0.86287 0.67458 0.27818 0.0
H865 H 0.89078 0.56953 0.19506 0.0
H866 H 0.84866 0.55674 0.19455 0.0
H867 H 0.87631 0.59197 0.17225 0.0
H868 H 0.7535 0.55406 0.20014 0.0
H869 H 0.81512 0.62385 0.12876 0.0
H870 H 0.80277 0.58227 0.26791 0.0
H871 H 0.81273 0.55474 0.24917 0.0
H872 H 0.77166 0.54571 0.25 0.0
H873 H 0.88394 0.6655 0.18572 0.0
H874 H 0.86664 0.66726 0.14673 0.0
H875 H 0.88345 0.64164 0.15138 0.0
C876 C 0.62712 0.83823 0.79242 0.0
C877 C 0.59668 0.83468 0.79813 0.0
C878 C 0.63259 0.82302 0.76565 0.0
C879 C 0.6072 0.80421 0.74369 0.0
C880 C 0.57691 0.80171 0.74828 0.0
C881 C 0.57198 0.81674 0.77544 0.0
C882 C 0.66521 0.82618 0.7615 0.0
C883 C 0.54923 0.7822 0.72507 0.0
C884 C 0.61547 0.77771 0.6581 0.0
C885 C 0.60284 0.74482 0.66328 0.0
C886 C 0.61959 0.7982 0.68461 0.0
C887 C 0.6112 0.78538 0.71693 0.0
C888 C 0.60155 0.75278 0.72255 0.0
C889 C 0.59718 0.73281 0.69554 0.0
C890 C 0.62971 0.83272 0.67749 0.0
C891 C 0.5929 0.73825 0.75666 0.0
H892 H 0.64673 0.85251 0.80907 0.0
H893 H 0.54832 0.81348 0.77912 0.0
H894 H 0.66337 0.80256 0.76564 0.0
H895 H 0.67406 0.83369 0.73593 0.0
H896 H 0.68314 0.84374 0.77904 0.0
H897 H 0.52788 0.78446 0.73075 0.0
H898 H 0.5565 0.78987 0.69915 0.0
H899 H 0.54222 0.75653 0.72677 0.0
H900 H 0.61933 0.78683 0.63304 0.0
H901 H 0.58726 0.70731 0.6993 0.0
H902 H 0.64669 0.84886 0.69651 0.0
H903 H 0.60828 0.83568 0.67807 0.0
H904 H 0.64108 0.84036 0.65278 0.0
H905 H 0.61105 0.75408 0.77502 0.0
H906 H 0.59088 0.71426 0.75759 0.0
H907 H 0.56952 0.73559 0.76411 0.0
C908 C 0.16697 0.78266 0.82915 0.0
C909 C 0.15697 0.74997 0.83053 0.0
C910 C 0.17939 0.79997 0.79974 0.0
C911 C 0.18184 0.78403 0.77145 0.0
C912 C 0.16911 0.75048 0.77208 0.0
C913 C 0.15669 0.73386 0.80161 0.0
C914 C 0.19213 0.83564 0.79972 0.0
C915 C 0.17112 0.73247 0.74246 0.0
C916 C 0.20855 0.82188 0.68674 0.0
C917 C 0.2409 0.83011 0.68712 0.0
C918 C 0.18911 0.80827 0.71469 0.0
C919 C 0.20243 0.80262 0.74335 0.0
C920 C 0.23537 0.81212 0.74424 0.0
C921 C 0.25419 0.82592 0.71622 0.0
C922 C 0.15417 0.79883 0.7131 0.0
C923 C 0.25056 0.80651 0.77435 0.0
H924 H 0.16689 0.79502 0.85148 0.0
H925 H 0.14796 0.70834 0.80246 0.0
H926 H 0.21869 0.84841 0.80122 0.0
H927 H 0.18558 0.84323 0.77649 0.0
H928 H 0.18295 0.8432 0.82103 0.0
H929 H 0.15672 0.70608 0.74582 0.0
H930 H 0.16272 0.73905 0.71985 0.0
H931 H 0.19649 0.73908 0.73837 0.0
H932 H 0.19823 0.82519 0.66433 0.0
H933 H 0.27941 0.83323 0.71705 0.0
H934 H 0.14701 0.8066 0.73577 0.0
H935 H 0.13921 0.77237 0.71166 0.0
H936 H 0.14878 0.80929 0.69123 0.0
H937 H 0.24622 0.81733 0.79652 0.0
H938 H 0.27684 0.81673 0.77149 0.0
H939 H 0.23948 0.7804 0.77897 0.0
C940 C 0.13534 0.36815 0.72146 0.0
C941 C 0.14041 0.39955 0.72103 0.0
C942 C 0.15005 0.35856 0.74537 0.0
C943 C 0.17092 0.38109 0.76885 0.0
C944 C 0.17432 0.41202 0.77001 0.0
C945 C 0.15861 0.42062 0.74648 0.0
C946 C 0.1447 0.32493 0.74419 0.0
C947 C 0.19628 0.43689 0.79474 0.0
C948 C 0.20944 0.36935 0.84484 0.0
C949 C 0.24095 0.38157 0.83347 0.0
C950 C 0.18493 0.36537 0.82309 0.0
C951 C 0.19243 0.37436 0.78955 0.0
C952 C 0.22324 0.38287 0.77736 0.0
C953 C 0.24699 0.38596 0.79948 0.0
C954 C 0.15199 0.35479 0.83676 0.0
C955 C 0.23237 0.39259 0.74178 0.0
H956 H 0.12117 0.35138 0.70227 0.0
H957 H 0.16173 0.44446 0.74728 0.0
H958 H 0.16503 0.32508 0.73119 0.0
H959 H 0.14346 0.31541 0.76945 0.0
H960 H 0.12229 0.30845 0.73072 0.0
H961 H 0.19537 0.45943 0.79307 0.0
H962 H 0.18975 0.42742 0.82024 0.0
H963 H 0.22138 0.44266 0.79044 0.0
H964 H 0.20453 0.36582 0.87108 0.0
H965 H 0.2713 0.39506 0.79074 0.0
H966 H 0.13306 0.33987 0.8186 0.0
H967 H 0.14981 0.37617 0.84225 0.0
H968 H 0.14767 0.34098 0.86003 0.0
H969 H 0.21392 0.3749 0.72484 0.0
H970 H 0.25589 0.39491 0.73546 0.0
H971 H 0.23388 0.41604 0.73732 0.0
C972 C 0.46876 0.24305 0.10821 0.0
C973 C 0.46784 0.22256 0.08321 0.0
C974 C 0.4822 0.27589 0.1023 0.0
C975 C 0.495 0.28823 0.07069 0.0
C976 C 0.49004 0.267 0.04429 0.0
C977 C 0.47624 0.23414 0.05087 0.0
C978 C 0.48624 0.29767 0.13096 0.0
C979 C 0.50277 0.27917 0.0101 0.0
C980 C 0.52949 0.37773 0.06348 0.0
C981 C 0.56107 0.38905 0.07434 0.0
C982 C 0.50798 0.34485 0.05992 0.0
C983 C 0.51841 0.32289 0.06736 0.0
C984 C 0.55098 0.33427 0.07567 0.0
C985 C 0.57193 0.36728 0.07907 0.0
C986 C 0.47366 0.33368 0.0504 0.0
C987 C 0.56318 0.31151 0.08326 0.0
H988 H 0.46191 0.23394 0.13316 0.0
H989 H 0.47552 0.21829 0.03145 0.0
H990 H 0.51162 0.31011 0.13922 0.0
H991 H 0.48036 0.31626 0.1234 0.0
H992 H 0.47086 0.28419 0.15228 0.0
H993 H 0.49038 0.26018 0.99117 0.0
H994 H 0.50008 0.30006 0.00354 0.0
H995 H 0.52871 0.28704 0.00935 0.0
H996 H 0.52122 0.39457 0.05893 0.0
H997 H 0.59626 0.37585 0.08743 0.0
H998 H 0.4584 0.32537 0.07282 0.0
H999 H 0.46444 0.31321 0.03296 0.0
H1000 H 0.47106 0.35322 0.03892 0.0
H1001 H 0.55198 0.29826 0.1064 0.0
H1002 H 0.58964 0.32418 0.08635 0.0
H1003 H 0.55643 0.29357 0.06321 0.0
C1004 C 0.73438 0.24008 0.08327 0.0
C1005 C 0.75795 0.24849 0.05904 0.0
C1006 C 0.70231 0.22802 0.07462 0.0
C1007 C 0.69355 0.22373 0.04079 0.0
C1008 C 0.71667 0.22883 0.01638 0.0
C1009 C 0.74889 0.24148 0.02581 0.0
C1010 C 0.67844 0.22267 0.10165 0.0
C1011 C 0.70812 0.22326 0.98021 0.0
C1012 C 0.60409 0.18496 0.03907 0.0
C1013 C 0.60068 0.21229 0.04051 0.0
C1014 C 0.63428 0.18786 0.03445 0.0
C1015 C 0.66152 0.21873 0.03178 0.0
C1016 C 0.65763 0.24586 0.02871 0.0
C1017 C 0.62712 0.24222 0.03277 0.0
C1018 C 0.63749 0.15828 0.03584 0.0
C1019 C 0.68612 0.2792 0.025 0.0
H1020 H 0.74129 0.2449 0.10906 0.0
H1021 H 0.76708 0.24772 0.007 0.0
H1022 H 0.66976 0.23998 0.09879 0.0
H1023 H 0.65733 0.19822 0.0999 0.0
H1024 H 0.68897 0.2257 0.12674 0.0
H1025 H 0.72401 0.21646 0.96693 0.0
H1026 H 0.68281 0.2043 0.97635 0.0
H1027 H 0.71154 0.24577 0.96899 0.0
H1028 H 0.58393 0.16151 0.04429 0.0
H1029 H 0.6244 0.26321 0.03238 0.0
H1030 H 0.64986 0.15826 0.05897 0.0
H1031 H 0.65234 0.15828 0.01489 0.0
H1032 H 0.61383 0.1359 0.03504 0.0
H1033 H 0.70108 0.28573 0.04767 0.0
H1034 H 0.67885 0.29748 0.02084 0.0
H1035 H 0.70129 0.28 0.00404 0.0
C1036 C 0.80461 0.41295 0.03152 0.0
C1037 C 0.79435 0.38209 0.0439 0.0
C1038 C 0.78549 0.42719 0.03438 0.0
C1039 C 0.75487 0.40981 0.04914 0.0
C1040 C 0.74304 0.37758 0.0588 0.0
C1041 C 0.76298 0.36412 0.05626 0.0
C1042 C 0.79922 0.46174 0.02409 0.0
C1043 C 0.71007 0.358 0.07373 0.0
C1044 C 0.7269 0.45741 0.09963 0.0
C1045 C 0.70648 0.46086 0.0775 0.0
C1046 C 0.74285 0.441 0.09051 0.0
C1047 C 0.73744 0.42679 0.05879 0.0
C1048 C 0.71636 0.42973 0.03647 0.0
C1049 C 0.70146 0.44725 0.04594 0.0
C1050 C 0.76575 0.43914 0.1148 0.0
C1051 C 0.70933 0.41414 0.00284 0.0
H1052 H 0.82834 0.42667 0.02093 0.0
H1053 H 0.75452 0.34022 0.06572 0.0
H1054 H 0.78171 0.46475 0.00893 0.0
H1055 H 0.80434 0.47687 0.04645 0.0
H1056 H 0.82179 0.47074 0.0098 0.0
H1057 H 0.70383 0.33287 0.07867 0.0
H1058 H 0.70875 0.36895 0.09736 0.0
H1059 H 0.69179 0.35787 0.05691 0.0
H1060 H 0.73087 0.46811 0.124 0.0
H1061 H 0.68531 0.44964 0.02901 0.0
H1062 H 0.78994 0.44945 0.10359 0.0
H1063 H 0.75759 0.41376 0.12088 0.0
H1064 H 0.76782 0.45217 0.13814 0.0
H1065 H 0.73178 0.4236 0.98833 0.0
H1066 H 0.69192 0.4182 0.98865 0.0
H1067 H 0.6995 0.38795 0.00557 0.0
C1068 C 0.75065 0.52666 0.34423 0.0
C1069 C 0.76962 0.52895 0.37154 0.0
C1070 C 0.71753 0.5144 0.34776 0.0
C1071 C 0.70318 0.50345 0.37915 0.0
C1072 C 0.72293 0.50955 0.40731 0.0
C1073 C 0.75605 0.52275 0.40319 0.0
C1074 C 0.69793 0.51018 0.31716 0.0
C1075 C 0.70881 0.49834 0.44132 0.0
C1076 C 0.61543 0.46742 0.40192 0.0
C1077 C 0.60498 0.43461 0.39974 0.0
C1078 C 0.64673 0.49044 0.39257 0.0
C1079 C 0.66823 0.48027 0.38206 0.0
C1080 C 0.65712 0.44709 0.37817 0.0
C1081 C 0.62546 0.42469 0.38668 0.0
C1082 C 0.65708 0.52554 0.39494 0.0
C1083 C 0.67919 0.43515 0.36688 0.0
H1084 H 0.76113 0.53194 0.31972 0.0
H1085 H 0.77062 0.52473 0.42447 0.0
H1086 H 0.69424 0.48854 0.30373 0.0
H1087 H 0.67422 0.50756 0.32294 0.0
H1088 H 0.71103 0.53092 0.30026 0.0
H1089 H 0.7274 0.50828 0.46098 0.0
H1090 H 0.69054 0.50529 0.4467 0.0
H1091 H 0.69671 0.47179 0.44236 0.0
H1092 H 0.59916 0.47497 0.41124 0.0
H1093 H 0.61717 0.39929 0.38486 0.0
H1094 H 0.67048 0.53838 0.3724 0.0
H1095 H 0.67344 0.53638 0.41632 0.0
H1096 H 0.63633 0.52937 0.39813 0.0
H1097 H 0.69001 0.44597 0.3427 0.0
H1098 H 0.66659 0.40866 0.36438 0.0
H1099 H 0.69905 0.44255 0.38491 0.0
C1100 C 0.59927 0.19905 0.45566 0.0
C1101 C 0.5797 0.16728 0.4452 0.0
C1102 C 0.58841 0.22118 0.45435 0.0
C1103 C 0.55731 0.21134 0.44206 0.0
C1104 C 0.53697 0.17899 0.43275 0.0
C1105 C 0.54838 0.15733 0.43455 0.0
C1106 C 0.61061 0.25535 0.46496 0.0
C1107 C 0.50376 0.16761 0.4192 0.0
C1108 C 0.51835 0.26269 0.45331 0.0
C1109 C 0.52429 0.27803 0.42255 0.0
C1110 C 0.52961 0.24146 0.46042 0.0
C1111 C 0.54701 0.23535 0.4361 0.0
C1112 C 0.55362 0.25131 0.40528 0.0
C1113 C 0.54225 0.27249 0.39893 0.0
C1114 C 0.52235 0.22508 0.49365 0.0
C1115 C 0.57209 0.24546 0.37866 0.0
H1116 H 0.62334 0.20672 0.46433 0.0
H1117 H 0.53325 0.13296 0.42606 0.0
H1118 H 0.61653 0.27155 0.44339 0.0
H1119 H 0.59858 0.26278 0.48344 0.0
H1120 H 0.63329 0.2587 0.47579 0.0
H1121 H 0.49006 0.14123 0.41554 0.0
H1122 H 0.49004 0.17443 0.43609 0.0
H1123 H 0.50557 0.17937 0.39508 0.0
H1124 H 0.50453 0.26693 0.47169 0.0
H1125 H 0.54699 0.28429 0.37511 0.0
H1126 H 0.54479 0.22889 0.50548 0.0
H1127 H 0.50656 0.19887 0.49039 0.0
H1128 H 0.51033 0.23393 0.51059 0.0
H1129 H 0.59589 0.25087 0.3882 0.0
H1130 H 0.57574 0.26026 0.35629 0.0
H1131 H 0.55904 0.21983 0.37137 0.0
C1132 C 0.73217 0.36277 0.41202 0.0
C1133 C 0.76297 0.38554 0.40153 0.0
C1134 C 0.72288 0.33024 0.41373 0.0
C1135 C 0.74485 0.32031 0.40418 0.0
C1136 C 0.77643 0.34338 0.39479 0.0
C1137 C 0.7852 0.37583 0.39383 0.0
C1138 C 0.68913 0.30639 0.42437 0.0
C1139 C 0.80038 0.33366 0.38404 0.0
C1140 C 0.72468 0.23678 0.43004 0.0
C1141 C 0.70881 0.21888 0.40189 0.0
C1142 C 0.73732 0.27001 0.43084 0.0
C1143 C 0.73419 0.28565 0.40272 0.0
C1144 C 0.71927 0.26784 0.37376 0.0
C1145 C 0.70663 0.23455 0.37374 0.0
C1146 C 0.7529 0.28818 0.46219 0.0
C1147 C 0.71576 0.2838 0.34318 0.0
H1148 H 0.71507 0.37045 0.4178 0.0
H1149 H 0.80881 0.39338 0.3851 0.0
H1150 H 0.67561 0.2909 0.40316 0.0
H1151 H 0.6895 0.29054 0.44405 0.0
H1152 H 0.67602 0.3183 0.43369 0.0
H1153 H 0.82461 0.35468 0.37988 0.0
H1154 H 0.80221 0.31788 0.40283 0.0
H1155 H 0.79212 0.31978 0.3607 0.0
H1156 H 0.72637 0.22468 0.45189 0.0
H1157 H 0.69447 0.22073 0.35194 0.0
H1158 H 0.73847 0.2982 0.47264 0.0
H1159 H 0.77712 0.30864 0.45682 0.0
H1160 H 0.75514 0.27276 0.4812 0.0
H1161 H 0.70537 0.26688 0.3221 0.0
H1162 H 0.73944 0.30401 0.33566 0.0
H1163 H 0.69999 0.2939 0.34856 0.0
C1164 C 0.41907 0.61645 0.93365 0.0
C1165 C 0.38764 0.61058 0.92994 0.0
C1166 C 0.44454 0.64778 0.93852 0.0
C1167 C 0.43807 0.67336 0.93979 0.0
C1168 C 0.40591 0.66671 0.94081 0.0
C1169 C 0.38104 0.63532 0.93556 0.0
C1170 C 0.47848 0.65393 0.93854 0.0
C1171 C 0.39789 0.69319 0.94312 0.0
C1172 C 0.49765 0.76229 0.94685 0.0
C1173 C 0.49977 0.77137 0.91363 0.0
C1174 C 0.47964 0.72984 0.95601 0.0
C1175 C 0.46352 0.70636 0.93128 0.0
C1176 C 0.46803 0.7154 0.89753 0.0
C1177 C 0.48609 0.74778 0.88918 0.0
C1178 C 0.47604 0.72122 0.99218 0.0
C1179 C 0.45165 0.69118 0.87018 0.0
H1180 H 0.42407 0.59715 0.92949 0.0
H1181 H 0.35657 0.63044 0.93323 0.0
H1182 H 0.49018 0.665 0.91473 0.0
H1183 H 0.49261 0.67099 0.9585 0.0
H1184 H 0.47936 0.6315 0.94182 0.0
H1185 H 0.37207 0.68374 0.94842 0.0
H1186 H 0.4123 0.71051 0.96273 0.0
H1187 H 0.40384 0.70643 0.91935 0.0
H1188 H 0.50838 0.78056 0.96581 0.0
H1189 H 0.48821 0.75476 0.86342 0.0
H1190 H 0.47273 0.69697 0.99622 0.0
H1191 H 0.45465 0.72139 0.00207 0.0
H1192 H 0.49723 0.73891 0.00652 0.0
H1193 H 0.45624 0.67092 0.87289 0.0
H1194 H 0.45984 0.70184 0.84526 0.0
H1195 H 0.42533 0.68126 0.87165 0.0
C1196 C 0.25014 0.72225 0.95492 0.0
C1197 C 0.23391 0.71442 0.92463 0.0
C1198 C 0.28372 0.74151 0.95612 0.0
C1199 C 0.30118 0.75389 0.92641 0.0
C1200 C 0.28469 0.74658 0.89585 0.0
C1201 C 0.2513 0.72659 0.89531 0.0
C1202 C 0.30058 0.74811 0.98906 0.0
C1203 C 0.30236 0.75952 0.86365 0.0
C1204 C 0.38478 0.8268 0.93078 0.0
C1205 C 0.40425 0.81304 0.92675 0.0
C1206 C 0.35122 0.80782 0.93083 0.0
C1207 C 0.33676 0.7742 0.92706 0.0
C1208 C 0.3563 0.76016 0.92294 0.0
C1209 C 0.38982 0.77976 0.92287 0.0
C1210 C 0.33123 0.8238 0.93432 0.0
C1211 C 0.34199 0.7244 0.91919 0.0
H1212 H 0.23667 0.7126 0.97756 0.0
H1213 H 0.23871 0.7207 0.87185 0.0
H1214 H 0.31756 0.73885 0.98889 0.0
H1215 H 0.31486 0.77431 0.99345 0.0
H1216 H 0.28356 0.73684 0.00989 0.0
H1217 H 0.28582 0.7529 0.8422 0.0
H1218 H 0.31716 0.78603 0.86483 0.0
H1219 H 0.3189 0.7501 0.8594 0.0
H1220 H 0.39582 0.85255 0.93327 0.0
H1221 H 0.40479 0.769 0.92024 0.0
H1222 H 0.31523 0.81401 0.95609 0.0
H1223 H 0.3157 0.8186 0.91225 0.0
H1224 H 0.34618 0.8502 0.93716 0.0
H1225 H 0.35944 0.71826 0.90847 0.0
H1226 H 0.32037 0.71389 0.90321 0.0
H1227 H 0.33463 0.71297 0.94387 0.0
C1228 C 0.20893 0.58588 0.94531 0.0
C1229 C 0.17914 0.57426 0.96079 0.0
C1230 C 0.22403 0.56746 0.94437 0.0
C1231 C 0.20881 0.53664 0.95908 0.0
C1232 C 0.18014 0.52596 0.97712 0.0
C1233 C 0.16576 0.54504 0.97795 0.0
C1234 C 0.25509 0.58 0.9255 0.0
C1235 C 0.1634 0.49344 0.99344 0.0
C1236 C 0.22889 0.48178 0.91153 0.0
C1237 C 0.25481 0.48452 0.92984 0.0
C1238 C 0.21175 0.49648 0.92236 0.0
C1239 C 0.22108 0.51451 0.95202 0.0
C1240 C 0.24509 0.51458 0.97222 0.0
C1241 C 0.2616 0.49933 0.96095 0.0
C1242 C 0.18568 0.49517 0.90049 0.0
C1243 C 0.25562 0.53338 0.00405 0.0
H1244 H 0.21947 0.60838 0.93203 0.0
H1245 H 0.14314 0.53634 0.99071 0.0
H1246 H 0.27295 0.57721 0.94032 0.0
H1247 H 0.25073 0.5659 0.90247 0.0
H1248 H 0.26556 0.60565 0.91874 0.0
H1249 H 0.14446 0.49095 0.01085 0.0
H1250 H 0.15204 0.47463 0.9742 0.0
H1251 H 0.18078 0.48894 0.00703 0.0
H1252 H 0.22345 0.47009 0.8876 0.0
H1253 H 0.28172 0.50157 0.97518 0.0
H1254 H 0.19432 0.5189 0.88873 0.0
H1255 H 0.16416 0.48969 0.9153 0.0
H1256 H 0.17857 0.4769 0.88067 0.0
H1257 H 0.27136 0.55916 0.99826 0.0
H1258 H 0.26927 0.52559 0.01999 0.0
H1259 H 0.23477 0.53097 0.01813 0.0
C1260 C 0.35266 0.59101 0.56373 0.0
C1261 C 0.38066 0.58904 0.56268 0.0
C1262 C 0.32294 0.56398 0.57038 0.0
C1263 C 0.32107 0.534 0.57578 0.0
C1264 C 0.349 0.53143 0.57292 0.0
C1265 C 0.3786 0.55913 0.56674 0.0
C1266 C 0.2938 0.568 0.57326 0.0
C1267 C 0.3482 0.49998 0.57765 0.0
C1268 C 0.25106 0.48985 0.63171 0.0
C1269 C 0.22623 0.4772 0.60835 0.0
C1270 C 0.28313 0.50472 0.62168 0.0
C1271 C 0.29022 0.50682 0.58755 0.0
C1272 C 0.26528 0.48911 0.56465 0.0
C1273 C 0.23329 0.47444 0.57535 0.0
C1274 C 0.3091 0.52212 0.64714 0.0
C1275 C 0.27215 0.48921 0.52831 0.0
H1276 H 0.35419 0.61408 0.56094 0.0
H1277 H 0.40018 0.55743 0.56543 0.0
H1278 H 0.27473 0.55143 0.55608 0.0
H1279 H 0.28397 0.56195 0.5987 0.0
H1280 H 0.29934 0.59282 0.56762 0.0
H1281 H 0.36716 0.49918 0.56275 0.0
H1282 H 0.35296 0.49748 0.604 0.0
H1283 H 0.3246 0.47922 0.57084 0.0
H1284 H 0.24557 0.49111 0.65747 0.0
H1285 H 0.21411 0.46397 0.55727 0.0
H1286 H 0.31777 0.5482 0.64569 0.0
H1287 H 0.32982 0.51863 0.64235 0.0
H1288 H 0.30027 0.51385 0.67262 0.0
H1289 H 0.27539 0.51161 0.51697 0.0
H1290 H 0.25209 0.46858 0.51538 0.0
H1291 H 0.29457 0.48844 0.52439 0.0
C1292 C 0.46808 0.85926 0.5479 0.0
C1293 C 0.43603 0.84197 0.55857 0.0
C1294 C 0.48666 0.84443 0.54469 0.0
C1295 C 0.47267 0.81141 0.55176 0.0
C1296 C 0.43965 0.79326 0.5597 0.0
C1297 C 0.4218 0.80878 0.5632 0.0
C1298 C 0.52171 0.86456 0.53597 0.0
C1299 C 0.42362 0.75776 0.56678 0.0
C1300 C 0.50743 0.75797 0.53409 0.0
C1301 C 0.51456 0.75283 0.56631 0.0
C1302 C 0.49616 0.77934 0.52814 0.0
C1303 C 0.49282 0.79625 0.555 0.0
C1304 C 0.50411 0.7942 0.58671 0.0
C1305 C 0.51462 0.77225 0.59204 0.0
C1306 C 0.48461 0.78103 0.49394 0.0
C1307 C 0.50194 0.81261 0.61583 0.0
H1308 H 0.47911 0.88473 0.54324 0.0
H1309 H 0.39718 0.79502 0.57138 0.0
H1310 H 0.53637 0.86893 0.5586 0.0
H1311 H 0.52894 0.85193 0.51805 0.0
H1312 H 0.52743 0.88812 0.52542 0.0
H1313 H 0.39716 0.74655 0.56895 0.0
H1314 H 0.42908 0.74532 0.54695 0.0
H1315 H 0.43303 0.75384 0.5903 0.0
H1316 H 0.50758 0.74308 0.51409 0.0
H1317 H 0.52072 0.76865 0.61688 0.0
H1318 H 0.49031 0.80577 0.48784 0.0
H1319 H 0.45816 0.76545 0.49288 0.0
H1320 H 0.49532 0.77267 0.47485 0.0
H1321 H 0.51049 0.8379 0.60896 0.0
H1322 H 0.51618 0.81221 0.63727 0.0
H1323 H 0.47653 0.80183 0.62363 0.0
C1324 C 0.30727 0.75585 0.59395 0.0
C1325 C 0.29486 0.77547 0.58458 0.0
C1326 C 0.28905 0.72249 0.59059 0.0
C1327 C 0.25719 0.70831 0.57863 0.0
C1328 C 0.24466 0.72812 0.56869 0.0
C1329 C 0.2639 0.76164 0.57135 0.0
C1330 C 0.30377 0.7024 0.60045 0.0
C1331 C 0.21059 0.71389 0.55654 0.0
C1332 C 0.22157 0.62258 0.54867 0.0
C1333 C 0.20688 0.60495 0.57746 0.0
C1334 C 0.23706 0.65616 0.54832 0.0
C1335 C 0.23714 0.67273 0.57717 0.0
C1336 C 0.22051 0.65516 0.60562 0.0
C1337 C 0.20588 0.62156 0.60555 0.0
C1338 C 0.25484 0.67395 0.51759 0.0
C1339 C 0.21941 0.67192 0.63668 0.0
H1340 H 0.3313 0.76668 0.60413 0.0
H1341 H 0.25422 0.77691 0.56459 0.0
H1342 H 0.2908 0.68727 0.62203 0.0
H1343 H 0.30146 0.68607 0.57996 0.0
H1344 H 0.32955 0.71727 0.60699 0.0
H1345 H 0.20495 0.73254 0.54837 0.0
H1346 H 0.20618 0.69728 0.53566 0.0
H1347 H 0.19379 0.69967 0.57662 0.0
H1348 H 0.22179 0.61029 0.52642 0.0
H1349 H 0.19472 0.60858 0.62799 0.0
H1350 H 0.28098 0.68743 0.52276 0.0
H1351 H 0.2477 0.69168 0.51026 0.0
H1352 H 0.25049 0.65758 0.49643 0.0
H1353 H 0.24357 0.68459 0.64815 0.0
H1354 H 0.20221 0.65492 0.65509 0.0
H1355 H 0.21256 0.69019 0.63075 0.0
loop_
_geom_bond_atom_site_label_1
_geom_bond_atom_site_label_2
_geom_bond_distance
_geom_bond_site_symmetry_2
_ccdc_geom_bond_type
Co0 N4 2.148 . S
Co0 N10 2.128 . S
Co0 N20 2.194 . S
Co0 O25 2.351 . S
Co0 O26 2.155 . S
Co0 O27 2.096 . S
C1 N4 1.301 . S
C1 N5 1.328 . S
C1 H6 0.930 . S
C2 C3 1.333 . S
C2 N4 1.317 . S
C2 H7 0.930 . S
C3 C2 1.333 . S
C3 N5 1.350 . S
C3 H29 0.931 . S
N4 Co0 2.148 . S
N4 C1 1.301 . S
N4 C2 1.317 . S
N5 C1 1.328 . S
N5 C3 1.350 . S
H6 C1 0.930 . S
H7 C2 0.930 . S
C8 O9 1.224 . S
C8 O27 1.247 . S
O9 C8 1.224 . S
N10 Co0 2.128 . S
N10 C11 1.355 . S
N10 C13 1.311 . S
C11 N10 1.355 . S
C11 C12 1.363 . S
C11 H23 0.929 . S
C12 C11 1.363 . S
C12 N14 1.375 . S
C12 H30 0.931 . S
C13 N10 1.311 . S
C13 N14 1.347 . S
C13 H24 0.929 . S
N14 C12 1.375 . S
N14 C13 1.347 . S
C15 C18 1.365 . S
C15 N20 1.328 . S
C15 H21 0.929 . S
C16 C17 1.362 . S
C16 C19 1.378 . S
C16 H31 0.929 . S
C17 C16 1.362 . S
C17 C18 1.366 . S
C18 C15 1.365 . S
C18 C17 1.366 . S
C18 H32 0.930 1_554 S
C19 C16 1.378 . S
C19 N20 1.315 . S
C19 H22 0.930 . S
N20 Co0 2.194 . S
N20 C15 1.328 . S
N20 C19 1.315 . S
H21 C15 0.929 . S
H22 C19 0.930 . S
H23 C11 0.929 . S
H24 C13 0.929 . S
O25 Co0 2.351 . S
O25 C28 1.244 . S
O26 Co0 2.155 . S
O26 C28 1.240 . S
O27 Co0 2.096 . S
O27 C8 1.247 . S
C28 O25 1.244 . S
C28 O26 1.240 . S
H29 C3 0.931 . S
H30 C12 0.931 . S
H31 C16 0.929 . S
H32 C18 0.930 1_556 S
Co33 N37 2.148 . S
Co33 N43 2.128 . S
Co33 N53 2.194 . S
Co33 O58 2.351 . S
Co33 O59 2.155 . S
Co33 O60 2.096 . S
C34 N37 1.301 . S
C34 N38 1.328 . S
C34 H39 0.930 . S
C35 C36 1.333 . S
C35 N37 1.317 . S
C35 H40 0.930 . S
C36 C35 1.333 . S
C36 N38 1.350 . S
C36 H62 0.931 . S
N37 Co33 2.148 . S
N37 C34 1.301 . S
N37 C35 1.317 . S
N38 C34 1.328 . S
N38 C36 1.350 . S
H39 C34 0.930 . S
H40 C35 0.930 . S
C41 O42 1.224 . S
C41 O60 1.247 . S
O42 C41 1.224 . S
N43 Co33 2.128 . S
N43 C44 1.355 . S
N43 C46 1.311 . S
C44 N43 1.355 . S
C44 C45 1.363 . S
C44 H56 0.929 . S
C45 C44 1.363 . S
C45 N47 1.375 . S
C45 H63 0.931 . S
C46 N43 1.311 . S
C46 N47 1.347 . S
C46 H57 0.929 . S
N47 C45 1.375 . S
N47 C46 1.347 . S
C48 C51 1.365 . S
C48 N53 1.328 . S
C48 H54 0.929 . S
C49 C50 1.362 . S
C49 C52 1.378 . S
C49 H64 0.929 . S
C50 C49 1.362 . S
C50 C51 1.366 . S
C51 C48 1.365 . S
C51 C50 1.366 . S
C51 H65 0.930 1_554 S
C52 C49 1.378 . S
C52 N53 1.315 . S
C52 H55 0.930 . S
N53 Co33 2.194 . S
N53 C48 1.328 . S
N53 C52 1.315 . S
H54 C48 0.929 . S
H55 C52 0.930 . S
H56 C44 0.929 . S
H57 C46 0.929 . S
O58 Co33 2.351 . S
O58 C61 1.244 . S
O59 Co33 2.155 . S
O59 C61 1.240 . S
O60 Co33 2.096 . S
O60 C41 1.247 . S
C61 O58 1.244 . S
C61 O59 1.240 . S
H62 C36 0.931 . S
H63 C45 0.931 . S
H64 C49 0.929 . S
H65 C51 0.930 1_556 S
Co66 N70 2.148 . S
Co66 N76 2.128 . S
Co66 N86 2.194 . S
Co66 O91 2.351 . S
Co66 O92 2.155 . S
Co66 O93 2.096 . S
C67 N70 1.301 . S
C67 N71 1.328 . S
C67 H72 0.930 . S
C68 C69 1.333 . S
C68 N70 1.317 . S
C68 H73 0.930 . S
C69 C68 1.333 . S
C69 N71 1.350 . S
C69 H95 0.931 . S
N70 Co66 2.148 . S
N70 C67 1.301 . S
N70 C68 1.317 . S
N71 C67 1.328 . S
N71 C69 1.350 . S
H72 C67 0.930 . S
H73 C68 0.930 . S
C74 O75 1.224 . S
C74 O93 1.247 . S
O75 C74 1.224 . S
N76 Co66 2.128 . S
N76 C77 1.355 . S
N76 C79 1.311 . S
C77 N76 1.355 . S
C77 C78 1.363 . S
C77 H89 0.929 . S
C78 C77 1.363 . S
C78 N80 1.375 . S
C78 H96 0.931 . S
C79 N76 1.311 . S
C79 N80 1.347 . S
C79 H90 0.929 . S
N80 C78 1.375 . S
N80 C79 1.347 . S
C81 C84 1.365 . S
C81 N86 1.328 . S
C81 H87 0.929 . S
C82 C83 1.362 . S
C82 C85 1.378 . S
C82 H97 0.929 . S
C83 C82 1.362 . S
C83 C84 1.366 . S
C84 C81 1.365 . S
C84 C83 1.366 . S
C84 H98 0.930 1_554 S
C85 C82 1.378 . S
C85 N86 1.315 . S
C85 H88 0.930 . S
N86 Co66 2.194 . S
N86 C81 1.328 . S
N86 C85 1.315 . S
H87 C81 0.929 . S
H88 C85 0.930 . S
H89 C77 0.929 . S
H90 C79 0.929 . S
O91 Co66 2.351 . S
O91 C94 1.244 . S
O92 Co66 2.155 . S
O92 C94 1.240 . S
O93 Co66 2.096 . S
O93 C74 1.247 . S
C94 O91 1.244 . S
C94 O92 1.240 . S
H95 C69 0.931 . S
H96 C78 0.931 . S
H97 C82 0.929 . S
H98 C84 0.930 1_556 S
Co99 N103 2.148 . S
Co99 N109 2.128 . S
Co99 N119 2.194 . S
Co99 O124 2.351 . S
Co99 O125 2.155 . S
Co99 O126 2.096 . S
C100 N103 1.301 . S
C100 N104 1.328 . S
C100 H105 0.930 . S
C101 C102 1.333 . S
C101 N103 1.317 . S
C101 H106 0.930 . S
C102 C101 1.333 . S
C102 N104 1.350 . S
C102 H128 0.931 . S
N103 Co99 2.148 . S
N103 C100 1.301 . S
N103 C101 1.317 . S
N104 C100 1.328 . S
N104 C102 1.350 . S
H105 C100 0.930 . S
H106 C101 0.930 . S
C107 O108 1.224 . S
C107 O126 1.247 . S
O108 C107 1.224 . S
N109 Co99 2.128 . S
N109 C110 1.355 . S
N109 C112 1.311 . S
C110 N109 1.355 . S
C110 C111 1.363 . S
C110 H122 0.929 . S
C111 C110 1.363 . S
C111 N113 1.375 . S
C111 H129 0.931 . S
C112 N109 1.311 . S
C112 N113 1.347 . S
C112 H123 0.929 . S
N113 C111 1.375 . S
N113 C112 1.347 . S
C114 C117 1.365 . S
C114 N119 1.328 . S
C114 H120 0.929 . S
C115 C116 1.362 . S
C115 C118 1.378 . S
C115 H130 0.929 . S
C116 C115 1.362 . S
C116 C117 1.366 . S
C117 C114 1.365 . S
C117 C116 1.366 . S
C117 H131 0.930 . S
C118 C115 1.378 . S
C118 N119 1.315 . S
C118 H121 0.930 . S
N119 Co99 2.194 . S
N119 C114 1.328 . S
N119 C118 1.315 . S
H120 C114 0.929 . S
H121 C118 0.930 . S
H122 C110 0.929 . S
H123 C112 0.929 . S
O124 Co99 2.351 . S
O124 C127 1.244 . S
O125 Co99 2.155 . S
O125 C127 1.240 . S
O126 Co99 2.096 . S
O126 C107 1.247 . S
C127 O124 1.244 . S
C127 O125 1.240 . S
H128 C102 0.931 . S
H129 C111 0.931 . S
H130 C115 0.929 . S
H131 C117 0.930 . S
Co132 N136 2.148 . S
Co132 N142 2.128 . S
Co132 N152 2.194 . S
Co132 O157 2.351 . S
Co132 O158 2.155 . S
Co132 O159 2.096 . S
C133 N136 1.301 . S
C133 N137 1.328 . S
C133 H138 0.930 . S
C134 C135 1.333 . S
C134 N136 1.317 . S
C134 H139 0.930 . S
C135 C134 1.333 . S
C135 N137 1.350 . S
C135 H161 0.931 . S
N136 Co132 2.148 . S
N136 C133 1.301 . S
N136 C134 1.317 . S
N137 C133 1.328 . S
N137 C135 1.350 . S
H138 C133 0.930 . S
H139 C134 0.930 . S
C140 O141 1.224 . S
C140 O159 1.247 . S
O141 C140 1.224 . S
N142 Co132 2.128 . S
N142 C143 1.355 . S
N142 C145 1.311 . S
C143 N142 1.355 . S
C143 C144 1.363 . S
C143 H155 0.929 . S
C144 C143 1.363 . S
C144 N146 1.375 . S
C144 H162 0.931 . S
C145 N142 1.311 . S
C145 N146 1.347 . S
C145 H156 0.929 . S
N146 C144 1.375 . S
N146 C145 1.347 . S
C147 C150 1.365 . S
C147 N152 1.328 . S
C147 H153 0.929 . S
C148 C149 1.362 . S
C148 C151 1.378 . S
C148 H163 0.929 . S
C149 C148 1.362 . S
C149 C150 1.366 . S
C150 C147 1.365 . S
C150 C149 1.366 . S
C150 H164 0.930 . S
C151 C148 1.378 . S
C151 N152 1.315 . S
C151 H154 0.930 . S
N152 Co132 2.194 . S
N152 C147 1.328 . S
N152 C151 1.315 . S
H153 C147 0.929 . S
H154 C151 0.930 . S
H155 C143 0.929 . S
H156 C145 0.929 . S
O157 Co132 2.351 . S
O157 C160 1.244 . S
O158 Co132 2.155 . S
O158 C160 1.240 . S
O159 Co132 2.096 . S
O159 C140 1.247 . S
C160 O157 1.244 . S
C160 O158 1.240 . S
H161 C135 0.931 . S
H162 C144 0.931 . S
H163 C148 0.929 . S
H164 C150 0.930 . S
Co165 N169 2.148 . S
Co165 N175 2.128 . S
Co165 N185 2.194 . S
Co165 O190 2.351 . S
Co165 O191 2.155 . S
Co165 O192 2.096 . S
C166 N169 1.301 . S
C166 N170 1.328 . S
C166 H171 0.930 . S
C167 C168 1.333 . S
C167 N169 1.317 . S
C167 H172 0.930 . S
C168 C167 1.333 . S
C168 N170 1.350 . S
C168 H194 0.931 . S
N169 Co165 2.148 . S
N169 C166 1.301 . S
N169 C167 1.317 . S
N170 C166 1.328 . S
N170 C168 1.350 . S
H171 C166 0.930 . S
H172 C167 0.930 . S
C173 O174 1.224 . S
C173 O192 1.247 . S
O174 C173 1.224 . S
N175 Co165 2.128 . S
N175 C176 1.355 . S
N175 C178 1.311 . S
C176 N175 1.355 . S
C176 C177 1.363 . S
C176 H188 0.929 . S
C177 C176 1.363 . S
C177 N179 1.375 . S
C177 H195 0.931 . S
C178 N175 1.311 . S
C178 N179 1.347 . S
C178 H189 0.929 . S
N179 C177 1.375 . S
N179 C178 1.347 . S
C180 C183 1.365 . S
C180 N185 1.328 . S
C180 H186 0.929 . S
C181 C182 1.362 . S
C181 C184 1.378 . S
C181 H196 0.929 . S
C182 C181 1.362 . S
C182 C183 1.366 . S
C183 C180 1.365 . S
C183 C182 1.366 . S
C183 H197 0.930 . S
C184 C181 1.378 . S
C184 N185 1.315 . S
C184 H187 0.930 . S
N185 Co165 2.194 . S
N185 C180 1.328 . S
N185 C184 1.315 . S
H186 C180 0.929 . S
H187 C184 0.930 . S
H188 C176 0.929 . S
H189 C178 0.929 . S
O190 Co165 2.351 . S
O190 C193 1.244 . S
O191 Co165 2.155 . S
O191 C193 1.240 . S
O192 Co165 2.096 . S
O192 C173 1.247 . S
C193 O190 1.244 . S
C193 O191 1.240 . S
H194 C168 0.931 . S
H195 C177 0.931 . S
H196 C181 0.929 . S
H197 C183 0.930 . S
Co198 N202 2.148 . S
Co198 N208 2.128 . S
Co198 N218 2.194 . S
Co198 O223 2.351 . S
Co198 O224 2.155 . S
Co198 O225 2.096 . S
C199 N202 1.301 . S
C199 N203 1.328 . S
C199 H204 0.930 . S
C200 C201 1.333 . S
C200 N202 1.317 . S
C200 H205 0.930 . S
C201 C200 1.333 . S
C201 N203 1.350 . S
C201 H227 0.931 . S
N202 Co198 2.148 . S
N202 C199 1.301 . S
N202 C200 1.317 . S
N203 C199 1.328 . S
N203 C201 1.350 . S
H204 C199 0.930 . S
H205 C200 0.930 . S
C206 O207 1.224 . S
C206 O225 1.247 . S
O207 C206 1.224 . S
N208 Co198 2.128 . S
N208 C209 1.355 . S
N208 C211 1.311 . S
C209 N208 1.355 . S
C209 C210 1.363 . S
C209 H221 0.929 . S
C210 C209 1.363 . S
C210 N212 1.375 . S
C210 H228 0.931 . S
C211 N208 1.311 . S
C211 N212 1.347 . S
C211 H222 0.929 . S
N212 C210 1.375 . S
N212 C211 1.347 . S
C213 C216 1.365 . S
C213 N218 1.328 . S
C213 H219 0.929 . S
C214 C215 1.362 . S
C214 C217 1.378 . S
C214 H229 0.929 . S
C215 C214 1.362 . S
C215 C216 1.366 . S
C216 C213 1.365 . S
C216 C215 1.366 . S
C216 H230 0.930 1_556 S
C217 C214 1.378 . S
C217 N218 1.315 . S
C217 H220 0.930 . S
N218 Co198 2.194 . S
N218 C213 1.328 . S
N218 C217 1.315 . S
H219 C213 0.929 . S
H220 C217 0.930 . S
H221 C209 0.929 . S
H222 C211 0.929 . S
O223 Co198 2.351 . S
O223 C226 1.244 . S
O224 Co198 2.155 . S
O224 C226 1.240 . S
O225 Co198 2.096 . S
O225 C206 1.247 . S
C226 O223 1.244 . S
C226 O224 1.240 . S
H227 C201 0.931 . S
H228 C210 0.931 . S
H229 C214 0.929 . S
H230 C216 0.930 1_554 S
Co231 N235 2.148 . S
Co231 N241 2.128 . S
Co231 N251 2.194 . S
Co231 O256 2.351 . S
Co231 O257 2.155 . S
Co231 O258 2.096 . S
C232 N235 1.301 . S
C232 N236 1.328 . S
C232 H237 0.930 . S
C233 C234 1.333 . S
C233 N235 1.317 . S
C233 H238 0.930 . S
C234 C233 1.333 . S
C234 N236 1.350 . S
C234 H260 0.931 . S
N235 Co231 2.148 . S
N235 C232 1.301 . S
N235 C233 1.317 . S
N236 C232 1.328 . S
N236 C234 1.350 . S
H237 C232 0.930 . S
H238 C233 0.930 . S
C239 O240 1.224 . S
C239 O258 1.247 . S
O240 C239 1.224 . S
N241 Co231 2.128 . S
N241 C242 1.355 . S
N241 C244 1.311 . S
C242 N241 1.355 . S
C242 C243 1.363 . S
C242 H254 0.929 . S
C243 C242 1.363 . S
C243 N245 1.375 . S
C243 H261 0.931 . S
C244 N241 1.311 . S
C244 N245 1.347 . S
C244 H255 0.929 . S
N245 C243 1.375 . S
N245 C244 1.347 . S
C246 C249 1.365 . S
C246 N251 1.328 . S
C246 H252 0.929 . S
C247 C248 1.362 . S
C247 C250 1.378 . S
C247 H262 0.929 . S
C248 C247 1.362 . S
C248 C249 1.366 . S
C249 C246 1.365 . S
C249 C248 1.366 . S
C249 H263 0.930 1_556 S
C250 C247 1.378 . S
C250 N251 1.315 . S
C250 H253 0.930 . S
N251 Co231 2.194 . S
N251 C246 1.328 . S
N251 C250 1.315 . S
H252 C246 0.929 . S
H253 C250 0.930 . S
H254 C242 0.929 . S
H255 C244 0.929 . S
O256 Co231 2.351 . S
O256 C259 1.244 . S
O257 Co231 2.155 . S
O257 C259 1.240 . S
O258 Co231 2.096 . S
O258 C239 1.247 . S
C259 O256 1.244 . S
C259 O257 1.240 . S
H260 C234 0.931 . S
H261 C243 0.931 . S
H262 C247 0.929 . S
H263 C249 0.930 1_554 S
Co264 N268 2.148 . S
Co264 N274 2.128 . S
Co264 N284 2.194 . S
Co264 O289 2.351 . S
Co264 O290 2.155 . S
Co264 O291 2.096 . S
C265 N268 1.301 . S
C265 N269 1.328 . S
C265 H270 0.930 . S
C266 C267 1.333 . S
C266 N268 1.317 . S
C266 H271 0.930 . S
C267 C266 1.333 . S
C267 N269 1.350 . S
C267 H293 0.931 . S
N268 Co264 2.148 . S
N268 C265 1.301 . S
N268 C266 1.317 . S
N269 C265 1.328 . S
N269 C267 1.350 . S
H270 C265 0.930 . S
H271 C266 0.930 . S
C272 O273 1.224 . S
C272 O291 1.247 . S
O273 C272 1.224 . S
N274 Co264 2.128 . S
N274 C275 1.355 . S
N274 C277 1.311 . S
C275 N274 1.355 . S
C275 C276 1.363 . S
C275 H287 0.929 . S
C276 C275 1.363 . S
C276 N278 1.375 . S
C276 H294 0.931 . S
C277 N274 1.311 . S
C277 N278 1.347 . S
C277 H288 0.929 . S
N278 C276 1.375 . S
N278 C277 1.347 . S
C279 C282 1.365 . S
C279 N284 1.328 . S
C279 H285 0.929 . S
C280 C281 1.362 . S
C280 C283 1.378 . S
C280 H295 0.929 . S
C281 C280 1.362 . S
C281 C282 1.366 . S
C282 C279 1.365 . S
C282 C281 1.366 . S
C282 H296 0.930 1_556 S
C283 C280 1.378 . S
C283 N284 1.315 . S
C283 H286 0.930 . S
N284 Co264 2.194 . S
N284 C279 1.328 . S
N284 C283 1.315 . S
H285 C279 0.929 . S
H286 C283 0.930 . S
H287 C275 0.929 . S
H288 C277 0.929 . S
O289 Co264 2.351 . S
O289 C292 1.244 . S
O290 Co264 2.155 . S
O290 C292 1.240 . S
O291 Co264 2.096 . S
O291 C272 1.247 . S
C292 O289 1.244 . S
C292 O290 1.240 . S
H293 C267 0.931 . S
H294 C276 0.931 . S
H295 C280 0.929 . S
H296 C282 0.930 1_554 S
Co297 N301 2.148 . S
Co297 N307 2.128 . S
Co297 N317 2.194 . S
Co297 O322 2.351 . S
Co297 O323 2.155 . S
Co297 O324 2.096 . S
C298 N301 1.301 . S
C298 N302 1.328 . S
C298 H303 0.930 . S
C299 C300 1.333 . S
C299 N301 1.317 . S
C299 H304 0.930 . S
C300 C299 1.333 . S
C300 N302 1.350 . S
C300 H326 0.931 . S
N301 Co297 2.148 . S
N301 C298 1.301 . S
N301 C299 1.317 . S
N302 C298 1.328 . S
N302 C300 1.350 . S
H303 C298 0.930 . S
H304 C299 0.930 . S
C305 O306 1.224 . S
C305 O324 1.247 . S
O306 C305 1.224 . S
N307 Co297 2.128 . S
N307 C308 1.355 . S
N307 C310 1.311 . S
C308 N307 1.355 . S
C308 C309 1.363 . S
C308 H320 0.929 . S
C309 C308 1.363 . S
C309 N311 1.375 . S
C309 H327 0.931 . S
C310 N307 1.311 . S
C310 N311 1.347 . S
C310 H321 0.929 . S
N311 C309 1.375 . S
N311 C310 1.347 . S
C312 C315 1.365 . S
C312 N317 1.328 . S
C312 H318 0.929 . S
C313 C314 1.362 . S
C313 C316 1.378 . S
C313 H328 0.929 . S
C314 C313 1.362 . S
C314 C315 1.366 . S
C315 C312 1.365 . S
C315 C314 1.366 . S
C315 H329 0.930 . S
C316 C313 1.378 . S
C316 N317 1.315 . S
C316 H319 0.930 . S
N317 Co297 2.194 . S
N317 C312 1.328 . S
N317 C316 1.315 . S
H318 C312 0.929 . S
H319 C316 0.930 . S
H320 C308 0.929 . S
H321 C310 0.929 . S
O322 Co297 2.351 . S
O322 C325 1.244 . S
O323 Co297 2.155 . S
O323 C325 1.240 . S
O324 Co297 2.096 . S
O324 C305 1.247 . S
C325 O322 1.244 . S
C325 O323 1.240 . S
H326 C300 0.931 . S
H327 C309 0.931 . S
H328 C313 0.929 . S
H329 C315 0.930 . S
Co330 N334 2.148 . S
Co330 N340 2.128 . S
Co330 N350 2.194 . S
Co330 O355 2.351 . S
Co330 O356 2.155 . S
Co330 O357 2.096 . S
C331 N334 1.301 . S
C331 N335 1.328 . S
C331 H336 0.930 . S
C332 C333 1.333 . S
C332 N334 1.317 . S
C332 H337 0.930 . S
C333 C332 1.333 . S
C333 N335 1.350 . S
C333 H359 0.931 . S
N334 Co330 2.148 . S
N334 C331 1.301 . S
N334 C332 1.317 . S
N335 C331 1.328 . S
N335 C333 1.350 . S
H336 C331 0.930 . S
H337 C332 0.930 . S
C338 O339 1.224 . S
C338 O357 1.247 . S
O339 C338 1.224 . S
N340 Co330 2.128 . S
N340 C341 1.355 . S
N340 C343 1.311 . S
C341 N340 1.355 . S
C341 C342 1.363 . S
C341 H353 0.929 . S
C342 C341 1.363 . S
C342 N344 1.375 . S
C342 H360 0.931 . S
C343 N340 1.311 . S
C343 N344 1.347 . S
C343 H354 0.929 . S
N344 C342 1.375 . S
N344 C343 1.347 . S
C345 C348 1.365 . S
C345 N350 1.328 . S
C345 H351 0.929 . S
C346 C347 1.362 . S
C346 C349 1.378 . S
C346 H361 0.929 . S
C347 C346 1.362 . S
C347 C348 1.366 . S
C348 C345 1.365 . S
C348 C347 1.366 . S
C348 H362 0.930 . S
C349 C346 1.378 . S
C349 N350 1.315 . S
C349 H352 0.930 . S
N350 Co330 2.194 . S
N350 C345 1.328 . S
N350 C349 1.315 . S
H351 C345 0.929 . S
H352 C349 0.930 . S
H353 C341 0.929 . S
H354 C343 0.929 . S
O355 Co330 2.351 . S
O355 C358 1.244 . S
O356 Co330 2.155 . S
O356 C358 1.240 . S
O357 Co330 2.096 . S
O357 C338 1.247 . S
C358 O355 1.244 . S
C358 O356 1.240 . S
H359 C333 0.931 . S
H360 C342 0.931 . S
H361 C346 0.929 . S
H362 C348 0.930 . S
Co363 N367 2.148 . S
Co363 N373 2.128 . S
Co363 N383 2.194 . S
Co363 O388 2.351 . S
Co363 O389 2.155 . S
Co363 O390 2.096 . S
C364 N367 1.301 . S
C364 N368 1.328 . S
C364 H369 0.930 . S
C365 C366 1.333 . S
C365 N367 1.317 . S
C365 H370 0.930 . S
C366 C365 1.333 . S
C366 N368 1.350 . S
C366 H392 0.931 . S
N367 Co363 2.148 . S
N367 C364 1.301 . S
N367 C365 1.317 . S
N368 C364 1.328 . S
N368 C366 1.350 . S
H369 C364 0.930 . S
H370 C365 0.930 . S
C371 O372 1.224 . S
C371 O390 1.247 . S
O372 C371 1.224 . S
N373 Co363 2.128 . S
N373 C374 1.355 . S
N373 C376 1.311 . S
C374 N373 1.355 . S
C374 C375 1.363 . S
C374 H386 0.929 . S
C375 C374 1.363 . S
C375 N377 1.375 . S
C375 H393 0.931 . S
C376 N373 1.311 . S
C376 N377 1.347 . S
C376 H387 0.929 . S
N377 C375 1.375 . S
N377 C376 1.347 . S
C378 C381 1.365 . S
C378 N383 1.328 . S
C378 H384 0.929 . S
C379 C380 1.362 . S
C379 C382 1.378 . S
C379 H394 0.929 . S
C380 C379 1.362 . S
C380 C381 1.366 . S
C381 C378 1.365 . S
C381 C380 1.366 . S
C381 H395 0.930 . S
C382 C379 1.378 . S
C382 N383 1.315 . S
C382 H385 0.930 . S
N383 Co363 2.194 . S
N383 C378 1.328 . S
N383 C382 1.315 . S
H384 C378 0.929 . S
H385 C382 0.930 . S
H386 C374 0.929 . S
H387 C376 0.929 . S
O388 Co363 2.351 . S
O388 C391 1.244 . S
O389 Co363 2.155 . S
O389 C391 1.240 . S
O390 Co363 2.096 . S
O390 C371 1.247 . S
C391 O388 1.244 . S
C391 O389 1.240 . S
H392 C366 0.931 . S
H393 C375 0.931 . S
H394 C379 0.929 . S
H395 C381 0.930 . S
C396 C397 1.391 . S
C396 C398 1.394 . S
C396 H412 0.931 . S
C397 C396 1.391 . S
C397 C401 1.376 . S
C398 C396 1.394 . S
C398 C399 1.369 . S
C398 C402 1.531 . S
C399 C398 1.369 . S
C399 C400 1.410 . S
C399 C407 1.503 . S
C400 C399 1.410 . S
C400 C401 1.392 . S
C400 C403 1.511 . S
C401 C397 1.376 . S
C401 C400 1.392 . S
C401 H413 0.929 . S
C402 C398 1.531 . S
C402 H414 0.960 . S
C402 H415 0.962 . S
C402 H416 0.960 . S
C403 C400 1.511 . S
C403 H417 0.961 . S
C403 H418 0.961 . S
C403 H419 0.961 . S
C404 C405 1.370 . S
C404 C406 1.363 . S
C404 H420 0.931 . S
C405 C404 1.370 . S
C405 C409 1.408 . S
C406 C404 1.363 . S
C406 C407 1.370 . S
C406 C410 1.524 . S
C407 C399 1.503 . S
C407 C406 1.370 . S
C407 C408 1.403 . S
C408 C407 1.403 . S
C408 C409 1.404 . S
C408 C411 1.539 . S
C409 C405 1.408 . S
C409 C408 1.404 . S
C409 H421 0.930 . S
C410 C406 1.524 . S
C410 H422 0.956 . S
C410 H423 0.961 . S
C410 H424 0.961 . S
C411 C408 1.539 . S
C411 H425 0.958 . S
C411 H426 0.961 . S
C411 H427 0.960 . S
H412 C396 0.931 . S
H413 C401 0.929 . S
H414 C402 0.960 . S
H415 C402 0.962 . S
H416 C402 0.960 . S
H417 C403 0.961 . S
H418 C403 0.961 . S
H419 C403 0.961 . S
H420 C404 0.931 . S
H421 C409 0.930 . S
H422 C410 0.956 . S
H423 C410 0.961 . S
H424 C410 0.961 . S
H425 C411 0.958 . S
H426 C411 0.961 . S
H427 C411 0.960 . S
C428 C429 1.391 . S
C428 C430 1.394 . S
C428 H444 0.931 . S
C429 C428 1.391 . S
C429 C433 1.376 . S
C430 C428 1.394 . S
C430 C431 1.369 . S
C430 C434 1.531 . S
C431 C430 1.369 . S
C431 C432 1.410 . S
C431 C439 1.503 . S
C432 C431 1.410 . S
C432 C433 1.392 . S
C432 C435 1.511 . S
C433 C429 1.376 . S
C433 C432 1.392 . S
C433 H445 0.929 . S
C434 C430 1.531 . S
C434 H446 0.960 . S
C434 H447 0.962 . S
C434 H448 0.960 . S
C435 C432 1.511 . S
C435 H449 0.961 . S
C435 H450 0.961 . S
C435 H451 0.961 . S
C436 C437 1.370 . S
C436 C438 1.363 . S
C436 H452 0.931 . S
C437 C436 1.370 . S
C437 C441 1.408 . S
C438 C436 1.363 . S
C438 C439 1.370 . S
C438 C442 1.524 . S
C439 C431 1.503 . S
C439 C438 1.370 . S
C439 C440 1.403 . S
C440 C439 1.403 . S
C440 C441 1.404 . S
C440 C443 1.539 . S
C441 C437 1.408 . S
C441 C440 1.404 . S
C441 H453 0.930 . S
C442 C438 1.524 . S
C442 H454 0.956 . S
C442 H455 0.961 . S
C442 H456 0.961 . S
C443 C440 1.539 . S
C443 H457 0.958 . S
C443 H458 0.961 . S
C443 H459 0.960 . S
H444 C428 0.931 . S
H445 C433 0.929 . S
H446 C434 0.960 . S
H447 C434 0.962 . S
H448 C434 0.960 . S
H449 C435 0.961 . S
H450 C435 0.961 . S
H451 C435 0.961 . S
H452 C436 0.931 . S
H453 C441 0.930 . S
H454 C442 0.956 . S
H455 C442 0.961 . S
H456 C442 0.961 . S
H457 C443 0.958 . S
H458 C443 0.961 . S
H459 C443 0.960 . S
C460 C461 1.391 . S
C460 C462 1.394 . S
C460 H476 0.931 . S
C461 C460 1.391 . S
C461 C465 1.376 . S
C462 C460 1.394 . S
C462 C463 1.369 . S
C462 C466 1.531 . S
C463 C462 1.369 . S
C463 C464 1.410 . S
C463 C471 1.503 . S
C464 C463 1.410 . S
C464 C465 1.392 . S
C464 C467 1.511 . S
C465 C461 1.376 . S
C465 C464 1.392 . S
C465 H477 0.929 . S
C466 C462 1.531 . S
C466 H478 0.960 . S
C466 H479 0.962 . S
C466 H480 0.960 . S
C467 C464 1.511 . S
C467 H481 0.961 . S
C467 H482 0.961 . S
C467 H483 0.961 . S
C468 C469 1.370 . S
C468 C470 1.363 . S
C468 H484 0.931 . S
C469 C468 1.370 . S
C469 C473 1.408 . S
C470 C468 1.363 . S
C470 C471 1.370 . S
C470 C474 1.524 . S
C471 C463 1.503 . S
C471 C470 1.370 . S
C471 C472 1.403 . S
C472 C471 1.403 . S
C472 C473 1.404 . S
C472 C475 1.539 . S
C473 C469 1.408 . S
C473 C472 1.404 . S
C473 H485 0.930 . S
C474 C470 1.524 . S
C474 H486 0.956 . S
C474 H487 0.961 . S
C474 H488 0.961 . S
C475 C472 1.539 . S
C475 H489 0.958 . S
C475 H490 0.961 . S
C475 H491 0.960 . S
H476 C460 0.931 . S
H477 C465 0.929 . S
H478 C466 0.960 . S
H479 C466 0.962 . S
H480 C466 0.960 . S
H481 C467 0.961 . S
H482 C467 0.961 . S
H483 C467 0.961 . S
H484 C468 0.931 . S
H485 C473 0.930 . S
H486 C474 0.956 . S
H487 C474 0.961 . S
H488 C474 0.961 . S
H489 C475 0.958 . S
H490 C475 0.961 . S
H491 C475 0.960 . S
C492 C493 1.391 . S
C492 C494 1.394 . S
C492 H508 0.931 . S
C493 C492 1.391 . S
C493 C497 1.376 . S
C494 C492 1.394 . S
C494 C495 1.369 . S
C494 C498 1.531 . S
C495 C494 1.369 . S
C495 C496 1.410 . S
C495 C503 1.503 . S
C496 C495 1.410 . S
C496 C497 1.392 . S
C496 C499 1.511 . S
C497 C493 1.376 . S
C497 C496 1.392 . S
C497 H509 0.929 . S
C498 C494 1.531 . S
C498 H510 0.960 . S
C498 H511 0.962 . S
C498 H512 0.960 . S
C499 C496 1.511 . S
C499 H513 0.961 . S
C499 H514 0.961 . S
C499 H515 0.961 . S
C500 C501 1.370 . S
C500 C502 1.363 . S
C500 H516 0.931 . S
C501 C500 1.370 . S
C501 C505 1.408 . S
C502 C500 1.363 . S
C502 C503 1.370 . S
C502 C506 1.524 . S
C503 C495 1.503 . S
C503 C502 1.370 . S
C503 C504 1.403 . S
C504 C503 1.403 . S
C504 C505 1.404 . S
C504 C507 1.539 . S
C505 C501 1.408 . S
C505 C504 1.404 . S
C505 H517 0.930 . S
C506 C502 1.524 . S
C506 H518 0.956 . S
C506 H519 0.961 . S
C506 H520 0.961 . S
C507 C504 1.539 . S
C507 H521 0.958 . S
C507 H522 0.961 . S
C507 H523 0.960 . S
H508 C492 0.931 . S
H509 C497 0.929 . S
H510 C498 0.960 . S
H511 C498 0.962 . S
H512 C498 0.960 . S
H513 C499 0.961 . S
H514 C499 0.961 . S
H515 C499 0.961 . S
H516 C500 0.931 . S
H517 C505 0.930 . S
H518 C506 0.956 . S
H519 C506 0.961 . S
H520 C506 0.961 . S
H521 C507 0.958 . S
H522 C507 0.961 . S
H523 C507 0.960 . S
C524 C525 1.391 . S
C524 C526 1.394 . S
C524 H540 0.931 . S
C525 C524 1.391 . S
C525 C529 1.376 . S
C526 C524 1.394 . S
C526 C527 1.369 . S
C526 C530 1.531 . S
C527 C526 1.369 . S
C527 C528 1.410 . S
C527 C535 1.503 . S
C528 C527 1.410 . S
C528 C529 1.392 . S
C528 C531 1.511 . S
C529 C525 1.376 . S
C529 C528 1.392 . S
C529 H541 0.929 . S
C530 C526 1.531 . S
C530 H542 0.960 . S
C530 H543 0.962 . S
C530 H544 0.960 . S
C531 C528 1.511 . S
C531 H545 0.961 . S
C531 H546 0.961 . S
C531 H547 0.961 . S
C532 C533 1.370 . S
C532 C534 1.363 . S
C532 H548 0.931 . S
C533 C532 1.370 . S
C533 C537 1.408 . S
C534 C532 1.363 . S
C534 C535 1.370 . S
C534 C538 1.524 . S
C535 C527 1.503 . S
C535 C534 1.370 . S
C535 C536 1.403 . S
C536 C535 1.403 . S
C536 C537 1.404 . S
C536 C539 1.539 . S
C537 C533 1.408 . S
C537 C536 1.404 . S
C537 H549 0.930 . S
C538 C534 1.524 . S
C538 H550 0.956 . S
C538 H551 0.961 . S
C538 H552 0.961 . S
C539 C536 1.539 . S
C539 H553 0.958 . S
C539 H554 0.961 . S
C539 H555 0.960 . S
H540 C524 0.931 . S
H541 C529 0.929 . S
H542 C530 0.960 . S
H543 C530 0.962 . S
H544 C530 0.960 . S
H545 C531 0.961 . S
H546 C531 0.961 . S
H547 C531 0.961 . S
H548 C532 0.931 . S
H549 C537 0.930 . S
H550 C538 0.956 . S
H551 C538 0.961 . S
H552 C538 0.961 . S
H553 C539 0.958 . S
H554 C539 0.961 . S
H555 C539 0.960 . S
C556 C557 1.391 . S
C556 C558 1.394 . S
C556 H572 0.931 . S
C557 C556 1.391 . S
C557 C561 1.376 . S
C558 C556 1.394 . S
C558 C559 1.369 . S
C558 C562 1.531 . S
C559 C558 1.369 . S
C559 C560 1.410 . S
C559 C567 1.503 . S
C560 C559 1.410 . S
C560 C561 1.392 . S
C560 C563 1.511 . S
C561 C557 1.376 . S
C561 C560 1.392 . S
C561 H573 0.929 . S
C562 C558 1.531 . S
C562 H574 0.960 . S
C562 H575 0.962 . S
C562 H576 0.960 . S
C563 C560 1.511 . S
C563 H577 0.961 . S
C563 H578 0.961 . S
C563 H579 0.961 . S
C564 C565 1.370 . S
C564 C566 1.363 . S
C564 H580 0.931 . S
C565 C564 1.370 . S
C565 C569 1.408 . S
C566 C564 1.363 . S
C566 C567 1.370 . S
C566 C570 1.524 . S
C567 C559 1.503 . S
C567 C566 1.370 . S
C567 C568 1.403 . S
C568 C567 1.403 . S
C568 C569 1.404 . S
C568 C571 1.539 . S
C569 C565 1.408 . S
C569 C568 1.404 . S
C569 H581 0.930 . S
C570 C566 1.524 . S
C570 H582 0.956 . S
C570 H583 0.961 . S
C570 H584 0.961 . S
C571 C568 1.539 . S
C571 H585 0.958 . S
C571 H586 0.961 . S
C571 H587 0.960 . S
H572 C556 0.931 . S
H573 C561 0.929 . S
H574 C562 0.960 . S
H575 C562 0.962 . S
H576 C562 0.960 . S
H577 C563 0.961 . S
H578 C563 0.961 . S
H579 C563 0.961 . S
H580 C564 0.931 . S
H581 C569 0.930 . S
H582 C570 0.956 . S
H583 C570 0.961 . S
H584 C570 0.961 . S
H585 C571 0.958 . S
H586 C571 0.961 . S
H587 C571 0.960 . S
C588 C589 1.391 . S
C588 C590 1.394 1_544 S
C588 H604 0.930 . S
C589 C588 1.391 . S
C589 C593 1.375 1_554 S
C590 C588 1.394 1_566 S
C590 C591 1.369 1_565 S
C590 C594 1.531 . S
C591 C590 1.369 1_545 S
C591 C592 1.410 . S
C591 C599 1.503 1_545 S
C592 C591 1.410 . S
C592 C593 1.393 . S
C592 C595 1.511 . S
C593 C589 1.375 1_556 S
C593 C592 1.393 . S
C593 H605 0.929 1_556 S
C594 C590 1.531 . S
C594 H606 0.960 . S
C594 H607 0.962 1_556 S
C594 H608 0.960 . S
C595 C592 1.511 . S
C595 H609 0.961 . S
C595 H610 0.961 . S
C595 H611 0.961 . S
C596 C597 1.370 1_554 S
C596 C598 1.363 . S
C596 H612 0.931 . S
C597 C596 1.370 1_556 S
C597 C601 1.408 . S
C598 C596 1.363 . S
C598 C599 1.370 1_554 S
C598 C602 1.524 . S
C599 C591 1.503 1_565 S
C599 C598 1.370 1_556 S
C599 C600 1.403 . S
C600 C599 1.403 . S
C600 C601 1.404 . S
C600 C603 1.539 . S
C601 C597 1.408 . S
C601 C600 1.404 . S
C601 H613 0.930 . S
C602 C598 1.524 . S
C602 H614 0.956 . S
C602 H615 0.961 1_565 S
C602 H616 0.961 . S
C603 C600 1.539 . S
C603 H617 0.958 . S
C603 H618 0.961 . S
C603 H619 0.960 1_565 S
H604 C588 0.930 . S
H605 C593 0.929 1_554 S
H606 C594 0.960 . S
H607 C594 0.962 1_554 S
H608 C594 0.960 . S
H609 C595 0.961 . S
H610 C595 0.961 . S
H611 C595 0.961 . S
H612 C596 0.931 . S
H613 C601 0.930 . S
H614 C602 0.956 . S
H615 C602 0.961 1_545 S
H616 C602 0.961 . S
H617 C603 0.958 . S
H618 C603 0.961 . S
H619 C603 0.960 1_545 S
C620 C621 1.391 1_556 S
C620 C622 1.394 . S
C620 H636 0.931 . S
C621 C620 1.391 1_554 S
C621 C625 1.376 . S
C622 C620 1.394 . S
C622 C623 1.369 . S
C622 C626 1.531 1_655 S
C623 C622 1.369 . S
C623 C624 1.410 1_556 S
C623 C631 1.503 1_655 S
C624 C623 1.410 1_554 S
C624 C625 1.392 . S
C624 C627 1.511 . S
C625 C621 1.376 . S
C625 C624 1.392 . S
C625 H637 0.929 . S
C626 C622 1.531 1_455 S
C626 H638 0.960 . S
C626 H639 0.962 . S
C626 H640 0.960 . S
C627 C624 1.511 . S
C627 H641 0.961 . S
C627 H642 0.961 . S
C627 H643 0.961 . S
C628 C629 1.370 1_554 S
C628 C630 1.363 . S
C628 H644 0.931 . S
C629 C628 1.370 1_556 S
C629 C633 1.408 . S
C630 C628 1.363 . S
C630 C631 1.370 1_554 S
C630 C634 1.524 . S
C631 C623 1.503 1_455 S
C631 C630 1.370 1_556 S
C631 C632 1.403 . S
C632 C631 1.403 . S
C632 C633 1.404 . S
C632 C635 1.539 1_455 S
C633 C629 1.408 . S
C633 C632 1.404 . S
C633 H645 0.930 . S
C634 C630 1.524 . S
C634 H646 0.956 . S
C634 H647 0.961 . S
C634 H648 0.961 . S
C635 C632 1.539 1_655 S
C635 H649 0.958 . S
C635 H650 0.961 . S
C635 H651 0.960 . S
H636 C620 0.931 . S
H637 C625 0.929 . S
H638 C626 0.960 . S
H639 C626 0.962 . S
H640 C626 0.960 . S
H641 C627 0.961 . S
H642 C627 0.961 . S
H643 C627 0.961 . S
H644 C628 0.931 . S
H645 C633 0.930 . S
H646 C634 0.956 . S
H647 C634 0.961 . S
H648 C634 0.961 . S
H649 C635 0.958 . S
H650 C635 0.961 . S
H651 C635 0.960 . S
C652 C653 1.391 . S
C652 C654 1.394 . S
C652 H668 0.931 . S
C653 C652 1.391 . S
C653 C657 1.376 . S
C654 C652 1.394 . S
C654 C655 1.369 . S
C654 C658 1.531 . S
C655 C654 1.369 . S
C655 C656 1.410 . S
C655 C663 1.503 . S
C656 C655 1.410 . S
C656 C657 1.392 . S
C656 C659 1.511 1_556 S
C657 C653 1.376 . S
C657 C656 1.392 . S
C657 H669 0.929 . S
C658 C654 1.531 . S
C658 H670 0.960 . S
C658 H671 0.962 . S
C658 H672 0.960 . S
C659 C656 1.511 1_554 S
C659 H673 0.961 . S
C659 H674 0.961 . S
C659 H675 0.961 1_554 S
C660 C661 1.370 . S
C660 C662 1.363 . S
C660 H676 0.931 . S
C661 C660 1.370 . S
C661 C665 1.408 1_554 S
C662 C660 1.363 . S
C662 C663 1.370 1_554 S
C662 C666 1.524 . S
C663 C655 1.503 . S
C663 C662 1.370 1_556 S
C663 C664 1.403 . S
C664 C663 1.403 . S
C664 C665 1.404 . S
C664 C667 1.539 . S
C665 C661 1.408 1_556 S
C665 C664 1.404 . S
C665 H677 0.930 . S
C666 C662 1.524 . S
C666 H678 0.956 . S
C666 H679 0.961 . S
C666 H680 0.961 . S
C667 C664 1.539 . S
C667 H681 0.958 . S
C667 H682 0.961 . S
C667 H683 0.960 . S
H668 C652 0.931 . S
H669 C657 0.929 . S
H670 C658 0.960 . S
H671 C658 0.962 . S
H672 C658 0.960 . S
H673 C659 0.961 . S
H674 C659 0.961 . S
H675 C659 0.961 1_556 S
H676 C660 0.931 . S
H677 C665 0.930 . S
H678 C666 0.956 . S
H679 C666 0.961 . S
H680 C666 0.961 . S
H681 C667 0.958 . S
H682 C667 0.961 . S
H683 C667 0.960 . S
C684 C685 1.391 . S
C684 C686 1.394 . S
C684 H700 0.931 . S
C685 C684 1.391 . S
C685 C689 1.376 . S
C686 C684 1.394 . S
C686 C687 1.369 . S
C686 C690 1.531 1_455 S
C687 C686 1.369 . S
C687 C688 1.410 . S
C687 C695 1.503 1_455 S
C688 C687 1.410 . S
C688 C689 1.392 . S
C688 C691 1.511 . S
C689 C685 1.376 . S
C689 C688 1.392 . S
C689 H701 0.929 . S
C690 C686 1.531 1_655 S
C690 H702 0.960 . S
C690 H703 0.962 . S
C690 H704 0.960 . S
C691 C688 1.511 . S
C691 H705 0.961 . S
C691 H706 0.961 . S
C691 H707 0.961 . S
C692 C693 1.370 . S
C692 C694 1.363 1_655 S
C692 H708 0.931 . S
C693 C692 1.370 . S
C693 C697 1.408 . S
C694 C692 1.363 1_455 S
C694 C695 1.370 1_455 S
C694 C698 1.524 . S
C695 C687 1.503 1_655 S
C695 C694 1.370 1_655 S
C695 C696 1.403 . S
C696 C695 1.403 . S
C696 C697 1.404 . S
C696 C699 1.539 . S
C697 C693 1.408 . S
C697 C696 1.404 . S
C697 H709 0.930 . S
C698 C694 1.524 . S
C698 H710 0.956 . S
C698 H711 0.961 . S
C698 H712 0.961 . S
C699 C696 1.539 . S
C699 H713 0.958 . S
C699 H714 0.961 . S
C699 H715 0.960 . S
H700 C684 0.931 . S
H701 C689 0.929 . S
H702 C690 0.960 . S
H703 C690 0.962 . S
H704 C690 0.960 . S
H705 C691 0.961 . S
H706 C691 0.961 . S
H707 C691 0.961 . S
H708 C692 0.931 . S
H709 C697 0.930 . S
H710 C698 0.956 . S
H711 C698 0.961 . S
H712 C698 0.961 . S
H713 C699 0.958 . S
H714 C699 0.961 . S
H715 C699 0.960 . S
C716 C717 1.391 . S
C716 C718 1.394 . S
C716 H732 0.931 . S
C717 C716 1.391 . S
C717 C721 1.376 . S
C718 C716 1.394 . S
C718 C719 1.369 . S
C718 C722 1.531 . S
C719 C718 1.369 . S
C719 C720 1.410 . S
C719 C727 1.503 . S
C720 C719 1.410 . S
C720 C721 1.392 . S
C720 C723 1.511 . S
C721 C717 1.376 . S
C721 C720 1.392 . S
C721 H733 0.929 . S
C722 C718 1.531 . S
C722 H734 0.960 . S
C722 H735 0.962 . S
C722 H736 0.960 . S
C723 C720 1.511 . S
C723 H737 0.961 . S
C723 H738 0.961 . S
C723 H739 0.961 . S
C724 C725 1.370 . S
C724 C726 1.363 . S
C724 H740 0.931 . S
C725 C724 1.370 . S
C725 C729 1.408 . S
C726 C724 1.363 . S
C726 C727 1.370 . S
C726 C730 1.524 . S
C727 C719 1.503 . S
C727 C726 1.370 . S
C727 C728 1.403 . S
C728 C727 1.403 . S
C728 C729 1.404 . S
C728 C731 1.539 . S
C729 C725 1.408 . S
C729 C728 1.404 . S
C729 H741 0.930 . S
C730 C726 1.524 . S
C730 H742 0.956 . S
C730 H743 0.961 . S
C730 H744 0.961 . S
C731 C728 1.539 . S
C731 H745 0.958 . S
C731 H746 0.961 . S
C731 H747 0.960 . S
H732 C716 0.931 . S
H733 C721 0.929 . S
H734 C722 0.960 . S
H735 C722 0.962 . S
H736 C722 0.960 . S
H737 C723 0.961 . S
H738 C723 0.961 . S
H739 C723 0.961 . S
H740 C724 0.931 . S
H741 C729 0.930 . S
H742 C730 0.956 . S
H743 C730 0.961 . S
H744 C730 0.961 . S
H745 C731 0.958 . S
H746 C731 0.961 . S
H747 C731 0.960 . S
C748 C749 1.391 . S
C748 C750 1.394 1_545 S
C748 H764 0.931 . S
C749 C748 1.391 . S
C749 C753 1.376 . S
C750 C748 1.394 1_565 S
C750 C751 1.369 1_565 S
C750 C754 1.531 . S
C751 C750 1.369 1_545 S
C751 C752 1.410 . S
C751 C759 1.503 1_545 S
C752 C751 1.410 . S
C752 C753 1.392 . S
C752 C755 1.511 . S
C753 C749 1.376 . S
C753 C752 1.392 . S
C753 H765 0.929 . S
C754 C750 1.531 . S
C754 H766 0.960 . S
C754 H767 0.962 . S
C754 H768 0.960 . S
C755 C752 1.511 . S
C755 H769 0.961 . S
C755 H770 0.961 . S
C755 H771 0.961 . S
C756 C757 1.370 . S
C756 C758 1.363 . S
C756 H772 0.931 . S
C757 C756 1.370 . S
C757 C761 1.408 . S
C758 C756 1.363 . S
C758 C759 1.370 . S
C758 C762 1.524 . S
C759 C751 1.503 1_565 S
C759 C758 1.370 . S
C759 C760 1.403 . S
C760 C759 1.403 . S
C760 C761 1.404 . S
C760 C763 1.539 1_565 S
C761 C757 1.408 . S
C761 C760 1.404 . S
C761 H773 0.930 . S
C762 C758 1.524 . S
C762 H774 0.956 . S
C762 H775 0.961 1_565 S
C762 H776 0.961 . S
C763 C760 1.539 1_545 S
C763 H777 0.958 1_545 S
C763 H778 0.961 . S
C763 H779 0.960 . S
H764 C748 0.931 . S
H765 C753 0.929 . S
H766 C754 0.960 . S
H767 C754 0.962 . S
H768 C754 0.960 . S
H769 C755 0.961 . S
H770 C755 0.961 . S
H771 C755 0.961 . S
H772 C756 0.931 . S
H773 C761 0.930 . S
H774 C762 0.956 . S
H775 C762 0.961 1_545 S
H776 C762 0.961 . S
H777 C763 0.958 1_565 S
H778 C763 0.961 . S
H779 C763 0.960 . S
C780 C781 1.391 . S
C780 C782 1.394 . S
C780 H796 0.931 . S
C781 C780 1.391 . S
C781 C785 1.376 . S
C782 C780 1.394 . S
C782 C783 1.369 . S
C782 C786 1.531 . S
C783 C782 1.369 . S
C783 C784 1.410 . S
C783 C791 1.503 . S
C784 C783 1.410 . S
C784 C785 1.392 . S
C784 C787 1.511 . S
C785 C781 1.376 . S
C785 C784 1.392 . S
C785 H797 0.929 . S
C786 C782 1.531 . S
C786 H798 0.960 . S
C786 H799 0.962 . S
C786 H800 0.960 . S
C787 C784 1.511 . S
C787 H801 0.961 . S
C787 H802 0.961 . S
C787 H803 0.961 . S
C788 C789 1.370 . S
C788 C790 1.363 . S
C788 H804 0.931 . S
C789 C788 1.370 . S
C789 C793 1.408 . S
C790 C788 1.363 . S
C790 C791 1.370 . S
C790 C794 1.524 . S
C791 C783 1.503 . S
C791 C790 1.370 . S
C791 C792 1.403 . S
C792 C791 1.403 . S
C792 C793 1.404 . S
C792 C795 1.539 . S
C793 C789 1.408 . S
C793 C792 1.404 . S
C793 H805 0.930 . S
C794 C790 1.524 . S
C794 H806 0.956 . S
C794 H807 0.961 . S
C794 H808 0.961 . S
C795 C792 1.539 . S
C795 H809 0.958 . S
C795 H810 0.961 . S
C795 H811 0.960 . S
H796 C780 0.931 . S
H797 C785 0.929 . S
H798 C786 0.960 . S
H799 C786 0.962 . S
H800 C786 0.960 . S
H801 C787 0.961 . S
H802 C787 0.961 . S
H803 C787 0.961 . S
H804 C788 0.931 . S
H805 C793 0.930 . S
H806 C794 0.956 . S
H807 C794 0.961 . S
H808 C794 0.961 . S
H809 C795 0.958 . S
H810 C795 0.961 . S
H811 C795 0.960 . S
C812 C813 1.391 . S
C812 C814 1.394 . S
C812 H828 0.931 . S
C813 C812 1.391 . S
C813 C817 1.376 . S
C814 C812 1.394 . S
C814 C815 1.369 . S
C814 C818 1.531 . S
C815 C814 1.369 . S
C815 C816 1.410 . S
C815 C823 1.503 . S
C816 C815 1.410 . S
C816 C817 1.392 . S
C816 C819 1.511 . S
C817 C813 1.376 . S
C817 C816 1.392 . S
C817 H829 0.929 . S
C818 C814 1.531 . S
C818 H830 0.960 . S
C818 H831 0.962 . S
C818 H832 0.960 . S
C819 C816 1.511 . S
C819 H833 0.961 . S
C819 H834 0.961 . S
C819 H835 0.961 . S
C820 C821 1.370 . S
C820 C822 1.363 . S
C820 H836 0.931 . S
C821 C820 1.370 . S
C821 C825 1.408 . S
C822 C820 1.363 . S
C822 C823 1.370 . S
C822 C826 1.524 . S
C823 C815 1.503 . S
C823 C822 1.370 . S
C823 C824 1.403 . S
C824 C823 1.403 . S
C824 C825 1.404 . S
C824 C827 1.539 . S
C825 C821 1.408 . S
C825 C824 1.404 . S
C825 H837 0.930 . S
C826 C822 1.524 . S
C826 H838 0.956 . S
C826 H839 0.961 . S
C826 H840 0.961 . S
C827 C824 1.539 . S
C827 H841 0.958 . S
C827 H842 0.961 . S
C827 H843 0.960 . S
H828 C812 0.931 . S
H829 C817 0.929 . S
H830 C818 0.960 . S
H831 C818 0.962 . S
H832 C818 0.960 . S
H833 C819 0.961 . S
H834 C819 0.961 . S
H835 C819 0.961 . S
H836 C820 0.931 . S
H837 C825 0.930 . S
H838 C826 0.956 . S
H839 C826 0.961 . S
H840 C826 0.961 . S
H841 C827 0.958 . S
H842 C827 0.961 . S
H843 C827 0.960 . S
C844 C845 1.391 . S
C844 C846 1.394 . S
C844 H860 0.931 . S
C845 C844 1.391 . S
C845 C849 1.376 . S
C846 C844 1.394 . S
C846 C847 1.369 . S
C846 C850 1.531 . S
C847 C846 1.369 . S
C847 C848 1.410 . S
C847 C855 1.503 . S
C848 C847 1.410 . S
C848 C849 1.392 . S
C848 C851 1.511 . S
C849 C845 1.376 . S
C849 C848 1.392 . S
C849 H861 0.929 . S
C850 C846 1.531 . S
C850 H862 0.960 . S
C850 H863 0.962 . S
C850 H864 0.960 . S
C851 C848 1.511 . S
C851 H865 0.961 . S
C851 H866 0.961 . S
C851 H867 0.961 . S
C852 C853 1.370 . S
C852 C854 1.363 . S
C852 H868 0.931 . S
C853 C852 1.370 . S
C853 C857 1.408 . S
C854 C852 1.363 . S
C854 C855 1.370 . S
C854 C858 1.524 . S
C855 C847 1.503 . S
C855 C854 1.370 . S
C855 C856 1.403 . S
C856 C855 1.403 . S
C856 C857 1.404 . S
C856 C859 1.539 . S
C857 C853 1.408 . S
C857 C856 1.404 . S
C857 H869 0.930 . S
C858 C854 1.524 . S
C858 H870 0.956 . S
C858 H871 0.961 . S
C858 H872 0.961 . S
C859 C856 1.539 . S
C859 H873 0.958 . S
C859 H874 0.961 . S
C859 H875 0.960 . S
H860 C844 0.931 . S
H861 C849 0.929 . S
H862 C850 0.960 . S
H863 C850 0.962 . S
H864 C850 0.960 . S
H865 C851 0.961 . S
H866 C851 0.961 . S
H867 C851 0.961 . S
H868 C852 0.931 . S
H869 C857 0.930 . S
H870 C858 0.956 . S
H871 C858 0.961 . S
H872 C858 0.961 . S
H873 C859 0.958 . S
H874 C859 0.961 . S
H875 C859 0.960 . S
C876 C877 1.391 . S
C876 C878 1.394 . S
C876 H892 0.931 . S
C877 C876 1.391 . S
C877 C881 1.376 . S
C878 C876 1.394 . S
C878 C879 1.369 . S
C878 C882 1.531 . S
C879 C878 1.369 . S
C879 C880 1.410 . S
C879 C887 1.503 . S
C880 C879 1.410 . S
C880 C881 1.392 . S
C880 C883 1.511 . S
C881 C877 1.376 . S
C881 C880 1.392 . S
C881 H893 0.929 . S
C882 C878 1.531 . S
C882 H894 0.960 . S
C882 H895 0.962 . S
C882 H896 0.960 . S
C883 C880 1.511 . S
C883 H897 0.961 . S
C883 H898 0.961 . S
C883 H899 0.961 . S
C884 C885 1.370 . S
C884 C886 1.363 . S
C884 H900 0.931 . S
C885 C884 1.370 . S
C885 C889 1.408 . S
C886 C884 1.363 . S
C886 C887 1.370 . S
C886 C890 1.524 . S
C887 C879 1.503 . S
C887 C886 1.370 . S
C887 C888 1.403 . S
C888 C887 1.403 . S
C888 C889 1.404 . S
C888 C891 1.539 . S
C889 C885 1.408 . S
C889 C888 1.404 . S
C889 H901 0.930 . S
C890 C886 1.524 . S
C890 H902 0.956 . S
C890 H903 0.961 . S
C890 H904 0.961 . S
C891 C888 1.539 . S
C891 H905 0.958 . S
C891 H906 0.961 . S
C891 H907 0.960 . S
H892 C876 0.931 . S
H893 C881 0.929 . S
H894 C882 0.960 . S
H895 C882 0.962 . S
H896 C882 0.960 . S
H897 C883 0.961 . S
H898 C883 0.961 . S
H899 C883 0.961 . S
H900 C884 0.931 . S
H901 C889 0.930 . S
H902 C890 0.956 . S
H903 C890 0.961 . S
H904 C890 0.961 . S
H905 C891 0.958 . S
H906 C891 0.961 . S
H907 C891 0.960 . S
C908 C909 1.391 . S
C908 C910 1.394 . S
C908 H924 0.931 . S
C909 C908 1.391 . S
C909 C913 1.376 . S
C910 C908 1.394 . S
C910 C911 1.369 . S
C910 C914 1.531 . S
C911 C910 1.369 . S
C911 C912 1.410 . S
C911 C919 1.503 . S
C912 C911 1.410 . S
C912 C913 1.392 . S
C912 C915 1.511 . S
C913 C909 1.376 . S
C913 C912 1.392 . S
C913 H925 0.929 . S
C914 C910 1.531 . S
C914 H926 0.960 . S
C914 H927 0.962 . S
C914 H928 0.960 . S
C915 C912 1.511 . S
C915 H929 0.961 . S
C915 H930 0.961 . S
C915 H931 0.961 . S
C916 C917 1.370 . S
C916 C918 1.363 . S
C916 H932 0.931 . S
C917 C916 1.370 . S
C917 C921 1.408 . S
C918 C916 1.363 . S
C918 C919 1.370 . S
C918 C922 1.524 . S
C919 C911 1.503 . S
C919 C918 1.370 . S
C919 C920 1.403 . S
C920 C919 1.403 . S
C920 C921 1.404 . S
C920 C923 1.539 . S
C921 C917 1.408 . S
C921 C920 1.404 . S
C921 H933 0.930 . S
C922 C918 1.524 . S
C922 H934 0.956 . S
C922 H935 0.961 . S
C922 H936 0.961 . S
C923 C920 1.539 . S
C923 H937 0.958 . S
C923 H938 0.961 . S
C923 H939 0.960 . S
H924 C908 0.931 . S
H925 C913 0.929 . S
H926 C914 0.960 . S
H927 C914 0.962 . S
H928 C914 0.960 . S
H929 C915 0.961 . S
H930 C915 0.961 . S
H931 C915 0.961 . S
H932 C916 0.931 . S
H933 C921 0.930 . S
H934 C922 0.956 . S
H935 C922 0.961 . S
H936 C922 0.961 . S
H937 C923 0.958 . S
H938 C923 0.961 . S
H939 C923 0.960 . S
C940 C941 1.391 . S
C940 C942 1.394 . S
C940 H956 0.931 . S
C941 C940 1.391 . S
C941 C945 1.376 . S
C942 C940 1.394 . S
C942 C943 1.369 . S
C942 C946 1.531 . S
C943 C942 1.369 . S
C943 C944 1.410 . S
C943 C951 1.503 . S
C944 C943 1.410 . S
C944 C945 1.392 . S
C944 C947 1.511 . S
C945 C941 1.376 . S
C945 C944 1.392 . S
C945 H957 0.929 . S
C946 C942 1.531 . S
C946 H958 0.960 . S
C946 H959 0.962 . S
C946 H960 0.960 . S
C947 C944 1.511 . S
C947 H961 0.961 . S
C947 H962 0.961 . S
C947 H963 0.961 . S
C948 C949 1.370 . S
C948 C950 1.363 . S
C948 H964 0.931 . S
C949 C948 1.370 . S
C949 C953 1.408 . S
C950 C948 1.363 . S
C950 C951 1.370 . S
C950 C954 1.524 . S
C951 C943 1.503 . S
C951 C950 1.370 . S
C951 C952 1.403 . S
C952 C951 1.403 . S
C952 C953 1.404 . S
C952 C955 1.539 . S
C953 C949 1.408 . S
C953 C952 1.404 . S
C953 H965 0.930 . S
C954 C950 1.524 . S
C954 H966 0.956 . S
C954 H967 0.961 . S
C954 H968 0.961 . S
C955 C952 1.539 . S
C955 H969 0.958 . S
C955 H970 0.961 . S
C955 H971 0.960 . S
H956 C940 0.931 . S
H957 C945 0.929 . S
H958 C946 0.960 . S
H959 C946 0.962 . S
H960 C946 0.960 . S
H961 C947 0.961 . S
H962 C947 0.961 . S
H963 C947 0.961 . S
H964 C948 0.931 . S
H965 C953 0.930 . S
H966 C954 0.956 . S
H967 C954 0.961 . S
H968 C954 0.961 . S
H969 C955 0.958 . S
H970 C955 0.961 . S
H971 C955 0.960 . S
C972 C973 1.391 . S
C972 C974 1.394 . S
C972 H988 0.931 . S
C973 C972 1.391 . S
C973 C977 1.376 . S
C974 C972 1.394 . S
C974 C975 1.369 . S
C974 C978 1.531 . S
C975 C974 1.369 . S
C975 C976 1.410 . S
C975 C983 1.503 . S
C976 C975 1.410 . S
C976 C977 1.392 . S
C976 C979 1.511 . S
C977 C973 1.376 . S
C977 C976 1.392 . S
C977 H989 0.929 . S
C978 C974 1.531 . S
C978 H990 0.960 . S
C978 H991 0.962 . S
C978 H992 0.960 . S
C979 C976 1.511 . S
C979 H993 0.961 . S
C979 H994 0.961 . S
C979 H995 0.961 . S
C980 C981 1.370 1_556 S
C980 C982 1.363 1_556 S
C980 H996 0.931 . S
C981 C980 1.370 1_554 S
C981 C985 1.408 . S
C982 C980 1.363 1_554 S
C982 C983 1.370 . S
C982 C986 1.524 1_554 S
C983 C975 1.503 . S
C983 C982 1.370 . S
C983 C984 1.403 . S
C984 C983 1.403 . S
C984 C985 1.404 . S
C984 C987 1.539 . S
C985 C981 1.408 . S
C985 C984 1.404 . S
C985 H997 0.930 . S
C986 C982 1.524 1_556 S
C986 H998 0.956 . S
C986 H999 0.961 . S
C986 H1000 0.961 . S
C987 C984 1.539 . S
C987 H1001 0.958 . S
C987 H1002 0.961 . S
C987 H1003 0.960 . S
H988 C972 0.931 . S
H989 C977 0.929 . S
H990 C978 0.960 . S
H991 C978 0.962 . S
H992 C978 0.960 . S
H993 C979 0.961 . S
H994 C979 0.961 . S
H995 C979 0.961 . S
H996 C980 0.931 . S
H997 C985 0.930 . S
H998 C986 0.956 . S
H999 C986 0.961 . S
H1000 C986 0.961 . S
H1001 C987 0.958 . S
H1002 C987 0.961 . S
H1003 C987 0.960 . S
C1004 C1005 1.391 . S
C1004 C1006 1.394 . S
C1004 H1020 0.931 . S
C1005 C1004 1.391 . S
C1005 C1009 1.376 . S
C1006 C1004 1.394 . S
C1006 C1007 1.369 . S
C1006 C1010 1.531 . S
C1007 C1006 1.369 . S
C1007 C1008 1.410 . S
C1007 C1015 1.503 . S
C1008 C1007 1.410 . S
C1008 C1009 1.392 . S
C1008 C1011 1.511 . S
C1009 C1005 1.376 . S
C1009 C1008 1.392 . S
C1009 H1021 0.929 . S
C1010 C1006 1.531 . S
C1010 H1022 0.960 . S
C1010 H1023 0.962 . S
C1010 H1024 0.960 . S
C1011 C1008 1.511 . S
C1011 H1025 0.961 . S
C1011 H1026 0.961 . S
C1011 H1027 0.961 1_554 S
C1012 C1013 1.370 . S
C1012 C1014 1.363 . S
C1012 H1028 0.931 . S
C1013 C1012 1.370 . S
C1013 C1017 1.408 1_554 S
C1014 C1012 1.363 . S
C1014 C1015 1.370 . S
C1014 C1018 1.524 . S
C1015 C1007 1.503 . S
C1015 C1014 1.370 . S
C1015 C1016 1.403 1_554 S
C1016 C1015 1.403 1_556 S
C1016 C1017 1.404 . S
C1016 C1019 1.539 . S
C1017 C1013 1.408 1_556 S
C1017 C1016 1.404 . S
C1017 H1029 0.930 . S
C1018 C1014 1.524 . S
C1018 H1030 0.956 . S
C1018 H1031 0.961 . S
C1018 H1032 0.961 . S
C1019 C1016 1.539 . S
C1019 H1033 0.958 . S
C1019 H1034 0.961 . S
C1019 H1035 0.960 . S
H1020 C1004 0.931 . S
H1021 C1009 0.929 . S
H1022 C1010 0.960 . S
H1023 C1010 0.962 . S
H1024 C1010 0.960 . S
H1025 C1011 0.961 . S
H1026 C1011 0.961 . S
H1027 C1011 0.961 1_556 S
H1028 C1012 0.931 . S
H1029 C1017 0.930 . S
H1030 C1018 0.956 . S
H1031 C1018 0.961 . S
H1032 C1018 0.961 . S
H1033 C1019 0.958 . S
H1034 C1019 0.961 . S
H1035 C1019 0.960 . S
C1036 C1037 1.391 . S
C1036 C1038 1.394 . S
C1036 H1052 0.931 . S
C1037 C1036 1.391 . S
C1037 C1041 1.376 . S
C1038 C1036 1.394 . S
C1038 C1039 1.369 . S
C1038 C1042 1.531 . S
C1039 C1038 1.369 . S
C1039 C1040 1.410 . S
C1039 C1047 1.503 . S
C1040 C1039 1.410 . S
C1040 C1041 1.392 . S
C1040 C1043 1.511 . S
C1041 C1037 1.376 . S
C1041 C1040 1.392 . S
C1041 H1053 0.929 . S
C1042 C1038 1.531 . S
C1042 H1054 0.960 . S
C1042 H1055 0.962 . S
C1042 H1056 0.960 . S
C1043 C1040 1.511 . S
C1043 H1057 0.961 . S
C1043 H1058 0.961 . S
C1043 H1059 0.961 . S
C1044 C1045 1.370 . S
C1044 C1046 1.363 . S
C1044 H1060 0.931 . S
C1045 C1044 1.370 . S
C1045 C1049 1.408 . S
C1046 C1044 1.363 . S
C1046 C1047 1.370 . S
C1046 C1050 1.524 . S
C1047 C1039 1.503 . S
C1047 C1046 1.370 . S
C1047 C1048 1.403 . S
C1048 C1047 1.403 . S
C1048 C1049 1.404 . S
C1048 C1051 1.539 1_554 S
C1049 C1045 1.408 . S
C1049 C1048 1.404 . S
C1049 H1061 0.930 1_554 S
C1050 C1046 1.524 . S
C1050 H1062 0.956 . S
C1050 H1063 0.961 . S
C1050 H1064 0.961 . S
C1051 C1048 1.539 1_556 S
C1051 H1065 0.958 . S
C1051 H1066 0.961 . S
C1051 H1067 0.960 . S
H1052 C1036 0.931 . S
H1053 C1041 0.929 . S
H1054 C1042 0.960 . S
H1055 C1042 0.962 . S
H1056 C1042 0.960 . S
H1057 C1043 0.961 . S
H1058 C1043 0.961 . S
H1059 C1043 0.961 . S
H1060 C1044 0.931 . S
H1061 C1049 0.930 1_556 S
H1062 C1050 0.956 . S
H1063 C1050 0.961 . S
H1064 C1050 0.961 . S
H1065 C1051 0.958 . S
H1066 C1051 0.961 . S
H1067 C1051 0.960 . S
C1068 C1069 1.391 . S
C1068 C1070 1.394 . S
C1068 H1084 0.931 . S
C1069 C1068 1.391 . S
C1069 C1073 1.376 . S
C1070 C1068 1.394 . S
C1070 C1071 1.369 . S
C1070 C1074 1.531 . S
C1071 C1070 1.369 . S
C1071 C1072 1.410 . S
C1071 C1079 1.503 . S
C1072 C1071 1.410 . S
C1072 C1073 1.392 . S
C1072 C1075 1.511 . S
C1073 C1069 1.376 . S
C1073 C1072 1.392 . S
C1073 H1085 0.929 . S
C1074 C1070 1.531 . S
C1074 H1086 0.960 . S
C1074 H1087 0.962 . S
C1074 H1088 0.960 . S
C1075 C1072 1.511 . S
C1075 H1089 0.961 . S
C1075 H1090 0.961 . S
C1075 H1091 0.961 . S
C1076 C1077 1.370 . S
C1076 C1078 1.363 . S
C1076 H1092 0.931 . S
C1077 C1076 1.370 . S
C1077 C1081 1.408 . S
C1078 C1076 1.363 . S
C1078 C1079 1.370 . S
C1078 C1082 1.524 . S
C1079 C1071 1.503 . S
C1079 C1078 1.370 . S
C1079 C1080 1.403 . S
C1080 C1079 1.403 . S
C1080 C1081 1.404 . S
C1080 C1083 1.539 . S
C1081 C1077 1.408 . S
C1081 C1080 1.404 . S
C1081 H1093 0.930 . S
C1082 C1078 1.524 . S
C1082 H1094 0.956 . S
C1082 H1095 0.961 . S
C1082 H1096 0.961 . S
C1083 C1080 1.539 . S
C1083 H1097 0.958 . S
C1083 H1098 0.961 . S
C1083 H1099 0.960 . S
H1084 C1068 0.931 . S
H1085 C1073 0.929 . S
H1086 C1074 0.960 . S
H1087 C1074 0.962 . S
H1088 C1074 0.960 . S
H1089 C1075 0.961 . S
H1090 C1075 0.961 . S
H1091 C1075 0.961 . S
H1092 C1076 0.931 . S
H1093 C1081 0.930 . S
H1094 C1082 0.956 . S
H1095 C1082 0.961 . S
H1096 C1082 0.961 . S
H1097 C1083 0.958 . S
H1098 C1083 0.961 . S
H1099 C1083 0.960 . S
C1100 C1101 1.391 . S
C1100 C1102 1.394 . S
C1100 H1116 0.931 . S
C1101 C1100 1.391 . S
C1101 C1105 1.376 . S
C1102 C1100 1.394 . S
C1102 C1103 1.369 . S
C1102 C1106 1.531 . S
C1103 C1102 1.369 . S
C1103 C1104 1.410 . S
C1103 C1111 1.503 . S
C1104 C1103 1.410 . S
C1104 C1105 1.392 . S
C1104 C1107 1.511 . S
C1105 C1101 1.376 . S
C1105 C1104 1.392 . S
C1105 H1117 0.929 . S
C1106 C1102 1.531 . S
C1106 H1118 0.960 . S
C1106 H1119 0.962 . S
C1106 H1120 0.960 . S
C1107 C1104 1.511 . S
C1107 H1121 0.961 . S
C1107 H1122 0.961 . S
C1107 H1123 0.961 . S
C1108 C1109 1.370 . S
C1108 C1110 1.363 . S
C1108 H1124 0.931 . S
C1109 C1108 1.370 . S
C1109 C1113 1.408 . S
C1110 C1108 1.363 . S
C1110 C1111 1.370 . S
C1110 C1114 1.524 . S
C1111 C1103 1.503 . S
C1111 C1110 1.370 . S
C1111 C1112 1.403 . S
C1112 C1111 1.403 . S
C1112 C1113 1.404 . S
C1112 C1115 1.539 . S
C1113 C1109 1.408 . S
C1113 C1112 1.404 . S
C1113 H1125 0.930 . S
C1114 C1110 1.524 . S
C1114 H1126 0.956 . S
C1114 H1127 0.961 . S
C1114 H1128 0.961 . S
C1115 C1112 1.539 . S
C1115 H1129 0.958 . S
C1115 H1130 0.961 . S
C1115 H1131 0.960 . S
H1116 C1100 0.931 . S
H1117 C1105 0.929 . S
H1118 C1106 0.960 . S
H1119 C1106 0.962 . S
H1120 C1106 0.960 . S
H1121 C1107 0.961 . S
H1122 C1107 0.961 . S
H1123 C1107 0.961 . S
H1124 C1108 0.931 . S
H1125 C1113 0.930 . S
H1126 C1114 0.956 . S
H1127 C1114 0.961 . S
H1128 C1114 0.961 . S
H1129 C1115 0.958 . S
H1130 C1115 0.961 . S
H1131 C1115 0.960 . S
C1132 C1133 1.391 . S
C1132 C1134 1.394 . S
C1132 H1148 0.931 . S
C1133 C1132 1.391 . S
C1133 C1137 1.376 . S
C1134 C1132 1.394 . S
C1134 C1135 1.369 . S
C1134 C1138 1.531 . S
C1135 C1134 1.369 . S
C1135 C1136 1.410 . S
C1135 C1143 1.503 . S
C1136 C1135 1.410 . S
C1136 C1137 1.392 . S
C1136 C1139 1.511 . S
C1137 C1133 1.376 . S
C1137 C1136 1.392 . S
C1137 H1149 0.929 . S
C1138 C1134 1.531 . S
C1138 H1150 0.960 . S
C1138 H1151 0.962 . S
C1138 H1152 0.960 . S
C1139 C1136 1.511 . S
C1139 H1153 0.961 . S
C1139 H1154 0.961 . S
C1139 H1155 0.961 . S
C1140 C1141 1.370 . S
C1140 C1142 1.363 . S
C1140 H1156 0.931 . S
C1141 C1140 1.370 . S
C1141 C1145 1.408 . S
C1142 C1140 1.363 . S
C1142 C1143 1.370 . S
C1142 C1146 1.524 . S
C1143 C1135 1.503 . S
C1143 C1142 1.370 . S
C1143 C1144 1.403 . S
C1144 C1143 1.403 . S
C1144 C1145 1.404 . S
C1144 C1147 1.539 . S
C1145 C1141 1.408 . S
C1145 C1144 1.404 . S
C1145 H1157 0.930 . S
C1146 C1142 1.524 . S
C1146 H1158 0.956 . S
C1146 H1159 0.961 . S
C1146 H1160 0.961 . S
C1147 C1144 1.539 . S
C1147 H1161 0.958 . S
C1147 H1162 0.961 . S
C1147 H1163 0.960 . S
H1148 C1132 0.931 . S
H1149 C1137 0.929 . S
H1150 C1138 0.960 . S
H1151 C1138 0.962 . S
H1152 C1138 0.960 . S
H1153 C1139 0.961 . S
H1154 C1139 0.961 . S
H1155 C1139 0.961 . S
H1156 C1140 0.931 . S
H1157 C1145 0.930 . S
H1158 C1146 0.956 . S
H1159 C1146 0.961 . S
H1160 C1146 0.961 . S
H1161 C1147 0.958 . S
H1162 C1147 0.961 . S
H1163 C1147 0.960 . S
C1164 C1165 1.391 . S
C1164 C1166 1.394 . S
C1164 H1180 0.931 . S
C1165 C1164 1.391 . S
C1165 C1169 1.376 1_556 S
C1166 C1164 1.394 . S
C1166 C1167 1.369 . S
C1166 C1170 1.531 . S
C1167 C1166 1.369 . S
C1167 C1168 1.410 . S
C1167 C1175 1.503 . S
C1168 C1167 1.410 . S
C1168 C1169 1.392 1_556 S
C1168 C1171 1.511 1_556 S
C1169 C1165 1.376 1_554 S
C1169 C1168 1.392 1_554 S
C1169 H1181 0.929 . S
C1170 C1166 1.531 . S
C1170 H1182 0.960 . S
C1170 H1183 0.962 . S
C1170 H1184 0.960 . S
C1171 C1168 1.511 1_554 S
C1171 H1185 0.961 . S
C1171 H1186 0.961 . S
C1171 H1187 0.961 . S
C1172 C1173 1.370 . S
C1172 C1174 1.363 . S
C1172 H1188 0.931 . S
C1173 C1172 1.370 . S
C1173 C1177 1.408 . S
C1174 C1172 1.363 . S
C1174 C1175 1.370 . S
C1174 C1178 1.524 . S
C1175 C1167 1.503 . S
C1175 C1174 1.370 . S
C1175 C1176 1.403 . S
C1176 C1175 1.403 . S
C1176 C1177 1.404 . S
C1176 C1179 1.539 . S
C1177 C1173 1.408 . S
C1177 C1176 1.404 . S
C1177 H1189 0.930 . S
C1178 C1174 1.524 . S
C1178 H1190 0.956 . S
C1178 H1191 0.961 1_556 S
C1178 H1192 0.961 . S
C1179 C1176 1.539 . S
C1179 H1193 0.958 . S
C1179 H1194 0.961 . S
C1179 H1195 0.960 . S
H1180 C1164 0.931 . S
H1181 C1169 0.929 . S
H1182 C1170 0.960 . S
H1183 C1170 0.962 . S
H1184 C1170 0.960 . S
H1185 C1171 0.961 . S
H1186 C1171 0.961 . S
H1187 C1171 0.961 . S
H1188 C1172 0.931 . S
H1189 C1177 0.930 . S
H1190 C1178 0.956 . S
H1191 C1178 0.961 1_554 S
H1192 C1178 0.961 . S
H1193 C1179 0.958 . S
H1194 C1179 0.961 . S
H1195 C1179 0.960 . S
C1196 C1197 1.391 . S
C1196 C1198 1.394 . S
C1196 H1212 0.931 . S
C1197 C1196 1.391 . S
C1197 C1201 1.376 . S
C1198 C1196 1.394 . S
C1198 C1199 1.369 . S
C1198 C1202 1.531 1_556 S
C1199 C1198 1.369 . S
C1199 C1200 1.410 . S
C1199 C1207 1.503 . S
C1200 C1199 1.410 . S
C1200 C1201 1.392 . S
C1200 C1203 1.511 . S
C1201 C1197 1.376 . S
C1201 C1200 1.392 . S
C1201 H1213 0.929 . S
C1202 C1198 1.531 1_554 S
C1202 H1214 0.960 . S
C1202 H1215 0.962 . S
C1202 H1216 0.960 . S
C1203 C1200 1.511 . S
C1203 H1217 0.961 . S
C1203 H1218 0.961 . S
C1203 H1219 0.961 . S
C1204 C1205 1.370 . S
C1204 C1206 1.363 . S
C1204 H1220 0.931 1_556 S
C1205 C1204 1.370 . S
C1205 C1209 1.408 . S
C1206 C1204 1.363 . S
C1206 C1207 1.370 . S
C1206 C1210 1.524 . S
C1207 C1199 1.503 . S
C1207 C1206 1.370 . S
C1207 C1208 1.403 . S
C1208 C1207 1.403 . S
C1208 C1209 1.404 . S
C1208 C1211 1.539 . S
C1209 C1205 1.408 . S
C1209 C1208 1.404 . S
C1209 H1221 0.930 . S
C1210 C1206 1.524 . S
C1210 H1222 0.956 1_556 S
C1210 H1223 0.961 . S
C1210 H1224 0.953 1_556 S
C1211 C1208 1.539 . S
C1211 H1225 0.958 . S
C1211 H1226 0.961 . S
C1211 H1227 0.960 . S
H1212 C1196 0.931 . S
H1213 C1201 0.929 . S
H1214 C1202 0.960 . S
H1215 C1202 0.962 . S
H1216 C1202 0.960 . S
H1217 C1203 0.961 . S
H1218 C1203 0.961 . S
H1219 C1203 0.961 . S
H1220 C1204 0.931 1_554 S
H1221 C1209 0.930 . S
H1222 C1210 0.956 1_554 S
H1223 C1210 0.961 . S
H1224 C1210 0.953 1_554 S
H1225 C1211 0.958 . S
H1226 C1211 0.961 . S
H1227 C1211 0.960 . S
C1228 C1229 1.391 . S
C1228 C1230 1.394 . S
C1228 H1244 0.931 . S
C1229 C1228 1.391 . S
C1229 C1233 1.376 . S
C1230 C1228 1.394 . S
C1230 C1231 1.369 . S
C1230 C1234 1.531 . S
C1231 C1230 1.369 . S
C1231 C1232 1.410 . S
C1231 C1239 1.503 . S
C1232 C1231 1.410 . S
C1232 C1233 1.392 . S
C1232 C1235 1.511 . S
C1233 C1229 1.376 . S
C1233 C1232 1.392 . S
C1233 H1245 0.929 . S
C1234 C1230 1.531 . S
C1234 H1246 0.960 . S
C1234 H1247 0.962 . S
C1234 H1248 0.960 . S
C1235 C1232 1.511 . S
C1235 H1249 0.961 . S
C1235 H1250 0.961 . S
C1235 H1251 0.961 . S
C1236 C1237 1.370 . S
C1236 C1238 1.363 . S
C1236 H1252 0.931 . S
C1237 C1236 1.370 . S
C1237 C1241 1.408 . S
C1238 C1236 1.363 . S
C1238 C1239 1.370 . S
C1238 C1242 1.524 . S
C1239 C1231 1.503 . S
C1239 C1238 1.370 . S
C1239 C1240 1.403 . S
C1240 C1239 1.403 . S
C1240 C1241 1.404 . S
C1240 C1243 1.539 1_556 S
C1241 C1237 1.408 . S
C1241 C1240 1.404 . S
C1241 H1253 0.930 1_556 S
C1242 C1238 1.524 . S
C1242 H1254 0.956 . S
C1242 H1255 0.961 . S
C1242 H1256 0.961 . S
C1243 C1240 1.539 1_554 S
C1243 H1257 0.958 . S
C1243 H1258 0.961 . S
C1243 H1259 0.960 . S
H1244 C1228 0.931 . S
H1245 C1233 0.929 . S
H1246 C1234 0.960 . S
H1247 C1234 0.962 . S
H1248 C1234 0.960 . S
H1249 C1235 0.961 . S
H1250 C1235 0.961 . S
H1251 C1235 0.961 . S
H1252 C1236 0.931 . S
H1253 C1241 0.930 1_554 S
H1254 C1242 0.956 . S
H1255 C1242 0.961 . S
H1256 C1242 0.961 . S
H1257 C1243 0.958 . S
H1258 C1243 0.961 . S
H1259 C1243 0.960 . S
C1260 C1261 1.391 . S
C1260 C1262 1.394 . S
C1260 H1276 0.931 . S
C1261 C1260 1.391 . S
C1261 C1265 1.376 . S
C1262 C1260 1.394 . S
C1262 C1263 1.369 . S
C1262 C1266 1.531 . S
C1263 C1262 1.369 . S
C1263 C1264 1.410 . S
C1263 C1271 1.503 . S
C1264 C1263 1.410 . S
C1264 C1265 1.392 . S
C1264 C1267 1.511 . S
C1265 C1261 1.376 . S
C1265 C1264 1.392 . S
C1265 H1277 0.929 . S
C1266 C1262 1.531 . S
C1266 H1278 0.960 . S
C1266 H1279 0.962 . S
C1266 H1280 0.960 . S
C1267 C1264 1.511 . S
C1267 H1281 0.961 . S
C1267 H1282 0.961 . S
C1267 H1283 0.961 . S
C1268 C1269 1.370 . S
C1268 C1270 1.363 . S
C1268 H1284 0.931 . S
C1269 C1268 1.370 . S
C1269 C1273 1.408 . S
C1270 C1268 1.363 . S
C1270 C1271 1.370 . S
C1270 C1274 1.524 . S
C1271 C1263 1.503 . S
C1271 C1270 1.370 . S
C1271 C1272 1.403 . S
C1272 C1271 1.403 . S
C1272 C1273 1.404 . S
C1272 C1275 1.539 . S
C1273 C1269 1.408 . S
C1273 C1272 1.404 . S
C1273 H1285 0.930 . S
C1274 C1270 1.524 . S
C1274 H1286 0.956 . S
C1274 H1287 0.961 . S
C1274 H1288 0.961 . S
C1275 C1272 1.539 . S
C1275 H1289 0.958 . S
C1275 H1290 0.961 . S
C1275 H1291 0.960 . S
H1276 C1260 0.931 . S
H1277 C1265 0.929 . S
H1278 C1266 0.960 . S
H1279 C1266 0.962 . S
H1280 C1266 0.960 . S
H1281 C1267 0.961 . S
H1282 C1267 0.961 . S
H1283 C1267 0.961 . S
H1284 C1268 0.931 . S
H1285 C1273 0.930 . S
H1286 C1274 0.956 . S
H1287 C1274 0.961 . S
H1288 C1274 0.961 . S
H1289 C1275 0.958 . S
H1290 C1275 0.961 . S
H1291 C1275 0.960 . S
C1292 C1293 1.391 . S
C1292 C1294 1.394 . S
C1292 H1308 0.931 . S
C1293 C1292 1.391 . S
C1293 C1297 1.376 . S
C1294 C1292 1.394 . S
C1294 C1295 1.369 . S
C1294 C1298 1.531 . S
C1295 C1294 1.369 . S
C1295 C1296 1.410 . S
C1295 C1303 1.503 . S
C1296 C1295 1.410 . S
C1296 C1297 1.392 . S
C1296 C1299 1.511 . S
C1297 C1293 1.376 . S
C1297 C1296 1.392 . S
C1297 H1309 0.929 . S
C1298 C1294 1.531 . S
C1298 H1310 0.960 . S
C1298 H1311 0.962 . S
C1298 H1312 0.960 . S
C1299 C1296 1.511 . S
C1299 H1313 0.961 . S
C1299 H1314 0.961 . S
C1299 H1315 0.961 . S
C1300 C1301 1.370 . S
C1300 C1302 1.363 . S
C1300 H1316 0.931 . S
C1301 C1300 1.370 . S
C1301 C1305 1.408 . S
C1302 C1300 1.363 . S
C1302 C1303 1.370 . S
C1302 C1306 1.524 . S
C1303 C1295 1.503 . S
C1303 C1302 1.370 . S
C1303 C1304 1.403 . S
C1304 C1303 1.403 . S
C1304 C1305 1.404 . S
C1304 C1307 1.539 . S
C1305 C1301 1.408 . S
C1305 C1304 1.404 . S
C1305 H1317 0.930 . S
C1306 C1302 1.524 . S
C1306 H1318 0.956 . S
C1306 H1319 0.961 . S
C1306 H1320 0.961 . S
C1307 C1304 1.539 . S
C1307 H1321 0.958 . S
C1307 H1322 0.961 . S
C1307 H1323 0.960 . S
H1308 C1292 0.931 . S
H1309 C1297 0.929 . S
H1310 C1298 0.960 . S
H1311 C1298 0.962 . S
H1312 C1298 0.960 . S
H1313 C1299 0.961 . S
H1314 C1299 0.961 . S
H1315 C1299 0.961 . S
H1316 C1300 0.931 . S
H1317 C1305 0.930 . S
H1318 C1306 0.956 . S
H1319 C1306 0.961 . S
H1320 C1306 0.961 . S
H1321 C1307 0.958 . S
H1322 C1307 0.961 . S
H1323 C1307 0.960 . S
C1324 C1325 1.391 . S
C1324 C1326 1.394 . S
C1324 H1340 0.931 . S
C1325 C1324 1.391 . S
C1325 C1329 1.376 . S
C1326 C1324 1.394 . S
C1326 C1327 1.369 . S
C1326 C1330 1.531 . S
C1327 C1326 1.369 . S
C1327 C1328 1.410 . S
C1327 C1335 1.503 . S
C1328 C1327 1.410 . S
C1328 C1329 1.392 . S
C1328 C1331 1.511 . S
C1329 C1325 1.376 . S
C1329 C1328 1.392 . S
C1329 H1341 0.929 . S
C1330 C1326 1.531 . S
C1330 H1342 0.960 . S
C1330 H1343 0.962 . S
C1330 H1344 0.960 . S
C1331 C1328 1.511 . S
C1331 H1345 0.961 . S
C1331 H1346 0.961 . S
C1331 H1347 0.961 . S
C1332 C1333 1.370 . S
C1332 C1334 1.363 . S
C1332 H1348 0.931 . S
C1333 C1332 1.370 . S
C1333 C1337 1.408 . S
C1334 C1332 1.363 . S
C1334 C1335 1.370 . S
C1334 C1338 1.524 . S
C1335 C1327 1.503 . S
C1335 C1334 1.370 . S
C1335 C1336 1.403 . S
C1336 C1335 1.403 . S
C1336 C1337 1.404 . S
C1336 C1339 1.539 . S
C1337 C1333 1.408 . S
C1337 C1336 1.404 . S
C1337 H1349 0.930 . S
C1338 C1334 1.524 . S
C1338 H1350 0.956 . S
C1338 H1351 0.961 . S
C1338 H1352 0.961 . S
C1339 C1336 1.539 . S
C1339 H1353 0.958 . S
C1339 H1354 0.961 . S
C1339 H1355 0.960 . S
H1340 C1324 0.931 . S
H1341 C1329 0.929 . S
H1342 C1330 0.960 . S
H1343 C1330 0.962 . S
H1344 C1330 0.960 . S
H1345 C1331 0.961 . S
H1346 C1331 0.961 . S
H1347 C1331 0.961 . S
H1348 C1332 0.931 . S
H1349 C1337 0.930 . S
H1350 C1338 0.956 . S
H1351 C1338 0.961 . S
H1352 C1338 0.961 . S
H1353 C1339 0.958 . S
H1354 C1339 0.961 . S
H1355 C1339 0.960 . S
C397 C173 1.557 . S
C405 C8 1.580 . S
C429 C41 1.557 . S
C437 C107 1.579 . S
C461 C74 1.559 . S
C469 C140 1.578 . S
C493 C206 1.581 . S
C501 C371 1.569 . S
C525 C305 1.559 . S
C533 C239 1.579 . S
C557 C338 1.564 . S
C565 C272 1.577 . S
C589 C17 2.183 . S
C597 C215 2.161 . S
C621 C50 2.157 . S
C629 C248 2.173 . S
C653 C281 2.137 . S
C661 C83 2.180 . S
C685 C314 2.186 . S
C693 C116 2.160 . S
C717 C149 2.146 . S
C725 C347 2.177 . S
C749 C182 2.173 . S
C757 C380 2.166 . S
C781 N146 1.794 . S
C789 N14 1.799 . S
C813 N179 1.800 . S
C821 N47 1.775 . S
C845 N113 1.814 . S
C853 N80 1.789 . S
C877 N212 1.760 . S
C885 N344 1.791 . S
C909 N245 1.751 . S
C917 N377 1.785 . S
C941 N311 1.793 . S
C949 N278 1.799 . S
C973 C28 0.331 . S
C981 N71 0.649 . S
C1005 C61 0.452 . S
C1013 N5 0.738 . S
C1037 N38 0.808 . S
C1045 C94 0.431 . S
C1069 C127 0.320 . S
C1077 N137 0.674 . S
C1101 N170 0.576 . S
C1109 C160 0.398 . S
C1133 N104 0.591 . S
C1141 C193 0.378 . S
C1165 N269 0.643 . S
C1173 C226 0.375 . S
C1197 C259 0.322 . S
C1205 N203 0.663 . S
C1229 N236 0.808 . S
C1237 C292 0.444 . S
C1261 N335 0.733 . S
C1269 C325 0.445 . S
C1293 N368 0.676 . S
C1301 C358 0.431 . S
C1325 C391 0.451 . S
C1333 N302 0.674 . S
