# Generated by pormake.
# Topology kag, (6)-cn, num edge types: 1
# Building blocks:
#     Node 0, Type 0, BuildingBlock: BETDEL_clean_sbu_0, # of connection points: 6
#     Node 1, Type 0, BuildingBlock: BETDEL_clean_sbu_0, # of connection points: 6
#     Node 2, Type 0, BuildingBlock: BETDEL_clean_sbu_0, # of connection points: 6
#     Edge 3, Type (0, 0), BuildingBlock: TEMPAE_clean_linker_10, # of connection points: 2
#     Edge 4, Type (0, 0), BuildingBlock: TEMPAE_clean_linker_10, # of connection points: 2
#     Edge 5, Type (0, 0), BuildingBlock: TEMPAE_clean_linker_10, # of connection points: 2
#     Edge 6, Type (0, 0), BuildingBlock: TEMPAE_clean_linker_10, # of connection points: 2
#     Edge 7, Type (0, 0), BuildingBlock: TEMPAE_clean_linker_10, # of connection points: 2
#     Edge 8, Type (0, 0), BuildingBlock: TEMPAE_clean_linker_10, # of connection points: 2
#     Edge 9, Type (0, 0), BuildingBlock: TEMPAE_clean_linker_10, # of connection points: 2
#     Edge 10, Type (0, 0), BuildingBlock: TEMPAE_clean_linker_10, # of connection points: 2
#     Edge 11, Type (0, 0), BuildingBlock: TEMPAE_clean_linker_10, # of connection points: 2
# Relax obj value: 0.013
# Max RMSD: 0.058
# Mean RMSD: 0.043
data_MOF--net-kag--node1-BETDEL_clean_sbu_0--edge1-TEMPAE_clean_linker_10
_symmetry_space_group_name_H-M    P1
_symmetry_Int_Tables_number       1
_symmetry_cell_setting            triclinic
loop_
_symmetry_equiv_pos_as_xyz
'x, y, z'
_cell_length_a     31.210457
_cell_length_b     33.686876
_cell_length_c     14.709767
_cell_angle_alpha  94.95513
_cell_angle_beta   90.922425
_cell_angle_gamma 113.13044
loop_
_atom_site_label
_atom_site_type_symbol
_atom_site_fract_x
_atom_site_fract_y
_atom_site_fract_z
_atom_type_partial_charge
Dy0 Dy 0.98594 0.45935 1.00176 0.0
C1 C 0.09146 0.64162 0.95437 0.0
C2 C 0.92836 0.3757 0.02512 0.0
Dy3 Dy 0.03882 0.56002 0.99795 0.0
O4 O 0.95805 0.38745 0.962 0.0
O5 O 0.931 0.40975 0.07773 0.0
O6 O 1.01177 0.45028 0.86391 0.0
O7 O 0.99746 0.50547 0.89779 0.0
C8 C 1.01314 0.48647 0.83755 0.0
C9 C 0.03388 0.54008 0.17272 0.0
O10 O 0.96526 0.55458 0.97992 0.0
O11 O 0.92633 0.48063 0.99641 0.0
O12 O 0.05574 0.63156 1.00517 0.0
O13 O 0.09699 0.60661 0.92377 0.0
O14 O 0.05421 0.57916 0.1498 0.0
O15 O 0.01814 0.51486 0.10092 0.0
O16 O 0.05793 0.46966 0.05127 0.0
O17 O 0.09346 0.53265 0.98003 0.0
C18 C 0.92657 0.51954 0.98649 0.0
C19 C 0.09518 0.49917 0.01891 0.0
Dy20 Dy 0.55999 0.03376 1.00425 0.0
C21 C 0.36743 0.92691 0.02014 0.0
C22 C 0.6476 0.09322 0.97774 0.0
Dy23 Dy 0.45706 0.98573 1.00654 0.0
O24 O 0.63764 0.06473 0.03649 0.0
O25 O 0.60984 0.08808 0.93091 0.0
O26 O 0.57134 0.01254 0.13821 0.0
O27 O 0.51043 0.02299 0.11367 0.0
C28 C 0.53157 1.00931 0.16892 0.0
C29 C 0.48797 0.01157 0.84373 0.0
O30 O 0.45898 0.05055 0.05981 0.0
O31 O 0.53331 0.08709 0.0121 0.0
O32 O 0.38174 0.9525 0.95625 0.0
O33 O 0.40191 0.93446 0.07896 0.0
O34 O 0.44981 0.01224 0.8755 0.0
O35 O 0.5068 0.99562 0.89826 0.0
O36 O 0.55714 0.96832 0.95288 0.0
O37 O 0.48383 0.93262 1.00557 0.0
C38 C 0.49353 0.087 0.04265 0.0
C39 C 0.5233 0.93232 0.97422 0.0
Dy40 Dy 0.5291 0.56044 0.01783 0.0
C41 C 0.47976 0.37941 0.04191 0.0
C42 C 0.54423 0.64277 0.97942 0.0
Dy43 Dy 0.4958 0.46383 0.01922 0.0
O44 O 0.5623 0.63294 0.04967 0.0
O45 O 0.51812 0.60752 0.92927 0.0
O46 O 0.56038 0.57211 0.1601 0.0
O47 O 0.50033 0.51593 0.12314 0.0
C48 C 0.53169 0.53556 0.1856 0.0
C49 C 0.49354 0.49134 0.85367 0.0
O50 O 0.42779 0.46821 0.04682 0.0
O51 O 0.45094 0.53956 0.01301 0.0
O52 O 0.47991 0.3949 0.96429 0.0
O53 O 0.48829 0.4101 0.10798 0.0
O54 O 0.46161 0.45666 0.87979 0.0
O55 O 0.52562 0.50853 0.91539 0.0
O56 O 0.59473 0.55263 0.98164 0.0
O57 O 0.57378 0.4865 0.04052 0.0
C58 C 0.41827 0.50212 0.03162 0.0
C59 C 0.60568 0.52153 0.0107 0.0
C60 C 0.04276 0.47734 0.68462 0.0
C61 C 0.01837 0.49585 0.74119 0.0
C62 C 0.04546 0.48287 0.59108 0.0
C63 C 0.02229 0.50667 0.55276 0.0
C64 C 0.99757 0.52546 0.60979 0.0
C65 C 0.9964 0.52028 0.70371 0.0
C66 C 0.07334 0.46344 0.5334 0.0
C67 C 0.97194 0.55063 0.57137 0.0
C68 C 0.06384 0.55859 0.33429 0.0
C69 C 0.03181 0.529 0.2679 0.0
C70 C 0.06166 0.55118 0.4267 0.0
C71 C 0.02581 0.51368 0.45395 0.0
C72 C 0.9935 0.48335 0.38696 0.0
C73 C 0.99724 0.49114 0.29422 0.0
C74 C 0.09757 0.58376 0.49526 0.0
C75 C 0.95436 0.44331 0.41356 0.0
H76 H 0.05984 0.4585 0.71373 0.0
H77 H 0.97712 0.53423 0.74726 0.0
H78 H 0.05053 0.44027 0.47729 0.0
H79 H 0.10128 0.48935 0.50132 0.0
H80 H 0.08963 0.44616 0.57386 0.0
H81 H 0.95267 0.56152 0.62396 0.0
H82 H 0.99699 0.57957 0.54218 0.0
H83 H 0.9468 0.53027 0.515 0.0
H84 H 0.09081 0.58782 0.31388 0.0
H85 H 0.97228 0.46844 0.24288 0.0
H86 H 0.11518 0.56732 0.53479 0.0
H87 H 0.08024 0.59851 0.54472 0.0
H88 H 0.12452 0.61016 0.46224 0.0
H89 H 0.96872 0.42357 0.45069 0.0
H90 H 0.93237 0.4228 0.35337 0.0
H91 H 0.9319 0.4529 0.46072 0.0
C92 C 0.56181 0.03629 0.32863 0.0
C93 C 0.5245 1.01056 0.26727 0.0
C94 C 0.55635 0.0382 0.42297 0.0
C95 C 0.51297 0.01253 0.45655 0.0
C96 C 0.47518 0.98621 0.39459 0.0
C97 C 0.4812 0.98619 0.30014 0.0
C98 C 0.59695 0.06779 0.48658 0.0
C99 C 0.42881 0.9575 0.4281 0.0
C100 C 0.51615 0.98646 0.70176 0.0
C101 C 0.49733 0.01383 0.74639 0.0
C102 C 0.52064 0.98514 0.60696 0.0
C103 C 0.50749 0.01296 0.55664 0.0
C104 C 0.48991 0.0417 0.60222 0.0
C105 C 0.48428 0.04122 0.69656 0.0
C106 C 0.53848 0.95334 0.56039 0.0
C107 C 0.47713 0.07294 0.55143 0.0
H108 H 0.59518 0.05554 0.30262 0.0
H109 H 0.45255 0.96627 0.25212 0.0
H110 H 0.58625 0.09018 0.53127 0.0
H111 H 0.60796 0.04839 0.53168 0.0
H112 H 0.62747 0.08737 0.44902 0.0
H113 H 0.40335 0.93832 0.37105 0.0
H114 H 0.43387 0.93479 0.47331 0.0
H115 H 0.41368 0.97745 0.46927 0.0
H116 H 0.52571 0.96491 0.74044 0.0
H117 H 0.4698 0.06241 0.7316 0.0
H118 H 0.57108 0.97098 0.52649 0.0
H119 H 0.5125 0.9318 0.50642 0.0
H120 H 0.54562 0.93291 0.60899 0.0
H121 H 0.50747 0.09347 0.51478 0.0
H122 H 0.46583 0.0944 0.59774 0.0
H123 H 0.44849 0.05473 0.49928 0.0
C124 C 0.54323 0.51527 0.7215 0.0
C125 C 0.49889 0.49989 0.75696 0.0
C126 C 0.5485 0.52008 0.6279 0.0
C127 C 0.50859 0.51086 0.56918 0.0
C128 C 0.46383 0.49655 0.60553 0.0
C129 C 0.45946 0.49042 0.69878 0.0
C130 C 0.59667 0.53417 0.59156 0.0
C131 C 0.42062 0.48795 0.54606 0.0
C132 C 0.53009 0.56373 0.34691 0.0
C133 C 0.52517 0.52869 0.28293 0.0
C134 C 0.52367 0.55813 0.43989 0.0
C135 C 0.51378 0.51679 0.47006 0.0
C136 C 0.50934 0.48136 0.40558 0.0
C137 C 0.51426 0.48762 0.31236 0.0
C138 C 0.52712 0.59639 0.50568 0.0
C139 C 0.50025 0.43709 0.43523 0.0
H140 H 0.57371 0.52211 0.76642 0.0
H141 H 0.42521 0.47862 0.72653 0.0
H142 H 0.59728 0.50975 0.53645 0.0
H143 H 0.60585 0.5653 0.56122 0.0
H144 H 0.62384 0.5384 0.64559 0.0
H145 H 0.38873 0.4789 0.58569 0.0
H146 H 0.42477 0.51723 0.51174 0.0
H147 H 0.41555 0.46133 0.49169 0.0
H148 H 0.53809 0.59547 0.32385 0.0
H149 H 0.51086 0.46071 0.26285 0.0
H150 H 0.55649 0.60428 0.55685 0.0
H151 H 0.49477 0.58815 0.54358 0.0
H152 H 0.53258 0.62575 0.47048 0.0
H153 H 0.52808 0.43949 0.48599 0.0
H154 H 0.49893 0.41328 0.37693 0.0
H155 H 0.46669 0.42454 0.46912 0.0
C156 C 0.15473 0.48046 0.09987 0.0
C157 C 0.14014 0.49453 0.0229 0.0
C158 C 0.19929 0.47946 0.1063 0.0
C159 C 0.22903 0.49152 0.03272 0.0
C160 C 0.21345 0.50402 0.95336 0.0
C161 C 0.16948 0.50603 0.95008 0.0
C162 C 0.21519 0.46706 0.19291 0.0
C163 C 0.2435 0.51596 0.87239 0.0
C164 C 0.36083 0.53518 0.06603 0.0
C165 C 0.36976 0.49859 0.03707 0.0
C166 C 0.31498 0.53275 0.06901 0.0
C167 C 0.27728 0.49308 0.03958 0.0
C168 C 0.28612 0.45589 0.01106 0.0
C169 C 0.33232 0.45896 0.01142 0.0
C170 C 0.30695 0.57286 0.10201 0.0
C171 C 0.24697 0.41337 0.97674 0.0
H172 H 0.13205 0.47189 0.1564 0.0
H173 H 0.15788 0.51649 0.89012 0.0
H174 H 0.22648 0.43998 0.17703 0.0
H175 H 0.24581 0.49498 0.22576 0.0
H176 H 0.18735 0.45719 0.24256 0.0
H177 H 0.22469 0.52148 0.81321 0.0
H178 H 0.27499 0.54596 0.8919 0.0
H179 H 0.25556 0.48987 0.85062 0.0
H180 H 0.38977 0.56575 0.08686 0.0
H181 H 0.33925 0.4307 0.98847 0.0
H182 H 0.28098 0.5654 0.15541 0.0
H183 H 0.29252 0.58395 0.04459 0.0
H184 H 0.33958 0.59992 0.13045 0.0
H185 H 0.2202 0.40319 0.02824 0.0
H186 H 0.2595 0.38704 0.96081 0.0
H187 H 0.2296 0.4175 0.91394 0.0
C188 C 0.7304 0.13452 0.0355 0.0
C189 C 0.6926 0.13092 0.97776 0.0
C190 C 0.77137 0.17261 0.04522 0.0
C191 C 0.77438 0.20801 0.99652 0.0
C192 C 0.73675 0.204 0.93608 0.0
C193 C 0.69637 0.16541 0.92718 0.0
C194 C 0.81086 0.17544 0.10957 0.0
C195 C 0.73853 0.24099 0.88301 0.0
C196 C 0.85552 0.32326 0.0854 0.0
C197 C 0.89197 0.33146 0.02598 0.0
C198 C 0.8176 0.28274 0.07829 0.0
C199 C 0.81628 0.24971 0.0103 0.0
C200 C 0.85399 0.25736 0.95261 0.0
C201 C 0.89135 0.29818 0.96108 0.0
C202 C 0.7781 0.27584 0.14122 0.0
C203 C 0.85409 0.22298 0.87969 0.0
H204 H 0.72752 0.10792 0.07492 0.0
H205 H 0.66708 0.16284 0.88293 0.0
H206 H 0.84387 0.18502 0.07364 0.0
H207 H 0.81609 0.20085 0.16688 0.0
H208 H 0.80414 0.14423 0.13831 0.0
H209 H 0.70703 0.23217 0.8366 0.0
H210 H 0.74153 0.26933 0.93108 0.0
H211 H 0.7698 0.2513 0.84177 0.0
H212 H 0.85585 0.34898 0.13546 0.0
H213 H 0.9195 0.30442 0.91495 0.0
H214 H 0.77112 0.24623 0.1763 0.0
H215 H 0.74576 0.27082 0.10073 0.0
H216 H 0.78563 0.30383 0.1937 0.0
H217 H 0.84791 0.19226 0.90988 0.0
H218 H 0.88748 0.23297 0.8448 0.0
H219 H 0.82527 0.21612 0.8277 0.0
C220 C 0.49658 0.8543 1.00113 0.0
C221 C 0.52904 0.89051 0.96422 0.0
C222 C 0.50183 0.81475 0.99617 0.0
C223 C 0.5403 0.81097 0.95243 0.0
C224 C 0.57274 0.84704 0.91322 0.0
C225 C 0.56688 0.88652 0.92002 0.0
C226 C 0.46661 0.77722 0.03959 0.0
C227 C 0.61387 0.84403 0.86515 0.0
C228 C 0.57253 0.72158 0.03152 0.0
C229 C 0.54826 0.68697 0.96552 0.0
C230 C 0.57213 0.76279 0.02565 0.0
C231 C 0.54709 0.76957 0.9516 0.0
C232 C 0.52458 0.73527 0.88214 0.0
C233 C 0.52527 0.69423 0.89015 0.0
C234 C 0.59637 0.79838 0.10141 0.0
C235 C 0.49791 0.74131 0.80168 0.0
H236 H 0.46727 0.85697 0.03568 0.0
H237 H 0.59198 0.91425 0.8909 0.0
H238 H 0.45085 0.74866 0.98817 0.0
H239 H 0.48426 0.76764 0.09454 0.0
H240 H 0.43817 0.78523 0.06943 0.0
H241 H 0.63454 0.87424 0.83411 0.0
H242 H 0.6371 0.83756 0.91431 0.0
H243 H 0.60172 0.81651 0.81068 0.0
H244 H 0.59045 0.71608 0.0898 0.0
H245 H 0.50664 0.66753 0.8388 0.0
H246 H 0.56996 0.80612 0.14022 0.0
H247 H 0.61935 0.82841 0.07269 0.0
H248 H 0.61766 0.78905 0.14978 0.0
H249 H 0.46607 0.74522 0.82524 0.0
H250 H 0.48725 0.71328 0.74836 0.0
H251 H 0.51931 0.7712 0.77053 0.0
C252 C 0.87663 0.56073 0.0224 0.0
C253 C 0.88118 0.52348 0.98202 0.0
C254 C 0.83267 0.56299 0.02607 0.0
C255 C 0.79275 0.52767 0.98589 0.0
C256 C 0.79763 0.49079 0.94146 0.0
C257 C 0.8417 0.48886 0.94138 0.0
C258 C 0.82869 0.60234 0.07614 0.0
C259 C 0.75617 0.453 0.89552 0.0
C260 C 0.67237 0.50676 0.07101 0.0
C261 C 0.6541 0.52482 1.00618 0.0
C262 C 0.71804 0.50878 0.06681 0.0
C263 C 0.74549 0.52811 0.99429 0.0
C264 C 0.7271 0.54634 0.92847 0.0
C265 C 0.68177 0.54506 0.93603 0.0
C266 C 0.73678 0.48994 0.13964 0.0
C267 C 0.75476 0.56606 0.84871 0.0
H268 H 0.90714 0.58735 0.05452 0.0
H269 H 0.84531 0.46018 0.9094 0.0
H270 H 0.81107 0.61671 0.03103 0.0
H271 H 0.8069 0.59255 0.13571 0.0
H272 H 0.86325 0.62765 0.1009 0.0
H273 H 0.76653 0.4286 0.8571 0.0
H274 H 0.73172 0.43676 0.94755 0.0
H275 H 0.73688 0.46463 0.84761 0.0
H276 H 0.65106 0.49141 0.1257 0.0
H277 H 0.66743 0.55867 0.88535 0.0
H278 H 0.77046 0.51448 0.17053 0.0
H279 H 0.74361 0.46193 0.10869 0.0
H280 H 0.71219 0.47885 0.1948 0.0
H281 H 0.78839 0.59262 0.8736 0.0
H282 H 0.73557 0.57918 0.8039 0.0
H283 H 0.76309 0.54117 0.80719 0.0
C284 C 0.12066 0.72136 0.99921 0.0
C285 C 0.12672 0.68625 0.95136 0.0
C286 C 0.15701 0.76284 0.01015 0.0
C287 C 0.20042 0.76927 0.97243 0.0
C288 C 0.20595 0.73429 0.92055 0.0
C289 C 0.16899 0.69319 0.91056 0.0
C290 C 0.14959 0.79931 0.06534 0.0
C291 C 0.25159 0.73983 0.87878 0.0
C292 C 0.28968 0.88229 0.942 0.0
C293 C 0.32193 0.88951 0.01546 0.0
C294 C 0.2492 0.84388 0.92866 0.0
C295 C 0.24078 0.81195 0.99033 0.0
C296 C 0.27231 0.81992 0.06682 0.0
C297 C 0.31256 0.85865 0.07846 0.0
C298 C 0.21643 0.83675 0.84654 0.0
C299 C 0.26448 0.78679 0.13441 0.0
H300 H 0.08806 0.71608 0.03112 0.0
H301 H 0.17386 0.66609 0.87382 0.0
H302 H 0.17236 0.80915 0.12898 0.0
H303 H 0.1595 0.82812 0.02645 0.0
H304 H 0.11281 0.7899 0.08414 0.0
H305 H 0.24941 0.71012 0.83623 0.0
H306 H 0.26243 0.76723 0.83572 0.0
H307 H 0.27931 0.74778 0.93373 0.0
H308 H 0.29686 0.90607 0.89301 0.0
H309 H 0.3375 0.86409 0.13515 0.0
H310 H 0.18012 0.82758 0.8678 0.0
H311 H 0.2169 0.80952 0.79898 0.0
H312 H 0.22607 0.86602 0.809 0.0
H313 H 0.22913 0.77743 0.16091 0.0
H314 H 0.29066 0.799 0.19312 0.0
H315 H 0.26644 0.757 0.09976 0.0
C316 C 0.48186 0.32197 0.13699 0.0
C317 C 0.47447 0.3345 0.05173 0.0
C318 C 0.48124 0.28042 0.14467 0.0
C319 C 0.47293 0.25092 0.06519 0.0
C320 C 0.46343 0.26293 0.97966 0.0
C321 C 0.46442 0.3046 0.97399 0.0
C322 C 0.49148 0.2688 0.23703 0.0
C323 C 0.45428 0.23245 0.89329 0.0
C324 C 0.52696 0.16779 0.04809 0.0
C325 C 0.48837 0.129 0.05669 0.0
C326 C 0.52263 0.20776 0.0542 0.0
C327 C 0.47857 0.2092 0.06915 0.0
C328 C 0.43973 0.17044 0.08105 0.0
C329 C 0.4451 0.13073 0.07477 0.0
C330 C 0.56501 0.24832 0.04137 0.0
C331 C 0.39222 0.17073 0.09717 0.0
H332 H 0.48955 0.34507 0.19723 0.0
H333 H 0.45843 0.31415 0.90802 0.0
H334 H 0.46485 0.2368 0.25052 0.0
H335 H 0.52579 0.2661 0.2379 0.0
H336 H 0.49239 0.29344 0.29319 0.0
H337 H 0.44374 0.24536 0.83371 0.0
H338 H 0.48629 0.22698 0.87736 0.0
H339 H 0.42644 0.20046 0.90279 0.0
H340 H 0.56069 0.16697 0.03491 0.0
H341 H 0.41511 0.10097 0.08165 0.0
H342 H 0.57029 0.27342 0.09933 0.0
H343 H 0.55953 0.2619 0.97821 0.0
H344 H 0.59731 0.24205 0.03601 0.0
H345 H 0.39463 0.19541 0.15428 0.0
H346 H 0.36662 0.13862 0.11313 0.0
H347 H 0.37882 0.17976 0.03531 0.0
loop_
_geom_bond_atom_site_label_1
_geom_bond_atom_site_label_2
_geom_bond_distance
_geom_bond_site_symmetry_2
_ccdc_geom_bond_type
Dy0 O4 2.398 . S
Dy0 O5 2.491 1_556 S
Dy0 O6 2.403 . S
Dy0 O7 2.664 1_655 S
Dy0 O11 2.326 . S
Dy0 O15 2.310 1_556 S
Dy0 O16 2.351 1_655 S
C1 O12 1.185 . S
C1 O13 1.355 1_554 S
C2 O4 1.185 . S
C2 O5 1.355 1_556 S
Dy3 O7 2.310 1_554 S
Dy3 O10 2.351 1_455 S
Dy3 O12 2.398 . S
Dy3 O13 2.491 1_554 S
Dy3 O14 2.403 . S
Dy3 O15 2.664 1_455 S
Dy3 O17 2.326 . S
O4 Dy0 2.398 . S
O4 C2 1.185 . S
O5 Dy0 2.491 1_554 S
O5 C2 1.355 1_554 S
O6 Dy0 2.403 . S
O6 C8 1.254 . S
O7 Dy0 2.664 1_455 S
O7 Dy3 2.310 1_556 S
O7 C8 1.268 1_455 S
C8 O6 1.254 . S
C8 O7 1.268 1_655 S
C9 O14 1.254 . S
C9 O15 1.268 1_455 S
O10 Dy3 2.351 1_655 S
O10 C18 1.249 1_554 S
O11 Dy0 2.326 . S
O11 C18 1.267 . S
O12 C1 1.185 . S
O12 Dy3 2.398 . S
O13 C1 1.355 1_556 S
O13 Dy3 2.491 1_556 S
O14 Dy3 2.403 . S
O14 C9 1.254 . S
O15 Dy0 2.310 1_554 S
O15 Dy3 2.664 1_655 S
O15 C9 1.268 1_655 S
O16 Dy0 2.351 1_455 S
O16 C19 1.249 1_556 S
O17 Dy3 2.326 . S
O17 C19 1.267 . S
C18 O10 1.249 1_556 S
C18 O11 1.267 . S
C19 O16 1.249 1_554 S
C19 O17 1.267 . S
Dy20 O24 2.398 . S
Dy20 O25 2.491 1_554 S
Dy20 O26 2.403 . S
Dy20 O27 2.664 1_545 S
Dy20 O31 2.326 . S
Dy20 O35 2.310 1_554 S
Dy20 O36 2.351 1_545 S
C21 O32 1.185 . S
C21 O33 1.355 1_556 S
C22 O24 1.185 . S
C22 O25 1.355 1_554 S
Dy23 O27 2.310 1_556 S
Dy23 O30 2.351 1_565 S
Dy23 O32 2.398 . S
Dy23 O33 2.491 1_556 S
Dy23 O34 2.403 . S
Dy23 O35 2.664 1_565 S
Dy23 O37 2.326 . S
O24 Dy20 2.398 . S
O24 C22 1.185 . S
O25 Dy20 2.491 1_556 S
O25 C22 1.355 1_556 S
O26 Dy20 2.403 . S
O26 C28 1.254 . S
O27 Dy20 2.664 1_565 S
O27 Dy23 2.310 1_554 S
O27 C28 1.268 1_565 S
C28 O26 1.254 . S
C28 O27 1.268 1_545 S
C29 O34 1.254 . S
C29 O35 1.268 1_565 S
O30 Dy23 2.351 1_545 S
O30 C38 1.249 1_556 S
O31 Dy20 2.326 . S
O31 C38 1.267 . S
O32 C21 1.185 . S
O32 Dy23 2.398 . S
O33 C21 1.355 1_554 S
O33 Dy23 2.491 1_554 S
O34 Dy23 2.403 . S
O34 C29 1.254 . S
O35 Dy20 2.310 1_556 S
O35 Dy23 2.664 1_545 S
O35 C29 1.268 1_545 S
O36 Dy20 2.351 1_565 S
O36 C39 1.249 1_554 S
O37 Dy23 2.326 . S
O37 C39 1.267 . S
C38 O30 1.249 1_554 S
C38 O31 1.267 . S
C39 O36 1.249 1_556 S
C39 O37 1.267 . S
Dy40 O44 2.398 . S
Dy40 O45 2.491 1_554 S
Dy40 O46 2.403 . S
Dy40 O47 2.664 . S
Dy40 O51 2.326 . S
Dy40 O55 2.310 1_554 S
Dy40 O56 2.351 . S
C41 O52 1.185 . S
C41 O53 1.355 1_556 S
C42 O44 1.185 . S
C42 O45 1.355 1_554 S
Dy43 O47 2.310 1_556 S
Dy43 O50 2.351 . S
Dy43 O52 2.398 . S
Dy43 O53 2.491 1_556 S
Dy43 O54 2.403 . S
Dy43 O55 2.664 . S
Dy43 O57 2.326 . S
O44 Dy40 2.398 . S
O44 C42 1.185 . S
O45 Dy40 2.491 1_556 S
O45 C42 1.355 1_556 S
O46 Dy40 2.403 . S
O46 C48 1.254 . S
O47 Dy40 2.664 . S
O47 Dy43 2.310 1_554 S
O47 C48 1.268 . S
C48 O46 1.254 . S
C48 O47 1.268 . S
C49 O54 1.254 . S
C49 O55 1.268 . S
O50 Dy43 2.351 . S
O50 C58 1.249 1_556 S
O51 Dy40 2.326 . S
O51 C58 1.267 . S
O52 C41 1.185 . S
O52 Dy43 2.398 . S
O53 C41 1.355 1_554 S
O53 Dy43 2.491 1_554 S
O54 Dy43 2.403 . S
O54 C49 1.254 . S
O55 Dy40 2.310 1_556 S
O55 Dy43 2.664 . S
O55 C49 1.268 . S
O56 Dy40 2.351 . S
O56 C59 1.249 1_554 S
O57 Dy43 2.326 . S
O57 C59 1.267 . S
C58 O50 1.249 1_554 S
C58 O51 1.267 . S
C59 O56 1.249 1_556 S
C59 O57 1.267 . S
C60 C61 1.402 . S
C60 C62 1.394 . S
C60 H76 0.931 . S
C61 C60 1.402 . S
C61 C65 1.364 1_455 S
C62 C60 1.394 . S
C62 C63 1.369 1_455 S
C62 C66 1.531 . S
C63 C62 1.369 1_655 S
C63 C64 1.410 . S
C63 C71 1.503 . S
C64 C63 1.410 . S
C64 C65 1.392 . S
C64 C67 1.511 . S
C65 C61 1.364 1_655 S
C65 C64 1.392 . S
C65 H77 0.929 . S
C66 C62 1.531 . S
C66 H78 0.960 . S
C66 H79 0.962 . S
C66 H80 0.960 . S
C67 C64 1.511 . S
C67 H81 0.961 . S
C67 H82 0.961 . S
C67 H83 0.961 . S
C68 C69 1.370 1_455 S
C68 C70 1.363 . S
C68 H84 0.931 . S
C69 C68 1.370 1_655 S
C69 C73 1.408 . S
C70 C68 1.363 . S
C70 C71 1.370 1_455 S
C70 C74 1.524 . S
C71 C63 1.503 . S
C71 C70 1.370 1_655 S
C71 C72 1.403 . S
C72 C71 1.403 . S
C72 C73 1.404 . S
C72 C75 1.539 . S
C73 C69 1.408 . S
C73 C72 1.404 . S
C73 H85 0.930 . S
C74 C70 1.524 . S
C74 H86 0.956 . S
C74 H87 0.961 . S
C74 H88 0.961 . S
C75 C72 1.539 . S
C75 H89 0.958 . S
C75 H90 0.961 . S
C75 H91 0.960 . S
H76 C60 0.931 . S
H77 C65 0.929 . S
H78 C66 0.960 . S
H79 C66 0.962 . S
H80 C66 0.960 . S
H81 C67 0.961 . S
H82 C67 0.961 . S
H83 C67 0.961 . S
H84 C68 0.931 . S
H85 C73 0.930 . S
H86 C74 0.956 . S
H87 C74 0.961 . S
H88 C74 0.961 . S
H89 C75 0.958 . S
H90 C75 0.961 . S
H91 C75 0.960 . S
C92 C93 1.391 . S
C92 C94 1.394 . S
C92 H108 0.931 . S
C93 C92 1.391 . S
C93 C97 1.376 1_545 S
C94 C92 1.394 . S
C94 C95 1.369 . S
C94 C98 1.531 . S
C95 C94 1.369 . S
C95 C96 1.410 1_545 S
C95 C103 1.503 . S
C96 C95 1.410 1_565 S
C96 C97 1.392 . S
C96 C99 1.511 . S
C97 C93 1.376 1_565 S
C97 C96 1.392 . S
C97 H109 0.929 . S
C98 C94 1.531 . S
C98 H110 0.960 . S
C98 H111 0.962 . S
C98 H112 0.960 . S
C99 C96 1.511 . S
C99 H113 0.961 . S
C99 H114 0.961 . S
C99 H115 0.961 . S
C100 C101 1.370 1_565 S
C100 C102 1.363 . S
C100 H116 0.931 . S
C101 C100 1.370 1_545 S
C101 C105 1.408 . S
C102 C100 1.363 . S
C102 C103 1.370 1_565 S
C102 C106 1.524 . S
C103 C95 1.503 . S
C103 C102 1.370 1_545 S
C103 C104 1.403 . S
C104 C103 1.403 . S
C104 C105 1.404 . S
C104 C107 1.539 . S
C105 C101 1.408 . S
C105 C104 1.404 . S
C105 H117 0.930 . S
C106 C102 1.524 . S
C106 H118 0.956 . S
C106 H119 0.961 . S
C106 H120 0.961 . S
C107 C104 1.539 . S
C107 H121 0.958 . S
C107 H122 0.961 . S
C107 H123 0.960 . S
H108 C92 0.931 . S
H109 C97 0.929 . S
H110 C98 0.960 . S
H111 C98 0.962 . S
H112 C98 0.960 . S
H113 C99 0.961 . S
H114 C99 0.961 . S
H115 C99 0.961 . S
H116 C100 0.931 . S
H117 C105 0.930 . S
H118 C106 0.956 . S
H119 C106 0.961 . S
H120 C106 0.961 . S
H121 C107 0.958 . S
H122 C107 0.961 . S
H123 C107 0.960 . S
C124 C125 1.391 . S
C124 C126 1.394 . S
C124 H140 0.931 . S
C125 C124 1.391 . S
C125 C129 1.376 . S
C126 C124 1.394 . S
C126 C127 1.369 . S
C126 C130 1.531 . S
C127 C126 1.369 . S
C127 C128 1.410 . S
C127 C135 1.503 . S
C128 C127 1.410 . S
C128 C129 1.392 . S
C128 C131 1.511 . S
C129 C125 1.376 . S
C129 C128 1.392 . S
C129 H141 0.929 . S
C130 C126 1.531 . S
C130 H142 0.960 . S
C130 H143 0.962 . S
C130 H144 0.960 . S
C131 C128 1.511 . S
C131 H145 0.961 . S
C131 H146 0.961 . S
C131 H147 0.961 . S
C132 C133 1.370 . S
C132 C134 1.363 . S
C132 H148 0.931 . S
C133 C132 1.370 . S
C133 C137 1.408 . S
C134 C132 1.363 . S
C134 C135 1.370 . S
C134 C138 1.524 . S
C135 C127 1.503 . S
C135 C134 1.370 . S
C135 C136 1.403 . S
C136 C135 1.403 . S
C136 C137 1.404 . S
C136 C139 1.539 . S
C137 C133 1.408 . S
C137 C136 1.404 . S
C137 H149 0.930 . S
C138 C134 1.524 . S
C138 H150 0.956 . S
C138 H151 0.961 . S
C138 H152 0.961 . S
C139 C136 1.539 . S
C139 H153 0.958 . S
C139 H154 0.961 . S
C139 H155 0.960 . S
H140 C124 0.931 . S
H141 C129 0.929 . S
H142 C130 0.960 . S
H143 C130 0.962 . S
H144 C130 0.960 . S
H145 C131 0.961 . S
H146 C131 0.961 . S
H147 C131 0.961 . S
H148 C132 0.931 . S
H149 C137 0.930 . S
H150 C138 0.956 . S
H151 C138 0.961 . S
H152 C138 0.961 . S
H153 C139 0.958 . S
H154 C139 0.961 . S
H155 C139 0.960 . S
C156 C157 1.391 1_554 S
C156 C158 1.394 . S
C156 H172 0.931 . S
C157 C156 1.391 1_556 S
C157 C161 1.376 . S
C158 C156 1.394 . S
C158 C159 1.369 1_554 S
C158 C162 1.531 . S
C159 C158 1.369 1_556 S
C159 C160 1.410 . S
C159 C167 1.503 . S
C160 C159 1.410 . S
C160 C161 1.392 . S
C160 C163 1.511 . S
C161 C157 1.376 . S
C161 C160 1.392 . S
C161 H173 0.929 . S
C162 C158 1.531 . S
C162 H174 0.960 . S
C162 H175 0.962 . S
C162 H176 0.960 . S
C163 C160 1.511 . S
C163 H177 0.961 . S
C163 H178 0.961 . S
C163 H179 0.961 . S
C164 C165 1.370 1_554 S
C164 C166 1.363 . S
C164 H180 0.931 . S
C165 C164 1.370 1_556 S
C165 C169 1.408 . S
C166 C164 1.363 . S
C166 C167 1.370 1_554 S
C166 C170 1.524 . S
C167 C159 1.503 . S
C167 C166 1.370 1_556 S
C167 C168 1.403 . S
C168 C167 1.403 . S
C168 C169 1.404 . S
C168 C171 1.539 . S
C169 C165 1.408 . S
C169 C168 1.404 . S
C169 H181 0.930 . S
C170 C166 1.524 . S
C170 H182 0.956 . S
C170 H183 0.961 . S
C170 H184 0.961 . S
C171 C168 1.539 . S
C171 H185 0.958 . S
C171 H186 0.961 . S
C171 H187 0.960 . S
H172 C156 0.931 . S
H173 C161 0.929 . S
H174 C162 0.960 . S
H175 C162 0.962 . S
H176 C162 0.960 . S
H177 C163 0.961 . S
H178 C163 0.961 . S
H179 C163 0.961 . S
H180 C164 0.931 . S
H181 C169 0.930 . S
H182 C170 0.956 . S
H183 C170 0.961 . S
H184 C170 0.961 . S
H185 C171 0.958 . S
H186 C171 0.961 . S
H187 C171 0.960 . S
C188 C189 1.391 . S
C188 C190 1.394 . S
C188 H204 0.931 . S
C189 C188 1.391 . S
C189 C193 1.376 . S
C190 C188 1.394 . S
C190 C191 1.369 . S
C190 C194 1.531 . S
C191 C190 1.369 . S
C191 C192 1.410 . S
C191 C199 1.503 . S
C192 C191 1.410 . S
C192 C193 1.392 . S
C192 C195 1.511 . S
C193 C189 1.376 . S
C193 C192 1.392 . S
C193 H205 0.929 . S
C194 C190 1.531 . S
C194 H206 0.960 . S
C194 H207 0.962 1_556 S
C194 H208 0.960 . S
C195 C192 1.511 . S
C195 H209 0.961 1_556 S
C195 H210 0.961 1_556 S
C195 H211 0.961 . S
C196 C197 1.370 1_554 S
C196 C198 1.363 . S
C196 H212 0.931 . S
C197 C196 1.370 1_556 S
C197 C201 1.408 . S
C198 C196 1.363 . S
C198 C199 1.370 1_554 S
C198 C202 1.524 . S
C199 C191 1.503 . S
C199 C198 1.370 1_556 S
C199 C200 1.403 . S
C200 C199 1.403 . S
C200 C201 1.404 . S
C200 C203 1.539 . S
C201 C197 1.408 . S
C201 C200 1.404 . S
C201 H213 0.930 . S
C202 C198 1.524 . S
C202 H214 0.956 . S
C202 H215 0.961 . S
C202 H216 0.961 . S
C203 C200 1.539 . S
C203 H217 0.958 . S
C203 H218 0.961 . S
C203 H219 0.960 . S
H204 C188 0.931 . S
H205 C193 0.929 . S
H206 C194 0.960 . S
H207 C194 0.962 1_554 S
H208 C194 0.960 . S
H209 C195 0.961 1_554 S
H210 C195 0.961 1_554 S
H211 C195 0.961 . S
H212 C196 0.931 . S
H213 C201 0.930 . S
H214 C202 0.956 . S
H215 C202 0.961 . S
H216 C202 0.961 . S
H217 C203 0.958 . S
H218 C203 0.961 . S
H219 C203 0.960 . S
C220 C221 1.384 1_554 S
C220 C222 1.394 . S
C220 H236 0.931 . S
C221 C220 1.384 1_556 S
C221 C225 1.382 . S
C222 C220 1.394 . S
C222 C223 1.369 . S
C222 C226 1.531 . S
C223 C222 1.369 . S
C223 C224 1.410 1_554 S
C223 C231 1.503 . S
C224 C223 1.410 1_556 S
C224 C225 1.392 . S
C224 C227 1.511 . S
C225 C221 1.382 . S
C225 C224 1.392 . S
C225 H237 0.929 . S
C226 C222 1.531 . S
C226 H238 0.960 . S
C226 H239 0.962 . S
C226 H240 0.960 . S
C227 C224 1.511 . S
C227 H241 0.961 . S
C227 H242 0.961 . S
C227 H243 0.961 . S
C228 C229 1.369 1_556 S
C228 C230 1.363 . S
C228 H244 0.931 . S
C229 C228 1.369 1_554 S
C229 C233 1.409 . S
C230 C228 1.363 . S
C230 C231 1.370 1_556 S
C230 C234 1.524 . S
C231 C223 1.503 . S
C231 C230 1.370 1_554 S
C231 C232 1.403 . S
C232 C231 1.403 . S
C232 C233 1.404 . S
C232 C235 1.539 . S
C233 C229 1.409 . S
C233 C232 1.404 . S
C233 H245 0.930 . S
C234 C230 1.524 . S
C234 H246 0.956 1_556 S
C234 H247 0.961 . S
C234 H248 0.961 . S
C235 C232 1.539 . S
C235 H249 0.958 . S
C235 H250 0.961 1_554 S
C235 H251 0.960 1_554 S
H236 C220 0.931 . S
H237 C225 0.929 . S
H238 C226 0.960 . S
H239 C226 0.962 . S
H240 C226 0.960 . S
H241 C227 0.961 . S
H242 C227 0.961 . S
H243 C227 0.961 . S
H244 C228 0.931 . S
H245 C233 0.930 . S
H246 C234 0.956 1_554 S
H247 C234 0.961 . S
H248 C234 0.961 . S
H249 C235 0.958 . S
H250 C235 0.961 1_556 S
H251 C235 0.960 1_556 S
C252 C253 1.391 1_554 S
C252 C254 1.394 . S
C252 H268 0.931 . S
C253 C252 1.391 1_556 S
C253 C257 1.376 . S
C254 C252 1.394 . S
C254 C255 1.369 1_554 S
C254 C258 1.531 . S
C255 C254 1.369 1_556 S
C255 C256 1.410 . S
C255 C263 1.503 . S
C256 C255 1.410 . S
C256 C257 1.392 . S
C256 C259 1.511 . S
C257 C253 1.376 . S
C257 C256 1.392 . S
C257 H269 0.929 . S
C258 C254 1.531 . S
C258 H270 0.960 . S
C258 H271 0.962 . S
C258 H272 0.960 . S
C259 C256 1.511 . S
C259 H273 0.961 . S
C259 H274 0.961 . S
C259 H275 0.961 . S
C260 C261 1.370 . S
C260 C262 1.363 . S
C260 H276 0.931 . S
C261 C260 1.370 . S
C261 C265 1.408 1_554 S
C262 C260 1.363 . S
C262 C263 1.370 1_554 S
C262 C266 1.524 . S
C263 C255 1.503 . S
C263 C262 1.370 1_556 S
C263 C264 1.403 . S
C264 C263 1.403 . S
C264 C265 1.404 . S
C264 C267 1.539 . S
C265 C261 1.408 1_556 S
C265 C264 1.404 . S
C265 H277 0.930 . S
C266 C262 1.524 . S
C266 H278 0.956 . S
C266 H279 0.961 . S
C266 H280 0.961 . S
C267 C264 1.539 . S
C267 H281 0.958 . S
C267 H282 0.961 . S
C267 H283 0.960 . S
H268 C252 0.931 . S
H269 C257 0.929 . S
H270 C258 0.960 . S
H271 C258 0.962 . S
H272 C258 0.960 . S
H273 C259 0.961 . S
H274 C259 0.961 . S
H275 C259 0.961 . S
H276 C260 0.931 . S
H277 C265 0.930 . S
H278 C266 0.956 . S
H279 C266 0.961 . S
H280 C266 0.961 . S
H281 C267 0.958 . S
H282 C267 0.961 . S
H283 C267 0.960 . S
C284 C285 1.391 . S
C284 C286 1.394 . S
C284 H300 0.931 . S
C285 C284 1.391 . S
C285 C289 1.376 . S
C286 C284 1.394 . S
C286 C287 1.369 . S
C286 C290 1.531 . S
C287 C286 1.369 . S
C287 C288 1.410 . S
C287 C295 1.503 . S
C288 C287 1.410 . S
C288 C289 1.392 . S
C288 C291 1.511 . S
C289 C285 1.376 . S
C289 C288 1.392 . S
C289 H301 0.929 . S
C290 C286 1.531 . S
C290 H302 0.960 . S
C290 H303 0.962 1_554 S
C290 H304 0.960 . S
C291 C288 1.511 . S
C291 H305 0.961 1_554 S
C291 H306 0.961 1_554 S
C291 H307 0.961 . S
C292 C293 1.370 1_556 S
C292 C294 1.363 . S
C292 H308 0.931 . S
C293 C292 1.370 1_554 S
C293 C297 1.408 . S
C294 C292 1.363 . S
C294 C295 1.370 1_556 S
C294 C298 1.524 . S
C295 C287 1.503 . S
C295 C294 1.370 1_554 S
C295 C296 1.403 . S
C296 C295 1.403 . S
C296 C297 1.404 . S
C296 C299 1.539 . S
C297 C293 1.408 . S
C297 C296 1.404 . S
C297 H309 0.930 . S
C298 C294 1.524 . S
C298 H310 0.956 . S
C298 H311 0.961 . S
C298 H312 0.961 . S
C299 C296 1.539 . S
C299 H313 0.958 . S
C299 H314 0.961 . S
C299 H315 0.960 . S
H300 C284 0.931 . S
H301 C289 0.929 . S
H302 C290 0.960 . S
H303 C290 0.962 1_556 S
H304 C290 0.960 . S
H305 C291 0.961 1_556 S
H306 C291 0.961 1_556 S
H307 C291 0.961 . S
H308 C292 0.931 . S
H309 C297 0.930 . S
H310 C298 0.956 . S
H311 C298 0.961 . S
H312 C298 0.961 . S
H313 C299 0.958 . S
H314 C299 0.961 . S
H315 C299 0.960 . S
C316 C317 1.391 . S
C316 C318 1.394 . S
C316 H332 0.931 . S
C317 C316 1.391 . S
C317 C321 1.376 1_554 S
C318 C316 1.394 . S
C318 C319 1.369 . S
C318 C322 1.531 . S
C319 C318 1.369 . S
C319 C320 1.410 1_554 S
C319 C327 1.503 . S
C320 C319 1.410 1_556 S
C320 C321 1.392 . S
C320 C323 1.511 . S
C321 C317 1.376 1_556 S
C321 C320 1.392 . S
C321 H333 0.929 . S
C322 C318 1.531 . S
C322 H334 0.960 . S
C322 H335 0.962 . S
C322 H336 0.960 . S
C323 C320 1.511 . S
C323 H337 0.961 . S
C323 H338 0.961 . S
C323 H339 0.961 . S
C324 C325 1.370 1_556 S
C324 C326 1.363 . S
C324 H340 0.931 . S
C325 C324 1.370 1_554 S
C325 C329 1.408 . S
C326 C324 1.363 . S
C326 C327 1.370 1_556 S
C326 C330 1.524 . S
C327 C319 1.503 . S
C327 C326 1.370 1_554 S
C327 C328 1.403 . S
C328 C327 1.403 . S
C328 C329 1.404 . S
C328 C331 1.539 . S
C329 C325 1.408 . S
C329 C328 1.404 . S
C329 H341 0.930 . S
C330 C326 1.524 . S
C330 H342 0.956 . S
C330 H343 0.961 . S
C330 H344 0.961 . S
C331 C328 1.539 . S
C331 H345 0.958 . S
C331 H346 0.961 . S
C331 H347 0.960 . S
H332 C316 0.931 . S
H333 C321 0.929 . S
H334 C322 0.960 . S
H335 C322 0.962 . S
H336 C322 0.960 . S
H337 C323 0.961 . S
H338 C323 0.961 . S
H339 C323 0.961 . S
H340 C324 0.931 . S
H341 C329 0.930 . S
H342 C330 0.956 . S
H343 C330 0.961 . S
H344 C330 0.961 . S
H345 C331 0.958 . S
H346 C331 0.961 . S
H347 C331 0.960 . S
C61 C8 1.428 1_455 S
C69 C9 1.470 1_655 S
C93 C28 1.463 . S
C101 C29 1.449 1_545 S
C125 C49 1.428 . S
C133 C48 1.471 . S
C157 C19 1.769 1_556 S
C165 C58 1.764 1_556 S
C189 C22 1.243 1_556 S
C197 C2 1.229 . S
C221 C39 1.518 . S
C229 C42 1.505 . S
C253 C18 1.755 . S
C261 C59 1.758 1_554 S
C285 C1 1.222 . S
C293 C21 1.243 1_554 S
C317 C41 1.472 1_554 S
C325 C38 1.521 . S
