# Generated by pormake.
# Topology uke, (4)-cn, num edge types: 1
# Building blocks:
#     Node 0, Type 0, BuildingBlock: NAHDIM_clean_sbu_0, # of connection points: 4
#     Node 1, Type 0, BuildingBlock: NAHDIM_clean_sbu_0, # of connection points: 4
#     Node 2, Type 0, BuildingBlock: NAHDIM_clean_sbu_0, # of connection points: 4
#     Node 3, Type 0, BuildingBlock: NAHDIM_clean_sbu_0, # of connection points: 4
#     Node 4, Type 0, BuildingBlock: NAHDIM_clean_sbu_0, # of connection points: 4
#     Node 5, Type 0, BuildingBlock: NAHDIM_clean_sbu_0, # of connection points: 4
#     Node 6, Type 0, BuildingBlock: NAHDIM_clean_sbu_0, # of connection points: 4
#     Node 7, Type 0, BuildingBlock: NAHDIM_clean_sbu_0, # of connection points: 4
#     Node 8, Type 0, BuildingBlock: NAHDIM_clean_sbu_0, # of connection points: 4
#     Node 9, Type 0, BuildingBlock: NAHDIM_clean_sbu_0, # of connection points: 4
#     Node 10, Type 0, BuildingBlock: NAHDIM_clean_sbu_0, # of connection points: 4
#     Node 11, Type 0, BuildingBlock: NAHDIM_clean_sbu_0, # of connection points: 4
#     Node 12, Type 0, BuildingBlock: NAHDIM_clean_sbu_0, # of connection points: 4
#     Node 13, Type 0, BuildingBlock: NAHDIM_clean_sbu_0, # of connection points: 4
#     Node 14, Type 0, BuildingBlock: NAHDIM_clean_sbu_0, # of connection points: 4
#     Node 15, Type 0, BuildingBlock: NAHDIM_clean_sbu_0, # of connection points: 4
#     Node 16, Type 0, BuildingBlock: NAHDIM_clean_sbu_0, # of connection points: 4
#     Node 17, Type 0, BuildingBlock: NAHDIM_clean_sbu_0, # of connection points: 4
#     Node 18, Type 0, BuildingBlock: NAHDIM_clean_sbu_0, # of connection points: 4
#     Node 19, Type 0, BuildingBlock: NAHDIM_clean_sbu_0, # of connection points: 4
#     Node 20, Type 0, BuildingBlock: NAHDIM_clean_sbu_0, # of connection points: 4
#     Node 21, Type 0, BuildingBlock: NAHDIM_clean_sbu_0, # of connection points: 4
#     Node 22, Type 0, BuildingBlock: NAHDIM_clean_sbu_0, # of connection points: 4
#     Node 23, Type 0, BuildingBlock: NAHDIM_clean_sbu_0, # of connection points: 4
#     Node 24, Type 0, BuildingBlock: NAHDIM_clean_sbu_0, # of connection points: 4
#     Node 25, Type 0, BuildingBlock: NAHDIM_clean_sbu_0, # of connection points: 4
#     Node 26, Type 0, BuildingBlock: NAHDIM_clean_sbu_0, # of connection points: 4
#     Node 27, Type 0, BuildingBlock: NAHDIM_clean_sbu_0, # of connection points: 4
#     Node 28, Type 0, BuildingBlock: NAHDIM_clean_sbu_0, # of connection points: 4
#     Node 29, Type 0, BuildingBlock: NAHDIM_clean_sbu_0, # of connection points: 4
#     Node 30, Type 0, BuildingBlock: NAHDIM_clean_sbu_0, # of connection points: 4
#     Node 31, Type 0, BuildingBlock: NAHDIM_clean_sbu_0, # of connection points: 4
#     Edge 32, Type (0, 0), BuildingBlock: OJICUG_clean_linker_0, # of connection points: 2
#     Edge 33, Type (0, 0), BuildingBlock: OJICUG_clean_linker_0, # of connection points: 2
#     Edge 34, Type (0, 0), BuildingBlock: OJICUG_clean_linker_0, # of connection points: 2
#     Edge 35, Type (0, 0), BuildingBlock: OJICUG_clean_linker_0, # of connection points: 2
#     Edge 36, Type (0, 0), BuildingBlock: OJICUG_clean_linker_0, # of connection points: 2
#     Edge 37, Type (0, 0), BuildingBlock: OJICUG_clean_linker_0, # of connection points: 2
#     Edge 38, Type (0, 0), BuildingBlock: OJICUG_clean_linker_0, # of connection points: 2
#     Edge 39, Type (0, 0), BuildingBlock: OJICUG_clean_linker_0, # of connection points: 2
#     Edge 40, Type (0, 0), BuildingBlock: OJICUG_clean_linker_0, # of connection points: 2
#     Edge 41, Type (0, 0), BuildingBlock: OJICUG_clean_linker_0, # of connection points: 2
#     Edge 42, Type (0, 0), BuildingBlock: OJICUG_clean_linker_0, # of connection points: 2
#     Edge 43, Type (0, 0), BuildingBlock: OJICUG_clean_linker_0, # of connection points: 2
#     Edge 44, Type (0, 0), BuildingBlock: OJICUG_clean_linker_0, # of connection points: 2
#     Edge 45, Type (0, 0), BuildingBlock: OJICUG_clean_linker_0, # of connection points: 2
#     Edge 46, Type (0, 0), BuildingBlock: OJICUG_clean_linker_0, # of connection points: 2
#     Edge 47, Type (0, 0), BuildingBlock: OJICUG_clean_linker_0, # of connection points: 2
#     Edge 48, Type (0, 0), BuildingBlock: OJICUG_clean_linker_0, # of connection points: 2
#     Edge 49, Type (0, 0), BuildingBlock: OJICUG_clean_linker_0, # of connection points: 2
#     Edge 50, Type (0, 0), BuildingBlock: OJICUG_clean_linker_0, # of connection points: 2
#     Edge 51, Type (0, 0), BuildingBlock: OJICUG_clean_linker_0, # of connection points: 2
#     Edge 52, Type (0, 0), BuildingBlock: OJICUG_clean_linker_0, # of connection points: 2
#     Edge 53, Type (0, 0), BuildingBlock: OJICUG_clean_linker_0, # of connection points: 2
#     Edge 54, Type (0, 0), BuildingBlock: OJICUG_clean_linker_0, # of connection points: 2
#     Edge 55, Type (0, 0), BuildingBlock: OJICUG_clean_linker_0, # of connection points: 2
#     Edge 56, Type (0, 0), BuildingBlock: OJICUG_clean_linker_0, # of connection points: 2
#     Edge 57, Type (0, 0), BuildingBlock: OJICUG_clean_linker_0, # of connection points: 2
#     Edge 58, Type (0, 0), BuildingBlock: OJICUG_clean_linker_0, # of connection points: 2
#     Edge 59, Type (0, 0), BuildingBlock: OJICUG_clean_linker_0, # of connection points: 2
#     Edge 60, Type (0, 0), BuildingBlock: OJICUG_clean_linker_0, # of connection points: 2
#     Edge 61, Type (0, 0), BuildingBlock: OJICUG_clean_linker_0, # of connection points: 2
#     Edge 62, Type (0, 0), BuildingBlock: OJICUG_clean_linker_0, # of connection points: 2
#     Edge 63, Type (0, 0), BuildingBlock: OJICUG_clean_linker_0, # of connection points: 2
#     Edge 64, Type (0, 0), BuildingBlock: OJICUG_clean_linker_0, # of connection points: 2
#     Edge 65, Type (0, 0), BuildingBlock: OJICUG_clean_linker_0, # of connection points: 2
#     Edge 66, Type (0, 0), BuildingBlock: OJICUG_clean_linker_0, # of connection points: 2
#     Edge 67, Type (0, 0), BuildingBlock: OJICUG_clean_linker_0, # of connection points: 2
#     Edge 68, Type (0, 0), BuildingBlock: OJICUG_clean_linker_0, # of connection points: 2
#     Edge 69, Type (0, 0), BuildingBlock: OJICUG_clean_linker_0, # of connection points: 2
#     Edge 70, Type (0, 0), BuildingBlock: OJICUG_clean_linker_0, # of connection points: 2
#     Edge 71, Type (0, 0), BuildingBlock: OJICUG_clean_linker_0, # of connection points: 2
#     Edge 72, Type (0, 0), BuildingBlock: OJICUG_clean_linker_0, # of connection points: 2
#     Edge 73, Type (0, 0), BuildingBlock: OJICUG_clean_linker_0, # of connection points: 2
#     Edge 74, Type (0, 0), BuildingBlock: OJICUG_clean_linker_0, # of connection points: 2
#     Edge 75, Type (0, 0), BuildingBlock: OJICUG_clean_linker_0, # of connection points: 2
#     Edge 76, Type (0, 0), BuildingBlock: OJICUG_clean_linker_0, # of connection points: 2
#     Edge 77, Type (0, 0), BuildingBlock: OJICUG_clean_linker_0, # of connection points: 2
#     Edge 78, Type (0, 0), BuildingBlock: OJICUG_clean_linker_0, # of connection points: 2
#     Edge 79, Type (0, 0), BuildingBlock: OJICUG_clean_linker_0, # of connection points: 2
#     Edge 80, Type (0, 0), BuildingBlock: OJICUG_clean_linker_0, # of connection points: 2
#     Edge 81, Type (0, 0), BuildingBlock: OJICUG_clean_linker_0, # of connection points: 2
#     Edge 82, Type (0, 0), BuildingBlock: OJICUG_clean_linker_0, # of connection points: 2
#     Edge 83, Type (0, 0), BuildingBlock: OJICUG_clean_linker_0, # of connection points: 2
#     Edge 84, Type (0, 0), BuildingBlock: OJICUG_clean_linker_0, # of connection points: 2
#     Edge 85, Type (0, 0), BuildingBlock: OJICUG_clean_linker_0, # of connection points: 2
#     Edge 86, Type (0, 0), BuildingBlock: OJICUG_clean_linker_0, # of connection points: 2
#     Edge 87, Type (0, 0), BuildingBlock: OJICUG_clean_linker_0, # of connection points: 2
#     Edge 88, Type (0, 0), BuildingBlock: OJICUG_clean_linker_0, # of connection points: 2
#     Edge 89, Type (0, 0), BuildingBlock: OJICUG_clean_linker_0, # of connection points: 2
#     Edge 90, Type (0, 0), BuildingBlock: OJICUG_clean_linker_0, # of connection points: 2
#     Edge 91, Type (0, 0), BuildingBlock: OJICUG_clean_linker_0, # of connection points: 2
#     Edge 92, Type (0, 0), BuildingBlock: OJICUG_clean_linker_0, # of connection points: 2
#     Edge 93, Type (0, 0), BuildingBlock: OJICUG_clean_linker_0, # of connection points: 2
#     Edge 94, Type (0, 0), BuildingBlock: OJICUG_clean_linker_0, # of connection points: 2
#     Edge 95, Type (0, 0), BuildingBlock: OJICUG_clean_linker_0, # of connection points: 2
# Relax obj value: 0.225
# Max RMSD: 0.243
# Mean RMSD: 0.243
data_MOF--net-uke--node1-NAHDIM_clean_sbu_0--edge1-OJICUG_clean_linker_0
_symmetry_space_group_name_H-M    P1
_symmetry_Int_Tables_number       1
_symmetry_cell_setting            triclinic
loop_
_symmetry_equiv_pos_as_xyz
'x, y, z'
_cell_length_a     19.732912
_cell_length_b     72.227639
_cell_length_c     35.952163
_cell_angle_alpha  90.065135
_cell_angle_beta   89.855402
_cell_angle_gamma 90.097394
loop_
_atom_site_label
_atom_site_type_symbol
_atom_site_fract_x
_atom_site_fract_y
_atom_site_fract_z
_atom_type_partial_charge
C0 C 0.02431 0.03455 0.40059 0.0
O1 O 0.06311 0.02121 0.38783 0.0
O2 O 0.17498 0.04294 0.34412 0.0
Zn3 Zn 0.08838 0.0574 0.34272 0.0
O4 O 0.10503 0.08494 0.3432 0.0
C5 C 0.06536 0.03451 0.27941 0.0
O6 O 0.07299 0.02121 0.30394 0.0
O7 O 0.02572 0.05035 0.38498 0.0
C8 C 0.06013 0.09495 0.32785 0.0
O9 O 0.00551 0.08698 0.31442 0.0
C10 C 0.21192 0.04571 0.3156 0.0
O11 O 0.20295 0.06106 0.29665 0.0
O12 O 0.05536 0.05092 0.2911 0.0
C13 C 0.32375 0.21645 0.33539 0.0
O14 O 0.2869 0.23158 0.33557 0.0
O15 O 0.16446 0.22592 0.29493 0.0
Zn16 Zn 0.21594 0.20198 0.28828 0.0
O17 O 0.16709 0.17989 0.3098 0.0
C18 C 0.22843 0.2114 0.21038 0.0
O19 O 0.2439 0.22783 0.22367 0.0
O20 O 0.30576 0.20286 0.31513 0.0
C21 C 0.1231 0.17077 0.29161 0.0
O22 O 0.10378 0.1768 0.25888 0.0
C23 C 0.1149 0.22903 0.27329 0.0
O24 O 0.09404 0.21577 0.25105 0.0
O25 O 0.22253 0.19786 0.23276 0.0
C26 C 0.03728 0.20412 0.94622 0.0
O27 O 0.07572 0.218 0.95686 0.0
O28 O 0.20498 0.19801 0.9815 0.0
Zn29 Zn 0.12434 0.1825 0.99489 0.0
O30 O 0.14313 0.15522 0.99429 0.0
C31 C 0.12009 0.20491 0.06145 0.0
O32 O 0.12763 0.21867 0.03793 0.0
O33 O 0.04715 0.18813 0.95998 0.0
C34 C 0.09644 0.14578 0.00971 0.0
O35 O 0.0418 0.15437 0.02151 0.0
C36 C 0.25212 0.19928 1.00542 0.0
O37 O 0.25535 0.18679 0.03192 0.0
O38 O 0.10731 0.18881 0.04887 0.0
C39 C 0.34212 0.02084 0.02318 0.0
O40 O 0.30447 0.00584 0.02189 0.0
O41 O 0.16869 0.01585 0.04183 0.0
Zn42 Zn 0.22571 0.03681 0.06123 0.0
O43 O 0.19239 0.06082 0.03965 0.0
C44 C 0.19731 0.02426 0.13688 0.0
O45 O 0.20216 0.00764 0.1222 0.0
O46 O 0.32166 0.03468 0.04202 0.0
C47 C 0.14617 0.07046 0.05481 0.0
O48 O 0.11645 0.06436 0.08514 0.0
C49 C 0.10873 0.01411 0.05427 0.0
O50 O 0.08542 0.02641 0.07797 0.0
O51 O 0.21258 0.0383 0.11717 0.0
C52 C -0.00651 0.97529 0.6469 0.0
O53 O 0.97314 0.99086 0.66217 0.0
O54 O 0.83951 0.97627 0.70708 0.0
Zn55 Zn 0.90655 0.9555 0.7015 0.0
O56 O 0.86446 0.93043 0.69245 0.0
C57 C 0.95107 0.96841 0.77291 0.0
O58 O 0.95179 0.98463 0.75639 0.0
O59 O 0.97346 0.95992 0.66016 0.0
C60 C 0.90759 0.91758 0.69729 0.0
O61 O 0.97022 0.92214 0.7057 0.0
C62 C 0.80276 0.97487 0.73607 0.0
O63 O 0.79904 0.95874 0.75282 0.0
O64 O 0.94711 0.9539 0.75293 0.0
C65 C 0.6697 0.80149 0.62921 0.0
O66 O 0.73035 0.80156 0.61402 0.0
O67 O 0.81535 0.78625 0.68112 0.0
Zn68 Zn 0.75147 0.80748 0.69252 0.0
O69 O 0.78977 0.83288 0.68044 0.0
C70 C 0.74081 0.79067 0.76423 0.0
O71 O 0.73308 0.77557 0.74424 0.0
O72 O 0.66449 0.80372 0.66421 0.0
C73 C 0.82676 0.84094 0.70446 0.0
O74 O 0.84175 0.83231 0.73546 0.0
C75 C 0.86571 0.78364 0.70254 0.0
O76 O 0.88151 0.79651 0.72683 0.0
O77 O 0.73923 0.8063 0.74805 0.0
C78 C 0.95714 0.78426 0.03501 0.0
O79 O 0.91986 0.76922 0.03751 0.0
O80 O 0.79787 0.7733 0.9912 0.0
Zn81 Zn 0.85031 0.79735 0.9853 0.0
O82 O 0.80084 0.82043 1.00186 0.0
C83 C 0.86605 0.78608 0.90902 0.0
O84 O 0.87827 0.76981 0.92383 0.0
O85 O 0.93876 0.79721 0.01337 0.0
C86 C 0.76371 0.82936 0.97926 0.0
O87 O 0.74995 0.82209 0.94666 0.0
C88 C 0.74845 0.77089 0.96902 0.0
O89 O 0.72695 0.78501 0.94942 0.0
O90 O 0.86302 0.8002 0.93006 0.0
C91 C 0.70565 0.96839 0.03115 0.0
O92 O 0.76327 0.97628 0.04023 0.0
O93 O 0.87036 0.95653 0.01558 0.0
Zn94 Zn 0.79399 0.94502 0.98752 0.0
O95 O 0.79175 0.91766 0.99689 0.0
C96 C 0.83878 0.96446 0.92141 0.0
O97 O 0.84429 0.97848 0.94452 0.0
O98 O 0.70556 0.95568 0.00658 0.0
C99 C 0.74203 0.90852 0.98396 0.0
O100 O 0.69484 0.9173 0.96526 0.0
C101 C 0.93151 0.95585 1.00466 0.0
O102 O 0.94727 0.94561 0.97568 0.0
O103 O 0.81339 0.9493 0.93299 0.0
C104 C 0.90959 0.51516 0.7535 0.0
O105 O 0.9488 0.5008 0.74727 0.0
O106 O 0.08834 0.52413 0.74801 0.0
Zn107 Zn 0.0176 0.53712 0.718 0.0
O108 O 0.0306 0.56469 0.72447 0.0
C109 C 0.06678 0.51655 0.65325 0.0
O110 O 0.08046 0.50358 0.67766 0.0
O111 O 0.92638 0.53089 0.74044 0.0
C112 C 0.06742 0.57369 0.70175 0.0
O113 O 0.09637 0.56488 0.67399 0.0
C114 C 0.15104 0.52656 0.7415 0.0
O115 O 0.16967 0.53815 0.71529 0.0
O116 O 0.03376 0.53081 0.66358 0.0
C117 C 0.20792 0.70622 0.77102 0.0
O118 O 0.16816 0.72079 0.77208 0.0
O119 O 0.036 0.70907 0.73825 0.0
Zn120 Zn 0.10303 0.68944 0.72377 0.0
O121 O 0.07178 0.66322 0.73209 0.0
C122 C 0.10133 0.70581 0.64939 0.0
O123 O 0.09809 0.72183 0.66662 0.0
O124 O 0.19128 0.69236 0.75122 0.0
C125 C 0.1146 0.65225 0.71739 0.0
O126 O 0.16967 0.65928 0.70235 0.0
C127 C 0.98312 0.71084 0.71842 0.0
O128 O 0.9681 0.69777 0.69434 0.0
O129 O 0.11162 0.69118 0.66813 0.0
C130 C 0.92621 0.6848 0.36667 0.0
O131 O 0.98658 0.6839 0.35127 0.0
O132 O 0.07474 0.69898 0.41786 0.0
Zn133 Zn 0.00709 0.67895 0.43065 0.0
O134 O 0.04183 0.65299 0.42087 0.0
C135 C -0.00422 0.69791 0.50041 0.0
O136 O -0.00913 0.71252 0.47883 0.0
O137 O 0.9211 0.68312 0.40178 0.0
C138 C 0.07585 0.64482 0.44596 0.0
O139 O 0.08965 0.6536 0.47703 0.0
C140 C 0.12528 0.70127 0.43932 0.0
O141 O 0.13843 0.6886 0.46441 0.0
O142 O -0.00596 0.68187 0.48583 0.0
C143 C 0.21696 0.51091 0.37263 0.0
O144 O 0.18137 0.49591 0.37952 0.0
O145 O 0.07587 0.51047 0.44485 0.0
Zn146 Zn 0.14842 0.52966 0.43722 0.0
O147 O 0.11083 0.55538 0.43023 0.0
C148 C 0.19137 0.51506 0.50726 0.0
O149 O 0.18983 0.49914 0.48953 0.0
O150 O 0.21163 0.52494 0.3939 0.0
C151 C 0.15368 0.56799 0.43786 0.0
O152 O 0.21514 0.56315 0.44785 0.0
C153 C 0.0401 0.51443 0.47327 0.0
O154 O 0.04036 0.53162 0.4853 0.0
O155 O 0.19181 0.52992 0.48824 0.0
C156 C 0.0855 0.48022 0.2886 0.0
O157 O 0.04956 0.49548 0.2868 0.0
O158 O 0.90594 0.48366 0.30194 0.0
Zn159 Zn 0.96535 0.4643 0.3253 0.0
O160 O 0.93468 0.43945 0.30596 0.0
C161 C 0.92489 0.47848 0.39843 0.0
O162 O 0.92259 0.49452 0.38127 0.0
O163 O 0.06236 0.4665 0.30688 0.0
C164 C 0.89243 0.42927 0.32313 0.0
O165 O 0.86654 0.43502 0.35477 0.0
C166 C 0.84351 0.48312 0.31063 0.0
O167 O 0.82216 0.47023 0.33356 0.0
O168 O 0.94862 0.46446 0.38128 0.0
C169 C 0.78083 0.31038 0.19893 0.0
O170 O 0.83909 0.31379 0.18253 0.0
O171 O 0.9393 0.30234 0.24271 0.0
Zn172 Zn 0.8628 0.31792 0.26163 0.0
O173 O 0.88002 0.34524 0.25848 0.0
C174 C 0.87326 0.29671 0.3298 0.0
O175 O 0.88002 0.28253 0.30718 0.0
O176 O 0.77739 0.31123 0.23423 0.0
C177 C 0.83578 0.35449 0.2763 0.0
O178 O 0.78379 0.34565 0.2908 0.0
C179 C -0.00726 0.30121 0.26223 0.0
O180 O 0.00218 0.31328 0.28912 0.0
O181 O 0.85829 0.31247 0.31648 0.0
C182 C 0.05837 0.28678 0.60391 0.0
O183 O 0.022 0.27153 0.60355 0.0
O184 O 0.89831 0.27772 0.56184 0.0
Zn185 Zn 0.95035 0.30181 0.55756 0.0
O186 O 0.90133 0.32402 0.57858 0.0
C187 C 0.97212 0.29247 0.48078 0.0
O188 O 0.98838 0.27633 0.49499 0.0
O189 O 0.03919 0.30061 0.58484 0.0
C190 C 0.85949 0.33338 0.55948 0.0
O191 O 0.84221 0.32747 0.52627 0.0
C192 C 0.85144 0.27502 0.5382 0.0
O193 O 0.83262 0.28879 0.51681 0.0
O194 O 0.96175 0.30606 0.50256 0.0
C195 C 0.77452 0.47058 0.66808 0.0
O196 O 0.81195 0.48411 0.65482 0.0
O197 O 0.91791 0.46143 0.60262 0.0
Zn198 Zn 0.83024 0.4474 0.60663 0.0
O199 O 0.84555 0.41977 0.60775 0.0
C200 C 0.79985 0.46948 0.5432 0.0
O201 O 0.80998 0.48311 0.56678 0.0
O202 O 0.77395 0.45498 0.65152 0.0
C203 C 0.79968 0.40963 0.59345 0.0
O204 O 0.74462 0.41751 0.58049 0.0
C205 C 0.95137 0.45689 0.57369 0.0
O206 O 0.93931 0.44063 0.55862 0.0
O207 O 0.79065 0.45325 0.55606 0.0
C208 C 0.5335 0.03133 0.90332 0.0
O209 O 0.57105 0.01779 0.89027 0.0
O210 O 0.68198 0.03837 0.84453 0.0
Zn211 Zn 0.59731 0.05376 0.84469 0.0
O212 O 0.61662 0.08118 0.84529 0.0
C213 C 0.56908 0.03195 0.78027 0.0
O214 O 0.57768 0.01812 0.80348 0.0
O215 O 0.53548 0.0471 0.88759 0.0
C216 C 0.57015 0.09133 0.83178 0.0
O217 O 0.51364 0.08349 0.82055 0.0
C218 C 0.718 0.04049 0.81542 0.0
O219 O 0.71025 0.05573 0.79595 0.0
O220 O 0.56046 0.04812 0.79352 0.0
C221 C 0.82861 0.21398 0.83532 0.0
O222 O 0.79195 0.22914 0.83608 0.0
O223 O 0.66543 0.22295 0.79918 0.0
Zn224 Zn 0.71782 0.19932 0.79051 0.0
O225 O 0.67216 0.17672 0.81203 0.0
C226 C 0.72584 0.21016 0.71342 0.0
O227 O 0.74242 0.22624 0.72791 0.0
O228 O 0.80923 0.20036 0.81553 0.0
C229 C 0.62834 0.16732 0.7943 0.0
O230 O 0.60689 0.17331 0.76193 0.0
C231 C 0.61442 0.22582 0.77844 0.0
O232 O 0.59279 0.21239 0.75684 0.0
O233 O 0.72105 0.19612 0.73464 0.0
C234 C 0.5281 0.20696 0.44892 0.0
O235 O 0.56557 0.22095 0.46004 0.0
O236 O 0.69572 0.20125 0.48513 0.0
Zn237 Zn 0.61528 0.18546 0.4978 0.0
O238 O 0.6351 0.15823 0.49687 0.0
C239 C 0.61126 0.20711 0.56547 0.0
O240 O 0.61982 0.22118 0.54282 0.0
O241 O 0.53844 0.19096 0.46253 0.0
C242 C 0.58898 0.14868 0.51256 0.0
O243 O 0.53424 0.15715 0.5246 0.0
C244 C 0.74324 0.20223 0.5089 0.0
O245 O 0.74634 0.18959 0.5351 0.0
O246 O 0.5973 0.19129 0.55189 0.0
C247 C 0.83248 0.02329 0.51995 0.0
O248 O 0.79389 0.00849 0.51798 0.0
O249 O 0.65929 0.01874 0.54047 0.0
Zn250 Zn 0.71836 0.03915 0.56026 0.0
O251 O 0.68541 0.06357 0.54048 0.0
C252 C 0.69348 0.0251 0.63495 0.0
O253 O 0.69775 0.00885 0.61867 0.0
O254 O 0.81337 0.03691 0.53983 0.0
C255 C 0.64099 0.07335 0.55688 0.0
O256 O 0.61301 0.0672 0.58767 0.0
C257 C 0.59957 0.01733 0.55343 0.0
O258 O 0.57815 0.02961 0.57769 0.0
O259 O 0.7077 0.0396 0.61637 0.0
C260 C 0.48095 0.9696 0.1333 0.0
O261 O 0.42082 0.96356 0.12334 0.0
O262 O 0.34773 0.98421 0.20662 0.0
Zn263 Zn 0.4191 0.96452 0.20329 0.0
O264 O 0.38425 0.93924 0.18879 0.0
C265 C 0.44889 0.9763 0.27778 0.0
O266 O 0.45112 0.99278 0.26238 0.0
O267 O 0.49343 0.9718 0.16773 0.0
C268 C 0.42856 0.92678 0.19431 0.0
O269 O 0.48859 0.93179 0.20652 0.0
C270 C 0.30704 0.98201 0.23374 0.0
O271 O 0.30254 0.96554 0.24908 0.0
O272 O 0.44867 0.96209 0.25681 0.0
C273 C 0.18374 0.79509 0.13469 0.0
O274 O 0.21872 0.78081 0.14647 0.0
O275 O 0.35452 0.79571 0.16243 0.0
Zn276 Zn 0.28642 0.81569 0.1748 0.0
O277 O 0.3212 0.84179 0.166 0.0
C278 C 0.27137 0.79679 0.24451 0.0
O279 O 0.268 0.78219 0.22278 0.0
O280 O 0.20197 0.81133 0.1442 0.0
C281 C 0.35778 0.84932 0.1909 0.0
O282 O 0.37413 0.83975 0.22056 0.0
C283 C 0.40263 0.79227 0.18489 0.0
O284 O 0.41542 0.80404 0.2118 0.0
O285 O 0.27067 0.81283 0.22995 0.0
C286 C 0.43126 0.79722 0.53611 0.0
O287 O 0.37075 0.79858 0.55121 0.0
O288 O 0.29006 0.77693 0.47939 0.0
Zn289 Zn 0.34871 0.79964 0.47259 0.0
O290 O 0.30555 0.82343 0.48989 0.0
C291 C 0.36413 0.7885 0.3959 0.0
O292 O 0.37052 0.77189 0.41033 0.0
O293 O 0.43623 0.79685 0.50082 0.0
C294 C 0.26667 0.83242 0.46834 0.0
O295 O 0.24875 0.82502 0.43648 0.0
C296 C 0.2408 0.77425 0.45724 0.0
O297 O 0.22377 0.78745 0.43404 0.0
O298 O 0.36231 0.80245 0.41742 0.0
C299 C 0.18847 0.97181 0.5274 0.0
O300 O 0.2392 0.98361 0.52773 0.0
O301 O 0.3573 0.96039 0.5165 0.0
Zn302 Zn 0.28333 0.94832 0.48767 0.0
O303 O 0.28709 0.92079 0.49392 0.0
C304 C 0.32608 0.96961 0.42345 0.0
O305 O 0.33175 0.98305 0.4479 0.0
O306 O 0.19424 0.95684 0.509 0.0
C307 C 0.2396 0.91147 0.4791 0.0
O308 O 0.19176 0.92026 0.46092 0.0
C309 C 0.41844 0.95956 0.50559 0.0
O310 O 0.43395 0.94899 0.47705 0.0
O311 O 0.30067 0.95421 0.43355 0.0
C312 C 0.41164 0.51767 0.2534 0.0
O313 O 0.45751 0.5046 0.25024 0.0
O314 O 0.58629 0.53003 0.25241 0.0
Zn315 Zn 0.51553 0.54198 0.22113 0.0
O316 O 0.52024 0.56952 0.22837 0.0
C317 C 0.57083 0.52199 0.15772 0.0
O318 O 0.57877 0.50862 0.18207 0.0
O319 O 0.42381 0.53359 0.23979 0.0
C320 C 0.47563 0.57945 0.21266 0.0
O321 O 0.4284 0.57134 0.19271 0.0
C322 C 0.64875 0.53282 0.24588 0.0
O323 O 0.66638 0.54453 0.21962 0.0
O324 O 0.53947 0.53663 0.16737 0.0
C325 C 0.68707 0.69121 0.27467 0.0
O326 O 0.62666 0.69071 0.29012 0.0
O327 O 0.54872 0.71347 0.22073 0.0
Zn328 Zn 0.60273 0.69014 0.21181 0.0
O329 O 0.55592 0.66656 0.22776 0.0
C330 C 0.61899 0.70252 0.13582 0.0
O331 O 0.62996 0.71873 0.15132 0.0
O332 O 0.6914 0.6915 0.23936 0.0
C333 C 0.5152 0.65833 0.2059 0.0
O334 O 0.49778 0.66644 0.1747 0.0
C335 C 0.50012 0.71725 0.19882 0.0
O336 O 0.48013 0.70467 0.17484 0.0
O337 O 0.61426 0.68826 0.15635 0.0
C338 C 0.43281 0.6997 0.87308 0.0
O339 O 0.46425 0.71436 0.88614 0.0
O340 O 0.60848 0.69653 0.90488 0.0
Zn341 Zn 0.53311 0.67853 0.91531 0.0
O342 O 0.55941 0.65173 0.90968 0.0
C343 C 0.52105 0.69825 0.98471 0.0
O344 O 0.52398 0.71291 0.96317 0.0
O345 O 0.45258 0.68365 0.88265 0.0
C346 C 0.51814 0.64088 0.92598 0.0
O347 O 0.46437 0.64792 0.94231 0.0
C348 C 0.6551 0.69768 0.92917 0.0
O349 O 0.66157 0.68419 0.9534 0.0
O350 O 0.51476 0.68234 0.96994 0.0
C351 C 0.71962 0.51131 0.87602 0.0
O352 O 0.67316 0.49833 0.87872 0.0
O353 O 0.58936 0.50782 0.95115 0.0
Zn354 Zn 0.65406 0.52912 0.94137 0.0
O355 O 0.60727 0.55329 0.92793 0.0
C356 C 0.69988 0.51838 0.01323 0.0
O357 O 0.70386 0.502 0.99742 0.0
O358 O 0.72189 0.5242 0.90019 0.0
C359 C 0.59358 0.56523 0.95287 0.0
O360 O 0.60633 0.56149 0.98785 0.0
C361 C 0.54954 0.51106 0.9783 0.0
O362 O 0.54119 0.52828 0.98899 0.0
O363 O 0.69539 0.53258 0.99243 0.0
C364 C 0.58738 0.47986 0.79035 0.0
O365 O 0.54739 0.49436 0.78867 0.0
O366 O 0.40988 0.48041 0.80416 0.0
Zn367 Zn 0.47281 0.46221 0.8282 0.0
O368 O 0.44681 0.4369 0.8094 0.0
C369 C 0.4317 0.47664 0.90091 0.0
O370 O 0.42771 0.49252 0.88327 0.0
O371 O 0.5688 0.46588 0.80936 0.0
C372 C 0.40512 0.42644 0.82629 0.0
O373 O 0.37737 0.43211 0.85752 0.0
C374 C 0.34735 0.47946 0.81251 0.0
O375 O 0.32697 0.46688 0.83639 0.0
O376 O 0.45626 0.46264 0.88409 0.0
C377 C 0.27497 0.29534 0.71065 0.0
O378 O 0.30984 0.28101 0.72231 0.0
O379 O 0.4478 0.30008 0.74044 0.0
Zn380 Zn 0.36999 0.31611 0.75587 0.0
O381 O 0.3922 0.34322 0.75666 0.0
C382 C 0.3672 0.29386 0.82308 0.0
O383 O 0.37768 0.2799 0.80036 0.0
O384 O 0.29024 0.31143 0.72236 0.0
C385 C 0.34763 0.35251 0.77416 0.0
O386 O 0.29278 0.34397 0.78593 0.0
C387 C 0.49752 0.29849 0.76262 0.0
O388 O 0.50349 0.3104 0.79008 0.0
O389 O 0.35369 0.3097 0.80966 0.0
C390 C 0.53993 0.29801 0.11105 0.0
O391 O 0.48081 0.2966 0.12774 0.0
O392 O 0.40114 0.27575 0.05757 0.0
Zn393 Zn 0.45013 0.30014 0.05131 0.0
O394 O 0.40186 0.32208 0.07392 0.0
C395 C 0.46536 0.29049 0.97426 0.0
O396 O 0.4844 0.27457 0.98844 0.0
O397 O 0.54156 0.29908 0.07575 0.0
C398 C 0.35803 0.33143 0.0562 0.0
O399 O 0.33827 0.3257 0.02328 0.0
C400 C 0.3521 0.27282 0.03543 0.0
O401 O 0.32963 0.28656 0.01504 0.0
O402 O 0.45549 0.30416 0.99593 0.0
C403 C 0.27934 0.46839 0.17021 0.0
O404 O 0.31953 0.48152 0.15773 0.0
O405 O 0.42428 0.45781 0.10577 0.0
Zn406 Zn 0.33441 0.4448 0.10902 0.0
O407 O 0.34625 0.41704 0.10956 0.0
C408 C 0.30833 0.46762 0.04607 0.0
O409 O 0.32012 0.48095 0.07009 0.0
O410 O 0.27742 0.45285 0.15346 0.0
C411 C 0.30024 0.40731 0.09432 0.0
O412 O 0.24641 0.41562 0.08091 0.0
C413 C 0.45769 0.45317 0.07687 0.0
O414 O 0.44362 0.43719 0.06112 0.0
O415 O 0.29695 0.45138 0.05837 0.0
C416 C 0.1444 0.04462 0.18547 0.0
C417 C 0.1628 0.02682 0.17324 0.0
H418 H 0.09731 0.06099 0.22781 0.0
C419 C 0.1438 0.01146 0.1949 0.0
H420 H 0.15734 0.05676 0.16926 0.0
C421 C 0.109 0.01388 0.22853 0.0
C422 C 0.09173 0.03171 0.24111 0.0
H423 H 0.15666 -0.00246 0.18618 0.0
H424 H 0.09723 0.00179 0.24515 0.0
C425 C 0.10901 0.04703 0.21886 0.0
C426 C 0.17383 0.22358 0.11234 0.0
C427 C 0.14397 0.20693 0.1003 0.0
H428 H 0.22514 0.23795 0.15614 0.0
C429 C 0.14396 0.19163 0.12445 0.0
H430 H 0.17569 0.23556 0.09427 0.0
C431 C 0.17327 0.19292 0.1597 0.0
C432 C 0.20317 0.20956 0.17175 0.0
H433 H 0.12205 0.17853 0.11597 0.0
H434 H 0.17177 0.18089 0.17766 0.0
C435 C 0.20303 0.22488 0.14766 0.0
C436 C 0.88025 0.9493 0.86297 0.0
C437 C 0.8695 0.9655 0.88382 0.0
H438 H 0.91661 0.9374 0.81229 0.0
C439 C 0.89123 0.98254 0.8691 0.0
H440 H 0.86502 0.93591 0.87369 0.0
C441 C 0.9212 0.9834 0.8338 0.0
C442 C 0.93056 0.96723 0.81257 0.0
H443 H 0.88409 0.99527 0.88457 0.0
H444 H 0.93514 0.99683 0.82274 0.0
C445 C 0.91073 0.95014 0.82789 0.0
C446 C 0.82194 0.77113 0.85103 0.0
C447 C 0.83763 0.7873 0.87105 0.0
H448 H 0.77755 0.75946 0.80209 0.0
C449 C 0.81885 0.80454 0.85622 0.0
H450 H 0.83476 0.7576 0.86189 0.0
C451 C 0.78516 0.8056 0.82218 0.0
C452 C 0.76939 0.78943 0.80216 0.0
H453 H 0.82952 0.81726 0.8711 0.0
H454 H 0.77214 0.81912 0.81139 0.0
C455 C 0.78811 0.77218 0.81699 0.0
C456 C 0.12807 0.49967 0.60211 0.0
C457 C 0.09927 0.51609 0.616 0.0
H458 H 0.18041 0.48647 0.557 0.0
C459 C 0.10585 0.5324 0.59503 0.0
H460 H 0.12423 0.48688 0.61768 0.0
C461 C 0.13975 0.5323 0.56085 0.0
C462 C 0.16683 0.51578 0.54633 0.0
H463 H 0.08506 0.54535 0.60507 0.0
H464 H 0.14243 0.54508 0.54519 0.0
C465 C 0.16096 0.49948 0.56752 0.0
C466 C 0.06853 0.6864 0.59474 0.0
C467 C 0.07752 0.70404 0.61055 0.0
H468 H 0.03401 0.6706 0.54826 0.0
C469 C 0.05731 0.7197 0.59023 0.0
H470 H 0.08291 0.67401 0.6097 0.0
C471 C 0.02881 0.71771 0.55484 0.0
C472 C 0.01955 0.70004 0.53918 0.0
H473 H 0.06291 0.73347 0.60176 0.0
H474 H 0.01454 0.73005 0.53966 0.0
C475 C 0.03964 0.68442 0.5596 0.0
C476 C 0.83504 0.48947 0.48943 0.0
C477 C 0.82327 0.47172 0.50415 0.0
H478 H 0.87672 0.50555 0.44483 0.0
C479 C 0.84372 0.4562 0.48325 0.0
H480 H 0.8206 0.50172 0.50493 0.0
C481 C 0.87745 0.45841 0.44926 0.0
C482 C 0.89071 0.47617 0.43499 0.0
H483 H 0.8363 0.44232 0.49385 0.0
H484 H 0.89346 0.44615 0.43427 0.0
C485 C 0.86786 0.49167 0.45513 0.0
C486 C 0.92462 0.27885 0.3824 0.0
C487 C 0.89632 0.29536 0.36884 0.0
H488 H 0.97199 0.26507 0.42813 0.0
C489 C 0.89562 0.31107 0.39196 0.0
H490 H 0.92672 0.26656 0.36516 0.0
C491 C 0.92242 0.31029 0.42782 0.0
C492 C 0.95044 0.29377 0.44149 0.0
H493 H 0.87478 0.32406 0.38229 0.0
H494 H 0.92028 0.32261 0.44499 0.0
C495 C 0.95136 0.27806 0.41835 0.0
C496 C 0.6109 0.0125 0.72708 0.0
C497 C 0.59338 0.03 0.74136 0.0
H498 H 0.65714 0.99723 0.68268 0.0
C499 C 0.60853 0.04581 0.72008 0.0
H500 H 0.60076 5e-05 0.7429 0.0
C501 C 0.64219 0.04423 0.68597 0.0
C502 C 0.6609 0.02677 0.67203 0.0
H503 H 0.5965 0.05953 0.7303 0.0
H504 H 0.65349 0.05673 0.67054 0.0
C505 C 0.64398 0.01091 0.69273 0.0
C506 C 0.69802 0.22505 0.65234 0.0
C507 C 0.69846 0.20923 0.6751 0.0
H508 H 0.66914 0.23692 0.60022 0.0
C509 C 0.66705 0.19299 0.66212 0.0
H510 H 0.72121 0.23785 0.66159 0.0
C511 C 0.63621 0.19254 0.62717 0.0
C512 C 0.63618 0.20831 0.60427 0.0
H513 H 0.66568 0.1806 0.67908 0.0
H514 H 0.6133 0.1797 0.6179 0.0
C515 C 0.66732 0.22459 0.61731 0.0
C516 C 0.36971 0.95562 0.36432 0.0
C517 C 0.35814 0.97141 0.38631 0.0
H518 H 0.40945 0.94466 0.31356 0.0
C519 C 0.38112 0.98868 0.3734 0.0
H520 H 0.35351 0.94206 0.37364 0.0
C521 C 0.41359 0.99018 0.33886 0.0
C522 C 0.4243 0.97441 0.31662 0.0
H523 H 0.37337 0.0011 0.38978 0.0
H524 H 0.42879 0.00378 0.32923 0.0
C525 C 0.4027 0.95709 0.33003 0.0
C526 C 0.33229 0.77504 0.33414 0.0
C527 C 0.34364 0.79067 0.35659 0.0
H528 H 0.29922 0.76467 0.28147 0.0
C529 C 0.32895 0.80831 0.34222 0.0
H530 H 0.3424 0.76124 0.34446 0.0
C531 C 0.30342 0.81027 0.30624 0.0
C532 C 0.29194 0.79463 0.28381 0.0
H533 H 0.33651 0.82064 0.35888 0.0
H534 H 0.2933 0.82407 0.29592 0.0
C535 C 0.30667 0.777 0.29816 0.0
C536 C 0.65175 0.5366 0.06657 0.0
C537 C 0.67547 0.51966 0.05229 0.0
H538 H 0.59857 0.55053 0.11031 0.0
C539 C 0.66627 0.50354 0.07369 0.0
H540 H 0.65822 0.54932 0.0511 0.0
C541 C 0.63224 0.50427 0.10789 0.0
C542 C 0.60597 0.52109 0.12127 0.0
H543 H 0.68335 0.49022 0.0635 0.0
H544 H 0.62523 0.49157 0.12344 0.0
C545 C 0.61687 0.53727 0.10044 0.0
C546 C 0.59265 0.71739 0.07457 0.0
C547 C 0.59681 0.70137 0.0966 0.0
H548 H 0.56434 0.72907 0.02218 0.0
C549 C 0.57347 0.68448 0.08192 0.0
H550 H 0.60964 0.73066 0.08514 0.0
C551 C 0.54651 0.68362 0.04612 0.0
C552 C 0.54242 0.69962 0.02403 0.0
H553 H 0.57527 0.67189 0.09824 0.0
H554 H 0.52962 0.67033 0.0356 0.0
C555 C 0.56579 0.71652 0.03865 0.0
C556 C 0.37742 0.48992 0.95833 0.0
C557 C 0.3984 0.47439 0.9377 0.0
H558 H 0.33198 0.49997 0.00865 0.0
C559 C 0.38396 0.45663 0.95165 0.0
H560 H 0.38735 0.50379 0.94828 0.0
C561 C 0.35058 0.45445 0.98574 0.0
C562 C 0.33179 0.46997 0.00707 0.0
H563 H 0.39856 0.44436 0.93628 0.0
H564 H 0.34206 0.44055 0.99603 0.0
C565 C 0.34506 0.48773 0.99278 0.0
C566 C 0.4183 0.27629 0.87611 0.0
C567 C 0.38782 0.2925 0.86254 0.0
H568 H 0.46787 0.26304 0.92177 0.0
C569 C 0.38408 0.30811 0.88586 0.0
H570 H 0.42276 0.26409 0.85874 0.0
C571 C 0.41085 0.30759 0.92176 0.0
C572 C 0.44185 0.29144 0.93525 0.0
H573 H 0.36141 0.32087 0.87622 0.0
H574 H 0.40679 0.31986 0.93899 0.0
C575 C 0.44498 0.27576 0.9121 0.0
C576 C 0.25418 0.99627 0.29018 0.0
C577 C 0.2822 -0.00162 0.25443 0.0
H578 H 0.21267 0.00953 0.33825 0.0
C579 C 0.29252 0.01633 0.2405 0.0
H580 H 0.24697 0.98265 0.30218 0.0
C581 C 0.27331 0.0318 0.26139 0.0
C582 C 0.24372 0.02967 0.29677 0.0
H583 H 0.3149 0.01846 0.2133 0.0
H584 H 0.27982 0.04541 0.24926 0.0
C585 C 0.23556 0.01172 0.3112 0.0
C586 C 0.01393 0.26953 0.23691 0.0
C587 C 0.0311 0.28364 0.26213 0.0
H588 H 0.02602 0.24123 0.22106 0.0
C589 C 0.07835 0.27985 0.29033 0.0
H590 H 0.97766 0.27196 0.21489 0.0
C591 C 0.10587 0.26212 0.29404 0.0
C592 C 0.08648 0.24784 0.26968 0.0
H593 H 0.09236 0.29038 0.31038 0.0
H594 H 0.14134 0.25952 0.31637 0.0
C595 C 0.04113 0.25183 0.24072 0.0
C596 C 0.32429 0.22098 0.04283 0.0
C597 C 0.28578 0.21741 0.0107 0.0
H598 H 0.37478 0.24137 0.07624 0.0
C599 C 0.27127 0.23213 0.98648 0.0
H600 H 0.33584 0.20999 0.06228 0.0
C601 C 0.29228 0.25008 0.9949 0.0
C602 C 0.32896 0.25375 0.02755 0.0
H603 H 0.24156 0.22992 0.96156 0.0
H604 H 0.27956 0.26109 0.97573 0.0
C605 C 0.34592 0.23898 0.0511 0.0
C606 C 0.08723 0.98598 0.01514 0.0
C607 C 0.06614 -0.00173 0.0432 0.0
H608 H 0.06128 0.9627 0.98106 0.0
C609 C 0.00325 0.99541 0.0606 0.0
H610 H 0.13575 0.98776 1.00144 0.0
C611 C 0.96107 0.98102 0.04925 0.0
C612 C 0.98068 0.9692 0.02008 0.0
H613 H 0.98592 0.00448 0.08267 0.0
H614 H 0.91215 0.97952 0.06266 0.0
C615 C 0.04477 0.97157 1.00362 0.0
C616 C 0.77465 0.02532 0.76093 0.0
C617 C 0.74731 0.02396 0.79702 0.0
H618 H 0.81201 0.01094 0.71298 0.0
C619 C 0.739 0.00631 0.81284 0.0
H620 H 0.78119 0.03868 0.74772 0.0
C621 C 0.75526 0.99041 0.79259 0.0
C622 C 0.78089 0.99176 0.75615 0.0
H623 H 0.71783 0.00471 0.84048 0.0
H624 H 0.74797 0.97706 0.80567 0.0
C625 C 0.7914 0.0094 0.74076 0.0
C626 C 0.90118 0.73255 0.68815 0.0
C627 C 0.9496 0.72911 0.71594 0.0
H628 H 0.8376 0.75255 0.66156 0.0
C629 C 0.97075 0.7438 0.73877 0.0
H630 H 0.88426 0.72158 0.66983 0.0
C631 C 0.94467 0.76157 0.7337 0.0
C632 C 0.89674 0.76508 0.70571 0.0
H633 H 0.00829 0.74167 0.76027 0.0
H634 H 0.96192 0.77254 0.75197 0.0
C635 C 0.87502 0.75036 0.68309 0.0
C636 C 0.72486 0.71872 0.96948 0.0
C637 C 0.68545 0.71601 0.93733 0.0
H638 H 0.77499 0.73823 1.00515 0.0
C639 C 0.66776 0.73147 0.91579 0.0
H640 H 0.73882 0.70714 0.98694 0.0
C641 C 0.68728 0.74923 0.92664 0.0
C642 C 0.72548 0.75201 0.95915 0.0
H643 H 0.63718 0.72994 0.89099 0.0
H644 H 0.67251 0.7608 0.90932 0.0
C645 C 0.74491 0.73655 0.98021 0.0
C646 C 0.1815 0.50233 0.78799 0.0
C647 C 0.20193 0.51529 0.7611 0.0
H648 H 0.21143 0.48089 0.8253 0.0
C649 C 0.27106 0.51683 0.75209 0.0
H650 H 0.1286 0.50082 0.79561 0.0
C651 C 0.31863 0.50535 0.76913 0.0
C652 C 0.29792 0.49214 0.79545 0.0
H653 H 0.28837 0.5267 0.7315 0.0
H654 H 0.37149 0.50669 0.7613 0.0
C655 C 0.22898 0.49088 0.805 0.0
C656 C 0.16308 0.75213 0.42488 0.0
C657 C 0.21072 0.7556 0.45308 0.0
H658 H 0.09978 0.73219 0.39782 0.0
C659 C 0.2324 0.74085 0.47548 0.0
H660 H 0.1458 0.76315 0.40685 0.0
C661 C 0.20647 0.72305 0.47003 0.0
C662 C 0.1583 0.71961 0.44207 0.0
H663 H 0.26948 0.74302 0.49722 0.0
H664 H 0.22343 0.71205 0.4882 0.0
C665 C 0.1372 0.73433 0.41941 0.0
C666 C 0.97231 0.49031 0.55912 0.0
C667 C 0.98189 0.47156 0.5502 0.0
H668 H 0.98053 0.51842 0.54133 0.0
C669 C 0.01128 0.467 0.51569 0.0
H670 H 0.94956 0.49435 0.58534 0.0
C671 C 0.02883 0.48085 0.49027 0.0
C672 C 0.017 0.49957 0.49869 0.0
H673 H 0.01893 0.45268 0.5078 0.0
H674 H 0.05125 0.47687 0.46393 0.0
C675 C 0.98915 0.50413 0.53357 0.0
C676 C 0.68001 0.50832 0.29148 0.0
C677 C 0.70008 0.52127 0.2645 0.0
H678 H 0.7095 0.48617 0.32711 0.0
C679 C 0.76864 0.5222 0.25394 0.0
H680 H 0.62761 0.50728 0.30032 0.0
C681 C 0.81582 0.51 0.26932 0.0
C682 C 0.79515 0.49669 0.29548 0.0
H683 H 0.78564 0.53204 0.2332 0.0
H684 H 0.86812 0.51079 0.26023 0.0
C685 C 0.72699 0.49617 0.30678 0.0
C686 C 0.84113 0.24129 0.55427 0.0
C687 C 0.82612 0.25613 0.53048 0.0
H688 H 0.82762 0.21244 0.56581 0.0
C689 C 0.78906 0.25267 0.49786 0.0
H690 H 0.8702 0.24349 0.57941 0.0
C691 C 0.76582 0.23489 0.48969 0.0
C692 C 0.77858 0.22013 0.5141 0.0
H693 H 0.77767 0.26373 0.47855 0.0
H694 H 0.73592 0.23286 0.46479 0.0
C695 C 0.8174 0.22346 0.54622 0.0
C696 C 0.5791 0.27687 0.79352 0.0
C697 C 0.53412 0.28065 0.7642 0.0
H698 H 0.63928 0.25648 0.82137 0.0
C699 C 0.51743 0.26637 0.73926 0.0
H700 H 0.59261 0.28752 0.81339 0.0
C701 C 0.54309 0.24858 0.74426 0.0
C702 C 0.58654 0.24466 0.77411 0.0
H703 H 0.48277 0.26876 0.71645 0.0
H704 H 0.5286 0.23789 0.72466 0.0
C705 C 0.60526 0.25904 0.79835 0.0
C706 C 0.57592 0.98904 0.51519 0.0
C707 C 0.55543 0.00176 0.54259 0.0
H708 H 0.54879 0.96549 0.4822 0.0
C709 C 0.4919 -0.00046 0.55969 0.0
H710 H 0.62488 0.99033 0.50174 0.0
C711 C 0.44872 0.98528 0.54877 0.0
C712 C 0.46802 0.97295 0.52041 0.0
H713 H 0.47494 0.00898 0.5812 0.0
H714 H 0.3994 0.98425 0.56192 0.0
C715 C 0.53253 0.97476 0.50417 0.0
C716 C 0.49872 0.7504 0.21947 0.0
C717 C 0.47476 0.73643 0.19567 0.0
H718 H 0.49579 0.77908 0.23426 0.0
C719 C 0.42963 0.74118 0.16703 0.0
H720 H 0.534 0.74723 0.24158 0.0
C721 C 0.40838 0.75947 0.16251 0.0
C722 C 0.4316 0.77342 0.1866 0.0
H723 H 0.41076 0.73079 0.14792 0.0
H724 H 0.37268 0.76258 0.14055 0.0
C725 C 0.47733 0.7687 0.215 0.0
C726 C 0.48342 0.48645 0.06387 0.0
C727 C 0.49051 0.46774 0.05405 0.0
H728 H 0.49403 0.51464 0.04728 0.0
C729 C 0.51929 0.46332 0.01927 0.0
H730 H 0.46143 0.49041 0.09034 0.0
C731 C 0.5382 0.47731 0.99437 0.0
C732 C 0.5279 0.49599 1.00357 0.0
H733 H 0.52512 0.44903 0.01071 0.0
H734 H 0.55961 0.47348 0.96768 0.0
C735 C 0.5012 0.50038 0.03882 0.0
C736 C 0.04709 0.14313 0.28736 0.0
C737 C 0.1018 0.1522 0.30442 0.0
H738 H -0.00951 0.11802 0.28178 0.0
C739 C 0.13959 0.14271 0.33149 0.0
H740 H 0.01689 0.15009 0.26651 0.0
C741 C 0.12507 0.12422 0.33989 0.0
C742 C 0.07187 0.11495 0.3218 0.0
H743 H 0.18219 0.14931 0.34509 0.0
H744 H 0.15643 0.11708 0.35995 0.0
C745 C 0.03197 0.12474 0.29615 0.0
C746 C 0.06109 0.11687 0.04249 0.0
C747 C 0.10606 0.12594 0.01817 0.0
H748 H 0.03861 0.09225 0.07318 0.0
C749 C 0.16195 0.11617 1.00398 0.0
H750 H 0.01745 0.12398 0.0539 0.0
C751 C 0.1737 0.09787 0.01482 0.0
C752 C 0.13023 0.08909 0.04039 0.0
H753 H 0.19733 0.12277 0.98509 0.0
H754 H 0.21806 0.09083 1.00409 0.0
C755 C 0.07326 0.09868 0.05365 0.0
C756 C 0.8288 0.8918 0.67849 0.0
C757 C 0.8878 0.89785 0.69668 0.0
H758 H 0.76391 0.86873 0.66578 0.0
C759 C 0.9281 0.88484 0.71538 0.0
H760 H 0.79701 0.90153 0.66373 0.0
C761 C 0.90873 0.8663 0.71705 0.0
C762 C 0.84945 0.86024 0.69935 0.0
H763 H 0.97381 0.88906 0.72973 0.0
H764 H 0.93996 0.85671 0.73255 0.0
C765 C 0.81018 0.87306 0.67943 0.0
C766 C 0.69749 0.87768 0.96391 0.0
C767 C 0.74051 0.88812 0.98692 0.0
H768 H 0.67079 0.85076 0.9437 0.0
C769 C 0.78488 0.87884 0.01104 0.0
H770 H 0.66242 0.88441 0.94518 0.0
C771 C 0.78885 0.85952 0.01063 0.0
C772 C 0.74925 0.84916 0.98567 0.0
H773 H 0.81811 0.88652 0.02941 0.0
H774 H 0.82574 0.85281 0.02832 0.0
C775 C 0.70217 0.85839 0.9631 0.0
C776 C 0.03848 0.60437 0.73083 0.0
C777 C 0.07899 0.59375 0.70665 0.0
H778 H 0.01742 0.63138 0.75309 0.0
C779 C 0.1312 0.60248 0.68673 0.0
H780 H -0.00225 0.59799 0.74652 0.0
C781 C 0.14284 0.62139 0.6908 0.0
C782 C 0.10205 0.63212 0.71456 0.0
H783 H 0.16351 0.5947 0.66801 0.0
H784 H 0.18353 0.62763 0.67485 0.0
C785 C 0.04962 0.62345 0.73456 0.0
C786 C 0.06054 0.61297 0.41923 0.0
C787 C 0.09743 0.6254 0.4415 0.0
H788 H 0.0486 0.58479 0.40113 0.0
C789 C 0.15359 0.61891 0.46144 0.0
H790 H 0.01673 0.61762 0.40376 0.0
C791 C 0.17236 0.60034 0.45945 0.0
C792 C 0.1345 0.58774 0.43812 0.0
H793 H 0.18301 0.6282 0.47876 0.0
H794 H 0.21571 0.59578 0.47542 0.0
C795 C 0.07846 0.59421 0.41791 0.0
C796 C 0.90081 0.38418 0.26932 0.0
C797 C 0.84675 0.37424 0.28519 0.0
H798 H 0.95738 0.40953 0.26865 0.0
C799 C 0.80555 0.38298 0.31188 0.0
H800 H 0.93334 0.37784 0.24863 0.0
C801 C 0.81974 0.40097 0.32364 0.0
C802 C 0.87494 0.41073 0.30864 0.0
H803 H 0.76344 0.37572 0.32466 0.0
H804 H 0.78795 0.40713 0.3449 0.0
C805 C 0.91453 0.40232 0.28079 0.0
C806 C 0.87703 0.3617 0.59863 0.0
C807 C 0.8389 0.35208 0.57181 0.0
H808 H 0.89501 0.38756 0.62628 0.0
C809 C 0.78473 0.36115 0.55438 0.0
H810 H 0.91929 0.35511 0.61245 0.0
C811 C 0.77039 0.37964 0.56262 0.0
C812 C 0.81065 0.38955 0.588 0.0
H813 H 0.75433 0.35408 0.53369 0.0
H814 H 0.72928 0.38635 0.54798 0.0
C815 C 0.86339 0.38031 0.60641 0.0
C816 C 0.63635 0.1206 0.84178 0.0
C817 C 0.58149 0.11132 0.8253 0.0
H818 H 0.69341 0.14578 0.8455 0.0
C819 C 0.53907 0.12109 0.80087 0.0
H820 H 0.6697 0.11347 0.86086 0.0
C821 C 0.55304 0.1395 0.79174 0.0
C822 C 0.60907 0.14862 0.80731 0.0
H823 H 0.49631 0.11434 0.78771 0.0
H824 H 0.52071 0.14646 0.77188 0.0
C825 C 0.64968 0.13914 0.83311 0.0
C826 C 0.5557 0.11982 0.54612 0.0
C827 C 0.59937 0.12888 0.52108 0.0
H828 H 0.53479 0.09521 0.57716 0.0
C829 C 0.65465 0.11914 0.50614 0.0
H830 H 0.51259 0.12693 0.55814 0.0
C831 C 0.66697 0.10084 0.51682 0.0
C832 C 0.62473 0.09205 0.543 0.0
H833 H 0.68905 0.12574 0.4867 0.0
H834 H 0.71076 0.0938 0.50541 0.0
C835 C 0.56849 0.10165 0.55714 0.0
C836 C 0.45296 0.89373 0.20851 0.0
C837 C 0.41211 0.90689 0.1906 0.0
H838 H 0.46744 0.86528 0.22268 0.0
C839 C 0.35514 0.90082 0.17056 0.0
H840 H 0.49718 0.89794 0.22421 0.0
C841 C 0.33882 0.88193 0.16909 0.0
C842 C 0.37839 0.86893 0.18834 0.0
H843 H 0.32295 0.91066 0.15635 0.0
H844 H 0.29394 0.87759 0.15411 0.0
C845 C 0.4359 0.87501 0.2077 0.0
C846 C 0.19853 0.88081 0.45603 0.0
C847 C 0.24084 0.89103 0.47982 0.0
H848 H 0.17327 0.85417 0.43394 0.0
C849 C 0.28651 0.88155 0.50287 0.0
H850 H 0.16252 0.8877 0.43808 0.0
C851 C 0.29199 0.86228 0.50087 0.0
C852 C 0.25251 0.85219 0.47542 0.0
H853 H 0.3193 0.88904 0.52177 0.0
H854 H 0.32945 0.85543 0.51796 0.0
C855 C 0.20461 0.86159 0.45368 0.0
C856 C 0.44945 0.62995 0.18909 0.0
C857 C 0.49785 0.63863 0.21182 0.0
H858 H 0.40403 0.60447 0.17177 0.0
C859 C 0.53463 0.62785 0.23727 0.0
H860 H 0.4201 0.63788 0.16932 0.0
C861 C 0.52602 0.60865 0.23836 0.0
C862 C 0.47991 0.59988 0.21434 0.0
H863 H 0.57237 0.63412 0.25515 0.0
H864 H 0.5568 0.60063 0.25733 0.0
C865 C 0.44031 0.61078 0.19048 0.0
C866 C 0.57593 0.61164 0.9053 0.0
C867 C 0.53336 0.62101 0.93041 0.0
H868 H 0.62683 0.58617 0.89215 0.0
C869 C 0.50688 0.6114 0.96114 0.0
H870 H 0.59676 0.61873 0.88132 0.0
C871 C 0.52506 0.59305 0.96768 0.0
C872 C 0.56854 0.58377 0.94307 0.0
H873 H 0.47409 0.61827 0.98103 0.0
H874 H 0.5059 0.58619 0.99236 0.0
C875 C 0.59266 0.59303 0.91133 0.0
C876 C 0.4294 0.3998 0.78354 0.0
C877 C 0.38879 0.40793 0.81129 0.0
H878 H 0.44845 0.37578 0.75001 0.0
C879 C 0.33291 0.39807 0.82518 0.0
H880 H 0.47283 0.40709 0.77228 0.0
C881 C 0.3185 0.38031 0.81211 0.0
C882 C 0.36018 0.37192 0.7852 0.0
H883 H 0.30039 0.40401 0.84636 0.0
H884 H 0.27554 0.373 0.82386 0.0
C885 C 0.41548 0.38189 0.77078 0.0
C886 C 0.26948 0.37772 0.06228 0.0
C887 C 0.31024 0.38725 0.08802 0.0
H888 H 0.25262 0.35258 0.03205 0.0
C889 C 0.36295 0.37768 0.10579 0.0
H890 H 0.22836 0.38468 0.04814 0.0
C891 C 0.37623 0.35917 0.09692 0.0
C892 C 0.33771 0.34997 0.06968 0.0
H893 H 0.39496 0.38461 0.12591 0.0
H894 H 0.41855 0.35235 0.11024 0.0
C895 C 0.28339 0.35932 0.05301 0.0
C896 C 0.95483 0.04652 0.45366 0.0
C897 C 0.97973 0.0314 0.43317 0.0
H898 H 0.89057 0.05577 0.49782 0.0
C899 C 0.96081 0.0134 0.44382 0.0
H900 H 0.96914 0.06055 0.44644 0.0
C901 C 0.91507 0.01064 0.47318 0.0
C902 C 0.88848 0.02582 0.49288 0.0
H903 H 0.9795 0.00147 0.42869 0.0
H904 H 0.89925 0.99666 0.47983 0.0
C905 C 0.91025 0.04375 0.48338 0.0
C906 C 0.4059 0.22964 0.38159 0.0
C907 C 0.37944 0.21423 0.36257 0.0
H908 H 0.4739 0.23945 0.42368 0.0
C909 C 0.40314 0.19648 0.3718 0.0
H910 H 0.38859 0.24349 0.37517 0.0
C911 C 0.45093 0.19414 0.40002 0.0
C912 C 0.47696 0.20952 0.41928 0.0
H913 H 0.38348 0.1843 0.35789 0.0
H914 H 0.46758 0.18025 0.40667 0.0
C915 C 0.45461 0.22732 0.40945 0.0
C916 C 0.91329 0.22705 0.88027 0.0
C917 C 0.88559 0.21168 0.86164 0.0
H918 H 0.98326 0.23673 0.9215 0.0
C919 C 0.90926 0.19389 0.87055 0.0
H920 H 0.89603 0.24093 0.87407 0.0
C921 C 0.95814 0.19146 0.89816 0.0
C922 C 0.98531 0.20679 0.91709 0.0
H923 H 0.8887 0.18174 0.85692 0.0
H924 H 0.97467 0.17754 0.90463 0.0
C925 C 0.96309 0.22464 0.9075 0.0
C926 C 0.41962 0.0411 0.98596 0.0
C927 C 0.39839 0.02322 0.99621 0.0
H928 H 0.47788 0.05766 0.9483 0.0
C929 C 0.4256 0.00791 0.97719 0.0
H930 H 0.39951 0.05322 0.99988 0.0
C931 C 0.47114 0.01047 0.94767 0.0
C932 C 0.48938 0.02841 0.9362 0.0
H933 H 0.4103 0.99396 0.98445 0.0
H934 H 0.49018 -0.00157 0.93304 0.0
C935 C 0.46409 0.04367 0.95611 0.0
C936 C 0.1247 0.99016 0.5755 0.0
C937 C 0.13211 0.97387 0.55439 0.0
H938 H 0.07455 0.00349 0.6213 0.0
C939 C 0.08992 0.95867 0.56229 0.0
H940 H 0.15636 0.00212 0.57005 0.0
C941 C 0.04423 0.95935 0.59191 0.0
C942 C 0.03878 0.97533 0.61404 0.0
H943 H 0.09414 0.9459 0.54663 0.0
H944 H 0.01392 0.94718 0.59786 0.0
C945 C 0.07803 0.99094 0.60491 0.0
C946 C 0.61506 0.7978 0.56676 0.0
C947 C 0.60869 0.79953 0.60559 0.0
H948 H 0.56426 0.79565 0.51435 0.0
C949 C 0.54353 0.79977 0.62141 0.0
H950 H 0.66453 0.79752 0.55364 0.0
C951 C 0.48605 0.79866 0.59885 0.0
C952 C 0.49239 0.79731 0.55996 0.0
H953 H 0.5368 0.80103 0.65122 0.0
H954 H 0.43659 0.79913 0.61195 0.0
C955 C 0.55757 0.79671 0.54419 0.0
C956 C 0.09789 0.77457 0.10393 0.0
C957 C 0.12575 0.79231 0.10921 0.0
H958 H 0.02271 0.7581 0.07643 0.0
C959 C 0.09865 0.80728 0.08927 0.0
H960 H 0.11768 0.76274 0.11885 0.0
C961 C 0.04495 0.80457 0.06456 0.0
C962 C 0.01651 0.78687 0.05961 0.0
H963 H 0.11924 0.8211 0.09252 0.0
H964 H 0.02506 0.81642 0.04977 0.0
C965 C 0.04353 0.7719 0.07959 0.0
C966 C 0.65123 0.98009 0.08947 0.0
C967 C 0.6449 0.97143 0.05458 0.0
H968 H 0.60449 0.9862 0.14187 0.0
C969 C 0.58191 0.96392 0.04439 0.0
H970 H 0.69903 0.98605 0.09819 0.0
C971 C 0.52749 0.96417 0.06937 0.0
C972 C 0.5353 0.97171 0.10521 0.0
H973 H 0.57533 0.95724 0.01764 0.0
H974 H 0.48029 0.9577 0.06115 0.0
C975 C 0.59714 0.9801 0.11463 0.0
C976 C 0.83677 0.53015 0.8017 0.0
C977 C 0.85548 0.51409 0.78211 0.0
H978 H 0.78075 0.54173 0.847 0.0
C979 C 0.82693 0.49703 0.79275 0.0
H980 H 0.85803 0.5435 0.79445 0.0
C981 C 0.7815 0.49606 0.82281 0.0
C982 C 0.76542 0.51206 0.84334 0.0
H983 H 0.84023 0.48442 0.77811 0.0
H984 H 0.7604 0.48275 0.83055 0.0
C985 C 0.79297 0.52911 0.83215 0.0
C986 C 0.29982 0.68785 0.8012 0.0
C987 C 0.26765 0.70498 0.79575 0.0
H988 H 0.37633 0.67274 0.83008 0.0
C989 C 0.29102 0.72052 0.81553 0.0
H990 H 0.28299 0.67557 0.78655 0.0
C991 C 0.34514 0.7189 0.84045 0.0
C992 C 0.37628 0.70167 0.8464 0.0
H993 H 0.26727 0.73391 0.81196 0.0
H994 H 0.36191 0.73109 0.85542 0.0
C995 C 0.35317 0.68619 0.82637 0.0
C996 C 0.87115 0.68846 0.30433 0.0
C997 C 0.86518 0.68717 0.34324 0.0
H998 H 0.81979 0.69081 0.25214 0.0
C999 C 0.80033 0.68782 0.3594 0.0
H1000 H 0.92038 0.68805 0.29097 0.0
C1001 C 0.7427 0.68943 0.33711 0.0
C1002 C 0.74856 0.69042 0.29816 0.0
H1003 H 0.79392 0.6869 0.38927 0.0
H1004 H 0.69346 0.68969 0.35048 0.0
C1005 C 0.81348 0.69007 0.28203 0.0
C1006 C 0.32284 0.53115 0.2949 0.0
C1007 C 0.35438 0.51539 0.27983 0.0
H1008 H 0.25589 0.54204 0.33624 0.0
C1009 C 0.336 0.49784 0.29357 0.0
H1010 H 0.3356 0.54489 0.28505 0.0
C1011 C 0.28922 0.49619 0.32287 0.0
C1012 C 0.26135 0.5121 0.33944 0.0
H1013 H 0.35907 0.48543 0.28236 0.0
H1014 H 0.277 0.48256 0.33348 0.0
C1015 C 0.27751 0.52953 0.32455 0.0
C1016 C 0.17401 0.49253 0.24451 0.0
C1017 C 0.14303 0.47742 0.26247 0.0
H1018 H 0.24225 0.50157 0.2016 0.0
C1019 C 0.16174 0.4594 0.2518 0.0
H1020 H 0.16103 0.50659 0.25224 0.0
C1021 C 0.20692 0.45654 0.22234 0.0
C1022 C 0.23561 0.47161 0.20326 0.0
H1023 H 0.1389 0.44742 0.26493 0.0
H1024 H 0.21836 0.44246 0.21406 0.0
C1025 C 0.22039 0.48966 0.21544 0.0
C1026 C 0.65717 0.30285 0.19375 0.0
C1027 C 0.7199 0.30622 0.17646 0.0
H1028 H 0.55142 0.29748 0.18668 0.0
C1029 C 0.7236 0.30597 0.13738 0.0
H1030 H 0.65261 0.30287 0.22378 0.0
C1031 C 0.66552 0.30286 0.11605 0.0
C1032 C 0.60251 0.29992 0.13336 0.0
H1033 H 0.77122 0.30844 0.12317 0.0
H1034 H 0.66986 0.30308 0.08602 0.0
C1035 C 0.59915 0.29973 0.17243 0.0
C1036 C 0.14332 0.30629 0.63753 0.0
C1037 C 0.11634 0.28869 0.62968 0.0
H1038 H 0.21367 0.3222 0.66953 0.0
C1039 C 0.1427 0.2732 0.64831 0.0
H1040 H 0.12398 0.31853 0.62382 0.0
C1041 C 0.19461 0.27531 0.67445 0.0
C1042 C 0.22048 0.29297 0.68283 0.0
H1043 H 0.12295 0.25946 0.6429 0.0
H1044 H 0.21377 0.26313 0.68845 0.0
C1045 C 0.19446 0.30841 0.66396 0.0
C1046 C 0.66666 0.46022 0.7529 0.0
C1047 C 0.6437 0.47793 0.76317 0.0
H1048 H 0.72485 0.44404 0.71455 0.0
C1049 C 0.66883 0.49341 0.74377 0.0
H1050 H 0.64837 0.44798 0.76713 0.0
C1051 C 0.71354 0.49113 0.71373 0.0
C1052 C 0.73278 0.47331 0.70201 0.0
H1053 H 0.65244 0.50725 0.75113 0.0
H1054 H 0.73081 0.50328 0.69878 0.0
C1055 C 0.71008 0.45794 0.72248 0.0
loop_
_geom_bond_atom_site_label_1
_geom_bond_atom_site_label_2
_geom_bond_distance
_geom_bond_site_symmetry_2
_ccdc_geom_bond_type
C0 O1 1.160 1_655 S
C0 O7 1.185 . S
O1 C0 1.160 1_455 S
O2 Zn3 1.899 . S
O2 C10 1.284 . S
Zn3 O2 1.899 . S
Zn3 O4 2.032 . S
Zn3 O7 2.086 1_455 S
Zn3 O12 1.977 . S
O4 Zn3 2.032 . S
O4 C8 1.278 . S
C5 O6 1.203 . S
C5 O12 1.267 . S
O6 C5 1.203 . S
O7 C0 1.185 . S
O7 Zn3 2.086 1_655 S
C8 O4 1.278 . S
C8 O9 1.211 . S
O9 C8 1.211 . S
C10 O2 1.284 . S
C10 O11 1.273 . S
O11 C10 1.273 . S
O12 Zn3 1.977 . S
O12 C5 1.267 . S
C13 O14 1.160 . S
C13 O20 1.185 . S
O14 C13 1.160 . S
O15 Zn16 1.899 . S
O15 C23 1.284 . S
Zn16 O15 1.899 . S
Zn16 O17 2.032 . S
Zn16 O20 2.086 . S
Zn16 O25 1.977 . S
O17 Zn16 2.032 . S
O17 C21 1.278 . S
C18 O19 1.203 . S
C18 O25 1.267 . S
O19 C18 1.203 . S
O20 C13 1.185 . S
O20 Zn16 2.086 . S
C21 O17 1.278 . S
C21 O22 1.211 . S
O22 C21 1.211 . S
C23 O15 1.284 . S
C23 O24 1.273 . S
O24 C23 1.273 . S
O25 Zn16 1.977 . S
O25 C18 1.267 . S
C26 O27 1.160 1_655 S
C26 O33 1.185 . S
O27 C26 1.160 1_455 S
O28 Zn29 1.899 . S
O28 C36 1.284 . S
Zn29 O28 1.899 . S
Zn29 O30 2.032 . S
Zn29 O33 2.086 1_455 S
Zn29 O38 1.977 1_556 S
O30 Zn29 2.032 . S
O30 C34 1.278 . S
C31 O32 1.203 . S
C31 O38 1.267 . S
O32 C31 1.203 . S
O33 C26 1.185 . S
O33 Zn29 2.086 1_655 S
C34 O30 1.278 . S
C34 O35 1.211 1_556 S
O35 C34 1.211 1_554 S
C36 O28 1.284 . S
C36 O37 1.273 . S
O37 C36 1.273 . S
O38 Zn29 1.977 1_554 S
O38 C31 1.267 . S
C39 O40 1.160 . S
C39 O46 1.185 . S
O40 C39 1.160 . S
O41 Zn42 1.899 . S
O41 C49 1.284 . S
Zn42 O41 1.899 . S
Zn42 O43 2.032 . S
Zn42 O46 2.086 . S
Zn42 O51 1.977 1_556 S
O43 Zn42 2.032 . S
O43 C47 1.278 . S
C44 O45 1.203 . S
C44 O51 1.267 . S
O45 C44 1.203 . S
O46 C39 1.185 . S
O46 Zn42 2.086 . S
C47 O43 1.278 . S
C47 O48 1.211 1_556 S
O48 C47 1.211 1_554 S
C49 O41 1.284 . S
C49 O50 1.273 . S
O50 C49 1.273 . S
O51 Zn42 1.977 1_554 S
O51 C44 1.267 . S
C52 O53 1.160 1_455 S
C52 O59 1.185 . S
O53 C52 1.160 1_655 S
O54 Zn55 1.899 . S
O54 C62 1.284 . S
Zn55 O54 1.899 . S
Zn55 O56 2.032 . S
Zn55 O59 2.086 1_655 S
Zn55 O64 1.977 . S
O56 Zn55 2.032 . S
O56 C60 1.278 . S
C57 O58 1.203 . S
C57 O64 1.267 . S
O58 C57 1.203 . S
O59 C52 1.185 . S
O59 Zn55 2.086 1_455 S
C60 O56 1.278 . S
C60 O61 1.211 . S
O61 C60 1.211 . S
C62 O54 1.284 . S
C62 O63 1.273 . S
O63 C62 1.273 . S
O64 Zn55 1.977 . S
O64 C57 1.267 . S
C65 O66 1.160 . S
C65 O72 1.185 . S
O66 C65 1.160 . S
O67 Zn68 1.899 . S
O67 C75 1.284 . S
Zn68 O67 1.899 . S
Zn68 O69 2.032 . S
Zn68 O72 2.086 . S
Zn68 O77 1.977 . S
O69 Zn68 2.032 . S
O69 C73 1.278 . S
C70 O71 1.203 . S
C70 O77 1.267 . S
O71 C70 1.203 . S
O72 C65 1.185 . S
O72 Zn68 2.086 . S
C73 O69 1.278 . S
C73 O74 1.211 . S
O74 C73 1.211 . S
C75 O67 1.284 . S
C75 O76 1.273 . S
O76 C75 1.273 . S
O77 Zn68 1.977 . S
O77 C70 1.267 . S
C78 O79 1.160 1_455 S
C78 O85 1.185 . S
O79 C78 1.160 1_655 S
O80 Zn81 1.899 . S
O80 C88 1.284 . S
Zn81 O80 1.899 . S
Zn81 O82 2.032 . S
Zn81 O85 2.086 1_655 S
Zn81 O90 1.977 1_554 S
O82 Zn81 2.032 . S
O82 C86 1.278 . S
C83 O84 1.203 . S
C83 O90 1.267 . S
O84 C83 1.203 . S
O85 C78 1.185 . S
O85 Zn81 2.086 1_455 S
C86 O82 1.278 . S
C86 O87 1.211 1_554 S
O87 C86 1.211 1_556 S
C88 O80 1.284 . S
C88 O89 1.273 . S
O89 C88 1.273 . S
O90 Zn81 1.977 1_556 S
O90 C83 1.267 . S
C91 O92 1.160 . S
C91 O98 1.185 . S
O92 C91 1.160 . S
O93 Zn94 1.899 . S
O93 C101 1.284 . S
Zn94 O93 1.899 . S
Zn94 O95 2.032 . S
Zn94 O98 2.086 . S
Zn94 O103 1.977 1_554 S
O95 Zn94 2.032 . S
O95 C99 1.278 . S
C96 O97 1.203 . S
C96 O103 1.267 . S
O97 C96 1.203 . S
O98 C91 1.185 . S
O98 Zn94 2.086 . S
C99 O95 1.278 . S
C99 O100 1.211 1_554 S
O100 C99 1.211 1_556 S
C101 O93 1.284 . S
C101 O102 1.273 . S
O102 C101 1.273 . S
O103 Zn94 1.977 1_556 S
O103 C96 1.267 . S
C104 O105 1.160 1_655 S
C104 O111 1.185 . S
O105 C104 1.160 1_455 S
O106 Zn107 1.899 . S
O106 C114 1.284 . S
Zn107 O106 1.899 . S
Zn107 O108 2.032 . S
Zn107 O111 2.086 1_455 S
Zn107 O116 1.977 . S
O108 Zn107 2.032 . S
O108 C112 1.278 . S
C109 O110 1.203 . S
C109 O116 1.267 . S
O110 C109 1.203 . S
O111 C104 1.185 . S
O111 Zn107 2.086 1_655 S
C112 O108 1.278 . S
C112 O113 1.211 . S
O113 C112 1.211 . S
C114 O106 1.284 . S
C114 O115 1.273 . S
O115 C114 1.273 . S
O116 Zn107 1.977 . S
O116 C109 1.267 . S
C117 O118 1.160 . S
C117 O124 1.185 . S
O118 C117 1.160 . S
O119 Zn120 1.899 . S
O119 C127 1.284 . S
Zn120 O119 1.899 . S
Zn120 O121 2.032 . S
Zn120 O124 2.086 . S
Zn120 O129 1.977 . S
O121 Zn120 2.032 . S
O121 C125 1.278 . S
C122 O123 1.203 . S
C122 O129 1.267 . S
O123 C122 1.203 . S
O124 C117 1.185 . S
O124 Zn120 2.086 . S
C125 O121 1.278 . S
C125 O126 1.211 . S
O126 C125 1.211 . S
C127 O119 1.284 . S
C127 O128 1.273 . S
O128 C127 1.273 . S
O129 Zn120 1.977 . S
O129 C122 1.267 . S
C130 O131 1.160 1_655 S
C130 O137 1.185 . S
O131 C130 1.160 1_455 S
O132 Zn133 1.899 . S
O132 C140 1.284 . S
Zn133 O132 1.899 . S
Zn133 O134 2.032 . S
Zn133 O137 2.086 1_455 S
Zn133 O142 1.977 . S
O134 Zn133 2.032 . S
O134 C138 1.278 . S
C135 O136 1.203 . S
C135 O142 1.267 . S
O136 C135 1.203 . S
O137 C130 1.185 . S
O137 Zn133 2.086 1_655 S
C138 O134 1.278 . S
C138 O139 1.211 . S
O139 C138 1.211 . S
C140 O132 1.284 . S
C140 O141 1.273 . S
O141 C140 1.273 . S
O142 Zn133 1.977 . S
O142 C135 1.267 . S
C143 O144 1.160 . S
C143 O150 1.185 . S
O144 C143 1.160 . S
O145 Zn146 1.899 . S
O145 C153 1.284 . S
Zn146 O145 1.899 . S
Zn146 O147 2.032 . S
Zn146 O150 2.086 . S
Zn146 O155 1.977 . S
O147 Zn146 2.032 . S
O147 C151 1.278 . S
C148 O149 1.203 . S
C148 O155 1.267 . S
O149 C148 1.203 . S
O150 C143 1.185 . S
O150 Zn146 2.086 . S
C151 O147 1.278 . S
C151 O152 1.211 . S
O152 C151 1.211 . S
C153 O145 1.284 . S
C153 O154 1.273 . S
O154 C153 1.273 . S
O155 Zn146 1.977 . S
O155 C148 1.267 . S
C156 O157 1.160 1_455 S
C156 O163 1.185 . S
O157 C156 1.160 1_655 S
O158 Zn159 1.899 . S
O158 C166 1.284 . S
Zn159 O158 1.899 . S
Zn159 O160 2.032 . S
Zn159 O163 2.086 1_655 S
Zn159 O168 1.977 . S
O160 Zn159 2.032 . S
O160 C164 1.278 . S
C161 O162 1.203 . S
C161 O168 1.267 . S
O162 C161 1.203 . S
O163 C156 1.185 . S
O163 Zn159 2.086 1_455 S
C164 O160 1.278 . S
C164 O165 1.211 . S
O165 C164 1.211 . S
C166 O158 1.284 . S
C166 O167 1.273 . S
O167 C166 1.273 . S
O168 Zn159 1.977 . S
O168 C161 1.267 . S
C169 O170 1.160 . S
C169 O176 1.185 . S
O170 C169 1.160 . S
O171 Zn172 1.899 . S
O171 C179 1.284 . S
Zn172 O171 1.899 . S
Zn172 O173 2.032 . S
Zn172 O176 2.086 . S
Zn172 O181 1.977 . S
O173 Zn172 2.032 . S
O173 C177 1.278 . S
C174 O175 1.203 . S
C174 O181 1.267 . S
O175 C174 1.203 . S
O176 C169 1.185 . S
O176 Zn172 2.086 . S
C177 O173 1.278 . S
C177 O178 1.211 . S
O178 C177 1.211 . S
C179 O171 1.284 . S
C179 O180 1.273 . S
O180 C179 1.273 . S
O181 Zn172 1.977 . S
O181 C174 1.267 . S
C182 O183 1.160 1_455 S
C182 O189 1.185 . S
O183 C182 1.160 1_655 S
O184 Zn185 1.899 . S
O184 C192 1.284 . S
Zn185 O184 1.899 . S
Zn185 O186 2.032 . S
Zn185 O189 2.086 1_655 S
Zn185 O194 1.977 . S
O186 Zn185 2.032 . S
O186 C190 1.278 . S
C187 O188 1.203 . S
C187 O194 1.267 . S
O188 C187 1.203 . S
O189 C182 1.185 . S
O189 Zn185 2.086 1_455 S
C190 O186 1.278 . S
C190 O191 1.211 . S
O191 C190 1.211 . S
C192 O184 1.284 . S
C192 O193 1.273 . S
O193 C192 1.273 . S
O194 Zn185 1.977 . S
O194 C187 1.267 . S
C195 O196 1.160 . S
C195 O202 1.185 . S
O196 C195 1.160 . S
O197 Zn198 1.899 . S
O197 C205 1.284 . S
Zn198 O197 1.899 . S
Zn198 O199 2.032 . S
Zn198 O202 2.086 . S
Zn198 O207 1.977 . S
O199 Zn198 2.032 . S
O199 C203 1.278 . S
C200 O201 1.203 . S
C200 O207 1.267 . S
O201 C200 1.203 . S
O202 C195 1.185 . S
O202 Zn198 2.086 . S
C203 O199 1.278 . S
C203 O204 1.211 . S
O204 C203 1.211 . S
C205 O197 1.284 . S
C205 O206 1.273 . S
O206 C205 1.273 . S
O207 Zn198 1.977 . S
O207 C200 1.267 . S
C208 O209 1.160 . S
C208 O215 1.185 . S
O209 C208 1.160 . S
O210 Zn211 1.899 . S
O210 C218 1.284 . S
Zn211 O210 1.899 . S
Zn211 O212 2.032 . S
Zn211 O215 2.086 . S
Zn211 O220 1.977 . S
O212 Zn211 2.032 . S
O212 C216 1.278 . S
C213 O214 1.203 . S
C213 O220 1.267 . S
O214 C213 1.203 . S
O215 C208 1.185 . S
O215 Zn211 2.086 . S
C216 O212 1.278 . S
C216 O217 1.211 . S
O217 C216 1.211 . S
C218 O210 1.284 . S
C218 O219 1.273 . S
O219 C218 1.273 . S
O220 Zn211 1.977 . S
O220 C213 1.267 . S
C221 O222 1.160 . S
C221 O228 1.185 . S
O222 C221 1.160 . S
O223 Zn224 1.899 . S
O223 C231 1.284 . S
Zn224 O223 1.899 . S
Zn224 O225 2.032 . S
Zn224 O228 2.086 . S
Zn224 O233 1.977 . S
O225 Zn224 2.032 . S
O225 C229 1.278 . S
C226 O227 1.203 . S
C226 O233 1.267 . S
O227 C226 1.203 . S
O228 C221 1.185 . S
O228 Zn224 2.086 . S
C229 O225 1.278 . S
C229 O230 1.211 . S
O230 C229 1.211 . S
C231 O223 1.284 . S
C231 O232 1.273 . S
O232 C231 1.273 . S
O233 Zn224 1.977 . S
O233 C226 1.267 . S
C234 O235 1.160 . S
C234 O241 1.185 . S
O235 C234 1.160 . S
O236 Zn237 1.899 . S
O236 C244 1.284 . S
Zn237 O236 1.899 . S
Zn237 O238 2.032 . S
Zn237 O241 2.086 . S
Zn237 O246 1.977 . S
O238 Zn237 2.032 . S
O238 C242 1.278 . S
C239 O240 1.203 . S
C239 O246 1.267 . S
O240 C239 1.203 . S
O241 C234 1.185 . S
O241 Zn237 2.086 . S
C242 O238 1.278 . S
C242 O243 1.211 . S
O243 C242 1.211 . S
C244 O236 1.284 . S
C244 O245 1.273 . S
O245 C244 1.273 . S
O246 Zn237 1.977 . S
O246 C239 1.267 . S
C247 O248 1.160 . S
C247 O254 1.185 . S
O248 C247 1.160 . S
O249 Zn250 1.899 . S
O249 C257 1.284 . S
Zn250 O249 1.899 . S
Zn250 O251 2.032 . S
Zn250 O254 2.086 . S
Zn250 O259 1.977 . S
O251 Zn250 2.032 . S
O251 C255 1.278 . S
C252 O253 1.203 . S
C252 O259 1.267 . S
O253 C252 1.203 . S
O254 C247 1.185 . S
O254 Zn250 2.086 . S
C255 O251 1.278 . S
C255 O256 1.211 . S
O256 C255 1.211 . S
C257 O249 1.284 . S
C257 O258 1.273 . S
O258 C257 1.273 . S
O259 Zn250 1.977 . S
O259 C252 1.267 . S
C260 O261 1.160 . S
C260 O267 1.185 . S
O261 C260 1.160 . S
O262 Zn263 1.899 . S
O262 C270 1.284 . S
Zn263 O262 1.899 . S
Zn263 O264 2.032 . S
Zn263 O267 2.086 . S
Zn263 O272 1.977 . S
O264 Zn263 2.032 . S
O264 C268 1.278 . S
C265 O266 1.203 . S
C265 O272 1.267 . S
O266 C265 1.203 . S
O267 C260 1.185 . S
O267 Zn263 2.086 . S
C268 O264 1.278 . S
C268 O269 1.211 . S
O269 C268 1.211 . S
C270 O262 1.284 . S
C270 O271 1.273 . S
O271 C270 1.273 . S
O272 Zn263 1.977 . S
O272 C265 1.267 . S
C273 O274 1.160 . S
C273 O280 1.185 . S
O274 C273 1.160 . S
O275 Zn276 1.899 . S
O275 C283 1.284 . S
Zn276 O275 1.899 . S
Zn276 O277 2.032 . S
Zn276 O280 2.086 . S
Zn276 O285 1.977 . S
O277 Zn276 2.032 . S
O277 C281 1.278 . S
C278 O279 1.203 . S
C278 O285 1.267 . S
O279 C278 1.203 . S
O280 C273 1.185 . S
O280 Zn276 2.086 . S
C281 O277 1.278 . S
C281 O282 1.211 . S
O282 C281 1.211 . S
C283 O275 1.284 . S
C283 O284 1.273 . S
O284 C283 1.273 . S
O285 Zn276 1.977 . S
O285 C278 1.267 . S
C286 O287 1.160 . S
C286 O293 1.185 . S
O287 C286 1.160 . S
O288 Zn289 1.899 . S
O288 C296 1.284 . S
Zn289 O288 1.899 . S
Zn289 O290 2.032 . S
Zn289 O293 2.086 . S
Zn289 O298 1.977 . S
O290 Zn289 2.032 . S
O290 C294 1.278 . S
C291 O292 1.203 . S
C291 O298 1.267 . S
O292 C291 1.203 . S
O293 C286 1.185 . S
O293 Zn289 2.086 . S
C294 O290 1.278 . S
C294 O295 1.211 . S
O295 C294 1.211 . S
C296 O288 1.284 . S
C296 O297 1.273 . S
O297 C296 1.273 . S
O298 Zn289 1.977 . S
O298 C291 1.267 . S
C299 O300 1.160 . S
C299 O306 1.185 . S
O300 C299 1.160 . S
O301 Zn302 1.899 . S
O301 C309 1.284 . S
Zn302 O301 1.899 . S
Zn302 O303 2.032 . S
Zn302 O306 2.086 . S
Zn302 O311 1.977 . S
O303 Zn302 2.032 . S
O303 C307 1.278 . S
C304 O305 1.203 . S
C304 O311 1.267 . S
O305 C304 1.203 . S
O306 C299 1.185 . S
O306 Zn302 2.086 . S
C307 O303 1.278 . S
C307 O308 1.211 . S
O308 C307 1.211 . S
C309 O301 1.284 . S
C309 O310 1.273 . S
O310 C309 1.273 . S
O311 Zn302 1.977 . S
O311 C304 1.267 . S
C312 O313 1.160 . S
C312 O319 1.185 . S
O313 C312 1.160 . S
O314 Zn315 1.899 . S
O314 C322 1.284 . S
Zn315 O314 1.899 . S
Zn315 O316 2.032 . S
Zn315 O319 2.086 . S
Zn315 O324 1.977 . S
O316 Zn315 2.032 . S
O316 C320 1.278 . S
C317 O318 1.203 . S
C317 O324 1.267 . S
O318 C317 1.203 . S
O319 C312 1.185 . S
O319 Zn315 2.086 . S
C320 O316 1.278 . S
C320 O321 1.211 . S
O321 C320 1.211 . S
C322 O314 1.284 . S
C322 O323 1.273 . S
O323 C322 1.273 . S
O324 Zn315 1.977 . S
O324 C317 1.267 . S
C325 O326 1.160 . S
C325 O332 1.185 . S
O326 C325 1.160 . S
O327 Zn328 1.899 . S
O327 C335 1.284 . S
Zn328 O327 1.899 . S
Zn328 O329 2.032 . S
Zn328 O332 2.086 . S
Zn328 O337 1.977 . S
O329 Zn328 2.032 . S
O329 C333 1.278 . S
C330 O331 1.203 . S
C330 O337 1.267 . S
O331 C330 1.203 . S
O332 C325 1.185 . S
O332 Zn328 2.086 . S
C333 O329 1.278 . S
C333 O334 1.211 . S
O334 C333 1.211 . S
C335 O327 1.284 . S
C335 O336 1.273 . S
O336 C335 1.273 . S
O337 Zn328 1.977 . S
O337 C330 1.267 . S
C338 O339 1.160 . S
C338 O345 1.185 . S
O339 C338 1.160 . S
O340 Zn341 1.899 . S
O340 C348 1.284 . S
Zn341 O340 1.899 . S
Zn341 O342 2.032 . S
Zn341 O345 2.086 . S
Zn341 O350 1.977 1_556 S
O342 Zn341 2.032 . S
O342 C346 1.278 . S
C343 O344 1.203 . S
C343 O350 1.267 . S
O344 C343 1.203 . S
O345 C338 1.185 . S
O345 Zn341 2.086 . S
C346 O342 1.278 . S
C346 O347 1.211 1_556 S
O347 C346 1.211 1_554 S
C348 O340 1.284 . S
C348 O349 1.273 . S
O349 C348 1.273 . S
O350 Zn341 1.977 1_554 S
O350 C343 1.267 . S
C351 O352 1.160 . S
C351 O358 1.185 . S
O352 C351 1.160 . S
O353 Zn354 1.899 . S
O353 C361 1.284 . S
Zn354 O353 1.899 . S
Zn354 O355 2.032 . S
Zn354 O358 2.086 . S
Zn354 O363 1.977 1_556 S
O355 Zn354 2.032 . S
O355 C359 1.278 . S
C356 O357 1.203 . S
C356 O363 1.267 . S
O357 C356 1.203 . S
O358 C351 1.185 . S
O358 Zn354 2.086 . S
C359 O355 1.278 . S
C359 O360 1.211 1_556 S
O360 C359 1.211 1_554 S
C361 O353 1.284 . S
C361 O362 1.273 . S
O362 C361 1.273 . S
O363 Zn354 1.977 1_554 S
O363 C356 1.267 . S
C364 O365 1.160 . S
C364 O371 1.185 . S
O365 C364 1.160 . S
O366 Zn367 1.899 . S
O366 C374 1.284 . S
Zn367 O366 1.899 . S
Zn367 O368 2.032 . S
Zn367 O371 2.086 . S
Zn367 O376 1.977 . S
O368 Zn367 2.032 . S
O368 C372 1.278 . S
C369 O370 1.203 . S
C369 O376 1.267 . S
O370 C369 1.203 . S
O371 C364 1.185 . S
O371 Zn367 2.086 . S
C372 O368 1.278 . S
C372 O373 1.211 . S
O373 C372 1.211 . S
C374 O366 1.284 . S
C374 O375 1.273 . S
O375 C374 1.273 . S
O376 Zn367 1.977 . S
O376 C369 1.267 . S
C377 O378 1.160 . S
C377 O384 1.185 . S
O378 C377 1.160 . S
O379 Zn380 1.899 . S
O379 C387 1.284 . S
Zn380 O379 1.899 . S
Zn380 O381 2.032 . S
Zn380 O384 2.086 . S
Zn380 O389 1.977 . S
O381 Zn380 2.032 . S
O381 C385 1.278 . S
C382 O383 1.203 . S
C382 O389 1.267 . S
O383 C382 1.203 . S
O384 C377 1.185 . S
O384 Zn380 2.086 . S
C385 O381 1.278 . S
C385 O386 1.211 . S
O386 C385 1.211 . S
C387 O379 1.284 . S
C387 O388 1.273 . S
O388 C387 1.273 . S
O389 Zn380 1.977 . S
O389 C382 1.267 . S
C390 O391 1.160 . S
C390 O397 1.185 . S
O391 C390 1.160 . S
O392 Zn393 1.899 . S
O392 C400 1.284 . S
Zn393 O392 1.899 . S
Zn393 O394 2.032 . S
Zn393 O397 2.086 . S
Zn393 O402 1.977 1_554 S
O394 Zn393 2.032 . S
O394 C398 1.278 . S
C395 O396 1.203 . S
C395 O402 1.267 . S
O396 C395 1.203 . S
O397 C390 1.185 . S
O397 Zn393 2.086 . S
C398 O394 1.278 . S
C398 O399 1.211 1_554 S
O399 C398 1.211 1_556 S
C400 O392 1.284 . S
C400 O401 1.273 . S
O401 C400 1.273 . S
O402 Zn393 1.977 1_556 S
O402 C395 1.267 . S
C403 O404 1.160 . S
C403 O410 1.185 . S
O404 C403 1.160 . S
O405 Zn406 1.899 . S
O405 C413 1.284 . S
Zn406 O405 1.899 . S
Zn406 O407 2.032 . S
Zn406 O410 2.086 . S
Zn406 O415 1.977 1_554 S
O407 Zn406 2.032 . S
O407 C411 1.278 . S
C408 O409 1.203 . S
C408 O415 1.267 . S
O409 C408 1.203 . S
O410 C403 1.185 . S
O410 Zn406 2.086 . S
C411 O407 1.278 . S
C411 O412 1.211 1_554 S
O412 C411 1.211 1_556 S
C413 O405 1.284 . S
C413 O414 1.273 . S
O414 C413 1.273 . S
O415 Zn406 1.977 1_556 S
O415 C408 1.267 . S
C416 C417 1.387 . S
C416 H420 0.950 . S
C416 C425 1.390 . S
C417 C416 1.387 . S
C417 C419 1.387 . S
H418 C425 0.950 . S
C419 C417 1.387 . S
C419 C421 1.390 . S
C419 H423 0.950 . S
H420 C416 0.950 . S
C421 C419 1.390 . S
C421 C422 1.387 . S
C421 H424 0.950 . S
C422 C421 1.387 . S
C422 C425 1.387 . S
H423 C419 0.950 . S
H424 C421 0.950 . S
C425 C416 1.390 . S
C425 H418 0.950 . S
C425 C422 1.387 . S
C426 C427 1.387 . S
C426 H430 0.950 . S
C426 C435 1.390 . S
C427 C426 1.387 . S
C427 C429 1.387 . S
H428 C435 0.950 . S
C429 C427 1.387 . S
C429 C431 1.390 . S
C429 H433 0.950 . S
H430 C426 0.950 . S
C431 C429 1.390 . S
C431 C432 1.387 . S
C431 H434 0.950 . S
C432 C431 1.387 . S
C432 C435 1.387 . S
H433 C429 0.950 . S
H434 C431 0.950 . S
C435 C426 1.390 . S
C435 H428 0.950 . S
C435 C432 1.387 . S
C436 C437 1.387 . S
C436 H440 0.950 . S
C436 C445 1.390 . S
C437 C436 1.387 . S
C437 C439 1.387 . S
H438 C445 0.950 . S
C439 C437 1.387 . S
C439 C441 1.390 . S
C439 H443 0.950 . S
H440 C436 0.950 . S
C441 C439 1.390 . S
C441 C442 1.387 . S
C441 H444 0.950 . S
C442 C441 1.387 . S
C442 C445 1.387 . S
H443 C439 0.950 . S
H444 C441 0.950 . S
C445 C436 1.390 . S
C445 H438 0.950 . S
C445 C442 1.387 . S
C446 C447 1.387 . S
C446 H450 0.950 . S
C446 C455 1.390 . S
C447 C446 1.387 . S
C447 C449 1.387 . S
H448 C455 0.950 . S
C449 C447 1.387 . S
C449 C451 1.390 . S
C449 H453 0.950 . S
H450 C446 0.950 . S
C451 C449 1.390 . S
C451 C452 1.387 . S
C451 H454 0.950 . S
C452 C451 1.387 . S
C452 C455 1.387 . S
H453 C449 0.950 . S
H454 C451 0.950 . S
C455 C446 1.390 . S
C455 H448 0.950 . S
C455 C452 1.387 . S
C456 C457 1.387 . S
C456 H460 0.950 . S
C456 C465 1.390 . S
C457 C456 1.387 . S
C457 C459 1.387 . S
H458 C465 0.950 . S
C459 C457 1.387 . S
C459 C461 1.390 . S
C459 H463 0.950 . S
H460 C456 0.950 . S
C461 C459 1.390 . S
C461 C462 1.387 . S
C461 H464 0.950 . S
C462 C461 1.387 . S
C462 C465 1.387 . S
H463 C459 0.950 . S
H464 C461 0.950 . S
C465 C456 1.390 . S
C465 H458 0.950 . S
C465 C462 1.387 . S
C466 C467 1.387 . S
C466 H470 0.950 . S
C466 C475 1.390 . S
C467 C466 1.387 . S
C467 C469 1.387 . S
H468 C475 0.950 . S
C469 C467 1.387 . S
C469 C471 1.390 . S
C469 H473 0.950 . S
H470 C466 0.950 . S
C471 C469 1.390 . S
C471 C472 1.387 . S
C471 H474 0.950 . S
C472 C471 1.387 . S
C472 C475 1.387 . S
H473 C469 0.950 . S
H474 C471 0.950 . S
C475 C466 1.390 . S
C475 H468 0.950 . S
C475 C472 1.387 . S
C476 C477 1.387 . S
C476 H480 0.950 . S
C476 C485 1.390 . S
C477 C476 1.387 . S
C477 C479 1.387 . S
H478 C485 0.950 . S
C479 C477 1.387 . S
C479 C481 1.390 . S
C479 H483 0.950 . S
H480 C476 0.950 . S
C481 C479 1.390 . S
C481 C482 1.387 . S
C481 H484 0.950 . S
C482 C481 1.387 . S
C482 C485 1.387 . S
H483 C479 0.950 . S
H484 C481 0.950 . S
C485 C476 1.390 . S
C485 H478 0.950 . S
C485 C482 1.387 . S
C486 C487 1.387 . S
C486 H490 0.950 . S
C486 C495 1.390 . S
C487 C486 1.387 . S
C487 C489 1.387 . S
H488 C495 0.950 . S
C489 C487 1.387 . S
C489 C491 1.390 . S
C489 H493 0.950 . S
H490 C486 0.950 . S
C491 C489 1.390 . S
C491 C492 1.387 . S
C491 H494 0.950 . S
C492 C491 1.387 . S
C492 C495 1.387 . S
H493 C489 0.950 . S
H494 C491 0.950 . S
C495 C486 1.390 . S
C495 H488 0.950 . S
C495 C492 1.387 . S
C496 C497 1.387 . S
C496 H500 0.950 . S
C496 C505 1.390 . S
C497 C496 1.387 . S
C497 C499 1.387 . S
H498 C505 0.950 . S
C499 C497 1.387 . S
C499 C501 1.390 . S
C499 H503 0.950 . S
H500 C496 0.950 . S
C501 C499 1.390 . S
C501 C502 1.387 . S
C501 H504 0.950 . S
C502 C501 1.387 . S
C502 C505 1.387 . S
H503 C499 0.950 . S
H504 C501 0.950 . S
C505 C496 1.390 . S
C505 H498 0.950 . S
C505 C502 1.387 . S
C506 C507 1.387 . S
C506 H510 0.950 . S
C506 C515 1.390 . S
C507 C506 1.387 . S
C507 C509 1.387 . S
H508 C515 0.950 . S
C509 C507 1.387 . S
C509 C511 1.390 . S
C509 H513 0.950 . S
H510 C506 0.950 . S
C511 C509 1.390 . S
C511 C512 1.387 . S
C511 H514 0.950 . S
C512 C511 1.387 . S
C512 C515 1.387 . S
H513 C509 0.950 . S
H514 C511 0.950 . S
C515 C506 1.390 . S
C515 H508 0.950 . S
C515 C512 1.387 . S
C516 C517 1.387 . S
C516 H520 0.950 . S
C516 C525 1.390 . S
C517 C516 1.387 . S
C517 C519 1.387 . S
H518 C525 0.950 . S
C519 C517 1.387 . S
C519 C521 1.390 . S
C519 H523 0.950 . S
H520 C516 0.950 . S
C521 C519 1.390 . S
C521 C522 1.387 . S
C521 H524 0.950 . S
C522 C521 1.387 . S
C522 C525 1.387 . S
H523 C519 0.950 . S
H524 C521 0.950 . S
C525 C516 1.390 . S
C525 H518 0.950 . S
C525 C522 1.387 . S
C526 C527 1.387 . S
C526 H530 0.950 . S
C526 C535 1.390 . S
C527 C526 1.387 . S
C527 C529 1.387 . S
H528 C535 0.950 . S
C529 C527 1.387 . S
C529 C531 1.390 . S
C529 H533 0.950 . S
H530 C526 0.950 . S
C531 C529 1.390 . S
C531 C532 1.387 . S
C531 H534 0.950 . S
C532 C531 1.387 . S
C532 C535 1.387 . S
H533 C529 0.950 . S
H534 C531 0.950 . S
C535 C526 1.390 . S
C535 H528 0.950 . S
C535 C532 1.387 . S
C536 C537 1.387 . S
C536 H540 0.950 . S
C536 C545 1.390 . S
C537 C536 1.387 . S
C537 C539 1.387 . S
H538 C545 0.950 . S
C539 C537 1.387 . S
C539 C541 1.390 . S
C539 H543 0.950 . S
H540 C536 0.950 . S
C541 C539 1.390 . S
C541 C542 1.387 . S
C541 H544 0.950 . S
C542 C541 1.387 . S
C542 C545 1.387 . S
H543 C539 0.950 . S
H544 C541 0.950 . S
C545 C536 1.390 . S
C545 H538 0.950 . S
C545 C542 1.387 . S
C546 C547 1.387 . S
C546 H550 0.950 . S
C546 C555 1.390 . S
C547 C546 1.387 . S
C547 C549 1.387 . S
H548 C555 0.950 . S
C549 C547 1.387 . S
C549 C551 1.390 . S
C549 H553 0.950 . S
H550 C546 0.950 . S
C551 C549 1.390 . S
C551 C552 1.387 . S
C551 H554 0.950 . S
C552 C551 1.387 . S
C552 C555 1.387 . S
H553 C549 0.950 . S
H554 C551 0.950 . S
C555 C546 1.390 . S
C555 H548 0.950 . S
C555 C552 1.387 . S
C556 C557 1.387 . S
C556 H560 0.950 . S
C556 C565 1.390 . S
C557 C556 1.387 . S
C557 C559 1.387 . S
H558 C565 0.950 . S
C559 C557 1.387 . S
C559 C561 1.390 . S
C559 H563 0.950 . S
H560 C556 0.950 . S
C561 C559 1.390 . S
C561 C562 1.387 . S
C561 H564 0.950 . S
C562 C561 1.387 . S
C562 C565 1.387 . S
H563 C559 0.950 . S
H564 C561 0.950 . S
C565 C556 1.390 . S
C565 H558 0.950 . S
C565 C562 1.387 . S
C566 C567 1.387 . S
C566 H570 0.950 . S
C566 C575 1.390 . S
C567 C566 1.387 . S
C567 C569 1.387 . S
H568 C575 0.950 . S
C569 C567 1.387 . S
C569 C571 1.390 . S
C569 H573 0.950 . S
H570 C566 0.950 . S
C571 C569 1.390 . S
C571 C572 1.387 . S
C571 H574 0.950 . S
C572 C571 1.387 . S
C572 C575 1.387 . S
H573 C569 0.950 . S
H574 C571 0.950 . S
C575 C566 1.390 . S
C575 H568 0.950 . S
C575 C572 1.387 . S
C576 C577 1.387 . S
C576 H580 0.950 . S
C576 C585 1.390 . S
C577 C576 1.387 . S
C577 C579 1.387 1_565 S
H578 C585 0.950 . S
C579 C577 1.387 1_545 S
C579 C581 1.390 . S
C579 H583 0.950 . S
H580 C576 0.950 . S
C581 C579 1.390 . S
C581 C582 1.387 . S
C581 H584 0.950 . S
C582 C581 1.387 . S
C582 C585 1.387 1_545 S
H583 C579 0.950 . S
H584 C581 0.950 . S
C585 C576 1.390 . S
C585 H578 0.950 . S
C585 C582 1.387 1_565 S
C586 C587 1.387 . S
C586 H590 0.950 . S
C586 C595 1.390 . S
C587 C586 1.387 . S
C587 C589 1.387 1_655 S
H588 C595 0.950 . S
C589 C587 1.387 1_455 S
C589 C591 1.390 . S
C589 H593 0.950 . S
H590 C586 0.950 . S
C591 C589 1.390 . S
C591 C592 1.387 . S
C591 H594 0.950 . S
C592 C591 1.387 . S
C592 C595 1.387 1_455 S
H593 C589 0.950 . S
H594 C591 0.950 . S
C595 C586 1.390 . S
C595 H588 0.950 . S
C595 C592 1.387 1_655 S
C596 C597 1.387 1_554 S
C596 H600 0.950 . S
C596 C605 1.390 . S
C597 C596 1.387 1_556 S
C597 C599 1.387 . S
H598 C605 0.950 . S
C599 C597 1.387 . S
C599 C601 1.390 . S
C599 H603 0.950 . S
H600 C596 0.950 . S
C601 C599 1.390 . S
C601 C602 1.387 1_556 S
C601 H604 0.950 . S
C602 C601 1.387 1_554 S
C602 C605 1.387 . S
H603 C599 0.950 . S
H604 C601 0.950 . S
C605 C596 1.390 . S
C605 H598 0.950 . S
C605 C602 1.387 . S
C606 C607 1.387 1_565 S
C606 H610 0.950 . S
C606 C615 1.403 . S
C607 C606 1.387 1_545 S
C607 C609 1.374 1_456 S
H608 C615 0.950 . S
C609 C607 1.374 1_654 S
C609 C611 1.403 . S
C609 H613 0.950 . S
H610 C606 0.950 . S
C611 C609 1.403 . S
C611 C612 1.387 1_545 S
C611 H614 0.950 . S
C612 C611 1.387 1_565 S
C612 C615 1.374 1_654 S
H613 C609 0.950 . S
H614 C611 0.950 . S
C615 C606 1.403 . S
C615 H608 0.950 . S
C615 C612 1.374 1_456 S
C616 C617 1.387 . S
C616 H620 0.950 . S
C616 C625 1.390 . S
C617 C616 1.387 . S
C617 C619 1.387 1_545 S
H618 C625 0.950 . S
C619 C617 1.387 1_565 S
C619 C621 1.390 . S
C619 H623 0.950 . S
H620 C616 0.950 . S
C621 C619 1.390 . S
C621 C622 1.387 . S
C621 H624 0.950 . S
C622 C621 1.387 . S
C622 C625 1.387 1_565 S
H623 C619 0.950 . S
H624 C621 0.950 . S
C625 C616 1.390 . S
C625 H618 0.950 . S
C625 C622 1.387 1_545 S
C626 C627 1.387 1_655 S
C626 H630 0.950 . S
C626 C635 1.390 . S
C627 C626 1.387 1_455 S
C627 C629 1.387 . S
H628 C635 0.950 . S
C629 C627 1.387 . S
C629 C631 1.390 . S
C629 H633 0.950 . S
H630 C626 0.950 . S
C631 C629 1.390 . S
C631 C632 1.387 1_455 S
C631 H634 0.950 . S
C632 C631 1.387 1_655 S
C632 C635 1.387 . S
H633 C629 0.950 . S
H634 C631 0.950 . S
C635 C626 1.390 . S
C635 H628 0.950 . S
C635 C632 1.387 . S
C636 C637 1.387 . S
C636 H640 0.950 . S
C636 C645 1.390 1_556 S
C637 C636 1.387 . S
C637 C639 1.387 . S
H638 C645 0.950 . S
C639 C637 1.387 . S
C639 C641 1.390 1_556 S
C639 H643 0.950 . S
H640 C636 0.950 . S
C641 C639 1.390 1_554 S
C641 C642 1.387 . S
C641 H644 0.950 . S
C642 C641 1.387 . S
C642 C645 1.387 . S
H643 C639 0.950 . S
H644 C641 0.950 . S
C645 C636 1.390 1_554 S
C645 H638 0.950 . S
C645 C642 1.387 . S
C646 C647 1.387 . S
C646 H650 0.950 . S
C646 C655 1.390 . S
C647 C646 1.387 . S
C647 C649 1.387 . S
H648 C655 0.950 . S
C649 C647 1.387 . S
C649 C651 1.390 . S
C649 H653 0.950 . S
H650 C646 0.950 . S
C651 C649 1.390 . S
C651 C652 1.387 . S
C651 H654 0.950 . S
C652 C651 1.387 . S
C652 C655 1.387 . S
H653 C649 0.950 . S
H654 C651 0.950 . S
C655 C646 1.390 . S
C655 H648 0.950 . S
C655 C652 1.387 . S
C656 C657 1.387 . S
C656 H660 0.950 . S
C656 C665 1.390 . S
C657 C656 1.387 . S
C657 C659 1.387 . S
H658 C665 0.950 . S
C659 C657 1.387 . S
C659 C661 1.390 . S
C659 H663 0.950 . S
H660 C656 0.950 . S
C661 C659 1.390 . S
C661 C662 1.387 . S
C661 H664 0.950 . S
C662 C661 1.387 . S
C662 C665 1.387 . S
H663 C659 0.950 . S
H664 C661 0.950 . S
C665 C656 1.390 . S
C665 H658 0.950 . S
C665 C662 1.387 . S
C666 C667 1.387 . S
C666 H670 0.950 . S
C666 C675 1.390 . S
C667 C666 1.387 . S
C667 C669 1.387 1_655 S
H668 C675 0.950 . S
C669 C667 1.387 1_455 S
C669 C671 1.390 . S
C669 H673 0.950 . S
H670 C666 0.950 . S
C671 C669 1.390 . S
C671 C672 1.387 . S
C671 H674 0.950 . S
C672 C671 1.387 . S
C672 C675 1.387 1_455 S
H673 C669 0.950 . S
H674 C671 0.950 . S
C675 C666 1.390 . S
C675 H668 0.950 . S
C675 C672 1.387 1_655 S
C676 C677 1.387 . S
C676 H680 0.950 . S
C676 C685 1.390 . S
C677 C676 1.387 . S
C677 C679 1.387 . S
H678 C685 0.950 . S
C679 C677 1.387 . S
C679 C681 1.390 . S
C679 H683 0.950 . S
H680 C676 0.950 . S
C681 C679 1.390 . S
C681 C682 1.387 . S
C681 H684 0.950 . S
C682 C681 1.387 . S
C682 C685 1.387 . S
H683 C679 0.950 . S
H684 C681 0.950 . S
C685 C676 1.390 . S
C685 H678 0.950 . S
C685 C682 1.387 . S
C686 C687 1.387 . S
C686 H690 0.950 . S
C686 C695 1.390 . S
C687 C686 1.387 . S
C687 C689 1.387 . S
H688 C695 0.950 . S
C689 C687 1.387 . S
C689 C691 1.390 . S
C689 H693 0.950 . S
H690 C686 0.950 . S
C691 C689 1.390 . S
C691 C692 1.387 . S
C691 H694 0.950 . S
C692 C691 1.387 . S
C692 C695 1.387 . S
H693 C689 0.950 . S
H694 C691 0.950 . S
C695 C686 1.390 . S
C695 H688 0.950 . S
C695 C692 1.387 . S
C696 C697 1.387 . S
C696 H700 0.950 . S
C696 C705 1.390 . S
C697 C696 1.387 . S
C697 C699 1.387 . S
H698 C705 0.950 . S
C699 C697 1.387 . S
C699 C701 1.390 . S
C699 H703 0.950 . S
H700 C696 0.950 . S
C701 C699 1.390 . S
C701 C702 1.387 . S
C701 H704 0.950 . S
C702 C701 1.387 . S
C702 C705 1.387 . S
H703 C699 0.950 . S
H704 C701 0.950 . S
C705 C696 1.390 . S
C705 H698 0.950 . S
C705 C702 1.387 . S
C706 C707 1.387 1_565 S
C706 H710 0.950 . S
C706 C715 1.390 . S
C707 C706 1.387 1_545 S
C707 C709 1.387 . S
H708 C715 0.950 . S
C709 C707 1.387 . S
C709 C711 1.390 . S
C709 H713 0.950 . S
H710 C706 0.950 . S
C711 C709 1.390 . S
C711 C712 1.387 1_545 S
C711 H714 0.950 . S
C712 C711 1.387 1_565 S
C712 C715 1.387 . S
H713 C709 0.950 . S
H714 C711 0.950 . S
C715 C706 1.390 . S
C715 H708 0.950 . S
C715 C712 1.387 . S
C716 C717 1.387 . S
C716 H720 0.950 . S
C716 C725 1.390 . S
C717 C716 1.387 . S
C717 C719 1.387 . S
H718 C725 0.950 . S
C719 C717 1.387 . S
C719 C721 1.390 . S
C719 H723 0.950 . S
H720 C716 0.950 . S
C721 C719 1.390 . S
C721 C722 1.387 . S
C721 H724 0.950 . S
C722 C721 1.387 . S
C722 C725 1.387 . S
H723 C719 0.950 . S
H724 C721 0.950 . S
C725 C716 1.390 . S
C725 H718 0.950 . S
C725 C722 1.387 . S
C726 C727 1.387 . S
C726 H730 0.950 . S
C726 C735 1.390 . S
C727 C726 1.387 . S
C727 C729 1.387 1_554 S
H728 C735 0.950 . S
C729 C727 1.387 1_556 S
C729 C731 1.390 . S
C729 H733 0.950 . S
H730 C726 0.950 . S
C731 C729 1.390 . S
C731 C732 1.387 . S
C731 H734 0.950 . S
C732 C731 1.387 . S
C732 C735 1.387 1_556 S
H733 C729 0.950 . S
H734 C731 0.950 . S
C735 C726 1.390 . S
C735 H728 0.950 . S
C735 C732 1.387 1_554 S
C736 C737 1.387 . S
C736 H740 0.950 . S
C736 C745 1.390 . S
C737 C736 1.387 . S
C737 C739 1.387 . S
H738 C745 0.950 . S
C739 C737 1.387 . S
C739 C741 1.390 . S
C739 H743 0.950 . S
H740 C736 0.950 . S
C741 C739 1.390 . S
C741 C742 1.387 . S
C741 H744 0.950 . S
C742 C741 1.387 . S
C742 C745 1.387 . S
H743 C739 0.950 . S
H744 C741 0.950 . S
C745 C736 1.390 . S
C745 H738 0.950 . S
C745 C742 1.387 . S
C746 C747 1.387 1_554 S
C746 H750 0.950 . S
C746 C755 1.390 . S
C747 C746 1.387 1_556 S
C747 C749 1.387 . S
H748 C755 0.950 . S
C749 C747 1.387 . S
C749 C751 1.390 . S
C749 H753 0.950 . S
H750 C746 0.950 . S
C751 C749 1.390 . S
C751 C752 1.387 . S
C751 H754 0.950 . S
C752 C751 1.387 . S
C752 C755 1.387 1_556 S
H753 C749 0.950 . S
H754 C751 0.950 . S
C755 C746 1.390 . S
C755 H748 0.950 . S
C755 C752 1.387 1_554 S
C756 C757 1.387 . S
C756 H760 0.950 . S
C756 C765 1.390 . S
C757 C756 1.387 . S
C757 C759 1.387 . S
H758 C765 0.950 . S
C759 C757 1.387 . S
C759 C761 1.390 . S
C759 H763 0.950 . S
H760 C756 0.950 . S
C761 C759 1.390 . S
C761 C762 1.387 . S
C761 H764 0.950 . S
C762 C761 1.387 . S
C762 C765 1.387 . S
H763 C759 0.950 . S
H764 C761 0.950 . S
C765 C756 1.390 . S
C765 H758 0.950 . S
C765 C762 1.387 . S
C766 C767 1.387 1_556 S
C766 H770 0.950 . S
C766 C775 1.390 . S
C767 C766 1.387 1_554 S
C767 C769 1.387 . S
H768 C775 0.950 . S
C769 C767 1.387 . S
C769 C771 1.390 . S
C769 H773 0.950 . S
H770 C766 0.950 . S
C771 C769 1.390 . S
C771 C772 1.387 . S
C771 H774 0.950 . S
C772 C771 1.387 . S
C772 C775 1.387 1_554 S
H773 C769 0.950 . S
H774 C771 0.950 . S
C775 C766 1.390 . S
C775 H768 0.950 . S
C775 C772 1.387 1_556 S
C776 C777 1.387 . S
C776 H780 0.950 . S
C776 C785 1.390 . S
C777 C776 1.387 . S
C777 C779 1.387 . S
H778 C785 0.950 . S
C779 C777 1.387 . S
C779 C781 1.390 . S
C779 H783 0.950 . S
H780 C776 0.950 . S
C781 C779 1.390 . S
C781 C782 1.387 . S
C781 H784 0.950 . S
C782 C781 1.387 . S
C782 C785 1.387 . S
H783 C779 0.950 . S
H784 C781 0.950 . S
C785 C776 1.390 . S
C785 H778 0.950 . S
C785 C782 1.387 . S
C786 C787 1.387 . S
C786 H790 0.950 . S
C786 C795 1.390 . S
C787 C786 1.387 . S
C787 C789 1.387 . S
H788 C795 0.950 . S
C789 C787 1.387 . S
C789 C791 1.390 . S
C789 H793 0.950 . S
H790 C786 0.950 . S
C791 C789 1.390 . S
C791 C792 1.387 . S
C791 H794 0.950 . S
C792 C791 1.387 . S
C792 C795 1.387 . S
H793 C789 0.950 . S
H794 C791 0.950 . S
C795 C786 1.390 . S
C795 H788 0.950 . S
C795 C792 1.387 . S
C796 C797 1.387 . S
C796 H800 0.950 . S
C796 C805 1.390 . S
C797 C796 1.387 . S
C797 C799 1.387 . S
H798 C805 0.950 . S
C799 C797 1.387 . S
C799 C801 1.390 . S
C799 H803 0.950 . S
H800 C796 0.950 . S
C801 C799 1.390 . S
C801 C802 1.387 . S
C801 H804 0.950 . S
C802 C801 1.387 . S
C802 C805 1.387 . S
H803 C799 0.950 . S
H804 C801 0.950 . S
C805 C796 1.390 . S
C805 H798 0.950 . S
C805 C802 1.387 . S
C806 C807 1.387 . S
C806 H810 0.950 . S
C806 C815 1.390 . S
C807 C806 1.387 . S
C807 C809 1.387 . S
H808 C815 0.950 . S
C809 C807 1.387 . S
C809 C811 1.390 . S
C809 H813 0.950 . S
H810 C806 0.950 . S
C811 C809 1.390 . S
C811 C812 1.387 . S
C811 H814 0.950 . S
C812 C811 1.387 . S
C812 C815 1.387 . S
H813 C809 0.950 . S
H814 C811 0.950 . S
C815 C806 1.390 . S
C815 H808 0.950 . S
C815 C812 1.387 . S
C816 C817 1.387 . S
C816 H820 0.950 . S
C816 C825 1.390 . S
C817 C816 1.387 . S
C817 C819 1.387 . S
H818 C825 0.950 . S
C819 C817 1.387 . S
C819 C821 1.390 . S
C819 H823 0.950 . S
H820 C816 0.950 . S
C821 C819 1.390 . S
C821 C822 1.387 . S
C821 H824 0.950 . S
C822 C821 1.387 . S
C822 C825 1.387 . S
H823 C819 0.950 . S
H824 C821 0.950 . S
C825 C816 1.390 . S
C825 H818 0.950 . S
C825 C822 1.387 . S
C826 C827 1.387 . S
C826 H830 0.950 . S
C826 C835 1.390 . S
C827 C826 1.387 . S
C827 C829 1.387 . S
H828 C835 0.950 . S
C829 C827 1.387 . S
C829 C831 1.390 . S
C829 H833 0.950 . S
H830 C826 0.950 . S
C831 C829 1.390 . S
C831 C832 1.387 . S
C831 H834 0.950 . S
C832 C831 1.387 . S
C832 C835 1.387 . S
H833 C829 0.950 . S
H834 C831 0.950 . S
C835 C826 1.390 . S
C835 H828 0.950 . S
C835 C832 1.387 . S
C836 C837 1.387 . S
C836 H840 0.950 . S
C836 C845 1.390 . S
C837 C836 1.387 . S
C837 C839 1.387 . S
H838 C845 0.950 . S
C839 C837 1.387 . S
C839 C841 1.390 . S
C839 H843 0.950 . S
H840 C836 0.950 . S
C841 C839 1.390 . S
C841 C842 1.387 . S
C841 H844 0.950 . S
C842 C841 1.387 . S
C842 C845 1.387 . S
H843 C839 0.950 . S
H844 C841 0.950 . S
C845 C836 1.390 . S
C845 H838 0.950 . S
C845 C842 1.387 . S
C846 C847 1.387 . S
C846 H850 0.950 . S
C846 C855 1.390 . S
C847 C846 1.387 . S
C847 C849 1.387 . S
H848 C855 0.950 . S
C849 C847 1.387 . S
C849 C851 1.390 . S
C849 H853 0.950 . S
H850 C846 0.950 . S
C851 C849 1.390 . S
C851 C852 1.387 . S
C851 H854 0.950 . S
C852 C851 1.387 . S
C852 C855 1.387 . S
H853 C849 0.950 . S
H854 C851 0.950 . S
C855 C846 1.390 . S
C855 H848 0.950 . S
C855 C852 1.387 . S
C856 C857 1.387 . S
C856 H860 0.950 . S
C856 C865 1.390 . S
C857 C856 1.387 . S
C857 C859 1.387 . S
H858 C865 0.950 . S
C859 C857 1.387 . S
C859 C861 1.390 . S
C859 H863 0.950 . S
H860 C856 0.950 . S
C861 C859 1.390 . S
C861 C862 1.387 . S
C861 H864 0.950 . S
C862 C861 1.387 . S
C862 C865 1.387 . S
H863 C859 0.950 . S
H864 C861 0.950 . S
C865 C856 1.390 . S
C865 H858 0.950 . S
C865 C862 1.387 . S
C866 C867 1.387 . S
C866 H870 0.950 . S
C866 C875 1.390 . S
C867 C866 1.387 . S
C867 C869 1.387 1_556 S
H868 C875 0.950 . S
C869 C867 1.387 1_554 S
C869 C871 1.390 . S
C869 H873 0.950 . S
H870 C866 0.950 . S
C871 C869 1.390 . S
C871 C872 1.387 1_554 S
C871 H874 0.950 . S
C872 C871 1.387 1_556 S
C872 C875 1.387 . S
H873 C869 0.950 . S
H874 C871 0.950 . S
C875 C866 1.390 . S
C875 H868 0.950 . S
C875 C872 1.387 . S
C876 C877 1.387 . S
C876 H880 0.950 . S
C876 C885 1.390 . S
C877 C876 1.387 . S
C877 C879 1.387 . S
H878 C885 0.950 . S
C879 C877 1.387 . S
C879 C881 1.390 . S
C879 H883 0.950 . S
H880 C876 0.950 . S
C881 C879 1.390 . S
C881 C882 1.387 . S
C881 H884 0.950 . S
C882 C881 1.387 . S
C882 C885 1.387 . S
H883 C879 0.950 . S
H884 C881 0.950 . S
C885 C876 1.390 . S
C885 H878 0.950 . S
C885 C882 1.387 . S
C886 C887 1.387 1_556 S
C886 H890 0.950 . S
C886 C895 1.390 . S
C887 C886 1.387 1_554 S
C887 C889 1.387 . S
H888 C895 0.950 . S
C889 C887 1.387 . S
C889 C891 1.390 . S
C889 H893 0.950 . S
H890 C886 0.950 . S
C891 C889 1.390 . S
C891 C892 1.387 . S
C891 H894 0.950 . S
C892 C891 1.387 . S
C892 C895 1.387 1_554 S
H893 C889 0.950 . S
H894 C891 0.950 . S
C895 C886 1.390 . S
C895 H888 0.950 . S
C895 C892 1.387 1_556 S
C896 C897 1.387 . S
C896 H900 0.950 . S
C896 C905 1.390 . S
C897 C896 1.387 . S
C897 C899 1.387 . S
H898 C905 0.950 . S
C899 C897 1.387 . S
C899 C901 1.390 . S
C899 H903 0.950 . S
H900 C896 0.950 . S
C901 C899 1.390 . S
C901 C902 1.387 . S
C901 H904 0.950 . S
C902 C901 1.387 . S
C902 C905 1.387 . S
H903 C899 0.950 . S
H904 C901 0.950 . S
C905 C896 1.390 . S
C905 H898 0.950 . S
C905 C902 1.387 . S
C906 C907 1.387 . S
C906 H910 0.950 . S
C906 C915 1.390 . S
C907 C906 1.387 . S
C907 C909 1.387 . S
H908 C915 0.950 . S
C909 C907 1.387 . S
C909 C911 1.390 . S
C909 H913 0.950 . S
H910 C906 0.950 . S
C911 C909 1.390 . S
C911 C912 1.387 . S
C911 H914 0.950 . S
C912 C911 1.387 . S
C912 C915 1.387 . S
H913 C909 0.950 . S
H914 C911 0.950 . S
C915 C906 1.390 . S
C915 H908 0.950 . S
C915 C912 1.387 . S
C916 C917 1.387 . S
C916 H920 0.950 . S
C916 C925 1.390 . S
C917 C916 1.387 . S
C917 C919 1.387 . S
H918 C925 0.950 . S
C919 C917 1.387 . S
C919 C921 1.390 . S
C919 H923 0.950 . S
H920 C916 0.950 . S
C921 C919 1.390 . S
C921 C922 1.387 . S
C921 H924 0.950 . S
C922 C921 1.387 . S
C922 C925 1.387 . S
H923 C919 0.950 . S
H924 C921 0.950 . S
C925 C916 1.390 . S
C925 H918 0.950 . S
C925 C922 1.387 . S
C926 C927 1.387 . S
C926 H930 0.950 . S
C926 C935 1.390 . S
C927 C926 1.387 . S
C927 C929 1.387 . S
H928 C935 0.950 . S
C929 C927 1.387 . S
C929 C931 1.390 . S
C929 H933 0.950 . S
H930 C926 0.950 . S
C931 C929 1.390 . S
C931 C932 1.387 . S
C931 H934 0.950 . S
C932 C931 1.387 . S
C932 C935 1.387 . S
H933 C929 0.950 . S
H934 C931 0.950 . S
C935 C926 1.390 . S
C935 H928 0.950 . S
C935 C932 1.387 . S
C936 C937 1.387 . S
C936 H940 0.950 . S
C936 C945 1.390 . S
C937 C936 1.387 . S
C937 C939 1.387 . S
H938 C945 0.950 . S
C939 C937 1.387 . S
C939 C941 1.390 . S
C939 H943 0.950 . S
H940 C936 0.950 . S
C941 C939 1.390 . S
C941 C942 1.387 . S
C941 H944 0.950 . S
C942 C941 1.387 . S
C942 C945 1.387 . S
H943 C939 0.950 . S
H944 C941 0.950 . S
C945 C936 1.390 . S
C945 H938 0.950 . S
C945 C942 1.387 . S
C946 C947 1.387 . S
C946 H950 0.950 . S
C946 C955 1.390 . S
C947 C946 1.387 . S
C947 C949 1.387 . S
H948 C955 0.950 . S
C949 C947 1.387 . S
C949 C951 1.390 . S
C949 H953 0.950 . S
H950 C946 0.950 . S
C951 C949 1.390 . S
C951 C952 1.387 . S
C951 H954 0.950 . S
C952 C951 1.387 . S
C952 C955 1.387 . S
H953 C949 0.950 . S
H954 C951 0.950 . S
C955 C946 1.390 . S
C955 H948 0.950 . S
C955 C952 1.387 . S
C956 C957 1.387 . S
C956 H960 0.950 . S
C956 C965 1.390 . S
C957 C956 1.387 . S
C957 C959 1.387 . S
H958 C965 0.950 . S
C959 C957 1.387 . S
C959 C961 1.390 . S
C959 H963 0.950 . S
H960 C956 0.950 . S
C961 C959 1.390 . S
C961 C962 1.387 . S
C961 H964 0.950 . S
C962 C961 1.387 . S
C962 C965 1.387 . S
H963 C959 0.950 . S
H964 C961 0.950 . S
C965 C956 1.390 . S
C965 H958 0.950 . S
C965 C962 1.387 . S
C966 C967 1.387 . S
C966 H970 0.950 . S
C966 C975 1.390 . S
C967 C966 1.387 . S
C967 C969 1.387 . S
H968 C975 0.950 . S
C969 C967 1.387 . S
C969 C971 1.390 . S
C969 H973 0.950 . S
H970 C966 0.950 . S
C971 C969 1.390 . S
C971 C972 1.387 . S
C971 H974 0.950 . S
C972 C971 1.387 . S
C972 C975 1.387 . S
H973 C969 0.950 . S
H974 C971 0.950 . S
C975 C966 1.390 . S
C975 H968 0.950 . S
C975 C972 1.387 . S
C976 C977 1.387 . S
C976 H980 0.950 . S
C976 C985 1.390 . S
C977 C976 1.387 . S
C977 C979 1.387 . S
H978 C985 0.950 . S
C979 C977 1.387 . S
C979 C981 1.390 . S
C979 H983 0.950 . S
H980 C976 0.950 . S
C981 C979 1.390 . S
C981 C982 1.387 . S
C981 H984 0.950 . S
C982 C981 1.387 . S
C982 C985 1.387 . S
H983 C979 0.950 . S
H984 C981 0.950 . S
C985 C976 1.390 . S
C985 H978 0.950 . S
C985 C982 1.387 . S
C986 C987 1.387 . S
C986 H990 0.950 . S
C986 C995 1.390 . S
C987 C986 1.387 . S
C987 C989 1.387 . S
H988 C995 0.950 . S
C989 C987 1.387 . S
C989 C991 1.390 . S
C989 H993 0.950 . S
H990 C986 0.950 . S
C991 C989 1.390 . S
C991 C992 1.387 . S
C991 H994 0.950 . S
C992 C991 1.387 . S
C992 C995 1.387 . S
H993 C989 0.950 . S
H994 C991 0.950 . S
C995 C986 1.390 . S
C995 H988 0.950 . S
C995 C992 1.387 . S
C996 C997 1.387 . S
C996 H1000 0.950 . S
C996 C1005 1.390 . S
C997 C996 1.387 . S
C997 C999 1.387 . S
H998 C1005 0.950 . S
C999 C997 1.387 . S
C999 C1001 1.390 . S
C999 H1003 0.950 . S
H1000 C996 0.950 . S
C1001 C999 1.390 . S
C1001 C1002 1.387 . S
C1001 H1004 0.950 . S
C1002 C1001 1.387 . S
C1002 C1005 1.387 . S
H1003 C999 0.950 . S
H1004 C1001 0.950 . S
C1005 C996 1.390 . S
C1005 H998 0.950 . S
C1005 C1002 1.387 . S
C1006 C1007 1.387 . S
C1006 H1010 0.950 . S
C1006 C1015 1.390 . S
C1007 C1006 1.387 . S
C1007 C1009 1.387 . S
H1008 C1015 0.950 . S
C1009 C1007 1.387 . S
C1009 C1011 1.390 . S
C1009 H1013 0.950 . S
H1010 C1006 0.950 . S
C1011 C1009 1.390 . S
C1011 C1012 1.387 . S
C1011 H1014 0.950 . S
C1012 C1011 1.387 . S
C1012 C1015 1.387 . S
H1013 C1009 0.950 . S
H1014 C1011 0.950 . S
C1015 C1006 1.390 . S
C1015 H1008 0.950 . S
C1015 C1012 1.387 . S
C1016 C1017 1.387 . S
C1016 H1020 0.950 . S
C1016 C1025 1.390 . S
C1017 C1016 1.387 . S
C1017 C1019 1.387 . S
H1018 C1025 0.950 . S
C1019 C1017 1.387 . S
C1019 C1021 1.390 . S
C1019 H1023 0.950 . S
H1020 C1016 0.950 . S
C1021 C1019 1.390 . S
C1021 C1022 1.387 . S
C1021 H1024 0.950 . S
C1022 C1021 1.387 . S
C1022 C1025 1.387 . S
H1023 C1019 0.950 . S
H1024 C1021 0.950 . S
C1025 C1016 1.390 . S
C1025 H1018 0.950 . S
C1025 C1022 1.387 . S
C1026 C1027 1.387 . S
C1026 H1030 0.950 . S
C1026 C1035 1.390 . S
C1027 C1026 1.387 . S
C1027 C1029 1.387 . S
H1028 C1035 0.950 . S
C1029 C1027 1.387 . S
C1029 C1031 1.390 . S
C1029 H1033 0.950 . S
H1030 C1026 0.950 . S
C1031 C1029 1.390 . S
C1031 C1032 1.387 . S
C1031 H1034 0.950 . S
C1032 C1031 1.387 . S
C1032 C1035 1.387 . S
H1033 C1029 0.950 . S
H1034 C1031 0.950 . S
C1035 C1026 1.390 . S
C1035 H1028 0.950 . S
C1035 C1032 1.387 . S
C1036 C1037 1.387 . S
C1036 H1040 0.950 . S
C1036 C1045 1.390 . S
C1037 C1036 1.387 . S
C1037 C1039 1.387 . S
H1038 C1045 0.950 . S
C1039 C1037 1.387 . S
C1039 C1041 1.390 . S
C1039 H1043 0.950 . S
H1040 C1036 0.950 . S
C1041 C1039 1.390 . S
C1041 C1042 1.387 . S
C1041 H1044 0.950 . S
C1042 C1041 1.387 . S
C1042 C1045 1.387 . S
H1043 C1039 0.950 . S
H1044 C1041 0.950 . S
C1045 C1036 1.390 . S
C1045 H1038 0.950 . S
C1045 C1042 1.387 . S
C1046 C1047 1.387 . S
C1046 H1050 0.950 . S
C1046 C1055 1.390 . S
C1047 C1046 1.387 . S
C1047 C1049 1.387 . S
H1048 C1055 0.950 . S
C1049 C1047 1.387 . S
C1049 C1051 1.390 . S
C1049 H1053 0.950 . S
H1050 C1046 0.950 . S
C1051 C1049 1.390 . S
C1051 C1052 1.387 . S
C1051 H1054 0.950 . S
C1052 C1051 1.387 . S
C1052 C1055 1.387 . S
H1053 C1049 0.950 . S
H1054 C1051 0.950 . S
C1055 C1046 1.390 . S
C1055 H1048 0.950 . S
C1055 C1052 1.387 . S
C417 C44 1.078 . S
C422 C5 1.078 . S
C427 C31 1.071 . S
C432 C18 1.071 . S
C437 C96 1.071 . S
C442 C57 1.071 . S
C447 C83 1.078 . S
C452 C70 1.078 . S
C457 C109 1.071 . S
C462 C148 1.071 . S
C467 C122 1.078 . S
C472 C135 1.078 . S
C477 C200 1.078 . S
C482 C161 1.078 . S
C487 C174 1.078 . S
C492 C187 1.078 . S
C497 C213 1.071 . S
C502 C252 1.071 . S
C507 C226 1.071 . S
C512 C239 1.071 . S
C517 C304 1.071 . S
C522 C265 1.071 . S
C527 C291 1.078 . S
C532 C278 1.078 . S
C537 C356 1.078 . S
C542 C317 1.078 . S
C547 C330 1.071 . S
C552 C343 1.071 . S
C557 C369 1.078 . S
C562 C408 1.078 . S
C567 C382 1.078 . S
C572 C395 1.078 . S
C577 C270 1.385 . S
C582 C10 1.385 . S
C587 C179 1.382 . S
C592 C23 1.382 . S
C597 C36 1.383 . S
C602 C400 1.383 . S
C607 C49 1.386 . S
C612 C101 1.386 . S
C617 C218 1.382 . S
C622 C62 1.382 . S
C627 C127 1.382 . S
C632 C75 1.382 . S
C637 C348 1.382 . S
C642 C88 1.382 . S
C647 C114 1.385 . S
C652 C374 1.385 . S
C657 C296 1.384 . S
C662 C140 1.384 . S
C667 C205 1.382 . S
C672 C153 1.382 . S
C677 C322 1.384 . S
C682 C166 1.384 . S
C687 C192 1.382 . S
C692 C244 1.382 . S
C697 C387 1.384 . S
C702 C231 1.384 . S
C707 C257 1.385 . S
C712 C309 1.385 . S
C717 C335 1.385 . S
C722 C283 1.385 . S
C727 C413 1.382 . S
C732 C361 1.382 . S
C737 C21 1.373 . S
C742 C8 1.373 . S
C747 C34 1.373 . S
C752 C47 1.373 . S
C757 C60 1.373 . S
C762 C73 1.373 . S
C767 C99 1.370 . S
C772 C86 1.370 . S
C777 C112 1.371 . S
C782 C125 1.371 . S
C787 C138 1.370 . S
C792 C151 1.370 . S
C797 C177 1.373 . S
C802 C164 1.373 . S
C807 C190 1.373 . S
C812 C203 1.373 . S
C817 C216 1.371 . S
C822 C229 1.371 . S
C827 C242 1.373 . S
C832 C255 1.373 . S
C837 C268 1.371 . S
C842 C281 1.371 . S
C847 C307 1.370 . S
C852 C294 1.370 . S
C857 C333 1.373 . S
C862 C320 1.373 . S
C867 C346 1.370 . S
C872 C359 1.370 . S
C877 C372 1.373 . S
C882 C385 1.373 . S
C887 C411 1.370 . S
C892 C398 1.370 . S
C897 C0 1.484 . S
C902 C247 1.484 . S
C907 C13 1.487 . S
C912 C234 1.487 . S
C917 C221 1.487 . S
C922 C26 1.487 . S
C927 C39 1.484 . S
C932 C208 1.484 . S
C937 C299 1.484 . S
C942 C52 1.484 . S
C947 C65 1.484 . S
C952 C286 1.484 . S
C957 C273 1.484 . S
C962 C78 1.484 . S
C967 C91 1.484 . S
C972 C260 1.484 . S
C977 C104 1.484 . S
C982 C351 1.484 . S
C987 C117 1.484 . S
C992 C338 1.484 . S
C997 C130 1.484 . S
C1002 C325 1.484 . S
C1007 C312 1.484 . S
C1012 C143 1.484 . S
C1017 C156 1.484 . S
C1022 C403 1.484 . S
C1027 C169 1.487 . S
C1032 C390 1.487 . S
C1037 C182 1.487 . S
C1042 C377 1.487 . S
C1047 C364 1.487 . S
C1052 C195 1.487 . S
