# Generated by pormake.
# Topology lcy-e, (6)-cn, num edge types: 1
# Building blocks:
#     Node 0, Type 0, BuildingBlock: KUMBUR_clean_sbu_0, # of connection points: 6
#     Node 1, Type 0, BuildingBlock: KUMBUR_clean_sbu_0, # of connection points: 6
#     Node 2, Type 0, BuildingBlock: KUMBUR_clean_sbu_0, # of connection points: 6
#     Node 3, Type 0, BuildingBlock: KUMBUR_clean_sbu_0, # of connection points: 6
#     Node 4, Type 0, BuildingBlock: KUMBUR_clean_sbu_0, # of connection points: 6
#     Node 5, Type 0, BuildingBlock: KUMBUR_clean_sbu_0, # of connection points: 6
#     Node 6, Type 0, BuildingBlock: KUMBUR_clean_sbu_0, # of connection points: 6
#     Node 7, Type 0, BuildingBlock: KUMBUR_clean_sbu_0, # of connection points: 6
#     Node 8, Type 0, BuildingBlock: KUMBUR_clean_sbu_0, # of connection points: 6
#     Node 9, Type 0, BuildingBlock: KUMBUR_clean_sbu_0, # of connection points: 6
#     Node 10, Type 0, BuildingBlock: KUMBUR_clean_sbu_0, # of connection points: 6
#     Node 11, Type 0, BuildingBlock: KUMBUR_clean_sbu_0, # of connection points: 6
#     Edge 12, Type (0, 0), BuildingBlock: UVAHIK_clean_linker_0, # of connection points: 2
#     Edge 13, Type (0, 0), BuildingBlock: UVAHIK_clean_linker_0, # of connection points: 2
#     Edge 14, Type (0, 0), BuildingBlock: UVAHIK_clean_linker_0, # of connection points: 2
#     Edge 15, Type (0, 0), BuildingBlock: UVAHIK_clean_linker_0, # of connection points: 2
#     Edge 16, Type (0, 0), BuildingBlock: UVAHIK_clean_linker_0, # of connection points: 2
#     Edge 17, Type (0, 0), BuildingBlock: UVAHIK_clean_linker_0, # of connection points: 2
#     Edge 18, Type (0, 0), BuildingBlock: UVAHIK_clean_linker_0, # of connection points: 2
#     Edge 19, Type (0, 0), BuildingBlock: UVAHIK_clean_linker_0, # of connection points: 2
#     Edge 20, Type (0, 0), BuildingBlock: UVAHIK_clean_linker_0, # of connection points: 2
#     Edge 21, Type (0, 0), BuildingBlock: UVAHIK_clean_linker_0, # of connection points: 2
#     Edge 22, Type (0, 0), BuildingBlock: UVAHIK_clean_linker_0, # of connection points: 2
#     Edge 23, Type (0, 0), BuildingBlock: UVAHIK_clean_linker_0, # of connection points: 2
#     Edge 24, Type (0, 0), BuildingBlock: UVAHIK_clean_linker_0, # of connection points: 2
#     Edge 25, Type (0, 0), BuildingBlock: UVAHIK_clean_linker_0, # of connection points: 2
#     Edge 26, Type (0, 0), BuildingBlock: UVAHIK_clean_linker_0, # of connection points: 2
#     Edge 27, Type (0, 0), BuildingBlock: UVAHIK_clean_linker_0, # of connection points: 2
#     Edge 28, Type (0, 0), BuildingBlock: UVAHIK_clean_linker_0, # of connection points: 2
#     Edge 29, Type (0, 0), BuildingBlock: UVAHIK_clean_linker_0, # of connection points: 2
#     Edge 30, Type (0, 0), BuildingBlock: UVAHIK_clean_linker_0, # of connection points: 2
#     Edge 31, Type (0, 0), BuildingBlock: UVAHIK_clean_linker_0, # of connection points: 2
#     Edge 32, Type (0, 0), BuildingBlock: UVAHIK_clean_linker_0, # of connection points: 2
#     Edge 33, Type (0, 0), BuildingBlock: UVAHIK_clean_linker_0, # of connection points: 2
#     Edge 34, Type (0, 0), BuildingBlock: UVAHIK_clean_linker_0, # of connection points: 2
#     Edge 35, Type (0, 0), BuildingBlock: UVAHIK_clean_linker_0, # of connection points: 2
#     Edge 36, Type (0, 0), BuildingBlock: UVAHIK_clean_linker_0, # of connection points: 2
#     Edge 37, Type (0, 0), BuildingBlock: UVAHIK_clean_linker_0, # of connection points: 2
#     Edge 38, Type (0, 0), BuildingBlock: UVAHIK_clean_linker_0, # of connection points: 2
#     Edge 39, Type (0, 0), BuildingBlock: UVAHIK_clean_linker_0, # of connection points: 2
#     Edge 40, Type (0, 0), BuildingBlock: UVAHIK_clean_linker_0, # of connection points: 2
#     Edge 41, Type (0, 0), BuildingBlock: UVAHIK_clean_linker_0, # of connection points: 2
#     Edge 42, Type (0, 0), BuildingBlock: UVAHIK_clean_linker_0, # of connection points: 2
#     Edge 43, Type (0, 0), BuildingBlock: UVAHIK_clean_linker_0, # of connection points: 2
#     Edge 44, Type (0, 0), BuildingBlock: UVAHIK_clean_linker_0, # of connection points: 2
#     Edge 45, Type (0, 0), BuildingBlock: UVAHIK_clean_linker_0, # of connection points: 2
#     Edge 46, Type (0, 0), BuildingBlock: UVAHIK_clean_linker_0, # of connection points: 2
#     Edge 47, Type (0, 0), BuildingBlock: UVAHIK_clean_linker_0, # of connection points: 2
# Relax obj value: 0.117
# Max RMSD: 0.280
# Mean RMSD: 0.279
data_MOF--net-lcy-e--node1-KUMBUR_clean_sbu_0--edge1-UVAHIK_clean_linker_0
_symmetry_space_group_name_H-M    P1
_symmetry_Int_Tables_number       1
_symmetry_cell_setting            triclinic
loop_
_symmetry_equiv_pos_as_xyz
'x, y, z'
_cell_length_a     53.374477
_cell_length_b     53.47249
_cell_length_c     53.323783
_cell_angle_alpha  89.852274
_cell_angle_beta   89.888334
_cell_angle_gamma 90.438951
loop_
_atom_site_label
_atom_site_type_symbol
_atom_site_fract_x
_atom_site_fract_y
_atom_site_fract_z
_atom_type_partial_charge
Tb0 Tb 0.15701 0.21283 0.52983 0.0
C1 C 0.07114 0.24929 0.46286 0.0
C2 C 0.06473 0.21595 0.43306 0.0
C3 C 0.02973 0.24207 0.44532 0.0
C4 C 0.0804 0.22954 0.44943 0.0
C5 C 0.0459 0.25642 0.46037 0.0
C6 C 0.03915 0.22181 0.43166 0.0
C7 C 0.05557 0.29331 0.48463 0.0
N8 N 0.0876 0.26302 0.47647 0.0
C9 C 0.08051 0.2856 0.48615 0.0
C10 C 0.03806 0.27843 0.47204 0.0
Tb11 Tb 0.12802 0.24874 0.47878 0.0
N12 N 0.10524 0.22479 0.45116 0.0
C13 C 0.11597 0.20767 0.4355 0.0
C14 C 0.07542 0.19751 0.41798 0.0
C15 C 0.10123 0.19365 0.41892 0.0
H16 H 0.09397 0.29735 0.49569 0.0
H17 H 0.10979 0.17975 0.40701 0.0
H18 H 0.02671 0.21136 0.41947 0.0
H19 H 0.04992 0.31081 0.49301 0.0
H20 H 0.13584 0.20426 0.43608 0.0
H21 H 0.17809 0.27479 0.60711 0.0
H22 H 0.06404 0.18663 0.40514 0.0
H23 H 0.19 0.1667 0.50518 0.0
H24 H 0.1508 0.25315 0.57702 0.0
H25 H 0.23331 0.15118 0.5069 0.0
H26 H 1.01019 0.24702 0.44338 0.0
H27 H 0.22358 0.26629 0.60768 0.0
H28 H 0.25961 0.24075 0.59161 0.0
H29 H 0.01883 0.2846 0.4706 0.0
H30 H 0.27459 0.20658 0.5647 0.0
N31 N 0.1806 0.2336 0.55919 0.0
C32 C 0.17062 0.24939 0.57664 0.0
C33 C 0.2117 0.2569 0.59414 0.0
C34 C 0.22151 0.23919 0.57765 0.0
C35 C 0.18604 0.26169 0.59392 0.0
C36 C 0.20521 0.22762 0.56034 0.0
H37 H 0.26478 0.17268 0.53339 0.0
N38 N 0.1968 0.19704 0.53016 0.0
C39 C 0.22803 0.16736 0.5178 0.0
C40 C 0.21357 0.20841 0.54548 0.0
C41 C 0.20344 0.17619 0.51694 0.0
C42 C 0.24576 0.17958 0.53272 0.0
C43 C 0.23855 0.2002 0.54706 0.0
O44 O 0.15037 0.17539 0.54068 0.0
O45 O 0.1299 0.21469 0.50005 0.0
O46 O 0.10042 0.24619 0.50937 0.0
O47 O 0.126 0.23554 0.54368 0.0
O48 O 0.14668 0.18133 0.50523 0.0
O49 O 0.13997 0.20588 0.56477 0.0
O50 O 0.13571 0.28521 0.46581 0.0
O51 O 0.1534 0.24794 0.51014 0.0
O52 O 0.18589 0.22247 0.50248 0.0
O53 O 0.16097 0.22655 0.46689 0.0
O54 O 0.13785 0.28166 0.50083 0.0
O55 O 0.14393 0.25339 0.44283 0.0
C56 C 0.12977 0.19253 0.49248 0.0
C57 C 0.15056 0.16752 0.58428 0.0
C58 C 0.14633 0.13213 0.61317 0.0
C59 C 0.13843 0.14514 0.59162 0.0
C60 C 0.16662 0.1415 0.62706 0.0
C61 C 0.171 0.17638 0.59829 0.0
C62 C 0.17897 0.16339 0.61952 0.0
C63 C 0.10464 0.24331 0.53377 0.0
C64 C 0.14131 0.18165 0.56243 0.0
C65 C 0.25525 0.21244 0.56333 0.0
C66 C 0.24674 0.23193 0.57861 0.0
C67 C 0.15288 0.27084 0.51606 0.0
C68 C 0.13214 0.29055 0.42217 0.0
C69 C 0.14762 0.3035 0.40508 0.0
C70 C 0.13696 0.31707 0.38517 0.0
C71 C 0.11081 0.31725 0.38231 0.0
C72 C 0.10609 0.29073 0.41874 0.0
C73 C 0.09551 0.30398 0.39893 0.0
C74 C 0.18302 0.22294 0.47784 0.0
C75 C 0.14319 0.27768 0.44389 0.0
H76 H 0.12263 0.13814 0.58091 0.0
H77 H 0.173 0.13176 0.64368 0.0
H78 H 0.18065 0.19344 0.593 0.0
H79 H 0.19469 0.1704 0.63028 0.0
H80 H 0.16777 0.3035 0.40756 0.0
H81 H 0.10226 0.32749 0.36704 0.0
H82 H 0.09385 0.28087 0.43143 0.0
H83 H 0.07537 0.30408 0.39654 0.0
Tb84 Tb 1.01421 0.8778 0.73981 0.0
C85 C 0.08649 0.94735 0.76824 0.0
C86 C 0.12274 0.94028 0.74199 0.0
C87 C 0.10984 0.98273 0.75077 0.0
C88 C 0.10241 0.931 0.75642 0.0
C89 C 0.09052 0.97347 0.76614 0.0
C90 C 0.12588 0.96615 0.73863 0.0
C91 C 0.05785 0.97951 0.79652 0.0
N92 N 0.06784 0.93774 0.78275 0.0
C93 C 0.05476 0.9536 0.79816 0.0
C94 C 0.07542 0.98955 0.78 0.0
Tb95 Tb 0.06305 0.89451 0.78258 0.0
N96 N 0.09871 0.90607 0.75997 0.0
C97 C 0.11728 0.88992 0.75267 0.0
C98 C 0.13978 0.92337 0.73196 0.0
C99 C 0.13739 0.89813 0.73791 0.0
H100 H 0.04237 0.94674 0.81262 0.0
H101 H 0.15138 0.885 0.73159 0.0
H102 H 0.1411 0.97353 0.72727 0.0
H103 H 0.04698 0.9917 0.80844 0.0
H104 H 0.11743 0.87058 0.75845 0.0
H105 H 0.94218 0.86177 0.80959 0.0
H106 H 0.15553 0.92973 0.72072 0.0
H107 H 0.02396 0.84705 0.68698 0.0
H108 H 0.97238 0.88684 0.7851 0.0
H109 H 0.01581 0.80471 0.67011 0.0
H110 H 0.11288 1.00268 0.74861 0.0
H111 H 0.93666 0.8167 0.80053 0.0
H112 H 0.94673 0.78005 0.77279 0.0
H113 H 0.07793 1.00965 0.7789 0.0
H114 H 0.96715 0.76427 0.73458 0.0
N115 N 0.98494 0.85632 0.76314 0.0
C116 C 0.97041 0.86728 0.78108 0.0
C117 C 0.95014 0.82763 0.78986 0.0
C118 C 0.96377 0.81691 0.77026 0.0
C119 C 0.95313 0.85307 0.79496 0.0
C120 C 0.9811 0.832 0.75702 0.0
H121 H 0.99258 0.77354 0.69571 0.0
N122 N 1.00707 0.83924 0.72237 0.0
C123 C 1.00941 0.80953 0.68874 0.0
C124 C 0.99262 0.8231 0.73576 0.0
C125 C 1.01397 0.83346 0.69832 0.0
C126 C 0.99639 0.79196 0.70329 0.0
C127 C 0.98711 0.7989 0.72682 0.0
O128 O 1.00499 0.88963 0.70317 0.0
O129 O 0.04516 0.90302 0.74741 0.0
O130 O 0.02678 0.91089 0.79504 0.0
O131 O 1.00653 0.91381 0.75706 0.0
O132 O 0.04336 0.88739 0.71247 0.0
O133 O 0.97838 0.89244 0.73309 0.0
O134 O 0.06742 0.90561 0.82035 0.0
O135 O 0.02704 0.87563 0.77861 0.0
O136 O 0.0413 0.84768 0.73709 0.0
O137 O 0.07576 0.86275 0.75961 0.0
O138 O 0.05431 0.85722 0.79712 0.0
O139 O 0.09209 0.87883 0.80384 0.0
C140 C 0.0554 0.90335 0.72603 0.0
C141 C 0.96242 0.88465 0.69256 0.0
C142 C 0.93631 0.88845 0.6552 0.0
C143 C 0.95585 0.8975 0.67047 0.0
C144 C 0.92393 0.86612 0.6619 0.0
C145 C 0.94971 0.86243 0.6989 0.0
C146 C 0.93073 0.85314 0.68353 0.0
C147 C 1.00879 0.9204 0.7807 0.0
C148 C 0.98205 0.89487 0.70911 0.0
C149 C 0.97135 0.78307 0.74092 0.0
C150 C 0.95969 0.79206 0.76266 0.0
C151 C 0.03104 0.85589 0.79123 0.0
C152 C 0.11017 0.90536 0.83384 0.0
C153 C 0.12983 0.89097 0.84394 0.0
C154 C 0.15213 0.90255 0.85232 0.0
C155 C 0.15427 0.92874 0.85084 0.0
C156 C 0.11284 0.93148 0.83272 0.0
C157 C 0.13473 0.94303 0.84122 0.0
C158 C 0.06485 0.8464 0.74444 0.0
C159 C 0.0878 0.89268 0.82328 0.0
H160 H 0.9654 0.91482 0.66557 0.0
H161 H 0.90894 0.85871 0.65035 0.0
H162 H 0.95419 0.85238 0.71588 0.0
H163 H 0.92104 0.83599 0.68856 0.0
H164 H 0.12805 0.87076 0.84462 0.0
H165 H 0.17104 0.93822 0.85733 0.0
H166 H 0.09818 0.94303 0.82512 0.0
H167 H 0.13662 0.96318 0.84023 0.0
Tb168 Tb 0.40093 0.76111 0.98521 0.0
C169 C 0.32172 0.82868 0.03049 0.0
C170 C 0.31221 0.85644 0.9959 0.0
C171 C 0.27978 0.84565 0.02614 0.0
C172 C 0.32914 0.84079 1.0087 0.0
C173 C 0.29721 0.83169 0.0399 0.0
C174 C 0.28729 0.85804 1.00418 0.0
C175 C 0.30996 0.81013 0.07754 0.0
N176 N 0.33917 0.81574 0.04357 0.0
C177 C 0.33408 0.8079 0.06758 0.0
C178 C 0.29128 0.8216 0.06342 0.0
Tb179 Tb 0.37722 0.8113 0.02406 0.0
N180 N 0.35344 0.83886 1.00123 0.0
C181 C 0.36258 0.85462 0.98301 0.0
C182 C 0.32108 0.87086 0.97583 0.0
C183 C 0.34649 0.87043 0.96981 0.0
H184 H 0.34828 0.79921 0.07892 0.0
H185 H 0.35373 0.88219 0.95487 0.0
H186 H 0.27393 0.8696 0.9943 0.0
H187 H 0.30583 0.80312 0.09617 0.0
H188 H 0.38205 0.85489 0.97781 0.0
H189 H 0.41235 0.68429 0.05077 0.0
H190 H 0.30868 0.88307 0.9655 0.0
H191 H 0.43579 0.77289 0.93543 0.0
H192 H 0.38864 0.71454 0.02598 0.0
H193 H 0.47991 0.76775 0.92226 0.0
H194 H 0.26076 0.84785 0.03287 0.0
H195 H 0.45848 0.68243 0.04699 0.0
H196 H 0.49753 0.69643 0.02427 0.0
H197 H 0.27266 0.82351 0.0713 0.0
H198 H 0.5163 0.71959 0.98885 0.0
N199 N 0.42097 0.73105 1.00866 0.0
C200 C 0.40871 0.71426 0.0239 0.0
C201 C 0.44816 0.69598 0.03606 0.0
C202 C 0.46037 0.7116 0.0188 0.0
C203 C 0.42213 0.69689 0.03813 0.0
C204 C 0.44601 0.72894 1.00511 0.0
H205 H 0.50967 0.74577 0.95006 0.0
N206 N 0.44111 0.75584 0.97106 0.0
C207 C 0.4737 0.76066 0.94027 0.0
C208 C 0.45655 0.74194 0.98546 0.0
C209 C 0.44877 0.76359 0.9478 0.0
C210 C 0.49046 0.74836 0.95606 0.0
C211 C 0.48174 0.73802 0.97861 0.0
O212 O 0.39409 0.75171 0.94742 0.0
O213 O 0.37414 0.7908 0.98955 0.0
O214 O 0.34895 0.78118 0.02792 0.0
O215 O 0.36816 0.7483 1.00615 0.0
O216 O 0.38895 0.78633 0.95481 0.0
O217 O 0.38408 0.72633 0.97704 0.0
O218 O 0.4085 0.8237 0.04494 0.0
O219 O 0.40254 0.77973 0.02165 0.0
O220 O 0.42973 0.79037 0.98622 0.0
O221 O 0.40588 0.82511 0.99757 0.0
O222 O 0.38313 0.78569 0.05477 0.0
O223 O 0.37591 0.84639 0.04209 0.0
C224 C 0.37256 0.79862 0.96736 0.0
C225 C 0.39562 0.70873 0.9381 0.0
C226 C 0.3919 0.67927 0.90318 0.0
C227 C 0.38242 0.69952 0.91713 0.0
C228 C 0.41499 0.66887 0.91024 0.0
C229 C 0.41847 0.69786 0.94479 0.0
C230 C 0.42814 0.67815 0.93084 0.0
C231 C 0.34997 0.75765 0.02006 0.0
C232 C 0.38543 0.72959 0.95288 0.0
C233 C 0.49678 0.72253 0.99353 0.0
C234 C 0.48609 0.70933 1.01368 0.0
C235 C 0.39905 0.77139 0.04386 0.0
C236 C 0.39969 0.85039 0.07913 0.0
C237 C 0.4051 0.87519 0.08634 0.0
C238 C 0.40711 0.88163 0.11192 0.0
C239 C 0.40373 0.86272 0.13007 0.0
C240 C 0.39633 0.83198 0.09764 0.0
C241 C 0.39836 0.83817 0.12294 0.0
C242 C 0.42658 0.8148 0.98867 0.0
C243 C 0.39779 0.8441 0.05227 0.0
H244 H 0.36464 0.70775 0.91202 0.0
H245 H 0.423 0.6536 0.89968 0.0
H246 H 0.42881 0.7045 0.96086 0.0
H247 H 0.44586 0.66995 0.93607 0.0
H248 H 0.40748 0.88945 0.07202 0.0
H249 H 0.40562 0.86679 0.14986 0.0
H250 H 0.3923 0.81281 0.09264 0.0
H251 H 0.39589 0.82382 0.13711 0.0
Tb252 Tb 0.52551 0.14643 0.22761 0.0
C253 C 0.45531 0.07455 0.26104 0.0
C254 C 0.4195 0.07854 0.23365 0.0
C255 C 0.43273 0.03735 0.24694 0.0
C256 C 0.43931 0.08949 0.24752 0.0
C257 C 0.45177 0.04828 0.26139 0.0
C258 C 0.41671 0.05245 0.23295 0.0
C259 C 0.48411 0.04552 0.29252 0.0
N260 N 0.4735 0.08573 0.27487 0.0
C261 C 0.48667 0.07152 0.2918 0.0
C262 C 0.46694 0.03377 0.27685 0.0
Tb263 Tb 0.47725 0.12888 0.27115 0.0
N264 N 0.44254 0.11472 0.24864 0.0
C265 C 0.4243 0.1298 0.23864 0.0
C266 C 0.40262 0.0941 0.22137 0.0
C267 C 0.40475 0.11983 0.22433 0.0
H268 H 0.49888 0.07988 0.30558 0.0
H269 H 0.39096 0.13206 0.21604 0.0
H270 H 0.40181 0.04379 0.22218 0.0
H271 H 0.49507 0.03463 0.30559 0.0
H272 H 0.4237 0.14963 0.2419 0.0
H273 H 0.59645 0.16191 0.29819 0.0
H274 H 0.38728 0.08642 0.21047 0.0
H275 H 0.51526 0.17926 0.17573 0.0
H276 H 0.56745 0.13683 0.27249 0.0
H277 H 0.52167 0.22273 0.16089 0.0
H278 H 0.42989 0.01726 0.24689 0.0
H279 H 0.60034 0.20752 0.29096 0.0
H280 H 0.58888 0.24505 0.26487 0.0
H281 H 0.46479 0.01361 0.27763 0.0
H282 H 0.5679 0.2619 0.22743 0.0
N283 N 0.55396 0.16787 0.2517 0.0
C284 C 0.56866 0.15665 0.26933 0.0
C285 C 0.58738 0.19658 0.27977 0.0
C286 C 0.57345 0.20769 0.26059 0.0
C287 C 0.58529 0.17084 0.28385 0.0
C288 C 0.55678 0.1926 0.24668 0.0
H289 H 0.54314 0.25356 0.18811 0.0
N290 N 0.5312 0.18605 0.21169 0.0
C291 C 0.52803 0.21727 0.17935 0.0
C292 C 0.54482 0.20211 0.22591 0.0
C293 C 0.52448 0.19271 0.18777 0.0
C294 C 0.54005 0.23464 0.19482 0.0
C295 C 0.54939 0.22693 0.21808 0.0
O296 O 0.53557 0.13628 0.19072 0.0
O297 O 0.49523 0.12059 0.23596 0.0
O298 O 0.5138 0.11314 0.28254 0.0
O299 O 0.53386 0.11028 0.24436 0.0
O300 O 0.49695 0.13499 0.20042 0.0
O301 O 0.56188 0.13297 0.22065 0.0
O302 O 0.47623 0.12224 0.31015 0.0
O303 O 0.51275 0.14867 0.26655 0.0
O304 O 0.49674 0.1747 0.22365 0.0
O305 O 0.46359 0.16052 0.2488 0.0
O306 O 0.48443 0.16703 0.28374 0.0
O307 O 0.44609 0.14125 0.29162 0.0
C308 C 0.48507 0.11937 0.21464 0.0
C309 C 0.57798 0.1434 0.1806 0.0
C310 C 0.60469 0.14303 0.14311 0.0
C311 C 0.58673 0.1313 0.15885 0.0
C312 C 0.61306 0.1673 0.14932 0.0
C313 C 0.58756 0.16708 0.18674 0.0
C314 C 0.60472 0.17905 0.17104 0.0
C315 C 0.53118 0.10324 0.26787 0.0
C316 C 0.55862 0.1315 0.19656 0.0
C317 C 0.56446 0.24265 0.2329 0.0
C318 C 0.57647 0.23304 0.25418 0.0
C319 C 0.50788 0.1686 0.2785 0.0
C320 C 0.43528 0.1189 0.32825 0.0
C321 C 0.41439 0.13227 0.33697 0.0
C322 C 0.39692 0.12095 0.35325 0.0
C323 C 0.40024 0.09591 0.36039 0.0
C324 C 0.4382 0.09383 0.33554 0.0
C325 C 0.42066 0.08241 0.3514 0.0
C326 C 0.4736 0.17604 0.23214 0.0
C327 C 0.45412 0.13205 0.31266 0.0
H328 H 0.5798 0.11272 0.15451 0.0
H329 H 0.62605 0.17741 0.13733 0.0
H330 H 0.58183 0.17638 0.20367 0.0
H331 H 0.61161 0.19754 0.17573 0.0
H332 H 0.41212 0.15173 0.33169 0.0
H333 H 0.38698 0.08679 0.37289 0.0
H334 H 0.45412 0.08314 0.32935 0.0
H335 H 0.42306 0.0631 0.35698 0.0
Tb336 Tb 0.6355 0.25815 0.54856 0.0
C337 C 0.72012 0.32086 0.50224 0.0
C338 C 0.73018 0.35097 0.53444 0.0
C339 C 0.76251 0.33745 0.50543 0.0
C340 C 0.71293 0.33487 0.52251 0.0
C341 C 0.74477 0.32257 0.49283 0.0
C342 C 0.75521 0.35167 0.52623 0.0
C343 C 0.7314 0.29793 0.45733 0.0
N344 N 0.70217 0.30753 0.49023 0.0
C345 C 0.70712 0.29724 0.46725 0.0
C346 C 0.75044 0.31032 0.47039 0.0
Tb347 Tb 0.66297 0.30661 0.50807 0.0
N348 N 0.68853 0.33385 0.52951 0.0
C349 C 0.67973 0.34998 0.54728 0.0
C350 C 0.72155 0.36641 0.55369 0.0
C351 C 0.69612 0.36619 0.55985 0.0
H352 H 0.69243 0.28776 0.457 0.0
H353 H 0.68912 0.37842 0.57437 0.0
H354 H 0.76883 0.36372 0.5353 0.0
H355 H 0.73536 0.28907 0.43955 0.0
H356 H 0.66017 0.35001 0.55239 0.0
H357 H 0.60507 0.17969 0.49202 0.0
H358 H 0.7342 0.37897 0.56344 0.0
H359 H 0.60767 0.28702 0.596 0.0
H360 H 0.63552 0.20962 0.50909 0.0
H361 H 0.56598 0.28771 0.61582 0.0
H362 H 0.78164 0.33882 0.49869 0.0
H363 H 0.56085 0.18068 0.5059 0.0
H364 H 0.52834 0.19883 0.53464 0.0
H365 H 0.76915 0.31115 0.46252 0.0
H366 H 0.5178 0.22788 0.56877 0.0
N367 N 0.60878 0.2289 0.53158 0.0
C368 C 0.61631 0.21075 0.51523 0.0
C369 C 0.57413 0.19417 0.51333 0.0
C370 C 0.56688 0.21159 0.5314 0.0
C371 C 0.59907 0.19351 0.5055 0.0
C372 C 0.5849 0.22878 0.54035 0.0
H373 H 0.53182 0.26086 0.59942 0.0
N374 N 0.59731 0.26029 0.5682 0.0
C375 C 0.56937 0.27559 0.59996 0.0
C376 C 0.57903 0.24484 0.55959 0.0
C377 C 0.59305 0.27508 0.58868 0.0
C378 C 0.55013 0.26045 0.59063 0.0
C379 C 0.55489 0.2446 0.57036 0.0
O380 O 0.64526 0.24909 0.58575 0.0
O381 O 0.66445 0.28633 0.54298 0.0
O382 O 0.68844 0.27402 0.50703 0.0
O383 O 0.66307 0.24167 0.5234 0.0
O384 O 0.64924 0.28399 0.57768 0.0
O385 O 0.65054 0.22262 0.55585 0.0
O386 O 0.65519 0.32052 0.47191 0.0
O387 O 0.63706 0.27595 0.51228 0.0
O388 O 0.60661 0.28508 0.53957 0.0
O389 O 0.63196 0.31997 0.53264 0.0
O390 O 0.64787 0.28521 0.47664 0.0
O391 O 0.64614 0.34201 0.50457 0.0
C392 C 0.66642 0.29497 0.5648 0.0
C393 C 0.64237 0.20642 0.59655 0.0
C394 C 0.6473 0.18078 0.63424 0.0
C395 C 0.65555 0.20048 0.61862 0.0
C396 C 0.62548 0.16745 0.62775 0.0
C397 C 0.62054 0.19297 0.59055 0.0
C398 C 0.61213 0.17365 0.60615 0.0
C399 C 0.68343 0.25 0.51175 0.0
C400 C 0.65186 0.22646 0.57996 0.0
C401 C 0.53652 0.22826 0.56087 0.0
C402 C 0.5425 0.21177 0.5414 0.0
C403 C 0.63386 0.27032 0.48944 0.0
C404 C 0.65783 0.36456 0.46825 0.0
C405 C 0.64217 0.38333 0.45838 0.0
C406 C 0.6527 0.40529 0.44779 0.0
C407 C 0.67893 0.40793 0.44695 0.0
C408 C 0.68389 0.36779 0.467 0.0
C409 C 0.69434 0.3893 0.45644 0.0
C410 C 0.60985 0.30955 0.53798 0.0
C411 C 0.6471 0.34189 0.48018 0.0
H412 H 0.67249 0.21076 0.6233 0.0
H413 H 0.61866 0.1523 0.63952 0.0
H414 H 0.61009 0.19721 0.57376 0.0
H415 H 0.59529 0.16332 0.60138 0.0
H416 H 0.62199 0.38106 0.4593 0.0
H417 H 0.68759 0.42438 0.43864 0.0
H418 H 0.69625 0.35371 0.4741 0.0
H419 H 0.71451 0.39151 0.45559 0.0
Tb420 Tb 0.97631 0.40404 0.75995 0.0
C421 C 0.01963 0.31745 0.82177 0.0
C422 C 0.98863 0.30928 0.85385 0.0
C423 C 0.01495 0.27552 0.83897 0.0
C424 C 1.00062 0.32575 0.83688 0.0
C425 C 0.02766 0.29243 0.82314 0.0
C426 C 0.99541 0.28394 0.8543 0.0
C427 C 0.06213 0.30362 0.79587 0.0
N428 N 0.03168 0.33453 0.80726 0.0
C429 C 0.05357 0.32828 0.79544 0.0
C430 C 0.04887 0.28549 0.80945 0.0
Tb431 Tb 0.01623 0.37454 0.8071 0.0
N432 N 0.99492 0.35038 0.83597 0.0
C433 C 0.97851 0.3601 0.85306 0.0
C434 C 0.97079 0.31893 0.87035 0.0
C435 C 0.96603 0.34454 0.87022 0.0
H436 H 0.06418 0.34221 0.78519 0.0
H437 H 0.95261 0.35233 0.88323 0.0
H438 H 0.98621 0.27092 0.86698 0.0
H439 H 0.07905 0.29868 0.78589 0.0
H440 H 0.97439 0.37978 0.85323 0.0
H441 H 0.034 0.42954 0.68032 0.0
H442 H 0.96108 0.30691 0.88363 0.0
H443 H 0.93116 0.43512 0.78892 0.0
H444 H 0.01452 0.40064 0.71061 0.0
H445 H 0.91537 0.47829 0.79039 0.0
H446 H 0.02063 0.25614 0.8401 0.0
H447 H 0.02445 0.47471 0.68185 0.0
H448 H 0.99919 0.50949 0.70081 0.0
H449 H 0.05569 0.26647 0.81001 0.0
H450 H 0.9665 0.52272 0.73053 0.0
N451 N 0.995 0.42916 0.73033 0.0
C452 C 1.01027 0.42028 0.71183 0.0
C453 C 0.01598 0.46211 0.69542 0.0
C454 C 0.99892 0.47084 0.71324 0.0
C455 C 0.02135 0.43664 0.69446 0.0
C456 C 0.98851 0.45363 0.73049 0.0
H457 H 0.93487 0.51113 0.76383 0.0
N458 N 0.95976 0.44341 0.76214 0.0
C459 C 0.9308 0.47369 0.77808 0.0
C460 C 0.97004 0.461 0.74686 0.0
C461 C 0.93976 0.44919 0.77711 0.0
C462 C 0.9419 0.49219 0.76312 0.0
C463 C 0.96156 0.48589 0.74698 0.0
O464 O 0.9383 0.39734 0.75116 0.0
O465 O 0.98069 0.37572 0.7884 0.0
O466 O 1.01165 0.34767 0.77624 0.0
O467 O 0.99845 0.37396 0.74344 0.0
O468 O 0.94668 0.39203 0.78637 0.0
O469 O 0.96752 0.38833 0.72489 0.0
O470 O 0.05347 0.38227 0.81786 0.0
O471 O 1.01295 0.4017 0.7772 0.0
O472 O 0.98694 0.43212 0.78751 0.0
O473 O 0.99336 0.40589 0.82172 0.0
O474 O 0.04696 0.38494 0.78199 0.0
O475 O 0.023 0.3901 0.84281 0.0
C476 C 0.95903 0.37482 0.79756 0.0
C477 C 0.92765 0.39803 0.70808 0.0
C478 C 0.89241 0.3918 0.67928 0.0
C479 C 0.9067 0.38387 0.70003 0.0
C480 C 0.8991 0.41414 0.667 0.0
C481 C 0.93372 0.42042 0.69567 0.0
C482 C 0.91947 0.42841 0.67528 0.0
C483 C 1.00715 0.35249 0.7522 0.0
C484 C 0.9434 0.38888 0.72886 0.0
C485 C 0.97262 0.50345 0.73065 0.0
C486 C 0.99127 0.49592 0.71378 0.0
C487 C 0.03502 0.40072 0.76848 0.0
C488 C 0.06098 0.37743 0.86129 0.0
C489 C 0.06982 0.39192 0.88155 0.0
C490 C 0.0821 0.38034 0.90186 0.0
C491 C 0.0857 0.35434 0.90147 0.0
C492 C 0.06502 0.35153 0.86141 0.0
C493 C 0.07729 0.3401 0.88133 0.0
C494 C 0.98819 0.42814 0.81192 0.0
C495 C 0.04722 0.3892 0.84038 0.0
H496 H 0.90187 0.36652 0.7095 0.0
H497 H 0.8884 0.42063 0.65104 0.0
H498 H 0.9496 0.4316 0.70155 0.0
H499 H 0.92435 0.44567 0.66574 0.0
H500 H 0.06679 0.41195 0.88171 0.0
H501 H 0.09532 0.34502 0.91669 0.0
H502 H 0.05884 0.34002 0.84613 0.0
H503 H 0.08028 0.3201 0.88114 0.0
Tb504 Tb 0.89515 0.76786 0.05896 0.0
C505 C 0.80869 0.70692 1.01322 0.0
C506 C 0.79952 0.67549 0.04458 0.0
C507 C 0.76641 0.69017 1.01713 0.0
C508 C 0.81645 0.69207 0.03268 0.0
C509 C 0.78377 0.70564 1.00459 0.0
C510 C 0.77427 0.67512 0.03716 0.0
C511 C 0.79597 0.73241 0.97005 0.0
N512 N 0.8262 0.72109 1.00138 0.0
C513 C 0.8205 0.73277 0.97923 0.0
C514 C 0.7774 0.7191 0.98301 0.0
Tb515 Tb 0.86587 0.72129 0.01795 0.0
N516 N 0.841 0.69292 0.03902 0.0
C517 C 0.85025 0.67617 0.05603 0.0
C518 C 0.80864 0.65934 0.06303 0.0
C519 C 0.83421 0.65941 0.06847 0.0
H520 H 0.83478 0.74296 0.969 0.0
H521 H 0.84158 0.64665 0.08236 0.0
H522 H 0.76089 0.66274 0.04627 0.0
H523 H 0.79144 0.74228 0.95293 0.0
H524 H 0.86989 0.67601 0.06066 0.0
H525 H 0.92477 0.84735 1.00306 0.0
H526 H 0.79626 0.64638 0.07271 0.0
H527 H 0.92401 0.73728 0.10459 0.0
H528 H 0.89444 0.81734 0.02069 0.0
H529 H 0.96645 0.73519 0.12261 0.0
H530 H 0.74709 0.68911 1.011 0.0
H531 H 0.96946 0.84518 1.015 0.0
H532 H 1.00273 0.82559 0.04186 0.0
H533 H 0.75847 0.71861 0.97574 0.0
H534 H 1.014 0.79539 0.07485 0.0
N535 N 0.92171 0.79705 0.04152 0.0
C536 C 0.91386 0.8158 0.02598 0.0
C537 C 0.95624 0.83171 0.02266 0.0
C538 C 0.96387 0.81364 0.03997 0.0
C539 C 0.93103 0.83303 1.01594 0.0
C540 C 0.94589 0.79651 0.04929 0.0
H541 H 1.0005 0.76181 0.10535 0.0
N542 N 0.93391 0.76455 0.07702 0.0
C543 C 0.9627 0.74781 0.10719 0.0
C544 C 0.95217 0.77985 0.06794 0.0
C545 C 0.93862 0.74912 0.09696 0.0
C546 C 0.98189 0.76283 0.09737 0.0
C547 C 0.97668 0.77933 0.07767 0.0
O548 O 0.88792 0.77688 0.09676 0.0
O549 O 0.86618 0.74002 0.05352 0.0
O550 O 0.83998 0.7532 0.0204 0.0
O551 O 0.86649 0.78511 0.03559 0.0
O552 O 0.88131 0.74169 0.0881 0.0
O553 O 0.88016 0.80316 0.06707 0.0
O554 O 0.87392 0.71029 0.98091 0.0
O555 O 0.8929 0.75106 0.02223 0.0
O556 O 0.92321 0.74074 0.04822 0.0
O557 O 0.89712 0.70649 0.04113 0.0
O558 O 0.87833 0.74533 0.98718 0.0
O559 O 0.8816 0.68576 1.01183 0.0
C560 C 0.86416 0.73089 0.07514 0.0
C561 C 0.89094 0.81983 0.10678 0.0
C562 C 0.88765 0.8469 0.14349 0.0
C563 C 0.8788 0.82653 0.12925 0.0
C564 C 0.90896 0.86016 0.1353 0.0
C565 C 0.91233 0.83323 0.09908 0.0
C566 C 0.92131 0.85321 0.11333 0.0
C567 C 0.8453 0.77703 0.02543 0.0
C568 C 0.88062 0.79942 0.09126 0.0
C569 C 0.995 0.79558 0.06775 0.0
C570 C 0.9886 0.81273 0.04892 0.0
C571 C 0.89371 0.75885 0.99979 0.0
C572 C 0.87033 0.66692 0.97352 0.0
C573 C 0.88598 0.64842 0.96332 0.0
C574 C 0.87553 0.62781 0.95051 0.0
C575 C 0.84938 0.62618 0.94775 0.0
C576 C 0.84431 0.66486 0.9704 0.0
C577 C 0.83393 0.64464 0.95755 0.0
C578 C 0.91948 0.71639 0.04617 0.0
C579 C 0.88122 0.68808 0.98755 0.0
H580 H 0.8622 0.81636 0.13531 0.0
H581 H 0.91608 0.87588 0.14599 0.0
H582 H 0.92195 0.82853 0.08193 0.0
H583 H 0.93776 0.86351 0.1072 0.0
H584 H 0.90611 0.64984 0.96571 0.0
H585 H 0.84089 0.61069 0.93774 0.0
H586 H 0.83195 0.67883 0.97779 0.0
H587 H 0.81383 0.64328 0.95521 0.0
Tb588 Tb 0.5068 0.64263 0.30561 0.0
C589 C 0.57434 0.57036 0.27369 0.0
C590 C 0.60999 0.57346 0.30149 0.0
C591 C 0.59478 0.53259 0.28886 0.0
C592 C 0.59087 0.58489 0.28722 0.0
C593 C 0.57665 0.54401 0.27375 0.0
C594 C 0.61144 0.54731 0.30272 0.0
C595 C 0.54559 0.54216 0.24124 0.0
N596 N 0.55708 0.58203 0.25924 0.0
C597 C 0.54431 0.56824 0.24158 0.0
C598 C 0.56137 0.52992 0.25787 0.0
Tb599 Tb 0.55513 0.62529 0.26271 0.0
N600 N 0.58872 0.61017 0.28585 0.0
C601 C 0.60717 0.62482 0.29627 0.0
C602 C 0.6274 0.58863 0.3138 0.0
C603 C 0.62624 0.61441 0.31076 0.0
H604 H 0.53317 0.57695 0.22719 0.0
H605 H 0.64031 0.62634 0.31926 0.0
H606 H 0.62572 0.53829 0.31389 0.0
H607 H 0.53475 0.53156 0.22775 0.0
H608 H 0.60819 0.64455 0.29312 0.0
H609 H 0.43705 0.6637 0.23556 0.0
H610 H 0.64226 0.58059 0.32497 0.0
H611 H 0.51944 0.67091 0.35913 0.0
H612 H 0.46637 0.63688 0.25871 0.0
H613 H 0.51125 0.71185 0.37891 0.0
H614 H 0.59653 0.51242 0.2894 0.0
H615 H 0.43175 0.70792 0.24798 0.0
H616 H 0.4416 0.74242 0.27858 0.0
H617 H 0.56256 0.5097 0.25737 0.0
H618 H 0.46189 0.75562 0.31788 0.0
N619 N 0.47872 0.66576 0.28314 0.0
C620 C 0.46451 0.65611 0.26414 0.0
C621 C 0.44488 0.69626 0.25803 0.0
C622 C 0.45822 0.70555 0.27861 0.0
C623 C 0.44775 0.67129 0.25103 0.0
C624 C 0.47516 0.68959 0.29093 0.0
H625 H 0.48736 0.74406 0.35588 0.0
N626 N 0.50124 0.68034 0.32492 0.0
C627 C 0.50445 0.70805 0.36018 0.0
C628 C 0.48674 0.69714 0.31275 0.0
C629 C 0.50906 0.68491 0.34894 0.0
C630 C 0.49103 0.72621 0.34708 0.0
C631 C 0.48151 0.72067 0.32327 0.0
O632 O 0.4975 0.62906 0.34177 0.0
O633 O 0.53679 0.61661 0.29785 0.0
O634 O 0.51847 0.61019 0.25004 0.0
O635 O 0.49623 0.60781 0.28713 0.0
O636 O 0.53581 0.63308 0.33263 0.0
O637 O 0.47 0.62978 0.31267 0.0
O638 O 0.55563 0.61948 0.22374 0.0
O639 O 0.52012 0.64529 0.2669 0.0
O640 O 0.53431 0.67305 0.30709 0.0
O641 O 0.56887 0.65761 0.28497 0.0
O642 O 0.54891 0.66326 0.24922 0.0
O643 O 0.58876 0.63384 0.24286 0.0
C644 C 0.5471 0.6167 0.31917 0.0
C645 C 0.45572 0.63617 0.35436 0.0
C646 C 0.43299 0.63397 0.39435 0.0
C647 C 0.44952 0.62325 0.37674 0.0
C648 C 0.42277 0.65758 0.38926 0.0
C649 C 0.44462 0.65941 0.34956 0.0
C650 C 0.42843 0.67008 0.36697 0.0
C651 C 0.49981 0.60089 0.26375 0.0
C652 C 0.47402 0.62566 0.33639 0.0
C653 C 0.46589 0.7373 0.3103 0.0
C654 C 0.45432 0.72977 0.28793 0.0
C655 C 0.52555 0.66519 0.25487 0.0
C656 C 0.59203 0.62785 0.19721 0.0
C657 C 0.61562 0.63981 0.19422 0.0
C658 C 0.62709 0.64117 0.1703 0.0
C659 C 0.61501 0.62992 0.14978 0.0
C660 C 0.58053 0.61683 0.17625 0.0
C661 C 0.59201 0.61779 0.15279 0.0
C662 C 0.55794 0.67454 0.29954 0.0
C663 C 0.57873 0.62714 0.22167 0.0
H664 H 0.45777 0.60519 0.38058 0.0
H665 H 0.40999 0.66619 0.40242 0.0
H666 H 0.44836 0.66936 0.33232 0.0
H667 H 0.42016 0.6881 0.36312 0.0
H668 H 0.62467 0.64855 0.21016 0.0
H669 H 0.62349 0.63036 0.1313 0.0
H670 H 0.56254 0.60745 0.17794 0.0
H671 H 0.58297 0.60918 0.1368 0.0
Tb672 Tb 0.21954 0.51244 0.14925 0.0
C673 C 0.25679 0.45178 0.07127 0.0
C674 C 0.22839 0.41633 0.06978 0.0
C675 C 0.24396 0.43443 0.031 0.0
C676 C 0.24203 0.43442 0.08358 0.0
C677 C 0.25858 0.4514 0.0448 0.0
C678 C 0.22889 0.4169 0.04348 0.0
C679 C 0.29186 0.4818 0.04754 0.0
N680 N 0.27082 0.46774 0.08524 0.0
C681 C 0.28962 0.48125 0.07363 0.0
C682 C 0.27583 0.46727 0.03299 0.0
Tb683 Tb 0.26371 0.46693 0.12829 0.0
N684 N 0.24173 0.43464 0.10906 0.0
C685 C 0.23011 0.41532 0.12163 0.0
C686 C 0.21505 0.39786 0.08276 0.0
C687 C 0.21634 0.39709 0.10879 0.0
H688 H 0.30334 0.49166 0.08429 0.0
H689 H 0.20686 0.38229 0.11905 0.0
H690 H 0.21818 0.40346 0.03264 0.0
H691 H 0.30628 0.49314 0.03871 0.0
H692 H 0.2314 0.41315 0.14156 0.0
H693 H 0.28544 0.58678 0.16938 0.0
H694 H 0.20434 0.38371 0.07286 0.0
H695 H 0.16829 0.4953 0.17998 0.0
H696 H 0.26252 0.557 0.14246 0.0
H697 H 0.15055 0.50033 0.22255 0.0
H698 H 0.24483 0.43417 1.01069 0.0
H699 H 0.27604 0.58867 0.21481 0.0
H700 H 0.24851 0.5749 0.2508 0.0
H701 H 0.27779 0.4675 1.01276 0.0
H702 H 0.21131 0.55143 0.26533 0.0
N703 N 0.24132 0.54125 0.17239 0.0
C704 C 0.25842 0.55747 0.16221 0.0
C705 C 0.26611 0.57539 0.20309 0.0
C706 C 0.24716 0.56007 0.21302 0.0
C707 C 0.27138 0.57446 0.17744 0.0
C708 C 0.2349 0.54308 0.19693 0.0
H709 H 0.1741 0.52415 0.25467 0.0
N710 N 0.20186 0.51539 0.18827 0.0
C711 C 0.16858 0.50855 0.21797 0.0
C712 C 0.21421 0.52981 0.20515 0.0
C713 C 0.17865 0.50577 0.19389 0.0
C714 C 0.18199 0.52192 0.23608 0.0
C715 C 0.20487 0.53322 0.22962 0.0
O716 O 0.18232 0.52127 0.13946 0.0
O717 O 0.22753 0.48354 0.12228 0.0
O718 O 0.27434 0.50458 0.11411 0.0
O719 O 0.23587 0.52376 0.1134 0.0
O720 O 0.19288 0.48304 0.13883 0.0
O721 O 0.21179 0.54858 0.13596 0.0
O722 O 0.30274 0.46384 0.12339 0.0
O723 O 0.2587 0.50128 0.14949 0.0
O724 O 0.22122 0.48417 0.17876 0.0
O725 O 0.24073 0.45069 0.15877 0.0
O726 O 0.27863 0.47361 0.16577 0.0
O727 O 0.2813 0.43423 0.14089 0.0
C728 C 0.20653 0.47258 0.12198 0.0
C729 C 0.17149 0.56352 0.14563 0.0
C730 C 0.13528 0.59091 0.14245 0.0
C731 C 0.15012 0.57161 0.13262 0.0
C732 C 0.14163 0.60147 0.16572 0.0
C733 C 0.17757 0.57447 0.16874 0.0
C734 C 0.16256 0.59316 0.17881 0.0
C735 C 0.25926 0.52237 0.10577 0.0
C736 C 0.18781 0.54446 0.13443 0.0
C737 C 0.21797 0.5488 0.24632 0.0
C738 C 0.23915 0.56217 0.23804 0.0
C739 C 0.27171 0.49631 0.1687 0.0
C740 C 0.31825 0.42224 0.1201 0.0
C741 C 0.32935 0.40323 0.1345 0.0
C742 C 0.3447 0.38532 0.12307 0.0
C743 C 0.34866 0.38636 0.09706 0.0
C744 C 0.32206 0.42275 0.09405 0.0
C745 C 0.3372 0.40486 0.08264 0.0
C746 C 0.22818 0.46051 0.17782 0.0
C747 C 0.30327 0.44139 0.13295 0.0
H748 H 0.14551 0.5635 0.11457 0.0
H749 H 0.13038 0.61624 0.17372 0.0
H750 H 0.19411 0.56894 0.17883 0.0
H751 H 0.16739 0.60149 0.19666 0.0
H752 H 0.32647 0.40266 0.15463 0.0
H753 H 0.36046 0.37272 0.08792 0.0
H754 H 0.31356 0.43695 0.08252 0.0
H755 H 0.34017 0.40542 0.06256 0.0
Tb756 Tb 0.72901 0.01894 0.88185 0.0
C757 C 0.76987 0.07884 0.97064 0.0
C758 C 0.73845 0.11028 0.97771 0.0
C759 C 0.76304 0.09481 1.0127 0.0
C760 C 0.75121 0.09383 0.96159 0.0
C761 C 0.77668 0.07968 0.99614 0.0
C762 C 0.74391 0.11012 1.00348 0.0
C763 C 0.81194 0.05344 0.98616 0.0
N764 N 0.78293 0.06518 0.95385 0.0
C765 C 0.80459 0.05357 0.961 0.0
C766 C 0.79768 0.06623 1.00392 0.0
Tb767 Tb 0.7691 0.06537 0.9131 0.0
N768 N 0.7468 0.0935 0.9366 0.0
C769 C 0.73103 0.11069 0.92618 0.0
C770 C 0.72137 0.12702 0.96729 0.0
C771 C 0.71796 0.1275 0.94135 0.0
H772 H 0.81574 0.04373 0.94734 0.0
H773 H 0.70514 0.1407 0.93301 0.0
H774 H 0.73405 0.12234 1.01625 0.0
H775 H 0.82866 0.0436 0.99181 0.0
H776 H 0.72796 0.11126 0.90622 0.0
H777 H 0.78378 0.9401 0.8512 0.0
H778 H 0.71127 0.14008 0.97897 0.0
H779 H 0.68452 0.05108 0.8526 0.0
H780 H 0.76546 0.96884 0.88203 0.0
H781 H 0.66773 0.05498 0.80987 0.0
H782 H 0.76773 0.0955 0.03245 0.0
H783 H 0.77341 0.94439 0.8062 0.0
H784 H 0.74783 0.96558 0.77282 0.0
H785 H 0.80356 0.06636 0.02335 0.0
H786 H 0.71566 0.99644 0.76165 0.0
N787 N 0.7464 0.9907 0.85474 0.0
C788 C 0.76122 0.97143 0.86243 0.0
C789 C 0.76564 0.95739 0.81963 0.0
C790 C 0.7489 0.97593 0.81209 0.0
C791 C 0.7715 0.95488 0.845 0.0
C792 C 0.73941 0.99237 0.83036 0.0
H793 H 0.68537 0.02963 0.77544 0.0
N794 N 0.71186 0.02393 0.8427 0.0
C795 C 0.68281 0.04209 0.81362 0.0
C796 C 0.7212 1.00939 0.82414 0.0
C797 C 0.69237 0.03974 0.83792 0.0
C798 C 0.69285 0.0278 0.79422 0.0
C799 C 0.71212 0.01097 0.7994 0.0
O800 O 0.69137 0.01044 0.89023 0.0
O801 O 0.73362 0.04658 0.91088 0.0
O802 O 0.76516 0.03284 0.93857 0.0
O803 O 0.75124 1.00118 0.91115 0.0
O804 O 0.69964 0.04493 0.89459 0.0
O805 O 0.71998 0.9826 0.89452 0.0
O806 O 0.80654 0.07732 0.90854 0.0
O807 O 0.7658 0.03531 0.88668 0.0
O808 O 0.74174 0.04602 0.85425 0.0
O809 O 0.7478 0.08027 0.88035 0.0
O810 O 0.80051 0.04201 0.90167 0.0
O811 O 0.77618 0.10038 0.89616 0.0
C812 C 0.7121 0.05571 0.91209 0.0
C813 C 0.67905 0.96867 0.88429 0.0
C814 C 0.64201 0.94152 0.88752 0.0
C815 C 0.65926 0.95835 0.89853 0.0
C816 C 0.64494 0.9355 0.86197 0.0
C817 C 0.68169 0.96202 0.85904 0.0
C818 C 0.66469 0.94556 0.84796 0.0
C819 C 0.76023 1.00903 0.93294 0.0
C820 C 0.69606 0.9872 0.89565 0.0
C821 C 0.72226 0.99543 0.78083 0.0
C822 C 0.74063 0.97792 0.78717 0.0
C823 C 0.78828 0.02797 0.88648 0.0
C824 C 0.81222 0.12112 0.91107 0.0
C825 C 0.82272 0.14018 0.89596 0.0
C826 C 0.83317 0.16179 0.90706 0.0
C827 C 0.83323 0.16384 0.93335 0.0
C828 C 0.81265 0.12365 0.93724 0.0
C829 C 0.82311 0.14486 0.94828 0.0
C830 C 0.74377 0.07036 0.85783 0.0
C831 C 0.80027 0.09903 0.8995 0.0
H832 H 0.65743 0.96337 0.91812 0.0
H833 H 0.63174 0.92325 0.85258 0.0
H834 H 0.6967 0.96969 0.84782 0.0
H835 H 0.6667 0.94075 0.82836 0.0
H836 H 0.82233 0.13843 0.87572 0.0
H837 H 0.84138 0.18009 0.9424 0.0
H838 H 0.80494 0.10929 0.94921 0.0
H839 H 0.82335 0.1466 0.9685 0.0
Tb840 Tb 0.76838 0.97137 0.40808 0.0
C841 C 0.83104 0.01254 0.31996 0.0
C842 C 0.86049 0.97971 0.31085 0.0
C843 C 0.84758 1.00812 0.27772 0.0
C844 C 0.84467 0.9923 0.32775 0.0
C845 C 0.83285 0.02124 0.29505 0.0
C846 C 0.86148 0.98742 0.28565 0.0
C847 C 0.80883 0.05729 0.30735 0.0
N848 N 0.81805 0.02523 0.33756 0.0
C849 C 0.80812 0.04811 0.33193 0.0
C850 C 0.82093 0.04359 0.2887 0.0
Tb851 Tb 0.81755 1.00902 0.37746 0.0
N852 N 0.84362 0.986 0.35235 0.0
C853 C 0.85923 0.96803 0.36161 0.0
C854 C 0.87542 0.96036 0.31999 0.0
C855 C 0.87501 0.95472 0.34556 0.0
H856 H 0.79903 0.05895 0.34634 0.0
H857 H 0.88684 0.9401 0.35294 0.0
H858 H 0.87346 0.97796 0.27234 0.0
H859 H 0.80026 0.07502 0.30286 0.0
H860 H 0.85919 0.9634 0.3813 0.0
H861 H 0.69274 0.03031 0.43959 0.0
H862 H 0.88773 0.9501 0.30761 0.0
H863 H 0.79779 0.92474 0.43657 0.0
H864 H 0.72084 0.01144 0.40853 0.0
H865 H 0.80051 0.90691 0.47909 0.0
H866 H 0.8491 0.01437 0.25843 0.0
H867 H 0.69579 0.01836 0.48432 0.0
H868 H 0.71519 0.99087 0.51726 0.0
H869 H 0.82183 0.05093 0.26976 0.0
H870 H 0.74419 0.95687 0.52794 0.0
N871 N 0.74101 0.98995 0.43541 0.0
C872 C 0.72281 1.00623 0.42798 0.0
C873 C 0.70846 1.0102 0.47078 0.0
C874 C 0.72596 0.99226 0.47804 0.0
C875 C 0.70665 0.01694 0.44555 0.0
C876 C 0.74203 0.98228 0.45965 0.0
H877 H 0.77589 0.92521 0.51375 0.0
N878 N 0.77214 0.95329 0.44694 0.0
C879 C 0.78848 0.92272 0.47555 0.0
C880 C 0.75796 0.96302 0.46559 0.0
C881 C 0.7868 0.93286 0.4514 0.0
C882 C 0.7746 0.93314 0.49509 0.0
C883 C 0.75885 0.95336 0.49018 0.0
O884 O 0.75723 0.93449 0.39966 0.0
O885 O 0.79614 0.97489 0.37875 0.0
O886 O 0.78459 1.00903 0.35239 0.0
O887 O 0.75233 0.99601 0.3798 0.0
O888 O 0.79219 0.94067 0.39431 0.0
O889 O 0.73174 0.96514 0.39481 0.0
O890 O 0.83233 0.04505 0.38382 0.0
O891 O 0.78712 1.00693 0.40378 0.0
O892 O 0.79646 0.98154 0.43564 0.0
O893 O 0.83091 0.98549 0.4092 0.0
O894 O 0.79764 0.04169 0.3915 0.0
O895 O 0.85348 0.01232 0.39341 0.0
C896 C 0.8036 0.95279 0.37685 0.0
C897 C 0.71435 0.92547 0.40479 0.0
C898 C 0.68455 0.8907 0.40109 0.0
C899 C 0.70377 0.90577 0.39077 0.0
C900 C 0.67642 0.89545 0.42574 0.0
C901 C 0.70582 0.92986 0.42924 0.0
C902 C 0.68701 0.91487 0.43965 0.0
C903 C 0.76055 1.00546 0.35827 0.0
C904 C 0.73451 0.94096 0.39383 0.0
C905 C 0.7437 0.96392 0.50888 0.0
C906 C 0.72725 0.98332 0.50281 0.0
C907 C 0.78254 0.02999 0.40621 0.0
C908 C 0.8763 0.0478 0.3801 0.0
C909 C 0.89559 0.05746 0.39526 0.0
C910 C 0.91754 0.06733 0.38423 0.0
C911 C 0.91983 0.06763 0.35797 0.0
C912 C 0.87895 0.04855 0.35394 0.0
C913 C 0.90058 0.05837 0.34296 0.0
C914 C 0.8209 0.98209 0.43182 0.0
C915 C 0.85376 0.03662 0.39165 0.0
H916 H 0.71027 0.90244 0.37181 0.0
H917 H 0.662 0.88395 0.4344 0.0
H918 H 0.71367 0.94481 0.44032 0.0
H919 H 0.68062 0.91831 0.4586 0.0
H920 H 0.8937 0.05693 0.41551 0.0
H921 H 0.93643 0.07535 0.34902 0.0
H922 H 0.86435 0.04163 0.34193 0.0
H923 H 0.90241 0.05882 0.32274 0.0
Tb924 Tb 0.30553 0.50469 0.65122 0.0
C925 C 0.27294 0.56886 0.57746 0.0
C926 C 0.29774 0.60675 0.58046 0.0
C927 C 0.28877 0.58919 0.53956 0.0
C928 C 0.28443 0.5868 0.59193 0.0
C929 C 0.27426 0.57035 0.55099 0.0
C930 C 0.30051 0.60739 0.55429 0.0
C931 C 0.24387 0.53705 0.54893 0.0
N932 N 0.259 0.55104 0.58923 0.0
C933 C 0.2429 0.53664 0.57512 0.0
C934 C 0.26014 0.55353 0.53678 0.0
Tb935 Tb 0.26085 0.55028 0.63281 0.0
N936 N 0.28144 0.58546 0.61718 0.0
C937 C 0.28812 0.60576 0.63141 0.0
C938 C 0.30723 0.62587 0.59556 0.0
C939 C 0.30179 0.62569 0.6211 0.0
H940 H 0.22867 0.52494 0.58357 0.0
H941 H 0.30756 0.64122 0.63278 0.0
H942 H 0.31103 0.6223 0.54523 0.0
H943 H 0.2316 0.525 0.53814 0.0
H944 H 0.28216 0.6074 0.65058 0.0
H945 H 0.24272 0.42966 0.67797 0.0
H946 H 0.31761 0.64144 0.58753 0.0
H947 H 0.35861 0.52341 0.67765 0.0
H948 H 0.26316 0.45927 0.64878 0.0
H949 H 0.37951 0.51953 0.71878 0.0
H950 H 0.29034 0.59033 0.51932 0.0
H951 H 0.25576 0.42831 0.72247 0.0
H952 H 0.28606 0.44263 0.75576 0.0
H953 H 0.26063 0.55404 0.51647 0.0
H954 H 0.32389 0.46686 0.7668 0.0
N955 N 0.28611 0.47595 0.67669 0.0
C956 C 0.26859 0.45931 0.6682 0.0
C957 C 0.26447 0.44166 0.7098 0.0
C958 C 0.284 0.45725 0.71785 0.0
C959 C 0.25713 0.4423 0.68469 0.0
C960 C 0.29464 0.47427 0.70056 0.0
H961 H 0.3593 0.49516 0.75289 0.0
N962 N 0.32638 0.50235 0.68874 0.0
C963 C 0.36149 0.51065 0.71571 0.0
C964 C 0.31579 0.48778 0.70677 0.0
C965 C 0.34962 0.51278 0.69244 0.0
C966 C 0.34999 0.49693 0.73494 0.0
C967 C 0.32708 0.48484 0.73044 0.0
O968 O 0.34201 0.49694 0.63794 0.0
O969 O 0.29612 0.53313 0.62376 0.0
O970 O 0.24843 0.51282 0.61962 0.0
O971 O 0.28558 0.49091 0.61828 0.0
O972 O 0.33107 0.53457 0.63938 0.0
O973 O 0.3136 0.46846 0.63839 0.0
O974 O 0.22199 0.54889 0.62556 0.0
O975 O 0.26631 0.51607 0.65412 0.0
O976 O 0.30541 0.53239 0.68106 0.0
O977 O 0.2845 0.5663 0.66337 0.0
O978 O 0.24865 0.54482 0.67151 0.0
O979 O 0.23918 0.58202 0.64197 0.0
C980 C 0.31695 0.54446 0.62264 0.0
C981 C 0.35541 0.45535 0.64409 0.0
C982 C 0.39294 0.43 0.6382 0.0
C983 C 0.37627 0.44841 0.62947 0.0
C984 C 0.38887 0.4192 0.66192 0.0
C985 C 0.35175 0.4442 0.66768 0.0
C986 C 0.36851 0.4264 0.67659 0.0
C987 C 0.26208 0.49378 0.61146 0.0
C988 C 0.33712 0.47343 0.63419 0.0
C989 C 0.31569 0.46916 0.74837 0.0
C990 C 0.29413 0.4554 0.74209 0.0
C991 C 0.25429 0.52158 0.67397 0.0
C992 C 0.19392 0.58361 0.63494 0.0
C993 C 0.19086 0.6078 0.64518 0.0
C994 C 0.16712 0.6193 0.64506 0.0
C995 C 0.14656 0.60613 0.63504 0.0
C996 C 0.17298 0.57099 0.62513 0.0
C997 C 0.14949 0.58218 0.62526 0.0
C998 C 0.29861 0.55607 0.68117 0.0
C999 C 0.21871 0.57136 0.63419 0.0
H1000 H 0.37908 0.4567 0.61109 0.0
H1001 H 0.40149 0.40513 0.66911 0.0
H1002 H 0.33575 0.4489 0.67908 0.0
H1003 H 0.36551 0.4179 0.69481 0.0
H1004 H 0.20686 0.6178 0.65278 0.0
H1005 H 0.12805 0.61432 0.63497 0.0
H1006 H 0.17472 0.55243 0.61727 0.0
H1007 H 0.13347 0.57227 0.61768 0.0
C1008 C 0.15248 0.30156 0.54998 0.0
C1009 C 0.16654 0.28531 0.53499 0.0
C1010 C 0.16372 0.32229 0.56122 0.0
C1011 C 0.22347 0.355 0.57521 0.0
H1012 H 0.18416 0.41422 0.5614 0.0
C1013 C 0.26535 0.45371 0.58778 0.0
C1014 C 0.25014 0.47216 0.59862 0.0
C1015 C 0.25517 0.4309 0.57999 0.0
C1016 C 0.19527 0.39793 0.56576 0.0
H1017 H 0.20356 0.27724 0.52078 0.0
H1018 H 0.22354 0.31368 0.54065 0.0
H1019 H 0.1674 0.37314 0.55103 0.0
H1020 H 0.2119 0.48165 0.60817 0.0
H1021 H 0.19408 0.4416 0.59501 0.0
H1022 H 0.25132 0.37982 0.59008 0.0
C1023 C 0.20382 0.31012 0.54404 0.0
C1024 C 0.18565 0.3743 0.55982 0.0
C1025 C 0.1925 0.28915 0.53283 0.0
C1026 C 0.22418 0.46783 0.60002 0.0
C1027 C 0.21397 0.44481 0.59243 0.0
C1028 C 0.23306 0.37868 0.58133 0.0
C1029 C 0.18923 0.32759 0.55727 0.0
C1030 C 0.1996 0.35252 0.56447 0.0
C1031 C 0.22947 0.42578 0.58291 0.0
C1032 C 0.21913 0.40051 0.57659 0.0
H1033 H 0.13235 0.29917 0.55156 0.0
H1034 H 0.15207 0.33502 0.57177 0.0
H1035 H 0.23462 0.33861 0.57915 0.0
H1036 H 0.2854 0.45653 0.58607 0.0
H1037 H 0.26759 0.41711 0.57202 0.0
C1038 C 0.80934 0.01769 0.84675 0.0
C1039 C 0.80131 1.00999 0.87054 0.0
C1040 C 0.83051 1.00692 0.83572 0.0
C1041 C 0.88623 0.96681 0.85428 0.0
H1042 H 0.90514 0.9817 0.78591 0.0
C1043 C 0.96774 0.94158 0.77542 0.0
C1044 C 0.98756 0.93488 0.79138 0.0
C1045 C 0.94539 0.95084 0.78491 0.0
C1046 C 0.90028 0.97659 0.80493 0.0
H1047 H 0.80798 0.9841 0.90091 0.0
H1048 H 0.84209 0.96269 0.8804 0.0
H1049 H 0.86402 0.99173 0.79988 0.0
H1050 H 0.99974 0.93443 0.83006 0.0
H1051 H 0.9616 0.95315 0.84665 0.0
H1052 H 0.9217 0.94922 0.85839 0.0
C1053 C 0.83373 0.97824 0.87064 0.0
C1054 C 0.87639 0.98314 0.81333 0.0
C1055 C 0.81346 0.98995 0.8822 0.0
C1056 C 0.98494 0.93941 0.81717 0.0
C1057 C 0.96267 0.94973 0.82671 0.0
C1058 C 0.90971 0.95914 0.8455 0.0
C1059 C 0.8438 0.98758 0.84794 0.0
C1060 C 0.86885 0.9787 0.83829 0.0
C1061 C 0.94218 0.95504 0.81076 0.0
C1062 C 0.9173 0.96396 0.82064 0.0
H1063 H 0.8009 0.03381 0.83786 0.0
H1064 H 0.83718 0.01527 0.81848 0.0
H1065 H 0.88216 0.9635 0.87385 0.0
H1066 H 0.96882 0.93851 0.75538 0.0
H1067 H 0.93039 0.95369 0.77166 0.0
C1068 C 0.32769 0.73547 0.05485 0.0
C1069 C 0.33179 0.73891 0.02906 0.0
C1070 C 0.31826 0.71256 0.06381 0.0
C1071 C 0.32024 0.64679 0.04617 0.0
H1072 H 0.26708 0.63574 0.0946 0.0
C1073 C 0.29507 0.55006 0.09166 0.0
C1074 C 0.26928 0.54455 0.09228 0.0
C1075 C 0.30354 0.57373 0.08383 0.0
C1076 C 0.28202 0.63861 0.08109 0.0
H1077 H 0.32733 0.72235 0.99231 0.0
H1078 H 0.31052 0.68276 1.00783 0.0
H1079 H 0.27821 0.67854 0.08206 0.0
H1080 H 0.23238 0.55884 0.08311 0.0
H1081 H 0.24716 0.59973 0.06966 0.0
H1082 H 0.32399 0.6069 0.04509 0.0
C1083 C 0.31496 0.69738 0.02117 0.0
C1084 C 0.28843 0.66305 0.07406 0.0
C1085 C 0.32422 0.72014 1.01229 0.0
C1086 C 0.25237 0.56252 0.08327 0.0
C1087 C 0.26077 0.58607 0.07574 0.0
C1088 C 0.31406 0.62239 0.05345 0.0
C1089 C 0.31298 0.69294 0.04703 0.0
C1090 C 0.30722 0.66732 0.05611 0.0
C1091 C 0.28631 0.5922 0.07665 0.0
C1092 C 0.29454 0.61805 0.07057 0.0
H1093 H 0.33387 0.7495 0.06815 0.0
H1094 H 0.31678 0.70958 0.08386 0.0
H1095 H 0.3351 0.64963 0.03256 0.0
H1096 H 0.3086 0.53667 0.0984 0.0
H1097 H 0.3234 0.57797 0.08448 0.0
C1098 C 0.55766 0.0887 0.30391 0.0
C1099 C 0.55148 0.0878 0.27833 0.0
C1100 C 0.58039 0.07878 0.3123 0.0
C1101 C 0.62568 0.04506 0.32448 0.0
H1102 H 0.68325 0.0632 0.28338 0.0
C1103 C 0.71995 0.99769 0.33795 0.0
C1104 C 0.74069 0.01362 0.34121 0.0
C1105 C 0.69751 1.00691 0.32861 0.0
C1106 C 0.66737 0.05811 0.29506 0.0
H1107 H 0.56305 0.07382 0.24193 0.0
H1108 H 0.60233 0.05653 0.25659 0.0
H1109 H 0.64161 0.07837 0.27212 0.0
H1110 H 0.75475 0.05136 0.33614 0.0
H1111 H 0.71546 0.06752 0.31898 0.0
H1112 H 0.6514 0.02468 0.34734 0.0
C1113 C 0.59005 0.06542 0.27003 0.0
C1114 C 0.64356 0.06661 0.28856 0.0
C1115 C 0.56744 0.07516 0.26172 0.0
C1116 C 0.73925 0.03857 0.33319 0.0
C1117 C 0.71668 0.04785 0.3237 0.0
C1118 C 0.64945 0.03634 0.33083 0.0
C1119 C 0.59716 0.06789 0.29519 0.0
C1120 C 0.62246 0.0599 0.30304 0.0
C1121 C 0.69535 0.03228 0.32233 0.0
C1122 C 0.67045 0.04252 0.31599 0.0
H1123 H 0.54574 0.09833 0.31713 0.0
H1124 H 0.58541 0.08075 0.33187 0.0
H1125 H 0.60976 0.03966 0.33595 0.0
H1126 H 0.72064 0.97837 0.34409 0.0
H1127 H 0.68151 0.99439 0.32724 0.0
C1128 C 0.70351 0.22698 0.47641 0.0
C1129 C 0.69995 0.23018 0.50224 0.0
C1130 C 0.71224 0.20413 0.46704 0.0
C1131 C 0.71733 0.1368 0.48647 0.0
H1132 H 0.75327 0.13127 0.4236 0.0
C1133 C 0.7482 0.06001 0.40669 0.0
C1134 C 0.76337 0.04354 0.42034 0.0
C1135 C 0.73762 0.08081 0.41821 0.0
C1136 C 0.74304 0.13251 0.44112 0.0
H1137 H 0.70415 0.21286 0.53867 0.0
H1138 H 0.72111 0.17388 0.5227 0.0
H1139 H 0.74403 0.17246 0.44034 0.0
H1140 H 0.77829 0.03505 0.45703 0.0
H1141 H 0.75903 0.0713 0.47761 0.0
H1142 H 0.71728 0.09657 0.48739 0.0
C1143 C 0.71618 0.18833 0.50938 0.0
C1144 C 0.73765 0.1562 0.45072 0.0
C1145 C 0.70697 0.2109 0.51863 0.0
C1146 C 0.76607 0.04708 0.44628 0.0
C1147 C 0.75528 0.06796 0.45794 0.0
C1148 C 0.72314 0.11307 0.47703 0.0
C1149 C 0.71799 0.18415 0.48339 0.0
C1150 C 0.72458 0.15878 0.47349 0.0
C1151 C 0.74212 0.08573 0.44365 0.0
C1152 C 0.73583 0.11069 0.45412 0.0
H1153 H 0.69768 0.24131 0.46334 0.0
H1154 H 0.71308 0.20176 0.44691 0.0
H1155 H 0.70674 0.13779 0.50375 0.0
H1156 H 0.7463 0.05797 0.38657 0.0
H1157 H 0.72727 0.09396 0.40682 0.0
C1158 C 0.06443 0.40797 0.73361 0.0
C1159 C 0.04893 0.41824 0.75219 0.0
C1160 C 0.08425 0.42184 0.72334 0.0
C1161 C 0.13182 0.46433 0.74289 0.0
H1162 H 0.14682 0.47388 0.67242 0.0
C1163 C 0.22496 0.51144 0.70917 0.0
C1164 C 0.2342 0.50567 0.68521 0.0
C1165 C 0.20199 0.50152 0.71762 0.0
C1166 C 0.14334 0.47095 0.6922 0.0
H1167 H 0.04205 0.45104 0.77474 0.0
H1168 H 0.07753 0.47525 0.75729 0.0
H1169 H 0.10612 0.45718 0.68498 0.0
H1170 H 0.2261 0.4849 0.65144 0.0
H1171 H 0.18789 0.46578 0.66664 0.0
H1172 H 0.16935 0.47643 0.75033 0.0
C1173 C 0.07363 0.45671 0.75008 0.0
C1174 C 0.11972 0.46173 0.69935 0.0
C1175 C 0.05316 0.44304 0.75979 0.0
C1176 C 0.22019 0.48916 0.67025 0.0
C1177 C 0.19768 0.47867 0.67886 0.0
C1178 C 0.15568 0.473 0.73575 0.0
C1179 C 0.08975 0.44593 0.73224 0.0
C1180 C 0.11372 0.45827 0.72475 0.0
C1181 C 0.18763 0.48534 0.70235 0.0
C1182 C 0.16198 0.4763 0.71024 0.0
H1183 H 0.06201 0.38862 0.72803 0.0
H1184 H 0.09643 0.41299 0.70978 0.0
H1185 H 0.12783 0.46139 0.76261 0.0
H1186 H 0.23483 0.52481 0.72085 0.0
H1187 H 0.19503 0.50759 0.73566 0.0
C1188 C 0.79063 0.98481 0.95863 0.0
C1189 C 0.76594 0.98906 0.9509 0.0
C1190 C 0.79703 0.96189 0.96962 0.0
C1191 C 0.77513 0.89623 0.96965 0.0
H1192 H 0.82441 0.88764 0.02213 0.0
C1193 C 0.82186 0.80126 0.99328 0.0
C1194 C 0.82775 0.79683 0.0185 0.0
C1195 C 0.81154 0.82419 0.98605 0.0
C1196 C 0.81037 0.8897 1.00764 0.0
H1197 H 0.72834 0.97374 0.94966 0.0
H1198 H 0.73918 0.93424 0.96963 0.0
H1199 H 0.81227 0.92969 1.00953 0.0
H1200 H 0.82644 0.81188 0.05609 0.0
H1201 H 0.80761 0.85141 0.04374 0.0
H1202 H 0.7731 0.85626 0.96788 0.0
C1203 C 0.75378 0.94814 0.96678 0.0
C1204 C 0.80366 0.91383 1.00023 0.0
C1205 C 0.74748 0.97087 0.9557 0.0
C1206 C 0.82177 0.81486 0.03654 0.0
C1207 C 0.81137 0.83762 0.0294 0.0
C1208 C 0.78185 0.87211 0.97705 0.0
C1209 C 0.77878 0.94297 0.97297 0.0
C1210 C 0.78587 0.91739 0.98122 0.0
C1211 C 0.80702 0.84296 1.00398 0.0
C1212 C 0.79948 0.86855 0.99621 0.0
H1213 H 0.80529 0.99829 0.95443 0.0
H1214 H 0.8165 0.95844 0.97402 0.0
H1215 H 0.76173 0.89829 0.95458 0.0
H1216 H 0.82703 0.78793 0.97898 0.0
H1217 H 0.80858 0.82776 0.96628 0.0
C1218 C 0.46205 0.57351 0.26743 0.0
C1219 C 0.47917 0.58647 0.252 0.0
C1220 C 0.43958 0.56427 0.25774 0.0
C1221 C 0.40564 0.54874 0.1994 0.0
H1222 H 0.34698 0.5601 0.24086 0.0
C1223 C 0.30711 0.52628 0.16277 0.0
C1224 C 0.29091 0.5133 0.1791 0.0
C1225 C 0.32895 0.53762 0.17167 0.0
C1226 C 0.36317 0.55661 0.22914 0.0
H1227 H 0.48681 0.59845 0.21388 0.0
H1228 H 0.44735 0.5823 0.19684 0.0
H1229 H 0.38816 0.57349 0.25557 0.0
H1230 H 0.28491 0.50183 0.21754 0.0
H1231 H 0.32333 0.5216 0.23336 0.0
H1232 H 0.3807 0.53169 0.17306 0.0
C1233 C 0.45139 0.57932 0.21651 0.0
C1234 C 0.38681 0.56424 0.23758 0.0
C1235 C 0.47404 0.58853 0.22624 0.0
C1236 C 0.29676 0.51232 0.20471 0.0
C1237 C 0.31877 0.52361 0.21369 0.0
C1238 C 0.382 0.5411 0.19097 0.0
C1239 C 0.43356 0.56778 0.23236 0.0
C1240 C 0.40838 0.56019 0.22291 0.0
C1241 C 0.3355 0.53574 0.19709 0.0
C1242 C 0.36046 0.54484 0.20579 0.0
H1243 H 0.46556 0.57135 0.28732 0.0
H1244 H 0.42664 0.55484 0.27033 0.0
H1245 H 0.42185 0.54512 0.18775 0.0
H1246 H 0.30349 0.5269 0.1429 0.0
H1247 H 0.34112 0.54718 0.15843 0.0
C1248 C 0.53162 0.16113 0.31807 0.0
C1249 C 0.52374 0.17787 0.29934 0.0
C1250 C 0.54277 0.16984 0.3401 0.0
C1251 C 0.57788 0.22118 0.36791 0.0
H1252 H 0.55112 0.19721 0.43148 0.0
C1253 C 0.63134 0.23609 0.45911 0.0
C1254 C 0.6189 0.25082 0.4769 0.0
C1255 C 0.61822 0.22472 0.43958 0.0
C1256 C 0.5587 0.20406 0.41387 0.0
H1257 H 0.52087 0.21694 0.28932 0.0
H1258 H 0.54156 0.23231 0.32762 0.0
H1259 H 0.53199 0.18341 0.39188 0.0
H1260 H 0.5827 0.26424 0.48895 0.0
H1261 H 0.5593 0.24335 0.455 0.0
H1262 H 0.60501 0.24123 0.38977 0.0
C1263 C 0.53907 0.21236 0.32506 0.0
C1264 C 0.54787 0.19612 0.39124 0.0
C1265 C 0.52738 0.20362 0.30314 0.0
C1266 C 0.59264 0.25238 0.47591 0.0
C1267 C 0.57935 0.24069 0.45634 0.0
C1268 C 0.589 0.22867 0.39046 0.0
C1269 C 0.5464 0.19554 0.34401 0.0
C1270 C 0.55739 0.20458 0.36802 0.0
C1271 C 0.59226 0.22783 0.4373 0.0
C1272 C 0.57961 0.22013 0.41367 0.0
H1273 H 0.52834 0.1413 0.31623 0.0
H1274 H 0.54834 0.15642 0.35425 0.0
H1275 H 0.58567 0.22789 0.35034 0.0
H1276 H 0.65158 0.23505 0.45912 0.0
H1277 H 0.6286 0.2147 0.42535 0.0
C1278 C 0.07798 0.27551 0.55377 0.0
C1279 C 0.08545 0.25054 0.55192 0.0
C1280 C 0.06526 0.28371 0.57513 0.0
C1281 C 0.05972 0.26698 0.6419 0.0
H1282 H 1.01053 0.31987 0.64285 0.0
C1283 C 0.03762 0.32537 0.73002 0.0
C1284 C 1.01302 0.33372 0.73319 0.0
C1285 C 0.04421 0.31203 0.70852 0.0
C1286 C 0.02398 0.3048 0.64294 0.0
H1287 H 0.08462 0.21419 0.5698 0.0
H1288 H 0.0615 0.22815 0.60665 0.0
H1289 H 0.0241 0.30266 0.60286 0.0
H1290 H 0.97577 0.33419 0.71729 0.0
H1291 H 0.98697 0.31018 0.6801 0.0
H1292 H 0.0595 0.269 0.68196 0.0
C1293 C 0.06585 0.2416 0.59203 0.0
C1294 C 0.03198 0.29518 0.61999 0.0
C1295 C 0.07875 0.23353 0.57084 0.0
C1296 C 0.99484 0.32766 0.71524 0.0
C1297 C 1.00133 0.31421 0.69387 0.0
C1298 C 0.05165 0.27653 0.66484 0.0
C1299 C 0.05984 0.26698 0.59488 0.0
C1300 C 0.05005 0.27625 0.61919 0.0
C1301 C 0.02625 0.30691 0.68988 0.0
C1302 C 0.03382 0.29566 0.66563 0.0
H1303 H 0.08369 0.28909 0.53977 0.0
H1304 H 0.06117 0.30344 0.57685 0.0
H1305 H 0.07404 0.25274 0.64198 0.0
H1306 H 0.05213 0.33068 0.74311 0.0
H1307 H 0.06366 0.30704 0.70586 0.0
C1308 C 1.00595 0.86457 0.82967 0.0
C1309 C 1.01422 0.84731 0.81171 0.0
C1310 C 0.9935 0.85663 0.85131 0.0
C1311 C 0.98337 0.8006 0.89199 0.0
H1312 H 0.93337 0.84331 0.92214 0.0
C1313 C 0.93636 0.77346 0.9864 0.0
C1314 C 0.91032 0.77686 0.98702 0.0
C1315 C 0.95086 0.78488 0.96745 0.0
C1316 C 0.94718 0.831 0.91402 0.0
H1317 H 0.01647 0.80801 0.80273 0.0
H1318 H 0.99361 0.79389 0.84027 0.0
H1319 H 0.95208 0.85513 0.88244 0.0
H1320 H 0.87913 0.79525 0.96917 0.0
H1321 H 0.90389 0.81493 0.9365 0.0
H1322 H 0.97722 0.77571 0.92298 0.0
C1323 C 0.99699 0.81371 0.83768 0.0
C1324 C 0.95823 0.83797 0.89123 0.0
C1325 C 1.00978 0.82175 0.81599 0.0
C1326 C 0.89928 0.79285 0.96942 0.0
C1327 C 0.9136 0.80413 0.9506 0.0
C1328 C 0.97199 0.79341 0.91467 0.0
C1329 C 0.98893 0.83108 0.85585 0.0
C1330 C 0.97653 0.82293 0.87981 0.0
C1331 C 0.93947 0.79961 0.94869 0.0
C1332 C 0.95357 0.80843 0.92595 0.0
H1333 H 1.00987 0.88427 0.82764 0.0
H1334 H 0.98836 0.87065 0.86495 0.0
H1335 H 0.99766 0.78868 0.88413 0.0
H1336 H 0.94519 0.76068 0.99941 0.0
H1337 H 0.97078 0.7813 0.96689 0.0
C1338 C 0.50536 0.70143 0.23315 0.0
C1339 C 0.50956 0.67561 0.23485 0.0
C1340 C 0.49389 0.71162 0.21178 0.0
C1341 C 0.4859 0.69998 0.14424 0.0
H1342 H 0.42994 0.74551 0.14842 0.0
C1343 C 0.40238 0.74156 0.07868 0.0
C1344 C 0.41476 0.75525 0.05979 0.0
C1345 C 0.41562 0.73109 0.09853 0.0
C1346 C 0.44566 0.73291 0.14697 0.0
H1347 H 0.50602 0.64041 0.21517 0.0
H1348 H 0.48616 0.65802 0.17808 0.0
H1349 H 0.44891 0.72952 0.18694 0.0
H1350 H 0.4509 0.76846 0.04665 0.0
H1351 H 0.47456 0.74914 0.08138 0.0
H1352 H 0.48251 0.70343 0.10415 0.0
C1353 C 0.49126 0.67039 0.19333 0.0
C1354 C 0.45657 0.72386 0.16902 0.0
C1355 C 0.50227 0.66022 0.21478 0.0
C1356 C 0.441 0.75739 0.06058 0.0
C1357 C 0.45444 0.74656 0.08054 0.0
C1358 C 0.47523 0.7094 0.12213 0.0
C1359 C 0.48724 0.69624 0.19139 0.0
C1360 C 0.47657 0.70699 0.16794 0.0
C1361 C 0.44167 0.73409 0.10016 0.0
C1362 C 0.45472 0.72563 0.12329 0.0
H1363 H 0.5114 0.71374 0.2481 0.0
H1364 H 0.4911 0.73164 0.2108 0.0
H1365 H 0.50145 0.68717 0.14281 0.0
H1366 H 0.38212 0.73994 0.07869 0.0
H1367 H 0.40533 0.72133 0.11315 0.0
C1368 C 0.17036 0.31903 0.3522 0.0
C1369 C 0.1527 0.33128 0.36724 0.0
C1370 C 0.18277 0.33202 0.33294 0.0
C1371 C 0.19964 0.39497 0.31022 0.0
H1372 H 0.19348 0.36655 0.24366 0.0
C1373 C 0.21244 0.45508 0.22182 0.0
C1374 C 0.22272 0.44452 0.20004 0.0
C1375 C 0.20691 0.44034 0.24274 0.0
C1376 C 0.19585 0.37459 0.26213 0.0
H1377 H 0.13491 0.36667 0.37499 0.0
H1378 H 0.15699 0.38954 0.3418 0.0
H1379 H 0.17969 0.34236 0.28007 0.0
H1380 H 0.2369 0.41008 0.18412 0.0
H1381 H 0.22763 0.38439 0.22075 0.0
H1382 H 0.2158 0.42715 0.29251 0.0
C1383 C 0.16117 0.36995 0.34468 0.0
C1384 C 0.1879 0.36071 0.28298 0.0
C1385 C 0.14848 0.35689 0.36357 0.0
C1386 C 0.22827 0.41884 0.20016 0.0
C1387 C 0.22294 0.40405 0.22124 0.0
C1388 C 0.20787 0.40872 0.28944 0.0
C1389 C 0.17802 0.35753 0.32882 0.0
C1390 C 0.18924 0.37098 0.30716 0.0
C1391 C 0.21203 0.4146 0.24277 0.0
C1392 C 0.20554 0.39896 0.26505 0.0
H1393 H 0.17376 0.29923 0.35465 0.0
H1394 H 0.19577 0.32207 0.32104 0.0
H1395 H 0.20113 0.40321 0.3287 0.0
H1396 H 0.20883 0.47485 0.22297 0.0
H1397 H 0.1983 0.44919 0.2588 0.0
C1398 C 0.94438 0.90787 0.61287 0.0
C1399 C 0.92788 0.90238 0.63271 0.0
C1400 C 0.93533 0.91821 0.59044 0.0
C1401 C 0.87546 0.92353 0.55539 0.0
H1402 H 0.91155 0.97156 0.51405 0.0
C1403 C 0.82648 0.97763 0.47797 0.0
C1404 C 0.83696 0.97655 0.45378 0.0
C1405 C 0.83993 0.96961 0.49879 0.0
C1406 C 0.90143 0.95796 0.52534 0.0
H1407 H 0.88951 0.90492 0.64553 0.0
H1408 H 0.87387 0.92377 0.60712 0.0
H1409 H 0.93047 0.95632 0.55309 0.0
H1410 H 0.87057 0.96783 0.43276 0.0
H1411 H 0.89454 0.95419 0.4697 0.0
H1412 H 0.8462 0.92565 0.52815 0.0
C1413 C 0.89357 0.91924 0.6082 0.0
C1414 C 0.91223 0.9492 0.54767 0.0
C1415 C 0.90253 0.90863 0.63033 0.0
C1416 C 0.86193 0.96874 0.45113 0.0
C1417 C 0.87562 0.96094 0.47221 0.0
C1418 C 0.86464 0.93244 0.53337 0.0
C1419 C 0.90964 0.92345 0.58763 0.0
C1420 C 0.89915 0.93218 0.56321 0.0
C1421 C 0.86442 0.96068 0.49612 0.0
C1422 C 0.8773 0.95002 0.51831 0.0
H1423 H 0.96403 0.90316 0.61429 0.0
H1424 H 0.94826 0.92116 0.57503 0.0
H1425 H 0.86512 0.90982 0.56632 0.0
H1426 H 0.80755 0.98415 0.48088 0.0
H1427 H 0.83099 0.97005 0.51704 0.0
C1428 C 0.31246 0.55834 0.72595 0.0
C1429 C 0.3056 0.5709 0.70381 0.0
C1430 C 0.32019 0.57151 0.74717 0.0
C1431 C 0.31842 0.6328 0.77881 0.0
H1432 H 0.3769 0.60721 0.81308 0.0
C1433 C 0.36803 0.68383 0.8625 0.0
C1434 C 0.37803 0.66851 0.88143 0.0
C1435 C 0.35754 0.67321 0.84079 0.0
C1436 C 0.36033 0.61448 0.804 0.0
H1437 H 0.30079 0.60766 0.68739 0.0
H1438 H 0.31389 0.63076 0.72463 0.0
H1439 H 0.36195 0.58662 0.77537 0.0
H1440 H 0.3831 0.63009 0.89326 0.0
H1441 H 0.36461 0.61168 0.85593 0.0
H1442 H 0.31681 0.66063 0.80775 0.0
C1443 C 0.31338 0.61051 0.72534 0.0
C1444 C 0.35179 0.60266 0.78228 0.0
C1445 C 0.30583 0.59722 0.70391 0.0
C1446 C 0.37611 0.64242 0.87877 0.0
C1447 C 0.36557 0.63187 0.85728 0.0
C1448 C 0.32695 0.64464 0.80072 0.0
C1449 C 0.32106 0.59777 0.74709 0.0
C1450 C 0.33056 0.61144 0.76954 0.0
C1451 C 0.35675 0.64706 0.83766 0.0
C1452 C 0.34785 0.63539 0.8138 0.0
H1453 H 0.31176 0.53817 0.72708 0.0
H1454 H 0.3254 0.56105 0.76376 0.0
H1455 H 0.30194 0.63997 0.7695 0.0
H1456 H 0.36927 0.704 0.86398 0.0
H1457 H 0.35096 0.6855 0.82608 0.0
C1458 C 0.63985 0.13492 0.11272 0.0
C1459 C 0.61488 0.13045 0.12025 0.0
C1460 C 0.64902 0.12528 0.09023 0.0
C1461 C 0.64418 0.07605 0.04466 0.0
H1462 H 0.66944 0.12493 0.99676 0.0
C1463 C 0.70712 0.05299 0.95875 0.0
C1464 C 0.69965 0.06322 0.93566 0.0
C1465 C 0.69515 0.05987 0.981 0.0
C1466 C 0.66239 0.1111 1.00992 0.0
H1467 H 0.58047 0.11101 0.11021 0.0
H1468 H 0.59708 0.09321 0.07131 0.0
H1469 H 0.652 0.13892 0.03682 0.0
H1470 H 0.67285 0.08734 0.91747 0.0
H1471 H 0.65232 0.10012 0.95666 0.0
H1472 H 0.65548 0.04817 0.01807 0.0
C1473 C 0.60922 0.1047 0.08285 0.0
C1474 C 0.65251 0.11908 0.03282 0.0
C1475 C 0.59979 0.11481 0.10521 0.0
C1476 C 0.67926 0.07963 0.93512 0.0
C1477 C 0.66758 0.08691 0.95745 0.0
C1478 C 0.65463 0.06802 0.02195 0.0
C1479 C 0.63374 0.11036 0.07494 0.0
C1480 C 0.64333 0.10164 0.05039 0.0
C1481 C 0.6755 0.07716 0.98061 0.0
C1482 C 0.66381 0.0855 1.00438 0.0
H1483 H 0.6524 0.1461 0.1241 0.0
H1484 H 0.66814 0.12955 0.08472 0.0
H1485 H 0.63732 0.06227 0.05798 0.0
H1486 H 0.7222 0.03966 0.95968 0.0
H1487 H 0.70163 0.0521 0.9986 0.0
C1488 C 0.66736 0.19107 0.67571 0.0
C1489 C 0.66156 0.1735 0.65699 0.0
C1490 C 0.67925 0.18353 0.69791 0.0
C1491 C 0.71913 0.13443 0.72431 0.0
H1492 H 0.68757 0.14868 0.7882 0.0
C1493 C 0.74049 0.07602 0.81154 0.0
C1494 C 0.7393 0.08655 0.83564 0.0
C1495 C 0.73371 0.08975 0.79042 0.0
C1496 C 0.69699 0.14494 0.77062 0.0
H1497 H 0.66436 0.13458 0.64634 0.0
H1498 H 0.68564 0.12154 0.68468 0.0
H1499 H 0.671 0.16729 0.74976 0.0
H1500 H 0.73113 0.12039 0.85624 0.0
H1501 H 0.72003 0.14493 0.81899 0.0
H1502 H 0.74519 0.11226 0.7448 0.0
C1503 C 0.6808 0.14105 0.6824 0.0
C1504 C 0.68741 0.15556 0.74858 0.0
C1505 C 0.66852 0.14847 0.66052 0.0
C1506 C 0.73222 0.1117 0.83795 0.0
C1507 C 0.7256 0.12566 0.81661 0.0
C1508 C 0.72892 0.12414 0.74629 0.0
C1509 C 0.68605 0.1584 0.70146 0.0
C1510 C 0.69799 0.14986 0.72514 0.0
C1511 C 0.72599 0.11473 0.79255 0.0
C1512 C 0.71756 0.1286 0.76971 0.0
H1513 H 0.66208 0.21047 0.67347 0.0
H1514 H 0.68317 0.1973 0.71226 0.0
H1515 H 0.72791 0.13002 0.70654 0.0
H1516 H 0.74617 0.0568 0.80892 0.0
H1517 H 0.73384 0.08037 0.77245 0.0
C1518 C 0.20053 0.47503 0.07556 0.0
C1519 C 0.19447 0.46386 0.0987 0.0
C1520 C 0.18827 0.46757 0.05364 0.0
C1521 C 0.15148 0.41517 0.02733 0.0
H1522 H 0.12989 0.46389 0.97801 0.0
C1523 C 0.08564 0.38632 0.94808 0.0
C1524 C 0.0914 0.39472 0.92376 0.0
C1525 C 0.0975 0.39678 0.96888 0.0
C1526 C 0.13601 0.45005 0.99148 0.0
H1527 H 0.16992 0.43749 0.11749 0.0
H1528 H 0.14841 0.42429 0.07918 0.0
H1529 H 0.15264 0.4778 1.01532 0.0
H1530 H 0.11307 0.42155 0.90216 0.0
H1531 H 0.13411 0.43993 0.93872 0.0
H1532 H 0.135 0.38741 1.00367 0.0
C1533 C 0.1631 0.4383 0.07781 0.0
C1534 C 0.14906 0.458 1.01285 0.0
C1535 C 0.1753 0.44586 0.09974 0.0
C1536 C 0.10823 0.41484 0.92074 0.0
C1537 C 0.12028 0.42529 0.94166 0.0
C1538 C 0.13849 0.40724 1.00605 0.0
C1539 C 0.16952 0.44898 0.05447 0.0
C1540 C 0.15665 0.44065 0.03118 0.0
C1541 C 0.11559 0.41581 0.96592 0.0
C1542 C 0.13025 0.42458 0.98802 0.0
H1543 H 0.21482 0.48949 0.07441 0.0
H1544 H 0.19376 0.47608 0.03599 0.0
H1545 H 0.15761 0.40126 0.04074 0.0
H1546 H 0.07248 0.37105 0.95094 0.0
H1547 H 0.09289 0.38952 0.98732 0.0
C1548 C 0.82301 0.91756 0.35299 0.0
C1549 C 0.81028 0.94044 0.35292 0.0
C1550 C 0.82949 0.90594 0.33035 0.0
C1551 C 0.84187 0.92065 0.2642 0.0
H1552 H 0.83288 0.84962 0.25273 0.0
C1553 C 0.86394 0.87888 0.16759 0.0
C1554 C 0.87464 0.85505 0.16658 0.0
C1555 C 0.85399 0.88796 0.19004 0.0
C1556 C 0.8359 0.86943 0.25568 0.0
H1557 H 0.79222 0.96782 0.32917 0.0
H1558 H 0.804 0.94804 0.28981 0.0
H1559 H 0.82013 0.86774 0.29276 0.0
H1560 H 0.88305 0.82174 0.18791 0.0
H1561 H 0.86661 0.83784 0.22754 0.0
H1562 H 0.85846 0.92255 0.22785 0.0
C1563 C 0.80955 0.93933 0.30728 0.0
C1564 C 0.82848 0.87981 0.27865 0.0
C1565 C 0.8029 0.95075 0.32986 0.0
C1566 C 0.87469 0.84013 0.18826 0.0
C1567 C 0.86516 0.8494 0.21092 0.0
C1568 C 0.84967 0.91028 0.2415 0.0
C1569 C 0.82318 0.91694 0.30723 0.0
C1570 C 0.83126 0.90558 0.28309 0.0
C1571 C 0.85506 0.87367 0.21226 0.0
C1572 C 0.84664 0.88453 0.23673 0.0
H1573 H 0.82844 0.90895 0.37055 0.0
H1574 H 0.83999 0.8887 0.33093 0.0
H1575 H 0.8445 0.94049 0.26712 0.0
H1576 H 0.86359 0.89065 0.15102 0.0
H1577 H 0.84573 0.90639 0.18994 0.0
C1578 C 0.34639 0.57255 0.5992 0.0
C1579 C 0.32873 0.55301 0.59895 0.0
C1580 C 0.35844 0.58007 0.57702 0.0
C1581 C 0.37589 0.55867 0.5134 0.0
H1582 H 0.38207 0.62958 0.49941 0.0
C1583 C 0.41303 0.59804 0.41784 0.0
C1584 C 0.42581 0.6211 0.41811 0.0
C1585 C 0.40236 0.58827 0.43995 0.0
C1586 C 0.38097 0.60969 0.50312 0.0
H1587 H 0.31105 0.52476 0.57579 0.0
H1588 H 0.33206 0.53786 0.53697 0.0
H1589 H 0.36113 0.61562 0.53752 0.0
H1590 H 0.43882 0.65123 0.44185 0.0
H1591 H 0.42138 0.63385 0.48045 0.0
H1592 H 0.39601 0.55272 0.4791 0.0
C1593 C 0.33638 0.54766 0.55419 0.0
C1594 C 0.3688 0.60169 0.52502 0.0
C1595 C 0.32414 0.54033 0.57634 0.0
C1596 C 0.42892 0.63348 0.44109 0.0
C1597 C 0.41861 0.62362 0.46317 0.0
C1598 C 0.38829 0.56669 0.49152 0.0
C1599 C 0.35354 0.56778 0.5542 0.0
C1600 C 0.36619 0.5761 0.53054 0.0
C1601 C 0.40446 0.60126 0.46286 0.0
C1602 C 0.39117 0.59236 0.48611 0.0
H1603 H 0.35066 0.5822 0.61653 0.0
H1604 H 0.37183 0.59536 0.57781 0.0
H1605 H 0.37437 0.53881 0.51715 0.0
H1606 H 0.41014 0.58824 0.40031 0.0
H1607 H 0.39155 0.5711 0.4388 0.0
C1608 C 0.22903 0.21551 0.47316 0.0
C1609 C 0.20523 0.21729 0.46211 0.0
C1610 C 0.24976 0.20814 0.45913 0.0
C1611 C 0.26683 0.17623 0.39953 0.0
H1612 H 0.33355 0.19797 0.41877 0.0
C1613 C 0.35824 0.14679 0.34757 0.0
C1614 C 0.37568 0.13537 0.36355 0.0
C1615 C 0.33752 0.15931 0.35755 0.0
C1616 C 0.31501 0.19182 0.41317 0.0
H1617 H 0.18496 0.21419 0.42704 0.0
H1618 H 0.22143 0.20252 0.40215 0.0
H1619 H 0.29715 0.21624 0.43915 0.0
H1620 H 0.38575 0.12872 0.40229 0.0
H1621 H 0.34998 0.15123 0.41974 0.0
H1622 H 0.28505 0.15212 0.37316 0.0
C1623 C 0.22388 0.20579 0.42202 0.0
C1624 C 0.29409 0.20211 0.42497 0.0
C1625 C 0.20295 0.21275 0.43625 0.0
C1626 C 0.37247 0.13727 0.38961 0.0
C1627 C 0.35212 0.15023 0.39956 0.0
C1628 C 0.28779 0.1663 0.38739 0.0
C1629 C 0.24754 0.20301 0.43335 0.0
C1630 C 0.26968 0.19401 0.4188 0.0
C1631 C 0.3343 0.16112 0.38365 0.0
C1632 C 0.31207 0.1736 0.3945 0.0
H1633 H 0.23169 0.2194 0.49288 0.0
H1634 H 0.26742 0.20589 0.46879 0.0
H1635 H 0.24847 0.1692 0.39441 0.0
H1636 H 0.36035 0.14552 0.3274 0.0
H1637 H 0.32406 0.16763 0.34491 0.0
C1638 C 0.12019 0.1087 0.64442 0.0
C1639 C 0.13351 0.10893 0.62169 0.0
C1640 C 0.1102 0.08633 0.65398 0.0
C1641 C 0.12117 0.01927 0.65491 0.0
H1642 H 0.05296 0.01375 0.67944 0.0
C1643 C 0.08194 0.92555 0.69416 0.0
C1644 C 0.06463 0.92658 0.71392 0.0
C1645 C 0.08968 0.94749 0.68182 0.0
C1646 C 0.07221 0.01497 0.67312 0.0
H1647 H 0.14676 0.08622 0.59098 0.0
H1648 H 0.12973 0.04679 0.60799 0.0
H1649 H 0.06731 0.0526 0.66002 0.0
H1650 H 0.04051 0.95105 0.73524 0.0
H1651 H 0.05475 0.9893 0.71483 0.0
H1652 H 0.12665 0.98223 0.66896 0.0
C1653 C 0.12681 0.06397 0.61826 0.0
C1654 C 0.08033 0.03726 0.66178 0.0
C1655 C 0.13638 0.08648 0.60845 0.0
C1656 C 0.05444 0.94979 0.7205 0.0
C1657 C 0.06234 0.97173 0.70843 0.0
C1658 C 0.11322 0.99713 0.6667 0.0
C1659 C 0.11381 0.06364 0.64125 0.0
C1660 C 0.10488 0.03966 0.65252 0.0
C1661 C 0.08013 0.97099 0.68887 0.0
C1662 C 0.08859 0.99458 0.67601 0.0
H1663 H 0.11791 0.1258 0.65501 0.0
H1664 H 0.10041 0.08664 0.67178 0.0
H1665 H 0.14032 0.0207 0.64827 0.0
H1666 H 0.08952 0.90776 0.68829 0.0
H1667 H 0.10288 0.94589 0.6665 0.0
C1668 C 0.19803 0.89288 0.85408 0.0
C1669 C 0.17347 0.88773 0.8623 0.0
C1670 C 0.21848 0.88056 0.86468 0.0
C1671 C 0.23867 0.8491 0.92242 0.0
H1672 H 0.29411 0.82694 0.88121 0.0
C1673 C 0.32559 0.80065 0.96539 0.0
C1674 C 0.34911 0.80707 0.95528 0.0
C1675 C 0.3035 0.80853 0.95374 0.0
C1676 C 0.27897 0.83328 0.89308 0.0
H1677 H 0.15112 0.86515 0.88778 0.0
H1678 H 0.18701 0.84363 0.90653 0.0
H1679 H 0.25673 0.84373 0.86137 0.0
H1680 H 0.36802 0.82547 0.92439 0.0
H1681 H 0.32963 0.83987 0.90429 0.0
H1682 H 0.26112 0.83932 0.95417 0.0
C1683 C 0.19036 0.85731 0.89187 0.0
C1684 C 0.25745 0.84281 0.88166 0.0
C1685 C 0.1698 0.86946 0.881 0.0
C1686 C 0.35011 0.82059 0.93273 0.0
C1687 C 0.32805 0.82865 0.92115 0.0
C1688 C 0.2603 0.83974 0.93389 0.0
C1689 C 0.21498 0.86288 0.88396 0.0
C1690 C 0.23711 0.85107 0.89616 0.0
C1691 C 0.3044 0.82286 0.93155 0.0
C1692 C 0.28088 0.83191 0.91938 0.0
H1693 H 0.20146 0.9067 0.83956 0.0
H1694 H 0.23714 0.88545 0.85824 0.0
H1695 H 0.22347 0.85556 0.93417 0.0
H1696 H 0.32423 0.7896 0.98238 0.0
H1697 H 0.28572 0.80324 0.96208 0.0
C1698 C 0.45809 0.09589 0.18425 0.0
C1699 C 0.47576 0.0957 0.20369 0.0
C1700 C 0.45012 0.07342 0.17321 0.0
C1701 C 0.44707 1.00517 0.18522 0.0
H1702 H 0.43653 1.00012 0.11347 0.0
C1703 C 0.40138 0.91785 0.14139 0.0
C1704 C 0.41297 0.90778 0.11998 0.0
C1705 C 0.40821 0.94147 0.15036 0.0
C1706 C 0.43945 1.00123 0.13353 0.0
H1707 H 0.50035 0.0722 0.22562 0.0
H1708 H 0.4865 0.0331 0.20655 0.0
H1709 H 0.45055 0.03984 0.13161 0.0
H1710 H 0.44037 0.91529 0.09078 0.0
H1711 H 0.45213 0.95675 0.10635 0.0
H1712 H 0.43625 0.96661 0.18723 0.0
C1713 C 0.47816 0.0504 0.20024 0.0
C1714 C 0.44725 0.02405 0.14396 0.0
C1715 C 0.4861 0.07281 0.2112 0.0
C1716 C 0.43091 0.92248 0.1072 0.0
C1717 C 0.43768 0.94624 0.11615 0.0
C1718 C 0.43905 0.9825 0.17487 0.0
C1719 C 0.45994 0.05036 0.1812 0.0
C1720 C 0.45122 0.02629 0.16996 0.0
C1721 C 0.42673 0.95582 0.13812 0.0
C1722 C 0.43514 0.98019 0.1489 0.0
H1723 H 0.45024 0.11339 0.17783 0.0
H1724 H 0.43598 0.07407 0.15869 0.0
H1725 H 0.44988 1.00615 0.20528 0.0
H1726 H 0.38706 0.90737 0.15139 0.0
H1727 H 0.399 0.94848 0.16701 0.0
C1728 C 0.87128 0.36716 0.64541 0.0
C1729 C 0.87072 0.37702 0.66977 0.0
C1730 C 0.84993 0.35593 0.63498 0.0
C1731 C 0.78477 0.33272 0.65042 0.0
H1732 H 0.77529 0.34158 0.57888 0.0
C1733 C 0.6895 0.31613 0.59973 0.0
C1734 C 0.69018 0.3031 0.5769 0.0
C1735 C 0.71173 0.32364 0.6116 0.0
C1736 C 0.77773 0.33877 0.59884 0.0
H1737 H 0.84752 0.38261 0.7025 0.0
H1738 H 0.80986 0.3639 0.68416 0.0
H1739 H 0.81325 0.3574 0.59858 0.0
H1740 H 0.71475 0.28593 0.54966 0.0
H1741 H 0.75361 0.2997 0.56992 0.0
H1742 H 0.74853 0.31495 0.65052 0.0
C1743 C 0.82692 0.36406 0.67317 0.0
C1744 C 0.79967 0.34771 0.61024 0.0
C1745 C 0.8485 0.37489 0.68377 0.0
C1746 C 0.7136 0.29673 0.56676 0.0
C1747 C 0.73585 0.30452 0.57844 0.0
C1748 C 0.76262 0.32415 0.63904 0.0
C1749 C 0.82714 0.35476 0.64839 0.0
C1750 C 0.80366 0.3448 0.63624 0.0
C1751 C 0.7352 0.31819 0.60095 0.0
C1752 C 0.75885 0.32703 0.6131 0.0
H1753 H 0.88822 0.36853 0.63425 0.0
H1754 H 0.85132 0.34841 0.61621 0.0
H1755 H 0.78709 0.32962 0.67034 0.0
H1756 H 0.6717 0.32086 0.60822 0.0
H1757 H 0.71055 0.33416 0.62889 0.0
C1758 C 0.96887 0.44394 0.8516 0.0
C1759 C 0.98083 0.44885 0.82861 0.0
C1760 C 0.95953 0.46357 0.86607 0.0
C1761 C 0.96552 0.53014 0.87966 0.0
H1762 H 0.8951 0.52619 0.8972 0.0
C1763 C 0.91135 0.61342 0.92357 0.0
C1764 C 0.89142 0.60777 0.93992 0.0
C1765 C 0.92409 0.59421 0.91116 0.0
C1766 C 0.91492 0.52747 0.89297 0.0
H1767 H 0.99313 0.47814 0.8031 0.0
H1768 H 0.97744 0.51251 0.82886 0.0
H1769 H 0.91427 0.49223 0.87395 0.0
H1770 H 0.8703 0.57774 0.95746 0.0
H1771 H 0.89298 0.54432 0.93677 0.0
H1772 H 0.96641 0.56513 0.89914 0.0
C1773 C 0.97514 0.49347 0.83552 0.0
C1774 C 0.92583 0.50801 0.87949 0.0
C1775 C 0.98404 0.47382 0.82079 0.0
C1776 C 0.88535 0.58261 0.94464 0.0
C1777 C 0.89825 0.56347 0.93257 0.0
C1778 C 0.9547 0.5495 0.89355 0.0
C1779 C 0.96244 0.4885 0.85809 0.0
C1780 C 0.95121 0.50914 0.87271 0.0
C1781 C 0.91732 0.56896 0.9151 0.0
C1782 C 0.92922 0.54842 0.90044 0.0
H1783 H 0.96589 0.42491 0.85796 0.0
H1784 H 0.94983 0.45927 0.88344 0.0
H1785 H 0.98518 0.53139 0.87469 0.0
H1786 H 0.91631 0.6327 0.91952 0.0
H1787 H 0.93854 0.59926 0.89776 0.0
C1788 C 0.81714 0.73049 0.07745 0.0
C1789 C 0.8403 0.72254 0.08693 0.0
C1790 C 0.79467 0.72287 0.08879 0.0
C1791 C 0.76758 0.67482 0.1317 0.0
H1792 H 0.71207 0.72106 0.13484 0.0
C1793 C 0.67295 0.64835 0.1798 0.0
C1794 C 0.65144 0.65435 0.16593 0.0
C1795 C 0.69651 0.65811 0.17282 0.0
C1796 C 0.72732 0.70784 0.13403 0.0
H1797 H 0.85816 0.70175 0.11668 0.0
H1798 H 0.81888 0.68851 0.13678 0.0
H1799 H 0.75197 0.7348 0.11712 0.0
H1800 H 0.63754 0.67632 0.13482 0.0
H1801 H 0.67825 0.69335 0.12279 0.0
H1802 H 0.74275 0.6478 0.14845 0.0
C1803 C 0.81802 0.70002 0.12007 0.0
C1804 C 0.75024 0.71571 0.12377 0.0
C1805 C 0.84053 0.7077 0.10868 0.0
C1806 C 0.6538 0.67125 0.1458 0.0
C1807 C 0.67717 0.68113 0.13899 0.0
C1808 C 0.74463 0.66695 0.14204 0.0
C1809 C 0.79474 0.70744 0.11023 0.0
C1810 C 0.77063 0.69925 0.12218 0.0
C1811 C 0.69896 0.67432 0.15204 0.0
C1812 C 0.72407 0.68327 0.14307 0.0
H1813 H 0.8163 0.74253 0.06117 0.0
H1814 H 0.7772 0.7288 0.08047 0.0
H1815 H 0.78271 0.6615 0.13051 0.0
H1816 H 0.67173 0.63528 0.19531 0.0
H1817 H 0.71285 0.65269 0.18349 0.0
C1818 C 0.61805 0.4209 0.41976 0.0
C1819 C 0.63701 0.42575 0.4374 0.0
C1820 C 0.60628 0.4407 0.40715 0.0
C1821 C 0.61906 0.50637 0.38902 0.0
H1822 H 0.54821 0.50946 0.37372 0.0
C1823 C 0.57467 0.59638 0.35072 0.0
C1824 C 0.55681 0.59409 0.33164 0.0
C1825 C 0.58341 0.57515 0.36325 0.0
C1826 C 0.5681 0.50874 0.37758 0.0
H1827 H 0.65707 0.45507 0.45708 0.0
H1828 H 0.6365 0.48939 0.43551 0.0
H1829 H 0.56465 0.47345 0.39667 0.0
H1830 H 0.53249 0.56818 0.31194 0.0
H1831 H 0.54804 0.53093 0.33347 0.0
H1832 H 0.62269 0.54141 0.36988 0.0
C1833 C 0.63115 0.4704 0.43077 0.0
C1834 C 0.5775 0.4881 0.39077 0.0
C1835 C 0.64286 0.45073 0.44325 0.0
C1836 C 0.54686 0.57033 0.32611 0.0
C1837 C 0.55555 0.54906 0.33867 0.0
C1838 C 0.60972 0.52688 0.37582 0.0
C1839 C 0.61328 0.46569 0.41201 0.0
C1840 C 0.60306 0.48688 0.397 0.0
C1841 C 0.57414 0.55116 0.35724 0.0
C1842 C 0.58406 0.52857 0.37025 0.0
H1843 H 0.61322 0.40183 0.4148 0.0
H1844 H 0.59256 0.43642 0.39283 0.0
H1845 H 0.63896 0.50575 0.39289 0.0
H1846 H 0.58208 0.6146 0.35575 0.0
H1847 H 0.5973 0.57759 0.37782 0.0
C1848 C 0.34297 0.34655 0.14944 0.0
C1849 C 0.35705 0.36575 0.13813 0.0
C1850 C 0.35498 0.32678 0.16169 0.0
C1851 C 0.41759 0.29623 0.16486 0.0
H1852 H 0.38662 0.25884 0.21915 0.0
C1853 C 0.45926 0.2031 0.19711 0.0
C1854 C 0.4582 0.19674 0.22259 0.0
C1855 C 0.44601 0.22356 0.18796 0.0
C1856 C 0.39575 0.26922 0.20422 0.0
H1857 H 0.39439 0.38034 0.13176 0.0
H1858 H 0.41542 0.34681 0.15426 0.0
H1859 H 0.36615 0.29596 0.20282 0.0
H1860 H 0.44214 0.2063 0.25855 0.0
H1861 H 0.41965 0.24285 0.24289 0.0
H1862 H 0.44778 0.27048 0.16703 0.0
C1863 C 0.39521 0.34613 0.15285 0.0
C1864 C 0.38377 0.29039 0.19454 0.0
C1865 C 0.38321 0.36553 0.14016 0.0
C1866 C 0.44317 0.21086 0.23877 0.0
C1867 C 0.43022 0.23173 0.22971 0.0
C1868 C 0.42975 0.27544 0.17481 0.0
C1869 C 0.38134 0.32608 0.16326 0.0
C1870 C 0.39442 0.3041 0.17454 0.0
C1871 C 0.4317 0.23856 0.20418 0.0
C1872 C 0.41889 0.26136 0.1944 0.0
H1873 H 0.32272 0.34637 0.14798 0.0
H1874 H 0.34356 0.31167 0.16914 0.0
H1875 H 0.42633 0.30583 0.1492 0.0
H1876 H 0.47022 0.19209 0.18415 0.0
H1877 H 0.44701 0.22753 0.16807 0.0
C1878 C 0.92541 0.35432 0.82293 0.0
C1879 C 0.94638 0.35209 0.80725 0.0
C1880 C 0.91327 0.33297 0.83227 0.0
C1881 C 0.90334 0.26546 0.82128 0.0
H1882 H 0.88519 0.26497 0.89169 0.0
C1883 C 0.86205 0.17793 0.87314 0.0
C1884 C 0.84398 0.18249 0.89175 0.0
C1885 C 0.87447 0.19792 0.86121 0.0
C1886 C 0.8898 0.26487 0.87191 0.0
H1887 H 0.96969 0.32588 0.78711 0.0
H1888 H 0.94873 0.28854 0.80364 0.0
H1889 H 0.90706 0.30104 0.87412 0.0
H1890 H 0.82347 0.21139 0.91117 0.0
H1891 H 0.84451 0.24609 0.8901 0.0
H1892 H 0.88588 0.22926 0.8191 0.0
C1893 C 0.94189 0.30676 0.80908 0.0
C1894 C 0.9024 0.28558 0.86185 0.0
C1895 C 0.95411 0.32815 0.79987 0.0
C1896 C 0.83764 0.20732 0.89722 0.0
C1897 C 0.84984 0.22721 0.88524 0.0
C1898 C 0.8906 0.2447 0.83135 0.0
C1899 C 0.92153 0.30892 0.82567 0.0
C1900 C 0.90904 0.2863 0.83636 0.0
C1901 C 0.86891 0.22283 0.86758 0.0
C1902 C 0.88335 0.2443 0.85674 0.0
H1903 H 0.91874 0.37261 0.82838 0.0
H1904 H 0.89732 0.33529 0.84461 0.0
H1905 H 0.90813 0.26548 0.80154 0.0
H1906 H 0.86737 0.15895 0.86864 0.0
H1907 H 0.88908 0.19384 0.84774 0.0
C1908 C 0.11234 0.62679 0.12382 0.0
C1909 C 0.11373 0.601 0.12832 0.0
C1910 C 0.09113 0.63705 0.11271 0.0
C1911 C 0.03237 0.62211 0.07803 0.0
H1912 H 1.01262 0.68621 0.10528 0.0
C1913 C 0.93796 0.67448 0.0573 0.0
C1914 C 0.94109 0.70003 0.05164 0.0
C1915 C 0.95849 0.66016 0.06506 0.0
C1916 C 0.01795 0.66834 0.09742 0.0
H1917 H 0.09458 0.56547 0.12393 0.0
H1918 H 0.05689 0.58348 0.10506 0.0
H1919 H 0.04939 0.66546 0.1218 0.0
H1920 H 0.96858 0.72998 0.0478 0.0
H1921 H 1.00384 0.70534 0.06186 0.0
H1922 H 1.00024 0.62514 0.05394 0.0
C1923 C 0.07238 0.59578 0.10977 0.0
C1924 C 0.03915 0.65648 0.10675 0.0
C1925 C 0.09389 0.58544 0.12061 0.0
C1926 C 0.96529 0.71055 0.05265 0.0
C1927 C 0.98558 0.69643 0.06065 0.0
C1928 C 1.01086 0.63393 0.06885 0.0
C1929 C 0.07052 0.62182 0.10622 0.0
C1930 C 0.04701 0.63347 0.09686 0.0
C1931 C 0.98234 0.67126 0.06744 0.0
C1932 C 1.00377 0.65739 0.07816 0.0
H1933 H 0.12761 0.63911 0.12921 0.0
H1934 H 0.09079 0.65705 0.10954 0.0
H1935 H 0.03788 0.60444 0.06992 0.0
H1936 H 0.91958 0.66579 0.05655 0.0
H1937 H 0.95556 0.64074 0.07015 0.0
C1938 C 0.68731 0.85307 0.37269 0.0
C1939 C 0.67275 0.87001 0.38653 0.0
C1940 C 0.67609 0.83229 0.36111 0.0
C1941 C 0.61959 0.79242 0.36699 0.0
H1942 H 0.63743 0.7677 0.30109 0.0
C1943 C 0.56011 0.71729 0.31876 0.0
C1944 C 0.57236 0.69743 0.30675 0.0
C1945 C 0.57337 0.73828 0.32698 0.0
C1946 C 0.63245 0.77422 0.31963 0.0
H1947 H 0.63484 0.87935 0.39751 0.0
H1948 H 0.61537 0.84342 0.37733 0.0
H1949 H 0.65882 0.80473 0.31791 0.0
H1950 H 0.60819 0.68586 0.29155 0.0
H1951 H 0.63151 0.72222 0.3065 0.0
H1952 H 0.59334 0.76212 0.36891 0.0
C1953 C 0.63551 0.8457 0.37597 0.0
C1954 C 0.64469 0.79544 0.32926 0.0
C1955 C 0.64667 0.86634 0.38752 0.0
C1956 C 0.59816 0.70004 0.30172 0.0
C1957 C 0.61154 0.72116 0.30998 0.0
C1958 C 0.60743 0.77132 0.35743 0.0
C1959 C 0.6501 0.82808 0.36312 0.0
C1960 C 0.63811 0.80499 0.35293 0.0
C1961 C 0.59935 0.74028 0.3232 0.0
C1962 C 0.61342 0.76212 0.33351 0.0
H1963 H 0.70747 0.85534 0.37164 0.0
H1964 H 0.68788 0.81904 0.3514 0.0
H1965 H 0.6145 0.79883 0.38555 0.0
H1966 H 0.54013 0.71685 0.32173 0.0
H1967 H 0.56316 0.75305 0.33627 0.0
C1968 C 0.56396 0.31441 0.54601 0.0
C1969 C 0.58787 0.32546 0.54391 0.0
C1970 C 0.54322 0.32847 0.55306 0.0
C1971 C 0.52514 0.38778 0.58415 0.0
H1972 H 0.45954 0.36885 0.55906 0.0
C1973 C 0.43283 0.43771 0.61396 0.0
C1974 C 0.41415 0.42113 0.6226 0.0
C1975 C 0.4541 0.4286 0.60152 0.0
C1976 C 0.47773 0.37439 0.56622 0.0
H1977 H 0.60842 0.36045 0.54671 0.0
H1978 H 0.57187 0.38538 0.55829 0.0
H1979 H 0.49673 0.34883 0.5422 0.0
H1980 H 0.40249 0.3823 0.6242 0.0
H1981 H 0.43915 0.36648 0.60203 0.0
H1982 H 0.50581 0.41347 0.60814 0.0
C1983 C 0.56937 0.36553 0.55512 0.0
C1984 C 0.49911 0.3628 0.55667 0.0
C1985 C 0.59032 0.35129 0.54826 0.0
C1986 C 0.41665 0.39546 0.61777 0.0
C1987 C 0.43758 0.38644 0.60499 0.0
C1988 C 0.5037 0.39962 0.59349 0.0
C1989 C 0.54552 0.35425 0.55776 0.0
C1990 C 0.52311 0.36882 0.56596 0.0
C1991 C 0.45675 0.40282 0.59705 0.0
C1992 C 0.47972 0.39261 0.58505 0.0
H1993 H 0.56116 0.29467 0.54246 0.0
H1994 H 0.52543 0.31887 0.55532 0.0
H1995 H 0.54319 0.39281 0.59197 0.0
H1996 H 0.43139 0.45757 0.61758 0.0
H1997 H 0.46852 0.44167 0.5955 0.0
C1998 C 0.1707 0.65166 0.67939 0.0
C1999 C 0.16313 0.64497 0.65504 0.0
C2000 C 0.16316 0.67452 0.68989 0.0
C2001 C 0.11195 0.72012 0.68308 0.0
H2002 H 0.15223 0.76368 0.72506 0.0
C2003 C 0.07642 0.81694 0.71025 0.0
C2004 C 0.07973 0.82512 0.73499 0.0
C2005 C 0.08859 0.79567 0.70149 0.0
C2006 C 0.14067 0.75156 0.71359 0.0
H2007 H 0.14358 0.6578 0.62193 0.0
H2008 H 0.13087 0.69754 0.63989 0.0
H2009 H 0.17057 0.72546 0.70774 0.0
H2010 H 0.09952 0.81822 0.76969 0.0
H2011 H 0.12086 0.78061 0.75444 0.0
H2012 H 0.08205 0.74577 0.68888 0.0
C2013 C 0.14191 0.68496 0.65127 0.0
C2014 C 0.15119 0.72968 0.70364 0.0
C2015 C 0.1493 0.66223 0.6409 0.0
C2016 C 0.09652 0.81222 0.75053 0.0
C2017 C 0.10875 0.79073 0.74177 0.0
C2018 C 0.10148 0.74181 0.693 0.0
C2019 C 0.14798 0.69108 0.67617 0.0
C2020 C 0.13704 0.7139 0.6879 0.0
C2021 C 0.10449 0.78189 0.71725 0.0
C2022 C 0.11576 0.75809 0.70804 0.0
H2023 H 0.18131 0.6387 0.69075 0.0
H2024 H 0.1682 0.67865 0.70911 0.0
H2025 H 0.10023 0.70809 0.67167 0.0
H2026 H 0.06452 0.82712 0.6975 0.0
H2027 H 0.08547 0.79 0.68226 0.0
C2028 C 0.45473 0.85234 0.99382 0.0
C2029 C 0.44685 0.83159 0.97968 0.0
C2030 C 0.47488 0.86732 0.98558 0.0
C2031 C 0.51305 0.88088 0.9281 0.0
H2032 H 0.5633 0.90449 0.97504 0.0
C2033 C 0.61261 0.90584 0.89723 0.0
C2034 C 0.62073 0.93044 0.90215 0.0
C2035 C 0.59114 0.8961 0.90873 0.0
C2036 C 0.54925 0.89817 0.96181 0.0
H2037 H 0.45231 0.81191 0.94487 0.0
H2038 H 0.48807 0.83627 0.93135 0.0
H2039 H 0.52529 0.88361 0.9908 0.0
H2040 H 0.6131 0.96356 0.92432 0.0
H2041 H 0.57587 0.94598 0.94512 0.0
H2042 H 0.53755 0.8943 0.89914 0.0
C2043 C 0.47894 0.84136 0.94873 0.0
C2044 C 0.52743 0.88633 0.97078 0.0
C2045 C 0.4588 0.82673 0.95685 0.0
C2046 C 0.60754 0.94452 0.92011 0.0
C2047 C 0.58617 0.93455 0.93197 0.0
C2048 C 0.53493 0.89225 0.9192 0.0
C2049 C 0.48738 0.86187 0.96294 0.0
C2050 C 0.50929 0.87701 0.95397 0.0
C2051 C 0.57746 0.91049 0.92584 0.0
C2052 C 0.55344 0.90059 0.9359 0.0
H2053 H 0.44561 0.85669 1.01143 0.0
H2054 H 0.48058 0.88316 0.99686 0.0
H2055 H 0.49924 0.87474 0.91456 0.0
H2056 H 0.62264 0.89411 0.88415 0.0
H2057 H 0.58502 0.87733 0.90401 0.0
C2058 C 0.96299 0.07028 0.39466 0.0
C2059 C 0.93826 0.07748 0.39968 0.0
C2060 C 0.983 0.08186 0.40688 0.0
C2061 C 1.00045 0.12242 0.46048 0.0
H2062 H 0.05785 0.13755 0.41819 0.0
C2063 C 0.08326 0.1867 0.49053 0.0
C2064 C 0.10739 0.17892 0.48364 0.0
C2065 C 0.0621 0.17389 0.48183 0.0
C2066 C 0.04208 0.13323 0.43031 0.0
H2067 H 0.9149 0.10168 0.42213 0.0
H2068 H 0.95003 0.12235 0.44337 0.0
H2069 H 0.0217 0.1161 0.40047 0.0
H2070 H 0.12855 0.15054 0.46428 0.0
H2071 H 0.09153 0.12805 0.44886 0.0
H2072 H 0.02094 0.14004 0.49025 0.0
C2073 C 0.95394 0.10754 0.43016 0.0
C2074 C 0.02136 0.12088 0.42019 0.0
C2075 C 0.93382 0.09574 0.41802 0.0
C2076 C 0.11008 0.15722 0.46925 0.0
C2077 C 0.08894 0.14447 0.4604 0.0
C2078 C 0.02121 0.13495 0.47061 0.0
C2079 C 0.97879 0.10112 0.42425 0.0
C2080 C 1.00041 0.115 0.4352 0.0
C2081 C 0.06472 0.1529 0.46629 0.0
C2082 C 0.04236 0.14019 0.45567 0.0
H2083 H 0.96687 0.05596 0.38089 0.0
H2084 H 1.00184 0.07593 0.40241 0.0
H2085 H 0.98468 0.11809 0.47259 0.0
H2086 H 0.08067 0.20283 0.5024 0.0
H2087 H 0.04372 0.18083 0.48669 0.0
loop_
_geom_bond_atom_site_label_1
_geom_bond_atom_site_label_2
_geom_bond_distance
_geom_bond_site_symmetry_2
_ccdc_geom_bond_type
Tb0 N31 2.660 . S
Tb0 N38 2.600 . S
Tb0 O44 2.546 . S
Tb0 O45 2.610 . S
Tb0 O47 2.320 . S
Tb0 O48 2.552 . S
Tb0 O49 2.413 . S
Tb0 O51 2.362 . S
Tb0 O52 2.421 . S
Tb0 C64 2.833 . S
C1 C4 1.432 . S
C1 C5 1.414 . S
C1 N8 1.359 . S
C2 C4 1.417 . S
C2 C6 1.432 . S
C2 C14 1.410 . S
C3 C5 1.444 . S
C3 C6 1.317 . S
C3 H26 0.929 . S
C4 C1 1.432 . S
C4 C2 1.417 . S
C4 N12 1.360 . S
C5 C1 1.414 . S
C5 C3 1.444 . S
C5 C10 1.385 . S
C6 C2 1.432 . S
C6 C3 1.317 . S
C6 H18 0.930 . S
C7 C9 1.392 . S
C7 C10 1.370 . S
C7 H19 0.931 . S
N8 C1 1.359 . S
N8 C9 1.327 . S
N8 Tb11 2.600 . S
C9 C7 1.392 . S
C9 N8 1.327 . S
C9 H16 0.930 . S
C10 C5 1.385 . S
C10 C7 1.370 . S
C10 H29 0.930 . S
Tb11 N8 2.600 . S
Tb11 N12 2.660 . S
Tb11 O45 2.362 . S
Tb11 O46 2.421 . S
Tb11 O50 2.546 . S
Tb11 O51 2.610 . S
Tb11 O53 2.320 . S
Tb11 O54 2.552 . S
Tb11 O55 2.413 . S
Tb11 C75 2.833 . S
N12 C4 1.360 . S
N12 Tb11 2.660 . S
N12 C13 1.305 . S
C13 N12 1.305 . S
C13 C15 1.407 . S
C13 H20 0.930 . S
C14 C2 1.410 . S
C14 C15 1.345 . S
C14 H22 0.930 . S
C15 C13 1.407 . S
C15 C14 1.345 . S
C15 H17 0.930 . S
H16 C9 0.930 . S
H17 C15 0.930 . S
H18 C6 0.930 . S
H19 C7 0.931 . S
H20 C13 0.930 . S
H21 C35 0.930 . S
H22 C14 0.930 . S
H23 C41 0.930 . S
H24 C32 0.930 . S
H25 C39 0.931 . S
H26 C3 0.929 . S
H27 C33 0.930 . S
H28 C66 0.930 . S
H29 C10 0.930 . S
H30 C65 0.929 . S
N31 Tb0 2.660 . S
N31 C32 1.305 . S
N31 C36 1.360 . S
C32 H24 0.930 . S
C32 N31 1.305 . S
C32 C35 1.407 . S
C33 H27 0.930 . S
C33 C34 1.410 . S
C33 C35 1.345 . S
C34 C33 1.410 . S
C34 C36 1.417 . S
C34 C66 1.432 . S
C35 H21 0.930 . S
C35 C32 1.407 . S
C35 C33 1.345 . S
C36 N31 1.360 . S
C36 C34 1.417 . S
C36 C40 1.432 . S
H37 C42 0.930 . S
N38 Tb0 2.600 . S
N38 C40 1.359 . S
N38 C41 1.327 . S
C39 H25 0.931 . S
C39 C41 1.392 . S
C39 C42 1.370 . S
C40 C36 1.432 . S
C40 N38 1.359 . S
C40 C43 1.414 . S
C41 H23 0.930 . S
C41 N38 1.327 . S
C41 C39 1.392 . S
C42 H37 0.930 . S
C42 C39 1.370 . S
C42 C43 1.385 . S
C43 C40 1.414 . S
C43 C42 1.385 . S
C43 C65 1.444 . S
O44 Tb0 2.546 . S
O44 C64 1.251 . S
O45 Tb0 2.610 . S
O45 Tb11 2.362 . S
O45 C56 1.283 . S
O46 Tb11 2.421 . S
O46 C63 1.262 . S
O47 Tb0 2.320 . S
O47 C63 1.260 . S
O48 Tb0 2.552 . S
O48 C56 1.243 . S
O49 Tb0 2.413 . S
O49 C64 1.256 . S
O50 Tb11 2.546 . S
O50 C75 1.251 . S
O51 Tb0 2.362 . S
O51 Tb11 2.610 . S
O51 C67 1.283 . S
O52 Tb0 2.421 . S
O52 C74 1.262 . S
O53 Tb11 2.320 . S
O53 C74 1.260 . S
O54 Tb11 2.552 . S
O54 C67 1.243 . S
O55 Tb11 2.413 . S
O55 C75 1.256 . S
C56 O45 1.283 . S
C56 O48 1.243 . S
C57 C59 1.382 . S
C57 C61 1.393 . S
C57 C64 1.500 . S
C58 C59 1.400 . S
C58 C60 1.384 . S
C59 C57 1.382 . S
C59 C58 1.400 . S
C59 H76 0.930 . S
C60 C58 1.384 . S
C60 C62 1.392 . S
C60 H77 0.931 . S
C61 C57 1.393 . S
C61 C62 1.401 . S
C61 H78 0.930 . S
C62 C60 1.392 . S
C62 C61 1.401 . S
C62 H79 0.930 . S
C63 O46 1.262 . S
C63 O47 1.260 . S
C64 Tb0 2.833 . S
C64 O44 1.251 . S
C64 O49 1.256 . S
C64 C57 1.500 . S
C65 H30 0.929 . S
C65 C43 1.444 . S
C65 C66 1.317 . S
C66 H28 0.930 . S
C66 C34 1.432 . S
C66 C65 1.317 . S
C67 O51 1.283 . S
C67 O54 1.243 . S
C68 C69 1.382 . S
C68 C72 1.393 . S
C68 C75 1.500 . S
C69 C68 1.382 . S
C69 C70 1.400 . S
C69 H80 0.930 . S
C70 C69 1.400 . S
C70 C71 1.384 . S
C71 C70 1.384 . S
C71 C73 1.392 . S
C71 H81 0.931 . S
C72 C68 1.393 . S
C72 C73 1.401 . S
C72 H82 0.930 . S
C73 C71 1.392 . S
C73 C72 1.401 . S
C73 H83 0.930 . S
C74 O52 1.262 . S
C74 O53 1.260 . S
C75 Tb11 2.833 . S
C75 O50 1.251 . S
C75 O55 1.256 . S
C75 C68 1.500 . S
H76 C59 0.930 . S
H77 C60 0.931 . S
H78 C61 0.930 . S
H79 C62 0.930 . S
H80 C69 0.930 . S
H81 C71 0.931 . S
H82 C72 0.930 . S
H83 C73 0.930 . S
Tb84 N115 2.660 . S
Tb84 N122 2.600 . S
Tb84 O128 2.546 . S
Tb84 O129 2.610 1_655 S
Tb84 O131 2.320 . S
Tb84 O132 2.552 1_655 S
Tb84 O133 2.413 . S
Tb84 O135 2.362 1_655 S
Tb84 O136 2.421 1_655 S
Tb84 C148 2.833 . S
C85 C88 1.432 . S
C85 C89 1.414 . S
C85 N92 1.359 . S
C86 C88 1.417 . S
C86 C90 1.432 . S
C86 C98 1.410 . S
C87 C89 1.444 . S
C87 C90 1.317 . S
C87 H110 0.929 . S
C88 C85 1.432 . S
C88 C86 1.417 . S
C88 N96 1.360 . S
C89 C85 1.414 . S
C89 C87 1.444 . S
C89 C94 1.385 . S
C90 C86 1.432 . S
C90 C87 1.317 . S
C90 H102 0.930 . S
C91 C93 1.392 . S
C91 C94 1.370 . S
C91 H103 0.931 . S
N92 C85 1.359 . S
N92 C93 1.327 . S
N92 Tb95 2.600 . S
C93 C91 1.392 . S
C93 N92 1.327 . S
C93 H100 0.930 . S
C94 C89 1.385 . S
C94 C91 1.370 . S
C94 H113 0.930 . S
Tb95 N92 2.600 . S
Tb95 N96 2.660 . S
Tb95 O129 2.362 . S
Tb95 O130 2.421 . S
Tb95 O134 2.546 . S
Tb95 O135 2.610 . S
Tb95 O137 2.320 . S
Tb95 O138 2.552 . S
Tb95 O139 2.413 . S
Tb95 C159 2.833 . S
N96 C88 1.360 . S
N96 Tb95 2.660 . S
N96 C97 1.305 . S
C97 N96 1.305 . S
C97 C99 1.407 . S
C97 H104 0.930 . S
C98 C86 1.410 . S
C98 C99 1.345 . S
C98 H106 0.930 . S
C99 C97 1.407 . S
C99 C98 1.345 . S
C99 H101 0.930 . S
H100 C93 0.930 . S
H101 C99 0.930 . S
H102 C90 0.930 . S
H103 C91 0.931 . S
H104 C97 0.930 . S
H105 C119 0.930 . S
H106 C98 0.930 . S
H107 C125 0.930 1_455 S
H108 C116 0.930 . S
H109 C123 0.931 . S
H110 C87 0.929 . S
H111 C117 0.930 . S
H112 C150 0.930 . S
H113 C94 0.930 . S
H114 C149 0.929 . S
N115 Tb84 2.660 . S
N115 C116 1.305 . S
N115 C120 1.360 . S
C116 H108 0.930 . S
C116 N115 1.305 . S
C116 C119 1.407 . S
C117 H111 0.930 . S
C117 C118 1.410 . S
C117 C119 1.345 . S
C118 C117 1.410 . S
C118 C120 1.417 . S
C118 C150 1.432 . S
C119 H105 0.930 . S
C119 C116 1.407 . S
C119 C117 1.345 . S
C120 N115 1.360 . S
C120 C118 1.417 . S
C120 C124 1.432 . S
H121 C126 0.930 . S
N122 Tb84 2.600 . S
N122 C124 1.359 . S
N122 C125 1.327 . S
C123 H109 0.931 . S
C123 C125 1.392 . S
C123 C126 1.370 . S
C124 C120 1.432 . S
C124 N122 1.359 . S
C124 C127 1.414 . S
C125 H107 0.930 1_655 S
C125 N122 1.327 . S
C125 C123 1.392 . S
C126 H121 0.930 . S
C126 C123 1.370 . S
C126 C127 1.385 . S
C127 C124 1.414 . S
C127 C126 1.385 . S
C127 C149 1.444 . S
O128 Tb84 2.546 . S
O128 C148 1.251 . S
O129 Tb84 2.610 1_455 S
O129 Tb95 2.362 . S
O129 C140 1.283 . S
O130 Tb95 2.421 . S
O130 C147 1.262 1_455 S
O131 Tb84 2.320 . S
O131 C147 1.260 . S
O132 Tb84 2.552 1_455 S
O132 C140 1.243 . S
O133 Tb84 2.413 . S
O133 C148 1.256 . S
O134 Tb95 2.546 . S
O134 C159 1.251 . S
O135 Tb84 2.362 1_455 S
O135 Tb95 2.610 . S
O135 C151 1.283 . S
O136 Tb84 2.421 1_455 S
O136 C158 1.262 . S
O137 Tb95 2.320 . S
O137 C158 1.260 . S
O138 Tb95 2.552 . S
O138 C151 1.243 . S
O139 Tb95 2.413 . S
O139 C159 1.256 . S
C140 O129 1.283 . S
C140 O132 1.243 . S
C141 C143 1.382 . S
C141 C145 1.393 . S
C141 C148 1.500 . S
C142 C143 1.400 . S
C142 C144 1.384 . S
C143 C141 1.382 . S
C143 C142 1.400 . S
C143 H160 0.930 . S
C144 C142 1.384 . S
C144 C146 1.392 . S
C144 H161 0.931 . S
C145 C141 1.393 . S
C145 C146 1.401 . S
C145 H162 0.930 . S
C146 C144 1.392 . S
C146 C145 1.401 . S
C146 H163 0.930 . S
C147 O130 1.262 1_655 S
C147 O131 1.260 . S
C148 Tb84 2.833 . S
C148 O128 1.251 . S
C148 O133 1.256 . S
C148 C141 1.500 . S
C149 H114 0.929 . S
C149 C127 1.444 . S
C149 C150 1.317 . S
C150 H112 0.930 . S
C150 C118 1.432 . S
C150 C149 1.317 . S
C151 O135 1.283 . S
C151 O138 1.243 . S
C152 C153 1.382 . S
C152 C156 1.393 . S
C152 C159 1.500 . S
C153 C152 1.382 . S
C153 C154 1.400 . S
C153 H164 0.930 . S
C154 C153 1.400 . S
C154 C155 1.384 . S
C155 C154 1.384 . S
C155 C157 1.392 . S
C155 H165 0.931 . S
C156 C152 1.393 . S
C156 C157 1.401 . S
C156 H166 0.930 . S
C157 C155 1.392 . S
C157 C156 1.401 . S
C157 H167 0.930 . S
C158 O136 1.262 . S
C158 O137 1.260 . S
C159 Tb95 2.833 . S
C159 O134 1.251 . S
C159 O139 1.256 . S
C159 C152 1.500 . S
H160 C143 0.930 . S
H161 C144 0.931 . S
H162 C145 0.930 . S
H163 C146 0.930 . S
H164 C153 0.930 . S
H165 C155 0.931 . S
H166 C156 0.930 . S
H167 C157 0.930 . S
Tb168 N199 2.660 . S
Tb168 N206 2.600 . S
Tb168 O212 2.546 . S
Tb168 O213 2.610 . S
Tb168 O215 2.320 . S
Tb168 O216 2.552 . S
Tb168 O217 2.413 . S
Tb168 O219 2.365 . S
Tb168 O220 2.421 . S
Tb168 C232 2.833 . S
C169 C172 1.432 1_554 S
C169 C173 1.414 . S
C169 N176 1.359 . S
C170 C172 1.417 . S
C170 C174 1.432 . S
C170 C182 1.410 . S
C171 C173 1.444 . S
C171 C174 1.317 1_554 S
C171 H194 0.929 . S
C172 C169 1.432 1_556 S
C172 C170 1.417 . S
C172 N180 1.360 . S
C173 C169 1.414 . S
C173 C171 1.444 . S
C173 C178 1.385 . S
C174 C170 1.432 . S
C174 C171 1.317 1_556 S
C174 H186 0.930 . S
C175 C177 1.392 . S
C175 C178 1.370 . S
C175 H187 0.931 . S
N176 C169 1.359 . S
N176 C177 1.327 . S
N176 Tb179 2.600 . S
C177 C175 1.392 . S
C177 N176 1.327 . S
C177 H184 0.930 . S
C178 C173 1.385 . S
C178 C175 1.370 . S
C178 H197 0.930 . S
Tb179 N176 2.600 . S
Tb179 N180 2.660 1_554 S
Tb179 O213 2.362 1_554 S
Tb179 O214 2.421 . S
Tb179 O218 2.546 . S
Tb179 O219 2.609 1_554 S
Tb179 O221 2.320 1_554 S
Tb179 O222 2.552 . S
Tb179 O223 2.413 . S
Tb179 C243 2.833 . S
N180 C172 1.360 . S
N180 Tb179 2.660 1_556 S
N180 C181 1.305 . S
C181 N180 1.305 . S
C181 C183 1.407 . S
C181 H188 0.930 . S
C182 C170 1.410 . S
C182 C183 1.345 . S
C182 H190 0.930 . S
C183 C181 1.407 . S
C183 C182 1.345 . S
C183 H185 0.930 . S
H184 C177 0.930 . S
H185 C183 0.930 . S
H186 C174 0.930 . S
H187 C175 0.931 . S
H188 C181 0.930 . S
H189 C203 0.930 . S
H190 C182 0.930 . S
H191 C209 0.930 . S
H192 C200 0.930 . S
H193 C207 0.931 . S
H194 C171 0.929 . S
H195 C201 0.930 . S
H196 C234 0.930 . S
H197 C178 0.930 . S
H198 C233 0.929 . S
N199 Tb168 2.660 . S
N199 C200 1.305 1_556 S
N199 C204 1.360 . S
C200 H192 0.930 . S
C200 N199 1.305 1_554 S
C200 C203 1.407 . S
C201 H195 0.930 . S
C201 C202 1.410 1_554 S
C201 C203 1.345 . S
C202 C201 1.410 1_556 S
C202 C204 1.417 . S
C202 C234 1.432 . S
C203 H189 0.930 . S
C203 C200 1.407 . S
C203 C201 1.345 . S
C204 N199 1.360 . S
C204 C202 1.417 . S
C204 C208 1.432 . S
H205 C210 0.930 . S
N206 Tb168 2.600 . S
N206 C208 1.359 . S
N206 C209 1.327 . S
C207 H193 0.931 . S
C207 C209 1.392 . S
C207 C210 1.370 . S
C208 C204 1.432 . S
C208 N206 1.359 . S
C208 C211 1.414 . S
C209 H191 0.930 . S
C209 N206 1.327 . S
C209 C207 1.392 . S
C210 H205 0.930 . S
C210 C207 1.370 . S
C210 C211 1.385 . S
C211 C208 1.414 . S
C211 C210 1.385 . S
C211 C233 1.444 . S
O212 Tb168 2.546 . S
O212 C232 1.251 . S
O213 Tb168 2.610 . S
O213 Tb179 2.362 1_556 S
O213 C224 1.283 . S
O214 Tb179 2.421 . S
O214 C231 1.288 . S
O215 Tb168 2.320 . S
O215 C231 1.235 1_556 S
O216 Tb168 2.552 . S
O216 C224 1.243 . S
O217 Tb168 2.413 . S
O217 C232 1.256 . S
O218 Tb179 2.546 . S
O218 C243 1.251 . S
O219 Tb168 2.365 . S
O219 Tb179 2.609 1_556 S
O219 C235 1.279 1_556 S
O220 Tb168 2.421 . S
O220 C242 1.262 . S
O221 Tb179 2.320 1_556 S
O221 C242 1.260 . S
O222 Tb179 2.552 . S
O222 C235 1.243 . S
O223 Tb179 2.413 . S
O223 C243 1.256 . S
C224 O213 1.283 . S
C224 O216 1.243 . S
C225 C227 1.382 . S
C225 C229 1.393 . S
C225 C232 1.500 . S
C226 C227 1.400 . S
C226 C228 1.384 . S
C227 C225 1.382 . S
C227 C226 1.400 . S
C227 H244 0.930 . S
C228 C226 1.384 . S
C228 C230 1.392 . S
C228 H245 0.931 . S
C229 C225 1.393 . S
C229 C230 1.401 . S
C229 H246 0.930 . S
C230 C228 1.392 . S
C230 C229 1.401 . S
C230 H247 0.930 . S
C231 O214 1.288 . S
C231 O215 1.235 1_554 S
C232 Tb168 2.833 . S
C232 O212 1.251 . S
C232 O217 1.256 . S
C232 C225 1.500 . S
C233 H198 0.929 . S
C233 C211 1.444 . S
C233 C234 1.317 . S
C234 H196 0.930 . S
C234 C202 1.432 . S
C234 C233 1.317 . S
C235 O219 1.279 1_554 S
C235 O222 1.243 . S
C236 C237 1.382 . S
C236 C240 1.393 . S
C236 C243 1.500 . S
C237 C236 1.382 . S
C237 C238 1.400 . S
C237 H248 0.930 . S
C238 C237 1.400 . S
C238 C239 1.384 . S
C239 C238 1.384 . S
C239 C241 1.392 . S
C239 H249 0.931 . S
C240 C236 1.393 . S
C240 C241 1.401 . S
C240 H250 0.930 . S
C241 C239 1.392 . S
C241 C240 1.401 . S
C241 H251 0.930 . S
C242 O220 1.262 . S
C242 O221 1.260 . S
C243 Tb179 2.833 . S
C243 O218 1.251 . S
C243 O223 1.256 . S
C243 C236 1.500 . S
H244 C227 0.930 . S
H245 C228 0.931 . S
H246 C229 0.930 . S
H247 C230 0.930 . S
H248 C237 0.930 . S
H249 C239 0.931 . S
H250 C240 0.930 . S
H251 C241 0.930 . S
Tb252 N283 2.660 . S
Tb252 N290 2.600 . S
Tb252 O296 2.546 . S
Tb252 O297 2.610 . S
Tb252 O299 2.320 . S
Tb252 O300 2.552 . S
Tb252 O301 2.413 . S
Tb252 O303 2.362 . S
Tb252 O304 2.421 . S
Tb252 C316 2.833 . S
C253 C256 1.432 . S
C253 C257 1.414 . S
C253 N260 1.359 . S
C254 C256 1.417 . S
C254 C258 1.432 . S
C254 C266 1.410 . S
C255 C257 1.444 . S
C255 C258 1.317 . S
C255 H278 0.929 . S
C256 C253 1.432 . S
C256 C254 1.417 . S
C256 N264 1.360 . S
C257 C253 1.414 . S
C257 C255 1.444 . S
C257 C262 1.385 . S
C258 C254 1.432 . S
C258 C255 1.317 . S
C258 H270 0.930 . S
C259 C261 1.392 . S
C259 C262 1.370 . S
C259 H271 0.931 . S
N260 C253 1.359 . S
N260 C261 1.327 . S
N260 Tb263 2.600 . S
C261 C259 1.392 . S
C261 N260 1.327 . S
C261 H268 0.930 . S
C262 C257 1.385 . S
C262 C259 1.370 . S
C262 H281 0.930 . S
Tb263 N260 2.600 . S
Tb263 N264 2.660 . S
Tb263 O297 2.362 . S
Tb263 O298 2.421 . S
Tb263 O302 2.546 . S
Tb263 O303 2.610 . S
Tb263 O305 2.320 . S
Tb263 O306 2.552 . S
Tb263 O307 2.413 . S
Tb263 C327 2.833 . S
N264 C256 1.360 . S
N264 Tb263 2.660 . S
N264 C265 1.305 . S
C265 N264 1.305 . S
C265 C267 1.407 . S
C265 H272 0.930 . S
C266 C254 1.410 . S
C266 C267 1.345 . S
C266 H274 0.930 . S
C267 C265 1.407 . S
C267 C266 1.345 . S
C267 H269 0.930 . S
H268 C261 0.930 . S
H269 C267 0.930 . S
H270 C258 0.930 . S
H271 C259 0.931 . S
H272 C265 0.930 . S
H273 C287 0.930 . S
H274 C266 0.930 . S
H275 C293 0.930 . S
H276 C284 0.930 . S
H277 C291 0.931 . S
H278 C255 0.929 . S
H279 C285 0.930 . S
H280 C318 0.930 . S
H281 C262 0.930 . S
H282 C317 0.929 . S
N283 Tb252 2.660 . S
N283 C284 1.305 . S
N283 C288 1.360 . S
C284 H276 0.930 . S
C284 N283 1.305 . S
C284 C287 1.407 . S
C285 H279 0.930 . S
C285 C286 1.410 . S
C285 C287 1.345 . S
C286 C285 1.410 . S
C286 C288 1.417 . S
C286 C318 1.432 . S
C287 H273 0.930 . S
C287 C284 1.407 . S
C287 C285 1.345 . S
C288 N283 1.360 . S
C288 C286 1.417 . S
C288 C292 1.432 . S
H289 C294 0.930 . S
N290 Tb252 2.600 . S
N290 C292 1.359 . S
N290 C293 1.327 . S
C291 H277 0.931 . S
C291 C293 1.392 . S
C291 C294 1.370 . S
C292 C288 1.432 . S
C292 N290 1.359 . S
C292 C295 1.414 . S
C293 H275 0.930 . S
C293 N290 1.327 . S
C293 C291 1.392 . S
C294 H289 0.930 . S
C294 C291 1.370 . S
C294 C295 1.385 . S
C295 C292 1.414 . S
C295 C294 1.385 . S
C295 C317 1.444 . S
O296 Tb252 2.546 . S
O296 C316 1.251 . S
O297 Tb252 2.610 . S
O297 Tb263 2.362 . S
O297 C308 1.283 . S
O298 Tb263 2.421 . S
O298 C315 1.262 . S
O299 Tb252 2.320 . S
O299 C315 1.260 . S
O300 Tb252 2.552 . S
O300 C308 1.243 . S
O301 Tb252 2.413 . S
O301 C316 1.256 . S
O302 Tb263 2.546 . S
O302 C327 1.251 . S
O303 Tb252 2.362 . S
O303 Tb263 2.610 . S
O303 C319 1.283 . S
O304 Tb252 2.421 . S
O304 C326 1.262 . S
O305 Tb263 2.320 . S
O305 C326 1.260 . S
O306 Tb263 2.552 . S
O306 C319 1.243 . S
O307 Tb263 2.413 . S
O307 C327 1.256 . S
C308 O297 1.283 . S
C308 O300 1.243 . S
C309 C311 1.382 . S
C309 C313 1.393 . S
C309 C316 1.500 . S
C310 C311 1.400 . S
C310 C312 1.384 . S
C311 C309 1.382 . S
C311 C310 1.400 . S
C311 H328 0.930 . S
C312 C310 1.384 . S
C312 C314 1.392 . S
C312 H329 0.931 . S
C313 C309 1.393 . S
C313 C314 1.401 . S
C313 H330 0.930 . S
C314 C312 1.392 . S
C314 C313 1.401 . S
C314 H331 0.930 . S
C315 O298 1.262 . S
C315 O299 1.260 . S
C316 Tb252 2.833 . S
C316 O296 1.251 . S
C316 O301 1.256 . S
C316 C309 1.500 . S
C317 H282 0.929 . S
C317 C295 1.444 . S
C317 C318 1.317 . S
C318 H280 0.930 . S
C318 C286 1.432 . S
C318 C317 1.317 . S
C319 O303 1.283 . S
C319 O306 1.243 . S
C320 C321 1.382 . S
C320 C324 1.393 . S
C320 C327 1.500 . S
C321 C320 1.382 . S
C321 C322 1.400 . S
C321 H332 0.930 . S
C322 C321 1.400 . S
C322 C323 1.384 . S
C323 C322 1.384 . S
C323 C325 1.392 . S
C323 H333 0.931 . S
C324 C320 1.393 . S
C324 C325 1.401 . S
C324 H334 0.930 . S
C325 C323 1.392 . S
C325 C324 1.401 . S
C325 H335 0.930 . S
C326 O304 1.262 . S
C326 O305 1.260 . S
C327 Tb263 2.833 . S
C327 O302 1.251 . S
C327 O307 1.256 . S
C327 C320 1.500 . S
H328 C311 0.930 . S
H329 C312 0.931 . S
H330 C313 0.930 . S
H331 C314 0.930 . S
H332 C321 0.930 . S
H333 C323 0.931 . S
H334 C324 0.930 . S
H335 C325 0.930 . S
Tb336 N367 2.660 . S
Tb336 N374 2.600 . S
Tb336 O380 2.546 . S
Tb336 O381 2.610 . S
Tb336 O383 2.320 . S
Tb336 O384 2.552 . S
Tb336 O385 2.413 . S
Tb336 O387 2.362 . S
Tb336 O388 2.421 . S
Tb336 C400 2.833 . S
C337 C340 1.432 . S
C337 C341 1.414 . S
C337 N344 1.359 . S
C338 C340 1.417 . S
C338 C342 1.432 . S
C338 C350 1.410 . S
C339 C341 1.444 . S
C339 C342 1.317 . S
C339 H362 0.929 . S
C340 C337 1.432 . S
C340 C338 1.417 . S
C340 N348 1.360 . S
C341 C337 1.414 . S
C341 C339 1.444 . S
C341 C346 1.385 . S
C342 C338 1.432 . S
C342 C339 1.317 . S
C342 H354 0.930 . S
C343 C345 1.392 . S
C343 C346 1.370 . S
C343 H355 0.931 . S
N344 C337 1.359 . S
N344 C345 1.327 . S
N344 Tb347 2.600 . S
C345 C343 1.392 . S
C345 N344 1.327 . S
C345 H352 0.930 . S
C346 C341 1.385 . S
C346 C343 1.370 . S
C346 H365 0.930 . S
Tb347 N344 2.600 . S
Tb347 N348 2.660 . S
Tb347 O381 2.362 . S
Tb347 O382 2.421 . S
Tb347 O386 2.546 . S
Tb347 O387 2.610 . S
Tb347 O389 2.320 . S
Tb347 O390 2.552 . S
Tb347 O391 2.413 . S
Tb347 C411 2.833 . S
N348 C340 1.360 . S
N348 Tb347 2.660 . S
N348 C349 1.305 . S
C349 N348 1.305 . S
C349 C351 1.407 . S
C349 H356 0.930 . S
C350 C338 1.410 . S
C350 C351 1.345 . S
C350 H358 0.930 . S
C351 C349 1.407 . S
C351 C350 1.345 . S
C351 H353 0.930 . S
H352 C345 0.930 . S
H353 C351 0.930 . S
H354 C342 0.930 . S
H355 C343 0.931 . S
H356 C349 0.930 . S
H357 C371 0.930 . S
H358 C350 0.930 . S
H359 C377 0.930 . S
H360 C368 0.930 . S
H361 C375 0.931 . S
H362 C339 0.929 . S
H363 C369 0.930 . S
H364 C402 0.930 . S
H365 C346 0.930 . S
H366 C401 0.929 . S
N367 Tb336 2.660 . S
N367 C368 1.305 . S
N367 C372 1.360 . S
C368 H360 0.930 . S
C368 N367 1.305 . S
C368 C371 1.407 . S
C369 H363 0.930 . S
C369 C370 1.410 . S
C369 C371 1.345 . S
C370 C369 1.410 . S
C370 C372 1.417 . S
C370 C402 1.432 . S
C371 H357 0.930 . S
C371 C368 1.407 . S
C371 C369 1.345 . S
C372 N367 1.360 . S
C372 C370 1.417 . S
C372 C376 1.432 . S
H373 C378 0.930 . S
N374 Tb336 2.600 . S
N374 C376 1.359 . S
N374 C377 1.327 . S
C375 H361 0.931 . S
C375 C377 1.392 . S
C375 C378 1.370 . S
C376 C372 1.432 . S
C376 N374 1.359 . S
C376 C379 1.414 . S
C377 H359 0.930 . S
C377 N374 1.327 . S
C377 C375 1.392 . S
C378 H373 0.930 . S
C378 C375 1.370 . S
C378 C379 1.385 . S
C379 C376 1.414 . S
C379 C378 1.385 . S
C379 C401 1.444 . S
O380 Tb336 2.546 . S
O380 C400 1.251 . S
O381 Tb336 2.610 . S
O381 Tb347 2.362 . S
O381 C392 1.283 . S
O382 Tb347 2.421 . S
O382 C399 1.262 . S
O383 Tb336 2.320 . S
O383 C399 1.260 . S
O384 Tb336 2.552 . S
O384 C392 1.243 . S
O385 Tb336 2.413 . S
O385 C400 1.256 . S
O386 Tb347 2.546 . S
O386 C411 1.251 . S
O387 Tb336 2.362 . S
O387 Tb347 2.610 . S
O387 C403 1.283 . S
O388 Tb336 2.421 . S
O388 C410 1.262 . S
O389 Tb347 2.320 . S
O389 C410 1.260 . S
O390 Tb347 2.552 . S
O390 C403 1.243 . S
O391 Tb347 2.413 . S
O391 C411 1.256 . S
C392 O381 1.283 . S
C392 O384 1.243 . S
C393 C395 1.382 . S
C393 C397 1.393 . S
C393 C400 1.500 . S
C394 C395 1.400 . S
C394 C396 1.384 . S
C395 C393 1.382 . S
C395 C394 1.400 . S
C395 H412 0.930 . S
C396 C394 1.384 . S
C396 C398 1.392 . S
C396 H413 0.931 . S
C397 C393 1.393 . S
C397 C398 1.401 . S
C397 H414 0.930 . S
C398 C396 1.392 . S
C398 C397 1.401 . S
C398 H415 0.930 . S
C399 O382 1.262 . S
C399 O383 1.260 . S
C400 Tb336 2.833 . S
C400 O380 1.251 . S
C400 O385 1.256 . S
C400 C393 1.500 . S
C401 H366 0.929 . S
C401 C379 1.444 . S
C401 C402 1.317 . S
C402 H364 0.930 . S
C402 C370 1.432 . S
C402 C401 1.317 . S
C403 O387 1.283 . S
C403 O390 1.243 . S
C404 C405 1.382 . S
C404 C408 1.393 . S
C404 C411 1.500 . S
C405 C404 1.382 . S
C405 C406 1.400 . S
C405 H416 0.930 . S
C406 C405 1.400 . S
C406 C407 1.384 . S
C407 C406 1.384 . S
C407 C409 1.392 . S
C407 H417 0.931 . S
C408 C404 1.393 . S
C408 C409 1.401 . S
C408 H418 0.930 . S
C409 C407 1.392 . S
C409 C408 1.401 . S
C409 H419 0.930 . S
C410 O388 1.262 . S
C410 O389 1.260 . S
C411 Tb347 2.833 . S
C411 O386 1.251 . S
C411 O391 1.256 . S
C411 C404 1.500 . S
H412 C395 0.930 . S
H413 C396 0.931 . S
H414 C397 0.930 . S
H415 C398 0.930 . S
H416 C405 0.930 . S
H417 C407 0.931 . S
H418 C408 0.930 . S
H419 C409 0.930 . S
Tb420 N451 2.660 . S
Tb420 N458 2.600 . S
Tb420 O464 2.546 . S
Tb420 O465 2.610 . S
Tb420 O467 2.320 . S
Tb420 O468 2.552 . S
Tb420 O469 2.413 . S
Tb420 O471 2.354 1_655 S
Tb420 O472 2.421 . S
Tb420 C484 2.833 . S
C421 C424 1.432 1_455 S
C421 C425 1.414 . S
C421 N428 1.359 . S
C422 C424 1.417 . S
C422 C426 1.432 . S
C422 C434 1.410 . S
C423 C425 1.444 . S
C423 C426 1.317 1_455 S
C423 H446 0.929 . S
C424 C421 1.432 1_655 S
C424 C422 1.417 . S
C424 N432 1.360 . S
C425 C421 1.414 . S
C425 C423 1.444 . S
C425 C430 1.385 . S
C426 C422 1.432 . S
C426 C423 1.317 1_655 S
C426 H438 0.930 . S
C427 C429 1.392 . S
C427 C430 1.370 . S
C427 H439 0.931 . S
N428 C421 1.359 . S
N428 C429 1.327 . S
N428 Tb431 2.600 . S
C429 C427 1.392 . S
C429 N428 1.327 . S
C429 H436 0.930 . S
C430 C425 1.385 . S
C430 C427 1.370 . S
C430 H449 0.930 . S
Tb431 N428 2.600 . S
Tb431 N432 2.660 1_455 S
Tb431 O465 2.362 1_455 S
Tb431 O466 2.421 . S
Tb431 O470 2.546 . S
Tb431 O471 2.611 . S
Tb431 O473 2.320 1_455 S
Tb431 O474 2.552 . S
Tb431 O475 2.413 . S
Tb431 C495 2.833 . S
N432 C424 1.360 . S
N432 Tb431 2.660 1_655 S
N432 C433 1.305 . S
C433 N432 1.305 . S
C433 C435 1.407 . S
C433 H440 0.930 . S
C434 C422 1.410 . S
C434 C435 1.345 . S
C434 H442 0.930 . S
C435 C433 1.407 . S
C435 C434 1.345 . S
C435 H437 0.930 . S
H436 C429 0.930 . S
H437 C435 0.930 . S
H438 C426 0.930 . S
H439 C427 0.931 . S
H440 C433 0.930 . S
H441 C455 0.930 . S
H442 C434 0.930 . S
H443 C461 0.930 . S
H444 C452 0.930 . S
H445 C459 0.931 . S
H446 C423 0.929 . S
H447 C453 0.930 . S
H448 C486 0.930 . S
H449 C430 0.930 . S
H450 C485 0.929 . S
N451 Tb420 2.660 . S
N451 C452 1.305 1_655 S
N451 C456 1.360 . S
C452 H444 0.930 . S
C452 N451 1.305 1_455 S
C452 C455 1.407 . S
C453 H447 0.930 . S
C453 C454 1.410 1_455 S
C453 C455 1.345 . S
C454 C453 1.410 1_655 S
C454 C456 1.417 . S
C454 C486 1.432 . S
C455 H441 0.930 . S
C455 C452 1.407 . S
C455 C453 1.345 . S
C456 N451 1.360 . S
C456 C454 1.417 . S
C456 C460 1.432 . S
H457 C462 0.930 . S
N458 Tb420 2.600 . S
N458 C460 1.359 . S
N458 C461 1.327 . S
C459 H445 0.931 . S
C459 C461 1.392 . S
C459 C462 1.370 . S
C460 C456 1.432 . S
C460 N458 1.359 . S
C460 C463 1.414 . S
C461 H443 0.930 . S
C461 N458 1.327 . S
C461 C459 1.392 . S
C462 H457 0.930 . S
C462 C459 1.370 . S
C462 C463 1.385 . S
C463 C460 1.414 . S
C463 C462 1.385 . S
C463 C485 1.444 . S
O464 Tb420 2.546 . S
O464 C484 1.251 . S
O465 Tb420 2.610 . S
O465 Tb431 2.362 1_655 S
O465 C476 1.283 . S
O466 Tb431 2.421 . S
O466 C483 1.262 . S
O467 Tb420 2.320 . S
O467 C483 1.260 1_655 S
O468 Tb420 2.552 . S
O468 C476 1.243 . S
O469 Tb420 2.413 . S
O469 C484 1.256 . S
O470 Tb431 2.546 . S
O470 C495 1.251 . S
O471 Tb420 2.354 1_455 S
O471 Tb431 2.611 . S
O471 C487 1.291 . S
O472 Tb420 2.421 . S
O472 C494 1.262 . S
O473 Tb431 2.320 1_655 S
O473 C494 1.260 . S
O474 Tb431 2.552 . S
O474 C487 1.243 . S
O475 Tb431 2.413 . S
O475 C495 1.256 . S
C476 O465 1.283 . S
C476 O468 1.243 . S
C477 C479 1.382 . S
C477 C481 1.393 . S
C477 C484 1.500 . S
C478 C479 1.400 . S
C478 C480 1.384 . S
C479 C477 1.382 . S
C479 C478 1.400 . S
C479 H496 0.930 . S
C480 C478 1.384 . S
C480 C482 1.392 . S
C480 H497 0.931 . S
C481 C477 1.393 . S
C481 C482 1.401 . S
C481 H498 0.930 . S
C482 C480 1.392 . S
C482 C481 1.401 . S
C482 H499 0.930 . S
C483 O466 1.262 . S
C483 O467 1.260 1_455 S
C484 Tb420 2.833 . S
C484 O464 1.251 . S
C484 O469 1.256 . S
C484 C477 1.500 . S
C485 H450 0.929 . S
C485 C463 1.444 . S
C485 C486 1.317 . S
C486 H448 0.930 . S
C486 C454 1.432 . S
C486 C485 1.317 . S
C487 O471 1.291 . S
C487 O474 1.243 . S
C488 C489 1.382 . S
C488 C492 1.393 . S
C488 C495 1.500 . S
C489 C488 1.382 . S
C489 C490 1.400 . S
C489 H500 0.930 . S
C490 C489 1.400 . S
C490 C491 1.384 . S
C491 C490 1.384 . S
C491 C493 1.392 . S
C491 H501 0.931 . S
C492 C488 1.393 . S
C492 C493 1.401 . S
C492 H502 0.930 . S
C493 C491 1.392 . S
C493 C492 1.401 . S
C493 H503 0.930 . S
C494 O472 1.262 . S
C494 O473 1.260 . S
C495 Tb431 2.833 . S
C495 O470 1.251 . S
C495 O475 1.256 . S
C495 C488 1.500 . S
H496 C479 0.930 . S
H497 C480 0.931 . S
H498 C481 0.930 . S
H499 C482 0.930 . S
H500 C489 0.930 . S
H501 C491 0.931 . S
H502 C492 0.930 . S
H503 C493 0.930 . S
Tb504 N535 2.660 . S
Tb504 N542 2.600 . S
Tb504 O548 2.546 . S
Tb504 O549 2.610 . S
Tb504 O551 2.320 . S
Tb504 O552 2.552 . S
Tb504 O553 2.413 . S
Tb504 O555 2.362 . S
Tb504 O556 2.421 . S
Tb504 C568 2.833 . S
C505 C508 1.432 1_556 S
C505 C509 1.414 . S
C505 N512 1.359 . S
C506 C508 1.417 . S
C506 C510 1.432 . S
C506 C518 1.410 . S
C507 C509 1.424 1_554 S
C507 C510 1.348 . S
C507 H530 0.920 1_554 S
C508 C505 1.432 1_554 S
C508 C506 1.417 . S
C508 N516 1.360 . S
C509 C505 1.414 . S
C509 C507 1.424 1_556 S
C509 C514 1.385 . S
C510 C506 1.432 . S
C510 C507 1.348 . S
C510 H522 0.930 . S
C511 C513 1.392 . S
C511 C514 1.370 . S
C511 H523 0.931 . S
N512 C505 1.359 . S
N512 C513 1.327 . S
N512 Tb515 2.600 . S
C513 C511 1.392 . S
C513 N512 1.327 . S
C513 H520 0.930 . S
C514 C509 1.385 . S
C514 C511 1.370 . S
C514 H533 0.930 . S
Tb515 N512 2.600 . S
Tb515 N516 2.660 1_556 S
Tb515 O549 2.362 1_556 S
Tb515 O550 2.421 . S
Tb515 O554 2.546 . S
Tb515 O555 2.610 1_556 S
Tb515 O557 2.320 1_556 S
Tb515 O558 2.552 . S
Tb515 O559 2.413 . S
Tb515 C579 2.833 . S
N516 C508 1.360 . S
N516 Tb515 2.660 1_554 S
N516 C517 1.305 . S
C517 N516 1.305 . S
C517 C519 1.407 . S
C517 H524 0.930 . S
C518 C506 1.410 . S
C518 C519 1.345 . S
C518 H526 0.930 . S
C519 C517 1.407 . S
C519 C518 1.345 . S
C519 H521 0.930 . S
H520 C513 0.930 . S
H521 C519 0.930 . S
H522 C510 0.930 . S
H523 C511 0.931 . S
H524 C517 0.930 . S
H525 C539 0.930 . S
H526 C518 0.930 . S
H527 C545 0.930 . S
H528 C536 0.930 . S
H529 C543 0.931 . S
H530 C507 0.920 1_556 S
H531 C537 0.930 . S
H532 C570 0.930 . S
H533 C514 0.930 . S
H534 C569 0.929 . S
N535 Tb504 2.660 . S
N535 C536 1.305 1_554 S
N535 C540 1.360 . S
C536 H528 0.930 . S
C536 N535 1.305 1_556 S
C536 C539 1.407 . S
C537 H531 0.930 . S
C537 C538 1.410 1_556 S
C537 C539 1.345 . S
C538 C537 1.410 1_554 S
C538 C540 1.417 . S
C538 C570 1.432 . S
C539 H525 0.930 . S
C539 C536 1.407 . S
C539 C537 1.345 . S
C540 N535 1.360 . S
C540 C538 1.417 . S
C540 C544 1.432 . S
H541 C546 0.930 . S
N542 Tb504 2.600 . S
N542 C544 1.359 . S
N542 C545 1.327 . S
C543 H529 0.931 . S
C543 C545 1.392 . S
C543 C546 1.370 . S
C544 C540 1.432 . S
C544 N542 1.359 . S
C544 C547 1.414 . S
C545 H527 0.930 . S
C545 N542 1.327 . S
C545 C543 1.392 . S
C546 H541 0.930 . S
C546 C543 1.370 . S
C546 C547 1.385 . S
C547 C544 1.414 . S
C547 C546 1.385 . S
C547 C569 1.444 . S
O548 Tb504 2.546 . S
O548 C568 1.251 . S
O549 Tb504 2.610 . S
O549 Tb515 2.362 1_554 S
O549 C560 1.283 . S
O550 Tb515 2.421 . S
O550 C567 1.262 1_556 S
O551 Tb504 2.320 . S
O551 C567 1.260 . S
O552 Tb504 2.552 . S
O552 C560 1.243 . S
O553 Tb504 2.413 . S
O553 C568 1.256 . S
O554 Tb515 2.546 . S
O554 C579 1.251 . S
O555 Tb504 2.362 . S
O555 Tb515 2.610 1_554 S
O555 C571 1.283 1_554 S
O556 Tb504 2.421 . S
O556 C578 1.262 . S
O557 Tb515 2.320 1_554 S
O557 C578 1.260 . S
O558 Tb515 2.552 . S
O558 C571 1.243 . S
O559 Tb515 2.413 . S
O559 C579 1.256 . S
C560 O549 1.283 . S
C560 O552 1.243 . S
C561 C563 1.382 . S
C561 C565 1.393 . S
C561 C568 1.500 . S
C562 C563 1.400 . S
C562 C564 1.384 . S
C563 C561 1.382 . S
C563 C562 1.400 . S
C563 H580 0.930 . S
C564 C562 1.384 . S
C564 C566 1.392 . S
C564 H581 0.931 . S
C565 C561 1.393 . S
C565 C566 1.401 . S
C565 H582 0.930 . S
C566 C564 1.392 . S
C566 C565 1.401 . S
C566 H583 0.930 . S
C567 O550 1.262 1_554 S
C567 O551 1.260 . S
C568 Tb504 2.833 . S
C568 O548 1.251 . S
C568 O553 1.256 . S
C568 C561 1.500 . S
C569 H534 0.929 . S
C569 C547 1.444 . S
C569 C570 1.317 . S
C570 H532 0.930 . S
C570 C538 1.432 . S
C570 C569 1.317 . S
C571 O555 1.283 1_556 S
C571 O558 1.243 . S
C572 C573 1.382 . S
C572 C576 1.393 . S
C572 C579 1.500 . S
C573 C572 1.382 . S
C573 C574 1.400 . S
C573 H584 0.930 . S
C574 C573 1.400 . S
C574 C575 1.384 . S
C575 C574 1.384 . S
C575 C577 1.392 . S
C575 H585 0.931 . S
C576 C572 1.393 . S
C576 C577 1.401 . S
C576 H586 0.930 . S
C577 C575 1.392 . S
C577 C576 1.401 . S
C577 H587 0.930 . S
C578 O556 1.262 . S
C578 O557 1.260 . S
C579 Tb515 2.833 . S
C579 O554 1.251 . S
C579 O559 1.256 . S
C579 C572 1.500 . S
H580 C563 0.930 . S
H581 C564 0.931 . S
H582 C565 0.930 . S
H583 C566 0.930 . S
H584 C573 0.930 . S
H585 C575 0.931 . S
H586 C576 0.930 . S
H587 C577 0.930 . S
Tb588 N619 2.660 . S
Tb588 N626 2.600 . S
Tb588 O632 2.546 . S
Tb588 O633 2.610 . S
Tb588 O635 2.320 . S
Tb588 O636 2.552 . S
Tb588 O637 2.413 . S
Tb588 O639 2.362 . S
Tb588 O640 2.421 . S
Tb588 C652 2.833 . S
C589 C592 1.432 . S
C589 C593 1.414 . S
C589 N596 1.359 . S
C590 C592 1.417 . S
C590 C594 1.432 . S
C590 C602 1.410 . S
C591 C593 1.444 . S
C591 C594 1.317 . S
C591 H614 0.929 . S
C592 C589 1.432 . S
C592 C590 1.417 . S
C592 N600 1.360 . S
C593 C589 1.414 . S
C593 C591 1.444 . S
C593 C598 1.385 . S
C594 C590 1.432 . S
C594 C591 1.317 . S
C594 H606 0.930 . S
C595 C597 1.392 . S
C595 C598 1.370 . S
C595 H607 0.931 . S
N596 C589 1.359 . S
N596 C597 1.327 . S
N596 Tb599 2.600 . S
C597 C595 1.392 . S
C597 N596 1.327 . S
C597 H604 0.930 . S
C598 C593 1.385 . S
C598 C595 1.370 . S
C598 H617 0.930 . S
Tb599 N596 2.600 . S
Tb599 N600 2.660 . S
Tb599 O633 2.362 . S
Tb599 O634 2.421 . S
Tb599 O638 2.546 . S
Tb599 O639 2.610 . S
Tb599 O641 2.320 . S
Tb599 O642 2.552 . S
Tb599 O643 2.413 . S
Tb599 C663 2.833 . S
N600 C592 1.360 . S
N600 Tb599 2.660 . S
N600 C601 1.305 . S
C601 N600 1.305 . S
C601 C603 1.407 . S
C601 H608 0.930 . S
C602 C590 1.410 . S
C602 C603 1.345 . S
C602 H610 0.930 . S
C603 C601 1.407 . S
C603 C602 1.345 . S
C603 H605 0.930 . S
H604 C597 0.930 . S
H605 C603 0.930 . S
H606 C594 0.930 . S
H607 C595 0.931 . S
H608 C601 0.930 . S
H609 C623 0.930 . S
H610 C602 0.930 . S
H611 C629 0.930 . S
H612 C620 0.930 . S
H613 C627 0.931 . S
H614 C591 0.929 . S
H615 C621 0.930 . S
H616 C654 0.930 . S
H617 C598 0.930 . S
H618 C653 0.929 . S
N619 Tb588 2.660 . S
N619 C620 1.305 . S
N619 C624 1.360 . S
C620 H612 0.930 . S
C620 N619 1.305 . S
C620 C623 1.407 . S
C621 H615 0.930 . S
C621 C622 1.410 . S
C621 C623 1.345 . S
C622 C621 1.410 . S
C622 C624 1.417 . S
C622 C654 1.432 . S
C623 H609 0.930 . S
C623 C620 1.407 . S
C623 C621 1.345 . S
C624 N619 1.360 . S
C624 C622 1.417 . S
C624 C628 1.432 . S
H625 C630 0.930 . S
N626 Tb588 2.600 . S
N626 C628 1.359 . S
N626 C629 1.327 . S
C627 H613 0.931 . S
C627 C629 1.392 . S
C627 C630 1.370 . S
C628 C624 1.432 . S
C628 N626 1.359 . S
C628 C631 1.414 . S
C629 H611 0.930 . S
C629 N626 1.327 . S
C629 C627 1.392 . S
C630 H625 0.930 . S
C630 C627 1.370 . S
C630 C631 1.385 . S
C631 C628 1.414 . S
C631 C630 1.385 . S
C631 C653 1.444 . S
O632 Tb588 2.546 . S
O632 C652 1.251 . S
O633 Tb588 2.610 . S
O633 Tb599 2.362 . S
O633 C644 1.283 . S
O634 Tb599 2.421 . S
O634 C651 1.262 . S
O635 Tb588 2.320 . S
O635 C651 1.260 . S
O636 Tb588 2.552 . S
O636 C644 1.243 . S
O637 Tb588 2.413 . S
O637 C652 1.256 . S
O638 Tb599 2.546 . S
O638 C663 1.251 . S
O639 Tb588 2.362 . S
O639 Tb599 2.610 . S
O639 C655 1.283 . S
O640 Tb588 2.421 . S
O640 C662 1.262 . S
O641 Tb599 2.320 . S
O641 C662 1.260 . S
O642 Tb599 2.552 . S
O642 C655 1.243 . S
O643 Tb599 2.413 . S
O643 C663 1.256 . S
C644 O633 1.283 . S
C644 O636 1.243 . S
C645 C647 1.382 . S
C645 C649 1.393 . S
C645 C652 1.500 . S
C646 C647 1.400 . S
C646 C648 1.384 . S
C647 C645 1.382 . S
C647 C646 1.400 . S
C647 H664 0.930 . S
C648 C646 1.384 . S
C648 C650 1.392 . S
C648 H665 0.931 . S
C649 C645 1.393 . S
C649 C650 1.401 . S
C649 H666 0.930 . S
C650 C648 1.392 . S
C650 C649 1.401 . S
C650 H667 0.930 . S
C651 O634 1.262 . S
C651 O635 1.260 . S
C652 Tb588 2.833 . S
C652 O632 1.251 . S
C652 O637 1.256 . S
C652 C645 1.500 . S
C653 H618 0.929 . S
C653 C631 1.444 . S
C653 C654 1.317 . S
C654 H616 0.930 . S
C654 C622 1.432 . S
C654 C653 1.317 . S
C655 O639 1.283 . S
C655 O642 1.243 . S
C656 C657 1.382 . S
C656 C660 1.393 . S
C656 C663 1.500 . S
C657 C656 1.382 . S
C657 C658 1.400 . S
C657 H668 0.930 . S
C658 C657 1.400 . S
C658 C659 1.384 . S
C659 C658 1.384 . S
C659 C661 1.392 . S
C659 H669 0.931 . S
C660 C656 1.393 . S
C660 C661 1.401 . S
C660 H670 0.930 . S
C661 C659 1.392 . S
C661 C660 1.401 . S
C661 H671 0.930 . S
C662 O640 1.262 . S
C662 O641 1.260 . S
C663 Tb599 2.833 . S
C663 O638 1.251 . S
C663 O643 1.256 . S
C663 C656 1.500 . S
H664 C647 0.930 . S
H665 C648 0.931 . S
H666 C649 0.930 . S
H667 C650 0.930 . S
H668 C657 0.930 . S
H669 C659 0.931 . S
H670 C660 0.930 . S
H671 C661 0.930 . S
Tb672 N703 2.660 . S
Tb672 N710 2.600 . S
Tb672 O716 2.546 . S
Tb672 O717 2.610 . S
Tb672 O719 2.320 . S
Tb672 O720 2.552 . S
Tb672 O721 2.413 . S
Tb672 O723 2.362 . S
Tb672 O724 2.421 . S
Tb672 C736 2.833 . S
C673 C676 1.432 . S
C673 C677 1.414 . S
C673 N680 1.359 . S
C674 C676 1.417 . S
C674 C678 1.432 . S
C674 C686 1.410 . S
C675 C677 1.444 . S
C675 C678 1.317 . S
C675 H698 0.929 . S
C676 C673 1.432 . S
C676 C674 1.417 . S
C676 N684 1.360 . S
C677 C673 1.414 . S
C677 C675 1.444 . S
C677 C682 1.385 . S
C678 C674 1.432 . S
C678 C675 1.317 . S
C678 H690 0.930 . S
C679 C681 1.392 . S
C679 C682 1.370 . S
C679 H691 0.931 . S
N680 C673 1.359 . S
N680 C681 1.327 . S
N680 Tb683 2.600 . S
C681 C679 1.392 . S
C681 N680 1.327 . S
C681 H688 0.930 . S
C682 C677 1.385 . S
C682 C679 1.370 . S
C682 H701 0.930 . S
Tb683 N680 2.600 . S
Tb683 N684 2.660 . S
Tb683 O717 2.362 . S
Tb683 O718 2.421 . S
Tb683 O722 2.546 . S
Tb683 O723 2.610 . S
Tb683 O725 2.320 . S
Tb683 O726 2.552 . S
Tb683 O727 2.413 . S
Tb683 C747 2.833 . S
N684 C676 1.360 . S
N684 Tb683 2.660 . S
N684 C685 1.305 . S
C685 N684 1.305 . S
C685 C687 1.407 . S
C685 H692 0.930 . S
C686 C674 1.410 . S
C686 C687 1.345 . S
C686 H694 0.930 . S
C687 C685 1.407 . S
C687 C686 1.345 . S
C687 H689 0.930 . S
H688 C681 0.930 . S
H689 C687 0.930 . S
H690 C678 0.930 . S
H691 C679 0.931 . S
H692 C685 0.930 . S
H693 C707 0.930 . S
H694 C686 0.930 . S
H695 C713 0.930 . S
H696 C704 0.930 . S
H697 C711 0.931 . S
H698 C675 0.929 . S
H699 C705 0.930 . S
H700 C738 0.930 . S
H701 C682 0.930 . S
H702 C737 0.929 . S
N703 Tb672 2.660 . S
N703 C704 1.305 . S
N703 C708 1.360 . S
C704 H696 0.930 . S
C704 N703 1.305 . S
C704 C707 1.407 . S
C705 H699 0.930 . S
C705 C706 1.410 . S
C705 C707 1.345 . S
C706 C705 1.410 . S
C706 C708 1.417 . S
C706 C738 1.432 . S
C707 H693 0.930 . S
C707 C704 1.407 . S
C707 C705 1.345 . S
C708 N703 1.360 . S
C708 C706 1.417 . S
C708 C712 1.432 . S
H709 C714 0.930 . S
N710 Tb672 2.600 . S
N710 C712 1.359 . S
N710 C713 1.327 . S
C711 H697 0.931 . S
C711 C713 1.392 . S
C711 C714 1.370 . S
C712 C708 1.432 . S
C712 N710 1.359 . S
C712 C715 1.414 . S
C713 H695 0.930 . S
C713 N710 1.327 . S
C713 C711 1.392 . S
C714 H709 0.930 . S
C714 C711 1.370 . S
C714 C715 1.385 . S
C715 C712 1.414 . S
C715 C714 1.385 . S
C715 C737 1.444 . S
O716 Tb672 2.546 . S
O716 C736 1.251 . S
O717 Tb672 2.610 . S
O717 Tb683 2.362 . S
O717 C728 1.283 . S
O718 Tb683 2.421 . S
O718 C735 1.262 . S
O719 Tb672 2.320 . S
O719 C735 1.260 . S
O720 Tb672 2.552 . S
O720 C728 1.243 . S
O721 Tb672 2.413 . S
O721 C736 1.256 . S
O722 Tb683 2.546 . S
O722 C747 1.251 . S
O723 Tb672 2.362 . S
O723 Tb683 2.610 . S
O723 C739 1.283 . S
O724 Tb672 2.421 . S
O724 C746 1.262 . S
O725 Tb683 2.320 . S
O725 C746 1.260 . S
O726 Tb683 2.552 . S
O726 C739 1.243 . S
O727 Tb683 2.413 . S
O727 C747 1.256 . S
C728 O717 1.283 . S
C728 O720 1.243 . S
C729 C731 1.382 . S
C729 C733 1.393 . S
C729 C736 1.500 . S
C730 C731 1.400 . S
C730 C732 1.384 . S
C731 C729 1.382 . S
C731 C730 1.400 . S
C731 H748 0.930 . S
C732 C730 1.384 . S
C732 C734 1.392 . S
C732 H749 0.931 . S
C733 C729 1.393 . S
C733 C734 1.401 . S
C733 H750 0.930 . S
C734 C732 1.392 . S
C734 C733 1.401 . S
C734 H751 0.930 . S
C735 O718 1.262 . S
C735 O719 1.260 . S
C736 Tb672 2.833 . S
C736 O716 1.251 . S
C736 O721 1.256 . S
C736 C729 1.500 . S
C737 H702 0.929 . S
C737 C715 1.444 . S
C737 C738 1.317 . S
C738 H700 0.930 . S
C738 C706 1.432 . S
C738 C737 1.317 . S
C739 O723 1.283 . S
C739 O726 1.243 . S
C740 C741 1.382 . S
C740 C744 1.393 . S
C740 C747 1.500 . S
C741 C740 1.382 . S
C741 C742 1.400 . S
C741 H752 0.930 . S
C742 C741 1.400 . S
C742 C743 1.384 . S
C743 C742 1.384 . S
C743 C745 1.392 . S
C743 H753 0.931 . S
C744 C740 1.393 . S
C744 C745 1.401 . S
C744 H754 0.930 . S
C745 C743 1.392 . S
C745 C744 1.401 . S
C745 H755 0.930 . S
C746 O724 1.262 . S
C746 O725 1.260 . S
C747 Tb683 2.833 . S
C747 O722 1.251 . S
C747 O727 1.256 . S
C747 C740 1.500 . S
H748 C731 0.930 . S
H749 C732 0.931 . S
H750 C733 0.930 . S
H751 C734 0.930 . S
H752 C741 0.930 . S
H753 C743 0.931 . S
H754 C744 0.930 . S
H755 C745 0.930 . S
Tb756 N787 2.660 . S
Tb756 N794 2.600 . S
Tb756 O800 2.546 . S
Tb756 O801 2.610 1_565 S
Tb756 O803 2.320 . S
Tb756 O804 2.552 1_565 S
Tb756 O805 2.413 . S
Tb756 O807 2.362 1_565 S
Tb756 O808 2.421 1_565 S
Tb756 C820 2.833 . S
C757 C760 1.432 . S
C757 C761 1.414 . S
C757 N764 1.359 . S
C758 C760 1.417 . S
C758 C762 1.432 . S
C758 C770 1.410 . S
C759 C761 1.444 . S
C759 C762 1.317 . S
C759 H782 0.929 . S
C760 C757 1.432 . S
C760 C758 1.417 . S
C760 N768 1.360 . S
C761 C757 1.414 . S
C761 C759 1.444 . S
C761 C766 1.385 . S
C762 C758 1.432 . S
C762 C759 1.317 . S
C762 H774 0.930 . S
C763 C765 1.392 . S
C763 C766 1.370 . S
C763 H775 0.931 . S
N764 C757 1.359 . S
N764 C765 1.327 . S
N764 Tb767 2.600 . S
C765 C763 1.392 . S
C765 N764 1.327 . S
C765 H772 0.930 . S
C766 C761 1.385 . S
C766 C763 1.370 . S
C766 H785 0.930 . S
Tb767 N764 2.600 . S
Tb767 N768 2.660 . S
Tb767 O801 2.362 . S
Tb767 O802 2.421 . S
Tb767 O806 2.546 . S
Tb767 O807 2.610 . S
Tb767 O809 2.320 . S
Tb767 O810 2.552 . S
Tb767 O811 2.413 . S
Tb767 C831 2.833 . S
N768 C760 1.360 . S
N768 Tb767 2.660 . S
N768 C769 1.305 . S
C769 N768 1.305 . S
C769 C771 1.407 . S
C769 H776 0.930 . S
C770 C758 1.410 . S
C770 C771 1.345 . S
C770 H778 0.930 . S
C771 C769 1.407 . S
C771 C770 1.345 . S
C771 H773 0.930 . S
H772 C765 0.930 . S
H773 C771 0.930 . S
H774 C762 0.930 . S
H775 C763 0.931 . S
H776 C769 0.930 . S
H777 C791 0.930 . S
H778 C770 0.930 . S
H779 C797 0.930 1_545 S
H780 C788 0.930 . S
H781 C795 0.931 . S
H782 C759 0.929 . S
H783 C789 0.930 . S
H784 C822 0.930 . S
H785 C766 0.930 . S
H786 C821 0.929 . S
N787 Tb756 2.660 . S
N787 C788 1.305 . S
N787 C792 1.360 . S
C788 H780 0.930 . S
C788 N787 1.305 . S
C788 C791 1.407 . S
C789 H783 0.930 . S
C789 C790 1.410 . S
C789 C791 1.345 . S
C790 C789 1.410 . S
C790 C792 1.417 . S
C790 C822 1.432 . S
C791 H777 0.930 . S
C791 C788 1.407 . S
C791 C789 1.345 . S
C792 N787 1.360 . S
C792 C790 1.417 . S
C792 C796 1.432 . S
H793 C798 0.930 . S
N794 Tb756 2.600 . S
N794 C796 1.359 . S
N794 C797 1.327 . S
C795 H781 0.931 . S
C795 C797 1.392 . S
C795 C798 1.370 . S
C796 C792 1.432 . S
C796 N794 1.359 . S
C796 C799 1.414 . S
C797 H779 0.930 1_565 S
C797 N794 1.327 . S
C797 C795 1.392 . S
C798 H793 0.930 . S
C798 C795 1.370 . S
C798 C799 1.385 . S
C799 C796 1.414 . S
C799 C798 1.385 . S
C799 C821 1.444 . S
O800 Tb756 2.546 . S
O800 C820 1.251 . S
O801 Tb756 2.610 1_545 S
O801 Tb767 2.362 . S
O801 C812 1.283 . S
O802 Tb767 2.421 . S
O802 C819 1.262 1_545 S
O803 Tb756 2.320 . S
O803 C819 1.260 . S
O804 Tb756 2.552 1_545 S
O804 C812 1.243 . S
O805 Tb756 2.413 . S
O805 C820 1.256 . S
O806 Tb767 2.546 . S
O806 C831 1.251 . S
O807 Tb756 2.362 1_545 S
O807 Tb767 2.610 . S
O807 C823 1.283 . S
O808 Tb756 2.421 1_545 S
O808 C830 1.262 . S
O809 Tb767 2.320 . S
O809 C830 1.260 . S
O810 Tb767 2.552 . S
O810 C823 1.243 . S
O811 Tb767 2.413 . S
O811 C831 1.256 . S
C812 O801 1.283 . S
C812 O804 1.243 . S
C813 C815 1.382 . S
C813 C817 1.393 . S
C813 C820 1.500 . S
C814 C815 1.400 . S
C814 C816 1.384 . S
C815 C813 1.382 . S
C815 C814 1.400 . S
C815 H832 0.930 . S
C816 C814 1.384 . S
C816 C818 1.392 . S
C816 H833 0.931 . S
C817 C813 1.393 . S
C817 C818 1.401 . S
C817 H834 0.930 . S
C818 C816 1.392 . S
C818 C817 1.401 . S
C818 H835 0.930 . S
C819 O802 1.262 1_565 S
C819 O803 1.260 . S
C820 Tb756 2.833 . S
C820 O800 1.251 . S
C820 O805 1.256 . S
C820 C813 1.500 . S
C821 H786 0.929 . S
C821 C799 1.444 . S
C821 C822 1.317 . S
C822 H784 0.930 . S
C822 C790 1.432 . S
C822 C821 1.317 . S
C823 O807 1.283 . S
C823 O810 1.243 . S
C824 C825 1.382 . S
C824 C828 1.393 . S
C824 C831 1.500 . S
C825 C824 1.382 . S
C825 C826 1.400 . S
C825 H836 0.930 . S
C826 C825 1.400 . S
C826 C827 1.384 . S
C827 C826 1.384 . S
C827 C829 1.392 . S
C827 H837 0.931 . S
C828 C824 1.393 . S
C828 C829 1.401 . S
C828 H838 0.930 . S
C829 C827 1.392 . S
C829 C828 1.401 . S
C829 H839 0.930 . S
C830 O808 1.262 . S
C830 O809 1.260 . S
C831 Tb767 2.833 . S
C831 O806 1.251 . S
C831 O811 1.256 . S
C831 C824 1.500 . S
H832 C815 0.930 . S
H833 C816 0.931 . S
H834 C817 0.930 . S
H835 C818 0.930 . S
H836 C825 0.930 . S
H837 C827 0.931 . S
H838 C828 0.930 . S
H839 C829 0.930 . S
Tb840 N871 2.660 . S
Tb840 N878 2.600 . S
Tb840 O884 2.546 . S
Tb840 O885 2.610 . S
Tb840 O887 2.320 . S
Tb840 O888 2.552 . S
Tb840 O889 2.413 . S
Tb840 O891 2.362 . S
Tb840 O892 2.421 . S
Tb840 C904 2.833 . S
C841 C844 1.432 1_545 S
C841 C845 1.414 . S
C841 N848 1.359 . S
C842 C844 1.417 . S
C842 C846 1.432 . S
C842 C854 1.410 . S
C843 C845 1.456 . S
C843 C846 1.299 1_545 S
C843 H866 0.936 . S
C844 C841 1.432 1_565 S
C844 C842 1.417 . S
C844 N852 1.360 . S
C845 C841 1.414 . S
C845 C843 1.456 . S
C845 C850 1.385 . S
C846 C842 1.432 . S
C846 C843 1.299 1_565 S
C846 H858 0.930 . S
C847 C849 1.392 . S
C847 C850 1.370 . S
C847 H859 0.931 . S
N848 C841 1.359 . S
N848 C849 1.327 . S
N848 Tb851 2.600 . S
C849 C847 1.392 . S
C849 N848 1.327 . S
C849 H856 0.930 . S
C850 C845 1.385 . S
C850 C847 1.370 . S
C850 H869 0.930 . S
Tb851 N848 2.600 . S
Tb851 N852 2.660 1_545 S
Tb851 O885 2.362 1_545 S
Tb851 O886 2.421 . S
Tb851 O890 2.546 . S
Tb851 O891 2.610 1_545 S
Tb851 O893 2.320 1_545 S
Tb851 O894 2.552 . S
Tb851 O895 2.413 . S
Tb851 C915 2.833 . S
N852 C844 1.360 . S
N852 Tb851 2.660 1_565 S
N852 C853 1.305 . S
C853 N852 1.305 . S
C853 C855 1.407 . S
C853 H860 0.930 . S
C854 C842 1.410 . S
C854 C855 1.345 . S
C854 H862 0.930 . S
C855 C853 1.407 . S
C855 C854 1.345 . S
C855 H857 0.930 . S
H856 C849 0.930 . S
H857 C855 0.930 . S
H858 C846 0.930 . S
H859 C847 0.931 . S
H860 C853 0.930 . S
H861 C875 0.930 . S
H862 C854 0.930 . S
H863 C881 0.930 . S
H864 C872 0.930 . S
H865 C879 0.931 . S
H866 C843 0.936 . S
H867 C873 0.930 . S
H868 C906 0.930 . S
H869 C850 0.930 . S
H870 C905 0.929 . S
N871 Tb840 2.660 . S
N871 C872 1.305 1_565 S
N871 C876 1.360 . S
C872 H864 0.930 . S
C872 N871 1.305 1_545 S
C872 C875 1.407 . S
C873 H867 0.930 . S
C873 C874 1.410 1_545 S
C873 C875 1.345 . S
C874 C873 1.410 1_565 S
C874 C876 1.417 . S
C874 C906 1.432 . S
C875 H861 0.930 . S
C875 C872 1.407 . S
C875 C873 1.345 . S
C876 N871 1.360 . S
C876 C874 1.417 . S
C876 C880 1.432 . S
H877 C882 0.930 . S
N878 Tb840 2.600 . S
N878 C880 1.359 . S
N878 C881 1.327 . S
C879 H865 0.931 . S
C879 C881 1.392 . S
C879 C882 1.370 . S
C880 C876 1.432 . S
C880 N878 1.359 . S
C880 C883 1.414 . S
C881 H863 0.930 . S
C881 N878 1.327 . S
C881 C879 1.392 . S
C882 H877 0.930 . S
C882 C879 1.370 . S
C882 C883 1.385 . S
C883 C880 1.414 . S
C883 C882 1.385 . S
C883 C905 1.444 . S
O884 Tb840 2.546 . S
O884 C904 1.251 . S
O885 Tb840 2.610 . S
O885 Tb851 2.362 1_565 S
O885 C896 1.283 . S
O886 Tb851 2.421 . S
O886 C903 1.233 1_545 S
O887 Tb840 2.320 . S
O887 C903 1.288 . S
O888 Tb840 2.552 . S
O888 C896 1.243 . S
O889 Tb840 2.413 . S
O889 C904 1.256 . S
O890 Tb851 2.546 . S
O890 C915 1.251 . S
O891 Tb840 2.362 . S
O891 Tb851 2.610 1_565 S
O891 C907 1.283 1_565 S
O892 Tb840 2.421 . S
O892 C914 1.262 . S
O893 Tb851 2.320 1_565 S
O893 C914 1.260 . S
O894 Tb851 2.552 . S
O894 C907 1.243 . S
O895 Tb851 2.413 . S
O895 C915 1.256 . S
C896 O885 1.283 . S
C896 O888 1.243 . S
C897 C899 1.382 . S
C897 C901 1.393 . S
C897 C904 1.500 . S
C898 C899 1.400 . S
C898 C900 1.384 . S
C899 C897 1.382 . S
C899 C898 1.400 . S
C899 H916 0.930 . S
C900 C898 1.384 . S
C900 C902 1.392 . S
C900 H917 0.931 . S
C901 C897 1.393 . S
C901 C902 1.401 . S
C901 H918 0.930 . S
C902 C900 1.392 . S
C902 C901 1.401 . S
C902 H919 0.930 . S
C903 O886 1.233 1_565 S
C903 O887 1.288 . S
C904 Tb840 2.833 . S
C904 O884 1.251 . S
C904 O889 1.256 . S
C904 C897 1.500 . S
C905 H870 0.929 . S
C905 C883 1.444 . S
C905 C906 1.317 . S
C906 H868 0.930 . S
C906 C874 1.432 . S
C906 C905 1.317 . S
C907 O891 1.283 1_545 S
C907 O894 1.243 . S
C908 C909 1.382 . S
C908 C912 1.393 . S
C908 C915 1.500 . S
C909 C908 1.382 . S
C909 C910 1.400 . S
C909 H920 0.930 . S
C910 C909 1.400 . S
C910 C911 1.384 . S
C911 C910 1.384 . S
C911 C913 1.392 . S
C911 H921 0.931 . S
C912 C908 1.393 . S
C912 C913 1.401 . S
C912 H922 0.930 . S
C913 C911 1.392 . S
C913 C912 1.401 . S
C913 H923 0.930 . S
C914 O892 1.262 . S
C914 O893 1.260 . S
C915 Tb851 2.833 . S
C915 O890 1.251 . S
C915 O895 1.256 . S
C915 C908 1.500 . S
H916 C899 0.930 . S
H917 C900 0.931 . S
H918 C901 0.930 . S
H919 C902 0.930 . S
H920 C909 0.930 . S
H921 C911 0.931 . S
H922 C912 0.930 . S
H923 C913 0.930 . S
Tb924 N955 2.660 . S
Tb924 N962 2.600 . S
Tb924 O968 2.546 . S
Tb924 O969 2.610 . S
Tb924 O971 2.320 . S
Tb924 O972 2.552 . S
Tb924 O973 2.413 . S
Tb924 O975 2.362 . S
Tb924 O976 2.421 . S
Tb924 C988 2.833 . S
C925 C928 1.432 . S
C925 C929 1.414 . S
C925 N932 1.359 . S
C926 C928 1.417 . S
C926 C930 1.432 . S
C926 C938 1.410 . S
C927 C929 1.444 . S
C927 C930 1.317 . S
C927 H950 0.929 . S
C928 C925 1.432 . S
C928 C926 1.417 . S
C928 N936 1.360 . S
C929 C925 1.414 . S
C929 C927 1.444 . S
C929 C934 1.385 . S
C930 C926 1.432 . S
C930 C927 1.317 . S
C930 H942 0.930 . S
C931 C933 1.392 . S
C931 C934 1.370 . S
C931 H943 0.931 . S
N932 C925 1.359 . S
N932 C933 1.327 . S
N932 Tb935 2.600 . S
C933 C931 1.392 . S
C933 N932 1.327 . S
C933 H940 0.930 . S
C934 C929 1.385 . S
C934 C931 1.370 . S
C934 H953 0.930 . S
Tb935 N932 2.600 . S
Tb935 N936 2.660 . S
Tb935 O969 2.362 . S
Tb935 O970 2.421 . S
Tb935 O974 2.546 . S
Tb935 O975 2.610 . S
Tb935 O977 2.320 . S
Tb935 O978 2.552 . S
Tb935 O979 2.413 . S
Tb935 C999 2.833 . S
N936 C928 1.360 . S
N936 Tb935 2.660 . S
N936 C937 1.305 . S
C937 N936 1.305 . S
C937 C939 1.407 . S
C937 H944 0.930 . S
C938 C926 1.410 . S
C938 C939 1.345 . S
C938 H946 0.930 . S
C939 C937 1.407 . S
C939 C938 1.345 . S
C939 H941 0.930 . S
H940 C933 0.930 . S
H941 C939 0.930 . S
H942 C930 0.930 . S
H943 C931 0.931 . S
H944 C937 0.930 . S
H945 C959 0.930 . S
H946 C938 0.930 . S
H947 C965 0.930 . S
H948 C956 0.930 . S
H949 C963 0.931 . S
H950 C927 0.929 . S
H951 C957 0.930 . S
H952 C990 0.930 . S
H953 C934 0.930 . S
H954 C989 0.929 . S
N955 Tb924 2.660 . S
N955 C956 1.305 . S
N955 C960 1.360 . S
C956 H948 0.930 . S
C956 N955 1.305 . S
C956 C959 1.407 . S
C957 H951 0.930 . S
C957 C958 1.410 . S
C957 C959 1.345 . S
C958 C957 1.410 . S
C958 C960 1.417 . S
C958 C990 1.432 . S
C959 H945 0.930 . S
C959 C956 1.407 . S
C959 C957 1.345 . S
C960 N955 1.360 . S
C960 C958 1.417 . S
C960 C964 1.432 . S
H961 C966 0.930 . S
N962 Tb924 2.600 . S
N962 C964 1.359 . S
N962 C965 1.327 . S
C963 H949 0.931 . S
C963 C965 1.392 . S
C963 C966 1.370 . S
C964 C960 1.432 . S
C964 N962 1.359 . S
C964 C967 1.414 . S
C965 H947 0.930 . S
C965 N962 1.327 . S
C965 C963 1.392 . S
C966 H961 0.930 . S
C966 C963 1.370 . S
C966 C967 1.385 . S
C967 C964 1.414 . S
C967 C966 1.385 . S
C967 C989 1.444 . S
O968 Tb924 2.546 . S
O968 C988 1.251 . S
O969 Tb924 2.610 . S
O969 Tb935 2.362 . S
O969 C980 1.283 . S
O970 Tb935 2.421 . S
O970 C987 1.262 . S
O971 Tb924 2.320 . S
O971 C987 1.260 . S
O972 Tb924 2.552 . S
O972 C980 1.243 . S
O973 Tb924 2.413 . S
O973 C988 1.256 . S
O974 Tb935 2.546 . S
O974 C999 1.251 . S
O975 Tb924 2.362 . S
O975 Tb935 2.610 . S
O975 C991 1.283 . S
O976 Tb924 2.421 . S
O976 C998 1.262 . S
O977 Tb935 2.320 . S
O977 C998 1.260 . S
O978 Tb935 2.552 . S
O978 C991 1.243 . S
O979 Tb935 2.413 . S
O979 C999 1.256 . S
C980 O969 1.283 . S
C980 O972 1.243 . S
C981 C983 1.382 . S
C981 C985 1.393 . S
C981 C988 1.500 . S
C982 C983 1.400 . S
C982 C984 1.384 . S
C983 C981 1.382 . S
C983 C982 1.400 . S
C983 H1000 0.930 . S
C984 C982 1.384 . S
C984 C986 1.392 . S
C984 H1001 0.931 . S
C985 C981 1.393 . S
C985 C986 1.401 . S
C985 H1002 0.930 . S
C986 C984 1.392 . S
C986 C985 1.401 . S
C986 H1003 0.930 . S
C987 O970 1.262 . S
C987 O971 1.260 . S
C988 Tb924 2.833 . S
C988 O968 1.251 . S
C988 O973 1.256 . S
C988 C981 1.500 . S
C989 H954 0.929 . S
C989 C967 1.444 . S
C989 C990 1.317 . S
C990 H952 0.930 . S
C990 C958 1.432 . S
C990 C989 1.317 . S
C991 O975 1.283 . S
C991 O978 1.243 . S
C992 C993 1.382 . S
C992 C996 1.393 . S
C992 C999 1.500 . S
C993 C992 1.382 . S
C993 C994 1.400 . S
C993 H1004 0.930 . S
C994 C993 1.400 . S
C994 C995 1.384 . S
C995 C994 1.384 . S
C995 C997 1.392 . S
C995 H1005 0.931 . S
C996 C992 1.393 . S
C996 C997 1.401 . S
C996 H1006 0.930 . S
C997 C995 1.392 . S
C997 C996 1.401 . S
C997 H1007 0.930 . S
C998 O976 1.262 . S
C998 O977 1.260 . S
C999 Tb935 2.833 . S
C999 O974 1.251 . S
C999 O979 1.256 . S
C999 C992 1.500 . S
H1000 C983 0.930 . S
H1001 C984 0.931 . S
H1002 C985 0.930 . S
H1003 C986 0.930 . S
H1004 C993 0.930 . S
H1005 C995 0.931 . S
H1006 C996 0.930 . S
H1007 C997 0.930 . S
C1008 C1009 1.349 . S
C1008 C1010 1.327 . S
C1008 H1033 0.950 . S
C1009 C1008 1.349 . S
C1009 C1025 1.349 . S
C1010 C1008 1.327 . S
C1010 C1029 1.429 . S
C1010 H1034 0.950 . S
C1011 C1028 1.574 . S
C1011 C1030 1.368 . S
C1011 H1035 0.949 . S
H1012 C1016 0.949 . S
C1013 C1014 1.349 . S
C1013 C1015 1.327 . S
C1013 H1036 0.950 . S
C1014 C1013 1.349 . S
C1014 C1026 1.349 . S
C1015 C1013 1.327 . S
C1015 C1031 1.429 . S
C1015 H1037 0.950 . S
C1016 H1012 0.949 . S
C1016 C1024 1.574 . S
C1016 C1032 1.368 . S
H1017 C1025 0.950 . S
H1018 C1023 0.950 . S
H1019 C1024 0.949 . S
H1020 C1026 0.950 . S
H1021 C1027 0.950 . S
H1022 C1028 0.949 . S
C1023 H1018 0.950 . S
C1023 C1025 1.327 . S
C1023 C1029 1.429 . S
C1024 C1016 1.574 . S
C1024 H1019 0.949 . S
C1024 C1030 1.368 . S
C1025 C1009 1.349 . S
C1025 H1017 0.950 . S
C1025 C1023 1.327 . S
C1026 C1014 1.349 . S
C1026 H1020 0.950 . S
C1026 C1027 1.327 . S
C1027 H1021 0.950 . S
C1027 C1026 1.327 . S
C1027 C1031 1.429 . S
C1028 C1011 1.574 . S
C1028 H1022 0.949 . S
C1028 C1032 1.368 . S
C1029 C1010 1.429 . S
C1029 C1023 1.429 . S
C1029 C1030 1.523 . S
C1030 C1011 1.368 . S
C1030 C1024 1.368 . S
C1030 C1029 1.523 . S
C1031 C1015 1.429 . S
C1031 C1027 1.429 . S
C1031 C1032 1.523 . S
C1032 C1016 1.368 . S
C1032 C1028 1.368 . S
C1032 C1031 1.523 . S
H1033 C1008 0.950 . S
H1034 C1010 0.950 . S
H1035 C1011 0.949 . S
H1036 C1013 0.950 . S
H1037 C1015 0.950 . S
C1038 C1039 1.380 . S
C1038 C1040 1.327 . S
C1038 H1063 0.950 . S
C1039 C1038 1.380 . S
C1039 C1055 1.300 1_545 S
C1040 C1038 1.327 . S
C1040 C1059 1.429 1_545 S
C1040 H1064 0.950 . S
C1041 C1058 1.574 . S
C1041 C1060 1.368 . S
C1041 H1065 0.949 . S
H1042 C1046 0.949 . S
C1043 C1044 1.349 . S
C1043 C1045 1.327 . S
C1043 H1066 0.950 . S
C1044 C1043 1.349 . S
C1044 C1056 1.349 . S
C1045 C1043 1.327 . S
C1045 C1061 1.429 . S
C1045 H1067 0.950 . S
C1046 H1042 0.949 . S
C1046 C1054 1.574 . S
C1046 C1062 1.368 . S
H1047 C1055 0.950 . S
H1048 C1053 0.950 . S
H1049 C1054 0.949 1_545 S
H1050 C1056 0.950 . S
H1051 C1057 0.950 . S
H1052 C1058 0.949 . S
C1053 H1048 0.950 . S
C1053 C1055 1.327 . S
C1053 C1059 1.429 . S
C1054 C1046 1.574 . S
C1054 H1049 0.949 1_565 S
C1054 C1060 1.368 . S
C1055 C1039 1.300 1_565 S
C1055 H1047 0.950 . S
C1055 C1053 1.327 . S
C1056 C1044 1.349 . S
C1056 H1050 0.950 . S
C1056 C1057 1.327 . S
C1057 H1051 0.950 . S
C1057 C1056 1.327 . S
C1057 C1061 1.429 . S
C1058 C1041 1.574 . S
C1058 H1052 0.949 . S
C1058 C1062 1.368 . S
C1059 C1040 1.429 1_565 S
C1059 C1053 1.429 . S
C1059 C1060 1.523 . S
C1060 C1041 1.368 . S
C1060 C1054 1.368 . S
C1060 C1059 1.523 . S
C1061 C1045 1.429 . S
C1061 C1057 1.429 . S
C1061 C1062 1.523 . S
C1062 C1046 1.368 . S
C1062 C1058 1.368 . S
C1062 C1061 1.523 . S
H1063 C1038 0.950 . S
H1064 C1040 0.950 . S
H1065 C1041 0.949 . S
H1066 C1043 0.950 . S
H1067 C1045 0.950 . S
C1068 C1069 1.349 . S
C1068 C1070 1.327 . S
C1068 H1093 0.950 . S
C1069 C1068 1.349 . S
C1069 C1085 1.349 1_554 S
C1070 C1068 1.327 . S
C1070 C1089 1.429 . S
C1070 H1094 0.950 . S
C1071 C1088 1.574 . S
C1071 C1090 1.368 . S
C1071 H1095 0.942 1_554 S
H1072 C1076 0.949 . S
C1073 C1074 1.349 . S
C1073 C1075 1.327 . S
C1073 H1096 0.950 . S
C1074 C1073 1.349 . S
C1074 C1086 1.349 . S
C1075 C1073 1.327 . S
C1075 C1091 1.429 . S
C1075 H1097 0.950 . S
C1076 H1072 0.949 . S
C1076 C1084 1.574 . S
C1076 C1092 1.368 . S
H1077 C1085 0.950 . S
H1078 C1083 0.950 . S
H1079 C1084 0.949 . S
H1080 C1086 0.950 . S
H1081 C1087 0.950 . S
H1082 C1088 0.949 . S
C1083 H1078 0.950 . S
C1083 C1085 1.327 . S
C1083 C1089 1.429 1_556 S
C1084 C1076 1.574 . S
C1084 H1079 0.949 . S
C1084 C1090 1.368 . S
C1085 C1069 1.349 1_556 S
C1085 H1077 0.950 . S
C1085 C1083 1.327 . S
C1086 C1074 1.349 . S
C1086 H1080 0.950 . S
C1086 C1087 1.327 . S
C1087 H1081 0.950 . S
C1087 C1086 1.327 . S
C1087 C1091 1.429 . S
C1088 C1071 1.574 . S
C1088 H1082 0.949 . S
C1088 C1092 1.368 . S
C1089 C1070 1.429 . S
C1089 C1083 1.429 1_554 S
C1089 C1090 1.523 . S
C1090 C1071 1.368 . S
C1090 C1084 1.368 . S
C1090 C1089 1.523 . S
C1091 C1075 1.429 . S
C1091 C1087 1.429 . S
C1091 C1092 1.523 . S
C1092 C1076 1.368 . S
C1092 C1088 1.368 . S
C1092 C1091 1.523 . S
H1093 C1068 0.950 . S
H1094 C1070 0.950 . S
H1095 C1071 0.942 1_556 S
H1096 C1073 0.950 . S
H1097 C1075 0.950 . S
C1098 C1099 1.349 . S
C1098 C1100 1.327 . S
C1098 H1123 0.950 . S
C1099 C1098 1.349 . S
C1099 C1115 1.349 . S
C1100 C1098 1.327 . S
C1100 C1119 1.429 . S
C1100 H1124 0.950 . S
C1101 C1118 1.574 . S
C1101 C1120 1.368 . S
C1101 H1125 0.949 . S
H1102 C1106 0.949 . S
C1103 C1104 1.349 1_565 S
C1103 C1105 1.327 . S
C1103 H1126 0.950 . S
C1104 C1103 1.349 1_545 S
C1104 C1116 1.349 . S
C1105 C1103 1.327 . S
C1105 C1121 1.429 1_565 S
C1105 H1127 0.950 . S
C1106 H1102 0.949 . S
C1106 C1114 1.574 . S
C1106 C1122 1.368 . S
H1107 C1115 0.950 . S
H1108 C1113 0.950 . S
H1109 C1114 0.949 . S
H1110 C1116 0.950 . S
H1111 C1117 0.950 . S
H1112 C1118 0.949 1_565 S
C1113 H1108 0.950 . S
C1113 C1115 1.327 . S
C1113 C1119 1.429 . S
C1114 C1106 1.574 . S
C1114 H1109 0.949 . S
C1114 C1120 1.368 . S
C1115 C1099 1.349 . S
C1115 H1107 0.950 . S
C1115 C1113 1.327 . S
C1116 C1104 1.349 . S
C1116 H1110 0.950 . S
C1116 C1117 1.327 . S
C1117 H1111 0.950 . S
C1117 C1116 1.327 . S
C1117 C1121 1.429 . S
C1118 C1101 1.574 . S
C1118 H1112 0.949 1_545 S
C1118 C1122 1.368 . S
C1119 C1100 1.429 . S
C1119 C1113 1.429 . S
C1119 C1120 1.523 . S
C1120 C1101 1.368 . S
C1120 C1114 1.368 . S
C1120 C1119 1.523 . S
C1121 C1105 1.429 1_545 S
C1121 C1117 1.429 . S
C1121 C1122 1.523 . S
C1122 C1106 1.368 . S
C1122 C1118 1.368 . S
C1122 C1121 1.523 . S
H1123 C1098 0.950 . S
H1124 C1100 0.950 . S
H1125 C1101 0.949 . S
H1126 C1103 0.950 . S
H1127 C1105 0.950 . S
C1128 C1129 1.349 . S
C1128 C1130 1.327 . S
C1128 H1153 0.950 . S
C1129 C1128 1.349 . S
C1129 C1145 1.349 . S
C1130 C1128 1.327 . S
C1130 C1149 1.429 . S
C1130 H1154 0.950 . S
C1131 C1148 1.574 . S
C1131 C1150 1.368 . S
C1131 H1155 0.949 . S
H1132 C1136 0.949 . S
C1133 C1134 1.349 . S
C1133 C1135 1.327 . S
C1133 H1156 0.950 . S
C1134 C1133 1.349 . S
C1134 C1146 1.349 . S
C1135 C1133 1.327 . S
C1135 C1151 1.429 . S
C1135 H1157 0.950 . S
C1136 H1132 0.949 . S
C1136 C1144 1.574 . S
C1136 C1152 1.368 . S
H1137 C1145 0.950 . S
H1138 C1143 0.950 . S
H1139 C1144 0.949 . S
H1140 C1146 0.950 . S
H1141 C1147 0.950 . S
H1142 C1148 0.949 . S
C1143 H1138 0.950 . S
C1143 C1145 1.327 . S
C1143 C1149 1.429 . S
C1144 C1136 1.574 . S
C1144 H1139 0.949 . S
C1144 C1150 1.368 . S
C1145 C1129 1.349 . S
C1145 H1137 0.950 . S
C1145 C1143 1.327 . S
C1146 C1134 1.349 . S
C1146 H1140 0.950 . S
C1146 C1147 1.327 . S
C1147 H1141 0.950 . S
C1147 C1146 1.327 . S
C1147 C1151 1.429 . S
C1148 C1131 1.574 . S
C1148 H1142 0.949 . S
C1148 C1152 1.368 . S
C1149 C1130 1.429 . S
C1149 C1143 1.429 . S
C1149 C1150 1.523 . S
C1150 C1131 1.368 . S
C1150 C1144 1.368 . S
C1150 C1149 1.523 . S
C1151 C1135 1.429 . S
C1151 C1147 1.429 . S
C1151 C1152 1.523 . S
C1152 C1136 1.368 . S
C1152 C1148 1.368 . S
C1152 C1151 1.523 . S
H1153 C1128 0.950 . S
H1154 C1130 0.950 . S
H1155 C1131 0.949 . S
H1156 C1133 0.950 . S
H1157 C1135 0.950 . S
C1158 C1159 1.349 . S
C1158 C1160 1.327 . S
C1158 H1183 0.950 . S
C1159 C1158 1.349 . S
C1159 C1175 1.349 . S
C1160 C1158 1.327 . S
C1160 C1179 1.429 . S
C1160 H1184 0.950 . S
C1161 C1178 1.574 . S
C1161 C1180 1.368 . S
C1161 H1185 0.949 . S
H1162 C1166 0.949 . S
C1163 C1164 1.349 . S
C1163 C1165 1.327 . S
C1163 H1186 0.950 . S
C1164 C1163 1.349 . S
C1164 C1176 1.349 . S
C1165 C1163 1.327 . S
C1165 C1181 1.429 . S
C1165 H1187 0.950 . S
C1166 H1162 0.949 . S
C1166 C1174 1.574 . S
C1166 C1182 1.368 . S
H1167 C1175 0.950 . S
H1168 C1173 0.950 . S
H1169 C1174 0.949 . S
H1170 C1176 0.950 . S
H1171 C1177 0.950 . S
H1172 C1178 0.949 . S
C1173 H1168 0.950 . S
C1173 C1175 1.327 . S
C1173 C1179 1.429 . S
C1174 C1166 1.574 . S
C1174 H1169 0.949 . S
C1174 C1180 1.368 . S
C1175 C1159 1.349 . S
C1175 H1167 0.950 . S
C1175 C1173 1.327 . S
C1176 C1164 1.349 . S
C1176 H1170 0.950 . S
C1176 C1177 1.327 . S
C1177 H1171 0.950 . S
C1177 C1176 1.327 . S
C1177 C1181 1.429 . S
C1178 C1161 1.574 . S
C1178 H1172 0.949 . S
C1178 C1182 1.368 . S
C1179 C1160 1.429 . S
C1179 C1173 1.429 . S
C1179 C1180 1.523 . S
C1180 C1161 1.368 . S
C1180 C1174 1.368 . S
C1180 C1179 1.523 . S
C1181 C1165 1.429 . S
C1181 C1177 1.429 . S
C1181 C1182 1.523 . S
C1182 C1166 1.368 . S
C1182 C1178 1.368 . S
C1182 C1181 1.523 . S
H1183 C1158 0.950 . S
H1184 C1160 0.950 . S
H1185 C1161 0.949 . S
H1186 C1163 0.950 . S
H1187 C1165 0.950 . S
C1188 C1189 1.349 . S
C1188 C1190 1.327 . S
C1188 H1213 0.950 . S
C1189 C1188 1.349 . S
C1189 C1205 1.349 . S
C1190 C1188 1.327 . S
C1190 C1209 1.429 . S
C1190 H1214 0.950 . S
C1191 C1208 1.574 . S
C1191 C1210 1.368 . S
C1191 H1215 0.949 . S
H1192 C1196 0.949 . S
C1193 C1194 1.349 . S
C1193 C1195 1.327 . S
C1193 H1216 0.950 . S
C1194 C1193 1.349 . S
C1194 C1206 1.349 1_556 S
C1195 C1193 1.327 . S
C1195 C1211 1.429 . S
C1195 H1217 0.950 . S
C1196 H1192 0.949 . S
C1196 C1204 1.574 . S
C1196 C1212 1.368 . S
H1197 C1205 0.950 . S
H1198 C1203 0.950 . S
H1199 C1204 0.949 . S
H1200 C1206 0.950 . S
H1201 C1207 0.956 . S
H1202 C1208 0.949 . S
C1203 H1198 0.950 . S
C1203 C1205 1.327 . S
C1203 C1209 1.429 . S
C1204 C1196 1.574 . S
C1204 H1199 0.949 . S
C1204 C1210 1.368 . S
C1205 C1189 1.349 . S
C1205 H1197 0.950 . S
C1205 C1203 1.327 . S
C1206 C1194 1.349 1_554 S
C1206 H1200 0.950 . S
C1206 C1207 1.332 . S
C1207 H1201 0.956 . S
C1207 C1206 1.332 . S
C1207 C1211 1.418 1_554 S
C1208 C1191 1.574 . S
C1208 H1202 0.949 . S
C1208 C1212 1.368 . S
C1209 C1190 1.429 . S
C1209 C1203 1.429 . S
C1209 C1210 1.523 . S
C1210 C1191 1.368 . S
C1210 C1204 1.368 . S
C1210 C1209 1.523 . S
C1211 C1195 1.429 . S
C1211 C1207 1.418 1_556 S
C1211 C1212 1.523 . S
C1212 C1196 1.368 . S
C1212 C1208 1.368 . S
C1212 C1211 1.523 . S
H1213 C1188 0.950 . S
H1214 C1190 0.950 . S
H1215 C1191 0.949 . S
H1216 C1193 0.950 . S
H1217 C1195 0.950 . S
C1218 C1219 1.349 . S
C1218 C1220 1.327 . S
C1218 H1243 0.950 . S
C1219 C1218 1.349 . S
C1219 C1235 1.349 . S
C1220 C1218 1.327 . S
C1220 C1239 1.429 . S
C1220 H1244 0.950 . S
C1221 C1238 1.574 . S
C1221 C1240 1.368 . S
C1221 H1245 0.949 . S
H1222 C1226 0.949 . S
C1223 C1224 1.349 . S
C1223 C1225 1.327 . S
C1223 H1246 0.950 . S
C1224 C1223 1.349 . S
C1224 C1236 1.349 . S
C1225 C1223 1.327 . S
C1225 C1241 1.429 . S
C1225 H1247 0.950 . S
C1226 H1222 0.949 . S
C1226 C1234 1.574 . S
C1226 C1242 1.368 . S
H1227 C1235 0.950 . S
H1228 C1233 0.950 . S
H1229 C1234 0.949 . S
H1230 C1236 0.950 . S
H1231 C1237 0.950 . S
H1232 C1238 0.949 . S
C1233 H1228 0.950 . S
C1233 C1235 1.327 . S
C1233 C1239 1.429 . S
C1234 C1226 1.574 . S
C1234 H1229 0.949 . S
C1234 C1240 1.368 . S
C1235 C1219 1.349 . S
C1235 H1227 0.950 . S
C1235 C1233 1.327 . S
C1236 C1224 1.349 . S
C1236 H1230 0.950 . S
C1236 C1237 1.327 . S
C1237 H1231 0.950 . S
C1237 C1236 1.327 . S
C1237 C1241 1.429 . S
C1238 C1221 1.574 . S
C1238 H1232 0.949 . S
C1238 C1242 1.368 . S
C1239 C1220 1.429 . S
C1239 C1233 1.429 . S
C1239 C1240 1.523 . S
C1240 C1221 1.368 . S
C1240 C1234 1.368 . S
C1240 C1239 1.523 . S
C1241 C1225 1.429 . S
C1241 C1237 1.429 . S
C1241 C1242 1.523 . S
C1242 C1226 1.368 . S
C1242 C1238 1.368 . S
C1242 C1241 1.523 . S
H1243 C1218 0.950 . S
H1244 C1220 0.950 . S
H1245 C1221 0.949 . S
H1246 C1223 0.950 . S
H1247 C1225 0.950 . S
C1248 C1249 1.349 . S
C1248 C1250 1.327 . S
C1248 H1273 0.950 . S
C1249 C1248 1.349 . S
C1249 C1265 1.349 . S
C1250 C1248 1.327 . S
C1250 C1269 1.429 . S
C1250 H1274 0.950 . S
C1251 C1268 1.574 . S
C1251 C1270 1.368 . S
C1251 H1275 0.949 . S
H1252 C1256 0.949 . S
C1253 C1254 1.349 . S
C1253 C1255 1.327 . S
C1253 H1276 0.950 . S
C1254 C1253 1.349 . S
C1254 C1266 1.349 . S
C1255 C1253 1.327 . S
C1255 C1271 1.429 . S
C1255 H1277 0.950 . S
C1256 H1252 0.949 . S
C1256 C1264 1.574 . S
C1256 C1272 1.368 . S
H1257 C1265 0.950 . S
H1258 C1263 0.950 . S
H1259 C1264 0.949 . S
H1260 C1266 0.950 . S
H1261 C1267 0.950 . S
H1262 C1268 0.949 . S
C1263 H1258 0.950 . S
C1263 C1265 1.327 . S
C1263 C1269 1.429 . S
C1264 C1256 1.574 . S
C1264 H1259 0.949 . S
C1264 C1270 1.368 . S
C1265 C1249 1.349 . S
C1265 H1257 0.950 . S
C1265 C1263 1.327 . S
C1266 C1254 1.349 . S
C1266 H1260 0.950 . S
C1266 C1267 1.327 . S
C1267 H1261 0.950 . S
C1267 C1266 1.327 . S
C1267 C1271 1.429 . S
C1268 C1251 1.574 . S
C1268 H1262 0.949 . S
C1268 C1272 1.368 . S
C1269 C1250 1.429 . S
C1269 C1263 1.429 . S
C1269 C1270 1.523 . S
C1270 C1251 1.368 . S
C1270 C1264 1.368 . S
C1270 C1269 1.523 . S
C1271 C1255 1.429 . S
C1271 C1267 1.429 . S
C1271 C1272 1.523 . S
C1272 C1256 1.368 . S
C1272 C1268 1.368 . S
C1272 C1271 1.523 . S
H1273 C1248 0.950 . S
H1274 C1250 0.950 . S
H1275 C1251 0.949 . S
H1276 C1253 0.950 . S
H1277 C1255 0.950 . S
C1278 C1279 1.349 . S
C1278 C1280 1.327 . S
C1278 H1303 0.950 . S
C1279 C1278 1.349 . S
C1279 C1295 1.349 . S
C1280 C1278 1.327 . S
C1280 C1299 1.429 . S
C1280 H1304 0.950 . S
C1281 C1298 1.574 . S
C1281 C1300 1.368 . S
C1281 H1305 0.949 . S
H1282 C1286 0.949 1_655 S
C1283 C1284 1.349 . S
C1283 C1285 1.327 . S
C1283 H1306 0.950 . S
C1284 C1283 1.349 . S
C1284 C1296 1.349 1_455 S
C1285 C1283 1.327 . S
C1285 C1301 1.429 . S
C1285 H1307 0.950 . S
C1286 H1282 0.949 1_455 S
C1286 C1294 1.574 . S
C1286 C1302 1.368 . S
H1287 C1295 0.950 . S
H1288 C1293 0.950 . S
H1289 C1294 0.949 . S
H1290 C1296 0.950 . S
H1291 C1297 0.950 . S
H1292 C1298 0.949 . S
C1293 H1288 0.950 . S
C1293 C1295 1.327 . S
C1293 C1299 1.429 . S
C1294 C1286 1.574 . S
C1294 H1289 0.949 . S
C1294 C1300 1.368 . S
C1295 C1279 1.349 . S
C1295 H1287 0.950 . S
C1295 C1293 1.327 . S
C1296 C1284 1.349 1_655 S
C1296 H1290 0.950 . S
C1296 C1297 1.327 . S
C1297 H1291 0.950 . S
C1297 C1296 1.327 . S
C1297 C1301 1.429 1_655 S
C1298 C1281 1.574 . S
C1298 H1292 0.949 . S
C1298 C1302 1.368 . S
C1299 C1280 1.429 . S
C1299 C1293 1.429 . S
C1299 C1300 1.523 . S
C1300 C1281 1.368 . S
C1300 C1294 1.368 . S
C1300 C1299 1.523 . S
C1301 C1285 1.429 . S
C1301 C1297 1.429 1_455 S
C1301 C1302 1.523 . S
C1302 C1286 1.368 . S
C1302 C1298 1.368 . S
C1302 C1301 1.523 . S
H1303 C1278 0.950 . S
H1304 C1280 0.950 . S
H1305 C1281 0.949 . S
H1306 C1283 0.950 . S
H1307 C1285 0.950 . S
C1308 C1309 1.349 . S
C1308 C1310 1.327 . S
C1308 H1333 0.950 . S
C1309 C1308 1.349 . S
C1309 C1325 1.349 1_655 S
C1310 C1308 1.327 . S
C1310 C1329 1.429 . S
C1310 H1334 0.950 . S
C1311 C1328 1.574 . S
C1311 C1330 1.368 . S
C1311 H1335 0.949 . S
H1312 C1316 0.949 . S
C1313 C1314 1.349 . S
C1313 C1315 1.327 . S
C1313 H1336 0.950 . S
C1314 C1313 1.349 . S
C1314 C1326 1.349 . S
C1315 C1313 1.327 . S
C1315 C1331 1.429 . S
C1315 H1337 0.950 . S
C1316 H1312 0.949 . S
C1316 C1324 1.574 . S
C1316 C1332 1.368 . S
H1317 C1325 0.950 . S
H1318 C1323 0.950 1_455 S
H1319 C1324 0.949 . S
H1320 C1326 0.950 . S
H1321 C1327 0.950 . S
H1322 C1328 0.949 . S
C1323 H1318 0.950 1_655 S
C1323 C1325 1.327 1_655 S
C1323 C1329 1.429 . S
C1324 C1316 1.574 . S
C1324 H1319 0.949 . S
C1324 C1330 1.368 . S
C1325 C1309 1.349 1_455 S
C1325 H1317 0.950 . S
C1325 C1323 1.327 1_455 S
C1326 C1314 1.349 . S
C1326 H1320 0.950 . S
C1326 C1327 1.327 . S
C1327 H1321 0.950 . S
C1327 C1326 1.327 . S
C1327 C1331 1.429 . S
C1328 C1311 1.574 . S
C1328 H1322 0.949 . S
C1328 C1332 1.368 . S
C1329 C1310 1.429 . S
C1329 C1323 1.429 . S
C1329 C1330 1.523 . S
C1330 C1311 1.368 . S
C1330 C1324 1.368 . S
C1330 C1329 1.523 . S
C1331 C1315 1.429 . S
C1331 C1327 1.429 . S
C1331 C1332 1.523 . S
C1332 C1316 1.368 . S
C1332 C1328 1.368 . S
C1332 C1331 1.523 . S
H1333 C1308 0.950 . S
H1334 C1310 0.950 . S
H1335 C1311 0.949 . S
H1336 C1313 0.950 . S
H1337 C1315 0.950 . S
C1338 C1339 1.349 . S
C1338 C1340 1.327 . S
C1338 H1363 0.950 . S
C1339 C1338 1.349 . S
C1339 C1355 1.349 . S
C1340 C1338 1.327 . S
C1340 C1359 1.429 . S
C1340 H1364 0.950 . S
C1341 C1358 1.574 . S
C1341 C1360 1.368 . S
C1341 H1365 0.949 . S
H1342 C1346 0.949 . S
C1343 C1344 1.349 . S
C1343 C1345 1.327 . S
C1343 H1366 0.950 . S
C1344 C1343 1.349 . S
C1344 C1356 1.349 . S
C1345 C1343 1.327 . S
C1345 C1361 1.429 . S
C1345 H1367 0.950 . S
C1346 H1342 0.949 . S
C1346 C1354 1.574 . S
C1346 C1362 1.368 . S
H1347 C1355 0.950 . S
H1348 C1353 0.950 . S
H1349 C1354 0.949 . S
H1350 C1356 0.950 . S
H1351 C1357 0.950 . S
H1352 C1358 0.949 . S
C1353 H1348 0.950 . S
C1353 C1355 1.327 . S
C1353 C1359 1.429 . S
C1354 C1346 1.574 . S
C1354 H1349 0.949 . S
C1354 C1360 1.368 . S
C1355 C1339 1.349 . S
C1355 H1347 0.950 . S
C1355 C1353 1.327 . S
C1356 C1344 1.349 . S
C1356 H1350 0.950 . S
C1356 C1357 1.327 . S
C1357 H1351 0.950 . S
C1357 C1356 1.327 . S
C1357 C1361 1.429 . S
C1358 C1341 1.574 . S
C1358 H1352 0.949 . S
C1358 C1362 1.368 . S
C1359 C1340 1.429 . S
C1359 C1353 1.429 . S
C1359 C1360 1.523 . S
C1360 C1341 1.368 . S
C1360 C1354 1.368 . S
C1360 C1359 1.523 . S
C1361 C1345 1.429 . S
C1361 C1357 1.429 . S
C1361 C1362 1.523 . S
C1362 C1346 1.368 . S
C1362 C1358 1.368 . S
C1362 C1361 1.523 . S
H1363 C1338 0.950 . S
H1364 C1340 0.950 . S
H1365 C1341 0.949 . S
H1366 C1343 0.950 . S
H1367 C1345 0.950 . S
C1368 C1369 1.349 . S
C1368 C1370 1.327 . S
C1368 H1393 0.950 . S
C1369 C1368 1.349 . S
C1369 C1385 1.349 . S
C1370 C1368 1.327 . S
C1370 C1389 1.429 . S
C1370 H1394 0.950 . S
C1371 C1388 1.574 . S
C1371 C1390 1.368 . S
C1371 H1395 0.949 . S
H1372 C1376 0.949 . S
C1373 C1374 1.349 . S
C1373 C1375 1.327 . S
C1373 H1396 0.950 . S
C1374 C1373 1.349 . S
C1374 C1386 1.349 . S
C1375 C1373 1.327 . S
C1375 C1391 1.429 . S
C1375 H1397 0.950 . S
C1376 H1372 0.949 . S
C1376 C1384 1.574 . S
C1376 C1392 1.368 . S
H1377 C1385 0.950 . S
H1378 C1383 0.950 . S
H1379 C1384 0.949 . S
H1380 C1386 0.950 . S
H1381 C1387 0.950 . S
H1382 C1388 0.949 . S
C1383 H1378 0.950 . S
C1383 C1385 1.327 . S
C1383 C1389 1.429 . S
C1384 C1376 1.574 . S
C1384 H1379 0.949 . S
C1384 C1390 1.368 . S
C1385 C1369 1.349 . S
C1385 H1377 0.950 . S
C1385 C1383 1.327 . S
C1386 C1374 1.349 . S
C1386 H1380 0.950 . S
C1386 C1387 1.327 . S
C1387 H1381 0.950 . S
C1387 C1386 1.327 . S
C1387 C1391 1.429 . S
C1388 C1371 1.574 . S
C1388 H1382 0.949 . S
C1388 C1392 1.368 . S
C1389 C1370 1.429 . S
C1389 C1383 1.429 . S
C1389 C1390 1.523 . S
C1390 C1371 1.368 . S
C1390 C1384 1.368 . S
C1390 C1389 1.523 . S
C1391 C1375 1.429 . S
C1391 C1387 1.429 . S
C1391 C1392 1.523 . S
C1392 C1376 1.368 . S
C1392 C1388 1.368 . S
C1392 C1391 1.523 . S
H1393 C1368 0.950 . S
H1394 C1370 0.950 . S
H1395 C1371 0.949 . S
H1396 C1373 0.950 . S
H1397 C1375 0.950 . S
C1398 C1399 1.349 . S
C1398 C1400 1.327 . S
C1398 H1423 0.950 . S
C1399 C1398 1.349 . S
C1399 C1415 1.349 . S
C1400 C1398 1.327 . S
C1400 C1419 1.429 . S
C1400 H1424 0.950 . S
C1401 C1418 1.574 . S
C1401 C1420 1.368 . S
C1401 H1425 0.949 . S
H1402 C1406 0.949 . S
C1403 C1404 1.349 . S
C1403 C1405 1.327 . S
C1403 H1426 0.950 . S
C1404 C1403 1.349 . S
C1404 C1416 1.349 . S
C1405 C1403 1.327 . S
C1405 C1421 1.429 . S
C1405 H1427 0.950 . S
C1406 H1402 0.949 . S
C1406 C1414 1.574 . S
C1406 C1422 1.368 . S
H1407 C1415 0.950 . S
H1408 C1413 0.950 . S
H1409 C1414 0.949 . S
H1410 C1416 0.950 . S
H1411 C1417 0.950 . S
H1412 C1418 0.949 . S
C1413 H1408 0.950 . S
C1413 C1415 1.327 . S
C1413 C1419 1.429 . S
C1414 C1406 1.574 . S
C1414 H1409 0.949 . S
C1414 C1420 1.368 . S
C1415 C1399 1.349 . S
C1415 H1407 0.950 . S
C1415 C1413 1.327 . S
C1416 C1404 1.349 . S
C1416 H1410 0.950 . S
C1416 C1417 1.327 . S
C1417 H1411 0.950 . S
C1417 C1416 1.327 . S
C1417 C1421 1.429 . S
C1418 C1401 1.574 . S
C1418 H1412 0.949 . S
C1418 C1422 1.368 . S
C1419 C1400 1.429 . S
C1419 C1413 1.429 . S
C1419 C1420 1.523 . S
C1420 C1401 1.368 . S
C1420 C1414 1.368 . S
C1420 C1419 1.523 . S
C1421 C1405 1.429 . S
C1421 C1417 1.429 . S
C1421 C1422 1.523 . S
C1422 C1406 1.368 . S
C1422 C1418 1.368 . S
C1422 C1421 1.523 . S
H1423 C1398 0.950 . S
H1424 C1400 0.950 . S
H1425 C1401 0.949 . S
H1426 C1403 0.950 . S
H1427 C1405 0.950 . S
C1428 C1429 1.349 . S
C1428 C1430 1.327 . S
C1428 H1453 0.950 . S
C1429 C1428 1.349 . S
C1429 C1445 1.349 . S
C1430 C1428 1.327 . S
C1430 C1449 1.429 . S
C1430 H1454 0.950 . S
C1431 C1448 1.574 . S
C1431 C1450 1.368 . S
C1431 H1455 0.949 . S
H1432 C1436 0.949 . S
C1433 C1434 1.349 . S
C1433 C1435 1.327 . S
C1433 H1456 0.950 . S
C1434 C1433 1.349 . S
C1434 C1446 1.349 . S
C1435 C1433 1.327 . S
C1435 C1451 1.429 . S
C1435 H1457 0.950 . S
C1436 H1432 0.949 . S
C1436 C1444 1.574 . S
C1436 C1452 1.368 . S
H1437 C1445 0.950 . S
H1438 C1443 0.950 . S
H1439 C1444 0.949 . S
H1440 C1446 0.950 . S
H1441 C1447 0.950 . S
H1442 C1448 0.949 . S
C1443 H1438 0.950 . S
C1443 C1445 1.327 . S
C1443 C1449 1.429 . S
C1444 C1436 1.574 . S
C1444 H1439 0.949 . S
C1444 C1450 1.368 . S
C1445 C1429 1.349 . S
C1445 H1437 0.950 . S
C1445 C1443 1.327 . S
C1446 C1434 1.349 . S
C1446 H1440 0.950 . S
C1446 C1447 1.327 . S
C1447 H1441 0.950 . S
C1447 C1446 1.327 . S
C1447 C1451 1.429 . S
C1448 C1431 1.574 . S
C1448 H1442 0.949 . S
C1448 C1452 1.368 . S
C1449 C1430 1.429 . S
C1449 C1443 1.429 . S
C1449 C1450 1.523 . S
C1450 C1431 1.368 . S
C1450 C1444 1.368 . S
C1450 C1449 1.523 . S
C1451 C1435 1.429 . S
C1451 C1447 1.429 . S
C1451 C1452 1.523 . S
C1452 C1436 1.368 . S
C1452 C1448 1.368 . S
C1452 C1451 1.523 . S
H1453 C1428 0.950 . S
H1454 C1430 0.950 . S
H1455 C1431 0.949 . S
H1456 C1433 0.950 . S
H1457 C1435 0.950 . S
C1458 C1459 1.349 . S
C1458 C1460 1.327 . S
C1458 H1483 0.950 . S
C1459 C1458 1.349 . S
C1459 C1475 1.349 . S
C1460 C1458 1.327 . S
C1460 C1479 1.429 . S
C1460 H1484 0.950 . S
C1461 C1478 1.574 . S
C1461 C1480 1.368 . S
C1461 H1485 0.949 . S
H1462 C1466 0.949 1_556 S
C1463 C1464 1.349 . S
C1463 C1465 1.327 . S
C1463 H1486 0.979 . S
C1464 C1463 1.349 . S
C1464 C1476 1.349 . S
C1465 C1463 1.327 . S
C1465 C1481 1.429 . S
C1465 H1487 0.950 . S
C1466 H1462 0.949 1_554 S
C1466 C1474 1.574 . S
C1466 C1482 1.368 . S
H1467 C1475 0.950 . S
H1468 C1473 0.950 . S
H1469 C1474 0.949 . S
H1470 C1476 0.950 . S
H1471 C1477 0.950 . S
H1472 C1478 0.949 . S
C1473 H1468 0.950 . S
C1473 C1475 1.327 . S
C1473 C1479 1.429 . S
C1474 C1466 1.574 . S
C1474 H1469 0.949 . S
C1474 C1480 1.368 . S
C1475 C1459 1.349 . S
C1475 H1467 0.950 . S
C1475 C1473 1.327 . S
C1476 C1464 1.349 . S
C1476 H1470 0.950 . S
C1476 C1477 1.327 . S
C1477 H1471 0.950 . S
C1477 C1476 1.327 . S
C1477 C1481 1.429 . S
C1478 C1461 1.574 . S
C1478 H1472 0.949 . S
C1478 C1482 1.368 . S
C1479 C1460 1.429 . S
C1479 C1473 1.429 . S
C1479 C1480 1.523 . S
C1480 C1461 1.368 . S
C1480 C1474 1.368 . S
C1480 C1479 1.523 . S
C1481 C1465 1.429 . S
C1481 C1477 1.429 . S
C1481 C1482 1.523 1_556 S
C1482 C1466 1.368 . S
C1482 C1478 1.368 . S
C1482 C1481 1.523 1_554 S
H1483 C1458 0.950 . S
H1484 C1460 0.950 . S
H1485 C1461 0.949 . S
H1486 C1463 0.979 . S
H1487 C1465 0.950 . S
C1488 C1489 1.349 . S
C1488 C1490 1.327 . S
C1488 H1513 0.950 . S
C1489 C1488 1.349 . S
C1489 C1505 1.349 . S
C1490 C1488 1.327 . S
C1490 C1509 1.429 . S
C1490 H1514 0.950 . S
C1491 C1508 1.574 . S
C1491 C1510 1.368 . S
C1491 H1515 0.949 . S
H1492 C1496 0.949 . S
C1493 C1494 1.349 . S
C1493 C1495 1.327 . S
C1493 H1516 0.950 . S
C1494 C1493 1.349 . S
C1494 C1506 1.349 . S
C1495 C1493 1.327 . S
C1495 C1511 1.429 . S
C1495 H1517 0.950 . S
C1496 H1492 0.949 . S
C1496 C1504 1.574 . S
C1496 C1512 1.368 . S
H1497 C1505 0.950 . S
H1498 C1503 0.950 . S
H1499 C1504 0.949 . S
H1500 C1506 0.950 . S
H1501 C1507 0.950 . S
H1502 C1508 0.949 . S
C1503 H1498 0.950 . S
C1503 C1505 1.327 . S
C1503 C1509 1.429 . S
C1504 C1496 1.574 . S
C1504 H1499 0.949 . S
C1504 C1510 1.368 . S
C1505 C1489 1.349 . S
C1505 H1497 0.950 . S
C1505 C1503 1.327 . S
C1506 C1494 1.349 . S
C1506 H1500 0.950 . S
C1506 C1507 1.327 . S
C1507 H1501 0.950 . S
C1507 C1506 1.327 . S
C1507 C1511 1.429 . S
C1508 C1491 1.574 . S
C1508 H1502 0.949 . S
C1508 C1512 1.368 . S
C1509 C1490 1.429 . S
C1509 C1503 1.429 . S
C1509 C1510 1.523 . S
C1510 C1491 1.368 . S
C1510 C1504 1.368 . S
C1510 C1509 1.523 . S
C1511 C1495 1.429 . S
C1511 C1507 1.429 . S
C1511 C1512 1.523 . S
C1512 C1496 1.368 . S
C1512 C1508 1.368 . S
C1512 C1511 1.523 . S
H1513 C1488 0.950 . S
H1514 C1490 0.950 . S
H1515 C1491 0.949 . S
H1516 C1493 0.950 . S
H1517 C1495 0.950 . S
C1518 C1519 1.349 . S
C1518 C1520 1.327 . S
C1518 H1543 0.950 . S
C1519 C1518 1.349 . S
C1519 C1535 1.349 . S
C1520 C1518 1.327 . S
C1520 C1539 1.429 . S
C1520 H1544 0.950 . S
C1521 C1538 1.597 . S
C1521 C1540 1.371 . S
C1521 H1545 0.925 1_556 S
H1522 C1526 0.949 . S
C1523 C1524 1.349 . S
C1523 C1525 1.327 . S
C1523 H1546 0.950 . S
C1524 C1523 1.349 . S
C1524 C1536 1.349 . S
C1525 C1523 1.327 . S
C1525 C1541 1.429 . S
C1525 H1547 0.950 . S
C1526 H1522 0.949 . S
C1526 C1534 1.574 . S
C1526 C1542 1.368 . S
H1527 C1535 0.950 . S
H1528 C1533 0.950 . S
H1529 C1534 0.949 . S
H1530 C1536 0.950 . S
H1531 C1537 0.950 . S
H1532 C1538 0.949 . S
C1533 H1528 0.950 . S
C1533 C1535 1.327 . S
C1533 C1539 1.429 . S
C1534 C1526 1.574 . S
C1534 H1529 0.949 . S
C1534 C1540 1.368 . S
C1535 C1519 1.349 . S
C1535 H1527 0.950 . S
C1535 C1533 1.327 . S
C1536 C1524 1.349 . S
C1536 H1530 0.950 . S
C1536 C1537 1.327 . S
C1537 H1531 0.950 . S
C1537 C1536 1.327 . S
C1537 C1541 1.429 . S
C1538 C1521 1.597 . S
C1538 H1532 0.949 . S
C1538 C1542 1.368 . S
C1539 C1520 1.429 . S
C1539 C1533 1.429 . S
C1539 C1540 1.523 1_554 S
C1540 C1521 1.371 . S
C1540 C1534 1.368 . S
C1540 C1539 1.523 1_556 S
C1541 C1525 1.429 . S
C1541 C1537 1.429 . S
C1541 C1542 1.523 . S
C1542 C1526 1.368 . S
C1542 C1538 1.368 . S
C1542 C1541 1.523 . S
H1543 C1518 0.950 . S
H1544 C1520 0.950 . S
H1545 C1521 0.925 1_554 S
H1546 C1523 0.950 . S
H1547 C1525 0.950 . S
C1548 C1549 1.349 . S
C1548 C1550 1.327 . S
C1548 H1573 0.950 . S
C1549 C1548 1.349 . S
C1549 C1565 1.349 . S
C1550 C1548 1.327 . S
C1550 C1569 1.429 . S
C1550 H1574 0.950 . S
C1551 C1568 1.574 . S
C1551 C1570 1.368 . S
C1551 H1575 0.949 . S
H1552 C1556 0.949 . S
C1553 C1554 1.349 . S
C1553 C1555 1.327 . S
C1553 H1576 0.950 . S
C1554 C1553 1.349 . S
C1554 C1566 1.349 . S
C1555 C1553 1.327 . S
C1555 C1571 1.429 . S
C1555 H1577 0.950 . S
C1556 H1552 0.949 . S
C1556 C1564 1.574 . S
C1556 C1572 1.368 . S
H1557 C1565 0.950 . S
H1558 C1563 0.950 . S
H1559 C1564 0.949 . S
H1560 C1566 0.950 . S
H1561 C1567 0.950 . S
H1562 C1568 0.949 . S
C1563 H1558 0.950 . S
C1563 C1565 1.327 . S
C1563 C1569 1.429 . S
C1564 C1556 1.574 . S
C1564 H1559 0.949 . S
C1564 C1570 1.368 . S
C1565 C1549 1.349 . S
C1565 H1557 0.950 . S
C1565 C1563 1.327 . S
C1566 C1554 1.349 . S
C1566 H1560 0.950 . S
C1566 C1567 1.327 . S
C1567 H1561 0.950 . S
C1567 C1566 1.327 . S
C1567 C1571 1.429 . S
C1568 C1551 1.574 . S
C1568 H1562 0.949 . S
C1568 C1572 1.368 . S
C1569 C1550 1.429 . S
C1569 C1563 1.429 . S
C1569 C1570 1.523 . S
C1570 C1551 1.368 . S
C1570 C1564 1.368 . S
C1570 C1569 1.523 . S
C1571 C1555 1.429 . S
C1571 C1567 1.429 . S
C1571 C1572 1.523 . S
C1572 C1556 1.368 . S
C1572 C1568 1.368 . S
C1572 C1571 1.523 . S
H1573 C1548 0.950 . S
H1574 C1550 0.950 . S
H1575 C1551 0.949 . S
H1576 C1553 0.950 . S
H1577 C1555 0.950 . S
C1578 C1579 1.349 . S
C1578 C1580 1.327 . S
C1578 H1603 0.950 . S
C1579 C1578 1.349 . S
C1579 C1595 1.349 . S
C1580 C1578 1.327 . S
C1580 C1599 1.429 . S
C1580 H1604 0.950 . S
C1581 C1598 1.574 . S
C1581 C1600 1.368 . S
C1581 H1605 0.949 . S
H1582 C1586 0.949 . S
C1583 C1584 1.349 . S
C1583 C1585 1.327 . S
C1583 H1606 0.950 . S
C1584 C1583 1.349 . S
C1584 C1596 1.349 . S
C1585 C1583 1.327 . S
C1585 C1601 1.429 . S
C1585 H1607 0.950 . S
C1586 H1582 0.949 . S
C1586 C1594 1.574 . S
C1586 C1602 1.368 . S
H1587 C1595 0.950 . S
H1588 C1593 0.950 . S
H1589 C1594 0.949 . S
H1590 C1596 0.950 . S
H1591 C1597 0.950 . S
H1592 C1598 0.949 . S
C1593 H1588 0.950 . S
C1593 C1595 1.327 . S
C1593 C1599 1.429 . S
C1594 C1586 1.574 . S
C1594 H1589 0.949 . S
C1594 C1600 1.368 . S
C1595 C1579 1.349 . S
C1595 H1587 0.950 . S
C1595 C1593 1.327 . S
C1596 C1584 1.349 . S
C1596 H1590 0.950 . S
C1596 C1597 1.327 . S
C1597 H1591 0.950 . S
C1597 C1596 1.327 . S
C1597 C1601 1.429 . S
C1598 C1581 1.574 . S
C1598 H1592 0.949 . S
C1598 C1602 1.368 . S
C1599 C1580 1.429 . S
C1599 C1593 1.429 . S
C1599 C1600 1.523 . S
C1600 C1581 1.368 . S
C1600 C1594 1.368 . S
C1600 C1599 1.523 . S
C1601 C1585 1.429 . S
C1601 C1597 1.429 . S
C1601 C1602 1.523 . S
C1602 C1586 1.368 . S
C1602 C1598 1.368 . S
C1602 C1601 1.523 . S
H1603 C1578 0.950 . S
H1604 C1580 0.950 . S
H1605 C1581 0.949 . S
H1606 C1583 0.950 . S
H1607 C1585 0.950 . S
C1608 C1609 1.349 . S
C1608 C1610 1.327 . S
C1608 H1633 0.950 . S
C1609 C1608 1.349 . S
C1609 C1625 1.349 . S
C1610 C1608 1.327 . S
C1610 C1629 1.429 . S
C1610 H1634 0.950 . S
C1611 C1628 1.574 . S
C1611 C1630 1.368 . S
C1611 H1635 0.949 . S
H1612 C1616 0.949 . S
C1613 C1614 1.349 . S
C1613 C1615 1.327 . S
C1613 H1636 0.950 . S
C1614 C1613 1.349 . S
C1614 C1626 1.349 . S
C1615 C1613 1.327 . S
C1615 C1631 1.429 . S
C1615 H1637 0.950 . S
C1616 H1612 0.949 . S
C1616 C1624 1.574 . S
C1616 C1632 1.368 . S
H1617 C1625 0.950 . S
H1618 C1623 0.950 . S
H1619 C1624 0.949 . S
H1620 C1626 0.950 . S
H1621 C1627 0.950 . S
H1622 C1628 0.949 . S
C1623 H1618 0.950 . S
C1623 C1625 1.327 . S
C1623 C1629 1.429 . S
C1624 C1616 1.574 . S
C1624 H1619 0.949 . S
C1624 C1630 1.368 . S
C1625 C1609 1.349 . S
C1625 H1617 0.950 . S
C1625 C1623 1.327 . S
C1626 C1614 1.349 . S
C1626 H1620 0.950 . S
C1626 C1627 1.327 . S
C1627 H1621 0.950 . S
C1627 C1626 1.327 . S
C1627 C1631 1.429 . S
C1628 C1611 1.574 . S
C1628 H1622 0.949 . S
C1628 C1632 1.368 . S
C1629 C1610 1.429 . S
C1629 C1623 1.429 . S
C1629 C1630 1.523 . S
C1630 C1611 1.368 . S
C1630 C1624 1.368 . S
C1630 C1629 1.523 . S
C1631 C1615 1.429 . S
C1631 C1627 1.429 . S
C1631 C1632 1.523 . S
C1632 C1616 1.368 . S
C1632 C1628 1.368 . S
C1632 C1631 1.523 . S
H1633 C1608 0.950 . S
H1634 C1610 0.950 . S
H1635 C1611 0.949 . S
H1636 C1613 0.950 . S
H1637 C1615 0.950 . S
C1638 C1639 1.349 . S
C1638 C1640 1.327 . S
C1638 H1663 0.950 . S
C1639 C1638 1.349 . S
C1639 C1655 1.349 . S
C1640 C1638 1.327 . S
C1640 C1659 1.429 . S
C1640 H1664 0.950 . S
C1641 C1658 1.574 1_545 S
C1641 C1660 1.368 . S
C1641 H1665 0.949 . S
H1642 C1646 0.949 . S
C1643 C1644 1.349 . S
C1643 C1645 1.327 . S
C1643 H1666 0.950 . S
C1644 C1643 1.349 . S
C1644 C1656 1.349 . S
C1645 C1643 1.327 . S
C1645 C1661 1.429 . S
C1645 H1667 0.950 . S
C1646 H1642 0.949 . S
C1646 C1654 1.574 . S
C1646 C1662 1.368 . S
H1647 C1655 0.950 . S
H1648 C1653 0.950 . S
H1649 C1654 0.949 . S
H1650 C1656 0.950 . S
H1651 C1657 0.950 . S
H1652 C1658 0.949 . S
C1653 H1648 0.950 . S
C1653 C1655 1.327 . S
C1653 C1659 1.429 . S
C1654 C1646 1.574 . S
C1654 H1649 0.949 . S
C1654 C1660 1.368 . S
C1655 C1639 1.349 . S
C1655 H1647 0.950 . S
C1655 C1653 1.327 . S
C1656 C1644 1.349 . S
C1656 H1650 0.950 . S
C1656 C1657 1.327 . S
C1657 H1651 0.950 . S
C1657 C1656 1.327 . S
C1657 C1661 1.429 . S
C1658 C1641 1.574 1_565 S
C1658 H1652 0.949 . S
C1658 C1662 1.368 1_565 S
C1659 C1640 1.429 . S
C1659 C1653 1.429 . S
C1659 C1660 1.523 . S
C1660 C1641 1.368 . S
C1660 C1654 1.368 . S
C1660 C1659 1.523 . S
C1661 C1645 1.429 . S
C1661 C1657 1.429 . S
C1661 C1662 1.523 1_565 S
C1662 C1646 1.368 . S
C1662 C1658 1.368 1_545 S
C1662 C1661 1.523 1_545 S
H1663 C1638 0.950 . S
H1664 C1640 0.950 . S
H1665 C1641 0.949 . S
H1666 C1643 0.950 . S
H1667 C1645 0.950 . S
C1668 C1669 1.349 . S
C1668 C1670 1.327 . S
C1668 H1693 0.950 . S
C1669 C1668 1.349 . S
C1669 C1685 1.349 . S
C1670 C1668 1.327 . S
C1670 C1689 1.429 . S
C1670 H1694 0.950 . S
C1671 C1688 1.574 . S
C1671 C1690 1.368 . S
C1671 H1695 0.949 . S
H1672 C1676 0.949 . S
C1673 C1674 1.349 . S
C1673 C1675 1.327 . S
C1673 H1696 0.950 . S
C1674 C1673 1.349 . S
C1674 C1686 1.349 . S
C1675 C1673 1.327 . S
C1675 C1691 1.429 . S
C1675 H1697 0.950 . S
C1676 H1672 0.949 . S
C1676 C1684 1.574 . S
C1676 C1692 1.368 . S
H1677 C1685 0.950 . S
H1678 C1683 0.950 . S
H1679 C1684 0.949 . S
H1680 C1686 0.950 . S
H1681 C1687 0.950 . S
H1682 C1688 0.949 . S
C1683 H1678 0.950 . S
C1683 C1685 1.327 . S
C1683 C1689 1.429 . S
C1684 C1676 1.574 . S
C1684 H1679 0.949 . S
C1684 C1690 1.368 . S
C1685 C1669 1.349 . S
C1685 H1677 0.950 . S
C1685 C1683 1.327 . S
C1686 C1674 1.349 . S
C1686 H1680 0.950 . S
C1686 C1687 1.327 . S
C1687 H1681 0.950 . S
C1687 C1686 1.327 . S
C1687 C1691 1.429 . S
C1688 C1671 1.574 . S
C1688 H1682 0.949 . S
C1688 C1692 1.368 . S
C1689 C1670 1.429 . S
C1689 C1683 1.429 . S
C1689 C1690 1.523 . S
C1690 C1671 1.368 . S
C1690 C1684 1.368 . S
C1690 C1689 1.523 . S
C1691 C1675 1.429 . S
C1691 C1687 1.429 . S
C1691 C1692 1.523 . S
C1692 C1676 1.368 . S
C1692 C1688 1.368 . S
C1692 C1691 1.523 . S
H1693 C1668 0.950 . S
H1694 C1670 0.950 . S
H1695 C1671 0.949 . S
H1696 C1673 0.950 . S
H1697 C1675 0.950 . S
C1698 C1699 1.349 . S
C1698 C1700 1.327 . S
C1698 H1723 0.950 . S
C1699 C1698 1.349 . S
C1699 C1715 1.349 . S
C1700 C1698 1.327 . S
C1700 C1719 1.429 . S
C1700 H1724 0.950 . S
C1701 C1718 1.574 . S
C1701 C1720 1.368 . S
C1701 H1725 0.949 . S
H1702 C1706 0.949 . S
C1703 C1704 1.349 . S
C1703 C1705 1.327 . S
C1703 H1726 0.950 . S
C1704 C1703 1.349 . S
C1704 C1716 1.349 . S
C1705 C1703 1.327 . S
C1705 C1721 1.429 . S
C1705 H1727 0.950 . S
C1706 H1702 0.949 . S
C1706 C1714 1.574 . S
C1706 C1722 1.368 . S
H1707 C1715 0.950 . S
H1708 C1713 0.950 . S
H1709 C1714 0.949 1_545 S
H1710 C1716 0.950 . S
H1711 C1717 0.950 . S
H1712 C1718 0.949 . S
C1713 H1708 0.950 . S
C1713 C1715 1.327 . S
C1713 C1719 1.429 . S
C1714 C1706 1.574 . S
C1714 H1709 0.949 1_565 S
C1714 C1720 1.368 . S
C1715 C1699 1.349 . S
C1715 H1707 0.950 . S
C1715 C1713 1.327 . S
C1716 C1704 1.349 . S
C1716 H1710 0.950 . S
C1716 C1717 1.327 . S
C1717 H1711 0.950 . S
C1717 C1716 1.327 . S
C1717 C1721 1.429 . S
C1718 C1701 1.574 . S
C1718 H1712 0.949 . S
C1718 C1722 1.368 . S
C1719 C1700 1.429 . S
C1719 C1713 1.429 . S
C1719 C1720 1.523 1_545 S
C1720 C1701 1.368 . S
C1720 C1714 1.368 . S
C1720 C1719 1.523 1_565 S
C1721 C1705 1.429 . S
C1721 C1717 1.429 . S
C1721 C1722 1.523 . S
C1722 C1706 1.368 . S
C1722 C1718 1.368 . S
C1722 C1721 1.523 . S
H1723 C1698 0.950 . S
H1724 C1700 0.950 . S
H1725 C1701 0.949 . S
H1726 C1703 0.950 . S
H1727 C1705 0.950 . S
C1728 C1729 1.349 . S
C1728 C1730 1.327 . S
C1728 H1753 0.950 . S
C1729 C1728 1.349 . S
C1729 C1745 1.349 . S
C1730 C1728 1.327 . S
C1730 C1749 1.429 . S
C1730 H1754 0.950 . S
C1731 C1748 1.574 . S
C1731 C1750 1.368 . S
C1731 H1755 0.949 . S
H1732 C1736 0.949 . S
C1733 C1734 1.349 . S
C1733 C1735 1.327 . S
C1733 H1756 0.950 . S
C1734 C1733 1.349 . S
C1734 C1746 1.349 . S
C1735 C1733 1.327 . S
C1735 C1751 1.429 . S
C1735 H1757 0.950 . S
C1736 H1732 0.949 . S
C1736 C1744 1.574 . S
C1736 C1752 1.368 . S
H1737 C1745 0.950 . S
H1738 C1743 0.950 . S
H1739 C1744 0.949 . S
H1740 C1746 0.950 . S
H1741 C1747 0.950 . S
H1742 C1748 0.949 . S
C1743 H1738 0.950 . S
C1743 C1745 1.327 . S
C1743 C1749 1.429 . S
C1744 C1736 1.574 . S
C1744 H1739 0.949 . S
C1744 C1750 1.368 . S
C1745 C1729 1.349 . S
C1745 H1737 0.950 . S
C1745 C1743 1.327 . S
C1746 C1734 1.349 . S
C1746 H1740 0.950 . S
C1746 C1747 1.327 . S
C1747 H1741 0.950 . S
C1747 C1746 1.327 . S
C1747 C1751 1.429 . S
C1748 C1731 1.574 . S
C1748 H1742 0.949 . S
C1748 C1752 1.368 . S
C1749 C1730 1.429 . S
C1749 C1743 1.429 . S
C1749 C1750 1.523 . S
C1750 C1731 1.368 . S
C1750 C1744 1.368 . S
C1750 C1749 1.523 . S
C1751 C1735 1.429 . S
C1751 C1747 1.429 . S
C1751 C1752 1.523 . S
C1752 C1736 1.368 . S
C1752 C1748 1.368 . S
C1752 C1751 1.523 . S
H1753 C1728 0.950 . S
H1754 C1730 0.950 . S
H1755 C1731 0.949 . S
H1756 C1733 0.950 . S
H1757 C1735 0.950 . S
C1758 C1759 1.349 . S
C1758 C1760 1.327 . S
C1758 H1783 0.950 . S
C1759 C1758 1.349 . S
C1759 C1775 1.349 . S
C1760 C1758 1.327 . S
C1760 C1779 1.429 . S
C1760 H1784 0.950 . S
C1761 C1778 1.574 . S
C1761 C1780 1.368 . S
C1761 H1785 0.949 . S
H1762 C1766 0.949 . S
C1763 C1764 1.349 . S
C1763 C1765 1.327 . S
C1763 H1786 0.950 . S
C1764 C1763 1.349 . S
C1764 C1776 1.349 . S
C1765 C1763 1.327 . S
C1765 C1781 1.429 . S
C1765 H1787 0.950 . S
C1766 H1762 0.949 . S
C1766 C1774 1.574 . S
C1766 C1782 1.368 . S
H1767 C1775 0.947 . S
H1768 C1773 0.950 . S
H1769 C1774 0.949 . S
H1770 C1776 0.950 . S
H1771 C1777 0.950 . S
H1772 C1778 0.949 . S
C1773 H1768 0.950 . S
C1773 C1775 1.327 . S
C1773 C1779 1.429 . S
C1774 C1766 1.574 . S
C1774 H1769 0.949 . S
C1774 C1780 1.368 . S
C1775 C1759 1.349 . S
C1775 H1767 0.947 . S
C1775 C1773 1.327 . S
C1776 C1764 1.349 . S
C1776 H1770 0.950 . S
C1776 C1777 1.327 . S
C1777 H1771 0.950 . S
C1777 C1776 1.327 . S
C1777 C1781 1.429 . S
C1778 C1761 1.574 . S
C1778 H1772 0.949 . S
C1778 C1782 1.368 . S
C1779 C1760 1.429 . S
C1779 C1773 1.429 . S
C1779 C1780 1.523 . S
C1780 C1761 1.368 . S
C1780 C1774 1.368 . S
C1780 C1779 1.523 . S
C1781 C1765 1.429 . S
C1781 C1777 1.429 . S
C1781 C1782 1.523 . S
C1782 C1766 1.368 . S
C1782 C1778 1.368 . S
C1782 C1781 1.523 . S
H1783 C1758 0.950 . S
H1784 C1760 0.950 . S
H1785 C1761 0.949 . S
H1786 C1763 0.950 . S
H1787 C1765 0.950 . S
C1788 C1789 1.349 . S
C1788 C1790 1.327 . S
C1788 H1813 0.950 . S
C1789 C1788 1.349 . S
C1789 C1805 1.349 . S
C1790 C1788 1.327 . S
C1790 C1809 1.429 . S
C1790 H1814 0.950 . S
C1791 C1808 1.574 . S
C1791 C1810 1.368 . S
C1791 H1815 0.949 . S
H1792 C1796 0.949 . S
C1793 C1794 1.349 . S
C1793 C1795 1.327 . S
C1793 H1816 0.950 . S
C1794 C1793 1.349 . S
C1794 C1806 1.349 . S
C1795 C1793 1.327 . S
C1795 C1811 1.429 . S
C1795 H1817 0.950 . S
C1796 H1792 0.949 . S
C1796 C1804 1.574 . S
C1796 C1812 1.368 . S
H1797 C1805 0.950 . S
H1798 C1803 0.950 . S
H1799 C1804 0.949 . S
H1800 C1806 0.950 . S
H1801 C1807 0.950 . S
H1802 C1808 0.949 . S
C1803 H1798 0.950 . S
C1803 C1805 1.327 . S
C1803 C1809 1.429 . S
C1804 C1796 1.574 . S
C1804 H1799 0.949 . S
C1804 C1810 1.368 . S
C1805 C1789 1.349 . S
C1805 H1797 0.950 . S
C1805 C1803 1.327 . S
C1806 C1794 1.349 . S
C1806 H1800 0.950 . S
C1806 C1807 1.327 . S
C1807 H1801 0.950 . S
C1807 C1806 1.327 . S
C1807 C1811 1.429 . S
C1808 C1791 1.574 . S
C1808 H1802 0.949 . S
C1808 C1812 1.368 . S
C1809 C1790 1.429 . S
C1809 C1803 1.429 . S
C1809 C1810 1.523 . S
C1810 C1791 1.368 . S
C1810 C1804 1.368 . S
C1810 C1809 1.523 . S
C1811 C1795 1.429 . S
C1811 C1807 1.429 . S
C1811 C1812 1.523 . S
C1812 C1796 1.368 . S
C1812 C1808 1.368 . S
C1812 C1811 1.523 . S
H1813 C1788 0.950 . S
H1814 C1790 0.950 . S
H1815 C1791 0.949 . S
H1816 C1793 0.950 . S
H1817 C1795 0.950 . S
C1818 C1819 1.349 . S
C1818 C1820 1.327 . S
C1818 H1843 0.950 . S
C1819 C1818 1.349 . S
C1819 C1835 1.349 . S
C1820 C1818 1.327 . S
C1820 C1839 1.429 . S
C1820 H1844 0.950 . S
C1821 C1838 1.574 . S
C1821 C1840 1.368 . S
C1821 H1845 0.949 . S
H1822 C1826 0.949 . S
C1823 C1824 1.349 . S
C1823 C1825 1.327 . S
C1823 H1846 0.950 . S
C1824 C1823 1.349 . S
C1824 C1836 1.349 . S
C1825 C1823 1.327 . S
C1825 C1841 1.429 . S
C1825 H1847 0.950 . S
C1826 H1822 0.949 . S
C1826 C1834 1.574 . S
C1826 C1842 1.368 . S
H1827 C1835 0.950 . S
H1828 C1833 0.950 . S
H1829 C1834 0.949 . S
H1830 C1836 0.950 . S
H1831 C1837 0.950 . S
H1832 C1838 0.949 . S
C1833 H1828 0.950 . S
C1833 C1835 1.327 . S
C1833 C1839 1.429 . S
C1834 C1826 1.574 . S
C1834 H1829 0.949 . S
C1834 C1840 1.368 . S
C1835 C1819 1.349 . S
C1835 H1827 0.950 . S
C1835 C1833 1.327 . S
C1836 C1824 1.349 . S
C1836 H1830 0.950 . S
C1836 C1837 1.327 . S
C1837 H1831 0.950 . S
C1837 C1836 1.327 . S
C1837 C1841 1.429 . S
C1838 C1821 1.574 . S
C1838 H1832 0.949 . S
C1838 C1842 1.368 . S
C1839 C1820 1.429 . S
C1839 C1833 1.429 . S
C1839 C1840 1.523 . S
C1840 C1821 1.368 . S
C1840 C1834 1.368 . S
C1840 C1839 1.523 . S
C1841 C1825 1.429 . S
C1841 C1837 1.429 . S
C1841 C1842 1.523 . S
C1842 C1826 1.368 . S
C1842 C1838 1.368 . S
C1842 C1841 1.523 . S
H1843 C1818 0.950 . S
H1844 C1820 0.950 . S
H1845 C1821 0.949 . S
H1846 C1823 0.950 . S
H1847 C1825 0.950 . S
C1848 C1849 1.349 . S
C1848 C1850 1.327 . S
C1848 H1873 0.950 . S
C1849 C1848 1.349 . S
C1849 C1865 1.349 . S
C1850 C1848 1.327 . S
C1850 C1869 1.429 . S
C1850 H1874 0.950 . S
C1851 C1868 1.574 . S
C1851 C1870 1.368 . S
C1851 H1875 0.949 . S
H1852 C1856 0.949 . S
C1853 C1854 1.349 . S
C1853 C1855 1.327 . S
C1853 H1876 0.950 . S
C1854 C1853 1.349 . S
C1854 C1866 1.349 . S
C1855 C1853 1.327 . S
C1855 C1871 1.429 . S
C1855 H1877 0.950 . S
C1856 H1852 0.949 . S
C1856 C1864 1.574 . S
C1856 C1872 1.368 . S
H1857 C1865 0.950 . S
H1858 C1863 0.950 . S
H1859 C1864 0.949 . S
H1860 C1866 0.950 . S
H1861 C1867 0.950 . S
H1862 C1868 0.949 . S
C1863 H1858 0.950 . S
C1863 C1865 1.327 . S
C1863 C1869 1.429 . S
C1864 C1856 1.574 . S
C1864 H1859 0.949 . S
C1864 C1870 1.368 . S
C1865 C1849 1.349 . S
C1865 H1857 0.950 . S
C1865 C1863 1.327 . S
C1866 C1854 1.349 . S
C1866 H1860 0.950 . S
C1866 C1867 1.327 . S
C1867 H1861 0.950 . S
C1867 C1866 1.327 . S
C1867 C1871 1.429 . S
C1868 C1851 1.574 . S
C1868 H1862 0.949 . S
C1868 C1872 1.368 . S
C1869 C1850 1.429 . S
C1869 C1863 1.429 . S
C1869 C1870 1.523 . S
C1870 C1851 1.368 . S
C1870 C1864 1.368 . S
C1870 C1869 1.523 . S
C1871 C1855 1.429 . S
C1871 C1867 1.429 . S
C1871 C1872 1.523 . S
C1872 C1856 1.368 . S
C1872 C1868 1.368 . S
C1872 C1871 1.523 . S
H1873 C1848 0.950 . S
H1874 C1850 0.950 . S
H1875 C1851 0.949 . S
H1876 C1853 0.950 . S
H1877 C1855 0.950 . S
C1878 C1879 1.349 . S
C1878 C1880 1.327 . S
C1878 H1903 0.950 . S
C1879 C1878 1.349 . S
C1879 C1895 1.349 . S
C1880 C1878 1.327 . S
C1880 C1899 1.429 . S
C1880 H1904 0.950 . S
C1881 C1898 1.574 . S
C1881 C1900 1.368 . S
C1881 H1905 0.949 . S
H1882 C1886 0.949 . S
C1883 C1884 1.349 . S
C1883 C1885 1.327 . S
C1883 H1906 0.950 . S
C1884 C1883 1.349 . S
C1884 C1896 1.349 . S
C1885 C1883 1.327 . S
C1885 C1901 1.429 . S
C1885 H1907 0.950 . S
C1886 H1882 0.949 . S
C1886 C1894 1.574 . S
C1886 C1902 1.368 . S
H1887 C1895 0.950 . S
H1888 C1893 0.950 . S
H1889 C1894 0.949 . S
H1890 C1896 0.950 . S
H1891 C1897 0.950 . S
H1892 C1898 0.949 . S
C1893 H1888 0.950 . S
C1893 C1895 1.327 . S
C1893 C1899 1.429 . S
C1894 C1886 1.574 . S
C1894 H1889 0.949 . S
C1894 C1900 1.368 . S
C1895 C1879 1.349 . S
C1895 H1887 0.950 . S
C1895 C1893 1.327 . S
C1896 C1884 1.349 . S
C1896 H1890 0.950 . S
C1896 C1897 1.327 . S
C1897 H1891 0.950 . S
C1897 C1896 1.327 . S
C1897 C1901 1.429 . S
C1898 C1881 1.574 . S
C1898 H1892 0.949 . S
C1898 C1902 1.368 . S
C1899 C1880 1.429 . S
C1899 C1893 1.429 . S
C1899 C1900 1.523 . S
C1900 C1881 1.368 . S
C1900 C1894 1.368 . S
C1900 C1899 1.523 . S
C1901 C1885 1.429 . S
C1901 C1897 1.429 . S
C1901 C1902 1.523 . S
C1902 C1886 1.368 . S
C1902 C1898 1.368 . S
C1902 C1901 1.523 . S
H1903 C1878 0.950 . S
H1904 C1880 0.950 . S
H1905 C1881 0.949 . S
H1906 C1883 0.950 . S
H1907 C1885 0.950 . S
C1908 C1909 1.349 . S
C1908 C1910 1.327 . S
C1908 H1933 0.950 . S
C1909 C1908 1.349 . S
C1909 C1925 1.349 . S
C1910 C1908 1.327 . S
C1910 C1929 1.429 . S
C1910 H1934 0.950 . S
C1911 C1928 1.574 . S
C1911 C1930 1.368 . S
C1911 H1935 0.949 . S
H1912 C1916 0.949 . S
C1913 C1914 1.349 . S
C1913 C1915 1.327 . S
C1913 H1936 0.950 . S
C1914 C1913 1.349 . S
C1914 C1926 1.349 . S
C1915 C1913 1.327 . S
C1915 C1931 1.429 . S
C1915 H1937 0.950 . S
C1916 H1912 0.949 . S
C1916 C1924 1.574 . S
C1916 C1932 1.368 . S
H1917 C1925 0.950 . S
H1918 C1923 0.950 . S
H1919 C1924 0.949 . S
H1920 C1926 0.950 . S
H1921 C1927 0.950 . S
H1922 C1928 0.949 1_655 S
C1923 H1918 0.950 . S
C1923 C1925 1.327 . S
C1923 C1929 1.429 . S
C1924 C1916 1.574 . S
C1924 H1919 0.949 . S
C1924 C1930 1.368 . S
C1925 C1909 1.349 . S
C1925 H1917 0.950 . S
C1925 C1923 1.327 . S
C1926 C1914 1.349 . S
C1926 H1920 0.950 . S
C1926 C1927 1.327 . S
C1927 H1921 0.950 . S
C1927 C1926 1.327 . S
C1927 C1931 1.429 . S
C1928 C1911 1.574 . S
C1928 H1922 0.949 1_455 S
C1928 C1932 1.368 . S
C1929 C1910 1.429 . S
C1929 C1923 1.429 . S
C1929 C1930 1.523 . S
C1930 C1911 1.368 . S
C1930 C1924 1.368 . S
C1930 C1929 1.523 . S
C1931 C1915 1.429 . S
C1931 C1927 1.429 . S
C1931 C1932 1.523 1_655 S
C1932 C1916 1.368 . S
C1932 C1928 1.368 . S
C1932 C1931 1.523 1_455 S
H1933 C1908 0.950 . S
H1934 C1910 0.950 . S
H1935 C1911 0.949 . S
H1936 C1913 0.950 . S
H1937 C1915 0.950 . S
C1938 C1939 1.349 . S
C1938 C1940 1.327 . S
C1938 H1963 0.950 . S
C1939 C1938 1.349 . S
C1939 C1955 1.349 . S
C1940 C1938 1.327 . S
C1940 C1959 1.429 . S
C1940 H1964 0.950 . S
C1941 C1958 1.574 . S
C1941 C1960 1.368 . S
C1941 H1965 0.949 . S
H1942 C1946 0.949 . S
C1943 C1944 1.349 . S
C1943 C1945 1.327 . S
C1943 H1966 0.950 . S
C1944 C1943 1.349 . S
C1944 C1956 1.349 . S
C1945 C1943 1.327 . S
C1945 C1961 1.429 . S
C1945 H1967 0.950 . S
C1946 H1942 0.949 . S
C1946 C1954 1.574 . S
C1946 C1962 1.368 . S
H1947 C1955 0.950 . S
H1948 C1953 0.950 . S
H1949 C1954 0.949 . S
H1950 C1956 0.950 . S
H1951 C1957 0.950 . S
H1952 C1958 0.949 . S
C1953 H1948 0.950 . S
C1953 C1955 1.327 . S
C1953 C1959 1.429 . S
C1954 C1946 1.574 . S
C1954 H1949 0.949 . S
C1954 C1960 1.368 . S
C1955 C1939 1.349 . S
C1955 H1947 0.950 . S
C1955 C1953 1.327 . S
C1956 C1944 1.349 . S
C1956 H1950 0.950 . S
C1956 C1957 1.327 . S
C1957 H1951 0.950 . S
C1957 C1956 1.327 . S
C1957 C1961 1.429 . S
C1958 C1941 1.574 . S
C1958 H1952 0.949 . S
C1958 C1962 1.368 . S
C1959 C1940 1.429 . S
C1959 C1953 1.429 . S
C1959 C1960 1.523 . S
C1960 C1941 1.368 . S
C1960 C1954 1.368 . S
C1960 C1959 1.523 . S
C1961 C1945 1.429 . S
C1961 C1957 1.429 . S
C1961 C1962 1.523 . S
C1962 C1946 1.368 . S
C1962 C1958 1.368 . S
C1962 C1961 1.523 . S
H1963 C1938 0.950 . S
H1964 C1940 0.950 . S
H1965 C1941 0.949 . S
H1966 C1943 0.950 . S
H1967 C1945 0.950 . S
C1968 C1969 1.349 . S
C1968 C1970 1.327 . S
C1968 H1993 0.950 . S
C1969 C1968 1.349 . S
C1969 C1985 1.349 . S
C1970 C1968 1.327 . S
C1970 C1989 1.429 . S
C1970 H1994 0.950 . S
C1971 C1988 1.574 . S
C1971 C1990 1.368 . S
C1971 H1995 0.949 . S
H1972 C1976 0.949 . S
C1973 C1974 1.349 . S
C1973 C1975 1.327 . S
C1973 H1996 0.950 . S
C1974 C1973 1.349 . S
C1974 C1986 1.349 . S
C1975 C1973 1.327 . S
C1975 C1991 1.429 . S
C1975 H1997 0.950 . S
C1976 H1972 0.949 . S
C1976 C1984 1.574 . S
C1976 C1992 1.368 . S
H1977 C1985 0.950 . S
H1978 C1983 0.950 . S
H1979 C1984 0.949 . S
H1980 C1986 0.950 . S
H1981 C1987 0.950 . S
H1982 C1988 0.949 . S
C1983 H1978 0.950 . S
C1983 C1985 1.327 . S
C1983 C1989 1.429 . S
C1984 C1976 1.574 . S
C1984 H1979 0.949 . S
C1984 C1990 1.368 . S
C1985 C1969 1.349 . S
C1985 H1977 0.950 . S
C1985 C1983 1.327 . S
C1986 C1974 1.349 . S
C1986 H1980 0.950 . S
C1986 C1987 1.327 . S
C1987 H1981 0.950 . S
C1987 C1986 1.327 . S
C1987 C1991 1.429 . S
C1988 C1971 1.574 . S
C1988 H1982 0.949 . S
C1988 C1992 1.368 . S
C1989 C1970 1.429 . S
C1989 C1983 1.429 . S
C1989 C1990 1.523 . S
C1990 C1971 1.368 . S
C1990 C1984 1.368 . S
C1990 C1989 1.523 . S
C1991 C1975 1.429 . S
C1991 C1987 1.429 . S
C1991 C1992 1.523 . S
C1992 C1976 1.368 . S
C1992 C1988 1.368 . S
C1992 C1991 1.523 . S
H1993 C1968 0.950 . S
H1994 C1970 0.950 . S
H1995 C1971 0.949 . S
H1996 C1973 0.950 . S
H1997 C1975 0.950 . S
C1998 C1999 1.349 . S
C1998 C2000 1.327 . S
C1998 H2023 0.950 . S
C1999 C1998 1.349 . S
C1999 C2015 1.349 . S
C2000 C1998 1.327 . S
C2000 C2019 1.429 . S
C2000 H2024 0.950 . S
C2001 C2018 1.574 . S
C2001 C2020 1.368 . S
C2001 H2025 0.949 . S
H2002 C2006 0.949 . S
C2003 C2004 1.349 . S
C2003 C2005 1.327 . S
C2003 H2026 0.950 . S
C2004 C2003 1.349 . S
C2004 C2016 1.349 . S
C2005 C2003 1.327 . S
C2005 C2021 1.429 . S
C2005 H2027 0.950 . S
C2006 H2002 0.949 . S
C2006 C2014 1.574 . S
C2006 C2022 1.368 . S
H2007 C2015 0.950 . S
H2008 C2013 0.950 . S
H2009 C2014 0.949 . S
H2010 C2016 0.950 . S
H2011 C2017 0.950 . S
H2012 C2018 0.949 . S
C2013 H2008 0.950 . S
C2013 C2015 1.327 . S
C2013 C2019 1.429 . S
C2014 C2006 1.574 . S
C2014 H2009 0.949 . S
C2014 C2020 1.368 . S
C2015 C1999 1.349 . S
C2015 H2007 0.950 . S
C2015 C2013 1.327 . S
C2016 C2004 1.349 . S
C2016 H2010 0.950 . S
C2016 C2017 1.327 . S
C2017 H2011 0.950 . S
C2017 C2016 1.327 . S
C2017 C2021 1.429 . S
C2018 C2001 1.574 . S
C2018 H2012 0.949 . S
C2018 C2022 1.368 . S
C2019 C2000 1.429 . S
C2019 C2013 1.429 . S
C2019 C2020 1.523 . S
C2020 C2001 1.368 . S
C2020 C2014 1.368 . S
C2020 C2019 1.523 . S
C2021 C2005 1.429 . S
C2021 C2017 1.429 . S
C2021 C2022 1.523 . S
C2022 C2006 1.368 . S
C2022 C2018 1.368 . S
C2022 C2021 1.523 . S
H2023 C1998 0.950 . S
H2024 C2000 0.950 . S
H2025 C2001 0.949 . S
H2026 C2003 0.950 . S
H2027 C2005 0.950 . S
C2028 C2029 1.349 . S
C2028 C2030 1.327 . S
C2028 H2053 0.949 . S
C2029 C2028 1.349 . S
C2029 C2045 1.349 . S
C2030 C2028 1.327 . S
C2030 C2049 1.429 . S
C2030 H2054 0.950 . S
C2031 C2048 1.574 . S
C2031 C2050 1.368 . S
C2031 H2055 0.949 . S
H2032 C2036 0.949 . S
C2033 C2034 1.349 . S
C2033 C2035 1.327 . S
C2033 H2056 0.950 . S
C2034 C2033 1.349 . S
C2034 C2046 1.349 . S
C2035 C2033 1.327 . S
C2035 C2051 1.429 . S
C2035 H2057 0.950 . S
C2036 H2032 0.949 . S
C2036 C2044 1.574 . S
C2036 C2052 1.368 . S
H2037 C2045 0.950 . S
H2038 C2043 0.950 . S
H2039 C2044 0.949 . S
H2040 C2046 0.950 . S
H2041 C2047 0.950 . S
H2042 C2048 0.949 . S
C2043 H2038 0.950 . S
C2043 C2045 1.327 . S
C2043 C2049 1.429 . S
C2044 C2036 1.574 . S
C2044 H2039 0.949 . S
C2044 C2050 1.368 . S
C2045 C2029 1.349 . S
C2045 H2037 0.950 . S
C2045 C2043 1.327 . S
C2046 C2034 1.349 . S
C2046 H2040 0.950 . S
C2046 C2047 1.327 . S
C2047 H2041 0.950 . S
C2047 C2046 1.327 . S
C2047 C2051 1.429 . S
C2048 C2031 1.574 . S
C2048 H2042 0.949 . S
C2048 C2052 1.368 . S
C2049 C2030 1.429 . S
C2049 C2043 1.429 . S
C2049 C2050 1.523 . S
C2050 C2031 1.368 . S
C2050 C2044 1.368 . S
C2050 C2049 1.523 . S
C2051 C2035 1.429 . S
C2051 C2047 1.429 . S
C2051 C2052 1.523 . S
C2052 C2036 1.368 . S
C2052 C2048 1.368 . S
C2052 C2051 1.523 . S
H2053 C2028 0.949 . S
H2054 C2030 0.950 . S
H2055 C2031 0.949 . S
H2056 C2033 0.950 . S
H2057 C2035 0.950 . S
C2058 C2059 1.349 . S
C2058 C2060 1.327 . S
C2058 H2083 0.950 . S
C2059 C2058 1.349 . S
C2059 C2075 1.349 . S
C2060 C2058 1.327 . S
C2060 C2079 1.429 . S
C2060 H2084 0.950 . S
C2061 C2078 1.574 . S
C2061 C2080 1.368 . S
C2061 H2085 0.949 . S
H2062 C2066 0.949 1_455 S
C2063 C2064 1.349 . S
C2063 C2065 1.327 . S
C2063 H2086 0.950 . S
C2064 C2063 1.349 . S
C2064 C2076 1.349 . S
C2065 C2063 1.327 . S
C2065 C2081 1.429 . S
C2065 H2087 0.950 . S
C2066 H2062 0.949 1_655 S
C2066 C2074 1.574 . S
C2066 C2082 1.368 . S
H2067 C2075 0.950 . S
H2068 C2073 0.950 . S
H2069 C2074 0.949 . S
H2070 C2076 0.950 . S
H2071 C2077 0.950 . S
H2072 C2078 0.949 . S
C2073 H2068 0.950 . S
C2073 C2075 1.327 . S
C2073 C2079 1.429 . S
C2074 C2066 1.574 . S
C2074 H2069 0.949 . S
C2074 C2080 1.368 . S
C2075 C2059 1.349 . S
C2075 H2067 0.950 . S
C2075 C2073 1.327 . S
C2076 C2064 1.349 . S
C2076 H2070 0.950 . S
C2076 C2077 1.327 . S
C2077 H2071 0.950 . S
C2077 C2076 1.327 . S
C2077 C2081 1.429 . S
C2078 C2061 1.574 . S
C2078 H2072 0.949 . S
C2078 C2082 1.368 . S
C2079 C2060 1.429 . S
C2079 C2073 1.429 . S
C2079 C2080 1.523 . S
C2080 C2061 1.368 . S
C2080 C2074 1.368 . S
C2080 C2079 1.523 . S
C2081 C2065 1.429 . S
C2081 C2077 1.429 . S
C2081 C2082 1.523 1_455 S
C2082 C2066 1.368 . S
C2082 C2078 1.368 . S
C2082 C2081 1.523 1_655 S
H2083 C2058 0.950 . S
H2084 C2060 0.950 . S
H2085 C2061 0.949 . S
H2086 C2063 0.950 . S
H2087 C2065 0.950 . S
C1009 C67 1.477 . S
C1014 C987 1.513 . S
C1039 C823 1.548 . S
C1044 C147 1.570 . S
C1069 C231 1.410 . S
C1074 C735 1.404 . S
C1099 C315 1.458 . S
C1104 C903 1.453 1_545 S
C1129 C399 1.570 . S
C1134 C907 1.526 . S
C1159 C487 1.574 . S
C1164 C991 1.577 . S
C1189 C819 1.463 . S
C1194 C567 1.459 1_556 S
C1219 C651 1.503 . S
C1224 C739 1.464 . S
C1249 C319 1.585 . S
C1254 C403 1.581 . S
C1279 C63 1.438 . S
C1284 C483 1.441 . S
C1309 C151 1.582 1_655 S
C1314 C571 1.585 . S
C1339 C655 1.622 . S
C1344 C235 1.618 . S
C1369 C70 1.620 . S
C1374 C746 1.753 . S
C1399 C142 1.415 . S
C1404 C914 1.614 . S
C1429 C998 1.672 . S
C1434 C226 1.465 . S
C1459 C310 1.583 . S
C1464 C812 1.800 . S
C1489 C394 1.406 . S
C1494 C830 1.602 . S
C1519 C728 1.847 . S
C1524 C490 1.702 . S
C1549 C896 1.789 . S
C1554 C562 1.574 . S
C1579 C980 1.759 . S
C1584 C646 1.546 . S
C1609 C74 1.772 . S
C1614 C322 1.635 . S
C1639 C58 1.556 . S
C1644 C140 1.769 . S
C1669 C154 1.713 . S
C1674 C224 1.859 . S
C1699 C308 1.750 . S
C1704 C238 1.611 . S
C1729 C478 1.547 . S
C1734 C392 1.754 . S
C1759 C494 1.626 . S
C1764 C574 1.500 . S
C1789 C560 1.734 . S
C1794 C658 1.601 . S
C1819 C406 1.577 . S
C1824 C644 1.714 . S
C1849 C742 1.566 . S
C1854 C326 1.697 . S
C1879 C476 1.770 . S
C1884 C826 1.631 . S
C1909 C730 1.469 . S
C1914 C578 1.678 . S
C1939 C898 1.405 . S
C1944 C662 1.598 . S
C1969 C410 1.579 . S
C1974 C982 1.380 . S
C1999 C994 1.465 . S
C2004 C158 1.593 . S
C2029 C242 1.571 . S
C2034 C814 1.377 . S
C2059 C910 1.600 . S
C2064 C56 1.739 . S
