# Generated by pormake.
# Topology eci, (8)-cn, num edge types: 1
# Building blocks:
#     Node 0, Type 0, BuildingBlock: TAGTUT_clean_sbu_3, # of connection points: 8
#     Node 1, Type 0, BuildingBlock: TAGTUT_clean_sbu_3, # of connection points: 8
#     Node 2, Type 0, BuildingBlock: TAGTUT_clean_sbu_3, # of connection points: 8
#     Node 3, Type 0, BuildingBlock: TAGTUT_clean_sbu_3, # of connection points: 8
#     Edge 4, Type (0, 0), BuildingBlock: UVAHIK_clean_linker_0, # of connection points: 2
#     Edge 5, Type (0, 0), BuildingBlock: UVAHIK_clean_linker_0, # of connection points: 2
#     Edge 6, Type (0, 0), BuildingBlock: UVAHIK_clean_linker_0, # of connection points: 2
#     Edge 7, Type (0, 0), BuildingBlock: UVAHIK_clean_linker_0, # of connection points: 2
#     Edge 8, Type (0, 0), BuildingBlock: UVAHIK_clean_linker_0, # of connection points: 2
#     Edge 9, Type (0, 0), BuildingBlock: UVAHIK_clean_linker_0, # of connection points: 2
#     Edge 10, Type (0, 0), BuildingBlock: UVAHIK_clean_linker_0, # of connection points: 2
#     Edge 11, Type (0, 0), BuildingBlock: UVAHIK_clean_linker_0, # of connection points: 2
#     Edge 12, Type (0, 0), BuildingBlock: UVAHIK_clean_linker_0, # of connection points: 2
#     Edge 13, Type (0, 0), BuildingBlock: UVAHIK_clean_linker_0, # of connection points: 2
#     Edge 14, Type (0, 0), BuildingBlock: UVAHIK_clean_linker_0, # of connection points: 2
#     Edge 15, Type (0, 0), BuildingBlock: UVAHIK_clean_linker_0, # of connection points: 2
#     Edge 16, Type (0, 0), BuildingBlock: UVAHIK_clean_linker_0, # of connection points: 2
#     Edge 17, Type (0, 0), BuildingBlock: UVAHIK_clean_linker_0, # of connection points: 2
#     Edge 18, Type (0, 0), BuildingBlock: UVAHIK_clean_linker_0, # of connection points: 2
#     Edge 19, Type (0, 0), BuildingBlock: UVAHIK_clean_linker_0, # of connection points: 2
# Relax obj value: 0.295
# Max RMSD: 0.268
# Mean RMSD: 0.266
data_MOF--net-eci--node1-TAGTUT_clean_sbu_3--edge1-UVAHIK_clean_linker_0
_symmetry_space_group_name_H-M    P1
_symmetry_Int_Tables_number       1
_symmetry_cell_setting            triclinic
loop_
_symmetry_equiv_pos_as_xyz
'x, y, z'
_cell_length_a     39.725786
_cell_length_b     39.568012
_cell_length_c     20.088352
_cell_angle_alpha  88.985746
_cell_angle_beta   89.797571
_cell_angle_gamma 89.847916
loop_
_atom_site_label
_atom_site_type_symbol
_atom_site_fract_x
_atom_site_fract_y
_atom_site_fract_z
_atom_type_partial_charge
C0 C 0.75882 0.87617 0.96824 0.0
C1 C 0.68424 0.77249 0.9493 0.0
C2 C 0.77913 0.71464 -0.00655 0.0
Mg3 Mg 0.83529 0.88865 0.93483 0.0
Mg4 Mg 0.87916 0.84423 0.82882 0.0
O5 O 0.85141 0.84331 0.904 0.0
Mg6 Mg 0.80768 0.81814 0.90713 0.0
O7 O 0.76272 0.79634 0.91741 0.0
Mg8 Mg 0.75735 0.79703 0.01695 0.0
Mg9 Mg 0.75123 0.75625 0.87616 0.0
C10 C 0.86208 0.76537 0.84222 0.0
O11 O 0.79943 0.81915 0.79469 0.0
O12 O 0.8909 0.90353 0.94043 0.0
O13 O 0.7714 0.77016 0.77977 0.0
O14 O 0.83465 0.91258 0.82997 0.0
O15 O 0.92154 0.86929 0.87515 0.0
O16 O 0.85877 0.87899 0.75612 0.0
O17 O 0.81333 0.81358 0.01861 0.0
O18 O 0.83637 0.8639 0.03805 0.0
C19 C 0.82568 0.83502 0.05855 0.0
C20 C 0.91915 0.89346 0.91668 0.0
O21 O 0.83811 0.76935 0.88487 0.0
O22 O 0.70095 0.7835 -0.00082 0.0
O23 O 0.87752 0.79017 0.81336 0.0
O24 O 0.77297 0.74031 0.02951 0.0
O25 O 0.69857 0.76092 0.89715 0.0
O26 O 0.7742 0.71558 0.93083 0.0
O27 O 0.78172 0.8683 0.92638 0.0
O28 O 0.74459 0.8535 0.00484 0.0
C29 C 0.84387 0.90654 0.7704 0.0
C30 C 0.78761 0.796 0.75726 0.0
C31 C 0.63469 0.26898 0.26205 0.0
C32 C 0.75045 0.21806 0.19596 0.0
C33 C 0.7926 0.30366 0.30028 0.0
Mg34 Mg 0.6124 0.34387 0.29055 0.0
Mg35 Mg 0.64747 0.41046 0.21994 0.0
O36 O 0.65428 0.3707 0.26988 0.0
Mg37 Mg 0.68497 0.33333 0.2412 0.0
O38 O 0.71238 0.29273 0.21848 0.0
Mg39 Mg 0.71404 0.26896 0.30787 0.0
Mg40 Mg 0.75297 0.29617 0.1722 0.0
C41 C 0.72792 0.40352 0.21642 0.0
O42 O 0.68219 0.34563 0.12914 0.0
O43 O 0.59266 0.392 0.3409 0.0
O44 O 0.73413 0.32978 0.09457 0.0
O45 O 0.58563 0.36024 0.19455 0.0
O46 O 0.62015 0.43675 0.29668 0.0
O47 O 0.61295 0.40104 0.13967 0.0
O48 O 0.69158 0.3181 0.35096 0.0
O49 O 0.63889 0.32759 0.38486 0.0
C50 C 0.66907 0.31808 0.39661 0.0
C51 C 0.59922 0.42379 0.33864 0.0
O52 O 0.72873 0.37266 0.23831 0.0
O53 O 0.73537 0.22299 0.25169 0.0
O54 O 0.70063 0.41967 0.20262 0.0
O55 O 0.76888 0.28702 0.32906 0.0
O56 O 0.7593 0.24251 0.1569 0.0
O57 O 0.79037 0.31334 0.23962 0.0
O58 O 0.63902 0.29932 0.24127 0.0
O59 O 0.65908 0.25188 0.28741 0.0
C60 C 0.5883 0.38053 0.14477 0.0
C61 C 0.70561 0.34445 0.08478 0.0
C62 C 0.17211 0.18758 0.31903 0.0
C63 C 0.1056 0.07953 0.3664 0.0
C64 C 0.0894 0.11898 0.56258 0.0
Mg65 Mg 0.21401 0.23689 0.4114 0.0
Mg66 Mg 0.25184 0.21034 0.54792 0.0
O67 O 0.21167 0.21276 0.50037 0.0
Mg68 Mg 0.18586 0.17156 0.47531 0.0
O69 O 0.1569 0.1338 0.44325 0.0
Mg70 Mg 0.11427 0.15915 0.42051 0.0
Mg71 Mg 0.151 0.09274 0.48837 0.0
C72 C 0.20506 0.15979 0.63213 0.0
O73 O 0.23114 0.13322 0.48027 0.0
O74 O 0.23325 0.28331 0.46901 0.0
O75 O 0.20385 0.08436 0.50653 0.0
O76 O 0.26939 0.22002 0.39174 0.0
O77 O 0.25631 0.26409 0.5646 0.0
O78 O 0.29091 0.19463 0.48188 0.0
O79 O 0.13826 0.20424 0.47329 0.0
O80 O 0.15853 0.25236 0.43033 0.0
C81 C 0.13387 0.23477 0.45321 0.0
C82 C 0.24738 0.28846 0.52542 0.0
O83 O 0.1819 0.15838 0.58749 0.0
O84 O 0.09733 0.11097 0.36577 0.0
O85 O 0.23309 0.17544 0.6234 0.0
O86 O 0.08633 0.14014 0.51423 0.0
O87 O 0.12651 0.06699 0.40858 0.0
O88 O 0.11503 0.09958 0.56729 0.0
O89 O 0.19378 0.18751 0.36599 0.0
O90 O 0.14196 0.17745 0.32876 0.0
C91 C 0.29339 0.20414 0.42114 0.0
C92 C 0.23088 0.10158 0.49733 0.0
C93 C 0.33133 0.67877 0.67419 0.0
C94 C 0.42494 0.61725 0.80856 0.0
C95 C 0.34864 0.59275 0.94733 0.0
Mg96 Mg 0.25977 0.71157 0.71984 0.0
Mg97 Mg 0.25259 0.74659 0.86632 0.0
O98 O 0.26473 0.70824 0.81943 0.0
Mg99 Mg 0.31038 0.68742 0.82736 0.0
O100 O 0.35503 0.66353 0.82823 0.0
Mg101 Mg 0.3413 0.61974 0.78759 0.0
Mg102 Mg 0.38165 0.65947 0.9047 0.0
C103 C 0.28757 0.70219 0.97999 0.0
O104 O 0.33891 0.73551 0.85923 0.0
O105 O 0.20264 0.72249 0.74015 0.0
O106 O 0.37752 0.71258 0.92985 0.0
O107 O 0.27328 0.76913 0.71613 0.0
O108 O 0.20026 0.7427 0.84417 0.0
O109 O 0.27556 0.78951 0.81862 0.0
O110 O 0.28666 0.63752 0.79845 0.0
O111 O 0.24915 0.65432 0.72259 0.0
C112 C 0.26406 0.63072 0.75561 0.0
C113 C 0.18591 0.73207 0.79155 0.0
O114 O 0.3011 0.68133 0.93931 0.0
O115 O 0.39755 0.60754 0.78139 0.0
O116 O 0.27102 0.72857 0.96119 0.0
O117 O 0.34021 0.59031 0.88641 0.0
O118 O 0.42583 0.63873 0.8556 0.0
O119 O 0.36254 0.61948 0.96865 0.0
O120 O 0.31663 0.69744 0.71667 0.0
O121 O 0.3432 0.6497 0.69037 0.0
C122 C 0.27955 0.79323 0.75597 0.0
C123 C 0.36196 0.73818 0.90389 0.0
C124 C 0.81898 0.79431 0.15382 0.0
C125 C 0.82685 0.82693 0.13005 0.0
C126 C 0.81956 0.78704 0.22187 0.0
C127 C 0.84977 0.8187 0.38247 0.0
H128 H 0.76993 0.77442 0.45292 0.0
C129 C 0.80688 0.82741 0.65518 0.0
C130 C 0.7948 0.7976 0.68558 0.0
C131 C 0.81453 0.82814 0.58743 0.0
C132 C 0.79261 0.78634 0.43389 0.0
H133 H 0.84226 0.87731 0.15843 0.0
H134 H 0.84258 0.86475 0.27706 0.0
H135 H 0.77774 0.77954 0.33309 0.0
H136 H 0.78197 0.74498 0.66946 0.0
H137 H 0.79523 0.74643 0.55151 0.0
H138 H 0.86405 0.82633 0.48371 0.0
C139 C 0.83654 0.84467 0.24315 0.0
C140 C 0.79713 0.78916 0.36542 0.0
C141 C 0.83604 0.85192 0.17525 0.0
C142 C 0.79074 0.76852 0.64729 0.0
C143 C 0.7984 0.76925 0.57982 0.0
C144 C 0.84521 0.81593 0.45109 0.0
C145 C 0.82798 0.8123 0.26704 0.0
C146 C 0.82545 0.80586 0.33917 0.0
C147 C 0.81015 0.79908 0.5493 0.0
C148 C 0.81633 0.80018 0.47718 0.0
H149 H 0.81226 0.77443 0.12003 0.0
H150 H 0.81316 0.76177 0.23921 0.0
H151 H 0.87203 0.83132 0.36324 0.0
H152 H 0.81001 0.85022 0.68342 0.0
H153 H 0.82316 0.85159 0.56461 0.0
C154 C 0.65268 0.30177 0.5114 0.0
C155 C 0.67808 0.3115 0.46638 0.0
C156 C 0.65761 0.3046 0.57949 0.0
C157 C 0.70459 0.35772 0.692 0.0
H158 H 0.66399 0.29985 0.82758 0.0
C159 C 0.72559 0.36512 0.97453 0.0
C160 C 0.69861 0.35606 0.01647 0.0
C161 C 0.72152 0.36562 0.90576 0.0
C162 C 0.67489 0.31653 0.79003 0.0
H163 H 0.72973 0.32846 0.45669 0.0
H164 H 0.73866 0.33293 0.57677 0.0
H165 H 0.66504 0.28173 0.71244 0.0
H166 H 0.64527 0.34473 0.02062 0.0
H167 H 0.63814 0.34549 0.89974 0.0
H168 H 0.71498 0.39221 0.77037 0.0
C169 C 0.71467 0.32384 0.55907 0.0
C170 C 0.67581 0.306 0.72431 0.0
C171 C 0.70974 0.32088 0.49057 0.0
C172 C 0.66651 0.35155 -0.0108 0.0
C173 C 0.6625 0.35171 0.9202 0.0
C174 C 0.70391 0.36814 0.75799 0.0
C175 C 0.6881 0.31716 0.60384 0.0
C176 C 0.69045 0.32657 0.67453 0.0
C177 C 0.69044 0.35685 0.87813 0.0
C178 C 0.68882 0.34772 0.80741 0.0
H179 H 0.62812 0.29416 0.49383 0.0
H180 H 0.63661 0.2993 0.61255 0.0
H181 H 0.71543 0.37444 0.65446 0.0
H182 H 0.7505 0.36917 -0.00532 0.0
H183 H 0.74341 0.3698 0.87441 0.0
C184 C 0.16783 0.15336 0.73109 0.0
C185 C 0.1986 0.14664 0.69962 0.0
C186 C 0.16559 0.15168 0.8005 0.0
C187 C 0.2229 0.16546 0.93906 0.0
H188 H 0.14327 0.14916 0.04658 0.0
C189 C 0.21324 0.18056 0.2265 0.0
C190 C 0.1824 0.19328 0.24957 0.0
C191 C 0.21796 0.17518 0.15846 0.0
C192 C 0.16561 0.15405 0.01688 0.0
H193 H 0.24957 0.12834 0.71383 0.0
H194 H 0.24527 0.12404 0.83461 0.0
H195 H 0.14425 0.13123 0.93105 0.0
H196 H 0.1342 0.21444 0.22024 0.0
H197 H 0.14276 0.20583 0.1017 0.0
H198 H 0.2441 0.1885 0.02503 0.0
C199 C 0.22333 0.13196 0.80642 0.0
C200 C 0.1662 0.14364 0.95097 0.0
C201 C 0.2257 0.13409 0.73736 0.0
C202 C 0.15804 0.2042 0.20351 0.0
C203 C 0.16277 0.19894 0.1359 0.0
C204 C 0.22236 0.1757 0.00513 0.0
C205 C 0.194 0.14284 0.83884 0.0
C206 C 0.19464 0.14971 0.91102 0.0
C207 C 0.19192 0.18265 0.11326 0.0
C208 C 0.19345 0.17071 0.04413 0.0
H209 H 0.14665 0.16317 0.70285 0.0
H210 H 0.14257 0.16016 0.82399 0.0
H211 H 0.245 0.17113 0.90924 0.0
H212 H 0.23232 0.17183 0.26122 0.0
H213 H 0.24081 0.16283 0.142 0.0
C214 C 0.3229 0.68126 0.07419 0.0
C215 C 0.29383 0.69797 0.05147 0.0
C216 C 0.33132 0.68174 0.14142 0.0
C217 C 0.31698 0.73122 0.29141 0.0
H218 H 0.34363 0.64906 0.38515 0.0
C219 C 0.31055 0.71157 0.57538 0.0
C220 C 0.33447 0.68992 0.60466 0.0
C221 C 0.31117 0.71756 0.50674 0.0
C222 C 0.33694 0.67239 0.35939 0.0
H223 H 0.25 0.72704 0.08096 0.0
H224 H 0.26443 0.72736 0.19853 0.0
H225 H 0.33284 0.64753 0.26629 0.0
H226 H 0.37991 0.66068 0.58765 0.0
H227 H 0.38137 0.67173 0.46831 0.0
H228 H 0.32033 0.75588 0.38516 0.0
C229 C 0.28106 0.71458 0.16425 0.0
C230 C 0.33066 0.67143 0.29147 0.0
C231 C 0.27268 0.71411 0.09721 0.0
C232 C 0.36065 0.67678 0.56574 0.0
C233 C 0.36152 0.6831 0.4976 0.0
C234 C 0.32332 0.7322 0.3595 0.0
C235 C 0.31076 0.69897 0.18665 0.0
C236 C 0.32003 0.70067 0.25724 0.0
C237 C 0.33597 0.70226 0.46714 0.0
C238 C 0.33285 0.70265 0.39417 0.0
H239 H 0.33994 0.66926 0.03975 0.0
H240 H 0.35443 0.66962 0.15765 0.0
H241 H 0.30933 0.75424 0.2656 0.0
H242 H 0.2903 0.72218 0.60463 0.0
H243 H 0.29109 0.73238 0.48434 0.0
C244 C 0.38659 0.79212 0.86344 0.0
C245 C 0.37692 0.77131 0.91741 0.0
C246 C 0.41561 0.81185 0.86819 0.0
C247 C 0.49021 0.8286 0.97634 0.0
H248 H 0.53618 0.77896 0.83838 0.0
C249 C 0.62807 0.78242 0.00414 0.0
C250 C 0.64762 0.77892 0.94628 0.0
C251 C 0.59399 0.79144 -0.0005 0.0
C252 C 0.52419 0.79387 0.87644 0.0
H253 H 0.38451 0.76064 0.02233 0.0
H254 H 0.43478 0.79492 0.03079 0.0
H255 H 0.47628 0.78687 0.83195 0.0
H256 H 0.64726 0.78375 0.83849 0.0
H257 H 0.58902 0.80078 0.83055 0.0
H258 H 0.53852 0.83474 0.02163 0.0
C259 C 0.42089 0.7958 -0.01552 0.0
C260 C 0.48955 0.79857 0.87251 0.0
C261 C 0.39201 0.77604 0.97967 0.0
C262 C 0.63267 0.78523 0.88403 0.0
C263 C 0.5991 0.79508 0.87948 0.0
C264 C 0.52521 0.82437 0.97976 0.0
C265 C 0.43486 0.81087 0.92695 0.0
C266 C 0.47193 0.81501 0.92337 0.0
C267 C 0.57907 0.79795 0.93696 0.0
C268 C 0.54251 0.80601 0.93078 0.0
H269 H 0.37504 0.78929 0.81507 0.0
H270 H 0.4254 0.82407 0.8235 0.0
H271 H 0.47726 0.84125 0.01642 0.0
H272 H 0.63906 0.77805 0.05281 0.0
H273 H 0.57932 0.79285 0.04488 0.0
C274 C 0.74287 0.15565 0.21247 0.0
C275 C 0.75535 0.18285 0.17385 0.0
C276 C 0.74441 0.12272 0.18889 0.0
C277 C 0.75055 0.07568 0.0326 0.0
H278 H 0.76826 0.99958 0.15173 0.0
C279 C 0.76831 0.93786 0.94478 0.0
C280 C 0.75396 0.91216 -0.0152 0.0
C281 C 0.76771 0.97143 0.96524 0.0
C282 C 0.7629 0.02057 0.11802 0.0
H283 H 0.78041 0.19647 0.08099 0.0
H284 H 0.78359 0.13884 0.04043 0.0
H285 H 0.77133 0.05686 0.19372 0.0
H286 H 0.72605 0.9019 0.07607 0.0
H287 H 0.72474 0.96043 0.11126 0.0
H288 H 0.7423 0.0392 0.95682 0.0
C289 C 0.77201 0.14316 0.08844 0.0
C290 C 0.76472 0.05338 0.14204 0.0
C291 C 0.77042 0.17616 0.11197 0.0
C292 C 0.73751 0.921 0.04411 0.0
C293 C 0.73702 0.9545 0.06465 0.0
C294 C 0.74887 0.04281 0.00849 0.0
C295 C 0.75858 0.11613 0.12623 0.0
C296 C 0.75831 0.08132 0.09977 0.0
C297 C 0.75277 0.97994 0.0262 0.0
C298 C 0.75475 0.01491 0.05112 0.0
H299 H 0.73101 0.1598 0.26027 0.0
H300 H 0.73349 0.10255 0.21897 0.0
H301 H 0.74499 0.09663 -0.00104 0.0
H302 H 0.7808 0.93196 0.89846 0.0
H303 H 0.78007 0.99049 0.93455 0.0
C304 C 0.33265 0.21769 0.32629 0.0
C305 C 0.32633 0.2005 0.3869 0.0
C306 C 0.36533 0.21958 0.30042 0.0
C307 C 0.45208 0.185 0.31472 0.0
H308 H 0.4782 0.27726 0.2725 0.0
C309 C 0.59105 0.22904 0.30828 0.0
C310 C 0.60002 0.25534 0.26386 0.0
C311 C 0.55746 0.21869 0.31402 0.0
C312 C 0.47137 0.2512 0.28271 0.0
H313 H 0.34904 0.16944 0.46488 0.0
H314 H 0.40591 0.17276 0.41969 0.0
H315 H 0.41962 0.26444 0.296 0.0
H316 H 0.58123 0.28993 0.18764 0.0
H317 H 0.52307 0.27143 0.19634 0.0
H318 H 0.50405 0.17187 0.30217 0.0
C319 C 0.38564 0.18487 0.39226 0.0
C320 C 0.43766 0.24386 0.29624 0.0
C321 C 0.35301 0.18312 0.41835 0.0
C322 C 0.57503 0.26999 0.2232 0.0
C323 C 0.54161 0.25945 0.2284 0.0
C324 C 0.48587 0.19231 0.30067 0.0
C325 C 0.39235 0.2041 0.33429 0.0
C326 C 0.42766 0.21078 0.31326 0.0
C327 C 0.5322 0.2342 0.27496 0.0
C328 C 0.49602 0.22562 0.28534 0.0
H329 H 0.3127 0.23118 0.30045 0.0
H330 H 0.36965 0.23413 0.25502 0.0
H331 H 0.44509 0.15921 0.32719 0.0
H332 H 0.60972 0.21732 0.34043 0.0
H333 H 0.55116 0.19944 0.35091 0.0
C334 C 0.28971 0.83374 0.66003 0.0
C335 C 0.29046 0.82667 0.72887 0.0
C336 C 0.29702 0.86622 0.6353 0.0
C337 C 0.29409 0.95457 0.68883 0.0
H338 H 0.3336 0.97257 0.51512 0.0
C339 C 0.27737 0.08488 0.57246 0.0
C340 C 0.26221 0.0828 0.50974 0.0
C341 C 0.29515 0.05715 0.59899 0.0
C342 C 0.32268 0.96803 0.56391 0.0
H343 H 0.30167 0.84782 0.82525 0.0
H344 H 0.31468 0.9042 0.78209 0.0
H345 H 0.33595 0.91546 0.56333 0.0
H346 H 0.25668 0.05211 0.42259 0.0
H347 H 0.28784 0.00414 0.46771 0.0
H348 H 0.27928 0.00643 0.68845 0.0
C349 C 0.30772 0.88485 0.74728 0.0
C350 C 0.3239 0.93525 0.59143 0.0
C351 C 0.30031 0.85244 0.77202 0.0
C352 C 0.26869 0.05448 0.47064 0.0
C353 C 0.28644 0.02684 0.49692 0.0
C354 C 0.29281 0.98723 0.66136 0.0
C355 C 0.3054 0.8924 0.67877 0.0
C356 C 0.30872 0.92791 0.65339 0.0
C357 C 0.29786 0.02693 0.56315 0.0
C358 C 0.30614 0.99423 0.59761 0.0
H359 H 0.28235 0.8145 0.62528 0.0
H360 H 0.29462 0.87114 0.58233 0.0
H361 H 0.28174 0.94989 0.73624 0.0
H362 H 0.27225 0.10627 0.60387 0.0
H363 H 0.30426 0.05836 0.64964 0.0
C364 C 0.88867 0.71392 0.89002 0.0
C365 C 0.87768 0.73202 0.83349 0.0
C366 C 0.91819 0.69466 0.88663 0.0
C367 C 0.99187 0.67504 0.7761 0.0
H368 H 0.03861 0.72872 0.90592 0.0
C369 C 0.12953 0.72101 0.7387 0.0
C370 C 0.14935 0.7253 0.79569 0.0
C371 C 0.09547 0.71212 0.74497 0.0
C372 C 0.02638 0.71276 0.87014 0.0
H373 H 0.88368 0.73829 0.72689 0.0
H374 H 0.93485 0.70495 0.7208 0.0
H375 H 0.97884 0.72087 0.91615 0.0
H376 H 0.14936 0.72191 0.90378 0.0
H377 H 0.09127 0.70532 0.91442 0.0
H378 H 0.03986 0.66792 0.72909 0.0
C379 C 0.92159 0.70575 0.76795 0.0
C380 C 0.99182 0.70806 0.87631 0.0
C381 C 0.89217 0.72495 0.77138 0.0
C382 C 0.13466 0.71982 0.85871 0.0
C383 C 0.10115 0.71022 0.86489 0.0
C384 C 0.02679 0.67938 0.77037 0.0
C385 C 0.9367 0.69351 0.82673 0.0
C386 C 0.97391 0.69 0.82844 0.0
C387 C 0.08086 0.70667 0.80834 0.0
C388 C 0.04433 0.69907 0.81647 0.0
H389 H 0.87764 0.71865 0.9384 0.0
H390 H 0.92882 0.68457 0.93244 0.0
H391 H 0.97872 0.66111 0.73828 0.0
H392 H 0.14027 0.72469 0.68948 0.0
H393 H 0.08054 0.71004 0.70026 0.0
C394 C 0.77142 0.44174 0.25961 0.0
C395 C 0.75904 0.42282 0.20672 0.0
C396 C 0.79013 0.47109 0.24678 0.0
C397 C 0.82662 0.526 0.11087 0.0
H398 H 0.77679 0.59638 0.20039 0.0
C399 C 0.7957 0.65362 -0.0135 0.0
C400 C 0.7909 0.68255 0.02513 0.0
C401 C 0.80359 0.62251 0.01651 0.0
C402 C 0.79172 0.57732 0.17583 0.0
H403 H 0.75883 0.41745 0.09987 0.0
H404 H 0.79174 0.46817 0.07714 0.0
H405 H 0.7729 0.53852 0.24091 0.0
H406 H 0.79286 0.70177 0.12555 0.0
H407 H 0.807 0.64744 0.17792 0.0
H408 H 0.84418 0.56485 0.04385 0.0
C409 C 0.78752 0.46057 0.12854 0.0
C410 C 0.78953 0.54395 0.19928 0.0
C411 C 0.76875 0.43136 0.14144 0.0
C412 C 0.79594 0.67993 0.09431 0.0
C413 C 0.80397 0.64874 0.12438 0.0
C414 C 0.82893 0.55947 0.08754 0.0
C415 C 0.7965 0.48195 0.18081 0.0
C416 C 0.80587 0.51768 0.16556 0.0
C417 C 0.80709 0.61946 0.086 0.0
C418 C 0.81039 0.58534 0.11813 0.0
H419 H 0.76365 0.4359 0.31028 0.0
H420 H 0.79714 0.48674 0.28818 0.0
H421 H 0.83987 0.50641 0.08429 0.0
H422 H 0.79224 0.65466 0.93304 0.0
H423 H 0.80532 0.60055 -0.01471 0.0
C424 C 0.84966 0.32997 0.30834 0.0
C425 C 0.82534 0.3076 0.33438 0.0
C426 C 0.88278 0.32887 0.33152 0.0
C427 C 0.93917 0.29061 0.4616 0.0
H428 H 0.00463 0.29394 0.31796 0.0
C429 C 0.07219 0.23118 0.47978 0.0
C430 C 0.09915 0.24858 0.44939 0.0
C431 C 0.03917 0.24305 0.47294 0.0
C432 C 0.98681 0.29345 0.3589 0.0
H433 H 0.81622 0.26813 0.40848 0.0
H434 H 0.87404 0.26562 0.44779 0.0
H435 H 0.94612 0.30744 0.29498 0.0
H436 H 0.11255 0.29281 0.38971 0.0
H437 H 0.05492 0.31346 0.37774 0.0
H438 H 0.98004 0.27526 0.52485 0.0
C439 C 0.86757 0.28438 0.41007 0.0
C440 C 0.95316 0.30133 0.34581 0.0
C441 C 0.83432 0.28576 0.38739 0.0
C442 C 0.0924 0.27868 0.41354 0.0
C443 C 0.05936 0.29044 0.4064 0.0
C444 C 0.97287 0.28248 0.47459 0.0
C445 C 0.8925 0.30509 0.38075 0.0
C446 C 0.92878 0.29969 0.39677 0.0
C447 C 0.03232 0.27255 0.43532 0.0
C448 C 0.99699 0.28347 0.42319 0.0
H449 H 0.84345 0.34743 0.26805 0.0
H450 H 0.90105 0.34589 0.30909 0.0
H451 H 0.92122 0.2895 0.50226 0.0
H452 H 0.07649 0.20812 0.50827 0.0
H453 H 0.01891 0.22851 0.49537 0.0
C454 C 0.2389 0.35091 0.50904 0.0
C455 C 0.25158 0.32377 0.54762 0.0
C456 C 0.24059 0.38398 0.53204 0.0
C457 C 0.24884 0.43208 0.68709 0.0
H458 H 0.26788 0.50697 0.56578 0.0
C459 C 0.27283 0.56852 0.77472 0.0
C460 C 0.25915 0.59514 0.7361 0.0
C461 C 0.27098 0.53519 0.75319 0.0
C462 C 0.26214 0.48636 0.60014 0.0
H463 H 0.27685 0.3104 0.64008 0.0
H464 H 0.28027 0.36815 0.6796 0.0
H465 H 0.2682 0.44943 0.52451 0.0
H466 H 0.23164 0.60735 0.64562 0.0
H467 H 0.22813 0.54917 0.60847 0.0
H468 H 0.24298 0.46911 0.76279 0.0
C469 C 0.26844 0.36374 0.63206 0.0
C470 C 0.26235 0.45337 0.5765 0.0
C471 C 0.2667 0.33063 0.60912 0.0
C472 C 0.24255 0.58751 0.67655 0.0
C473 C 0.24079 0.55419 0.65492 0.0
C474 C 0.24873 0.46509 0.71077 0.0
C475 C 0.25509 0.39077 0.59412 0.0
C476 C 0.25563 0.42582 0.61963 0.0
C477 C 0.25542 0.52772 0.69249 0.0
C478 C 0.25527 0.49261 0.66751 0.0
H479 H 0.22695 0.34663 0.46156 0.0
H480 H 0.2297 0.40412 0.50187 0.0
H481 H 0.24301 0.41151 0.72145 0.0
H482 H 0.28542 0.57347 0.82118 0.0
H483 H 0.28262 0.5154 0.78318 0.0
C484 C 0.06967 0.07052 0.26616 0.0
C485 C 0.09237 0.05757 0.31369 0.0
C486 C 0.05884 0.05055 0.21392 0.0
C487 C 0.05385 0.01013 0.08862 0.0
H488 H 0.02353 0.9188 0.12744 0.0
C489 C 0.97832 0.89216 0.95905 0.0
C490 C 0.94957 0.91057 0.94 0.0
C491 C 0.00436 0.90815 -0.00689 0.0
C492 C 0.0327 0.94393 0.11533 0.0
H493 H 0.12133 0.01323 0.34365 0.0
H494 H 0.1024 0.97843 0.25222 0.0
H495 H 0.0516 0.95072 0.21375 0.0
H496 H 0.92637 0.96016 0.93625 0.0
H497 H 0.97185 0.98812 -0.00589 0.0
H498 H 0.03321 0.00391 -0.0087 0.0
C499 C 0.09287 0.00401 0.25572 0.0
C500 C 0.04866 0.96228 0.16484 0.0
C501 C 0.10369 0.024 0.30813 0.0
C502 C 0.94829 0.94546 0.95081 0.0
C503 C 0.97443 0.96148 -0.01651 0.0
C504 C 0.03777 0.99185 0.03928 0.0
C505 C 0.07051 0.01716 0.20779 0.0
C506 C 0.0583 0.996 0.1527 0.0
C507 C 0.00218 0.94282 0.00701 0.0
C508 C 0.02599 0.95902 0.05294 0.0
H509 H 0.06035 0.09621 0.26893 0.0
H510 H 0.04099 0.06119 0.17868 0.0
H511 H 0.06178 0.03577 0.07726 0.0
H512 H 0.9797 0.86516 0.95139 0.0
H513 H 0.02557 0.89327 0.0107 0.0
C514 C 0.58812 0.48085 0.38731 0.0
C515 C 0.58389 0.44557 0.38966 0.0
C516 C 0.57508 0.50092 0.43797 0.0
C517 C 0.51182 0.49887 0.57324 0.0
H518 H 0.56152 0.57513 0.64114 0.0
C519 C 0.46125 0.56743 0.79599 0.0
C520 C 0.45598 0.602 0.78392 0.0
C521 C 0.48347 0.54941 0.75614 0.0
C522 C 0.54748 0.55386 0.62256 0.0
H523 H 0.56288 0.40374 0.44751 0.0
H524 H 0.54084 0.43844 0.53572 0.0
H525 H 0.58567 0.54151 0.55127 0.0
H526 H 0.47088 0.64561 0.72461 0.0
H527 H 0.51 0.614 0.65423 0.0
H528 H 0.47372 0.511 0.644 0.0
C529 C 0.55355 0.4508 0.49421 0.0
C530 C 0.56112 0.53478 0.57093 0.0
C531 C 0.5663 0.43085 0.44355 0.0
C532 C 0.47521 0.61902 0.73532 0.0
C533 C 0.49742 0.60092 0.69505 0.0
C534 C 0.49842 0.51764 0.62492 0.0
C535 C 0.5577 0.48606 0.49205 0.0
C536 C 0.54342 0.50699 0.54589 0.0
C537 C 0.50031 0.56566 0.70297 0.0
C538 C 0.51612 0.54521 0.65036 0.0
H539 H 0.60158 0.49299 0.34649 0.0
H540 H 0.57833 0.52806 0.43442 0.0
H541 H 0.49711 0.47821 0.55408 0.0
H542 H 0.44625 0.55388 0.83284 0.0
H543 H 0.48565 0.52233 0.76386 0.0
C544 C 0.02765 0.12467 0.58405 0.0
C545 C 0.05902 0.11087 0.60279 0.0
C546 C 0.99773 0.10876 0.60345 0.0
C547 C 0.97212 0.02196 0.64103 0.0
H548 H 0.88319 0.06006 0.66769 0.0
C549 C 0.84305 0.96865 0.74811 0.0
C550 C 0.8473 0.93575 0.72367 0.0
C551 C 0.86128 0.99557 0.72036 0.0
C552 C 0.90786 0.04908 0.65993 0.0
H553 H 0.08328 0.07297 0.66563 0.0
H554 H 0.03109 0.04601 0.70134 0.0
H555 H 0.93225 0.0974 0.66223 0.0
H556 H 0.86734 0.90698 0.64155 0.0
H557 H 0.89784 0.95427 0.59135 0.0
H558 H 0.94853 0.97377 0.64094 0.0
C559 C 0.0297 0.06816 0.66897 0.0
C560 C 0.93594 0.07046 0.65687 0.0
C561 C 0.05963 0.08385 0.6491 0.0
C562 C 0.86441 0.93176 0.66296 0.0
C563 C 0.88224 0.95883 0.63461 0.0
C564 C 0.94426 1.00073 0.6441 0.0
C565 C 0.99863 0.07905 0.64268 0.0
C566 C 0.96846 0.05702 0.64832 0.0
C567 C 0.88334 0.99014 0.66678 0.0
C568 C 0.91175 0.01388 0.65408 0.0
H569 H 0.02614 0.14581 0.54915 0.0
H570 H 0.97424 0.11806 0.58286 0.0
H571 H 0.99664 0.01076 0.63257 0.0
H572 H 0.82927 0.97292 0.79385 0.0
H573 H 0.86094 0.01946 0.74583 0.0
C574 C 0.52821 0.36837 0.11825 0.0
C575 C 0.55817 0.38577 0.10236 0.0
C576 C 0.49718 0.38066 0.09598 0.0
C577 C 0.44359 0.43632 0.10265 0.0
H578 H 0.42009 0.47262 0.92849 0.0
C579 C 0.37201 0.55974 0.04402 0.0
C580 C 0.35183 0.56082 -0.01338 0.0
C581 C 0.38747 0.52948 0.06426 0.0
C582 C 0.42591 0.46206 0.97725 0.0
H583 H 0.5793 0.4268 0.04268 0.0
H584 H 0.52509 0.44762 0.00233 0.0
H585 H 0.46848 0.43464 0.94007 0.0
H586 H 0.32708 0.5298 0.91323 0.0
H587 H 0.35454 0.4774 0.94808 0.0
H588 H 0.40256 0.46581 0.1405 0.0
C589 C 0.52567 0.42494 0.03333 0.0
C590 C 0.4537 0.44055 -0.01621 0.0
C591 C 0.55676 0.41297 0.05643 0.0
C592 C 0.34312 0.5301 0.95673 0.0
C593 C 0.35894 0.50002 0.97638 0.0
C594 C 0.41619 0.45838 0.09629 0.0
C595 C 0.49558 0.41004 0.05608 0.0
C596 C 0.46319 0.42805 0.04674 0.0
C597 C 0.38291 0.49998 0.02743 0.0
C598 C 0.40753 0.47197 0.0337 0.0
H599 H 0.5283 0.34699 0.15269 0.0
H600 H 0.47432 0.36844 0.1133 0.0
H601 H 0.45066 0.42734 0.15192 0.0
H602 H 0.37891 0.58278 0.06885 0.0
H603 H 0.40569 0.53004 0.10422 0.0
loop_
_geom_bond_atom_site_label_1
_geom_bond_atom_site_label_2
_geom_bond_distance
_geom_bond_site_symmetry_2
_ccdc_geom_bond_type
C0 O27 1.312 . S
C0 O28 1.208 . S
C1 O22 1.346 . S
C1 O25 1.244 . S
C2 O24 1.264 . S
C2 O26 1.273 1_554 S
Mg3 O5 1.936 . S
Mg3 O12 2.081 . S
Mg3 O14 2.023 1_554 S
Mg3 O18 2.031 . S
Mg3 O27 2.291 . S
Mg4 O5 1.963 1_556 S
Mg4 O15 1.942 1_556 S
Mg4 O16 1.955 . S
Mg4 O23 1.986 . S
O5 Mg3 1.936 . S
O5 Mg4 1.963 1_554 S
O5 Mg6 1.915 1_554 S
Mg6 O5 1.915 1_556 S
Mg6 O7 1.915 . S
Mg6 O11 2.013 . S
Mg6 O17 2.114 1_556 S
Mg6 O21 2.013 . S
Mg6 O27 2.114 1_556 S
O7 Mg6 1.915 . S
O7 Mg8 1.936 1_556 S
O7 Mg9 1.963 . S
Mg8 O7 1.936 1_554 S
Mg8 O17 2.291 . S
Mg8 O22 2.071 1_554 S
Mg8 O24 2.023 . S
Mg8 O28 2.031 . S
Mg9 O7 1.963 . S
Mg9 O13 1.986 . S
Mg9 O25 1.942 . S
Mg9 O26 1.955 . S
C10 O21 1.191 . S
C10 O23 1.307 . S
O11 Mg6 2.013 . S
O11 C30 1.191 . S
O12 Mg3 2.081 . S
O12 C20 1.331 . S
O13 Mg9 1.986 . S
O13 C30 1.307 . S
O14 Mg3 2.023 1_556 S
O14 C29 1.264 . S
O15 Mg4 1.942 1_554 S
O15 C20 1.244 . S
O16 Mg4 1.955 . S
O16 C29 1.273 . S
O17 Mg6 2.114 1_554 S
O17 Mg8 2.291 . S
O17 C19 1.312 . S
O18 Mg3 2.031 . S
O18 C19 1.208 . S
C19 O17 1.312 . S
C19 O18 1.208 . S
C20 O12 1.331 . S
C20 O15 1.244 . S
O21 Mg6 2.013 . S
O21 C10 1.191 . S
O22 C1 1.346 . S
O22 Mg8 2.071 1_556 S
O23 Mg4 1.986 . S
O23 C10 1.307 . S
O24 C2 1.264 . S
O24 Mg8 2.023 . S
O25 C1 1.244 . S
O25 Mg9 1.942 . S
O26 C2 1.273 1_556 S
O26 Mg9 1.955 . S
O27 C0 1.312 . S
O27 Mg3 2.291 . S
O27 Mg6 2.114 1_554 S
O28 C0 1.208 . S
O28 Mg8 2.031 . S
C29 O14 1.264 . S
C29 O16 1.273 . S
C30 O11 1.191 . S
C30 O13 1.307 . S
C31 O58 1.312 . S
C31 O59 1.208 . S
C32 O53 1.331 . S
C32 O56 1.244 . S
C33 O55 1.264 . S
C33 O57 1.273 . S
Mg34 O36 1.936 . S
Mg34 O43 2.081 . S
Mg34 O45 2.023 . S
Mg34 O49 2.031 . S
Mg34 O58 2.291 . S
Mg35 O36 1.963 . S
Mg35 O46 1.942 . S
Mg35 O47 1.955 . S
Mg35 O54 1.986 . S
O36 Mg34 1.936 . S
O36 Mg35 1.963 . S
O36 Mg37 1.915 . S
Mg37 O36 1.915 . S
Mg37 O38 1.915 . S
Mg37 O42 2.013 . S
Mg37 O48 2.114 . S
Mg37 O52 2.013 . S
Mg37 O58 2.114 . S
O38 Mg37 1.915 . S
O38 Mg39 1.936 . S
O38 Mg40 1.963 . S
Mg39 O38 1.936 . S
Mg39 O48 2.291 . S
Mg39 O53 2.081 . S
Mg39 O55 2.023 . S
Mg39 O59 2.031 . S
Mg40 O38 1.963 . S
Mg40 O44 1.986 . S
Mg40 O56 1.942 . S
Mg40 O57 1.955 . S
C41 O52 1.191 . S
C41 O54 1.307 . S
O42 Mg37 2.013 . S
O42 C61 1.191 . S
O43 Mg34 2.081 . S
O43 C51 1.331 . S
O44 Mg40 1.986 . S
O44 C61 1.307 . S
O45 Mg34 2.023 . S
O45 C60 1.264 . S
O46 Mg35 1.942 . S
O46 C51 1.244 . S
O47 Mg35 1.955 . S
O47 C60 1.273 . S
O48 Mg37 2.114 . S
O48 Mg39 2.291 . S
O48 C50 1.312 . S
O49 Mg34 2.031 . S
O49 C50 1.208 . S
C50 O48 1.312 . S
C50 O49 1.208 . S
C51 O43 1.331 . S
C51 O46 1.244 . S
O52 Mg37 2.013 . S
O52 C41 1.191 . S
O53 C32 1.331 . S
O53 Mg39 2.081 . S
O54 Mg35 1.986 . S
O54 C41 1.307 . S
O55 C33 1.264 . S
O55 Mg39 2.023 . S
O56 C32 1.244 . S
O56 Mg40 1.942 . S
O57 C33 1.273 . S
O57 Mg40 1.955 . S
O58 C31 1.312 . S
O58 Mg34 2.291 . S
O58 Mg37 2.114 . S
O59 C31 1.208 . S
O59 Mg39 2.031 . S
C60 O45 1.264 . S
C60 O47 1.273 . S
C61 O42 1.191 . S
C61 O44 1.307 . S
C62 O89 1.312 . S
C62 O90 1.208 . S
C63 O84 1.331 . S
C63 O87 1.244 . S
C64 O86 1.264 . S
C64 O88 1.273 . S
Mg65 O67 1.936 . S
Mg65 O74 2.081 . S
Mg65 O76 2.023 . S
Mg65 O80 2.031 . S
Mg65 O89 2.291 . S
Mg66 O67 1.963 . S
Mg66 O77 1.942 . S
Mg66 O78 1.955 . S
Mg66 O85 1.986 . S
O67 Mg65 1.936 . S
O67 Mg66 1.963 . S
O67 Mg68 1.915 . S
Mg68 O67 1.915 . S
Mg68 O69 1.915 . S
Mg68 O73 2.013 . S
Mg68 O79 2.114 . S
Mg68 O83 2.013 . S
Mg68 O89 2.114 . S
O69 Mg68 1.915 . S
O69 Mg70 1.936 . S
O69 Mg71 1.963 . S
Mg70 O69 1.936 . S
Mg70 O79 2.291 . S
Mg70 O84 2.081 . S
Mg70 O86 2.023 . S
Mg70 O90 2.031 . S
Mg71 O69 1.963 . S
Mg71 O75 1.986 . S
Mg71 O87 1.942 . S
Mg71 O88 1.955 . S
C72 O83 1.191 . S
C72 O85 1.307 . S
O73 Mg68 2.013 . S
O73 C92 1.191 . S
O74 Mg65 2.081 . S
O74 C82 1.331 . S
O75 Mg71 1.986 . S
O75 C92 1.307 . S
O76 Mg65 2.023 . S
O76 C91 1.264 . S
O77 Mg66 1.942 . S
O77 C82 1.244 . S
O78 Mg66 1.955 . S
O78 C91 1.273 . S
O79 Mg68 2.114 . S
O79 Mg70 2.291 . S
O79 C81 1.312 . S
O80 Mg65 2.031 . S
O80 C81 1.208 . S
C81 O79 1.312 . S
C81 O80 1.208 . S
C82 O74 1.331 . S
C82 O77 1.244 . S
O83 Mg68 2.013 . S
O83 C72 1.191 . S
O84 C63 1.331 . S
O84 Mg70 2.081 . S
O85 Mg66 1.986 . S
O85 C72 1.307 . S
O86 C64 1.264 . S
O86 Mg70 2.023 . S
O87 C63 1.244 . S
O87 Mg71 1.942 . S
O88 C64 1.273 . S
O88 Mg71 1.955 . S
O89 C62 1.312 . S
O89 Mg65 2.291 . S
O89 Mg68 2.114 . S
O90 C62 1.208 . S
O90 Mg70 2.031 . S
C91 O76 1.264 . S
C91 O78 1.273 . S
C92 O73 1.191 . S
C92 O75 1.307 . S
C93 O120 1.312 . S
C93 O121 1.208 . S
C94 O115 1.331 . S
C94 O118 1.244 . S
C95 O117 1.264 . S
C95 O119 1.273 . S
Mg96 O98 1.936 . S
Mg96 O105 2.081 . S
Mg96 O107 2.023 . S
Mg96 O111 2.031 . S
Mg96 O120 2.291 . S
Mg97 O98 1.963 . S
Mg97 O108 1.942 . S
Mg97 O109 1.955 . S
Mg97 O116 1.986 . S
O98 Mg96 1.936 . S
O98 Mg97 1.963 . S
O98 Mg99 1.915 . S
Mg99 O98 1.915 . S
Mg99 O100 1.915 . S
Mg99 O104 2.013 . S
Mg99 O110 2.114 . S
Mg99 O114 2.013 . S
Mg99 O120 2.114 . S
O100 Mg99 1.915 . S
O100 Mg101 1.936 . S
O100 Mg102 1.963 . S
Mg101 O100 1.936 . S
Mg101 O110 2.291 . S
Mg101 O115 2.081 . S
Mg101 O117 2.023 . S
Mg101 O121 2.031 . S
Mg102 O100 1.963 . S
Mg102 O106 1.986 . S
Mg102 O118 1.942 . S
Mg102 O119 1.955 . S
C103 O114 1.191 . S
C103 O116 1.307 . S
O104 Mg99 2.013 . S
O104 C123 1.191 . S
O105 Mg96 2.081 . S
O105 C113 1.331 . S
O106 Mg102 1.986 . S
O106 C123 1.307 . S
O107 Mg96 2.023 . S
O107 C122 1.264 . S
O108 Mg97 1.942 . S
O108 C113 1.244 . S
O109 Mg97 1.955 . S
O109 C122 1.273 . S
O110 Mg99 2.114 . S
O110 Mg101 2.291 . S
O110 C112 1.312 . S
O111 Mg96 2.031 . S
O111 C112 1.208 . S
C112 O110 1.312 . S
C112 O111 1.208 . S
C113 O105 1.331 . S
C113 O108 1.244 . S
O114 Mg99 2.013 . S
O114 C103 1.191 . S
O115 C94 1.331 . S
O115 Mg101 2.081 . S
O116 Mg97 1.986 . S
O116 C103 1.307 . S
O117 C95 1.264 . S
O117 Mg101 2.023 . S
O118 C94 1.244 . S
O118 Mg102 1.942 . S
O119 C95 1.273 . S
O119 Mg102 1.955 . S
O120 C93 1.312 . S
O120 Mg96 2.291 . S
O120 Mg99 2.114 . S
O121 C93 1.208 . S
O121 Mg101 2.031 . S
C122 O107 1.264 . S
C122 O109 1.273 . S
C123 O104 1.191 . S
C123 O106 1.307 . S
C124 C125 1.349 . S
C124 C126 1.327 . S
C124 H149 0.950 . S
C125 C124 1.349 . S
C125 C141 1.349 . S
C126 C124 1.327 . S
C126 C145 1.429 . S
C126 H150 0.950 . S
C127 C144 1.574 . S
C127 C146 1.368 . S
C127 H151 0.949 . S
H128 C132 0.949 . S
C129 C130 1.349 . S
C129 C131 1.327 . S
C129 H152 0.950 . S
C130 C129 1.349 . S
C130 C142 1.349 . S
C131 C129 1.327 . S
C131 C147 1.429 . S
C131 H153 0.950 . S
C132 H128 0.949 . S
C132 C140 1.574 . S
C132 C148 1.368 . S
H133 C141 0.950 . S
H134 C139 0.950 . S
H135 C140 0.949 . S
H136 C142 0.950 . S
H137 C143 0.950 . S
H138 C144 0.949 . S
C139 H134 0.950 . S
C139 C141 1.327 . S
C139 C145 1.429 . S
C140 C132 1.574 . S
C140 H135 0.949 . S
C140 C146 1.368 . S
C141 C125 1.349 . S
C141 H133 0.950 . S
C141 C139 1.327 . S
C142 C130 1.349 . S
C142 H136 0.950 . S
C142 C143 1.327 . S
C143 H137 0.950 . S
C143 C142 1.327 . S
C143 C147 1.429 . S
C144 C127 1.574 . S
C144 H138 0.949 . S
C144 C148 1.368 . S
C145 C126 1.429 . S
C145 C139 1.429 . S
C145 C146 1.523 . S
C146 C127 1.368 . S
C146 C140 1.368 . S
C146 C145 1.523 . S
C147 C131 1.429 . S
C147 C143 1.429 . S
C147 C148 1.523 . S
C148 C132 1.368 . S
C148 C144 1.368 . S
C148 C147 1.523 . S
H149 C124 0.950 . S
H150 C126 0.950 . S
H151 C127 0.949 . S
H152 C129 0.950 . S
H153 C131 0.950 . S
C154 C155 1.349 . S
C154 C156 1.327 . S
C154 H179 0.950 . S
C155 C154 1.349 . S
C155 C171 1.349 . S
C156 C154 1.327 . S
C156 C175 1.429 . S
C156 H180 0.950 . S
C157 C174 1.574 . S
C157 C176 1.368 . S
C157 H181 0.949 . S
H158 C162 0.949 . S
C159 C160 1.349 . S
C159 C161 1.327 1_554 S
C159 H182 0.950 . S
C160 C159 1.349 . S
C160 C172 1.349 . S
C161 C159 1.327 1_556 S
C161 C177 1.429 . S
C161 H183 0.950 . S
C162 H158 0.949 . S
C162 C170 1.574 . S
C162 C178 1.368 . S
H163 C171 0.950 . S
H164 C169 0.950 . S
H165 C170 0.949 . S
H166 C172 0.950 . S
H167 C173 0.950 . S
H168 C174 0.949 . S
C169 H164 0.950 . S
C169 C171 1.327 . S
C169 C175 1.429 . S
C170 C162 1.574 . S
C170 H165 0.949 . S
C170 C176 1.368 . S
C171 C155 1.349 . S
C171 H163 0.950 . S
C171 C169 1.327 . S
C172 C160 1.349 . S
C172 H166 0.950 . S
C172 C173 1.327 1_554 S
C173 H167 0.950 . S
C173 C172 1.327 1_556 S
C173 C177 1.429 . S
C174 C157 1.574 . S
C174 H168 0.949 . S
C174 C178 1.368 . S
C175 C156 1.429 . S
C175 C169 1.429 . S
C175 C176 1.523 . S
C176 C157 1.368 . S
C176 C170 1.368 . S
C176 C175 1.523 . S
C177 C161 1.429 . S
C177 C173 1.429 . S
C177 C178 1.523 . S
C178 C162 1.368 . S
C178 C174 1.368 . S
C178 C177 1.523 . S
H179 C154 0.950 . S
H180 C156 0.950 . S
H181 C157 0.949 . S
H182 C159 0.950 . S
H183 C161 0.950 . S
C184 C185 1.349 . S
C184 C186 1.327 . S
C184 H209 0.950 . S
C185 C184 1.349 . S
C185 C201 1.349 . S
C186 C184 1.327 . S
C186 C205 1.429 . S
C186 H210 0.950 . S
C187 C204 1.574 1_556 S
C187 C206 1.368 . S
C187 H211 0.949 . S
H188 C192 0.949 . S
C189 C190 1.349 . S
C189 C191 1.327 . S
C189 H212 0.950 . S
C190 C189 1.349 . S
C190 C202 1.349 . S
C191 C189 1.327 . S
C191 C207 1.429 . S
C191 H213 0.950 . S
C192 H188 0.949 . S
C192 C200 1.574 1_554 S
C192 C208 1.368 . S
H193 C201 0.950 . S
H194 C199 0.950 . S
H195 C200 0.949 . S
H196 C202 0.950 . S
H197 C203 0.950 . S
H198 C204 0.949 . S
C199 H194 0.950 . S
C199 C201 1.327 . S
C199 C205 1.429 . S
C200 C192 1.574 1_556 S
C200 H195 0.949 . S
C200 C206 1.368 . S
C201 C185 1.349 . S
C201 H193 0.950 . S
C201 C199 1.327 . S
C202 C190 1.349 . S
C202 H196 0.950 . S
C202 C203 1.327 . S
C203 H197 0.950 . S
C203 C202 1.327 . S
C203 C207 1.429 . S
C204 C187 1.574 1_554 S
C204 H198 0.949 . S
C204 C208 1.368 . S
C205 C186 1.429 . S
C205 C199 1.429 . S
C205 C206 1.523 . S
C206 C187 1.368 . S
C206 C200 1.368 . S
C206 C205 1.523 . S
C207 C191 1.429 . S
C207 C203 1.429 . S
C207 C208 1.523 . S
C208 C192 1.368 . S
C208 C204 1.368 . S
C208 C207 1.523 . S
H209 C184 0.950 . S
H210 C186 0.950 . S
H211 C187 0.949 . S
H212 C189 0.950 . S
H213 C191 0.950 . S
C214 C215 1.349 1_554 S
C214 C216 1.327 . S
C214 H239 0.950 1_554 S
C215 C214 1.349 1_556 S
C215 C231 1.349 1_556 S
C216 C214 1.327 . S
C216 C235 1.429 . S
C216 H240 0.950 . S
C217 C234 1.574 . S
C217 C236 1.368 . S
C217 H241 0.949 . S
H218 C222 0.949 . S
C219 C220 1.349 . S
C219 C221 1.327 . S
C219 H242 0.950 . S
C220 C219 1.349 . S
C220 C232 1.349 . S
C221 C219 1.327 . S
C221 C237 1.429 . S
C221 H243 0.950 . S
C222 H218 0.949 . S
C222 C230 1.574 . S
C222 C238 1.368 . S
H223 C231 0.950 1_556 S
H224 C229 0.950 . S
H225 C230 0.949 . S
H226 C232 0.950 . S
H227 C233 0.950 . S
H228 C234 0.949 . S
C229 H224 0.950 . S
C229 C231 1.327 . S
C229 C235 1.429 . S
C230 C222 1.574 . S
C230 H225 0.949 . S
C230 C236 1.368 . S
C231 C215 1.349 1_554 S
C231 H223 0.950 1_554 S
C231 C229 1.327 . S
C232 C220 1.349 . S
C232 H226 0.950 . S
C232 C233 1.327 . S
C233 H227 0.950 . S
C233 C232 1.327 . S
C233 C237 1.429 . S
C234 C217 1.574 . S
C234 H228 0.949 . S
C234 C238 1.368 . S
C235 C216 1.429 . S
C235 C229 1.429 . S
C235 C236 1.523 . S
C236 C217 1.368 . S
C236 C230 1.368 . S
C236 C235 1.523 . S
C237 C221 1.429 . S
C237 C233 1.429 . S
C237 C238 1.523 . S
C238 C222 1.368 . S
C238 C234 1.368 . S
C238 C237 1.523 . S
H239 C214 0.950 1_556 S
H240 C216 0.950 . S
H241 C217 0.949 . S
H242 C219 0.950 . S
H243 C221 0.950 . S
C244 C245 1.349 . S
C244 C246 1.327 . S
C244 H269 0.950 . S
C245 C244 1.349 . S
C245 C261 1.349 . S
C246 C244 1.327 . S
C246 C265 1.429 . S
C246 H270 0.950 . S
C247 C264 1.574 . S
C247 C266 1.368 . S
C247 H271 0.949 . S
H248 C252 0.949 . S
C249 C250 1.349 . S
C249 C251 1.327 . S
C249 H272 0.950 . S
C250 C249 1.349 . S
C250 C262 1.349 . S
C251 C249 1.327 . S
C251 C267 1.429 . S
C251 H273 0.950 . S
C252 H248 0.949 . S
C252 C260 1.574 . S
C252 C268 1.368 . S
H253 C261 0.950 . S
H254 C259 0.950 . S
H255 C260 0.949 . S
H256 C262 0.950 . S
H257 C263 0.950 . S
H258 C264 0.949 . S
C259 H254 0.950 . S
C259 C261 1.327 . S
C259 C265 1.429 . S
C260 C252 1.574 . S
C260 H255 0.949 . S
C260 C266 1.368 . S
C261 C245 1.349 . S
C261 H253 0.950 . S
C261 C259 1.327 . S
C262 C250 1.349 . S
C262 H256 0.950 . S
C262 C263 1.327 . S
C263 H257 0.950 . S
C263 C262 1.327 . S
C263 C267 1.429 . S
C264 C247 1.574 . S
C264 H258 0.949 . S
C264 C268 1.368 . S
C265 C246 1.429 . S
C265 C259 1.429 . S
C265 C266 1.523 . S
C266 C247 1.368 . S
C266 C260 1.368 . S
C266 C265 1.523 . S
C267 C251 1.429 . S
C267 C263 1.429 . S
C267 C268 1.523 . S
C268 C252 1.368 . S
C268 C264 1.368 . S
C268 C267 1.523 . S
H269 C244 0.950 . S
H270 C246 0.950 . S
H271 C247 0.949 . S
H272 C249 0.950 . S
H273 C251 0.950 . S
C274 C275 1.349 . S
C274 C276 1.327 . S
C274 H299 0.950 . S
C275 C274 1.349 . S
C275 C291 1.349 . S
C276 C274 1.327 . S
C276 C295 1.429 . S
C276 H300 0.950 . S
C277 C294 1.574 . S
C277 C296 1.368 . S
C277 H301 0.949 . S
H278 C282 0.949 . S
C279 C280 1.349 1_556 S
C279 C281 1.327 . S
C279 H302 0.950 . S
C280 C279 1.349 1_554 S
C280 C292 1.349 . S
C281 C279 1.327 . S
C281 C297 1.429 1_556 S
C281 H303 0.950 1_565 S
C282 H278 0.949 . S
C282 C290 1.574 . S
C282 C298 1.368 . S
H283 C291 0.950 . S
H284 C289 0.950 . S
H285 C290 0.949 . S
H286 C292 0.950 . S
H287 C293 0.950 . S
H288 C294 0.949 1_556 S
C289 H284 0.950 . S
C289 C291 1.327 . S
C289 C295 1.429 . S
C290 C282 1.574 . S
C290 H285 0.949 . S
C290 C296 1.368 . S
C291 C275 1.349 . S
C291 H283 0.950 . S
C291 C289 1.327 . S
C292 C280 1.349 . S
C292 H286 0.950 . S
C292 C293 1.327 . S
C293 H287 0.950 . S
C293 C292 1.327 . S
C293 C297 1.431 . S
C294 C277 1.574 . S
C294 H288 0.949 1_554 S
C294 C298 1.368 . S
C295 C276 1.429 . S
C295 C289 1.429 . S
C295 C296 1.523 . S
C296 C277 1.368 . S
C296 C290 1.368 . S
C296 C295 1.523 . S
C297 C281 1.429 1_554 S
C297 C293 1.431 . S
C297 C298 1.520 1_565 S
C298 C282 1.368 . S
C298 C294 1.368 . S
C298 C297 1.520 1_545 S
H299 C274 0.950 . S
H300 C276 0.950 . S
H301 C277 0.949 . S
H302 C279 0.950 . S
H303 C281 0.950 1_545 S
C304 C305 1.349 . S
C304 C306 1.327 . S
C304 H329 0.950 . S
C305 C304 1.349 . S
C305 C321 1.349 . S
C306 C304 1.327 . S
C306 C325 1.429 . S
C306 H330 0.950 . S
C307 C324 1.574 . S
C307 C326 1.368 . S
C307 H331 0.949 . S
H308 C312 0.949 . S
C309 C310 1.349 . S
C309 C311 1.327 . S
C309 H332 0.950 . S
C310 C309 1.349 . S
C310 C322 1.349 . S
C311 C309 1.327 . S
C311 C327 1.429 . S
C311 H333 0.950 . S
C312 H308 0.949 . S
C312 C320 1.574 . S
C312 C328 1.368 . S
H313 C321 0.950 . S
H314 C319 0.950 . S
H315 C320 0.949 . S
H316 C322 0.950 . S
H317 C323 0.950 . S
H318 C324 0.949 . S
C319 H314 0.950 . S
C319 C321 1.327 . S
C319 C325 1.429 . S
C320 C312 1.574 . S
C320 H315 0.949 . S
C320 C326 1.368 . S
C321 C305 1.349 . S
C321 H313 0.950 . S
C321 C319 1.327 . S
C322 C310 1.349 . S
C322 H316 0.950 . S
C322 C323 1.327 . S
C323 H317 0.950 . S
C323 C322 1.327 . S
C323 C327 1.429 . S
C324 C307 1.574 . S
C324 H318 0.949 . S
C324 C328 1.368 . S
C325 C306 1.429 . S
C325 C319 1.429 . S
C325 C326 1.523 . S
C326 C307 1.368 . S
C326 C320 1.368 . S
C326 C325 1.523 . S
C327 C311 1.429 . S
C327 C323 1.429 . S
C327 C328 1.523 . S
C328 C312 1.368 . S
C328 C324 1.368 . S
C328 C327 1.523 . S
H329 C304 0.950 . S
H330 C306 0.950 . S
H331 C307 0.949 . S
H332 C309 0.950 . S
H333 C311 0.950 . S
C334 C335 1.349 . S
C334 C336 1.327 . S
C334 H359 0.950 . S
C335 C334 1.349 . S
C335 C351 1.349 . S
C336 C334 1.327 . S
C336 C355 1.429 . S
C336 H360 0.950 . S
C337 C354 1.574 . S
C337 C356 1.368 . S
C337 H361 0.949 . S
H338 C342 0.949 . S
C339 C340 1.349 . S
C339 C341 1.327 . S
C339 H362 0.950 . S
C340 C339 1.349 . S
C340 C352 1.349 . S
C341 C339 1.327 . S
C341 C357 1.429 1_545 S
C341 H363 0.950 . S
C342 H338 0.949 . S
C342 C350 1.574 . S
C342 C358 1.368 . S
H343 C351 0.950 . S
H344 C349 0.950 . S
H345 C350 0.949 . S
H346 C352 0.950 . S
H347 C353 0.950 1_565 S
H348 C354 0.949 . S
C349 H344 0.950 . S
C349 C351 1.327 . S
C349 C355 1.429 . S
C350 C342 1.574 . S
C350 H345 0.949 . S
C350 C356 1.368 . S
C351 C335 1.349 . S
C351 H343 0.950 . S
C351 C349 1.327 . S
C352 C340 1.349 . S
C352 H346 0.950 . S
C352 C353 1.327 . S
C353 H347 0.950 1_545 S
C353 C352 1.327 . S
C353 C357 1.429 1_545 S
C354 C337 1.574 . S
C354 H348 0.949 . S
C354 C358 1.368 . S
C355 C336 1.429 . S
C355 C349 1.429 . S
C355 C356 1.523 . S
C356 C337 1.368 . S
C356 C350 1.368 . S
C356 C355 1.523 . S
C357 C341 1.429 1_565 S
C357 C353 1.429 1_565 S
C357 C358 1.523 . S
C358 C342 1.368 . S
C358 C354 1.368 . S
C358 C357 1.523 . S
H359 C334 0.950 . S
H360 C336 0.950 . S
H361 C337 0.949 . S
H362 C339 0.950 . S
H363 C341 0.950 . S
C364 C365 1.349 . S
C364 C366 1.327 . S
C364 H389 0.950 . S
C365 C364 1.349 . S
C365 C381 1.349 . S
C366 C364 1.327 . S
C366 C385 1.427 1_655 S
C366 H390 0.950 1_655 S
C367 C384 1.574 . S
C367 C386 1.368 . S
C367 H391 0.949 . S
H368 C372 0.949 . S
C369 C370 1.349 . S
C369 C371 1.327 . S
C369 H392 0.950 . S
C370 C369 1.349 . S
C370 C382 1.349 . S
C371 C369 1.327 . S
C371 C387 1.429 . S
C371 H393 0.950 . S
C372 H368 0.949 . S
C372 C380 1.574 . S
C372 C388 1.368 . S
H373 C381 0.950 1_554 S
H374 C379 0.950 . S
H375 C380 0.949 . S
H376 C382 0.950 . S
H377 C383 0.950 . S
H378 C384 0.949 . S
C379 H374 0.950 . S
C379 C381 1.327 . S
C379 C385 1.426 1_655 S
C380 C372 1.574 . S
C380 H375 0.949 . S
C380 C386 1.368 . S
C381 C365 1.349 . S
C381 H373 0.950 1_556 S
C381 C379 1.327 . S
C382 C370 1.349 . S
C382 H376 0.950 . S
C382 C383 1.327 . S
C383 H377 0.950 . S
C383 C382 1.327 . S
C383 C387 1.429 . S
C384 C367 1.574 . S
C384 H378 0.949 . S
C384 C388 1.368 . S
C385 C366 1.427 1_455 S
C385 C379 1.426 1_455 S
C385 C386 1.526 . S
C386 C367 1.368 . S
C386 C380 1.368 . S
C386 C385 1.526 . S
C387 C371 1.429 . S
C387 C383 1.429 . S
C387 C388 1.523 . S
C388 C372 1.368 . S
C388 C384 1.368 . S
C388 C387 1.523 . S
H389 C364 0.950 . S
H390 C366 0.950 1_455 S
H391 C367 0.949 . S
H392 C369 0.950 . S
H393 C371 0.950 . S
C394 C395 1.349 . S
C394 C396 1.327 . S
C394 H419 0.950 . S
C395 C394 1.349 . S
C395 C411 1.349 . S
C396 C394 1.327 . S
C396 C415 1.429 . S
C396 H420 0.950 . S
C397 C414 1.574 . S
C397 C416 1.368 . S
C397 H421 0.949 . S
H398 C402 0.949 . S
C399 C400 1.349 . S
C399 C401 1.327 . S
C399 H422 0.950 . S
C400 C399 1.349 . S
C400 C412 1.349 . S
C401 C399 1.327 . S
C401 C417 1.429 . S
C401 H423 0.950 . S
C402 H398 0.949 . S
C402 C410 1.574 . S
C402 C418 1.368 . S
H403 C411 0.950 . S
H404 C409 0.950 . S
H405 C410 0.949 . S
H406 C412 0.950 . S
H407 C413 0.950 . S
H408 C414 0.949 . S
C409 H404 0.950 . S
C409 C411 1.327 . S
C409 C415 1.429 . S
C410 C402 1.574 . S
C410 H405 0.949 . S
C410 C416 1.368 . S
C411 C395 1.349 . S
C411 H403 0.950 . S
C411 C409 1.327 . S
C412 C400 1.349 . S
C412 H406 0.950 . S
C412 C413 1.327 . S
C413 H407 0.950 . S
C413 C412 1.327 . S
C413 C417 1.429 . S
C414 C397 1.574 . S
C414 H408 0.949 . S
C414 C418 1.368 . S
C415 C396 1.429 . S
C415 C409 1.429 . S
C415 C416 1.523 . S
C416 C397 1.368 . S
C416 C410 1.368 . S
C416 C415 1.523 . S
C417 C401 1.429 . S
C417 C413 1.429 . S
C417 C418 1.523 . S
C418 C402 1.368 . S
C418 C414 1.368 . S
C418 C417 1.523 . S
H419 C394 0.950 . S
H420 C396 0.950 . S
H421 C397 0.949 . S
H422 C399 0.950 . S
H423 C401 0.950 . S
C424 C425 1.349 . S
C424 C426 1.327 . S
C424 H449 0.950 . S
C425 C424 1.349 . S
C425 C441 1.349 . S
C426 C424 1.327 . S
C426 C445 1.429 . S
C426 H450 0.950 . S
C427 C444 1.574 . S
C427 C446 1.368 . S
C427 H451 0.949 . S
H428 C432 0.949 . S
C429 C430 1.349 . S
C429 C431 1.327 . S
C429 H452 0.950 . S
C430 C429 1.349 . S
C430 C442 1.349 . S
C431 C429 1.327 . S
C431 C447 1.429 1_455 S
C431 H453 0.950 1_455 S
C432 H428 0.949 . S
C432 C440 1.574 . S
C432 C448 1.368 . S
H433 C441 0.950 . S
H434 C439 0.950 . S
H435 C440 0.949 . S
H436 C442 0.950 . S
H437 C443 0.950 . S
H438 C444 0.949 . S
C439 H434 0.950 . S
C439 C441 1.327 . S
C439 C445 1.429 . S
C440 C432 1.574 . S
C440 H435 0.949 . S
C440 C446 1.368 . S
C441 C425 1.349 . S
C441 H433 0.950 . S
C441 C439 1.327 . S
C442 C430 1.349 . S
C442 H436 0.950 . S
C442 C443 1.327 . S
C443 H437 0.950 . S
C443 C442 1.327 . S
C443 C447 1.429 1_455 S
C444 C427 1.574 . S
C444 H438 0.949 . S
C444 C448 1.368 . S
C445 C426 1.429 . S
C445 C439 1.429 . S
C445 C446 1.523 . S
C446 C427 1.368 . S
C446 C440 1.368 . S
C446 C445 1.523 . S
C447 C431 1.429 1_655 S
C447 C443 1.429 1_655 S
C447 C448 1.523 . S
C448 C432 1.368 . S
C448 C444 1.368 . S
C448 C447 1.523 . S
H449 C424 0.950 . S
H450 C426 0.950 . S
H451 C427 0.949 . S
H452 C429 0.950 . S
H453 C431 0.950 1_655 S
C454 C455 1.349 . S
C454 C456 1.327 . S
C454 H479 0.950 . S
C455 C454 1.349 . S
C455 C471 1.349 . S
C456 C454 1.327 . S
C456 C475 1.429 . S
C456 H480 0.950 . S
C457 C474 1.574 . S
C457 C476 1.368 . S
C457 H481 0.949 . S
H458 C462 0.949 . S
C459 C460 1.349 . S
C459 C461 1.327 . S
C459 H482 0.950 . S
C460 C459 1.349 . S
C460 C472 1.349 . S
C461 C459 1.327 . S
C461 C477 1.429 . S
C461 H483 0.950 . S
C462 H458 0.949 . S
C462 C470 1.574 . S
C462 C478 1.368 . S
H463 C471 0.950 . S
H464 C469 0.950 . S
H465 C470 0.949 . S
H466 C472 0.950 . S
H467 C473 0.950 . S
H468 C474 0.949 . S
C469 H464 0.950 . S
C469 C471 1.327 . S
C469 C475 1.429 . S
C470 C462 1.574 . S
C470 H465 0.949 . S
C470 C476 1.368 . S
C471 C455 1.349 . S
C471 H463 0.950 . S
C471 C469 1.327 . S
C472 C460 1.349 . S
C472 H466 0.950 . S
C472 C473 1.327 . S
C473 H467 0.950 . S
C473 C472 1.327 . S
C473 C477 1.429 . S
C474 C457 1.574 . S
C474 H468 0.949 . S
C474 C478 1.368 . S
C475 C456 1.429 . S
C475 C469 1.429 . S
C475 C476 1.523 . S
C476 C457 1.368 . S
C476 C470 1.368 . S
C476 C475 1.523 . S
C477 C461 1.429 . S
C477 C473 1.429 . S
C477 C478 1.523 . S
C478 C462 1.368 . S
C478 C474 1.368 . S
C478 C477 1.523 . S
H479 C454 0.950 . S
H480 C456 0.950 . S
H481 C457 0.949 . S
H482 C459 0.950 . S
H483 C461 0.950 . S
C484 C485 1.349 . S
C484 C486 1.327 . S
C484 H509 0.950 . S
C485 C484 1.349 . S
C485 C501 1.349 . S
C486 C484 1.327 . S
C486 C505 1.429 . S
C486 H510 0.950 . S
C487 C504 1.574 . S
C487 C506 1.368 . S
C487 H511 0.949 . S
H488 C492 0.949 1_655 S
C489 C490 1.349 . S
C489 C491 1.327 . S
C489 H512 0.950 . S
C490 C489 1.349 . S
C490 C502 1.349 . S
C491 C489 1.327 . S
C491 C507 1.429 . S
C491 H513 0.950 1_655 S
C492 H488 0.949 1_455 S
C492 C500 1.574 1_565 S
C492 C508 1.368 . S
H493 C501 0.950 . S
H494 C499 0.950 . S
H495 C500 0.949 . S
H496 C502 0.950 . S
H497 C503 0.950 . S
H498 C504 0.949 . S
C499 H494 0.950 . S
C499 C501 1.327 1_565 S
C499 C505 1.429 1_565 S
C500 C492 1.574 1_545 S
C500 H495 0.949 . S
C500 C506 1.368 1_545 S
C501 C485 1.349 . S
C501 H493 0.950 . S
C501 C499 1.327 1_545 S
C502 C490 1.349 . S
C502 H496 0.950 . S
C502 C503 1.327 . S
C503 H497 0.950 . S
C503 C502 1.327 . S
C503 C507 1.429 . S
C504 C487 1.574 . S
C504 H498 0.949 . S
C504 C508 1.368 . S
C505 C486 1.429 . S
C505 C499 1.429 1_545 S
C505 C506 1.523 1_545 S
C506 C487 1.368 . S
C506 C500 1.368 1_565 S
C506 C505 1.523 1_565 S
C507 C491 1.429 . S
C507 C503 1.429 . S
C507 C508 1.523 1_655 S
C508 C492 1.368 . S
C508 C504 1.368 . S
C508 C507 1.523 1_455 S
H509 C484 0.950 . S
H510 C486 0.950 . S
H511 C487 0.949 . S
H512 C489 0.950 . S
H513 C491 0.950 1_455 S
C514 C515 1.349 . S
C514 C516 1.327 . S
C514 H539 0.950 . S
C515 C514 1.349 . S
C515 C531 1.349 . S
C516 C514 1.327 . S
C516 C535 1.429 . S
C516 H540 0.950 . S
C517 C534 1.574 . S
C517 C536 1.368 . S
C517 H541 0.949 . S
H518 C522 0.949 . S
C519 C520 1.349 . S
C519 C521 1.327 . S
C519 H542 0.950 . S
C520 C519 1.349 . S
C520 C532 1.349 . S
C521 C519 1.327 . S
C521 C537 1.429 . S
C521 H543 0.950 . S
C522 H518 0.949 . S
C522 C530 1.574 . S
C522 C538 1.368 . S
H523 C531 0.950 . S
H524 C529 0.950 . S
H525 C530 0.949 . S
H526 C532 0.950 . S
H527 C533 0.950 . S
H528 C534 0.949 . S
C529 H524 0.950 . S
C529 C531 1.327 . S
C529 C535 1.429 . S
C530 C522 1.574 . S
C530 H525 0.949 . S
C530 C536 1.368 . S
C531 C515 1.349 . S
C531 H523 0.950 . S
C531 C529 1.327 . S
C532 C520 1.349 . S
C532 H526 0.950 . S
C532 C533 1.327 . S
C533 H527 0.950 . S
C533 C532 1.327 . S
C533 C537 1.429 . S
C534 C517 1.574 . S
C534 H528 0.949 . S
C534 C538 1.368 . S
C535 C516 1.429 . S
C535 C529 1.429 . S
C535 C536 1.523 . S
C536 C517 1.368 . S
C536 C530 1.368 . S
C536 C535 1.523 . S
C537 C521 1.429 . S
C537 C533 1.429 . S
C537 C538 1.523 . S
C538 C522 1.368 . S
C538 C534 1.368 . S
C538 C537 1.523 . S
H539 C514 0.950 . S
H540 C516 0.950 . S
H541 C517 0.949 . S
H542 C519 0.950 . S
H543 C521 0.950 . S
C544 C545 1.349 . S
C544 C546 1.341 . S
C544 H569 0.950 . S
C545 C544 1.349 . S
C545 C561 1.349 . S
C546 C544 1.341 . S
C546 C565 1.437 . S
C546 H570 0.927 1_455 S
C547 C564 1.574 1_455 S
C547 C566 1.368 1_455 S
C547 H571 0.949 . S
H548 C552 0.949 . S
C549 C550 1.349 . S
C549 C551 1.327 . S
C549 H572 0.950 . S
C550 C549 1.349 . S
C550 C562 1.349 . S
C551 C549 1.327 . S
C551 C567 1.429 . S
C551 H573 0.950 . S
C552 H548 0.949 . S
C552 C560 1.574 . S
C552 C568 1.368 . S
H553 C561 0.950 . S
H554 C559 0.950 . S
H555 C560 0.949 . S
H556 C562 0.950 . S
H557 C563 0.950 1_545 S
H558 C564 0.949 1_565 S
C559 H554 0.950 . S
C559 C561 1.327 . S
C559 C565 1.429 . S
C560 C552 1.574 . S
C560 H555 0.949 . S
C560 C566 1.368 . S
C561 C545 1.349 . S
C561 H553 0.950 . S
C561 C559 1.327 . S
C562 C550 1.349 . S
C562 H556 0.950 . S
C562 C563 1.327 . S
C563 H557 0.950 1_565 S
C563 C562 1.327 . S
C563 C567 1.429 . S
C564 C547 1.574 1_655 S
C564 H558 0.949 1_545 S
C564 C568 1.368 . S
C565 C546 1.437 . S
C565 C559 1.429 . S
C565 C566 1.523 1_455 S
C566 C547 1.368 1_655 S
C566 C560 1.368 . S
C566 C565 1.523 1_655 S
C567 C551 1.429 . S
C567 C563 1.429 . S
C567 C568 1.523 1_565 S
C568 C552 1.368 . S
C568 C564 1.368 . S
C568 C567 1.523 1_545 S
H569 C544 0.950 . S
H570 C546 0.927 1_655 S
H571 C547 0.949 . S
H572 C549 0.950 . S
H573 C551 0.950 . S
C574 C575 1.349 . S
C574 C576 1.327 . S
C574 H599 0.950 . S
C575 C574 1.349 . S
C575 C591 1.349 . S
C576 C574 1.327 . S
C576 C595 1.429 . S
C576 H600 0.950 . S
C577 C594 1.574 1_554 S
C577 C596 1.368 . S
C577 H601 0.949 . S
H578 C582 0.949 . S
C579 C580 1.349 . S
C579 C581 1.327 . S
C579 H602 0.950 . S
C580 C579 1.349 . S
C580 C592 1.349 . S
C581 C579 1.327 . S
C581 C597 1.429 . S
C581 H603 0.950 . S
C582 H578 0.949 . S
C582 C590 1.574 1_556 S
C582 C598 1.368 . S
H583 C591 0.950 . S
H584 C589 0.950 . S
H585 C590 0.949 . S
H586 C592 0.950 . S
H587 C593 0.950 . S
H588 C594 0.949 . S
C589 H584 0.950 . S
C589 C591 1.327 . S
C589 C595 1.429 . S
C590 C582 1.574 1_554 S
C590 H585 0.949 . S
C590 C596 1.368 . S
C591 C575 1.349 . S
C591 H583 0.950 . S
C591 C589 1.327 . S
C592 C580 1.349 . S
C592 H586 0.950 . S
C592 C593 1.327 . S
C593 H587 0.950 . S
C593 C592 1.327 . S
C593 C597 1.429 . S
C594 C577 1.574 1_556 S
C594 H588 0.949 . S
C594 C598 1.368 . S
C595 C576 1.429 . S
C595 C589 1.429 . S
C595 C596 1.523 . S
C596 C577 1.368 . S
C596 C590 1.368 . S
C596 C595 1.523 . S
C597 C581 1.429 . S
C597 C593 1.429 . S
C597 C598 1.523 . S
C598 C582 1.368 . S
C598 C594 1.368 . S
C598 C597 1.523 . S
H599 C574 0.950 . S
H600 C576 0.950 . S
H601 C577 0.949 . S
H602 C579 0.950 . S
H603 C581 0.950 . S
C125 C19 1.171 . S
C130 C30 1.188 . S
C155 C50 1.170 . S
C160 C61 1.186 . S
C185 C72 1.187 . S
C190 C62 1.170 . S
C215 C103 1.188 . S
C220 C93 1.171 . S
C245 C123 1.487 . S
C250 C1 1.617 . S
C275 C32 1.738 . S
C280 C0 1.708 . S
C305 C91 1.964 . S
C310 C31 1.939 . S
C335 C122 1.840 . S
C340 C92 1.704 . S
C365 C10 1.487 . S
C370 C113 1.617 . S
C395 C41 1.704 . S
C400 C2 1.839 . S
C425 C33 1.964 . S
C430 C81 1.939 . S
C455 C82 1.738 . S
C460 C112 1.708 . S
C485 C63 0.467 . S
C490 C20 0.474 . S
C515 C51 0.467 . S
C520 C94 0.474 . S
C545 C64 0.481 . S
C550 C29 0.487 . S
C575 C60 0.481 . S
C580 C95 0.486 . S
