# Generated by pormake.
# Topology whk, (6)-cn, num edge types: 1
# Building blocks:
#     Node 0, Type 0, BuildingBlock: KUMJIN_clean_sbu_1, # of connection points: 6
#     Node 1, Type 0, BuildingBlock: KUMJIN_clean_sbu_1, # of connection points: 6
#     Node 2, Type 0, BuildingBlock: KUMJIN_clean_sbu_1, # of connection points: 6
#     Node 3, Type 0, BuildingBlock: KUMJIN_clean_sbu_1, # of connection points: 6
#     Node 4, Type 0, BuildingBlock: KUMJIN_clean_sbu_1, # of connection points: 6
#     Node 5, Type 0, BuildingBlock: KUMJIN_clean_sbu_1, # of connection points: 6
#     Node 6, Type 0, BuildingBlock: KUMJIN_clean_sbu_1, # of connection points: 6
#     Node 7, Type 0, BuildingBlock: KUMJIN_clean_sbu_1, # of connection points: 6
#     Node 8, Type 0, BuildingBlock: KUMJIN_clean_sbu_1, # of connection points: 6
#     Node 9, Type 0, BuildingBlock: KUMJIN_clean_sbu_1, # of connection points: 6
#     Node 10, Type 0, BuildingBlock: KUMJIN_clean_sbu_1, # of connection points: 6
#     Node 11, Type 0, BuildingBlock: KUMJIN_clean_sbu_1, # of connection points: 6
#     Node 12, Type 0, BuildingBlock: KUMJIN_clean_sbu_1, # of connection points: 6
#     Node 13, Type 0, BuildingBlock: KUMJIN_clean_sbu_1, # of connection points: 6
#     Node 14, Type 0, BuildingBlock: KUMJIN_clean_sbu_1, # of connection points: 6
#     Node 15, Type 0, BuildingBlock: KUMJIN_clean_sbu_1, # of connection points: 6
#     Edge 16, Type (0, 0), BuildingBlock: KIFKEQ_clean_linker_1, # of connection points: 2
#     Edge 17, Type (0, 0), BuildingBlock: KIFKEQ_clean_linker_1, # of connection points: 2
#     Edge 18, Type (0, 0), BuildingBlock: KIFKEQ_clean_linker_1, # of connection points: 2
#     Edge 19, Type (0, 0), BuildingBlock: KIFKEQ_clean_linker_1, # of connection points: 2
#     Edge 20, Type (0, 0), BuildingBlock: KIFKEQ_clean_linker_1, # of connection points: 2
#     Edge 21, Type (0, 0), BuildingBlock: KIFKEQ_clean_linker_1, # of connection points: 2
#     Edge 22, Type (0, 0), BuildingBlock: KIFKEQ_clean_linker_1, # of connection points: 2
#     Edge 23, Type (0, 0), BuildingBlock: KIFKEQ_clean_linker_1, # of connection points: 2
#     Edge 24, Type (0, 0), BuildingBlock: KIFKEQ_clean_linker_1, # of connection points: 2
#     Edge 25, Type (0, 0), BuildingBlock: KIFKEQ_clean_linker_1, # of connection points: 2
#     Edge 26, Type (0, 0), BuildingBlock: KIFKEQ_clean_linker_1, # of connection points: 2
#     Edge 27, Type (0, 0), BuildingBlock: KIFKEQ_clean_linker_1, # of connection points: 2
#     Edge 28, Type (0, 0), BuildingBlock: KIFKEQ_clean_linker_1, # of connection points: 2
#     Edge 29, Type (0, 0), BuildingBlock: KIFKEQ_clean_linker_1, # of connection points: 2
#     Edge 30, Type (0, 0), BuildingBlock: KIFKEQ_clean_linker_1, # of connection points: 2
#     Edge 31, Type (0, 0), BuildingBlock: KIFKEQ_clean_linker_1, # of connection points: 2
#     Edge 32, Type (0, 0), BuildingBlock: KIFKEQ_clean_linker_1, # of connection points: 2
#     Edge 33, Type (0, 0), BuildingBlock: KIFKEQ_clean_linker_1, # of connection points: 2
#     Edge 34, Type (0, 0), BuildingBlock: KIFKEQ_clean_linker_1, # of connection points: 2
#     Edge 35, Type (0, 0), BuildingBlock: KIFKEQ_clean_linker_1, # of connection points: 2
#     Edge 36, Type (0, 0), BuildingBlock: KIFKEQ_clean_linker_1, # of connection points: 2
#     Edge 37, Type (0, 0), BuildingBlock: KIFKEQ_clean_linker_1, # of connection points: 2
#     Edge 38, Type (0, 0), BuildingBlock: KIFKEQ_clean_linker_1, # of connection points: 2
#     Edge 39, Type (0, 0), BuildingBlock: KIFKEQ_clean_linker_1, # of connection points: 2
#     Edge 40, Type (0, 0), BuildingBlock: KIFKEQ_clean_linker_1, # of connection points: 2
#     Edge 41, Type (0, 0), BuildingBlock: KIFKEQ_clean_linker_1, # of connection points: 2
#     Edge 42, Type (0, 0), BuildingBlock: KIFKEQ_clean_linker_1, # of connection points: 2
#     Edge 43, Type (0, 0), BuildingBlock: KIFKEQ_clean_linker_1, # of connection points: 2
#     Edge 44, Type (0, 0), BuildingBlock: KIFKEQ_clean_linker_1, # of connection points: 2
#     Edge 45, Type (0, 0), BuildingBlock: KIFKEQ_clean_linker_1, # of connection points: 2
#     Edge 46, Type (0, 0), BuildingBlock: KIFKEQ_clean_linker_1, # of connection points: 2
#     Edge 47, Type (0, 0), BuildingBlock: KIFKEQ_clean_linker_1, # of connection points: 2
#     Edge 48, Type (0, 0), BuildingBlock: KIFKEQ_clean_linker_1, # of connection points: 2
#     Edge 49, Type (0, 0), BuildingBlock: KIFKEQ_clean_linker_1, # of connection points: 2
#     Edge 50, Type (0, 0), BuildingBlock: KIFKEQ_clean_linker_1, # of connection points: 2
#     Edge 51, Type (0, 0), BuildingBlock: KIFKEQ_clean_linker_1, # of connection points: 2
#     Edge 52, Type (0, 0), BuildingBlock: KIFKEQ_clean_linker_1, # of connection points: 2
#     Edge 53, Type (0, 0), BuildingBlock: KIFKEQ_clean_linker_1, # of connection points: 2
#     Edge 54, Type (0, 0), BuildingBlock: KIFKEQ_clean_linker_1, # of connection points: 2
#     Edge 55, Type (0, 0), BuildingBlock: KIFKEQ_clean_linker_1, # of connection points: 2
#     Edge 56, Type (0, 0), BuildingBlock: KIFKEQ_clean_linker_1, # of connection points: 2
#     Edge 57, Type (0, 0), BuildingBlock: KIFKEQ_clean_linker_1, # of connection points: 2
#     Edge 58, Type (0, 0), BuildingBlock: KIFKEQ_clean_linker_1, # of connection points: 2
#     Edge 59, Type (0, 0), BuildingBlock: KIFKEQ_clean_linker_1, # of connection points: 2
#     Edge 60, Type (0, 0), BuildingBlock: KIFKEQ_clean_linker_1, # of connection points: 2
#     Edge 61, Type (0, 0), BuildingBlock: KIFKEQ_clean_linker_1, # of connection points: 2
#     Edge 62, Type (0, 0), BuildingBlock: KIFKEQ_clean_linker_1, # of connection points: 2
#     Edge 63, Type (0, 0), BuildingBlock: KIFKEQ_clean_linker_1, # of connection points: 2
# Relax obj value: 0.453
# Max RMSD: 0.277
# Mean RMSD: 0.275
data_MOF--net-whk--node1-KUMJIN_clean_sbu_1--edge1-KIFKEQ_clean_linker_1
_symmetry_space_group_name_H-M    P1
_symmetry_Int_Tables_number       1
_symmetry_cell_setting            triclinic
loop_
_symmetry_equiv_pos_as_xyz
'x, y, z'
_cell_length_a     45.759886
_cell_length_b     45.838521
_cell_length_c     40.88411
_cell_angle_alpha  90.046943
_cell_angle_beta   89.963102
_cell_angle_gamma 89.781756
loop_
_atom_site_label
_atom_site_type_symbol
_atom_site_fract_x
_atom_site_fract_y
_atom_site_fract_z
_atom_type_partial_charge
Eu0 Eu 0.56171 0.19559 0.43178 0.0
C1 C 0.56239 0.29884 0.34303 0.0
N2 N 0.57223 0.27082 0.34016 0.0
C3 C 0.54808 0.26589 0.2885 0.0
C4 C 0.5441 0.31107 0.31885 0.0
C5 C 0.56604 0.25456 0.31307 0.0
C6 C 0.537 0.29421 0.29143 0.0
C7 C 0.55821 0.34336 0.37518 0.0
C8 C 0.56955 0.31491 0.37099 0.0
C9 C 0.53997 0.35547 0.3511 0.0
C10 C 0.53307 0.33946 0.32299 0.0
Eu11 Eu 0.60553 0.25587 0.38073 0.0
N12 N 0.58721 0.3027 0.39417 0.0
C13 C 0.56554 0.35888 0.40348 0.0
C14 C 0.59571 0.31845 0.42085 0.0
C15 C 0.58455 0.34646 0.42626 0.0
H16 H 0.57488 0.23284 0.31034 0.0
H17 H 0.59111 0.35869 0.44767 0.0
H18 H 0.52358 0.23162 0.48928 0.0
H19 H 0.6077 0.08576 0.43887 0.0
H20 H 0.61202 0.31012 0.43734 0.0
H21 H 0.55709 0.38069 0.40766 0.0
H22 H 0.58874 0.1301 0.41164 0.0
H23 H 0.54291 0.25284 0.26721 0.0
H24 H 0.53103 0.37724 0.35402 0.0
H25 H 0.51889 0.34912 0.30473 0.0
H26 H 0.5158 0.23012 0.549 0.0
H27 H 0.52299 0.30285 0.27237 0.0
H28 H 0.60678 0.08214 0.49928 0.0
N29 N 0.55097 0.19402 0.48852 0.0
C30 C 0.56223 0.1715 0.50593 0.0
C31 C 0.5291 0.21358 0.53724 0.0
C32 C 0.55806 0.16949 0.54003 0.0
C33 C 0.53364 0.21441 0.50341 0.0
C34 C 0.54169 0.19122 0.55573 0.0
N35 N 0.57825 0.15167 0.4562 0.0
C36 C 0.58835 0.12873 0.43801 0.0
C37 C 0.58655 0.12454 0.50579 0.0
C38 C 0.57623 0.14947 0.48915 0.0
C39 C 0.59856 0.10165 0.48745 0.0
C40 C 0.59907 0.1036 0.45335 0.0
H41 H 0.53798 0.1905 0.58189 0.0
H42 H 0.56684 0.14361 0.58333 0.0
H43 H 0.59186 0.10417 0.55327 0.0
O44 O 0.52613 0.19293 0.39568 0.0
O45 O 0.60992 0.18427 0.42673 0.0
O46 O 0.63558 0.22667 0.41384 0.0
O47 O 0.5244 0.16633 0.43921 0.0
O48 O 0.58241 0.17895 0.3826 0.0
O49 O 0.60822 0.21401 0.35301 0.0
O50 O 0.63157 0.29388 0.369 0.0
O51 O 0.55556 0.2499 0.3813 0.0
O52 O 0.54384 0.24178 0.43357 0.0
O53 O 0.63877 0.25412 0.34203 0.0
O54 O 0.61633 0.25728 0.43454 0.0
O55 O 0.57625 0.237 0.46135 0.0
C56 C 0.6342 0.19971 0.42629 0.0
C57 C 0.47855 0.17686 0.41387 0.0
C58 C 0.42876 0.15544 0.41305 0.0
C59 C 0.41732 0.18396 0.41452 0.0
C60 C 0.46601 0.20476 0.41559 0.0
C61 C 0.43571 0.2082 0.41594 0.0
C62 C 0.45974 0.15206 0.41308 0.0
C63 C 0.59827 0.18752 0.35692 0.0
C64 C 0.51107 0.17366 0.41231 0.0
C65 C 0.56955 0.14543 0.55708 0.0
C66 C 0.58378 0.12297 0.53997 0.0
C67 C 0.53997 0.2571 0.40713 0.0
C68 C 0.67863 0.28588 0.34956 0.0
C69 C 0.72199 0.29221 0.38319 0.0
C70 C 0.73826 0.29774 0.35453 0.0
C71 C 0.69501 0.2915 0.32136 0.0
C72 C 0.69204 0.28643 0.38035 0.0
C73 C 0.72477 0.29749 0.32391 0.0
C74 C 0.59998 0.25383 0.46073 0.0
C75 C 0.64726 0.28083 0.34697 0.0
H76 H 0.39391 0.18757 0.41496 0.0
H77 H 0.47969 0.22399 0.41652 0.0
H78 H 0.42634 0.2299 0.41723 0.0
H79 H 0.46915 0.13037 0.41176 0.0
H80 H 0.7616 0.30137 0.35554 0.0
H81 H 0.68475 0.29138 0.29748 0.0
H82 H 0.67901 0.28245 0.40203 0.0
H83 H 0.73749 0.30165 0.30208 0.0
Eu84 Eu 0.35117 0.56027 0.43462 0.0
C85 C 0.24749 0.57157 0.34914 0.0
N86 N 0.27599 0.58007 0.3477 0.0
C87 C 0.28085 0.55952 0.29412 0.0
C88 C 0.23482 0.55597 0.32304 0.0
C89 C 0.29252 0.575 0.3205 0.0
C90 C 0.25192 0.54992 0.29541 0.0
C91 C 0.20197 0.56818 0.37966 0.0
C92 C 0.23117 0.57774 0.37728 0.0
C93 C 0.18938 0.55268 0.35363 0.0
C94 C 0.2057 0.54668 0.32541 0.0
Eu95 Eu 0.29113 0.61024 0.39086 0.0
N96 N 0.24382 0.5928 0.40229 0.0
C97 C 0.18616 0.57463 0.40809 0.0
C98 C 0.22795 0.60055 0.42919 0.0
C99 C 0.19914 0.59106 0.43285 0.0
H100 H 0.31454 0.58321 0.31903 0.0
H101 H 0.18675 0.59701 0.45443 0.0
H102 H 0.32274 0.52901 0.50161 0.0
H103 H 0.46131 0.60222 0.41594 0.0
H104 H 0.23693 0.61504 0.44729 0.0
H105 H 0.16373 0.56754 0.41088 0.0
H106 H 0.4125 0.58433 0.39939 0.0
H107 H 0.29405 0.55529 0.27265 0.0
H108 H 0.16699 0.54517 0.35511 0.0
H109 H 0.19564 0.5346 0.30563 0.0
H110 H 0.3333 0.52593 0.56085 0.0
H111 H 0.24296 0.53798 0.27488 0.0
H112 H 0.47434 0.60476 0.47464 0.0
N113 N 0.36031 0.55448 0.49108 0.0
C114 C 0.3856 0.56599 0.50258 0.0
C115 C 0.34807 0.53746 0.54478 0.0
C116 C 0.39285 0.56419 0.53603 0.0
C117 C 0.34206 0.53941 0.51131 0.0
C118 C 0.37341 0.55021 0.55728 0.0
N119 N 0.39795 0.57808 0.44823 0.0
C120 C 0.41804 0.5856 0.42503 0.0
C121 C 0.43277 0.58765 0.49102 0.0
C122 C 0.4052 0.57777 0.48043 0.0
C123 C 0.45292 0.59704 0.4675 0.0
C124 C 0.44565 0.59564 0.43433 0.0
H125 H 0.37816 0.5484 0.58316 0.0
H126 H 0.42548 0.57452 0.57264 0.0
H127 H 0.46051 0.59494 0.53317 0.0
O128 O 0.35646 0.52333 0.40052 0.0
O129 O 0.36354 0.60884 0.43546 0.0
O130 O 0.32244 0.6372 0.42343 0.0
O131 O 0.37816 0.52203 0.44709 0.0
O132 O 0.35885 0.57341 0.37996 0.0
O133 O 0.33551 0.61731 0.36956 0.0
O134 O 0.25951 0.64592 0.39171 0.0
O135 O 0.29536 0.56013 0.38777 0.0
O136 O 0.30496 0.54271 0.43783 0.0
O137 O 0.28624 0.63938 0.34875 0.0
O138 O 0.29035 0.61557 0.44533 0.0
O139 O 0.31039 0.57278 0.46667 0.0
C140 C 0.34927 0.63406 0.43554 0.0
C141 C 0.37031 0.47595 0.4212 0.0
C142 C 0.39048 0.42552 0.41759 0.0
C143 C 0.36208 0.41509 0.42378 0.0
C144 C 0.34258 0.46432 0.4272 0.0
C145 C 0.33859 0.4342 0.42853 0.0
C146 C 0.39446 0.4564 0.41672 0.0
C147 C 0.35642 0.59845 0.36373 0.0
C148 C 0.37389 0.50836 0.41964 0.0
C149 C 0.41963 0.57547 0.54698 0.0
C150 C 0.43959 0.58709 0.52451 0.0
C151 C 0.28811 0.54279 0.41209 0.0
C152 C 0.23596 0.65194 0.34118 0.0
C153 C 0.18507 0.6675 0.33507 0.0
C154 C 0.18275 0.65053 0.30664 0.0
C155 C 0.2333 0.63519 0.3125 0.0
C156 C 0.21168 0.66784 0.3523 0.0
C157 C 0.20673 0.63425 0.29563 0.0
C158 C 0.29436 0.59706 0.46936 0.0
C159 C 0.26307 0.65206 0.36092 0.0
H160 H 0.35796 0.39189 0.42538 0.0
H161 H 0.32394 0.47861 0.43088 0.0
H162 H 0.31703 0.42554 0.43331 0.0
H163 H 0.416 0.46518 0.41202 0.0
H164 H 0.16267 0.65041 0.29263 0.0
H165 H 0.2516 0.62272 0.30315 0.0
H166 H 0.21388 0.68142 0.37391 0.0
H167 H 0.20488 0.62122 0.27364 0.0
Eu168 Eu 0.94046 0.29255 0.39003 0.0
C169 C 0.97985 0.3964 0.4963 0.0
N170 N 0.97795 0.39475 0.46331 0.0
C171 C 0.96126 0.44437 0.46097 0.0
C172 C 0.97161 0.42195 0.51322 0.0
C173 C 0.96977 0.41853 0.44536 0.0
C174 C 0.96179 0.44597 0.49511 0.0
C175 C 0.99588 0.3744 0.547 0.0
C176 C 0.99179 0.37306 0.51286 0.0
C177 C 0.9864 0.39919 0.56432 0.0
C178 C 0.97429 0.42296 0.54743 0.0
Eu179 Eu 0.99078 0.34991 0.43844 0.0
N180 N 1.00122 0.34982 0.49522 0.0
C181 C 1.01023 0.3512 0.5625 0.0
C182 C 1.01673 0.32794 0.50989 0.0
C183 C 1.02106 0.32805 0.54377 0.0
H184 H 0.96916 0.4173 0.41899 0.0
H185 H 0.03286 0.31037 0.55537 0.0
H186 H 0.98275 0.27439 0.32641 0.0
H187 H 0.82117 0.29937 0.39144 0.0
H188 H 0.02551 0.31016 0.49549 0.0
H189 H 1.01381 0.35136 0.58869 0.0
H190 H 0.8704 0.29224 0.41495 0.0
H191 H 0.95422 0.46299 0.44669 0.0
H192 H 0.98909 0.40054 0.5906 0.0
H193 H 0.9678 0.44227 0.56095 0.0
H194 H 0.9806 0.27449 0.26599 0.0
H195 H 0.95526 0.46602 0.50716 0.0
H196 H 0.81529 0.30836 0.33223 0.0
N197 N 0.93925 0.28999 0.33226 0.0
C198 C 0.91367 0.29662 0.31735 0.0
C199 C 0.96167 0.281 0.28013 0.0
C200 C 0.91134 0.29697 0.28296 0.0
C201 C 0.96283 0.28102 0.31434 0.0
C202 C 0.93597 0.2896 0.26434 0.0
N203 N 0.89223 0.2975 0.36946 0.0
C204 C 0.86809 0.2959 0.38898 0.0
C205 C 0.86164 0.30489 0.32217 0.0
C206 C 0.88928 0.30056 0.33665 0.0
C207 C 0.83695 0.30523 0.34236 0.0
C208 C 0.84017 0.30008 0.37581 0.0
H209 H 0.93509 0.28956 0.23785 0.0
H210 H 0.88213 0.30428 0.24202 0.0
H211 H 0.83844 0.31112 0.27645 0.0
O212 O 0.92435 0.24884 0.37857 0.0
O213 O 0.96741 0.3258 0.36238 0.0
O214 O 0.9647 0.36651 0.39348 0.0
O215 O 0.95817 0.25396 0.41451 0.0
O216 O 0.91281 0.32867 0.4167 0.0
O217 O 0.94272 0.36389 0.44132 0.0
O218 O 1.02296 0.35586 0.39896 0.0
O219 O 0.97751 0.30667 0.46404 0.0
O220 O 0.93141 0.29856 0.44417 0.0
O221 O 0.03249 0.37212 0.44719 0.0
O222 O 1.00741 0.30288 0.43452 0.0
O223 O 0.99017 0.29169 0.38401 0.0
C224 C 0.96156 0.35371 0.3648 0.0
C225 C 0.92406 0.21736 0.42395 0.0
C226 C 0.88318 0.21188 0.46154 0.0
C227 C 0.893 0.18371 0.46951 0.0
C228 C 0.93415 0.18947 0.4324 0.0
C229 C 0.91861 0.17273 0.45518 0.0
C230 C 0.89895 0.2284 0.43882 0.0
C231 C 0.91661 0.3535 0.43352 0.0
C232 C 0.94003 0.23596 0.40096 0.0
C233 C 0.88428 0.30341 0.2684 0.0
C234 C 0.85942 0.30734 0.288 0.0
C235 C 0.95095 0.29571 0.46743 0.0
C236 C 0.05306 0.3987 0.40296 0.0
C237 C 0.09326 0.43418 0.39383 0.0
C238 C 0.0731 0.45189 0.37688 0.0
C239 C 0.03415 0.4171 0.38554 0.0
C240 C 0.08277 0.40746 0.40737 0.0
C241 C 0.04408 0.44343 0.3728 0.0
C242 C 1.00848 0.28647 0.40812 0.0
C243 C 0.04124 0.37094 0.41691 0.0
H244 H 0.88109 0.17044 0.48688 0.0
H245 H 0.95395 0.18077 0.42155 0.0
H246 H 0.92645 0.15124 0.46172 0.0
H247 H 0.89141 0.24993 0.43213 0.0
H248 H 0.07968 0.47274 0.36691 0.0
H249 H 1.01151 0.41114 0.38185 0.0
H250 H 0.09762 0.39341 0.42074 0.0
H251 H 0.0291 0.45748 0.35963 0.0
Eu252 Eu 0.19845 0.98142 0.42574 0.0
C253 C 0.28903 0.98444 0.34143 0.0
N254 N 0.2611 0.97666 0.34944 0.0
C255 C 0.2425 1.0163 0.31689 0.0
C256 C 0.29442 1.00799 0.31995 0.0
C257 C 0.23813 0.99316 0.33851 0.0
C258 C 0.2707 1.02341 0.30707 0.0
C259 C 0.34137 0.98029 0.35146 0.0
C260 C 0.31247 0.9708 0.35712 0.0
C261 C 0.34664 1.00259 0.32878 0.0
C262 C 0.32325 1.01639 0.31308 0.0
Eu263 Eu 0.25804 0.93422 0.38352 0.0
N264 N 0.30689 0.95017 0.38015 0.0
C265 C 0.36412 0.96788 0.3697 0.0
C266 C 0.32889 0.93872 0.39884 0.0
C267 C 0.35781 0.94724 0.39372 0.0
H268 H 0.21635 0.98962 0.34703 0.0
H269 H 0.37518 0.93802 0.40844 0.0
H270 H 0.24424 0.02534 0.4685 0.0
H271 H 0.09433 0.93637 0.46652 0.0
H272 H 0.32405 0.92305 0.41783 0.0
H273 H 0.38654 0.97469 0.36607 0.0
H274 H 0.13031 0.95462 0.4262 0.0
H275 H 0.22407 0.02899 0.30823 0.0
H276 H 0.36869 1.00999 0.32399 0.0
H277 H 0.32766 0.03425 0.29646 0.0
H278 H 0.25463 0.03767 0.52602 0.0
H279 H 0.27399 0.04164 0.29063 0.0
H280 H 0.1047 0.94032 0.52575 0.0
N281 N 0.20895 0.997 0.47996 0.0
C282 C 0.19105 0.98667 0.50378 0.0
C283 C 0.23679 1.02315 0.52012 0.0
C284 C 0.19621 0.99311 0.53701 0.0
C285 C 0.23075 1.01623 0.48751 0.0
C286 C 0.21977 1.01115 0.54503 0.0
N287 N 0.16111 0.9672 0.46236 0.0
C288 C 0.13502 0.95614 0.45207 0.0
C289 C 0.1465 0.9614 0.51855 0.0
C290 C 0.16651 0.97106 0.49469 0.0
C291 C 0.12062 0.94807 0.50819 0.0
C292 C 0.11463 0.9459 0.47479 0.0
H293 H 0.22446 1.01661 0.57027 0.0
H294 H 0.18104 0.98656 0.5867 0.0
H295 H 0.13751 0.95867 0.57052 0.0
O296 O 0.19138 1.01942 0.39365 0.0
O297 O 0.18262 0.93445 0.41931 0.0
O298 O 0.22447 0.90654 0.41222 0.0
O299 O 0.16322 1.01331 0.43481 0.0
O300 O 0.17996 0.95661 0.37956 0.0
O301 O 0.2187 0.93581 0.35079 0.0
O302 O 0.28775 0.89699 0.38352 0.0
O303 O 0.27702 0.97074 0.41472 0.0
O304 O 0.24071 1.0048 0.40914 0.0
O305 O 0.26399 0.90722 0.33984 0.0
O306 O 0.25359 0.92122 0.43632 0.0
O307 O 0.23578 0.96355 0.46 0.0
C308 C 0.19659 0.90924 0.42063 0.0
C309 C 0.17154 0.0625 0.41876 0.0
C310 C 0.15091 0.1129 0.42061 0.0
C311 C 0.17652 0.12151 0.43717 0.0
C312 C 0.19679 0.07278 0.43415 0.0
C313 C 0.19911 0.10184 0.44352 0.0
C314 C 0.14837 0.08273 0.41194 0.0
C315 C 0.19087 0.94236 0.35363 0.0
C316 C 0.16994 0.0306 0.41078 0.0
C317 C 0.17722 0.98215 0.56102 0.0
C318 C 0.15243 0.96627 0.55181 0.0
C319 C 0.2684 0.9981 0.4149 0.0
C320 C 0.27277 0.85796 0.35196 0.0
C321 C 0.23847 0.81929 0.36448 0.0
C322 C 0.25978 0.79859 0.35539 0.0
C323 C 0.29379 0.8372 0.34288 0.0
C324 C 0.24488 0.84901 0.36216 0.0
C325 C 0.28718 0.80756 0.34439 0.0
C326 C 0.25005 0.9382 0.46188 0.0
C327 C 0.28107 0.88858 0.35429 0.0
H328 H 0.17924 0.14372 0.44563 0.0
H329 H 0.21483 0.05818 0.43913 0.0
H330 H 0.21863 0.10923 0.45592 0.0
H331 H 0.12888 0.07512 0.39964 0.0
H332 H 0.25508 0.77546 0.35652 0.0
H333 H 0.31543 0.8439 0.33528 0.0
H334 H 0.22857 0.86501 0.36919 0.0
H335 H 0.30345 0.79149 0.33745 0.0
Eu336 Eu 0.11614 0.79425 0.13162 0.0
C337 C 0.0684 0.88994 0.02103 0.0
N338 N 0.06999 0.89017 0.05411 0.0
C339 C 0.08411 0.94049 0.05333 0.0
C340 C 0.07572 0.9148 1.00254 0.0
C341 C 0.07648 0.91527 0.07055 0.0
C342 C 0.08416 0.94013 0.01914 0.0
C343 C 0.05402 0.86461 0.97169 0.0
C344 C 0.05773 0.86529 1.00591 0.0
C345 C 0.06271 0.88871 0.95286 0.0
C346 C 0.07355 0.91379 0.96827 0.0
Eu347 Eu 0.0597 0.84598 0.08153 0.0
N348 N 0.04913 0.84269 0.02493 0.0
C349 C 0.04085 0.84012 0.9576 0.0
C350 C 0.03475 0.81952 0.01158 0.0
C351 C 0.03078 0.81766 0.97771 0.0
H352 H 0.07666 0.91546 0.09699 0.0
H353 H 1.01992 0.79895 0.96716 0.0
H354 H 0.07307 0.76761 0.19118 0.0
H355 H 0.23115 0.8264 0.14304 0.0
H356 H 0.02675 0.80216 0.02703 0.0
H357 H 0.0376 0.83872 0.9314 0.0
H358 H 0.1872 0.80932 0.11438 0.0
H359 H 0.08999 0.96014 0.06642 0.0
H360 H 0.06036 0.8885 0.92649 0.0
H361 H 0.07943 0.93252 0.95356 0.0
H362 H 0.07023 0.76776 0.25134 0.0
H363 H 0.09 0.9597 1.00584 0.0
H364 H 0.22981 0.83516 0.20266 0.0
N365 N 0.11322 0.7909 0.18941 0.0
C366 C 0.13571 0.80208 0.20689 0.0
C367 C 0.08867 0.77771 0.23916 0.0
C368 C 0.13509 0.80248 0.24141 0.0
C369 C 0.09032 0.77781 0.20498 0.0
C370 C 0.11094 0.79053 0.25747 0.0
N371 N 0.16063 0.80866 0.15716 0.0
C372 C 0.18618 0.81271 0.14045 0.0
C373 C 0.18483 0.82137 0.20762 0.0
C374 C 0.16015 0.81144 0.19021 0.0
C375 C 0.21037 0.82756 0.19022 0.0
C376 C 0.21122 0.82257 0.15658 0.0
H377 H 0.10962 0.79043 0.28394 0.0
H378 H 0.15851 0.81512 0.28519 0.0
H379 H 0.20221 0.83163 0.2556 0.0
O380 O 0.10725 0.7526 0.10732 0.0
O381 O 0.08293 0.82313 0.15679 0.0
O382 O 0.08357 0.86429 0.12691 0.0
O383 O 0.14211 0.75539 0.14254 0.0
O384 O 0.13929 0.8333 0.10566 0.0
O385 O 0.10612 0.86391 0.07856 0.0
O386 O 0.02634 0.85028 0.12005 0.0
O387 O 0.07688 0.80342 0.05685 0.0
O388 O 0.12331 0.80159 0.0773 0.0
O389 O 1.01732 0.86715 0.07202 0.0
O390 O 0.04686 0.79795 0.0864 0.0
O391 O 0.06734 0.78306 0.13508 0.0
C392 C 0.08657 0.85138 0.15548 0.0
C393 C 0.15094 0.72841 0.09477 0.0
C394 C 0.19225 0.73787 0.05834 0.0
C395 C 0.19205 0.7083 0.04901 0.0
C396 C 0.15045 0.69926 0.08462 0.0
C397 C 0.17094 0.6893 0.06167 0.0
C398 C 0.17135 0.74746 0.0811 0.0
C399 C 0.13296 0.85691 0.08781 0.0
C400 C 0.13035 0.73991 0.11927 0.0
C401 C 0.15881 0.81413 0.25874 0.0
C402 C 0.18366 0.82359 0.24187 0.0
C403 C 0.1044 0.79459 0.05459 0.0
C404 C 0.99546 0.89282 0.11656 0.0
C405 C 0.95452 0.92757 0.12652 0.0
C406 C 0.97367 0.94433 0.1457 0.0
C407 C 1.01357 0.91055 0.13575 0.0
C408 C 0.96576 0.90168 0.11153 0.0
C409 C 1.00276 0.936 0.15008 0.0
C410 C 0.04797 0.77985 0.11146 0.0
C411 C 1.00805 0.86542 0.10206 0.0
H412 H 0.20813 0.6998 0.03207 0.0
H413 H 0.1345 0.68428 0.09455 0.0
H414 H 0.17074 0.66668 0.05401 0.0
H415 H 0.17137 0.76978 0.08928 0.0
H416 H 0.96611 0.96425 0.15728 0.0
H417 H 0.03622 0.90467 0.1398 0.0
H418 H 0.95147 0.88833 0.0967 0.0
H419 H 1.01707 0.94938 0.16484 0.0
Eu420 Eu 0.75402 0.10705 0.13476 0.0
C421 C 0.65052 0.06895 0.0275 0.0
N422 N 0.65201 0.07032 0.06052 0.0
C423 C 0.60229 0.08687 0.06304 0.0
C424 C 0.62501 0.07744 0.01065 0.0
C425 C 0.62812 0.07811 0.07857 0.0
C426 C 0.60086 0.08694 0.02888 0.0
C427 C 0.67279 0.05365 0.97661 0.0
C428 C 0.67397 0.05726 0.01083 0.0
C429 C 0.64806 0.06341 0.95937 0.0
C430 C 0.62418 0.07529 0.97638 0.0
Eu431 Eu 0.69692 0.05774 0.08532 0.0
N432 N 0.69713 0.04758 0.02842 0.0
C433 C 0.69606 0.03946 0.96097 0.0
C434 C 0.71906 0.03219 0.01358 0.0
C435 C 0.7191 0.02831 0.97963 0.0
H436 H 0.62919 0.07807 0.10497 0.0
H437 H 0.73683 1.01661 0.9679 0.0
H438 H 0.76676 0.06679 0.20139 0.0
H439 H 0.75341 0.22603 0.12755 0.0
H440 H 0.73677 1.02318 0.0279 0.0
H441 H 0.69603 0.03624 0.93472 0.0
H442 H 0.75946 0.17564 0.10688 0.0
H443 H 0.58356 0.09358 0.07739 0.0
H444 H 0.64684 0.06112 0.93302 0.0
H445 H 0.60491 0.08199 0.96291 0.0
H446 H 0.76297 0.07131 0.26161 0.0
H447 H 0.58082 0.09365 0.01689 0.0
H448 H 0.74073 0.23463 0.18558 0.0
N449 N 0.75307 0.1104 0.1925 0.0
C450 C 0.74651 0.13671 0.20567 0.0
C451 C 0.75805 0.08984 0.24615 0.0
C452 C 0.74408 0.14041 0.23981 0.0
C453 C 0.76018 0.08734 0.21211 0.0
C454 C 0.74932 0.11634 0.26006 0.0
N455 N 0.75009 0.15605 0.15275 0.0
C456 C 0.75424 0.17921 0.13235 0.0
C457 C 0.74109 0.18872 0.19789 0.0
C458 C 0.74497 0.16042 0.18505 0.0
C459 C 0.7434 0.21252 0.17666 0.0
C460 C 0.75064 0.20776 0.1439 0.0
H461 H 0.74771 0.11826 0.28641 0.0
H462 H 0.73553 0.17147 0.27872 0.0
H463 H 0.73303 0.21393 0.24192 0.0
O464 O 0.79776 0.12083 0.14975 0.0
O465 O 0.71993 0.08039 0.16154 0.0
O466 O 0.67983 0.08425 0.12971 0.0
O467 O 0.79318 0.08883 0.11178 0.0
O468 O 0.71926 0.13524 0.10673 0.0
O469 O 0.68341 0.10581 0.08253 0.0
O470 O 0.69198 0.02593 0.125 0.0
O471 O 0.74065 0.07002 0.06059 0.0
O472 O 0.74996 0.11593 0.0803 0.0
O473 O 0.67426 1.01622 0.07727 0.0
O474 O 0.744 0.04098 0.08945 0.0
O475 O 0.75275 0.05746 0.14061 0.0
C476 C 0.69214 0.08674 0.1587 0.0
C477 C 0.83275 0.12048 0.10771 0.0
C478 C 0.84362 0.16054 0.07065 0.0
C479 C 0.87321 0.15225 0.07065 0.0
C480 C 0.86213 0.11182 0.10694 0.0
C481 C 0.88227 0.12764 0.08828 0.0
C482 C 0.82363 0.1443 0.08912 0.0
C483 C 0.6944 0.13173 0.08986 0.0
C484 C 0.81127 0.10512 0.12787 0.0
C485 C 0.73795 0.16823 0.2526 0.0
C486 C 0.73651 0.1924 0.23165 0.0
C487 C 0.75229 0.09619 0.05715 0.0
C488 C 0.64985 0.99485 0.12274 0.0
C489 C 0.61574 0.95371 0.13075 0.0
C490 C 0.60072 0.97068 0.15403 0.0
C491 C 0.63392 1.01111 0.14579 0.0
C492 C 0.64036 0.96614 0.11485 0.0
C493 C 0.6096 0.99908 0.16124 0.0
C494 C 0.75942 0.03954 0.11654 0.0
C495 C 0.67654 1.00762 0.10752 0.0
H496 H 0.88919 0.16467 0.057 0.0
H497 H 0.86947 0.09312 0.12093 0.0
H498 H 0.90503 0.12112 0.0879 0.0
H499 H 0.80091 0.15079 0.0902 0.0
H500 H 0.5817 0.96205 0.16645 0.0
H501 H 0.64038 0.03314 0.15203 0.0
H502 H 0.65237 0.95338 0.09699 0.0
H503 H 0.59758 1.01184 0.17906 0.0
Eu504 Eu 0.48773 0.69715 0.09082 0.0
C505 C 0.48908 0.7875 0.17648 0.0
N506 N 0.48222 0.75881 0.17094 0.0
C507 C 0.52383 0.74386 0.20277 0.0
C508 C 0.51322 0.79509 0.19625 0.0
C509 C 0.50005 0.73721 0.18274 0.0
C510 C 0.53016 0.77284 0.20999 0.0
C511 C 0.48179 0.83908 0.16356 0.0
C512 C 0.47363 0.80959 0.16006 0.0
C513 C 0.50502 0.84643 0.18429 0.0
C514 C 0.52065 0.82455 0.20055 0.0
Eu515 Eu 0.43938 0.75283 0.13816 0.0
N516 N 0.45208 0.80211 0.13877 0.0
C517 C 0.46689 0.86032 0.14532 0.0
C518 C 0.43768 0.82251 0.1206 0.0
C519 C 0.44482 0.85198 0.12366 0.0
H520 H 0.49699 0.71476 0.17629 0.0
H521 H 0.43334 0.86822 0.10935 0.0
H522 H 0.53218 0.74621 0.05403 0.0
H523 H 0.45011 0.593 0.04217 0.0
H524 H 0.42061 0.81586 0.10392 0.0
H525 H 0.47257 0.88317 0.14739 0.0
H526 H 0.46326 0.62856 0.08537 0.0
H527 H 0.5376 0.72656 0.2122 0.0
H528 H 0.51158 0.86897 0.18727 0.0
H529 H 0.53908 0.83061 0.21571 0.0
H530 H 0.54709 0.75976 0.99822 0.0
H531 H 0.5489 0.77784 0.22517 0.0
H532 H 0.45827 0.60527 0.98394 0.0
N533 N 0.50592 0.71056 0.03866 0.0
C534 C 0.49818 0.69302 0.01331 0.0
C535 C 0.53306 0.74112 1.00208 0.0
C536 C 0.50663 0.69963 0.98098 0.0
C537 C 0.52436 0.73352 0.03372 0.0
C538 C 0.52375 0.7244 0.97551 0.0
N539 N 0.47734 0.6608 0.05165 0.0
C540 C 0.4666 0.63407 0.05992 0.0
C541 C 0.47655 0.64775 0.99462 0.0
C542 C 0.48331 0.66743 0.02002 0.0
C543 C 0.46382 0.62097 1.00274 0.0
C544 C 0.45925 0.61393 0.03559 0.0
H545 H 0.53069 0.73023 0.95104 0.0
H546 H 0.50464 0.68573 0.93034 0.0
H547 H 0.4783 0.64026 0.9423 0.0
O548 O 0.52413 0.68973 0.125 0.0
O549 O 0.44076 0.68028 0.09342 0.0
O550 O 0.41176 0.71936 0.10984 0.0
O551 O 0.52139 0.66359 0.08159 0.0
O552 O 0.46301 0.67582 0.13483 0.0
O553 O 0.44548 0.71284 0.16885 0.0
O554 O 0.39246 0.75973 0.14247 0.0
O555 O 0.47263 0.7735 0.10425 0.0
O556 O 0.50859 0.73956 0.11009 0.0
O557 O 0.41994 0.77749 0.17925 0.0
O558 O 0.42818 0.75509 0.08461 0.0
O559 O 0.46709 0.73326 0.05684 0.0
C560 C 0.41506 0.69332 0.09622 0.0
C561 C 0.5693 0.67147 0.10289 0.0
C562 C 0.6195 0.65035 0.10438 0.0
C563 C 0.63018 0.67786 0.09499 0.0
C564 C 0.58127 0.69831 0.0936 0.0
C565 C 0.61134 0.70139 0.08961 0.0
C566 C 0.58859 0.64719 0.10793 0.0
C567 C 0.45134 0.68529 0.16282 0.0
C568 C 0.53685 0.66943 0.10745 0.0
C569 C 0.4986 0.68085 0.95537 0.0
C570 C 0.48359 0.65496 0.96218 0.0
C571 C 0.50039 0.76658 0.10366 0.0
C572 C 0.38016 0.80681 0.16114 0.0
C573 C 0.35015 0.83825 0.12634 0.0
C574 C 0.35643 0.86211 0.14661 0.0
C575 C 0.3865 0.83093 0.18112 0.0
C576 C 0.36169 0.81076 0.13412 0.0
C577 C 0.37465 0.8584 0.17383 0.0
C578 C 0.44256 0.74921 0.05748 0.0
C579 C 0.39408 0.77796 0.16653 0.0
H580 H 0.6534 0.68122 0.09151 0.0
H581 H 0.56727 0.71707 0.08954 0.0
H582 H 0.62018 0.72229 0.08239 0.0
H583 H 0.57969 0.62631 0.11518 0.0
H584 H 0.34722 0.88341 0.14145 0.0
H585 H 0.40088 0.82864 0.202 0.0
H586 H 0.356 0.79221 0.11896 0.0
H587 H 0.37965 0.87689 0.1893 0.0
Eu588 Eu 0.85323 0.48302 0.09249 0.0
C589 C 0.74799 0.48115 0.17926 0.0
N590 N 0.77587 0.47074 0.18163 0.0
C591 C 0.78108 0.49244 0.23459 0.0
C592 C 0.73594 0.49845 0.20448 0.0
C593 C 0.79221 0.47546 0.20901 0.0
C594 C 0.75287 0.50402 0.2323 0.0
C595 C 0.70366 0.48775 0.14719 0.0
C596 C 0.73191 0.47569 0.1508 0.0
C597 C 0.69163 0.50475 0.17245 0.0
C598 C 0.70765 0.51 0.201 0.0
Eu599 Eu 0.79014 0.43887 0.13947 0.0
N600 N 0.74413 0.45939 0.12637 0.0
C601 C 0.68837 0.48262 0.11812 0.0
C602 C 0.72886 0.45355 0.09844 0.0
C603 C 0.701 0.4654 0.09372 0.0
H604 H 0.81378 0.46609 0.21123 0.0
H605 H 0.68908 0.46085 0.07144 0.0
H606 H 0.8201 0.52375 0.03528 0.0
H607 H 0.96084 0.43132 0.08705 0.0
H608 H 0.73747 0.43897 0.08017 0.0
H609 H 0.66674 0.4917 0.11437 0.0
H610 H 0.91673 0.45178 0.11371 0.0
H611 H 0.79417 0.49642 0.25616 0.0
H612 H 0.66999 0.51419 0.17 0.0
H613 H 0.6981 0.52338 0.2201 0.0
H614 H 0.82377 0.53324 0.97599 0.0
H615 H 0.74437 0.51724 0.25216 0.0
H616 H 0.96627 0.43411 0.02689 0.0
N617 N 0.85665 0.49494 0.03625 0.0
C618 C 0.8793 0.48333 0.01924 0.0
C619 C 0.83943 0.51897 0.98779 0.0
C620 C 0.88249 0.48837 0.98541 0.0
C621 C 0.83738 0.51348 0.02136 0.0
C622 C 0.86187 0.50605 0.96962 0.0
N623 N 0.89701 0.46482 0.06896 0.0
C624 C 0.91891 0.45294 0.08741 0.0
C625 C 0.92516 0.45684 0.01993 0.0
C626 C 0.90029 0.4679 0.0362 0.0
C627 C 0.94686 0.44298 0.03845 0.0
C628 C 0.94389 0.44139 0.07241 0.0
H629 H 0.86353 0.51047 0.94365 0.0
H630 H 0.90925 0.47974 0.94267 0.0
H631 H 0.94665 0.45202 0.97295 0.0
O632 O 0.85416 0.52097 0.12578 0.0
O633 O 0.86309 0.43462 0.09871 0.0
O634 O 0.81932 0.40965 0.10594 0.0
O635 O 0.88609 0.51735 0.0873 0.0
O636 O 0.86688 0.46389 0.14366 0.0
O637 O 0.83208 0.43285 0.16673 0.0
O638 O 0.78896 0.40503 0.17739 0.0
O639 O 0.79717 0.48847 0.14072 0.0
O640 O 0.8072 0.50149 0.08928 0.0
O641 O 0.75124 0.41285 0.14705 0.0
O642 O 0.78928 0.43037 0.08522 0.0
O643 O 0.81407 0.46849 0.0592 0.0
C644 C 0.84689 0.41106 0.09548 0.0
C645 C 0.87435 0.5655 0.10393 0.0
C646 C 0.8961 0.6152 0.10199 0.0
C647 C 0.87027 0.62476 0.08642 0.0
C648 C 0.84912 0.57642 0.08889 0.0
C649 C 0.84719 0.60572 0.08019 0.0
C650 C 0.89804 0.58498 0.11035 0.0
C651 C 0.85794 0.4451 0.16657 0.0
C652 C 0.87626 0.53355 0.11105 0.0
C653 C 0.90655 0.47636 0.96872 0.0
C654 C 0.92786 0.4606 0.98596 0.0
C655 C 0.79085 0.50464 0.11512 0.0
C656 C 0.7574 0.36562 0.1665 0.0
C657 C 0.75429 0.32232 0.1322 0.0
C658 C 0.74505 0.30633 0.1598 0.0
C659 C 0.74817 0.34947 0.19361 0.0
C660 C 0.76023 0.35215 0.13587 0.0
C661 C 0.74192 0.31989 0.19019 0.0
C662 C 0.79557 0.44599 0.05915 0.0
C663 C 0.76256 0.39685 0.16993 0.0
H664 H 0.86787 0.64714 0.0784 0.0
H665 H 0.83096 0.56211 0.08342 0.0
H666 H 0.82766 0.61376 0.06821 0.0
H667 H 0.91765 0.57667 0.12194 0.0
H668 H 0.7411 0.28312 0.15828 0.0
H669 H 0.74565 0.35978 0.21731 0.0
H670 H 0.767 0.36503 0.115 0.0
H671 H 0.73496 0.30735 0.21121 0.0
Eu672 Eu 0.44344 0.80117 0.64743 0.0
C673 C 0.4873 0.87358 0.5117 0.0
N674 N 0.49845 0.85297 0.53191 0.0
C675 C 0.52069 0.82872 0.48614 0.0
C676 C 0.49179 0.87227 0.47761 0.0
C677 C 0.51581 0.83119 0.51982 0.0
C678 C 0.50832 0.84915 0.46487 0.0
C679 C 0.46277 0.92014 0.50581 0.0
C680 C 0.47301 0.89703 0.5255 0.0
C681 C 0.46591 0.9184 0.47167 0.0
C682 C 0.48041 0.89447 0.45758 0.0
Eu683 Eu 0.48674 0.85673 0.58827 0.0
N684 N 0.47081 0.89809 0.55848 0.0
C685 C 0.45057 0.94464 0.52114 0.0
C686 C 0.46054 0.92261 0.57369 0.0
C687 C 0.44984 0.94605 0.55528 0.0
H688 H 0.52568 0.81542 0.53606 0.0
H689 H 0.44107 0.96517 0.56742 0.0
H690 H 0.48668 0.79292 0.71214 0.0
H691 H 0.39028 0.71304 0.5783 0.0
H692 H 0.45997 0.92375 0.60009 0.0
H693 H 0.4424 0.96286 0.50692 0.0
H694 H 0.39376 0.76182 0.60333 0.0
H695 H 0.53405 0.81112 0.47662 0.0
H696 H 0.45793 0.93577 0.45606 0.0
H697 H 0.48338 0.89374 0.4313 0.0
H698 H 0.51922 0.75528 0.73644 0.0
H699 H 0.51228 0.84732 0.43881 0.0
H700 H 0.42848 0.67598 0.58915 0.0
N701 N 0.47354 0.76586 0.6727 0.0
C702 C 0.47422 0.7389 0.65913 0.0
C703 C 0.50685 0.75046 0.71455 0.0
C704 C 0.49263 0.71691 0.67177 0.0
C705 C 0.48848 0.77164 0.70086 0.0
C706 C 0.50938 0.72313 0.69957 0.0
N707 N 0.43506 0.75361 0.6256 0.0
C708 C 0.41097 0.74613 0.60769 0.0
C709 C 0.45312 0.70422 0.62136 0.0
C710 C 0.45466 0.7327 0.63435 0.0
C711 C 0.4304 0.69756 0.59975 0.0
C712 C 0.40877 0.71839 0.59364 0.0
H713 H 0.52372 0.7068 0.7101 0.0
H714 H 0.50733 0.6722 0.66594 0.0
H715 H 0.47268 0.66105 0.62167 0.0
O716 O 0.41977 0.7771 0.68482 0.0
O717 O 0.49337 0.8031 0.64412 0.0
O718 O 0.50313 0.8098 0.59057 0.0
O719 O 0.41468 0.82359 0.68229 0.0
O720 O 0.43021 0.79995 0.5939 0.0
O721 O 0.47048 0.81379 0.56309 0.0
O722 O 0.52165 0.86085 0.62519 0.0
O723 O 0.43868 0.86897 0.59302 0.0
O724 O 0.41204 0.8305 0.61614 0.0
O725 O 0.52375 0.88649 0.58113 0.0
O726 O 0.46154 0.87496 0.63322 0.0
O727 O 0.47101 0.8377 0.66733 0.0
C728 C 0.50728 0.79497 0.61749 0.0
C729 C 0.37384 0.79567 0.69647 0.0
C730 C 0.32868 0.78534 0.66714 0.0
C731 C 0.3135 0.78689 0.69719 0.0
C732 C 0.35859 0.79683 0.72607 0.0
C733 C 0.32844 0.79235 0.72638 0.0
C734 C 0.35901 0.78964 0.66733 0.0
C735 C 0.4457 0.79891 0.56677 0.0
C736 C 0.40546 0.79958 0.69559 0.0
C737 C 0.49286 0.68921 0.65708 0.0
C738 C 0.47318 0.68289 0.63182 0.0
C739 C 0.41374 0.85574 0.59973 0.0
C740 C 0.56934 0.87765 0.60794 0.0
C741 C 0.61904 0.8995 0.61142 0.0
C742 C 0.63068 0.87119 0.60786 0.0
C743 C 0.58221 0.85006 0.60434 0.0
C744 C 0.58794 0.90258 0.61106 0.0
C745 C 0.61255 0.84694 0.60425 0.0
C746 C 0.46201 0.8645 0.66325 0.0
C747 C 0.53665 0.88019 0.60862 0.0
H748 H 0.28999 0.78469 0.69826 0.0
H749 H 0.36994 0.80117 0.74879 0.0
H750 H 0.31654 0.79349 0.74924 0.0
H751 H 0.37143 0.78831 0.6449 0.0
H752 H 0.65411 0.86775 0.60753 0.0
H753 H 0.56875 0.83081 0.60163 0.0
H754 H 0.5783 0.92406 0.61385 0.0
H755 H 0.62214 0.82546 0.60144 0.0
Eu756 Eu 0.74483 0.44407 0.63803 0.0
C757 C 0.67777 0.49746 0.50416 0.0
N758 N 0.69791 0.50716 0.52582 0.0
C759 C 0.72413 0.53066 0.48243 0.0
C760 C 0.68037 0.50333 0.47044 0.0
C761 C 0.72038 0.52447 0.51567 0.0
C762 C 0.70425 0.51971 0.45963 0.0
C763 C 0.63075 0.47495 0.49498 0.0
C764 C 0.65347 0.48346 0.51617 0.0
C765 C 0.6338 0.47935 0.46114 0.0
C766 C 0.6586 0.49353 0.44888 0.0
Eu767 Eu 0.69205 0.49314 0.58122 0.0
N768 N 0.65112 0.4801 0.54895 0.0
C769 C 0.60526 0.46327 0.50859 0.0
C770 C 0.6256 0.47056 0.56253 0.0
C771 C 0.6025 0.46151 0.54257 0.0
H772 H 0.73571 0.53323 0.53314 0.0
H773 H 0.58261 0.45322 0.5534 0.0
H774 H 0.74866 0.47857 0.70926 0.0
H775 H 0.83683 0.40055 0.56583 0.0
H776 H 0.62343 0.4692 0.58882 0.0
H777 H 0.5873 0.45642 0.49317 0.0
H778 H 0.78661 0.40171 0.58716 0.0
H779 H 0.74228 0.54394 0.47443 0.0
H780 H 0.61674 0.47268 0.44439 0.0
H781 H 0.66032 0.49756 0.42284 0.0
H782 H 0.7845 0.50681 0.74177 0.0
H783 H 0.70707 0.52471 0.43392 0.0
H784 H 0.87372 0.43472 0.58767 0.0
N785 N 0.77877 0.46881 0.67134 0.0
C786 C 0.80668 0.47051 0.66055 0.0
C787 C 0.79101 0.49682 0.71889 0.0
C788 C 0.82785 0.48648 0.67801 0.0
C789 C 0.77081 0.48084 0.70055 0.0
C790 C 0.81958 0.50002 0.70733 0.0
N791 N 0.79379 0.43782 0.61867 0.0
C792 C 0.80211 0.41722 0.59634 0.0
C793 C 0.84367 0.45454 0.62217 0.0
C794 C 0.81437 0.45483 0.63301 0.0
C795 C 0.85148 0.43561 0.59675 0.0
C796 C 0.83075 0.4163 0.58439 0.0
H797 H 0.83517 0.51251 0.72146 0.0
H798 H 0.87301 0.50058 0.67869 0.0
H799 H 0.88694 0.47246 0.62974 0.0
O800 O 0.76477 0.41125 0.66973 0.0
O801 O 0.74652 0.49387 0.63886 0.0
O802 O 0.73989 0.50693 0.58602 0.0
O803 O 0.71821 0.4175 0.67089 0.0
O804 O 0.74574 0.43383 0.58365 0.0
O805 O 0.73503 0.47669 0.55617 0.0
O806 O 0.68915 0.5274 0.61897 0.0
O807 O 0.67676 0.44595 0.583 0.0
O808 O 0.71434 0.41688 0.60408 0.0
O809 O 0.66337 0.53115 0.57508 0.0
O810 O 0.67207 0.46852 0.62553 0.0
O811 O 0.71073 0.47466 0.65841 0.0
C812 C 0.75499 0.50885 0.6132 0.0
C813 C 0.7354 0.3698 0.66916 0.0
C814 C 0.73669 0.33324 0.62571 0.0
C815 C 0.72358 0.3132 0.6473 0.0
C816 C 0.7222 0.34981 0.69027 0.0
C817 C 0.7164 0.32151 0.67931 0.0
C818 C 0.74249 0.36142 0.63715 0.0
C819 C 0.74858 0.451 0.55812 0.0
C820 C 0.73976 0.40031 0.6785 0.0
C821 C 0.85656 0.48793 0.66602 0.0
C822 C 0.86446 0.47201 0.63807 0.0
C823 C 0.6889 0.42027 0.58857 0.0
C824 C 0.67467 0.57566 0.60191 0.0
C825 C 0.65527 0.62623 0.60566 0.0
C826 C 0.68378 0.63632 0.59933 0.0
C827 C 0.70256 0.58686 0.59577 0.0
C828 C 0.65087 0.59547 0.60656 0.0
C829 C 0.707 0.61692 0.59448 0.0
C830 C 0.68315 0.46808 0.65527 0.0
C831 C 0.67037 0.54341 0.60269 0.0
H832 H 0.71933 0.29097 0.63977 0.0
H833 H 0.71615 0.35615 0.7149 0.0
H834 H 0.70631 0.30594 0.69564 0.0
H835 H 0.75178 0.37741 0.6208 0.0
H836 H 0.68819 0.65947 0.59764 0.0
H837 H 0.72095 0.57231 0.59179 0.0
H838 H 0.62922 0.58697 0.61127 0.0
H839 H 0.72865 0.62528 0.58955 0.0
Eu840 Eu 0.05755 0.69588 0.58137 0.0
C841 C 0.12896 0.74554 0.70675 0.0
N842 N 0.10546 0.75593 0.69038 0.0
C843 C 0.08115 0.76616 0.7411 0.0
C844 C 0.12918 0.74402 0.74119 0.0
C845 C 0.08198 0.767 0.70689 0.0
C846 C 0.10469 0.75423 0.75834 0.0
C847 C 0.17879 0.72801 0.70498 0.0
C848 C 0.15333 0.73787 0.68894 0.0
C849 C 0.17868 0.72475 0.73917 0.0
C850 C 0.15392 0.73286 0.75728 0.0
Eu851 Eu 0.10643 0.75373 0.63268 0.0
N852 N 0.15272 0.74194 0.6561 0.0
C853 C 0.20379 0.7225 0.68626 0.0
C854 C 0.17785 0.73917 0.63824 0.0
C855 C 0.20339 0.72842 0.65279 0.0
H856 H 0.06367 0.77603 0.6936 0.0
H857 H 0.22274 0.72458 0.63824 0.0
H858 H 0.07772 0.62682 0.59596 0.0
H859 H 0.02395 0.74109 0.46337 0.0
H860 H 0.17815 0.74464 0.61253 0.0
H861 H 0.22372 0.71457 0.69753 0.0
H862 H 0.0236 0.73585 0.52361 0.0
H863 H 0.0623 0.77454 0.75412 0.0
H864 H 0.1979 0.71683 0.75189 0.0
H865 H 0.15435 0.73101 0.78369 0.0
H866 H 0.10026 0.58531 0.56631 0.0
H867 H 0.10397 0.75346 0.78482 0.0
H868 H 0.05253 0.7065 0.42937 0.0
N869 N 0.07499 0.6537 0.55378 0.0
C870 C 0.07844 0.65549 0.52099 0.0
C871 C 0.09434 0.60498 0.55324 0.0
C872 C 0.09117 0.6325 0.50297 0.0
C873 C 0.08143 0.6284 0.56991 0.0
C874 C 0.09977 0.60725 0.51969 0.0
N875 N 0.05263 0.69952 0.52361 0.0
C876 C 0.03614 0.72069 0.50891 0.0
C877 C 0.06749 0.68121 0.47087 0.0
C878 C 0.06685 0.67936 0.50528 0.0
C879 C 0.05255 0.70423 0.45575 0.0
C880 C 0.03632 0.72373 0.47485 0.0
H881 H 0.10969 0.58908 0.50679 0.0
H882 H 0.10389 0.61783 0.45454 0.0
H883 H 0.0831 0.66065 0.42634 0.0
O884 O 1.02124 0.69091 0.61627 0.0
O885 O 0.07217 0.73942 0.55685 0.0
O886 O 0.11735 0.74771 0.57905 0.0
O887 O 1.01842 0.67051 0.56912 0.0
O888 O 0.04049 0.74279 0.58543 0.0
O889 O 0.05657 0.75523 0.63627 0.0
O890 O 0.12612 0.7961 0.64322 0.0
O891 O 0.07777 0.72083 0.65882 0.0
O892 O 0.08057 0.67962 0.62837 0.0
O893 O 0.08942 0.79363 0.6104 0.0
O894 O 0.13233 0.72061 0.60099 0.0
O895 O 0.10404 0.67936 0.59226 0.0
C896 C 0.09869 0.75079 0.55501 0.0
C897 C 0.99415 0.64633 0.61268 0.0
C898 C 0.95394 0.61141 0.62394 0.0
C899 C 0.97435 0.59397 0.64091 0.0
C900 C 1.01329 0.62831 0.63026 0.0
C901 C 1.00348 0.60237 0.64405 0.0
C902 C 0.96431 0.63771 0.60932 0.0
C903 C 0.03883 0.75967 0.61144 0.0
C904 C 1.00596 0.67355 0.59754 0.0
C905 C 0.09376 0.63503 0.46883 0.0
C906 C 0.08193 0.65941 0.45277 0.0
C907 C 0.08333 0.69282 0.65689 0.0
C908 C 0.12554 0.82734 0.59727 0.0
C909 C 0.16654 0.83238 0.55958 0.0
C910 C 0.15521 0.85932 0.54908 0.0
C911 C 0.11413 0.85399 0.58622 0.0
C912 C 0.15135 0.81648 0.58347 0.0
C913 C 0.12892 0.86986 0.56214 0.0
C914 C 0.12952 0.69279 0.59248 0.0
C915 C 0.11001 0.81003 0.62198 0.0
H916 H 0.96788 0.57339 0.65164 0.0
H917 H 0.03601 0.63428 0.63322 0.0
H918 H 1.01864 0.58856 0.65729 0.0
H919 H 0.9493 0.65154 0.59588 0.0
H920 H 0.16671 0.87218 0.531 0.0
H921 H 0.09385 0.86245 0.59617 0.0
H922 H 0.16016 0.79597 0.59232 0.0
H923 H 0.12015 0.8905 0.55379 0.0
Eu924 Eu 0.79829 0.11254 0.64424 0.0
C925 C 0.86402 0.06496 0.51045 0.0
N926 N 0.84553 0.05246 0.53211 0.0
C927 C 0.819 0.03041 0.48795 0.0
C928 C 0.86027 0.06147 0.47645 0.0
C929 C 0.82392 0.03429 0.52144 0.0
C930 C 0.83698 0.04445 0.46531 0.0
C931 C 0.90964 0.09004 0.50122 0.0
C932 C 0.88814 0.07905 0.52258 0.0
C933 C 0.90527 0.08826 0.46726 0.0
C934 C 0.88056 0.07403 0.45487 0.0
Eu935 Eu 0.8525 0.06324 0.58843 0.0
N936 N 0.89185 0.07952 0.55539 0.0
C937 C 0.93543 0.10114 0.51468 0.0
C938 C 0.91787 0.08811 0.5685 0.0
C939 C 0.93981 0.0996 0.54846 0.0
H940 H 0.80993 1.02335 0.53877 0.0
H941 H 0.96004 0.10726 0.55907 0.0
H942 H 0.78932 0.0764 0.71393 0.0
H943 H 0.71203 0.16455 0.57106 0.0
H944 H 0.92133 0.08685 0.59463 0.0
H945 H 0.95251 0.10983 0.49917 0.0
H946 H 0.76113 0.15991 0.5954 0.0
H947 H 0.80139 1.01657 0.47963 0.0
H948 H 0.92138 0.09679 0.45039 0.0
H949 H 0.87792 0.07189 0.42864 0.0
H950 H 0.75059 0.04888 0.74299 0.0
H951 H 0.8333 0.04123 0.43938 0.0
H952 H 0.6726 0.13103 0.58815 0.0
N953 N 0.76174 0.08813 0.67433 0.0
C954 C 0.73437 0.08802 0.66179 0.0
C955 C 0.74577 0.05964 0.72006 0.0
C956 C 0.71169 0.07248 0.67718 0.0
C957 C 0.76757 0.07523 0.70369 0.0
C958 C 0.71782 0.05779 0.70642 0.0
N959 N 0.75061 0.1223 0.62333 0.0
C960 C 0.74439 0.14462 0.60229 0.0
C961 C 0.69998 0.10784 0.62272 0.0
C962 C 0.72868 0.10544 0.63505 0.0
C963 C 0.6943 0.12854 0.59838 0.0
C964 C 0.71647 0.14753 0.58873 0.0
H965 H 0.70099 0.04563 0.71906 0.0
H966 H 0.66588 0.06081 0.67464 0.0
H967 H 0.65559 0.09184 0.62682 0.0
O968 O 0.77891 0.1461 0.67562 0.0
O969 O 0.7948 0.06268 0.64475 0.0
O970 O 0.80456 0.04898 0.5925 0.0
O971 O 0.82502 0.13785 0.67794 0.0
O972 O 0.79861 0.12289 0.58973 0.0
O973 O 0.81033 0.08042 0.56206 0.0
O974 O 0.85403 0.02518 0.62151 0.0
O975 O 0.86921 0.10914 0.60046 0.0
O976 O 0.82787 0.13757 0.60769 0.0
O977 O 0.8836 0.02742 0.58077 0.0
O978 O 0.87157 0.0859 0.6347 0.0
O979 O 0.83183 0.08228 0.66686 0.0
C980 C 0.78804 0.04727 0.61873 0.0
C981 C 0.80998 0.18604 0.68089 0.0
C982 C 0.81673 0.22541 0.64168 0.0
C983 C 0.82359 0.24428 0.6678 0.0
C984 C 0.81639 0.20497 0.70667 0.0
C985 C 0.82339 0.23405 0.70007 0.0
C986 C 0.8102 0.1963 0.64872 0.0
C987 C 0.79618 0.10577 0.56404 0.0
C988 C 0.80395 0.15521 0.68654 0.0
C989 C 0.68351 0.07304 0.66356 0.0
C990 C 0.67768 0.09066 0.63629 0.0
C991 C 0.85564 0.13453 0.5988 0.0
C992 C 0.87158 0.97984 0.59866 0.0
C993 C 0.89138 0.92916 0.59698 0.0
C994 C 0.86529 0.92079 0.58116 0.0
C995 C 0.84596 0.97003 0.58364 0.0
C996 C 0.89443 0.95929 0.60532 0.0
C997 C 0.84295 0.94084 0.5749 0.0
C998 C 0.85978 0.08771 0.66415 0.0
C999 C 0.87483 1.01172 0.60534 0.0
H1000 H 0.82808 0.26713 0.66353 0.0
H1001 H 0.81611 0.19725 0.7317 0.0
H1002 H 0.82836 0.24876 0.72 0.0
H1003 H 0.80485 0.18147 0.62915 0.0
H1004 H 0.86207 0.89859 0.57294 0.0
H1005 H 0.82838 0.98514 0.57816 0.0
H1006 H 0.91426 0.96677 0.61702 0.0
H1007 H 0.82319 0.93369 0.56282 0.0
Eu1008 Eu 0.98802 0.19832 0.93223 0.0
C1009 C 0.92193 0.24331 0.80471 0.0
N1010 N 0.94114 0.25507 0.82628 0.0
C1011 C 0.97117 0.27165 0.78191 0.0
C1012 C 0.92725 0.24439 0.77071 0.0
C1013 C 0.96513 0.26985 0.81537 0.0
C1014 C 0.95232 0.2586 0.75948 0.0
C1015 C 0.87635 0.21799 0.79476 0.0
C1016 C 0.89668 0.23043 0.81659 0.0
C1017 C 0.88242 0.21762 0.7611 0.0
C1018 C 0.90759 0.2311 0.74905 0.0
Eu1019 Eu 0.9296 0.24954 0.8824 0.0
N1020 N 0.89145 0.23101 0.84929 0.0
C1021 C 0.85024 0.20685 0.80733 0.0
C1022 C 0.86509 0.22215 0.86133 0.0
C1023 C 0.84433 0.2095 0.84069 0.0
H1024 H 0.97996 0.28009 0.83226 0.0
H1025 H 0.82377 0.20186 0.85054 0.0
H1026 H 0.97175 0.12773 0.92382 0.0
H1027 H 0.02909 0.25325 0.04172 0.0
H1028 H 0.85998 0.22454 0.88696 0.0
H1029 H 0.83412 0.19704 0.79139 0.0
H1030 H 1.02258 0.24534 0.98232 0.0
H1031 H 0.99042 0.28302 0.77345 0.0
H1032 H 0.86762 0.20729 0.74413 0.0
H1033 H 0.91163 0.23115 0.72293 0.0
H1034 H 0.9572 0.08599 0.95875 0.0
H1035 H 0.95718 0.25985 0.73358 0.0
H1036 H 1.0095 0.21737 0.08122 0.0
N1037 N 0.97741 0.15659 0.96394 0.0
C1038 C 0.97826 0.15972 0.99686 0.0
C1039 C 0.96292 0.10666 0.96979 0.0
C1040 C 0.9703 0.13664 0.01777 0.0
C1041 C 0.97123 0.13019 0.95013 0.0
C1042 C 0.96196 0.11004 1.00377 0.0
N1043 N 0.99857 0.20609 0.98835 0.0
C1044 C 1.01391 0.22962 0.99942 0.0
C1045 C 0.99257 0.18879 0.04357 0.0
C1046 C 0.98917 0.18539 0.00952 0.0
C1047 C 1.00645 0.2139 0.05523 0.0
C1048 C 1.01762 0.23416 0.03301 0.0
H1049 H 0.95561 0.09178 0.01897 0.0
H1050 H 0.96544 0.12325 0.06833 0.0
H1051 H 0.98507 0.16897 0.09097 0.0
O1052 O 1.02244 0.19275 0.8953 0.0
O1053 O 0.97028 0.24098 0.95633 0.0
O1054 O 0.92391 0.24076 0.93634 0.0
O1055 O 0.02843 0.17385 0.94298 0.0
O1056 O 1.00553 0.24402 0.92095 0.0
O1057 O 0.97367 0.27214 0.88937 0.0
O1058 O 0.89545 0.2813 0.87081 0.0
O1059 O 0.96314 0.22017 0.85794 0.0
O1060 O 0.96411 0.17891 0.88769 0.0
O1061 O 0.93055 0.29355 0.90321 0.0
O1062 O 0.90726 0.21068 0.90897 0.0
O1063 O 0.94175 0.17925 0.93271 0.0
C1064 C 0.94271 0.24965 0.95816 0.0
C1065 C 0.05115 0.14886 0.8983 0.0
C1066 C 0.09068 0.11208 0.88993 0.0
C1067 C 0.07234 0.09827 0.86696 0.0
C1068 C 0.03369 0.13356 0.87602 0.0
C1069 C 0.0443 0.10871 0.86038 0.0
C1070 C 0.07984 0.13799 0.90533 0.0
C1071 C 0.99881 0.26811 0.90466 0.0
C1072 C 0.0391 0.17611 0.91356 0.0
C1073 C 0.97188 0.14055 0.05181 0.0
C1074 C 0.98303 0.1666 0.0647 0.0
C1075 C 0.95965 0.19181 0.8594 0.0
C1076 C 0.8833 0.30829 0.91796 0.0
C1077 C 0.84391 0.29346 0.95472 0.0
C1078 C 0.84351 0.32168 0.96821 0.0
C1079 C 0.883 0.33621 0.93192 0.0
C1080 C 0.86402 0.28713 0.92976 0.0
C1081 C 0.8631 0.34284 0.95693 0.0
C1082 C 0.91455 0.18626 0.92478 0.0
C1083 C 0.90456 0.30009 0.89248 0.0
H1084 H 0.07971 0.07925 0.85352 0.0
H1085 H 1.01178 0.14102 0.87035 0.0
H1086 H 0.03068 0.09747 0.84282 0.0
H1087 H 0.09336 0.14942 0.92285 0.0
H1088 H 0.82827 0.3273 0.98752 0.0
H1089 H 0.89812 0.35274 0.92358 0.0
H1090 H 0.86439 0.26567 0.91885 0.0
H1091 H 0.86282 0.36447 0.96757 0.0
Eu1092 Eu 0.35307 0.99127 0.93313 0.0
C1093 C 0.31146 0.91917 0.80667 0.0
N1094 N 0.30137 0.94347 0.82182 0.0
C1095 C 0.29905 0.96844 0.77033 0.0
C1096 C 0.31688 0.91881 0.77272 0.0
C1097 C 0.294 0.96764 0.80408 0.0
C1098 C 0.31103 0.94407 0.75464 0.0
C1099 C 0.3224 0.86763 0.80977 0.0
C1100 C 0.31434 0.8941 0.82492 0.0
C1101 C 0.32982 0.86747 0.77641 0.0
C1102 C 0.32709 0.89305 0.75789 0.0
Eu1103 Eu 0.29761 0.94192 0.87964 0.0
N1104 N 0.3067 0.89513 0.85692 0.0
C1105 C 0.32143 0.84198 0.82826 0.0
C1106 C 0.30349 0.86997 0.87429 0.0
C1107 C 0.31125 0.84309 0.86045 0.0
H1108 H 0.28494 0.98661 0.81612 0.0
H1109 H 0.30926 0.82326 0.87451 0.0
H1110 H 0.42146 0.97089 0.91689 0.0
H1111 H 0.30838 0.03184 0.04861 0.0
H1112 H 0.29536 0.8707 0.89905 0.0
H1113 H 0.32728 0.82113 0.81753 0.0
H1114 H 0.31083 0.02535 0.98867 0.0
H1115 H 0.29384 0.98788 0.75647 0.0
H1116 H 0.33665 0.8475 0.76448 0.0
H1117 H 0.33195 0.89244 0.73195 0.0
H1118 H 0.46619 0.95599 0.94662 0.0
H1119 H 0.31494 0.94473 0.72851 0.0
H1120 H 0.34792 1.01234 0.08374 0.0
N1121 N 0.3969 0.97852 0.96017 0.0
C1122 C 0.39709 0.97982 0.99323 0.0
C1123 C 0.44685 0.9625 0.96006 0.0
C1124 C 0.42199 0.97152 0.0113 0.0
C1125 C 0.42155 0.97098 0.94331 0.0
C1126 C 0.44693 0.96232 0.99425 0.0
N1127 N 0.35053 1.00109 0.99005 0.0
C1128 C 0.32799 1.01638 1.00382 0.0
C1129 C 0.37282 0.99503 0.043 0.0
C1130 C 0.37299 0.99142 0.00875 0.0
C1131 C 0.34892 1.00913 0.0575 0.0
C1132 C 0.32659 1.02022 0.03775 0.0
H1133 H 0.46655 0.95579 1.00719 0.0
H1134 H 0.44028 0.96711 0.05996 0.0
H1135 H 0.3971 0.9877 0.0878 0.0
O1136 O 0.35952 1.02363 0.89403 0.0
O1137 O 0.30883 0.97768 0.95636 0.0
O1138 O 0.30025 0.93242 0.93405 0.0
O1139 O 0.37577 0.03263 0.94236 0.0
O1140 O 0.30591 1.00788 0.92779 0.0
O1141 O 0.29747 0.99163 0.87631 0.0
O1142 O 0.25543 0.92437 0.86397 0.0
O1143 O 0.332 0.97083 0.85698 0.0
O1144 O 0.37121 0.96494 0.88931 0.0
O1145 O 0.25665 0.95826 0.90024 0.0
O1146 O 0.33084 0.91408 0.90987 0.0
O1147 O 0.36696 0.94299 0.93457 0.0
C1148 C 0.29658 0.95156 0.95761 0.0
C1149 C 0.40271 0.05323 0.89827 0.0
C1150 C 0.43836 0.0932 0.88861 0.0
C1151 C 0.45598 0.0729 0.87173 0.0
C1152 C 0.42107 0.03417 0.88095 0.0
C1153 C 0.44744 0.04391 0.86798 0.0
C1154 C 0.41159 0.08292 0.90239 0.0
C1155 C 0.29021 1.00877 0.90084 0.0
C1156 C 0.37476 0.04161 0.91217 0.0
C1157 C 0.42149 0.97366 0.04558 0.0
C1158 C 0.39691 0.98538 0.06143 0.0
C1159 C 0.35944 0.96339 0.86004 0.0
C1160 C 0.22124 0.92253 0.90694 0.0
C1161 C 0.21551 0.88224 0.94535 0.0
C1162 C 0.18582 0.88956 0.94884 0.0
C1163 C 0.19181 0.93011 0.9112 0.0
C1164 C 0.23295 0.8991 0.92444 0.0
C1165 C 0.17419 0.91365 0.93219 0.0
C1166 C 0.35555 0.91722 0.92703 0.0
C1167 C 0.24042 0.93936 0.88531 0.0
H1168 H 0.47682 0.07937 0.86152 0.0
H1169 H 0.41503 1.01156 0.87745 0.0
H1170 H 0.46143 0.02881 0.85486 0.0
H1171 H 0.39759 0.0979 0.91567 0.0
H1172 H 0.17165 0.87673 0.96437 0.0
H1173 H 0.18253 0.94857 0.8983 0.0
H1174 H 0.25566 0.89351 0.92076 0.0
H1175 H 0.15138 0.91936 0.93531 0.0
Eu1176 Eu 0.61412 0.29408 0.88142 0.0
C1177 C 0.56026 0.37924 1.0005 0.0
N1178 N 0.55008 0.3556 0.98419 0.0
C1179 C 0.5283 0.33747 0.03346 0.0
C1180 C 0.55535 0.38267 0.03434 0.0
C1181 C 0.53342 0.33528 0.99981 0.0
C1182 C 0.53962 0.36109 0.0509 0.0
C1183 C 0.58237 0.42715 0.99823 0.0
C1184 C 0.57375 0.40105 0.98279 0.0
C1185 C 0.57882 0.43014 0.0322 0.0
C1186 C 0.56538 0.4079 0.05025 0.0
Eu1187 Eu 0.56164 0.35234 0.92795 0.0
N1188 N 0.57657 0.39756 0.95 0.0
C1189 C 0.59327 0.44983 0.97885 0.0
C1190 C 0.58553 0.42017 0.93073 0.0
C1191 C 0.5944 0.44649 0.94489 0.0
H1192 H 0.52435 0.31713 0.98636 0.0
H1193 H 0.60213 0.46413 0.92963 0.0
H1194 H 0.58195 0.3028 0.80851 0.0
H1195 H 0.62483 0.19676 0.95777 0.0
H1196 H 0.58641 0.41763 0.90448 0.0
H1197 H 0.60009 0.47025 0.98976 0.0
H1198 H 0.63568 0.24687 0.94011 0.0
H1199 H 0.51552 0.32103 0.04589 0.0
H1200 H 0.58562 0.44989 0.0446 0.0
H1201 H 0.56205 0.41083 0.07629 0.0
H1202 H 0.5532 0.27321 0.76936 0.0
H1203 H 0.53539 0.36289 0.07691 0.0
H1204 H 0.59122 0.1663 0.92516 0.0
N1205 N 0.58446 0.26901 0.84392 0.0
C1206 C 0.57842 0.24081 0.85165 0.0
C1207 C 0.56007 0.26391 0.79244 0.0
C1208 C 0.56237 0.22311 0.82992 0.0
C1209 C 0.57616 0.28062 0.81461 0.0
C1210 C 0.55306 0.23508 0.80017 0.0
N1211 N 0.60461 0.24676 0.9015 0.0
C1212 C 0.6191 0.23474 0.92737 0.0
C1213 C 0.58269 0.20019 0.88951 0.0
C1214 C 0.58832 0.22957 0.88138 0.0
C1215 C 0.59497 0.18876 0.91812 0.0
C1216 C 0.61378 0.20593 0.93674 0.0
H1217 H 0.54059 0.22219 0.78292 0.0
H1218 H 0.54343 0.18039 0.82235 0.0
H1219 H 0.56127 0.16032 0.87437 0.0
O1220 O 0.6585 0.27812 0.88546 0.0
O1221 O 0.56386 0.2962 0.87905 0.0
O1222 O 0.54575 0.30545 0.92903 0.0
O1223 O 0.63816 0.27789 0.8382 0.0
O1224 O 0.62034 0.29805 0.93598 0.0
O1225 O 0.57572 0.31113 0.95828 0.0
O1226 O 0.52567 0.35504 0.89206 0.0
O1227 O 0.60975 0.36463 0.93213 0.0
O1228 O 0.64005 0.33286 0.90267 0.0
O1229 O 0.52352 0.38063 0.93619 0.0
O1230 O 0.58158 0.36744 0.87771 0.0
O1231 O 0.61262 0.33432 0.85097 0.0
C1232 C 0.54694 0.28837 0.90351 0.0
C1233 C 0.6667 0.23642 0.85438 0.0
C1234 C 0.69072 0.19596 0.88225 0.0
C1235 C 0.67496 0.17598 0.86339 0.0
C1236 C 0.65076 0.21636 0.83551 0.0
C1237 C 0.65514 0.18627 0.83985 0.0
C1238 C 0.68725 0.22586 0.87672 0.0
C1239 C 0.60154 0.29769 0.96013 0.0
C1240 C 0.65953 0.26785 0.85592 0.0
C1241 C 0.55598 0.1942 0.83859 0.0
C1242 C 0.56602 0.18282 0.86831 0.0
C1243 C 0.63578 0.35585 0.92199 0.0
C1244 C 0.47775 0.37051 0.91089 0.0
C1245 C 0.42717 0.39095 0.90903 0.0
C1246 C 0.41679 0.36258 0.91524 0.0
C1247 C 0.46607 0.34285 0.91691 0.0
C1248 C 0.45814 0.39478 0.90728 0.0
C1249 C 0.43592 0.33901 0.91911 0.0
C1250 C 0.59923 0.35962 0.85308 0.0
C1251 C 0.51028 0.37396 0.90907 0.0
H1252 H 0.67772 0.15274 0.86708 0.0
H1253 H 0.63443 0.22379 0.81824 0.0
H1254 H 0.64263 0.17091 0.82548 0.0
H1255 H 0.69979 0.24117 0.89131 0.0
H1256 H 0.39358 0.35851 0.91757 0.0
H1257 H 0.48034 0.32415 0.92009 0.0
H1258 H 0.46692 0.41629 0.90267 0.0
H1259 H 0.42725 0.3175 0.92394 0.0
Eu1260 Eu 0.25766 0.60509 0.87294 0.0
C1261 C 0.17988 0.57306 1.00413 0.0
N1262 N 0.19907 0.5577 0.98565 0.0
C1263 C 0.22084 0.53775 0.03414 0.0
C1264 C 0.18093 0.57222 0.03856 0.0
C1265 C 0.21865 0.53917 1.00003 0.0
C1266 C 0.20221 0.55474 0.05352 0.0
C1267 C 0.13542 0.60164 1.0064 0.0
C1268 C 0.15764 0.58756 0.98838 0.0
C1269 C 0.1373 0.60263 0.04069 0.0
C1270 C 0.16007 0.58791 0.05678 0.0
Eu1271 Eu 0.19726 0.56485 0.9282 0.0
N1272 N 0.15638 0.58557 0.95541 0.0
C1273 C 0.11139 0.61305 0.98945 0.0
C1274 C 0.132 0.59459 0.93899 0.0
C1275 C 0.10936 0.6089 0.95566 0.0
H1276 H 0.23315 0.52604 0.98516 0.0
H1277 H 0.09048 0.61685 0.94241 0.0
H1278 H 0.2369 0.57161 0.80336 0.0
H1279 H 0.35999 0.59558 0.94232 0.0
H1280 H 0.13053 0.59163 0.91281 0.0
H1281 H 0.09383 0.62407 1.00233 0.0
H1282 H 0.31153 0.61548 0.92968 0.0
H1283 H 0.23688 0.52359 0.04543 0.0
H1284 H 0.12072 0.61374 0.05501 0.0
H1285 H 0.16072 0.58791 0.08327 0.0
H1286 H 0.25805 0.53789 0.76269 0.0
H1287 H 0.2038 0.55347 0.07992 0.0
H1288 H 0.38285 0.55948 0.90528 0.0
N1289 N 0.27411 0.57035 0.83455 0.0
C1290 C 0.30207 0.56073 0.83877 0.0
C1291 C 0.27056 0.54399 0.78407 0.0
C1292 C 0.31499 0.54148 0.81596 0.0
C1293 C 0.25857 0.56296 0.80729 0.0
C1294 C 0.29883 0.53312 0.78846 0.0
N1295 N 0.30474 0.58817 0.88824 0.0
C1296 C 0.32011 0.59833 0.91449 0.0
C1297 C 0.34601 0.55849 0.87211 0.0
C1298 C 0.31751 0.56935 0.8666 0.0
C1299 C 0.36103 0.56749 0.90012 0.0
C1300 C 0.34812 0.58769 0.92121 0.0
H1301 H 0.30799 0.51834 0.77044 0.0
H1302 H 0.35351 0.51588 0.8043 0.0
H1303 H 0.38053 0.53055 0.85349 0.0
O1304 O 0.29523 0.63044 0.85766 0.0
O1305 O 0.25083 0.55552 0.87567 0.0
O1306 O 0.24339 0.54606 0.9287 0.0
O1307 O 0.25392 0.63752 0.83368 0.0
O1308 O 0.25921 0.61839 0.92611 0.0
O1309 O 0.23901 0.58052 0.95646 0.0
O1310 O 0.19321 0.52663 0.89576 0.0
O1311 O 0.18582 0.61173 0.91516 0.0
O1312 O 0.22942 0.63613 0.90607 0.0
O1313 O 0.16542 0.53022 0.93811 0.0
O1314 O 0.1799 0.58478 0.8789 0.0
O1315 O 0.21583 0.6041 0.8446 0.0
C1316 C 0.25818 0.54087 0.90205 0.0
C1317 C 0.28656 0.67714 0.83745 0.0
C1318 C 0.29407 0.72158 0.86901 0.0
C1319 C 0.29853 0.73686 0.83949 0.0
C1320 C 0.29109 0.69259 0.80839 0.0
C1321 C 0.2972 0.72236 0.80946 0.0
C1322 C 0.28841 0.69152 0.86763 0.0
C1323 C 0.25615 0.60386 0.95369 0.0
C1324 C 0.28102 0.64579 0.83627 0.0
C1325 C 0.34336 0.53083 0.82146 0.0
C1326 C 0.35873 0.53916 0.84952 0.0
C1327 C 0.20168 0.63559 0.91629 0.0
C1328 C 0.17408 0.48197 0.91837 0.0
C1329 C 0.1508 0.43308 0.92159 0.0
C1330 C 0.17822 0.4216 0.93064 0.0
C1331 C 0.20072 0.46936 0.9277 0.0
C1332 C 0.149 0.46363 0.91506 0.0
C1333 C 0.20275 0.43947 0.93358 0.0
C1334 C 0.18874 0.5968 0.85079 0.0
C1335 C 0.17251 0.51423 0.91296 0.0
H1336 H 0.30209 0.76019 0.83935 0.0
H1337 H 0.28998 0.68161 0.78494 0.0
H1338 H 0.30052 0.73434 0.78696 0.0
H1339 H 0.28535 0.67916 0.88995 0.0
H1340 H 0.18084 0.39848 0.93533 0.0
H1341 H 0.22006 0.48272 0.93054 0.0
H1342 H 0.12821 0.47316 0.90815 0.0
H1343 H 0.22353 0.43003 0.94062 0.0
H1344 H 0.65291 0.16507 0.34966 0.0
H1345 H 0.56823 0.16476 0.30407 0.0
H1346 H 0.67374 0.1397 0.30247 0.0
H1347 H 0.58884 0.13887 0.25655 0.0
H1348 H 0.64409 0.12387 0.16083 0.0
H1349 H 0.61989 0.14493 0.20908 0.0
H1350 H 0.67785 0.0959 0.27173 0.0
H1351 H 0.70132 0.07471 0.22367 0.0
C1352 C 0.63847 0.15864 0.32996 0.0
C1353 C 0.60861 0.16614 0.33139 0.0
C1354 C 0.65048 0.14411 0.30259 0.0
C1355 C 0.63322 0.13685 0.27512 0.0
C1356 C 0.60313 0.14406 0.27681 0.0
C1357 C 0.59107 0.15849 0.30443 0.0
C1358 C 0.65149 0.11738 0.18492 0.0
C1359 C 0.67534 0.09801 0.18808 0.0
C1360 C 0.63752 0.12949 0.21281 0.0
C1361 C 0.64689 0.12266 0.24492 0.0
C1362 C 0.67019 0.10254 0.24782 0.0
C1363 C 0.68392 0.09038 0.22004 0.0
H1364 H 0.4671 0.69255 0.22593 0.0
H1365 H 0.41954 0.63349 0.1638 0.0
H1366 H 0.44867 0.66779 0.27416 0.0
H1367 H 0.40016 0.60864 0.21278 0.0
H1368 H 0.38069 0.56302 0.31482 0.0
H1369 H 0.40726 0.57926 0.26542 0.0
H1370 H 0.40169 0.66823 0.29955 0.0
H1371 H 0.37584 0.65218 0.34798 0.0
C1372 C 0.45311 0.67378 0.22252 0.0
C1373 C 0.445 0.66504 0.19079 0.0
C1374 C 0.44219 0.65967 0.25038 0.0
C1375 C 0.42226 0.63643 0.2478 0.0
C1376 C 0.41546 0.62637 0.21597 0.0
C1377 C 0.42669 0.64052 0.18779 0.0
C1378 C 0.38577 0.58593 0.31197 0.0
C1379 C 0.37626 0.60621 0.3357 0.0
C1380 C 0.40069 0.59534 0.28342 0.0
C1381 C 0.40695 0.62519 0.2782 0.0
C1382 C 0.39793 0.64508 0.30252 0.0
C1383 C 0.38288 0.63582 0.3305 0.0
H1384 H 0.92989 0.4057 0.36217 0.0
H1385 H 0.96763 0.33997 0.29975 0.0
H1386 H 0.90814 0.42953 0.31396 0.0
H1387 H 0.94508 0.36267 0.25211 0.0
H1388 H 0.86925 0.38879 0.18254 0.0
H1389 H 0.89565 0.36909 0.22943 0.0
H1390 H 0.91761 0.45638 0.25994 0.0
H1391 H 0.89114 0.47619 0.21214 0.0
C1392 C 0.93366 0.39626 0.33824 0.0
C1393 C 0.94999 0.37017 0.33529 0.0
C1394 C 0.92115 0.41 0.31044 0.0
C1395 C 0.92431 0.398 0.27873 0.0
C1396 C 0.94143 0.37246 0.27589 0.0
C1397 C 0.95425 0.35912 0.30346 0.0
C1398 C 0.88019 0.40388 0.19882 0.0
C1399 C 0.87834 0.43416 0.19296 0.0
C1400 C 0.89541 0.39251 0.22593 0.0
C1401 C 0.90902 0.41093 0.24893 0.0
C1402 C 0.9074 0.44135 0.24305 0.0
C1403 C 0.89253 0.45278 0.21532 0.0
H1404 H 0.20822 0.93456 0.2905 0.0
H1405 H 0.13136 0.92757 0.35101 0.0
H1406 H 0.1819 0.91425 0.24452 0.0
H1407 H 0.10431 0.90737 0.30398 0.0
H1408 H 0.07684 0.84109 0.22102 0.0
H1409 H 0.09945 0.86456 0.26854 0.0
H1410 H 0.14601 0.9225 0.2039 0.0
H1411 H 0.12383 0.8985 0.15661 0.0
C1412 C 0.18543 0.92904 0.29403 0.0
C1413 C 0.17211 0.93303 0.32492 0.0
C1414 C 0.17013 0.91743 0.26723 0.0
C1415 C 0.14064 0.90906 0.26985 0.0
C1416 C 0.127 0.9133 0.30068 0.0
C1417 C 0.14242 0.92527 0.32772 0.0
C1418 C 0.09193 0.85885 0.21696 0.0
C1419 C 0.0987 0.8675 0.18473 0.0
C1420 C 0.10475 0.87261 0.24438 0.0
C1421 C 0.12497 0.89556 0.24063 0.0
C1422 C 0.13105 0.90468 0.20826 0.0
C1423 C 0.11806 0.89104 0.1809 0.0
H1424 H 0.39197 0.91276 0.85866 0.0
H1425 H 0.36256 0.9826 0.79659 0.0
H1426 H 0.41507 0.88899 0.81197 0.0
H1427 H 0.38737 0.96042 0.75003 0.0
H1428 H 0.41809 0.90637 0.66254 0.0
H1429 H 0.3931 0.929 0.70882 0.0
H1430 H 0.45005 0.88218 0.77511 0.0
H1431 H 0.47312 0.85823 0.72879 0.0
C1432 C 0.391 0.9234 0.83504 0.0
C1433 C 0.37548 0.94976 0.83161 0.0
C1434 C 0.40452 0.90979 0.80787 0.0
C1435 C 0.40385 0.92242 0.77618 0.0
C1436 C 0.38846 0.94917 0.77321 0.0
C1437 C 0.37431 0.96231 0.80024 0.0
C1438 C 0.42533 0.90106 0.68705 0.0
C1439 C 0.4479 0.88048 0.69162 0.0
C1440 C 0.41098 0.91425 0.71402 0.0
C1441 C 0.41907 0.90798 0.74679 0.0
C1442 C 0.44212 0.88761 0.75098 0.0
C1443 C 0.45588 0.87394 0.72408 0.0
H1444 H 0.65425 0.37493 0.83698 0.0
H1445 H 0.56509 0.39101 0.8084 0.0
H1446 H 0.67163 0.40234 0.78999 0.0
H1447 H 0.58258 0.41897 0.76058 0.0
H1448 H 0.63124 0.43608 0.65804 0.0
H1449 H 0.60865 0.41323 0.70637 0.0
H1450 H 0.67583 0.45023 0.76743 0.0
H1451 H 0.698 0.47271 0.7198 0.0
C1452 C 0.63824 0.38493 0.82094 0.0
C1453 C 0.60821 0.38108 0.82706 0.0
C1454 C 0.64827 0.40076 0.79375 0.0
C1455 C 0.62872 0.41324 0.77102 0.0
C1456 C 0.59847 0.4097 0.77723 0.0
C1457 C 0.58836 0.39401 0.80498 0.0
C1458 C 0.64097 0.43961 0.68185 0.0
C1459 C 0.66684 0.45612 0.68461 0.0
C1460 C 0.62794 0.42649 0.70972 0.0
C1461 C 0.64045 0.42934 0.74122 0.0
C1462 C 0.66568 0.44675 0.74384 0.0
C1463 C 0.6785 0.45984 0.71625 0.0
H1464 H 0.12089 0.64558 0.65787 0.0
H1465 H 0.07383 0.70315 0.72248 0.0
H1466 H 0.14341 0.62157 0.70493 0.0
H1467 H 0.09571 0.67901 0.76975 0.0
H1468 H 0.16286 0.65032 0.84781 0.0
H1469 H 0.13681 0.67247 0.80195 0.0
H1470 H 0.14119 0.59055 0.7498 0.0
H1471 H 0.1684 0.56906 0.79551 0.0
C1472 C 0.11503 0.65296 0.68219 0.0
C1473 C 0.09565 0.67668 0.6861 0.0
C1474 C 0.12795 0.63902 0.70949 0.0
C1475 C 0.1218 0.64803 0.74191 0.0
C1476 C 0.1018 0.67142 0.74562 0.0
C1477 C 0.08903 0.6854 0.71831 0.0
C1478 C 0.15749 0.63681 0.82691 0.0
C1479 C 0.16697 0.60755 0.82598 0.0
C1480 C 0.14251 0.64959 0.80028 0.0
C1481 C 0.13647 0.63364 0.77143 0.0
C1482 C 0.14549 0.60404 0.77097 0.0
C1483 C 0.16069 0.59135 0.79759 0.0
H1484 H 0.84121 0.09469 0.72793 0.0
H1485 H 0.91566 0.1116 0.66636 0.0
H1486 H 0.86509 0.11913 0.7733 0.0
H1487 H 0.94052 0.13491 0.71239 0.0
H1488 H 0.92062 0.14613 0.86046 0.0
H1489 H 0.89847 0.12017 0.81468 0.0
H1490 H 0.9469 0.17394 0.7471 0.0
H1491 H 0.96982 0.19886 0.79327 0.0
C1492 C 0.86296 0.10323 0.72407 0.0
C1493 C 0.87623 0.10089 0.69297 0.0
C1494 C 0.87697 0.11727 0.75052 0.0
C1495 C 0.90525 0.12934 0.74744 0.0
C1496 C 0.91873 0.12656 0.71634 0.0
C1497 C 0.90451 0.11273 0.6897 0.0
C1498 C 0.92672 0.15228 0.83581 0.0
C1499 C 0.94682 0.17506 0.83084 0.0
C1500 C 0.91364 0.13752 0.80919 0.0
C1501 C 0.92019 0.14474 0.77629 0.0
C1502 C 0.94104 0.1671 0.77154 0.0
C1503 C 0.9541 0.18183 0.79823 0.0
H1504 H 0.38143 0.14899 0.3726 0.0
H1505 H 0.4272 0.1049 0.45029 0.0
H1506 H 0.34376 0.1117 0.37323 0.0
H1507 H 0.38881 0.06791 0.45214 0.0
H1508 H 0.32569 0.99258 0.43411 0.0
H1509 H 0.36482 0.02809 0.43148 0.0
H1510 H 0.30308 0.09332 0.3986 0.0
H1511 H 0.26432 0.05683 0.39908 0.0
C1512 C 0.38348 0.13122 0.38992 0.0
C1513 C 0.40759 0.13015 0.41138 0.0
C1514 C 0.3615 0.1098 0.39059 0.0
C1515 C 0.36238 0.08648 0.4131 0.0
C1516 C 0.387 0.08504 0.43408 0.0
C1517 C 0.40927 0.10638 0.43308 0.0
C1518 C 0.32042 1.0144 0.42593 0.0
C1519 C 0.29165 1.02141 0.41627 0.0
C1520 C 0.34304 0.03515 0.42483 0.0
C1521 C 0.3378 0.06411 0.41464 0.0
C1522 C 0.30868 0.07132 0.40589 0.0
C1523 C 0.28609 0.05037 0.40659 0.0
H1524 H 0.38908 0.3751 0.38117 0.0
H1525 H 0.44734 0.42487 0.44216 0.0
H1526 H 0.42473 0.33577 0.37815 0.0
H1527 H 0.48384 0.38555 0.43834 0.0
H1528 H 0.528 0.29554 0.45674 0.0
H1529 H 0.49451 0.33721 0.45725 0.0
H1530 H 0.46927 0.31734 0.35799 0.0
H1531 H 0.50252 0.27534 0.35805 0.0
C1532 C 0.40969 0.37787 0.39377 0.0
C1533 C 0.41489 0.40341 0.41223 0.0
C1534 C 0.43046 0.35517 0.39178 0.0
C1535 C 0.45751 0.35686 0.40816 0.0
C1536 C 0.46322 0.38287 0.42575 0.0
C1537 C 0.44235 0.40577 0.42763 0.0
C1538 C 0.51531 0.30007 0.43501 0.0
C1539 C 0.51851 0.28222 0.40716 0.0
C1540 C 0.49616 0.3243 0.43515 0.0
C1541 C 0.47894 0.33132 0.40759 0.0
C1542 C 0.48174 0.31292 0.37992 0.0
C1543 C 0.50112 0.28883 0.37976 0.0
H1544 H 0.13113 0.43268 0.44728 0.0
H1545 H 0.12694 0.46022 0.34658 0.0
H1546 H 0.17945 0.45531 0.45228 0.0
H1547 H 0.17397 0.48381 0.35181 0.0
H1548 H 0.26847 0.51056 0.35962 0.0
H1549 H 0.22429 0.48096 0.35567 0.0
H1550 H 0.20466 0.49981 0.45689 0.0
H1551 H 0.2496 0.52823 0.46074 0.0
C1552 C 0.14053 0.44326 0.42609 0.0
C1553 C 0.12462 0.44463 0.39661 0.0
C1554 C 0.16824 0.45672 0.42904 0.0
C1555 C 0.18112 0.47191 0.40256 0.0
C1556 C 0.1655 0.47228 0.37285 0.0
C1557 C 0.13803 0.45887 0.36992 0.0
C1558 C 0.25469 0.50835 0.38101 0.0
C1559 C 0.26222 0.52265 0.41023 0.0
C1560 C 0.22911 0.49136 0.3788 0.0
C1561 C 0.21001 0.48806 0.40578 0.0
C1562 C 0.21843 0.50142 0.43545 0.0
C1563 C 0.24422 0.51809 0.43767 0.0
H1564 H 0.15982 0.17017 0.403 0.0
H1565 H 0.0896 0.1096 0.42092 0.0
H1566 H 0.12494 0.21011 0.39996 0.0
H1567 H 0.05418 0.15012 0.41588 0.0
H1568 H 1.00452 0.23615 0.37039 0.0
H1569 H 0.03638 0.19275 0.37146 0.0
H1570 H 0.08988 0.23354 0.44498 0.0
H1571 H 0.05766 0.27627 0.44485 0.0
C1572 C 0.13691 0.16514 0.40633 0.0
C1573 C 0.12801 0.13625 0.41324 0.0
C1574 C 0.11679 0.1883 0.40435 0.0
C1575 C 0.08665 0.18366 0.40816 0.0
C1576 C 0.07724 0.15462 0.41293 0.0
C1577 C 0.09762 0.13128 0.41565 0.0
C1578 C 1.02305 0.2359 0.38684 0.0
C1579 C 0.0284 0.26006 0.40745 0.0
C1580 C 0.04123 0.21083 0.3876 0.0
C1581 C 0.06584 0.20945 0.40832 0.0
C1582 C 0.07126 0.23371 0.42864 0.0
C1583 C 0.05271 0.25834 0.42853 0.0
H1584 H 0.92245 0.94122 0.07086 0.0
H1585 H 0.91609 0.93958 0.17589 0.0
H1586 H 0.87548 0.96717 0.06795 0.0
H1587 H 0.86904 0.96437 0.17331 0.0
H1588 H 0.80205 0.0376 0.16436 0.0
H1589 H 0.84707 1.00914 0.16551 0.0
H1590 H 0.82445 0.97014 0.07277 0.0
H1591 H 0.77983 0.99955 0.07125 0.0
C1592 C 0.91065 0.94565 0.09331 0.0
C1593 C 0.92322 0.93808 0.12359 0.0
C1594 C 0.88358 0.96073 0.09174 0.0
C1595 C 0.86805 0.96867 0.12044 0.0
C1596 C 0.88021 0.95973 0.15055 0.0
C1597 C 0.90723 0.94498 0.15207 0.0
C1598 C 0.8065 1.02286 0.14425 0.0
C1599 C 0.78684 1.02098 0.11784 0.0
C1600 C 0.83251 1.0062 0.14494 0.0
C1601 C 0.83993 0.98669 0.11936 0.0
C1602 C 0.82015 0.98488 0.0929 0.0
C1603 C 0.79421 1.00172 0.09213 0.0
H1604 H 0.55459 0.7703 0.13316 0.0
H1605 H 0.49421 0.81931 0.07355 0.0
H1606 H 0.5858 0.8136 0.13793 0.0
H1607 H 0.52546 0.86224 0.0778 0.0
H1608 H 0.60534 0.90992 0.17462 0.0
H1609 H 0.58086 0.86326 0.1654 0.0
H1610 H 0.5753 0.88245 0.06233 0.0
H1611 H 0.60018 0.9292 0.07164 0.0
C1612 C 0.54829 0.79007 0.12047 0.0
C1613 C 0.52185 0.79123 0.10295 0.0
C1614 C 0.56606 0.81502 0.12342 0.0
C1615 C 0.55828 0.84158 0.10821 0.0
C1616 C 0.53243 0.84223 0.08956 0.0
C1617 C 0.51443 0.81755 0.08719 0.0
C1618 C 0.59941 0.90395 0.14987 0.0
C1619 C 0.60492 0.92335 0.12385 0.0
C1620 C 0.58541 0.8771 0.14456 0.0
C1621 C 0.57596 0.86893 0.11312 0.0
C1622 C 0.5821 0.88801 0.08691 0.0
C1623 C 0.59663 0.91471 0.09216 0.0
H1624 H 0.66948 0.65272 0.14107 0.0
H1625 H 0.62081 0.59342 0.08034 0.0
H1626 H 0.70964 0.61791 0.14409 0.0
H1627 H 0.66111 0.55784 0.08385 0.0
H1628 H 0.75295 0.51654 0.06482 0.0
H1629 H 0.71038 0.5491 0.06438 0.0
H1630 H 0.72844 0.57331 0.16439 0.0
H1631 H 0.77118 0.541 0.16437 0.0
C1632 C 0.6671 0.63196 0.12871 0.0
C1633 C 0.64162 0.62616 0.11038 0.0
C1634 C 0.69029 0.61175 0.13057 0.0
C1635 C 0.68921 0.58476 0.11405 0.0
C1636 C 0.66326 0.57844 0.09657 0.0
C1637 C 0.63982 0.59873 0.0949 0.0
C1638 C 0.74791 0.52895 0.08667 0.0
C1639 C 0.76545 0.52576 0.11477 0.0
C1640 C 0.72316 0.54748 0.08658 0.0
C1641 C 0.71534 0.56405 0.11442 0.0
C1642 C 0.73348 0.56131 0.14227 0.0
C1643 C 0.75803 0.54253 0.14242 0.0
H1644 H 0.99512 0.77521 0.08015 0.0
H1645 H 0.05231 0.72705 0.14441 0.0
H1646 H 0.96052 0.73477 0.08055 0.0
H1647 H 1.0177 0.68603 0.14417 0.0
H1648 H 0.95704 0.6087 0.09957 0.0
H1649 H 0.99444 0.64705 0.10383 0.0
H1650 H 0.92707 0.71085 0.12241 0.0
H1651 H 0.89022 0.67298 0.11972 0.0
C1652 C 1.00042 0.75599 0.0944 0.0
C1653 C 0.02663 0.75477 0.11245 0.0
C1654 C 0.98043 0.73269 0.09467 0.0
C1655 C 0.98607 0.7069 0.11243 0.0
C1656 C 1.01253 0.70537 0.13009 0.0
C1657 C 0.03232 0.72906 0.13042 0.0
C1658 C 0.95018 0.63077 0.10519 0.0
C1659 C 0.92013 0.6374 0.1085 0.0
C1660 C 0.97172 0.65289 0.10749 0.0
C1661 C 0.96389 0.68238 0.11282 0.0
C1662 C 0.93407 0.68867 0.11748 0.0
C1663 C 0.91277 0.6667 0.11576 0.0
H1664 H 0.76287 1.01808 0.67059 0.0
H1665 H 0.75383 0.03021 0.5667 0.0
H1666 H 0.72013 0.98624 0.67073 0.0
H1667 H 0.71152 0.9976 0.5664 0.0
H1668 H 0.62165 0.95284 0.57877 0.0
H1669 H 0.66069 0.98958 0.58112 0.0
H1670 H 0.70467 0.93888 0.65524 0.0
H1671 H 0.66579 0.90285 0.65312 0.0
C1672 C 0.75162 1.01419 0.64775 0.0
C1673 C 0.76186 0.0272 0.61876 0.0
C1674 C 0.72713 0.99549 0.64769 0.0
C1675 C 0.71186 0.98893 0.61854 0.0
C1676 C 0.7221 1.00214 0.58951 0.0
C1677 C 0.74672 1.02073 0.58961 0.0
C1678 C 0.63936 0.94986 0.59602 0.0
C1679 C 0.64027 0.92464 0.61574 0.0
C1680 C 0.6621 0.97081 0.59711 0.0
C1681 C 0.6864 0.96751 0.61828 0.0
C1682 C 0.68655 0.94277 0.63878 0.0
C1683 C 0.66411 0.92183 0.63745 0.0
H1684 H 0.6575 0.67738 0.64065 0.0
H1685 H 0.59798 0.6262 0.58266 0.0
H1686 H 0.62178 0.71651 0.64386 0.0
H1687 H 0.56131 0.66526 0.58696 0.0
H1688 H 0.54542 0.77699 0.66552 0.0
H1689 H 0.57806 0.73463 0.66539 0.0
H1690 H 0.54936 0.713 0.56774 0.0
H1691 H 0.51605 0.75488 0.56866 0.0
C1692 C 0.63662 0.67428 0.62872 0.0
C1693 C 0.63106 0.64843 0.61101 0.0
C1694 C 0.61579 0.69684 0.63089 0.0
C1695 C 0.5883 0.6946 0.61556 0.0
C1696 C 0.58227 0.66831 0.59872 0.0
C1697 C 0.60323 0.64558 0.59658 0.0
C1698 C 0.54583 0.76296 0.64421 0.0
C1699 C 0.52776 0.76925 0.61731 0.0
C1700 C 0.56489 0.7387 0.64388 0.0
C1701 C 0.56673 0.7199 0.6165 0.0
C1702 C 0.54853 0.72636 0.58956 0.0
C1703 C 0.52955 0.75069 0.5899 0.0
H1704 H 0.91466 0.61293 0.57179 0.0
H1705 H 0.92132 0.58591 0.67252 0.0
H1706 H 0.86589 0.591 0.56871 0.0
H1707 H 0.87392 0.56284 0.66909 0.0
H1708 H 0.77816 0.53937 0.66498 0.0
H1709 H 0.82367 0.56693 0.66722 0.0
H1710 H 0.83967 0.5469 0.56548 0.0
H1711 H 0.79355 0.52024 0.56336 0.0
C1712 C 0.90575 0.60258 0.59338 0.0
C1713 C 0.92246 0.60116 0.62229 0.0
C1714 C 0.87778 0.58951 0.59153 0.0
C1715 C 0.86546 0.57467 0.61858 0.0
C1716 C 0.88194 0.57416 0.64769 0.0
C1717 C 0.90963 0.58723 0.64954 0.0
C1718 C 0.79144 0.54082 0.64312 0.0
C1719 C 0.78232 0.527 0.61419 0.0
C1720 C 0.81779 0.55665 0.64433 0.0
C1721 C 0.83613 0.5592 0.61662 0.0
C1722 C 0.82643 0.54594 0.58739 0.0
C1723 C 0.79992 0.53034 0.58617 0.0
H1724 H 0.95254 0.93356 0.59771 0.0
H1725 H 0.88341 0.87099 0.61232 0.0
H1726 H 0.98875 0.89394 0.60308 0.0
H1727 H 0.9192 0.83192 0.61557 0.0
H1728 H 0.98967 0.76761 0.57389 0.0
H1729 H 0.95587 0.80909 0.57287 0.0
H1730 H 1.00699 0.85247 0.64667 0.0
H1731 H 0.04045 0.81037 0.64859 0.0
C1732 C 0.94488 0.91162 0.60223 0.0
C1733 C 0.91456 0.90591 0.6037 0.0
C1734 C 0.96575 0.88878 0.60515 0.0
C1735 C 0.95698 0.85947 0.60913 0.0
C1736 C 0.92688 0.85399 0.61178 0.0
C1737 C 0.90622 0.87667 0.60962 0.0
C1738 C 0.99376 0.78585 0.59008 0.0
C1739 C 1.0179 0.78526 0.61147 0.0
C1740 C 0.97428 0.80975 0.58948 0.0
C1741 C 0.97858 0.83436 0.60962 0.0
C1742 C 1.00299 0.83408 0.63066 0.0
C1743 C 1.0221 0.80976 0.6319 0.0
H1744 H 0.14434 0.13905 0.90296 0.0
H1745 H 0.1056 0.05382 0.89247 0.0
H1746 H 0.19297 0.11595 0.90676 0.0
H1747 H 0.15368 0.0314 0.89457 0.0
H1748 H 0.24528 1.00565 0.85601 0.0
H1749 H 0.19849 0.0315 0.85619 0.0
H1750 H 0.2241 0.07831 0.94294 0.0
H1751 H 0.27086 0.05172 0.94341 0.0
C1752 C 0.14595 0.11551 0.90172 0.0
C1753 C 0.12058 0.09863 0.89659 0.0
C1754 C 0.17396 0.10222 0.90371 0.0
C1755 C 0.17751 0.07172 0.90023 0.0
C1756 C 0.1521 0.05492 0.89652 0.0
C1757 C 0.12431 0.068 0.89517 0.0
C1758 C 0.24117 1.02149 0.87513 0.0
C1759 C 0.26216 0.02631 0.89976 0.0
C1760 C 0.21413 0.03632 0.87529 0.0
C1761 C 0.20724 0.05709 0.89962 0.0
C1762 C 0.22854 0.06265 0.92371 0.0
C1763 C 0.25541 0.04727 0.924 0.0
H1764 H 0.43847 0.13111 0.94204 0.0
H1765 H 0.46328 0.12657 0.84043 0.0
H1766 H 0.4617 0.1792 0.94622 0.0
H1767 H 0.48728 0.17348 0.84475 0.0
H1768 H 0.51365 0.2684 0.852 0.0
H1769 H 0.4842 0.22403 0.84897 0.0
H1770 H 0.50732 0.20357 0.94879 0.0
H1771 H 0.53587 0.24849 0.95173 0.0
C1772 C 0.44853 0.14041 0.92047 0.0
C1773 C 0.44896 0.1245 0.89095 0.0
C1774 C 0.46232 0.16797 0.92294 0.0
C1775 C 0.47686 0.18071 0.8959 0.0
C1776 C 0.47628 0.16509 0.86619 0.0
C1777 C 0.4626 0.13774 0.86377 0.0
C1778 C 0.51233 0.25444 0.87331 0.0
C1779 C 0.52763 0.26187 0.90192 0.0
C1780 C 0.49546 0.22876 0.87162 0.0
C1781 C 0.49327 0.20947 0.89853 0.0
C1782 C 0.50793 0.21759 0.92752 0.0
C1783 C 0.52457 0.24342 0.92922 0.0
H1784 H 0.42707 0.44793 0.93363 0.0
H1785 H 0.37559 0.38958 0.87461 0.0
H1786 H 0.38753 0.48433 0.93119 0.0
H1787 H 0.33606 0.42494 0.87318 0.0
H1788 H 0.29842 0.53061 0.9507 0.0
H1789 H 0.34 0.49678 0.95079 0.0
H1790 H 0.3165 0.4683 0.85363 0.0
H1791 H 0.27463 0.50157 0.85423 0.0
C1792 C 0.40754 0.44287 0.91985 0.0
C1793 C 0.40483 0.4154 0.90457 0.0
C1794 C 0.38449 0.46369 0.9188 0.0
C1795 C 0.35792 0.45793 0.90222 0.0
C1796 C 0.35585 0.43082 0.88603 0.0
C1797 C 0.37871 0.41016 0.88713 0.0
C1798 C 0.30202 0.51692 0.92945 0.0
C1799 C 0.28313 0.51914 0.90233 0.0
C1800 C 0.32624 0.49764 0.92929 0.0
C1801 C 0.33228 0.47941 0.90217 0.0
C1802 C 0.31287 0.48138 0.8753 0.0
C1803 C 0.28878 0.50077 0.87544 0.0
H1804 H 0.13462 0.39167 0.96628 0.0
H1805 H 0.1086 0.4266 0.87289 0.0
H1806 H 0.09802 0.35367 0.96163 0.0
H1807 H 0.07187 0.38785 0.8677 0.0
H1808 H 0.99308 0.32428 0.87976 0.0
H1809 H 0.02717 0.36512 0.88392 0.0
H1810 H 0.08818 0.30974 0.93539 0.0
H1811 H 0.054 0.2694 0.93194 0.0
C1812 C 0.121 0.3913 0.94462 0.0
C1813 C 0.12501 0.41237 0.91988 0.0
C1814 C 0.09997 0.36913 0.94177 0.0
C1815 C 0.08195 0.36677 0.91391 0.0
C1816 C 0.08505 0.38861 0.88965 0.0
C1817 C 0.10618 0.41105 0.89262 0.0
C1818 C 1.0138 0.32071 0.89192 0.0
C1819 C 1.0204 0.29314 0.90558 0.0
C1820 C 0.03357 0.34431 0.89422 0.0
C1821 C 0.06074 0.34135 0.91033 0.0
C1822 C 0.06742 0.31358 0.92345 0.0
C1823 C 0.04771 0.29008 0.9212 0.0
H1824 H 0.7091 0.25516 0.43427 0.0
H1825 H 0.76784 0.32435 0.4066 0.0
H1826 H 0.74307 0.23938 0.47615 0.0
H1827 H 0.8022 0.30817 0.44717 0.0
H1828 H 0.87373 0.26655 0.48478 0.0
H1829 H 0.82766 0.29142 0.48976 0.0
H1830 H 0.78354 0.21119 0.4643 0.0
H1831 H 0.82987 0.1856 0.46431 0.0
C1832 C 0.72903 0.26735 0.43737 0.0
C1833 C 0.73694 0.28949 0.41527 0.0
C1834 C 0.7486 0.25821 0.46144 0.0
C1835 C 0.77643 0.27088 0.46337 0.0
C1836 C 0.78159 0.29679 0.44575 0.0
C1837 C 0.76198 0.30597 0.42186 0.0
C1838 C 0.85415 0.25375 0.48283 0.0
C1839 C 0.85552 0.22413 0.47424 0.0
C1840 C 0.82755 0.26823 0.48469 0.0
C1841 C 0.80173 0.2538 0.47597 0.0
C1842 C 0.80275 0.22327 0.47141 0.0
C1843 C 0.82948 0.20846 0.47105 0.0
H1844 H 0.16081 0.70869 0.29607 0.0
H1845 H 0.15834 0.67545 0.39461 0.0
H1846 H 0.14799 0.7565 0.31565 0.0
H1847 H 0.14379 0.72349 0.41458 0.0
H1848 H 0.22679 0.78367 0.41555 0.0
H1849 H 0.18524 0.75185 0.41908 0.0
H1850 H 0.14218 0.8008 0.34239 0.0
H1851 H 0.18491 0.83254 0.33868 0.0
C1852 C 0.15566 0.71123 0.32179 0.0
C1853 C 0.16227 0.68899 0.3441 0.0
C1854 C 0.14809 0.73891 0.33329 0.0
C1855 C 0.1476 0.74451 0.36725 0.0
C1856 C 0.14613 0.72032 0.38845 0.0
C1857 C 0.15439 0.69272 0.37706 0.0
C1858 C 0.20796 0.78824 0.40031 0.0
C1859 C 0.20954 0.8092 0.37554 0.0
C1860 C 0.18369 0.77014 0.40246 0.0
C1861 C 0.16112 0.77223 0.37905 0.0
C1862 C 0.15999 0.7975 0.35942 0.0
C1863 C 0.18442 0.81571 0.35726 0.0
H1864 H 0.35815 0.82 0.06349 0.0
H1865 H 0.29463 0.85935 0.12801 0.0
H1866 H 0.31883 0.80252 0.02823 0.0
H1867 H 0.25552 0.84213 0.09301 0.0
H1868 H 0.18741 0.7968 0.04602 0.0
H1869 H 0.22667 0.83193 0.04486 0.0
H1870 H 0.28959 0.76148 0.04672 0.0
H1871 H 0.25034 0.72623 0.04718 0.0
C1872 C 0.33582 0.82612 0.0692 0.0
C1873 C 0.32921 0.84015 0.09892 0.0
C1874 C 0.31336 0.816 0.04913 0.0
C1875 C 0.2841 0.81994 0.05853 0.0
C1876 C 0.27782 0.83841 0.0852 0.0
C1877 C 0.30027 0.84842 0.10534 0.0
C1878 C 0.20951 0.7886 0.04493 0.0
C1879 C 0.21551 0.75848 0.04757 0.0
C1880 C 0.23208 0.80891 0.04444 0.0
C1881 C 0.26121 0.79961 0.04677 0.0
C1882 C 0.26735 0.76951 0.04498 0.0
C1883 C 0.24471 0.74913 0.04534 0.0
H1884 H 0.72483 0.27649 0.10448 0.0
H1885 H 0.79758 0.33427 0.08732 0.0
H1886 H 0.74601 0.2413 0.06773 0.0
H1887 H 0.81788 0.29985 0.04838 0.0
H1888 H 0.86929 0.21402 0.073 0.0
H1889 H 0.8436 0.25982 0.06821 0.0
H1890 H 0.76852 0.21495 0.02853 0.0
H1891 H 0.79367 0.16919 0.0361 0.0
C1892 C 0.745 0.28206 0.09214 0.0
C1893 C 0.76071 0.30709 0.10091 0.0
C1894 C 0.75706 0.26199 0.07035 0.0
C1895 C 0.78497 0.26683 0.05685 0.0
C1896 C 0.79733 0.29468 0.06011 0.0
C1897 C 0.78552 0.31455 0.08239 0.0
C1898 C 0.84788 0.2141 0.06171 0.0
C1899 C 0.83334 0.1879 0.05525 0.0
C1900 C 0.83304 0.24059 0.05858 0.0
C1901 C 0.80365 0.24137 0.04815 0.0
C1902 C 0.79084 0.21536 0.03726 0.0
C1903 C 0.80548 0.18896 0.04098 0.0
H1904 H 0.21645 0.8642 0.55752 0.0
H1905 H 0.18339 0.7772 0.54213 0.0
H1906 H 0.26458 0.84408 0.56778 0.0
H1907 H 0.23201 0.75727 0.55015 0.0
H1908 H 0.27824 0.75446 0.65563 0.0
H1909 H 0.24577 0.76055 0.60938 0.0
H1910 H 0.31044 0.81227 0.55964 0.0
H1911 H 0.34331 0.80609 0.6056 0.0
C1912 C 0.21983 0.84101 0.55393 0.0
C1913 C 0.196 0.82221 0.54987 0.0
C1914 C 0.24763 0.82945 0.55944 0.0
C1915 C 0.25192 0.79907 0.56021 0.0
C1916 C 0.22918 0.78076 0.55004 0.0
C1917 C 0.20129 0.79223 0.54529 0.0
C1918 C 0.28588 0.76683 0.63477 0.0
C1919 C 0.31265 0.78169 0.63564 0.0
C1920 C 0.26746 0.76967 0.60786 0.0
C1921 C 0.27538 0.78732 0.58125 0.0
C1922 C 0.30363 0.7989 0.5801 0.0
C1923 C 0.32228 0.79569 0.60687 0.0
H1924 H 0.77786 0.20749 0.59435 0.0
H1925 H 0.8494 0.26707 0.60995 0.0
H1926 H 0.76427 0.23322 0.54583 0.0
H1927 H 0.83403 0.29468 0.56268 0.0
H1928 H 0.70954 0.29504 0.58283 0.0
H1929 H 0.73362 0.26989 0.53801 0.0
H1930 H 0.80521 0.32931 0.54274 0.0
H1931 H 0.7835 0.35318 0.58919 0.0
C1932 C 0.79109 0.22589 0.58735 0.0
C1933 C 0.8134 0.23656 0.60775 0.0
C1934 C 0.78299 0.24106 0.55931 0.0
C1935 C 0.7948 0.26888 0.55341 0.0
C1936 C 0.82176 0.27531 0.56872 0.0
C1937 C 0.83054 0.25969 0.59632 0.0
C1938 C 0.73062 0.30278 0.5747 0.0
C1939 C 0.74569 0.32455 0.59204 0.0
C1940 C 0.74444 0.28859 0.54862 0.0
C1941 C 0.77458 0.29341 0.54368 0.0
C1942 C 0.7841 0.32175 0.55108 0.0
C1943 C 0.77134 0.33586 0.5778 0.0
H1944 H 0.85264 0.2345 0.96213 0.0
H1945 H 0.78556 0.30104 0.96708 0.0
H1946 H 0.81529 0.19721 0.95933 0.0
H1947 H 0.74833 0.26344 0.96426 0.0
H1948 H 0.68338 0.20133 0.94766 0.0
H1949 H 0.72329 0.21748 0.98274 0.0
H1950 H 0.7853 0.19076 0.90872 0.0
H1951 H 0.74541 0.17481 0.87396 0.0
C1952 C 0.82999 0.2412 0.96363 0.0
C1953 C 0.82212 0.27093 0.96386 0.0
C1954 C 0.80865 0.21969 0.96179 0.0
C1955 C 0.77904 0.22734 0.96059 0.0
C1956 C 0.77105 0.25677 0.96514 0.0
C1957 C 0.79244 0.27841 0.96677 0.0
C1958 C 0.70566 0.19701 0.94 0.0
C1959 C 0.7115 0.18739 0.90797 0.0
C1960 C 0.72848 0.20668 0.95986 0.0
C1961 C 0.75724 0.20638 0.94792 0.0
C1962 C 0.7633 0.19151 0.91851 0.0
C1963 C 0.74045 0.18204 0.8986 0.0
H1964 H 0.27013 0.87418 0.97124 0.0
H1965 H 0.19002 0.8286 0.95015 0.0
H1966 H 0.29584 0.82845 0.97626 0.0
H1967 H 0.21615 0.7829 0.95214 0.0
H1968 H 0.32576 0.76919 0.88901 0.0
H1969 H 0.31066 0.80384 0.93015 0.0
H1970 H 0.24574 0.74332 0.96522 0.0
H1971 H 0.25868 0.70992 0.92155 0.0
C1972 C 0.25762 0.85442 0.96922 0.0
C1973 C 0.22809 0.85524 0.95972 0.0
C1974 C 0.27255 0.82802 0.97158 0.0
C1975 C 0.25849 0.80193 0.9632 0.0
C1976 C 0.22793 0.80243 0.95873 0.0
C1977 C 0.2128 0.82888 0.95728 0.0
C1978 C 0.30838 0.76311 0.90562 0.0
C1979 C 0.29222 0.73755 0.90062 0.0
C1980 C 0.30008 0.78279 0.92993 0.0
C1981 C 0.27568 0.77703 0.94991 0.0
C1982 C 0.26352 0.749 0.94906 0.0
C1983 C 0.27124 0.72966 0.92414 0.0
H1984 H 0.69415 0.2098 0.41757 0.0
H1985 H 0.63449 0.1574 0.47345 0.0
H1986 H 0.73545 0.18676 0.44676 0.0
H1987 H 0.67486 0.13356 0.50084 0.0
H1988 H 0.75385 0.07718 0.52776 0.0
H1989 H 0.71672 0.09932 0.49192 0.0
H1990 H 0.75704 0.1834 0.50448 0.0
H1991 H 0.79404 0.16129 0.53977 0.0
C1992 C 0.68967 0.19361 0.4361 0.0
C1993 C 0.66052 0.18577 0.44287 0.0
C1994 C 0.71342 0.18008 0.45271 0.0
C1995 C 0.70881 0.15781 0.47617 0.0
C1996 C 0.67969 0.14998 0.4826 0.0
C1997 C 0.65624 0.16377 0.46656 0.0
C1998 C 0.75536 0.10018 0.52202 0.0
C1999 C 0.77732 0.11724 0.53656 0.0
C2000 C 0.73378 0.11307 0.50174 0.0
C2001 C 0.73367 0.14338 0.49492 0.0
C2002 C 0.75652 0.16005 0.50831 0.0
C2003 C 0.7778 0.14727 0.52877 0.0
H2004 H 0.38867 0.79274 0.54924 0.0
H2005 H 0.47434 0.75982 0.52545 0.0
H2006 H 0.36636 0.75484 0.51622 0.0
H2007 H 0.4521 0.72205 0.49098 0.0
H2008 H 0.40381 0.63733 0.46434 0.0
H2009 H 0.42727 0.67792 0.49153 0.0
H2010 H 0.3534 0.73278 0.46772 0.0
H2011 H 0.32942 0.69133 0.44163 0.0
C2012 C 0.40289 0.77779 0.53614 0.0
C2013 C 0.43346 0.77958 0.54019 0.0
C2014 C 0.38996 0.75583 0.51691 0.0
C2015 C 0.40702 0.7346 0.50062 0.0
C2016 C 0.43782 0.73732 0.50341 0.0
C2017 C 0.4508 0.75943 0.5228 0.0
C2018 C 0.39242 0.65789 0.46475 0.0
C2019 C 0.3644 0.66038 0.45059 0.0
C2020 C 0.40619 0.68166 0.4803 0.0
C2021 C 0.39267 0.70933 0.48227 0.0
C2022 C 0.36475 0.71203 0.46754 0.0
C2023 C 0.3509 0.68808 0.45215 0.0
H2024 H 0.85701 0.34367 0.4237 0.0
H2025 H 0.91548 0.40036 0.47605 0.0
H2026 H 0.8153 0.36828 0.4487 0.0
H2027 H 0.87399 0.42522 0.50072 0.0
H2028 H 0.79326 0.47975 0.52582 0.0
H2029 H 0.83263 0.45766 0.49318 0.0
H2030 H 0.78998 0.37405 0.4999 0.0
H2031 H 0.751 0.39621 0.53232 0.0
C2032 C 0.86123 0.36134 0.44034 0.0
C2033 C 0.89022 0.36967 0.44732 0.0
C2034 C 0.83706 0.37564 0.4549 0.0
C2035 C 0.84082 0.39914 0.47689 0.0
C2036 C 0.86977 0.40774 0.48354 0.0
C2037 C 0.89386 0.39327 0.46922 0.0
C2038 C 0.79187 0.45688 0.51951 0.0
C2039 C 0.76867 0.43996 0.5316 0.0
C2040 C 0.81477 0.44397 0.50114 0.0
C2041 C 0.81501 0.41376 0.49385 0.0
C2042 C 0.79083 0.3973 0.50448 0.0
C2043 C 0.76823 0.41011 0.52308 0.0
H2044 H 0.07592 0.80405 0.53747 0.0
H2045 H 0.14336 0.74247 0.51196 0.0
H2046 H 0.0981 0.84032 0.5014 0.0
H2047 H 0.16505 0.77796 0.47469 0.0
H2048 H 0.21942 0.85875 0.44723 0.0
H2049 H 0.1937 0.81927 0.47461 0.0
H2050 H 0.11115 0.8603 0.45136 0.0
H2051 H 0.13711 0.89984 0.42436 0.0
C2052 C 0.0949 0.7979 0.52314 0.0
C2053 C 0.1077 0.77025 0.52744 0.0
C2054 C 0.10782 0.81879 0.50233 0.0
C2055 C 0.13396 0.81268 0.48502 0.0
C2056 C 0.14551 0.78418 0.48791 0.0
C2057 C 0.1328 0.76351 0.50903 0.0
C2058 C 0.19577 0.85929 0.4477 0.0
C2059 C 0.18055 0.88312 0.43406 0.0
C2060 C 0.1808 0.83638 0.46343 0.0
C2061 C 0.14995 0.83623 0.46591 0.0
C2062 C 0.13478 0.85958 0.45102 0.0
C2063 C 0.14978 0.8825 0.43539 0.0
H2064 H 0.30177 0.91105 1.00614 0.0
H2065 H 0.24169 0.97418 0.96658 0.0
H2066 H 0.26307 0.89114 0.04052 0.0
H2067 H 0.20288 0.95524 1.00161 0.0
H2068 H 0.13155 0.89137 0.03308 0.0
H2069 H 0.17045 0.91827 1.00725 0.0
H2070 H 0.23001 0.89036 0.08301 0.0
H2071 H 0.19028 0.864 0.10942 0.0
C2072 C 0.2804 0.92131 1.00563 0.0
C2073 C 0.27485 0.94419 0.98362 0.0
C2074 C 0.25799 0.90989 0.02549 0.0
C2075 C 0.22916 0.92099 0.02396 0.0
C2076 C 0.22428 0.94524 1.0032 0.0
C2077 C 0.24674 0.95658 0.98335 0.0
C2078 C 0.15277 0.89114 0.04466 0.0
C2079 C 0.15747 0.8748 0.07339 0.0
C2080 C 0.1755 0.90667 0.02954 0.0
C2081 C 0.2042 0.90627 0.04214 0.0
C2082 C 0.20872 0.89064 0.07153 0.0
C2083 C 0.18578 0.87525 0.08685 0.0
H2084 H 0.64641 0.13325 0.04888 0.0
H2085 H 0.70617 0.19106 0.09775 0.0
H2086 H 0.62216 0.17478 0.02379 0.0
H2087 H 0.68193 0.23283 0.07269 0.0
H2088 H 0.65509 0.29594 0.98851 0.0
H2089 H 0.67596 0.25745 0.02218 0.0
H2090 H 0.59115 0.21703 0.02923 0.0
H2091 H 0.57034 0.25588 0.99489 0.0
C2092 C 0.65431 0.15477 0.05486 0.0
C2093 C 0.6786 0.1582 0.07588 0.0
C2094 C 0.64014 0.1789 0.04034 0.0
C2095 C 0.64968 0.20768 0.04598 0.0
C2096 C 0.6738 0.21122 0.06721 0.0
C2097 C 0.68787 0.18702 0.08187 0.0
C2098 C 0.64058 0.27941 0.99815 0.0
C2099 C 0.61083 0.27937 0.98896 0.0
C2100 C 0.65268 0.25704 0.0175 0.0
C2101 C 0.63559 0.23349 0.0285 0.0
C2102 C 0.60535 0.23435 0.02097 0.0
C2103 C 0.59315 0.25702 1.00168 0.0
H2104 H 0.27106 0.66023 0.96455 0.0
H2105 H 0.28323 0.57444 1.0055 0.0
H2106 H 0.30639 0.6801 1.00214 0.0
H2107 H 0.31914 0.59463 0.04425 0.0
H2108 H 0.36073 0.71676 0.08293 0.0
H2109 H 0.31962 0.69432 0.05478 0.0
H2110 H 0.36801 0.61356 0.04721 0.0
H2111 H 0.40849 0.63571 0.07688 0.0
C2112 C 0.28067 0.6456 0.98233 0.0
C2113 C 0.27376 0.61562 0.98193 0.0
C2114 C 0.30122 0.65715 1.00416 0.0
C2115 C 0.3161 0.63926 0.02669 0.0
C2116 C 0.30854 0.60928 0.0272 0.0
C2117 C 0.28755 0.59765 1.00526 0.0
C2118 C 0.36256 0.69407 0.07577 0.0
C2119 C 0.38853 0.67839 0.08194 0.0
C2120 C 0.3389 0.68114 0.05915 0.0
C2121 C 0.34022 0.65197 0.04789 0.0
C2122 C 0.36574 0.63593 0.05534 0.0
C2123 C 0.38937 0.64887 0.07208 0.0
H2124 H 0.88133 0.41299 0.04135 0.0
H2125 H 0.84367 0.35127 0.10811 0.0
H2126 H 0.90669 0.37403 0.01271 0.0
H2127 H 0.86842 0.31133 0.07858 0.0
H2128 H 0.89257 0.24662 0.99379 0.0
H2129 H 0.86976 0.28433 0.02755 0.0
H2130 H 0.94554 0.3387 0.0147 0.0
H2131 H 0.96784 0.30109 0.97965 0.0
C2132 C 0.87883 0.39108 0.05036 0.0
C2133 C 0.86073 0.38568 0.07756 0.0
C2134 C 0.8934 0.36845 0.0337 0.0
C2135 C 0.8902 0.33912 0.04321 0.0
C2136 C 0.87153 0.33348 0.07015 0.0
C2137 C 0.8571 0.3564 0.0871 0.0
C2138 C 0.90446 0.26654 0.99836 0.0
C2139 C 0.93197 0.27078 0.9837 0.0
C2140 C 0.89151 0.28809 0.01829 0.0
C2141 C 0.9055 0.31487 0.0243 0.0
C2142 C 0.93366 0.31866 0.01053 0.0
C2143 C 0.94674 0.2969 0.99069 0.0
H2144 H 0.41099 0.89172 0.5466 0.0
H2145 H 0.35526 0.85225 0.61897 0.0
H2146 H 0.36892 0.91451 0.52094 0.0
H2147 H 0.31215 0.87299 0.59078 0.0
H2148 H 0.25462 0.88398 0.48818 0.0
H2149 H 0.29222 0.86579 0.52552 0.0
H2150 H 0.32477 0.95312 0.53775 0.0
H2151 H 0.28701 0.97151 0.49994 0.0
C2152 C 0.38978 0.88791 0.55734 0.0
C2153 C 0.38683 0.8696 0.58492 0.0
C2154 C 0.36548 0.901 0.54232 0.0
C2155 C 0.33704 0.89575 0.55369 0.0
C2156 C 0.33376 0.87747 0.58127 0.0
C2157 C 0.3584 0.86508 0.59708 0.0
C2158 C 0.26905 0.89955 0.49978 0.0
C2159 C 0.26737 0.92936 0.49138 0.0
C2160 C 0.29054 0.88905 0.52139 0.0
C2161 C 0.31127 0.90792 0.53517 0.0
C2162 C 0.30896 0.93797 0.52785 0.0
C2163 C 0.28711 0.94861 0.50646 0.0
H2164 H 0.68722 0.36347 0.61127 0.0
H2165 H 0.65449 0.41779 0.53363 0.0
H2166 H 0.66394 0.32076 0.58589 0.0
H2167 H 0.62998 0.37571 0.50935 0.0
H2168 H 0.56802 0.29579 0.49345 0.0
H2169 H 0.58784 0.33564 0.52703 0.0
H2170 H 0.67275 0.29469 0.52486 0.0
H2171 H 0.65328 0.25583 0.48997 0.0
C2172 C 0.67564 0.36624 0.58854 0.0
C2173 C 0.67367 0.39408 0.57422 0.0
C2174 C 0.6619 0.34183 0.57418 0.0
C2175 C 0.64523 0.34464 0.54536 0.0
C2176 C 0.64244 0.37265 0.53162 0.0
C2177 C 0.65654 0.39688 0.54567 0.0
C2178 C 0.59062 0.29474 0.50108 0.0
C2179 C 0.60885 0.27223 0.48938 0.0
C2180 C 0.60212 0.31781 0.51999 0.0
C2181 C 0.63197 0.31849 0.52866 0.0
C2182 C 0.64968 0.29487 0.51891 0.0
C2183 C 0.63842 0.2724 0.49913 0.0
H2184 H 0.24732 0.56783 0.49517 0.0
H2185 H 0.29972 0.64462 0.50808 0.0
H2186 H 0.20834 0.58985 0.52757 0.0
H2187 H 0.26204 0.66611 0.54258 0.0
H2188 H 0.17726 0.71535 0.56116 0.0
H2189 H 0.2188 0.6898 0.53779 0.0
H2190 H 0.18392 0.60785 0.57238 0.0
H2191 H 0.14166 0.6338 0.59472 0.0
C2192 C 0.25122 0.58875 0.50649 0.0
C2193 C 0.27691 0.6042 0.49922 0.0
C2194 C 0.22858 0.60174 0.525 0.0
C2195 C 0.23118 0.63045 0.53741 0.0
C2196 C 0.25824 0.64457 0.53268 0.0
C2197 C 0.28043 0.63187 0.51354 0.0
C2198 C 0.17858 0.6919 0.56417 0.0
C2199 C 0.15593 0.67675 0.57996 0.0
C2200 C 0.20273 0.67703 0.55079 0.0
C2201 C 0.20549 0.64635 0.55308 0.0
C2202 C 0.18286 0.63127 0.5694 0.0
C2203 C 0.15846 0.64621 0.58241 0.0
H2204 H 0.9152 0.14349 0.59516 0.0
H2205 H 0.83323 0.18412 0.57045 0.0
H2206 H 0.9415 0.18299 0.568 0.0
H2207 H 0.85933 0.22443 0.54485 0.0
H2208 H 0.91163 0.30369 0.51685 0.0
H2209 H 0.89093 0.26646 0.55303 0.0
H2210 H 0.95131 0.20296 0.51366 0.0
H2211 H 0.97246 0.24057 0.47835 0.0
C2212 C 0.90268 0.16074 0.58377 0.0
C2213 C 0.87188 0.16016 0.58469 0.0
C2214 C 0.91785 0.18366 0.56835 0.0
C2215 C 0.90278 0.20724 0.55392 0.0
C2216 C 0.87196 0.20704 0.55579 0.0
C2217 C 0.85683 0.18385 0.57067 0.0
C2218 C 0.92111 0.28199 0.51675 0.0
C2219 C 0.94366 0.27514 0.49464 0.0
C2220 C 0.90898 0.26045 0.53724 0.0
C2221 C 0.91879 0.23125 0.53592 0.0
C2222 C 0.94294 0.22502 0.51549 0.0
C2223 C 0.95519 0.24665 0.49518 0.0
H2224 H 0.91511 0.15693 0.98276 0.0
H2225 H 0.85983 0.17296 0.89945 0.0
H2226 H 0.87638 0.12949 0.00867 0.0
H2227 H 0.82036 0.14578 0.92574 0.0
H2228 H 0.74698 0.13334 1.0052 0.0
H2229 H 0.78567 0.14996 0.96845 0.0
H2230 H 0.8459 0.08957 0.01387 0.0
H2231 H 0.8069 0.07279 0.05 0.0
C2232 C 0.89475 0.15435 0.96968 0.0
C2233 C 0.89072 0.16771 0.93903 0.0
C2234 C 0.87222 0.13861 0.98478 0.0
C2235 C 0.84456 0.13576 0.97 0.0
C2236 C 0.84093 0.148 0.93855 0.0
C2237 C 0.86359 0.16386 0.92342 0.0
C2238 C 0.76831 0.12308 1.0066 0.0
C2239 C 0.77393 0.10191 0.03065 0.0
C2240 C 0.79064 0.13257 0.98542 0.0
C2241 C 0.81948 0.1218 0.98837 0.0
C2242 C 0.82441 0.09921 0.01124 0.0
C2243 C 0.80192 0.0893 0.03188 0.0
H2244 H 0.33552 0.86017 0.92931 0.0
H2245 H 0.40896 0.9125 0.95849 0.0
H2246 H 0.35828 0.81749 0.95332 0.0
H2247 H 0.43122 0.87007 0.98429 0.0
H2248 H 0.47474 0.7851 0.01665 0.0
H2249 H 0.45533 0.82423 0.98163 0.0
H2250 H 0.36755 0.79539 1.00263 0.0
H2251 H 0.38698 0.75661 0.03666 0.0
C2252 C 0.3567 0.86274 0.9403 0.0
C2253 C 0.37031 0.89027 0.941 0.0
C2254 C 0.36974 0.83804 0.95482 0.0
C2255 C 0.39686 0.83977 0.97116 0.0
C2256 C 0.41067 0.86726 0.97162 0.0
C2257 C 0.39765 0.89194 0.95687 0.0
C2258 C 0.45138 0.78649 0.01262 0.0
C2259 C 0.43251 0.76719 0.02898 0.0
C2260 C 0.44008 0.8094 0.99306 0.0
C2261 C 0.40958 0.81362 0.98919 0.0
C2262 C 0.39103 0.79316 1.00431 0.0
C2263 C 0.40225 0.77059 0.02388 0.0
H2264 H 0.79446 0.3918 0.03258 0.0
H2265 H 0.75794 0.47778 0.02011 0.0
H2266 H 0.75822 0.3718 0.99504 0.0
H2267 H 0.7212 0.4578 0.98249 0.0
H2268 H 0.63677 0.40318 0.96361 0.0
H2269 H 0.67795 0.42695 0.98932 0.0
H2270 H 0.73681 0.36777 0.94007 0.0
H2271 H 0.69509 0.34412 0.91344 0.0
C2272 C 0.77931 0.40668 0.02078 0.0
C2273 C 0.77959 0.43657 0.02896 0.0
C2274 C 0.75831 0.39512 0.99928 0.0
C2275 C 0.73632 0.41296 0.98566 0.0
C2276 C 0.7375 0.4432 0.9926 0.0
C2277 C 0.75893 0.45486 0.01377 0.0
C2278 C 0.65835 0.39557 0.95727 0.0
C2279 C 0.66206 0.37182 0.93564 0.0
C2280 C 0.68226 0.40935 0.97228 0.0
C2281 C 0.71109 0.39966 0.96685 0.0
C2282 C 0.71504 0.37599 0.94506 0.0
C2283 C 0.69099 0.36244 0.92957 0.0
H2284 H 0.08409 0.73953 0.03968 0.0
H2285 H 0.14848 0.80254 0.01061 0.0
H2286 H 0.10704 0.70301 1.00374 0.0
H2287 H 0.17177 0.76618 0.97512 0.0
H2288 H 0.22622 0.6819 0.95014 0.0
H2289 H 0.20116 0.72183 0.9788 0.0
H2290 H 0.11812 0.6881 0.94719 0.0
H2291 H 0.14333 0.64995 0.91633 0.0
C2292 C 0.10279 0.74579 0.02506 0.0
C2293 C 0.11454 0.77398 0.02826 0.0
C2294 C 0.11614 0.72477 1.00447 0.0
C2295 C 0.14173 0.73126 0.98646 0.0
C2296 C 0.15262 0.75992 0.98886 0.0
C2297 C 0.13919 0.78088 0.00923 0.0
C2298 C 0.20276 0.68355 0.94832 0.0
C2299 C 0.18707 0.6623 0.93085 0.0
C2300 C 0.18822 0.70632 0.96522 0.0
C2301 C 0.15738 0.70818 0.96616 0.0
C2302 C 0.14176 0.6873 0.94797 0.0
C2303 C 0.15633 0.66515 0.93031 0.0
loop_
_geom_bond_atom_site_label_1
_geom_bond_atom_site_label_2
_geom_bond_distance
_geom_bond_site_symmetry_2
_ccdc_geom_bond_type
Eu0 N29 2.600 . S
Eu0 N35 2.562 . S
Eu0 O44 2.462 . S
Eu0 O45 2.373 . S
Eu0 O47 2.432 . S
Eu0 O48 2.291 . S
Eu0 O52 2.335 . S
Eu0 O55 2.372 . S
Eu0 C64 2.787 . S
C1 N2 1.365 . S
C1 C4 1.405 . S
C1 C8 1.448 . S
N2 C1 1.365 . S
N2 C5 1.319 . S
N2 Eu11 2.600 . S
C3 C5 1.397 . S
C3 C6 1.367 . S
C3 H23 0.931 . S
C4 C1 1.405 . S
C4 C6 1.403 . S
C4 C10 1.439 . S
C5 N2 1.319 . S
C5 C3 1.397 . S
C5 H16 0.930 . S
C6 C3 1.367 . S
C6 C4 1.403 . S
C6 H27 0.929 . S
C7 C8 1.430 . S
C7 C9 1.387 . S
C7 C13 1.404 . S
C8 C1 1.448 . S
C8 C7 1.430 . S
C8 N12 1.351 . S
C9 C7 1.387 . S
C9 C10 1.374 . S
C9 H24 0.931 . S
C10 C4 1.439 . S
C10 C9 1.374 . S
C10 H25 0.931 . S
Eu11 N2 2.600 . S
Eu11 N12 2.562 . S
Eu11 O46 2.335 . S
Eu11 O49 2.372 . S
Eu11 O50 2.462 . S
Eu11 O51 2.373 . S
Eu11 O53 2.432 . S
Eu11 O54 2.291 . S
Eu11 C75 2.787 . S
N12 C8 1.351 . S
N12 Eu11 2.562 . S
N12 C14 1.325 . S
C13 C7 1.404 . S
C13 C15 1.366 . S
C13 H21 0.930 . S
C14 N12 1.325 . S
C14 C15 1.416 . S
C14 H20 0.929 . S
C15 C13 1.366 . S
C15 C14 1.416 . S
C15 H17 0.930 . S
H16 C5 0.930 . S
H17 C15 0.930 . S
H18 C33 0.930 . S
H19 C40 0.930 . S
H20 C14 0.929 . S
H21 C13 0.930 . S
H22 C36 0.929 . S
H23 C3 0.931 . S
H24 C9 0.931 . S
H25 C10 0.931 . S
H26 C31 0.931 . S
H27 C6 0.929 . S
H28 C39 0.930 . S
N29 Eu0 2.600 . S
N29 C30 1.365 . S
N29 C33 1.319 . S
C30 N29 1.365 . S
C30 C32 1.405 . S
C30 C38 1.448 . S
C31 H26 0.931 . S
C31 C33 1.397 . S
C31 C34 1.367 . S
C32 C30 1.405 . S
C32 C34 1.403 . S
C32 C65 1.439 . S
C33 H18 0.930 . S
C33 N29 1.319 . S
C33 C31 1.397 . S
C34 C31 1.367 . S
C34 C32 1.403 . S
C34 H41 0.929 . S
N35 Eu0 2.562 . S
N35 C36 1.325 . S
N35 C38 1.351 . S
C36 H22 0.929 . S
C36 N35 1.325 . S
C36 C40 1.416 . S
C37 C38 1.430 . S
C37 C39 1.404 . S
C37 C66 1.387 . S
C38 C30 1.448 . S
C38 N35 1.351 . S
C38 C37 1.430 . S
C39 H28 0.930 . S
C39 C37 1.404 . S
C39 C40 1.366 . S
C40 H19 0.930 . S
C40 C36 1.416 . S
C40 C39 1.366 . S
H41 C34 0.929 . S
H42 C65 0.931 . S
H43 C66 0.931 . S
O44 Eu0 2.462 . S
O44 C64 1.252 . S
O45 Eu0 2.373 . S
O45 C56 1.249 . S
O46 Eu11 2.335 . S
O46 C56 1.264 . S
O47 Eu0 2.432 . S
O47 C64 1.268 . S
O48 Eu0 2.291 . S
O48 C63 1.255 . S
O49 Eu11 2.372 . S
O49 C63 1.257 . S
O50 Eu11 2.462 . S
O50 C75 1.252 . S
O51 Eu11 2.373 . S
O51 C67 1.249 . S
O52 Eu0 2.335 . S
O52 C67 1.264 . S
O53 Eu11 2.432 . S
O53 C75 1.268 . S
O54 Eu11 2.291 . S
O54 C74 1.255 . S
O55 Eu0 2.372 . S
O55 C74 1.257 . S
C56 O45 1.249 . S
C56 O46 1.264 . S
C57 C60 1.382 . S
C57 C62 1.390 . S
C57 C64 1.506 . S
C58 C59 1.398 . S
C58 C62 1.392 . S
C59 C58 1.398 . S
C59 C61 1.372 . S
C59 H76 0.931 . S
C60 C57 1.382 . S
C60 C61 1.390 . S
C60 H77 0.931 . S
C61 C59 1.372 . S
C61 C60 1.390 . S
C61 H78 0.929 . S
C62 C57 1.390 . S
C62 C58 1.392 . S
C62 H79 0.930 . S
C63 O48 1.255 . S
C63 O49 1.257 . S
C64 Eu0 2.787 . S
C64 O44 1.252 . S
C64 O47 1.268 . S
C64 C57 1.506 . S
C65 C32 1.439 . S
C65 H42 0.931 . S
C65 C66 1.374 . S
C66 C37 1.387 . S
C66 H43 0.931 . S
C66 C65 1.374 . S
C67 O51 1.249 . S
C67 O52 1.264 . S
C68 C71 1.382 . S
C68 C72 1.390 . S
C68 C75 1.506 . S
C69 C70 1.398 . S
C69 C72 1.392 . S
C70 C69 1.398 . S
C70 C73 1.372 . S
C70 H80 0.931 . S
C71 C68 1.382 . S
C71 C73 1.390 . S
C71 H81 0.931 . S
C72 C68 1.390 . S
C72 C69 1.392 . S
C72 H82 0.930 . S
C73 C70 1.372 . S
C73 C71 1.390 . S
C73 H83 0.929 . S
C74 O54 1.255 . S
C74 O55 1.257 . S
C75 Eu11 2.787 . S
C75 O50 1.252 . S
C75 O53 1.268 . S
C75 C68 1.506 . S
H76 C59 0.931 . S
H77 C60 0.931 . S
H78 C61 0.929 . S
H79 C62 0.930 . S
H80 C70 0.931 . S
H81 C71 0.931 . S
H82 C72 0.930 . S
H83 C73 0.929 . S
Eu84 N113 2.600 . S
Eu84 N119 2.562 . S
Eu84 O128 2.462 . S
Eu84 O129 2.373 . S
Eu84 O131 2.432 . S
Eu84 O132 2.291 . S
Eu84 O136 2.335 . S
Eu84 O139 2.372 . S
Eu84 C148 2.787 . S
C85 N86 1.365 . S
C85 C88 1.405 . S
C85 C92 1.448 . S
N86 C85 1.365 . S
N86 C89 1.319 . S
N86 Eu95 2.600 . S
C87 C89 1.397 . S
C87 C90 1.367 . S
C87 H107 0.931 . S
C88 C85 1.405 . S
C88 C90 1.403 . S
C88 C94 1.439 . S
C89 N86 1.319 . S
C89 C87 1.397 . S
C89 H100 0.930 . S
C90 C87 1.367 . S
C90 C88 1.403 . S
C90 H111 0.929 . S
C91 C92 1.430 . S
C91 C93 1.387 . S
C91 C97 1.404 . S
C92 C85 1.448 . S
C92 C91 1.430 . S
C92 N96 1.351 . S
C93 C91 1.387 . S
C93 C94 1.374 . S
C93 H108 0.931 . S
C94 C88 1.439 . S
C94 C93 1.374 . S
C94 H109 0.931 . S
Eu95 N86 2.600 . S
Eu95 N96 2.562 . S
Eu95 O130 2.335 . S
Eu95 O133 2.372 . S
Eu95 O134 2.462 . S
Eu95 O135 2.373 . S
Eu95 O137 2.432 . S
Eu95 O138 2.291 . S
Eu95 C159 2.787 . S
N96 C92 1.351 . S
N96 Eu95 2.562 . S
N96 C98 1.325 . S
C97 C91 1.404 . S
C97 C99 1.366 . S
C97 H105 0.930 . S
C98 N96 1.325 . S
C98 C99 1.416 . S
C98 H104 0.929 . S
C99 C97 1.366 . S
C99 C98 1.416 . S
C99 H101 0.930 . S
H100 C89 0.930 . S
H101 C99 0.930 . S
H102 C117 0.930 . S
H103 C124 0.930 . S
H104 C98 0.929 . S
H105 C97 0.930 . S
H106 C120 0.929 . S
H107 C87 0.931 . S
H108 C93 0.931 . S
H109 C94 0.931 . S
H110 C115 0.931 . S
H111 C90 0.929 . S
H112 C123 0.930 . S
N113 Eu84 2.600 . S
N113 C114 1.365 . S
N113 C117 1.319 . S
C114 N113 1.365 . S
C114 C116 1.405 . S
C114 C122 1.448 . S
C115 H110 0.931 . S
C115 C117 1.397 . S
C115 C118 1.367 . S
C116 C114 1.405 . S
C116 C118 1.403 . S
C116 C149 1.439 . S
C117 H102 0.930 . S
C117 N113 1.319 . S
C117 C115 1.397 . S
C118 C115 1.367 . S
C118 C116 1.403 . S
C118 H125 0.929 . S
N119 Eu84 2.562 . S
N119 C120 1.325 . S
N119 C122 1.351 . S
C120 H106 0.929 . S
C120 N119 1.325 . S
C120 C124 1.416 . S
C121 C122 1.430 . S
C121 C123 1.404 . S
C121 C150 1.387 . S
C122 C114 1.448 . S
C122 N119 1.351 . S
C122 C121 1.430 . S
C123 H112 0.930 . S
C123 C121 1.404 . S
C123 C124 1.366 . S
C124 H103 0.930 . S
C124 C120 1.416 . S
C124 C123 1.366 . S
H125 C118 0.929 . S
H126 C149 0.931 . S
H127 C150 0.931 . S
O128 Eu84 2.462 . S
O128 C148 1.252 . S
O129 Eu84 2.373 . S
O129 C140 1.249 . S
O130 Eu95 2.335 . S
O130 C140 1.264 . S
O131 Eu84 2.432 . S
O131 C148 1.268 . S
O132 Eu84 2.291 . S
O132 C147 1.255 . S
O133 Eu95 2.372 . S
O133 C147 1.257 . S
O134 Eu95 2.462 . S
O134 C159 1.252 . S
O135 Eu95 2.373 . S
O135 C151 1.249 . S
O136 Eu84 2.335 . S
O136 C151 1.264 . S
O137 Eu95 2.432 . S
O137 C159 1.268 . S
O138 Eu95 2.291 . S
O138 C158 1.255 . S
O139 Eu84 2.372 . S
O139 C158 1.257 . S
C140 O129 1.249 . S
C140 O130 1.264 . S
C141 C144 1.382 . S
C141 C146 1.390 . S
C141 C148 1.506 . S
C142 C143 1.398 . S
C142 C146 1.392 . S
C143 C142 1.398 . S
C143 C145 1.372 . S
C143 H160 0.931 . S
C144 C141 1.382 . S
C144 C145 1.390 . S
C144 H161 0.931 . S
C145 C143 1.372 . S
C145 C144 1.390 . S
C145 H162 0.929 . S
C146 C141 1.390 . S
C146 C142 1.392 . S
C146 H163 0.930 . S
C147 O132 1.255 . S
C147 O133 1.257 . S
C148 Eu84 2.787 . S
C148 O128 1.252 . S
C148 O131 1.268 . S
C148 C141 1.506 . S
C149 C116 1.439 . S
C149 H126 0.931 . S
C149 C150 1.374 . S
C150 C121 1.387 . S
C150 H127 0.931 . S
C150 C149 1.374 . S
C151 O135 1.249 . S
C151 O136 1.264 . S
C152 C155 1.382 . S
C152 C156 1.390 . S
C152 C159 1.506 . S
C153 C154 1.398 . S
C153 C156 1.392 . S
C154 C153 1.398 . S
C154 C157 1.372 . S
C154 H164 0.931 . S
C155 C152 1.382 . S
C155 C157 1.390 . S
C155 H165 0.931 . S
C156 C152 1.390 . S
C156 C153 1.392 . S
C156 H166 0.930 . S
C157 C154 1.372 . S
C157 C155 1.390 . S
C157 H167 0.929 . S
C158 O138 1.255 . S
C158 O139 1.257 . S
C159 Eu95 2.787 . S
C159 O134 1.252 . S
C159 O137 1.268 . S
C159 C152 1.506 . S
H160 C143 0.931 . S
H161 C144 0.931 . S
H162 C145 0.929 . S
H163 C146 0.930 . S
H164 C154 0.931 . S
H165 C155 0.931 . S
H166 C156 0.930 . S
H167 C157 0.929 . S
Eu168 N197 2.600 . S
Eu168 N203 2.562 . S
Eu168 O212 2.462 . S
Eu168 O213 2.373 . S
Eu168 O215 2.432 . S
Eu168 O216 2.291 . S
Eu168 O220 2.335 . S
Eu168 O223 2.372 . S
Eu168 C232 2.787 . S
C169 N170 1.365 . S
C169 C172 1.405 . S
C169 C176 1.448 1_655 S
N170 C169 1.365 . S
N170 C173 1.319 . S
N170 Eu179 2.600 . S
C171 C173 1.397 . S
C171 C174 1.367 . S
C171 H191 0.931 . S
C172 C169 1.405 . S
C172 C174 1.403 . S
C172 C178 1.439 1_655 S
C173 N170 1.319 . S
C173 C171 1.397 . S
C173 H184 0.930 . S
C174 C171 1.367 . S
C174 C172 1.403 . S
C174 H195 0.929 . S
C175 C176 1.430 . S
C175 C177 1.387 . S
C175 C181 1.404 . S
C176 C169 1.448 1_455 S
C176 C175 1.430 . S
C176 N180 1.351 . S
C177 C175 1.387 . S
C177 C178 1.374 . S
C177 H192 0.931 . S
C178 C172 1.439 1_455 S
C178 C177 1.374 . S
C178 H193 0.931 . S
Eu179 N170 2.600 . S
Eu179 N180 2.562 1_655 S
Eu179 O214 2.335 . S
Eu179 O217 2.372 . S
Eu179 O218 2.462 1_655 S
Eu179 O219 2.373 . S
Eu179 O221 2.432 1_655 S
Eu179 O222 2.291 . S
Eu179 C243 2.787 1_655 S
N180 C176 1.351 . S
N180 Eu179 2.562 1_455 S
N180 C182 1.325 . S
C181 C175 1.404 . S
C181 C183 1.366 . S
C181 H189 0.930 . S
C182 N180 1.325 . S
C182 C183 1.416 . S
C182 H188 0.929 . S
C183 C181 1.366 . S
C183 C182 1.416 . S
C183 H185 0.930 . S
H184 C173 0.930 . S
H185 C183 0.930 . S
H186 C201 0.930 . S
H187 C208 0.930 . S
H188 C182 0.929 . S
H189 C181 0.930 . S
H190 C204 0.929 . S
H191 C171 0.931 . S
H192 C177 0.931 . S
H193 C178 0.931 . S
H194 C199 0.931 . S
H195 C174 0.929 . S
H196 C207 0.930 . S
N197 Eu168 2.600 . S
N197 C198 1.365 . S
N197 C201 1.319 . S
C198 N197 1.365 . S
C198 C200 1.405 . S
C198 C206 1.448 . S
C199 H194 0.931 . S
C199 C201 1.397 . S
C199 C202 1.367 . S
C200 C198 1.405 . S
C200 C202 1.403 . S
C200 C233 1.439 . S
C201 H186 0.930 . S
C201 N197 1.319 . S
C201 C199 1.397 . S
C202 C199 1.367 . S
C202 C200 1.403 . S
C202 H209 0.929 . S
N203 Eu168 2.562 . S
N203 C204 1.325 . S
N203 C206 1.351 . S
C204 H190 0.929 . S
C204 N203 1.325 . S
C204 C208 1.416 . S
C205 C206 1.430 . S
C205 C207 1.404 . S
C205 C234 1.387 . S
C206 C198 1.448 . S
C206 N203 1.351 . S
C206 C205 1.430 . S
C207 H196 0.930 . S
C207 C205 1.404 . S
C207 C208 1.366 . S
C208 H187 0.930 . S
C208 C204 1.416 . S
C208 C207 1.366 . S
H209 C202 0.929 . S
H210 C233 0.931 . S
H211 C234 0.931 . S
O212 Eu168 2.462 . S
O212 C232 1.252 . S
O213 Eu168 2.373 . S
O213 C224 1.249 . S
O214 Eu179 2.335 . S
O214 C224 1.264 . S
O215 Eu168 2.432 . S
O215 C232 1.268 . S
O216 Eu168 2.291 . S
O216 C231 1.255 . S
O217 Eu179 2.372 . S
O217 C231 1.257 . S
O218 Eu179 2.462 1_455 S
O218 C243 1.252 . S
O219 Eu179 2.373 . S
O219 C235 1.249 . S
O220 Eu168 2.335 . S
O220 C235 1.264 . S
O221 Eu179 2.432 1_455 S
O221 C243 1.268 . S
O222 Eu179 2.291 . S
O222 C242 1.255 . S
O223 Eu168 2.372 . S
O223 C242 1.257 . S
C224 O213 1.249 . S
C224 O214 1.264 . S
C225 C228 1.382 . S
C225 C230 1.390 . S
C225 C232 1.506 . S
C226 C227 1.398 . S
C226 C230 1.392 . S
C227 C226 1.398 . S
C227 C229 1.372 . S
C227 H244 0.931 . S
C228 C225 1.382 . S
C228 C229 1.390 . S
C228 H245 0.931 . S
C229 C227 1.372 . S
C229 C228 1.390 . S
C229 H246 0.929 . S
C230 C225 1.390 . S
C230 C226 1.392 . S
C230 H247 0.930 . S
C231 O216 1.255 . S
C231 O217 1.257 . S
C232 Eu168 2.787 . S
C232 O212 1.252 . S
C232 O215 1.268 . S
C232 C225 1.506 . S
C233 C200 1.439 . S
C233 H210 0.931 . S
C233 C234 1.374 . S
C234 C205 1.387 . S
C234 H211 0.931 . S
C234 C233 1.374 . S
C235 O219 1.249 . S
C235 O220 1.264 . S
C236 C239 1.382 . S
C236 C240 1.390 . S
C236 C243 1.506 . S
C237 C238 1.398 . S
C237 C240 1.392 . S
C238 C237 1.398 . S
C238 C241 1.372 . S
C238 H248 0.931 . S
C239 C236 1.382 . S
C239 C241 1.390 . S
C239 H249 0.931 . S
C240 C236 1.390 . S
C240 C237 1.392 . S
C240 H250 0.930 . S
C241 C238 1.372 . S
C241 C239 1.390 . S
C241 H251 0.929 . S
C242 O222 1.255 . S
C242 O223 1.257 . S
C243 Eu179 2.787 1_455 S
C243 O218 1.252 . S
C243 O221 1.268 . S
C243 C236 1.506 . S
H244 C227 0.931 . S
H245 C228 0.931 . S
H246 C229 0.929 . S
H247 C230 0.930 . S
H248 C238 0.931 . S
H249 C239 0.931 . S
H250 C240 0.930 . S
H251 C241 0.929 . S
Eu252 N281 2.600 . S
Eu252 N287 2.562 . S
Eu252 O296 2.462 1_565 S
Eu252 O297 2.373 . S
Eu252 O299 2.432 1_565 S
Eu252 O300 2.291 . S
Eu252 O304 2.335 1_565 S
Eu252 O307 2.372 . S
Eu252 C316 2.787 1_565 S
C253 N254 1.365 . S
C253 C256 1.405 . S
C253 C260 1.448 . S
N254 C253 1.365 . S
N254 C257 1.319 . S
N254 Eu263 2.600 . S
C255 C257 1.397 . S
C255 C258 1.367 . S
C255 H275 0.931 . S
C256 C253 1.405 . S
C256 C258 1.403 . S
C256 C262 1.439 . S
C257 N254 1.319 . S
C257 C255 1.397 . S
C257 H268 0.930 . S
C258 C255 1.367 . S
C258 C256 1.403 . S
C258 H279 0.929 . S
C259 C260 1.430 . S
C259 C261 1.387 . S
C259 C265 1.404 . S
C260 C253 1.448 . S
C260 C259 1.430 . S
C260 N264 1.351 . S
C261 C259 1.387 . S
C261 C262 1.374 . S
C261 H276 0.931 . S
C262 C256 1.439 . S
C262 C261 1.374 . S
C262 H277 0.931 . S
Eu263 N254 2.600 . S
Eu263 N264 2.562 . S
Eu263 O298 2.335 . S
Eu263 O301 2.372 . S
Eu263 O302 2.462 . S
Eu263 O303 2.373 . S
Eu263 O305 2.432 . S
Eu263 O306 2.291 . S
Eu263 C327 2.787 . S
N264 C260 1.351 . S
N264 Eu263 2.562 . S
N264 C266 1.325 . S
C265 C259 1.404 . S
C265 C267 1.366 . S
C265 H273 0.930 . S
C266 N264 1.325 . S
C266 C267 1.416 . S
C266 H272 0.929 . S
C267 C265 1.366 . S
C267 C266 1.416 . S
C267 H269 0.930 . S
H268 C257 0.930 . S
H269 C267 0.930 . S
H270 C285 0.930 . S
H271 C292 0.930 . S
H272 C266 0.929 . S
H273 C265 0.930 . S
H274 C288 0.929 . S
H275 C255 0.931 . S
H276 C261 0.931 . S
H277 C262 0.931 . S
H278 C283 0.931 . S
H279 C258 0.929 . S
H280 C291 0.930 . S
N281 Eu252 2.600 . S
N281 C282 1.365 . S
N281 C285 1.319 . S
C282 N281 1.365 . S
C282 C284 1.405 . S
C282 C290 1.448 . S
C283 H278 0.931 . S
C283 C285 1.397 . S
C283 C286 1.367 . S
C284 C282 1.405 . S
C284 C286 1.403 . S
C284 C317 1.439 . S
C285 H270 0.930 . S
C285 N281 1.319 . S
C285 C283 1.397 . S
C286 C283 1.367 . S
C286 C284 1.403 . S
C286 H293 0.929 . S
N287 Eu252 2.562 . S
N287 C288 1.325 . S
N287 C290 1.351 . S
C288 H274 0.929 . S
C288 N287 1.325 . S
C288 C292 1.416 . S
C289 C290 1.430 . S
C289 C291 1.404 . S
C289 C318 1.387 . S
C290 C282 1.448 . S
C290 N287 1.351 . S
C290 C289 1.430 . S
C291 H280 0.930 . S
C291 C289 1.404 . S
C291 C292 1.366 . S
C292 H271 0.930 . S
C292 C288 1.416 . S
C292 C291 1.366 . S
H293 C286 0.929 . S
H294 C317 0.931 . S
H295 C318 0.931 . S
O296 Eu252 2.462 1_545 S
O296 C316 1.252 . S
O297 Eu252 2.373 . S
O297 C308 1.249 . S
O298 Eu263 2.335 . S
O298 C308 1.264 . S
O299 Eu252 2.432 1_545 S
O299 C316 1.268 . S
O300 Eu252 2.291 . S
O300 C315 1.255 . S
O301 Eu263 2.372 . S
O301 C315 1.257 . S
O302 Eu263 2.462 . S
O302 C327 1.252 . S
O303 Eu263 2.373 . S
O303 C319 1.265 . S
O304 Eu252 2.335 1_545 S
O304 C319 1.259 1_545 S
O305 Eu263 2.432 . S
O305 C327 1.268 . S
O306 Eu263 2.291 . S
O306 C326 1.255 . S
O307 Eu252 2.372 . S
O307 C326 1.257 . S
C308 O297 1.249 . S
C308 O298 1.264 . S
C309 C312 1.382 . S
C309 C314 1.390 . S
C309 C316 1.506 . S
C310 C311 1.398 . S
C310 C314 1.392 . S
C311 C310 1.398 . S
C311 C313 1.372 . S
C311 H328 0.931 . S
C312 C309 1.382 . S
C312 C313 1.390 . S
C312 H329 0.931 . S
C313 C311 1.372 . S
C313 C312 1.390 . S
C313 H330 0.929 . S
C314 C309 1.390 . S
C314 C310 1.392 . S
C314 H331 0.930 . S
C315 O300 1.255 . S
C315 O301 1.257 . S
C316 Eu252 2.787 1_545 S
C316 O296 1.252 . S
C316 O299 1.268 . S
C316 C309 1.506 . S
C317 C284 1.439 . S
C317 H294 0.931 . S
C317 C318 1.374 . S
C318 C289 1.387 . S
C318 H295 0.931 . S
C318 C317 1.374 . S
C319 O303 1.265 . S
C319 O304 1.259 1_565 S
C320 C323 1.382 . S
C320 C324 1.390 . S
C320 C327 1.506 . S
C321 C322 1.398 . S
C321 C324 1.392 . S
C322 C321 1.398 . S
C322 C325 1.372 . S
C322 H332 0.931 . S
C323 C320 1.382 . S
C323 C325 1.390 . S
C323 H333 0.931 . S
C324 C320 1.390 . S
C324 C321 1.392 . S
C324 H334 0.930 . S
C325 C322 1.372 . S
C325 C323 1.390 . S
C325 H335 0.929 . S
C326 O306 1.255 . S
C326 O307 1.257 . S
C327 Eu263 2.787 . S
C327 O302 1.252 . S
C327 O305 1.268 . S
C327 C320 1.506 . S
H328 C311 0.931 . S
H329 C312 0.931 . S
H330 C313 0.929 . S
H331 C314 0.930 . S
H332 C322 0.931 . S
H333 C323 0.931 . S
H334 C324 0.930 . S
H335 C325 0.929 . S
Eu336 N365 2.600 . S
Eu336 N371 2.562 . S
Eu336 O380 2.462 . S
Eu336 O381 2.373 . S
Eu336 O383 2.432 . S
Eu336 O384 2.291 . S
Eu336 O388 2.335 . S
Eu336 O391 2.372 . S
Eu336 C400 2.787 . S
C337 N338 1.365 . S
C337 C340 1.405 . S
C337 C344 1.448 1_455 S
N338 C337 1.365 . S
N338 C341 1.319 . S
N338 Eu347 2.600 1_556 S
C339 C341 1.397 . S
C339 C342 1.367 . S
C339 H359 0.931 . S
C340 C337 1.405 . S
C340 C342 1.403 . S
C340 C346 1.439 1_455 S
C341 N338 1.319 . S
C341 C339 1.397 . S
C341 H352 0.930 1_556 S
C342 C339 1.367 . S
C342 C340 1.403 . S
C342 H363 0.929 . S
C343 C344 1.430 . S
C343 C345 1.387 . S
C343 C349 1.404 . S
C344 C337 1.448 1_655 S
C344 C343 1.430 . S
C344 N348 1.351 1_556 S
C345 C343 1.387 . S
C345 C346 1.374 . S
C345 H360 0.931 . S
C346 C340 1.439 1_655 S
C346 C345 1.374 . S
C346 H361 0.931 . S
Eu347 N338 2.600 1_554 S
Eu347 N348 2.562 1_455 S
Eu347 O382 2.335 . S
Eu347 O385 2.372 . S
Eu347 O386 2.462 1_455 S
Eu347 O387 2.373 . S
Eu347 O389 2.432 1_455 S
Eu347 O390 2.291 . S
Eu347 C411 2.787 1_455 S
N348 C344 1.351 1_554 S
N348 Eu347 2.562 1_655 S
N348 C350 1.325 . S
C349 C343 1.404 . S
C349 C351 1.366 . S
C349 H357 0.930 . S
C350 N348 1.325 . S
C350 C351 1.416 1_554 S
C350 H356 0.929 . S
C351 C349 1.366 . S
C351 C350 1.416 1_556 S
C351 H353 0.930 1_556 S
H352 C341 0.930 1_554 S
H353 C351 0.930 1_554 S
H354 C369 0.930 . S
H355 C376 0.930 . S
H356 C350 0.929 . S
H357 C349 0.930 . S
H358 C372 0.929 . S
H359 C339 0.931 . S
H360 C345 0.931 . S
H361 C346 0.931 . S
H362 C367 0.931 . S
H363 C342 0.929 . S
H364 C375 0.930 . S
N365 Eu336 2.600 . S
N365 C366 1.365 . S
N365 C369 1.319 . S
C366 N365 1.365 . S
C366 C368 1.405 . S
C366 C374 1.448 . S
C367 H362 0.931 . S
C367 C369 1.397 . S
C367 C370 1.367 . S
C368 C366 1.405 . S
C368 C370 1.403 . S
C368 C401 1.439 . S
C369 H354 0.930 . S
C369 N365 1.319 . S
C369 C367 1.397 . S
C370 C367 1.367 . S
C370 C368 1.403 . S
C370 H377 0.929 . S
N371 Eu336 2.562 . S
N371 C372 1.325 . S
N371 C374 1.351 . S
C372 H358 0.929 . S
C372 N371 1.325 . S
C372 C376 1.416 . S
C373 C374 1.430 . S
C373 C375 1.404 . S
C373 C402 1.387 . S
C374 C366 1.448 . S
C374 N371 1.351 . S
C374 C373 1.430 . S
C375 H364 0.930 . S
C375 C373 1.404 . S
C375 C376 1.366 . S
C376 H355 0.930 . S
C376 C372 1.416 . S
C376 C375 1.366 . S
H377 C370 0.929 . S
H378 C401 0.931 . S
H379 C402 0.931 . S
O380 Eu336 2.462 . S
O380 C400 1.252 . S
O381 Eu336 2.373 . S
O381 C392 1.249 . S
O382 Eu347 2.335 . S
O382 C392 1.264 . S
O383 Eu336 2.432 . S
O383 C400 1.268 . S
O384 Eu336 2.291 . S
O384 C399 1.255 . S
O385 Eu347 2.372 . S
O385 C399 1.257 . S
O386 Eu347 2.462 1_655 S
O386 C411 1.252 . S
O387 Eu347 2.373 . S
O387 C403 1.249 . S
O388 Eu336 2.335 . S
O388 C403 1.264 . S
O389 Eu347 2.432 1_655 S
O389 C411 1.268 . S
O390 Eu347 2.291 . S
O390 C410 1.255 . S
O391 Eu336 2.372 . S
O391 C410 1.257 . S
C392 O381 1.249 . S
C392 O382 1.264 . S
C393 C396 1.382 . S
C393 C398 1.390 . S
C393 C400 1.506 . S
C394 C395 1.398 . S
C394 C398 1.392 . S
C395 C394 1.398 . S
C395 C397 1.372 . S
C395 H412 0.931 . S
C396 C393 1.382 . S
C396 C397 1.390 . S
C396 H413 0.931 . S
C397 C395 1.372 . S
C397 C396 1.390 . S
C397 H414 0.929 . S
C398 C393 1.390 . S
C398 C394 1.392 . S
C398 H415 0.930 . S
C399 O384 1.255 . S
C399 O385 1.257 . S
C400 Eu336 2.787 . S
C400 O380 1.252 . S
C400 O383 1.268 . S
C400 C393 1.506 . S
C401 C368 1.439 . S
C401 H378 0.931 . S
C401 C402 1.374 . S
C402 C373 1.387 . S
C402 H379 0.931 . S
C402 C401 1.374 . S
C403 O387 1.249 . S
C403 O388 1.264 . S
C404 C407 1.382 . S
C404 C408 1.390 . S
C404 C411 1.506 . S
C405 C406 1.398 . S
C405 C408 1.392 . S
C406 C405 1.398 . S
C406 C409 1.372 . S
C406 H416 0.931 . S
C407 C404 1.382 . S
C407 C409 1.390 . S
C407 H417 0.931 . S
C408 C404 1.390 . S
C408 C405 1.392 . S
C408 H418 0.930 . S
C409 C406 1.372 . S
C409 C407 1.390 . S
C409 H419 0.929 . S
C410 O390 1.255 . S
C410 O391 1.257 . S
C411 Eu347 2.787 1_655 S
C411 O386 1.252 . S
C411 O389 1.268 . S
C411 C404 1.506 . S
H412 C395 0.931 . S
H413 C396 0.931 . S
H414 C397 0.929 . S
H415 C398 0.930 . S
H416 C406 0.931 . S
H417 C407 0.931 . S
H418 C408 0.930 . S
H419 C409 0.929 . S
Eu420 N449 2.600 . S
Eu420 N455 2.562 . S
Eu420 O464 2.462 . S
Eu420 O465 2.373 . S
Eu420 O467 2.432 . S
Eu420 O468 2.291 . S
Eu420 O472 2.335 . S
Eu420 O475 2.372 . S
Eu420 C484 2.787 . S
C421 N422 1.365 . S
C421 C424 1.405 . S
C421 C428 1.448 1_545 S
N422 C421 1.365 . S
N422 C425 1.319 . S
N422 Eu431 2.600 1_556 S
C423 C425 1.397 . S
C423 C426 1.367 . S
C423 H443 0.931 . S
C424 C421 1.405 . S
C424 C426 1.403 . S
C424 C430 1.439 1_545 S
C425 N422 1.319 . S
C425 C423 1.397 . S
C425 H436 0.930 1_556 S
C426 C423 1.367 . S
C426 C424 1.403 . S
C426 H447 0.929 . S
C427 C428 1.430 . S
C427 C429 1.387 . S
C427 C433 1.404 . S
C428 C421 1.448 1_565 S
C428 C427 1.430 . S
C428 N432 1.351 1_556 S
C429 C427 1.387 . S
C429 C430 1.374 . S
C429 H444 0.931 . S
C430 C424 1.439 1_565 S
C430 C429 1.374 . S
C430 H445 0.931 . S
Eu431 N422 2.600 1_554 S
Eu431 N432 2.562 1_545 S
Eu431 O466 2.335 . S
Eu431 O469 2.372 . S
Eu431 O470 2.462 1_545 S
Eu431 O471 2.373 . S
Eu431 O473 2.432 1_545 S
Eu431 O474 2.291 . S
Eu431 C495 2.787 1_545 S
N432 C428 1.351 1_554 S
N432 Eu431 2.562 1_565 S
N432 C434 1.325 . S
C433 C427 1.404 . S
C433 C435 1.366 . S
C433 H441 0.930 . S
C434 N432 1.325 . S
C434 C435 1.416 1_554 S
C434 H440 0.929 . S
C435 C433 1.366 . S
C435 C434 1.416 1_556 S
C435 H437 0.930 1_556 S
H436 C425 0.930 1_554 S
H437 C435 0.930 1_554 S
H438 C453 0.930 . S
H439 C460 0.930 . S
H440 C434 0.929 . S
H441 C433 0.930 . S
H442 C456 0.929 . S
H443 C423 0.931 . S
H444 C429 0.931 . S
H445 C430 0.931 . S
H446 C451 0.931 . S
H447 C426 0.929 . S
H448 C459 0.930 . S
N449 Eu420 2.600 . S
N449 C450 1.365 . S
N449 C453 1.319 . S
C450 N449 1.365 . S
C450 C452 1.405 . S
C450 C458 1.448 . S
C451 H446 0.931 . S
C451 C453 1.397 . S
C451 C454 1.367 . S
C452 C450 1.405 . S
C452 C454 1.403 . S
C452 C485 1.439 . S
C453 H438 0.930 . S
C453 N449 1.319 . S
C453 C451 1.397 . S
C454 C451 1.367 . S
C454 C452 1.403 . S
C454 H461 0.929 . S
N455 Eu420 2.562 . S
N455 C456 1.325 . S
N455 C458 1.351 . S
C456 H442 0.929 . S
C456 N455 1.325 . S
C456 C460 1.416 . S
C457 C458 1.430 . S
C457 C459 1.404 . S
C457 C486 1.387 . S
C458 C450 1.448 . S
C458 N455 1.351 . S
C458 C457 1.430 . S
C459 H448 0.930 . S
C459 C457 1.404 . S
C459 C460 1.366 . S
C460 H439 0.930 . S
C460 C456 1.416 . S
C460 C459 1.366 . S
H461 C454 0.929 . S
H462 C485 0.931 . S
H463 C486 0.931 . S
O464 Eu420 2.462 . S
O464 C484 1.252 . S
O465 Eu420 2.373 . S
O465 C476 1.249 . S
O466 Eu431 2.335 . S
O466 C476 1.264 . S
O467 Eu420 2.432 . S
O467 C484 1.268 . S
O468 Eu420 2.291 . S
O468 C483 1.255 . S
O469 Eu431 2.372 . S
O469 C483 1.257 . S
O470 Eu431 2.462 1_565 S
O470 C495 1.252 . S
O471 Eu431 2.373 . S
O471 C487 1.249 . S
O472 Eu420 2.335 . S
O472 C487 1.264 . S
O473 Eu431 2.432 1_565 S
O473 C495 1.268 . S
O474 Eu431 2.291 . S
O474 C494 1.255 . S
O475 Eu420 2.372 . S
O475 C494 1.257 . S
C476 O465 1.249 . S
C476 O466 1.264 . S
C477 C480 1.382 . S
C477 C482 1.390 . S
C477 C484 1.506 . S
C478 C479 1.398 . S
C478 C482 1.392 . S
C479 C478 1.398 . S
C479 C481 1.372 . S
C479 H496 0.931 . S
C480 C477 1.382 . S
C480 C481 1.390 . S
C480 H497 0.931 . S
C481 C479 1.372 . S
C481 C480 1.390 . S
C481 H498 0.929 . S
C482 C477 1.390 . S
C482 C478 1.392 . S
C482 H499 0.930 . S
C483 O468 1.255 . S
C483 O469 1.257 . S
C484 Eu420 2.787 . S
C484 O464 1.252 . S
C484 O467 1.268 . S
C484 C477 1.506 . S
C485 C452 1.439 . S
C485 H462 0.931 . S
C485 C486 1.374 . S
C486 C457 1.387 . S
C486 H463 0.931 . S
C486 C485 1.374 . S
C487 O471 1.249 . S
C487 O472 1.264 . S
C488 C491 1.382 . S
C488 C492 1.390 . S
C488 C495 1.506 . S
C489 C490 1.398 . S
C489 C492 1.392 . S
C490 C489 1.398 . S
C490 C493 1.372 . S
C490 H500 0.931 . S
C491 C488 1.382 . S
C491 C493 1.390 . S
C491 H501 0.931 . S
C492 C488 1.390 . S
C492 C489 1.392 . S
C492 H502 0.930 . S
C493 C490 1.372 . S
C493 C491 1.390 . S
C493 H503 0.929 . S
C494 O474 1.255 . S
C494 O475 1.257 . S
C495 Eu431 2.787 1_565 S
C495 O470 1.252 . S
C495 O473 1.268 . S
C495 C488 1.506 . S
H496 C479 0.931 . S
H497 C480 0.931 . S
H498 C481 0.929 . S
H499 C482 0.930 . S
H500 C490 0.931 . S
H501 C491 0.931 . S
H502 C492 0.930 . S
H503 C493 0.929 . S
Eu504 N533 2.600 1_554 S
Eu504 N539 2.562 . S
Eu504 O548 2.462 . S
Eu504 O549 2.373 . S
Eu504 O551 2.432 . S
Eu504 O552 2.291 . S
Eu504 O556 2.335 . S
Eu504 O559 2.372 . S
Eu504 C568 2.787 . S
C505 N506 1.365 . S
C505 C508 1.405 . S
C505 C512 1.448 . S
N506 C505 1.365 . S
N506 C509 1.319 . S
N506 Eu515 2.600 . S
C507 C509 1.397 . S
C507 C510 1.367 . S
C507 H527 0.931 . S
C508 C505 1.405 . S
C508 C510 1.403 . S
C508 C514 1.439 . S
C509 N506 1.319 . S
C509 C507 1.397 . S
C509 H520 0.930 . S
C510 C507 1.367 . S
C510 C508 1.403 . S
C510 H531 0.929 . S
C511 C512 1.430 . S
C511 C513 1.387 . S
C511 C517 1.404 . S
C512 C505 1.448 . S
C512 C511 1.430 . S
C512 N516 1.351 . S
C513 C511 1.387 . S
C513 C514 1.374 . S
C513 H528 0.931 . S
C514 C508 1.439 . S
C514 C513 1.374 . S
C514 H529 0.931 . S
Eu515 N506 2.600 . S
Eu515 N516 2.562 . S
Eu515 O550 2.335 . S
Eu515 O553 2.372 . S
Eu515 O554 2.462 . S
Eu515 O555 2.373 . S
Eu515 O557 2.432 . S
Eu515 O558 2.291 . S
Eu515 C579 2.787 . S
N516 C512 1.351 . S
N516 Eu515 2.562 . S
N516 C518 1.325 . S
C517 C511 1.404 . S
C517 C519 1.366 . S
C517 H525 0.930 . S
C518 N516 1.325 . S
C518 C519 1.416 . S
C518 H524 0.929 . S
C519 C517 1.366 . S
C519 C518 1.416 . S
C519 H521 0.930 . S
H520 C509 0.930 . S
H521 C519 0.930 . S
H522 C537 0.930 . S
H523 C544 0.930 . S
H524 C518 0.929 . S
H525 C517 0.930 . S
H526 C540 0.929 . S
H527 C507 0.931 . S
H528 C513 0.931 . S
H529 C514 0.931 . S
H530 C535 0.931 . S
H531 C510 0.929 . S
H532 C543 0.930 . S
N533 Eu504 2.600 1_556 S
N533 C534 1.365 . S
N533 C537 1.319 . S
C534 N533 1.365 . S
C534 C536 1.405 . S
C534 C542 1.448 1_556 S
C535 H530 0.931 . S
C535 C537 1.397 . S
C535 C538 1.367 . S
C536 C534 1.405 . S
C536 C538 1.403 . S
C536 C569 1.439 . S
C537 H522 0.930 . S
C537 N533 1.319 . S
C537 C535 1.397 . S
C538 C535 1.367 . S
C538 C536 1.403 . S
C538 H545 0.929 . S
N539 Eu504 2.562 . S
N539 C540 1.325 . S
N539 C542 1.351 . S
C540 H526 0.929 . S
C540 N539 1.325 . S
C540 C544 1.416 . S
C541 C542 1.430 . S
C541 C543 1.404 . S
C541 C570 1.387 1_554 S
C542 C534 1.448 1_554 S
C542 N539 1.351 . S
C542 C541 1.430 . S
C543 H532 0.930 . S
C543 C541 1.404 . S
C543 C544 1.366 . S
C544 H523 0.930 . S
C544 C540 1.416 . S
C544 C543 1.366 . S
H545 C538 0.929 . S
H546 C569 0.931 . S
H547 C570 0.931 . S
O548 Eu504 2.462 . S
O548 C568 1.252 . S
O549 Eu504 2.373 . S
O549 C560 1.249 . S
O550 Eu515 2.335 . S
O550 C560 1.264 . S
O551 Eu504 2.432 . S
O551 C568 1.268 . S
O552 Eu504 2.291 . S
O552 C567 1.255 . S
O553 Eu515 2.372 . S
O553 C567 1.257 . S
O554 Eu515 2.462 . S
O554 C579 1.252 . S
O555 Eu515 2.373 . S
O555 C571 1.249 . S
O556 Eu504 2.335 . S
O556 C571 1.264 . S
O557 Eu515 2.432 . S
O557 C579 1.268 . S
O558 Eu515 2.291 . S
O558 C578 1.255 . S
O559 Eu504 2.372 . S
O559 C578 1.257 . S
C560 O549 1.249 . S
C560 O550 1.264 . S
C561 C564 1.382 . S
C561 C566 1.390 . S
C561 C568 1.506 . S
C562 C563 1.398 . S
C562 C566 1.392 . S
C563 C562 1.398 . S
C563 C565 1.372 . S
C563 H580 0.931 . S
C564 C561 1.382 . S
C564 C565 1.390 . S
C564 H581 0.931 . S
C565 C563 1.372 . S
C565 C564 1.390 . S
C565 H582 0.929 . S
C566 C561 1.390 . S
C566 C562 1.392 . S
C566 H583 0.930 . S
C567 O552 1.255 . S
C567 O553 1.257 . S
C568 Eu504 2.787 . S
C568 O548 1.252 . S
C568 O551 1.268 . S
C568 C561 1.506 . S
C569 C536 1.439 . S
C569 H546 0.931 . S
C569 C570 1.374 . S
C570 C541 1.387 1_556 S
C570 H547 0.931 . S
C570 C569 1.374 . S
C571 O555 1.249 . S
C571 O556 1.264 . S
C572 C575 1.382 . S
C572 C576 1.390 . S
C572 C579 1.506 . S
C573 C574 1.398 . S
C573 C576 1.392 . S
C574 C573 1.398 . S
C574 C577 1.372 . S
C574 H584 0.931 . S
C575 C572 1.382 . S
C575 C577 1.390 . S
C575 H585 0.931 . S
C576 C572 1.390 . S
C576 C573 1.392 . S
C576 H586 0.930 . S
C577 C574 1.372 . S
C577 C575 1.390 . S
C577 H587 0.929 . S
C578 O558 1.255 . S
C578 O559 1.257 . S
C579 Eu515 2.787 . S
C579 O554 1.252 . S
C579 O557 1.268 . S
C579 C572 1.506 . S
H580 C563 0.931 . S
H581 C564 0.931 . S
H582 C565 0.929 . S
H583 C566 0.930 . S
H584 C574 0.931 . S
H585 C575 0.931 . S
H586 C576 0.930 . S
H587 C577 0.929 . S
Eu588 N617 2.600 1_554 S
Eu588 N623 2.562 . S
Eu588 O632 2.462 . S
Eu588 O633 2.373 . S
Eu588 O635 2.432 . S
Eu588 O636 2.291 . S
Eu588 O640 2.335 . S
Eu588 O643 2.372 . S
Eu588 C652 2.787 . S
C589 N590 1.365 . S
C589 C592 1.405 . S
C589 C596 1.448 . S
N590 C589 1.365 . S
N590 C593 1.319 . S
N590 Eu599 2.600 . S
C591 C593 1.397 . S
C591 C594 1.367 . S
C591 H611 0.931 . S
C592 C589 1.405 . S
C592 C594 1.403 . S
C592 C598 1.439 . S
C593 N590 1.319 . S
C593 C591 1.397 . S
C593 H604 0.930 . S
C594 C591 1.367 . S
C594 C592 1.403 . S
C594 H615 0.929 . S
C595 C596 1.430 . S
C595 C597 1.387 . S
C595 C601 1.404 . S
C596 C589 1.448 . S
C596 C595 1.430 . S
C596 N600 1.351 . S
C597 C595 1.387 . S
C597 C598 1.374 . S
C597 H612 0.931 . S
C598 C592 1.439 . S
C598 C597 1.374 . S
C598 H613 0.931 . S
Eu599 N590 2.600 . S
Eu599 N600 2.562 . S
Eu599 O634 2.335 . S
Eu599 O637 2.372 . S
Eu599 O638 2.462 . S
Eu599 O639 2.373 . S
Eu599 O641 2.432 . S
Eu599 O642 2.291 . S
Eu599 C663 2.787 . S
N600 C596 1.351 . S
N600 Eu599 2.562 . S
N600 C602 1.325 . S
C601 C595 1.404 . S
C601 C603 1.366 . S
C601 H609 0.930 . S
C602 N600 1.325 . S
C602 C603 1.416 . S
C602 H608 0.929 . S
C603 C601 1.366 . S
C603 C602 1.416 . S
C603 H605 0.930 . S
H604 C593 0.930 . S
H605 C603 0.930 . S
H606 C621 0.930 . S
H607 C628 0.930 . S
H608 C602 0.929 . S
H609 C601 0.930 . S
H610 C624 0.929 . S
H611 C591 0.931 . S
H612 C597 0.931 . S
H613 C598 0.931 . S
H614 C619 0.931 . S
H615 C594 0.929 . S
H616 C627 0.930 . S
N617 Eu588 2.600 1_556 S
N617 C618 1.365 . S
N617 C621 1.319 . S
C618 N617 1.365 . S
C618 C620 1.405 . S
C618 C626 1.448 1_556 S
C619 H614 0.931 . S
C619 C621 1.397 . S
C619 C622 1.367 . S
C620 C618 1.405 . S
C620 C622 1.403 . S
C620 C653 1.439 . S
C621 H606 0.930 . S
C621 N617 1.319 . S
C621 C619 1.397 . S
C622 C619 1.367 . S
C622 C620 1.403 . S
C622 H629 0.929 . S
N623 Eu588 2.562 . S
N623 C624 1.325 . S
N623 C626 1.351 . S
C624 H610 0.929 . S
C624 N623 1.325 . S
C624 C628 1.416 . S
C625 C626 1.430 . S
C625 C627 1.404 . S
C625 C654 1.387 1_554 S
C626 C618 1.448 1_554 S
C626 N623 1.351 . S
C626 C625 1.430 . S
C627 H616 0.930 . S
C627 C625 1.404 . S
C627 C628 1.366 . S
C628 H607 0.930 . S
C628 C624 1.416 . S
C628 C627 1.366 . S
H629 C622 0.929 . S
H630 C653 0.931 . S
H631 C654 0.931 . S
O632 Eu588 2.462 . S
O632 C652 1.252 . S
O633 Eu588 2.373 . S
O633 C644 1.249 . S
O634 Eu599 2.335 . S
O634 C644 1.264 . S
O635 Eu588 2.432 . S
O635 C652 1.268 . S
O636 Eu588 2.291 . S
O636 C651 1.255 . S
O637 Eu599 2.372 . S
O637 C651 1.257 . S
O638 Eu599 2.462 . S
O638 C663 1.252 . S
O639 Eu599 2.373 . S
O639 C655 1.249 . S
O640 Eu588 2.335 . S
O640 C655 1.264 . S
O641 Eu599 2.432 . S
O641 C663 1.268 . S
O642 Eu599 2.291 . S
O642 C662 1.255 . S
O643 Eu588 2.372 . S
O643 C662 1.257 . S
C644 O633 1.249 . S
C644 O634 1.264 . S
C645 C648 1.382 . S
C645 C650 1.390 . S
C645 C652 1.506 . S
C646 C647 1.398 . S
C646 C650 1.392 . S
C647 C646 1.398 . S
C647 C649 1.372 . S
C647 H664 0.931 . S
C648 C645 1.382 . S
C648 C649 1.390 . S
C648 H665 0.931 . S
C649 C647 1.372 . S
C649 C648 1.390 . S
C649 H666 0.929 . S
C650 C645 1.390 . S
C650 C646 1.392 . S
C650 H667 0.930 . S
C651 O636 1.255 . S
C651 O637 1.257 . S
C652 Eu588 2.787 . S
C652 O632 1.252 . S
C652 O635 1.268 . S
C652 C645 1.506 . S
C653 C620 1.439 . S
C653 H630 0.931 . S
C653 C654 1.374 . S
C654 C625 1.387 1_556 S
C654 H631 0.931 . S
C654 C653 1.374 . S
C655 O639 1.249 . S
C655 O640 1.264 . S
C656 C659 1.382 . S
C656 C660 1.390 . S
C656 C663 1.506 . S
C657 C658 1.398 . S
C657 C660 1.392 . S
C658 C657 1.398 . S
C658 C661 1.372 . S
C658 H668 0.931 . S
C659 C656 1.382 . S
C659 C661 1.390 . S
C659 H669 0.931 . S
C660 C656 1.390 . S
C660 C657 1.392 . S
C660 H670 0.930 . S
C661 C658 1.372 . S
C661 C659 1.390 . S
C661 H671 0.929 . S
C662 O642 1.255 . S
C662 O643 1.257 . S
C663 Eu599 2.787 . S
C663 O638 1.252 . S
C663 O641 1.268 . S
C663 C656 1.506 . S
H664 C647 0.931 . S
H665 C648 0.931 . S
H666 C649 0.929 . S
H667 C650 0.930 . S
H668 C658 0.931 . S
H669 C659 0.931 . S
H670 C660 0.930 . S
H671 C661 0.929 . S
Eu672 N701 2.600 . S
Eu672 N707 2.562 . S
Eu672 O716 2.462 . S
Eu672 O717 2.373 . S
Eu672 O719 2.432 . S
Eu672 O720 2.291 . S
Eu672 O724 2.335 . S
Eu672 O727 2.372 . S
Eu672 C736 2.787 . S
C673 N674 1.365 . S
C673 C676 1.405 . S
C673 C680 1.448 . S
N674 C673 1.365 . S
N674 C677 1.319 . S
N674 Eu683 2.600 . S
C675 C677 1.397 . S
C675 C678 1.367 . S
C675 H695 0.931 . S
C676 C673 1.405 . S
C676 C678 1.403 . S
C676 C682 1.439 . S
C677 N674 1.319 . S
C677 C675 1.397 . S
C677 H688 0.930 . S
C678 C675 1.367 . S
C678 C676 1.403 . S
C678 H699 0.929 . S
C679 C680 1.430 . S
C679 C681 1.387 . S
C679 C685 1.404 . S
C680 C673 1.448 . S
C680 C679 1.430 . S
C680 N684 1.351 . S
C681 C679 1.387 . S
C681 C682 1.374 . S
C681 H696 0.931 . S
C682 C676 1.439 . S
C682 C681 1.374 . S
C682 H697 0.931 . S
Eu683 N674 2.600 . S
Eu683 N684 2.562 . S
Eu683 O718 2.335 . S
Eu683 O721 2.372 . S
Eu683 O722 2.462 . S
Eu683 O723 2.373 . S
Eu683 O725 2.432 . S
Eu683 O726 2.291 . S
Eu683 C747 2.787 . S
N684 C680 1.351 . S
N684 Eu683 2.562 . S
N684 C686 1.325 . S
C685 C679 1.404 . S
C685 C687 1.366 . S
C685 H693 0.930 . S
C686 N684 1.325 . S
C686 C687 1.416 . S
C686 H692 0.929 . S
C687 C685 1.366 . S
C687 C686 1.416 . S
C687 H689 0.930 . S
H688 C677 0.930 . S
H689 C687 0.930 . S
H690 C705 0.930 . S
H691 C712 0.930 . S
H692 C686 0.929 . S
H693 C685 0.930 . S
H694 C708 0.929 . S
H695 C675 0.931 . S
H696 C681 0.931 . S
H697 C682 0.931 . S
H698 C703 0.931 . S
H699 C678 0.929 . S
H700 C711 0.930 . S
N701 Eu672 2.600 . S
N701 C702 1.365 . S
N701 C705 1.319 . S
C702 N701 1.365 . S
C702 C704 1.405 . S
C702 C710 1.448 . S
C703 H698 0.931 . S
C703 C705 1.397 . S
C703 C706 1.367 . S
C704 C702 1.405 . S
C704 C706 1.403 . S
C704 C737 1.439 . S
C705 H690 0.930 . S
C705 N701 1.319 . S
C705 C703 1.397 . S
C706 C703 1.367 . S
C706 C704 1.403 . S
C706 H713 0.929 . S
N707 Eu672 2.562 . S
N707 C708 1.325 . S
N707 C710 1.351 . S
C708 H694 0.929 . S
C708 N707 1.325 . S
C708 C712 1.416 . S
C709 C710 1.430 . S
C709 C711 1.404 . S
C709 C738 1.387 . S
C710 C702 1.448 . S
C710 N707 1.351 . S
C710 C709 1.430 . S
C711 H700 0.930 . S
C711 C709 1.404 . S
C711 C712 1.366 . S
C712 H691 0.930 . S
C712 C708 1.416 . S
C712 C711 1.366 . S
H713 C706 0.929 . S
H714 C737 0.931 . S
H715 C738 0.931 . S
O716 Eu672 2.462 . S
O716 C736 1.252 . S
O717 Eu672 2.373 . S
O717 C728 1.249 . S
O718 Eu683 2.335 . S
O718 C728 1.264 . S
O719 Eu672 2.432 . S
O719 C736 1.268 . S
O720 Eu672 2.291 . S
O720 C735 1.255 . S
O721 Eu683 2.372 . S
O721 C735 1.257 . S
O722 Eu683 2.462 . S
O722 C747 1.252 . S
O723 Eu683 2.373 . S
O723 C739 1.249 . S
O724 Eu672 2.335 . S
O724 C739 1.264 . S
O725 Eu683 2.432 . S
O725 C747 1.268 . S
O726 Eu683 2.291 . S
O726 C746 1.255 . S
O727 Eu672 2.372 . S
O727 C746 1.257 . S
C728 O717 1.249 . S
C728 O718 1.264 . S
C729 C732 1.382 . S
C729 C734 1.390 . S
C729 C736 1.506 . S
C730 C731 1.398 . S
C730 C734 1.392 . S
C731 C730 1.398 . S
C731 C733 1.372 . S
C731 H748 0.931 . S
C732 C729 1.382 . S
C732 C733 1.390 . S
C732 H749 0.931 . S
C733 C731 1.372 . S
C733 C732 1.390 . S
C733 H750 0.929 . S
C734 C729 1.390 . S
C734 C730 1.392 . S
C734 H751 0.930 . S
C735 O720 1.255 . S
C735 O721 1.257 . S
C736 Eu672 2.787 . S
C736 O716 1.252 . S
C736 O719 1.268 . S
C736 C729 1.506 . S
C737 C704 1.439 . S
C737 H714 0.931 . S
C737 C738 1.374 . S
C738 C709 1.387 . S
C738 H715 0.931 . S
C738 C737 1.374 . S
C739 O723 1.249 . S
C739 O724 1.264 . S
C740 C743 1.382 . S
C740 C744 1.390 . S
C740 C747 1.506 . S
C741 C742 1.398 . S
C741 C744 1.392 . S
C742 C741 1.398 . S
C742 C745 1.372 . S
C742 H752 0.931 . S
C743 C740 1.382 . S
C743 C745 1.390 . S
C743 H753 0.931 . S
C744 C740 1.390 . S
C744 C741 1.392 . S
C744 H754 0.930 . S
C745 C742 1.372 . S
C745 C743 1.390 . S
C745 H755 0.929 . S
C746 O726 1.255 . S
C746 O727 1.257 . S
C747 Eu683 2.787 . S
C747 O722 1.252 . S
C747 O725 1.268 . S
C747 C740 1.506 . S
H748 C731 0.931 . S
H749 C732 0.931 . S
H750 C733 0.929 . S
H751 C734 0.930 . S
H752 C742 0.931 . S
H753 C743 0.931 . S
H754 C744 0.930 . S
H755 C745 0.929 . S
Eu756 N785 2.600 . S
Eu756 N791 2.562 . S
Eu756 O800 2.462 . S
Eu756 O801 2.373 . S
Eu756 O803 2.432 . S
Eu756 O804 2.291 . S
Eu756 O808 2.335 . S
Eu756 O811 2.372 . S
Eu756 C820 2.787 . S
C757 N758 1.365 . S
C757 C760 1.405 . S
C757 C764 1.448 . S
N758 C757 1.365 . S
N758 C761 1.319 . S
N758 Eu767 2.600 . S
C759 C761 1.397 . S
C759 C762 1.367 . S
C759 H779 0.931 . S
C760 C757 1.405 . S
C760 C762 1.403 . S
C760 C766 1.439 . S
C761 N758 1.319 . S
C761 C759 1.397 . S
C761 H772 0.930 . S
C762 C759 1.367 . S
C762 C760 1.403 . S
C762 H783 0.929 . S
C763 C764 1.430 . S
C763 C765 1.387 . S
C763 C769 1.404 . S
C764 C757 1.448 . S
C764 C763 1.430 . S
C764 N768 1.351 . S
C765 C763 1.387 . S
C765 C766 1.374 . S
C765 H780 0.931 . S
C766 C760 1.439 . S
C766 C765 1.374 . S
C766 H781 0.931 . S
Eu767 N758 2.600 . S
Eu767 N768 2.562 . S
Eu767 O802 2.335 . S
Eu767 O805 2.372 . S
Eu767 O806 2.462 . S
Eu767 O807 2.373 . S
Eu767 O809 2.432 . S
Eu767 O810 2.291 . S
Eu767 C831 2.787 . S
N768 C764 1.351 . S
N768 Eu767 2.562 . S
N768 C770 1.325 . S
C769 C763 1.404 . S
C769 C771 1.366 . S
C769 H777 0.930 . S
C770 N768 1.325 . S
C770 C771 1.416 . S
C770 H776 0.929 . S
C771 C769 1.366 . S
C771 C770 1.416 . S
C771 H773 0.930 . S
H772 C761 0.930 . S
H773 C771 0.930 . S
H774 C789 0.930 . S
H775 C796 0.930 . S
H776 C770 0.929 . S
H777 C769 0.930 . S
H778 C792 0.929 . S
H779 C759 0.931 . S
H780 C765 0.931 . S
H781 C766 0.931 . S
H782 C787 0.931 . S
H783 C762 0.929 . S
H784 C795 0.930 . S
N785 Eu756 2.600 . S
N785 C786 1.365 . S
N785 C789 1.319 . S
C786 N785 1.365 . S
C786 C788 1.405 . S
C786 C794 1.448 . S
C787 H782 0.931 . S
C787 C789 1.397 . S
C787 C790 1.367 . S
C788 C786 1.405 . S
C788 C790 1.403 . S
C788 C821 1.439 . S
C789 H774 0.930 . S
C789 N785 1.319 . S
C789 C787 1.397 . S
C790 C787 1.367 . S
C790 C788 1.403 . S
C790 H797 0.929 . S
N791 Eu756 2.562 . S
N791 C792 1.325 . S
N791 C794 1.351 . S
C792 H778 0.929 . S
C792 N791 1.325 . S
C792 C796 1.416 . S
C793 C794 1.430 . S
C793 C795 1.404 . S
C793 C822 1.387 . S
C794 C786 1.448 . S
C794 N791 1.351 . S
C794 C793 1.430 . S
C795 H784 0.930 . S
C795 C793 1.404 . S
C795 C796 1.366 . S
C796 H775 0.930 . S
C796 C792 1.416 . S
C796 C795 1.366 . S
H797 C790 0.929 . S
H798 C821 0.931 . S
H799 C822 0.931 . S
O800 Eu756 2.462 . S
O800 C820 1.252 . S
O801 Eu756 2.373 . S
O801 C812 1.249 . S
O802 Eu767 2.335 . S
O802 C812 1.264 . S
O803 Eu756 2.432 . S
O803 C820 1.268 . S
O804 Eu756 2.291 . S
O804 C819 1.255 . S
O805 Eu767 2.372 . S
O805 C819 1.257 . S
O806 Eu767 2.462 . S
O806 C831 1.252 . S
O807 Eu767 2.373 . S
O807 C823 1.249 . S
O808 Eu756 2.335 . S
O808 C823 1.264 . S
O809 Eu767 2.432 . S
O809 C831 1.268 . S
O810 Eu767 2.291 . S
O810 C830 1.255 . S
O811 Eu756 2.372 . S
O811 C830 1.257 . S
C812 O801 1.249 . S
C812 O802 1.264 . S
C813 C816 1.382 . S
C813 C818 1.390 . S
C813 C820 1.506 . S
C814 C815 1.398 . S
C814 C818 1.392 . S
C815 C814 1.398 . S
C815 C817 1.372 . S
C815 H832 0.931 . S
C816 C813 1.382 . S
C816 C817 1.390 . S
C816 H833 0.931 . S
C817 C815 1.372 . S
C817 C816 1.390 . S
C817 H834 0.929 . S
C818 C813 1.390 . S
C818 C814 1.392 . S
C818 H835 0.930 . S
C819 O804 1.255 . S
C819 O805 1.257 . S
C820 Eu756 2.787 . S
C820 O800 1.252 . S
C820 O803 1.268 . S
C820 C813 1.506 . S
C821 C788 1.439 . S
C821 H798 0.931 . S
C821 C822 1.374 . S
C822 C793 1.387 . S
C822 H799 0.931 . S
C822 C821 1.374 . S
C823 O807 1.249 . S
C823 O808 1.264 . S
C824 C827 1.382 . S
C824 C828 1.390 . S
C824 C831 1.506 . S
C825 C826 1.398 . S
C825 C828 1.392 . S
C826 C825 1.398 . S
C826 C829 1.372 . S
C826 H836 0.931 . S
C827 C824 1.382 . S
C827 C829 1.390 . S
C827 H837 0.931 . S
C828 C824 1.390 . S
C828 C825 1.392 . S
C828 H838 0.930 . S
C829 C826 1.372 . S
C829 C827 1.390 . S
C829 H839 0.929 . S
C830 O810 1.255 . S
C830 O811 1.257 . S
C831 Eu767 2.787 . S
C831 O806 1.252 . S
C831 O809 1.268 . S
C831 C824 1.506 . S
H832 C815 0.931 . S
H833 C816 0.931 . S
H834 C817 0.929 . S
H835 C818 0.930 . S
H836 C826 0.931 . S
H837 C827 0.931 . S
H838 C828 0.930 . S
H839 C829 0.929 . S
Eu840 N869 2.600 . S
Eu840 N875 2.562 1_455 S
Eu840 O884 2.462 1_455 S
Eu840 O885 2.373 . S
Eu840 O887 2.432 1_455 S
Eu840 O888 2.291 . S
Eu840 O892 2.335 . S
Eu840 O895 2.372 . S
Eu840 C904 2.787 1_455 S
C841 N842 1.365 . S
C841 C844 1.405 . S
C841 C848 1.448 . S
N842 C841 1.365 . S
N842 C845 1.319 . S
N842 Eu851 2.600 . S
C843 C845 1.397 . S
C843 C846 1.367 . S
C843 H863 0.931 . S
C844 C841 1.405 . S
C844 C846 1.403 . S
C844 C850 1.439 . S
C845 N842 1.319 . S
C845 C843 1.397 . S
C845 H856 0.930 . S
C846 C843 1.367 . S
C846 C844 1.403 . S
C846 H867 0.929 . S
C847 C848 1.430 . S
C847 C849 1.387 . S
C847 C853 1.404 . S
C848 C841 1.448 . S
C848 C847 1.430 . S
C848 N852 1.351 . S
C849 C847 1.387 . S
C849 C850 1.374 . S
C849 H864 0.931 . S
C850 C844 1.439 . S
C850 C849 1.374 . S
C850 H865 0.931 . S
Eu851 N842 2.600 . S
Eu851 N852 2.562 . S
Eu851 O886 2.335 . S
Eu851 O889 2.372 . S
Eu851 O890 2.462 . S
Eu851 O891 2.373 . S
Eu851 O893 2.432 . S
Eu851 O894 2.291 . S
Eu851 C915 2.787 . S
N852 C848 1.351 . S
N852 Eu851 2.562 . S
N852 C854 1.325 . S
C853 C847 1.404 . S
C853 C855 1.366 . S
C853 H861 0.930 . S
C854 N852 1.325 . S
C854 C855 1.416 . S
C854 H860 0.929 . S
C855 C853 1.366 . S
C855 C854 1.416 . S
C855 H857 0.930 . S
H856 C845 0.930 . S
H857 C855 0.930 . S
H858 C873 0.930 . S
H859 C880 0.930 . S
H860 C854 0.929 . S
H861 C853 0.930 . S
H862 C876 0.929 . S
H863 C843 0.931 . S
H864 C849 0.931 . S
H865 C850 0.931 . S
H866 C871 0.931 . S
H867 C846 0.929 . S
H868 C879 0.930 . S
N869 Eu840 2.600 . S
N869 C870 1.365 . S
N869 C873 1.319 . S
C870 N869 1.365 . S
C870 C872 1.405 . S
C870 C878 1.448 1_455 S
C871 H866 0.931 . S
C871 C873 1.397 . S
C871 C874 1.367 . S
C872 C870 1.405 . S
C872 C874 1.403 . S
C872 C905 1.439 1_455 S
C873 H858 0.930 . S
C873 N869 1.319 . S
C873 C871 1.397 . S
C874 C871 1.367 . S
C874 C872 1.403 . S
C874 H881 0.929 . S
N875 Eu840 2.562 1_655 S
N875 C876 1.325 . S
N875 C878 1.351 . S
C876 H862 0.929 . S
C876 N875 1.325 . S
C876 C880 1.416 . S
C877 C878 1.430 . S
C877 C879 1.404 . S
C877 C906 1.387 . S
C878 C870 1.448 1_655 S
C878 N875 1.351 . S
C878 C877 1.430 . S
C879 H868 0.930 . S
C879 C877 1.404 . S
C879 C880 1.366 . S
C880 H859 0.930 . S
C880 C876 1.416 . S
C880 C879 1.366 . S
H881 C874 0.929 . S
H882 C905 0.931 . S
H883 C906 0.931 . S
O884 Eu840 2.462 1_655 S
O884 C904 1.252 . S
O885 Eu840 2.373 . S
O885 C896 1.249 . S
O886 Eu851 2.335 . S
O886 C896 1.264 . S
O887 Eu840 2.432 1_655 S
O887 C904 1.268 . S
O888 Eu840 2.291 . S
O888 C903 1.255 . S
O889 Eu851 2.372 . S
O889 C903 1.257 . S
O890 Eu851 2.462 . S
O890 C915 1.252 . S
O891 Eu851 2.373 . S
O891 C907 1.249 . S
O892 Eu840 2.335 . S
O892 C907 1.264 . S
O893 Eu851 2.432 . S
O893 C915 1.268 . S
O894 Eu851 2.291 . S
O894 C914 1.255 . S
O895 Eu840 2.372 . S
O895 C914 1.257 . S
C896 O885 1.249 . S
C896 O886 1.264 . S
C897 C900 1.382 . S
C897 C902 1.390 . S
C897 C904 1.506 . S
C898 C899 1.398 . S
C898 C902 1.392 . S
C899 C898 1.398 . S
C899 C901 1.372 . S
C899 H916 0.931 . S
C900 C897 1.382 . S
C900 C901 1.390 . S
C900 H917 0.931 . S
C901 C899 1.372 . S
C901 C900 1.390 . S
C901 H918 0.929 . S
C902 C897 1.390 . S
C902 C898 1.392 . S
C902 H919 0.930 . S
C903 O888 1.255 . S
C903 O889 1.257 . S
C904 Eu840 2.787 1_655 S
C904 O884 1.252 . S
C904 O887 1.268 . S
C904 C897 1.506 . S
C905 C872 1.439 1_655 S
C905 H882 0.931 . S
C905 C906 1.374 . S
C906 C877 1.387 . S
C906 H883 0.931 . S
C906 C905 1.374 . S
C907 O891 1.249 . S
C907 O892 1.264 . S
C908 C911 1.382 . S
C908 C912 1.390 . S
C908 C915 1.506 . S
C909 C910 1.398 . S
C909 C912 1.392 . S
C910 C909 1.398 . S
C910 C913 1.372 . S
C910 H920 0.931 . S
C911 C908 1.382 . S
C911 C913 1.390 . S
C911 H921 0.931 . S
C912 C908 1.390 . S
C912 C909 1.392 . S
C912 H922 0.930 . S
C913 C910 1.372 . S
C913 C911 1.390 . S
C913 H923 0.929 . S
C914 O894 1.255 . S
C914 O895 1.257 . S
C915 Eu851 2.787 . S
C915 O890 1.252 . S
C915 O893 1.268 . S
C915 C908 1.506 . S
H916 C899 0.931 . S
H917 C900 0.931 . S
H918 C901 0.929 . S
H919 C902 0.930 . S
H920 C910 0.931 . S
H921 C911 0.931 . S
H922 C912 0.930 . S
H923 C913 0.929 . S
Eu924 N953 2.600 . S
Eu924 N959 2.562 . S
Eu924 O968 2.462 . S
Eu924 O969 2.373 . S
Eu924 O971 2.432 . S
Eu924 O972 2.291 . S
Eu924 O976 2.335 . S
Eu924 O979 2.372 . S
Eu924 C988 2.787 . S
C925 N926 1.365 . S
C925 C928 1.405 . S
C925 C932 1.448 . S
N926 C925 1.365 . S
N926 C929 1.319 . S
N926 Eu935 2.600 . S
C927 C929 1.397 . S
C927 C930 1.367 . S
C927 H947 0.931 . S
C928 C925 1.405 . S
C928 C930 1.403 . S
C928 C934 1.439 . S
C929 N926 1.319 . S
C929 C927 1.397 . S
C929 H940 0.930 . S
C930 C927 1.367 . S
C930 C928 1.403 . S
C930 H951 0.929 . S
C931 C932 1.430 . S
C931 C933 1.387 . S
C931 C937 1.404 . S
C932 C925 1.448 . S
C932 C931 1.430 . S
C932 N936 1.351 . S
C933 C931 1.387 . S
C933 C934 1.374 . S
C933 H948 0.931 . S
C934 C928 1.439 . S
C934 C933 1.374 . S
C934 H949 0.931 . S
Eu935 N926 2.600 . S
Eu935 N936 2.562 . S
Eu935 O970 2.335 1_545 S
Eu935 O973 2.372 . S
Eu935 O974 2.462 1_545 S
Eu935 O975 2.373 . S
Eu935 O977 2.432 1_545 S
Eu935 O978 2.291 . S
Eu935 C999 2.787 1_545 S
N936 C932 1.351 . S
N936 Eu935 2.562 . S
N936 C938 1.325 . S
C937 C931 1.404 . S
C937 C939 1.366 . S
C937 H945 0.930 . S
C938 N936 1.325 . S
C938 C939 1.416 . S
C938 H944 0.929 . S
C939 C937 1.366 . S
C939 C938 1.416 . S
C939 H941 0.930 . S
H940 C929 0.930 . S
H941 C939 0.930 . S
H942 C957 0.930 . S
H943 C964 0.930 . S
H944 C938 0.929 . S
H945 C937 0.930 . S
H946 C960 0.929 . S
H947 C927 0.931 . S
H948 C933 0.931 . S
H949 C934 0.931 . S
H950 C955 0.931 . S
H951 C930 0.929 . S
H952 C963 0.930 . S
N953 Eu924 2.600 . S
N953 C954 1.365 . S
N953 C957 1.319 . S
C954 N953 1.365 . S
C954 C956 1.405 . S
C954 C962 1.448 . S
C955 H950 0.931 . S
C955 C957 1.397 . S
C955 C958 1.367 . S
C956 C954 1.405 . S
C956 C958 1.403 . S
C956 C989 1.439 . S
C957 H942 0.930 . S
C957 N953 1.319 . S
C957 C955 1.397 . S
C958 C955 1.367 . S
C958 C956 1.403 . S
C958 H965 0.929 . S
N959 Eu924 2.562 . S
N959 C960 1.325 . S
N959 C962 1.351 . S
C960 H946 0.929 . S
C960 N959 1.325 . S
C960 C964 1.416 . S
C961 C962 1.430 . S
C961 C963 1.404 . S
C961 C990 1.387 . S
C962 C954 1.448 . S
C962 N959 1.351 . S
C962 C961 1.430 . S
C963 H952 0.930 . S
C963 C961 1.404 . S
C963 C964 1.366 . S
C964 H943 0.930 . S
C964 C960 1.416 . S
C964 C963 1.366 . S
H965 C958 0.929 . S
H966 C989 0.931 . S
H967 C990 0.931 . S
O968 Eu924 2.462 . S
O968 C988 1.252 . S
O969 Eu924 2.373 . S
O969 C980 1.265 . S
O970 Eu935 2.335 1_565 S
O970 C980 1.259 1_565 S
O971 Eu924 2.432 . S
O971 C988 1.268 . S
O972 Eu924 2.291 . S
O972 C987 1.255 . S
O973 Eu935 2.372 . S
O973 C987 1.257 . S
O974 Eu935 2.462 1_565 S
O974 C999 1.252 . S
O975 Eu935 2.373 . S
O975 C991 1.249 . S
O976 Eu924 2.335 . S
O976 C991 1.264 . S
O977 Eu935 2.432 1_565 S
O977 C999 1.268 . S
O978 Eu935 2.291 . S
O978 C998 1.255 . S
O979 Eu924 2.372 . S
O979 C998 1.257 . S
C980 O969 1.265 . S
C980 O970 1.259 1_545 S
C981 C984 1.382 . S
C981 C986 1.390 . S
C981 C988 1.506 . S
C982 C983 1.398 . S
C982 C986 1.392 . S
C983 C982 1.398 . S
C983 C985 1.372 . S
C983 H1000 0.931 . S
C984 C981 1.382 . S
C984 C985 1.390 . S
C984 H1001 0.931 . S
C985 C983 1.372 . S
C985 C984 1.390 . S
C985 H1002 0.929 . S
C986 C981 1.390 . S
C986 C982 1.392 . S
C986 H1003 0.930 . S
C987 O972 1.255 . S
C987 O973 1.257 . S
C988 Eu924 2.787 . S
C988 O968 1.252 . S
C988 O971 1.268 . S
C988 C981 1.506 . S
C989 C956 1.439 . S
C989 H966 0.931 . S
C989 C990 1.374 . S
C990 C961 1.387 . S
C990 H967 0.931 . S
C990 C989 1.374 . S
C991 O975 1.249 . S
C991 O976 1.264 . S
C992 C995 1.382 . S
C992 C996 1.390 . S
C992 C999 1.506 . S
C993 C994 1.398 . S
C993 C996 1.392 . S
C994 C993 1.398 . S
C994 C997 1.372 . S
C994 H1004 0.931 . S
C995 C992 1.382 . S
C995 C997 1.390 . S
C995 H1005 0.931 . S
C996 C992 1.390 . S
C996 C993 1.392 . S
C996 H1006 0.930 . S
C997 C994 1.372 . S
C997 C995 1.390 . S
C997 H1007 0.929 . S
C998 O978 1.255 . S
C998 O979 1.257 . S
C999 Eu935 2.787 1_565 S
C999 O974 1.252 . S
C999 O977 1.268 . S
C999 C992 1.506 . S
H1000 C983 0.931 . S
H1001 C984 0.931 . S
H1002 C985 0.929 . S
H1003 C986 0.930 . S
H1004 C994 0.931 . S
H1005 C995 0.931 . S
H1006 C996 0.930 . S
H1007 C997 0.929 . S
Eu1008 N1037 2.600 1_556 S
Eu1008 N1043 2.562 1_655 S
Eu1008 O1052 2.462 1_655 S
Eu1008 O1053 2.373 . S
Eu1008 O1055 2.432 1_655 S
Eu1008 O1056 2.291 . S
Eu1008 O1060 2.335 . S
Eu1008 O1063 2.372 . S
Eu1008 C1072 2.787 1_655 S
C1009 N1010 1.365 . S
C1009 C1012 1.405 . S
C1009 C1016 1.448 . S
N1010 C1009 1.365 . S
N1010 C1013 1.319 . S
N1010 Eu1019 2.600 . S
C1011 C1013 1.397 . S
C1011 C1014 1.367 . S
C1011 H1031 0.931 . S
C1012 C1009 1.405 . S
C1012 C1014 1.403 . S
C1012 C1018 1.439 . S
C1013 N1010 1.319 . S
C1013 C1011 1.397 . S
C1013 H1024 0.930 . S
C1014 C1011 1.367 . S
C1014 C1012 1.403 . S
C1014 H1035 0.929 . S
C1015 C1016 1.430 . S
C1015 C1017 1.387 . S
C1015 C1021 1.404 . S
C1016 C1009 1.448 . S
C1016 C1015 1.430 . S
C1016 N1020 1.351 . S
C1017 C1015 1.387 . S
C1017 C1018 1.374 . S
C1017 H1032 0.931 . S
C1018 C1012 1.439 . S
C1018 C1017 1.374 . S
C1018 H1033 0.931 . S
Eu1019 N1010 2.600 . S
Eu1019 N1020 2.562 . S
Eu1019 O1054 2.335 . S
Eu1019 O1057 2.372 . S
Eu1019 O1058 2.462 . S
Eu1019 O1059 2.373 . S
Eu1019 O1061 2.432 . S
Eu1019 O1062 2.291 . S
Eu1019 C1083 2.787 . S
N1020 C1016 1.351 . S
N1020 Eu1019 2.562 . S
N1020 C1022 1.325 . S
C1021 C1015 1.404 . S
C1021 C1023 1.366 . S
C1021 H1029 0.930 . S
C1022 N1020 1.325 . S
C1022 C1023 1.416 . S
C1022 H1028 0.929 . S
C1023 C1021 1.366 . S
C1023 C1022 1.416 . S
C1023 H1025 0.930 . S
H1024 C1013 0.930 . S
H1025 C1023 0.930 . S
H1026 C1041 0.930 1_556 S
H1027 C1048 0.930 1_556 S
H1028 C1022 0.929 . S
H1029 C1021 0.930 . S
H1030 C1044 0.929 . S
H1031 C1011 0.931 . S
H1032 C1017 0.931 . S
H1033 C1018 0.931 . S
H1034 C1039 0.931 . S
H1035 C1014 0.929 . S
H1036 C1047 0.930 . S
N1037 Eu1008 2.600 1_554 S
N1037 C1038 1.365 . S
N1037 C1041 1.319 . S
C1038 N1037 1.365 . S
C1038 C1040 1.405 . S
C1038 C1046 1.448 1_655 S
C1039 H1034 0.931 . S
C1039 C1041 1.397 . S
C1039 C1042 1.367 . S
C1040 C1038 1.405 . S
C1040 C1042 1.403 . S
C1040 C1073 1.439 1_655 S
C1041 H1026 0.930 1_554 S
C1041 N1037 1.319 . S
C1041 C1039 1.397 . S
C1042 C1039 1.367 . S
C1042 C1040 1.403 . S
C1042 H1049 0.929 . S
N1043 Eu1008 2.562 1_455 S
N1043 C1044 1.325 . S
N1043 C1046 1.351 1_556 S
C1044 H1030 0.929 . S
C1044 N1043 1.325 . S
C1044 C1048 1.416 1_556 S
C1045 C1046 1.430 . S
C1045 C1047 1.404 . S
C1045 C1074 1.387 . S
C1046 C1038 1.448 1_455 S
C1046 N1043 1.351 1_554 S
C1046 C1045 1.430 . S
C1047 H1036 0.930 . S
C1047 C1045 1.404 . S
C1047 C1048 1.366 . S
C1048 H1027 0.930 1_554 S
C1048 C1044 1.416 1_554 S
C1048 C1047 1.366 . S
H1049 C1042 0.929 . S
H1050 C1073 0.931 . S
H1051 C1074 0.931 . S
O1052 Eu1008 2.462 1_455 S
O1052 C1072 1.252 . S
O1053 Eu1008 2.373 . S
O1053 C1064 1.249 . S
O1054 Eu1019 2.335 . S
O1054 C1064 1.264 . S
O1055 Eu1008 2.432 1_455 S
O1055 C1072 1.268 . S
O1056 Eu1008 2.291 . S
O1056 C1071 1.255 . S
O1057 Eu1019 2.372 . S
O1057 C1071 1.257 . S
O1058 Eu1019 2.462 . S
O1058 C1083 1.252 . S
O1059 Eu1019 2.373 . S
O1059 C1075 1.249 . S
O1060 Eu1008 2.335 . S
O1060 C1075 1.264 . S
O1061 Eu1019 2.432 . S
O1061 C1083 1.268 . S
O1062 Eu1019 2.291 . S
O1062 C1082 1.255 . S
O1063 Eu1008 2.372 . S
O1063 C1082 1.257 . S
C1064 O1053 1.249 . S
C1064 O1054 1.264 . S
C1065 C1068 1.382 . S
C1065 C1070 1.390 . S
C1065 C1072 1.506 . S
C1066 C1067 1.398 . S
C1066 C1070 1.392 . S
C1067 C1066 1.398 . S
C1067 C1069 1.372 . S
C1067 H1084 0.931 . S
C1068 C1065 1.382 . S
C1068 C1069 1.390 . S
C1068 H1085 0.931 . S
C1069 C1067 1.372 . S
C1069 C1068 1.390 . S
C1069 H1086 0.929 . S
C1070 C1065 1.390 . S
C1070 C1066 1.392 . S
C1070 H1087 0.930 . S
C1071 O1056 1.255 . S
C1071 O1057 1.257 . S
C1072 Eu1008 2.787 1_455 S
C1072 O1052 1.252 . S
C1072 O1055 1.268 . S
C1072 C1065 1.506 . S
C1073 C1040 1.439 1_455 S
C1073 H1050 0.931 . S
C1073 C1074 1.374 . S
C1074 C1045 1.387 . S
C1074 H1051 0.931 . S
C1074 C1073 1.374 . S
C1075 O1059 1.249 . S
C1075 O1060 1.264 . S
C1076 C1079 1.382 . S
C1076 C1080 1.390 . S
C1076 C1083 1.506 . S
C1077 C1078 1.398 . S
C1077 C1080 1.392 . S
C1078 C1077 1.398 . S
C1078 C1081 1.372 . S
C1078 H1088 0.931 . S
C1079 C1076 1.382 . S
C1079 C1081 1.390 . S
C1079 H1089 0.931 . S
C1080 C1076 1.390 . S
C1080 C1077 1.392 . S
C1080 H1090 0.930 . S
C1081 C1078 1.372 . S
C1081 C1079 1.390 . S
C1081 H1091 0.929 . S
C1082 O1062 1.255 . S
C1082 O1063 1.257 . S
C1083 Eu1019 2.787 . S
C1083 O1058 1.252 . S
C1083 O1061 1.268 . S
C1083 C1076 1.506 . S
H1084 C1067 0.931 . S
H1085 C1068 0.931 . S
H1086 C1069 0.929 . S
H1087 C1070 0.930 . S
H1088 C1078 0.931 . S
H1089 C1079 0.931 . S
H1090 C1080 0.930 . S
H1091 C1081 0.929 . S
Eu1092 N1121 2.600 1_556 S
Eu1092 N1127 2.562 1_565 S
Eu1092 O1136 2.462 1_565 S
Eu1092 O1137 2.373 . S
Eu1092 O1139 2.432 1_565 S
Eu1092 O1140 2.291 . S
Eu1092 O1144 2.335 . S
Eu1092 O1147 2.372 . S
Eu1092 C1156 2.787 1_565 S
C1093 N1094 1.365 . S
C1093 C1096 1.405 . S
C1093 C1100 1.448 . S
N1094 C1093 1.365 . S
N1094 C1097 1.319 . S
N1094 Eu1103 2.600 . S
C1095 C1097 1.397 . S
C1095 C1098 1.367 . S
C1095 H1115 0.931 . S
C1096 C1093 1.405 . S
C1096 C1098 1.403 . S
C1096 C1102 1.439 . S
C1097 N1094 1.319 . S
C1097 C1095 1.397 . S
C1097 H1108 0.930 . S
C1098 C1095 1.367 . S
C1098 C1096 1.403 . S
C1098 H1119 0.929 . S
C1099 C1100 1.430 . S
C1099 C1101 1.387 . S
C1099 C1105 1.404 . S
C1100 C1093 1.448 . S
C1100 C1099 1.430 . S
C1100 N1104 1.351 . S
C1101 C1099 1.387 . S
C1101 C1102 1.374 . S
C1101 H1116 0.931 . S
C1102 C1096 1.439 . S
C1102 C1101 1.374 . S
C1102 H1117 0.931 . S
Eu1103 N1094 2.600 . S
Eu1103 N1104 2.562 . S
Eu1103 O1138 2.335 . S
Eu1103 O1141 2.372 . S
Eu1103 O1142 2.462 . S
Eu1103 O1143 2.373 . S
Eu1103 O1145 2.432 . S
Eu1103 O1146 2.291 . S
Eu1103 C1167 2.787 . S
N1104 C1100 1.351 . S
N1104 Eu1103 2.562 . S
N1104 C1106 1.325 . S
C1105 C1099 1.404 . S
C1105 C1107 1.366 . S
C1105 H1113 0.930 . S
C1106 N1104 1.325 . S
C1106 C1107 1.416 . S
C1106 H1112 0.929 . S
C1107 C1105 1.366 . S
C1107 C1106 1.416 . S
C1107 H1109 0.930 . S
H1108 C1097 0.930 . S
H1109 C1107 0.930 . S
H1110 C1125 0.930 1_556 S
H1111 C1132 0.930 1_556 S
H1112 C1106 0.929 . S
H1113 C1105 0.930 . S
H1114 C1128 0.929 . S
H1115 C1095 0.931 . S
H1116 C1101 0.931 . S
H1117 C1102 0.931 . S
H1118 C1123 0.931 . S
H1119 C1098 0.929 . S
H1120 C1131 0.930 . S
N1121 Eu1092 2.600 1_554 S
N1121 C1122 1.365 . S
N1121 C1125 1.319 . S
C1122 N1121 1.365 . S
C1122 C1124 1.405 . S
C1122 C1130 1.448 1_565 S
C1123 H1118 0.931 . S
C1123 C1125 1.397 . S
C1123 C1126 1.367 . S
C1124 C1122 1.405 . S
C1124 C1126 1.403 . S
C1124 C1157 1.439 1_565 S
C1125 H1110 0.930 1_554 S
C1125 N1121 1.319 . S
C1125 C1123 1.397 . S
C1126 C1123 1.367 . S
C1126 C1124 1.403 . S
C1126 H1133 0.929 . S
N1127 Eu1092 2.562 1_545 S
N1127 C1128 1.325 . S
N1127 C1130 1.351 1_556 S
C1128 H1114 0.929 . S
C1128 N1127 1.325 . S
C1128 C1132 1.416 1_556 S
C1129 C1130 1.430 . S
C1129 C1131 1.404 . S
C1129 C1158 1.387 . S
C1130 C1122 1.448 1_545 S
C1130 N1127 1.351 1_554 S
C1130 C1129 1.430 . S
C1131 H1120 0.930 . S
C1131 C1129 1.404 . S
C1131 C1132 1.366 . S
C1132 H1111 0.930 1_554 S
C1132 C1128 1.416 1_554 S
C1132 C1131 1.366 . S
H1133 C1126 0.929 . S
H1134 C1157 0.931 . S
H1135 C1158 0.931 . S
O1136 Eu1092 2.462 1_545 S
O1136 C1156 1.252 . S
O1137 Eu1092 2.373 . S
O1137 C1148 1.249 . S
O1138 Eu1103 2.335 . S
O1138 C1148 1.264 . S
O1139 Eu1092 2.432 1_545 S
O1139 C1156 1.268 . S
O1140 Eu1092 2.291 . S
O1140 C1155 1.255 . S
O1141 Eu1103 2.372 . S
O1141 C1155 1.257 . S
O1142 Eu1103 2.462 . S
O1142 C1167 1.252 . S
O1143 Eu1103 2.373 . S
O1143 C1159 1.249 . S
O1144 Eu1092 2.335 . S
O1144 C1159 1.264 . S
O1145 Eu1103 2.432 . S
O1145 C1167 1.268 . S
O1146 Eu1103 2.291 . S
O1146 C1166 1.255 . S
O1147 Eu1092 2.372 . S
O1147 C1166 1.257 . S
C1148 O1137 1.249 . S
C1148 O1138 1.264 . S
C1149 C1152 1.382 . S
C1149 C1154 1.390 . S
C1149 C1156 1.506 . S
C1150 C1151 1.398 . S
C1150 C1154 1.392 . S
C1151 C1150 1.398 . S
C1151 C1153 1.372 . S
C1151 H1168 0.931 . S
C1152 C1149 1.382 . S
C1152 C1153 1.390 . S
C1152 H1169 0.931 . S
C1153 C1151 1.372 . S
C1153 C1152 1.390 . S
C1153 H1170 0.929 . S
C1154 C1149 1.390 . S
C1154 C1150 1.392 . S
C1154 H1171 0.930 . S
C1155 O1140 1.255 . S
C1155 O1141 1.257 . S
C1156 Eu1092 2.787 1_545 S
C1156 O1136 1.252 . S
C1156 O1139 1.268 . S
C1156 C1149 1.506 . S
C1157 C1124 1.439 1_545 S
C1157 H1134 0.931 . S
C1157 C1158 1.374 . S
C1158 C1129 1.387 . S
C1158 H1135 0.931 . S
C1158 C1157 1.374 . S
C1159 O1143 1.249 . S
C1159 O1144 1.264 . S
C1160 C1163 1.382 . S
C1160 C1164 1.390 . S
C1160 C1167 1.506 . S
C1161 C1162 1.398 . S
C1161 C1164 1.392 . S
C1162 C1161 1.398 . S
C1162 C1165 1.372 . S
C1162 H1172 0.931 . S
C1163 C1160 1.382 . S
C1163 C1165 1.390 . S
C1163 H1173 0.931 . S
C1164 C1160 1.390 . S
C1164 C1161 1.392 . S
C1164 H1174 0.930 . S
C1165 C1162 1.372 . S
C1165 C1163 1.390 . S
C1165 H1175 0.929 . S
C1166 O1146 1.255 . S
C1166 O1147 1.257 . S
C1167 Eu1103 2.787 . S
C1167 O1142 1.252 . S
C1167 O1145 1.268 . S
C1167 C1160 1.506 . S
H1168 C1151 0.931 . S
H1169 C1152 0.931 . S
H1170 C1153 0.929 . S
H1171 C1154 0.930 . S
H1172 C1162 0.931 . S
H1173 C1163 0.931 . S
H1174 C1164 0.930 . S
H1175 C1165 0.929 . S
Eu1176 N1205 2.600 . S
Eu1176 N1211 2.562 . S
Eu1176 O1220 2.462 . S
Eu1176 O1221 2.373 . S
Eu1176 O1223 2.432 . S
Eu1176 O1224 2.291 . S
Eu1176 O1228 2.335 . S
Eu1176 O1231 2.372 . S
Eu1176 C1240 2.787 . S
C1177 N1178 1.365 . S
C1177 C1180 1.405 . S
C1177 C1184 1.448 1_554 S
N1178 C1177 1.365 . S
N1178 C1181 1.319 . S
N1178 Eu1187 2.600 1_554 S
C1179 C1181 1.397 . S
C1179 C1182 1.367 . S
C1179 H1199 0.931 . S
C1180 C1177 1.405 . S
C1180 C1182 1.403 . S
C1180 C1186 1.439 . S
C1181 N1178 1.319 . S
C1181 C1179 1.397 . S
C1181 H1192 0.930 . S
C1182 C1179 1.367 . S
C1182 C1180 1.403 . S
C1182 H1203 0.929 . S
C1183 C1184 1.430 . S
C1183 C1185 1.387 1_556 S
C1183 C1189 1.404 . S
C1184 C1177 1.448 1_556 S
C1184 C1183 1.430 . S
C1184 N1188 1.351 . S
C1185 C1183 1.387 1_554 S
C1185 C1186 1.374 . S
C1185 H1200 0.931 . S
C1186 C1180 1.439 . S
C1186 C1185 1.374 . S
C1186 H1201 0.931 . S
Eu1187 N1178 2.600 1_556 S
Eu1187 N1188 2.562 . S
Eu1187 O1222 2.335 . S
Eu1187 O1225 2.372 . S
Eu1187 O1226 2.462 . S
Eu1187 O1227 2.373 . S
Eu1187 O1229 2.432 . S
Eu1187 O1230 2.291 . S
Eu1187 C1251 2.787 . S
N1188 C1184 1.351 . S
N1188 Eu1187 2.562 . S
N1188 C1190 1.325 . S
C1189 C1183 1.404 . S
C1189 C1191 1.366 . S
C1189 H1197 0.930 . S
C1190 N1188 1.325 . S
C1190 C1191 1.416 . S
C1190 H1196 0.929 . S
C1191 C1189 1.366 . S
C1191 C1190 1.416 . S
C1191 H1193 0.930 . S
H1192 C1181 0.930 . S
H1193 C1191 0.930 . S
H1194 C1209 0.930 . S
H1195 C1216 0.930 . S
H1196 C1190 0.929 . S
H1197 C1189 0.930 . S
H1198 C1212 0.929 . S
H1199 C1179 0.931 . S
H1200 C1185 0.931 . S
H1201 C1186 0.931 . S
H1202 C1207 0.931 . S
H1203 C1182 0.929 . S
H1204 C1215 0.930 . S
N1205 Eu1176 2.600 . S
N1205 C1206 1.365 . S
N1205 C1209 1.319 . S
C1206 N1205 1.365 . S
C1206 C1208 1.405 . S
C1206 C1214 1.448 . S
C1207 H1202 0.931 . S
C1207 C1209 1.397 . S
C1207 C1210 1.367 . S
C1208 C1206 1.405 . S
C1208 C1210 1.403 . S
C1208 C1241 1.439 . S
C1209 H1194 0.930 . S
C1209 N1205 1.319 . S
C1209 C1207 1.397 . S
C1210 C1207 1.367 . S
C1210 C1208 1.403 . S
C1210 H1217 0.929 . S
N1211 Eu1176 2.562 . S
N1211 C1212 1.325 . S
N1211 C1214 1.351 . S
C1212 H1198 0.929 . S
C1212 N1211 1.325 . S
C1212 C1216 1.416 . S
C1213 C1214 1.430 . S
C1213 C1215 1.404 . S
C1213 C1242 1.387 . S
C1214 C1206 1.448 . S
C1214 N1211 1.351 . S
C1214 C1213 1.430 . S
C1215 H1204 0.930 . S
C1215 C1213 1.404 . S
C1215 C1216 1.366 . S
C1216 H1195 0.930 . S
C1216 C1212 1.416 . S
C1216 C1215 1.366 . S
H1217 C1210 0.929 . S
H1218 C1241 0.931 . S
H1219 C1242 0.931 . S
O1220 Eu1176 2.462 . S
O1220 C1240 1.252 . S
O1221 Eu1176 2.373 . S
O1221 C1232 1.249 . S
O1222 Eu1187 2.335 . S
O1222 C1232 1.264 . S
O1223 Eu1176 2.432 . S
O1223 C1240 1.268 . S
O1224 Eu1176 2.291 . S
O1224 C1239 1.255 . S
O1225 Eu1187 2.372 . S
O1225 C1239 1.257 . S
O1226 Eu1187 2.462 . S
O1226 C1251 1.252 . S
O1227 Eu1187 2.373 . S
O1227 C1243 1.249 . S
O1228 Eu1176 2.335 . S
O1228 C1243 1.264 . S
O1229 Eu1187 2.432 . S
O1229 C1251 1.268 . S
O1230 Eu1187 2.291 . S
O1230 C1250 1.255 . S
O1231 Eu1176 2.372 . S
O1231 C1250 1.257 . S
C1232 O1221 1.249 . S
C1232 O1222 1.264 . S
C1233 C1236 1.382 . S
C1233 C1238 1.390 . S
C1233 C1240 1.506 . S
C1234 C1235 1.398 . S
C1234 C1238 1.392 . S
C1235 C1234 1.398 . S
C1235 C1237 1.372 . S
C1235 H1252 0.931 . S
C1236 C1233 1.382 . S
C1236 C1237 1.390 . S
C1236 H1253 0.931 . S
C1237 C1235 1.372 . S
C1237 C1236 1.390 . S
C1237 H1254 0.929 . S
C1238 C1233 1.390 . S
C1238 C1234 1.392 . S
C1238 H1255 0.930 . S
C1239 O1224 1.255 . S
C1239 O1225 1.257 . S
C1240 Eu1176 2.787 . S
C1240 O1220 1.252 . S
C1240 O1223 1.268 . S
C1240 C1233 1.506 . S
C1241 C1208 1.439 . S
C1241 H1218 0.931 . S
C1241 C1242 1.374 . S
C1242 C1213 1.387 . S
C1242 H1219 0.931 . S
C1242 C1241 1.374 . S
C1243 O1227 1.249 . S
C1243 O1228 1.264 . S
C1244 C1247 1.382 . S
C1244 C1248 1.390 . S
C1244 C1251 1.506 . S
C1245 C1246 1.398 . S
C1245 C1248 1.392 . S
C1246 C1245 1.398 . S
C1246 C1249 1.372 . S
C1246 H1256 0.931 . S
C1247 C1244 1.382 . S
C1247 C1249 1.390 . S
C1247 H1257 0.931 . S
C1248 C1244 1.390 . S
C1248 C1245 1.392 . S
C1248 H1258 0.930 . S
C1249 C1246 1.372 . S
C1249 C1247 1.390 . S
C1249 H1259 0.929 . S
C1250 O1230 1.255 . S
C1250 O1231 1.257 . S
C1251 Eu1187 2.787 . S
C1251 O1226 1.252 . S
C1251 O1229 1.268 . S
C1251 C1244 1.506 . S
H1252 C1235 0.931 . S
H1253 C1236 0.931 . S
H1254 C1237 0.929 . S
H1255 C1238 0.930 . S
H1256 C1246 0.931 . S
H1257 C1247 0.931 . S
H1258 C1248 0.930 . S
H1259 C1249 0.929 . S
Eu1260 N1289 2.600 . S
Eu1260 N1295 2.562 . S
Eu1260 O1304 2.462 . S
Eu1260 O1305 2.373 . S
Eu1260 O1307 2.432 . S
Eu1260 O1308 2.291 . S
Eu1260 O1312 2.335 . S
Eu1260 O1315 2.372 . S
Eu1260 C1324 2.787 . S
C1261 N1262 1.365 . S
C1261 C1264 1.405 . S
C1261 C1268 1.448 1_554 S
N1262 C1261 1.365 . S
N1262 C1265 1.319 . S
N1262 Eu1271 2.600 1_554 S
C1263 C1265 1.397 . S
C1263 C1266 1.367 . S
C1263 H1283 0.931 . S
C1264 C1261 1.405 . S
C1264 C1266 1.403 . S
C1264 C1270 1.439 . S
C1265 N1262 1.319 . S
C1265 C1263 1.397 . S
C1265 H1276 0.930 . S
C1266 C1263 1.367 . S
C1266 C1264 1.403 . S
C1266 H1287 0.929 . S
C1267 C1268 1.430 . S
C1267 C1269 1.387 1_556 S
C1267 C1273 1.404 . S
C1268 C1261 1.448 1_556 S
C1268 C1267 1.430 . S
C1268 N1272 1.351 . S
C1269 C1267 1.387 1_554 S
C1269 C1270 1.374 . S
C1269 H1284 0.931 . S
C1270 C1264 1.439 . S
C1270 C1269 1.374 . S
C1270 H1285 0.931 . S
Eu1271 N1262 2.600 1_556 S
Eu1271 N1272 2.562 . S
Eu1271 O1306 2.335 . S
Eu1271 O1309 2.372 . S
Eu1271 O1310 2.462 . S
Eu1271 O1311 2.373 . S
Eu1271 O1313 2.432 . S
Eu1271 O1314 2.291 . S
Eu1271 C1335 2.787 . S
N1272 C1268 1.351 . S
N1272 Eu1271 2.562 . S
N1272 C1274 1.325 . S
C1273 C1267 1.404 . S
C1273 C1275 1.366 . S
C1273 H1281 0.930 . S
C1274 N1272 1.325 . S
C1274 C1275 1.416 . S
C1274 H1280 0.929 . S
C1275 C1273 1.366 . S
C1275 C1274 1.416 . S
C1275 H1277 0.930 . S
H1276 C1265 0.930 . S
H1277 C1275 0.930 . S
H1278 C1293 0.930 . S
H1279 C1300 0.930 . S
H1280 C1274 0.929 . S
H1281 C1273 0.930 . S
H1282 C1296 0.929 . S
H1283 C1263 0.931 . S
H1284 C1269 0.931 . S
H1285 C1270 0.931 . S
H1286 C1291 0.931 . S
H1287 C1266 0.929 . S
H1288 C1299 0.930 . S
N1289 Eu1260 2.600 . S
N1289 C1290 1.365 . S
N1289 C1293 1.319 . S
C1290 N1289 1.365 . S
C1290 C1292 1.405 . S
C1290 C1298 1.448 . S
C1291 H1286 0.931 . S
C1291 C1293 1.397 . S
C1291 C1294 1.367 . S
C1292 C1290 1.405 . S
C1292 C1294 1.403 . S
C1292 C1325 1.439 . S
C1293 H1278 0.930 . S
C1293 N1289 1.319 . S
C1293 C1291 1.397 . S
C1294 C1291 1.367 . S
C1294 C1292 1.403 . S
C1294 H1301 0.929 . S
N1295 Eu1260 2.562 . S
N1295 C1296 1.325 . S
N1295 C1298 1.351 . S
C1296 H1282 0.929 . S
C1296 N1295 1.325 . S
C1296 C1300 1.416 . S
C1297 C1298 1.430 . S
C1297 C1299 1.404 . S
C1297 C1326 1.387 . S
C1298 C1290 1.448 . S
C1298 N1295 1.351 . S
C1298 C1297 1.430 . S
C1299 H1288 0.930 . S
C1299 C1297 1.404 . S
C1299 C1300 1.366 . S
C1300 H1279 0.930 . S
C1300 C1296 1.416 . S
C1300 C1299 1.366 . S
H1301 C1294 0.929 . S
H1302 C1325 0.931 . S
H1303 C1326 0.931 . S
O1304 Eu1260 2.462 . S
O1304 C1324 1.252 . S
O1305 Eu1260 2.373 . S
O1305 C1316 1.249 . S
O1306 Eu1271 2.335 . S
O1306 C1316 1.264 . S
O1307 Eu1260 2.432 . S
O1307 C1324 1.268 . S
O1308 Eu1260 2.291 . S
O1308 C1323 1.255 . S
O1309 Eu1271 2.372 . S
O1309 C1323 1.257 . S
O1310 Eu1271 2.462 . S
O1310 C1335 1.252 . S
O1311 Eu1271 2.373 . S
O1311 C1327 1.249 . S
O1312 Eu1260 2.335 . S
O1312 C1327 1.264 . S
O1313 Eu1271 2.432 . S
O1313 C1335 1.268 . S
O1314 Eu1271 2.291 . S
O1314 C1334 1.255 . S
O1315 Eu1260 2.372 . S
O1315 C1334 1.257 . S
C1316 O1305 1.249 . S
C1316 O1306 1.264 . S
C1317 C1320 1.382 . S
C1317 C1322 1.390 . S
C1317 C1324 1.506 . S
C1318 C1319 1.398 . S
C1318 C1322 1.392 . S
C1319 C1318 1.398 . S
C1319 C1321 1.372 . S
C1319 H1336 0.931 . S
C1320 C1317 1.382 . S
C1320 C1321 1.390 . S
C1320 H1337 0.931 . S
C1321 C1319 1.372 . S
C1321 C1320 1.390 . S
C1321 H1338 0.929 . S
C1322 C1317 1.390 . S
C1322 C1318 1.392 . S
C1322 H1339 0.930 . S
C1323 O1308 1.255 . S
C1323 O1309 1.257 . S
C1324 Eu1260 2.787 . S
C1324 O1304 1.252 . S
C1324 O1307 1.268 . S
C1324 C1317 1.506 . S
C1325 C1292 1.439 . S
C1325 H1302 0.931 . S
C1325 C1326 1.374 . S
C1326 C1297 1.387 . S
C1326 H1303 0.931 . S
C1326 C1325 1.374 . S
C1327 O1311 1.249 . S
C1327 O1312 1.264 . S
C1328 C1331 1.382 . S
C1328 C1332 1.390 . S
C1328 C1335 1.506 . S
C1329 C1330 1.398 . S
C1329 C1332 1.392 . S
C1330 C1329 1.398 . S
C1330 C1333 1.372 . S
C1330 H1340 0.931 . S
C1331 C1328 1.382 . S
C1331 C1333 1.390 . S
C1331 H1341 0.931 . S
C1332 C1328 1.390 . S
C1332 C1329 1.392 . S
C1332 H1342 0.930 . S
C1333 C1330 1.372 . S
C1333 C1331 1.390 . S
C1333 H1343 0.929 . S
C1334 O1314 1.255 . S
C1334 O1315 1.257 . S
C1335 Eu1271 2.787 . S
C1335 O1310 1.252 . S
C1335 O1313 1.268 . S
C1335 C1328 1.506 . S
H1336 C1319 0.931 . S
H1337 C1320 0.931 . S
H1338 C1321 0.929 . S
H1339 C1322 0.930 . S
H1340 C1330 0.931 . S
H1341 C1331 0.931 . S
H1342 C1332 0.930 . S
H1343 C1333 0.929 . S
H1344 C1352 0.950 . S
H1345 C1357 0.950 . S
H1346 C1354 0.950 . S
H1347 C1356 0.950 . S
H1348 C1358 0.950 . S
H1349 C1360 0.950 . S
H1350 C1362 0.950 . S
H1351 C1363 0.950 . S
C1352 H1344 0.950 . S
C1352 C1353 1.386 . S
C1352 C1354 1.391 . S
C1353 C1352 1.386 . S
C1353 C1357 1.393 . S
C1354 H1346 0.950 . S
C1354 C1352 1.391 . S
C1354 C1355 1.400 . S
C1355 C1354 1.400 . S
C1355 C1356 1.398 . S
C1355 C1361 1.491 . S
C1356 H1347 0.950 . S
C1356 C1355 1.398 . S
C1356 C1357 1.391 . S
C1357 H1345 0.950 . S
C1357 C1353 1.393 . S
C1357 C1356 1.391 . S
C1358 H1348 0.950 . S
C1358 C1359 1.386 . S
C1358 C1360 1.391 . S
C1359 C1358 1.386 . S
C1359 C1363 1.393 . S
C1360 H1349 0.950 . S
C1360 C1358 1.391 . S
C1360 C1361 1.400 . S
C1361 C1355 1.491 . S
C1361 C1360 1.400 . S
C1361 C1362 1.398 . S
C1362 H1350 0.950 . S
C1362 C1361 1.398 . S
C1362 C1363 1.391 . S
C1363 H1351 0.950 . S
C1363 C1359 1.393 . S
C1363 C1362 1.391 . S
H1364 C1372 0.950 . S
H1365 C1377 0.950 . S
H1366 C1374 0.950 . S
H1367 C1376 0.950 . S
H1368 C1378 0.950 . S
H1369 C1380 0.950 . S
H1370 C1382 0.950 . S
H1371 C1383 0.950 . S
C1372 H1364 0.950 . S
C1372 C1373 1.386 . S
C1372 C1374 1.391 . S
C1373 C1372 1.386 . S
C1373 C1377 1.393 . S
C1374 H1366 0.950 . S
C1374 C1372 1.391 . S
C1374 C1375 1.400 . S
C1375 C1374 1.400 . S
C1375 C1376 1.398 . S
C1375 C1381 1.491 . S
C1376 H1367 0.950 . S
C1376 C1375 1.398 . S
C1376 C1377 1.391 . S
C1377 H1365 0.950 . S
C1377 C1373 1.393 . S
C1377 C1376 1.391 . S
C1378 H1368 0.950 . S
C1378 C1379 1.386 . S
C1378 C1380 1.391 . S
C1379 C1378 1.386 . S
C1379 C1383 1.393 . S
C1380 H1369 0.950 . S
C1380 C1378 1.391 . S
C1380 C1381 1.400 . S
C1381 C1375 1.491 . S
C1381 C1380 1.400 . S
C1381 C1382 1.398 . S
C1382 H1370 0.950 . S
C1382 C1381 1.398 . S
C1382 C1383 1.391 . S
C1383 H1371 0.950 . S
C1383 C1379 1.393 . S
C1383 C1382 1.391 . S
H1384 C1392 0.950 . S
H1385 C1397 0.950 . S
H1386 C1394 0.950 . S
H1387 C1396 0.950 . S
H1388 C1398 0.950 . S
H1389 C1400 0.950 . S
H1390 C1402 0.950 . S
H1391 C1403 0.950 . S
C1392 H1384 0.950 . S
C1392 C1393 1.386 . S
C1392 C1394 1.391 . S
C1393 C1392 1.386 . S
C1393 C1397 1.393 . S
C1394 H1386 0.950 . S
C1394 C1392 1.391 . S
C1394 C1395 1.400 . S
C1395 C1394 1.400 . S
C1395 C1396 1.398 . S
C1395 C1401 1.491 . S
C1396 H1387 0.950 . S
C1396 C1395 1.398 . S
C1396 C1397 1.391 . S
C1397 H1385 0.950 . S
C1397 C1393 1.393 . S
C1397 C1396 1.391 . S
C1398 H1388 0.950 . S
C1398 C1399 1.386 . S
C1398 C1400 1.391 . S
C1399 C1398 1.386 . S
C1399 C1403 1.393 . S
C1400 H1389 0.950 . S
C1400 C1398 1.391 . S
C1400 C1401 1.400 . S
C1401 C1395 1.491 . S
C1401 C1400 1.400 . S
C1401 C1402 1.398 . S
C1402 H1390 0.950 . S
C1402 C1401 1.398 . S
C1402 C1403 1.391 . S
C1403 H1391 0.950 . S
C1403 C1399 1.393 . S
C1403 C1402 1.391 . S
H1404 C1412 0.950 . S
H1405 C1417 0.950 . S
H1406 C1414 0.950 . S
H1407 C1416 0.950 . S
H1408 C1418 0.950 . S
H1409 C1420 0.950 . S
H1410 C1422 0.950 . S
H1411 C1423 0.950 . S
C1412 H1404 0.950 . S
C1412 C1413 1.386 . S
C1412 C1414 1.391 . S
C1413 C1412 1.386 . S
C1413 C1417 1.393 . S
C1414 H1406 0.950 . S
C1414 C1412 1.391 . S
C1414 C1415 1.400 . S
C1415 C1414 1.400 . S
C1415 C1416 1.398 . S
C1415 C1421 1.491 . S
C1416 H1407 0.950 . S
C1416 C1415 1.398 . S
C1416 C1417 1.391 . S
C1417 H1405 0.950 . S
C1417 C1413 1.393 . S
C1417 C1416 1.391 . S
C1418 H1408 0.950 . S
C1418 C1419 1.386 . S
C1418 C1420 1.391 . S
C1419 C1418 1.386 . S
C1419 C1423 1.393 . S
C1420 H1409 0.950 . S
C1420 C1418 1.391 . S
C1420 C1421 1.400 . S
C1421 C1415 1.491 . S
C1421 C1420 1.400 . S
C1421 C1422 1.398 . S
C1422 H1410 0.950 . S
C1422 C1421 1.398 . S
C1422 C1423 1.391 . S
C1423 H1411 0.950 . S
C1423 C1419 1.393 . S
C1423 C1422 1.391 . S
H1424 C1432 0.950 . S
H1425 C1437 0.950 . S
H1426 C1434 0.950 . S
H1427 C1436 0.950 . S
H1428 C1438 0.950 . S
H1429 C1440 0.950 . S
H1430 C1442 0.950 . S
H1431 C1443 0.950 . S
C1432 H1424 0.950 . S
C1432 C1433 1.386 . S
C1432 C1434 1.391 . S
C1433 C1432 1.386 . S
C1433 C1437 1.393 . S
C1434 H1426 0.950 . S
C1434 C1432 1.391 . S
C1434 C1435 1.400 . S
C1435 C1434 1.400 . S
C1435 C1436 1.398 . S
C1435 C1441 1.491 . S
C1436 H1427 0.950 . S
C1436 C1435 1.398 . S
C1436 C1437 1.391 . S
C1437 H1425 0.950 . S
C1437 C1433 1.393 . S
C1437 C1436 1.391 . S
C1438 H1428 0.950 . S
C1438 C1439 1.386 . S
C1438 C1440 1.391 . S
C1439 C1438 1.386 . S
C1439 C1443 1.393 . S
C1440 H1429 0.950 . S
C1440 C1438 1.391 . S
C1440 C1441 1.400 . S
C1441 C1435 1.491 . S
C1441 C1440 1.400 . S
C1441 C1442 1.398 . S
C1442 H1430 0.950 . S
C1442 C1441 1.398 . S
C1442 C1443 1.391 . S
C1443 H1431 0.950 . S
C1443 C1439 1.393 . S
C1443 C1442 1.391 . S
H1444 C1452 0.950 . S
H1445 C1457 0.950 . S
H1446 C1454 0.950 . S
H1447 C1456 0.950 . S
H1448 C1458 0.950 . S
H1449 C1460 0.950 . S
H1450 C1462 0.950 . S
H1451 C1463 0.950 . S
C1452 H1444 0.950 . S
C1452 C1453 1.386 . S
C1452 C1454 1.391 . S
C1453 C1452 1.386 . S
C1453 C1457 1.393 . S
C1454 H1446 0.950 . S
C1454 C1452 1.391 . S
C1454 C1455 1.400 . S
C1455 C1454 1.400 . S
C1455 C1456 1.398 . S
C1455 C1461 1.491 . S
C1456 H1447 0.950 . S
C1456 C1455 1.398 . S
C1456 C1457 1.391 . S
C1457 H1445 0.950 . S
C1457 C1453 1.393 . S
C1457 C1456 1.391 . S
C1458 H1448 0.950 . S
C1458 C1459 1.386 . S
C1458 C1460 1.391 . S
C1459 C1458 1.386 . S
C1459 C1463 1.393 . S
C1460 H1449 0.950 . S
C1460 C1458 1.391 . S
C1460 C1461 1.400 . S
C1461 C1455 1.491 . S
C1461 C1460 1.400 . S
C1461 C1462 1.398 . S
C1462 H1450 0.950 . S
C1462 C1461 1.398 . S
C1462 C1463 1.391 . S
C1463 H1451 0.950 . S
C1463 C1459 1.393 . S
C1463 C1462 1.391 . S
H1464 C1472 0.950 . S
H1465 C1477 0.950 . S
H1466 C1474 0.950 . S
H1467 C1476 0.950 . S
H1468 C1478 0.950 . S
H1469 C1480 0.950 . S
H1470 C1482 0.950 . S
H1471 C1483 0.950 . S
C1472 H1464 0.950 . S
C1472 C1473 1.386 . S
C1472 C1474 1.391 . S
C1473 C1472 1.386 . S
C1473 C1477 1.393 . S
C1474 H1466 0.950 . S
C1474 C1472 1.391 . S
C1474 C1475 1.400 . S
C1475 C1474 1.400 . S
C1475 C1476 1.398 . S
C1475 C1481 1.491 . S
C1476 H1467 0.950 . S
C1476 C1475 1.398 . S
C1476 C1477 1.391 . S
C1477 H1465 0.950 . S
C1477 C1473 1.393 . S
C1477 C1476 1.391 . S
C1478 H1468 0.950 . S
C1478 C1479 1.386 . S
C1478 C1480 1.391 . S
C1479 C1478 1.386 . S
C1479 C1483 1.393 . S
C1480 H1469 0.950 . S
C1480 C1478 1.391 . S
C1480 C1481 1.400 . S
C1481 C1475 1.491 . S
C1481 C1480 1.400 . S
C1481 C1482 1.398 . S
C1482 H1470 0.950 . S
C1482 C1481 1.398 . S
C1482 C1483 1.391 . S
C1483 H1471 0.950 . S
C1483 C1479 1.393 . S
C1483 C1482 1.391 . S
H1484 C1492 0.950 . S
H1485 C1497 0.950 . S
H1486 C1494 0.950 . S
H1487 C1496 0.950 . S
H1488 C1498 0.950 . S
H1489 C1500 0.950 . S
H1490 C1502 0.950 . S
H1491 C1503 0.950 . S
C1492 H1484 0.950 . S
C1492 C1493 1.386 . S
C1492 C1494 1.391 . S
C1493 C1492 1.386 . S
C1493 C1497 1.393 . S
C1494 H1486 0.950 . S
C1494 C1492 1.391 . S
C1494 C1495 1.400 . S
C1495 C1494 1.400 . S
C1495 C1496 1.398 . S
C1495 C1501 1.491 . S
C1496 H1487 0.950 . S
C1496 C1495 1.398 . S
C1496 C1497 1.391 . S
C1497 H1485 0.950 . S
C1497 C1493 1.393 . S
C1497 C1496 1.391 . S
C1498 H1488 0.950 . S
C1498 C1499 1.386 . S
C1498 C1500 1.391 . S
C1499 C1498 1.386 . S
C1499 C1503 1.393 . S
C1500 H1489 0.950 . S
C1500 C1498 1.391 . S
C1500 C1501 1.400 . S
C1501 C1495 1.491 . S
C1501 C1500 1.400 . S
C1501 C1502 1.398 . S
C1502 H1490 0.950 . S
C1502 C1501 1.398 . S
C1502 C1503 1.391 . S
C1503 H1491 0.950 . S
C1503 C1499 1.393 . S
C1503 C1502 1.391 . S
H1504 C1512 0.950 . S
H1505 C1517 0.950 . S
H1506 C1514 0.950 . S
H1507 C1516 0.950 . S
H1508 C1518 0.950 1_565 S
H1509 C1520 0.950 . S
H1510 C1522 0.950 . S
H1511 C1523 0.950 . S
C1512 H1504 0.950 . S
C1512 C1513 1.386 . S
C1512 C1514 1.391 . S
C1513 C1512 1.386 . S
C1513 C1517 1.393 . S
C1514 H1506 0.950 . S
C1514 C1512 1.391 . S
C1514 C1515 1.400 . S
C1515 C1514 1.400 . S
C1515 C1516 1.398 . S
C1515 C1521 1.491 . S
C1516 H1507 0.950 . S
C1516 C1515 1.398 . S
C1516 C1517 1.391 . S
C1517 H1505 0.950 . S
C1517 C1513 1.393 . S
C1517 C1516 1.391 . S
C1518 H1508 0.950 1_545 S
C1518 C1519 1.386 . S
C1518 C1520 1.391 . S
C1519 C1518 1.386 . S
C1519 C1523 1.393 . S
C1520 H1509 0.950 . S
C1520 C1518 1.391 . S
C1520 C1521 1.400 . S
C1521 C1515 1.491 . S
C1521 C1520 1.400 . S
C1521 C1522 1.398 . S
C1522 H1510 0.950 . S
C1522 C1521 1.398 . S
C1522 C1523 1.391 . S
C1523 H1511 0.950 . S
C1523 C1519 1.393 . S
C1523 C1522 1.391 . S
H1524 C1532 0.950 . S
H1525 C1537 0.950 . S
H1526 C1534 0.950 . S
H1527 C1536 0.950 . S
H1528 C1538 0.950 . S
H1529 C1540 0.950 . S
H1530 C1542 0.950 . S
H1531 C1543 0.950 . S
C1532 H1524 0.950 . S
C1532 C1533 1.386 . S
C1532 C1534 1.391 . S
C1533 C1532 1.386 . S
C1533 C1537 1.393 . S
C1534 H1526 0.950 . S
C1534 C1532 1.391 . S
C1534 C1535 1.400 . S
C1535 C1534 1.400 . S
C1535 C1536 1.398 . S
C1535 C1541 1.491 . S
C1536 H1527 0.950 . S
C1536 C1535 1.398 . S
C1536 C1537 1.391 . S
C1537 H1525 0.950 . S
C1537 C1533 1.393 . S
C1537 C1536 1.391 . S
C1538 H1528 0.950 . S
C1538 C1539 1.386 . S
C1538 C1540 1.391 . S
C1539 C1538 1.386 . S
C1539 C1543 1.393 . S
C1540 H1529 0.950 . S
C1540 C1538 1.391 . S
C1540 C1541 1.400 . S
C1541 C1535 1.491 . S
C1541 C1540 1.400 . S
C1541 C1542 1.398 . S
C1542 H1530 0.950 . S
C1542 C1541 1.398 . S
C1542 C1543 1.391 . S
C1543 H1531 0.950 . S
C1543 C1539 1.393 . S
C1543 C1542 1.391 . S
H1544 C1552 0.950 . S
H1545 C1557 0.950 . S
H1546 C1554 0.950 . S
H1547 C1556 0.950 . S
H1548 C1558 0.950 . S
H1549 C1560 0.950 . S
H1550 C1562 0.950 . S
H1551 C1563 0.950 . S
C1552 H1544 0.950 . S
C1552 C1553 1.386 . S
C1552 C1554 1.391 . S
C1553 C1552 1.386 . S
C1553 C1557 1.393 . S
C1554 H1546 0.950 . S
C1554 C1552 1.391 . S
C1554 C1555 1.400 . S
C1555 C1554 1.400 . S
C1555 C1556 1.398 . S
C1555 C1561 1.491 . S
C1556 H1547 0.950 . S
C1556 C1555 1.398 . S
C1556 C1557 1.391 . S
C1557 H1545 0.950 . S
C1557 C1553 1.393 . S
C1557 C1556 1.391 . S
C1558 H1548 0.950 . S
C1558 C1559 1.386 . S
C1558 C1560 1.391 . S
C1559 C1558 1.386 . S
C1559 C1563 1.393 . S
C1560 H1549 0.950 . S
C1560 C1558 1.391 . S
C1560 C1561 1.400 . S
C1561 C1555 1.491 . S
C1561 C1560 1.400 . S
C1561 C1562 1.398 . S
C1562 H1550 0.950 . S
C1562 C1561 1.398 . S
C1562 C1563 1.391 . S
C1563 H1551 0.950 . S
C1563 C1559 1.393 . S
C1563 C1562 1.391 . S
H1564 C1572 0.950 . S
H1565 C1577 0.950 . S
H1566 C1574 0.950 . S
H1567 C1576 0.950 . S
H1568 C1578 0.950 . S
H1569 C1580 0.950 . S
H1570 C1582 0.950 . S
H1571 C1583 0.950 . S
C1572 H1564 0.950 . S
C1572 C1573 1.386 . S
C1572 C1574 1.391 . S
C1573 C1572 1.386 . S
C1573 C1577 1.393 . S
C1574 H1566 0.950 . S
C1574 C1572 1.391 . S
C1574 C1575 1.400 . S
C1575 C1574 1.400 . S
C1575 C1576 1.398 . S
C1575 C1581 1.491 . S
C1576 H1567 0.950 . S
C1576 C1575 1.398 . S
C1576 C1577 1.391 . S
C1577 H1565 0.950 . S
C1577 C1573 1.393 . S
C1577 C1576 1.391 . S
C1578 H1568 0.950 . S
C1578 C1579 1.386 . S
C1578 C1580 1.391 . S
C1579 C1578 1.386 . S
C1579 C1583 1.393 . S
C1580 H1569 0.950 . S
C1580 C1578 1.391 . S
C1580 C1581 1.400 . S
C1581 C1575 1.491 . S
C1581 C1580 1.400 . S
C1581 C1582 1.398 . S
C1582 H1570 0.950 . S
C1582 C1581 1.398 . S
C1582 C1583 1.391 . S
C1583 H1571 0.950 . S
C1583 C1579 1.393 . S
C1583 C1582 1.391 . S
H1584 C1592 0.950 . S
H1585 C1597 0.950 . S
H1586 C1594 0.950 . S
H1587 C1596 0.950 . S
H1588 C1598 0.950 1_545 S
H1589 C1600 0.950 . S
H1590 C1602 0.950 . S
H1591 C1603 0.950 . S
C1592 H1584 0.950 . S
C1592 C1593 1.386 . S
C1592 C1594 1.391 . S
C1593 C1592 1.386 . S
C1593 C1597 1.393 . S
C1594 H1586 0.950 . S
C1594 C1592 1.391 . S
C1594 C1595 1.400 . S
C1595 C1594 1.400 . S
C1595 C1596 1.398 . S
C1595 C1601 1.491 . S
C1596 H1587 0.950 . S
C1596 C1595 1.398 . S
C1596 C1597 1.391 . S
C1597 H1585 0.950 . S
C1597 C1593 1.393 . S
C1597 C1596 1.391 . S
C1598 H1588 0.950 1_565 S
C1598 C1599 1.386 . S
C1598 C1600 1.391 . S
C1599 C1598 1.386 . S
C1599 C1603 1.393 . S
C1600 H1589 0.950 . S
C1600 C1598 1.391 . S
C1600 C1601 1.400 . S
C1601 C1595 1.491 . S
C1601 C1600 1.400 . S
C1601 C1602 1.398 . S
C1602 H1590 0.950 . S
C1602 C1601 1.398 . S
C1602 C1603 1.391 . S
C1603 H1591 0.950 . S
C1603 C1599 1.393 . S
C1603 C1602 1.391 . S
H1604 C1612 0.950 . S
H1605 C1617 0.950 . S
H1606 C1614 0.950 . S
H1607 C1616 0.950 . S
H1608 C1618 0.950 . S
H1609 C1620 0.950 . S
H1610 C1622 0.950 . S
H1611 C1623 0.950 . S
C1612 H1604 0.950 . S
C1612 C1613 1.386 . S
C1612 C1614 1.391 . S
C1613 C1612 1.386 . S
C1613 C1617 1.393 . S
C1614 H1606 0.950 . S
C1614 C1612 1.391 . S
C1614 C1615 1.400 . S
C1615 C1614 1.400 . S
C1615 C1616 1.398 . S
C1615 C1621 1.491 . S
C1616 H1607 0.950 . S
C1616 C1615 1.398 . S
C1616 C1617 1.391 . S
C1617 H1605 0.950 . S
C1617 C1613 1.393 . S
C1617 C1616 1.391 . S
C1618 H1608 0.950 . S
C1618 C1619 1.386 . S
C1618 C1620 1.391 . S
C1619 C1618 1.386 . S
C1619 C1623 1.393 . S
C1620 H1609 0.950 . S
C1620 C1618 1.391 . S
C1620 C1621 1.400 . S
C1621 C1615 1.491 . S
C1621 C1620 1.400 . S
C1621 C1622 1.398 . S
C1622 H1610 0.950 . S
C1622 C1621 1.398 . S
C1622 C1623 1.391 . S
C1623 H1611 0.950 . S
C1623 C1619 1.393 . S
C1623 C1622 1.391 . S
H1624 C1632 0.950 . S
H1625 C1637 0.950 . S
H1626 C1634 0.950 . S
H1627 C1636 0.950 . S
H1628 C1638 0.950 . S
H1629 C1640 0.950 . S
H1630 C1642 0.950 . S
H1631 C1643 0.950 . S
C1632 H1624 0.950 . S
C1632 C1633 1.386 . S
C1632 C1634 1.391 . S
C1633 C1632 1.386 . S
C1633 C1637 1.393 . S
C1634 H1626 0.950 . S
C1634 C1632 1.391 . S
C1634 C1635 1.400 . S
C1635 C1634 1.400 . S
C1635 C1636 1.398 . S
C1635 C1641 1.491 . S
C1636 H1627 0.950 . S
C1636 C1635 1.398 . S
C1636 C1637 1.391 . S
C1637 H1625 0.950 . S
C1637 C1633 1.393 . S
C1637 C1636 1.391 . S
C1638 H1628 0.950 . S
C1638 C1639 1.386 . S
C1638 C1640 1.391 . S
C1639 C1638 1.386 . S
C1639 C1643 1.393 . S
C1640 H1629 0.950 . S
C1640 C1638 1.391 . S
C1640 C1641 1.400 . S
C1641 C1635 1.491 . S
C1641 C1640 1.400 . S
C1641 C1642 1.398 . S
C1642 H1630 0.950 . S
C1642 C1641 1.398 . S
C1642 C1643 1.391 . S
C1643 H1631 0.950 . S
C1643 C1639 1.393 . S
C1643 C1642 1.391 . S
H1644 C1652 0.950 . S
H1645 C1657 0.950 1_455 S
H1646 C1654 0.950 . S
H1647 C1656 0.950 . S
H1648 C1658 0.950 . S
H1649 C1660 0.950 . S
H1650 C1662 0.950 . S
H1651 C1663 0.950 . S
C1652 H1644 0.950 . S
C1652 C1653 1.386 . S
C1652 C1654 1.391 . S
C1653 C1652 1.386 . S
C1653 C1657 1.393 . S
C1654 H1646 0.950 . S
C1654 C1652 1.391 . S
C1654 C1655 1.400 . S
C1655 C1654 1.400 . S
C1655 C1656 1.398 . S
C1655 C1661 1.491 . S
C1656 H1647 0.950 . S
C1656 C1655 1.398 . S
C1656 C1657 1.391 . S
C1657 H1645 0.950 1_655 S
C1657 C1653 1.393 . S
C1657 C1656 1.391 . S
C1658 H1648 0.950 . S
C1658 C1659 1.386 . S
C1658 C1660 1.391 . S
C1659 C1658 1.386 . S
C1659 C1663 1.393 . S
C1660 H1649 0.950 . S
C1660 C1658 1.391 . S
C1660 C1661 1.400 . S
C1661 C1655 1.491 . S
C1661 C1660 1.400 . S
C1661 C1662 1.398 . S
C1662 H1650 0.950 . S
C1662 C1661 1.398 . S
C1662 C1663 1.391 . S
C1663 H1651 0.950 . S
C1663 C1659 1.393 . S
C1663 C1662 1.391 . S
H1664 C1672 0.950 . S
H1665 C1677 0.950 1_545 S
H1666 C1674 0.950 . S
H1667 C1676 0.950 . S
H1668 C1678 0.950 . S
H1669 C1680 0.950 . S
H1670 C1682 0.950 . S
H1671 C1683 0.950 . S
C1672 H1664 0.950 . S
C1672 C1673 1.386 . S
C1672 C1674 1.391 . S
C1673 C1672 1.386 . S
C1673 C1677 1.393 . S
C1674 H1666 0.950 . S
C1674 C1672 1.391 . S
C1674 C1675 1.400 . S
C1675 C1674 1.400 . S
C1675 C1676 1.398 . S
C1675 C1681 1.491 . S
C1676 H1667 0.950 . S
C1676 C1675 1.398 . S
C1676 C1677 1.391 . S
C1677 H1665 0.950 1_565 S
C1677 C1673 1.393 . S
C1677 C1676 1.391 . S
C1678 H1668 0.950 . S
C1678 C1679 1.386 . S
C1678 C1680 1.391 . S
C1679 C1678 1.386 . S
C1679 C1683 1.393 . S
C1680 H1669 0.950 . S
C1680 C1678 1.391 . S
C1680 C1681 1.400 . S
C1681 C1675 1.491 . S
C1681 C1680 1.400 . S
C1681 C1682 1.398 . S
C1682 H1670 0.950 . S
C1682 C1681 1.398 . S
C1682 C1683 1.391 . S
C1683 H1671 0.950 . S
C1683 C1679 1.393 . S
C1683 C1682 1.391 . S
H1684 C1692 0.950 . S
H1685 C1697 0.950 . S
H1686 C1694 0.950 . S
H1687 C1696 0.950 . S
H1688 C1698 0.950 . S
H1689 C1700 0.950 . S
H1690 C1702 0.950 . S
H1691 C1703 0.950 . S
C1692 H1684 0.950 . S
C1692 C1693 1.386 . S
C1692 C1694 1.391 . S
C1693 C1692 1.386 . S
C1693 C1697 1.393 . S
C1694 H1686 0.950 . S
C1694 C1692 1.391 . S
C1694 C1695 1.400 . S
C1695 C1694 1.400 . S
C1695 C1696 1.398 . S
C1695 C1701 1.491 . S
C1696 H1687 0.950 . S
C1696 C1695 1.398 . S
C1696 C1697 1.391 . S
C1697 H1685 0.950 . S
C1697 C1693 1.393 . S
C1697 C1696 1.391 . S
C1698 H1688 0.950 . S
C1698 C1699 1.386 . S
C1698 C1700 1.391 . S
C1699 C1698 1.386 . S
C1699 C1703 1.393 . S
C1700 H1689 0.950 . S
C1700 C1698 1.391 . S
C1700 C1701 1.400 . S
C1701 C1695 1.491 . S
C1701 C1700 1.400 . S
C1701 C1702 1.398 . S
C1702 H1690 0.950 . S
C1702 C1701 1.398 . S
C1702 C1703 1.391 . S
C1703 H1691 0.950 . S
C1703 C1699 1.393 . S
C1703 C1702 1.391 . S
H1704 C1712 0.950 . S
H1705 C1717 0.950 . S
H1706 C1714 0.950 . S
H1707 C1716 0.950 . S
H1708 C1718 0.950 . S
H1709 C1720 0.950 . S
H1710 C1722 0.950 . S
H1711 C1723 0.950 . S
C1712 H1704 0.950 . S
C1712 C1713 1.386 . S
C1712 C1714 1.391 . S
C1713 C1712 1.386 . S
C1713 C1717 1.393 . S
C1714 H1706 0.950 . S
C1714 C1712 1.391 . S
C1714 C1715 1.400 . S
C1715 C1714 1.400 . S
C1715 C1716 1.398 . S
C1715 C1721 1.491 . S
C1716 H1707 0.950 . S
C1716 C1715 1.398 . S
C1716 C1717 1.391 . S
C1717 H1705 0.950 . S
C1717 C1713 1.393 . S
C1717 C1716 1.391 . S
C1718 H1708 0.950 . S
C1718 C1719 1.386 . S
C1718 C1720 1.391 . S
C1719 C1718 1.386 . S
C1719 C1723 1.393 . S
C1720 H1709 0.950 . S
C1720 C1718 1.391 . S
C1720 C1721 1.400 . S
C1721 C1715 1.491 . S
C1721 C1720 1.400 . S
C1721 C1722 1.398 . S
C1722 H1710 0.950 . S
C1722 C1721 1.398 . S
C1722 C1723 1.391 . S
C1723 H1711 0.950 . S
C1723 C1719 1.393 . S
C1723 C1722 1.391 . S
H1724 C1732 0.950 . S
H1725 C1737 0.950 . S
H1726 C1734 0.950 . S
H1727 C1736 0.950 . S
H1728 C1738 0.950 . S
H1729 C1740 0.950 . S
H1730 C1742 0.950 . S
H1731 C1743 0.950 . S
C1732 H1724 0.950 . S
C1732 C1733 1.386 . S
C1732 C1734 1.391 . S
C1733 C1732 1.386 . S
C1733 C1737 1.393 . S
C1734 H1726 0.950 . S
C1734 C1732 1.391 . S
C1734 C1735 1.400 . S
C1735 C1734 1.400 . S
C1735 C1736 1.398 . S
C1735 C1741 1.491 . S
C1736 H1727 0.950 . S
C1736 C1735 1.398 . S
C1736 C1737 1.391 . S
C1737 H1725 0.950 . S
C1737 C1733 1.393 . S
C1737 C1736 1.391 . S
C1738 H1728 0.950 . S
C1738 C1739 1.386 . S
C1738 C1740 1.391 . S
C1739 C1738 1.386 . S
C1739 C1743 1.393 . S
C1740 H1729 0.950 . S
C1740 C1738 1.391 . S
C1740 C1741 1.400 . S
C1741 C1735 1.491 . S
C1741 C1740 1.400 . S
C1741 C1742 1.398 . S
C1742 H1730 0.950 . S
C1742 C1741 1.398 . S
C1742 C1743 1.391 . S
C1743 H1731 0.950 . S
C1743 C1739 1.393 . S
C1743 C1742 1.391 . S
H1744 C1752 0.950 . S
H1745 C1757 0.950 . S
H1746 C1754 0.950 . S
H1747 C1756 0.950 . S
H1748 C1758 0.950 1_565 S
H1749 C1760 0.950 . S
H1750 C1762 0.950 . S
H1751 C1763 0.950 . S
C1752 H1744 0.950 . S
C1752 C1753 1.386 . S
C1752 C1754 1.391 . S
C1753 C1752 1.386 . S
C1753 C1757 1.393 . S
C1754 H1746 0.950 . S
C1754 C1752 1.391 . S
C1754 C1755 1.400 . S
C1755 C1754 1.400 . S
C1755 C1756 1.398 . S
C1755 C1761 1.491 . S
C1756 H1747 0.950 . S
C1756 C1755 1.398 . S
C1756 C1757 1.391 . S
C1757 H1745 0.950 . S
C1757 C1753 1.393 . S
C1757 C1756 1.391 . S
C1758 H1748 0.950 1_545 S
C1758 C1759 1.386 . S
C1758 C1760 1.391 . S
C1759 C1758 1.386 . S
C1759 C1763 1.393 . S
C1760 H1749 0.950 . S
C1760 C1758 1.391 . S
C1760 C1761 1.400 . S
C1761 C1755 1.491 . S
C1761 C1760 1.400 . S
C1761 C1762 1.398 . S
C1762 H1750 0.950 . S
C1762 C1761 1.398 . S
C1762 C1763 1.391 . S
C1763 H1751 0.950 . S
C1763 C1759 1.393 . S
C1763 C1762 1.391 . S
H1764 C1772 0.950 . S
H1765 C1777 0.950 . S
H1766 C1774 0.950 . S
H1767 C1776 0.950 . S
H1768 C1778 0.950 . S
H1769 C1780 0.950 . S
H1770 C1782 0.950 . S
H1771 C1783 0.950 . S
C1772 H1764 0.950 . S
C1772 C1773 1.386 . S
C1772 C1774 1.391 . S
C1773 C1772 1.386 . S
C1773 C1777 1.393 . S
C1774 H1766 0.950 . S
C1774 C1772 1.391 . S
C1774 C1775 1.400 . S
C1775 C1774 1.400 . S
C1775 C1776 1.398 . S
C1775 C1781 1.491 . S
C1776 H1767 0.950 . S
C1776 C1775 1.398 . S
C1776 C1777 1.391 . S
C1777 H1765 0.950 . S
C1777 C1773 1.393 . S
C1777 C1776 1.391 . S
C1778 H1768 0.950 . S
C1778 C1779 1.386 . S
C1778 C1780 1.391 . S
C1779 C1778 1.386 . S
C1779 C1783 1.393 . S
C1780 H1769 0.950 . S
C1780 C1778 1.391 . S
C1780 C1781 1.400 . S
C1781 C1775 1.491 . S
C1781 C1780 1.400 . S
C1781 C1782 1.398 . S
C1782 H1770 0.950 . S
C1782 C1781 1.398 . S
C1782 C1783 1.391 . S
C1783 H1771 0.950 . S
C1783 C1779 1.393 . S
C1783 C1782 1.391 . S
H1784 C1792 0.950 . S
H1785 C1797 0.950 . S
H1786 C1794 0.950 . S
H1787 C1796 0.950 . S
H1788 C1798 0.950 . S
H1789 C1800 0.950 . S
H1790 C1802 0.950 . S
H1791 C1803 0.950 . S
C1792 H1784 0.950 . S
C1792 C1793 1.386 . S
C1792 C1794 1.391 . S
C1793 C1792 1.386 . S
C1793 C1797 1.393 . S
C1794 H1786 0.950 . S
C1794 C1792 1.391 . S
C1794 C1795 1.400 . S
C1795 C1794 1.400 . S
C1795 C1796 1.398 . S
C1795 C1801 1.491 . S
C1796 H1787 0.950 . S
C1796 C1795 1.398 . S
C1796 C1797 1.391 . S
C1797 H1785 0.950 . S
C1797 C1793 1.393 . S
C1797 C1796 1.391 . S
C1798 H1788 0.950 . S
C1798 C1799 1.386 . S
C1798 C1800 1.391 . S
C1799 C1798 1.386 . S
C1799 C1803 1.393 . S
C1800 H1789 0.950 . S
C1800 C1798 1.391 . S
C1800 C1801 1.400 . S
C1801 C1795 1.491 . S
C1801 C1800 1.400 . S
C1801 C1802 1.398 . S
C1802 H1790 0.950 . S
C1802 C1801 1.398 . S
C1802 C1803 1.391 . S
C1803 H1791 0.950 . S
C1803 C1799 1.393 . S
C1803 C1802 1.391 . S
H1804 C1812 0.950 . S
H1805 C1817 0.950 . S
H1806 C1814 0.950 . S
H1807 C1816 0.950 . S
H1808 C1818 0.950 . S
H1809 C1820 0.950 . S
H1810 C1822 0.950 . S
H1811 C1823 0.950 . S
C1812 H1804 0.950 . S
C1812 C1813 1.386 . S
C1812 C1814 1.391 . S
C1813 C1812 1.386 . S
C1813 C1817 1.393 . S
C1814 H1806 0.950 . S
C1814 C1812 1.391 . S
C1814 C1815 1.400 . S
C1815 C1814 1.400 . S
C1815 C1816 1.398 . S
C1815 C1821 1.491 . S
C1816 H1807 0.950 . S
C1816 C1815 1.398 . S
C1816 C1817 1.391 . S
C1817 H1805 0.950 . S
C1817 C1813 1.393 . S
C1817 C1816 1.391 . S
C1818 H1808 0.950 . S
C1818 C1819 1.386 . S
C1818 C1820 1.391 . S
C1819 C1818 1.386 . S
C1819 C1823 1.393 . S
C1820 H1809 0.950 . S
C1820 C1818 1.391 . S
C1820 C1821 1.400 . S
C1821 C1815 1.491 . S
C1821 C1820 1.400 . S
C1821 C1822 1.398 . S
C1822 H1810 0.950 . S
C1822 C1821 1.398 . S
C1822 C1823 1.391 . S
C1823 H1811 0.950 . S
C1823 C1819 1.393 . S
C1823 C1822 1.391 . S
H1824 C1832 0.950 . S
H1825 C1837 0.950 . S
H1826 C1834 0.950 . S
H1827 C1836 0.950 . S
H1828 C1838 0.950 . S
H1829 C1840 0.950 . S
H1830 C1842 0.950 . S
H1831 C1843 0.950 . S
C1832 H1824 0.950 . S
C1832 C1833 1.386 . S
C1832 C1834 1.391 . S
C1833 C1832 1.386 . S
C1833 C1837 1.393 . S
C1834 H1826 0.950 . S
C1834 C1832 1.391 . S
C1834 C1835 1.400 . S
C1835 C1834 1.400 . S
C1835 C1836 1.398 . S
C1835 C1841 1.491 . S
C1836 H1827 0.950 . S
C1836 C1835 1.398 . S
C1836 C1837 1.391 . S
C1837 H1825 0.950 . S
C1837 C1833 1.393 . S
C1837 C1836 1.391 . S
C1838 H1828 0.950 . S
C1838 C1839 1.386 . S
C1838 C1840 1.391 . S
C1839 C1838 1.386 . S
C1839 C1843 1.393 . S
C1840 H1829 0.950 . S
C1840 C1838 1.391 . S
C1840 C1841 1.400 . S
C1841 C1835 1.491 . S
C1841 C1840 1.400 . S
C1841 C1842 1.398 . S
C1842 H1830 0.950 . S
C1842 C1841 1.398 . S
C1842 C1843 1.391 . S
C1843 H1831 0.950 . S
C1843 C1839 1.393 . S
C1843 C1842 1.391 . S
H1844 C1852 0.950 . S
H1845 C1857 0.950 . S
H1846 C1854 0.950 . S
H1847 C1856 0.950 . S
H1848 C1858 0.950 . S
H1849 C1860 0.950 . S
H1850 C1862 0.950 . S
H1851 C1863 0.950 . S
C1852 H1844 0.950 . S
C1852 C1853 1.386 . S
C1852 C1854 1.391 . S
C1853 C1852 1.386 . S
C1853 C1857 1.393 . S
C1854 H1846 0.950 . S
C1854 C1852 1.391 . S
C1854 C1855 1.400 . S
C1855 C1854 1.400 . S
C1855 C1856 1.398 . S
C1855 C1861 1.491 . S
C1856 H1847 0.950 . S
C1856 C1855 1.398 . S
C1856 C1857 1.391 . S
C1857 H1845 0.950 . S
C1857 C1853 1.393 . S
C1857 C1856 1.391 . S
C1858 H1848 0.950 . S
C1858 C1859 1.386 . S
C1858 C1860 1.391 . S
C1859 C1858 1.386 . S
C1859 C1863 1.393 . S
C1860 H1849 0.950 . S
C1860 C1858 1.391 . S
C1860 C1861 1.400 . S
C1861 C1855 1.491 . S
C1861 C1860 1.400 . S
C1861 C1862 1.398 . S
C1862 H1850 0.950 . S
C1862 C1861 1.398 . S
C1862 C1863 1.391 . S
C1863 H1851 0.950 . S
C1863 C1859 1.393 . S
C1863 C1862 1.391 . S
H1864 C1872 0.950 . S
H1865 C1877 0.950 . S
H1866 C1874 0.950 . S
H1867 C1876 0.950 . S
H1868 C1878 0.950 . S
H1869 C1880 0.950 . S
H1870 C1882 0.950 . S
H1871 C1883 0.950 . S
C1872 H1864 0.950 . S
C1872 C1873 1.386 . S
C1872 C1874 1.391 . S
C1873 C1872 1.386 . S
C1873 C1877 1.393 . S
C1874 H1866 0.950 . S
C1874 C1872 1.391 . S
C1874 C1875 1.400 . S
C1875 C1874 1.400 . S
C1875 C1876 1.398 . S
C1875 C1881 1.491 . S
C1876 H1867 0.950 . S
C1876 C1875 1.398 . S
C1876 C1877 1.391 . S
C1877 H1865 0.950 . S
C1877 C1873 1.393 . S
C1877 C1876 1.391 . S
C1878 H1868 0.950 . S
C1878 C1879 1.386 . S
C1878 C1880 1.391 . S
C1879 C1878 1.386 . S
C1879 C1883 1.393 . S
C1880 H1869 0.950 . S
C1880 C1878 1.391 . S
C1880 C1881 1.400 . S
C1881 C1875 1.491 . S
C1881 C1880 1.400 . S
C1881 C1882 1.398 . S
C1882 H1870 0.950 . S
C1882 C1881 1.398 . S
C1882 C1883 1.391 . S
C1883 H1871 0.950 . S
C1883 C1879 1.393 . S
C1883 C1882 1.391 . S
H1884 C1892 0.950 . S
H1885 C1897 0.950 . S
H1886 C1894 0.950 . S
H1887 C1896 0.950 . S
H1888 C1898 0.950 . S
H1889 C1900 0.950 . S
H1890 C1902 0.950 . S
H1891 C1903 0.950 . S
C1892 H1884 0.950 . S
C1892 C1893 1.386 . S
C1892 C1894 1.391 . S
C1893 C1892 1.386 . S
C1893 C1897 1.393 . S
C1894 H1886 0.950 . S
C1894 C1892 1.391 . S
C1894 C1895 1.400 . S
C1895 C1894 1.400 . S
C1895 C1896 1.398 . S
C1895 C1901 1.491 . S
C1896 H1887 0.950 . S
C1896 C1895 1.398 . S
C1896 C1897 1.391 . S
C1897 H1885 0.950 . S
C1897 C1893 1.393 . S
C1897 C1896 1.391 . S
C1898 H1888 0.950 . S
C1898 C1899 1.386 . S
C1898 C1900 1.391 . S
C1899 C1898 1.386 . S
C1899 C1903 1.393 . S
C1900 H1889 0.950 . S
C1900 C1898 1.391 . S
C1900 C1901 1.400 . S
C1901 C1895 1.491 . S
C1901 C1900 1.400 . S
C1901 C1902 1.398 . S
C1902 H1890 0.950 . S
C1902 C1901 1.398 . S
C1902 C1903 1.391 . S
C1903 H1891 0.950 . S
C1903 C1899 1.393 . S
C1903 C1902 1.391 . S
H1904 C1912 0.950 . S
H1905 C1917 0.950 . S
H1906 C1914 0.950 . S
H1907 C1916 0.950 . S
H1908 C1918 0.950 . S
H1909 C1920 0.950 . S
H1910 C1922 0.950 . S
H1911 C1923 0.950 . S
C1912 H1904 0.950 . S
C1912 C1913 1.386 . S
C1912 C1914 1.391 . S
C1913 C1912 1.386 . S
C1913 C1917 1.393 . S
C1914 H1906 0.950 . S
C1914 C1912 1.391 . S
C1914 C1915 1.400 . S
C1915 C1914 1.400 . S
C1915 C1916 1.398 . S
C1915 C1921 1.491 . S
C1916 H1907 0.950 . S
C1916 C1915 1.398 . S
C1916 C1917 1.391 . S
C1917 H1905 0.950 . S
C1917 C1913 1.393 . S
C1917 C1916 1.391 . S
C1918 H1908 0.950 . S
C1918 C1919 1.386 . S
C1918 C1920 1.391 . S
C1919 C1918 1.386 . S
C1919 C1923 1.393 . S
C1920 H1909 0.950 . S
C1920 C1918 1.391 . S
C1920 C1921 1.400 . S
C1921 C1915 1.491 . S
C1921 C1920 1.400 . S
C1921 C1922 1.398 . S
C1922 H1910 0.950 . S
C1922 C1921 1.398 . S
C1922 C1923 1.391 . S
C1923 H1911 0.950 . S
C1923 C1919 1.393 . S
C1923 C1922 1.391 . S
H1924 C1932 0.950 . S
H1925 C1937 0.950 . S
H1926 C1934 0.950 . S
H1927 C1936 0.950 . S
H1928 C1938 0.950 . S
H1929 C1940 0.950 . S
H1930 C1942 0.950 . S
H1931 C1943 0.950 . S
C1932 H1924 0.950 . S
C1932 C1933 1.386 . S
C1932 C1934 1.391 . S
C1933 C1932 1.386 . S
C1933 C1937 1.393 . S
C1934 H1926 0.950 . S
C1934 C1932 1.391 . S
C1934 C1935 1.400 . S
C1935 C1934 1.400 . S
C1935 C1936 1.398 . S
C1935 C1941 1.491 . S
C1936 H1927 0.950 . S
C1936 C1935 1.398 . S
C1936 C1937 1.391 . S
C1937 H1925 0.950 . S
C1937 C1933 1.393 . S
C1937 C1936 1.391 . S
C1938 H1928 0.950 . S
C1938 C1939 1.386 . S
C1938 C1940 1.391 . S
C1939 C1938 1.386 . S
C1939 C1943 1.393 . S
C1940 H1929 0.950 . S
C1940 C1938 1.391 . S
C1940 C1941 1.400 . S
C1941 C1935 1.491 . S
C1941 C1940 1.400 . S
C1941 C1942 1.398 . S
C1942 H1930 0.950 . S
C1942 C1941 1.398 . S
C1942 C1943 1.391 . S
C1943 H1931 0.950 . S
C1943 C1939 1.393 . S
C1943 C1942 1.391 . S
H1944 C1952 0.950 . S
H1945 C1957 0.950 . S
H1946 C1954 0.950 . S
H1947 C1956 0.950 . S
H1948 C1958 0.950 . S
H1949 C1960 0.950 . S
H1950 C1962 0.950 . S
H1951 C1963 0.950 . S
C1952 H1944 0.950 . S
C1952 C1953 1.386 . S
C1952 C1954 1.391 . S
C1953 C1952 1.386 . S
C1953 C1957 1.393 . S
C1954 H1946 0.950 . S
C1954 C1952 1.391 . S
C1954 C1955 1.400 . S
C1955 C1954 1.400 . S
C1955 C1956 1.398 . S
C1955 C1961 1.491 . S
C1956 H1947 0.950 . S
C1956 C1955 1.398 . S
C1956 C1957 1.391 . S
C1957 H1945 0.950 . S
C1957 C1953 1.393 . S
C1957 C1956 1.391 . S
C1958 H1948 0.950 . S
C1958 C1959 1.386 . S
C1958 C1960 1.391 . S
C1959 C1958 1.386 . S
C1959 C1963 1.393 . S
C1960 H1949 0.950 . S
C1960 C1958 1.391 . S
C1960 C1961 1.400 . S
C1961 C1955 1.491 . S
C1961 C1960 1.400 . S
C1961 C1962 1.398 . S
C1962 H1950 0.950 . S
C1962 C1961 1.398 . S
C1962 C1963 1.391 . S
C1963 H1951 0.950 . S
C1963 C1959 1.393 . S
C1963 C1962 1.391 . S
H1964 C1972 0.950 . S
H1965 C1977 0.950 . S
H1966 C1974 0.950 . S
H1967 C1976 0.950 . S
H1968 C1978 0.950 . S
H1969 C1980 0.950 . S
H1970 C1982 0.950 . S
H1971 C1983 0.950 . S
C1972 H1964 0.950 . S
C1972 C1973 1.386 . S
C1972 C1974 1.391 . S
C1973 C1972 1.386 . S
C1973 C1977 1.393 . S
C1974 H1966 0.950 . S
C1974 C1972 1.391 . S
C1974 C1975 1.400 . S
C1975 C1974 1.400 . S
C1975 C1976 1.398 . S
C1975 C1981 1.491 . S
C1976 H1967 0.950 . S
C1976 C1975 1.398 . S
C1976 C1977 1.391 . S
C1977 H1965 0.950 . S
C1977 C1973 1.393 . S
C1977 C1976 1.391 . S
C1978 H1968 0.950 . S
C1978 C1979 1.386 . S
C1978 C1980 1.391 . S
C1979 C1978 1.386 . S
C1979 C1983 1.393 . S
C1980 H1969 0.950 . S
C1980 C1978 1.391 . S
C1980 C1981 1.400 . S
C1981 C1975 1.491 . S
C1981 C1980 1.400 . S
C1981 C1982 1.398 . S
C1982 H1970 0.950 . S
C1982 C1981 1.398 . S
C1982 C1983 1.391 . S
C1983 H1971 0.950 . S
C1983 C1979 1.393 . S
C1983 C1982 1.391 . S
H1984 C1992 0.950 . S
H1985 C1997 0.950 . S
H1986 C1994 0.950 . S
H1987 C1996 0.950 . S
H1988 C1998 0.950 . S
H1989 C2000 0.950 . S
H1990 C2002 0.950 . S
H1991 C2003 0.950 . S
C1992 H1984 0.950 . S
C1992 C1993 1.386 . S
C1992 C1994 1.391 . S
C1993 C1992 1.386 . S
C1993 C1997 1.393 . S
C1994 H1986 0.950 . S
C1994 C1992 1.391 . S
C1994 C1995 1.400 . S
C1995 C1994 1.400 . S
C1995 C1996 1.398 . S
C1995 C2001 1.491 . S
C1996 H1987 0.950 . S
C1996 C1995 1.398 . S
C1996 C1997 1.391 . S
C1997 H1985 0.950 . S
C1997 C1993 1.393 . S
C1997 C1996 1.391 . S
C1998 H1988 0.950 . S
C1998 C1999 1.386 . S
C1998 C2000 1.391 . S
C1999 C1998 1.386 . S
C1999 C2003 1.393 . S
C2000 H1989 0.950 . S
C2000 C1998 1.391 . S
C2000 C2001 1.400 . S
C2001 C1995 1.491 . S
C2001 C2000 1.400 . S
C2001 C2002 1.398 . S
C2002 H1990 0.950 . S
C2002 C2001 1.398 . S
C2002 C2003 1.391 . S
C2003 H1991 0.950 . S
C2003 C1999 1.393 . S
C2003 C2002 1.391 . S
H2004 C2012 0.950 . S
H2005 C2017 0.950 . S
H2006 C2014 0.950 . S
H2007 C2016 0.950 . S
H2008 C2018 0.950 . S
H2009 C2020 0.950 . S
H2010 C2022 0.950 . S
H2011 C2023 0.950 . S
C2012 H2004 0.950 . S
C2012 C2013 1.386 . S
C2012 C2014 1.391 . S
C2013 C2012 1.386 . S
C2013 C2017 1.393 . S
C2014 H2006 0.950 . S
C2014 C2012 1.391 . S
C2014 C2015 1.400 . S
C2015 C2014 1.400 . S
C2015 C2016 1.398 . S
C2015 C2021 1.491 . S
C2016 H2007 0.950 . S
C2016 C2015 1.398 . S
C2016 C2017 1.391 . S
C2017 H2005 0.950 . S
C2017 C2013 1.393 . S
C2017 C2016 1.391 . S
C2018 H2008 0.950 . S
C2018 C2019 1.386 . S
C2018 C2020 1.391 . S
C2019 C2018 1.386 . S
C2019 C2023 1.393 . S
C2020 H2009 0.950 . S
C2020 C2018 1.391 . S
C2020 C2021 1.400 . S
C2021 C2015 1.491 . S
C2021 C2020 1.400 . S
C2021 C2022 1.398 . S
C2022 H2010 0.950 . S
C2022 C2021 1.398 . S
C2022 C2023 1.391 . S
C2023 H2011 0.950 . S
C2023 C2019 1.393 . S
C2023 C2022 1.391 . S
H2024 C2032 0.950 . S
H2025 C2037 0.950 . S
H2026 C2034 0.950 . S
H2027 C2036 0.950 . S
H2028 C2038 0.950 . S
H2029 C2040 0.950 . S
H2030 C2042 0.950 . S
H2031 C2043 0.950 . S
C2032 H2024 0.950 . S
C2032 C2033 1.386 . S
C2032 C2034 1.391 . S
C2033 C2032 1.386 . S
C2033 C2037 1.393 . S
C2034 H2026 0.950 . S
C2034 C2032 1.391 . S
C2034 C2035 1.400 . S
C2035 C2034 1.400 . S
C2035 C2036 1.398 . S
C2035 C2041 1.491 . S
C2036 H2027 0.950 . S
C2036 C2035 1.398 . S
C2036 C2037 1.391 . S
C2037 H2025 0.950 . S
C2037 C2033 1.393 . S
C2037 C2036 1.391 . S
C2038 H2028 0.950 . S
C2038 C2039 1.386 . S
C2038 C2040 1.391 . S
C2039 C2038 1.386 . S
C2039 C2043 1.393 . S
C2040 H2029 0.950 . S
C2040 C2038 1.391 . S
C2040 C2041 1.400 . S
C2041 C2035 1.491 . S
C2041 C2040 1.400 . S
C2041 C2042 1.398 . S
C2042 H2030 0.950 . S
C2042 C2041 1.398 . S
C2042 C2043 1.391 . S
C2043 H2031 0.950 . S
C2043 C2039 1.393 . S
C2043 C2042 1.391 . S
H2044 C2052 0.950 . S
H2045 C2057 0.950 . S
H2046 C2054 0.950 . S
H2047 C2056 0.950 . S
H2048 C2058 0.950 . S
H2049 C2060 0.950 . S
H2050 C2062 0.950 . S
H2051 C2063 0.950 . S
C2052 H2044 0.950 . S
C2052 C2053 1.386 . S
C2052 C2054 1.391 . S
C2053 C2052 1.386 . S
C2053 C2057 1.393 . S
C2054 H2046 0.950 . S
C2054 C2052 1.391 . S
C2054 C2055 1.400 . S
C2055 C2054 1.400 . S
C2055 C2056 1.398 . S
C2055 C2061 1.491 . S
C2056 H2047 0.950 . S
C2056 C2055 1.398 . S
C2056 C2057 1.391 . S
C2057 H2045 0.950 . S
C2057 C2053 1.393 . S
C2057 C2056 1.391 . S
C2058 H2048 0.950 . S
C2058 C2059 1.386 . S
C2058 C2060 1.391 . S
C2059 C2058 1.386 . S
C2059 C2063 1.393 . S
C2060 H2049 0.950 . S
C2060 C2058 1.391 . S
C2060 C2061 1.400 . S
C2061 C2055 1.491 . S
C2061 C2060 1.400 . S
C2061 C2062 1.398 . S
C2062 H2050 0.950 . S
C2062 C2061 1.398 . S
C2062 C2063 1.391 . S
C2063 H2051 0.950 . S
C2063 C2059 1.393 . S
C2063 C2062 1.391 . S
H2064 C2072 0.950 . S
H2065 C2077 0.950 . S
H2066 C2074 0.950 . S
H2067 C2076 0.950 . S
H2068 C2078 0.950 . S
H2069 C2080 0.950 . S
H2070 C2082 0.950 . S
H2071 C2083 0.950 . S
C2072 H2064 0.950 . S
C2072 C2073 1.386 . S
C2072 C2074 1.391 1_556 S
C2073 C2072 1.386 . S
C2073 C2077 1.393 . S
C2074 H2066 0.950 . S
C2074 C2072 1.391 1_554 S
C2074 C2075 1.400 . S
C2075 C2074 1.400 . S
C2075 C2076 1.398 . S
C2075 C2081 1.491 . S
C2076 H2067 0.950 . S
C2076 C2075 1.398 . S
C2076 C2077 1.391 1_554 S
C2077 H2065 0.950 . S
C2077 C2073 1.393 . S
C2077 C2076 1.391 1_556 S
C2078 H2068 0.950 . S
C2078 C2079 1.386 . S
C2078 C2080 1.391 . S
C2079 C2078 1.386 . S
C2079 C2083 1.393 . S
C2080 H2069 0.950 . S
C2080 C2078 1.391 . S
C2080 C2081 1.400 . S
C2081 C2075 1.491 . S
C2081 C2080 1.400 . S
C2081 C2082 1.398 . S
C2082 H2070 0.950 . S
C2082 C2081 1.398 . S
C2082 C2083 1.391 . S
C2083 H2071 0.950 . S
C2083 C2079 1.393 . S
C2083 C2082 1.391 . S
H2084 C2092 0.950 . S
H2085 C2097 0.950 . S
H2086 C2094 0.950 1_556 S
H2087 C2096 0.950 . S
H2088 C2098 0.950 . S
H2089 C2100 0.950 . S
H2090 C2102 0.950 . S
H2091 C2103 0.950 . S
C2092 H2084 0.950 . S
C2092 C2093 1.386 . S
C2092 C2094 1.391 . S
C2093 C2092 1.386 . S
C2093 C2097 1.393 . S
C2094 H2086 0.950 1_554 S
C2094 C2092 1.391 . S
C2094 C2095 1.400 . S
C2095 C2094 1.400 . S
C2095 C2096 1.398 . S
C2095 C2101 1.491 . S
C2096 H2087 0.950 . S
C2096 C2095 1.398 . S
C2096 C2097 1.391 . S
C2097 H2085 0.950 . S
C2097 C2093 1.393 . S
C2097 C2096 1.391 . S
C2098 H2088 0.950 . S
C2098 C2099 1.386 1_554 S
C2098 C2100 1.391 . S
C2099 C2098 1.386 1_556 S
C2099 C2103 1.393 . S
C2100 H2089 0.950 . S
C2100 C2098 1.391 . S
C2100 C2101 1.400 . S
C2101 C2095 1.491 . S
C2101 C2100 1.400 . S
C2101 C2102 1.398 1_554 S
C2102 H2090 0.950 . S
C2102 C2101 1.398 1_556 S
C2102 C2103 1.391 . S
C2103 H2091 0.950 . S
C2103 C2099 1.393 . S
C2103 C2102 1.391 . S
H2104 C2112 0.950 . S
H2105 C2117 0.950 . S
H2106 C2114 0.950 . S
H2107 C2116 0.950 . S
H2108 C2118 0.950 . S
H2109 C2120 0.950 . S
H2110 C2122 0.950 1_556 S
H2111 C2123 0.950 . S
C2112 H2104 0.950 . S
C2112 C2113 1.386 . S
C2112 C2114 1.391 . S
C2113 C2112 1.386 . S
C2113 C2117 1.393 1_556 S
C2114 H2106 0.950 . S
C2114 C2112 1.391 . S
C2114 C2115 1.400 1_556 S
C2115 C2114 1.400 1_554 S
C2115 C2116 1.398 . S
C2115 C2121 1.491 . S
C2116 H2107 0.950 . S
C2116 C2115 1.398 . S
C2116 C2117 1.391 . S
C2117 H2105 0.950 . S
C2117 C2113 1.393 1_554 S
C2117 C2116 1.391 . S
C2118 H2108 0.950 . S
C2118 C2119 1.386 . S
C2118 C2120 1.391 . S
C2119 C2118 1.386 . S
C2119 C2123 1.393 . S
C2120 H2109 0.950 . S
C2120 C2118 1.391 . S
C2120 C2121 1.400 . S
C2121 C2115 1.491 . S
C2121 C2120 1.400 . S
C2121 C2122 1.398 . S
C2122 H2110 0.950 1_554 S
C2122 C2121 1.398 . S
C2122 C2123 1.391 . S
C2123 H2111 0.950 . S
C2123 C2119 1.393 . S
C2123 C2122 1.391 . S
H2124 C2132 0.950 . S
H2125 C2137 0.950 . S
H2126 C2134 0.950 . S
H2127 C2136 0.950 . S
H2128 C2138 0.950 . S
H2129 C2140 0.950 . S
H2130 C2142 0.950 . S
H2131 C2143 0.950 . S
C2132 H2124 0.950 . S
C2132 C2133 1.386 . S
C2132 C2134 1.391 . S
C2133 C2132 1.386 . S
C2133 C2137 1.393 . S
C2134 H2126 0.950 . S
C2134 C2132 1.391 . S
C2134 C2135 1.400 . S
C2135 C2134 1.400 . S
C2135 C2136 1.398 . S
C2135 C2141 1.491 . S
C2136 H2127 0.950 . S
C2136 C2135 1.398 . S
C2136 C2137 1.391 . S
C2137 H2125 0.950 . S
C2137 C2133 1.393 . S
C2137 C2136 1.391 . S
C2138 H2128 0.950 . S
C2138 C2139 1.386 . S
C2138 C2140 1.391 . S
C2139 C2138 1.386 . S
C2139 C2143 1.393 1_556 S
C2140 H2129 0.950 . S
C2140 C2138 1.391 . S
C2140 C2141 1.400 1_556 S
C2141 C2135 1.491 . S
C2141 C2140 1.400 1_554 S
C2141 C2142 1.398 . S
C2142 H2130 0.950 . S
C2142 C2141 1.398 . S
C2142 C2143 1.391 . S
C2143 H2131 0.950 . S
C2143 C2139 1.393 1_554 S
C2143 C2142 1.391 . S
H2144 C2152 0.950 . S
H2145 C2157 0.950 . S
H2146 C2154 0.950 . S
H2147 C2156 0.950 . S
H2148 C2158 0.950 . S
H2149 C2160 0.950 . S
H2150 C2162 0.950 . S
H2151 C2163 0.950 . S
C2152 H2144 0.950 . S
C2152 C2153 1.386 . S
C2152 C2154 1.391 . S
C2153 C2152 1.386 . S
C2153 C2157 1.393 . S
C2154 H2146 0.950 . S
C2154 C2152 1.391 . S
C2154 C2155 1.400 . S
C2155 C2154 1.400 . S
C2155 C2156 1.398 . S
C2155 C2161 1.491 . S
C2156 H2147 0.950 . S
C2156 C2155 1.398 . S
C2156 C2157 1.391 . S
C2157 H2145 0.950 . S
C2157 C2153 1.393 . S
C2157 C2156 1.391 . S
C2158 H2148 0.950 . S
C2158 C2159 1.386 . S
C2158 C2160 1.391 . S
C2159 C2158 1.386 . S
C2159 C2163 1.393 . S
C2160 H2149 0.950 . S
C2160 C2158 1.391 . S
C2160 C2161 1.400 . S
C2161 C2155 1.491 . S
C2161 C2160 1.400 . S
C2161 C2162 1.398 . S
C2162 H2150 0.950 . S
C2162 C2161 1.398 . S
C2162 C2163 1.391 . S
C2163 H2151 0.950 . S
C2163 C2159 1.393 . S
C2163 C2162 1.391 . S
H2164 C2172 0.950 . S
H2165 C2177 0.950 . S
H2166 C2174 0.950 . S
H2167 C2176 0.950 . S
H2168 C2178 0.950 . S
H2169 C2180 0.950 . S
H2170 C2182 0.950 . S
H2171 C2183 0.950 . S
C2172 H2164 0.950 . S
C2172 C2173 1.386 . S
C2172 C2174 1.391 . S
C2173 C2172 1.386 . S
C2173 C2177 1.393 . S
C2174 H2166 0.950 . S
C2174 C2172 1.391 . S
C2174 C2175 1.400 . S
C2175 C2174 1.400 . S
C2175 C2176 1.398 . S
C2175 C2181 1.491 . S
C2176 H2167 0.950 . S
C2176 C2175 1.398 . S
C2176 C2177 1.391 . S
C2177 H2165 0.950 . S
C2177 C2173 1.393 . S
C2177 C2176 1.391 . S
C2178 H2168 0.950 . S
C2178 C2179 1.386 . S
C2178 C2180 1.391 . S
C2179 C2178 1.386 . S
C2179 C2183 1.393 . S
C2180 H2169 0.950 . S
C2180 C2178 1.391 . S
C2180 C2181 1.400 . S
C2181 C2175 1.491 . S
C2181 C2180 1.400 . S
C2181 C2182 1.398 . S
C2182 H2170 0.950 . S
C2182 C2181 1.398 . S
C2182 C2183 1.391 . S
C2183 H2171 0.950 . S
C2183 C2179 1.393 . S
C2183 C2182 1.391 . S
H2184 C2192 0.950 . S
H2185 C2197 0.950 . S
H2186 C2194 0.950 . S
H2187 C2196 0.950 . S
H2188 C2198 0.950 . S
H2189 C2200 0.950 . S
H2190 C2202 0.950 . S
H2191 C2203 0.950 . S
C2192 H2184 0.950 . S
C2192 C2193 1.386 . S
C2192 C2194 1.391 . S
C2193 C2192 1.386 . S
C2193 C2197 1.393 . S
C2194 H2186 0.950 . S
C2194 C2192 1.391 . S
C2194 C2195 1.400 . S
C2195 C2194 1.400 . S
C2195 C2196 1.398 . S
C2195 C2201 1.491 . S
C2196 H2187 0.950 . S
C2196 C2195 1.398 . S
C2196 C2197 1.391 . S
C2197 H2185 0.950 . S
C2197 C2193 1.393 . S
C2197 C2196 1.391 . S
C2198 H2188 0.950 . S
C2198 C2199 1.386 . S
C2198 C2200 1.391 . S
C2199 C2198 1.386 . S
C2199 C2203 1.393 . S
C2200 H2189 0.950 . S
C2200 C2198 1.391 . S
C2200 C2201 1.400 . S
C2201 C2195 1.491 . S
C2201 C2200 1.400 . S
C2201 C2202 1.398 . S
C2202 H2190 0.950 . S
C2202 C2201 1.398 . S
C2202 C2203 1.391 . S
C2203 H2191 0.950 . S
C2203 C2199 1.393 . S
C2203 C2202 1.391 . S
H2204 C2212 0.950 . S
H2205 C2217 0.950 . S
H2206 C2214 0.950 . S
H2207 C2216 0.950 . S
H2208 C2218 0.950 . S
H2209 C2220 0.950 . S
H2210 C2222 0.950 . S
H2211 C2223 0.950 . S
C2212 H2204 0.950 . S
C2212 C2213 1.386 . S
C2212 C2214 1.391 . S
C2213 C2212 1.386 . S
C2213 C2217 1.393 . S
C2214 H2206 0.950 . S
C2214 C2212 1.391 . S
C2214 C2215 1.400 . S
C2215 C2214 1.400 . S
C2215 C2216 1.398 . S
C2215 C2221 1.491 . S
C2216 H2207 0.950 . S
C2216 C2215 1.398 . S
C2216 C2217 1.391 . S
C2217 H2205 0.950 . S
C2217 C2213 1.393 . S
C2217 C2216 1.391 . S
C2218 H2208 0.950 . S
C2218 C2219 1.386 . S
C2218 C2220 1.391 . S
C2219 C2218 1.386 . S
C2219 C2223 1.393 . S
C2220 H2209 0.950 . S
C2220 C2218 1.391 . S
C2220 C2221 1.400 . S
C2221 C2215 1.491 . S
C2221 C2220 1.400 . S
C2221 C2222 1.398 . S
C2222 H2210 0.950 . S
C2222 C2221 1.398 . S
C2222 C2223 1.391 . S
C2223 H2211 0.950 . S
C2223 C2219 1.393 . S
C2223 C2222 1.391 . S
H2224 C2232 0.950 . S
H2225 C2237 0.950 . S
H2226 C2234 0.950 1_554 S
H2227 C2236 0.950 . S
H2228 C2238 0.950 . S
H2229 C2240 0.950 . S
H2230 C2242 0.950 . S
H2231 C2243 0.950 . S
C2232 H2224 0.950 . S
C2232 C2233 1.386 . S
C2232 C2234 1.391 . S
C2233 C2232 1.386 . S
C2233 C2237 1.393 . S
C2234 H2226 0.950 1_556 S
C2234 C2232 1.391 . S
C2234 C2235 1.400 . S
C2235 C2234 1.400 . S
C2235 C2236 1.398 . S
C2235 C2241 1.491 . S
C2236 H2227 0.950 . S
C2236 C2235 1.398 . S
C2236 C2237 1.391 . S
C2237 H2225 0.950 . S
C2237 C2233 1.393 . S
C2237 C2236 1.391 . S
C2238 H2228 0.950 . S
C2238 C2239 1.386 1_556 S
C2238 C2240 1.391 . S
C2239 C2238 1.386 1_554 S
C2239 C2243 1.393 . S
C2240 H2229 0.950 . S
C2240 C2238 1.391 . S
C2240 C2241 1.400 . S
C2241 C2235 1.491 . S
C2241 C2240 1.400 . S
C2241 C2242 1.398 1_556 S
C2242 H2230 0.950 . S
C2242 C2241 1.398 1_554 S
C2242 C2243 1.391 . S
C2243 H2231 0.950 . S
C2243 C2239 1.393 . S
C2243 C2242 1.391 . S
H2244 C2252 0.950 . S
H2245 C2257 0.950 . S
H2246 C2254 0.950 . S
H2247 C2256 0.950 . S
H2248 C2258 0.950 . S
H2249 C2260 0.950 . S
H2250 C2262 0.950 . S
H2251 C2263 0.950 . S
C2252 H2244 0.950 . S
C2252 C2253 1.386 . S
C2252 C2254 1.391 . S
C2253 C2252 1.386 . S
C2253 C2257 1.393 . S
C2254 H2246 0.950 . S
C2254 C2252 1.391 . S
C2254 C2255 1.400 . S
C2255 C2254 1.400 . S
C2255 C2256 1.398 . S
C2255 C2261 1.491 . S
C2256 H2247 0.950 . S
C2256 C2255 1.398 . S
C2256 C2257 1.391 . S
C2257 H2245 0.950 . S
C2257 C2253 1.393 . S
C2257 C2256 1.391 . S
C2258 H2248 0.950 . S
C2258 C2259 1.386 . S
C2258 C2260 1.391 1_554 S
C2259 C2258 1.386 . S
C2259 C2263 1.393 . S
C2260 H2249 0.950 . S
C2260 C2258 1.391 1_556 S
C2260 C2261 1.400 . S
C2261 C2255 1.491 . S
C2261 C2260 1.400 . S
C2261 C2262 1.398 1_556 S
C2262 H2250 0.950 . S
C2262 C2261 1.398 1_554 S
C2262 C2263 1.391 . S
C2263 H2251 0.950 . S
C2263 C2259 1.393 . S
C2263 C2262 1.391 . S
H2264 C2272 0.950 . S
H2265 C2277 0.950 . S
H2266 C2274 0.950 . S
H2267 C2276 0.950 . S
H2268 C2278 0.950 1_554 S
H2269 C2280 0.950 1_554 S
H2270 C2282 0.950 . S
H2271 C2283 0.950 . S
C2272 H2264 0.950 . S
C2272 C2273 1.386 1_556 S
C2272 C2274 1.391 . S
C2273 C2272 1.386 1_554 S
C2273 C2277 1.393 . S
C2274 H2266 0.950 . S
C2274 C2272 1.391 . S
C2274 C2275 1.400 . S
C2275 C2274 1.400 . S
C2275 C2276 1.398 1_556 S
C2275 C2281 1.491 . S
C2276 H2267 0.950 . S
C2276 C2275 1.398 1_554 S
C2276 C2277 1.391 . S
C2277 H2265 0.950 . S
C2277 C2273 1.393 . S
C2277 C2276 1.391 . S
C2278 H2268 0.950 1_556 S
C2278 C2279 1.386 . S
C2278 C2280 1.391 . S
C2279 C2278 1.386 . S
C2279 C2283 1.393 . S
C2280 H2269 0.950 1_556 S
C2280 C2278 1.391 . S
C2280 C2281 1.400 . S
C2281 C2275 1.491 . S
C2281 C2280 1.400 . S
C2281 C2282 1.398 . S
C2282 H2270 0.950 . S
C2282 C2281 1.398 . S
C2282 C2283 1.391 . S
C2283 H2271 0.950 . S
C2283 C2279 1.393 . S
C2283 C2282 1.391 . S
H2284 C2292 0.950 . S
H2285 C2297 0.950 . S
H2286 C2294 0.950 . S
H2287 C2296 0.950 . S
H2288 C2298 0.950 . S
H2289 C2300 0.950 . S
H2290 C2302 0.950 1_554 S
H2291 C2303 0.950 1_554 S
C2292 H2284 0.950 . S
C2292 C2293 1.386 . S
C2292 C2294 1.391 . S
C2293 C2292 1.386 . S
C2293 C2297 1.393 1_554 S
C2294 H2286 0.950 . S
C2294 C2292 1.391 . S
C2294 C2295 1.400 1_554 S
C2295 C2294 1.400 1_556 S
C2295 C2296 1.398 . S
C2295 C2301 1.491 . S
C2296 H2287 0.950 . S
C2296 C2295 1.398 . S
C2296 C2297 1.391 . S
C2297 H2285 0.950 . S
C2297 C2293 1.393 1_556 S
C2297 C2296 1.391 . S
C2298 H2288 0.950 . S
C2298 C2299 1.386 . S
C2298 C2300 1.391 . S
C2299 C2298 1.386 . S
C2299 C2303 1.393 . S
C2300 H2289 0.950 . S
C2300 C2298 1.391 . S
C2300 C2301 1.400 . S
C2301 C2295 1.491 . S
C2301 C2300 1.400 . S
C2301 C2302 1.398 . S
C2302 H2290 0.950 1_556 S
C2302 C2301 1.398 . S
C2302 C2303 1.391 . S
C2303 H2291 0.950 1_556 S
C2303 C2299 1.393 . S
C2303 C2302 1.391 . S
C1353 C63 2.448 . S
C1359 C476 2.571 . S
C1373 C567 2.391 . S
C1379 C147 2.409 . S
C1393 C224 2.576 . S
C1399 C651 2.412 . S
C1413 C315 2.375 . S
C1419 C392 2.527 . S
C1433 C1159 2.573 . S
C1439 C746 2.442 . S
C1453 C1250 2.390 . S
C1459 C830 2.409 . S
C1473 C907 2.566 . S
C1479 C1334 2.424 . S
C1493 C998 2.371 . S
C1499 C1075 2.522 . S
C1513 C58 1.640 . S
C1519 C319 1.685 1_545 S
C1533 C142 1.653 . S
C1539 C67 1.746 . S
C1553 C237 1.569 . S
C1559 C151 1.668 . S
C1573 C310 1.602 . S
C1579 C242 1.574 1_455 S
C1593 C405 1.526 . S
C1599 C494 1.522 1_565 S
C1613 C571 1.722 . S
C1619 C489 1.616 . S
C1633 C562 1.662 . S
C1639 C655 1.731 . S
C1653 C410 1.573 1_655 S
C1659 C646 1.632 . S
C1673 C980 1.692 1_565 S
C1679 C741 1.611 . S
C1693 C825 1.643 . S
C1699 C728 1.747 . S
C1713 C898 1.538 . S
C1719 C812 1.679 . S
C1733 C993 1.605 . S
C1739 C903 1.569 1_655 S
C1753 C1066 1.519 . S
C1759 C1155 1.535 1_545 S
C1773 C1150 1.586 . S
C1779 C1232 1.738 . S
C1793 C1245 1.653 . S
C1799 C1316 1.723 . S
C1813 C1329 1.634 . S
C1819 C1071 1.604 1_455 S
C1833 C69 1.252 . S
C1839 C226 0.973 . S
C1853 C153 1.287 . S
C1859 C321 1.262 . S
C1873 C573 1.271 . S
C1879 C394 0.952 . S
C1893 C657 1.284 . S
C1899 C478 0.915 . S
C1913 C909 0.932 . S
C1919 C730 1.300 . S
C1933 C982 1.282 . S
C1939 C814 1.260 . S
C1953 C1077 0.940 . S
C1959 C1234 1.284 . S
C1973 C1161 0.918 . S
C1979 C1318 1.276 . S
C1993 C56 2.287 . S
C1999 C987 2.268 . S
C2013 C735 2.287 . S
C2019 C140 2.307 . S
C2033 C231 2.363 . S
C2039 C819 2.310 . S
C2053 C896 2.258 . S
C2059 C308 2.290 . S
C2073 C1148 2.299 . S
C2079 C399 2.356 . S
C2093 C483 2.357 . S
C2099 C1239 2.296 . S
C2113 C1323 2.287 . S
C2119 C560 2.310 . S
C2133 C644 2.272 . S
C2139 C1064 2.243 . S
C2153 C739 2.287 . S
C2159 C326 2.267 . S
C2173 C823 2.316 . S
C2179 C74 2.281 . S
C2193 C158 2.307 . S
C2199 C914 2.361 . S
C2213 C991 2.291 . S
C2219 C235 2.269 . S
C2233 C1082 2.355 . S
C2239 C487 2.290 . S
C2253 C1166 2.358 . S
C2259 C578 2.293 . S
C2273 C662 2.281 . S
C2279 C1243 2.312 . S
C2293 C403 2.253 . S
C2299 C1327 2.269 . S
