# Generated by pormake.
# Topology lcs, (4)-cn, num edge types: 1
# Building blocks:
#     Node 0, Type 0, BuildingBlock: CEKHIL_clean_sbu_0, # of connection points: 4
#     Node 1, Type 0, BuildingBlock: CEKHIL_clean_sbu_0, # of connection points: 4
#     Node 2, Type 0, BuildingBlock: CEKHIL_clean_sbu_0, # of connection points: 4
#     Node 3, Type 0, BuildingBlock: CEKHIL_clean_sbu_0, # of connection points: 4
#     Node 4, Type 0, BuildingBlock: CEKHIL_clean_sbu_0, # of connection points: 4
#     Node 5, Type 0, BuildingBlock: CEKHIL_clean_sbu_0, # of connection points: 4
#     Node 6, Type 0, BuildingBlock: CEKHIL_clean_sbu_0, # of connection points: 4
#     Node 7, Type 0, BuildingBlock: CEKHIL_clean_sbu_0, # of connection points: 4
#     Node 8, Type 0, BuildingBlock: CEKHIL_clean_sbu_0, # of connection points: 4
#     Node 9, Type 0, BuildingBlock: CEKHIL_clean_sbu_0, # of connection points: 4
#     Node 10, Type 0, BuildingBlock: CEKHIL_clean_sbu_0, # of connection points: 4
#     Node 11, Type 0, BuildingBlock: CEKHIL_clean_sbu_0, # of connection points: 4
#     Node 12, Type 0, BuildingBlock: CEKHIL_clean_sbu_0, # of connection points: 4
#     Node 13, Type 0, BuildingBlock: CEKHIL_clean_sbu_0, # of connection points: 4
#     Node 14, Type 0, BuildingBlock: CEKHIL_clean_sbu_0, # of connection points: 4
#     Node 15, Type 0, BuildingBlock: CEKHIL_clean_sbu_0, # of connection points: 4
#     Node 16, Type 0, BuildingBlock: CEKHIL_clean_sbu_0, # of connection points: 4
#     Node 17, Type 0, BuildingBlock: CEKHIL_clean_sbu_0, # of connection points: 4
#     Node 18, Type 0, BuildingBlock: CEKHIL_clean_sbu_0, # of connection points: 4
#     Node 19, Type 0, BuildingBlock: CEKHIL_clean_sbu_0, # of connection points: 4
#     Node 20, Type 0, BuildingBlock: CEKHIL_clean_sbu_0, # of connection points: 4
#     Node 21, Type 0, BuildingBlock: CEKHIL_clean_sbu_0, # of connection points: 4
#     Node 22, Type 0, BuildingBlock: CEKHIL_clean_sbu_0, # of connection points: 4
#     Node 23, Type 0, BuildingBlock: CEKHIL_clean_sbu_0, # of connection points: 4
#     Edge 24, Type (0, 0), BuildingBlock: EZIPEK_clean_linker_0, # of connection points: 2
#     Edge 25, Type (0, 0), BuildingBlock: EZIPEK_clean_linker_0, # of connection points: 2
#     Edge 26, Type (0, 0), BuildingBlock: EZIPEK_clean_linker_0, # of connection points: 2
#     Edge 27, Type (0, 0), BuildingBlock: EZIPEK_clean_linker_0, # of connection points: 2
#     Edge 28, Type (0, 0), BuildingBlock: EZIPEK_clean_linker_0, # of connection points: 2
#     Edge 29, Type (0, 0), BuildingBlock: EZIPEK_clean_linker_0, # of connection points: 2
#     Edge 30, Type (0, 0), BuildingBlock: EZIPEK_clean_linker_0, # of connection points: 2
#     Edge 31, Type (0, 0), BuildingBlock: EZIPEK_clean_linker_0, # of connection points: 2
#     Edge 32, Type (0, 0), BuildingBlock: EZIPEK_clean_linker_0, # of connection points: 2
#     Edge 33, Type (0, 0), BuildingBlock: EZIPEK_clean_linker_0, # of connection points: 2
#     Edge 34, Type (0, 0), BuildingBlock: EZIPEK_clean_linker_0, # of connection points: 2
#     Edge 35, Type (0, 0), BuildingBlock: EZIPEK_clean_linker_0, # of connection points: 2
#     Edge 36, Type (0, 0), BuildingBlock: EZIPEK_clean_linker_0, # of connection points: 2
#     Edge 37, Type (0, 0), BuildingBlock: EZIPEK_clean_linker_0, # of connection points: 2
#     Edge 38, Type (0, 0), BuildingBlock: EZIPEK_clean_linker_0, # of connection points: 2
#     Edge 39, Type (0, 0), BuildingBlock: EZIPEK_clean_linker_0, # of connection points: 2
#     Edge 40, Type (0, 0), BuildingBlock: EZIPEK_clean_linker_0, # of connection points: 2
#     Edge 41, Type (0, 0), BuildingBlock: EZIPEK_clean_linker_0, # of connection points: 2
#     Edge 42, Type (0, 0), BuildingBlock: EZIPEK_clean_linker_0, # of connection points: 2
#     Edge 43, Type (0, 0), BuildingBlock: EZIPEK_clean_linker_0, # of connection points: 2
#     Edge 44, Type (0, 0), BuildingBlock: EZIPEK_clean_linker_0, # of connection points: 2
#     Edge 45, Type (0, 0), BuildingBlock: EZIPEK_clean_linker_0, # of connection points: 2
#     Edge 46, Type (0, 0), BuildingBlock: EZIPEK_clean_linker_0, # of connection points: 2
#     Edge 47, Type (0, 0), BuildingBlock: EZIPEK_clean_linker_0, # of connection points: 2
#     Edge 48, Type (0, 0), BuildingBlock: EZIPEK_clean_linker_0, # of connection points: 2
#     Edge 49, Type (0, 0), BuildingBlock: EZIPEK_clean_linker_0, # of connection points: 2
#     Edge 50, Type (0, 0), BuildingBlock: EZIPEK_clean_linker_0, # of connection points: 2
#     Edge 51, Type (0, 0), BuildingBlock: EZIPEK_clean_linker_0, # of connection points: 2
#     Edge 52, Type (0, 0), BuildingBlock: EZIPEK_clean_linker_0, # of connection points: 2
#     Edge 53, Type (0, 0), BuildingBlock: EZIPEK_clean_linker_0, # of connection points: 2
#     Edge 54, Type (0, 0), BuildingBlock: EZIPEK_clean_linker_0, # of connection points: 2
#     Edge 55, Type (0, 0), BuildingBlock: EZIPEK_clean_linker_0, # of connection points: 2
#     Edge 56, Type (0, 0), BuildingBlock: EZIPEK_clean_linker_0, # of connection points: 2
#     Edge 57, Type (0, 0), BuildingBlock: EZIPEK_clean_linker_0, # of connection points: 2
#     Edge 58, Type (0, 0), BuildingBlock: EZIPEK_clean_linker_0, # of connection points: 2
#     Edge 59, Type (0, 0), BuildingBlock: EZIPEK_clean_linker_0, # of connection points: 2
#     Edge 60, Type (0, 0), BuildingBlock: EZIPEK_clean_linker_0, # of connection points: 2
#     Edge 61, Type (0, 0), BuildingBlock: EZIPEK_clean_linker_0, # of connection points: 2
#     Edge 62, Type (0, 0), BuildingBlock: EZIPEK_clean_linker_0, # of connection points: 2
#     Edge 63, Type (0, 0), BuildingBlock: EZIPEK_clean_linker_0, # of connection points: 2
#     Edge 64, Type (0, 0), BuildingBlock: EZIPEK_clean_linker_0, # of connection points: 2
#     Edge 65, Type (0, 0), BuildingBlock: EZIPEK_clean_linker_0, # of connection points: 2
#     Edge 66, Type (0, 0), BuildingBlock: EZIPEK_clean_linker_0, # of connection points: 2
#     Edge 67, Type (0, 0), BuildingBlock: EZIPEK_clean_linker_0, # of connection points: 2
#     Edge 68, Type (0, 0), BuildingBlock: EZIPEK_clean_linker_0, # of connection points: 2
#     Edge 69, Type (0, 0), BuildingBlock: EZIPEK_clean_linker_0, # of connection points: 2
#     Edge 70, Type (0, 0), BuildingBlock: EZIPEK_clean_linker_0, # of connection points: 2
#     Edge 71, Type (0, 0), BuildingBlock: EZIPEK_clean_linker_0, # of connection points: 2
# Relax obj value: 0.003
# Max RMSD: 0.026
# Mean RMSD: 0.022
data_MOF--net-lcs--node1-CEKHIL_clean_sbu_0--edge1-EZIPEK_clean_linker_0
_symmetry_space_group_name_H-M    P1
_symmetry_Int_Tables_number       1
_symmetry_cell_setting            triclinic
loop_
_symmetry_equiv_pos_as_xyz
'x, y, z'
_cell_length_a     36.30962
_cell_length_b     35.42968
_cell_length_c     35.391284
_cell_angle_alpha  91.152033
_cell_angle_beta   90.083681
_cell_angle_gamma 90.498731
loop_
_atom_site_label
_atom_site_type_symbol
_atom_site_fract_x
_atom_site_fract_y
_atom_site_fract_z
_atom_type_partial_charge
Co0 Co 0.0123 0.27309 0.39649 0.0
O1 O 0.96536 0.29716 0.38955 0.0
O2 O 0.98292 0.26903 0.44191 0.0
C3 C 0.04636 0.32117 0.37223 0.0
O4 O 0.05839 0.24601 0.41501 0.0
Co5 Co 0.06281 0.25248 0.32897 0.0
O6 O 0.10053 0.24513 0.36867 0.0
C7 C 0.99868 0.20346 0.34607 0.0
C8 C 0.95805 0.28794 0.42404 0.0
C9 C 0.09106 0.23908 0.40269 0.0
O10 O 0.99153 0.22353 0.37588 0.0
O11 O 0.02443 0.21142 0.32278 0.0
O12 O 0.03541 0.32234 0.40716 0.0
O13 O 0.0345 0.29242 0.35254 0.0
Co14 Co 0.03013 0.76318 0.64108 0.0
O15 O 0.07849 0.74294 0.65196 0.0
O16 O 0.0502 0.73577 0.59747 0.0
C17 C 0.04386 0.82207 0.66483 0.0
O18 O 0.98054 0.78035 0.61851 0.0
Co19 Co 0.97949 0.79165 0.70467 0.0
O20 O 0.94353 0.80285 0.66448 0.0
C21 C 0.98555 0.71 0.6905 0.0
C22 C 0.07973 0.73013 0.61748 0.0
C23 C 0.94989 0.79511 0.6299 0.0
O24 O 1.006 0.71589 0.6614 0.0
O25 O 0.97472 0.73629 0.71297 0.0
O26 O 0.05174 0.81246 0.63026 0.0
O27 O 0.02906 0.79559 0.6846 0.0
Co28 Co 0.5046 0.7673 0.89491 0.0
O29 O 0.45632 0.78876 0.88688 0.0
O30 O 0.47336 0.75922 0.9384 0.0
C31 C 0.53661 0.81899 0.87452 0.0
O32 O 0.5512 0.74305 0.9161 0.0
Co33 Co 0.56046 0.75337 0.83048 0.0
O34 O 0.59505 0.73964 0.87156 0.0
C35 C 0.49689 0.70163 0.83772 0.0
C36 C 0.44839 0.77825 0.92091 0.0
C37 C 0.58419 0.73523 0.90544 0.0
O38 O 0.48877 0.71704 0.87011 0.0
O39 O 0.52135 0.71524 0.81567 0.0
O40 O 0.52373 0.81785 0.90873 0.0
O41 O 0.52795 0.79018 0.85332 0.0
Co42 Co 0.5165 0.25177 0.14041 0.0
O43 O 0.56221 0.22546 0.14988 0.0
O44 O 0.53237 0.22308 0.09565 0.0
C45 C 0.53726 0.30773 0.16532 0.0
O46 O 0.46963 0.27694 0.11945 0.0
Co47 Co 0.47158 0.28656 0.2073 0.0
O48 O 0.43833 0.30484 0.16724 0.0
C49 C 0.46835 0.20455 0.19217 0.0
C50 C 0.56179 0.2146 0.11472 0.0
C51 C 0.44205 0.29634 0.13227 0.0
O52 O 0.48523 0.20827 0.16024 0.0
O53 O 0.46609 0.2313 0.2169 0.0
O54 O 0.54522 0.29768 0.13088 0.0
O55 O 0.51935 0.28282 0.18416 0.0
Co56 Co 0.01199 0.76144 0.14003 0.0
O57 O 0.05972 0.7859 0.14364 0.0
O58 O 0.03992 0.75447 0.09371 0.0
C59 C 0.98015 0.81206 0.16432 0.0
O60 O 0.96471 0.73369 0.12377 0.0
Co61 Co 0.96616 0.74439 0.20971 0.0
O62 O 0.92852 0.72358 0.17394 0.0
C63 C 0.03041 0.69744 0.19366 0.0
C64 C 0.06648 0.77391 0.10948 0.0
C65 C 0.93479 0.72108 0.13861 0.0
O66 O 0.03268 0.71266 0.1609 0.0
O67 O 0.00885 0.71015 0.2194 0.0
O68 O 0.98904 0.80981 0.12883 0.0
O69 O 0.99237 0.78481 0.18459 0.0
Co70 Co 0.50539 0.76485 0.38544 0.0
O71 O 0.4587 0.73832 0.37948 0.0
O72 O 0.48872 0.74449 0.43343 0.0
C73 C 0.48712 0.81601 0.35226 0.0
O74 O 0.5533 0.7916 0.40428 0.0
Co75 Co 0.554 0.78584 0.31793 0.0
O76 O 0.58817 0.80912 0.35514 0.0
C77 C 0.55029 0.70676 0.34164 0.0
C78 C 0.45965 0.73206 0.41541 0.0
C79 C 0.58259 0.80725 0.39053 0.0
O80 O 0.53267 0.71655 0.37188 0.0
O81 O 0.55837 0.72976 0.31549 0.0
O82 O 0.47933 0.81298 0.38787 0.0
O83 O 0.50404 0.78761 0.33716 0.0
Co84 Co 0.52052 0.26094 0.63302 0.0
O85 O 0.56755 0.28665 0.63742 0.0
O86 O 0.54712 0.25686 0.58582 0.0
C87 C 0.48785 0.30917 0.65974 0.0
O88 O 0.47356 0.23364 0.61549 0.0
Co89 Co 0.47344 0.2394 0.70106 0.0
O90 O 0.43624 0.22079 0.66401 0.0
C91 C 0.53866 0.19381 0.68276 0.0
C92 C 0.57226 0.27797 0.60195 0.0
C93 C 0.44346 0.21992 0.62883 0.0
O94 O 0.54285 0.21201 0.65178 0.0
O95 O 0.51458 0.20258 0.70769 0.0
O96 O 0.49682 0.30925 0.62428 0.0
O97 O 0.50038 0.28108 0.67869 0.0
Co98 Co 0.99516 0.26533 0.88855 0.0
O99 O 0.94882 0.23865 0.88197 0.0
O100 O 0.97999 0.24032 0.9352 0.0
C101 C 0.97469 0.31837 0.86084 0.0
O102 O 0.04329 0.29235 0.90623 0.0
Co103 Co 0.03828 0.29126 0.81773 0.0
O104 O 0.07466 0.3109 0.85492 0.0
C105 C 0.04244 0.21205 0.83989 0.0
C106 C 0.95027 0.22951 0.91714 0.0
C107 C 0.07155 0.30835 0.89064 0.0
O108 O 0.02411 0.21934 0.87046 0.0
O109 O 0.04782 0.236 0.81391 0.0
O110 O 0.96812 0.31242 0.89627 0.0
O111 O 0.99116 0.2914 0.84286 0.0
Co112 Co 0.38123 0.99514 0.27416 0.0
O113 O 0.3782 0.94504 0.29417 0.0
O114 O 0.42665 0.96832 0.26469 0.0
C115 C 0.358 0.02461 0.32655 0.0
O116 O 0.39593 0.04599 0.25242 0.0
Co117 Co 0.31116 0.04093 0.26118 0.0
O118 O 0.34526 0.07954 0.24033 0.0
C119 C 0.32606 0.97653 0.21234 0.0
C120 C 0.41211 0.94077 0.28351 0.0
C121 C 0.38018 0.07572 0.24005 0.0
O122 O 0.36002 0.97768 0.22311 0.0
O123 O 0.30105 0.99268 0.23202 0.0
O124 O 0.3925 0.01537 0.32503 0.0
O125 O 0.33828 0.01296 0.29819 0.0
Co126 Co 0.25744 0.13072 0.50258 0.0
O127 O 0.20993 0.12436 0.4789 0.0
O128 O 0.2311 0.17825 0.50319 0.0
C129 C 0.28914 0.10064 0.45547 0.0
O130 O 0.3051 0.1486 0.52799 0.0
Co131 Co 0.30136 0.0615 0.52702 0.0
O132 O 0.33955 0.09877 0.54363 0.0
C133 C 0.23699 0.08497 0.57167 0.0
C134 C 0.20538 0.16033 0.48429 0.0
C135 C 0.33419 0.13423 0.54257 0.0
O136 O 0.23644 0.1162 0.55357 0.0
O137 O 0.25738 0.05732 0.56135 0.0
O138 O 0.28051 0.13593 0.45303 0.0
O139 O 0.27618 0.08385 0.48483 0.0
Co140 Co 0.13882 0.01526 0.78289 0.0
O141 O 0.13139 0.98802 0.82924 0.0
O142 O 0.183 0.98809 0.79615 0.0
C143 C 0.11379 0.07003 0.8041 0.0
O144 O 0.15802 0.0407 0.73493 0.0
Co145 Co 0.07348 0.04588 0.73615 0.0
O146 O 0.11139 0.06019 0.69876 0.0
C147 C 0.08865 0.96459 0.73515 0.0
C148 C 0.16522 0.9769 0.82582 0.0
C149 C 0.14567 0.05534 0.70432 0.0
O150 O 0.11955 0.97048 0.75231 0.0
O151 O 0.0649 0.99033 0.72959 0.0
O152 O 0.14767 0.06183 0.81229 0.0
O153 O 0.09567 0.04401 0.78586 0.0
Co154 Co 0.25932 0.86644 0.99884 0.0
O155 O 0.30832 0.8734 0.97822 0.0
O156 O 0.28789 0.82064 1.00349 0.0
C157 C 0.23018 0.89259 0.94847 0.0
O158 O 0.21138 0.84638 0.0216 0.0
Co159 Co 0.20597 0.93152 0.01636 0.0
O160 O 0.16945 0.89196 0.03015 0.0
C161 C 0.27018 0.91982 0.06584 0.0
C162 C 0.31418 0.83837 0.98621 0.0
C163 C 0.17916 0.85757 0.03169 0.0
O164 O 0.2755 0.88673 0.05081 0.0
O165 O 0.24876 0.94382 0.05078 0.0
O166 O 0.24 0.85744 0.94735 0.0
O167 O 0.23923 0.91102 0.9789 0.0
Co168 Co 0.27578 0.38126 0.00553 0.0
O169 O 0.32363 0.38684 0.02909 0.0
O170 O 0.28973 0.33524 0.03192 0.0
C171 C 0.29502 0.40577 0.94971 0.0
O172 O 0.22558 0.36474 0.98223 0.0
Co173 Co 0.2346 0.45189 0.98223 0.0
O174 O 0.19587 0.41664 0.96375 0.0
C175 C 0.23808 0.43473 0.06191 0.0
C176 C 0.32034 0.35273 0.041 0.0
C177 C 0.19769 0.38096 0.9667 0.0
O178 O 0.25145 0.40214 0.05313 0.0
O179 O 0.23279 0.46053 0.03794 0.0
O180 O 0.29877 0.37022 0.95691 0.0
O181 O 0.28131 0.42589 0.97711 0.0
Co182 Co 0.74777 0.13267 0.0163 0.0
O183 O 0.70089 0.12143 0.04008 0.0
O184 O 0.72759 0.17747 0.0417 0.0
C185 C 0.73213 0.10343 0.96056 0.0
O186 O 0.7954 0.15616 0.99369 0.0
Co187 Co 0.79952 0.06955 0.98896 0.0
O188 O 0.83225 0.11026 0.9711 0.0
C189 C 0.79475 0.08762 0.07025 0.0
C190 C 0.69912 0.15669 0.05009 0.0
C191 C 0.82538 0.14498 0.97723 0.0
O192 O 0.77509 0.11693 0.06355 0.0
O193 O 0.80408 0.06354 0.04473 0.0
O194 O 0.72263 0.13802 0.96785 0.0
O195 O 0.74906 0.08675 0.98755 0.0
Co196 Co 0.14294 0.51787 0.2689 0.0
O197 O 0.14658 0.56721 0.24637 0.0
O198 O 0.09698 0.53091 0.24451 0.0
C199 C 0.16893 0.53818 0.32404 0.0
O200 O 0.12637 0.46738 0.29124 0.0
Co201 Co 0.20927 0.47266 0.29407 0.0
O202 O 0.17399 0.43622 0.31572 0.0
C203 C 0.19329 0.47719 0.21326 0.0
C204 C 0.11218 0.56332 0.23709 0.0
C205 C 0.13968 0.43947 0.30955 0.0
O206 O 0.16209 0.49267 0.22089 0.0
O207 O 0.21746 0.47003 0.23831 0.0
O208 O 0.13393 0.54198 0.31776 0.0
O209 O 0.18755 0.52275 0.29673 0.0
Co210 Co 0.78196 0.88158 0.51075 0.0
O211 O 0.8288 0.88638 0.53654 0.0
O212 O 0.79616 0.8337 0.53277 0.0
C213 C 0.8014 0.91067 0.45778 0.0
O214 O 0.73308 0.86569 0.48456 0.0
Co215 Co 0.73937 0.95364 0.49008 0.0
O216 O 0.7021 0.91798 0.4693 0.0
C217 C 0.74068 0.93001 0.56885 0.0
C218 C 0.82628 0.85082 0.54398 0.0
C219 C 0.70492 0.88218 0.46987 0.0
O220 O 0.75527 0.89828 0.55871 0.0
O221 O 0.73567 0.95722 0.54632 0.0
O222 O 0.80754 0.87508 0.46259 0.0
O223 O 0.78617 0.92814 0.48603 0.0
Co224 Co 0.89141 0.99557 0.26988 0.0
O225 O 0.89869 0.96967 0.31683 0.0
O226 O 0.84747 0.99877 0.30056 0.0
C227 C 0.91499 0.9477 0.23321 0.0
O228 O 0.87105 0.02322 0.22451 0.0
Co229 Co 0.95342 0.01924 0.21774 0.0
O230 O 0.91501 0.03625 0.18227 0.0
C231 C 0.93998 0.06487 0.28637 0.0
C232 C 0.86487 0.97838 0.32477 0.0
C233 C 0.88154 0.03626 0.19265 0.0
O234 O 0.91124 0.04456 0.29328 0.0
O235 O 0.96204 0.05773 0.2591 0.0
O236 O 0.88087 0.94754 0.24414 0.0
O237 O 0.93459 0.97617 0.24555 0.0
Co238 Co 0.25725 0.63694 0.51066 0.0
O239 O 0.20898 0.6272 0.53186 0.0
O240 O 0.23966 0.68047 0.54006 0.0
C241 C 0.24017 0.61552 0.45175 0.0
O242 O 0.30722 0.65797 0.49208 0.0
Co243 Co 0.30369 0.57263 0.47879 0.0
O244 O 0.33867 0.61198 0.46202 0.0
C245 C 0.29938 0.58336 0.56096 0.0
C246 C 0.20942 0.66128 0.54563 0.0
C247 C 0.33528 0.64623 0.47278 0.0
O248 O 0.28142 0.61421 0.55657 0.0
O249 O 0.30805 0.5611 0.53362 0.0
O250 O 0.23532 0.65023 0.46259 0.0
O251 O 0.25482 0.59437 0.47707 0.0
Co252 Co 0.39263 0.48938 0.76349 0.0
O253 O 0.4014 0.4665 0.81166 0.0
O254 O 0.34855 0.49094 0.79405 0.0
C255 C 0.41803 0.44099 0.72927 0.0
O256 O 0.37141 0.51441 0.71682 0.0
Co257 Co 0.45431 0.51142 0.709 0.0
O258 O 0.41479 0.52294 0.67264 0.0
C259 C 0.43932 0.56045 0.77599 0.0
C260 C 0.36693 0.47252 0.81914 0.0
C261 C 0.38152 0.52456 0.6837 0.0
O262 O 0.41091 0.54015 0.78442 0.0
O263 O 0.46122 0.55201 0.74884 0.0
O264 O 0.38403 0.4395 0.7403 0.0
O265 O 0.43631 0.47082 0.74016 0.0
Co266 Co 0.64039 0.01517 0.77096 0.0
O267 O 0.65054 0.06235 0.74608 0.0
O268 O 0.59701 0.03243 0.74409 0.0
C269 C 0.66569 0.03447 0.82669 0.0
O270 O 0.61865 0.96725 0.79504 0.0
Co271 Co 0.7032 0.96545 0.80143 0.0
O272 O 0.66341 0.93455 0.82346 0.0
C273 C 0.69012 0.9689 0.71942 0.0
C274 C 0.6163 0.06225 0.73568 0.0
C275 C 0.62963 0.93956 0.81543 0.0
O276 O 0.65922 0.98582 0.72515 0.0
O277 O 0.71296 0.96158 0.74577 0.0
O278 O 0.63207 0.04311 0.81815 0.0
O279 O 0.68342 0.01606 0.80071 0.0
Co280 Co 0.75522 0.62939 1.00205 0.0
O281 O 0.70994 0.62244 0.97416 0.0
O282 O 0.72559 0.67503 1.00392 0.0
C283 C 0.79174 0.60589 0.95411 0.0
O284 O 0.79932 0.64821 0.03359 0.0
Co285 Co 0.80185 0.56277 0.02392 0.0
O286 O 0.8379 0.60037 0.0438 0.0
C287 C 0.73491 0.57825 0.06776 0.0
C288 C 0.70199 0.65723 0.98215 0.0
C289 C 0.82957 0.63506 0.04682 0.0
O290 O 0.73027 0.60853 0.04874 0.0
O291 O 0.76062 0.55473 0.06065 0.0
O292 O 0.7823 0.64104 0.95608 0.0
O293 O 0.778 0.58519 0.98059 0.0
Co294 Co 0.88748 0.50371 0.77191 0.0
O295 O 0.87818 0.45577 0.79539 0.0
O296 O 0.93105 0.47281 0.76927 0.0
C297 C 0.86299 0.53862 0.82054 0.0
O298 O 0.91002 0.55017 0.7475 0.0
Co299 Co 0.82713 0.55741 0.74862 0.0
O300 O 0.86692 0.59197 0.73179 0.0
C301 C 0.83889 0.48917 0.70233 0.0
C302 C 0.91239 0.44814 0.78817 0.0
C303 C 0.90036 0.58194 0.73393 0.0
O304 O 0.86874 0.48299 0.72105 0.0
O305 O 0.8164 0.51535 0.71145 0.0
O306 O 0.89671 0.52698 0.82148 0.0
O307 O 0.84421 0.52781 0.79098 0.0
Co308 Co 0.76613 0.37375 0.49532 0.0
O309 O 0.81422 0.38161 0.4734 0.0
O310 O 0.79518 0.32845 0.49929 0.0
C311 C 0.73428 0.399 0.44639 0.0
O312 O 0.71862 0.35344 0.51905 0.0
Co313 Co 0.71491 0.43935 0.51686 0.0
O314 O 0.67817 0.40007 0.52962 0.0
C315 C 0.77923 0.42427 0.56516 0.0
C316 C 0.82093 0.34685 0.48182 0.0
C317 C 0.68694 0.36538 0.53022 0.0
O318 O 0.78524 0.39344 0.54624 0.0
O319 O 0.75449 0.44789 0.55589 0.0
O320 O 0.74541 0.36427 0.44489 0.0
O321 O 0.74462 0.41812 0.47619 0.0
Co322 Co 0.63302 0.50557 0.27479 0.0
O323 O 0.62656 0.48162 0.32336 0.0
O324 O 0.67718 0.47864 0.28891 0.0
C325 C 0.6099 0.56244 0.29424 0.0
O326 O 0.65217 0.52698 0.22489 0.0
Co327 Co 0.5688 0.53515 0.22744 0.0
O328 O 0.60598 0.54702 0.18821 0.0
C329 C 0.5807 0.45366 0.22985 0.0
C330 C 0.6603 0.47021 0.32 0.0
C331 C 0.63999 0.54127 0.19412 0.0
O332 O 0.61175 0.45934 0.24706 0.0
O333 O 0.55771 0.47993 0.22361 0.0
O334 O 0.64398 0.55378 0.30071 0.0
O335 O 0.59035 0.53616 0.27783 0.0
C336 C 0.08686 0.3922 0.30282 0.0
C337 C 0.11434 0.41034 0.32552 0.0
C338 C 0.10035 0.36662 0.37665 0.0
C339 C 0.06998 0.35154 0.3558 0.0
N340 N 0.02903 0.35781 0.3023 0.0
N341 N 0.1395 0.42113 0.38815 0.0
C342 C 0.0617 0.36648 0.31974 0.0
C343 C 0.11881 0.39941 0.36367 0.0
N344 N 0.08549 0.39816 0.26484 0.0
N345 N 0.11288 0.34879 0.40795 0.0
H346 H 0.15174 0.44661 0.38055 0.0
H347 H 0.1408 0.41611 0.41704 0.0
H348 H 0.10171 0.32344 0.41717 0.0
H349 H 0.13706 0.35678 0.42198 0.0
H350 H 0.06841 0.38258 0.24655 0.0
H351 H 0.10391 0.41581 0.251 0.0
H352 H 0.02032 0.37086 0.27776 0.0
H353 H 0.00873 0.34103 0.31445 0.0
C354 C 0.88337 0.78989 0.61065 0.0
C355 C 0.91953 0.80325 0.60264 0.0
C356 C 0.89435 0.83821 0.54939 0.0
C357 C 0.85783 0.83103 0.56223 0.0
N358 N 0.81804 0.80287 0.60875 0.0
N359 N 0.95881 0.84415 0.5663 0.0
C360 C 0.85236 0.80721 0.59358 0.0
C361 C 0.92498 0.8282 0.57225 0.0
N362 N 0.8787 0.76021 0.63429 0.0
N363 N 0.89991 0.8536 0.51474 0.0
H364 H 0.98194 0.83808 0.58247 0.0
H365 H 0.96318 0.86585 0.54734 0.0
H366 H 0.87838 0.85956 0.49632 0.0
H367 H 0.92588 0.85628 0.50254 0.0
H368 H 0.85334 0.74697 0.6385 0.0
H369 H 0.90085 0.74623 0.64639 0.0
H370 H 0.81331 0.78915 0.63408 0.0
H371 H 0.79472 0.81593 0.59817 0.0
C372 C 0.48516 0.59619 0.81502 0.0
C373 C 0.4494 0.59463 0.79925 0.0
C374 C 0.44177 0.66215 0.81558 0.0
C375 C 0.47963 0.66461 0.82597 0.0
N376 N 0.53927 0.63432 0.82649 0.0
N377 N 0.39381 0.62666 0.78189 0.0
C378 C 0.50184 0.63172 0.82334 0.0
C379 C 0.42739 0.62764 0.79938 0.0
N380 N 0.50331 0.56344 0.8221 0.0
N381 N 0.41998 0.69315 0.81981 0.0
H382 H 0.38237 0.60199 0.77018 0.0
H383 H 0.37819 0.65057 0.77698 0.0
H384 H 0.43039 0.71955 0.8281 0.0
H385 H 0.39144 0.6923 0.81692 0.0
H386 H 0.52809 0.5627 0.83696 0.0
H387 H 0.4915 0.53687 0.81682 0.0
H388 H 0.55671 0.61169 0.82091 0.0
H389 H 0.55339 0.65972 0.8304 0.0
C390 C 0.6128 0.21696 0.06573 0.0
C391 C 0.5958 0.19843 0.0966 0.0
C392 C 0.64953 0.15638 0.10029 0.0
C393 C 0.66457 0.17245 0.06717 0.0
N394 N 0.65584 0.21261 0.01362 0.0
N395 N 0.59548 0.14627 0.13921 0.0
C396 C 0.64492 0.20124 0.04858 0.0
C397 C 0.61355 0.16695 0.11276 0.0
N398 N 0.59966 0.25077 0.05385 0.0
N399 N 0.67019 0.13195 0.1207 0.0
H400 H 0.56899 0.15276 0.14836 0.0
H401 H 0.60514 0.12077 0.14928 0.0
H402 H 0.69679 0.12411 0.11289 0.0
H403 H 0.66247 0.12228 0.14715 0.0
H404 H 0.61354 0.2675 0.03452 0.0
H405 H 0.57694 0.26409 0.06588 0.0
H406 H 0.64011 0.23025 0.99693 0.0
H407 H 0.67873 0.20164 0.99963 0.0
C408 C 0.055 0.6037 0.23819 0.0
C409 C 0.09046 0.59605 0.22315 0.0
C410 C 0.08844 0.65674 0.19035 0.0
C411 C 0.05115 0.66183 0.20169 0.0
N412 N 0.99614 0.63172 0.22621 0.0
N413 N 0.13684 0.61168 0.17704 0.0
C414 C 0.03355 0.63271 0.2224 0.0
C415 C 0.10596 0.62147 0.19678 0.0
N416 N 0.04229 0.58527 0.26919 0.0
N417 N 0.10798 0.68591 0.17535 0.0
H418 H 0.14944 0.58551 0.17962 0.0
H419 H 0.14732 0.62774 0.15511 0.0
H420 H 0.09716 0.71276 0.17217 0.0
H421 H 0.13616 0.68455 0.17001 0.0
H422 H 0.01788 0.59267 0.28282 0.0
H423 H 0.05797 0.56625 0.2843 0.0
H424 H 0.98221 0.60908 0.23825 0.0
H425 H 0.9788 0.65084 0.21333 0.0
C426 C 0.62402 0.86228 0.40475 0.0
C427 C 0.61089 0.82636 0.41555 0.0
C428 C 0.65801 0.82713 0.46597 0.0
C429 C 0.67463 0.85997 0.45034 0.0
N430 N 0.67806 0.90064 0.39611 0.0
N431 N 0.61984 0.77146 0.4538 0.0
C432 C 0.65905 0.87502 0.41705 0.0
C433 C 0.62906 0.80778 0.44554 0.0
N434 N 0.60238 0.88508 0.3837 0.0
N435 N 0.66836 0.81523 0.50082 0.0
H436 H 0.59915 0.75639 0.43952 0.0
H437 H 0.63482 0.75542 0.47271 0.0
H438 H 0.68816 0.82918 0.51735 0.0
H439 H 0.65463 0.79368 0.51482 0.0
H440 H 0.60988 0.91269 0.3772 0.0
H441 H 0.57504 0.87813 0.37775 0.0
H442 H 0.66851 0.90995 0.37012 0.0
H443 H 0.70509 0.90886 0.40215 0.0
C444 C 0.43686 0.35733 0.66213 0.0
C445 C 0.46949 0.34241 0.6781 0.0
C446 C 0.46632 0.39016 0.72937 0.0
C447 C 0.43619 0.40757 0.71117 0.0
N448 N 0.3968 0.41141 0.65659 0.0
N449 N 0.52023 0.35121 0.72187 0.0
C450 C 0.42252 0.39211 0.67654 0.0
C451 C 0.48558 0.36056 0.71039 0.0
N452 N 0.41882 0.33771 0.63397 0.0
N453 N 0.47577 0.40069 0.7655 0.0
H454 H 0.53636 0.33123 0.70783 0.0
H455 H 0.5346 0.36633 0.7428 0.0
H456 H 0.46189 0.42144 0.78099 0.0
H457 H 0.4949 0.38608 0.78145 0.0
H458 H 0.39288 0.34504 0.62406 0.0
H459 H 0.42815 0.31206 0.62286 0.0
H460 H 0.38849 0.40366 0.62932 0.0
H461 H 0.38643 0.43731 0.66585 0.0
C462 C 0.89951 0.18058 0.91267 0.0
C463 C 0.91847 0.20854 0.93475 0.0
C464 C 0.87365 0.1977 0.98614 0.0
C465 C 0.85322 0.17248 0.9622 0.0
N466 N 0.84072 0.15123 0.89851 0.0
N467 N 0.91722 0.24999 0.98999 0.0
C468 C 0.8643 0.16764 0.92413 0.0
C469 C 0.90385 0.2189 0.97091 0.0
N470 N 0.91587 0.16463 0.88166 0.0
N471 N 0.865 0.20081 0.02356 0.0
H472 H 0.93795 0.26728 0.97944 0.0
H473 H 0.90513 0.2608 0.01455 0.0
H474 H 0.84232 0.18715 0.03518 0.0
H475 H 0.8816 0.21511 0.04327 0.0
H476 H 0.90431 0.14197 0.86642 0.0
H477 H 0.94298 0.17064 0.87443 0.0
H478 H 0.84635 0.14944 0.86965 0.0
H479 H 0.81371 0.14417 0.90564 0.0
C480 C 0.34083 0.09519 0.40795 0.0
C481 C 0.3079 0.08018 0.42367 0.0
C482 C 0.3112 0.02631 0.379 0.0
C483 C 0.34145 0.04354 0.36045 0.0
N484 N 0.38156 0.0976 0.35373 0.0
N485 N 0.25705 0.03589 0.41749 0.0
C486 C 0.35544 0.07883 0.37404 0.0
C487 C 0.29182 0.04687 0.40749 0.0
N488 N 0.35882 0.12444 0.42597 0.0
N489 N 0.30165 0.98971 0.37047 0.0
H490 H 0.24081 0.05101 0.43663 0.0
H491 H 0.2427 0.01411 0.40359 0.0
H492 H 0.31579 0.97312 0.35072 0.0
H493 H 0.28229 0.9746 0.38592 0.0
H494 H 0.38493 0.13386 0.41821 0.0
H495 H 0.34922 0.13709 0.45086 0.0
H496 H 0.38977 0.12529 0.35988 0.0
H497 H 0.39266 0.08685 0.32863 0.0
C498 C 0.16249 0.09591 0.64847 0.0
C499 C 0.17173 0.06607 0.67313 0.0
C500 C 0.22885 0.05836 0.63709 0.0
C501 C 0.215 0.08087 0.60744 0.0
N502 N 0.16256 0.1152 0.5835 0.0
N503 N 0.21173 0.01228 0.68291 0.0
C504 C 0.18012 0.09821 0.61266 0.0
C505 C 0.20443 0.0454 0.6654 0.0
N506 N 0.13791 0.12291 0.65946 0.0
N507 N 0.26551 0.0504 0.63944 0.0
H508 H 0.19343 0.99889 0.70091 0.0
H509 H 0.2342 0.99557 0.67542 0.0
H510 H 0.28516 0.06261 0.62191 0.0
H511 H 0.27669 0.03608 0.66217 0.0
H512 H 0.13245 0.14645 0.64321 0.0
H513 H 0.12707 0.12449 0.68672 0.0
H514 H 0.13587 0.12561 0.586 0.0
H515 H 0.17232 0.11472 0.55586 0.0
C516 C 0.21579 0.96698 0.87353 0.0
C517 C 0.18304 0.95381 0.85544 0.0
C518 C 0.18037 0.90053 0.89896 0.0
C519 C 0.21454 0.9122 0.91512 0.0
N520 N 0.26915 0.95122 0.91096 0.0
N521 N 0.13837 0.90376 0.84573 0.0
C522 C 0.23354 0.94387 0.90037 0.0
C523 C 0.16653 0.9193 0.86666 0.0
N524 N 0.22906 1.00242 0.86669 0.0
N525 N 0.16027 0.87263 0.91545 0.0
H526 H 0.12802 0.91623 0.82151 0.0
H527 H 0.1277 0.87684 0.85021 0.0
H528 H 0.16943 0.85869 0.93923 0.0
H529 H 0.13335 0.86566 0.90764 0.0
H530 H 0.25042 0.01499 0.88224 0.0
H531 H 0.21652 0.02083 0.84812 0.0
H532 H 0.2856 0.97153 0.89819 0.0
H533 H 0.28361 0.93438 0.92962 0.0
C534 C 0.32173 0.92085 0.11647 0.0
C535 C 0.28582 0.93085 0.10404 0.0
C536 C 0.28289 0.97617 0.15658 0.0
C537 C 0.31473 0.96099 0.17389 0.0
N538 N 0.36087 0.91176 0.17105 0.0
N539 N 0.22758 0.95807 0.12389 0.0
C540 C 0.33326 0.93112 0.15416 0.0
C541 C 0.26485 0.95518 0.12781 0.0
N542 N 0.34564 0.90366 0.09215 0.0
N543 N 0.27085 0.01168 0.16536 0.0
H544 H 0.2122 0.9404 0.10587 0.0
H545 H 0.21179 0.97458 0.14237 0.0
H546 H 0.28631 0.03095 0.1816 0.0
H547 H 0.24851 0.02364 0.15155 0.0
H548 H 0.373 0.89847 0.09921 0.0
H549 H 0.33945 0.89906 0.06369 0.0
H550 H 0.37284 0.888 0.15847 0.0
H551 H 0.369 0.91667 0.19891 0.0
C552 C 0.36671 0.35913 0.09374 0.0
C553 C 0.35025 0.3362 0.06484 0.0
C554 C 0.39329 0.2853 0.08078 0.0
C555 C 0.41264 0.31022 0.1061 0.0
N556 N 0.42224 0.37434 0.12872 0.0
N557 N 0.35336 0.27952 0.02589 0.0
C558 C 0.40067 0.34819 0.11012 0.0
C559 C 0.36502 0.29979 0.05694 0.0
N560 N 0.34911 0.39067 0.107 0.0
N561 N 0.40046 0.24752 0.08059 0.0
H562 H 0.33353 0.28927 0.00725 0.0
H563 H 0.36596 0.25467 0.01669 0.0
H564 H 0.41999 0.23546 0.09813 0.0
H565 H 0.38449 0.22772 0.06563 0.0
H566 H 0.35836 0.4064 0.1304 0.0
H567 H 0.32304 0.39846 0.09771 0.0
H568 H 0.41642 0.4031 0.12928 0.0
H569 H 0.448 0.368 0.13988 0.0
C570 C 0.97623 0.88353 0.17162 0.0
C571 C 0.96333 0.847 0.18163 0.0
C572 C 0.92384 0.87693 0.22978 0.0
C573 C 0.9321 0.91325 0.21549 0.0
N574 N 0.96103 0.94952 0.16657 0.0
N575 N 0.91736 0.81068 0.21446 0.0
C576 C 0.95687 0.91612 0.18461 0.0
C577 C 0.93503 0.84419 0.20912 0.0
N578 N 0.00804 0.88757 0.15146 0.0
N579 N 0.90691 0.8733 0.264 0.0
H580 H 0.92272 0.78704 0.19771 0.0
H581 H 0.89435 0.80791 0.23181 0.0
H582 H 0.90068 0.89622 0.28168 0.0
H583 H 0.90334 0.84732 0.27687 0.0
H584 H 0.02014 0.9138 0.14654 0.0
H585 H 0.02474 0.86496 0.14369 0.0
H586 H 0.97612 0.95218 0.14172 0.0
H587 H 0.94598 0.97334 0.17399 0.0
C588 C 0.13994 0.66941 0.55211 0.0
C589 C 0.17631 0.67756 0.56544 0.0
C590 C 0.14996 0.72165 0.61243 0.0
C591 C 0.11335 0.71067 0.60149 0.0
N592 N 0.07583 0.66335 0.56933 0.0
N593 N 0.21371 0.70266 0.61661 0.0
C594 C 0.10903 0.68134 0.57385 0.0
C595 C 0.18068 0.70106 0.59807 0.0
N596 N 0.13434 0.6518 0.51789 0.0
N597 N 0.15621 0.75266 0.63509 0.0
H598 H 0.2363 0.68647 0.60847 0.0
H599 H 0.21722 0.71646 0.64267 0.0
H600 H 0.13556 0.76956 0.64603 0.0
H601 H 0.18248 0.76387 0.63994 0.0
H602 H 0.10832 0.64882 0.50564 0.0
H603 H 0.15557 0.64407 0.49978 0.0
H604 H 0.07228 0.63962 0.55177 0.0
H605 H 0.05326 0.66879 0.58672 0.0
C606 C 0.97567 0.65751 0.73552 0.0
C607 C 0.97166 0.67141 0.69839 0.0
C608 C 0.93158 0.61748 0.68251 0.0
C609 C 0.92921 0.60877 0.72127 0.0
N610 N 0.9484 0.62103 0.78568 0.0
N611 N 0.94246 0.66607 0.63688 0.0
C612 C 0.95155 0.62853 0.74808 0.0
C613 C 0.94919 0.65149 0.67166 0.0
N614 N 1.00271 0.672 0.75859 0.0
N615 N 0.91765 0.59273 0.65606 0.0
H616 H 0.95403 0.69123 0.62763 0.0
H617 H 0.92285 0.65466 0.61829 0.0
H618 H 0.90708 0.5665 0.66354 0.0
H619 H 0.92099 0.59605 0.62707 0.0
H620 H 0.00913 0.6609 0.78479 0.0
H621 H 0.02123 0.69271 0.7497 0.0
H622 H 0.96081 0.63756 0.80686 0.0
H623 H 0.93134 0.59976 0.79595 0.0
C624 C 0.16663 0.171 0.42669 0.0
C625 C 0.1748 0.18032 0.46506 0.0
C626 C 0.12744 0.22966 0.46363 0.0
C627 C 0.11739 0.21763 0.42639 0.0
N628 N 0.11925 0.16756 0.37901 0.0
N629 N 0.15711 0.21313 0.52254 0.0
C630 C 0.13441 0.18538 0.41001 0.0
C631 C 0.15353 0.20817 0.48434 0.0
N632 N 0.19061 0.15032 0.4051 0.0
N633 N 0.11319 0.26207 0.47886 0.0
H634 H 0.17495 0.19714 0.53873 0.0
H635 H 0.13981 0.23038 0.5386 0.0
H636 H 0.09372 0.27822 0.46502 0.0
H637 H 0.12272 0.27438 0.50405 0.0
H638 H 0.18699 0.1459 0.3761 0.0
H639 H 0.21627 0.14172 0.41468 0.0
H640 H 0.12902 0.14193 0.36825 0.0
H641 H 0.0944 0.17579 0.367 0.0
C642 C 0.56196 0.41229 0.17457 0.0
C643 C 0.57153 0.41572 0.21347 0.0
C644 C 0.56343 0.3474 0.21943 0.0
C645 C 0.54882 0.34492 0.18208 0.0
N646 N 0.52629 0.37778 0.12753 0.0
N647 N 0.57262 0.3875 0.27487 0.0
C648 C 0.54594 0.37812 0.16052 0.0
C649 C 0.56986 0.38354 0.23652 0.0
N650 N 0.56896 0.4413 0.15065 0.0
N651 N 0.57294 0.31554 0.23809 0.0
H652 H 0.57567 0.41373 0.28848 0.0
H653 H 0.56805 0.36525 0.29316 0.0
H654 H 0.57114 0.28855 0.22594 0.0
H655 H 0.58671 0.31633 0.26397 0.0
H656 H 0.56602 0.43863 0.12141 0.0
H657 H 0.58126 0.46668 0.15942 0.0
H658 H 0.52039 0.40223 0.11287 0.0
H659 H 0.51218 0.35406 0.11708 0.0
C660 C 0.38092 0.82121 0.99258 0.0
C661 C 0.34754 0.81852 0.97201 0.0
C662 C 0.37911 0.78204 0.9221 0.0
C663 C 0.41347 0.79002 0.93981 0.0
N664 N 0.44748 0.8225 0.98975 0.0
N665 N 0.31468 0.79815 0.91584 0.0
C666 C 0.41453 0.81077 0.97469 0.0
C667 C 0.34655 0.7993 0.9364 0.0
N668 N 0.38036 0.83292 0.02955 0.0
N669 N 0.37739 0.7567 0.89253 0.0
H670 H 0.28986 0.80871 0.9261 0.0
H671 H 0.31333 0.78877 0.88779 0.0
H672 H 0.40051 0.74248 0.88252 0.0
H673 H 0.3528 0.74686 0.88061 0.0
H674 H 0.40335 0.83239 0.04716 0.0
H675 H 0.35584 0.83897 0.04362 0.0
H676 H 0.44955 0.84104 0.01289 0.0
H677 H 0.47278 0.81679 0.97713 0.0
C678 C 0.92247 0.37834 0.79057 0.0
C679 C 0.93041 0.41507 0.80498 0.0
C680 C 0.97054 0.38854 0.85354 0.0
C681 C 0.95995 0.35167 0.84125 0.0
N682 N 0.92062 0.3113 0.80253 0.0
N683 N 0.95834 0.45564 0.85278 0.0
C684 C 0.93467 0.34645 0.81078 0.0
C685 C 0.95359 0.42034 0.83708 0.0
N686 N 0.9039 0.37399 0.75712 0.0
N687 N 0.99758 0.39319 0.8802 0.0
H688 H 0.94749 0.47985 0.84101 0.0
H689 H 0.97089 0.46077 0.87887 0.0
H690 H 0.01022 0.37063 0.89336 0.0
H691 H 0.00967 0.41916 0.88717 0.0
H692 H 0.90059 0.34812 0.74298 0.0
H693 H 0.89462 0.39684 0.74169 0.0
H694 H 0.89919 0.30637 0.78343 0.0
H695 H 0.9278 0.2873 0.81731 0.0
C696 C 0.35114 0.18567 0.59002 0.0
C697 C 0.36196 0.15969 0.56109 0.0
C698 C 0.42691 0.17373 0.57537 0.0
C699 C 0.41602 0.20163 0.60261 0.0
N700 N 0.36752 0.24146 0.62698 0.0
N701 N 0.40986 0.13626 0.51998 0.0
C702 C 0.37803 0.20991 0.60709 0.0
C703 C 0.39977 0.15608 0.55178 0.0
N704 N 0.31573 0.18575 0.60312 0.0
N705 N 0.46267 0.16215 0.57332 0.0
H706 H 0.39083 0.12304 0.50192 0.0
H707 H 0.43668 0.13615 0.50954 0.0
H708 H 0.48375 0.17349 0.58998 0.0
H709 H 0.47091 0.13873 0.55729 0.0
H710 H 0.30762 0.20136 0.6269 0.0
H711 H 0.29527 0.1674 0.59295 0.0
H712 H 0.34037 0.25074 0.62794 0.0
H713 H 0.38633 0.26061 0.63896 0.0
C714 C 0.55009 0.65026 0.29911 0.0
C715 C 0.56048 0.66672 0.33433 0.0
C716 C 0.59828 0.6111 0.34659 0.0
C717 C 0.5932 0.5985 0.30842 0.0
N718 N 0.57095 0.61283 0.24616 0.0
N719 N 0.59804 0.66455 0.39056 0.0
C720 C 0.57057 0.61968 0.28415 0.0
C721 C 0.58538 0.64754 0.35804 0.0
N722 N 0.52074 0.66408 0.27971 0.0
N723 N 0.6141 0.58795 0.37228 0.0
H724 H 0.58913 0.69098 0.40002 0.0
H725 H 0.61939 0.65363 0.4066 0.0
H726 H 0.6225 0.56057 0.36558 0.0
H727 H 0.6153 0.59446 0.4011 0.0
H728 H 0.51023 0.651 0.25529 0.0
H729 H 0.50455 0.68603 0.2904 0.0
H730 H 0.55717 0.62948 0.22684 0.0
H731 H 0.58945 0.59415 0.23393 0.0
C732 C 0.10534 0.78191 0.04904 0.0
C733 C 0.10129 0.78562 0.08911 0.0
C734 C 0.15253 0.83139 0.09118 0.0
C735 C 0.15427 0.83052 0.05116 0.0
N736 N 0.14129 0.79665 0.99309 0.0
N737 N 0.13498 0.79753 0.147 0.0
C738 C 0.13333 0.80323 0.03034 0.0
C739 C 0.12908 0.80551 0.10989 0.0
N740 N 0.08325 0.75759 0.02877 0.0
N741 N 0.17337 0.85689 0.11153 0.0
H742 H 0.12162 0.77524 0.16021 0.0
H743 H 0.15669 0.809 0.16284 0.0
H744 H 0.19288 0.87456 0.09923 0.0
H745 H 0.16973 0.86191 0.1404 0.0
H746 H 0.07965 0.75893 0.99964 0.0
H747 H 0.06984 0.73475 0.04084 0.0
H748 H 0.12945 0.77508 0.97667 0.0
H749 H 0.16253 0.81071 0.97936 0.0
C750 C 0.69697 0.91904 0.62288 0.0
C751 C 0.72929 0.93658 0.60866 0.0
C752 C 0.73232 0.97831 0.6647 0.0
C753 C 0.70163 0.95906 0.68026 0.0
N754 N 0.65776 0.90766 0.67715 0.0
N755 N 0.78174 0.97765 0.61871 0.0
C756 C 0.68472 0.92844 0.66016 0.0
C757 C 0.74814 0.96469 0.63042 0.0
N758 N 0.67724 0.89451 0.60025 0.0
N759 N 0.74554 0.01052 0.68206 0.0
H760 H 0.79433 0.9679 0.59392 0.0
H761 H 0.79868 0.99525 0.63516 0.0
H762 H 0.73435 0.02171 0.70697 0.0
H763 H 0.76527 0.02809 0.67007 0.0
H764 H 0.65127 0.88412 0.60724 0.0
H765 H 0.68578 0.88637 0.57319 0.0
H766 H 0.64717 0.8825 0.66577 0.0
H767 H 0.64771 0.9142 0.70407 0.0
C768 C 0.81769 0.93632 0.35479 0.0
C769 C 0.84641 0.96362 0.35895 0.0
C770 C 0.84285 0.95927 0.42816 0.0
C771 C 0.81542 0.93048 0.42393 0.0
N772 N 0.77822 0.88949 0.38394 0.0
N773 N 0.8872 1.00117 0.39833 0.0
C774 C 0.80314 0.91858 0.38742 0.0
C775 C 0.85907 0.97527 0.39535 0.0
N776 N 0.80433 0.9273 0.31953 0.0
N777 N 0.85386 0.97084 0.46358 0.0
H778 H 0.89796 0.01525 0.37515 0.0
H779 H 0.90094 0.00822 0.42329 0.0
H780 H 0.84582 0.95742 0.48817 0.0
H781 H 0.8703 0.99445 0.46922 0.0
H782 H 0.78054 0.91142 0.31454 0.0
H783 H 0.81594 0.93727 0.2947 0.0
H784 H 0.77141 0.87596 0.35851 0.0
H785 H 0.7651 0.8774 0.40697 0.0
C786 C 0.83697 0.1039 0.12487 0.0
C787 C 0.80885 0.08053 0.10885 0.0
C788 C 0.82492 0.02965 0.15167 0.0
C789 C 0.85375 0.05259 0.16702 0.0
N790 N 0.88022 0.11469 0.1764 0.0
N791 N 0.76862 0.02679 0.11456 0.0
C792 C 0.85746 0.09082 0.15625 0.0
C793 C 0.80031 0.04529 0.12504 0.0
N794 N 0.84563 0.13754 0.10879 0.0
N795 N 0.82251 0.99231 0.16045 0.0
H796 H 0.75008 0.03809 0.09533 0.0
H797 H 0.75897 1.00255 0.1276 0.0
H798 H 0.84031 0.97945 0.1793 0.0
H799 H 0.80469 0.97328 0.14682 0.0
H800 H 0.86901 0.1534 0.11586 0.0
H801 H 0.83027 0.14881 0.08696 0.0
H802 H 0.88144 0.1437 0.17235 0.0
H803 H 0.89538 0.106 0.19969 0.0
C804 C 0.664 0.04979 0.89657 0.0
C805 C 0.68373 0.04925 0.86189 0.0
C806 C 0.73781 0.07522 0.89517 0.0
C807 C 0.71627 0.08195 0.9278 0.0
N808 N 0.65726 0.07824 0.95891 0.0
N809 N 0.73721 0.07109 0.8272 0.0
C810 C 0.67883 0.07005 0.9283 0.0
C811 C 0.72018 0.06431 0.86084 0.0
N812 N 0.63186 0.02974 0.89981 0.0
N813 N 0.77515 0.07886 0.8969 0.0
H814 H 0.72439 0.06736 0.80105 0.0
H815 H 0.76248 0.08513 0.82545 0.0
H816 H 0.78877 0.08537 0.92209 0.0
H817 H 0.79244 0.07117 0.8746 0.0
H818 H 0.61837 0.02604 0.92544 0.0
H819 H 0.62067 0.01335 0.8778 0.0
H820 H 0.62878 0.07436 0.95894 0.0
H821 H 0.66745 0.09122 0.98346 0.0
C822 C 0.62485 0.72897 0.9642 0.0
C823 C 0.60881 0.71348 0.93079 0.0
C824 C 0.65275 0.66196 0.93091 0.0
C825 C 0.66864 0.67588 0.96554 0.0
N826 N 0.65919 0.71585 0.02113 0.0
N827 N 0.59605 0.65639 0.89574 0.0
C828 C 0.6517 0.70756 0.98405 0.0
C829 C 0.61913 0.6771 0.91851 0.0
N830 N 0.61452 0.76378 0.97709 0.0
N831 N 0.67013 0.63624 0.90806 0.0
H832 H 0.56951 0.66575 0.89008 0.0
H833 H 0.60111 0.62837 0.88788 0.0
H834 H 0.69663 0.62669 0.91242 0.0
H835 H 0.65987 0.62823 0.88151 0.0
H836 H 0.62839 0.77847 0.99867 0.0
H837 H 0.5929 0.77842 0.96495 0.0
H838 H 0.64555 0.73686 0.03648 0.0
H839 H 0.6752 0.69867 0.03799 0.0
C840 C 0.11581 0.14097 0.81335 0.0
C841 C 0.09628 0.10621 0.81598 0.0
C842 C 0.04041 0.14102 0.83301 0.0
C843 C 0.06096 0.1751 0.83473 0.0
N844 N 0.12067 0.20572 0.83592 0.0
N845 N 0.04243 0.07343 0.83962 0.0
C846 C 0.09949 0.17448 0.82795 0.0
C847 C 0.05928 0.10624 0.82924 0.0
N848 N 0.14877 0.14273 0.79486 0.0
N849 N 1.00287 0.14181 0.83267 0.0
H850 H 0.05598 0.04763 0.84008 0.0
H851 H 0.01649 0.07279 0.8522 0.0
H852 H 0.98839 0.16706 0.83231 0.0
H853 H 0.9866 0.11775 0.82818 0.0
H854 H 0.16217 0.16815 0.78928 0.0
H855 H 0.16064 0.11955 0.78118 0.0
H856 H 0.14934 0.20554 0.83463 0.0
H857 H 0.10988 0.23049 0.8477 0.0
C858 C 0.92346 0.32857 0.47073 0.0
C859 C 0.92311 0.29974 0.44225 0.0
C860 C 0.85554 0.30063 0.4408 0.0
C861 C 0.85585 0.32862 0.47011 0.0
N862 N 0.88904 0.36409 0.51809 0.0
N863 N 0.8896 0.25303 0.40537 0.0
C864 C 0.88955 0.34102 0.48664 0.0
C865 C 0.88932 0.28414 0.42889 0.0
N866 N 0.95606 0.34531 0.48129 0.0
N867 N 0.82319 0.29112 0.42304 0.0
H868 H 0.91387 0.2403 0.39612 0.0
H869 H 0.866 0.23783 0.39767 0.0
H870 H 0.79782 0.30225 0.43107 0.0
H871 H 0.82168 0.27434 0.3986 0.0
H872 H 0.95784 0.36943 0.4985 0.0
H873 H 0.9815 0.33669 0.47072 0.0
H874 H 0.9124 0.37107 0.53391 0.0
H875 H 0.86467 0.37374 0.53038 0.0
C876 C 0.57625 0.89282 0.80753 0.0
C877 C 0.60249 0.91183 0.8311 0.0
C878 C 0.58723 0.86848 0.88235 0.0
C879 C 0.55863 0.85176 0.86009 0.0
N880 N 0.51955 0.85643 0.805 0.0
N881 N 0.62509 0.92385 0.89452 0.0
C882 C 0.55123 0.8664 0.82369 0.0
C883 C 0.60545 0.90157 0.86964 0.0
N884 N 0.57621 0.89826 0.76943 0.0
N885 N 0.59873 0.85171 0.91464 0.0
H886 H 0.6381 0.94884 0.88675 0.0
H887 H 0.62505 0.91966 0.92359 0.0
H888 H 0.5877 0.8264 0.92396 0.0
H889 H 0.622 0.86063 0.92973 0.0
H890 H 0.56024 0.88199 0.75069 0.0
H891 H 0.59465 0.91625 0.75603 0.0
H892 H 0.51132 0.86901 0.78003 0.0
H893 H 0.49939 0.83904 0.81657 0.0
C894 C 0.99215 0.1334 0.35129 0.0
C895 C 0.97753 0.16797 0.33874 0.0
C896 C 0.92989 0.1333 0.3025 0.0
C897 C 0.94828 0.09904 0.31005 0.0
N898 N 0.99531 0.0652 0.34282 0.0
N899 N 0.93176 0.20205 0.30446 0.0
C900 C 0.97867 0.09871 0.33528 0.0
C901 C 0.94573 0.16826 0.31542 0.0
N902 N 0.01885 0.13399 0.37859 0.0
N903 N 0.89757 0.13225 0.28262 0.0
H904 H 0.94181 0.22792 0.31489 0.0
H905 H 0.91123 0.2048 0.2842 0.0
H906 H 0.88566 0.10712 0.27251 0.0
H907 H 0.88106 0.15564 0.2784 0.0
H908 H 0.02892 0.10998 0.39137 0.0
H909 H 0.02902 0.15904 0.3908 0.0
H910 H 0.02014 0.06298 0.35726 0.0
H911 H 0.98464 0.03924 0.33334 0.0
C912 C 0.60385 0.13246 0.73753 0.0
C913 C 0.59915 0.09654 0.71917 0.0
C914 C 0.55635 0.12514 0.67414 0.0
C915 C 0.5629 0.16122 0.69122 0.0
N916 N 0.59966 0.20052 0.73294 0.0
N917 N 0.57721 0.06065 0.66496 0.0
C918 C 0.58899 0.16522 0.72081 0.0
C919 C 0.57725 0.09346 0.68591 0.0
N920 N 0.62011 0.13521 0.77237 0.0
N921 N 0.52902 0.12076 0.64784 0.0
H922 H 0.59272 0.03725 0.67231 0.0
H923 H 0.5647 0.05785 0.63855 0.0
H924 H 0.51351 0.14332 0.63846 0.0
H925 H 0.51998 0.09456 0.63747 0.0
H926 H 0.6206 0.16002 0.78866 0.0
H927 H 0.62962 0.11207 0.78705 0.0
H928 H 0.62138 0.20539 0.75173 0.0
H929 H 0.58927 0.22506 0.72122 0.0
C930 C 0.15398 0.37122 0.91261 0.0
C931 C 0.16714 0.35853 0.94786 0.0
C932 C 0.11838 0.30939 0.94581 0.0
C933 C 0.10202 0.32665 0.91381 0.0
N934 N 0.09975 0.38275 0.87581 0.0
N935 N 0.15687 0.31873 1.00155 0.0
C936 C 0.11843 0.36027 0.90006 0.0
C937 C 0.14798 0.32843 0.96558 0.0
N938 N 0.17589 0.39284 0.89015 0.0
N939 N 0.10724 0.27429 0.95644 0.0
H940 H 0.17767 0.33226 0.01712 0.0
H941 H 0.14133 0.29958 0.017 0.0
H942 H 0.087 0.25867 0.94211 0.0
H943 H 0.12076 0.25922 0.97722 0.0
H944 H 0.16817 0.40035 0.86293 0.0
H945 H 0.20336 0.39892 0.89669 0.0
H946 H 0.10988 0.40895 0.86754 0.0
H947 H 0.07249 0.3776 0.86787 0.0
C948 C 0.43352 0.6807 0.45697 0.0
C949 C 0.42797 0.71307 0.43468 0.0
C950 C 0.36074 0.70394 0.43994 0.0
C951 C 0.36634 0.67251 0.46347 0.0
N952 N 0.40782 0.63757 0.50255 0.0
N953 N 0.3864 0.76138 0.41425 0.0
C954 C 0.40272 0.66306 0.47458 0.0
C955 C 0.39157 0.72647 0.42899 0.0
N956 N 0.4678 0.66534 0.45962 0.0
N957 N 0.32633 0.71129 0.4264 0.0
H958 H 0.40821 0.77935 0.4075 0.0
H959 H 0.36072 0.77415 0.41266 0.0
H960 H 0.30306 0.69562 0.43367 0.0
H961 H 0.32135 0.73102 0.40562 0.0
H962 H 0.47268 0.63939 0.47193 0.0
H963 H 0.49097 0.67669 0.44655 0.0
H964 H 0.43344 0.63224 0.51452 0.0
H965 H 0.38593 0.62469 0.51654 0.0
C966 C 0.82407 0.58945 0.85142 0.0
C967 C 0.84522 0.55627 0.85462 0.0
C968 C 0.83662 0.55972 0.92345 0.0
C969 C 0.81081 0.5894 0.91975 0.0
N970 N 0.7738 0.62588 0.8765 0.0
N971 N 0.86381 0.50461 0.89385 0.0
C972 C 0.80282 0.60253 0.88272 0.0
C973 C 0.84926 0.53985 0.89068 0.0
N974 N 0.8252 0.60952 0.81895 0.0
N975 N 0.85087 0.55166 0.95797 0.0
H976 H 0.87164 0.48801 0.87064 0.0
H977 H 0.86409 0.4902 0.91924 0.0
H978 H 0.84506 0.56787 0.98192 0.0
H979 H 0.87211 0.53248 0.96169 0.0
H980 H 0.81325 0.636 0.81646 0.0
H981 H 0.84172 0.60174 0.79619 0.0
H982 H 0.76494 0.63274 0.84948 0.0
H983 H 0.75584 0.63492 0.89747 0.0
C984 C 0.67159 0.5237 0.13346 0.0
C985 C 0.66619 0.55038 0.16327 0.0
C986 C 0.70754 0.59507 0.13163 0.0
C987 C 0.70977 0.56984 0.09992 0.0
N988 N 0.68825 0.51308 0.06786 0.0
N989 N 0.67517 0.61317 0.18917 0.0
C990 C 0.69026 0.5349 0.10011 0.0
C991 C 0.68303 0.58662 0.16188 0.0
N992 N 0.65961 0.48731 0.1374 0.0
N993 N 0.73011 0.62613 0.13378 0.0
H994 H 0.6586 0.60747 0.21247 0.0
H995 H 0.68306 0.64141 0.18743 0.0
H996 H 0.7488 0.63306 0.11263 0.0
H997 H 0.73265 0.64326 0.15791 0.0
H998 H 0.66585 0.46558 0.11828 0.0
H999 H 0.64651 0.47803 0.16177 0.0
H1000 H 0.67137 0.48927 0.06509 0.0
H1001 H 0.70062 0.52081 0.04254 0.0
C1002 C 0.72865 0.45187 0.3997 0.0
C1003 C 0.71542 0.41685 0.41361 0.0
C1004 C 0.66951 0.41432 0.36217 0.0
C1005 C 0.67968 0.45138 0.35165 0.0
N1006 N 0.71505 0.50812 0.36465 0.0
N1007 N 0.66985 0.36674 0.4104 0.0
C1008 C 0.70812 0.47093 0.37166 0.0
C1009 C 0.68494 0.39855 0.3954 0.0
N1010 N 0.76205 0.46594 0.41135 0.0
N1011 N 0.64616 0.39358 0.33952 0.0
H1012 H 0.68011 0.35413 0.43452 0.0
H1013 H 0.64517 0.35469 0.40092 0.0
H1014 H 0.63539 0.40403 0.31456 0.0
H1015 H 0.64047 0.36505 0.34335 0.0
H1016 H 0.77462 0.48933 0.39927 0.0
H1017 H 0.77935 0.4519 0.42979 0.0
H1018 H 0.73249 0.52493 0.38142 0.0
H1019 H 0.70092 0.52312 0.34423 0.0
C1020 C 0.81848 0.43041 0.66588 0.0
C1021 C 0.83132 0.4684 0.66597 0.0
C1022 C 0.82207 0.47 0.59719 0.0
C1023 C 0.80296 0.43507 0.59826 0.0
N1024 N 0.78307 0.38104 0.63336 0.0
N1025 N 0.84309 0.5256 0.63177 0.0
C1026 C 0.80185 0.41455 0.63239 0.0
C1027 C 0.83287 0.48838 0.63153 0.0
N1028 N 0.82144 0.40987 0.69799 0.0
N1029 N 0.83022 0.4854 0.56306 0.0
H1030 H 0.85152 0.54015 0.65614 0.0
H1031 H 0.84054 0.54283 0.60843 0.0
H1032 H 0.82322 0.4721 0.53742 0.0
H1033 H 0.84719 0.50901 0.56007 0.0
H1034 H 0.81606 0.381 0.69897 0.0
H1035 H 0.83193 0.42122 0.72324 0.0
H1036 H 0.77714 0.36683 0.6581 0.0
H1037 H 0.77183 0.36815 0.60926 0.0
C1038 C 0.43558 0.10165 0.20397 0.0
C1039 C 0.40338 0.10784 0.22629 0.0
C1040 C 0.40988 0.17544 0.21545 0.0
C1041 C 0.44556 0.17015 0.19993 0.0
N1042 N 0.49482 0.12709 0.18503 0.0
N1043 N 0.36747 0.15336 0.26231 0.0
C1044 C 0.45918 0.13288 0.19561 0.0
C1045 C 0.39262 0.14552 0.23462 0.0
N1046 N 0.44295 0.06661 0.18926 0.0
N1047 N 0.39181 0.20875 0.21112 0.0
H1048 H 0.35674 0.13291 0.28008 0.0
H1049 H 0.36119 0.18091 0.27083 0.0
H1050 H 0.4022 0.23055 0.19471 0.0
H1051 H 0.36463 0.21258 0.2198 0.0
H1052 H 0.46441 0.06161 0.17033 0.0
H1053 H 0.42526 0.04356 0.19226 0.0
H1054 H 0.507 0.10055 0.18496 0.0
H1055 H 0.51306 0.14922 0.17995 0.0
C1056 C 0.09211 0.87388 0.67566 0.0
C1057 C 0.05612 0.85893 0.68236 0.0
C1058 C 0.04632 0.90897 0.73009 0.0
C1059 C 0.07981 0.92652 0.71961 0.0
N1060 N 0.13127 0.92952 0.67662 0.0
N1061 N 0.99573 0.86999 0.7084 0.0
C1062 C 0.1019 0.91005 0.69085 0.0
C1063 C 0.03238 0.87847 0.70774 0.0
N1064 N 0.1177 0.85331 0.65619 0.0
N1065 N 0.02781 0.92135 0.76149 0.0
H1066 H 0.98396 0.85139 0.68878 0.0
H1067 H 0.97663 0.88535 0.72423 0.0
H1068 H 0.03763 0.94331 0.77895 0.0
H1069 H 1.00492 0.90723 0.77223 0.0
H1070 H 0.14533 0.8613 0.65454 0.0
H1071 H 0.11248 0.82665 0.64476 0.0
H1072 H 0.14563 0.92059 0.65263 0.0
H1073 H 0.1392 0.95629 0.68649 0.0
C1074 C 0.48977 0.8785 0.31997 0.0
C1075 C 0.4698 0.84548 0.3288 0.0
C1076 C 0.41594 0.87123 0.29659 0.0
C1077 C 0.43357 0.90722 0.29548 0.0
N1078 N 0.48648 0.9459 0.31407 0.0
N1079 N 0.41285 0.81004 0.32586 0.0
C1080 C 0.47047 0.91113 0.3089 0.0
C1081 C 0.43253 0.8417 0.31718 0.0
N1082 N 0.52724 0.87858 0.32152 0.0
N1083 N 0.38414 0.86472 0.27672 0.0
H1084 H 0.42471 0.7868 0.33852 0.0
H1085 H 0.38441 0.80776 0.32233 0.0
H1086 H 0.37231 0.8849 0.25957 0.0
H1087 H 0.37186 0.83813 0.27379 0.0
H1088 H 0.54337 0.90111 0.31241 0.0
H1089 H 0.54184 0.85423 0.32739 0.0
H1090 H 0.5121 0.94967 0.32702 0.0
H1091 H 0.47286 0.97119 0.30992 0.0
C1092 C 0.86998 0.69343 0.05653 0.0
C1093 C 0.85413 0.65969 0.07054 0.0
C1094 C 0.89418 0.66441 0.12606 0.0
C1095 C 0.90743 0.70015 0.11438 0.0
N1096 N 0.90183 0.75229 0.07185 0.0
N1097 N 0.8435 0.61993 0.12417 0.0
C1098 C 0.89362 0.71577 0.08049 0.0
C1099 C 0.86386 0.64734 0.10704 0.0
N1100 N 0.86372 0.70344 0.02003 0.0
N1101 N 0.9118 0.6455 0.15396 0.0
H1102 H 0.81993 0.60781 0.11195 0.0
H1103 H 0.84758 0.61249 0.15221 0.0
H1104 H 0.93589 0.65555 0.1667 0.0
H1105 H 0.90512 0.61784 0.16101 0.0
H1106 H 0.87766 0.72554 0.00715 0.0
H1107 H 0.8469 0.6877 1.00161 0.0
H1108 H 0.88963 0.76621 0.04947 0.0
H1109 H 0.91803 0.76987 0.08917 0.0
C1110 C 0.63953 0.29103 0.59129 0.0
C1111 C 0.60243 0.29571 0.57998 0.0
C1112 C 0.62277 0.33831 0.53012 0.0
C1113 C 0.6591 0.33817 0.54505 0.0
N1114 N 0.70123 0.31737 0.59322 0.0
N1115 N 0.55793 0.32845 0.54198 0.0
C1116 C 0.66744 0.31495 0.57627 0.0
C1117 C 0.59381 0.32024 0.55 0.0
N1118 N 0.64816 0.2633 0.61601 0.0
N1119 N 0.61593 0.35535 0.49655 0.0
H1120 H 0.53557 0.31668 0.55604 0.0
H1121 H 0.55029 0.34967 0.52366 0.0
H1122 H 0.63626 0.36921 0.48127 0.0
H1123 H 0.59099 0.35264 0.48213 0.0
H1124 H 0.67511 0.25585 0.62243 0.0
H1125 H 0.62836 0.24524 0.62732 0.0
H1126 H 0.70737 0.30464 0.61871 0.0
H1127 H 0.72238 0.33464 0.5836 0.0
C1128 C 0.19554 0.42652 0.11715 0.0
C1129 C 0.22755 0.44335 0.1015 0.0
C1130 C 0.23285 0.48617 0.15648 0.0
C1131 C 0.20278 0.4673 0.17362 0.0
N1132 N 0.1588 0.41589 0.17321 0.0
N1133 N 0.28055 0.48426 0.10865 0.0
C1134 C 0.18492 0.43649 0.15474 0.0
C1135 C 0.24732 0.4718 0.12188 0.0
N1136 N 0.1746 0.40203 0.09566 0.0
N1137 N 0.24681 0.51859 0.17276 0.0
H1138 H 0.29218 0.47395 0.08359 0.0
H1139 H 0.29814 0.50206 0.12412 0.0
H1140 H 0.23649 0.53027 0.19786 0.0
H1141 H 0.26617 0.5358 0.15972 0.0
H1142 H 0.14877 0.39221 0.10387 0.0
H1143 H 0.1818 0.39355 0.06828 0.0
H1144 H 0.1478 0.39058 0.16262 0.0
H1145 H 0.15002 0.42264 0.20053 0.0
C1146 C 0.36031 0.42072 0.86693 0.0
C1147 C 0.34876 0.45612 0.85304 0.0
C1148 C 0.29793 0.45513 0.89854 0.0
C1149 C 0.31336 0.42333 0.9164 0.0
N1150 N 0.36818 0.38528 0.92354 0.0
N1151 N 0.31155 0.51168 0.86403 0.0
C1152 C 0.34722 0.40882 0.90246 0.0
C1153 C 0.31904 0.47483 0.87131 0.0
N1154 N 0.38209 0.3972 0.84582 0.0
N1155 N 0.2626 0.46562 0.90588 0.0
H1156 H 0.32799 0.52818 0.84665 0.0
H1157 H 0.29179 0.52699 0.87904 0.0
H1158 H 0.24516 0.44974 0.92266 0.0
H1159 H 0.24942 0.48691 0.89125 0.0
H1160 H 0.38871 0.37011 0.85448 0.0
H1161 H 0.38909 0.40221 0.81782 0.0
H1162 H 0.39421 0.37641 0.91485 0.0
H1163 H 0.36233 0.37912 0.95156 0.0
C1164 C 0.302 0.53896 0.61481 0.0
C1165 C 0.31352 0.57348 0.59879 0.0
C1166 C 0.36134 0.58046 0.64741 0.0
C1167 C 0.3545 0.54277 0.65847 0.0
N1168 N 0.31763 0.48591 0.65393 0.0
N1169 N 0.35525 0.62694 0.59865 0.0
C1170 C 0.32416 0.52213 0.64303 0.0
C1171 C 0.34305 0.59462 0.61519 0.0
N1172 N 0.26967 0.52255 0.603 0.0
N1173 N 0.38494 0.60289 0.66819 0.0
H1174 H 0.34237 0.63878 0.57544 0.0
H1175 H 0.37964 0.64075 0.6064 0.0
H1176 H 0.39823 0.59354 0.6924 0.0
H1177 H 0.38839 0.63168 0.6638 0.0
H1178 H 0.25781 0.49911 0.61563 0.0
H1179 H 0.25289 0.53467 0.58264 0.0
H1180 H 0.29894 0.46772 0.64041 0.0
H1181 H 0.33226 0.47324 0.67552 0.0
C1182 C 0.21771 0.54283 0.37492 0.0
C1183 C 0.18773 0.55904 0.35566 0.0
C1184 C 0.19083 0.61352 0.39934 0.0
C1185 C 0.2236 0.59905 0.41606 0.0
N1186 N 0.27495 0.55705 0.40656 0.0
N1187 N 0.15608 0.61699 0.34142 0.0
C1188 C 0.23909 0.56576 0.39994 0.0
C1189 C 0.17731 0.59653 0.36533 0.0
N1190 N 0.22534 0.50541 0.37048 0.0
N1191 N 0.17114 0.6421 0.41583 0.0
H1192 H 0.14805 0.60722 0.31468 0.0
H1193 H 0.15073 0.64558 0.3461 0.0
H1194 H 0.17792 0.65582 0.441 0.0
H1195 H 0.14523 0.64978 0.40597 0.0
H1196 H 0.24548 0.49205 0.38633 0.0
H1197 H 0.20862 0.48712 0.35464 0.0
H1198 H 0.28795 0.5341 0.39354 0.0
H1199 H 0.2928 0.57617 0.41991 0.0
loop_
_geom_bond_atom_site_label_1
_geom_bond_atom_site_label_2
_geom_bond_distance
_geom_bond_site_symmetry_2
_ccdc_geom_bond_type
Co0 O1 2.196 1_455 S
Co0 O2 2.078 1_455 S
Co0 O4 2.022 . S
Co0 O10 2.013 1_455 S
Co0 O12 2.146 . S
Co0 O13 2.254 . S
O1 Co0 2.196 1_655 S
O1 C8 1.247 . S
O2 Co0 2.078 1_655 S
O2 C8 1.261 . S
C3 O12 1.247 . S
C3 O13 1.272 . S
O4 Co0 2.022 . S
O4 C9 1.259 . S
Co5 O6 2.061 . S
Co5 O11 2.052 . S
Co5 O13 2.135 . S
O6 Co5 2.061 . S
O6 C9 1.235 . S
C7 O10 1.238 . S
C7 O11 1.241 1_655 S
C8 O1 1.247 . S
C8 O2 1.261 . S
C9 O4 1.259 . S
C9 O6 1.235 . S
O10 Co0 2.013 1_655 S
O10 C7 1.238 . S
O11 Co5 2.052 . S
O11 C7 1.241 1_455 S
O12 Co0 2.146 . S
O12 C3 1.247 . S
O13 Co0 2.254 . S
O13 C3 1.272 . S
O13 Co5 2.135 . S
Co14 O15 2.216 . S
Co14 O16 2.091 . S
Co14 O18 2.004 1_455 S
Co14 O24 2.021 1_455 S
Co14 O26 2.137 . S
Co14 O27 2.244 . S
O15 Co14 2.216 . S
O15 C22 1.247 . S
O16 Co14 2.091 . S
O16 C22 1.261 . S
C17 O26 1.247 . S
C17 O27 1.272 . S
O18 Co14 2.004 1_655 S
O18 C23 1.259 . S
Co19 O20 2.061 . S
Co19 O25 2.052 . S
Co19 O27 2.135 1_655 S
O20 Co19 2.061 . S
O20 C23 1.235 . S
C21 O24 1.238 . S
C21 O25 1.241 . S
C22 O15 1.247 . S
C22 O16 1.261 . S
C23 O18 1.259 . S
C23 O20 1.235 . S
O24 Co14 2.021 1_655 S
O24 C21 1.238 . S
O25 Co19 2.052 . S
O25 C21 1.241 . S
O26 Co14 2.137 . S
O26 C17 1.247 . S
O27 Co14 2.244 . S
O27 C17 1.272 . S
O27 Co19 2.135 1_455 S
Co28 O29 2.216 . S
Co28 O30 2.091 . S
Co28 O32 2.004 . S
Co28 O38 2.021 . S
Co28 O40 2.137 . S
Co28 O41 2.244 . S
O29 Co28 2.216 . S
O29 C36 1.247 . S
O30 Co28 2.091 . S
O30 C36 1.261 . S
C31 O40 1.247 . S
C31 O41 1.272 . S
O32 Co28 2.004 . S
O32 C37 1.259 . S
Co33 O34 2.061 . S
Co33 O39 2.052 . S
Co33 O41 2.135 . S
O34 Co33 2.061 . S
O34 C37 1.235 . S
C35 O38 1.238 . S
C35 O39 1.241 . S
C36 O29 1.247 . S
C36 O30 1.261 . S
C37 O32 1.259 . S
C37 O34 1.235 . S
O38 Co28 2.021 . S
O38 C35 1.238 . S
O39 Co33 2.052 . S
O39 C35 1.241 . S
O40 Co28 2.137 . S
O40 C31 1.247 . S
O41 Co28 2.244 . S
O41 C31 1.272 . S
O41 Co33 2.135 . S
Co42 O43 2.216 . S
Co42 O44 2.091 . S
Co42 O46 2.004 . S
Co42 O52 2.021 . S
Co42 O54 2.137 . S
Co42 O55 2.244 . S
O43 Co42 2.216 . S
O43 C50 1.247 . S
O44 Co42 2.091 . S
O44 C50 1.261 . S
C45 O54 1.247 . S
C45 O55 1.272 . S
O46 Co42 2.004 . S
O46 C51 1.259 . S
Co47 O48 2.061 . S
Co47 O53 2.052 . S
Co47 O55 2.135 . S
O48 Co47 2.061 . S
O48 C51 1.235 . S
C49 O52 1.238 . S
C49 O53 1.241 . S
C50 O43 1.247 . S
C50 O44 1.261 . S
C51 O46 1.259 . S
C51 O48 1.235 . S
O52 Co42 2.021 . S
O52 C49 1.238 . S
O53 Co47 2.052 . S
O53 C49 1.241 . S
O54 Co42 2.137 . S
O54 C45 1.247 . S
O55 Co42 2.244 . S
O55 C45 1.272 . S
O55 Co47 2.135 . S
Co56 O57 2.216 . S
Co56 O58 2.091 . S
Co56 O60 2.004 1_455 S
Co56 O66 2.021 . S
Co56 O68 2.137 1_455 S
Co56 O69 2.244 1_455 S
O57 Co56 2.216 . S
O57 C64 1.247 . S
O58 Co56 2.091 . S
O58 C64 1.261 . S
C59 O68 1.247 . S
C59 O69 1.272 . S
O60 Co56 2.004 1_655 S
O60 C65 1.259 . S
Co61 O62 2.061 . S
Co61 O67 2.052 1_655 S
Co61 O69 2.135 . S
O62 Co61 2.061 . S
O62 C65 1.235 . S
C63 O66 1.238 . S
C63 O67 1.241 . S
C64 O57 1.247 . S
C64 O58 1.261 . S
C65 O60 1.259 . S
C65 O62 1.235 . S
O66 Co56 2.021 . S
O66 C63 1.238 . S
O67 Co61 2.052 1_455 S
O67 C63 1.241 . S
O68 Co56 2.137 1_655 S
O68 C59 1.247 . S
O69 Co56 2.244 1_655 S
O69 C59 1.272 . S
O69 Co61 2.135 . S
Co70 O71 2.216 . S
Co70 O72 2.091 . S
Co70 O74 2.004 . S
Co70 O80 2.021 . S
Co70 O82 2.137 . S
Co70 O83 2.244 . S
O71 Co70 2.216 . S
O71 C78 1.247 . S
O72 Co70 2.091 . S
O72 C78 1.261 . S
C73 O82 1.247 . S
C73 O83 1.272 . S
O74 Co70 2.004 . S
O74 C79 1.259 . S
Co75 O76 2.061 . S
Co75 O81 2.052 . S
Co75 O83 2.135 . S
O76 Co75 2.061 . S
O76 C79 1.235 . S
C77 O80 1.238 . S
C77 O81 1.241 . S
C78 O71 1.247 . S
C78 O72 1.261 . S
C79 O74 1.259 . S
C79 O76 1.235 . S
O80 Co70 2.021 . S
O80 C77 1.238 . S
O81 Co75 2.052 . S
O81 C77 1.241 . S
O82 Co70 2.137 . S
O82 C73 1.247 . S
O83 Co70 2.244 . S
O83 C73 1.272 . S
O83 Co75 2.135 . S
Co84 O85 2.216 . S
Co84 O86 2.091 . S
Co84 O88 2.004 . S
Co84 O94 2.021 . S
Co84 O96 2.137 . S
Co84 O97 2.244 . S
O85 Co84 2.216 . S
O85 C92 1.247 . S
O86 Co84 2.091 . S
O86 C92 1.261 . S
C87 O96 1.247 . S
C87 O97 1.272 . S
O88 Co84 2.004 . S
O88 C93 1.259 . S
Co89 O90 2.061 . S
Co89 O95 2.052 . S
Co89 O97 2.135 . S
O90 Co89 2.061 . S
O90 C93 1.235 . S
C91 O94 1.238 . S
C91 O95 1.241 . S
C92 O85 1.247 . S
C92 O86 1.261 . S
C93 O88 1.259 . S
C93 O90 1.235 . S
O94 Co84 2.021 . S
O94 C91 1.238 . S
O95 Co89 2.052 . S
O95 C91 1.241 . S
O96 Co84 2.137 . S
O96 C87 1.247 . S
O97 Co84 2.244 . S
O97 C87 1.272 . S
O97 Co89 2.135 . S
Co98 O99 2.216 . S
Co98 O100 2.091 . S
Co98 O102 2.004 1_655 S
Co98 O108 2.021 1_655 S
Co98 O110 2.137 . S
Co98 O111 2.243 1_655 S
O99 Co98 2.216 . S
O99 C106 1.247 . S
O100 Co98 2.091 . S
O100 C106 1.261 . S
C101 O110 1.247 . S
C101 O111 1.266 1_655 S
O102 Co98 2.004 1_455 S
O102 C107 1.259 . S
Co103 O104 2.061 . S
Co103 O109 2.052 . S
Co103 O111 2.143 . S
O104 Co103 2.061 . S
O104 C107 1.235 . S
C105 O108 1.238 . S
C105 O109 1.241 . S
C106 O99 1.247 . S
C106 O100 1.261 . S
C107 O102 1.259 . S
C107 O104 1.235 . S
O108 Co98 2.021 1_455 S
O108 C105 1.238 . S
O109 Co103 2.052 . S
O109 C105 1.241 . S
O110 Co98 2.137 . S
O110 C101 1.247 . S
O111 Co98 2.243 1_455 S
O111 C101 1.266 1_455 S
O111 Co103 2.143 . S
Co112 O113 2.216 . S
Co112 O114 2.091 . S
Co112 O116 2.004 1_565 S
Co112 O122 2.021 . S
Co112 O124 2.137 1_565 S
Co112 O125 2.244 1_565 S
O113 Co112 2.216 . S
O113 C120 1.247 . S
O114 Co112 2.091 . S
O114 C120 1.261 . S
C115 O124 1.247 . S
C115 O125 1.272 . S
O116 Co112 2.004 1_545 S
O116 C121 1.259 . S
Co117 O118 2.061 . S
Co117 O123 2.052 . S
Co117 O125 2.135 . S
O118 Co117 2.061 . S
O118 C121 1.235 . S
C119 O122 1.238 . S
C119 O123 1.241 1_565 S
C120 O113 1.247 . S
C120 O114 1.261 . S
C121 O116 1.259 . S
C121 O118 1.235 . S
O122 Co112 2.021 . S
O122 C119 1.238 . S
O123 Co117 2.052 . S
O123 C119 1.241 1_545 S
O124 Co112 2.137 1_545 S
O124 C115 1.247 . S
O125 Co112 2.244 1_545 S
O125 C115 1.272 . S
O125 Co117 2.135 . S
Co126 O127 2.216 . S
Co126 O128 2.091 . S
Co126 O130 2.004 . S
Co126 O136 2.021 . S
Co126 O138 2.137 . S
Co126 O139 2.244 . S
O127 Co126 2.216 . S
O127 C134 1.247 . S
O128 Co126 2.091 . S
O128 C134 1.261 . S
C129 O138 1.247 . S
C129 O139 1.272 . S
O130 Co126 2.004 . S
O130 C135 1.259 . S
Co131 O132 2.061 . S
Co131 O137 2.052 . S
Co131 O139 2.135 . S
O132 Co131 2.061 . S
O132 C135 1.235 . S
C133 O136 1.238 . S
C133 O137 1.241 . S
C134 O127 1.247 . S
C134 O128 1.261 . S
C135 O130 1.259 . S
C135 O132 1.235 . S
O136 Co126 2.021 . S
O136 C133 1.238 . S
O137 Co131 2.052 . S
O137 C133 1.241 . S
O138 Co126 2.137 . S
O138 C129 1.247 . S
O139 Co126 2.244 . S
O139 C129 1.272 . S
O139 Co131 2.135 . S
Co140 O141 2.216 1_545 S
Co140 O142 2.091 1_545 S
Co140 O144 2.004 . S
Co140 O150 2.021 1_545 S
Co140 O152 2.137 . S
Co140 O153 2.244 . S
O141 Co140 2.216 1_565 S
O141 C148 1.247 . S
O142 Co140 2.091 1_565 S
O142 C148 1.261 . S
C143 O152 1.247 . S
C143 O153 1.272 . S
O144 Co140 2.004 . S
O144 C149 1.259 . S
Co145 O146 2.061 . S
Co145 O151 2.052 1_545 S
Co145 O153 2.135 . S
O146 Co145 2.061 . S
O146 C149 1.235 . S
C147 O150 1.238 . S
C147 O151 1.241 . S
C148 O141 1.247 . S
C148 O142 1.261 . S
C149 O144 1.259 . S
C149 O146 1.235 . S
O150 Co140 2.021 1_565 S
O150 C147 1.238 . S
O151 Co145 2.052 1_565 S
O151 C147 1.241 . S
O152 Co140 2.137 . S
O152 C143 1.247 . S
O153 Co140 2.244 . S
O153 C143 1.272 . S
O153 Co145 2.135 . S
Co154 O155 2.216 1_554 S
Co154 O156 2.091 1_554 S
Co154 O158 2.004 . S
Co154 O164 2.021 . S
Co154 O166 2.137 1_554 S
Co154 O167 2.244 1_554 S
O155 Co154 2.216 1_556 S
O155 C162 1.247 . S
O156 Co154 2.091 1_556 S
O156 C162 1.261 . S
C157 O166 1.247 . S
C157 O167 1.272 . S
O158 Co154 2.004 . S
O158 C163 1.259 . S
Co159 O160 2.061 . S
Co159 O165 2.052 . S
Co159 O167 2.135 1_554 S
O160 Co159 2.061 . S
O160 C163 1.235 . S
C161 O164 1.238 . S
C161 O165 1.241 . S
C162 O155 1.247 . S
C162 O156 1.261 . S
C163 O158 1.259 . S
C163 O160 1.235 . S
O164 Co154 2.021 . S
O164 C161 1.238 . S
O165 Co159 2.052 . S
O165 C161 1.241 . S
O166 Co154 2.137 1_556 S
O166 C157 1.247 . S
O167 Co154 2.244 1_556 S
O167 C157 1.272 . S
O167 Co159 2.135 1_556 S
Co168 O169 2.216 . S
Co168 O170 2.091 . S
Co168 O172 2.004 1_554 S
Co168 O178 2.021 . S
Co168 O180 2.137 1_554 S
Co168 O181 2.244 1_554 S
O169 Co168 2.216 . S
O169 C176 1.247 . S
O170 Co168 2.091 . S
O170 C176 1.261 . S
C171 O180 1.247 . S
C171 O181 1.272 . S
O172 Co168 2.004 1_556 S
O172 C177 1.259 . S
Co173 O174 2.061 . S
Co173 O179 2.052 1_556 S
Co173 O181 2.135 . S
O174 Co173 2.061 . S
O174 C177 1.235 . S
C175 O178 1.238 . S
C175 O179 1.241 . S
C176 O169 1.247 . S
C176 O170 1.261 . S
C177 O172 1.259 . S
C177 O174 1.235 . S
O178 Co168 2.021 . S
O178 C175 1.238 . S
O179 Co173 2.052 1_554 S
O179 C175 1.241 . S
O180 Co168 2.137 1_556 S
O180 C171 1.247 . S
O181 Co168 2.244 1_556 S
O181 C171 1.272 . S
O181 Co173 2.135 . S
Co182 O183 2.216 . S
Co182 O184 2.091 . S
Co182 O186 2.004 1_554 S
Co182 O192 2.021 . S
Co182 O194 2.137 1_554 S
Co182 O195 2.244 1_554 S
O183 Co182 2.216 . S
O183 C190 1.247 . S
O184 Co182 2.091 . S
O184 C190 1.261 . S
C185 O194 1.247 . S
C185 O195 1.272 . S
O186 Co182 2.004 1_556 S
O186 C191 1.259 . S
Co187 O188 2.061 . S
Co187 O193 2.052 1_556 S
Co187 O195 2.135 . S
O188 Co187 2.061 . S
O188 C191 1.235 . S
C189 O192 1.238 . S
C189 O193 1.241 . S
C190 O183 1.247 . S
C190 O184 1.261 . S
C191 O186 1.259 . S
C191 O188 1.235 . S
O192 Co182 2.021 . S
O192 C189 1.238 . S
O193 Co187 2.052 1_554 S
O193 C189 1.241 . S
O194 Co182 2.137 1_556 S
O194 C185 1.247 . S
O195 Co182 2.244 1_556 S
O195 C185 1.272 . S
O195 Co187 2.135 . S
Co196 O197 2.216 . S
Co196 O198 2.091 . S
Co196 O200 2.004 . S
Co196 O206 2.021 . S
Co196 O208 2.137 . S
Co196 O209 2.244 . S
O197 Co196 2.216 . S
O197 C204 1.247 . S
O198 Co196 2.091 . S
O198 C204 1.261 . S
C199 O208 1.247 . S
C199 O209 1.272 . S
O200 Co196 2.004 . S
O200 C205 1.259 . S
Co201 O202 2.061 . S
Co201 O207 2.052 . S
Co201 O209 2.135 . S
O202 Co201 2.061 . S
O202 C205 1.235 . S
C203 O206 1.238 . S
C203 O207 1.241 . S
C204 O197 1.247 . S
C204 O198 1.261 . S
C205 O200 1.259 . S
C205 O202 1.235 . S
O206 Co196 2.021 . S
O206 C203 1.238 . S
O207 Co201 2.052 . S
O207 C203 1.241 . S
O208 Co196 2.137 . S
O208 C199 1.247 . S
O209 Co196 2.244 . S
O209 C199 1.272 . S
O209 Co201 2.135 . S
Co210 O211 2.216 . S
Co210 O212 2.091 . S
Co210 O214 2.004 . S
Co210 O220 2.021 . S
Co210 O222 2.137 . S
Co210 O223 2.244 . S
O211 Co210 2.216 . S
O211 C218 1.247 . S
O212 Co210 2.091 . S
O212 C218 1.261 . S
C213 O222 1.247 . S
C213 O223 1.272 . S
O214 Co210 2.004 . S
O214 C219 1.259 . S
Co215 O216 2.061 . S
Co215 O221 2.052 . S
Co215 O223 2.135 . S
O216 Co215 2.061 . S
O216 C219 1.235 . S
C217 O220 1.238 . S
C217 O221 1.241 . S
C218 O211 1.247 . S
C218 O212 1.261 . S
C219 O214 1.259 . S
C219 O216 1.235 . S
O220 Co210 2.021 . S
O220 C217 1.238 . S
O221 Co215 2.052 . S
O221 C217 1.241 . S
O222 Co210 2.137 . S
O222 C213 1.247 . S
O223 Co210 2.244 . S
O223 C213 1.272 . S
O223 Co215 2.135 . S
Co224 O225 2.216 . S
Co224 O226 2.091 . S
Co224 O228 2.004 1_565 S
Co224 O234 2.021 1_565 S
Co224 O236 2.137 . S
Co224 O237 2.244 . S
O225 Co224 2.216 . S
O225 C232 1.247 . S
O226 Co224 2.091 . S
O226 C232 1.261 . S
C227 O236 1.247 . S
C227 O237 1.272 . S
O228 Co224 2.004 1_545 S
O228 C233 1.259 . S
Co229 O230 2.061 . S
Co229 O235 2.052 . S
Co229 O237 2.135 1_545 S
O230 Co229 2.061 . S
O230 C233 1.235 . S
C231 O234 1.238 . S
C231 O235 1.241 . S
C232 O225 1.247 . S
C232 O226 1.261 . S
C233 O228 1.259 . S
C233 O230 1.235 . S
O234 Co224 2.021 1_545 S
O234 C231 1.238 . S
O235 Co229 2.052 . S
O235 C231 1.241 . S
O236 Co224 2.137 . S
O236 C227 1.247 . S
O237 Co224 2.244 . S
O237 C227 1.272 . S
O237 Co229 2.135 1_565 S
Co238 O239 2.216 . S
Co238 O240 2.091 . S
Co238 O242 2.004 . S
Co238 O248 2.021 . S
Co238 O250 2.137 . S
Co238 O251 2.244 . S
O239 Co238 2.216 . S
O239 C246 1.247 . S
O240 Co238 2.091 . S
O240 C246 1.261 . S
C241 O250 1.247 . S
C241 O251 1.272 . S
O242 Co238 2.004 . S
O242 C247 1.259 . S
Co243 O244 2.061 . S
Co243 O249 2.052 . S
Co243 O251 2.135 . S
O244 Co243 2.061 . S
O244 C247 1.235 . S
C245 O248 1.238 . S
C245 O249 1.241 . S
C246 O239 1.247 . S
C246 O240 1.261 . S
C247 O242 1.259 . S
C247 O244 1.235 . S
O248 Co238 2.021 . S
O248 C245 1.238 . S
O249 Co243 2.052 . S
O249 C245 1.241 . S
O250 Co238 2.137 . S
O250 C241 1.247 . S
O251 Co238 2.244 . S
O251 C241 1.272 . S
O251 Co243 2.135 . S
Co252 O253 2.216 . S
Co252 O254 2.091 . S
Co252 O256 2.004 . S
Co252 O262 2.021 . S
Co252 O264 2.137 . S
Co252 O265 2.244 . S
O253 Co252 2.216 . S
O253 C260 1.247 . S
O254 Co252 2.091 . S
O254 C260 1.261 . S
C255 O264 1.247 . S
C255 O265 1.272 . S
O256 Co252 2.004 . S
O256 C261 1.259 . S
Co257 O258 2.061 . S
Co257 O263 2.052 . S
Co257 O265 2.135 . S
O258 Co257 2.061 . S
O258 C261 1.235 . S
C259 O262 1.238 . S
C259 O263 1.241 . S
C260 O253 1.247 . S
C260 O254 1.261 . S
C261 O256 1.259 . S
C261 O258 1.235 . S
O262 Co252 2.021 . S
O262 C259 1.238 . S
O263 Co257 2.052 . S
O263 C259 1.241 . S
O264 Co252 2.137 . S
O264 C255 1.247 . S
O265 Co252 2.244 . S
O265 C255 1.272 . S
O265 Co257 2.135 . S
Co266 O267 2.216 . S
Co266 O268 2.091 . S
Co266 O270 2.004 1_545 S
Co266 O276 2.021 1_545 S
Co266 O278 2.137 . S
Co266 O279 2.244 . S
O267 Co266 2.216 . S
O267 C274 1.247 . S
O268 Co266 2.091 . S
O268 C274 1.261 . S
C269 O278 1.247 . S
C269 O279 1.272 . S
O270 Co266 2.004 1_565 S
O270 C275 1.259 . S
Co271 O272 2.061 . S
Co271 O277 2.052 . S
Co271 O279 2.135 1_565 S
O272 Co271 2.061 . S
O272 C275 1.235 . S
C273 O276 1.238 . S
C273 O277 1.241 . S
C274 O267 1.247 . S
C274 O268 1.261 . S
C275 O270 1.259 . S
C275 O272 1.235 . S
O276 Co266 2.021 1_565 S
O276 C273 1.238 . S
O277 Co271 2.052 . S
O277 C273 1.241 . S
O278 Co266 2.137 . S
O278 C269 1.247 . S
O279 Co266 2.244 . S
O279 C269 1.272 . S
O279 Co271 2.135 1_545 S
Co280 O281 2.216 . S
Co280 O282 2.091 . S
Co280 O284 2.004 1_556 S
Co280 O290 2.021 1_556 S
Co280 O292 2.137 . S
Co280 O293 2.244 . S
O281 Co280 2.216 . S
O281 C288 1.247 . S
O282 Co280 2.091 . S
O282 C288 1.261 . S
C283 O292 1.247 . S
C283 O293 1.272 . S
O284 Co280 2.004 1_554 S
O284 C289 1.259 . S
Co285 O286 2.061 . S
Co285 O291 2.052 . S
Co285 O293 2.135 1_554 S
O286 Co285 2.061 . S
O286 C289 1.235 . S
C287 O290 1.238 . S
C287 O291 1.241 . S
C288 O281 1.247 . S
C288 O282 1.261 . S
C289 O284 1.259 . S
C289 O286 1.235 . S
O290 Co280 2.021 1_554 S
O290 C287 1.238 . S
O291 Co285 2.052 . S
O291 C287 1.241 . S
O292 Co280 2.137 . S
O292 C283 1.247 . S
O293 Co280 2.244 . S
O293 C283 1.272 . S
O293 Co285 2.135 1_556 S
Co294 O295 2.216 . S
Co294 O296 2.091 . S
Co294 O298 2.004 . S
Co294 O304 2.021 . S
Co294 O306 2.137 . S
Co294 O307 2.244 . S
O295 Co294 2.216 . S
O295 C302 1.247 . S
O296 Co294 2.091 . S
O296 C302 1.261 . S
C297 O306 1.247 . S
C297 O307 1.272 . S
O298 Co294 2.004 . S
O298 C303 1.259 . S
Co299 O300 2.061 . S
Co299 O305 2.052 . S
Co299 O307 2.135 . S
O300 Co299 2.061 . S
O300 C303 1.235 . S
C301 O304 1.238 . S
C301 O305 1.241 . S
C302 O295 1.247 . S
C302 O296 1.261 . S
C303 O298 1.259 . S
C303 O300 1.235 . S
O304 Co294 2.021 . S
O304 C301 1.238 . S
O305 Co299 2.052 . S
O305 C301 1.241 . S
O306 Co294 2.137 . S
O306 C297 1.247 . S
O307 Co294 2.244 . S
O307 C297 1.272 . S
O307 Co299 2.135 . S
Co308 O309 2.216 . S
Co308 O310 2.091 . S
Co308 O312 2.004 . S
Co308 O318 2.021 . S
Co308 O320 2.137 . S
Co308 O321 2.244 . S
O309 Co308 2.216 . S
O309 C316 1.247 . S
O310 Co308 2.091 . S
O310 C316 1.261 . S
C311 O320 1.247 . S
C311 O321 1.272 . S
O312 Co308 2.004 . S
O312 C317 1.259 . S
Co313 O314 2.061 . S
Co313 O319 2.052 . S
Co313 O321 2.135 . S
O314 Co313 2.061 . S
O314 C317 1.235 . S
C315 O318 1.238 . S
C315 O319 1.241 . S
C316 O309 1.247 . S
C316 O310 1.261 . S
C317 O312 1.259 . S
C317 O314 1.235 . S
O318 Co308 2.021 . S
O318 C315 1.238 . S
O319 Co313 2.052 . S
O319 C315 1.241 . S
O320 Co308 2.137 . S
O320 C311 1.247 . S
O321 Co308 2.244 . S
O321 C311 1.272 . S
O321 Co313 2.135 . S
Co322 O323 2.216 . S
Co322 O324 2.091 . S
Co322 O326 2.004 . S
Co322 O332 2.021 . S
Co322 O334 2.137 . S
Co322 O335 2.244 . S
O323 Co322 2.216 . S
O323 C330 1.247 . S
O324 Co322 2.091 . S
O324 C330 1.261 . S
C325 O334 1.247 . S
C325 O335 1.272 . S
O326 Co322 2.004 . S
O326 C331 1.259 . S
Co327 O328 2.061 . S
Co327 O333 2.052 . S
Co327 O335 2.135 . S
O328 Co327 2.061 . S
O328 C331 1.235 . S
C329 O332 1.238 . S
C329 O333 1.241 . S
C330 O323 1.247 . S
C330 O324 1.261 . S
C331 O326 1.259 . S
C331 O328 1.235 . S
O332 Co322 2.021 . S
O332 C329 1.238 . S
O333 Co327 2.052 . S
O333 C329 1.241 . S
O334 Co322 2.137 . S
O334 C325 1.247 . S
O335 Co322 2.244 . S
O335 C325 1.272 . S
O335 Co327 2.135 . S
C336 C337 1.363 . S
C336 C342 1.379 . S
C336 N344 1.356 . S
C337 C336 1.363 . S
C337 C343 1.363 . S
C338 C339 1.363 . S
C338 C343 1.379 . S
C338 N345 1.356 . S
C339 C338 1.363 . S
C339 C342 1.363 . S
N340 C342 1.356 1_655 S
N340 H352 0.984 . S
N340 H353 0.985 . S
N341 C343 1.356 . S
N341 H346 0.984 . S
N341 H347 0.985 . S
C342 C336 1.379 . S
C342 C339 1.363 . S
C342 N340 1.356 1_455 S
C343 C337 1.363 . S
C343 C338 1.379 . S
C343 N341 1.356 . S
N344 C336 1.356 . S
N344 H350 0.984 . S
N344 H351 0.984 . S
N345 C338 1.356 . S
N345 H348 0.984 . S
N345 H349 0.985 . S
H346 N341 0.984 . S
H347 N341 0.985 . S
H348 N345 0.984 . S
H349 N345 0.985 . S
H350 N344 0.984 . S
H351 N344 0.984 . S
H352 N340 0.984 . S
H353 N340 0.985 . S
C354 C355 1.363 . S
C354 C360 1.379 . S
C354 N362 1.356 . S
C355 C354 1.363 . S
C355 C361 1.363 . S
C356 C357 1.363 . S
C356 C361 1.379 . S
C356 N363 1.356 . S
C357 C356 1.363 . S
C357 C360 1.363 . S
N358 C360 1.356 . S
N358 H370 0.984 . S
N358 H371 0.985 . S
N359 C361 1.356 . S
N359 H364 0.984 . S
N359 H365 0.985 . S
C360 C354 1.379 . S
C360 C357 1.363 . S
C360 N358 1.356 . S
C361 C355 1.363 . S
C361 C356 1.379 . S
C361 N359 1.356 . S
N362 C354 1.356 . S
N362 H368 0.984 . S
N362 H369 0.984 . S
N363 C356 1.356 . S
N363 H366 0.984 . S
N363 H367 0.985 . S
H364 N359 0.984 . S
H365 N359 0.985 . S
H366 N363 0.984 . S
H367 N363 0.985 . S
H368 N362 0.984 . S
H369 N362 0.984 . S
H370 N358 0.984 . S
H371 N358 0.985 . S
C372 C373 1.363 . S
C372 C378 1.379 . S
C372 N380 1.356 . S
C373 C372 1.363 . S
C373 C379 1.363 . S
C374 C375 1.363 . S
C374 C379 1.379 . S
C374 N381 1.356 . S
C375 C374 1.363 . S
C375 C378 1.363 . S
N376 C378 1.356 . S
N376 H388 0.984 . S
N376 H389 0.985 . S
N377 C379 1.356 . S
N377 H382 0.984 . S
N377 H383 0.985 . S
C378 C372 1.379 . S
C378 C375 1.363 . S
C378 N376 1.356 . S
C379 C373 1.363 . S
C379 C374 1.379 . S
C379 N377 1.356 . S
N380 C372 1.356 . S
N380 H386 0.984 . S
N380 H387 0.984 . S
N381 C374 1.356 . S
N381 H384 0.984 . S
N381 H385 0.985 . S
H382 N377 0.984 . S
H383 N377 0.985 . S
H384 N381 0.984 . S
H385 N381 0.985 . S
H386 N380 0.984 . S
H387 N380 0.984 . S
H388 N376 0.984 . S
H389 N376 0.985 . S
C390 C391 1.363 . S
C390 C396 1.379 . S
C390 N398 1.356 . S
C391 C390 1.363 . S
C391 C397 1.363 . S
C392 C393 1.363 . S
C392 C397 1.379 . S
C392 N399 1.356 . S
C393 C392 1.363 . S
C393 C396 1.363 . S
N394 C396 1.356 . S
N394 H406 0.984 1_554 S
N394 H407 0.984 1_554 S
N395 C397 1.356 . S
N395 H400 0.984 . S
N395 H401 0.985 . S
C396 C390 1.379 . S
C396 C393 1.363 . S
C396 N394 1.356 . S
C397 C391 1.363 . S
C397 C392 1.379 . S
C397 N395 1.356 . S
N398 C390 1.356 . S
N398 H404 0.984 . S
N398 H405 0.984 . S
N399 C392 1.356 . S
N399 H402 0.984 . S
N399 H403 0.985 . S
H400 N395 0.984 . S
H401 N395 0.985 . S
H402 N399 0.984 . S
H403 N399 0.985 . S
H404 N398 0.984 . S
H405 N398 0.984 . S
H406 N394 0.984 1_556 S
H407 N394 0.984 1_556 S
C408 C409 1.363 . S
C408 C414 1.379 . S
C408 N416 1.356 . S
C409 C408 1.363 . S
C409 C415 1.363 . S
C410 C411 1.363 . S
C410 C415 1.379 . S
C410 N417 1.356 . S
C411 C410 1.363 . S
C411 C414 1.363 . S
N412 C414 1.356 . S
N412 H424 0.984 1_455 S
N412 H425 0.985 . S
N413 C415 1.356 . S
N413 H418 0.984 . S
N413 H419 0.985 . S
C414 C408 1.379 . S
C414 C411 1.363 . S
C414 N412 1.356 . S
C415 C409 1.363 . S
C415 C410 1.379 . S
C415 N413 1.356 . S
N416 C408 1.356 . S
N416 H422 0.984 . S
N416 H423 0.984 . S
N417 C410 1.356 . S
N417 H420 0.984 . S
N417 H421 0.985 . S
H418 N413 0.984 . S
H419 N413 0.985 . S
H420 N417 0.984 . S
H421 N417 0.985 . S
H422 N416 0.984 . S
H423 N416 0.984 . S
H424 N412 0.984 1_655 S
H425 N412 0.985 . S
C426 C427 1.363 . S
C426 C432 1.379 . S
C426 N434 1.356 . S
C427 C426 1.363 . S
C427 C433 1.363 . S
C428 C429 1.363 . S
C428 C433 1.379 . S
C428 N435 1.356 . S
C429 C428 1.363 . S
C429 C432 1.363 . S
N430 C432 1.356 . S
N430 H442 0.984 . S
N430 H443 0.985 . S
N431 C433 1.356 . S
N431 H436 0.984 . S
N431 H437 0.985 . S
C432 C426 1.379 . S
C432 C429 1.363 . S
C432 N430 1.356 . S
C433 C427 1.363 . S
C433 C428 1.379 . S
C433 N431 1.356 . S
N434 C426 1.356 . S
N434 H440 0.984 . S
N434 H441 0.984 . S
N435 C428 1.356 . S
N435 H438 0.984 . S
N435 H439 0.985 . S
H436 N431 0.984 . S
H437 N431 0.985 . S
H438 N435 0.984 . S
H439 N435 0.985 . S
H440 N434 0.984 . S
H441 N434 0.984 . S
H442 N430 0.984 . S
H443 N430 0.985 . S
C444 C445 1.363 . S
C444 C450 1.379 . S
C444 N452 1.356 . S
C445 C444 1.363 . S
C445 C451 1.363 . S
C446 C447 1.363 . S
C446 C451 1.379 . S
C446 N453 1.356 . S
C447 C446 1.363 . S
C447 C450 1.363 . S
N448 C450 1.356 . S
N448 H460 0.984 . S
N448 H461 0.985 . S
N449 C451 1.356 . S
N449 H454 0.984 . S
N449 H455 0.985 . S
C450 C444 1.379 . S
C450 C447 1.363 . S
C450 N448 1.356 . S
C451 C445 1.363 . S
C451 C446 1.379 . S
C451 N449 1.356 . S
N452 C444 1.356 . S
N452 H458 0.984 . S
N452 H459 0.984 . S
N453 C446 1.356 . S
N453 H456 0.984 . S
N453 H457 0.985 . S
H454 N449 0.984 . S
H455 N449 0.985 . S
H456 N453 0.984 . S
H457 N453 0.985 . S
H458 N452 0.984 . S
H459 N452 0.984 . S
H460 N448 0.984 . S
H461 N448 0.985 . S
C462 C463 1.363 . S
C462 C468 1.379 . S
C462 N470 1.356 . S
C463 C462 1.363 . S
C463 C469 1.363 . S
C464 C465 1.363 . S
C464 C469 1.379 . S
C464 N471 1.356 1_556 S
C465 C464 1.363 . S
C465 C468 1.363 . S
N466 C468 1.356 . S
N466 H478 0.984 . S
N466 H479 0.985 . S
N467 C469 1.356 . S
N467 H472 0.984 . S
N467 H473 0.985 . S
C468 C462 1.379 . S
C468 C465 1.363 . S
C468 N466 1.356 . S
C469 C463 1.363 . S
C469 C464 1.379 . S
C469 N467 1.356 . S
N470 C462 1.356 . S
N470 H476 0.984 . S
N470 H477 0.984 . S
N471 C464 1.356 1_554 S
N471 H474 0.984 . S
N471 H475 0.985 . S
H472 N467 0.984 . S
H473 N467 0.985 . S
H474 N471 0.984 . S
H475 N471 0.985 . S
H476 N470 0.984 . S
H477 N470 0.984 . S
H478 N466 0.984 . S
H479 N466 0.985 . S
C480 C481 1.363 . S
C480 C486 1.379 . S
C480 N488 1.356 . S
C481 C480 1.363 . S
C481 C487 1.363 . S
C482 C483 1.363 . S
C482 C487 1.379 . S
C482 N489 1.356 1_545 S
C483 C482 1.363 . S
C483 C486 1.363 . S
N484 C486 1.356 . S
N484 H496 0.984 . S
N484 H497 0.985 . S
N485 C487 1.356 . S
N485 H490 0.984 . S
N485 H491 1.006 . S
C486 C480 1.379 . S
C486 C483 1.363 . S
C486 N484 1.356 . S
C487 C481 1.363 . S
C487 C482 1.379 . S
C487 N485 1.356 . S
N488 C480 1.356 . S
N488 H494 0.984 . S
N488 H495 0.984 . S
N489 C482 1.356 1_565 S
N489 H492 0.984 . S
N489 H493 0.985 . S
H490 N485 0.984 . S
H491 N485 1.006 . S
H492 N489 0.984 . S
H493 N489 0.985 . S
H494 N488 0.984 . S
H495 N488 0.984 . S
H496 N484 0.984 . S
H497 N484 0.985 . S
C498 C499 1.363 . S
C498 C504 1.379 . S
C498 N506 1.356 . S
C499 C498 1.363 . S
C499 C505 1.363 . S
C500 C501 1.363 . S
C500 C505 1.379 . S
C500 N507 1.356 . S
C501 C500 1.363 . S
C501 C504 1.363 . S
N502 C504 1.356 . S
N502 H514 0.984 . S
N502 H515 0.985 . S
N503 C505 1.356 . S
N503 H508 0.984 . S
N503 H509 0.985 . S
C504 C498 1.379 . S
C504 C501 1.363 . S
C504 N502 1.356 . S
C505 C499 1.363 . S
C505 C500 1.379 . S
C505 N503 1.356 . S
N506 C498 1.356 . S
N506 H512 0.984 . S
N506 H513 0.984 . S
N507 C500 1.356 . S
N507 H510 0.984 . S
N507 H511 0.985 . S
H508 N503 0.984 . S
H509 N503 0.985 . S
H510 N507 0.984 . S
H511 N507 0.985 . S
H512 N506 0.984 . S
H513 N506 0.984 . S
H514 N502 0.984 . S
H515 N502 0.985 . S
C516 C517 1.363 . S
C516 C522 1.379 . S
C516 N524 1.356 1_565 S
C517 C516 1.363 . S
C517 C523 1.363 . S
C518 C519 1.363 . S
C518 C523 1.379 . S
C518 N525 1.356 . S
C519 C518 1.363 . S
C519 C522 1.363 . S
N520 C522 1.356 . S
N520 H532 0.984 . S
N520 H533 0.985 . S
N521 C523 1.356 . S
N521 H526 0.984 . S
N521 H527 0.985 . S
C522 C516 1.379 . S
C522 C519 1.363 . S
C522 N520 1.356 . S
C523 C517 1.363 . S
C523 C518 1.379 . S
C523 N521 1.356 . S
N524 C516 1.356 1_545 S
N524 H530 0.984 . S
N524 H531 0.984 . S
N525 C518 1.356 . S
N525 H528 0.984 . S
N525 H529 0.985 . S
H526 N521 0.984 . S
H527 N521 0.985 . S
H528 N525 0.984 . S
H529 N525 0.985 . S
H530 N524 0.984 . S
H531 N524 0.984 . S
H532 N520 0.984 . S
H533 N520 0.985 . S
C534 C535 1.363 . S
C534 C540 1.379 . S
C534 N542 1.356 . S
C535 C534 1.363 . S
C535 C541 1.363 . S
C536 C537 1.363 . S
C536 C541 1.379 . S
C536 N543 1.356 1_565 S
C537 C536 1.363 . S
C537 C540 1.363 . S
N538 C540 1.356 . S
N538 H550 0.984 . S
N538 H551 0.985 . S
N539 C541 1.356 . S
N539 H544 0.984 . S
N539 H545 0.985 . S
C540 C534 1.379 . S
C540 C537 1.363 . S
C540 N538 1.356 . S
C541 C535 1.363 . S
C541 C536 1.379 . S
C541 N539 1.356 . S
N542 C534 1.356 . S
N542 H548 0.984 . S
N542 H549 0.984 . S
N543 C536 1.356 1_545 S
N543 H546 0.984 . S
N543 H547 0.985 . S
H544 N539 0.984 . S
H545 N539 0.985 . S
H546 N543 0.984 . S
H547 N543 0.985 . S
H548 N542 0.984 . S
H549 N542 0.984 . S
H550 N538 0.984 . S
H551 N538 0.985 . S
C552 C553 1.363 . S
C552 C558 1.379 . S
C552 N560 1.356 . S
C553 C552 1.363 . S
C553 C559 1.363 . S
C554 C555 1.363 . S
C554 C559 1.379 . S
C554 N561 1.356 . S
C555 C554 1.363 . S
C555 C558 1.363 . S
N556 C558 1.356 . S
N556 H568 0.984 . S
N556 H569 0.985 . S
N557 C559 1.356 . S
N557 H562 0.984 . S
N557 H563 0.985 1_554 S
C558 C552 1.379 . S
C558 C555 1.363 . S
C558 N556 1.356 . S
C559 C553 1.363 . S
C559 C554 1.379 . S
C559 N557 1.356 . S
N560 C552 1.356 . S
N560 H566 0.984 . S
N560 H567 0.984 . S
N561 C554 1.356 . S
N561 H564 0.984 . S
N561 H565 0.985 . S
H562 N557 0.984 . S
H563 N557 0.985 1_556 S
H564 N561 0.984 . S
H565 N561 0.985 . S
H566 N560 0.984 . S
H567 N560 0.984 . S
H568 N556 0.984 . S
H569 N556 0.985 . S
C570 C571 1.363 . S
C570 C576 1.379 . S
C570 N578 1.356 . S
C571 C570 1.363 . S
C571 C577 1.363 . S
C572 C573 1.363 . S
C572 C577 1.379 . S
C572 N579 1.356 . S
C573 C572 1.363 . S
C573 C576 1.363 . S
N574 C576 1.356 . S
N574 H586 0.984 . S
N574 H587 0.985 . S
N575 C577 1.356 . S
N575 H580 0.984 . S
N575 H581 0.985 . S
C576 C570 1.379 . S
C576 C573 1.363 . S
C576 N574 1.356 . S
C577 C571 1.363 . S
C577 C572 1.379 . S
C577 N575 1.356 . S
N578 C570 1.356 . S
N578 H584 0.984 . S
N578 H585 0.984 . S
N579 C572 1.356 . S
N579 H582 0.984 . S
N579 H583 0.985 . S
H580 N575 0.984 . S
H581 N575 0.985 . S
H582 N579 0.984 . S
H583 N579 0.985 . S
H584 N578 0.984 . S
H585 N578 0.984 . S
H586 N574 0.984 . S
H587 N574 0.985 . S
C588 C589 1.363 . S
C588 C594 1.379 . S
C588 N596 1.356 . S
C589 C588 1.363 . S
C589 C595 1.363 . S
C590 C591 1.363 . S
C590 C595 1.379 . S
C590 N597 1.356 . S
C591 C590 1.363 . S
C591 C594 1.363 . S
N592 C594 1.356 . S
N592 H604 0.984 . S
N592 H605 0.985 . S
N593 C595 1.356 . S
N593 H598 0.984 . S
N593 H599 0.985 . S
C594 C588 1.379 . S
C594 C591 1.363 . S
C594 N592 1.356 . S
C595 C589 1.363 . S
C595 C590 1.379 . S
C595 N593 1.356 . S
N596 C588 1.356 . S
N596 H602 0.984 . S
N596 H603 0.984 . S
N597 C590 1.356 . S
N597 H600 0.984 . S
N597 H601 0.985 . S
H598 N593 0.984 . S
H599 N593 0.985 . S
H600 N597 0.984 . S
H601 N597 0.985 . S
H602 N596 0.984 . S
H603 N596 0.984 . S
H604 N592 0.984 . S
H605 N592 0.985 . S
C606 C607 1.363 . S
C606 C612 1.379 . S
C606 N614 1.356 1_655 S
C607 C606 1.363 . S
C607 C613 1.363 . S
C608 C609 1.363 . S
C608 C613 1.379 . S
C608 N615 1.356 . S
C609 C608 1.363 . S
C609 C612 1.363 . S
N610 C612 1.356 . S
N610 H622 1.010 . S
N610 H623 0.985 . S
N611 C613 1.356 . S
N611 H616 0.984 . S
N611 H617 0.985 . S
C612 C606 1.379 . S
C612 C609 1.363 . S
C612 N610 1.356 . S
C613 C607 1.363 . S
C613 C608 1.379 . S
C613 N611 1.356 . S
N614 C606 1.356 1_455 S
N614 H620 0.984 . S
N614 H621 0.984 . S
N615 C608 1.356 . S
N615 H618 0.984 . S
N615 H619 0.985 . S
H616 N611 0.984 . S
H617 N611 0.985 . S
H618 N615 0.984 . S
H619 N615 0.985 . S
H620 N614 0.984 . S
H621 N614 0.984 . S
H622 N610 1.010 . S
H623 N610 0.985 . S
C624 C625 1.363 . S
C624 C630 1.379 . S
C624 N632 1.356 . S
C625 C624 1.363 . S
C625 C631 1.363 . S
C626 C627 1.363 . S
C626 C631 1.379 . S
C626 N633 1.356 . S
C627 C626 1.363 . S
C627 C630 1.363 . S
N628 C630 1.356 . S
N628 H640 0.984 . S
N628 H641 0.985 . S
N629 C631 1.356 . S
N629 H634 0.984 . S
N629 H635 0.985 . S
C630 C624 1.379 . S
C630 C627 1.363 . S
C630 N628 1.356 . S
C631 C625 1.363 . S
C631 C626 1.379 . S
C631 N629 1.356 . S
N632 C624 1.356 . S
N632 H638 0.984 . S
N632 H639 0.984 . S
N633 C626 1.356 . S
N633 H636 0.984 . S
N633 H637 0.985 . S
H634 N629 0.984 . S
H635 N629 0.985 . S
H636 N633 0.984 . S
H637 N633 0.985 . S
H638 N632 0.984 . S
H639 N632 0.984 . S
H640 N628 0.984 . S
H641 N628 0.985 . S
C642 C643 1.363 . S
C642 C648 1.379 . S
C642 N650 1.356 . S
C643 C642 1.363 . S
C643 C649 1.363 . S
C644 C645 1.363 . S
C644 C649 1.379 . S
C644 N651 1.356 . S
C645 C644 1.363 . S
C645 C648 1.363 . S
N646 C648 1.356 . S
N646 H658 0.984 . S
N646 H659 0.985 . S
N647 C649 1.356 . S
N647 H652 0.984 . S
N647 H653 0.985 . S
C648 C642 1.379 . S
C648 C645 1.363 . S
C648 N646 1.356 . S
C649 C643 1.363 . S
C649 C644 1.379 . S
C649 N647 1.356 . S
N650 C642 1.356 . S
N650 H656 0.984 . S
N650 H657 0.984 . S
N651 C644 1.356 . S
N651 H654 0.984 . S
N651 H655 0.985 . S
H652 N647 0.984 . S
H653 N647 0.985 . S
H654 N651 0.984 . S
H655 N651 0.985 . S
H656 N650 0.984 . S
H657 N650 0.984 . S
H658 N646 0.984 . S
H659 N646 0.985 . S
C660 C661 1.363 . S
C660 C666 1.379 . S
C660 N668 1.356 1_556 S
C661 C660 1.363 . S
C661 C667 1.363 . S
C662 C663 1.363 . S
C662 C667 1.379 . S
C662 N669 1.356 . S
C663 C662 1.363 . S
C663 C666 1.363 . S
N664 C666 1.356 . S
N664 H676 0.984 1_556 S
N664 H677 0.985 . S
N665 C667 1.356 . S
N665 H670 0.984 . S
N665 H671 0.985 . S
C666 C660 1.379 . S
C666 C663 1.363 . S
C666 N664 1.356 . S
C667 C661 1.363 . S
C667 C662 1.379 . S
C667 N665 1.356 . S
N668 C660 1.356 1_554 S
N668 H674 0.984 . S
N668 H675 0.984 . S
N669 C662 1.356 . S
N669 H672 0.984 . S
N669 H673 0.985 . S
H670 N665 0.984 . S
H671 N665 0.985 . S
H672 N669 0.984 . S
H673 N669 0.985 . S
H674 N668 0.984 . S
H675 N668 0.984 . S
H676 N664 0.984 1_554 S
H677 N664 0.985 . S
C678 C679 1.363 . S
C678 C684 1.379 . S
C678 N686 1.356 . S
C679 C678 1.363 . S
C679 C685 1.363 . S
C680 C681 1.363 . S
C680 C685 1.379 . S
C680 N687 1.356 . S
C681 C680 1.363 . S
C681 C684 1.363 . S
N682 C684 1.356 . S
N682 H694 0.984 . S
N682 H695 0.985 . S
N683 C685 1.356 . S
N683 H688 0.984 . S
N683 H689 0.985 . S
C684 C678 1.379 . S
C684 C681 1.363 . S
C684 N682 1.356 . S
C685 C679 1.363 . S
C685 C680 1.379 . S
C685 N683 1.356 . S
N686 C678 1.356 . S
N686 H692 0.984 . S
N686 H693 0.984 . S
N687 C680 1.356 . S
N687 H690 0.984 . S
N687 H691 0.985 . S
H688 N683 0.984 . S
H689 N683 0.985 . S
H690 N687 0.984 . S
H691 N687 0.985 . S
H692 N686 0.984 . S
H693 N686 0.984 . S
H694 N682 0.984 . S
H695 N682 0.985 . S
C696 C697 1.363 . S
C696 C702 1.379 . S
C696 N704 1.356 . S
C697 C696 1.363 . S
C697 C703 1.363 . S
C698 C699 1.363 . S
C698 C703 1.379 . S
C698 N705 1.356 . S
C699 C698 1.363 . S
C699 C702 1.363 . S
N700 C702 1.356 . S
N700 H712 0.984 . S
N700 H713 0.985 . S
N701 C703 1.356 . S
N701 H706 0.984 . S
N701 H707 0.985 . S
C702 C696 1.379 . S
C702 C699 1.363 . S
C702 N700 1.356 . S
C703 C697 1.363 . S
C703 C698 1.379 . S
C703 N701 1.356 . S
N704 C696 1.356 . S
N704 H710 0.984 . S
N704 H711 0.984 . S
N705 C698 1.356 . S
N705 H708 0.984 . S
N705 H709 0.985 . S
H706 N701 0.984 . S
H707 N701 0.985 . S
H708 N705 0.984 . S
H709 N705 0.985 . S
H710 N704 0.984 . S
H711 N704 0.984 . S
H712 N700 0.984 . S
H713 N700 0.985 . S
C714 C715 1.363 . S
C714 C720 1.379 . S
C714 N722 1.356 . S
C715 C714 1.363 . S
C715 C721 1.363 . S
C716 C717 1.363 . S
C716 C721 1.379 . S
C716 N723 1.356 . S
C717 C716 1.363 . S
C717 C720 1.363 . S
N718 C720 1.356 . S
N718 H730 0.984 . S
N718 H731 0.985 . S
N719 C721 1.356 . S
N719 H724 0.984 . S
N719 H725 0.985 . S
C720 C714 1.379 . S
C720 C717 1.363 . S
C720 N718 1.356 . S
C721 C715 1.363 . S
C721 C716 1.379 . S
C721 N719 1.356 . S
N722 C714 1.356 . S
N722 H728 0.984 . S
N722 H729 0.984 . S
N723 C716 1.356 . S
N723 H726 0.984 . S
N723 H727 0.985 . S
H724 N719 0.984 . S
H725 N719 0.985 . S
H726 N723 0.984 . S
H727 N723 0.985 . S
H728 N722 0.984 . S
H729 N722 0.984 . S
H730 N718 0.984 . S
H731 N718 0.985 . S
C732 C733 1.363 . S
C732 C738 1.379 . S
C732 N740 1.356 . S
C733 C732 1.363 . S
C733 C739 1.363 . S
C734 C735 1.363 . S
C734 C739 1.379 . S
C734 N741 1.356 . S
C735 C734 1.363 . S
C735 C738 1.363 . S
N736 C738 1.356 . S
N736 H748 0.984 1_554 S
N736 H749 0.982 1_554 S
N737 C739 1.356 . S
N737 H742 0.984 . S
N737 H743 0.985 . S
C738 C732 1.379 . S
C738 C735 1.363 . S
C738 N736 1.356 . S
C739 C733 1.363 . S
C739 C734 1.379 . S
C739 N737 1.356 . S
N740 C732 1.356 . S
N740 H746 0.984 . S
N740 H747 0.984 . S
N741 C734 1.356 . S
N741 H744 0.984 . S
N741 H745 0.985 . S
H742 N737 0.984 . S
H743 N737 0.985 . S
H744 N741 0.984 . S
H745 N741 0.985 . S
H746 N740 0.984 . S
H747 N740 0.984 . S
H748 N736 0.984 1_556 S
H749 N736 0.982 1_556 S
C750 C751 1.363 . S
C750 C756 1.379 . S
C750 N758 1.356 . S
C751 C750 1.363 . S
C751 C757 1.363 . S
C752 C753 1.363 . S
C752 C757 1.379 . S
C752 N759 1.356 1_565 S
C753 C752 1.363 . S
C753 C756 1.363 . S
N754 C756 1.356 . S
N754 H766 0.984 . S
N754 H767 0.985 . S
N755 C757 1.356 . S
N755 H760 0.984 . S
N755 H761 0.985 1_565 S
C756 C750 1.379 . S
C756 C753 1.363 . S
C756 N754 1.356 . S
C757 C751 1.363 . S
C757 C752 1.379 . S
C757 N755 1.356 . S
N758 C750 1.356 . S
N758 H764 0.984 . S
N758 H765 0.984 . S
N759 C752 1.356 1_545 S
N759 H762 0.984 . S
N759 H763 0.985 . S
H760 N755 0.984 . S
H761 N755 0.985 1_545 S
H762 N759 0.984 . S
H763 N759 0.985 . S
H764 N758 0.984 . S
H765 N758 0.984 . S
H766 N754 0.984 . S
H767 N754 0.985 . S
C768 C769 1.363 . S
C768 C774 1.379 . S
C768 N776 1.356 . S
C769 C768 1.363 . S
C769 C775 1.363 . S
C770 C771 1.363 . S
C770 C775 1.379 . S
C770 N777 1.356 . S
C771 C770 1.363 . S
C771 C774 1.363 . S
N772 C774 1.356 . S
N772 H784 0.984 . S
N772 H785 0.985 . S
N773 C775 1.356 . S
N773 H778 0.984 . S
N773 H779 0.985 . S
C774 C768 1.379 . S
C774 C771 1.363 . S
C774 N772 1.356 . S
C775 C769 1.363 . S
C775 C770 1.379 . S
C775 N773 1.356 . S
N776 C768 1.356 . S
N776 H782 0.984 . S
N776 H783 0.984 . S
N777 C770 1.356 . S
N777 H780 0.984 . S
N777 H781 0.985 . S
H778 N773 0.984 . S
H779 N773 0.985 . S
H780 N777 0.984 . S
H781 N777 0.985 . S
H782 N776 0.984 . S
H783 N776 0.984 . S
H784 N772 0.984 . S
H785 N772 0.985 . S
C786 C787 1.363 . S
C786 C792 1.379 . S
C786 N794 1.356 . S
C787 C786 1.363 . S
C787 C793 1.363 . S
C788 C789 1.363 . S
C788 C793 1.379 . S
C788 N795 1.356 1_545 S
C789 C788 1.363 . S
C789 C792 1.363 . S
N790 C792 1.356 . S
N790 H802 0.984 . S
N790 H803 0.985 . S
N791 C793 1.356 . S
N791 H796 0.984 . S
N791 H797 0.985 1_545 S
C792 C786 1.379 . S
C792 C789 1.363 . S
C792 N790 1.356 . S
C793 C787 1.363 . S
C793 C788 1.379 . S
C793 N791 1.356 . S
N794 C786 1.356 . S
N794 H800 0.984 . S
N794 H801 0.984 . S
N795 C788 1.356 1_565 S
N795 H798 0.984 . S
N795 H799 0.985 . S
H796 N791 0.984 . S
H797 N791 0.985 1_565 S
H798 N795 0.984 . S
H799 N795 0.985 . S
H800 N794 0.984 . S
H801 N794 0.984 . S
H802 N790 0.984 . S
H803 N790 0.985 . S
C804 C805 1.363 . S
C804 C810 1.379 . S
C804 N812 1.356 . S
C805 C804 1.363 . S
C805 C811 1.363 . S
C806 C807 1.363 . S
C806 C811 1.379 . S
C806 N813 1.356 . S
C807 C806 1.363 . S
C807 C810 1.363 . S
N808 C810 1.356 . S
N808 H820 0.984 . S
N808 H821 0.985 . S
N809 C811 1.356 . S
N809 H814 0.984 . S
N809 H815 0.985 . S
C810 C804 1.379 . S
C810 C807 1.363 . S
C810 N808 1.356 . S
C811 C805 1.363 . S
C811 C806 1.379 . S
C811 N809 1.356 . S
N812 C804 1.356 . S
N812 H818 0.984 . S
N812 H819 0.984 . S
N813 C806 1.356 . S
N813 H816 0.984 . S
N813 H817 0.985 . S
H814 N809 0.984 . S
H815 N809 0.985 . S
H816 N813 0.984 . S
H817 N813 0.985 . S
H818 N812 0.984 . S
H819 N812 0.984 . S
H820 N808 0.984 . S
H821 N808 0.985 . S
C822 C823 1.363 . S
C822 C828 1.379 . S
C822 N830 1.356 . S
C823 C822 1.363 . S
C823 C829 1.363 . S
C824 C825 1.363 . S
C824 C829 1.379 . S
C824 N831 1.356 . S
C825 C824 1.363 . S
C825 C828 1.363 . S
N826 C828 1.356 1_554 S
N826 H838 0.984 . S
N826 H839 0.985 . S
N827 C829 1.356 . S
N827 H832 0.984 . S
N827 H833 0.985 . S
C828 C822 1.379 . S
C828 C825 1.363 . S
C828 N826 1.356 1_556 S
C829 C823 1.363 . S
C829 C824 1.379 . S
C829 N827 1.356 . S
N830 C822 1.356 . S
N830 H836 0.984 . S
N830 H837 0.984 . S
N831 C824 1.356 . S
N831 H834 0.984 . S
N831 H835 0.985 . S
H832 N827 0.984 . S
H833 N827 0.985 . S
H834 N831 0.984 . S
H835 N831 0.985 . S
H836 N830 0.984 . S
H837 N830 0.984 . S
H838 N826 0.984 . S
H839 N826 0.985 . S
C840 C841 1.363 . S
C840 C846 1.379 . S
C840 N848 1.356 . S
C841 C840 1.363 . S
C841 C847 1.363 . S
C842 C843 1.363 . S
C842 C847 1.379 . S
C842 N849 1.356 . S
C843 C842 1.363 . S
C843 C846 1.363 . S
N844 C846 1.356 . S
N844 H856 0.984 . S
N844 H857 0.985 . S
N845 C847 1.356 . S
N845 H850 0.984 . S
N845 H851 0.985 . S
C846 C840 1.379 . S
C846 C843 1.363 . S
C846 N844 1.356 . S
C847 C841 1.363 . S
C847 C842 1.379 . S
C847 N845 1.356 . S
N848 C840 1.356 . S
N848 H854 0.984 . S
N848 H855 0.984 . S
N849 C842 1.356 . S
N849 H852 0.984 . S
N849 H853 0.985 . S
H850 N845 0.984 . S
H851 N845 0.985 . S
H852 N849 0.984 . S
H853 N849 0.985 . S
H854 N848 0.984 . S
H855 N848 0.984 . S
H856 N844 0.984 . S
H857 N844 0.985 . S
C858 C859 1.363 . S
C858 C864 1.379 . S
C858 N866 1.356 . S
C859 C858 1.363 . S
C859 C865 1.363 . S
C860 C861 1.363 . S
C860 C865 1.379 . S
C860 N867 1.356 . S
C861 C860 1.363 . S
C861 C864 1.363 . S
N862 C864 1.356 . S
N862 H874 0.984 . S
N862 H875 0.985 . S
N863 C865 1.356 . S
N863 H868 0.984 . S
N863 H869 0.985 . S
C864 C858 1.379 . S
C864 C861 1.363 . S
C864 N862 1.356 . S
C865 C859 1.363 . S
C865 C860 1.379 . S
C865 N863 1.356 . S
N866 C858 1.356 . S
N866 H872 0.984 . S
N866 H873 0.984 . S
N867 C860 1.356 . S
N867 H870 0.984 . S
N867 H871 0.985 . S
H868 N863 0.984 . S
H869 N863 0.985 . S
H870 N867 0.984 . S
H871 N867 0.985 . S
H872 N866 0.984 . S
H873 N866 0.984 . S
H874 N862 0.984 . S
H875 N862 0.985 . S
C876 C877 1.363 . S
C876 C882 1.379 . S
C876 N884 1.356 . S
C877 C876 1.363 . S
C877 C883 1.363 . S
C878 C879 1.363 . S
C878 C883 1.379 . S
C878 N885 1.356 . S
C879 C878 1.363 . S
C879 C882 1.363 . S
N880 C882 1.356 . S
N880 H892 0.984 . S
N880 H893 0.985 . S
N881 C883 1.356 . S
N881 H886 0.984 . S
N881 H887 0.985 . S
C882 C876 1.379 . S
C882 C879 1.363 . S
C882 N880 1.356 . S
C883 C877 1.363 . S
C883 C878 1.379 . S
C883 N881 1.356 . S
N884 C876 1.356 . S
N884 H890 0.984 . S
N884 H891 0.984 . S
N885 C878 1.356 . S
N885 H888 0.984 . S
N885 H889 0.985 . S
H886 N881 0.984 . S
H887 N881 0.985 . S
H888 N885 0.984 . S
H889 N885 0.985 . S
H890 N884 0.984 . S
H891 N884 0.984 . S
H892 N880 0.984 . S
H893 N880 0.985 . S
C894 C895 1.363 . S
C894 C900 1.379 . S
C894 N902 1.356 . S
C895 C894 1.363 . S
C895 C901 1.363 . S
C896 C897 1.363 . S
C896 C901 1.379 . S
C896 N903 1.356 . S
C897 C896 1.363 . S
C897 C900 1.363 . S
N898 C900 1.356 . S
N898 H910 0.984 . S
N898 H911 0.985 . S
N899 C901 1.356 . S
N899 H904 0.984 . S
N899 H905 0.985 . S
C900 C894 1.379 . S
C900 C897 1.363 . S
C900 N898 1.356 . S
C901 C895 1.363 . S
C901 C896 1.379 . S
C901 N899 1.356 . S
N902 C894 1.356 . S
N902 H908 0.984 1_655 S
N902 H909 0.984 1_655 S
N903 C896 1.356 . S
N903 H906 0.984 . S
N903 H907 0.985 . S
H904 N899 0.984 . S
H905 N899 0.985 . S
H906 N903 0.984 . S
H907 N903 0.985 . S
H908 N902 0.984 1_455 S
H909 N902 0.984 1_455 S
H910 N898 0.984 . S
H911 N898 0.985 . S
C912 C913 1.363 . S
C912 C918 1.379 . S
C912 N920 1.356 . S
C913 C912 1.363 . S
C913 C919 1.363 . S
C914 C915 1.363 . S
C914 C919 1.379 . S
C914 N921 1.356 . S
C915 C914 1.363 . S
C915 C918 1.363 . S
N916 C918 1.356 . S
N916 H928 0.984 . S
N916 H929 0.985 . S
N917 C919 1.356 . S
N917 H922 0.984 . S
N917 H923 0.985 . S
C918 C912 1.379 . S
C918 C915 1.363 . S
C918 N916 1.356 . S
C919 C913 1.363 . S
C919 C914 1.379 . S
C919 N917 1.356 . S
N920 C912 1.356 . S
N920 H926 0.984 . S
N920 H927 0.984 . S
N921 C914 1.356 . S
N921 H924 0.984 . S
N921 H925 0.985 . S
H922 N917 0.984 . S
H923 N917 0.985 . S
H924 N921 0.984 . S
H925 N921 0.985 . S
H926 N920 0.984 . S
H927 N920 0.984 . S
H928 N916 0.984 . S
H929 N916 0.985 . S
C930 C931 1.363 . S
C930 C936 1.379 . S
C930 N938 1.356 . S
C931 C930 1.363 . S
C931 C937 1.363 . S
C932 C933 1.363 . S
C932 C937 1.379 . S
C932 N939 1.356 . S
C933 C932 1.363 . S
C933 C936 1.363 . S
N934 C936 1.356 . S
N934 H946 0.984 . S
N934 H947 0.985 . S
N935 C937 1.356 . S
N935 H940 0.984 . S
N935 H941 0.985 . S
C936 C930 1.379 . S
C936 C933 1.363 . S
C936 N934 1.356 . S
C937 C931 1.363 . S
C937 C932 1.379 . S
C937 N935 1.356 . S
N938 C930 1.356 . S
N938 H944 0.984 . S
N938 H945 0.984 . S
N939 C932 1.356 . S
N939 H942 0.984 . S
N939 H943 0.985 . S
H940 N935 0.984 . S
H941 N935 0.985 . S
H942 N939 0.984 . S
H943 N939 0.985 . S
H944 N938 0.984 . S
H945 N938 0.984 . S
H946 N934 0.984 . S
H947 N934 0.985 . S
C948 C949 1.363 . S
C948 C954 1.379 . S
C948 N956 1.356 . S
C949 C948 1.363 . S
C949 C955 1.363 . S
C950 C951 1.363 . S
C950 C955 1.379 . S
C950 N957 1.356 . S
C951 C950 1.363 . S
C951 C954 1.363 . S
N952 C954 1.356 . S
N952 H964 0.984 . S
N952 H965 0.985 . S
N953 C955 1.356 . S
N953 H958 0.984 . S
N953 H959 0.985 . S
C954 C948 1.379 . S
C954 C951 1.363 . S
C954 N952 1.356 . S
C955 C949 1.363 . S
C955 C950 1.379 . S
C955 N953 1.356 . S
N956 C948 1.356 . S
N956 H962 0.984 . S
N956 H963 0.984 . S
N957 C950 1.356 . S
N957 H960 0.984 . S
N957 H961 0.985 . S
H958 N953 0.984 . S
H959 N953 0.985 . S
H960 N957 0.984 . S
H961 N957 0.985 . S
H962 N956 0.984 . S
H963 N956 0.984 . S
H964 N952 0.984 . S
H965 N952 0.985 . S
C966 C967 1.363 . S
C966 C972 1.379 . S
C966 N974 1.356 . S
C967 C966 1.363 . S
C967 C973 1.363 . S
C968 C969 1.363 . S
C968 C973 1.379 . S
C968 N975 1.356 . S
C969 C968 1.363 . S
C969 C972 1.363 . S
N970 C972 1.356 . S
N970 H982 0.984 . S
N970 H983 0.985 . S
N971 C973 1.356 . S
N971 H976 0.984 . S
N971 H977 0.985 . S
C972 C966 1.379 . S
C972 C969 1.363 . S
C972 N970 1.356 . S
C973 C967 1.363 . S
C973 C968 1.379 . S
C973 N971 1.356 . S
N974 C966 1.356 . S
N974 H980 0.984 . S
N974 H981 0.984 . S
N975 C968 1.356 . S
N975 H978 0.984 . S
N975 H979 0.985 . S
H976 N971 0.984 . S
H977 N971 0.985 . S
H978 N975 0.984 . S
H979 N975 0.985 . S
H980 N974 0.984 . S
H981 N974 0.984 . S
H982 N970 0.984 . S
H983 N970 0.985 . S
C984 C985 1.363 . S
C984 C990 1.379 . S
C984 N992 1.356 . S
C985 C984 1.363 . S
C985 C991 1.363 . S
C986 C987 1.363 . S
C986 C991 1.379 . S
C986 N993 1.356 . S
C987 C986 1.363 . S
C987 C990 1.363 . S
N988 C990 1.356 . S
N988 H1000 0.984 . S
N988 H1001 0.985 . S
N989 C991 1.356 . S
N989 H994 0.984 . S
N989 H995 0.985 . S
C990 C984 1.379 . S
C990 C987 1.363 . S
C990 N988 1.356 . S
C991 C985 1.363 . S
C991 C986 1.379 . S
C991 N989 1.356 . S
N992 C984 1.356 . S
N992 H998 0.984 . S
N992 H999 0.984 . S
N993 C986 1.356 . S
N993 H996 0.984 . S
N993 H997 0.985 . S
H994 N989 0.984 . S
H995 N989 0.985 . S
H996 N993 0.984 . S
H997 N993 0.985 . S
H998 N992 0.984 . S
H999 N992 0.984 . S
H1000 N988 0.984 . S
H1001 N988 0.985 . S
C1002 C1003 1.363 . S
C1002 C1008 1.379 . S
C1002 N1010 1.356 . S
C1003 C1002 1.363 . S
C1003 C1009 1.363 . S
C1004 C1005 1.363 . S
C1004 C1009 1.379 . S
C1004 N1011 1.356 . S
C1005 C1004 1.363 . S
C1005 C1008 1.363 . S
N1006 C1008 1.356 . S
N1006 H1018 0.984 . S
N1006 H1019 0.985 . S
N1007 C1009 1.356 . S
N1007 H1012 0.984 . S
N1007 H1013 0.985 . S
C1008 C1002 1.379 . S
C1008 C1005 1.363 . S
C1008 N1006 1.356 . S
C1009 C1003 1.363 . S
C1009 C1004 1.379 . S
C1009 N1007 1.356 . S
N1010 C1002 1.356 . S
N1010 H1016 0.984 . S
N1010 H1017 0.984 . S
N1011 C1004 1.356 . S
N1011 H1014 0.984 . S
N1011 H1015 0.985 . S
H1012 N1007 0.984 . S
H1013 N1007 0.985 . S
H1014 N1011 0.984 . S
H1015 N1011 0.985 . S
H1016 N1010 0.984 . S
H1017 N1010 0.984 . S
H1018 N1006 0.984 . S
H1019 N1006 0.985 . S
C1020 C1021 1.363 . S
C1020 C1026 1.379 . S
C1020 N1028 1.356 . S
C1021 C1020 1.363 . S
C1021 C1027 1.363 . S
C1022 C1023 1.363 . S
C1022 C1027 1.379 . S
C1022 N1029 1.356 . S
C1023 C1022 1.363 . S
C1023 C1026 1.363 . S
N1024 C1026 1.356 . S
N1024 H1036 0.984 . S
N1024 H1037 0.985 . S
N1025 C1027 1.356 . S
N1025 H1030 0.984 . S
N1025 H1031 0.985 . S
C1026 C1020 1.379 . S
C1026 C1023 1.363 . S
C1026 N1024 1.356 . S
C1027 C1021 1.363 . S
C1027 C1022 1.379 . S
C1027 N1025 1.356 . S
N1028 C1020 1.356 . S
N1028 H1034 0.984 . S
N1028 H1035 0.984 . S
N1029 C1022 1.356 . S
N1029 H1032 0.984 . S
N1029 H1033 0.985 . S
H1030 N1025 0.984 . S
H1031 N1025 0.985 . S
H1032 N1029 0.984 . S
H1033 N1029 0.985 . S
H1034 N1028 0.984 . S
H1035 N1028 0.984 . S
H1036 N1024 0.984 . S
H1037 N1024 0.985 . S
C1038 C1039 1.363 . S
C1038 C1044 1.379 . S
C1038 N1046 1.356 . S
C1039 C1038 1.363 . S
C1039 C1045 1.363 . S
C1040 C1041 1.363 . S
C1040 C1045 1.379 . S
C1040 N1047 1.356 . S
C1041 C1040 1.363 . S
C1041 C1044 1.363 . S
N1042 C1044 1.356 . S
N1042 H1054 0.984 . S
N1042 H1055 0.985 . S
N1043 C1045 1.356 . S
N1043 H1048 0.984 . S
N1043 H1049 0.985 . S
C1044 C1038 1.379 . S
C1044 C1041 1.363 . S
C1044 N1042 1.356 . S
C1045 C1039 1.363 . S
C1045 C1040 1.379 . S
C1045 N1043 1.356 . S
N1046 C1038 1.356 . S
N1046 H1052 0.984 . S
N1046 H1053 0.984 . S
N1047 C1040 1.356 . S
N1047 H1050 0.984 . S
N1047 H1051 0.985 . S
H1048 N1043 0.984 . S
H1049 N1043 0.985 . S
H1050 N1047 0.984 . S
H1051 N1047 0.985 . S
H1052 N1046 0.984 . S
H1053 N1046 0.984 . S
H1054 N1042 0.984 . S
H1055 N1042 0.985 . S
C1056 C1057 1.363 . S
C1056 C1062 1.379 . S
C1056 N1064 1.356 . S
C1057 C1056 1.363 . S
C1057 C1063 1.363 . S
C1058 C1059 1.363 . S
C1058 C1063 1.379 . S
C1058 N1065 1.356 . S
C1059 C1058 1.363 . S
C1059 C1062 1.363 . S
N1060 C1062 1.356 . S
N1060 H1072 0.984 . S
N1060 H1073 0.985 . S
N1061 C1063 1.356 . S
N1061 H1066 0.984 . S
N1061 H1067 0.985 1_455 S
C1062 C1056 1.379 . S
C1062 C1059 1.363 . S
C1062 N1060 1.356 . S
C1063 C1057 1.363 . S
C1063 C1058 1.379 . S
C1063 N1061 1.356 . S
N1064 C1056 1.356 . S
N1064 H1070 0.984 . S
N1064 H1071 0.984 . S
N1065 C1058 1.356 . S
N1065 H1068 0.984 . S
N1065 H1069 0.985 . S
H1066 N1061 0.984 . S
H1067 N1061 0.985 1_655 S
H1068 N1065 0.984 . S
H1069 N1065 0.985 . S
H1070 N1064 0.984 . S
H1071 N1064 0.984 . S
H1072 N1060 0.984 . S
H1073 N1060 0.985 . S
C1074 C1075 1.363 . S
C1074 C1080 1.379 . S
C1074 N1082 1.356 . S
C1075 C1074 1.363 . S
C1075 C1081 1.363 . S
C1076 C1077 1.363 . S
C1076 C1081 1.379 . S
C1076 N1083 1.356 . S
C1077 C1076 1.363 . S
C1077 C1080 1.363 . S
N1078 C1080 1.356 . S
N1078 H1090 0.984 . S
N1078 H1091 0.985 . S
N1079 C1081 1.356 . S
N1079 H1084 0.984 . S
N1079 H1085 0.985 . S
C1080 C1074 1.379 . S
C1080 C1077 1.363 . S
C1080 N1078 1.356 . S
C1081 C1075 1.363 . S
C1081 C1076 1.379 . S
C1081 N1079 1.356 . S
N1082 C1074 1.356 . S
N1082 H1088 0.984 . S
N1082 H1089 0.984 . S
N1083 C1076 1.356 . S
N1083 H1086 0.984 . S
N1083 H1087 0.985 . S
H1084 N1079 0.984 . S
H1085 N1079 0.985 . S
H1086 N1083 0.984 . S
H1087 N1083 0.985 . S
H1088 N1082 0.984 . S
H1089 N1082 0.984 . S
H1090 N1078 0.984 . S
H1091 N1078 0.985 . S
C1092 C1093 1.363 . S
C1092 C1098 1.379 . S
C1092 N1100 1.356 . S
C1093 C1092 1.363 . S
C1093 C1099 1.363 . S
C1094 C1095 1.363 . S
C1094 C1099 1.379 . S
C1094 N1101 1.356 . S
C1095 C1094 1.363 . S
C1095 C1098 1.363 . S
N1096 C1098 1.356 . S
N1096 H1108 0.984 . S
N1096 H1109 0.985 . S
N1097 C1099 1.356 . S
N1097 H1102 0.984 . S
N1097 H1103 0.985 . S
C1098 C1092 1.379 . S
C1098 C1095 1.363 . S
C1098 N1096 1.356 . S
C1099 C1093 1.363 . S
C1099 C1094 1.379 . S
C1099 N1097 1.356 . S
N1100 C1092 1.356 . S
N1100 H1106 0.984 1_554 S
N1100 H1107 0.984 . S
N1101 C1094 1.356 . S
N1101 H1104 0.984 . S
N1101 H1105 0.985 . S
H1102 N1097 0.984 . S
H1103 N1097 0.985 . S
H1104 N1101 0.984 . S
H1105 N1101 0.985 . S
H1106 N1100 0.984 1_556 S
H1107 N1100 0.984 . S
H1108 N1096 0.984 . S
H1109 N1096 0.985 . S
C1110 C1111 1.363 . S
C1110 C1116 1.379 . S
C1110 N1118 1.356 . S
C1111 C1110 1.363 . S
C1111 C1117 1.363 . S
C1112 C1113 1.363 . S
C1112 C1117 1.379 . S
C1112 N1119 1.356 . S
C1113 C1112 1.363 . S
C1113 C1116 1.363 . S
N1114 C1116 1.356 . S
N1114 H1126 0.984 . S
N1114 H1127 0.985 . S
N1115 C1117 1.356 . S
N1115 H1120 0.984 . S
N1115 H1121 0.985 . S
C1116 C1110 1.379 . S
C1116 C1113 1.363 . S
C1116 N1114 1.356 . S
C1117 C1111 1.363 . S
C1117 C1112 1.379 . S
C1117 N1115 1.356 . S
N1118 C1110 1.356 . S
N1118 H1124 0.984 . S
N1118 H1125 0.984 . S
N1119 C1112 1.356 . S
N1119 H1122 0.984 . S
N1119 H1123 0.985 . S
H1120 N1115 0.984 . S
H1121 N1115 0.985 . S
H1122 N1119 0.984 . S
H1123 N1119 0.985 . S
H1124 N1118 0.984 . S
H1125 N1118 0.984 . S
H1126 N1114 0.984 . S
H1127 N1114 0.985 . S
C1128 C1129 1.363 . S
C1128 C1134 1.379 . S
C1128 N1136 1.356 . S
C1129 C1128 1.363 . S
C1129 C1135 1.363 . S
C1130 C1131 1.363 . S
C1130 C1135 1.379 . S
C1130 N1137 1.356 . S
C1131 C1130 1.363 . S
C1131 C1134 1.363 . S
N1132 C1134 1.356 . S
N1132 H1144 0.984 . S
N1132 H1145 0.985 . S
N1133 C1135 1.356 . S
N1133 H1138 0.984 . S
N1133 H1139 0.985 . S
C1134 C1128 1.379 . S
C1134 C1131 1.363 . S
C1134 N1132 1.356 . S
C1135 C1129 1.363 . S
C1135 C1130 1.379 . S
C1135 N1133 1.356 . S
N1136 C1128 1.356 . S
N1136 H1142 0.984 . S
N1136 H1143 0.984 . S
N1137 C1130 1.356 . S
N1137 H1140 0.984 . S
N1137 H1141 0.985 . S
H1138 N1133 0.984 . S
H1139 N1133 0.985 . S
H1140 N1137 0.984 . S
H1141 N1137 0.985 . S
H1142 N1136 0.984 . S
H1143 N1136 0.984 . S
H1144 N1132 0.984 . S
H1145 N1132 0.985 . S
C1146 C1147 1.363 . S
C1146 C1152 1.379 . S
C1146 N1154 1.356 . S
C1147 C1146 1.363 . S
C1147 C1153 1.363 . S
C1148 C1149 1.363 . S
C1148 C1153 1.379 . S
C1148 N1155 1.356 . S
C1149 C1148 1.363 . S
C1149 C1152 1.363 . S
N1150 C1152 1.356 . S
N1150 H1162 0.984 . S
N1150 H1163 0.985 . S
N1151 C1153 1.356 . S
N1151 H1156 0.984 . S
N1151 H1157 0.985 . S
C1152 C1146 1.379 . S
C1152 C1149 1.363 . S
C1152 N1150 1.356 . S
C1153 C1147 1.363 . S
C1153 C1148 1.379 . S
C1153 N1151 1.356 . S
N1154 C1146 1.356 . S
N1154 H1160 0.984 . S
N1154 H1161 0.984 . S
N1155 C1148 1.356 . S
N1155 H1158 0.984 . S
N1155 H1159 0.985 . S
H1156 N1151 0.984 . S
H1157 N1151 0.985 . S
H1158 N1155 0.984 . S
H1159 N1155 0.985 . S
H1160 N1154 0.984 . S
H1161 N1154 0.984 . S
H1162 N1150 0.984 . S
H1163 N1150 0.985 . S
C1164 C1165 1.363 . S
C1164 C1170 1.379 . S
C1164 N1172 1.356 . S
C1165 C1164 1.363 . S
C1165 C1171 1.363 . S
C1166 C1167 1.363 . S
C1166 C1171 1.379 . S
C1166 N1173 1.356 . S
C1167 C1166 1.363 . S
C1167 C1170 1.363 . S
N1168 C1170 1.356 . S
N1168 H1180 0.984 . S
N1168 H1181 0.985 . S
N1169 C1171 1.356 . S
N1169 H1174 0.984 . S
N1169 H1175 0.985 . S
C1170 C1164 1.379 . S
C1170 C1167 1.363 . S
C1170 N1168 1.356 . S
C1171 C1165 1.363 . S
C1171 C1166 1.379 . S
C1171 N1169 1.356 . S
N1172 C1164 1.356 . S
N1172 H1178 0.984 . S
N1172 H1179 0.984 . S
N1173 C1166 1.356 . S
N1173 H1176 0.984 . S
N1173 H1177 0.985 . S
H1174 N1169 0.984 . S
H1175 N1169 0.985 . S
H1176 N1173 0.984 . S
H1177 N1173 0.985 . S
H1178 N1172 0.984 . S
H1179 N1172 0.984 . S
H1180 N1168 0.984 . S
H1181 N1168 0.985 . S
C1182 C1183 1.363 . S
C1182 C1188 1.379 . S
C1182 N1190 1.356 . S
C1183 C1182 1.363 . S
C1183 C1189 1.363 . S
C1184 C1185 1.363 . S
C1184 C1189 1.379 . S
C1184 N1191 1.356 . S
C1185 C1184 1.363 . S
C1185 C1188 1.363 . S
N1186 C1188 1.356 . S
N1186 H1198 0.984 . S
N1186 H1199 0.985 . S
N1187 C1189 1.356 . S
N1187 H1192 0.984 . S
N1187 H1193 0.985 . S
C1188 C1182 1.379 . S
C1188 C1185 1.363 . S
C1188 N1186 1.356 . S
C1189 C1183 1.363 . S
C1189 C1184 1.379 . S
C1189 N1187 1.356 . S
N1190 C1182 1.356 . S
N1190 H1196 0.984 . S
N1190 H1197 0.984 . S
N1191 C1184 1.356 . S
N1191 H1194 0.984 . S
N1191 H1195 0.985 . S
H1192 N1187 0.984 . S
H1193 N1187 0.985 . S
H1194 N1191 0.984 . S
H1195 N1191 0.985 . S
H1196 N1190 0.984 . S
H1197 N1190 0.984 . S
H1198 N1186 0.984 . S
H1199 N1186 0.985 . S
C337 C205 1.520 . S
C339 C3 1.525 . S
C355 C23 1.496 . S
C357 C218 1.507 . S
C373 C259 1.500 . S
C375 C35 1.512 . S
C391 C50 1.510 . S
C393 C190 1.509 . S
C409 C204 1.553 . S
C411 C63 1.538 . S
C427 C79 1.510 . S
C429 C219 1.509 . S
C445 C87 1.524 . S
C447 C255 1.527 . S
C463 C106 1.506 . S
C465 C191 1.496 . S
C481 C129 1.527 . S
C483 C115 1.531 . S
C499 C149 1.566 . S
C501 C133 1.555 . S
C517 C148 1.511 . S
C519 C157 1.507 . S
C535 C161 1.508 . S
C537 C119 1.497 . S
C553 C176 1.507 . S
C555 C51 1.496 . S
C571 C59 1.524 . S
C573 C227 1.527 . S
C589 C246 1.509 . S
C591 C22 1.510 . S
C607 C21 1.460 . S
C609 C303 1.470 . S
C625 C134 1.446 . S
C627 C9 1.436 . S
C643 C329 1.449 . S
C645 C45 1.463 . S
C661 C162 1.436 . S
C663 C36 1.436 . S
C679 C302 1.478 . S
C681 C101 1.472 . S
C697 C135 1.451 . S
C699 C93 1.450 . S
C715 C77 1.440 . S
C717 C325 1.462 . S
C733 C64 1.438 . S
C735 C163 1.427 . S
C751 C217 1.446 . S
C753 C273 1.446 . S
C769 C232 1.477 . S
C771 C213 1.471 . S
C787 C189 1.462 . S
C789 C233 1.472 . S
C805 C269 1.463 . S
C807 C185 1.457 . S
C823 C37 1.436 . S
C825 C288 1.446 . S
C841 C143 1.462 . S
C843 C105 1.441 . S
C859 C8 1.436 . S
C861 C316 1.436 . S
C877 C275 1.520 . S
C879 C31 1.525 . S
C895 C7 1.512 . S
C897 C231 1.500 . S
C913 C274 1.553 . S
C915 C91 1.538 . S
C931 C177 1.509 . S
C933 C107 1.510 . S
C949 C78 1.506 . S
C951 C247 1.496 . S
C967 C297 1.531 . S
C969 C283 1.527 . S
C985 C331 1.566 . S
C987 C287 1.555 . S
C1003 C311 1.507 . S
C1005 C330 1.511 . S
C1021 C301 1.497 . S
C1023 C315 1.508 . S
C1039 C121 1.470 . S
C1041 C49 1.460 . S
C1057 C17 1.463 . S
C1059 C147 1.449 . S
C1075 C73 1.472 . S
C1077 C120 1.478 . S
C1093 C289 1.451 . S
C1095 C65 1.450 . S
C1111 C92 1.438 . S
C1113 C317 1.427 . S
C1129 C175 1.446 . S
C1131 C203 1.446 . S
C1147 C260 1.477 . S
C1149 C171 1.471 . S
C1165 C245 1.462 . S
C1167 C261 1.472 . S
C1183 C199 1.463 . S
C1185 C241 1.457 . S
