# Generated by pormake.
# Topology atn, (4)-cn, num edge types: 1
# Building blocks:
#     Node 0, Type 0, BuildingBlock: GALJAG_clean_sbu_0, # of connection points: 4
#     Node 1, Type 0, BuildingBlock: GALJAG_clean_sbu_0, # of connection points: 4
#     Node 2, Type 0, BuildingBlock: GALJAG_clean_sbu_0, # of connection points: 4
#     Node 3, Type 0, BuildingBlock: GALJAG_clean_sbu_0, # of connection points: 4
#     Node 4, Type 0, BuildingBlock: GALJAG_clean_sbu_0, # of connection points: 4
#     Node 5, Type 0, BuildingBlock: GALJAG_clean_sbu_0, # of connection points: 4
#     Node 6, Type 0, BuildingBlock: GALJAG_clean_sbu_0, # of connection points: 4
#     Node 7, Type 0, BuildingBlock: GALJAG_clean_sbu_0, # of connection points: 4
#     Node 8, Type 0, BuildingBlock: GALJAG_clean_sbu_0, # of connection points: 4
#     Node 9, Type 0, BuildingBlock: GALJAG_clean_sbu_0, # of connection points: 4
#     Node 10, Type 0, BuildingBlock: GALJAG_clean_sbu_0, # of connection points: 4
#     Node 11, Type 0, BuildingBlock: GALJAG_clean_sbu_0, # of connection points: 4
#     Node 12, Type 0, BuildingBlock: GALJAG_clean_sbu_0, # of connection points: 4
#     Node 13, Type 0, BuildingBlock: GALJAG_clean_sbu_0, # of connection points: 4
#     Node 14, Type 0, BuildingBlock: GALJAG_clean_sbu_0, # of connection points: 4
#     Node 15, Type 0, BuildingBlock: GALJAG_clean_sbu_0, # of connection points: 4
#     Edge 16, Type (0, 0), BuildingBlock: XIVTED_clean_linker_0, # of connection points: 2
#     Edge 17, Type (0, 0), BuildingBlock: XIVTED_clean_linker_0, # of connection points: 2
#     Edge 18, Type (0, 0), BuildingBlock: XIVTED_clean_linker_0, # of connection points: 2
#     Edge 19, Type (0, 0), BuildingBlock: XIVTED_clean_linker_0, # of connection points: 2
#     Edge 20, Type (0, 0), BuildingBlock: XIVTED_clean_linker_0, # of connection points: 2
#     Edge 21, Type (0, 0), BuildingBlock: XIVTED_clean_linker_0, # of connection points: 2
#     Edge 22, Type (0, 0), BuildingBlock: XIVTED_clean_linker_0, # of connection points: 2
#     Edge 23, Type (0, 0), BuildingBlock: XIVTED_clean_linker_0, # of connection points: 2
#     Edge 24, Type (0, 0), BuildingBlock: XIVTED_clean_linker_0, # of connection points: 2
#     Edge 25, Type (0, 0), BuildingBlock: XIVTED_clean_linker_0, # of connection points: 2
#     Edge 26, Type (0, 0), BuildingBlock: XIVTED_clean_linker_0, # of connection points: 2
#     Edge 27, Type (0, 0), BuildingBlock: XIVTED_clean_linker_0, # of connection points: 2
#     Edge 28, Type (0, 0), BuildingBlock: XIVTED_clean_linker_0, # of connection points: 2
#     Edge 29, Type (0, 0), BuildingBlock: XIVTED_clean_linker_0, # of connection points: 2
#     Edge 30, Type (0, 0), BuildingBlock: XIVTED_clean_linker_0, # of connection points: 2
#     Edge 31, Type (0, 0), BuildingBlock: XIVTED_clean_linker_0, # of connection points: 2
#     Edge 32, Type (0, 0), BuildingBlock: XIVTED_clean_linker_0, # of connection points: 2
#     Edge 33, Type (0, 0), BuildingBlock: XIVTED_clean_linker_0, # of connection points: 2
#     Edge 34, Type (0, 0), BuildingBlock: XIVTED_clean_linker_0, # of connection points: 2
#     Edge 35, Type (0, 0), BuildingBlock: XIVTED_clean_linker_0, # of connection points: 2
#     Edge 36, Type (0, 0), BuildingBlock: XIVTED_clean_linker_0, # of connection points: 2
#     Edge 37, Type (0, 0), BuildingBlock: XIVTED_clean_linker_0, # of connection points: 2
#     Edge 38, Type (0, 0), BuildingBlock: XIVTED_clean_linker_0, # of connection points: 2
#     Edge 39, Type (0, 0), BuildingBlock: XIVTED_clean_linker_0, # of connection points: 2
#     Edge 40, Type (0, 0), BuildingBlock: XIVTED_clean_linker_0, # of connection points: 2
#     Edge 41, Type (0, 0), BuildingBlock: XIVTED_clean_linker_0, # of connection points: 2
#     Edge 42, Type (0, 0), BuildingBlock: XIVTED_clean_linker_0, # of connection points: 2
#     Edge 43, Type (0, 0), BuildingBlock: XIVTED_clean_linker_0, # of connection points: 2
#     Edge 44, Type (0, 0), BuildingBlock: XIVTED_clean_linker_0, # of connection points: 2
#     Edge 45, Type (0, 0), BuildingBlock: XIVTED_clean_linker_0, # of connection points: 2
#     Edge 46, Type (0, 0), BuildingBlock: XIVTED_clean_linker_0, # of connection points: 2
#     Edge 47, Type (0, 0), BuildingBlock: XIVTED_clean_linker_0, # of connection points: 2
# Relax obj value: 0.083
# Max RMSD: 0.111
# Mean RMSD: 0.111
data_MOF--net-atn--node1-GALJAG_clean_sbu_0--edge1-XIVTED_clean_linker_0
_symmetry_space_group_name_H-M    P1
_symmetry_Int_Tables_number       1
_symmetry_cell_setting            triclinic
loop_
_symmetry_equiv_pos_as_xyz
'x, y, z'
_cell_length_a     59.146814
_cell_length_b     59.099705
_cell_length_c     28.680142
_cell_angle_alpha  90.13553
_cell_angle_beta   90.020334
_cell_angle_gamma 90.018208
loop_
_atom_site_label
_atom_site_type_symbol
_atom_site_fract_x
_atom_site_fract_y
_atom_site_fract_z
_atom_type_partial_charge
In0 In 0.17268 0.36117 0.02418 0.0
O1 O 0.14516 0.34828 0.07392 0.0
O2 O 0.16859 0.37277 0.09885 0.0
C3 C 0.15948 0.34606 0.93969 0.0
C4 C 0.177 0.4052 0.00461 0.0
C5 C 0.20749 0.33361 0.04173 0.0
O6 O 0.14539 0.35355 0.96902 0.0
O7 O 0.17967 0.34579 0.9535 0.0
O8 O 0.21021 0.35418 0.03106 0.0
O9 O 0.18716 0.32715 0.04438 0.0
C10 C 0.15189 0.3603 0.10774 0.0
O11 O 0.19362 0.39324 0.01707 0.0
O12 O 0.15836 0.3949 0.00211 0.0
In13 In 0.61696 0.18043 0.00489 0.0
O14 O 0.62613 0.1515 0.0545 0.0
O15 O 0.60471 0.17778 0.07937 0.0
C16 C 0.63077 0.16611 0.92054 0.0
C17 C 0.57369 0.18771 0.98253 0.0
C18 C 0.64816 0.21195 0.0234 0.0
O19 O 0.62393 0.15239 0.95125 0.0
O20 O 0.63116 0.18655 0.93303 0.0
O21 O 0.62793 0.21698 0.01364 0.0
O22 O 0.65248 0.19102 0.0243 0.0
C23 C 0.61499 0.15963 0.08823 0.0
O24 O 0.58618 0.20338 -0.00209 0.0
O25 O 0.58301 0.1686 0.97912 0.0
In26 In 0.79517 0.61643 0.01218 0.0
O27 O 0.77636 0.58293 0.01174 0.0
O28 O 0.81248 0.58275 0.01594 0.0
C29 C 0.76399 0.64882 0.00581 0.0
C30 C 0.80763 0.62265 0.10134 0.0
C31 C 0.81174 0.62074 0.92554 0.0
O32 O 0.75867 0.62809 0.00771 0.0
O33 O 0.78493 0.65298 0.00735 0.0
O34 O 0.8227 0.62779 0.96076 0.0
O35 O 0.79292 0.61172 0.93461 0.0
C36 C 0.79438 0.57143 0.01425 0.0
O37 O 0.82146 0.6256 0.06809 0.0
O38 O 0.78793 0.61701 0.08913 0.0
In39 In 0.36268 0.80569 0.01776 0.0
O40 O 0.34936 0.83231 0.0688 0.0
O41 O 0.36421 0.80225 0.09602 0.0
C42 C 0.35765 0.82343 0.93231 0.0
C43 C 0.40773 0.80565 0.02055 0.0
C44 C 0.33273 0.77171 0.01242 0.0
O45 O 0.35 0.83325 0.96825 0.0
O46 O 0.36765 0.80497 0.93985 0.0
O47 O 0.35377 0.76815 0.01439 0.0
O48 O 0.32701 0.79226 0.01344 0.0
C49 C 0.35498 0.82105 0.10444 0.0
O50 O 0.39641 0.7875 0.01862 0.0
O51 O 0.39623 0.82365 0.02125 0.0
In52 In 0.18358 0.6182 0.98683 0.0
O53 O 0.15577 0.62989 0.93687 0.0
O54 O 0.18642 0.61684 0.90845 0.0
C55 C 0.1668 0.62371 0.07324 0.0
C56 C 0.18463 0.57312 0.9834 0.0
C57 C 0.21676 0.64908 0.98911 0.0
O58 O 0.15665 0.63121 0.03763 0.0
O59 O 0.18504 0.61346 0.0649 0.0
O60 O 0.22088 0.62811 0.98866 0.0
O61 O 0.19609 0.65424 0.98817 0.0
C62 C 0.16703 0.62488 0.90077 0.0
O63 O 0.20253 0.58479 0.98575 0.0
O64 O 0.16643 0.58427 0.98307 0.0
In65 In 0.36253 0.19064 0.97787 0.0
O66 O 0.39472 0.21159 0.9751 0.0
O67 O 0.39669 0.17612 0.96103 0.0
C68 C 0.33137 0.22219 -0.00251 0.0
C69 C 0.35206 0.17797 0.89034 0.0
C70 C 0.36293 0.16892 0.06028 0.0
O71 O 0.35181 0.22719 0.99006 0.0
O72 O 0.3267 0.20142 0.99408 0.0
O73 O 0.35262 0.161 0.02517 0.0
O74 O 0.37313 0.18732 0.05324 0.0
C75 C 0.40694 0.1948 0.96449 0.0
O76 O 0.35032 0.1645 0.92439 0.0
O77 O 0.35838 0.19771 0.9009 0.0
In78 In 0.8043 0.35777 0.00817 0.0
O79 O 0.82975 0.34398 0.95486 0.0
O80 O 0.79975 0.3598 0.93009 0.0
C81 C 0.82436 0.35394 0.0919 0.0
C82 C 0.80192 0.4028 0.00593 0.0
C83 C 0.77048 0.32785 0.01762 0.0
O84 O 0.80548 0.36335 0.08585 0.0
O85 O 0.83348 0.34622 0.05526 0.0
O86 O 0.76703 0.34885 0.0143 0.0
O87 O 0.79096 0.32199 0.01579 0.0
C88 C 0.81807 0.35007 0.92013 0.0
O89 O 0.7845 0.39049 0.0085 0.0
O90 O 0.82052 0.3923 0.00412 0.0
In91 In 0.62139 0.80849 0.00452 0.0
O92 O 0.63615 0.83441 0.95346 0.0
O93 O 0.61578 0.80767 0.92667 0.0
C94 C 0.62924 0.82436 0.09105 0.0
C95 C 0.57636 0.80738 0.00847 0.0
C96 C 0.65037 0.7737 0.00078 0.0
O97 O 0.63361 0.83607 0.05526 0.0
O98 O 0.62115 0.80505 0.08276 0.0
O99 O 0.62924 0.77083 0.00208 0.0
O100 O 0.65676 0.79406 0.00153 0.0
C101 C 0.62762 0.82487 0.91803 0.0
O102 O 0.58821 0.78962 0.00666 0.0
O103 O 0.58731 0.82576 0.00798 0.0
In104 In 0.69228 0.86329 0.5042 0.0
O105 O 0.66557 0.84933 0.55464 0.0
O106 O 0.69663 0.86165 0.58229 0.0
C107 C 0.67333 0.85911 0.41943 0.0
C108 C 0.69107 0.90832 0.51122 0.0
C109 C 0.72779 0.8354 0.4953 0.0
O110 O 0.66516 0.84945 0.45499 0.0
O111 O 0.69079 0.87084 0.42699 0.0
O112 O 0.73007 0.85576 0.5079 0.0
O113 O 0.70773 0.82923 0.48747 0.0
C114 C 0.67741 0.85339 0.59046 0.0
O115 O 0.70922 0.89781 0.5026 0.0
O116 O 0.67372 0.89607 0.51564 0.0
In117 In 0.12017 0.68072 0.4881 0.0
O118 O 0.0863 0.69874 0.48674 0.0
O119 O 0.08674 0.6626 0.48443 0.0
C120 C 0.14955 0.71512 0.49508 0.0
C121 C 0.12565 0.66253 0.57316 0.0
C122 C 0.12801 0.66574 0.40103 0.0
O123 O 0.12846 0.71835 0.49311 0.0
O124 O 0.15562 0.69469 0.49303 0.0
O125 O 0.13329 0.65418 0.43648 0.0
O126 O 0.11914 0.68467 0.40984 0.0
C127 C 0.07511 0.68052 0.48473 0.0
O128 O 0.13366 0.65324 0.53694 0.0
O129 O 0.11495 0.68063 0.56607 0.0
In130 In 0.3071 0.12517 0.47171 0.0
O131 O 0.28787 0.09212 0.4741 0.0
O132 O 0.32393 0.09105 0.47875 0.0
C133 C 0.27306 0.15494 0.46476 0.0
C134 C 0.32109 0.13413 0.55915 0.0
C135 C 0.32569 0.128 0.38636 0.0
O136 O 0.2697 0.13391 0.46786 0.0
O137 O 0.29355 0.16086 0.46488 0.0
O138 O 0.33581 0.13545 0.42217 0.0
O139 O 0.30659 0.11934 0.39404 0.0
C140 C 0.3055 0.08021 0.47829 0.0
O141 O 0.33221 0.14075 0.52401 0.0
O142 O 0.30336 0.12322 0.54979 0.0
In143 In 0.86181 0.29459 0.50253 0.0
O144 O 0.84885 0.32093 0.5548 0.0
O145 O 0.85962 0.28878 0.58003 0.0
C146 C 0.86164 0.31458 0.41851 0.0
C147 C 0.90632 0.29137 0.51556 0.0
C148 C 0.82977 0.26324 0.48855 0.0
O149 O 0.8531 0.32402 0.45403 0.0
O150 O 0.87031 0.29543 0.42583 0.0
O151 O 0.85035 0.25803 0.49365 0.0
O152 O 0.82552 0.28412 0.49089 0.0
C153 C 0.8521 0.30821 0.58962 0.0
O154 O 0.89432 0.27415 0.50682 0.0
O155 O 0.89583 0.30997 0.51681 0.0
In156 In 0.67237 0.12049 0.49744 0.0
O157 O 0.6948 0.08938 0.50029 0.0
O158 O 0.65991 0.08565 0.51718 0.0
C159 C 0.70615 0.14902 0.47759 0.0
C160 C 0.64948 0.12199 0.41623 0.0
C161 C 0.66052 0.13333 0.58426 0.0
O162 O 0.70947 0.1283 0.48598 0.0
O163 O 0.68571 0.15524 0.47863 0.0
O164 O 0.64602 0.12628 0.55529 0.0
O165 O 0.68043 0.13429 0.56898 0.0
C166 C 0.67897 0.07634 0.51242 0.0
O167 O 0.6438 0.13401 0.45083 0.0
O168 O 0.66616 0.10924 0.42325 0.0
In169 In 0.86193 0.67187 0.50978 0.0
O170 O 0.8351 0.65468 0.4639 0.0
O171 O 0.86969 0.65061 0.44588 0.0
C172 C 0.85398 0.6543 0.5953 0.0
C173 C 0.90675 0.67563 0.50055 0.0
C174 C 0.84169 0.71263 0.50139 0.0
O175 O 0.84164 0.64945 0.56069 0.0
O176 O 0.87006 0.66747 0.58629 0.0
O177 O 0.84564 0.69993 0.46712 0.0
O178 O 0.84825 0.70501 0.54005 0.0
C179 C 0.84936 0.64703 0.43505 0.0
O180 O 0.89381 0.69255 0.4969 0.0
O181 O 0.897 0.65707 0.50874 0.0
In182 In 0.29971 0.86736 0.51958 0.0
O183 O 0.32677 0.85399 0.46952 0.0
O184 O 0.29709 0.86917 0.44131 0.0
C185 C 0.31655 0.86292 0.60591 0.0
C186 C 0.29922 0.91241 0.51554 0.0
C187 C 0.26671 0.83632 0.52151 0.0
O188 O 0.32725 0.8561 0.57036 0.0
O189 O 0.29759 0.87181 0.5976 0.0
O190 O 0.26246 0.85726 0.51983 0.0
O191 O 0.28743 0.83131 0.52254 0.0
C192 C 0.31586 0.8598 0.43351 0.0
O193 O 0.28115 0.90096 0.51705 0.0
O194 O 0.31729 0.90106 0.5165 0.0
In195 In 0.11776 0.29913 0.51734 0.0
O196 O 0.08664 0.27649 0.521 0.0
O197 O 0.08327 0.31144 0.53839 0.0
C198 C 0.14892 0.26791 0.49657 0.0
C199 C 0.11681 0.32086 0.43497 0.0
C200 C 0.12996 0.31199 0.60378 0.0
O201 O 0.12868 0.26271 0.50588 0.0
O202 O 0.15332 0.28882 0.49792 0.0
O203 O 0.12471 0.32628 0.57285 0.0
O204 O 0.1296 0.29165 0.59055 0.0
C205 C 0.07381 0.29244 0.53378 0.0
O206 O 0.12821 0.32827 0.46909 0.0
O207 O 0.10585 0.30302 0.44304 0.0
H208 H 0.2209 0.54459 0.99127 0.0
H209 H 0.14363 0.43375 0.97673 0.0
H210 H 0.14854 0.54527 0.97159 0.0
H211 H 0.21459 0.43197 0.01182 0.0
H212 H 0.14624 0.47455 0.96647 0.0
H213 H 0.22 0.50314 0.99126 0.0
C214 C 0.20487 0.536 0.98675 0.0
C215 C 0.18474 0.54828 0.98174 0.0
C216 C 0.16129 0.46527 0.97625 0.0
C217 C 0.18358 0.50115 0.98157 0.0
C218 C 0.1598 0.44197 0.98206 0.0
C219 C 0.17889 0.42957 0.9955 0.0
C220 C 0.182 0.47625 0.98404 0.0
C221 C 0.19946 0.441 0.00166 0.0
C222 C 0.20436 0.5124 0.98676 0.0
C223 C 0.16443 0.53642 0.97587 0.0
N224 N 0.20046 0.4638 0.99613 0.0
N225 N 0.16436 0.5135 0.97607 0.0
H226 H 0.4345 0.23095 0.98341 0.0
H227 H 0.54594 0.15802 0.93853 0.0
H228 H 0.43518 0.16228 0.93178 0.0
H229 H 0.54715 0.22479 -0.00021 0.0
H230 H 0.50554 0.16192 0.92525 0.0
H231 H 0.47591 0.23154 0.97954 0.0
C232 C 0.44337 0.21611 0.97082 0.0
C233 C 0.43153 0.19643 0.95846 0.0
C234 C 0.51459 0.17582 0.94134 0.0
C235 C 0.47857 0.19698 0.95392 0.0
C236 C 0.53767 0.17358 0.94897 0.0
C237 C 0.54975 0.19099 0.97087 0.0
C238 C 0.50346 0.19554 0.95612 0.0
C239 C 0.53832 0.21091 0.98312 0.0
C240 C 0.46694 0.21645 0.96866 0.0
C241 C 0.44371 0.1777 0.94219 0.0
N242 N 0.51566 0.21257 0.97604 0.0
N243 N 0.46657 0.1784 0.9407 0.0
H244 H 0.83705 0.43252 0.00485 0.0
H245 H 0.75826 0.54248 0.01001 0.0
H246 H 0.76414 0.42935 0.00804 0.0
H247 H 0.83115 0.54402 0.01784 0.0
H248 H 0.75969 0.50106 0.00765 0.0
H249 H 0.83492 0.47367 0.00735 0.0
C250 C 0.82058 0.44053 0.00596 0.0
C251 C 0.80074 0.4276 0.00626 0.0
C252 C 0.77534 0.5105 0.00998 0.0
C253 C 0.79814 0.47463 0.00924 0.0
C254 C 0.77452 0.53408 0.01135 0.0
C255 C 0.79461 0.5466 0.01406 0.0
C256 C 0.79639 0.49952 0.01122 0.0
C257 C 0.81525 0.53499 0.01569 0.0
C258 C 0.81936 0.46401 0.00749 0.0
C259 C 0.77984 0.43877 0.00778 0.0
N260 N 0.8156 0.5121 0.01416 0.0
N261 N 0.77907 0.46172 0.00922 0.0
H262 H 0.54917 0.7701 0.00948 0.0
H263 H 0.43526 0.8425 0.02455 0.0
H264 H 0.54733 0.8431 0.01387 0.0
H265 H 0.43654 0.76954 0.0172 0.0
H266 H 0.47646 0.84292 0.02285 0.0
H267 H 0.50794 0.76939 0.01413 0.0
C268 C 0.54006 0.78598 0.01142 0.0
C269 C 0.55159 0.8067 0.01121 0.0
C270 C 0.46776 0.82681 0.02168 0.0
C271 C 0.50456 0.80602 0.01659 0.0
C272 C 0.44425 0.82656 0.02269 0.0
C273 C 0.43255 0.80595 0.0209 0.0
C274 C 0.47963 0.80629 0.01884 0.0
C275 C 0.44497 0.78579 0.01858 0.0
C276 C 0.51655 0.78556 0.0141 0.0
C277 C 0.53904 0.82676 0.01386 0.0
N278 N 0.4679 0.78646 0.01751 0.0
N279 N 0.51617 0.82593 0.01642 0.0
H280 H 0.71768 0.05186 0.49971 0.0
H281 H 0.65442 0.93368 0.53425 0.0
H282 H 0.64737 0.04523 0.53768 0.0
H283 H 0.72513 0.93906 0.49866 0.0
H284 H 0.65229 0.97472 0.5398 0.0
H285 H 0.72162 0.01071 0.50371 0.0
C286 C 0.70314 0.04174 0.50923 0.0
C287 C 0.68214 0.05186 0.51807 0.0
C288 C 0.66831 0.96698 0.53093 0.0
C289 C 0.68646 0.00498 0.5225 0.0
C290 C 0.66953 0.94355 0.52767 0.0
C291 C 0.68995 0.93305 0.51569 0.0
C292 C 0.68765 0.98003 0.52195 0.0
C293 C 0.70903 0.94657 0.5078 0.0
C294 C 0.70538 0.01828 0.51145 0.0
C295 C 0.66384 0.03806 0.53035 0.0
N296 N 0.7074 0.96945 0.51085 0.0
N297 N 0.6664 0.01529 0.53195 0.0
H298 H 0.93257 0.71368 0.489 0.0
H299 H 0.04803 0.64342 0.48142 0.0
H300 H 0.93687 0.64099 0.50057 0.0
H301 H 0.04588 0.71641 0.48588 0.0
H302 H 0.0069 0.64251 0.48242 0.0
H303 H 0.97384 0.71538 0.48219 0.0
C304 C 0.94221 0.69811 0.48999 0.0
C305 C 0.9314 0.67718 0.49552 0.0
C306 C 0.01538 0.65876 0.48312 0.0
C307 C 0.97831 0.67896 0.48768 0.0
C308 C 0.03886 0.65927 0.4825 0.0
C309 C 0.0503 0.68002 0.48378 0.0
C310 C 0.00323 0.67914 0.48505 0.0
C311 C 0.03763 0.70006 0.485 0.0
C312 C 0.96571 0.69908 0.48615 0.0
C313 C 0.94457 0.65749 0.49655 0.0
N314 N 0.01469 0.69913 0.48572 0.0
N315 N 0.96734 0.65887 0.4927 0.0
H316 H 0.34097 0.05121 0.48764 0.0
H317 H 0.26301 0.94106 0.5092 0.0
H318 H 0.26807 0.05316 0.48087 0.0
H319 H 0.33597 0.93997 0.51266 0.0
H320 H 0.26422 0.98223 0.50018 0.0
H321 H 0.33925 0.0103 0.49772 0.0
C322 C 0.3246 0.04299 0.48819 0.0
C323 C 0.30463 0.05551 0.4834 0.0
C324 C 0.27994 0.97296 0.50299 0.0
C325 C 0.3025 0.00877 0.49505 0.0
C326 C 0.27925 0.94951 0.50821 0.0
C327 C 0.29942 0.93718 0.51162 0.0
C328 C 0.30095 0.98402 0.50122 0.0
C329 C 0.32002 0.94887 0.5101 0.0
C330 C 0.32361 0.01965 0.494 0.0
C331 C 0.28387 0.04407 0.48441 0.0
N332 N 0.32026 0.97165 0.50496 0.0
N333 N 0.28333 0.02129 0.49017 0.0
H334 H 0.04777 0.25524 0.51407 0.0
H335 H 0.9336 0.32515 0.54615 0.0
H336 H 0.04417 0.32371 0.56628 0.0
H337 H 0.93446 0.25486 0.50493 0.0
H338 H 0.97422 0.32372 0.55814 0.0
H339 H 0.00636 0.25329 0.51562 0.0
C340 C 0.03826 0.26973 0.52639 0.0
C341 C 0.04929 0.28976 0.53956 0.0
C342 C 0.96559 0.30853 0.54669 0.0
C343 C 0.00224 0.28773 0.54115 0.0
C344 C 0.94239 0.30937 0.53967 0.0
C345 C 0.93076 0.29014 0.52414 0.0
C346 C 0.97734 0.28835 0.53771 0.0
C347 C 0.9429 0.27008 0.51672 0.0
C348 C 0.01469 0.26863 0.52719 0.0
C349 C 0.0363 0.30803 0.55534 0.0
N350 N 0.96566 0.26974 0.52322 0.0
N351 N 0.01346 0.30663 0.55533 0.0
H352 H 0.20571 0.28853 0.06122 0.0
H353 H 0.33637 0.26815 0.00303 0.0
H354 H 0.25249 0.34251 0.03013 0.0
H355 H 0.28736 0.2147 0.0204 0.0
H356 H 0.30704 0.29591 0.02205 0.0
H357 H 0.23681 0.2615 0.05694 0.0
C358 C 0.2226 0.29472 0.05405 0.0
C359 C 0.22654 0.31772 0.04554 0.0
C360 C 0.30275 0.2781 0.02187 0.0
C361 C 0.26213 0.28691 0.04008 0.0
C362 C 0.31945 0.26228 0.01095 0.0
C363 C 0.31418 0.23916 0.00975 0.0
C364 C 0.2807 0.27067 0.03172 0.0
C365 C 0.29208 0.2324 0.02056 0.0
C366 C 0.24033 0.27928 0.05143 0.0
C367 C 0.24873 0.32486 0.03661 0.0
N368 N 0.27613 0.2481 0.03094 0.0
N369 N 0.2657 0.30946 0.03367 0.0
H370 H 0.72504 0.33608 0.01912 0.0
H371 H 0.69287 0.20509 0.04147 0.0
H372 H 0.77407 0.28222 0.02875 0.0
H373 H 0.64367 0.25792 0.01934 0.0
H374 H 0.7226 0.23367 0.04493 0.0
H375 H 0.69471 0.30817 0.02638 0.0
C376 C 0.7294 0.31838 0.02289 0.0
C377 C 0.75204 0.31138 0.02307 0.0
C378 C 0.70529 0.23905 0.03958 0.0
C379 C 0.71756 0.27945 0.03148 0.0
C380 C 0.68831 0.22274 0.03772 0.0
C381 C 0.66584 0.22918 0.02978 0.0
C382 C 0.69973 0.26194 0.03339 0.0
C383 C 0.66084 0.25227 0.02531 0.0
C384 C 0.71211 0.30247 0.02705 0.0
C385 C 0.75681 0.28829 0.0282 0.0
N386 N 0.6777 0.26784 0.0269 0.0
N387 N 0.7397 0.27313 0.03208 0.0
H388 H 0.77192 0.69396 -0.00159 0.0
H389 H 0.64116 0.72833 0.00118 0.0
H390 H 0.71783 0.64502 0.00548 0.0
H391 H 0.69623 0.77621 0.99627 0.0
H392 H 0.66863 0.69735 -9e-05 0.0
H393 H 0.74404 0.72419 0.99461 0.0
C394 C 0.75413 0.68959 -0.00089 0.0
C395 C 0.74713 0.66701 0.00246 0.0
C396 C 0.67467 0.71464 -0.00099 0.0
C397 C 0.71509 0.70152 -0.00181 0.0
C398 C 0.65903 0.73229 -0.00027 0.0
C399 C 0.6665 0.75481 -0.00099 0.0
C400 C 0.69788 0.71963 -0.00246 0.0
C401 C 0.68977 0.75907 0.99703 0.0
C402 C 0.73821 0.70686 0.99692 0.0
C403 C 0.7239 0.66227 0.00303 0.0
N404 N 0.70464 0.74164 0.99646 0.0
N405 N 0.70866 0.67943 0.00106 0.0
H406 H 0.2627 0.64301 0.99366 0.0
H407 H 0.2871 0.77607 0.00664 0.0
H408 H 0.21118 0.69469 0.98976 0.0
H409 H 0.34012 0.72592 0.00966 0.0
H410 H 0.25921 0.74599 6e-05 0.0
H411 H 0.2916 0.67267 -0.00109 0.0
C412 C 0.2575 0.66058 0.99381 0.0
C413 C 0.23456 0.66645 0.99133 0.0
C414 C 0.27693 0.74148 0.00215 0.0
C415 C 0.26734 0.7003 -0.00262 0.0
C416 C 0.29287 0.75868 0.00595 0.0
C417 C 0.31592 0.75344 0.00874 0.0
C418 C 0.28406 0.71883 0.00115 0.0
C419 C 0.32246 0.73063 0.00763 0.0
C420 C 0.27396 0.67747 0.99684 0.0
C421 C 0.22868 0.68942 0.99166 0.0
N422 N 0.30656 0.7141 0.00393 0.0
N423 N 0.24496 0.70548 0.99468 0.0
H424 H 0.83605 0.74605 0.56654 0.0
H425 H 0.72991 0.79743 0.44221 0.0
H426 H 0.81741 0.72683 0.42642 0.0
H427 H 0.76881 0.83761 0.53906 0.0
H428 H 0.76065 0.76984 0.43936 0.0
H429 H 0.81062 0.77873 0.56094 0.0
C430 C 0.8268 0.74887 0.53447 0.0
C431 C 0.82864 0.7337 0.497 0.0
C432 C 0.76256 0.78482 0.46083 0.0
C433 C 0.7995 0.77059 0.49071 0.0
C434 C 0.74502 0.80046 0.46266 0.0
C435 C 0.7469 0.81968 0.49104 0.0
C436 C 0.78185 0.78817 0.48847 0.0
C437 C 0.76682 0.82296 0.51671 0.0
C438 C 0.81241 0.76751 0.53126 0.0
C439 C 0.8164 0.73811 0.45616 0.0
N440 N 0.78347 0.80712 0.51541 0.0
N441 N 0.80205 0.75598 0.45434 0.0
H442 H 0.27262 0.79085 0.52697 0.0
H443 H 0.14142 0.76078 0.49863 0.0
H444 H 0.22079 0.84188 0.51425 0.0
H445 H 0.19514 0.71141 0.50338 0.0
H446 H 0.16958 0.79095 0.50754 0.0
H447 H 0.24374 0.76164 0.52231 0.0
C448 C 0.2551 0.7959 0.52333 0.0
C449 C 0.24905 0.81879 0.52081 0.0
C450 C 0.17516 0.7735 0.50664 0.0
C451 C 0.21584 0.78539 0.51522 0.0
C452 C 0.15912 0.75632 0.50153 0.0
C453 C 0.16602 0.73362 0.50015 0.0
C454 C 0.19815 0.76784 0.51048 0.0
C455 C 0.1891 0.7287 0.50414 0.0
C456 C 0.2386 0.77921 0.5206 0.0
C457 C 0.22612 0.82438 0.51625 0.0
N458 N 0.20432 0.74567 0.50912 0.0
N459 N 0.21028 0.80775 0.51344 0.0
H460 H 0.27637 0.20069 0.45564 0.0
H461 H 0.14417 0.2219 0.49365 0.0
H462 H 0.22765 0.1468 0.47054 0.0
H463 H 0.19331 0.27524 0.47635 0.0
H464 H 0.17401 0.19396 0.48046 0.0
H465 H 0.24564 0.22816 0.45814 0.0
C466 C 0.25916 0.19465 0.45918 0.0
C467 C 0.25451 0.17148 0.46319 0.0
C468 C 0.17823 0.21178 0.47931 0.0
C469 C 0.21927 0.20279 0.46632 0.0
C470 C 0.16122 0.22771 0.48684 0.0
C471 C 0.16636 0.25087 0.48638 0.0
C472 C 0.20049 0.21912 0.47137 0.0
C473 C 0.18866 0.25753 0.47725 0.0
C474 C 0.24162 0.21033 0.46061 0.0
C475 C 0.23193 0.16454 0.46752 0.0
N476 N 0.20494 0.24172 0.47033 0.0
N477 N 0.21513 0.18017 0.46927 0.0
H478 H 0.78504 0.27101 0.47326 0.0
H479 H 0.75147 0.14012 0.47787 0.0
H480 H 0.83382 0.21711 0.48659 0.0
H481 H 0.70333 0.1945 0.46299 0.0
H482 H 0.78222 0.16773 0.47483 0.0
H483 H 0.75519 0.24294 0.46375 0.0
C484 C 0.78947 0.25323 0.47404 0.0
C485 C 0.81188 0.24633 0.48104 0.0
C486 C 0.76494 0.1736 0.47185 0.0
C487 C 0.77781 0.21409 0.47023 0.0
C488 C 0.7474 0.15786 0.47349 0.0
C489 C 0.72486 0.1651 0.47102 0.0
C490 C 0.75984 0.19672 0.46785 0.0
C491 C 0.72049 0.18823 0.46526 0.0
C492 C 0.77242 0.23721 0.46852 0.0
C493 C 0.81671 0.22311 0.48148 0.0
N494 N 0.73784 0.20325 0.46421 0.0
N495 N 0.79976 0.20778 0.47642 0.0
H496 H 0.0925 0.30801 0.3588 0.0
H497 H 0.16405 0.38484 0.18426 0.0
H498 H 0.14307 0.35599 0.4037 0.0
H499 H 0.11868 0.33185 0.13954 0.0
H500 H 0.15198 0.37885 0.26464 0.0
H501 H 0.0973 0.32096 0.27875 0.0
C502 C 0.10445 0.32148 0.35187 0.0
C503 C 0.11761 0.33079 0.38785 0.0
C504 C 0.14449 0.36868 0.23724 0.0
C505 C 0.12329 0.34558 0.29615 0.0
C506 C 0.15134 0.3721 0.19131 0.0
C507 C 0.14251 0.35863 0.15526 0.0
C508 C 0.12873 0.35162 0.24728 0.0
C509 C 0.126 0.3425 0.16635 0.0
C510 C 0.1072 0.32884 0.30611 0.0
C511 C 0.1327 0.34828 0.37693 0.0
N512 N 0.11979 0.33929 0.21149 0.0
N513 N 0.1353 0.35497 0.33191 0.0
H514 H 0.61709 0.15204 0.38699 0.0
H515 H 0.63763 0.12203 0.11875 0.0
H516 H 0.65867 0.09666 0.33925 0.0
H517 H 0.59366 0.17569 0.16575 0.0
H518 H 0.6418 0.10952 0.19954 0.0
H519 H 0.60445 0.15808 0.30661 0.0
C520 C 0.62329 0.14096 0.35971 0.0
C521 C 0.63913 0.12402 0.36962 0.0
C522 C 0.63103 0.12388 0.19214 0.0
C523 C 0.62498 0.1309 0.27778 0.0
C524 C 0.62864 0.13099 0.14601 0.0
C525 C 0.6155 0.15005 0.13567 0.0
C526 C 0.62032 0.13604 0.22812 0.0
C527 C 0.60413 0.16101 0.17228 0.0
C528 C 0.61613 0.14443 0.31383 0.0
C529 C 0.6466 0.11009 0.33304 0.0
N530 N 0.60701 0.154 0.21693 0.0
N531 N 0.63966 0.11399 0.2887 0.0
H532 H 0.87766 0.63329 0.36553 0.0
H533 H 0.7792 0.62191 0.17586 0.0
H534 H 0.80692 0.64198 0.39778 0.0
H535 H 0.8498 0.62812 0.14018 0.0
H536 H 0.78909 0.62456 0.25827 0.0
H537 H 0.86767 0.62571 0.28436 0.0
C538 C 0.85997 0.63321 0.3557 0.0
C539 C 0.84308 0.63838 0.38844 0.0
C540 C 0.80244 0.62534 0.23249 0.0
C541 C 0.83159 0.63 0.29538 0.0
C542 C 0.79682 0.62386 0.18539 0.0
C543 C 0.81373 0.6249 0.1511 0.0
C544 C 0.82516 0.62771 0.24558 0.0
C545 C 0.83625 0.62738 0.16548 0.0
C546 C 0.85432 0.62906 0.30925 0.0
C547 C 0.82047 0.63808 0.3737 0.0
N548 N 0.84133 0.62867 0.21171 0.0
N549 N 0.81539 0.63413 0.32814 0.0
H550 H 0.35172 0.83385 0.40495 0.0
H551 H 0.32991 0.85739 0.13356 0.0
H552 H 0.29821 0.87662 0.35322 0.0
H553 H 0.37091 0.80235 0.18462 0.0
H554 H 0.32217 0.86864 0.21429 0.0
H555 H 0.36313 0.82602 0.32429 0.0
C556 C 0.34249 0.84169 0.37664 0.0
C557 C 0.32392 0.85575 0.38562 0.0
C558 C 0.33293 0.85415 0.20775 0.0
C559 C 0.33684 0.847 0.29372 0.0
C560 C 0.33737 0.84778 0.16176 0.0
C561 C 0.35091 0.82884 0.15253 0.0
C562 C 0.34226 0.84159 0.2446 0.0
C563 C 0.36022 0.81697 0.19027 0.0
C564 C 0.34895 0.83719 0.3307 0.0
C565 C 0.31253 0.86553 0.34776 0.0
N566 N 0.3557 0.82352 0.23468 0.0
N567 N 0.31915 0.86094 0.30345 0.0
H568 H 0.15386 0.62831 0.6008 0.0
H569 H 0.12868 0.64711 0.87281 0.0
H570 H 0.10592 0.67709 0.65355 0.0
H571 H 0.18614 0.61009 0.81999 0.0
H572 H 0.11629 0.65377 0.79241 0.0
H573 H 0.16199 0.61671 0.68105 0.0
C574 C 0.1449 0.6364 0.62924 0.0
C575 C 0.12936 0.65379 0.62065 0.0
C576 C 0.13156 0.6441 0.7985 0.0
C577 C 0.13854 0.64071 0.71224 0.0
C578 C 0.13859 0.64029 0.84431 0.0
C579 C 0.15855 0.62822 0.85295 0.0
C580 C 0.14451 0.63564 0.76125 0.0
C581 C 0.17075 0.61967 0.81483 0.0
C582 C 0.14959 0.62986 0.67499 0.0
C583 C 0.11818 0.66372 0.65871 0.0
N584 N 0.16357 0.62359 0.77064 0.0
N585 N 0.12306 0.65711 0.70286 0.0
H586 H 0.30507 0.11397 0.63748 0.0
H587 H 0.36206 0.20188 0.81193 0.0
H588 H 0.35146 0.16565 0.59148 0.0
H589 H 0.33351 0.13849 0.85757 0.0
H590 H 0.35625 0.19029 0.73098 0.0
H591 H 0.31353 0.12382 0.7183 0.0
C592 C 0.31715 0.12735 0.64444 0.0
C593 C 0.32754 0.13909 0.60779 0.0
C594 C 0.35132 0.17888 0.75868 0.0
C595 C 0.3371 0.1506 0.70025 0.0
C596 C 0.35449 0.18553 0.80489 0.0
C597 C 0.34815 0.17113 0.84148 0.0
C598 C 0.34148 0.1578 0.74894 0.0
C599 C 0.33858 0.1501 0.83038 0.0
C600 C 0.32199 0.13291 0.69059 0.0
C601 C 0.34311 0.15618 0.61877 0.0
N602 N 0.3354 0.14411 0.78504 0.0
N603 N 0.34728 0.16159 0.66411 0.0
H604 H 0.79938 0.36803 0.8418 0.0
H605 H 0.86596 0.28687 0.66845 0.0
H606 H 0.85172 0.32234 0.88761 0.0
H607 H 0.82967 0.34587 0.6213 0.0
H608 H 0.8594 0.29844 0.74902 0.0
H609 H 0.80887 0.35922 0.76089 0.0
C610 C 0.81296 0.3562 0.83478 0.0
C611 C 0.82473 0.34578 0.87139 0.0
C612 C 0.85295 0.30892 0.7211 0.0
C613 C 0.83552 0.33551 0.77895 0.0
C614 C 0.85657 0.30227 0.6751 0.0
C615 C 0.84822 0.31539 0.63821 0.0
C616 C 0.84062 0.32869 0.73037 0.0
C617 C 0.83633 0.33527 0.64879 0.0
C618 C 0.81839 0.35124 0.7886 0.0
C619 C 0.84222 0.3307 0.86037 0.0
N620 N 0.83272 0.34125 0.694 0.0
N621 N 0.84696 0.32585 0.81506 0.0
H622 H 0.60683 0.81029 0.83873 0.0
H623 H 0.69837 0.86604 0.6708 0.0
H624 H 0.65969 0.85482 0.88738 0.0
H625 H 0.63789 0.8335 0.61963 0.0
H626 H 0.68473 0.86138 0.75037 0.0
H627 H 0.61776 0.81842 0.75839 0.0
C628 C 0.62062 0.82197 0.83245 0.0
C629 C 0.63247 0.83183 0.86971 0.0
C630 C 0.67438 0.8553 0.72181 0.0
C631 C 0.64523 0.84097 0.77789 0.0
C632 C 0.68221 0.85784 0.67634 0.0
C633 C 0.66927 0.85003 0.63857 0.0
C634 C 0.65352 0.8447 0.72975 0.0
C635 C 0.64842 0.83968 0.6478 0.0
C636 C 0.62684 0.82659 0.78657 0.0
C637 C 0.65012 0.84687 0.85964 0.0
N638 N 0.64122 0.83721 0.69255 0.0
N639 N 0.65612 0.85081 0.81463 0.0
H640 H 0.8793 0.66261 0.67271 0.0
H641 H 0.79114 0.60504 0.84709 0.0
H642 H 0.81854 0.6286 0.62741 0.0
H643 H 0.84996 0.6421 0.89314 0.0
H644 H 0.80264 0.61079 0.76644 0.0
H645 H 0.87058 0.65246 0.75309 0.0
C646 C 0.86417 0.65285 0.67966 0.0
C647 C 0.84953 0.64653 0.64334 0.0
C648 C 0.81312 0.6176 0.79408 0.0
C649 C 0.8394 0.63495 0.7355 0.0
C650 C 0.80657 0.61433 0.84023 0.0
C651 C 0.81957 0.62324 0.87691 0.0
C652 C 0.83281 0.62994 0.78434 0.0
C653 C 0.83943 0.63502 0.8659 0.0
C654 C 0.8592 0.64709 0.72563 0.0
C655 C 0.83024 0.63385 0.65438 0.0
N656 N 0.84539 0.63813 0.82053 0.0
N657 N 0.82567 0.62858 0.69956 0.0
H658 H 0.29865 0.88063 0.68546 0.0
H659 H 0.37749 0.80802 0.85283 0.0
H660 H 0.35341 0.83887 0.63554 0.0
H661 H 0.33055 0.8583 0.90332 0.0
H662 H 0.3699 0.82014 0.77314 0.0
H663 H 0.31094 0.87377 0.76541 0.0
C664 C 0.31336 0.87011 0.69136 0.0
C665 C 0.32495 0.86013 0.65392 0.0
C666 C 0.36139 0.82868 0.8016 0.0
C667 C 0.33902 0.85212 0.74532 0.0
C668 C 0.36568 0.82174 0.84711 0.0
C669 C 0.35447 0.83208 0.88463 0.0
C670 C 0.34559 0.84593 0.79346 0.0
C671 C 0.33947 0.84985 0.87531 0.0
C672 C 0.3204 0.86625 0.73701 0.0
C673 C 0.34397 0.84679 0.66347 0.0
N674 N 0.33528 0.85608 0.83054 0.0
N675 N 0.3503 0.84299 0.70833 0.0
H676 H 0.11803 0.35061 0.65092 0.0
H677 H 0.18241 0.31719 0.88355 0.0
H678 H 0.15244 0.28679 0.66772 0.0
H679 H 0.12379 0.36056 0.88648 0.0
H680 H 0.17517 0.30917 0.8013 0.0
H681 H 0.1239 0.35843 0.73438 0.0
C682 C 0.12702 0.3384 0.67207 0.0
C683 C 0.13483 0.31807 0.65259 0.0
C684 C 0.16378 0.3203 0.82 0.0
C685 C 0.14153 0.32683 0.74728 0.0
C686 C 0.16788 0.32486 0.86686 0.0
C687 C 0.15358 0.33945 0.8917 0.0
C688 C 0.14554 0.3308 0.7975 0.0
C689 C 0.13505 0.34904 0.8685 0.0
C690 C 0.13015 0.34275 0.71959 0.0
C691 C 0.14615 0.30267 0.68145 0.0
N692 N 0.13167 0.34475 0.82236 0.0
N693 N 0.14927 0.30742 0.72729 0.0
H694 H 0.61697 0.12833 0.87258 0.0
H695 H 0.68529 0.15956 0.64264 0.0
H696 H 0.65665 0.18922 0.85892 0.0
H697 H 0.62447 0.11931 0.63715 0.0
H698 H 0.67861 0.16654 0.72538 0.0
H699 H 0.62352 0.12021 0.78945 0.0
C700 C 0.6273 0.13978 0.85223 0.0
C701 C 0.63633 0.15944 0.87242 0.0
C702 C 0.66665 0.15628 0.70606 0.0
C703 C 0.64379 0.15035 0.77815 0.0
C704 C 0.67043 0.1523 0.65889 0.0
C705 C 0.65532 0.13895 0.63313 0.0
C706 C 0.64785 0.1465 0.72792 0.0
C707 C 0.63639 0.12988 0.65584 0.0
C708 C 0.63082 0.13527 0.80488 0.0
C709 C 0.64937 0.1739 0.84459 0.0
N710 N 0.63325 0.13366 0.70224 0.0
N711 N 0.65277 0.16902 0.79892 0.0
H712 H 0.83919 0.35269 0.39025 0.0
H713 H 0.86014 0.32749 0.11908 0.0
H714 H 0.88083 0.29808 0.33905 0.0
H715 H 0.81058 0.37466 0.17161 0.0
H716 H 0.87303 0.32094 0.19924 0.0
H717 H 0.83372 0.3655 0.30994 0.0
C718 C 0.84739 0.34357 0.36215 0.0
C719 C 0.86025 0.32416 0.37118 0.0
C720 C 0.85948 0.33288 0.1931 0.0
C721 C 0.85401 0.33859 0.27941 0.0
C722 C 0.85218 0.33665 0.14741 0.0
C723 C 0.83412 0.35141 0.13889 0.0
C724 C 0.84867 0.34406 0.23026 0.0
C725 C 0.8244 0.36291 0.17675 0.0
C726 C 0.84422 0.35083 0.31634 0.0
C727 C 0.87058 0.31301 0.33354 0.0
N728 N 0.83169 0.35889 0.22079 0.0
N729 N 0.86709 0.32027 0.28925 0.0
H730 H 0.65251 0.86205 0.12046 0.0
H731 H 0.63936 0.83075 0.3911 0.0
H732 H 0.61575 0.80403 0.17124 0.0
H733 H 0.68632 0.88077 0.33993 0.0
H734 H 0.62639 0.82428 0.31112 0.0
H735 H 0.66112 0.87266 0.20135 0.0
C736 C 0.64613 0.85166 0.14861 0.0
C737 C 0.63357 0.83206 0.13921 0.0
C738 C 0.63945 0.83676 0.31743 0.0
C739 C 0.64324 0.84405 0.23144 0.0
C740 C 0.6468 0.84049 0.36307 0.0
C741 C 0.66404 0.85618 0.37204 0.0
C742 C 0.64936 0.84888 0.28058 0.0
C743 C 0.67308 0.86838 0.33446 0.0
C744 C 0.65107 0.85768 0.19469 0.0
C745 C 0.62566 0.8192 0.17692 0.0
N746 N 0.6657 0.86442 0.29034 0.0
N747 N 0.63068 0.82538 0.22132 0.0
H748 H 0.11271 0.68532 0.32125 0.0
H749 H 0.18296 0.60447 0.1527 0.0
H750 H 0.15183 0.62867 0.37098 0.0
H751 H 0.13273 0.6516 0.1032 0.0
H752 H 0.17183 0.61297 0.2328 0.0
H753 H 0.12 0.67334 0.2412 0.0
C754 C 0.12281 0.67031 0.31528 0.0
C755 C 0.1318 0.65802 0.35275 0.0
C756 C 0.1631 0.62133 0.20446 0.0
C757 C 0.14027 0.64425 0.26116 0.0
C758 C 0.16946 0.61651 0.15873 0.0
C759 C 0.15881 0.62746 0.12133 0.0
C760 C 0.14613 0.63741 0.21292 0.0
C761 C 0.14139 0.64282 0.13107 0.0
C762 C 0.12689 0.66343 0.26956 0.0
C763 C 0.14464 0.63864 0.34304 0.0
N764 N 0.13572 0.6475 0.17601 0.0
N765 N 0.14864 0.63243 0.29811 0.0
H766 H 0.30911 0.10838 0.30762 0.0
H767 H 0.38644 0.18145 0.13785 0.0
H768 H 0.36246 0.15232 0.35624 0.0
H769 H 0.33631 0.13375 0.08968 0.0
H770 H 0.38068 0.16817 0.21748 0.0
H771 H 0.32142 0.11464 0.22761 0.0
C772 C 0.32356 0.11924 0.30144 0.0
C773 C 0.33465 0.13006 0.33855 0.0
C774 C 0.37111 0.16041 0.1895 0.0
C775 C 0.34876 0.13743 0.24685 0.0
C776 C 0.37439 0.16797 0.144 0.0
C777 C 0.36165 0.15883 0.10721 0.0
C778 C 0.35481 0.1437 0.19838 0.0
C779 C 0.3464 0.14133 0.11708 0.0
C780 C 0.33061 0.12277 0.2557 0.0
C781 C 0.35338 0.14375 0.32858 0.0
N782 N 0.34322 0.13451 0.16184 0.0
N783 N 0.35971 0.14726 0.28356 0.0
loop_
_geom_bond_atom_site_label_1
_geom_bond_atom_site_label_2
_geom_bond_distance
_geom_bond_site_symmetry_2
_ccdc_geom_bond_type
In0 O1 2.294 . S
In0 O2 2.326 . S
In0 O6 2.266 1_554 S
In0 O7 2.326 1_554 S
In0 O8 2.266 1_554 S
In0 O9 2.327 . S
In0 O11 2.294 . S
In0 O12 2.326 . S
O1 In0 2.294 . S
O1 C10 1.240 . S
O2 In0 2.326 . S
O2 C10 1.252 . S
C3 O6 1.252 . S
C3 O7 1.260 . S
C4 O11 1.240 . S
C4 O12 1.252 . S
C5 O8 1.252 . S
C5 O9 1.259 1_556 S
O6 In0 2.266 1_556 S
O6 C3 1.252 . S
O7 In0 2.326 1_556 S
O7 C3 1.260 . S
O8 In0 2.266 1_556 S
O8 C5 1.252 . S
O9 In0 2.327 . S
O9 C5 1.259 1_554 S
C10 O1 1.240 . S
C10 O2 1.252 . S
O11 In0 2.294 . S
O11 C4 1.240 . S
O12 In0 2.326 . S
O12 C4 1.252 . S
In13 O14 2.294 . S
In13 O15 2.326 . S
In13 O19 2.266 1_554 S
In13 O20 2.326 1_554 S
In13 O21 2.266 1_554 S
In13 O22 2.327 . S
In13 O24 2.294 . S
In13 O25 2.326 . S
O14 In13 2.294 . S
O14 C23 1.240 . S
O15 In13 2.326 . S
O15 C23 1.252 . S
C16 O19 1.252 . S
C16 O20 1.260 . S
C17 O24 1.240 . S
C17 O25 1.252 . S
C18 O21 1.252 . S
C18 O22 1.259 1_556 S
O19 In13 2.266 1_556 S
O19 C16 1.252 . S
O20 In13 2.326 1_556 S
O20 C16 1.260 . S
O21 In13 2.266 1_556 S
O21 C18 1.252 . S
O22 In13 2.327 . S
O22 C18 1.259 1_554 S
C23 O14 1.240 . S
C23 O15 1.252 . S
O24 In13 2.294 . S
O24 C17 1.240 . S
O25 In13 2.326 . S
O25 C17 1.252 . S
In26 O27 2.294 . S
In26 O28 2.326 . S
In26 O32 2.266 1_554 S
In26 O33 2.327 . S
In26 O34 2.266 1_554 S
In26 O35 2.326 1_554 S
In26 O37 2.294 . S
In26 O38 2.326 . S
O27 In26 2.294 . S
O27 C36 1.240 . S
O28 In26 2.326 . S
O28 C36 1.252 . S
C29 O32 1.252 . S
C29 O33 1.259 1_556 S
C30 O37 1.240 . S
C30 O38 1.252 . S
C31 O34 1.252 . S
C31 O35 1.260 . S
O32 In26 2.266 1_556 S
O32 C29 1.252 . S
O33 In26 2.327 . S
O33 C29 1.259 1_554 S
O34 In26 2.266 1_556 S
O34 C31 1.252 . S
O35 In26 2.326 1_556 S
O35 C31 1.260 . S
C36 O27 1.240 . S
C36 O28 1.252 . S
O37 In26 2.294 . S
O37 C30 1.240 . S
O38 In26 2.326 . S
O38 C30 1.252 . S
In39 O40 2.294 . S
In39 O41 2.326 . S
In39 O45 2.266 1_554 S
In39 O46 2.326 1_554 S
In39 O47 2.266 1_554 S
In39 O48 2.327 . S
In39 O50 2.294 . S
In39 O51 2.326 . S
O40 In39 2.294 . S
O40 C49 1.240 . S
O41 In39 2.326 . S
O41 C49 1.252 . S
C42 O45 1.252 . S
C42 O46 1.260 . S
C43 O50 1.240 . S
C43 O51 1.252 . S
C44 O47 1.252 . S
C44 O48 1.259 1_556 S
O45 In39 2.266 1_556 S
O45 C42 1.252 . S
O46 In39 2.326 1_556 S
O46 C42 1.260 . S
O47 In39 2.266 1_556 S
O47 C44 1.252 . S
O48 In39 2.327 . S
O48 C44 1.259 1_554 S
C49 O40 1.240 . S
C49 O41 1.252 . S
O50 In39 2.294 . S
O50 C43 1.240 . S
O51 In39 2.326 . S
O51 C43 1.252 . S
In52 O53 2.294 1_554 S
In52 O54 2.326 1_554 S
In52 O58 2.266 . S
In52 O59 2.326 . S
In52 O60 2.266 . S
In52 O61 2.326 . S
In52 O63 2.294 1_554 S
In52 O64 2.326 1_554 S
O53 In52 2.294 1_556 S
O53 C62 1.240 . S
O54 In52 2.326 1_556 S
O54 C62 1.252 . S
C55 O58 1.252 . S
C55 O59 1.260 . S
C56 O63 1.240 . S
C56 O64 1.252 . S
C57 O60 1.252 . S
C57 O61 1.260 . S
O58 In52 2.266 . S
O58 C55 1.252 . S
O59 In52 2.326 . S
O59 C55 1.260 . S
O60 In52 2.266 . S
O60 C57 1.252 . S
O61 In52 2.326 . S
O61 C57 1.260 . S
C62 O53 1.240 . S
C62 O54 1.252 . S
O63 In52 2.294 1_556 S
O63 C56 1.240 . S
O64 In52 2.326 1_556 S
O64 C56 1.252 . S
In65 O66 2.294 1_554 S
In65 O67 2.326 1_554 S
In65 O71 2.266 . S
In65 O72 2.326 . S
In65 O73 2.266 . S
In65 O74 2.326 . S
In65 O76 2.294 1_554 S
In65 O77 2.326 1_554 S
O66 In65 2.294 1_556 S
O66 C75 1.240 . S
O67 In65 2.326 1_556 S
O67 C75 1.252 . S
C68 O71 1.252 . S
C68 O72 1.260 . S
C69 O76 1.240 . S
C69 O77 1.252 . S
C70 O73 1.252 . S
C70 O74 1.260 . S
O71 In65 2.266 . S
O71 C68 1.252 . S
O72 In65 2.326 . S
O72 C68 1.260 . S
O73 In65 2.266 . S
O73 C70 1.252 . S
O74 In65 2.326 . S
O74 C70 1.260 . S
C75 O66 1.240 . S
C75 O67 1.252 . S
O76 In65 2.294 1_556 S
O76 C69 1.240 . S
O77 In65 2.326 1_556 S
O77 C69 1.252 . S
In78 O79 2.294 1_554 S
In78 O80 2.326 1_554 S
In78 O84 2.266 . S
In78 O85 2.326 . S
In78 O86 2.266 . S
In78 O87 2.326 . S
In78 O89 2.294 1_554 S
In78 O90 2.326 1_554 S
O79 In78 2.294 1_556 S
O79 C88 1.240 . S
O80 In78 2.326 1_556 S
O80 C88 1.252 . S
C81 O84 1.252 . S
C81 O85 1.260 . S
C82 O89 1.240 . S
C82 O90 1.252 . S
C83 O86 1.252 . S
C83 O87 1.260 . S
O84 In78 2.266 . S
O84 C81 1.252 . S
O85 In78 2.326 . S
O85 C81 1.260 . S
O86 In78 2.266 . S
O86 C83 1.252 . S
O87 In78 2.326 . S
O87 C83 1.260 . S
C88 O79 1.240 . S
C88 O80 1.252 . S
O89 In78 2.294 1_556 S
O89 C82 1.240 . S
O90 In78 2.326 1_556 S
O90 C82 1.252 . S
In91 O92 2.294 1_554 S
In91 O93 2.326 1_554 S
In91 O97 2.266 . S
In91 O98 2.326 . S
In91 O99 2.266 . S
In91 O100 2.326 . S
In91 O102 2.294 1_554 S
In91 O103 2.326 1_554 S
O92 In91 2.294 1_556 S
O92 C101 1.240 . S
O93 In91 2.326 1_556 S
O93 C101 1.252 . S
C94 O97 1.252 . S
C94 O98 1.260 . S
C95 O102 1.240 . S
C95 O103 1.252 . S
C96 O99 1.252 . S
C96 O100 1.260 . S
O97 In91 2.266 . S
O97 C94 1.252 . S
O98 In91 2.326 . S
O98 C94 1.260 . S
O99 In91 2.266 . S
O99 C96 1.252 . S
O100 In91 2.326 . S
O100 C96 1.260 . S
C101 O92 1.240 . S
C101 O93 1.252 . S
O102 In91 2.294 1_556 S
O102 C95 1.240 . S
O103 In91 2.326 1_556 S
O103 C95 1.252 . S
In104 O105 2.294 . S
In104 O106 2.326 . S
In104 O110 2.266 . S
In104 O111 2.326 . S
In104 O112 2.266 . S
In104 O113 2.326 . S
In104 O115 2.294 . S
In104 O116 2.326 . S
O105 In104 2.294 . S
O105 C114 1.240 . S
O106 In104 2.326 . S
O106 C114 1.252 . S
C107 O110 1.252 . S
C107 O111 1.260 . S
C108 O115 1.240 . S
C108 O116 1.252 . S
C109 O112 1.252 . S
C109 O113 1.260 . S
O110 In104 2.266 . S
O110 C107 1.252 . S
O111 In104 2.326 . S
O111 C107 1.260 . S
O112 In104 2.266 . S
O112 C109 1.252 . S
O113 In104 2.326 . S
O113 C109 1.260 . S
C114 O105 1.240 . S
C114 O106 1.252 . S
O115 In104 2.294 . S
O115 C108 1.240 . S
O116 In104 2.326 . S
O116 C108 1.252 . S
In117 O118 2.294 . S
In117 O119 2.326 . S
In117 O123 2.266 . S
In117 O124 2.326 . S
In117 O125 2.266 . S
In117 O126 2.326 . S
In117 O128 2.294 . S
In117 O129 2.326 . S
O118 In117 2.294 . S
O118 C127 1.240 . S
O119 In117 2.326 . S
O119 C127 1.252 . S
C120 O123 1.252 . S
C120 O124 1.260 . S
C121 O128 1.240 . S
C121 O129 1.252 . S
C122 O125 1.252 . S
C122 O126 1.260 . S
O123 In117 2.266 . S
O123 C120 1.252 . S
O124 In117 2.326 . S
O124 C120 1.260 . S
O125 In117 2.266 . S
O125 C122 1.252 . S
O126 In117 2.326 . S
O126 C122 1.260 . S
C127 O118 1.240 . S
C127 O119 1.252 . S
O128 In117 2.294 . S
O128 C121 1.240 . S
O129 In117 2.326 . S
O129 C121 1.252 . S
In130 O131 2.294 . S
In130 O132 2.326 . S
In130 O136 2.266 . S
In130 O137 2.326 . S
In130 O138 2.266 . S
In130 O139 2.326 . S
In130 O141 2.294 . S
In130 O142 2.326 . S
O131 In130 2.294 . S
O131 C140 1.240 . S
O132 In130 2.326 . S
O132 C140 1.252 . S
C133 O136 1.252 . S
C133 O137 1.260 . S
C134 O141 1.240 . S
C134 O142 1.252 . S
C135 O138 1.252 . S
C135 O139 1.260 . S
O136 In130 2.266 . S
O136 C133 1.252 . S
O137 In130 2.326 . S
O137 C133 1.260 . S
O138 In130 2.266 . S
O138 C135 1.252 . S
O139 In130 2.326 . S
O139 C135 1.260 . S
C140 O131 1.240 . S
C140 O132 1.252 . S
O141 In130 2.294 . S
O141 C134 1.240 . S
O142 In130 2.326 . S
O142 C134 1.252 . S
In143 O144 2.294 . S
In143 O145 2.326 . S
In143 O149 2.266 . S
In143 O150 2.326 . S
In143 O151 2.266 . S
In143 O152 2.326 . S
In143 O154 2.294 . S
In143 O155 2.326 . S
O144 In143 2.294 . S
O144 C153 1.240 . S
O145 In143 2.326 . S
O145 C153 1.252 . S
C146 O149 1.252 . S
C146 O150 1.260 . S
C147 O154 1.240 . S
C147 O155 1.252 . S
C148 O151 1.252 . S
C148 O152 1.260 . S
O149 In143 2.266 . S
O149 C146 1.252 . S
O150 In143 2.326 . S
O150 C146 1.260 . S
O151 In143 2.266 . S
O151 C148 1.252 . S
O152 In143 2.326 . S
O152 C148 1.260 . S
C153 O144 1.240 . S
C153 O145 1.252 . S
O154 In143 2.294 . S
O154 C147 1.240 . S
O155 In143 2.326 . S
O155 C147 1.252 . S
In156 O157 2.294 . S
In156 O158 2.326 . S
In156 O162 2.266 . S
In156 O163 2.326 . S
In156 O164 2.266 . S
In156 O165 2.326 . S
In156 O167 2.294 . S
In156 O168 2.326 . S
O157 In156 2.294 . S
O157 C166 1.240 . S
O158 In156 2.326 . S
O158 C166 1.252 . S
C159 O162 1.252 . S
C159 O163 1.260 . S
C160 O167 1.240 . S
C160 O168 1.252 . S
C161 O164 1.252 . S
C161 O165 1.260 . S
O162 In156 2.266 . S
O162 C159 1.252 . S
O163 In156 2.326 . S
O163 C159 1.260 . S
O164 In156 2.266 . S
O164 C161 1.252 . S
O165 In156 2.326 . S
O165 C161 1.260 . S
C166 O157 1.240 . S
C166 O158 1.252 . S
O167 In156 2.294 . S
O167 C160 1.240 . S
O168 In156 2.326 . S
O168 C160 1.252 . S
In169 O170 2.294 . S
In169 O171 2.326 . S
In169 O175 2.266 . S
In169 O176 2.326 . S
In169 O177 2.266 . S
In169 O178 2.326 . S
In169 O180 2.294 . S
In169 O181 2.326 . S
O170 In169 2.294 . S
O170 C179 1.240 . S
O171 In169 2.326 . S
O171 C179 1.252 . S
C172 O175 1.252 . S
C172 O176 1.260 . S
C173 O180 1.240 . S
C173 O181 1.252 . S
C174 O177 1.252 . S
C174 O178 1.260 . S
O175 In169 2.266 . S
O175 C172 1.252 . S
O176 In169 2.326 . S
O176 C172 1.260 . S
O177 In169 2.266 . S
O177 C174 1.252 . S
O178 In169 2.326 . S
O178 C174 1.260 . S
C179 O170 1.240 . S
C179 O171 1.252 . S
O180 In169 2.294 . S
O180 C173 1.240 . S
O181 In169 2.326 . S
O181 C173 1.252 . S
In182 O183 2.294 . S
In182 O184 2.326 . S
In182 O188 2.266 . S
In182 O189 2.326 . S
In182 O190 2.266 . S
In182 O191 2.326 . S
In182 O193 2.294 . S
In182 O194 2.326 . S
O183 In182 2.294 . S
O183 C192 1.240 . S
O184 In182 2.326 . S
O184 C192 1.252 . S
C185 O188 1.252 . S
C185 O189 1.260 . S
C186 O193 1.240 . S
C186 O194 1.252 . S
C187 O190 1.252 . S
C187 O191 1.260 . S
O188 In182 2.266 . S
O188 C185 1.252 . S
O189 In182 2.326 . S
O189 C185 1.260 . S
O190 In182 2.266 . S
O190 C187 1.252 . S
O191 In182 2.326 . S
O191 C187 1.260 . S
C192 O183 1.240 . S
C192 O184 1.252 . S
O193 In182 2.294 . S
O193 C186 1.240 . S
O194 In182 2.326 . S
O194 C186 1.252 . S
In195 O196 2.294 . S
In195 O197 2.326 . S
In195 O201 2.266 . S
In195 O202 2.326 . S
In195 O203 2.266 . S
In195 O204 2.326 . S
In195 O206 2.294 . S
In195 O207 2.326 . S
O196 In195 2.294 . S
O196 C205 1.240 . S
O197 In195 2.326 . S
O197 C205 1.252 . S
C198 O201 1.252 . S
C198 O202 1.260 . S
C199 O206 1.240 . S
C199 O207 1.252 . S
C200 O203 1.252 . S
C200 O204 1.260 . S
O201 In195 2.266 . S
O201 C198 1.252 . S
O202 In195 2.326 . S
O202 C198 1.260 . S
O203 In195 2.266 . S
O203 C200 1.252 . S
O204 In195 2.326 . S
O204 C200 1.260 . S
C205 O196 1.240 . S
C205 O197 1.252 . S
O206 In195 2.294 . S
O206 C199 1.240 . S
O207 In195 2.326 . S
O207 C199 1.252 . S
H208 C214 0.930 . S
H209 C218 0.930 . S
H210 C223 0.929 . S
H211 C221 0.929 . S
H212 C216 0.929 . S
H213 C222 0.929 . S
C214 H208 0.930 . S
C214 C215 1.367 . S
C214 C222 1.378 . S
C215 C214 1.367 . S
C215 C223 1.433 1_556 S
C216 H212 0.929 . S
C216 C218 1.378 . S
C216 C220 1.350 . S
C217 C220 1.463 . S
C217 C222 1.350 1_554 S
C217 N225 1.427 . S
C218 H209 0.930 . S
C218 C216 1.378 . S
C218 C219 1.367 . S
C219 C218 1.367 . S
C219 C221 1.433 1_554 S
C220 C216 1.350 . S
C220 C217 1.463 . S
C220 N224 1.427 1_554 S
C221 H211 0.929 . S
C221 C219 1.433 1_556 S
C221 N224 1.384 . S
C222 H213 0.929 . S
C222 C214 1.378 . S
C222 C217 1.350 1_556 S
C223 H210 0.929 . S
C223 C215 1.433 1_554 S
C223 N225 1.384 . S
N224 C220 1.427 1_556 S
N224 C221 1.384 . S
N225 C217 1.427 . S
N225 C223 1.384 . S
H226 C232 0.930 . S
H227 C236 0.930 . S
H228 C241 0.929 . S
H229 C239 0.929 . S
H230 C234 0.929 . S
H231 C240 0.929 . S
C232 H226 0.930 . S
C232 C233 1.367 1_554 S
C232 C240 1.378 . S
C233 C232 1.367 1_556 S
C233 C241 1.433 . S
C234 H230 0.929 . S
C234 C236 1.378 . S
C234 C238 1.350 1_556 S
C235 C238 1.463 . S
C235 C240 1.350 . S
C235 N243 1.427 1_554 S
C236 H227 0.930 . S
C236 C234 1.378 . S
C236 C237 1.367 1_556 S
C237 C236 1.367 1_554 S
C237 C239 1.433 . S
C238 C234 1.350 1_554 S
C238 C235 1.463 . S
C238 N242 1.427 . S
C239 H229 0.929 . S
C239 C237 1.433 . S
C239 N242 1.384 . S
C240 H231 0.929 . S
C240 C232 1.378 . S
C240 C235 1.350 . S
C241 H228 0.929 . S
C241 C233 1.433 . S
C241 N243 1.384 . S
N242 C238 1.427 . S
N242 C239 1.384 . S
N243 C235 1.427 1_556 S
N243 C241 1.384 . S
H244 C250 0.930 . S
H245 C254 0.930 . S
H246 C259 0.929 . S
H247 C257 0.929 . S
H248 C252 0.929 . S
H249 C258 0.929 . S
C250 H244 0.930 . S
C250 C251 1.367 1_554 S
C250 C258 1.378 . S
C251 C250 1.367 1_556 S
C251 C259 1.433 . S
C252 H248 0.929 . S
C252 C254 1.378 . S
C252 C256 1.350 1_556 S
C253 C256 1.463 . S
C253 C258 1.350 . S
C253 N261 1.427 1_554 S
C254 H245 0.930 . S
C254 C252 1.378 . S
C254 C255 1.367 1_556 S
C255 C254 1.367 1_554 S
C255 C257 1.433 . S
C256 C252 1.350 1_554 S
C256 C253 1.463 . S
C256 N260 1.427 . S
C257 H247 0.929 . S
C257 C255 1.433 . S
C257 N260 1.384 . S
C258 H249 0.929 . S
C258 C250 1.378 . S
C258 C253 1.350 . S
C259 H246 0.929 . S
C259 C251 1.433 . S
C259 N261 1.384 . S
N260 C256 1.427 . S
N260 C257 1.384 . S
N261 C253 1.427 1_556 S
N261 C259 1.384 . S
H262 C268 0.930 . S
H263 C272 0.930 . S
H264 C277 0.929 . S
H265 C275 0.929 . S
H266 C270 0.929 1_556 S
H267 C276 0.929 . S
C268 H262 0.930 . S
C268 C269 1.367 1_554 S
C268 C276 1.378 . S
C269 C268 1.367 1_556 S
C269 C277 1.433 . S
C270 H266 0.929 1_554 S
C270 C272 1.378 . S
C270 C274 1.350 . S
C271 C274 1.463 . S
C271 C276 1.350 . S
C271 N279 1.427 1_554 S
C272 H263 0.930 . S
C272 C270 1.378 . S
C272 C273 1.367 . S
C273 C272 1.367 . S
C273 C275 1.433 . S
C274 C270 1.350 . S
C274 C271 1.463 . S
C274 N278 1.427 . S
C275 H265 0.929 . S
C275 C273 1.433 . S
C275 N278 1.384 . S
C276 H267 0.929 . S
C276 C268 1.378 . S
C276 C271 1.350 . S
C277 H264 0.929 . S
C277 C269 1.433 . S
C277 N279 1.384 . S
N278 C274 1.427 . S
N278 C275 1.384 . S
N279 C271 1.427 1_556 S
N279 C277 1.384 . S
H280 C286 0.930 . S
H281 C290 0.930 . S
H282 C295 0.929 . S
H283 C293 0.929 . S
H284 C288 0.929 . S
H285 C294 0.929 . S
C286 H280 0.930 . S
C286 C287 1.367 . S
C286 C294 1.378 . S
C287 C286 1.367 . S
C287 C295 1.433 . S
C288 H284 0.929 . S
C288 C290 1.378 . S
C288 C292 1.350 . S
C289 C292 1.463 1_545 S
C289 C294 1.350 . S
C289 N297 1.427 . S
C290 H281 0.930 . S
C290 C288 1.378 . S
C290 C291 1.367 . S
C291 C290 1.367 . S
C291 C293 1.433 . S
C292 C288 1.350 . S
C292 C289 1.463 1_565 S
C292 N296 1.427 . S
C293 H283 0.929 . S
C293 C291 1.433 . S
C293 N296 1.384 . S
C294 H285 0.929 . S
C294 C286 1.378 . S
C294 C289 1.350 . S
C295 H282 0.929 . S
C295 C287 1.433 . S
C295 N297 1.384 . S
N296 C292 1.427 . S
N296 C293 1.384 . S
N297 C289 1.427 . S
N297 C295 1.384 . S
H298 C304 0.930 . S
H299 C308 0.930 . S
H300 C313 0.929 . S
H301 C311 0.929 . S
H302 C306 0.929 . S
H303 C312 0.929 . S
C304 H298 0.930 . S
C304 C305 1.367 . S
C304 C312 1.378 . S
C305 C304 1.367 . S
C305 C313 1.433 . S
C306 H302 0.929 . S
C306 C308 1.378 . S
C306 C310 1.350 . S
C307 C310 1.463 1_655 S
C307 C312 1.350 . S
C307 N315 1.427 . S
C308 H299 0.930 . S
C308 C306 1.378 . S
C308 C309 1.367 . S
C309 C308 1.367 . S
C309 C311 1.433 . S
C310 C306 1.350 . S
C310 C307 1.463 1_455 S
C310 N314 1.427 . S
C311 H301 0.929 . S
C311 C309 1.433 . S
C311 N314 1.384 . S
C312 H303 0.929 . S
C312 C304 1.378 . S
C312 C307 1.350 . S
C313 H300 0.929 . S
C313 C305 1.433 . S
C313 N315 1.384 . S
N314 C310 1.427 . S
N314 C311 1.384 . S
N315 C307 1.427 . S
N315 C313 1.384 . S
H316 C322 0.930 . S
H317 C326 0.930 . S
H318 C331 0.929 . S
H319 C329 0.929 . S
H320 C324 0.929 . S
H321 C330 0.929 . S
C322 H316 0.930 . S
C322 C323 1.367 . S
C322 C330 1.378 . S
C323 C322 1.367 . S
C323 C331 1.433 . S
C324 H320 0.929 . S
C324 C326 1.378 . S
C324 C328 1.350 . S
C325 C328 1.463 1_545 S
C325 C330 1.350 . S
C325 N333 1.427 . S
C326 H317 0.930 . S
C326 C324 1.378 . S
C326 C327 1.367 . S
C327 C326 1.367 . S
C327 C329 1.433 . S
C328 C324 1.350 . S
C328 C325 1.463 1_565 S
C328 N332 1.427 . S
C329 H319 0.929 . S
C329 C327 1.433 . S
C329 N332 1.384 . S
C330 H321 0.929 . S
C330 C322 1.378 . S
C330 C325 1.350 . S
C331 H318 0.929 . S
C331 C323 1.433 . S
C331 N333 1.384 . S
N332 C328 1.427 . S
N332 C329 1.384 . S
N333 C325 1.427 . S
N333 C331 1.384 . S
H334 C340 0.930 . S
H335 C344 0.930 . S
H336 C349 0.929 . S
H337 C347 0.929 . S
H338 C342 0.929 . S
H339 C348 0.929 . S
C340 H334 0.930 . S
C340 C341 1.367 . S
C340 C348 1.378 . S
C341 C340 1.367 . S
C341 C349 1.433 . S
C342 H338 0.929 . S
C342 C344 1.378 . S
C342 C346 1.350 . S
C343 C346 1.463 1_455 S
C343 C348 1.350 . S
C343 N351 1.427 . S
C344 H335 0.930 . S
C344 C342 1.378 . S
C344 C345 1.367 . S
C345 C344 1.367 . S
C345 C347 1.433 . S
C346 C342 1.350 . S
C346 C343 1.463 1_655 S
C346 N350 1.427 . S
C347 H337 0.929 . S
C347 C345 1.433 . S
C347 N350 1.384 . S
C348 H339 0.929 . S
C348 C340 1.378 . S
C348 C343 1.350 . S
C349 H336 0.929 . S
C349 C341 1.433 . S
C349 N351 1.384 . S
N350 C346 1.427 . S
N350 C347 1.384 . S
N351 C343 1.427 . S
N351 C349 1.384 . S
H352 C358 0.930 . S
H353 C362 0.930 . S
H354 C367 0.929 . S
H355 C365 0.929 . S
H356 C360 0.929 . S
H357 C366 0.929 . S
C358 H352 0.930 . S
C358 C359 1.367 . S
C358 C366 1.378 . S
C359 C358 1.367 . S
C359 C367 1.433 1_556 S
C360 H356 0.929 . S
C360 C362 1.378 . S
C360 C364 1.350 . S
C361 C364 1.463 . S
C361 C366 1.350 1_554 S
C361 N369 1.427 . S
C362 H353 0.930 . S
C362 C360 1.378 . S
C362 C363 1.367 . S
C363 C362 1.367 . S
C363 C365 1.433 1_554 S
C364 C360 1.350 . S
C364 C361 1.463 . S
C364 N368 1.427 1_554 S
C365 H355 0.929 . S
C365 C363 1.433 1_556 S
C365 N368 1.384 . S
C366 H357 0.929 . S
C366 C358 1.378 . S
C366 C361 1.350 1_556 S
C367 H354 0.929 . S
C367 C359 1.433 1_554 S
C367 N369 1.384 . S
N368 C364 1.427 1_556 S
N368 C365 1.384 . S
N369 C361 1.427 . S
N369 C367 1.384 . S
H370 C376 0.930 . S
H371 C380 0.930 . S
H372 C385 0.929 . S
H373 C383 0.929 . S
H374 C378 0.929 . S
H375 C384 0.929 . S
C376 H370 0.930 . S
C376 C377 1.367 . S
C376 C384 1.378 . S
C377 C376 1.367 . S
C377 C385 1.433 1_554 S
C378 H374 0.929 . S
C378 C380 1.378 . S
C378 C382 1.350 1_556 S
C379 C382 1.463 . S
C379 C384 1.350 . S
C379 N387 1.427 1_554 S
C380 H371 0.930 . S
C380 C378 1.378 . S
C380 C381 1.367 . S
C381 C380 1.367 . S
C381 C383 1.433 1_556 S
C382 C378 1.350 1_554 S
C382 C379 1.463 . S
C382 N386 1.427 . S
C383 H373 0.929 . S
C383 C381 1.433 1_554 S
C383 N386 1.384 . S
C384 H375 0.929 . S
C384 C376 1.378 . S
C384 C379 1.350 . S
C385 H372 0.929 . S
C385 C377 1.433 1_556 S
C385 N387 1.384 . S
N386 C382 1.427 . S
N386 C383 1.384 . S
N387 C379 1.427 1_556 S
N387 C385 1.384 . S
H388 C394 0.930 . S
H389 C398 0.930 . S
H390 C403 0.929 . S
H391 C401 0.929 . S
H392 C396 0.929 . S
H393 C402 0.929 . S
C394 H388 0.930 . S
C394 C395 1.367 1_554 S
C394 C402 1.378 . S
C395 C394 1.367 1_556 S
C395 C403 1.433 . S
C396 H392 0.929 . S
C396 C398 1.378 . S
C396 C400 1.350 1_556 S
C397 C400 1.463 . S
C397 C402 1.350 . S
C397 N405 1.427 1_554 S
C398 H389 0.930 . S
C398 C396 1.378 . S
C398 C399 1.367 1_556 S
C399 C398 1.367 1_554 S
C399 C401 1.433 . S
C400 C396 1.350 1_554 S
C400 C397 1.463 . S
C400 N404 1.427 . S
C401 H391 0.929 . S
C401 C399 1.433 . S
C401 N404 1.384 . S
C402 H393 0.929 . S
C402 C394 1.378 . S
C402 C397 1.350 . S
C403 H390 0.929 . S
C403 C395 1.433 . S
C403 N405 1.384 . S
N404 C400 1.427 . S
N404 C401 1.384 . S
N405 C397 1.427 1_556 S
N405 C403 1.384 . S
H406 C412 0.930 . S
H407 C416 0.930 . S
H408 C421 0.929 . S
H409 C419 0.929 . S
H410 C414 0.929 . S
H411 C420 0.929 . S
C412 H406 0.930 . S
C412 C413 1.367 . S
C412 C420 1.378 . S
C413 C412 1.367 . S
C413 C421 1.433 1_554 S
C414 H410 0.929 . S
C414 C416 1.378 . S
C414 C418 1.350 1_556 S
C415 C418 1.463 . S
C415 C420 1.350 . S
C415 N423 1.427 1_554 S
C416 H407 0.930 . S
C416 C414 1.378 . S
C416 C417 1.367 . S
C417 C416 1.367 . S
C417 C419 1.433 1_556 S
C418 C414 1.350 1_554 S
C418 C415 1.463 . S
C418 N422 1.427 . S
C419 H409 0.929 . S
C419 C417 1.433 1_554 S
C419 N422 1.384 . S
C420 H411 0.929 . S
C420 C412 1.378 . S
C420 C415 1.350 . S
C421 H408 0.929 . S
C421 C413 1.433 1_556 S
C421 N423 1.384 . S
N422 C418 1.427 . S
N422 C419 1.384 . S
N423 C415 1.427 1_556 S
N423 C421 1.384 . S
H424 C430 0.930 . S
H425 C434 0.930 . S
H426 C439 0.929 . S
H427 C437 0.929 . S
H428 C432 0.929 . S
H429 C438 0.929 . S
C430 H424 0.930 . S
C430 C431 1.367 . S
C430 C438 1.378 . S
C431 C430 1.367 . S
C431 C439 1.433 . S
C432 H428 0.929 . S
C432 C434 1.378 . S
C432 C436 1.350 . S
C433 C436 1.463 . S
C433 C438 1.350 . S
C433 N441 1.427 . S
C434 H425 0.930 . S
C434 C432 1.378 . S
C434 C435 1.367 . S
C435 C434 1.367 . S
C435 C437 1.433 . S
C436 C432 1.350 . S
C436 C433 1.463 . S
C436 N440 1.427 . S
C437 H427 0.929 . S
C437 C435 1.433 . S
C437 N440 1.384 . S
C438 H429 0.929 . S
C438 C430 1.378 . S
C438 C433 1.350 . S
C439 H426 0.929 . S
C439 C431 1.433 . S
C439 N441 1.384 . S
N440 C436 1.427 . S
N440 C437 1.384 . S
N441 C433 1.427 . S
N441 C439 1.384 . S
H442 C448 0.930 . S
H443 C452 0.930 . S
H444 C457 0.929 . S
H445 C455 0.929 . S
H446 C450 0.929 . S
H447 C456 0.929 . S
C448 H442 0.930 . S
C448 C449 1.367 . S
C448 C456 1.378 . S
C449 C448 1.367 . S
C449 C457 1.433 . S
C450 H446 0.929 . S
C450 C452 1.378 . S
C450 C454 1.350 . S
C451 C454 1.463 . S
C451 C456 1.350 . S
C451 N459 1.427 . S
C452 H443 0.930 . S
C452 C450 1.378 . S
C452 C453 1.367 . S
C453 C452 1.367 . S
C453 C455 1.433 . S
C454 C450 1.350 . S
C454 C451 1.463 . S
C454 N458 1.427 . S
C455 H445 0.929 . S
C455 C453 1.433 . S
C455 N458 1.384 . S
C456 H447 0.929 . S
C456 C448 1.378 . S
C456 C451 1.350 . S
C457 H444 0.929 . S
C457 C449 1.433 . S
C457 N459 1.384 . S
N458 C454 1.427 . S
N458 C455 1.384 . S
N459 C451 1.427 . S
N459 C457 1.384 . S
H460 C466 0.930 . S
H461 C470 0.930 . S
H462 C475 0.929 . S
H463 C473 0.929 . S
H464 C468 0.929 . S
H465 C474 0.929 . S
C466 H460 0.930 . S
C466 C467 1.367 . S
C466 C474 1.378 . S
C467 C466 1.367 . S
C467 C475 1.433 . S
C468 H464 0.929 . S
C468 C470 1.378 . S
C468 C472 1.350 . S
C469 C472 1.463 . S
C469 C474 1.350 . S
C469 N477 1.427 . S
C470 H461 0.930 . S
C470 C468 1.378 . S
C470 C471 1.367 . S
C471 C470 1.367 . S
C471 C473 1.433 . S
C472 C468 1.350 . S
C472 C469 1.463 . S
C472 N476 1.427 . S
C473 H463 0.929 . S
C473 C471 1.433 . S
C473 N476 1.384 . S
C474 H465 0.929 . S
C474 C466 1.378 . S
C474 C469 1.350 . S
C475 H462 0.929 . S
C475 C467 1.433 . S
C475 N477 1.384 . S
N476 C472 1.427 . S
N476 C473 1.384 . S
N477 C469 1.427 . S
N477 C475 1.384 . S
H478 C484 0.930 . S
H479 C488 0.930 . S
H480 C493 0.929 . S
H481 C491 0.929 . S
H482 C486 0.929 . S
H483 C492 0.929 . S
C484 H478 0.930 . S
C484 C485 1.367 . S
C484 C492 1.378 . S
C485 C484 1.367 . S
C485 C493 1.433 . S
C486 H482 0.929 . S
C486 C488 1.378 . S
C486 C490 1.350 . S
C487 C490 1.463 . S
C487 C492 1.350 . S
C487 N495 1.427 . S
C488 H479 0.930 . S
C488 C486 1.378 . S
C488 C489 1.367 . S
C489 C488 1.367 . S
C489 C491 1.433 . S
C490 C486 1.350 . S
C490 C487 1.463 . S
C490 N494 1.427 . S
C491 H481 0.929 . S
C491 C489 1.433 . S
C491 N494 1.384 . S
C492 H483 0.929 . S
C492 C484 1.378 . S
C492 C487 1.350 . S
C493 H480 0.929 . S
C493 C485 1.433 . S
C493 N495 1.384 . S
N494 C490 1.427 . S
N494 C491 1.384 . S
N495 C487 1.427 . S
N495 C493 1.384 . S
H496 C502 0.930 . S
H497 C506 0.930 . S
H498 C511 0.929 . S
H499 C509 0.929 . S
H500 C504 0.929 . S
H501 C510 0.929 . S
C502 H496 0.930 . S
C502 C503 1.367 . S
C502 C510 1.378 . S
C503 C502 1.367 . S
C503 C511 1.433 . S
C504 H500 0.929 . S
C504 C506 1.378 . S
C504 C508 1.350 . S
C505 C508 1.463 . S
C505 C510 1.350 . S
C505 N513 1.427 . S
C506 H497 0.930 . S
C506 C504 1.378 . S
C506 C507 1.367 . S
C507 C506 1.367 . S
C507 C509 1.433 . S
C508 C504 1.350 . S
C508 C505 1.463 . S
C508 N512 1.427 . S
C509 H499 0.929 . S
C509 C507 1.433 . S
C509 N512 1.384 . S
C510 H501 0.929 . S
C510 C502 1.378 . S
C510 C505 1.350 . S
C511 H498 0.929 . S
C511 C503 1.433 . S
C511 N513 1.384 . S
N512 C508 1.427 . S
N512 C509 1.384 . S
N513 C505 1.427 . S
N513 C511 1.384 . S
H514 C520 0.930 . S
H515 C524 0.930 . S
H516 C529 0.929 . S
H517 C527 0.929 . S
H518 C522 0.929 . S
H519 C528 0.929 . S
C520 H514 0.930 . S
C520 C521 1.367 . S
C520 C528 1.378 . S
C521 C520 1.367 . S
C521 C529 1.433 . S
C522 H518 0.929 . S
C522 C524 1.378 . S
C522 C526 1.350 . S
C523 C526 1.463 . S
C523 C528 1.350 . S
C523 N531 1.427 . S
C524 H515 0.930 . S
C524 C522 1.378 . S
C524 C525 1.367 . S
C525 C524 1.367 . S
C525 C527 1.433 . S
C526 C522 1.350 . S
C526 C523 1.463 . S
C526 N530 1.427 . S
C527 H517 0.929 . S
C527 C525 1.433 . S
C527 N530 1.384 . S
C528 H519 0.929 . S
C528 C520 1.378 . S
C528 C523 1.350 . S
C529 H516 0.929 . S
C529 C521 1.433 . S
C529 N531 1.384 . S
N530 C526 1.427 . S
N530 C527 1.384 . S
N531 C523 1.427 . S
N531 C529 1.384 . S
H532 C538 0.930 . S
H533 C542 0.930 . S
H534 C547 0.929 . S
H535 C545 0.929 . S
H536 C540 0.929 . S
H537 C546 0.929 . S
C538 H532 0.930 . S
C538 C539 1.367 . S
C538 C546 1.378 . S
C539 C538 1.367 . S
C539 C547 1.433 . S
C540 H536 0.929 . S
C540 C542 1.378 . S
C540 C544 1.350 . S
C541 C544 1.463 . S
C541 C546 1.350 . S
C541 N549 1.427 . S
C542 H533 0.930 . S
C542 C540 1.378 . S
C542 C543 1.367 . S
C543 C542 1.367 . S
C543 C545 1.433 . S
C544 C540 1.350 . S
C544 C541 1.463 . S
C544 N548 1.427 . S
C545 H535 0.929 . S
C545 C543 1.433 . S
C545 N548 1.384 . S
C546 H537 0.929 . S
C546 C538 1.378 . S
C546 C541 1.350 . S
C547 H534 0.929 . S
C547 C539 1.433 . S
C547 N549 1.384 . S
N548 C544 1.427 . S
N548 C545 1.384 . S
N549 C541 1.427 . S
N549 C547 1.384 . S
H550 C556 0.930 . S
H551 C560 0.930 . S
H552 C565 0.929 . S
H553 C563 0.929 . S
H554 C558 0.929 . S
H555 C564 0.929 . S
C556 H550 0.930 . S
C556 C557 1.367 . S
C556 C564 1.378 . S
C557 C556 1.367 . S
C557 C565 1.433 . S
C558 H554 0.929 . S
C558 C560 1.378 . S
C558 C562 1.350 . S
C559 C562 1.463 . S
C559 C564 1.350 . S
C559 N567 1.427 . S
C560 H551 0.930 . S
C560 C558 1.378 . S
C560 C561 1.367 . S
C561 C560 1.367 . S
C561 C563 1.433 . S
C562 C558 1.350 . S
C562 C559 1.463 . S
C562 N566 1.427 . S
C563 H553 0.929 . S
C563 C561 1.433 . S
C563 N566 1.384 . S
C564 H555 0.929 . S
C564 C556 1.378 . S
C564 C559 1.350 . S
C565 H552 0.929 . S
C565 C557 1.433 . S
C565 N567 1.384 . S
N566 C562 1.427 . S
N566 C563 1.384 . S
N567 C559 1.427 . S
N567 C565 1.384 . S
H568 C574 0.930 . S
H569 C578 0.930 . S
H570 C583 0.929 . S
H571 C581 0.929 . S
H572 C576 0.929 . S
H573 C582 0.929 . S
C574 H568 0.930 . S
C574 C575 1.367 . S
C574 C582 1.378 . S
C575 C574 1.367 . S
C575 C583 1.433 . S
C576 H572 0.929 . S
C576 C578 1.378 . S
C576 C580 1.350 . S
C577 C580 1.463 . S
C577 C582 1.350 . S
C577 N585 1.427 . S
C578 H569 0.930 . S
C578 C576 1.378 . S
C578 C579 1.367 . S
C579 C578 1.367 . S
C579 C581 1.433 . S
C580 C576 1.350 . S
C580 C577 1.463 . S
C580 N584 1.427 . S
C581 H571 0.929 . S
C581 C579 1.433 . S
C581 N584 1.384 . S
C582 H573 0.929 . S
C582 C574 1.378 . S
C582 C577 1.350 . S
C583 H570 0.929 . S
C583 C575 1.433 . S
C583 N585 1.384 . S
N584 C580 1.427 . S
N584 C581 1.384 . S
N585 C577 1.427 . S
N585 C583 1.384 . S
H586 C592 0.930 . S
H587 C596 0.930 . S
H588 C601 0.929 . S
H589 C599 0.929 . S
H590 C594 0.929 . S
H591 C600 0.929 . S
C592 H586 0.930 . S
C592 C593 1.367 . S
C592 C600 1.378 . S
C593 C592 1.367 . S
C593 C601 1.433 . S
C594 H590 0.929 . S
C594 C596 1.378 . S
C594 C598 1.350 . S
C595 C598 1.463 . S
C595 C600 1.350 . S
C595 N603 1.427 . S
C596 H587 0.930 . S
C596 C594 1.378 . S
C596 C597 1.367 . S
C597 C596 1.367 . S
C597 C599 1.433 . S
C598 C594 1.350 . S
C598 C595 1.463 . S
C598 N602 1.427 . S
C599 H589 0.929 . S
C599 C597 1.433 . S
C599 N602 1.384 . S
C600 H591 0.929 . S
C600 C592 1.378 . S
C600 C595 1.350 . S
C601 H588 0.929 . S
C601 C593 1.433 . S
C601 N603 1.384 . S
N602 C598 1.427 . S
N602 C599 1.384 . S
N603 C595 1.427 . S
N603 C601 1.384 . S
H604 C610 0.930 . S
H605 C614 0.930 . S
H606 C619 0.929 . S
H607 C617 0.929 . S
H608 C612 0.929 . S
H609 C618 0.929 . S
C610 H604 0.930 . S
C610 C611 1.367 . S
C610 C618 1.378 . S
C611 C610 1.367 . S
C611 C619 1.433 . S
C612 H608 0.929 . S
C612 C614 1.378 . S
C612 C616 1.350 . S
C613 C616 1.463 . S
C613 C618 1.350 . S
C613 N621 1.427 . S
C614 H605 0.930 . S
C614 C612 1.378 . S
C614 C615 1.367 . S
C615 C614 1.367 . S
C615 C617 1.433 . S
C616 C612 1.350 . S
C616 C613 1.463 . S
C616 N620 1.427 . S
C617 H607 0.929 . S
C617 C615 1.433 . S
C617 N620 1.384 . S
C618 H609 0.929 . S
C618 C610 1.378 . S
C618 C613 1.350 . S
C619 H606 0.929 . S
C619 C611 1.433 . S
C619 N621 1.384 . S
N620 C616 1.427 . S
N620 C617 1.384 . S
N621 C613 1.427 . S
N621 C619 1.384 . S
H622 C628 0.930 . S
H623 C632 0.930 . S
H624 C637 0.929 . S
H625 C635 0.929 . S
H626 C630 0.929 . S
H627 C636 0.929 . S
C628 H622 0.930 . S
C628 C629 1.367 . S
C628 C636 1.378 . S
C629 C628 1.367 . S
C629 C637 1.433 . S
C630 H626 0.929 . S
C630 C632 1.378 . S
C630 C634 1.350 . S
C631 C634 1.463 . S
C631 C636 1.350 . S
C631 N639 1.427 . S
C632 H623 0.930 . S
C632 C630 1.378 . S
C632 C633 1.367 . S
C633 C632 1.367 . S
C633 C635 1.433 . S
C634 C630 1.350 . S
C634 C631 1.463 . S
C634 N638 1.427 . S
C635 H625 0.929 . S
C635 C633 1.433 . S
C635 N638 1.384 . S
C636 H627 0.929 . S
C636 C628 1.378 . S
C636 C631 1.350 . S
C637 H624 0.929 . S
C637 C629 1.433 . S
C637 N639 1.384 . S
N638 C634 1.427 . S
N638 C635 1.384 . S
N639 C631 1.427 . S
N639 C637 1.384 . S
H640 C646 0.930 . S
H641 C650 0.930 . S
H642 C655 0.929 . S
H643 C653 0.929 . S
H644 C648 0.929 . S
H645 C654 0.929 . S
C646 H640 0.930 . S
C646 C647 1.367 . S
C646 C654 1.378 . S
C647 C646 1.367 . S
C647 C655 1.433 . S
C648 H644 0.929 . S
C648 C650 1.378 . S
C648 C652 1.350 . S
C649 C652 1.463 . S
C649 C654 1.350 . S
C649 N657 1.427 . S
C650 H641 0.930 . S
C650 C648 1.378 . S
C650 C651 1.367 . S
C651 C650 1.367 . S
C651 C653 1.433 . S
C652 C648 1.350 . S
C652 C649 1.463 . S
C652 N656 1.427 . S
C653 H643 0.929 . S
C653 C651 1.433 . S
C653 N656 1.384 . S
C654 H645 0.929 . S
C654 C646 1.378 . S
C654 C649 1.350 . S
C655 H642 0.929 . S
C655 C647 1.433 . S
C655 N657 1.384 . S
N656 C652 1.427 . S
N656 C653 1.384 . S
N657 C649 1.427 . S
N657 C655 1.384 . S
H658 C664 0.930 . S
H659 C668 0.930 . S
H660 C673 0.929 . S
H661 C671 0.929 . S
H662 C666 0.929 . S
H663 C672 0.929 . S
C664 H658 0.930 . S
C664 C665 1.367 . S
C664 C672 1.378 . S
C665 C664 1.367 . S
C665 C673 1.433 . S
C666 H662 0.929 . S
C666 C668 1.378 . S
C666 C670 1.350 . S
C667 C670 1.463 . S
C667 C672 1.350 . S
C667 N675 1.427 . S
C668 H659 0.930 . S
C668 C666 1.378 . S
C668 C669 1.367 . S
C669 C668 1.367 . S
C669 C671 1.433 . S
C670 C666 1.350 . S
C670 C667 1.463 . S
C670 N674 1.427 . S
C671 H661 0.929 . S
C671 C669 1.433 . S
C671 N674 1.384 . S
C672 H663 0.929 . S
C672 C664 1.378 . S
C672 C667 1.350 . S
C673 H660 0.929 . S
C673 C665 1.433 . S
C673 N675 1.384 . S
N674 C670 1.427 . S
N674 C671 1.384 . S
N675 C667 1.427 . S
N675 C673 1.384 . S
H676 C682 0.930 . S
H677 C686 0.930 . S
H678 C691 0.929 . S
H679 C689 0.929 . S
H680 C684 0.929 . S
H681 C690 0.929 . S
C682 H676 0.930 . S
C682 C683 1.367 . S
C682 C690 1.378 . S
C683 C682 1.367 . S
C683 C691 1.433 . S
C684 H680 0.929 . S
C684 C686 1.378 . S
C684 C688 1.350 . S
C685 C688 1.463 . S
C685 C690 1.350 . S
C685 N693 1.427 . S
C686 H677 0.930 . S
C686 C684 1.378 . S
C686 C687 1.367 . S
C687 C686 1.367 . S
C687 C689 1.433 . S
C688 C684 1.350 . S
C688 C685 1.463 . S
C688 N692 1.427 . S
C689 H679 0.929 . S
C689 C687 1.433 . S
C689 N692 1.384 . S
C690 H681 0.929 . S
C690 C682 1.378 . S
C690 C685 1.350 . S
C691 H678 0.929 . S
C691 C683 1.433 . S
C691 N693 1.384 . S
N692 C688 1.427 . S
N692 C689 1.384 . S
N693 C685 1.427 . S
N693 C691 1.384 . S
H694 C700 0.930 . S
H695 C704 0.930 . S
H696 C709 0.929 . S
H697 C707 0.929 . S
H698 C702 0.929 . S
H699 C708 0.929 . S
C700 H694 0.930 . S
C700 C701 1.367 . S
C700 C708 1.378 . S
C701 C700 1.367 . S
C701 C709 1.433 . S
C702 H698 0.929 . S
C702 C704 1.378 . S
C702 C706 1.350 . S
C703 C706 1.463 . S
C703 C708 1.350 . S
C703 N711 1.427 . S
C704 H695 0.930 . S
C704 C702 1.378 . S
C704 C705 1.367 . S
C705 C704 1.367 . S
C705 C707 1.433 . S
C706 C702 1.350 . S
C706 C703 1.463 . S
C706 N710 1.427 . S
C707 H697 0.929 . S
C707 C705 1.433 . S
C707 N710 1.384 . S
C708 H699 0.929 . S
C708 C700 1.378 . S
C708 C703 1.350 . S
C709 H696 0.929 . S
C709 C701 1.433 . S
C709 N711 1.384 . S
N710 C706 1.427 . S
N710 C707 1.384 . S
N711 C703 1.427 . S
N711 C709 1.384 . S
H712 C718 0.930 . S
H713 C722 0.930 . S
H714 C727 0.929 . S
H715 C725 0.929 . S
H716 C720 0.929 . S
H717 C726 0.929 . S
C718 H712 0.930 . S
C718 C719 1.367 . S
C718 C726 1.378 . S
C719 C718 1.367 . S
C719 C727 1.433 . S
C720 H716 0.929 . S
C720 C722 1.378 . S
C720 C724 1.350 . S
C721 C724 1.463 . S
C721 C726 1.350 . S
C721 N729 1.427 . S
C722 H713 0.930 . S
C722 C720 1.378 . S
C722 C723 1.367 . S
C723 C722 1.367 . S
C723 C725 1.433 . S
C724 C720 1.350 . S
C724 C721 1.463 . S
C724 N728 1.427 . S
C725 H715 0.929 . S
C725 C723 1.433 . S
C725 N728 1.384 . S
C726 H717 0.929 . S
C726 C718 1.378 . S
C726 C721 1.350 . S
C727 H714 0.929 . S
C727 C719 1.433 . S
C727 N729 1.384 . S
N728 C724 1.427 . S
N728 C725 1.384 . S
N729 C721 1.427 . S
N729 C727 1.384 . S
H730 C736 0.930 . S
H731 C740 0.930 . S
H732 C745 0.929 . S
H733 C743 0.929 . S
H734 C738 0.929 . S
H735 C744 0.929 . S
C736 H730 0.930 . S
C736 C737 1.367 . S
C736 C744 1.378 . S
C737 C736 1.367 . S
C737 C745 1.433 . S
C738 H734 0.929 . S
C738 C740 1.378 . S
C738 C742 1.350 . S
C739 C742 1.463 . S
C739 C744 1.350 . S
C739 N747 1.427 . S
C740 H731 0.930 . S
C740 C738 1.378 . S
C740 C741 1.367 . S
C741 C740 1.367 . S
C741 C743 1.433 . S
C742 C738 1.350 . S
C742 C739 1.463 . S
C742 N746 1.427 . S
C743 H733 0.929 . S
C743 C741 1.433 . S
C743 N746 1.384 . S
C744 H735 0.929 . S
C744 C736 1.378 . S
C744 C739 1.350 . S
C745 H732 0.929 . S
C745 C737 1.433 . S
C745 N747 1.384 . S
N746 C742 1.427 . S
N746 C743 1.384 . S
N747 C739 1.427 . S
N747 C745 1.384 . S
H748 C754 0.930 . S
H749 C758 0.930 . S
H750 C763 0.929 . S
H751 C761 0.929 . S
H752 C756 0.929 . S
H753 C762 0.929 . S
C754 H748 0.930 . S
C754 C755 1.367 . S
C754 C762 1.378 . S
C755 C754 1.367 . S
C755 C763 1.433 . S
C756 H752 0.929 . S
C756 C758 1.378 . S
C756 C760 1.350 . S
C757 C760 1.463 . S
C757 C762 1.350 . S
C757 N765 1.427 . S
C758 H749 0.930 . S
C758 C756 1.378 . S
C758 C759 1.367 . S
C759 C758 1.367 . S
C759 C761 1.433 . S
C760 C756 1.350 . S
C760 C757 1.463 . S
C760 N764 1.427 . S
C761 H751 0.929 . S
C761 C759 1.433 . S
C761 N764 1.384 . S
C762 H753 0.929 . S
C762 C754 1.378 . S
C762 C757 1.350 . S
C763 H750 0.929 . S
C763 C755 1.433 . S
C763 N765 1.384 . S
N764 C760 1.427 . S
N764 C761 1.384 . S
N765 C757 1.427 . S
N765 C763 1.384 . S
H766 C772 0.930 . S
H767 C776 0.930 . S
H768 C781 0.929 . S
H769 C779 0.929 . S
H770 C774 0.929 . S
H771 C780 0.929 . S
C772 H766 0.930 . S
C772 C773 1.367 . S
C772 C780 1.378 . S
C773 C772 1.367 . S
C773 C781 1.433 . S
C774 H770 0.929 . S
C774 C776 1.378 . S
C774 C778 1.350 . S
C775 C778 1.463 . S
C775 C780 1.350 . S
C775 N783 1.427 . S
C776 H767 0.930 . S
C776 C774 1.378 . S
C776 C777 1.367 . S
C777 C776 1.367 . S
C777 C779 1.433 . S
C778 C774 1.350 . S
C778 C775 1.463 . S
C778 N782 1.427 . S
C779 H769 0.929 . S
C779 C777 1.433 . S
C779 N782 1.384 . S
C780 H771 0.929 . S
C780 C772 1.378 . S
C780 C775 1.350 . S
C781 H768 0.929 . S
C781 C773 1.433 . S
C781 N783 1.384 . S
N782 C778 1.427 . S
N782 C779 1.384 . S
N783 C775 1.427 . S
N783 C781 1.384 . S
C215 C56 1.499 . S
C219 C4 1.500 . S
C233 C75 1.497 . S
C237 C17 1.497 . S
C251 C82 1.497 . S
C255 C36 1.497 . S
C269 C95 1.498 . S
C273 C43 1.499 . S
C287 C166 1.500 . S
C291 C108 1.500 . S
C305 C173 1.497 . S
C309 C127 1.497 . S
C323 C140 1.497 . S
C327 C186 1.497 . S
C341 C205 1.497 . S
C345 C147 1.498 . S
C359 C5 1.546 . S
C363 C68 1.547 . S
C377 C83 1.546 . S
C381 C18 1.545 . S
C395 C29 1.542 . S
C399 C96 1.542 . S
C413 C57 1.546 . S
C417 C44 1.546 . S
C431 C174 1.546 . S
C435 C109 1.546 . S
C449 C187 1.543 . S
C453 C120 1.545 . S
C467 C133 1.542 . S
C471 C198 1.543 . S
C485 C148 1.542 . S
C489 C159 1.542 . S
C503 C199 1.421 . S
C507 C10 1.422 . S
C521 C160 1.422 . S
C525 C23 1.426 . S
C539 C179 1.421 . S
C543 C30 1.423 . S
C557 C192 1.426 . S
C561 C49 1.421 . S
C575 C121 1.425 . S
C579 C62 1.424 . S
C593 C134 1.425 . S
C597 C69 1.420 . S
C611 C88 1.425 . S
C615 C153 1.420 . S
C629 C101 1.422 . S
C633 C114 1.422 . S
C647 C172 1.387 . S
C651 C31 1.388 . S
C665 C185 1.387 . S
C669 C42 1.387 . S
C683 C200 1.391 . S
C687 C3 1.389 . S
C701 C16 1.391 . S
C705 C161 1.389 . S
C719 C146 1.392 . S
C723 C81 1.389 . S
C737 C94 1.393 . S
C741 C107 1.391 . S
C755 C122 1.388 . S
C759 C55 1.390 . S
C773 C135 1.388 . S
C777 C70 1.389 . S
