# Generated by pormake.
# Topology ukk, (4)-cn, num edge types: 1
# Building blocks:
#     Node 0, Type 0, BuildingBlock: MUDLON_clean_sbu_0, # of connection points: 4
#     Node 1, Type 0, BuildingBlock: MUDLON_clean_sbu_0, # of connection points: 4
#     Node 2, Type 0, BuildingBlock: MUDLON_clean_sbu_0, # of connection points: 4
#     Node 3, Type 0, BuildingBlock: MUDLON_clean_sbu_0, # of connection points: 4
#     Node 4, Type 0, BuildingBlock: MUDLON_clean_sbu_0, # of connection points: 4
#     Node 5, Type 0, BuildingBlock: MUDLON_clean_sbu_0, # of connection points: 4
#     Node 6, Type 0, BuildingBlock: MUDLON_clean_sbu_0, # of connection points: 4
#     Node 7, Type 0, BuildingBlock: MUDLON_clean_sbu_0, # of connection points: 4
#     Node 8, Type 0, BuildingBlock: MUDLON_clean_sbu_0, # of connection points: 4
#     Node 9, Type 0, BuildingBlock: MUDLON_clean_sbu_0, # of connection points: 4
#     Node 10, Type 0, BuildingBlock: MUDLON_clean_sbu_0, # of connection points: 4
#     Node 11, Type 0, BuildingBlock: MUDLON_clean_sbu_0, # of connection points: 4
#     Node 12, Type 0, BuildingBlock: MUDLON_clean_sbu_0, # of connection points: 4
#     Node 13, Type 0, BuildingBlock: MUDLON_clean_sbu_0, # of connection points: 4
#     Node 14, Type 0, BuildingBlock: MUDLON_clean_sbu_0, # of connection points: 4
#     Node 15, Type 0, BuildingBlock: MUDLON_clean_sbu_0, # of connection points: 4
#     Edge 16, Type (0, 0), BuildingBlock: KIFKEQ_clean_linker_1, # of connection points: 2
#     Edge 17, Type (0, 0), BuildingBlock: KIFKEQ_clean_linker_1, # of connection points: 2
#     Edge 18, Type (0, 0), BuildingBlock: KIFKEQ_clean_linker_1, # of connection points: 2
#     Edge 19, Type (0, 0), BuildingBlock: KIFKEQ_clean_linker_1, # of connection points: 2
#     Edge 20, Type (0, 0), BuildingBlock: KIFKEQ_clean_linker_1, # of connection points: 2
#     Edge 21, Type (0, 0), BuildingBlock: KIFKEQ_clean_linker_1, # of connection points: 2
#     Edge 22, Type (0, 0), BuildingBlock: KIFKEQ_clean_linker_1, # of connection points: 2
#     Edge 23, Type (0, 0), BuildingBlock: KIFKEQ_clean_linker_1, # of connection points: 2
#     Edge 24, Type (0, 0), BuildingBlock: KIFKEQ_clean_linker_1, # of connection points: 2
#     Edge 25, Type (0, 0), BuildingBlock: KIFKEQ_clean_linker_1, # of connection points: 2
#     Edge 26, Type (0, 0), BuildingBlock: KIFKEQ_clean_linker_1, # of connection points: 2
#     Edge 27, Type (0, 0), BuildingBlock: KIFKEQ_clean_linker_1, # of connection points: 2
#     Edge 28, Type (0, 0), BuildingBlock: KIFKEQ_clean_linker_1, # of connection points: 2
#     Edge 29, Type (0, 0), BuildingBlock: KIFKEQ_clean_linker_1, # of connection points: 2
#     Edge 30, Type (0, 0), BuildingBlock: KIFKEQ_clean_linker_1, # of connection points: 2
#     Edge 31, Type (0, 0), BuildingBlock: KIFKEQ_clean_linker_1, # of connection points: 2
#     Edge 32, Type (0, 0), BuildingBlock: KIFKEQ_clean_linker_1, # of connection points: 2
#     Edge 33, Type (0, 0), BuildingBlock: KIFKEQ_clean_linker_1, # of connection points: 2
#     Edge 34, Type (0, 0), BuildingBlock: KIFKEQ_clean_linker_1, # of connection points: 2
#     Edge 35, Type (0, 0), BuildingBlock: KIFKEQ_clean_linker_1, # of connection points: 2
#     Edge 36, Type (0, 0), BuildingBlock: KIFKEQ_clean_linker_1, # of connection points: 2
#     Edge 37, Type (0, 0), BuildingBlock: KIFKEQ_clean_linker_1, # of connection points: 2
#     Edge 38, Type (0, 0), BuildingBlock: KIFKEQ_clean_linker_1, # of connection points: 2
#     Edge 39, Type (0, 0), BuildingBlock: KIFKEQ_clean_linker_1, # of connection points: 2
#     Edge 40, Type (0, 0), BuildingBlock: KIFKEQ_clean_linker_1, # of connection points: 2
#     Edge 41, Type (0, 0), BuildingBlock: KIFKEQ_clean_linker_1, # of connection points: 2
#     Edge 42, Type (0, 0), BuildingBlock: KIFKEQ_clean_linker_1, # of connection points: 2
#     Edge 43, Type (0, 0), BuildingBlock: KIFKEQ_clean_linker_1, # of connection points: 2
#     Edge 44, Type (0, 0), BuildingBlock: KIFKEQ_clean_linker_1, # of connection points: 2
#     Edge 45, Type (0, 0), BuildingBlock: KIFKEQ_clean_linker_1, # of connection points: 2
#     Edge 46, Type (0, 0), BuildingBlock: KIFKEQ_clean_linker_1, # of connection points: 2
#     Edge 47, Type (0, 0), BuildingBlock: KIFKEQ_clean_linker_1, # of connection points: 2
# Relax obj value: 0.000
# Max RMSD: 0.072
# Mean RMSD: 0.072
data_MOF--net-ukk--node1-MUDLON_clean_sbu_0--edge1-KIFKEQ_clean_linker_1
_symmetry_space_group_name_H-M    P1
_symmetry_Int_Tables_number       1
_symmetry_cell_setting            triclinic
loop_
_symmetry_equiv_pos_as_xyz
'x, y, z'
_cell_length_a     60.48624
_cell_length_b     60.719218
_cell_length_c     9.471392
_cell_angle_alpha  89.969824
_cell_angle_beta   90.104769
_cell_angle_gamma 89.927383
loop_
_atom_site_label
_atom_site_type_symbol
_atom_site_fract_x
_atom_site_fract_y
_atom_site_fract_z
_atom_type_partial_charge
Mg0 Mg 0.39539 0.1348 0.10311 0.0
C1 C 0.39745 0.18203 0.07649 0.0
O2 O 0.40292 0.17381 0.95304 0.0
C3 C 0.40298 0.09 0.20379 0.0
O4 O 0.40983 0.09034 0.07222 0.0
C5 C 0.34843 0.12546 0.04755 0.0
O6 O 0.35098 0.12165 0.18318 0.0
O7 O 0.36539 0.13077 0.97533 0.0
O8 O 0.39305 0.16872 0.17659 0.0
O9 O 0.42839 0.13309 0.00613 0.0
C10 C 0.4434 0.13024 0.09909 0.0
O11 O 0.43752 0.12874 0.23219 0.0
O12 O 0.39511 0.10767 0.25624 0.0
Mg13 Mg 0.13732 0.64333 0.85028 0.0
C14 C 0.18503 0.65086 0.89277 0.0
O15 O 0.1761 0.65553 0.01556 0.0
C16 C 0.1041 0.62853 0.62746 0.0
O17 O 0.11371 0.60946 0.65117 0.0
C18 C 0.13363 0.69034 0.90359 0.0
O19 O 0.13813 0.68817 0.7686 0.0
O20 O 0.13157 0.6729 0.9776 0.0
O21 O 0.17231 0.64538 0.79111 0.0
O22 O 0.13213 0.61035 0.9406 0.0
C23 C 0.14758 0.59901 -0.0037 0.0
O24 O 0.16667 0.60848 0.02182 0.0
O25 O 0.11215 0.64573 0.68461 0.0
Mg26 Mg 0.64219 0.90291 0.10379 0.0
C27 C 0.62706 0.85683 0.18458 0.0
O28 O 0.60763 0.86574 0.15986 0.0
C29 C 0.65247 0.9476 0.21237 0.0
O30 O 0.66063 0.94763 0.08398 0.0
C31 C 0.69003 0.9061 0.05957 0.0
O32 O 0.68732 0.90525 0.19711 0.0
O33 O 0.67287 0.90558 0.98097 0.0
O34 O 0.64416 0.86904 0.18256 0.0
O35 O 0.60991 0.90486 -0.00364 0.0
C36 C 0.59667 0.92049 0.02708 0.0
O37 O 0.60404 0.93688 0.10425 0.0
O38 O 0.64333 0.93007 0.25805 0.0
Mg39 Mg 0.90068 0.39712 0.88193 0.0
C40 C 0.85364 0.38613 0.91088 0.0
O41 O 0.86245 0.3813 0.034 0.0
C42 C 0.94398 0.40898 0.77244 0.0
O43 O 0.94341 0.41583 0.90392 0.0
C44 C 0.91263 0.35062 0.92955 0.0
O45 O 0.91382 0.35317 0.79199 0.0
O46 O 0.90805 0.3674 0.00511 0.0
O47 O 0.86636 0.39285 0.81266 0.0
O48 O 0.90198 0.42984 0.98265 0.0
C49 C 0.88468 0.44122 0.00654 0.0
O50 O 0.86527 0.43177 -0.00562 0.0
O51 O 0.92697 0.39932 0.72268 0.0
Mg52 Mg 0.39415 0.39504 0.1054 0.0
C53 C 0.38986 0.34807 0.15619 0.0
O54 O 0.39174 0.35725 0.28128 0.0
C55 C 0.40979 0.43203 0.91389 0.0
O56 O 0.42858 0.42736 0.97679 0.0
C57 C 0.34724 0.40118 0.15307 0.0
O58 O 0.34975 0.39785 0.01693 0.0
O59 O 0.36451 0.40165 0.23049 0.0
O60 O 0.38981 0.36052 0.04781 0.0
O61 O 0.42701 0.39668 0.20503 0.0
C62 C 0.44092 0.38345 0.14984 0.0
O63 O 0.43417 0.37047 0.04763 0.0
O64 O 0.39309 0.41981 0.93741 0.0
Mg65 Mg 0.39981 0.63897 0.85966 0.0
C66 C 0.352 0.64014 0.82033 0.0
O67 O 0.36035 0.63471 0.69717 0.0
C68 C 0.44278 0.62585 0.97442 0.0
O69 O 0.44181 0.61745 0.8468 0.0
C70 C 0.40475 0.68594 0.81452 0.0
O71 O 0.39938 0.68345 0.94798 0.0
O72 O 0.40692 0.66872 0.73878 0.0
O73 O 0.36524 0.64349 0.92304 0.0
O74 O 0.4003 0.60686 0.75335 0.0
C75 C 0.38924 0.59227 0.81925 0.0
O76 O 0.3783 0.59821 0.93273 0.0
O77 O 0.42615 0.63669 0.01939 0.0
Mg78 Mg 0.64293 0.64371 0.13484 0.0
C79 C 0.63718 0.69041 0.18272 0.0
O80 O 0.63366 0.68045 0.30382 0.0
C81 C 0.65237 0.60022 0.0014 0.0
O82 O 0.66378 0.59941 0.11939 0.0
C83 C 0.69123 0.64091 0.16981 0.0
O84 O 0.68818 0.64282 0.03291 0.0
O85 O 0.67429 0.64045 0.24977 0.0
O86 O 0.64205 0.67862 0.07573 0.0
O87 O 0.61145 0.63988 0.24641 0.0
C88 C 0.60083 0.6218 0.24759 0.0
O89 O 0.61079 0.60382 0.20392 0.0
O90 O 0.64206 0.61795 0.97114 0.0
Mg91 Mg 0.63907 0.39867 0.86217 0.0
C92 C 0.68726 0.40233 0.83553 0.0
O93 O 0.67942 0.40978 0.71518 0.0
C94 C 0.60415 0.38389 0.08044 0.0
O95 O 0.61297 0.36437 0.06027 0.0
C96 C 0.64258 0.35129 0.7969 0.0
O97 O 0.65455 0.35397 0.91147 0.0
O98 O 0.63341 0.36821 0.74211 0.0
O99 O 0.67361 0.39638 0.93064 0.0
O100 O 0.63777 0.43059 0.75314 0.0
C101 C 0.62207 0.44415 0.77578 0.0
O102 O 0.60456 0.43729 0.84478 0.0
O103 O 0.61302 0.40059 0.02248 0.0
Mg104 Mg 0.89632 0.64157 0.58885 0.0
C105 C 0.90399 0.68952 0.57713 0.0
O106 O 0.91313 0.68207 0.46082 0.0
C107 C 0.88512 0.59746 0.70202 0.0
O108 O 0.87739 0.59715 0.57234 0.0
C109 C 0.84852 0.63891 0.5424 0.0
O110 O 0.85112 0.63946 0.68014 0.0
O111 O 0.86572 0.63942 0.46471 0.0
O112 O 0.89564 0.67571 0.6633 0.0
O113 O 0.9285 0.638 0.48335 0.0
C114 C 0.94073 0.62136 0.50885 0.0
O115 O 0.93246 0.60493 0.58182 0.0
O116 O 0.89436 0.61498 0.74679 0.0
Mg117 Mg 0.64033 0.14906 0.36411 0.0
C118 C 0.68777 0.15886 0.40245 0.0
O119 O 0.67866 0.16436 0.52325 0.0
C120 C 0.60677 0.13184 0.15264 0.0
O121 O 0.6164 0.1132 0.18756 0.0
C122 C 0.63356 0.19618 0.40943 0.0
O123 O 0.63628 0.19376 0.27268 0.0
O124 O 0.63376 0.17897 0.48673 0.0
O125 O 0.67526 0.15182 0.30374 0.0
O126 O 0.63605 0.11651 0.46272 0.0
C127 C 0.65266 0.10481 0.49824 0.0
O128 O 0.67233 0.11392 0.49887 0.0
O129 O 0.61501 0.14978 0.19819 0.0
Mg130 Mg 0.14382 0.39896 0.5971 0.0
C131 C 0.14181 0.35135 0.56321 0.0
O132 O 0.13927 0.35973 0.43625 0.0
C133 C 0.15831 0.43917 0.76477 0.0
O134 O 0.1762 0.43574 0.68968 0.0
C135 C 0.19128 0.39439 0.53647 0.0
O136 O 0.18841 0.38428 0.65774 0.0
O137 O 0.17442 0.4028 0.4757 0.0
O138 O 0.14433 0.36456 0.66666 0.0
O139 O 0.11209 0.40109 0.48698 0.0
C140 C 0.10087 0.41883 0.48725 0.0
O141 O 0.11035 0.43703 0.53166 0.0
O142 O 0.14255 0.42531 0.75674 0.0
Mg143 Mg 0.4005 0.88743 0.36516 0.0
C144 C 0.35298 0.88191 0.41442 0.0
O145 O 0.3621 0.88193 0.5405 0.0
C146 C 0.43369 0.90476 0.15002 0.0
O147 O 0.42341 0.92332 0.17808 0.0
C148 C 0.40383 0.84048 0.41483 0.0
O149 O 0.39749 0.84292 0.28293 0.0
O150 O 0.40719 0.85774 0.48829 0.0
O151 O 0.36554 0.8838 0.30697 0.0
O152 O 0.4045 0.91971 0.46727 0.0
C153 C 0.38874 0.93364 0.46011 0.0
O154 O 0.36971 0.92735 0.4072 0.0
O155 O 0.4261 0.88692 0.20145 0.0
Mg156 Mg 0.89502 0.90294 0.64238 0.0
C157 C 0.88749 0.85518 0.66727 0.0
O158 O 0.88082 0.86337 0.78832 0.0
C159 C 0.88652 0.94749 0.53128 0.0
O160 O 0.87949 0.94811 0.66235 0.0
C161 C 0.84713 0.90779 0.68561 0.0
O162 O 0.84976 0.90713 0.54798 0.0
O163 O 0.86429 0.90677 0.76395 0.0
O164 O 0.89419 0.86848 0.57221 0.0
O165 O 0.9276 0.90728 0.74195 0.0
C166 C 0.9383 0.89144 0.79819 0.0
O167 O 0.9281 0.87269 0.82027 0.0
O168 O 0.89423 0.92941 0.48365 0.0
Mg169 Mg 0.90247 0.14842 0.36886 0.0
C170 C 0.85509 0.15904 0.33315 0.0
O171 O 0.86413 0.16466 0.21237 0.0
C172 C 0.93555 0.1314 0.58789 0.0
O173 O 0.92539 0.11273 0.56148 0.0
C174 C 0.91218 0.19512 0.31937 0.0
O175 O 0.91184 0.19283 0.45732 0.0
O176 O 0.90925 0.17804 0.24323 0.0
O177 O 0.86764 0.15169 0.43089 0.0
O178 O 0.90617 0.11555 0.27384 0.0
C179 C 0.88934 0.10431 0.23719 0.0
O180 O 0.86994 0.11402 0.23356 0.0
O181 O 0.92801 0.14906 0.53341 0.0
Mg182 Mg 0.143 0.13747 0.64216 0.0
C183 C 0.13994 0.18508 0.67104 0.0
O184 O 0.13634 0.17691 0.79744 0.0
C185 C 0.15379 0.09344 0.52401 0.0
O186 O 0.16349 0.09337 0.64816 0.0
C187 C 0.19097 0.13581 0.68156 0.0
O188 O 0.18778 0.13856 0.54537 0.0
O189 O 0.17405 0.13466 0.76152 0.0
O190 O 0.14344 0.1717 0.5697 0.0
O191 O 0.111 0.13485 0.75073 0.0
C192 C 0.0984 0.11848 0.72628 0.0
O193 O 0.10636 0.10171 0.65506 0.0
O194 O 0.14364 0.11081 0.48436 0.0
Mg195 Mg 0.13782 0.89124 0.38115 0.0
C196 C 0.18556 0.88359 0.34044 0.0
O197 O 0.17674 0.88031 0.21531 0.0
C198 C 0.09643 0.87738 0.53762 0.0
O199 O 0.09692 0.86262 0.43656 0.0
C200 C 0.13901 0.84416 0.31621 0.0
O201 O 0.14754 0.84623 0.44323 0.0
O202 O 0.13257 0.86155 0.25243 0.0
O203 O 0.17281 0.88847 0.44305 0.0
O204 O 0.13355 0.92432 0.28835 0.0
C205 C 0.14983 0.93592 0.24652 0.0
O206 O 0.16938 0.92667 0.23709 0.0
O207 O 0.11244 0.89094 0.54823 0.0
H208 H 0.42848 0.95533 0.47856 0.0
H209 H 0.35789 0.96608 0.48536 0.0
H210 H 0.43435 0.99502 0.45725 0.0
H211 H 0.36372 1.00553 0.46173 0.0
H212 H 0.42883 0.0547 0.14678 0.0
H213 H 0.42745 0.01835 0.25227 0.0
H214 H 0.37807 0.041 0.54764 0.0
H215 H 0.37935 0.07776 0.43977 0.0
C216 C 0.41424 0.96617 0.47938 0.0
C217 C 0.39271 0.95752 0.48142 0.0
C218 C 0.41759 0.98891 0.46611 0.0
C219 C 0.39949 1.00345 0.4554 0.0
C220 C 0.37805 0.99489 0.47019 0.0
C221 C 0.3747 0.9722 0.48278 0.0
C222 C 0.41788 0.05208 0.23558 0.0
C223 C 0.40398 0.06904 0.28375 0.0
C224 C 0.41727 0.03123 0.29727 0.0
C225 C 0.40263 0.02668 0.40847 0.0
C226 C 0.38943 0.04394 0.46145 0.0
C227 C 0.39021 0.065 0.40021 0.0
H228 H 0.07433 0.66266 0.62592 0.0
H229 H 0.08289 0.59561 0.48418 0.0
H230 H 0.03531 0.66099 0.56364 0.0
H231 H 0.044 0.59415 0.41726 0.0
H232 H 0.97085 0.58863 0.55316 0.0
H233 H 1.01082 0.59128 0.54801 0.0
H234 H 1.00588 0.65819 0.39532 0.0
H235 H 0.96556 0.6557 0.40456 0.0
C236 C 0.06804 0.64775 0.57779 0.0
C237 C 0.08172 0.62916 0.56211 0.0
C238 C 0.04559 0.6468 0.54139 0.0
C239 C 0.03628 0.62729 0.48739 0.0
C240 C 0.0504 0.60927 0.46186 0.0
C241 C 0.07279 0.61016 0.49927 0.0
C242 C 0.97821 0.60383 0.51622 0.0
C243 C 0.96491 0.62201 0.4806 0.0
C244 C 1.00126 0.60531 0.51229 0.0
C245 C 1.01175 0.62502 0.47206 0.0
C246 C 0.99843 0.64286 0.42902 0.0
C247 C 0.97528 0.64137 0.43312 0.0
H248 H 0.62223 0.96295 0.40635 0.0
H249 H 0.68358 0.97938 0.19994 0.0
H250 H 0.62112 0.99999 0.51202 0.0
H251 H 0.68264 1.01586 0.30521 0.0
H252 H 0.68498 0.07542 0.56971 0.0
H253 H 0.68465 0.03568 0.53518 0.0
H254 H 0.61616 0.03884 0.40829 0.0
H255 H 0.61638 0.07876 0.44338 0.0
C256 C 0.63569 0.97427 0.38634 0.0
C257 C 0.65299 0.96831 0.29493 0.0
C258 C 0.63498 0.99549 0.44578 0.0
C259 C 0.65181 1.01087 0.41725 0.0
C260 C 0.66955 1.00439 0.331 0.0
C261 C 0.67004 0.98349 0.26996 0.0
C262 C 0.66967 0.06766 0.53741 0.0
C263 C 0.65081 0.0804 0.50724 0.0
C264 C 0.66953 0.04485 0.51722 0.0
C265 C 0.65049 0.03414 0.46684 0.0
C266 C 0.63108 0.04658 0.44761 0.0
C267 C 0.63123 0.0695 0.46741 0.0
H268 H 0.07204 0.45346 0.47326 0.0
H269 H 0.07418 0.38235 0.47037 0.0
H270 H 0.03206 0.45226 0.50302 0.0
H271 H 0.03422 0.38117 0.50383 0.0
H272 H 0.9591 0.38576 0.5406 0.0
H273 H 0.99568 0.38898 0.42919 0.0
H274 H 1.01173 0.44241 0.7124 0.0
H275 H 0.97568 0.43933 0.82084 0.0
C276 C 0.06396 0.43756 0.47619 0.0
C277 C 0.07641 0.41802 0.47197 0.0
C278 C 0.04101 0.43686 0.494 0.0
C279 C 0.02995 0.41661 0.50909 0.0
C280 C 0.04215 0.39705 0.49244 0.0
C281 C 0.06513 0.39774 0.47375 0.0
C282 C 0.97036 0.39843 0.5766 0.0
C283 C 0.96457 0.41218 0.6901 0.0
C284 C 0.99134 0.4002 0.51356 0.0
C285 C 1.00669 0.41599 0.56154 0.0
C286 C 1.00032 0.4303 0.67077 0.0
C287 C 0.97964 0.42838 0.73416 0.0
H288 H 0.44122 0.46355 0.86868 0.0
H289 H 0.37189 0.44994 0.80192 0.0
H290 H 0.43518 0.50183 0.80381 0.0
H291 H 0.36595 0.48823 0.73327 0.0
H292 H 0.36063 0.5603 0.89826 0.0
H293 H 0.36524 0.52079 0.8776 0.0
H294 H 0.42503 0.53061 0.63676 0.0
H295 H 0.42051 0.5706 0.65994 0.0
C296 C 0.42478 0.46856 0.83645 0.0
C297 C 0.40696 0.45373 0.84336 0.0
C298 C 0.42134 0.49056 0.79819 0.0
C299 C 0.4 0.49826 0.76547 0.0
C300 C 0.38253 0.48297 0.76073 0.0
C301 C 0.38596 0.46096 0.79932 0.0
C302 C 0.37457 0.55409 0.83861 0.0
C303 C 0.39033 0.56859 0.78207 0.0
C304 C 0.37712 0.53135 0.82559 0.0
C305 C 0.39558 0.52241 0.75604 0.0
C306 C 0.41074 0.53694 0.69231 0.0
C307 C 0.40809 0.55984 0.70462 0.0
H308 H 0.47482 0.59544 0.93395 0.0
H309 H 0.45818 0.65108 0.19691 0.0
H310 H 0.5113 0.5939 0.03842 0.0
H311 H 0.49514 0.64935 0.305 0.0
H312 H 0.57297 0.6575 0.25867 0.0
H313 H 0.53295 0.65735 0.2279 0.0
H314 H 0.5331 0.58625 0.24319 0.0
H315 H 0.57318 0.58639 0.26954 0.0
C316 C 0.47884 0.60716 0.01625 0.0
C317 C 0.46362 0.6235 0.0562 0.0
C318 C 0.4998 0.60615 0.07747 0.0
C319 C 0.50629 0.62148 0.18063 0.0
C320 C 0.49075 0.63737 0.22511 0.0
C321 C 0.46954 0.63828 0.16404 0.0
C322 C 0.56442 0.64184 0.2589 0.0
C323 C 0.57637 0.62193 0.26389 0.0
C324 C 0.54139 0.64176 0.24173 0.0
C325 C 0.52977 0.62177 0.23004 0.0
C326 C 0.54155 0.60195 0.24808 0.0
C327 C 0.56456 0.60202 0.26411 0.0
H328 H 0.59257 0.47757 0.82205 0.0
H329 H 0.65957 0.46536 0.68525 0.0
H330 H 0.60046 0.5168 0.83748 0.0
H331 H 0.66734 0.50474 0.69843 0.0
H332 H 0.61806 0.58876 0.82437 0.0
H333 H 0.61047 0.55206 0.72747 0.0
H334 H 0.67204 0.52835 0.90289 0.0
H335 H 0.67959 0.56473 -0.00254 0.0
C336 C 0.60884 0.48329 0.79169 0.0
C337 C 0.62552 0.4682 0.75449 0.0
C338 C 0.61333 0.50588 0.7998 0.0
C339 C 0.63464 0.51396 0.77114 0.0
C340 C 0.65085 0.49905 0.72367 0.0
C341 C 0.64634 0.47645 0.71521 0.0
C342 C 0.6302 0.57582 0.83875 0.0
C343 C 0.64936 0.57961 0.9193 0.0
C344 C 0.62577 0.55474 0.78434 0.0
C345 C 0.64057 0.53715 0.80794 0.0
C346 C 0.66035 0.54146 0.88099 0.0
C347 C 0.66464 0.56235 0.93625 0.0
H348 H 0.4703 0.35059 0.10601 0.0
H349 H 0.46551 0.41647 0.27442 0.0
H350 H 0.51015 0.35178 0.12844 0.0
H351 H 0.50594 0.41762 0.29944 0.0
H352 H 0.57631 0.41963 0.07938 0.0
H353 H 0.537 0.4199 0.13488 0.0
H354 H 0.54173 0.35266 0.281 0.0
H355 H 0.58092 0.35217 0.22166 0.0
C356 C 0.47778 0.36523 0.15059 0.0
C357 C 0.46473 0.3835 0.1874 0.0
C358 C 0.50072 0.36585 0.16471 0.0
C359 C 0.51139 0.38481 0.21569 0.0
C360 C 0.49828 0.40281 0.25872 0.0
C361 C 0.47513 0.40211 0.2455 0.0
C362 C 0.5691 0.40504 0.12621 0.0
C363 C 0.58172 0.38572 0.14335 0.0
C364 C 0.54651 0.40524 0.15879 0.0
C365 C 0.53604 0.38617 0.21 0.0
C366 C 0.54912 0.36748 0.2385 0.0
C367 C 0.57165 0.36723 0.20512 0.0
H368 H 0.85101 0.47004 0.05867 0.0
H369 H 0.92101 0.46787 0.96951 0.0
H370 H 0.85098 0.5097 0.02037 0.0
H371 H 0.92086 0.50768 0.93002 0.0
H372 H 0.91368 0.58316 0.91019 0.0
H373 H 0.91421 0.54655 0.02203 0.0
H374 H 0.85506 0.52906 0.79221 0.0
H375 H 0.85463 0.56514 0.68149 0.0
C376 C 0.86651 0.47806 0.03383 0.0
C377 C 0.88594 0.46566 0.01499 0.0
C378 C 0.86646 0.50082 0.01137 0.0
C379 C 0.88583 0.51181 0.96971 0.0
C380 C 0.90567 0.49974 0.96235 0.0
C381 C 0.90573 0.47688 0.98469 0.0
C382 C 0.90058 0.57159 0.8863 0.0
C383 C 0.88413 0.57698 0.78698 0.0
C384 C 0.90097 0.55061 0.94937 0.0
C385 C 0.88466 0.53489 0.91628 0.0
C386 C 0.86772 0.54081 0.82177 0.0
C387 C 0.86754 0.56148 0.75749 0.0
H388 H 0.5791 0.16686 0.09763 0.0
H389 H 0.58282 0.09591 0.07065 0.0
H390 H 0.53947 0.16522 0.04654 0.0
H391 H 0.54335 0.09439 0.02001 0.0
H392 H 0.47306 0.10323 0.22202 0.0
H393 H 0.51303 0.10307 0.19461 0.0
H394 H 0.50788 0.15348 0.87453 0.0
H395 H 0.46733 0.15332 0.90079 0.0
C396 C 0.57164 0.15097 0.07718 0.0
C397 C 0.58414 0.13149 0.0907 0.0
C398 C 0.54892 0.15005 0.04734 0.0
C399 C 0.53824 0.12965 0.0312 0.0
C400 C 0.55107 0.11034 0.03379 0.0
C401 C 0.57374 0.11125 0.06257 0.0
C402 C 0.4804 0.11397 0.14362 0.0
C403 C 0.46712 0.12827 0.06344 0.0
C404 C 0.50331 0.11381 0.12739 0.0
C405 C 0.51365 0.12824 0.03226 0.0
C406 C 0.50035 0.14219 0.94869 0.0
C407 C 0.4772 0.14199 0.96289 0.0
H408 H 0.17605 0.57033 0.12505 0.0
H409 H 0.11538 0.5723 0.88424 0.0
H410 H 0.17704 0.53039 0.10244 0.0
H411 H 0.11668 0.53236 0.85821 0.0
H412 H 0.12013 0.45787 0.86899 0.0
H413 H 0.11541 0.49549 0.95755 0.0
H414 H 0.1855 0.50672 0.90883 0.0
H415 H 0.19021 0.46934 0.82398 0.0
C416 C 0.16273 0.56223 0.06895 0.0
C417 C 0.14579 0.5746 0.00508 0.0
C418 C 0.16338 0.53929 0.05513 0.0
C419 C 0.14717 0.52809 0.97619 0.0
C420 C 0.1294 0.54034 0.92037 0.0
C421 C 0.12869 0.56331 0.93495 0.0
C422 C 0.13457 0.46825 0.88027 0.0
C423 C 0.15554 0.46059 0.83876 0.0
C424 C 0.13184 0.48989 0.92983 0.0
C425 C 0.15004 0.50427 0.93995 0.0
C426 C 0.17111 0.49615 0.90458 0.0
C427 C 0.17381 0.47466 0.85476 0.0
H428 H 0.46515 0.87213 0.14689 0.0
H429 H 0.45332 0.93899 0.01071 0.0
H430 H 0.50404 0.87581 0.08499 0.0
H431 H 0.49203 0.94246 0.94398 0.0
H432 H 0.56494 0.95147 0.07465 0.0
H433 H 0.52518 0.94674 0.07252 0.0
H434 H 0.53326 0.88029 0.91741 0.0
H435 H 0.57343 0.8849 0.92375 0.0
C436 C 0.4707 0.88743 0.10006 0.0
C437 C 0.45612 0.90537 0.08568 0.0
C438 C 0.49308 0.88953 0.06393 0.0
C439 C 0.50142 0.90958 0.01142 0.0
C440 C 0.48641 0.92695 0.98747 0.0
C441 C 0.46411 0.92491 0.02475 0.0
C442 C 0.55831 0.93593 0.03784 0.0
C443 C 0.57248 0.91853 0.00043 0.0
C444 C 0.53536 0.93324 0.03566 0.0
C445 C 0.52581 0.91306 -0.00453 0.0
C446 C 0.53997 0.89596 0.95106 0.0
C447 C 0.56303 0.89867 0.95335 0.0
H448 H 0.9161 0.96158 0.32948 0.0
H449 H 0.85641 0.98021 0.54808 0.0
H450 H 0.91781 0.9985 0.22204 0.0
H451 H 0.85789 1.01655 0.4406 0.0
H452 H 0.85609 0.07575 0.17063 0.0
H453 H 0.85549 0.03606 0.20719 0.0
H454 H 0.92432 0.0374 0.32712 0.0
H455 H 0.92503 0.0773 0.29054 0.0
C456 C 0.9031 0.97335 0.35173 0.0
C457 C 0.88612 0.96806 0.44712 0.0
C458 C 0.90416 0.99449 0.29125 0.0
C459 C 0.88797 1.01044 0.32264 0.0
C460 C 0.87048 1.00463 0.41273 0.0
C461 C 0.86968 0.98381 0.47491 0.0
C462 C 0.87127 0.0676 0.20185 0.0
C463 C 0.89053 0.07984 0.22969 0.0
C464 C 0.87088 0.04482 0.22312 0.0
C465 C 0.88976 0.03362 0.27198 0.0
C466 C 0.90952 0.04553 0.28895 0.0
C467 C 0.9099 0.06843 0.26832 0.0
H468 H 0.95539 0.09752 0.73079 0.0
H469 H 0.96648 0.1644 0.59305 0.0
H470 H 0.99401 0.09466 0.80229 0.0
H471 H 1.00525 0.16132 0.65958 0.0
H472 H 0.07429 0.15366 0.8269 0.0
H473 H 0.03405 0.1575 0.83038 0.0
H474 H 0.02757 0.0907 0.67857 0.0
H475 H 0.06743 0.08671 0.67946 0.0
C476 C 0.966 0.11173 0.71738 0.0
C477 C 0.95784 0.1311 0.65461 0.0
C478 C 0.98824 0.11004 0.75743 0.0
C479 C 1.003 0.12759 0.73449 0.0
C480 C 0.99447 0.14746 0.68002 0.0
C481 C 0.97216 0.14922 0.64114 0.0
C482 C 0.06423 0.13965 0.79737 0.0
C483 C 0.07417 0.11992 0.75191 0.0
C484 C 0.04113 0.14191 0.79808 0.0
C485 C 0.0274 0.1245 0.75345 0.0
C486 C 0.03742 0.10443 0.71538 0.0
C487 C 0.06043 0.10217 0.71497 0.0
H488 H 0.11448 0.9624 0.31658 0.0
H489 H 0.18148 0.9649 0.16001 0.0
H490 H 0.11495 1.00237 0.34948 0.0
H491 H 0.18182 1.00467 0.19222 0.0
H492 H 0.18506 0.06166 0.52156 0.0
H493 H 0.18273 0.02504 0.41932 0.0
H494 H 0.1188 0.04091 0.2425 0.0
H495 H 0.12129 0.07806 0.3453 0.0
C496 C 0.12908 0.97149 0.28561 0.0
C497 C 0.14807 0.96034 0.23776 0.0
C498 C 0.12932 0.99443 0.30413 0.0
C499 C 0.14855 1.00666 0.27552 0.0
C500 C 0.16688 0.99569 0.21751 0.0
C501 C 0.16663 0.97285 0.19866 0.0
C502 C 0.17068 0.05753 0.45851 0.0
C503 C 0.15338 0.07274 0.44132 0.0
C504 C 0.16938 0.03654 0.39924 0.0
C505 C 0.15058 0.03001 0.32256 0.0
C506 C 0.13347 0.04544 0.30138 0.0
C507 C 0.13497 0.06673 0.35906 0.0
H508 H 0.96632 0.9239 0.70403 0.0
H509 H 0.96603 0.8607 0.91358 0.0
H510 H 1.00635 0.92136 0.6764 0.0
H511 H 1.00603 0.85838 0.88827 0.0
H512 H 0.06492 0.84643 0.58289 0.0
H513 H 0.02823 0.8516 0.68063 0.0
H514 H 0.04394 0.91932 0.77756 0.0
H515 H 0.08098 0.91409 0.6775 0.0
C516 C 0.97483 0.90974 0.74771 0.0
C517 C 0.96285 0.89234 0.80903 0.0
C518 C 0.99785 0.90832 0.73226 0.0
C519 C 1.00943 0.88948 0.77797 0.0
C520 C 0.99762 0.87291 0.84912 0.0
C521 C 0.97464 0.87431 0.86432 0.0
C522 C 0.06076 0.86233 0.62749 0.0
C523 C 0.07586 0.87987 0.62163 0.0
C524 C 0.03969 0.86528 0.68453 0.0
C525 C 0.033 0.88592 0.73673 0.0
C526 C 0.04847 0.90326 0.73711 0.0
C527 C 0.06976 0.90022 0.68097 0.0
H528 H 0.39517 0.31815 0.3679 0.0
H529 H 0.38348 0.32282 0.91877 0.0
H530 H 0.39639 0.27829 0.35092 0.0
H531 H 0.38389 0.28268 0.90225 0.0
H532 H 0.41221 0.21328 0.89433 0.0
H533 H 0.40927 0.25298 0.91397 0.0
H534 H 0.37556 0.24569 0.3133 0.0
H535 H 0.37922 0.20566 0.29544 0.0
C536 C 0.39259 0.31066 0.26545 0.0
C537 C 0.38933 0.32372 0.1444 0.0
C538 C 0.39314 0.2877 0.25598 0.0
C539 C 0.39029 0.27714 0.12527 0.0
C540 C 0.38655 0.29022 0.00444 0.0
C541 C 0.38616 0.31325 0.01381 0.0
C542 C 0.40419 0.22009 0.98668 0.0
C543 C 0.39596 0.20626 0.09349 0.0
C544 C 0.40231 0.24294 -0.00273 0.0
C545 C 0.39199 0.25267 0.11452 0.0
C546 C 0.38382 0.23882 0.22203 0.0
C547 C 0.38586 0.21586 0.21186 0.0
H548 H 0.21026 0.64975 0.65135 0.0
H549 H 0.21518 0.65046 0.10612 0.0
H550 H 0.25053 0.64843 0.63485 0.0
H551 H 0.2551 0.64799 0.09064 0.0
H552 H 0.32817 0.66185 0.0248 0.0
H553 H 0.28802 0.66591 0.03854 0.0
H554 H 0.28087 0.62543 0.66565 0.0
H555 H 0.32075 0.62241 0.64874 0.0
C556 C 0.21993 0.64949 0.7477 0.0
C557 C 0.20948 0.65025 0.87981 0.0
C558 C 0.24307 0.64858 0.73862 0.0
C559 C 0.25631 0.64803 0.86155 0.0
C560 C 0.2457 0.64883 0.99344 0.0
C561 C 0.22267 0.65008 0.00234 0.0
C562 C 0.31794 0.65383 0.94617 0.0
C563 C 0.32765 0.64189 0.8356 0.0
C564 C 0.29488 0.65606 0.95403 0.0
C565 C 0.28097 0.64608 0.85273 0.0
C566 C 0.29085 0.63384 0.7437 0.0
C567 C 0.31382 0.63193 0.73472 0.0
H568 H 0.66433 0.83155 0.14965 0.0
H569 H 0.59432 0.82695 0.23385 0.0
H570 H 0.66673 0.79128 0.14153 0.0
H571 H 0.5968 0.78686 0.22655 0.0
H572 H 0.61652 0.71709 0.3702 0.0
H573 H 0.61463 0.75707 0.37198 0.0
H574 H 0.65216 0.75942 0.98514 0.0
H575 H 0.65401 0.71894 0.98263 0.0
C576 C 0.64952 0.82197 0.16807 0.0
C577 C 0.62914 0.83248 0.19325 0.0
C578 C 0.65086 0.79893 0.16173 0.0
C579 C 0.63194 0.78591 0.18264 0.0
C580 C 0.6117 0.79643 0.21059 0.0
C581 C 0.61029 0.81941 0.21493 0.0
C582 C 0.62434 0.72604 0.28487 0.0
C583 C 0.63542 0.71479 0.1761 0.0
C584 C 0.62316 0.749 0.28582 0.0
C585 C 0.63325 0.76142 0.17892 0.0
C586 C 0.64436 0.75026 0.06958 0.0
C587 C 0.64527 0.72712 0.06748 0.0
H588 H 0.70995 0.37607 0.0229 0.0
H589 H 0.7194 0.42294 0.6857 0.0
H590 H 0.74988 0.37031 0.03581 0.0
H591 H 0.75916 0.41808 0.70232 0.0
H592 H 0.82868 0.39155 0.6699 0.0
H593 H 0.78846 0.39424 0.65254 0.0
H594 H 0.78337 0.38595 0.10481 0.0
H595 H 0.82318 0.38219 0.12049 0.0
C596 C 0.72058 0.38539 0.95312 0.0
C597 C 0.71151 0.39994 0.85335 0.0
C598 C 0.74353 0.38215 0.96042 0.0
C599 C 0.75795 0.39362 0.8694 0.0
C600 C 0.74873 0.4085 0.77179 0.0
C601 C 0.72585 0.41149 0.76327 0.0
C602 C 0.8189 0.39009 0.76514 0.0
C603 C 0.82919 0.38665 0.89634 0.0
C604 C 0.79582 0.39183 0.75568 0.0
C605 C 0.78247 0.39048 0.87753 0.0
C606 C 0.79288 0.38672 0.00821 0.0
C607 C 0.81585 0.3847 0.01728 0.0
H608 H 0.87606 0.712 0.75471 0.0
H609 H 0.92746 0.72171 0.44533 0.0
H610 H 0.87103 0.75181 0.77138 0.0
H611 H 0.92318 0.76137 0.46585 0.0
H612 H 0.89661 0.83113 0.42743 0.0
H613 H 0.90003 0.79113 0.40726 0.0
H614 H 0.88663 0.7846 0.85357 0.0
H615 H 0.88228 0.82415 0.87174 0.0
C616 C 0.88653 0.72265 0.69204 0.0
C617 C 0.90213 0.71367 0.59871 0.0
C618 C 0.8837 0.74553 0.70155 0.0
C619 C 0.89661 0.76 0.61924 0.0
C620 C 0.91255 0.75089 0.52846 0.0
C621 C 0.91518 0.72807 0.51778 0.0
C622 C 0.89425 0.82109 0.52073 0.0
C623 C 0.88911 0.83089 0.65088 0.0
C624 C 0.89638 0.79813 0.50971 0.0
C625 C 0.89367 0.78445 0.62898 0.0
C626 C 0.88845 0.79438 0.75872 0.0
C627 C 0.88608 0.81721 0.76927 0.0
H628 H 0.82957 0.14663 0.56046 0.0
H629 H 0.82505 0.17243 0.13617 0.0
H630 H 0.78917 0.14623 0.57515 0.0
H631 H 0.78496 0.17228 0.15153 0.0
H632 H 0.71339 0.14714 0.17407 0.0
H633 H 0.7538 0.14687 0.15963 0.0
H634 H 0.75782 0.17146 0.58669 0.0
H635 H 0.71772 0.17148 0.60176 0.0
C636 C 0.82001 0.15234 0.47083 0.0
C637 C 0.83061 0.15956 0.34734 0.0
C638 C 0.79684 0.15217 0.47921 0.0
C639 C 0.78376 0.15913 0.36412 0.0
C640 C 0.79444 0.16646 0.24126 0.0
C641 C 0.81751 0.16671 0.23309 0.0
C642 C 0.72292 0.15254 0.26456 0.0
C643 C 0.71226 0.15934 0.38886 0.0
C644 C 0.74608 0.15245 0.25632 0.0
C645 C 0.75911 0.15907 0.37236 0.0
C646 C 0.74838 0.16593 0.49615 0.0
C647 C 0.72531 0.1661 0.50419 0.0
H648 H 0.13181 0.32042 0.3652 0.0
H649 H 0.15176 0.32713 0.80112 0.0
H650 H 0.13155 0.28065 0.38972 0.0
H651 H 0.15221 0.28703 0.82485 0.0
H652 H 0.12769 0.2163 0.86163 0.0
H653 H 0.12842 0.25606 0.83645 0.0
H654 H 0.15433 0.24903 0.41385 0.0
H655 H 0.15289 0.20895 0.4379 0.0
C656 C 0.1363 0.3134 0.46642 0.0
C657 C 0.14177 0.32703 0.58144 0.0
C658 C 0.13632 0.29048 0.48008 0.0
C659 C 0.14194 0.28045 0.60903 0.0
C660 C 0.14749 0.29411 0.72427 0.0
C661 C 0.14734 0.31713 0.71076 0.0
C662 C 0.13353 0.22318 0.76298 0.0
C663 C 0.14021 0.20937 0.65158 0.0
C664 C 0.13412 0.24608 0.74904 0.0
C665 C 0.14156 0.25592 0.62351 0.0
C666 C 0.14823 0.2421 0.51165 0.0
C667 C 0.1475 0.21909 0.52537 0.0
H668 H 0.21053 0.87583 0.57854 0.0
H669 H 0.21578 0.89063 0.13431 0.0
H670 H 0.25081 0.87405 0.59551 0.0
H671 H 0.25575 0.89028 0.15174 0.0
H672 H 0.32749 0.8702 0.1859 0.0
H673 H 0.2872 0.86936 0.17135 0.0
H674 H 0.28317 0.89381 0.59962 0.0
H675 H 0.32317 0.89325 0.61581 0.0
C676 C 0.22032 0.87896 0.48502 0.0
C677 C 0.20998 0.88326 0.35518 0.0
C678 C 0.24348 0.87808 0.49445 0.0
C679 C 0.25685 0.88197 0.37479 0.0
C680 C 0.24628 0.88661 0.24567 0.0
C681 C 0.22323 0.88701 0.23582 0.0
C682 C 0.31791 0.8753 0.27671 0.0
C683 C 0.32853 0.88171 0.40192 0.0
C684 C 0.29475 0.87499 0.2685 0.0
C685 C 0.28162 0.88156 0.38437 0.0
C686 C 0.29244 0.88814 0.509 0.0
C687 C 0.31551 0.888 0.51799 0.0
H688 H 0.20548 0.1368 0.95746 0.0
H689 H 0.22851 0.12957 0.52873 0.0
H690 H 0.24358 0.13405 0.04228 0.0
H691 H 0.26626 0.12596 0.61281 0.0
H692 H 0.33419 0.14296 0.79515 0.0
H693 H 0.2962 0.14555 0.70889 0.0
H694 H 0.27353 0.10972 0.0755 0.0
H695 H 0.31125 0.1079 0.16337 0.0
C696 C 0.21863 0.13444 0.8815 0.0
C697 C 0.21391 0.13351 0.7364 0.0
C698 C 0.24052 0.13273 0.92996 0.0
C699 C 0.25819 0.12981 0.83455 0.0
C700 C 0.25329 0.12864 0.6896 0.0
C701 C 0.23152 0.13056 0.64132 0.0
C702 C 0.3211 0.1355 0.8565 0.0
C703 C 0.32579 0.12528 0.98623 0.0
C704 C 0.29925 0.13692 0.80705 0.0
C705 C 0.28159 0.12797 0.88548 0.0
C706 C 0.28649 0.11726 0.01345 0.0
C707 C 0.30824 0.11603 0.06331 0.0
H708 H 0.15283 0.80531 0.42949 0.0
H709 H 0.11972 0.83221 0.06339 0.0
H710 H 0.14963 0.76854 0.33198 0.0
H711 H 0.11599 0.79502 0.96646 0.0
H712 H 0.13839 0.72953 0.76708 0.0
H713 H 0.13811 0.76638 0.86577 0.0
H714 H 0.12453 0.73935 0.27867 0.0
H715 H 0.12543 0.70214 0.17972 0.0
C716 C 0.1447 0.80338 0.32826 0.0
C717 C 0.1366 0.82181 0.25403 0.0
C718 C 0.14269 0.78216 0.27283 0.0
C719 C 0.13246 0.77866 0.14147 0.0
C720 C 0.12419 0.79708 0.06731 0.0
C721 C 0.12625 0.81842 0.12291 0.0
C722 C 0.13524 0.73136 0.87899 0.0
C723 C 0.13206 0.71278 0.96562 0.0
C724 C 0.1349 0.75262 0.93548 0.0
C725 C 0.13132 0.75598 0.0804 0.0
C726 C 0.12766 0.73741 0.16684 0.0
C727 C 0.12805 0.71606 0.11014 0.0
H728 H 0.70416 0.8981 0.78813 0.0
H729 H 0.72747 0.91765 0.20039 0.0
H730 H 0.74212 0.89874 0.70041 0.0
H731 H 0.76509 0.91927 0.11238 0.0
H732 H 0.83313 0.89806 0.9547 0.0
H733 H 0.79518 0.89778 0.04244 0.0
H734 H 0.77197 0.92103 0.63668 0.0
H735 H 0.80963 0.92033 0.54834 0.0
C736 C 0.71735 0.90281 0.85947 0.0
C737 C 0.71277 0.90771 0.00129 0.0
C738 C 0.73917 0.90329 0.80924 0.0
C739 C 0.75691 0.90897 0.89921 0.0
C740 C 0.7521 0.91432 0.04033 0.0
C741 C 0.73041 0.91356 0.0907 0.0
C742 C 0.8199 0.90321 0.88483 0.0
C743 C 0.82442 0.90913 0.74453 0.0
C744 C 0.79808 0.90315 0.93506 0.0
C745 C 0.78027 0.90929 0.84672 0.0
C746 C 0.78502 0.91569 0.7073 0.0
C747 C 0.80673 0.91548 0.65682 0.0
H748 H 0.90456 0.20859 0.04574 0.0
H749 H 0.92485 0.23255 0.45504 0.0
H750 H 0.90558 0.24621 0.95383 0.0
H751 H 0.92655 0.26985 0.363 0.0
H752 H 0.90255 0.33677 0.19844 0.0
H753 H 0.90332 0.29914 0.2895 0.0
H754 H 0.9288 0.27611 0.88986 0.0
H755 H 0.92737 0.31349 0.79816 0.0
C756 C 0.90954 0.22182 0.11551 0.0
C757 C 0.91452 0.21752 0.25781 0.0
C758 C 0.9102 0.24343 0.06288 0.0
C759 C 0.91601 0.26124 0.1511 0.0
C760 C 0.92153 0.25674 0.29243 0.0
C761 C 0.92073 0.23524 0.34503 0.0
C762 C 0.90848 0.32368 0.13058 0.0
C763 C 0.91483 0.32818 0.99096 0.0
C764 C 0.90899 0.30206 0.18279 0.0
C765 C 0.91603 0.28441 0.09696 0.0
C766 C 0.92286 0.28909 0.95838 0.0
C767 C 0.92221 0.31064 0.90609 0.0
H768 H 0.20486 0.41747 0.30151 0.0
H769 H 0.22929 0.37686 0.64255 0.0
H770 H 0.24263 0.42165 0.21354 0.0
H771 H 0.26669 0.38058 0.55352 0.0
H772 H 0.3346 0.40532 0.4314 0.0
H773 H 0.2969 0.40576 0.52479 0.0
H774 H 0.27102 0.40055 0.10062 0.0
H775 H 0.30836 0.40071 0.0079 0.0
C776 C 0.21823 0.40936 0.35726 0.0
C777 C 0.21399 0.39679 0.47883 0.0
C778 C 0.2399 0.41171 0.3068 0.0
C779 C 0.25782 0.40152 0.37666 0.0
C780 C 0.25346 0.38902 0.49833 0.0
C781 C 0.23189 0.38671 0.54868 0.0
C782 C 0.32084 0.40449 0.35828 0.0
C783 C 0.32456 0.40288 0.21229 0.0
C784 C 0.29921 0.4046 0.4117 0.0
C785 C 0.28082 0.40308 0.32033 0.0
C786 C 0.28465 0.40203 0.17425 0.0
C787 C 0.30618 0.40195 0.12109 0.0
H788 H 0.39403 0.80169 0.28543 0.0
H789 H 0.41896 0.82815 0.67788 0.0
H790 H 0.39623 0.76472 0.38099 0.0
H791 H 0.42191 0.79079 0.77287 0.0
H792 H 0.39724 0.72481 0.94941 0.0
H793 H 0.39891 0.76182 0.85388 0.0
H794 H 0.41993 0.73559 0.45165 0.0
H795 H 0.41749 0.69824 0.54681 0.0
C796 C 0.40023 0.79961 0.39198 0.0
C797 C 0.40621 0.81796 0.47427 0.0
C798 C 0.40168 0.77829 0.44649 0.0
C799 C 0.40929 0.77461 0.58479 0.0
C800 C 0.41567 0.79296 0.66654 0.0
C801 C 0.41409 0.8144 0.61204 0.0
C802 C 0.40232 0.72686 0.84059 0.0
C803 C 0.4071 0.70848 0.75548 0.0
C804 C 0.40346 0.74821 0.78602 0.0
C805 C 0.40954 0.75184 0.6448 0.0
C806 C 0.41483 0.73345 0.56032 0.0
C807 C 0.41356 0.71201 0.61492 0.0
H808 H 0.70559 0.64772 0.44172 0.0
H809 H 0.72865 0.63062 0.02488 0.0
H810 H 0.74361 0.64709 0.52835 0.0
H811 H 0.76641 0.6289 0.11181 0.0
H812 H 0.83445 0.64955 0.27448 0.0
H813 H 0.79648 0.64991 0.18606 0.0
H814 H 0.77359 0.62492 0.58769 0.0
H815 H 0.81121 0.62564 0.67688 0.0
C816 C 0.71876 0.64353 0.3691 0.0
C817 C 0.71408 0.63931 0.22646 0.0
C818 C 0.74062 0.64305 0.4187 0.0
C819 C 0.75833 0.63798 0.3273 0.0
C820 C 0.75344 0.63335 0.18512 0.0
C821 C 0.73168 0.63416 0.13532 0.0
C822 C 0.82127 0.64407 0.34327 0.0
C823 C 0.82584 0.6377 0.4828 0.0
C824 C 0.79944 0.64417 0.29263 0.0
C825 C 0.78172 0.63756 0.37972 0.0
C826 C 0.78655 0.63066 0.51817 0.0
C827 C 0.80824 0.63089 0.56915 0.0
H828 H 0.63233 0.23503 0.26541 0.0
H829 H 0.63112 0.2086 0.68888 0.0
H830 H 0.63271 0.27221 0.35944 0.0
H831 H 0.63091 0.24608 0.78366 0.0
H832 H 0.66083 0.31325 0.89501 0.0
H833 H 0.65634 0.27614 0.80538 0.0
H834 H 0.61235 0.30045 0.48077 0.0
H835 H 0.61727 0.33802 0.56949 0.0
C836 C 0.63187 0.23713 0.37892 0.0
C837 C 0.63187 0.21874 0.46962 0.0
C838 C 0.63192 0.25856 0.43288 0.0
C839 C 0.63193 0.26227 0.57928 0.0
C840 C 0.63126 0.24387 0.67024 0.0
C841 C 0.63123 0.22236 0.61605 0.0
C842 C 0.65015 0.31079 0.80447 0.0
C843 C 0.63947 0.32873 0.73914 0.0
C844 C 0.64741 0.28936 0.75381 0.0
C845 C 0.63388 0.28515 0.63621 0.0
C846 C 0.62307 0.30308 0.57086 0.0
C847 C 0.62584 0.32462 0.62179 0.0
loop_
_geom_bond_atom_site_label_1
_geom_bond_atom_site_label_2
_geom_bond_distance
_geom_bond_site_symmetry_2
_ccdc_geom_bond_type
Mg0 O7 2.141 . S
Mg0 O8 2.048 . S
Mg0 O9 2.048 . S
Mg0 O12 2.141 . S
C1 O2 1.313 1_554 S
C1 O8 1.195 . S
O2 C1 1.313 1_556 S
C3 O4 1.245 . S
C3 O12 1.289 . S
O4 C3 1.245 . S
C5 O6 1.245 1_554 S
C5 O7 1.289 . S
O6 C5 1.245 1_556 S
O7 Mg0 2.141 . S
O7 C5 1.289 . S
O8 Mg0 2.048 . S
O8 C1 1.195 . S
O9 Mg0 2.048 . S
O9 C10 1.195 . S
C10 O9 1.195 . S
C10 O11 1.313 . S
O11 C10 1.313 . S
O12 Mg0 2.141 . S
O12 C3 1.289 . S
Mg13 O20 2.141 . S
Mg13 O21 2.048 . S
Mg13 O22 2.048 . S
Mg13 O25 2.141 . S
C14 O15 1.313 . S
C14 O21 1.195 . S
O15 C14 1.313 . S
C16 O17 1.245 . S
C16 O25 1.289 . S
O17 C16 1.245 . S
C18 O19 1.245 . S
C18 O20 1.289 . S
O19 C18 1.245 . S
O20 Mg13 2.141 . S
O20 C18 1.289 . S
O21 Mg13 2.048 . S
O21 C14 1.195 . S
O22 Mg13 2.048 . S
O22 C23 1.195 . S
C23 O22 1.195 . S
C23 O24 1.313 . S
O24 C23 1.313 . S
O25 Mg13 2.141 . S
O25 C16 1.289 . S
Mg26 O33 2.141 . S
Mg26 O34 2.048 . S
Mg26 O35 2.048 . S
Mg26 O38 2.141 . S
C27 O28 1.313 1_554 S
C27 O34 1.195 . S
O28 C27 1.313 1_556 S
C29 O30 1.245 . S
C29 O38 1.289 . S
O30 C29 1.245 . S
C31 O32 1.245 1_554 S
C31 O33 1.289 . S
O32 C31 1.245 1_556 S
O33 Mg26 2.141 . S
O33 C31 1.289 . S
O34 Mg26 2.048 . S
O34 C27 1.195 . S
O35 Mg26 2.048 . S
O35 C36 1.195 . S
C36 O35 1.195 . S
C36 O37 1.313 . S
O37 C36 1.313 . S
O38 Mg26 2.141 . S
O38 C29 1.289 . S
Mg39 O46 2.141 . S
Mg39 O47 2.048 . S
Mg39 O48 2.048 . S
Mg39 O51 2.141 . S
C40 O41 1.313 . S
C40 O47 1.195 . S
O41 C40 1.313 . S
C42 O43 1.245 . S
C42 O51 1.289 . S
O43 C42 1.245 . S
C44 O45 1.245 . S
C44 O46 1.289 . S
O45 C44 1.245 . S
O46 Mg39 2.141 . S
O46 C44 1.289 . S
O47 Mg39 2.048 . S
O47 C40 1.195 . S
O48 Mg39 2.048 . S
O48 C49 1.195 . S
C49 O48 1.195 . S
C49 O50 1.313 . S
O50 C49 1.313 . S
O51 Mg39 2.141 . S
O51 C42 1.289 . S
Mg52 O59 2.141 . S
Mg52 O60 2.048 . S
Mg52 O61 2.048 1_554 S
Mg52 O64 2.141 . S
C53 O54 1.313 . S
C53 O60 1.195 . S
O54 C53 1.313 . S
C55 O56 1.245 . S
C55 O64 1.289 . S
O56 C55 1.245 . S
C57 O58 1.245 . S
C57 O59 1.289 . S
O58 C57 1.245 . S
O59 Mg52 2.141 . S
O59 C57 1.289 . S
O60 Mg52 2.048 . S
O60 C53 1.195 . S
O61 Mg52 2.048 1_556 S
O61 C62 1.195 1_556 S
C62 O61 1.195 1_554 S
C62 O63 1.313 . S
O63 C62 1.313 . S
O64 Mg52 2.141 . S
O64 C55 1.289 . S
Mg65 O72 2.141 . S
Mg65 O73 2.048 . S
Mg65 O74 2.048 . S
Mg65 O77 2.141 . S
C66 O67 1.313 1_556 S
C66 O73 1.195 . S
O67 C66 1.313 1_554 S
C68 O69 1.245 1_556 S
C68 O77 1.289 . S
O69 C68 1.245 1_554 S
C70 O71 1.245 . S
C70 O72 1.289 . S
O71 C70 1.245 . S
O72 Mg65 2.141 . S
O72 C70 1.289 . S
O73 Mg65 2.048 . S
O73 C66 1.195 . S
O74 Mg65 2.048 . S
O74 C75 1.195 . S
C75 O74 1.195 . S
C75 O76 1.313 1_556 S
O76 C75 1.313 1_554 S
O77 Mg65 2.141 . S
O77 C68 1.289 . S
Mg78 O85 2.141 . S
Mg78 O86 2.048 . S
Mg78 O87 2.048 1_554 S
Mg78 O90 2.141 . S
C79 O80 1.313 . S
C79 O86 1.195 . S
O80 C79 1.313 . S
C81 O82 1.245 . S
C81 O90 1.289 . S
O82 C81 1.245 . S
C83 O84 1.245 . S
C83 O85 1.289 . S
O84 C83 1.245 . S
O85 Mg78 2.141 . S
O85 C83 1.289 . S
O86 Mg78 2.048 . S
O86 C79 1.195 . S
O87 Mg78 2.048 1_556 S
O87 C88 1.195 1_556 S
C88 O87 1.195 1_554 S
C88 O89 1.313 . S
O89 C88 1.313 . S
O90 Mg78 2.141 . S
O90 C81 1.289 . S
Mg91 O98 2.141 . S
Mg91 O99 2.048 . S
Mg91 O100 2.048 . S
Mg91 O103 2.141 . S
C92 O93 1.313 1_556 S
C92 O99 1.195 . S
O93 C92 1.313 1_554 S
C94 O95 1.245 1_556 S
C94 O103 1.289 . S
O95 C94 1.245 1_554 S
C96 O97 1.245 . S
C96 O98 1.289 . S
O97 C96 1.245 . S
O98 Mg91 2.141 . S
O98 C96 1.289 . S
O99 Mg91 2.048 . S
O99 C92 1.195 . S
O100 Mg91 2.048 . S
O100 C101 1.195 . S
C101 O100 1.195 . S
C101 O102 1.313 1_556 S
O102 C101 1.313 1_554 S
O103 Mg91 2.141 . S
O103 C94 1.289 . S
Mg104 O111 2.141 . S
Mg104 O112 2.048 . S
Mg104 O113 2.048 . S
Mg104 O116 2.141 . S
C105 O106 1.313 . S
C105 O112 1.195 . S
O106 C105 1.313 . S
C107 O108 1.245 . S
C107 O116 1.289 . S
O108 C107 1.245 . S
C109 O110 1.245 . S
C109 O111 1.289 . S
O110 C109 1.245 . S
O111 Mg104 2.141 . S
O111 C109 1.289 . S
O112 Mg104 2.048 . S
O112 C105 1.195 . S
O113 Mg104 2.048 . S
O113 C114 1.195 . S
C114 O113 1.195 . S
C114 O115 1.313 . S
O115 C114 1.313 . S
O116 Mg104 2.141 . S
O116 C107 1.289 . S
Mg117 O124 2.141 . S
Mg117 O125 2.048 . S
Mg117 O126 2.048 . S
Mg117 O129 2.141 . S
C118 O119 1.313 . S
C118 O125 1.195 . S
O119 C118 1.313 . S
C120 O121 1.245 . S
C120 O129 1.289 . S
O121 C120 1.245 . S
C122 O123 1.245 . S
C122 O124 1.289 . S
O123 C122 1.245 . S
O124 Mg117 2.141 . S
O124 C122 1.289 . S
O125 Mg117 2.048 . S
O125 C118 1.195 . S
O126 Mg117 2.048 . S
O126 C127 1.195 . S
C127 O126 1.195 . S
C127 O128 1.313 . S
O128 C127 1.313 . S
O129 Mg117 2.141 . S
O129 C120 1.289 . S
Mg130 O137 2.141 . S
Mg130 O138 2.048 . S
Mg130 O139 2.048 . S
Mg130 O142 2.141 . S
C131 O132 1.313 . S
C131 O138 1.195 . S
O132 C131 1.313 . S
C133 O134 1.245 . S
C133 O142 1.289 . S
O134 C133 1.245 . S
C135 O136 1.245 . S
C135 O137 1.289 . S
O136 C135 1.245 . S
O137 Mg130 2.141 . S
O137 C135 1.289 . S
O138 Mg130 2.048 . S
O138 C131 1.195 . S
O139 Mg130 2.048 . S
O139 C140 1.195 . S
C140 O139 1.195 . S
C140 O141 1.313 . S
O141 C140 1.313 . S
O142 Mg130 2.141 . S
O142 C133 1.289 . S
Mg143 O150 2.141 . S
Mg143 O151 2.048 . S
Mg143 O152 2.048 . S
Mg143 O155 2.141 . S
C144 O145 1.313 . S
C144 O151 1.195 . S
O145 C144 1.313 . S
C146 O147 1.245 . S
C146 O155 1.289 . S
O147 C146 1.245 . S
C148 O149 1.245 . S
C148 O150 1.289 . S
O149 C148 1.245 . S
O150 Mg143 2.141 . S
O150 C148 1.289 . S
O151 Mg143 2.048 . S
O151 C144 1.195 . S
O152 Mg143 2.048 . S
O152 C153 1.195 . S
C153 O152 1.195 . S
C153 O154 1.313 . S
O154 C153 1.313 . S
O155 Mg143 2.141 . S
O155 C146 1.289 . S
Mg156 O163 2.141 . S
Mg156 O164 2.048 . S
Mg156 O165 2.048 . S
Mg156 O168 2.141 . S
C157 O158 1.313 . S
C157 O164 1.195 . S
O158 C157 1.313 . S
C159 O160 1.245 . S
C159 O168 1.289 . S
O160 C159 1.245 . S
C161 O162 1.245 . S
C161 O163 1.289 . S
O162 C161 1.245 . S
O163 Mg156 2.141 . S
O163 C161 1.289 . S
O164 Mg156 2.048 . S
O164 C157 1.195 . S
O165 Mg156 2.048 . S
O165 C166 1.195 . S
C166 O165 1.195 . S
C166 O167 1.313 . S
O167 C166 1.313 . S
O168 Mg156 2.141 . S
O168 C159 1.289 . S
Mg169 O176 2.141 . S
Mg169 O177 2.048 . S
Mg169 O178 2.048 . S
Mg169 O181 2.141 . S
C170 O171 1.313 . S
C170 O177 1.195 . S
O171 C170 1.313 . S
C172 O173 1.245 . S
C172 O181 1.289 . S
O173 C172 1.245 . S
C174 O175 1.245 . S
C174 O176 1.289 . S
O175 C174 1.245 . S
O176 Mg169 2.141 . S
O176 C174 1.289 . S
O177 Mg169 2.048 . S
O177 C170 1.195 . S
O178 Mg169 2.048 . S
O178 C179 1.195 . S
C179 O178 1.195 . S
C179 O180 1.313 . S
O180 C179 1.313 . S
O181 Mg169 2.141 . S
O181 C172 1.289 . S
Mg182 O189 2.141 . S
Mg182 O190 2.048 . S
Mg182 O191 2.048 . S
Mg182 O194 2.141 . S
C183 O184 1.313 . S
C183 O190 1.195 . S
O184 C183 1.313 . S
C185 O186 1.245 . S
C185 O194 1.289 . S
O186 C185 1.245 . S
C187 O188 1.245 . S
C187 O189 1.289 . S
O188 C187 1.245 . S
O189 Mg182 2.141 . S
O189 C187 1.289 . S
O190 Mg182 2.048 . S
O190 C183 1.195 . S
O191 Mg182 2.048 . S
O191 C192 1.195 . S
C192 O191 1.195 . S
C192 O193 1.313 . S
O193 C192 1.313 . S
O194 Mg182 2.141 . S
O194 C185 1.289 . S
Mg195 O202 2.141 . S
Mg195 O203 2.048 . S
Mg195 O204 2.048 . S
Mg195 O207 2.141 . S
C196 O197 1.313 . S
C196 O203 1.195 . S
O197 C196 1.313 . S
C198 O199 1.245 . S
C198 O207 1.289 . S
O199 C198 1.245 . S
C200 O201 1.245 . S
C200 O202 1.289 . S
O201 C200 1.245 . S
O202 Mg195 2.141 . S
O202 C200 1.289 . S
O203 Mg195 2.048 . S
O203 C196 1.195 . S
O204 Mg195 2.048 . S
O204 C205 1.195 . S
C205 O204 1.195 . S
C205 O206 1.313 . S
O206 C205 1.313 . S
O207 Mg195 2.141 . S
O207 C198 1.289 . S
H208 C216 0.950 . S
H209 C221 0.950 . S
H210 C218 0.950 . S
H211 C220 0.950 . S
H212 C222 0.950 1_556 S
H213 C224 0.950 . S
H214 C226 0.950 . S
H215 C227 0.950 . S
C216 H208 0.950 . S
C216 C217 1.386 . S
C216 C218 1.391 . S
C217 C216 1.386 . S
C217 C221 1.393 . S
C218 H210 0.950 . S
C218 C216 1.391 . S
C218 C219 1.400 . S
C219 C218 1.400 . S
C219 C220 1.398 . S
C219 C225 1.491 1_565 S
C220 H211 0.950 . S
C220 C219 1.398 . S
C220 C221 1.391 . S
C221 H209 0.950 . S
C221 C217 1.393 . S
C221 C220 1.391 . S
C222 H212 0.950 1_554 S
C222 C223 1.386 . S
C222 C224 1.391 . S
C223 C222 1.386 . S
C223 C227 1.393 . S
C224 H213 0.950 . S
C224 C222 1.391 . S
C224 C225 1.400 . S
C225 C219 1.491 1_545 S
C225 C224 1.400 . S
C225 C226 1.398 . S
C226 H214 0.950 . S
C226 C225 1.398 . S
C226 C227 1.391 . S
C227 H215 0.950 . S
C227 C223 1.393 . S
C227 C226 1.391 . S
H228 C236 0.950 1_554 S
H229 C241 0.950 . S
H230 C238 0.950 . S
H231 C240 0.950 . S
H232 C242 0.950 . S
H233 C244 0.950 . S
H234 C246 0.950 . S
H235 C247 0.950 . S
C236 H228 0.950 1_556 S
C236 C237 1.386 . S
C236 C238 1.391 . S
C237 C236 1.386 . S
C237 C241 1.393 . S
C238 H230 0.950 . S
C238 C236 1.391 . S
C238 C239 1.400 . S
C239 C238 1.400 . S
C239 C240 1.398 . S
C239 C245 1.491 1_455 S
C240 H231 0.950 . S
C240 C239 1.398 . S
C240 C241 1.391 . S
C241 H229 0.950 . S
C241 C237 1.393 . S
C241 C240 1.391 . S
C242 H232 0.950 . S
C242 C243 1.386 . S
C242 C244 1.391 . S
C243 C242 1.386 . S
C243 C247 1.393 . S
C244 H233 0.950 . S
C244 C242 1.391 . S
C244 C245 1.400 . S
C245 C239 1.491 1_655 S
C245 C244 1.400 . S
C245 C246 1.398 . S
C246 H234 0.950 . S
C246 C245 1.398 . S
C246 C247 1.391 . S
C247 H235 0.950 . S
C247 C243 1.393 . S
C247 C246 1.391 . S
H248 C256 0.950 . S
H249 C261 0.950 . S
H250 C258 0.950 . S
H251 C260 0.950 . S
H252 C262 0.950 . S
H253 C264 0.950 . S
H254 C266 0.950 . S
H255 C267 0.950 . S
C256 H248 0.950 . S
C256 C257 1.386 . S
C256 C258 1.391 . S
C257 C256 1.386 . S
C257 C261 1.393 . S
C258 H250 0.950 . S
C258 C256 1.391 . S
C258 C259 1.400 . S
C259 C258 1.400 . S
C259 C260 1.398 . S
C259 C265 1.491 1_565 S
C260 H251 0.950 . S
C260 C259 1.398 . S
C260 C261 1.391 . S
C261 H249 0.950 . S
C261 C257 1.393 . S
C261 C260 1.391 . S
C262 H252 0.950 . S
C262 C263 1.386 . S
C262 C264 1.391 . S
C263 C262 1.386 . S
C263 C267 1.393 . S
C264 H253 0.950 . S
C264 C262 1.391 . S
C264 C265 1.400 . S
C265 C259 1.491 1_545 S
C265 C264 1.400 . S
C265 C266 1.398 . S
C266 H254 0.950 . S
C266 C265 1.398 . S
C266 C267 1.391 . S
C267 H255 0.950 . S
C267 C263 1.393 . S
C267 C266 1.391 . S
H268 C276 0.950 . S
H269 C281 0.950 . S
H270 C278 0.950 . S
H271 C280 0.950 . S
H272 C282 0.950 . S
H273 C284 0.950 . S
H274 C286 0.950 . S
H275 C287 0.950 . S
C276 H268 0.950 . S
C276 C277 1.386 . S
C276 C278 1.391 . S
C277 C276 1.386 . S
C277 C281 1.393 . S
C278 H270 0.950 . S
C278 C276 1.391 . S
C278 C279 1.400 . S
C279 C278 1.400 . S
C279 C280 1.398 . S
C279 C285 1.491 1_455 S
C280 H271 0.950 . S
C280 C279 1.398 . S
C280 C281 1.391 . S
C281 H269 0.950 . S
C281 C277 1.393 . S
C281 C280 1.391 . S
C282 H272 0.950 . S
C282 C283 1.386 . S
C282 C284 1.391 . S
C283 C282 1.386 . S
C283 C287 1.393 . S
C284 H273 0.950 . S
C284 C282 1.391 . S
C284 C285 1.400 . S
C285 C279 1.491 1_655 S
C285 C284 1.400 . S
C285 C286 1.398 . S
C286 H274 0.950 . S
C286 C285 1.398 . S
C286 C287 1.391 . S
C287 H275 0.950 . S
C287 C283 1.393 . S
C287 C286 1.391 . S
H288 C296 0.950 1_556 S
H289 C301 0.950 . S
H290 C298 0.952 . S
H291 C300 0.950 . S
H292 C302 0.950 . S
H293 C304 0.950 . S
H294 C306 0.950 . S
H295 C307 0.950 . S
C296 H288 0.950 1_554 S
C296 C297 1.386 . S
C296 C298 1.391 1_554 S
C297 C296 1.386 . S
C297 C301 1.393 . S
C298 H290 0.952 . S
C298 C296 1.391 1_556 S
C298 C299 1.399 1_556 S
C299 C298 1.399 1_554 S
C299 C300 1.398 . S
C299 C305 1.491 . S
C300 H291 0.950 . S
C300 C299 1.398 . S
C300 C301 1.391 . S
C301 H289 0.950 . S
C301 C297 1.393 . S
C301 C300 1.391 . S
C302 H292 0.950 . S
C302 C303 1.386 1_554 S
C302 C304 1.391 . S
C303 C302 1.386 1_556 S
C303 C307 1.393 . S
C304 H293 0.950 . S
C304 C302 1.391 . S
C304 C305 1.400 . S
C305 C299 1.491 . S
C305 C304 1.400 . S
C305 C306 1.398 1_554 S
C306 H294 0.950 . S
C306 C305 1.398 1_556 S
C306 C307 1.391 . S
C307 H295 0.950 . S
C307 C303 1.393 . S
C307 C306 1.391 . S
H308 C316 0.950 . S
H309 C321 0.950 . S
H310 C318 0.950 . S
H311 C320 0.950 . S
H312 C322 0.950 . S
H313 C324 0.950 . S
H314 C326 0.950 . S
H315 C327 0.950 . S
C316 H308 0.950 . S
C316 C317 1.386 1_554 S
C316 C318 1.391 . S
C317 C316 1.386 1_556 S
C317 C321 1.393 . S
C318 H310 0.950 . S
C318 C316 1.391 . S
C318 C319 1.400 1_554 S
C319 C318 1.400 1_556 S
C319 C320 1.398 . S
C319 C325 1.491 . S
C320 H311 0.950 . S
C320 C319 1.398 . S
C320 C321 1.391 . S
C321 H309 0.950 . S
C321 C317 1.393 . S
C321 C320 1.391 . S
C322 H312 0.950 . S
C322 C323 1.386 1_556 S
C322 C324 1.391 . S
C323 C322 1.386 1_554 S
C323 C327 1.393 . S
C324 H313 0.950 . S
C324 C322 1.391 . S
C324 C325 1.400 . S
C325 C319 1.491 . S
C325 C324 1.400 . S
C325 C326 1.398 1_556 S
C326 H314 0.950 . S
C326 C325 1.398 1_554 S
C326 C327 1.391 . S
C327 H315 0.950 . S
C327 C323 1.393 . S
C327 C326 1.391 . S
H328 C336 0.950 . S
H329 C341 0.950 . S
H330 C338 0.950 . S
H331 C340 0.950 . S
H332 C342 0.950 1_556 S
H333 C344 0.950 . S
H334 C346 0.950 . S
H335 C347 0.950 . S
C336 H328 0.950 . S
C336 C337 1.386 1_554 S
C336 C338 1.391 . S
C337 C336 1.386 1_556 S
C337 C341 1.393 . S
C338 H330 0.950 . S
C338 C336 1.391 . S
C338 C339 1.400 . S
C339 C338 1.400 . S
C339 C340 1.398 1_554 S
C339 C345 1.491 . S
C340 H331 0.950 . S
C340 C339 1.398 1_556 S
C340 C341 1.391 . S
C341 H329 0.950 . S
C341 C337 1.393 . S
C341 C340 1.391 . S
C342 H332 0.950 1_554 S
C342 C343 1.386 . S
C342 C344 1.391 1_554 S
C343 C342 1.386 . S
C343 C347 1.393 . S
C344 H333 0.950 . S
C344 C342 1.391 1_556 S
C344 C345 1.400 1_556 S
C345 C339 1.491 . S
C345 C344 1.400 1_554 S
C345 C346 1.398 . S
C346 H334 0.950 . S
C346 C345 1.398 . S
C346 C347 1.391 . S
C347 H335 0.950 . S
C347 C343 1.393 . S
C347 C346 1.391 . S
H348 C356 0.950 . S
H349 C361 0.950 . S
H350 C358 0.950 . S
H351 C360 0.950 . S
H352 C362 0.950 . S
H353 C364 0.950 . S
H354 C366 0.950 . S
H355 C367 0.950 . S
C356 H348 0.950 . S
C356 C357 1.386 . S
C356 C358 1.391 . S
C357 C356 1.386 . S
C357 C361 1.393 1_554 S
C358 H350 0.950 . S
C358 C356 1.391 . S
C358 C359 1.400 1_554 S
C359 C358 1.400 1_556 S
C359 C360 1.398 . S
C359 C365 1.491 . S
C360 H351 0.950 . S
C360 C359 1.398 . S
C360 C361 1.391 . S
C361 H349 0.950 . S
C361 C357 1.393 1_556 S
C361 C360 1.391 . S
C362 H352 0.950 . S
C362 C363 1.386 . S
C362 C364 1.391 . S
C363 C362 1.386 . S
C363 C367 1.393 1_556 S
C364 H353 0.950 . S
C364 C362 1.391 . S
C364 C365 1.400 . S
C365 C359 1.491 . S
C365 C364 1.400 . S
C365 C366 1.398 1_556 S
C366 H354 0.950 . S
C366 C365 1.398 1_554 S
C366 C367 1.391 . S
C367 H355 0.950 . S
C367 C363 1.393 1_554 S
C367 C366 1.391 . S
H368 C376 0.950 . S
H369 C381 0.950 . S
H370 C378 0.950 . S
H371 C380 0.950 . S
H372 C382 0.950 . S
H373 C384 0.950 . S
H374 C386 0.950 . S
H375 C387 0.950 . S
C376 H368 0.950 . S
C376 C377 1.386 . S
C376 C378 1.391 . S
C377 C376 1.386 . S
C377 C381 1.393 . S
C378 H370 0.950 . S
C378 C376 1.391 . S
C378 C379 1.400 . S
C379 C378 1.400 . S
C379 C380 1.398 . S
C379 C385 1.491 . S
C380 H371 0.950 . S
C380 C379 1.398 . S
C380 C381 1.391 . S
C381 H369 0.950 . S
C381 C377 1.393 . S
C381 C380 1.391 . S
C382 H372 0.950 . S
C382 C383 1.386 . S
C382 C384 1.391 . S
C383 C382 1.386 . S
C383 C387 1.393 . S
C384 H373 0.950 . S
C384 C382 1.391 . S
C384 C385 1.400 . S
C385 C379 1.491 . S
C385 C384 1.400 . S
C385 C386 1.398 . S
C386 H374 0.950 . S
C386 C385 1.398 . S
C386 C387 1.391 . S
C387 H375 0.950 . S
C387 C383 1.393 . S
C387 C386 1.391 . S
H388 C396 0.950 . S
H389 C401 0.950 . S
H390 C398 0.950 . S
H391 C400 0.950 . S
H392 C402 0.950 . S
H393 C404 0.950 . S
H394 C406 0.950 . S
H395 C407 0.950 . S
C396 H388 0.950 . S
C396 C397 1.386 . S
C396 C398 1.391 . S
C397 C396 1.386 . S
C397 C401 1.393 . S
C398 H390 0.950 . S
C398 C396 1.391 . S
C398 C399 1.400 . S
C399 C398 1.400 . S
C399 C400 1.398 . S
C399 C405 1.491 . S
C400 H391 0.950 . S
C400 C399 1.398 . S
C400 C401 1.391 . S
C401 H389 0.950 . S
C401 C397 1.393 . S
C401 C400 1.391 . S
C402 H392 0.950 . S
C402 C403 1.386 . S
C402 C404 1.391 . S
C403 C402 1.386 . S
C403 C407 1.393 . S
C404 H393 0.950 . S
C404 C402 1.391 . S
C404 C405 1.400 . S
C405 C399 1.491 . S
C405 C404 1.400 . S
C405 C406 1.398 . S
C406 H394 0.950 . S
C406 C405 1.398 . S
C406 C407 1.391 . S
C407 H395 0.950 . S
C407 C403 1.393 . S
C407 C406 1.391 . S
H408 C416 0.950 . S
H409 C421 0.950 . S
H410 C418 0.950 . S
H411 C420 0.950 . S
H412 C422 0.950 . S
H413 C424 0.950 . S
H414 C426 0.950 . S
H415 C427 0.950 . S
C416 H408 0.950 . S
C416 C417 1.386 . S
C416 C418 1.391 . S
C417 C416 1.386 . S
C417 C421 1.393 . S
C418 H410 0.950 . S
C418 C416 1.391 . S
C418 C419 1.400 . S
C419 C418 1.400 . S
C419 C420 1.398 . S
C419 C425 1.491 . S
C420 H411 0.950 . S
C420 C419 1.398 . S
C420 C421 1.391 . S
C421 H409 0.950 . S
C421 C417 1.393 . S
C421 C420 1.391 . S
C422 H412 0.950 . S
C422 C423 1.386 . S
C422 C424 1.391 . S
C423 C422 1.386 . S
C423 C427 1.393 . S
C424 H413 0.950 . S
C424 C422 1.391 . S
C424 C425 1.400 . S
C425 C419 1.491 . S
C425 C424 1.400 . S
C425 C426 1.398 . S
C426 H414 0.950 . S
C426 C425 1.398 . S
C426 C427 1.391 . S
C427 H415 0.950 . S
C427 C423 1.393 . S
C427 C426 1.391 . S
H428 C436 0.950 . S
H429 C441 0.950 . S
H430 C438 0.950 . S
H431 C440 0.950 . S
H432 C442 0.950 . S
H433 C444 0.950 . S
H434 C446 0.950 . S
H435 C447 0.950 . S
C436 H428 0.950 . S
C436 C437 1.386 . S
C436 C438 1.391 . S
C437 C436 1.386 . S
C437 C441 1.393 . S
C438 H430 0.950 . S
C438 C436 1.391 . S
C438 C439 1.400 . S
C439 C438 1.400 . S
C439 C440 1.398 . S
C439 C445 1.491 . S
C440 H431 0.950 . S
C440 C439 1.398 . S
C440 C441 1.391 . S
C441 H429 0.950 . S
C441 C437 1.393 . S
C441 C440 1.391 . S
C442 H432 0.950 . S
C442 C443 1.386 . S
C442 C444 1.391 . S
C443 C442 1.386 . S
C443 C447 1.393 . S
C444 H433 0.950 . S
C444 C442 1.391 . S
C444 C445 1.400 . S
C445 C439 1.491 . S
C445 C444 1.400 . S
C445 C446 1.398 . S
C446 H434 0.950 . S
C446 C445 1.398 . S
C446 C447 1.391 . S
C447 H435 0.950 . S
C447 C443 1.393 . S
C447 C446 1.391 . S
H448 C456 0.950 . S
H449 C461 0.950 . S
H450 C458 0.950 . S
H451 C460 0.950 . S
H452 C462 0.950 . S
H453 C464 0.950 . S
H454 C466 0.950 . S
H455 C467 0.950 . S
C456 H448 0.950 . S
C456 C457 1.386 . S
C456 C458 1.391 . S
C457 C456 1.386 . S
C457 C461 1.393 . S
C458 H450 0.950 . S
C458 C456 1.391 . S
C458 C459 1.400 . S
C459 C458 1.400 . S
C459 C460 1.398 . S
C459 C465 1.491 1_565 S
C460 H451 0.950 . S
C460 C459 1.398 . S
C460 C461 1.391 . S
C461 H449 0.950 . S
C461 C457 1.393 . S
C461 C460 1.391 . S
C462 H452 0.950 . S
C462 C463 1.386 . S
C462 C464 1.391 . S
C463 C462 1.386 . S
C463 C467 1.393 . S
C464 H453 0.950 . S
C464 C462 1.391 . S
C464 C465 1.400 . S
C465 C459 1.491 1_545 S
C465 C464 1.400 . S
C465 C466 1.398 . S
C466 H454 0.950 . S
C466 C465 1.398 . S
C466 C467 1.391 . S
C467 H455 0.950 . S
C467 C463 1.393 . S
C467 C466 1.391 . S
H468 C476 0.950 . S
H469 C481 0.950 . S
H470 C478 0.950 . S
H471 C480 0.950 . S
H472 C482 0.950 . S
H473 C484 0.950 . S
H474 C486 0.950 . S
H475 C487 0.950 . S
C476 H468 0.950 . S
C476 C477 1.386 . S
C476 C478 1.391 . S
C477 C476 1.386 . S
C477 C481 1.393 . S
C478 H470 0.950 . S
C478 C476 1.391 . S
C478 C479 1.400 . S
C479 C478 1.400 . S
C479 C480 1.398 . S
C479 C485 1.491 1_655 S
C480 H471 0.950 . S
C480 C479 1.398 . S
C480 C481 1.391 . S
C481 H469 0.950 . S
C481 C477 1.393 . S
C481 C480 1.391 . S
C482 H472 0.950 . S
C482 C483 1.386 . S
C482 C484 1.391 . S
C483 C482 1.386 . S
C483 C487 1.393 . S
C484 H473 0.950 . S
C484 C482 1.391 . S
C484 C485 1.400 . S
C485 C479 1.491 1_455 S
C485 C484 1.400 . S
C485 C486 1.398 . S
C486 H474 0.950 . S
C486 C485 1.398 . S
C486 C487 1.391 . S
C487 H475 0.950 . S
C487 C483 1.393 . S
C487 C486 1.391 . S
H488 C496 0.950 . S
H489 C501 0.950 . S
H490 C498 0.950 . S
H491 C500 0.950 . S
H492 C502 0.950 . S
H493 C504 0.950 . S
H494 C506 0.950 . S
H495 C507 0.950 . S
C496 H488 0.950 . S
C496 C497 1.386 . S
C496 C498 1.391 . S
C497 C496 1.386 . S
C497 C501 1.393 . S
C498 H490 0.950 . S
C498 C496 1.391 . S
C498 C499 1.400 . S
C499 C498 1.400 . S
C499 C500 1.398 . S
C499 C505 1.491 1_565 S
C500 H491 0.950 . S
C500 C499 1.398 . S
C500 C501 1.391 . S
C501 H489 0.950 . S
C501 C497 1.393 . S
C501 C500 1.391 . S
C502 H492 0.950 . S
C502 C503 1.386 . S
C502 C504 1.391 . S
C503 C502 1.386 . S
C503 C507 1.393 . S
C504 H493 0.950 . S
C504 C502 1.391 . S
C504 C505 1.400 . S
C505 C499 1.491 1_545 S
C505 C504 1.400 . S
C505 C506 1.398 . S
C506 H494 0.950 . S
C506 C505 1.398 . S
C506 C507 1.391 . S
C507 H495 0.950 . S
C507 C503 1.393 . S
C507 C506 1.391 . S
H508 C516 0.950 . S
H509 C521 0.950 . S
H510 C518 0.950 . S
H511 C520 0.950 . S
H512 C522 0.950 . S
H513 C524 0.950 . S
H514 C526 0.950 . S
H515 C527 0.950 . S
C516 H508 0.950 . S
C516 C517 1.386 . S
C516 C518 1.391 . S
C517 C516 1.386 . S
C517 C521 1.393 . S
C518 H510 0.950 . S
C518 C516 1.391 . S
C518 C519 1.400 . S
C519 C518 1.400 . S
C519 C520 1.398 . S
C519 C525 1.491 1_655 S
C520 H511 0.950 . S
C520 C519 1.398 . S
C520 C521 1.391 . S
C521 H509 0.950 . S
C521 C517 1.393 . S
C521 C520 1.391 . S
C522 H512 0.950 . S
C522 C523 1.386 . S
C522 C524 1.391 . S
C523 C522 1.386 . S
C523 C527 1.393 . S
C524 H513 0.950 . S
C524 C522 1.391 . S
C524 C525 1.400 . S
C525 C519 1.491 1_455 S
C525 C524 1.400 . S
C525 C526 1.398 . S
C526 H514 0.950 . S
C526 C525 1.398 . S
C526 C527 1.391 . S
C527 H515 0.950 . S
C527 C523 1.393 . S
C527 C526 1.391 . S
H528 C536 0.950 . S
H529 C541 0.950 1_556 S
H530 C538 0.950 . S
H531 C540 0.950 1_556 S
H532 C542 0.950 1_556 S
H533 C544 0.950 1_556 S
H534 C546 0.950 . S
H535 C547 0.950 . S
C536 H528 0.950 . S
C536 C537 1.386 . S
C536 C538 1.391 . S
C537 C536 1.386 . S
C537 C541 1.393 . S
C538 H530 0.950 . S
C538 C536 1.391 . S
C538 C539 1.400 . S
C539 C538 1.400 . S
C539 C540 1.398 . S
C539 C545 1.491 . S
C540 H531 0.950 1_554 S
C540 C539 1.398 . S
C540 C541 1.391 . S
C541 H529 0.950 1_554 S
C541 C537 1.393 . S
C541 C540 1.391 . S
C542 H532 0.950 1_554 S
C542 C543 1.386 . S
C542 C544 1.391 . S
C543 C542 1.386 . S
C543 C547 1.393 . S
C544 H533 0.950 1_554 S
C544 C542 1.391 . S
C544 C545 1.400 . S
C545 C539 1.491 . S
C545 C544 1.400 . S
C545 C546 1.398 . S
C546 H534 0.950 . S
C546 C545 1.398 . S
C546 C547 1.391 . S
C547 H535 0.950 . S
C547 C543 1.393 . S
C547 C546 1.391 . S
H548 C556 0.950 . S
H549 C561 0.950 . S
H550 C558 0.950 . S
H551 C560 0.950 . S
H552 C562 0.950 . S
H553 C564 0.950 . S
H554 C566 0.950 . S
H555 C567 0.950 . S
C556 H548 0.950 . S
C556 C557 1.386 . S
C556 C558 1.391 . S
C557 C556 1.386 . S
C557 C561 1.393 . S
C558 H550 0.950 . S
C558 C556 1.391 . S
C558 C559 1.400 . S
C559 C558 1.400 . S
C559 C560 1.398 . S
C559 C565 1.491 . S
C560 H551 0.950 . S
C560 C559 1.398 . S
C560 C561 1.391 . S
C561 H549 0.950 . S
C561 C557 1.393 . S
C561 C560 1.391 . S
C562 H552 0.950 . S
C562 C563 1.386 . S
C562 C564 1.391 . S
C563 C562 1.386 . S
C563 C567 1.393 . S
C564 H553 0.950 . S
C564 C562 1.391 . S
C564 C565 1.400 . S
C565 C559 1.491 . S
C565 C564 1.400 . S
C565 C566 1.398 . S
C566 H554 0.950 . S
C566 C565 1.398 . S
C566 C567 1.391 . S
C567 H555 0.950 . S
C567 C563 1.393 . S
C567 C566 1.391 . S
H568 C576 0.950 . S
H569 C581 0.950 . S
H570 C578 0.950 . S
H571 C580 0.950 . S
H572 C582 0.950 . S
H573 C584 0.950 . S
H574 C586 0.950 . S
H575 C587 0.950 . S
C576 H568 0.950 . S
C576 C577 1.386 . S
C576 C578 1.391 . S
C577 C576 1.386 . S
C577 C581 1.393 . S
C578 H570 0.950 . S
C578 C576 1.391 . S
C578 C579 1.400 . S
C579 C578 1.400 . S
C579 C580 1.398 . S
C579 C585 1.491 . S
C580 H571 0.950 . S
C580 C579 1.398 . S
C580 C581 1.391 . S
C581 H569 0.950 . S
C581 C577 1.393 . S
C581 C580 1.391 . S
C582 H572 0.950 . S
C582 C583 1.386 . S
C582 C584 1.391 . S
C583 C582 1.386 . S
C583 C587 1.393 . S
C584 H573 0.950 . S
C584 C582 1.391 . S
C584 C585 1.400 . S
C585 C579 1.491 . S
C585 C584 1.400 . S
C585 C586 1.398 . S
C586 H574 0.950 . S
C586 C585 1.398 . S
C586 C587 1.391 . S
C587 H575 0.950 . S
C587 C583 1.393 . S
C587 C586 1.391 . S
H588 C596 0.950 . S
H589 C601 0.950 . S
H590 C598 0.950 . S
H591 C600 0.950 . S
H592 C602 0.950 . S
H593 C604 0.950 . S
H594 C606 0.950 . S
H595 C607 0.950 . S
C596 H588 0.950 . S
C596 C597 1.386 . S
C596 C598 1.391 . S
C597 C596 1.386 . S
C597 C601 1.393 . S
C598 H590 0.950 . S
C598 C596 1.391 . S
C598 C599 1.400 . S
C599 C598 1.400 . S
C599 C600 1.398 . S
C599 C605 1.491 . S
C600 H591 0.950 . S
C600 C599 1.398 . S
C600 C601 1.391 . S
C601 H589 0.950 . S
C601 C597 1.393 . S
C601 C600 1.391 . S
C602 H592 0.950 . S
C602 C603 1.386 . S
C602 C604 1.391 . S
C603 C602 1.386 . S
C603 C607 1.393 . S
C604 H593 0.950 . S
C604 C602 1.391 . S
C604 C605 1.400 . S
C605 C599 1.491 . S
C605 C604 1.400 . S
C605 C606 1.398 . S
C606 H594 0.950 . S
C606 C605 1.398 . S
C606 C607 1.391 . S
C607 H595 0.950 . S
C607 C603 1.393 . S
C607 C606 1.391 . S
H608 C616 0.950 . S
H609 C621 0.950 . S
H610 C618 0.950 . S
H611 C620 0.950 . S
H612 C622 0.950 . S
H613 C624 0.950 . S
H614 C626 0.950 . S
H615 C627 0.950 . S
C616 H608 0.950 . S
C616 C617 1.386 . S
C616 C618 1.391 . S
C617 C616 1.386 . S
C617 C621 1.393 . S
C618 H610 0.950 . S
C618 C616 1.391 . S
C618 C619 1.400 . S
C619 C618 1.400 . S
C619 C620 1.398 . S
C619 C625 1.491 . S
C620 H611 0.950 . S
C620 C619 1.398 . S
C620 C621 1.391 . S
C621 H609 0.950 . S
C621 C617 1.393 . S
C621 C620 1.391 . S
C622 H612 0.950 . S
C622 C623 1.386 . S
C622 C624 1.391 . S
C623 C622 1.386 . S
C623 C627 1.393 . S
C624 H613 0.950 . S
C624 C622 1.391 . S
C624 C625 1.400 . S
C625 C619 1.491 . S
C625 C624 1.400 . S
C625 C626 1.398 . S
C626 H614 0.950 . S
C626 C625 1.398 . S
C626 C627 1.391 . S
C627 H615 0.950 . S
C627 C623 1.393 . S
C627 C626 1.391 . S
H628 C636 0.950 . S
H629 C641 0.950 . S
H630 C638 0.950 . S
H631 C640 0.950 . S
H632 C642 0.950 . S
H633 C644 0.950 . S
H634 C646 0.950 . S
H635 C647 0.950 . S
C636 H628 0.950 . S
C636 C637 1.386 . S
C636 C638 1.391 . S
C637 C636 1.386 . S
C637 C641 1.393 . S
C638 H630 0.950 . S
C638 C636 1.391 . S
C638 C639 1.400 . S
C639 C638 1.400 . S
C639 C640 1.398 . S
C639 C645 1.491 . S
C640 H631 0.950 . S
C640 C639 1.398 . S
C640 C641 1.391 . S
C641 H629 0.950 . S
C641 C637 1.393 . S
C641 C640 1.391 . S
C642 H632 0.950 . S
C642 C643 1.386 . S
C642 C644 1.391 . S
C643 C642 1.386 . S
C643 C647 1.393 . S
C644 H633 0.950 . S
C644 C642 1.391 . S
C644 C645 1.400 . S
C645 C639 1.491 . S
C645 C644 1.400 . S
C645 C646 1.398 . S
C646 H634 0.950 . S
C646 C645 1.398 . S
C646 C647 1.391 . S
C647 H635 0.950 . S
C647 C643 1.393 . S
C647 C646 1.391 . S
H648 C656 0.950 . S
H649 C661 0.950 . S
H650 C658 0.950 . S
H651 C660 0.950 . S
H652 C662 0.950 . S
H653 C664 0.950 . S
H654 C666 0.950 . S
H655 C667 0.950 . S
C656 H648 0.950 . S
C656 C657 1.386 . S
C656 C658 1.391 . S
C657 C656 1.386 . S
C657 C661 1.393 . S
C658 H650 0.950 . S
C658 C656 1.391 . S
C658 C659 1.400 . S
C659 C658 1.400 . S
C659 C660 1.398 . S
C659 C665 1.491 . S
C660 H651 0.950 . S
C660 C659 1.398 . S
C660 C661 1.391 . S
C661 H649 0.950 . S
C661 C657 1.393 . S
C661 C660 1.391 . S
C662 H652 0.950 . S
C662 C663 1.386 . S
C662 C664 1.391 . S
C663 C662 1.386 . S
C663 C667 1.393 . S
C664 H653 0.950 . S
C664 C662 1.391 . S
C664 C665 1.400 . S
C665 C659 1.491 . S
C665 C664 1.400 . S
C665 C666 1.398 . S
C666 H654 0.950 . S
C666 C665 1.398 . S
C666 C667 1.391 . S
C667 H655 0.950 . S
C667 C663 1.393 . S
C667 C666 1.391 . S
H668 C676 0.950 . S
H669 C681 0.950 . S
H670 C678 0.950 . S
H671 C680 0.950 . S
H672 C682 0.950 . S
H673 C684 0.950 . S
H674 C686 0.950 . S
H675 C687 0.950 . S
C676 H668 0.950 . S
C676 C677 1.386 . S
C676 C678 1.391 . S
C677 C676 1.386 . S
C677 C681 1.393 . S
C678 H670 0.950 . S
C678 C676 1.391 . S
C678 C679 1.400 . S
C679 C678 1.400 . S
C679 C680 1.398 . S
C679 C685 1.491 . S
C680 H671 0.950 . S
C680 C679 1.398 . S
C680 C681 1.391 . S
C681 H669 0.950 . S
C681 C677 1.393 . S
C681 C680 1.391 . S
C682 H672 0.950 . S
C682 C683 1.386 . S
C682 C684 1.391 . S
C683 C682 1.386 . S
C683 C687 1.393 . S
C684 H673 0.950 . S
C684 C682 1.391 . S
C684 C685 1.400 . S
C685 C679 1.491 . S
C685 C684 1.400 . S
C685 C686 1.398 . S
C686 H674 0.950 . S
C686 C685 1.398 . S
C686 C687 1.391 . S
C687 H675 0.950 . S
C687 C683 1.393 . S
C687 C686 1.391 . S
H688 C696 0.950 . S
H689 C701 0.950 . S
H690 C698 0.950 . S
H691 C700 0.950 . S
H692 C702 0.950 . S
H693 C704 0.950 . S
H694 C706 0.950 . S
H695 C707 0.950 . S
C696 H688 0.950 . S
C696 C697 1.386 . S
C696 C698 1.391 . S
C697 C696 1.386 . S
C697 C701 1.393 . S
C698 H690 0.950 . S
C698 C696 1.391 . S
C698 C699 1.400 . S
C699 C698 1.400 . S
C699 C700 1.398 . S
C699 C705 1.491 . S
C700 H691 0.950 . S
C700 C699 1.398 . S
C700 C701 1.391 . S
C701 H689 0.950 . S
C701 C697 1.393 . S
C701 C700 1.391 . S
C702 H692 0.950 . S
C702 C703 1.386 . S
C702 C704 1.391 . S
C703 C702 1.386 . S
C703 C707 1.393 1_554 S
C704 H693 0.950 . S
C704 C702 1.391 . S
C704 C705 1.400 1_554 S
C705 C699 1.491 . S
C705 C704 1.400 1_556 S
C705 C706 1.398 . S
C706 H694 0.950 . S
C706 C705 1.398 . S
C706 C707 1.391 . S
C707 H695 0.950 . S
C707 C703 1.393 1_556 S
C707 C706 1.391 . S
H708 C716 0.950 . S
H709 C721 0.950 . S
H710 C718 0.950 . S
H711 C720 0.950 1_556 S
H712 C722 0.950 . S
H713 C724 0.950 . S
H714 C726 0.950 . S
H715 C727 0.950 . S
C716 H708 0.950 . S
C716 C717 1.386 . S
C716 C718 1.391 . S
C717 C716 1.386 . S
C717 C721 1.393 . S
C718 H710 0.950 . S
C718 C716 1.391 . S
C718 C719 1.400 . S
C719 C718 1.400 . S
C719 C720 1.398 . S
C719 C725 1.491 . S
C720 H711 0.950 1_554 S
C720 C719 1.398 . S
C720 C721 1.391 . S
C721 H709 0.950 . S
C721 C717 1.393 . S
C721 C720 1.391 . S
C722 H712 0.950 . S
C722 C723 1.386 . S
C722 C724 1.391 . S
C723 C722 1.386 . S
C723 C727 1.393 1_556 S
C724 H713 0.950 . S
C724 C722 1.391 . S
C724 C725 1.400 1_556 S
C725 C719 1.491 . S
C725 C724 1.400 1_554 S
C725 C726 1.398 . S
C726 H714 0.950 . S
C726 C725 1.398 . S
C726 C727 1.391 . S
C727 H715 0.950 . S
C727 C723 1.393 1_554 S
C727 C726 1.391 . S
H728 C736 0.950 . S
H729 C741 0.950 . S
H730 C738 0.950 . S
H731 C740 0.950 . S
H732 C742 0.950 . S
H733 C744 0.950 . S
H734 C746 0.950 . S
H735 C747 0.950 . S
C736 H728 0.950 . S
C736 C737 1.386 . S
C736 C738 1.391 . S
C737 C736 1.386 . S
C737 C741 1.393 1_554 S
C738 H730 0.950 . S
C738 C736 1.391 . S
C738 C739 1.400 1_554 S
C739 C738 1.400 1_556 S
C739 C740 1.398 . S
C739 C745 1.491 . S
C740 H731 0.950 . S
C740 C739 1.398 . S
C740 C741 1.391 . S
C741 H729 0.950 . S
C741 C737 1.393 1_556 S
C741 C740 1.391 . S
C742 H732 0.950 . S
C742 C743 1.386 . S
C742 C744 1.391 . S
C743 C742 1.386 . S
C743 C747 1.393 . S
C744 H733 0.950 . S
C744 C742 1.391 . S
C744 C745 1.400 . S
C745 C739 1.491 . S
C745 C744 1.400 . S
C745 C746 1.398 . S
C746 H734 0.950 . S
C746 C745 1.398 . S
C746 C747 1.391 . S
C747 H735 0.950 . S
C747 C743 1.393 . S
C747 C746 1.391 . S
H748 C756 0.950 . S
H749 C761 0.950 . S
H750 C758 0.950 . S
H751 C760 0.950 . S
H752 C762 0.950 . S
H753 C764 0.950 . S
H754 C766 0.950 1_556 S
H755 C767 0.950 . S
C756 H748 0.950 . S
C756 C757 1.386 . S
C756 C758 1.391 . S
C757 C756 1.386 . S
C757 C761 1.393 . S
C758 H750 0.950 . S
C758 C756 1.391 . S
C758 C759 1.400 . S
C759 C758 1.400 . S
C759 C760 1.398 . S
C759 C765 1.491 . S
C760 H751 0.950 . S
C760 C759 1.398 . S
C760 C761 1.391 . S
C761 H749 0.950 . S
C761 C757 1.393 . S
C761 C760 1.391 . S
C762 H752 0.950 . S
C762 C763 1.386 1_554 S
C762 C764 1.391 . S
C763 C762 1.386 1_556 S
C763 C767 1.393 . S
C764 H753 0.950 . S
C764 C762 1.391 . S
C764 C765 1.400 . S
C765 C759 1.491 . S
C765 C764 1.400 . S
C765 C766 1.398 . S
C766 H754 0.950 1_554 S
C766 C765 1.398 . S
C766 C767 1.391 1_554 S
C767 H755 0.950 . S
C767 C763 1.393 . S
C767 C766 1.391 1_556 S
H768 C776 0.950 . S
H769 C781 0.950 . S
H770 C778 0.950 . S
H771 C780 0.950 . S
H772 C782 0.950 . S
H773 C784 0.950 . S
H774 C786 0.950 . S
H775 C787 0.950 . S
C776 H768 0.950 . S
C776 C777 1.386 . S
C776 C778 1.391 . S
C777 C776 1.386 . S
C777 C781 1.393 . S
C778 H770 0.950 . S
C778 C776 1.391 . S
C778 C779 1.400 . S
C779 C778 1.400 . S
C779 C780 1.398 . S
C779 C785 1.491 . S
C780 H771 0.950 . S
C780 C779 1.398 . S
C780 C781 1.391 . S
C781 H769 0.950 . S
C781 C777 1.393 . S
C781 C780 1.391 . S
C782 H772 0.950 . S
C782 C783 1.386 . S
C782 C784 1.391 . S
C783 C782 1.386 . S
C783 C787 1.393 . S
C784 H773 0.950 . S
C784 C782 1.391 . S
C784 C785 1.400 . S
C785 C779 1.491 . S
C785 C784 1.400 . S
C785 C786 1.398 . S
C786 H774 0.950 . S
C786 C785 1.398 . S
C786 C787 1.391 . S
C787 H775 0.950 . S
C787 C783 1.393 . S
C787 C786 1.391 . S
H788 C796 0.950 . S
H789 C801 0.950 . S
H790 C798 0.950 . S
H791 C800 0.950 . S
H792 C802 0.950 . S
H793 C804 0.950 . S
H794 C806 0.950 . S
H795 C807 0.950 . S
C796 H788 0.950 . S
C796 C797 1.386 . S
C796 C798 1.391 . S
C797 C796 1.386 . S
C797 C801 1.393 . S
C798 H790 0.950 . S
C798 C796 1.391 . S
C798 C799 1.400 . S
C799 C798 1.400 . S
C799 C800 1.398 . S
C799 C805 1.491 . S
C800 H791 0.950 . S
C800 C799 1.398 . S
C800 C801 1.391 . S
C801 H789 0.950 . S
C801 C797 1.393 . S
C801 C800 1.391 . S
C802 H792 0.950 . S
C802 C803 1.386 . S
C802 C804 1.391 . S
C803 C802 1.386 . S
C803 C807 1.393 . S
C804 H793 0.950 . S
C804 C802 1.391 . S
C804 C805 1.400 . S
C805 C799 1.491 . S
C805 C804 1.400 . S
C805 C806 1.398 . S
C806 H794 0.950 . S
C806 C805 1.398 . S
C806 C807 1.391 . S
C807 H795 0.950 . S
C807 C803 1.393 . S
C807 C806 1.391 . S
H808 C816 0.950 . S
H809 C821 0.950 . S
H810 C818 0.950 . S
H811 C820 0.950 . S
H812 C822 0.950 . S
H813 C824 0.950 . S
H814 C826 0.950 . S
H815 C827 0.950 . S
C816 H808 0.950 . S
C816 C817 1.386 . S
C816 C818 1.391 . S
C817 C816 1.386 . S
C817 C821 1.393 . S
C818 H810 0.950 . S
C818 C816 1.391 . S
C818 C819 1.400 . S
C819 C818 1.400 . S
C819 C820 1.398 . S
C819 C825 1.491 . S
C820 H811 0.950 . S
C820 C819 1.398 . S
C820 C821 1.391 . S
C821 H809 0.950 . S
C821 C817 1.393 . S
C821 C820 1.391 . S
C822 H812 0.950 . S
C822 C823 1.386 . S
C822 C824 1.391 . S
C823 C822 1.386 . S
C823 C827 1.393 . S
C824 H813 0.950 . S
C824 C822 1.391 . S
C824 C825 1.400 . S
C825 C819 1.491 . S
C825 C824 1.400 . S
C825 C826 1.398 . S
C826 H814 0.950 . S
C826 C825 1.398 . S
C826 C827 1.391 . S
C827 H815 0.950 . S
C827 C823 1.393 . S
C827 C826 1.391 . S
H828 C836 0.950 . S
H829 C841 0.950 . S
H830 C838 0.950 . S
H831 C840 0.950 . S
H832 C842 0.950 . S
H833 C844 0.950 . S
H834 C846 0.950 . S
H835 C847 0.950 . S
C836 H828 0.950 . S
C836 C837 1.386 . S
C836 C838 1.391 . S
C837 C836 1.386 . S
C837 C841 1.393 . S
C838 H830 0.950 . S
C838 C836 1.391 . S
C838 C839 1.400 . S
C839 C838 1.400 . S
C839 C840 1.398 . S
C839 C845 1.491 . S
C840 H831 0.950 . S
C840 C839 1.398 . S
C840 C841 1.391 . S
C841 H829 0.950 . S
C841 C837 1.393 . S
C841 C840 1.391 . S
C842 H832 0.950 . S
C842 C843 1.386 . S
C842 C844 1.391 . S
C843 C842 1.386 . S
C843 C847 1.393 . S
C844 H833 0.950 . S
C844 C842 1.391 . S
C844 C845 1.400 . S
C845 C839 1.491 . S
C845 C844 1.400 . S
C845 C846 1.398 . S
C846 H834 0.950 . S
C846 C845 1.398 . S
C846 C847 1.391 . S
C847 H835 0.950 . S
C847 C843 1.393 . S
C847 C846 1.391 . S
C217 C153 1.525 . S
C223 C3 1.515 . S
C237 C16 1.504 . S
C243 C114 1.513 . S
C257 C29 1.519 . S
C263 C127 1.524 . S
C277 C140 1.502 . S
C283 C42 1.516 . S
C297 C55 1.521 . S
C303 C75 1.522 . S
C317 C68 1.510 . S
C323 C88 1.509 . S
C337 C101 1.520 . S
C343 C81 1.521 . S
C357 C62 1.509 . S
C363 C94 1.510 . S
C377 C49 1.521 . S
C383 C107 1.517 . S
C397 C120 1.503 . S
C403 C10 1.514 . S
C417 C23 1.521 . S
C423 C133 1.517 . S
C437 C146 1.503 . S
C443 C36 1.515 . S
C457 C159 1.519 . S
C463 C179 1.523 . S
C477 C172 1.516 . S
C483 C192 1.501 . S
C497 C205 1.524 . S
C503 C185 1.519 . S
C517 C166 1.504 . S
C523 C198 1.512 . S
C537 C53 1.516 . S
C543 C1 1.513 . S
C557 C14 1.494 . S
C563 C66 1.494 . S
C577 C27 1.515 . S
C583 C79 1.515 . S
C597 C92 1.493 . S
C603 C40 1.494 . S
C617 C105 1.510 . S
C623 C157 1.514 . S
C637 C170 1.493 . S
C643 C118 1.493 . S
C657 C131 1.516 . S
C663 C183 1.512 . S
C677 C196 1.497 . S
C683 C144 1.498 . S
C697 C187 1.512 . S
C703 C5 1.510 . S
C717 C200 1.549 . S
C723 C18 1.550 . S
C737 C31 1.511 . S
C743 C161 1.509 . S
C757 C174 1.547 . S
C763 C44 1.547 . S
C777 C135 1.509 . S
C783 C57 1.509 . S
C797 C148 1.548 . S
C803 C70 1.549 . S
C817 C83 1.523 . S
C823 C109 1.521 . S
C837 C122 1.548 . S
C843 C96 1.549 . S
