# Generated by pormake.
# Topology wjd, (6)-cn, num edge types: 1
# Building blocks:
#     Node 0, Type 0, BuildingBlock: MIDCAF_clean_sbu_0, # of connection points: 6
#     Node 1, Type 0, BuildingBlock: MIDCAF_clean_sbu_0, # of connection points: 6
#     Node 2, Type 0, BuildingBlock: MIDCAF_clean_sbu_0, # of connection points: 6
#     Node 3, Type 0, BuildingBlock: MIDCAF_clean_sbu_0, # of connection points: 6
#     Node 4, Type 0, BuildingBlock: MIDCAF_clean_sbu_0, # of connection points: 6
#     Node 5, Type 0, BuildingBlock: MIDCAF_clean_sbu_0, # of connection points: 6
#     Node 6, Type 0, BuildingBlock: MIDCAF_clean_sbu_0, # of connection points: 6
#     Node 7, Type 0, BuildingBlock: MIDCAF_clean_sbu_0, # of connection points: 6
#     Node 8, Type 0, BuildingBlock: MIDCAF_clean_sbu_0, # of connection points: 6
#     Node 9, Type 0, BuildingBlock: MIDCAF_clean_sbu_0, # of connection points: 6
#     Node 10, Type 0, BuildingBlock: MIDCAF_clean_sbu_0, # of connection points: 6
#     Node 11, Type 0, BuildingBlock: MIDCAF_clean_sbu_0, # of connection points: 6
#     Edge 12, Type (0, 0), BuildingBlock: XIVTED_clean_linker_0, # of connection points: 2
#     Edge 13, Type (0, 0), BuildingBlock: XIVTED_clean_linker_0, # of connection points: 2
#     Edge 14, Type (0, 0), BuildingBlock: XIVTED_clean_linker_0, # of connection points: 2
#     Edge 15, Type (0, 0), BuildingBlock: XIVTED_clean_linker_0, # of connection points: 2
#     Edge 16, Type (0, 0), BuildingBlock: XIVTED_clean_linker_0, # of connection points: 2
#     Edge 17, Type (0, 0), BuildingBlock: XIVTED_clean_linker_0, # of connection points: 2
#     Edge 18, Type (0, 0), BuildingBlock: XIVTED_clean_linker_0, # of connection points: 2
#     Edge 19, Type (0, 0), BuildingBlock: XIVTED_clean_linker_0, # of connection points: 2
#     Edge 20, Type (0, 0), BuildingBlock: XIVTED_clean_linker_0, # of connection points: 2
#     Edge 21, Type (0, 0), BuildingBlock: XIVTED_clean_linker_0, # of connection points: 2
#     Edge 22, Type (0, 0), BuildingBlock: XIVTED_clean_linker_0, # of connection points: 2
#     Edge 23, Type (0, 0), BuildingBlock: XIVTED_clean_linker_0, # of connection points: 2
#     Edge 24, Type (0, 0), BuildingBlock: XIVTED_clean_linker_0, # of connection points: 2
#     Edge 25, Type (0, 0), BuildingBlock: XIVTED_clean_linker_0, # of connection points: 2
#     Edge 26, Type (0, 0), BuildingBlock: XIVTED_clean_linker_0, # of connection points: 2
#     Edge 27, Type (0, 0), BuildingBlock: XIVTED_clean_linker_0, # of connection points: 2
#     Edge 28, Type (0, 0), BuildingBlock: XIVTED_clean_linker_0, # of connection points: 2
#     Edge 29, Type (0, 0), BuildingBlock: XIVTED_clean_linker_0, # of connection points: 2
#     Edge 30, Type (0, 0), BuildingBlock: XIVTED_clean_linker_0, # of connection points: 2
#     Edge 31, Type (0, 0), BuildingBlock: XIVTED_clean_linker_0, # of connection points: 2
#     Edge 32, Type (0, 0), BuildingBlock: XIVTED_clean_linker_0, # of connection points: 2
#     Edge 33, Type (0, 0), BuildingBlock: XIVTED_clean_linker_0, # of connection points: 2
#     Edge 34, Type (0, 0), BuildingBlock: XIVTED_clean_linker_0, # of connection points: 2
#     Edge 35, Type (0, 0), BuildingBlock: XIVTED_clean_linker_0, # of connection points: 2
#     Edge 36, Type (0, 0), BuildingBlock: XIVTED_clean_linker_0, # of connection points: 2
#     Edge 37, Type (0, 0), BuildingBlock: XIVTED_clean_linker_0, # of connection points: 2
#     Edge 38, Type (0, 0), BuildingBlock: XIVTED_clean_linker_0, # of connection points: 2
#     Edge 39, Type (0, 0), BuildingBlock: XIVTED_clean_linker_0, # of connection points: 2
#     Edge 40, Type (0, 0), BuildingBlock: XIVTED_clean_linker_0, # of connection points: 2
#     Edge 41, Type (0, 0), BuildingBlock: XIVTED_clean_linker_0, # of connection points: 2
#     Edge 42, Type (0, 0), BuildingBlock: XIVTED_clean_linker_0, # of connection points: 2
#     Edge 43, Type (0, 0), BuildingBlock: XIVTED_clean_linker_0, # of connection points: 2
#     Edge 44, Type (0, 0), BuildingBlock: XIVTED_clean_linker_0, # of connection points: 2
#     Edge 45, Type (0, 0), BuildingBlock: XIVTED_clean_linker_0, # of connection points: 2
#     Edge 46, Type (0, 0), BuildingBlock: XIVTED_clean_linker_0, # of connection points: 2
#     Edge 47, Type (0, 0), BuildingBlock: XIVTED_clean_linker_0, # of connection points: 2
# Relax obj value: 0.343
# Max RMSD: 0.250
# Mean RMSD: 0.250
data_MOF--net-wjd--node1-MIDCAF_clean_sbu_0--edge1-XIVTED_clean_linker_0
_symmetry_space_group_name_H-M    P1
_symmetry_Int_Tables_number       1
_symmetry_cell_setting            triclinic
loop_
_symmetry_equiv_pos_as_xyz
'x, y, z'
_cell_length_a     27.98215
_cell_length_b     28.086393
_cell_length_c     60.221155
_cell_angle_alpha  89.950866
_cell_angle_beta   90.042426
_cell_angle_gamma 119.91433
loop_
_atom_site_label
_atom_site_type_symbol
_atom_site_fract_x
_atom_site_fract_y
_atom_site_fract_z
_atom_type_partial_charge
Zn0 Zn 0.23518 0.0459 0.12174 0.0
Zn1 Zn 0.41337 0.13926 0.09864 0.0
Zn2 Zn 0.32917 0.09332 0.11922 0.0
C3 C 0.40578 0.2186 0.12631 0.0
C4 C 0.41473 0.06162 0.13008 0.0
O5 O 0.29931 0.00604 0.12776 0.0
O6 O 0.23708 0.98858 0.10231 0.0
C7 C 0.26325 0.15249 0.12037 0.0
O8 O 0.3659 0.17498 0.13518 0.0
O9 O 0.42848 0.21467 0.10872 0.0
O10 O 0.44417 0.10163 0.11739 0.0
O11 O 0.36346 0.04534 0.13252 0.0
O12 O 0.22968 0.1102 0.10963 0.0
O13 O 0.30191 0.15124 0.13145 0.0
O14 O 0.32204 0.12726 0.15057 0.0
O15 O 0.25189 0.04434 0.15548 0.0
C16 C 0.29182 0.08729 0.16384 0.0
O17 O 0.29904 0.0846 0.08598 0.0
O18 O 0.37618 0.10366 0.06937 0.0
C19 C 0.2616 0.97124 0.11468 0.0
C20 C 0.32475 0.08522 0.06851 0.0
Zn21 Zn 0.72572 0.59 0.40608 0.0
Zn22 Zn 0.7738 0.76504 0.34153 0.0
Zn23 Zn 0.73697 0.66349 0.37855 0.0
C24 C 0.77805 0.67162 0.32481 0.0
C25 C 0.84503 0.773 0.38275 0.0
O26 O 0.77959 0.70108 0.41113 0.0
O27 O 0.74959 0.63079 0.43419 0.0
C28 C 0.62094 0.57046 0.39082 0.0
O29 O 0.76126 0.65035 0.34434 0.0
O30 O 0.78728 0.71948 0.31997 0.0
O31 O 0.8373 0.78791 0.36382 0.0
O32 O 0.80623 0.73182 0.39296 0.0
O33 O 0.64518 0.54717 0.39944 0.0
O34 O 0.64868 0.61985 0.38364 0.0
O35 O 0.76241 0.6129 0.36044 0.0
O36 O 0.77825 0.57496 0.38959 0.0
C37 C 0.78292 0.58523 0.36905 0.0
O38 O 0.66636 0.67475 0.37777 0.0
O39 O 0.69108 0.71659 0.34657 0.0
C40 C 0.77518 0.68197 0.43101 0.0
C41 C 0.67036 0.71348 0.36541 0.0
Zn42 Zn 0.92652 0.18092 0.15048 0.0
Zn43 Zn 0.85202 0.25998 0.10557 0.0
Zn44 Zn 0.89837 0.22727 0.12625 0.0
C45 C 0.77258 0.1748 0.1287 0.0
C46 C 0.9314 0.34259 0.13248 0.0
O47 O 0.98646 0.28502 0.13186 0.0
O48 O -0.00034 0.21442 0.13579 0.0
C49 C 0.85265 0.10964 0.1183 0.0
O50 O 0.81522 0.19418 0.14144 0.0
O51 O 0.77834 0.19225 0.10904 0.0
O52 O 0.88098 0.32205 0.12752 0.0
O53 O 0.95593 0.31517 0.1285 0.0
O54 O 0.86057 0.11182 0.13904 0.0
O55 O 0.87773 0.15402 0.10677 0.0
O56 O 0.85232 0.21537 0.15727 0.0
O57 O 0.92136 0.22132 0.1769 0.0
C58 C 0.87895 0.22605 0.1757 0.0
O59 O 0.89594 0.198 0.0919 0.0
O60 O 0.89241 0.26824 0.07752 0.0
C61 C 0.01903 0.26516 0.13233 0.0
C62 C 0.90172 0.22893 0.07513 0.0
Zn63 Zn 0.40487 0.10912 0.40175 0.0
Zn64 Zn 0.23855 0.05172 0.35453 0.0
Zn65 Zn 0.32341 0.07902 0.37781 0.0
C66 C 0.32176 0.07252 0.32471 0.0
C67 C 0.25443 0.14299 0.37692 0.0
O68 O 0.29913 0.02552 0.40782 0.0
O69 O 0.36373 0.08375 0.43057 0.0
C70 C 0.42214 0.06329 0.36504 0.0
O71 O 0.34586 0.07145 0.3428 0.0
O72 O 0.27515 0.06917 0.32537 0.0
O73 O 0.21563 0.10378 0.36651 0.0
O74 O 0.29924 0.14245 0.38105 0.0
O75 O 0.42887 0.06199 0.38574 0.0
O76 O 0.38718 0.0765 0.35769 0.0
O77 O 0.35264 0.16386 0.38669 0.0
O78 O 0.43973 0.18858 0.39251 0.0
C79 C 0.40324 0.20152 0.38882 0.0
O80 O 0.25954 0.00078 0.39176 0.0
O81 O 0.20008 0.97341 0.36404 0.0
C82 C 0.3183 0.04018 0.42765 0.0
C83 C 0.21592 0.96331 0.38218 0.0
Zn84 Zn 0.74459 0.59785 0.09808 0.0
Zn85 Zn 0.78455 0.72309 0.15507 0.0
Zn86 Zn 0.77215 0.66852 0.12439 0.0
C87 C 0.75672 0.62845 0.1733 0.0
C88 C 0.88382 0.75248 0.12998 0.0
O89 O 0.81357 0.71423 0.09364 0.0
O90 O 0.74732 0.64732 0.07429 0.0
C91 C 0.65443 0.58266 0.12391 0.0
O92 O 0.78316 0.63051 0.15544 0.0
O93 O 0.73777 0.66062 0.17519 0.0
O94 O 0.86455 0.74658 0.14949 0.0
O95 O 0.85025 0.7341 0.11348 0.0
O96 O 0.67551 0.55564 0.11598 0.0
O97 O 0.68308 0.63535 0.12462 0.0
O98 O 0.80225 0.61446 0.13737 0.0
O99 O 0.81113 0.59142 0.10342 0.0
C100 C 0.82454 0.59612 0.12364 0.0
O101 O 0.70892 0.695 0.12315 0.0
O102 O 0.75666 0.76918 0.14342 0.0
C103 C 0.78589 0.69657 0.07543 0.0
C104 C 0.71951 0.74345 0.12923 0.0
Zn105 Zn 0.85373 0.23451 0.40615 0.0
Zn106 Zn 0.94905 0.19583 0.35113 0.0
Zn107 Zn 0.90747 0.22738 0.37844 0.0
C108 C 0.89711 0.24225 0.32676 0.0
C109 C 0.87282 0.10638 0.37891 0.0
O110 O 0.95822 0.26926 0.40764 0.0
O111 O 0.89019 0.21399 0.42954 0.0
C112 C 0.88972 0.32413 0.37688 0.0
O113 O 0.88807 0.25323 0.34658 0.0
O114 O 0.92042 0.21412 0.32379 0.0
O115 O 0.90966 0.11865 0.36426 0.0
O116 O 0.86317 0.14311 0.38633 0.0
O117 O 0.88683 0.31735 0.39774 0.0
O118 O 0.88331 0.28401 0.36448 0.0
O119 O 0.83569 0.22512 0.3619 0.0
O120 O 0.78559 0.17696 0.39024 0.0
C121 C 0.78872 0.18926 0.36988 0.0
O122 O 0.99384 0.27632 0.38797 0.0
O123 O 0.0263 0.24961 0.36029 0.0
C124 C 0.94093 0.2473 0.42684 0.0
C125 C 0.03476 0.27918 0.37729 0.0
Zn126 Zn 0.17112 0.44369 0.60911 0.0
Zn127 Zn 0.03434 0.27485 0.65406 0.0
Zn128 Zn 0.11581 0.35033 0.62534 0.0
C129 C 0.08296 0.3585 0.67978 0.0
C130 C 0.10832 0.24507 0.63559 0.0
O131 O 0.08713 0.34414 0.59191 0.0
O132 O 0.1564 0.41868 0.57753 0.0
C133 C 0.08738 0.44099 0.63622 0.0
O134 O 0.10939 0.37165 0.66114 0.0
O135 O 0.03642 0.31549 0.68113 0.0
O136 O 0.08856 0.24541 0.65442 0.0
O137 O 0.10103 0.27039 0.61971 0.0
O138 O 0.123 0.47007 0.62187 0.0
O139 O 0.08072 0.39404 0.64158 0.0
O140 O 0.19885 0.36786 0.63033 0.0
O141 O 0.23959 0.4571 0.62536 0.0
C142 C 0.24159 0.4152 0.6317 0.0
O143 O 0.05155 0.27891 0.60662 0.0
O144 O 0.98083 0.25819 0.6287 0.0
C145 C 0.11214 0.37353 0.575 0.0
C146 C -0.00093 0.25319 0.61013 0.0
Zn147 Zn 0.26647 0.85258 0.90254 0.0
Zn148 Zn 0.20164 0.93028 0.84849 0.0
Zn149 Zn 0.23215 0.89563 0.87713 0.0
C150 C 0.24486 0.87976 0.82673 0.0
C151 C 0.11341 0.85305 0.87554 0.0
O152 O 0.18934 0.88832 0.90918 0.0
O153 O 0.2484 0.87784 0.93006 0.0
C154 C 0.35445 0.94356 0.87989 0.0
O155 O 0.22675 0.85292 0.84507 0.0
O156 O 0.2493 0.9265 0.82494 0.0
O157 O 0.12652 0.86592 0.85538 0.0
O158 O 0.15153 0.87286 0.89039 0.0
O159 O 0.34016 0.89753 0.88871 0.0
O160 O 0.31881 0.9592 0.87707 0.0
O161 O 0.21524 0.81662 0.8619 0.0
O162 O 0.21981 0.77584 0.89258 0.0
C163 C 0.20643 0.77297 0.87242 0.0
O164 O 0.28679 0.98681 0.87778 0.0
O165 O 0.2233 0.0008 0.86258 0.0
C166 C 0.2097 0.88838 0.92844 0.0
C167 C 0.26664 0.01859 0.87399 0.0
Zn168 Zn 0.58832 0.71122 0.59707 0.0
Zn169 Zn 0.73424 0.81134 0.64918 0.0
Zn170 Zn 0.66238 0.75871 0.62396 0.0
C171 C 0.64491 0.78094 0.67393 0.0
C172 C 0.74954 0.87921 0.61458 0.0
O173 O 0.69804 0.79023 0.59045 0.0
O174 O 0.63629 0.71814 0.57176 0.0
C175 C 0.58831 0.63247 0.62527 0.0
O176 O 0.62719 0.77852 0.65393 0.0
O177 O 0.69232 0.78743 0.67702 0.0
O178 O 0.75219 0.88346 0.63547 0.0
O179 O 0.72389 0.83133 0.60558 0.0
O180 O 0.55533 0.64156 0.61417 0.0
O181 O 0.63794 0.67155 0.62872 0.0
O182 O 0.60009 0.77949 0.63494 0.0
O183 O 0.56456 0.76695 0.60136 0.0
C184 C 0.57088 0.78758 0.62052 0.0
O185 O 0.69508 0.70375 0.63042 0.0
O186 O 0.7754 0.77509 0.63921 0.0
C187 C 0.68273 0.76127 0.57254 0.0
C188 C 0.74746 0.72561 0.63314 0.0
Zn189 Zn 0.07817 0.25638 0.8589 0.0
Zn190 Zn 0.14543 0.44974 0.91379 0.0
Zn191 Zn 0.09868 0.33016 0.88349 0.0
C192 C 0.21771 0.42665 0.88214 0.0
C193 C 0.03942 0.3872 0.89283 0.0
O194 O 0.00919 0.28856 0.87846 0.0
O195 O 0.00512 0.20914 0.87337 0.0
C196 C 0.15522 0.26784 0.89169 0.0
O197 O 0.17656 0.39344 0.87 0.0
O198 O 0.21088 0.44726 0.8998 0.0
O199 O 0.06453 0.39218 0.91083 0.0
O200 O 0.0307 0.34576 0.88122 0.0
O201 O 0.14696 0.26062 0.87102 0.0
O202 O 0.12729 0.28413 0.90314 0.0
O203 O 0.14475 0.3661 0.85262 0.0
O204 O 0.08384 0.29897 0.83157 0.0
C205 C 0.12352 0.34746 0.83342 0.0
O206 O 0.111 0.31399 0.91776 0.0
O207 O 0.09743 0.37899 0.93286 0.0
C208 C 0.98147 0.23593 0.8784 0.0
C209 C 0.09592 0.33275 0.93418 0.0
Zn210 Zn 0.31005 0.85261 0.59212 0.0
Zn211 Zn 0.19705 0.93901 0.65615 0.0
Zn212 Zn 0.23266 0.91272 0.62661 0.0
C213 C 0.23918 0.88194 0.67455 0.0
C214 C 0.11437 0.86612 0.62622 0.0
O215 O 0.19358 0.90159 0.59419 0.0
O216 O 0.25208 0.87574 0.58366 0.0
C217 C 0.34104 0.95594 0.61333 0.0
O218 O 0.22413 0.8607 0.65516 0.0
O219 O 0.24236 0.92746 0.67863 0.0
O220 O 0.12453 0.87522 0.64674 0.0
O221 O 0.15364 0.89123 0.61216 0.0
O222 O 0.31053 0.92235 0.59878 0.0
O223 O 0.31826 0.9763 0.62531 0.0
O224 O 0.22587 0.83216 0.6337 0.0
O225 O 0.26575 0.79224 0.61434 0.0
C226 C 0.23424 0.7916 0.6298 0.0
O227 O 0.2887 0.0023 0.63049 0.0
O228 O 0.22249 0.01344 0.64474 0.0
C229 C 0.2168 0.88982 0.57847 0.0
C230 C 0.26913 0.03363 0.63558 0.0
Zn231 Zn 0.58246 0.73179 0.90087 0.0
Zn232 Zn 0.74218 0.81603 0.86372 0.0
Zn233 Zn 0.66193 0.76714 0.88138 0.0
C234 C 0.66888 0.78293 0.8309 0.0
C235 C 0.72789 0.88563 0.89087 0.0
O236 O 0.68921 0.79663 0.91585 0.0
O237 O 0.6168 0.72266 0.92858 0.0
C238 C 0.57969 0.6504 0.87505 0.0
O239 O 0.6435 0.78745 0.84791 0.0
O240 O 0.71345 0.7827 0.834 0.0
O241 O 0.74128 0.88449 0.87097 0.0
O242 O 0.70638 0.84097 0.90231 0.0
O243 O 0.54913 0.67072 0.8788 0.0
O244 O 0.63113 0.67853 0.87988 0.0
O245 O 0.61455 0.79926 0.86358 0.0
O246 O 0.57908 0.80024 0.89601 0.0
C247 C 0.59064 0.8179 0.87633 0.0
O248 O 0.69379 0.70983 0.87906 0.0
O249 O 0.77342 0.78418 0.88491 0.0
C250 C 0.66494 0.76232 0.93184 0.0
C251 C 0.74416 0.73252 0.88563 0.0
H252 H 0.09802 0.30655 0.16403 0.0
H253 H 0.23562 0.19321 0.08519 0.0
H254 H 0.07404 0.29077 0.09329 0.0
H255 H 0.27278 0.22055 0.15501 0.0
H256 H 0.2009 0.25723 0.08606 0.0
H257 H 0.1852 0.30734 0.15954 0.0
C258 C 0.11286 0.30666 0.1474 0.0
C259 C 0.07878 0.29818 0.129 0.0
C260 C 0.21763 0.25042 0.10117 0.0
C261 C 0.17669 0.29587 0.12378 0.0
C262 C 0.23738 0.21373 0.10066 0.0
C263 C 0.25563 0.20072 0.12018 0.0
C264 C 0.21429 0.27291 0.12154 0.0
C265 C 0.25815 0.22902 0.13969 0.0
C266 C 0.16224 0.3061 0.14485 0.0
C267 C 0.09926 0.29743 0.10789 0.0
N268 N 0.23608 0.26271 0.14004 0.0
N269 N 0.14607 0.29444 0.10588 0.0
H270 H 0.17215 0.85961 0.36653 0.0
H271 H 0.89442 0.80064 0.4242 0.0
H272 H 0.16938 0.95263 0.4228 0.0
H273 H 0.92261 0.77673 0.35577 0.0
H274 H 0.99015 0.82375 0.43289 0.0
H275 H 0.07709 0.78974 0.37441 0.0
C276 C 0.15234 0.86379 0.38127 0.0
C277 C 0.17742 0.91244 0.39362 0.0
C278 C 0.97474 0.81271 0.41608 0.0
C279 C 0.06848 0.83499 0.40189 0.0
C280 C 0.9208 0.80048 0.41109 0.0
C281 C 0.90196 0.78961 0.38907 0.0
C282 C 0.00856 0.81179 0.39903 0.0
C283 C 0.93654 0.78755 0.37276 0.0
C284 C 0.09789 0.82432 0.38563 0.0
C285 C 0.15052 0.91596 0.41263 0.0
N286 N 0.98806 0.79871 0.37806 0.0
N287 N 0.09627 0.87874 0.41572 0.0
H288 H 0.74889 0.04343 0.13244 0.0
H289 H 0.77102 0.79363 0.09222 0.0
H290 H 0.86607 0.05323 0.08376 0.0
H291 H 0.64806 0.78113 0.13813 0.0
H292 H 0.78387 0.88072 0.07898 0.0
H293 H 0.69222 0.94526 0.12535 0.0
C294 C 0.76165 0.02501 0.11965 0.0
C295 C 0.81228 0.05618 0.10875 0.0
C296 C 0.75202 0.85809 0.09117 0.0
C297 C 0.74895 0.94308 0.10129 0.0
C298 C 0.7431 0.80693 0.09811 0.0
C299 C 0.70602 0.7782 0.11531 0.0
C300 C 0.72581 0.88244 0.10241 0.0
C301 C 0.67576 0.80101 0.12432 0.0
C302 C 0.72945 0.9688 0.11571 0.0
C303 C 0.82728 0.03049 0.09251 0.0
N304 N 0.68725 0.85237 0.11814 0.0
N305 N 0.79642 0.97502 0.08967 0.0
H306 H 0.22578 0.16325 0.41746 0.0
H307 H 0.132 0.34857 0.35722 0.0
H308 H 0.26995 0.22854 0.35124 0.0
H309 H 0.06292 0.26179 0.41834 0.0
H310 H 0.21481 0.34259 0.364 0.0
H311 H 0.1974 0.23128 0.42567 0.0
C312 C 0.23068 0.19296 0.40488 0.0
C313 C 0.24875 0.19002 0.38354 0.0
C314 C 0.18257 0.32678 0.37644 0.0
C315 C 0.21655 0.26717 0.39261 0.0
C316 C 0.13561 0.33097 0.37272 0.0
C317 C 0.09022 0.30441 0.38699 0.0
C318 C 0.18299 0.29449 0.3942 0.0
C319 C 0.0969 0.2823 0.40683 0.0
C320 C 0.21475 0.23179 0.40955 0.0
C321 C 0.25508 0.22924 0.36776 0.0
N322 N 0.14157 0.27582 0.40947 0.0
N323 N 0.23811 0.26572 0.37249 0.0
H324 H 0.21726 0.88627 0.08533 0.0
H325 H 0.96099 0.80474 0.16178 0.0
H326 H 0.22644 0.9228 0.15509 0.0
H327 H 0.94432 0.75034 0.09373 0.0
H328 H 0.05817 0.83457 0.16055 0.0
H329 H 0.12019 0.81697 0.08972 0.0
C330 C 0.19979 0.87723 0.1019 0.0
C331 C 0.22911 0.91216 0.11969 0.0
C332 C 0.03359 0.81589 0.14585 0.0
C333 C 0.11798 0.83438 0.12471 0.0
C334 C 0.97781 0.79922 0.14643 0.0
C335 C 0.94418 0.7754 0.12772 0.0
C336 C 0.05703 0.80969 0.12629 0.0
C337 C 0.9688 0.76934 0.10842 0.0
C338 C 0.14382 0.83859 0.10427 0.0
C339 C 0.20488 0.89805 0.14077 0.0
N340 N 0.02397 0.78685 0.10814 0.0
N341 N 0.14996 0.86187 0.14256 0.0
H342 H 0.7326 0.75809 0.40258 0.0
H343 H 0.76524 0.05363 0.39255 0.0
H344 H 0.64374 0.78942 0.35177 0.0
H345 H 0.90277 0.028 0.38078 0.0
H346 H 0.70458 0.95349 0.39605 0.0
H347 H 0.77856 0.85555 0.41324 0.0
C348 C 0.72162 0.78516 0.3942 0.0
C349 C 0.68556 0.76636 0.37604 0.0
C350 C 0.74833 0.97031 0.39326 0.0
C351 C 0.73523 0.87614 0.38867 0.0
C352 C 0.78278 0.02706 0.39118 0.0
C353 C 0.83858 0.04864 0.38576 0.0
C354 C 0.77071 0.93575 0.39084 0.0
C355 C 0.85971 0.01275 0.38456 0.0
C356 C 0.74749 0.84038 0.4003 0.0
C357 C 0.67186 0.80272 0.36574 0.0
N358 N 0.82562 0.95787 0.38698 0.0
N359 N 0.69708 0.85624 0.3721 0.0
H360 H 0.26406 0.07024 0.59472 0.0
H361 H 0.16796 0.23164 0.66807 0.0
H362 H 0.32409 0.12499 0.66088 0.0
H363 H 0.14252 0.21902 0.59715 0.0
H364 H 0.23838 0.20576 0.66368 0.0
H365 H 0.23991 0.14232 0.59161 0.0
C366 C 0.27568 0.09991 0.60805 0.0
C367 C 0.29434 0.09081 0.62837 0.0
C368 C 0.21785 0.20899 0.64899 0.0
C369 C 0.26479 0.1714 0.6254 0.0
C370 C 0.17686 0.22281 0.65156 0.0
C371 C 0.1484 0.226 0.63302 0.0
C372 C 0.22974 0.19692 0.62775 0.0
C373 C 0.16287 0.21592 0.61193 0.0
C374 C 0.2607 0.14038 0.60647 0.0
C375 C 0.30857 0.13011 0.64511 0.0
N376 N 0.20193 0.20083 0.60989 0.0
N377 N 0.29147 0.1675 0.64364 0.0
H378 H 0.06165 0.8182 0.9166 0.0
H379 H 0.76928 0.67453 0.85661 0.0
H380 H 0.03049 0.79845 0.84601 0.0
H381 H 0.79279 0.73084 0.92427 0.0
H382 H 0.86121 0.6847 0.85697 0.0
H383 H 0.96179 0.75819 0.92306 0.0
C384 C 0.03412 0.80108 0.90252 0.0
C385 C 0.05449 0.81449 0.88075 0.0
C386 C 0.84554 0.69284 0.87208 0.0
C387 C 0.9411 0.74514 0.88797 0.0
C388 C 0.79236 0.68565 0.87202 0.0
C389 C 0.77399 0.70292 0.89028 0.0
C390 C 0.8802 0.71756 0.89053 0.0
C391 C 0.80598 0.71773 0.90975 0.0
C392 C 0.97731 0.76662 0.9062 0.0
C393 C 0.01695 0.79028 0.86312 0.0
N394 N 0.85846 0.72673 0.90916 0.0
N395 N 0.96242 0.75739 0.86713 0.0
H396 H 0.84244 0.91651 0.58955 0.0
H397 H 0.89052 0.21704 0.60251 0.0
H398 H 0.72037 0.9571 0.61102 0.0
H399 H 0.01976 0.18103 0.5875 0.0
H400 H 0.82206 0.12296 0.59275 0.0
H401 H 0.90099 0.01179 0.57696 0.0
C402 C 0.82722 0.94512 0.59079 0.0
C403 C 0.7769 0.92956 0.60127 0.0
C404 C 0.86535 0.13586 0.59096 0.0
C405 C 0.84336 0.03808 0.58738 0.0
C406 C 0.90446 0.18979 0.59634 0.0
C407 C 0.96078 0.20644 0.59617 0.0
C408 C 0.88272 0.09806 0.58581 0.0
C409 C 0.97668 0.16966 0.58799 0.0
C410 C 0.86065 -0.00053 0.58376 0.0
C411 C 0.75911 0.96794 0.60298 0.0
N412 N 0.93778 0.11661 0.58373 0.0
N413 N 0.79258 0.02062 0.59637 0.0
H414 H 0.14214 0.20201 0.92747 0.0
H415 H 0.34729 0.12687 0.8676 0.0
H416 H 0.25787 0.30065 0.87673 0.0
H417 H 0.20779 0.01998 0.90794 0.0
H418 H 0.34043 0.20574 0.88159 0.0
H419 H 0.19339 0.15296 0.93258 0.0
C420 C 0.1797 0.21489 0.91812 0.0
C421 C 0.19534 0.25441 0.90139 0.0
C422 C 0.31343 0.16526 0.88837 0.0
C423 C 0.25289 0.19761 0.90644 0.0
C424 C 0.31784 0.12043 0.88056 0.0
C425 C 0.2801 0.06708 0.8877 0.0
C426 C 0.27053 0.15616 0.90313 0.0
C427 C 0.24045 0.06062 0.90346 0.0
C428 C 0.20869 0.18656 0.92081 0.0
C429 C 0.24412 0.26947 0.88956 0.0
N430 N 0.23645 0.10426 0.91049 0.0
N431 N 0.27042 0.24014 0.89187 0.0
H432 H 0.05409 0.85809 0.58848 0.0
H433 H 0.78626 0.66662 0.65497 0.0
H434 H 0.0479 0.77494 0.64956 0.0
H435 H 0.7873 0.73945 0.59212 0.0
H436 H 0.8773 0.6793 0.64661 0.0
H437 H 0.95498 0.7934 0.58322 0.0
C438 C 0.03213 0.82559 0.60048 0.0
C439 C 0.05847 0.82285 0.61981 0.0
C440 C 0.85672 0.69035 0.63411 0.0
C441 C 0.94601 0.74899 0.61403 0.0
C442 C 0.80412 0.68196 0.63876 0.0
C443 C 0.77911 0.70148 0.62405 0.0
C444 C 0.8848 0.72014 0.61498 0.0
C445 C 0.80465 0.72243 0.60351 0.0
C446 C 0.97568 0.78861 0.59752 0.0
C447 C 0.02856 0.77957 0.63476 0.0
N448 N 0.85694 0.73308 0.59987 0.0
N449 N 0.97391 0.74503 0.63175 0.0
H450 H 0.88427 0.19847 0.85634 0.0
H451 H 0.78167 0.94082 0.92889 0.0
H452 H 0.95354 0.19976 0.92029 0.0
H453 H 0.6979 0.95158 0.87074 0.0
H454 H 0.82595 0.04097 0.9331 0.0
H455 H 0.79805 0.11773 0.86763 0.0
C456 C 0.88022 0.18321 0.87316 0.0
C457 C 0.92558 0.20541 0.88746 0.0
C458 C 0.79605 0.02117 0.91995 0.0
C459 C 0.8288 0.1113 0.90013 0.0
C460 C 0.77052 0.96395 0.91771 0.0
C461 C 0.73675 0.93843 0.89934 0.0
C462 C 0.78793 0.05227 0.90349 0.0
C463 C 0.72395 0.97004 0.88511 0.0
C464 C 0.83121 0.1367 0.87961 0.0
C465 C 0.919 0.18362 0.90891 0.0
N466 N 0.75038 0.02536 0.88719 0.0
N467 N 0.87203 0.13677 0.91442 0.0
H468 H 0.38804 0.16568 0.30163 0.0
H469 H 0.24974 2e-05 0.19185 0.0
H470 H 0.30258 0.98936 0.29701 0.0
H471 H 0.36716 0.17378 0.18998 0.0
H472 H 0.27436 0.99694 0.2302 0.0
H473 H 0.39113 0.17149 0.26089 0.0
C474 C 0.37243 0.12828 0.29199 0.0
C475 C 0.34572 0.07695 0.30259 0.0
C476 C 0.29502 0.03588 0.22151 0.0
C477 C 0.34629 0.08304 0.25618 0.0
C478 C 0.28045 0.03787 0.19957 0.0
C479 C 0.30563 0.08753 0.18769 0.0
C480 C 0.3347 0.08404 0.23206 0.0
C481 C 0.34609 0.13478 0.1986 0.0
C482 C 0.37338 0.13156 0.26875 0.0
C483 C 0.32436 0.02968 0.28943 0.0
N484 N 0.35895 0.13203 0.22028 0.0
N485 N 0.3242 0.03382 0.26695 0.0
H486 H 0.86642 0.69254 0.29926 0.0
H487 H 0.67055 0.5642 0.20008 0.0
H488 H 0.69337 0.57802 0.30782 0.0
H489 H 0.84613 0.63361 0.19369 0.0
H490 H 0.67761 0.55078 0.23965 0.0
H491 H 0.86206 0.65557 0.26207 0.0
C492 C 0.82794 0.65818 0.29353 0.0
C493 C 0.78021 0.6382 0.30647 0.0
C494 C 0.71449 0.567 0.22956 0.0
C495 C 0.77403 0.59747 0.2636 0.0
C496 C 0.71031 0.57409 0.20685 0.0
C497 C 0.75779 0.59973 0.1936 0.0
C498 C 0.76683 0.58752 0.23923 0.0
C499 C 0.80848 0.61312 0.20332 0.0
C500 C 0.82529 0.63719 0.27226 0.0
C501 C 0.73113 0.59417 0.2983 0.0
N502 N 0.81194 0.60836 0.2257 0.0
N503 N 0.72891 0.57625 0.27713 0.0
H504 H 0.93814 0.32257 0.1965 0.0
H505 H 0.79824 0.17947 0.30722 0.0
H506 H 0.78486 0.16955 0.20013 0.0
H507 H 0.94783 0.33559 0.30237 0.0
H508 H 0.77534 0.18989 0.26895 0.0
H509 H 0.92502 0.34323 0.23453 0.0
C510 C 0.90057 0.29432 0.20516 0.0
C511 C 0.86235 0.24452 0.19538 0.0
C512 C 0.8123 0.2228 0.2764 0.0
C513 C 0.84849 0.26599 0.23925 0.0
C514 C 0.82515 0.21689 0.29824 0.0
C515 C 0.87515 0.2565 0.30752 0.0
C516 C 0.8506 0.26801 0.26383 0.0
C517 C 0.90907 0.30411 0.29549 0.0
C518 C 0.89319 0.30584 0.22692 0.0
C519 C 0.81489 0.2086 0.20721 0.0
N520 N 0.89675 0.30808 0.27401 0.0
N521 N 0.80993 0.21937 0.22883 0.0
H522 H 0.17581 0.36795 0.69694 0.0
H523 H 0.08922 0.4145 0.81657 0.0
H524 H 0.04889 0.40855 0.70964 0.0
H525 H 0.19874 0.35128 0.80424 0.0
H526 H 0.09707 0.44194 0.77752 0.0
H527 H 0.20581 0.38915 0.7356 0.0
C528 C 0.15597 0.38385 0.7077 0.0
C529 C 0.11023 0.38705 0.70028 0.0
C530 C 0.12084 0.42368 0.78346 0.0
C531 C 0.14356 0.41063 0.74444 0.0
C532 C 0.11682 0.40864 0.80576 0.0
C533 C 0.14365 0.38101 0.81338 0.0
C534 C 0.15114 0.40997 0.76878 0.0
C535 C 0.17783 0.37294 0.79882 0.0
C536 C 0.17273 0.39546 0.72979 0.0
C537 C 0.08446 0.40583 0.7149 0.0
N538 N 0.17991 0.38649 0.77705 0.0
N539 N 0.10124 0.41655 0.7364 0.0
H540 H 0.33771 0.92558 0.80217 0.0
H541 H 0.16239 0.79199 0.69677 0.0
H542 H 0.17486 0.78404 0.80534 0.0
H543 H 0.33532 0.91215 0.69556 0.0
H544 H 0.17177 0.77092 0.7355 0.0
H545 H 0.34497 0.90466 0.76357 0.0
C546 C 0.30429 0.8887 0.7949 0.0
C547 C 0.25573 0.85633 0.80687 0.0
C548 C 0.20819 0.8004 0.72657 0.0
C549 C 0.26215 0.83374 0.76218 0.0
C550 C 0.20287 0.81195 0.7044 0.0
C551 C 0.24824 0.85359 0.6931 0.0
C552 C 0.25898 0.83176 0.7375 0.0
C553 C 0.2995 0.87949 0.70378 0.0
C554 C 0.30814 0.87694 0.77274 0.0
C555 C 0.21311 0.80971 0.7966 0.0
N556 N 0.30329 0.86896 0.72552 0.0
N557 N 0.21665 0.8006 0.77459 0.0
H558 H 0.5664 0.69273 0.69676 0.0
H559 H 0.73283 0.8123 0.79423 0.0
H560 H 0.66247 0.86926 0.6976 0.0
H561 H 0.56457 0.75342 0.81465 0.0
H562 H 0.70584 0.81198 0.75582 0.0
H563 H 0.55643 0.69321 0.73737 0.0
C564 C 0.58226 0.73167 0.7053 0.0
C565 C 0.61471 0.78115 0.69386 0.0
C566 C 0.67492 0.79936 0.76875 0.0
C567 C 0.6054 0.78174 0.74001 0.0
C568 C 0.69007 0.79925 0.79068 0.0
C569 C 0.6509 0.78304 0.80776 0.0
C570 C 0.61999 0.78227 0.76358 0.0
C571 C 0.59605 0.76658 0.80197 0.0
C572 C 0.57699 0.73186 0.72846 0.0
C573 C 0.63642 0.83039 0.70581 0.0
N574 N 0.58185 0.76599 0.78018 0.0
N575 N 0.63305 0.8294 0.72832 0.0
H576 H 0.24232 0.99424 0.93483 0.0
H577 H 0.30289 0.98345 0.05779 0.0
H578 H 0.16639 0.83869 0.96813 0.0
H579 H 0.27672 0.11435 0.03537 0.0
H580 H 0.25612 0.93062 0.02444 0.0
H581 H 0.25443 0.0408 0.97022 0.0
C582 C 0.22368 0.96969 0.94937 0.0
C583 C 0.1991 0.91245 0.94824 0.0
C584 C 0.25972 0.97047 0.02697 0.0
C585 C 0.2195 0.96549 0.98939 0.0
C586 C 0.28673 0.00071 0.04584 0.0
C587 C 0.29369 0.05318 0.04907 0.0
C588 C 0.24064 0.99345 0.011 0.0
C589 C 0.2722 0.07403 0.03326 0.0
C590 C 0.2325 0.99631 0.96978 0.0
C591 C 0.18329 0.88276 0.96821 0.0
N592 N 0.24735 0.04442 0.01462 0.0
N593 N 0.19472 0.90967 0.98802 0.0
H594 H 0.76803 0.77485 0.43818 0.0
H595 H 0.7252 0.69733 0.56313 0.0
H596 H 0.81872 0.66895 0.4692 0.0
H597 H 0.72246 0.84093 0.53991 0.0
H598 H 0.77295 0.69715 0.52961 0.0
H599 H 0.76534 0.81164 0.47474 0.0
C600 C 0.78076 0.76094 0.45254 0.0
C601 C 0.79261 0.71806 0.45072 0.0
C602 C 0.76359 0.72987 0.5319 0.0
C603 C 0.78903 0.7593 0.49256 0.0
C604 C 0.73684 0.73028 0.55123 0.0
C605 C 0.72164 0.77021 0.55452 0.0
C606 C 0.77279 0.76804 0.51503 0.0
C607 C 0.73474 0.81019 0.53807 0.0
C608 C 0.77891 0.78175 0.47347 0.0
C609 C 0.80851 0.70137 0.46992 0.0
N610 N 0.75864 0.80744 0.5187 0.0
N611 N 0.80531 0.72128 0.49004 0.0
H612 H 0.12483 0.28546 0.96795 0.0
H613 H 0.86212 0.23907 0.03579 0.0
H614 H 0.98901 0.29821 0.94102 0.0
H615 H 0.98231 0.20367 0.06431 0.0
H616 H 0.90274 0.24704 0.99945 0.0
H617 H 0.06947 0.24212 1.0016 0.0
C618 C 0.08286 0.27763 0.96891 0.0
C619 C 0.06128 0.29549 0.95191 0.0
C620 C 0.91994 0.23645 0.01345 0.0
C621 C 0.99847 0.24711 0.99003 0.0
C622 C 0.89648 0.23169 0.03424 0.0
C623 C 0.91893 0.22069 0.05301 0.0
C624 C 0.96729 0.23152 0.01132 0.0
C625 C 0.96365 0.21181 0.05013 0.0
C626 C 0.05142 0.25324 0.98808 0.0
C627 C 0.00712 0.28521 0.95389 0.0
N628 N 0.98721 0.2185 0.02967 0.0
N629 N 0.97788 0.26225 0.97263 0.0
H630 H 0.28805 0.93438 0.43857 0.0
H631 H 0.1814 0.95665 0.55987 0.0
H632 H 0.27918 0.07517 0.46122 0.0
H633 H 0.24101 0.84613 0.54307 0.0
H634 H 0.19328 0.98644 0.52084 0.0
H635 H 0.24829 0.8883 0.47411 0.0
C636 C 0.27651 0.95494 0.45088 0.0
C637 C 0.28692 0.00848 0.44719 0.0
C638 C 0.20278 0.95495 0.52569 0.0
C639 C 0.24136 0.95643 0.48759 0.0
C640 C 0.19545 0.93757 0.54789 0.0
C641 C 0.2104 0.89902 0.55472 0.0
C642 C 0.22477 0.93326 0.51031 0.0
C643 C 0.22911 0.87611 0.53854 0.0
C644 C 0.2541 0.92889 0.47114 0.0
C645 C 0.27195 0.03387 0.46364 0.0
N646 N 0.23622 0.89389 0.51719 0.0
N647 N 0.25002 0.00772 0.48317 0.0
H648 H 0.86105 0.74766 0.04117 0.0
H649 H 0.61253 0.71116 0.96957 0.0
H650 H 0.70615 0.71932 0.06767 0.0
H651 H 0.77549 0.82254 0.94447 0.0
H652 H 0.65179 0.71054 0.00515 0.0
H653 H 0.83847 0.7766 0.00562 0.0
C654 C 0.82392 0.75047 0.03994 0.0
C655 C 0.78627 0.73301 0.05766 0.0
C656 C 0.67927 0.736 0.99208 0.0
C657 C 0.75932 0.76342 0.01719 0.0
C658 C 0.65678 0.73622 0.9716 0.0
C659 C 0.69061 0.76735 0.95395 0.0
C660 C 0.7365 0.76667 0.99527 0.0
C661 C 0.74786 0.79845 0.95773 0.0
C662 C 0.8108 0.76639 0.01963 0.0
C663 C 0.73737 0.73458 0.05481 0.0
N664 N 0.76929 0.79694 0.97802 0.0
N665 N 0.72524 0.74893 0.03505 0.0
H666 H 0.12959 0.43646 0.53816 0.0
H667 H 0.93054 0.18302 0.46198 0.0
H668 H 0.04727 0.26813 0.56053 0.0
H669 H 0.03187 0.34688 0.43625 0.0
H670 H 0.97731 0.2128 0.49761 0.0
H671 H 0.09611 0.40469 0.50053 0.0
C672 C 0.1046 0.39276 0.53511 0.0
C673 C 0.09079 0.35477 0.55246 0.0
C674 C 0.98998 0.24222 0.48416 0.0
C675 C 0.05309 0.31819 0.5095 0.0
C676 C 0.96341 0.2252 0.4638 0.0
C677 C 0.97711 0.26283 0.44634 0.0
C678 C 0.03001 0.29754 0.48719 0.0
C679 C 0.02016 0.31677 0.4494 0.0
C680 C 0.08572 0.37468 0.51363 0.0
C681 C 0.05803 0.29874 0.5477 0.0
N682 N 0.04462 0.33286 0.46964 0.0
N683 N 0.04028 0.28211 0.52664 0.0
H684 H 0.69582 0.09014 0.10479 0.0
H685 H 0.46315 0.09086 0.17042 0.0
H686 H 0.72337 0.16546 0.16933 0.0
H687 H 0.43613 0.98323 0.11522 0.0
H688 H 0.55182 0.09649 0.17736 0.0
H689 H 0.59887 0.03196 0.11372 0.0
C690 C 0.68137 0.09365 0.12107 0.0
C691 C 0.71718 0.13321 0.13622 0.0
C692 C 0.52555 0.06951 0.16435 0.0
C693 C 0.60554 0.06754 0.14648 0.0
C694 C 0.47437 0.06555 0.16063 0.0
C695 C 0.44293 0.03724 0.14201 0.0
C696 C 0.54528 0.04564 0.14904 0.0
C697 C 0.45955 0.00587 0.12965 0.0
C698 C 0.62596 0.06012 0.12626 0.0
C699 C 0.69678 0.13558 0.15718 0.0
N700 N 0.5105 0.01234 0.1329 0.0
N701 N 0.6418 0.10422 0.1615 0.0
H702 H 0.53223 0.5246 0.41824 0.0
H703 H 0.48336 0.2715 0.36115 0.0
H704 H 0.58159 0.53226 0.35007 0.0
H705 H 0.35749 0.25987 0.40567 0.0
H706 H 0.51245 0.36798 0.35454 0.0
H707 H 0.45528 0.43201 0.41182 0.0
C708 C 0.52479 0.50788 0.40158 0.0
C709 C 0.56324 0.53532 0.38471 0.0
C710 C 0.47768 0.34419 0.36541 0.0
C711 C 0.47833 0.4289 0.37764 0.0
C712 C 0.46184 0.28953 0.36946 0.0
C713 C 0.41902 0.2587 0.38433 0.0
C714 C 0.45168 0.3685 0.37693 0.0
C715 C 0.39124 0.28301 0.3943 0.0
C716 C 0.48126 0.4548 0.39794 0.0
C717 C 0.5526 0.51195 0.36348 0.0
N718 N 0.40903 0.33717 0.39089 0.0
N719 N 0.51236 0.45892 0.36072 0.0
H720 H 0.91634 0.37856 0.17194 0.0
H721 H 0.9018 0.59371 0.09758 0.0
H722 H 0.00279 0.43476 0.10992 0.0
H723 H 0.84061 0.56206 0.1648 0.0
H724 H 0.95885 0.55349 0.10587 0.0
H725 H 0.9135 0.46349 0.17515 0.0
C726 C 0.93795 0.41041 0.15968 0.0
C727 C 0.9594 0.39947 0.14054 0.0
C728 C 0.93404 0.55624 0.11906 0.0
C729 C 0.95301 0.49525 0.14328 0.0
C730 C 0.90096 0.5789 0.11428 0.0
C731 C 0.8653 0.57998 0.1304 0.0
C732 C 0.93086 0.5332 0.14006 0.0
C733 C 0.86693 0.56131 0.15183 0.0
C734 C 0.93528 0.45861 0.16127 0.0
C735 C 0.98565 0.44157 0.1249 0.0
N736 N 0.89821 0.53742 0.15591 0.0
N737 N 0.98001 0.48688 0.1262 0.0
H738 H 0.48146 0.13675 0.33266 0.0
H739 H 0.71724 0.08095 0.3687 0.0
H740 H 0.46023 0.99145 0.36576 0.0
H741 H 0.7463 0.23419 0.34066 0.0
H742 H 0.62372 0.03595 0.35439 0.0
H743 H 0.57503 0.15938 0.32206 0.0
C744 C 0.49553 0.10815 0.3367 0.0
C745 C 0.46394 0.06284 0.35048 0.0
C746 C 0.65057 0.07916 0.35084 0.0
C747 C 0.57056 0.08881 0.33889 0.0
C748 C 0.70404 0.10482 0.35905 0.0
C749 C 0.73872 0.16138 0.35625 0.0
C750 C 0.63089 0.11072 0.3404 0.0
C751 C 0.72019 0.19049 0.34337 0.0
C752 C 0.54916 0.12141 0.33087 0.0
C753 C 0.48389 0.02725 0.35541 0.0
N754 N 0.66672 0.16509 0.33641 0.0
N755 N 0.53641 0.0416 0.35003 0.0
H756 H 0.45604 0.27145 0.16495 0.0
H757 H 0.55676 0.55167 0.10322 0.0
H758 H 0.3873 0.29118 0.104 0.0
H759 H 0.62705 0.53505 0.16421 0.0
H760 H 0.47411 0.46312 0.11037 0.0
H761 H 0.49883 0.37082 0.1716 0.0
C762 C 0.44862 0.29659 0.15336 0.0
C763 C 0.41908 0.27378 0.13376 0.0
C764 C 0.50663 0.47962 0.12269 0.0
C765 C 0.46814 0.38696 0.14093 0.0
C766 C 0.55343 0.5308 0.11877 0.0
C767 C 0.59862 0.5506 0.13319 0.0
C768 C 0.50596 0.44761 0.14084 0.0
C769 C 0.59276 0.52124 0.15282 0.0
C770 C 0.47312 0.35327 0.15707 0.0
C771 C 0.41065 0.30775 0.11915 0.0
N772 N 0.5481 0.47045 0.15578 0.0
N773 N 0.43575 0.36271 0.12284 0.0
H774 H 0.74139 0.50015 0.33985 0.0
H775 H 0.94516 0.42898 0.39235 0.0
H776 H 0.89222 0.62298 0.37017 0.0
H777 H 0.83915 0.33028 0.33905 0.0
H778 H 0.93646 0.50661 0.37925 0.0
H779 H 0.78452 0.4443 0.33251 0.0
C780 C 0.78453 0.51651 0.3439 0.0
C781 C 0.81335 0.56553 0.35582 0.0
C782 C 0.91584 0.46836 0.3701 0.0
C783 C 0.86206 0.50157 0.34843 0.0
C784 C 0.92048 0.42399 0.37773 0.0
C785 C 0.8916 0.37306 0.3671 0.0
C786 C 0.88037 0.46102 0.35225 0.0
C787 C 0.86125 0.36883 0.34791 0.0
C788 C 0.80909 0.48452 0.3399 0.0
C789 C 0.86876 0.58491 0.36109 0.0
N790 N 0.85506 0.41185 0.34144 0.0
N791 N 0.89098 0.55218 0.3579 0.0
H792 H 0.22032 0.74953 0.6721 0.0
H793 H 0.00806 0.46262 0.62249 0.0
H794 H 0.15205 0.71299 0.60613 0.0
H795 H 0.1165 0.48593 0.67717 0.0
H796 H 0.02155 0.55426 0.62888 0.0
H797 H 0.14974 0.65643 0.68394 0.0
C798 C 0.18992 0.7221 0.6603 0.0
C799 C 0.19245 0.73772 0.6381 0.0
C800 C 0.04031 0.53839 0.64023 0.0
C801 C 0.11199 0.63281 0.6513 0.0
C802 C 0.03178 0.48561 0.63682 0.0
C803 C 0.06284 0.46784 0.64885 0.0
C804 C 0.08068 0.57305 0.65552 0.0
C805 C 0.09269 0.49886 0.66727 0.0
C806 C 0.14964 0.66939 0.66701 0.0
C807 C 0.15218 0.70143 0.62329 0.0
N808 N 0.10302 0.55127 0.66951 0.0
N809 N 0.11401 0.65042 0.63008 0.0
H810 H 0.38111 0.93287 0.83803 0.0
H811 H 0.60703 0.90363 0.90138 0.0
H812 H 0.45204 0.00944 0.9005 0.0
H813 H 0.54671 0.83139 0.83704 0.0
H814 H 0.57169 0.96573 0.89529 0.0
H815 H 0.46107 0.92205 0.8308 0.0
C816 C 0.41542 0.95101 0.84952 0.0
C817 C 0.40973 0.97159 0.87 0.0
C818 C 0.56682 0.93723 0.8822 0.0
C819 C 0.50019 0.95709 0.86241 0.0
C820 C 0.58706 0.90162 0.88569 0.0
C821 C 0.57929 0.86199 0.86977 0.0
C822 C 0.53608 0.93181 0.86301 0.0
C823 C 0.55342 0.86136 0.84974 0.0
C824 C 0.4606 0.94358 0.84563 0.0
C825 C 0.45471 0.99315 0.88455 0.0
N826 N 0.5313 0.8948 0.84715 0.0
N827 N 0.49726 0.98384 0.88081 0.0
H828 H 0.56389 0.611 0.66881 0.0
H829 H 0.29416 0.3571 0.62199 0.0
H830 H 0.55351 0.53283 0.60619 0.0
H831 H 0.30801 0.49154 0.66132 0.0
H832 H 0.39203 0.38824 0.62977 0.0
H833 H 0.47703 0.5309 0.68008 0.0
C834 C 0.54533 0.57538 0.65803 0.0
C835 C 0.56484 0.57889 0.63633 0.0
C836 C 0.37286 0.40954 0.63732 0.0
C837 C 0.4651 0.48835 0.64873 0.0
C838 C 0.3173 0.39193 0.63286 0.0
C839 C 0.29395 0.42287 0.64059 0.0
C840 C 0.4042 0.45748 0.64991 0.0
C841 C 0.32515 0.4674 0.6547 0.0
C842 C 0.49524 0.52994 0.66433 0.0
C843 C 0.53899 0.53184 0.62294 0.0
N844 N 0.37884 0.48379 0.65868 0.0
N845 N 0.48923 0.48907 0.62901 0.0
H846 H 0.25202 0.71229 0.85954 0.0
H847 H 0.99126 0.45004 0.89779 0.0
H848 H 0.097 0.70905 0.86466 0.0
H849 H 0.11866 0.44068 0.86147 0.0
H850 H 0.025 0.54293 0.88296 0.0
H851 H 0.20237 0.61211 0.85635 0.0
C852 C 0.20736 0.69042 0.85896 0.0
C853 C 0.17833 0.71851 0.86209 0.0
C854 C 0.04483 0.52005 0.87782 0.0
C855 C 0.12132 0.60412 0.85973 0.0
C856 C 0.02567 0.46724 0.88632 0.0
C857 C 0.05257 0.4381 0.88089 0.0
C858 C 0.09231 0.5443 0.86442 0.0
C859 C 0.09704 0.46197 0.86606 0.0
C860 C 0.17897 0.63326 0.85734 0.0
C861 C 0.12059 0.68853 0.86197 0.0
N862 N 0.11633 0.51416 0.8587 0.0
N863 N 0.09384 0.63266 0.86142 0.0
H864 H 0.33852 0.89479 0.64879 0.0
H865 H 0.53369 0.80773 0.66024 0.0
H866 H 0.44395 -0.00194 0.59642 0.0
H867 H 0.55581 0.85029 0.59068 0.0
H868 H 0.48637 0.86159 0.66469 0.0
H869 H 0.40367 0.86225 0.65603 0.0
C870 C 0.37675 0.91249 0.63955 0.0
C871 C 0.38649 0.94959 0.62218 0.0
C872 C 0.50175 0.85902 0.64852 0.0
C873 C 0.46089 0.91253 0.63018 0.0
C874 C 0.52893 0.82864 0.64602 0.0
C875 C 0.54735 0.82349 0.62496 0.0
C876 C 0.49424 0.88494 0.62987 0.0
C877 C 0.54102 0.85203 0.60711 0.0
C878 C 0.41396 0.89392 0.64368 0.0
C879 C 0.43543 0.96984 0.61008 0.0
N880 N 0.51503 0.88132 0.60997 0.0
N881 N 0.47043 0.95043 0.61409 0.0
H882 H 0.55581 0.56273 0.90114 0.0
H883 H 0.26614 0.43569 0.84114 0.0
H884 H 0.53316 0.6073 0.83524 0.0
H885 H 0.29671 0.44136 0.91155 0.0
H886 H 0.36414 0.46567 0.83435 0.0
H887 H 0.46404 0.4815 0.89929 0.0
C888 C 0.53301 0.55349 0.88569 0.0
C889 C 0.55134 0.59233 0.86853 0.0
C890 C 0.34889 0.45919 0.85124 0.0
C891 C 0.44558 0.50133 0.86665 0.0
C892 C 0.29324 0.44246 0.8551 0.0
C893 C 0.27405 0.43811 0.87693 0.0
C894 C 0.38478 0.47035 0.86937 0.0
C895 C 0.31037 0.44615 0.89446 0.0
C896 C 0.48 0.5077 0.8848 0.0
C897 C 0.5199 0.57855 0.84897 0.0
N898 N 0.36394 0.46236 0.89031 0.0
N899 N 0.46753 0.53524 0.84882 0.0
loop_
_geom_bond_atom_site_label_1
_geom_bond_atom_site_label_2
_geom_bond_distance
_geom_bond_site_symmetry_2
_ccdc_geom_bond_type
Zn0 O6 1.920 1_545 S
Zn0 O12 1.898 . S
Zn0 O15 1.905 . S
Zn1 O9 1.905 . S
Zn1 O10 1.898 . S
Zn1 O18 1.920 . S
Zn2 O5 2.080 . S
Zn2 O8 2.114 . S
Zn2 O11 2.120 . S
Zn2 O13 2.120 . S
Zn2 O14 2.114 . S
Zn2 O17 2.080 . S
C3 O8 1.166 . S
C3 O9 1.182 . S
C4 O10 1.167 . S
C4 O11 1.299 . S
O5 Zn2 2.080 . S
O5 C19 1.305 1_545 S
O6 Zn0 1.920 1_565 S
O6 C19 1.234 . S
C7 O12 1.167 . S
C7 O13 1.299 . S
O8 Zn2 2.114 . S
O8 C3 1.166 . S
O9 Zn1 1.905 . S
O9 C3 1.182 . S
O10 Zn1 1.898 . S
O10 C4 1.167 . S
O11 Zn2 2.120 . S
O11 C4 1.299 . S
O12 Zn0 1.898 . S
O12 C7 1.167 . S
O13 Zn2 2.120 . S
O13 C7 1.299 . S
O14 Zn2 2.114 . S
O14 C16 1.166 . S
O15 Zn0 1.905 . S
O15 C16 1.182 . S
C16 O14 1.166 . S
C16 O15 1.182 . S
O17 Zn2 2.080 . S
O17 C20 1.305 . S
O18 Zn1 1.920 . S
O18 C20 1.234 . S
C19 O5 1.305 1_565 S
C19 O6 1.234 . S
C20 O17 1.305 . S
C20 O18 1.234 . S
Zn21 O27 1.920 . S
Zn21 O33 1.898 . S
Zn21 O36 1.905 . S
Zn22 O30 1.905 . S
Zn22 O31 1.898 . S
Zn22 O39 1.920 . S
Zn23 O26 2.080 . S
Zn23 O29 2.114 . S
Zn23 O32 2.120 . S
Zn23 O34 2.120 . S
Zn23 O35 2.114 . S
Zn23 O38 2.080 . S
C24 O29 1.166 . S
C24 O30 1.182 . S
C25 O31 1.167 . S
C25 O32 1.299 . S
O26 Zn23 2.080 . S
O26 C40 1.305 . S
O27 Zn21 1.920 . S
O27 C40 1.234 . S
C28 O33 1.167 . S
C28 O34 1.299 . S
O29 Zn23 2.114 . S
O29 C24 1.166 . S
O30 Zn22 1.905 . S
O30 C24 1.182 . S
O31 Zn22 1.898 . S
O31 C25 1.167 . S
O32 Zn23 2.120 . S
O32 C25 1.299 . S
O33 Zn21 1.898 . S
O33 C28 1.167 . S
O34 Zn23 2.120 . S
O34 C28 1.299 . S
O35 Zn23 2.114 . S
O35 C37 1.166 . S
O36 Zn21 1.905 . S
O36 C37 1.182 . S
C37 O35 1.166 . S
C37 O36 1.182 . S
O38 Zn23 2.080 . S
O38 C41 1.305 . S
O39 Zn22 1.920 . S
O39 C41 1.234 . S
C40 O26 1.305 . S
C40 O27 1.234 . S
C41 O38 1.305 . S
C41 O39 1.234 . S
Zn42 O48 1.920 1_655 S
Zn42 O54 1.898 . S
Zn42 O57 1.905 . S
Zn43 O51 1.905 . S
Zn43 O52 1.898 . S
Zn43 O60 1.920 . S
Zn44 O47 2.080 . S
Zn44 O50 2.114 . S
Zn44 O53 2.120 . S
Zn44 O55 2.120 . S
Zn44 O56 2.114 . S
Zn44 O59 2.080 . S
C45 O50 1.166 . S
C45 O51 1.182 . S
C46 O52 1.167 . S
C46 O53 1.299 . S
O47 Zn44 2.080 . S
O47 C61 1.305 1_655 S
O48 Zn42 1.920 1_455 S
O48 C61 1.234 . S
C49 O54 1.167 . S
C49 O55 1.299 . S
O50 Zn44 2.114 . S
O50 C45 1.166 . S
O51 Zn43 1.905 . S
O51 C45 1.182 . S
O52 Zn43 1.898 . S
O52 C46 1.167 . S
O53 Zn44 2.120 . S
O53 C46 1.299 . S
O54 Zn42 1.898 . S
O54 C49 1.167 . S
O55 Zn44 2.120 . S
O55 C49 1.299 . S
O56 Zn44 2.114 . S
O56 C58 1.166 . S
O57 Zn42 1.905 . S
O57 C58 1.182 . S
C58 O56 1.166 . S
C58 O57 1.182 . S
O59 Zn44 2.080 . S
O59 C62 1.305 . S
O60 Zn43 1.920 . S
O60 C62 1.234 . S
C61 O47 1.305 1_455 S
C61 O48 1.234 . S
C62 O59 1.305 . S
C62 O60 1.234 . S
Zn63 O69 1.920 . S
Zn63 O75 1.898 . S
Zn63 O78 1.905 . S
Zn64 O72 1.905 . S
Zn64 O73 1.898 . S
Zn64 O81 1.920 1_545 S
Zn65 O68 2.080 . S
Zn65 O71 2.114 . S
Zn65 O74 2.120 . S
Zn65 O76 2.120 . S
Zn65 O77 2.114 . S
Zn65 O80 2.080 . S
C66 O71 1.166 . S
C66 O72 1.182 . S
C67 O73 1.167 . S
C67 O74 1.299 . S
O68 Zn65 2.080 . S
O68 C82 1.305 . S
O69 Zn63 1.920 . S
O69 C82 1.234 . S
C70 O75 1.167 . S
C70 O76 1.299 . S
O71 Zn65 2.114 . S
O71 C66 1.166 . S
O72 Zn64 1.905 . S
O72 C66 1.182 . S
O73 Zn64 1.898 . S
O73 C67 1.167 . S
O74 Zn65 2.120 . S
O74 C67 1.299 . S
O75 Zn63 1.898 . S
O75 C70 1.167 . S
O76 Zn65 2.120 . S
O76 C70 1.299 . S
O77 Zn65 2.114 . S
O77 C79 1.166 . S
O78 Zn63 1.905 . S
O78 C79 1.182 . S
C79 O77 1.166 . S
C79 O78 1.182 . S
O80 Zn65 2.080 . S
O80 C83 1.305 1_545 S
O81 Zn64 1.920 1_565 S
O81 C83 1.234 . S
C82 O68 1.305 . S
C82 O69 1.234 . S
C83 O80 1.305 1_565 S
C83 O81 1.234 . S
Zn84 O90 1.920 . S
Zn84 O96 1.898 . S
Zn84 O99 1.905 . S
Zn85 O93 1.905 . S
Zn85 O94 1.898 . S
Zn85 O102 1.920 . S
Zn86 O89 2.080 . S
Zn86 O92 2.114 . S
Zn86 O95 2.120 . S
Zn86 O97 2.120 . S
Zn86 O98 2.114 . S
Zn86 O101 2.080 . S
C87 O92 1.166 . S
C87 O93 1.182 . S
C88 O94 1.167 . S
C88 O95 1.299 . S
O89 Zn86 2.080 . S
O89 C103 1.305 . S
O90 Zn84 1.920 . S
O90 C103 1.234 . S
C91 O96 1.167 . S
C91 O97 1.299 . S
O92 Zn86 2.114 . S
O92 C87 1.166 . S
O93 Zn85 1.905 . S
O93 C87 1.182 . S
O94 Zn85 1.898 . S
O94 C88 1.167 . S
O95 Zn86 2.120 . S
O95 C88 1.299 . S
O96 Zn84 1.898 . S
O96 C91 1.167 . S
O97 Zn86 2.120 . S
O97 C91 1.299 . S
O98 Zn86 2.114 . S
O98 C100 1.166 . S
O99 Zn84 1.905 . S
O99 C100 1.182 . S
C100 O98 1.166 . S
C100 O99 1.182 . S
O101 Zn86 2.080 . S
O101 C104 1.305 . S
O102 Zn85 1.920 . S
O102 C104 1.234 . S
C103 O89 1.305 . S
C103 O90 1.234 . S
C104 O101 1.305 . S
C104 O102 1.234 . S
Zn105 O111 1.920 . S
Zn105 O117 1.898 . S
Zn105 O120 1.905 . S
Zn106 O114 1.905 . S
Zn106 O115 1.898 . S
Zn106 O123 1.920 1_655 S
Zn107 O110 2.080 . S
Zn107 O113 2.114 . S
Zn107 O116 2.120 . S
Zn107 O118 2.120 . S
Zn107 O119 2.114 . S
Zn107 O122 2.080 . S
C108 O113 1.166 . S
C108 O114 1.182 . S
C109 O115 1.167 . S
C109 O116 1.299 . S
O110 Zn107 2.080 . S
O110 C124 1.305 . S
O111 Zn105 1.920 . S
O111 C124 1.234 . S
C112 O117 1.167 . S
C112 O118 1.299 . S
O113 Zn107 2.114 . S
O113 C108 1.166 . S
O114 Zn106 1.905 . S
O114 C108 1.182 . S
O115 Zn106 1.898 . S
O115 C109 1.167 . S
O116 Zn107 2.120 . S
O116 C109 1.299 . S
O117 Zn105 1.898 . S
O117 C112 1.167 . S
O118 Zn107 2.120 . S
O118 C112 1.299 . S
O119 Zn107 2.114 . S
O119 C121 1.166 . S
O120 Zn105 1.905 . S
O120 C121 1.182 . S
C121 O119 1.166 . S
C121 O120 1.182 . S
O122 Zn107 2.080 . S
O122 C125 1.305 1_655 S
O123 Zn106 1.920 1_455 S
O123 C125 1.234 . S
C124 O110 1.305 . S
C124 O111 1.234 . S
C125 O122 1.305 1_455 S
C125 O123 1.234 . S
Zn126 O132 1.920 . S
Zn126 O138 1.898 . S
Zn126 O141 1.905 . S
Zn127 O135 1.905 . S
Zn127 O136 1.898 . S
Zn127 O144 1.920 1_455 S
Zn128 O131 2.080 . S
Zn128 O134 2.114 . S
Zn128 O137 2.120 . S
Zn128 O139 2.120 . S
Zn128 O140 2.114 . S
Zn128 O143 2.080 . S
C129 O134 1.166 . S
C129 O135 1.182 . S
C130 O136 1.167 . S
C130 O137 1.299 . S
O131 Zn128 2.080 . S
O131 C145 1.305 . S
O132 Zn126 1.920 . S
O132 C145 1.234 . S
C133 O138 1.167 . S
C133 O139 1.299 . S
O134 Zn128 2.114 . S
O134 C129 1.166 . S
O135 Zn127 1.905 . S
O135 C129 1.182 . S
O136 Zn127 1.898 . S
O136 C130 1.167 . S
O137 Zn128 2.120 . S
O137 C130 1.299 . S
O138 Zn126 1.898 . S
O138 C133 1.167 . S
O139 Zn128 2.120 . S
O139 C133 1.299 . S
O140 Zn128 2.114 . S
O140 C142 1.166 . S
O141 Zn126 1.905 . S
O141 C142 1.182 . S
C142 O140 1.166 . S
C142 O141 1.182 . S
O143 Zn128 2.080 . S
O143 C146 1.305 1_455 S
O144 Zn127 1.920 1_655 S
O144 C146 1.234 . S
C145 O131 1.305 . S
C145 O132 1.234 . S
C146 O143 1.305 1_655 S
C146 O144 1.234 . S
Zn147 O153 1.920 . S
Zn147 O159 1.898 . S
Zn147 O162 1.905 . S
Zn148 O156 1.905 . S
Zn148 O157 1.898 . S
Zn148 O165 1.920 1_565 S
Zn149 O152 2.080 . S
Zn149 O155 2.114 . S
Zn149 O158 2.120 . S
Zn149 O160 2.120 . S
Zn149 O161 2.114 . S
Zn149 O164 2.080 . S
C150 O155 1.166 . S
C150 O156 1.182 . S
C151 O157 1.167 . S
C151 O158 1.299 . S
O152 Zn149 2.080 . S
O152 C166 1.305 . S
O153 Zn147 1.920 . S
O153 C166 1.234 . S
C154 O159 1.167 . S
C154 O160 1.299 . S
O155 Zn149 2.114 . S
O155 C150 1.166 . S
O156 Zn148 1.905 . S
O156 C150 1.182 . S
O157 Zn148 1.898 . S
O157 C151 1.167 . S
O158 Zn149 2.120 . S
O158 C151 1.299 . S
O159 Zn147 1.898 . S
O159 C154 1.167 . S
O160 Zn149 2.120 . S
O160 C154 1.299 . S
O161 Zn149 2.114 . S
O161 C163 1.166 . S
O162 Zn147 1.905 . S
O162 C163 1.182 . S
C163 O161 1.166 . S
C163 O162 1.182 . S
O164 Zn149 2.080 . S
O164 C167 1.305 1_565 S
O165 Zn148 1.920 1_545 S
O165 C167 1.234 . S
C166 O152 1.305 . S
C166 O153 1.234 . S
C167 O164 1.305 1_545 S
C167 O165 1.234 . S
Zn168 O174 1.920 . S
Zn168 O180 1.898 . S
Zn168 O183 1.905 . S
Zn169 O177 1.905 . S
Zn169 O178 1.898 . S
Zn169 O186 1.920 . S
Zn170 O173 2.080 . S
Zn170 O176 2.114 . S
Zn170 O179 2.120 . S
Zn170 O181 2.120 . S
Zn170 O182 2.114 . S
Zn170 O185 2.080 . S
C171 O176 1.166 . S
C171 O177 1.182 . S
C172 O178 1.167 . S
C172 O179 1.299 . S
O173 Zn170 2.080 . S
O173 C187 1.305 . S
O174 Zn168 1.920 . S
O174 C187 1.234 . S
C175 O180 1.167 . S
C175 O181 1.299 . S
O176 Zn170 2.114 . S
O176 C171 1.166 . S
O177 Zn169 1.905 . S
O177 C171 1.182 . S
O178 Zn169 1.898 . S
O178 C172 1.167 . S
O179 Zn170 2.120 . S
O179 C172 1.299 . S
O180 Zn168 1.898 . S
O180 C175 1.167 . S
O181 Zn170 2.120 . S
O181 C175 1.299 . S
O182 Zn170 2.114 . S
O182 C184 1.166 . S
O183 Zn168 1.905 . S
O183 C184 1.182 . S
C184 O182 1.166 . S
C184 O183 1.182 . S
O185 Zn170 2.080 . S
O185 C188 1.305 . S
O186 Zn169 1.920 . S
O186 C188 1.234 . S
C187 O173 1.305 . S
C187 O174 1.234 . S
C188 O185 1.305 . S
C188 O186 1.234 . S
Zn189 O195 1.920 1_455 S
Zn189 O201 1.898 . S
Zn189 O204 1.905 . S
Zn190 O198 1.905 . S
Zn190 O199 1.898 . S
Zn190 O207 1.920 . S
Zn191 O194 2.080 . S
Zn191 O197 2.114 . S
Zn191 O200 2.120 . S
Zn191 O202 2.120 . S
Zn191 O203 2.114 . S
Zn191 O206 2.080 . S
C192 O197 1.166 . S
C192 O198 1.182 . S
C193 O199 1.167 . S
C193 O200 1.299 . S
O194 Zn191 2.080 . S
O194 C208 1.305 1_455 S
O195 Zn189 1.920 1_655 S
O195 C208 1.234 . S
C196 O201 1.167 . S
C196 O202 1.299 . S
O197 Zn191 2.114 . S
O197 C192 1.166 . S
O198 Zn190 1.905 . S
O198 C192 1.182 . S
O199 Zn190 1.898 . S
O199 C193 1.167 . S
O200 Zn191 2.120 . S
O200 C193 1.299 . S
O201 Zn189 1.898 . S
O201 C196 1.167 . S
O202 Zn191 2.120 . S
O202 C196 1.299 . S
O203 Zn191 2.114 . S
O203 C205 1.166 . S
O204 Zn189 1.905 . S
O204 C205 1.182 . S
C205 O203 1.166 . S
C205 O204 1.182 . S
O206 Zn191 2.080 . S
O206 C209 1.305 . S
O207 Zn190 1.920 . S
O207 C209 1.234 . S
C208 O194 1.305 1_655 S
C208 O195 1.234 . S
C209 O206 1.305 . S
C209 O207 1.234 . S
Zn210 O216 1.920 . S
Zn210 O222 1.898 . S
Zn210 O225 1.905 . S
Zn211 O219 1.905 . S
Zn211 O220 1.898 . S
Zn211 O228 1.920 1_565 S
Zn212 O215 2.080 . S
Zn212 O218 2.114 . S
Zn212 O221 2.120 . S
Zn212 O223 2.120 . S
Zn212 O224 2.114 . S
Zn212 O227 2.080 . S
C213 O218 1.166 . S
C213 O219 1.182 . S
C214 O220 1.167 . S
C214 O221 1.299 . S
O215 Zn212 2.080 . S
O215 C229 1.305 . S
O216 Zn210 1.920 . S
O216 C229 1.234 . S
C217 O222 1.167 . S
C217 O223 1.299 . S
O218 Zn212 2.114 . S
O218 C213 1.166 . S
O219 Zn211 1.905 . S
O219 C213 1.182 . S
O220 Zn211 1.898 . S
O220 C214 1.167 . S
O221 Zn212 2.120 . S
O221 C214 1.299 . S
O222 Zn210 1.898 . S
O222 C217 1.167 . S
O223 Zn212 2.120 . S
O223 C217 1.299 . S
O224 Zn212 2.114 . S
O224 C226 1.166 . S
O225 Zn210 1.905 . S
O225 C226 1.182 . S
C226 O224 1.166 . S
C226 O225 1.182 . S
O227 Zn212 2.080 . S
O227 C230 1.305 1_565 S
O228 Zn211 1.920 1_545 S
O228 C230 1.234 . S
C229 O215 1.305 . S
C229 O216 1.234 . S
C230 O227 1.305 1_545 S
C230 O228 1.234 . S
Zn231 O237 1.920 . S
Zn231 O243 1.898 . S
Zn231 O246 1.905 . S
Zn232 O240 1.905 . S
Zn232 O241 1.898 . S
Zn232 O249 1.920 . S
Zn233 O236 2.080 . S
Zn233 O239 2.114 . S
Zn233 O242 2.120 . S
Zn233 O244 2.120 . S
Zn233 O245 2.114 . S
Zn233 O248 2.080 . S
C234 O239 1.166 . S
C234 O240 1.182 . S
C235 O241 1.167 . S
C235 O242 1.299 . S
O236 Zn233 2.080 . S
O236 C250 1.305 . S
O237 Zn231 1.920 . S
O237 C250 1.234 . S
C238 O243 1.167 . S
C238 O244 1.299 . S
O239 Zn233 2.114 . S
O239 C234 1.166 . S
O240 Zn232 1.905 . S
O240 C234 1.182 . S
O241 Zn232 1.898 . S
O241 C235 1.167 . S
O242 Zn233 2.120 . S
O242 C235 1.299 . S
O243 Zn231 1.898 . S
O243 C238 1.167 . S
O244 Zn233 2.120 . S
O244 C238 1.299 . S
O245 Zn233 2.114 . S
O245 C247 1.166 . S
O246 Zn231 1.905 . S
O246 C247 1.182 . S
C247 O245 1.166 . S
C247 O246 1.182 . S
O248 Zn233 2.080 . S
O248 C251 1.305 . S
O249 Zn232 1.920 . S
O249 C251 1.234 . S
C250 O236 1.305 . S
C250 O237 1.234 . S
C251 O248 1.305 . S
C251 O249 1.234 . S
H252 C258 0.930 . S
H253 C262 0.930 . S
H254 C267 0.929 . S
H255 C265 0.929 . S
H256 C260 0.929 . S
H257 C266 0.929 . S
C258 H252 0.930 . S
C258 C259 1.367 . S
C258 C266 1.378 . S
C259 C258 1.367 . S
C259 C267 1.433 . S
C260 H256 0.929 . S
C260 C262 1.378 . S
C260 C264 1.350 . S
C261 C264 1.463 . S
C261 C266 1.350 . S
C261 N269 1.427 . S
C262 H253 0.930 . S
C262 C260 1.378 . S
C262 C263 1.367 . S
C263 C262 1.367 . S
C263 C265 1.433 . S
C264 C260 1.350 . S
C264 C261 1.463 . S
C264 N268 1.427 . S
C265 H255 0.929 . S
C265 C263 1.433 . S
C265 N268 1.384 . S
C266 H257 0.929 . S
C266 C258 1.378 . S
C266 C261 1.350 . S
C267 H254 0.929 . S
C267 C259 1.433 . S
C267 N269 1.384 . S
N268 C264 1.427 . S
N268 C265 1.384 . S
N269 C261 1.427 . S
N269 C267 1.384 . S
H270 C276 0.930 . S
H271 C280 0.930 . S
H272 C285 0.929 . S
H273 C283 0.929 . S
H274 C278 0.933 . S
H275 C284 0.929 . S
C276 H270 0.930 . S
C276 C277 1.367 . S
C276 C284 1.378 . S
C277 C276 1.367 . S
C277 C285 1.433 . S
C278 H274 0.933 . S
C278 C280 1.360 1_455 S
C278 C282 1.364 . S
C279 C282 1.463 . S
C279 C284 1.350 . S
C279 N287 1.427 . S
C280 H271 0.930 . S
C280 C278 1.360 1_655 S
C280 C281 1.367 . S
C281 C280 1.367 . S
C281 C283 1.433 . S
C282 C278 1.364 . S
C282 C279 1.463 . S
C282 N286 1.427 . S
C283 H273 0.929 . S
C283 C281 1.433 . S
C283 N286 1.384 1_655 S
C284 H275 0.929 . S
C284 C276 1.378 . S
C284 C279 1.350 . S
C285 H272 0.929 . S
C285 C277 1.433 . S
C285 N287 1.384 . S
N286 C282 1.427 . S
N286 C283 1.384 1_455 S
N287 C279 1.427 . S
N287 C285 1.384 . S
H288 C294 0.930 . S
H289 C298 0.930 . S
H290 C303 0.929 . S
H291 C301 0.929 . S
H292 C296 0.929 . S
H293 C302 0.929 . S
C294 H288 0.930 . S
C294 C295 1.367 . S
C294 C302 1.378 1_545 S
C295 C294 1.367 . S
C295 C303 1.433 . S
C296 H292 0.929 . S
C296 C298 1.378 . S
C296 C300 1.350 . S
C297 C300 1.463 . S
C297 C302 1.350 . S
C297 N305 1.427 1_565 S
C298 H289 0.930 . S
C298 C296 1.378 . S
C298 C299 1.367 . S
C299 C298 1.367 . S
C299 C301 1.433 . S
C300 C296 1.350 . S
C300 C297 1.463 . S
C300 N304 1.427 . S
C301 H291 0.929 . S
C301 C299 1.433 . S
C301 N304 1.384 . S
C302 H293 0.929 . S
C302 C294 1.378 1_565 S
C302 C297 1.350 . S
C303 H290 0.929 . S
C303 C295 1.433 . S
C303 N305 1.384 . S
N304 C300 1.427 . S
N304 C301 1.384 . S
N305 C297 1.427 1_545 S
N305 C303 1.384 . S
H306 C312 0.930 . S
H307 C316 0.930 . S
H308 C321 0.929 . S
H309 C319 0.929 . S
H310 C314 0.929 . S
H311 C320 0.929 . S
C312 H306 0.930 . S
C312 C313 1.367 . S
C312 C320 1.378 . S
C313 C312 1.367 . S
C313 C321 1.433 . S
C314 H310 0.929 . S
C314 C316 1.378 . S
C314 C318 1.350 . S
C315 C318 1.463 . S
C315 C320 1.350 . S
C315 N323 1.427 . S
C316 H307 0.930 . S
C316 C314 1.378 . S
C316 C317 1.367 . S
C317 C316 1.367 . S
C317 C319 1.433 . S
C318 C314 1.350 . S
C318 C315 1.463 . S
C318 N322 1.427 . S
C319 H309 0.929 . S
C319 C317 1.433 . S
C319 N322 1.384 . S
C320 H311 0.929 . S
C320 C312 1.378 . S
C320 C315 1.350 . S
C321 H308 0.929 . S
C321 C313 1.433 . S
C321 N323 1.384 . S
N322 C318 1.427 . S
N322 C319 1.384 . S
N323 C315 1.427 . S
N323 C321 1.384 . S
H324 C330 0.930 . S
H325 C334 0.930 . S
H326 C339 0.929 . S
H327 C337 0.929 . S
H328 C332 0.929 . S
H329 C338 0.929 . S
C330 H324 0.930 . S
C330 C331 1.367 . S
C330 C338 1.378 . S
C331 C330 1.367 . S
C331 C339 1.433 . S
C332 H328 0.929 . S
C332 C334 1.378 1_455 S
C332 C336 1.350 . S
C333 C336 1.463 . S
C333 C338 1.350 . S
C333 N341 1.427 . S
C334 H325 0.930 . S
C334 C332 1.378 1_655 S
C334 C335 1.367 . S
C335 C334 1.367 . S
C335 C337 1.433 . S
C336 C332 1.350 . S
C336 C333 1.463 . S
C336 N340 1.427 . S
C337 H327 0.929 . S
C337 C335 1.433 . S
C337 N340 1.384 1_655 S
C338 H329 0.929 . S
C338 C330 1.378 . S
C338 C333 1.350 . S
C339 H326 0.929 . S
C339 C331 1.433 . S
C339 N341 1.384 . S
N340 C336 1.427 . S
N340 C337 1.384 1_455 S
N341 C333 1.427 . S
N341 C339 1.384 . S
H342 C348 0.930 . S
H343 C352 0.930 . S
H344 C357 0.929 . S
H345 C355 0.929 . S
H346 C350 0.929 . S
H347 C356 0.929 . S
C348 H342 0.930 . S
C348 C349 1.367 . S
C348 C356 1.378 . S
C349 C348 1.367 . S
C349 C357 1.433 . S
C350 H346 0.929 . S
C350 C352 1.378 1_565 S
C350 C354 1.350 . S
C351 C354 1.463 . S
C351 C356 1.350 . S
C351 N359 1.427 . S
C352 H343 0.930 . S
C352 C350 1.378 1_545 S
C352 C353 1.367 . S
C353 C352 1.367 . S
C353 C355 1.433 . S
C354 C350 1.350 . S
C354 C351 1.463 . S
C354 N358 1.427 1_565 S
C355 H345 0.929 . S
C355 C353 1.433 . S
C355 N358 1.386 . S
C356 H347 0.929 . S
C356 C348 1.378 . S
C356 C351 1.350 . S
C357 H344 0.929 . S
C357 C349 1.433 . S
C357 N359 1.384 . S
N358 C354 1.427 1_545 S
N358 C355 1.386 . S
N359 C351 1.427 . S
N359 C357 1.384 . S
H360 C366 0.930 . S
H361 C370 0.930 . S
H362 C375 0.929 . S
H363 C373 0.929 . S
H364 C368 0.929 . S
H365 C374 0.929 . S
C366 H360 0.930 . S
C366 C367 1.367 . S
C366 C374 1.378 . S
C367 C366 1.367 . S
C367 C375 1.433 . S
C368 H364 0.929 . S
C368 C370 1.378 . S
C368 C372 1.350 . S
C369 C372 1.463 . S
C369 C374 1.350 . S
C369 N377 1.427 . S
C370 H361 0.930 . S
C370 C368 1.378 . S
C370 C371 1.367 . S
C371 C370 1.367 . S
C371 C373 1.433 . S
C372 C368 1.350 . S
C372 C369 1.463 . S
C372 N376 1.427 . S
C373 H363 0.929 . S
C373 C371 1.433 . S
C373 N376 1.384 . S
C374 H365 0.929 . S
C374 C366 1.378 . S
C374 C369 1.350 . S
C375 H362 0.929 . S
C375 C367 1.433 . S
C375 N377 1.384 . S
N376 C372 1.427 . S
N376 C373 1.384 . S
N377 C369 1.427 . S
N377 C375 1.384 . S
H378 C384 0.930 . S
H379 C388 0.930 . S
H380 C393 0.929 . S
H381 C391 0.929 . S
H382 C386 0.929 . S
H383 C392 0.929 . S
C384 H378 0.930 . S
C384 C385 1.367 . S
C384 C392 1.378 1_455 S
C385 C384 1.367 . S
C385 C393 1.433 . S
C386 H382 0.929 . S
C386 C388 1.378 . S
C386 C390 1.350 . S
C387 C390 1.463 . S
C387 C392 1.350 . S
C387 N395 1.427 . S
C388 H379 0.930 . S
C388 C386 1.378 . S
C388 C389 1.367 . S
C389 C388 1.367 . S
C389 C391 1.433 . S
C390 C386 1.350 . S
C390 C387 1.463 . S
C390 N394 1.427 . S
C391 H381 0.929 . S
C391 C389 1.433 . S
C391 N394 1.384 . S
C392 H383 0.929 . S
C392 C384 1.378 1_655 S
C392 C387 1.350 . S
C393 H380 0.929 . S
C393 C385 1.433 . S
C393 N395 1.384 1_455 S
N394 C390 1.427 . S
N394 C391 1.384 . S
N395 C387 1.427 . S
N395 C393 1.384 1_655 S
H396 C402 0.930 . S
H397 C406 0.930 . S
H398 C411 0.929 . S
H399 C409 0.929 1_455 S
H400 C404 0.929 . S
H401 C410 0.929 1_545 S
C402 H396 0.930 . S
C402 C403 1.367 . S
C402 C410 1.378 . S
C403 C402 1.367 . S
C403 C411 1.433 . S
C404 H400 0.929 . S
C404 C406 1.378 . S
C404 C408 1.350 . S
C405 C408 1.463 . S
C405 C410 1.350 1_545 S
C405 N413 1.427 . S
C406 H397 0.930 . S
C406 C404 1.378 . S
C406 C407 1.367 . S
C407 C406 1.367 . S
C407 C409 1.433 . S
C408 C404 1.350 . S
C408 C405 1.463 . S
C408 N412 1.427 . S
C409 H399 0.929 1_655 S
C409 C407 1.433 . S
C409 N412 1.384 . S
C410 H401 0.929 1_565 S
C410 C402 1.378 . S
C410 C405 1.350 1_565 S
C411 H398 0.929 . S
C411 C403 1.433 . S
C411 N413 1.384 1_565 S
N412 C408 1.427 . S
N412 C409 1.384 . S
N413 C405 1.427 . S
N413 C411 1.384 1_545 S
H414 C420 0.930 . S
H415 C424 0.930 . S
H416 C429 0.929 . S
H417 C427 0.929 . S
H418 C422 0.929 . S
H419 C428 0.929 . S
C420 H414 0.930 . S
C420 C421 1.367 . S
C420 C428 1.378 . S
C421 C420 1.367 . S
C421 C429 1.433 . S
C422 H418 0.929 . S
C422 C424 1.378 . S
C422 C426 1.350 . S
C423 C426 1.463 . S
C423 C428 1.350 . S
C423 N431 1.427 . S
C424 H415 0.930 . S
C424 C422 1.378 . S
C424 C425 1.367 . S
C425 C424 1.367 . S
C425 C427 1.433 . S
C426 C422 1.350 . S
C426 C423 1.463 . S
C426 N430 1.427 . S
C427 H417 0.929 . S
C427 C425 1.433 . S
C427 N430 1.384 . S
C428 H419 0.929 . S
C428 C420 1.378 . S
C428 C423 1.350 . S
C429 H416 0.929 . S
C429 C421 1.433 . S
C429 N431 1.384 . S
N430 C426 1.427 . S
N430 C427 1.384 . S
N431 C423 1.427 . S
N431 C429 1.384 . S
H432 C438 0.930 . S
H433 C442 0.930 . S
H434 C447 0.929 . S
H435 C445 0.929 . S
H436 C440 0.929 . S
H437 C446 0.930 . S
C438 H432 0.930 . S
C438 C439 1.367 . S
C438 C446 1.375 1_455 S
C439 C438 1.367 . S
C439 C447 1.433 . S
C440 H436 0.929 . S
C440 C442 1.378 . S
C440 C444 1.350 . S
C441 C444 1.463 . S
C441 C446 1.351 . S
C441 N449 1.427 . S
C442 H433 0.930 . S
C442 C440 1.378 . S
C442 C443 1.367 . S
C443 C442 1.367 . S
C443 C445 1.433 . S
C444 C440 1.350 . S
C444 C441 1.463 . S
C444 N448 1.427 . S
C445 H435 0.929 . S
C445 C443 1.433 . S
C445 N448 1.384 . S
C446 H437 0.930 . S
C446 C438 1.375 1_655 S
C446 C441 1.351 . S
C447 H434 0.929 . S
C447 C439 1.433 . S
C447 N449 1.384 1_455 S
N448 C444 1.427 . S
N448 C445 1.384 . S
N449 C441 1.427 . S
N449 C447 1.384 1_655 S
H450 C456 0.930 . S
H451 C460 0.930 . S
H452 C465 0.929 . S
H453 C463 0.929 . S
H454 C458 0.929 . S
H455 C464 0.929 . S
C456 H450 0.930 . S
C456 C457 1.367 . S
C456 C464 1.378 . S
C457 C456 1.367 . S
C457 C465 1.433 . S
C458 H454 0.929 . S
C458 C460 1.378 1_545 S
C458 C462 1.350 . S
C459 C462 1.463 . S
C459 C464 1.350 . S
C459 N467 1.427 . S
C460 H451 0.930 . S
C460 C458 1.378 1_565 S
C460 C461 1.367 . S
C461 C460 1.367 . S
C461 C463 1.433 . S
C462 C458 1.350 . S
C462 C459 1.463 . S
C462 N466 1.427 . S
C463 H453 0.929 . S
C463 C461 1.433 . S
C463 N466 1.384 1_565 S
C464 H455 0.929 . S
C464 C456 1.378 . S
C464 C459 1.350 . S
C465 H452 0.929 . S
C465 C457 1.433 . S
C465 N467 1.384 . S
N466 C462 1.427 . S
N466 C463 1.384 1_545 S
N467 C459 1.427 . S
N467 C465 1.384 . S
H468 C474 0.930 . S
H469 C478 0.930 . S
H470 C483 0.929 . S
H471 C481 0.929 . S
H472 C476 0.929 . S
H473 C482 0.929 . S
C474 H468 0.930 . S
C474 C475 1.367 . S
C474 C482 1.378 . S
C475 C474 1.367 . S
C475 C483 1.433 . S
C476 H472 0.929 . S
C476 C478 1.378 . S
C476 C480 1.350 . S
C477 C480 1.463 . S
C477 C482 1.350 . S
C477 N485 1.427 . S
C478 H469 0.930 . S
C478 C476 1.378 . S
C478 C479 1.367 . S
C479 C478 1.367 . S
C479 C481 1.433 . S
C480 C476 1.350 . S
C480 C477 1.463 . S
C480 N484 1.427 . S
C481 H471 0.929 . S
C481 C479 1.433 . S
C481 N484 1.384 . S
C482 H473 0.929 . S
C482 C474 1.378 . S
C482 C477 1.350 . S
C483 H470 0.929 . S
C483 C475 1.433 . S
C483 N485 1.384 . S
N484 C480 1.427 . S
N484 C481 1.384 . S
N485 C477 1.427 . S
N485 C483 1.384 . S
H486 C492 0.930 . S
H487 C496 0.930 . S
H488 C501 0.929 . S
H489 C499 0.929 . S
H490 C494 0.929 . S
H491 C500 0.929 . S
C492 H486 0.930 . S
C492 C493 1.367 . S
C492 C500 1.378 . S
C493 C492 1.367 . S
C493 C501 1.433 . S
C494 H490 0.929 . S
C494 C496 1.378 . S
C494 C498 1.350 . S
C495 C498 1.463 . S
C495 C500 1.350 . S
C495 N503 1.427 . S
C496 H487 0.930 . S
C496 C494 1.378 . S
C496 C497 1.367 . S
C497 C496 1.367 . S
C497 C499 1.433 . S
C498 C494 1.350 . S
C498 C495 1.463 . S
C498 N502 1.427 . S
C499 H489 0.929 . S
C499 C497 1.433 . S
C499 N502 1.384 . S
C500 H491 0.929 . S
C500 C492 1.378 . S
C500 C495 1.350 . S
C501 H488 0.929 . S
C501 C493 1.433 . S
C501 N503 1.384 . S
N502 C498 1.427 . S
N502 C499 1.384 . S
N503 C495 1.427 . S
N503 C501 1.384 . S
H504 C510 0.930 . S
H505 C514 0.930 . S
H506 C519 0.929 . S
H507 C517 0.929 . S
H508 C512 0.929 . S
H509 C518 0.929 . S
C510 H504 0.930 . S
C510 C511 1.367 . S
C510 C518 1.378 . S
C511 C510 1.367 . S
C511 C519 1.433 . S
C512 H508 0.929 . S
C512 C514 1.378 . S
C512 C516 1.350 . S
C513 C516 1.463 . S
C513 C518 1.350 . S
C513 N521 1.427 . S
C514 H505 0.930 . S
C514 C512 1.378 . S
C514 C515 1.367 . S
C515 C514 1.367 . S
C515 C517 1.433 . S
C516 C512 1.350 . S
C516 C513 1.463 . S
C516 N520 1.427 . S
C517 H507 0.929 . S
C517 C515 1.433 . S
C517 N520 1.384 . S
C518 H509 0.929 . S
C518 C510 1.378 . S
C518 C513 1.350 . S
C519 H506 0.929 . S
C519 C511 1.433 . S
C519 N521 1.384 . S
N520 C516 1.427 . S
N520 C517 1.384 . S
N521 C513 1.427 . S
N521 C519 1.384 . S
H522 C528 0.930 . S
H523 C532 0.930 . S
H524 C537 0.929 . S
H525 C535 0.929 . S
H526 C530 0.929 . S
H527 C536 0.929 . S
C528 H522 0.930 . S
C528 C529 1.367 . S
C528 C536 1.378 . S
C529 C528 1.367 . S
C529 C537 1.433 . S
C530 H526 0.929 . S
C530 C532 1.378 . S
C530 C534 1.350 . S
C531 C534 1.463 . S
C531 C536 1.350 . S
C531 N539 1.427 . S
C532 H523 0.930 . S
C532 C530 1.378 . S
C532 C533 1.367 . S
C533 C532 1.367 . S
C533 C535 1.433 . S
C534 C530 1.350 . S
C534 C531 1.463 . S
C534 N538 1.427 . S
C535 H525 0.929 . S
C535 C533 1.433 . S
C535 N538 1.384 . S
C536 H527 0.929 . S
C536 C528 1.378 . S
C536 C531 1.350 . S
C537 H524 0.929 . S
C537 C529 1.433 . S
C537 N539 1.384 . S
N538 C534 1.427 . S
N538 C535 1.384 . S
N539 C531 1.427 . S
N539 C537 1.384 . S
H540 C546 0.930 . S
H541 C550 0.930 . S
H542 C555 0.929 . S
H543 C553 0.929 . S
H544 C548 0.929 . S
H545 C554 0.929 . S
C546 H540 0.930 . S
C546 C547 1.367 . S
C546 C554 1.378 . S
C547 C546 1.367 . S
C547 C555 1.433 . S
C548 H544 0.929 . S
C548 C550 1.378 . S
C548 C552 1.350 . S
C549 C552 1.463 . S
C549 C554 1.350 . S
C549 N557 1.427 . S
C550 H541 0.930 . S
C550 C548 1.378 . S
C550 C551 1.367 . S
C551 C550 1.367 . S
C551 C553 1.433 . S
C552 C548 1.350 . S
C552 C549 1.463 . S
C552 N556 1.427 . S
C553 H543 0.929 . S
C553 C551 1.433 . S
C553 N556 1.384 . S
C554 H545 0.929 . S
C554 C546 1.378 . S
C554 C549 1.350 . S
C555 H542 0.929 . S
C555 C547 1.433 . S
C555 N557 1.384 . S
N556 C552 1.427 . S
N556 C553 1.384 . S
N557 C549 1.427 . S
N557 C555 1.384 . S
H558 C564 0.930 . S
H559 C568 0.930 . S
H560 C573 0.929 . S
H561 C571 0.929 . S
H562 C566 0.929 . S
H563 C572 0.929 . S
C564 H558 0.930 . S
C564 C565 1.367 . S
C564 C572 1.378 . S
C565 C564 1.367 . S
C565 C573 1.433 . S
C566 H562 0.929 . S
C566 C568 1.378 . S
C566 C570 1.350 . S
C567 C570 1.463 . S
C567 C572 1.350 . S
C567 N575 1.427 . S
C568 H559 0.930 . S
C568 C566 1.378 . S
C568 C569 1.367 . S
C569 C568 1.367 . S
C569 C571 1.433 . S
C570 C566 1.350 . S
C570 C567 1.463 . S
C570 N574 1.427 . S
C571 H561 0.929 . S
C571 C569 1.433 . S
C571 N574 1.384 . S
C572 H563 0.929 . S
C572 C564 1.378 . S
C572 C567 1.350 . S
C573 H560 0.929 . S
C573 C565 1.433 . S
C573 N575 1.384 . S
N574 C570 1.427 . S
N574 C571 1.384 . S
N575 C567 1.427 . S
N575 C573 1.384 . S
H576 C582 0.930 . S
H577 C586 0.930 . S
H578 C591 0.929 . S
H579 C589 0.929 . S
H580 C584 0.929 . S
H581 C590 0.929 . S
C582 H576 0.930 . S
C582 C583 1.367 1_545 S
C582 C590 1.378 . S
C583 C582 1.367 1_565 S
C583 C591 1.433 . S
C584 H580 0.929 . S
C584 C586 1.378 . S
C584 C588 1.350 1_565 S
C585 C588 1.463 1_566 S
C585 C590 1.350 1_565 S
C585 N593 1.427 . S
C586 H577 0.930 . S
C586 C584 1.378 . S
C586 C587 1.367 1_565 S
C587 C586 1.367 1_545 S
C587 C589 1.433 . S
C588 C584 1.350 1_545 S
C588 C585 1.463 1_544 S
C588 N592 1.427 . S
C589 H579 0.929 . S
C589 C587 1.433 . S
C589 N592 1.384 . S
C590 H581 0.929 . S
C590 C582 1.378 . S
C590 C585 1.350 1_545 S
C591 H578 0.929 . S
C591 C583 1.433 . S
C591 N593 1.384 . S
N592 C588 1.427 . S
N592 C589 1.384 . S
N593 C585 1.427 . S
N593 C591 1.384 . S
H594 C600 0.930 . S
H595 C604 0.930 . S
H596 C609 0.929 . S
H597 C607 0.929 . S
H598 C602 0.929 . S
H599 C608 0.929 . S
C600 H594 0.930 . S
C600 C601 1.367 . S
C600 C608 1.378 . S
C601 C600 1.367 . S
C601 C609 1.433 . S
C602 H598 0.929 . S
C602 C604 1.378 . S
C602 C606 1.350 . S
C603 C606 1.463 . S
C603 C608 1.350 . S
C603 N611 1.427 . S
C604 H595 0.930 . S
C604 C602 1.378 . S
C604 C605 1.367 . S
C605 C604 1.367 . S
C605 C607 1.433 . S
C606 C602 1.350 . S
C606 C603 1.463 . S
C606 N610 1.427 . S
C607 H597 0.929 . S
C607 C605 1.433 . S
C607 N610 1.384 . S
C608 H599 0.929 . S
C608 C600 1.378 . S
C608 C603 1.350 . S
C609 H596 0.929 . S
C609 C601 1.433 . S
C609 N611 1.384 . S
N610 C606 1.427 . S
N610 C607 1.384 . S
N611 C603 1.427 . S
N611 C609 1.384 . S
H612 C618 0.930 . S
H613 C622 0.930 . S
H614 C627 0.929 . S
H615 C625 0.929 . S
H616 C620 0.929 . S
H617 C626 0.929 . S
C618 H612 0.930 . S
C618 C619 1.367 . S
C618 C626 1.378 . S
C619 C618 1.367 . S
C619 C627 1.433 . S
C620 H616 0.929 . S
C620 C622 1.378 . S
C620 C624 1.350 . S
C621 C624 1.463 1_456 S
C621 C626 1.350 . S
C621 N629 1.430 . S
C622 H613 0.930 . S
C622 C620 1.378 . S
C622 C623 1.367 . S
C623 C622 1.367 . S
C623 C625 1.433 . S
C624 C620 1.350 . S
C624 C621 1.463 1_654 S
C624 N628 1.430 . S
C625 H615 0.929 . S
C625 C623 1.433 . S
C625 N628 1.385 . S
C626 H617 0.929 . S
C626 C618 1.378 . S
C626 C621 1.350 . S
C627 H614 0.929 . S
C627 C619 1.433 . S
C627 N629 1.385 . S
N628 C624 1.430 . S
N628 C625 1.385 . S
N629 C621 1.430 . S
N629 C627 1.385 . S
H630 C636 0.930 1_565 S
H631 C640 0.930 1_545 S
H632 C645 0.929 . S
H633 C643 0.929 . S
H634 C638 0.929 . S
H635 C644 0.929 . S
C636 H630 0.930 1_545 S
C636 C637 1.367 . S
C636 C644 1.378 1_545 S
C637 C636 1.367 . S
C637 C645 1.433 . S
C638 H634 0.929 . S
C638 C640 1.378 1_545 S
C638 C642 1.350 1_545 S
C639 C642 1.463 1_545 S
C639 C644 1.350 1_545 S
C639 N647 1.427 . S
C640 H631 0.930 1_565 S
C640 C638 1.378 1_565 S
C640 C641 1.367 . S
C641 C640 1.367 . S
C641 C643 1.433 . S
C642 C638 1.350 1_565 S
C642 C639 1.463 1_565 S
C642 N646 1.427 . S
C643 H633 0.929 . S
C643 C641 1.433 . S
C643 N646 1.384 . S
C644 H635 0.929 . S
C644 C636 1.378 1_565 S
C644 C639 1.350 1_565 S
C645 H632 0.929 . S
C645 C637 1.433 . S
C645 N647 1.384 . S
N646 C642 1.427 . S
N646 C643 1.384 . S
N647 C639 1.427 . S
N647 C645 1.384 . S
H648 C654 0.930 . S
H649 C658 0.930 . S
H650 C663 0.929 . S
H651 C661 0.929 . S
H652 C656 0.929 . S
H653 C662 0.929 . S
C654 H648 0.930 . S
C654 C655 1.367 . S
C654 C662 1.378 . S
C655 C654 1.367 . S
C655 C663 1.433 . S
C656 H652 0.929 . S
C656 C658 1.378 . S
C656 C660 1.350 . S
C657 C660 1.463 1_554 S
C657 C662 1.350 . S
C657 N665 1.427 . S
C658 H649 0.930 . S
C658 C656 1.378 . S
C658 C659 1.367 . S
C659 C658 1.367 . S
C659 C661 1.433 . S
C660 C656 1.350 . S
C660 C657 1.463 1_556 S
C660 N664 1.427 . S
C661 H651 0.929 . S
C661 C659 1.433 . S
C661 N664 1.384 . S
C662 H653 0.929 . S
C662 C654 1.378 . S
C662 C657 1.350 . S
C663 H650 0.929 . S
C663 C655 1.433 . S
C663 N665 1.384 . S
N664 C660 1.427 . S
N664 C661 1.384 . S
N665 C657 1.427 . S
N665 C663 1.384 . S
H666 C672 0.930 . S
H667 C676 0.930 . S
H668 C681 0.929 . S
H669 C679 0.929 . S
H670 C674 0.929 . S
H671 C680 0.929 . S
C672 H666 0.930 . S
C672 C673 1.367 . S
C672 C680 1.378 . S
C673 C672 1.367 . S
C673 C681 1.433 . S
C674 H670 0.929 . S
C674 C676 1.378 . S
C674 C678 1.350 . S
C675 C678 1.463 1_455 S
C675 C680 1.350 . S
C675 N683 1.427 . S
C676 H667 0.930 . S
C676 C674 1.378 . S
C676 C677 1.367 . S
C677 C676 1.367 . S
C677 C679 1.433 . S
C678 C674 1.350 . S
C678 C675 1.463 1_655 S
C678 N682 1.427 . S
C679 H669 0.929 . S
C679 C677 1.433 . S
C679 N682 1.384 . S
C680 H671 0.929 . S
C680 C672 1.378 . S
C680 C675 1.350 . S
C681 H668 0.929 . S
C681 C673 1.433 . S
C681 N683 1.384 . S
N682 C678 1.427 . S
N682 C679 1.384 . S
N683 C675 1.427 . S
N683 C681 1.384 . S
H684 C690 0.930 . S
H685 C694 0.930 . S
H686 C699 0.929 . S
H687 C697 0.929 . S
H688 C692 0.929 . S
H689 C698 0.929 . S
C690 H684 0.930 . S
C690 C691 1.367 . S
C690 C698 1.378 . S
C691 C690 1.367 . S
C691 C699 1.433 . S
C692 H688 0.929 . S
C692 C694 1.378 . S
C692 C696 1.350 . S
C693 C696 1.463 . S
C693 C698 1.350 . S
C693 N701 1.427 . S
C694 H685 0.930 . S
C694 C692 1.378 . S
C694 C695 1.367 . S
C695 C694 1.367 . S
C695 C697 1.433 . S
C696 C692 1.350 . S
C696 C693 1.463 . S
C696 N700 1.427 . S
C697 H687 0.929 . S
C697 C695 1.433 . S
C697 N700 1.384 . S
C698 H689 0.929 . S
C698 C690 1.378 . S
C698 C693 1.350 . S
C699 H686 0.929 . S
C699 C691 1.433 . S
C699 N701 1.384 . S
N700 C696 1.427 . S
N700 C697 1.384 . S
N701 C693 1.427 . S
N701 C699 1.384 . S
H702 C708 0.930 . S
H703 C712 0.930 . S
H704 C717 0.929 . S
H705 C715 0.929 . S
H706 C710 0.929 . S
H707 C716 0.929 . S
C708 H702 0.930 . S
C708 C709 1.367 . S
C708 C716 1.378 . S
C709 C708 1.367 . S
C709 C717 1.433 . S
C710 H706 0.929 . S
C710 C712 1.378 . S
C710 C714 1.350 . S
C711 C714 1.463 . S
C711 C716 1.350 . S
C711 N719 1.427 . S
C712 H703 0.930 . S
C712 C710 1.378 . S
C712 C713 1.367 . S
C713 C712 1.367 . S
C713 C715 1.433 . S
C714 C710 1.350 . S
C714 C711 1.463 . S
C714 N718 1.427 . S
C715 H705 0.929 . S
C715 C713 1.433 . S
C715 N718 1.384 . S
C716 H707 0.929 . S
C716 C708 1.378 . S
C716 C711 1.350 . S
C717 H704 0.929 . S
C717 C709 1.433 . S
C717 N719 1.384 . S
N718 C714 1.427 . S
N718 C715 1.384 . S
N719 C711 1.427 . S
N719 C717 1.384 . S
H720 C726 0.930 . S
H721 C730 0.930 . S
H722 C735 0.929 . S
H723 C733 0.929 . S
H724 C728 0.929 . S
H725 C734 0.929 . S
C726 H720 0.930 . S
C726 C727 1.367 . S
C726 C734 1.378 . S
C727 C726 1.367 . S
C727 C735 1.433 . S
C728 H724 0.929 . S
C728 C730 1.378 . S
C728 C732 1.350 . S
C729 C732 1.463 . S
C729 C734 1.350 . S
C729 N737 1.427 . S
C730 H721 0.930 . S
C730 C728 1.378 . S
C730 C731 1.367 . S
C731 C730 1.367 . S
C731 C733 1.433 . S
C732 C728 1.350 . S
C732 C729 1.463 . S
C732 N736 1.427 . S
C733 H723 0.929 . S
C733 C731 1.433 . S
C733 N736 1.384 . S
C734 H725 0.929 . S
C734 C726 1.378 . S
C734 C729 1.350 . S
C735 H722 0.929 . S
C735 C727 1.433 . S
C735 N737 1.384 . S
N736 C732 1.427 . S
N736 C733 1.384 . S
N737 C729 1.427 . S
N737 C735 1.384 . S
H738 C744 0.930 . S
H739 C748 0.930 . S
H740 C753 0.929 . S
H741 C751 0.929 . S
H742 C746 0.929 . S
H743 C752 0.929 . S
C744 H738 0.930 . S
C744 C745 1.367 . S
C744 C752 1.378 . S
C745 C744 1.367 . S
C745 C753 1.433 . S
C746 H742 0.929 . S
C746 C748 1.378 . S
C746 C750 1.350 . S
C747 C750 1.463 . S
C747 C752 1.350 . S
C747 N755 1.427 . S
C748 H739 0.930 . S
C748 C746 1.378 . S
C748 C749 1.367 . S
C749 C748 1.367 . S
C749 C751 1.433 . S
C750 C746 1.350 . S
C750 C747 1.463 . S
C750 N754 1.427 . S
C751 H741 0.929 . S
C751 C749 1.433 . S
C751 N754 1.384 . S
C752 H743 0.929 . S
C752 C744 1.378 . S
C752 C747 1.350 . S
C753 H740 0.929 . S
C753 C745 1.433 . S
C753 N755 1.384 . S
N754 C750 1.427 . S
N754 C751 1.384 . S
N755 C747 1.427 . S
N755 C753 1.384 . S
H756 C762 0.930 . S
H757 C766 0.930 . S
H758 C771 0.929 . S
H759 C769 0.929 . S
H760 C764 0.929 . S
H761 C770 0.929 . S
C762 H756 0.930 . S
C762 C763 1.367 . S
C762 C770 1.378 . S
C763 C762 1.367 . S
C763 C771 1.433 . S
C764 H760 0.929 . S
C764 C766 1.378 . S
C764 C768 1.350 . S
C765 C768 1.463 . S
C765 C770 1.350 . S
C765 N773 1.427 . S
C766 H757 0.930 . S
C766 C764 1.378 . S
C766 C767 1.367 . S
C767 C766 1.367 . S
C767 C769 1.433 . S
C768 C764 1.350 . S
C768 C765 1.463 . S
C768 N772 1.427 . S
C769 H759 0.929 . S
C769 C767 1.433 . S
C769 N772 1.384 . S
C770 H761 0.929 . S
C770 C762 1.378 . S
C770 C765 1.350 . S
C771 H758 0.929 . S
C771 C763 1.433 . S
C771 N773 1.384 . S
N772 C768 1.427 . S
N772 C769 1.384 . S
N773 C765 1.427 . S
N773 C771 1.384 . S
H774 C780 0.930 . S
H775 C784 0.930 . S
H776 C789 0.929 . S
H777 C787 0.929 . S
H778 C782 0.929 . S
H779 C788 0.929 . S
C780 H774 0.930 . S
C780 C781 1.367 . S
C780 C788 1.378 . S
C781 C780 1.367 . S
C781 C789 1.433 . S
C782 H778 0.929 . S
C782 C784 1.378 . S
C782 C786 1.350 . S
C783 C786 1.463 . S
C783 C788 1.350 . S
C783 N791 1.427 . S
C784 H775 0.930 . S
C784 C782 1.378 . S
C784 C785 1.367 . S
C785 C784 1.367 . S
C785 C787 1.433 . S
C786 C782 1.350 . S
C786 C783 1.463 . S
C786 N790 1.427 . S
C787 H777 0.929 . S
C787 C785 1.433 . S
C787 N790 1.384 . S
C788 H779 0.929 . S
C788 C780 1.378 . S
C788 C783 1.350 . S
C789 H776 0.929 . S
C789 C781 1.433 . S
C789 N791 1.384 . S
N790 C786 1.427 . S
N790 C787 1.384 . S
N791 C783 1.427 . S
N791 C789 1.384 . S
H792 C798 0.930 . S
H793 C802 0.930 . S
H794 C807 0.929 . S
H795 C805 0.929 . S
H796 C800 0.929 . S
H797 C806 0.929 . S
C798 H792 0.930 . S
C798 C799 1.367 . S
C798 C806 1.378 . S
C799 C798 1.367 . S
C799 C807 1.433 . S
C800 H796 0.929 . S
C800 C802 1.378 . S
C800 C804 1.350 . S
C801 C804 1.463 . S
C801 C806 1.350 . S
C801 N809 1.427 . S
C802 H793 0.930 . S
C802 C800 1.378 . S
C802 C803 1.367 . S
C803 C802 1.367 . S
C803 C805 1.433 . S
C804 C800 1.350 . S
C804 C801 1.463 . S
C804 N808 1.427 . S
C805 H795 0.929 . S
C805 C803 1.433 . S
C805 N808 1.384 . S
C806 H797 0.929 . S
C806 C798 1.378 . S
C806 C801 1.350 . S
C807 H794 0.929 . S
C807 C799 1.433 . S
C807 N809 1.384 . S
N808 C804 1.427 . S
N808 C805 1.384 . S
N809 C801 1.427 . S
N809 C807 1.384 . S
H810 C816 0.930 . S
H811 C820 0.930 . S
H812 C825 0.929 . S
H813 C823 0.929 . S
H814 C818 0.929 . S
H815 C824 0.929 . S
C816 H810 0.930 . S
C816 C817 1.367 . S
C816 C824 1.378 . S
C817 C816 1.367 . S
C817 C825 1.433 . S
C818 H814 0.929 . S
C818 C820 1.378 . S
C818 C822 1.350 . S
C819 C822 1.463 . S
C819 C824 1.350 . S
C819 N827 1.427 . S
C820 H811 0.930 . S
C820 C818 1.378 . S
C820 C821 1.367 . S
C821 C820 1.367 . S
C821 C823 1.433 . S
C822 C818 1.350 . S
C822 C819 1.463 . S
C822 N826 1.427 . S
C823 H813 0.929 . S
C823 C821 1.433 . S
C823 N826 1.384 . S
C824 H815 0.929 . S
C824 C816 1.378 . S
C824 C819 1.350 . S
C825 H812 0.929 . S
C825 C817 1.433 . S
C825 N827 1.384 . S
N826 C822 1.427 . S
N826 C823 1.384 . S
N827 C819 1.427 . S
N827 C825 1.384 . S
H828 C834 0.930 . S
H829 C838 0.930 . S
H830 C843 0.929 . S
H831 C841 0.929 . S
H832 C836 0.929 . S
H833 C842 0.929 . S
C834 H828 0.930 . S
C834 C835 1.367 . S
C834 C842 1.378 . S
C835 C834 1.367 . S
C835 C843 1.433 . S
C836 H832 0.929 . S
C836 C838 1.378 . S
C836 C840 1.350 . S
C837 C840 1.463 . S
C837 C842 1.350 . S
C837 N845 1.427 . S
C838 H829 0.930 . S
C838 C836 1.378 . S
C838 C839 1.367 . S
C839 C838 1.367 . S
C839 C841 1.433 . S
C840 C836 1.350 . S
C840 C837 1.463 . S
C840 N844 1.427 . S
C841 H831 0.929 . S
C841 C839 1.433 . S
C841 N844 1.384 . S
C842 H833 0.929 . S
C842 C834 1.378 . S
C842 C837 1.350 . S
C843 H830 0.929 . S
C843 C835 1.433 . S
C843 N845 1.384 . S
N844 C840 1.427 . S
N844 C841 1.384 . S
N845 C837 1.427 . S
N845 C843 1.384 . S
H846 C852 0.930 . S
H847 C856 0.930 . S
H848 C861 0.929 . S
H849 C859 0.929 . S
H850 C854 0.929 . S
H851 C860 0.929 . S
C852 H846 0.930 . S
C852 C853 1.367 . S
C852 C860 1.378 . S
C853 C852 1.367 . S
C853 C861 1.433 . S
C854 H850 0.929 . S
C854 C856 1.378 . S
C854 C858 1.350 . S
C855 C858 1.463 . S
C855 C860 1.350 . S
C855 N863 1.427 . S
C856 H847 0.930 . S
C856 C854 1.378 . S
C856 C857 1.367 . S
C857 C856 1.367 . S
C857 C859 1.433 . S
C858 C854 1.350 . S
C858 C855 1.463 . S
C858 N862 1.427 . S
C859 H849 0.929 . S
C859 C857 1.433 . S
C859 N862 1.384 . S
C860 H851 0.929 . S
C860 C852 1.378 . S
C860 C855 1.350 . S
C861 H848 0.929 . S
C861 C853 1.433 . S
C861 N863 1.384 . S
N862 C858 1.427 . S
N862 C859 1.384 . S
N863 C855 1.427 . S
N863 C861 1.384 . S
H864 C870 0.930 . S
H865 C874 0.930 . S
H866 C879 0.929 . S
H867 C877 0.929 . S
H868 C872 0.929 . S
H869 C878 0.929 . S
C870 H864 0.930 . S
C870 C871 1.367 . S
C870 C878 1.378 . S
C871 C870 1.367 . S
C871 C879 1.433 . S
C872 H868 0.929 . S
C872 C874 1.378 . S
C872 C876 1.350 . S
C873 C876 1.463 . S
C873 C878 1.350 . S
C873 N881 1.427 . S
C874 H865 0.930 . S
C874 C872 1.378 . S
C874 C875 1.367 . S
C875 C874 1.367 . S
C875 C877 1.433 . S
C876 C872 1.350 . S
C876 C873 1.463 . S
C876 N880 1.427 . S
C877 H867 0.929 . S
C877 C875 1.433 . S
C877 N880 1.384 . S
C878 H869 0.929 . S
C878 C870 1.378 . S
C878 C873 1.350 . S
C879 H866 0.929 . S
C879 C871 1.433 . S
C879 N881 1.384 . S
N880 C876 1.427 . S
N880 C877 1.384 . S
N881 C873 1.427 . S
N881 C879 1.384 . S
H882 C888 0.930 . S
H883 C892 0.930 . S
H884 C897 0.929 . S
H885 C895 0.929 . S
H886 C890 0.929 . S
H887 C896 0.929 . S
C888 H882 0.930 . S
C888 C889 1.367 . S
C888 C896 1.378 . S
C889 C888 1.367 . S
C889 C897 1.433 . S
C890 H886 0.929 . S
C890 C892 1.378 . S
C890 C894 1.350 . S
C891 C894 1.463 . S
C891 C896 1.350 . S
C891 N899 1.427 . S
C892 H883 0.930 . S
C892 C890 1.378 . S
C892 C893 1.367 . S
C893 C892 1.367 . S
C893 C895 1.433 . S
C894 C890 1.350 . S
C894 C891 1.463 . S
C894 N898 1.427 . S
C895 H885 0.929 . S
C895 C893 1.433 . S
C895 N898 1.384 . S
C896 H887 0.929 . S
C896 C888 1.378 . S
C896 C891 1.350 . S
C897 H884 0.929 . S
C897 C889 1.433 . S
C897 N899 1.384 . S
N898 C894 1.427 . S
N898 C895 1.384 . S
N899 C891 1.427 . S
N899 C897 1.384 . S
C259 C61 0.926 . S
C263 C7 1.006 . S
C277 C83 0.913 . S
C281 C25 1.015 . S
C295 C49 1.019 . S
C299 C104 0.921 . S
C313 C67 1.011 . S
C317 C125 0.919 . S
C331 C19 0.945 . S
C335 C88 0.998 . S
C349 C41 0.904 . S
C353 C109 1.027 . S
C367 C230 0.935 . S
C371 C130 1.009 . S
C385 C151 1.026 . S
C389 C251 0.903 . S
C403 C172 0.996 . S
C407 C146 0.942 . S
C421 C196 1.008 . S
C425 C167 0.923 . S
C439 C214 1.014 . S
C443 C188 0.915 . S
C457 C208 0.906 . S
C461 C235 1.021 . S
C475 C66 1.350 . S
C479 C16 1.331 . S
C493 C24 1.332 . S
C497 C87 1.349 . S
C511 C58 1.348 . S
C515 C108 1.333 . S
C529 C129 1.328 . S
C533 C205 1.353 . S
C547 C150 1.345 . S
C551 C213 1.336 . S
C565 C171 1.352 . S
C569 C234 1.329 . S
C583 C166 1.387 . S
C587 C20 1.378 . S
C601 C40 1.386 . S
C605 C187 1.380 . S
C619 C209 1.381 . S
C623 C62 1.367 . S
C637 C82 1.374 . S
C641 C229 1.387 . S
C655 C103 1.384 . S
C659 C250 1.368 . S
C673 C145 1.367 . S
C677 C124 1.382 . S
C691 C45 1.091 . S
C695 C4 0.951 . S
C709 C28 0.924 . S
C713 C79 1.091 . S
C727 C46 0.951 . S
C731 C100 1.091 . S
C745 C70 0.925 . S
C749 C121 1.109 . S
C763 C3 1.089 . S
C767 C91 0.930 . S
C781 C37 1.086 . S
C785 C112 0.946 . S
C799 C226 1.099 . S
C803 C133 0.912 . S
C817 C154 0.950 . S
C821 C247 1.094 . S
C835 C175 0.919 . S
C839 C142 1.111 . S
C853 C163 1.087 . S
C857 C193 0.949 . S
C871 C217 0.907 . S
C875 C184 1.108 . S
C889 C238 0.908 . S
C893 C192 1.104 . S
