# Generated by pormake.
# Topology une, (4)-cn, num edge types: 1
# Building blocks:
#     Node 0, Type 0, BuildingBlock: QUQFOY_clean_sbu_3, # of connection points: 4
#     Node 1, Type 0, BuildingBlock: QUQFOY_clean_sbu_3, # of connection points: 4
#     Node 2, Type 0, BuildingBlock: QUQFOY_clean_sbu_3, # of connection points: 4
#     Node 3, Type 0, BuildingBlock: QUQFOY_clean_sbu_3, # of connection points: 4
#     Node 4, Type 0, BuildingBlock: QUQFOY_clean_sbu_3, # of connection points: 4
#     Node 5, Type 0, BuildingBlock: QUQFOY_clean_sbu_3, # of connection points: 4
#     Node 6, Type 0, BuildingBlock: QUQFOY_clean_sbu_3, # of connection points: 4
#     Node 7, Type 0, BuildingBlock: QUQFOY_clean_sbu_3, # of connection points: 4
#     Node 8, Type 0, BuildingBlock: QUQFOY_clean_sbu_3, # of connection points: 4
#     Node 9, Type 0, BuildingBlock: QUQFOY_clean_sbu_3, # of connection points: 4
#     Node 10, Type 0, BuildingBlock: QUQFOY_clean_sbu_3, # of connection points: 4
#     Node 11, Type 0, BuildingBlock: QUQFOY_clean_sbu_3, # of connection points: 4
#     Node 12, Type 0, BuildingBlock: QUQFOY_clean_sbu_3, # of connection points: 4
#     Node 13, Type 0, BuildingBlock: QUQFOY_clean_sbu_3, # of connection points: 4
#     Node 14, Type 0, BuildingBlock: QUQFOY_clean_sbu_3, # of connection points: 4
#     Node 15, Type 0, BuildingBlock: QUQFOY_clean_sbu_3, # of connection points: 4
#     Node 16, Type 0, BuildingBlock: QUQFOY_clean_sbu_3, # of connection points: 4
#     Node 17, Type 0, BuildingBlock: QUQFOY_clean_sbu_3, # of connection points: 4
#     Edge 18, Type (0, 0), None
#     Edge 19, Type (0, 0), None
#     Edge 20, Type (0, 0), None
#     Edge 21, Type (0, 0), None
#     Edge 22, Type (0, 0), None
#     Edge 23, Type (0, 0), None
#     Edge 24, Type (0, 0), None
#     Edge 25, Type (0, 0), None
#     Edge 26, Type (0, 0), None
#     Edge 27, Type (0, 0), None
#     Edge 28, Type (0, 0), None
#     Edge 29, Type (0, 0), None
#     Edge 30, Type (0, 0), None
#     Edge 31, Type (0, 0), None
#     Edge 32, Type (0, 0), None
#     Edge 33, Type (0, 0), None
#     Edge 34, Type (0, 0), None
#     Edge 35, Type (0, 0), None
#     Edge 36, Type (0, 0), None
#     Edge 37, Type (0, 0), None
#     Edge 38, Type (0, 0), None
#     Edge 39, Type (0, 0), None
#     Edge 40, Type (0, 0), None
#     Edge 41, Type (0, 0), None
#     Edge 42, Type (0, 0), None
#     Edge 43, Type (0, 0), None
#     Edge 44, Type (0, 0), None
#     Edge 45, Type (0, 0), None
#     Edge 46, Type (0, 0), None
#     Edge 47, Type (0, 0), None
#     Edge 48, Type (0, 0), None
#     Edge 49, Type (0, 0), None
#     Edge 50, Type (0, 0), None
#     Edge 51, Type (0, 0), None
#     Edge 52, Type (0, 0), None
#     Edge 53, Type (0, 0), None
# Relax obj value: 0.233
# Max RMSD: 0.162
# Mean RMSD: 0.152
data_MOF--net-une--node1-QUQFOY_clean_sbu_3--edge1-none
_symmetry_space_group_name_H-M    P1
_symmetry_Int_Tables_number       1
_symmetry_cell_setting            triclinic
loop_
_symmetry_equiv_pos_as_xyz
'x, y, z'
_cell_length_a     20.463385
_cell_length_b     20.367601
_cell_length_c     25.631492
_cell_angle_alpha  89.793113
_cell_angle_beta   89.265486
_cell_angle_gamma 120.27833
loop_
_atom_site_label
_atom_site_type_symbol
_atom_site_fract_x
_atom_site_fract_y
_atom_site_fract_z
_atom_type_partial_charge
C0 C 0.35775 -0.04439 0.99013 0.0
O1 O 0.3299 -0.04777 0.9457 0.0
Cd2 Cd 0.2281 -0.02386 0.93456 0.0
O3 O 0.33544 -0.02268 0.03012 0.0
Cd4 Cd 0.2384 0.01897 0.04713 0.0
C5 C 0.10136 0.84951 0.02478 0.0
O6 O 0.25405 0.09479 0.96946 0.0
O7 O 0.14092 0.02812 1.00125 0.0
O8 O 0.29394 0.12914 0.10895 0.0
C9 C 0.18888 0.08657 0.97591 0.0
O10 O 0.11577 0.87303 0.97763 0.0
C11 C 0.2336 0.10286 0.13666 0.0
O12 O 0.14535 0.88718 0.06126 0.0
O13 O 0.18151 0.03596 0.12664 0.0
C14 C 0.78962 0.09635 0.18223 0.0
O15 O 0.83971 0.0799 0.16957 0.0
Cd16 Cd -0.09484 0.12324 0.08823 0.0
O17 O 0.78492 0.14899 0.1576 0.0
Cd18 Cd 0.85402 0.24326 0.08033 0.0
C19 C 0.74295 0.08467 0.0216 0.0
O20 O -0.02126 0.25792 0.08076 0.0
O21 O -0.0751 0.24048 0.00607 0.0
O22 O 0.88166 0.36983 0.11178 0.0
C23 C -0.01498 0.26295 0.03147 0.0
O24 O 0.79423 0.06912 0.03251 0.0
C25 C 0.87615 0.39436 0.06716 0.0
O26 O 0.74645 0.14551 0.0371 0.0
O27 O 0.85279 0.34681 0.0304 0.0
C28 C 0.42981 0.46011 0.97764 0.0
O29 O 0.45702 0.48509 0.93246 0.0
Cd30 Cd 0.58553 0.58184 0.91983 0.0
O31 O 0.4722 0.48324 0.01784 0.0
Cd32 Cd 0.61078 0.58154 0.03379 0.0
C33 C 0.57316 0.71104 0.99797 0.0
O34 O 0.67238 0.55374 0.96322 0.0
O35 O 0.72021 0.67146 0.98246 0.0
O36 O 0.65757 0.53256 0.10487 0.0
C37 C 0.73123 0.61828 0.96803 0.0
O38 O 0.58703 0.69506 0.9527 0.0
C39 C 0.69517 0.59675 0.12699 0.0
O40 O 0.56904 0.67211 0.03775 0.0
O41 O 0.68598 0.64994 0.10995 0.0
C42 C 0.41214 0.9288 0.99607 0.0
O43 O 0.42358 0.91276 0.04155 0.0
Cd44 Cd 0.50778 0.86813 0.0599 0.0
O45 O 0.44476 0.91895 0.95619 0.0
Cd46 Cd 0.54336 0.8774 0.94311 0.0
C47 C 0.66951 0.02082 0.00967 0.0
O48 O 0.50031 0.77099 1.00406 0.0
O49 O 0.62098 0.84136 0.99061 0.0
O50 O 0.49531 0.78426 0.87229 0.0
C51 C 0.56527 0.77735 1.00367 0.0
O52 O 0.63032 -0.02051 0.04808 0.0
C53 C 0.55717 0.81232 0.84646 0.0
O54 O 0.64942 0.0022 0.9628 0.0
O55 O 0.60986 0.877 0.86068 0.0
C56 C -0.10337 0.47447 0.05856 0.0
O57 O -0.10792 0.51104 0.09692 0.0
Cd58 Cd -0.08334 0.63787 0.08654 0.0
O59 O -0.07959 0.50727 0.01378 0.0
Cd60 Cd -0.03331 0.64391 0.97914 0.0
C61 C 0.80039 0.62189 0.98515 0.0
O62 O 0.04074 0.72119 0.05188 0.0
O63 O -0.02483 0.75963 0.01038 0.0
O64 O 0.07875 0.67553 0.92213 0.0
C65 C 0.03434 0.77639 0.03553 0.0
O66 O 0.81968 0.63949 0.03236 0.0
C67 C 0.06783 0.71765 0.89079 0.0
O68 O 0.83948 0.60662 0.95414 0.0
O69 O 0.00598 0.71701 0.89633 0.0
C70 C 0.34788 0.40643 0.98369 0.0
O71 O 0.32143 0.38253 0.02921 0.0
Cd72 Cd 0.1921 0.29681 0.04978 0.0
O73 O 0.30426 0.38581 0.94406 0.0
Cd74 Cd 0.16291 0.29244 0.93133 0.0
C75 C 0.18097 0.15308 0.97726 0.0
O76 O 0.11379 0.33184 1.00481 0.0
O77 O 0.04752 0.21474 0.98068 0.0
O78 O 0.11837 0.34079 0.85884 0.0
C79 C 0.05107 0.27031 1.00502 0.0
O80 O 0.16968 0.17407 0.02147 0.0
C81 C 0.08027 0.27626 0.83722 0.0
O82 O 0.19315 0.193 0.93637 0.0
O83 O 0.08846 0.2228 0.85508 0.0
C84 C 0.02432 0.28877 0.32351 0.0
O85 O -0.00357 0.28537 0.27909 0.0
Cd86 Cd -0.10536 0.30928 0.26798 0.0
O87 O 0.00205 0.31051 0.36351 0.0
Cd88 Cd -0.09498 0.35218 0.38055 0.0
C89 C 0.76793 0.18272 0.35825 0.0
O90 O -0.07936 0.42795 0.30287 0.0
O91 O 0.80753 0.36131 0.33469 0.0
O92 O -0.03941 0.46241 0.44233 0.0
C93 C 0.85548 0.41974 0.30933 0.0
O94 O 0.78233 0.20621 0.3111 0.0
C95 C -0.09973 0.43614 0.47005 0.0
O96 O 0.81195 0.2204 0.39472 0.0
O97 O 0.84818 0.36922 0.46008 0.0
C98 C 0.45624 0.42961 0.51552 0.0
O99 O 0.50634 0.41316 0.50291 0.0
Cd100 Cd 0.57177 0.45642 0.42156 0.0
O101 O 0.45153 0.48222 0.49086 0.0
Cd102 Cd 0.52063 0.57645 0.41358 0.0
C103 C 0.40955 0.41783 0.3549 0.0
O104 O 0.64534 0.59109 0.41403 0.0
O105 O 0.59154 0.5737 0.33933 0.0
O106 O 0.54828 0.703 0.44507 0.0
C107 C 0.65165 0.59615 0.36474 0.0
O108 O 0.4608 0.40227 0.36587 0.0
C109 C 0.5428 0.72757 0.40047 0.0
O110 O 0.41307 0.47871 0.37032 0.0
O111 O 0.51944 0.68005 0.36368 0.0
C112 C 0.09644 0.79328 0.31098 0.0
O113 O 0.12366 0.81823 0.2658 0.0
Cd114 Cd 0.25218 0.91496 0.25315 0.0
O115 O 0.13883 0.81644 0.35118 0.0
Cd116 Cd 0.2774 0.91477 0.36712 0.0
C117 C 0.23979 0.04423 0.3312 0.0
O118 O 0.33901 0.88689 0.2966 0.0
O119 O 0.38684 0.00463 0.31576 0.0
O120 O 0.32419 0.86589 0.43827 0.0
C121 C 0.39786 -0.04857 0.30137 0.0
O122 O 0.2537 0.02823 0.28595 0.0
C123 C 0.3618 0.93012 0.46034 0.0
O124 O 0.23562 0.00531 0.371 0.0
O125 O 0.35261 -0.01672 0.44325 0.0
C126 C 0.07873 0.26197 0.32941 0.0
O127 O 0.0902 0.24593 0.37488 0.0
Cd128 Cd 0.1744 0.20127 0.39317 0.0
O129 O 0.11132 0.25213 0.28952 0.0
Cd130 Cd 0.20994 0.21062 0.27637 0.0
C131 C 0.33612 0.35398 0.34296 0.0
O132 O 0.16692 0.10417 0.33728 0.0
O133 O 0.28758 0.17455 0.32378 0.0
O134 O 0.16188 0.11753 0.20552 0.0
C135 C 0.23188 0.11053 0.33686 0.0
O136 O 0.29695 0.3126 0.38136 0.0
C137 C 0.22374 0.1456 0.17969 0.0
O138 O 0.31598 0.33542 0.29609 0.0
O139 O 0.27642 0.21028 0.19392 0.0
C140 C 0.56328 0.80769 0.3919 0.0
O141 O 0.55869 0.84421 0.43028 0.0
Cd142 Cd 0.58321 -0.02897 0.41996 0.0
O143 O 0.58708 0.84054 0.34713 0.0
Cd144 Cd 0.63337 -0.0228 0.31256 0.0
C145 C 0.46701 -0.04495 0.31852 0.0
O146 O 0.70732 0.05441 0.38535 0.0
O147 O 0.64174 0.09285 0.34386 0.0
O148 O 0.74552 0.00892 0.25562 0.0
C149 C 0.7009 0.10961 0.36902 0.0
O150 O 0.48625 -0.02741 0.36575 0.0
C151 C 0.73459 0.05103 0.22426 0.0
O152 O 0.50618 -0.06011 0.2875 0.0
O153 O 0.67273 0.05036 0.22977 0.0
C154 C 0.01451 0.73961 0.31703 0.0
O155 O -0.01195 0.71573 0.36255 0.0
Cd156 Cd 0.85872 0.63004 0.38311 0.0
O157 O -0.02909 0.71897 0.27739 0.0
Cd158 Cd 0.82957 0.62561 0.26465 0.0
C159 C 0.84757 0.48625 0.31064 0.0
O160 O 0.78042 0.66503 0.3381 0.0
O161 O 0.71416 0.54792 0.31398 0.0
O162 O 0.78505 0.67396 0.19215 0.0
C163 C 0.7177 0.6035 0.33831 0.0
O164 O 0.83628 0.50727 0.35484 0.0
C165 C 0.74696 0.60943 0.17052 0.0
O166 O 0.85977 0.52615 0.26974 0.0
O167 O 0.75514 0.55597 0.18839 0.0
C168 C 0.69103 0.62232 0.65677 0.0
O169 O 0.66314 0.61895 0.61235 0.0
Cd170 Cd 0.56136 0.64291 0.60129 0.0
O171 O 0.66875 0.64404 0.69678 0.0
Cd172 Cd 0.57174 0.6857 0.71387 0.0
C173 C 0.43463 0.51627 0.69152 0.0
O174 O 0.58736 0.76155 0.63623 0.0
O175 O 0.47426 0.69492 0.66807 0.0
O176 O 0.62734 0.79586 0.7757 0.0
C177 C 0.5222 0.75335 0.64272 0.0
O178 O 0.44903 0.53981 0.64437 0.0
C179 C 0.56703 0.76957 0.80343 0.0
O180 O 0.47866 0.55391 0.72799 0.0
O181 O 0.51493 0.70266 0.79343 0.0
C182 C 0.12283 0.76296 0.84874 0.0
O183 O 0.17285 0.74644 0.83602 0.0
Cd184 Cd 0.23839 0.78991 0.75472 0.0
O185 O 0.11817 0.81567 0.82418 0.0
Cd186 Cd 0.18729 0.90998 0.74694 0.0
C187 C 0.07625 0.75147 0.68808 0.0
O188 O 0.31199 0.9246 0.74739 0.0
O189 O 0.25826 0.9074 0.67267 0.0
O190 O 0.21492 0.03652 0.77846 0.0
C191 C 0.31834 0.92978 0.6981 0.0
O192 O 0.12756 0.73591 0.6989 0.0
C193 C 0.20941 0.06108 0.73386 0.0
O194 O 0.07973 0.81224 0.70369 0.0
O195 O 0.18603 0.01357 0.69708 0.0
C196 C 0.76313 0.12689 0.64432 0.0
O197 O 0.79035 0.15185 0.59913 0.0
Cd198 Cd -0.08113 0.24858 0.5865 0.0
O199 O 0.80552 0.15003 0.68452 0.0
Cd200 Cd -0.05591 0.24834 0.70048 0.0
C201 C -0.09347 0.37784 0.6646 0.0
O202 O 0.00569 0.22049 0.62993 0.0
O203 O 0.05354 0.33822 0.64914 0.0
O204 O -0.00913 0.19937 0.77158 0.0
C205 C 0.06455 0.28503 0.63473 0.0
O206 O -0.0796 0.36184 0.61934 0.0
C207 C 0.02848 0.26357 0.79369 0.0
O208 O -0.09763 0.33892 0.70439 0.0
O209 O 0.0193 0.31676 0.77663 0.0
C210 C 0.74542 0.59551 0.66268 0.0
O211 O 0.75689 0.57949 0.70815 0.0
Cd212 Cd 0.84114 0.53493 0.7265 0.0
O213 O 0.77802 0.58566 0.62279 0.0
Cd214 Cd 0.87664 0.54411 0.60967 0.0
C215 C 0.00281 0.68762 0.67616 0.0
O216 O 0.83365 0.43777 0.67067 0.0
O217 O -0.04569 0.50815 0.65717 0.0
O218 O 0.82857 0.45088 0.5389 0.0
C219 C -0.10138 0.44415 0.67027 0.0
O220 O -0.03637 0.64632 0.71459 0.0
C221 C -0.10958 0.47893 0.51306 0.0
O222 O -0.01728 0.66892 0.6293 0.0
O223 O -0.05692 0.54364 0.52724 0.0
C224 C 0.2299 0.1412 0.72529 0.0
O225 O 0.22535 0.17776 0.76365 0.0
Cd226 Cd 0.24992 0.3046 0.75328 0.0
O227 O 0.25369 0.17403 0.68051 0.0
Cd228 Cd 0.30001 0.31066 0.64588 0.0
C229 C 0.1337 0.28862 0.65187 0.0
O230 O 0.37401 0.38796 0.71864 0.0
O231 O 0.30845 0.42638 0.67709 0.0
O232 O 0.41214 0.34228 0.58896 0.0
C233 C 0.36761 0.44315 0.70226 0.0
O234 O 0.15296 0.30619 0.69908 0.0
C235 C 0.40121 0.38434 0.55756 0.0
O236 O 0.17282 0.2734 0.62085 0.0
O237 O 0.33933 0.38368 0.56304 0.0
C238 C 0.6812 0.07322 0.65037 0.0
O239 O 0.65474 0.04935 0.69589 0.0
Cd240 Cd 0.5254 -0.03634 0.71644 0.0
O241 O 0.63759 0.05258 0.61073 0.0
Cd242 Cd 0.49625 -0.04082 0.59801 0.0
C243 C 0.51429 0.81987 0.64402 0.0
O244 O 0.4471 -0.00133 0.67143 0.0
O245 O 0.38088 0.88152 0.6474 0.0
O246 O 0.4517 0.00743 0.52547 0.0
C247 C 0.3844 -0.06287 0.67167 0.0
O248 O 0.50295 0.84087 0.68822 0.0
C249 C 0.41359 -0.05714 0.50389 0.0
O250 O 0.52652 0.85977 0.60312 0.0
O251 O 0.42178 0.88943 0.5218 0.0
loop_
_geom_bond_atom_site_label_1
_geom_bond_atom_site_label_2
_geom_bond_distance
_geom_bond_site_symmetry_2
_ccdc_geom_bond_type
C0 O1 1.306 1_554 S
C0 O3 1.160 1_545 S
O1 C0 1.306 1_556 S
O1 Cd2 2.228 . S
Cd2 O1 2.228 . S
Cd2 O6 2.273 . S
Cd2 O10 2.277 1_545 S
O3 C0 1.160 1_565 S
O3 Cd4 2.203 1_565 S
Cd4 O3 2.203 1_545 S
Cd4 O6 2.411 1_554 S
Cd4 O7 2.333 . S
Cd4 O8 2.352 . S
Cd4 O12 2.277 1_545 S
Cd4 O13 2.356 . S
C5 O10 1.209 1_554 S
C5 O12 1.226 . S
O6 Cd2 2.273 . S
O6 Cd4 2.411 1_556 S
O6 C9 1.320 1_556 S
O7 Cd4 2.333 . S
O7 C9 1.214 . S
O8 Cd4 2.352 . S
O8 C11 1.258 . S
C9 O6 1.320 1_554 S
C9 O7 1.214 . S
O10 Cd2 2.277 1_565 S
O10 C5 1.209 1_556 S
C11 O8 1.258 . S
C11 O13 1.282 . S
O12 Cd4 2.277 1_565 S
O12 C5 1.226 . S
O13 Cd4 2.356 . S
O13 C11 1.282 . S
C14 O15 1.306 . S
C14 O17 1.160 . S
O15 C14 1.306 . S
O15 Cd16 2.228 1_655 S
Cd16 O15 2.228 1_455 S
Cd16 O20 2.273 . S
Cd16 O24 2.277 1_455 S
O17 C14 1.160 . S
O17 Cd18 2.203 . S
Cd18 O17 2.203 . S
Cd18 O20 2.411 1_655 S
Cd18 O21 2.333 1_654 S
Cd18 O22 2.352 1_655 S
Cd18 O26 2.277 1_554 S
Cd18 O27 2.356 1_554 S
C19 O24 1.209 . S
C19 O26 1.226 1_554 S
O20 Cd16 2.273 . S
O20 Cd18 2.411 1_455 S
O20 C23 1.320 . S
O21 Cd18 2.333 1_456 S
O21 C23 1.214 1_556 S
O22 Cd18 2.352 1_455 S
O22 C25 1.258 1_455 S
C23 O20 1.320 . S
C23 O21 1.214 1_554 S
O24 Cd16 2.277 1_655 S
O24 C19 1.209 . S
C25 O22 1.258 1_655 S
C25 O27 1.282 1_554 S
O26 Cd18 2.277 1_556 S
O26 C19 1.226 1_556 S
O27 Cd18 2.356 1_556 S
O27 C25 1.282 1_556 S
C28 O29 1.306 1_554 S
C28 O31 1.160 . S
O29 C28 1.306 1_556 S
O29 Cd30 2.228 . S
Cd30 O29 2.228 . S
Cd30 O34 2.273 . S
Cd30 O38 2.277 . S
O31 C28 1.160 . S
O31 Cd32 2.203 . S
Cd32 O31 2.203 . S
Cd32 O34 2.411 1_554 S
Cd32 O35 2.333 . S
Cd32 O36 2.352 . S
Cd32 O40 2.277 . S
Cd32 O41 2.356 . S
C33 O38 1.209 1_554 S
C33 O40 1.226 . S
O34 Cd30 2.273 . S
O34 Cd32 2.411 1_556 S
O34 C37 1.320 1_556 S
O35 Cd32 2.333 . S
O35 C37 1.214 . S
O36 Cd32 2.352 . S
O36 C39 1.258 . S
C37 O34 1.320 1_554 S
C37 O35 1.214 . S
O38 Cd30 2.277 . S
O38 C33 1.209 1_556 S
C39 O36 1.258 . S
C39 O41 1.282 . S
O40 Cd32 2.277 . S
O40 C33 1.226 . S
O41 Cd32 2.356 . S
O41 C39 1.282 . S
C42 O43 1.306 1_556 S
C42 O45 1.160 . S
O43 C42 1.306 1_554 S
O43 Cd44 2.228 . S
Cd44 O43 2.228 . S
Cd44 O48 2.273 . S
Cd44 O52 2.277 1_565 S
O45 C42 1.160 . S
O45 Cd46 2.203 . S
Cd46 O45 2.203 . S
Cd46 O48 2.411 1_556 S
Cd46 O49 2.333 . S
Cd46 O50 2.352 . S
Cd46 O54 2.277 1_565 S
Cd46 O55 2.356 . S
C47 O52 1.209 1_556 S
C47 O54 1.226 . S
O48 Cd44 2.273 . S
O48 Cd46 2.411 1_554 S
O48 C51 1.323 . S
O49 Cd46 2.333 . S
O49 C51 1.205 1_556 S
O50 Cd46 2.352 . S
O50 C53 1.258 . S
C51 O48 1.323 . S
C51 O49 1.205 1_554 S
O52 Cd44 2.277 1_545 S
O52 C47 1.209 1_554 S
C53 O50 1.258 . S
C53 O55 1.282 . S
O54 Cd46 2.277 1_545 S
O54 C47 1.226 . S
O55 Cd46 2.356 . S
O55 C53 1.282 . S
C56 O57 1.306 1_556 S
C56 O59 1.160 . S
O57 C56 1.306 1_554 S
O57 Cd58 2.228 . S
Cd58 O57 2.228 . S
Cd58 O62 2.281 . S
Cd58 O66 2.277 1_455 S
O59 C56 1.160 . S
O59 Cd60 2.203 . S
Cd60 O59 2.203 . S
Cd60 O62 2.403 1_556 S
Cd60 O63 2.333 . S
Cd60 O64 2.352 . S
Cd60 O68 2.277 1_455 S
Cd60 O69 2.356 . S
C61 O66 1.209 1_556 S
C61 O68 1.226 . S
O62 Cd58 2.281 . S
O62 Cd60 2.403 1_554 S
O62 C65 1.318 1_554 S
O63 Cd60 2.333 . S
O63 C65 1.214 . S
O64 Cd60 2.352 . S
O64 C67 1.258 . S
C65 O62 1.318 1_556 S
C65 O63 1.214 . S
O66 Cd58 2.277 1_655 S
O66 C61 1.209 1_554 S
C67 O64 1.258 . S
C67 O69 1.282 . S
O68 Cd60 2.277 1_655 S
O68 C61 1.226 . S
O69 Cd60 2.356 . S
O69 C67 1.282 . S
C70 O71 1.306 1_556 S
C70 O73 1.160 . S
O71 C70 1.306 1_554 S
O71 Cd72 2.228 . S
Cd72 O71 2.228 . S
Cd72 O76 2.273 . S
Cd72 O80 2.277 . S
O73 C70 1.160 . S
O73 Cd74 2.203 . S
Cd74 O73 2.203 . S
Cd74 O76 2.411 1_556 S
Cd74 O77 2.333 . S
Cd74 O78 2.352 . S
Cd74 O82 2.277 . S
Cd74 O83 2.356 . S
C75 O80 1.209 1_556 S
C75 O82 1.226 . S
O76 Cd72 2.273 . S
O76 Cd74 2.411 1_554 S
O76 C79 1.320 1_554 S
O77 Cd74 2.333 . S
O77 C79 1.214 . S
O78 Cd74 2.352 . S
O78 C81 1.258 . S
C79 O76 1.320 1_556 S
C79 O77 1.214 . S
O80 Cd72 2.277 . S
O80 C75 1.209 1_554 S
C81 O78 1.258 . S
C81 O83 1.282 . S
O82 Cd74 2.277 . S
O82 C75 1.226 . S
O83 Cd74 2.356 . S
O83 C81 1.282 . S
C84 O85 1.306 . S
C84 O87 1.160 . S
O85 C84 1.306 . S
O85 Cd86 2.228 . S
Cd86 O85 2.228 . S
Cd86 O90 2.273 . S
Cd86 O94 2.277 1_455 S
O87 C84 1.160 . S
O87 Cd88 2.203 1_455 S
Cd88 O87 2.203 1_655 S
Cd88 O90 2.411 1_655 S
Cd88 O91 2.333 . S
Cd88 O92 2.352 1_655 S
Cd88 O96 2.277 . S
Cd88 O97 2.356 . S
C89 O94 1.209 . S
C89 O96 1.226 . S
O90 Cd86 2.273 . S
O90 Cd88 2.411 1_455 S
O90 C93 1.320 1_455 S
O91 Cd88 2.333 . S
O91 C93 1.214 . S
O92 Cd88 2.352 1_455 S
O92 C95 1.258 . S
C93 O90 1.320 1_655 S
C93 O91 1.214 . S
O94 Cd86 2.277 1_655 S
O94 C89 1.209 . S
C95 O92 1.258 . S
C95 O97 1.282 1_455 S
O96 Cd88 2.277 . S
O96 C89 1.226 . S
O97 Cd88 2.356 . S
O97 C95 1.282 1_655 S
C98 O99 1.306 . S
C98 O101 1.160 . S
O99 C98 1.306 . S
O99 Cd100 2.228 . S
Cd100 O99 2.228 . S
Cd100 O104 2.273 . S
Cd100 O108 2.277 . S
O101 C98 1.160 . S
O101 Cd102 2.203 . S
Cd102 O101 2.203 . S
Cd102 O104 2.411 . S
Cd102 O105 2.333 . S
Cd102 O106 2.352 . S
Cd102 O110 2.277 . S
Cd102 O111 2.356 . S
C103 O108 1.209 . S
C103 O110 1.226 . S
O104 Cd100 2.273 . S
O104 Cd102 2.411 . S
O104 C107 1.320 . S
O105 Cd102 2.333 . S
O105 C107 1.214 . S
O106 Cd102 2.352 . S
O106 C109 1.258 . S
C107 O104 1.320 . S
C107 O105 1.214 . S
O108 Cd100 2.277 . S
O108 C103 1.209 . S
C109 O106 1.258 . S
C109 O111 1.282 . S
O110 Cd102 2.277 . S
O110 C103 1.226 . S
O111 Cd102 2.356 . S
O111 C109 1.282 . S
C112 O113 1.306 . S
C112 O115 1.160 . S
O113 C112 1.306 . S
O113 Cd114 2.228 . S
Cd114 O113 2.228 . S
Cd114 O118 2.273 . S
Cd114 O122 2.277 1_565 S
O115 C112 1.160 . S
O115 Cd116 2.203 1_565 S
Cd116 O115 2.203 1_545 S
Cd116 O118 2.411 1_545 S
Cd116 O119 2.333 . S
Cd116 O120 2.352 1_545 S
Cd116 O124 2.277 . S
Cd116 O125 2.356 . S
C117 O122 1.209 . S
C117 O124 1.226 . S
O118 Cd114 2.273 . S
O118 Cd116 2.411 1_565 S
O118 C121 1.320 1_565 S
O119 Cd116 2.333 . S
O119 C121 1.214 . S
O120 Cd116 2.352 1_565 S
O120 C123 1.258 . S
C121 O118 1.320 1_545 S
C121 O119 1.214 . S
O122 Cd114 2.277 1_545 S
O122 C117 1.209 . S
C123 O120 1.258 . S
C123 O125 1.282 1_565 S
O124 Cd116 2.277 . S
O124 C117 1.226 . S
O125 Cd116 2.356 . S
O125 C123 1.282 1_545 S
C126 O127 1.306 . S
C126 O129 1.160 . S
O127 C126 1.306 . S
O127 Cd128 2.228 . S
Cd128 O127 2.228 . S
Cd128 O132 2.273 . S
Cd128 O136 2.277 . S
O129 C126 1.160 . S
O129 Cd130 2.203 . S
Cd130 O129 2.203 . S
Cd130 O132 2.411 . S
Cd130 O133 2.333 . S
Cd130 O134 2.352 . S
Cd130 O138 2.277 . S
Cd130 O139 2.356 . S
C131 O136 1.209 . S
C131 O138 1.226 . S
O132 Cd128 2.273 . S
O132 Cd130 2.411 . S
O132 C135 1.320 . S
O133 Cd130 2.333 . S
O133 C135 1.214 . S
O134 Cd130 2.352 . S
O134 C137 1.258 . S
C135 O132 1.320 . S
C135 O133 1.214 . S
O136 Cd128 2.277 . S
O136 C131 1.209 . S
C137 O134 1.258 . S
C137 O139 1.282 . S
O138 Cd130 2.277 . S
O138 C131 1.226 . S
O139 Cd130 2.356 . S
O139 C137 1.282 . S
C140 O141 1.306 . S
C140 O143 1.160 . S
O141 C140 1.306 . S
O141 Cd142 2.228 1_565 S
Cd142 O141 2.228 1_545 S
Cd142 O146 2.273 . S
Cd142 O150 2.277 . S
O143 C140 1.160 . S
O143 Cd144 2.203 1_565 S
Cd144 O143 2.203 1_545 S
Cd144 O146 2.411 . S
Cd144 O147 2.333 . S
Cd144 O148 2.352 . S
Cd144 O152 2.277 . S
Cd144 O153 2.356 . S
C145 O150 1.209 . S
C145 O152 1.226 . S
O146 Cd142 2.273 . S
O146 Cd144 2.411 . S
O146 C149 1.320 . S
O147 Cd144 2.333 . S
O147 C149 1.214 . S
O148 Cd144 2.352 . S
O148 C151 1.258 . S
C149 O146 1.320 . S
C149 O147 1.214 . S
O150 Cd142 2.277 . S
O150 C145 1.209 . S
C151 O148 1.258 . S
C151 O153 1.282 . S
O152 Cd144 2.277 . S
O152 C145 1.226 . S
O153 Cd144 2.356 . S
O153 C151 1.282 . S
C154 O155 1.306 . S
C154 O157 1.160 . S
O155 C154 1.306 . S
O155 Cd156 2.228 1_455 S
Cd156 O155 2.228 1_655 S
Cd156 O160 2.273 . S
Cd156 O164 2.277 . S
O157 C154 1.160 . S
O157 Cd158 2.203 1_455 S
Cd158 O157 2.203 1_655 S
Cd158 O160 2.411 . S
Cd158 O161 2.333 . S
Cd158 O162 2.352 . S
Cd158 O166 2.277 . S
Cd158 O167 2.356 . S
C159 O164 1.209 . S
C159 O166 1.226 . S
O160 Cd156 2.273 . S
O160 Cd158 2.411 . S
O160 C163 1.320 . S
O161 Cd158 2.333 . S
O161 C163 1.214 . S
O162 Cd158 2.352 . S
O162 C165 1.258 . S
C163 O160 1.320 . S
C163 O161 1.214 . S
O164 Cd156 2.277 . S
O164 C159 1.209 . S
C165 O162 1.258 . S
C165 O167 1.282 . S
O166 Cd158 2.277 . S
O166 C159 1.226 . S
O167 Cd158 2.356 . S
O167 C165 1.282 . S
C168 O169 1.306 . S
C168 O171 1.160 . S
O169 C168 1.306 . S
O169 Cd170 2.228 . S
Cd170 O169 2.228 . S
Cd170 O174 2.273 . S
Cd170 O178 2.277 . S
O171 C168 1.160 . S
O171 Cd172 2.203 . S
Cd172 O171 2.203 . S
Cd172 O174 2.411 . S
Cd172 O175 2.333 . S
Cd172 O176 2.352 . S
Cd172 O180 2.277 . S
Cd172 O181 2.356 . S
C173 O178 1.209 . S
C173 O180 1.226 . S
O174 Cd170 2.273 . S
O174 Cd172 2.411 . S
O174 C177 1.320 . S
O175 Cd172 2.333 . S
O175 C177 1.214 . S
O176 Cd172 2.352 . S
O176 C179 1.258 . S
C177 O174 1.320 . S
C177 O175 1.214 . S
O178 Cd170 2.277 . S
O178 C173 1.209 . S
C179 O176 1.258 . S
C179 O181 1.282 . S
O180 Cd172 2.277 . S
O180 C173 1.226 . S
O181 Cd172 2.356 . S
O181 C179 1.282 . S
C182 O183 1.306 . S
C182 O185 1.160 . S
O183 C182 1.306 . S
O183 Cd184 2.228 . S
Cd184 O183 2.228 . S
Cd184 O188 2.273 . S
Cd184 O192 2.277 . S
O185 C182 1.160 . S
O185 Cd186 2.203 . S
Cd186 O185 2.203 . S
Cd186 O188 2.411 . S
Cd186 O189 2.330 . S
Cd186 O190 2.352 1_565 S
Cd186 O194 2.277 . S
Cd186 O195 2.356 1_565 S
C187 O192 1.209 . S
C187 O194 1.226 . S
O188 Cd184 2.273 . S
O188 Cd186 2.411 . S
O188 C191 1.320 . S
O189 Cd186 2.330 . S
O189 C191 1.220 . S
O190 Cd186 2.352 1_545 S
O190 C193 1.258 . S
C191 O188 1.320 . S
C191 O189 1.220 . S
O192 Cd184 2.277 . S
O192 C187 1.209 . S
C193 O190 1.258 . S
C193 O195 1.282 . S
O194 Cd186 2.277 . S
O194 C187 1.226 . S
O195 Cd186 2.356 1_545 S
O195 C193 1.282 . S
C196 O197 1.306 . S
C196 O199 1.160 . S
O197 C196 1.306 . S
O197 Cd198 2.228 1_655 S
Cd198 O197 2.228 1_455 S
Cd198 O202 2.273 . S
Cd198 O206 2.277 . S
O199 C196 1.160 . S
O199 Cd200 2.203 1_655 S
Cd200 O199 2.203 1_455 S
Cd200 O202 2.411 . S
Cd200 O203 2.333 . S
Cd200 O204 2.352 . S
Cd200 O208 2.277 . S
Cd200 O209 2.356 . S
C201 O206 1.209 . S
C201 O208 1.226 . S
O202 Cd198 2.273 . S
O202 Cd200 2.411 . S
O202 C205 1.320 . S
O203 Cd200 2.333 . S
O203 C205 1.214 . S
O204 Cd200 2.352 . S
O204 C207 1.258 . S
C205 O202 1.320 . S
C205 O203 1.214 . S
O206 Cd198 2.277 . S
O206 C201 1.209 . S
C207 O204 1.258 . S
C207 O209 1.282 . S
O208 Cd200 2.277 . S
O208 C201 1.226 . S
O209 Cd200 2.356 . S
O209 C207 1.282 . S
C210 O211 1.306 . S
C210 O213 1.160 . S
O211 C210 1.306 . S
O211 Cd212 2.228 . S
Cd212 O211 2.228 . S
Cd212 O216 2.273 . S
Cd212 O220 2.277 1_655 S
O213 C210 1.160 . S
O213 Cd214 2.203 1_655 S
Cd214 O213 2.203 1_455 S
Cd214 O216 2.411 1_455 S
Cd214 O217 2.333 . S
Cd214 O218 2.352 1_455 S
Cd214 O222 2.277 . S
Cd214 O223 2.356 . S
C215 O220 1.209 . S
C215 O222 1.226 . S
O216 Cd212 2.273 . S
O216 Cd214 2.411 1_655 S
O216 C219 1.320 1_655 S
O217 Cd214 2.333 . S
O217 C219 1.214 . S
O218 Cd214 2.352 1_655 S
O218 C221 1.258 . S
C219 O216 1.320 1_455 S
C219 O217 1.214 . S
O220 Cd212 2.277 1_455 S
O220 C215 1.209 . S
C221 O218 1.258 . S
C221 O223 1.282 1_655 S
O222 Cd214 2.277 . S
O222 C215 1.226 . S
O223 Cd214 2.356 . S
O223 C221 1.282 1_455 S
C224 O225 1.306 . S
C224 O227 1.160 . S
O225 C224 1.306 . S
O225 Cd226 2.228 . S
Cd226 O225 2.228 . S
Cd226 O230 2.273 . S
Cd226 O234 2.277 . S
O227 C224 1.160 . S
O227 Cd228 2.203 . S
Cd228 O227 2.203 . S
Cd228 O230 2.411 . S
Cd228 O231 2.333 . S
Cd228 O232 2.352 . S
Cd228 O236 2.277 . S
Cd228 O237 2.356 . S
C229 O234 1.209 . S
C229 O236 1.226 . S
O230 Cd226 2.273 . S
O230 Cd228 2.411 . S
O230 C233 1.320 . S
O231 Cd228 2.333 . S
O231 C233 1.214 . S
O232 Cd228 2.352 . S
O232 C235 1.258 . S
C233 O230 1.320 . S
C233 O231 1.214 . S
O234 Cd226 2.277 . S
O234 C229 1.209 . S
C235 O232 1.258 . S
C235 O237 1.282 . S
O236 Cd228 2.277 . S
O236 C229 1.226 . S
O237 Cd228 2.356 . S
O237 C235 1.282 . S
C238 O239 1.306 . S
C238 O241 1.160 . S
O239 C238 1.306 . S
O239 Cd240 2.228 . S
Cd240 O239 2.228 . S
Cd240 O244 2.273 . S
Cd240 O248 2.277 1_545 S
O241 C238 1.160 . S
O241 Cd242 2.203 1_545 S
Cd242 O241 2.203 1_565 S
Cd242 O244 2.411 1_565 S
Cd242 O245 2.333 . S
Cd242 O246 2.352 1_565 S
Cd242 O250 2.277 . S
Cd242 O251 2.356 . S
C243 O248 1.209 . S
C243 O250 1.226 . S
O244 Cd240 2.273 . S
O244 Cd242 2.411 1_545 S
O244 C247 1.320 1_545 S
O245 Cd242 2.333 . S
O245 C247 1.214 . S
O246 Cd242 2.352 1_545 S
O246 C249 1.258 . S
C247 O244 1.320 1_565 S
C247 O245 1.214 . S
O248 Cd240 2.277 1_565 S
O248 C243 1.209 . S
C249 O246 1.258 . S
C249 O251 1.282 1_545 S
O250 Cd242 2.277 . S
O250 C243 1.226 . S
O251 Cd242 2.356 . S
O251 C249 1.282 1_565 S
C0 C42 2.063 1_544 S
C25 C56 2.244 1_654 S
C70 C28 2.183 1_556 S
C84 C126 2.065 . S
C109 C140 2.234 . S
C154 C112 2.175 . S
C210 C168 2.065 . S
C224 C193 2.235 . S
C238 C196 2.175 . S
C11 C137 2.148 . S
C14 C151 2.117 . S
C165 C39 2.263 . S
C53 C179 2.148 . S
C67 C182 2.118 . S
C81 C207 2.263 . S
C95 C221 2.178 1_455 S
C98 C235 2.105 . S
C249 C123 2.275 1_545 S
C5 C65 0.617 1_554 S
C23 C79 0.670 1_554 S
C33 C51 0.612 . S
C47 C19 0.725 1_556 S
C37 C61 0.647 1_554 S
C75 C9 0.619 1_556 S
C89 C149 0.635 . S
C163 C107 0.673 . S
C135 C117 0.636 . S
C103 C131 0.731 . S
C145 C121 0.637 . S
C159 C93 0.603 . S
C233 C173 0.621 . S
C247 C191 0.651 . S
C201 C219 0.591 . S
C187 C215 0.738 . S
C205 C229 0.648 . S
C177 C243 0.646 . S
