# Generated by pormake.
# Topology smc, (6)-cn, num edge types: 1
# Building blocks:
#     Node 0, Type 0, BuildingBlock: MAKGUD_clean_sbu_1, # of connection points: 6
#     Node 1, Type 0, BuildingBlock: MAKGUD_clean_sbu_1, # of connection points: 6
#     Node 2, Type 0, BuildingBlock: MAKGUD_clean_sbu_1, # of connection points: 6
#     Node 3, Type 0, BuildingBlock: MAKGUD_clean_sbu_1, # of connection points: 6
#     Node 4, Type 0, BuildingBlock: MAKGUD_clean_sbu_1, # of connection points: 6
#     Node 5, Type 0, BuildingBlock: MAKGUD_clean_sbu_1, # of connection points: 6
#     Node 6, Type 0, BuildingBlock: MAKGUD_clean_sbu_1, # of connection points: 6
#     Node 7, Type 0, BuildingBlock: MAKGUD_clean_sbu_1, # of connection points: 6
#     Node 8, Type 0, BuildingBlock: MAKGUD_clean_sbu_1, # of connection points: 6
#     Edge 9, Type (0, 0), BuildingBlock: UVAHIK_clean_linker_0, # of connection points: 2
#     Edge 10, Type (0, 0), BuildingBlock: UVAHIK_clean_linker_0, # of connection points: 2
#     Edge 11, Type (0, 0), BuildingBlock: UVAHIK_clean_linker_0, # of connection points: 2
#     Edge 12, Type (0, 0), BuildingBlock: UVAHIK_clean_linker_0, # of connection points: 2
#     Edge 13, Type (0, 0), BuildingBlock: UVAHIK_clean_linker_0, # of connection points: 2
#     Edge 14, Type (0, 0), BuildingBlock: UVAHIK_clean_linker_0, # of connection points: 2
#     Edge 15, Type (0, 0), BuildingBlock: UVAHIK_clean_linker_0, # of connection points: 2
#     Edge 16, Type (0, 0), BuildingBlock: UVAHIK_clean_linker_0, # of connection points: 2
#     Edge 17, Type (0, 0), BuildingBlock: UVAHIK_clean_linker_0, # of connection points: 2
#     Edge 18, Type (0, 0), BuildingBlock: UVAHIK_clean_linker_0, # of connection points: 2
#     Edge 19, Type (0, 0), BuildingBlock: UVAHIK_clean_linker_0, # of connection points: 2
#     Edge 20, Type (0, 0), BuildingBlock: UVAHIK_clean_linker_0, # of connection points: 2
#     Edge 21, Type (0, 0), BuildingBlock: UVAHIK_clean_linker_0, # of connection points: 2
#     Edge 22, Type (0, 0), BuildingBlock: UVAHIK_clean_linker_0, # of connection points: 2
#     Edge 23, Type (0, 0), BuildingBlock: UVAHIK_clean_linker_0, # of connection points: 2
#     Edge 24, Type (0, 0), BuildingBlock: UVAHIK_clean_linker_0, # of connection points: 2
#     Edge 25, Type (0, 0), BuildingBlock: UVAHIK_clean_linker_0, # of connection points: 2
#     Edge 26, Type (0, 0), BuildingBlock: UVAHIK_clean_linker_0, # of connection points: 2
#     Edge 27, Type (0, 0), BuildingBlock: UVAHIK_clean_linker_0, # of connection points: 2
#     Edge 28, Type (0, 0), BuildingBlock: UVAHIK_clean_linker_0, # of connection points: 2
#     Edge 29, Type (0, 0), BuildingBlock: UVAHIK_clean_linker_0, # of connection points: 2
#     Edge 30, Type (0, 0), BuildingBlock: UVAHIK_clean_linker_0, # of connection points: 2
#     Edge 31, Type (0, 0), BuildingBlock: UVAHIK_clean_linker_0, # of connection points: 2
#     Edge 32, Type (0, 0), BuildingBlock: UVAHIK_clean_linker_0, # of connection points: 2
#     Edge 33, Type (0, 0), BuildingBlock: UVAHIK_clean_linker_0, # of connection points: 2
#     Edge 34, Type (0, 0), BuildingBlock: UVAHIK_clean_linker_0, # of connection points: 2
#     Edge 35, Type (0, 0), BuildingBlock: UVAHIK_clean_linker_0, # of connection points: 2
# Relax obj value: 0.130
# Max RMSD: 0.280
# Mean RMSD: 0.280
data_MOF--net-smc--node1-MAKGUD_clean_sbu_1--edge1-UVAHIK_clean_linker_0
_symmetry_space_group_name_H-M    P1
_symmetry_Int_Tables_number       1
_symmetry_cell_setting            triclinic
loop_
_symmetry_equiv_pos_as_xyz
'x, y, z'
_cell_length_a     45.817014
_cell_length_b     45.429949
_cell_length_c     48.674716
_cell_angle_alpha  89.657504
_cell_angle_beta   89.796291
_cell_angle_gamma 119.99191
loop_
_atom_site_label
_atom_site_type_symbol
_atom_site_fract_x
_atom_site_fract_y
_atom_site_fract_z
_atom_type_partial_charge
O0 O 0.94028 0.39991 0.02806 0.0
Tb1 Tb 0.97992 0.4481 0.01171 0.0
C2 C 1.03741 0.45893 0.97033 0.0
O3 O 0.05673 0.48893 0.03123 0.0
Tb4 Tb 0.1006 0.50075 1.00552 0.0
C5 C 0.1473 0.48379 0.0162 0.0
O6 O 1.00736 0.44661 0.04792 0.0
O7 O 0.12688 0.55521 0.99728 0.0
C8 C 0.13273 0.57635 0.01766 0.0
O9 O 0.11989 0.56377 0.04199 0.0
O10 O 1.02549 0.47345 0.98658 0.0
O11 O 0.06989 0.46935 0.97153 0.0
O12 O 0.95956 0.48206 0.01466 0.0
C13 C 0.04058 0.46384 0.049 0.0
C14 C 0.92976 0.38473 1.00464 0.0
O15 O 0.13109 0.4908 0.0347 0.0
O16 O 0.13642 0.48547 0.99195 0.0
C17 C 0.94623 0.48732 0.9926 0.0
O18 O 0.94714 0.47298 0.9695 0.0
O19 O 0.94803 0.40523 0.98474 0.0
O20 O 0.68234 0.57961 0.03567 0.0
Tb21 Tb 0.63297 0.56682 0.02012 0.0
C22 C 0.61126 0.60651 0.97791 0.0
O23 O 0.58565 0.59522 0.04025 0.0
Tb24 Tb 0.56657 0.62234 0.01576 0.0
C25 C 0.58123 0.68635 0.02251 0.0
O26 O 0.63178 0.59513 0.05598 0.0
O27 O 0.51224 0.58966 0.01291 0.0
C28 C 0.49406 0.58421 0.03534 0.0
O29 O 0.50967 0.59785 0.05837 0.0
O30 O 0.60222 0.58132 0.99557 0.0
O31 O 0.5952 0.62378 0.97918 0.0
O32 O 0.60431 0.51159 0.02337 0.0
C33 C 0.61114 0.60745 0.05734 0.0
C34 C 0.69736 0.58523 0.01193 0.0
O35 O 0.57825 0.66569 0.04253 0.0
O36 O 0.57641 0.67093 0.99917 0.0
C37 C 0.60632 0.4942 1.00261 0.0
O38 O 0.62451 0.51109 0.98109 0.0
O39 O 0.67616 0.58126 0.99252 0.0
O40 O 0.43263 0.93112 0.9896 0.0
Tb41 Tb 0.46435 0.98226 1.0054 0.0
C42 C 0.47281 1.02626 0.05672 0.0
O43 O 0.51187 0.05894 0.97529 0.0
Tb44 Tb 0.51915 0.08478 0.01427 0.0
C45 C 0.52336 0.14541 1.01061 0.0
O46 O 0.45876 1.01287 0.97348 0.0
O47 O 0.57176 0.09806 0.01767 0.0
C48 C 0.59073 0.11232 0.99571 0.0
O49 O 0.57602 0.11441 0.97325 0.0
O50 O 0.4821 1.00624 0.0451 0.0
O51 O 0.48351 0.05737 0.04755 0.0
O52 O 0.50349 0.96852 1.00282 0.0
C53 C 0.48233 0.04224 0.96353 0.0
C54 C 0.40754 0.92217 1.00652 0.0
O55 O 0.5028 0.1188 0.99641 0.0
O56 O 0.54124 0.13765 0.02653 0.0
C57 C 0.50644 0.95302 0.02473 0.0
O58 O 0.48728 0.94905 0.04618 0.0
O59 O 0.41432 0.94728 0.02303 0.0
O60 O 0.61229 0.72674 0.36106 0.0
Tb61 Tb 0.64425 0.77889 0.34685 0.0
C62 C 0.70372 0.79896 0.30367 0.0
O63 O 0.72055 0.82469 0.36555 0.0
Tb64 Tb 0.76585 0.84189 0.34046 0.0
C65 C 0.81269 0.8246 0.34994 0.0
O66 O 0.67389 0.77852 0.38193 0.0
O67 O 0.79141 0.8965 0.33318 0.0
C68 C 0.79734 0.91707 0.354 0.0
O69 O 0.78475 0.90383 0.37824 0.0
O70 O 0.68883 0.80934 0.32114 0.0
O71 O 0.73689 0.81335 0.30469 0.0
O72 O 0.61861 0.80725 0.35558 0.0
C73 C 0.70685 0.79875 0.38276 0.0
C74 C 0.59726 0.71439 0.33789 0.0
O75 O 0.79965 0.83525 0.36855 0.0
O76 O 0.79852 0.82281 0.32645 0.0
C77 C 0.61263 0.82287 0.33537 0.0
O78 O 0.62497 0.82331 0.31086 0.0
O79 O 0.60964 0.73837 0.31916 0.0
O80 O 0.3151 0.87635 0.37173 0.0
Tb81 Tb 0.28128 0.89355 0.35684 0.0
C82 C 0.27179 0.92911 0.30607 0.0
O83 O 0.23456 0.92389 0.38496 0.0
Tb84 Tb 0.22802 0.94561 0.34711 0.0
C85 C 0.2298 1.00517 0.35067 0.0
O86 O 0.28685 0.9295 0.38861 0.0
O87 O 0.17462 0.90857 0.34335 0.0
C88 C 0.1554 0.90605 0.36447 0.0
O89 O 0.17012 0.92385 0.38648 0.0
O90 O 0.26038 0.89957 0.31849 0.0
O91 O 0.26309 0.9512 0.31441 0.0
O92 O 0.24404 0.84015 0.36351 0.0
C93 C 0.26383 0.93662 0.39725 0.0
C94 C 0.33898 0.89249 0.35376 0.0
O95 O 0.24515 0.99481 0.36733 0.0
O96 O 0.2136 0.98196 0.3324 0.0
C97 C 0.23547 0.81945 0.34242 0.0
O98 O 0.24641 0.83251 0.31784 0.0
O99 O 0.33052 0.90965 0.33725 0.0
O100 O 0.19526 0.47177 0.37032 0.0
Tb101 Tb 0.17939 0.42125 0.35406 0.0
C102 C 0.14785 0.37953 0.30068 0.0
O103 O 0.15142 0.34318 0.38358 0.0
Tb104 Tb 0.13406 0.32011 0.34346 0.0
C105 C 0.07685 0.2603 0.34589 0.0
O106 O 0.1435 0.38907 0.38562 0.0
O107 O 0.17186 0.30477 0.33786 0.0
C108 C 0.17884 0.29131 0.35915 0.0
O109 O 0.16602 0.29174 0.38323 0.0
O110 O 0.17588 0.40102 0.31304 0.0
O111 O 0.12699 0.3489 0.31052 0.0
O112 O 0.23287 0.43776 0.35703 0.0
C113 C 0.1393 0.36039 0.39599 0.0
C114 C 0.17773 0.47922 0.35368 0.0
O115 O 0.0842 0.28592 0.36196 0.0
O116 O 0.10161 0.26856 0.32881 0.0
C117 C 0.25171 0.45755 0.3367 0.0
O118 O 0.23655 0.46388 0.31657 0.0
O119 O 0.16094 0.45386 0.33712 0.0
O120 O 0.27135 0.06856 0.70216 0.0
Tb121 Tb 0.3114 0.11598 0.68492 0.0
C122 C 0.36961 0.13087 0.64217 0.0
O123 O 0.38828 0.16067 0.70259 0.0
Tb124 Tb 0.43271 0.17479 0.67704 0.0
C125 C 0.48021 0.15864 0.68669 0.0
O126 O 0.3409 0.11658 0.72043 0.0
O127 O 0.45761 0.22967 0.67182 0.0
C128 C 0.47685 0.24836 0.69202 0.0
O129 O 0.47855 0.23285 0.71431 0.0
O130 O 0.3563 0.14346 0.65908 0.0
O131 O 0.40259 0.14383 0.64262 0.0
O132 O 0.28892 0.14828 0.68634 0.0
C133 C 0.37403 0.13574 0.72066 0.0
C134 C 0.26227 0.05185 0.67926 0.0
O135 O 0.46188 0.16206 0.7056 0.0
O136 O 0.47107 0.16351 0.66263 0.0
C137 C 0.27075 0.14756 0.6652 0.0
O138 O 0.268 0.12822 0.64429 0.0
O139 O 0.28143 0.07121 0.65921 0.0
O140 O 1.01189 0.25181 0.69712 0.0
Tb141 Tb 0.95971 0.23203 0.68497 0.0
C142 C 0.93893 0.26932 0.64068 0.0
O143 O 0.91156 0.26092 0.70502 0.0
Tb144 Tb 0.89478 0.28659 0.67637 0.0
C145 C 0.90141 0.3479 0.68111 0.0
O146 O 0.9606 0.26448 0.71836 0.0
O147 O 0.84091 0.25067 0.67736 0.0
C148 C 0.82424 0.24775 0.70023 0.0
O149 O 0.84127 0.26493 0.72179 0.0
O150 O 0.92903 0.24547 0.65963 0.0
O151 O 0.92412 0.28777 0.64049 0.0
O152 O 0.93168 0.17814 0.69509 0.0
C153 C 0.93915 0.27584 0.7198 0.0
C154 C 1.02297 0.2485 0.67339 0.0
O155 O 0.91385 0.33496 0.69845 0.0
O156 O 0.88571 0.32636 0.66161 0.0
C157 C 0.91426 0.15637 0.67571 0.0
O158 O 0.91179 0.16823 0.65167 0.0
O159 O 0.99841 0.23674 0.65572 0.0
O160 O 0.76674 0.60355 0.65786 0.0
Tb161 Tb 0.79791 0.65517 0.67309 0.0
C162 C 0.80602 0.69499 0.72742 0.0
O163 O 0.84567 0.73315 0.64241 0.0
Tb164 Tb 0.85079 0.75333 0.6837 0.0
C165 C 0.85443 0.81383 0.68256 0.0
O166 O 0.7928 0.68627 0.64131 0.0
O167 O 0.9033 0.76634 0.6876 0.0
C168 C 0.92311 0.78247 0.66644 0.0
O169 O 0.90942 0.78699 0.64432 0.0
O170 O 0.81137 0.67258 0.715 0.0
O171 O 0.81515 0.7252 0.71695 0.0
O172 O 0.83649 0.64059 0.67043 0.0
C173 C 0.81671 0.71456 0.63017 0.0
C174 C 0.74023 0.59594 0.6727 0.0
O175 O 0.83486 0.78821 0.66707 0.0
O176 O 0.87174 0.80524 0.69839 0.0
C177 C 0.83476 0.6198 0.69023 0.0
O178 O 0.81181 0.61192 0.70951 0.0
O179 O 0.74609 0.62188 0.68782 0.0
C180 C 0.43911 0.55471 1.00986 0.0
C181 C 0.45671 0.56539 0.03475 0.0
C182 C 0.40391 0.53951 1.00951 0.0
C183 C 0.33454 0.53673 0.05003 0.0
H184 H 0.27709 0.46266 1.0019 0.0
C185 C 0.19182 0.48632 0.04742 0.0
C186 C 0.17803 0.48174 0.02104 0.0
C187 C 0.22392 0.49031 0.05103 0.0
C188 C 0.2928 0.48346 0.01538 0.0
H189 H 0.45096 0.56704 0.07891 0.0
H190 H 0.3899 0.54043 0.07828 0.0
H191 H 0.33733 0.48206 1.00386 0.0
H192 H 0.18596 0.47577 0.97799 0.0
H193 H 0.24188 0.48315 0.98414 0.0
H194 H 0.29053 0.53898 0.061 0.0
C195 C 0.40323 0.54431 0.05897 0.0
C196 C 0.32733 0.49458 0.01647 0.0
C197 C 0.43828 0.55945 0.05932 0.0
C198 C 0.19598 0.47924 0.99859 0.0
C199 C 0.22804 0.48333 1.00216 0.0
C200 C 0.30014 0.52574 0.04887 0.0
C201 C 0.38563 0.53473 0.03405 0.0
C202 C 0.34865 0.52155 0.03364 0.0
C203 C 0.24286 0.4899 0.0283 0.0
C204 C 0.27883 0.49919 0.03133 0.0
H205 H 0.45256 0.55891 0.99058 0.0
H206 H 0.39114 0.53263 0.98993 0.0
H207 H 0.3503 0.55795 0.06314 0.0
H208 H 0.17844 0.48823 0.0651 0.0
H209 H 0.23428 0.49467 0.07154 0.0
C210 C 0.53545 0.92571 1.00051 0.0
C211 C 0.52684 0.93601 0.02491 0.0
C212 C 0.54904 0.90404 1.0015 0.0
C213 C 0.5477 0.83855 0.0473 0.0
H214 H 0.61419 0.84037 0.99686 0.0
C215 C 0.58358 0.73358 0.05085 0.0
C216 C 0.58503 0.72048 0.02518 0.0
C217 C 0.58285 0.76403 0.05247 0.0
C218 C 0.59547 0.83942 1.01104 0.0
H219 H 0.52827 0.93406 0.0694 0.0
H220 H 0.55237 0.89707 0.07108 0.0
H221 H 0.60128 0.88648 0.99573 0.0
H222 H 0.58845 0.72957 0.9812 0.0
H223 H 0.58676 0.78203 0.98393 0.0
H224 H 0.54096 0.79114 0.06207 0.0
C225 C 0.54785 0.90479 0.0512 0.0
C226 C 0.58809 0.86586 1.01036 0.0
C227 C 0.53421 0.92619 0.0502 0.0
C228 C 0.5873 0.73905 1.00131 0.0
C229 C 0.58657 0.76934 1.00289 0.0
C230 C 0.55496 0.81212 0.04791 0.0
C231 C 0.55432 0.89245 0.02691 0.0
C232 C 0.56388 0.86558 0.02833 0.0
C233 C 0.58359 0.78191 0.02843 0.0
C234 C 0.57863 0.81194 0.02958 0.0
H235 H 0.52993 0.93277 0.98073 0.0
H236 H 0.55369 0.89493 0.98239 0.0
H237 H 0.52846 0.83715 0.06112 0.0
H238 H 0.58188 0.71977 0.06957 0.0
H239 H 0.58105 0.77323 0.07252 0.0
C240 C 0.37124 0.86549 0.9855 0.0
C241 C 0.37676 0.88827 1.00688 0.0
C242 C 0.34305 0.83286 0.98585 0.0
C243 C 0.25888 0.779 0.01877 0.0
H244 H 0.27137 0.70572 0.99214 0.0
C245 C 0.16173 0.63578 0.036 0.0
C246 C 0.15659 0.61337 0.01432 0.0
C247 C 0.18661 0.6701 0.03409 0.0
C248 C 0.26729 0.72592 0.99931 0.0
H249 H 0.35697 0.89496 0.04532 0.0
H250 H 0.30792 0.83744 0.0464 0.0
H251 H 0.3186 0.7636 0.99156 0.0
H252 H 0.17294 0.60987 0.97322 0.0
H253 H 0.21637 0.66976 0.96989 0.0
H254 H 0.20758 0.7408 0.0271 0.0
C255 C 0.32507 0.845 0.02903 0.0
C256 C 0.29443 0.75923 0.99897 0.0
C257 C 0.35324 0.87791 0.02852 0.0
C258 C 0.17623 0.62637 0.99032 0.0
C259 C 0.2013 0.66066 0.98849 0.0
C260 C 0.23173 0.74554 0.0193 0.0
C261 C 0.31977 0.8219 1.00779 0.0
C262 C 0.29063 0.78632 1.00857 0.0
C263 C 0.20715 0.68283 1.01052 0.0
C264 C 0.2356 0.71861 1.00948 0.0
H265 H 0.3888 0.87287 0.96842 0.0
H266 H 0.33954 0.81623 0.9688 0.0
H267 H 0.2548 0.79916 0.02601 0.0
H268 H 0.14705 0.62666 0.05479 0.0
H269 H 0.19058 0.68639 0.0515 0.0
C270 C 0.55107 0.20573 0.02536 0.0
C271 C 0.52627 0.17931 1.00964 0.0
C272 C 0.55427 0.23793 0.02511 0.0
C273 C 0.53368 0.29396 0.98427 0.0
H274 H 0.56206 0.34783 0.05059 0.0
C275 C 0.59532 0.43956 0.98158 0.0
C276 C 0.59039 0.45661 1.00355 0.0
C277 C 0.58223 0.40445 0.98259 0.0
C278 C 0.55362 0.33308 0.03196 0.0
H279 H 0.48522 0.16577 0.98134 0.0
H280 H 0.49044 0.22222 0.98111 0.0
H281 H 0.5482 0.28873 0.05227 0.0
H282 H 0.56687 0.4498 0.04356 0.0
H283 H 0.54341 0.38815 0.04521 0.0
H284 H 0.53869 0.33823 0.96404 0.0
C285 C 0.50773 0.2181 0.99342 0.0
C286 C 0.54613 0.29922 0.03282 0.0
C287 C 0.50462 0.18574 0.9936 0.0
C288 C 0.57126 0.43747 0.02635 0.0
C289 C 0.55798 0.40215 0.02733 0.0
C290 C 0.54098 0.32779 0.98344 0.0
C291 C 0.5326 0.24462 1.00926 0.0
C292 C 0.53688 0.27944 1.00885 0.0
C293 C 0.5636 0.38522 1.00555 0.0
C294 C 0.55186 0.34809 1.00713 0.0
H295 H 0.56827 0.2016 0.03782 0.0
H296 H 0.57422 0.25778 0.03706 0.0
H297 H 0.52674 0.27964 0.96538 0.0
H298 H 0.60998 0.45342 0.96368 0.0
H299 H 0.58769 0.39259 0.96564 0.0
C300 C 0.64556 0.14198 0.02152 0.0
C301 C 0.62809 0.13092 0.99661 0.0
C302 C 0.68044 0.16487 0.02149 0.0
C303 C 0.74543 0.23169 0.97698 0.0
H304 H 0.80839 0.23173 0.02991 0.0
C305 C 0.88543 0.33786 0.97595 0.0
C306 C 0.89916 0.35099 1.00177 0.0
C307 C 0.85437 0.30757 0.97403 0.0
C308 C 0.7911 0.23222 0.01506 0.0
H309 H 0.63391 0.13317 0.95226 0.0
H310 H 0.69433 0.17236 0.95227 0.0
H311 H 0.75022 0.18474 0.0298 0.0
H312 H 0.89189 0.34222 0.04572 0.0
H313 H 0.83798 0.29009 0.04246 0.0
H314 H 0.78576 0.27947 0.9627 0.0
C315 C 0.68117 0.16418 0.97181 0.0
C316 C 0.75774 0.20525 0.01502 0.0
C317 C 0.64651 0.14149 0.97183 0.0
C318 C 0.88196 0.33271 0.0255 0.0
C319 C 0.85106 0.3026 0.02362 0.0
C320 C 0.77867 0.25867 0.97709 0.0
C321 C 0.69844 0.17706 0.99656 0.0
C322 C 0.73442 0.20477 0.99609 0.0
C323 C 0.83649 0.28986 0.9979 0.0
C324 C 0.80192 0.25953 0.9963 0.0
H325 H 0.63208 0.13443 0.04094 0.0
H326 H 0.69295 0.17434 0.04095 0.0
H327 H 0.72804 0.23251 0.96241 0.0
H328 H 0.8982 0.35142 0.95732 0.0
H329 H 0.84417 0.29828 0.95385 0.0
C330 C 0.91209 0.51002 0.97054 0.0
C331 C 0.92786 0.50644 0.99404 0.0
C332 C 0.89229 0.52542 0.97219 0.0
C333 C 0.84212 0.54207 0.02234 0.0
H334 H 0.83643 0.59686 0.96346 0.0
C335 C 0.75104 0.59321 0.03104 0.0
C336 C 0.73073 0.58832 1.00806 0.0
C337 C 0.77959 0.58979 0.02887 0.0
C338 C 0.83764 0.58149 0.98001 0.0
H339 H 0.93633 0.51756 0.03748 0.0
H340 H 0.90206 0.5448 0.04032 0.0
H341 H 0.87844 0.57874 0.96091 0.0
H342 H 0.7253 0.57804 0.96444 0.0
H343 H 0.77513 0.57159 0.96062 0.0
H344 H 0.80102 0.54407 0.0412 0.0
C345 C 0.90455 0.53516 0.02068 0.0
C346 C 0.8617 0.57109 0.97856 0.0
C347 C 0.92436 0.51971 0.01903 0.0
C348 C 0.74064 0.58204 0.98245 0.0
C349 C 0.76919 0.5784 0.9803 0.0
C350 C 0.81817 0.55245 0.02379 0.0
C351 C 0.88778 0.53767 0.99738 0.0
C352 C 0.86402 0.55098 0.99962 0.0
C353 C 0.78834 0.58111 1.00372 0.0
C354 C 0.81542 0.57208 1.00258 0.0
H355 H 0.91427 0.50012 0.95093 0.0
H356 H 0.87948 0.52655 0.9539 0.0
H357 H 0.84266 0.52603 0.03865 0.0
H358 H 0.74411 0.59833 0.051 0.0
H359 H 0.79421 0.59287 0.04717 0.0
C360 C 0.85651 0.81338 0.33034 0.0
C361 C 0.84322 0.82161 0.35317 0.0
C362 C 0.88802 0.8156 0.33168 0.0
C363 C 0.95456 0.82284 0.37907 0.0
H364 H 1.01426 0.87074 0.31774 0.0
C365 C 0.09898 0.88539 0.38638 0.0
C366 C 0.11802 0.88744 0.36297 0.0
C367 C 0.06413 0.87167 0.38483 0.0
C368 C 0.99785 0.85671 0.33481 0.0
H369 H 0.85168 0.83701 0.39575 0.0
H370 H 0.9069 0.84088 0.3982 0.0
H371 H 0.95571 0.85696 0.31626 0.0
H372 H 0.11499 0.87521 0.31974 0.0
H373 H 0.0538 0.85063 0.31706 0.0
H374 H 0.99684 0.82293 0.39776 0.0
C375 C 0.89289 0.83258 0.37924 0.0
C376 C 0.96419 0.84886 0.334 0.0
C377 C 0.86129 0.83043 0.37786 0.0
C378 C 0.10109 0.87407 0.33814 0.0
C379 C 0.06605 0.86025 0.33659 0.0
C380 C 0.98821 0.83053 0.37983 0.0
C381 C 0.90702 0.82606 0.35592 0.0
C382 C 0.94221 0.83223 0.35626 0.0
C383 C 0.04718 0.85946 0.35983 0.0
C384 C 1.01049 0.84807 0.35789 0.0
H385 H 0.84309 0.80637 0.31104 0.0
H386 H 0.89783 0.80978 0.31351 0.0
H387 H 0.93821 0.80959 0.39639 0.0
H388 H 0.11111 0.89538 0.40588 0.0
H389 H 0.05072 0.87198 0.40309 0.0
C390 C 0.20905 0.26325 0.37899 0.0
C391 C 0.19511 0.27032 0.35595 0.0
C392 C 0.21874 0.23858 0.37788 0.0
C393 C 0.23253 0.18198 0.33032 0.0
H394 H 0.20981 0.1248 0.39543 0.0
C395 C 0.21715 0.04768 0.32958 0.0
C396 C 0.23049 0.0381 0.35157 0.0
C397 C 0.21702 0.07839 0.33005 0.0
C398 C 0.21675 0.14077 0.37721 0.0
H399 H 0.18168 0.25796 0.31327 0.0
H400 H 0.19784 0.21427 0.31138 0.0
H401 H 0.20257 0.17432 0.39575 0.0
H402 H 0.25429 0.05318 0.39133 0.0
H403 H 0.25362 0.1069 0.39242 0.0
H404 H 0.24547 0.14738 0.31155 0.0
C405 C 0.20195 0.22823 0.33027 0.0
C406 C 0.21271 0.16935 0.37737 0.0
C407 C 0.19267 0.25335 0.33129 0.0
C408 C 0.24385 0.05995 0.3741 0.0
C409 C 0.24335 0.0906 0.37474 0.0
C410 C 0.23624 0.15317 0.33009 0.0
C411 C 0.21425 0.21981 0.35381 0.0
C412 C 0.22034 0.19032 0.35387 0.0
C413 C 0.22991 0.10016 0.35268 0.0
C414 C 0.22815 0.13206 0.35347 0.0
H415 H 0.21148 0.27609 0.39825 0.0
H416 H 0.22901 0.23367 0.39621 0.0
H417 H 0.23921 0.19769 0.31198 0.0
H418 H 0.20666 0.03136 0.31193 0.0
H419 H 0.2061 0.08471 0.31291 0.0
C420 C 0.0395 0.20388 0.325 0.0
C421 C 0.04565 0.22673 0.34645 0.0
C422 C 1.01085 0.17161 0.32533 0.0
C423 C 0.92649 0.11908 0.35827 0.0
H424 H 0.93682 0.04494 0.33049 0.0
C425 C 0.82686 0.97598 0.3734 0.0
C426 C 0.82139 0.95411 0.35123 0.0
C427 C 0.85217 1.01019 0.37205 0.0
C428 C 0.93336 0.06539 0.338 0.0
H429 H 1.02649 0.23394 0.38501 0.0
H430 H 0.97657 0.17693 0.38609 0.0
H431 H 0.98501 0.1022 0.33062 0.0
H432 H 0.8375 0.95149 0.30982 0.0
H433 H 0.88167 1.01115 0.30748 0.0
H434 H 0.8748 0.08166 0.36625 0.0
C435 C 0.99362 0.18421 0.36867 0.0
C436 C 0.96104 0.09836 0.33806 0.0
C437 C 1.02229 0.2168 0.36818 0.0
C438 C 0.84104 0.96757 0.32729 0.0
C439 C 0.86653 1.00172 0.32602 0.0
C440 C 0.89878 0.08593 0.35843 0.0
C441 C 0.98769 0.16103 0.34733 0.0
C442 C 0.95802 0.12577 0.348 0.0
C443 C 0.87279 1.02329 0.34857 0.0
C444 C 0.90186 0.05873 0.34813 0.0
H445 H 0.05691 0.21094 0.30783 0.0
H446 H 1.00686 0.15496 0.30818 0.0
H447 H 0.92302 0.13951 0.3658 0.0
H448 H 0.81216 0.96649 0.39216 0.0
H449 H 0.85644 1.02604 0.38982 0.0
C450 C 0.20409 0.76052 0.32387 0.0
C451 C 0.21939 0.78213 0.34627 0.0
C452 C 0.19402 0.72599 0.32565 0.0
C453 C 0.18182 0.65648 0.37448 0.0
H454 H 0.19931 0.61939 0.30898 0.0
C455 C 0.19336 0.53511 0.37485 0.0
C456 C 0.17783 0.51184 0.35347 0.0
C457 C 0.19451 0.56647 0.37452 0.0
C458 C 0.19386 0.62918 0.32734 0.0
H459 H 0.23498 0.78417 0.38849 0.0
H460 H 0.2183 0.72413 0.39147 0.0
H461 H 0.2079 0.6767 0.30784 0.0
H462 H 0.15112 0.50295 0.31505 0.0
H463 H 0.15357 0.55814 0.31421 0.0
H464 H 0.16906 0.6091 0.39415 0.0
C465 C 0.21334 0.73357 0.37262 0.0
C466 C 0.19866 0.66211 0.32671 0.0
C467 C 0.22297 0.7681 0.37096 0.0
C468 C 0.16323 0.52042 0.3318 0.0
C469 C 0.16476 0.55203 0.33129 0.0
C470 C 0.1774 0.62364 0.37517 0.0
C471 C 0.19953 0.71219 0.34973 0.0
C472 C 0.19283 0.67636 0.35029 0.0
C473 C 0.18051 0.57547 0.35262 0.0
C474 C 0.18353 0.60968 0.35163 0.0
H475 H 0.20075 0.77051 0.30461 0.0
H476 H 0.18259 0.7103 0.30783 0.0
H477 H 0.17653 0.66622 0.39294 0.0
H478 H 0.20483 0.52917 0.39181 0.0
H479 H 0.20714 0.58407 0.3911 0.0
C480 C 0.30703 0.49295 0.31303 0.0
C481 C 0.28913 0.47533 0.33682 0.0
C482 C 0.34206 0.5132 0.3132 0.0
C483 C 0.4124 0.56177 0.3606 0.0
H484 H 0.46662 0.57445 0.29544 0.0
C485 C 0.55458 0.65884 0.35841 0.0
C486 C 0.56635 0.68078 0.33548 0.0
C487 C 0.52273 0.62964 0.3583 0.0
C488 C 0.45182 0.5713 0.31376 0.0
H489 H 0.29434 0.46417 0.37924 0.0
H490 H 0.356 0.49946 0.37954 0.0
H491 H 0.40751 0.52979 0.29655 0.0
H492 H 0.55473 0.68846 0.2939 0.0
H493 H 0.49891 0.63723 0.29358 0.0
H494 H 0.45657 0.60355 0.37767 0.0
C495 C 0.34266 0.49787 0.36078 0.0
C496 C 0.41788 0.54568 0.31443 0.0
C497 C 0.30736 0.47741 0.36059 0.0
C498 C 0.54635 0.67194 0.31183 0.0
C499 C 0.5144 0.64257 0.31167 0.0
C500 C 0.44635 0.58726 0.35998 0.0
C501 C 0.36042 0.51649 0.33717 0.0
C502 C 0.39751 0.54097 0.33767 0.0
C503 C 0.50183 0.62157 0.33521 0.0
C504 C 0.46638 0.59272 0.3364 0.0
H505 H 0.29388 0.4919 0.29429 0.0
H506 H 0.35458 0.5274 0.29474 0.0
H507 H 0.39749 0.55936 0.37868 0.0
H508 H 0.56948 0.66491 0.37693 0.0
H509 H 0.51416 0.61373 0.37657 0.0
C510 C 0.39205 0.90267 0.32968 0.0
C511 C 0.37004 0.89017 0.35237 0.0
C512 C 0.42026 0.89827 0.32824 0.0
C513 C 0.45257 0.8443 0.3579 0.0
H514 H 0.53796 0.91233 0.32639 0.0
C515 C 0.57052 0.82994 0.36362 0.0
C516 C 0.58912 0.83616 0.33913 0.0
C517 C 0.54572 0.83925 0.36594 0.0
C518 C 0.5142 0.89301 0.33512 0.0
H519 H 0.36083 0.8644 0.39174 0.0
H520 H 0.4101 0.85758 0.38969 0.0
H521 H 0.49092 0.92333 0.32863 0.0
H522 H 0.59715 0.85837 0.29827 0.0
H523 H 0.55403 0.87463 0.30237 0.0
H524 H 0.47575 0.81405 0.36448 0.0
C525 C 0.40536 0.8699 0.37256 0.0
C526 C 0.48718 0.89926 0.33633 0.0
C527 C 0.37718 0.87404 0.37385 0.0
C528 C 0.58327 0.85312 0.31743 0.0
C529 C 0.55862 0.86261 0.31981 0.0
C530 C 0.47956 0.83818 0.35686 0.0
C531 C 0.42705 0.88142 0.34957 0.0
C532 C 0.45599 0.875 0.34782 0.0
C533 C 0.53907 0.85518 0.34389 0.0
C534 C 0.51075 0.86244 0.34551 0.0
H535 H 0.38705 0.91512 0.31279 0.0
H536 H 0.43621 0.90725 0.31011 0.0
H537 H 0.42878 0.82462 0.36629 0.0
H538 H 0.5744 0.817 0.38076 0.0
H539 H 0.53146 0.83361 0.38493 0.0
C540 C 0.76981 0.22507 0.72617 0.0
C541 C 0.78685 0.2289 0.70116 0.0
C542 C 0.7348 0.21072 0.72693 0.0
C543 C 0.65647 0.16117 0.68635 0.0
H544 H 0.62372 0.20911 0.7311 0.0
C545 C 0.52849 0.1536 0.66881 0.0
C546 C 0.51064 0.15594 0.6914 0.0
C547 C 0.55998 0.15628 0.67231 0.0
C548 C 0.63223 0.19494 0.7189 0.0
H549 H 0.7802 0.21938 0.65741 0.0
H550 H 0.71907 0.1947 0.65863 0.0
H551 H 0.68297 0.22554 0.73252 0.0
H552 H 0.51084 0.16118 0.73559 0.0
H553 H 0.56596 0.16561 0.74187 0.0
H554 H 0.60572 0.13114 0.67222 0.0
C555 C 0.73276 0.20247 0.67776 0.0
C556 C 0.66632 0.20441 0.71968 0.0
C557 C 0.76787 0.21676 0.67703 0.0
C558 C 0.52411 0.15933 0.71782 0.0
C559 C 0.55577 0.16213 0.72135 0.0
C560 C 0.62232 0.15169 0.68557 0.0
C561 C 0.71586 0.19993 0.70266 0.0
C562 C 0.67902 0.18798 0.70315 0.0
C563 C 0.57445 0.16145 0.69853 0.0
C564 C 0.60986 0.1688 0.70153 0.0
H565 H 0.7836 0.23386 0.74521 0.0
H566 H 0.72261 0.20854 0.74654 0.0
H567 H 0.66524 0.1476 0.67368 0.0
H568 H 0.51874 0.15104 0.64818 0.0
H569 H 0.57368 0.15598 0.65424 0.0
C570 C 0.92485 0.40661 0.70106 0.0
C571 C 0.90348 0.38141 0.68264 0.0
C572 C 0.92637 0.4383 0.7014 0.0
C573 C 0.90057 0.4918 0.66007 0.0
H574 H 0.90618 0.53451 0.72993 0.0
C575 C 0.87471 0.60389 0.66752 0.0
C576 C 0.85448 0.60196 0.69 0.0
C577 C 0.88955 0.58327 0.66672 0.0
C578 C 0.9044 0.52288 0.71019 0.0
H579 H 0.86662 0.36931 0.65053 0.0
H580 H 0.86813 0.42322 0.65183 0.0
H581 H 0.91364 0.48525 0.72818 0.0
H582 H 0.83543 0.57805 0.72984 0.0
H583 H 0.8599 0.54193 0.72807 0.0
H584 H 0.88872 0.52768 0.64238 0.0
C585 C 0.88477 0.41956 0.66536 0.0
C586 C 0.90922 0.49479 0.70914 0.0
C587 C 0.88359 0.38832 0.66482 0.0
C588 C 0.85073 0.58021 0.71208 0.0
C589 C 0.8652 0.55958 0.71121 0.0
C590 C 0.89518 0.51949 0.66119 0.0
C591 C 0.9063 0.44521 0.68349 0.0
C592 C 0.90626 0.47813 0.68418 0.0
C593 C 0.88433 0.56023 0.68834 0.0
C594 C 0.89592 0.53477 0.68641 0.0
H595 H 0.94054 0.40195 0.71497 0.0
H596 H 0.94344 0.45741 0.71555 0.0
H597 H 0.89915 0.48042 0.64028 0.0
H598 H 0.87821 0.62048 0.65022 0.0
H599 H 0.90455 0.58494 0.64892 0.0
C600 C 0.68104 0.55652 0.68892 0.0
C601 C 0.70907 0.56243 0.67297 0.0
C602 C 0.65205 0.52427 0.6896 0.0
C603 C 0.60997 0.44091 0.65319 0.0
H604 H 0.56523 0.40645 0.72341 0.0
C605 C 0.49784 0.30336 0.66571 0.0
C606 C 0.4983 0.28581 0.68943 0.0
C607 C 0.51979 0.33851 0.66308 0.0
C608 C 0.57749 0.41559 0.70363 0.0
H609 H 0.72885 0.5395 0.64515 0.0
H610 H 0.67895 0.48329 0.64682 0.0
H611 H 0.61118 0.46483 0.71963 0.0
H612 H 0.52185 0.2916 0.72917 0.0
H613 H 0.56026 0.35213 0.72438 0.0
H614 H 0.57747 0.39109 0.63756 0.0
C615 C 0.67874 0.5035 0.65833 0.0
C616 C 0.60361 0.44932 0.70137 0.0
C617 C 0.70753 0.53571 0.65753 0.0
C618 C 0.52067 0.30425 0.71062 0.0
C619 C 0.54262 0.33918 0.70797 0.0
C620 C 0.584 0.40708 0.6555 0.0
C621 C 0.65061 0.49723 0.67445 0.0
C622 C 0.62067 0.46228 0.67624 0.0
C623 C 0.54273 0.35682 0.6841 0.0
C624 C 0.56784 0.39376 0.68089 0.0
H625 H 0.68156 0.57675 0.70096 0.0
H626 H 0.63078 0.52056 0.70198 0.0
H627 H 0.62203 0.45013 0.63336 0.0
H628 H 0.48082 0.28992 0.64904 0.0
H629 H 0.51885 0.35129 0.64455 0.0
C630 C 0.87575 0.87094 0.70319 0.0
C631 C 0.85697 0.84757 0.68268 0.0
C632 C 0.87907 0.90321 0.70348 0.0
C633 C 0.84291 0.95441 0.67526 0.0
H634 H 0.92946 0.02982 0.6967 0.0
C635 C 0.88276 0.09646 0.65862 0.0
C636 C 0.90173 0.11949 0.67937 0.0
C637 C 0.87432 0.06234 0.66039 0.0
C638 C 0.90498 1.00901 0.69102 0.0
H639 H 0.82671 0.83945 0.64643 0.0
H640 H 0.83321 0.89637 0.64639 0.0
H641 H 0.92113 0.97264 0.69614 0.0
H642 H 0.92549 0.12431 0.71882 0.0
H643 H 0.91073 0.06475 0.7219 0.0
H644 H 0.82722 0.99131 0.66952 0.0
C645 C 0.84487 0.88953 0.66263 0.0
C646 C 0.90015 0.97611 0.69071 0.0
C647 C 0.84128 0.857 0.66251 0.0
C648 C 0.91093 0.1073 0.70245 0.0
C649 C 0.90268 0.07322 0.70412 0.0
C650 C 0.84786 0.98746 0.67538 0.0
C651 C 0.86404 0.91318 0.68305 0.0
C652 C 0.86901 0.94829 0.68295 0.0
C653 C 0.88484 0.05049 0.68286 0.0
C654 C 0.87894 1.01513 0.68336 0.0
H655 H 0.88788 0.86426 0.71915 0.0
H656 H 0.89336 0.9203 0.71989 0.0
H657 H 0.81846 0.93364 0.66951 0.0
H658 H 0.87521 0.10497 0.64056 0.0
H659 H 0.86073 0.04557 0.64359 0.0
C660 C 0.97721 0.81056 0.69323 0.0
C661 C 0.96037 0.80006 0.66803 0.0
C662 C 1.01219 0.83292 0.69381 0.0
C663 C 0.07903 0.8991 0.64986 0.0
H664 H 0.13969 0.8992 0.70515 0.0
C665 C 0.21934 1.00377 0.65076 0.0
C666 C 0.23197 1.01787 0.67659 0.0
C667 C 0.18833 0.9735 0.64871 0.0
C668 C 0.12304 0.89961 0.68962 0.0
H669 H 0.96727 0.80253 0.6238 0.0
H670 H 1.02789 0.84056 0.62482 0.0
H671 H 0.08134 0.85256 0.70411 0.0
H672 H 0.22289 1.01074 0.72051 0.0
H673 H 0.16905 0.95842 0.71698 0.0
H674 H 0.12023 0.9464 0.63573 0.0
C675 C 1.01421 0.83252 0.64414 0.0
C676 C 0.08957 0.87287 0.68906 0.0
C677 C 0.97944 0.81047 0.64358 0.0
C678 C 0.2138 1.00047 0.70029 0.0
C679 C 0.18295 0.97029 0.69827 0.0
C680 C 0.11238 0.92578 0.65043 0.0
C681 C 1.03092 0.84503 0.66918 0.0
C682 C 0.06706 0.8724 0.66928 0.0
C683 C 0.16942 0.95671 0.67246 0.0
C684 C 0.13479 0.92662 0.67048 0.0
H685 H 0.96317 0.80313 0.7124 0.0
H686 H 1.02421 0.8421 0.71347 0.0
H687 H 0.0623 0.90001 0.63465 0.0
H688 H 0.23287 1.01666 0.63216 0.0
H689 H 0.1789 0.96352 0.62849 0.0
C690 C 0.25133 0.1843 0.68834 0.0
C691 C 0.25187 0.16623 0.6652 0.0
C692 C 0.23152 0.19985 0.68859 0.0
C693 C 0.18382 0.22719 0.64303 0.0
H694 H 0.13075 0.21454 0.70879 0.0
C695 C 0.06275 0.23782 0.64542 0.0
C696 C 0.05582 0.25035 0.66938 0.0
C697 C 0.0911 0.23376 0.644 0.0
C698 C 0.14577 0.21887 0.69039 0.0
H699 H 0.23272 0.1512 0.62387 0.0
H700 H 0.19808 0.17776 0.62445 0.0
H701 H 0.17221 0.19604 0.70852 0.0
H702 H 0.07416 0.27064 0.70986 0.0
H703 H 0.12376 0.2641 0.70724 0.0
H704 H 0.15656 0.2492 0.6247 0.0
C705 C 0.21319 0.18038 0.64232 0.0
C706 C 0.16963 0.20826 0.69025 0.0
C707 C 0.23291 0.16487 0.64208 0.0
C708 C 0.07878 0.26072 0.69118 0.0
C709 C 0.10705 0.2567 0.68977 0.0
C710 C 0.15986 0.23774 0.64314 0.0
C711 C 0.21187 0.19773 0.66567 0.0
C712 C 0.18867 0.21185 0.66647 0.0
C713 C 0.113 0.24216 0.66653 0.0
C714 C 0.14027 0.23336 0.66674 0.0
H715 H 0.26573 0.18593 0.70644 0.0
H716 H 0.23142 0.21337 0.70681 0.0
H717 H 0.19841 0.23084 0.62447 0.0
H718 H 0.0454 0.22955 0.62835 0.0
H719 H 0.09483 0.22236 0.62583 0.0
C720 C 0.14351 0.42008 0.26854 0.0
C721 C 0.14154 0.38865 0.27304 0.0
C722 C 0.13621 0.42847 0.24276 0.0
C723 C 0.09833 0.38929 0.17438 0.0
H724 H 0.12893 0.48337 0.15612 0.0
C725 C 0.04046 0.42304 0.08344 0.0
C726 C 0.0576 0.45527 0.07088 0.0
C727 C 0.05393 0.41533 0.10621 0.0
C728 C 0.12059 0.45692 0.16033 0.0
H729 H 0.132 0.34185 0.25397 0.0
H730 H 0.12218 0.35732 0.20842 0.0
H731 H 0.14822 0.46984 0.19766 0.0
H732 H 0.10193 0.50511 0.07308 0.0
H733 H 0.1275 0.49083 0.11083 0.0
H734 H 0.0733 0.37655 0.13588 0.0
C735 C 0.12725 0.37502 0.22493 0.0
C736 C 0.13109 0.44897 0.18487 0.0
C737 C 0.13324 0.36612 0.25106 0.0
C738 C 0.08878 0.4796 0.08155 0.0
C739 C 0.10299 0.47153 0.10381 0.0
C740 C 0.08892 0.39732 0.14937 0.0
C741 C 0.12803 0.40617 0.22035 0.0
C742 C 0.11937 0.41492 0.1928 0.0
C743 C 0.08551 0.43935 0.11689 0.0
C744 C 0.09894 0.4312 0.14223 0.0
H745 H 0.14968 0.43784 0.2852 0.0
H746 H 0.13632 0.45224 0.24085 0.0
H747 H 0.08818 0.36269 0.17932 0.0
H748 H 1.01597 0.40385 0.07612 0.0
H749 H 0.03873 0.3907 0.11583 0.0
C750 C 0.65565 0.77171 0.27009 0.0
C751 C 0.68569 0.7753 0.2809 0.0
C752 C 0.6423 0.75378 0.24561 0.0
C753 C 0.67072 0.73935 0.18136 0.0
H754 H 0.58658 0.65494 0.17223 0.0
C755 C 0.64904 0.65334 0.08912 0.0
C756 C 0.61647 0.63253 0.07887 0.0
C757 C 0.65426 0.67339 0.11224 0.0
C758 C 0.60982 0.67891 0.17418 0.0
H759 H 0.72463 0.76201 0.27496 0.0
H760 H 0.70187 0.73169 0.23217 0.0
H761 H 0.60005 0.68348 0.21679 0.0
H762 H 0.56383 0.6163 0.08496 0.0
H763 H 0.57285 0.65252 0.12478 0.0
H764 H 0.6808 0.73542 0.13908 0.0
C765 C 0.68849 0.7424 0.24271 0.0
C766 C 0.61752 0.6951 0.19977 0.0
C767 C 0.70143 0.75971 0.26724 0.0
C768 C 0.58925 0.63282 0.09192 0.0
C769 C 0.59444 0.65314 0.11505 0.0
C770 C 0.66285 0.72358 0.15576 0.0
C771 C 0.65926 0.73988 0.23135 0.0
C772 C 0.64848 0.72492 0.20371 0.0
C773 C 0.62702 0.67328 0.12584 0.0
C774 C 0.63281 0.69253 0.15199 0.0
H775 H 0.64344 0.78416 0.27973 0.0
H776 H 0.61978 0.75226 0.23711 0.0
H777 H 0.69461 0.76258 0.18386 0.0
H778 H 0.67052 0.65332 0.07976 0.0
H779 H 0.67963 0.68785 0.12009 0.0
C780 C 0.4324 0.98116 0.08911 0.0
C781 C 0.45441 1.01569 0.08327 0.0
C782 C 0.41318 0.97112 0.11332 0.0
C783 C 0.38609 1.00684 0.17121 0.0
H784 H 0.35227 0.91628 0.20115 0.0
C785 C 0.29127 0.9599 0.26103 0.0
C786 C 0.29076 0.93609 0.27983 0.0
C787 C 0.31049 0.96807 0.23694 0.0
C788 C 0.36186 0.94192 0.19352 0.0
H789 H 0.47511 0.06673 0.099 0.0
H790 H 0.44392 0.04936 0.14206 0.0
H791 H 0.38952 0.93436 0.16171 0.0
H792 H 0.30921 0.90128 0.28753 0.0
H793 H 0.34503 0.91751 0.2469 0.0
H794 H 0.36094 1.01552 0.20429 0.0
C795 C 0.43961 0.02984 0.12737 0.0
C796 C 0.38286 0.95215 0.17027 0.0
C797 C 0.45792 0.03992 0.10271 0.0
C798 C 0.30945 0.92012 0.27369 0.0
C799 C 0.3297 0.92918 0.25002 0.0
C800 C 0.36605 0.99702 0.19492 0.0
C801 C 0.41635 0.99529 0.13289 0.0
C802 C 0.39503 0.98468 0.15849 0.0
C803 C 0.33078 0.95356 0.23131 0.0
C804 C 0.35312 0.96421 0.2063 0.0
H805 H 0.42925 0.96185 0.07461 0.0
H806 H 0.39531 0.94436 0.1162 0.0
H807 H 0.39412 0.03185 0.16278 0.0
H808 H 0.27661 0.97221 0.26483 0.0
H809 H 0.30927 0.98586 0.22278 0.0
C810 C 0.44989 0.03194 0.91988 0.0
C811 C 0.47694 0.05405 0.93656 0.0
C812 C 0.44454 0.04298 0.89453 0.0
C813 C 0.45893 0.119 0.857 0.0
H814 H 0.43496 0.0604 0.79353 0.0
C815 C 0.42172 0.1551 0.75389 0.0
C816 C 0.3935 0.1286 0.74105 0.0
C817 C 0.43754 0.14815 0.77553 0.0
C818 C 0.44142 0.07701 0.81107 0.0
H819 H 0.51942 0.10528 0.93972 0.0
H820 H 0.50969 0.1247 0.89547 0.0
H821 H 0.45141 0.04409 0.83602 0.0
H822 H 0.35949 0.0742 0.74075 0.0
H823 H 0.38641 0.06202 0.77862 0.0
H824 H 0.44765 0.15128 0.83249 0.0
C825 C 0.49282 0.09874 0.90205 0.0
C826 C 0.45091 0.06767 0.8354 0.0
C827 C 0.49845 0.08756 0.92731 0.0
C828 C 0.38152 0.09507 0.75005 0.0
C829 C 0.39716 0.08811 0.77165 0.0
C830 C 0.44914 0.12823 0.83271 0.0
C831 C 0.46584 0.07651 0.88536 0.0
C832 C 0.45911 0.08821 0.85879 0.0
C833 C 0.42512 0.11455 0.78495 0.0
C834 C 0.43955 0.10697 0.80961 0.0
H835 H 0.4328 1.00598 0.92633 0.0
H836 H 0.42326 1.02539 0.88231 0.0
H837 H 0.4649 0.13524 0.87475 0.0
H838 H 0.43095 0.18124 0.7477 0.0
H839 H 0.45915 0.16912 0.78513 0.0
C840 C 0.99501 0.44035 0.93263 0.0
C841 C 1.01678 0.43445 0.94899 0.0
C842 C 0.98166 0.42194 0.90842 0.0
C843 C 1.00265 0.37425 0.85787 0.0
H844 H 0.91851 0.35501 0.82412 0.0
C845 C 0.9763 0.32658 0.74759 0.0
C846 C 0.94377 0.30019 0.74164 0.0
C847 C 0.98252 0.34524 0.77171 0.0
C848 C 0.94201 0.35998 0.83331 0.0
H849 H 0.0397 0.40317 0.95417 0.0
H850 H 1.01504 0.36973 0.91303 0.0
H851 H 0.9317 0.37862 0.87036 0.0
H852 H 0.89192 0.27328 0.75565 0.0
H853 H 0.90275 0.30514 0.79829 0.0
H854 H 1.01256 0.35448 0.8217 0.0
C855 C 1.00923 0.38944 0.91801 0.0
C856 C 0.94974 0.37386 0.85979 0.0
C857 C 1.02305 0.40827 0.94183 0.0
C858 C 0.91714 0.29396 0.75953 0.0
C859 C 0.92345 0.3122 0.78405 0.0
C860 C 0.99482 0.36014 0.8317 0.0
C861 C 0.98961 0.39704 0.90026 0.0
C862 C 0.98022 0.38117 0.87246 0.0
C863 C 0.9565 0.33728 0.79095 0.0
C864 C 0.96453 0.35299 0.81885 0.0
H865 H 0.99025 0.46082 0.93749 0.0
H866 H 0.96683 0.42872 0.89533 0.0
H867 H 1.02671 0.38013 0.86647 0.0
H868 H 0.99725 0.33192 0.73406 0.0
H869 H 1.0081 0.36511 0.77573 0.0
C870 C 0.76036 0.65491 0.75899 0.0
C871 C 0.79007 0.68604 0.75489 0.0
C872 C 0.74445 0.64624 0.7847 0.0
C873 C 0.74547 0.68383 0.85389 0.0
H874 H 0.68219 0.58942 0.87075 0.0
C875 C 0.65253 0.64813 0.94432 0.0
C876 C 0.63739 0.6156 0.95635 0.0
C877 C 0.67418 0.65638 0.92175 0.0
C878 C 0.70023 0.61593 0.86693 0.0
H879 H 0.82736 0.7321 0.77449 0.0
H880 H 0.80151 0.71608 0.81996 0.0
H881 H 0.71529 0.60382 0.82921 0.0
H882 H 0.63238 0.56586 0.95353 0.0
H883 H 0.67297 0.58098 0.91606 0.0
H884 H 0.73274 0.6957 0.89276 0.0
C885 C 0.789 0.69886 0.8032 0.0
C886 C 0.71884 0.6244 0.8424 0.0
C887 C 0.80418 0.70808 0.77713 0.0
C888 C 0.64474 0.59154 0.94542 0.0
C889 C 0.66744 0.60012 0.92335 0.0
C890 C 0.72783 0.67526 0.87888 0.0
C891 C 0.75856 0.6679 0.80743 0.0
C892 C 0.74107 0.6586 0.83498 0.0
C893 C 0.68213 0.63258 0.91075 0.0
C894 C 0.70402 0.64125 0.8855 0.0
H895 H 0.74886 0.63759 0.74206 0.0
H896 H 0.7207 0.62272 0.78636 0.0
H897 H 0.76189 0.71051 0.84934 0.0
H898 H 0.64689 0.66715 0.95187 0.0
H899 H 0.68364 0.68123 0.91249 0.0
C900 C 0.71477 0.75871 0.41275 0.0
C901 C 0.7266 0.79207 0.4033 0.0
C902 C 0.73024 0.75221 0.43479 0.0
C903 C 0.77382 0.74194 0.47571 0.0
H904 H 0.79796 0.80257 0.53785 0.0
C905 C 0.7845 0.70145 0.58605 0.0
C906 C 0.81134 0.72467 0.60239 0.0
C907 C 0.77873 0.71116 0.56024 0.0
C908 C 0.79179 0.78563 0.52055 0.0
H909 H 0.76386 0.84486 0.40961 0.0
H910 H 0.79182 0.83356 0.44765 0.0
H911 H 0.78047 0.81708 0.49501 0.0
H912 H 0.85318 0.77641 0.6043 0.0
H913 H 0.84279 0.79343 0.55926 0.0
H914 H 0.78395 0.7099 0.5017 0.0
C915 C 0.77036 0.81234 0.43812 0.0
C916 C 0.78186 0.79399 0.4959 0.0
C917 C 0.7547 0.81882 0.41606 0.0
C918 C 0.83237 0.75783 0.5922 0.0
C919 C 0.82633 0.76766 0.56647 0.0
C920 C 0.78347 0.73346 0.50041 0.0
C921 C 0.75795 0.77895 0.4481 0.0
C922 C 0.77213 0.77195 0.47329 0.0
C923 C 0.7994 0.74443 0.55021 0.0
C924 C 0.79202 0.75492 0.52326 0.0
H925 H 0.69287 0.73759 0.40354 0.0
H926 H 0.71949 0.72625 0.44209 0.0
H927 H 0.76724 0.72468 0.4586 0.0
H928 H 0.7678 0.67571 0.59322 0.0
H929 H 0.75753 0.69277 0.54838 0.0
C930 C 0.24717 0.96529 0.43312 0.0
C931 C 0.26877 0.95356 0.42418 0.0
C932 C 0.25216 0.9813 0.45859 0.0
C933 C 0.29133 0.9888 0.52605 0.0
H934 H 0.29669 0.07655 0.53027 0.0
C935 C 0.36057 0.08227 0.61303 0.0
C936 C 0.34943 0.1043 0.62202 0.0
C937 C 0.3447 0.06021 0.59124 0.0
C938 C 0.29457 0.05173 0.52967 0.0
H939 H 0.31249 0.94941 0.43515 0.0
H940 H 0.32082 0.97684 0.47945 0.0
H941 H 0.28016 0.04507 0.48728 0.0
H942 H 0.31309 0.12069 0.61528 0.0
H943 H 0.28442 0.08128 0.57761 0.0
H944 H 0.30597 0.99538 0.56823 0.0
C945 C 0.29998 0.97359 0.46684 0.0
C946 C 0.2852 0.03377 0.50498 0.0
C947 C 0.29532 0.95806 0.44132 0.0
C948 C 0.32161 0.10336 0.60917 0.0
C949 C 0.30557 0.08115 0.58734 0.0
C950 C 0.30038 1.00657 0.55077 0.0
C951 C 0.2785 0.98539 0.47577 0.0
C952 C 0.28437 1.00255 0.50272 0.0
C953 C 0.31733 0.05971 0.57778 0.0
C954 C 0.30304 0.03871 0.55271 0.0
H955 H 0.22657 0.96234 0.42039 0.0
H956 H 0.2352 0.99014 0.46497 0.0
H957 H 0.2903 0.96448 0.52504 0.0
H958 H 0.38226 0.08278 0.62236 0.0
H959 H 0.35493 0.04461 0.5842 0.0
C960 C 0.96853 0.25012 0.60806 0.0
C961 C 0.96581 0.27653 0.62036 0.0
C962 C 0.99122 0.25699 0.58624 0.0
C963 C 1.02236 0.27587 0.52863 0.0
H964 H 0.1069 0.3611 0.52391 0.0
C965 C 0.11153 0.31573 0.43306 0.0
C966 C 0.12291 0.34902 0.4234 0.0
C967 C 0.095 0.30491 0.45855 0.0
C968 C 0.08333 0.33721 0.52489 0.0
H969 H 0.98445 0.33071 0.61952 0.0
H970 H 1.02348 0.34272 0.58147 0.0
H971 H 0.07426 0.3454 0.56653 0.0
H972 H 0.12619 0.39711 0.43325 0.0
H973 H 0.09778 0.37837 0.47756 0.0
H974 H 1.03147 0.26797 0.48679 0.0
C975 C 1.00894 0.31679 0.58894 0.0
C976 C 0.06456 0.32821 0.54932 0.0
C977 C 0.98638 0.3099 0.61068 0.0
C978 C 0.11779 0.37131 0.43999 0.0
C979 C 0.10168 0.36064 0.46552 0.0
C980 C 0.04131 0.2848 0.50422 0.0
C981 C 1.0114 0.29041 0.57613 0.0
C982 C 1.03339 0.29782 0.55133 0.0
C983 C 0.08992 0.32729 0.47508 0.0
C984 C 0.07161 0.31596 0.50186 0.0
H985 H 0.95236 0.22405 0.61471 0.0
H986 H 0.99257 0.23606 0.57704 0.0
H987 H 0.99835 0.25246 0.52924 0.0
H988 H 0.11492 0.29786 0.42075 0.0
H989 H 0.08633 0.27909 0.46538 0.0
loop_
_geom_bond_atom_site_label_1
_geom_bond_atom_site_label_2
_geom_bond_distance
_geom_bond_site_symmetry_2
_ccdc_geom_bond_type
O0 Tb1 2.506 . S
O0 C14 1.265 . S
Tb1 O0 2.506 . S
Tb1 O6 2.312 . S
Tb1 O10 2.271 1_554 S
Tb1 O12 2.338 . S
Tb1 O19 2.420 1_554 S
C2 O10 1.252 . S
C2 O11 1.253 1_655 S
O3 Tb4 2.271 1_554 S
O3 C13 1.252 . S
Tb4 O3 2.271 1_556 S
Tb4 O7 2.338 . S
Tb4 O11 2.312 . S
Tb4 O15 2.441 1_556 S
Tb4 O16 2.506 . S
C5 O15 1.244 1_556 S
C5 O16 1.265 . S
O6 Tb1 2.312 . S
O6 C13 1.253 1_655 S
O7 Tb4 2.338 . S
O7 C8 1.258 1_556 S
C8 O7 1.258 1_554 S
C8 O9 1.251 . S
O9 C8 1.251 . S
O10 Tb1 2.271 1_556 S
O10 C2 1.252 . S
O11 C2 1.253 1_455 S
O11 Tb4 2.312 . S
O12 Tb1 2.338 . S
O12 C17 1.258 1_554 S
C13 O3 1.252 . S
C13 O6 1.253 1_455 S
C14 O0 1.265 . S
C14 O19 1.214 1_554 S
O15 Tb4 2.441 1_554 S
O15 C5 1.244 1_554 S
O16 Tb4 2.506 . S
O16 C5 1.265 . S
C17 O12 1.258 1_556 S
C17 O18 1.251 . S
O18 C17 1.251 . S
O19 Tb1 2.420 1_556 S
O19 C14 1.214 1_556 S
O20 Tb21 2.506 . S
O20 C34 1.265 . S
Tb21 O20 2.506 . S
Tb21 O26 2.312 . S
Tb21 O30 2.271 1_554 S
Tb21 O32 2.338 . S
Tb21 O39 2.420 1_554 S
C22 O30 1.252 . S
C22 O31 1.253 . S
O23 Tb24 2.271 1_554 S
O23 C33 1.252 . S
Tb24 O23 2.271 1_556 S
Tb24 O27 2.338 . S
Tb24 O31 2.312 . S
Tb24 O35 2.441 1_556 S
Tb24 O36 2.506 . S
C25 O35 1.244 1_556 S
C25 O36 1.265 . S
O26 Tb21 2.312 . S
O26 C33 1.253 . S
O27 Tb24 2.338 . S
O27 C28 1.258 1_556 S
C28 O27 1.258 1_554 S
C28 O29 1.251 . S
O29 C28 1.251 . S
O30 Tb21 2.271 1_556 S
O30 C22 1.252 . S
O31 C22 1.253 . S
O31 Tb24 2.312 . S
O32 Tb21 2.338 . S
O32 C37 1.258 1_554 S
C33 O23 1.252 . S
C33 O26 1.253 . S
C34 O20 1.265 . S
C34 O39 1.214 1_554 S
O35 Tb24 2.441 1_554 S
O35 C25 1.244 1_554 S
O36 Tb24 2.506 . S
O36 C25 1.265 . S
C37 O32 1.258 1_556 S
C37 O38 1.251 . S
O38 C37 1.251 . S
O39 Tb21 2.420 1_556 S
O39 C34 1.214 1_556 S
O40 Tb41 2.506 . S
O40 C54 1.265 . S
Tb41 O40 2.506 . S
Tb41 O46 2.312 . S
Tb41 O50 2.271 1_556 S
Tb41 O52 2.338 . S
Tb41 O59 2.441 1_556 S
C42 O50 1.252 . S
C42 O51 1.253 1_565 S
O43 Tb44 2.271 1_556 S
O43 C53 1.252 . S
Tb44 O43 2.271 1_554 S
Tb44 O47 2.338 . S
Tb44 O51 2.312 . S
Tb44 O55 2.420 1_554 S
Tb44 O56 2.506 . S
C45 O55 1.214 1_554 S
C45 O56 1.265 . S
O46 Tb41 2.312 . S
O46 C53 1.253 1_565 S
O47 Tb44 2.338 . S
O47 C48 1.258 1_554 S
C48 O47 1.258 1_556 S
C48 O49 1.251 . S
O49 C48 1.251 . S
O50 Tb41 2.271 1_554 S
O50 C42 1.252 . S
O51 C42 1.253 1_545 S
O51 Tb44 2.312 . S
O52 Tb41 2.338 . S
O52 C57 1.258 1_556 S
C53 O43 1.252 . S
C53 O46 1.253 1_545 S
C54 O40 1.265 . S
C54 O59 1.244 1_556 S
O55 Tb44 2.420 1_556 S
O55 C45 1.214 1_556 S
O56 Tb44 2.506 . S
O56 C45 1.265 . S
C57 O52 1.258 1_554 S
C57 O58 1.251 . S
O58 C57 1.251 . S
O59 Tb41 2.441 1_554 S
O59 C54 1.244 1_554 S
O60 Tb61 2.506 . S
O60 C74 1.265 . S
Tb61 O60 2.506 . S
Tb61 O66 2.312 . S
Tb61 O70 2.271 . S
Tb61 O72 2.338 . S
Tb61 O79 2.441 . S
C62 O70 1.252 . S
C62 O71 1.253 . S
O63 Tb64 2.271 . S
O63 C73 1.252 . S
Tb64 O63 2.271 . S
Tb64 O67 2.338 . S
Tb64 O71 2.312 . S
Tb64 O75 2.441 . S
Tb64 O76 2.506 . S
C65 O75 1.244 . S
C65 O76 1.265 . S
O66 Tb61 2.312 . S
O66 C73 1.253 . S
O67 Tb64 2.338 . S
O67 C68 1.258 . S
C68 O67 1.258 . S
C68 O69 1.251 . S
O69 C68 1.251 . S
O70 Tb61 2.271 . S
O70 C62 1.252 . S
O71 C62 1.253 . S
O71 Tb64 2.312 . S
O72 Tb61 2.338 . S
O72 C77 1.258 . S
C73 O63 1.252 . S
C73 O66 1.253 . S
C74 O60 1.265 . S
C74 O79 1.244 . S
O75 Tb64 2.441 . S
O75 C65 1.244 . S
O76 Tb64 2.506 . S
O76 C65 1.265 . S
C77 O72 1.258 . S
C77 O78 1.251 . S
O78 C77 1.251 . S
O79 Tb61 2.441 . S
O79 C74 1.244 . S
O80 Tb81 2.506 . S
O80 C94 1.265 . S
Tb81 O80 2.506 . S
Tb81 O86 2.312 . S
Tb81 O90 2.271 . S
Tb81 O92 2.338 . S
Tb81 O99 2.441 . S
C82 O90 1.252 . S
C82 O91 1.253 . S
O83 Tb84 2.271 . S
O83 C93 1.252 . S
Tb84 O83 2.271 . S
Tb84 O87 2.338 . S
Tb84 O91 2.312 . S
Tb84 O95 2.441 . S
Tb84 O96 2.506 . S
C85 O95 1.244 . S
C85 O96 1.265 . S
O86 Tb81 2.312 . S
O86 C93 1.253 . S
O87 Tb84 2.338 . S
O87 C88 1.258 . S
C88 O87 1.258 . S
C88 O89 1.251 . S
O89 C88 1.251 . S
O90 Tb81 2.271 . S
O90 C82 1.252 . S
O91 C82 1.253 . S
O91 Tb84 2.312 . S
O92 Tb81 2.338 . S
O92 C97 1.258 . S
C93 O83 1.252 . S
C93 O86 1.253 . S
C94 O80 1.265 . S
C94 O99 1.244 . S
O95 Tb84 2.441 . S
O95 C85 1.244 . S
O96 Tb84 2.506 . S
O96 C85 1.265 . S
C97 O92 1.258 . S
C97 O98 1.251 . S
O98 C97 1.251 . S
O99 Tb81 2.441 . S
O99 C94 1.244 . S
O100 Tb101 2.506 . S
O100 C114 1.265 . S
Tb101 O100 2.506 . S
Tb101 O106 2.312 . S
Tb101 O110 2.271 . S
Tb101 O112 2.338 . S
Tb101 O119 2.441 . S
C102 O110 1.252 . S
C102 O111 1.253 . S
O103 Tb104 2.271 . S
O103 C113 1.252 . S
Tb104 O103 2.271 . S
Tb104 O107 2.338 . S
Tb104 O111 2.312 . S
Tb104 O115 2.441 . S
Tb104 O116 2.506 . S
C105 O115 1.244 . S
C105 O116 1.265 . S
O106 Tb101 2.312 . S
O106 C113 1.253 . S
O107 Tb104 2.338 . S
O107 C108 1.258 . S
C108 O107 1.258 . S
C108 O109 1.251 . S
O109 C108 1.251 . S
O110 Tb101 2.271 . S
O110 C102 1.252 . S
O111 C102 1.253 . S
O111 Tb104 2.312 . S
O112 Tb101 2.338 . S
O112 C117 1.258 . S
C113 O103 1.252 . S
C113 O106 1.253 . S
C114 O100 1.265 . S
C114 O119 1.244 . S
O115 Tb104 2.441 . S
O115 C105 1.244 . S
O116 Tb104 2.506 . S
O116 C105 1.265 . S
C117 O112 1.258 . S
C117 O118 1.251 . S
O118 C117 1.251 . S
O119 Tb101 2.441 . S
O119 C114 1.244 . S
O120 Tb121 2.506 . S
O120 C134 1.265 . S
Tb121 O120 2.506 . S
Tb121 O126 2.312 . S
Tb121 O130 2.271 . S
Tb121 O132 2.338 . S
Tb121 O139 2.441 . S
C122 O130 1.252 . S
C122 O131 1.253 . S
O123 Tb124 2.271 . S
O123 C133 1.252 . S
Tb124 O123 2.271 . S
Tb124 O127 2.338 . S
Tb124 O131 2.312 . S
Tb124 O135 2.441 . S
Tb124 O136 2.506 . S
C125 O135 1.244 . S
C125 O136 1.265 . S
O126 Tb121 2.312 . S
O126 C133 1.253 . S
O127 Tb124 2.338 . S
O127 C128 1.258 . S
C128 O127 1.258 . S
C128 O129 1.251 . S
O129 C128 1.251 . S
O130 Tb121 2.271 . S
O130 C122 1.252 . S
O131 C122 1.253 . S
O131 Tb124 2.312 . S
O132 Tb121 2.338 . S
O132 C137 1.258 . S
C133 O123 1.252 . S
C133 O126 1.253 . S
C134 O120 1.265 . S
C134 O139 1.244 . S
O135 Tb124 2.441 . S
O135 C125 1.244 . S
O136 Tb124 2.506 . S
O136 C125 1.265 . S
C137 O132 1.258 . S
C137 O138 1.251 . S
O138 C137 1.251 . S
O139 Tb121 2.441 . S
O139 C134 1.244 . S
O140 Tb141 2.506 . S
O140 C154 1.265 . S
Tb141 O140 2.506 . S
Tb141 O146 2.312 . S
Tb141 O150 2.271 . S
Tb141 O152 2.338 . S
Tb141 O159 2.441 . S
C142 O150 1.252 . S
C142 O151 1.253 . S
O143 Tb144 2.271 . S
O143 C153 1.252 . S
Tb144 O143 2.271 . S
Tb144 O147 2.338 . S
Tb144 O151 2.312 . S
Tb144 O155 2.441 . S
Tb144 O156 2.506 . S
C145 O155 1.244 . S
C145 O156 1.265 . S
O146 Tb141 2.312 . S
O146 C153 1.253 . S
O147 Tb144 2.338 . S
O147 C148 1.258 . S
C148 O147 1.258 . S
C148 O149 1.251 . S
O149 C148 1.251 . S
O150 Tb141 2.271 . S
O150 C142 1.252 . S
O151 C142 1.253 . S
O151 Tb144 2.312 . S
O152 Tb141 2.338 . S
O152 C157 1.258 . S
C153 O143 1.252 . S
C153 O146 1.253 . S
C154 O140 1.265 . S
C154 O159 1.244 . S
O155 Tb144 2.441 . S
O155 C145 1.244 . S
O156 Tb144 2.506 . S
O156 C145 1.265 . S
C157 O152 1.258 . S
C157 O158 1.251 . S
O158 C157 1.251 . S
O159 Tb141 2.441 . S
O159 C154 1.244 . S
O160 Tb161 2.506 . S
O160 C174 1.265 . S
Tb161 O160 2.506 . S
Tb161 O166 2.312 . S
Tb161 O170 2.271 . S
Tb161 O172 2.338 . S
Tb161 O179 2.441 . S
C162 O170 1.252 . S
C162 O171 1.253 . S
O163 Tb164 2.271 . S
O163 C173 1.252 . S
Tb164 O163 2.271 . S
Tb164 O167 2.338 . S
Tb164 O171 2.312 . S
Tb164 O175 2.441 . S
Tb164 O176 2.506 . S
C165 O175 1.244 . S
C165 O176 1.265 . S
O166 Tb161 2.312 . S
O166 C173 1.253 . S
O167 Tb164 2.338 . S
O167 C168 1.258 . S
C168 O167 1.258 . S
C168 O169 1.251 . S
O169 C168 1.251 . S
O170 Tb161 2.271 . S
O170 C162 1.252 . S
O171 C162 1.253 . S
O171 Tb164 2.312 . S
O172 Tb161 2.338 . S
O172 C177 1.258 . S
C173 O163 1.252 . S
C173 O166 1.253 . S
C174 O160 1.265 . S
C174 O179 1.244 . S
O175 Tb164 2.441 . S
O175 C165 1.244 . S
O176 Tb164 2.506 . S
O176 C165 1.265 . S
C177 O172 1.258 . S
C177 O178 1.251 . S
O178 C177 1.251 . S
O179 Tb161 2.441 . S
O179 C174 1.244 . S
C180 C181 1.329 1_556 S
C180 C182 1.331 . S
C180 H205 0.967 . S
C181 C180 1.329 1_554 S
C181 C197 1.349 . S
C182 C180 1.331 . S
C182 C201 1.429 1_556 S
C182 H206 0.950 . S
C183 C200 1.574 . S
C183 C202 1.368 . S
C183 H207 0.949 . S
H184 C188 0.949 . S
C185 C186 1.349 1_554 S
C185 C187 1.327 . S
C185 H208 0.950 . S
C186 C185 1.349 1_556 S
C186 C198 1.349 . S
C187 C185 1.327 . S
C187 C203 1.436 . S
C187 H209 0.950 . S
C188 H184 0.949 . S
C188 C196 1.574 . S
C188 C204 1.368 1_556 S
H189 C197 0.950 . S
H190 C195 0.950 . S
H191 C196 0.949 . S
H192 C198 0.950 . S
H193 C199 0.950 . S
H194 C200 0.949 . S
C195 H190 0.950 . S
C195 C197 1.327 . S
C195 C201 1.429 . S
C196 C188 1.574 . S
C196 H191 0.949 . S
C196 C202 1.368 1_556 S
C197 C181 1.349 . S
C197 H189 0.950 . S
C197 C195 1.327 . S
C198 C186 1.349 . S
C198 H192 0.950 . S
C198 C199 1.327 . S
C199 H193 0.950 . S
C199 C198 1.327 . S
C199 C203 1.420 1_556 S
C200 C183 1.574 . S
C200 H194 0.949 . S
C200 C204 1.368 . S
C201 C182 1.429 1_554 S
C201 C195 1.429 . S
C201 C202 1.523 . S
C202 C183 1.368 . S
C202 C196 1.368 1_554 S
C202 C201 1.523 . S
C203 C187 1.436 . S
C203 C199 1.420 1_554 S
C203 C204 1.524 . S
C204 C188 1.368 1_554 S
C204 C200 1.368 . S
C204 C203 1.524 . S
H205 C180 0.967 . S
H206 C182 0.950 . S
H207 C183 0.949 . S
H208 C185 0.950 . S
H209 C187 0.950 . S
C210 C211 1.349 . S
C210 C212 1.327 1_554 S
C210 H235 0.950 1_554 S
C211 C210 1.349 . S
C211 C227 1.349 . S
C212 C210 1.327 1_556 S
C212 C231 1.429 1_556 S
C212 H236 0.950 . S
C213 C230 1.574 . S
C213 C232 1.368 . S
C213 H237 0.949 . S
H214 C218 0.949 . S
C215 C216 1.349 1_554 S
C215 C217 1.327 . S
C215 H238 0.950 . S
C216 C215 1.349 1_556 S
C216 C228 1.349 . S
C217 C215 1.327 . S
C217 C233 1.435 . S
C217 H239 0.950 . S
C218 H214 0.949 . S
C218 C226 1.574 . S
C218 C234 1.368 1_556 S
H219 C227 0.950 . S
H220 C225 0.950 . S
H221 C226 0.949 . S
H222 C228 0.950 . S
H223 C229 0.950 . S
H224 C230 0.949 . S
C225 H220 0.950 . S
C225 C227 1.327 . S
C225 C231 1.429 . S
C226 C218 1.574 . S
C226 H221 0.949 . S
C226 C232 1.368 1_556 S
C227 C211 1.349 . S
C227 H219 0.950 . S
C227 C225 1.327 . S
C228 C216 1.349 . S
C228 H222 0.950 . S
C228 C229 1.327 . S
C229 H223 0.950 . S
C229 C228 1.327 . S
C229 C233 1.421 1_556 S
C230 C213 1.574 . S
C230 H224 0.949 . S
C230 C234 1.368 . S
C231 C212 1.429 1_554 S
C231 C225 1.429 . S
C231 C232 1.523 . S
C232 C213 1.368 . S
C232 C226 1.368 1_554 S
C232 C231 1.523 . S
C233 C217 1.435 . S
C233 C229 1.421 1_554 S
C233 C234 1.524 . S
C234 C218 1.368 1_554 S
C234 C230 1.368 . S
C234 C233 1.524 . S
H235 C210 0.950 1_556 S
H236 C212 0.950 . S
H237 C213 0.949 . S
H238 C215 0.950 . S
H239 C217 0.950 . S
C240 C241 1.349 . S
C240 C242 1.327 . S
C240 H265 0.950 . S
C241 C240 1.349 . S
C241 C257 1.349 1_556 S
C242 C240 1.327 . S
C242 C261 1.421 1_556 S
C242 H266 0.950 . S
C243 C260 1.574 . S
C243 C262 1.368 . S
C243 H267 0.949 . S
H244 C248 0.949 . S
C245 C246 1.349 . S
C245 C247 1.327 . S
C245 H268 0.950 . S
C246 C245 1.349 . S
C246 C258 1.349 . S
C247 C245 1.327 . S
C247 C263 1.429 . S
C247 H269 0.950 . S
C248 H244 0.949 . S
C248 C256 1.574 . S
C248 C264 1.368 1_556 S
H249 C257 0.950 . S
H250 C255 0.950 . S
H251 C256 0.949 . S
H252 C258 0.950 1_556 S
H253 C259 0.975 . S
H254 C260 0.949 . S
C255 H250 0.950 . S
C255 C257 1.327 . S
C255 C261 1.434 . S
C256 C248 1.574 . S
C256 H251 0.949 . S
C256 C262 1.368 1_556 S
C257 C241 1.349 1_554 S
C257 H249 0.950 . S
C257 C255 1.327 . S
C258 C246 1.349 . S
C258 H252 0.950 1_554 S
C258 C259 1.322 1_554 S
C259 H253 0.975 . S
C259 C258 1.322 1_556 S
C259 C263 1.409 1_556 S
C260 C243 1.574 . S
C260 H254 0.949 . S
C260 C264 1.368 . S
C261 C242 1.421 1_554 S
C261 C255 1.434 . S
C261 C262 1.524 . S
C262 C243 1.368 . S
C262 C256 1.368 1_554 S
C262 C261 1.524 . S
C263 C247 1.429 . S
C263 C259 1.409 1_554 S
C263 C264 1.523 . S
C264 C248 1.368 1_554 S
C264 C260 1.368 . S
C264 C263 1.523 . S
H265 C240 0.950 . S
H266 C242 0.950 . S
H267 C243 0.949 . S
H268 C245 0.950 . S
H269 C247 0.950 . S
C270 C271 1.349 . S
C270 C272 1.327 . S
C270 H295 0.950 . S
C271 C270 1.349 . S
C271 C287 1.349 1_554 S
C272 C270 1.327 . S
C272 C291 1.429 . S
C272 H296 0.950 . S
C273 C290 1.574 . S
C273 C292 1.376 . S
C273 H297 0.949 . S
H274 C278 0.949 . S
C275 C276 1.349 . S
C275 C277 1.327 . S
C275 H298 0.950 . S
C276 C275 1.349 . S
C276 C288 1.349 1_556 S
C277 C275 1.327 . S
C277 C293 1.429 . S
C277 H299 0.950 . S
C278 H274 0.949 . S
C278 C286 1.574 . S
C278 C294 1.368 1_554 S
H279 C287 0.950 . S
H280 C285 0.950 . S
H281 C286 0.949 . S
H282 C288 0.950 . S
H283 C289 0.950 . S
H284 C290 0.949 . S
C285 H280 0.950 . S
C285 C287 1.327 . S
C285 C291 1.429 1_556 S
C286 C278 1.574 . S
C286 H281 0.949 . S
C286 C292 1.362 1_554 S
C287 C271 1.349 1_556 S
C287 H279 0.950 . S
C287 C285 1.327 . S
C288 C276 1.349 1_554 S
C288 H282 0.950 . S
C288 C289 1.327 . S
C289 H283 0.950 . S
C289 C288 1.327 . S
C289 C293 1.429 1_554 S
C290 C273 1.574 . S
C290 H284 0.949 . S
C290 C294 1.368 . S
C291 C272 1.429 . S
C291 C285 1.429 1_554 S
C291 C292 1.522 1_554 S
C292 C273 1.376 . S
C292 C286 1.362 1_556 S
C292 C291 1.522 1_556 S
C293 C277 1.429 . S
C293 C289 1.429 1_556 S
C293 C294 1.523 . S
C294 C278 1.368 1_556 S
C294 C290 1.368 . S
C294 C293 1.523 . S
H295 C270 0.950 . S
H296 C272 0.950 . S
H297 C273 0.949 . S
H298 C275 0.950 . S
H299 C277 0.950 . S
C300 C301 1.349 1_554 S
C300 C302 1.327 . S
C300 H325 0.950 . S
C301 C300 1.349 1_556 S
C301 C317 1.349 . S
C302 C300 1.327 . S
C302 C321 1.429 1_554 S
C302 H326 0.950 . S
C303 C320 1.574 . S
C303 C322 1.368 . S
C303 H327 0.949 . S
H304 C308 0.949 . S
C305 C306 1.349 1_556 S
C305 C307 1.327 . S
C305 H328 0.950 . S
C306 C305 1.349 1_554 S
C306 C318 1.349 . S
C307 C305 1.327 . S
C307 C323 1.429 1_556 S
C307 H329 0.950 . S
C308 H304 0.949 . S
C308 C316 1.574 . S
C308 C324 1.361 1_554 S
H309 C317 0.950 . S
H310 C315 0.950 . S
H311 C316 0.949 . S
H312 C318 0.950 . S
H313 C319 0.950 . S
H314 C320 0.949 . S
C315 H310 0.950 . S
C315 C317 1.327 . S
C315 C321 1.429 . S
C316 C308 1.574 . S
C316 H311 0.949 . S
C316 C322 1.368 1_554 S
C317 C301 1.349 . S
C317 H309 0.950 . S
C317 C315 1.327 . S
C318 C306 1.349 . S
C318 H312 0.950 . S
C318 C319 1.327 . S
C319 H313 0.950 . S
C319 C318 1.327 . S
C319 C323 1.429 . S
C320 C303 1.574 . S
C320 H314 0.949 . S
C320 C324 1.376 . S
C321 C302 1.429 1_556 S
C321 C315 1.429 . S
C321 C322 1.523 . S
C322 C303 1.368 . S
C322 C316 1.368 1_556 S
C322 C321 1.523 . S
C323 C307 1.429 1_554 S
C323 C319 1.429 . S
C323 C324 1.522 1_554 S
C324 C308 1.361 1_556 S
C324 C320 1.376 . S
C324 C323 1.522 1_556 S
H325 C300 0.950 . S
H326 C302 0.950 . S
H327 C303 0.949 . S
H328 C305 0.950 . S
H329 C307 0.950 . S
C330 C331 1.349 . S
C330 C332 1.327 . S
C330 H355 0.950 . S
C331 C330 1.349 . S
C331 C347 1.349 . S
C332 C330 1.327 . S
C332 C351 1.429 . S
C332 H356 0.950 . S
C333 C350 1.574 . S
C333 C352 1.368 1_554 S
C333 H357 0.949 . S
H334 C338 0.949 . S
C335 C336 1.349 . S
C335 C337 1.327 . S
C335 H358 0.950 . S
C336 C335 1.349 . S
C336 C348 1.349 1_554 S
C337 C335 1.327 . S
C337 C353 1.429 . S
C337 H359 0.950 . S
C338 H334 0.949 . S
C338 C346 1.574 . S
C338 C354 1.374 . S
H339 C347 0.950 1_554 S
H340 C345 0.950 . S
H341 C346 0.949 . S
H342 C348 0.950 . S
H343 C349 0.950 . S
H344 C350 0.949 . S
C345 H340 0.950 . S
C345 C347 1.327 1_554 S
C345 C351 1.429 1_554 S
C346 C338 1.574 . S
C346 H341 0.949 . S
C346 C352 1.368 . S
C347 C331 1.349 . S
C347 H339 0.950 1_556 S
C347 C345 1.327 1_556 S
C348 C336 1.349 1_556 S
C348 H342 0.950 . S
C348 C349 1.327 . S
C349 H343 0.950 . S
C349 C348 1.327 . S
C349 C353 1.429 1_556 S
C350 C333 1.574 . S
C350 H344 0.949 . S
C350 C354 1.364 1_554 S
C351 C332 1.429 . S
C351 C345 1.429 1_556 S
C351 C352 1.523 . S
C352 C333 1.368 1_556 S
C352 C346 1.368 . S
C352 C351 1.523 . S
C353 C337 1.429 . S
C353 C349 1.429 1_554 S
C353 C354 1.522 1_554 S
C354 C338 1.374 . S
C354 C350 1.364 1_556 S
C354 C353 1.522 1_556 S
H355 C330 0.950 . S
H356 C332 0.950 . S
H357 C333 0.949 . S
H358 C335 0.950 . S
H359 C337 0.950 . S
C360 C361 1.349 . S
C360 C362 1.327 . S
C360 H385 0.950 . S
C361 C360 1.349 . S
C361 C377 1.349 . S
C362 C360 1.327 . S
C362 C381 1.429 . S
C362 H386 0.950 . S
C363 C380 1.574 . S
C363 C382 1.368 . S
C363 H387 0.949 . S
H364 C368 0.949 1_455 S
C365 C366 1.349 . S
C365 C367 1.327 . S
C365 H388 0.950 . S
C366 C365 1.349 . S
C366 C378 1.349 . S
C367 C365 1.327 . S
C367 C383 1.429 . S
C367 H389 0.950 . S
C368 H364 0.949 1_655 S
C368 C376 1.574 . S
C368 C384 1.368 . S
H369 C377 0.950 . S
H370 C375 0.950 . S
H371 C376 0.949 . S
H372 C378 0.950 . S
H373 C379 0.950 . S
H374 C380 0.949 . S
C375 H370 0.950 . S
C375 C377 1.327 . S
C375 C381 1.429 . S
C376 C368 1.574 . S
C376 H371 0.949 . S
C376 C382 1.368 . S
C377 C361 1.349 . S
C377 H369 0.950 . S
C377 C375 1.327 . S
C378 C366 1.349 . S
C378 H372 0.950 . S
C378 C379 1.327 . S
C379 H373 0.950 . S
C379 C378 1.327 . S
C379 C383 1.429 . S
C380 C363 1.574 . S
C380 H374 0.949 . S
C380 C384 1.368 . S
C381 C362 1.429 . S
C381 C375 1.429 . S
C381 C382 1.523 . S
C382 C363 1.368 . S
C382 C376 1.368 . S
C382 C381 1.523 . S
C383 C367 1.429 . S
C383 C379 1.429 . S
C383 C384 1.523 1_455 S
C384 C368 1.368 . S
C384 C380 1.368 . S
C384 C383 1.523 1_655 S
H385 C360 0.950 . S
H386 C362 0.950 . S
H387 C363 0.949 . S
H388 C365 0.950 . S
H389 C367 0.950 . S
C390 C391 1.349 . S
C390 C392 1.327 . S
C390 H415 0.950 . S
C391 C390 1.349 . S
C391 C407 1.349 . S
C392 C390 1.327 . S
C392 C411 1.429 . S
C392 H416 0.950 . S
C393 C410 1.574 . S
C393 C412 1.368 . S
C393 H417 0.949 . S
H394 C398 0.949 . S
C395 C396 1.349 1_545 S
C395 C397 1.327 . S
C395 H418 0.950 . S
C396 C395 1.349 1_565 S
C396 C408 1.349 . S
C397 C395 1.327 . S
C397 C413 1.429 . S
C397 H419 0.950 . S
C398 H394 0.949 . S
C398 C406 1.574 . S
C398 C414 1.368 . S
H399 C407 0.950 . S
H400 C405 0.950 . S
H401 C406 0.949 . S
H402 C408 0.950 . S
H403 C409 0.950 . S
H404 C410 0.949 . S
C405 H400 0.950 . S
C405 C407 1.327 . S
C405 C411 1.429 . S
C406 C398 1.574 . S
C406 H401 0.949 . S
C406 C412 1.368 . S
C407 C391 1.349 . S
C407 H399 0.950 . S
C407 C405 1.327 . S
C408 C396 1.349 . S
C408 H402 0.950 . S
C408 C409 1.327 1_565 S
C409 H403 0.950 . S
C409 C408 1.327 1_545 S
C409 C413 1.429 . S
C410 C393 1.574 . S
C410 H404 0.949 . S
C410 C414 1.368 . S
C411 C392 1.429 . S
C411 C405 1.429 . S
C411 C412 1.523 . S
C412 C393 1.368 . S
C412 C406 1.368 . S
C412 C411 1.523 . S
C413 C397 1.429 . S
C413 C409 1.429 . S
C413 C414 1.523 . S
C414 C398 1.368 . S
C414 C410 1.368 . S
C414 C413 1.523 . S
H415 C390 0.950 . S
H416 C392 0.950 . S
H417 C393 0.949 . S
H418 C395 0.950 . S
H419 C397 0.950 . S
C420 C421 1.349 . S
C420 C422 1.327 1_455 S
C420 H445 0.950 . S
C421 C420 1.349 . S
C421 C437 1.349 1_455 S
C422 C420 1.327 1_655 S
C422 C441 1.429 . S
C422 H446 0.950 . S
C423 C440 1.574 . S
C423 C442 1.368 . S
C423 H447 0.949 . S
H424 C428 0.949 . S
C425 C426 1.349 . S
C425 C427 1.327 . S
C425 H448 0.950 . S
C426 C425 1.349 . S
C426 C438 1.349 . S
C427 C425 1.327 . S
C427 C443 1.429 . S
C427 H449 0.950 1_565 S
C428 H424 0.949 . S
C428 C436 1.574 . S
C428 C444 1.368 . S
H429 C437 0.950 1_455 S
H430 C435 0.950 . S
H431 C436 0.949 . S
H432 C438 0.950 . S
H433 C439 0.950 . S
H434 C440 0.949 . S
C435 H430 0.950 . S
C435 C437 1.327 . S
C435 C441 1.429 . S
C436 C428 1.574 . S
C436 H431 0.949 . S
C436 C442 1.368 . S
C437 C421 1.349 1_655 S
C437 H429 0.950 1_655 S
C437 C435 1.327 . S
C438 C426 1.349 . S
C438 H432 0.950 . S
C438 C439 1.327 . S
C439 H433 0.950 . S
C439 C438 1.327 . S
C439 C443 1.429 . S
C440 C423 1.574 . S
C440 H434 0.949 . S
C440 C444 1.368 . S
C441 C422 1.429 . S
C441 C435 1.429 . S
C441 C442 1.523 . S
C442 C423 1.368 . S
C442 C436 1.368 . S
C442 C441 1.523 . S
C443 C427 1.429 . S
C443 C439 1.429 . S
C443 C444 1.523 1_565 S
C444 C428 1.368 . S
C444 C440 1.368 . S
C444 C443 1.523 1_545 S
H445 C420 0.950 . S
H446 C422 0.950 . S
H447 C423 0.949 . S
H448 C425 0.950 . S
H449 C427 0.950 1_545 S
C450 C451 1.349 . S
C450 C452 1.327 . S
C450 H475 0.950 . S
C451 C450 1.349 . S
C451 C467 1.349 . S
C452 C450 1.327 . S
C452 C471 1.429 . S
C452 H476 0.950 . S
C453 C470 1.574 . S
C453 C472 1.368 . S
C453 H477 0.949 . S
H454 C458 0.949 . S
C455 C456 1.349 . S
C455 C457 1.327 . S
C455 H478 0.950 . S
C456 C455 1.349 . S
C456 C468 1.349 . S
C457 C455 1.327 . S
C457 C473 1.429 . S
C457 H479 0.950 . S
C458 H454 0.949 . S
C458 C466 1.574 . S
C458 C474 1.368 . S
H459 C467 0.950 . S
H460 C465 0.950 . S
H461 C466 0.949 . S
H462 C468 0.950 . S
H463 C469 0.950 . S
H464 C470 0.949 . S
C465 H460 0.950 . S
C465 C467 1.327 . S
C465 C471 1.429 . S
C466 C458 1.574 . S
C466 H461 0.949 . S
C466 C472 1.368 . S
C467 C451 1.349 . S
C467 H459 0.950 . S
C467 C465 1.327 . S
C468 C456 1.349 . S
C468 H462 0.950 . S
C468 C469 1.327 . S
C469 H463 0.950 . S
C469 C468 1.327 . S
C469 C473 1.429 . S
C470 C453 1.574 . S
C470 H464 0.949 . S
C470 C474 1.368 . S
C471 C452 1.429 . S
C471 C465 1.429 . S
C471 C472 1.523 . S
C472 C453 1.368 . S
C472 C466 1.368 . S
C472 C471 1.523 . S
C473 C457 1.429 . S
C473 C469 1.429 . S
C473 C474 1.523 . S
C474 C458 1.368 . S
C474 C470 1.368 . S
C474 C473 1.523 . S
H475 C450 0.950 . S
H476 C452 0.950 . S
H477 C453 0.949 . S
H478 C455 0.950 . S
H479 C457 0.950 . S
C480 C481 1.349 . S
C480 C482 1.327 . S
C480 H505 0.950 . S
C481 C480 1.349 . S
C481 C497 1.349 . S
C482 C480 1.327 . S
C482 C501 1.429 . S
C482 H506 0.950 . S
C483 C500 1.574 . S
C483 C502 1.368 . S
C483 H507 0.949 . S
H484 C488 0.949 . S
C485 C486 1.349 . S
C485 C487 1.327 . S
C485 H508 0.950 . S
C486 C485 1.349 . S
C486 C498 1.349 . S
C487 C485 1.327 . S
C487 C503 1.429 . S
C487 H509 0.950 . S
C488 H484 0.949 . S
C488 C496 1.574 . S
C488 C504 1.368 . S
H489 C497 0.950 . S
H490 C495 0.950 . S
H491 C496 0.949 . S
H492 C498 0.950 . S
H493 C499 0.950 . S
H494 C500 0.949 . S
C495 H490 0.950 . S
C495 C497 1.327 . S
C495 C501 1.429 . S
C496 C488 1.574 . S
C496 H491 0.949 . S
C496 C502 1.368 . S
C497 C481 1.349 . S
C497 H489 0.950 . S
C497 C495 1.327 . S
C498 C486 1.349 . S
C498 H492 0.950 . S
C498 C499 1.327 . S
C499 H493 0.950 . S
C499 C498 1.327 . S
C499 C503 1.429 . S
C500 C483 1.574 . S
C500 H494 0.949 . S
C500 C504 1.368 . S
C501 C482 1.429 . S
C501 C495 1.429 . S
C501 C502 1.523 . S
C502 C483 1.368 . S
C502 C496 1.368 . S
C502 C501 1.523 . S
C503 C487 1.429 . S
C503 C499 1.429 . S
C503 C504 1.523 . S
C504 C488 1.368 . S
C504 C500 1.368 . S
C504 C503 1.523 . S
H505 C480 0.950 . S
H506 C482 0.950 . S
H507 C483 0.949 . S
H508 C485 0.950 . S
H509 C487 0.950 . S
C510 C511 1.349 . S
C510 C512 1.327 . S
C510 H535 0.950 . S
C511 C510 1.349 . S
C511 C527 1.349 . S
C512 C510 1.327 . S
C512 C531 1.429 . S
C512 H536 0.950 . S
C513 C530 1.574 . S
C513 C532 1.368 . S
C513 H537 0.949 . S
H514 C518 0.949 . S
C515 C516 1.349 . S
C515 C517 1.327 . S
C515 H538 0.950 . S
C516 C515 1.349 . S
C516 C528 1.349 . S
C517 C515 1.327 . S
C517 C533 1.429 . S
C517 H539 0.950 . S
C518 H514 0.949 . S
C518 C526 1.574 . S
C518 C534 1.368 . S
H519 C527 0.950 . S
H520 C525 0.950 . S
H521 C526 0.949 . S
H522 C528 0.950 . S
H523 C529 0.950 . S
H524 C530 0.949 . S
C525 H520 0.950 . S
C525 C527 1.327 . S
C525 C531 1.429 . S
C526 C518 1.574 . S
C526 H521 0.949 . S
C526 C532 1.368 . S
C527 C511 1.349 . S
C527 H519 0.950 . S
C527 C525 1.327 . S
C528 C516 1.349 . S
C528 H522 0.950 . S
C528 C529 1.327 . S
C529 H523 0.950 . S
C529 C528 1.327 . S
C529 C533 1.429 . S
C530 C513 1.574 . S
C530 H524 0.949 . S
C530 C534 1.368 . S
C531 C512 1.429 . S
C531 C525 1.429 . S
C531 C532 1.523 . S
C532 C513 1.368 . S
C532 C526 1.368 . S
C532 C531 1.523 . S
C533 C517 1.429 . S
C533 C529 1.429 . S
C533 C534 1.523 . S
C534 C518 1.368 . S
C534 C530 1.368 . S
C534 C533 1.523 . S
H535 C510 0.950 . S
H536 C512 0.950 . S
H537 C513 0.949 . S
H538 C515 0.950 . S
H539 C517 0.950 . S
C540 C541 1.349 . S
C540 C542 1.327 . S
C540 H565 0.950 . S
C541 C540 1.349 . S
C541 C557 1.349 . S
C542 C540 1.327 . S
C542 C561 1.429 . S
C542 H566 0.950 . S
C543 C560 1.574 . S
C543 C562 1.368 . S
C543 H567 0.949 . S
H544 C548 0.949 . S
C545 C546 1.349 . S
C545 C547 1.327 . S
C545 H568 0.950 . S
C546 C545 1.349 . S
C546 C558 1.349 . S
C547 C545 1.327 . S
C547 C563 1.429 . S
C547 H569 0.950 . S
C548 H544 0.949 . S
C548 C556 1.574 . S
C548 C564 1.368 . S
H549 C557 0.950 . S
H550 C555 0.950 . S
H551 C556 0.949 . S
H552 C558 0.950 . S
H553 C559 0.950 . S
H554 C560 0.949 . S
C555 H550 0.950 . S
C555 C557 1.327 . S
C555 C561 1.429 . S
C556 C548 1.574 . S
C556 H551 0.949 . S
C556 C562 1.368 . S
C557 C541 1.349 . S
C557 H549 0.950 . S
C557 C555 1.327 . S
C558 C546 1.349 . S
C558 H552 0.950 . S
C558 C559 1.327 . S
C559 H553 0.950 . S
C559 C558 1.327 . S
C559 C563 1.429 . S
C560 C543 1.574 . S
C560 H554 0.949 . S
C560 C564 1.368 . S
C561 C542 1.429 . S
C561 C555 1.429 . S
C561 C562 1.523 . S
C562 C543 1.368 . S
C562 C556 1.368 . S
C562 C561 1.523 . S
C563 C547 1.429 . S
C563 C559 1.429 . S
C563 C564 1.523 . S
C564 C548 1.368 . S
C564 C560 1.368 . S
C564 C563 1.523 . S
H565 C540 0.950 . S
H566 C542 0.950 . S
H567 C543 0.949 . S
H568 C545 0.950 . S
H569 C547 0.950 . S
C570 C571 1.349 . S
C570 C572 1.327 . S
C570 H595 0.950 . S
C571 C570 1.349 . S
C571 C587 1.349 . S
C572 C570 1.327 . S
C572 C591 1.429 . S
C572 H596 0.950 . S
C573 C590 1.574 . S
C573 C592 1.368 . S
C573 H597 0.949 . S
H574 C578 0.949 . S
C575 C576 1.349 . S
C575 C577 1.327 . S
C575 H598 0.950 . S
C576 C575 1.349 . S
C576 C588 1.349 . S
C577 C575 1.327 . S
C577 C593 1.429 . S
C577 H599 0.950 . S
C578 H574 0.949 . S
C578 C586 1.574 . S
C578 C594 1.368 . S
H579 C587 0.950 . S
H580 C585 0.950 . S
H581 C586 0.949 . S
H582 C588 0.950 . S
H583 C589 0.950 . S
H584 C590 0.949 . S
C585 H580 0.950 . S
C585 C587 1.327 . S
C585 C591 1.429 . S
C586 C578 1.574 . S
C586 H581 0.949 . S
C586 C592 1.368 . S
C587 C571 1.349 . S
C587 H579 0.950 . S
C587 C585 1.327 . S
C588 C576 1.349 . S
C588 H582 0.950 . S
C588 C589 1.327 . S
C589 H583 0.950 . S
C589 C588 1.327 . S
C589 C593 1.429 . S
C590 C573 1.574 . S
C590 H584 0.949 . S
C590 C594 1.368 . S
C591 C572 1.429 . S
C591 C585 1.429 . S
C591 C592 1.523 . S
C592 C573 1.368 . S
C592 C586 1.368 . S
C592 C591 1.523 . S
C593 C577 1.429 . S
C593 C589 1.429 . S
C593 C594 1.523 . S
C594 C578 1.368 . S
C594 C590 1.368 . S
C594 C593 1.523 . S
H595 C570 0.950 . S
H596 C572 0.950 . S
H597 C573 0.949 . S
H598 C575 0.950 . S
H599 C577 0.950 . S
C600 C601 1.349 . S
C600 C602 1.327 . S
C600 H625 0.950 . S
C601 C600 1.349 . S
C601 C617 1.349 . S
C602 C600 1.327 . S
C602 C621 1.429 . S
C602 H626 0.950 . S
C603 C620 1.574 . S
C603 C622 1.368 . S
C603 H627 0.949 . S
H604 C608 0.949 . S
C605 C606 1.349 . S
C605 C607 1.327 . S
C605 H628 0.950 . S
C606 C605 1.349 . S
C606 C618 1.349 . S
C607 C605 1.327 . S
C607 C623 1.429 . S
C607 H629 0.950 . S
C608 H604 0.949 . S
C608 C616 1.574 . S
C608 C624 1.368 . S
H609 C617 0.950 . S
H610 C615 0.950 . S
H611 C616 0.949 . S
H612 C618 0.950 . S
H613 C619 0.950 . S
H614 C620 0.949 . S
C615 H610 0.950 . S
C615 C617 1.327 . S
C615 C621 1.429 . S
C616 C608 1.574 . S
C616 H611 0.949 . S
C616 C622 1.368 . S
C617 C601 1.349 . S
C617 H609 0.950 . S
C617 C615 1.327 . S
C618 C606 1.349 . S
C618 H612 0.950 . S
C618 C619 1.327 . S
C619 H613 0.950 . S
C619 C618 1.327 . S
C619 C623 1.429 . S
C620 C603 1.574 . S
C620 H614 0.949 . S
C620 C624 1.368 . S
C621 C602 1.429 . S
C621 C615 1.429 . S
C621 C622 1.523 . S
C622 C603 1.368 . S
C622 C616 1.368 . S
C622 C621 1.523 . S
C623 C607 1.429 . S
C623 C619 1.429 . S
C623 C624 1.523 . S
C624 C608 1.368 . S
C624 C620 1.368 . S
C624 C623 1.523 . S
H625 C600 0.950 . S
H626 C602 0.950 . S
H627 C603 0.949 . S
H628 C605 0.950 . S
H629 C607 0.950 . S
C630 C631 1.349 . S
C630 C632 1.327 . S
C630 H655 0.950 . S
C631 C630 1.349 . S
C631 C647 1.349 . S
C632 C630 1.327 . S
C632 C651 1.429 . S
C632 H656 0.950 . S
C633 C650 1.574 . S
C633 C652 1.368 . S
C633 H657 0.949 . S
H634 C638 0.949 1_545 S
C635 C636 1.349 . S
C635 C637 1.327 . S
C635 H658 0.950 . S
C636 C635 1.349 . S
C636 C648 1.349 . S
C637 C635 1.327 . S
C637 C653 1.429 . S
C637 H659 0.950 . S
C638 H634 0.949 1_565 S
C638 C646 1.574 . S
C638 C654 1.368 . S
H639 C647 0.950 . S
H640 C645 0.950 . S
H641 C646 0.949 . S
H642 C648 0.950 . S
H643 C649 0.950 . S
H644 C650 0.949 . S
C645 H640 0.950 . S
C645 C647 1.327 . S
C645 C651 1.429 . S
C646 C638 1.574 . S
C646 H641 0.949 . S
C646 C652 1.368 . S
C647 C631 1.349 . S
C647 H639 0.950 . S
C647 C645 1.327 . S
C648 C636 1.349 . S
C648 H642 0.950 . S
C648 C649 1.327 . S
C649 H643 0.950 . S
C649 C648 1.327 . S
C649 C653 1.429 . S
C650 C633 1.574 . S
C650 H644 0.949 . S
C650 C654 1.368 . S
C651 C632 1.429 . S
C651 C645 1.429 . S
C651 C652 1.523 . S
C652 C633 1.368 . S
C652 C646 1.368 . S
C652 C651 1.523 . S
C653 C637 1.429 . S
C653 C649 1.429 . S
C653 C654 1.523 1_545 S
C654 C638 1.368 . S
C654 C650 1.368 . S
C654 C653 1.523 1_565 S
H655 C630 0.950 . S
H656 C632 0.950 . S
H657 C633 0.949 . S
H658 C635 0.950 . S
H659 C637 0.950 . S
C660 C661 1.349 . S
C660 C662 1.327 . S
C660 H685 0.950 . S
C661 C660 1.349 . S
C661 C677 1.349 . S
C662 C660 1.327 . S
C662 C681 1.429 . S
C662 H686 0.979 . S
C663 C680 1.574 . S
C663 C682 1.368 . S
C663 H687 0.949 . S
H664 C668 0.949 . S
C665 C666 1.349 . S
C665 C667 1.327 1_545 S
C665 H688 0.950 . S
C666 C665 1.349 . S
C666 C678 1.349 1_545 S
C667 C665 1.327 1_565 S
C667 C683 1.429 . S
C667 H689 0.969 . S
C668 H664 0.949 . S
C668 C676 1.574 . S
C668 C684 1.368 . S
H669 C677 0.950 . S
H670 C675 0.950 . S
H671 C676 0.949 . S
H672 C678 0.950 . S
H673 C679 0.950 . S
H674 C680 0.949 . S
C675 H670 0.950 . S
C675 C677 1.327 . S
C675 C681 1.429 . S
C676 C668 1.574 . S
C676 H671 0.949 . S
C676 C682 1.368 . S
C677 C661 1.349 . S
C677 H669 0.950 . S
C677 C675 1.327 . S
C678 C666 1.349 1_565 S
C678 H672 0.950 . S
C678 C679 1.327 . S
C679 H673 0.950 . S
C679 C678 1.327 . S
C679 C683 1.429 . S
C680 C663 1.574 . S
C680 H674 0.949 . S
C680 C684 1.368 . S
C681 C662 1.429 . S
C681 C675 1.429 . S
C681 C682 1.523 1_655 S
C682 C663 1.368 . S
C682 C676 1.368 . S
C682 C681 1.523 1_455 S
C683 C667 1.429 . S
C683 C679 1.429 . S
C683 C684 1.523 . S
C684 C668 1.368 . S
C684 C680 1.368 . S
C684 C683 1.523 . S
H685 C660 0.950 . S
H686 C662 0.979 . S
H687 C663 0.949 . S
H688 C665 0.950 . S
H689 C667 0.969 . S
C690 C691 1.349 . S
C690 C692 1.327 . S
C690 H715 0.950 . S
C691 C690 1.349 . S
C691 C707 1.349 . S
C692 C690 1.327 . S
C692 C711 1.429 . S
C692 H716 0.950 . S
C693 C710 1.574 . S
C693 C712 1.368 . S
C693 H717 0.949 . S
H694 C698 0.949 . S
C695 C696 1.349 1_455 S
C695 C697 1.327 . S
C695 H718 0.950 . S
C696 C695 1.349 1_655 S
C696 C708 1.349 . S
C697 C695 1.327 . S
C697 C713 1.429 . S
C697 H719 0.950 . S
C698 H694 0.949 . S
C698 C706 1.574 . S
C698 C714 1.368 . S
H699 C707 0.950 . S
H700 C705 0.950 . S
H701 C706 0.949 . S
H702 C708 0.950 . S
H703 C709 0.950 . S
H704 C710 0.949 . S
C705 H700 0.950 . S
C705 C707 1.327 . S
C705 C711 1.429 . S
C706 C698 1.574 . S
C706 H701 0.949 . S
C706 C712 1.368 . S
C707 C691 1.349 . S
C707 H699 0.950 . S
C707 C705 1.327 . S
C708 C696 1.349 . S
C708 H702 0.950 . S
C708 C709 1.327 1_655 S
C709 H703 0.950 . S
C709 C708 1.327 1_455 S
C709 C713 1.429 . S
C710 C693 1.574 . S
C710 H704 0.949 . S
C710 C714 1.368 . S
C711 C692 1.429 . S
C711 C705 1.429 . S
C711 C712 1.523 . S
C712 C693 1.368 . S
C712 C706 1.368 . S
C712 C711 1.523 . S
C713 C697 1.429 . S
C713 C709 1.429 . S
C713 C714 1.523 . S
C714 C698 1.368 . S
C714 C710 1.368 . S
C714 C713 1.523 . S
H715 C690 0.950 . S
H716 C692 0.950 . S
H717 C693 0.949 . S
H718 C695 0.950 . S
H719 C697 0.950 . S
C720 C721 1.349 . S
C720 C722 1.327 . S
C720 H745 0.950 . S
C721 C720 1.349 . S
C721 C737 1.349 . S
C722 C720 1.327 . S
C722 C741 1.429 . S
C722 H746 0.950 . S
C723 C740 1.574 . S
C723 C742 1.368 . S
C723 H747 0.949 . S
H724 C728 0.949 . S
C725 C726 1.349 . S
C725 C727 1.327 . S
C725 H748 0.950 . S
C726 C725 1.349 . S
C726 C738 1.349 . S
C727 C725 1.327 . S
C727 C743 1.429 . S
C727 H749 0.950 . S
C728 H724 0.949 . S
C728 C736 1.574 . S
C728 C744 1.368 . S
H729 C737 0.950 . S
H730 C735 0.950 . S
H731 C736 0.949 . S
H732 C738 0.950 . S
H733 C739 0.950 . S
H734 C740 0.949 . S
C735 H730 0.950 . S
C735 C737 1.327 . S
C735 C741 1.429 . S
C736 C728 1.574 . S
C736 H731 0.949 . S
C736 C742 1.368 . S
C737 C721 1.349 . S
C737 H729 0.950 . S
C737 C735 1.327 . S
C738 C726 1.349 . S
C738 H732 0.950 . S
C738 C739 1.327 . S
C739 H733 0.950 . S
C739 C738 1.327 . S
C739 C743 1.429 . S
C740 C723 1.574 . S
C740 H734 0.949 . S
C740 C744 1.368 . S
C741 C722 1.429 . S
C741 C735 1.429 . S
C741 C742 1.523 . S
C742 C723 1.368 . S
C742 C736 1.368 . S
C742 C741 1.523 . S
C743 C727 1.429 . S
C743 C739 1.429 . S
C743 C744 1.523 . S
C744 C728 1.368 . S
C744 C740 1.368 . S
C744 C743 1.523 . S
H745 C720 0.950 . S
H746 C722 0.950 . S
H747 C723 0.949 . S
H748 C725 0.950 . S
H749 C727 0.950 . S
C750 C751 1.349 . S
C750 C752 1.327 . S
C750 H775 0.950 . S
C751 C750 1.349 . S
C751 C767 1.349 . S
C752 C750 1.327 . S
C752 C771 1.429 . S
C752 H776 0.950 . S
C753 C770 1.574 . S
C753 C772 1.368 . S
C753 H777 0.949 . S
H754 C758 0.949 . S
C755 C756 1.349 . S
C755 C757 1.327 . S
C755 H778 0.950 . S
C756 C755 1.349 . S
C756 C768 1.349 . S
C757 C755 1.327 . S
C757 C773 1.429 . S
C757 H779 0.950 . S
C758 H754 0.949 . S
C758 C766 1.574 . S
C758 C774 1.368 . S
H759 C767 0.950 . S
H760 C765 0.950 . S
H761 C766 0.949 . S
H762 C768 0.950 . S
H763 C769 0.950 . S
H764 C770 0.949 . S
C765 H760 0.950 . S
C765 C767 1.327 . S
C765 C771 1.429 . S
C766 C758 1.574 . S
C766 H761 0.949 . S
C766 C772 1.368 . S
C767 C751 1.349 . S
C767 H759 0.950 . S
C767 C765 1.327 . S
C768 C756 1.349 . S
C768 H762 0.950 . S
C768 C769 1.327 . S
C769 H763 0.950 . S
C769 C768 1.327 . S
C769 C773 1.429 . S
C770 C753 1.574 . S
C770 H764 0.949 . S
C770 C774 1.368 . S
C771 C752 1.429 . S
C771 C765 1.429 . S
C771 C772 1.523 . S
C772 C753 1.368 . S
C772 C766 1.368 . S
C772 C771 1.523 . S
C773 C757 1.429 . S
C773 C769 1.429 . S
C773 C774 1.523 . S
C774 C758 1.368 . S
C774 C770 1.368 . S
C774 C773 1.523 . S
H775 C750 0.950 . S
H776 C752 0.950 . S
H777 C753 0.949 . S
H778 C755 0.950 . S
H779 C757 0.950 . S
C780 C781 1.349 . S
C780 C782 1.327 . S
C780 H805 0.950 . S
C781 C780 1.349 . S
C781 C797 1.349 . S
C782 C780 1.327 . S
C782 C801 1.429 . S
C782 H806 0.950 . S
C783 C800 1.574 . S
C783 C802 1.368 . S
C783 H807 0.949 . S
H784 C788 0.949 . S
C785 C786 1.349 . S
C785 C787 1.327 . S
C785 H808 0.950 . S
C786 C785 1.349 . S
C786 C798 1.349 . S
C787 C785 1.327 . S
C787 C803 1.429 . S
C787 H809 0.950 . S
C788 H784 0.949 . S
C788 C796 1.574 . S
C788 C804 1.368 . S
H789 C797 0.950 1_545 S
H790 C795 0.950 . S
H791 C796 0.949 . S
H792 C798 0.950 . S
H793 C799 0.950 . S
H794 C800 0.949 . S
C795 H790 0.950 . S
C795 C797 1.327 . S
C795 C801 1.429 . S
C796 C788 1.574 . S
C796 H791 0.949 . S
C796 C802 1.368 . S
C797 C781 1.349 . S
C797 H789 0.950 1_565 S
C797 C795 1.327 . S
C798 C786 1.349 . S
C798 H792 0.950 . S
C798 C799 1.327 . S
C799 H793 0.950 . S
C799 C798 1.327 . S
C799 C803 1.429 . S
C800 C783 1.574 . S
C800 H794 0.949 . S
C800 C804 1.368 . S
C801 C782 1.429 . S
C801 C795 1.429 . S
C801 C802 1.523 . S
C802 C783 1.368 . S
C802 C796 1.368 . S
C802 C801 1.523 . S
C803 C787 1.429 . S
C803 C799 1.429 . S
C803 C804 1.523 . S
C804 C788 1.368 . S
C804 C800 1.368 . S
C804 C803 1.523 . S
H805 C780 0.950 . S
H806 C782 0.950 . S
H807 C783 0.949 . S
H808 C785 0.950 . S
H809 C787 0.950 . S
C810 C811 1.349 . S
C810 C812 1.327 . S
C810 H835 0.950 . S
C811 C810 1.349 . S
C811 C827 1.349 . S
C812 C810 1.327 . S
C812 C831 1.429 . S
C812 H836 0.950 . S
C813 C830 1.574 . S
C813 C832 1.368 . S
C813 H837 0.949 . S
H814 C818 0.949 . S
C815 C816 1.349 . S
C815 C817 1.327 . S
C815 H838 0.950 . S
C816 C815 1.349 . S
C816 C828 1.349 . S
C817 C815 1.327 . S
C817 C833 1.429 . S
C817 H839 0.950 . S
C818 H814 0.949 . S
C818 C826 1.574 . S
C818 C834 1.368 . S
H819 C827 0.950 . S
H820 C825 0.950 . S
H821 C826 0.949 . S
H822 C828 0.950 . S
H823 C829 0.950 . S
H824 C830 0.949 . S
C825 H820 0.950 . S
C825 C827 1.327 . S
C825 C831 1.429 . S
C826 C818 1.574 . S
C826 H821 0.949 . S
C826 C832 1.368 . S
C827 C811 1.349 . S
C827 H819 0.950 . S
C827 C825 1.327 . S
C828 C816 1.349 . S
C828 H822 0.950 . S
C828 C829 1.327 . S
C829 H823 0.950 . S
C829 C828 1.327 . S
C829 C833 1.429 . S
C830 C813 1.574 . S
C830 H824 0.949 . S
C830 C834 1.368 . S
C831 C812 1.429 . S
C831 C825 1.429 . S
C831 C832 1.523 . S
C832 C813 1.368 . S
C832 C826 1.368 . S
C832 C831 1.523 . S
C833 C817 1.429 . S
C833 C829 1.429 . S
C833 C834 1.523 . S
C834 C818 1.368 . S
C834 C830 1.368 . S
C834 C833 1.523 . S
H835 C810 0.950 . S
H836 C812 0.950 . S
H837 C813 0.949 . S
H838 C815 0.950 . S
H839 C817 0.950 . S
C840 C841 1.349 . S
C840 C842 1.327 . S
C840 H865 0.950 . S
C841 C840 1.349 . S
C841 C857 1.349 . S
C842 C840 1.327 . S
C842 C861 1.429 . S
C842 H866 0.950 . S
C843 C860 1.574 . S
C843 C862 1.368 . S
C843 H867 0.949 . S
H844 C848 0.949 . S
C845 C846 1.349 . S
C845 C847 1.327 . S
C845 H868 0.950 . S
C846 C845 1.349 . S
C846 C858 1.349 . S
C847 C845 1.327 . S
C847 C863 1.429 . S
C847 H869 0.950 . S
C848 H844 0.949 . S
C848 C856 1.574 . S
C848 C864 1.368 . S
H849 C857 0.950 . S
H850 C855 0.950 . S
H851 C856 0.949 . S
H852 C858 0.950 . S
H853 C859 0.950 . S
H854 C860 0.949 . S
C855 H850 0.950 . S
C855 C857 1.327 . S
C855 C861 1.429 . S
C856 C848 1.574 . S
C856 H851 0.949 . S
C856 C862 1.368 . S
C857 C841 1.349 . S
C857 H849 0.950 . S
C857 C855 1.327 . S
C858 C846 1.349 . S
C858 H852 0.950 . S
C858 C859 1.327 . S
C859 H853 0.950 . S
C859 C858 1.327 . S
C859 C863 1.429 . S
C860 C843 1.574 . S
C860 H854 0.949 . S
C860 C864 1.368 . S
C861 C842 1.429 . S
C861 C855 1.429 . S
C861 C862 1.523 . S
C862 C843 1.368 . S
C862 C856 1.368 . S
C862 C861 1.523 . S
C863 C847 1.429 . S
C863 C859 1.429 . S
C863 C864 1.523 . S
C864 C848 1.368 . S
C864 C860 1.368 . S
C864 C863 1.523 . S
H865 C840 0.950 . S
H866 C842 0.950 . S
H867 C843 0.949 . S
H868 C845 0.950 . S
H869 C847 0.950 . S
C870 C871 1.349 . S
C870 C872 1.327 . S
C870 H895 0.950 . S
C871 C870 1.349 . S
C871 C887 1.349 . S
C872 C870 1.327 . S
C872 C891 1.429 . S
C872 H896 0.950 . S
C873 C890 1.574 . S
C873 C892 1.368 . S
C873 H897 0.949 . S
H874 C878 0.949 . S
C875 C876 1.349 . S
C875 C877 1.327 . S
C875 H898 0.950 . S
C876 C875 1.349 . S
C876 C888 1.349 . S
C877 C875 1.327 . S
C877 C893 1.429 . S
C877 H899 0.950 . S
C878 H874 0.949 . S
C878 C886 1.574 . S
C878 C894 1.368 . S
H879 C887 0.950 . S
H880 C885 0.950 . S
H881 C886 0.949 . S
H882 C888 0.950 . S
H883 C889 0.950 . S
H884 C890 0.949 . S
C885 H880 0.950 . S
C885 C887 1.327 . S
C885 C891 1.429 . S
C886 C878 1.574 . S
C886 H881 0.949 . S
C886 C892 1.368 . S
C887 C871 1.349 . S
C887 H879 0.950 . S
C887 C885 1.327 . S
C888 C876 1.349 . S
C888 H882 0.950 . S
C888 C889 1.327 . S
C889 H883 0.950 . S
C889 C888 1.327 . S
C889 C893 1.429 . S
C890 C873 1.574 . S
C890 H884 0.949 . S
C890 C894 1.368 . S
C891 C872 1.429 . S
C891 C885 1.429 . S
C891 C892 1.523 . S
C892 C873 1.368 . S
C892 C886 1.368 . S
C892 C891 1.523 . S
C893 C877 1.429 . S
C893 C889 1.429 . S
C893 C894 1.523 . S
C894 C878 1.368 . S
C894 C890 1.368 . S
C894 C893 1.523 . S
H895 C870 0.950 . S
H896 C872 0.950 . S
H897 C873 0.949 . S
H898 C875 0.950 . S
H899 C877 0.950 . S
C900 C901 1.349 . S
C900 C902 1.327 . S
C900 H925 0.950 . S
C901 C900 1.349 . S
C901 C917 1.349 . S
C902 C900 1.327 . S
C902 C921 1.429 . S
C902 H926 0.950 . S
C903 C920 1.574 . S
C903 C922 1.368 . S
C903 H927 0.949 . S
H904 C908 0.949 . S
C905 C906 1.349 . S
C905 C907 1.327 . S
C905 H928 0.950 . S
C906 C905 1.349 . S
C906 C918 1.349 . S
C907 C905 1.327 . S
C907 C923 1.429 . S
C907 H929 0.950 . S
C908 H904 0.949 . S
C908 C916 1.574 . S
C908 C924 1.368 . S
H909 C917 0.950 . S
H910 C915 0.950 . S
H911 C916 0.949 . S
H912 C918 0.950 . S
H913 C919 0.950 . S
H914 C920 0.949 . S
C915 H910 0.950 . S
C915 C917 1.327 . S
C915 C921 1.429 . S
C916 C908 1.574 . S
C916 H911 0.949 . S
C916 C922 1.368 . S
C917 C901 1.349 . S
C917 H909 0.950 . S
C917 C915 1.327 . S
C918 C906 1.349 . S
C918 H912 0.950 . S
C918 C919 1.327 . S
C919 H913 0.950 . S
C919 C918 1.327 . S
C919 C923 1.429 . S
C920 C903 1.574 . S
C920 H914 0.949 . S
C920 C924 1.368 . S
C921 C902 1.429 . S
C921 C915 1.429 . S
C921 C922 1.523 . S
C922 C903 1.368 . S
C922 C916 1.368 . S
C922 C921 1.523 . S
C923 C907 1.429 . S
C923 C919 1.429 . S
C923 C924 1.523 . S
C924 C908 1.368 . S
C924 C920 1.368 . S
C924 C923 1.523 . S
H925 C900 0.950 . S
H926 C902 0.950 . S
H927 C903 0.949 . S
H928 C905 0.950 . S
H929 C907 0.950 . S
C930 C931 1.349 . S
C930 C932 1.327 . S
C930 H955 0.950 . S
C931 C930 1.349 . S
C931 C947 1.349 . S
C932 C930 1.327 . S
C932 C951 1.429 . S
C932 H956 0.950 . S
C933 C950 1.574 1_565 S
C933 C952 1.368 . S
C933 H957 0.949 . S
H934 C938 0.949 . S
C935 C936 1.349 . S
C935 C937 1.327 . S
C935 H958 0.950 . S
C936 C935 1.349 . S
C936 C948 1.349 . S
C937 C935 1.327 . S
C937 C953 1.429 . S
C937 H959 0.950 . S
C938 H934 0.949 . S
C938 C946 1.574 . S
C938 C954 1.368 . S
H939 C947 0.950 . S
H940 C945 0.950 . S
H941 C946 0.949 . S
H942 C948 0.950 . S
H943 C949 0.950 . S
H944 C950 0.957 . S
C945 H940 0.950 . S
C945 C947 1.327 . S
C945 C951 1.429 . S
C946 C938 1.574 . S
C946 H941 0.949 . S
C946 C952 1.368 1_545 S
C947 C931 1.349 . S
C947 H939 0.950 . S
C947 C945 1.327 . S
C948 C936 1.349 . S
C948 H942 0.950 . S
C948 C949 1.327 . S
C949 H943 0.950 . S
C949 C948 1.327 . S
C949 C953 1.429 . S
C950 C933 1.574 1_545 S
C950 H944 0.957 . S
C950 C954 1.368 . S
C951 C932 1.429 . S
C951 C945 1.429 . S
C951 C952 1.523 . S
C952 C933 1.368 . S
C952 C946 1.368 1_565 S
C952 C951 1.523 . S
C953 C937 1.429 . S
C953 C949 1.429 . S
C953 C954 1.523 . S
C954 C938 1.368 . S
C954 C950 1.368 . S
C954 C953 1.523 . S
H955 C930 0.950 . S
H956 C932 0.950 . S
H957 C933 0.949 . S
H958 C935 0.950 . S
H959 C937 0.950 . S
C960 C961 1.349 . S
C960 C962 1.327 . S
C960 H985 0.950 . S
C961 C960 1.349 . S
C961 C977 1.349 . S
C962 C960 1.327 . S
C962 C981 1.429 . S
C962 H986 0.950 . S
C963 C980 1.574 . S
C963 C982 1.368 . S
C963 H987 0.949 . S
H964 C968 0.949 . S
C965 C966 1.349 . S
C965 C967 1.327 . S
C965 H988 0.950 . S
C966 C965 1.349 . S
C966 C978 1.349 . S
C967 C965 1.327 . S
C967 C983 1.429 . S
C967 H989 0.950 . S
C968 H964 0.949 . S
C968 C976 1.574 . S
C968 C984 1.368 . S
H969 C977 0.950 . S
H970 C975 0.950 . S
H971 C976 0.949 . S
H972 C978 0.950 . S
H973 C979 0.950 . S
H974 C980 0.949 . S
C975 H970 0.950 . S
C975 C977 1.327 . S
C975 C981 1.429 . S
C976 C968 1.574 . S
C976 H971 0.949 . S
C976 C982 1.368 1_455 S
C977 C961 1.349 . S
C977 H969 0.950 . S
C977 C975 1.327 . S
C978 C966 1.349 . S
C978 H972 0.950 . S
C978 C979 1.327 . S
C979 H973 0.950 . S
C979 C978 1.327 . S
C979 C983 1.429 . S
C980 C963 1.574 . S
C980 H974 0.949 . S
C980 C984 1.368 1_655 S
C981 C962 1.429 . S
C981 C975 1.429 . S
C981 C982 1.523 . S
C982 C963 1.368 . S
C982 C976 1.368 1_655 S
C982 C981 1.523 . S
C983 C967 1.429 . S
C983 C979 1.429 . S
C983 C984 1.523 . S
C984 C968 1.368 . S
C984 C980 1.368 1_455 S
C984 C983 1.523 . S
H985 C960 0.950 . S
H986 C962 0.950 . S
H987 C963 0.949 . S
H988 C965 0.950 . S
H989 C967 0.950 . S
C181 C28 1.694 . S
C186 C5 1.892 . S
C211 C57 1.694 . S
C216 C25 1.891 . S
C241 C54 1.892 . S
C246 C8 1.694 . S
C271 C45 1.892 . S
C276 C37 1.694 . S
C301 C48 1.694 . S
C306 C14 1.892 . S
C331 C17 1.694 . S
C336 C34 1.891 . S
C361 C65 1.892 . S
C366 C88 1.694 . S
C391 C108 1.694 . S
C396 C85 1.892 . S
C421 C105 1.892 . S
C426 C68 1.694 . S
C451 C97 1.694 . S
C456 C114 1.892 . S
C481 C117 1.694 . S
C486 C74 1.892 . S
C511 C94 1.891 . S
C516 C77 1.694 . S
C541 C148 1.694 . S
C546 C125 1.892 . S
C571 C145 1.892 . S
C576 C177 1.694 . S
C601 C174 1.892 . S
C606 C128 1.694 . S
C631 C165 1.892 . S
C636 C157 1.694 . S
C661 C168 1.694 . S
C666 C134 1.892 . S
C691 C137 1.694 . S
C696 C154 1.892 . S
C721 C102 2.427 . S
C726 C13 2.427 . S
C751 C62 2.427 . S
C756 C33 2.427 . S
C781 C42 2.427 . S
C786 C82 2.427 . S
C811 C53 2.427 . S
C816 C133 2.427 . S
C841 C2 2.427 . S
C846 C153 2.427 . S
C871 C162 2.427 . S
C876 C22 2.427 . S
C901 C73 2.427 . S
C906 C173 2.427 . S
C931 C93 2.427 . S
C936 C122 2.427 . S
C961 C142 2.427 . S
C966 C113 2.427 . S
