# Generated by pormake.
# Topology zfv, (5)-cn, num edge types: 1
# Building blocks:
#     Node 0, Type 0, BuildingBlock: XOMCOT_clean_sbu_1, # of connection points: 5
#     Node 1, Type 0, BuildingBlock: XOMCOT_clean_sbu_1, # of connection points: 5
#     Node 2, Type 0, BuildingBlock: XOMCOT_clean_sbu_1, # of connection points: 5
#     Node 3, Type 0, BuildingBlock: XOMCOT_clean_sbu_1, # of connection points: 5
#     Node 4, Type 0, BuildingBlock: XOMCOT_clean_sbu_1, # of connection points: 5
#     Node 5, Type 0, BuildingBlock: XOMCOT_clean_sbu_1, # of connection points: 5
#     Node 6, Type 0, BuildingBlock: XOMCOT_clean_sbu_1, # of connection points: 5
#     Node 7, Type 0, BuildingBlock: XOMCOT_clean_sbu_1, # of connection points: 5
#     Node 8, Type 0, BuildingBlock: XOMCOT_clean_sbu_1, # of connection points: 5
#     Node 9, Type 0, BuildingBlock: XOMCOT_clean_sbu_1, # of connection points: 5
#     Node 10, Type 0, BuildingBlock: XOMCOT_clean_sbu_1, # of connection points: 5
#     Node 11, Type 0, BuildingBlock: XOMCOT_clean_sbu_1, # of connection points: 5
#     Node 12, Type 0, BuildingBlock: XOMCOT_clean_sbu_1, # of connection points: 5
#     Node 13, Type 0, BuildingBlock: XOMCOT_clean_sbu_1, # of connection points: 5
#     Node 14, Type 0, BuildingBlock: XOMCOT_clean_sbu_1, # of connection points: 5
#     Node 15, Type 0, BuildingBlock: XOMCOT_clean_sbu_1, # of connection points: 5
#     Edge 16, Type (0, 0), BuildingBlock: OJICUG_clean_linker_0, # of connection points: 2
#     Edge 17, Type (0, 0), BuildingBlock: OJICUG_clean_linker_0, # of connection points: 2
#     Edge 18, Type (0, 0), BuildingBlock: OJICUG_clean_linker_0, # of connection points: 2
#     Edge 19, Type (0, 0), BuildingBlock: OJICUG_clean_linker_0, # of connection points: 2
#     Edge 20, Type (0, 0), BuildingBlock: OJICUG_clean_linker_0, # of connection points: 2
#     Edge 21, Type (0, 0), BuildingBlock: OJICUG_clean_linker_0, # of connection points: 2
#     Edge 22, Type (0, 0), BuildingBlock: OJICUG_clean_linker_0, # of connection points: 2
#     Edge 23, Type (0, 0), BuildingBlock: OJICUG_clean_linker_0, # of connection points: 2
#     Edge 24, Type (0, 0), BuildingBlock: OJICUG_clean_linker_0, # of connection points: 2
#     Edge 25, Type (0, 0), BuildingBlock: OJICUG_clean_linker_0, # of connection points: 2
#     Edge 26, Type (0, 0), BuildingBlock: OJICUG_clean_linker_0, # of connection points: 2
#     Edge 27, Type (0, 0), BuildingBlock: OJICUG_clean_linker_0, # of connection points: 2
#     Edge 28, Type (0, 0), BuildingBlock: OJICUG_clean_linker_0, # of connection points: 2
#     Edge 29, Type (0, 0), BuildingBlock: OJICUG_clean_linker_0, # of connection points: 2
#     Edge 30, Type (0, 0), BuildingBlock: OJICUG_clean_linker_0, # of connection points: 2
#     Edge 31, Type (0, 0), BuildingBlock: OJICUG_clean_linker_0, # of connection points: 2
#     Edge 32, Type (0, 0), BuildingBlock: OJICUG_clean_linker_0, # of connection points: 2
#     Edge 33, Type (0, 0), BuildingBlock: OJICUG_clean_linker_0, # of connection points: 2
#     Edge 34, Type (0, 0), BuildingBlock: OJICUG_clean_linker_0, # of connection points: 2
#     Edge 35, Type (0, 0), BuildingBlock: OJICUG_clean_linker_0, # of connection points: 2
#     Edge 36, Type (0, 0), BuildingBlock: OJICUG_clean_linker_0, # of connection points: 2
#     Edge 37, Type (0, 0), BuildingBlock: OJICUG_clean_linker_0, # of connection points: 2
#     Edge 38, Type (0, 0), BuildingBlock: OJICUG_clean_linker_0, # of connection points: 2
#     Edge 39, Type (0, 0), BuildingBlock: OJICUG_clean_linker_0, # of connection points: 2
#     Edge 40, Type (0, 0), BuildingBlock: OJICUG_clean_linker_0, # of connection points: 2
#     Edge 41, Type (0, 0), BuildingBlock: OJICUG_clean_linker_0, # of connection points: 2
#     Edge 42, Type (0, 0), BuildingBlock: OJICUG_clean_linker_0, # of connection points: 2
#     Edge 43, Type (0, 0), BuildingBlock: OJICUG_clean_linker_0, # of connection points: 2
#     Edge 44, Type (0, 0), BuildingBlock: OJICUG_clean_linker_0, # of connection points: 2
#     Edge 45, Type (0, 0), BuildingBlock: OJICUG_clean_linker_0, # of connection points: 2
#     Edge 46, Type (0, 0), BuildingBlock: OJICUG_clean_linker_0, # of connection points: 2
#     Edge 47, Type (0, 0), BuildingBlock: OJICUG_clean_linker_0, # of connection points: 2
#     Edge 48, Type (0, 0), BuildingBlock: OJICUG_clean_linker_0, # of connection points: 2
#     Edge 49, Type (0, 0), BuildingBlock: OJICUG_clean_linker_0, # of connection points: 2
#     Edge 50, Type (0, 0), BuildingBlock: OJICUG_clean_linker_0, # of connection points: 2
#     Edge 51, Type (0, 0), BuildingBlock: OJICUG_clean_linker_0, # of connection points: 2
#     Edge 52, Type (0, 0), BuildingBlock: OJICUG_clean_linker_0, # of connection points: 2
#     Edge 53, Type (0, 0), BuildingBlock: OJICUG_clean_linker_0, # of connection points: 2
#     Edge 54, Type (0, 0), BuildingBlock: OJICUG_clean_linker_0, # of connection points: 2
#     Edge 55, Type (0, 0), BuildingBlock: OJICUG_clean_linker_0, # of connection points: 2
# Relax obj value: 0.101
# Max RMSD: 0.108
# Mean RMSD: 0.108
data_MOF--net-zfv--node1-XOMCOT_clean_sbu_1--edge1-OJICUG_clean_linker_0
_symmetry_space_group_name_H-M    P1
_symmetry_Int_Tables_number       1
_symmetry_cell_setting            triclinic
loop_
_symmetry_equiv_pos_as_xyz
'x, y, z'
_cell_length_a     56.975349
_cell_length_b     56.974417
_cell_length_c     13.536668
_cell_angle_alpha  89.982146
_cell_angle_beta   90.00769
_cell_angle_gamma 90.020598
loop_
_atom_site_label
_atom_site_type_symbol
_atom_site_fract_x
_atom_site_fract_y
_atom_site_fract_z
_atom_type_partial_charge
C0 C 0.06099 0.58764 0.21625 0.0
C1 C 0.06018 0.58602 0.31756 0.0
N2 N 0.08156 0.59137 0.35382 0.0
N3 N 0.0828 0.59389 0.18819 0.0
C4 C 0.09497 0.59593 0.27355 0.0
H5 H 0.04632 0.58548 0.16638 0.0
Co6 Co 0.09113 0.60131 0.05859 0.0
C7 C 0.14185 0.61078 0.07017 0.0
O8 O 0.14544 0.59724 0.99311 0.0
N9 N 0.09898 0.60912 0.9275 0.0
C10 C 0.11022 0.6297 0.79615 0.0
C11 C 0.10889 0.62944 0.89744 0.0
C12 C 0.09418 0.59747 0.84279 0.0
N13 N 0.1009 0.60958 0.76149 0.0
O14 O 0.10384 0.57 0.0424 0.0
H15 H 0.11424 0.64351 0.94614 0.0
H16 H 0.08554 0.58062 0.8405 0.0
O17 O 0.12113 0.61362 0.10373 0.0
C18 C 0.08686 0.55658 1.01819 0.0
O19 O 0.06614 0.56628 1.00519 0.0
N20 N 0.0766 0.63054 0.07365 0.0
C21 C 0.04658 0.66863 0.10333 0.0
C22 C 0.0681 0.6672 0.15383 0.0
C23 C 0.08288 0.64782 0.13844 0.0
C24 C 0.05624 0.63211 1.0215 0.0
C25 C 0.04109 0.65103 0.03459 0.0
H26 H 0.09872 0.64622 0.18184 0.0
H27 H 0.05134 0.61805 0.9719 0.0
H28 H 0.11313 0.60129 0.27707 0.0
H29 H 0.04466 0.58243 0.36107 0.0
H30 H 0.11665 0.6441 0.75159 0.0
H31 H 0.07289 0.68026 0.20835 0.0
H32 H 0.02483 0.65152 0.99315 0.0
C33 C 0.72777 0.75408 0.47766 0.0
C34 C 0.7296 0.75323 0.57891 0.0
N35 N 0.72622 0.77503 0.61493 0.0
N36 N 0.72333 0.7763 0.44939 0.0
C37 C 0.72262 0.7887 0.53453 0.0
H38 H 0.7286 0.73925 0.42794 0.0
Co39 Co 0.71661 0.78514 0.31958 0.0
C40 C 0.70864 0.83611 0.33291 0.0
O41 O 0.72258 0.83961 0.25705 0.0
N42 N 0.70958 0.79347 0.18851 0.0
C43 C 0.68995 0.80578 0.05637 0.0
C44 C 0.68984 0.80434 0.1576 0.0
C45 C 0.72125 0.78817 0.10441 0.0
N46 N 0.70971 0.79556 1.0226 0.0
O47 O 0.74829 0.79706 0.30611 0.0
H48 H 0.67586 0.81024 0.20561 0.0
H49 H 0.73766 0.77868 0.1031 0.0
O50 O 0.70511 0.81537 0.36507 0.0
C51 C 0.76196 0.77986 0.28822 0.0
O52 O 0.75247 0.75909 0.27418 0.0
N53 N 0.68674 0.77162 0.33264 0.0
C54 C 0.64637 0.74438 0.35789 0.0
C55 C 0.64991 0.76481 0.41416 0.0
C56 C 0.67028 0.77823 0.40047 0.0
C57 C 0.68346 0.75206 0.27647 0.0
C58 C 0.66333 0.73833 0.2872 0.0
H59 H 0.6732 0.79333 0.44715 0.0
H60 H 0.69697 0.74667 0.22515 0.0
H61 H 0.71892 0.80728 0.53778 0.0
H62 H 0.73198 0.73751 0.62264 0.0
H63 H 0.67599 0.81288 1.01115 0.0
H64 H 0.63729 0.77013 0.46962 0.0
H65 H 0.66164 0.72248 0.2436 0.0
C66 C 0.56763 0.42139 0.72385 0.0
C67 C 0.56851 0.42316 0.82511 0.0
N68 N 0.54671 0.41973 0.86121 0.0
N69 N 0.5454 0.41695 0.69565 0.0
C70 C 0.53303 0.41617 0.78085 0.0
H71 H 0.58246 0.42222 0.6741 0.0
Co72 Co 0.53658 0.41015 0.56591 0.0
C73 C 0.48549 0.40254 0.57883 0.0
O74 O 0.48211 0.41634 0.50237 0.0
N75 N 0.52825 0.40303 0.43486 0.0
C76 C 0.51587 0.38339 0.30291 0.0
C77 C 0.51728 0.38333 0.40416 0.0
C78 C 0.53364 0.41462 0.3506 0.0
N79 N 0.52621 0.40307 0.26892 0.0
O80 O 0.52505 0.44196 0.55133 0.0
H81 H 0.51126 0.36943 0.45236 0.0
H82 H 0.54321 0.43098 0.34906 0.0
O83 O 0.50619 0.399 0.61135 0.0
C84 C 0.54243 0.45532 0.53194 0.0
O85 O 0.56303 0.44542 0.51845 0.0
N86 N 0.54976 0.38016 0.57987 0.0
C87 C 0.5765 0.33949 0.60598 0.0
C88 C 0.55608 0.34331 0.66199 0.0
C89 C 0.54291 0.36381 0.64786 0.0
C90 C 0.56932 0.37662 0.524 0.0
C91 C 0.58281 0.35635 0.53515 0.0
H92 H 0.5278 0.36692 0.69428 0.0
H93 H 0.5749 0.39003 0.47253 0.0
H94 H 0.51446 0.41242 0.78419 0.0
H95 H 0.58424 0.4255 0.86878 0.0
H96 H 0.50868 0.36944 0.25785 0.0
H97 H 0.55057 0.33078 0.71755 0.0
H98 H 0.59866 0.35445 0.49174 0.0
C99 C 0.89778 0.25927 0.97863 0.0
C100 C 0.89596 0.26009 0.07987 0.0
N101 N 0.8996 0.23833 0.11593 0.0
N102 N 0.90247 0.23709 0.95039 0.0
C103 C 0.90334 0.2247 0.03557 0.0
H104 H 0.89681 0.27409 0.92891 0.0
Co105 Co 0.90937 0.22839 0.82062 0.0
C106 C 0.9176 0.17739 0.83308 0.0
O107 O 0.90384 0.1739 0.75659 0.0
N108 N 0.91659 0.22019 0.68957 0.0
C109 C 0.93636 0.20808 0.55757 0.0
C110 C 0.93643 0.20952 0.6588 0.0
C111 C 0.90489 0.22538 0.60536 0.0
N112 N 0.91652 0.21811 0.52365 0.0
O113 O 0.87768 0.21649 0.80602 0.0
H114 H 0.95043 0.20371 0.70694 0.0
H115 H 0.88838 0.23469 0.6039 0.0
O116 O 0.92087 0.19811 0.86593 0.0
C117 C 0.86411 0.23374 0.78737 0.0
O118 O 0.87373 0.25448 0.774 0.0
N119 N 0.93922 0.24192 0.83467 0.0
C120 C 0.97967 0.26901 0.86056 0.0
C121 C 0.97602 0.24857 0.9167 0.0
C122 C 0.95562 0.23522 0.90268 0.0
C123 C 0.94258 0.26152 0.77881 0.0
C124 C 0.96274 0.27518 0.78985 0.0
H125 H 0.95264 0.22009 0.94913 0.0
H126 H 0.92911 0.26698 0.72735 0.0
H127 H 0.90729 0.20618 0.03888 0.0
H128 H 0.89343 0.27579 0.12356 0.0
H129 H 0.95039 0.20109 0.51245 0.0
H130 H 0.9886 0.24317 0.97218 0.0
H131 H 0.96452 0.29104 0.74634 0.0
C132 C 0.06111 0.42114 0.81726 0.0
C133 C 0.06029 0.42299 0.71602 0.0
N134 N 0.08204 0.41931 0.67999 0.0
N135 N 0.08327 0.41639 0.84552 0.0
C136 C 0.09566 0.41551 0.76037 0.0
H137 H 0.04629 0.42216 0.86698 0.0
Co138 Co 0.09198 0.40952 0.97533 0.0
C139 C 0.14289 0.40124 0.96276 0.0
O140 O 0.14636 0.41514 0.03878 0.0
N141 N 0.10018 0.40235 0.10641 0.0
C142 C 0.11226 0.38259 0.23852 0.0
C143 C 0.11082 0.3825 0.1373 0.0
C144 C 0.09501 0.41409 0.19051 0.0
N145 N 0.10227 0.40246 0.27231 0.0
O146 O 0.10414 0.4411 0.98922 0.0
H147 H 0.11658 0.36847 0.08926 0.0
H148 H 0.08572 0.43061 0.19181 0.0
O149 O 0.12217 0.39784 0.9301 0.0
C150 C 0.08707 0.45494 1.00702 0.0
O151 O 0.06619 0.44568 1.02079 0.0
N152 N 0.07824 0.37976 0.96182 0.0
C153 C 0.05082 0.33952 0.93625 0.0
C154 C 0.07129 0.34298 0.8801 0.0
C155 C 0.0848 0.36328 0.89395 0.0
C156 C 0.05863 0.37657 1.01776 0.0
C157 C 0.04481 0.35651 1.00688 0.0
H158 H 0.09995 0.36613 0.84744 0.0
H159 H 0.05329 0.3901 0.0691 0.0
H160 H 0.11418 0.41154 0.7571 0.0
H161 H 0.0446 0.42559 0.67231 0.0
H162 H 0.11921 0.36855 0.28373 0.0
H163 H 0.07658 0.33034 0.82469 0.0
H164 H 0.02894 0.35488 0.05039 0.0
C165 C 0.89495 0.7531 0.08168 0.0
C166 C 0.89331 0.75228 0.98038 0.0
N167 N 0.89854 0.77369 0.94409 0.0
N168 N 0.9011 0.77493 0.1097 0.0
C169 C 0.90305 0.78712 0.02435 0.0
H170 H 0.89286 0.73842 0.13157 0.0
Co171 Co 0.90846 0.78331 0.23931 0.0
C172 C 0.91792 0.83402 0.2275 0.0
O173 O 0.90435 0.83765 0.30444 0.0
N174 N 0.91621 0.79119 0.37039 0.0
C175 C 0.93673 0.80247 0.50179 0.0
C176 C 0.93649 0.80114 0.4005 0.0
C177 C 0.90454 0.78636 0.45506 0.0
N178 N 0.91662 0.79312 0.53638 0.0
O179 O 0.87715 0.79602 0.25516 0.0
H180 H 0.95057 0.80651 0.35186 0.0
H181 H 0.88771 0.77768 0.45728 0.0
O182 O 0.92077 0.81329 0.19409 0.0
C183 C 0.86366 0.77905 0.27902 0.0
O184 O 0.87331 0.75832 0.29228 0.0
N185 N 0.93772 0.76879 0.2245 0.0
C186 C 0.97594 0.73892 0.19541 0.0
C187 C 0.97444 0.7604 0.14468 0.0
C188 C 0.955 0.77511 0.15977 0.0
C189 C 0.93934 0.74847 0.27685 0.0
C190 C 0.95833 0.73338 0.26404 0.0
H191 H 0.95336 0.79092 0.1162 0.0
H192 H 0.92528 0.74354 0.32641 0.0
H193 H 0.90831 0.80531 1.02081 0.0
H194 H 0.88978 0.73674 0.93687 0.0
H195 H 0.95111 0.80893 0.54639 0.0
H196 H 0.9875 0.76522 0.09021 0.0
H197 H 0.95887 0.71715 0.30566 0.0
C198 C 0.56737 0.59 0.31936 0.0
C199 C 0.56823 0.58831 0.21808 0.0
N200 N 0.54657 0.59242 0.18185 0.0
N201 N 0.54527 0.59505 0.34744 0.0
C202 C 0.53296 0.5963 0.26214 0.0
H203 H 0.58215 0.58872 0.36919 0.0
Co204 Co 0.53665 0.60214 0.47706 0.0
C205 C 0.48554 0.6098 0.46569 0.0
O206 O 0.48231 0.59622 0.54292 0.0
N207 N 0.52852 0.60957 0.60814 0.0
C208 C 0.51642 0.62953 0.73973 0.0
C209 C 0.51778 0.62943 0.63845 0.0
C210 C 0.53379 0.59804 0.69268 0.0
N211 N 0.52654 0.60978 0.77413 0.0
O212 O 0.52516 0.57034 0.49332 0.0
H213 H 0.51186 0.64331 0.58994 0.0
H214 H 0.54312 0.58156 0.69465 0.0
O215 O 0.50618 0.61318 0.4321 0.0
C216 C 0.54253 0.55723 0.5156 0.0
O217 O 0.56304 0.56736 0.52844 0.0
N218 N 0.54981 0.6321 0.46157 0.0
C219 C 0.57638 0.67285 0.43473 0.0
C220 C 0.55589 0.66896 0.37922 0.0
C221 C 0.5428 0.64841 0.39373 0.0
C222 C 0.56948 0.63567 0.5167 0.0
C223 C 0.58289 0.65599 0.50519 0.0
H224 H 0.52759 0.64527 0.34792 0.0
H225 H 0.57518 0.62228 0.56805 0.0
H226 H 0.51453 0.60065 0.25866 0.0
H227 H 0.58392 0.58556 0.17451 0.0
H228 H 0.50938 0.6436 0.78449 0.0
H229 H 0.55025 0.68149 0.32392 0.0
H230 H 0.5988 0.65795 0.54818 0.0
C231 C 0.73036 0.25891 0.57061 0.0
C232 C 0.732 0.25976 0.46932 0.0
N233 N 0.72734 0.23821 0.43307 0.0
N234 N 0.72479 0.23692 0.5987 0.0
C235 C 0.72319 0.22468 0.51337 0.0
H236 H 0.732 0.27365 0.62044 0.0
Co237 Co 0.71748 0.22846 0.72829 0.0
C238 C 0.70941 0.17742 0.71765 0.0
O239 O 0.72287 0.17417 0.79524 0.0
N240 N 0.70981 0.22048 0.85938 0.0
C241 C 0.68961 0.20866 0.99082 0.0
C242 C 0.6898 0.20999 0.88952 0.0
C243 C 0.72135 0.22563 0.94403 0.0
N244 N 0.70946 0.21855 0.02539 0.0
O245 O 0.74916 0.21673 0.74542 0.0
H246 H 0.67589 0.20421 0.84087 0.0
H247 H 0.73796 0.23473 0.94618 0.0
O248 O 0.70622 0.19804 0.68361 0.0
C249 C 0.76235 0.23396 0.76885 0.0
O250 O 0.75237 0.25455 0.7811 0.0
N251 N 0.68766 0.24187 0.71203 0.0
C252 C 0.64719 0.26881 0.68436 0.0
C253 C 0.65089 0.24822 0.6293 0.0
C254 C 0.6713 0.23494 0.64426 0.0
C255 C 0.68427 0.26164 0.76668 0.0
C256 C 0.6641 0.27523 0.75476 0.0
H257 H 0.67429 0.21963 0.59885 0.0
H258 H 0.6977 0.26726 0.818 0.0
H259 H 0.71836 0.20636 0.50987 0.0
H260 H 0.73509 0.27539 0.42577 0.0
H261 H 0.67542 0.2018 0.03544 0.0
H262 H 0.63833 0.24263 0.57406 0.0
H263 H 0.66229 0.29121 0.79739 0.0
C264 C 0.39814 0.25332 0.57119 0.0
C265 C 0.39647 0.25245 0.4699 0.0
N266 N 0.40061 0.27411 0.43366 0.0
N267 N 0.40321 0.27542 0.59926 0.0
C268 C 0.40448 0.28772 0.51395 0.0
H269 H 0.39683 0.23855 0.62103 0.0
Co270 Co 0.41028 0.28406 0.72888 0.0
C271 C 0.41792 0.33518 0.71734 0.0
O272 O 0.40437 0.33843 0.79463 0.0
N273 N 0.4177 0.29223 0.85998 0.0
C274 C 0.43768 0.30435 0.99155 0.0
C275 C 0.43756 0.30299 0.89027 0.0
C276 C 0.40619 0.28695 0.94454 0.0
N277 N 0.41794 0.2942 0.02597 0.0
O278 O 0.37847 0.29547 0.74501 0.0
H279 H 0.45143 0.30892 0.84175 0.0
H280 H 0.38971 0.27759 0.94656 0.0
O281 O 0.42129 0.31454 0.68387 0.0
C282 C 0.36546 0.27805 0.7677 0.0
O283 O 0.37571 0.25761 0.78074 0.0
N284 N 0.44023 0.27095 0.71353 0.0
C285 C 0.4809 0.24432 0.68659 0.0
C286 C 0.47707 0.26485 0.63124 0.0
C287 C 0.45656 0.27797 0.64581 0.0
C288 C 0.44376 0.25127 0.76861 0.0
C289 C 0.46403 0.23782 0.75704 0.0
H290 H 0.45345 0.2932 0.60005 0.0
H291 H 0.43035 0.24557 0.81987 0.0
H292 H 0.40885 0.30616 0.51046 0.0
H293 H 0.39371 0.23677 0.42634 0.0
H294 H 0.45176 0.31139 0.03628 0.0
H295 H 0.48961 0.27048 0.57595 0.0
H296 H 0.46594 0.22188 0.79988 0.0
C297 C 0.22961 0.75961 0.06719 0.0
C298 C 0.23141 0.76045 0.96593 0.0
N299 N 0.22781 0.73869 0.92989 0.0
N300 N 0.22497 0.73742 0.09545 0.0
C301 C 0.22411 0.72504 1.01027 0.0
H302 H 0.23056 0.77443 0.11691 0.0
Co303 Co 0.21808 0.72865 0.22522 0.0
C304 C 0.20962 0.67765 0.21209 0.0
O305 O 0.22322 0.67397 0.28888 0.0
N306 N 0.21088 0.72039 0.35628 0.0
C307 C 0.1911 0.70828 0.48834 0.0
C308 C 0.19104 0.7097 0.38709 0.0
C309 C 0.22256 0.72562 0.44048 0.0
N310 N 0.21093 0.71835 0.52223 0.0
O311 O 0.24974 0.71671 0.23965 0.0
H312 H 0.17704 0.70388 0.33898 0.0
H313 H 0.23906 0.73497 0.44193 0.0
O314 O 0.20653 0.69843 0.17963 0.0
C315 C 0.2633 0.73396 0.25853 0.0
O316 O 0.25367 0.75468 0.27196 0.0
N317 N 0.18826 0.74219 0.21139 0.0
C318 C 0.14777 0.76923 0.1862 0.0
C319 C 0.15139 0.74882 0.1299 0.0
C320 C 0.17182 0.7355 0.14355 0.0
C321 C 0.18493 0.76176 0.26739 0.0
C322 C 0.16475 0.7754 0.2567 0.0
H323 H 0.17476 0.72039 0.09698 0.0
H324 H 0.19843 0.76721 0.31872 0.0
H325 H 0.22021 0.7065 1.00697 0.0
H326 H 0.2339 0.77616 0.92222 0.0
H327 H 0.17707 0.7013 0.53348 0.0
H328 H 0.13877 0.74342 0.07458 0.0
H329 H 0.163 0.79124 0.30029 0.0
C330 C 0.22984 0.25181 0.97218 0.0
C331 C 0.23165 0.25097 0.07343 0.0
N332 N 0.22804 0.27273 0.10948 0.0
N333 N 0.22519 0.274 0.94393 0.0
C334 C 0.22432 0.28638 0.02909 0.0
H335 H 0.2308 0.23699 0.92247 0.0
Co336 Co 0.21832 0.28271 0.81415 0.0
C337 C 0.21046 0.33373 0.82623 0.0
O338 O 0.22424 0.33708 0.74974 0.0
N339 N 0.21113 0.29092 0.68306 0.0
C340 C 0.1914 0.30313 0.55104 0.0
C341 C 0.19133 0.30169 0.65227 0.0
C342 C 0.22279 0.28567 0.59888 0.0
N343 N 0.21119 0.293 0.51714 0.0
O344 O 0.25003 0.29448 0.79956 0.0
H345 H 0.17737 0.30757 0.7004 0.0
H346 H 0.23926 0.27628 0.59744 0.0
O347 O 0.207 0.31305 0.85921 0.0
C348 C 0.26361 0.27726 0.78083 0.0
O349 O 0.254 0.25652 0.7673 0.0
N350 N 0.1884 0.26935 0.82831 0.0
C351 C 0.14784 0.24247 0.85496 0.0
C352 C 0.1516 0.26295 0.91064 0.0
C353 C 0.17206 0.27618 0.89626 0.0
C354 C 0.18492 0.24973 0.77274 0.0
C355 C 0.16469 0.23617 0.78416 0.0
H356 H 0.17512 0.29134 0.94246 0.0
H357 H 0.19833 0.24417 0.72128 0.0
H358 H 0.22039 0.30491 0.03238 0.0
H359 H 0.23416 0.23527 0.11713 0.0
H360 H 0.1774 0.31018 0.50591 0.0
H361 H 0.13907 0.26846 0.96615 0.0
H362 H 0.16282 0.22028 0.74098 0.0
C363 C 0.3972 0.75873 0.47477 0.0
C364 C 0.39555 0.75958 0.57605 0.0
N365 N 0.40007 0.738 0.61232 0.0
N366 N 0.40264 0.73672 0.4467 0.0
C367 C 0.40414 0.72445 0.53204 0.0
H368 H 0.39566 0.77348 0.42493 0.0
Co369 Co 0.40991 0.72824 0.31711 0.0
C370 C 0.41792 0.67719 0.32789 0.0
O371 O 0.40443 0.67394 0.25037 0.0
N372 N 0.41754 0.72024 0.18603 0.0
C373 C 0.4377 0.70839 0.05458 0.0
C374 C 0.43753 0.70973 0.15587 0.0
C375 C 0.406 0.72539 0.10139 0.0
N376 N 0.41785 0.71829 1.02003 0.0
O377 O 0.3782 0.71656 0.30011 0.0
H378 H 0.45144 0.70394 0.20451 0.0
H379 H 0.3894 0.73451 0.09924 0.0
O380 O 0.42113 0.69781 0.36188 0.0
C381 C 0.3651 0.73386 0.27693 0.0
O382 O 0.3752 0.7544 0.26455 0.0
N383 N 0.43974 0.74161 0.33325 0.0
C384 C 0.48014 0.76864 0.36136 0.0
C385 C 0.47644 0.74804 0.4164 0.0
C386 C 0.45606 0.73471 0.40122 0.0
C387 C 0.44315 0.76138 0.27852 0.0
C388 C 0.46329 0.77501 0.29065 0.0
H389 H 0.45305 0.71941 0.44669 0.0
H390 H 0.42974 0.76697 0.22705 0.0
H391 H 0.40885 0.7061 0.53555 0.0
H392 H 0.39256 0.77522 0.61959 0.0
H393 H 0.45187 0.70151 1.00994 0.0
H394 H 0.48896 0.74249 0.47186 0.0
H395 H 0.4651 0.791 0.24802 0.0
C396 C 0.55974 0.09111 0.72463 0.0
C397 C 0.55885 0.08941 0.82591 0.0
N398 N 0.58059 0.09309 0.8621 0.0
N399 N 0.58193 0.09576 0.69651 0.0
C400 C 0.59427 0.09673 0.78179 0.0
H401 H 0.54493 0.09011 0.6748 0.0
Co402 Co 0.59071 0.10265 0.56685 0.0
C403 C 0.64187 0.11003 0.57913 0.0
O404 O 0.64514 0.09637 0.50219 0.0
N405 N 0.59901 0.10989 0.43575 0.0
C406 C 0.61136 0.12965 0.30398 0.0
C407 C 0.60998 0.1296 0.40526 0.0
C408 C 0.5936 0.09838 0.35133 0.0
N409 N 0.601 0.11 0.26977 0.0
O410 O 0.60197 0.07078 0.55148 0.0
H411 H 0.61604 0.14345 0.45361 0.0
H412 H 0.58404 0.08202 0.34952 0.0
O413 O 0.62121 0.11354 0.6121 0.0
C414 C 0.58447 0.05776 0.52994 0.0
O415 O 0.56406 0.06803 0.51657 0.0
N416 N 0.57776 0.1327 0.58149 0.0
C417 C 0.55135 0.17354 0.6079 0.0
C418 C 0.57181 0.16959 0.66354 0.0
C419 C 0.58482 0.149 0.64926 0.0
C420 C 0.55816 0.13635 0.52604 0.0
C421 C 0.54483 0.15671 0.53734 0.0
H422 H 0.59997 0.1458 0.69534 0.0
H423 H 0.55243 0.12297 0.47474 0.0
H424 H 0.61279 0.1007 0.78522 0.0
H425 H 0.54312 0.08695 0.86951 0.0
H426 H 0.61855 0.14363 0.25909 0.0
H427 H 0.57747 0.18209 0.71891 0.0
H428 H 0.52894 0.15871 0.49426 0.0
C429 C 0.067 0.92148 0.23074 0.0
C430 C 0.06784 0.9233 0.332 0.0
N431 N 0.04606 0.91975 0.36803 0.0
N432 N 0.0448 0.9169 0.20248 0.0
C433 C 0.03241 0.91608 0.28764 0.0
H434 H 0.08183 0.92239 0.18104 0.0
Co435 Co 0.03603 0.91004 0.07269 0.0
C436 C 0.98504 0.9016 0.08596 0.0
O437 O 0.98138 0.91527 1.00935 0.0
N438 N 0.02775 0.90287 0.94165 0.0
C439 C 0.01561 0.88312 0.80959 0.0
C440 C 0.01704 0.88304 0.91083 0.0
C441 C 0.03297 0.91456 0.85746 0.0
N442 N 0.02569 0.90295 0.77571 0.0
O443 O 0.02406 0.94169 0.05846 0.0
H444 H 0.01123 0.86903 0.95893 0.0
H445 H 0.04234 0.93106 0.85604 0.0
O446 O 1.00582 0.89845 0.11834 0.0
C447 C 0.04131 0.95528 0.03991 0.0
O448 O 0.06205 0.94568 0.02646 0.0
N449 N 0.0496 0.88023 0.08633 0.0
C450 C 0.07678 0.83984 0.11151 0.0
C451 C 0.05637 0.8434 0.1679 0.0
C452 C 0.04298 0.86377 0.15424 0.0
C453 C 0.06916 0.87696 0.03022 0.0
C454 C 0.08287 0.85683 0.0409 0.0
H455 H 0.02788 0.86668 0.2009 0.0
H456 H 0.07456 0.89047 0.97885 0.0
H457 H 0.01386 0.91223 0.29093 0.0
H458 H 0.08355 0.92575 0.37572 0.0
H459 H 0.00862 0.86909 0.76444 0.0
H460 H 0.05104 0.83077 0.22332 0.0
H461 H 0.09871 0.85512 0.99723 0.0
C462 C 0.55881 0.92201 0.32432 0.0
C463 C 0.55793 0.92377 0.22306 0.0
N464 N 0.5797 0.92024 0.18693 0.0
N465 N 0.58102 0.91748 0.35249 0.0
C466 C 0.59338 0.91663 0.26727 0.0
H467 H 0.54399 0.92291 0.3741 0.0
Co468 Co 0.58979 0.91064 0.48223 0.0
C469 C 0.64089 0.90332 0.47007 0.0
O470 O 0.64412 0.91709 0.54668 0.0
N471 N 0.59806 0.90347 0.61331 0.0
C472 C 0.61044 0.88381 0.74523 0.0
C473 C 0.60904 0.88378 0.64398 0.0
C474 C 0.59267 0.91504 0.69758 0.0
N475 N 0.6001 0.90348 0.77925 0.0
O476 O 0.60121 0.94247 0.49711 0.0
H477 H 0.61508 0.8699 0.59577 0.0
H478 H 0.58312 0.93141 0.69913 0.0
O479 O 0.62024 0.89968 0.43713 0.0
C480 C 0.58386 0.95581 0.51682 0.0
O481 O 0.56326 0.94591 0.53032 0.0
N482 N 0.57675 0.8806 0.46786 0.0
C483 C 0.5503 0.83975 0.44123 0.0
C484 C 0.57077 0.84371 0.38567 0.0
C485 C 0.58379 0.8643 0.40004 0.0
C486 C 0.55714 0.87692 0.5233 0.0
C487 C 0.5438 0.85656 0.51188 0.0
H488 H 0.59894 0.86751 0.35396 0.0
H489 H 0.55143 0.89029 0.57466 0.0
H490 H 0.61192 0.91277 0.26392 0.0
H491 H 0.5422 0.92617 0.17941 0.0
H492 H 0.61764 0.86987 0.79028 0.0
H493 H 0.57643 0.83122 0.33027 0.0
H494 H 0.5279 0.85455 0.55494 0.0
C495 C 0.06665 0.08859 0.82256 0.0
C496 C 0.06748 0.08694 0.72128 0.0
N497 N 0.046 0.09186 0.685 0.0
N498 N 0.04474 0.09442 0.85061 0.0
C499 C 0.03251 0.09617 0.76527 0.0
H500 H 0.08137 0.08679 0.8724 0.0
Co501 Co 0.0364 0.10185 0.98018 0.0
C502 C 0.98541 0.11009 0.97042 0.0
O503 O 0.98223 0.09668 0.04823 0.0
N504 N 0.02856 0.10963 0.11128 0.0
C505 C 0.01694 0.12997 0.24263 0.0
C506 C 0.01827 0.12974 0.14133 0.0
C507 C 0.03358 0.09806 0.19598 0.0
N508 N 0.02663 0.11002 0.27728 0.0
O509 O 0.02455 0.07022 0.99781 0.0
H510 H 0.01261 0.14369 0.09261 0.0
H511 H 0.0425 0.08135 0.19822 0.0
O512 O 1.00599 0.11319 0.93578 0.0
C513 C 0.04173 0.057 1.02142 0.0
O514 O 0.06236 0.06694 0.03359 0.0
N515 N 0.04994 0.13159 0.96339 0.0
C516 C 0.07707 0.1719 0.93475 0.0
C517 C 0.05641 0.16826 0.88004 0.0
C518 C 0.04303 0.14793 0.89549 0.0
C519 C 0.06978 0.13492 1.01769 0.0
C520 C 0.08347 0.15502 1.00529 0.0
H521 H 0.02767 0.14498 0.85037 0.0
H522 H 0.07537 0.1215 0.0691 0.0
H523 H 0.01426 0.10123 0.76174 0.0
H524 H 0.08307 0.08367 0.67776 0.0
H525 H 0.01021 0.14422 0.28719 0.0
H526 H 0.05085 0.18081 0.82471 0.0
H527 H 0.0995 0.15678 0.04767 0.0
C528 C 0.0793 0.5878 0.63126 0.0
C529 C 0.09721 0.60347 0.65895 0.0
H530 H 0.06058 0.57134 0.51313 0.0
C531 C 0.11084 0.61391 0.58416 0.0
H532 H 0.06835 0.57948 0.68632 0.0
C533 C 0.10615 0.60949 0.48448 0.0
C534 C 0.08773 0.59443 0.45668 0.0
H535 H 0.12503 0.62575 0.60243 0.0
H536 H 0.11656 0.6185 0.42947 0.0
C537 C 0.07465 0.58332 0.53151 0.0
C538 C 0.73005 0.7726 0.89239 0.0
C539 C 0.71576 0.7916 0.92018 0.0
H540 H 0.7449 0.75267 0.77396 0.0
C541 C 0.70641 0.80603 0.84552 0.0
H542 H 0.73751 0.76105 0.94749 0.0
C543 C 0.7104 0.80105 0.74579 0.0
C544 C 0.72392 0.78151 0.71781 0.0
H545 H 0.69567 0.82106 0.86399 0.0
H546 H 0.70216 0.81212 0.69089 0.0
C547 C 0.73408 0.76763 0.79253 0.0
C548 C 0.5492 0.42339 0.13868 0.0
C549 C 0.5302 0.40908 0.16646 0.0
H550 H 0.56911 0.43831 1.02029 0.0
C551 C 0.51577 0.39974 0.09179 0.0
H552 H 0.56076 0.43084 0.19375 0.0
C553 C 0.52074 0.40378 0.99206 0.0
C554 C 0.54027 0.41734 0.9641 0.0
H555 H 0.50074 0.38899 0.11023 0.0
H556 H 0.50967 0.39556 0.93714 0.0
C557 C 0.55416 0.42747 0.03883 0.0
C558 C 0.91995 0.20766 0.34659 0.0
C559 C 0.91042 0.22197 0.42121 0.0
H560 H 0.92421 0.20161 0.19195 0.0
C561 C 0.89585 0.24076 0.39336 0.0
H562 H 0.9309 0.19279 0.36508 0.0
C563 C 0.89171 0.24565 0.2935 0.0
C564 C 0.90203 0.2319 0.21882 0.0
H565 H 0.88824 0.25222 0.4484 0.0
H566 H 0.88067 0.26045 0.2749 0.0
C567 C 0.91584 0.21256 0.24684 0.0
C568 C 0.07963 0.42314 0.40254 0.0
C569 C 0.09841 0.40857 0.37472 0.0
H570 H 0.05993 0.43829 0.52099 0.0
C571 C 0.11272 0.39903 0.44936 0.0
H572 H 0.06817 0.43075 0.34747 0.0
C573 C 0.10782 0.40311 0.5491 0.0
C574 C 0.08848 0.41691 0.5771 0.0
H575 H 0.1276 0.38808 0.43089 0.0
H576 H 0.11877 0.39472 0.60399 0.0
C577 C 0.07473 0.42725 0.5024 0.0
C578 C 0.92088 0.80309 0.71367 0.0
C579 C 0.91051 0.78941 0.63892 0.0
H580 H 0.92546 0.80884 0.86834 0.0
C581 C 0.89493 0.77143 0.66665 0.0
H582 H 0.93265 0.81735 0.69536 0.0
C583 C 0.89049 0.76675 0.76642 0.0
C584 C 0.90154 0.77989 0.84121 0.0
H585 H 0.88666 0.76043 0.61161 0.0
H586 H 0.87858 0.75262 0.78484 0.0
C587 C 0.91649 0.79839 0.81336 0.0
C588 C 0.51628 0.61346 0.95136 0.0
C589 C 0.53044 0.60375 0.87664 0.0
H590 H 0.51027 0.61772 0.10603 0.0
C591 C 0.54906 0.58895 0.9044 0.0
H592 H 0.50154 0.62461 0.933 0.0
C593 C 0.55388 0.58468 1.0042 0.0
C594 C 0.54025 0.59512 0.07896 0.0
H595 H 0.56042 0.58121 0.84937 0.0
H596 H 0.56852 0.57342 1.02267 0.0
C597 C 0.52112 0.60924 0.05107 0.0
C598 C 0.70986 0.21317 0.30241 0.0
C599 C 0.72443 0.23198 0.33021 0.0
H600 H 0.69404 0.19392 0.18446 0.0
C601 C 0.73513 0.24539 0.25537 0.0
H602 H 0.70116 0.2025 0.35743 0.0
C603 C 0.73073 0.24067 0.15562 0.0
C604 C 0.71552 0.22237 0.12793 0.0
H605 H 0.74674 0.25978 0.27376 0.0
H606 H 0.73872 0.25187 0.10057 0.0
C607 C 0.70551 0.20842 0.20272 0.0
C608 C 0.41746 0.29956 0.30293 0.0
C609 C 0.40331 0.28044 0.33079 0.0
H610 H 0.43282 0.31916 0.1849 0.0
C611 C 0.39286 0.26682 0.256 0.0
H612 H 0.42595 0.3104 0.35792 0.0
C613 C 0.39712 0.27165 0.15622 0.0
C614 C 0.41194 0.29028 0.12849 0.0
H615 H 0.38158 0.25218 0.27445 0.0
H616 H 0.38936 0.2603 0.10117 0.0
C617 C 0.42167 0.30442 0.20323 0.0
C618 C 0.20751 0.70794 0.69935 0.0
C619 C 0.21701 0.72226 0.62466 0.0
H620 H 0.20326 0.70189 0.85402 0.0
C621 C 0.23153 0.74111 0.65241 0.0
H622 H 0.1966 0.69303 0.68093 0.0
C623 C 0.23565 0.74603 0.75225 0.0
C624 C 0.22537 0.73225 0.82701 0.0
H625 H 0.2391 0.75259 0.5973 0.0
H626 H 0.24665 0.76087 0.77079 0.0
C627 C 0.2116 0.71287 0.79908 0.0
C628 C 0.2078 0.30346 0.34006 0.0
C629 C 0.21727 0.28911 0.41472 0.0
H630 H 0.20356 0.30955 0.18542 0.0
C631 C 0.23176 0.27026 0.38692 0.0
H632 H 0.19691 0.31838 0.35851 0.0
C633 C 0.23588 0.26537 0.28708 0.0
C634 C 0.22562 0.27916 0.21236 0.0
H635 H 0.23932 0.25877 0.44199 0.0
H636 H 0.24687 0.25053 0.26852 0.0
C637 C 0.21188 0.29855 0.24033 0.0
C638 C 0.41741 0.71288 0.74305 0.0
C639 C 0.40293 0.73175 0.7152 0.0
H640 H 0.43314 0.69358 0.86107 0.0
C641 C 0.39229 0.7452 0.78999 0.0
H642 H 0.42606 0.70218 0.68806 0.0
C643 C 0.39667 0.74047 0.88975 0.0
C644 C 0.4118 0.72211 0.91749 0.0
H645 H 0.38076 0.75964 0.77155 0.0
H646 H 0.38874 0.75171 0.94478 0.0
C647 C 0.42174 0.70812 0.84275 0.0
C648 C 0.60639 0.10939 0.99285 0.0
C649 C 0.58699 0.09563 0.96498 0.0
H650 H 0.62627 0.12437 0.11091 0.0
C651 C 0.57318 0.08542 0.03977 0.0
H652 H 0.61739 0.11768 0.93787 0.0
C653 C 0.5781 0.08957 0.13957 0.0
C654 C 0.59699 0.10403 0.16729 0.0
H655 H 0.55832 0.07443 1.0213 0.0
H656 H 0.5666 0.08202 0.19465 0.0
C657 C 0.61133 0.11349 0.09256 0.0
C658 C 0.01526 0.89955 0.59861 0.0
C659 C 0.0296 0.90903 0.67328 0.0
H660 H 0.00921 0.8953 0.44395 0.0
C661 C 0.04847 0.92351 0.64549 0.0
H662 H 1.00033 0.88866 0.61707 0.0
C663 C 0.0534 0.92761 0.54564 0.0
C664 C 0.03961 0.91735 0.47091 0.0
H665 H 0.05996 0.93107 0.70058 0.0
H666 H 0.06826 0.93859 0.52707 0.0
C667 C 0.0202 0.90362 0.49888 0.0
C668 C 0.60559 0.90418 0.0561 0.0
C669 C 0.58612 0.9178 0.08404 0.0
H670 H 0.62553 0.88933 0.93796 0.0
C671 C 0.57225 0.92796 1.00929 0.0
H672 H 0.61665 0.89594 0.11103 0.0
C673 C 0.57718 0.92385 0.90946 0.0
C674 C 0.59613 0.90949 0.88169 0.0
H675 H 0.55734 0.93885 0.02781 0.0
H676 H 0.56563 0.93133 0.85439 0.0
C677 C 0.61054 0.90012 0.95638 0.0
C678 C 0.04846 0.08848 0.40758 0.0
C679 C 0.03035 0.10391 0.37983 0.0
H680 H 0.06733 0.07222 0.52577 0.0
C681 C 0.01652 0.11408 0.45457 0.0
H682 H 0.05957 0.08036 0.35258 0.0
C683 C 0.0212 0.10965 0.55427 0.0
C684 C 0.03982 0.09485 0.58212 0.0
H685 H 1.00217 0.12573 0.43626 0.0
H686 H 0.01064 0.11848 0.60926 0.0
C687 C 0.0531 0.084 0.50734 0.0
C688 C 0.1094 0.51804 0.03327 0.0
C689 C 0.08899 0.53065 1.00784 0.0
H690 H 0.12513 0.4838 0.05232 0.0
C691 C 0.06918 0.51805 0.97596 0.0
H692 H 0.12498 0.52723 0.05789 0.0
C693 C 0.06921 0.49367 0.97388 0.0
C694 C 0.08911 0.48089 1.00251 0.0
H695 H 0.0532 0.52698 0.95436 0.0
H696 H 0.05333 0.48478 0.95057 0.0
C697 C 0.10951 0.49324 0.03002 0.0
C698 C 0.82494 0.76128 0.31733 0.0
C699 C 0.83771 0.78122 0.2883 0.0
H700 H 0.79154 0.74548 0.3402 0.0
C701 C 0.82525 0.80187 0.26491 0.0
H702 H 0.83373 0.7451 0.33716 0.0
C703 C 0.80045 0.80212 0.26769 0.0
C704 C 0.78793 0.78163 0.29262 0.0
H705 H 0.83457 0.81756 0.2425 0.0
H706 H 0.79114 0.81796 0.24724 0.0
C707 C 0.80056 0.76145 0.31893 0.0
C708 C 0.51981 0.51858 0.51348 0.0
C709 C 0.541 0.53119 0.52309 0.0
H710 H 0.50336 0.4844 0.50967 0.0
C711 C 0.56185 0.51855 0.53836 0.0
H712 H 0.50343 0.52779 0.50181 0.0
C713 C 0.56183 0.49417 0.5418 0.0
C714 C 0.54093 0.48137 0.53102 0.0
H715 H 0.57854 0.52744 0.54653 0.0
H716 H 0.57845 0.48535 0.55308 0.0
C717 C 0.51976 0.49379 0.5181 0.0
C718 C 0.82575 0.21119 0.76669 0.0
C719 C 0.83809 0.23199 0.78836 0.0
H720 H 0.79182 0.19528 0.74217 0.0
C721 C 0.82525 0.25245 0.80846 0.0
H722 H 0.83521 0.19513 0.75099 0.0
C723 C 0.80088 0.2525 0.80445 0.0
C724 C 0.78832 0.23214 0.77924 0.0
H725 H 0.83407 0.26872 0.82697 0.0
H726 H 0.79193 0.26888 0.81967 0.0
C727 C 0.80098 0.21129 0.76153 0.0
C728 C 0.30186 0.30021 0.76515 0.0
C729 C 0.28963 0.27907 0.78169 0.0
H730 H 0.33572 0.31669 0.74643 0.0
C731 C 0.30259 0.25847 0.79751 0.0
H732 H 0.29232 0.31638 0.75285 0.0
C733 C 0.32697 0.25867 0.79494 0.0
C734 C 0.33943 0.27945 0.77549 0.0
H735 H 0.29388 0.24191 0.8119 0.0
H736 H 0.33601 0.24219 0.80691 0.0
C737 C 0.32664 0.30037 0.76138 0.0
C738 C 0.30223 0.75279 0.24071 0.0
C739 C 0.28933 0.73222 0.25815 0.0
H740 H 0.33558 0.76923 0.23149 0.0
C741 C 0.30161 0.71126 0.27742 0.0
H742 H 0.29346 0.76921 0.22417 0.0
C743 C 0.32639 0.71128 0.28256 0.0
C744 C 0.33911 0.73221 0.2672 0.0
H745 H 0.29212 0.69511 0.29105 0.0
H746 H 0.33551 0.69512 0.29982 0.0
C747 C 0.32659 0.75277 0.24469 0.0
C748 C 0.56464 0.01913 0.51476 0.0
C749 C 0.58573 0.03169 0.52456 0.0
H750 H 0.54769 0.986 0.50486 0.0
C751 C 0.60693 0.01899 0.53031 0.0
H752 H 0.54792 0.0281 0.51004 0.0
C753 C 0.60679 0.99421 0.52652 0.0
C754 C 0.58543 0.98187 0.51838 0.0
H755 H 0.62349 0.02815 0.5378 0.0
H756 H 0.62324 0.98476 0.53139 0.0
C757 C 0.56449 0.99475 0.51217 0.0
C758 C 0.01885 0.99364 1.0187 0.0
C759 C 0.03958 0.98129 0.04126 0.0
H760 H 1.00306 0.02759 0.99339 0.0
C761 C 0.06 0.99411 0.06239 0.0
H762 H 1.00282 0.9842 1.00219 0.0
C763 C 0.0601 0.01848 0.0584 0.0
C764 C 0.03983 0.03106 0.03215 0.0
H765 H 0.07621 0.98527 0.08163 0.0
H766 H 0.07645 0.02741 0.07437 0.0
C767 C 0.019 0.01842 1.01355 0.0
C768 C 0.19076 0.65556 0.07382 0.0
C769 C 0.1942 0.65876 0.17559 0.0
H770 H 0.17189 0.63706 0.96074 0.0
C771 C 0.18118 0.64517 0.24265 0.0
H772 H 0.20045 0.66602 1.02086 0.0
C773 C 0.16431 0.62925 0.20844 0.0
C774 C 0.16085 0.62606 0.10667 0.0
H775 H 0.18329 0.64763 0.32152 0.0
H776 H 0.15384 0.61958 0.26143 0.0
C777 C 0.17452 0.639 0.0396 0.0
C778 C 0.66386 0.88493 0.33338 0.0
C779 C 0.66015 0.88825 0.43491 0.0
H780 H 0.68297 0.86626 0.22161 0.0
C781 C 0.67355 0.87531 0.50293 0.0
H782 H 0.65355 0.89456 0.27973 0.0
C783 C 0.68973 0.85859 0.46983 0.0
C784 C 0.69339 0.85522 0.3683 0.0
H785 H 0.67068 0.87731 0.5816 0.0
H786 H 0.69918 0.84809 0.52345 0.0
C787 C 0.68069 0.86885 0.30033 0.0
C788 C 0.4525 0.3748 0.54689 0.0
C789 C 0.46628 0.38742 0.61458 0.0
H790 H 0.42659 0.34781 0.52679 0.0
C791 C 0.46297 0.38379 0.71618 0.0
H792 H 0.45504 0.37705 0.46813 0.0
C793 C 0.44617 0.3677 0.7496 0.0
C794 C 0.43309 0.35437 0.68186 0.0
H795 H 0.47357 0.39317 0.76961 0.0
H796 H 0.44422 0.36485 0.82832 0.0
C797 C 0.43633 0.35807 0.58026 0.0
C798 C 0.953 0.13842 1.00326 0.0
C799 C 0.96622 0.12531 0.93528 0.0
H800 H 0.92747 0.16573 0.02373 0.0
C801 C 0.96234 0.12848 0.83377 0.0
H802 H 0.95598 0.13653 0.08192 0.0
C803 C 0.94549 0.14455 0.80071 0.0
C804 C 0.93293 0.15833 0.86862 0.0
H805 H 0.9725 0.11871 0.78009 0.0
H806 H 0.94307 0.147 0.72199 0.0
C807 C 0.93679 0.15513 0.97014 0.0
C808 C 0.19177 0.35651 0.96276 0.0
C809 C 0.1952 0.35286 0.86127 0.0
H810 H 0.17294 0.37553 0.07435 0.0
C811 C 0.18227 0.36623 0.79313 0.0
H812 H 0.20139 0.34622 1.01651 0.0
C813 C 0.16546 0.38235 0.82605 0.0
C814 C 0.162 0.38597 0.92755 0.0
H815 H 0.18437 0.36341 0.71447 0.0
H816 H 0.155 0.39179 0.77233 0.0
C817 C 0.1756 0.37328 0.99566 0.0
C818 C 0.9629 0.88274 0.22414 0.0
C819 C 0.96611 0.88622 0.12239 0.0
H820 H 0.94434 0.8639 0.33712 0.0
C821 C 0.95245 0.8733 0.05526 0.0
H822 H 0.97341 0.89236 0.27715 0.0
C823 C 0.93646 0.85648 0.08937 0.0
C824 C 0.93327 0.85299 0.19112 0.0
H825 H 0.95491 0.87544 0.9764 0.0
H826 H 0.92674 0.84608 0.03633 0.0
C827 C 0.94628 0.86656 0.25827 0.0
C828 C 0.46282 0.62845 0.32866 0.0
C829 C 0.46632 0.62494 0.43022 0.0
H830 H 0.44392 0.64729 0.21672 0.0
C831 C 0.45273 0.63771 0.49809 0.0
H832 H 0.47327 0.61895 0.27509 0.0
C833 C 0.43657 0.65445 0.46488 0.0
C834 C 0.43313 0.65802 0.36331 0.0
H835 H 0.45542 0.63555 0.57681 0.0
H836 H 0.42698 0.6648 0.51846 0.0
C837 C 0.44602 0.64455 0.29544 0.0
C838 C 0.68128 0.14477 0.74981 0.0
C839 C 0.69423 0.15824 0.68207 0.0
H840 H 0.65401 0.11916 0.76985 0.0
C841 C 0.69089 0.15465 0.58047 0.0
H842 H 0.68331 0.14753 0.82855 0.0
C843 C 0.67475 0.13789 0.54709 0.0
C844 C 0.6611 0.12512 0.6148 0.0
H845 H 0.70053 0.165 0.52699 0.0
H846 H 0.67213 0.13573 0.46833 0.0
C847 C 0.66451 0.12865 0.7164 0.0
C848 C 0.02364 0.3076 0.99552 0.0
C849 C 0.03479 0.31934 0.917 0.0
H850 H 0.99764 0.28251 0.03942 0.0
C851 C 0.02908 0.31287 0.81967 0.0
H852 H 0.0278 0.312 0.07137 0.0
C853 C 0.01184 0.29589 0.80133 0.0
C854 C 0.99999 0.28486 0.87985 0.0
H855 H 0.03718 0.32165 0.75743 0.0
H856 H 0.00742 0.29177 0.72548 0.0
C857 C 0.00651 0.29052 0.97719 0.0
C858 C 0.53026 0.2004 0.72549 0.0
C859 C 0.53576 0.19399 0.62789 0.0
H860 H 0.50885 0.22149 0.8206 0.0
C861 C 0.52466 0.20596 0.54986 0.0
H862 H 0.53834 0.19145 0.78735 0.0
C863 C 0.50768 0.22312 0.56894 0.0
C864 C 0.50128 0.22863 0.66654 0.0
H865 H 0.52868 0.20162 0.47383 0.0
H866 H 0.49878 0.23126 0.50709 0.0
C867 C 0.51318 0.21746 0.74456 0.0
C868 C 0.61981 0.72264 0.47482 0.0
C869 C 0.62619 0.72836 0.37739 0.0
H870 H 0.59893 0.70086 0.56936 0.0
C871 C 0.61444 0.71715 0.29905 0.0
H872 H 0.6286 0.73078 0.53692 0.0
C873 C 0.59748 0.69992 0.31768 0.0
C874 C 0.59196 0.69336 0.41511 0.0
H875 H 0.61876 0.72132 0.22313 0.0
H876 H 0.58947 0.69099 0.2556 0.0
C877 C 0.60295 0.70531 0.49344 0.0
C878 C 0.10375 0.80783 0.05187 0.0
C879 C 0.0927 0.81958 0.13054 0.0
H880 H 0.12966 0.78272 1.00761 0.0
C881 C 0.09846 0.81308 0.2278 0.0
H882 H 0.09955 0.81225 0.97607 0.0
C883 C 0.11566 0.79607 0.2459 0.0
C884 C 0.12744 0.78505 0.16722 0.0
H885 H 0.09043 0.82187 0.29015 0.0
H886 H 0.12013 0.79193 0.32169 0.0
C887 C 0.12086 0.79073 0.06997 0.0
C888 C 0.01816 0.72781 0.1601 0.0
C889 C 0.99447 0.72134 0.17185 0.0
H890 H 0.05338 0.7162 0.13006 0.0
C891 C 0.98829 0.69761 0.16063 0.0
H892 H 0.02348 0.74595 0.1686 0.0
C893 C 1.00524 0.68075 0.13873 0.0
C894 C 0.02893 0.68706 0.12721 0.0
H895 H 0.97019 0.69202 0.16778 0.0
H896 H 0.99975 0.66261 0.13174 0.0
C897 C 0.03527 0.71078 0.13878 0.0
C898 C 0.12118 0.22115 0.97284 0.0
C899 C 0.12753 0.22667 0.87515 0.0
H900 H 0.10013 0.19976 0.06826 0.0
C901 C 0.11557 0.2155 0.79729 0.0
H902 H 0.13014 0.22927 0.03459 0.0
C903 C 0.09841 0.19851 0.81663 0.0
C904 C 0.0929 0.19216 0.91432 0.0
H905 H 0.11987 0.21951 0.7212 0.0
H906 H 0.09022 0.1896 0.75492 0.0
C907 C 0.10413 0.20406 0.99216 0.0
C908 C 0.61499 0.29574 0.74242 0.0
C909 C 0.62685 0.28456 0.66434 0.0
H910 H 0.5898 0.32169 0.78536 0.0
C911 C 0.6204 0.29008 0.56678 0.0
H912 H 0.61936 0.29172 0.81843 0.0
C913 C 0.60337 0.30721 0.54779 0.0
C914 C 0.59227 0.31915 0.62588 0.0
H915 H 0.62926 0.28193 0.50489 0.0
H916 H 0.59929 0.31153 0.47178 0.0
C917 C 0.59786 0.31276 0.72344 0.0
C918 C 0.52929 0.81287 0.32334 0.0
C919 C 0.5347 0.81929 0.42102 0.0
H920 H 0.50805 0.79168 0.22788 0.0
C921 C 0.52357 0.80728 0.49887 0.0
H922 H 0.53739 0.82185 0.26159 0.0
C923 C 0.50667 0.79003 0.47951 0.0
C924 C 0.50039 0.78448 0.3818 0.0
H925 H 0.52752 0.81163 0.57497 0.0
H926 H 0.49776 0.78184 0.54121 0.0
C927 C 0.51229 0.79573 0.30399 0.0
loop_
_geom_bond_atom_site_label_1
_geom_bond_atom_site_label_2
_geom_bond_distance
_geom_bond_site_symmetry_2
_ccdc_geom_bond_type
C0 C1 1.351 . S
C0 N3 1.368 . S
C0 H5 0.931 . S
C1 C0 1.351 . S
C1 N2 1.373 . S
C1 H29 0.930 . S
N2 C1 1.373 . S
N2 C4 1.340 . S
N3 C0 1.368 . S
N3 C4 1.321 . S
N3 Co6 2.135 . S
C4 N2 1.340 . S
C4 N3 1.321 . S
C4 H28 0.930 . S
H5 C0 0.931 . S
Co6 N3 2.135 . S
Co6 N9 2.121 1_554 S
Co6 O14 2.055 . S
Co6 O17 2.039 . S
Co6 N20 2.140 . S
C7 O8 1.227 . S
C7 O17 1.265 . S
O8 C7 1.227 . S
N9 Co6 2.121 1_556 S
N9 C11 1.375 . S
N9 C12 1.313 . S
C10 C11 1.338 . S
C10 N13 1.377 . S
C10 H30 0.930 . S
C11 N9 1.375 . S
C11 C10 1.338 . S
C11 H15 0.931 . S
C12 N9 1.313 . S
C12 N13 1.344 . S
C12 H16 0.930 . S
N13 C10 1.377 . S
N13 C12 1.344 . S
O14 Co6 2.055 . S
O14 C18 1.253 . S
H15 C11 0.931 . S
H16 C12 0.930 . S
O17 Co6 2.039 . S
O17 C7 1.265 . S
C18 O14 1.253 . S
C18 O19 1.227 . S
O19 C18 1.227 . S
N20 Co6 2.140 . S
N20 C23 1.346 . S
N20 C24 1.345 . S
C21 C22 1.387 . S
C21 C25 1.391 . S
C22 C21 1.387 . S
C22 C23 1.369 . S
C22 H31 0.929 . S
C23 N20 1.346 . S
C23 C22 1.369 . S
C23 H26 0.928 . S
C24 N20 1.345 . S
C24 C25 1.371 . S
C24 H27 0.931 1_554 S
C25 C21 1.391 . S
C25 C24 1.371 . S
C25 H32 0.930 1_554 S
H26 C23 0.928 . S
H27 C24 0.931 1_556 S
H28 C4 0.930 . S
H29 C1 0.930 . S
H30 C10 0.930 . S
H31 C22 0.929 . S
H32 C25 0.930 1_556 S
C33 C34 1.351 . S
C33 N36 1.368 . S
C33 H38 0.931 . S
C34 C33 1.351 . S
C34 N35 1.373 . S
C34 H62 0.930 . S
N35 C34 1.373 . S
N35 C37 1.340 . S
N36 C33 1.368 . S
N36 C37 1.321 . S
N36 Co39 2.135 . S
C37 N35 1.340 . S
C37 N36 1.321 . S
C37 H61 0.930 . S
H38 C33 0.931 . S
Co39 N36 2.135 . S
Co39 N42 2.121 . S
Co39 O47 2.055 . S
Co39 O50 2.039 . S
Co39 N53 2.140 . S
C40 O41 1.227 . S
C40 O50 1.265 . S
O41 C40 1.227 . S
N42 Co39 2.121 . S
N42 C44 1.375 . S
N42 C45 1.313 . S
C43 C44 1.338 . S
C43 N46 1.377 . S
C43 H63 0.930 . S
C44 N42 1.375 . S
C44 C43 1.338 . S
C44 H48 0.931 . S
C45 N42 1.313 . S
C45 N46 1.344 . S
C45 H49 0.930 . S
N46 C43 1.377 . S
N46 C45 1.344 . S
O47 Co39 2.055 . S
O47 C51 1.253 . S
H48 C44 0.931 . S
H49 C45 0.930 . S
O50 Co39 2.039 . S
O50 C40 1.265 . S
C51 O47 1.253 . S
C51 O52 1.227 . S
O52 C51 1.227 . S
N53 Co39 2.140 . S
N53 C56 1.346 . S
N53 C57 1.345 . S
C54 C55 1.387 . S
C54 C58 1.391 . S
C55 C54 1.387 . S
C55 C56 1.369 . S
C55 H64 0.929 . S
C56 N53 1.346 . S
C56 C55 1.369 . S
C56 H59 0.928 . S
C57 N53 1.345 . S
C57 C58 1.371 . S
C57 H60 0.931 . S
C58 C54 1.391 . S
C58 C57 1.371 . S
C58 H65 0.930 . S
H59 C56 0.928 . S
H60 C57 0.931 . S
H61 C37 0.930 . S
H62 C34 0.930 . S
H63 C43 0.930 . S
H64 C55 0.929 . S
H65 C58 0.930 . S
C66 C67 1.351 . S
C66 N69 1.368 . S
C66 H71 0.931 . S
C67 C66 1.351 . S
C67 N68 1.373 . S
C67 H95 0.930 . S
N68 C67 1.373 . S
N68 C70 1.340 . S
N69 C66 1.368 . S
N69 C70 1.321 . S
N69 Co72 2.135 . S
C70 N68 1.340 . S
C70 N69 1.321 . S
C70 H94 0.930 . S
H71 C66 0.931 . S
Co72 N69 2.135 . S
Co72 N75 2.121 . S
Co72 O80 2.055 . S
Co72 O83 2.039 . S
Co72 N86 2.140 . S
C73 O74 1.227 . S
C73 O83 1.265 . S
O74 C73 1.227 . S
N75 Co72 2.121 . S
N75 C77 1.375 . S
N75 C78 1.313 . S
C76 C77 1.338 . S
C76 N79 1.377 . S
C76 H96 0.930 . S
C77 N75 1.375 . S
C77 C76 1.338 . S
C77 H81 0.931 . S
C78 N75 1.313 . S
C78 N79 1.344 . S
C78 H82 0.930 . S
N79 C76 1.377 . S
N79 C78 1.344 . S
O80 Co72 2.055 . S
O80 C84 1.253 . S
H81 C77 0.931 . S
H82 C78 0.930 . S
O83 Co72 2.039 . S
O83 C73 1.265 . S
C84 O80 1.253 . S
C84 O85 1.227 . S
O85 C84 1.227 . S
N86 Co72 2.140 . S
N86 C89 1.346 . S
N86 C90 1.345 . S
C87 C88 1.387 . S
C87 C91 1.391 . S
C88 C87 1.387 . S
C88 C89 1.369 . S
C88 H97 0.929 . S
C89 N86 1.346 . S
C89 C88 1.369 . S
C89 H92 0.928 . S
C90 N86 1.345 . S
C90 C91 1.371 . S
C90 H93 0.931 . S
C91 C87 1.391 . S
C91 C90 1.371 . S
C91 H98 0.930 . S
H92 C89 0.928 . S
H93 C90 0.931 . S
H94 C70 0.930 . S
H95 C67 0.930 . S
H96 C76 0.930 . S
H97 C88 0.929 . S
H98 C91 0.930 . S
C99 C100 1.351 . S
C99 N102 1.368 1_554 S
C99 H104 0.931 1_554 S
C100 C99 1.351 . S
C100 N101 1.373 . S
C100 H128 0.930 . S
N101 C100 1.373 . S
N101 C103 1.340 . S
N102 C99 1.368 1_556 S
N102 C103 1.321 1_556 S
N102 Co105 2.135 . S
C103 N101 1.340 . S
C103 N102 1.321 1_554 S
C103 H127 0.930 . S
H104 C99 0.931 1_556 S
Co105 N102 2.135 . S
Co105 N108 2.121 . S
Co105 O113 2.055 . S
Co105 O116 2.039 . S
Co105 N119 2.140 . S
C106 O107 1.227 . S
C106 O116 1.265 . S
O107 C106 1.227 . S
N108 Co105 2.121 . S
N108 C110 1.375 . S
N108 C111 1.313 . S
C109 C110 1.338 . S
C109 N112 1.377 . S
C109 H129 0.930 . S
C110 N108 1.375 . S
C110 C109 1.338 . S
C110 H114 0.931 . S
C111 N108 1.313 . S
C111 N112 1.344 . S
C111 H115 0.930 . S
N112 C109 1.377 . S
N112 C111 1.344 . S
O113 Co105 2.055 . S
O113 C117 1.253 . S
H114 C110 0.931 . S
H115 C111 0.930 . S
O116 Co105 2.039 . S
O116 C106 1.265 . S
C117 O113 1.253 . S
C117 O118 1.227 . S
O118 C117 1.227 . S
N119 Co105 2.140 . S
N119 C122 1.346 . S
N119 C123 1.345 . S
C120 C121 1.387 . S
C120 C124 1.391 . S
C121 C120 1.387 . S
C121 C122 1.369 . S
C121 H130 0.929 . S
C122 N119 1.346 . S
C122 C121 1.369 . S
C122 H125 0.928 . S
C123 N119 1.345 . S
C123 C124 1.371 . S
C123 H126 0.931 . S
C124 C120 1.391 . S
C124 C123 1.371 . S
C124 H131 0.930 . S
H125 C122 0.928 . S
H126 C123 0.931 . S
H127 C103 0.930 . S
H128 C100 0.930 . S
H129 C109 0.930 . S
H130 C121 0.929 . S
H131 C124 0.930 . S
C132 C133 1.351 . S
C132 N135 1.368 . S
C132 H137 0.931 . S
C133 C132 1.351 . S
C133 N134 1.373 . S
C133 H161 0.930 . S
N134 C133 1.373 . S
N134 C136 1.340 . S
N135 C132 1.368 . S
N135 C136 1.321 . S
N135 Co138 2.135 . S
C136 N134 1.340 . S
C136 N135 1.321 . S
C136 H160 0.930 . S
H137 C132 0.931 . S
Co138 N135 2.135 . S
Co138 N141 2.121 1_556 S
Co138 O146 2.055 . S
Co138 O149 2.039 . S
Co138 N152 2.140 . S
C139 O140 1.227 . S
C139 O149 1.265 . S
O140 C139 1.227 . S
N141 Co138 2.121 1_554 S
N141 C143 1.375 . S
N141 C144 1.313 . S
C142 C143 1.338 . S
C142 N145 1.377 . S
C142 H162 0.930 . S
C143 N141 1.375 . S
C143 C142 1.338 . S
C143 H147 0.931 . S
C144 N141 1.313 . S
C144 N145 1.344 . S
C144 H148 0.930 . S
N145 C142 1.377 . S
N145 C144 1.344 . S
O146 Co138 2.055 . S
O146 C150 1.253 . S
H147 C143 0.931 . S
H148 C144 0.930 . S
O149 Co138 2.039 . S
O149 C139 1.265 . S
C150 O146 1.253 . S
C150 O151 1.227 . S
O151 C150 1.227 . S
N152 Co138 2.140 . S
N152 C155 1.346 . S
N152 C156 1.345 . S
C153 C154 1.387 . S
C153 C157 1.391 . S
C154 C153 1.387 . S
C154 C155 1.369 . S
C154 H163 0.929 . S
C155 N152 1.346 . S
C155 C154 1.369 . S
C155 H158 0.928 . S
C156 N152 1.345 . S
C156 C157 1.371 . S
C156 H159 0.931 1_556 S
C157 C153 1.391 . S
C157 C156 1.371 . S
C157 H164 0.930 1_556 S
H158 C155 0.928 . S
H159 C156 0.931 1_554 S
H160 C136 0.930 . S
H161 C133 0.930 . S
H162 C142 0.930 . S
H163 C154 0.929 . S
H164 C157 0.930 1_554 S
C165 C166 1.351 . S
C165 N168 1.368 1_556 S
C165 H170 0.931 1_556 S
C166 C165 1.351 . S
C166 N167 1.373 . S
C166 H194 0.930 . S
N167 C166 1.373 . S
N167 C169 1.340 . S
N168 C165 1.368 1_554 S
N168 C169 1.321 1_554 S
N168 Co171 2.135 . S
C169 N167 1.340 . S
C169 N168 1.321 1_556 S
C169 H193 0.930 . S
H170 C165 0.931 1_554 S
Co171 N168 2.135 . S
Co171 N174 2.121 . S
Co171 O179 2.055 . S
Co171 O182 2.039 . S
Co171 N185 2.140 . S
C172 O173 1.227 . S
C172 O182 1.265 . S
O173 C172 1.227 . S
N174 Co171 2.121 . S
N174 C176 1.375 . S
N174 C177 1.313 . S
C175 C176 1.338 . S
C175 N178 1.377 . S
C175 H195 0.930 . S
C176 N174 1.375 . S
C176 C175 1.338 . S
C176 H180 0.931 . S
C177 N174 1.313 . S
C177 N178 1.344 . S
C177 H181 0.930 . S
N178 C175 1.377 . S
N178 C177 1.344 . S
O179 Co171 2.055 . S
O179 C183 1.253 . S
H180 C176 0.931 . S
H181 C177 0.930 . S
O182 Co171 2.039 . S
O182 C172 1.265 . S
C183 O179 1.253 . S
C183 O184 1.227 . S
O184 C183 1.227 . S
N185 Co171 2.140 . S
N185 C188 1.346 . S
N185 C189 1.345 . S
C186 C187 1.387 . S
C186 C190 1.391 . S
C187 C186 1.387 . S
C187 C188 1.369 . S
C187 H196 0.929 . S
C188 N185 1.346 . S
C188 C187 1.369 . S
C188 H191 0.928 . S
C189 N185 1.345 . S
C189 C190 1.371 . S
C189 H192 0.931 . S
C190 C186 1.391 . S
C190 C189 1.371 . S
C190 H197 0.930 . S
H191 C188 0.928 . S
H192 C189 0.931 . S
H193 C169 0.930 . S
H194 C166 0.930 . S
H195 C175 0.930 . S
H196 C187 0.929 . S
H197 C190 0.930 . S
C198 C199 1.351 . S
C198 N201 1.368 . S
C198 H203 0.931 . S
C199 C198 1.351 . S
C199 N200 1.373 . S
C199 H227 0.930 . S
N200 C199 1.373 . S
N200 C202 1.340 . S
N201 C198 1.368 . S
N201 C202 1.321 . S
N201 Co204 2.135 . S
C202 N200 1.340 . S
C202 N201 1.321 . S
C202 H226 0.930 . S
H203 C198 0.931 . S
Co204 N201 2.135 . S
Co204 N207 2.121 . S
Co204 O212 2.055 . S
Co204 O215 2.039 . S
Co204 N218 2.140 . S
C205 O206 1.227 . S
C205 O215 1.265 . S
O206 C205 1.227 . S
N207 Co204 2.121 . S
N207 C209 1.375 . S
N207 C210 1.313 . S
C208 C209 1.338 . S
C208 N211 1.377 . S
C208 H228 0.930 . S
C209 N207 1.375 . S
C209 C208 1.338 . S
C209 H213 0.931 . S
C210 N207 1.313 . S
C210 N211 1.344 . S
C210 H214 0.930 . S
N211 C208 1.377 . S
N211 C210 1.344 . S
O212 Co204 2.055 . S
O212 C216 1.253 . S
H213 C209 0.931 . S
H214 C210 0.930 . S
O215 Co204 2.039 . S
O215 C205 1.265 . S
C216 O212 1.253 . S
C216 O217 1.227 . S
O217 C216 1.227 . S
N218 Co204 2.140 . S
N218 C221 1.346 . S
N218 C222 1.345 . S
C219 C220 1.387 . S
C219 C223 1.391 . S
C220 C219 1.387 . S
C220 C221 1.369 . S
C220 H229 0.929 . S
C221 N218 1.346 . S
C221 C220 1.369 . S
C221 H224 0.928 . S
C222 N218 1.345 . S
C222 C223 1.371 . S
C222 H225 0.931 . S
C223 C219 1.391 . S
C223 C222 1.371 . S
C223 H230 0.930 . S
H224 C221 0.928 . S
H225 C222 0.931 . S
H226 C202 0.930 . S
H227 C199 0.930 . S
H228 C208 0.930 . S
H229 C220 0.929 . S
H230 C223 0.930 . S
C231 C232 1.351 . S
C231 N234 1.368 . S
C231 H236 0.931 . S
C232 C231 1.351 . S
C232 N233 1.373 . S
C232 H260 0.930 . S
N233 C232 1.373 . S
N233 C235 1.340 . S
N234 C231 1.368 . S
N234 C235 1.321 . S
N234 Co237 2.135 . S
C235 N233 1.340 . S
C235 N234 1.321 . S
C235 H259 0.930 . S
H236 C231 0.931 . S
Co237 N234 2.135 . S
Co237 N240 2.121 . S
Co237 O245 2.055 . S
Co237 O248 2.039 . S
Co237 N251 2.140 . S
C238 O239 1.227 . S
C238 O248 1.265 . S
O239 C238 1.227 . S
N240 Co237 2.121 . S
N240 C242 1.375 . S
N240 C243 1.313 . S
C241 C242 1.338 . S
C241 N244 1.377 . S
C241 H261 0.930 . S
C242 N240 1.375 . S
C242 C241 1.338 . S
C242 H246 0.931 . S
C243 N240 1.313 . S
C243 N244 1.344 . S
C243 H247 0.930 . S
N244 C241 1.377 . S
N244 C243 1.344 . S
O245 Co237 2.055 . S
O245 C249 1.253 . S
H246 C242 0.931 . S
H247 C243 0.930 . S
O248 Co237 2.039 . S
O248 C238 1.265 . S
C249 O245 1.253 . S
C249 O250 1.227 . S
O250 C249 1.227 . S
N251 Co237 2.140 . S
N251 C254 1.346 . S
N251 C255 1.345 . S
C252 C253 1.387 . S
C252 C256 1.391 . S
C253 C252 1.387 . S
C253 C254 1.369 . S
C253 H262 0.929 . S
C254 N251 1.346 . S
C254 C253 1.369 . S
C254 H257 0.928 . S
C255 N251 1.345 . S
C255 C256 1.371 . S
C255 H258 0.931 . S
C256 C252 1.391 . S
C256 C255 1.371 . S
C256 H263 0.930 . S
H257 C254 0.928 . S
H258 C255 0.931 . S
H259 C235 0.930 . S
H260 C232 0.930 . S
H261 C241 0.930 . S
H262 C253 0.929 . S
H263 C256 0.930 . S
C264 C265 1.351 . S
C264 N267 1.368 . S
C264 H269 0.931 . S
C265 C264 1.351 . S
C265 N266 1.373 . S
C265 H293 0.930 . S
N266 C265 1.373 . S
N266 C268 1.340 . S
N267 C264 1.368 . S
N267 C268 1.321 . S
N267 Co270 2.135 . S
C268 N266 1.340 . S
C268 N267 1.321 . S
C268 H292 0.930 . S
H269 C264 0.931 . S
Co270 N267 2.135 . S
Co270 N273 2.121 . S
Co270 O278 2.055 . S
Co270 O281 2.039 . S
Co270 N284 2.140 . S
C271 O272 1.227 . S
C271 O281 1.265 . S
O272 C271 1.227 . S
N273 Co270 2.121 . S
N273 C275 1.375 . S
N273 C276 1.313 . S
C274 C275 1.338 . S
C274 N277 1.377 . S
C274 H294 0.930 . S
C275 N273 1.375 . S
C275 C274 1.338 . S
C275 H279 0.931 . S
C276 N273 1.313 . S
C276 N277 1.344 . S
C276 H280 0.930 . S
N277 C274 1.377 . S
N277 C276 1.344 . S
O278 Co270 2.055 . S
O278 C282 1.253 . S
H279 C275 0.931 . S
H280 C276 0.930 . S
O281 Co270 2.039 . S
O281 C271 1.265 . S
C282 O278 1.253 . S
C282 O283 1.227 . S
O283 C282 1.227 . S
N284 Co270 2.140 . S
N284 C287 1.346 . S
N284 C288 1.345 . S
C285 C286 1.387 . S
C285 C289 1.391 . S
C286 C285 1.387 . S
C286 C287 1.369 . S
C286 H295 0.929 . S
C287 N284 1.346 . S
C287 C286 1.369 . S
C287 H290 0.928 . S
C288 N284 1.345 . S
C288 C289 1.371 . S
C288 H291 0.931 . S
C289 C285 1.391 . S
C289 C288 1.371 . S
C289 H296 0.930 . S
H290 C287 0.928 . S
H291 C288 0.931 . S
H292 C268 0.930 . S
H293 C265 0.930 . S
H294 C274 0.930 . S
H295 C286 0.929 . S
H296 C289 0.930 . S
C297 C298 1.351 . S
C297 N300 1.368 1_556 S
C297 H302 0.931 1_556 S
C298 C297 1.351 . S
C298 N299 1.373 . S
C298 H326 0.930 . S
N299 C298 1.373 . S
N299 C301 1.340 . S
N300 C297 1.368 1_554 S
N300 C301 1.321 1_554 S
N300 Co303 2.135 . S
C301 N299 1.340 . S
C301 N300 1.321 1_556 S
C301 H325 0.930 . S
H302 C297 0.931 1_554 S
Co303 N300 2.135 . S
Co303 N306 2.121 . S
Co303 O311 2.055 . S
Co303 O314 2.039 . S
Co303 N317 2.140 . S
C304 O305 1.227 . S
C304 O314 1.265 . S
O305 C304 1.227 . S
N306 Co303 2.121 . S
N306 C308 1.375 . S
N306 C309 1.313 . S
C307 C308 1.338 . S
C307 N310 1.377 . S
C307 H327 0.930 . S
C308 N306 1.375 . S
C308 C307 1.338 . S
C308 H312 0.931 . S
C309 N306 1.313 . S
C309 N310 1.344 . S
C309 H313 0.930 . S
N310 C307 1.377 . S
N310 C309 1.344 . S
O311 Co303 2.055 . S
O311 C315 1.253 . S
H312 C308 0.931 . S
H313 C309 0.930 . S
O314 Co303 2.039 . S
O314 C304 1.265 . S
C315 O311 1.253 . S
C315 O316 1.227 . S
O316 C315 1.227 . S
N317 Co303 2.140 . S
N317 C320 1.346 . S
N317 C321 1.345 . S
C318 C319 1.387 . S
C318 C322 1.391 . S
C319 C318 1.387 . S
C319 C320 1.369 . S
C319 H328 0.929 . S
C320 N317 1.346 . S
C320 C319 1.369 . S
C320 H323 0.928 . S
C321 N317 1.345 . S
C321 C322 1.371 . S
C321 H324 0.931 . S
C322 C318 1.391 . S
C322 C321 1.371 . S
C322 H329 0.930 . S
H323 C320 0.928 . S
H324 C321 0.931 . S
H325 C301 0.930 . S
H326 C298 0.930 . S
H327 C307 0.930 . S
H328 C319 0.929 . S
H329 C322 0.930 . S
C330 C331 1.351 . S
C330 N333 1.368 1_554 S
C330 H335 0.931 1_554 S
C331 C330 1.351 . S
C331 N332 1.373 . S
C331 H359 0.930 . S
N332 C331 1.373 . S
N332 C334 1.340 . S
N333 C330 1.368 1_556 S
N333 C334 1.321 1_556 S
N333 Co336 2.135 . S
C334 N332 1.340 . S
C334 N333 1.321 1_554 S
C334 H358 0.930 . S
H335 C330 0.931 1_556 S
Co336 N333 2.135 . S
Co336 N339 2.121 . S
Co336 O344 2.055 . S
Co336 O347 2.039 . S
Co336 N350 2.140 . S
C337 O338 1.227 . S
C337 O347 1.265 . S
O338 C337 1.227 . S
N339 Co336 2.121 . S
N339 C341 1.375 . S
N339 C342 1.313 . S
C340 C341 1.338 . S
C340 N343 1.377 . S
C340 H360 0.930 . S
C341 N339 1.375 . S
C341 C340 1.338 . S
C341 H345 0.931 . S
C342 N339 1.313 . S
C342 N343 1.344 . S
C342 H346 0.930 . S
N343 C340 1.377 . S
N343 C342 1.344 . S
O344 Co336 2.055 . S
O344 C348 1.253 . S
H345 C341 0.931 . S
H346 C342 0.930 . S
O347 Co336 2.039 . S
O347 C337 1.265 . S
C348 O344 1.253 . S
C348 O349 1.227 . S
O349 C348 1.227 . S
N350 Co336 2.140 . S
N350 C353 1.346 . S
N350 C354 1.345 . S
C351 C352 1.387 . S
C351 C355 1.391 . S
C352 C351 1.387 . S
C352 C353 1.369 . S
C352 H361 0.929 . S
C353 N350 1.346 . S
C353 C352 1.369 . S
C353 H356 0.928 . S
C354 N350 1.345 . S
C354 C355 1.371 . S
C354 H357 0.931 . S
C355 C351 1.391 . S
C355 C354 1.371 . S
C355 H362 0.930 . S
H356 C353 0.928 . S
H357 C354 0.931 . S
H358 C334 0.930 . S
H359 C331 0.930 . S
H360 C340 0.930 . S
H361 C352 0.929 . S
H362 C355 0.930 . S
C363 C364 1.351 . S
C363 N366 1.368 . S
C363 H368 0.931 . S
C364 C363 1.351 . S
C364 N365 1.373 . S
C364 H392 0.930 . S
N365 C364 1.373 . S
N365 C367 1.340 . S
N366 C363 1.368 . S
N366 C367 1.321 . S
N366 Co369 2.135 . S
C367 N365 1.340 . S
C367 N366 1.321 . S
C367 H391 0.930 . S
H368 C363 0.931 . S
Co369 N366 2.135 . S
Co369 N372 2.121 . S
Co369 O377 2.055 . S
Co369 O380 2.039 . S
Co369 N383 2.140 . S
C370 O371 1.227 . S
C370 O380 1.265 . S
O371 C370 1.227 . S
N372 Co369 2.121 . S
N372 C374 1.375 . S
N372 C375 1.313 . S
C373 C374 1.338 . S
C373 N376 1.377 . S
C373 H393 0.930 . S
C374 N372 1.375 . S
C374 C373 1.338 . S
C374 H378 0.931 . S
C375 N372 1.313 . S
C375 N376 1.344 . S
C375 H379 0.930 . S
N376 C373 1.377 . S
N376 C375 1.344 . S
O377 Co369 2.055 . S
O377 C381 1.253 . S
H378 C374 0.931 . S
H379 C375 0.930 . S
O380 Co369 2.039 . S
O380 C370 1.265 . S
C381 O377 1.253 . S
C381 O382 1.227 . S
O382 C381 1.227 . S
N383 Co369 2.140 . S
N383 C386 1.346 . S
N383 C387 1.345 . S
C384 C385 1.387 . S
C384 C388 1.391 . S
C385 C384 1.387 . S
C385 C386 1.369 . S
C385 H394 0.929 . S
C386 N383 1.346 . S
C386 C385 1.369 . S
C386 H389 0.928 . S
C387 N383 1.345 . S
C387 C388 1.371 . S
C387 H390 0.931 . S
C388 C384 1.391 . S
C388 C387 1.371 . S
C388 H395 0.930 . S
H389 C386 0.928 . S
H390 C387 0.931 . S
H391 C367 0.930 . S
H392 C364 0.930 . S
H393 C373 0.930 . S
H394 C385 0.929 . S
H395 C388 0.930 . S
C396 C397 1.351 . S
C396 N399 1.368 . S
C396 H401 0.931 . S
C397 C396 1.351 . S
C397 N398 1.373 . S
C397 H425 0.930 . S
N398 C397 1.373 . S
N398 C400 1.340 . S
N399 C396 1.368 . S
N399 C400 1.321 . S
N399 Co402 2.135 . S
C400 N398 1.340 . S
C400 N399 1.321 . S
C400 H424 0.930 . S
H401 C396 0.931 . S
Co402 N399 2.135 . S
Co402 N405 2.121 . S
Co402 O410 2.055 . S
Co402 O413 2.039 . S
Co402 N416 2.140 . S
C403 O404 1.227 . S
C403 O413 1.265 . S
O404 C403 1.227 . S
N405 Co402 2.121 . S
N405 C407 1.375 . S
N405 C408 1.313 . S
C406 C407 1.338 . S
C406 N409 1.377 . S
C406 H426 0.930 . S
C407 N405 1.375 . S
C407 C406 1.338 . S
C407 H411 0.931 . S
C408 N405 1.313 . S
C408 N409 1.344 . S
C408 H412 0.930 . S
N409 C406 1.377 . S
N409 C408 1.344 . S
O410 Co402 2.055 . S
O410 C414 1.253 . S
H411 C407 0.931 . S
H412 C408 0.930 . S
O413 Co402 2.039 . S
O413 C403 1.265 . S
C414 O410 1.253 . S
C414 O415 1.227 . S
O415 C414 1.227 . S
N416 Co402 2.140 . S
N416 C419 1.346 . S
N416 C420 1.345 . S
C417 C418 1.387 . S
C417 C421 1.391 . S
C418 C417 1.387 . S
C418 C419 1.369 . S
C418 H427 0.929 . S
C419 N416 1.346 . S
C419 C418 1.369 . S
C419 H422 0.928 . S
C420 N416 1.345 . S
C420 C421 1.371 . S
C420 H423 0.931 . S
C421 C417 1.391 . S
C421 C420 1.371 . S
C421 H428 0.930 . S
H422 C419 0.928 . S
H423 C420 0.931 . S
H424 C400 0.930 . S
H425 C397 0.930 . S
H426 C406 0.930 . S
H427 C418 0.929 . S
H428 C421 0.930 . S
C429 C430 1.351 . S
C429 N432 1.368 . S
C429 H434 0.931 . S
C430 C429 1.351 . S
C430 N431 1.373 . S
C430 H458 0.930 . S
N431 C430 1.373 . S
N431 C433 1.340 . S
N432 C429 1.368 . S
N432 C433 1.321 . S
N432 Co435 2.135 . S
C433 N431 1.340 . S
C433 N432 1.321 . S
C433 H457 0.930 . S
H434 C429 0.931 . S
Co435 N432 2.135 . S
Co435 N438 2.121 1_554 S
Co435 O443 2.055 . S
Co435 O446 2.018 1_455 S
Co435 N449 2.140 . S
C436 O437 1.186 1_655 S
C436 O446 1.265 . S
O437 C436 1.186 1_455 S
N438 Co435 2.121 1_556 S
N438 C440 1.375 . S
N438 C441 1.313 . S
C439 C440 1.338 . S
C439 N442 1.377 . S
C439 H459 0.930 . S
C440 N438 1.375 . S
C440 C439 1.338 . S
C440 H444 0.931 . S
C441 N438 1.313 . S
C441 N442 1.344 . S
C441 H445 0.930 . S
N442 C439 1.377 . S
N442 C441 1.344 . S
O443 Co435 2.055 . S
O443 C447 1.253 . S
H444 C440 0.931 . S
H445 C441 0.930 . S
O446 Co435 2.018 1_655 S
O446 C436 1.265 . S
C447 O443 1.253 . S
C447 O448 1.227 . S
O448 C447 1.227 . S
N449 Co435 2.140 . S
N449 C452 1.346 . S
N449 C453 1.345 . S
C450 C451 1.387 . S
C450 C454 1.391 . S
C451 C450 1.387 . S
C451 C452 1.369 . S
C451 H460 0.929 . S
C452 N449 1.346 . S
C452 C451 1.369 . S
C452 H455 0.928 . S
C453 N449 1.345 . S
C453 C454 1.371 . S
C453 H456 0.931 1_554 S
C454 C450 1.391 . S
C454 C453 1.371 . S
C454 H461 0.930 1_554 S
H455 C452 0.928 . S
H456 C453 0.931 1_556 S
H457 C433 0.930 . S
H458 C430 0.930 . S
H459 C439 0.930 . S
H460 C451 0.929 . S
H461 C454 0.930 1_556 S
C462 C463 1.351 . S
C462 N465 1.368 . S
C462 H467 0.931 . S
C463 C462 1.351 . S
C463 N464 1.373 . S
C463 H491 0.930 . S
N464 C463 1.373 . S
N464 C466 1.340 . S
N465 C462 1.368 . S
N465 C466 1.321 . S
N465 Co468 2.135 . S
C466 N464 1.340 . S
C466 N465 1.321 . S
C466 H490 0.930 . S
H467 C462 0.931 . S
Co468 N465 2.135 . S
Co468 N471 2.121 . S
Co468 O476 2.055 . S
Co468 O479 2.039 . S
Co468 N482 2.140 . S
C469 O470 1.227 . S
C469 O479 1.265 . S
O470 C469 1.227 . S
N471 Co468 2.121 . S
N471 C473 1.375 . S
N471 C474 1.313 . S
C472 C473 1.338 . S
C472 N475 1.377 . S
C472 H492 0.930 . S
C473 N471 1.375 . S
C473 C472 1.338 . S
C473 H477 0.931 . S
C474 N471 1.313 . S
C474 N475 1.344 . S
C474 H478 0.930 . S
N475 C472 1.377 . S
N475 C474 1.344 . S
O476 Co468 2.055 . S
O476 C480 1.253 . S
H477 C473 0.931 . S
H478 C474 0.930 . S
O479 Co468 2.039 . S
O479 C469 1.265 . S
C480 O476 1.253 . S
C480 O481 1.227 . S
O481 C480 1.227 . S
N482 Co468 2.140 . S
N482 C485 1.346 . S
N482 C486 1.345 . S
C483 C484 1.387 . S
C483 C487 1.391 . S
C484 C483 1.387 . S
C484 C485 1.369 . S
C484 H493 0.929 . S
C485 N482 1.346 . S
C485 C484 1.369 . S
C485 H488 0.928 . S
C486 N482 1.345 . S
C486 C487 1.371 . S
C486 H489 0.931 . S
C487 C483 1.391 . S
C487 C486 1.371 . S
C487 H494 0.930 . S
H488 C485 0.928 . S
H489 C486 0.931 . S
H490 C466 0.930 . S
H491 C463 0.930 . S
H492 C472 0.930 . S
H493 C484 0.929 . S
H494 C487 0.930 . S
C495 C496 1.351 . S
C495 N498 1.368 . S
C495 H500 0.931 . S
C496 C495 1.351 . S
C496 N497 1.373 . S
C496 H524 0.930 . S
N497 C496 1.373 . S
N497 C499 1.340 . S
N498 C495 1.368 . S
N498 C499 1.321 . S
N498 Co501 2.135 . S
C499 N497 1.340 . S
C499 N498 1.321 . S
C499 H523 0.930 . S
H500 C495 0.931 . S
Co501 N498 2.135 . S
Co501 N504 2.121 1_556 S
Co501 O509 2.055 . S
Co501 O512 2.018 1_455 S
Co501 N515 2.140 . S
C502 O503 1.186 1_655 S
C502 O512 1.265 . S
O503 C502 1.186 1_455 S
N504 Co501 2.121 1_554 S
N504 C506 1.375 . S
N504 C507 1.313 . S
C505 C506 1.338 . S
C505 N508 1.377 . S
C505 H525 0.930 . S
C506 N504 1.375 . S
C506 C505 1.338 . S
C506 H510 0.931 . S
C507 N504 1.313 . S
C507 N508 1.344 . S
C507 H511 0.930 . S
N508 C505 1.377 . S
N508 C507 1.344 . S
O509 Co501 2.055 . S
O509 C513 1.253 . S
H510 C506 0.931 . S
H511 C507 0.930 . S
O512 Co501 2.018 1_655 S
O512 C502 1.265 . S
C513 O509 1.253 . S
C513 O514 1.227 . S
O514 C513 1.227 . S
N515 Co501 2.140 . S
N515 C518 1.346 . S
N515 C519 1.345 . S
C516 C517 1.387 . S
C516 C520 1.391 . S
C517 C516 1.387 . S
C517 C518 1.369 . S
C517 H526 0.929 . S
C518 N515 1.346 . S
C518 C517 1.369 . S
C518 H521 0.928 . S
C519 N515 1.345 . S
C519 C520 1.371 . S
C519 H522 0.931 1_556 S
C520 C516 1.391 . S
C520 C519 1.371 . S
C520 H527 0.930 1_556 S
H521 C518 0.928 . S
H522 C519 0.931 1_554 S
H523 C499 0.930 . S
H524 C496 0.930 . S
H525 C505 0.930 . S
H526 C517 0.929 . S
H527 C520 0.930 1_554 S
C528 C529 1.387 . S
C528 H532 0.950 . S
C528 C537 1.390 . S
C529 C528 1.387 . S
C529 C531 1.387 . S
H530 C537 0.950 . S
C531 C529 1.387 . S
C531 C533 1.390 . S
C531 H535 0.950 . S
H532 C528 0.950 . S
C533 C531 1.390 . S
C533 C534 1.387 . S
C533 H536 0.950 . S
C534 C533 1.387 . S
C534 C537 1.387 . S
H535 C531 0.950 . S
H536 C533 0.950 . S
C537 C528 1.390 . S
C537 H530 0.950 . S
C537 C534 1.387 . S
C538 C539 1.387 . S
C538 H542 0.950 . S
C538 C547 1.390 . S
C539 C538 1.387 . S
C539 C541 1.387 . S
H540 C547 0.950 . S
C541 C539 1.387 . S
C541 C543 1.390 . S
C541 H545 0.950 . S
H542 C538 0.950 . S
C543 C541 1.390 . S
C543 C544 1.387 . S
C543 H546 0.950 . S
C544 C543 1.387 . S
C544 C547 1.387 . S
H545 C541 0.950 . S
H546 C543 0.950 . S
C547 C538 1.390 . S
C547 H540 0.950 . S
C547 C544 1.387 . S
C548 C549 1.387 . S
C548 H552 0.950 . S
C548 C557 1.390 . S
C549 C548 1.387 . S
C549 C551 1.387 . S
H550 C557 0.950 . S
C551 C549 1.387 . S
C551 C553 1.390 . S
C551 H555 0.950 . S
H552 C548 0.950 . S
C553 C551 1.390 . S
C553 C554 1.387 1_554 S
C553 H556 0.950 . S
C554 C553 1.387 1_556 S
C554 C557 1.387 1_556 S
H555 C551 0.950 . S
H556 C553 0.950 . S
C557 C548 1.390 . S
C557 H550 0.950 . S
C557 C554 1.387 1_554 S
C558 C559 1.387 . S
C558 H562 0.950 . S
C558 C567 1.390 . S
C559 C558 1.387 . S
C559 C561 1.387 . S
H560 C567 0.950 . S
C561 C559 1.387 . S
C561 C563 1.390 . S
C561 H565 0.950 . S
H562 C558 0.950 . S
C563 C561 1.390 . S
C563 C564 1.387 . S
C563 H566 0.950 . S
C564 C563 1.387 . S
C564 C567 1.387 . S
H565 C561 0.950 . S
H566 C563 0.950 . S
C567 C558 1.390 . S
C567 H560 0.950 . S
C567 C564 1.387 . S
C568 C569 1.387 . S
C568 H572 0.950 . S
C568 C577 1.390 . S
C569 C568 1.387 . S
C569 C571 1.387 . S
H570 C577 0.950 . S
C571 C569 1.387 . S
C571 C573 1.390 . S
C571 H575 0.950 . S
H572 C568 0.950 . S
C573 C571 1.390 . S
C573 C574 1.387 . S
C573 H576 0.950 . S
C574 C573 1.387 . S
C574 C577 1.387 . S
H575 C571 0.950 . S
H576 C573 0.950 . S
C577 C568 1.390 . S
C577 H570 0.950 . S
C577 C574 1.387 . S
C578 C579 1.387 . S
C578 H582 0.950 . S
C578 C587 1.390 . S
C579 C578 1.387 . S
C579 C581 1.387 . S
H580 C587 0.950 . S
C581 C579 1.387 . S
C581 C583 1.390 . S
C581 H585 0.950 . S
H582 C578 0.950 . S
C583 C581 1.390 . S
C583 C584 1.387 . S
C583 H586 0.950 . S
C584 C583 1.387 . S
C584 C587 1.387 . S
H585 C581 0.950 . S
H586 C583 0.950 . S
C587 C578 1.390 . S
C587 H580 0.950 . S
C587 C584 1.387 . S
C588 C589 1.387 . S
C588 H592 0.950 . S
C588 C597 1.390 . S
C589 C588 1.387 . S
C589 C591 1.387 . S
H590 C597 0.950 . S
C591 C589 1.387 . S
C591 C593 1.390 . S
C591 H595 0.950 . S
H592 C588 0.950 . S
C593 C591 1.390 . S
C593 C594 1.387 1_556 S
C593 H596 0.950 . S
C594 C593 1.387 1_554 S
C594 C597 1.387 1_554 S
H595 C591 0.950 . S
H596 C593 0.950 . S
C597 C588 1.390 . S
C597 H590 0.950 . S
C597 C594 1.387 1_556 S
C598 C599 1.387 . S
C598 H602 0.950 . S
C598 C607 1.390 . S
C599 C598 1.387 . S
C599 C601 1.387 . S
H600 C607 0.950 . S
C601 C599 1.387 . S
C601 C603 1.390 . S
C601 H605 0.950 . S
H602 C598 0.950 . S
C603 C601 1.390 . S
C603 C604 1.387 . S
C603 H606 0.950 . S
C604 C603 1.387 . S
C604 C607 1.387 . S
H605 C601 0.950 . S
H606 C603 0.950 . S
C607 C598 1.390 . S
C607 H600 0.950 . S
C607 C604 1.387 . S
C608 C609 1.387 . S
C608 H612 0.950 . S
C608 C617 1.390 . S
C609 C608 1.387 . S
C609 C611 1.387 . S
H610 C617 0.950 . S
C611 C609 1.387 . S
C611 C613 1.390 . S
C611 H615 0.950 . S
H612 C608 0.950 . S
C613 C611 1.390 . S
C613 C614 1.387 . S
C613 H616 0.950 . S
C614 C613 1.387 . S
C614 C617 1.387 . S
H615 C611 0.950 . S
H616 C613 0.950 . S
C617 C608 1.390 . S
C617 H610 0.950 . S
C617 C614 1.387 . S
C618 C619 1.387 . S
C618 H622 0.950 . S
C618 C627 1.390 . S
C619 C618 1.387 . S
C619 C621 1.387 . S
H620 C627 0.950 . S
C621 C619 1.387 . S
C621 C623 1.390 . S
C621 H625 0.950 . S
H622 C618 0.950 . S
C623 C621 1.390 . S
C623 C624 1.387 . S
C623 H626 0.950 . S
C624 C623 1.387 . S
C624 C627 1.387 . S
H625 C621 0.950 . S
H626 C623 0.950 . S
C627 C618 1.390 . S
C627 H620 0.950 . S
C627 C624 1.387 . S
C628 C629 1.387 . S
C628 H632 0.950 . S
C628 C637 1.390 . S
C629 C628 1.387 . S
C629 C631 1.387 . S
H630 C637 0.950 . S
C631 C629 1.387 . S
C631 C633 1.390 . S
C631 H635 0.950 . S
H632 C628 0.950 . S
C633 C631 1.390 . S
C633 C634 1.387 . S
C633 H636 0.950 . S
C634 C633 1.387 . S
C634 C637 1.387 . S
H635 C631 0.950 . S
H636 C633 0.950 . S
C637 C628 1.390 . S
C637 H630 0.950 . S
C637 C634 1.387 . S
C638 C639 1.387 . S
C638 H642 0.950 . S
C638 C647 1.390 . S
C639 C638 1.387 . S
C639 C641 1.387 . S
H640 C647 0.950 . S
C641 C639 1.387 . S
C641 C643 1.390 . S
C641 H645 0.950 . S
H642 C638 0.950 . S
C643 C641 1.390 . S
C643 C644 1.387 . S
C643 H646 0.950 . S
C644 C643 1.387 . S
C644 C647 1.387 . S
H645 C641 0.950 . S
H646 C643 0.950 . S
C647 C638 1.390 . S
C647 H640 0.950 . S
C647 C644 1.387 . S
C648 C649 1.387 1_554 S
C648 H652 0.950 . S
C648 C657 1.390 . S
C649 C648 1.387 1_556 S
C649 C651 1.387 1_556 S
H650 C657 0.950 . S
C651 C649 1.387 1_554 S
C651 C653 1.390 . S
C651 H655 0.950 . S
H652 C648 0.950 . S
C653 C651 1.390 . S
C653 C654 1.387 . S
C653 H656 0.950 . S
C654 C653 1.387 . S
C654 C657 1.387 . S
H655 C651 0.950 . S
H656 C653 0.950 . S
C657 C648 1.390 . S
C657 H650 0.950 . S
C657 C654 1.387 . S
C658 C659 1.387 . S
C658 H662 0.950 . S
C658 C667 1.390 . S
C659 C658 1.387 . S
C659 C661 1.387 . S
H660 C667 0.950 . S
C661 C659 1.387 . S
C661 C663 1.390 . S
C661 H665 0.950 . S
H662 C658 0.950 . S
C663 C661 1.390 . S
C663 C664 1.387 . S
C663 H666 0.950 . S
C664 C663 1.387 . S
C664 C667 1.387 . S
H665 C661 0.950 . S
H666 C663 0.950 . S
C667 C658 1.390 . S
C667 H660 0.950 . S
C667 C664 1.387 . S
C668 C669 1.387 1_556 S
C668 H672 0.950 . S
C668 C677 1.390 . S
C669 C668 1.387 1_554 S
C669 C671 1.387 1_554 S
H670 C677 0.950 . S
C671 C669 1.387 1_556 S
C671 C673 1.390 . S
C671 H675 0.950 . S
H672 C668 0.950 . S
C673 C671 1.390 . S
C673 C674 1.387 . S
C673 H676 0.950 . S
C674 C673 1.387 . S
C674 C677 1.387 . S
H675 C671 0.950 . S
H676 C673 0.950 . S
C677 C668 1.390 . S
C677 H670 0.950 . S
C677 C674 1.387 . S
C678 C679 1.387 . S
C678 H682 0.950 . S
C678 C687 1.390 . S
C679 C678 1.387 . S
C679 C681 1.387 . S
H680 C687 0.950 . S
C681 C679 1.387 . S
C681 C683 1.390 . S
C681 H685 0.950 . S
H682 C678 0.950 . S
C683 C681 1.390 . S
C683 C684 1.387 . S
C683 H686 0.950 . S
C684 C683 1.387 . S
C684 C687 1.387 . S
H685 C681 0.950 . S
H686 C683 0.950 . S
C687 C678 1.390 . S
C687 H680 0.950 . S
C687 C684 1.387 . S
C688 C689 1.387 . S
C688 H692 0.950 . S
C688 C697 1.390 1_554 S
C689 C688 1.387 . S
C689 C691 1.387 . S
H690 C697 0.950 . S
C691 C689 1.387 . S
C691 C693 1.390 1_554 S
C691 H695 0.950 . S
H692 C688 0.950 . S
C693 C691 1.390 1_556 S
C693 C694 1.387 . S
C693 H696 0.950 . S
C694 C693 1.387 . S
C694 C697 1.387 . S
H695 C691 0.950 . S
H696 C693 0.950 . S
C697 C688 1.390 1_556 S
C697 H690 0.950 . S
C697 C694 1.387 . S
C698 C699 1.387 . S
C698 H702 0.950 . S
C698 C707 1.390 . S
C699 C698 1.387 . S
C699 C701 1.387 . S
H700 C707 0.950 . S
C701 C699 1.387 . S
C701 C703 1.390 . S
C701 H705 0.950 . S
H702 C698 0.950 . S
C703 C701 1.390 . S
C703 C704 1.387 . S
C703 H706 0.950 . S
C704 C703 1.387 . S
C704 C707 1.387 . S
H705 C701 0.950 . S
H706 C703 0.950 . S
C707 C698 1.390 . S
C707 H700 0.950 . S
C707 C704 1.387 . S
C708 C709 1.387 . S
C708 H712 0.950 . S
C708 C717 1.390 . S
C709 C708 1.387 . S
C709 C711 1.387 . S
H710 C717 0.950 . S
C711 C709 1.387 . S
C711 C713 1.390 . S
C711 H715 0.950 . S
H712 C708 0.950 . S
C713 C711 1.390 . S
C713 C714 1.387 . S
C713 H716 0.950 . S
C714 C713 1.387 . S
C714 C717 1.387 . S
H715 C711 0.950 . S
H716 C713 0.950 . S
C717 C708 1.390 . S
C717 H710 0.950 . S
C717 C714 1.387 . S
C718 C719 1.387 . S
C718 H722 0.950 . S
C718 C727 1.390 . S
C719 C718 1.387 . S
C719 C721 1.387 . S
H720 C727 0.950 . S
C721 C719 1.387 . S
C721 C723 1.390 . S
C721 H725 0.950 . S
H722 C718 0.950 . S
C723 C721 1.390 . S
C723 C724 1.387 . S
C723 H726 0.950 . S
C724 C723 1.387 . S
C724 C727 1.387 . S
H725 C721 0.950 . S
H726 C723 0.950 . S
C727 C718 1.390 . S
C727 H720 0.950 . S
C727 C724 1.387 . S
C728 C729 1.387 . S
C728 H732 0.950 . S
C728 C737 1.390 . S
C729 C728 1.387 . S
C729 C731 1.387 . S
H730 C737 0.950 . S
C731 C729 1.387 . S
C731 C733 1.390 . S
C731 H735 0.950 . S
H732 C728 0.950 . S
C733 C731 1.390 . S
C733 C734 1.387 . S
C733 H736 0.950 . S
C734 C733 1.387 . S
C734 C737 1.387 . S
H735 C731 0.950 . S
H736 C733 0.950 . S
C737 C728 1.390 . S
C737 H730 0.950 . S
C737 C734 1.387 . S
C738 C739 1.387 . S
C738 H742 0.950 . S
C738 C747 1.390 . S
C739 C738 1.387 . S
C739 C741 1.387 . S
H740 C747 0.950 . S
C741 C739 1.387 . S
C741 C743 1.390 . S
C741 H745 0.950 . S
H742 C738 0.950 . S
C743 C741 1.390 . S
C743 C744 1.387 . S
C743 H746 0.950 . S
C744 C743 1.387 . S
C744 C747 1.387 . S
H745 C741 0.950 . S
H746 C743 0.950 . S
C747 C738 1.390 . S
C747 H740 0.950 . S
C747 C744 1.387 . S
C748 C749 1.387 . S
C748 H752 0.950 . S
C748 C757 1.390 1_545 S
C749 C748 1.387 . S
C749 C751 1.387 . S
H750 C757 0.950 . S
C751 C749 1.387 . S
C751 C753 1.390 1_545 S
C751 H755 0.950 . S
H752 C748 0.950 . S
C753 C751 1.390 1_565 S
C753 C754 1.387 . S
C753 H756 0.950 . S
C754 C753 1.387 . S
C754 C757 1.387 . S
H755 C751 0.950 . S
H756 C753 0.950 . S
C757 C748 1.390 1_565 S
C757 H750 0.950 . S
C757 C754 1.387 . S
C758 C759 1.387 . S
C758 H762 0.950 . S
C758 C767 1.390 1_564 S
C759 C758 1.387 . S
C759 C761 1.387 . S
H760 C767 0.950 . S
C761 C759 1.387 . S
C761 C763 1.390 1_564 S
C761 H765 0.950 . S
H762 C758 0.950 . S
C763 C761 1.390 1_546 S
C763 C764 1.387 . S
C763 H766 0.950 . S
C764 C763 1.387 . S
C764 C767 1.387 . S
H765 C761 0.950 . S
H766 C763 0.950 . S
C767 C758 1.390 1_546 S
C767 H760 0.950 . S
C767 C764 1.387 . S
C768 C769 1.387 . S
C768 H772 0.950 1_554 S
C768 C777 1.390 . S
C769 C768 1.387 . S
C769 C771 1.387 . S
H770 C777 0.950 1_556 S
C771 C769 1.387 . S
C771 C773 1.390 . S
C771 H775 0.950 . S
H772 C768 0.950 1_556 S
C773 C771 1.390 . S
C773 C774 1.387 . S
C773 H776 0.950 . S
C774 C773 1.387 . S
C774 C777 1.387 . S
H775 C771 0.950 . S
H776 C773 0.950 . S
C777 C768 1.390 . S
C777 H770 0.950 1_554 S
C777 C774 1.387 . S
C778 C779 1.387 . S
C778 H782 0.950 . S
C778 C787 1.390 . S
C779 C778 1.387 . S
C779 C781 1.387 . S
H780 C787 0.950 . S
C781 C779 1.387 . S
C781 C783 1.390 . S
C781 H785 0.950 . S
H782 C778 0.950 . S
C783 C781 1.390 . S
C783 C784 1.387 . S
C783 H786 0.950 . S
C784 C783 1.387 . S
C784 C787 1.387 . S
H785 C781 0.950 . S
H786 C783 0.950 . S
C787 C778 1.390 . S
C787 H780 0.950 . S
C787 C784 1.387 . S
C788 C789 1.387 . S
C788 H792 0.950 . S
C788 C797 1.390 . S
C789 C788 1.387 . S
C789 C791 1.387 . S
H790 C797 0.950 . S
C791 C789 1.387 . S
C791 C793 1.390 . S
C791 H795 0.950 . S
H792 C788 0.950 . S
C793 C791 1.390 . S
C793 C794 1.387 . S
C793 H796 0.950 . S
C794 C793 1.387 . S
C794 C797 1.387 . S
H795 C791 0.950 . S
H796 C793 0.950 . S
C797 C788 1.390 . S
C797 H790 0.950 . S
C797 C794 1.387 . S
C798 C799 1.387 . S
C798 H802 0.950 1_556 S
C798 C807 1.390 . S
C799 C798 1.387 . S
C799 C801 1.387 . S
H800 C807 0.950 1_554 S
C801 C799 1.387 . S
C801 C803 1.390 . S
C801 H805 0.950 . S
H802 C798 0.950 1_554 S
C803 C801 1.390 . S
C803 C804 1.387 . S
C803 H806 0.950 . S
C804 C803 1.387 . S
C804 C807 1.387 . S
H805 C801 0.950 . S
H806 C803 0.950 . S
C807 C798 1.390 . S
C807 H800 0.950 1_556 S
C807 C804 1.387 . S
C808 C809 1.387 . S
C808 H812 0.950 1_556 S
C808 C817 1.390 . S
C809 C808 1.387 . S
C809 C811 1.387 . S
H810 C817 0.950 1_554 S
C811 C809 1.387 . S
C811 C813 1.390 . S
C811 H815 0.950 . S
H812 C808 0.950 1_554 S
C813 C811 1.390 . S
C813 C814 1.387 . S
C813 H816 0.950 . S
C814 C813 1.387 . S
C814 C817 1.387 . S
H815 C811 0.950 . S
H816 C813 0.950 . S
C817 C808 1.390 . S
C817 H810 0.950 1_556 S
C817 C814 1.387 . S
C818 C819 1.387 . S
C818 H822 0.950 . S
C818 C827 1.390 . S
C819 C818 1.387 . S
C819 C821 1.387 . S
H820 C827 0.950 . S
C821 C819 1.387 . S
C821 C823 1.390 . S
C821 H825 0.950 1_554 S
H822 C818 0.950 . S
C823 C821 1.390 . S
C823 C824 1.387 . S
C823 H826 0.950 1_554 S
C824 C823 1.387 . S
C824 C827 1.387 . S
H825 C821 0.950 1_556 S
H826 C823 0.950 1_556 S
C827 C818 1.390 . S
C827 H820 0.950 . S
C827 C824 1.387 . S
C828 C829 1.387 . S
C828 H832 0.950 . S
C828 C837 1.390 . S
C829 C828 1.387 . S
C829 C831 1.387 . S
H830 C837 0.950 . S
C831 C829 1.387 . S
C831 C833 1.390 . S
C831 H835 0.950 . S
H832 C828 0.950 . S
C833 C831 1.390 . S
C833 C834 1.387 . S
C833 H836 0.950 . S
C834 C833 1.387 . S
C834 C837 1.387 . S
H835 C831 0.950 . S
H836 C833 0.950 . S
C837 C828 1.390 . S
C837 H830 0.950 . S
C837 C834 1.387 . S
C838 C839 1.387 . S
C838 H842 0.950 . S
C838 C847 1.390 . S
C839 C838 1.387 . S
C839 C841 1.387 . S
H840 C847 0.950 . S
C841 C839 1.387 . S
C841 C843 1.390 . S
C841 H845 0.950 . S
H842 C838 0.950 . S
C843 C841 1.390 . S
C843 C844 1.387 . S
C843 H846 0.950 . S
C844 C843 1.387 . S
C844 C847 1.387 . S
H845 C841 0.950 . S
H846 C843 0.950 . S
C847 C838 1.390 . S
C847 H840 0.950 . S
C847 C844 1.387 . S
C848 C849 1.387 . S
C848 H852 0.950 1_556 S
C848 C857 1.390 . S
C849 C848 1.387 . S
C849 C851 1.387 . S
H850 C857 0.950 1_554 S
C851 C849 1.387 . S
C851 C853 1.390 . S
C851 H855 0.950 . S
H852 C848 0.950 1_554 S
C853 C851 1.390 . S
C853 C854 1.387 . S
C853 H856 0.950 . S
C854 C853 1.387 . S
C854 C857 1.387 . S
H855 C851 0.950 . S
H856 C853 0.950 . S
C857 C848 1.390 . S
C857 H850 0.950 1_556 S
C857 C854 1.387 . S
C858 C859 1.387 . S
C858 H862 0.950 . S
C858 C867 1.390 . S
C859 C858 1.387 . S
C859 C861 1.387 . S
H860 C867 0.950 . S
C861 C859 1.387 . S
C861 C863 1.390 . S
C861 H865 0.950 . S
H862 C858 0.950 . S
C863 C861 1.390 . S
C863 C864 1.387 . S
C863 H866 0.950 . S
C864 C863 1.387 . S
C864 C867 1.387 . S
H865 C861 0.950 . S
H866 C863 0.950 . S
C867 C858 1.390 . S
C867 H860 0.950 . S
C867 C864 1.387 . S
C868 C869 1.387 . S
C868 H872 0.950 . S
C868 C877 1.390 . S
C869 C868 1.387 . S
C869 C871 1.387 . S
H870 C877 0.950 . S
C871 C869 1.387 . S
C871 C873 1.390 . S
C871 H875 0.950 . S
H872 C868 0.950 . S
C873 C871 1.390 . S
C873 C874 1.387 . S
C873 H876 0.950 . S
C874 C873 1.387 . S
C874 C877 1.387 . S
H875 C871 0.950 . S
H876 C873 0.950 . S
C877 C868 1.390 . S
C877 H870 0.950 . S
C877 C874 1.387 . S
C878 C879 1.387 . S
C878 H882 0.950 1_554 S
C878 C887 1.390 . S
C879 C878 1.387 . S
C879 C881 1.387 . S
H880 C887 0.950 1_556 S
C881 C879 1.387 . S
C881 C883 1.390 . S
C881 H885 0.950 . S
H882 C878 0.950 1_556 S
C883 C881 1.390 . S
C883 C884 1.387 . S
C883 H886 0.950 . S
C884 C883 1.387 . S
C884 C887 1.387 . S
H885 C881 0.950 . S
H886 C883 0.950 . S
C887 C878 1.390 . S
C887 H880 0.950 1_554 S
C887 C884 1.387 . S
C888 C889 1.387 . S
C888 H892 0.950 . S
C888 C897 1.390 . S
C889 C888 1.387 . S
C889 C891 1.387 . S
H890 C897 0.950 1_455 S
C891 C889 1.387 . S
C891 C893 1.390 . S
C891 H895 0.950 . S
H892 C888 0.950 . S
C893 C891 1.390 . S
C893 C894 1.387 . S
C893 H896 0.950 . S
C894 C893 1.387 . S
C894 C897 1.387 . S
H895 C891 0.950 . S
H896 C893 0.950 . S
C897 C888 1.390 . S
C897 H890 0.950 1_655 S
C897 C894 1.387 . S
C898 C899 1.387 . S
C898 H902 0.950 1_556 S
C898 C907 1.390 . S
C899 C898 1.387 . S
C899 C901 1.387 . S
H900 C907 0.950 1_554 S
C901 C899 1.387 . S
C901 C903 1.390 . S
C901 H905 0.950 . S
H902 C898 0.950 1_554 S
C903 C901 1.390 . S
C903 C904 1.387 . S
C903 H906 0.950 . S
C904 C903 1.387 . S
C904 C907 1.387 . S
H905 C901 0.950 . S
H906 C903 0.950 . S
C907 C898 1.390 . S
C907 H900 0.950 1_556 S
C907 C904 1.387 . S
C908 C909 1.387 . S
C908 H912 0.950 . S
C908 C917 1.390 . S
C909 C908 1.387 . S
C909 C911 1.387 . S
H910 C917 0.950 . S
C911 C909 1.387 . S
C911 C913 1.390 . S
C911 H915 0.950 . S
H912 C908 0.950 . S
C913 C911 1.390 . S
C913 C914 1.387 . S
C913 H916 0.950 . S
C914 C913 1.387 . S
C914 C917 1.387 . S
H915 C911 0.950 . S
H916 C913 0.950 . S
C917 C908 1.390 . S
C917 H910 0.950 . S
C917 C914 1.387 . S
C918 C919 1.387 . S
C918 H922 0.950 . S
C918 C927 1.390 . S
C919 C918 1.387 . S
C919 C921 1.387 . S
H920 C927 0.950 . S
C921 C919 1.387 . S
C921 C923 1.390 . S
C921 H925 0.950 . S
H922 C918 0.950 . S
C923 C921 1.390 . S
C923 C924 1.387 . S
C923 H926 0.950 . S
C924 C923 1.387 . S
C924 C927 1.387 . S
H925 C921 0.950 . S
H926 C923 0.950 . S
C927 C918 1.390 . S
C927 H920 0.950 . S
C927 C924 1.387 . S
C529 N13 1.453 . S
C534 N2 1.451 . S
C539 N46 1.453 1_556 S
C544 N35 1.451 . S
C549 N79 1.453 . S
C554 N68 1.451 . S
C559 N112 1.454 . S
C564 N101 1.452 . S
C569 N145 1.453 . S
C574 N134 1.450 . S
C579 N178 1.454 . S
C584 N167 1.452 . S
C589 N211 1.454 . S
C594 N200 1.452 . S
C599 N233 1.453 . S
C604 N244 1.455 1_554 S
C609 N266 1.452 . S
C614 N277 1.455 1_554 S
C619 N310 1.454 . S
C624 N299 1.451 . S
C629 N343 1.454 . S
C634 N332 1.451 . S
C639 N365 1.452 . S
C644 N376 1.454 1_556 S
C649 N398 1.452 . S
C654 N409 1.455 . S
C659 N442 1.454 . S
C664 N431 1.452 . S
C669 N464 1.452 . S
C674 N475 1.455 . S
C679 N508 1.453 . S
C684 N497 1.451 . S
C689 C18 1.176 . S
C694 C150 1.176 . S
C699 C183 1.178 . S
C704 C51 1.178 . S
C709 C216 1.176 . S
C714 C84 1.176 . S
C719 C117 1.177 . S
C724 C249 1.177 . S
C729 C348 1.177 . S
C734 C282 1.177 . S
C739 C315 1.179 . S
C744 C381 1.179 . S
C749 C414 1.178 . S
C754 C480 1.178 . S
C759 C447 1.176 . S
C764 C513 1.176 . S
C769 C304 1.481 . S
C774 C7 1.483 . S
C779 C469 1.481 . S
C784 C40 1.483 . S
C789 C73 1.483 . S
C794 C271 1.481 . S
C799 C502 1.525 . S
C804 C106 1.481 . S
C809 C337 1.481 . S
C814 C139 1.483 . S
C819 C436 1.523 . S
C824 C172 1.483 . S
C829 C205 1.481 . S
C834 C370 1.483 . S
C839 C238 1.483 . S
C844 C403 1.481 . S
C849 C153 1.500 1_655 S
C854 C120 1.501 . S
C859 C417 1.501 . S
C864 C285 1.500 . S
C869 C54 1.501 . S
C874 C219 1.500 . S
C879 C450 1.500 . S
C884 C318 1.501 . S
C889 C186 1.500 . S
C894 C21 1.501 1_655 S
C899 C351 1.501 . S
C904 C516 1.500 . S
C909 C252 1.500 . S
C914 C87 1.501 . S
C919 C483 1.501 . S
C924 C384 1.500 . S
