# Generated by pormake.
# Topology ukn, (4)-cn, num edge types: 1
# Building blocks:
#     Node 0, Type 0, BuildingBlock: GALJAG_clean_sbu_0, # of connection points: 4
#     Node 1, Type 0, BuildingBlock: GALJAG_clean_sbu_0, # of connection points: 4
#     Node 2, Type 0, BuildingBlock: GALJAG_clean_sbu_0, # of connection points: 4
#     Node 3, Type 0, BuildingBlock: GALJAG_clean_sbu_0, # of connection points: 4
#     Node 4, Type 0, BuildingBlock: GALJAG_clean_sbu_0, # of connection points: 4
#     Node 5, Type 0, BuildingBlock: GALJAG_clean_sbu_0, # of connection points: 4
#     Node 6, Type 0, BuildingBlock: GALJAG_clean_sbu_0, # of connection points: 4
#     Node 7, Type 0, BuildingBlock: GALJAG_clean_sbu_0, # of connection points: 4
#     Node 8, Type 0, BuildingBlock: GALJAG_clean_sbu_0, # of connection points: 4
#     Node 9, Type 0, BuildingBlock: GALJAG_clean_sbu_0, # of connection points: 4
#     Node 10, Type 0, BuildingBlock: GALJAG_clean_sbu_0, # of connection points: 4
#     Node 11, Type 0, BuildingBlock: GALJAG_clean_sbu_0, # of connection points: 4
#     Node 12, Type 0, BuildingBlock: GALJAG_clean_sbu_0, # of connection points: 4
#     Node 13, Type 0, BuildingBlock: GALJAG_clean_sbu_0, # of connection points: 4
#     Node 14, Type 0, BuildingBlock: GALJAG_clean_sbu_0, # of connection points: 4
#     Node 15, Type 0, BuildingBlock: GALJAG_clean_sbu_0, # of connection points: 4
#     Node 16, Type 0, BuildingBlock: GALJAG_clean_sbu_0, # of connection points: 4
#     Node 17, Type 0, BuildingBlock: GALJAG_clean_sbu_0, # of connection points: 4
#     Node 18, Type 0, BuildingBlock: GALJAG_clean_sbu_0, # of connection points: 4
#     Node 19, Type 0, BuildingBlock: GALJAG_clean_sbu_0, # of connection points: 4
#     Node 20, Type 0, BuildingBlock: GALJAG_clean_sbu_0, # of connection points: 4
#     Node 21, Type 0, BuildingBlock: GALJAG_clean_sbu_0, # of connection points: 4
#     Node 22, Type 0, BuildingBlock: GALJAG_clean_sbu_0, # of connection points: 4
#     Node 23, Type 0, BuildingBlock: GALJAG_clean_sbu_0, # of connection points: 4
#     Node 24, Type 0, BuildingBlock: GALJAG_clean_sbu_0, # of connection points: 4
#     Node 25, Type 0, BuildingBlock: GALJAG_clean_sbu_0, # of connection points: 4
#     Node 26, Type 0, BuildingBlock: GALJAG_clean_sbu_0, # of connection points: 4
#     Node 27, Type 0, BuildingBlock: GALJAG_clean_sbu_0, # of connection points: 4
#     Node 28, Type 0, BuildingBlock: GALJAG_clean_sbu_0, # of connection points: 4
#     Node 29, Type 0, BuildingBlock: GALJAG_clean_sbu_0, # of connection points: 4
#     Node 30, Type 0, BuildingBlock: GALJAG_clean_sbu_0, # of connection points: 4
#     Node 31, Type 0, BuildingBlock: GALJAG_clean_sbu_0, # of connection points: 4
#     Node 32, Type 0, BuildingBlock: GALJAG_clean_sbu_0, # of connection points: 4
#     Node 33, Type 0, BuildingBlock: GALJAG_clean_sbu_0, # of connection points: 4
#     Node 34, Type 0, BuildingBlock: GALJAG_clean_sbu_0, # of connection points: 4
#     Node 35, Type 0, BuildingBlock: GALJAG_clean_sbu_0, # of connection points: 4
#     Edge 36, Type (0, 0), BuildingBlock: XIVTED_clean_linker_0, # of connection points: 2
#     Edge 37, Type (0, 0), BuildingBlock: XIVTED_clean_linker_0, # of connection points: 2
#     Edge 38, Type (0, 0), BuildingBlock: XIVTED_clean_linker_0, # of connection points: 2
#     Edge 39, Type (0, 0), BuildingBlock: XIVTED_clean_linker_0, # of connection points: 2
#     Edge 40, Type (0, 0), BuildingBlock: XIVTED_clean_linker_0, # of connection points: 2
#     Edge 41, Type (0, 0), BuildingBlock: XIVTED_clean_linker_0, # of connection points: 2
#     Edge 42, Type (0, 0), BuildingBlock: XIVTED_clean_linker_0, # of connection points: 2
#     Edge 43, Type (0, 0), BuildingBlock: XIVTED_clean_linker_0, # of connection points: 2
#     Edge 44, Type (0, 0), BuildingBlock: XIVTED_clean_linker_0, # of connection points: 2
#     Edge 45, Type (0, 0), BuildingBlock: XIVTED_clean_linker_0, # of connection points: 2
#     Edge 46, Type (0, 0), BuildingBlock: XIVTED_clean_linker_0, # of connection points: 2
#     Edge 47, Type (0, 0), BuildingBlock: XIVTED_clean_linker_0, # of connection points: 2
#     Edge 48, Type (0, 0), BuildingBlock: XIVTED_clean_linker_0, # of connection points: 2
#     Edge 49, Type (0, 0), BuildingBlock: XIVTED_clean_linker_0, # of connection points: 2
#     Edge 50, Type (0, 0), BuildingBlock: XIVTED_clean_linker_0, # of connection points: 2
#     Edge 51, Type (0, 0), BuildingBlock: XIVTED_clean_linker_0, # of connection points: 2
#     Edge 52, Type (0, 0), BuildingBlock: XIVTED_clean_linker_0, # of connection points: 2
#     Edge 53, Type (0, 0), BuildingBlock: XIVTED_clean_linker_0, # of connection points: 2
#     Edge 54, Type (0, 0), BuildingBlock: XIVTED_clean_linker_0, # of connection points: 2
#     Edge 55, Type (0, 0), BuildingBlock: XIVTED_clean_linker_0, # of connection points: 2
#     Edge 56, Type (0, 0), BuildingBlock: XIVTED_clean_linker_0, # of connection points: 2
#     Edge 57, Type (0, 0), BuildingBlock: XIVTED_clean_linker_0, # of connection points: 2
#     Edge 58, Type (0, 0), BuildingBlock: XIVTED_clean_linker_0, # of connection points: 2
#     Edge 59, Type (0, 0), BuildingBlock: XIVTED_clean_linker_0, # of connection points: 2
#     Edge 60, Type (0, 0), BuildingBlock: XIVTED_clean_linker_0, # of connection points: 2
#     Edge 61, Type (0, 0), BuildingBlock: XIVTED_clean_linker_0, # of connection points: 2
#     Edge 62, Type (0, 0), BuildingBlock: XIVTED_clean_linker_0, # of connection points: 2
#     Edge 63, Type (0, 0), BuildingBlock: XIVTED_clean_linker_0, # of connection points: 2
#     Edge 64, Type (0, 0), BuildingBlock: XIVTED_clean_linker_0, # of connection points: 2
#     Edge 65, Type (0, 0), BuildingBlock: XIVTED_clean_linker_0, # of connection points: 2
#     Edge 66, Type (0, 0), BuildingBlock: XIVTED_clean_linker_0, # of connection points: 2
#     Edge 67, Type (0, 0), BuildingBlock: XIVTED_clean_linker_0, # of connection points: 2
#     Edge 68, Type (0, 0), BuildingBlock: XIVTED_clean_linker_0, # of connection points: 2
#     Edge 69, Type (0, 0), BuildingBlock: XIVTED_clean_linker_0, # of connection points: 2
#     Edge 70, Type (0, 0), BuildingBlock: XIVTED_clean_linker_0, # of connection points: 2
#     Edge 71, Type (0, 0), BuildingBlock: XIVTED_clean_linker_0, # of connection points: 2
#     Edge 72, Type (0, 0), BuildingBlock: XIVTED_clean_linker_0, # of connection points: 2
#     Edge 73, Type (0, 0), BuildingBlock: XIVTED_clean_linker_0, # of connection points: 2
#     Edge 74, Type (0, 0), BuildingBlock: XIVTED_clean_linker_0, # of connection points: 2
#     Edge 75, Type (0, 0), BuildingBlock: XIVTED_clean_linker_0, # of connection points: 2
#     Edge 76, Type (0, 0), BuildingBlock: XIVTED_clean_linker_0, # of connection points: 2
#     Edge 77, Type (0, 0), BuildingBlock: XIVTED_clean_linker_0, # of connection points: 2
#     Edge 78, Type (0, 0), BuildingBlock: XIVTED_clean_linker_0, # of connection points: 2
#     Edge 79, Type (0, 0), BuildingBlock: XIVTED_clean_linker_0, # of connection points: 2
#     Edge 80, Type (0, 0), BuildingBlock: XIVTED_clean_linker_0, # of connection points: 2
#     Edge 81, Type (0, 0), BuildingBlock: XIVTED_clean_linker_0, # of connection points: 2
#     Edge 82, Type (0, 0), BuildingBlock: XIVTED_clean_linker_0, # of connection points: 2
#     Edge 83, Type (0, 0), BuildingBlock: XIVTED_clean_linker_0, # of connection points: 2
#     Edge 84, Type (0, 0), BuildingBlock: XIVTED_clean_linker_0, # of connection points: 2
#     Edge 85, Type (0, 0), BuildingBlock: XIVTED_clean_linker_0, # of connection points: 2
#     Edge 86, Type (0, 0), BuildingBlock: XIVTED_clean_linker_0, # of connection points: 2
#     Edge 87, Type (0, 0), BuildingBlock: XIVTED_clean_linker_0, # of connection points: 2
#     Edge 88, Type (0, 0), BuildingBlock: XIVTED_clean_linker_0, # of connection points: 2
#     Edge 89, Type (0, 0), BuildingBlock: XIVTED_clean_linker_0, # of connection points: 2
#     Edge 90, Type (0, 0), BuildingBlock: XIVTED_clean_linker_0, # of connection points: 2
#     Edge 91, Type (0, 0), BuildingBlock: XIVTED_clean_linker_0, # of connection points: 2
#     Edge 92, Type (0, 0), BuildingBlock: XIVTED_clean_linker_0, # of connection points: 2
#     Edge 93, Type (0, 0), BuildingBlock: XIVTED_clean_linker_0, # of connection points: 2
#     Edge 94, Type (0, 0), BuildingBlock: XIVTED_clean_linker_0, # of connection points: 2
#     Edge 95, Type (0, 0), BuildingBlock: XIVTED_clean_linker_0, # of connection points: 2
#     Edge 96, Type (0, 0), BuildingBlock: XIVTED_clean_linker_0, # of connection points: 2
#     Edge 97, Type (0, 0), BuildingBlock: XIVTED_clean_linker_0, # of connection points: 2
#     Edge 98, Type (0, 0), BuildingBlock: XIVTED_clean_linker_0, # of connection points: 2
#     Edge 99, Type (0, 0), BuildingBlock: XIVTED_clean_linker_0, # of connection points: 2
#     Edge 100, Type (0, 0), BuildingBlock: XIVTED_clean_linker_0, # of connection points: 2
#     Edge 101, Type (0, 0), BuildingBlock: XIVTED_clean_linker_0, # of connection points: 2
#     Edge 102, Type (0, 0), BuildingBlock: XIVTED_clean_linker_0, # of connection points: 2
#     Edge 103, Type (0, 0), BuildingBlock: XIVTED_clean_linker_0, # of connection points: 2
#     Edge 104, Type (0, 0), BuildingBlock: XIVTED_clean_linker_0, # of connection points: 2
#     Edge 105, Type (0, 0), BuildingBlock: XIVTED_clean_linker_0, # of connection points: 2
#     Edge 106, Type (0, 0), BuildingBlock: XIVTED_clean_linker_0, # of connection points: 2
#     Edge 107, Type (0, 0), BuildingBlock: XIVTED_clean_linker_0, # of connection points: 2
# Relax obj value: 0.060
# Max RMSD: 0.091
# Mean RMSD: 0.091
data_MOF--net-ukn--node1-GALJAG_clean_sbu_0--edge1-XIVTED_clean_linker_0
_symmetry_space_group_name_H-M    P1
_symmetry_Int_Tables_number       1
_symmetry_cell_setting            triclinic
loop_
_symmetry_equiv_pos_as_xyz
'x, y, z'
_cell_length_a     104.77766
_cell_length_b     104.68318
_cell_length_c     27.97119
_cell_angle_alpha  90.013875
_cell_angle_beta   89.979539
_cell_angle_gamma 120.04168
loop_
_atom_site_label
_atom_site_type_symbol
_atom_site_fract_x
_atom_site_fract_y
_atom_site_fract_z
_atom_type_partial_charge
In0 In 0.06944 0.29127 0.09449 0.0
O1 O 0.07703 0.27435 0.10439 0.0
O2 O 0.09159 0.29681 0.12355 0.0
C3 C 0.0413 0.27571 0.0665 0.0
C4 C 0.06673 0.30213 0.17867 0.0
C5 C 0.08062 0.30394 0.00911 0.0
O6 O 0.04821 0.26938 0.08072 0.0
O7 O 0.04844 0.28961 0.06845 0.0
O8 O 0.08012 0.31129 0.04423 0.0
O9 O 0.07592 0.29049 0.01775 0.0
C10 C 0.08946 0.28386 0.12081 0.0
O11 O 0.07316 0.31034 0.14311 0.0
O12 O 0.06139 0.28849 0.1712 0.0
In13 In 0.69209 0.7743 0.0915 0.0
O14 O 0.70896 0.79887 0.10132 0.0
O15 O 0.68631 0.79121 0.11623 0.0
C16 C 0.70826 0.76181 0.06934 0.0
C17 C 0.68036 0.76127 0.17577 0.0
C18 C 0.68004 0.77226 0.00458 0.0
O19 O 0.71421 0.77531 0.08033 0.0
O20 O 0.69436 0.75473 0.07118 0.0
O21 O 0.67239 0.76489 0.04 0.0
O22 O 0.69352 0.78067 0.01344 0.0
C23 C 0.69931 0.80197 0.11476 0.0
O24 O 0.67259 0.75896 0.13869 0.0
O25 O 0.69403 0.76983 0.16984 0.0
In26 In 0.21239 0.91764 0.07845 0.0
O27 O 0.22958 0.91596 0.12386 0.0
O28 O 0.2172 0.92463 0.15653 0.0
C29 C 0.21751 0.91004 0.99156 0.0
C30 C 0.18613 0.89374 0.0977 0.0
C31 C 0.2194 0.94521 0.05507 0.0
O32 O 0.22559 0.91163 0.02724 0.0
O33 O 0.20674 0.91192 0.00015 0.0
O34 O 0.20732 0.93656 0.07542 0.0
O35 O 0.22794 0.94013 0.04888 0.0
C36 C 0.22688 0.92092 0.16132 0.0
O37 O 0.18726 0.906 0.08724 0.0
O38 O 0.19814 0.89371 0.09845 0.0
In39 In 0.28714 0.07276 0.92068 0.0
O40 O 0.3061 0.07395 0.87588 0.0
O41 O 0.28595 0.06848 0.84105 0.0
C42 C 0.30372 0.07781 0.00043 0.0
C43 C 0.2821 0.09521 0.90444 0.0
C44 C 0.26276 0.04654 0.93679 0.0
O45 O 0.29738 0.06548 0.97963 0.0
O46 O 0.3023 0.08771 0.97981 0.0
O47 O 0.26614 0.05762 0.96293 0.0
O48 O 0.27138 0.04891 0.9022 0.0
C49 C 0.29894 0.07082 0.83711 0.0
O50 O 0.27261 0.08345 0.92454 0.0
O51 O 0.29385 0.09549 0.89299 0.0
In52 In 0.91226 0.22264 0.91697 0.0
O53 O 0.90851 0.23849 0.87102 0.0
O54 O 0.91725 0.22617 0.83773 0.0
C55 C 0.9075 0.22852 0.00712 0.0
C56 C 0.88837 0.19641 0.89839 0.0
C57 C 0.94067 0.23057 0.92836 0.0
O58 O 0.90977 0.23733 0.973 0.0
O59 O 0.9073 0.21681 0.99535 0.0
O60 O 0.93063 0.21716 0.92933 0.0
O61 O 0.9363 0.23963 0.9208 0.0
C62 C 0.9131 0.23554 0.83305 0.0
O63 O 0.90106 0.19785 0.9021 0.0
O64 O 0.88789 0.20812 0.9041 0.0
In65 In 0.77167 0.69453 0.91324 0.0
O66 O 0.79646 0.71082 0.90399 0.0
O67 O 0.78808 0.688 0.88935 0.0
C68 C 0.75922 0.71083 0.93367 0.0
C69 C 0.75883 0.6833 0.82854 0.0
C70 C 0.76854 0.68209 1.00002 0.0
O71 O 0.77293 0.71674 0.92603 0.0
O72 O 0.75202 0.69697 0.92967 0.0
O73 O 0.76163 0.67461 0.96377 0.0
O74 O 0.77709 0.69562 0.99208 0.0
C75 C 0.79913 0.70082 0.89082 0.0
O76 O 0.75625 0.67534 0.86534 0.0
O77 O 0.76767 0.69691 0.83486 0.0
In78 In 0.91326 0.6928 0.91865 0.0
O79 O 0.90922 0.67345 0.87138 0.0
O80 O 0.91977 0.6949 0.84019 0.0
C81 C 0.90376 0.67979 0.00457 0.0
C82 C 0.89239 0.69957 0.89672 0.0
C83 C 0.94182 0.70921 0.94188 0.0
O84 O 0.90361 0.67264 0.96795 0.0
O85 O 0.90831 0.69328 0.99739 0.0
O86 O 0.93413 0.71507 0.93198 0.0
O87 O 0.93522 0.69535 0.93803 0.0
C88 C 0.91472 0.68123 0.83437 0.0
O89 O 0.90524 0.70943 0.90878 0.0
O90 O 0.89028 0.68661 0.89615 0.0
In91 In 0.29599 0.22059 0.93139 0.0
O92 O 0.27905 0.19592 0.92421 0.0
O93 O 0.30161 0.20337 0.90875 0.0
C94 C 0.27963 0.23327 0.94705 0.0
C95 C 0.30836 0.23295 0.84729 0.0
C96 C 0.30818 0.2239 0.01858 0.0
O97 O 0.27381 0.21958 0.93926 0.0
O98 O 0.29353 0.24041 0.94597 0.0
O99 O 0.31574 0.23061 0.98226 0.0
O100 O 0.29463 0.21552 0.01066 0.0
C101 C 0.28862 0.19266 0.91116 0.0
O102 O 0.31586 0.23539 0.88507 0.0
O103 O 0.29463 0.22455 0.85233 0.0
In104 In 0.76694 0.07775 0.91287 0.0
O105 O 0.75148 0.08141 0.86469 0.0
O106 O 0.76314 0.07152 0.83438 0.0
C107 C 0.76165 0.08399 0.00172 0.0
C108 C 0.79345 0.1012 0.89429 0.0
C109 C 0.75793 0.04937 0.93079 0.0
O110 O 0.7529 0.0817 0.96741 0.0
O111 O 0.77308 0.08354 0.99068 0.0
O112 O 0.77145 0.05868 0.92478 0.0
O113 O 0.74931 0.05441 0.92623 0.0
C114 C 0.75413 0.07605 0.82798 0.0
O115 O 0.79177 0.08845 0.90002 0.0
O116 O 0.78183 0.10193 0.89776 0.0
In117 In 0.69684 0.91893 0.08032 0.0
O118 O 0.67754 0.91386 0.12959 0.0
O119 O 0.69923 0.92475 0.15914 0.0
C120 C 0.6843 0.91102 0.99297 0.0
C121 C 0.70225 0.89722 0.10218 0.0
C122 C 0.71427 0.9478 0.0631 0.0
O123 O 0.67818 0.91377 0.02723 0.0
O124 O 0.69642 0.91189 0.00324 0.0
O125 O 0.71948 0.9392 0.06441 0.0
O126 O 0.70066 0.9418 0.07143 0.0
C127 C 0.68556 0.91934 0.16622 0.0
O128 O 0.71262 0.91003 0.09177 0.0
O129 O 0.68946 0.89555 0.10076 0.0
In130 In 0.07142 0.7682 0.09681 0.0
O131 O 0.08116 0.79321 0.10476 0.0
O132 O 0.09564 0.78447 0.10471 0.0
C133 C 0.0425 0.75778 0.08427 0.0
C134 C 0.07227 0.75745 0.1833 0.0
C135 C 0.07694 0.76082 0.01 0.0
O136 O 0.05171 0.77146 0.08314 0.0
O137 O 0.04789 0.74964 0.09336 0.0
O138 O 0.07808 0.75494 0.04799 0.0
O139 O 0.07322 0.77044 0.01603 0.0
C140 C 0.09426 0.79573 0.10758 0.0
O141 O 0.07577 0.75338 0.14538 0.0
O142 O 0.06808 0.76675 0.17745 0.0
In143 In 0.21296 0.29998 0.08093 0.0
O144 O 0.22752 0.31998 0.12764 0.0
O145 O 0.21897 0.29854 0.15784 0.0
C146 C 0.21337 0.31175 0.99466 0.0
C147 C 0.18518 0.29048 0.10934 0.0
C148 C 0.22674 0.28515 0.05742 0.0
O149 O 0.22095 0.3196 0.02943 0.0
O150 O 0.20547 0.29821 0.00393 0.0
O151 O 0.21337 0.27859 0.07015 0.0
O152 O 0.23309 0.29905 0.05773 0.0
C153 C 0.22647 0.31232 0.16402 0.0
O154 O 0.18897 0.28173 0.09192 0.0
O155 O 0.19528 0.30379 0.1116 0.0
In156 In 0.73855 0.62838 0.41852 0.0
O157 O 0.742 0.64754 0.46611 0.0
O158 O 0.73125 0.62596 0.49617 0.0
C159 C 0.74849 0.6413 0.33269 0.0
C160 C 0.75968 0.62217 0.44182 0.0
C161 C 0.71035 0.61112 0.39277 0.0
O162 O 0.7479 0.64838 0.36843 0.0
O163 O 0.74441 0.62795 0.34076 0.0
O164 O 0.71819 0.60572 0.40612 0.0
O165 O 0.7166 0.62501 0.39454 0.0
C166 C 0.7362 0.63958 0.50258 0.0
O167 O 0.74696 0.61216 0.42934 0.0
O168 O 0.76154 0.63503 0.44234 0.0
In169 In 0.3541 0.09946 0.42434 0.0
O170 O 0.37041 0.12399 0.4368 0.0
O171 O 0.34733 0.11618 0.44189 0.0
C172 C 0.3719 0.08847 0.40699 0.0
C173 C 0.34191 0.08772 0.50959 0.0
C174 C 0.34217 0.09519 0.33605 0.0
O175 O 0.3769 0.1022 0.41076 0.0
O176 O 0.3582 0.08054 0.41341 0.0
O177 O 0.33579 0.08613 0.36968 0.0
O178 O 0.35421 0.10639 0.34742 0.0
C179 C 0.3603 0.12699 0.44464 0.0
O180 O 0.33426 0.08554 0.47229 0.0
O181 O 0.35567 0.09554 0.50349 0.0
In182 In 0.88051 0.25482 0.4229 0.0
O183 O 0.85546 0.24356 0.42978 0.0
O184 O 0.86586 0.23126 0.44797 0.0
C185 C 0.87823 0.27793 0.39256 0.0
C186 C 0.89521 0.25964 0.50624 0.0
C187 C 0.89237 0.24953 0.34479 0.0
O188 O 0.87179 0.26555 0.37204 0.0
O189 O 0.88564 0.27861 0.42907 0.0
O190 O 0.89803 0.26211 0.36397 0.0
O191 O 0.88129 0.23958 0.36642 0.0
C192 C 0.85401 0.23151 0.44431 0.0
O193 O 0.89919 0.25592 0.4686 0.0
O194 O 0.88428 0.26147 0.50112 0.0
In195 In 0.94509 0.40212 0.24422 0.0
O196 O 0.96319 0.40206 0.19913 0.0
O197 O 0.94333 0.39786 0.16447 0.0
C198 C 0.9574 0.40611 0.33178 0.0
C199 C 0.94551 0.42746 0.22465 0.0
C200 C 0.92153 0.37524 0.25768 0.0
O201 O 0.96366 0.40501 0.29468 0.0
O202 O 0.94515 0.40526 0.32446 0.0
O203 O 0.92126 0.38688 0.26717 0.0
O204 O 0.93352 0.37718 0.24073 0.0
C205 C 0.95603 0.3994 0.16046 0.0
O206 O 0.93362 0.41525 0.22608 0.0
O207 O 0.95695 0.42681 0.23366 0.0
In208 In 0.58085 0.54824 0.24245 0.0
O209 O 0.57029 0.52318 0.23193 0.0
O210 O 0.55653 0.53275 0.23507 0.0
C211 C 0.60976 0.55836 0.25252 0.0
C212 C 0.58018 0.55943 0.15684 0.0
C213 C 0.57591 0.5555 0.33011 0.0
O214 O 0.60043 0.54476 0.25637 0.0
O215 O 0.60445 0.56649 0.24239 0.0
O216 O 0.57478 0.56162 0.29269 0.0
O217 O 0.57938 0.54573 0.3231 0.0
C218 C 0.55737 0.52124 0.23016 0.0
O219 O 0.57699 0.56363 0.19513 0.0
O220 O 0.58389 0.54973 0.16194 0.0
In221 In 0.43618 0.02291 0.24382 0.0
O222 O 0.46064 0.03953 0.23111 0.0
O223 O 0.45274 0.0166 0.2203 0.0
C224 C 0.42341 0.03858 0.26849 0.0
C225 C 0.42278 0.01144 0.1602 0.0
C226 C 0.4347 0.01095 0.33009 0.0
O227 O 0.43691 0.04484 0.25714 0.0
O228 O 0.41654 0.02468 0.26577 0.0
O229 O 0.42719 0.00324 0.29497 0.0
O230 O 0.44294 0.02448 0.32128 0.0
C231 C 0.46356 0.02957 0.21972 0.0
O232 O 0.42055 0.00357 0.19699 0.0
O233 O 0.43152 0.02509 0.16608 0.0
In234 In 0.5864 0.03643 0.24814 0.0
O235 O 0.57418 0.04907 0.23443 0.0
O236 O 0.56173 0.02565 0.23829 0.0
C237 C 0.61378 0.05935 0.25871 0.0
C238 C 0.5882 0.02553 0.1627 0.0
C239 C 0.58212 0.02433 0.3365 0.0
O240 O 0.60248 0.06046 0.26574 0.0
O241 O 0.61127 0.04673 0.2459 0.0
O242 O 0.58144 0.01719 0.29923 0.0
O243 O 0.585 0.03736 0.32897 0.0
C244 C 0.56169 0.03755 0.23206 0.0
O245 O 0.58597 0.0183 0.20107 0.0
O246 O 0.58978 0.03823 0.16785 0.0
In247 In 0.96527 0.55492 0.23303 0.0
O248 O 0.98481 0.56982 0.18542 0.0
O249 O 0.96323 0.56164 0.15734 0.0
C250 C 0.97884 0.55757 0.31739 0.0
C251 C 0.95846 0.52766 0.20658 0.0
C252 C 0.94686 0.5639 0.26459 0.0
O253 O 0.98327 0.56815 0.28819 0.0
O254 O 0.96797 0.54565 0.30336 0.0
O255 O 0.94206 0.55098 0.24875 0.0
O256 O 0.96064 0.57215 0.26241 0.0
C257 C 0.97695 0.5692 0.15028 0.0
O258 O 0.94867 0.53064 0.21957 0.0
O259 O 0.97149 0.53845 0.20645 0.0
In260 In 0.43567 0.4025 0.24031 0.0
O261 O 0.41978 0.40555 0.19292 0.0
O262 O 0.433 0.39777 0.16038 0.0
C263 C 0.42958 0.40931 0.32706 0.0
C264 C 0.46267 0.42572 0.22523 0.0
C265 C 0.42612 0.37402 0.2591 0.0
O266 O 0.42286 0.40949 0.28981 0.0
O267 O 0.43942 0.40592 0.32026 0.0
O268 O 0.4397 0.38323 0.2541 0.0
O269 O 0.41762 0.37913 0.25239 0.0
C270 C 0.42339 0.40158 0.15504 0.0
O271 O 0.46066 0.41282 0.22972 0.0
O272 O 0.45119 0.42668 0.2283 0.0
In273 In 0.3624 0.24724 0.43651 0.0
O274 O 0.37702 0.23684 0.44686 0.0
O275 O 0.35374 0.22346 0.45499 0.0
C276 C 0.3803 0.27592 0.4178 0.0
C277 C 0.35166 0.24924 0.52145 0.0
C278 C 0.34959 0.23967 0.3498 0.0
O279 O 0.38525 0.26712 0.42046 0.0
O280 O 0.3667 0.27026 0.42614 0.0
O281 O 0.3425 0.23929 0.38683 0.0
O282 O 0.36293 0.24357 0.35687 0.0
C283 C 0.36612 0.22423 0.45597 0.0
O284 O 0.3438 0.2449 0.48411 0.0
O285 O 0.36498 0.25271 0.51573 0.0
In286 In 0.73629 0.11054 0.41921 0.0
O287 O 0.7471 0.13563 0.42589 0.0
O288 O 0.75948 0.1255 0.44622 0.0
C289 C 0.71253 0.11152 0.38818 0.0
C290 C 0.73129 0.0954 0.50167 0.0
C291 C 0.74238 0.09928 0.34132 0.0
O292 O 0.72466 0.11768 0.36611 0.0
O293 O 0.71251 0.10522 0.42667 0.0
O294 O 0.72978 0.09307 0.36051 0.0
O295 O 0.75199 0.11058 0.36296 0.0
C296 C 0.75909 0.13726 0.44178 0.0
O297 O 0.73567 0.09195 0.46433 0.0
O298 O 0.72898 0.10603 0.49666 0.0
In299 In 0.88014 0.62569 0.42367 0.0
O300 O 0.89597 0.64501 0.47028 0.0
O301 O 0.88302 0.62395 0.50327 0.0
C302 C 0.88483 0.63796 0.33596 0.0
C303 C 0.85299 0.62069 0.44384 0.0
C304 C 0.89131 0.6079 0.40989 0.0
O305 O 0.89145 0.64539 0.3726 0.0
O306 O 0.87589 0.62452 0.34378 0.0
O307 O 0.87755 0.60295 0.40961 0.0
O308 O 0.89912 0.62155 0.41781 0.0
C309 C 0.89253 0.63744 0.50829 0.0
O310 O 0.85529 0.61018 0.43475 0.0
O311 O 0.86423 0.63338 0.44215 0.0
In312 In 0.40814 0.95942 0.74918 0.0
O313 O 0.41096 0.97829 0.79646 0.0
O314 O 0.4004 0.95656 0.82614 0.0
C315 C 0.41878 0.97186 0.6636 0.0
C316 C 0.42929 0.95367 0.77587 0.0
C317 C 0.37984 0.94414 0.72273 0.0
O318 O 0.41879 0.97934 0.69915 0.0
O319 O 0.41379 0.95834 0.67183 0.0
O320 O 0.38682 0.93759 0.73414 0.0
O321 O 0.38706 0.958 0.72631 0.0
C322 C 0.40497 0.97014 0.83253 0.0
O323 O 0.41699 0.9435 0.76055 0.0
O324 O 0.43065 0.96632 0.77746 0.0
In325 In 0.01187 0.42991 0.75045 0.0
O326 O 0.02835 0.45462 0.75877 0.0
O327 O 0.00546 0.44706 0.76695 0.0
C328 C 0.0294 0.41846 0.7359 0.0
C329 C -0.00013 0.41777 0.83535 0.0
C330 C -0.00059 0.42477 0.66294 0.0
O331 O 0.03455 0.43219 0.74067 0.0
O332 O 0.01558 0.41067 0.73972 0.0
O333 O -0.00803 0.41882 0.7002 0.0
O334 O 0.01296 0.43341 0.67005 0.0
C335 C 0.01845 0.45784 0.76734 0.0
O336 O -0.00768 0.41479 0.79751 0.0
O337 O 0.01349 0.42667 0.83011 0.0
In338 In 0.54719 0.58317 0.74561 0.0
O339 O 0.56242 0.57914 0.79312 0.0
O340 O 0.5483 0.58575 0.82629 0.0
C341 C 0.55452 0.57844 0.65783 0.0
C342 C 0.52009 0.55965 0.75581 0.0
C343 C 0.55754 0.61219 0.737 0.0
O344 O 0.56038 0.57692 0.69526 0.0
O345 O 0.54502 0.58226 0.66488 0.0
O346 O 0.54391 0.60297 0.73352 0.0
O347 O 0.56561 0.60672 0.74589 0.0
C348 C 0.55804 0.5821 0.83145 0.0
O349 O 0.52209 0.57262 0.75499 0.0
O350 O 0.5316 0.5588 0.75121 0.0
In351 In 0.62595 0.74342 0.58711 0.0
O352 O 0.6455 0.74759 0.54023 0.0
O353 O 0.624 0.73595 0.50978 0.0
C354 C 0.63859 0.75392 0.67307 0.0
C355 C 0.61838 0.76351 0.56228 0.0
C356 C 0.60943 0.71497 0.61168 0.0
O357 O 0.64589 0.75357 0.63761 0.0
O358 O 0.62519 0.74941 0.66458 0.0
O359 O 0.60367 0.72232 0.59667 0.0
O360 O 0.62333 0.72184 0.61238 0.0
C361 C 0.6377 0.7414 0.50373 0.0
O362 O 0.60907 0.75114 0.57954 0.0
O363 O 0.63126 0.7656 0.55793 0.0
In364 In 0.24962 0.88816 0.57237 0.0
O365 O 0.24659 0.90423 0.52518 0.0
O366 O 0.25331 0.89022 0.49204 0.0
C367 C 0.24325 0.89366 0.66076 0.0
C368 C 0.22667 0.86082 0.56004 0.0
C369 C 0.27838 0.89816 0.58617 0.0
O370 O 0.24161 0.89972 0.62399 0.0
O371 O 0.24805 0.88499 0.6527 0.0
O372 O 0.26921 0.88452 0.58235 0.0
O373 O 0.27304 0.90654 0.58156 0.0
C374 C 0.24995 0.90017 0.48694 0.0
O375 O 0.23972 0.8632 0.56318 0.0
O376 O 0.22542 0.87216 0.56255 0.0
In377 In 0.09946 0.35646 0.59069 0.0
O378 O 0.08529 0.33665 0.54273 0.0
O379 O 0.09367 0.35823 0.51377 0.0
C380 C 0.09899 0.34465 0.67689 0.0
C381 C 0.12739 0.36625 0.56354 0.0
C382 C 0.08502 0.37054 0.61529 0.0
O383 O 0.09161 0.33678 0.64185 0.0
O384 O 0.10673 0.35823 0.66788 0.0
O385 O 0.09845 0.37749 0.60314 0.0
O386 O 0.07897 0.35667 0.61366 0.0
C387 C 0.08634 0.34447 0.50679 0.0
O388 O 0.12334 0.37496 0.57943 0.0
O389 O 0.11746 0.35286 0.56204 0.0
In390 In 0.2428 0.36494 0.57708 0.0
O391 O 0.23522 0.38191 0.56801 0.0
O392 O 0.22088 0.35964 0.54643 0.0
C393 C 0.27108 0.3804 0.60398 0.0
C394 C 0.24534 0.35378 0.49332 0.0
C395 C 0.2315 0.35236 0.66247 0.0
O396 O 0.26422 0.38677 0.58966 0.0
O397 O 0.26379 0.36649 0.60293 0.0
O398 O 0.23186 0.34494 0.62734 0.0
O399 O 0.23641 0.36585 0.65386 0.0
C400 C 0.22295 0.37254 0.55022 0.0
O401 O 0.23902 0.34571 0.52925 0.0
O402 O 0.25065 0.36745 0.5002 0.0
In403 In 0.62916 0.886 0.57711 0.0
O404 O 0.6118 0.86132 0.58126 0.0
O405 O 0.63181 0.86789 0.54379 0.0
C406 C 0.60822 0.89305 0.59447 0.0
C407 C 0.64169 0.89854 0.49304 0.0
C408 C 0.64593 0.89467 0.65753 0.0
O409 O 0.60789 0.88199 0.61382 0.0
O410 O 0.6187 0.90002 0.56562 0.0
O411 O 0.64165 0.90256 0.63704 0.0
O412 O 0.64241 0.88276 0.6363 0.0
C413 C 0.61951 0.85745 0.55717 0.0
O414 O 0.64924 0.90093 0.53074 0.0
O415 O 0.62799 0.89013 0.49832 0.0
In416 In 0.10924 0.7375 0.59415 0.0
O417 O 0.13425 0.74984 0.58162 0.0
O418 O 0.12352 0.76224 0.59346 0.0
C419 C 0.10287 0.70931 0.59802 0.0
C420 C 0.09786 0.73831 0.50886 0.0
C421 C 0.09967 0.73992 0.68142 0.0
O422 O 0.11531 0.71977 0.61078 0.0
O423 O 0.09392 0.71315 0.58322 0.0
O424 O 0.09383 0.74107 0.6434 0.0
O425 O 0.11018 0.73749 0.67525 0.0
C426 C 0.1354 0.76241 0.58491 0.0
O427 O 0.0927 0.73998 0.54775 0.0
O428 O 0.10861 0.73612 0.51323 0.0
In429 In 0.02685 0.58077 0.74005 0.0
O430 O 0.04018 0.569 0.74757 0.0
O431 O 0.01778 0.55793 0.77067 0.0
C432 C 0.04797 0.60693 0.70654 0.0
C433 C 0.01686 0.58628 0.82189 0.0
C434 C 0.01186 0.57104 0.65742 0.0
O435 O 0.0512 0.599 0.73215 0.0
O436 O 0.03441 0.60186 0.69989 0.0
O437 O 0.00896 0.57814 0.6879 0.0
O438 O 0.02188 0.56835 0.66951 0.0
C439 C 0.02952 0.5575 0.76547 0.0
O440 O 0.00848 0.57944 0.78726 0.0
O441 O 0.03032 0.59067 0.81473 0.0
In442 In 0.402 0.43677 0.74488 0.0
O443 O 0.40521 0.42082 0.79169 0.0
O444 O 0.39862 0.43488 0.82535 0.0
C445 C 0.4075 0.43001 0.65714 0.0
C446 C 0.42548 0.46378 0.75779 0.0
C447 C 0.37319 0.42717 0.73377 0.0
O448 O 0.40864 0.42388 0.69448 0.0
O449 O 0.40366 0.4395 0.66421 0.0
O450 O 0.38267 0.44078 0.73288 0.0
O451 O 0.37829 0.4187 0.74133 0.0
C452 C 0.402 0.42493 0.83011 0.0
O453 O 0.4126 0.46186 0.75466 0.0
O454 O 0.42629 0.45221 0.75431 0.0
In455 In 0.55458 0.96818 0.75379 0.0
O456 O 0.56913 0.98803 0.80108 0.0
O457 O 0.55993 0.96667 0.83192 0.0
C458 C 0.5591 0.98101 0.66673 0.0
C459 C 0.52654 0.96089 0.77259 0.0
C460 C 0.56499 0.95005 0.73342 0.0
O461 O 0.56643 0.98798 0.7031 0.0
O462 O 0.5493 0.96783 0.67471 0.0
O463 O 0.5521 0.94525 0.74939 0.0
O464 O 0.57266 0.96391 0.72991 0.0
C465 C 0.56767 0.98043 0.8379 0.0
O466 O 0.52991 0.9514 0.75976 0.0
O467 O 0.53723 0.9739 0.77549 0.0
H468 H 0.09317 0.26113 0.08869 0.0
H469 H 0.17676 0.30428 0.1729 0.0
H470 H 0.11262 0.29959 0.17951 0.0
H471 H 0.15934 0.26645 0.07953 0.0
H472 H 0.15182 0.29913 0.18894 0.0
H473 H 0.11557 0.25935 0.09761 0.0
C474 C 0.10201 0.26897 0.11134 0.0
C475 C 0.10125 0.28069 0.13269 0.0
C476 C 0.15335 0.2918 0.16532 0.0
C477 C 0.12671 0.27878 0.14291 0.0
C478 C 0.16761 0.29477 0.15614 0.0
C479 C 0.17005 0.28592 0.12421 0.0
C480 C 0.14144 0.28008 0.14156 0.0
C481 C 0.15785 0.27359 0.10407 0.0
C482 C 0.11479 0.26799 0.1163 0.0
C483 C 0.11292 0.29056 0.16173 0.0
N484 N 0.14401 0.27118 0.11233 0.0
N485 N 0.12523 0.28948 0.16554 0.0
H486 H 0.68247 0.8098 0.16631 0.0
H487 H 0.72637 0.89411 0.08373 0.0
H488 H 0.72319 0.82829 0.08687 0.0
H489 H 0.68315 0.87214 0.14823 0.0
H490 H 0.7281 0.87178 0.09711 0.0
H491 H 0.68551 0.83429 0.17389 0.0
C492 C 0.69215 0.8191 0.15084 0.0
C493 C 0.70248 0.81705 0.12528 0.0
C494 C 0.71834 0.87197 0.1088 0.0
C495 C 0.70592 0.84515 0.133 0.0
C496 C 0.71736 0.88468 0.10127 0.0
C497 C 0.70451 0.88483 0.11428 0.0
C498 C 0.70642 0.8595 0.12984 0.0
C499 C 0.69317 0.87239 0.13697 0.0
C500 C 0.69389 0.83309 0.15512 0.0
C501 C 0.71494 0.82946 0.10658 0.0
N502 N 0.69436 0.86023 0.14373 0.0
N503 N 0.71621 0.84303 0.1101 0.0
H504 H 0.12206 0.80249 0.13014 0.0
H505 H 0.15805 0.88916 0.08642 0.0
H506 H 0.09589 0.82267 0.09746 0.0
H507 H 0.18205 0.86741 0.12847 0.0
H508 H 0.13488 0.86557 0.09489 0.0
H509 H 0.14389 0.82678 0.13432 0.0
C510 C 0.12091 0.81208 0.12398 0.0
C511 C 0.10719 0.81059 0.11304 0.0
C512 C 0.14523 0.86604 0.10263 0.0
C513 C 0.13225 0.83856 0.11745 0.0
C514 C 0.15842 0.87947 0.09786 0.0
C515 C 0.17196 0.88017 0.10634 0.0
C516 C 0.14569 0.85332 0.11593 0.0
C517 C 0.17187 0.86734 0.12113 0.0
C518 C 0.1334 0.82599 0.12646 0.0
C519 C 0.10631 0.82339 0.10585 0.0
N520 N 0.15897 0.85447 0.12517 0.0
N521 N 0.11874 0.8369 0.10774 0.0
H522 H 0.26065 0.10034 0.94071 0.0
H523 H 0.30527 0.18454 0.85995 0.0
H524 H 0.29941 0.11942 0.85118 0.0
H525 H 0.26454 0.16649 0.93911 0.0
H526 H 0.30148 0.15984 0.84989 0.0
H527 H 0.25999 0.12342 0.93451 0.0
C528 C 0.26888 0.1093 0.91926 0.0
C529 C 0.28022 0.10809 0.89697 0.0
C530 C 0.29325 0.16117 0.86915 0.0
C531 C 0.27956 0.13435 0.88981 0.0
C532 C 0.29544 0.1753 0.87495 0.0
C533 C 0.28528 0.17752 0.90085 0.0
C534 C 0.28091 0.14912 0.89009 0.0
C535 C 0.27265 0.16518 0.91905 0.0
C536 C 0.26851 0.12245 0.91577 0.0
C537 C 0.29059 0.11996 0.8695 0.0
N538 N 0.2709 0.15146 0.91392 0.0
N539 N 0.29007 0.13261 0.86706 0.0
H540 H 0.82096 0.10399 0.89824 0.0
H541 H 0.86116 0.19184 0.87681 0.0
H542 H 0.79879 0.12872 0.87288 0.0
H543 H 0.88494 0.16861 0.90017 0.0
H544 H 0.83846 0.16834 0.8682 0.0
H545 H 0.84476 0.12701 0.89215 0.0
C546 C 0.82112 0.11423 0.89092 0.0
C547 C 0.80792 0.11451 0.88651 0.0
C548 C 0.84863 0.16831 0.87494 0.0
C549 C 0.83494 0.14073 0.87964 0.0
C550 C 0.8616 0.18175 0.87992 0.0
C551 C 0.87491 0.18214 0.88966 0.0
C552 C 0.84888 0.1551 0.88018 0.0
C553 C 0.87487 0.16875 0.89287 0.0
C554 C 0.83467 0.12734 0.88752 0.0
C555 C 0.80869 0.12802 0.87698 0.0
N556 N 0.86199 0.15572 0.88859 0.0
N557 N 0.82195 0.14057 0.87416 0.0
H558 H 0.80595 0.68346 0.83808 0.0
H559 H 0.89033 0.72409 0.91906 0.0
H560 H 0.82596 0.72393 0.91923 0.0
H561 H 0.86713 0.68168 0.84936 0.0
H562 H 0.86853 0.72687 0.90798 0.0
H563 H 0.82996 0.68549 0.82928 0.0
C564 C 0.81548 0.69287 0.85371 0.0
C565 C 0.81398 0.70343 0.88002 0.0
C566 C 0.86833 0.71707 0.89463 0.0
C567 C 0.84157 0.70573 0.87088 0.0
C568 C 0.88074 0.71549 0.90083 0.0
C569 C 0.88039 0.70255 0.88568 0.0
C570 C 0.85565 0.70564 0.87282 0.0
C571 C 0.86778 0.69174 0.86222 0.0
C572 C 0.82921 0.69404 0.84872 0.0
C573 C 0.8267 0.71552 0.89891 0.0
N574 N 0.85591 0.6935 0.85682 0.0
N575 N 0.83999 0.71624 0.89465 0.0
H576 H 0.84721 0.6401 0.48852 0.0
H577 H 0.76174 0.59752 0.42217 0.0
H578 H 0.82568 0.59694 0.42337 0.0
H579 H 0.78535 0.64081 0.486 0.0
H580 H 0.78375 0.59509 0.43211 0.0
H581 H 0.82345 0.6385 0.49832 0.0
C582 C 0.83741 0.63021 0.47655 0.0
C583 C 0.83838 0.61872 0.45451 0.0
C584 C 0.78401 0.60502 0.44447 0.0
C585 C 0.81104 0.61686 0.46496 0.0
C586 C 0.77147 0.60639 0.43889 0.0
C587 C 0.77186 0.61947 0.45268 0.0
C588 C 0.79688 0.6168 0.4641 0.0
C589 C 0.78467 0.63063 0.47423 0.0
C590 C 0.82381 0.62928 0.48219 0.0
C591 C 0.82534 0.60607 0.4403 0.0
N592 N 0.79668 0.62908 0.47893 0.0
N593 N 0.81215 0.60555 0.44511 0.0
H594 H 0.38603 0.15349 0.4331 0.0
H595 H 0.34564 0.19889 0.49749 0.0
H596 H 0.34088 0.13448 0.47991 0.0
H597 H 0.3891 0.21947 0.43498 0.0
H598 H 0.34579 0.17584 0.50368 0.0
H599 H 0.38926 0.17825 0.44462 0.0
C600 C 0.37687 0.15454 0.44627 0.0
C601 C 0.36312 0.14197 0.45507 0.0
C602 C 0.35538 0.18538 0.48886 0.0
C603 C 0.36673 0.17003 0.46847 0.0
C604 C 0.35529 0.19856 0.48537 0.0
C605 C 0.36729 0.21101 0.46508 0.0
C606 C 0.36749 0.18452 0.47138 0.0
C607 C 0.3796 0.21004 0.4506 0.0
C608 C 0.37871 0.16863 0.45276 0.0
C609 C 0.35162 0.14388 0.47214 0.0
N610 N 0.37932 0.19691 0.45341 0.0
N611 N 0.35367 0.15762 0.47805 0.0
H612 H 0.8486 0.20535 0.48227 0.0
H613 H 0.76241 0.16459 0.42577 0.0
H614 H 0.82665 0.22788 0.42762 0.0
H615 H 0.78523 0.14288 0.48003 0.0
H616 H 0.78508 0.18842 0.43506 0.0
H617 H 0.82477 0.18292 0.49074 0.0
C618 C 0.83873 0.20559 0.47239 0.0
C619 C 0.83957 0.2184 0.45372 0.0
C620 C 0.78507 0.17845 0.44537 0.0
C621 C 0.81226 0.19276 0.46294 0.0
C622 C 0.77215 0.16487 0.44012 0.0
C623 C 0.77204 0.15178 0.45163 0.0
C624 C 0.79791 0.17886 0.46218 0.0
C625 C 0.7849 0.15272 0.47025 0.0
C626 C 0.82512 0.19279 0.47725 0.0
C627 C 0.82645 0.21817 0.44187 0.0
N628 N 0.79734 0.16602 0.47458 0.0
N629 N 0.8133 0.20547 0.44621 0.0
H630 H 0.97751 0.51924 0.17348 0.0
H631 H 0.92271 0.43323 0.21957 0.0
H632 H 0.93237 0.50171 0.21852 0.0
H633 H 0.96991 0.45362 0.20418 0.0
H634 H 0.92474 0.45734 0.20528 0.0
H635 H 0.9734 0.49424 0.16892 0.0
C636 C 0.96667 0.51009 0.18189 0.0
C637 C 0.95532 0.51253 0.19704 0.0
C638 C 0.93461 0.45647 0.20472 0.0
C639 C 0.95058 0.48387 0.19243 0.0
C640 C 0.93346 0.44275 0.21283 0.0
C641 C 0.94619 0.44152 0.21355 0.0
C642 C 0.94856 0.4689 0.19686 0.0
C643 C 0.95984 0.45413 0.20447 0.0
C644 C 0.96434 0.49582 0.17942 0.0
C645 C 0.94144 0.50028 0.20703 0.0
N646 N 0.96067 0.46729 0.19665 0.0
N647 N 0.93949 0.48643 0.20509 0.0
H648 H 0.53005 0.51613 0.20908 0.0
H649 H 0.49013 0.4284 0.23318 0.0
H650 H 0.55435 0.49353 0.23476 0.0
H651 H 0.4683 0.45316 0.20249 0.0
H652 H 0.51404 0.45145 0.22863 0.0
H653 H 0.50759 0.49254 0.20131 0.0
C654 C 0.53065 0.50614 0.213 0.0
C655 C 0.54404 0.50676 0.22299 0.0
C656 C 0.50399 0.45175 0.22251 0.0
C657 C 0.51822 0.47953 0.21438 0.0
C658 C 0.49039 0.43864 0.22502 0.0
C659 C 0.47726 0.43894 0.21866 0.0
C660 C 0.50433 0.46513 0.21349 0.0
C661 C 0.47815 0.45244 0.20814 0.0
C662 C 0.5178 0.49263 0.20845 0.0
C663 C 0.5442 0.49348 0.2272 0.0
N664 N 0.49142 0.46496 0.20614 0.0
N665 N 0.5314 0.48033 0.22329 0.0
H666 H 0.55734 0.06132 0.23334 0.0
H667 H 0.47114 0.01054 0.18147 0.0
H668 H 0.53497 0.0143 0.20931 0.0
H669 H 0.49 0.05488 0.2364 0.0
H670 H 0.49569 0.01365 0.17619 0.0
H671 H 0.53385 0.06081 0.22123 0.0
C672 C 0.54751 0.05094 0.2252 0.0
C673 C 0.548 0.0378 0.22275 0.0
C674 C 0.49453 0.02277 0.18908 0.0
C675 C 0.52135 0.03717 0.20849 0.0
C676 C 0.48051 0.02102 0.19199 0.0
C677 C 0.47856 0.03241 0.21006 0.0
C678 C 0.50673 0.03599 0.20469 0.0
C679 C 0.49107 0.04581 0.22257 0.0
C680 C 0.53416 0.05066 0.21833 0.0
C681 C 0.53503 0.02465 0.212 0.0
N682 N 0.50469 0.04719 0.22022 0.0
N683 N 0.52224 0.02467 0.20538 0.0
H684 H 0.45233 0.97102 0.83298 0.0
H685 H 0.50077 0.93554 0.7503 0.0
H686 H 0.43477 0.93183 0.74579 0.0
H687 H 0.51771 0.97817 0.81704 0.0
H688 H 0.47559 0.93115 0.7611 0.0
H689 H 0.47515 0.97053 0.84195 0.0
C690 C 0.45324 0.96218 0.81619 0.0
C691 C 0.44178 0.95158 0.788 0.0
C692 C 0.48484 0.94138 0.77379 0.0
C693 C 0.46803 0.9511 0.79728 0.0
C694 C 0.49917 0.94388 0.76768 0.0
C695 C 0.51129 0.95732 0.78227 0.0
C696 C 0.48273 0.95235 0.795 0.0
C697 C 0.50867 0.96774 0.80471 0.0
C698 C 0.4663 0.96192 0.82122 0.0
C699 C 0.44343 0.94024 0.76761 0.0
N700 N 0.4947 0.96507 0.81015 0.0
N701 N 0.45647 0.94043 0.77197 0.0
H702 H 0.05151 0.55142 0.74373 0.0
H703 H -0.00026 0.46615 0.80378 0.0
H704 H 0.00871 0.53282 0.81035 0.0
H705 H 0.04413 0.48391 0.75081 0.0
H706 H 0.00399 0.49109 0.81247 0.0
H707 H 0.05033 0.52752 0.75226 0.0
C708 C 0.04198 0.54238 0.76075 0.0
C709 C 0.0301 0.54401 0.77581 0.0
C710 C 0.01288 0.48961 0.79927 0.0
C711 C 0.02864 0.51676 0.78538 0.0
C712 C 0.01044 0.47535 0.79418 0.0
C713 C 0.02155 0.47299 0.77606 0.0
C714 C 0.0265 0.50166 0.78554 0.0
C715 C 0.03525 0.48529 0.7647 0.0
C716 C 0.0413 0.52875 0.76553 0.0
C717 C 0.01804 0.53199 0.79771 0.0
N718 N 0.0373 0.49915 0.76908 0.0
N719 N 0.01756 0.51886 0.80142 0.0
H720 H 0.45289 0.46911 0.77872 0.0
H721 H 0.49249 0.55693 0.7535 0.0
H722 H 0.42842 0.49142 0.75097 0.0
H723 H 0.51471 0.53191 0.77103 0.0
H724 H 0.46865 0.5338 0.75929 0.0
H725 H 0.47539 0.49277 0.78369 0.0
C726 C 0.45226 0.47904 0.77379 0.0
C727 C 0.43881 0.47831 0.76397 0.0
C728 C 0.47879 0.53345 0.76209 0.0
C729 C 0.46469 0.50562 0.76924 0.0
C730 C 0.49234 0.54661 0.75885 0.0
C731 C 0.50555 0.54628 0.76144 0.0
C732 C 0.47857 0.52002 0.76822 0.0
C733 C 0.50481 0.53268 0.76843 0.0
C734 C 0.46515 0.4926 0.77663 0.0
C735 C 0.43863 0.49155 0.75842 0.0
N736 N 0.49158 0.52014 0.77145 0.0
N737 N 0.45144 0.50473 0.76075 0.0
H738 H 0.59788 0.83235 0.60078 0.0
H739 H 0.63294 0.78593 0.49981 0.0
H740 H 0.63166 0.8475 0.49234 0.0
H741 H 0.59625 0.76756 0.5979 0.0
H742 H 0.62981 0.80722 0.48834 0.0
H743 H 0.59425 0.80736 0.59257 0.0
C744 C 0.60432 0.83034 0.57467 0.0
C745 C 0.61527 0.84199 0.54782 0.0
C746 C 0.62229 0.7985 0.512 0.0
C747 C 0.61125 0.81367 0.53837 0.0
C748 C 0.6241 0.78635 0.51856 0.0
C749 C 0.61496 0.77514 0.55032 0.0
C750 C 0.61145 0.79963 0.5382 0.0
C751 C 0.60356 0.77607 0.57328 0.0
C752 C 0.60226 0.81612 0.57004 0.0
C753 C 0.62328 0.83886 0.51437 0.0
N754 N 0.60228 0.78829 0.56747 0.0
N755 N 0.62122 0.82506 0.511 0.0
H756 H 0.1634 0.76673 0.57359 0.0
H757 H 0.19837 0.85403 0.54623 0.0
H758 H 0.13898 0.78984 0.5802 0.0
H759 H 0.22526 0.83391 0.56641 0.0
H760 H 0.17645 0.82975 0.54805 0.0
H761 H 0.18621 0.79052 0.56221 0.0
C762 C 0.16285 0.77679 0.5726 0.0
C763 C 0.14933 0.77636 0.57805 0.0
C764 C 0.18712 0.83058 0.55195 0.0
C765 C 0.17515 0.80338 0.56469 0.0
C766 C 0.19966 0.84445 0.55077 0.0
C767 C 0.21363 0.84597 0.55662 0.0
C768 C 0.18849 0.81805 0.55921 0.0
C769 C 0.21465 0.83318 0.56197 0.0
C770 C 0.17583 0.79031 0.56611 0.0
C771 C 0.14917 0.78966 0.5764 0.0
N772 N 0.20219 0.81969 0.56349 0.0
N773 N 0.16186 0.80258 0.56985 0.0
H774 H 0.20099 0.35806 0.48629 0.0
H775 H 0.15292 0.39123 0.59037 0.0
H776 H 0.21818 0.39415 0.58675 0.0
H777 H 0.1364 0.35181 0.50476 0.0
H778 H 0.17821 0.39643 0.57513 0.0
H779 H 0.17895 0.36001 0.47703 0.0
C780 C 0.20018 0.36655 0.5059 0.0
C781 C 0.21123 0.37578 0.53796 0.0
C782 C 0.16903 0.38679 0.55908 0.0
C783 C 0.18587 0.37787 0.52853 0.0
C784 C 0.15465 0.38385 0.56768 0.0
C785 C 0.14264 0.37095 0.54945 0.0
C786 C 0.17127 0.3768 0.53178 0.0
C787 C 0.14538 0.36174 0.52019 0.0
C788 C 0.18758 0.36766 0.50069 0.0
C789 C 0.20979 0.38676 0.56195 0.0
N790 N 0.15939 0.36478 0.51261 0.0
N791 N 0.19714 0.38731 0.55752 0.0
H792 H 0.02237 0.2457 0.05931 0.0
H793 H 0.96402 0.25753 0.91021 0.0
H794 H 0.02667 0.28785 0.02431 0.0
H795 H 0.95252 0.21544 0.97281 0.0
H796 H 0.98898 0.26763 0.94025 0.0
H797 H -0.00182 0.23338 0.01927 0.0
C798 C 0.0182 0.25233 0.04342 0.0
C799 C 0.02646 0.2678 0.04529 0.0
C800 C 0.98107 0.25615 0.94728 0.0
C801 C -0.0008 0.25391 0.99904 0.0
C802 C 0.96683 0.25036 0.92991 0.0
C803 C 0.95619 0.2357 0.93965 0.0
C804 C 0.98471 0.24727 0.97502 0.0
C805 C 0.96044 0.22684 0.9648 0.0
C806 C 0.00448 0.24532 0.02052 0.0
C807 C 0.02066 0.2759 0.02398 0.0
N808 N 0.97441 0.23282 0.98226 0.0
N809 N 0.00744 0.26887 0.0017 0.0
H810 H 0.72992 0.70031 0.94431 0.0
H811 H 0.73808 0.77474 0.0532 0.0
H812 H 0.77213 0.74002 0.96011 0.0
H813 H 0.69734 0.73313 0.04484 0.0
H814 H 0.75105 0.76292 0.0178 0.0
H815 H 0.71796 0.71303 0.97773 0.0
C816 C 0.73668 0.71177 0.95458 0.0
C817 C 0.75204 0.71911 0.94963 0.0
C818 C 0.73929 0.75641 0.02394 0.0
C819 C 0.73839 0.73379 0.98857 0.0
C820 C 0.73191 0.76311 0.04429 0.0
C821 C 0.71663 0.75488 0.05191 0.0
C822 C 0.73127 0.74142 0.01114 0.0
C823 C 0.70912 0.7399 0.03957 0.0
C824 C 0.72984 0.71904 0.97387 0.0
C825 C 0.76024 0.73399 0.96335 0.0
N826 N 0.71651 0.73369 0.01971 0.0
N827 N 0.75331 0.74085 0.9825 0.0
H828 H 0.23646 0.9586 0.97853 0.0
H829 H 0.24709 0.03681 0.02058 0.0
H830 H 0.21018 0.96429 0.08597 0.0
H831 H 0.25269 0.02188 0.88248 0.0
H832 H 0.23301 0.011 0.0471 0.0
H833 H 0.24296 0.98252 0.94512 0.0
C834 C 0.23208 0.96495 0.99513 0.0
C835 C 0.22291 0.9596 0.03528 0.0
C836 C 0.23701 0.01341 0.01065 0.0
C837 C 0.23034 0.98705 0.99728 0.0
C838 C 0.24501 0.0281 0.99548 0.0
C839 C 0.25129 0.03145 0.94961 0.0
C840 C 0.23553 0.00218 0.97978 0.0
C841 C 0.24827 0.01979 0.91844 0.0
C842 C 0.23566 0.97854 0.97575 0.0
C843 C 0.21734 0.96815 0.05503 0.0
N844 N 0.24085 0.00569 0.93439 0.0
N845 N 0.22135 0.98166 0.03626 0.0
H846 H 0.95894 0.73911 0.9579 0.0
H847 H 0.02097 0.72911 0.09023 0.0
H848 H 0.95885 0.69797 0.97095 0.0
H849 H 0.02872 0.77193 0.0461 0.0
H850 H -0.00371 0.71791 0.0567 0.0
H851 H 0.98322 0.75179 0.99713 0.0
C852 C 0.96407 0.73279 0.96864 0.0
C853 C 0.95691 0.71748 0.96119 0.0
C854 C 0.00333 0.72977 0.05446 0.0
C855 C 0.98432 0.73176 0.00655 0.0
C856 C 0.0174 0.73619 0.07389 0.0
C857 C 0.02693 0.75145 0.07051 0.0
C858 C -0.00129 0.73865 0.03131 0.0
C859 C 0.02169 0.7601 0.04926 0.0
C860 C 0.97785 0.74 0.99113 0.0
C861 C 0.96397 0.70978 0.97593 0.0
N862 N 0.00791 0.75355 0.03003 0.0
N863 N 0.97721 0.71699 0.99807 0.0
H864 H 0.24991 0.22029 0.96415 0.0
H865 H 0.25537 0.29726 0.03023 0.0
H866 H 0.28995 0.26259 0.95838 0.0
H867 H 0.21539 0.25532 0.04714 0.0
H868 H 0.2678 0.28449 0.00055 0.0
H869 H 0.23651 0.2327 0.99039 0.0
C870 C 0.25584 0.23218 0.96804 0.0
C871 C 0.27105 0.24044 0.95929 0.0
C872 C 0.25631 0.27804 0.01079 0.0
C873 C 0.25591 0.25463 0.98937 0.0
C874 C 0.24922 0.28533 0.02785 0.0
C875 C 0.23435 0.27732 0.04127 0.0
C876 C 0.2485 0.26259 0.00701 0.0
C877 C 0.22689 0.26189 0.03729 0.0
C878 C 0.24822 0.23924 0.98317 0.0
C879 C 0.27823 0.2558 0.96493 0.0
N880 N 0.23406 0.25499 0.02044 0.0
N881 N 0.2706 0.26238 0.97972 0.0
H882 H 0.7295 0.02852 0.94523 0.0
H883 H 0.74237 0.96313 0.02533 0.0
H884 H 0.7737 0.03545 0.9524 0.0
H885 H 0.70532 0.96786 0.06768 0.0
H886 H 0.75423 0.98826 0.99147 0.0
H887 H 0.72014 0.00418 0.9794 0.0
C888 C 0.73725 0.02486 0.9537 0.0
C889 C 0.75241 0.03405 0.94636 0.0
C890 C 0.74358 0.98377 0.00871 0.0
C891 C 0.74173 0.00613 0.9861 0.0
C892 C 0.73686 0.96952 0.02811 0.0
C893 C 0.72279 0.9634 0.04879 0.0
C894 C 0.73603 0.99169 0.00981 0.0
C895 C 0.71608 0.97206 0.05153 0.0
C896 C 0.7319 0.01098 0.97356 0.0
C897 C 0.76192 0.02867 0.95773 0.0
N898 N 0.72269 0.98568 0.03185 0.0
N899 N 0.75641 0.01498 0.97729 0.0
H900 H 0.63171 0.58611 0.2336 0.0
H901 H 0.69343 0.58088 0.38592 0.0
H902 H 0.62343 0.54535 0.29919 0.0
H903 H 0.69372 0.62123 0.35158 0.0
H904 H 0.66937 0.56685 0.34584 0.0
H905 H 0.65667 0.59823 0.26505 0.0
C906 C 0.63523 0.57966 0.2542 0.0
C907 C 0.62547 0.56477 0.26437 0.0
C908 C 0.67476 0.57877 0.34728 0.0
C909 C 0.65399 0.57864 0.30126 0.0
C910 C 0.6884 0.58675 0.37022 0.0
C911 C 0.69551 0.60222 0.37218 0.0
C912 C 0.6684 0.58639 0.32581 0.0
C913 C 0.68861 0.60932 0.35112 0.0
C914 C 0.64946 0.5866 0.2724 0.0
C915 C 0.63065 0.55689 0.29078 0.0
N916 N 0.67549 0.60136 0.32871 0.0
N917 N 0.64458 0.56398 0.3089 0.0
H918 H 0.39482 0.0268 0.2945 0.0
H919 H 0.40073 0.10269 0.37634 0.0
H920 H 0.43563 0.06834 0.28573 0.0
H921 H 0.36331 0.05942 0.40229 0.0
H922 H 0.41403 0.09102 0.34228 0.0
H923 H 0.3831 0.03932 0.33104 0.0
C924 C 0.40131 0.03862 0.30005 0.0
C925 C 0.41622 0.04655 0.28713 0.0
C926 C 0.40296 0.08413 0.35583 0.0
C927 C 0.40286 0.06102 0.32954 0.0
C928 C 0.3954 0.09076 0.37541 0.0
C929 C 0.38089 0.08199 0.39184 0.0
C930 C 0.39585 0.06867 0.35265 0.0
C931 C 0.37445 0.06661 0.38975 0.0
C932 C 0.39463 0.04577 0.3212 0.0
C933 C 0.42409 0.06184 0.29516 0.0
N934 N 0.38194 0.06047 0.37025 0.0
N935 N 0.4173 0.06862 0.31599 0.0
H936 H 0.87229 0.28179 0.30072 0.0
H937 H 0.90271 0.36793 0.3331 0.0
H938 H 0.88555 0.30393 0.43707 0.0
H939 H 0.91379 0.34921 0.21378 0.0
H940 H 0.88687 0.34295 0.36494 0.0
H941 H 0.87795 0.30521 0.26324 0.0
C942 C 0.87601 0.2915 0.32295 0.0
C943 C 0.87872 0.29106 0.37185 0.0
C944 C 0.89248 0.34436 0.33114 0.0
C945 C 0.88495 0.31762 0.32947 0.0
C946 C 0.90142 0.35853 0.31289 0.0
C947 C 0.90961 0.36051 0.27115 0.0
C948 C 0.89156 0.33222 0.30674 0.0
C949 C 0.90772 0.34806 0.24638 0.0
C950 C 0.87925 0.3048 0.30154 0.0
C951 C 0.88354 0.30391 0.39909 0.0
N952 N 0.89894 0.33439 0.26473 0.0
N953 N 0.88664 0.31676 0.37741 0.0
H954 H 0.687 0.10513 0.43379 0.0
H955 H 0.63945 0.06425 0.21829 0.0
H956 H 0.70698 0.11303 0.29402 0.0
H957 H 0.62196 0.08142 0.32391 0.0
H958 H 0.66443 0.08199 0.24516 0.0
H959 H 0.663 0.09669 0.39589 0.0
C960 C 0.68636 0.1054 0.39518 0.0
C961 C 0.69888 0.10961 0.36687 0.0
C962 C 0.65513 0.08208 0.26171 0.0
C963 C 0.67161 0.09969 0.32361 0.0
C964 C 0.64092 0.07194 0.24661 0.0
C965 C 0.62873 0.07138 0.26926 0.0
C966 C 0.65706 0.09133 0.30067 0.0
C967 C 0.63114 0.08156 0.30566 0.0
C968 C 0.67271 0.10065 0.37363 0.0
C969 C 0.69754 0.10981 0.31703 0.0
N970 N 0.64507 0.09092 0.32116 0.0
N971 N 0.68404 0.10452 0.29684 0.0
H972 H 0.91921 0.61447 0.42902 0.0
H973 H 0.91651 0.54965 0.27006 0.0
H974 H 0.879 0.58133 0.36252 0.0
H975 H 0.95603 0.58943 0.3126 0.0
H976 H 0.90174 0.55849 0.31216 0.0
H977 H 0.93193 0.60219 0.39787 0.0
C978 C 0.91303 0.60448 0.40819 0.0
C979 C 0.89812 0.599 0.39772 0.0
C980 C 0.91364 0.56522 0.31216 0.0
C981 C 0.91266 0.585 0.36101 0.0
C982 C 0.92205 0.56022 0.2881 0.0
C983 C 0.93748 0.56889 0.28761 0.0
C984 C 0.92083 0.57883 0.33616 0.0
C985 C 0.94415 0.58244 0.3117 0.0
C986 C 0.9203 0.5975 0.39021 0.0
C987 C 0.89055 0.58591 0.37113 0.0
N988 N 0.9358 0.58695 0.33499 0.0
N989 N 0.89798 0.57942 0.35302 0.0
H990 H 0.44175 0.36033 0.28478 0.0
H991 H 0.37211 0.29663 0.41902 0.0
H992 H 0.39767 0.35368 0.27724 0.0
H993 H 0.40802 0.28997 0.37715 0.0
H994 H 0.3842 0.32045 0.37938 0.0
H995 H 0.43184 0.33652 0.3268 0.0
C996 C 0.43 0.35379 0.29136 0.0
C997 C 0.42051 0.35898 0.27778 0.0
C998 C 0.3895 0.31383 0.37895 0.0
C999 C 0.40932 0.33223 0.32639 0.0
C1000 C 0.38265 0.30027 0.40188 0.0
C1001 C 0.389 0.29125 0.40084 0.0
C1002 C 0.40283 0.3185 0.35475 0.0
C1003 C 0.40276 0.29661 0.37854 0.0
C1004 C 0.42441 0.3403 0.31542 0.0
C1005 C 0.40541 0.35015 0.28722 0.0
N1006 N 0.40924 0.30993 0.35591 0.0
N1007 N 0.40033 0.33731 0.31134 0.0
H1008 H 0.29203 0.8828 0.61466 0.0
H1009 H 0.3639 0.95684 0.69696 0.0
H1010 H 0.2999 0.92686 0.58981 0.0
H1011 H 0.36154 0.9145 0.70366 0.0
H1012 H 0.3398 0.94525 0.65996 0.0
H1013 H 0.3171 0.89342 0.64732 0.0
C1014 C 0.2991 0.89468 0.61546 0.0
C1015 C 0.29389 0.90399 0.59988 0.0
C1016 C 0.34448 0.93842 0.66938 0.0
C1017 C 0.32229 0.91612 0.63748 0.0
C1018 C 0.35825 0.94504 0.69082 0.0
C1019 C 0.36474 0.93661 0.70339 0.0
C1020 C 0.33698 0.92319 0.66041 0.0
C1021 C 0.35688 0.92137 0.69455 0.0
C1022 C 0.31334 0.90072 0.63425 0.0
C1023 C 0.30342 0.91927 0.60176 0.0
N1024 N 0.34334 0.91509 0.67351 0.0
N1025 N 0.31709 0.92483 0.62053 0.0
H1026 H 0.05886 0.43274 0.71364 0.0
H1027 H 0.0564 0.35746 0.64319 0.0
H1028 H 0.02059 0.38936 0.72811 0.0
H1029 H 0.09553 0.40018 0.62783 0.0
H1030 H 0.04342 0.3693 0.67575 0.0
H1031 H 0.07298 0.42135 0.68489 0.0
C1032 C 0.05349 0.42083 0.71121 0.0
C1033 C 0.03854 0.41196 0.72304 0.0
C1034 C 0.05484 0.37614 0.66526 0.0
C1035 C 0.05449 0.39893 0.68996 0.0
C1036 C 0.06225 0.36937 0.64649 0.0
C1037 C 0.07705 0.37787 0.63272 0.0
C1038 C 0.06225 0.39155 0.67035 0.0
C1039 C 0.08409 0.39325 0.63793 0.0
C1040 C 0.06152 0.41435 0.69464 0.0
C1041 C 0.03208 0.39661 0.71917 0.0
N1042 N 0.07662 0.39963 0.6564 0.0
N1043 N 0.04008 0.3906 0.70279 0.0
H1044 H 0.58547 0.63385 0.75547 0.0
H1045 H 0.57928 0.69694 0.61411 0.0
H1046 H 0.54449 0.62644 0.69441 0.0
H1047 H 0.62003 0.6988 0.65334 0.0
H1048 H 0.56558 0.67224 0.65025 0.0
H1049 H 0.59745 0.65925 0.72783 0.0
C1050 C 0.57895 0.63764 0.73661 0.0
C1051 C 0.56402 0.62802 0.72672 0.0
C1052 C 0.57752 0.6781 0.65081 0.0
C1053 C 0.57773 0.65708 0.69418 0.0
C1054 C 0.58532 0.69213 0.6301 0.0
C1055 C 0.60079 0.69986 0.63059 0.0
C1056 C 0.58531 0.67194 0.67237 0.0
C1057 C 0.60811 0.69321 0.65194 0.0
C1058 C 0.58581 0.65213 0.7206 0.0
C1059 C 0.55605 0.63354 0.70258 0.0
N1060 N 0.6003 0.67968 0.67202 0.0
N1061 N 0.56306 0.64773 0.68659 0.0
H1062 H 0.35094 0.39909 0.74601 0.0
H1063 H 0.29 0.41039 0.61097 0.0
H1064 H 0.35989 0.44171 0.69504 0.0
H1065 H 0.28621 0.36829 0.64298 0.0
H1066 H 0.3146 0.42275 0.64803 0.0
H1067 H 0.32576 0.38835 0.71734 0.0
C1068 C 0.34754 0.40622 0.72911 0.0
C1069 C 0.35752 0.42127 0.72242 0.0
C1070 C 0.30833 0.41081 0.64682 0.0
C1071 C 0.32871 0.40899 0.68872 0.0
C1072 C 0.29436 0.40378 0.62559 0.0
C1073 C 0.28612 0.38831 0.62376 0.0
C1074 C 0.31393 0.40226 0.66652 0.0
C1075 C 0.2922 0.38023 0.6434 0.0
C1076 C 0.33316 0.40007 0.71253 0.0
C1077 C 0.3525 0.43003 0.70071 0.0
N1078 N 0.30569 0.3873 0.66397 0.0
N1079 N 0.33842 0.42372 0.68412 0.0
H1080 H 0.6069 0.91599 0.5549 0.0
H1081 H 0.5529 0.92014 0.7464 0.0
H1082 H 0.58796 0.88361 0.66767 0.0
H1083 H 0.58878 0.95791 0.6771 0.0
H1084 H 0.56127 0.90428 0.70899 0.0
H1085 H 0.59482 0.92872 0.58799 0.0
C1086 C 0.6 0.91142 0.58625 0.0
C1087 C 0.5986 0.89886 0.60905 0.0
C1088 C 0.56727 0.91605 0.70228 0.0
C1089 C 0.58488 0.91348 0.64732 0.0
C1090 C 0.56256 0.92508 0.7236 0.0
C1091 C 0.57023 0.94034 0.71492 0.0
C1092 C 0.57947 0.92238 0.67144 0.0
C1093 C 0.58261 0.94622 0.68501 0.0
C1094 C 0.5932 0.91875 0.60526 0.0
C1095 C 0.58939 0.89334 0.64928 0.0
N1096 N 0.58677 0.93721 0.66408 0.0
N1097 N 0.58295 0.9008 0.66758 0.0
H1098 H 0.07666 0.62612 0.73408 0.0
H1099 H 0.0818 0.68631 0.54816 0.0
H1100 H 0.04397 0.61934 0.62799 0.0
H1101 H 0.11354 0.69686 0.66113 0.0
H1102 H 0.07107 0.66025 0.56689 0.0
H1103 H 0.09317 0.65065 0.69933 0.0
C1104 C 0.07307 0.62972 0.70317 0.0
C1105 C 0.05889 0.6209 0.68432 0.0
C1106 C 0.08049 0.66819 0.58739 0.0
C1107 C 0.07755 0.64856 0.64443 0.0
C1108 C 0.08662 0.68307 0.57657 0.0
C1109 C 0.09838 0.69367 0.60365 0.0
C1110 C 0.08594 0.66389 0.62633 0.0
C1111 C 0.10439 0.68894 0.63965 0.0
C1112 C 0.08245 0.64366 0.68341 0.0
C1113 C 0.05472 0.62595 0.64419 0.0
N1114 N 0.0979 0.67434 0.65069 0.0
N1115 N 0.06396 0.63944 0.62584 0.0
H1116 H 0.11071 0.36025 0.75891 0.0
H1117 H 0.07877 0.28907 0.92706 0.0
H1118 H 0.08493 0.31572 0.70583 0.0
H1119 H 0.09271 0.33279 0.98047 0.0
H1120 H 0.08452 0.29895 0.84586 0.0
H1121 H 0.10769 0.35058 0.84019 0.0
C1122 C 0.10451 0.34842 0.76432 0.0
C1123 C 0.09801 0.33876 0.72558 0.0
C1124 C 0.08639 0.3064 0.87535 0.0
C1125 C 0.09453 0.32765 0.81854 0.0
C1126 C 0.08317 0.30079 0.92175 0.0
C1127 C 0.08522 0.31013 0.96056 0.0
C1128 C 0.09181 0.32149 0.86765 0.0
C1129 C 0.09093 0.32521 0.95154 0.0
C1130 C 0.10275 0.34292 0.81076 0.0
C1131 C 0.09008 0.32355 0.7347 0.0
N1132 N 0.09401 0.33043 0.90597 0.0
N1133 N 0.08855 0.31845 0.78029 0.0
H1134 H 0.69533 0.78388 0.92204 0.0
H1135 H 0.62379 0.75137 0.75591 0.0
H1136 H 0.65108 0.75728 0.97626 0.0
H1137 H 0.66745 0.76597 0.70099 0.0
H1138 H 0.63381 0.75675 0.83699 0.0
H1139 H 0.68543 0.78059 0.84104 0.0
C1140 C 0.68351 0.77741 0.91692 0.0
C1141 C 0.67399 0.77079 0.9559 0.0
C1142 C 0.64121 0.75883 0.8072 0.0
C1143 C 0.66261 0.76704 0.86329 0.0
C1144 C 0.63552 0.75583 0.76089 0.0
C1145 C 0.64482 0.75819 0.72168 0.0
C1146 C 0.65633 0.76436 0.8144 0.0
C1147 C 0.65991 0.76395 0.73024 0.0
C1148 C 0.67788 0.7755 0.87065 0.0
C1149 C 0.65879 0.76252 0.94717 0.0
N1150 N 0.6652 0.76684 0.77572 0.0
N1151 N 0.65356 0.76088 0.90174 0.0
H1152 H 0.20473 0.91115 0.90792 0.0
H1153 H 0.25041 0.88566 0.74474 0.0
H1154 H 0.23796 0.90246 0.96435 0.0
H1155 H 0.228 0.90746 0.68785 0.0
H1156 H 0.24405 0.88943 0.82555 0.0
H1157 H 0.21107 0.90735 0.82704 0.0
C1158 C 0.2133 0.90835 0.90329 0.0
C1159 C 0.22083 0.90709 0.94286 0.0
C1160 C 0.24056 0.89343 0.79542 0.0
C1161 C 0.22812 0.90274 0.85049 0.0
C1162 C 0.24415 0.89126 0.74929 0.0
C1163 C 0.23972 0.89627 0.70959 0.0
C1164 C 0.23231 0.90049 0.80193 0.0
C1165 C 0.23166 0.90347 0.71753 0.0
C1166 C 0.21696 0.90627 0.85711 0.0
C1167 C 0.23189 0.90353 0.9348 0.0
N1168 N 0.22814 0.9053 0.76285 0.0
N1169 N 0.23518 0.90143 0.88948 0.0
H1170 H 0.30182 0.05688 0.06323 0.0
H1171 H 0.35143 0.11517 0.2634 0.0
H1172 H 0.32129 0.10395 0.04585 0.0
H1173 H 0.32033 0.06963 0.2958 0.0
H1174 H 0.34296 0.11085 0.18049 0.0
H1175 H 0.31132 0.06093 0.1453 0.0
C1176 C 0.30827 0.06807 0.07647 0.0
C1177 C 0.31079 0.08011 0.04777 0.0
C1178 C 0.33795 0.10181 0.20574 0.0
C1179 C 0.32158 0.0848 0.14141 0.0
C1180 C 0.34277 0.10426 0.25306 0.0
C1181 C 0.33652 0.09274 0.28653 0.0
C1182 C 0.32692 0.08768 0.19152 0.0
C1183 C 0.32536 0.07882 0.27116 0.0
C1184 C 0.31357 0.07036 0.12337 0.0
C1185 C 0.31909 0.09437 0.06681 0.0
N1186 N 0.32096 0.07665 0.22464 0.0
N1187 N 0.3242 0.09632 0.11242 0.0
H1188 H 0.91014 0.27004 0.27858 0.0
H1189 H 0.89877 0.20958 0.08252 0.0
H1190 H 0.88459 0.22309 0.30304 0.0
H1191 H 0.9125 0.25471 0.04624 0.0
H1192 H 0.89664 0.21495 0.16609 0.0
H1193 H 0.91462 0.26524 0.19617 0.0
C1194 C 0.90569 0.25873 0.26685 0.0
C1195 C 0.89697 0.24693 0.29758 0.0
C1196 C 0.9001 0.22368 0.13989 0.0
C1197 C 0.90194 0.24139 0.20359 0.0
C1198 C 0.90131 0.22063 0.09216 0.0
C1199 C 0.90574 0.2317 0.05738 0.0
C1200 C 0.90349 0.23797 0.15318 0.0
C1201 C 0.90894 0.24583 0.07193 0.0
C1202 C 0.90814 0.25601 0.21976 0.0
C1203 C 0.89135 0.23251 0.28047 0.0
N1204 N 0.90779 0.24859 0.11884 0.0
N1205 N 0.89391 0.23014 0.23462 0.0
H1206 H 0.76019 0.67025 0.30627 0.0
H1207 H 0.75326 0.65297 0.02641 0.0
H1208 H 0.74623 0.62691 0.24914 0.0
H1209 H 0.77885 0.69696 0.08401 0.0
H1210 H 0.74921 0.64307 0.10788 0.0
H1211 H 0.76586 0.68026 0.22491 0.0
C1212 C 0.7584 0.66287 0.27664 0.0
C1213 C 0.75274 0.64775 0.28439 0.0
C1214 C 0.75578 0.65488 0.10262 0.0
C1215 C 0.75903 0.65905 0.19142 0.0
C1216 C 0.75806 0.66053 0.05619 0.0
C1217 C 0.7664 0.67579 0.04853 0.0
C1218 C 0.76172 0.6646 0.14159 0.0
C1219 C 0.77238 0.6851 0.08834 0.0
C1220 C 0.76164 0.66858 0.23027 0.0
C1221 C 0.7506 0.63866 0.24475 0.0
N1222 N 0.76984 0.67937 0.13317 0.0
N1223 N 0.75365 0.64443 0.19995 0.0
H1224 H 0.89165 0.65068 0.02945 0.0
H1225 H 0.90081 0.66707 0.31022 0.0
H1226 H 0.9073 0.69401 0.08937 0.0
H1227 H 0.87464 0.62331 0.25149 0.0
H1228 H 0.90485 0.67723 0.22916 0.0
H1229 H 0.88666 0.64039 0.11046 0.0
C1230 C 0.89395 0.658 0.05964 0.0
C1231 C 0.89987 0.6732 0.05276 0.0
C1232 C 0.89818 0.66541 0.23406 0.0
C1233 C 0.89437 0.66158 0.14531 0.0
C1234 C 0.89592 0.65962 0.28026 0.0
C1235 C 0.88737 0.64435 0.2875 0.0
C1236 C 0.89198 0.65584 0.19487 0.0
C1237 C 0.88127 0.63517 0.24747 0.0
C1238 C 0.89111 0.65214 0.10581 0.0
C1239 C 0.90269 0.68222 0.09308 0.0
N1240 N 0.88375 0.64105 0.20284 0.0
N1241 N 0.89999 0.67628 0.13765 0.0
H1242 H 0.33729 0.23883 0.04433 0.0
H1243 H 0.32067 0.22869 0.32489 0.0
H1244 H 0.29341 0.21352 0.10271 0.0
H1245 H 0.36382 0.2436 0.26484 0.0
H1246 H 0.31049 0.22445 0.24384 0.0
H1247 H 0.34736 0.24221 0.12531 0.0
C1248 C 0.32979 0.23397 0.07419 0.0
C1249 C 0.31451 0.22588 0.0669 0.0
C1250 C 0.32217 0.22858 0.24846 0.0
C1251 C 0.3259 0.22975 0.15942 0.0
C1252 C 0.32798 0.23102 0.29465 0.0
C1253 C 0.34309 0.23648 0.30149 0.0
C1254 C 0.33159 0.2318 0.20895 0.0
C1255 C 0.35209 0.23933 0.26113 0.0
C1256 C 0.33553 0.23587 0.12035 0.0
C1257 C 0.30527 0.21981 0.10679 0.0
N1258 N 0.34621 0.23703 0.21657 0.0
N1259 N 0.31111 0.22193 0.15139 0.0
H1260 H 0.73559 0.0795 0.03993 0.0
H1261 H 0.76903 0.10787 0.3 0.0
H1262 H 0.7806 0.09316 0.07714 0.0
H1263 H 0.72225 0.08167 0.27409 0.0
H1264 H 0.77364 0.10376 0.21731 0.0
H1265 H 0.73059 0.08188 0.12424 0.0
C1266 C 0.74443 0.08309 0.06578 0.0
C1267 C 0.75853 0.08617 0.05161 0.0
C1268 C 0.76236 0.09877 0.22981 0.0
C1269 C 0.75291 0.08886 0.14775 0.0
C1270 C 0.75973 0.10107 0.27703 0.0
C1271 C 0.74525 0.09506 0.29387 0.0
C1272 C 0.75042 0.0906 0.19894 0.0
C1273 C 0.7336 0.08641 0.26256 0.0
C1274 C 0.74155 0.08434 0.11386 0.0
C1275 C 0.76957 0.09068 0.08655 0.0
N1276 N 0.73643 0.08457 0.21638 0.0
N1277 N 0.76654 0.09194 0.13293 0.0
H1278 H 0.64751 0.91523 0.72104 0.0
H1279 H 0.69185 0.89885 0.91992 0.0
H1280 H 0.65983 0.88188 0.70291 0.0
H1281 H 0.66358 0.91656 0.95405 0.0
H1282 H 0.68316 0.89533 0.83709 0.0
H1283 H 0.65676 0.91908 0.80329 0.0
C1284 C 0.65234 0.90886 0.73417 0.0
C1285 C 0.65293 0.89822 0.70518 0.0
C1286 C 0.67882 0.89992 0.86278 0.0
C1287 C 0.66345 0.90255 0.79905 0.0
C1288 C 0.68375 0.90193 0.90999 0.0
C1289 C 0.67837 0.90795 0.94384 0.0
C1290 C 0.66864 0.90423 0.84913 0.0
C1291 C 0.66793 0.91178 0.92909 0.0
C1292 C 0.65748 0.91097 0.78118 0.0
C1293 C 0.65917 0.89019 0.72412 0.0
N1294 N 0.66348 0.90997 0.88267 0.0
N1295 N 0.66423 0.89254 0.76986 0.0
H1296 H 0.08061 0.74967 0.70468 0.0
H1297 H 0.08857 0.74329 0.98717 0.0
H1298 H 0.10826 0.73447 0.7674 0.0
H1299 H 0.07127 0.76908 0.92381 0.0
H1300 H 0.09317 0.7371 0.90687 0.0
H1301 H 0.07422 0.75392 0.7851 0.0
C1302 C 0.08526 0.74714 0.73539 0.0
C1303 C 0.09503 0.74178 0.72947 0.0
C1304 C 0.08836 0.74411 0.91061 0.0
C1305 C 0.08778 0.74658 0.82131 0.0
C1306 C 0.08572 0.74761 0.95636 0.0
C1307 C 0.07962 0.75677 0.96206 0.0
C1308 C 0.08472 0.74968 0.87037 0.0
C1309 C 0.07609 0.76206 0.92098 0.0
C1310 C 0.08166 0.74962 0.78121 0.0
C1311 C 0.10074 0.73869 0.77042 0.0
N1312 N 0.07867 0.75843 0.87687 0.0
N1313 N 0.09703 0.74114 0.81463 0.0
H1314 H 0.20123 0.29616 0.91291 0.0
H1315 H 0.23356 0.36732 0.74453 0.0
H1316 H 0.22764 0.34066 0.96554 0.0
H1317 H 0.21907 0.32347 0.6911 0.0
H1318 H 0.2278 0.35745 0.82575 0.0
H1319 H 0.20411 0.30581 0.83163 0.0
C1320 C 0.20754 0.30798 0.9074 0.0
C1321 C 0.21427 0.31764 0.946 0.0
C1322 C 0.22582 0.34998 0.79625 0.0
C1323 C 0.21757 0.32873 0.85308 0.0
C1324 C 0.22904 0.35558 0.74984 0.0
C1325 C 0.22685 0.34619 0.71102 0.0
C1326 C 0.22025 0.33486 0.80395 0.0
C1327 C 0.22097 0.33109 0.72004 0.0
C1328 C 0.20922 0.31346 0.86098 0.0
C1329 C 0.22232 0.33284 0.93677 0.0
N1330 N 0.21789 0.32589 0.76563 0.0
N1331 N 0.22376 0.33792 0.8912 0.0
H1332 H 0.97021 0.40995 0.63821 0.0
H1333 H 0.98553 0.41332 0.35694 0.0
H1334 H 0.01396 0.43242 0.57761 0.0
H1335 H 0.94373 0.40391 0.41666 0.0
H1336 H -0.00418 0.41756 0.43801 0.0
H1337 H 0.95989 0.40487 0.55725 0.0
C1338 C 0.97763 0.4138 0.60786 0.0
C1339 C -0.00706 0.42166 0.61453 0.0
C1340 C 0.98439 0.41456 0.43327 0.0
C1341 C 0.98126 0.41579 0.52207 0.0
C1342 C 0.97852 0.4121 0.38711 0.0
C1343 C 0.96379 0.40832 0.38016 0.0
C1344 C 0.9754 0.41305 0.47265 0.0
C1345 C 0.95517 0.40688 0.42044 0.0
C1346 C 0.97175 0.41093 0.56173 0.0
C1347 C 0.00208 0.42639 0.57401 0.0
N1348 N 0.96109 0.40921 0.46495 0.0
N1349 N -0.0039 0.42334 0.52948 0.0
H1350 H 0.5812 0.54636 0.41526 0.0
H1351 H 0.54597 0.58444 0.57272 0.0
H1352 H 0.56496 0.57346 0.35498 0.0
H1353 H 0.5716 0.5665 0.63287 0.0
H1354 H 0.55174 0.57948 0.49262 0.0
H1355 H 0.57667 0.55255 0.49533 0.0
C1356 C 0.57668 0.55362 0.41891 0.0
C1357 C 0.5734 0.55938 0.3785 0.0
C1358 C 0.55616 0.57668 0.52331 0.0
C1359 C 0.56816 0.56647 0.46994 0.0
C1360 C 0.55284 0.57947 0.56903 0.0
C1361 C 0.55829 0.57583 0.60942 0.0
C1362 C 0.56488 0.57007 0.51795 0.0
C1363 C 0.56718 0.56947 0.60263 0.0
C1364 C 0.57415 0.55719 0.46462 0.0
C1365 C 0.56763 0.56878 0.38524 0.0
N1366 N 0.57013 0.56671 0.55771 0.0
N1367 N 0.56511 0.57198 0.43015 0.0
H1368 H 0.43156 0.00082 0.63627 0.0
H1369 H 0.41998 0.98196 0.35798 0.0
H1370 H 0.41558 0.95694 0.58058 0.0
H1371 H 0.44683 0.02622 0.41223 0.0
H1372 H 0.41748 0.97247 0.43955 0.0
H1373 H 0.43667 0.01042 0.55443 0.0
C1374 C 0.42924 0.99324 0.60685 0.0
C1375 C 0.42311 0.97808 0.61511 0.0
C1376 C 0.424 0.98425 0.43351 0.0
C1377 C 0.42873 0.9889 0.52164 0.0
C1378 C 0.42539 0.98966 0.38703 0.0
C1379 C 0.43358 0.00488 0.37846 0.0
C1380 C 0.4307 0.99416 0.47161 0.0
C1381 C 0.4404 0.01439 0.41731 0.0
C1382 C 0.43216 -0.0013 0.56019 0.0
C1383 C 0.42031 0.96872 0.57576 0.0
N1384 N 0.43872 0.00888 0.46225 0.0
N1385 N 0.42302 0.97426 0.53068 0.0
H1386 H 0.54807 0.96662 0.58223 0.0
H1387 H 0.58792 0.03913 0.42104 0.0
H1388 H 0.57741 0.00981 0.64035 0.0
H1389 H 0.57004 -0.00472 0.36294 0.0
H1390 H 0.58246 0.0287 0.50159 0.0
H1391 H 0.55408 0.97703 0.50161 0.0
C1392 C 0.55572 0.97832 0.57803 0.0
C1393 C 0.56224 0.98738 0.61806 0.0
C1394 C 0.57979 0.02135 0.47127 0.0
C1395 C 0.56915 -0.00065 0.52586 0.0
C1396 C 0.58288 0.02729 0.42526 0.0
C1397 C 0.57942 0.01804 0.38525 0.0
C1398 C 0.573 0.00602 0.47741 0.0
C1399 C 0.57292 0.0028 0.39283 0.0
C1400 C 0.55921 0.98423 0.53199 0.0
C1401 C 0.57213 0.00244 0.61048 0.0
N1402 N 0.56982 -0.00276 0.43804 0.0
N1403 N 0.57525 0.00797 0.56528 0.0
H1404 H 0.97779 0.53615 0.37543 0.0
H1405 H -0.00046 0.58489 0.60984 0.0
H1406 H -0.00726 0.58274 0.37052 0.0
H1407 H 0.0103 0.55035 0.59454 0.0
H1408 H -0.00806 0.58158 0.52572 0.0
H1409 H 0.98538 0.5388 0.45959 0.0
C1410 C 0.98279 0.54695 0.39202 0.0
C1411 C 0.98475 0.55928 0.36616 0.0
C1412 C -0.00411 0.57469 0.541 0.0
C1413 C -0.00705 0.56224 0.46213 0.0
C1414 C 6e-05 0.57645 0.58897 0.0
C1415 C 0.00552 0.56786 0.60897 0.0
C1416 C -0.0031 0.56405 0.51329 0.0
C1417 C 0.00615 0.55719 0.58029 0.0
C1418 C 0.98708 0.54843 0.43986 0.0
C1419 C 0.99119 0.57301 0.3892 0.0
N1420 N 0.00182 0.55552 0.53381 0.0
N1421 N -0.0051 0.5741 0.43618 0.0
H1422 H 0.41142 0.42011 0.35104 0.0
H1423 H 0.41968 0.41312 0.63269 0.0
H1424 H 0.43966 0.40544 0.41251 0.0
H1425 H 0.40203 0.43892 0.57175 0.0
H1426 H 0.42485 0.40786 0.55193 0.0
H1427 H 0.40566 0.42489 0.43173 0.0
C1428 C 0.4164 0.41791 0.38151 0.0
C1429 C 0.42606 0.41242 0.37518 0.0
C1430 C 0.41986 0.41468 0.55627 0.0
C1431 C 0.41946 0.41772 0.46728 0.0
C1432 C 0.41687 0.41764 0.6023 0.0
C1433 C 0.41047 0.4265 0.60881 0.0
C1434 C 0.41628 0.4205 0.51656 0.0
C1435 C 0.40704 0.43208 0.56826 0.0
C1436 C 0.41314 0.42065 0.42748 0.0
C1437 C 0.43221 0.40973 0.41582 0.0
N1438 N 0.40995 0.42896 0.52382 0.0
N1439 N 0.42876 0.41236 0.46016 0.0
H1440 H 0.05537 0.2867 0.26147 0.0
H1441 H 0.0886 0.35928 0.42403 0.0
H1442 H 0.07801 0.33101 0.20501 0.0
H1443 H 0.07116 0.31531 0.48077 0.0
H1444 H 0.08143 0.34888 0.3438 0.0
H1445 H 0.0577 0.29678 0.3419 0.0
C1446 C 0.06069 0.29855 0.26594 0.0
C1447 C 0.06661 0.30805 0.22655 0.0
C1448 C 0.07906 0.34148 0.37381 0.0
C1449 C 0.06939 0.31965 0.31855 0.0
C1450 C 0.08311 0.34741 0.41967 0.0
C1451 C 0.08058 0.33814 0.45908 0.0
C1452 C 0.07241 0.32617 0.36724 0.0
C1453 C 0.07339 0.32286 0.45133 0.0
C1454 C 0.06205 0.3043 0.3119 0.0
C1455 C 0.07336 0.3233 0.23442 0.0
N1456 N 0.06966 0.31735 0.40625 0.0
N1457 N 0.07465 0.32863 0.27956 0.0
H1458 H 0.66685 0.75318 0.48058 0.0
H1459 H 0.65124 0.74369 0.19916 0.0
H1460 H 0.62322 0.73035 0.41922 0.0
H1461 H 0.69484 0.76587 0.26082 0.0
H1462 H 0.64077 0.73653 0.27947 0.0
H1463 H 0.67732 0.75577 0.40061 0.0
C1464 C 0.65947 0.74858 0.45033 0.0
C1465 C 0.64415 0.74164 0.45649 0.0
C1466 C 0.65263 0.74284 0.27542 0.0
C1467 C 0.65604 0.74466 0.3648 0.0
C1468 C 0.65861 0.74691 0.22956 0.0
C1469 C 0.67392 0.75548 0.22336 0.0
C1470 C 0.66203 0.74743 0.31538 0.0
C1471 C 0.68296 0.75933 0.26399 0.0
C1472 C 0.66545 0.75007 0.40465 0.0
C1473 C 0.6351 0.73585 0.41605 0.0
N1474 N 0.67688 0.75539 0.30827 0.0
N1475 N 0.64119 0.7376 0.3719 0.0
H1476 H 0.24567 0.91072 0.18259 0.0
H1477 H 0.24031 0.91943 0.46518 0.0
H1478 H 0.22263 0.93089 0.24685 0.0
H1479 H 0.25777 0.89392 0.40067 0.0
H1480 H 0.23713 0.92703 0.38538 0.0
H1481 H 0.25368 0.90792 0.26206 0.0
C1482 C 0.24246 0.91473 0.21338 0.0
C1483 C 0.23337 0.92092 0.2082 0.0
C1484 C 0.24177 0.91986 0.38872 0.0
C1485 C 0.24239 0.91767 0.29924 0.0
C1486 C 0.24361 0.91554 0.43424 0.0
C1487 C 0.24919 0.90593 0.43947 0.0
C1488 C 0.24557 0.91455 0.34819 0.0
C1489 C 0.25332 0.90126 0.39822 0.0
C1490 C 0.24699 0.91309 0.25876 0.0
C1491 C 0.22955 0.92596 0.24929 0.0
N1492 N 0.25134 0.90554 0.35431 0.0
N1493 N 0.23399 0.92412 0.29313 0.0
H1494 H 0.31266 0.07194 0.53303 0.0
H1495 H 0.32766 0.07919 0.81544 0.0
H1496 H 0.35616 0.09186 0.59501 0.0
H1497 H 0.28472 0.06247 0.75153 0.0
H1498 H 0.33813 0.08118 0.73549 0.0
H1499 H 0.30203 0.0656 0.61326 0.0
C1500 C 0.31997 0.07485 0.56352 0.0
C1501 C 0.33531 0.08253 0.55739 0.0
C1502 C 0.32639 0.07696 0.73904 0.0
C1503 C 0.32325 0.07541 0.6494 0.0
C1504 C 0.32042 0.07579 0.78465 0.0
C1505 C 0.30533 0.07077 0.79005 0.0
C1506 C 0.31719 0.07305 0.69867 0.0
C1507 C 0.29644 0.06651 0.74899 0.0
C1508 C 0.31391 0.07126 0.60935 0.0
C1509 C 0.34427 0.086 0.59816 0.0
N1510 N 0.30251 0.06783 0.70509 0.0
N1511 N 0.33811 0.08251 0.64246 0.0
H1512 H 0.90232 0.25387 0.81101 0.0
H1513 H 0.91546 0.25144 0.52989 0.0
H1514 H 0.92387 0.23193 0.74841 0.0
H1515 H 0.88884 0.26812 0.59097 0.0
H1516 H 0.92236 0.24814 0.61061 0.0
H1517 H 0.90077 0.26282 0.73158 0.0
C1518 C 0.90684 0.25105 0.78061 0.0
C1519 C 0.91309 0.24203 0.78618 0.0
C1520 C 0.91515 0.25269 0.60633 0.0
C1521 C 0.91137 0.25221 0.69532 0.0
C1522 C 0.91128 0.25465 0.56026 0.0
C1523 C 0.90145 0.25992 0.5538 0.0
C1524 C 0.90915 0.25603 0.64613 0.0
C1525 C 0.89635 0.2639 0.59439 0.0
C1526 C 0.90594 0.25615 0.73529 0.0
C1527 C 0.91883 0.23875 0.74564 0.0
N1528 N 0.90015 0.26174 0.63883 0.0
N1529 N 0.91775 0.24376 0.7019 0.0
H1530 H 0.76307 0.69821 0.74452 0.0
H1531 H 0.72516 0.62472 0.58651 0.0
H1532 H 0.74111 0.65429 0.80411 0.0
H1533 H 0.74801 0.66864 0.52706 0.0
H1534 H 0.7283 0.63536 0.66638 0.0
H1535 H 0.75514 0.68763 0.66481 0.0
C1536 C 0.75646 0.68633 0.74086 0.0
C1537 C 0.75284 0.6771 0.78093 0.0
C1538 C 0.73251 0.64268 0.63586 0.0
C1539 C 0.74379 0.6649 0.68974 0.0
C1540 C 0.73069 0.63661 0.59023 0.0
C1541 C 0.73645 0.64582 0.55016 0.0
C1542 C 0.74019 0.65808 0.64149 0.0
C1543 C 0.74347 0.66114 0.55702 0.0
C1544 C 0.75194 0.6803 0.69532 0.0
C1545 C 0.7442 0.6618 0.77414 0.0
N1546 N 0.74526 0.66679 0.60187 0.0
N1547 N 0.74007 0.65618 0.72936 0.0
H1548 H 0.91135 0.66648 0.52996 0.0
H1549 H 0.90337 0.6521 0.81226 0.0
H1550 H 0.88704 0.6233 0.59422 0.0
H1551 H 0.92466 0.69551 0.74884 0.0
H1552 H 0.90016 0.64133 0.73259 0.0
H1553 H 0.91913 0.67726 0.60968 0.0
C1554 C 0.90777 0.65926 0.56082 0.0
C1555 C 0.89844 0.64399 0.55557 0.0
C1556 C 0.90564 0.65322 0.73609 0.0
C1557 C 0.90723 0.65623 0.64676 0.0
C1558 C 0.9075 0.65937 0.78158 0.0
C1559 C 0.91417 0.67471 0.78708 0.0
C1560 C 0.91045 0.66247 0.69578 0.0
C1561 C 0.91937 0.68362 0.74614 0.0
C1562 C 0.91219 0.66542 0.60631 0.0
C1563 C 0.89415 0.63514 0.5967 0.0
N1564 N 0.9173 0.67736 0.70216 0.0
N1565 N 0.8985 0.6414 0.64058 0.0
H1566 H 0.33773 0.24897 0.82548 0.0
H1567 H 0.32322 0.24131 0.54334 0.0
H1568 H 0.29449 0.22914 0.76152 0.0
H1569 H 0.36614 0.25763 0.60704 0.0
H1570 H 0.31289 0.23983 0.62283 0.0
H1571 H 0.3487 0.25537 0.74565 0.0
C1572 C 0.33055 0.24612 0.79466 0.0
C1573 C 0.31518 0.2384 0.80003 0.0
C1574 C 0.32459 0.24384 0.61943 0.0
C1575 C 0.32763 0.24558 0.70871 0.0
C1576 C 0.33049 0.24469 0.57405 0.0
C1577 C 0.34553 0.24947 0.56871 0.0
C1578 C 0.33379 0.24777 0.65974 0.0
C1579 C 0.35446 0.25379 0.60964 0.0
C1580 C 0.33682 0.24973 0.7491 0.0
C1581 C 0.3064 0.235 0.75894 0.0
N1582 N 0.34843 0.25274 0.6535 0.0
N1583 N 0.31274 0.23851 0.71498 0.0
H1584 H 0.75779 0.0645 0.74501 0.0
H1585 H 0.72064 0.10002 0.58482 0.0
H1586 H 0.73628 0.08709 0.80283 0.0
H1587 H 0.74097 0.07635 0.52652 0.0
H1588 H 0.72346 0.09262 0.66504 0.0
H1589 H 0.7492 0.06615 0.6653 0.0
C1590 C 0.75115 0.0697 0.74097 0.0
C1591 C 0.74786 0.07581 0.78049 0.0
C1592 C 0.72715 0.08887 0.63473 0.0
C1593 C 0.73804 0.07779 0.68932 0.0
C1594 C 0.7255 0.09307 0.58888 0.0
C1595 C 0.73072 0.08891 0.54903 0.0
C1596 C 0.73419 0.08057 0.64086 0.0
C1597 C 0.73686 0.07985 0.55632 0.0
C1598 C 0.74623 0.07063 0.69544 0.0
C1599 C 0.73914 0.08233 0.77326 0.0
N1600 N 0.7386 0.07614 0.60145 0.0
N1601 N 0.73465 0.08327 0.72848 0.0
H1602 H 0.70061 0.92937 0.25032 0.0
H1603 H 0.62728 0.89517 0.40887 0.0
H1604 H 0.65662 0.90774 0.19162 0.0
H1605 H 0.671 0.91442 0.46888 0.0
H1606 H 0.63805 0.90221 0.32922 0.0
H1607 H 0.69019 0.92643 0.33049 0.0
C1608 C 0.68876 0.9241 0.25428 0.0
C1609 C 0.67945 0.91869 0.21431 0.0
C1610 C 0.64532 0.905 0.35976 0.0
C1611 C 0.66746 0.91526 0.30594 0.0
C1612 C 0.63918 0.90101 0.4053 0.0
C1613 C 0.64827 0.90413 0.44551 0.0
C1614 C 0.66069 0.91214 0.35424 0.0
C1615 C 0.6636 0.91176 0.43879 0.0
C1616 C 0.68282 0.92242 0.30007 0.0
C1617 C 0.66419 0.91201 0.22149 0.0
N1618 N 0.66933 0.91541 0.39394 0.0
N1619 N 0.65867 0.9104 0.26645 0.0
H1620 H 0.07776 0.747 0.48852 0.0
H1621 H 0.08377 0.73984 0.20536 0.0
H1622 H 0.10502 0.73194 0.42185 0.0
H1623 H 0.06464 0.76384 0.2699 0.0
H1624 H 0.08837 0.73347 0.28507 0.0
H1625 H 0.0697 0.74998 0.40913 0.0
C1626 C 0.08196 0.74422 0.45719 0.0
C1627 C 0.09214 0.73931 0.46166 0.0
C1628 C 0.08309 0.74006 0.28181 0.0
C1629 C 0.08297 0.74265 0.37103 0.0
C1630 C 0.08042 0.74366 0.23633 0.0
C1631 C 0.07391 0.75247 0.23108 0.0
C1632 C 0.07917 0.74526 0.32235 0.0
C1633 C 0.06976 0.75709 0.27241 0.0
C1634 C 0.07738 0.74595 0.41195 0.0
C1635 C 0.09723 0.73585 0.41998 0.0
N1636 N 0.07252 0.75348 0.31636 0.0
N1637 N 0.09261 0.73761 0.37641 0.0
H1638 H 0.24213 0.34161 0.18824 0.0
H1639 H 0.23456 0.32485 0.46867 0.0
H1640 H 0.22391 0.2979 0.24786 0.0
H1641 H 0.25603 0.36882 0.40949 0.0
H1642 H 0.23239 0.31488 0.38811 0.0
H1643 H 0.24918 0.35196 0.26877 0.0
C1644 C 0.23977 0.3342 0.21822 0.0
C1645 C 0.23233 0.31887 0.21142 0.0
C1646 C 0.23771 0.32672 0.39276 0.0
C1647 C 0.24022 0.3306 0.30366 0.0
C1648 C 0.23896 0.33241 0.43877 0.0
C1649 C 0.24539 0.34767 0.44572 0.0
C1650 C 0.24282 0.33635 0.35337 0.0
C1651 C 0.25093 0.35697 0.40571 0.0
C1652 C 0.24377 0.34011 0.2642 0.0
C1653 C 0.22957 0.30978 0.2515 0.0
N1654 N 0.24939 0.35116 0.36122 0.0
N1655 N 0.23339 0.31577 0.29592 0.0
H1656 H 0.97064 0.40052 0.85702 0.0
H1657 H 0.98442 0.40662 0.13977 0.0
H1658 H 0.01388 0.42231 0.92136 0.0
H1659 H 0.94198 0.39177 0.07435 0.0
H1660 H -0.00492 0.40866 0.06024 0.0
H1661 H 0.95968 0.39344 0.93666 0.0
C1662 C 0.97783 0.40368 0.8879 0.0
C1663 C -0.00682 0.41213 0.88268 0.0
C1664 C 0.98341 0.40483 0.06336 0.0
C1665 C 0.98074 0.40413 0.97384 0.0
C1666 C 0.97732 0.40362 0.10871 0.0
C1667 C 0.96234 0.39916 0.11353 0.0
C1668 C 0.97442 0.40149 0.02268 0.0
C1669 C 0.95362 0.39538 0.07217 0.0
C1670 C 0.97158 0.39967 0.93335 0.0
C1671 C 0.00199 0.41589 0.92386 0.0
N1672 N 0.95981 0.39672 0.02847 0.0
N1673 N -0.00437 0.41195 0.96776 0.0
H1674 H 0.56967 0.57797 0.13569 0.0
H1675 H 0.57661 0.57165 0.85266 0.0
H1676 H 0.58774 0.55313 0.07018 0.0
H1677 H 0.55144 0.58934 0.91816 0.0
H1678 H 0.58382 0.56782 0.9322 0.0
H1679 H 0.56596 0.58529 0.0562 0.0
C1680 C 0.57297 0.57416 0.10457 0.0
C1681 C 0.57893 0.56485 0.10943 0.0
C1682 C 0.57679 0.57262 0.92915 0.0
C1683 C 0.5747 0.57315 0.01853 0.0
C1684 C 0.5727 0.57483 0.88379 0.0
C1685 C 0.56334 0.58072 0.87892 0.0
C1686 C 0.57151 0.57637 0.96985 0.0
C1687 C 0.55861 0.58468 0.92038 0.0
C1688 C 0.57081 0.5783 0.05924 0.0
C1689 C 0.58303 0.56025 0.06798 0.0
N1690 N 0.5627 0.58238 0.96414 0.0
N1691 N 0.58078 0.5644 0.02423 0.0
H1692 H 0.40532 0.98233 0.13656 0.0
H1693 H 0.41471 -0.00109 0.85609 0.0
H1694 H 0.42674 0.02613 0.076 0.0
H1695 H 0.39414 0.95509 0.91625 0.0
H1696 H 0.41623 0.00894 0.93612 0.0
H1697 H 0.39812 0.97202 0.05613 0.0
C1698 C 0.40834 0.98978 0.10637 0.0
C1699 C 0.41677 0.0051 0.11284 0.0
C1700 C 0.41125 -0.00288 0.9318 0.0
C1701 C 0.40869 0.9934 0.0208 0.0
C1702 C 0.41037 0.99139 0.88611 0.0
C1703 C 0.40444 0.97617 0.87966 0.0
C1704 C 0.40622 0.98755 0.97134 0.0
C1705 C 0.3989 0.96691 0.91972 0.0
C1706 C 0.40426 0.98389 0.06046 0.0
C1707 C 0.42035 0.01424 0.07255 0.0
N1708 N 0.40006 0.97276 0.96393 0.0
N1709 N 0.41641 0.00825 0.02821 0.0
H1710 H 0.5656 0.96635 0.92241 0.0
H1711 H 0.59501 0.03993 0.07716 0.0
H1712 H 0.58269 0.00973 0.86128 0.0
H1713 H 0.58083 -0.00282 0.13944 0.0
H1714 H 0.59238 0.02926 0.99772 0.0
H1715 H 0.57288 0.97753 0.00178 0.0
C1716 C 0.57103 0.97824 0.92564 0.0
C1717 C 0.57345 0.98713 0.88524 0.0
C1718 C 0.58995 0.02221 0.02869 0.0
C1719 C 0.58171 -1e-05 0.97597 0.0
C1720 C 0.59145 0.0283 0.07411 0.0
C1721 C 0.58802 0.01939 0.11495 0.0
C1722 C 0.58486 0.00705 0.02392 0.0
C1723 C 0.58354 0.00442 0.10887 0.0
C1724 C 0.57517 0.98462 0.97097 0.0
C1725 C 0.58056 0.00247 0.89148 0.0
N1726 N 0.58195 -0.00132 0.06416 0.0
N1727 N 0.58431 0.0084 0.93602 0.0
H1728 H 0.98835 0.57737 0.84649 0.0
H1729 H 0.00606 0.58549 0.12555 0.0
H1730 H 0.03242 0.59791 0.90431 0.0
H1731 H 0.96218 0.56711 0.06755 0.0
H1732 H 0.01615 0.59298 0.04502 0.0
H1733 H 0.97878 0.57639 0.92691 0.0
C1734 C -0.00397 0.58186 0.87605 0.0
C1735 C 0.01118 0.58758 0.86886 0.0
C1736 C 0.00432 0.58747 0.04993 0.0
C1737 C 0.00031 0.58635 0.96103 0.0
C1738 C -0.00144 0.5832 0.09592 0.0
C1739 C 0.98326 0.57553 0.1031 0.0
C1740 C -0.0053 0.58392 0.01084 0.0
C1741 C 0.97405 0.57291 0.06352 0.0
C1742 C 0.99057 0.58128 0.92198 0.0
C1743 C 0.02064 0.59331 0.90835 0.0
N1744 N 0.9799 0.57694 0.01901 0.0
N1745 N 0.01504 0.59239 0.95284 0.0
H1746 H 0.40473 0.4119 0.13376 0.0
H1747 H 0.41186 0.40581 0.85074 0.0
H1748 H 0.42923 0.39343 0.06852 0.0
H1749 H 0.39421 0.43094 0.91684 0.0
H1750 H 0.41503 0.39792 0.93005 0.0
H1751 H 0.39743 0.4156 0.05428 0.0
C1752 C 0.40845 0.40848 0.10271 0.0
C1753 C 0.41769 0.40246 0.10766 0.0
C1754 C 0.41037 0.40508 0.92717 0.0
C1755 C 0.40945 0.40672 0.01667 0.0
C1756 C 0.40853 0.40956 0.88194 0.0
C1757 C 0.40287 0.41913 0.87731 0.0
C1758 C 0.40647 0.41018 0.96799 0.0
C1759 C 0.39871 0.42363 0.91885 0.0
C1760 C 0.40432 0.41064 0.05736 0.0
C1761 C 0.42216 0.3982 0.06625 0.0
N1762 N 0.40065 0.41917 0.96248 0.0
N1763 N 0.41807 0.40049 0.02245 0.0
loop_
_geom_bond_atom_site_label_1
_geom_bond_atom_site_label_2
_geom_bond_distance
_geom_bond_site_symmetry_2
_ccdc_geom_bond_type
In0 O1 2.294 . S
In0 O2 2.326 . S
In0 O6 2.266 . S
In0 O7 2.326 . S
In0 O8 2.266 . S
In0 O9 2.326 1_554 S
In0 O11 2.294 . S
In0 O12 2.326 . S
O1 In0 2.294 . S
O1 C10 1.240 . S
O2 In0 2.326 . S
O2 C10 1.252 . S
C3 O6 1.252 . S
C3 O7 1.260 . S
C4 O11 1.240 . S
C4 O12 1.252 . S
C5 O8 1.252 1_556 S
C5 O9 1.260 . S
O6 In0 2.266 . S
O6 C3 1.252 . S
O7 In0 2.326 . S
O7 C3 1.260 . S
O8 In0 2.266 . S
O8 C5 1.252 1_554 S
O9 In0 2.326 1_556 S
O9 C5 1.260 . S
C10 O1 1.240 . S
C10 O2 1.252 . S
O11 In0 2.294 . S
O11 C4 1.240 . S
O12 In0 2.326 . S
O12 C4 1.252 . S
In13 O14 2.294 . S
In13 O15 2.326 . S
In13 O19 2.266 . S
In13 O20 2.326 . S
In13 O21 2.266 . S
In13 O22 2.326 1_554 S
In13 O24 2.294 . S
In13 O25 2.326 . S
O14 In13 2.294 . S
O14 C23 1.240 . S
O15 In13 2.326 . S
O15 C23 1.252 . S
C16 O19 1.252 . S
C16 O20 1.260 . S
C17 O24 1.240 . S
C17 O25 1.252 . S
C18 O21 1.252 1_556 S
C18 O22 1.260 . S
O19 In13 2.266 . S
O19 C16 1.252 . S
O20 In13 2.326 . S
O20 C16 1.260 . S
O21 In13 2.266 . S
O21 C18 1.252 1_554 S
O22 In13 2.326 1_556 S
O22 C18 1.260 . S
C23 O14 1.240 . S
C23 O15 1.252 . S
O24 In13 2.294 . S
O24 C17 1.240 . S
O25 In13 2.326 . S
O25 C17 1.252 . S
In26 O27 2.294 . S
In26 O28 2.326 . S
In26 O32 2.266 . S
In26 O33 2.326 1_554 S
In26 O34 2.266 . S
In26 O35 2.326 . S
In26 O37 2.294 . S
In26 O38 2.326 . S
O27 In26 2.294 . S
O27 C36 1.240 . S
O28 In26 2.326 . S
O28 C36 1.252 . S
C29 O32 1.252 1_556 S
C29 O33 1.260 . S
C30 O37 1.240 . S
C30 O38 1.252 . S
C31 O34 1.252 . S
C31 O35 1.260 . S
O32 In26 2.266 . S
O32 C29 1.252 1_554 S
O33 In26 2.326 1_556 S
O33 C29 1.260 . S
O34 In26 2.266 . S
O34 C31 1.252 . S
O35 In26 2.326 . S
O35 C31 1.260 . S
C36 O27 1.240 . S
C36 O28 1.252 . S
O37 In26 2.294 . S
O37 C30 1.240 . S
O38 In26 2.326 . S
O38 C30 1.252 . S
In39 O40 2.294 . S
In39 O41 2.326 . S
In39 O45 2.266 . S
In39 O46 2.326 1_556 S
In39 O47 2.266 . S
In39 O48 2.326 . S
In39 O50 2.294 . S
In39 O51 2.326 . S
O40 In39 2.294 . S
O40 C49 1.240 . S
O41 In39 2.326 . S
O41 C49 1.252 . S
C42 O45 1.252 1_554 S
C42 O46 1.260 . S
C43 O50 1.240 . S
C43 O51 1.252 . S
C44 O47 1.252 . S
C44 O48 1.260 . S
O45 In39 2.266 . S
O45 C42 1.252 1_556 S
O46 In39 2.326 1_554 S
O46 C42 1.260 . S
O47 In39 2.266 . S
O47 C44 1.252 . S
O48 In39 2.326 . S
O48 C44 1.260 . S
C49 O40 1.240 . S
C49 O41 1.252 . S
O50 In39 2.294 . S
O50 C43 1.240 . S
O51 In39 2.326 . S
O51 C43 1.252 . S
In52 O53 2.294 . S
In52 O54 2.326 . S
In52 O58 2.266 . S
In52 O59 2.326 1_556 S
In52 O60 2.266 . S
In52 O61 2.326 . S
In52 O63 2.294 . S
In52 O64 2.326 . S
O53 In52 2.294 . S
O53 C62 1.240 . S
O54 In52 2.326 . S
O54 C62 1.252 . S
C55 O58 1.252 1_554 S
C55 O59 1.260 . S
C56 O63 1.240 . S
C56 O64 1.252 . S
C57 O60 1.252 . S
C57 O61 1.260 . S
O58 In52 2.266 . S
O58 C55 1.252 1_556 S
O59 In52 2.326 1_554 S
O59 C55 1.260 . S
O60 In52 2.266 . S
O60 C57 1.252 . S
O61 In52 2.326 . S
O61 C57 1.260 . S
C62 O53 1.240 . S
C62 O54 1.252 . S
O63 In52 2.294 . S
O63 C56 1.240 . S
O64 In52 2.326 . S
O64 C56 1.252 . S
In65 O66 2.294 . S
In65 O67 2.326 . S
In65 O71 2.266 . S
In65 O72 2.326 . S
In65 O73 2.266 . S
In65 O74 2.326 1_556 S
In65 O76 2.294 . S
In65 O77 2.326 . S
O66 In65 2.294 . S
O66 C75 1.240 . S
O67 In65 2.326 . S
O67 C75 1.252 . S
C68 O71 1.252 . S
C68 O72 1.260 . S
C69 O76 1.240 . S
C69 O77 1.252 . S
C70 O73 1.252 1_554 S
C70 O74 1.260 . S
O71 In65 2.266 . S
O71 C68 1.252 . S
O72 In65 2.326 . S
O72 C68 1.260 . S
O73 In65 2.266 . S
O73 C70 1.252 1_556 S
O74 In65 2.326 1_554 S
O74 C70 1.260 . S
C75 O66 1.240 . S
C75 O67 1.252 . S
O76 In65 2.294 . S
O76 C69 1.240 . S
O77 In65 2.326 . S
O77 C69 1.252 . S
In78 O79 2.294 . S
In78 O80 2.326 . S
In78 O84 2.266 . S
In78 O85 2.326 1_556 S
In78 O86 2.266 . S
In78 O87 2.326 . S
In78 O89 2.294 . S
In78 O90 2.326 . S
O79 In78 2.294 . S
O79 C88 1.240 . S
O80 In78 2.326 . S
O80 C88 1.252 . S
C81 O84 1.252 1_554 S
C81 O85 1.260 . S
C82 O89 1.240 . S
C82 O90 1.252 . S
C83 O86 1.252 . S
C83 O87 1.260 . S
O84 In78 2.266 . S
O84 C81 1.252 1_556 S
O85 In78 2.326 1_554 S
O85 C81 1.260 . S
O86 In78 2.266 . S
O86 C83 1.252 . S
O87 In78 2.326 . S
O87 C83 1.260 . S
C88 O79 1.240 . S
C88 O80 1.252 . S
O89 In78 2.294 . S
O89 C82 1.240 . S
O90 In78 2.326 . S
O90 C82 1.252 . S
In91 O92 2.294 . S
In91 O93 2.326 . S
In91 O97 2.266 . S
In91 O98 2.326 . S
In91 O99 2.266 . S
In91 O100 2.326 1_556 S
In91 O102 2.294 . S
In91 O103 2.326 . S
O92 In91 2.294 . S
O92 C101 1.240 . S
O93 In91 2.326 . S
O93 C101 1.252 . S
C94 O97 1.252 . S
C94 O98 1.260 . S
C95 O102 1.240 . S
C95 O103 1.252 . S
C96 O99 1.252 1_554 S
C96 O100 1.260 . S
O97 In91 2.266 . S
O97 C94 1.252 . S
O98 In91 2.326 . S
O98 C94 1.260 . S
O99 In91 2.266 . S
O99 C96 1.252 1_556 S
O100 In91 2.326 1_554 S
O100 C96 1.260 . S
C101 O92 1.240 . S
C101 O93 1.252 . S
O102 In91 2.294 . S
O102 C95 1.240 . S
O103 In91 2.326 . S
O103 C95 1.252 . S
In104 O105 2.294 . S
In104 O106 2.326 . S
In104 O110 2.266 . S
In104 O111 2.326 1_556 S
In104 O112 2.266 . S
In104 O113 2.326 . S
In104 O115 2.294 . S
In104 O116 2.326 . S
O105 In104 2.294 . S
O105 C114 1.240 . S
O106 In104 2.326 . S
O106 C114 1.252 . S
C107 O110 1.252 1_554 S
C107 O111 1.260 . S
C108 O115 1.240 . S
C108 O116 1.252 . S
C109 O112 1.252 . S
C109 O113 1.260 . S
O110 In104 2.266 . S
O110 C107 1.252 1_556 S
O111 In104 2.326 1_554 S
O111 C107 1.260 . S
O112 In104 2.266 . S
O112 C109 1.252 . S
O113 In104 2.326 . S
O113 C109 1.260 . S
C114 O105 1.240 . S
C114 O106 1.252 . S
O115 In104 2.294 . S
O115 C108 1.240 . S
O116 In104 2.326 . S
O116 C108 1.252 . S
In117 O118 2.294 . S
In117 O119 2.326 . S
In117 O123 2.266 . S
In117 O124 2.326 1_554 S
In117 O125 2.266 . S
In117 O126 2.326 . S
In117 O128 2.294 . S
In117 O129 2.326 . S
O118 In117 2.294 . S
O118 C127 1.240 . S
O119 In117 2.326 . S
O119 C127 1.252 . S
C120 O123 1.252 1_556 S
C120 O124 1.260 . S
C121 O128 1.240 . S
C121 O129 1.252 . S
C122 O125 1.252 . S
C122 O126 1.260 . S
O123 In117 2.266 . S
O123 C120 1.252 1_554 S
O124 In117 2.326 1_556 S
O124 C120 1.260 . S
O125 In117 2.266 . S
O125 C122 1.252 . S
O126 In117 2.326 . S
O126 C122 1.260 . S
C127 O118 1.240 . S
C127 O119 1.252 . S
O128 In117 2.294 . S
O128 C121 1.240 . S
O129 In117 2.326 . S
O129 C121 1.252 . S
In130 O131 2.294 . S
In130 O132 2.326 . S
In130 O136 2.266 . S
In130 O137 2.326 . S
In130 O138 2.266 . S
In130 O139 2.326 1_554 S
In130 O141 2.294 . S
In130 O142 2.326 . S
O131 In130 2.294 . S
O131 C140 1.240 . S
O132 In130 2.326 . S
O132 C140 1.252 . S
C133 O136 1.252 . S
C133 O137 1.260 . S
C134 O141 1.240 . S
C134 O142 1.252 . S
C135 O138 1.252 1_556 S
C135 O139 1.260 . S
O136 In130 2.266 . S
O136 C133 1.252 . S
O137 In130 2.326 . S
O137 C133 1.260 . S
O138 In130 2.266 . S
O138 C135 1.252 1_554 S
O139 In130 2.326 1_556 S
O139 C135 1.260 . S
C140 O131 1.240 . S
C140 O132 1.252 . S
O141 In130 2.294 . S
O141 C134 1.240 . S
O142 In130 2.326 . S
O142 C134 1.252 . S
In143 O144 2.294 . S
In143 O145 2.326 . S
In143 O149 2.266 . S
In143 O150 2.326 1_554 S
In143 O151 2.266 . S
In143 O152 2.326 . S
In143 O154 2.294 . S
In143 O155 2.326 . S
O144 In143 2.294 . S
O144 C153 1.240 . S
O145 In143 2.326 . S
O145 C153 1.252 . S
C146 O149 1.252 1_556 S
C146 O150 1.260 . S
C147 O154 1.240 . S
C147 O155 1.252 . S
C148 O151 1.252 . S
C148 O152 1.260 . S
O149 In143 2.266 . S
O149 C146 1.252 1_554 S
O150 In143 2.326 1_556 S
O150 C146 1.260 . S
O151 In143 2.266 . S
O151 C148 1.252 . S
O152 In143 2.326 . S
O152 C148 1.260 . S
C153 O144 1.240 . S
C153 O145 1.252 . S
O154 In143 2.294 . S
O154 C147 1.240 . S
O155 In143 2.326 . S
O155 C147 1.252 . S
In156 O157 2.294 . S
In156 O158 2.326 . S
In156 O162 2.266 . S
In156 O163 2.326 . S
In156 O164 2.266 . S
In156 O165 2.326 . S
In156 O167 2.294 . S
In156 O168 2.326 . S
O157 In156 2.294 . S
O157 C166 1.240 . S
O158 In156 2.326 . S
O158 C166 1.252 . S
C159 O162 1.252 . S
C159 O163 1.260 . S
C160 O167 1.240 . S
C160 O168 1.252 . S
C161 O164 1.252 . S
C161 O165 1.260 . S
O162 In156 2.266 . S
O162 C159 1.252 . S
O163 In156 2.326 . S
O163 C159 1.260 . S
O164 In156 2.266 . S
O164 C161 1.252 . S
O165 In156 2.326 . S
O165 C161 1.260 . S
C166 O157 1.240 . S
C166 O158 1.252 . S
O167 In156 2.294 . S
O167 C160 1.240 . S
O168 In156 2.326 . S
O168 C160 1.252 . S
In169 O170 2.294 . S
In169 O171 2.326 . S
In169 O175 2.266 . S
In169 O176 2.326 . S
In169 O177 2.266 . S
In169 O178 2.326 . S
In169 O180 2.294 . S
In169 O181 2.326 . S
O170 In169 2.294 . S
O170 C179 1.240 . S
O171 In169 2.326 . S
O171 C179 1.252 . S
C172 O175 1.252 . S
C172 O176 1.260 . S
C173 O180 1.240 . S
C173 O181 1.252 . S
C174 O177 1.252 . S
C174 O178 1.260 . S
O175 In169 2.266 . S
O175 C172 1.252 . S
O176 In169 2.326 . S
O176 C172 1.260 . S
O177 In169 2.266 . S
O177 C174 1.252 . S
O178 In169 2.326 . S
O178 C174 1.260 . S
C179 O170 1.240 . S
C179 O171 1.252 . S
O180 In169 2.294 . S
O180 C173 1.240 . S
O181 In169 2.326 . S
O181 C173 1.252 . S
In182 O183 2.294 . S
In182 O184 2.326 . S
In182 O188 2.266 . S
In182 O189 2.326 . S
In182 O190 2.266 . S
In182 O191 2.326 . S
In182 O193 2.294 . S
In182 O194 2.326 . S
O183 In182 2.294 . S
O183 C192 1.240 . S
O184 In182 2.326 . S
O184 C192 1.252 . S
C185 O188 1.252 . S
C185 O189 1.260 . S
C186 O193 1.240 . S
C186 O194 1.252 . S
C187 O190 1.252 . S
C187 O191 1.260 . S
O188 In182 2.266 . S
O188 C185 1.252 . S
O189 In182 2.326 . S
O189 C185 1.260 . S
O190 In182 2.266 . S
O190 C187 1.252 . S
O191 In182 2.326 . S
O191 C187 1.260 . S
C192 O183 1.240 . S
C192 O184 1.252 . S
O193 In182 2.294 . S
O193 C186 1.240 . S
O194 In182 2.326 . S
O194 C186 1.252 . S
In195 O196 2.294 . S
In195 O197 2.326 . S
In195 O201 2.266 . S
In195 O202 2.326 . S
In195 O203 2.266 . S
In195 O204 2.326 . S
In195 O206 2.294 . S
In195 O207 2.326 . S
O196 In195 2.294 . S
O196 C205 1.240 . S
O197 In195 2.326 . S
O197 C205 1.252 . S
C198 O201 1.252 . S
C198 O202 1.260 . S
C199 O206 1.240 . S
C199 O207 1.252 . S
C200 O203 1.252 . S
C200 O204 1.260 . S
O201 In195 2.266 . S
O201 C198 1.252 . S
O202 In195 2.326 . S
O202 C198 1.260 . S
O203 In195 2.266 . S
O203 C200 1.252 . S
O204 In195 2.326 . S
O204 C200 1.260 . S
C205 O196 1.240 . S
C205 O197 1.252 . S
O206 In195 2.294 . S
O206 C199 1.240 . S
O207 In195 2.326 . S
O207 C199 1.252 . S
In208 O209 2.294 . S
In208 O210 2.326 . S
In208 O214 2.266 . S
In208 O215 2.326 . S
In208 O216 2.266 . S
In208 O217 2.326 . S
In208 O219 2.294 . S
In208 O220 2.326 . S
O209 In208 2.294 . S
O209 C218 1.240 . S
O210 In208 2.326 . S
O210 C218 1.252 . S
C211 O214 1.252 . S
C211 O215 1.260 . S
C212 O219 1.240 . S
C212 O220 1.252 . S
C213 O216 1.252 . S
C213 O217 1.260 . S
O214 In208 2.266 . S
O214 C211 1.252 . S
O215 In208 2.326 . S
O215 C211 1.260 . S
O216 In208 2.266 . S
O216 C213 1.252 . S
O217 In208 2.326 . S
O217 C213 1.260 . S
C218 O209 1.240 . S
C218 O210 1.252 . S
O219 In208 2.294 . S
O219 C212 1.240 . S
O220 In208 2.326 . S
O220 C212 1.252 . S
In221 O222 2.294 . S
In221 O223 2.326 . S
In221 O227 2.266 . S
In221 O228 2.326 . S
In221 O229 2.266 . S
In221 O230 2.326 . S
In221 O232 2.294 . S
In221 O233 2.326 . S
O222 In221 2.294 . S
O222 C231 1.240 . S
O223 In221 2.326 . S
O223 C231 1.252 . S
C224 O227 1.252 . S
C224 O228 1.260 . S
C225 O232 1.240 . S
C225 O233 1.252 . S
C226 O229 1.252 . S
C226 O230 1.260 . S
O227 In221 2.266 . S
O227 C224 1.252 . S
O228 In221 2.326 . S
O228 C224 1.260 . S
O229 In221 2.266 . S
O229 C226 1.252 . S
O230 In221 2.326 . S
O230 C226 1.260 . S
C231 O222 1.240 . S
C231 O223 1.252 . S
O232 In221 2.294 . S
O232 C225 1.240 . S
O233 In221 2.326 . S
O233 C225 1.252 . S
In234 O235 2.294 . S
In234 O236 2.326 . S
In234 O240 2.266 . S
In234 O241 2.326 . S
In234 O242 2.266 . S
In234 O243 2.326 . S
In234 O245 2.294 . S
In234 O246 2.326 . S
O235 In234 2.294 . S
O235 C244 1.240 . S
O236 In234 2.326 . S
O236 C244 1.252 . S
C237 O240 1.252 . S
C237 O241 1.260 . S
C238 O245 1.240 . S
C238 O246 1.252 . S
C239 O242 1.252 . S
C239 O243 1.260 . S
O240 In234 2.266 . S
O240 C237 1.252 . S
O241 In234 2.326 . S
O241 C237 1.260 . S
O242 In234 2.266 . S
O242 C239 1.252 . S
O243 In234 2.326 . S
O243 C239 1.260 . S
C244 O235 1.240 . S
C244 O236 1.252 . S
O245 In234 2.294 . S
O245 C238 1.240 . S
O246 In234 2.326 . S
O246 C238 1.252 . S
In247 O248 2.294 . S
In247 O249 2.326 . S
In247 O253 2.266 . S
In247 O254 2.326 . S
In247 O255 2.266 . S
In247 O256 2.326 . S
In247 O258 2.294 . S
In247 O259 2.326 . S
O248 In247 2.294 . S
O248 C257 1.240 . S
O249 In247 2.326 . S
O249 C257 1.252 . S
C250 O253 1.252 . S
C250 O254 1.260 . S
C251 O258 1.240 . S
C251 O259 1.252 . S
C252 O255 1.252 . S
C252 O256 1.260 . S
O253 In247 2.266 . S
O253 C250 1.252 . S
O254 In247 2.326 . S
O254 C250 1.260 . S
O255 In247 2.266 . S
O255 C252 1.252 . S
O256 In247 2.326 . S
O256 C252 1.260 . S
C257 O248 1.240 . S
C257 O249 1.252 . S
O258 In247 2.294 . S
O258 C251 1.240 . S
O259 In247 2.326 . S
O259 C251 1.252 . S
In260 O261 2.294 . S
In260 O262 2.326 . S
In260 O266 2.266 . S
In260 O267 2.326 . S
In260 O268 2.266 . S
In260 O269 2.326 . S
In260 O271 2.294 . S
In260 O272 2.326 . S
O261 In260 2.294 . S
O261 C270 1.240 . S
O262 In260 2.326 . S
O262 C270 1.252 . S
C263 O266 1.252 . S
C263 O267 1.260 . S
C264 O271 1.240 . S
C264 O272 1.252 . S
C265 O268 1.252 . S
C265 O269 1.260 . S
O266 In260 2.266 . S
O266 C263 1.252 . S
O267 In260 2.326 . S
O267 C263 1.260 . S
O268 In260 2.266 . S
O268 C265 1.252 . S
O269 In260 2.326 . S
O269 C265 1.260 . S
C270 O261 1.240 . S
C270 O262 1.252 . S
O271 In260 2.294 . S
O271 C264 1.240 . S
O272 In260 2.326 . S
O272 C264 1.252 . S
In273 O274 2.294 . S
In273 O275 2.326 . S
In273 O279 2.266 . S
In273 O280 2.326 . S
In273 O281 2.266 . S
In273 O282 2.326 . S
In273 O284 2.294 . S
In273 O285 2.326 . S
O274 In273 2.294 . S
O274 C283 1.240 . S
O275 In273 2.326 . S
O275 C283 1.252 . S
C276 O279 1.252 . S
C276 O280 1.260 . S
C277 O284 1.240 . S
C277 O285 1.252 . S
C278 O281 1.252 . S
C278 O282 1.260 . S
O279 In273 2.266 . S
O279 C276 1.252 . S
O280 In273 2.326 . S
O280 C276 1.260 . S
O281 In273 2.266 . S
O281 C278 1.252 . S
O282 In273 2.326 . S
O282 C278 1.260 . S
C283 O274 1.240 . S
C283 O275 1.252 . S
O284 In273 2.294 . S
O284 C277 1.240 . S
O285 In273 2.326 . S
O285 C277 1.252 . S
In286 O287 2.294 . S
In286 O288 2.326 . S
In286 O292 2.266 . S
In286 O293 2.326 . S
In286 O294 2.266 . S
In286 O295 2.326 . S
In286 O297 2.294 . S
In286 O298 2.326 . S
O287 In286 2.294 . S
O287 C296 1.240 . S
O288 In286 2.326 . S
O288 C296 1.252 . S
C289 O292 1.252 . S
C289 O293 1.260 . S
C290 O297 1.240 . S
C290 O298 1.252 . S
C291 O294 1.252 . S
C291 O295 1.260 . S
O292 In286 2.266 . S
O292 C289 1.252 . S
O293 In286 2.326 . S
O293 C289 1.260 . S
O294 In286 2.266 . S
O294 C291 1.252 . S
O295 In286 2.326 . S
O295 C291 1.260 . S
C296 O287 1.240 . S
C296 O288 1.252 . S
O297 In286 2.294 . S
O297 C290 1.240 . S
O298 In286 2.326 . S
O298 C290 1.252 . S
In299 O300 2.294 . S
In299 O301 2.326 . S
In299 O305 2.266 . S
In299 O306 2.326 . S
In299 O307 2.266 . S
In299 O308 2.326 . S
In299 O310 2.294 . S
In299 O311 2.326 . S
O300 In299 2.294 . S
O300 C309 1.240 . S
O301 In299 2.326 . S
O301 C309 1.252 . S
C302 O305 1.252 . S
C302 O306 1.260 . S
C303 O310 1.240 . S
C303 O311 1.252 . S
C304 O307 1.252 . S
C304 O308 1.260 . S
O305 In299 2.266 . S
O305 C302 1.252 . S
O306 In299 2.326 . S
O306 C302 1.260 . S
O307 In299 2.266 . S
O307 C304 1.252 . S
O308 In299 2.326 . S
O308 C304 1.260 . S
C309 O300 1.240 . S
C309 O301 1.252 . S
O310 In299 2.294 . S
O310 C303 1.240 . S
O311 In299 2.326 . S
O311 C303 1.252 . S
In312 O313 2.294 . S
In312 O314 2.326 . S
In312 O318 2.266 . S
In312 O319 2.326 . S
In312 O320 2.266 . S
In312 O321 2.326 . S
In312 O323 2.294 . S
In312 O324 2.326 . S
O313 In312 2.294 . S
O313 C322 1.240 . S
O314 In312 2.326 . S
O314 C322 1.252 . S
C315 O318 1.252 . S
C315 O319 1.260 . S
C316 O323 1.240 . S
C316 O324 1.252 . S
C317 O320 1.252 . S
C317 O321 1.260 . S
O318 In312 2.266 . S
O318 C315 1.252 . S
O319 In312 2.326 . S
O319 C315 1.260 . S
O320 In312 2.266 . S
O320 C317 1.252 . S
O321 In312 2.326 . S
O321 C317 1.260 . S
C322 O313 1.240 . S
C322 O314 1.252 . S
O323 In312 2.294 . S
O323 C316 1.240 . S
O324 In312 2.326 . S
O324 C316 1.252 . S
In325 O326 2.294 . S
In325 O327 2.326 . S
In325 O331 2.266 . S
In325 O332 2.326 . S
In325 O333 2.266 . S
In325 O334 2.326 . S
In325 O336 2.294 . S
In325 O337 2.326 . S
O326 In325 2.294 . S
O326 C335 1.240 . S
O327 In325 2.326 . S
O327 C335 1.252 . S
C328 O331 1.252 . S
C328 O332 1.260 . S
C329 O336 1.240 . S
C329 O337 1.252 . S
C330 O333 1.252 . S
C330 O334 1.260 . S
O331 In325 2.266 . S
O331 C328 1.252 . S
O332 In325 2.326 . S
O332 C328 1.260 . S
O333 In325 2.266 . S
O333 C330 1.252 . S
O334 In325 2.326 . S
O334 C330 1.260 . S
C335 O326 1.240 . S
C335 O327 1.252 . S
O336 In325 2.294 . S
O336 C329 1.240 . S
O337 In325 2.326 . S
O337 C329 1.252 . S
In338 O339 2.294 . S
In338 O340 2.326 . S
In338 O344 2.266 . S
In338 O345 2.326 . S
In338 O346 2.266 . S
In338 O347 2.326 . S
In338 O349 2.294 . S
In338 O350 2.326 . S
O339 In338 2.294 . S
O339 C348 1.240 . S
O340 In338 2.326 . S
O340 C348 1.252 . S
C341 O344 1.252 . S
C341 O345 1.260 . S
C342 O349 1.240 . S
C342 O350 1.252 . S
C343 O346 1.252 . S
C343 O347 1.260 . S
O344 In338 2.266 . S
O344 C341 1.252 . S
O345 In338 2.326 . S
O345 C341 1.260 . S
O346 In338 2.266 . S
O346 C343 1.252 . S
O347 In338 2.326 . S
O347 C343 1.260 . S
C348 O339 1.240 . S
C348 O340 1.252 . S
O349 In338 2.294 . S
O349 C342 1.240 . S
O350 In338 2.326 . S
O350 C342 1.252 . S
In351 O352 2.294 . S
In351 O353 2.326 . S
In351 O357 2.266 . S
In351 O358 2.326 . S
In351 O359 2.266 . S
In351 O360 2.326 . S
In351 O362 2.294 . S
In351 O363 2.326 . S
O352 In351 2.294 . S
O352 C361 1.240 . S
O353 In351 2.326 . S
O353 C361 1.252 . S
C354 O357 1.252 . S
C354 O358 1.260 . S
C355 O362 1.240 . S
C355 O363 1.252 . S
C356 O359 1.252 . S
C356 O360 1.260 . S
O357 In351 2.266 . S
O357 C354 1.252 . S
O358 In351 2.326 . S
O358 C354 1.260 . S
O359 In351 2.266 . S
O359 C356 1.252 . S
O360 In351 2.326 . S
O360 C356 1.260 . S
C361 O352 1.240 . S
C361 O353 1.252 . S
O362 In351 2.294 . S
O362 C355 1.240 . S
O363 In351 2.326 . S
O363 C355 1.252 . S
In364 O365 2.294 . S
In364 O366 2.326 . S
In364 O370 2.266 . S
In364 O371 2.326 . S
In364 O372 2.266 . S
In364 O373 2.326 . S
In364 O375 2.294 . S
In364 O376 2.326 . S
O365 In364 2.294 . S
O365 C374 1.240 . S
O366 In364 2.326 . S
O366 C374 1.252 . S
C367 O370 1.252 . S
C367 O371 1.260 . S
C368 O375 1.240 . S
C368 O376 1.252 . S
C369 O372 1.252 . S
C369 O373 1.260 . S
O370 In364 2.266 . S
O370 C367 1.252 . S
O371 In364 2.326 . S
O371 C367 1.260 . S
O372 In364 2.266 . S
O372 C369 1.252 . S
O373 In364 2.326 . S
O373 C369 1.260 . S
C374 O365 1.240 . S
C374 O366 1.252 . S
O375 In364 2.294 . S
O375 C368 1.240 . S
O376 In364 2.326 . S
O376 C368 1.252 . S
In377 O378 2.294 . S
In377 O379 2.326 . S
In377 O383 2.266 . S
In377 O384 2.326 . S
In377 O385 2.266 . S
In377 O386 2.326 . S
In377 O388 2.294 . S
In377 O389 2.326 . S
O378 In377 2.294 . S
O378 C387 1.240 . S
O379 In377 2.326 . S
O379 C387 1.252 . S
C380 O383 1.252 . S
C380 O384 1.260 . S
C381 O388 1.240 . S
C381 O389 1.252 . S
C382 O385 1.252 . S
C382 O386 1.260 . S
O383 In377 2.266 . S
O383 C380 1.252 . S
O384 In377 2.326 . S
O384 C380 1.260 . S
O385 In377 2.266 . S
O385 C382 1.252 . S
O386 In377 2.326 . S
O386 C382 1.260 . S
C387 O378 1.240 . S
C387 O379 1.252 . S
O388 In377 2.294 . S
O388 C381 1.240 . S
O389 In377 2.326 . S
O389 C381 1.252 . S
In390 O391 2.294 . S
In390 O392 2.326 . S
In390 O396 2.266 . S
In390 O397 2.326 . S
In390 O398 2.266 . S
In390 O399 2.326 . S
In390 O401 2.294 . S
In390 O402 2.326 . S
O391 In390 2.294 . S
O391 C400 1.240 . S
O392 In390 2.326 . S
O392 C400 1.252 . S
C393 O396 1.252 . S
C393 O397 1.260 . S
C394 O401 1.240 . S
C394 O402 1.252 . S
C395 O398 1.252 . S
C395 O399 1.260 . S
O396 In390 2.266 . S
O396 C393 1.252 . S
O397 In390 2.326 . S
O397 C393 1.260 . S
O398 In390 2.266 . S
O398 C395 1.252 . S
O399 In390 2.326 . S
O399 C395 1.260 . S
C400 O391 1.240 . S
C400 O392 1.252 . S
O401 In390 2.294 . S
O401 C394 1.240 . S
O402 In390 2.326 . S
O402 C394 1.252 . S
In403 O404 2.294 . S
In403 O405 2.326 . S
In403 O409 2.266 . S
In403 O410 2.326 . S
In403 O411 2.266 . S
In403 O412 2.326 . S
In403 O414 2.294 . S
In403 O415 2.326 . S
O404 In403 2.294 . S
O404 C413 1.240 . S
O405 In403 2.326 . S
O405 C413 1.252 . S
C406 O409 1.252 . S
C406 O410 1.260 . S
C407 O414 1.240 . S
C407 O415 1.252 . S
C408 O411 1.252 . S
C408 O412 1.260 . S
O409 In403 2.266 . S
O409 C406 1.252 . S
O410 In403 2.326 . S
O410 C406 1.260 . S
O411 In403 2.266 . S
O411 C408 1.252 . S
O412 In403 2.326 . S
O412 C408 1.260 . S
C413 O404 1.240 . S
C413 O405 1.252 . S
O414 In403 2.294 . S
O414 C407 1.240 . S
O415 In403 2.326 . S
O415 C407 1.252 . S
In416 O417 2.294 . S
In416 O418 2.326 . S
In416 O422 2.266 . S
In416 O423 2.326 . S
In416 O424 2.266 . S
In416 O425 2.326 . S
In416 O427 2.294 . S
In416 O428 2.326 . S
O417 In416 2.294 . S
O417 C426 1.240 . S
O418 In416 2.326 . S
O418 C426 1.252 . S
C419 O422 1.252 . S
C419 O423 1.260 . S
C420 O427 1.240 . S
C420 O428 1.252 . S
C421 O424 1.252 . S
C421 O425 1.260 . S
O422 In416 2.266 . S
O422 C419 1.252 . S
O423 In416 2.326 . S
O423 C419 1.260 . S
O424 In416 2.266 . S
O424 C421 1.252 . S
O425 In416 2.326 . S
O425 C421 1.260 . S
C426 O417 1.240 . S
C426 O418 1.252 . S
O427 In416 2.294 . S
O427 C420 1.240 . S
O428 In416 2.326 . S
O428 C420 1.252 . S
In429 O430 2.294 . S
In429 O431 2.326 . S
In429 O435 2.266 . S
In429 O436 2.326 . S
In429 O437 2.266 . S
In429 O438 2.326 . S
In429 O440 2.294 . S
In429 O441 2.326 . S
O430 In429 2.294 . S
O430 C439 1.240 . S
O431 In429 2.326 . S
O431 C439 1.252 . S
C432 O435 1.252 . S
C432 O436 1.260 . S
C433 O440 1.240 . S
C433 O441 1.252 . S
C434 O437 1.252 . S
C434 O438 1.260 . S
O435 In429 2.266 . S
O435 C432 1.252 . S
O436 In429 2.326 . S
O436 C432 1.260 . S
O437 In429 2.266 . S
O437 C434 1.252 . S
O438 In429 2.326 . S
O438 C434 1.260 . S
C439 O430 1.240 . S
C439 O431 1.252 . S
O440 In429 2.294 . S
O440 C433 1.240 . S
O441 In429 2.326 . S
O441 C433 1.252 . S
In442 O443 2.294 . S
In442 O444 2.326 . S
In442 O448 2.266 . S
In442 O449 2.326 . S
In442 O450 2.266 . S
In442 O451 2.326 . S
In442 O453 2.294 . S
In442 O454 2.326 . S
O443 In442 2.294 . S
O443 C452 1.240 . S
O444 In442 2.326 . S
O444 C452 1.252 . S
C445 O448 1.252 . S
C445 O449 1.260 . S
C446 O453 1.240 . S
C446 O454 1.252 . S
C447 O450 1.252 . S
C447 O451 1.260 . S
O448 In442 2.266 . S
O448 C445 1.252 . S
O449 In442 2.326 . S
O449 C445 1.260 . S
O450 In442 2.266 . S
O450 C447 1.252 . S
O451 In442 2.326 . S
O451 C447 1.260 . S
C452 O443 1.240 . S
C452 O444 1.252 . S
O453 In442 2.294 . S
O453 C446 1.240 . S
O454 In442 2.326 . S
O454 C446 1.252 . S
In455 O456 2.294 . S
In455 O457 2.326 . S
In455 O461 2.266 . S
In455 O462 2.326 . S
In455 O463 2.266 . S
In455 O464 2.326 . S
In455 O466 2.294 . S
In455 O467 2.326 . S
O456 In455 2.294 . S
O456 C465 1.240 . S
O457 In455 2.326 . S
O457 C465 1.252 . S
C458 O461 1.252 . S
C458 O462 1.260 . S
C459 O466 1.240 . S
C459 O467 1.252 . S
C460 O463 1.252 . S
C460 O464 1.260 . S
O461 In455 2.266 . S
O461 C458 1.252 . S
O462 In455 2.326 . S
O462 C458 1.260 . S
O463 In455 2.266 . S
O463 C460 1.252 . S
O464 In455 2.326 . S
O464 C460 1.260 . S
C465 O456 1.240 . S
C465 O457 1.252 . S
O466 In455 2.294 . S
O466 C459 1.240 . S
O467 In455 2.326 . S
O467 C459 1.252 . S
H468 C474 0.930 . S
H469 C478 0.930 . S
H470 C483 0.929 . S
H471 C481 0.929 . S
H472 C476 0.929 . S
H473 C482 0.929 . S
C474 H468 0.930 . S
C474 C475 1.367 . S
C474 C482 1.378 . S
C475 C474 1.367 . S
C475 C483 1.433 . S
C476 H472 0.929 . S
C476 C478 1.378 . S
C476 C480 1.350 . S
C477 C480 1.463 . S
C477 C482 1.350 . S
C477 N485 1.427 . S
C478 H469 0.930 . S
C478 C476 1.378 . S
C478 C479 1.367 . S
C479 C478 1.367 . S
C479 C481 1.433 . S
C480 C476 1.350 . S
C480 C477 1.463 . S
C480 N484 1.427 . S
C481 H471 0.929 . S
C481 C479 1.433 . S
C481 N484 1.384 . S
C482 H473 0.929 . S
C482 C474 1.378 . S
C482 C477 1.350 . S
C483 H470 0.929 . S
C483 C475 1.433 . S
C483 N485 1.384 . S
N484 C480 1.427 . S
N484 C481 1.384 . S
N485 C477 1.427 . S
N485 C483 1.384 . S
H486 C492 0.930 . S
H487 C496 0.930 . S
H488 C501 0.929 . S
H489 C499 0.929 . S
H490 C494 0.929 . S
H491 C500 0.929 . S
C492 H486 0.930 . S
C492 C493 1.367 . S
C492 C500 1.378 . S
C493 C492 1.367 . S
C493 C501 1.433 . S
C494 H490 0.929 . S
C494 C496 1.378 . S
C494 C498 1.350 . S
C495 C498 1.463 . S
C495 C500 1.350 . S
C495 N503 1.427 . S
C496 H487 0.930 . S
C496 C494 1.378 . S
C496 C497 1.367 . S
C497 C496 1.367 . S
C497 C499 1.433 . S
C498 C494 1.350 . S
C498 C495 1.463 . S
C498 N502 1.427 . S
C499 H489 0.929 . S
C499 C497 1.433 . S
C499 N502 1.384 . S
C500 H491 0.929 . S
C500 C492 1.378 . S
C500 C495 1.350 . S
C501 H488 0.929 . S
C501 C493 1.433 . S
C501 N503 1.384 . S
N502 C498 1.427 . S
N502 C499 1.384 . S
N503 C495 1.427 . S
N503 C501 1.384 . S
H504 C510 0.930 . S
H505 C514 0.930 . S
H506 C519 0.929 . S
H507 C517 0.929 . S
H508 C512 0.929 . S
H509 C518 0.929 . S
C510 H504 0.930 . S
C510 C511 1.367 . S
C510 C518 1.378 . S
C511 C510 1.367 . S
C511 C519 1.433 . S
C512 H508 0.929 . S
C512 C514 1.378 . S
C512 C516 1.350 . S
C513 C516 1.463 . S
C513 C518 1.350 . S
C513 N521 1.427 . S
C514 H505 0.930 . S
C514 C512 1.378 . S
C514 C515 1.367 . S
C515 C514 1.367 . S
C515 C517 1.433 . S
C516 C512 1.350 . S
C516 C513 1.463 . S
C516 N520 1.427 . S
C517 H507 0.929 . S
C517 C515 1.433 . S
C517 N520 1.384 . S
C518 H509 0.929 . S
C518 C510 1.378 . S
C518 C513 1.350 . S
C519 H506 0.929 . S
C519 C511 1.433 . S
C519 N521 1.384 . S
N520 C516 1.427 . S
N520 C517 1.384 . S
N521 C513 1.427 . S
N521 C519 1.384 . S
H522 C528 0.930 . S
H523 C532 0.930 . S
H524 C537 0.929 . S
H525 C535 0.929 . S
H526 C530 0.929 . S
H527 C536 0.929 . S
C528 H522 0.930 . S
C528 C529 1.367 . S
C528 C536 1.378 . S
C529 C528 1.367 . S
C529 C537 1.433 . S
C530 H526 0.929 . S
C530 C532 1.378 . S
C530 C534 1.350 . S
C531 C534 1.463 . S
C531 C536 1.350 . S
C531 N539 1.427 . S
C532 H523 0.930 . S
C532 C530 1.378 . S
C532 C533 1.367 . S
C533 C532 1.367 . S
C533 C535 1.433 . S
C534 C530 1.350 . S
C534 C531 1.463 . S
C534 N538 1.427 . S
C535 H525 0.929 . S
C535 C533 1.433 . S
C535 N538 1.384 . S
C536 H527 0.929 . S
C536 C528 1.378 . S
C536 C531 1.350 . S
C537 H524 0.929 . S
C537 C529 1.433 . S
C537 N539 1.384 . S
N538 C534 1.427 . S
N538 C535 1.384 . S
N539 C531 1.427 . S
N539 C537 1.384 . S
H540 C546 0.930 . S
H541 C550 0.930 . S
H542 C555 0.929 . S
H543 C553 0.929 . S
H544 C548 0.929 . S
H545 C554 0.929 . S
C546 H540 0.930 . S
C546 C547 1.367 . S
C546 C554 1.378 . S
C547 C546 1.367 . S
C547 C555 1.433 . S
C548 H544 0.929 . S
C548 C550 1.378 . S
C548 C552 1.350 . S
C549 C552 1.463 . S
C549 C554 1.350 . S
C549 N557 1.427 . S
C550 H541 0.930 . S
C550 C548 1.378 . S
C550 C551 1.367 . S
C551 C550 1.367 . S
C551 C553 1.433 . S
C552 C548 1.350 . S
C552 C549 1.463 . S
C552 N556 1.427 . S
C553 H543 0.929 . S
C553 C551 1.433 . S
C553 N556 1.384 . S
C554 H545 0.929 . S
C554 C546 1.378 . S
C554 C549 1.350 . S
C555 H542 0.929 . S
C555 C547 1.433 . S
C555 N557 1.384 . S
N556 C552 1.427 . S
N556 C553 1.384 . S
N557 C549 1.427 . S
N557 C555 1.384 . S
H558 C564 0.930 . S
H559 C568 0.930 . S
H560 C573 0.929 . S
H561 C571 0.929 . S
H562 C566 0.929 . S
H563 C572 0.929 . S
C564 H558 0.930 . S
C564 C565 1.367 . S
C564 C572 1.378 . S
C565 C564 1.367 . S
C565 C573 1.433 . S
C566 H562 0.929 . S
C566 C568 1.378 . S
C566 C570 1.350 . S
C567 C570 1.463 . S
C567 C572 1.350 . S
C567 N575 1.427 . S
C568 H559 0.930 . S
C568 C566 1.378 . S
C568 C569 1.367 . S
C569 C568 1.367 . S
C569 C571 1.433 . S
C570 C566 1.350 . S
C570 C567 1.463 . S
C570 N574 1.427 . S
C571 H561 0.929 . S
C571 C569 1.433 . S
C571 N574 1.384 . S
C572 H563 0.929 . S
C572 C564 1.378 . S
C572 C567 1.350 . S
C573 H560 0.929 . S
C573 C565 1.433 . S
C573 N575 1.384 . S
N574 C570 1.427 . S
N574 C571 1.384 . S
N575 C567 1.427 . S
N575 C573 1.384 . S
H576 C582 0.930 . S
H577 C586 0.930 . S
H578 C591 0.929 . S
H579 C589 0.929 . S
H580 C584 0.929 . S
H581 C590 0.929 . S
C582 H576 0.930 . S
C582 C583 1.367 . S
C582 C590 1.378 . S
C583 C582 1.367 . S
C583 C591 1.433 . S
C584 H580 0.929 . S
C584 C586 1.378 . S
C584 C588 1.350 . S
C585 C588 1.463 . S
C585 C590 1.350 . S
C585 N593 1.427 . S
C586 H577 0.930 . S
C586 C584 1.378 . S
C586 C587 1.367 . S
C587 C586 1.367 . S
C587 C589 1.433 . S
C588 C584 1.350 . S
C588 C585 1.463 . S
C588 N592 1.427 . S
C589 H579 0.929 . S
C589 C587 1.433 . S
C589 N592 1.384 . S
C590 H581 0.929 . S
C590 C582 1.378 . S
C590 C585 1.350 . S
C591 H578 0.929 . S
C591 C583 1.433 . S
C591 N593 1.384 . S
N592 C588 1.427 . S
N592 C589 1.384 . S
N593 C585 1.427 . S
N593 C591 1.384 . S
H594 C600 0.930 . S
H595 C604 0.930 . S
H596 C609 0.929 . S
H597 C607 0.929 . S
H598 C602 0.929 . S
H599 C608 0.929 . S
C600 H594 0.930 . S
C600 C601 1.367 . S
C600 C608 1.378 . S
C601 C600 1.367 . S
C601 C609 1.433 . S
C602 H598 0.929 . S
C602 C604 1.378 . S
C602 C606 1.350 . S
C603 C606 1.463 . S
C603 C608 1.350 . S
C603 N611 1.427 . S
C604 H595 0.930 . S
C604 C602 1.378 . S
C604 C605 1.367 . S
C605 C604 1.367 . S
C605 C607 1.433 . S
C606 C602 1.350 . S
C606 C603 1.463 . S
C606 N610 1.427 . S
C607 H597 0.929 . S
C607 C605 1.433 . S
C607 N610 1.384 . S
C608 H599 0.929 . S
C608 C600 1.378 . S
C608 C603 1.350 . S
C609 H596 0.929 . S
C609 C601 1.433 . S
C609 N611 1.384 . S
N610 C606 1.427 . S
N610 C607 1.384 . S
N611 C603 1.427 . S
N611 C609 1.384 . S
H612 C618 0.930 . S
H613 C622 0.930 . S
H614 C627 0.929 . S
H615 C625 0.929 . S
H616 C620 0.929 . S
H617 C626 0.929 . S
C618 H612 0.930 . S
C618 C619 1.367 . S
C618 C626 1.378 . S
C619 C618 1.367 . S
C619 C627 1.433 . S
C620 H616 0.929 . S
C620 C622 1.378 . S
C620 C624 1.350 . S
C621 C624 1.463 . S
C621 C626 1.350 . S
C621 N629 1.427 . S
C622 H613 0.930 . S
C622 C620 1.378 . S
C622 C623 1.367 . S
C623 C622 1.367 . S
C623 C625 1.433 . S
C624 C620 1.350 . S
C624 C621 1.463 . S
C624 N628 1.427 . S
C625 H615 0.929 . S
C625 C623 1.433 . S
C625 N628 1.384 . S
C626 H617 0.929 . S
C626 C618 1.378 . S
C626 C621 1.350 . S
C627 H614 0.929 . S
C627 C619 1.433 . S
C627 N629 1.384 . S
N628 C624 1.427 . S
N628 C625 1.384 . S
N629 C621 1.427 . S
N629 C627 1.384 . S
H630 C636 0.930 . S
H631 C640 0.930 . S
H632 C645 0.929 . S
H633 C643 0.929 . S
H634 C638 0.929 . S
H635 C644 0.929 . S
C636 H630 0.930 . S
C636 C637 1.367 . S
C636 C644 1.378 . S
C637 C636 1.367 . S
C637 C645 1.433 . S
C638 H634 0.929 . S
C638 C640 1.378 . S
C638 C642 1.350 . S
C639 C642 1.463 . S
C639 C644 1.350 . S
C639 N647 1.427 . S
C640 H631 0.930 . S
C640 C638 1.378 . S
C640 C641 1.367 . S
C641 C640 1.367 . S
C641 C643 1.433 . S
C642 C638 1.350 . S
C642 C639 1.463 . S
C642 N646 1.427 . S
C643 H633 0.929 . S
C643 C641 1.433 . S
C643 N646 1.384 . S
C644 H635 0.929 . S
C644 C636 1.378 . S
C644 C639 1.350 . S
C645 H632 0.929 . S
C645 C637 1.433 . S
C645 N647 1.384 . S
N646 C642 1.427 . S
N646 C643 1.384 . S
N647 C639 1.427 . S
N647 C645 1.384 . S
H648 C654 0.930 . S
H649 C658 0.930 . S
H650 C663 0.929 . S
H651 C661 0.929 . S
H652 C656 0.929 . S
H653 C662 0.929 . S
C654 H648 0.930 . S
C654 C655 1.367 . S
C654 C662 1.378 . S
C655 C654 1.367 . S
C655 C663 1.433 . S
C656 H652 0.929 . S
C656 C658 1.378 . S
C656 C660 1.350 . S
C657 C660 1.463 . S
C657 C662 1.350 . S
C657 N665 1.427 . S
C658 H649 0.930 . S
C658 C656 1.378 . S
C658 C659 1.367 . S
C659 C658 1.367 . S
C659 C661 1.433 . S
C660 C656 1.350 . S
C660 C657 1.463 . S
C660 N664 1.427 . S
C661 H651 0.929 . S
C661 C659 1.433 . S
C661 N664 1.384 . S
C662 H653 0.929 . S
C662 C654 1.378 . S
C662 C657 1.350 . S
C663 H650 0.929 . S
C663 C655 1.433 . S
C663 N665 1.384 . S
N664 C660 1.427 . S
N664 C661 1.384 . S
N665 C657 1.427 . S
N665 C663 1.384 . S
H666 C672 0.930 . S
H667 C676 0.930 . S
H668 C681 0.929 . S
H669 C679 0.929 . S
H670 C674 0.929 . S
H671 C680 0.929 . S
C672 H666 0.930 . S
C672 C673 1.367 . S
C672 C680 1.378 . S
C673 C672 1.367 . S
C673 C681 1.433 . S
C674 H670 0.929 . S
C674 C676 1.378 . S
C674 C678 1.350 . S
C675 C678 1.463 . S
C675 C680 1.350 . S
C675 N683 1.427 . S
C676 H667 0.930 . S
C676 C674 1.378 . S
C676 C677 1.367 . S
C677 C676 1.367 . S
C677 C679 1.433 . S
C678 C674 1.350 . S
C678 C675 1.463 . S
C678 N682 1.427 . S
C679 H669 0.929 . S
C679 C677 1.433 . S
C679 N682 1.384 . S
C680 H671 0.929 . S
C680 C672 1.378 . S
C680 C675 1.350 . S
C681 H668 0.929 . S
C681 C673 1.433 . S
C681 N683 1.384 . S
N682 C678 1.427 . S
N682 C679 1.384 . S
N683 C675 1.427 . S
N683 C681 1.384 . S
H684 C690 0.930 . S
H685 C694 0.930 . S
H686 C699 0.929 . S
H687 C697 0.929 . S
H688 C692 0.929 . S
H689 C698 0.929 . S
C690 H684 0.930 . S
C690 C691 1.367 . S
C690 C698 1.378 . S
C691 C690 1.367 . S
C691 C699 1.433 . S
C692 H688 0.929 . S
C692 C694 1.378 . S
C692 C696 1.350 . S
C693 C696 1.463 . S
C693 C698 1.350 . S
C693 N701 1.427 . S
C694 H685 0.930 . S
C694 C692 1.378 . S
C694 C695 1.367 . S
C695 C694 1.367 . S
C695 C697 1.433 . S
C696 C692 1.350 . S
C696 C693 1.463 . S
C696 N700 1.427 . S
C697 H687 0.929 . S
C697 C695 1.433 . S
C697 N700 1.384 . S
C698 H689 0.929 . S
C698 C690 1.378 . S
C698 C693 1.350 . S
C699 H686 0.929 . S
C699 C691 1.433 . S
C699 N701 1.384 . S
N700 C696 1.427 . S
N700 C697 1.384 . S
N701 C693 1.427 . S
N701 C699 1.384 . S
H702 C708 0.930 . S
H703 C712 0.930 . S
H704 C717 0.929 . S
H705 C715 0.929 . S
H706 C710 0.929 . S
H707 C716 0.929 . S
C708 H702 0.930 . S
C708 C709 1.367 . S
C708 C716 1.378 . S
C709 C708 1.367 . S
C709 C717 1.433 . S
C710 H706 0.929 . S
C710 C712 1.378 . S
C710 C714 1.350 . S
C711 C714 1.463 . S
C711 C716 1.350 . S
C711 N719 1.427 . S
C712 H703 0.930 . S
C712 C710 1.378 . S
C712 C713 1.367 . S
C713 C712 1.367 . S
C713 C715 1.433 . S
C714 C710 1.350 . S
C714 C711 1.463 . S
C714 N718 1.427 . S
C715 H705 0.929 . S
C715 C713 1.433 . S
C715 N718 1.384 . S
C716 H707 0.929 . S
C716 C708 1.378 . S
C716 C711 1.350 . S
C717 H704 0.929 . S
C717 C709 1.433 . S
C717 N719 1.384 . S
N718 C714 1.427 . S
N718 C715 1.384 . S
N719 C711 1.427 . S
N719 C717 1.384 . S
H720 C726 0.930 . S
H721 C730 0.930 . S
H722 C735 0.929 . S
H723 C733 0.929 . S
H724 C728 0.929 . S
H725 C734 0.929 . S
C726 H720 0.930 . S
C726 C727 1.367 . S
C726 C734 1.378 . S
C727 C726 1.367 . S
C727 C735 1.433 . S
C728 H724 0.929 . S
C728 C730 1.378 . S
C728 C732 1.350 . S
C729 C732 1.463 . S
C729 C734 1.350 . S
C729 N737 1.427 . S
C730 H721 0.930 . S
C730 C728 1.378 . S
C730 C731 1.367 . S
C731 C730 1.367 . S
C731 C733 1.433 . S
C732 C728 1.350 . S
C732 C729 1.463 . S
C732 N736 1.427 . S
C733 H723 0.929 . S
C733 C731 1.433 . S
C733 N736 1.384 . S
C734 H725 0.929 . S
C734 C726 1.378 . S
C734 C729 1.350 . S
C735 H722 0.929 . S
C735 C727 1.433 . S
C735 N737 1.384 . S
N736 C732 1.427 . S
N736 C733 1.384 . S
N737 C729 1.427 . S
N737 C735 1.384 . S
H738 C744 0.930 . S
H739 C748 0.930 . S
H740 C753 0.929 . S
H741 C751 0.929 . S
H742 C746 0.929 . S
H743 C752 0.929 . S
C744 H738 0.930 . S
C744 C745 1.367 . S
C744 C752 1.378 . S
C745 C744 1.367 . S
C745 C753 1.433 . S
C746 H742 0.929 . S
C746 C748 1.378 . S
C746 C750 1.350 . S
C747 C750 1.463 . S
C747 C752 1.350 . S
C747 N755 1.427 . S
C748 H739 0.930 . S
C748 C746 1.378 . S
C748 C749 1.367 . S
C749 C748 1.367 . S
C749 C751 1.433 . S
C750 C746 1.350 . S
C750 C747 1.463 . S
C750 N754 1.427 . S
C751 H741 0.929 . S
C751 C749 1.433 . S
C751 N754 1.384 . S
C752 H743 0.929 . S
C752 C744 1.378 . S
C752 C747 1.350 . S
C753 H740 0.929 . S
C753 C745 1.433 . S
C753 N755 1.384 . S
N754 C750 1.427 . S
N754 C751 1.384 . S
N755 C747 1.427 . S
N755 C753 1.384 . S
H756 C762 0.930 . S
H757 C766 0.930 . S
H758 C771 0.929 . S
H759 C769 0.929 . S
H760 C764 0.929 . S
H761 C770 0.929 . S
C762 H756 0.930 . S
C762 C763 1.367 . S
C762 C770 1.378 . S
C763 C762 1.367 . S
C763 C771 1.433 . S
C764 H760 0.929 . S
C764 C766 1.378 . S
C764 C768 1.350 . S
C765 C768 1.463 . S
C765 C770 1.350 . S
C765 N773 1.427 . S
C766 H757 0.930 . S
C766 C764 1.378 . S
C766 C767 1.367 . S
C767 C766 1.367 . S
C767 C769 1.433 . S
C768 C764 1.350 . S
C768 C765 1.463 . S
C768 N772 1.427 . S
C769 H759 0.929 . S
C769 C767 1.433 . S
C769 N772 1.384 . S
C770 H761 0.929 . S
C770 C762 1.378 . S
C770 C765 1.350 . S
C771 H758 0.929 . S
C771 C763 1.433 . S
C771 N773 1.384 . S
N772 C768 1.427 . S
N772 C769 1.384 . S
N773 C765 1.427 . S
N773 C771 1.384 . S
H774 C780 0.930 . S
H775 C784 0.930 . S
H776 C789 0.929 . S
H777 C787 0.929 . S
H778 C782 0.929 . S
H779 C788 0.929 . S
C780 H774 0.930 . S
C780 C781 1.367 . S
C780 C788 1.378 . S
C781 C780 1.367 . S
C781 C789 1.433 . S
C782 H778 0.929 . S
C782 C784 1.378 . S
C782 C786 1.350 . S
C783 C786 1.463 . S
C783 C788 1.350 . S
C783 N791 1.427 . S
C784 H775 0.930 . S
C784 C782 1.378 . S
C784 C785 1.367 . S
C785 C784 1.367 . S
C785 C787 1.433 . S
C786 C782 1.350 . S
C786 C783 1.463 . S
C786 N790 1.427 . S
C787 H777 0.929 . S
C787 C785 1.433 . S
C787 N790 1.384 . S
C788 H779 0.929 . S
C788 C780 1.378 . S
C788 C783 1.350 . S
C789 H776 0.929 . S
C789 C781 1.433 . S
C789 N791 1.384 . S
N790 C786 1.427 . S
N790 C787 1.384 . S
N791 C783 1.427 . S
N791 C789 1.384 . S
H792 C798 0.930 . S
H793 C802 0.930 . S
H794 C807 0.929 1_556 S
H795 C805 0.929 1_554 S
H796 C800 0.929 . S
H797 C806 0.929 . S
C798 H792 0.930 . S
C798 C799 1.367 . S
C798 C806 1.378 . S
C799 C798 1.367 . S
C799 C807 1.433 . S
C800 H796 0.929 . S
C800 C802 1.378 . S
C800 C804 1.350 . S
C801 C804 1.463 1_454 S
C801 C806 1.350 . S
C801 N809 1.427 1_554 S
C802 H793 0.930 . S
C802 C800 1.378 . S
C802 C803 1.367 . S
C803 C802 1.367 . S
C803 C805 1.433 . S
C804 C800 1.350 . S
C804 C801 1.463 1_656 S
C804 N808 1.427 1_556 S
C805 H795 0.929 1_556 S
C805 C803 1.433 . S
C805 N808 1.384 1_556 S
C806 H797 0.929 . S
C806 C798 1.378 . S
C806 C801 1.350 . S
C807 H794 0.929 1_554 S
C807 C799 1.433 . S
C807 N809 1.384 1_554 S
N808 C804 1.427 1_554 S
N808 C805 1.384 1_554 S
N809 C801 1.427 1_556 S
N809 C807 1.384 1_556 S
H810 C816 0.930 . S
H811 C820 0.930 . S
H812 C825 0.929 . S
H813 C823 0.929 . S
H814 C818 0.929 . S
H815 C824 0.929 . S
C816 H810 0.930 . S
C816 C817 1.367 . S
C816 C824 1.378 . S
C817 C816 1.367 . S
C817 C825 1.433 . S
C818 H814 0.929 . S
C818 C820 1.378 . S
C818 C822 1.350 . S
C819 C822 1.463 1_556 S
C819 C824 1.350 . S
C819 N827 1.427 . S
C820 H811 0.930 . S
C820 C818 1.378 . S
C820 C821 1.367 . S
C821 C820 1.367 . S
C821 C823 1.433 . S
C822 C818 1.350 . S
C822 C819 1.463 1_554 S
C822 N826 1.427 . S
C823 H813 0.929 . S
C823 C821 1.433 . S
C823 N826 1.384 . S
C824 H815 0.929 . S
C824 C816 1.378 . S
C824 C819 1.350 . S
C825 H812 0.929 . S
C825 C817 1.433 . S
C825 N827 1.384 . S
N826 C822 1.427 . S
N826 C823 1.384 . S
N827 C819 1.427 . S
N827 C825 1.384 . S
H828 C834 0.930 . S
H829 C838 0.930 . S
H830 C843 0.929 . S
H831 C841 0.929 . S
H832 C836 0.929 . S
H833 C842 0.929 . S
C834 H828 0.930 . S
C834 C835 1.367 1_556 S
C834 C842 1.378 . S
C835 C834 1.367 1_554 S
C835 C843 1.433 . S
C836 H832 0.929 . S
C836 C838 1.378 . S
C836 C840 1.350 1_554 S
C837 C840 1.463 1_564 S
C837 C842 1.350 1_554 S
C837 N845 1.427 . S
C838 H829 0.930 . S
C838 C836 1.378 . S
C838 C839 1.367 1_554 S
C839 C838 1.367 1_556 S
C839 C841 1.433 . S
C840 C836 1.350 1_556 S
C840 C837 1.463 1_546 S
C840 N844 1.427 . S
C841 H831 0.929 . S
C841 C839 1.433 . S
C841 N844 1.384 . S
C842 H833 0.929 . S
C842 C834 1.378 . S
C842 C837 1.350 1_556 S
C843 H830 0.929 . S
C843 C835 1.433 . S
C843 N845 1.384 . S
N844 C840 1.427 . S
N844 C841 1.384 . S
N845 C837 1.427 . S
N845 C843 1.384 . S
H846 C852 0.930 . S
H847 C856 0.930 . S
H848 C861 0.929 . S
H849 C859 0.929 . S
H850 C854 0.929 . S
H851 C860 0.929 . S
C852 H846 0.930 . S
C852 C853 1.367 . S
C852 C860 1.378 . S
C853 C852 1.367 . S
C853 C861 1.433 . S
C854 H850 0.929 . S
C854 C856 1.378 . S
C854 C858 1.350 . S
C855 C858 1.463 1_656 S
C855 C860 1.350 . S
C855 N863 1.432 . S
C856 H847 0.930 . S
C856 C854 1.378 . S
C856 C857 1.367 . S
C857 C856 1.367 . S
C857 C859 1.433 . S
C858 C854 1.350 . S
C858 C855 1.463 1_454 S
C858 N862 1.432 . S
C859 H849 0.929 . S
C859 C857 1.433 . S
C859 N862 1.393 . S
C860 H851 0.929 . S
C860 C852 1.378 . S
C860 C855 1.350 . S
C861 H848 0.929 . S
C861 C853 1.433 . S
C861 N863 1.392 . S
N862 C858 1.432 . S
N862 C859 1.393 . S
N863 C855 1.432 . S
N863 C861 1.392 . S
H864 C870 0.930 . S
H865 C874 0.930 . S
H866 C879 0.929 . S
H867 C877 0.929 . S
H868 C872 0.929 . S
H869 C878 0.929 . S
C870 H864 0.930 . S
C870 C871 1.367 1_554 S
C870 C878 1.378 . S
C871 C870 1.367 1_556 S
C871 C879 1.433 . S
C872 H868 0.929 . S
C872 C874 1.378 . S
C872 C876 1.350 1_556 S
C873 C876 1.463 1_556 S
C873 C878 1.350 1_556 S
C873 N881 1.427 . S
C874 H865 0.930 . S
C874 C872 1.378 . S
C874 C875 1.367 1_556 S
C875 C874 1.367 1_554 S
C875 C877 1.433 . S
C876 C872 1.350 1_554 S
C876 C873 1.463 1_554 S
C876 N880 1.427 . S
C877 H867 0.929 . S
C877 C875 1.433 . S
C877 N880 1.384 . S
C878 H869 0.929 . S
C878 C870 1.378 . S
C878 C873 1.350 1_554 S
C879 H866 0.929 . S
C879 C871 1.433 . S
C879 N881 1.384 . S
N880 C876 1.427 . S
N880 C877 1.384 . S
N881 C873 1.427 . S
N881 C879 1.384 . S
H882 C888 0.930 1_554 S
H883 C892 0.930 1_556 S
H884 C897 0.929 . S
H885 C895 0.929 . S
H886 C890 0.929 . S
H887 C896 0.929 . S
C888 H882 0.930 1_556 S
C888 C889 1.367 . S
C888 C896 1.378 1_556 S
C889 C888 1.367 . S
C889 C897 1.433 . S
C890 H886 0.929 . S
C890 C892 1.378 1_556 S
C890 C894 1.350 1_556 S
C891 C894 1.463 1_546 S
C891 C896 1.350 1_556 S
C891 N899 1.427 . S
C892 H883 0.930 1_554 S
C892 C890 1.378 1_554 S
C892 C893 1.367 . S
C893 C892 1.367 . S
C893 C895 1.433 . S
C894 C890 1.350 1_554 S
C894 C891 1.463 1_564 S
C894 N898 1.427 . S
C895 H885 0.929 . S
C895 C893 1.433 . S
C895 N898 1.384 . S
C896 H887 0.929 . S
C896 C888 1.378 1_554 S
C896 C891 1.350 1_554 S
C897 H884 0.929 . S
C897 C889 1.433 . S
C897 N899 1.384 . S
N898 C894 1.427 . S
N898 C895 1.384 . S
N899 C891 1.427 . S
N899 C897 1.384 . S
H900 C906 0.930 . S
H901 C910 0.930 . S
H902 C915 0.929 . S
H903 C913 0.929 . S
H904 C908 0.929 . S
H905 C914 0.929 . S
C906 H900 0.930 . S
C906 C907 1.367 . S
C906 C914 1.378 . S
C907 C906 1.367 . S
C907 C915 1.433 . S
C908 H904 0.929 . S
C908 C910 1.378 . S
C908 C912 1.350 . S
C909 C912 1.463 . S
C909 C914 1.350 . S
C909 N917 1.427 . S
C910 H901 0.930 . S
C910 C908 1.378 . S
C910 C911 1.367 . S
C911 C910 1.367 . S
C911 C913 1.433 . S
C912 C908 1.350 . S
C912 C909 1.463 . S
C912 N916 1.427 . S
C913 H903 0.929 . S
C913 C911 1.433 . S
C913 N916 1.384 . S
C914 H905 0.929 . S
C914 C906 1.378 . S
C914 C909 1.350 . S
C915 H902 0.929 . S
C915 C907 1.433 . S
C915 N917 1.384 . S
N916 C912 1.427 . S
N916 C913 1.384 . S
N917 C909 1.427 . S
N917 C915 1.384 . S
H918 C924 0.930 . S
H919 C928 0.930 . S
H920 C933 0.929 . S
H921 C931 0.929 . S
H922 C926 0.929 . S
H923 C932 0.929 . S
C924 H918 0.930 . S
C924 C925 1.367 . S
C924 C932 1.378 . S
C925 C924 1.367 . S
C925 C933 1.433 . S
C926 H922 0.929 . S
C926 C928 1.378 . S
C926 C930 1.350 . S
C927 C930 1.463 . S
C927 C932 1.350 . S
C927 N935 1.427 . S
C928 H919 0.930 . S
C928 C926 1.378 . S
C928 C929 1.367 . S
C929 C928 1.367 . S
C929 C931 1.433 . S
C930 C926 1.350 . S
C930 C927 1.463 . S
C930 N934 1.427 . S
C931 H921 0.929 . S
C931 C929 1.433 . S
C931 N934 1.384 . S
C932 H923 0.929 . S
C932 C924 1.378 . S
C932 C927 1.350 . S
C933 H920 0.929 . S
C933 C925 1.433 . S
C933 N935 1.384 . S
N934 C930 1.427 . S
N934 C931 1.384 . S
N935 C927 1.427 . S
N935 C933 1.384 . S
H936 C942 0.930 . S
H937 C946 0.930 . S
H938 C951 0.929 . S
H939 C949 0.929 . S
H940 C944 0.929 . S
H941 C950 0.929 . S
C942 H936 0.930 . S
C942 C943 1.367 . S
C942 C950 1.378 . S
C943 C942 1.367 . S
C943 C951 1.433 . S
C944 H940 0.929 . S
C944 C946 1.378 . S
C944 C948 1.350 . S
C945 C948 1.463 . S
C945 C950 1.350 . S
C945 N953 1.427 . S
C946 H937 0.930 . S
C946 C944 1.378 . S
C946 C947 1.367 . S
C947 C946 1.367 . S
C947 C949 1.433 . S
C948 C944 1.350 . S
C948 C945 1.463 . S
C948 N952 1.427 . S
C949 H939 0.929 . S
C949 C947 1.433 . S
C949 N952 1.384 . S
C950 H941 0.929 . S
C950 C942 1.378 . S
C950 C945 1.350 . S
C951 H938 0.929 . S
C951 C943 1.433 . S
C951 N953 1.384 . S
N952 C948 1.427 . S
N952 C949 1.384 . S
N953 C945 1.427 . S
N953 C951 1.384 . S
H954 C960 0.930 . S
H955 C964 0.930 . S
H956 C969 0.929 . S
H957 C967 0.929 . S
H958 C962 0.929 . S
H959 C968 0.929 . S
C960 H954 0.930 . S
C960 C961 1.367 . S
C960 C968 1.378 . S
C961 C960 1.367 . S
C961 C969 1.433 . S
C962 H958 0.929 . S
C962 C964 1.378 . S
C962 C966 1.350 . S
C963 C966 1.463 . S
C963 C968 1.350 . S
C963 N971 1.427 . S
C964 H955 0.930 . S
C964 C962 1.378 . S
C964 C965 1.367 . S
C965 C964 1.367 . S
C965 C967 1.433 . S
C966 C962 1.350 . S
C966 C963 1.463 . S
C966 N970 1.427 . S
C967 H957 0.929 . S
C967 C965 1.433 . S
C967 N970 1.384 . S
C968 H959 0.929 . S
C968 C960 1.378 . S
C968 C963 1.350 . S
C969 H956 0.929 . S
C969 C961 1.433 . S
C969 N971 1.384 . S
N970 C966 1.427 . S
N970 C967 1.384 . S
N971 C963 1.427 . S
N971 C969 1.384 . S
H972 C978 0.930 . S
H973 C982 0.930 . S
H974 C987 0.929 . S
H975 C985 0.929 . S
H976 C980 0.929 . S
H977 C986 0.929 . S
C978 H972 0.930 . S
C978 C979 1.367 . S
C978 C986 1.378 . S
C979 C978 1.367 . S
C979 C987 1.433 . S
C980 H976 0.929 . S
C980 C982 1.378 . S
C980 C984 1.350 . S
C981 C984 1.463 . S
C981 C986 1.350 . S
C981 N989 1.427 . S
C982 H973 0.930 . S
C982 C980 1.378 . S
C982 C983 1.367 . S
C983 C982 1.367 . S
C983 C985 1.433 . S
C984 C980 1.350 . S
C984 C981 1.463 . S
C984 N988 1.427 . S
C985 H975 0.929 . S
C985 C983 1.433 . S
C985 N988 1.384 . S
C986 H977 0.929 . S
C986 C978 1.378 . S
C986 C981 1.350 . S
C987 H974 0.929 . S
C987 C979 1.433 . S
C987 N989 1.384 . S
N988 C984 1.427 . S
N988 C985 1.384 . S
N989 C981 1.427 . S
N989 C987 1.384 . S
H990 C996 0.930 . S
H991 C1000 0.930 . S
H992 C1005 0.929 . S
H993 C1003 0.929 . S
H994 C998 0.929 . S
H995 C1004 0.929 . S
C996 H990 0.930 . S
C996 C997 1.367 . S
C996 C1004 1.378 . S
C997 C996 1.367 . S
C997 C1005 1.433 . S
C998 H994 0.929 . S
C998 C1000 1.378 . S
C998 C1002 1.350 . S
C999 C1002 1.463 . S
C999 C1004 1.350 . S
C999 N1007 1.427 . S
C1000 H991 0.930 . S
C1000 C998 1.378 . S
C1000 C1001 1.367 . S
C1001 C1000 1.367 . S
C1001 C1003 1.433 . S
C1002 C998 1.350 . S
C1002 C999 1.463 . S
C1002 N1006 1.427 . S
C1003 H993 0.929 . S
C1003 C1001 1.433 . S
C1003 N1006 1.384 . S
C1004 H995 0.929 . S
C1004 C996 1.378 . S
C1004 C999 1.350 . S
C1005 H992 0.929 . S
C1005 C997 1.433 . S
C1005 N1007 1.384 . S
N1006 C1002 1.427 . S
N1006 C1003 1.384 . S
N1007 C999 1.427 . S
N1007 C1005 1.384 . S
H1008 C1014 0.930 . S
H1009 C1018 0.930 . S
H1010 C1023 0.929 . S
H1011 C1021 0.929 . S
H1012 C1016 0.929 . S
H1013 C1022 0.929 . S
C1014 H1008 0.930 . S
C1014 C1015 1.367 . S
C1014 C1022 1.378 . S
C1015 C1014 1.367 . S
C1015 C1023 1.433 . S
C1016 H1012 0.929 . S
C1016 C1018 1.378 . S
C1016 C1020 1.350 . S
C1017 C1020 1.463 . S
C1017 C1022 1.350 . S
C1017 N1025 1.427 . S
C1018 H1009 0.930 . S
C1018 C1016 1.378 . S
C1018 C1019 1.367 . S
C1019 C1018 1.367 . S
C1019 C1021 1.433 . S
C1020 C1016 1.350 . S
C1020 C1017 1.463 . S
C1020 N1024 1.427 . S
C1021 H1011 0.929 . S
C1021 C1019 1.433 . S
C1021 N1024 1.384 . S
C1022 H1013 0.929 . S
C1022 C1014 1.378 . S
C1022 C1017 1.350 . S
C1023 H1010 0.929 . S
C1023 C1015 1.433 . S
C1023 N1025 1.384 . S
N1024 C1020 1.427 . S
N1024 C1021 1.384 . S
N1025 C1017 1.427 . S
N1025 C1023 1.384 . S
H1026 C1032 0.930 . S
H1027 C1036 0.930 . S
H1028 C1041 0.929 . S
H1029 C1039 0.929 . S
H1030 C1034 0.929 . S
H1031 C1040 0.929 . S
C1032 H1026 0.930 . S
C1032 C1033 1.367 . S
C1032 C1040 1.378 . S
C1033 C1032 1.367 . S
C1033 C1041 1.433 . S
C1034 H1030 0.929 . S
C1034 C1036 1.378 . S
C1034 C1038 1.350 . S
C1035 C1038 1.463 . S
C1035 C1040 1.350 . S
C1035 N1043 1.427 . S
C1036 H1027 0.930 . S
C1036 C1034 1.378 . S
C1036 C1037 1.367 . S
C1037 C1036 1.367 . S
C1037 C1039 1.433 . S
C1038 C1034 1.350 . S
C1038 C1035 1.463 . S
C1038 N1042 1.427 . S
C1039 H1029 0.929 . S
C1039 C1037 1.433 . S
C1039 N1042 1.384 . S
C1040 H1031 0.929 . S
C1040 C1032 1.378 . S
C1040 C1035 1.350 . S
C1041 H1028 0.929 . S
C1041 C1033 1.433 . S
C1041 N1043 1.384 . S
N1042 C1038 1.427 . S
N1042 C1039 1.384 . S
N1043 C1035 1.427 . S
N1043 C1041 1.384 . S
H1044 C1050 0.930 . S
H1045 C1054 0.930 . S
H1046 C1059 0.929 . S
H1047 C1057 0.929 . S
H1048 C1052 0.929 . S
H1049 C1058 0.929 . S
C1050 H1044 0.930 . S
C1050 C1051 1.367 . S
C1050 C1058 1.378 . S
C1051 C1050 1.367 . S
C1051 C1059 1.433 . S
C1052 H1048 0.929 . S
C1052 C1054 1.378 . S
C1052 C1056 1.350 . S
C1053 C1056 1.463 . S
C1053 C1058 1.350 . S
C1053 N1061 1.427 . S
C1054 H1045 0.930 . S
C1054 C1052 1.378 . S
C1054 C1055 1.367 . S
C1055 C1054 1.367 . S
C1055 C1057 1.433 . S
C1056 C1052 1.350 . S
C1056 C1053 1.463 . S
C1056 N1060 1.427 . S
C1057 H1047 0.929 . S
C1057 C1055 1.433 . S
C1057 N1060 1.384 . S
C1058 H1049 0.929 . S
C1058 C1050 1.378 . S
C1058 C1053 1.350 . S
C1059 H1046 0.929 . S
C1059 C1051 1.433 . S
C1059 N1061 1.384 . S
N1060 C1056 1.427 . S
N1060 C1057 1.384 . S
N1061 C1053 1.427 . S
N1061 C1059 1.384 . S
H1062 C1068 0.930 . S
H1063 C1072 0.930 . S
H1064 C1077 0.929 . S
H1065 C1075 0.929 . S
H1066 C1070 0.929 . S
H1067 C1076 0.929 . S
C1068 H1062 0.930 . S
C1068 C1069 1.367 . S
C1068 C1076 1.378 . S
C1069 C1068 1.367 . S
C1069 C1077 1.433 . S
C1070 H1066 0.929 . S
C1070 C1072 1.378 . S
C1070 C1074 1.350 . S
C1071 C1074 1.463 . S
C1071 C1076 1.350 . S
C1071 N1079 1.427 . S
C1072 H1063 0.930 . S
C1072 C1070 1.378 . S
C1072 C1073 1.367 . S
C1073 C1072 1.367 . S
C1073 C1075 1.433 . S
C1074 C1070 1.350 . S
C1074 C1071 1.463 . S
C1074 N1078 1.427 . S
C1075 H1065 0.929 . S
C1075 C1073 1.433 . S
C1075 N1078 1.384 . S
C1076 H1067 0.929 . S
C1076 C1068 1.378 . S
C1076 C1071 1.350 . S
C1077 H1064 0.929 . S
C1077 C1069 1.433 . S
C1077 N1079 1.384 . S
N1078 C1074 1.427 . S
N1078 C1075 1.384 . S
N1079 C1071 1.427 . S
N1079 C1077 1.384 . S
H1080 C1086 0.930 . S
H1081 C1090 0.930 . S
H1082 C1095 0.929 . S
H1083 C1093 0.929 . S
H1084 C1088 0.929 . S
H1085 C1094 0.929 . S
C1086 H1080 0.930 . S
C1086 C1087 1.367 . S
C1086 C1094 1.378 . S
C1087 C1086 1.367 . S
C1087 C1095 1.433 . S
C1088 H1084 0.929 . S
C1088 C1090 1.378 . S
C1088 C1092 1.350 . S
C1089 C1092 1.463 . S
C1089 C1094 1.350 . S
C1089 N1097 1.427 . S
C1090 H1081 0.930 . S
C1090 C1088 1.378 . S
C1090 C1091 1.367 . S
C1091 C1090 1.367 . S
C1091 C1093 1.433 . S
C1092 C1088 1.350 . S
C1092 C1089 1.463 . S
C1092 N1096 1.427 . S
C1093 H1083 0.929 . S
C1093 C1091 1.433 . S
C1093 N1096 1.384 . S
C1094 H1085 0.929 . S
C1094 C1086 1.378 . S
C1094 C1089 1.350 . S
C1095 H1082 0.929 . S
C1095 C1087 1.433 . S
C1095 N1097 1.384 . S
N1096 C1092 1.427 . S
N1096 C1093 1.384 . S
N1097 C1089 1.427 . S
N1097 C1095 1.384 . S
H1098 C1104 0.930 . S
H1099 C1108 0.930 . S
H1100 C1113 0.929 . S
H1101 C1111 0.929 . S
H1102 C1106 0.929 . S
H1103 C1112 0.929 . S
C1104 H1098 0.930 . S
C1104 C1105 1.367 . S
C1104 C1112 1.378 . S
C1105 C1104 1.367 . S
C1105 C1113 1.433 . S
C1106 H1102 0.929 . S
C1106 C1108 1.378 . S
C1106 C1110 1.350 . S
C1107 C1110 1.463 . S
C1107 C1112 1.350 . S
C1107 N1115 1.427 . S
C1108 H1099 0.930 . S
C1108 C1106 1.378 . S
C1108 C1109 1.367 . S
C1109 C1108 1.367 . S
C1109 C1111 1.433 . S
C1110 C1106 1.350 . S
C1110 C1107 1.463 . S
C1110 N1114 1.427 . S
C1111 H1101 0.929 . S
C1111 C1109 1.433 . S
C1111 N1114 1.384 . S
C1112 H1103 0.929 . S
C1112 C1104 1.378 . S
C1112 C1107 1.350 . S
C1113 H1100 0.929 . S
C1113 C1105 1.433 . S
C1113 N1115 1.384 . S
N1114 C1110 1.427 . S
N1114 C1111 1.384 . S
N1115 C1107 1.427 . S
N1115 C1113 1.384 . S
H1116 C1122 0.930 . S
H1117 C1126 0.930 . S
H1118 C1131 0.929 . S
H1119 C1129 0.929 . S
H1120 C1124 0.929 . S
H1121 C1130 0.929 . S
C1122 H1116 0.930 . S
C1122 C1123 1.367 . S
C1122 C1130 1.378 . S
C1123 C1122 1.367 . S
C1123 C1131 1.433 . S
C1124 H1120 0.929 . S
C1124 C1126 1.378 . S
C1124 C1128 1.350 . S
C1125 C1128 1.463 . S
C1125 C1130 1.350 . S
C1125 N1133 1.427 . S
C1126 H1117 0.930 . S
C1126 C1124 1.378 . S
C1126 C1127 1.367 . S
C1127 C1126 1.367 . S
C1127 C1129 1.433 . S
C1128 C1124 1.350 . S
C1128 C1125 1.463 . S
C1128 N1132 1.427 . S
C1129 H1119 0.929 . S
C1129 C1127 1.433 . S
C1129 N1132 1.384 . S
C1130 H1121 0.929 . S
C1130 C1122 1.378 . S
C1130 C1125 1.350 . S
C1131 H1118 0.929 . S
C1131 C1123 1.433 . S
C1131 N1133 1.384 . S
N1132 C1128 1.427 . S
N1132 C1129 1.384 . S
N1133 C1125 1.427 . S
N1133 C1131 1.384 . S
H1134 C1140 0.930 . S
H1135 C1144 0.930 . S
H1136 C1149 0.929 . S
H1137 C1147 0.929 . S
H1138 C1142 0.929 . S
H1139 C1148 0.929 . S
C1140 H1134 0.930 . S
C1140 C1141 1.367 . S
C1140 C1148 1.378 . S
C1141 C1140 1.367 . S
C1141 C1149 1.433 . S
C1142 H1138 0.929 . S
C1142 C1144 1.378 . S
C1142 C1146 1.350 . S
C1143 C1146 1.463 . S
C1143 C1148 1.350 . S
C1143 N1151 1.427 . S
C1144 H1135 0.930 . S
C1144 C1142 1.378 . S
C1144 C1145 1.367 . S
C1145 C1144 1.367 . S
C1145 C1147 1.433 . S
C1146 C1142 1.350 . S
C1146 C1143 1.463 . S
C1146 N1150 1.427 . S
C1147 H1137 0.929 . S
C1147 C1145 1.433 . S
C1147 N1150 1.384 . S
C1148 H1139 0.929 . S
C1148 C1140 1.378 . S
C1148 C1143 1.350 . S
C1149 H1136 0.929 . S
C1149 C1141 1.433 . S
C1149 N1151 1.384 . S
N1150 C1146 1.427 . S
N1150 C1147 1.384 . S
N1151 C1143 1.427 . S
N1151 C1149 1.384 . S
H1152 C1158 0.930 . S
H1153 C1162 0.930 . S
H1154 C1167 0.929 . S
H1155 C1165 0.929 . S
H1156 C1160 0.929 . S
H1157 C1166 0.929 . S
C1158 H1152 0.930 . S
C1158 C1159 1.367 . S
C1158 C1166 1.378 . S
C1159 C1158 1.367 . S
C1159 C1167 1.433 . S
C1160 H1156 0.929 . S
C1160 C1162 1.378 . S
C1160 C1164 1.350 . S
C1161 C1164 1.463 . S
C1161 C1166 1.350 . S
C1161 N1169 1.427 . S
C1162 H1153 0.930 . S
C1162 C1160 1.378 . S
C1162 C1163 1.367 . S
C1163 C1162 1.367 . S
C1163 C1165 1.433 . S
C1164 C1160 1.350 . S
C1164 C1161 1.463 . S
C1164 N1168 1.427 . S
C1165 H1155 0.929 . S
C1165 C1163 1.433 . S
C1165 N1168 1.384 . S
C1166 H1157 0.929 . S
C1166 C1158 1.378 . S
C1166 C1161 1.350 . S
C1167 H1154 0.929 . S
C1167 C1159 1.433 . S
C1167 N1169 1.384 . S
N1168 C1164 1.427 . S
N1168 C1165 1.384 . S
N1169 C1161 1.427 . S
N1169 C1167 1.384 . S
H1170 C1176 0.930 . S
H1171 C1180 0.930 . S
H1172 C1185 0.929 . S
H1173 C1183 0.929 . S
H1174 C1178 0.929 . S
H1175 C1184 0.929 . S
C1176 H1170 0.930 . S
C1176 C1177 1.367 . S
C1176 C1184 1.378 . S
C1177 C1176 1.367 . S
C1177 C1185 1.433 . S
C1178 H1174 0.929 . S
C1178 C1180 1.378 . S
C1178 C1182 1.350 . S
C1179 C1182 1.463 . S
C1179 C1184 1.350 . S
C1179 N1187 1.427 . S
C1180 H1171 0.930 . S
C1180 C1178 1.378 . S
C1180 C1181 1.367 . S
C1181 C1180 1.367 . S
C1181 C1183 1.433 . S
C1182 C1178 1.350 . S
C1182 C1179 1.463 . S
C1182 N1186 1.427 . S
C1183 H1173 0.929 . S
C1183 C1181 1.433 . S
C1183 N1186 1.384 . S
C1184 H1175 0.929 . S
C1184 C1176 1.378 . S
C1184 C1179 1.350 . S
C1185 H1172 0.929 . S
C1185 C1177 1.433 . S
C1185 N1187 1.384 . S
N1186 C1182 1.427 . S
N1186 C1183 1.384 . S
N1187 C1179 1.427 . S
N1187 C1185 1.384 . S
H1188 C1194 0.930 . S
H1189 C1198 0.930 . S
H1190 C1203 0.929 . S
H1191 C1201 0.929 . S
H1192 C1196 0.929 . S
H1193 C1202 0.929 . S
C1194 H1188 0.930 . S
C1194 C1195 1.367 . S
C1194 C1202 1.378 . S
C1195 C1194 1.367 . S
C1195 C1203 1.433 . S
C1196 H1192 0.929 . S
C1196 C1198 1.378 . S
C1196 C1200 1.350 . S
C1197 C1200 1.463 . S
C1197 C1202 1.350 . S
C1197 N1205 1.427 . S
C1198 H1189 0.930 . S
C1198 C1196 1.378 . S
C1198 C1199 1.367 . S
C1199 C1198 1.367 . S
C1199 C1201 1.433 . S
C1200 C1196 1.350 . S
C1200 C1197 1.463 . S
C1200 N1204 1.427 . S
C1201 H1191 0.929 . S
C1201 C1199 1.433 . S
C1201 N1204 1.384 . S
C1202 H1193 0.929 . S
C1202 C1194 1.378 . S
C1202 C1197 1.350 . S
C1203 H1190 0.929 . S
C1203 C1195 1.433 . S
C1203 N1205 1.384 . S
N1204 C1200 1.427 . S
N1204 C1201 1.384 . S
N1205 C1197 1.427 . S
N1205 C1203 1.384 . S
H1206 C1212 0.930 . S
H1207 C1216 0.930 . S
H1208 C1221 0.929 . S
H1209 C1219 0.929 . S
H1210 C1214 0.929 . S
H1211 C1220 0.929 . S
C1212 H1206 0.930 . S
C1212 C1213 1.367 . S
C1212 C1220 1.378 . S
C1213 C1212 1.367 . S
C1213 C1221 1.433 . S
C1214 H1210 0.929 . S
C1214 C1216 1.378 . S
C1214 C1218 1.350 . S
C1215 C1218 1.463 . S
C1215 C1220 1.350 . S
C1215 N1223 1.427 . S
C1216 H1207 0.930 . S
C1216 C1214 1.378 . S
C1216 C1217 1.367 . S
C1217 C1216 1.367 . S
C1217 C1219 1.433 . S
C1218 C1214 1.350 . S
C1218 C1215 1.463 . S
C1218 N1222 1.427 . S
C1219 H1209 0.929 . S
C1219 C1217 1.433 . S
C1219 N1222 1.384 . S
C1220 H1211 0.929 . S
C1220 C1212 1.378 . S
C1220 C1215 1.350 . S
C1221 H1208 0.929 . S
C1221 C1213 1.433 . S
C1221 N1223 1.384 . S
N1222 C1218 1.427 . S
N1222 C1219 1.384 . S
N1223 C1215 1.427 . S
N1223 C1221 1.384 . S
H1224 C1230 0.930 . S
H1225 C1234 0.930 . S
H1226 C1239 0.929 . S
H1227 C1237 0.929 . S
H1228 C1232 0.929 . S
H1229 C1238 0.929 . S
C1230 H1224 0.930 . S
C1230 C1231 1.367 . S
C1230 C1238 1.378 . S
C1231 C1230 1.367 . S
C1231 C1239 1.433 . S
C1232 H1228 0.929 . S
C1232 C1234 1.378 . S
C1232 C1236 1.350 . S
C1233 C1236 1.463 . S
C1233 C1238 1.350 . S
C1233 N1241 1.427 . S
C1234 H1225 0.930 . S
C1234 C1232 1.378 . S
C1234 C1235 1.367 . S
C1235 C1234 1.367 . S
C1235 C1237 1.433 . S
C1236 C1232 1.350 . S
C1236 C1233 1.463 . S
C1236 N1240 1.427 . S
C1237 H1227 0.929 . S
C1237 C1235 1.433 . S
C1237 N1240 1.384 . S
C1238 H1229 0.929 . S
C1238 C1230 1.378 . S
C1238 C1233 1.350 . S
C1239 H1226 0.929 . S
C1239 C1231 1.433 . S
C1239 N1241 1.384 . S
N1240 C1236 1.427 . S
N1240 C1237 1.384 . S
N1241 C1233 1.427 . S
N1241 C1239 1.384 . S
H1242 C1248 0.930 . S
H1243 C1252 0.930 . S
H1244 C1257 0.929 . S
H1245 C1255 0.929 . S
H1246 C1250 0.929 . S
H1247 C1256 0.929 . S
C1248 H1242 0.930 . S
C1248 C1249 1.367 . S
C1248 C1256 1.378 . S
C1249 C1248 1.367 . S
C1249 C1257 1.433 . S
C1250 H1246 0.929 . S
C1250 C1252 1.378 . S
C1250 C1254 1.350 . S
C1251 C1254 1.463 . S
C1251 C1256 1.350 . S
C1251 N1259 1.427 . S
C1252 H1243 0.930 . S
C1252 C1250 1.378 . S
C1252 C1253 1.367 . S
C1253 C1252 1.367 . S
C1253 C1255 1.433 . S
C1254 C1250 1.350 . S
C1254 C1251 1.463 . S
C1254 N1258 1.427 . S
C1255 H1245 0.929 . S
C1255 C1253 1.433 . S
C1255 N1258 1.384 . S
C1256 H1247 0.929 . S
C1256 C1248 1.378 . S
C1256 C1251 1.350 . S
C1257 H1244 0.929 . S
C1257 C1249 1.433 . S
C1257 N1259 1.384 . S
N1258 C1254 1.427 . S
N1258 C1255 1.384 . S
N1259 C1251 1.427 . S
N1259 C1257 1.384 . S
H1260 C1266 0.930 . S
H1261 C1270 0.930 . S
H1262 C1275 0.929 . S
H1263 C1273 0.929 . S
H1264 C1268 0.929 . S
H1265 C1274 0.929 . S
C1266 H1260 0.930 . S
C1266 C1267 1.367 . S
C1266 C1274 1.378 . S
C1267 C1266 1.367 . S
C1267 C1275 1.433 . S
C1268 H1264 0.929 . S
C1268 C1270 1.378 . S
C1268 C1272 1.350 . S
C1269 C1272 1.463 . S
C1269 C1274 1.350 . S
C1269 N1277 1.427 . S
C1270 H1261 0.930 . S
C1270 C1268 1.378 . S
C1270 C1271 1.367 . S
C1271 C1270 1.367 . S
C1271 C1273 1.433 . S
C1272 C1268 1.350 . S
C1272 C1269 1.463 . S
C1272 N1276 1.427 . S
C1273 H1263 0.929 . S
C1273 C1271 1.433 . S
C1273 N1276 1.384 . S
C1274 H1265 0.929 . S
C1274 C1266 1.378 . S
C1274 C1269 1.350 . S
C1275 H1262 0.929 . S
C1275 C1267 1.433 . S
C1275 N1277 1.384 . S
N1276 C1272 1.427 . S
N1276 C1273 1.384 . S
N1277 C1269 1.427 . S
N1277 C1275 1.384 . S
H1278 C1284 0.930 . S
H1279 C1288 0.930 . S
H1280 C1293 0.929 . S
H1281 C1291 0.929 . S
H1282 C1286 0.929 . S
H1283 C1292 0.929 . S
C1284 H1278 0.930 . S
C1284 C1285 1.367 . S
C1284 C1292 1.378 . S
C1285 C1284 1.367 . S
C1285 C1293 1.433 . S
C1286 H1282 0.929 . S
C1286 C1288 1.378 . S
C1286 C1290 1.350 . S
C1287 C1290 1.463 . S
C1287 C1292 1.350 . S
C1287 N1295 1.427 . S
C1288 H1279 0.930 . S
C1288 C1286 1.378 . S
C1288 C1289 1.367 . S
C1289 C1288 1.367 . S
C1289 C1291 1.433 . S
C1290 C1286 1.350 . S
C1290 C1287 1.463 . S
C1290 N1294 1.427 . S
C1291 H1281 0.929 . S
C1291 C1289 1.433 . S
C1291 N1294 1.384 . S
C1292 H1283 0.929 . S
C1292 C1284 1.378 . S
C1292 C1287 1.350 . S
C1293 H1280 0.929 . S
C1293 C1285 1.433 . S
C1293 N1295 1.384 . S
N1294 C1290 1.427 . S
N1294 C1291 1.384 . S
N1295 C1287 1.427 . S
N1295 C1293 1.384 . S
H1296 C1302 0.930 . S
H1297 C1306 0.930 . S
H1298 C1311 0.929 . S
H1299 C1309 0.929 . S
H1300 C1304 0.929 . S
H1301 C1310 0.929 . S
C1302 H1296 0.930 . S
C1302 C1303 1.367 . S
C1302 C1310 1.378 . S
C1303 C1302 1.367 . S
C1303 C1311 1.433 . S
C1304 H1300 0.929 . S
C1304 C1306 1.378 . S
C1304 C1308 1.350 . S
C1305 C1308 1.463 . S
C1305 C1310 1.350 . S
C1305 N1313 1.427 . S
C1306 H1297 0.930 . S
C1306 C1304 1.378 . S
C1306 C1307 1.367 . S
C1307 C1306 1.367 . S
C1307 C1309 1.433 . S
C1308 C1304 1.350 . S
C1308 C1305 1.463 . S
C1308 N1312 1.427 . S
C1309 H1299 0.929 . S
C1309 C1307 1.433 . S
C1309 N1312 1.384 . S
C1310 H1301 0.929 . S
C1310 C1302 1.378 . S
C1310 C1305 1.350 . S
C1311 H1298 0.929 . S
C1311 C1303 1.433 . S
C1311 N1313 1.384 . S
N1312 C1308 1.427 . S
N1312 C1309 1.384 . S
N1313 C1305 1.427 . S
N1313 C1311 1.384 . S
H1314 C1320 0.930 . S
H1315 C1324 0.930 . S
H1316 C1329 0.929 . S
H1317 C1327 0.929 . S
H1318 C1322 0.929 . S
H1319 C1328 0.929 . S
C1320 H1314 0.930 . S
C1320 C1321 1.367 . S
C1320 C1328 1.378 . S
C1321 C1320 1.367 . S
C1321 C1329 1.433 . S
C1322 H1318 0.929 . S
C1322 C1324 1.378 . S
C1322 C1326 1.350 . S
C1323 C1326 1.463 . S
C1323 C1328 1.350 . S
C1323 N1331 1.427 . S
C1324 H1315 0.930 . S
C1324 C1322 1.378 . S
C1324 C1325 1.367 . S
C1325 C1324 1.367 . S
C1325 C1327 1.433 . S
C1326 C1322 1.350 . S
C1326 C1323 1.463 . S
C1326 N1330 1.427 . S
C1327 H1317 0.929 . S
C1327 C1325 1.433 . S
C1327 N1330 1.384 . S
C1328 H1319 0.929 . S
C1328 C1320 1.378 . S
C1328 C1323 1.350 . S
C1329 H1316 0.929 . S
C1329 C1321 1.433 . S
C1329 N1331 1.384 . S
N1330 C1326 1.427 . S
N1330 C1327 1.384 . S
N1331 C1323 1.427 . S
N1331 C1329 1.384 . S
H1332 C1338 0.930 . S
H1333 C1342 0.930 . S
H1334 C1347 0.929 . S
H1335 C1345 0.929 . S
H1336 C1340 0.929 . S
H1337 C1346 0.929 . S
C1338 H1332 0.930 . S
C1338 C1339 1.367 1_655 S
C1338 C1346 1.378 . S
C1339 C1338 1.367 1_455 S
C1339 C1347 1.433 . S
C1340 H1336 0.929 . S
C1340 C1342 1.378 . S
C1340 C1344 1.350 1_455 S
C1341 C1344 1.463 1_455 S
C1341 C1346 1.350 1_455 S
C1341 N1349 1.427 . S
C1342 H1333 0.930 . S
C1342 C1340 1.378 . S
C1342 C1343 1.367 1_455 S
C1343 C1342 1.367 1_655 S
C1343 C1345 1.433 . S
C1344 C1340 1.350 1_655 S
C1344 C1341 1.463 1_655 S
C1344 N1348 1.427 . S
C1345 H1335 0.929 . S
C1345 C1343 1.433 . S
C1345 N1348 1.384 . S
C1346 H1337 0.929 . S
C1346 C1338 1.378 . S
C1346 C1341 1.350 1_655 S
C1347 H1334 0.929 . S
C1347 C1339 1.433 . S
C1347 N1349 1.384 . S
N1348 C1344 1.427 . S
N1348 C1345 1.384 . S
N1349 C1341 1.427 . S
N1349 C1347 1.384 . S
H1350 C1356 0.930 . S
H1351 C1360 0.930 . S
H1352 C1365 0.929 . S
H1353 C1363 0.929 . S
H1354 C1358 0.929 . S
H1355 C1364 0.929 . S
C1356 H1350 0.930 . S
C1356 C1357 1.367 . S
C1356 C1364 1.378 . S
C1357 C1356 1.367 . S
C1357 C1365 1.433 . S
C1358 H1354 0.929 . S
C1358 C1360 1.378 . S
C1358 C1362 1.350 . S
C1359 C1362 1.463 . S
C1359 C1364 1.350 . S
C1359 N1367 1.427 . S
C1360 H1351 0.930 . S
C1360 C1358 1.378 . S
C1360 C1361 1.367 . S
C1361 C1360 1.367 . S
C1361 C1363 1.433 . S
C1362 C1358 1.350 . S
C1362 C1359 1.463 . S
C1362 N1366 1.427 . S
C1363 H1353 0.929 . S
C1363 C1361 1.433 . S
C1363 N1366 1.384 . S
C1364 H1355 0.929 . S
C1364 C1356 1.378 . S
C1364 C1359 1.350 . S
C1365 H1352 0.929 . S
C1365 C1357 1.433 . S
C1365 N1367 1.384 . S
N1366 C1362 1.427 . S
N1366 C1363 1.384 . S
N1367 C1359 1.427 . S
N1367 C1365 1.384 . S
H1368 C1374 0.926 . S
H1369 C1378 0.926 . S
H1370 C1383 0.929 . S
H1371 C1381 0.929 . S
H1372 C1376 0.929 . S
H1373 C1382 0.929 . S
C1374 H1368 0.926 . S
C1374 C1375 1.367 . S
C1374 C1382 1.378 1_565 S
C1375 C1374 1.367 . S
C1375 C1383 1.433 . S
C1376 H1372 0.929 . S
C1376 C1378 1.378 1_565 S
C1376 C1380 1.350 1_565 S
C1377 C1380 1.463 1_565 S
C1377 C1382 1.350 1_565 S
C1377 N1385 1.427 . S
C1378 H1369 0.926 . S
C1378 C1376 1.378 1_545 S
C1378 C1379 1.367 . S
C1379 C1378 1.367 . S
C1379 C1381 1.433 . S
C1380 C1376 1.350 1_545 S
C1380 C1377 1.463 1_545 S
C1380 N1384 1.427 . S
C1381 H1371 0.929 . S
C1381 C1379 1.433 . S
C1381 N1384 1.384 . S
C1382 H1373 0.929 . S
C1382 C1374 1.378 1_545 S
C1382 C1377 1.350 1_545 S
C1383 H1370 0.929 . S
C1383 C1375 1.433 . S
C1383 N1385 1.384 . S
N1384 C1380 1.427 . S
N1384 C1381 1.384 . S
N1385 C1377 1.427 . S
N1385 C1383 1.384 . S
H1386 C1392 0.930 . S
H1387 C1396 0.930 . S
H1388 C1401 0.929 1_545 S
H1389 C1399 0.929 1_565 S
H1390 C1394 0.929 . S
H1391 C1400 0.929 . S
C1392 H1386 0.930 . S
C1392 C1393 1.367 . S
C1392 C1400 1.378 . S
C1393 C1392 1.367 . S
C1393 C1401 1.433 . S
C1394 H1390 0.929 . S
C1394 C1396 1.378 . S
C1394 C1398 1.350 . S
C1395 C1398 1.463 1_565 S
C1395 C1400 1.350 . S
C1395 N1403 1.427 1_565 S
C1396 H1387 0.930 . S
C1396 C1394 1.378 . S
C1396 C1397 1.367 . S
C1397 C1396 1.367 . S
C1397 C1399 1.433 . S
C1398 C1394 1.350 . S
C1398 C1395 1.463 1_545 S
C1398 N1402 1.427 1_545 S
C1399 H1389 0.929 1_545 S
C1399 C1397 1.433 . S
C1399 N1402 1.384 1_545 S
C1400 H1391 0.929 . S
C1400 C1392 1.378 . S
C1400 C1395 1.350 . S
C1401 H1388 0.929 1_565 S
C1401 C1393 1.433 . S
C1401 N1403 1.384 1_565 S
N1402 C1398 1.427 1_565 S
N1402 C1399 1.384 1_565 S
N1403 C1395 1.427 1_545 S
N1403 C1401 1.384 1_545 S
H1404 C1410 0.930 . S
H1405 C1414 0.930 . S
H1406 C1419 0.929 . S
H1407 C1417 0.929 . S
H1408 C1412 0.929 . S
H1409 C1418 0.929 . S
C1410 H1404 0.930 . S
C1410 C1411 1.367 . S
C1410 C1418 1.378 . S
C1411 C1410 1.367 . S
C1411 C1419 1.433 . S
C1412 H1408 0.929 . S
C1412 C1414 1.378 . S
C1412 C1416 1.350 . S
C1413 C1416 1.463 1_655 S
C1413 C1418 1.350 . S
C1413 N1421 1.427 . S
C1414 H1405 0.930 . S
C1414 C1412 1.378 . S
C1414 C1415 1.367 . S
C1415 C1414 1.367 . S
C1415 C1417 1.433 . S
C1416 C1412 1.350 . S
C1416 C1413 1.463 1_455 S
C1416 N1420 1.427 . S
C1417 H1407 0.929 . S
C1417 C1415 1.433 . S
C1417 N1420 1.384 . S
C1418 H1409 0.929 . S
C1418 C1410 1.378 . S
C1418 C1413 1.350 . S
C1419 H1406 0.929 . S
C1419 C1411 1.433 . S
C1419 N1421 1.384 . S
N1420 C1416 1.427 . S
N1420 C1417 1.384 . S
N1421 C1413 1.427 . S
N1421 C1419 1.384 . S
H1422 C1428 0.930 . S
H1423 C1432 0.930 . S
H1424 C1437 0.929 . S
H1425 C1435 0.929 . S
H1426 C1430 0.929 . S
H1427 C1436 0.929 . S
C1428 H1422 0.930 . S
C1428 C1429 1.367 . S
C1428 C1436 1.378 . S
C1429 C1428 1.367 . S
C1429 C1437 1.433 . S
C1430 H1426 0.929 . S
C1430 C1432 1.378 . S
C1430 C1434 1.350 . S
C1431 C1434 1.463 . S
C1431 C1436 1.350 . S
C1431 N1439 1.427 . S
C1432 H1423 0.930 . S
C1432 C1430 1.378 . S
C1432 C1433 1.367 . S
C1433 C1432 1.367 . S
C1433 C1435 1.433 . S
C1434 C1430 1.350 . S
C1434 C1431 1.463 . S
C1434 N1438 1.427 . S
C1435 H1425 0.929 . S
C1435 C1433 1.433 . S
C1435 N1438 1.384 . S
C1436 H1427 0.929 . S
C1436 C1428 1.378 . S
C1436 C1431 1.350 . S
C1437 H1424 0.929 . S
C1437 C1429 1.433 . S
C1437 N1439 1.384 . S
N1438 C1434 1.427 . S
N1438 C1435 1.384 . S
N1439 C1431 1.427 . S
N1439 C1437 1.384 . S
H1440 C1446 0.930 . S
H1441 C1450 0.930 . S
H1442 C1455 0.929 . S
H1443 C1453 0.929 . S
H1444 C1448 0.929 . S
H1445 C1454 0.929 . S
C1446 H1440 0.930 . S
C1446 C1447 1.367 . S
C1446 C1454 1.378 . S
C1447 C1446 1.367 . S
C1447 C1455 1.433 . S
C1448 H1444 0.929 . S
C1448 C1450 1.378 . S
C1448 C1452 1.350 . S
C1449 C1452 1.463 . S
C1449 C1454 1.350 . S
C1449 N1457 1.427 . S
C1450 H1441 0.930 . S
C1450 C1448 1.378 . S
C1450 C1451 1.367 . S
C1451 C1450 1.367 . S
C1451 C1453 1.433 . S
C1452 C1448 1.350 . S
C1452 C1449 1.463 . S
C1452 N1456 1.427 . S
C1453 H1443 0.929 . S
C1453 C1451 1.433 . S
C1453 N1456 1.384 . S
C1454 H1445 0.929 . S
C1454 C1446 1.378 . S
C1454 C1449 1.350 . S
C1455 H1442 0.929 . S
C1455 C1447 1.433 . S
C1455 N1457 1.384 . S
N1456 C1452 1.427 . S
N1456 C1453 1.384 . S
N1457 C1449 1.427 . S
N1457 C1455 1.384 . S
H1458 C1464 0.930 . S
H1459 C1468 0.930 . S
H1460 C1473 0.929 . S
H1461 C1471 0.929 . S
H1462 C1466 0.929 . S
H1463 C1472 0.929 . S
C1464 H1458 0.930 . S
C1464 C1465 1.367 . S
C1464 C1472 1.378 . S
C1465 C1464 1.367 . S
C1465 C1473 1.433 . S
C1466 H1462 0.929 . S
C1466 C1468 1.378 . S
C1466 C1470 1.350 . S
C1467 C1470 1.463 . S
C1467 C1472 1.350 . S
C1467 N1475 1.427 . S
C1468 H1459 0.930 . S
C1468 C1466 1.378 . S
C1468 C1469 1.367 . S
C1469 C1468 1.367 . S
C1469 C1471 1.433 . S
C1470 C1466 1.350 . S
C1470 C1467 1.463 . S
C1470 N1474 1.427 . S
C1471 H1461 0.929 . S
C1471 C1469 1.433 . S
C1471 N1474 1.384 . S
C1472 H1463 0.929 . S
C1472 C1464 1.378 . S
C1472 C1467 1.350 . S
C1473 H1460 0.929 . S
C1473 C1465 1.433 . S
C1473 N1475 1.384 . S
N1474 C1470 1.427 . S
N1474 C1471 1.384 . S
N1475 C1467 1.427 . S
N1475 C1473 1.384 . S
H1476 C1482 0.930 . S
H1477 C1486 0.930 . S
H1478 C1491 0.929 . S
H1479 C1489 0.929 . S
H1480 C1484 0.929 . S
H1481 C1490 0.929 . S
C1482 H1476 0.930 . S
C1482 C1483 1.367 . S
C1482 C1490 1.378 . S
C1483 C1482 1.367 . S
C1483 C1491 1.433 . S
C1484 H1480 0.929 . S
C1484 C1486 1.378 . S
C1484 C1488 1.350 . S
C1485 C1488 1.463 . S
C1485 C1490 1.350 . S
C1485 N1493 1.427 . S
C1486 H1477 0.930 . S
C1486 C1484 1.378 . S
C1486 C1487 1.367 . S
C1487 C1486 1.367 . S
C1487 C1489 1.433 . S
C1488 C1484 1.350 . S
C1488 C1485 1.463 . S
C1488 N1492 1.427 . S
C1489 H1479 0.929 . S
C1489 C1487 1.433 . S
C1489 N1492 1.384 . S
C1490 H1481 0.929 . S
C1490 C1482 1.378 . S
C1490 C1485 1.350 . S
C1491 H1478 0.929 . S
C1491 C1483 1.433 . S
C1491 N1493 1.384 . S
N1492 C1488 1.427 . S
N1492 C1489 1.384 . S
N1493 C1485 1.427 . S
N1493 C1491 1.384 . S
H1494 C1500 0.930 . S
H1495 C1504 0.930 . S
H1496 C1509 0.929 . S
H1497 C1507 0.929 . S
H1498 C1502 0.929 . S
H1499 C1508 0.929 . S
C1500 H1494 0.930 . S
C1500 C1501 1.367 . S
C1500 C1508 1.378 . S
C1501 C1500 1.367 . S
C1501 C1509 1.433 . S
C1502 H1498 0.929 . S
C1502 C1504 1.378 . S
C1502 C1506 1.350 . S
C1503 C1506 1.463 . S
C1503 C1508 1.350 . S
C1503 N1511 1.427 . S
C1504 H1495 0.930 . S
C1504 C1502 1.378 . S
C1504 C1505 1.367 . S
C1505 C1504 1.367 . S
C1505 C1507 1.433 . S
C1506 C1502 1.350 . S
C1506 C1503 1.463 . S
C1506 N1510 1.427 . S
C1507 H1497 0.929 . S
C1507 C1505 1.433 . S
C1507 N1510 1.384 . S
C1508 H1499 0.929 . S
C1508 C1500 1.378 . S
C1508 C1503 1.350 . S
C1509 H1496 0.929 . S
C1509 C1501 1.433 . S
C1509 N1511 1.384 . S
N1510 C1506 1.427 . S
N1510 C1507 1.384 . S
N1511 C1503 1.427 . S
N1511 C1509 1.384 . S
H1512 C1518 0.930 . S
H1513 C1522 0.930 . S
H1514 C1527 0.929 . S
H1515 C1525 0.929 . S
H1516 C1520 0.929 . S
H1517 C1526 0.929 . S
C1518 H1512 0.930 . S
C1518 C1519 1.367 . S
C1518 C1526 1.378 . S
C1519 C1518 1.367 . S
C1519 C1527 1.433 . S
C1520 H1516 0.929 . S
C1520 C1522 1.378 . S
C1520 C1524 1.350 . S
C1521 C1524 1.463 . S
C1521 C1526 1.350 . S
C1521 N1529 1.427 . S
C1522 H1513 0.930 . S
C1522 C1520 1.378 . S
C1522 C1523 1.367 . S
C1523 C1522 1.367 . S
C1523 C1525 1.433 . S
C1524 C1520 1.350 . S
C1524 C1521 1.463 . S
C1524 N1528 1.427 . S
C1525 H1515 0.929 . S
C1525 C1523 1.433 . S
C1525 N1528 1.384 . S
C1526 H1517 0.929 . S
C1526 C1518 1.378 . S
C1526 C1521 1.350 . S
C1527 H1514 0.929 . S
C1527 C1519 1.433 . S
C1527 N1529 1.384 . S
N1528 C1524 1.427 . S
N1528 C1525 1.384 . S
N1529 C1521 1.427 . S
N1529 C1527 1.384 . S
H1530 C1536 0.930 . S
H1531 C1540 0.930 . S
H1532 C1545 0.929 . S
H1533 C1543 0.929 . S
H1534 C1538 0.929 . S
H1535 C1544 0.929 . S
C1536 H1530 0.930 . S
C1536 C1537 1.367 . S
C1536 C1544 1.378 . S
C1537 C1536 1.367 . S
C1537 C1545 1.433 . S
C1538 H1534 0.929 . S
C1538 C1540 1.378 . S
C1538 C1542 1.350 . S
C1539 C1542 1.463 . S
C1539 C1544 1.350 . S
C1539 N1547 1.427 . S
C1540 H1531 0.930 . S
C1540 C1538 1.378 . S
C1540 C1541 1.367 . S
C1541 C1540 1.367 . S
C1541 C1543 1.433 . S
C1542 C1538 1.350 . S
C1542 C1539 1.463 . S
C1542 N1546 1.427 . S
C1543 H1533 0.929 . S
C1543 C1541 1.433 . S
C1543 N1546 1.384 . S
C1544 H1535 0.929 . S
C1544 C1536 1.378 . S
C1544 C1539 1.350 . S
C1545 H1532 0.929 . S
C1545 C1537 1.433 . S
C1545 N1547 1.384 . S
N1546 C1542 1.427 . S
N1546 C1543 1.384 . S
N1547 C1539 1.427 . S
N1547 C1545 1.384 . S
H1548 C1554 0.930 . S
H1549 C1558 0.930 . S
H1550 C1563 0.929 . S
H1551 C1561 0.929 . S
H1552 C1556 0.929 . S
H1553 C1562 0.929 . S
C1554 H1548 0.930 . S
C1554 C1555 1.367 . S
C1554 C1562 1.378 . S
C1555 C1554 1.367 . S
C1555 C1563 1.433 . S
C1556 H1552 0.929 . S
C1556 C1558 1.378 . S
C1556 C1560 1.350 . S
C1557 C1560 1.463 . S
C1557 C1562 1.350 . S
C1557 N1565 1.427 . S
C1558 H1549 0.930 . S
C1558 C1556 1.378 . S
C1558 C1559 1.367 . S
C1559 C1558 1.367 . S
C1559 C1561 1.433 . S
C1560 C1556 1.350 . S
C1560 C1557 1.463 . S
C1560 N1564 1.427 . S
C1561 H1551 0.929 . S
C1561 C1559 1.433 . S
C1561 N1564 1.384 . S
C1562 H1553 0.929 . S
C1562 C1554 1.378 . S
C1562 C1557 1.350 . S
C1563 H1550 0.929 . S
C1563 C1555 1.433 . S
C1563 N1565 1.384 . S
N1564 C1560 1.427 . S
N1564 C1561 1.384 . S
N1565 C1557 1.427 . S
N1565 C1563 1.384 . S
H1566 C1572 0.930 . S
H1567 C1576 0.930 . S
H1568 C1581 0.929 . S
H1569 C1579 0.929 . S
H1570 C1574 0.929 . S
H1571 C1580 0.929 . S
C1572 H1566 0.930 . S
C1572 C1573 1.367 . S
C1572 C1580 1.378 . S
C1573 C1572 1.367 . S
C1573 C1581 1.433 . S
C1574 H1570 0.929 . S
C1574 C1576 1.378 . S
C1574 C1578 1.350 . S
C1575 C1578 1.463 . S
C1575 C1580 1.350 . S
C1575 N1583 1.427 . S
C1576 H1567 0.930 . S
C1576 C1574 1.378 . S
C1576 C1577 1.367 . S
C1577 C1576 1.367 . S
C1577 C1579 1.433 . S
C1578 C1574 1.350 . S
C1578 C1575 1.463 . S
C1578 N1582 1.427 . S
C1579 H1569 0.929 . S
C1579 C1577 1.433 . S
C1579 N1582 1.384 . S
C1580 H1571 0.929 . S
C1580 C1572 1.378 . S
C1580 C1575 1.350 . S
C1581 H1568 0.929 . S
C1581 C1573 1.433 . S
C1581 N1583 1.384 . S
N1582 C1578 1.427 . S
N1582 C1579 1.384 . S
N1583 C1575 1.427 . S
N1583 C1581 1.384 . S
H1584 C1590 0.930 . S
H1585 C1594 0.930 . S
H1586 C1599 0.929 . S
H1587 C1597 0.929 . S
H1588 C1592 0.929 . S
H1589 C1598 0.929 . S
C1590 H1584 0.930 . S
C1590 C1591 1.367 . S
C1590 C1598 1.378 . S
C1591 C1590 1.367 . S
C1591 C1599 1.433 . S
C1592 H1588 0.929 . S
C1592 C1594 1.378 . S
C1592 C1596 1.350 . S
C1593 C1596 1.463 . S
C1593 C1598 1.350 . S
C1593 N1601 1.427 . S
C1594 H1585 0.930 . S
C1594 C1592 1.378 . S
C1594 C1595 1.367 . S
C1595 C1594 1.367 . S
C1595 C1597 1.433 . S
C1596 C1592 1.350 . S
C1596 C1593 1.463 . S
C1596 N1600 1.427 . S
C1597 H1587 0.929 . S
C1597 C1595 1.433 . S
C1597 N1600 1.384 . S
C1598 H1589 0.929 . S
C1598 C1590 1.378 . S
C1598 C1593 1.350 . S
C1599 H1586 0.929 . S
C1599 C1591 1.433 . S
C1599 N1601 1.384 . S
N1600 C1596 1.427 . S
N1600 C1597 1.384 . S
N1601 C1593 1.427 . S
N1601 C1599 1.384 . S
H1602 C1608 0.930 . S
H1603 C1612 0.930 . S
H1604 C1617 0.929 . S
H1605 C1615 0.929 . S
H1606 C1610 0.929 . S
H1607 C1616 0.929 . S
C1608 H1602 0.930 . S
C1608 C1609 1.367 . S
C1608 C1616 1.378 . S
C1609 C1608 1.367 . S
C1609 C1617 1.433 . S
C1610 H1606 0.929 . S
C1610 C1612 1.378 . S
C1610 C1614 1.350 . S
C1611 C1614 1.463 . S
C1611 C1616 1.350 . S
C1611 N1619 1.427 . S
C1612 H1603 0.930 . S
C1612 C1610 1.378 . S
C1612 C1613 1.367 . S
C1613 C1612 1.367 . S
C1613 C1615 1.433 . S
C1614 C1610 1.350 . S
C1614 C1611 1.463 . S
C1614 N1618 1.427 . S
C1615 H1605 0.929 . S
C1615 C1613 1.433 . S
C1615 N1618 1.384 . S
C1616 H1607 0.929 . S
C1616 C1608 1.378 . S
C1616 C1611 1.350 . S
C1617 H1604 0.929 . S
C1617 C1609 1.433 . S
C1617 N1619 1.384 . S
N1618 C1614 1.427 . S
N1618 C1615 1.384 . S
N1619 C1611 1.427 . S
N1619 C1617 1.384 . S
H1620 C1626 0.930 . S
H1621 C1630 0.930 . S
H1622 C1635 0.929 . S
H1623 C1633 0.929 . S
H1624 C1628 0.929 . S
H1625 C1634 0.929 . S
C1626 H1620 0.930 . S
C1626 C1627 1.367 . S
C1626 C1634 1.378 . S
C1627 C1626 1.367 . S
C1627 C1635 1.433 . S
C1628 H1624 0.929 . S
C1628 C1630 1.378 . S
C1628 C1632 1.350 . S
C1629 C1632 1.463 . S
C1629 C1634 1.350 . S
C1629 N1637 1.427 . S
C1630 H1621 0.930 . S
C1630 C1628 1.378 . S
C1630 C1631 1.367 . S
C1631 C1630 1.367 . S
C1631 C1633 1.433 . S
C1632 C1628 1.350 . S
C1632 C1629 1.463 . S
C1632 N1636 1.427 . S
C1633 H1623 0.929 . S
C1633 C1631 1.433 . S
C1633 N1636 1.384 . S
C1634 H1625 0.929 . S
C1634 C1626 1.378 . S
C1634 C1629 1.350 . S
C1635 H1622 0.929 . S
C1635 C1627 1.433 . S
C1635 N1637 1.384 . S
N1636 C1632 1.427 . S
N1636 C1633 1.384 . S
N1637 C1629 1.427 . S
N1637 C1635 1.384 . S
H1638 C1644 0.930 . S
H1639 C1648 0.930 . S
H1640 C1653 0.929 . S
H1641 C1651 0.929 . S
H1642 C1646 0.929 . S
H1643 C1652 0.929 . S
C1644 H1638 0.930 . S
C1644 C1645 1.367 . S
C1644 C1652 1.378 . S
C1645 C1644 1.367 . S
C1645 C1653 1.433 . S
C1646 H1642 0.929 . S
C1646 C1648 1.378 . S
C1646 C1650 1.350 . S
C1647 C1650 1.463 . S
C1647 C1652 1.350 . S
C1647 N1655 1.427 . S
C1648 H1639 0.930 . S
C1648 C1646 1.378 . S
C1648 C1649 1.367 . S
C1649 C1648 1.367 . S
C1649 C1651 1.433 . S
C1650 C1646 1.350 . S
C1650 C1647 1.463 . S
C1650 N1654 1.427 . S
C1651 H1641 0.929 . S
C1651 C1649 1.433 . S
C1651 N1654 1.384 . S
C1652 H1643 0.929 . S
C1652 C1644 1.378 . S
C1652 C1647 1.350 . S
C1653 H1640 0.929 . S
C1653 C1645 1.433 . S
C1653 N1655 1.384 . S
N1654 C1650 1.427 . S
N1654 C1651 1.384 . S
N1655 C1647 1.427 . S
N1655 C1653 1.384 . S
H1656 C1662 0.930 . S
H1657 C1666 0.930 . S
H1658 C1671 0.929 . S
H1659 C1669 0.929 . S
H1660 C1664 0.929 1_455 S
H1661 C1670 0.929 1_655 S
C1662 H1656 0.930 . S
C1662 C1663 1.367 . S
C1662 C1670 1.378 . S
C1663 C1662 1.367 . S
C1663 C1671 1.433 . S
C1664 H1660 0.929 1_655 S
C1664 C1666 1.378 . S
C1664 C1668 1.350 . S
C1665 C1668 1.463 1_456 S
C1665 C1670 1.350 . S
C1665 N1673 1.427 . S
C1666 H1657 0.930 . S
C1666 C1664 1.378 . S
C1666 C1667 1.367 . S
C1667 C1666 1.367 . S
C1667 C1669 1.433 . S
C1668 C1664 1.350 . S
C1668 C1665 1.463 1_654 S
C1668 N1672 1.427 . S
C1669 H1659 0.929 . S
C1669 C1667 1.433 . S
C1669 N1672 1.384 . S
C1670 H1661 0.929 1_455 S
C1670 C1662 1.378 . S
C1670 C1665 1.350 . S
C1671 H1658 0.929 . S
C1671 C1663 1.433 . S
C1671 N1673 1.384 . S
N1672 C1668 1.427 . S
N1672 C1669 1.384 . S
N1673 C1665 1.427 . S
N1673 C1671 1.384 . S
H1674 C1680 0.930 . S
H1675 C1684 0.930 . S
H1676 C1689 0.929 . S
H1677 C1687 0.929 . S
H1678 C1682 0.929 . S
H1679 C1688 0.929 . S
C1680 H1674 0.930 . S
C1680 C1681 1.367 . S
C1680 C1688 1.378 . S
C1681 C1680 1.367 . S
C1681 C1689 1.433 . S
C1682 H1678 0.929 . S
C1682 C1684 1.378 . S
C1682 C1686 1.350 . S
C1683 C1686 1.463 1_554 S
C1683 C1688 1.350 . S
C1683 N1691 1.427 . S
C1684 H1675 0.930 . S
C1684 C1682 1.378 . S
C1684 C1685 1.367 . S
C1685 C1684 1.367 . S
C1685 C1687 1.433 . S
C1686 C1682 1.350 . S
C1686 C1683 1.463 1_556 S
C1686 N1690 1.427 . S
C1687 H1677 0.929 . S
C1687 C1685 1.433 . S
C1687 N1690 1.384 . S
C1688 H1679 0.929 . S
C1688 C1680 1.378 . S
C1688 C1683 1.350 . S
C1689 H1676 0.929 . S
C1689 C1681 1.433 . S
C1689 N1691 1.384 . S
N1690 C1686 1.427 . S
N1690 C1687 1.384 . S
N1691 C1683 1.427 . S
N1691 C1689 1.384 . S
H1692 C1698 0.916 1_565 S
H1693 C1702 0.916 1_545 S
H1694 C1707 0.929 . S
H1695 C1705 0.929 . S
H1696 C1700 0.929 . S
H1697 C1706 0.929 . S
C1698 H1692 0.916 1_545 S
C1698 C1699 1.414 . S
C1698 C1706 1.353 1_545 S
C1699 C1698 1.414 . S
C1699 C1707 1.433 . S
C1700 H1696 0.929 . S
C1700 C1702 1.353 1_545 S
C1700 C1704 1.350 1_545 S
C1701 C1704 1.463 1_544 S
C1701 C1706 1.350 1_545 S
C1701 N1709 1.427 . S
C1702 H1693 0.916 1_565 S
C1702 C1700 1.353 1_565 S
C1702 C1703 1.412 . S
C1703 C1702 1.412 . S
C1703 C1705 1.433 . S
C1704 C1700 1.350 1_565 S
C1704 C1701 1.463 1_566 S
C1704 N1708 1.427 . S
C1705 H1695 0.929 . S
C1705 C1703 1.433 . S
C1705 N1708 1.384 . S
C1706 H1697 0.929 . S
C1706 C1698 1.353 1_565 S
C1706 C1701 1.350 1_565 S
C1707 H1694 0.929 . S
C1707 C1699 1.433 . S
C1707 N1709 1.384 . S
N1708 C1704 1.427 . S
N1708 C1705 1.384 . S
N1709 C1701 1.427 . S
N1709 C1707 1.384 . S
H1710 C1716 0.930 . S
H1711 C1720 0.930 . S
H1712 C1725 0.929 1_545 S
H1713 C1723 0.929 1_565 S
H1714 C1718 0.929 . S
H1715 C1724 0.929 . S
C1716 H1710 0.930 . S
C1716 C1717 1.367 . S
C1716 C1724 1.378 . S
C1717 C1716 1.367 . S
C1717 C1725 1.433 . S
C1718 H1714 0.929 . S
C1718 C1720 1.378 . S
C1718 C1722 1.350 . S
C1719 C1722 1.463 1_566 S
C1719 C1724 1.350 . S
C1719 N1727 1.427 1_565 S
C1720 H1711 0.930 . S
C1720 C1718 1.378 . S
C1720 C1721 1.367 . S
C1721 C1720 1.367 . S
C1721 C1723 1.433 . S
C1722 C1718 1.350 . S
C1722 C1719 1.463 1_544 S
C1722 N1726 1.427 1_545 S
C1723 H1713 0.929 1_545 S
C1723 C1721 1.433 . S
C1723 N1726 1.384 1_545 S
C1724 H1715 0.929 . S
C1724 C1716 1.378 . S
C1724 C1719 1.350 . S
C1725 H1712 0.929 1_565 S
C1725 C1717 1.433 . S
C1725 N1727 1.384 1_565 S
N1726 C1722 1.427 1_565 S
N1726 C1723 1.384 1_565 S
N1727 C1719 1.427 1_545 S
N1727 C1725 1.384 1_545 S
H1728 C1734 0.930 . S
H1729 C1738 0.930 . S
H1730 C1743 0.929 . S
H1731 C1741 0.929 . S
H1732 C1736 0.929 . S
H1733 C1742 0.929 . S
C1734 H1728 0.930 . S
C1734 C1735 1.367 . S
C1734 C1742 1.378 . S
C1735 C1734 1.367 . S
C1735 C1743 1.433 . S
C1736 H1732 0.929 . S
C1736 C1738 1.378 . S
C1736 C1740 1.350 . S
C1737 C1740 1.463 1_456 S
C1737 C1742 1.350 . S
C1737 N1745 1.427 . S
C1738 H1729 0.930 . S
C1738 C1736 1.378 . S
C1738 C1739 1.367 . S
C1739 C1738 1.367 . S
C1739 C1741 1.433 . S
C1740 C1736 1.350 . S
C1740 C1737 1.463 1_654 S
C1740 N1744 1.427 . S
C1741 H1731 0.929 . S
C1741 C1739 1.433 . S
C1741 N1744 1.384 . S
C1742 H1733 0.929 . S
C1742 C1734 1.378 . S
C1742 C1737 1.350 . S
C1743 H1730 0.929 . S
C1743 C1735 1.433 . S
C1743 N1745 1.384 . S
N1744 C1740 1.427 . S
N1744 C1741 1.384 . S
N1745 C1737 1.427 . S
N1745 C1743 1.384 . S
H1746 C1752 0.930 . S
H1747 C1756 0.930 . S
H1748 C1761 0.929 . S
H1749 C1759 0.929 . S
H1750 C1754 0.929 . S
H1751 C1760 0.929 . S
C1752 H1746 0.930 . S
C1752 C1753 1.367 . S
C1752 C1760 1.378 . S
C1753 C1752 1.367 . S
C1753 C1761 1.433 . S
C1754 H1750 0.929 . S
C1754 C1756 1.378 . S
C1754 C1758 1.350 . S
C1755 C1758 1.463 1_554 S
C1755 C1760 1.350 . S
C1755 N1763 1.427 . S
C1756 H1747 0.930 . S
C1756 C1754 1.378 . S
C1756 C1757 1.367 . S
C1757 C1756 1.367 . S
C1757 C1759 1.433 . S
C1758 C1754 1.350 . S
C1758 C1755 1.463 1_556 S
C1758 N1762 1.427 . S
C1759 H1749 0.929 . S
C1759 C1757 1.433 . S
C1759 N1762 1.384 . S
C1760 H1751 0.929 . S
C1760 C1752 1.378 . S
C1760 C1755 1.350 . S
C1761 H1748 0.929 . S
C1761 C1753 1.433 . S
C1761 N1763 1.384 . S
N1762 C1758 1.427 . S
N1762 C1759 1.384 . S
N1763 C1755 1.427 . S
N1763 C1761 1.384 . S
C475 C10 1.449 . S
C479 C147 1.450 . S
C493 C23 1.448 . S
C497 C121 1.452 . S
C511 C140 1.447 . S
C515 C30 1.452 . S
C529 C43 1.449 . S
C533 C101 1.449 . S
C547 C108 1.451 . S
C551 C56 1.448 . S
C565 C75 1.447 . S
C569 C82 1.452 . S
C583 C303 1.447 . S
C587 C160 1.452 . S
C601 C179 1.452 . S
C605 C283 1.447 . S
C619 C192 1.447 . S
C623 C296 1.452 . S
C637 C251 1.449 . S
C641 C199 1.450 . S
C655 C218 1.446 . S
C659 C264 1.452 . S
C673 C244 1.451 . S
C677 C231 1.448 . S
C691 C316 1.447 . S
C695 C459 1.452 . S
C709 C439 1.451 . S
C713 C335 1.448 . S
C727 C446 1.449 . S
C731 C342 1.450 . S
C745 C413 1.450 . S
C749 C355 1.449 . S
C763 C426 1.452 . S
C767 C368 1.447 . S
C781 C400 1.449 . S
C785 C381 1.450 . S
C799 C3 1.384 . S
C803 C57 1.382 . S
C817 C68 1.380 . S
C821 C16 1.384 . S
C835 C31 1.377 . S
C839 C44 1.378 . S
C853 C83 1.384 . S
C857 C133 1.380 . S
C871 C94 1.378 . S
C875 C148 1.378 . S
C889 C109 1.377 . S
C893 C122 1.379 . S
C907 C211 1.382 . S
C911 C161 1.384 . S
C925 C224 1.377 . S
C929 C172 1.379 . S
C943 C185 1.377 . S
C947 C200 1.377 . S
C961 C289 1.383 . S
C965 C237 1.384 . S
C979 C304 1.381 . S
C983 C252 1.385 . S
C997 C265 1.384 . S
C1001 C276 1.382 . S
C1015 C369 1.383 . S
C1019 C317 1.379 . S
C1033 C328 1.379 . S
C1037 C382 1.377 . S
C1051 C343 1.382 . S
C1055 C356 1.385 . S
C1069 C447 1.381 . S
C1073 C393 1.384 . S
C1087 C406 1.383 . S
C1091 C460 1.385 . S
C1105 C432 1.384 . S
C1109 C419 1.383 . S
C1123 C380 1.309 . S
C1127 C5 1.306 . S
C1141 C18 1.306 . S
C1145 C354 1.308 . S
C1159 C29 1.305 . S
C1163 C367 1.309 . S
C1177 C42 1.310 . S
C1181 C174 1.306 . S
C1195 C187 1.309 . S
C1199 C55 1.305 . S
C1213 C159 1.310 . S
C1217 C70 1.310 . S
C1231 C81 1.311 . S
C1235 C302 1.307 . S
C1249 C96 1.308 . S
C1253 C278 1.311 . S
C1267 C107 1.309 . S
C1271 C291 1.306 . S
C1285 C408 1.310 . S
C1289 C120 1.307 . S
C1303 C421 1.308 . S
C1307 C135 1.310 . S
C1321 C146 1.306 . S
C1325 C395 1.307 . S
C1339 C330 1.309 . S
C1343 C198 1.310 . S
C1357 C213 1.308 . S
C1361 C341 1.305 . S
C1375 C315 1.308 . S
C1379 C226 1.311 . S
C1393 C458 1.306 . S
C1397 C239 1.308 . S
C1411 C250 1.306 . S
C1415 C434 1.310 . S
C1429 C263 1.309 . S
C1433 C445 1.310 . S
C1447 C4 1.531 . S
C1451 C387 1.533 . S
C1465 C361 1.530 . S
C1469 C17 1.532 . S
C1483 C36 1.529 . S
C1487 C374 1.532 . S
C1501 C173 1.530 . S
C1505 C49 1.532 . S
C1519 C62 1.531 . S
C1523 C186 1.529 . S
C1537 C69 1.531 . S
C1541 C166 1.533 . S
C1555 C309 1.530 . S
C1559 C88 1.532 . S
C1573 C95 1.530 . S
C1577 C277 1.532 . S
C1591 C114 1.532 . S
C1595 C290 1.529 . S
C1609 C127 1.531 . S
C1613 C407 1.533 . S
C1627 C420 1.529 . S
C1631 C134 1.531 . S
C1645 C153 1.530 . S
C1649 C394 1.531 . S
C1663 C329 1.532 . S
C1667 C205 1.529 . S
C1681 C212 1.529 . S
C1685 C348 1.532 . S
C1699 C225 1.531 . S
C1703 C322 1.530 . S
C1717 C465 1.533 . S
C1721 C238 1.531 . S
C1735 C433 1.532 . S
C1739 C257 1.529 . S
C1753 C270 1.529 . S
C1757 C452 1.532 . S
