# Generated by pormake.
# Topology ulh, (4)-cn, num edge types: 1
# Building blocks:
#     Node 0, Type 0, BuildingBlock: GALJAG_clean_sbu_0, # of connection points: 4
#     Node 1, Type 0, BuildingBlock: GALJAG_clean_sbu_0, # of connection points: 4
#     Node 2, Type 0, BuildingBlock: GALJAG_clean_sbu_0, # of connection points: 4
#     Node 3, Type 0, BuildingBlock: GALJAG_clean_sbu_0, # of connection points: 4
#     Node 4, Type 0, BuildingBlock: GALJAG_clean_sbu_0, # of connection points: 4
#     Node 5, Type 0, BuildingBlock: GALJAG_clean_sbu_0, # of connection points: 4
#     Node 6, Type 0, BuildingBlock: GALJAG_clean_sbu_0, # of connection points: 4
#     Node 7, Type 0, BuildingBlock: GALJAG_clean_sbu_0, # of connection points: 4
#     Node 8, Type 0, BuildingBlock: GALJAG_clean_sbu_0, # of connection points: 4
#     Node 9, Type 0, BuildingBlock: GALJAG_clean_sbu_0, # of connection points: 4
#     Node 10, Type 0, BuildingBlock: GALJAG_clean_sbu_0, # of connection points: 4
#     Node 11, Type 0, BuildingBlock: GALJAG_clean_sbu_0, # of connection points: 4
#     Node 12, Type 0, BuildingBlock: GALJAG_clean_sbu_0, # of connection points: 4
#     Node 13, Type 0, BuildingBlock: GALJAG_clean_sbu_0, # of connection points: 4
#     Node 14, Type 0, BuildingBlock: GALJAG_clean_sbu_0, # of connection points: 4
#     Node 15, Type 0, BuildingBlock: GALJAG_clean_sbu_0, # of connection points: 4
#     Node 16, Type 0, BuildingBlock: GALJAG_clean_sbu_0, # of connection points: 4
#     Node 17, Type 0, BuildingBlock: GALJAG_clean_sbu_0, # of connection points: 4
#     Node 18, Type 0, BuildingBlock: GALJAG_clean_sbu_0, # of connection points: 4
#     Node 19, Type 0, BuildingBlock: GALJAG_clean_sbu_0, # of connection points: 4
#     Node 20, Type 0, BuildingBlock: GALJAG_clean_sbu_0, # of connection points: 4
#     Node 21, Type 0, BuildingBlock: GALJAG_clean_sbu_0, # of connection points: 4
#     Node 22, Type 0, BuildingBlock: GALJAG_clean_sbu_0, # of connection points: 4
#     Node 23, Type 0, BuildingBlock: GALJAG_clean_sbu_0, # of connection points: 4
#     Node 24, Type 0, BuildingBlock: GALJAG_clean_sbu_0, # of connection points: 4
#     Node 25, Type 0, BuildingBlock: GALJAG_clean_sbu_0, # of connection points: 4
#     Node 26, Type 0, BuildingBlock: GALJAG_clean_sbu_0, # of connection points: 4
#     Node 27, Type 0, BuildingBlock: GALJAG_clean_sbu_0, # of connection points: 4
#     Node 28, Type 0, BuildingBlock: GALJAG_clean_sbu_0, # of connection points: 4
#     Node 29, Type 0, BuildingBlock: GALJAG_clean_sbu_0, # of connection points: 4
#     Node 30, Type 0, BuildingBlock: GALJAG_clean_sbu_0, # of connection points: 4
#     Node 31, Type 0, BuildingBlock: GALJAG_clean_sbu_0, # of connection points: 4
#     Node 32, Type 0, BuildingBlock: GALJAG_clean_sbu_0, # of connection points: 4
#     Node 33, Type 0, BuildingBlock: GALJAG_clean_sbu_0, # of connection points: 4
#     Node 34, Type 0, BuildingBlock: GALJAG_clean_sbu_0, # of connection points: 4
#     Node 35, Type 0, BuildingBlock: GALJAG_clean_sbu_0, # of connection points: 4
#     Node 36, Type 0, BuildingBlock: GALJAG_clean_sbu_0, # of connection points: 4
#     Node 37, Type 0, BuildingBlock: GALJAG_clean_sbu_0, # of connection points: 4
#     Node 38, Type 0, BuildingBlock: GALJAG_clean_sbu_0, # of connection points: 4
#     Node 39, Type 0, BuildingBlock: GALJAG_clean_sbu_0, # of connection points: 4
#     Node 40, Type 0, BuildingBlock: GALJAG_clean_sbu_0, # of connection points: 4
#     Node 41, Type 0, BuildingBlock: GALJAG_clean_sbu_0, # of connection points: 4
#     Node 42, Type 0, BuildingBlock: GALJAG_clean_sbu_0, # of connection points: 4
#     Node 43, Type 0, BuildingBlock: GALJAG_clean_sbu_0, # of connection points: 4
#     Node 44, Type 0, BuildingBlock: GALJAG_clean_sbu_0, # of connection points: 4
#     Node 45, Type 0, BuildingBlock: GALJAG_clean_sbu_0, # of connection points: 4
#     Node 46, Type 0, BuildingBlock: GALJAG_clean_sbu_0, # of connection points: 4
#     Node 47, Type 0, BuildingBlock: GALJAG_clean_sbu_0, # of connection points: 4
#     Node 48, Type 0, BuildingBlock: GALJAG_clean_sbu_0, # of connection points: 4
#     Node 49, Type 0, BuildingBlock: GALJAG_clean_sbu_0, # of connection points: 4
#     Node 50, Type 0, BuildingBlock: GALJAG_clean_sbu_0, # of connection points: 4
#     Node 51, Type 0, BuildingBlock: GALJAG_clean_sbu_0, # of connection points: 4
#     Node 52, Type 0, BuildingBlock: GALJAG_clean_sbu_0, # of connection points: 4
#     Node 53, Type 0, BuildingBlock: GALJAG_clean_sbu_0, # of connection points: 4
#     Node 54, Type 0, BuildingBlock: GALJAG_clean_sbu_0, # of connection points: 4
#     Node 55, Type 0, BuildingBlock: GALJAG_clean_sbu_0, # of connection points: 4
#     Node 56, Type 0, BuildingBlock: GALJAG_clean_sbu_0, # of connection points: 4
#     Node 57, Type 0, BuildingBlock: GALJAG_clean_sbu_0, # of connection points: 4
#     Node 58, Type 0, BuildingBlock: GALJAG_clean_sbu_0, # of connection points: 4
#     Node 59, Type 0, BuildingBlock: GALJAG_clean_sbu_0, # of connection points: 4
#     Node 60, Type 0, BuildingBlock: GALJAG_clean_sbu_0, # of connection points: 4
#     Node 61, Type 0, BuildingBlock: GALJAG_clean_sbu_0, # of connection points: 4
#     Node 62, Type 0, BuildingBlock: GALJAG_clean_sbu_0, # of connection points: 4
#     Node 63, Type 0, BuildingBlock: GALJAG_clean_sbu_0, # of connection points: 4
#     Node 64, Type 0, BuildingBlock: GALJAG_clean_sbu_0, # of connection points: 4
#     Node 65, Type 0, BuildingBlock: GALJAG_clean_sbu_0, # of connection points: 4
#     Node 66, Type 0, BuildingBlock: GALJAG_clean_sbu_0, # of connection points: 4
#     Node 67, Type 0, BuildingBlock: GALJAG_clean_sbu_0, # of connection points: 4
#     Node 68, Type 0, BuildingBlock: GALJAG_clean_sbu_0, # of connection points: 4
#     Node 69, Type 0, BuildingBlock: GALJAG_clean_sbu_0, # of connection points: 4
#     Node 70, Type 0, BuildingBlock: GALJAG_clean_sbu_0, # of connection points: 4
#     Node 71, Type 0, BuildingBlock: GALJAG_clean_sbu_0, # of connection points: 4
#     Node 72, Type 0, BuildingBlock: GALJAG_clean_sbu_0, # of connection points: 4
#     Node 73, Type 0, BuildingBlock: GALJAG_clean_sbu_0, # of connection points: 4
#     Node 74, Type 0, BuildingBlock: GALJAG_clean_sbu_0, # of connection points: 4
#     Node 75, Type 0, BuildingBlock: GALJAG_clean_sbu_0, # of connection points: 4
#     Node 76, Type 0, BuildingBlock: GALJAG_clean_sbu_0, # of connection points: 4
#     Node 77, Type 0, BuildingBlock: GALJAG_clean_sbu_0, # of connection points: 4
#     Node 78, Type 0, BuildingBlock: GALJAG_clean_sbu_0, # of connection points: 4
#     Node 79, Type 0, BuildingBlock: GALJAG_clean_sbu_0, # of connection points: 4
#     Node 80, Type 0, BuildingBlock: GALJAG_clean_sbu_0, # of connection points: 4
#     Node 81, Type 0, BuildingBlock: GALJAG_clean_sbu_0, # of connection points: 4
#     Node 82, Type 0, BuildingBlock: GALJAG_clean_sbu_0, # of connection points: 4
#     Node 83, Type 0, BuildingBlock: GALJAG_clean_sbu_0, # of connection points: 4
#     Node 84, Type 0, BuildingBlock: GALJAG_clean_sbu_0, # of connection points: 4
#     Node 85, Type 0, BuildingBlock: GALJAG_clean_sbu_0, # of connection points: 4
#     Node 86, Type 0, BuildingBlock: GALJAG_clean_sbu_0, # of connection points: 4
#     Node 87, Type 0, BuildingBlock: GALJAG_clean_sbu_0, # of connection points: 4
#     Node 88, Type 0, BuildingBlock: GALJAG_clean_sbu_0, # of connection points: 4
#     Node 89, Type 0, BuildingBlock: GALJAG_clean_sbu_0, # of connection points: 4
#     Node 90, Type 0, BuildingBlock: GALJAG_clean_sbu_0, # of connection points: 4
#     Node 91, Type 0, BuildingBlock: GALJAG_clean_sbu_0, # of connection points: 4
#     Node 92, Type 0, BuildingBlock: GALJAG_clean_sbu_0, # of connection points: 4
#     Node 93, Type 0, BuildingBlock: GALJAG_clean_sbu_0, # of connection points: 4
#     Node 94, Type 0, BuildingBlock: GALJAG_clean_sbu_0, # of connection points: 4
#     Node 95, Type 0, BuildingBlock: GALJAG_clean_sbu_0, # of connection points: 4
#     Edge 96, Type (0, 0), BuildingBlock: OJICUG_clean_linker_0, # of connection points: 2
#     Edge 97, Type (0, 0), BuildingBlock: OJICUG_clean_linker_0, # of connection points: 2
#     Edge 98, Type (0, 0), BuildingBlock: OJICUG_clean_linker_0, # of connection points: 2
#     Edge 99, Type (0, 0), BuildingBlock: OJICUG_clean_linker_0, # of connection points: 2
#     Edge 100, Type (0, 0), BuildingBlock: OJICUG_clean_linker_0, # of connection points: 2
#     Edge 101, Type (0, 0), BuildingBlock: OJICUG_clean_linker_0, # of connection points: 2
#     Edge 102, Type (0, 0), BuildingBlock: OJICUG_clean_linker_0, # of connection points: 2
#     Edge 103, Type (0, 0), BuildingBlock: OJICUG_clean_linker_0, # of connection points: 2
#     Edge 104, Type (0, 0), BuildingBlock: OJICUG_clean_linker_0, # of connection points: 2
#     Edge 105, Type (0, 0), BuildingBlock: OJICUG_clean_linker_0, # of connection points: 2
#     Edge 106, Type (0, 0), BuildingBlock: OJICUG_clean_linker_0, # of connection points: 2
#     Edge 107, Type (0, 0), BuildingBlock: OJICUG_clean_linker_0, # of connection points: 2
#     Edge 108, Type (0, 0), BuildingBlock: OJICUG_clean_linker_0, # of connection points: 2
#     Edge 109, Type (0, 0), BuildingBlock: OJICUG_clean_linker_0, # of connection points: 2
#     Edge 110, Type (0, 0), BuildingBlock: OJICUG_clean_linker_0, # of connection points: 2
#     Edge 111, Type (0, 0), BuildingBlock: OJICUG_clean_linker_0, # of connection points: 2
#     Edge 112, Type (0, 0), BuildingBlock: OJICUG_clean_linker_0, # of connection points: 2
#     Edge 113, Type (0, 0), BuildingBlock: OJICUG_clean_linker_0, # of connection points: 2
#     Edge 114, Type (0, 0), BuildingBlock: OJICUG_clean_linker_0, # of connection points: 2
#     Edge 115, Type (0, 0), BuildingBlock: OJICUG_clean_linker_0, # of connection points: 2
#     Edge 116, Type (0, 0), BuildingBlock: OJICUG_clean_linker_0, # of connection points: 2
#     Edge 117, Type (0, 0), BuildingBlock: OJICUG_clean_linker_0, # of connection points: 2
#     Edge 118, Type (0, 0), BuildingBlock: OJICUG_clean_linker_0, # of connection points: 2
#     Edge 119, Type (0, 0), BuildingBlock: OJICUG_clean_linker_0, # of connection points: 2
#     Edge 120, Type (0, 0), BuildingBlock: OJICUG_clean_linker_0, # of connection points: 2
#     Edge 121, Type (0, 0), BuildingBlock: OJICUG_clean_linker_0, # of connection points: 2
#     Edge 122, Type (0, 0), BuildingBlock: OJICUG_clean_linker_0, # of connection points: 2
#     Edge 123, Type (0, 0), BuildingBlock: OJICUG_clean_linker_0, # of connection points: 2
#     Edge 124, Type (0, 0), BuildingBlock: OJICUG_clean_linker_0, # of connection points: 2
#     Edge 125, Type (0, 0), BuildingBlock: OJICUG_clean_linker_0, # of connection points: 2
#     Edge 126, Type (0, 0), BuildingBlock: OJICUG_clean_linker_0, # of connection points: 2
#     Edge 127, Type (0, 0), BuildingBlock: OJICUG_clean_linker_0, # of connection points: 2
#     Edge 128, Type (0, 0), BuildingBlock: OJICUG_clean_linker_0, # of connection points: 2
#     Edge 129, Type (0, 0), BuildingBlock: OJICUG_clean_linker_0, # of connection points: 2
#     Edge 130, Type (0, 0), BuildingBlock: OJICUG_clean_linker_0, # of connection points: 2
#     Edge 131, Type (0, 0), BuildingBlock: OJICUG_clean_linker_0, # of connection points: 2
#     Edge 132, Type (0, 0), BuildingBlock: OJICUG_clean_linker_0, # of connection points: 2
#     Edge 133, Type (0, 0), BuildingBlock: OJICUG_clean_linker_0, # of connection points: 2
#     Edge 134, Type (0, 0), BuildingBlock: OJICUG_clean_linker_0, # of connection points: 2
#     Edge 135, Type (0, 0), BuildingBlock: OJICUG_clean_linker_0, # of connection points: 2
#     Edge 136, Type (0, 0), BuildingBlock: OJICUG_clean_linker_0, # of connection points: 2
#     Edge 137, Type (0, 0), BuildingBlock: OJICUG_clean_linker_0, # of connection points: 2
#     Edge 138, Type (0, 0), BuildingBlock: OJICUG_clean_linker_0, # of connection points: 2
#     Edge 139, Type (0, 0), BuildingBlock: OJICUG_clean_linker_0, # of connection points: 2
#     Edge 140, Type (0, 0), BuildingBlock: OJICUG_clean_linker_0, # of connection points: 2
#     Edge 141, Type (0, 0), BuildingBlock: OJICUG_clean_linker_0, # of connection points: 2
#     Edge 142, Type (0, 0), BuildingBlock: OJICUG_clean_linker_0, # of connection points: 2
#     Edge 143, Type (0, 0), BuildingBlock: OJICUG_clean_linker_0, # of connection points: 2
#     Edge 144, Type (0, 0), BuildingBlock: OJICUG_clean_linker_0, # of connection points: 2
#     Edge 145, Type (0, 0), BuildingBlock: OJICUG_clean_linker_0, # of connection points: 2
#     Edge 146, Type (0, 0), BuildingBlock: OJICUG_clean_linker_0, # of connection points: 2
#     Edge 147, Type (0, 0), BuildingBlock: OJICUG_clean_linker_0, # of connection points: 2
#     Edge 148, Type (0, 0), BuildingBlock: OJICUG_clean_linker_0, # of connection points: 2
#     Edge 149, Type (0, 0), BuildingBlock: OJICUG_clean_linker_0, # of connection points: 2
#     Edge 150, Type (0, 0), BuildingBlock: OJICUG_clean_linker_0, # of connection points: 2
#     Edge 151, Type (0, 0), BuildingBlock: OJICUG_clean_linker_0, # of connection points: 2
#     Edge 152, Type (0, 0), BuildingBlock: OJICUG_clean_linker_0, # of connection points: 2
#     Edge 153, Type (0, 0), BuildingBlock: OJICUG_clean_linker_0, # of connection points: 2
#     Edge 154, Type (0, 0), BuildingBlock: OJICUG_clean_linker_0, # of connection points: 2
#     Edge 155, Type (0, 0), BuildingBlock: OJICUG_clean_linker_0, # of connection points: 2
#     Edge 156, Type (0, 0), BuildingBlock: OJICUG_clean_linker_0, # of connection points: 2
#     Edge 157, Type (0, 0), BuildingBlock: OJICUG_clean_linker_0, # of connection points: 2
#     Edge 158, Type (0, 0), BuildingBlock: OJICUG_clean_linker_0, # of connection points: 2
#     Edge 159, Type (0, 0), BuildingBlock: OJICUG_clean_linker_0, # of connection points: 2
#     Edge 160, Type (0, 0), BuildingBlock: OJICUG_clean_linker_0, # of connection points: 2
#     Edge 161, Type (0, 0), BuildingBlock: OJICUG_clean_linker_0, # of connection points: 2
#     Edge 162, Type (0, 0), BuildingBlock: OJICUG_clean_linker_0, # of connection points: 2
#     Edge 163, Type (0, 0), BuildingBlock: OJICUG_clean_linker_0, # of connection points: 2
#     Edge 164, Type (0, 0), BuildingBlock: OJICUG_clean_linker_0, # of connection points: 2
#     Edge 165, Type (0, 0), BuildingBlock: OJICUG_clean_linker_0, # of connection points: 2
#     Edge 166, Type (0, 0), BuildingBlock: OJICUG_clean_linker_0, # of connection points: 2
#     Edge 167, Type (0, 0), BuildingBlock: OJICUG_clean_linker_0, # of connection points: 2
#     Edge 168, Type (0, 0), BuildingBlock: OJICUG_clean_linker_0, # of connection points: 2
#     Edge 169, Type (0, 0), BuildingBlock: OJICUG_clean_linker_0, # of connection points: 2
#     Edge 170, Type (0, 0), BuildingBlock: OJICUG_clean_linker_0, # of connection points: 2
#     Edge 171, Type (0, 0), BuildingBlock: OJICUG_clean_linker_0, # of connection points: 2
#     Edge 172, Type (0, 0), BuildingBlock: OJICUG_clean_linker_0, # of connection points: 2
#     Edge 173, Type (0, 0), BuildingBlock: OJICUG_clean_linker_0, # of connection points: 2
#     Edge 174, Type (0, 0), BuildingBlock: OJICUG_clean_linker_0, # of connection points: 2
#     Edge 175, Type (0, 0), BuildingBlock: OJICUG_clean_linker_0, # of connection points: 2
#     Edge 176, Type (0, 0), BuildingBlock: OJICUG_clean_linker_0, # of connection points: 2
#     Edge 177, Type (0, 0), BuildingBlock: OJICUG_clean_linker_0, # of connection points: 2
#     Edge 178, Type (0, 0), BuildingBlock: OJICUG_clean_linker_0, # of connection points: 2
#     Edge 179, Type (0, 0), BuildingBlock: OJICUG_clean_linker_0, # of connection points: 2
#     Edge 180, Type (0, 0), BuildingBlock: OJICUG_clean_linker_0, # of connection points: 2
#     Edge 181, Type (0, 0), BuildingBlock: OJICUG_clean_linker_0, # of connection points: 2
#     Edge 182, Type (0, 0), BuildingBlock: OJICUG_clean_linker_0, # of connection points: 2
#     Edge 183, Type (0, 0), BuildingBlock: OJICUG_clean_linker_0, # of connection points: 2
#     Edge 184, Type (0, 0), BuildingBlock: OJICUG_clean_linker_0, # of connection points: 2
#     Edge 185, Type (0, 0), BuildingBlock: OJICUG_clean_linker_0, # of connection points: 2
#     Edge 186, Type (0, 0), BuildingBlock: OJICUG_clean_linker_0, # of connection points: 2
#     Edge 187, Type (0, 0), BuildingBlock: OJICUG_clean_linker_0, # of connection points: 2
#     Edge 188, Type (0, 0), BuildingBlock: OJICUG_clean_linker_0, # of connection points: 2
#     Edge 189, Type (0, 0), BuildingBlock: OJICUG_clean_linker_0, # of connection points: 2
#     Edge 190, Type (0, 0), BuildingBlock: OJICUG_clean_linker_0, # of connection points: 2
#     Edge 191, Type (0, 0), BuildingBlock: OJICUG_clean_linker_0, # of connection points: 2
#     Edge 192, Type (0, 0), BuildingBlock: OJICUG_clean_linker_0, # of connection points: 2
#     Edge 193, Type (0, 0), BuildingBlock: OJICUG_clean_linker_0, # of connection points: 2
#     Edge 194, Type (0, 0), BuildingBlock: OJICUG_clean_linker_0, # of connection points: 2
#     Edge 195, Type (0, 0), BuildingBlock: OJICUG_clean_linker_0, # of connection points: 2
#     Edge 196, Type (0, 0), BuildingBlock: OJICUG_clean_linker_0, # of connection points: 2
#     Edge 197, Type (0, 0), BuildingBlock: OJICUG_clean_linker_0, # of connection points: 2
#     Edge 198, Type (0, 0), BuildingBlock: OJICUG_clean_linker_0, # of connection points: 2
#     Edge 199, Type (0, 0), BuildingBlock: OJICUG_clean_linker_0, # of connection points: 2
#     Edge 200, Type (0, 0), BuildingBlock: OJICUG_clean_linker_0, # of connection points: 2
#     Edge 201, Type (0, 0), BuildingBlock: OJICUG_clean_linker_0, # of connection points: 2
#     Edge 202, Type (0, 0), BuildingBlock: OJICUG_clean_linker_0, # of connection points: 2
#     Edge 203, Type (0, 0), BuildingBlock: OJICUG_clean_linker_0, # of connection points: 2
#     Edge 204, Type (0, 0), BuildingBlock: OJICUG_clean_linker_0, # of connection points: 2
#     Edge 205, Type (0, 0), BuildingBlock: OJICUG_clean_linker_0, # of connection points: 2
#     Edge 206, Type (0, 0), BuildingBlock: OJICUG_clean_linker_0, # of connection points: 2
#     Edge 207, Type (0, 0), BuildingBlock: OJICUG_clean_linker_0, # of connection points: 2
#     Edge 208, Type (0, 0), BuildingBlock: OJICUG_clean_linker_0, # of connection points: 2
#     Edge 209, Type (0, 0), BuildingBlock: OJICUG_clean_linker_0, # of connection points: 2
#     Edge 210, Type (0, 0), BuildingBlock: OJICUG_clean_linker_0, # of connection points: 2
#     Edge 211, Type (0, 0), BuildingBlock: OJICUG_clean_linker_0, # of connection points: 2
#     Edge 212, Type (0, 0), BuildingBlock: OJICUG_clean_linker_0, # of connection points: 2
#     Edge 213, Type (0, 0), BuildingBlock: OJICUG_clean_linker_0, # of connection points: 2
#     Edge 214, Type (0, 0), BuildingBlock: OJICUG_clean_linker_0, # of connection points: 2
#     Edge 215, Type (0, 0), BuildingBlock: OJICUG_clean_linker_0, # of connection points: 2
#     Edge 216, Type (0, 0), BuildingBlock: OJICUG_clean_linker_0, # of connection points: 2
#     Edge 217, Type (0, 0), BuildingBlock: OJICUG_clean_linker_0, # of connection points: 2
#     Edge 218, Type (0, 0), BuildingBlock: OJICUG_clean_linker_0, # of connection points: 2
#     Edge 219, Type (0, 0), BuildingBlock: OJICUG_clean_linker_0, # of connection points: 2
#     Edge 220, Type (0, 0), BuildingBlock: OJICUG_clean_linker_0, # of connection points: 2
#     Edge 221, Type (0, 0), BuildingBlock: OJICUG_clean_linker_0, # of connection points: 2
#     Edge 222, Type (0, 0), BuildingBlock: OJICUG_clean_linker_0, # of connection points: 2
#     Edge 223, Type (0, 0), BuildingBlock: OJICUG_clean_linker_0, # of connection points: 2
#     Edge 224, Type (0, 0), BuildingBlock: OJICUG_clean_linker_0, # of connection points: 2
#     Edge 225, Type (0, 0), BuildingBlock: OJICUG_clean_linker_0, # of connection points: 2
#     Edge 226, Type (0, 0), BuildingBlock: OJICUG_clean_linker_0, # of connection points: 2
#     Edge 227, Type (0, 0), BuildingBlock: OJICUG_clean_linker_0, # of connection points: 2
#     Edge 228, Type (0, 0), BuildingBlock: OJICUG_clean_linker_0, # of connection points: 2
#     Edge 229, Type (0, 0), BuildingBlock: OJICUG_clean_linker_0, # of connection points: 2
#     Edge 230, Type (0, 0), BuildingBlock: OJICUG_clean_linker_0, # of connection points: 2
#     Edge 231, Type (0, 0), BuildingBlock: OJICUG_clean_linker_0, # of connection points: 2
#     Edge 232, Type (0, 0), BuildingBlock: OJICUG_clean_linker_0, # of connection points: 2
#     Edge 233, Type (0, 0), BuildingBlock: OJICUG_clean_linker_0, # of connection points: 2
#     Edge 234, Type (0, 0), BuildingBlock: OJICUG_clean_linker_0, # of connection points: 2
#     Edge 235, Type (0, 0), BuildingBlock: OJICUG_clean_linker_0, # of connection points: 2
#     Edge 236, Type (0, 0), BuildingBlock: OJICUG_clean_linker_0, # of connection points: 2
#     Edge 237, Type (0, 0), BuildingBlock: OJICUG_clean_linker_0, # of connection points: 2
#     Edge 238, Type (0, 0), BuildingBlock: OJICUG_clean_linker_0, # of connection points: 2
#     Edge 239, Type (0, 0), BuildingBlock: OJICUG_clean_linker_0, # of connection points: 2
#     Edge 240, Type (0, 0), BuildingBlock: OJICUG_clean_linker_0, # of connection points: 2
#     Edge 241, Type (0, 0), BuildingBlock: OJICUG_clean_linker_0, # of connection points: 2
#     Edge 242, Type (0, 0), BuildingBlock: OJICUG_clean_linker_0, # of connection points: 2
#     Edge 243, Type (0, 0), BuildingBlock: OJICUG_clean_linker_0, # of connection points: 2
#     Edge 244, Type (0, 0), BuildingBlock: OJICUG_clean_linker_0, # of connection points: 2
#     Edge 245, Type (0, 0), BuildingBlock: OJICUG_clean_linker_0, # of connection points: 2
#     Edge 246, Type (0, 0), BuildingBlock: OJICUG_clean_linker_0, # of connection points: 2
#     Edge 247, Type (0, 0), BuildingBlock: OJICUG_clean_linker_0, # of connection points: 2
#     Edge 248, Type (0, 0), BuildingBlock: OJICUG_clean_linker_0, # of connection points: 2
#     Edge 249, Type (0, 0), BuildingBlock: OJICUG_clean_linker_0, # of connection points: 2
#     Edge 250, Type (0, 0), BuildingBlock: OJICUG_clean_linker_0, # of connection points: 2
#     Edge 251, Type (0, 0), BuildingBlock: OJICUG_clean_linker_0, # of connection points: 2
#     Edge 252, Type (0, 0), BuildingBlock: OJICUG_clean_linker_0, # of connection points: 2
#     Edge 253, Type (0, 0), BuildingBlock: OJICUG_clean_linker_0, # of connection points: 2
#     Edge 254, Type (0, 0), BuildingBlock: OJICUG_clean_linker_0, # of connection points: 2
#     Edge 255, Type (0, 0), BuildingBlock: OJICUG_clean_linker_0, # of connection points: 2
#     Edge 256, Type (0, 0), BuildingBlock: OJICUG_clean_linker_0, # of connection points: 2
#     Edge 257, Type (0, 0), BuildingBlock: OJICUG_clean_linker_0, # of connection points: 2
#     Edge 258, Type (0, 0), BuildingBlock: OJICUG_clean_linker_0, # of connection points: 2
#     Edge 259, Type (0, 0), BuildingBlock: OJICUG_clean_linker_0, # of connection points: 2
#     Edge 260, Type (0, 0), BuildingBlock: OJICUG_clean_linker_0, # of connection points: 2
#     Edge 261, Type (0, 0), BuildingBlock: OJICUG_clean_linker_0, # of connection points: 2
#     Edge 262, Type (0, 0), BuildingBlock: OJICUG_clean_linker_0, # of connection points: 2
#     Edge 263, Type (0, 0), BuildingBlock: OJICUG_clean_linker_0, # of connection points: 2
#     Edge 264, Type (0, 0), BuildingBlock: OJICUG_clean_linker_0, # of connection points: 2
#     Edge 265, Type (0, 0), BuildingBlock: OJICUG_clean_linker_0, # of connection points: 2
#     Edge 266, Type (0, 0), BuildingBlock: OJICUG_clean_linker_0, # of connection points: 2
#     Edge 267, Type (0, 0), BuildingBlock: OJICUG_clean_linker_0, # of connection points: 2
#     Edge 268, Type (0, 0), BuildingBlock: OJICUG_clean_linker_0, # of connection points: 2
#     Edge 269, Type (0, 0), BuildingBlock: OJICUG_clean_linker_0, # of connection points: 2
#     Edge 270, Type (0, 0), BuildingBlock: OJICUG_clean_linker_0, # of connection points: 2
#     Edge 271, Type (0, 0), BuildingBlock: OJICUG_clean_linker_0, # of connection points: 2
#     Edge 272, Type (0, 0), BuildingBlock: OJICUG_clean_linker_0, # of connection points: 2
#     Edge 273, Type (0, 0), BuildingBlock: OJICUG_clean_linker_0, # of connection points: 2
#     Edge 274, Type (0, 0), BuildingBlock: OJICUG_clean_linker_0, # of connection points: 2
#     Edge 275, Type (0, 0), BuildingBlock: OJICUG_clean_linker_0, # of connection points: 2
#     Edge 276, Type (0, 0), BuildingBlock: OJICUG_clean_linker_0, # of connection points: 2
#     Edge 277, Type (0, 0), BuildingBlock: OJICUG_clean_linker_0, # of connection points: 2
#     Edge 278, Type (0, 0), BuildingBlock: OJICUG_clean_linker_0, # of connection points: 2
#     Edge 279, Type (0, 0), BuildingBlock: OJICUG_clean_linker_0, # of connection points: 2
#     Edge 280, Type (0, 0), BuildingBlock: OJICUG_clean_linker_0, # of connection points: 2
#     Edge 281, Type (0, 0), BuildingBlock: OJICUG_clean_linker_0, # of connection points: 2
#     Edge 282, Type (0, 0), BuildingBlock: OJICUG_clean_linker_0, # of connection points: 2
#     Edge 283, Type (0, 0), BuildingBlock: OJICUG_clean_linker_0, # of connection points: 2
#     Edge 284, Type (0, 0), BuildingBlock: OJICUG_clean_linker_0, # of connection points: 2
#     Edge 285, Type (0, 0), BuildingBlock: OJICUG_clean_linker_0, # of connection points: 2
#     Edge 286, Type (0, 0), BuildingBlock: OJICUG_clean_linker_0, # of connection points: 2
#     Edge 287, Type (0, 0), BuildingBlock: OJICUG_clean_linker_0, # of connection points: 2
# Relax obj value: 0.113
# Max RMSD: 0.165
# Mean RMSD: 0.164
data_MOF--net-ulh--node1-GALJAG_clean_sbu_0--edge1-OJICUG_clean_linker_0
_symmetry_space_group_name_H-M    P1
_symmetry_Int_Tables_number       1
_symmetry_cell_setting            triclinic
loop_
_symmetry_equiv_pos_as_xyz
'x, y, z'
_cell_length_a     58.922301
_cell_length_b     58.90292
_cell_length_c     58.908739
_cell_angle_alpha  90.00945
_cell_angle_beta   90.001166
_cell_angle_gamma 89.989539
loop_
_atom_site_label
_atom_site_type_symbol
_atom_site_fract_x
_atom_site_fract_y
_atom_site_fract_z
_atom_type_partial_charge
In0 In 0.0491 0.30833 0.07899 0.0
O1 O 0.05303 0.27074 0.08944 0.0
O2 O 0.02702 0.29119 0.10439 0.0
C3 C 0.08794 0.32247 0.05974 0.0
C4 C 0.0214 0.30537 0.04287 0.0
C5 C 0.04874 0.33872 0.11311 0.0
O6 O 0.08764 0.30598 0.07352 0.0
O7 O 0.06877 0.33068 0.05513 0.0
O8 O 0.03365 0.33855 0.09781 0.0
O9 O 0.06392 0.32376 0.11098 0.0
C10 C 0.03688 0.27222 0.10357 0.0
O11 O 0.02153 0.32236 0.05599 0.0
O12 O 0.03475 0.28951 0.04838 0.0
In13 In 0.94362 0.29897 0.33048 0.0
O14 O 0.97969 0.30567 0.34425 0.0
O15 O 0.96729 0.27166 0.34173 0.0
C16 C 0.92756 0.3372 0.31141 0.0
C17 C 0.94374 0.27416 0.29239 0.0
C18 C 0.91751 0.29556 0.36798 0.0
O19 O 0.94613 0.33718 0.32225 0.0
O20 O 0.91778 0.31826 0.31024 0.0
O21 O 0.91626 0.28157 0.35178 0.0
O22 O 0.932 0.31105 0.36528 0.0
C23 C 0.98337 0.28468 0.34715 0.0
O24 O 0.92806 0.27269 0.30701 0.0
O25 O 0.95944 0.28806 0.29706 0.0
In26 In 0.94499 0.19199 0.57636 0.0
O27 O 0.94216 0.22971 0.58706 0.0
O28 O 0.96711 0.20823 0.6023 0.0
C29 C 0.9059 0.17904 0.55651 0.0
C30 C 0.97327 0.19463 0.54064 0.0
C31 C 0.94557 0.16133 0.61023 0.0
O32 O 0.9064 0.19507 0.57083 0.0
O33 O 0.92496 0.17063 0.55184 0.0
O34 O 0.96058 0.1617 0.59485 0.0
O35 O 0.93016 0.17608 0.60816 0.0
C36 C 0.95802 0.22756 0.60145 0.0
O37 O 0.97216 0.17733 0.55329 0.0
O38 O 0.96053 0.21093 0.54638 0.0
In39 In 0.05907 0.20134 0.83036 0.0
O40 O 0.02269 0.19587 0.84379 0.0
O41 O 0.03659 0.2294 0.84213 0.0
C42 C 0.07635 0.16233 0.8143 0.0
C43 C 0.05781 0.22391 0.79093 0.0
C44 C 0.08594 0.20553 0.86711 0.0
O45 O 0.05783 0.16256 0.82526 0.0
O46 O 0.08517 0.1815 0.81107 0.0
O47 O 0.08771 0.21846 0.85007 0.0
O48 O 0.07027 0.19104 0.86576 0.0
C49 C 0.0199 0.21695 0.84712 0.0
O50 O 0.0734 0.2269 0.80542 0.0
O51 O 0.04274 0.20959 0.7964 0.0
In52 In 0.05207 0.69045 0.92205 0.0
O53 O 0.02511 0.67507 0.9449 0.0
O54 O 0.03547 0.70909 0.95167 0.0
C55 C 0.05156 0.6592 0.88878 0.0
C56 C 0.03903 0.72589 0.89674 0.0
C57 C 0.09176 0.67823 0.94132 0.0
O58 O 0.03678 0.6596 0.90436 0.0
O59 O 0.06666 0.67432 0.89026 0.0
O60 O 0.09078 0.6938 0.92655 0.0
O61 O 0.07283 0.67016 0.94698 0.0
C62 C 0.02317 0.69244 0.95732 0.0
O63 O 0.05426 0.72832 0.91174 0.0
O64 O 0.03051 0.70634 0.8954 0.0
In65 In 0.55528 0.29801 0.16747 0.0
O66 O 0.51929 0.30462 0.15352 0.0
O67 O 0.5317 0.27062 0.15628 0.0
C68 C 0.57149 0.33616 0.18645 0.0
C69 C 0.55494 0.27373 0.20589 0.0
C70 C 0.58151 0.29466 0.13003 0.0
O71 O 0.55285 0.33622 0.17571 0.0
O72 O 0.58127 0.31721 0.1875 0.0
O73 O 0.5827 0.28061 0.1462 0.0
O74 O 0.56699 0.31013 0.13272 0.0
C75 C 0.51564 0.28361 0.15074 0.0
O76 O 0.57062 0.27191 0.1913 0.0
O77 O 0.53933 0.28765 0.20097 0.0
In78 In 0.94739 0.80602 0.41998 0.0
O79 O 0.97422 0.82075 0.44338 0.0
O80 O 0.96221 0.78732 0.45048 0.0
C81 C 0.94753 0.83674 0.38617 0.0
C82 C 0.96165 0.77082 0.39492 0.0
C83 C 0.90809 0.81887 0.43954 0.0
O84 O 0.96238 0.83674 0.40171 0.0
O85 O 0.93254 0.82154 0.388 0.0
O86 O 0.90876 0.80267 0.4254 0.0
O87 O 0.92707 0.82748 0.44416 0.0
C88 C 0.97494 0.8036 0.45627 0.0
O89 O 0.94516 0.76844 0.40855 0.0
O90 O 0.97073 0.79018 0.39481 0.0
In91 In 0.43972 0.20133 0.66645 0.0
O92 O 0.42504 0.22784 0.69026 0.0
O93 O 0.45561 0.21091 0.70023 0.0
C94 C 0.41418 0.20504 0.62864 0.0
C95 C 0.47984 0.21491 0.65033 0.0
C96 C 0.42183 0.1633 0.68408 0.0
O97 O 0.41257 0.21888 0.64497 0.0
O98 O 0.42889 0.18975 0.6313 0.0
O99 O 0.44071 0.16295 0.67377 0.0
O100 O 0.41276 0.18256 0.6857 0.0
C101 C 0.44048 0.22541 0.705 0.0
O102 O 0.47603 0.19404 0.65384 0.0
O103 O 0.46366 0.22819 0.65481 0.0
In104 In 0.07748 0.04903 0.31 0.0
O105 O 0.09122 0.05289 0.2735 0.0
O106 O 0.08895 0.01999 0.28876 0.0
C107 C 0.06239 0.08864 0.32667 0.0
C108 C 0.03752 0.02748 0.30858 0.0
C109 C 0.1139 0.04456 0.33725 0.0
O110 O 0.07371 0.08794 0.30837 0.0
O111 O 0.05829 0.06964 0.33551 0.0
O112 O 0.09647 0.03219 0.33927 0.0
O113 O 0.11306 0.05867 0.32119 0.0
C114 C 0.09424 0.03165 0.2716 0.0
O115 O 0.05184 0.02424 0.32428 0.0
O116 O 0.0434 0.04158 0.29346 0.0
In117 In 0.19527 0.32608 0.55569 0.0
O118 O 0.22175 0.30231 0.57036 0.0
O119 O 0.21001 0.29569 0.53674 0.0
C120 C 0.19583 0.35977 0.58654 0.0
C121 C 0.20956 0.35141 0.52082 0.0
C122 C 0.15582 0.30673 0.5682 0.0
O123 O 0.21059 0.34415 0.58633 0.0
O124 O 0.18063 0.35802 0.57154 0.0
O125 O 0.15663 0.32102 0.55216 0.0
O126 O 0.17473 0.30189 0.57685 0.0
C127 C 0.22253 0.28961 0.55308 0.0
O128 O 0.1929 0.33801 0.51832 0.0
O129 O 0.21884 0.35107 0.54008 0.0
In130 In 0.91614 0.45001 0.80912 0.0
O131 O 0.90401 0.44363 0.77244 0.0
O132 O 0.904 0.47736 0.786 0.0
C133 C 0.93285 0.41134 0.82657 0.0
C134 C 0.9549 0.47376 0.80868 0.0
C135 C 0.87885 0.4539 0.83536 0.0
O136 O 0.92179 0.41132 0.80812 0.0
O137 O 0.93586 0.43061 0.83527 0.0
O138 O 0.89551 0.46731 0.83699 0.0
O139 O 0.88085 0.43898 0.82015 0.0
C140 C 0.90001 0.46454 0.76933 0.0
O141 O 0.94013 0.47612 0.82411 0.0
O142 O 0.95007 0.45946 0.79338 0.0
In143 In 0.80433 0.17301 0.05734 0.0
O144 O 0.77718 0.19603 0.07206 0.0
O145 O 0.78919 0.20342 0.03871 0.0
C146 C 0.80365 0.13977 0.08861 0.0
C147 C 0.79063 0.14793 0.02203 0.0
C148 C 0.84404 0.19172 0.07011 0.0
O149 O 0.78919 0.15567 0.08848 0.0
O150 O 0.81847 0.14089 0.07318 0.0
O151 O 0.84311 0.17707 0.05442 0.0
O152 O 0.82508 0.19754 0.07801 0.0
C153 C 0.7763 0.20894 0.05495 0.0
O154 O 0.80638 0.16238 0.01957 0.0
O155 O 0.78197 0.14701 0.04155 0.0
In156 In 0.07853 0.9494 0.68929 0.0
O157 O 0.05342 0.97467 0.67489 0.0
O158 O 0.04427 0.95709 0.70537 0.0
C159 C 0.11522 0.95401 0.66242 0.0
C160 C 0.09509 0.96575 0.72826 0.0
C161 C 0.06314 0.91016 0.67195 0.0
O162 O 0.09798 0.96665 0.66057 0.0
O163 O 0.11409 0.93956 0.67814 0.0
O164 O 0.07419 0.91052 0.69042 0.0
O165 O 0.05948 0.92931 0.66324 0.0
C166 C 0.0388 0.97142 0.6903 0.0
O167 O 0.09203 0.94458 0.72577 0.0
O168 O 0.0899 0.97788 0.71141 0.0
In169 In 0.30036 0.32724 0.9402 0.0
O170 O 0.30605 0.34102 0.97644 0.0
O171 O 0.27245 0.33891 0.96287 0.0
C172 C 0.33905 0.30846 0.92504 0.0
C173 C 0.27581 0.28894 0.94055 0.0
C174 C 0.29741 0.36473 0.91395 0.0
O175 O 0.33857 0.31952 0.94348 0.0
O176 O 0.3203 0.30689 0.91494 0.0
O177 O 0.28355 0.34843 0.91233 0.0
O178 O 0.31257 0.36208 0.92879 0.0
C179 C 0.28499 0.34418 0.97938 0.0
O180 O 0.27455 0.30323 0.92454 0.0
O181 O 0.28941 0.29402 0.95639 0.0
In182 In 0.92141 0.55331 0.19043 0.0
O183 O 0.94572 0.52749 0.17554 0.0
O184 O 0.95241 0.53952 0.20908 0.0
C185 C 0.88829 0.5526 0.15909 0.0
C186 C 0.89651 0.53698 0.22473 0.0
C187 C 0.93906 0.59365 0.17816 0.0
O188 O 0.9047 0.53872 0.15871 0.0
O189 O 0.88884 0.56685 0.17508 0.0
O190 O 0.92449 0.5922 0.19391 0.0
O191 O 0.94526 0.57492 0.16999 0.0
C192 C 0.95862 0.5271 0.19269 0.0
O193 O 0.9094 0.55395 0.22786 0.0
O194 O 0.89709 0.52849 0.20511 0.0
In195 In 0.69494 0.17319 0.44233 0.0
O196 O 0.69262 0.16219 0.48 0.0
O197 O 0.71732 0.14719 0.45806 0.0
C198 C 0.65557 0.1925 0.42941 0.0
C199 C 0.72312 0.20899 0.44466 0.0
C200 C 0.69532 0.1398 0.41121 0.0
O201 O 0.65624 0.17803 0.4453 0.0
O202 O 0.67461 0.19775 0.42132 0.0
O203 O 0.71012 0.15537 0.41151 0.0
O204 O 0.68026 0.14135 0.42637 0.0
C205 C 0.70846 0.14783 0.4775 0.0
O206 O 0.72214 0.19606 0.42757 0.0
O207 O 0.71027 0.20352 0.46096 0.0
In208 In 0.30583 0.07632 0.04992 0.0
O209 O 0.26787 0.08603 0.05295 0.0
O210 O 0.28893 0.10224 0.02827 0.0
C211 C 0.31901 0.05669 0.0891 0.0
C212 C 0.3043 0.04092 0.02116 0.0
C213 C 0.33567 0.11086 0.04928 0.0
O214 O 0.30274 0.07072 0.08852 0.0
O215 O 0.3275 0.0521 0.07006 0.0
O216 O 0.33551 0.09559 0.03417 0.0
O217 O 0.32116 0.10835 0.06483 0.0
C218 C 0.26966 0.10078 0.03739 0.0
O219 O 0.3215 0.05359 0.023 0.0
O220 O 0.28758 0.04644 0.03342 0.0
In221 In 0.80764 0.91641 0.45185 0.0
O222 O 0.82245 0.94096 0.47765 0.0
O223 O 0.79135 0.95007 0.46122 0.0
C224 C 0.83426 0.87923 0.45514 0.0
C225 C 0.76804 0.89984 0.46644 0.0
C226 C 0.8241 0.93409 0.41326 0.0
O227 O 0.83568 0.89562 0.46893 0.0
O228 O 0.81917 0.88149 0.44015 0.0
O229 O 0.80569 0.92297 0.4134 0.0
O230 O 0.83342 0.93642 0.43233 0.0
C231 C 0.80671 0.95541 0.47525 0.0
O232 O 0.77136 0.90327 0.44547 0.0
O233 O 0.78446 0.90457 0.47932 0.0
In234 In 0.32754 0.05837 0.69787 0.0
O235 O 0.30395 0.07206 0.72502 0.0
O236 O 0.29617 0.03967 0.71073 0.0
C237 C 0.36112 0.08916 0.69879 0.0
C238 C 0.35234 0.02313 0.71212 0.0
C239 C 0.31019 0.0729 0.65821 0.0
O240 O 0.34487 0.08959 0.71287 0.0
O241 O 0.36028 0.07327 0.68445 0.0
O242 O 0.32387 0.05632 0.65901 0.0
O243 O 0.30447 0.08071 0.67724 0.0
C244 C 0.29059 0.05528 0.72438 0.0
O245 O 0.3391 0.02093 0.69528 0.0
O246 O 0.35211 0.04231 0.7216 0.0
In247 In 0.19182 0.57943 0.94883 0.0
O248 O 0.17723 0.55424 0.97395 0.0
O249 O 0.20834 0.54562 0.9572 0.0
C250 C 0.16503 0.61635 0.95288 0.0
C251 C 0.23056 0.59635 0.96532 0.0
C252 C 0.17557 0.5616 0.9102 0.0
O253 O 0.16368 0.59964 0.96628 0.0
O254 O 0.17999 0.61444 0.93769 0.0
O255 O 0.19417 0.57246 0.91034 0.0
O256 O 0.16587 0.55996 0.92916 0.0
C257 C 0.19299 0.53988 0.9711 0.0
O258 O 0.22784 0.59415 0.94408 0.0
O259 O 0.21405 0.59015 0.97743 0.0
In260 In 0.16905 0.93917 0.19914 0.0
O261 O 0.15703 0.97649 0.19692 0.0
O262 O 0.14512 0.95498 0.22366 0.0
C263 C 0.18693 0.92537 0.15949 0.0
C264 C 0.20635 0.94225 0.22509 0.0
C265 C 0.13519 0.90863 0.20006 0.0
O266 O 0.17321 0.94192 0.16037 0.0
O267 O 0.19215 0.91701 0.17843 0.0
O268 O 0.15126 0.90827 0.21433 0.0
O269 O 0.13645 0.92419 0.18538 0.0
C270 C 0.14439 0.97416 0.21421 0.0
O271 O 0.19339 0.92514 0.22543 0.0
O272 O 0.20014 0.95818 0.21209 0.0
In273 In 0.68971 0.91828 0.04484 0.0
O274 O 0.72601 0.90444 0.04973 0.0
O275 O 0.7116 0.90639 0.01643 0.0
C276 C 0.67333 0.9357 0.08356 0.0
C277 C 0.69094 0.95762 0.02219 0.0
C278 C 0.66294 0.88134 0.04169 0.0
O279 O 0.69183 0.92468 0.08336 0.0
O280 O 0.66393 0.93801 0.06452 0.0
O281 O 0.66129 0.89788 0.02811 0.0
O282 O 0.67829 0.88337 0.05645 0.0
C283 C 0.72843 0.90116 0.02859 0.0
O284 O 0.67506 0.94337 0.01956 0.0
O285 O 0.70632 0.9519 0.03607 0.0
In286 In 0.32747 0.44121 0.80248 0.0
O287 O 0.30404 0.42606 0.77603 0.0
O288 O 0.29669 0.45955 0.78779 0.0
C289 C 0.36072 0.41 0.80201 0.0
C290 C 0.35234 0.47608 0.78733 0.0
C291 C 0.30896 0.42853 0.84232 0.0
O292 O 0.34474 0.40994 0.78764 0.0
O293 O 0.35969 0.42561 0.81664 0.0
O294 O 0.32368 0.44417 0.84136 0.0
O295 O 0.30302 0.42069 0.82338 0.0
C296 C 0.29099 0.44308 0.77525 0.0
O297 O 0.33866 0.47889 0.80372 0.0
O298 O 0.3526 0.45646 0.77884 0.0
In299 In 0.66863 0.06165 0.29792 0.0
O300 O 0.69339 0.07649 0.27248 0.0
O301 O 0.70226 0.04516 0.28865 0.0
C302 C 0.63202 0.08884 0.29447 0.0
C303 C 0.65173 0.02294 0.2815 0.0
C304 C 0.68496 0.07787 0.33727 0.0
O305 O 0.64902 0.09075 0.28151 0.0
O306 O 0.63335 0.07291 0.30868 0.0
O307 O 0.67326 0.05982 0.33671 0.0
O308 O 0.68887 0.08668 0.31822 0.0
C309 C 0.70767 0.06058 0.27469 0.0
O310 O 0.65572 0.02497 0.30255 0.0
O311 O 0.65608 0.04014 0.26953 0.0
In312 In 0.05418 0.80562 0.57575 0.0
O313 O 0.05624 0.76789 0.58656 0.0
O314 O 0.03128 0.78977 0.60123 0.0
C315 C 0.09387 0.81842 0.55711 0.0
C316 C 0.02666 0.80339 0.53943 0.0
C317 C 0.05348 0.83662 0.60927 0.0
O318 O 0.09295 0.80261 0.57164 0.0
O319 O 0.07493 0.82648 0.55145 0.0
O320 O 0.03891 0.83648 0.59347 0.0
O321 O 0.06844 0.82135 0.6079 0.0
C322 C 0.04012 0.77032 0.60061 0.0
O323 O 0.02743 0.8205 0.55237 0.0
O324 O 0.03934 0.78705 0.54517 0.0
In325 In 0.94329 0.79821 0.82887 0.0
O326 O 0.9793 0.80378 0.8433 0.0
O327 O 0.96614 0.77013 0.8399 0.0
C328 C 0.92835 0.8371 0.81028 0.0
C329 C 0.94336 0.77435 0.79015 0.0
C330 C 0.91661 0.79466 0.86599 0.0
O331 O 0.9467 0.83653 0.82148 0.0
O332 O 0.91822 0.81838 0.80857 0.0
O333 O 0.91545 0.78086 0.84962 0.0
O334 O 0.93126 0.81006 0.86364 0.0
C335 C 0.98243 0.78265 0.84584 0.0
O336 O 0.9274 0.77298 0.80447 0.0
O337 O 0.9594 0.78763 0.79546 0.0
In338 In 0.94572 0.69272 0.07793 0.0
O339 O 0.94012 0.72887 0.09206 0.0
O340 O 0.97374 0.71553 0.08908 0.0
C341 C 0.90704 0.67727 0.0594 0.0
C342 C 0.96983 0.69299 0.03935 0.0
C343 C 0.94919 0.66625 0.11523 0.0
O344 O 0.90742 0.69572 0.07046 0.0
O345 O 0.92586 0.66731 0.05776 0.0
O346 O 0.96294 0.66491 0.09883 0.0
O347 O 0.93386 0.68096 0.11281 0.0
C348 C 0.96123 0.73192 0.09475 0.0
O349 O 0.97154 0.67727 0.05391 0.0
O350 O 0.956 0.70868 0.04432 0.0
In351 In 0.05711 0.69649 0.32737 0.0
O352 O 0.02079 0.69202 0.34152 0.0
O353 O 0.0352 0.72522 0.33841 0.0
C354 C 0.07473 0.65787 0.31077 0.0
C355 C 0.05595 0.71855 0.28768 0.0
C356 C 0.08354 0.70072 0.36444 0.0
O357 O 0.05595 0.65776 0.32133 0.0
O358 O 0.08372 0.67711 0.3085 0.0
O359 O 0.08524 0.71385 0.34753 0.0
O360 O 0.0683 0.6858 0.36271 0.0
C361 C 0.01841 0.71327 0.34418 0.0
O362 O 0.07146 0.72174 0.30222 0.0
O363 O 0.04083 0.70431 0.29326 0.0
In364 In 0.05444 0.19356 0.42246 0.0
O365 O 0.02746 0.17853 0.44543 0.0
O366 O 0.03915 0.21197 0.45294 0.0
C367 C 0.05354 0.16253 0.38897 0.0
C368 C 0.04116 0.22918 0.39757 0.0
C369 C 0.09397 0.18054 0.44139 0.0
O370 O 0.03879 0.16301 0.40457 0.0
O371 O 0.06881 0.17747 0.39052 0.0
O372 O 0.09322 0.19625 0.42675 0.0
O373 O 0.07494 0.17268 0.44702 0.0
C374 C 0.02645 0.19556 0.45844 0.0
O375 O 0.05693 0.23138 0.41203 0.0
O376 O 0.03224 0.20978 0.39657 0.0
In377 In 0.55581 0.79946 0.6696 0.0
O378 O 0.57149 0.77309 0.69294 0.0
O379 O 0.5402 0.7885 0.70309 0.0
C380 C 0.58137 0.79606 0.63169 0.0
C381 C 0.5158 0.78556 0.65329 0.0
C382 C 0.57224 0.83755 0.68858 0.0
O383 O 0.58273 0.78195 0.64778 0.0
O384 O 0.56708 0.81167 0.63472 0.0
O385 O 0.5535 0.83761 0.67805 0.0
O386 O 0.58203 0.81859 0.68949 0.0
C387 C 0.5559 0.77455 0.70765 0.0
O388 O 0.51967 0.80651 0.65622 0.0
O389 O 0.53183 0.77238 0.6585 0.0
In390 In 0.94449 0.30658 0.92195 0.0
O391 O 0.97065 0.32156 0.94585 0.0
O392 O 0.95858 0.28812 0.95292 0.0
C393 C 0.94478 0.33764 0.88856 0.0
C394 C 0.96017 0.272 0.89701 0.0
C395 C 0.90454 0.31917 0.94018 0.0
O396 O 0.95907 0.33794 0.9046 0.0
O397 O 0.93032 0.32186 0.88959 0.0
O398 O 0.90567 0.30322 0.92579 0.0
O399 O 0.92338 0.32743 0.94588 0.0
C400 C 0.97111 0.30451 0.95888 0.0
O401 O 0.9434 0.26907 0.9102 0.0
O402 O 0.96881 0.29156 0.89732 0.0
In403 In 0.44114 0.6997 0.16986 0.0
O404 O 0.42485 0.72453 0.19438 0.0
O405 O 0.45691 0.71006 0.20349 0.0
C406 C 0.41447 0.70329 0.13277 0.0
C407 C 0.48018 0.71598 0.1534 0.0
C408 C 0.42651 0.66012 0.18715 0.0
O409 O 0.41283 0.71666 0.14945 0.0
O410 O 0.42966 0.68838 0.13476 0.0
O411 O 0.44462 0.66118 0.17561 0.0
O412 O 0.41658 0.67879 0.19011 0.0
C413 C 0.44075 0.7232 0.20878 0.0
O414 O 0.47758 0.69483 0.15634 0.0
O415 O 0.4634 0.72816 0.15866 0.0
In416 In 0.07837 0.54619 0.81028 0.0
O417 O 0.05379 0.52058 0.82515 0.0
O418 O 0.0446 0.53706 0.79407 0.0
C419 C 0.11537 0.54333 0.83694 0.0
C420 C 0.09519 0.52968 0.77157 0.0
C421 C 0.0619 0.58528 0.82685 0.0
O422 O 0.0986 0.53012 0.83913 0.0
O423 O 0.11362 0.55748 0.821 0.0
O424 O 0.07306 0.58488 0.80845 0.0
O425 O 0.0586 0.5662 0.83586 0.0
C426 C 0.03933 0.52297 0.80942 0.0
O427 O 0.09122 0.55075 0.77358 0.0
O428 O 0.09081 0.51774 0.78879 0.0
In429 In 0.19815 0.82923 0.05576 0.0
O430 O 0.19428 0.8389 0.01791 0.0
O431 O 0.22017 0.85436 0.0381 0.0
C432 C 0.15934 0.81024 0.07043 0.0
C433 C 0.22568 0.79292 0.05366 0.0
C434 C 0.19891 0.86372 0.08568 0.0
O435 O 0.1595 0.82401 0.05392 0.0
O436 O 0.17858 0.80553 0.07838 0.0
O437 O 0.21408 0.8485 0.08538 0.0
O438 O 0.18343 0.86134 0.07106 0.0
C439 C 0.21039 0.8531 0.01912 0.0
O440 O 0.22555 0.80639 0.07037 0.0
O441 O 0.21246 0.79819 0.0376 0.0
In442 In 0.91815 0.94881 0.30861 0.0
O443 O 0.90906 0.9461 0.27049 0.0
O444 O 0.89199 0.97014 0.29164 0.0
C445 C 0.93677 0.90955 0.32287 0.0
C446 C 0.95357 0.97747 0.30699 0.0
C447 C 0.88418 0.9492 0.33893 0.0
O448 O 0.92271 0.91003 0.30663 0.0
O449 O 0.94227 0.92873 0.33045 0.0
O450 O 0.89973 0.96403 0.33903 0.0
O451 O 0.8859 0.93433 0.32361 0.0
C452 C 0.894 0.96137 0.27224 0.0
O453 O 0.94023 0.97652 0.32376 0.0
O454 O 0.94874 0.96434 0.29071 0.0
In455 In 0.80122 0.67141 0.55687 0.0
O456 O 0.803 0.65993 0.5193 0.0
O457 O 0.77793 0.64598 0.54149 0.0
C458 C 0.8408 0.69076 0.56907 0.0
C459 C 0.77354 0.70757 0.55447 0.0
C460 C 0.801 0.63787 0.58786 0.0
O461 O 0.83986 0.67633 0.55315 0.0
O462 O 0.82193 0.6958 0.57769 0.0
O463 O 0.78632 0.65358 0.58786 0.0
O464 O 0.81589 0.63943 0.57254 0.0
C465 C 0.7867 0.64614 0.522 0.0
O466 O 0.77455 0.69486 0.57173 0.0
O467 O 0.78609 0.70169 0.53808 0.0
In468 In 0.08033 0.45165 0.18917 0.0
O469 O 0.0925 0.449 0.22643 0.0
O470 O 0.10437 0.47594 0.20517 0.0
C471 C 0.06184 0.41251 0.1747 0.0
C472 C 0.04334 0.47808 0.19217 0.0
C473 C 0.11445 0.4519 0.15896 0.0
O474 O 0.07509 0.41298 0.19165 0.0
O475 O 0.05737 0.43162 0.16626 0.0
O476 O 0.09872 0.46655 0.15852 0.0
O477 O 0.11274 0.4372 0.17445 0.0
C478 C 0.1052 0.46626 0.22423 0.0
O479 O 0.05662 0.47859 0.17531 0.0
O480 O 0.04908 0.46466 0.20792 0.0
In481 In 0.29952 0.82871 0.44245 0.0
O482 O 0.30257 0.83796 0.48052 0.0
O483 O 0.27907 0.85566 0.45932 0.0
C484 C 0.33832 0.80803 0.42978 0.0
C485 C 0.26978 0.7941 0.44406 0.0
C486 C 0.29975 0.86292 0.41218 0.0
O487 O 0.33797 0.82241 0.44574 0.0
O488 O 0.31923 0.80363 0.42132 0.0
O489 O 0.28416 0.84815 0.41265 0.0
O490 O 0.3153 0.86009 0.42664 0.0
C491 C 0.28781 0.85351 0.4787 0.0
O492 O 0.27207 0.80658 0.42677 0.0
O493 O 0.28206 0.79945 0.46082 0.0
In494 In 0.91884 0.04934 0.68841 0.0
O495 O 0.94154 0.02198 0.67353 0.0
O496 O 0.94952 0.0344 0.70663 0.0
C497 C 0.88506 0.04849 0.65787 0.0
C498 C 0.89476 0.03619 0.72459 0.0
C499 C 0.93675 0.08896 0.67428 0.0
O500 O 0.90101 0.03408 0.65763 0.0
O501 O 0.88627 0.06314 0.67344 0.0
O502 O 0.92255 0.0882 0.69038 0.0
O503 O 0.94279 0.06989 0.66682 0.0
C504 C 0.95472 0.02128 0.69045 0.0
O505 O 0.90943 0.05183 0.72644 0.0
O506 O 0.89308 0.02739 0.70517 0.0
In507 In 0.69448 0.67013 0.94368 0.0
O508 O 0.72192 0.69237 0.92841 0.0
O509 O 0.71035 0.70052 0.96175 0.0
C510 C 0.69495 0.63665 0.9127 0.0
C511 C 0.70758 0.64524 0.9794 0.0
C512 C 0.6552 0.68953 0.93054 0.0
O513 O 0.70988 0.65209 0.91314 0.0
O514 O 0.67973 0.63834 0.92768 0.0
O515 O 0.65572 0.67482 0.94621 0.0
O516 O 0.67433 0.69502 0.92285 0.0
C517 C 0.72317 0.70556 0.94529 0.0
O518 O 0.69233 0.66026 0.9817 0.0
O519 O 0.71603 0.64366 0.95984 0.0
In520 In 0.30608 0.57917 0.5497 0.0
O521 O 0.26823 0.5893 0.55285 0.0
O522 O 0.28927 0.60497 0.5278 0.0
C523 C 0.31975 0.55916 0.58852 0.0
C524 C 0.30412 0.54381 0.52093 0.0
C525 C 0.33593 0.61368 0.54966 0.0
O526 O 0.30326 0.57295 0.58824 0.0
O527 O 0.32821 0.555 0.56936 0.0
O528 O 0.33596 0.5985 0.53444 0.0
O529 O 0.32116 0.61112 0.56496 0.0
C530 C 0.27004 0.60381 0.53705 0.0
O531 O 0.32123 0.55668 0.52228 0.0
O532 O 0.2877 0.54912 0.53368 0.0
In533 In 0.80522 0.41907 0.94875 0.0
O534 O 0.82144 0.4434 0.97385 0.0
O535 O 0.78905 0.45224 0.95997 0.0
C536 C 0.83198 0.38194 0.95167 0.0
C537 C 0.76641 0.40211 0.96505 0.0
C538 C 0.81965 0.43761 0.90963 0.0
O539 O 0.83347 0.39833 0.96542 0.0
O540 O 0.81698 0.38428 0.93661 0.0
O541 O 0.80158 0.42597 0.91036 0.0
O542 O 0.82968 0.43988 0.92834 0.0
C543 C 0.80528 0.45756 0.97301 0.0
O544 O 0.7688 0.40541 0.94392 0.0
O545 O 0.78328 0.40722 0.97716 0.0
In546 In 0.3322 0.55615 0.19801 0.0
O547 O 0.33558 0.51743 0.19351 0.0
O548 O 0.35937 0.53497 0.21441 0.0
C549 C 0.31343 0.5729 0.15968 0.0
C550 C 0.29789 0.55524 0.22827 0.0
C551 C 0.36754 0.58484 0.20038 0.0
O552 O 0.3273 0.55652 0.15923 0.0
O553 O 0.30822 0.57954 0.17927 0.0
O554 O 0.35253 0.58393 0.21574 0.0
O555 O 0.36472 0.57117 0.18412 0.0
C556 C 0.35295 0.51636 0.2061 0.0
O557 O 0.31169 0.57162 0.22701 0.0
O558 O 0.30177 0.53908 0.21472 0.0
In559 In 0.19109 0.07901 0.44917 0.0
O560 O 0.22727 0.09245 0.44244 0.0
O561 O 0.21483 0.0901 0.47646 0.0
C562 C 0.17428 0.06058 0.41096 0.0
C563 C 0.19141 0.04073 0.47369 0.0
C564 C 0.1655 0.11683 0.45296 0.0
O565 O 0.19308 0.07103 0.41089 0.0
O566 O 0.16468 0.05941 0.42999 0.0
O567 O 0.16395 0.10047 0.46674 0.0
O568 O 0.18002 0.11411 0.4375 0.0
C569 C 0.23096 0.09535 0.46343 0.0
O570 O 0.17578 0.05538 0.47547 0.0
O571 O 0.20691 0.04544 0.45958 0.0
In572 In 0.16993 0.43804 0.69883 0.0
O573 O 0.158 0.47536 0.69652 0.0
O574 O 0.1458 0.45383 0.72312 0.0
C575 C 0.18725 0.42347 0.65923 0.0
C576 C 0.20706 0.44137 0.72499 0.0
C577 C 0.13623 0.40741 0.69966 0.0
O578 O 0.17371 0.44018 0.66001 0.0
O579 O 0.19282 0.41555 0.67826 0.0
O580 O 0.15254 0.40679 0.71366 0.0
O581 O 0.13708 0.42338 0.68542 0.0
C582 C 0.14518 0.47301 0.71367 0.0
O583 O 0.19382 0.42449 0.72575 0.0
O584 O 0.20126 0.45694 0.71138 0.0
In585 In 0.69086 0.41635 0.54596 0.0
O586 O 0.72725 0.40375 0.5529 0.0
O587 O 0.71471 0.40511 0.51883 0.0
C588 C 0.67326 0.43411 0.58403 0.0
C589 C 0.69102 0.45507 0.52218 0.0
C590 C 0.66535 0.37851 0.54244 0.0
O591 O 0.6921 0.42372 0.58433 0.0
O592 O 0.66406 0.43566 0.56482 0.0
O593 O 0.66383 0.39471 0.52845 0.0
O594 O 0.67997 0.38131 0.55779 0.0
C595 C 0.73097 0.40051 0.53196 0.0
O596 O 0.67569 0.44019 0.51978 0.0
O597 O 0.70638 0.4503 0.53642 0.0
In598 In 0.32791 0.94124 0.30065 0.0
O599 O 0.30466 0.92685 0.27359 0.0
O600 O 0.29659 0.95951 0.28712 0.0
C601 C 0.36135 0.91029 0.29983 0.0
C602 C 0.3523 0.97687 0.28666 0.0
C603 C 0.31012 0.92712 0.34026 0.0
O604 O 0.34536 0.9102 0.28546 0.0
O605 O 0.36034 0.92594 0.31443 0.0
O606 O 0.32438 0.94319 0.33953 0.0
O607 O 0.30411 0.91962 0.3212 0.0
C608 C 0.29118 0.94355 0.27381 0.0
O609 O 0.33851 0.97898 0.30305 0.0
O610 O 0.3529 0.95754 0.27753 0.0
In611 In 0.66932 0.5588 0.79895 0.0
O612 O 0.65551 0.5224 0.80321 0.0
O613 O 0.65791 0.53721 0.77011 0.0
C614 C 0.68488 0.57504 0.83853 0.0
C615 C 0.70919 0.55768 0.77715 0.0
C616 C 0.63289 0.58616 0.79476 0.0
O617 O 0.67348 0.5568 0.83778 0.0
O618 O 0.68875 0.58409 0.81958 0.0
O619 O 0.65012 0.58797 0.7821 0.0
O620 O 0.6339 0.57024 0.80902 0.0
C621 C 0.65255 0.52024 0.782 0.0
O622 O 0.6948 0.57337 0.77412 0.0
O623 O 0.70339 0.5424 0.79111 0.0
In624 In 0.55256 0.30598 0.57742 0.0
O625 O 0.52591 0.32175 0.55447 0.0
O626 O 0.53608 0.28771 0.54751 0.0
C627 C 0.55203 0.33692 0.61105 0.0
C628 C 0.53935 0.27023 0.60218 0.0
C629 C 0.59208 0.31783 0.55767 0.0
O630 O 0.53695 0.33633 0.59576 0.0
O631 O 0.5675 0.32223 0.60902 0.0
O632 O 0.59122 0.3024 0.5726 0.0
O633 O 0.57317 0.32617 0.55236 0.0
C634 C 0.52404 0.30453 0.54181 0.0
O635 O 0.5546 0.26796 0.58719 0.0
O636 O 0.53093 0.2898 0.60383 0.0
In637 In 0.43995 0.29703 0.82896 0.0
O638 O 0.47627 0.30339 0.8421 0.0
O639 O 0.46334 0.2695 0.84023 0.0
C640 C 0.42252 0.33598 0.81292 0.0
C641 C 0.44064 0.27413 0.78971 0.0
C642 C 0.41346 0.2923 0.86596 0.0
O643 O 0.44103 0.33579 0.82386 0.0
O644 O 0.41373 0.31679 0.80971 0.0
O645 O 0.41188 0.2793 0.84896 0.0
O646 O 0.42874 0.30717 0.86445 0.0
C647 C 0.47969 0.28238 0.84521 0.0
O648 O 0.42522 0.27133 0.8044 0.0
O649 O 0.45584 0.28842 0.79487 0.0
In650 In 0.44561 0.19165 0.07593 0.0
O651 O 0.47324 0.17782 0.05299 0.0
O652 O 0.45887 0.21002 0.04454 0.0
C653 C 0.44671 0.16133 0.10995 0.0
C654 C 0.4586 0.2277 0.1002 0.0
C655 C 0.40651 0.17641 0.05808 0.0
O656 O 0.46118 0.16119 0.09405 0.0
O657 O 0.43184 0.17669 0.10853 0.0
O658 O 0.40682 0.19297 0.07179 0.0
O659 O 0.42574 0.16894 0.05259 0.0
C660 C 0.47269 0.19441 0.03938 0.0
O661 O 0.44211 0.22931 0.08646 0.0
O662 O 0.46836 0.20868 0.10076 0.0
In663 In 0.55665 0.20167 0.32959 0.0
O664 O 0.57176 0.22707 0.30489 0.0
O665 O 0.54022 0.21129 0.2961 0.0
C666 C 0.58318 0.20507 0.36675 0.0
C667 C 0.51781 0.21783 0.34661 0.0
C668 C 0.57245 0.16294 0.31146 0.0
O669 O 0.5848 0.21863 0.3502 0.0
O670 O 0.56812 0.19004 0.36455 0.0
O671 O 0.55391 0.16327 0.32239 0.0
O672 O 0.58228 0.18182 0.30975 0.0
C673 C 0.55582 0.22501 0.29061 0.0
O674 O 0.52045 0.19666 0.34374 0.0
O675 O 0.53445 0.23005 0.34101 0.0
In676 In 0.55119 0.69257 0.42214 0.0
O677 O 0.55384 0.73013 0.41093 0.0
O678 O 0.52811 0.70865 0.397 0.0
C679 C 0.59051 0.67956 0.44137 0.0
C680 C 0.52398 0.6953 0.45862 0.0
C681 C 0.54995 0.6618 0.3884 0.0
O682 O 0.5899 0.6955 0.42695 0.0
O683 O 0.57149 0.67129 0.4464 0.0
O684 O 0.5352 0.66233 0.40401 0.0
O685 O 0.56547 0.67647 0.39015 0.0
C686 C 0.53738 0.72791 0.39724 0.0
O687 O 0.52478 0.67795 0.44602 0.0
O688 O 0.53643 0.71165 0.45243 0.0
In689 In 0.05718 0.29567 0.66707 0.0
O690 O 0.02095 0.30308 0.65425 0.0
O691 O 0.033 0.26884 0.65575 0.0
C692 C 0.07519 0.3336 0.68475 0.0
C693 C 0.05671 0.27171 0.7057 0.0
C694 C 0.08267 0.29196 0.6292 0.0
O695 O 0.05623 0.33401 0.67461 0.0
O696 O 0.08429 0.31433 0.68616 0.0
O697 O 0.08412 0.27799 0.64543 0.0
O698 O 0.06811 0.30737 0.63198 0.0
C699 C 0.01696 0.28219 0.651 0.0
O700 O 0.072 0.26919 0.69081 0.0
O701 O 0.04154 0.28618 0.70101 0.0
In702 In 0.44435 0.80588 0.9211 0.0
O703 O 0.4706 0.8209 0.94487 0.0
O704 O 0.45852 0.78753 0.95214 0.0
C705 C 0.44517 0.83681 0.88755 0.0
C706 C 0.45964 0.77096 0.89635 0.0
C707 C 0.40437 0.81871 0.93916 0.0
O708 O 0.45942 0.83694 0.90364 0.0
O709 O 0.43045 0.82128 0.88864 0.0
O710 O 0.40551 0.80272 0.92482 0.0
O711 O 0.42322 0.82691 0.94491 0.0
C712 C 0.4711 0.80392 0.95797 0.0
O713 O 0.44294 0.76827 0.90966 0.0
O714 O 0.46841 0.79046 0.89644 0.0
In715 In 0.94254 0.19868 0.17071 0.0
O716 O 0.97871 0.19319 0.1567 0.0
O717 O 0.9652 0.22677 0.15953 0.0
C718 C 0.92736 0.1598 0.18906 0.0
C719 C 0.943 0.22274 0.20926 0.0
C720 C 0.91611 0.2024 0.13345 0.0
O721 O 0.94566 0.16031 0.17779 0.0
O722 O 0.91741 0.1786 0.19101 0.0
O723 O 0.91459 0.21592 0.15004 0.0
O724 O 0.93096 0.18718 0.13569 0.0
C725 C 0.98167 0.21432 0.15397 0.0
O726 O 0.92695 0.22417 0.19503 0.0
O727 O 0.95882 0.20919 0.204 0.0
In728 In 0.57985 0.0487 0.81002 0.0
O729 O 0.59032 0.05102 0.77228 0.0
O730 O 0.6053 0.02598 0.79389 0.0
C731 C 0.56168 0.08825 0.82388 0.0
C732 C 0.54383 0.0209 0.80762 0.0
C733 C 0.6136 0.04861 0.8406 0.0
O734 O 0.57561 0.08745 0.80753 0.0
O735 O 0.55606 0.06922 0.83175 0.0
O736 O 0.59773 0.03412 0.8411 0.0
O737 O 0.6123 0.06296 0.82475 0.0
C738 C 0.60447 0.03495 0.77449 0.0
O739 O 0.55688 0.02145 0.82464 0.0
O740 O 0.54923 0.03402 0.79152 0.0
In741 In 0.69443 0.32672 0.05678 0.0
O742 O 0.72114 0.3035 0.07197 0.0
O743 O 0.71019 0.29661 0.03814 0.0
C744 C 0.69456 0.35969 0.0884 0.0
C745 C 0.70865 0.35213 0.02188 0.0
C746 C 0.65461 0.30749 0.06844 0.0
O747 O 0.70924 0.34402 0.08809 0.0
O748 O 0.67973 0.35847 0.07299 0.0
O749 O 0.65573 0.32244 0.05305 0.0
O750 O 0.67345 0.30173 0.07666 0.0
C751 C 0.72257 0.29084 0.0547 0.0
O752 O 0.69285 0.33779 0.0191 0.0
O753 O 0.7171 0.35277 0.04151 0.0
In754 In 0.41466 0.44715 0.30444 0.0
O755 O 0.40987 0.44173 0.26601 0.0
O756 O 0.38934 0.46614 0.28325 0.0
C757 C 0.43274 0.40898 0.32202 0.0
C758 C 0.45046 0.47552 0.30325 0.0
C759 C 0.37918 0.44974 0.33295 0.0
O760 O 0.41912 0.40832 0.30542 0.0
O761 O 0.43792 0.42863 0.32852 0.0
O762 O 0.39446 0.46483 0.33233 0.0
O763 O 0.38177 0.43363 0.31906 0.0
C764 C 0.39418 0.45637 0.26486 0.0
O765 O 0.43607 0.47577 0.31918 0.0
O766 O 0.44637 0.46148 0.28756 0.0
In767 In 0.30205 0.17035 0.55469 0.0
O768 O 0.27512 0.19348 0.56969 0.0
O769 O 0.28658 0.20059 0.53609 0.0
C770 C 0.30148 0.13657 0.58546 0.0
C771 C 0.28884 0.14542 0.51906 0.0
C772 C 0.3413 0.19004 0.56736 0.0
O773 O 0.28646 0.15193 0.58501 0.0
O774 O 0.31689 0.13859 0.57072 0.0
O775 O 0.34068 0.17555 0.55149 0.0
O776 O 0.32229 0.19494 0.57575 0.0
C777 C 0.27402 0.20631 0.55252 0.0
O778 O 0.30474 0.15976 0.51694 0.0
O779 O 0.27977 0.14455 0.53839 0.0
In780 In 0.5789 0.95133 0.18785 0.0
O781 O 0.58943 0.94898 0.22559 0.0
O782 O 0.60385 0.97448 0.20414 0.0
C783 C 0.56059 0.91194 0.17382 0.0
C784 C 0.54252 0.97869 0.18993 0.0
C785 C 0.613 0.95134 0.15763 0.0
O786 O 0.57431 0.91261 0.19037 0.0
O787 O 0.55537 0.931 0.16575 0.0
O788 O 0.59735 0.96608 0.15721 0.0
O789 O 0.61129 0.93674 0.17321 0.0
C790 C 0.60324 0.96536 0.22348 0.0
O791 O 0.55569 0.97826 0.173 0.0
O792 O 0.54803 0.96574 0.20614 0.0
In793 In 0.80503 0.32667 0.44213 0.0
O794 O 0.80663 0.33737 0.47991 0.0
O795 O 0.78276 0.35301 0.45754 0.0
C796 C 0.84487 0.30762 0.43027 0.0
C797 C 0.77685 0.29086 0.44442 0.0
C798 C 0.80464 0.3596 0.41049 0.0
O799 O 0.84376 0.32263 0.44562 0.0
O800 O 0.82601 0.30169 0.42223 0.0
O801 O 0.79003 0.34385 0.41083 0.0
O802 O 0.8195 0.35847 0.42588 0.0
C803 C 0.79108 0.35199 0.4772 0.0
O804 O 0.77818 0.30349 0.42712 0.0
O805 O 0.78935 0.29662 0.46088 0.0
In806 In 0.41784 0.54841 0.68878 0.0
O807 O 0.44294 0.52316 0.67411 0.0
O808 O 0.45184 0.54007 0.70502 0.0
C809 C 0.38096 0.54448 0.6619 0.0
C810 C 0.40125 0.53225 0.72782 0.0
C811 C 0.43437 0.58763 0.67254 0.0
O812 O 0.39787 0.53138 0.66016 0.0
O813 O 0.38257 0.55913 0.67742 0.0
O814 O 0.4233 0.58707 0.69099 0.0
O815 O 0.43727 0.56868 0.66313 0.0
C816 C 0.45742 0.52601 0.68974 0.0
O817 O 0.40416 0.5534 0.72516 0.0
O818 O 0.40653 0.52001 0.71107 0.0
In819 In 0.19862 0.1682 0.94126 0.0
O820 O 0.19217 0.15435 0.97735 0.0
O821 O 0.22607 0.15658 0.96459 0.0
C822 C 0.16029 0.18758 0.92585 0.0
C823 C 0.22369 0.20618 0.94125 0.0
C824 C 0.2014 0.13066 0.91503 0.0
O825 O 0.16054 0.17671 0.9444 0.0
O826 O 0.17906 0.18863 0.91575 0.0
O827 O 0.21559 0.14668 0.91374 0.0
O828 O 0.186 0.13357 0.92958 0.0
C829 C 0.21316 0.15122 0.98079 0.0
O830 O 0.2248 0.19167 0.92543 0.0
O831 O 0.21001 0.20145 0.95713 0.0
In832 In 0.80696 0.08032 0.54537 0.0
O833 O 0.82162 0.056 0.5193 0.0
O834 O 0.79111 0.04631 0.53648 0.0
C835 C 0.83283 0.1179 0.54144 0.0
C836 C 0.767 0.09675 0.53154 0.0
C837 C 0.82452 0.06302 0.58366 0.0
O838 O 0.83431 0.10149 0.52768 0.0
O839 O 0.81807 0.11544 0.55671 0.0
O840 O 0.8056 0.07324 0.58377 0.0
O841 O 0.83383 0.06138 0.56451 0.0
C842 C 0.80627 0.04123 0.52212 0.0
O843 O 0.77095 0.09387 0.55248 0.0
O844 O 0.78294 0.0914 0.51829 0.0
In845 In 0.30561 0.91906 0.94576 0.0
O846 O 0.26951 0.90499 0.93986 0.0
O847 O 0.2825 0.90816 0.97361 0.0
C848 C 0.32208 0.9372 0.90733 0.0
C849 C 0.30482 0.95797 0.96929 0.0
C850 C 0.33186 0.88169 0.94968 0.0
O851 O 0.30344 0.92646 0.90737 0.0
O852 O 0.33171 0.93871 0.92633 0.0
O853 O 0.33324 0.89821 0.96331 0.0
O854 O 0.31718 0.88401 0.93431 0.0
C855 C 0.26622 0.90245 0.96097 0.0
O856 O 0.32042 0.94337 0.97168 0.0
O857 O 0.28951 0.95286 0.9551 0.0
In858 In 0.83047 0.0597 0.20104 0.0
O859 O 0.80665 0.07469 0.2273 0.0
O860 O 0.79642 0.04415 0.21048 0.0
C861 C 0.86778 0.08582 0.20527 0.0
C862 C 0.84652 0.01973 0.21524 0.0
C863 C 0.81413 0.07741 0.16229 0.0
O864 O 0.85099 0.08754 0.2185 0.0
O865 O 0.86591 0.07058 0.19038 0.0
O866 O 0.82513 0.05893 0.16231 0.0
O867 O 0.8109 0.08599 0.18157 0.0
C868 C 0.79177 0.05939 0.2249 0.0
O869 O 0.84252 0.02304 0.19437 0.0
O870 O 0.84252 0.03629 0.2282 0.0
In871 In 0.68822 0.57965 0.45188 0.0
O872 O 0.67403 0.55506 0.47788 0.0
O873 O 0.70438 0.5457 0.46015 0.0
C874 C 0.66286 0.61749 0.4557 0.0
C875 C 0.72778 0.59599 0.46681 0.0
C876 C 0.66965 0.56251 0.41401 0.0
O877 O 0.66107 0.60106 0.46942 0.0
O878 O 0.67764 0.61487 0.44045 0.0
O879 O 0.68875 0.57244 0.41344 0.0
O880 O 0.66072 0.5611 0.43337 0.0
C881 C 0.68949 0.54044 0.47472 0.0
O882 O 0.72454 0.59292 0.44574 0.0
O883 O 0.71134 0.5909 0.47955 0.0
In884 In 0.66925 0.9377 0.70139 0.0
O885 O 0.694 0.92272 0.72675 0.0
O886 O 0.70327 0.95367 0.71009 0.0
C887 C 0.63236 0.91104 0.70574 0.0
C888 C 0.65306 0.97696 0.71723 0.0
C889 C 0.68485 0.92092 0.66198 0.0
O890 O 0.64956 0.90898 0.71839 0.0
O891 O 0.63363 0.92687 0.69141 0.0
O892 O 0.67359 0.93924 0.66256 0.0
O893 O 0.68869 0.91208 0.68103 0.0
C894 C 0.70856 0.93831 0.72416 0.0
O895 O 0.65647 0.97433 0.69615 0.0
O896 O 0.65766 0.96008 0.72956 0.0
In897 In 0.19144 0.91958 0.55004 0.0
O898 O 0.22757 0.90597 0.5567 0.0
O899 O 0.21514 0.90854 0.52269 0.0
C900 C 0.17517 0.93805 0.58846 0.0
C901 C 0.1916 0.95785 0.5255 0.0
C902 C 0.16567 0.88188 0.54616 0.0
O903 O 0.19384 0.92738 0.58832 0.0
O904 O 0.16541 0.9394 0.56952 0.0
O905 O 0.16424 0.89825 0.53239 0.0
O906 O 0.18014 0.88452 0.56168 0.0
C907 C 0.23124 0.90315 0.5357 0.0
O908 O 0.17585 0.9433 0.52399 0.0
O909 O 0.2073 0.95304 0.53935 0.0
In910 In 0.83106 0.43771 0.29671 0.0
O911 O 0.80653 0.42273 0.27114 0.0
O912 O 0.79708 0.45365 0.28778 0.0
C913 C 0.86791 0.41087 0.29318 0.0
C914 C 0.8476 0.47668 0.28036 0.0
C915 C 0.815 0.42104 0.336 0.0
O916 O 0.8509 0.40878 0.28026 0.0
O917 O 0.86648 0.42684 0.30735 0.0
O918 O 0.82627 0.43937 0.33551 0.0
O919 O 0.81138 0.41216 0.31693 0.0
C920 C 0.79191 0.4383 0.27365 0.0
O921 O 0.8438 0.47447 0.30143 0.0
O922 O 0.84322 0.45952 0.26833 0.0
In923 In 0.17052 0.05621 0.8026 0.0
O924 O 0.15888 0.01865 0.80349 0.0
O925 O 0.14511 0.04146 0.77888 0.0
C926 C 0.18926 0.06793 0.84264 0.0
C927 C 0.20694 0.05422 0.77522 0.0
C928 C 0.13767 0.08789 0.80267 0.0
O929 O 0.17429 0.05255 0.84141 0.0
O930 O 0.19531 0.076 0.82383 0.0
O931 O 0.15358 0.0879 0.78823 0.0
O932 O 0.13856 0.07208 0.8171 0.0
C933 C 0.14516 0.02177 0.78719 0.0
O934 O 0.19415 0.07142 0.77632 0.0
O935 O 0.201 0.03764 0.78751 0.0
In936 In 0.55034 0.80794 0.07731 0.0
O937 O 0.55321 0.77049 0.0888 0.0
O938 O 0.52762 0.79202 0.10289 0.0
C939 C 0.58939 0.82084 0.05743 0.0
C940 C 0.52242 0.80499 0.04135 0.0
C941 C 0.5501 0.83878 0.111 0.0
O942 O 0.58889 0.80467 0.0716 0.0
O943 O 0.57036 0.82941 0.05294 0.0
O944 O 0.53513 0.83854 0.09559 0.0
O945 O 0.56528 0.82377 0.10909 0.0
C946 C 0.53695 0.77278 0.10271 0.0
O947 O 0.52321 0.82229 0.05404 0.0
O948 O 0.53527 0.78883 0.04719 0.0
In949 In 0.43793 0.79665 0.3317 0.0
O950 O 0.42342 0.77035 0.30755 0.0
O951 O 0.45411 0.78729 0.298 0.0
C952 C 0.41165 0.79268 0.369 0.0
C953 C 0.4778 0.78256 0.34811 0.0
C954 C 0.42097 0.83523 0.31431 0.0
O955 O 0.41002 0.77926 0.35233 0.0
O956 O 0.42676 0.80766 0.36693 0.0
O957 O 0.43954 0.83514 0.32515 0.0
O958 O 0.41174 0.81611 0.31203 0.0
C959 C 0.43903 0.77283 0.29299 0.0
O960 O 0.47416 0.8035 0.34483 0.0
O961 O 0.46157 0.76946 0.34329 0.0
In962 In 0.44631 0.69332 0.57893 0.0
O963 O 0.44261 0.73104 0.58913 0.0
O964 O 0.46849 0.71052 0.6042 0.0
C965 C 0.4073 0.67831 0.56064 0.0
C966 C 0.47363 0.69596 0.54254 0.0
C967 C 0.44744 0.66274 0.61274 0.0
O968 O 0.40754 0.69465 0.5746 0.0
O969 O 0.42656 0.67089 0.5552 0.0
O970 O 0.46215 0.663 0.59707 0.0
O971 O 0.43232 0.67783 0.61122 0.0
C972 C 0.45877 0.72955 0.60325 0.0
O973 O 0.47398 0.67934 0.55611 0.0
O974 O 0.45997 0.71169 0.54772 0.0
In975 In 0.55748 0.69914 0.82941 0.0
O976 O 0.5211 0.69392 0.84307 0.0
O977 O 0.53518 0.72733 0.84115 0.0
C978 C 0.57334 0.6605 0.81103 0.0
C979 C 0.5569 0.72322 0.79085 0.0
C980 C 0.58368 0.70219 0.86685 0.0
O981 O 0.55476 0.66079 0.82189 0.0
O982 O 0.58317 0.6794 0.80945 0.0
O983 O 0.58549 0.71586 0.85041 0.0
O984 O 0.56861 0.68721 0.86439 0.0
C985 C 0.51845 0.71504 0.84632 0.0
O986 O 0.57281 0.72491 0.8052 0.0
O987 O 0.54125 0.70943 0.79601 0.0
In988 In 0.55264 0.19243 0.92052 0.0
O989 O 0.52616 0.17718 0.94394 0.0
O990 O 0.53662 0.21127 0.95032 0.0
C991 C 0.55242 0.16129 0.88709 0.0
C992 C 0.53869 0.22742 0.89513 0.0
C993 C 0.59212 0.18067 0.94037 0.0
O994 O 0.53746 0.16167 0.90251 0.0
O995 O 0.56763 0.17626 0.88891 0.0
O996 O 0.59125 0.19627 0.92561 0.0
O997 O 0.57323 0.17211 0.94544 0.0
C998 C 0.52453 0.1946 0.95637 0.0
O999 O 0.55457 0.23008 0.9094 0.0
O1000 O 0.53002 0.20789 0.89455 0.0
In1001 In 0.05762 0.79696 0.16813 0.0
O1002 O 0.07234 0.76895 0.19019 0.0
O1003 O 0.03943 0.78152 0.19857 0.0
C1004 C 0.08691 0.79655 0.13316 0.0
C1005 C 0.02055 0.78599 0.14436 0.0
C1006 C 0.0729 0.83541 0.18751 0.0
O1007 O 0.08687 0.78117 0.14819 0.0
O1008 O 0.07235 0.812 0.13598 0.0
O1009 O 0.05597 0.83549 0.17427 0.0
O1010 O 0.08092 0.81606 0.19165 0.0
C1011 C 0.05551 0.7682 0.20347 0.0
O1012 O 0.01968 0.8015 0.15924 0.0
O1013 O 0.03941 0.77612 0.14238 0.0
In1014 In 0.44484 0.30869 0.42239 0.0
O1015 O 0.47166 0.32304 0.446 0.0
O1016 O 0.45862 0.29001 0.45331 0.0
C1017 C 0.44463 0.33862 0.38797 0.0
C1018 C 0.45991 0.27379 0.39761 0.0
C1019 C 0.4055 0.3222 0.44117 0.0
O1020 O 0.4592 0.33948 0.40375 0.0
O1021 O 0.43014 0.32295 0.38986 0.0
O1022 O 0.40627 0.30532 0.42785 0.0
O1023 O 0.42443 0.3311 0.44549 0.0
C1024 C 0.47174 0.306 0.45907 0.0
O1025 O 0.44283 0.27131 0.41049 0.0
O1026 O 0.46918 0.29306 0.39818 0.0
In1027 In 0.94103 0.70153 0.6668 0.0
O1028 O 0.92651 0.72783 0.69097 0.0
O1029 O 0.95729 0.711 0.70044 0.0
C1030 C 0.91464 0.70514 0.62953 0.0
C1031 C 0.98078 0.71561 0.65011 0.0
C1032 C 0.92404 0.66324 0.68469 0.0
O1033 O 0.91331 0.71894 0.64591 0.0
O1034 O 0.92948 0.68992 0.63187 0.0
O1035 O 0.94257 0.66312 0.67379 0.0
O1036 O 0.91484 0.6824 0.68672 0.0
C1037 C 0.94215 0.72537 0.70552 0.0
O1038 O 0.97719 0.69467 0.65348 0.0
O1039 O 0.96457 0.7287 0.655 0.0
In1040 In 0.57353 0.54869 0.31065 0.0
O1041 O 0.54816 0.52302 0.32407 0.0
O1042 O 0.54201 0.53734 0.29131 0.0
C1043 C 0.60752 0.5478 0.34098 0.0
C1044 C 0.59823 0.5323 0.27637 0.0
C1045 C 0.55708 0.58865 0.32511 0.0
O1046 O 0.59104 0.534 0.34193 0.0
O1047 O 0.60666 0.56187 0.32484 0.0
O1048 O 0.57012 0.58753 0.30801 0.0
O1049 O 0.55162 0.56979 0.33352 0.0
C1050 C 0.53528 0.52421 0.30692 0.0
O1051 O 0.58672 0.55033 0.27374 0.0
O1052 O 0.59626 0.52276 0.29544 0.0
In1053 In 0.69308 0.82621 0.55612 0.0
O1054 O 0.7197 0.80288 0.57122 0.0
O1055 O 0.70834 0.79583 0.53755 0.0
C1056 C 0.6939 0.85917 0.58766 0.0
C1057 C 0.70757 0.85136 0.52118 0.0
C1058 C 0.65314 0.80758 0.56827 0.0
O1059 O 0.70832 0.84325 0.58733 0.0
O1060 O 0.67898 0.85819 0.57232 0.0
O1061 O 0.65426 0.82262 0.55296 0.0
O1062 O 0.67201 0.8014 0.57609 0.0
C1063 C 0.72083 0.79008 0.55404 0.0
O1064 O 0.69174 0.83706 0.51836 0.0
O1065 O 0.71588 0.85211 0.54085 0.0
In1066 In 0.41977 0.94947 0.80763 0.0
O1067 O 0.40625 0.94485 0.77115 0.0
O1068 O 0.40862 0.97809 0.78564 0.0
C1069 C 0.43533 0.91038 0.82505 0.0
C1070 C 0.45949 0.97149 0.80695 0.0
C1071 C 0.38274 0.95362 0.83408 0.0
O1072 O 0.42472 0.91067 0.80632 0.0
O1073 O 0.43844 0.92952 0.83401 0.0
O1074 O 0.3998 0.96648 0.83614 0.0
O1075 O 0.38423 0.93918 0.81837 0.0
C1076 C 0.4033 0.96604 0.76876 0.0
O1077 O 0.44474 0.97474 0.82225 0.0
O1078 O 0.45413 0.95719 0.79181 0.0
In1079 In 0.30203 0.6717 0.05771 0.0
O1080 O 0.30446 0.66014 0.02026 0.0
O1081 O 0.27812 0.64726 0.04167 0.0
C1082 C 0.34146 0.6905 0.07094 0.0
C1083 C 0.27534 0.70855 0.0549 0.0
C1084 C 0.30171 0.63764 0.08813 0.0
O1085 O 0.3407 0.67661 0.05453 0.0
O1086 O 0.32251 0.6953 0.07952 0.0
O1087 O 0.28711 0.65342 0.08852 0.0
O1088 O 0.31644 0.63933 0.07267 0.0
C1089 C 0.28753 0.64703 0.02246 0.0
O1090 O 0.27549 0.69567 0.07207 0.0
O1091 O 0.28817 0.70246 0.03881 0.0
In1092 In 0.5785 0.4497 0.68813 0.0
O1093 O 0.55534 0.47664 0.67321 0.0
O1094 O 0.54755 0.46411 0.70632 0.0
C1095 C 0.61244 0.44998 0.65773 0.0
C1096 C 0.60288 0.4637 0.72375 0.0
C1097 C 0.56073 0.40997 0.67429 0.0
O1098 O 0.59651 0.46441 0.65717 0.0
O1099 O 0.6111 0.43558 0.67352 0.0
O1100 O 0.57459 0.41091 0.69069 0.0
O1101 O 0.555 0.42894 0.66634 0.0
C1102 C 0.54211 0.47709 0.6901 0.0
O1103 O 0.58898 0.4474 0.72589 0.0
O1104 O 0.60353 0.47279 0.70441 0.0
In1105 In 0.80354 0.82418 0.94003 0.0
O1106 O 0.80444 0.8369 0.9772 0.0
O1107 O 0.77908 0.84909 0.95427 0.0
C1108 C 0.84355 0.80564 0.92811 0.0
C1109 C 0.77652 0.78761 0.9431 0.0
C1110 C 0.80361 0.85711 0.90848 0.0
O1111 O 0.84225 0.82014 0.94395 0.0
O1112 O 0.8248 0.79994 0.91964 0.0
O1113 O 0.78947 0.84093 0.90809 0.0
O1114 O 0.81775 0.85641 0.92456 0.0
C1115 C 0.78763 0.84994 0.97384 0.0
O1116 O 0.77717 0.80012 0.92567 0.0
O1117 O 0.78917 0.79383 0.95929 0.0
In1118 In 0.41749 0.04852 0.18872 0.0
O1119 O 0.44262 0.02314 0.1744 0.0
O1120 O 0.45177 0.04097 0.20473 0.0
C1121 C 0.38027 0.04358 0.16253 0.0
C1122 C 0.4014 0.03332 0.22832 0.0
C1123 C 0.43364 0.08728 0.17111 0.0
O1124 O 0.3972 0.03048 0.16098 0.0
O1125 O 0.38204 0.05874 0.17752 0.0
O1126 O 0.42315 0.0872 0.18991 0.0
O1127 O 0.43611 0.06812 0.16201 0.0
C1128 C 0.45728 0.02658 0.18974 0.0
O1129 O 0.40375 0.05444 0.22492 0.0
O1130 O 0.40703 0.02064 0.21202 0.0
In1131 In 0.19568 0.6715 0.44275 0.0
O1132 O 0.19068 0.65682 0.47879 0.0
O1133 O 0.22412 0.66081 0.46528 0.0
C1134 C 0.15649 0.68822 0.4265 0.0
C1135 C 0.21811 0.71106 0.44362 0.0
C1136 C 0.20056 0.63487 0.41565 0.0
O1137 O 0.15695 0.67705 0.44489 0.0
O1138 O 0.17548 0.69102 0.41715 0.0
O1139 O 0.21353 0.65191 0.41447 0.0
O1140 O 0.18539 0.63624 0.43066 0.0
C1141 C 0.21188 0.65458 0.48168 0.0
O1142 O 0.22082 0.69656 0.42798 0.0
O1143 O 0.20413 0.70553 0.45899 0.0
In1144 In 0.80732 0.58007 0.04729 0.0
O1145 O 0.82144 0.55626 0.02049 0.0
O1146 O 0.79158 0.54596 0.03844 0.0
C1147 C 0.83327 0.61749 0.04287 0.0
C1148 C 0.7671 0.59633 0.03403 0.0
C1149 C 0.82581 0.56357 0.08556 0.0
O1150 O 0.83494 0.60073 0.02958 0.0
O1151 O 0.81815 0.61554 0.05786 0.0
O1152 O 0.80702 0.57402 0.0859 0.0
O1153 O 0.83436 0.56099 0.06617 0.0
C1154 C 0.80629 0.54132 0.02348 0.0
O1155 O 0.77105 0.59268 0.05485 0.0
O1156 O 0.78317 0.59186 0.02062 0.0
In1157 In 0.30483 0.42049 0.44796 0.0
O1158 O 0.32003 0.44578 0.47266 0.0
O1159 O 0.28854 0.45439 0.45672 0.0
C1160 C 0.332 0.38385 0.45249 0.0
C1161 C 0.26611 0.40353 0.46455 0.0
C1162 C 0.31996 0.43697 0.40824 0.0
O1163 O 0.33348 0.40093 0.46539 0.0
O1164 O 0.31673 0.38523 0.43759 0.0
O1165 O 0.30172 0.42563 0.40931 0.0
O1166 O 0.32978 0.44009 0.42694 0.0
C1167 C 0.30419 0.46011 0.47029 0.0
O1168 O 0.26876 0.4059 0.44334 0.0
O1169 O 0.28266 0.40966 0.47664 0.0
In1170 In 0.82928 0.55924 0.69953 0.0
O1171 O 0.807 0.57389 0.72738 0.0
O1172 O 0.79849 0.54116 0.71438 0.0
C1173 C 0.86354 0.58927 0.7002 0.0
C1174 C 0.85309 0.52253 0.71166 0.0
C1175 C 0.81094 0.57419 0.66044 0.0
O1176 O 0.84791 0.58948 0.71496 0.0
O1177 O 0.86177 0.57396 0.68532 0.0
O1178 O 0.82467 0.55766 0.66077 0.0
O1179 O 0.80562 0.58176 0.67968 0.0
C1180 C 0.79358 0.55715 0.72782 0.0
O1181 O 0.83826 0.52119 0.69613 0.0
O1182 O 0.85505 0.54172 0.7209 0.0
In1183 In 0.69146 0.08271 0.95265 0.0
O1184 O 0.72773 0.09575 0.94592 0.0
O1185 O 0.71512 0.09392 0.97994 0.0
C1186 C 0.67396 0.06495 0.91456 0.0
C1187 C 0.69196 0.04377 0.97605 0.0
C1188 C 0.66568 0.12038 0.95606 0.0
O1189 O 0.69283 0.07529 0.91431 0.0
O1190 O 0.66467 0.0635 0.93373 0.0
O1191 O 0.66419 0.10416 0.97004 0.0
O1192 O 0.68042 0.1177 0.9408 0.0
C1193 C 0.73136 0.09884 0.96689 0.0
O1194 O 0.67662 0.05858 0.97876 0.0
O1195 O 0.70718 0.04873 0.96173 0.0
In1196 In 0.66769 0.43687 0.20252 0.0
O1197 O 0.69264 0.42196 0.22769 0.0
O1198 O 0.70139 0.45333 0.2115 0.0
C1199 C 0.63113 0.40966 0.20538 0.0
C1200 C 0.65025 0.47485 0.22015 0.0
C1201 C 0.68388 0.42083 0.16306 0.0
O1202 O 0.64813 0.40743 0.2183 0.0
O1203 O 0.63245 0.42589 0.19151 0.0
O1204 O 0.67257 0.43914 0.16376 0.0
O1205 O 0.68745 0.41168 0.18203 0.0
C1206 C 0.70693 0.43784 0.22536 0.0
O1207 O 0.65414 0.47349 0.19901 0.0
O1208 O 0.65508 0.4574 0.23158 0.0
In1209 In 0.19092 0.41877 0.04693 0.0
O1210 O 0.22864 0.40874 0.05086 0.0
O1211 O 0.20829 0.39344 0.02498 0.0
C1212 C 0.1763 0.43802 0.08566 0.0
C1213 C 0.19324 0.4547 0.01901 0.0
C1214 C 0.1611 0.38431 0.04637 0.0
O1215 O 0.19296 0.42444 0.08553 0.0
O1216 O 0.1682 0.44245 0.06642 0.0
O1217 O 0.16119 0.39957 0.03123 0.0
O1218 O 0.17585 0.38668 0.06171 0.0
C1219 C 0.22726 0.39449 0.03479 0.0
O1220 O 0.1763 0.44154 0.01952 0.0
O1221 O 0.20937 0.44933 0.0321 0.0
In1222 In 0.83205 0.93742 0.7965 0.0
O1223 O 0.80803 0.92286 0.77018 0.0
O1224 O 0.79809 0.95328 0.78744 0.0
C1225 C 0.86935 0.91126 0.79272 0.0
C1226 C 0.84819 0.97717 0.7819 0.0
C1227 C 0.81543 0.91945 0.83494 0.0
O1228 O 0.85267 0.90947 0.77935 0.0
O1229 O 0.86739 0.92662 0.80749 0.0
O1230 O 0.82628 0.93803 0.83516 0.0
O1231 O 0.81256 0.9109 0.81558 0.0
C1232 C 0.79325 0.93824 0.77286 0.0
O1233 O 0.84414 0.97412 0.80281 0.0
O1234 O 0.84427 0.96044 0.76913 0.0
In1235 In 0.17483 0.55863 0.30155 0.0
O1236 O 0.16022 0.52233 0.30417 0.0
O1237 O 0.16331 0.53845 0.27177 0.0
C1238 C 0.19076 0.57375 0.34147 0.0
C1239 C 0.21479 0.55744 0.27981 0.0
C1240 C 0.13822 0.58587 0.298 0.0
O1241 O 0.17957 0.55539 0.34029 0.0
O1242 O 0.19408 0.58354 0.32277 0.0
O1243 O 0.15546 0.58807 0.28538 0.0
O1244 O 0.13945 0.56984 0.31211 0.0
C1245 C 0.15738 0.52112 0.28285 0.0
O1246 O 0.20077 0.57356 0.27731 0.0
O1247 O 0.20859 0.54184 0.29325 0.0
C1248 C 0.00254 0.2842 0.01117 0.0
C1249 C 0.00798 0.30489 0.02174 0.0
H1250 H 0.9862 0.26785 0.98299 0.0
C1251 C 0.00134 0.32532 0.01143 0.0
H1252 H 0.00753 0.26822 0.01878 0.0
C1253 C 0.98977 0.32512 0.99075 0.0
C1254 C 0.98412 0.30447 0.98026 0.0
H1255 H 0.00549 0.3415 0.01912 0.0
H1256 H 0.98495 0.34114 0.98312 0.0
C1257 C 0.99041 0.28399 0.99074 0.0
C1258 C 0.92272 0.24213 0.24098 0.0
C1259 C 0.94319 0.23585 0.23053 0.0
H1260 H 0.90691 0.25878 0.26922 0.0
C1261 C 0.96385 0.24214 0.24059 0.0
H1262 H 0.90658 0.23737 0.23355 0.0
C1263 C 0.96404 0.25486 0.26062 0.0
C1264 C 0.94357 0.26086 0.27124 0.0
H1265 H 0.97985 0.23754 0.23277 0.0
H1266 H 0.98017 0.25974 0.26797 0.0
C1267 C 0.92291 0.25424 0.26137 0.0
C1268 C 0.99378 0.17469 0.50948 0.0
C1269 C 0.98724 0.19512 0.51988 0.0
H1270 H 0.01086 0.1589 0.48157 0.0
C1271 C 0.9935 0.21582 0.50982 0.0
H1272 H 0.98903 0.1585 0.51678 0.0
C1273 C 0.00636 0.21605 0.48984 0.0
C1274 C 0.01261 0.19559 0.4793 0.0
H1275 H 0.98863 0.23181 0.51751 0.0
H1276 H 0.0112 0.23221 0.48251 0.0
C1277 C 0.00611 0.17493 0.48925 0.0
C1278 C 0.07787 0.24199 0.75838 0.0
C1279 C 0.05745 0.236 0.76908 0.0
H1280 H 0.09357 0.25751 0.72944 0.0
C1281 C 0.03674 0.24159 0.7587 0.0
H1282 H 0.09404 0.23774 0.76604 0.0
C1283 C 0.03648 0.25345 0.73814 0.0
C1284 C 0.05691 0.25916 0.7273 0.0
H1285 H 0.02079 0.23717 0.7667 0.0
H1286 H 0.02032 0.25789 0.73056 0.0
C1287 C 0.0776 0.25315 0.73746 0.0
C1288 C 0.98795 0.71337 0.00683 0.0
C1289 C 0.98296 0.69294 0.01805 0.0
H1290 H 0.00503 0.72927 0.97885 0.0
C1291 C 0.99074 0.67238 0.00885 0.0
H1292 H 0.98216 0.72945 0.01364 0.0
C1293 C 0.00326 0.67224 0.98872 0.0
C1294 C 0.00873 0.69269 0.97776 0.0
H1295 H 0.98701 0.65639 0.01714 0.0
H1296 H 0.00912 0.65614 0.98202 0.0
C1297 C 0.00102 0.71328 0.987 0.0
C1298 C 0.53468 0.25523 0.23815 0.0
C1299 C 0.55514 0.261 0.22738 0.0
H1300 H 0.51891 0.23876 0.26653 0.0
C1301 C 0.57581 0.25488 0.23753 0.0
H1302 H 0.51854 0.25976 0.2306 0.0
C1303 C 0.57603 0.2435 0.25834 0.0
C1304 C 0.55557 0.23746 0.26895 0.0
H1305 H 0.5918 0.25928 0.22958 0.0
H1306 H 0.59218 0.23912 0.26596 0.0
C1307 C 0.5349 0.24322 0.25861 0.0
C1308 C 0.00702 0.78264 0.50792 0.0
C1309 C 0.0131 0.80319 0.51837 0.0
H1310 H 0.9898 0.76664 0.48007 0.0
C1311 C 0.00677 0.82377 0.50814 0.0
H1312 H 0.01174 0.76655 0.51547 0.0
C1313 C 0.99481 0.82382 0.48767 0.0
C1314 C 0.98848 0.8033 0.47733 0.0
H1315 H 0.01139 0.83986 0.51575 0.0
H1316 H 0.9902 0.83995 0.48014 0.0
C1317 C 0.99453 0.78269 0.4877 0.0
C1318 C 0.46118 0.24394 0.73698 0.0
C1319 C 0.44059 0.23817 0.72647 0.0
H1320 H 0.4773 0.26048 0.76515 0.0
C1321 C 0.42005 0.24438 0.73681 0.0
H1322 H 0.47723 0.23935 0.72924 0.0
C1323 C 0.42009 0.25579 0.75761 0.0
C1324 C 0.44068 0.26183 0.76797 0.0
H1325 H 0.40397 0.23999 0.72905 0.0
H1326 H 0.40404 0.26019 0.76543 0.0
C1327 C 0.46123 0.25603 0.7574 0.0
C1328 C 0.98449 0.99852 0.28688 0.0
C1329 C 0.97429 0.99146 0.30724 0.0
H1330 H 0.01243 0.01605 0.2714 0.0
C1331 C 0.98469 0.99689 0.32798 0.0
H1332 H 0.97678 0.99451 0.27067 0.0
C1333 C 0.00531 0.00857 0.32837 0.0
C1334 C 0.01554 0.0156 0.30804 0.0
H1335 H 0.97724 0.9915 0.34391 0.0
H1336 H 0.01322 0.01216 0.34457 0.0
C1337 C 0.0048 0.01082 0.2873 0.0
C1338 C 0.24191 0.25813 0.53203 0.0
C1339 C 0.23592 0.26845 0.55268 0.0
H1340 H 0.25902 0.23035 0.51578 0.0
C1341 C 0.2422 0.25799 0.57315 0.0
H1342 H 0.23721 0.26584 0.51601 0.0
C1343 C 0.25409 0.23749 0.57302 0.0
C1344 C 0.26039 0.22731 0.55241 0.0
H1345 H 0.23764 0.2655 0.58932 0.0
H1346 H 0.25871 0.22982 0.58908 0.0
C1347 C 0.25432 0.23786 0.5319 0.0
C1348 C 0.98712 0.49226 0.78831 0.0
C1349 C 0.97641 0.48647 0.80879 0.0
H1350 H 0.01534 0.50899 0.77249 0.0
C1351 C 0.98649 0.49274 0.82944 0.0
H1352 H 0.97959 0.48764 0.77218 0.0
C1353 C 0.0072 0.5043 0.82963 0.0
C1354 C 0.01774 0.51041 0.80916 0.0
H1355 H 0.97857 0.48835 0.84545 0.0
H1356 H 0.01479 0.50879 0.84577 0.0
C1357 C 0.00746 0.50449 0.78849 0.0
C1358 C 0.75536 0.23967 0.07513 0.0
C1359 C 0.76228 0.22969 0.05462 0.0
H1360 H 0.73781 0.26715 0.09117 0.0
C1361 C 0.75626 0.24008 0.03402 0.0
H1362 H 0.75991 0.2321 0.09126 0.0
C1363 C 0.74324 0.25998 0.03395 0.0
C1364 C 0.73659 0.27008 0.05451 0.0
H1365 H 0.76142 0.23272 0.01797 0.0
H1366 H 0.73858 0.26756 0.01786 0.0
C1367 C 0.74286 0.25981 0.07508 0.0
C1368 C 0.00704 0.99054 0.66998 0.0
C1369 C 0.01686 0.9834 0.69047 0.0
H1370 H 0.97924 0.00761 0.65395 0.0
C1371 C 0.00572 0.98809 0.71102 0.0
H1372 H 0.01528 0.98701 0.65392 0.0
C1373 C 0.98538 0.00036 0.71108 0.0
C1374 C 0.97557 0.00747 0.69056 0.0
H1375 H 0.01303 0.98278 0.72704 0.0
H1376 H 0.97732 0.00426 0.72715 0.0
C1377 C 0.9864 0.00218 0.67 0.0
C1378 C 0.24338 0.23773 0.96155 0.0
C1379 C 0.23714 0.22725 0.94107 0.0
H1380 H 0.26103 0.26535 0.97739 0.0
C1381 C 0.24367 0.23718 0.92041 0.0
H1382 H 0.23857 0.23034 0.97769 0.0
C1383 C 0.25595 0.2575 0.92024 0.0
C1384 C 0.26247 0.2678 0.94072 0.0
H1385 H 0.23896 0.22945 0.90441 0.0
H1386 H 0.26064 0.26496 0.9041 0.0
C1387 C 0.25624 0.25767 0.96137 0.0
C1388 C 0.01166 0.49762 0.17214 0.0
C1389 C 0.0219 0.49098 0.19261 0.0
H1390 H 0.9833 0.51377 0.15619 0.0
C1391 C 0.01107 0.49608 0.21324 0.0
H1392 H 0.01956 0.49373 0.15599 0.0
C1393 C 0.99048 0.50796 0.21337 0.0
C1394 C 0.98012 0.5143 0.19284 0.0
H1395 H 0.01863 0.49109 0.22924 0.0
H1396 H 0.98255 0.51195 0.22947 0.0
C1397 C 0.99084 0.50892 0.17225 0.0
C1398 C 0.74392 0.23967 0.42431 0.0
C1399 C 0.73713 0.22974 0.44488 0.0
H1400 H 0.76137 0.2671 0.4081 0.0
C1401 C 0.74327 0.24018 0.46542 0.0
H1402 H 0.73928 0.23206 0.40822 0.0
C1403 C 0.75627 0.26008 0.46536 0.0
C1404 C 0.76281 0.27012 0.44474 0.0
H1405 H 0.7382 0.23286 0.48151 0.0
H1406 H 0.76103 0.26771 0.4814 0.0
C1407 C 0.75641 0.2598 0.42423 0.0
C1408 C 0.32503 0.98893 0.9899 0.0
C1409 C 0.30462 0.9795 0.98202 0.0
H1410 H 0.3409 0.01619 0.00798 0.0
C1411 C 0.28408 0.99075 0.9865 0.0
H1412 H 0.34109 0.98063 0.98655 0.0
C1413 C 0.28392 0.01083 -0.00081 0.0
C1414 C 0.30436 0.02029 0.007 0.0
H1415 H 0.26812 0.98377 0.98062 0.0
H1416 H 0.26785 0.01899 0.00284 0.0
C1417 C 0.32492 0.00932 0.00201 0.0
C1418 C 0.82695 0.0091 0.5039 0.0
C1419 C 0.80634 0.01938 0.51 0.0
H1420 H 0.84318 0.9803 0.48862 0.0
C1421 C 0.78583 0.00843 0.50476 0.0
H1422 H 0.84297 0.01718 0.5079 0.0
C1423 C 0.78594 0.98768 0.49321 0.0
C1424 C 0.80657 0.97723 0.48745 0.0
H1425 H 0.76973 0.01607 0.50929 0.0
H1426 H 0.76992 0.97965 0.48908 0.0
C1427 C 0.82707 0.988 0.49304 0.0
C1428 C 0.25857 0.03402 0.74261 0.0
C1429 C 0.26933 0.0547 0.73757 0.0
H1430 H 0.23039 0.01762 0.7589 0.0
C1431 C 0.25927 0.07509 0.74472 0.0
H1432 H 0.266 0.01807 0.73725 0.0
C1433 C 0.2387 0.07486 0.75648 0.0
C1434 C 0.22809 0.05421 0.76183 0.0
H1435 H 0.26712 0.09128 0.74091 0.0
H1436 H 0.23132 0.09087 0.76175 0.0
C1437 C 0.23825 0.03376 0.75494 0.0
C1438 C 0.21383 0.48598 0.99905 0.0
C1439 C 0.19331 0.47584 0.00568 0.0
H1440 H 0.22976 0.51418 0.98239 0.0
C1441 C 0.17273 0.48671 0.00055 0.0
H1442 H 0.2299 0.47791 0.00287 0.0
C1443 C 0.17268 0.50768 0.98949 0.0
C1444 C 0.19317 0.51781 0.98282 0.0
H1445 H 0.15668 0.47932 0.00565 0.0
H1446 H 0.15659 0.5159 0.98601 0.0
C1447 C 0.21374 0.50666 0.98738 0.0
C1448 C 0.25971 0.92282 0.2547 0.0
C1449 C 0.26977 0.94352 0.26086 0.0
H1450 H 0.23141 0.90626 0.23905 0.0
C1451 C 0.25876 0.96394 0.25534 0.0
H1452 H 0.26777 0.90683 0.25892 0.0
C1453 C 0.23813 0.96362 0.24355 0.0
C1454 C 0.22791 0.94286 0.23775 0.0
H1455 H 0.26618 0.98012 0.25996 0.0
H1456 H 0.23003 0.97955 0.23924 0.0
C1457 C 0.23884 0.92249 0.24351 0.0
C1458 C 0.71193 0.98997 0.0047 0.0
C1459 C 0.69124 0.97961 0.01034 0.0
H1460 H 0.72833 0.01837 0.98885 0.0
C1461 C 0.6708 0.99057 0.00488 0.0
H1462 H 0.7279 0.98179 0.00874 0.0
C1463 C 0.67106 0.01175 0.99419 0.0
C1464 C 0.69175 0.02192 0.98816 0.0
H1465 H 0.65465 0.98294 0.00921 0.0
H1466 H 0.65509 0.01997 0.99023 0.0
C1467 C 0.71218 0.01081 0.99333 0.0
C1468 C 0.25942 0.42219 0.7565 0.0
C1469 C 0.26979 0.44294 0.76197 0.0
H1470 H 0.23111 0.40554 0.74098 0.0
C1471 C 0.25932 0.46331 0.75533 0.0
H1472 H 0.26704 0.40624 0.76157 0.0
C1473 C 0.23893 0.46289 0.74313 0.0
C1474 C 0.22841 0.44211 0.738 0.0
H1475 H 0.267 0.47952 0.75939 0.0
H1476 H 0.23125 0.47878 0.73797 0.0
C1477 C 0.23878 0.42179 0.74488 0.0
C1478 C 0.73993 0.08059 0.25605 0.0
C1479 C 0.72921 0.06018 0.26203 0.0
H1480 H 0.7686 0.09625 0.24002 0.0
C1481 C 0.73921 0.03945 0.25582 0.0
H1482 H 0.73256 0.09678 0.26075 0.0
C1483 C 0.75945 0.03917 0.24342 0.0
C1484 C 0.77033 0.05959 0.23773 0.0
H1485 H 0.73117 0.0235 0.26021 0.0
H1486 H 0.76676 0.023 0.23857 0.0
C1487 C 0.76053 0.08029 0.24431 0.0
C1488 C 0.9635 0.75521 0.75815 0.0
C1489 C 0.94309 0.76173 0.76857 0.0
H1490 H 0.97914 0.73803 0.7301 0.0
C1491 C 0.92238 0.75633 0.75809 0.0
H1492 H 0.97967 0.75916 0.76597 0.0
C1493 C 0.9221 0.74488 0.73731 0.0
C1494 C 0.9425 0.73803 0.72707 0.0
H1495 H 0.90643 0.76131 0.76577 0.0
H1496 H 0.90593 0.74103 0.72944 0.0
C1497 C 0.96319 0.74312 0.73773 0.0
C1498 C 0.03513 0.73518 0.25466 0.0
C1499 C 0.05572 0.73044 0.26569 0.0
H1500 H 0.01891 0.75134 0.2263 0.0
C1501 C 0.07619 0.73738 0.25568 0.0
H1502 H 0.01913 0.73002 0.2621 0.0
C1503 C 0.07609 0.74891 0.23497 0.0
C1504 C 0.0555 0.75429 0.22426 0.0
H1505 H 0.09228 0.73379 0.26383 0.0
H1506 H 0.09212 0.75423 0.22769 0.0
C1507 C 0.035 0.74735 0.23425 0.0
C1508 C 0.57683 0.75474 0.73868 0.0
C1509 C 0.55615 0.76122 0.72879 0.0
H1510 H 0.59324 0.73802 0.76655 0.0
C1511 C 0.53571 0.75511 0.7394 0.0
H1512 H 0.59281 0.75936 0.73083 0.0
C1513 C 0.53596 0.74242 0.75945 0.0
C1514 C 0.55664 0.73629 0.76955 0.0
H1515 H 0.51955 0.75989 0.73203 0.0
H1516 H 0.51998 0.73773 0.76725 0.0
C1517 C 0.57708 0.74266 0.7591 0.0
C1518 C 0.41957 0.74126 0.24068 0.0
C1519 C 0.44034 0.73587 0.23031 0.0
H1520 H 0.40295 0.75677 0.26912 0.0
C1521 C 0.46068 0.74259 0.24073 0.0
H1522 H 0.40367 0.73614 0.23299 0.0
C1523 C 0.46025 0.75489 0.26102 0.0
C1524 C 0.43949 0.76 0.27155 0.0
H1525 H 0.4769 0.73867 0.23299 0.0
H1526 H 0.47614 0.76013 0.26864 0.0
C1527 C 0.41917 0.75292 0.26134 0.0
C1528 C 0.25642 0.74012 0.03363 0.0
C1529 C 0.26237 0.72996 0.05436 0.0
H1530 H 0.23976 0.76802 0.01714 0.0
C1531 C 0.25655 0.74085 0.07475 0.0
H1532 H 0.26078 0.73206 0.01768 0.0
C1533 C 0.24518 0.76165 0.07443 0.0
C1534 C 0.2389 0.77166 0.05373 0.0
H1535 H 0.26112 0.73347 0.09096 0.0
H1536 H 0.2409 0.76968 0.09042 0.0
C1537 C 0.24447 0.76066 0.03332 0.0
C1538 C 0.75331 0.73879 0.57459 0.0
C1539 C 0.75979 0.72849 0.5541 0.0
H1540 H 0.73633 0.76667 0.59056 0.0
C1541 C 0.75363 0.73872 0.53346 0.0
H1542 H 0.758 0.73135 0.59074 0.0
C1543 C 0.74087 0.75878 0.53336 0.0
C1544 C 0.73462 0.76918 0.55388 0.0
H1545 H 0.75847 0.73111 0.51744 0.0
H1546 H 0.73608 0.76624 0.51725 0.0
C1547 C 0.74107 0.75908 0.57448 0.0
C1548 C 0.23486 0.74412 0.46433 0.0
C1549 C 0.2304 0.73285 0.4438 0.0
H1550 H 0.25125 0.77234 0.48054 0.0
C1551 C 0.23812 0.74236 0.42337 0.0
H1552 H 0.22911 0.73707 0.48032 0.0
C1553 C 0.2502 0.76277 0.42345 0.0
C1554 C 0.2553 0.77369 0.44401 0.0
H1555 H 0.23478 0.73405 0.40731 0.0
H1556 H 0.25614 0.76963 0.40745 0.0
C1557 C 0.24751 0.76423 0.46447 0.0
C1558 C 0.74396 0.73574 0.92421 0.0
C1559 C 0.73733 0.7262 0.94502 0.0
H1560 H 0.76114 0.76296 0.90736 0.0
C1561 C 0.74364 0.73701 0.96532 0.0
H1562 H 0.73919 0.72784 0.90831 0.0
C1563 C 0.75657 0.75694 0.96478 0.0
C1564 C 0.76286 0.76665 0.94393 0.0
H1565 H 0.73869 0.72999 0.98158 0.0
H1566 H 0.7614 0.76491 0.98064 0.0
C1567 C 0.75637 0.75591 0.92367 0.0
C1568 C 0.32458 0.51237 0.50136 0.0
C1569 C 0.30403 0.52312 0.50685 0.0
H1570 H 0.34066 0.48365 0.48585 0.0
C1571 C 0.2835 0.5133 0.49977 0.0
H1572 H 0.34064 0.51951 0.50676 0.0
C1573 C 0.28354 0.49303 0.48737 0.0
C1574 C 0.30408 0.48197 0.48247 0.0
H1575 H 0.26744 0.52128 0.50383 0.0
H1576 H 0.26751 0.48573 0.48212 0.0
C1577 C 0.32459 0.49181 0.48954 0.0
C1578 C 0.78509 0.48876 0.99338 0.0
C1579 C 0.8055 0.47889 0.98603 0.0
H1580 H 0.76943 0.51615 0.01159 0.0
C1581 C 0.82615 0.48966 0.99106 0.0
H1582 H 0.76897 0.4807 0.98974 0.0
C1583 C 0.82636 0.5102 0.00294 0.0
C1584 C 0.80598 0.5199 0.01059 0.0
H1585 H 0.84209 0.4824 0.98546 0.0
H1586 H 0.84248 0.51833 0.00645 0.0
C1587 C 0.78536 0.50893 0.0059 0.0
C1588 C 0.26715 0.53546 0.24984 0.0
C1589 C 0.27762 0.55574 0.24295 0.0
H1590 H 0.23919 0.52015 0.26744 0.0
C1591 C 0.2677 0.57658 0.24895 0.0
H1592 H 0.27447 0.51918 0.24539 0.0
C1593 C 0.24724 0.57711 0.26095 0.0
C1594 C 0.2367 0.55684 0.26773 0.0
H1595 H 0.27534 0.59245 0.24369 0.0
H1596 H 0.23965 0.59339 0.26494 0.0
C1597 C 0.24703 0.53601 0.26244 0.0
C1598 C 0.2121 0.98924 0.50583 0.0
C1599 C 0.19156 0.979 0.5122 0.0
H1600 H 0.2281 0.0167 0.48807 0.0
C1601 C 0.17097 0.98918 0.50587 0.0
H1602 H 0.22819 0.98163 0.51048 0.0
C1603 C 0.17093 0.00953 0.49366 0.0
C1604 C 0.19147 0.01958 0.48698 0.0
H1605 H 0.15492 0.98162 0.51069 0.0
H1606 H 0.15484 0.0172 0.48911 0.0
C1607 C 0.21205 0.0092 0.49299 0.0
C1608 C 0.71066 0.5082 0.49216 0.0
C1609 C 0.68991 0.51863 0.48686 0.0
H1610 H 0.72724 0.47995 0.50809 0.0
C1611 C 0.66954 0.50795 0.49305 0.0
H1612 H 0.72658 0.51618 0.48757 0.0
C1613 C 0.66991 0.48696 0.50409 0.0
C1614 C 0.69066 0.47673 0.50977 0.0
H1615 H 0.65333 0.51566 0.48901 0.0
H1616 H 0.65399 0.47894 0.50859 0.0
C1617 C 0.71104 0.48757 0.50389 0.0
C1618 C 0.74142 0.57788 0.75869 0.0
C1619 C 0.73121 0.55741 0.76533 0.0
H1620 H 0.7696 0.59379 0.74214 0.0
C1621 C 0.74208 0.53678 0.76035 0.0
H1622 H 0.73341 0.59401 0.76247 0.0
C1623 C 0.76252 0.53663 0.74824 0.0
C1624 C 0.77271 0.55713 0.7416 0.0
H1625 H 0.73448 0.52078 0.76528 0.0
H1626 H 0.77034 0.52052 0.74407 0.0
C1627 C 0.76216 0.57776 0.74722 0.0
C1628 C 0.50445 0.32542 0.51068 0.0
C1629 C 0.51013 0.30471 0.521 0.0
H1630 H 0.48828 0.34199 0.48266 0.0
C1631 C 0.5032 0.28431 0.51077 0.0
H1632 H 0.50974 0.34139 0.51812 0.0
C1633 C 0.49057 0.28467 0.49064 0.0
C1634 C 0.48522 0.30541 0.48016 0.0
H1635 H 0.50742 0.26811 0.51839 0.0
H1636 H 0.48524 0.26875 0.48315 0.0
C1637 C 0.49233 0.32576 0.49031 0.0
C1638 C 0.50558 0.17427 0.98821 0.0
C1639 C 0.51082 0.19479 0.9773 0.0
H1640 H 0.48986 0.15817 0.01674 0.0
C1641 C 0.50359 0.21533 0.98703 0.0
H1642 H 0.51111 0.1582 0.98116 0.0
C1643 C 0.49105 0.21529 0.00721 0.0
C1644 C 0.48613 0.19475 0.01827 0.0
H1645 H 0.50747 0.23139 0.97894 0.0
H1646 H 0.48543 0.23131 0.0143 0.0
C1647 C 0.49359 0.17426 0.00865 0.0
C1648 C 0.50417 0.7164 0.48978 0.0
C1649 C 0.51079 0.69574 0.47988 0.0
H1650 H 0.48681 0.73268 0.5174 0.0
C1651 C 0.50541 0.6753 0.49089 0.0
H1652 H 0.50818 0.73239 0.48162 0.0
C1653 C 0.49383 0.6755 0.51156 0.0
C1654 C 0.48691 0.6961 0.52133 0.0
H1655 H 0.51049 0.65914 0.48371 0.0
H1656 H 0.48994 0.65947 0.51969 0.0
C1657 C 0.49202 0.71657 0.51021 0.0
C1658 C 0.49046 0.82458 0.98938 0.0
C1659 C 0.48433 0.80391 0.97923 0.0
H1660 H 0.50684 0.84106 0.01731 0.0
C1661 C 0.49043 0.78346 0.98988 0.0
H1662 H 0.48581 0.8406 0.98162 0.0
C1663 C 0.50284 0.78372 0.01015 0.0
C1664 C 0.50877 0.80444 0.02037 0.0
H1665 H 0.48586 0.76729 0.98239 0.0
H1666 H 0.50765 0.76776 0.0179 0.0
C1667 C 0.50233 0.82485 0.00988 0.0
C1668 C 0.49113 0.99047 0.82758 0.0
C1669 C 0.48146 0.98341 0.80699 0.0
H1670 H 0.51889 0.00735 0.84388 0.0
C1671 C 0.4928 0.98806 0.78655 0.0
H1672 H 0.48274 0.98696 0.84357 0.0
C1673 C 0.51321 0.00021 0.78669 0.0
C1674 C 0.52289 0.00723 0.80731 0.0
H1675 H 0.48562 0.98281 0.77046 0.0
H1676 H 0.52144 0.00408 0.7707 0.0
C1677 C 0.51184 0.00199 0.82777 0.0
C1678 C 0.50381 0.5062 0.28475 0.0
C1679 C 0.51344 0.51203 0.30577 0.0
H1680 H 0.47631 0.48966 0.26749 0.0
C1681 C 0.50183 0.50649 0.32583 0.0
H1682 H 0.51244 0.51034 0.26905 0.0
C1683 C 0.48092 0.49535 0.32492 0.0
C1684 C 0.47154 0.48899 0.30395 0.0
H1685 H 0.50882 0.51097 0.34224 0.0
H1686 H 0.47238 0.49116 0.34066 0.0
C1687 C 0.48318 0.49444 0.28386 0.0
C1688 C 0.51023 0.99673 0.16945 0.0
C1689 C 0.52131 0.99193 0.19 0.0
H1690 H 0.4809 0.01102 0.15337 0.0
C1691 C 0.51137 0.99893 0.21051 0.0
H1692 H 0.51747 0.99135 0.15342 0.0
C1693 C 0.49072 0.01066 0.21044 0.0
C1694 C 0.47938 0.01489 0.1899 0.0
H1695 H 0.5196 0.99538 0.22657 0.0
H1696 H 0.48337 0.01594 0.22644 0.0
C1697 C 0.48928 0.00782 0.16942 0.0
C1698 C 0.51017 0.49569 0.66956 0.0
C1699 C 0.521 0.4905 0.69015 0.0
H1700 H 0.48118 0.51059 0.65338 0.0
C1701 C 0.51096 0.49736 0.71065 0.0
H1702 H 0.51749 0.49044 0.65352 0.0
C1703 C 0.49045 0.50936 0.71053 0.0
C1704 C 0.47936 0.51401 0.68995 0.0
H1705 H 0.519 0.49353 0.72674 0.0
H1706 H 0.48302 0.51453 0.72654 0.0
C1707 C 0.48936 0.50707 0.66948 0.0
C1708 C 0.74077 0.91781 0.74234 0.0
C1709 C 0.73027 0.93839 0.7365 0.0
H1710 H 0.76941 0.90172 0.75799 0.0
C1711 C 0.74066 0.95896 0.74254 0.0
H1712 H 0.73308 0.90174 0.73775 0.0
C1713 C 0.76106 0.95894 0.75467 0.0
C1714 C 0.77172 0.93835 0.76022 0.0
H1715 H 0.7328 0.97503 0.73826 0.0
H1716 H 0.76868 0.97499 0.75943 0.0
C1717 C 0.76153 0.9178 0.75379 0.0
C1718 C 0.75948 0.45881 0.25563 0.0
C1719 C 0.77023 0.43829 0.26124 0.0
H1720 H 0.73109 0.47473 0.23926 0.0
C1721 C 0.76006 0.41767 0.25498 0.0
H1722 H 0.76707 0.47491 0.26024 0.0
C1723 C 0.73925 0.41756 0.24361 0.0
C1724 C 0.72866 0.43807 0.23769 0.0
H1725 H 0.76801 0.40164 0.25921 0.0
H1726 H 0.73161 0.40144 0.23913 0.0
C1727 C 0.73901 0.4587 0.2436 0.0
C1728 C 0.02439 0.2321 0.11028 0.0
C1729 C 0.02949 0.25384 0.11864 0.0
H1730 H 0.00487 0.20167 0.11559 0.0
C1731 C 0.02305 0.25972 0.14076 0.0
H1732 H 0.02911 0.22738 0.09314 0.0
C1733 C 0.00947 0.24523 0.15343 0.0
C1734 C 0.00209 0.22461 0.14418 0.0
H1735 H 0.02696 0.27637 0.14757 0.0
H1736 H 0.00309 0.25103 0.1697 0.0
C1737 C 0.01063 0.21744 0.12309 0.0
C1738 C 0.01255 0.28278 0.37795 0.0
C1739 C 0.00417 0.27516 0.35695 0.0
H1740 H 0.0316 0.27376 0.40784 0.0
C1741 C 0.01235 0.25482 0.34775 0.0
H1742 H 0.00619 0.29834 0.38541 0.0
C1743 C 0.02666 0.24099 0.36038 0.0
C1744 C 0.033 0.24723 0.38245 0.0
H1745 H 0.00612 0.24869 0.33156 0.0
H1746 H 0.03123 0.2245 0.3536 0.0
C1747 C 0.02701 0.26876 0.39075 0.0
C1748 C 0.9726 0.26698 0.60797 0.0
C1749 C 0.96622 0.24564 0.61648 0.0
H1750 H 0.9941 0.29612 0.61291 0.0
C1751 C 0.97252 0.23949 0.63859 0.0
H1752 H 0.96806 0.27189 0.59084 0.0
C1753 C 0.98721 0.25311 0.65101 0.0
C1754 C 0.99578 0.27316 0.64157 0.0
H1755 H 0.96768 0.22313 0.6455 0.0
H1756 H 0.99345 0.24697 0.6672 0.0
C1757 C 0.98742 0.28079 0.62056 0.0
C1758 C 0.97787 0.26198 0.86067 0.0
C1759 C 0.96956 0.25467 0.88173 0.0
H1760 H 0.0001 0.25518 0.83291 0.0
C1761 C 0.97424 0.23247 0.88911 0.0
H1762 H 0.97428 0.27896 0.85454 0.0
C1763 C 0.98913 0.21868 0.87653 0.0
C1764 C -0.00073 0.22717 0.85667 0.0
H1765 H 0.96808 0.2266 0.90541 0.0
H1766 H 0.99425 0.20239 0.88335 0.0
C1767 C 0.99259 0.24838 0.84828 0.0
C1768 C 0.02426 0.73765 0.8596 0.0
C1769 C 0.03091 0.74393 0.88156 0.0
H1770 H 0.0039 0.74565 0.83074 0.0
C1771 C 0.02558 0.76573 0.88965 0.0
H1772 H 0.02837 0.72098 0.85294 0.0
C1773 C 0.01149 0.78003 0.87675 0.0
C1774 C 0.00282 0.77245 0.85585 0.0
H1775 H 0.03046 0.77081 0.90664 0.0
H1776 H 0.00567 0.79588 0.88404 0.0
C1777 C 0.01032 0.75176 0.84688 0.0
C1778 C 0.48667 0.28152 0.11977 0.0
C1779 C 0.49489 0.27404 0.14089 0.0
H1780 H 0.46793 0.27225 0.08976 0.0
C1781 C 0.48668 0.25375 0.15014 0.0
H1782 H 0.49307 0.29703 0.11227 0.0
C1783 C 0.47252 0.23981 0.13747 0.0
C1784 C 0.46636 0.24589 0.11531 0.0
H1785 H 0.4928 0.24772 0.16642 0.0
H1786 H 0.46796 0.22332 0.14427 0.0
C1787 C 0.47236 0.26739 0.10693 0.0
C1788 C 0.97836 0.75991 0.35832 0.0
C1789 C 0.97026 0.75307 0.37962 0.0
H1790 H -0.00038 0.75207 0.33009 0.0
C1791 C 0.97426 0.73075 0.38704 0.0
H1792 H 0.97529 0.77697 0.35214 0.0
C1793 C 0.98832 0.71631 0.37424 0.0
C1794 C 0.9983 0.72425 0.35405 0.0
H1795 H 0.96824 0.72522 0.40351 0.0
H1796 H 0.99299 0.69989 0.38108 0.0
C1797 C 0.99223 0.74565 0.34568 0.0
C1798 C 0.52446 0.25768 0.63899 0.0
C1799 C 0.53085 0.25193 0.61679 0.0
H1800 H 0.50336 0.24971 0.66733 0.0
C1801 C 0.52444 0.23078 0.60783 0.0
H1802 H 0.52934 0.27386 0.64626 0.0
C1803 C 0.50951 0.21679 0.62007 0.0
C1804 C 0.50108 0.22403 0.64118 0.0
H1805 H 0.52906 0.22617 0.59064 0.0
H1806 H 0.50281 0.20163 0.6121 0.0
C1807 C 0.50966 0.24387 0.65106 0.0
C1808 C 0.09578 0.9987 0.24617 0.0
C1809 C 0.10385 0.02041 0.25153 0.0
H1810 H 0.10237 0.96724 0.22956 0.0
C1811 C 0.12346 0.02864 0.2407 0.0
H1812 H 0.0806 0.99208 0.2542 0.0
C1813 C 0.1361 0.01424 0.22645 0.0
C1814 C 0.12906 0.99169 0.22313 0.0
H1815 H 0.13003 0.04532 0.24479 0.0
H1816 H 0.15219 0.02004 0.21971 0.0
C1817 C 0.10825 0.98449 0.23212 0.0
C1818 C 0.22589 0.38835 0.51068 0.0
C1819 C 0.21801 0.36711 0.50339 0.0
H1820 H 0.247 0.41685 0.5035 0.0
C1821 C 0.22219 0.36009 0.48099 0.0
H1822 H 0.22265 0.3942 0.52782 0.0
C1823 C 0.23626 0.37324 0.46689 0.0
C1824 C 0.24606 0.39332 0.47528 0.0
H1825 H 0.21634 0.34367 0.47514 0.0
H1826 H 0.24108 0.36671 0.45039 0.0
C1827 C 0.23977 0.40132 0.49676 0.0
C1828 C 0.88968 0.50852 0.72574 0.0
C1829 C 0.86727 0.50361 0.71947 0.0
H1830 H 0.91799 0.49917 0.74633 0.0
C1831 C 0.85775 0.48257 0.72543 0.0
H1832 H 0.89736 0.52462 0.7212 0.0
C1833 C 0.86971 0.46785 0.73988 0.0
C1834 C 0.89112 0.47423 0.74823 0.0
H1835 H 0.84038 0.47861 0.72091 0.0
H1836 H 0.86134 0.45281 0.74633 0.0
C1837 C 0.9015 0.49397 0.74003 0.0
C1838 C 0.77515 0.11108 0.01037 0.0
C1839 C 0.78203 0.13297 0.00406 0.0
H1840 H 0.75383 0.08279 0.00285 0.0
C1841 C 0.77615 0.14137 0.98253 0.0
H1842 H 0.77965 0.10422 0.02685 0.0
C1843 C 0.76129 0.12892 0.96863 0.0
C1844 C 0.7524 0.10817 0.97635 0.0
H1845 H 0.78116 0.15832 0.97747 0.0
H1846 H 0.75506 0.13649 0.95308 0.0
C1847 C 0.76044 0.09881 0.99666 0.0
C1848 C 0.13707 0.98203 0.77371 0.0
C1849 C 0.12987 0.00441 0.77782 0.0
H1850 H 0.13114 0.95152 0.75441 0.0
C1851 C 0.10891 0.0117 0.76922 0.0
H1852 H 0.15326 0.97614 0.78013 0.0
C1853 C 0.09647 0.99785 0.75478 0.0
C1854 C 0.10469 0.9764 0.74866 0.0
H1855 H 0.10288 0.02879 0.7724 0.0
H1856 H 0.08119 0.0046 0.74707 0.0
C1857 C 0.12445 0.968 0.75909 0.0
C1858 C 0.26732 0.38801 0.02202 0.0
C1859 C 0.24573 0.3795 0.02744 0.0
H1860 H 0.29756 0.38281 0.00217 0.0
C1861 C 0.23999 0.35726 0.02124 0.0
H1862 H 0.27193 0.40524 0.02652 0.0
C1863 C 0.25443 0.34462 0.00756 0.0
C1864 C 0.27487 0.35399 -0.00012 0.0
H1865 H 0.22345 0.35035 0.02538 0.0
H1866 H 0.24871 0.32827 0.00135 0.0
C1867 C 0.28194 0.37521 0.00818 0.0
C1868 C 0.86081 0.51781 0.23439 0.0
C1869 C 0.88136 0.52714 0.24193 0.0
H1870 H 0.83375 0.49476 0.24119 0.0
C1871 C 0.8884 0.52333 0.26441 0.0
H1872 H 0.8549 0.52073 0.21721 0.0
C1873 C 0.87608 0.50834 0.27832 0.0
C1874 C 0.8568 0.49724 0.26969 0.0
H1875 H 0.90428 0.53031 0.27049 0.0
H1876 H 0.88268 0.50396 0.29491 0.0
C1877 C 0.84868 0.50299 0.24811 0.0
C1878 C 0.73773 0.12751 0.53042 0.0
C1879 C 0.74608 0.10665 0.52238 0.0
H1880 H 0.71847 0.15747 0.52211 0.0
C1881 C 0.73764 0.09771 0.50204 0.0
H1882 H 0.74428 0.13476 0.546 0.0
C1883 C 0.72307 0.11048 0.48862 0.0
C1884 C 0.71676 0.13245 0.49525 0.0
H1885 H 0.74382 0.08162 0.4956 0.0
H1886 H 0.71828 0.10393 0.4721 0.0
C1887 C 0.72303 0.14046 0.51681 0.0
C1888 C 0.24296 0.15072 0.00979 0.0
C1889 C 0.2228 0.1413 0.00147 0.0
H1890 H 0.27344 0.14505 0.02847 0.0
C1891 C 0.21561 0.11998 0.00943 0.0
H1892 H 0.24877 0.16714 0.00386 0.0
C1893 C 0.2299 0.10716 0.02359 0.0
C1894 C 0.25129 0.11574 0.02969 0.0
H1895 H 0.20021 0.11235 0.00292 0.0
H1896 H 0.22526 0.08988 0.02782 0.0
C1897 C 0.25706 0.13806 0.02381 0.0
C1898 C 0.72424 0.88786 0.51007 0.0
C1899 C 0.71673 0.86627 0.50344 0.0
H1900 H 0.7463 0.91568 0.50292 0.0
C1901 C 0.72239 0.85801 0.48179 0.0
H1902 H 0.71992 0.89463 0.52663 0.0
C1903 C 0.73756 0.87025 0.46805 0.0
C1904 C 0.74701 0.89065 0.47605 0.0
H1905 H 0.71688 0.84129 0.47647 0.0
H1906 H 0.74352 0.86277 0.45234 0.0
C1907 C 0.73929 0.89991 0.49653 0.0
C1908 C 0.38909 0.01237 0.72848 0.0
C1909 C 0.36777 0.00544 0.72053 0.0
H1910 H 0.4174 0.00469 0.74969 0.0
C1911 C 0.36043 0.98311 0.72459 0.0
H1912 H 0.39518 0.02945 0.72534 0.0
C1913 C 0.37333 0.96877 0.73865 0.0
C1914 C 0.3935 0.97682 0.74854 0.0
H1915 H 0.34394 0.97753 0.71868 0.0
H1916 H 0.36654 0.95236 0.74343 0.0
C1917 C 0.40182 0.9982 0.74235 0.0
C1918 C 0.26052 0.6265 0.96817 0.0
C1919 C 0.25073 0.60624 0.97613 0.0
H1920 H 0.28054 0.65583 0.97702 0.0
C1921 C 0.25711 0.59774 0.99739 0.0
H1922 H 0.25562 0.63342 0.95186 0.0
C1923 C 0.27107 0.61037 0.01155 0.0
C1924 C 0.27897 0.63174 0.00473 0.0
H1925 H 0.24989 0.58207 0.00379 0.0
H1926 H 0.27437 0.60413 0.02855 0.0
C1927 C 0.27469 0.63929 0.98251 0.0
C1928 C 0.75951 0.87201 0.02704 0.0
C1929 C 0.74874 0.89131 0.01802 0.0
H1930 H 0.78094 0.84325 0.01975 0.0
C1931 C 0.7546 0.89888 0.99627 0.0
H1932 H 0.75505 0.86584 0.04377 0.0
C1933 C 0.76914 0.88619 0.98278 0.0
C1934 C 0.77811 0.86563 0.99073 0.0
H1935 H 0.74665 0.91384 0.98906 0.0
H1936 H 0.77213 0.89169 0.96547 0.0
C1937 C 0.77423 0.85913 0.01335 0.0
C1938 C 0.38849 0.48674 0.76958 0.0
C1939 C 0.36734 0.49369 0.778 0.0
H1940 H 0.41605 0.49407 0.74729 0.0
C1941 C 0.35963 0.51581 0.7735 0.0
H1942 H 0.39489 0.46983 0.77304 0.0
C1943 C 0.37195 0.52987 0.75866 0.0
C1944 C 0.39189 0.52173 0.74838 0.0
H1945 H 0.34327 0.52141 0.77976 0.0
H1946 H 0.36487 0.5461 0.75367 0.0
C1947 C 0.40061 0.5006 0.75489 0.0
C1948 C 0.60992 0.97819 0.26361 0.0
C1949 C 0.61806 0.97394 0.24159 0.0
H1950 H 0.61481 0.99746 0.29431 0.0
C1951 C 0.63955 0.98195 0.23531 0.0
H1952 H 0.59328 0.97224 0.26868 0.0
C1953 C 0.65167 0.99611 0.24973 0.0
C1954 C 0.64255 0.00246 0.27074 0.0
H1955 H 0.64625 0.97868 0.21849 0.0
H1956 H 0.66738 0.00354 0.2437 0.0
C1957 C 0.6222 0.99251 0.27822 0.0
C1958 C 0.02466 0.7589 0.63752 0.0
C1959 C 0.03148 0.75245 0.61565 0.0
H1960 H 0.00337 0.7516 0.66589 0.0
C1961 C 0.02548 0.73091 0.60735 0.0
H1962 H 0.02923 0.77539 0.64429 0.0
C1963 C 0.0106 0.71713 0.61989 0.0
C1964 C 0.00179 0.72497 0.64064 0.0
H1965 H 0.03045 0.72575 0.59041 0.0
H1966 H 0.00429 0.70156 0.61241 0.0
C1967 C 0.00991 0.7453 0.64988 0.0
C1968 C 0.98026 0.7735 0.13893 0.0
C1969 C 0.00153 0.77919 0.1298 0.0
H1970 H 0.9499 0.7537 0.1343 0.0
C1971 C 0.00642 0.77369 0.10718 0.0
H1972 H 0.9763 0.77745 0.15645 0.0
C1973 C 0.99152 0.76038 0.09468 0.0
C1974 C 0.97147 0.75235 0.10458 0.0
H1975 H 0.0227 0.77805 0.09979 0.0
H1976 H 0.99666 0.75463 0.07796 0.0
C1977 C 0.96519 0.76002 0.12629 0.0
C1978 C 0.47268 0.76923 0.6095 0.0
C1979 C 0.46636 0.74796 0.6182 0.0
H1980 H 0.49369 0.79871 0.61451 0.0
C1981 C 0.47215 0.74223 0.64055 0.0
H1982 H 0.46854 0.7738 0.59218 0.0
C1983 C 0.4863 0.75626 0.65314 0.0
C1984 C 0.49487 0.77626 0.64359 0.0
H1985 H 0.46735 0.72591 0.64758 0.0
H1986 H 0.4922 0.75045 0.66957 0.0
C1987 C 0.48698 0.78344 0.62225 0.0
C1988 C 0.50711 0.74769 0.15227 0.0
C1989 C 0.50054 0.72652 0.1437 0.0
H1990 H 0.5245 0.77877 0.14587 0.0
C1991 C 0.5102 0.71854 0.12339 0.0
H1992 H 0.49994 0.7541 0.16796 0.0
C1993 C 0.52435 0.73283 0.11056 0.0
C1994 C 0.52876 0.75501 0.11813 0.0
H1995 H 0.50513 0.70229 0.11643 0.0
H1996 H 0.53002 0.72736 0.09394 0.0
C1997 C 0.5211 0.76179 0.13961 0.0
C1998 C 0.12439 0.52719 0.7407 0.0
C1999 C 0.10462 0.51891 0.7512 0.0
H2000 H 0.15326 0.51872 0.71988 0.0
C2001 C 0.09637 0.49741 0.74533 0.0
H2002 H 0.1311 0.54369 0.74523 0.0
C2003 C 0.10883 0.48338 0.7311 0.0
C2004 C 0.12982 0.49054 0.72249 0.0
H2005 H 0.08109 0.49077 0.75314 0.0
H2006 H 0.10284 0.46622 0.72817 0.0
C2007 C 0.13703 0.51296 0.72629 0.0
C2008 C 0.22352 0.85885 0.97906 0.0
C2009 C 0.21785 0.86777 0.00043 0.0
H2010 H 0.24367 0.86351 0.94892 0.0
C2011 C 0.22394 0.89013 0.0058 0.0
H2012 H 0.21913 0.84153 0.97474 0.0
C2013 C 0.23771 0.90253 0.99125 0.0
C2014 C 0.24564 0.89278 0.97106 0.0
H2015 H 0.21962 0.89735 0.02217 0.0
H2016 H 0.24381 0.91901 0.99672 0.0
C2017 C 0.23747 0.8714 0.96433 0.0
C2018 C 0.88896 0.97563 0.23248 0.0
C2019 C 0.87966 0.96947 0.25355 0.0
H2020 H 0.88509 0.99681 0.20294 0.0
C2021 C 0.8573 0.97575 0.25876 0.0
H2022 H 0.90627 0.9711 0.22828 0.0
C2023 C 0.84537 0.99022 0.24448 0.0
C2024 C 0.85554 0.99858 0.22471 0.0
H2025 H 0.84977 0.97106 0.27488 0.0
H2026 H 0.82894 0.9965 0.24992 0.0
C2027 C 0.87686 0.99025 0.21802 0.0
C2028 C 0.77023 0.60939 0.51137 0.0
C2029 C 0.77784 0.63084 0.50442 0.0
H2030 H 0.74864 0.58121 0.50426 0.0
C2031 C 0.77277 0.63851 0.48241 0.0
H2032 H 0.77411 0.60306 0.52821 0.0
C2033 C 0.75807 0.62582 0.46853 0.0
C2034 C 0.74854 0.60554 0.47673 0.0
H2035 H 0.77837 0.65511 0.47683 0.0
H2036 H 0.75253 0.63287 0.45248 0.0
C2037 C 0.75571 0.59687 0.49767 0.0
C2038 C 0.11444 0.47723 0.26453 0.0
C2039 C 0.12087 0.47478 0.24169 0.0
H2040 H 0.12149 0.49418 0.29619 0.0
C2041 C 0.14155 0.48395 0.23433 0.0
H2042 H 0.09848 0.47032 0.27049 0.0
C2043 C 0.15452 0.49728 0.24878 0.0
C2044 C 0.1471 0.50176 0.27092 0.0
H2045 H 0.14701 0.48201 0.21686 0.0
H2046 H 0.16962 0.5054 0.2421 0.0
C2047 C 0.12758 0.49078 0.27917 0.0
C2048 C 0.26057 0.9032 0.50622 0.0
C2049 C 0.25206 0.89345 0.52615 0.0
H2050 H 0.27934 0.89798 0.47572 0.0
C2051 C 0.25985 0.87196 0.53298 0.0
H2052 H 0.25474 0.91976 0.50068 0.0
C2053 C 0.27399 0.85931 0.51852 0.0
C2054 C 0.28023 0.86824 0.49732 0.0
H2055 H 0.25319 0.86406 0.54819 0.0
H2056 H 0.27807 0.84191 0.52286 0.0
C2057 C 0.27457 0.89072 0.49195 0.0
C2058 C 0.84673 0.00616 0.75215 0.0
C2059 C 0.85691 0.99831 0.77214 0.0
H2060 H 0.85089 0.0251 0.72159 0.0
C2061 C 0.87794 0.00727 0.77893 0.0
H2062 H 0.83051 -0.00058 0.74664 0.0
C2063 C 0.88978 0.02205 0.76442 0.0
C2064 C 0.88052 0.02773 0.7432 0.0
H2065 H 0.88616 0.00113 0.79419 0.0
H2066 H 0.90691 0.02711 0.76876 0.0
C2067 C 0.85841 0.02078 0.73783 0.0
C2068 C 0.73768 0.62687 0.03252 0.0
C2069 C 0.74584 0.60569 0.02513 0.0
H2070 H 0.71833 0.65653 0.02342 0.0
C2071 C 0.73697 0.59597 0.00535 0.0
H2072 H 0.74461 0.63473 0.04763 0.0
C2073 C 0.72213 0.60823 0.99174 0.0
C2074 C 0.716 0.63047 0.99761 0.0
H2075 H 0.74307 0.57966 -0.00061 0.0
H2076 H 0.71702 0.60105 0.97558 0.0
C2077 C 0.72272 0.6393 0.01872 0.0
C2078 C 0.24327 0.65361 0.50903 0.0
C2079 C 0.2225 0.64453 0.50186 0.0
H2080 H 0.27442 0.64766 0.52645 0.0
C2081 C 0.21526 0.62352 0.51057 0.0
H2082 H 0.24913 0.66981 0.50258 0.0
C2083 C 0.22992 0.61066 0.52434 0.0
C2084 C 0.25174 0.61888 0.52931 0.0
H2085 H 0.19937 0.61614 0.505 0.0
H2086 H 0.22506 0.59361 0.52923 0.0
C2087 C 0.25774 0.64091 0.52263 0.0
C2088 C 0.73615 0.37231 0.96771 0.0
C2089 C 0.74605 0.3925 0.97568 0.0
H2090 H 0.71586 0.34316 0.97649 0.0
C2091 C 0.73963 0.40113 0.99688 0.0
H2092 H 0.74111 0.3653 0.95145 0.0
C2093 C 0.72544 0.38867 0.01096 0.0
C2094 C 0.71745 0.36731 0.00417 0.0
H2095 H 0.74698 0.41674 0.00328 0.0
H2096 H 0.72208 0.39502 0.02791 0.0
C2097 C 0.7218 0.35967 0.98199 0.0
C2098 C 0.34999 0.4797 0.22628 0.0
C2099 C 0.36323 0.49508 0.21388 0.0
H2100 H 0.34993 0.45479 0.25282 0.0
C2101 C 0.38699 0.49329 0.21451 0.0
H2102 H 0.33166 0.48114 0.22634 0.0
C2103 C 0.39741 0.47776 0.22909 0.0
C2104 C 0.38414 0.46441 0.24361 0.0
H2105 H 0.39745 0.50528 0.20529 0.0
H2106 H 0.41571 0.47815 0.23093 0.0
C2107 C 0.36042 0.46467 0.2414 0.0
C2108 C 0.25993 0.09574 0.49329 0.0
C2109 C 0.25184 0.10499 0.47295 0.0
H2110 H 0.27874 0.10149 0.52367 0.0
C2111 C 0.26033 0.12596 0.46537 0.0
H2112 H 0.2536 0.07957 0.49939 0.0
C2113 C 0.27481 0.13868 0.47944 0.0
C2114 C 0.2807 0.13034 0.50098 0.0
H2115 H 0.25403 0.13347 0.44982 0.0
H2116 H 0.27949 0.15576 0.47447 0.0
C2117 C 0.27425 0.10829 0.50717 0.0
C2118 C 0.77511 0.38869 0.48873 0.0
C2119 C 0.78219 0.36688 0.49509 0.0
H2120 H 0.75344 0.41677 0.49611 0.0
C2121 C 0.77628 0.35844 0.5166 0.0
H2122 H 0.77962 0.39559 0.47228 0.0
C2123 C 0.76122 0.37074 0.53041 0.0
C2124 C 0.75216 0.39139 0.52263 0.0
H2125 H 0.78146 0.34155 0.52171 0.0
H2126 H 0.75499 0.36311 0.54594 0.0
C2127 C 0.76019 0.40082 0.50236 0.0
C2128 C 0.40127 0.00275 0.25658 0.0
C2129 C 0.39196 0.02329 0.24907 0.0
H2130 H 0.39585 0.97213 0.2751 0.0
C2131 C 0.37125 0.03084 0.2582 0.0
H2132 H 0.41727 0.99668 0.24982 0.0
C2133 C 0.35882 0.01663 0.27279 0.0
C2134 C 0.36719 0.99495 0.27815 0.0
H2135 H 0.36371 0.04658 0.25239 0.0
H2136 H 0.34192 0.02163 0.27802 0.0
C2137 C 0.38901 0.98872 0.271 0.0
C2138 C 0.63943 0.47988 0.73545 0.0
C2139 C 0.61788 0.47208 0.74181 0.0
H2140 H 0.66762 0.50098 0.74384 0.0
C2141 C 0.60994 0.47627 0.76391 0.0
H2142 H 0.64599 0.47663 0.71856 0.0
C2143 C 0.62251 0.4903 0.77856 0.0
C2144 C 0.64294 0.50005 0.77102 0.0
H2145 H 0.59328 0.47046 0.76907 0.0
H2146 H 0.6153 0.49518 0.79476 0.0
C2147 C 0.65183 0.49374 0.74991 0.0
C2148 C 0.50823 0.25209 0.84577 0.0
C2149 C 0.50057 0.27273 0.85472 0.0
H2150 H 0.52708 0.22177 0.85168 0.0
C2151 C 0.50972 0.28077 0.87524 0.0
H2152 H 0.50144 0.24565 0.82992 0.0
C2153 C 0.52449 0.26693 0.88788 0.0
C2154 C 0.53001 0.24515 0.87991 0.0
H2155 H 0.50379 0.29659 0.8825 0.0
H2156 H 0.52973 0.27231 0.90466 0.0
C2157 C 0.52285 0.23844 0.85823 0.0
C2158 C 0.48747 0.22 0.37644 0.0
C2159 C 0.49751 0.2284 0.35648 0.0
H2160 H 0.46699 0.22819 0.40565 0.0
C2161 C 0.49117 0.2498 0.34831 0.0
H2162 H 0.49234 0.20357 0.3831 0.0
C2163 C 0.47694 0.26364 0.361 0.0
C2164 C 0.46877 0.25637 0.38213 0.0
H2165 H 0.49859 0.25654 0.33288 0.0
H2166 H 0.47365 0.28075 0.35504 0.0
C2167 C 0.47306 0.23403 0.38931 0.0
C2168 C 0.50792 0.78111 0.37802 0.0
C2169 C 0.49889 0.77319 0.3574 0.0
H2170 H 0.52803 0.77256 0.40734 0.0
C2171 C 0.50692 0.75283 0.34814 0.0
H2172 H 0.5017 0.79671 0.38551 0.0
C2173 C 0.52179 0.73927 0.3604 0.0
C2174 C 0.52882 0.74579 0.38217 0.0
H2175 H 0.5002 0.74648 0.33222 0.0
H2176 H 0.52625 0.72273 0.35366 0.0
C2177 C 0.52293 0.76736 0.39046 0.0
C2178 C 0.4879 0.71721 0.87594 0.0
C2179 C 0.49797 0.72548 0.85594 0.0
H2180 H 0.46717 0.72551 0.90493 0.0
C2181 C 0.49147 0.74673 0.8475 0.0
H2182 H 0.4929 0.7009 0.8828 0.0
C2183 C 0.47701 0.76056 0.85994 0.0
C2184 C 0.46879 0.75345 0.88111 0.0
H2185 H 0.49893 0.75337 0.83204 0.0
H2186 H 0.47358 0.77755 0.85376 0.0
C2187 C 0.47326 0.73123 0.88856 0.0
C2188 C 0.65314 0.00455 0.74836 0.0
C2189 C 0.64388 0.99765 0.72759 0.0
H2190 H 0.64779 0.02252 0.77931 0.0
C2191 C 0.62336 0.00723 0.72009 0.0
H2192 H 0.66899 0.9974 0.75439 0.0
C2193 C 0.61104 0.02169 0.73453 0.0
C2194 C 0.61932 0.02645 0.75638 0.0
H2195 H 0.61586 0.00186 0.70418 0.0
H2196 H 0.59427 0.0273 0.72951 0.0
C2197 C 0.64099 0.01886 0.7626 0.0
C2198 C 0.6471 0.49916 0.25383 0.0
C2199 C 0.64023 0.49467 0.23152 0.0
H2200 H 0.63913 0.51512 0.2853 0.0
C2201 C 0.62139 0.50623 0.22249 0.0
H2202 H 0.66169 0.49061 0.26108 0.0
C2203 C 0.60829 0.52042 0.23654 0.0
C2204 C 0.61408 0.52295 0.25954 0.0
H2205 H 0.61576 0.50283 0.20532 0.0
H2206 H 0.59279 0.52783 0.22998 0.0
C2207 C 0.63416 0.51314 0.26768 0.0
C2208 C 0.1285 0.33274 0.06609 0.0
C2209 C 0.10878 0.33441 0.05286 0.0
H2210 H 0.16062 0.34753 0.07447 0.0
C2211 C 0.10774 0.35074 0.03549 0.0
H2212 H 0.12968 0.3204 0.07967 0.0
C2213 C 0.12539 0.36624 0.03249 0.0
C2214 C 0.14427 0.3658 0.04698 0.0
H2215 H 0.09272 0.35234 0.02501 0.0
H2216 H 0.12366 0.37932 0.01968 0.0
C2217 C 0.14608 0.34841 0.06324 0.0
C2218 C 0.91957 0.37883 0.31355 0.0
C2219 C 0.91623 0.35779 0.30292 0.0
H2220 H 0.90663 0.41244 0.31873 0.0
C2221 C 0.89917 0.35565 0.28639 0.0
H2222 H 0.93257 0.38087 0.3264 0.0
C2223 C 0.88449 0.37366 0.28187 0.0
C2224 C 0.88643 0.39403 0.29403 0.0
H2225 H 0.89638 0.33961 0.27783 0.0
H2226 H 0.87071 0.37106 0.26997 0.0
C2227 C 0.90466 0.39682 0.30922 0.0
C2228 C 0.84709 0.15427 0.55811 0.0
C2229 C 0.84905 0.13702 0.54169 0.0
H2230 H 0.86361 0.18171 0.57542 0.0
C2231 C 0.86814 0.13667 0.52749 0.0
H2232 H 0.83243 0.15507 0.56918 0.0
C2233 C 0.88594 0.15189 0.53109 0.0
C2234 C 0.88488 0.16782 0.54884 0.0
H2235 H 0.87004 0.1237 0.51458 0.0
H2236 H 0.90115 0.15022 0.52089 0.0
C2237 C 0.86486 0.16964 0.5616 0.0
C2238 C 0.12173 0.12488 0.78964 0.0
C2239 C 0.11986 0.10548 0.8033 0.0
H2240 H 0.10902 0.15806 0.78228 0.0
C2241 C 0.10148 0.10365 0.81845 0.0
H2242 H 0.13559 0.12669 0.7777 0.0
C2243 C 0.086 0.12152 0.82084 0.0
C2244 C 0.08888 0.14154 0.8083 0.0
H2245 H 0.09951 0.08874 0.82904 0.0
H2246 H 0.0727 0.1202 0.83346 0.0
C2247 C 0.10646 0.14279 0.79222 0.0
C2248 C 0.13246 0.66846 0.93442 0.0
C2249 C 0.11298 0.66674 0.94803 0.0
H2250 H 0.16439 0.65366 0.92531 0.0
C2251 C 0.11249 0.65058 0.96558 0.0
H2252 H 0.13326 0.6807 0.92072 0.0
C2253 C 0.13023 0.63509 0.96819 0.0
C2254 C 0.14874 0.63542 0.95322 0.0
H2255 H 0.09772 0.64895 0.97641 0.0
H2256 H 0.12876 0.62201 0.98104 0.0
C2257 C 0.15019 0.65286 0.93695 0.0
C2258 C 0.57955 0.37779 0.18457 0.0
C2259 C 0.58284 0.35668 0.19506 0.0
H2260 H 0.59251 0.41142 0.17968 0.0
C2261 C 0.59987 0.35439 0.2116 0.0
H2262 H 0.56657 0.37993 0.17172 0.0
C2263 C 0.61457 0.37233 0.21627 0.0
C2264 C 0.61266 0.3928 0.20428 0.0
H2265 H 0.60263 0.33829 0.22006 0.0
H2266 H 0.62831 0.36963 0.2282 0.0
C2267 C 0.59446 0.39572 0.18906 0.0
C2268 C 0.86995 0.86086 0.4687 0.0
C2269 C 0.8508 0.86038 0.45457 0.0
H2270 H 0.9031 0.84759 0.47519 0.0
C2271 C 0.84903 0.84322 0.43802 0.0
H2272 H 0.87173 0.87375 0.4817 0.0
C2273 C 0.86697 0.82806 0.4344 0.0
C2274 C 0.88697 0.82997 0.44717 0.0
H2275 H 0.83436 0.84234 0.42698 0.0
H2276 H 0.86583 0.81604 0.42053 0.0
C2277 C 0.8879 0.84584 0.46499 0.0
C2278 C 0.37638 0.12696 0.7102 0.0
C2279 C 0.37895 0.10669 0.69799 0.0
H2280 H 0.3883 0.16084 0.71542 0.0
C2281 C 0.39782 0.10407 0.68358 0.0
H2282 H 0.36209 0.12939 0.72152 0.0
C2283 C 0.41305 0.12198 0.68033 0.0
C2284 C 0.40942 0.14283 0.69123 0.0
H2285 H 0.40031 0.0885 0.67411 0.0
H2286 H 0.42675 0.11999 0.66823 0.0
C2287 C 0.3914 0.14492 0.70673 0.0
C2288 C 0.06927 0.14657 0.35282 0.0
C2289 C 0.05352 0.14533 0.37075 0.0
H2290 H 0.08406 0.12961 0.32415 0.0
C2291 C 0.03856 0.12685 0.37178 0.0
H2292 H 0.08086 0.16078 0.35149 0.0
C2293 C 0.04043 0.10912 0.3562 0.0
C2294 C 0.0571 0.10965 0.33915 0.0
H2295 H 0.02613 0.12555 0.38526 0.0
H2296 H 0.02949 0.09446 0.35817 0.0
C2297 C 0.07096 0.12889 0.33703 0.0
C2298 C 0.13535 0.28113 0.59474 0.0
C2299 C 0.13464 0.29924 0.57921 0.0
H2300 H 0.11921 0.26439 0.62262 0.0
C2301 C 0.1149 0.31247 0.57773 0.0
H2302 H 0.15035 0.27056 0.59613 0.0
C2303 C 0.09711 0.30905 0.59309 0.0
C2304 C 0.09877 0.29225 0.61 0.0
H2305 H 0.11394 0.32658 0.56597 0.0
H2306 H 0.08271 0.32048 0.59261 0.0
C2307 C 0.11754 0.27761 0.60995 0.0
C2308 C 0.92672 0.37055 0.83643 0.0
C2309 C 0.93908 0.3907 0.8392 0.0
H2310 H 0.91869 0.33786 0.85021 0.0
C2311 C 0.95514 0.39221 0.85678 0.0
H2312 H 0.91413 0.36903 0.82311 0.0
C2313 C 0.95779 0.37445 0.87221 0.0
C2314 C 0.94424 0.35497 0.87049 0.0
H2315 H 0.96495 0.40757 0.85923 0.0
H2316 H 0.96967 0.37647 0.8861 0.0
C2317 C 0.92918 0.35284 0.85207 0.0
C2318 C 0.86463 0.21581 0.09795 0.0
C2319 C 0.86515 0.19812 0.08194 0.0
H2320 H 0.88051 0.23116 0.12678 0.0
C2321 C 0.88436 0.18409 0.08078 0.0
H2322 H 0.85004 0.22696 0.09915 0.0
C2323 C 0.90176 0.18638 0.09679 0.0
C2324 C 0.90022 0.20281 0.11407 0.0
H2325 H 0.88516 0.17027 0.06868 0.0
H2326 H 0.91574 0.17444 0.09642 0.0
C2327 C 0.88203 0.21817 0.11385 0.0
C2328 C 0.06908 0.85216 0.64565 0.0
C2329 C 0.05363 0.85381 0.6275 0.0
H2330 H 0.08385 0.86869 0.67459 0.0
C2331 C 0.03917 0.87267 0.62628 0.0
H2332 H 0.08029 0.83766 0.64714 0.0
C2333 C 0.04124 0.89033 0.64192 0.0
C2334 C 0.05762 0.88935 0.65923 0.0
H2335 H 0.02696 0.87431 0.61262 0.0
H2336 H 0.03069 0.90525 0.63983 0.0
C2337 C 0.07098 0.86977 0.6615 0.0
C2338 C 0.38067 0.3116 0.91752 0.0
C2339 C 0.35998 0.30035 0.91406 0.0
H2340 H 0.41414 0.31779 0.90474 0.0
C2341 C 0.35846 0.28367 0.89708 0.0
H2342 H 0.38222 0.32457 0.93047 0.0
C2343 C 0.37668 0.27966 0.88251 0.0
C2344 C 0.39662 0.29249 0.8845 0.0
H2345 H 0.3427 0.27464 0.8942 0.0
H2346 H 0.37452 0.26766 0.86874 0.0
C2347 C 0.39886 0.30778 0.90273 0.0
C2348 C 0.96539 0.63256 0.13518 0.0
C2349 C 0.94953 0.6503 0.1346 0.0
H2350 H 0.97477 0.60082 0.15005 0.0
C2351 C 0.93264 0.65131 0.15147 0.0
H2352 H 0.97874 0.63145 0.12258 0.0
C2353 C 0.93047 0.63381 0.1674 0.0
C2354 C 0.9451 0.61502 0.16658 0.0
H2355 H 0.92029 0.66494 0.15156 0.0
H2356 H 0.91633 0.63415 0.17915 0.0
C2357 C 0.96317 0.61506 0.151 0.0
C2358 C 0.61495 0.18595 0.41911 0.0
C2359 C 0.63454 0.19942 0.41773 0.0
H2360 H 0.58314 0.17719 0.40384 0.0
C2361 C 0.63538 0.21707 0.40169 0.0
H2362 H 0.61389 0.17217 0.43124 0.0
C2363 C 0.61787 0.21993 0.386 0.0
C2364 C 0.59924 0.2051 0.386 0.0
H2365 H 0.65026 0.22779 0.40032 0.0
H2366 H 0.61961 0.23285 0.37303 0.0
C2367 C 0.59744 0.18873 0.4033 0.0
C2368 C 0.34688 0.03217 0.10921 0.0
C2369 C 0.3304 0.04941 0.11018 0.0
H2370 H 0.3755 0.01659 0.12525 0.0
C2371 C 0.32811 0.06214 0.13019 0.0
H2372 H 0.34893 0.022 0.09402 0.0
C2373 C 0.34349 0.05915 0.14804 0.0
C2374 C 0.36126 0.04329 0.14618 0.0
H2375 H 0.3156 0.07557 0.13137 0.0
H2376 H 0.34228 0.07021 0.16268 0.0
C2377 C 0.36214 0.02909 0.12708 0.0
C2378 C 0.84817 0.93272 0.35416 0.0
C2379 C 0.86621 0.94824 0.35629 0.0
H2380 H 0.82006 0.91643 0.3706 0.0
C2381 C 0.86792 0.96145 0.376 0.0
H2382 H 0.84635 0.92247 0.339 0.0
C2383 C 0.853 0.9579 0.39402 0.0
C2384 C 0.83593 0.94131 0.39251 0.0
H2385 H 0.88154 0.97364 0.37803 0.0
H2386 H 0.85551 0.96739 0.40958 0.0
C2387 C 0.83302 0.92939 0.37212 0.0
C2388 C 0.28763 0.10206 0.63766 0.0
C2389 C 0.30485 0.08554 0.63728 0.0
H2390 H 0.27302 0.13115 0.62152 0.0
C2391 C 0.31937 0.08437 0.61843 0.0
H2392 H 0.27619 0.10334 0.65201 0.0
C2393 C 0.31776 0.10055 0.60111 0.0
C2394 C 0.30148 0.11799 0.60229 0.0
H2395 H 0.33291 0.07195 0.61779 0.0
H2396 H 0.32983 0.09991 0.58726 0.0
C2397 C 0.28589 0.11808 0.62029 0.0
C2398 C 0.1327 0.53183 0.87375 0.0
C2399 C 0.13406 0.54441 0.85359 0.0
H2400 H 0.14519 0.52738 0.9075 0.0
C2401 C 0.15188 0.5601 0.85085 0.0
H2402 H 0.11927 0.51953 0.8763 0.0
C2403 C 0.16695 0.56444 0.86871 0.0
C2404 C 0.16418 0.55331 0.88956 0.0
H2405 H 0.15341 0.56994 0.8354 0.0
H2406 H 0.1796 0.57764 0.86677 0.0
C2407 C 0.14754 0.53634 0.89161 0.0
C2408 C 0.17924 0.91492 0.11912 0.0
C2409 C 0.19321 0.91353 0.13835 0.0
H2410 H 0.17002 0.89996 0.08729 0.0
C2411 C 0.21089 0.89751 0.13875 0.0
H2412 H 0.1654 0.927 0.11845 0.0
C2413 C 0.21355 0.88204 0.12099 0.0
C2414 C 0.19842 0.8822 0.10261 0.0
H2415 H 0.22194 0.89611 0.15339 0.0
H2416 H 0.22667 0.86923 0.12226 0.0
C2417 C 0.18176 0.89929 0.10142 0.0
C2418 C 0.64891 0.93443 0.14255 0.0
C2419 C 0.63107 0.95017 0.14037 0.0
H2420 H 0.67694 0.91783 0.12621 0.0
C2421 C 0.62965 0.96346 0.12069 0.0
H2422 H 0.65052 0.9241 0.15768 0.0
C2423 C 0.64466 0.9598 0.10277 0.0
C2424 C 0.66153 0.94299 0.10432 0.0
H2425 H 0.6162 0.97583 0.11862 0.0
H2426 H 0.64236 0.96938 0.08723 0.0
C2427 C 0.66415 0.93096 0.12467 0.0
C2428 C 0.31424 0.40111 0.89975 0.0
C2429 C 0.29738 0.38426 0.8982 0.0
H2430 H 0.33087 0.429 0.88326 0.0
C2431 C 0.28187 0.38505 0.88016 0.0
H2432 H 0.32631 0.40105 0.91361 0.0
C2433 C 0.28444 0.40108 0.86291 0.0
C2434 C 0.3025 0.41667 0.86341 0.0
H2435 H 0.26856 0.37246 0.87864 0.0
H2436 H 0.27312 0.40031 0.84843 0.0
C2437 C 0.31675 0.41726 0.88249 0.0
C2438 C 0.70969 0.12268 0.37525 0.0
C2439 C 0.69504 0.12163 0.39397 0.0
H2440 H 0.71815 0.10918 0.34265 0.0
C2441 C 0.67926 0.10375 0.39541 0.0
H2442 H 0.72216 0.13612 0.37379 0.0
C2443 C 0.67721 0.08805 0.3777 0.0
C2444 C 0.69073 0.09021 0.35823 0.0
H2445 H 0.66791 0.1024 0.40981 0.0
H2446 H 0.66407 0.07522 0.3786 0.0
C2447 C 0.70747 0.10719 0.35749 0.0
C2448 C 0.15151 0.84523 0.56235 0.0
C2449 C 0.14997 0.86234 0.54576 0.0
H2450 H 0.13493 0.81723 0.57868 0.0
C2451 C 0.13187 0.86189 0.53031 0.0
H2452 H 0.16543 0.84503 0.57436 0.0
C2453 C 0.1145 0.84598 0.53275 0.0
C2454 C 0.11499 0.83016 0.55062 0.0
H2455 H 0.13035 0.8747 0.5172 0.0
H2456 H 0.09995 0.84702 0.52156 0.0
C2457 C 0.13416 0.82918 0.56472 0.0
C2458 C 0.90109 0.8565 0.78477 0.0
C2459 C 0.91754 0.85803 0.80197 0.0
H2460 H 0.87316 0.87246 0.76799 0.0
C2461 C 0.92052 0.87868 0.81343 0.0
H2462 H 0.89859 0.84076 0.77557 0.0
C2463 C 0.90573 0.89681 0.80926 0.0
C2464 C 0.888 0.89455 0.79341 0.0
H2465 H 0.93304 0.88024 0.82681 0.0
H2466 H 0.90734 0.91206 0.81941 0.0
C2467 C 0.88653 0.87465 0.78042 0.0
C2468 C 0.84751 0.65423 0.05878 0.0
C2469 C 0.84987 0.63624 0.04322 0.0
H2470 H 0.8639 0.68194 0.07586 0.0
C2471 C 0.86976 0.63468 0.03025 0.0
H2472 H 0.83225 0.65591 0.06891 0.0
C2473 C 0.88782 0.64942 0.03436 0.0
C2474 C 0.88619 0.66616 0.05128 0.0
H2475 H 0.87202 0.6211 0.01805 0.0
H2476 H 0.90356 0.64686 0.02519 0.0
C2477 C 0.86553 0.6692 0.0627 0.0
C2478 C 0.08485 0.6169 0.31588 0.0
C2479 C 0.08728 0.63733 0.30391 0.0
H2480 H 0.09934 0.58437 0.32341 0.0
C2481 C 0.10467 0.63932 0.28769 0.0
H2482 H 0.07167 0.61501 0.32856 0.0
C2483 C 0.12041 0.6219 0.2847 0.0
C2484 C 0.1192 0.60222 0.29803 0.0
H2485 H 0.10683 0.65489 0.27814 0.0
H2486 H 0.13427 0.62442 0.27287 0.0
C2487 C 0.10079 0.59947 0.31303 0.0
C2488 C 0.15157 0.15352 0.43666 0.0
C2489 C 0.14985 0.13641 0.45324 0.0
H2490 H 0.13522 0.18156 0.42019 0.0
C2491 C 0.1316 0.1369 0.46852 0.0
H2492 H 0.16561 0.15369 0.42478 0.0
C2493 C 0.11429 0.15287 0.46591 0.0
C2494 C 0.11498 0.16869 0.44805 0.0
H2495 H 0.12994 0.12409 0.48161 0.0
H2496 H 0.09963 0.15186 0.47697 0.0
C2497 C 0.13428 0.16961 0.43413 0.0
C2498 C 0.59523 0.89713 0.69049 0.0
C2499 C 0.61377 0.89427 0.70529 0.0
H2500 H 0.56696 0.88127 0.67385 0.0
C2501 C 0.61593 0.87387 0.71736 0.0
H2502 H 0.59309 0.91277 0.68106 0.0
C2503 C 0.60113 0.8559 0.7131 0.0
C2504 C 0.58375 0.85811 0.69692 0.0
H2505 H 0.62995 0.87122 0.72897 0.0
H2506 H 0.60408 0.83983 0.72156 0.0
C2507 C 0.58021 0.87918 0.68643 0.0
C2508 C 0.8642 0.32982 0.93241 0.0
C2509 C 0.8833 0.33078 0.9466 0.0
H2510 H 0.83279 0.34549 0.92288 0.0
C2511 C 0.88363 0.34648 0.96458 0.0
H2512 H 0.86357 0.31798 0.91835 0.0
C2513 C 0.86614 0.36224 0.96714 0.0
C2514 C 0.84802 0.36266 0.95169 0.0
H2515 H 0.89813 0.34753 0.97584 0.0
H2516 H 0.8675 0.37492 0.98039 0.0
C2517 C 0.84669 0.3457 0.93491 0.0
C2518 C 0.39919 0.6392 0.21143 0.0
C2519 C 0.41551 0.63879 0.19403 0.0
H2520 H 0.37138 0.62214 0.22736 0.0
C2521 C 0.41811 0.61908 0.18094 0.0
H2522 H 0.39694 0.65423 0.2218 0.0
C2523 C 0.4032 0.60084 0.18387 0.0
C2524 C 0.38576 0.60198 0.20015 0.0
H2525 H 0.43047 0.61842 0.16735 0.0
H2526 H 0.40462 0.58634 0.17264 0.0
C2527 C 0.38455 0.62087 0.21459 0.0
C2528 C 0.03962 0.60523 0.85652 0.0
C2529 C 0.05605 0.60617 0.83925 0.0
H2530 H 0.0252 0.6214 0.88567 0.0
C2531 C 0.06926 0.62582 0.83682 0.0
H2532 H 0.02919 0.59024 0.85872 0.0
C2533 C 0.06724 0.64353 0.85253 0.0
C2534 C 0.05178 0.64192 0.87066 0.0
H2535 H 0.08217 0.62687 0.82377 0.0
H2536 H 0.07837 0.65808 0.85096 0.0
C2537 C 0.0374 0.623 0.87201 0.0
C2538 C 0.13979 0.78582 0.09874 0.0
C2539 C 0.13862 0.80339 0.08262 0.0
H2540 H 0.12417 0.76975 0.12733 0.0
C2541 C 0.11895 0.81674 0.08139 0.0
H2542 H 0.15478 0.77524 0.10001 0.0
C2543 C 0.10157 0.8138 0.09727 0.0
C2544 C 0.10351 0.7973 0.11443 0.0
H2545 H 0.11768 0.83048 0.06923 0.0
H2546 H 0.08708 0.82512 0.09672 0.0
C2547 C 0.12232 0.78273 0.11444 0.0
C2548 C 0.93102 0.85204 0.35012 0.0
C2549 C 0.94715 0.85365 0.36766 0.0
H2550 H 0.91546 0.86838 0.32156 0.0
C2551 C 0.9621 0.87217 0.36797 0.0
H2552 H 0.91943 0.83779 0.34931 0.0
C2553 C 0.95986 0.88959 0.35206 0.0
C2554 C 0.94275 0.88874 0.33545 0.0
H2555 H 0.97485 0.87375 0.38113 0.0
H2556 H 0.97079 0.90432 0.35351 0.0
C2557 C 0.9289 0.86941 0.33407 0.0
C2558 C 0.86149 0.71609 0.59574 0.0
C2559 C 0.86207 0.69811 0.58004 0.0
H2560 H 0.8779 0.73261 0.62361 0.0
C2561 C 0.88179 0.68488 0.5783 0.0
H2562 H 0.84652 0.72665 0.59735 0.0
C2563 C 0.89973 0.68818 0.59352 0.0
C2564 C 0.89823 0.70487 0.61057 0.0
H2565 H 0.88266 0.67088 0.5664 0.0
H2566 H 0.91414 0.67678 0.59279 0.0
C2567 C 0.87944 0.71948 0.61083 0.0
C2568 C 0.06574 0.35419 0.14885 0.0
C2569 C 0.04947 0.35582 0.13143 0.0
H2570 H 0.08205 0.37081 0.17685 0.0
C2571 C 0.03501 0.37472 0.13083 0.0
H2572 H 0.07697 0.33966 0.14986 0.0
C2573 C 0.03794 0.39248 0.14625 0.0
C2574 C 0.05522 0.39157 0.16269 0.0
H2575 H 0.0222 0.37635 0.11774 0.0
H2576 H 0.02741 0.40747 0.14455 0.0
C2577 C 0.06851 0.37189 0.16445 0.0
C2578 C 0.37951 0.81256 0.42077 0.0
C2579 C 0.35929 0.80017 0.41859 0.0
H2580 H 0.41218 0.81983 0.40659 0.0
C2581 C 0.35807 0.78269 0.40237 0.0
H2582 H 0.38089 0.82615 0.43308 0.0
C2583 C 0.37593 0.77904 0.38724 0.0
C2584 C 0.39527 0.79292 0.38797 0.0
H2585 H 0.34271 0.77277 0.40042 0.0
H2586 H 0.37393 0.76638 0.37405 0.0
C2587 C 0.39735 0.80901 0.4055 0.0
C2588 C 0.9612 0.12663 0.62896 0.0
C2589 C 0.9456 0.14462 0.62891 0.0
H2590 H 0.97089 0.09499 0.64391 0.0
C2591 C 0.92931 0.14591 0.64633 0.0
H2592 H 0.97409 0.12533 0.61592 0.0
C2593 C 0.92768 0.12869 0.6626 0.0
C2594 C 0.94219 0.10983 0.66157 0.0
H2595 H 0.91723 0.15977 0.64687 0.0
H2596 H 0.91412 0.12942 0.67499 0.0
C2597 C 0.95945 0.10935 0.64509 0.0
C2598 C 0.61804 0.71704 0.8867 0.0
C2599 C 0.5995 0.70212 0.8863 0.0
H2600 H 0.65015 0.72499 0.9016 0.0
C2601 C 0.59752 0.68561 0.90346 0.0
H2602 H 0.61991 0.73006 0.87385 0.0
C2603 C 0.61479 0.68282 0.91953 0.0
C2604 C 0.63431 0.69642 0.91857 0.0
H2605 H 0.58327 0.674 0.9037 0.0
H2606 H 0.61361 0.66895 0.93155 0.0
C2607 C 0.63531 0.71418 0.90266 0.0
C2608 C 0.32895 0.56386 0.6297 0.0
C2609 C 0.3313 0.55159 0.60942 0.0
H2610 H 0.343 0.57117 0.66243 0.0
C2611 C 0.3479 0.53448 0.60806 0.0
H2612 H 0.31637 0.57719 0.63118 0.0
C2613 C 0.36312 0.53101 0.62589 0.0
C2614 C 0.36211 0.54471 0.64535 0.0
H2615 H 0.35001 0.52467 0.59265 0.0
H2616 H 0.37652 0.51859 0.62381 0.0
C2617 C 0.34431 0.56049 0.64752 0.0
C2618 C 0.82767 0.43358 0.86816 0.0
C2619 C 0.83043 0.44558 0.88854 0.0
H2620 H 0.8411 0.42687 0.83503 0.0
C2621 C 0.84673 0.46294 0.88974 0.0
H2622 H 0.81527 0.42007 0.86687 0.0
C2623 C 0.86138 0.46693 0.87158 0.0
C2624 C 0.86015 0.45344 0.85201 0.0
H2625 H 0.84907 0.47254 0.90525 0.0
H2626 H 0.87464 0.47952 0.87354 0.0
C2627 C 0.84254 0.43741 0.85003 0.0
C2628 C 0.31765 0.60097 0.10239 0.0
C2629 C 0.30221 0.61902 0.1049 0.0
H2630 H 0.33292 0.57168 0.11765 0.0
C2631 C 0.28823 0.6197 0.12415 0.0
H2632 H 0.32848 0.59987 0.08757 0.0
C2633 C 0.29077 0.60355 0.14134 0.0
C2634 C 0.3072 0.58633 0.13948 0.0
H2635 H 0.27605 0.63328 0.12645 0.0
H2636 H 0.2806 0.6052 0.15657 0.0
C2637 C 0.32005 0.58469 0.11949 0.0
C2638 C 0.14487 0.03672 0.39252 0.0
C2639 C 0.16254 0.05261 0.39038 0.0
H2640 H 0.11582 0.02135 0.37713 0.0
C2641 C 0.16621 0.06315 0.36936 0.0
H2642 H 0.1418 0.02822 0.40854 0.0
C2643 C 0.15113 0.05939 0.35138 0.0
C2644 C 0.13237 0.04485 0.35416 0.0
H2645 H 0.17967 0.07551 0.36731 0.0
H2646 H 0.15344 0.06881 0.33577 0.0
C2647 C 0.13 0.03277 0.37453 0.0
C2648 C 0.21139 0.37816 0.62142 0.0
C2649 C 0.19589 0.37836 0.60336 0.0
H2650 H 0.22108 0.39284 0.65317 0.0
C2651 C 0.17976 0.39593 0.60209 0.0
H2652 H 0.22417 0.36499 0.62271 0.0
C2653 C 0.17819 0.41212 0.61939 0.0
C2654 C 0.19261 0.41085 0.6383 0.0
H2655 H 0.16776 0.39665 0.58818 0.0
H2656 H 0.16475 0.42465 0.61869 0.0
C2657 C 0.20972 0.3942 0.63877 0.0
C2658 C 0.64344 0.45754 0.60235 0.0
C2659 C 0.66101 0.44153 0.60448 0.0
H2660 H 0.61441 0.47301 0.61775 0.0
C2661 C 0.66419 0.4304 0.62527 0.0
H2662 H 0.64071 0.46642 0.58648 0.0
C2663 C 0.64889 0.43393 0.64307 0.0
C2664 C 0.63043 0.44886 0.64039 0.0
H2665 H 0.67753 0.4179 0.62726 0.0
H2666 H 0.65098 0.42427 0.65858 0.0
C2667 C 0.62837 0.46129 0.62022 0.0
C2668 C 0.28445 0.88247 0.37782 0.0
C2669 C 0.30019 0.88175 0.39566 0.0
H2670 H 0.27502 0.89796 0.34638 0.0
C2671 C 0.31708 0.8986 0.39695 0.0
H2672 H 0.27111 0.86988 0.37653 0.0
C2673 C 0.31911 0.91494 0.37984 0.0
C2674 C 0.30442 0.91452 0.3611 0.0
H2675 H 0.32928 0.89861 0.41069 0.0
H2676 H 0.3331 0.92685 0.38052 0.0
C2677 C 0.2866 0.89865 0.36065 0.0
C2678 C 0.67679 0.58511 0.87892 0.0
C2679 C 0.69052 0.58723 0.85959 0.0
H2680 H 0.66728 0.59945 0.91097 0.0
C2681 C 0.70739 0.60408 0.85906 0.0
H2682 H 0.66354 0.57238 0.87963 0.0
C2683 C 0.70956 0.6195 0.87689 0.0
C2684 C 0.69471 0.6185 0.89545 0.0
H2685 H 0.71823 0.60603 0.84433 0.0
H2686 H 0.72213 0.63285 0.87558 0.0
C2687 C 0.67878 0.60074 0.89669 0.0
C2688 C 0.65085 0.34256 0.55978 0.0
C2689 C 0.64923 0.35933 0.54284 0.0
H2690 H 0.63395 0.31565 0.57754 0.0
C2691 C 0.63049 0.35918 0.52816 0.0
H2692 H 0.66524 0.34215 0.57122 0.0
C2693 C 0.61264 0.34403 0.53179 0.0
C2694 C 0.6133 0.32869 0.55006 0.0
H2695 H 0.62887 0.37174 0.51484 0.0
H2696 H 0.59767 0.34537 0.5212 0.0
C2697 C 0.63302 0.32728 0.56332 0.0
C2698 C 0.41271 0.37669 0.81969 0.0
C2699 C 0.40992 0.35674 0.80701 0.0
H2700 H 0.39899 0.4093 0.8282 0.0
C2701 C 0.39234 0.35549 0.79093 0.0
H2702 H 0.42603 0.37799 0.83231 0.0
C2703 C 0.37695 0.37331 0.78853 0.0
C2704 C 0.37871 0.3926 0.80237 0.0
H2705 H 0.38987 0.34027 0.78089 0.0
H2706 H 0.36307 0.3715 0.77661 0.0
C2707 C 0.39711 0.39447 0.81748 0.0
C2708 C 0.38679 0.14684 0.03534 0.0
C2709 C 0.38591 0.16334 0.05257 0.0
H2710 H 0.3715 0.11729 0.02075 0.0
C2711 C 0.36701 0.16403 0.06704 0.0
H2712 H 0.4012 0.14594 0.02395 0.0
C2713 C 0.35018 0.14737 0.06543 0.0
C2714 C 0.3519 0.12994 0.04919 0.0
H2715 H 0.366 0.17643 0.08058 0.0
H2716 H 0.3363 0.14763 0.07749 0.0
C2717 C 0.36988 0.13034 0.0336 0.0
C2718 C 0.58052 0.12137 0.31459 0.0
C2719 C 0.58373 0.14214 0.30341 0.0
H2720 H 0.59356 0.08791 0.32047 0.0
C2721 C 0.60066 0.14389 0.2867 0.0
H2722 H 0.56763 0.11964 0.32758 0.0
C2723 C 0.61536 0.12582 0.28252 0.0
C2724 C 0.61355 0.10574 0.29518 0.0
H2725 H 0.60336 0.15971 0.27771 0.0
H2726 H 0.62902 0.12814 0.27044 0.0
C2727 C 0.59544 0.1033 0.31058 0.0
C2728 C 0.6313 0.66952 0.43556 0.0
C2729 C 0.61154 0.66821 0.44878 0.0
H2730 H 0.6633 0.65429 0.42746 0.0
C2731 C 0.61061 0.65254 0.46676 0.0
H2732 H 0.63243 0.68139 0.42156 0.0
C2733 C 0.6282 0.63705 0.47015 0.0
C2734 C 0.64697 0.63687 0.45552 0.0
H2735 H 0.5956 0.65128 0.47732 0.0
H2736 H 0.62636 0.62428 0.48326 0.0
C2737 C 0.64888 0.6539 0.43887 0.0
C2738 C 0.1208 0.36966 0.71097 0.0
C2739 C 0.11831 0.38997 0.69883 0.0
H2740 H 0.10873 0.33582 0.71609 0.0
C2741 C 0.09943 0.39273 0.68445 0.0
H2742 H 0.13509 0.36712 0.72226 0.0
C2743 C 0.08411 0.3749 0.68117 0.0
C2744 C 0.08766 0.354 0.69198 0.0
H2745 H 0.09701 0.40834 0.67504 0.0
H2746 H 0.07041 0.37699 0.66908 0.0
C2747 C 0.10569 0.35178 0.70746 0.0
C2748 C 0.34653 0.84517 0.93351 0.0
C2749 C 0.34782 0.86233 0.95009 0.0
H2750 H 0.36342 0.81726 0.91731 0.0
C2751 C 0.3659 0.86209 0.96558 0.0
H2752 H 0.33265 0.84482 0.92146 0.0
C2753 C 0.38341 0.8463 0.96324 0.0
C2754 C 0.38313 0.83041 0.94543 0.0
H2755 H 0.36724 0.87493 0.97868 0.0
H2756 H 0.3979 0.84749 0.97451 0.0
C2757 C 0.36403 0.82926 0.93124 0.0
C2758 C 0.89973 0.14031 0.2141 0.0
C2759 C 0.91634 0.13885 0.19705 0.0
H2760 H 0.87154 0.12435 0.23043 0.0
C2761 C 0.91931 0.11831 0.1854 0.0
H2762 H 0.89723 0.15596 0.22345 0.0
C2763 C 0.90438 0.10023 0.18922 0.0
C2764 C 0.8865 0.10245 0.20492 0.0
H2765 H 0.93196 0.11681 0.17213 0.0
H2766 H 0.906 0.08508 0.17893 0.0
C2767 C 0.88502 0.12221 0.21811 0.0
C2768 C 0.53709 0.12621 0.86885 0.0
C2769 C 0.55251 0.14435 0.86862 0.0
H2770 H 0.52764 0.09431 0.85432 0.0
C2771 C 0.5687 0.14559 0.85111 0.0
H2772 H 0.52427 0.12493 0.88197 0.0
C2773 C 0.57042 0.1282 0.83503 0.0
C2774 C 0.5561 0.10922 0.83635 0.0
H2775 H 0.58064 0.15956 0.85035 0.0
H2776 H 0.58392 0.12891 0.82256 0.0
C2777 C 0.53893 0.10876 0.85292 0.0
C2778 C 0.6159 0.27946 0.11052 0.0
C2779 C 0.5976 0.29469 0.11081 0.0
H2780 H 0.64827 0.27135 0.09628 0.0
C2781 C 0.59629 0.31158 0.09397 0.0
H2782 H 0.61726 0.26614 0.12313 0.0
C2783 C 0.61399 0.31445 0.0784 0.0
C2784 C 0.63331 0.30056 0.07959 0.0
H2785 H 0.58224 0.32344 0.09366 0.0
H2786 H 0.61334 0.32861 0.06669 0.0
C2787 C 0.63362 0.2824 0.09508 0.0
C2788 C 0.42835 0.35226 0.3512 0.0
C2789 C 0.44397 0.35504 0.36906 0.0
H2790 H 0.41291 0.36706 0.32176 0.0
C2791 C 0.45807 0.37421 0.36924 0.0
H2792 H 0.41742 0.33749 0.3505 0.0
C2793 C 0.4555 0.39107 0.35278 0.0
C2794 C 0.4389 0.38898 0.33575 0.0
H2795 H 0.47039 0.3767 0.38266 0.0
H2796 H 0.46579 0.40626 0.35404 0.0
C2797 C 0.42591 0.36906 0.33461 0.0
C2798 C 0.38224 0.1846 0.57697 0.0
C2799 C 0.36238 0.19765 0.5785 0.0
H2800 H 0.41448 0.1768 0.59184 0.0
C2801 C 0.36146 0.21565 0.59415 0.0
H2802 H 0.38337 0.1706 0.5651 0.0
C2803 C 0.37921 0.21922 0.60943 0.0
C2804 C 0.39811 0.20474 0.60941 0.0
H2805 H 0.34638 0.22607 0.59559 0.0
H2806 H 0.3774 0.23233 0.6222 0.0
C2807 C 0.39997 0.18808 0.59239 0.0
C2808 C 0.56658 0.85429 0.14697 0.0
C2809 C 0.55038 0.85572 0.12947 0.0
H2810 H 0.58214 0.8709 0.17538 0.0
C2811 C 0.53527 0.87411 0.12916 0.0
H2812 H 0.57829 0.84014 0.14778 0.0
C2813 C 0.53744 0.89162 0.14497 0.0
C2814 C 0.55465 0.89098 0.1615 0.0
H2815 H 0.52246 0.87553 0.11604 0.0
H2816 H 0.5264 0.90627 0.14349 0.0
C2817 C 0.56863 0.87176 0.16294 0.0
C2818 C 0.88532 0.31495 0.41996 0.0
C2819 C 0.86613 0.30089 0.41891 0.0
H2820 H 0.91684 0.32427 0.40443 0.0
C2821 C 0.86582 0.28279 0.40335 0.0
H2822 H 0.88597 0.32908 0.43172 0.0
C2823 C 0.88341 0.28006 0.38773 0.0
C2824 C 0.90156 0.29545 0.38732 0.0
H2825 H 0.85125 0.27162 0.40226 0.0
H2826 H 0.88204 0.26677 0.37509 0.0
C2827 C 0.9029 0.31229 0.40421 0.0
C2828 C 0.43131 0.64682 0.64866 0.0
C2829 C 0.44689 0.64522 0.63061 0.0
H2830 H 0.41548 0.6298 0.67671 0.0
C2831 C 0.46062 0.62587 0.62881 0.0
H2832 H 0.42064 0.66168 0.65056 0.0
C2833 C 0.45758 0.60769 0.64367 0.0
C2834 C 0.44096 0.60866 0.66076 0.0
H2835 H 0.47287 0.62424 0.61519 0.0
H2836 H 0.4675 0.59241 0.64109 0.0
C2837 C 0.42847 0.6287 0.66375 0.0
C2838 C 0.10037 0.18983 0.90385 0.0
C2839 C 0.10293 0.20493 0.8855 0.0
H2840 H 0.11669 0.17275 0.9316 0.0
C2841 C 0.12325 0.2171 0.88326 0.0
H2842 H 0.0848 0.18032 0.90605 0.0
C2843 C 0.14145 0.21263 0.89773 0.0
C2844 C 0.13954 0.19614 0.91485 0.0
H2845 H 0.12567 0.22893 0.86939 0.0
H2846 H 0.15745 0.22117 0.89467 0.0
C2847 C 0.11855 0.18556 0.91854 0.0
C2848 C 0.84856 0.06406 0.64283 0.0
C2849 C 0.86716 0.04927 0.64041 0.0
H2850 H 0.81986 0.07963 0.62669 0.0
C2851 C 0.86947 0.03665 0.62037 0.0
H2852 H 0.84629 0.07385 0.65823 0.0
C2853 C 0.85447 0.04007 0.60238 0.0
C2854 C 0.83674 0.05593 0.60425 0.0
H2855 H 0.88355 0.02505 0.6181 0.0
H2856 H 0.85739 0.03106 0.58661 0.0
C2857 C 0.83333 0.06725 0.6249 0.0
C2858 C 0.35076 0.96173 0.88871 0.0
C2859 C 0.33367 0.94522 0.88669 0.0
H2860 H 0.3795 0.97769 0.87336 0.0
C2861 C 0.33056 0.93416 0.86585 0.0
H2862 H 0.35338 0.97063 0.9046 0.0
C2863 C 0.34574 0.93803 0.84798 0.0
C2864 C 0.364 0.9532 0.8507 0.0
H2865 H 0.31754 0.92132 0.86392 0.0
H2866 H 0.34393 0.9282 0.83254 0.0
C2867 C 0.36572 0.96579 0.87082 0.0
C2868 C 0.82096 0.08747 0.12166 0.0
C2869 C 0.8083 0.09023 0.14164 0.0
H2870 H 0.82956 0.10131 0.08915 0.0
C2871 C 0.79237 0.10795 0.143 0.0
H2872 H 0.83346 0.07406 0.12026 0.0
C2873 C 0.79008 0.12347 0.12526 0.0
C2874 C 0.80389 0.12171 0.10595 0.0
H2875 H 0.78237 0.11041 0.15823 0.0
H2876 H 0.77827 0.13743 0.12715 0.0
C2877 C 0.81887 0.1032 0.10399 0.0
C2878 C 0.62348 0.53645 0.37851 0.0
C2879 C 0.62568 0.54863 0.35819 0.0
H2880 H 0.63607 0.53122 0.41214 0.0
C2881 C 0.64453 0.56301 0.35521 0.0
H2882 H 0.60924 0.52515 0.38122 0.0
C2883 C 0.66012 0.56625 0.37283 0.0
C2884 C 0.65688 0.55537 0.39374 0.0
H2885 H 0.64674 0.57245 0.33959 0.0
H2886 H 0.6738 0.57833 0.37058 0.0
C2887 C 0.63887 0.53991 0.39618 0.0
C2888 C 0.67688 0.91107 0.62151 0.0
C2889 C 0.69026 0.90844 0.64102 0.0
H2890 H 0.66737 0.8972 0.58925 0.0
C2891 C 0.70652 0.89099 0.64174 0.0
H2892 H 0.6641 0.92427 0.62063 0.0
C2893 C 0.70842 0.87556 0.62388 0.0
C2894 C 0.69391 0.87715 0.60509 0.0
H2895 H 0.7171 0.88863 0.6566 0.0
H2896 H 0.72053 0.86179 0.6253 0.0
C2897 C 0.6786 0.89544 0.6037 0.0
C2898 C 0.13153 0.9662 0.62536 0.0
C2899 C 0.13373 0.95379 0.64555 0.0
H2900 H 0.14331 0.97099 0.59138 0.0
C2901 C 0.15228 0.93893 0.64811 0.0
H2902 H 0.11751 0.97786 0.62295 0.0
C2903 C 0.16726 0.93518 0.63006 0.0
C2904 C 0.16369 0.94604 0.60918 0.0
H2905 H 0.15446 0.92924 0.66359 0.0
H2906 H 0.18052 0.92256 0.6319 0.0
C2907 C 0.1463 0.96225 0.60729 0.0
C2908 C 0.82034 0.39572 0.39448 0.0
C2909 C 0.80495 0.37751 0.39297 0.0
H2910 H 0.83521 0.42441 0.37765 0.0
C2911 C 0.79071 0.37591 0.37397 0.0
H2912 H 0.83137 0.39749 0.40908 0.0
C2913 C 0.79295 0.39125 0.35607 0.0
C2914 C 0.80927 0.40863 0.35694 0.0
H2915 H 0.77857 0.36219 0.37243 0.0
H2916 H 0.78258 0.38887 0.34106 0.0
C2917 C 0.82239 0.41126 0.37663 0.0
C2918 C 0.18147 0.07876 0.88292 0.0
C2919 C 0.19585 0.07934 0.86394 0.0
H2920 H 0.17195 0.09479 0.91415 0.0
C2921 C 0.2142 0.09459 0.86376 0.0
H2922 H 0.16712 0.06727 0.88344 0.0
C2923 C 0.21694 0.11036 0.88123 0.0
C2924 C 0.20129 0.11123 0.89916 0.0
H2925 H 0.22562 0.09534 0.84936 0.0
H2926 H 0.23047 0.12274 0.87995 0.0
C2927 C 0.18413 0.09466 0.90038 0.0
C2928 C 0.60931 0.84796 0.032 0.0
C2929 C 0.61042 0.83198 0.04969 0.0
H2930 H 0.62529 0.87602 0.01538 0.0
C2931 C 0.63053 0.82999 0.06228 0.0
H2932 H 0.59403 0.84976 0.02193 0.0
C2933 C 0.6484 0.8452 0.05864 0.0
C2934 C 0.64644 0.86248 0.04226 0.0
H2935 H 0.6318 0.81787 0.07606 0.0
H2936 H 0.66316 0.84425 0.06956 0.0
C2937 C 0.62719 0.86303 0.02826 0.0
C2938 C 0.3766 0.87266 0.28787 0.0
C2939 C 0.37902 0.89259 0.30065 0.0
H2940 H 0.38835 0.8388 0.28212 0.0
C2941 C 0.39752 0.89468 0.31561 0.0
H2942 H 0.3626 0.87065 0.27612 0.0
C2943 C 0.4125 0.87654 0.31881 0.0
C2944 C 0.40897 0.856 0.3073 0.0
H2945 H 0.39989 0.90998 0.32553 0.0
H2946 H 0.42589 0.87809 0.33131 0.0
C2947 C 0.39136 0.85447 0.29128 0.0
C2948 C 0.35049 0.64984 0.5665 0.0
C2949 C 0.35233 0.63259 0.55008 0.0
H2950 H 0.36636 0.6785 0.58235 0.0
C2951 C 0.37065 0.63295 0.53489 0.0
H2952 H 0.33637 0.65013 0.57827 0.0
C2953 C 0.38773 0.6492 0.5372 0.0
C2954 C 0.3867 0.66549 0.55461 0.0
H2955 H 0.37238 0.62002 0.52192 0.0
H2956 H 0.40236 0.64825 0.52609 0.0
C2957 C 0.36751 0.66624 0.56868 0.0
C2958 C 0.60198 0.64145 0.78671 0.0
C2959 C 0.5847 0.63969 0.80306 0.0
H2960 H 0.63059 0.62564 0.77092 0.0
C2961 C 0.58116 0.61886 0.81402 0.0
H2962 H 0.60495 0.65732 0.77788 0.0
C2963 C 0.59605 0.60073 0.81019 0.0
C2964 C 0.61449 0.60317 0.79518 0.0
H2965 H 0.568 0.6171 0.82674 0.0
H2966 H 0.59388 0.58529 0.81993 0.0
C2967 C 0.61666 0.62332 0.7827 0.0
C2968 C 0.61266 0.15453 0.96634 0.0
C2969 C 0.61335 0.16991 0.9481 0.0
H2970 H 0.62894 0.12689 0.98339 0.0
C2971 C 0.63316 0.17145 0.93499 0.0
H2972 H 0.59762 0.1531 0.97683 0.0
C2973 C 0.65106 0.15627 0.93864 0.0
C2974 C 0.64943 0.13947 0.95556 0.0
H2975 H 0.63412 0.18311 0.9208 0.0
H2976 H 0.66553 0.15678 0.92731 0.0
C2977 C 0.63058 0.13949 0.97009 0.0
C2978 C 0.09869 0.89375 0.18435 0.0
C2979 C 0.11689 0.89155 0.19965 0.0
H2980 H 0.0699 0.87775 0.16889 0.0
C2981 C 0.1182 0.87216 0.21339 0.0
H2982 H 0.09712 0.90867 0.1737 0.0
C2983 C 0.10262 0.85451 0.21063 0.0
C2984 C 0.08536 0.85604 0.19422 0.0
H2985 H 0.13191 0.87009 0.22547 0.0
H2986 H 0.10482 0.83917 0.22054 0.0
C2987 C 0.08296 0.87617 0.18173 0.0
C2988 C 0.34678 0.34699 0.4373 0.0
C2989 C 0.34845 0.36493 0.45299 0.0
H2990 H 0.36358 0.31878 0.42153 0.0
C2991 C 0.36731 0.36589 0.46749 0.0
H2992 H 0.33231 0.34572 0.42602 0.0
C2993 C 0.38512 0.35048 0.46492 0.0
C2994 C 0.38434 0.33375 0.44791 0.0
H2995 H 0.36897 0.37937 0.47989 0.0
H2996 H 0.40013 0.35256 0.47534 0.0
C2997 C 0.36458 0.33144 0.43482 0.0
C2998 C 0.87976 0.62649 0.71211 0.0
C2999 C 0.88159 0.60655 0.69923 0.0
H3000 H 0.89216 0.66015 0.71764 0.0
C3001 C 0.89979 0.60416 0.68395 0.0
H3002 H 0.866 0.62873 0.7241 0.0
C3003 C 0.91501 0.62204 0.6805 0.0
C3004 C 0.91201 0.64263 0.69205 0.0
H3005 H 0.9017 0.58884 0.67395 0.0
H3006 H 0.92812 0.62029 0.66772 0.0
C3007 C 0.89475 0.64443 0.70843 0.0
C3008 C 0.56567 0.64583 0.35225 0.0
C3009 C 0.54953 0.64496 0.36984 0.0
H3010 H 0.58035 0.62876 0.32362 0.0
C3011 C 0.53366 0.62722 0.37011 0.0
H3012 H 0.57795 0.65948 0.35147 0.0
C3013 C 0.535 0.60976 0.35416 0.0
C3014 C 0.5521 0.60979 0.33752 0.0
H3015 H 0.52087 0.62624 0.38329 0.0
H3016 H 0.52336 0.59558 0.3556 0.0
C3017 C 0.56688 0.62841 0.33614 0.0
C3018 C 0.63223 0.78281 0.59526 0.0
C3019 C 0.63195 0.80107 0.57989 0.0
H3020 H 0.61626 0.76677 0.62365 0.0
C3021 C 0.61297 0.81546 0.57934 0.0
H3022 H 0.64663 0.77138 0.59597 0.0
C3023 C 0.59564 0.81294 0.59539 0.0
C3024 C 0.597 0.79591 0.61208 0.0
H3025 H 0.61236 0.82972 0.56775 0.0
H3026 H 0.5819 0.82515 0.59554 0.0
C3027 C 0.61489 0.78021 0.61118 0.0
C3028 C 0.45712 0.89074 0.85526 0.0
C3029 C 0.441 0.88959 0.83771 0.0
H3030 H 0.4712 0.87484 0.8847 0.0
C3031 C 0.42798 0.86982 0.83516 0.0
H3032 H 0.46741 0.90582 0.85756 0.0
C3033 C 0.42991 0.85219 0.85096 0.0
C3034 C 0.44506 0.85401 0.86935 0.0
H3035 H 0.41531 0.86861 0.82188 0.0
H3036 H 0.41894 0.83753 0.84927 0.0
C3037 C 0.45923 0.87307 0.87086 0.0
C3038 C 0.38224 0.68412 0.08071 0.0
C3039 C 0.36259 0.69746 0.0824 0.0
H3040 H 0.4143 0.67553 0.09557 0.0
C3041 C 0.36183 0.71507 0.09849 0.0
H3042 H 0.38322 0.67037 0.06853 0.0
C3043 C 0.37952 0.71802 0.11395 0.0
C3044 C 0.39824 0.70331 0.11367 0.0
H3045 H 0.3469 0.7257 0.10007 0.0
H3046 H 0.37786 0.7309 0.12697 0.0
C3047 C 0.39993 0.68698 0.09631 0.0
C3048 C 0.5683 0.35273 0.64699 0.0
C3049 C 0.55198 0.35379 0.62958 0.0
H3050 H 0.58347 0.36958 0.67547 0.0
C3051 C 0.53632 0.37173 0.62947 0.0
H3052 H 0.58042 0.33892 0.64765 0.0
C3053 C 0.53804 0.38918 0.64541 0.0
C3054 C 0.55532 0.38893 0.66187 0.0
H3055 H 0.52341 0.37286 0.61643 0.0
H3056 H 0.52657 0.4035 0.64409 0.0
C3057 C 0.56989 0.37012 0.66309 0.0
C3058 C 0.88398 0.81347 0.91797 0.0
C3059 C 0.86492 0.79923 0.91677 0.0
H3060 H 0.91546 0.82319 0.9026 0.0
C3061 C 0.86482 0.78128 0.90104 0.0
H3062 H 0.88445 0.82751 0.92985 0.0
C3063 C 0.88247 0.77884 0.88544 0.0
C3064 C 0.9005 0.79438 0.88521 0.0
H3065 H 0.85036 0.76998 0.89982 0.0
H3066 H 0.88126 0.76563 0.87269 0.0
C3067 C 0.90162 0.8111 0.90224 0.0
C3068 C 0.42812 0.12828 0.16173 0.0
C3069 C 0.4402 0.10799 0.15878 0.0
H3070 H 0.42061 0.16122 0.14826 0.0
C3071 C 0.45641 0.10648 0.14134 0.0
H3072 H 0.41544 0.12979 0.17497 0.0
C3073 C 0.45946 0.1244 0.12617 0.0
C3074 C 0.44613 0.14402 0.12801 0.0
H3075 H 0.46602 0.091 0.13877 0.0
H3076 H 0.47139 0.12237 0.11232 0.0
C3077 C 0.43096 0.14614 0.14634 0.0
C3078 C 0.13682 0.71192 0.39781 0.0
C3079 C 0.13557 0.69507 0.41465 0.0
H3080 H 0.1211 0.72719 0.36889 0.0
C3081 C 0.11551 0.68248 0.41703 0.0
H3082 H 0.15209 0.72196 0.39572 0.0
C3083 C 0.0978 0.68531 0.40143 0.0
C3084 C 0.09987 0.70091 0.38344 0.0
H3085 H 0.11419 0.66932 0.4298 0.0
H3086 H 0.08305 0.67441 0.40272 0.0
C3087 C 0.11909 0.7149 0.38242 0.0
C3088 C 0.85134 0.56719 0.14408 0.0
C3089 C 0.87031 0.55289 0.14167 0.0
H3090 H 0.8218 0.5814 0.1282 0.0
C3091 C 0.8726 0.53985 0.12189 0.0
H3092 H 0.84905 0.57728 0.15929 0.0
C3093 C 0.85708 0.54226 0.10417 0.0
C3094 C 0.83885 0.55755 0.10602 0.0
H3095 H 0.88694 0.52856 0.11965 0.0
H3096 H 0.85991 0.53287 0.08861 0.0
C3097 C 0.83562 0.56941 0.12642 0.0
C3098 C 0.32852 0.43049 0.36724 0.0
C3099 C 0.33113 0.44363 0.38691 0.0
H3100 H 0.342 0.42208 0.33452 0.0
C3101 C 0.34752 0.46095 0.3873 0.0
H3102 H 0.31609 0.41695 0.3666 0.0
C3103 C 0.3622 0.46401 0.36898 0.0
C3104 C 0.36094 0.44956 0.3501 0.0
H3105 H 0.34979 0.47137 0.40229 0.0
H3106 H 0.37541 0.47674 0.37024 0.0
C3107 C 0.34345 0.43333 0.349 0.0
C3108 C 0.78838 0.60396 0.64075 0.0
C3109 C 0.80515 0.587 0.63974 0.0
H3110 H 0.77387 0.63336 0.62506 0.0
C3111 C 0.81887 0.58541 0.62034 0.0
H3112 H 0.77755 0.60557 0.65553 0.0
C3113 C 0.81698 0.60155 0.60303 0.0
C3114 C 0.8012 0.61939 0.60477 0.0
H3115 H 0.83205 0.57263 0.61919 0.0
H3116 H 0.82846 0.60055 0.5887 0.0
C3117 C 0.78636 0.61996 0.62338 0.0
C3118 C 0.66512 0.06843 0.87325 0.0
C3119 C 0.66182 0.05743 0.89409 0.0
H3120 H 0.65212 0.07433 0.83982 0.0
C3121 C 0.64426 0.04142 0.89621 0.0
H3122 H 0.67847 0.08092 0.87126 0.0
C3123 C 0.6293 0.03754 0.87828 0.0
C3124 C 0.63148 0.04985 0.85803 0.0
H3125 H 0.64143 0.03264 0.91212 0.0
H3126 H 0.61534 0.02583 0.88073 0.0
C3127 C 0.64994 0.06478 0.85537 0.0
C3128 C 0.67638 0.41114 0.12243 0.0
C3129 C 0.6897 0.40866 0.14201 0.0
H3130 H 0.66732 0.39726 0.09004 0.0
C3131 C 0.70628 0.39151 0.14271 0.0
H3132 H 0.66336 0.42409 0.12156 0.0
C3133 C 0.70858 0.37622 0.12478 0.0
C3134 C 0.69415 0.37762 0.10591 0.0
H3135 H 0.7168 0.38926 0.15763 0.0
H3136 H 0.72093 0.36266 0.12621 0.0
C3137 C 0.67851 0.39564 0.10454 0.0
C3138 C 0.15046 0.43511 0.14399 0.0
C3139 C 0.13281 0.45108 0.14195 0.0
H3140 H 0.17867 0.4188 0.12779 0.0
C3141 C 0.13204 0.46512 0.12274 0.0
H3142 H 0.15161 0.42422 0.15876 0.0
C3143 C 0.14752 0.46202 0.10509 0.0
C3144 C 0.16416 0.44496 0.10641 0.0
H3145 H 0.11877 0.47771 0.12081 0.0
H3146 H 0.1457 0.47219 0.08987 0.0
C3147 C 0.1661 0.43214 0.12638 0.0
C3148 C 0.81895 0.89375 0.89339 0.0
C3149 C 0.80422 0.87509 0.89106 0.0
H3150 H 0.83368 0.92301 0.87746 0.0
C3151 C 0.79098 0.87314 0.87138 0.0
H3152 H 0.82919 0.89578 0.90852 0.0
C3153 C 0.79358 0.88866 0.85369 0.0
C3154 C 0.80928 0.90655 0.85545 0.0
H3155 H 0.77936 0.85906 0.8692 0.0
H3156 H 0.784 0.88608 0.8382 0.0
C3157 C 0.82137 0.90946 0.87575 0.0
C3158 C 0.18565 0.59806 0.40034 0.0
C3159 C 0.2013 0.61608 0.39906 0.0
H3160 H 0.17032 0.56988 0.38301 0.0
C3161 C 0.21603 0.61729 0.38041 0.0
H3162 H 0.17418 0.59661 0.41464 0.0
C3163 C 0.21378 0.60208 0.36242 0.0
C3164 C 0.1969 0.58523 0.36282 0.0
H3165 H 0.22839 0.63084 0.37904 0.0
H3166 H 0.22439 0.60434 0.34757 0.0
C3167 C 0.18353 0.58264 0.38235 0.0
loop_
_geom_bond_atom_site_label_1
_geom_bond_atom_site_label_2
_geom_bond_distance
_geom_bond_site_symmetry_2
_ccdc_geom_bond_type
In0 O1 2.294 . S
In0 O2 2.326 . S
In0 O6 2.266 . S
In0 O7 2.326 . S
In0 O8 2.266 . S
In0 O9 2.326 . S
In0 O11 2.294 . S
In0 O12 2.326 . S
O1 In0 2.294 . S
O1 C10 1.240 . S
O2 In0 2.326 . S
O2 C10 1.252 . S
C3 O6 1.252 . S
C3 O7 1.260 . S
C4 O11 1.240 . S
C4 O12 1.252 . S
C5 O8 1.252 . S
C5 O9 1.260 . S
O6 In0 2.266 . S
O6 C3 1.252 . S
O7 In0 2.326 . S
O7 C3 1.260 . S
O8 In0 2.266 . S
O8 C5 1.252 . S
O9 In0 2.326 . S
O9 C5 1.260 . S
C10 O1 1.240 . S
C10 O2 1.252 . S
O11 In0 2.294 . S
O11 C4 1.240 . S
O12 In0 2.326 . S
O12 C4 1.252 . S
In13 O14 2.294 . S
In13 O15 2.326 . S
In13 O19 2.266 . S
In13 O20 2.326 . S
In13 O21 2.266 . S
In13 O22 2.326 . S
In13 O24 2.294 . S
In13 O25 2.326 . S
O14 In13 2.294 . S
O14 C23 1.240 . S
O15 In13 2.326 . S
O15 C23 1.252 . S
C16 O19 1.252 . S
C16 O20 1.260 . S
C17 O24 1.240 . S
C17 O25 1.252 . S
C18 O21 1.252 . S
C18 O22 1.260 . S
O19 In13 2.266 . S
O19 C16 1.252 . S
O20 In13 2.326 . S
O20 C16 1.260 . S
O21 In13 2.266 . S
O21 C18 1.252 . S
O22 In13 2.326 . S
O22 C18 1.260 . S
C23 O14 1.240 . S
C23 O15 1.252 . S
O24 In13 2.294 . S
O24 C17 1.240 . S
O25 In13 2.326 . S
O25 C17 1.252 . S
In26 O27 2.294 . S
In26 O28 2.326 . S
In26 O32 2.266 . S
In26 O33 2.326 . S
In26 O34 2.266 . S
In26 O35 2.326 . S
In26 O37 2.294 . S
In26 O38 2.326 . S
O27 In26 2.294 . S
O27 C36 1.240 . S
O28 In26 2.326 . S
O28 C36 1.252 . S
C29 O32 1.252 . S
C29 O33 1.260 . S
C30 O37 1.240 . S
C30 O38 1.252 . S
C31 O34 1.252 . S
C31 O35 1.260 . S
O32 In26 2.266 . S
O32 C29 1.252 . S
O33 In26 2.326 . S
O33 C29 1.260 . S
O34 In26 2.266 . S
O34 C31 1.252 . S
O35 In26 2.326 . S
O35 C31 1.260 . S
C36 O27 1.240 . S
C36 O28 1.252 . S
O37 In26 2.294 . S
O37 C30 1.240 . S
O38 In26 2.326 . S
O38 C30 1.252 . S
In39 O40 2.294 . S
In39 O41 2.326 . S
In39 O45 2.266 . S
In39 O46 2.326 . S
In39 O47 2.266 . S
In39 O48 2.326 . S
In39 O50 2.294 . S
In39 O51 2.326 . S
O40 In39 2.294 . S
O40 C49 1.240 . S
O41 In39 2.326 . S
O41 C49 1.252 . S
C42 O45 1.252 . S
C42 O46 1.260 . S
C43 O50 1.240 . S
C43 O51 1.252 . S
C44 O47 1.252 . S
C44 O48 1.260 . S
O45 In39 2.266 . S
O45 C42 1.252 . S
O46 In39 2.326 . S
O46 C42 1.260 . S
O47 In39 2.266 . S
O47 C44 1.252 . S
O48 In39 2.326 . S
O48 C44 1.260 . S
C49 O40 1.240 . S
C49 O41 1.252 . S
O50 In39 2.294 . S
O50 C43 1.240 . S
O51 In39 2.326 . S
O51 C43 1.252 . S
In52 O53 2.294 . S
In52 O54 2.326 . S
In52 O58 2.266 . S
In52 O59 2.326 . S
In52 O60 2.266 . S
In52 O61 2.326 . S
In52 O63 2.294 . S
In52 O64 2.326 . S
O53 In52 2.294 . S
O53 C62 1.240 . S
O54 In52 2.326 . S
O54 C62 1.252 . S
C55 O58 1.252 . S
C55 O59 1.260 . S
C56 O63 1.240 . S
C56 O64 1.252 . S
C57 O60 1.252 . S
C57 O61 1.260 . S
O58 In52 2.266 . S
O58 C55 1.252 . S
O59 In52 2.326 . S
O59 C55 1.260 . S
O60 In52 2.266 . S
O60 C57 1.252 . S
O61 In52 2.326 . S
O61 C57 1.260 . S
C62 O53 1.240 . S
C62 O54 1.252 . S
O63 In52 2.294 . S
O63 C56 1.240 . S
O64 In52 2.326 . S
O64 C56 1.252 . S
In65 O66 2.294 . S
In65 O67 2.326 . S
In65 O71 2.266 . S
In65 O72 2.326 . S
In65 O73 2.266 . S
In65 O74 2.326 . S
In65 O76 2.294 . S
In65 O77 2.326 . S
O66 In65 2.294 . S
O66 C75 1.240 . S
O67 In65 2.326 . S
O67 C75 1.252 . S
C68 O71 1.252 . S
C68 O72 1.260 . S
C69 O76 1.240 . S
C69 O77 1.252 . S
C70 O73 1.252 . S
C70 O74 1.260 . S
O71 In65 2.266 . S
O71 C68 1.252 . S
O72 In65 2.326 . S
O72 C68 1.260 . S
O73 In65 2.266 . S
O73 C70 1.252 . S
O74 In65 2.326 . S
O74 C70 1.260 . S
C75 O66 1.240 . S
C75 O67 1.252 . S
O76 In65 2.294 . S
O76 C69 1.240 . S
O77 In65 2.326 . S
O77 C69 1.252 . S
In78 O79 2.294 . S
In78 O80 2.326 . S
In78 O84 2.266 . S
In78 O85 2.326 . S
In78 O86 2.266 . S
In78 O87 2.326 . S
In78 O89 2.294 . S
In78 O90 2.326 . S
O79 In78 2.294 . S
O79 C88 1.240 . S
O80 In78 2.326 . S
O80 C88 1.252 . S
C81 O84 1.252 . S
C81 O85 1.260 . S
C82 O89 1.240 . S
C82 O90 1.252 . S
C83 O86 1.252 . S
C83 O87 1.260 . S
O84 In78 2.266 . S
O84 C81 1.252 . S
O85 In78 2.326 . S
O85 C81 1.260 . S
O86 In78 2.266 . S
O86 C83 1.252 . S
O87 In78 2.326 . S
O87 C83 1.260 . S
C88 O79 1.240 . S
C88 O80 1.252 . S
O89 In78 2.294 . S
O89 C82 1.240 . S
O90 In78 2.326 . S
O90 C82 1.252 . S
In91 O92 2.294 . S
In91 O93 2.326 . S
In91 O97 2.266 . S
In91 O98 2.326 . S
In91 O99 2.266 . S
In91 O100 2.326 . S
In91 O102 2.294 . S
In91 O103 2.326 . S
O92 In91 2.294 . S
O92 C101 1.240 . S
O93 In91 2.326 . S
O93 C101 1.252 . S
C94 O97 1.252 . S
C94 O98 1.260 . S
C95 O102 1.240 . S
C95 O103 1.252 . S
C96 O99 1.252 . S
C96 O100 1.260 . S
O97 In91 2.266 . S
O97 C94 1.252 . S
O98 In91 2.326 . S
O98 C94 1.260 . S
O99 In91 2.266 . S
O99 C96 1.252 . S
O100 In91 2.326 . S
O100 C96 1.260 . S
C101 O92 1.240 . S
C101 O93 1.252 . S
O102 In91 2.294 . S
O102 C95 1.240 . S
O103 In91 2.326 . S
O103 C95 1.252 . S
In104 O105 2.294 . S
In104 O106 2.326 . S
In104 O110 2.266 . S
In104 O111 2.326 . S
In104 O112 2.266 . S
In104 O113 2.326 . S
In104 O115 2.294 . S
In104 O116 2.326 . S
O105 In104 2.294 . S
O105 C114 1.240 . S
O106 In104 2.326 . S
O106 C114 1.252 . S
C107 O110 1.252 . S
C107 O111 1.260 . S
C108 O115 1.240 . S
C108 O116 1.252 . S
C109 O112 1.252 . S
C109 O113 1.260 . S
O110 In104 2.266 . S
O110 C107 1.252 . S
O111 In104 2.326 . S
O111 C107 1.260 . S
O112 In104 2.266 . S
O112 C109 1.252 . S
O113 In104 2.326 . S
O113 C109 1.260 . S
C114 O105 1.240 . S
C114 O106 1.252 . S
O115 In104 2.294 . S
O115 C108 1.240 . S
O116 In104 2.326 . S
O116 C108 1.252 . S
In117 O118 2.294 . S
In117 O119 2.326 . S
In117 O123 2.266 . S
In117 O124 2.326 . S
In117 O125 2.266 . S
In117 O126 2.326 . S
In117 O128 2.294 . S
In117 O129 2.326 . S
O118 In117 2.294 . S
O118 C127 1.240 . S
O119 In117 2.326 . S
O119 C127 1.252 . S
C120 O123 1.252 . S
C120 O124 1.260 . S
C121 O128 1.240 . S
C121 O129 1.252 . S
C122 O125 1.252 . S
C122 O126 1.260 . S
O123 In117 2.266 . S
O123 C120 1.252 . S
O124 In117 2.326 . S
O124 C120 1.260 . S
O125 In117 2.266 . S
O125 C122 1.252 . S
O126 In117 2.326 . S
O126 C122 1.260 . S
C127 O118 1.240 . S
C127 O119 1.252 . S
O128 In117 2.294 . S
O128 C121 1.240 . S
O129 In117 2.326 . S
O129 C121 1.252 . S
In130 O131 2.294 . S
In130 O132 2.326 . S
In130 O136 2.266 . S
In130 O137 2.326 . S
In130 O138 2.266 . S
In130 O139 2.326 . S
In130 O141 2.294 . S
In130 O142 2.326 . S
O131 In130 2.294 . S
O131 C140 1.240 . S
O132 In130 2.326 . S
O132 C140 1.252 . S
C133 O136 1.252 . S
C133 O137 1.260 . S
C134 O141 1.240 . S
C134 O142 1.252 . S
C135 O138 1.252 . S
C135 O139 1.260 . S
O136 In130 2.266 . S
O136 C133 1.252 . S
O137 In130 2.326 . S
O137 C133 1.260 . S
O138 In130 2.266 . S
O138 C135 1.252 . S
O139 In130 2.326 . S
O139 C135 1.260 . S
C140 O131 1.240 . S
C140 O132 1.252 . S
O141 In130 2.294 . S
O141 C134 1.240 . S
O142 In130 2.326 . S
O142 C134 1.252 . S
In143 O144 2.294 . S
In143 O145 2.326 . S
In143 O149 2.266 . S
In143 O150 2.326 . S
In143 O151 2.266 . S
In143 O152 2.326 . S
In143 O154 2.294 . S
In143 O155 2.326 . S
O144 In143 2.294 . S
O144 C153 1.240 . S
O145 In143 2.326 . S
O145 C153 1.252 . S
C146 O149 1.252 . S
C146 O150 1.260 . S
C147 O154 1.240 . S
C147 O155 1.252 . S
C148 O151 1.252 . S
C148 O152 1.260 . S
O149 In143 2.266 . S
O149 C146 1.252 . S
O150 In143 2.326 . S
O150 C146 1.260 . S
O151 In143 2.266 . S
O151 C148 1.252 . S
O152 In143 2.326 . S
O152 C148 1.260 . S
C153 O144 1.240 . S
C153 O145 1.252 . S
O154 In143 2.294 . S
O154 C147 1.240 . S
O155 In143 2.326 . S
O155 C147 1.252 . S
In156 O157 2.294 . S
In156 O158 2.326 . S
In156 O162 2.266 . S
In156 O163 2.326 . S
In156 O164 2.266 . S
In156 O165 2.326 . S
In156 O167 2.294 . S
In156 O168 2.326 . S
O157 In156 2.294 . S
O157 C166 1.240 . S
O158 In156 2.326 . S
O158 C166 1.252 . S
C159 O162 1.252 . S
C159 O163 1.260 . S
C160 O167 1.240 . S
C160 O168 1.252 . S
C161 O164 1.252 . S
C161 O165 1.260 . S
O162 In156 2.266 . S
O162 C159 1.252 . S
O163 In156 2.326 . S
O163 C159 1.260 . S
O164 In156 2.266 . S
O164 C161 1.252 . S
O165 In156 2.326 . S
O165 C161 1.260 . S
C166 O157 1.240 . S
C166 O158 1.252 . S
O167 In156 2.294 . S
O167 C160 1.240 . S
O168 In156 2.326 . S
O168 C160 1.252 . S
In169 O170 2.294 . S
In169 O171 2.326 . S
In169 O175 2.266 . S
In169 O176 2.326 . S
In169 O177 2.266 . S
In169 O178 2.326 . S
In169 O180 2.294 . S
In169 O181 2.326 . S
O170 In169 2.294 . S
O170 C179 1.240 . S
O171 In169 2.326 . S
O171 C179 1.252 . S
C172 O175 1.252 . S
C172 O176 1.260 . S
C173 O180 1.240 . S
C173 O181 1.252 . S
C174 O177 1.252 . S
C174 O178 1.260 . S
O175 In169 2.266 . S
O175 C172 1.252 . S
O176 In169 2.326 . S
O176 C172 1.260 . S
O177 In169 2.266 . S
O177 C174 1.252 . S
O178 In169 2.326 . S
O178 C174 1.260 . S
C179 O170 1.240 . S
C179 O171 1.252 . S
O180 In169 2.294 . S
O180 C173 1.240 . S
O181 In169 2.326 . S
O181 C173 1.252 . S
In182 O183 2.294 . S
In182 O184 2.326 . S
In182 O188 2.266 . S
In182 O189 2.326 . S
In182 O190 2.266 . S
In182 O191 2.326 . S
In182 O193 2.294 . S
In182 O194 2.326 . S
O183 In182 2.294 . S
O183 C192 1.240 . S
O184 In182 2.326 . S
O184 C192 1.252 . S
C185 O188 1.252 . S
C185 O189 1.260 . S
C186 O193 1.240 . S
C186 O194 1.252 . S
C187 O190 1.252 . S
C187 O191 1.260 . S
O188 In182 2.266 . S
O188 C185 1.252 . S
O189 In182 2.326 . S
O189 C185 1.260 . S
O190 In182 2.266 . S
O190 C187 1.252 . S
O191 In182 2.326 . S
O191 C187 1.260 . S
C192 O183 1.240 . S
C192 O184 1.252 . S
O193 In182 2.294 . S
O193 C186 1.240 . S
O194 In182 2.326 . S
O194 C186 1.252 . S
In195 O196 2.294 . S
In195 O197 2.326 . S
In195 O201 2.266 . S
In195 O202 2.326 . S
In195 O203 2.266 . S
In195 O204 2.326 . S
In195 O206 2.294 . S
In195 O207 2.326 . S
O196 In195 2.294 . S
O196 C205 1.240 . S
O197 In195 2.326 . S
O197 C205 1.252 . S
C198 O201 1.252 . S
C198 O202 1.260 . S
C199 O206 1.240 . S
C199 O207 1.252 . S
C200 O203 1.252 . S
C200 O204 1.260 . S
O201 In195 2.266 . S
O201 C198 1.252 . S
O202 In195 2.326 . S
O202 C198 1.260 . S
O203 In195 2.266 . S
O203 C200 1.252 . S
O204 In195 2.326 . S
O204 C200 1.260 . S
C205 O196 1.240 . S
C205 O197 1.252 . S
O206 In195 2.294 . S
O206 C199 1.240 . S
O207 In195 2.326 . S
O207 C199 1.252 . S
In208 O209 2.294 . S
In208 O210 2.326 . S
In208 O214 2.266 . S
In208 O215 2.326 . S
In208 O216 2.266 . S
In208 O217 2.326 . S
In208 O219 2.294 . S
In208 O220 2.326 . S
O209 In208 2.294 . S
O209 C218 1.240 . S
O210 In208 2.326 . S
O210 C218 1.252 . S
C211 O214 1.252 . S
C211 O215 1.260 . S
C212 O219 1.240 . S
C212 O220 1.252 . S
C213 O216 1.252 . S
C213 O217 1.260 . S
O214 In208 2.266 . S
O214 C211 1.252 . S
O215 In208 2.326 . S
O215 C211 1.260 . S
O216 In208 2.266 . S
O216 C213 1.252 . S
O217 In208 2.326 . S
O217 C213 1.260 . S
C218 O209 1.240 . S
C218 O210 1.252 . S
O219 In208 2.294 . S
O219 C212 1.240 . S
O220 In208 2.326 . S
O220 C212 1.252 . S
In221 O222 2.294 . S
In221 O223 2.326 . S
In221 O227 2.266 . S
In221 O228 2.326 . S
In221 O229 2.266 . S
In221 O230 2.326 . S
In221 O232 2.294 . S
In221 O233 2.326 . S
O222 In221 2.294 . S
O222 C231 1.240 . S
O223 In221 2.326 . S
O223 C231 1.252 . S
C224 O227 1.252 . S
C224 O228 1.260 . S
C225 O232 1.240 . S
C225 O233 1.252 . S
C226 O229 1.252 . S
C226 O230 1.260 . S
O227 In221 2.266 . S
O227 C224 1.252 . S
O228 In221 2.326 . S
O228 C224 1.260 . S
O229 In221 2.266 . S
O229 C226 1.252 . S
O230 In221 2.326 . S
O230 C226 1.260 . S
C231 O222 1.240 . S
C231 O223 1.252 . S
O232 In221 2.294 . S
O232 C225 1.240 . S
O233 In221 2.326 . S
O233 C225 1.252 . S
In234 O235 2.294 . S
In234 O236 2.326 . S
In234 O240 2.266 . S
In234 O241 2.326 . S
In234 O242 2.266 . S
In234 O243 2.326 . S
In234 O245 2.294 . S
In234 O246 2.326 . S
O235 In234 2.294 . S
O235 C244 1.240 . S
O236 In234 2.326 . S
O236 C244 1.252 . S
C237 O240 1.252 . S
C237 O241 1.260 . S
C238 O245 1.240 . S
C238 O246 1.252 . S
C239 O242 1.252 . S
C239 O243 1.260 . S
O240 In234 2.266 . S
O240 C237 1.252 . S
O241 In234 2.326 . S
O241 C237 1.260 . S
O242 In234 2.266 . S
O242 C239 1.252 . S
O243 In234 2.326 . S
O243 C239 1.260 . S
C244 O235 1.240 . S
C244 O236 1.252 . S
O245 In234 2.294 . S
O245 C238 1.240 . S
O246 In234 2.326 . S
O246 C238 1.252 . S
In247 O248 2.294 . S
In247 O249 2.326 . S
In247 O253 2.266 . S
In247 O254 2.326 . S
In247 O255 2.266 . S
In247 O256 2.326 . S
In247 O258 2.294 . S
In247 O259 2.326 . S
O248 In247 2.294 . S
O248 C257 1.240 . S
O249 In247 2.326 . S
O249 C257 1.252 . S
C250 O253 1.252 . S
C250 O254 1.260 . S
C251 O258 1.240 . S
C251 O259 1.252 . S
C252 O255 1.252 . S
C252 O256 1.260 . S
O253 In247 2.266 . S
O253 C250 1.252 . S
O254 In247 2.326 . S
O254 C250 1.260 . S
O255 In247 2.266 . S
O255 C252 1.252 . S
O256 In247 2.326 . S
O256 C252 1.260 . S
C257 O248 1.240 . S
C257 O249 1.252 . S
O258 In247 2.294 . S
O258 C251 1.240 . S
O259 In247 2.326 . S
O259 C251 1.252 . S
In260 O261 2.294 . S
In260 O262 2.326 . S
In260 O266 2.266 . S
In260 O267 2.326 . S
In260 O268 2.266 . S
In260 O269 2.326 . S
In260 O271 2.294 . S
In260 O272 2.326 . S
O261 In260 2.294 . S
O261 C270 1.240 . S
O262 In260 2.326 . S
O262 C270 1.252 . S
C263 O266 1.252 . S
C263 O267 1.260 . S
C264 O271 1.240 . S
C264 O272 1.252 . S
C265 O268 1.252 . S
C265 O269 1.260 . S
O266 In260 2.266 . S
O266 C263 1.252 . S
O267 In260 2.326 . S
O267 C263 1.260 . S
O268 In260 2.266 . S
O268 C265 1.252 . S
O269 In260 2.326 . S
O269 C265 1.260 . S
C270 O261 1.240 . S
C270 O262 1.252 . S
O271 In260 2.294 . S
O271 C264 1.240 . S
O272 In260 2.326 . S
O272 C264 1.252 . S
In273 O274 2.294 . S
In273 O275 2.326 . S
In273 O279 2.266 . S
In273 O280 2.326 . S
In273 O281 2.266 . S
In273 O282 2.326 . S
In273 O284 2.294 . S
In273 O285 2.326 . S
O274 In273 2.294 . S
O274 C283 1.240 . S
O275 In273 2.326 . S
O275 C283 1.252 . S
C276 O279 1.252 . S
C276 O280 1.260 . S
C277 O284 1.240 . S
C277 O285 1.252 . S
C278 O281 1.252 . S
C278 O282 1.260 . S
O279 In273 2.266 . S
O279 C276 1.252 . S
O280 In273 2.326 . S
O280 C276 1.260 . S
O281 In273 2.266 . S
O281 C278 1.252 . S
O282 In273 2.326 . S
O282 C278 1.260 . S
C283 O274 1.240 . S
C283 O275 1.252 . S
O284 In273 2.294 . S
O284 C277 1.240 . S
O285 In273 2.326 . S
O285 C277 1.252 . S
In286 O287 2.294 . S
In286 O288 2.326 . S
In286 O292 2.266 . S
In286 O293 2.326 . S
In286 O294 2.266 . S
In286 O295 2.326 . S
In286 O297 2.294 . S
In286 O298 2.326 . S
O287 In286 2.294 . S
O287 C296 1.240 . S
O288 In286 2.326 . S
O288 C296 1.252 . S
C289 O292 1.252 . S
C289 O293 1.260 . S
C290 O297 1.240 . S
C290 O298 1.252 . S
C291 O294 1.252 . S
C291 O295 1.260 . S
O292 In286 2.266 . S
O292 C289 1.252 . S
O293 In286 2.326 . S
O293 C289 1.260 . S
O294 In286 2.266 . S
O294 C291 1.252 . S
O295 In286 2.326 . S
O295 C291 1.260 . S
C296 O287 1.240 . S
C296 O288 1.252 . S
O297 In286 2.294 . S
O297 C290 1.240 . S
O298 In286 2.326 . S
O298 C290 1.252 . S
In299 O300 2.294 . S
In299 O301 2.326 . S
In299 O305 2.266 . S
In299 O306 2.326 . S
In299 O307 2.266 . S
In299 O308 2.326 . S
In299 O310 2.294 . S
In299 O311 2.326 . S
O300 In299 2.294 . S
O300 C309 1.240 . S
O301 In299 2.326 . S
O301 C309 1.252 . S
C302 O305 1.252 . S
C302 O306 1.260 . S
C303 O310 1.240 . S
C303 O311 1.252 . S
C304 O307 1.252 . S
C304 O308 1.260 . S
O305 In299 2.266 . S
O305 C302 1.252 . S
O306 In299 2.326 . S
O306 C302 1.260 . S
O307 In299 2.266 . S
O307 C304 1.252 . S
O308 In299 2.326 . S
O308 C304 1.260 . S
C309 O300 1.240 . S
C309 O301 1.252 . S
O310 In299 2.294 . S
O310 C303 1.240 . S
O311 In299 2.326 . S
O311 C303 1.252 . S
In312 O313 2.294 . S
In312 O314 2.326 . S
In312 O318 2.266 . S
In312 O319 2.326 . S
In312 O320 2.266 . S
In312 O321 2.326 . S
In312 O323 2.294 . S
In312 O324 2.326 . S
O313 In312 2.294 . S
O313 C322 1.240 . S
O314 In312 2.326 . S
O314 C322 1.252 . S
C315 O318 1.252 . S
C315 O319 1.260 . S
C316 O323 1.240 . S
C316 O324 1.252 . S
C317 O320 1.252 . S
C317 O321 1.260 . S
O318 In312 2.266 . S
O318 C315 1.252 . S
O319 In312 2.326 . S
O319 C315 1.260 . S
O320 In312 2.266 . S
O320 C317 1.252 . S
O321 In312 2.326 . S
O321 C317 1.260 . S
C322 O313 1.240 . S
C322 O314 1.252 . S
O323 In312 2.294 . S
O323 C316 1.240 . S
O324 In312 2.326 . S
O324 C316 1.252 . S
In325 O326 2.294 . S
In325 O327 2.326 . S
In325 O331 2.266 . S
In325 O332 2.326 . S
In325 O333 2.266 . S
In325 O334 2.326 . S
In325 O336 2.294 . S
In325 O337 2.326 . S
O326 In325 2.294 . S
O326 C335 1.240 . S
O327 In325 2.326 . S
O327 C335 1.252 . S
C328 O331 1.252 . S
C328 O332 1.260 . S
C329 O336 1.240 . S
C329 O337 1.252 . S
C330 O333 1.252 . S
C330 O334 1.260 . S
O331 In325 2.266 . S
O331 C328 1.252 . S
O332 In325 2.326 . S
O332 C328 1.260 . S
O333 In325 2.266 . S
O333 C330 1.252 . S
O334 In325 2.326 . S
O334 C330 1.260 . S
C335 O326 1.240 . S
C335 O327 1.252 . S
O336 In325 2.294 . S
O336 C329 1.240 . S
O337 In325 2.326 . S
O337 C329 1.252 . S
In338 O339 2.294 . S
In338 O340 2.326 . S
In338 O344 2.266 . S
In338 O345 2.326 . S
In338 O346 2.266 . S
In338 O347 2.326 . S
In338 O349 2.294 . S
In338 O350 2.326 . S
O339 In338 2.294 . S
O339 C348 1.240 . S
O340 In338 2.326 . S
O340 C348 1.252 . S
C341 O344 1.252 . S
C341 O345 1.260 . S
C342 O349 1.240 . S
C342 O350 1.252 . S
C343 O346 1.252 . S
C343 O347 1.260 . S
O344 In338 2.266 . S
O344 C341 1.252 . S
O345 In338 2.326 . S
O345 C341 1.260 . S
O346 In338 2.266 . S
O346 C343 1.252 . S
O347 In338 2.326 . S
O347 C343 1.260 . S
C348 O339 1.240 . S
C348 O340 1.252 . S
O349 In338 2.294 . S
O349 C342 1.240 . S
O350 In338 2.326 . S
O350 C342 1.252 . S
In351 O352 2.294 . S
In351 O353 2.326 . S
In351 O357 2.266 . S
In351 O358 2.326 . S
In351 O359 2.266 . S
In351 O360 2.326 . S
In351 O362 2.294 . S
In351 O363 2.326 . S
O352 In351 2.294 . S
O352 C361 1.240 . S
O353 In351 2.326 . S
O353 C361 1.252 . S
C354 O357 1.252 . S
C354 O358 1.260 . S
C355 O362 1.240 . S
C355 O363 1.252 . S
C356 O359 1.252 . S
C356 O360 1.260 . S
O357 In351 2.266 . S
O357 C354 1.252 . S
O358 In351 2.326 . S
O358 C354 1.260 . S
O359 In351 2.266 . S
O359 C356 1.252 . S
O360 In351 2.326 . S
O360 C356 1.260 . S
C361 O352 1.240 . S
C361 O353 1.252 . S
O362 In351 2.294 . S
O362 C355 1.240 . S
O363 In351 2.326 . S
O363 C355 1.252 . S
In364 O365 2.294 . S
In364 O366 2.326 . S
In364 O370 2.266 . S
In364 O371 2.326 . S
In364 O372 2.266 . S
In364 O373 2.326 . S
In364 O375 2.294 . S
In364 O376 2.326 . S
O365 In364 2.294 . S
O365 C374 1.240 . S
O366 In364 2.326 . S
O366 C374 1.252 . S
C367 O370 1.252 . S
C367 O371 1.260 . S
C368 O375 1.240 . S
C368 O376 1.252 . S
C369 O372 1.252 . S
C369 O373 1.260 . S
O370 In364 2.266 . S
O370 C367 1.252 . S
O371 In364 2.326 . S
O371 C367 1.260 . S
O372 In364 2.266 . S
O372 C369 1.252 . S
O373 In364 2.326 . S
O373 C369 1.260 . S
C374 O365 1.240 . S
C374 O366 1.252 . S
O375 In364 2.294 . S
O375 C368 1.240 . S
O376 In364 2.326 . S
O376 C368 1.252 . S
In377 O378 2.294 . S
In377 O379 2.326 . S
In377 O383 2.266 . S
In377 O384 2.326 . S
In377 O385 2.266 . S
In377 O386 2.326 . S
In377 O388 2.294 . S
In377 O389 2.326 . S
O378 In377 2.294 . S
O378 C387 1.240 . S
O379 In377 2.326 . S
O379 C387 1.252 . S
C380 O383 1.252 . S
C380 O384 1.260 . S
C381 O388 1.240 . S
C381 O389 1.252 . S
C382 O385 1.252 . S
C382 O386 1.260 . S
O383 In377 2.266 . S
O383 C380 1.252 . S
O384 In377 2.326 . S
O384 C380 1.260 . S
O385 In377 2.266 . S
O385 C382 1.252 . S
O386 In377 2.326 . S
O386 C382 1.260 . S
C387 O378 1.240 . S
C387 O379 1.252 . S
O388 In377 2.294 . S
O388 C381 1.240 . S
O389 In377 2.326 . S
O389 C381 1.252 . S
In390 O391 2.294 . S
In390 O392 2.326 . S
In390 O396 2.266 . S
In390 O397 2.326 . S
In390 O398 2.266 . S
In390 O399 2.326 . S
In390 O401 2.294 . S
In390 O402 2.326 . S
O391 In390 2.294 . S
O391 C400 1.240 . S
O392 In390 2.326 . S
O392 C400 1.252 . S
C393 O396 1.252 . S
C393 O397 1.260 . S
C394 O401 1.240 . S
C394 O402 1.252 . S
C395 O398 1.252 . S
C395 O399 1.260 . S
O396 In390 2.266 . S
O396 C393 1.252 . S
O397 In390 2.326 . S
O397 C393 1.260 . S
O398 In390 2.266 . S
O398 C395 1.252 . S
O399 In390 2.326 . S
O399 C395 1.260 . S
C400 O391 1.240 . S
C400 O392 1.252 . S
O401 In390 2.294 . S
O401 C394 1.240 . S
O402 In390 2.326 . S
O402 C394 1.252 . S
In403 O404 2.294 . S
In403 O405 2.326 . S
In403 O409 2.266 . S
In403 O410 2.326 . S
In403 O411 2.266 . S
In403 O412 2.326 . S
In403 O414 2.294 . S
In403 O415 2.326 . S
O404 In403 2.294 . S
O404 C413 1.240 . S
O405 In403 2.326 . S
O405 C413 1.252 . S
C406 O409 1.252 . S
C406 O410 1.260 . S
C407 O414 1.240 . S
C407 O415 1.252 . S
C408 O411 1.252 . S
C408 O412 1.260 . S
O409 In403 2.266 . S
O409 C406 1.252 . S
O410 In403 2.326 . S
O410 C406 1.260 . S
O411 In403 2.266 . S
O411 C408 1.252 . S
O412 In403 2.326 . S
O412 C408 1.260 . S
C413 O404 1.240 . S
C413 O405 1.252 . S
O414 In403 2.294 . S
O414 C407 1.240 . S
O415 In403 2.326 . S
O415 C407 1.252 . S
In416 O417 2.294 . S
In416 O418 2.326 . S
In416 O422 2.266 . S
In416 O423 2.326 . S
In416 O424 2.266 . S
In416 O425 2.326 . S
In416 O427 2.294 . S
In416 O428 2.326 . S
O417 In416 2.294 . S
O417 C426 1.240 . S
O418 In416 2.326 . S
O418 C426 1.252 . S
C419 O422 1.252 . S
C419 O423 1.260 . S
C420 O427 1.240 . S
C420 O428 1.252 . S
C421 O424 1.252 . S
C421 O425 1.260 . S
O422 In416 2.266 . S
O422 C419 1.252 . S
O423 In416 2.326 . S
O423 C419 1.260 . S
O424 In416 2.266 . S
O424 C421 1.252 . S
O425 In416 2.326 . S
O425 C421 1.260 . S
C426 O417 1.240 . S
C426 O418 1.252 . S
O427 In416 2.294 . S
O427 C420 1.240 . S
O428 In416 2.326 . S
O428 C420 1.252 . S
In429 O430 2.294 . S
In429 O431 2.326 . S
In429 O435 2.266 . S
In429 O436 2.326 . S
In429 O437 2.266 . S
In429 O438 2.326 . S
In429 O440 2.294 . S
In429 O441 2.326 . S
O430 In429 2.294 . S
O430 C439 1.240 . S
O431 In429 2.326 . S
O431 C439 1.252 . S
C432 O435 1.252 . S
C432 O436 1.260 . S
C433 O440 1.240 . S
C433 O441 1.252 . S
C434 O437 1.252 . S
C434 O438 1.260 . S
O435 In429 2.266 . S
O435 C432 1.252 . S
O436 In429 2.326 . S
O436 C432 1.260 . S
O437 In429 2.266 . S
O437 C434 1.252 . S
O438 In429 2.326 . S
O438 C434 1.260 . S
C439 O430 1.240 . S
C439 O431 1.252 . S
O440 In429 2.294 . S
O440 C433 1.240 . S
O441 In429 2.326 . S
O441 C433 1.252 . S
In442 O443 2.294 . S
In442 O444 2.326 . S
In442 O448 2.266 . S
In442 O449 2.326 . S
In442 O450 2.266 . S
In442 O451 2.326 . S
In442 O453 2.294 . S
In442 O454 2.326 . S
O443 In442 2.294 . S
O443 C452 1.240 . S
O444 In442 2.326 . S
O444 C452 1.252 . S
C445 O448 1.252 . S
C445 O449 1.260 . S
C446 O453 1.240 . S
C446 O454 1.252 . S
C447 O450 1.252 . S
C447 O451 1.260 . S
O448 In442 2.266 . S
O448 C445 1.252 . S
O449 In442 2.326 . S
O449 C445 1.260 . S
O450 In442 2.266 . S
O450 C447 1.252 . S
O451 In442 2.326 . S
O451 C447 1.260 . S
C452 O443 1.240 . S
C452 O444 1.252 . S
O453 In442 2.294 . S
O453 C446 1.240 . S
O454 In442 2.326 . S
O454 C446 1.252 . S
In455 O456 2.294 . S
In455 O457 2.326 . S
In455 O461 2.266 . S
In455 O462 2.326 . S
In455 O463 2.266 . S
In455 O464 2.326 . S
In455 O466 2.294 . S
In455 O467 2.326 . S
O456 In455 2.294 . S
O456 C465 1.240 . S
O457 In455 2.326 . S
O457 C465 1.252 . S
C458 O461 1.252 . S
C458 O462 1.260 . S
C459 O466 1.240 . S
C459 O467 1.252 . S
C460 O463 1.252 . S
C460 O464 1.260 . S
O461 In455 2.266 . S
O461 C458 1.252 . S
O462 In455 2.326 . S
O462 C458 1.260 . S
O463 In455 2.266 . S
O463 C460 1.252 . S
O464 In455 2.326 . S
O464 C460 1.260 . S
C465 O456 1.240 . S
C465 O457 1.252 . S
O466 In455 2.294 . S
O466 C459 1.240 . S
O467 In455 2.326 . S
O467 C459 1.252 . S
In468 O469 2.294 . S
In468 O470 2.326 . S
In468 O474 2.266 . S
In468 O475 2.326 . S
In468 O476 2.266 . S
In468 O477 2.326 . S
In468 O479 2.294 . S
In468 O480 2.326 . S
O469 In468 2.294 . S
O469 C478 1.240 . S
O470 In468 2.326 . S
O470 C478 1.252 . S
C471 O474 1.252 . S
C471 O475 1.260 . S
C472 O479 1.240 . S
C472 O480 1.252 . S
C473 O476 1.252 . S
C473 O477 1.260 . S
O474 In468 2.266 . S
O474 C471 1.252 . S
O475 In468 2.326 . S
O475 C471 1.260 . S
O476 In468 2.266 . S
O476 C473 1.252 . S
O477 In468 2.326 . S
O477 C473 1.260 . S
C478 O469 1.240 . S
C478 O470 1.252 . S
O479 In468 2.294 . S
O479 C472 1.240 . S
O480 In468 2.326 . S
O480 C472 1.252 . S
In481 O482 2.294 . S
In481 O483 2.326 . S
In481 O487 2.266 . S
In481 O488 2.326 . S
In481 O489 2.266 . S
In481 O490 2.326 . S
In481 O492 2.294 . S
In481 O493 2.326 . S
O482 In481 2.294 . S
O482 C491 1.240 . S
O483 In481 2.326 . S
O483 C491 1.252 . S
C484 O487 1.252 . S
C484 O488 1.260 . S
C485 O492 1.240 . S
C485 O493 1.252 . S
C486 O489 1.252 . S
C486 O490 1.260 . S
O487 In481 2.266 . S
O487 C484 1.252 . S
O488 In481 2.326 . S
O488 C484 1.260 . S
O489 In481 2.266 . S
O489 C486 1.252 . S
O490 In481 2.326 . S
O490 C486 1.260 . S
C491 O482 1.240 . S
C491 O483 1.252 . S
O492 In481 2.294 . S
O492 C485 1.240 . S
O493 In481 2.326 . S
O493 C485 1.252 . S
In494 O495 2.294 . S
In494 O496 2.326 . S
In494 O500 2.266 . S
In494 O501 2.326 . S
In494 O502 2.266 . S
In494 O503 2.326 . S
In494 O505 2.294 . S
In494 O506 2.326 . S
O495 In494 2.294 . S
O495 C504 1.240 . S
O496 In494 2.326 . S
O496 C504 1.252 . S
C497 O500 1.252 . S
C497 O501 1.260 . S
C498 O505 1.240 . S
C498 O506 1.252 . S
C499 O502 1.252 . S
C499 O503 1.260 . S
O500 In494 2.266 . S
O500 C497 1.252 . S
O501 In494 2.326 . S
O501 C497 1.260 . S
O502 In494 2.266 . S
O502 C499 1.252 . S
O503 In494 2.326 . S
O503 C499 1.260 . S
C504 O495 1.240 . S
C504 O496 1.252 . S
O505 In494 2.294 . S
O505 C498 1.240 . S
O506 In494 2.326 . S
O506 C498 1.252 . S
In507 O508 2.294 . S
In507 O509 2.326 . S
In507 O513 2.266 . S
In507 O514 2.326 . S
In507 O515 2.266 . S
In507 O516 2.326 . S
In507 O518 2.294 . S
In507 O519 2.326 . S
O508 In507 2.294 . S
O508 C517 1.240 . S
O509 In507 2.326 . S
O509 C517 1.252 . S
C510 O513 1.252 . S
C510 O514 1.260 . S
C511 O518 1.240 . S
C511 O519 1.252 . S
C512 O515 1.252 . S
C512 O516 1.260 . S
O513 In507 2.266 . S
O513 C510 1.252 . S
O514 In507 2.326 . S
O514 C510 1.260 . S
O515 In507 2.266 . S
O515 C512 1.252 . S
O516 In507 2.326 . S
O516 C512 1.260 . S
C517 O508 1.240 . S
C517 O509 1.252 . S
O518 In507 2.294 . S
O518 C511 1.240 . S
O519 In507 2.326 . S
O519 C511 1.252 . S
In520 O521 2.294 . S
In520 O522 2.326 . S
In520 O526 2.266 . S
In520 O527 2.326 . S
In520 O528 2.266 . S
In520 O529 2.326 . S
In520 O531 2.294 . S
In520 O532 2.326 . S
O521 In520 2.294 . S
O521 C530 1.240 . S
O522 In520 2.326 . S
O522 C530 1.252 . S
C523 O526 1.252 . S
C523 O527 1.260 . S
C524 O531 1.240 . S
C524 O532 1.252 . S
C525 O528 1.252 . S
C525 O529 1.260 . S
O526 In520 2.266 . S
O526 C523 1.252 . S
O527 In520 2.326 . S
O527 C523 1.260 . S
O528 In520 2.266 . S
O528 C525 1.252 . S
O529 In520 2.326 . S
O529 C525 1.260 . S
C530 O521 1.240 . S
C530 O522 1.252 . S
O531 In520 2.294 . S
O531 C524 1.240 . S
O532 In520 2.326 . S
O532 C524 1.252 . S
In533 O534 2.294 . S
In533 O535 2.326 . S
In533 O539 2.266 . S
In533 O540 2.326 . S
In533 O541 2.266 . S
In533 O542 2.326 . S
In533 O544 2.294 . S
In533 O545 2.326 . S
O534 In533 2.294 . S
O534 C543 1.240 . S
O535 In533 2.326 . S
O535 C543 1.252 . S
C536 O539 1.252 . S
C536 O540 1.260 . S
C537 O544 1.240 . S
C537 O545 1.252 . S
C538 O541 1.252 . S
C538 O542 1.260 . S
O539 In533 2.266 . S
O539 C536 1.252 . S
O540 In533 2.326 . S
O540 C536 1.260 . S
O541 In533 2.266 . S
O541 C538 1.252 . S
O542 In533 2.326 . S
O542 C538 1.260 . S
C543 O534 1.240 . S
C543 O535 1.252 . S
O544 In533 2.294 . S
O544 C537 1.240 . S
O545 In533 2.326 . S
O545 C537 1.252 . S
In546 O547 2.294 . S
In546 O548 2.326 . S
In546 O552 2.266 . S
In546 O553 2.326 . S
In546 O554 2.266 . S
In546 O555 2.326 . S
In546 O557 2.294 . S
In546 O558 2.326 . S
O547 In546 2.294 . S
O547 C556 1.240 . S
O548 In546 2.326 . S
O548 C556 1.252 . S
C549 O552 1.252 . S
C549 O553 1.260 . S
C550 O557 1.240 . S
C550 O558 1.252 . S
C551 O554 1.252 . S
C551 O555 1.260 . S
O552 In546 2.266 . S
O552 C549 1.252 . S
O553 In546 2.326 . S
O553 C549 1.260 . S
O554 In546 2.266 . S
O554 C551 1.252 . S
O555 In546 2.326 . S
O555 C551 1.260 . S
C556 O547 1.240 . S
C556 O548 1.252 . S
O557 In546 2.294 . S
O557 C550 1.240 . S
O558 In546 2.326 . S
O558 C550 1.252 . S
In559 O560 2.294 . S
In559 O561 2.326 . S
In559 O565 2.266 . S
In559 O566 2.326 . S
In559 O567 2.266 . S
In559 O568 2.326 . S
In559 O570 2.294 . S
In559 O571 2.326 . S
O560 In559 2.294 . S
O560 C569 1.240 . S
O561 In559 2.326 . S
O561 C569 1.252 . S
C562 O565 1.252 . S
C562 O566 1.260 . S
C563 O570 1.240 . S
C563 O571 1.252 . S
C564 O567 1.252 . S
C564 O568 1.260 . S
O565 In559 2.266 . S
O565 C562 1.252 . S
O566 In559 2.326 . S
O566 C562 1.260 . S
O567 In559 2.266 . S
O567 C564 1.252 . S
O568 In559 2.326 . S
O568 C564 1.260 . S
C569 O560 1.240 . S
C569 O561 1.252 . S
O570 In559 2.294 . S
O570 C563 1.240 . S
O571 In559 2.326 . S
O571 C563 1.252 . S
In572 O573 2.294 . S
In572 O574 2.326 . S
In572 O578 2.266 . S
In572 O579 2.326 . S
In572 O580 2.266 . S
In572 O581 2.326 . S
In572 O583 2.294 . S
In572 O584 2.326 . S
O573 In572 2.294 . S
O573 C582 1.240 . S
O574 In572 2.326 . S
O574 C582 1.252 . S
C575 O578 1.252 . S
C575 O579 1.260 . S
C576 O583 1.240 . S
C576 O584 1.252 . S
C577 O580 1.252 . S
C577 O581 1.260 . S
O578 In572 2.266 . S
O578 C575 1.252 . S
O579 In572 2.326 . S
O579 C575 1.260 . S
O580 In572 2.266 . S
O580 C577 1.252 . S
O581 In572 2.326 . S
O581 C577 1.260 . S
C582 O573 1.240 . S
C582 O574 1.252 . S
O583 In572 2.294 . S
O583 C576 1.240 . S
O584 In572 2.326 . S
O584 C576 1.252 . S
In585 O586 2.294 . S
In585 O587 2.326 . S
In585 O591 2.266 . S
In585 O592 2.326 . S
In585 O593 2.266 . S
In585 O594 2.326 . S
In585 O596 2.294 . S
In585 O597 2.326 . S
O586 In585 2.294 . S
O586 C595 1.240 . S
O587 In585 2.326 . S
O587 C595 1.252 . S
C588 O591 1.252 . S
C588 O592 1.260 . S
C589 O596 1.240 . S
C589 O597 1.252 . S
C590 O593 1.252 . S
C590 O594 1.260 . S
O591 In585 2.266 . S
O591 C588 1.252 . S
O592 In585 2.326 . S
O592 C588 1.260 . S
O593 In585 2.266 . S
O593 C590 1.252 . S
O594 In585 2.326 . S
O594 C590 1.260 . S
C595 O586 1.240 . S
C595 O587 1.252 . S
O596 In585 2.294 . S
O596 C589 1.240 . S
O597 In585 2.326 . S
O597 C589 1.252 . S
In598 O599 2.294 . S
In598 O600 2.326 . S
In598 O604 2.266 . S
In598 O605 2.326 . S
In598 O606 2.266 . S
In598 O607 2.326 . S
In598 O609 2.294 . S
In598 O610 2.326 . S
O599 In598 2.294 . S
O599 C608 1.240 . S
O600 In598 2.326 . S
O600 C608 1.252 . S
C601 O604 1.252 . S
C601 O605 1.260 . S
C602 O609 1.240 . S
C602 O610 1.252 . S
C603 O606 1.252 . S
C603 O607 1.260 . S
O604 In598 2.266 . S
O604 C601 1.252 . S
O605 In598 2.326 . S
O605 C601 1.260 . S
O606 In598 2.266 . S
O606 C603 1.252 . S
O607 In598 2.326 . S
O607 C603 1.260 . S
C608 O599 1.240 . S
C608 O600 1.252 . S
O609 In598 2.294 . S
O609 C602 1.240 . S
O610 In598 2.326 . S
O610 C602 1.252 . S
In611 O612 2.294 . S
In611 O613 2.326 . S
In611 O617 2.266 . S
In611 O618 2.326 . S
In611 O619 2.266 . S
In611 O620 2.326 . S
In611 O622 2.294 . S
In611 O623 2.326 . S
O612 In611 2.294 . S
O612 C621 1.240 . S
O613 In611 2.326 . S
O613 C621 1.252 . S
C614 O617 1.252 . S
C614 O618 1.260 . S
C615 O622 1.240 . S
C615 O623 1.252 . S
C616 O619 1.252 . S
C616 O620 1.260 . S
O617 In611 2.266 . S
O617 C614 1.252 . S
O618 In611 2.326 . S
O618 C614 1.260 . S
O619 In611 2.266 . S
O619 C616 1.252 . S
O620 In611 2.326 . S
O620 C616 1.260 . S
C621 O612 1.240 . S
C621 O613 1.252 . S
O622 In611 2.294 . S
O622 C615 1.240 . S
O623 In611 2.326 . S
O623 C615 1.252 . S
In624 O625 2.294 . S
In624 O626 2.326 . S
In624 O630 2.266 . S
In624 O631 2.326 . S
In624 O632 2.266 . S
In624 O633 2.326 . S
In624 O635 2.294 . S
In624 O636 2.326 . S
O625 In624 2.294 . S
O625 C634 1.240 . S
O626 In624 2.326 . S
O626 C634 1.252 . S
C627 O630 1.252 . S
C627 O631 1.260 . S
C628 O635 1.240 . S
C628 O636 1.252 . S
C629 O632 1.252 . S
C629 O633 1.260 . S
O630 In624 2.266 . S
O630 C627 1.252 . S
O631 In624 2.326 . S
O631 C627 1.260 . S
O632 In624 2.266 . S
O632 C629 1.252 . S
O633 In624 2.326 . S
O633 C629 1.260 . S
C634 O625 1.240 . S
C634 O626 1.252 . S
O635 In624 2.294 . S
O635 C628 1.240 . S
O636 In624 2.326 . S
O636 C628 1.252 . S
In637 O638 2.294 . S
In637 O639 2.326 . S
In637 O643 2.266 . S
In637 O644 2.326 . S
In637 O645 2.266 . S
In637 O646 2.326 . S
In637 O648 2.294 . S
In637 O649 2.326 . S
O638 In637 2.294 . S
O638 C647 1.240 . S
O639 In637 2.326 . S
O639 C647 1.252 . S
C640 O643 1.252 . S
C640 O644 1.260 . S
C641 O648 1.240 . S
C641 O649 1.252 . S
C642 O645 1.252 . S
C642 O646 1.260 . S
O643 In637 2.266 . S
O643 C640 1.252 . S
O644 In637 2.326 . S
O644 C640 1.260 . S
O645 In637 2.266 . S
O645 C642 1.252 . S
O646 In637 2.326 . S
O646 C642 1.260 . S
C647 O638 1.240 . S
C647 O639 1.252 . S
O648 In637 2.294 . S
O648 C641 1.240 . S
O649 In637 2.326 . S
O649 C641 1.252 . S
In650 O651 2.294 . S
In650 O652 2.326 . S
In650 O656 2.266 . S
In650 O657 2.326 . S
In650 O658 2.266 . S
In650 O659 2.326 . S
In650 O661 2.294 . S
In650 O662 2.326 . S
O651 In650 2.294 . S
O651 C660 1.240 . S
O652 In650 2.326 . S
O652 C660 1.252 . S
C653 O656 1.252 . S
C653 O657 1.260 . S
C654 O661 1.240 . S
C654 O662 1.252 . S
C655 O658 1.252 . S
C655 O659 1.260 . S
O656 In650 2.266 . S
O656 C653 1.252 . S
O657 In650 2.326 . S
O657 C653 1.260 . S
O658 In650 2.266 . S
O658 C655 1.252 . S
O659 In650 2.326 . S
O659 C655 1.260 . S
C660 O651 1.240 . S
C660 O652 1.252 . S
O661 In650 2.294 . S
O661 C654 1.240 . S
O662 In650 2.326 . S
O662 C654 1.252 . S
In663 O664 2.294 . S
In663 O665 2.326 . S
In663 O669 2.266 . S
In663 O670 2.326 . S
In663 O671 2.266 . S
In663 O672 2.326 . S
In663 O674 2.294 . S
In663 O675 2.326 . S
O664 In663 2.294 . S
O664 C673 1.240 . S
O665 In663 2.326 . S
O665 C673 1.252 . S
C666 O669 1.252 . S
C666 O670 1.260 . S
C667 O674 1.240 . S
C667 O675 1.252 . S
C668 O671 1.252 . S
C668 O672 1.260 . S
O669 In663 2.266 . S
O669 C666 1.252 . S
O670 In663 2.326 . S
O670 C666 1.260 . S
O671 In663 2.266 . S
O671 C668 1.252 . S
O672 In663 2.326 . S
O672 C668 1.260 . S
C673 O664 1.240 . S
C673 O665 1.252 . S
O674 In663 2.294 . S
O674 C667 1.240 . S
O675 In663 2.326 . S
O675 C667 1.252 . S
In676 O677 2.294 . S
In676 O678 2.326 . S
In676 O682 2.266 . S
In676 O683 2.326 . S
In676 O684 2.266 . S
In676 O685 2.326 . S
In676 O687 2.294 . S
In676 O688 2.326 . S
O677 In676 2.294 . S
O677 C686 1.240 . S
O678 In676 2.326 . S
O678 C686 1.252 . S
C679 O682 1.252 . S
C679 O683 1.260 . S
C680 O687 1.240 . S
C680 O688 1.252 . S
C681 O684 1.252 . S
C681 O685 1.260 . S
O682 In676 2.266 . S
O682 C679 1.252 . S
O683 In676 2.326 . S
O683 C679 1.260 . S
O684 In676 2.266 . S
O684 C681 1.252 . S
O685 In676 2.326 . S
O685 C681 1.260 . S
C686 O677 1.240 . S
C686 O678 1.252 . S
O687 In676 2.294 . S
O687 C680 1.240 . S
O688 In676 2.326 . S
O688 C680 1.252 . S
In689 O690 2.294 . S
In689 O691 2.326 . S
In689 O695 2.266 . S
In689 O696 2.326 . S
In689 O697 2.266 . S
In689 O698 2.326 . S
In689 O700 2.294 . S
In689 O701 2.326 . S
O690 In689 2.294 . S
O690 C699 1.240 . S
O691 In689 2.326 . S
O691 C699 1.252 . S
C692 O695 1.252 . S
C692 O696 1.260 . S
C693 O700 1.240 . S
C693 O701 1.252 . S
C694 O697 1.252 . S
C694 O698 1.260 . S
O695 In689 2.266 . S
O695 C692 1.252 . S
O696 In689 2.326 . S
O696 C692 1.260 . S
O697 In689 2.266 . S
O697 C694 1.252 . S
O698 In689 2.326 . S
O698 C694 1.260 . S
C699 O690 1.240 . S
C699 O691 1.252 . S
O700 In689 2.294 . S
O700 C693 1.240 . S
O701 In689 2.326 . S
O701 C693 1.252 . S
In702 O703 2.294 . S
In702 O704 2.326 . S
In702 O708 2.266 . S
In702 O709 2.326 . S
In702 O710 2.266 . S
In702 O711 2.326 . S
In702 O713 2.294 . S
In702 O714 2.326 . S
O703 In702 2.294 . S
O703 C712 1.240 . S
O704 In702 2.326 . S
O704 C712 1.252 . S
C705 O708 1.252 . S
C705 O709 1.260 . S
C706 O713 1.240 . S
C706 O714 1.252 . S
C707 O710 1.252 . S
C707 O711 1.260 . S
O708 In702 2.266 . S
O708 C705 1.252 . S
O709 In702 2.326 . S
O709 C705 1.260 . S
O710 In702 2.266 . S
O710 C707 1.252 . S
O711 In702 2.326 . S
O711 C707 1.260 . S
C712 O703 1.240 . S
C712 O704 1.252 . S
O713 In702 2.294 . S
O713 C706 1.240 . S
O714 In702 2.326 . S
O714 C706 1.252 . S
In715 O716 2.294 . S
In715 O717 2.326 . S
In715 O721 2.266 . S
In715 O722 2.326 . S
In715 O723 2.266 . S
In715 O724 2.326 . S
In715 O726 2.294 . S
In715 O727 2.326 . S
O716 In715 2.294 . S
O716 C725 1.240 . S
O717 In715 2.326 . S
O717 C725 1.252 . S
C718 O721 1.252 . S
C718 O722 1.260 . S
C719 O726 1.240 . S
C719 O727 1.252 . S
C720 O723 1.252 . S
C720 O724 1.260 . S
O721 In715 2.266 . S
O721 C718 1.252 . S
O722 In715 2.326 . S
O722 C718 1.260 . S
O723 In715 2.266 . S
O723 C720 1.252 . S
O724 In715 2.326 . S
O724 C720 1.260 . S
C725 O716 1.240 . S
C725 O717 1.252 . S
O726 In715 2.294 . S
O726 C719 1.240 . S
O727 In715 2.326 . S
O727 C719 1.252 . S
In728 O729 2.294 . S
In728 O730 2.326 . S
In728 O734 2.266 . S
In728 O735 2.326 . S
In728 O736 2.266 . S
In728 O737 2.326 . S
In728 O739 2.294 . S
In728 O740 2.326 . S
O729 In728 2.294 . S
O729 C738 1.240 . S
O730 In728 2.326 . S
O730 C738 1.252 . S
C731 O734 1.252 . S
C731 O735 1.260 . S
C732 O739 1.240 . S
C732 O740 1.252 . S
C733 O736 1.252 . S
C733 O737 1.260 . S
O734 In728 2.266 . S
O734 C731 1.252 . S
O735 In728 2.326 . S
O735 C731 1.260 . S
O736 In728 2.266 . S
O736 C733 1.252 . S
O737 In728 2.326 . S
O737 C733 1.260 . S
C738 O729 1.240 . S
C738 O730 1.252 . S
O739 In728 2.294 . S
O739 C732 1.240 . S
O740 In728 2.326 . S
O740 C732 1.252 . S
In741 O742 2.294 . S
In741 O743 2.326 . S
In741 O747 2.266 . S
In741 O748 2.326 . S
In741 O749 2.266 . S
In741 O750 2.326 . S
In741 O752 2.294 . S
In741 O753 2.326 . S
O742 In741 2.294 . S
O742 C751 1.240 . S
O743 In741 2.326 . S
O743 C751 1.252 . S
C744 O747 1.252 . S
C744 O748 1.260 . S
C745 O752 1.240 . S
C745 O753 1.252 . S
C746 O749 1.252 . S
C746 O750 1.260 . S
O747 In741 2.266 . S
O747 C744 1.252 . S
O748 In741 2.326 . S
O748 C744 1.260 . S
O749 In741 2.266 . S
O749 C746 1.252 . S
O750 In741 2.326 . S
O750 C746 1.260 . S
C751 O742 1.240 . S
C751 O743 1.252 . S
O752 In741 2.294 . S
O752 C745 1.240 . S
O753 In741 2.326 . S
O753 C745 1.252 . S
In754 O755 2.294 . S
In754 O756 2.326 . S
In754 O760 2.266 . S
In754 O761 2.326 . S
In754 O762 2.266 . S
In754 O763 2.326 . S
In754 O765 2.294 . S
In754 O766 2.326 . S
O755 In754 2.294 . S
O755 C764 1.240 . S
O756 In754 2.326 . S
O756 C764 1.252 . S
C757 O760 1.252 . S
C757 O761 1.260 . S
C758 O765 1.240 . S
C758 O766 1.252 . S
C759 O762 1.252 . S
C759 O763 1.260 . S
O760 In754 2.266 . S
O760 C757 1.252 . S
O761 In754 2.326 . S
O761 C757 1.260 . S
O762 In754 2.266 . S
O762 C759 1.252 . S
O763 In754 2.326 . S
O763 C759 1.260 . S
C764 O755 1.240 . S
C764 O756 1.252 . S
O765 In754 2.294 . S
O765 C758 1.240 . S
O766 In754 2.326 . S
O766 C758 1.252 . S
In767 O768 2.294 . S
In767 O769 2.326 . S
In767 O773 2.266 . S
In767 O774 2.326 . S
In767 O775 2.266 . S
In767 O776 2.326 . S
In767 O778 2.294 . S
In767 O779 2.326 . S
O768 In767 2.294 . S
O768 C777 1.240 . S
O769 In767 2.326 . S
O769 C777 1.252 . S
C770 O773 1.252 . S
C770 O774 1.260 . S
C771 O778 1.240 . S
C771 O779 1.252 . S
C772 O775 1.252 . S
C772 O776 1.260 . S
O773 In767 2.266 . S
O773 C770 1.252 . S
O774 In767 2.326 . S
O774 C770 1.260 . S
O775 In767 2.266 . S
O775 C772 1.252 . S
O776 In767 2.326 . S
O776 C772 1.260 . S
C777 O768 1.240 . S
C777 O769 1.252 . S
O778 In767 2.294 . S
O778 C771 1.240 . S
O779 In767 2.326 . S
O779 C771 1.252 . S
In780 O781 2.294 . S
In780 O782 2.326 . S
In780 O786 2.266 . S
In780 O787 2.326 . S
In780 O788 2.266 . S
In780 O789 2.326 . S
In780 O791 2.294 . S
In780 O792 2.326 . S
O781 In780 2.294 . S
O781 C790 1.240 . S
O782 In780 2.326 . S
O782 C790 1.252 . S
C783 O786 1.252 . S
C783 O787 1.260 . S
C784 O791 1.240 . S
C784 O792 1.252 . S
C785 O788 1.252 . S
C785 O789 1.260 . S
O786 In780 2.266 . S
O786 C783 1.252 . S
O787 In780 2.326 . S
O787 C783 1.260 . S
O788 In780 2.266 . S
O788 C785 1.252 . S
O789 In780 2.326 . S
O789 C785 1.260 . S
C790 O781 1.240 . S
C790 O782 1.252 . S
O791 In780 2.294 . S
O791 C784 1.240 . S
O792 In780 2.326 . S
O792 C784 1.252 . S
In793 O794 2.294 . S
In793 O795 2.326 . S
In793 O799 2.266 . S
In793 O800 2.326 . S
In793 O801 2.266 . S
In793 O802 2.326 . S
In793 O804 2.294 . S
In793 O805 2.326 . S
O794 In793 2.294 . S
O794 C803 1.240 . S
O795 In793 2.326 . S
O795 C803 1.252 . S
C796 O799 1.252 . S
C796 O800 1.260 . S
C797 O804 1.240 . S
C797 O805 1.252 . S
C798 O801 1.252 . S
C798 O802 1.260 . S
O799 In793 2.266 . S
O799 C796 1.252 . S
O800 In793 2.326 . S
O800 C796 1.260 . S
O801 In793 2.266 . S
O801 C798 1.252 . S
O802 In793 2.326 . S
O802 C798 1.260 . S
C803 O794 1.240 . S
C803 O795 1.252 . S
O804 In793 2.294 . S
O804 C797 1.240 . S
O805 In793 2.326 . S
O805 C797 1.252 . S
In806 O807 2.294 . S
In806 O808 2.326 . S
In806 O812 2.266 . S
In806 O813 2.326 . S
In806 O814 2.266 . S
In806 O815 2.326 . S
In806 O817 2.294 . S
In806 O818 2.326 . S
O807 In806 2.294 . S
O807 C816 1.240 . S
O808 In806 2.326 . S
O808 C816 1.252 . S
C809 O812 1.252 . S
C809 O813 1.260 . S
C810 O817 1.240 . S
C810 O818 1.252 . S
C811 O814 1.252 . S
C811 O815 1.260 . S
O812 In806 2.266 . S
O812 C809 1.252 . S
O813 In806 2.326 . S
O813 C809 1.260 . S
O814 In806 2.266 . S
O814 C811 1.252 . S
O815 In806 2.326 . S
O815 C811 1.260 . S
C816 O807 1.240 . S
C816 O808 1.252 . S
O817 In806 2.294 . S
O817 C810 1.240 . S
O818 In806 2.326 . S
O818 C810 1.252 . S
In819 O820 2.294 . S
In819 O821 2.326 . S
In819 O825 2.266 . S
In819 O826 2.326 . S
In819 O827 2.266 . S
In819 O828 2.326 . S
In819 O830 2.294 . S
In819 O831 2.326 . S
O820 In819 2.294 . S
O820 C829 1.240 . S
O821 In819 2.326 . S
O821 C829 1.252 . S
C822 O825 1.252 . S
C822 O826 1.260 . S
C823 O830 1.240 . S
C823 O831 1.252 . S
C824 O827 1.252 . S
C824 O828 1.260 . S
O825 In819 2.266 . S
O825 C822 1.252 . S
O826 In819 2.326 . S
O826 C822 1.260 . S
O827 In819 2.266 . S
O827 C824 1.252 . S
O828 In819 2.326 . S
O828 C824 1.260 . S
C829 O820 1.240 . S
C829 O821 1.252 . S
O830 In819 2.294 . S
O830 C823 1.240 . S
O831 In819 2.326 . S
O831 C823 1.252 . S
In832 O833 2.294 . S
In832 O834 2.326 . S
In832 O838 2.266 . S
In832 O839 2.326 . S
In832 O840 2.266 . S
In832 O841 2.326 . S
In832 O843 2.294 . S
In832 O844 2.326 . S
O833 In832 2.294 . S
O833 C842 1.240 . S
O834 In832 2.326 . S
O834 C842 1.252 . S
C835 O838 1.252 . S
C835 O839 1.260 . S
C836 O843 1.240 . S
C836 O844 1.252 . S
C837 O840 1.252 . S
C837 O841 1.260 . S
O838 In832 2.266 . S
O838 C835 1.252 . S
O839 In832 2.326 . S
O839 C835 1.260 . S
O840 In832 2.266 . S
O840 C837 1.252 . S
O841 In832 2.326 . S
O841 C837 1.260 . S
C842 O833 1.240 . S
C842 O834 1.252 . S
O843 In832 2.294 . S
O843 C836 1.240 . S
O844 In832 2.326 . S
O844 C836 1.252 . S
In845 O846 2.294 . S
In845 O847 2.326 . S
In845 O851 2.266 . S
In845 O852 2.326 . S
In845 O853 2.266 . S
In845 O854 2.326 . S
In845 O856 2.294 . S
In845 O857 2.326 . S
O846 In845 2.294 . S
O846 C855 1.240 . S
O847 In845 2.326 . S
O847 C855 1.252 . S
C848 O851 1.252 . S
C848 O852 1.260 . S
C849 O856 1.240 . S
C849 O857 1.252 . S
C850 O853 1.252 . S
C850 O854 1.260 . S
O851 In845 2.266 . S
O851 C848 1.252 . S
O852 In845 2.326 . S
O852 C848 1.260 . S
O853 In845 2.266 . S
O853 C850 1.252 . S
O854 In845 2.326 . S
O854 C850 1.260 . S
C855 O846 1.240 . S
C855 O847 1.252 . S
O856 In845 2.294 . S
O856 C849 1.240 . S
O857 In845 2.326 . S
O857 C849 1.252 . S
In858 O859 2.294 . S
In858 O860 2.326 . S
In858 O864 2.266 . S
In858 O865 2.326 . S
In858 O866 2.266 . S
In858 O867 2.326 . S
In858 O869 2.294 . S
In858 O870 2.326 . S
O859 In858 2.294 . S
O859 C868 1.240 . S
O860 In858 2.326 . S
O860 C868 1.252 . S
C861 O864 1.252 . S
C861 O865 1.260 . S
C862 O869 1.240 . S
C862 O870 1.252 . S
C863 O866 1.252 . S
C863 O867 1.260 . S
O864 In858 2.266 . S
O864 C861 1.252 . S
O865 In858 2.326 . S
O865 C861 1.260 . S
O866 In858 2.266 . S
O866 C863 1.252 . S
O867 In858 2.326 . S
O867 C863 1.260 . S
C868 O859 1.240 . S
C868 O860 1.252 . S
O869 In858 2.294 . S
O869 C862 1.240 . S
O870 In858 2.326 . S
O870 C862 1.252 . S
In871 O872 2.294 . S
In871 O873 2.326 . S
In871 O877 2.266 . S
In871 O878 2.326 . S
In871 O879 2.266 . S
In871 O880 2.326 . S
In871 O882 2.294 . S
In871 O883 2.326 . S
O872 In871 2.294 . S
O872 C881 1.240 . S
O873 In871 2.326 . S
O873 C881 1.252 . S
C874 O877 1.252 . S
C874 O878 1.260 . S
C875 O882 1.240 . S
C875 O883 1.252 . S
C876 O879 1.252 . S
C876 O880 1.260 . S
O877 In871 2.266 . S
O877 C874 1.252 . S
O878 In871 2.326 . S
O878 C874 1.260 . S
O879 In871 2.266 . S
O879 C876 1.252 . S
O880 In871 2.326 . S
O880 C876 1.260 . S
C881 O872 1.240 . S
C881 O873 1.252 . S
O882 In871 2.294 . S
O882 C875 1.240 . S
O883 In871 2.326 . S
O883 C875 1.252 . S
In884 O885 2.294 . S
In884 O886 2.326 . S
In884 O890 2.266 . S
In884 O891 2.326 . S
In884 O892 2.266 . S
In884 O893 2.326 . S
In884 O895 2.294 . S
In884 O896 2.326 . S
O885 In884 2.294 . S
O885 C894 1.240 . S
O886 In884 2.326 . S
O886 C894 1.252 . S
C887 O890 1.252 . S
C887 O891 1.260 . S
C888 O895 1.240 . S
C888 O896 1.252 . S
C889 O892 1.252 . S
C889 O893 1.260 . S
O890 In884 2.266 . S
O890 C887 1.252 . S
O891 In884 2.326 . S
O891 C887 1.260 . S
O892 In884 2.266 . S
O892 C889 1.252 . S
O893 In884 2.326 . S
O893 C889 1.260 . S
C894 O885 1.240 . S
C894 O886 1.252 . S
O895 In884 2.294 . S
O895 C888 1.240 . S
O896 In884 2.326 . S
O896 C888 1.252 . S
In897 O898 2.294 . S
In897 O899 2.326 . S
In897 O903 2.266 . S
In897 O904 2.326 . S
In897 O905 2.266 . S
In897 O906 2.326 . S
In897 O908 2.294 . S
In897 O909 2.326 . S
O898 In897 2.294 . S
O898 C907 1.240 . S
O899 In897 2.326 . S
O899 C907 1.252 . S
C900 O903 1.252 . S
C900 O904 1.260 . S
C901 O908 1.240 . S
C901 O909 1.252 . S
C902 O905 1.252 . S
C902 O906 1.260 . S
O903 In897 2.266 . S
O903 C900 1.252 . S
O904 In897 2.326 . S
O904 C900 1.260 . S
O905 In897 2.266 . S
O905 C902 1.252 . S
O906 In897 2.326 . S
O906 C902 1.260 . S
C907 O898 1.240 . S
C907 O899 1.252 . S
O908 In897 2.294 . S
O908 C901 1.240 . S
O909 In897 2.326 . S
O909 C901 1.252 . S
In910 O911 2.294 . S
In910 O912 2.326 . S
In910 O916 2.266 . S
In910 O917 2.326 . S
In910 O918 2.266 . S
In910 O919 2.326 . S
In910 O921 2.294 . S
In910 O922 2.326 . S
O911 In910 2.294 . S
O911 C920 1.240 . S
O912 In910 2.326 . S
O912 C920 1.252 . S
C913 O916 1.252 . S
C913 O917 1.260 . S
C914 O921 1.240 . S
C914 O922 1.252 . S
C915 O918 1.252 . S
C915 O919 1.260 . S
O916 In910 2.266 . S
O916 C913 1.252 . S
O917 In910 2.326 . S
O917 C913 1.260 . S
O918 In910 2.266 . S
O918 C915 1.252 . S
O919 In910 2.326 . S
O919 C915 1.260 . S
C920 O911 1.240 . S
C920 O912 1.252 . S
O921 In910 2.294 . S
O921 C914 1.240 . S
O922 In910 2.326 . S
O922 C914 1.252 . S
In923 O924 2.294 . S
In923 O925 2.326 . S
In923 O929 2.266 . S
In923 O930 2.326 . S
In923 O931 2.266 . S
In923 O932 2.326 . S
In923 O934 2.294 . S
In923 O935 2.326 . S
O924 In923 2.294 . S
O924 C933 1.240 . S
O925 In923 2.326 . S
O925 C933 1.252 . S
C926 O929 1.252 . S
C926 O930 1.260 . S
C927 O934 1.240 . S
C927 O935 1.252 . S
C928 O931 1.252 . S
C928 O932 1.260 . S
O929 In923 2.266 . S
O929 C926 1.252 . S
O930 In923 2.326 . S
O930 C926 1.260 . S
O931 In923 2.266 . S
O931 C928 1.252 . S
O932 In923 2.326 . S
O932 C928 1.260 . S
C933 O924 1.240 . S
C933 O925 1.252 . S
O934 In923 2.294 . S
O934 C927 1.240 . S
O935 In923 2.326 . S
O935 C927 1.252 . S
In936 O937 2.294 . S
In936 O938 2.326 . S
In936 O942 2.266 . S
In936 O943 2.326 . S
In936 O944 2.266 . S
In936 O945 2.326 . S
In936 O947 2.294 . S
In936 O948 2.326 . S
O937 In936 2.294 . S
O937 C946 1.240 . S
O938 In936 2.326 . S
O938 C946 1.252 . S
C939 O942 1.252 . S
C939 O943 1.260 . S
C940 O947 1.240 . S
C940 O948 1.252 . S
C941 O944 1.252 . S
C941 O945 1.260 . S
O942 In936 2.266 . S
O942 C939 1.252 . S
O943 In936 2.326 . S
O943 C939 1.260 . S
O944 In936 2.266 . S
O944 C941 1.252 . S
O945 In936 2.326 . S
O945 C941 1.260 . S
C946 O937 1.240 . S
C946 O938 1.252 . S
O947 In936 2.294 . S
O947 C940 1.240 . S
O948 In936 2.326 . S
O948 C940 1.252 . S
In949 O950 2.294 . S
In949 O951 2.326 . S
In949 O955 2.266 . S
In949 O956 2.326 . S
In949 O957 2.266 . S
In949 O958 2.326 . S
In949 O960 2.294 . S
In949 O961 2.326 . S
O950 In949 2.294 . S
O950 C959 1.240 . S
O951 In949 2.326 . S
O951 C959 1.252 . S
C952 O955 1.252 . S
C952 O956 1.260 . S
C953 O960 1.240 . S
C953 O961 1.252 . S
C954 O957 1.252 . S
C954 O958 1.260 . S
O955 In949 2.266 . S
O955 C952 1.252 . S
O956 In949 2.326 . S
O956 C952 1.260 . S
O957 In949 2.266 . S
O957 C954 1.252 . S
O958 In949 2.326 . S
O958 C954 1.260 . S
C959 O950 1.240 . S
C959 O951 1.252 . S
O960 In949 2.294 . S
O960 C953 1.240 . S
O961 In949 2.326 . S
O961 C953 1.252 . S
In962 O963 2.294 . S
In962 O964 2.326 . S
In962 O968 2.266 . S
In962 O969 2.326 . S
In962 O970 2.266 . S
In962 O971 2.326 . S
In962 O973 2.294 . S
In962 O974 2.326 . S
O963 In962 2.294 . S
O963 C972 1.240 . S
O964 In962 2.326 . S
O964 C972 1.252 . S
C965 O968 1.252 . S
C965 O969 1.260 . S
C966 O973 1.240 . S
C966 O974 1.252 . S
C967 O970 1.252 . S
C967 O971 1.260 . S
O968 In962 2.266 . S
O968 C965 1.252 . S
O969 In962 2.326 . S
O969 C965 1.260 . S
O970 In962 2.266 . S
O970 C967 1.252 . S
O971 In962 2.326 . S
O971 C967 1.260 . S
C972 O963 1.240 . S
C972 O964 1.252 . S
O973 In962 2.294 . S
O973 C966 1.240 . S
O974 In962 2.326 . S
O974 C966 1.252 . S
In975 O976 2.294 . S
In975 O977 2.326 . S
In975 O981 2.266 . S
In975 O982 2.326 . S
In975 O983 2.266 . S
In975 O984 2.326 . S
In975 O986 2.294 . S
In975 O987 2.326 . S
O976 In975 2.294 . S
O976 C985 1.240 . S
O977 In975 2.326 . S
O977 C985 1.252 . S
C978 O981 1.252 . S
C978 O982 1.260 . S
C979 O986 1.240 . S
C979 O987 1.252 . S
C980 O983 1.252 . S
C980 O984 1.260 . S
O981 In975 2.266 . S
O981 C978 1.252 . S
O982 In975 2.326 . S
O982 C978 1.260 . S
O983 In975 2.266 . S
O983 C980 1.252 . S
O984 In975 2.326 . S
O984 C980 1.260 . S
C985 O976 1.240 . S
C985 O977 1.252 . S
O986 In975 2.294 . S
O986 C979 1.240 . S
O987 In975 2.326 . S
O987 C979 1.252 . S
In988 O989 2.294 . S
In988 O990 2.326 . S
In988 O994 2.266 . S
In988 O995 2.326 . S
In988 O996 2.266 . S
In988 O997 2.326 . S
In988 O999 2.294 . S
In988 O1000 2.326 . S
O989 In988 2.294 . S
O989 C998 1.240 . S
O990 In988 2.326 . S
O990 C998 1.252 . S
C991 O994 1.252 . S
C991 O995 1.260 . S
C992 O999 1.240 . S
C992 O1000 1.252 . S
C993 O996 1.252 . S
C993 O997 1.260 . S
O994 In988 2.266 . S
O994 C991 1.252 . S
O995 In988 2.326 . S
O995 C991 1.260 . S
O996 In988 2.266 . S
O996 C993 1.252 . S
O997 In988 2.326 . S
O997 C993 1.260 . S
C998 O989 1.240 . S
C998 O990 1.252 . S
O999 In988 2.294 . S
O999 C992 1.240 . S
O1000 In988 2.326 . S
O1000 C992 1.252 . S
In1001 O1002 2.294 . S
In1001 O1003 2.326 . S
In1001 O1007 2.266 . S
In1001 O1008 2.326 . S
In1001 O1009 2.266 . S
In1001 O1010 2.326 . S
In1001 O1012 2.294 . S
In1001 O1013 2.326 . S
O1002 In1001 2.294 . S
O1002 C1011 1.240 . S
O1003 In1001 2.326 . S
O1003 C1011 1.252 . S
C1004 O1007 1.252 . S
C1004 O1008 1.260 . S
C1005 O1012 1.240 . S
C1005 O1013 1.252 . S
C1006 O1009 1.252 . S
C1006 O1010 1.260 . S
O1007 In1001 2.266 . S
O1007 C1004 1.252 . S
O1008 In1001 2.326 . S
O1008 C1004 1.260 . S
O1009 In1001 2.266 . S
O1009 C1006 1.252 . S
O1010 In1001 2.326 . S
O1010 C1006 1.260 . S
C1011 O1002 1.240 . S
C1011 O1003 1.252 . S
O1012 In1001 2.294 . S
O1012 C1005 1.240 . S
O1013 In1001 2.326 . S
O1013 C1005 1.252 . S
In1014 O1015 2.294 . S
In1014 O1016 2.326 . S
In1014 O1020 2.266 . S
In1014 O1021 2.326 . S
In1014 O1022 2.266 . S
In1014 O1023 2.326 . S
In1014 O1025 2.294 . S
In1014 O1026 2.326 . S
O1015 In1014 2.294 . S
O1015 C1024 1.240 . S
O1016 In1014 2.326 . S
O1016 C1024 1.252 . S
C1017 O1020 1.252 . S
C1017 O1021 1.260 . S
C1018 O1025 1.240 . S
C1018 O1026 1.252 . S
C1019 O1022 1.252 . S
C1019 O1023 1.260 . S
O1020 In1014 2.266 . S
O1020 C1017 1.252 . S
O1021 In1014 2.326 . S
O1021 C1017 1.260 . S
O1022 In1014 2.266 . S
O1022 C1019 1.252 . S
O1023 In1014 2.326 . S
O1023 C1019 1.260 . S
C1024 O1015 1.240 . S
C1024 O1016 1.252 . S
O1025 In1014 2.294 . S
O1025 C1018 1.240 . S
O1026 In1014 2.326 . S
O1026 C1018 1.252 . S
In1027 O1028 2.294 . S
In1027 O1029 2.326 . S
In1027 O1033 2.266 . S
In1027 O1034 2.326 . S
In1027 O1035 2.266 . S
In1027 O1036 2.326 . S
In1027 O1038 2.294 . S
In1027 O1039 2.326 . S
O1028 In1027 2.294 . S
O1028 C1037 1.240 . S
O1029 In1027 2.326 . S
O1029 C1037 1.252 . S
C1030 O1033 1.252 . S
C1030 O1034 1.260 . S
C1031 O1038 1.240 . S
C1031 O1039 1.252 . S
C1032 O1035 1.252 . S
C1032 O1036 1.260 . S
O1033 In1027 2.266 . S
O1033 C1030 1.252 . S
O1034 In1027 2.326 . S
O1034 C1030 1.260 . S
O1035 In1027 2.266 . S
O1035 C1032 1.252 . S
O1036 In1027 2.326 . S
O1036 C1032 1.260 . S
C1037 O1028 1.240 . S
C1037 O1029 1.252 . S
O1038 In1027 2.294 . S
O1038 C1031 1.240 . S
O1039 In1027 2.326 . S
O1039 C1031 1.252 . S
In1040 O1041 2.294 . S
In1040 O1042 2.326 . S
In1040 O1046 2.266 . S
In1040 O1047 2.326 . S
In1040 O1048 2.266 . S
In1040 O1049 2.326 . S
In1040 O1051 2.294 . S
In1040 O1052 2.326 . S
O1041 In1040 2.294 . S
O1041 C1050 1.240 . S
O1042 In1040 2.326 . S
O1042 C1050 1.252 . S
C1043 O1046 1.252 . S
C1043 O1047 1.260 . S
C1044 O1051 1.240 . S
C1044 O1052 1.252 . S
C1045 O1048 1.252 . S
C1045 O1049 1.260 . S
O1046 In1040 2.266 . S
O1046 C1043 1.252 . S
O1047 In1040 2.326 . S
O1047 C1043 1.260 . S
O1048 In1040 2.266 . S
O1048 C1045 1.252 . S
O1049 In1040 2.326 . S
O1049 C1045 1.260 . S
C1050 O1041 1.240 . S
C1050 O1042 1.252 . S
O1051 In1040 2.294 . S
O1051 C1044 1.240 . S
O1052 In1040 2.326 . S
O1052 C1044 1.252 . S
In1053 O1054 2.294 . S
In1053 O1055 2.326 . S
In1053 O1059 2.266 . S
In1053 O1060 2.326 . S
In1053 O1061 2.266 . S
In1053 O1062 2.326 . S
In1053 O1064 2.294 . S
In1053 O1065 2.326 . S
O1054 In1053 2.294 . S
O1054 C1063 1.240 . S
O1055 In1053 2.326 . S
O1055 C1063 1.252 . S
C1056 O1059 1.252 . S
C1056 O1060 1.260 . S
C1057 O1064 1.240 . S
C1057 O1065 1.252 . S
C1058 O1061 1.252 . S
C1058 O1062 1.260 . S
O1059 In1053 2.266 . S
O1059 C1056 1.252 . S
O1060 In1053 2.326 . S
O1060 C1056 1.260 . S
O1061 In1053 2.266 . S
O1061 C1058 1.252 . S
O1062 In1053 2.326 . S
O1062 C1058 1.260 . S
C1063 O1054 1.240 . S
C1063 O1055 1.252 . S
O1064 In1053 2.294 . S
O1064 C1057 1.240 . S
O1065 In1053 2.326 . S
O1065 C1057 1.252 . S
In1066 O1067 2.294 . S
In1066 O1068 2.326 . S
In1066 O1072 2.266 . S
In1066 O1073 2.326 . S
In1066 O1074 2.266 . S
In1066 O1075 2.326 . S
In1066 O1077 2.294 . S
In1066 O1078 2.326 . S
O1067 In1066 2.294 . S
O1067 C1076 1.240 . S
O1068 In1066 2.326 . S
O1068 C1076 1.252 . S
C1069 O1072 1.252 . S
C1069 O1073 1.260 . S
C1070 O1077 1.240 . S
C1070 O1078 1.252 . S
C1071 O1074 1.252 . S
C1071 O1075 1.260 . S
O1072 In1066 2.266 . S
O1072 C1069 1.252 . S
O1073 In1066 2.326 . S
O1073 C1069 1.260 . S
O1074 In1066 2.266 . S
O1074 C1071 1.252 . S
O1075 In1066 2.326 . S
O1075 C1071 1.260 . S
C1076 O1067 1.240 . S
C1076 O1068 1.252 . S
O1077 In1066 2.294 . S
O1077 C1070 1.240 . S
O1078 In1066 2.326 . S
O1078 C1070 1.252 . S
In1079 O1080 2.294 . S
In1079 O1081 2.326 . S
In1079 O1085 2.266 . S
In1079 O1086 2.326 . S
In1079 O1087 2.266 . S
In1079 O1088 2.326 . S
In1079 O1090 2.294 . S
In1079 O1091 2.326 . S
O1080 In1079 2.294 . S
O1080 C1089 1.240 . S
O1081 In1079 2.326 . S
O1081 C1089 1.252 . S
C1082 O1085 1.252 . S
C1082 O1086 1.260 . S
C1083 O1090 1.240 . S
C1083 O1091 1.252 . S
C1084 O1087 1.252 . S
C1084 O1088 1.260 . S
O1085 In1079 2.266 . S
O1085 C1082 1.252 . S
O1086 In1079 2.326 . S
O1086 C1082 1.260 . S
O1087 In1079 2.266 . S
O1087 C1084 1.252 . S
O1088 In1079 2.326 . S
O1088 C1084 1.260 . S
C1089 O1080 1.240 . S
C1089 O1081 1.252 . S
O1090 In1079 2.294 . S
O1090 C1083 1.240 . S
O1091 In1079 2.326 . S
O1091 C1083 1.252 . S
In1092 O1093 2.294 . S
In1092 O1094 2.326 . S
In1092 O1098 2.266 . S
In1092 O1099 2.326 . S
In1092 O1100 2.266 . S
In1092 O1101 2.326 . S
In1092 O1103 2.294 . S
In1092 O1104 2.326 . S
O1093 In1092 2.294 . S
O1093 C1102 1.240 . S
O1094 In1092 2.326 . S
O1094 C1102 1.252 . S
C1095 O1098 1.252 . S
C1095 O1099 1.260 . S
C1096 O1103 1.240 . S
C1096 O1104 1.252 . S
C1097 O1100 1.252 . S
C1097 O1101 1.260 . S
O1098 In1092 2.266 . S
O1098 C1095 1.252 . S
O1099 In1092 2.326 . S
O1099 C1095 1.260 . S
O1100 In1092 2.266 . S
O1100 C1097 1.252 . S
O1101 In1092 2.326 . S
O1101 C1097 1.260 . S
C1102 O1093 1.240 . S
C1102 O1094 1.252 . S
O1103 In1092 2.294 . S
O1103 C1096 1.240 . S
O1104 In1092 2.326 . S
O1104 C1096 1.252 . S
In1105 O1106 2.294 . S
In1105 O1107 2.326 . S
In1105 O1111 2.266 . S
In1105 O1112 2.326 . S
In1105 O1113 2.266 . S
In1105 O1114 2.326 . S
In1105 O1116 2.294 . S
In1105 O1117 2.326 . S
O1106 In1105 2.294 . S
O1106 C1115 1.240 . S
O1107 In1105 2.326 . S
O1107 C1115 1.252 . S
C1108 O1111 1.252 . S
C1108 O1112 1.260 . S
C1109 O1116 1.240 . S
C1109 O1117 1.252 . S
C1110 O1113 1.252 . S
C1110 O1114 1.260 . S
O1111 In1105 2.266 . S
O1111 C1108 1.252 . S
O1112 In1105 2.326 . S
O1112 C1108 1.260 . S
O1113 In1105 2.266 . S
O1113 C1110 1.252 . S
O1114 In1105 2.326 . S
O1114 C1110 1.260 . S
C1115 O1106 1.240 . S
C1115 O1107 1.252 . S
O1116 In1105 2.294 . S
O1116 C1109 1.240 . S
O1117 In1105 2.326 . S
O1117 C1109 1.252 . S
In1118 O1119 2.294 . S
In1118 O1120 2.326 . S
In1118 O1124 2.266 . S
In1118 O1125 2.326 . S
In1118 O1126 2.266 . S
In1118 O1127 2.326 . S
In1118 O1129 2.294 . S
In1118 O1130 2.326 . S
O1119 In1118 2.294 . S
O1119 C1128 1.240 . S
O1120 In1118 2.326 . S
O1120 C1128 1.252 . S
C1121 O1124 1.252 . S
C1121 O1125 1.260 . S
C1122 O1129 1.240 . S
C1122 O1130 1.252 . S
C1123 O1126 1.252 . S
C1123 O1127 1.260 . S
O1124 In1118 2.266 . S
O1124 C1121 1.252 . S
O1125 In1118 2.326 . S
O1125 C1121 1.260 . S
O1126 In1118 2.266 . S
O1126 C1123 1.252 . S
O1127 In1118 2.326 . S
O1127 C1123 1.260 . S
C1128 O1119 1.240 . S
C1128 O1120 1.252 . S
O1129 In1118 2.294 . S
O1129 C1122 1.240 . S
O1130 In1118 2.326 . S
O1130 C1122 1.252 . S
In1131 O1132 2.294 . S
In1131 O1133 2.326 . S
In1131 O1137 2.266 . S
In1131 O1138 2.326 . S
In1131 O1139 2.266 . S
In1131 O1140 2.326 . S
In1131 O1142 2.294 . S
In1131 O1143 2.326 . S
O1132 In1131 2.294 . S
O1132 C1141 1.240 . S
O1133 In1131 2.326 . S
O1133 C1141 1.252 . S
C1134 O1137 1.252 . S
C1134 O1138 1.260 . S
C1135 O1142 1.240 . S
C1135 O1143 1.252 . S
C1136 O1139 1.252 . S
C1136 O1140 1.260 . S
O1137 In1131 2.266 . S
O1137 C1134 1.252 . S
O1138 In1131 2.326 . S
O1138 C1134 1.260 . S
O1139 In1131 2.266 . S
O1139 C1136 1.252 . S
O1140 In1131 2.326 . S
O1140 C1136 1.260 . S
C1141 O1132 1.240 . S
C1141 O1133 1.252 . S
O1142 In1131 2.294 . S
O1142 C1135 1.240 . S
O1143 In1131 2.326 . S
O1143 C1135 1.252 . S
In1144 O1145 2.294 . S
In1144 O1146 2.326 . S
In1144 O1150 2.266 . S
In1144 O1151 2.326 . S
In1144 O1152 2.266 . S
In1144 O1153 2.326 . S
In1144 O1155 2.294 . S
In1144 O1156 2.326 . S
O1145 In1144 2.294 . S
O1145 C1154 1.240 . S
O1146 In1144 2.326 . S
O1146 C1154 1.252 . S
C1147 O1150 1.252 . S
C1147 O1151 1.260 . S
C1148 O1155 1.240 . S
C1148 O1156 1.252 . S
C1149 O1152 1.252 . S
C1149 O1153 1.260 . S
O1150 In1144 2.266 . S
O1150 C1147 1.252 . S
O1151 In1144 2.326 . S
O1151 C1147 1.260 . S
O1152 In1144 2.266 . S
O1152 C1149 1.252 . S
O1153 In1144 2.326 . S
O1153 C1149 1.260 . S
C1154 O1145 1.240 . S
C1154 O1146 1.252 . S
O1155 In1144 2.294 . S
O1155 C1148 1.240 . S
O1156 In1144 2.326 . S
O1156 C1148 1.252 . S
In1157 O1158 2.294 . S
In1157 O1159 2.326 . S
In1157 O1163 2.266 . S
In1157 O1164 2.326 . S
In1157 O1165 2.266 . S
In1157 O1166 2.326 . S
In1157 O1168 2.294 . S
In1157 O1169 2.326 . S
O1158 In1157 2.294 . S
O1158 C1167 1.240 . S
O1159 In1157 2.326 . S
O1159 C1167 1.252 . S
C1160 O1163 1.252 . S
C1160 O1164 1.260 . S
C1161 O1168 1.240 . S
C1161 O1169 1.252 . S
C1162 O1165 1.252 . S
C1162 O1166 1.260 . S
O1163 In1157 2.266 . S
O1163 C1160 1.252 . S
O1164 In1157 2.326 . S
O1164 C1160 1.260 . S
O1165 In1157 2.266 . S
O1165 C1162 1.252 . S
O1166 In1157 2.326 . S
O1166 C1162 1.260 . S
C1167 O1158 1.240 . S
C1167 O1159 1.252 . S
O1168 In1157 2.294 . S
O1168 C1161 1.240 . S
O1169 In1157 2.326 . S
O1169 C1161 1.252 . S
In1170 O1171 2.294 . S
In1170 O1172 2.326 . S
In1170 O1176 2.266 . S
In1170 O1177 2.326 . S
In1170 O1178 2.266 . S
In1170 O1179 2.326 . S
In1170 O1181 2.294 . S
In1170 O1182 2.326 . S
O1171 In1170 2.294 . S
O1171 C1180 1.240 . S
O1172 In1170 2.326 . S
O1172 C1180 1.252 . S
C1173 O1176 1.252 . S
C1173 O1177 1.260 . S
C1174 O1181 1.240 . S
C1174 O1182 1.252 . S
C1175 O1178 1.252 . S
C1175 O1179 1.260 . S
O1176 In1170 2.266 . S
O1176 C1173 1.252 . S
O1177 In1170 2.326 . S
O1177 C1173 1.260 . S
O1178 In1170 2.266 . S
O1178 C1175 1.252 . S
O1179 In1170 2.326 . S
O1179 C1175 1.260 . S
C1180 O1171 1.240 . S
C1180 O1172 1.252 . S
O1181 In1170 2.294 . S
O1181 C1174 1.240 . S
O1182 In1170 2.326 . S
O1182 C1174 1.252 . S
In1183 O1184 2.294 . S
In1183 O1185 2.326 . S
In1183 O1189 2.266 . S
In1183 O1190 2.326 . S
In1183 O1191 2.266 . S
In1183 O1192 2.326 . S
In1183 O1194 2.294 . S
In1183 O1195 2.326 . S
O1184 In1183 2.294 . S
O1184 C1193 1.240 . S
O1185 In1183 2.326 . S
O1185 C1193 1.252 . S
C1186 O1189 1.252 . S
C1186 O1190 1.260 . S
C1187 O1194 1.240 . S
C1187 O1195 1.252 . S
C1188 O1191 1.252 . S
C1188 O1192 1.260 . S
O1189 In1183 2.266 . S
O1189 C1186 1.252 . S
O1190 In1183 2.326 . S
O1190 C1186 1.260 . S
O1191 In1183 2.266 . S
O1191 C1188 1.252 . S
O1192 In1183 2.326 . S
O1192 C1188 1.260 . S
C1193 O1184 1.240 . S
C1193 O1185 1.252 . S
O1194 In1183 2.294 . S
O1194 C1187 1.240 . S
O1195 In1183 2.326 . S
O1195 C1187 1.252 . S
In1196 O1197 2.294 . S
In1196 O1198 2.326 . S
In1196 O1202 2.266 . S
In1196 O1203 2.326 . S
In1196 O1204 2.266 . S
In1196 O1205 2.326 . S
In1196 O1207 2.294 . S
In1196 O1208 2.326 . S
O1197 In1196 2.294 . S
O1197 C1206 1.240 . S
O1198 In1196 2.326 . S
O1198 C1206 1.252 . S
C1199 O1202 1.252 . S
C1199 O1203 1.260 . S
C1200 O1207 1.240 . S
C1200 O1208 1.252 . S
C1201 O1204 1.252 . S
C1201 O1205 1.260 . S
O1202 In1196 2.266 . S
O1202 C1199 1.252 . S
O1203 In1196 2.326 . S
O1203 C1199 1.260 . S
O1204 In1196 2.266 . S
O1204 C1201 1.252 . S
O1205 In1196 2.326 . S
O1205 C1201 1.260 . S
C1206 O1197 1.240 . S
C1206 O1198 1.252 . S
O1207 In1196 2.294 . S
O1207 C1200 1.240 . S
O1208 In1196 2.326 . S
O1208 C1200 1.252 . S
In1209 O1210 2.294 . S
In1209 O1211 2.326 . S
In1209 O1215 2.266 . S
In1209 O1216 2.326 . S
In1209 O1217 2.266 . S
In1209 O1218 2.326 . S
In1209 O1220 2.294 . S
In1209 O1221 2.326 . S
O1210 In1209 2.294 . S
O1210 C1219 1.240 . S
O1211 In1209 2.326 . S
O1211 C1219 1.252 . S
C1212 O1215 1.252 . S
C1212 O1216 1.260 . S
C1213 O1220 1.240 . S
C1213 O1221 1.252 . S
C1214 O1217 1.252 . S
C1214 O1218 1.260 . S
O1215 In1209 2.266 . S
O1215 C1212 1.252 . S
O1216 In1209 2.326 . S
O1216 C1212 1.260 . S
O1217 In1209 2.266 . S
O1217 C1214 1.252 . S
O1218 In1209 2.326 . S
O1218 C1214 1.260 . S
C1219 O1210 1.240 . S
C1219 O1211 1.252 . S
O1220 In1209 2.294 . S
O1220 C1213 1.240 . S
O1221 In1209 2.326 . S
O1221 C1213 1.252 . S
In1222 O1223 2.294 . S
In1222 O1224 2.326 . S
In1222 O1228 2.266 . S
In1222 O1229 2.326 . S
In1222 O1230 2.266 . S
In1222 O1231 2.326 . S
In1222 O1233 2.294 . S
In1222 O1234 2.326 . S
O1223 In1222 2.294 . S
O1223 C1232 1.240 . S
O1224 In1222 2.326 . S
O1224 C1232 1.252 . S
C1225 O1228 1.252 . S
C1225 O1229 1.260 . S
C1226 O1233 1.240 . S
C1226 O1234 1.252 . S
C1227 O1230 1.252 . S
C1227 O1231 1.260 . S
O1228 In1222 2.266 . S
O1228 C1225 1.252 . S
O1229 In1222 2.326 . S
O1229 C1225 1.260 . S
O1230 In1222 2.266 . S
O1230 C1227 1.252 . S
O1231 In1222 2.326 . S
O1231 C1227 1.260 . S
C1232 O1223 1.240 . S
C1232 O1224 1.252 . S
O1233 In1222 2.294 . S
O1233 C1226 1.240 . S
O1234 In1222 2.326 . S
O1234 C1226 1.252 . S
In1235 O1236 2.294 . S
In1235 O1237 2.326 . S
In1235 O1241 2.266 . S
In1235 O1242 2.326 . S
In1235 O1243 2.266 . S
In1235 O1244 2.326 . S
In1235 O1246 2.294 . S
In1235 O1247 2.326 . S
O1236 In1235 2.294 . S
O1236 C1245 1.240 . S
O1237 In1235 2.326 . S
O1237 C1245 1.252 . S
C1238 O1241 1.252 . S
C1238 O1242 1.260 . S
C1239 O1246 1.240 . S
C1239 O1247 1.252 . S
C1240 O1243 1.252 . S
C1240 O1244 1.260 . S
O1241 In1235 2.266 . S
O1241 C1238 1.252 . S
O1242 In1235 2.326 . S
O1242 C1238 1.260 . S
O1243 In1235 2.266 . S
O1243 C1240 1.252 . S
O1244 In1235 2.326 . S
O1244 C1240 1.260 . S
C1245 O1236 1.240 . S
C1245 O1237 1.252 . S
O1246 In1235 2.294 . S
O1246 C1239 1.240 . S
O1247 In1235 2.326 . S
O1247 C1239 1.252 . S
C1248 C1249 1.387 . S
C1248 H1252 0.950 . S
C1248 C1257 1.390 1_454 S
C1249 C1248 1.387 . S
C1249 C1251 1.387 . S
H1250 C1257 0.950 . S
C1251 C1249 1.387 . S
C1251 C1253 1.390 1_454 S
C1251 H1255 0.950 . S
H1252 C1248 0.950 . S
C1253 C1251 1.390 1_656 S
C1253 C1254 1.387 . S
C1253 H1256 0.950 . S
C1254 C1253 1.387 . S
C1254 C1257 1.387 . S
H1255 C1251 0.950 . S
H1256 C1253 0.950 . S
C1257 C1248 1.390 1_656 S
C1257 H1250 0.950 . S
C1257 C1254 1.387 . S
C1258 C1259 1.387 . S
C1258 H1262 0.950 . S
C1258 C1267 1.390 . S
C1259 C1258 1.387 . S
C1259 C1261 1.387 . S
H1260 C1267 0.950 . S
C1261 C1259 1.387 . S
C1261 C1263 1.390 . S
C1261 H1265 0.950 . S
H1262 C1258 0.950 . S
C1263 C1261 1.390 . S
C1263 C1264 1.387 . S
C1263 H1266 0.950 . S
C1264 C1263 1.387 . S
C1264 C1267 1.387 . S
H1265 C1261 0.950 . S
H1266 C1263 0.950 . S
C1267 C1258 1.390 . S
C1267 H1260 0.950 . S
C1267 C1264 1.387 . S
C1268 C1269 1.387 . S
C1268 H1272 0.950 . S
C1268 C1277 1.390 1_655 S
C1269 C1268 1.387 . S
C1269 C1271 1.387 . S
H1270 C1277 0.950 . S
C1271 C1269 1.387 . S
C1271 C1273 1.390 1_655 S
C1271 H1275 0.950 . S
H1272 C1268 0.950 . S
C1273 C1271 1.390 1_455 S
C1273 C1274 1.387 . S
C1273 H1276 0.950 . S
C1274 C1273 1.387 . S
C1274 C1277 1.387 . S
H1275 C1271 0.950 . S
H1276 C1273 0.950 . S
C1277 C1268 1.390 1_455 S
C1277 H1270 0.950 . S
C1277 C1274 1.387 . S
C1278 C1279 1.387 . S
C1278 H1282 0.950 . S
C1278 C1287 1.390 . S
C1279 C1278 1.387 . S
C1279 C1281 1.387 . S
H1280 C1287 0.950 . S
C1281 C1279 1.387 . S
C1281 C1283 1.390 . S
C1281 H1285 0.950 . S
H1282 C1278 0.950 . S
C1283 C1281 1.390 . S
C1283 C1284 1.387 . S
C1283 H1286 0.950 . S
C1284 C1283 1.387 . S
C1284 C1287 1.387 . S
H1285 C1281 0.950 . S
H1286 C1283 0.950 . S
C1287 C1278 1.390 . S
C1287 H1280 0.950 . S
C1287 C1284 1.387 . S
C1288 C1289 1.387 . S
C1288 H1292 0.950 . S
C1288 C1297 1.390 1_654 S
C1289 C1288 1.387 . S
C1289 C1291 1.387 . S
H1290 C1297 0.950 . S
C1291 C1289 1.387 . S
C1291 C1293 1.390 1_654 S
C1291 H1295 0.950 . S
H1292 C1288 0.950 . S
C1293 C1291 1.390 1_456 S
C1293 C1294 1.387 . S
C1293 H1296 0.950 . S
C1294 C1293 1.387 . S
C1294 C1297 1.387 . S
H1295 C1291 0.950 . S
H1296 C1293 0.950 . S
C1297 C1288 1.390 1_456 S
C1297 H1290 0.950 . S
C1297 C1294 1.387 . S
C1298 C1299 1.387 . S
C1298 H1302 0.950 . S
C1298 C1307 1.390 . S
C1299 C1298 1.387 . S
C1299 C1301 1.387 . S
H1300 C1307 0.950 . S
C1301 C1299 1.387 . S
C1301 C1303 1.390 . S
C1301 H1305 0.950 . S
H1302 C1298 0.950 . S
C1303 C1301 1.390 . S
C1303 C1304 1.387 . S
C1303 H1306 0.950 . S
C1304 C1303 1.387 . S
C1304 C1307 1.387 . S
H1305 C1301 0.950 . S
H1306 C1303 0.950 . S
C1307 C1298 1.390 . S
C1307 H1300 0.950 . S
C1307 C1304 1.387 . S
C1308 C1309 1.387 . S
C1308 H1312 0.950 . S
C1308 C1317 1.390 1_455 S
C1309 C1308 1.387 . S
C1309 C1311 1.387 . S
H1310 C1317 0.950 . S
C1311 C1309 1.387 . S
C1311 C1313 1.390 1_455 S
C1311 H1315 0.950 . S
H1312 C1308 0.950 . S
C1313 C1311 1.390 1_655 S
C1313 C1314 1.387 . S
C1313 H1316 0.950 . S
C1314 C1313 1.387 . S
C1314 C1317 1.387 . S
H1315 C1311 0.950 . S
H1316 C1313 0.950 . S
C1317 C1308 1.390 1_655 S
C1317 H1310 0.950 . S
C1317 C1314 1.387 . S
C1318 C1319 1.387 . S
C1318 H1322 0.950 . S
C1318 C1327 1.390 . S
C1319 C1318 1.387 . S
C1319 C1321 1.387 . S
H1320 C1327 0.950 . S
C1321 C1319 1.387 . S
C1321 C1323 1.390 . S
C1321 H1325 0.950 . S
H1322 C1318 0.950 . S
C1323 C1321 1.390 . S
C1323 C1324 1.387 . S
C1323 H1326 0.950 . S
C1324 C1323 1.387 . S
C1324 C1327 1.387 . S
H1325 C1321 0.950 . S
H1326 C1323 0.950 . S
C1327 C1318 1.390 . S
C1327 H1320 0.950 . S
C1327 C1324 1.387 . S
C1328 C1329 1.387 . S
C1328 H1332 0.950 . S
C1328 C1337 1.390 1_665 S
C1329 C1328 1.387 . S
C1329 C1331 1.387 . S
H1330 C1337 0.950 . S
C1331 C1329 1.387 . S
C1331 C1333 1.390 1_665 S
C1331 H1335 0.950 . S
H1332 C1328 0.950 . S
C1333 C1331 1.390 1_445 S
C1333 C1334 1.387 . S
C1333 H1336 0.950 . S
C1334 C1333 1.387 . S
C1334 C1337 1.387 . S
H1335 C1331 0.950 . S
H1336 C1333 0.950 . S
C1337 C1328 1.390 1_445 S
C1337 H1330 0.950 . S
C1337 C1334 1.387 . S
C1338 C1339 1.387 . S
C1338 H1342 0.950 . S
C1338 C1347 1.390 . S
C1339 C1338 1.387 . S
C1339 C1341 1.387 . S
H1340 C1347 0.950 . S
C1341 C1339 1.387 . S
C1341 C1343 1.390 . S
C1341 H1345 0.950 . S
H1342 C1338 0.950 . S
C1343 C1341 1.390 . S
C1343 C1344 1.387 . S
C1343 H1346 0.950 . S
C1344 C1343 1.387 . S
C1344 C1347 1.387 . S
H1345 C1341 0.950 . S
H1346 C1343 0.950 . S
C1347 C1338 1.390 . S
C1347 H1340 0.950 . S
C1347 C1344 1.387 . S
C1348 C1349 1.387 . S
C1348 H1352 0.950 . S
C1348 C1357 1.390 1_655 S
C1349 C1348 1.387 . S
C1349 C1351 1.387 . S
H1350 C1357 0.950 . S
C1351 C1349 1.387 . S
C1351 C1353 1.390 1_655 S
C1351 H1355 0.950 . S
H1352 C1348 0.950 . S
C1353 C1351 1.390 1_455 S
C1353 C1354 1.387 . S
C1353 H1356 0.950 . S
C1354 C1353 1.387 . S
C1354 C1357 1.387 . S
H1355 C1351 0.950 . S
H1356 C1353 0.950 . S
C1357 C1348 1.390 1_455 S
C1357 H1350 0.950 . S
C1357 C1354 1.387 . S
C1358 C1359 1.387 . S
C1358 H1362 0.950 . S
C1358 C1367 1.390 . S
C1359 C1358 1.387 . S
C1359 C1361 1.387 . S
H1360 C1367 0.950 . S
C1361 C1359 1.387 . S
C1361 C1363 1.390 . S
C1361 H1365 0.950 . S
H1362 C1358 0.950 . S
C1363 C1361 1.390 . S
C1363 C1364 1.387 . S
C1363 H1366 0.950 . S
C1364 C1363 1.387 . S
C1364 C1367 1.387 . S
H1365 C1361 0.950 . S
H1366 C1363 0.950 . S
C1367 C1358 1.390 . S
C1367 H1360 0.950 . S
C1367 C1364 1.387 . S
C1368 C1369 1.387 . S
C1368 H1372 0.950 . S
C1368 C1377 1.390 1_465 S
C1369 C1368 1.387 . S
C1369 C1371 1.387 . S
H1370 C1377 0.950 . S
C1371 C1369 1.387 . S
C1371 C1373 1.390 1_465 S
C1371 H1375 0.950 . S
H1372 C1368 0.950 . S
C1373 C1371 1.390 1_645 S
C1373 C1374 1.387 . S
C1373 H1376 0.950 . S
C1374 C1373 1.387 . S
C1374 C1377 1.387 . S
H1375 C1371 0.950 . S
H1376 C1373 0.950 . S
C1377 C1368 1.390 1_645 S
C1377 H1370 0.950 . S
C1377 C1374 1.387 . S
C1378 C1379 1.387 . S
C1378 H1382 0.950 . S
C1378 C1387 1.390 . S
C1379 C1378 1.387 . S
C1379 C1381 1.387 . S
H1380 C1387 0.950 . S
C1381 C1379 1.387 . S
C1381 C1383 1.390 . S
C1381 H1385 0.950 . S
H1382 C1378 0.950 . S
C1383 C1381 1.390 . S
C1383 C1384 1.387 . S
C1383 H1386 0.950 . S
C1384 C1383 1.387 . S
C1384 C1387 1.387 . S
H1385 C1381 0.950 . S
H1386 C1383 0.950 . S
C1387 C1378 1.390 . S
C1387 H1380 0.950 . S
C1387 C1384 1.387 . S
C1388 C1389 1.387 . S
C1388 H1392 0.950 . S
C1388 C1397 1.390 1_455 S
C1389 C1388 1.387 . S
C1389 C1391 1.387 . S
H1390 C1397 0.950 . S
C1391 C1389 1.387 . S
C1391 C1393 1.390 1_455 S
C1391 H1395 0.950 . S
H1392 C1388 0.950 . S
C1393 C1391 1.390 1_655 S
C1393 C1394 1.387 . S
C1393 H1396 0.950 . S
C1394 C1393 1.387 . S
C1394 C1397 1.387 . S
H1395 C1391 0.950 . S
H1396 C1393 0.950 . S
C1397 C1388 1.390 1_655 S
C1397 H1390 0.950 . S
C1397 C1394 1.387 . S
C1398 C1399 1.387 . S
C1398 H1402 0.950 . S
C1398 C1407 1.390 . S
C1399 C1398 1.387 . S
C1399 C1401 1.387 . S
H1400 C1407 0.950 . S
C1401 C1399 1.387 . S
C1401 C1403 1.390 . S
C1401 H1405 0.950 . S
H1402 C1398 0.950 . S
C1403 C1401 1.390 . S
C1403 C1404 1.387 . S
C1403 H1406 0.950 . S
C1404 C1403 1.387 . S
C1404 C1407 1.387 . S
H1405 C1401 0.950 . S
H1406 C1403 0.950 . S
C1407 C1398 1.390 . S
C1407 H1400 0.950 . S
C1407 C1404 1.387 . S
C1408 C1409 1.387 . S
C1408 H1412 0.950 . S
C1408 C1417 1.390 1_566 S
C1409 C1408 1.387 . S
C1409 C1411 1.387 . S
H1410 C1417 0.950 . S
C1411 C1409 1.387 . S
C1411 C1413 1.390 1_566 S
C1411 H1415 0.950 . S
H1412 C1408 0.950 . S
C1413 C1411 1.390 1_544 S
C1413 C1414 1.387 . S
C1413 H1416 0.950 . S
C1414 C1413 1.387 . S
C1414 C1417 1.387 . S
H1415 C1411 0.950 . S
H1416 C1413 0.950 . S
C1417 C1408 1.390 1_544 S
C1417 H1410 0.950 . S
C1417 C1414 1.387 . S
C1418 C1419 1.387 . S
C1418 H1422 0.950 . S
C1418 C1427 1.390 1_545 S
C1419 C1418 1.387 . S
C1419 C1421 1.387 . S
H1420 C1427 0.950 . S
C1421 C1419 1.387 . S
C1421 C1423 1.390 1_545 S
C1421 H1425 0.950 . S
H1422 C1418 0.950 . S
C1423 C1421 1.390 1_565 S
C1423 C1424 1.387 . S
C1423 H1426 0.950 . S
C1424 C1423 1.387 . S
C1424 C1427 1.387 . S
H1425 C1421 0.950 . S
H1426 C1423 0.950 . S
C1427 C1418 1.390 1_565 S
C1427 H1420 0.950 . S
C1427 C1424 1.387 . S
C1428 C1429 1.387 . S
C1428 H1432 0.950 . S
C1428 C1437 1.390 . S
C1429 C1428 1.387 . S
C1429 C1431 1.387 . S
H1430 C1437 0.950 . S
C1431 C1429 1.387 . S
C1431 C1433 1.390 . S
C1431 H1435 0.950 . S
H1432 C1428 0.950 . S
C1433 C1431 1.390 . S
C1433 C1434 1.387 . S
C1433 H1436 0.950 . S
C1434 C1433 1.387 . S
C1434 C1437 1.387 . S
H1435 C1431 0.950 . S
H1436 C1433 0.950 . S
C1437 C1428 1.390 . S
C1437 H1430 0.950 . S
C1437 C1434 1.387 . S
C1438 C1439 1.387 . S
C1438 H1442 0.950 . S
C1438 C1447 1.390 1_554 S
C1439 C1438 1.387 . S
C1439 C1441 1.387 . S
H1440 C1447 0.950 . S
C1441 C1439 1.387 . S
C1441 C1443 1.390 1_554 S
C1441 H1445 0.950 . S
H1442 C1438 0.950 . S
C1443 C1441 1.390 1_556 S
C1443 C1444 1.387 . S
C1443 H1446 0.950 . S
C1444 C1443 1.387 . S
C1444 C1447 1.387 . S
H1445 C1441 0.950 . S
H1446 C1443 0.950 . S
C1447 C1438 1.390 1_556 S
C1447 H1440 0.950 . S
C1447 C1444 1.387 . S
C1448 C1449 1.387 . S
C1448 H1452 0.950 . S
C1448 C1457 1.390 . S
C1449 C1448 1.387 . S
C1449 C1451 1.387 . S
H1450 C1457 0.950 . S
C1451 C1449 1.387 . S
C1451 C1453 1.390 . S
C1451 H1455 0.950 . S
H1452 C1448 0.950 . S
C1453 C1451 1.390 . S
C1453 C1454 1.387 . S
C1453 H1456 0.950 . S
C1454 C1453 1.387 . S
C1454 C1457 1.387 . S
H1455 C1451 0.950 . S
H1456 C1453 0.950 . S
C1457 C1448 1.390 . S
C1457 H1450 0.950 . S
C1457 C1454 1.387 . S
C1458 C1459 1.387 . S
C1458 H1462 0.950 . S
C1458 C1467 1.390 1_564 S
C1459 C1458 1.387 . S
C1459 C1461 1.387 . S
H1460 C1467 0.950 . S
C1461 C1459 1.387 . S
C1461 C1463 1.390 1_564 S
C1461 H1465 0.950 . S
H1462 C1458 0.950 . S
C1463 C1461 1.390 1_546 S
C1463 C1464 1.387 . S
C1463 H1466 0.950 . S
C1464 C1463 1.387 . S
C1464 C1467 1.387 . S
H1465 C1461 0.950 . S
H1466 C1463 0.950 . S
C1467 C1458 1.390 1_546 S
C1467 H1460 0.950 . S
C1467 C1464 1.387 . S
C1468 C1469 1.387 . S
C1468 H1472 0.950 . S
C1468 C1477 1.390 . S
C1469 C1468 1.387 . S
C1469 C1471 1.387 . S
H1470 C1477 0.950 . S
C1471 C1469 1.387 . S
C1471 C1473 1.390 . S
C1471 H1475 0.950 . S
H1472 C1468 0.950 . S
C1473 C1471 1.390 . S
C1473 C1474 1.387 . S
C1473 H1476 0.950 . S
C1474 C1473 1.387 . S
C1474 C1477 1.387 . S
H1475 C1471 0.950 . S
H1476 C1473 0.950 . S
C1477 C1468 1.390 . S
C1477 H1470 0.950 . S
C1477 C1474 1.387 . S
C1478 C1479 1.387 . S
C1478 H1482 0.950 . S
C1478 C1487 1.390 . S
C1479 C1478 1.387 . S
C1479 C1481 1.387 . S
H1480 C1487 0.950 . S
C1481 C1479 1.387 . S
C1481 C1483 1.390 . S
C1481 H1485 0.950 . S
H1482 C1478 0.950 . S
C1483 C1481 1.390 . S
C1483 C1484 1.387 . S
C1483 H1486 0.950 . S
C1484 C1483 1.387 . S
C1484 C1487 1.387 . S
H1485 C1481 0.950 . S
H1486 C1483 0.950 . S
C1487 C1478 1.390 . S
C1487 H1480 0.950 . S
C1487 C1484 1.387 . S
C1488 C1489 1.387 . S
C1488 H1492 0.950 . S
C1488 C1497 1.390 . S
C1489 C1488 1.387 . S
C1489 C1491 1.387 . S
H1490 C1497 0.950 . S
C1491 C1489 1.387 . S
C1491 C1493 1.390 . S
C1491 H1495 0.950 . S
H1492 C1488 0.950 . S
C1493 C1491 1.390 . S
C1493 C1494 1.387 . S
C1493 H1496 0.950 . S
C1494 C1493 1.387 . S
C1494 C1497 1.387 . S
H1495 C1491 0.950 . S
H1496 C1493 0.950 . S
C1497 C1488 1.390 . S
C1497 H1490 0.950 . S
C1497 C1494 1.387 . S
C1498 C1499 1.387 . S
C1498 H1502 0.950 . S
C1498 C1507 1.390 . S
C1499 C1498 1.387 . S
C1499 C1501 1.387 . S
H1500 C1507 0.950 . S
C1501 C1499 1.387 . S
C1501 C1503 1.390 . S
C1501 H1505 0.950 . S
H1502 C1498 0.950 . S
C1503 C1501 1.390 . S
C1503 C1504 1.387 . S
C1503 H1506 0.950 . S
C1504 C1503 1.387 . S
C1504 C1507 1.387 . S
H1505 C1501 0.950 . S
H1506 C1503 0.950 . S
C1507 C1498 1.390 . S
C1507 H1500 0.950 . S
C1507 C1504 1.387 . S
C1508 C1509 1.387 . S
C1508 H1512 0.950 . S
C1508 C1517 1.390 . S
C1509 C1508 1.387 . S
C1509 C1511 1.387 . S
H1510 C1517 0.950 . S
C1511 C1509 1.387 . S
C1511 C1513 1.390 . S
C1511 H1515 0.950 . S
H1512 C1508 0.950 . S
C1513 C1511 1.390 . S
C1513 C1514 1.387 . S
C1513 H1516 0.950 . S
C1514 C1513 1.387 . S
C1514 C1517 1.387 . S
H1515 C1511 0.950 . S
H1516 C1513 0.950 . S
C1517 C1508 1.390 . S
C1517 H1510 0.950 . S
C1517 C1514 1.387 . S
C1518 C1519 1.387 . S
C1518 H1522 0.950 . S
C1518 C1527 1.390 . S
C1519 C1518 1.387 . S
C1519 C1521 1.387 . S
H1520 C1527 0.950 . S
C1521 C1519 1.387 . S
C1521 C1523 1.390 . S
C1521 H1525 0.950 . S
H1522 C1518 0.950 . S
C1523 C1521 1.390 . S
C1523 C1524 1.387 . S
C1523 H1526 0.950 . S
C1524 C1523 1.387 . S
C1524 C1527 1.387 . S
H1525 C1521 0.950 . S
H1526 C1523 0.950 . S
C1527 C1518 1.390 . S
C1527 H1520 0.950 . S
C1527 C1524 1.387 . S
C1528 C1529 1.387 . S
C1528 H1532 0.950 . S
C1528 C1537 1.390 . S
C1529 C1528 1.387 . S
C1529 C1531 1.387 . S
H1530 C1537 0.950 . S
C1531 C1529 1.387 . S
C1531 C1533 1.390 . S
C1531 H1535 0.950 . S
H1532 C1528 0.950 . S
C1533 C1531 1.390 . S
C1533 C1534 1.387 . S
C1533 H1536 0.950 . S
C1534 C1533 1.387 . S
C1534 C1537 1.387 . S
H1535 C1531 0.950 . S
H1536 C1533 0.950 . S
C1537 C1528 1.390 . S
C1537 H1530 0.950 . S
C1537 C1534 1.387 . S
C1538 C1539 1.387 . S
C1538 H1542 0.950 . S
C1538 C1547 1.390 . S
C1539 C1538 1.387 . S
C1539 C1541 1.387 . S
H1540 C1547 0.950 . S
C1541 C1539 1.387 . S
C1541 C1543 1.390 . S
C1541 H1545 0.950 . S
H1542 C1538 0.950 . S
C1543 C1541 1.390 . S
C1543 C1544 1.387 . S
C1543 H1546 0.950 . S
C1544 C1543 1.387 . S
C1544 C1547 1.387 . S
H1545 C1541 0.950 . S
H1546 C1543 0.950 . S
C1547 C1538 1.390 . S
C1547 H1540 0.950 . S
C1547 C1544 1.387 . S
C1548 C1549 1.387 . S
C1548 H1552 0.950 . S
C1548 C1557 1.390 . S
C1549 C1548 1.387 . S
C1549 C1551 1.387 . S
H1550 C1557 0.950 . S
C1551 C1549 1.387 . S
C1551 C1553 1.390 . S
C1551 H1555 0.950 . S
H1552 C1548 0.950 . S
C1553 C1551 1.390 . S
C1553 C1554 1.387 . S
C1553 H1556 0.950 . S
C1554 C1553 1.387 . S
C1554 C1557 1.387 . S
H1555 C1551 0.950 . S
H1556 C1553 0.950 . S
C1557 C1548 1.390 . S
C1557 H1550 0.950 . S
C1557 C1554 1.387 . S
C1558 C1559 1.387 . S
C1558 H1562 0.950 . S
C1558 C1567 1.390 . S
C1559 C1558 1.387 . S
C1559 C1561 1.387 . S
H1560 C1567 0.950 . S
C1561 C1559 1.387 . S
C1561 C1563 1.390 . S
C1561 H1565 0.950 . S
H1562 C1558 0.950 . S
C1563 C1561 1.390 . S
C1563 C1564 1.387 . S
C1563 H1566 0.950 . S
C1564 C1563 1.387 . S
C1564 C1567 1.387 . S
H1565 C1561 0.950 . S
H1566 C1563 0.950 . S
C1567 C1558 1.390 . S
C1567 H1560 0.950 . S
C1567 C1564 1.387 . S
C1568 C1569 1.387 . S
C1568 H1572 0.950 . S
C1568 C1577 1.390 . S
C1569 C1568 1.387 . S
C1569 C1571 1.387 . S
H1570 C1577 0.950 . S
C1571 C1569 1.387 . S
C1571 C1573 1.390 . S
C1571 H1575 0.950 . S
H1572 C1568 0.950 . S
C1573 C1571 1.390 . S
C1573 C1574 1.387 . S
C1573 H1576 0.950 . S
C1574 C1573 1.387 . S
C1574 C1577 1.387 . S
H1575 C1571 0.950 . S
H1576 C1573 0.950 . S
C1577 C1568 1.390 . S
C1577 H1570 0.950 . S
C1577 C1574 1.387 . S
C1578 C1579 1.387 . S
C1578 H1582 0.950 . S
C1578 C1587 1.390 1_556 S
C1579 C1578 1.387 . S
C1579 C1581 1.387 . S
H1580 C1587 0.950 . S
C1581 C1579 1.387 . S
C1581 C1583 1.390 1_556 S
C1581 H1585 0.950 . S
H1582 C1578 0.950 . S
C1583 C1581 1.390 1_554 S
C1583 C1584 1.387 . S
C1583 H1586 0.950 . S
C1584 C1583 1.387 . S
C1584 C1587 1.387 . S
H1585 C1581 0.950 . S
H1586 C1583 0.950 . S
C1587 C1578 1.390 1_554 S
C1587 H1580 0.950 . S
C1587 C1584 1.387 . S
C1588 C1589 1.387 . S
C1588 H1592 0.950 . S
C1588 C1597 1.390 . S
C1589 C1588 1.387 . S
C1589 C1591 1.387 . S
H1590 C1597 0.950 . S
C1591 C1589 1.387 . S
C1591 C1593 1.390 . S
C1591 H1595 0.950 . S
H1592 C1588 0.950 . S
C1593 C1591 1.390 . S
C1593 C1594 1.387 . S
C1593 H1596 0.950 . S
C1594 C1593 1.387 . S
C1594 C1597 1.387 . S
H1595 C1591 0.950 . S
H1596 C1593 0.950 . S
C1597 C1588 1.390 . S
C1597 H1590 0.950 . S
C1597 C1594 1.387 . S
C1598 C1599 1.387 . S
C1598 H1602 0.950 . S
C1598 C1607 1.390 1_565 S
C1599 C1598 1.387 . S
C1599 C1601 1.387 . S
H1600 C1607 0.950 . S
C1601 C1599 1.387 . S
C1601 C1603 1.390 1_565 S
C1601 H1605 0.950 . S
H1602 C1598 0.950 . S
C1603 C1601 1.390 1_545 S
C1603 C1604 1.387 . S
C1603 H1606 0.950 . S
C1604 C1603 1.387 . S
C1604 C1607 1.387 . S
H1605 C1601 0.950 . S
H1606 C1603 0.950 . S
C1607 C1598 1.390 1_545 S
C1607 H1600 0.950 . S
C1607 C1604 1.387 . S
C1608 C1609 1.387 . S
C1608 H1612 0.950 . S
C1608 C1617 1.390 . S
C1609 C1608 1.387 . S
C1609 C1611 1.387 . S
H1610 C1617 0.950 . S
C1611 C1609 1.387 . S
C1611 C1613 1.390 . S
C1611 H1615 0.950 . S
H1612 C1608 0.950 . S
C1613 C1611 1.390 . S
C1613 C1614 1.387 . S
C1613 H1616 0.950 . S
C1614 C1613 1.387 . S
C1614 C1617 1.387 . S
H1615 C1611 0.950 . S
H1616 C1613 0.950 . S
C1617 C1608 1.390 . S
C1617 H1610 0.950 . S
C1617 C1614 1.387 . S
C1618 C1619 1.387 . S
C1618 H1622 0.950 . S
C1618 C1627 1.390 . S
C1619 C1618 1.387 . S
C1619 C1621 1.387 . S
H1620 C1627 0.950 . S
C1621 C1619 1.387 . S
C1621 C1623 1.390 . S
C1621 H1625 0.950 . S
H1622 C1618 0.950 . S
C1623 C1621 1.390 . S
C1623 C1624 1.387 . S
C1623 H1626 0.950 . S
C1624 C1623 1.387 . S
C1624 C1627 1.387 . S
H1625 C1621 0.950 . S
H1626 C1623 0.950 . S
C1627 C1618 1.390 . S
C1627 H1620 0.950 . S
C1627 C1624 1.387 . S
C1628 C1629 1.387 . S
C1628 H1632 0.950 . S
C1628 C1637 1.390 . S
C1629 C1628 1.387 . S
C1629 C1631 1.387 . S
H1630 C1637 0.950 . S
C1631 C1629 1.387 . S
C1631 C1633 1.390 . S
C1631 H1635 0.950 . S
H1632 C1628 0.950 . S
C1633 C1631 1.390 . S
C1633 C1634 1.387 . S
C1633 H1636 0.950 . S
C1634 C1633 1.387 . S
C1634 C1637 1.387 . S
H1635 C1631 0.950 . S
H1636 C1633 0.950 . S
C1637 C1628 1.390 . S
C1637 H1630 0.950 . S
C1637 C1634 1.387 . S
C1638 C1639 1.387 . S
C1638 H1642 0.950 . S
C1638 C1647 1.390 1_556 S
C1639 C1638 1.387 . S
C1639 C1641 1.387 . S
H1640 C1647 0.950 . S
C1641 C1639 1.387 . S
C1641 C1643 1.390 1_556 S
C1641 H1645 0.950 . S
H1642 C1638 0.950 . S
C1643 C1641 1.390 1_554 S
C1643 C1644 1.387 . S
C1643 H1646 0.950 . S
C1644 C1643 1.387 . S
C1644 C1647 1.387 . S
H1645 C1641 0.950 . S
H1646 C1643 0.950 . S
C1647 C1638 1.390 1_554 S
C1647 H1640 0.950 . S
C1647 C1644 1.387 . S
C1648 C1649 1.387 . S
C1648 H1652 0.950 . S
C1648 C1657 1.390 . S
C1649 C1648 1.387 . S
C1649 C1651 1.387 . S
H1650 C1657 0.950 . S
C1651 C1649 1.387 . S
C1651 C1653 1.390 . S
C1651 H1655 0.950 . S
H1652 C1648 0.950 . S
C1653 C1651 1.390 . S
C1653 C1654 1.387 . S
C1653 H1656 0.950 . S
C1654 C1653 1.387 . S
C1654 C1657 1.387 . S
H1655 C1651 0.950 . S
H1656 C1653 0.950 . S
C1657 C1648 1.390 . S
C1657 H1650 0.950 . S
C1657 C1654 1.387 . S
C1658 C1659 1.387 . S
C1658 H1662 0.950 . S
C1658 C1667 1.390 1_556 S
C1659 C1658 1.387 . S
C1659 C1661 1.387 . S
H1660 C1667 0.950 . S
C1661 C1659 1.387 . S
C1661 C1663 1.390 1_556 S
C1661 H1665 0.950 . S
H1662 C1658 0.950 . S
C1663 C1661 1.390 1_554 S
C1663 C1664 1.387 . S
C1663 H1666 0.950 . S
C1664 C1663 1.387 . S
C1664 C1667 1.387 . S
H1665 C1661 0.950 . S
H1666 C1663 0.950 . S
C1667 C1658 1.390 1_554 S
C1667 H1660 0.950 . S
C1667 C1664 1.387 . S
C1668 C1669 1.387 . S
C1668 H1672 0.950 . S
C1668 C1677 1.390 1_565 S
C1669 C1668 1.387 . S
C1669 C1671 1.387 . S
H1670 C1677 0.950 . S
C1671 C1669 1.387 . S
C1671 C1673 1.390 1_565 S
C1671 H1675 0.950 . S
H1672 C1668 0.950 . S
C1673 C1671 1.390 1_545 S
C1673 C1674 1.387 . S
C1673 H1676 0.950 . S
C1674 C1673 1.387 . S
C1674 C1677 1.387 . S
H1675 C1671 0.950 . S
H1676 C1673 0.950 . S
C1677 C1668 1.390 1_545 S
C1677 H1670 0.950 . S
C1677 C1674 1.387 . S
C1678 C1679 1.387 . S
C1678 H1682 0.950 . S
C1678 C1687 1.390 . S
C1679 C1678 1.387 . S
C1679 C1681 1.387 . S
H1680 C1687 0.950 . S
C1681 C1679 1.387 . S
C1681 C1683 1.390 . S
C1681 H1685 0.950 . S
H1682 C1678 0.950 . S
C1683 C1681 1.390 . S
C1683 C1684 1.387 . S
C1683 H1686 0.950 . S
C1684 C1683 1.387 . S
C1684 C1687 1.387 . S
H1685 C1681 0.950 . S
H1686 C1683 0.950 . S
C1687 C1678 1.390 . S
C1687 H1680 0.950 . S
C1687 C1684 1.387 . S
C1688 C1689 1.387 . S
C1688 H1692 0.950 . S
C1688 C1697 1.390 1_565 S
C1689 C1688 1.387 . S
C1689 C1691 1.387 . S
H1690 C1697 0.950 . S
C1691 C1689 1.387 . S
C1691 C1693 1.390 1_565 S
C1691 H1695 0.950 . S
H1692 C1688 0.950 . S
C1693 C1691 1.390 1_545 S
C1693 C1694 1.387 . S
C1693 H1696 0.950 . S
C1694 C1693 1.387 . S
C1694 C1697 1.387 . S
H1695 C1691 0.950 . S
H1696 C1693 0.950 . S
C1697 C1688 1.390 1_545 S
C1697 H1690 0.950 . S
C1697 C1694 1.387 . S
C1698 C1699 1.387 . S
C1698 H1702 0.950 . S
C1698 C1707 1.390 . S
C1699 C1698 1.387 . S
C1699 C1701 1.387 . S
H1700 C1707 0.950 . S
C1701 C1699 1.387 . S
C1701 C1703 1.390 . S
C1701 H1705 0.950 . S
H1702 C1698 0.950 . S
C1703 C1701 1.390 . S
C1703 C1704 1.387 . S
C1703 H1706 0.950 . S
C1704 C1703 1.387 . S
C1704 C1707 1.387 . S
H1705 C1701 0.950 . S
H1706 C1703 0.950 . S
C1707 C1698 1.390 . S
C1707 H1700 0.950 . S
C1707 C1704 1.387 . S
C1708 C1709 1.387 . S
C1708 H1712 0.950 . S
C1708 C1717 1.390 . S
C1709 C1708 1.387 . S
C1709 C1711 1.387 . S
H1710 C1717 0.950 . S
C1711 C1709 1.387 . S
C1711 C1713 1.390 . S
C1711 H1715 0.950 . S
H1712 C1708 0.950 . S
C1713 C1711 1.390 . S
C1713 C1714 1.387 . S
C1713 H1716 0.950 . S
C1714 C1713 1.387 . S
C1714 C1717 1.387 . S
H1715 C1711 0.950 . S
H1716 C1713 0.950 . S
C1717 C1708 1.390 . S
C1717 H1710 0.950 . S
C1717 C1714 1.387 . S
C1718 C1719 1.387 . S
C1718 H1722 0.950 . S
C1718 C1727 1.390 . S
C1719 C1718 1.387 . S
C1719 C1721 1.387 . S
H1720 C1727 0.950 . S
C1721 C1719 1.387 . S
C1721 C1723 1.390 . S
C1721 H1725 0.950 . S
H1722 C1718 0.950 . S
C1723 C1721 1.390 . S
C1723 C1724 1.387 . S
C1723 H1726 0.950 . S
C1724 C1723 1.387 . S
C1724 C1727 1.387 . S
H1725 C1721 0.950 . S
H1726 C1723 0.950 . S
C1727 C1718 1.390 . S
C1727 H1720 0.950 . S
C1727 C1724 1.387 . S
C1728 C1729 1.387 . S
C1728 H1732 0.950 . S
C1728 C1737 1.390 . S
C1729 C1728 1.387 . S
C1729 C1731 1.387 . S
H1730 C1737 0.950 . S
C1731 C1729 1.387 . S
C1731 C1733 1.373 1_455 S
C1731 H1735 0.950 . S
H1732 C1728 0.950 . S
C1733 C1731 1.373 1_655 S
C1733 C1734 1.394 . S
C1733 H1736 0.962 . S
C1734 C1733 1.394 . S
C1734 C1737 1.387 1_655 S
H1735 C1731 0.950 . S
H1736 C1733 0.962 . S
C1737 C1728 1.390 . S
C1737 H1730 0.950 . S
C1737 C1734 1.387 1_455 S
C1738 C1739 1.387 . S
C1738 H1742 0.950 . S
C1738 C1747 1.390 1_655 S
C1739 C1738 1.387 . S
C1739 C1741 1.387 1_655 S
H1740 C1747 0.950 . S
C1741 C1739 1.387 1_455 S
C1741 C1743 1.390 . S
C1741 H1745 0.950 . S
H1742 C1738 0.950 . S
C1743 C1741 1.390 . S
C1743 C1744 1.387 . S
C1743 H1746 0.950 . S
C1744 C1743 1.387 . S
C1744 C1747 1.387 . S
H1745 C1741 0.950 . S
H1746 C1743 0.950 . S
C1747 C1738 1.390 1_455 S
C1747 H1740 0.950 . S
C1747 C1744 1.387 . S
C1748 C1749 1.387 . S
C1748 H1752 0.950 . S
C1748 C1757 1.390 1_655 S
C1749 C1748 1.387 . S
C1749 C1751 1.387 . S
H1750 C1757 0.950 . S
C1751 C1749 1.387 . S
C1751 C1753 1.390 . S
C1751 H1755 0.950 . S
H1752 C1748 0.950 . S
C1753 C1751 1.390 . S
C1753 C1754 1.387 1_655 S
C1753 H1756 0.950 . S
C1754 C1753 1.387 1_455 S
C1754 C1757 1.387 . S
H1755 C1751 0.950 . S
H1756 C1753 0.950 . S
C1757 C1748 1.390 1_455 S
C1757 H1750 0.950 . S
C1757 C1754 1.387 . S
C1758 C1759 1.387 . S
C1758 H1762 0.950 . S
C1758 C1767 1.390 . S
C1759 C1758 1.387 . S
C1759 C1761 1.387 . S
H1760 C1767 0.950 . S
C1761 C1759 1.387 . S
C1761 C1763 1.390 1_655 S
C1761 H1765 0.950 . S
H1762 C1758 0.950 . S
C1763 C1761 1.390 1_455 S
C1763 C1764 1.387 . S
C1763 H1766 0.950 . S
C1764 C1763 1.387 . S
C1764 C1767 1.387 1_455 S
H1765 C1761 0.950 . S
H1766 C1763 0.950 . S
C1767 C1758 1.390 . S
C1767 H1760 0.950 . S
C1767 C1764 1.387 1_655 S
C1768 C1769 1.387 . S
C1768 H1772 0.950 . S
C1768 C1777 1.390 1_455 S
C1769 C1768 1.387 . S
C1769 C1771 1.387 . S
H1770 C1777 0.950 . S
C1771 C1769 1.387 . S
C1771 C1773 1.390 . S
C1771 H1775 0.950 . S
H1772 C1768 0.950 . S
C1773 C1771 1.390 . S
C1773 C1774 1.387 1_455 S
C1773 H1776 0.950 . S
C1774 C1773 1.387 1_655 S
C1774 C1777 1.387 . S
H1775 C1771 0.950 . S
H1776 C1773 0.950 . S
C1777 C1768 1.390 1_655 S
C1777 H1770 0.950 . S
C1777 C1774 1.387 . S
C1778 C1779 1.387 . S
C1778 H1782 0.950 . S
C1778 C1787 1.390 . S
C1779 C1778 1.387 . S
C1779 C1781 1.387 . S
H1780 C1787 0.950 . S
C1781 C1779 1.387 . S
C1781 C1783 1.390 . S
C1781 H1785 0.950 . S
H1782 C1778 0.950 . S
C1783 C1781 1.390 . S
C1783 C1784 1.387 . S
C1783 H1786 0.950 . S
C1784 C1783 1.387 . S
C1784 C1787 1.387 . S
H1785 C1781 0.950 . S
H1786 C1783 0.950 . S
C1787 C1778 1.390 . S
C1787 H1780 0.950 . S
C1787 C1784 1.387 . S
C1788 C1789 1.387 . S
C1788 H1792 0.950 . S
C1788 C1797 1.419 . S
C1789 C1788 1.387 . S
C1789 C1791 1.387 . S
H1790 C1797 0.935 1_455 S
C1791 C1789 1.387 . S
C1791 C1793 1.390 . S
C1791 H1795 0.950 . S
H1792 C1788 0.950 . S
C1793 C1791 1.390 . S
C1793 C1794 1.387 1_655 S
C1793 H1796 0.950 1_655 S
C1794 C1793 1.387 1_455 S
C1794 C1797 1.375 1_455 S
H1795 C1791 0.950 . S
H1796 C1793 0.950 1_455 S
C1797 C1788 1.419 . S
C1797 H1790 0.935 1_655 S
C1797 C1794 1.375 1_655 S
C1798 C1799 1.387 . S
C1798 H1802 0.950 . S
C1798 C1807 1.390 . S
C1799 C1798 1.387 . S
C1799 C1801 1.387 . S
H1800 C1807 0.950 . S
C1801 C1799 1.387 . S
C1801 C1803 1.390 . S
C1801 H1805 0.950 . S
H1802 C1798 0.950 . S
C1803 C1801 1.390 . S
C1803 C1804 1.387 . S
C1803 H1806 0.950 . S
C1804 C1803 1.387 . S
C1804 C1807 1.387 . S
H1805 C1801 0.950 . S
H1806 C1803 0.950 . S
C1807 C1798 1.390 . S
C1807 H1800 0.950 . S
C1807 C1804 1.387 . S
C1808 C1809 1.352 1_565 S
C1808 H1812 0.965 . S
C1808 C1817 1.412 . S
C1809 C1808 1.352 1_545 S
C1809 C1811 1.387 . S
H1810 C1817 0.950 . S
C1811 C1809 1.387 . S
C1811 C1813 1.390 . S
C1811 H1815 0.950 . S
H1812 C1808 0.965 . S
C1813 C1811 1.390 . S
C1813 C1814 1.387 1_545 S
C1813 H1816 0.950 . S
C1814 C1813 1.387 1_565 S
C1814 C1817 1.387 . S
H1815 C1811 0.950 . S
H1816 C1813 0.950 . S
C1817 C1808 1.412 . S
C1817 H1810 0.950 . S
C1817 C1814 1.387 . S
C1818 C1819 1.387 . S
C1818 H1822 0.950 . S
C1818 C1827 1.390 . S
C1819 C1818 1.387 . S
C1819 C1821 1.387 . S
H1820 C1827 0.950 . S
C1821 C1819 1.387 . S
C1821 C1823 1.390 . S
C1821 H1825 0.950 . S
H1822 C1818 0.950 . S
C1823 C1821 1.390 . S
C1823 C1824 1.387 . S
C1823 H1826 0.950 . S
C1824 C1823 1.387 . S
C1824 C1827 1.387 . S
H1825 C1821 0.950 . S
H1826 C1823 0.950 . S
C1827 C1818 1.390 . S
C1827 H1820 0.950 . S
C1827 C1824 1.387 . S
C1828 C1829 1.387 . S
C1828 H1832 0.950 . S
C1828 C1837 1.390 . S
C1829 C1828 1.387 . S
C1829 C1831 1.387 . S
H1830 C1837 0.950 . S
C1831 C1829 1.387 . S
C1831 C1833 1.390 . S
C1831 H1835 0.950 . S
H1832 C1828 0.950 . S
C1833 C1831 1.390 . S
C1833 C1834 1.387 . S
C1833 H1836 0.950 . S
C1834 C1833 1.387 . S
C1834 C1837 1.387 . S
H1835 C1831 0.950 . S
H1836 C1833 0.950 . S
C1837 C1828 1.390 . S
C1837 H1830 0.950 . S
C1837 C1834 1.387 . S
C1838 C1839 1.387 . S
C1838 H1842 0.950 . S
C1838 C1847 1.390 1_554 S
C1839 C1838 1.387 . S
C1839 C1841 1.387 1_554 S
H1840 C1847 0.950 1_554 S
C1841 C1839 1.387 1_556 S
C1841 C1843 1.390 . S
C1841 H1845 0.950 . S
H1842 C1838 0.950 . S
C1843 C1841 1.390 . S
C1843 C1844 1.387 . S
C1843 H1846 0.950 . S
C1844 C1843 1.387 . S
C1844 C1847 1.387 . S
H1845 C1841 0.950 . S
H1846 C1843 0.950 . S
C1847 C1838 1.390 1_556 S
C1847 H1840 0.950 1_556 S
C1847 C1844 1.387 . S
C1848 C1849 1.387 1_565 S
C1848 H1852 0.950 . S
C1848 C1857 1.390 . S
C1849 C1848 1.387 1_545 S
C1849 C1851 1.387 . S
H1850 C1857 0.950 . S
C1851 C1849 1.387 . S
C1851 C1853 1.390 . S
C1851 H1855 0.950 . S
H1852 C1848 0.950 . S
C1853 C1851 1.390 . S
C1853 C1854 1.387 1_545 S
C1853 H1856 0.950 . S
C1854 C1853 1.387 1_565 S
C1854 C1857 1.387 . S
H1855 C1851 0.950 . S
H1856 C1853 0.950 . S
C1857 C1848 1.390 . S
C1857 H1850 0.950 . S
C1857 C1854 1.387 . S
C1858 C1859 1.387 . S
C1858 H1862 0.950 . S
C1858 C1867 1.390 . S
C1859 C1858 1.387 . S
C1859 C1861 1.387 . S
H1860 C1867 0.950 . S
C1861 C1859 1.387 . S
C1861 C1863 1.390 1_554 S
C1861 H1865 0.950 . S
H1862 C1858 0.950 . S
C1863 C1861 1.390 1_556 S
C1863 C1864 1.387 . S
C1863 H1866 0.950 . S
C1864 C1863 1.387 . S
C1864 C1867 1.387 1_556 S
H1865 C1861 0.950 . S
H1866 C1863 0.950 . S
C1867 C1858 1.390 . S
C1867 H1860 0.950 . S
C1867 C1864 1.387 1_554 S
C1868 C1869 1.387 . S
C1868 H1872 0.950 . S
C1868 C1877 1.390 . S
C1869 C1868 1.387 . S
C1869 C1871 1.387 . S
H1870 C1877 0.950 . S
C1871 C1869 1.387 . S
C1871 C1873 1.390 . S
C1871 H1875 0.950 . S
H1872 C1868 0.950 . S
C1873 C1871 1.390 . S
C1873 C1874 1.387 . S
C1873 H1876 0.950 . S
C1874 C1873 1.387 . S
C1874 C1877 1.387 . S
H1875 C1871 0.950 . S
H1876 C1873 0.950 . S
C1877 C1868 1.390 . S
C1877 H1870 0.950 . S
C1877 C1874 1.387 . S
C1878 C1879 1.387 . S
C1878 H1882 0.950 . S
C1878 C1887 1.390 . S
C1879 C1878 1.387 . S
C1879 C1881 1.387 . S
H1880 C1887 0.950 . S
C1881 C1879 1.387 . S
C1881 C1883 1.390 . S
C1881 H1885 0.950 . S
H1882 C1878 0.950 . S
C1883 C1881 1.390 . S
C1883 C1884 1.387 . S
C1883 H1886 0.950 . S
C1884 C1883 1.387 . S
C1884 C1887 1.387 . S
H1885 C1881 0.950 . S
H1886 C1883 0.950 . S
C1887 C1878 1.390 . S
C1887 H1880 0.950 . S
C1887 C1884 1.387 . S
C1888 C1889 1.387 1_554 S
C1888 H1892 0.950 . S
C1888 C1897 1.390 . S
C1889 C1888 1.387 1_556 S
C1889 C1891 1.387 . S
H1890 C1897 0.950 . S
C1891 C1889 1.387 . S
C1891 C1893 1.390 1_556 S
C1891 H1895 0.950 . S
H1892 C1888 0.950 . S
C1893 C1891 1.390 1_554 S
C1893 C1894 1.387 . S
C1893 H1896 0.950 . S
C1894 C1893 1.387 . S
C1894 C1897 1.387 . S
H1895 C1891 0.950 . S
H1896 C1893 0.950 . S
C1897 C1888 1.390 . S
C1897 H1890 0.950 . S
C1897 C1894 1.387 . S
C1898 C1899 1.387 . S
C1898 H1902 0.950 . S
C1898 C1907 1.390 . S
C1899 C1898 1.387 . S
C1899 C1901 1.387 . S
H1900 C1907 0.950 . S
C1901 C1899 1.387 . S
C1901 C1903 1.390 . S
C1901 H1905 0.950 . S
H1902 C1898 0.950 . S
C1903 C1901 1.390 . S
C1903 C1904 1.387 . S
C1903 H1906 0.950 . S
C1904 C1903 1.387 . S
C1904 C1907 1.387 . S
H1905 C1901 0.950 . S
H1906 C1903 0.950 . S
C1907 C1898 1.390 . S
C1907 H1900 0.950 . S
C1907 C1904 1.387 . S
C1908 C1909 1.387 . S
C1908 H1912 0.950 . S
C1908 C1917 1.390 . S
C1909 C1908 1.387 . S
C1909 C1911 1.387 1_545 S
H1910 C1917 0.950 . S
C1911 C1909 1.387 1_565 S
C1911 C1913 1.390 . S
C1911 H1915 0.950 . S
H1912 C1908 0.950 . S
C1913 C1911 1.390 . S
C1913 C1914 1.387 . S
C1913 H1916 0.950 . S
C1914 C1913 1.387 . S
C1914 C1917 1.387 1_565 S
H1915 C1911 0.950 . S
H1916 C1913 0.950 . S
C1917 C1908 1.390 . S
C1917 H1910 0.950 . S
C1917 C1914 1.387 1_545 S
C1918 C1919 1.387 . S
C1918 H1922 0.950 . S
C1918 C1927 1.390 . S
C1919 C1918 1.387 . S
C1919 C1921 1.387 1_556 S
H1920 C1927 0.950 . S
C1921 C1919 1.387 1_554 S
C1921 C1923 1.390 . S
C1921 H1925 0.950 . S
H1922 C1918 0.950 . S
C1923 C1921 1.390 . S
C1923 C1924 1.387 . S
C1923 H1926 0.950 . S
C1924 C1923 1.387 . S
C1924 C1927 1.387 1_554 S
H1925 C1921 0.950 . S
H1926 C1923 0.950 . S
C1927 C1918 1.390 . S
C1927 H1920 0.950 . S
C1927 C1924 1.387 1_556 S
C1928 C1929 1.387 . S
C1928 H1932 0.950 . S
C1928 C1937 1.390 . S
C1929 C1928 1.387 . S
C1929 C1931 1.383 . S
H1930 C1937 0.950 . S
C1931 C1929 1.383 . S
C1931 C1933 1.393 1_554 S
C1931 H1935 0.951 1_554 S
H1932 C1928 0.950 . S
C1933 C1931 1.393 1_556 S
C1933 C1934 1.387 . S
C1933 H1936 0.950 . S
C1934 C1933 1.387 . S
C1934 C1937 1.387 1_556 S
H1935 C1931 0.951 1_556 S
H1936 C1933 0.950 . S
C1937 C1928 1.390 . S
C1937 H1930 0.950 . S
C1937 C1934 1.387 1_554 S
C1938 C1939 1.387 . S
C1938 H1942 0.950 . S
C1938 C1947 1.390 . S
C1939 C1938 1.387 . S
C1939 C1941 1.387 . S
H1940 C1947 0.950 . S
C1941 C1939 1.387 . S
C1941 C1943 1.390 . S
C1941 H1945 0.950 . S
H1942 C1938 0.950 . S
C1943 C1941 1.390 . S
C1943 C1944 1.387 . S
C1943 H1946 0.950 . S
C1944 C1943 1.387 . S
C1944 C1947 1.387 . S
H1945 C1941 0.950 . S
H1946 C1943 0.950 . S
C1947 C1938 1.390 . S
C1947 H1940 0.950 . S
C1947 C1944 1.387 . S
C1948 C1949 1.387 . S
C1948 H1952 0.950 . S
C1948 C1957 1.390 . S
C1949 C1948 1.387 . S
C1949 C1951 1.387 . S
H1950 C1957 0.950 . S
C1951 C1949 1.387 . S
C1951 C1953 1.390 1_565 S
C1951 H1955 0.950 1_565 S
H1952 C1948 0.950 . S
C1953 C1951 1.390 1_545 S
C1953 C1954 1.387 . S
C1953 H1956 0.950 . S
C1954 C1953 1.387 . S
C1954 C1957 1.387 1_545 S
H1955 C1951 0.950 1_545 S
H1956 C1953 0.950 . S
C1957 C1948 1.390 . S
C1957 H1950 0.950 . S
C1957 C1954 1.387 1_565 S
C1958 C1959 1.387 . S
C1958 H1962 0.950 . S
C1958 C1967 1.390 . S
C1959 C1958 1.387 . S
C1959 C1961 1.387 . S
H1960 C1967 0.950 . S
C1961 C1959 1.387 . S
C1961 C1963 1.390 1_455 S
C1961 H1965 0.950 . S
H1962 C1958 0.950 . S
C1963 C1961 1.390 1_655 S
C1963 C1964 1.387 . S
C1963 H1966 0.950 . S
C1964 C1963 1.387 . S
C1964 C1967 1.387 1_655 S
H1965 C1961 0.950 . S
H1966 C1963 0.950 . S
C1967 C1958 1.390 . S
C1967 H1960 0.950 . S
C1967 C1964 1.387 1_455 S
C1968 C1969 1.387 1_655 S
C1968 H1972 0.950 . S
C1968 C1977 1.390 . S
C1969 C1968 1.387 1_455 S
C1969 C1971 1.387 . S
H1970 C1977 0.950 . S
C1971 C1969 1.387 . S
C1971 C1973 1.390 1_455 S
C1971 H1975 0.950 . S
H1972 C1968 0.950 . S
C1973 C1971 1.390 1_655 S
C1973 C1974 1.387 . S
C1973 H1976 0.950 1_655 S
C1974 C1973 1.387 . S
C1974 C1977 1.387 . S
H1975 C1971 0.950 . S
H1976 C1973 0.950 1_455 S
C1977 C1968 1.390 . S
C1977 H1970 0.950 . S
C1977 C1974 1.387 . S
C1978 C1979 1.387 . S
C1978 H1982 0.950 . S
C1978 C1987 1.390 . S
C1979 C1978 1.387 . S
C1979 C1981 1.387 . S
H1980 C1987 0.950 . S
C1981 C1979 1.387 . S
C1981 C1983 1.390 . S
C1981 H1985 0.950 . S
H1982 C1978 0.950 . S
C1983 C1981 1.390 . S
C1983 C1984 1.387 . S
C1983 H1986 0.950 . S
C1984 C1983 1.387 . S
C1984 C1987 1.387 . S
H1985 C1981 0.950 . S
H1986 C1983 0.950 . S
C1987 C1978 1.390 . S
C1987 H1980 0.950 . S
C1987 C1984 1.387 . S
C1988 C1989 1.387 . S
C1988 H1992 0.950 . S
C1988 C1997 1.390 . S
C1989 C1988 1.387 . S
C1989 C1991 1.387 . S
H1990 C1997 0.950 . S
C1991 C1989 1.387 . S
C1991 C1993 1.390 . S
C1991 H1995 0.950 . S
H1992 C1988 0.950 . S
C1993 C1991 1.390 . S
C1993 C1994 1.387 . S
C1993 H1996 0.950 . S
C1994 C1993 1.387 . S
C1994 C1997 1.387 . S
H1995 C1991 0.950 . S
H1996 C1993 0.950 . S
C1997 C1988 1.390 . S
C1997 H1990 0.950 . S
C1997 C1994 1.387 . S
C1998 C1999 1.387 . S
C1998 H2002 0.950 . S
C1998 C2007 1.390 . S
C1999 C1998 1.387 . S
C1999 C2001 1.387 . S
H2000 C2007 0.950 . S
C2001 C1999 1.387 . S
C2001 C2003 1.390 . S
C2001 H2005 0.950 . S
H2002 C1998 0.950 . S
C2003 C2001 1.390 . S
C2003 C2004 1.387 . S
C2003 H2006 0.950 . S
C2004 C2003 1.387 . S
C2004 C2007 1.387 . S
H2005 C2001 0.950 . S
H2006 C2003 0.950 . S
C2007 C1998 1.390 . S
C2007 H2000 0.950 . S
C2007 C2004 1.387 . S
C2008 C2009 1.387 1_556 S
C2008 H2012 0.950 . S
C2008 C2017 1.390 . S
C2009 C2008 1.387 1_554 S
C2009 C2011 1.387 . S
H2010 C2017 0.950 . S
C2011 C2009 1.387 . S
C2011 C2013 1.390 1_554 S
C2011 H2015 0.950 . S
H2012 C2008 0.950 . S
C2013 C2011 1.390 1_556 S
C2013 C2014 1.387 . S
C2013 H2016 0.950 . S
C2014 C2013 1.387 . S
C2014 C2017 1.387 . S
H2015 C2011 0.950 . S
H2016 C2013 0.950 . S
C2017 C2008 1.390 . S
C2017 H2010 0.950 . S
C2017 C2014 1.387 . S
C2018 C2019 1.387 . S
C2018 H2022 0.950 . S
C2018 C2027 1.416 . S
C2019 C2018 1.387 . S
C2019 C2021 1.387 . S
H2020 C2027 0.936 1_545 S
C2021 C2019 1.387 . S
C2021 C2023 1.390 . S
C2021 H2025 0.950 . S
H2022 C2018 0.950 . S
C2023 C2021 1.390 . S
C2023 C2024 1.387 1_565 S
C2023 H2026 0.950 1_565 S
C2024 C2023 1.387 1_545 S
C2024 C2027 1.377 1_545 S
H2025 C2021 0.950 . S
H2026 C2023 0.950 1_545 S
C2027 C2018 1.416 . S
C2027 H2020 0.936 1_565 S
C2027 C2024 1.377 1_565 S
C2028 C2029 1.387 . S
C2028 H2032 0.950 . S
C2028 C2037 1.390 . S
C2029 C2028 1.387 . S
C2029 C2031 1.387 . S
H2030 C2037 0.950 . S
C2031 C2029 1.387 . S
C2031 C2033 1.390 . S
C2031 H2035 0.950 . S
H2032 C2028 0.950 . S
C2033 C2031 1.390 . S
C2033 C2034 1.387 . S
C2033 H2036 0.950 . S
C2034 C2033 1.387 . S
C2034 C2037 1.387 . S
H2035 C2031 0.950 . S
H2036 C2033 0.950 . S
C2037 C2028 1.390 . S
C2037 H2030 0.950 . S
C2037 C2034 1.387 . S
C2038 C2039 1.387 . S
C2038 H2042 0.950 . S
C2038 C2047 1.390 . S
C2039 C2038 1.387 . S
C2039 C2041 1.387 . S
H2040 C2047 0.950 . S
C2041 C2039 1.387 . S
C2041 C2043 1.390 . S
C2041 H2045 0.950 . S
H2042 C2038 0.950 . S
C2043 C2041 1.390 . S
C2043 C2044 1.387 . S
C2043 H2046 0.950 . S
C2044 C2043 1.387 . S
C2044 C2047 1.387 . S
H2045 C2041 0.950 . S
H2046 C2043 0.950 . S
C2047 C2038 1.390 . S
C2047 H2040 0.950 . S
C2047 C2044 1.387 . S
C2048 C2049 1.387 . S
C2048 H2052 0.950 . S
C2048 C2057 1.390 . S
C2049 C2048 1.387 . S
C2049 C2051 1.387 . S
H2050 C2057 0.950 . S
C2051 C2049 1.387 . S
C2051 C2053 1.390 . S
C2051 H2055 0.950 . S
H2052 C2048 0.950 . S
C2053 C2051 1.390 . S
C2053 C2054 1.387 . S
C2053 H2056 0.950 . S
C2054 C2053 1.387 . S
C2054 C2057 1.387 . S
H2055 C2051 0.950 . S
H2056 C2053 0.950 . S
C2057 C2048 1.390 . S
C2057 H2050 0.950 . S
C2057 C2054 1.387 . S
C2058 C2059 1.387 . S
C2058 H2062 0.950 . S
C2058 C2067 1.390 1_565 S
C2059 C2058 1.387 . S
C2059 C2061 1.387 1_565 S
H2060 C2067 0.950 . S
C2061 C2059 1.387 1_545 S
C2061 C2063 1.390 . S
C2061 H2065 0.950 . S
H2062 C2058 0.950 . S
C2063 C2061 1.390 . S
C2063 C2064 1.387 . S
C2063 H2066 0.950 . S
C2064 C2063 1.387 . S
C2064 C2067 1.387 . S
H2065 C2061 0.950 . S
H2066 C2063 0.950 . S
C2067 C2058 1.390 1_545 S
C2067 H2060 0.950 . S
C2067 C2064 1.387 . S
C2068 C2069 1.387 . S
C2068 H2072 0.950 . S
C2068 C2077 1.390 . S
C2069 C2068 1.387 . S
C2069 C2071 1.387 . S
H2070 C2077 0.950 . S
C2071 C2069 1.387 . S
C2071 C2073 1.390 1_554 S
C2071 H2075 0.943 1_554 S
H2072 C2068 0.950 . S
C2073 C2071 1.390 1_556 S
C2073 C2074 1.387 . S
C2073 H2076 0.950 . S
C2074 C2073 1.387 . S
C2074 C2077 1.387 1_556 S
H2075 C2071 0.943 1_556 S
H2076 C2073 0.950 . S
C2077 C2068 1.390 . S
C2077 H2070 0.950 . S
C2077 C2074 1.387 1_554 S
C2078 C2079 1.387 . S
C2078 H2082 0.950 . S
C2078 C2087 1.390 . S
C2079 C2078 1.387 . S
C2079 C2081 1.387 . S
H2080 C2087 0.950 . S
C2081 C2079 1.387 . S
C2081 C2083 1.390 . S
C2081 H2085 0.950 . S
H2082 C2078 0.950 . S
C2083 C2081 1.390 . S
C2083 C2084 1.387 . S
C2083 H2086 0.950 . S
C2084 C2083 1.387 . S
C2084 C2087 1.387 . S
H2085 C2081 0.950 . S
H2086 C2083 0.950 . S
C2087 C2078 1.390 . S
C2087 H2080 0.950 . S
C2087 C2084 1.387 . S
C2088 C2089 1.387 . S
C2088 H2092 0.950 . S
C2088 C2097 1.390 . S
C2089 C2088 1.387 . S
C2089 C2091 1.371 1_556 S
H2090 C2097 0.950 . S
C2091 C2089 1.371 1_554 S
C2091 C2093 1.400 . S
C2091 H2095 0.956 . S
H2092 C2088 0.950 . S
C2093 C2091 1.400 . S
C2093 C2094 1.387 . S
C2093 H2096 0.950 . S
C2094 C2093 1.387 . S
C2094 C2097 1.387 1_554 S
H2095 C2091 0.956 . S
H2096 C2093 0.950 . S
C2097 C2088 1.390 . S
C2097 H2090 0.950 . S
C2097 C2094 1.387 1_556 S
C2098 C2099 1.387 . S
C2098 H2102 0.950 . S
C2098 C2107 1.390 . S
C2099 C2098 1.387 . S
C2099 C2101 1.387 . S
H2100 C2107 0.950 . S
C2101 C2099 1.387 . S
C2101 C2103 1.390 . S
C2101 H2105 0.950 . S
H2102 C2098 0.950 . S
C2103 C2101 1.390 . S
C2103 C2104 1.387 . S
C2103 H2106 0.950 . S
C2104 C2103 1.387 . S
C2104 C2107 1.387 . S
H2105 C2101 0.950 . S
H2106 C2103 0.950 . S
C2107 C2098 1.390 . S
C2107 H2100 0.950 . S
C2107 C2104 1.387 . S
C2108 C2109 1.387 . S
C2108 H2112 0.950 . S
C2108 C2117 1.390 . S
C2109 C2108 1.387 . S
C2109 C2111 1.387 . S
H2110 C2117 0.950 . S
C2111 C2109 1.387 . S
C2111 C2113 1.390 . S
C2111 H2115 0.950 . S
H2112 C2108 0.950 . S
C2113 C2111 1.390 . S
C2113 C2114 1.387 . S
C2113 H2116 0.950 . S
C2114 C2113 1.387 . S
C2114 C2117 1.387 . S
H2115 C2111 0.950 . S
H2116 C2113 0.950 . S
C2117 C2108 1.390 . S
C2117 H2110 0.950 . S
C2117 C2114 1.387 . S
C2118 C2119 1.387 . S
C2118 H2122 0.950 . S
C2118 C2127 1.390 . S
C2119 C2118 1.387 . S
C2119 C2121 1.387 . S
H2120 C2127 0.950 . S
C2121 C2119 1.387 . S
C2121 C2123 1.390 . S
C2121 H2125 0.950 . S
H2122 C2118 0.950 . S
C2123 C2121 1.390 . S
C2123 C2124 1.387 . S
C2123 H2126 0.950 . S
C2124 C2123 1.387 . S
C2124 C2127 1.387 . S
H2125 C2121 0.950 . S
H2126 C2123 0.950 . S
C2127 C2118 1.390 . S
C2127 H2120 0.950 . S
C2127 C2124 1.387 . S
C2128 C2129 1.387 1_565 S
C2128 H2132 0.950 . S
C2128 C2137 1.390 . S
C2129 C2128 1.387 1_545 S
C2129 C2131 1.387 . S
H2130 C2137 0.950 . S
C2131 C2129 1.387 . S
C2131 C2133 1.390 . S
C2131 H2135 0.950 . S
H2132 C2128 0.950 . S
C2133 C2131 1.390 . S
C2133 C2134 1.387 1_545 S
C2133 H2136 0.950 . S
C2134 C2133 1.387 1_565 S
C2134 C2137 1.387 . S
H2135 C2131 0.950 . S
H2136 C2133 0.950 . S
C2137 C2128 1.390 . S
C2137 H2130 0.950 . S
C2137 C2134 1.387 . S
C2138 C2139 1.387 . S
C2138 H2142 0.950 . S
C2138 C2147 1.390 . S
C2139 C2138 1.387 . S
C2139 C2141 1.387 . S
H2140 C2147 0.950 . S
C2141 C2139 1.387 . S
C2141 C2143 1.390 . S
C2141 H2145 0.950 . S
H2142 C2138 0.950 . S
C2143 C2141 1.390 . S
C2143 C2144 1.387 . S
C2143 H2146 0.950 . S
C2144 C2143 1.387 . S
C2144 C2147 1.387 . S
H2145 C2141 0.950 . S
H2146 C2143 0.950 . S
C2147 C2138 1.390 . S
C2147 H2140 0.950 . S
C2147 C2144 1.387 . S
C2148 C2149 1.387 . S
C2148 H2152 0.950 . S
C2148 C2157 1.390 . S
C2149 C2148 1.387 . S
C2149 C2151 1.387 . S
H2150 C2157 0.950 . S
C2151 C2149 1.387 . S
C2151 C2153 1.390 . S
C2151 H2155 0.950 . S
H2152 C2148 0.950 . S
C2153 C2151 1.390 . S
C2153 C2154 1.387 . S
C2153 H2156 0.950 . S
C2154 C2153 1.387 . S
C2154 C2157 1.387 . S
H2155 C2151 0.950 . S
H2156 C2153 0.950 . S
C2157 C2148 1.390 . S
C2157 H2150 0.950 . S
C2157 C2154 1.387 . S
C2158 C2159 1.387 . S
C2158 H2162 0.950 . S
C2158 C2167 1.390 . S
C2159 C2158 1.387 . S
C2159 C2161 1.387 . S
H2160 C2167 0.950 . S
C2161 C2159 1.387 . S
C2161 C2163 1.390 . S
C2161 H2165 0.950 . S
H2162 C2158 0.950 . S
C2163 C2161 1.390 . S
C2163 C2164 1.387 . S
C2163 H2166 0.950 . S
C2164 C2163 1.387 . S
C2164 C2167 1.387 . S
H2165 C2161 0.950 . S
H2166 C2163 0.950 . S
C2167 C2158 1.390 . S
C2167 H2160 0.950 . S
C2167 C2164 1.387 . S
C2168 C2169 1.387 . S
C2168 H2172 0.950 . S
C2168 C2177 1.390 . S
C2169 C2168 1.387 . S
C2169 C2171 1.387 . S
H2170 C2177 0.950 . S
C2171 C2169 1.387 . S
C2171 C2173 1.390 . S
C2171 H2175 0.950 . S
H2172 C2168 0.950 . S
C2173 C2171 1.390 . S
C2173 C2174 1.387 . S
C2173 H2176 0.950 . S
C2174 C2173 1.387 . S
C2174 C2177 1.387 . S
H2175 C2171 0.950 . S
H2176 C2173 0.950 . S
C2177 C2168 1.390 . S
C2177 H2170 0.950 . S
C2177 C2174 1.387 . S
C2178 C2179 1.387 . S
C2178 H2182 0.950 . S
C2178 C2187 1.390 . S
C2179 C2178 1.387 . S
C2179 C2181 1.387 . S
H2180 C2187 0.950 . S
C2181 C2179 1.387 . S
C2181 C2183 1.390 . S
C2181 H2185 0.950 . S
H2182 C2178 0.950 . S
C2183 C2181 1.390 . S
C2183 C2184 1.387 . S
C2183 H2186 0.950 . S
C2184 C2183 1.387 . S
C2184 C2187 1.387 . S
H2185 C2181 0.950 . S
H2186 C2183 0.950 . S
C2187 C2178 1.390 . S
C2187 H2180 0.950 . S
C2187 C2184 1.387 . S
C2188 C2189 1.387 . S
C2188 H2192 0.950 . S
C2188 C2197 1.390 1_565 S
C2189 C2188 1.387 . S
C2189 C2191 1.387 1_565 S
H2190 C2197 0.950 . S
C2191 C2189 1.387 1_545 S
C2191 C2193 1.390 . S
C2191 H2195 0.950 . S
H2192 C2188 0.950 . S
C2193 C2191 1.390 . S
C2193 C2194 1.387 . S
C2193 H2196 0.950 . S
C2194 C2193 1.387 . S
C2194 C2197 1.387 . S
H2195 C2191 0.950 . S
H2196 C2193 0.950 . S
C2197 C2188 1.390 1_545 S
C2197 H2190 0.950 . S
C2197 C2194 1.387 . S
C2198 C2199 1.387 . S
C2198 H2202 0.950 . S
C2198 C2207 1.390 . S
C2199 C2198 1.387 . S
C2199 C2201 1.387 . S
H2200 C2207 0.950 . S
C2201 C2199 1.387 . S
C2201 C2203 1.390 . S
C2201 H2205 0.950 . S
H2202 C2198 0.950 . S
C2203 C2201 1.390 . S
C2203 C2204 1.387 . S
C2203 H2206 0.950 . S
C2204 C2203 1.387 . S
C2204 C2207 1.387 . S
H2205 C2201 0.950 . S
H2206 C2203 0.950 . S
C2207 C2198 1.390 . S
C2207 H2200 0.950 . S
C2207 C2204 1.387 . S
C2208 C2209 1.387 . S
C2208 H2212 0.950 . S
C2208 C2217 1.390 . S
C2209 C2208 1.387 . S
C2209 C2211 1.387 . S
H2210 C2217 0.950 . S
C2211 C2209 1.387 . S
C2211 C2213 1.390 . S
C2211 H2215 0.950 . S
H2212 C2208 0.950 . S
C2213 C2211 1.390 . S
C2213 C2214 1.387 . S
C2213 H2216 0.950 . S
C2214 C2213 1.387 . S
C2214 C2217 1.387 . S
H2215 C2211 0.950 . S
H2216 C2213 0.950 . S
C2217 C2208 1.390 . S
C2217 H2210 0.950 . S
C2217 C2214 1.387 . S
C2218 C2219 1.387 . S
C2218 H2222 0.950 . S
C2218 C2227 1.390 . S
C2219 C2218 1.387 . S
C2219 C2221 1.387 . S
H2220 C2227 0.950 . S
C2221 C2219 1.387 . S
C2221 C2223 1.390 . S
C2221 H2225 0.950 . S
H2222 C2218 0.950 . S
C2223 C2221 1.390 . S
C2223 C2224 1.387 . S
C2223 H2226 0.950 . S
C2224 C2223 1.387 . S
C2224 C2227 1.387 . S
H2225 C2221 0.950 . S
H2226 C2223 0.950 . S
C2227 C2218 1.390 . S
C2227 H2220 0.950 . S
C2227 C2224 1.387 . S
C2228 C2229 1.387 . S
C2228 H2232 0.950 . S
C2228 C2237 1.390 . S
C2229 C2228 1.387 . S
C2229 C2231 1.387 . S
H2230 C2237 0.950 . S
C2231 C2229 1.387 . S
C2231 C2233 1.390 . S
C2231 H2235 0.950 . S
H2232 C2228 0.950 . S
C2233 C2231 1.390 . S
C2233 C2234 1.387 . S
C2233 H2236 0.950 . S
C2234 C2233 1.387 . S
C2234 C2237 1.387 . S
H2235 C2231 0.950 . S
H2236 C2233 0.950 . S
C2237 C2228 1.390 . S
C2237 H2230 0.950 . S
C2237 C2234 1.387 . S
C2238 C2239 1.387 . S
C2238 H2242 0.950 . S
C2238 C2247 1.390 . S
C2239 C2238 1.387 . S
C2239 C2241 1.387 . S
H2240 C2247 0.950 . S
C2241 C2239 1.387 . S
C2241 C2243 1.390 . S
C2241 H2245 0.950 . S
H2242 C2238 0.950 . S
C2243 C2241 1.390 . S
C2243 C2244 1.387 . S
C2243 H2246 0.950 . S
C2244 C2243 1.387 . S
C2244 C2247 1.387 . S
H2245 C2241 0.950 . S
H2246 C2243 0.950 . S
C2247 C2238 1.390 . S
C2247 H2240 0.950 . S
C2247 C2244 1.387 . S
C2248 C2249 1.387 . S
C2248 H2252 0.950 . S
C2248 C2257 1.390 . S
C2249 C2248 1.387 . S
C2249 C2251 1.387 . S
H2250 C2257 0.950 . S
C2251 C2249 1.387 . S
C2251 C2253 1.390 . S
C2251 H2255 0.950 . S
H2252 C2248 0.950 . S
C2253 C2251 1.390 . S
C2253 C2254 1.387 . S
C2253 H2256 0.950 . S
C2254 C2253 1.387 . S
C2254 C2257 1.387 . S
H2255 C2251 0.950 . S
H2256 C2253 0.950 . S
C2257 C2248 1.390 . S
C2257 H2250 0.950 . S
C2257 C2254 1.387 . S
C2258 C2259 1.387 . S
C2258 H2262 0.950 . S
C2258 C2267 1.390 . S
C2259 C2258 1.387 . S
C2259 C2261 1.387 . S
H2260 C2267 0.950 . S
C2261 C2259 1.387 . S
C2261 C2263 1.390 . S
C2261 H2265 0.950 . S
H2262 C2258 0.950 . S
C2263 C2261 1.390 . S
C2263 C2264 1.387 . S
C2263 H2266 0.950 . S
C2264 C2263 1.387 . S
C2264 C2267 1.387 . S
H2265 C2261 0.950 . S
H2266 C2263 0.950 . S
C2267 C2258 1.390 . S
C2267 H2260 0.950 . S
C2267 C2264 1.387 . S
C2268 C2269 1.387 . S
C2268 H2272 0.950 . S
C2268 C2277 1.390 . S
C2269 C2268 1.387 . S
C2269 C2271 1.387 . S
H2270 C2277 0.950 . S
C2271 C2269 1.387 . S
C2271 C2273 1.390 . S
C2271 H2275 0.950 . S
H2272 C2268 0.950 . S
C2273 C2271 1.390 . S
C2273 C2274 1.387 . S
C2273 H2276 0.950 . S
C2274 C2273 1.387 . S
C2274 C2277 1.387 . S
H2275 C2271 0.950 . S
H2276 C2273 0.950 . S
C2277 C2268 1.390 . S
C2277 H2270 0.950 . S
C2277 C2274 1.387 . S
C2278 C2279 1.387 . S
C2278 H2282 0.950 . S
C2278 C2287 1.390 . S
C2279 C2278 1.387 . S
C2279 C2281 1.387 . S
H2280 C2287 0.950 . S
C2281 C2279 1.387 . S
C2281 C2283 1.390 . S
C2281 H2285 0.950 . S
H2282 C2278 0.950 . S
C2283 C2281 1.390 . S
C2283 C2284 1.387 . S
C2283 H2286 0.950 . S
C2284 C2283 1.387 . S
C2284 C2287 1.387 . S
H2285 C2281 0.950 . S
H2286 C2283 0.950 . S
C2287 C2278 1.390 . S
C2287 H2280 0.950 . S
C2287 C2284 1.387 . S
C2288 C2289 1.387 . S
C2288 H2292 0.950 . S
C2288 C2297 1.390 . S
C2289 C2288 1.387 . S
C2289 C2291 1.387 . S
H2290 C2297 0.950 . S
C2291 C2289 1.387 . S
C2291 C2293 1.390 . S
C2291 H2295 0.950 . S
H2292 C2288 0.950 . S
C2293 C2291 1.390 . S
C2293 C2294 1.387 . S
C2293 H2296 0.950 . S
C2294 C2293 1.387 . S
C2294 C2297 1.387 . S
H2295 C2291 0.950 . S
H2296 C2293 0.950 . S
C2297 C2288 1.390 . S
C2297 H2290 0.950 . S
C2297 C2294 1.387 . S
C2298 C2299 1.387 . S
C2298 H2302 0.950 . S
C2298 C2307 1.390 . S
C2299 C2298 1.387 . S
C2299 C2301 1.387 . S
H2300 C2307 0.950 . S
C2301 C2299 1.387 . S
C2301 C2303 1.390 . S
C2301 H2305 0.950 . S
H2302 C2298 0.950 . S
C2303 C2301 1.390 . S
C2303 C2304 1.387 . S
C2303 H2306 0.950 . S
C2304 C2303 1.387 . S
C2304 C2307 1.387 . S
H2305 C2301 0.950 . S
H2306 C2303 0.950 . S
C2307 C2298 1.390 . S
C2307 H2300 0.950 . S
C2307 C2304 1.387 . S
C2308 C2309 1.387 . S
C2308 H2312 0.950 . S
C2308 C2317 1.390 . S
C2309 C2308 1.387 . S
C2309 C2311 1.387 . S
H2310 C2317 0.950 . S
C2311 C2309 1.387 . S
C2311 C2313 1.390 . S
C2311 H2315 0.950 . S
H2312 C2308 0.950 . S
C2313 C2311 1.390 . S
C2313 C2314 1.387 . S
C2313 H2316 0.950 . S
C2314 C2313 1.387 . S
C2314 C2317 1.387 . S
H2315 C2311 0.950 . S
H2316 C2313 0.950 . S
C2317 C2308 1.390 . S
C2317 H2310 0.950 . S
C2317 C2314 1.387 . S
C2318 C2319 1.387 . S
C2318 H2322 0.950 . S
C2318 C2327 1.390 . S
C2319 C2318 1.387 . S
C2319 C2321 1.387 . S
H2320 C2327 0.950 . S
C2321 C2319 1.387 . S
C2321 C2323 1.390 . S
C2321 H2325 0.950 . S
H2322 C2318 0.950 . S
C2323 C2321 1.390 . S
C2323 C2324 1.387 . S
C2323 H2326 0.950 . S
C2324 C2323 1.387 . S
C2324 C2327 1.387 . S
H2325 C2321 0.950 . S
H2326 C2323 0.950 . S
C2327 C2318 1.390 . S
C2327 H2320 0.950 . S
C2327 C2324 1.387 . S
C2328 C2329 1.387 . S
C2328 H2332 0.950 . S
C2328 C2337 1.390 . S
C2329 C2328 1.387 . S
C2329 C2331 1.387 . S
H2330 C2337 0.950 . S
C2331 C2329 1.387 . S
C2331 C2333 1.390 . S
C2331 H2335 0.950 . S
H2332 C2328 0.950 . S
C2333 C2331 1.390 . S
C2333 C2334 1.387 . S
C2333 H2336 0.950 . S
C2334 C2333 1.387 . S
C2334 C2337 1.387 . S
H2335 C2331 0.950 . S
H2336 C2333 0.950 . S
C2337 C2328 1.390 . S
C2337 H2330 0.950 . S
C2337 C2334 1.387 . S
C2338 C2339 1.387 . S
C2338 H2342 0.950 . S
C2338 C2347 1.390 . S
C2339 C2338 1.387 . S
C2339 C2341 1.387 . S
H2340 C2347 0.950 . S
C2341 C2339 1.387 . S
C2341 C2343 1.390 . S
C2341 H2345 0.950 . S
H2342 C2338 0.950 . S
C2343 C2341 1.390 . S
C2343 C2344 1.387 . S
C2343 H2346 0.950 . S
C2344 C2343 1.387 . S
C2344 C2347 1.387 . S
H2345 C2341 0.950 . S
H2346 C2343 0.950 . S
C2347 C2338 1.390 . S
C2347 H2340 0.950 . S
C2347 C2344 1.387 . S
C2348 C2349 1.387 . S
C2348 H2352 0.950 . S
C2348 C2357 1.390 . S
C2349 C2348 1.387 . S
C2349 C2351 1.387 . S
H2350 C2357 0.950 . S
C2351 C2349 1.387 . S
C2351 C2353 1.390 . S
C2351 H2355 0.950 . S
H2352 C2348 0.950 . S
C2353 C2351 1.390 . S
C2353 C2354 1.387 . S
C2353 H2356 0.950 . S
C2354 C2353 1.387 . S
C2354 C2357 1.387 . S
H2355 C2351 0.950 . S
H2356 C2353 0.950 . S
C2357 C2348 1.390 . S
C2357 H2350 0.950 . S
C2357 C2354 1.387 . S
C2358 C2359 1.387 . S
C2358 H2362 0.950 . S
C2358 C2367 1.390 . S
C2359 C2358 1.387 . S
C2359 C2361 1.387 . S
H2360 C2367 0.950 . S
C2361 C2359 1.387 . S
C2361 C2363 1.390 . S
C2361 H2365 0.950 . S
H2362 C2358 0.950 . S
C2363 C2361 1.390 . S
C2363 C2364 1.387 . S
C2363 H2366 0.950 . S
C2364 C2363 1.387 . S
C2364 C2367 1.387 . S
H2365 C2361 0.950 . S
H2366 C2363 0.950 . S
C2367 C2358 1.390 . S
C2367 H2360 0.950 . S
C2367 C2364 1.387 . S
C2368 C2369 1.387 . S
C2368 H2372 0.950 . S
C2368 C2377 1.390 . S
C2369 C2368 1.387 . S
C2369 C2371 1.387 . S
H2370 C2377 0.950 . S
C2371 C2369 1.387 . S
C2371 C2373 1.390 . S
C2371 H2375 0.950 . S
H2372 C2368 0.950 . S
C2373 C2371 1.390 . S
C2373 C2374 1.387 . S
C2373 H2376 0.950 . S
C2374 C2373 1.387 . S
C2374 C2377 1.387 . S
H2375 C2371 0.950 . S
H2376 C2373 0.950 . S
C2377 C2368 1.390 . S
C2377 H2370 0.950 . S
C2377 C2374 1.387 . S
C2378 C2379 1.387 . S
C2378 H2382 0.950 . S
C2378 C2387 1.390 . S
C2379 C2378 1.387 . S
C2379 C2381 1.387 . S
H2380 C2387 0.950 . S
C2381 C2379 1.387 . S
C2381 C2383 1.390 . S
C2381 H2385 0.950 . S
H2382 C2378 0.950 . S
C2383 C2381 1.390 . S
C2383 C2384 1.387 . S
C2383 H2386 0.950 . S
C2384 C2383 1.387 . S
C2384 C2387 1.387 . S
H2385 C2381 0.950 . S
H2386 C2383 0.950 . S
C2387 C2378 1.390 . S
C2387 H2380 0.950 . S
C2387 C2384 1.387 . S
C2388 C2389 1.387 . S
C2388 H2392 0.950 . S
C2388 C2397 1.390 . S
C2389 C2388 1.387 . S
C2389 C2391 1.387 . S
H2390 C2397 0.950 . S
C2391 C2389 1.387 . S
C2391 C2393 1.390 . S
C2391 H2395 0.950 . S
H2392 C2388 0.950 . S
C2393 C2391 1.390 . S
C2393 C2394 1.387 . S
C2393 H2396 0.950 . S
C2394 C2393 1.387 . S
C2394 C2397 1.387 . S
H2395 C2391 0.950 . S
H2396 C2393 0.950 . S
C2397 C2388 1.390 . S
C2397 H2390 0.950 . S
C2397 C2394 1.387 . S
C2398 C2399 1.387 . S
C2398 H2402 0.950 . S
C2398 C2407 1.390 . S
C2399 C2398 1.387 . S
C2399 C2401 1.387 . S
H2400 C2407 0.950 . S
C2401 C2399 1.387 . S
C2401 C2403 1.390 . S
C2401 H2405 0.950 . S
H2402 C2398 0.950 . S
C2403 C2401 1.390 . S
C2403 C2404 1.387 . S
C2403 H2406 0.950 . S
C2404 C2403 1.387 . S
C2404 C2407 1.387 . S
H2405 C2401 0.950 . S
H2406 C2403 0.950 . S
C2407 C2398 1.390 . S
C2407 H2400 0.950 . S
C2407 C2404 1.387 . S
C2408 C2409 1.387 . S
C2408 H2412 0.950 . S
C2408 C2417 1.390 . S
C2409 C2408 1.387 . S
C2409 C2411 1.387 . S
H2410 C2417 0.950 . S
C2411 C2409 1.387 . S
C2411 C2413 1.390 . S
C2411 H2415 0.950 . S
H2412 C2408 0.950 . S
C2413 C2411 1.390 . S
C2413 C2414 1.387 . S
C2413 H2416 0.950 . S
C2414 C2413 1.387 . S
C2414 C2417 1.387 . S
H2415 C2411 0.950 . S
H2416 C2413 0.950 . S
C2417 C2408 1.390 . S
C2417 H2410 0.950 . S
C2417 C2414 1.387 . S
C2418 C2419 1.387 . S
C2418 H2422 0.950 . S
C2418 C2427 1.390 . S
C2419 C2418 1.387 . S
C2419 C2421 1.387 . S
H2420 C2427 0.950 . S
C2421 C2419 1.387 . S
C2421 C2423 1.390 . S
C2421 H2425 0.950 . S
H2422 C2418 0.950 . S
C2423 C2421 1.390 . S
C2423 C2424 1.387 . S
C2423 H2426 0.950 . S
C2424 C2423 1.387 . S
C2424 C2427 1.387 . S
H2425 C2421 0.950 . S
H2426 C2423 0.950 . S
C2427 C2418 1.390 . S
C2427 H2420 0.950 . S
C2427 C2424 1.387 . S
C2428 C2429 1.387 . S
C2428 H2432 0.950 . S
C2428 C2437 1.390 . S
C2429 C2428 1.387 . S
C2429 C2431 1.387 . S
H2430 C2437 0.950 . S
C2431 C2429 1.387 . S
C2431 C2433 1.390 . S
C2431 H2435 0.950 . S
H2432 C2428 0.950 . S
C2433 C2431 1.390 . S
C2433 C2434 1.387 . S
C2433 H2436 0.950 . S
C2434 C2433 1.387 . S
C2434 C2437 1.387 . S
H2435 C2431 0.950 . S
H2436 C2433 0.950 . S
C2437 C2428 1.390 . S
C2437 H2430 0.950 . S
C2437 C2434 1.387 . S
C2438 C2439 1.387 . S
C2438 H2442 0.950 . S
C2438 C2447 1.390 . S
C2439 C2438 1.387 . S
C2439 C2441 1.387 . S
H2440 C2447 0.950 . S
C2441 C2439 1.387 . S
C2441 C2443 1.390 . S
C2441 H2445 0.950 . S
H2442 C2438 0.950 . S
C2443 C2441 1.390 . S
C2443 C2444 1.387 . S
C2443 H2446 0.950 . S
C2444 C2443 1.387 . S
C2444 C2447 1.387 . S
H2445 C2441 0.950 . S
H2446 C2443 0.950 . S
C2447 C2438 1.390 . S
C2447 H2440 0.950 . S
C2447 C2444 1.387 . S
C2448 C2449 1.387 . S
C2448 H2452 0.950 . S
C2448 C2457 1.390 . S
C2449 C2448 1.387 . S
C2449 C2451 1.387 . S
H2450 C2457 0.950 . S
C2451 C2449 1.387 . S
C2451 C2453 1.390 . S
C2451 H2455 0.950 . S
H2452 C2448 0.950 . S
C2453 C2451 1.390 . S
C2453 C2454 1.387 . S
C2453 H2456 0.950 . S
C2454 C2453 1.387 . S
C2454 C2457 1.387 . S
H2455 C2451 0.950 . S
H2456 C2453 0.950 . S
C2457 C2448 1.390 . S
C2457 H2450 0.950 . S
C2457 C2454 1.387 . S
C2458 C2459 1.387 . S
C2458 H2462 0.950 . S
C2458 C2467 1.390 . S
C2459 C2458 1.387 . S
C2459 C2461 1.387 . S
H2460 C2467 0.950 . S
C2461 C2459 1.387 . S
C2461 C2463 1.390 . S
C2461 H2465 0.950 . S
H2462 C2458 0.950 . S
C2463 C2461 1.390 . S
C2463 C2464 1.387 . S
C2463 H2466 0.950 . S
C2464 C2463 1.387 . S
C2464 C2467 1.387 . S
H2465 C2461 0.950 . S
H2466 C2463 0.950 . S
C2467 C2458 1.390 . S
C2467 H2460 0.950 . S
C2467 C2464 1.387 . S
C2468 C2469 1.387 . S
C2468 H2472 0.950 . S
C2468 C2477 1.390 . S
C2469 C2468 1.387 . S
C2469 C2471 1.387 . S
H2470 C2477 0.950 . S
C2471 C2469 1.387 . S
C2471 C2473 1.390 . S
C2471 H2475 0.950 . S
H2472 C2468 0.950 . S
C2473 C2471 1.390 . S
C2473 C2474 1.387 . S
C2473 H2476 0.950 . S
C2474 C2473 1.387 . S
C2474 C2477 1.387 . S
H2475 C2471 0.950 . S
H2476 C2473 0.950 . S
C2477 C2468 1.390 . S
C2477 H2470 0.950 . S
C2477 C2474 1.387 . S
C2478 C2479 1.387 . S
C2478 H2482 0.950 . S
C2478 C2487 1.390 . S
C2479 C2478 1.387 . S
C2479 C2481 1.387 . S
H2480 C2487 0.950 . S
C2481 C2479 1.387 . S
C2481 C2483 1.390 . S
C2481 H2485 0.950 . S
H2482 C2478 0.950 . S
C2483 C2481 1.390 . S
C2483 C2484 1.387 . S
C2483 H2486 0.950 . S
C2484 C2483 1.387 . S
C2484 C2487 1.387 . S
H2485 C2481 0.950 . S
H2486 C2483 0.950 . S
C2487 C2478 1.390 . S
C2487 H2480 0.950 . S
C2487 C2484 1.387 . S
C2488 C2489 1.387 . S
C2488 H2492 0.950 . S
C2488 C2497 1.390 . S
C2489 C2488 1.387 . S
C2489 C2491 1.387 . S
H2490 C2497 0.950 . S
C2491 C2489 1.387 . S
C2491 C2493 1.390 . S
C2491 H2495 0.950 . S
H2492 C2488 0.950 . S
C2493 C2491 1.390 . S
C2493 C2494 1.387 . S
C2493 H2496 0.950 . S
C2494 C2493 1.387 . S
C2494 C2497 1.387 . S
H2495 C2491 0.950 . S
H2496 C2493 0.950 . S
C2497 C2488 1.390 . S
C2497 H2490 0.950 . S
C2497 C2494 1.387 . S
C2498 C2499 1.387 . S
C2498 H2502 0.950 . S
C2498 C2507 1.390 . S
C2499 C2498 1.387 . S
C2499 C2501 1.387 . S
H2500 C2507 0.950 . S
C2501 C2499 1.387 . S
C2501 C2503 1.390 . S
C2501 H2505 0.950 . S
H2502 C2498 0.950 . S
C2503 C2501 1.390 . S
C2503 C2504 1.387 . S
C2503 H2506 0.950 . S
C2504 C2503 1.387 . S
C2504 C2507 1.387 . S
H2505 C2501 0.950 . S
H2506 C2503 0.950 . S
C2507 C2498 1.390 . S
C2507 H2500 0.950 . S
C2507 C2504 1.387 . S
C2508 C2509 1.387 . S
C2508 H2512 0.950 . S
C2508 C2517 1.390 . S
C2509 C2508 1.387 . S
C2509 C2511 1.387 . S
H2510 C2517 0.950 . S
C2511 C2509 1.387 . S
C2511 C2513 1.390 . S
C2511 H2515 0.950 . S
H2512 C2508 0.950 . S
C2513 C2511 1.390 . S
C2513 C2514 1.387 . S
C2513 H2516 0.950 . S
C2514 C2513 1.387 . S
C2514 C2517 1.387 . S
H2515 C2511 0.950 . S
H2516 C2513 0.950 . S
C2517 C2508 1.390 . S
C2517 H2510 0.950 . S
C2517 C2514 1.387 . S
C2518 C2519 1.387 . S
C2518 H2522 0.950 . S
C2518 C2527 1.390 . S
C2519 C2518 1.387 . S
C2519 C2521 1.387 . S
H2520 C2527 0.950 . S
C2521 C2519 1.387 . S
C2521 C2523 1.390 . S
C2521 H2525 0.950 . S
H2522 C2518 0.950 . S
C2523 C2521 1.390 . S
C2523 C2524 1.387 . S
C2523 H2526 0.950 . S
C2524 C2523 1.387 . S
C2524 C2527 1.387 . S
H2525 C2521 0.950 . S
H2526 C2523 0.950 . S
C2527 C2518 1.390 . S
C2527 H2520 0.950 . S
C2527 C2524 1.387 . S
C2528 C2529 1.387 . S
C2528 H2532 0.950 . S
C2528 C2537 1.390 . S
C2529 C2528 1.387 . S
C2529 C2531 1.387 . S
H2530 C2537 0.950 . S
C2531 C2529 1.387 . S
C2531 C2533 1.390 . S
C2531 H2535 0.950 . S
H2532 C2528 0.950 . S
C2533 C2531 1.390 . S
C2533 C2534 1.387 . S
C2533 H2536 0.950 . S
C2534 C2533 1.387 . S
C2534 C2537 1.387 . S
H2535 C2531 0.950 . S
H2536 C2533 0.950 . S
C2537 C2528 1.390 . S
C2537 H2530 0.950 . S
C2537 C2534 1.387 . S
C2538 C2539 1.387 . S
C2538 H2542 0.950 . S
C2538 C2547 1.390 . S
C2539 C2538 1.387 . S
C2539 C2541 1.387 . S
H2540 C2547 0.950 . S
C2541 C2539 1.387 . S
C2541 C2543 1.390 . S
C2541 H2545 0.950 . S
H2542 C2538 0.950 . S
C2543 C2541 1.390 . S
C2543 C2544 1.387 . S
C2543 H2546 0.950 . S
C2544 C2543 1.387 . S
C2544 C2547 1.387 . S
H2545 C2541 0.950 . S
H2546 C2543 0.950 . S
C2547 C2538 1.390 . S
C2547 H2540 0.950 . S
C2547 C2544 1.387 . S
C2548 C2549 1.387 . S
C2548 H2552 0.950 . S
C2548 C2557 1.390 . S
C2549 C2548 1.387 . S
C2549 C2551 1.387 . S
H2550 C2557 0.950 . S
C2551 C2549 1.387 . S
C2551 C2553 1.390 . S
C2551 H2555 0.950 . S
H2552 C2548 0.950 . S
C2553 C2551 1.390 . S
C2553 C2554 1.387 . S
C2553 H2556 0.950 . S
C2554 C2553 1.387 . S
C2554 C2557 1.387 . S
H2555 C2551 0.950 . S
H2556 C2553 0.950 . S
C2557 C2548 1.390 . S
C2557 H2550 0.950 . S
C2557 C2554 1.387 . S
C2558 C2559 1.387 . S
C2558 H2562 0.950 . S
C2558 C2567 1.390 . S
C2559 C2558 1.387 . S
C2559 C2561 1.387 . S
H2560 C2567 0.950 . S
C2561 C2559 1.387 . S
C2561 C2563 1.390 . S
C2561 H2565 0.950 . S
H2562 C2558 0.950 . S
C2563 C2561 1.390 . S
C2563 C2564 1.387 . S
C2563 H2566 0.950 . S
C2564 C2563 1.387 . S
C2564 C2567 1.387 . S
H2565 C2561 0.950 . S
H2566 C2563 0.950 . S
C2567 C2558 1.390 . S
C2567 H2560 0.950 . S
C2567 C2564 1.387 . S
C2568 C2569 1.387 . S
C2568 H2572 0.950 . S
C2568 C2577 1.390 . S
C2569 C2568 1.387 . S
C2569 C2571 1.387 . S
H2570 C2577 0.950 . S
C2571 C2569 1.387 . S
C2571 C2573 1.390 . S
C2571 H2575 0.950 . S
H2572 C2568 0.950 . S
C2573 C2571 1.390 . S
C2573 C2574 1.387 . S
C2573 H2576 0.950 . S
C2574 C2573 1.387 . S
C2574 C2577 1.387 . S
H2575 C2571 0.950 . S
H2576 C2573 0.950 . S
C2577 C2568 1.390 . S
C2577 H2570 0.950 . S
C2577 C2574 1.387 . S
C2578 C2579 1.387 . S
C2578 H2582 0.950 . S
C2578 C2587 1.390 . S
C2579 C2578 1.387 . S
C2579 C2581 1.387 . S
H2580 C2587 0.950 . S
C2581 C2579 1.387 . S
C2581 C2583 1.390 . S
C2581 H2585 0.950 . S
H2582 C2578 0.950 . S
C2583 C2581 1.390 . S
C2583 C2584 1.387 . S
C2583 H2586 0.950 . S
C2584 C2583 1.387 . S
C2584 C2587 1.387 . S
H2585 C2581 0.950 . S
H2586 C2583 0.950 . S
C2587 C2578 1.390 . S
C2587 H2580 0.950 . S
C2587 C2584 1.387 . S
C2588 C2589 1.387 . S
C2588 H2592 0.950 . S
C2588 C2597 1.390 . S
C2589 C2588 1.387 . S
C2589 C2591 1.387 . S
H2590 C2597 0.950 . S
C2591 C2589 1.387 . S
C2591 C2593 1.390 . S
C2591 H2595 0.950 . S
H2592 C2588 0.950 . S
C2593 C2591 1.390 . S
C2593 C2594 1.387 . S
C2593 H2596 0.950 . S
C2594 C2593 1.387 . S
C2594 C2597 1.387 . S
H2595 C2591 0.950 . S
H2596 C2593 0.950 . S
C2597 C2588 1.390 . S
C2597 H2590 0.950 . S
C2597 C2594 1.387 . S
C2598 C2599 1.387 . S
C2598 H2602 0.950 . S
C2598 C2607 1.390 . S
C2599 C2598 1.387 . S
C2599 C2601 1.387 . S
H2600 C2607 0.950 . S
C2601 C2599 1.387 . S
C2601 C2603 1.390 . S
C2601 H2605 0.950 . S
H2602 C2598 0.950 . S
C2603 C2601 1.390 . S
C2603 C2604 1.387 . S
C2603 H2606 0.950 . S
C2604 C2603 1.387 . S
C2604 C2607 1.387 . S
H2605 C2601 0.950 . S
H2606 C2603 0.950 . S
C2607 C2598 1.390 . S
C2607 H2600 0.950 . S
C2607 C2604 1.387 . S
C2608 C2609 1.387 . S
C2608 H2612 0.950 . S
C2608 C2617 1.390 . S
C2609 C2608 1.387 . S
C2609 C2611 1.387 . S
H2610 C2617 0.950 . S
C2611 C2609 1.387 . S
C2611 C2613 1.390 . S
C2611 H2615 0.950 . S
H2612 C2608 0.950 . S
C2613 C2611 1.390 . S
C2613 C2614 1.387 . S
C2613 H2616 0.950 . S
C2614 C2613 1.387 . S
C2614 C2617 1.387 . S
H2615 C2611 0.950 . S
H2616 C2613 0.950 . S
C2617 C2608 1.390 . S
C2617 H2610 0.950 . S
C2617 C2614 1.387 . S
C2618 C2619 1.387 . S
C2618 H2622 0.950 . S
C2618 C2627 1.390 . S
C2619 C2618 1.387 . S
C2619 C2621 1.387 . S
H2620 C2627 0.950 . S
C2621 C2619 1.387 . S
C2621 C2623 1.390 . S
C2621 H2625 0.950 . S
H2622 C2618 0.950 . S
C2623 C2621 1.390 . S
C2623 C2624 1.387 . S
C2623 H2626 0.950 . S
C2624 C2623 1.387 . S
C2624 C2627 1.387 . S
H2625 C2621 0.950 . S
H2626 C2623 0.950 . S
C2627 C2618 1.390 . S
C2627 H2620 0.950 . S
C2627 C2624 1.387 . S
C2628 C2629 1.387 . S
C2628 H2632 0.950 . S
C2628 C2637 1.390 . S
C2629 C2628 1.387 . S
C2629 C2631 1.387 . S
H2630 C2637 0.950 . S
C2631 C2629 1.387 . S
C2631 C2633 1.390 . S
C2631 H2635 0.950 . S
H2632 C2628 0.950 . S
C2633 C2631 1.390 . S
C2633 C2634 1.387 . S
C2633 H2636 0.950 . S
C2634 C2633 1.387 . S
C2634 C2637 1.387 . S
H2635 C2631 0.950 . S
H2636 C2633 0.950 . S
C2637 C2628 1.390 . S
C2637 H2630 0.950 . S
C2637 C2634 1.387 . S
C2638 C2639 1.387 . S
C2638 H2642 0.950 . S
C2638 C2647 1.390 . S
C2639 C2638 1.387 . S
C2639 C2641 1.387 . S
H2640 C2647 0.950 . S
C2641 C2639 1.387 . S
C2641 C2643 1.390 . S
C2641 H2645 0.950 . S
H2642 C2638 0.950 . S
C2643 C2641 1.390 . S
C2643 C2644 1.387 . S
C2643 H2646 0.950 . S
C2644 C2643 1.387 . S
C2644 C2647 1.387 . S
H2645 C2641 0.950 . S
H2646 C2643 0.950 . S
C2647 C2638 1.390 . S
C2647 H2640 0.950 . S
C2647 C2644 1.387 . S
C2648 C2649 1.387 . S
C2648 H2652 0.950 . S
C2648 C2657 1.390 . S
C2649 C2648 1.387 . S
C2649 C2651 1.387 . S
H2650 C2657 0.950 . S
C2651 C2649 1.387 . S
C2651 C2653 1.390 . S
C2651 H2655 0.950 . S
H2652 C2648 0.950 . S
C2653 C2651 1.390 . S
C2653 C2654 1.387 . S
C2653 H2656 0.950 . S
C2654 C2653 1.387 . S
C2654 C2657 1.387 . S
H2655 C2651 0.950 . S
H2656 C2653 0.950 . S
C2657 C2648 1.390 . S
C2657 H2650 0.950 . S
C2657 C2654 1.387 . S
C2658 C2659 1.387 . S
C2658 H2662 0.950 . S
C2658 C2667 1.390 . S
C2659 C2658 1.387 . S
C2659 C2661 1.387 . S
H2660 C2667 0.950 . S
C2661 C2659 1.387 . S
C2661 C2663 1.390 . S
C2661 H2665 0.950 . S
H2662 C2658 0.950 . S
C2663 C2661 1.390 . S
C2663 C2664 1.387 . S
C2663 H2666 0.950 . S
C2664 C2663 1.387 . S
C2664 C2667 1.387 . S
H2665 C2661 0.950 . S
H2666 C2663 0.950 . S
C2667 C2658 1.390 . S
C2667 H2660 0.950 . S
C2667 C2664 1.387 . S
C2668 C2669 1.387 . S
C2668 H2672 0.950 . S
C2668 C2677 1.390 . S
C2669 C2668 1.387 . S
C2669 C2671 1.387 . S
H2670 C2677 0.950 . S
C2671 C2669 1.387 . S
C2671 C2673 1.390 . S
C2671 H2675 0.950 . S
H2672 C2668 0.950 . S
C2673 C2671 1.390 . S
C2673 C2674 1.387 . S
C2673 H2676 0.950 . S
C2674 C2673 1.387 . S
C2674 C2677 1.387 . S
H2675 C2671 0.950 . S
H2676 C2673 0.950 . S
C2677 C2668 1.390 . S
C2677 H2670 0.950 . S
C2677 C2674 1.387 . S
C2678 C2679 1.387 . S
C2678 H2682 0.950 . S
C2678 C2687 1.390 . S
C2679 C2678 1.387 . S
C2679 C2681 1.387 . S
H2680 C2687 0.950 . S
C2681 C2679 1.387 . S
C2681 C2683 1.390 . S
C2681 H2685 0.950 . S
H2682 C2678 0.950 . S
C2683 C2681 1.390 . S
C2683 C2684 1.387 . S
C2683 H2686 0.950 . S
C2684 C2683 1.387 . S
C2684 C2687 1.387 . S
H2685 C2681 0.950 . S
H2686 C2683 0.950 . S
C2687 C2678 1.390 . S
C2687 H2680 0.950 . S
C2687 C2684 1.387 . S
C2688 C2689 1.387 . S
C2688 H2692 0.950 . S
C2688 C2697 1.390 . S
C2689 C2688 1.387 . S
C2689 C2691 1.387 . S
H2690 C2697 0.950 . S
C2691 C2689 1.387 . S
C2691 C2693 1.390 . S
C2691 H2695 0.950 . S
H2692 C2688 0.950 . S
C2693 C2691 1.390 . S
C2693 C2694 1.387 . S
C2693 H2696 0.950 . S
C2694 C2693 1.387 . S
C2694 C2697 1.387 . S
H2695 C2691 0.950 . S
H2696 C2693 0.950 . S
C2697 C2688 1.390 . S
C2697 H2690 0.950 . S
C2697 C2694 1.387 . S
C2698 C2699 1.387 . S
C2698 H2702 0.950 . S
C2698 C2707 1.390 . S
C2699 C2698 1.387 . S
C2699 C2701 1.387 . S
H2700 C2707 0.950 . S
C2701 C2699 1.387 . S
C2701 C2703 1.390 . S
C2701 H2705 0.950 . S
H2702 C2698 0.950 . S
C2703 C2701 1.390 . S
C2703 C2704 1.387 . S
C2703 H2706 0.950 . S
C2704 C2703 1.387 . S
C2704 C2707 1.387 . S
H2705 C2701 0.950 . S
H2706 C2703 0.950 . S
C2707 C2698 1.390 . S
C2707 H2700 0.950 . S
C2707 C2704 1.387 . S
C2708 C2709 1.387 . S
C2708 H2712 0.950 . S
C2708 C2717 1.390 . S
C2709 C2708 1.387 . S
C2709 C2711 1.387 . S
H2710 C2717 0.950 . S
C2711 C2709 1.387 . S
C2711 C2713 1.390 . S
C2711 H2715 0.950 . S
H2712 C2708 0.950 . S
C2713 C2711 1.390 . S
C2713 C2714 1.387 . S
C2713 H2716 0.950 . S
C2714 C2713 1.387 . S
C2714 C2717 1.387 . S
H2715 C2711 0.950 . S
H2716 C2713 0.950 . S
C2717 C2708 1.390 . S
C2717 H2710 0.950 . S
C2717 C2714 1.387 . S
C2718 C2719 1.387 . S
C2718 H2722 0.950 . S
C2718 C2727 1.390 . S
C2719 C2718 1.387 . S
C2719 C2721 1.387 . S
H2720 C2727 0.950 . S
C2721 C2719 1.387 . S
C2721 C2723 1.390 . S
C2721 H2725 0.950 . S
H2722 C2718 0.950 . S
C2723 C2721 1.390 . S
C2723 C2724 1.387 . S
C2723 H2726 0.950 . S
C2724 C2723 1.387 . S
C2724 C2727 1.387 . S
H2725 C2721 0.950 . S
H2726 C2723 0.950 . S
C2727 C2718 1.390 . S
C2727 H2720 0.950 . S
C2727 C2724 1.387 . S
C2728 C2729 1.387 . S
C2728 H2732 0.950 . S
C2728 C2737 1.390 . S
C2729 C2728 1.387 . S
C2729 C2731 1.387 . S
H2730 C2737 0.950 . S
C2731 C2729 1.387 . S
C2731 C2733 1.390 . S
C2731 H2735 0.950 . S
H2732 C2728 0.950 . S
C2733 C2731 1.390 . S
C2733 C2734 1.387 . S
C2733 H2736 0.950 . S
C2734 C2733 1.387 . S
C2734 C2737 1.387 . S
H2735 C2731 0.950 . S
H2736 C2733 0.950 . S
C2737 C2728 1.390 . S
C2737 H2730 0.950 . S
C2737 C2734 1.387 . S
C2738 C2739 1.387 . S
C2738 H2742 0.950 . S
C2738 C2747 1.390 . S
C2739 C2738 1.387 . S
C2739 C2741 1.387 . S
H2740 C2747 0.950 . S
C2741 C2739 1.387 . S
C2741 C2743 1.390 . S
C2741 H2745 0.950 . S
H2742 C2738 0.950 . S
C2743 C2741 1.390 . S
C2743 C2744 1.387 . S
C2743 H2746 0.950 . S
C2744 C2743 1.387 . S
C2744 C2747 1.387 . S
H2745 C2741 0.950 . S
H2746 C2743 0.950 . S
C2747 C2738 1.390 . S
C2747 H2740 0.950 . S
C2747 C2744 1.387 . S
C2748 C2749 1.387 . S
C2748 H2752 0.950 . S
C2748 C2757 1.390 . S
C2749 C2748 1.387 . S
C2749 C2751 1.387 . S
H2750 C2757 0.950 . S
C2751 C2749 1.387 . S
C2751 C2753 1.390 . S
C2751 H2755 0.950 . S
H2752 C2748 0.950 . S
C2753 C2751 1.390 . S
C2753 C2754 1.387 . S
C2753 H2756 0.950 . S
C2754 C2753 1.387 . S
C2754 C2757 1.387 . S
H2755 C2751 0.950 . S
H2756 C2753 0.950 . S
C2757 C2748 1.390 . S
C2757 H2750 0.950 . S
C2757 C2754 1.387 . S
C2758 C2759 1.387 . S
C2758 H2762 0.950 . S
C2758 C2767 1.390 . S
C2759 C2758 1.387 . S
C2759 C2761 1.387 . S
H2760 C2767 0.950 . S
C2761 C2759 1.387 . S
C2761 C2763 1.390 . S
C2761 H2765 0.950 . S
H2762 C2758 0.950 . S
C2763 C2761 1.390 . S
C2763 C2764 1.387 . S
C2763 H2766 0.950 . S
C2764 C2763 1.387 . S
C2764 C2767 1.387 . S
H2765 C2761 0.950 . S
H2766 C2763 0.950 . S
C2767 C2758 1.390 . S
C2767 H2760 0.950 . S
C2767 C2764 1.387 . S
C2768 C2769 1.387 . S
C2768 H2772 0.950 . S
C2768 C2777 1.390 . S
C2769 C2768 1.387 . S
C2769 C2771 1.387 . S
H2770 C2777 0.950 . S
C2771 C2769 1.387 . S
C2771 C2773 1.390 . S
C2771 H2775 0.950 . S
H2772 C2768 0.950 . S
C2773 C2771 1.390 . S
C2773 C2774 1.387 . S
C2773 H2776 0.950 . S
C2774 C2773 1.387 . S
C2774 C2777 1.387 . S
H2775 C2771 0.950 . S
H2776 C2773 0.950 . S
C2777 C2768 1.390 . S
C2777 H2770 0.950 . S
C2777 C2774 1.387 . S
C2778 C2779 1.387 . S
C2778 H2782 0.950 . S
C2778 C2787 1.390 . S
C2779 C2778 1.387 . S
C2779 C2781 1.387 . S
H2780 C2787 0.950 . S
C2781 C2779 1.387 . S
C2781 C2783 1.390 . S
C2781 H2785 0.950 . S
H2782 C2778 0.950 . S
C2783 C2781 1.390 . S
C2783 C2784 1.387 . S
C2783 H2786 0.950 . S
C2784 C2783 1.387 . S
C2784 C2787 1.387 . S
H2785 C2781 0.950 . S
H2786 C2783 0.950 . S
C2787 C2778 1.390 . S
C2787 H2780 0.950 . S
C2787 C2784 1.387 . S
C2788 C2789 1.387 . S
C2788 H2792 0.950 . S
C2788 C2797 1.390 . S
C2789 C2788 1.387 . S
C2789 C2791 1.387 . S
H2790 C2797 0.950 . S
C2791 C2789 1.387 . S
C2791 C2793 1.390 . S
C2791 H2795 0.950 . S
H2792 C2788 0.950 . S
C2793 C2791 1.390 . S
C2793 C2794 1.387 . S
C2793 H2796 0.950 . S
C2794 C2793 1.387 . S
C2794 C2797 1.387 . S
H2795 C2791 0.950 . S
H2796 C2793 0.950 . S
C2797 C2788 1.390 . S
C2797 H2790 0.950 . S
C2797 C2794 1.387 . S
C2798 C2799 1.387 . S
C2798 H2802 0.950 . S
C2798 C2807 1.390 . S
C2799 C2798 1.387 . S
C2799 C2801 1.387 . S
H2800 C2807 0.950 . S
C2801 C2799 1.387 . S
C2801 C2803 1.390 . S
C2801 H2805 0.950 . S
H2802 C2798 0.950 . S
C2803 C2801 1.390 . S
C2803 C2804 1.387 . S
C2803 H2806 0.950 . S
C2804 C2803 1.387 . S
C2804 C2807 1.387 . S
H2805 C2801 0.950 . S
H2806 C2803 0.950 . S
C2807 C2798 1.390 . S
C2807 H2800 0.950 . S
C2807 C2804 1.387 . S
C2808 C2809 1.387 . S
C2808 H2812 0.950 . S
C2808 C2817 1.390 . S
C2809 C2808 1.387 . S
C2809 C2811 1.387 . S
H2810 C2817 0.950 . S
C2811 C2809 1.387 . S
C2811 C2813 1.390 . S
C2811 H2815 0.950 . S
H2812 C2808 0.950 . S
C2813 C2811 1.390 . S
C2813 C2814 1.387 . S
C2813 H2816 0.950 . S
C2814 C2813 1.387 . S
C2814 C2817 1.387 . S
H2815 C2811 0.950 . S
H2816 C2813 0.950 . S
C2817 C2808 1.390 . S
C2817 H2810 0.950 . S
C2817 C2814 1.387 . S
C2818 C2819 1.387 . S
C2818 H2822 0.950 . S
C2818 C2827 1.390 . S
C2819 C2818 1.387 . S
C2819 C2821 1.387 . S
H2820 C2827 0.950 . S
C2821 C2819 1.387 . S
C2821 C2823 1.390 . S
C2821 H2825 0.950 . S
H2822 C2818 0.950 . S
C2823 C2821 1.390 . S
C2823 C2824 1.387 . S
C2823 H2826 0.950 . S
C2824 C2823 1.387 . S
C2824 C2827 1.387 . S
H2825 C2821 0.950 . S
H2826 C2823 0.950 . S
C2827 C2818 1.390 . S
C2827 H2820 0.950 . S
C2827 C2824 1.387 . S
C2828 C2829 1.387 . S
C2828 H2832 0.950 . S
C2828 C2837 1.390 . S
C2829 C2828 1.387 . S
C2829 C2831 1.387 . S
H2830 C2837 0.950 . S
C2831 C2829 1.387 . S
C2831 C2833 1.390 . S
C2831 H2835 0.950 . S
H2832 C2828 0.950 . S
C2833 C2831 1.390 . S
C2833 C2834 1.387 . S
C2833 H2836 0.950 . S
C2834 C2833 1.387 . S
C2834 C2837 1.387 . S
H2835 C2831 0.950 . S
H2836 C2833 0.950 . S
C2837 C2828 1.390 . S
C2837 H2830 0.950 . S
C2837 C2834 1.387 . S
C2838 C2839 1.387 . S
C2838 H2842 0.950 . S
C2838 C2847 1.390 . S
C2839 C2838 1.387 . S
C2839 C2841 1.387 . S
H2840 C2847 0.950 . S
C2841 C2839 1.387 . S
C2841 C2843 1.390 . S
C2841 H2845 0.950 . S
H2842 C2838 0.950 . S
C2843 C2841 1.390 . S
C2843 C2844 1.387 . S
C2843 H2846 0.950 . S
C2844 C2843 1.387 . S
C2844 C2847 1.387 . S
H2845 C2841 0.950 . S
H2846 C2843 0.950 . S
C2847 C2838 1.390 . S
C2847 H2840 0.950 . S
C2847 C2844 1.387 . S
C2848 C2849 1.387 . S
C2848 H2852 0.950 . S
C2848 C2857 1.390 . S
C2849 C2848 1.387 . S
C2849 C2851 1.387 . S
H2850 C2857 0.950 . S
C2851 C2849 1.387 . S
C2851 C2853 1.390 . S
C2851 H2855 0.950 . S
H2852 C2848 0.950 . S
C2853 C2851 1.390 . S
C2853 C2854 1.387 . S
C2853 H2856 0.950 . S
C2854 C2853 1.387 . S
C2854 C2857 1.387 . S
H2855 C2851 0.950 . S
H2856 C2853 0.950 . S
C2857 C2848 1.390 . S
C2857 H2850 0.950 . S
C2857 C2854 1.387 . S
C2858 C2859 1.387 . S
C2858 H2862 0.950 . S
C2858 C2867 1.390 . S
C2859 C2858 1.387 . S
C2859 C2861 1.387 . S
H2860 C2867 0.950 . S
C2861 C2859 1.387 . S
C2861 C2863 1.390 . S
C2861 H2865 0.950 . S
H2862 C2858 0.950 . S
C2863 C2861 1.390 . S
C2863 C2864 1.387 . S
C2863 H2866 0.950 . S
C2864 C2863 1.387 . S
C2864 C2867 1.387 . S
H2865 C2861 0.950 . S
H2866 C2863 0.950 . S
C2867 C2858 1.390 . S
C2867 H2860 0.950 . S
C2867 C2864 1.387 . S
C2868 C2869 1.387 . S
C2868 H2872 0.950 . S
C2868 C2877 1.390 . S
C2869 C2868 1.387 . S
C2869 C2871 1.387 . S
H2870 C2877 0.950 . S
C2871 C2869 1.387 . S
C2871 C2873 1.390 . S
C2871 H2875 0.950 . S
H2872 C2868 0.950 . S
C2873 C2871 1.390 . S
C2873 C2874 1.387 . S
C2873 H2876 0.950 . S
C2874 C2873 1.387 . S
C2874 C2877 1.387 . S
H2875 C2871 0.950 . S
H2876 C2873 0.950 . S
C2877 C2868 1.390 . S
C2877 H2870 0.950 . S
C2877 C2874 1.387 . S
C2878 C2879 1.387 . S
C2878 H2882 0.950 . S
C2878 C2887 1.390 . S
C2879 C2878 1.387 . S
C2879 C2881 1.387 . S
H2880 C2887 0.950 . S
C2881 C2879 1.387 . S
C2881 C2883 1.390 . S
C2881 H2885 0.950 . S
H2882 C2878 0.950 . S
C2883 C2881 1.390 . S
C2883 C2884 1.387 . S
C2883 H2886 0.950 . S
C2884 C2883 1.387 . S
C2884 C2887 1.387 . S
H2885 C2881 0.950 . S
H2886 C2883 0.950 . S
C2887 C2878 1.390 . S
C2887 H2880 0.950 . S
C2887 C2884 1.387 . S
C2888 C2889 1.387 . S
C2888 H2892 0.950 . S
C2888 C2897 1.390 . S
C2889 C2888 1.387 . S
C2889 C2891 1.387 . S
H2890 C2897 0.950 . S
C2891 C2889 1.387 . S
C2891 C2893 1.390 . S
C2891 H2895 0.950 . S
H2892 C2888 0.950 . S
C2893 C2891 1.390 . S
C2893 C2894 1.387 . S
C2893 H2896 0.950 . S
C2894 C2893 1.387 . S
C2894 C2897 1.387 . S
H2895 C2891 0.950 . S
H2896 C2893 0.950 . S
C2897 C2888 1.390 . S
C2897 H2890 0.950 . S
C2897 C2894 1.387 . S
C2898 C2899 1.387 . S
C2898 H2902 0.950 . S
C2898 C2907 1.390 . S
C2899 C2898 1.387 . S
C2899 C2901 1.387 . S
H2900 C2907 0.950 . S
C2901 C2899 1.387 . S
C2901 C2903 1.390 . S
C2901 H2905 0.950 . S
H2902 C2898 0.950 . S
C2903 C2901 1.390 . S
C2903 C2904 1.387 . S
C2903 H2906 0.950 . S
C2904 C2903 1.387 . S
C2904 C2907 1.387 . S
H2905 C2901 0.950 . S
H2906 C2903 0.950 . S
C2907 C2898 1.390 . S
C2907 H2900 0.950 . S
C2907 C2904 1.387 . S
C2908 C2909 1.387 . S
C2908 H2912 0.950 . S
C2908 C2917 1.390 . S
C2909 C2908 1.387 . S
C2909 C2911 1.387 . S
H2910 C2917 0.950 . S
C2911 C2909 1.387 . S
C2911 C2913 1.390 . S
C2911 H2915 0.950 . S
H2912 C2908 0.950 . S
C2913 C2911 1.390 . S
C2913 C2914 1.387 . S
C2913 H2916 0.950 . S
C2914 C2913 1.387 . S
C2914 C2917 1.387 . S
H2915 C2911 0.950 . S
H2916 C2913 0.950 . S
C2917 C2908 1.390 . S
C2917 H2910 0.950 . S
C2917 C2914 1.387 . S
C2918 C2919 1.387 . S
C2918 H2922 0.950 . S
C2918 C2927 1.390 . S
C2919 C2918 1.387 . S
C2919 C2921 1.387 . S
H2920 C2927 0.950 . S
C2921 C2919 1.387 . S
C2921 C2923 1.390 . S
C2921 H2925 0.950 . S
H2922 C2918 0.950 . S
C2923 C2921 1.390 . S
C2923 C2924 1.387 . S
C2923 H2926 0.950 . S
C2924 C2923 1.387 . S
C2924 C2927 1.387 . S
H2925 C2921 0.950 . S
H2926 C2923 0.950 . S
C2927 C2918 1.390 . S
C2927 H2920 0.950 . S
C2927 C2924 1.387 . S
C2928 C2929 1.387 . S
C2928 H2932 0.950 . S
C2928 C2937 1.390 . S
C2929 C2928 1.387 . S
C2929 C2931 1.387 . S
H2930 C2937 0.950 . S
C2931 C2929 1.387 . S
C2931 C2933 1.390 . S
C2931 H2935 0.950 . S
H2932 C2928 0.950 . S
C2933 C2931 1.390 . S
C2933 C2934 1.387 . S
C2933 H2936 0.950 . S
C2934 C2933 1.387 . S
C2934 C2937 1.387 . S
H2935 C2931 0.950 . S
H2936 C2933 0.950 . S
C2937 C2928 1.390 . S
C2937 H2930 0.950 . S
C2937 C2934 1.387 . S
C2938 C2939 1.387 . S
C2938 H2942 0.950 . S
C2938 C2947 1.390 . S
C2939 C2938 1.387 . S
C2939 C2941 1.387 . S
H2940 C2947 0.950 . S
C2941 C2939 1.387 . S
C2941 C2943 1.390 . S
C2941 H2945 0.950 . S
H2942 C2938 0.950 . S
C2943 C2941 1.390 . S
C2943 C2944 1.387 . S
C2943 H2946 0.950 . S
C2944 C2943 1.387 . S
C2944 C2947 1.387 . S
H2945 C2941 0.950 . S
H2946 C2943 0.950 . S
C2947 C2938 1.390 . S
C2947 H2940 0.950 . S
C2947 C2944 1.387 . S
C2948 C2949 1.387 . S
C2948 H2952 0.950 . S
C2948 C2957 1.390 . S
C2949 C2948 1.387 . S
C2949 C2951 1.387 . S
H2950 C2957 0.950 . S
C2951 C2949 1.387 . S
C2951 C2953 1.390 . S
C2951 H2955 0.950 . S
H2952 C2948 0.950 . S
C2953 C2951 1.390 . S
C2953 C2954 1.387 . S
C2953 H2956 0.950 . S
C2954 C2953 1.387 . S
C2954 C2957 1.387 . S
H2955 C2951 0.950 . S
H2956 C2953 0.950 . S
C2957 C2948 1.390 . S
C2957 H2950 0.950 . S
C2957 C2954 1.387 . S
C2958 C2959 1.387 . S
C2958 H2962 0.950 . S
C2958 C2967 1.390 . S
C2959 C2958 1.387 . S
C2959 C2961 1.387 . S
H2960 C2967 0.950 . S
C2961 C2959 1.387 . S
C2961 C2963 1.390 . S
C2961 H2965 0.950 . S
H2962 C2958 0.950 . S
C2963 C2961 1.390 . S
C2963 C2964 1.387 . S
C2963 H2966 0.950 . S
C2964 C2963 1.387 . S
C2964 C2967 1.387 . S
H2965 C2961 0.950 . S
H2966 C2963 0.950 . S
C2967 C2958 1.390 . S
C2967 H2960 0.950 . S
C2967 C2964 1.387 . S
C2968 C2969 1.387 . S
C2968 H2972 0.950 . S
C2968 C2977 1.390 . S
C2969 C2968 1.387 . S
C2969 C2971 1.387 . S
H2970 C2977 0.950 . S
C2971 C2969 1.387 . S
C2971 C2973 1.390 . S
C2971 H2975 0.950 . S
H2972 C2968 0.950 . S
C2973 C2971 1.390 . S
C2973 C2974 1.387 . S
C2973 H2976 0.950 . S
C2974 C2973 1.387 . S
C2974 C2977 1.387 . S
H2975 C2971 0.950 . S
H2976 C2973 0.950 . S
C2977 C2968 1.390 . S
C2977 H2970 0.950 . S
C2977 C2974 1.387 . S
C2978 C2979 1.387 . S
C2978 H2982 0.950 . S
C2978 C2987 1.390 . S
C2979 C2978 1.387 . S
C2979 C2981 1.387 . S
H2980 C2987 0.950 . S
C2981 C2979 1.387 . S
C2981 C2983 1.390 . S
C2981 H2985 0.950 . S
H2982 C2978 0.950 . S
C2983 C2981 1.390 . S
C2983 C2984 1.387 . S
C2983 H2986 0.950 . S
C2984 C2983 1.387 . S
C2984 C2987 1.387 . S
H2985 C2981 0.950 . S
H2986 C2983 0.950 . S
C2987 C2978 1.390 . S
C2987 H2980 0.950 . S
C2987 C2984 1.387 . S
C2988 C2989 1.387 . S
C2988 H2992 0.950 . S
C2988 C2997 1.390 . S
C2989 C2988 1.387 . S
C2989 C2991 1.387 . S
H2990 C2997 0.950 . S
C2991 C2989 1.387 . S
C2991 C2993 1.390 . S
C2991 H2995 0.950 . S
H2992 C2988 0.950 . S
C2993 C2991 1.390 . S
C2993 C2994 1.387 . S
C2993 H2996 0.950 . S
C2994 C2993 1.387 . S
C2994 C2997 1.387 . S
H2995 C2991 0.950 . S
H2996 C2993 0.950 . S
C2997 C2988 1.390 . S
C2997 H2990 0.950 . S
C2997 C2994 1.387 . S
C2998 C2999 1.387 . S
C2998 H3002 0.950 . S
C2998 C3007 1.390 . S
C2999 C2998 1.387 . S
C2999 C3001 1.387 . S
H3000 C3007 0.950 . S
C3001 C2999 1.387 . S
C3001 C3003 1.390 . S
C3001 H3005 0.950 . S
H3002 C2998 0.950 . S
C3003 C3001 1.390 . S
C3003 C3004 1.387 . S
C3003 H3006 0.950 . S
C3004 C3003 1.387 . S
C3004 C3007 1.387 . S
H3005 C3001 0.950 . S
H3006 C3003 0.950 . S
C3007 C2998 1.390 . S
C3007 H3000 0.950 . S
C3007 C3004 1.387 . S
C3008 C3009 1.387 . S
C3008 H3012 0.950 . S
C3008 C3017 1.390 . S
C3009 C3008 1.387 . S
C3009 C3011 1.387 . S
H3010 C3017 0.950 . S
C3011 C3009 1.387 . S
C3011 C3013 1.390 . S
C3011 H3015 0.950 . S
H3012 C3008 0.950 . S
C3013 C3011 1.390 . S
C3013 C3014 1.387 . S
C3013 H3016 0.950 . S
C3014 C3013 1.387 . S
C3014 C3017 1.387 . S
H3015 C3011 0.950 . S
H3016 C3013 0.950 . S
C3017 C3008 1.390 . S
C3017 H3010 0.950 . S
C3017 C3014 1.387 . S
C3018 C3019 1.387 . S
C3018 H3022 0.950 . S
C3018 C3027 1.390 . S
C3019 C3018 1.387 . S
C3019 C3021 1.387 . S
H3020 C3027 0.950 . S
C3021 C3019 1.387 . S
C3021 C3023 1.390 . S
C3021 H3025 0.950 . S
H3022 C3018 0.950 . S
C3023 C3021 1.390 . S
C3023 C3024 1.387 . S
C3023 H3026 0.950 . S
C3024 C3023 1.387 . S
C3024 C3027 1.387 . S
H3025 C3021 0.950 . S
H3026 C3023 0.950 . S
C3027 C3018 1.390 . S
C3027 H3020 0.950 . S
C3027 C3024 1.387 . S
C3028 C3029 1.387 . S
C3028 H3032 0.950 . S
C3028 C3037 1.390 . S
C3029 C3028 1.387 . S
C3029 C3031 1.387 . S
H3030 C3037 0.950 . S
C3031 C3029 1.387 . S
C3031 C3033 1.390 . S
C3031 H3035 0.950 . S
H3032 C3028 0.950 . S
C3033 C3031 1.390 . S
C3033 C3034 1.387 . S
C3033 H3036 0.950 . S
C3034 C3033 1.387 . S
C3034 C3037 1.387 . S
H3035 C3031 0.950 . S
H3036 C3033 0.950 . S
C3037 C3028 1.390 . S
C3037 H3030 0.950 . S
C3037 C3034 1.387 . S
C3038 C3039 1.387 . S
C3038 H3042 0.950 . S
C3038 C3047 1.390 . S
C3039 C3038 1.387 . S
C3039 C3041 1.387 . S
H3040 C3047 0.950 . S
C3041 C3039 1.387 . S
C3041 C3043 1.390 . S
C3041 H3045 0.950 . S
H3042 C3038 0.950 . S
C3043 C3041 1.390 . S
C3043 C3044 1.387 . S
C3043 H3046 0.950 . S
C3044 C3043 1.387 . S
C3044 C3047 1.387 . S
H3045 C3041 0.950 . S
H3046 C3043 0.950 . S
C3047 C3038 1.390 . S
C3047 H3040 0.950 . S
C3047 C3044 1.387 . S
C3048 C3049 1.387 . S
C3048 H3052 0.950 . S
C3048 C3057 1.390 . S
C3049 C3048 1.387 . S
C3049 C3051 1.387 . S
H3050 C3057 0.950 . S
C3051 C3049 1.387 . S
C3051 C3053 1.390 . S
C3051 H3055 0.950 . S
H3052 C3048 0.950 . S
C3053 C3051 1.390 . S
C3053 C3054 1.387 . S
C3053 H3056 0.950 . S
C3054 C3053 1.387 . S
C3054 C3057 1.387 . S
H3055 C3051 0.950 . S
H3056 C3053 0.950 . S
C3057 C3048 1.390 . S
C3057 H3050 0.950 . S
C3057 C3054 1.387 . S
C3058 C3059 1.387 . S
C3058 H3062 0.950 . S
C3058 C3067 1.390 . S
C3059 C3058 1.387 . S
C3059 C3061 1.387 . S
H3060 C3067 0.950 . S
C3061 C3059 1.387 . S
C3061 C3063 1.390 . S
C3061 H3065 0.950 . S
H3062 C3058 0.950 . S
C3063 C3061 1.390 . S
C3063 C3064 1.387 . S
C3063 H3066 0.950 . S
C3064 C3063 1.387 . S
C3064 C3067 1.387 . S
H3065 C3061 0.950 . S
H3066 C3063 0.950 . S
C3067 C3058 1.390 . S
C3067 H3060 0.950 . S
C3067 C3064 1.387 . S
C3068 C3069 1.387 . S
C3068 H3072 0.950 . S
C3068 C3077 1.390 . S
C3069 C3068 1.387 . S
C3069 C3071 1.387 . S
H3070 C3077 0.950 . S
C3071 C3069 1.387 . S
C3071 C3073 1.390 . S
C3071 H3075 0.950 . S
H3072 C3068 0.950 . S
C3073 C3071 1.390 . S
C3073 C3074 1.387 . S
C3073 H3076 0.950 . S
C3074 C3073 1.387 . S
C3074 C3077 1.387 . S
H3075 C3071 0.950 . S
H3076 C3073 0.950 . S
C3077 C3068 1.390 . S
C3077 H3070 0.950 . S
C3077 C3074 1.387 . S
C3078 C3079 1.387 . S
C3078 H3082 0.950 . S
C3078 C3087 1.390 . S
C3079 C3078 1.387 . S
C3079 C3081 1.387 . S
H3080 C3087 0.950 . S
C3081 C3079 1.387 . S
C3081 C3083 1.390 . S
C3081 H3085 0.950 . S
H3082 C3078 0.950 . S
C3083 C3081 1.390 . S
C3083 C3084 1.387 . S
C3083 H3086 0.950 . S
C3084 C3083 1.387 . S
C3084 C3087 1.387 . S
H3085 C3081 0.950 . S
H3086 C3083 0.950 . S
C3087 C3078 1.390 . S
C3087 H3080 0.950 . S
C3087 C3084 1.387 . S
C3088 C3089 1.387 . S
C3088 H3092 0.950 . S
C3088 C3097 1.390 . S
C3089 C3088 1.387 . S
C3089 C3091 1.387 . S
H3090 C3097 0.950 . S
C3091 C3089 1.387 . S
C3091 C3093 1.390 . S
C3091 H3095 0.950 . S
H3092 C3088 0.950 . S
C3093 C3091 1.390 . S
C3093 C3094 1.387 . S
C3093 H3096 0.950 . S
C3094 C3093 1.387 . S
C3094 C3097 1.387 . S
H3095 C3091 0.950 . S
H3096 C3093 0.950 . S
C3097 C3088 1.390 . S
C3097 H3090 0.950 . S
C3097 C3094 1.387 . S
C3098 C3099 1.387 . S
C3098 H3102 0.950 . S
C3098 C3107 1.390 . S
C3099 C3098 1.387 . S
C3099 C3101 1.387 . S
H3100 C3107 0.950 . S
C3101 C3099 1.387 . S
C3101 C3103 1.390 . S
C3101 H3105 0.950 . S
H3102 C3098 0.950 . S
C3103 C3101 1.390 . S
C3103 C3104 1.387 . S
C3103 H3106 0.950 . S
C3104 C3103 1.387 . S
C3104 C3107 1.387 . S
H3105 C3101 0.950 . S
H3106 C3103 0.950 . S
C3107 C3098 1.390 . S
C3107 H3100 0.950 . S
C3107 C3104 1.387 . S
C3108 C3109 1.387 . S
C3108 H3112 0.950 . S
C3108 C3117 1.390 . S
C3109 C3108 1.387 . S
C3109 C3111 1.387 . S
H3110 C3117 0.950 . S
C3111 C3109 1.387 . S
C3111 C3113 1.390 . S
C3111 H3115 0.950 . S
H3112 C3108 0.950 . S
C3113 C3111 1.390 . S
C3113 C3114 1.387 . S
C3113 H3116 0.950 . S
C3114 C3113 1.387 . S
C3114 C3117 1.387 . S
H3115 C3111 0.950 . S
H3116 C3113 0.950 . S
C3117 C3108 1.390 . S
C3117 H3110 0.950 . S
C3117 C3114 1.387 . S
C3118 C3119 1.387 . S
C3118 H3122 0.950 . S
C3118 C3127 1.390 . S
C3119 C3118 1.387 . S
C3119 C3121 1.387 . S
H3120 C3127 0.950 . S
C3121 C3119 1.387 . S
C3121 C3123 1.390 . S
C3121 H3125 0.950 . S
H3122 C3118 0.950 . S
C3123 C3121 1.390 . S
C3123 C3124 1.387 . S
C3123 H3126 0.950 . S
C3124 C3123 1.387 . S
C3124 C3127 1.387 . S
H3125 C3121 0.950 . S
H3126 C3123 0.950 . S
C3127 C3118 1.390 . S
C3127 H3120 0.950 . S
C3127 C3124 1.387 . S
C3128 C3129 1.387 . S
C3128 H3132 0.950 . S
C3128 C3137 1.390 . S
C3129 C3128 1.387 . S
C3129 C3131 1.387 . S
H3130 C3137 0.950 . S
C3131 C3129 1.387 . S
C3131 C3133 1.390 . S
C3131 H3135 0.950 . S
H3132 C3128 0.950 . S
C3133 C3131 1.390 . S
C3133 C3134 1.387 . S
C3133 H3136 0.950 . S
C3134 C3133 1.387 . S
C3134 C3137 1.387 . S
H3135 C3131 0.950 . S
H3136 C3133 0.950 . S
C3137 C3128 1.390 . S
C3137 H3130 0.950 . S
C3137 C3134 1.387 . S
C3138 C3139 1.387 . S
C3138 H3142 0.950 . S
C3138 C3147 1.390 . S
C3139 C3138 1.387 . S
C3139 C3141 1.387 . S
H3140 C3147 0.950 . S
C3141 C3139 1.387 . S
C3141 C3143 1.390 . S
C3141 H3145 0.950 . S
H3142 C3138 0.950 . S
C3143 C3141 1.390 . S
C3143 C3144 1.387 . S
C3143 H3146 0.950 . S
C3144 C3143 1.387 . S
C3144 C3147 1.387 . S
H3145 C3141 0.950 . S
H3146 C3143 0.950 . S
C3147 C3138 1.390 . S
C3147 H3140 0.950 . S
C3147 C3144 1.387 . S
C3148 C3149 1.387 . S
C3148 H3152 0.950 . S
C3148 C3157 1.390 . S
C3149 C3148 1.387 . S
C3149 C3151 1.387 . S
H3150 C3157 0.950 . S
C3151 C3149 1.387 . S
C3151 C3153 1.390 . S
C3151 H3155 0.950 . S
H3152 C3148 0.950 . S
C3153 C3151 1.390 . S
C3153 C3154 1.387 . S
C3153 H3156 0.950 . S
C3154 C3153 1.387 . S
C3154 C3157 1.387 . S
H3155 C3151 0.950 . S
H3156 C3153 0.950 . S
C3157 C3148 1.390 . S
C3157 H3150 0.950 . S
C3157 C3154 1.387 . S
C3158 C3159 1.387 . S
C3158 H3162 0.950 . S
C3158 C3167 1.390 . S
C3159 C3158 1.387 . S
C3159 C3161 1.387 . S
H3160 C3167 0.950 . S
C3161 C3159 1.387 . S
C3161 C3163 1.390 . S
C3161 H3165 0.950 . S
H3162 C3158 0.950 . S
C3163 C3161 1.390 . S
C3163 C3164 1.387 . S
C3163 H3166 0.950 . S
C3164 C3163 1.387 . S
C3164 C3167 1.387 . S
H3165 C3161 0.950 . S
H3166 C3163 0.950 . S
C3167 C3158 1.390 . S
C3167 H3160 0.950 . S
C3167 C3164 1.387 . S
C1249 C4 1.716 . S
C1254 C400 1.716 . S
C1259 C719 1.716 . S
C1264 C17 1.716 . S
C1269 C30 1.716 . S
C1274 C374 1.716 . S
C1279 C43 1.716 . S
C1284 C693 1.716 . S
C1289 C342 1.716 . S
C1294 C62 1.716 . S
C1299 C69 1.716 . S
C1304 C673 1.716 . S
C1309 C316 1.716 . S
C1314 C88 1.716 . S
C1319 C101 1.716 . S
C1324 C641 1.716 . S
C1329 C446 1.716 . S
C1334 C108 1.716 . S
C1339 C127 1.716 . S
C1344 C777 1.716 . S
C1349 C134 1.716 . S
C1354 C426 1.716 . S
C1359 C153 1.716 . S
C1364 C751 1.716 . S
C1369 C166 1.716 . S
C1374 C504 1.716 . S
C1379 C823 1.716 . S
C1384 C173 1.716 . S
C1389 C472 1.716 . S
C1394 C192 1.716 . S
C1399 C199 1.716 . S
C1404 C797 1.716 . S
C1409 C849 1.716 . S
C1414 C212 1.716 . S
C1419 C842 1.716 . S
C1424 C231 1.716 . S
C1429 C244 1.716 . S
C1434 C927 1.716 . S
C1439 C1213 1.716 . S
C1444 C257 1.716 . S
C1449 C608 1.716 . S
C1454 C264 1.716 . S
C1459 C277 1.716 . S
C1464 C1187 1.716 . S
C1469 C296 1.716 . S
C1474 C576 1.716 . S
C1479 C309 1.716 . S
C1484 C868 1.716 . S
C1489 C329 1.716 . S
C1494 C1037 1.716 . S
C1499 C355 1.716 . S
C1504 C1011 1.716 . S
C1509 C387 1.716 . S
C1514 C979 1.716 . S
C1519 C413 1.716 . S
C1524 C959 1.716 . S
C1529 C1083 1.716 . S
C1534 C433 1.716 . S
C1539 C459 1.716 . S
C1544 C1063 1.716 . S
C1549 C1135 1.716 . S
C1554 C485 1.716 . S
C1559 C517 1.716 . S
C1564 C1109 1.716 . S
C1569 C524 1.716 . S
C1574 C1167 1.716 . S
C1579 C543 1.716 . S
C1584 C1154 1.716 . S
C1589 C550 1.716 . S
C1594 C1239 1.716 . S
C1599 C901 1.716 . S
C1604 C563 1.716 . S
C1609 C881 1.716 . S
C1614 C589 1.716 . S
C1619 C615 1.716 . S
C1624 C1180 1.716 . S
C1629 C634 1.716 . S
C1634 C1024 1.716 . S
C1639 C998 1.716 . S
C1644 C660 1.716 . S
C1649 C680 1.716 . S
C1654 C966 1.716 . S
C1659 C712 1.716 . S
C1664 C940 1.716 . S
C1669 C1070 1.716 . S
C1674 C732 1.716 . S
C1679 C1050 1.716 . S
C1684 C758 1.716 . S
C1689 C784 1.716 . S
C1694 C1128 1.716 . S
C1699 C1102 1.716 . S
C1704 C816 1.716 . S
C1709 C894 1.716 . S
C1714 C1232 1.716 . S
C1719 C920 1.716 . S
C1724 C1206 1.716 . S
C1729 C10 1.467 . S
C1734 C725 1.468 . S
C1739 C23 1.468 . S
C1744 C368 1.467 . S
C1749 C36 1.466 . S
C1754 C699 1.468 . S
C1759 C394 1.468 . S
C1764 C49 1.466 . S
C1769 C56 1.467 . S
C1774 C335 1.466 . S
C1779 C75 1.468 . S
C1784 C654 1.467 . S
C1789 C82 1.468 . S
C1794 C361 1.466 . S
C1799 C628 1.468 . S
C1804 C95 1.466 . S
C1809 C114 1.467 . S
C1814 C270 1.467 . S
C1819 C121 1.467 . S
C1824 C1161 1.466 . S
C1829 C1174 1.468 . S
C1834 C140 1.466 . S
C1839 C147 1.468 . S
C1844 C1193 1.466 . S
C1849 C933 1.467 . S
C1854 C160 1.468 . S
C1859 C1219 1.467 . S
C1864 C179 1.468 . S
C1869 C186 1.467 . S
C1874 C914 1.466 . S
C1879 C836 1.468 . S
C1884 C205 1.467 . S
C1889 C829 1.466 . S
C1894 C218 1.468 . S
C1899 C1057 1.468 . S
C1904 C225 1.466 . S
C1909 C238 1.467 . S
C1914 C1076 1.466 . S
C1919 C251 1.468 . S
C1924 C1089 1.467 . S
C1929 C283 1.468 . S
C1934 C1115 1.468 . S
C1939 C290 1.467 . S
C1944 C810 1.466 . S
C1949 C790 1.468 . S
C1954 C303 1.468 . S
C1959 C322 1.468 . S
C1964 C1031 1.466 . S
C1969 C1005 1.467 . S
C1974 C348 1.468 . S
C1979 C972 1.466 . S
C1984 C381 1.468 . S
C1989 C407 1.466 . S
C1994 C946 1.467 . S
C1999 C420 1.468 . S
C2004 C582 1.468 . S
C2009 C439 1.466 . S
C2014 C855 1.468 . S
C2019 C452 1.467 . S
C2024 C862 1.468 . S
C2029 C465 1.467 . S
C2034 C875 1.467 . S
C2039 C478 1.467 . S
C2044 C1245 1.468 . S
C2049 C907 1.466 . S
C2054 C491 1.468 . S
C2059 C1226 1.466 . S
C2064 C498 1.467 . S
C2069 C1148 1.468 . S
C2074 C511 1.467 . S
C2079 C1141 1.466 . S
C2084 C530 1.467 . S
C2089 C537 1.468 . S
C2094 C745 1.467 . S
C2099 C556 1.466 . S
C2104 C764 1.468 . S
C2109 C569 1.466 . S
C2114 C771 1.467 . S
C2119 C803 1.468 . S
C2124 C595 1.466 . S
C2129 C1122 1.466 . S
C2134 C602 1.467 . S
C2139 C1096 1.468 . S
C2144 C621 1.466 . S
C2149 C647 1.466 . S
C2154 C992 1.468 . S
C2159 C667 1.468 . S
C2164 C1018 1.467 . S
C2169 C953 1.468 . S
C2174 C686 1.467 . S
C2179 C985 1.468 . S
C2184 C706 1.467 . S
C2189 C888 1.466 . S
C2194 C738 1.467 . S
C2199 C1200 1.467 . S
C2204 C1044 1.467 . S
C2209 C3 1.301 . S
C2214 C1214 1.382 . S
C2219 C16 1.301 . S
C2224 C913 1.382 . S
C2229 C835 1.382 . S
C2234 C29 1.301 . S
C2239 C928 1.383 . S
C2244 C42 1.306 . S
C2249 C57 1.301 . S
C2254 C250 1.382 . S
C2259 C68 1.302 . S
C2264 C1199 1.382 . S
C2269 C224 1.383 . S
C2274 C83 1.305 . S
C2279 C237 1.383 . S
C2284 C96 1.306 . S
C2289 C367 1.382 . S
C2294 C107 1.301 . S
C2299 C122 1.305 . S
C2304 C694 1.383 . S
C2309 C133 1.302 . S
C2314 C393 1.382 . S
C2319 C148 1.305 . S
C2324 C720 1.383 . S
C2329 C317 1.382 . S
C2334 C161 1.302 . S
C2339 C172 1.302 . S
C2344 C642 1.382 . S
C2349 C343 1.383 . S
C2354 C187 1.306 . S
C2359 C198 1.302 . S
C2364 C666 1.382 . S
C2369 C211 1.306 . S
C2374 C1121 1.383 . S
C2379 C447 1.382 . S
C2384 C226 1.301 . S
C2389 C239 1.305 . S
C2394 C770 1.383 . S
C2399 C419 1.382 . S
C2404 C252 1.304 . S
C2409 C263 1.301 . S
C2414 C434 1.382 . S
C2419 C785 1.382 . S
C2424 C276 1.301 . S
C2429 C174 1.382 . S
C2434 C291 1.302 . S
C2439 C200 1.383 . S
C2444 C304 1.305 . S
C2449 C902 1.382 . S
C2454 C315 1.302 . S
C2459 C328 1.305 . S
C2464 C1225 1.383 . S
C2469 C1147 1.382 . S
C2474 C341 1.301 . S
C2479 C354 1.301 . S
C2484 C1240 1.382 . S
C2489 C564 1.382 . S
C2494 C369 1.302 . S
C2499 C887 1.382 . S
C2504 C382 1.301 . S
C2509 C395 1.302 . S
C2514 C536 1.382 . S
C2519 C408 1.306 . S
C2524 C551 1.383 . S
C2529 C421 1.303 . S
C2534 C55 1.382 . S
C2539 C432 1.305 . S
C2544 C1004 1.383 . S
C2549 C81 1.382 . S
C2554 C445 1.301 . S
C2559 C458 1.305 . S
C2564 C1030 1.383 . S
C2569 C5 1.382 . S
C2574 C471 1.302 . S
C2579 C484 1.302 . S
C2584 C952 1.382 . S
C2589 C31 1.383 . S
C2594 C499 1.306 . S
C2599 C980 1.383 . S
C2604 C512 1.305 . S
C2609 C523 1.301 . S
C2614 C809 1.382 . S
C2619 C538 1.301 . S
C2624 C135 1.382 . S
C2629 C1084 1.382 . S
C2634 C549 1.301 . S
C2639 C562 1.305 . S
C2644 C109 1.383 . S
C2649 C120 1.383 . S
C2654 C575 1.305 . S
C2659 C588 1.306 . S
C2664 C1095 1.383 . S
C2669 C486 1.383 . S
C2674 C603 1.305 . S
C2679 C614 1.302 . S
C2684 C510 1.382 . S
C2689 C590 1.382 . S
C2694 C629 1.301 . S
C2699 C640 1.301 . S
C2704 C289 1.382 . S
C2709 C655 1.306 . S
C2714 C213 1.383 . S
C2719 C668 1.301 . S
C2724 C302 1.382 . S
C2729 C679 1.301 . S
C2734 C874 1.382 . S
C2739 C577 1.383 . S
C2744 C692 1.305 . S
C2749 C850 1.382 . S
C2754 C707 1.301 . S
C2759 C718 1.305 . S
C2764 C861 1.382 . S
C2769 C991 1.383 . S
C2774 C731 1.306 . S
C2779 C70 1.383 . S
C2784 C746 1.306 . S
C2789 C1017 1.382 . S
C2794 C757 1.301 . S
C2799 C772 1.301 . S
C2804 C94 1.382 . S
C2809 C941 1.383 . S
C2814 C783 1.303 . S
C2819 C796 1.301 . S
C2824 C18 1.382 . S
C2829 C967 1.382 . S
C2834 C811 1.302 . S
C2839 C44 1.382 . S
C2844 C822 1.301 . S
C2849 C497 1.382 . S
C2854 C837 1.301 . S
C2859 C848 1.306 . S
C2864 C1071 1.383 . S
C2869 C863 1.301 . S
C2874 C146 1.382 . S
C2879 C1043 1.383 . S
C2884 C876 1.306 . S
C2889 C889 1.302 . S
C2894 C1056 1.382 . S
C2899 C159 1.383 . S
C2904 C900 1.306 . S
C2909 C798 1.382 . S
C2914 C915 1.302 . S
C2919 C926 1.302 . S
C2924 C824 1.382 . S
C2929 C939 1.305 . S
C2934 C278 1.383 . S
C2939 C601 1.383 . S
C2944 C954 1.305 . S
C2949 C525 1.382 . S
C2954 C965 1.301 . S
C2959 C978 1.306 . S
C2964 C616 1.383 . S
C2969 C993 1.305 . S
C2974 C1188 1.383 . S
C2979 C265 1.382 . S
C2984 C1006 1.301 . S
C2989 C1160 1.382 . S
C2994 C1019 1.301 . S
C2999 C1173 1.383 . S
C3004 C1032 1.306 . S
C3009 C681 1.382 . S
C3014 C1045 1.301 . S
C3019 C1058 1.305 . S
C3024 C380 1.383 . S
C3029 C1069 1.305 . S
C3034 C705 1.383 . S
C3039 C1082 1.302 . S
C3044 C406 1.382 . S
C3049 C627 1.382 . S
C3054 C1097 1.302 . S
C3059 C1108 1.301 . S
C3064 C330 1.382 . S
C3069 C1123 1.302 . S
C3074 C653 1.382 . S
C3079 C1134 1.306 . S
C3084 C356 1.383 . S
C3089 C185 1.382 . S
C3094 C1149 1.301 . S
C3099 C1162 1.301 . S
C3104 C759 1.382 . S
C3109 C1175 1.305 . S
C3114 C460 1.383 . S
C3119 C1186 1.301 . S
C3124 C733 1.382 . S
C3129 C1201 1.301 . S
C3134 C744 1.382 . S
C3139 C473 1.382 . S
C3144 C1212 1.301 . S
C3149 C1110 1.382 . S
C3154 C1227 1.302 . S
C3159 C1136 1.382 . S
C3164 C1238 1.301 . S
