# Generated by pormake.
# Topology gis, (4)-cn, num edge types: 1
# Building blocks:
#     Node 0, Type 0, BuildingBlock: TATPOV_clean_sbu_0, # of connection points: 4
#     Node 1, Type 0, BuildingBlock: TATPOV_clean_sbu_0, # of connection points: 4
#     Node 2, Type 0, BuildingBlock: TATPOV_clean_sbu_0, # of connection points: 4
#     Node 3, Type 0, BuildingBlock: TATPOV_clean_sbu_0, # of connection points: 4
#     Node 4, Type 0, BuildingBlock: TATPOV_clean_sbu_0, # of connection points: 4
#     Node 5, Type 0, BuildingBlock: TATPOV_clean_sbu_0, # of connection points: 4
#     Node 6, Type 0, BuildingBlock: TATPOV_clean_sbu_0, # of connection points: 4
#     Node 7, Type 0, BuildingBlock: TATPOV_clean_sbu_0, # of connection points: 4
#     Node 8, Type 0, BuildingBlock: TATPOV_clean_sbu_0, # of connection points: 4
#     Node 9, Type 0, BuildingBlock: TATPOV_clean_sbu_0, # of connection points: 4
#     Node 10, Type 0, BuildingBlock: TATPOV_clean_sbu_0, # of connection points: 4
#     Node 11, Type 0, BuildingBlock: TATPOV_clean_sbu_0, # of connection points: 4
#     Node 12, Type 0, BuildingBlock: TATPOV_clean_sbu_0, # of connection points: 4
#     Node 13, Type 0, BuildingBlock: TATPOV_clean_sbu_0, # of connection points: 4
#     Node 14, Type 0, BuildingBlock: TATPOV_clean_sbu_0, # of connection points: 4
#     Node 15, Type 0, BuildingBlock: TATPOV_clean_sbu_0, # of connection points: 4
#     Edge 16, Type (0, 0), BuildingBlock: EZIPEK_clean_linker_0, # of connection points: 2
#     Edge 17, Type (0, 0), BuildingBlock: EZIPEK_clean_linker_0, # of connection points: 2
#     Edge 18, Type (0, 0), BuildingBlock: EZIPEK_clean_linker_0, # of connection points: 2
#     Edge 19, Type (0, 0), BuildingBlock: EZIPEK_clean_linker_0, # of connection points: 2
#     Edge 20, Type (0, 0), BuildingBlock: EZIPEK_clean_linker_0, # of connection points: 2
#     Edge 21, Type (0, 0), BuildingBlock: EZIPEK_clean_linker_0, # of connection points: 2
#     Edge 22, Type (0, 0), BuildingBlock: EZIPEK_clean_linker_0, # of connection points: 2
#     Edge 23, Type (0, 0), BuildingBlock: EZIPEK_clean_linker_0, # of connection points: 2
#     Edge 24, Type (0, 0), BuildingBlock: EZIPEK_clean_linker_0, # of connection points: 2
#     Edge 25, Type (0, 0), BuildingBlock: EZIPEK_clean_linker_0, # of connection points: 2
#     Edge 26, Type (0, 0), BuildingBlock: EZIPEK_clean_linker_0, # of connection points: 2
#     Edge 27, Type (0, 0), BuildingBlock: EZIPEK_clean_linker_0, # of connection points: 2
#     Edge 28, Type (0, 0), BuildingBlock: EZIPEK_clean_linker_0, # of connection points: 2
#     Edge 29, Type (0, 0), BuildingBlock: EZIPEK_clean_linker_0, # of connection points: 2
#     Edge 30, Type (0, 0), BuildingBlock: EZIPEK_clean_linker_0, # of connection points: 2
#     Edge 31, Type (0, 0), BuildingBlock: EZIPEK_clean_linker_0, # of connection points: 2
#     Edge 32, Type (0, 0), BuildingBlock: EZIPEK_clean_linker_0, # of connection points: 2
#     Edge 33, Type (0, 0), BuildingBlock: EZIPEK_clean_linker_0, # of connection points: 2
#     Edge 34, Type (0, 0), BuildingBlock: EZIPEK_clean_linker_0, # of connection points: 2
#     Edge 35, Type (0, 0), BuildingBlock: EZIPEK_clean_linker_0, # of connection points: 2
#     Edge 36, Type (0, 0), BuildingBlock: EZIPEK_clean_linker_0, # of connection points: 2
#     Edge 37, Type (0, 0), BuildingBlock: EZIPEK_clean_linker_0, # of connection points: 2
#     Edge 38, Type (0, 0), BuildingBlock: EZIPEK_clean_linker_0, # of connection points: 2
#     Edge 39, Type (0, 0), BuildingBlock: EZIPEK_clean_linker_0, # of connection points: 2
#     Edge 40, Type (0, 0), BuildingBlock: EZIPEK_clean_linker_0, # of connection points: 2
#     Edge 41, Type (0, 0), BuildingBlock: EZIPEK_clean_linker_0, # of connection points: 2
#     Edge 42, Type (0, 0), BuildingBlock: EZIPEK_clean_linker_0, # of connection points: 2
#     Edge 43, Type (0, 0), BuildingBlock: EZIPEK_clean_linker_0, # of connection points: 2
#     Edge 44, Type (0, 0), BuildingBlock: EZIPEK_clean_linker_0, # of connection points: 2
#     Edge 45, Type (0, 0), BuildingBlock: EZIPEK_clean_linker_0, # of connection points: 2
#     Edge 46, Type (0, 0), BuildingBlock: EZIPEK_clean_linker_0, # of connection points: 2
#     Edge 47, Type (0, 0), BuildingBlock: EZIPEK_clean_linker_0, # of connection points: 2
# Relax obj value: 0.144
# Max RMSD: 0.164
# Mean RMSD: 0.143
data_MOF--net-gis--node1-TATPOV_clean_sbu_0--edge1-EZIPEK_clean_linker_0
_symmetry_space_group_name_H-M    P1
_symmetry_Int_Tables_number       1
_symmetry_cell_setting            triclinic
loop_
_symmetry_equiv_pos_as_xyz
'x, y, z'
_cell_length_a     34.54896
_cell_length_b     34.483199
_cell_length_c     34.971911
_cell_angle_alpha  91.823148
_cell_angle_beta   91.866009
_cell_angle_gamma 90.205448
loop_
_atom_site_label
_atom_site_type_symbol
_atom_site_fract_x
_atom_site_fract_y
_atom_site_fract_z
_atom_type_partial_charge
Zn0 Zn 0.126 0.63183 0.04491 0.0
Zn1 Zn 0.15021 0.60967 0.11487 0.0
O2 O 0.17494 0.57216 0.07643 0.0
O3 O 0.15462 0.58781 0.01873 0.0
O4 O 0.17248 0.58884 0.16349 0.0
O5 O 0.15157 0.68403 0.05765 0.0
O6 O 0.16822 0.66636 0.11537 0.0
C7 C 0.17386 0.56576 0.04039 0.0
C8 C 0.06427 0.6103 0.09495 0.0
O9 O 0.09164 0.60383 0.11909 0.0
O10 O 0.07128 0.62206 0.06191 0.0
C11 C 0.1642 0.55473 0.17337 0.0
O12 O 0.13832 0.53398 0.15337 0.0
C13 C 0.1677 0.69208 0.09002 0.0
Zn14 Zn 0.63562 0.87146 0.4581 0.0
Zn15 Zn 0.67731 0.89091 0.39739 0.0
O16 O 0.69189 0.93303 0.43786 0.0
O17 O 0.65873 0.91729 0.48798 0.0
O18 O 0.70905 0.90551 0.3529 0.0
O19 O 0.66098 0.81884 0.45793 0.0
O20 O 0.6933 0.83448 0.40781 0.0
C21 C 0.68174 0.93985 0.47203 0.0
C22 C 0.58921 0.89052 0.3912 0.0
O23 O 0.62181 0.89606 0.37634 0.0
O24 O 0.58712 0.87955 0.42528 0.0
C25 C 0.70894 0.94023 0.3417 0.0
O26 O 0.68852 0.9667 0.35973 0.0
C27 C 0.68528 0.80982 0.43286 0.0
Zn28 Zn 0.36306 0.39848 0.54677 0.0
Zn29 Zn 0.32035 0.41902 0.608 0.0
O30 O 0.29805 0.45519 0.56734 0.0
O31 O 0.33273 0.43843 0.51749 0.0
O32 O 0.28938 0.42973 0.65486 0.0
O33 O 0.34388 0.3432 0.5484 0.0
O34 O 0.31053 0.36031 0.59887 0.0
C35 C 0.30681 0.45916 0.53258 0.0
C36 C 0.40874 0.43005 0.61086 0.0
O37 O 0.37578 0.43386 0.6258 0.0
O38 O 0.41145 0.41521 0.57745 0.0
C39 C 0.29659 0.45735 0.67897 0.0
O40 O 0.32421 0.48244 0.6728 0.0
C41 C 0.32149 0.33449 0.57474 0.0
Zn42 Zn 0.88774 0.08442 0.80822 0.0
Zn43 Zn 0.85209 0.06318 0.86988 0.0
O44 O 0.81775 0.03839 0.82703 0.0
O45 O 0.84653 0.05703 0.77583 0.0
O46 O 0.82764 0.04649 0.91772 0.0
O47 O 0.93558 0.05637 0.82312 0.0
O48 O 0.90783 0.04177 0.87661 0.0
C49 C 0.81942 0.03854 0.79075 0.0
C50 C 0.86157 0.1491 0.85406 0.0
O51 O 0.84678 0.12233 0.87319 0.0
O52 O 0.88191 0.14045 0.82556 0.0
C53 C 0.79381 0.05546 0.92798 0.0
O54 O 0.77164 0.07752 0.90667 0.0
C55 C 0.93715 0.04097 0.85542 0.0
Zn56 Zn 0.14762 0.36994 0.93457 0.0
Zn57 Zn 0.1863 0.39498 0.87738 0.0
O58 O 0.2057 0.43031 0.9226 0.0
O59 O 0.1801 0.40301 0.97143 0.0
O60 O 0.21743 0.41162 0.83316 0.0
O61 O 0.15998 0.31449 0.92241 0.0
O62 O 0.19864 0.33619 0.87917 0.0
C63 C 0.20186 0.42888 0.95863 0.0
C64 C 0.09898 0.40558 0.87817 0.0
O65 O 0.13025 0.40769 0.86005 0.0
O66 O 0.09901 0.39212 0.91139 0.0
C67 C 0.21196 0.44379 0.81715 0.0
O68 O 0.18623 0.46825 0.83044 0.0
C69 C 0.18428 0.30796 0.89676 0.0
Zn70 Zn 0.84103 0.89601 0.0668 0.0
Zn71 Zn 0.80762 0.92556 0.13009 0.0
O72 O 0.7883 0.96315 0.08899 0.0
O73 O 0.8149 0.93792 0.03731 0.0
O74 O 0.7807 0.94103 0.17815 0.0
O75 O 0.81538 0.84442 0.07288 0.0
O76 O 0.7891 0.86894 0.12481 0.0
C77 C 0.79434 0.96364 0.05324 0.0
C78 C 0.89581 0.92148 0.12629 0.0
O79 O 0.86567 0.93075 0.14444 0.0
O80 O 0.89309 0.90605 0.09299 0.0
C81 C 0.79488 0.96185 0.20577 0.0
O82 O 0.82868 0.97885 0.20278 0.0
C83 C 0.79468 0.84047 0.10166 0.0
Zn84 Zn 0.35078 0.59365 0.27602 0.0
Zn85 Zn 0.32806 0.57799 0.34612 0.0
O86 O 0.28905 0.54891 0.31004 0.0
O87 O 0.31001 0.55796 0.25246 0.0
O88 O 0.31431 0.55939 0.3978 0.0
O89 O 0.40512 0.57627 0.2871 0.0
O90 O 0.38638 0.56478 0.3453 0.0
C91 C 0.28558 0.54314 0.27399 0.0
C92 C 0.32511 0.6607 0.32129 0.0
O93 O 0.31895 0.63648 0.3472 0.0
O94 O 0.33771 0.64953 0.28917 0.0
C95 C 0.28097 0.55951 0.41207 0.0
O96 O 0.2515 0.57524 0.39376 0.0
C97 C 0.41294 0.5662 0.32091 0.0
Zn98 Zn 0.6286 0.12974 0.70616 0.0
Zn99 Zn 0.64458 0.0999 0.63544 0.0
O100 O 0.68007 0.07154 0.67273 0.0
O101 O 0.6712 0.09772 0.72994 0.0
O102 O 0.65614 0.07163 0.58652 0.0
O103 O 0.57362 0.10955 0.69937 0.0
O104 O 0.58681 0.092 0.63996 0.0
C105 C 0.68877 0.07407 0.7083 0.0
C106 C 0.6523 0.18584 0.64977 0.0
O107 O 0.65714 0.15668 0.62726 0.0
O108 O 0.6408 0.18166 0.68345 0.0
C109 C 0.68994 0.07038 0.57336 0.0
O110 O 0.71805 0.09115 0.5899 0.0
C111 C 0.56277 0.09653 0.66647 0.0
Zn112 Zn 0.89432 0.38003 0.93242 0.0
Zn113 Zn 0.85577 0.39778 0.8666 0.0
O114 O 0.83001 0.42969 0.90844 0.0
O115 O 0.86001 0.4164 0.96283 0.0
O116 O 0.82444 0.41368 0.82063 0.0
O117 O 0.88122 0.32354 0.91977 0.0
O118 O 0.84704 0.33934 0.8684 0.0
C119 C 0.8344 0.43504 0.94443 0.0
C120 C 0.94282 0.41202 0.87544 0.0
O121 O 0.9118 0.41254 0.85478 0.0
O122 O 0.94246 0.40099 0.9096 0.0
C123 C 0.82348 0.44866 0.81023 0.0
O124 O 0.84599 0.4749 0.82765 0.0
C125 C 0.8605 0.31364 0.89047 0.0
Zn126 Zn 0.36072 0.10816 0.53699 0.0
Zn127 Zn 0.32151 0.08725 0.59879 0.0
O128 O 0.30552 0.04601 0.55827 0.0
O129 O 0.33457 0.06415 0.50651 0.0
O130 O 0.2942 0.06996 0.64447 0.0
O131 O 0.33805 0.16185 0.54337 0.0
O132 O 0.30442 0.14389 0.59239 0.0
C133 C 0.31296 0.04077 0.52317 0.0
C134 C 0.40949 0.08825 0.60133 0.0
O135 O 0.37749 0.0836 0.61745 0.0
O136 O 0.41052 0.09787 0.56675 0.0
C137 C 0.29759 0.03532 0.65541 0.0
O138 O 0.31893 0.01037 0.63644 0.0
C139 C 0.31527 0.17005 0.57007 0.0
Zn140 Zn 0.64153 0.61503 0.31006 0.0
Zn141 Zn 0.66104 0.56945 0.36906 0.0
O142 O 0.69589 0.54738 0.32718 0.0
O143 O 0.67978 0.58461 0.27897 0.0
O144 O 0.67085 0.53585 0.41414 0.0
O145 O 0.58595 0.59778 0.31148 0.0
O146 O 0.60221 0.56145 0.36017 0.0
C147 C 0.69972 0.55734 0.29274 0.0
C148 C 0.67447 0.65761 0.37541 0.0
O149 O 0.67764 0.62397 0.38923 0.0
O150 O 0.65965 0.66175 0.3422 0.0
C151 C 0.70096 0.53792 0.4359 0.0
O152 O 0.72912 0.56194 0.42844 0.0
C153 C 0.57675 0.57433 0.33675 0.0
Zn154 Zn 0.12569 0.89685 0.21138 0.0
Zn155 Zn 0.13778 0.93137 0.14376 0.0
O156 O 0.17228 0.96254 0.18167 0.0
O157 O 0.16437 0.93517 0.23659 0.0
O158 O 0.14661 0.95733 0.09425 0.0
O159 O 0.06873 0.90986 0.20621 0.0
O160 O 0.0789 0.93385 0.14961 0.0
C161 C 0.18013 0.96109 0.21734 0.0
C162 C 0.15573 0.84548 0.15178 0.0
O163 O 0.1567 0.87651 0.13312 0.0
O164 O 0.14357 0.84606 0.18564 0.0
C165 C 0.18038 0.95874 0.08096 0.0
O166 O 0.20954 0.94272 0.09953 0.0
C167 C 0.05591 0.92445 0.17555 0.0
Zn168 Zn 0.83592 0.63152 0.04976 0.0
Zn169 Zn 0.81579 0.5979 0.11291 0.0
O170 O 0.79518 0.55995 0.07032 0.0
O171 O 0.80764 0.59054 0.01823 0.0
O172 O 0.79641 0.57567 0.16097 0.0
O173 O 0.80986 0.68104 0.06392 0.0
O174 O 0.79204 0.65289 0.11608 0.0
C175 C 0.79318 0.56154 0.03398 0.0
C176 C 0.90099 0.60793 0.0971 0.0
O177 O 0.87509 0.59655 0.11933 0.0
O178 O 0.8918 0.62328 0.0657 0.0
C179 C 0.79661 0.5404 0.17038 0.0
O180 O 0.8121 0.51366 0.14817 0.0
C181 C 0.79254 0.68246 0.0952 0.0
Zn182 Zn 0.14179 0.08894 0.80523 0.0
Zn183 Zn 0.18047 0.05849 0.86448 0.0
O184 O 0.21008 0.0355 0.8195 0.0
O185 O 0.17959 0.06247 0.77074 0.0
O186 O 0.20203 0.03205 0.91062 0.0
O187 O 0.09176 0.06363 0.81782 0.0
O188 O 0.12335 0.04253 0.86862 0.0
C189 C 0.20649 0.04135 0.78381 0.0
C190 C 0.17872 0.14617 0.85692 0.0
O191 O 0.19243 0.11669 0.87368 0.0
O192 O 0.15539 0.14174 0.82839 0.0
C193 C 0.18581 0.04158 0.94157 0.0
O194 O 0.15997 0.06937 0.94167 0.0
C195 C 0.09209 0.04586 0.84887 0.0
Zn196 Zn 0.62243 0.405 0.70562 0.0
Zn197 Zn 0.64204 0.43313 0.63881 0.0
O198 O 0.68489 0.45342 0.67646 0.0
O199 O 0.66813 0.43143 0.73207 0.0
O200 O 0.65526 0.45892 0.59021 0.0
O201 O 0.56946 0.42897 0.70225 0.0
O202 O 0.58522 0.44952 0.64636 0.0
C203 C 0.69178 0.44936 0.71208 0.0
C204 C 0.64299 0.3465 0.64839 0.0
O205 O 0.64846 0.37504 0.62699 0.0
O206 O 0.6315 0.35172 0.68217 0.0
C207 C 0.68524 0.45009 0.57178 0.0
O208 O 0.70867 0.423 0.5842 0.0
C209 C 0.56035 0.44699 0.67236 0.0
Zn210 Zn 0.37039 0.8867 0.27375 0.0
Zn211 Zn 0.35274 0.90589 0.34732 0.0
O212 O 0.3222 0.94292 0.31427 0.0
O213 O 0.33655 0.93067 0.2547 0.0
O214 O 0.33866 0.92593 0.39908 0.0
O215 O 0.42724 0.89513 0.28835 0.0
O216 O 0.41163 0.90919 0.34794 0.0
C217 C 0.31861 0.95094 0.27917 0.0
C218 C 0.33517 0.8249 0.31699 0.0
O219 O 0.33471 0.85003 0.34436 0.0
O220 O 0.3475 0.83348 0.28454 0.0
C221 C 0.30556 0.92094 0.41301 0.0
O222 O 0.28005 0.89791 0.39518 0.0
C223 C 0.43704 0.90373 0.32282 0.0
C224 C 0.15247 0.79823 0.09535 0.0
C225 C 0.16678 0.80805 0.133 0.0
C226 C 0.19636 0.74347 0.13695 0.0
C227 C 0.17907 0.7333 0.10052 0.0
N228 N 0.16404 0.75921 0.0385 0.0
N229 N 0.21285 0.79474 0.18423 0.0
C230 C 0.16476 0.76335 0.07744 0.0
C231 C 0.19202 0.78205 0.15231 0.0
N232 N 0.12519 0.82044 0.07735 0.0
N233 N 0.21756 0.71661 0.15627 0.0
H234 H 0.21163 0.82325 0.19498 0.0
H235 H 0.2339 0.77833 0.19811 0.0
H236 H 0.227 0.69102 0.14293 0.0
H237 H 0.22624 0.71987 0.18498 0.0
H238 H 0.11197 0.81197 0.05115 0.0
H239 H 0.11241 0.84466 0.09014 0.0
H240 H 0.15587 0.7816 0.02062 0.0
H241 H 0.17726 0.73585 0.02452 0.0
C242 C 0.49702 0.86522 0.33527 0.0
C243 C 0.47818 0.9018 0.33534 0.0
C244 C 0.53416 0.93214 0.36931 0.0
C245 C 0.55312 0.89573 0.36842 0.0
N246 N 0.55716 0.82999 0.3436 0.0
N247 N 0.48064 0.97114 0.34556 0.0
C248 C 0.53601 0.86306 0.34898 0.0
C249 C 0.49737 0.93567 0.35027 0.0
N250 N 0.47694 0.83216 0.32446 0.0
N251 N 0.55084 0.9629 0.38933 0.0
H252 H 0.45374 0.9745 0.33164 0.0
H253 H 0.49455 0.99736 0.35256 0.0
H254 H 0.57844 0.96163 0.40227 0.0
H255 H 0.53672 0.98898 0.39489 0.0
H256 H 0.4877 0.80434 0.32827 0.0
H257 H 0.44817 0.83212 0.31451 0.0
H258 H 0.54772 0.80657 0.32615 0.0
H259 H 0.5857 0.82729 0.35384 0.0
C260 C 0.3277 0.27227 0.60955 0.0
C261 C 0.31091 0.29322 0.57897 0.0
C262 C 0.28729 0.2326 0.5477 0.0
C263 C 0.30564 0.21151 0.57734 0.0
N264 N 0.33393 0.21126 0.64156 0.0
N265 N 0.26689 0.2953 0.52442 0.0
C266 C 0.32233 0.23138 0.61015 0.0
C267 C 0.28803 0.27392 0.5498 0.0
N268 N 0.3513 0.29096 0.63647 0.0
N269 N 0.27018 0.2129 0.51707 0.0
H270 H 0.26681 0.32558 0.52569 0.0
H271 H 0.24708 0.2834 0.50424 0.0
H272 H 0.26686 0.18278 0.51618 0.0
H273 H 0.26036 0.22601 0.4922 0.0
H274 H 0.36869 0.27666 0.65633 0.0
H275 H 0.35582 0.32088 0.63747 0.0
H276 H 0.34228 0.22455 0.66769 0.0
H277 H 0.33202 0.18125 0.64302 0.0
C278 C 0.03659 0.05218 0.89285 0.0
C279 C 0.0551 0.03143 0.86291 0.0
C280 C 0.99411 -0.0001 0.84292 0.0
C281 C 0.97493 0.02538 0.86846 0.0
N282 N 0.97771 0.06211 0.92801 0.0
N283 N 0.05541 0.97689 0.81853 0.0
C284 C 0.99627 0.04653 0.89733 0.0
C285 C 0.03508 0.00193 0.84123 0.0
N286 N 0.05672 0.07942 0.91474 0.0
N287 N 0.97251 0.97583 0.81886 0.0
H288 H 0.08556 0.97816 0.81751 0.0
H289 H 0.04311 0.95339 0.80313 0.0
H290 H 0.94255 0.97331 0.82127 0.0
H291 H 0.98375 0.95898 0.79669 0.0
H292 H 0.04382 0.09883 0.93379 0.0
H293 H 0.08639 0.08391 0.91262 0.0
H294 H 0.99198 0.07579 0.95143 0.0
H295 H 0.94829 0.05749 0.93191 0.0
C296 C 0.19375 0.25315 0.84766 0.0
C297 C 0.19365 0.26692 0.88646 0.0
C298 C 0.18981 0.19994 0.90761 0.0
C299 C 0.19062 0.18634 0.86889 0.0
N300 N 0.20977 0.19958 0.80486 0.0
N301 N 0.20683 0.25246 0.95267 0.0
C302 C 0.19827 0.21288 0.83989 0.0
C303 C 0.1969 0.23991 0.91622 0.0
N304 N 0.1864 0.27732 0.81809 0.0
N305 N 0.17971 0.17583 0.93591 0.0
H306 H 0.21373 0.28141 0.9595 0.0
H307 H 0.21258 0.23357 0.97481 0.0
H308 H 0.17283 0.14667 0.93113 0.0
H309 H 0.17478 0.18579 0.96378 0.0
H310 H 0.18228 0.26713 0.78986 0.0
H311 H 0.18039 0.30671 0.82152 0.0
H312 H 0.2187 0.21803 0.78377 0.0
H313 H 0.21477 0.17022 0.79877 0.0
C314 C 0.95534 0.95993 0.14629 0.0
C315 C 0.9345 0.92442 0.14526 0.0
C316 C 0.99277 0.88942 0.16499 0.0
C317 C 0.01363 0.92507 0.16739 0.0
N318 N 0.01376 0.99494 0.16744 0.0
N319 N 0.9301 0.85757 0.1626 0.0
C320 C 0.99457 0.96063 0.1602 0.0
C321 C 0.95221 0.8899 0.15768 0.0
N322 N 0.93805 0.99255 0.13271 0.0
N323 N 0.01197 0.85486 0.16702 0.0
H324 H 0.90018 0.85697 0.15738 0.0
H325 H 0.94071 0.8327 0.17537 0.0
H326 H 0.04191 0.85275 0.17099 0.0
H327 H -0.0013 0.82807 0.16109 0.0
H328 H 0.95287 0.01832 0.1285 0.0
H329 H 0.90899 0.99317 0.12361 0.0
H330 H 0.0005 0.02196 0.16626 0.0
H331 H 0.04243 0.99629 0.17776 0.0
C332 C 0.29347 0.72342 0.30525 0.0
C333 C 0.32022 0.7028 0.32855 0.0
C334 C 0.35332 0.76325 0.34845 0.0
C335 C 0.32706 0.78387 0.32456 0.0
N336 N 0.26756 0.78589 0.28702 0.0
N337 N 0.36892 0.70336 0.37969 0.0
C338 C 0.29554 0.76462 0.30514 0.0
C339 C 0.34762 0.7229 0.35293 0.0
N340 N 0.26687 0.70334 0.2825 0.0
N341 N 0.38548 0.78148 0.36445 0.0
H342 H 0.3668 0.67355 0.38301 0.0
H343 H 0.38621 0.71715 0.40099 0.0
H344 H 0.3913 0.81093 0.36182 0.0
H345 H 0.40825 0.76689 0.37781 0.0
H346 H 0.24963 0.71591 0.26136 0.0
H347 H 0.26296 0.6734 0.28402 0.0
H348 H 0.24201 0.7741 0.27503 0.0
H349 H 0.26849 0.81614 0.28667 0.0
C350 C 0.50666 0.05597 0.6422 0.0
C351 C 0.52118 0.09228 0.65656 0.0
C352 C 0.45818 0.1222 0.64392 0.0
C353 C 0.44581 0.08761 0.62427 0.0
N354 N 0.45715 0.02152 0.60349 0.0
N355 N 0.51269 0.16157 0.66635 0.0
C356 C 0.46962 0.05428 0.62331 0.0
C357 C 0.49732 0.12577 0.65681 0.0
N358 N 0.52819 0.02322 0.64717 0.0
N359 N 0.43262 0.15185 0.64978 0.0
H360 H 0.54152 0.16617 0.67502 0.0
H361 H 0.49774 0.18738 0.66241 0.0
H362 H 0.40388 0.15078 0.63969 0.0
H363 H 0.4389 0.17603 0.66754 0.0
H364 H 0.51801 0.99533 0.64034 0.0
H365 H 0.55528 0.02373 0.66129 0.0
H366 H 0.47473 0.99768 0.59797 0.0
H367 H 0.42945 0.01897 0.59081 0.0
C368 C 0.8501 0.21728 0.83427 0.0
C369 C 0.8549 0.19072 0.86419 0.0
C370 C 0.84979 0.2451 0.91043 0.0
C371 C 0.8546 0.27167 0.88071 0.0
N372 N 0.86854 0.28032 0.81372 0.0
N373 N 0.86602 0.18139 0.93224 0.0
C374 C 0.85695 0.25721 0.8423 0.0
C375 C 0.85623 0.20499 0.90283 0.0
N376 N 0.83851 0.20465 0.79827 0.0
N377 N 0.83848 0.2579 0.94567 0.0
H378 H 0.87384 0.15246 0.92838 0.0
H379 H 0.87061 0.1919 0.96031 0.0
H380 H 0.83131 0.28677 0.95166 0.0
H381 H 0.83169 0.23906 0.96723 0.0
H382 H 0.83198 0.22367 0.7764 0.0
H383 H 0.83073 0.17587 0.79177 0.0
H384 H 0.87349 0.26941 0.78616 0.0
H385 H 0.87807 0.30881 0.81821 0.0
C386 C 0.71488 0.7182 0.38066 0.0
C387 C 0.68838 0.69263 0.39757 0.0
C388 C 0.68127 0.73968 0.45063 0.0
C389 C 0.69807 0.7684 0.42828 0.0
N390 N 0.74835 0.78065 0.38445 0.0
N391 N 0.64695 0.67857 0.45004 0.0
C392 C 0.72047 0.75634 0.3969 0.0
C393 C 0.67256 0.70271 0.43353 0.0
N394 N 0.7338 0.70608 0.34872 0.0
N395 N 0.67524 0.74733 0.48849 0.0
H396 H 0.6391 0.65133 0.43855 0.0
H397 H 0.63122 0.68687 0.47384 0.0
H398 H 0.68514 0.77295 0.50227 0.0
H399 H 0.66571 0.72648 0.50699 0.0
H400 H 0.75029 0.72411 0.33233 0.0
H401 H 0.73264 0.6774 0.33825 0.0
H402 H 0.76696 0.77377 0.3625 0.0
H403 H 0.75561 0.80656 0.39925 0.0
C404 C 0.75408 0.74116 0.08052 0.0
C405 C 0.77608 0.72022 0.10775 0.0
C406 C 0.79781 0.78047 0.14015 0.0
C407 C 0.78036 0.8013 0.10977 0.0
N408 N 0.73233 0.80407 0.05876 0.0
N409 N 0.80342 0.71916 0.17197 0.0
C410 C 0.75489 0.78238 0.08265 0.0
C411 C 0.79244 0.73965 0.1407 0.0
N412 N 0.73416 0.72122 0.05176 0.0
N413 N 0.82199 0.79901 0.16657 0.0
H414 H 0.7985 0.68946 0.17359 0.0
H415 H 0.81295 0.73215 0.19788 0.0
H416 H 0.82624 0.82895 0.16776 0.0
H417 H 0.83959 0.7845 0.18613 0.0
H418 H 0.72062 0.73411 0.02843 0.0
H419 H 0.73175 0.691 0.05137 0.0
H420 H 0.71148 0.79249 0.03948 0.0
H421 H 0.73258 0.83436 0.06049 0.0
C422 C 0.62174 0.28373 0.61706 0.0
C423 C 0.65152 0.30655 0.63526 0.0
C424 C 0.68841 0.24851 0.65093 0.0
C425 C 0.65683 0.22564 0.63637 0.0
N426 N 0.59869 0.21941 0.5967 0.0
N427 N 0.71722 0.31282 0.65932 0.0
C428 C 0.6254 0.24266 0.616 0.0
C429 C 0.68645 0.2895 0.64854 0.0
N430 N 0.58915 0.30141 0.60303 0.0
N431 N 0.71925 0.2309 0.66853 0.0
H432 H 0.7161 0.34295 0.65745 0.0
H433 H 0.74454 0.30257 0.66712 0.0
H434 H 0.72203 0.20076 0.66879 0.0
H435 H 0.74148 0.24575 0.68357 0.0
H436 H 0.56424 0.28667 0.59328 0.0
H437 H 0.58667 0.33153 0.60216 0.0
H438 H 0.57649 0.22973 0.57903 0.0
H439 H 0.60046 0.18921 0.59604 0.0
C440 C 0.04064 0.39279 0.8362 0.0
C441 C 0.06164 0.41853 0.86147 0.0
C442 C 0.00201 0.45263 0.87701 0.0
C443 C 0.9808 0.42124 0.85974 0.0
N444 N 0.97804 0.36418 0.81818 0.0
N445 N 0.06486 0.47717 0.9003 0.0
C446 C -0.00051 0.3928 0.83674 0.0
C447 C 0.04306 0.45047 0.87937 0.0
N448 N 0.06025 0.36761 0.81302 0.0
N449 N 0.98243 0.48357 0.89205 0.0
H450 H 0.0951 0.47665 0.90073 0.0
H451 H 0.05341 0.49925 0.91738 0.0
H452 H 0.95224 0.48514 0.89004 0.0
H453 H 0.99568 0.50856 0.90373 0.0
H454 H 0.047 0.34956 0.79204 0.0
H455 H 0.09043 0.36728 0.81267 0.0
H456 H 0.98987 0.33988 0.80467 0.0
H457 H 0.94786 0.3643 0.81709 0.0
C458 C 0.51298 0.58624 0.36591 0.0
C459 C 0.53547 0.56418 0.34012 0.0
C460 C 0.47662 0.53363 0.31204 0.0
C461 C 0.45412 0.56096 0.33267 0.0
N462 N 0.45097 0.61581 0.37751 0.0
N463 N 0.54003 0.51603 0.28917 0.0
C464 C 0.47216 0.5874 0.35986 0.0
C465 C 0.51767 0.53721 0.31362 0.0
N466 N 0.53076 0.60675 0.39567 0.0
N467 N 0.45852 0.50422 0.29124 0.0
H468 H 0.57024 0.51665 0.29104 0.0
H469 H 0.52881 0.49923 0.26612 0.0
H470 H 0.42847 0.50078 0.2902 0.0
H471 H 0.47314 0.4814 0.27801 0.0
H472 H 0.51573 0.62022 0.41772 0.0
H473 H 0.56074 0.60724 0.40031 0.0
H474 H 0.46337 0.63877 0.3937 0.0
H475 H 0.42111 0.61854 0.37377 0.0
C476 C 0.48958 0.44255 0.68696 0.0
C477 C 0.51886 0.45803 0.6644 0.0
C478 C 0.46948 0.47031 0.61422 0.0
C479 C 0.44437 0.44397 0.63189 0.0
N480 N 0.43077 0.40463 0.68611 0.0
N481 N 0.53355 0.4998 0.61298 0.0
C482 C 0.45403 0.43057 0.66894 0.0
C483 C 0.50774 0.47631 0.62995 0.0
N484 N 0.49512 0.44077 0.72567 0.0
N485 N 0.45618 0.49017 0.58324 0.0
H486 H 0.55885 0.50967 0.62731 0.0
H487 H 0.52975 0.51023 0.58554 0.0
H488 H 0.42776 0.48755 0.57239 0.0
H489 H 0.47192 0.51136 0.56996 0.0
H490 H 0.47351 0.43208 0.74371 0.0
H491 H 0.51916 0.45353 0.73995 0.0
H492 H 0.43899 0.39117 0.71136 0.0
H493 H 0.40492 0.3939 0.67371 0.0
C494 C 0.00396 0.63295 0.12642 0.0
C495 C 0.02359 0.60405 0.10484 0.0
C496 C 0.96224 0.57174 0.08686 0.0
C497 C 0.94245 0.602 0.10632 0.0
N498 N 0.94316 0.65542 0.15224 0.0
N499 N 0.02375 0.54105 0.07335 0.0
C500 C 0.96301 0.63051 0.12893 0.0
C501 C 0.00338 0.57169 0.08802 0.0
N502 N 0.02427 0.66377 0.14255 0.0
N503 N 0.94152 0.54405 0.06605 0.0
H504 H 0.05398 0.5404 0.07414 0.0
H505 H 0.01112 0.51507 0.06335 0.0
H506 H 0.91137 0.54217 0.06645 0.0
H507 H 0.95382 0.52383 0.04742 0.0
H508 H 0.01142 0.68816 0.15487 0.0
H509 H 0.05439 0.66577 0.14213 0.0
H510 H 0.95639 0.67495 0.17188 0.0
H511 H 0.91309 0.65433 0.15412 0.0
C512 C 0.18569 0.49378 0.04 0.0
C513 C 0.19236 0.5305 0.02398 0.0
C514 C 0.22556 0.49827 0.97067 0.0
C515 C 0.21436 0.462 0.98503 0.0
N516 N 0.2075 0.4274 0.04296 0.0
N517 N 0.22962 0.56837 0.9814 0.0
C518 C 0.20298 0.46067 0.0233 0.0
C519 C 0.21594 0.53304 0.99151 0.0
N520 N 0.15993 0.48946 0.0684 0.0
N521 N 0.24534 0.49925 0.93758 0.0
H522 H 0.22417 0.59385 -0.00283 0.0
H523 H 0.2488 0.57226 0.95951 0.0
H524 H 0.25804 0.47445 0.9257 0.0
H525 H 0.24999 0.52434 0.92258 0.0
H526 H 0.1522 0.46239 0.07828 0.0
H527 H 0.14297 0.51196 0.07905 0.0
H528 H 0.20166 0.42575 0.07194 0.0
H529 H 0.22151 0.40329 0.03108 0.0
C530 C 0.71351 0.96584 0.27546 0.0
C531 C 0.732 0.95063 0.30856 0.0
C532 C 0.79304 0.94533 0.27515 0.0
C533 C 0.77505 0.96226 0.24265 0.0
N534 N 0.7212 0.99686 0.21488 0.0
N535 N 0.79119 0.93559 0.34334 0.0
C536 C 0.7362 0.9752 0.24383 0.0
C537 C 0.77239 0.94344 0.30948 0.0
N538 N 0.67408 0.96924 0.27325 0.0
N539 N 0.82884 0.92881 0.27272 0.0
H540 H 0.77708 0.93461 0.36922 0.0
H541 H 0.82123 0.934 0.34643 0.0
H542 H 0.84495 0.92874 0.24804 0.0
H543 H 0.84119 0.91212 0.29418 0.0
H544 H 0.65877 0.97602 0.24822 0.0
H545 H 0.65621 0.96202 0.29541 0.0
H546 H 0.69432 0.01037 0.21587 0.0
H547 H 0.73728 0.00448 0.19148 0.0
C548 C 0.26165 0.4789 0.48012 0.0
C549 C 0.28901 0.4898 0.50947 0.0
C550 C 0.29668 0.5534 0.48149 0.0
C551 C 0.2759 0.53935 0.44829 0.0
N552 N 0.23659 0.4897 0.41581 0.0
N553 N 0.33113 0.53772 0.54058 0.0
C554 C 0.25687 0.50275 0.4479 0.0
C555 C 0.30543 0.52756 0.5114 0.0
N556 N 0.2408 0.44545 0.48311 0.0
N557 N 0.30811 0.5914 0.48402 0.0
H558 H 0.33692 0.51991 0.56363 0.0
H559 H 0.34781 0.56293 0.54133 0.0
H560 H 0.30161 0.61075 0.46238 0.0
H561 H 0.32076 0.60456 0.50856 0.0
H562 H 0.21804 0.4371 0.46439 0.0
H563 H 0.24414 0.42773 0.50665 0.0
H564 H 0.22612 0.46147 0.41186 0.0
H565 H 0.23159 0.50672 0.39212 0.0
C566 C 0.75757 0.04992 0.70716 0.0
C567 C 0.72085 0.05074 0.72447 0.0
C568 C 0.74895 0.0194 0.78084 0.0
C569 C 0.78595 0.02508 0.76561 0.0
N570 N 0.82117 0.02061 0.7077 0.0
N571 N 0.67902 0.02335 0.77055 0.0
C572 C 0.78849 0.03112 0.72614 0.0
C573 C 0.71562 0.03107 0.7591 0.0
N574 N 0.76442 0.07027 0.67517 0.0
N575 N 0.74605 0.00318 0.81571 0.0
H576 H 0.65442 0.03023 0.75405 0.0
H577 H 0.67288 0.00761 0.7945 0.0
H578 H 0.76954 0.98948 0.82897 0.0
H579 H 0.72066 0.00228 0.83086 0.0
H580 H 0.79193 0.0729 0.66409 0.0
H581 H 0.74403 0.08791 0.66194 0.0
H582 H 0.82363 0.02223 0.67816 0.0
H583 H 0.84371 0.00618 0.72186 0.0
C584 C 0.80623 0.50235 0.94874 0.0
C585 C 0.81135 0.46512 0.96456 0.0
C586 C 0.78239 0.48898 0.02403 0.0
C587 C 0.78245 0.52676 0.00919 0.0
N588 N 0.77004 0.5622 0.95217 0.0
N589 N 0.79126 0.41979 0.01131 0.0
C590 C 0.78538 0.53059 0.96942 0.0
C591 C 0.79517 0.45728 0.00047 0.0
N592 N 0.82446 0.51257 0.91644 0.0
N593 N 0.77012 0.48364 0.06016 0.0
H594 H 0.79864 0.39618 0.99365 0.0
H595 H 0.77768 0.41182 0.03601 0.0
H596 H 0.7549 0.50508 0.07499 0.0
H597 H 0.77407 0.45812 0.07487 0.0
H598 H 0.82353 0.54064 0.90623 0.0
H599 H 0.84424 0.49494 0.90245 0.0
H600 H 0.76951 0.56522 0.92257 0.0
H601 H 0.75406 0.58275 0.9675 0.0
C602 C 0.22322 0.00396 0.72498 0.0
C603 C 0.23581 0.02737 0.75703 0.0
C604 C 0.29668 0.04067 0.72611 0.0
C605 C 0.28024 0.02481 0.69151 0.0
N606 N 0.22982 0.98847 0.65727 0.0
N607 N 0.28502 0.06761 0.78935 0.0
C608 C 0.24441 0.00474 0.69088 0.0
C609 C 0.27321 0.04471 0.75849 0.0
N610 N 0.19075 0.98156 0.72738 0.0
N611 N 0.3346 0.05223 0.72761 0.0
H612 H 0.2692 0.07086 0.81408 0.0
H613 H 0.30966 0.08511 0.78978 0.0
H614 H 0.35224 0.04953 0.70399 0.0
H615 H 0.34949 0.06088 0.75283 0.0
H616 H 0.18127 0.96159 0.70613 0.0
H617 H 0.17521 0.9806 0.75245 0.0
H618 H 0.20189 0.97723 0.65375 0.0
H619 H 0.24542 0.9876 0.6322 0.0
C620 C 0.70031 0.47402 0.46776 0.0
C621 C 0.70248 0.51509 0.47102 0.0
C622 C 0.70206 0.51198 0.5409 0.0
C623 C 0.69426 0.47162 0.53726 0.0
N624 N 0.68247 0.41417 0.49734 0.0
N625 N 0.70075 0.57396 0.51031 0.0
C626 C 0.69282 0.45247 0.50073 0.0
C627 C 0.70253 0.53435 0.50752 0.0
N628 N 0.70621 0.45565 0.43323 0.0
N629 N 0.70981 0.52877 0.57629 0.0
H630 H 0.70063 0.59159 0.48665 0.0
H631 H 0.69614 0.58928 0.53589 0.0
H632 H 0.71001 0.51314 0.60136 0.0
H633 H 0.71967 0.55721 0.58047 0.0
H634 H 0.70882 0.42568 0.42971 0.0
H635 H 0.71213 0.47062 0.40861 0.0
H636 H 0.67649 0.39979 0.47117 0.0
H637 H 0.67696 0.39733 0.52082 0.0
C638 C 0.28297 0.98714 0.22731 0.0
C639 C 0.28766 0.97817 0.26639 0.0
C640 C 0.21862 0.98626 0.27523 0.0
C641 C 0.21328 0.98385 0.23494 0.0
N642 N 0.2385 0.00936 0.17753 0.0
N643 N 0.26464 0.99726 0.32842 0.0
C644 C 0.24493 0.99332 0.21222 0.0
C645 C 0.25696 0.98703 0.29099 0.0
N646 N 0.3145 0.98911 0.20499 0.0
N647 N 0.18729 0.98655 0.29794 0.0
H648 H 0.29296 0.00082 0.33932 0.0
H649 H 0.2434 0.00733 0.34663 0.0
H650 H 0.15916 0.98916 0.28648 0.0
H651 H 0.18939 0.98376 0.32752 0.0
H652 H 0.31261 0.99094 0.17532 0.0
H653 H 0.34264 0.98883 0.21681 0.0
H654 H 0.26071 0.0192 0.16085 0.0
H655 H 0.21079 0.01753 0.16827 0.0
C656 C 0.71677 0.00585 0.55339 0.0
C657 C 0.69805 0.04085 0.54334 0.0
C658 C 0.67602 0.01175 0.48179 0.0
C659 C 0.69342 0.97627 0.49248 0.0
N660 N 0.73898 0.94218 0.53229 0.0
N661 N 0.66973 0.08097 0.49506 0.0
C662 C 0.71685 0.97432 0.52628 0.0
C663 C 0.68109 0.04506 0.50637 0.0
N664 N 0.73213 0.00184 0.58957 0.0
N665 N 0.65256 0.01296 0.44959 0.0
H666 H 0.67329 0.10576 0.51277 0.0
H667 H 0.6603 0.08679 0.46726 0.0
H668 H 0.64844 0.98937 0.4305 0.0
H669 H 0.6353 0.03663 0.44285 0.0
H670 H 0.74188 0.97557 0.60005 0.0
H671 H 0.73315 0.02439 0.61014 0.0
H672 H 0.75941 0.94019 0.55469 0.0
H673 H 0.73945 0.91879 0.5126 0.0
C674 C 0.23449 0.46286 0.71351 0.0
C675 C 0.27538 0.45922 0.71508 0.0
C676 C 0.27443 0.45454 0.78484 0.0
C677 C 0.23343 0.45246 0.78248 0.0
N678 N 0.17406 0.45004 0.74402 0.0
N679 N 0.33438 0.44668 0.75156 0.0
C680 C 0.21325 0.45578 0.74672 0.0
C681 C 0.29551 0.45414 0.75062 0.0
N682 N 0.21607 0.47382 0.68042 0.0
N683 N 0.29316 0.45764 0.81986 0.0
H684 H 0.35098 0.44556 0.72719 0.0
H685 H 0.34964 0.43833 0.7761 0.0
H686 H 0.27853 0.45838 0.84551 0.0
H687 H 0.32273 0.46324 0.82341 0.0
H688 H 0.18677 0.4808 0.67857 0.0
H689 H 0.23084 0.4796 0.65566 0.0
H690 H 0.1585 0.44763 0.71804 0.0
H691 H 0.15733 0.44443 0.76752 0.0
C692 C 0.79843 0.05535 -0.00114 0.0
C693 C 0.78041 0.04077 0.96442 0.0
C694 C 0.75473 0.98572 -0.00201 0.0
C695 C 0.78015 0.99548 0.02938 0.0
N696 N 0.82338 0.04111 0.06252 0.0
N697 N 0.73778 0.99493 0.93094 0.0
C698 C 0.80026 0.03143 0.03119 0.0
C699 C 0.7565 0.00731 0.96415 0.0
N700 N 0.8143 0.09174 3e-05 0.0
N701 N 0.72981 0.95516 0.00065 0.0
H702 H 0.73772 0.01096 0.90614 0.0
H703 H 0.72339 0.96844 0.92746 0.0
H704 H 0.72843 0.93935 0.02557 0.0
H705 H 0.70856 0.94763 0.97994 0.0
H706 H 0.8255 0.10556 0.02488 0.0
H707 H 0.81304 0.1095 0.97638 0.0
H708 H 0.8426 0.06445 0.06381 0.0
H709 H 0.82421 0.02483 0.08715 0.0
C710 C 0.22239 0.51572 0.19092 0.0
C711 C 0.18913 0.53649 0.20261 0.0
C712 C 0.21321 0.53681 0.26907 0.0
C713 C 0.24988 0.52563 0.25569 0.0
N714 N 0.28471 0.48802 0.20981 0.0
N715 N 0.1497 0.5626 0.25262 0.0
C716 C 0.25263 0.50916 0.21841 0.0
C717 C 0.18318 0.54501 0.24185 0.0
N718 N 0.22611 0.50507 0.15324 0.0
N719 N 0.20707 0.53856 0.30741 0.0
H720 H 0.12663 0.56722 0.2333 0.0
H721 H 0.14533 0.5738 0.28013 0.0
H722 H 0.22758 0.52865 0.32724 0.0
H723 H 0.18037 0.54469 0.31909 0.0
H724 H 0.25104 0.49316 0.14195 0.0
H725 H 0.20411 0.50906 0.13267 0.0
H726 H 0.28855 0.47328 0.18381 0.0
H727 H 0.30635 0.48285 0.23058 0.0
C728 C 0.27045 0.00338 0.47624 0.0
C729 C 0.30193 0.00404 0.50309 0.0
C730 C 0.32195 0.9397 0.48041 0.0
C731 C 0.29633 0.94314 0.44837 0.0
N732 N 0.24199 0.97472 0.41753 0.0
N733 N 0.35594 0.97224 0.53408 0.0
C734 C 0.26853 0.97342 0.44728 0.0
C735 C 0.32663 0.97154 0.50681 0.0
N736 N 0.24299 0.03173 0.47843 0.0
N737 N 0.34181 0.90589 0.48507 0.0
H738 H 0.35935 0.99455 0.55478 0.0
H739 H 0.37786 0.95165 0.53536 0.0
H740 H 0.33812 0.88214 0.46598 0.0
H741 H 0.35887 0.89999 0.50925 0.0
H742 H 0.2176 0.03191 0.46163 0.0
H743 H 0.24427 0.05379 0.49959 0.0
H744 H 0.22345 0.9979 0.41289 0.0
H745 H 0.23885 0.9527 0.3966 0.0
C746 C 0.79297 0.5453 0.24109 0.0
C747 C 0.77722 0.53032 0.20577 0.0
C748 C 0.71608 0.51636 0.23604 0.0
C749 C 0.72903 0.53912 0.26833 0.0
N750 N 0.78027 0.57278 0.30419 0.0
N751 N 0.72535 0.4982 0.16935 0.0
C752 C 0.76802 0.55196 0.27211 0.0
C753 C 0.73953 0.5138 0.20341 0.0
N754 N 0.83166 0.55354 0.24441 0.0
N755 N 0.68105 0.49792 0.2367 0.0
H756 H 0.74228 0.49476 0.14537 0.0
H757 H 0.69661 0.48989 0.16433 0.0
H758 H 0.66375 0.49962 0.26063 0.0
H759 H 0.67075 0.47847 0.21536 0.0
H760 H 0.8459 0.56188 0.27006 0.0
H761 H 0.85021 0.54856 0.2218 0.0
H762 H 0.80684 0.58707 0.30693 0.0
H763 H 0.76301 0.57695 0.32788 0.0
C764 C 0.16565 0.96211 0.01078 0.0
C765 C 0.18625 0.97694 0.04383 0.0
C766 C 0.21439 0.02815 0.00612 0.0
C767 C 0.1894 0.01672 0.97495 0.0
N768 N 0.13935 0.9745 0.94734 0.0
N769 N 0.22832 0.0256 0.07424 0.0
C770 C 0.16471 0.98394 0.97705 0.0
C771 C 0.2106 0.01008 0.04176 0.0
N772 N 0.14799 0.92657 0.01137 0.0
N773 N 0.24176 0.0562 0.00148 0.0
H774 H 0.22606 0.01326 0.10081 0.0
H775 H 0.24282 0.05214 0.0755 0.0
H776 H 0.24481 0.07016 0.9757 0.0
H777 H 0.26349 0.06322 0.02187 0.0
H778 H 0.13579 0.91241 0.98712 0.0
H779 H 0.14878 0.9094 0.03542 0.0
H780 H 0.1172 0.95414 0.9491 0.0
H781 H 0.13888 0.98873 0.92147 0.0
C782 C 0.76366 0.44014 0.71903 0.0
C783 C 0.72975 0.4604 0.72997 0.0
C784 C 0.76162 0.48158 0.79058 0.0
C785 C 0.79465 0.45963 0.78048 0.0
N786 N 0.83219 0.42899 0.73151 0.0
N787 N 0.70047 0.50962 0.76943 0.0
C788 C 0.79735 0.44274 0.74331 0.0
C789 C 0.73029 0.48446 0.76352 0.0
N790 N 0.76293 0.416 0.68723 0.0
N791 N 0.75899 0.4973 0.82678 0.0
H792 H 0.67741 0.51213 0.74962 0.0
H793 H 0.70045 0.53039 0.79171 0.0
H794 H 0.78139 0.4961 0.84736 0.0
H795 H 0.73378 0.50956 0.83721 0.0
H796 H 0.78501 0.39657 0.68096 0.0
H797 H 0.73939 0.41351 0.66798 0.0
H798 H 0.83705 0.41957 0.70349 0.0
H799 H 0.85728 0.43071 0.74896 0.0
loop_
_geom_bond_atom_site_label_1
_geom_bond_atom_site_label_2
_geom_bond_distance
_geom_bond_site_symmetry_2
_ccdc_geom_bond_type
Zn0 O3 2.031 . S
Zn0 O5 2.049 . S
Zn0 O10 2.067 . S
Zn1 O2 1.962 . S
Zn1 O4 1.986 . S
Zn1 O6 1.996 . S
Zn1 O9 1.943 . S
O2 Zn1 1.962 . S
O2 C7 1.254 . S
O3 Zn0 2.031 . S
O3 C7 1.269 . S
O4 Zn1 1.986 . S
O4 C11 1.262 . S
O5 Zn0 2.049 . S
O5 C13 1.260 . S
O6 Zn1 1.996 . S
O6 C13 1.257 . S
C7 O2 1.254 . S
C7 O3 1.269 . S
C8 O9 1.249 . S
C8 O10 1.270 . S
O9 Zn1 1.943 . S
O9 C8 1.249 . S
O10 Zn0 2.067 . S
O10 C8 1.270 . S
C11 O4 1.262 . S
C11 O12 1.232 . S
O12 C11 1.232 . S
C13 O5 1.260 . S
C13 O6 1.257 . S
Zn14 O17 2.031 . S
Zn14 O19 2.049 . S
Zn14 O24 2.067 . S
Zn15 O16 1.962 . S
Zn15 O18 1.986 . S
Zn15 O20 1.996 . S
Zn15 O23 1.943 . S
O16 Zn15 1.962 . S
O16 C21 1.254 . S
O17 Zn14 2.031 . S
O17 C21 1.269 . S
O18 Zn15 1.986 . S
O18 C25 1.262 . S
O19 Zn14 2.049 . S
O19 C27 1.260 . S
O20 Zn15 1.996 . S
O20 C27 1.257 . S
C21 O16 1.254 . S
C21 O17 1.269 . S
C22 O23 1.249 . S
C22 O24 1.270 . S
O23 Zn15 1.943 . S
O23 C22 1.249 . S
O24 Zn14 2.067 . S
O24 C22 1.270 . S
C25 O18 1.262 . S
C25 O26 1.232 . S
O26 C25 1.232 . S
C27 O19 1.260 . S
C27 O20 1.257 . S
Zn28 O31 2.031 . S
Zn28 O33 2.049 . S
Zn28 O38 2.067 . S
Zn29 O30 1.962 . S
Zn29 O32 1.986 . S
Zn29 O34 1.996 . S
Zn29 O37 1.943 . S
O30 Zn29 1.962 . S
O30 C35 1.254 . S
O31 Zn28 2.031 . S
O31 C35 1.269 . S
O32 Zn29 1.986 . S
O32 C39 1.262 . S
O33 Zn28 2.049 . S
O33 C41 1.260 . S
O34 Zn29 1.996 . S
O34 C41 1.257 . S
C35 O30 1.254 . S
C35 O31 1.269 . S
C36 O37 1.249 . S
C36 O38 1.270 . S
O37 Zn29 1.943 . S
O37 C36 1.249 . S
O38 Zn28 2.067 . S
O38 C36 1.270 . S
C39 O32 1.262 . S
C39 O40 1.232 . S
O40 C39 1.232 . S
C41 O33 1.260 . S
C41 O34 1.257 . S
Zn42 O45 2.031 . S
Zn42 O47 2.049 . S
Zn42 O52 2.067 . S
Zn43 O44 1.962 . S
Zn43 O46 1.986 . S
Zn43 O48 1.996 . S
Zn43 O51 1.943 . S
O44 Zn43 1.962 . S
O44 C49 1.254 . S
O45 Zn42 2.031 . S
O45 C49 1.269 . S
O46 Zn43 1.986 . S
O46 C53 1.262 . S
O47 Zn42 2.049 . S
O47 C55 1.260 . S
O48 Zn43 1.996 . S
O48 C55 1.257 . S
C49 O44 1.254 . S
C49 O45 1.269 . S
C50 O51 1.249 . S
C50 O52 1.270 . S
O51 Zn43 1.943 . S
O51 C50 1.249 . S
O52 Zn42 2.067 . S
O52 C50 1.270 . S
C53 O46 1.262 . S
C53 O54 1.232 . S
O54 C53 1.232 . S
C55 O47 1.260 . S
C55 O48 1.257 . S
Zn56 O59 2.031 . S
Zn56 O61 2.049 . S
Zn56 O66 2.067 . S
Zn57 O58 1.962 . S
Zn57 O60 1.986 . S
Zn57 O62 1.996 . S
Zn57 O65 1.943 . S
O58 Zn57 1.962 . S
O58 C63 1.254 . S
O59 Zn56 2.031 . S
O59 C63 1.269 . S
O60 Zn57 1.986 . S
O60 C67 1.262 . S
O61 Zn56 2.049 . S
O61 C69 1.260 . S
O62 Zn57 1.996 . S
O62 C69 1.257 . S
C63 O58 1.254 . S
C63 O59 1.269 . S
C64 O65 1.249 . S
C64 O66 1.270 . S
O65 Zn57 1.943 . S
O65 C64 1.249 . S
O66 Zn56 2.067 . S
O66 C64 1.270 . S
C67 O60 1.262 . S
C67 O68 1.232 . S
O68 C67 1.232 . S
C69 O61 1.260 . S
C69 O62 1.257 . S
Zn70 O73 2.031 . S
Zn70 O75 2.049 . S
Zn70 O80 2.067 . S
Zn71 O72 1.962 . S
Zn71 O74 1.986 . S
Zn71 O76 1.996 . S
Zn71 O79 1.943 . S
O72 Zn71 1.962 . S
O72 C77 1.254 . S
O73 Zn70 2.031 . S
O73 C77 1.269 . S
O74 Zn71 1.986 . S
O74 C81 1.262 . S
O75 Zn70 2.049 . S
O75 C83 1.260 . S
O76 Zn71 1.996 . S
O76 C83 1.257 . S
C77 O72 1.254 . S
C77 O73 1.269 . S
C78 O79 1.249 . S
C78 O80 1.270 . S
O79 Zn71 1.943 . S
O79 C78 1.249 . S
O80 Zn70 2.067 . S
O80 C78 1.270 . S
C81 O74 1.262 . S
C81 O82 1.232 . S
O82 C81 1.232 . S
C83 O75 1.260 . S
C83 O76 1.257 . S
Zn84 O87 2.031 . S
Zn84 O89 2.049 . S
Zn84 O94 2.067 . S
Zn85 O86 1.962 . S
Zn85 O88 1.986 . S
Zn85 O90 1.996 . S
Zn85 O93 1.943 . S
O86 Zn85 1.962 . S
O86 C91 1.254 . S
O87 Zn84 2.031 . S
O87 C91 1.269 . S
O88 Zn85 1.986 . S
O88 C95 1.262 . S
O89 Zn84 2.049 . S
O89 C97 1.260 . S
O90 Zn85 1.996 . S
O90 C97 1.257 . S
C91 O86 1.254 . S
C91 O87 1.269 . S
C92 O93 1.249 . S
C92 O94 1.270 . S
O93 Zn85 1.943 . S
O93 C92 1.249 . S
O94 Zn84 2.067 . S
O94 C92 1.270 . S
C95 O88 1.262 . S
C95 O96 1.232 . S
O96 C95 1.232 . S
C97 O89 1.260 . S
C97 O90 1.257 . S
Zn98 O101 2.031 . S
Zn98 O103 2.049 . S
Zn98 O108 2.067 . S
Zn99 O100 1.962 . S
Zn99 O102 1.986 . S
Zn99 O104 1.996 . S
Zn99 O107 1.943 . S
O100 Zn99 1.962 . S
O100 C105 1.254 . S
O101 Zn98 2.031 . S
O101 C105 1.269 . S
O102 Zn99 1.986 . S
O102 C109 1.262 . S
O103 Zn98 2.049 . S
O103 C111 1.260 . S
O104 Zn99 1.996 . S
O104 C111 1.257 . S
C105 O100 1.254 . S
C105 O101 1.269 . S
C106 O107 1.249 . S
C106 O108 1.270 . S
O107 Zn99 1.943 . S
O107 C106 1.249 . S
O108 Zn98 2.067 . S
O108 C106 1.270 . S
C109 O102 1.262 . S
C109 O110 1.232 . S
O110 C109 1.232 . S
C111 O103 1.260 . S
C111 O104 1.257 . S
Zn112 O115 2.031 . S
Zn112 O117 2.049 . S
Zn112 O122 2.067 . S
Zn113 O114 1.962 . S
Zn113 O116 1.986 . S
Zn113 O118 1.996 . S
Zn113 O121 1.943 . S
O114 Zn113 1.962 . S
O114 C119 1.254 . S
O115 Zn112 2.031 . S
O115 C119 1.269 . S
O116 Zn113 1.986 . S
O116 C123 1.262 . S
O117 Zn112 2.049 . S
O117 C125 1.260 . S
O118 Zn113 1.996 . S
O118 C125 1.257 . S
C119 O114 1.254 . S
C119 O115 1.269 . S
C120 O121 1.249 . S
C120 O122 1.270 . S
O121 Zn113 1.943 . S
O121 C120 1.249 . S
O122 Zn112 2.067 . S
O122 C120 1.270 . S
C123 O116 1.262 . S
C123 O124 1.232 . S
O124 C123 1.232 . S
C125 O117 1.260 . S
C125 O118 1.257 . S
Zn126 O129 2.031 . S
Zn126 O131 2.049 . S
Zn126 O136 2.067 . S
Zn127 O128 1.962 . S
Zn127 O130 1.986 . S
Zn127 O132 1.996 . S
Zn127 O135 1.943 . S
O128 Zn127 1.962 . S
O128 C133 1.254 . S
O129 Zn126 2.031 . S
O129 C133 1.269 . S
O130 Zn127 1.986 . S
O130 C137 1.262 . S
O131 Zn126 2.049 . S
O131 C139 1.260 . S
O132 Zn127 1.996 . S
O132 C139 1.257 . S
C133 O128 1.254 . S
C133 O129 1.269 . S
C134 O135 1.249 . S
C134 O136 1.270 . S
O135 Zn127 1.943 . S
O135 C134 1.249 . S
O136 Zn126 2.067 . S
O136 C134 1.270 . S
C137 O130 1.262 . S
C137 O138 1.232 . S
O138 C137 1.232 . S
C139 O131 1.260 . S
C139 O132 1.257 . S
Zn140 O143 2.031 . S
Zn140 O145 2.049 . S
Zn140 O150 2.067 . S
Zn141 O142 1.962 . S
Zn141 O144 1.986 . S
Zn141 O146 1.996 . S
Zn141 O149 1.943 . S
O142 Zn141 1.962 . S
O142 C147 1.254 . S
O143 Zn140 2.031 . S
O143 C147 1.269 . S
O144 Zn141 1.986 . S
O144 C151 1.262 . S
O145 Zn140 2.049 . S
O145 C153 1.260 . S
O146 Zn141 1.996 . S
O146 C153 1.257 . S
C147 O142 1.254 . S
C147 O143 1.269 . S
C148 O149 1.249 . S
C148 O150 1.270 . S
O149 Zn141 1.943 . S
O149 C148 1.249 . S
O150 Zn140 2.067 . S
O150 C148 1.270 . S
C151 O144 1.262 . S
C151 O152 1.232 . S
O152 C151 1.232 . S
C153 O145 1.260 . S
C153 O146 1.257 . S
Zn154 O157 2.031 . S
Zn154 O159 2.049 . S
Zn154 O164 2.067 . S
Zn155 O156 1.962 . S
Zn155 O158 1.986 . S
Zn155 O160 1.996 . S
Zn155 O163 1.943 . S
O156 Zn155 1.962 . S
O156 C161 1.254 . S
O157 Zn154 2.031 . S
O157 C161 1.269 . S
O158 Zn155 1.986 . S
O158 C165 1.262 . S
O159 Zn154 2.049 . S
O159 C167 1.260 . S
O160 Zn155 1.996 . S
O160 C167 1.257 . S
C161 O156 1.254 . S
C161 O157 1.269 . S
C162 O163 1.249 . S
C162 O164 1.270 . S
O163 Zn155 1.943 . S
O163 C162 1.249 . S
O164 Zn154 2.067 . S
O164 C162 1.270 . S
C165 O158 1.262 . S
C165 O166 1.232 . S
O166 C165 1.232 . S
C167 O159 1.260 . S
C167 O160 1.257 . S
Zn168 O171 2.031 . S
Zn168 O173 2.049 . S
Zn168 O178 2.067 . S
Zn169 O170 1.962 . S
Zn169 O172 1.986 . S
Zn169 O174 1.996 . S
Zn169 O177 1.943 . S
O170 Zn169 1.962 . S
O170 C175 1.254 . S
O171 Zn168 2.031 . S
O171 C175 1.269 . S
O172 Zn169 1.986 . S
O172 C179 1.262 . S
O173 Zn168 2.049 . S
O173 C181 1.260 . S
O174 Zn169 1.996 . S
O174 C181 1.257 . S
C175 O170 1.254 . S
C175 O171 1.269 . S
C176 O177 1.249 . S
C176 O178 1.270 . S
O177 Zn169 1.943 . S
O177 C176 1.249 . S
O178 Zn168 2.067 . S
O178 C176 1.270 . S
C179 O172 1.262 . S
C179 O180 1.232 . S
O180 C179 1.232 . S
C181 O173 1.260 . S
C181 O174 1.257 . S
Zn182 O185 2.031 . S
Zn182 O187 2.049 . S
Zn182 O192 2.067 . S
Zn183 O184 1.962 . S
Zn183 O186 1.986 . S
Zn183 O188 1.996 . S
Zn183 O191 1.943 . S
O184 Zn183 1.962 . S
O184 C189 1.254 . S
O185 Zn182 2.031 . S
O185 C189 1.269 . S
O186 Zn183 1.986 . S
O186 C193 1.262 . S
O187 Zn182 2.049 . S
O187 C195 1.260 . S
O188 Zn183 1.996 . S
O188 C195 1.257 . S
C189 O184 1.254 . S
C189 O185 1.269 . S
C190 O191 1.249 . S
C190 O192 1.270 . S
O191 Zn183 1.943 . S
O191 C190 1.249 . S
O192 Zn182 2.067 . S
O192 C190 1.270 . S
C193 O186 1.262 . S
C193 O194 1.232 . S
O194 C193 1.232 . S
C195 O187 1.260 . S
C195 O188 1.257 . S
Zn196 O199 2.031 . S
Zn196 O201 2.049 . S
Zn196 O206 2.067 . S
Zn197 O198 1.962 . S
Zn197 O200 1.986 . S
Zn197 O202 1.996 . S
Zn197 O205 1.943 . S
O198 Zn197 1.962 . S
O198 C203 1.254 . S
O199 Zn196 2.031 . S
O199 C203 1.269 . S
O200 Zn197 1.986 . S
O200 C207 1.262 . S
O201 Zn196 2.049 . S
O201 C209 1.260 . S
O202 Zn197 1.996 . S
O202 C209 1.257 . S
C203 O198 1.254 . S
C203 O199 1.269 . S
C204 O205 1.249 . S
C204 O206 1.270 . S
O205 Zn197 1.943 . S
O205 C204 1.249 . S
O206 Zn196 2.067 . S
O206 C204 1.270 . S
C207 O200 1.262 . S
C207 O208 1.232 . S
O208 C207 1.232 . S
C209 O201 1.260 . S
C209 O202 1.257 . S
Zn210 O213 2.031 . S
Zn210 O215 2.049 . S
Zn210 O220 2.067 . S
Zn211 O212 1.962 . S
Zn211 O214 1.986 . S
Zn211 O216 1.996 . S
Zn211 O219 1.943 . S
O212 Zn211 1.962 . S
O212 C217 1.254 . S
O213 Zn210 2.031 . S
O213 C217 1.269 . S
O214 Zn211 1.986 . S
O214 C221 1.262 . S
O215 Zn210 2.049 . S
O215 C223 1.260 . S
O216 Zn211 1.996 . S
O216 C223 1.257 . S
C217 O212 1.254 . S
C217 O213 1.269 . S
C218 O219 1.249 . S
C218 O220 1.270 . S
O219 Zn211 1.943 . S
O219 C218 1.249 . S
O220 Zn210 2.067 . S
O220 C218 1.270 . S
C221 O214 1.262 . S
C221 O222 1.232 . S
O222 C221 1.232 . S
C223 O215 1.260 . S
C223 O216 1.257 . S
C224 C225 1.363 . S
C224 C230 1.379 . S
C224 N232 1.356 . S
C225 C224 1.363 . S
C225 C231 1.363 . S
C226 C227 1.363 . S
C226 C231 1.379 . S
C226 N233 1.356 . S
C227 C226 1.363 . S
C227 C230 1.363 . S
N228 C230 1.356 . S
N228 H240 0.984 . S
N228 H241 0.985 . S
N229 C231 1.356 . S
N229 H234 0.984 . S
N229 H235 0.985 . S
C230 C224 1.379 . S
C230 C227 1.363 . S
C230 N228 1.356 . S
C231 C225 1.363 . S
C231 C226 1.379 . S
C231 N229 1.356 . S
N232 C224 1.356 . S
N232 H238 0.984 . S
N232 H239 0.984 . S
N233 C226 1.356 . S
N233 H236 0.984 . S
N233 H237 0.985 . S
H234 N229 0.984 . S
H235 N229 0.985 . S
H236 N233 0.984 . S
H237 N233 0.985 . S
H238 N232 0.984 . S
H239 N232 0.984 . S
H240 N228 0.984 . S
H241 N228 0.985 . S
C242 C243 1.363 . S
C242 C248 1.379 . S
C242 N250 1.356 . S
C243 C242 1.363 . S
C243 C249 1.363 . S
C244 C245 1.363 . S
C244 C249 1.379 . S
C244 N251 1.356 . S
C245 C244 1.363 . S
C245 C248 1.363 . S
N246 C248 1.356 . S
N246 H258 0.984 . S
N246 H259 0.985 . S
N247 C249 1.356 . S
N247 H252 0.984 . S
N247 H253 0.985 . S
C248 C242 1.379 . S
C248 C245 1.363 . S
C248 N246 1.356 . S
C249 C243 1.363 . S
C249 C244 1.379 . S
C249 N247 1.356 . S
N250 C242 1.356 . S
N250 H256 0.984 . S
N250 H257 0.984 . S
N251 C244 1.356 . S
N251 H254 0.984 . S
N251 H255 0.985 . S
H252 N247 0.984 . S
H253 N247 0.985 . S
H254 N251 0.984 . S
H255 N251 0.985 . S
H256 N250 0.984 . S
H257 N250 0.984 . S
H258 N246 0.984 . S
H259 N246 0.985 . S
C260 C261 1.363 . S
C260 C266 1.379 . S
C260 N268 1.356 . S
C261 C260 1.363 . S
C261 C267 1.363 . S
C262 C263 1.363 . S
C262 C267 1.379 . S
C262 N269 1.356 . S
C263 C262 1.363 . S
C263 C266 1.363 . S
N264 C266 1.356 . S
N264 H276 0.984 . S
N264 H277 0.985 . S
N265 C267 1.356 . S
N265 H270 0.984 . S
N265 H271 0.985 . S
C266 C260 1.379 . S
C266 C263 1.363 . S
C266 N264 1.356 . S
C267 C261 1.363 . S
C267 C262 1.379 . S
C267 N265 1.356 . S
N268 C260 1.356 . S
N268 H274 0.984 . S
N268 H275 0.984 . S
N269 C262 1.356 . S
N269 H272 0.984 . S
N269 H273 0.985 . S
H270 N265 0.984 . S
H271 N265 0.985 . S
H272 N269 0.984 . S
H273 N269 0.985 . S
H274 N268 0.984 . S
H275 N268 0.984 . S
H276 N264 0.984 . S
H277 N264 0.985 . S
C278 C279 1.363 . S
C278 C284 1.379 1_455 S
C278 N286 1.356 . S
C279 C278 1.363 . S
C279 C285 1.363 . S
C280 C281 1.363 . S
C280 C285 1.379 1_655 S
C280 N287 1.356 . S
C281 C280 1.363 . S
C281 C284 1.363 . S
N282 C284 1.356 . S
N282 H294 0.984 . S
N282 H295 0.985 . S
N283 C285 1.356 . S
N283 H288 0.984 . S
N283 H289 0.985 . S
C284 C278 1.379 1_655 S
C284 C281 1.363 . S
C284 N282 1.356 . S
C285 C279 1.363 . S
C285 C280 1.379 1_455 S
C285 N283 1.356 . S
N286 C278 1.356 . S
N286 H292 0.984 . S
N286 H293 0.984 . S
N287 C280 1.356 . S
N287 H290 0.984 . S
N287 H291 0.985 . S
H288 N283 0.984 . S
H289 N283 0.985 . S
H290 N287 0.984 . S
H291 N287 0.985 . S
H292 N286 0.984 . S
H293 N286 0.984 . S
H294 N282 0.984 . S
H295 N282 0.985 . S
C296 C297 1.363 . S
C296 C302 1.379 . S
C296 N304 1.356 . S
C297 C296 1.363 . S
C297 C303 1.363 . S
C298 C299 1.363 . S
C298 C303 1.379 . S
C298 N305 1.356 . S
C299 C298 1.363 . S
C299 C302 1.363 . S
N300 C302 1.356 . S
N300 H312 0.984 . S
N300 H313 0.985 . S
N301 C303 1.356 . S
N301 H306 0.984 . S
N301 H307 0.985 . S
C302 C296 1.379 . S
C302 C299 1.363 . S
C302 N300 1.356 . S
C303 C297 1.363 . S
C303 C298 1.379 . S
C303 N301 1.356 . S
N304 C296 1.356 . S
N304 H310 0.984 . S
N304 H311 0.984 . S
N305 C298 1.356 . S
N305 H308 0.984 . S
N305 H309 0.985 . S
H306 N301 0.984 . S
H307 N301 0.985 . S
H308 N305 0.984 . S
H309 N305 0.985 . S
H310 N304 0.984 . S
H311 N304 0.984 . S
H312 N300 0.984 . S
H313 N300 0.985 . S
C314 C315 1.363 . S
C314 C320 1.379 1_655 S
C314 N322 1.356 . S
C315 C314 1.363 . S
C315 C321 1.363 . S
C316 C317 1.363 . S
C316 C321 1.379 1_455 S
C316 N323 1.356 . S
C317 C316 1.363 . S
C317 C320 1.363 . S
N318 C320 1.356 . S
N318 H330 0.984 1_565 S
N318 H331 0.985 . S
N319 C321 1.356 . S
N319 H324 0.984 . S
N319 H325 0.985 . S
C320 C314 1.379 1_455 S
C320 C317 1.363 . S
C320 N318 1.356 . S
C321 C315 1.363 . S
C321 C316 1.379 1_655 S
C321 N319 1.356 . S
N322 C314 1.356 . S
N322 H328 0.984 1_565 S
N322 H329 0.984 . S
N323 C316 1.356 . S
N323 H326 0.984 . S
N323 H327 0.985 . S
H324 N319 0.984 . S
H325 N319 0.985 . S
H326 N323 0.984 . S
H327 N323 0.985 . S
H328 N322 0.984 1_545 S
H329 N322 0.984 . S
H330 N318 0.984 1_545 S
H331 N318 0.985 . S
C332 C333 1.363 . S
C332 C338 1.379 . S
C332 N340 1.356 . S
C333 C332 1.363 . S
C333 C339 1.363 . S
C334 C335 1.363 . S
C334 C339 1.379 . S
C334 N341 1.356 . S
C335 C334 1.363 . S
C335 C338 1.363 . S
N336 C338 1.356 . S
N336 H348 0.984 . S
N336 H349 0.985 . S
N337 C339 1.356 . S
N337 H342 0.984 . S
N337 H343 0.985 . S
C338 C332 1.379 . S
C338 C335 1.363 . S
C338 N336 1.356 . S
C339 C333 1.363 . S
C339 C334 1.379 . S
C339 N337 1.356 . S
N340 C332 1.356 . S
N340 H346 0.984 . S
N340 H347 0.984 . S
N341 C334 1.356 . S
N341 H344 0.984 . S
N341 H345 0.985 . S
H342 N337 0.984 . S
H343 N337 0.985 . S
H344 N341 0.984 . S
H345 N341 0.985 . S
H346 N340 0.984 . S
H347 N340 0.984 . S
H348 N336 0.984 . S
H349 N336 0.985 . S
C350 C351 1.363 . S
C350 C356 1.379 . S
C350 N358 1.356 . S
C351 C350 1.363 . S
C351 C357 1.363 . S
C352 C353 1.363 . S
C352 C357 1.379 . S
C352 N359 1.356 . S
C353 C352 1.363 . S
C353 C356 1.363 . S
N354 C356 1.356 . S
N354 H366 1.010 . S
N354 H367 0.985 . S
N355 C357 1.356 . S
N355 H360 0.984 . S
N355 H361 0.985 . S
C356 C350 1.379 . S
C356 C353 1.363 . S
C356 N354 1.356 . S
C357 C351 1.363 . S
C357 C352 1.379 . S
C357 N355 1.356 . S
N358 C350 1.356 . S
N358 H364 0.984 . S
N358 H365 0.984 . S
N359 C352 1.356 . S
N359 H362 0.984 . S
N359 H363 0.985 . S
H360 N355 0.984 . S
H361 N355 0.985 . S
H362 N359 0.984 . S
H363 N359 0.985 . S
H364 N358 0.984 . S
H365 N358 0.984 . S
H366 N354 1.010 . S
H367 N354 0.985 . S
C368 C369 1.363 . S
C368 C374 1.379 . S
C368 N376 1.356 . S
C369 C368 1.363 . S
C369 C375 1.363 . S
C370 C371 1.363 . S
C370 C375 1.379 . S
C370 N377 1.356 . S
C371 C370 1.363 . S
C371 C374 1.363 . S
N372 C374 1.356 . S
N372 H384 0.984 . S
N372 H385 0.985 . S
N373 C375 1.356 . S
N373 H378 0.984 . S
N373 H379 0.985 . S
C374 C368 1.379 . S
C374 C371 1.363 . S
C374 N372 1.356 . S
C375 C369 1.363 . S
C375 C370 1.379 . S
C375 N373 1.356 . S
N376 C368 1.356 . S
N376 H382 0.984 . S
N376 H383 0.984 . S
N377 C370 1.356 . S
N377 H380 0.984 . S
N377 H381 0.985 . S
H378 N373 0.984 . S
H379 N373 0.985 . S
H380 N377 0.984 . S
H381 N377 0.985 . S
H382 N376 0.984 . S
H383 N376 0.984 . S
H384 N372 0.984 . S
H385 N372 0.985 . S
C386 C387 1.363 . S
C386 C392 1.379 . S
C386 N394 1.356 . S
C387 C386 1.363 . S
C387 C393 1.363 . S
C388 C389 1.363 . S
C388 C393 1.379 . S
C388 N395 1.356 . S
C389 C388 1.363 . S
C389 C392 1.363 . S
N390 C392 1.356 . S
N390 H402 0.984 . S
N390 H403 0.985 . S
N391 C393 1.356 . S
N391 H396 0.984 . S
N391 H397 0.985 . S
C392 C386 1.379 . S
C392 C389 1.363 . S
C392 N390 1.356 . S
C393 C387 1.363 . S
C393 C388 1.379 . S
C393 N391 1.356 . S
N394 C386 1.356 . S
N394 H400 0.984 . S
N394 H401 0.984 . S
N395 C388 1.356 . S
N395 H398 0.984 . S
N395 H399 0.985 . S
H396 N391 0.984 . S
H397 N391 0.985 . S
H398 N395 0.984 . S
H399 N395 0.985 . S
H400 N394 0.984 . S
H401 N394 0.984 . S
H402 N390 0.984 . S
H403 N390 0.985 . S
C404 C405 1.363 . S
C404 C410 1.379 . S
C404 N412 1.356 . S
C405 C404 1.363 . S
C405 C411 1.363 . S
C406 C407 1.363 . S
C406 C411 1.379 . S
C406 N413 1.356 . S
C407 C406 1.363 . S
C407 C410 1.363 . S
N408 C410 1.356 . S
N408 H420 0.984 . S
N408 H421 0.985 . S
N409 C411 1.356 . S
N409 H414 0.984 . S
N409 H415 0.985 . S
C410 C404 1.379 . S
C410 C407 1.363 . S
C410 N408 1.356 . S
C411 C405 1.363 . S
C411 C406 1.379 . S
C411 N409 1.356 . S
N412 C404 1.356 . S
N412 H418 0.984 . S
N412 H419 0.984 . S
N413 C406 1.356 . S
N413 H416 0.984 . S
N413 H417 0.985 . S
H414 N409 0.984 . S
H415 N409 0.985 . S
H416 N413 0.984 . S
H417 N413 0.985 . S
H418 N412 0.984 . S
H419 N412 0.984 . S
H420 N408 0.984 . S
H421 N408 0.985 . S
C422 C423 1.363 . S
C422 C428 1.379 . S
C422 N430 1.356 . S
C423 C422 1.363 . S
C423 C429 1.363 . S
C424 C425 1.363 . S
C424 C429 1.379 . S
C424 N431 1.356 . S
C425 C424 1.363 . S
C425 C428 1.363 . S
N426 C428 1.356 . S
N426 H438 0.984 . S
N426 H439 0.985 . S
N427 C429 1.356 . S
N427 H432 0.984 . S
N427 H433 0.985 . S
C428 C422 1.379 . S
C428 C425 1.363 . S
C428 N426 1.356 . S
C429 C423 1.363 . S
C429 C424 1.379 . S
C429 N427 1.356 . S
N430 C422 1.356 . S
N430 H436 0.984 . S
N430 H437 0.984 . S
N431 C424 1.356 . S
N431 H434 0.984 . S
N431 H435 0.985 . S
H432 N427 0.984 . S
H433 N427 0.985 . S
H434 N431 0.984 . S
H435 N431 0.985 . S
H436 N430 0.984 . S
H437 N430 0.984 . S
H438 N426 0.984 . S
H439 N426 0.985 . S
C440 C441 1.363 . S
C440 C446 1.379 1_455 S
C440 N448 1.356 . S
C441 C440 1.363 . S
C441 C447 1.363 . S
C442 C443 1.363 . S
C442 C447 1.379 1_655 S
C442 N449 1.356 . S
C443 C442 1.363 . S
C443 C446 1.363 . S
N444 C446 1.356 . S
N444 H456 0.984 . S
N444 H457 0.985 . S
N445 C447 1.356 . S
N445 H450 0.984 . S
N445 H451 0.985 . S
C446 C440 1.379 1_655 S
C446 C443 1.363 . S
C446 N444 1.356 . S
C447 C441 1.363 . S
C447 C442 1.379 1_455 S
C447 N445 1.356 . S
N448 C440 1.356 . S
N448 H454 0.984 . S
N448 H455 0.984 . S
N449 C442 1.356 . S
N449 H452 0.984 . S
N449 H453 0.985 . S
H450 N445 0.984 . S
H451 N445 0.985 . S
H452 N449 0.984 . S
H453 N449 0.985 . S
H454 N448 0.984 . S
H455 N448 0.984 . S
H456 N444 0.984 . S
H457 N444 0.985 . S
C458 C459 1.363 . S
C458 C464 1.379 . S
C458 N466 1.356 . S
C459 C458 1.363 . S
C459 C465 1.363 . S
C460 C461 1.363 . S
C460 C465 1.379 . S
C460 N467 1.356 . S
C461 C460 1.363 . S
C461 C464 1.363 . S
N462 C464 1.356 . S
N462 H474 0.984 . S
N462 H475 0.985 . S
N463 C465 1.356 . S
N463 H468 0.984 . S
N463 H469 0.985 . S
C464 C458 1.379 . S
C464 C461 1.363 . S
C464 N462 1.356 . S
C465 C459 1.363 . S
C465 C460 1.379 . S
C465 N463 1.356 . S
N466 C458 1.356 . S
N466 H472 0.984 . S
N466 H473 0.984 . S
N467 C460 1.356 . S
N467 H470 0.984 . S
N467 H471 0.985 . S
H468 N463 0.984 . S
H469 N463 0.985 . S
H470 N467 0.984 . S
H471 N467 0.985 . S
H472 N466 0.984 . S
H473 N466 0.984 . S
H474 N462 0.984 . S
H475 N462 0.985 . S
C476 C477 1.363 . S
C476 C482 1.379 . S
C476 N484 1.356 . S
C477 C476 1.363 . S
C477 C483 1.363 . S
C478 C479 1.363 . S
C478 C483 1.379 . S
C478 N485 1.356 . S
C479 C478 1.363 . S
C479 C482 1.363 . S
N480 C482 1.356 . S
N480 H492 0.984 . S
N480 H493 0.985 . S
N481 C483 1.356 . S
N481 H486 0.984 . S
N481 H487 0.985 . S
C482 C476 1.379 . S
C482 C479 1.363 . S
C482 N480 1.356 . S
C483 C477 1.363 . S
C483 C478 1.379 . S
C483 N481 1.356 . S
N484 C476 1.356 . S
N484 H490 0.984 . S
N484 H491 0.984 . S
N485 C478 1.356 . S
N485 H488 0.984 . S
N485 H489 0.985 . S
H486 N481 0.984 . S
H487 N481 0.985 . S
H488 N485 0.984 . S
H489 N485 0.985 . S
H490 N484 0.984 . S
H491 N484 0.984 . S
H492 N480 0.984 . S
H493 N480 0.985 . S
C494 C495 1.363 . S
C494 C500 1.379 1_455 S
C494 N502 1.356 . S
C495 C494 1.363 . S
C495 C501 1.363 . S
C496 C497 1.363 . S
C496 C501 1.379 1_655 S
C496 N503 1.356 . S
C497 C496 1.363 . S
C497 C500 1.363 . S
N498 C500 1.356 . S
N498 H510 0.984 . S
N498 H511 0.985 . S
N499 C501 1.356 . S
N499 H504 0.984 . S
N499 H505 0.985 . S
C500 C494 1.379 1_655 S
C500 C497 1.363 . S
C500 N498 1.356 . S
C501 C495 1.363 . S
C501 C496 1.379 1_455 S
C501 N499 1.356 . S
N502 C494 1.356 . S
N502 H508 0.984 . S
N502 H509 0.984 . S
N503 C496 1.356 . S
N503 H506 0.984 . S
N503 H507 0.985 . S
H504 N499 0.984 . S
H505 N499 0.985 . S
H506 N503 0.984 . S
H507 N503 0.985 . S
H508 N502 0.984 . S
H509 N502 0.984 . S
H510 N498 0.984 . S
H511 N498 0.985 . S
C512 C513 1.363 . S
C512 C518 1.379 . S
C512 N520 1.356 . S
C513 C512 1.363 . S
C513 C519 1.363 1_554 S
C514 C515 1.363 . S
C514 C519 1.379 . S
C514 N521 1.356 . S
C515 C514 1.363 . S
C515 C518 1.363 1_556 S
N516 C518 1.356 1_556 S
N516 H528 0.984 1_556 S
N516 H529 0.985 . S
N517 C519 1.356 1_554 S
N517 H522 0.984 . S
N517 H523 0.985 1_554 S
C518 C512 1.379 . S
C518 C515 1.363 1_554 S
C518 N516 1.356 1_554 S
C519 C513 1.363 1_556 S
C519 C514 1.379 . S
C519 N517 1.356 1_556 S
N520 C512 1.356 . S
N520 H526 0.984 . S
N520 H527 0.984 . S
N521 C514 1.356 . S
N521 H524 0.984 . S
N521 H525 0.985 . S
H522 N517 0.984 . S
H523 N517 0.985 1_556 S
H524 N521 0.984 . S
H525 N521 0.985 . S
H526 N520 0.984 . S
H527 N520 0.984 . S
H528 N516 0.984 1_554 S
H529 N516 0.985 . S
C530 C531 1.363 . S
C530 C536 1.379 . S
C530 N538 1.356 . S
C531 C530 1.363 . S
C531 C537 1.363 . S
C532 C533 1.363 . S
C532 C537 1.379 . S
C532 N539 1.356 . S
C533 C532 1.363 . S
C533 C536 1.363 . S
N534 C536 1.356 . S
N534 H546 0.984 1_565 S
N534 H547 0.985 . S
N535 C537 1.356 . S
N535 H540 0.984 . S
N535 H541 0.985 . S
C536 C530 1.379 . S
C536 C533 1.363 . S
C536 N534 1.356 . S
C537 C531 1.363 . S
C537 C532 1.379 . S
C537 N535 1.356 . S
N538 C530 1.356 . S
N538 H544 0.984 1_565 S
N538 H545 0.984 . S
N539 C532 1.356 . S
N539 H542 0.984 . S
N539 H543 0.985 . S
H540 N535 0.984 . S
H541 N535 0.985 . S
H542 N539 0.984 . S
H543 N539 0.985 . S
H544 N538 0.984 1_545 S
H545 N538 0.984 . S
H546 N534 0.984 1_545 S
H547 N534 0.985 . S
C548 C549 1.363 . S
C548 C554 1.379 . S
C548 N556 1.356 . S
C549 C548 1.363 . S
C549 C555 1.363 . S
C550 C551 1.363 . S
C550 C555 1.379 . S
C550 N557 1.356 . S
C551 C550 1.363 . S
C551 C554 1.363 . S
N552 C554 1.356 . S
N552 H564 0.984 . S
N552 H565 0.985 . S
N553 C555 1.356 . S
N553 H558 0.984 . S
N553 H559 0.985 . S
C554 C548 1.379 . S
C554 C551 1.363 . S
C554 N552 1.356 . S
C555 C549 1.363 . S
C555 C550 1.379 . S
C555 N553 1.356 . S
N556 C548 1.356 . S
N556 H562 0.984 . S
N556 H563 0.984 . S
N557 C550 1.356 . S
N557 H560 0.984 . S
N557 H561 0.985 . S
H558 N553 0.984 . S
H559 N553 0.985 . S
H560 N557 0.984 . S
H561 N557 0.985 . S
H562 N556 0.984 . S
H563 N556 0.984 . S
H564 N552 0.984 . S
H565 N552 0.985 . S
C566 C567 1.363 . S
C566 C572 1.379 . S
C566 N574 1.356 . S
C567 C566 1.363 . S
C567 C573 1.363 . S
C568 C569 1.363 . S
C568 C573 1.379 . S
C568 N575 1.356 . S
C569 C568 1.363 . S
C569 C572 1.363 . S
N570 C572 1.356 . S
N570 H582 0.984 . S
N570 H583 0.985 . S
N571 C573 1.356 . S
N571 H576 0.984 . S
N571 H577 0.985 . S
C572 C566 1.379 . S
C572 C569 1.363 . S
C572 N570 1.356 . S
C573 C567 1.363 . S
C573 C568 1.379 . S
C573 N571 1.356 . S
N574 C566 1.356 . S
N574 H580 0.984 . S
N574 H581 0.984 . S
N575 C568 1.356 . S
N575 H578 0.984 . S
N575 H579 0.985 . S
H576 N571 0.984 . S
H577 N571 0.985 . S
H578 N575 0.984 . S
H579 N575 0.985 . S
H580 N574 0.984 . S
H581 N574 0.984 . S
H582 N570 0.984 . S
H583 N570 0.985 . S
C584 C585 1.363 . S
C584 C590 1.379 . S
C584 N592 1.356 . S
C585 C584 1.363 . S
C585 C591 1.370 . S
C586 C587 1.363 . S
C586 C591 1.372 1_554 S
C586 N593 1.356 . S
C587 C586 1.363 . S
C587 C590 1.363 1_554 S
N588 C590 1.356 1_554 S
N588 H600 0.984 1_554 S
N588 H601 0.985 . S
N589 C591 1.358 . S
N589 H594 0.984 . S
N589 H595 0.985 1_556 S
C590 C584 1.379 . S
C590 C587 1.363 1_556 S
C590 N588 1.356 1_556 S
C591 C585 1.370 . S
C591 C586 1.372 1_556 S
C591 N589 1.358 . S
N592 C584 1.356 . S
N592 H598 0.984 . S
N592 H599 0.984 . S
N593 C586 1.356 . S
N593 H596 0.984 . S
N593 H597 0.985 . S
H594 N589 0.984 . S
H595 N589 0.985 1_554 S
H596 N593 0.984 . S
H597 N593 0.985 . S
H598 N592 0.984 . S
H599 N592 0.984 . S
H600 N588 0.984 1_556 S
H601 N588 0.985 . S
C602 C603 1.363 . S
C602 C608 1.379 . S
C602 N610 1.356 . S
C603 C602 1.363 . S
C603 C609 1.363 . S
C604 C605 1.363 . S
C604 C609 1.379 . S
C604 N611 1.356 . S
C605 C604 1.363 . S
C605 C608 1.363 . S
N606 C608 1.356 . S
N606 H618 0.984 . S
N606 H619 0.985 . S
N607 C609 1.356 . S
N607 H612 0.984 . S
N607 H613 0.985 . S
C608 C602 1.379 . S
C608 C605 1.363 . S
C608 N606 1.356 . S
C609 C603 1.363 . S
C609 C604 1.379 . S
C609 N607 1.356 . S
N610 C602 1.356 . S
N610 H616 0.984 . S
N610 H617 0.984 . S
N611 C604 1.356 . S
N611 H614 0.984 . S
N611 H615 0.985 . S
H612 N607 0.984 . S
H613 N607 0.985 . S
H614 N611 0.984 . S
H615 N611 0.985 . S
H616 N610 0.984 . S
H617 N610 0.984 . S
H618 N606 0.984 . S
H619 N606 0.985 . S
C620 C621 1.363 . S
C620 C626 1.379 . S
C620 N628 1.356 . S
C621 C620 1.363 . S
C621 C627 1.363 . S
C622 C623 1.363 . S
C622 C627 1.379 . S
C622 N629 1.356 . S
C623 C622 1.363 . S
C623 C626 1.363 . S
N624 C626 1.356 . S
N624 H636 0.984 . S
N624 H637 0.985 . S
N625 C627 1.356 . S
N625 H630 0.984 . S
N625 H631 0.985 . S
C626 C620 1.379 . S
C626 C623 1.363 . S
C626 N624 1.356 . S
C627 C621 1.363 . S
C627 C622 1.379 . S
C627 N625 1.356 . S
N628 C620 1.356 . S
N628 H634 0.984 . S
N628 H635 0.984 . S
N629 C622 1.356 . S
N629 H632 0.984 . S
N629 H633 0.985 . S
H630 N625 0.984 . S
H631 N625 0.985 . S
H632 N629 0.984 . S
H633 N629 0.985 . S
H634 N628 0.984 . S
H635 N628 0.984 . S
H636 N624 0.984 . S
H637 N624 0.985 . S
C638 C639 1.363 . S
C638 C644 1.379 . S
C638 N646 1.356 . S
C639 C638 1.363 . S
C639 C645 1.363 . S
C640 C641 1.363 . S
C640 C645 1.379 . S
C640 N647 1.356 . S
C641 C640 1.363 . S
C641 C644 1.363 . S
N642 C644 1.356 . S
N642 H654 0.984 . S
N642 H655 0.985 . S
N643 C645 1.356 . S
N643 H648 0.984 . S
N643 H649 0.985 . S
C644 C638 1.379 . S
C644 C641 1.363 . S
C644 N642 1.356 . S
C645 C639 1.363 . S
C645 C640 1.379 . S
C645 N643 1.356 . S
N646 C638 1.356 . S
N646 H652 0.984 . S
N646 H653 0.984 . S
N647 C640 1.356 . S
N647 H650 0.984 . S
N647 H651 0.985 . S
H648 N643 0.984 . S
H649 N643 0.985 . S
H650 N647 0.984 . S
H651 N647 0.985 . S
H652 N646 0.984 . S
H653 N646 0.984 . S
H654 N642 0.984 . S
H655 N642 0.985 . S
C656 C657 1.363 1_565 S
C656 C662 1.379 . S
C656 N664 1.356 . S
C657 C656 1.363 1_545 S
C657 C663 1.363 . S
C658 C659 1.363 1_545 S
C658 C663 1.379 . S
C658 N665 1.356 . S
C659 C658 1.363 1_565 S
C659 C662 1.363 . S
N660 C662 1.356 . S
N660 H672 0.984 . S
N660 H673 0.985 . S
N661 C663 1.356 . S
N661 H666 0.984 . S
N661 H667 0.985 . S
C662 C656 1.379 . S
C662 C659 1.363 . S
C662 N660 1.356 . S
C663 C657 1.363 . S
C663 C658 1.379 . S
C663 N661 1.356 . S
N664 C656 1.356 . S
N664 H670 0.984 . S
N664 H671 0.984 1_565 S
N665 C658 1.356 . S
N665 H668 0.984 1_545 S
N665 H669 0.985 . S
H666 N661 0.984 . S
H667 N661 0.985 . S
H668 N665 0.984 1_565 S
H669 N665 0.985 . S
H670 N664 0.984 . S
H671 N664 0.984 1_545 S
H672 N660 0.984 . S
H673 N660 0.985 . S
C674 C675 1.363 . S
C674 C680 1.379 . S
C674 N682 1.356 . S
C675 C674 1.363 . S
C675 C681 1.363 . S
C676 C677 1.363 . S
C676 C681 1.379 . S
C676 N683 1.356 . S
C677 C676 1.363 . S
C677 C680 1.363 . S
N678 C680 1.356 . S
N678 H690 0.984 . S
N678 H691 0.985 . S
N679 C681 1.356 . S
N679 H684 0.984 . S
N679 H685 0.985 . S
C680 C674 1.379 . S
C680 C677 1.363 . S
C680 N678 1.356 . S
C681 C675 1.363 . S
C681 C676 1.379 . S
C681 N679 1.356 . S
N682 C674 1.356 . S
N682 H688 0.984 . S
N682 H689 0.984 . S
N683 C676 1.356 . S
N683 H686 0.984 . S
N683 H687 0.985 . S
H684 N679 0.984 . S
H685 N679 0.985 . S
H686 N683 0.984 . S
H687 N683 0.985 . S
H688 N682 0.984 . S
H689 N682 0.984 . S
H690 N678 0.984 . S
H691 N678 0.985 . S
C692 C693 1.363 1_554 S
C692 C698 1.379 . S
C692 N700 1.356 1_554 S
C693 C692 1.363 1_556 S
C693 C699 1.363 1_545 S
C694 C695 1.363 1_556 S
C694 C699 1.379 . S
C694 N701 1.356 1_556 S
C695 C694 1.363 1_554 S
C695 C698 1.363 1_565 S
N696 C698 1.356 . S
N696 H708 0.984 . S
N696 H709 0.985 1_545 S
N697 C699 1.356 . S
N697 H702 0.984 1_565 S
N697 H703 0.985 . S
C698 C692 1.379 . S
C698 C695 1.363 1_545 S
C698 N696 1.356 . S
C699 C693 1.363 1_565 S
C699 C694 1.379 . S
C699 N697 1.356 . S
N700 C692 1.356 1_556 S
N700 H706 0.984 1_556 S
N700 H707 0.984 . S
N701 C694 1.356 1_554 S
N701 H704 0.984 . S
N701 H705 0.985 1_554 S
H702 N697 0.984 1_545 S
H703 N697 0.985 . S
H704 N701 0.984 . S
H705 N701 0.985 1_556 S
H706 N700 0.984 1_554 S
H707 N700 0.984 . S
H708 N696 0.984 . S
H709 N696 0.985 1_565 S
C710 C711 1.363 . S
C710 C716 1.379 . S
C710 N718 1.356 . S
C711 C710 1.363 . S
C711 C717 1.363 . S
C712 C713 1.363 . S
C712 C717 1.379 . S
C712 N719 1.356 . S
C713 C712 1.363 . S
C713 C716 1.363 . S
N714 C716 1.356 . S
N714 H726 0.984 . S
N714 H727 0.985 . S
N715 C717 1.356 . S
N715 H720 0.984 . S
N715 H721 0.985 . S
C716 C710 1.379 . S
C716 C713 1.363 . S
C716 N714 1.356 . S
C717 C711 1.363 . S
C717 C712 1.379 . S
C717 N715 1.356 . S
N718 C710 1.356 . S
N718 H724 0.984 . S
N718 H725 0.984 . S
N719 C712 1.356 . S
N719 H722 0.984 . S
N719 H723 0.985 . S
H720 N715 0.984 . S
H721 N715 0.985 . S
H722 N719 0.984 . S
H723 N719 0.985 . S
H724 N718 0.984 . S
H725 N718 0.984 . S
H726 N714 0.984 . S
H727 N714 0.985 . S
C728 C729 1.363 . S
C728 C734 1.379 . S
C728 N736 1.356 . S
C729 C728 1.363 . S
C729 C735 1.363 1_545 S
C730 C731 1.363 . S
C730 C735 1.379 . S
C730 N737 1.356 . S
C731 C730 1.363 . S
C731 C734 1.363 1_565 S
N732 C734 1.356 . S
N732 H744 0.984 . S
N732 H745 0.985 1_545 S
N733 C735 1.355 1_545 S
N733 H738 0.996 . S
N733 H739 0.974 1_545 S
C734 C728 1.379 . S
C734 C731 1.363 1_545 S
C734 N732 1.356 . S
C735 C729 1.363 1_565 S
C735 C730 1.379 . S
C735 N733 1.355 1_565 S
N736 C728 1.356 . S
N736 H742 0.984 . S
N736 H743 0.984 . S
N737 C730 1.356 . S
N737 H740 0.984 . S
N737 H741 0.985 . S
H738 N733 0.996 . S
H739 N733 0.974 1_565 S
H740 N737 0.984 . S
H741 N737 0.985 . S
H742 N736 0.984 . S
H743 N736 0.984 . S
H744 N732 0.984 . S
H745 N732 0.985 1_565 S
C746 C747 1.363 . S
C746 C752 1.379 . S
C746 N754 1.356 . S
C747 C746 1.363 . S
C747 C753 1.363 . S
C748 C749 1.363 . S
C748 C753 1.379 . S
C748 N755 1.356 . S
C749 C748 1.363 . S
C749 C752 1.363 . S
N750 C752 1.356 . S
N750 H762 0.984 . S
N750 H763 0.985 . S
N751 C753 1.356 . S
N751 H756 0.984 . S
N751 H757 0.985 . S
C752 C746 1.379 . S
C752 C749 1.363 . S
C752 N750 1.356 . S
C753 C747 1.363 . S
C753 C748 1.379 . S
C753 N751 1.356 . S
N754 C746 1.356 . S
N754 H760 0.984 . S
N754 H761 0.984 . S
N755 C748 1.356 . S
N755 H758 0.984 . S
N755 H759 0.985 . S
H756 N751 0.984 . S
H757 N751 0.985 . S
H758 N755 0.984 . S
H759 N755 0.985 . S
H760 N754 0.984 . S
H761 N754 0.984 . S
H762 N750 0.984 . S
H763 N750 0.985 . S
C764 C765 1.363 . S
C764 C770 1.379 1_564 S
C764 N772 1.356 . S
C765 C764 1.363 . S
C765 C771 1.363 . S
C766 C767 1.363 . S
C766 C771 1.379 1_546 S
C766 N773 1.356 . S
C767 C766 1.363 . S
C767 C770 1.363 . S
N768 C770 1.356 . S
N768 H780 0.984 . S
N768 H781 0.985 . S
N769 C771 1.356 . S
N769 H774 0.984 . S
N769 H775 0.985 . S
C770 C764 1.379 1_546 S
C770 C767 1.363 . S
C770 N768 1.356 . S
C771 C765 1.363 . S
C771 C766 1.379 1_564 S
C771 N769 1.356 . S
N772 C764 1.356 . S
N772 H778 0.984 . S
N772 H779 0.984 . S
N773 C766 1.356 . S
N773 H776 0.984 . S
N773 H777 0.985 . S
H774 N769 0.984 . S
H775 N769 0.985 . S
H776 N773 0.984 . S
H777 N773 0.985 . S
H778 N772 0.984 . S
H779 N772 0.984 . S
H780 N768 0.984 . S
H781 N768 0.985 . S
C782 C783 1.363 . S
C782 C788 1.379 . S
C782 N790 1.356 . S
C783 C782 1.363 . S
C783 C789 1.363 . S
C784 C785 1.363 . S
C784 C789 1.379 . S
C784 N791 1.356 . S
C785 C784 1.363 . S
C785 C788 1.363 . S
N786 C788 1.356 . S
N786 H798 0.984 . S
N786 H799 0.985 . S
N787 C789 1.356 . S
N787 H792 0.984 . S
N787 H793 0.985 . S
C788 C782 1.379 . S
C788 C785 1.363 . S
C788 N786 1.356 . S
C789 C783 1.363 . S
C789 C784 1.379 . S
C789 N787 1.356 . S
N790 C782 1.356 . S
N790 H796 0.984 . S
N790 H797 0.984 . S
N791 C784 1.356 . S
N791 H794 0.984 . S
N791 H795 0.985 . S
H792 N787 0.984 . S
H793 N787 0.985 . S
H794 N791 0.984 . S
H795 N791 0.985 . S
H796 N790 0.984 . S
H797 N790 0.984 . S
H798 N786 0.984 . S
H799 N786 0.985 . S
C225 C162 1.338 . S
C227 C13 1.354 . S
C243 C223 1.399 . S
C245 C22 1.398 . S
C261 C41 1.276 . S
C263 C139 1.260 . S
C279 C195 1.260 . S
C281 C55 1.249 . S
C297 C69 1.456 . S
C299 C190 1.435 . S
C315 C78 1.408 . S
C317 C167 1.420 . S
C333 C92 1.479 . S
C335 C218 1.482 . S
C351 C111 1.382 . S
C353 C134 1.381 . S
C369 C50 1.320 . S
C371 C125 1.337 . S
C387 C148 1.419 . S
C389 C27 1.431 . S
C405 C181 1.284 . S
C407 C83 1.295 . S
C423 C204 1.498 . S
C425 C106 1.501 . S
C441 C64 1.437 . S
C443 C120 1.453 . S
C459 C153 1.312 . S
C461 C97 1.297 . S
C477 C209 1.468 . S
C479 C36 1.448 . S
C495 C8 1.432 . S
C497 C176 1.418 . S
C513 C7 1.273 . S
C515 C63 1.270 . S
C531 C25 1.210 . S
C533 C81 1.205 . S
C549 C35 1.323 . S
C551 C95 1.336 . S
C567 C105 1.351 . S
C569 C49 1.338 . S
C585 C119 1.269 . S
C587 C175 1.266 . S
C603 C189 1.282 . S
C605 C137 1.294 . S
C621 C151 1.250 . S
C623 C207 1.256 . S
C639 C217 1.355 . S
C641 C161 1.342 . S
C657 C109 1.308 . S
C659 C21 1.296 . S
C675 C39 1.280 . S
C677 C67 1.287 . S
C693 C53 1.321 . S
C695 C77 1.314 . S
C711 C11 1.236 . S
C713 C91 1.230 . S
C729 C133 1.293 . S
C731 C221 1.305 . S
C747 C179 1.366 . S
C749 C147 1.357 . S
C765 C165 1.239 . S
C767 C193 1.234 . S
C783 C203 1.233 . S
C785 C123 1.240 . S
