# Generated by pormake.
# Topology ukf, (4)-cn, num edge types: 1
# Building blocks:
#     Node 0, Type 0, BuildingBlock: UXUYUI_clean_sbu_0, # of connection points: 4
#     Node 1, Type 0, BuildingBlock: UXUYUI_clean_sbu_0, # of connection points: 4
#     Node 2, Type 0, BuildingBlock: UXUYUI_clean_sbu_0, # of connection points: 4
#     Node 3, Type 0, BuildingBlock: UXUYUI_clean_sbu_0, # of connection points: 4
#     Node 4, Type 0, BuildingBlock: UXUYUI_clean_sbu_0, # of connection points: 4
#     Node 5, Type 0, BuildingBlock: UXUYUI_clean_sbu_0, # of connection points: 4
#     Node 6, Type 0, BuildingBlock: UXUYUI_clean_sbu_0, # of connection points: 4
#     Node 7, Type 0, BuildingBlock: UXUYUI_clean_sbu_0, # of connection points: 4
#     Node 8, Type 0, BuildingBlock: UXUYUI_clean_sbu_0, # of connection points: 4
#     Node 9, Type 0, BuildingBlock: UXUYUI_clean_sbu_0, # of connection points: 4
#     Node 10, Type 0, BuildingBlock: UXUYUI_clean_sbu_0, # of connection points: 4
#     Node 11, Type 0, BuildingBlock: UXUYUI_clean_sbu_0, # of connection points: 4
#     Edge 12, Type (0, 0), BuildingBlock: XIVTED_clean_linker_0, # of connection points: 2
#     Edge 13, Type (0, 0), BuildingBlock: XIVTED_clean_linker_0, # of connection points: 2
#     Edge 14, Type (0, 0), BuildingBlock: XIVTED_clean_linker_0, # of connection points: 2
#     Edge 15, Type (0, 0), BuildingBlock: XIVTED_clean_linker_0, # of connection points: 2
#     Edge 16, Type (0, 0), BuildingBlock: XIVTED_clean_linker_0, # of connection points: 2
#     Edge 17, Type (0, 0), BuildingBlock: XIVTED_clean_linker_0, # of connection points: 2
#     Edge 18, Type (0, 0), BuildingBlock: XIVTED_clean_linker_0, # of connection points: 2
#     Edge 19, Type (0, 0), BuildingBlock: XIVTED_clean_linker_0, # of connection points: 2
#     Edge 20, Type (0, 0), BuildingBlock: XIVTED_clean_linker_0, # of connection points: 2
#     Edge 21, Type (0, 0), BuildingBlock: XIVTED_clean_linker_0, # of connection points: 2
#     Edge 22, Type (0, 0), BuildingBlock: XIVTED_clean_linker_0, # of connection points: 2
#     Edge 23, Type (0, 0), BuildingBlock: XIVTED_clean_linker_0, # of connection points: 2
#     Edge 24, Type (0, 0), BuildingBlock: XIVTED_clean_linker_0, # of connection points: 2
#     Edge 25, Type (0, 0), BuildingBlock: XIVTED_clean_linker_0, # of connection points: 2
#     Edge 26, Type (0, 0), BuildingBlock: XIVTED_clean_linker_0, # of connection points: 2
#     Edge 27, Type (0, 0), BuildingBlock: XIVTED_clean_linker_0, # of connection points: 2
#     Edge 28, Type (0, 0), BuildingBlock: XIVTED_clean_linker_0, # of connection points: 2
#     Edge 29, Type (0, 0), BuildingBlock: XIVTED_clean_linker_0, # of connection points: 2
#     Edge 30, Type (0, 0), BuildingBlock: XIVTED_clean_linker_0, # of connection points: 2
#     Edge 31, Type (0, 0), BuildingBlock: XIVTED_clean_linker_0, # of connection points: 2
#     Edge 32, Type (0, 0), BuildingBlock: XIVTED_clean_linker_0, # of connection points: 2
#     Edge 33, Type (0, 0), BuildingBlock: XIVTED_clean_linker_0, # of connection points: 2
#     Edge 34, Type (0, 0), BuildingBlock: XIVTED_clean_linker_0, # of connection points: 2
#     Edge 35, Type (0, 0), BuildingBlock: XIVTED_clean_linker_0, # of connection points: 2
# Relax obj value: 0.271
# Max RMSD: 0.213
# Mean RMSD: 0.213
data_MOF--net-ukf--node1-UXUYUI_clean_sbu_0--edge1-XIVTED_clean_linker_0
_symmetry_space_group_name_H-M    P1
_symmetry_Int_Tables_number       1
_symmetry_cell_setting            triclinic
loop_
_symmetry_equiv_pos_as_xyz
'x, y, z'
_cell_length_a     46.483524
_cell_length_b     46.488634
_cell_length_c     92.643827
_cell_angle_alpha  90.002882
_cell_angle_beta   89.999873
_cell_angle_gamma 119.98748
loop_
_atom_site_label
_atom_site_type_symbol
_atom_site_fract_x
_atom_site_fract_y
_atom_site_fract_z
_atom_type_partial_charge
Li0 Li 0.38802 0.22315 0.06301 0.0
Li1 Li 0.36146 0.20571 0.03924 0.0
Li2 Li 0.42193 0.22817 0.04188 0.0
Li3 Li 0.39848 0.26438 0.04403 0.0
C4 C 0.39655 0.16844 0.05696 0.0
N5 N 0.42036 0.13109 0.07005 0.0
C6 C 0.38069 0.13417 0.05469 0.0
C7 C 0.42452 0.18373 0.06587 0.0
C8 C 0.3931 0.1157 0.06142 0.0
C9 C 0.43618 0.16443 0.07239 0.0
C10 C 0.33144 0.24076 0.04948 0.0
C11 C 0.30427 0.25408 0.03061 0.0
N12 N 0.28314 0.25489 0.04054 0.0
C13 C 0.30949 0.24173 0.0595 0.0
C14 C 0.32885 0.24697 0.03492 0.0
C15 C 0.28522 0.24891 0.05477 0.0
C16 C 0.39773 0.24159 0.09208 0.0
N17 N 0.38269 0.21503 0.0831 0.0
C18 C 0.36186 0.17779 0.10313 0.0
C19 C 0.36464 0.18356 0.08826 0.0
C20 C 0.37775 0.20471 0.11273 0.0
C21 C 0.39573 0.23698 0.107 0.0
H22 H 0.41163 0.26636 0.08763 0.0
H23 H 0.35255 0.16294 0.08084 0.0
C24 C 0.32839 0.16263 0.01647 0.0
N25 N 0.32355 0.17258 0.02958 0.0
C26 C 0.30255 0.13497 0.00971 0.0
C27 C 0.26691 0.12899 0.02987 0.0
C28 C 0.29351 0.15683 0.03625 0.0
C29 C 0.27148 0.11725 0.01656 0.0
H30 H 0.35279 0.17531 0.01159 0.0
H31 H 0.29058 0.1651 0.04678 0.0
C32 C 0.46236 0.2852 0.06018 0.0
N33 N 0.52679 0.33352 0.06662 0.0
C34 C 0.48022 0.31161 0.05066 0.0
C35 C 0.47722 0.28359 0.07305 0.0
C36 C 0.51276 0.33574 0.0541 0.0
C37 C 0.50984 0.30818 0.07608 0.0
C38 C 0.41146 0.25546 0.0145 0.0
C39 C 0.44582 0.27611 0.01332 0.0
C40 C 0.39108 0.25214 0.00278 0.0
C41 C 0.45921 0.29365 0.00052 0.0
C42 C 0.40541 0.27012 0.99016 0.0
N43 N 0.43889 0.29036 0.98931 0.0
C44 C 0.45232 0.20656 0.02214 0.0
C45 C 0.48756 0.23679 0.04161 0.0
C46 C 0.47762 0.20304 0.01578 0.0
N47 N 0.45781 0.22353 0.03473 0.0
C48 C 0.51362 0.23407 0.0356 0.0
C49 C 0.50894 0.21719 0.02245 0.0
H50 H 0.42828 0.19601 0.01697 0.0
H51 H 0.4913 0.24968 0.05171 0.0
C52 C 0.4178 0.32737 0.05388 0.0
N53 N 0.40789 0.30888 0.04162 0.0
C54 C 0.42998 0.36149 0.05332 0.0
C55 C 0.41961 0.3567 0.02763 0.0
C56 C 0.4077 0.32259 0.02868 0.0
C57 C 0.43168 0.37676 0.04002 0.0
H58 H 0.4176 0.31574 0.06402 0.0
H59 H 0.39913 0.30734 0.01912 0.0
O60 O 0.38467 0.18679 0.05044 0.0
O61 O 0.35529 0.23374 0.05398 0.0
O62 O 0.43031 0.26137 0.05712 0.0
O63 O 0.39773 0.23794 0.02691 0.0
H64 H 0.35901 0.12199 0.04781 0.0
H65 H 0.43707 0.21018 0.06773 0.0
H66 H 0.38107 0.08914 0.05977 0.0
H67 H 0.45781 0.17595 0.07931 0.0
H68 H 0.302 0.25894 0.01937 0.0
H69 H 0.31119 0.23697 0.07082 0.0
H70 H 0.34557 0.24631 0.02702 0.0
H71 H 0.26805 0.24974 0.06241 0.0
H72 H 0.34727 0.15256 0.10704 0.0
H73 H 0.40871 0.25845 0.11395 0.0
H74 H 0.30748 0.12654 0.9996 0.0
H75 H 0.24334 0.11625 0.03548 0.0
H76 H 0.46905 0.31378 0.04081 0.0
H77 H 0.46385 0.26344 0.08059 0.0
H78 H 0.52682 0.3563 0.04683 0.0
H79 H 0.52166 0.30711 0.08597 0.0
H80 H 0.46207 0.27835 0.0221 0.0
H81 H 0.36444 0.23596 0.00343 0.0
H82 H 0.48577 0.30979 0.99948 0.0
H83 H 0.38992 0.26795 0.98104 0.0
H84 H 0.47262 0.1893 0.00578 0.0
H85 H 0.53737 0.2457 0.04108 0.0
H86 H 0.43931 0.37589 0.06314 0.0
H87 H 0.41983 0.36731 0.01719 0.0
Li88 Li 0.13738 0.40002 0.37552 0.0
Li89 Li 0.19688 0.42197 0.37251 0.0
Li90 Li 0.15768 0.36211 0.372 0.0
Li91 Li 0.1703 0.39307 0.39444 0.0
C92 C 0.14637 0.40255 0.34717 0.0
N93 N 0.1154 0.41661 0.32507 0.0
C94 C 0.1633 0.43274 0.33977 0.0
C95 C 0.1138 0.3794 0.34325 0.0
C96 C 0.14718 0.4394 0.32864 0.0
C97 C 0.09854 0.38702 0.33207 0.0
C98 C 0.17635 0.45126 0.39934 0.0
C99 C 0.20681 0.48181 0.42041 0.0
N100 N 0.17923 0.48177 0.42533 0.0
C101 C 0.14833 0.4516 0.40459 0.0
C102 C 0.20589 0.4666 0.40728 0.0
C103 C 0.15029 0.46716 0.41776 0.0
C104 C 0.07238 0.39242 0.37688 0.0
N105 N 0.10406 0.41144 0.37206 0.0
C106 C 0.09265 0.45359 0.36409 0.0
C107 C 0.11449 0.44152 0.36582 0.0
C108 C 0.06003 0.43495 0.36925 0.0
C109 C 0.04981 0.40389 0.37565 0.0
H110 H 0.06501 0.36893 0.3821 0.0
H111 H 0.14016 0.45662 0.36258 0.0
C112 C 0.24999 0.45223 0.35249 0.0
N113 N 0.23574 0.45757 0.36423 0.0
C114 C 0.2781 0.47858 0.34617 0.0
C115 C 0.2758 0.51541 0.36398 0.0
C116 C 0.24795 0.48835 0.37 0.0
C117 C 0.29118 0.51071 0.35188 0.0
H118 H 0.23927 0.42757 0.34793 0.0
H119 H 0.23582 0.49199 0.37919 0.0
C120 C 0.10628 0.32653 0.38826 0.0
N121 N 0.06855 0.25822 0.39015 0.0
C122 C 0.11315 0.30954 0.39892 0.0
C123 C 0.0801 0.30886 0.37863 0.0
C124 C 0.0938 0.27497 0.39968 0.0
C125 C 0.06135 0.2743 0.37974 0.0
C126 C 0.23297 0.39549 0.37907 0.0
C127 C 0.24006 0.37986 0.36786 0.0
C128 C 0.25903 0.42173 0.38652 0.0
C129 C 0.27315 0.39072 0.36431 0.0
C130 C 0.29178 0.43191 0.38263 0.0
N131 N 0.2981 0.41632 0.3717 0.0
C132 C 0.13951 0.31181 0.35045 0.0
C133 C 0.16151 0.30433 0.37228 0.0
C134 C 0.14023 0.28479 0.34421 0.0
N135 N 0.15076 0.32137 0.36413 0.0
C136 C 0.16292 0.27741 0.36647 0.0
C137 C 0.15311 0.26785 0.35209 0.0
H138 H 0.13138 0.32601 0.34415 0.0
H139 H 0.17084 0.3129 0.38306 0.0
C140 C 0.15075 0.38839 0.42353 0.0
N141 N 0.1751 0.39061 0.41469 0.0
C142 C 0.154 0.38759 0.43848 0.0
C143 C 0.2068 0.39025 0.43489 0.0
C144 C 0.20257 0.39113 0.42002 0.0
C145 C 0.18242 0.38869 0.44434 0.0
H146 H 0.12889 0.38745 0.41895 0.0
H147 H 0.22127 0.39233 0.41274 0.0
O148 O 0.16157 0.39576 0.35821 0.0
O149 O 0.17475 0.43551 0.38664 0.0
O150 O 0.12539 0.36027 0.38713 0.0
O151 O 0.20072 0.38559 0.38256 0.0
H152 H 0.18849 0.45097 0.34268 0.0
H153 H 0.10033 0.35598 0.34889 0.0
H154 H 0.15991 0.46272 0.32288 0.0
H155 H 0.07326 0.36943 0.32899 0.0
H156 H 0.22943 0.49356 0.42671 0.0
H157 H 0.1252 0.43972 0.39867 0.0
H158 H 0.22774 0.46635 0.40344 0.0
H159 H 0.12876 0.46749 0.42198 0.0
H160 H 0.10161 0.47792 0.35937 0.0
H161 H 0.02483 0.38894 0.37981 0.0
H162 H 0.28897 0.47402 0.33673 0.0
H163 H 0.28526 0.53975 0.36877 0.0
H164 H 0.13343 0.32286 0.40641 0.0
H165 H 0.07446 0.32169 0.37034 0.0
H166 H 0.09893 0.26145 0.40782 0.0
H167 H 0.04111 0.26027 0.37232 0.0
H168 H 0.22031 0.35987 0.36181 0.0
H169 H 0.25403 0.43444 0.39508 0.0
H170 H 0.27899 0.37892 0.35563 0.0
H171 H 0.31216 0.4523 0.38825 0.0
H172 H 0.13194 0.27805 0.33317 0.0
H173 H 0.17358 0.26565 0.37292 0.0
H174 H 0.13435 0.38582 0.44536 0.0
H175 H 0.22919 0.39135 0.43894 0.0
Li176 Li 0.77236 0.19186 0.70846 0.0
Li177 Li 0.73571 0.13137 0.71049 0.0
Li178 Li 0.77723 0.16383 0.72977 0.0
Li179 Li 0.79568 0.15336 0.70665 0.0
C180 C 0.7217 0.18375 0.7256 0.0
N181 N 0.68848 0.21846 0.72995 0.0
C182 C 0.69056 0.17273 0.71931 0.0
C183 C 0.73578 0.21226 0.73421 0.0
C184 C 0.6742 0.19066 0.72162 0.0
C185 C 0.71865 0.22952 0.73624 0.0
C186 C 0.75104 0.14391 0.68053 0.0
C187 C 0.74443 0.10652 0.66111 0.0
N188 N 0.72617 0.11707 0.65369 0.0
C189 C 0.73241 0.15455 0.67267 0.0
C190 C 0.75729 0.11984 0.67468 0.0
C191 C 0.71997 0.14061 0.65914 0.0
C192 C 0.8058 0.26004 0.70113 0.0
N193 N 0.77573 0.23169 0.70118 0.0
C194 C 0.74988 0.26023 0.6909 0.0
C195 C 0.74813 0.23118 0.69599 0.0
C196 C 0.7805 0.28995 0.69088 0.0
C197 C 0.8088 0.28963 0.69594 0.0
H198 H 0.82748 0.25966 0.70509 0.0
H199 H 0.72473 0.20819 0.69574 0.0
C200 C 0.67286 0.08898 0.72052 0.0
N201 N 0.6907 0.09698 0.70808 0.0
C202 C 0.63841 0.06881 0.72022 0.0
C203 C 0.64138 0.06352 0.69439 0.0
C204 C 0.67585 0.08398 0.69519 0.0
C205 C 0.62214 0.05657 0.70698 0.0
H206 H 0.68533 0.0997 0.73062 0.0
H207 H 0.69034 0.0903 0.68543 0.0
C208 C 0.83901 0.21633 0.726 0.0
N209 N 0.89051 0.25632 0.74436 0.0
C210 C 0.86703 0.21268 0.72692 0.0
C211 C 0.83738 0.24061 0.73426 0.0
C212 C 0.89277 0.23308 0.7363 0.0
C213 C 0.8636 0.26049 0.74353 0.0
C214 C 0.76545 0.09064 0.71981 0.0
C215 C 0.78063 0.0808 0.73018 0.0
C216 C 0.74928 0.06995 0.70807 0.0
C217 C 0.77984 0.05055 0.72848 0.0
C218 C 0.74902 0.03989 0.70676 0.0
N219 N 0.76421 0.03091 0.7169 0.0
C220 C 0.7607 0.16697 0.75864 0.0
C221 C 0.81227 0.16884 0.75569 0.0
C222 C 0.76496 0.16975 0.77358 0.0
N223 N 0.78442 0.16704 0.75004 0.0
C224 C 0.81781 0.1722 0.77057 0.0
C225 C 0.79396 0.17275 0.77968 0.0
H226 H 0.73842 0.16469 0.7539 0.0
H227 H 0.83018 0.16764 0.74865 0.0
C228 C 0.84056 0.16569 0.68467 0.0
N229 N 0.82978 0.14911 0.69737 0.0
C230 C 0.86862 0.16849 0.67791 0.0
C231 C 0.87387 0.13668 0.69733 0.0
C232 C 0.84554 0.1344 0.70371 0.0
C233 C 0.88609 0.15442 0.68437 0.0
H234 H 0.82809 0.17793 0.6801 0.0
H235 H 0.83714 0.1223 0.71404 0.0
O236 O 0.7382 0.16663 0.72341 0.0
O237 O 0.76363 0.15749 0.69375 0.0
O238 O 0.81345 0.1964 0.71696 0.0
O239 O 0.76607 0.12019 0.72132 0.0
H240 H 0.67936 0.15092 0.7125 0.0
H241 H 0.75965 0.22094 0.73928 0.0
H242 H 0.65021 0.18254 0.71673 0.0
H243 H 0.72933 0.25168 0.74284 0.0
H244 H 0.74898 0.08781 0.65647 0.0
H245 H 0.72746 0.17323 0.67699 0.0
H246 H 0.77189 0.11149 0.68053 0.0
H247 H 0.70538 0.1485 0.65296 0.0
H248 H 0.72762 0.25937 0.68684 0.0
H249 H 0.83285 0.31209 0.69608 0.0
H250 H 0.62458 0.06357 0.73021 0.0
H251 H 0.62982 0.05463 0.68395 0.0
H252 H 0.86882 0.19417 0.72053 0.0
H253 H 0.8161 0.24406 0.73353 0.0
H254 H 0.91451 0.2304 0.73719 0.0
H255 H 0.86258 0.27926 0.75005 0.0
H256 H 0.79308 0.09651 0.73938 0.0
H257 H 0.73695 0.07695 0.70009 0.0
H258 H 0.79166 0.04269 0.73638 0.0
H259 H 0.73668 0.02367 0.69769 0.0
H260 H 0.74601 0.17009 0.78026 0.0
H261 H 0.84023 0.1739 0.77492 0.0
H262 H 0.87748 0.18306 0.66812 0.0
H263 H 0.88656 0.12547 0.70267 0.0
Li264 Li 0.639 0.79768 0.0393 0.0
Li265 Li 0.6074 0.77687 0.06265 0.0
Li266 Li 0.59814 0.73969 0.04211 0.0
Li267 Li 0.57918 0.7787 0.04008 0.0
C268 C 0.66759 0.76402 0.05243 0.0
N269 N 0.7258 0.76206 0.04999 0.0
C270 C 0.69213 0.77863 0.06302 0.0
C271 C 0.67244 0.74806 0.04069 0.0
C272 C 0.72146 0.77749 0.06157 0.0
C273 C 0.70209 0.74742 0.03963 0.0
C274 C 0.60723 0.83985 0.04966 0.0
C275 C 0.5722 0.86204 0.05666 0.0
N276 N 0.58622 0.88547 0.04614 0.0
C277 C 0.62135 0.86418 0.03895 0.0
C278 C 0.58252 0.83878 0.05862 0.0
C279 C 0.61038 0.88703 0.03734 0.0
C280 C 0.67975 0.8403 0.01754 0.0
N281 N 0.67976 0.831 0.03143 0.0
C282 C 0.7345 0.87683 0.03507 0.0
C283 C 0.70652 0.84825 0.04016 0.0
C284 C 0.73462 0.88802 0.02095 0.0
C285 C 0.70706 0.86878 0.01203 0.0
H286 H 0.6577 0.82679 0.011 0.0
H287 H 0.70548 0.84084 0.05129 0.0
C288 C 0.60431 0.75705 0.09174 0.0
N289 N 0.61061 0.78287 0.0829 0.0
C290 C 0.60595 0.76124 0.10671 0.0
C291 C 0.6214 0.81871 0.10311 0.0
C292 C 0.61945 0.81339 0.08824 0.0
C293 C 0.61432 0.79236 0.11258 0.0
H294 H 0.59792 0.7332 0.08716 0.0
H295 H 0.62503 0.83367 0.08095 0.0
C296 C 0.6014 0.75639 0.01217 0.0
N297 N 0.59625 0.73049 0.98483 0.0
C298 C 0.57207 0.74493 0.00425 0.0
C299 C 0.62829 0.75518 0.00609 0.0
C300 C 0.56991 0.73178 0.99047 0.0
C301 C 0.62515 0.74185 0.99229 0.0
C302 C 0.538 0.71127 0.05378 0.0
C303 C 0.51815 0.70029 0.04141 0.0
C304 C 0.53168 0.68925 0.0652 0.0
C305 C 0.49242 0.66733 0.04063 0.0
C306 C 0.50577 0.65645 0.06399 0.0
N307 N 0.48686 0.64626 0.05183 0.0
C308 C 0.59128 0.67845 0.04961 0.0
C309 C 0.56859 0.67768 0.02661 0.0
C310 C 0.57752 0.64402 0.04925 0.0
N311 N 0.58603 0.69444 0.03852 0.0
C312 C 0.5547 0.64331 0.02573 0.0
C313 C 0.55837 0.62597 0.03732 0.0
H314 H 0.60469 0.69229 0.05907 0.0
H315 H 0.56357 0.69044 0.01817 0.0
C316 C 0.55191 0.80465 0.02028 0.0
N317 N 0.54605 0.78712 0.03272 0.0
C318 C 0.52746 0.8103 0.01447 0.0
C319 C 0.49171 0.78013 0.03452 0.0
C320 C 0.51691 0.77525 0.03998 0.0
C321 C 0.49668 0.79763 0.02152 0.0
H322 H 0.57552 0.81403 0.01484 0.0
H323 H 0.5131 0.7616 0.04992 0.0
O324 O 0.63882 0.76505 0.05368 0.0
O325 O 0.61687 0.81662 0.0511 0.0
O326 O 0.60406 0.76969 0.0256 0.0
O327 O 0.56407 0.74314 0.05452 0.0
H328 H 0.6886 0.7909 0.07223 0.0
H329 H 0.65344 0.7361 0.03254 0.0
H330 H 0.74076 0.78886 0.06965 0.0
H331 H 0.70621 0.73521 0.03058 0.0
H332 H 0.55295 0.86138 0.06345 0.0
H333 H 0.64038 0.86524 0.03188 0.0
H334 H 0.57109 0.81984 0.06686 0.0
H335 H 0.621 0.90592 0.02906 0.0
H336 H 0.75523 0.89071 0.0423 0.0
H337 H 0.70559 0.87673 0.00121 0.0
H338 H 0.60014 0.7402 0.1136 0.0
H339 H 0.62864 0.84328 0.10714 0.0
H340 H 0.55107 0.74585 0.00875 0.0
H341 H 0.65146 0.76473 0.01191 0.0
H342 H 0.54728 0.72259 0.98427 0.0
H343 H 0.64573 0.74067 0.98747 0.0
H344 H 0.52295 0.71687 0.0324 0.0
H345 H 0.54683 0.69727 0.07483 0.0
H346 H 0.47705 0.65844 0.03108 0.0
H347 H 0.50077 0.63906 0.07269 0.0
H348 H 0.58106 0.63156 0.05838 0.0
H349 H 0.53964 0.63026 0.01645 0.0
H350 H 0.53263 0.8244 0.00457 0.0
H351 H 0.4683 0.76953 0.04024 0.0
Li352 Li 0.83939 0.63375 0.37481 0.0
Li353 Li 0.82787 0.60198 0.39725 0.0
Li354 Li 0.85584 0.5921 0.37695 0.0
Li355 Li 0.79667 0.57456 0.37588 0.0
C356 C 0.89626 0.66483 0.39007 0.0
N357 N 0.94501 0.73065 0.39272 0.0
C358 C 0.89773 0.68274 0.40243 0.0
C359 C 0.91978 0.68023 0.37913 0.0
C360 C 0.92253 0.71605 0.40355 0.0
C361 C 0.94416 0.71358 0.38065 0.0
C362 C 0.76629 0.60628 0.38432 0.0
C363 C 0.70747 0.57362 0.38903 0.0
N364 N 0.70192 0.59215 0.37926 0.0
C365 C 0.76 0.62507 0.37436 0.0
C366 C 0.73983 0.58044 0.39177 0.0
C367 C 0.72729 0.61752 0.37195 0.0
C368 C 0.84428 0.67781 0.35271 0.0
N369 N 0.848 0.67518 0.36711 0.0
C370 C 0.85118 0.72734 0.37143 0.0
C371 C 0.85193 0.69943 0.37644 0.0
C372 C 0.84507 0.72979 0.35674 0.0
C373 C 0.84269 0.70502 0.34726 0.0
H374 H 0.84023 0.6577 0.34558 0.0
H375 H 0.85364 0.6962 0.38789 0.0
C376 C 0.84994 0.60409 0.42596 0.0
N377 N 0.8261 0.60461 0.41766 0.0
C378 C 0.84808 0.60479 0.441 0.0
C379 C 0.79772 0.60755 0.43858 0.0
C380 C 0.80054 0.60674 0.42363 0.0
C381 C 0.82152 0.60627 0.4475 0.0
H382 H 0.8702 0.60275 0.42089 0.0
H383 H 0.7823 0.60777 0.41678 0.0
C384 C 0.84238 0.59146 0.34868 0.0
N385 N 0.86644 0.57659 0.32424 0.0
C386 C 0.82337 0.56096 0.34173 0.0
C387 C 0.87342 0.61456 0.34312 0.0
C388 C 0.83603 0.55387 0.32941 0.0
C389 C 0.88521 0.60653 0.33078 0.0
C390 C 0.81734 0.54169 0.4012 0.0
C391 C 0.84455 0.5386 0.40541 0.0
C392 C 0.7889 0.52816 0.40986 0.0
C393 C 0.84293 0.5222 0.41828 0.0
C394 C 0.78829 0.51202 0.42267 0.0
N395 N 0.81509 0.5094 0.42658 0.0
C396 C 0.91835 0.59506 0.37731 0.0
C397 C 0.87494 0.54869 0.36522 0.0
C398 C 0.93934 0.58179 0.37574 0.0
N399 N 0.88673 0.5782 0.37219 0.0
C400 C 0.89524 0.53489 0.36315 0.0
C401 C 0.92763 0.55116 0.36872 0.0
H402 H 0.92678 0.61805 0.38315 0.0
H403 H 0.84928 0.53515 0.36182 0.0
C404 C 0.74022 0.54846 0.35758 0.0
N405 N 0.75525 0.54117 0.36841 0.0
C406 C 0.71018 0.52371 0.35183 0.0
C407 C 0.71207 0.48441 0.36834 0.0
C408 C 0.74193 0.50992 0.3738 0.0
C409 C 0.69575 0.49109 0.35718 0.0
H410 H 0.75168 0.57347 0.35336 0.0
H411 H 0.75477 0.50466 0.38219 0.0
O412 O 0.87213 0.63226 0.38876 0.0
O413 O 0.7981 0.61294 0.38667 0.0
O414 O 0.83054 0.59876 0.36081 0.0
O415 O 0.81867 0.55826 0.38879 0.0
H416 H 0.87974 0.67115 0.41101 0.0
H417 H 0.91917 0.66658 0.36958 0.0
H418 H 0.92386 0.73029 0.41302 0.0
H419 H 0.96244 0.72588 0.37224 0.0
H420 H 0.68676 0.55354 0.39464 0.0
H421 H 0.78008 0.64514 0.36849 0.0
H422 H 0.7442 0.56549 0.39943 0.0
H423 H 0.72206 0.63179 0.36424 0.0
H424 H 0.85372 0.74597 0.37914 0.0
H425 H 0.83739 0.70535 0.3359 0.0
H426 H 0.86685 0.60354 0.44744 0.0
H427 H 0.77724 0.60942 0.44311 0.0
H428 H 0.79926 0.54283 0.34589 0.0
H429 H 0.88824 0.6384 0.34829 0.0
H430 H 0.8217 0.53028 0.32397 0.0
H431 H 0.90926 0.6241 0.32639 0.0
H432 H 0.86681 0.54899 0.3989 0.0
H433 H 0.7677 0.5305 0.40681 0.0
H434 H 0.86385 0.51975 0.4217 0.0
H435 H 0.76654 0.50166 0.42952 0.0
H436 H 0.96418 0.59494 0.38022 0.0
H437 H 0.88517 0.51093 0.35792 0.0
H438 H 0.6984 0.53008 0.34331 0.0
H439 H 0.70235 0.45955 0.37258 0.0
Li440 Li 0.19959 0.84188 0.70588 0.0
Li441 Li 0.21791 0.8292 0.72853 0.0
Li442 Li 0.25922 0.86001 0.70869 0.0
Li443 Li 0.21889 0.80088 0.70697 0.0
C444 C 0.23338 0.90362 0.72193 0.0
N445 N 0.23761 0.96455 0.72595 0.0
C446 C 0.21413 0.90748 0.7325 0.0
C447 C 0.25535 0.93099 0.71362 0.0
C448 C 0.21644 0.93841 0.7343 0.0
C449 C 0.25697 0.96151 0.71575 0.0
C450 C 0.15448 0.78177 0.72591 0.0
C451 C 0.12999 0.74234 0.74538 0.0
N452 N 0.10432 0.74849 0.74586 0.0
C453 C 0.12772 0.78752 0.72654 0.0
C454 C 0.15552 0.75882 0.73533 0.0
C455 C 0.10265 0.7705 0.73672 0.0
C456 C 0.15532 0.83398 0.68415 0.0
N457 N 0.16687 0.84939 0.69705 0.0
C458 C 0.12487 0.86476 0.6978 0.0
C459 C 0.15265 0.86513 0.70383 0.0
C460 C 0.11176 0.84806 0.6847 0.0
C461 C 0.12789 0.83326 0.67769 0.0
H462 H 0.16647 0.82085 0.67919 0.0
H463 H 0.16158 0.87635 0.71426 0.0
C464 C 0.23426 0.82154 0.75691 0.0
N465 N 0.21229 0.82609 0.74896 0.0
C466 C 0.23098 0.81834 0.77188 0.0
C467 C 0.18276 0.82505 0.77026 0.0
C468 C 0.18703 0.82817 0.75531 0.0
C469 C 0.20489 0.81998 0.77875 0.0
H470 H 0.25431 0.82027 0.75162 0.0
H471 H 0.16999 0.83199 0.74877 0.0
C472 C 0.23812 0.85401 0.6797 0.0
N473 N 0.25511 0.89062 0.65447 0.0
C474 C 0.24588 0.84214 0.66729 0.0
C475 C 0.23858 0.88426 0.67921 0.0
C476 C 0.25454 0.86109 0.65466 0.0
C477 C 0.24732 0.90246 0.66638 0.0
C478 C 0.26847 0.80332 0.72124 0.0
C479 C 0.2965 0.81155 0.71283 0.0
C480 C 0.25388 0.77391 0.72926 0.0
C481 C 0.30926 0.78999 0.71245 0.0
C482 C 0.26735 0.75298 0.72857 0.0
N483 N 0.29451 0.76137 0.72024 0.0
C484 C 0.32158 0.91096 0.71687 0.0
C485 C 0.31964 0.89415 0.69257 0.0
C486 C 0.35594 0.93173 0.71604 0.0
N487 N 0.3043 0.89244 0.70529 0.0
C488 C 0.35397 0.91468 0.69124 0.0
C489 C 0.37271 0.93331 0.70317 0.0
H490 H 0.30876 0.90853 0.72694 0.0
H491 H 0.30559 0.87853 0.68364 0.0
C492 C 0.18785 0.73072 0.70333 0.0
N493 N 0.21326 0.7607 0.69908 0.0
C494 C 0.18455 0.70149 0.69753 0.0
C495 C 0.23333 0.73466 0.68295 0.0
C496 C 0.23577 0.76317 0.68909 0.0
C497 C 0.20746 0.70329 0.68716 0.0
H498 H 0.1701 0.72946 0.71118 0.0
H499 H 0.25585 0.78738 0.686 0.0
O500 O 0.2319 0.87364 0.72022 0.0
O501 O 0.17942 0.79844 0.71609 0.0
O502 O 0.22962 0.83571 0.69215 0.0
O503 O 0.25512 0.82372 0.72148 0.0
H504 H 0.19733 0.88677 0.73916 0.0
H505 H 0.27118 0.92883 0.70566 0.0
H506 H 0.20143 0.94163 0.74236 0.0
H507 H 0.27373 0.98283 0.70934 0.0
H508 H 0.13065 0.72473 0.75281 0.0
H509 H 0.12632 0.80495 0.71928 0.0
H510 H 0.17603 0.7541 0.73504 0.0
H511 H 0.08187 0.77482 0.73736 0.0
H512 H 0.11312 0.87642 0.70356 0.0
H513 H 0.11825 0.81948 0.66775 0.0
H514 H 0.24842 0.81414 0.77798 0.0
H515 H 0.16257 0.82692 0.77511 0.0
H516 H 0.24532 0.8186 0.66741 0.0
H517 H 0.23176 0.89334 0.68856 0.0
H518 H 0.26077 0.85228 0.645 0.0
H519 H 0.24778 0.92593 0.66587 0.0
H520 H 0.30809 0.83414 0.70654 0.0
H521 H 0.23226 0.7672 0.73586 0.0
H522 H 0.33082 0.79596 0.70591 0.0
H523 H 0.25617 0.73004 0.73465 0.0
H524 H 0.36933 0.94517 0.72559 0.0
H525 H 0.36578 0.91534 0.68107 0.0
H526 H 0.16404 0.67779 0.70094 0.0
H527 H 0.25178 0.73712 0.67514 0.0
Li528 Li 0.77803 0.60491 0.60507 0.0
Li529 Li 0.79594 0.63787 0.62707 0.0
Li530 Li 0.77552 0.57675 0.62728 0.0
Li531 Li 0.73624 0.59702 0.62414 0.0
C532 C 0.84038 0.61953 0.60825 0.0
N533 N 0.88958 0.6331 0.58819 0.0
C534 C 0.86541 0.65227 0.60576 0.0
C535 C 0.84063 0.59366 0.60067 0.0
C536 C 0.89002 0.65863 0.59555 0.0
C537 C 0.86562 0.60104 0.59052 0.0
C538 C 0.76294 0.66554 0.61148 0.0
C539 C 0.74185 0.70013 0.6205 0.0
N540 N 0.7587 0.72268 0.60993 0.0
C541 C 0.77961 0.68881 0.60058 0.0
C542 C 0.74353 0.671 0.6214 0.0
C543 C 0.77734 0.71765 0.60003 0.0
C544 C 0.76569 0.57755 0.57713 0.0
N545 N 0.78487 0.60572 0.58478 0.0
C546 C 0.81307 0.63453 0.56331 0.0
C547 C 0.80817 0.63399 0.5782 0.0
C548 C 0.79361 0.60575 0.55511 0.0
C549 C 0.76972 0.57696 0.56224 0.0
H550 H 0.74709 0.55552 0.58257 0.0
H551 H 0.82289 0.65615 0.58452 0.0
C552 C 0.83995 0.67561 0.64867 0.0
N553 N 0.82871 0.67852 0.63553 0.0
C554 C 0.86742 0.70269 0.65491 0.0
C555 C 0.87105 0.73565 0.63408 0.0
C556 C 0.84327 0.7079 0.62828 0.0
C557 C 0.88388 0.73301 0.64744 0.0
H558 H 0.8285 0.65174 0.65402 0.0
H559 H 0.83459 0.70938 0.61766 0.0
C560 C 0.72496 0.52929 0.61237 0.0
N561 N 0.69488 0.46081 0.61268 0.0
C562 C 0.69332 0.51013 0.61836 0.0
C563 C 0.7411 0.51356 0.60638 0.0
C564 C 0.67857 0.47555 0.61844 0.0
C565 C 0.72555 0.47894 0.60669 0.0
C566 C 0.75577 0.6096 0.65394 0.0
C567 C 0.74526 0.58607 0.66501 0.0
C568 C 0.75724 0.63998 0.65638 0.0
C569 C 0.7357 0.59304 0.67826 0.0
C570 C 0.74752 0.64604 0.66978 0.0
N571 N 0.73698 0.62262 0.68034 0.0
C572 C 0.80909 0.54222 0.63534 0.0
C573 C 0.75346 0.51848 0.64344 0.0
C574 C 0.81198 0.51658 0.64176 0.0
N575 N 0.78006 0.54251 0.63622 0.0
C576 C 0.75509 0.49224 0.64986 0.0
C577 C 0.78466 0.49098 0.64909 0.0
H578 H 0.83003 0.56195 0.62971 0.0
H579 H 0.73079 0.51955 0.64408 0.0
C580 C 0.6748 0.58814 0.61559 0.0
N581 N 0.69126 0.58538 0.62714 0.0
C582 C 0.64047 0.57504 0.61616 0.0
C583 C 0.64085 0.55749 0.64069 0.0
C584 C 0.67515 0.57079 0.63961 0.0
C585 C 0.62297 0.55885 0.62874 0.0
H586 H 0.68822 0.59942 0.60573 0.0
H587 H 0.6885 0.56783 0.64847 0.0
O588 O 0.81577 0.61285 0.61804 0.0
O589 O 0.76462 0.63699 0.61204 0.0
O590 O 0.74 0.56323 0.61237 0.0
O591 O 0.76532 0.60314 0.64093 0.0
H592 H 0.86573 0.67258 0.61156 0.0
H593 H 0.82164 0.56818 0.60253 0.0
H594 H 0.90942 0.68388 0.59346 0.0
H595 H 0.86596 0.58127 0.58451 0.0
H596 H 0.72703 0.70472 0.62815 0.0
H597 H 0.79435 0.68479 0.59267 0.0
H598 H 0.72962 0.65287 0.62964 0.0
H599 H 0.79036 0.736 0.59173 0.0
H600 H 0.83146 0.65741 0.55824 0.0
H601 H 0.75441 0.55411 0.55639 0.0
H602 H 0.87682 0.69926 0.66507 0.0
H603 H 0.88304 0.75855 0.62796 0.0
H604 H 0.6803 0.52176 0.62296 0.0
H605 H 0.76545 0.52793 0.60161 0.0
H606 H 0.65418 0.46045 0.62311 0.0
H607 H 0.73789 0.46648 0.60218 0.0
H608 H 0.74434 0.56259 0.66339 0.0
H609 H 0.76629 0.65889 0.64813 0.0
H610 H 0.72731 0.57496 0.68688 0.0
H611 H 0.74851 0.66944 0.6718 0.0
H612 H 0.83544 0.51701 0.64109 0.0
H613 H 0.7332 0.4729 0.65518 0.0
H614 H 0.62767 0.57688 0.60675 0.0
H615 H 0.62827 0.54476 0.6505 0.0
Li616 Li 0.19743 0.77732 0.95891 0.0
Li617 Li 0.13923 0.73926 0.95673 0.0
Li618 Li 0.16791 0.77624 0.93627 0.0
Li619 Li 0.1577 0.79766 0.9596 0.0
C620 C 0.17 0.7098 0.94496 0.0
N621 N 0.15465 0.64427 0.94645 0.0
C622 C 0.17724 0.69771 0.95744 0.0
C623 C 0.15525 0.68864 0.93319 0.0
C624 C 0.16922 0.66449 0.95799 0.0
C625 C 0.1476 0.65557 0.93416 0.0
C626 C 0.15362 0.75576 0.98678 0.0
C627 C 0.11686 0.74209 0.0072 0.0
N628 N 0.13427 0.73 0.01424 0.0
C629 C 0.17138 0.74354 0.99428 0.0
C630 C 0.12634 0.75535 0.99334 0.0
C631 C 0.16111 0.73049 0.00812 0.0
C632 C 0.25081 0.80334 0.97858 0.0
N633 N 0.23859 0.78489 0.96639 0.0
C634 C 0.28527 0.77673 0.96491 0.0
C635 C 0.25521 0.77189 0.95944 0.0
C636 C 0.29844 0.79536 0.97761 0.0
C637 C 0.28089 0.80898 0.98439 0.0
H638 H 0.23708 0.81357 0.98379 0.0
H639 H 0.24496 0.75754 0.94969 0.0
C640 C 0.08528 0.67829 0.9487 0.0
N641 N 0.10527 0.69418 0.96015 0.0
C642 C 0.06387 0.64396 0.94906 0.0
C643 C 0.08264 0.64322 0.97329 0.0
C644 C 0.10391 0.67746 0.9724 0.0
C645 C 0.06288 0.62581 0.96137 0.0
H646 H 0.08733 0.69207 0.93898 0.0
H647 H 0.12038 0.69014 0.98126 0.0
C648 C 0.23176 0.83849 0.94931 0.0
N649 N 0.29861 0.88316 0.95291 0.0
C650 C 0.24225 0.86327 0.95983 0.0
C651 C 0.25523 0.83649 0.94058 0.0
C652 C 0.27617 0.88563 0.96148 0.0
C653 C 0.28892 0.85928 0.94259 0.0
C654 C 0.09525 0.76474 0.94691 0.0
C655 C 0.08476 0.77941 0.93658 0.0
C656 C 0.07532 0.74916 0.95893 0.0
C657 C 0.05456 0.7786 0.93855 0.0
C658 C 0.04528 0.74885 0.9605 0.0
N659 N 0.03562 0.76348 0.95037 0.0
C660 C 0.14987 0.75626 0.90737 0.0
C661 C 0.19361 0.8117 0.91045 0.0
C662 C 0.15213 0.75989 0.89237 0.0
N663 N 0.17074 0.78187 0.91601 0.0
C664 C 0.19673 0.81644 0.89554 0.0
C665 C 0.176 0.79025 0.88627 0.0
H666 H 0.13155 0.73299 0.91213 0.0
H667 H 0.20941 0.83186 0.91759 0.0
C668 C 0.1604 0.84036 0.98147 0.0
N669 N 0.15127 0.83158 0.96752 0.0
C670 C 0.16213 0.86899 0.98712 0.0
C671 C 0.14391 0.87844 0.96406 0.0
C672 C 0.1426 0.8496 0.95884 0.0
C673 C 0.15467 0.88897 0.97827 0.0
H674 H 0.1683 0.82626 0.98797 0.0
H675 H 0.1363 0.84253 0.94767 0.0
O676 O 0.17654 0.74193 0.94444 0.0
O677 O 0.16355 0.76895 0.97328 0.0
O678 O 0.19876 0.81574 0.94782 0.0
O679 O 0.12484 0.76553 0.94517 0.0
H680 H 0.18841 0.71367 0.96669 0.0
H681 H 0.14947 0.69756 0.92346 0.0
H682 H 0.17442 0.65474 0.96763 0.0
H683 H 0.13596 0.63885 0.92517 0.0
H684 H 0.09573 0.74152 0.01239 0.0
H685 H 0.1927 0.74386 0.98943 0.0
H686 H 0.11279 0.76542 0.98785 0.0
H687 H 0.17448 0.72075 0.01401 0.0
H688 H 0.29764 0.76538 0.95941 0.0
H689 H 0.29033 0.82394 0.99405 0.0
H690 H 0.04952 0.63167 0.93952 0.0
H691 H 0.08237 0.63043 0.9831 0.0
H692 H 0.22442 0.86507 0.96671 0.0
H693 H 0.2475 0.8172 0.9325 0.0
H694 H 0.28467 0.90486 0.96961 0.0
H695 H 0.30738 0.85788 0.93598 0.0
H696 H 0.0999 0.79145 0.92719 0.0
H697 H 0.08285 0.73728 0.9669 0.0
H698 H 0.04618 0.79 0.93067 0.0
H699 H 0.02961 0.73692 0.96976 0.0
H700 H 0.13577 0.73898 0.88564 0.0
H701 H 0.215 0.84046 0.89132 0.0
H702 H 0.17129 0.87644 0.99801 0.0
H703 H 0.13776 0.89297 0.95689 0.0
Li704 Li 0.39863 0.13519 0.28964 0.0
Li705 Li 0.41855 0.19368 0.29169 0.0
Li706 Li 0.36008 0.15558 0.29342 0.0
Li707 Li 0.3893 0.16552 0.26974 0.0
C708 C 0.41508 0.15976 0.31764 0.0
N709 N 0.45565 0.16021 0.33954 0.0
C710 C 0.44851 0.17056 0.31492 0.0
C711 C 0.40226 0.14923 0.33151 0.0
C712 C 0.46864 0.17062 0.32613 0.0
C713 C 0.42318 0.14962 0.34243 0.0
C714 C 0.46193 0.18548 0.27109 0.0
C715 C 0.50108 0.22124 0.25312 0.0
N716 N 0.52403 0.21403 0.25842 0.0
C717 C 0.48583 0.17818 0.27626 0.0
C718 C 0.46952 0.20696 0.25933 0.0
C719 C 0.51711 0.19297 0.26975 0.0
C720 C 0.42196 0.0945 0.28039 0.0
N721 N 0.40968 0.10139 0.29237 0.0
C722 C 0.42093 0.06518 0.30656 0.0
C723 C 0.40823 0.08673 0.30527 0.0
C724 C 0.43497 0.05859 0.29445 0.0
C725 C 0.43486 0.07319 0.28119 0.0
H726 H 0.4228 0.10658 0.2703 0.0
H727 H 0.39796 0.0923 0.31461 0.0
C728 C 0.44787 0.24334 0.31291 0.0
N729 N 0.45282 0.23514 0.29941 0.0
C730 C 0.47172 0.27285 0.31936 0.0
C731 C 0.50512 0.28539 0.29781 0.0
C732 C 0.48056 0.25572 0.29176 0.0
C733 C 0.50101 0.29424 0.31184 0.0
H734 H 0.42526 0.22691 0.31866 0.0
H735 H 0.48378 0.24933 0.28097 0.0
C736 C 0.33267 0.0907 0.28299 0.0
N737 N 0.28464 0.02764 0.29131 0.0
C738 C 0.31252 0.06749 0.27263 0.0
C739 C 0.32842 0.08186 0.29758 0.0
C740 C 0.28836 0.03573 0.27706 0.0
C741 C 0.304 0.04985 0.30157 0.0
C742 C 0.39336 0.22959 0.28276 0.0
C743 C 0.38439 0.24193 0.29463 0.0
C744 C 0.41476 0.25148 0.2723 0.0
C745 C 0.39733 0.27617 0.29593 0.0
C746 C 0.42718 0.28554 0.27399 0.0
N747 N 0.41831 0.29708 0.28567 0.0
C748 C 0.32031 0.15856 0.31558 0.0
C749 C 0.29382 0.1408 0.29283 0.0
C750 C 0.29348 0.16087 0.32097 0.0
N751 N 0.32024 0.14943 0.30165 0.0
C752 C 0.26647 0.14276 0.29777 0.0
C753 C 0.26654 0.15395 0.31187 0.0
H754 H 0.34204 0.16599 0.32222 0.0
H755 H 0.29477 0.13407 0.28173 0.0
C756 C 0.39853 0.15445 0.24065 0.0
N757 N 0.38528 0.16797 0.24957 0.0
C758 C 0.39649 0.15684 0.22571 0.0
C759 C 0.36641 0.18621 0.22949 0.0
C760 C 0.36924 0.18344 0.24435 0.0
C761 C 0.38035 0.17301 0.21992 0.0
H762 H 0.4111 0.14224 0.24517 0.0
H763 H 0.3587 0.19369 0.25175 0.0
O764 O 0.39472 0.15914 0.30684 0.0
O765 O 0.43091 0.17068 0.27713 0.0
O766 O 0.35643 0.12185 0.27877 0.0
O767 O 0.3818 0.19629 0.28154 0.0
H768 H 0.45884 0.17898 0.30431 0.0
H769 H 0.37638 0.14068 0.33377 0.0
H770 H 0.49457 0.17895 0.32416 0.0
H771 H 0.41358 0.14147 0.35321 0.0
H772 H 0.50734 0.23809 0.24409 0.0
H773 H 0.48029 0.16114 0.28516 0.0
H774 H 0.4514 0.21292 0.25516 0.0
H775 H 0.53584 0.1876 0.27368 0.0
H776 H 0.42006 0.05408 0.31695 0.0
H777 H 0.44579 0.06926 0.27161 0.0
H778 H 0.46713 0.27891 0.33009 0.0
H779 H 0.52737 0.3009 0.29162 0.0
H780 H 0.31553 0.07399 0.26129 0.0
H781 H 0.34374 0.09945 0.30576 0.0
H782 H 0.27257 0.0175 0.26916 0.0
H783 H 0.30044 0.04266 0.31282 0.0
H784 H 0.36793 0.22528 0.30284 0.0
H785 H 0.42195 0.24228 0.26306 0.0
H786 H 0.3908 0.28612 0.30511 0.0
H787 H 0.44394 0.30281 0.26603 0.0
H788 H 0.29486 0.17009 0.33183 0.0
H789 H 0.24611 0.1369 0.29044 0.0
H790 H 0.40799 0.14668 0.21879 0.0
H791 H 0.35324 0.19835 0.22555 0.0
Li792 Li 0.2212 0.42129 0.62357 0.0
Li793 Li 0.26149 0.40246 0.62201 0.0
Li794 Li 0.22317 0.39329 0.60205 0.0
Li795 Li 0.20353 0.36191 0.62457 0.0
C796 C 0.27371 0.45277 0.59776 0.0
N797 N 0.30324 0.48395 0.57212 0.0
C798 C 0.30302 0.45414 0.59316 0.0
C799 C 0.25949 0.46736 0.58933 0.0
C800 C 0.31757 0.47003 0.58018 0.0
C801 C 0.27475 0.48294 0.57639 0.0
C802 C 0.25187 0.40514 0.64997 0.0
C803 C 0.28142 0.39123 0.66744 0.0
N804 N 0.29547 0.42256 0.67288 0.0
C805 C 0.2664 0.43712 0.65579 0.0
C806 C 0.25921 0.38191 0.65589 0.0
C807 C 0.28846 0.44547 0.66736 0.0
C808 C 0.19316 0.44855 0.64249 0.0
N809 N 0.21446 0.4553 0.63128 0.0
C810 C 0.22864 0.51222 0.63131 0.0
C811 C 0.23222 0.48636 0.62569 0.0
C812 C 0.20665 0.50607 0.64283 0.0
C813 C 0.18871 0.47368 0.64843 0.0
H814 H 0.17974 0.42365 0.64685 0.0
H815 H 0.24956 0.4912 0.61702 0.0
C816 C 0.31937 0.39593 0.62418 0.0
N817 N 0.30618 0.41579 0.62663 0.0
C818 C 0.3534 0.40832 0.6261 0.0
C819 C 0.3592 0.46092 0.6334 0.0
C820 C 0.32523 0.44764 0.63121 0.0
C821 C 0.37381 0.44138 0.6306 0.0
H822 H 0.3037 0.37087 0.62029 0.0
H823 H 0.31417 0.46311 0.63267 0.0
C824 C 0.15885 0.39096 0.61572 0.0
N825 N 0.11022 0.40702 0.62149 0.0
C826 C 0.13401 0.37262 0.62583 0.0
C827 C 0.15883 0.41734 0.60848 0.0
C828 C 0.10965 0.38114 0.6286 0.0
C829 C 0.13409 0.42513 0.61158 0.0
C830 C 0.22691 0.32938 0.60909 0.0
C831 C 0.21078 0.31182 0.5966 0.0
C832 C 0.23319 0.31318 0.6203 0.0
C833 C 0.20082 0.27812 0.59563 0.0
C834 C 0.2228 0.27945 0.61892 0.0
N835 N 0.20695 0.26276 0.60672 0.0
C836 C 0.24117 0.39018 0.5731 0.0
C837 C 0.19054 0.39022 0.57603 0.0
C838 C 0.23806 0.38985 0.55809 0.0
N839 N 0.21778 0.39081 0.58168 0.0
C840 C 0.1864 0.38987 0.56111 0.0
C841 C 0.21049 0.38997 0.55192 0.0
H842 H 0.26244 0.39034 0.57792 0.0
H843 H 0.17202 0.3901 0.5831 0.0
C844 C 0.16457 0.31848 0.64686 0.0
N845 N 0.17037 0.32089 0.63242 0.0
C846 C 0.13569 0.29167 0.65247 0.0
C847 C 0.12067 0.26922 0.62835 0.0
C848 C 0.14941 0.29677 0.62319 0.0
C849 C 0.11266 0.26705 0.64311 0.0
H850 H 0.18119 0.33849 0.6539 0.0
H851 H 0.15397 0.29984 0.61171 0.0
O852 O 0.25868 0.43673 0.61029 0.0
O853 O 0.23066 0.39665 0.6385 0.0
O854 O 0.18325 0.38337 0.61302 0.0
O855 O 0.23672 0.36233 0.61026 0.0
H856 H 0.31424 0.44274 0.59945 0.0
H857 H 0.23664 0.46625 0.59264 0.0
H858 H 0.34018 0.47117 0.57646 0.0
H859 H 0.26389 0.49412 0.56971 0.0
H860 H 0.28747 0.37357 0.67209 0.0
H861 H 0.261 0.45541 0.65132 0.0
H862 H 0.24797 0.357 0.65157 0.0
H863 H 0.30006 0.4702 0.67191 0.0
H864 H 0.24354 0.53692 0.62687 0.0
H865 H 0.17135 0.46776 0.65724 0.0
H866 H 0.36372 0.39243 0.62387 0.0
H867 H 0.37409 0.48668 0.6366 0.0
H868 H 0.13356 0.35215 0.63155 0.0
H869 H 0.17803 0.43201 0.60072 0.0
H870 H 0.09034 0.36722 0.63644 0.0
H871 H 0.13395 0.44564 0.60614 0.0
H872 H 0.20575 0.32401 0.58782 0.0
H873 H 0.24579 0.32647 0.62999 0.0
H874 H 0.18816 0.26416 0.58607 0.0
H875 H 0.22733 0.26653 0.62755 0.0
H876 H 0.25732 0.39015 0.55142 0.0
H877 H 0.16442 0.38926 0.55684 0.0
H878 H 0.13052 0.29156 0.66387 0.0
H879 H 0.10412 0.25068 0.62072 0.0
Li880 Li 0.86094 0.26271 0.95611 0.0
Li881 Li 0.80169 0.22392 0.95823 0.0
Li882 Li 0.84111 0.2029 0.95997 0.0
Li883 Li 0.82906 0.22002 0.93683 0.0
C884 C 0.85592 0.24292 0.98526 0.0
N885 N 0.89478 0.25897 0.00979 0.0
C886 C 0.84558 0.25101 0.99804 0.0
C887 C 0.88584 0.24266 0.98501 0.0
C888 C 0.86563 0.25917 0.01031 0.0
C889 C 0.90517 0.25091 0.99751 0.0
C890 C 0.80537 0.27268 0.94297 0.0
C891 C 0.75678 0.27372 0.9346 0.0
N892 N 0.76487 0.30039 0.94322 0.0
C893 C 0.81331 0.3002 0.95169 0.0
C894 C 0.777 0.25941 0.93429 0.0
C895 C 0.79248 0.31382 0.95168 0.0
C896 C 0.90578 0.32507 0.94597 0.0
N897 N 0.89417 0.30793 0.95851 0.0
C898 C 0.92406 0.35785 0.97224 0.0
C899 C 0.90307 0.32348 0.97153 0.0
C900 C 0.93543 0.37633 0.95943 0.0
C901 C 0.92649 0.35947 0.94617 0.0
H902 H 0.89789 0.31205 0.93577 0.0
H903 H 0.89296 0.30961 0.98135 0.0
C904 C 0.73166 0.19695 0.96132 0.0
N905 N 0.76223 0.22042 0.966 0.0
C906 C 0.70316 0.19512 0.96724 0.0
C907 C 0.73819 0.24139 0.98277 0.0
C908 C 0.76597 0.24247 0.97648 0.0
C909 C 0.70627 0.21745 0.97817 0.0
H910 H 0.72936 0.17956 0.95306 0.0
H911 H 0.79062 0.26105 0.97988 0.0
C912 C 0.90258 0.23457 0.94272 0.0
N913 N 0.96251 0.23789 0.93695 0.0
C914 C 0.90439 0.21367 0.93236 0.0
C915 C 0.93141 0.25763 0.94993 0.0
C916 C 0.93487 0.21558 0.92966 0.0
C917 C 0.96142 0.25879 0.94692 0.0
C918 C 0.77944 0.15704 0.94078 0.0
C919 C 0.78273 0.12877 0.94136 0.0
C920 C 0.75732 0.15836 0.93095 0.0
C921 C 0.76401 0.10237 0.93197 0.0
C922 C 0.73909 0.13147 0.92173 0.0
N923 N 0.74279 0.10427 0.92242 0.0
C924 C 0.83084 0.15828 0.98183 0.0
C925 C 0.86438 0.15625 0.96305 0.0
C926 C 0.82962 0.13086 0.98854 0.0
N927 N 0.84765 0.1701 0.96924 0.0
C928 C 0.86372 0.12862 0.96938 0.0
C929 C 0.84558 0.11516 0.98215 0.0
H930 H 0.81711 0.16929 0.98633 0.0
H931 H 0.87692 0.16555 0.95288 0.0
C932 C 0.82607 0.23629 0.90787 0.0
N933 N 0.82614 0.21272 0.91652 0.0
C934 C 0.82365 0.23205 0.89291 0.0
C935 C 0.82149 0.17937 0.89606 0.0
C936 C 0.82444 0.18487 0.91093 0.0
C937 C 0.82104 0.20314 0.88687 0.0
H938 H 0.82782 0.25838 0.9126 0.0
H939 H 0.82519 0.16679 0.918 0.0
O940 O 0.83649 0.23485 0.97317 0.0
O941 O 0.82497 0.25846 0.94311 0.0
O942 O 0.87306 0.23347 0.94533 0.0
O943 O 0.79772 0.18319 0.94985 0.0
H944 H 0.82234 0.25105 0.99847 0.0
H945 H 0.89386 0.2358 0.97534 0.0
H946 H 0.858 0.26561 0.02025 0.0
H947 H 0.92839 0.25081 0.99746 0.0
H948 H 0.73465 0.2636 0.928 0.0
H949 H 0.83508 0.31067 0.95853 0.0
H950 H 0.77056 0.23817 0.92746 0.0
H951 H 0.7982 0.335 0.95844 0.0
H952 H 0.93005 0.37 0.98267 0.0
H953 H 0.93496 0.37282 0.93606 0.0
H954 H 0.67896 0.1761 0.9635 0.0
H955 H 0.74167 0.25935 0.99103 0.0
H956 H 0.88245 0.19588 0.92659 0.0
H957 H 0.93071 0.2746 0.95772 0.0
H958 H 0.93655 0.19933 0.92177 0.0
H959 H 0.98387 0.27641 0.95247 0.0
H960 H 0.79957 0.12722 0.94895 0.0
H961 H 0.75466 0.18013 0.93027 0.0
H962 H 0.76638 0.08039 0.93227 0.0
H963 H 0.72208 0.13227 0.91399 0.0
H964 H 0.81474 0.121 0.9982 0.0
H965 H 0.87644 0.11734 0.9641 0.0
H966 H 0.82325 0.25087 0.88617 0.0
H967 H 0.81995 0.15696 0.89177 0.0
Li968 Li 0.58251 0.80415 0.29148 0.0
Li969 Li 0.603 0.86359 0.29004 0.0
Li970 Li 0.61363 0.83251 0.27027 0.0
Li971 Li 0.64289 0.84354 0.29332 0.0
C972 C 0.53732 0.80818 0.27641 0.0
N973 N 0.46921 0.76676 0.27618 0.0
C974 C 0.51693 0.81636 0.28442 0.0
C975 C 0.52303 0.77911 0.26816 0.0
C976 C 0.48256 0.79507 0.28419 0.0
C977 C 0.48856 0.75844 0.26823 0.0
C978 C 0.61644 0.8566 0.31904 0.0
C979 C 0.65648 0.90473 0.3323 0.0
N980 N 0.63676 0.89344 0.34419 0.0
C981 C 0.5967 0.8453 0.33143 0.0
C982 C 0.64667 0.8864 0.3195 0.0
C983 C 0.60735 0.86435 0.34403 0.0
C984 C 0.54054 0.73407 0.29444 0.0
N985 N 0.54653 0.76441 0.29891 0.0
C986 C 0.49886 0.73965 0.31421 0.0
C987 C 0.52656 0.76768 0.30867 0.0
C988 C 0.49163 0.70789 0.30965 0.0
C989 C 0.51302 0.7053 0.29968 0.0
H990 H 0.55693 0.73219 0.28672 0.0
H991 H 0.53198 0.79218 0.31201 0.0
C992 C 0.59404 0.91629 0.282 0.0
N993 N 0.59094 0.89648 0.29336 0.0
C994 C 0.57998 0.93668 0.28258 0.0
C995 C 0.56087 0.91684 0.30677 0.0
C996 C 0.57523 0.89674 0.30571 0.0
C997 C 0.56237 0.93647 0.29495 0.0
H998 H 0.60618 0.91511 0.27224 0.0
H999 H 0.57206 0.87994 0.3144 0.0
C1000 C 0.62809 0.78385 0.27325 0.0
N1001 N 0.64609 0.7504 0.25388 0.0
C1002 C 0.66051 0.7893 0.27319 0.0
C1003 C 0.60474 0.76113 0.26355 0.0
C1004 C 0.66914 0.77219 0.2633 0.0
C1005 C 0.61436 0.74456 0.25381 0.0
C1006 C 0.67375 0.9056 0.27731 0.0
C1007 C 0.69698 0.90797 0.26711 0.0
C1008 C 0.67994 0.9337 0.28526 0.0
C1009 C 0.72644 0.93816 0.26531 0.0
C1010 C 0.70969 0.96345 0.28314 0.0
N1011 N 0.73215 0.96504 0.27331 0.0
C1012 C 0.59139 0.82669 0.2417 0.0
C1013 C 0.64385 0.83017 0.24373 0.0
C1014 C 0.59174 0.82333 0.22675 0.0
N1015 N 0.61702 0.82967 0.24987 0.0
C1016 C 0.64523 0.82681 0.22881 0.0
C1017 C 0.61885 0.82319 0.22011 0.0
H1018 H 0.57051 0.82671 0.24681 0.0
H1019 H 0.66404 0.8328 0.25043 0.0
C1020 C 0.6753 0.83093 0.31506 0.0
N1021 N 0.68175 0.84909 0.30278 0.0
C1022 C 0.7005 0.82843 0.32203 0.0
C1023 C 0.73896 0.8639 0.30374 0.0
C1024 C 0.71292 0.86591 0.29715 0.0
C1025 C 0.73272 0.84444 0.31621 0.0
H1026 H 0.65013 0.81714 0.3191 0.0
H1027 H 0.71735 0.87951 0.2872 0.0
O1028 O 0.5711 0.82824 0.27682 0.0
O1029 O 0.60628 0.8382 0.30663 0.0
O1030 O 0.61924 0.80054 0.28281 0.0
O1031 O 0.64444 0.8764 0.279 0.0
H1032 H 0.52751 0.8387 0.29087 0.0
H1033 H 0.53839 0.77243 0.26187 0.0
H1034 H 0.46651 0.80099 0.29041 0.0
H1035 H 0.4772 0.73575 0.26198 0.0
H1036 H 0.67984 0.92786 0.33278 0.0
H1037 H 0.57335 0.82211 0.33132 0.0
H1038 H 0.6626 0.89507 0.31015 0.0
H1039 H 0.59224 0.85598 0.35368 0.0
H1040 H 0.48341 0.74286 0.32205 0.0
H1041 H 0.50825 0.68136 0.29576 0.0
H1042 H 0.58202 0.9517 0.27328 0.0
H1043 H 0.54711 0.91554 0.31642 0.0
H1044 H 0.67886 0.80658 0.28066 0.0
H1045 H 0.5796 0.75667 0.2634 0.0
H1046 H 0.69417 0.77627 0.2631 0.0
H1047 H 0.59661 0.72713 0.24617 0.0
H1048 H 0.69251 0.88665 0.26075 0.0
H1049 H 0.66192 0.93266 0.29294 0.0
H1050 H 0.74476 0.94023 0.25754 0.0
H1051 H 0.71484 0.98531 0.28928 0.0
H1052 H 0.57072 0.82028 0.2205 0.0
H1053 H 0.66682 0.82731 0.22414 0.0
H1054 H 0.69431 0.81257 0.33143 0.0
H1055 H 0.76344 0.87665 0.2989 0.0
H1056 H 0.14447 0.90691 0.00528 0.0
H1057 H 0.25374 0.10089 0.98814 0.0
H1058 H 0.18216 0.94727 0.963 0.0
H1059 H 0.2302 0.05982 0.03116 0.0
H1060 H 0.21752 0.04542 0.97832 0.0
H1061 H 0.1656 0.96333 0.01437 0.0
C1062 C 0.15684 0.92757 0.99786 0.0
C1063 C 0.16192 0.92227 0.98339 0.0
C1064 C 0.21995 0.04864 0.98991 0.0
C1065 C 0.18606 0.98693 0.99372 0.0
C1066 C 0.24071 0.08029 0.99553 0.0
C1067 C 0.24545 0.08503 0.0105 0.0
C1068 C 0.20382 0.02144 0.99932 0.0
C1069 C 0.22729 0.05749 0.01956 0.0
C1070 C 0.16882 0.95977 0.00306 0.0
C1071 C 0.17749 0.95001 0.97422 0.0
N1072 N 0.20762 0.02684 0.01382 0.0
N1073 N 0.18935 0.98112 0.97958 0.0
H1074 H 0.14872 0.21108 0.36367 0.0
H1075 H 0.23954 0.18427 0.29607 0.0
H1076 H 0.174 0.26852 0.32432 0.0
H1077 H 0.2359 0.14353 0.33834 0.0
H1078 H 0.2038 0.20505 0.30471 0.0
H1079 H 0.16946 0.1768 0.35298 0.0
C1080 C 0.15829 0.21634 0.35275 0.0
C1081 C 0.15999 0.24315 0.34499 0.0
C1082 C 0.21047 0.19121 0.31206 0.0
C1083 C 0.18338 0.20367 0.33266 0.0
C1084 C 0.23066 0.17904 0.30709 0.0
C1085 C 0.24097 0.16229 0.31652 0.0
C1086 C 0.20045 0.18668 0.32656 0.0
C1087 C 0.22901 0.15677 0.33077 0.0
C1088 C 0.17001 0.19665 0.34665 0.0
C1089 C 0.1719 0.24811 0.33074 0.0
N1090 N 0.2096 0.16918 0.33539 0.0
N1091 N 0.1834 0.22881 0.32511 0.0
H1092 H 0.9435 0.16935 0.69882 0.0
H1093 H 0.05325 0.24141 0.6287 0.0
H1094 H 0.90264 0.15544 0.65586 0.0
H1095 H 0.09463 0.23556 0.66964 0.0
H1096 H 0.99797 0.20581 0.63821 0.0
H1097 H 0.99847 0.1891 0.68835 0.0
C1098 C 0.94591 0.16974 0.68719 0.0
C1099 C 0.91841 0.16114 0.67821 0.0
C1100 C 0.01911 0.21189 0.64508 0.0
C1101 C 0.98147 0.18443 0.66617 0.0
C1102 C 0.05093 0.23212 0.6396 0.0
C1103 C 0.07901 0.24184 0.64836 0.0
C1104 C 0.01501 0.2016 0.65953 0.0
C1105 C 0.07385 0.22941 0.66254 0.0
C1106 C 0.9774 0.18124 0.68122 0.0
C1107 C 0.92323 0.16255 0.66321 0.0
N1108 N 0.04249 0.21032 0.66775 0.0
N1109 N 0.95418 0.17441 0.65768 0.0
H1110 H 0.76671 0.94539 0.03681 0.0
H1111 H 0.834 0.05947 0.9672 0.0
H1112 H 0.76251 0.90713 0.99391 0.0
H1113 H 0.84415 0.09746 0.01054 0.0
H1114 H 0.81596 0.0044 0.97708 0.0
H1115 H 0.80299 0.00135 0.02785 0.0
C1116 C 0.77398 0.94858 0.02556 0.0
C1117 C 0.7611 0.92137 0.01608 0.0
C1118 C 0.82261 0.02486 0.98445 0.0
C1119 C 0.80212 0.98584 0.00564 0.0
C1120 C 0.83317 0.05644 0.97881 0.0
C1121 C 0.84019 0.08311 0.98805 0.0
C1122 C 0.81881 0.01983 0.99944 0.0
C1123 C 0.83828 0.07749 0.003 0.0
C1124 C 0.79455 0.98071 0.02042 0.0
C1125 C 0.77117 0.92737 0.00156 0.0
N1126 N 0.82736 0.04641 0.00822 0.0
N1127 N 0.79069 0.95898 0.99675 0.0
H1128 H 0.77733 0.83245 0.30185 0.0
H1129 H 0.81222 0.75598 0.37148 0.0
H1130 H 0.74617 0.84087 0.34477 0.0
H1131 H 0.85867 0.76182 0.33034 0.0
H1132 H 0.79312 0.79232 0.36228 0.0
H1133 H 0.81231 0.81228 0.31224 0.0
C1134 C 0.7784 0.83079 0.31348 0.0
C1135 C 0.75839 0.83794 0.32244 0.0
C1136 C 0.80787 0.78606 0.35529 0.0
C1137 C 0.79788 0.8142 0.33438 0.0
C1138 C 0.81913 0.76542 0.36059 0.0
C1139 C 0.83709 0.75548 0.35168 0.0
C1140 C 0.81401 0.7966 0.34086 0.0
C1141 C 0.84435 0.76815 0.33754 0.0
C1142 C 0.79823 0.81904 0.3194 0.0
C1143 C 0.76058 0.83495 0.33742 0.0
N1144 N 0.83243 0.78769 0.33251 0.0
N1145 N 0.77957 0.82292 0.3429 0.0
H1146 H 0.90127 0.75524 0.67529 0.0
H1147 H 0.09438 0.8509 0.65664 0.0
H1148 H 0.94054 0.77186 0.63198 0.0
H1149 H 0.05523 0.83173 0.69999 0.0
H1150 H 0.0384 0.8314 0.64736 0.0
H1151 H 0.95727 0.79229 0.68442 0.0
C1152 C 0.92161 0.76705 0.66769 0.0
C1153 C 0.91625 0.76006 0.65287 0.0
C1154 C 0.04211 0.83195 0.65892 0.0
C1155 C 0.98046 0.80241 0.66324 0.0
C1156 C 0.07406 0.84303 0.66421 0.0
C1157 C 0.07944 0.84252 0.6791 0.0
C1158 C 0.01524 0.81999 0.66857 0.0
C1159 C 0.0523 0.83262 0.68844 0.0
C1160 C 0.95358 0.78826 0.6729 0.0
C1161 C 0.94343 0.77654 0.64348 0.0
N1162 N 0.02131 0.82128 0.68301 0.0
N1163 N 0.97441 0.79654 0.64884 0.0
H1164 H 0.69441 0.22138 0.00681 0.0
H1165 H 0.52426 0.22048 0.99362 0.0
H1166 H 0.65034 0.20965 0.96467 0.0
H1167 H 0.55732 0.20903 0.0357 0.0
H1168 H 0.5711 0.21856 0.98276 0.0
H1169 H 0.64561 0.21975 0.01757 0.0
C1170 C 0.67447 0.21855 -0.00018 0.0
C1171 C 0.67645 0.21575 0.98482 0.0
C1172 C 0.56801 0.21633 0.99436 0.0
C1173 C 0.62047 0.21373 0.99705 0.0
C1174 C 0.54112 0.21723 0.00059 0.0
C1175 C 0.53675 0.21498 0.01564 0.0
C1176 C 0.59091 0.21344 0.00323 0.0
C1177 C 0.55991 0.21146 0.02409 0.0
C1178 C 0.64653 0.2174 0.00597 0.0
C1179 C 0.64969 0.21165 0.97629 0.0
N1180 N 0.58603 0.21095 0.01778 0.0
N1181 N 0.62288 0.21095 0.98252 0.0
H1182 H 0.29962 0.5721 0.34614 0.0
H1183 H 0.48558 0.64789 0.31714 0.0
H1184 H 0.34873 0.51452 0.34216 0.0
H1185 H 0.42973 0.69915 0.31489 0.0
H1186 H 0.43645 0.59913 0.32677 0.0
H1187 H 0.34806 0.61956 0.33545 0.0
C1188 C 0.3207 0.56951 0.34306 0.0
C1189 C 0.32024 0.53939 0.34511 0.0
C1190 C 0.43496 0.62104 0.32413 0.0
C1191 C 0.37574 0.59358 0.33275 0.0
C1192 C 0.46295 0.64885 0.31856 0.0
C1193 C 0.46188 0.67778 0.31525 0.0
C1194 C 0.40569 0.62218 0.32646 0.0
C1195 C 0.43196 0.67767 0.31753 0.0
C1196 C 0.34826 0.59655 0.33687 0.0
C1197 C 0.34799 0.53724 0.34069 0.0
N1198 N 0.40514 0.65038 0.32303 0.0
N1199 N 0.37472 0.56405 0.33478 0.0
H1200 H 0.74014 0.315 0.69754 0.0
H1201 H 0.81771 0.45965 0.6391 0.0
H1202 H 0.8258 0.3352 0.67198 0.0
H1203 H 0.75624 0.4582 0.67439 0.0
H1204 H 0.81888 0.41232 0.64991 0.0
H1205 H 0.74285 0.36529 0.68791 0.0
C1206 C 0.75951 0.33008 0.68989 0.0
C1207 C 0.78273 0.32097 0.68551 0.0
C1208 C 0.80529 0.42252 0.6553 0.0
C1209 C 0.78596 0.3784 0.67443 0.0
C1210 C 0.80473 0.44968 0.64918 0.0
C1211 C 0.7867 0.46297 0.65578 0.0
C1212 C 0.78741 0.40828 0.66803 0.0
C1213 C 0.76989 0.44846 0.66872 0.0
C1214 C 0.76117 0.35884 0.68447 0.0
C1215 C 0.80756 0.34152 0.67569 0.0
N1216 N 0.77048 0.4218 0.67436 0.0
N1217 N 0.80837 0.36918 0.67038 0.0
H1218 H 0.3546 0.80524 0.96342 0.0
H1219 H 0.45124 0.80915 0.03551 0.0
H1220 H 0.31382 0.79528 0.00622 0.0
H1221 H 0.47989 0.79483 0.99294 0.0
H1222 H 0.40444 0.81159 0.02485 0.0
H1223 H 0.40442 0.80887 0.97401 0.0
C1224 C 0.35605 0.80377 0.97504 0.0
C1225 C 0.32977 0.79969 0.98392 0.0
C1226 C 0.42108 0.80805 0.01785 0.0
C1227 C 0.38704 0.80435 0.99612 0.0
C1228 C 0.44773 0.8065 0.02393 0.0
C1229 C 0.46949 0.80153 0.01513 0.0
C1230 C 0.41616 0.80478 0.00286 0.0
C1231 C 0.46405 0.79904 0.00015 0.0
C1232 C 0.3846 0.80602 0.98108 0.0
C1233 C 0.3335 0.79875 0.99893 0.0
N1234 N 0.43788 0.80057 0.9945 0.0
N1235 N 0.36153 0.80095 0.00455 0.0
H1236 H 0.54078 0.35511 0.29923 0.0
H1237 H 0.64395 0.43892 0.37125 0.0
H1238 H 0.5218 0.30392 0.34006 0.0
H1239 H 0.67629 0.48101 0.32875 0.0
H1240 H 0.59483 0.39229 0.36048 0.0
H1241 H 0.58642 0.40444 0.3104 0.0
C1242 C 0.54619 0.35417 0.31053 0.0
C1243 C 0.52749 0.32513 0.31867 0.0
C1244 C 0.61262 0.41181 0.35353 0.0
C1245 C 0.57946 0.38178 0.33157 0.0
C1246 C 0.64077 0.43839 0.35965 0.0
C1247 C 0.66453 0.46387 0.35089 0.0
C1248 C 0.60801 0.41067 0.33852 0.0
C1249 C 0.65858 0.46215 0.33596 0.0
C1250 C 0.57216 0.38243 0.31691 0.0
C1251 C 0.53523 0.32576 0.33337 0.0
N1252 N 0.631 0.43594 0.33025 0.0
N1253 N 0.56067 0.35356 0.33933 0.0
H1254 H 0.20519 0.55716 0.62871 0.0
H1255 H 0.1936 0.64553 0.7009 0.0
H1256 H 0.2005 0.51785 0.67142 0.0
H1257 H 0.21452 0.69145 0.65883 0.0
H1258 H 0.19035 0.59593 0.6901 0.0
H1259 H 0.20323 0.6041 0.63941 0.0
C1260 C 0.2038 0.5584 0.64034 0.0
C1261 C 0.20328 0.5336 0.64917 0.0
C1262 C 0.19559 0.61684 0.68323 0.0
C1263 C 0.20064 0.58719 0.6615 0.0
C1264 C 0.19726 0.64507 0.68937 0.0
C1265 C 0.20449 0.6727 0.68075 0.0
C1266 C 0.20097 0.61618 0.66835 0.0
C1267 C 0.20936 0.67089 0.6659 0.0
C1268 C 0.20253 0.58516 0.64644 0.0
C1269 C 0.20068 0.5362 0.66417 0.0
N1270 N 0.20752 0.64313 0.66018 0.0
N1271 N 0.1996 0.56259 0.66986 0.0
H1272 H 0.37208 0.24246 0.13413 0.0
H1273 H 0.37096 0.12776 0.1987 0.0
H1274 H 0.37964 0.1545 0.12755 0.0
H1275 H 0.38543 0.22622 0.20486 0.0
H1276 H 0.36915 0.13467 0.17264 0.0
H1277 H 0.37176 0.2343 0.16016 0.0
C1278 C 0.3738 0.22149 0.13814 0.0
C1279 C 0.37608 0.19924 0.12859 0.0
C1280 C 0.37268 0.15473 0.17971 0.0
C1281 C 0.37524 0.18951 0.15844 0.0
C1282 C 0.37391 0.15089 0.1946 0.0
C1283 C 0.37844 0.17647 0.20405 0.0
C1284 C 0.37583 0.18429 0.17419 0.0
C1285 C 0.38142 0.20562 0.19806 0.0
C1286 C 0.37345 0.21677 0.15301 0.0
C1287 C 0.37747 0.17209 0.13446 0.0
N1288 N 0.38007 0.20871 0.18354 0.0
N1289 N 0.37708 0.16803 0.149 0.0
H1290 H 0.20644 0.3549 0.45983 0.0
H1291 H 0.18884 0.42535 0.53618 0.0
H1292 H 0.16836 0.42205 0.46499 0.0
H1293 H 0.22387 0.35561 0.5314 0.0
H1294 H 0.18183 0.42489 0.51007 0.0
H1295 H 0.21403 0.35557 0.48595 0.0
C1296 C 0.19981 0.3699 0.46645 0.0
C1297 C 0.18674 0.38845 0.4602 0.0
C1298 C 0.19105 0.40967 0.51472 0.0
C1299 C 0.19512 0.38913 0.49014 0.0
C1300 C 0.19489 0.40979 0.52965 0.0
C1301 C 0.20682 0.39036 0.53602 0.0
C1302 C 0.1992 0.39001 0.50604 0.0
C1303 C 0.2149 0.37122 0.52696 0.0
C1304 C 0.20399 0.37014 0.48137 0.0
C1305 C 0.17812 0.40704 0.46934 0.0
N1306 N 0.21088 0.37147 0.51243 0.0
N1307 N 0.18251 0.40694 0.48384 0.0
H1308 H 0.77663 0.1471 0.87244 0.0
H1309 H 0.8496 0.21795 0.79416 0.0
H1310 H 0.85758 0.24673 0.86547 0.0
H1311 H 0.75032 0.13625 0.80103 0.0
H1312 H 0.85714 0.22492 0.82038 0.0
H1313 H 0.77075 0.13876 0.84626 0.0
C1314 C 0.79327 0.16713 0.86538 0.0
C1315 C 0.81758 0.19766 0.87108 0.0
C1316 C 0.83374 0.20546 0.81613 0.0
C1317 C 0.81108 0.18831 0.84121 0.0
C1318 C 0.82951 0.20136 0.80121 0.0
C1319 C 0.79927 0.17656 0.79547 0.0
C1320 C 0.8077 0.1843 0.82535 0.0
C1321 C 0.7739 0.15588 0.80505 0.0
C1322 C 0.7898 0.16243 0.85047 0.0
C1323 C 0.83833 0.22293 0.86148 0.0
N1324 N 0.77872 0.16013 0.81953 0.0
N1325 N 0.8347 0.21765 0.847 0.0
H1326 H 0.59258 0.82825 0.1279 0.0
H1327 H 0.64011 0.78637 0.20508 0.0
H1328 H 0.63819 0.76774 0.13347 0.0
H1329 H 0.59881 0.85056 0.19895 0.0
H1330 H 0.63985 0.77926 0.17893 0.0
H1331 H 0.5947 0.83655 0.15394 0.0
C1332 C 0.60326 0.81687 0.13459 0.0
C1333 C 0.61533 0.79734 0.12845 0.0
C1334 C 0.63088 0.79493 0.18331 0.0
C1335 C 0.61745 0.80643 0.15839 0.0
C1336 C 0.63121 0.79917 0.19823 0.0
C1337 C 0.61942 0.81907 0.20424 0.0
C1338 C 0.61868 0.8107 0.17429 0.0
C1339 C 0.60769 0.83461 0.19483 0.0
C1340 C 0.60429 0.82148 0.14949 0.0
C1341 C 0.62827 0.78269 0.13772 0.0
N1342 N 0.60761 0.83007 0.18035 0.0
N1343 N 0.62902 0.78756 0.15222 0.0
H1344 H 0.74504 0.57625 0.53458 0.0
H1345 H 0.87083 0.63879 0.46764 0.0
H1346 H 0.85148 0.63544 0.53936 0.0
H1347 H 0.76494 0.5735 0.46374 0.0
H1348 H 0.86456 0.63859 0.49387 0.0
H1349 H 0.7521 0.57588 0.50853 0.0
C1350 C 0.76994 0.589 0.53016 0.0
C1351 C 0.79772 0.60578 0.53921 0.0
C1352 C 0.84271 0.62431 0.48726 0.0
C1353 C 0.80598 0.60582 0.50927 0.0
C1354 C 0.84629 0.62426 0.47229 0.0
C1355 C 0.81835 0.60622 0.46345 0.0
C1356 C 0.81096 0.60618 0.49344 0.0
C1357 C 0.78712 0.58822 0.47008 0.0
C1358 C 0.77395 0.58894 0.51526 0.0
C1359 C 0.82933 0.62246 0.5328 0.0
N1360 N 0.78428 0.58868 0.48465 0.0
N1361 N 0.83261 0.62203 0.51823 0.0
H1362 H 0.12673 0.76745 0.86576 0.0
H1363 H 0.2534 0.84568 0.79951 0.0
H1364 H 0.23338 0.82285 0.87048 0.0
H1365 H 0.14711 0.78606 0.79429 0.0
H1366 H 0.24631 0.83848 0.8256 0.0
H1367 H 0.13344 0.77474 0.8396 0.0
C1368 C 0.15156 0.78101 0.8613 0.0
C1369 C 0.17953 0.79457 0.87035 0.0
C1370 C 0.22451 0.82697 0.81876 0.0
C1371 C 0.18738 0.8033 0.84042 0.0
C1372 C 0.22856 0.83093 0.80384 0.0
C1373 C 0.20082 0.81637 0.79467 0.0
C1374 C 0.19247 0.80829 0.8246 0.0
C1375 C 0.16918 0.79805 0.80094 0.0
C1376 C 0.15536 0.78532 0.84637 0.0
C1377 C 0.21108 0.81235 0.86396 0.0
N1378 N 0.16588 0.79448 0.81551 0.0
N1379 N 0.21413 0.81616 0.84941 0.0
H1380 H 0.55228 0.58381 0.01532 0.0
H1381 H 0.42766 0.41974 0.05918 0.0
H1382 H 0.52242 0.58449 0.05935 0.0
H1383 H 0.4728 0.41776 0.01872 0.0
H1384 H 0.45835 0.48033 0.0584 0.0
H1385 H 0.51972 0.52302 0.01542 0.0
C1386 C 0.53892 0.57113 0.02501 0.0
C1387 C 0.54022 0.58917 0.03738 0.0
C1388 C 0.46147 0.46663 0.04967 0.0
C1389 C 0.50279 0.51977 0.03755 0.0
C1390 C 0.44399 0.432 0.05012 0.0
C1391 C 0.44776 0.41352 0.03904 0.0
C1392 C 0.48282 0.48301 0.03804 0.0
C1393 C 0.46879 0.43088 0.02743 0.0
C1394 C 0.5204 0.53648 0.02507 0.0
C1395 C 0.52254 0.57153 0.04967 0.0
N1396 N 0.4856 0.46463 0.02726 0.0
N1397 N 0.50447 0.53784 0.04942 0.0
H1398 H 0.94125 0.52412 0.34528 0.0
H1399 H 0.02447 0.44032 0.39145 0.0
H1400 H 0.95923 0.54029 0.39102 0.0
H1401 H 0.04596 0.46269 0.34623 0.0
H1402 H 0.99196 0.46867 0.39115 0.0
H1403 H 0.97228 0.49412 0.34507 0.0
C1404 C 0.95187 0.52143 0.35524 0.0
C1405 C 0.94796 0.53483 0.36817 0.0
C1406 C 0.00368 0.46722 0.38128 0.0
C1407 C 0.98268 0.50015 0.36806 0.0
C1408 C 0.02192 0.45081 0.38142 0.0
C1409 C 0.03782 0.4492 0.36884 0.0
C1410 C 0.00094 0.48166 0.36842 0.0
C1411 C 0.03414 0.46357 0.35616 0.0
C1412 C 0.96954 0.5044 0.35512 0.0
C1413 C 0.96209 0.53067 0.38081 0.0
N1414 N 0.01597 0.47913 0.35625 0.0
N1415 N 0.97861 0.51345 0.38047 0.0
H1416 H 0.57958 0.07149 0.72102 0.0
H1417 H 0.41475 0.91625 0.68977 0.0
H1418 H 0.58085 0.00115 0.69101 0.0
H1419 H 0.415 0.99404 0.71534 0.0
H1420 H 0.47536 0.9466 0.69009 0.0
H1421 H 0.51913 0.04245 0.7195 0.0
C1422 C 0.5671 0.04973 0.7142 0.0
C1423 C 0.58531 0.03857 0.70622 0.0
C1424 C 0.46215 0.95711 0.69556 0.0
C1425 C 0.51596 0.00541 0.70425 0.0
C1426 C 0.42749 0.93991 0.6953 0.0
C1427 C 0.40962 0.95256 0.70254 0.0
C1428 C 0.47918 0.98714 0.7032 0.0
C1429 C 0.42764 0.98305 0.70977 0.0
C1430 C 0.53257 0.03332 0.71323 0.0
C1431 C 0.56782 0.01068 0.6973 0.0
N1432 N 0.46137 0.9992 0.70996 0.0
N1433 N 0.5341 0.99497 0.6966 0.0
H1434 H 0.57969 0.52013 0.60769 0.0
H1435 H 0.41626 0.48273 0.65145 0.0
H1436 H 0.58237 0.55742 0.65062 0.0
H1437 H 0.41475 0.43473 0.61137 0.0
H1438 H 0.47701 0.51111 0.6513 0.0
H1439 H 0.51913 0.49015 0.60859 0.0
C1440 C 0.56752 0.52227 0.61726 0.0
C1441 C 0.58613 0.54149 0.62907 0.0
C1442 C 0.46338 0.49419 0.64259 0.0
C1443 C 0.51668 0.50678 0.63026 0.0
C1444 C 0.42873 0.47805 0.64266 0.0
C1445 C 0.41042 0.45636 0.6314 0.0
C1446 C 0.47988 0.48884 0.63111 0.0
C1447 C 0.42783 0.45096 0.62034 0.0
C1448 C 0.53292 0.50488 0.61783 0.0
C1449 C 0.56899 0.54276 0.64131 0.0
N1450 N 0.46157 0.46726 0.62043 0.0
N1451 N 0.53522 0.52573 0.64157 0.0
H1452 H 0.00142 0.58529 0.94929 0.0
H1453 H 0.98815 0.41612 0.97691 0.0
H1454 H 0.07906 0.58188 0.97352 0.0
H1455 H 0.92644 0.42014 0.9431 0.0
H1456 H 0.01874 0.47695 0.97778 0.0
H1457 H 0.97055 0.52462 0.94877 0.0
C1458 C 0.01204 0.57188 0.95449 0.0
C1459 C 0.04294 0.58889 0.96148 0.0
C1460 C 0.99857 0.46449 0.97014 0.0
C1461 C 0.00744 0.51934 0.96108 0.0
C1462 C 0.98107 0.42983 0.96968 0.0
C1463 C 0.95487 0.41312 0.95987 0.0
C1464 C 0.98952 0.48254 0.96085 0.0
C1465 C 0.94678 0.43206 0.95069 0.0
C1466 C 0.99432 0.53721 0.95422 0.0
C1467 C 0.0551 0.56999 0.96823 0.0
N1468 N 0.96395 0.46575 0.95144 0.0
N1469 N 0.03732 0.53629 0.96787 0.0
H1470 H 0.52459 0.94024 0.27327 0.0
H1471 H 0.47414 0.05747 0.31642 0.0
H1472 H 0.55627 0.97284 0.31697 0.0
H1473 H 0.43307 0.01305 0.27508 0.0
H1474 H 0.50435 0.02692 0.31706 0.0
H1475 H 0.49211 0.96822 0.27367 0.0
C1476 C 0.525 0.9536 0.28291 0.0
C1477 C 0.54343 0.95442 0.29506 0.0
C1478 C 0.48858 0.02374 0.30789 0.0
C1479 C 0.50572 0.98617 0.29569 0.0
C1480 C 0.4711 0.04098 0.30756 0.0
C1481 C 0.45114 0.03801 0.29563 0.0
C1482 C 0.48619 0.00347 0.29618 0.0
C1483 C 0.4486 0.01662 0.28438 0.0
C1484 C 0.50615 0.96931 0.28319 0.0
C1485 C 0.54232 0.97147 0.30738 0.0
N1486 N 0.46604 0.00035 0.2849 0.0
N1487 N 0.52388 0.98678 0.30737 0.0
loop_
_geom_bond_atom_site_label_1
_geom_bond_atom_site_label_2
_geom_bond_distance
_geom_bond_site_symmetry_2
_ccdc_geom_bond_type
Li0 N17 1.990 . S
Li0 O60 1.956 . S
Li0 O61 1.970 . S
Li0 O62 1.961 . S
Li1 N25 1.990 . S
Li1 O60 1.970 . S
Li1 O61 1.956 . S
Li1 O63 1.961 . S
Li2 N47 1.990 . S
Li2 O60 1.961 . S
Li2 O62 1.956 . S
Li2 O63 1.970 . S
Li3 N53 1.990 . S
Li3 O61 1.961 . S
Li3 O62 1.970 . S
Li3 O63 1.956 . S
C4 C6 1.348 . S
C4 C7 1.356 . S
C4 O60 1.325 . S
N5 C8 1.314 . S
N5 C9 1.279 . S
C6 C4 1.348 . S
C6 C8 1.353 . S
C6 H64 0.929 . S
C7 C4 1.356 . S
C7 C9 1.358 . S
C7 H65 0.930 . S
C8 N5 1.314 . S
C8 C6 1.353 . S
C8 H66 0.930 . S
C9 N5 1.279 . S
C9 C7 1.358 . S
C9 H67 0.930 . S
C10 C13 1.348 . S
C10 C14 1.356 . S
C10 O61 1.325 . S
C11 N12 1.279 . S
C11 C14 1.358 . S
C11 H68 0.930 . S
N12 C11 1.279 . S
N12 C15 1.314 . S
C13 C10 1.348 . S
C13 C15 1.353 . S
C13 H69 0.929 . S
C14 C10 1.356 . S
C14 C11 1.358 . S
C14 H70 0.930 . S
C15 N12 1.314 . S
C15 C13 1.353 . S
C15 H71 0.930 . S
C16 N17 1.314 . S
C16 C21 1.353 . S
C16 H22 0.930 . S
N17 Li0 1.990 . S
N17 C16 1.314 . S
N17 C19 1.279 . S
C18 C19 1.358 . S
C18 C20 1.356 . S
C18 H72 0.930 . S
C19 N17 1.279 . S
C19 C18 1.358 . S
C19 H23 0.930 . S
C20 C18 1.356 . S
C20 C21 1.348 . S
C21 C16 1.353 . S
C21 C20 1.348 . S
C21 H73 0.929 . S
H22 C16 0.930 . S
H23 C19 0.930 . S
C24 N25 1.314 . S
C24 C26 1.353 . S
C24 H30 0.930 . S
N25 Li1 1.990 . S
N25 C24 1.314 . S
N25 C28 1.279 . S
C26 C24 1.353 . S
C26 C29 1.348 . S
C26 H74 0.929 1_554 S
C27 C28 1.358 . S
C27 C29 1.356 . S
C27 H75 0.930 . S
C28 N25 1.279 . S
C28 C27 1.358 . S
C28 H31 0.930 . S
C29 C26 1.348 . S
C29 C27 1.356 . S
H30 C24 0.930 . S
H31 C28 0.930 . S
C32 C34 1.348 . S
C32 C35 1.356 . S
C32 O62 1.325 . S
N33 C36 1.314 . S
N33 C37 1.279 . S
C34 C32 1.348 . S
C34 C36 1.353 . S
C34 H76 0.929 . S
C35 C32 1.356 . S
C35 C37 1.358 . S
C35 H77 0.930 . S
C36 N33 1.314 . S
C36 C34 1.353 . S
C36 H78 0.930 . S
C37 N33 1.279 . S
C37 C35 1.358 . S
C37 H79 0.930 . S
C38 C39 1.348 . S
C38 C40 1.356 . S
C38 O63 1.325 . S
C39 C38 1.348 . S
C39 C41 1.353 1_554 S
C39 H80 0.929 . S
C40 C38 1.356 . S
C40 C42 1.358 1_554 S
C40 H81 0.930 . S
C41 C39 1.353 1_556 S
C41 N43 1.314 . S
C41 H82 0.930 . S
C42 C40 1.358 1_556 S
C42 N43 1.279 . S
C42 H83 0.930 . S
N43 C41 1.314 . S
N43 C42 1.279 . S
C44 C46 1.353 . S
C44 N47 1.314 . S
C44 H50 0.930 . S
C45 N47 1.279 . S
C45 C48 1.358 . S
C45 H51 0.930 . S
C46 C44 1.353 . S
C46 C49 1.348 . S
C46 H84 0.929 . S
N47 Li2 1.990 . S
N47 C44 1.314 . S
N47 C45 1.279 . S
C48 C45 1.358 . S
C48 C49 1.356 . S
C48 H85 0.930 . S
C49 C46 1.348 . S
C49 C48 1.356 . S
H50 C44 0.930 . S
H51 C45 0.930 . S
C52 N53 1.314 . S
C52 C54 1.353 . S
C52 H58 0.930 . S
N53 Li3 1.990 . S
N53 C52 1.314 . S
N53 C56 1.279 . S
C54 C52 1.353 . S
C54 C57 1.348 . S
C54 H86 0.929 . S
C55 C56 1.358 . S
C55 C57 1.356 . S
C55 H87 0.930 . S
C56 N53 1.279 . S
C56 C55 1.358 . S
C56 H59 0.930 . S
C57 C54 1.348 . S
C57 C55 1.356 . S
H58 C52 0.930 . S
H59 C56 0.930 . S
O60 Li0 1.956 . S
O60 Li1 1.970 . S
O60 Li2 1.961 . S
O60 C4 1.325 . S
O61 Li0 1.970 . S
O61 Li1 1.956 . S
O61 Li3 1.961 . S
O61 C10 1.325 . S
O62 Li0 1.961 . S
O62 Li2 1.956 . S
O62 Li3 1.970 . S
O62 C32 1.325 . S
O63 Li1 1.961 . S
O63 Li2 1.970 . S
O63 Li3 1.956 . S
O63 C38 1.325 . S
H64 C6 0.929 . S
H65 C7 0.930 . S
H66 C8 0.930 . S
H67 C9 0.930 . S
H68 C11 0.930 . S
H69 C13 0.929 . S
H70 C14 0.930 . S
H71 C15 0.930 . S
H72 C18 0.930 . S
H73 C21 0.929 . S
H74 C26 0.929 1_556 S
H75 C27 0.930 . S
H76 C34 0.929 . S
H77 C35 0.930 . S
H78 C36 0.930 . S
H79 C37 0.930 . S
H80 C39 0.929 . S
H81 C40 0.930 . S
H82 C41 0.930 . S
H83 C42 0.930 . S
H84 C46 0.929 . S
H85 C48 0.930 . S
H86 C54 0.929 . S
H87 C55 0.930 . S
Li88 N105 1.990 . S
Li88 O148 1.956 . S
Li88 O149 1.970 . S
Li88 O150 1.961 . S
Li89 N113 1.990 . S
Li89 O148 1.970 . S
Li89 O149 1.956 . S
Li89 O151 1.961 . S
Li90 N135 1.990 . S
Li90 O148 1.961 . S
Li90 O150 1.956 . S
Li90 O151 1.970 . S
Li91 N141 1.990 . S
Li91 O149 1.961 . S
Li91 O150 1.970 . S
Li91 O151 1.956 . S
C92 C94 1.348 . S
C92 C95 1.356 . S
C92 O148 1.325 . S
N93 C96 1.314 . S
N93 C97 1.279 . S
C94 C92 1.348 . S
C94 C96 1.353 . S
C94 H152 0.929 . S
C95 C92 1.356 . S
C95 C97 1.358 . S
C95 H153 0.930 . S
C96 N93 1.314 . S
C96 C94 1.353 . S
C96 H154 0.930 . S
C97 N93 1.279 . S
C97 C95 1.358 . S
C97 H155 0.930 . S
C98 C101 1.348 . S
C98 C102 1.356 . S
C98 O149 1.325 . S
C99 N100 1.279 . S
C99 C102 1.358 . S
C99 H156 0.930 . S
N100 C99 1.279 . S
N100 C103 1.314 . S
C101 C98 1.348 . S
C101 C103 1.353 . S
C101 H157 0.929 . S
C102 C98 1.356 . S
C102 C99 1.358 . S
C102 H158 0.930 . S
C103 N100 1.314 . S
C103 C101 1.353 . S
C103 H159 0.930 . S
C104 N105 1.314 . S
C104 C109 1.353 . S
C104 H110 0.930 . S
N105 Li88 1.990 . S
N105 C104 1.314 . S
N105 C107 1.279 . S
C106 C107 1.358 . S
C106 C108 1.356 . S
C106 H160 0.930 . S
C107 N105 1.279 . S
C107 C106 1.358 . S
C107 H111 0.930 . S
C108 C106 1.356 . S
C108 C109 1.348 . S
C109 C104 1.353 . S
C109 C108 1.348 . S
C109 H161 0.929 . S
H110 C104 0.930 . S
H111 C107 0.930 . S
C112 N113 1.314 . S
C112 C114 1.353 . S
C112 H118 0.930 . S
N113 Li89 1.990 . S
N113 C112 1.314 . S
N113 C116 1.279 . S
C114 C112 1.353 . S
C114 C117 1.348 . S
C114 H162 0.929 . S
C115 C116 1.358 . S
C115 C117 1.356 . S
C115 H163 0.930 . S
C116 N113 1.279 . S
C116 C115 1.358 . S
C116 H119 0.930 . S
C117 C114 1.348 . S
C117 C115 1.356 . S
H118 C112 0.930 . S
H119 C116 0.930 . S
C120 C122 1.348 . S
C120 C123 1.356 . S
C120 O150 1.325 . S
N121 C124 1.314 . S
N121 C125 1.279 . S
C122 C120 1.348 . S
C122 C124 1.353 . S
C122 H164 0.929 . S
C123 C120 1.356 . S
C123 C125 1.358 . S
C123 H165 0.930 . S
C124 N121 1.314 . S
C124 C122 1.353 . S
C124 H166 0.930 . S
C125 N121 1.279 . S
C125 C123 1.358 . S
C125 H167 0.930 . S
C126 C127 1.348 . S
C126 C128 1.356 . S
C126 O151 1.325 . S
C127 C126 1.348 . S
C127 C129 1.353 . S
C127 H168 0.929 . S
C128 C126 1.356 . S
C128 C130 1.358 . S
C128 H169 0.930 . S
C129 C127 1.353 . S
C129 N131 1.314 . S
C129 H170 0.930 . S
C130 C128 1.358 . S
C130 N131 1.279 . S
C130 H171 0.930 . S
N131 C129 1.314 . S
N131 C130 1.279 . S
C132 C134 1.353 . S
C132 N135 1.314 . S
C132 H138 0.930 . S
C133 N135 1.279 . S
C133 C136 1.358 . S
C133 H139 0.930 . S
C134 C132 1.353 . S
C134 C137 1.348 . S
C134 H172 0.929 . S
N135 Li90 1.990 . S
N135 C132 1.314 . S
N135 C133 1.279 . S
C136 C133 1.358 . S
C136 C137 1.356 . S
C136 H173 0.930 . S
C137 C134 1.348 . S
C137 C136 1.356 . S
H138 C132 0.930 . S
H139 C133 0.930 . S
C140 N141 1.314 . S
C140 C142 1.353 . S
C140 H146 0.930 . S
N141 Li91 1.990 . S
N141 C140 1.314 . S
N141 C144 1.279 . S
C142 C140 1.353 . S
C142 C145 1.348 . S
C142 H174 0.929 . S
C143 C144 1.358 . S
C143 C145 1.356 . S
C143 H175 0.930 . S
C144 N141 1.279 . S
C144 C143 1.358 . S
C144 H147 0.930 . S
C145 C142 1.348 . S
C145 C143 1.356 . S
H146 C140 0.930 . S
H147 C144 0.930 . S
O148 Li88 1.956 . S
O148 Li89 1.970 . S
O148 Li90 1.961 . S
O148 C92 1.325 . S
O149 Li88 1.970 . S
O149 Li89 1.956 . S
O149 Li91 1.961 . S
O149 C98 1.325 . S
O150 Li88 1.961 . S
O150 Li90 1.956 . S
O150 Li91 1.970 . S
O150 C120 1.325 . S
O151 Li89 1.961 . S
O151 Li90 1.970 . S
O151 Li91 1.956 . S
O151 C126 1.325 . S
H152 C94 0.929 . S
H153 C95 0.930 . S
H154 C96 0.930 . S
H155 C97 0.930 . S
H156 C99 0.930 . S
H157 C101 0.929 . S
H158 C102 0.930 . S
H159 C103 0.930 . S
H160 C106 0.930 . S
H161 C109 0.929 . S
H162 C114 0.929 . S
H163 C115 0.930 . S
H164 C122 0.929 . S
H165 C123 0.930 . S
H166 C124 0.930 . S
H167 C125 0.930 . S
H168 C127 0.929 . S
H169 C128 0.930 . S
H170 C129 0.930 . S
H171 C130 0.930 . S
H172 C134 0.929 . S
H173 C136 0.930 . S
H174 C142 0.929 . S
H175 C143 0.930 . S
Li176 N193 1.990 . S
Li176 O236 1.956 . S
Li176 O237 1.970 . S
Li176 O238 1.961 . S
Li177 N201 1.990 . S
Li177 O236 1.970 . S
Li177 O237 1.956 . S
Li177 O239 1.961 . S
Li178 N223 1.990 . S
Li178 O236 1.961 . S
Li178 O238 1.956 . S
Li178 O239 1.970 . S
Li179 N229 1.990 . S
Li179 O237 1.961 . S
Li179 O238 1.970 . S
Li179 O239 1.956 . S
C180 C182 1.348 . S
C180 C183 1.356 . S
C180 O236 1.325 . S
N181 C184 1.314 . S
N181 C185 1.279 . S
C182 C180 1.348 . S
C182 C184 1.353 . S
C182 H240 0.929 . S
C183 C180 1.356 . S
C183 C185 1.358 . S
C183 H241 0.930 . S
C184 N181 1.314 . S
C184 C182 1.353 . S
C184 H242 0.930 . S
C185 N181 1.279 . S
C185 C183 1.358 . S
C185 H243 0.930 . S
C186 C189 1.348 . S
C186 C190 1.356 . S
C186 O237 1.325 . S
C187 N188 1.279 . S
C187 C190 1.358 . S
C187 H244 0.930 . S
N188 C187 1.279 . S
N188 C191 1.314 . S
C189 C186 1.348 . S
C189 C191 1.353 . S
C189 H245 0.929 . S
C190 C186 1.356 . S
C190 C187 1.358 . S
C190 H246 0.930 . S
C191 N188 1.314 . S
C191 C189 1.353 . S
C191 H247 0.930 . S
C192 N193 1.314 . S
C192 C197 1.353 . S
C192 H198 0.930 . S
N193 Li176 1.990 . S
N193 C192 1.314 . S
N193 C195 1.279 . S
C194 C195 1.358 . S
C194 C196 1.356 . S
C194 H248 0.930 . S
C195 N193 1.279 . S
C195 C194 1.358 . S
C195 H199 0.930 . S
C196 C194 1.356 . S
C196 C197 1.348 . S
C197 C192 1.353 . S
C197 C196 1.348 . S
C197 H249 0.929 . S
H198 C192 0.930 . S
H199 C195 0.930 . S
C200 N201 1.314 . S
C200 C202 1.353 . S
C200 H206 0.930 . S
N201 Li177 1.990 . S
N201 C200 1.314 . S
N201 C204 1.279 . S
C202 C200 1.353 . S
C202 C205 1.348 . S
C202 H250 0.929 . S
C203 C204 1.358 . S
C203 C205 1.356 . S
C203 H251 0.930 . S
C204 N201 1.279 . S
C204 C203 1.358 . S
C204 H207 0.930 . S
C205 C202 1.348 . S
C205 C203 1.356 . S
H206 C200 0.930 . S
H207 C204 0.930 . S
C208 C210 1.348 . S
C208 C211 1.356 . S
C208 O238 1.325 . S
N209 C212 1.314 . S
N209 C213 1.279 . S
C210 C208 1.348 . S
C210 C212 1.353 . S
C210 H252 0.929 . S
C211 C208 1.356 . S
C211 C213 1.358 . S
C211 H253 0.930 . S
C212 N209 1.314 . S
C212 C210 1.353 . S
C212 H254 0.930 . S
C213 N209 1.279 . S
C213 C211 1.358 . S
C213 H255 0.930 . S
C214 C215 1.348 . S
C214 C216 1.356 . S
C214 O239 1.325 . S
C215 C214 1.348 . S
C215 C217 1.353 . S
C215 H256 0.929 . S
C216 C214 1.356 . S
C216 C218 1.358 . S
C216 H257 0.930 . S
C217 C215 1.353 . S
C217 N219 1.314 . S
C217 H258 0.930 . S
C218 C216 1.358 . S
C218 N219 1.279 . S
C218 H259 0.930 . S
N219 C217 1.314 . S
N219 C218 1.279 . S
C220 C222 1.353 . S
C220 N223 1.314 . S
C220 H226 0.930 . S
C221 N223 1.279 . S
C221 C224 1.358 . S
C221 H227 0.930 . S
C222 C220 1.353 . S
C222 C225 1.348 . S
C222 H260 0.929 . S
N223 Li178 1.990 . S
N223 C220 1.314 . S
N223 C221 1.279 . S
C224 C221 1.358 . S
C224 C225 1.356 . S
C224 H261 0.930 . S
C225 C222 1.348 . S
C225 C224 1.356 . S
H226 C220 0.930 . S
H227 C221 0.930 . S
C228 N229 1.314 . S
C228 C230 1.353 . S
C228 H234 0.930 . S
N229 Li179 1.990 . S
N229 C228 1.314 . S
N229 C232 1.279 . S
C230 C228 1.353 . S
C230 C233 1.348 . S
C230 H262 0.929 . S
C231 C232 1.358 . S
C231 C233 1.356 . S
C231 H263 0.930 . S
C232 N229 1.279 . S
C232 C231 1.358 . S
C232 H235 0.930 . S
C233 C230 1.348 . S
C233 C231 1.356 . S
H234 C228 0.930 . S
H235 C232 0.930 . S
O236 Li176 1.956 . S
O236 Li177 1.970 . S
O236 Li178 1.961 . S
O236 C180 1.325 . S
O237 Li176 1.970 . S
O237 Li177 1.956 . S
O237 Li179 1.961 . S
O237 C186 1.325 . S
O238 Li176 1.961 . S
O238 Li178 1.956 . S
O238 Li179 1.970 . S
O238 C208 1.325 . S
O239 Li177 1.961 . S
O239 Li178 1.970 . S
O239 Li179 1.956 . S
O239 C214 1.325 . S
H240 C182 0.929 . S
H241 C183 0.930 . S
H242 C184 0.930 . S
H243 C185 0.930 . S
H244 C187 0.930 . S
H245 C189 0.929 . S
H246 C190 0.930 . S
H247 C191 0.930 . S
H248 C194 0.930 . S
H249 C197 0.929 . S
H250 C202 0.929 . S
H251 C203 0.930 . S
H252 C210 0.929 . S
H253 C211 0.930 . S
H254 C212 0.930 . S
H255 C213 0.930 . S
H256 C215 0.929 . S
H257 C216 0.930 . S
H258 C217 0.930 . S
H259 C218 0.930 . S
H260 C222 0.929 . S
H261 C224 0.930 . S
H262 C230 0.929 . S
H263 C231 0.930 . S
Li264 N281 1.990 . S
Li264 O324 1.956 . S
Li264 O325 1.970 . S
Li264 O326 1.961 . S
Li265 N289 1.990 . S
Li265 O324 1.970 . S
Li265 O325 1.956 . S
Li265 O327 1.961 . S
Li266 N311 1.990 . S
Li266 O324 1.961 . S
Li266 O326 1.956 . S
Li266 O327 1.970 . S
Li267 N317 1.990 . S
Li267 O325 1.961 . S
Li267 O326 1.970 . S
Li267 O327 1.956 . S
C268 C270 1.348 . S
C268 C271 1.356 . S
C268 O324 1.325 . S
N269 C272 1.314 . S
N269 C273 1.279 . S
C270 C268 1.348 . S
C270 C272 1.353 . S
C270 H328 0.929 . S
C271 C268 1.356 . S
C271 C273 1.358 . S
C271 H329 0.930 . S
C272 N269 1.314 . S
C272 C270 1.353 . S
C272 H330 0.930 . S
C273 N269 1.279 . S
C273 C271 1.358 . S
C273 H331 0.930 . S
C274 C277 1.348 . S
C274 C278 1.356 . S
C274 O325 1.325 . S
C275 N276 1.279 . S
C275 C278 1.358 . S
C275 H332 0.930 . S
N276 C275 1.279 . S
N276 C279 1.314 . S
C277 C274 1.348 . S
C277 C279 1.353 . S
C277 H333 0.929 . S
C278 C274 1.356 . S
C278 C275 1.358 . S
C278 H334 0.930 . S
C279 N276 1.314 . S
C279 C277 1.353 . S
C279 H335 0.930 . S
C280 N281 1.314 . S
C280 C285 1.353 . S
C280 H286 0.930 . S
N281 Li264 1.990 . S
N281 C280 1.314 . S
N281 C283 1.279 . S
C282 C283 1.358 . S
C282 C284 1.356 . S
C282 H336 0.930 . S
C283 N281 1.279 . S
C283 C282 1.358 . S
C283 H287 0.930 . S
C284 C282 1.356 . S
C284 C285 1.348 . S
C285 C280 1.353 . S
C285 C284 1.348 . S
C285 H337 0.929 1_554 S
H286 C280 0.930 . S
H287 C283 0.930 . S
C288 N289 1.314 . S
C288 C290 1.353 . S
C288 H294 0.930 . S
N289 Li265 1.990 . S
N289 C288 1.314 . S
N289 C292 1.279 . S
C290 C288 1.353 . S
C290 C293 1.348 . S
C290 H338 0.929 . S
C291 C292 1.358 . S
C291 C293 1.356 . S
C291 H339 0.930 . S
C292 N289 1.279 . S
C292 C291 1.358 . S
C292 H295 0.930 . S
C293 C290 1.348 . S
C293 C291 1.356 . S
H294 C288 0.930 . S
H295 C292 0.930 . S
C296 C298 1.348 . S
C296 C299 1.356 . S
C296 O326 1.325 . S
N297 C300 1.314 . S
N297 C301 1.279 . S
C298 C296 1.348 . S
C298 C300 1.353 1_554 S
C298 H340 0.929 . S
C299 C296 1.356 . S
C299 C301 1.358 1_554 S
C299 H341 0.930 . S
C300 N297 1.314 . S
C300 C298 1.353 1_556 S
C300 H342 0.930 . S
C301 N297 1.279 . S
C301 C299 1.358 1_556 S
C301 H343 0.930 . S
C302 C303 1.348 . S
C302 C304 1.356 . S
C302 O327 1.325 . S
C303 C302 1.348 . S
C303 C305 1.353 . S
C303 H344 0.929 . S
C304 C302 1.356 . S
C304 C306 1.358 . S
C304 H345 0.930 . S
C305 C303 1.353 . S
C305 N307 1.314 . S
C305 H346 0.930 . S
C306 C304 1.358 . S
C306 N307 1.279 . S
C306 H347 0.930 . S
N307 C305 1.314 . S
N307 C306 1.279 . S
C308 C310 1.353 . S
C308 N311 1.314 . S
C308 H314 0.930 . S
C309 N311 1.279 . S
C309 C312 1.358 . S
C309 H315 0.930 . S
C310 C308 1.353 . S
C310 C313 1.348 . S
C310 H348 0.929 . S
N311 Li266 1.990 . S
N311 C308 1.314 . S
N311 C309 1.279 . S
C312 C309 1.358 . S
C312 C313 1.356 . S
C312 H349 0.930 . S
C313 C310 1.348 . S
C313 C312 1.356 . S
H314 C308 0.930 . S
H315 C309 0.930 . S
C316 N317 1.314 . S
C316 C318 1.353 . S
C316 H322 0.930 . S
N317 Li267 1.990 . S
N317 C316 1.314 . S
N317 C320 1.279 . S
C318 C316 1.353 . S
C318 C321 1.348 . S
C318 H350 0.929 . S
C319 C320 1.358 . S
C319 C321 1.356 . S
C319 H351 0.930 . S
C320 N317 1.279 . S
C320 C319 1.358 . S
C320 H323 0.930 . S
C321 C318 1.348 . S
C321 C319 1.356 . S
H322 C316 0.930 . S
H323 C320 0.930 . S
O324 Li264 1.956 . S
O324 Li265 1.970 . S
O324 Li266 1.961 . S
O324 C268 1.325 . S
O325 Li264 1.970 . S
O325 Li265 1.956 . S
O325 Li267 1.961 . S
O325 C274 1.325 . S
O326 Li264 1.961 . S
O326 Li266 1.956 . S
O326 Li267 1.970 . S
O326 C296 1.325 . S
O327 Li265 1.961 . S
O327 Li266 1.970 . S
O327 Li267 1.956 . S
O327 C302 1.325 . S
H328 C270 0.929 . S
H329 C271 0.930 . S
H330 C272 0.930 . S
H331 C273 0.930 . S
H332 C275 0.930 . S
H333 C277 0.929 . S
H334 C278 0.930 . S
H335 C279 0.930 . S
H336 C282 0.930 . S
H337 C285 0.929 1_556 S
H338 C290 0.929 . S
H339 C291 0.930 . S
H340 C298 0.929 . S
H341 C299 0.930 . S
H342 C300 0.930 . S
H343 C301 0.930 . S
H344 C303 0.929 . S
H345 C304 0.930 . S
H346 C305 0.930 . S
H347 C306 0.930 . S
H348 C310 0.929 . S
H349 C312 0.930 . S
H350 C318 0.929 . S
H351 C319 0.930 . S
Li352 N369 1.990 . S
Li352 O412 1.956 . S
Li352 O413 1.970 . S
Li352 O414 1.961 . S
Li353 N377 1.990 . S
Li353 O412 1.970 . S
Li353 O413 1.956 . S
Li353 O415 1.961 . S
Li354 N399 1.990 . S
Li354 O412 1.961 . S
Li354 O414 1.956 . S
Li354 O415 1.970 . S
Li355 N405 1.990 . S
Li355 O413 1.961 . S
Li355 O414 1.970 . S
Li355 O415 1.956 . S
C356 C358 1.348 . S
C356 C359 1.356 . S
C356 O412 1.325 . S
N357 C360 1.314 . S
N357 C361 1.279 . S
C358 C356 1.348 . S
C358 C360 1.353 . S
C358 H416 0.929 . S
C359 C356 1.356 . S
C359 C361 1.358 . S
C359 H417 0.930 . S
C360 N357 1.314 . S
C360 C358 1.353 . S
C360 H418 0.930 . S
C361 N357 1.279 . S
C361 C359 1.358 . S
C361 H419 0.930 . S
C362 C365 1.348 . S
C362 C366 1.356 . S
C362 O413 1.325 . S
C363 N364 1.279 . S
C363 C366 1.358 . S
C363 H420 0.930 . S
N364 C363 1.279 . S
N364 C367 1.314 . S
C365 C362 1.348 . S
C365 C367 1.353 . S
C365 H421 0.929 . S
C366 C362 1.356 . S
C366 C363 1.358 . S
C366 H422 0.930 . S
C367 N364 1.314 . S
C367 C365 1.353 . S
C367 H423 0.930 . S
C368 N369 1.314 . S
C368 C373 1.353 . S
C368 H374 0.930 . S
N369 Li352 1.990 . S
N369 C368 1.314 . S
N369 C371 1.279 . S
C370 C371 1.358 . S
C370 C372 1.356 . S
C370 H424 0.930 . S
C371 N369 1.279 . S
C371 C370 1.358 . S
C371 H375 0.930 . S
C372 C370 1.356 . S
C372 C373 1.348 . S
C373 C368 1.353 . S
C373 C372 1.348 . S
C373 H425 0.929 . S
H374 C368 0.930 . S
H375 C371 0.930 . S
C376 N377 1.314 . S
C376 C378 1.353 . S
C376 H382 0.930 . S
N377 Li353 1.990 . S
N377 C376 1.314 . S
N377 C380 1.279 . S
C378 C376 1.353 . S
C378 C381 1.348 . S
C378 H426 0.929 . S
C379 C380 1.358 . S
C379 C381 1.356 . S
C379 H427 0.930 . S
C380 N377 1.279 . S
C380 C379 1.358 . S
C380 H383 0.930 . S
C381 C378 1.348 . S
C381 C379 1.356 . S
H382 C376 0.930 . S
H383 C380 0.930 . S
C384 C386 1.348 . S
C384 C387 1.356 . S
C384 O414 1.325 . S
N385 C388 1.314 . S
N385 C389 1.279 . S
C386 C384 1.348 . S
C386 C388 1.353 . S
C386 H428 0.929 . S
C387 C384 1.356 . S
C387 C389 1.358 . S
C387 H429 0.930 . S
C388 N385 1.314 . S
C388 C386 1.353 . S
C388 H430 0.930 . S
C389 N385 1.279 . S
C389 C387 1.358 . S
C389 H431 0.930 . S
C390 C391 1.348 . S
C390 C392 1.356 . S
C390 O415 1.325 . S
C391 C390 1.348 . S
C391 C393 1.353 . S
C391 H432 0.929 . S
C392 C390 1.356 . S
C392 C394 1.358 . S
C392 H433 0.930 . S
C393 C391 1.353 . S
C393 N395 1.314 . S
C393 H434 0.930 . S
C394 C392 1.358 . S
C394 N395 1.279 . S
C394 H435 0.930 . S
N395 C393 1.314 . S
N395 C394 1.279 . S
C396 C398 1.353 . S
C396 N399 1.314 . S
C396 H402 0.930 . S
C397 N399 1.279 . S
C397 C400 1.358 . S
C397 H403 0.930 . S
C398 C396 1.353 . S
C398 C401 1.348 . S
C398 H436 0.929 . S
N399 Li354 1.990 . S
N399 C396 1.314 . S
N399 C397 1.279 . S
C400 C397 1.358 . S
C400 C401 1.356 . S
C400 H437 0.930 . S
C401 C398 1.348 . S
C401 C400 1.356 . S
H402 C396 0.930 . S
H403 C397 0.930 . S
C404 N405 1.314 . S
C404 C406 1.353 . S
C404 H410 0.930 . S
N405 Li355 1.990 . S
N405 C404 1.314 . S
N405 C408 1.279 . S
C406 C404 1.353 . S
C406 C409 1.348 . S
C406 H438 0.929 . S
C407 C408 1.358 . S
C407 C409 1.356 . S
C407 H439 0.930 . S
C408 N405 1.279 . S
C408 C407 1.358 . S
C408 H411 0.930 . S
C409 C406 1.348 . S
C409 C407 1.356 . S
H410 C404 0.930 . S
H411 C408 0.930 . S
O412 Li352 1.956 . S
O412 Li353 1.970 . S
O412 Li354 1.961 . S
O412 C356 1.325 . S
O413 Li352 1.970 . S
O413 Li353 1.956 . S
O413 Li355 1.961 . S
O413 C362 1.325 . S
O414 Li352 1.961 . S
O414 Li354 1.956 . S
O414 Li355 1.970 . S
O414 C384 1.325 . S
O415 Li353 1.961 . S
O415 Li354 1.970 . S
O415 Li355 1.956 . S
O415 C390 1.325 . S
H416 C358 0.929 . S
H417 C359 0.930 . S
H418 C360 0.930 . S
H419 C361 0.930 . S
H420 C363 0.930 . S
H421 C365 0.929 . S
H422 C366 0.930 . S
H423 C367 0.930 . S
H424 C370 0.930 . S
H425 C373 0.929 . S
H426 C378 0.929 . S
H427 C379 0.930 . S
H428 C386 0.929 . S
H429 C387 0.930 . S
H430 C388 0.930 . S
H431 C389 0.930 . S
H432 C391 0.929 . S
H433 C392 0.930 . S
H434 C393 0.930 . S
H435 C394 0.930 . S
H436 C398 0.929 . S
H437 C400 0.930 . S
H438 C406 0.929 . S
H439 C407 0.930 . S
Li440 N457 1.990 . S
Li440 O500 1.956 . S
Li440 O501 1.970 . S
Li440 O502 1.961 . S
Li441 N465 1.990 . S
Li441 O500 1.970 . S
Li441 O501 1.956 . S
Li441 O503 1.961 . S
Li442 N487 1.990 . S
Li442 O500 1.961 . S
Li442 O502 1.956 . S
Li442 O503 1.970 . S
Li443 N493 1.990 . S
Li443 O501 1.961 . S
Li443 O502 1.970 . S
Li443 O503 1.956 . S
C444 C446 1.348 . S
C444 C447 1.356 . S
C444 O500 1.325 . S
N445 C448 1.314 . S
N445 C449 1.279 . S
C446 C444 1.348 . S
C446 C448 1.353 . S
C446 H504 0.929 . S
C447 C444 1.356 . S
C447 C449 1.358 . S
C447 H505 0.930 . S
C448 N445 1.314 . S
C448 C446 1.353 . S
C448 H506 0.930 . S
C449 N445 1.279 . S
C449 C447 1.358 . S
C449 H507 0.930 . S
C450 C453 1.348 . S
C450 C454 1.356 . S
C450 O501 1.325 . S
C451 N452 1.279 . S
C451 C454 1.358 . S
C451 H508 0.930 . S
N452 C451 1.279 . S
N452 C455 1.314 . S
C453 C450 1.348 . S
C453 C455 1.353 . S
C453 H509 0.929 . S
C454 C450 1.356 . S
C454 C451 1.358 . S
C454 H510 0.930 . S
C455 N452 1.314 . S
C455 C453 1.353 . S
C455 H511 0.930 . S
C456 N457 1.314 . S
C456 C461 1.353 . S
C456 H462 0.930 . S
N457 Li440 1.990 . S
N457 C456 1.314 . S
N457 C459 1.279 . S
C458 C459 1.358 . S
C458 C460 1.356 . S
C458 H512 0.930 . S
C459 N457 1.279 . S
C459 C458 1.358 . S
C459 H463 0.930 . S
C460 C458 1.356 . S
C460 C461 1.348 . S
C461 C456 1.353 . S
C461 C460 1.348 . S
C461 H513 0.929 . S
H462 C456 0.930 . S
H463 C459 0.930 . S
C464 N465 1.314 . S
C464 C466 1.353 . S
C464 H470 0.930 . S
N465 Li441 1.990 . S
N465 C464 1.314 . S
N465 C468 1.279 . S
C466 C464 1.353 . S
C466 C469 1.348 . S
C466 H514 0.929 . S
C467 C468 1.358 . S
C467 C469 1.356 . S
C467 H515 0.930 . S
C468 N465 1.279 . S
C468 C467 1.358 . S
C468 H471 0.930 . S
C469 C466 1.348 . S
C469 C467 1.356 . S
H470 C464 0.930 . S
H471 C468 0.930 . S
C472 C474 1.348 . S
C472 C475 1.356 . S
C472 O502 1.325 . S
N473 C476 1.314 . S
N473 C477 1.279 . S
C474 C472 1.348 . S
C474 C476 1.353 . S
C474 H516 0.929 . S
C475 C472 1.356 . S
C475 C477 1.358 . S
C475 H517 0.930 . S
C476 N473 1.314 . S
C476 C474 1.353 . S
C476 H518 0.930 . S
C477 N473 1.279 . S
C477 C475 1.358 . S
C477 H519 0.930 . S
C478 C479 1.348 . S
C478 C480 1.356 . S
C478 O503 1.325 . S
C479 C478 1.348 . S
C479 C481 1.353 . S
C479 H520 0.929 . S
C480 C478 1.356 . S
C480 C482 1.358 . S
C480 H521 0.930 . S
C481 C479 1.353 . S
C481 N483 1.314 . S
C481 H522 0.930 . S
C482 C480 1.358 . S
C482 N483 1.279 . S
C482 H523 0.930 . S
N483 C481 1.314 . S
N483 C482 1.279 . S
C484 C486 1.353 . S
C484 N487 1.314 . S
C484 H490 0.930 . S
C485 N487 1.279 . S
C485 C488 1.358 . S
C485 H491 0.930 . S
C486 C484 1.353 . S
C486 C489 1.348 . S
C486 H524 0.929 . S
N487 Li442 1.990 . S
N487 C484 1.314 . S
N487 C485 1.279 . S
C488 C485 1.358 . S
C488 C489 1.356 . S
C488 H525 0.930 . S
C489 C486 1.348 . S
C489 C488 1.356 . S
H490 C484 0.930 . S
H491 C485 0.930 . S
C492 N493 1.314 . S
C492 C494 1.353 . S
C492 H498 0.930 . S
N493 Li443 1.990 . S
N493 C492 1.314 . S
N493 C496 1.279 . S
C494 C492 1.353 . S
C494 C497 1.348 . S
C494 H526 0.929 . S
C495 C496 1.358 . S
C495 C497 1.356 . S
C495 H527 0.930 . S
C496 N493 1.279 . S
C496 C495 1.358 . S
C496 H499 0.930 . S
C497 C494 1.348 . S
C497 C495 1.356 . S
H498 C492 0.930 . S
H499 C496 0.930 . S
O500 Li440 1.956 . S
O500 Li441 1.970 . S
O500 Li442 1.961 . S
O500 C444 1.325 . S
O501 Li440 1.970 . S
O501 Li441 1.956 . S
O501 Li443 1.961 . S
O501 C450 1.325 . S
O502 Li440 1.961 . S
O502 Li442 1.956 . S
O502 Li443 1.970 . S
O502 C472 1.325 . S
O503 Li441 1.961 . S
O503 Li442 1.970 . S
O503 Li443 1.956 . S
O503 C478 1.325 . S
H504 C446 0.929 . S
H505 C447 0.930 . S
H506 C448 0.930 . S
H507 C449 0.930 . S
H508 C451 0.930 . S
H509 C453 0.929 . S
H510 C454 0.930 . S
H511 C455 0.930 . S
H512 C458 0.930 . S
H513 C461 0.929 . S
H514 C466 0.929 . S
H515 C467 0.930 . S
H516 C474 0.929 . S
H517 C475 0.930 . S
H518 C476 0.930 . S
H519 C477 0.930 . S
H520 C479 0.929 . S
H521 C480 0.930 . S
H522 C481 0.930 . S
H523 C482 0.930 . S
H524 C486 0.929 . S
H525 C488 0.930 . S
H526 C494 0.929 . S
H527 C495 0.930 . S
Li528 N545 1.990 . S
Li528 O588 1.956 . S
Li528 O589 1.970 . S
Li528 O590 1.961 . S
Li529 N553 1.990 . S
Li529 O588 1.970 . S
Li529 O589 1.956 . S
Li529 O591 1.961 . S
Li530 N575 1.990 . S
Li530 O588 1.961 . S
Li530 O590 1.956 . S
Li530 O591 1.970 . S
Li531 N581 1.990 . S
Li531 O589 1.961 . S
Li531 O590 1.970 . S
Li531 O591 1.956 . S
C532 C534 1.348 . S
C532 C535 1.356 . S
C532 O588 1.325 . S
N533 C536 1.314 . S
N533 C537 1.279 . S
C534 C532 1.348 . S
C534 C536 1.353 . S
C534 H592 0.929 . S
C535 C532 1.356 . S
C535 C537 1.358 . S
C535 H593 0.930 . S
C536 N533 1.314 . S
C536 C534 1.353 . S
C536 H594 0.930 . S
C537 N533 1.279 . S
C537 C535 1.358 . S
C537 H595 0.930 . S
C538 C541 1.348 . S
C538 C542 1.356 . S
C538 O589 1.325 . S
C539 N540 1.279 . S
C539 C542 1.358 . S
C539 H596 0.930 . S
N540 C539 1.279 . S
N540 C543 1.314 . S
C541 C538 1.348 . S
C541 C543 1.353 . S
C541 H597 0.929 . S
C542 C538 1.356 . S
C542 C539 1.358 . S
C542 H598 0.930 . S
C543 N540 1.314 . S
C543 C541 1.353 . S
C543 H599 0.930 . S
C544 N545 1.314 . S
C544 C549 1.353 . S
C544 H550 0.930 . S
N545 Li528 1.990 . S
N545 C544 1.314 . S
N545 C547 1.279 . S
C546 C547 1.358 . S
C546 C548 1.356 . S
C546 H600 0.930 . S
C547 N545 1.279 . S
C547 C546 1.358 . S
C547 H551 0.930 . S
C548 C546 1.356 . S
C548 C549 1.348 . S
C549 C544 1.353 . S
C549 C548 1.348 . S
C549 H601 0.929 . S
H550 C544 0.930 . S
H551 C547 0.930 . S
C552 N553 1.314 . S
C552 C554 1.353 . S
C552 H558 0.930 . S
N553 Li529 1.990 . S
N553 C552 1.314 . S
N553 C556 1.279 . S
C554 C552 1.353 . S
C554 C557 1.348 . S
C554 H602 0.929 . S
C555 C556 1.358 . S
C555 C557 1.356 . S
C555 H603 0.930 . S
C556 N553 1.279 . S
C556 C555 1.358 . S
C556 H559 0.930 . S
C557 C554 1.348 . S
C557 C555 1.356 . S
H558 C552 0.930 . S
H559 C556 0.930 . S
C560 C562 1.348 . S
C560 C563 1.356 . S
C560 O590 1.325 . S
N561 C564 1.314 . S
N561 C565 1.279 . S
C562 C560 1.348 . S
C562 C564 1.353 . S
C562 H604 0.929 . S
C563 C560 1.356 . S
C563 C565 1.358 . S
C563 H605 0.930 . S
C564 N561 1.314 . S
C564 C562 1.353 . S
C564 H606 0.930 . S
C565 N561 1.279 . S
C565 C563 1.358 . S
C565 H607 0.930 . S
C566 C567 1.348 . S
C566 C568 1.356 . S
C566 O591 1.325 . S
C567 C566 1.348 . S
C567 C569 1.353 . S
C567 H608 0.929 . S
C568 C566 1.356 . S
C568 C570 1.358 . S
C568 H609 0.930 . S
C569 C567 1.353 . S
C569 N571 1.314 . S
C569 H610 0.930 . S
C570 C568 1.358 . S
C570 N571 1.279 . S
C570 H611 0.930 . S
N571 C569 1.314 . S
N571 C570 1.279 . S
C572 C574 1.353 . S
C572 N575 1.314 . S
C572 H578 0.930 . S
C573 N575 1.279 . S
C573 C576 1.358 . S
C573 H579 0.930 . S
C574 C572 1.353 . S
C574 C577 1.348 . S
C574 H612 0.929 . S
N575 Li530 1.990 . S
N575 C572 1.314 . S
N575 C573 1.279 . S
C576 C573 1.358 . S
C576 C577 1.356 . S
C576 H613 0.930 . S
C577 C574 1.348 . S
C577 C576 1.356 . S
H578 C572 0.930 . S
H579 C573 0.930 . S
C580 N581 1.314 . S
C580 C582 1.353 . S
C580 H586 0.930 . S
N581 Li531 1.990 . S
N581 C580 1.314 . S
N581 C584 1.279 . S
C582 C580 1.353 . S
C582 C585 1.348 . S
C582 H614 0.929 . S
C583 C584 1.358 . S
C583 C585 1.356 . S
C583 H615 0.930 . S
C584 N581 1.279 . S
C584 C583 1.358 . S
C584 H587 0.930 . S
C585 C582 1.348 . S
C585 C583 1.356 . S
H586 C580 0.930 . S
H587 C584 0.930 . S
O588 Li528 1.956 . S
O588 Li529 1.970 . S
O588 Li530 1.961 . S
O588 C532 1.325 . S
O589 Li528 1.970 . S
O589 Li529 1.956 . S
O589 Li531 1.961 . S
O589 C538 1.325 . S
O590 Li528 1.961 . S
O590 Li530 1.956 . S
O590 Li531 1.970 . S
O590 C560 1.325 . S
O591 Li529 1.961 . S
O591 Li530 1.970 . S
O591 Li531 1.956 . S
O591 C566 1.325 . S
H592 C534 0.929 . S
H593 C535 0.930 . S
H594 C536 0.930 . S
H595 C537 0.930 . S
H596 C539 0.930 . S
H597 C541 0.929 . S
H598 C542 0.930 . S
H599 C543 0.930 . S
H600 C546 0.930 . S
H601 C549 0.929 . S
H602 C554 0.929 . S
H603 C555 0.930 . S
H604 C562 0.929 . S
H605 C563 0.930 . S
H606 C564 0.930 . S
H607 C565 0.930 . S
H608 C567 0.929 . S
H609 C568 0.930 . S
H610 C569 0.930 . S
H611 C570 0.930 . S
H612 C574 0.929 . S
H613 C576 0.930 . S
H614 C582 0.929 . S
H615 C583 0.930 . S
Li616 N633 1.990 . S
Li616 O676 1.956 . S
Li616 O677 1.970 . S
Li616 O678 1.961 . S
Li617 N641 1.990 . S
Li617 O676 1.970 . S
Li617 O677 1.956 . S
Li617 O679 1.961 . S
Li618 N663 1.990 . S
Li618 O676 1.961 . S
Li618 O678 1.956 . S
Li618 O679 1.970 . S
Li619 N669 1.990 . S
Li619 O677 1.961 . S
Li619 O678 1.970 . S
Li619 O679 1.956 . S
C620 C622 1.348 . S
C620 C623 1.356 . S
C620 O676 1.325 . S
N621 C624 1.314 . S
N621 C625 1.279 . S
C622 C620 1.348 . S
C622 C624 1.353 . S
C622 H680 0.929 . S
C623 C620 1.356 . S
C623 C625 1.358 . S
C623 H681 0.930 . S
C624 N621 1.314 . S
C624 C622 1.353 . S
C624 H682 0.930 . S
C625 N621 1.279 . S
C625 C623 1.358 . S
C625 H683 0.930 . S
C626 C629 1.348 . S
C626 C630 1.356 . S
C626 O677 1.325 . S
C627 N628 1.279 . S
C627 C630 1.358 1_554 S
C627 H684 0.930 . S
N628 C627 1.279 . S
N628 C631 1.314 . S
C629 C626 1.348 . S
C629 C631 1.353 1_556 S
C629 H685 0.929 . S
C630 C626 1.356 . S
C630 C627 1.358 1_556 S
C630 H686 0.930 . S
C631 N628 1.314 . S
C631 C629 1.353 1_554 S
C631 H687 0.930 . S
C632 N633 1.314 . S
C632 C637 1.353 . S
C632 H638 0.930 . S
N633 Li616 1.990 . S
N633 C632 1.314 . S
N633 C635 1.279 . S
C634 C635 1.358 . S
C634 C636 1.356 . S
C634 H688 0.930 . S
C635 N633 1.279 . S
C635 C634 1.358 . S
C635 H639 0.930 . S
C636 C634 1.356 . S
C636 C637 1.348 . S
C637 C632 1.353 . S
C637 C636 1.348 . S
C637 H689 0.929 . S
H638 C632 0.930 . S
H639 C635 0.930 . S
C640 N641 1.314 . S
C640 C642 1.353 . S
C640 H646 0.930 . S
N641 Li617 1.990 . S
N641 C640 1.314 . S
N641 C644 1.279 . S
C642 C640 1.353 . S
C642 C645 1.348 . S
C642 H690 0.929 . S
C643 C644 1.358 . S
C643 C645 1.356 . S
C643 H691 0.930 . S
C644 N641 1.279 . S
C644 C643 1.358 . S
C644 H647 0.930 . S
C645 C642 1.348 . S
C645 C643 1.356 . S
H646 C640 0.930 . S
H647 C644 0.930 . S
C648 C650 1.348 . S
C648 C651 1.356 . S
C648 O678 1.325 . S
N649 C652 1.314 . S
N649 C653 1.279 . S
C650 C648 1.348 . S
C650 C652 1.353 . S
C650 H692 0.929 . S
C651 C648 1.356 . S
C651 C653 1.358 . S
C651 H693 0.930 . S
C652 N649 1.314 . S
C652 C650 1.353 . S
C652 H694 0.930 . S
C653 N649 1.279 . S
C653 C651 1.358 . S
C653 H695 0.930 . S
C654 C655 1.348 . S
C654 C656 1.356 . S
C654 O679 1.325 . S
C655 C654 1.348 . S
C655 C657 1.353 . S
C655 H696 0.929 . S
C656 C654 1.356 . S
C656 C658 1.358 . S
C656 H697 0.930 . S
C657 C655 1.353 . S
C657 N659 1.314 . S
C657 H698 0.930 . S
C658 C656 1.358 . S
C658 N659 1.279 . S
C658 H699 0.930 . S
N659 C657 1.314 . S
N659 C658 1.279 . S
C660 C662 1.353 . S
C660 N663 1.314 . S
C660 H666 0.930 . S
C661 N663 1.279 . S
C661 C664 1.358 . S
C661 H667 0.930 . S
C662 C660 1.353 . S
C662 C665 1.348 . S
C662 H700 0.929 . S
N663 Li618 1.990 . S
N663 C660 1.314 . S
N663 C661 1.279 . S
C664 C661 1.358 . S
C664 C665 1.356 . S
C664 H701 0.930 . S
C665 C662 1.348 . S
C665 C664 1.356 . S
H666 C660 0.930 . S
H667 C661 0.930 . S
C668 N669 1.314 . S
C668 C670 1.353 . S
C668 H674 0.930 . S
N669 Li619 1.990 . S
N669 C668 1.314 . S
N669 C672 1.279 . S
C670 C668 1.353 . S
C670 C673 1.348 . S
C670 H702 0.929 1_556 S
C671 C672 1.358 . S
C671 C673 1.356 . S
C671 H703 0.930 . S
C672 N669 1.279 . S
C672 C671 1.358 . S
C672 H675 0.930 . S
C673 C670 1.348 . S
C673 C671 1.356 . S
H674 C668 0.930 . S
H675 C672 0.930 . S
O676 Li616 1.956 . S
O676 Li617 1.970 . S
O676 Li618 1.961 . S
O676 C620 1.325 . S
O677 Li616 1.970 . S
O677 Li617 1.956 . S
O677 Li619 1.961 . S
O677 C626 1.325 . S
O678 Li616 1.961 . S
O678 Li618 1.956 . S
O678 Li619 1.970 . S
O678 C648 1.325 . S
O679 Li617 1.961 . S
O679 Li618 1.970 . S
O679 Li619 1.956 . S
O679 C654 1.325 . S
H680 C622 0.929 . S
H681 C623 0.930 . S
H682 C624 0.930 . S
H683 C625 0.930 . S
H684 C627 0.930 . S
H685 C629 0.929 . S
H686 C630 0.930 . S
H687 C631 0.930 . S
H688 C634 0.930 . S
H689 C637 0.929 . S
H690 C642 0.929 . S
H691 C643 0.930 . S
H692 C650 0.929 . S
H693 C651 0.930 . S
H694 C652 0.930 . S
H695 C653 0.930 . S
H696 C655 0.929 . S
H697 C656 0.930 . S
H698 C657 0.930 . S
H699 C658 0.930 . S
H700 C662 0.929 . S
H701 C664 0.930 . S
H702 C670 0.929 1_554 S
H703 C671 0.930 . S
Li704 N721 1.990 . S
Li704 O764 1.956 . S
Li704 O765 1.970 . S
Li704 O766 1.961 . S
Li705 N729 1.990 . S
Li705 O764 1.970 . S
Li705 O765 1.956 . S
Li705 O767 1.961 . S
Li706 N751 1.990 . S
Li706 O764 1.961 . S
Li706 O766 1.956 . S
Li706 O767 1.970 . S
Li707 N757 1.990 . S
Li707 O765 1.961 . S
Li707 O766 1.970 . S
Li707 O767 1.956 . S
C708 C710 1.348 . S
C708 C711 1.356 . S
C708 O764 1.325 . S
N709 C712 1.314 . S
N709 C713 1.279 . S
C710 C708 1.348 . S
C710 C712 1.353 . S
C710 H768 0.929 . S
C711 C708 1.356 . S
C711 C713 1.358 . S
C711 H769 0.930 . S
C712 N709 1.314 . S
C712 C710 1.353 . S
C712 H770 0.930 . S
C713 N709 1.279 . S
C713 C711 1.358 . S
C713 H771 0.930 . S
C714 C717 1.348 . S
C714 C718 1.356 . S
C714 O765 1.325 . S
C715 N716 1.279 . S
C715 C718 1.358 . S
C715 H772 0.930 . S
N716 C715 1.279 . S
N716 C719 1.314 . S
C717 C714 1.348 . S
C717 C719 1.353 . S
C717 H773 0.929 . S
C718 C714 1.356 . S
C718 C715 1.358 . S
C718 H774 0.930 . S
C719 N716 1.314 . S
C719 C717 1.353 . S
C719 H775 0.930 . S
C720 N721 1.314 . S
C720 C725 1.353 . S
C720 H726 0.930 . S
N721 Li704 1.990 . S
N721 C720 1.314 . S
N721 C723 1.279 . S
C722 C723 1.358 . S
C722 C724 1.356 . S
C722 H776 0.930 . S
C723 N721 1.279 . S
C723 C722 1.358 . S
C723 H727 0.930 . S
C724 C722 1.356 . S
C724 C725 1.348 . S
C725 C720 1.353 . S
C725 C724 1.348 . S
C725 H777 0.929 . S
H726 C720 0.930 . S
H727 C723 0.930 . S
C728 N729 1.314 . S
C728 C730 1.353 . S
C728 H734 0.930 . S
N729 Li705 1.990 . S
N729 C728 1.314 . S
N729 C732 1.279 . S
C730 C728 1.353 . S
C730 C733 1.348 . S
C730 H778 0.929 . S
C731 C732 1.358 . S
C731 C733 1.356 . S
C731 H779 0.930 . S
C732 N729 1.279 . S
C732 C731 1.358 . S
C732 H735 0.930 . S
C733 C730 1.348 . S
C733 C731 1.356 . S
H734 C728 0.930 . S
H735 C732 0.930 . S
C736 C738 1.348 . S
C736 C739 1.356 . S
C736 O766 1.325 . S
N737 C740 1.314 . S
N737 C741 1.279 . S
C738 C736 1.348 . S
C738 C740 1.353 . S
C738 H780 0.929 . S
C739 C736 1.356 . S
C739 C741 1.358 . S
C739 H781 0.930 . S
C740 N737 1.314 . S
C740 C738 1.353 . S
C740 H782 0.930 . S
C741 N737 1.279 . S
C741 C739 1.358 . S
C741 H783 0.930 . S
C742 C743 1.348 . S
C742 C744 1.356 . S
C742 O767 1.325 . S
C743 C742 1.348 . S
C743 C745 1.353 . S
C743 H784 0.929 . S
C744 C742 1.356 . S
C744 C746 1.358 . S
C744 H785 0.930 . S
C745 C743 1.353 . S
C745 N747 1.314 . S
C745 H786 0.930 . S
C746 C744 1.358 . S
C746 N747 1.279 . S
C746 H787 0.930 . S
N747 C745 1.314 . S
N747 C746 1.279 . S
C748 C750 1.353 . S
C748 N751 1.314 . S
C748 H754 0.930 . S
C749 N751 1.279 . S
C749 C752 1.358 . S
C749 H755 0.930 . S
C750 C748 1.353 . S
C750 C753 1.348 . S
C750 H788 0.929 . S
N751 Li706 1.990 . S
N751 C748 1.314 . S
N751 C749 1.279 . S
C752 C749 1.358 . S
C752 C753 1.356 . S
C752 H789 0.930 . S
C753 C750 1.348 . S
C753 C752 1.356 . S
H754 C748 0.930 . S
H755 C749 0.930 . S
C756 N757 1.314 . S
C756 C758 1.353 . S
C756 H762 0.930 . S
N757 Li707 1.990 . S
N757 C756 1.314 . S
N757 C760 1.279 . S
C758 C756 1.353 . S
C758 C761 1.348 . S
C758 H790 0.929 . S
C759 C760 1.358 . S
C759 C761 1.356 . S
C759 H791 0.930 . S
C760 N757 1.279 . S
C760 C759 1.358 . S
C760 H763 0.930 . S
C761 C758 1.348 . S
C761 C759 1.356 . S
H762 C756 0.930 . S
H763 C760 0.930 . S
O764 Li704 1.956 . S
O764 Li705 1.970 . S
O764 Li706 1.961 . S
O764 C708 1.325 . S
O765 Li704 1.970 . S
O765 Li705 1.956 . S
O765 Li707 1.961 . S
O765 C714 1.325 . S
O766 Li704 1.961 . S
O766 Li706 1.956 . S
O766 Li707 1.970 . S
O766 C736 1.325 . S
O767 Li705 1.961 . S
O767 Li706 1.970 . S
O767 Li707 1.956 . S
O767 C742 1.325 . S
H768 C710 0.929 . S
H769 C711 0.930 . S
H770 C712 0.930 . S
H771 C713 0.930 . S
H772 C715 0.930 . S
H773 C717 0.929 . S
H774 C718 0.930 . S
H775 C719 0.930 . S
H776 C722 0.930 . S
H777 C725 0.929 . S
H778 C730 0.929 . S
H779 C731 0.930 . S
H780 C738 0.929 . S
H781 C739 0.930 . S
H782 C740 0.930 . S
H783 C741 0.930 . S
H784 C743 0.929 . S
H785 C744 0.930 . S
H786 C745 0.930 . S
H787 C746 0.930 . S
H788 C750 0.929 . S
H789 C752 0.930 . S
H790 C758 0.929 . S
H791 C759 0.930 . S
Li792 N809 1.990 . S
Li792 O852 1.956 . S
Li792 O853 1.970 . S
Li792 O854 1.961 . S
Li793 N817 1.990 . S
Li793 O852 1.970 . S
Li793 O853 1.956 . S
Li793 O855 1.961 . S
Li794 N839 1.990 . S
Li794 O852 1.961 . S
Li794 O854 1.956 . S
Li794 O855 1.970 . S
Li795 N845 1.990 . S
Li795 O853 1.961 . S
Li795 O854 1.970 . S
Li795 O855 1.956 . S
C796 C798 1.348 . S
C796 C799 1.356 . S
C796 O852 1.325 . S
N797 C800 1.314 . S
N797 C801 1.279 . S
C798 C796 1.348 . S
C798 C800 1.353 . S
C798 H856 0.929 . S
C799 C796 1.356 . S
C799 C801 1.358 . S
C799 H857 0.930 . S
C800 N797 1.314 . S
C800 C798 1.353 . S
C800 H858 0.930 . S
C801 N797 1.279 . S
C801 C799 1.358 . S
C801 H859 0.930 . S
C802 C805 1.348 . S
C802 C806 1.356 . S
C802 O853 1.325 . S
C803 N804 1.279 . S
C803 C806 1.358 . S
C803 H860 0.930 . S
N804 C803 1.279 . S
N804 C807 1.314 . S
C805 C802 1.348 . S
C805 C807 1.353 . S
C805 H861 0.929 . S
C806 C802 1.356 . S
C806 C803 1.358 . S
C806 H862 0.930 . S
C807 N804 1.314 . S
C807 C805 1.353 . S
C807 H863 0.930 . S
C808 N809 1.314 . S
C808 C813 1.353 . S
C808 H814 0.930 . S
N809 Li792 1.990 . S
N809 C808 1.314 . S
N809 C811 1.279 . S
C810 C811 1.358 . S
C810 C812 1.356 . S
C810 H864 0.930 . S
C811 N809 1.279 . S
C811 C810 1.358 . S
C811 H815 0.930 . S
C812 C810 1.356 . S
C812 C813 1.348 . S
C813 C808 1.353 . S
C813 C812 1.348 . S
C813 H865 0.929 . S
H814 C808 0.930 . S
H815 C811 0.930 . S
C816 N817 1.314 . S
C816 C818 1.353 . S
C816 H822 0.930 . S
N817 Li793 1.990 . S
N817 C816 1.314 . S
N817 C820 1.279 . S
C818 C816 1.353 . S
C818 C821 1.348 . S
C818 H866 0.929 . S
C819 C820 1.358 . S
C819 C821 1.356 . S
C819 H867 0.930 . S
C820 N817 1.279 . S
C820 C819 1.358 . S
C820 H823 0.930 . S
C821 C818 1.348 . S
C821 C819 1.356 . S
H822 C816 0.930 . S
H823 C820 0.930 . S
C824 C826 1.348 . S
C824 C827 1.356 . S
C824 O854 1.325 . S
N825 C828 1.314 . S
N825 C829 1.279 . S
C826 C824 1.348 . S
C826 C828 1.353 . S
C826 H868 0.929 . S
C827 C824 1.356 . S
C827 C829 1.358 . S
C827 H869 0.930 . S
C828 N825 1.314 . S
C828 C826 1.353 . S
C828 H870 0.930 . S
C829 N825 1.279 . S
C829 C827 1.358 . S
C829 H871 0.930 . S
C830 C831 1.348 . S
C830 C832 1.356 . S
C830 O855 1.325 . S
C831 C830 1.348 . S
C831 C833 1.353 . S
C831 H872 0.929 . S
C832 C830 1.356 . S
C832 C834 1.358 . S
C832 H873 0.930 . S
C833 C831 1.353 . S
C833 N835 1.314 . S
C833 H874 0.930 . S
C834 C832 1.358 . S
C834 N835 1.279 . S
C834 H875 0.930 . S
N835 C833 1.314 . S
N835 C834 1.279 . S
C836 C838 1.353 . S
C836 N839 1.314 . S
C836 H842 0.930 . S
C837 N839 1.279 . S
C837 C840 1.358 . S
C837 H843 0.930 . S
C838 C836 1.353 . S
C838 C841 1.348 . S
C838 H876 0.929 . S
N839 Li794 1.990 . S
N839 C836 1.314 . S
N839 C837 1.279 . S
C840 C837 1.358 . S
C840 C841 1.356 . S
C840 H877 0.930 . S
C841 C838 1.348 . S
C841 C840 1.356 . S
H842 C836 0.930 . S
H843 C837 0.930 . S
C844 N845 1.314 . S
C844 C846 1.353 . S
C844 H850 0.930 . S
N845 Li795 1.990 . S
N845 C844 1.314 . S
N845 C848 1.279 . S
C846 C844 1.353 . S
C846 C849 1.348 . S
C846 H878 0.929 . S
C847 C848 1.358 . S
C847 C849 1.356 . S
C847 H879 0.930 . S
C848 N845 1.279 . S
C848 C847 1.358 . S
C848 H851 0.930 . S
C849 C846 1.348 . S
C849 C847 1.356 . S
H850 C844 0.930 . S
H851 C848 0.930 . S
O852 Li792 1.956 . S
O852 Li793 1.970 . S
O852 Li794 1.961 . S
O852 C796 1.325 . S
O853 Li792 1.970 . S
O853 Li793 1.956 . S
O853 Li795 1.961 . S
O853 C802 1.325 . S
O854 Li792 1.961 . S
O854 Li794 1.956 . S
O854 Li795 1.970 . S
O854 C824 1.325 . S
O855 Li793 1.961 . S
O855 Li794 1.970 . S
O855 Li795 1.956 . S
O855 C830 1.325 . S
H856 C798 0.929 . S
H857 C799 0.930 . S
H858 C800 0.930 . S
H859 C801 0.930 . S
H860 C803 0.930 . S
H861 C805 0.929 . S
H862 C806 0.930 . S
H863 C807 0.930 . S
H864 C810 0.930 . S
H865 C813 0.929 . S
H866 C818 0.929 . S
H867 C819 0.930 . S
H868 C826 0.929 . S
H869 C827 0.930 . S
H870 C828 0.930 . S
H871 C829 0.930 . S
H872 C831 0.929 . S
H873 C832 0.930 . S
H874 C833 0.930 . S
H875 C834 0.930 . S
H876 C838 0.929 . S
H877 C840 0.930 . S
H878 C846 0.929 . S
H879 C847 0.930 . S
Li880 N897 1.990 . S
Li880 O940 1.956 . S
Li880 O941 1.970 . S
Li880 O942 1.961 . S
Li881 N905 1.990 . S
Li881 O940 1.970 . S
Li881 O941 1.956 . S
Li881 O943 1.961 . S
Li882 N927 1.990 . S
Li882 O940 1.961 . S
Li882 O942 1.956 . S
Li882 O943 1.970 . S
Li883 N933 1.990 . S
Li883 O941 1.961 . S
Li883 O942 1.970 . S
Li883 O943 1.956 . S
C884 C886 1.348 . S
C884 C887 1.356 . S
C884 O940 1.325 . S
N885 C888 1.314 . S
N885 C889 1.279 . S
C886 C884 1.348 . S
C886 C888 1.353 1_556 S
C886 H944 0.929 . S
C887 C884 1.356 . S
C887 C889 1.358 1_556 S
C887 H945 0.930 . S
C888 N885 1.314 . S
C888 C886 1.353 1_554 S
C888 H946 0.930 . S
C889 N885 1.279 . S
C889 C887 1.358 1_554 S
C889 H947 0.930 . S
C890 C893 1.348 . S
C890 C894 1.356 . S
C890 O941 1.325 . S
C891 N892 1.279 . S
C891 C894 1.358 . S
C891 H948 0.930 . S
N892 C891 1.279 . S
N892 C895 1.314 . S
C893 C890 1.348 . S
C893 C895 1.353 . S
C893 H949 0.929 . S
C894 C890 1.356 . S
C894 C891 1.358 . S
C894 H950 0.930 . S
C895 N892 1.314 . S
C895 C893 1.353 . S
C895 H951 0.930 . S
C896 N897 1.314 . S
C896 C901 1.353 . S
C896 H902 0.930 . S
N897 Li880 1.990 . S
N897 C896 1.314 . S
N897 C899 1.279 . S
C898 C899 1.358 . S
C898 C900 1.356 . S
C898 H952 0.930 . S
C899 N897 1.279 . S
C899 C898 1.358 . S
C899 H903 0.930 . S
C900 C898 1.356 . S
C900 C901 1.348 . S
C901 C896 1.353 . S
C901 C900 1.348 . S
C901 H953 0.929 . S
H902 C896 0.930 . S
H903 C899 0.930 . S
C904 N905 1.314 . S
C904 C906 1.353 . S
C904 H910 0.930 . S
N905 Li881 1.990 . S
N905 C904 1.314 . S
N905 C908 1.279 . S
C906 C904 1.353 . S
C906 C909 1.348 . S
C906 H954 0.929 . S
C907 C908 1.358 . S
C907 C909 1.356 . S
C907 H955 0.930 . S
C908 N905 1.279 . S
C908 C907 1.358 . S
C908 H911 0.930 . S
C909 C906 1.348 . S
C909 C907 1.356 . S
H910 C904 0.930 . S
H911 C908 0.930 . S
C912 C914 1.348 . S
C912 C915 1.356 . S
C912 O942 1.325 . S
N913 C916 1.314 . S
N913 C917 1.279 . S
C914 C912 1.348 . S
C914 C916 1.353 . S
C914 H956 0.929 . S
C915 C912 1.356 . S
C915 C917 1.358 . S
C915 H957 0.930 . S
C916 N913 1.314 . S
C916 C914 1.353 . S
C916 H958 0.930 . S
C917 N913 1.279 . S
C917 C915 1.358 . S
C917 H959 0.930 . S
C918 C919 1.348 . S
C918 C920 1.356 . S
C918 O943 1.325 . S
C919 C918 1.348 . S
C919 C921 1.353 . S
C919 H960 0.929 . S
C920 C918 1.356 . S
C920 C922 1.358 . S
C920 H961 0.930 . S
C921 C919 1.353 . S
C921 N923 1.314 . S
C921 H962 0.930 . S
C922 C920 1.358 . S
C922 N923 1.279 . S
C922 H963 0.930 . S
N923 C921 1.314 . S
N923 C922 1.279 . S
C924 C926 1.353 . S
C924 N927 1.314 . S
C924 H930 0.930 . S
C925 N927 1.279 . S
C925 C928 1.358 . S
C925 H931 0.930 . S
C926 C924 1.353 . S
C926 C929 1.348 . S
C926 H964 0.929 1_556 S
N927 Li882 1.990 . S
N927 C924 1.314 . S
N927 C925 1.279 . S
C928 C925 1.358 . S
C928 C929 1.356 . S
C928 H965 0.930 . S
C929 C926 1.348 . S
C929 C928 1.356 . S
H930 C924 0.930 . S
H931 C925 0.930 . S
C932 N933 1.314 . S
C932 C934 1.353 . S
C932 H938 0.930 . S
N933 Li883 1.990 . S
N933 C932 1.314 . S
N933 C936 1.279 . S
C934 C932 1.353 . S
C934 C937 1.348 . S
C934 H966 0.929 . S
C935 C936 1.358 . S
C935 C937 1.356 . S
C935 H967 0.930 . S
C936 N933 1.279 . S
C936 C935 1.358 . S
C936 H939 0.930 . S
C937 C934 1.348 . S
C937 C935 1.356 . S
H938 C932 0.930 . S
H939 C936 0.930 . S
O940 Li880 1.956 . S
O940 Li881 1.970 . S
O940 Li882 1.961 . S
O940 C884 1.325 . S
O941 Li880 1.970 . S
O941 Li881 1.956 . S
O941 Li883 1.961 . S
O941 C890 1.325 . S
O942 Li880 1.961 . S
O942 Li882 1.956 . S
O942 Li883 1.970 . S
O942 C912 1.325 . S
O943 Li881 1.961 . S
O943 Li882 1.970 . S
O943 Li883 1.956 . S
O943 C918 1.325 . S
H944 C886 0.929 . S
H945 C887 0.930 . S
H946 C888 0.930 . S
H947 C889 0.930 . S
H948 C891 0.930 . S
H949 C893 0.929 . S
H950 C894 0.930 . S
H951 C895 0.930 . S
H952 C898 0.930 . S
H953 C901 0.929 . S
H954 C906 0.929 . S
H955 C907 0.930 . S
H956 C914 0.929 . S
H957 C915 0.930 . S
H958 C916 0.930 . S
H959 C917 0.930 . S
H960 C919 0.929 . S
H961 C920 0.930 . S
H962 C921 0.930 . S
H963 C922 0.930 . S
H964 C926 0.929 1_554 S
H965 C928 0.930 . S
H966 C934 0.929 . S
H967 C935 0.930 . S
Li968 N985 1.990 . S
Li968 O1028 1.956 . S
Li968 O1029 1.970 . S
Li968 O1030 1.961 . S
Li969 N993 1.990 . S
Li969 O1028 1.970 . S
Li969 O1029 1.956 . S
Li969 O1031 1.961 . S
Li970 N1015 1.990 . S
Li970 O1028 1.961 . S
Li970 O1030 1.956 . S
Li970 O1031 1.970 . S
Li971 N1021 1.990 . S
Li971 O1029 1.961 . S
Li971 O1030 1.970 . S
Li971 O1031 1.956 . S
C972 C974 1.348 . S
C972 C975 1.356 . S
C972 O1028 1.325 . S
N973 C976 1.314 . S
N973 C977 1.279 . S
C974 C972 1.348 . S
C974 C976 1.353 . S
C974 H1032 0.929 . S
C975 C972 1.356 . S
C975 C977 1.358 . S
C975 H1033 0.930 . S
C976 N973 1.314 . S
C976 C974 1.353 . S
C976 H1034 0.930 . S
C977 N973 1.279 . S
C977 C975 1.358 . S
C977 H1035 0.930 . S
C978 C981 1.348 . S
C978 C982 1.356 . S
C978 O1029 1.325 . S
C979 N980 1.279 . S
C979 C982 1.358 . S
C979 H1036 0.930 . S
N980 C979 1.279 . S
N980 C983 1.314 . S
C981 C978 1.348 . S
C981 C983 1.353 . S
C981 H1037 0.929 . S
C982 C978 1.356 . S
C982 C979 1.358 . S
C982 H1038 0.930 . S
C983 N980 1.314 . S
C983 C981 1.353 . S
C983 H1039 0.930 . S
C984 N985 1.314 . S
C984 C989 1.353 . S
C984 H990 0.930 . S
N985 Li968 1.990 . S
N985 C984 1.314 . S
N985 C987 1.279 . S
C986 C987 1.358 . S
C986 C988 1.356 . S
C986 H1040 0.930 . S
C987 N985 1.279 . S
C987 C986 1.358 . S
C987 H991 0.930 . S
C988 C986 1.356 . S
C988 C989 1.348 . S
C989 C984 1.353 . S
C989 C988 1.348 . S
C989 H1041 0.929 . S
H990 C984 0.930 . S
H991 C987 0.930 . S
C992 N993 1.314 . S
C992 C994 1.353 . S
C992 H998 0.930 . S
N993 Li969 1.990 . S
N993 C992 1.314 . S
N993 C996 1.279 . S
C994 C992 1.353 . S
C994 C997 1.348 . S
C994 H1042 0.929 . S
C995 C996 1.358 . S
C995 C997 1.356 . S
C995 H1043 0.930 . S
C996 N993 1.279 . S
C996 C995 1.358 . S
C996 H999 0.930 . S
C997 C994 1.348 . S
C997 C995 1.356 . S
H998 C992 0.930 . S
H999 C996 0.930 . S
C1000 C1002 1.348 . S
C1000 C1003 1.356 . S
C1000 O1030 1.325 . S
N1001 C1004 1.314 . S
N1001 C1005 1.279 . S
C1002 C1000 1.348 . S
C1002 C1004 1.353 . S
C1002 H1044 0.929 . S
C1003 C1000 1.356 . S
C1003 C1005 1.358 . S
C1003 H1045 0.930 . S
C1004 N1001 1.314 . S
C1004 C1002 1.353 . S
C1004 H1046 0.930 . S
C1005 N1001 1.279 . S
C1005 C1003 1.358 . S
C1005 H1047 0.930 . S
C1006 C1007 1.348 . S
C1006 C1008 1.356 . S
C1006 O1031 1.325 . S
C1007 C1006 1.348 . S
C1007 C1009 1.353 . S
C1007 H1048 0.929 . S
C1008 C1006 1.356 . S
C1008 C1010 1.358 . S
C1008 H1049 0.930 . S
C1009 C1007 1.353 . S
C1009 N1011 1.314 . S
C1009 H1050 0.930 . S
C1010 C1008 1.358 . S
C1010 N1011 1.279 . S
C1010 H1051 0.930 . S
N1011 C1009 1.314 . S
N1011 C1010 1.279 . S
C1012 C1014 1.353 . S
C1012 N1015 1.314 . S
C1012 H1018 0.930 . S
C1013 N1015 1.279 . S
C1013 C1016 1.358 . S
C1013 H1019 0.930 . S
C1014 C1012 1.353 . S
C1014 C1017 1.348 . S
C1014 H1052 0.929 . S
N1015 Li970 1.990 . S
N1015 C1012 1.314 . S
N1015 C1013 1.279 . S
C1016 C1013 1.358 . S
C1016 C1017 1.356 . S
C1016 H1053 0.930 . S
C1017 C1014 1.348 . S
C1017 C1016 1.356 . S
H1018 C1012 0.930 . S
H1019 C1013 0.930 . S
C1020 N1021 1.314 . S
C1020 C1022 1.353 . S
C1020 H1026 0.930 . S
N1021 Li971 1.990 . S
N1021 C1020 1.314 . S
N1021 C1024 1.279 . S
C1022 C1020 1.353 . S
C1022 C1025 1.348 . S
C1022 H1054 0.929 . S
C1023 C1024 1.358 . S
C1023 C1025 1.356 . S
C1023 H1055 0.930 . S
C1024 N1021 1.279 . S
C1024 C1023 1.358 . S
C1024 H1027 0.930 . S
C1025 C1022 1.348 . S
C1025 C1023 1.356 . S
H1026 C1020 0.930 . S
H1027 C1024 0.930 . S
O1028 Li968 1.956 . S
O1028 Li969 1.970 . S
O1028 Li970 1.961 . S
O1028 C972 1.325 . S
O1029 Li968 1.970 . S
O1029 Li969 1.956 . S
O1029 Li971 1.961 . S
O1029 C978 1.325 . S
O1030 Li968 1.961 . S
O1030 Li970 1.956 . S
O1030 Li971 1.970 . S
O1030 C1000 1.325 . S
O1031 Li969 1.961 . S
O1031 Li970 1.970 . S
O1031 Li971 1.956 . S
O1031 C1006 1.325 . S
H1032 C974 0.929 . S
H1033 C975 0.930 . S
H1034 C976 0.930 . S
H1035 C977 0.930 . S
H1036 C979 0.930 . S
H1037 C981 0.929 . S
H1038 C982 0.930 . S
H1039 C983 0.930 . S
H1040 C986 0.930 . S
H1041 C989 0.929 . S
H1042 C994 0.929 . S
H1043 C995 0.930 . S
H1044 C1002 0.929 . S
H1045 C1003 0.930 . S
H1046 C1004 0.930 . S
H1047 C1005 0.930 . S
H1048 C1007 0.929 . S
H1049 C1008 0.930 . S
H1050 C1009 0.930 . S
H1051 C1010 0.930 . S
H1052 C1014 0.929 . S
H1053 C1016 0.930 . S
H1054 C1022 0.929 . S
H1055 C1023 0.930 . S
H1056 C1062 0.930 . S
H1057 C1066 0.930 . S
H1058 C1071 0.929 . S
H1059 C1069 0.929 . S
H1060 C1064 0.929 . S
H1061 C1070 0.929 . S
C1062 H1056 0.930 . S
C1062 C1063 1.367 1_554 S
C1062 C1070 1.378 . S
C1063 C1062 1.367 1_556 S
C1063 C1071 1.433 . S
C1064 H1060 0.929 . S
C1064 C1066 1.378 . S
C1064 C1068 1.350 1_556 S
C1065 C1068 1.463 1_566 S
C1065 C1070 1.350 1_556 S
C1065 N1073 1.427 . S
C1066 H1057 0.930 . S
C1066 C1064 1.378 . S
C1066 C1067 1.367 1_556 S
C1067 C1066 1.367 1_554 S
C1067 C1069 1.433 . S
C1068 C1064 1.350 1_554 S
C1068 C1065 1.463 1_544 S
C1068 N1072 1.427 . S
C1069 H1059 0.929 . S
C1069 C1067 1.433 . S
C1069 N1072 1.384 . S
C1070 H1061 0.929 . S
C1070 C1062 1.378 . S
C1070 C1065 1.350 1_554 S
C1071 H1058 0.929 . S
C1071 C1063 1.433 . S
C1071 N1073 1.384 . S
N1072 C1068 1.427 . S
N1072 C1069 1.384 . S
N1073 C1065 1.427 . S
N1073 C1071 1.384 . S
H1074 C1080 0.930 . S
H1075 C1084 0.930 . S
H1076 C1089 0.929 . S
H1077 C1087 0.929 . S
H1078 C1082 0.929 . S
H1079 C1088 0.929 . S
C1080 H1074 0.930 . S
C1080 C1081 1.367 . S
C1080 C1088 1.378 . S
C1081 C1080 1.367 . S
C1081 C1089 1.433 . S
C1082 H1078 0.929 . S
C1082 C1084 1.378 . S
C1082 C1086 1.350 . S
C1083 C1086 1.463 . S
C1083 C1088 1.350 . S
C1083 N1091 1.427 . S
C1084 H1075 0.930 . S
C1084 C1082 1.378 . S
C1084 C1085 1.367 . S
C1085 C1084 1.367 . S
C1085 C1087 1.433 . S
C1086 C1082 1.350 . S
C1086 C1083 1.463 . S
C1086 N1090 1.427 . S
C1087 H1077 0.929 . S
C1087 C1085 1.433 . S
C1087 N1090 1.384 . S
C1088 H1079 0.929 . S
C1088 C1080 1.378 . S
C1088 C1083 1.350 . S
C1089 H1076 0.929 . S
C1089 C1081 1.433 . S
C1089 N1091 1.384 . S
N1090 C1086 1.427 . S
N1090 C1087 1.384 . S
N1091 C1083 1.427 . S
N1091 C1089 1.384 . S
H1092 C1098 0.930 . S
H1093 C1102 0.930 . S
H1094 C1107 0.929 . S
H1095 C1105 0.929 . S
H1096 C1100 0.929 . S
H1097 C1106 0.929 . S
C1098 H1092 0.930 . S
C1098 C1099 1.367 . S
C1098 C1106 1.378 . S
C1099 C1098 1.367 . S
C1099 C1107 1.433 . S
C1100 H1096 0.929 . S
C1100 C1102 1.378 . S
C1100 C1104 1.350 . S
C1101 C1104 1.463 1_655 S
C1101 C1106 1.350 . S
C1101 N1109 1.427 . S
C1102 H1093 0.930 . S
C1102 C1100 1.378 . S
C1102 C1103 1.367 . S
C1103 C1102 1.367 . S
C1103 C1105 1.433 . S
C1104 C1100 1.350 . S
C1104 C1101 1.463 1_455 S
C1104 N1108 1.427 . S
C1105 H1095 0.929 . S
C1105 C1103 1.433 . S
C1105 N1108 1.384 . S
C1106 H1097 0.929 . S
C1106 C1098 1.378 . S
C1106 C1101 1.350 . S
C1107 H1094 0.929 . S
C1107 C1099 1.433 . S
C1107 N1109 1.384 . S
N1108 C1104 1.427 . S
N1108 C1105 1.384 . S
N1109 C1101 1.427 . S
N1109 C1107 1.384 . S
H1110 C1116 0.930 . S
H1111 C1120 0.930 . S
H1112 C1125 0.929 . S
H1113 C1123 0.929 . S
H1114 C1118 0.929 . S
H1115 C1124 0.929 . S
C1116 H1110 0.930 . S
C1116 C1117 1.367 . S
C1116 C1124 1.378 . S
C1117 C1116 1.367 . S
C1117 C1125 1.433 1_554 S
C1118 H1114 0.929 . S
C1118 C1120 1.378 . S
C1118 C1122 1.350 . S
C1119 C1122 1.463 1_564 S
C1119 C1124 1.350 . S
C1119 N1127 1.427 1_554 S
C1120 H1111 0.930 . S
C1120 C1118 1.378 . S
C1120 C1121 1.367 . S
C1121 C1120 1.367 . S
C1121 C1123 1.433 1_556 S
C1122 C1118 1.350 . S
C1122 C1119 1.463 1_546 S
C1122 N1126 1.427 1_556 S
C1123 H1113 0.929 . S
C1123 C1121 1.433 1_554 S
C1123 N1126 1.384 . S
C1124 H1115 0.929 . S
C1124 C1116 1.378 . S
C1124 C1119 1.350 . S
C1125 H1112 0.929 . S
C1125 C1117 1.433 1_556 S
C1125 N1127 1.384 . S
N1126 C1122 1.427 1_554 S
N1126 C1123 1.384 . S
N1127 C1119 1.427 1_556 S
N1127 C1125 1.384 . S
H1128 C1134 0.930 . S
H1129 C1138 0.930 . S
H1130 C1143 0.929 . S
H1131 C1141 0.929 . S
H1132 C1136 0.929 . S
H1133 C1142 0.929 . S
C1134 H1128 0.930 . S
C1134 C1135 1.367 . S
C1134 C1142 1.378 . S
C1135 C1134 1.367 . S
C1135 C1143 1.433 . S
C1136 H1132 0.929 . S
C1136 C1138 1.378 . S
C1136 C1140 1.350 . S
C1137 C1140 1.463 . S
C1137 C1142 1.350 . S
C1137 N1145 1.427 . S
C1138 H1129 0.930 . S
C1138 C1136 1.378 . S
C1138 C1139 1.367 . S
C1139 C1138 1.367 . S
C1139 C1141 1.433 . S
C1140 C1136 1.350 . S
C1140 C1137 1.463 . S
C1140 N1144 1.427 . S
C1141 H1131 0.929 . S
C1141 C1139 1.433 . S
C1141 N1144 1.384 . S
C1142 H1133 0.929 . S
C1142 C1134 1.378 . S
C1142 C1137 1.350 . S
C1143 H1130 0.929 . S
C1143 C1135 1.433 . S
C1143 N1145 1.384 . S
N1144 C1140 1.427 . S
N1144 C1141 1.384 . S
N1145 C1137 1.427 . S
N1145 C1143 1.384 . S
H1146 C1152 0.930 . S
H1147 C1156 0.930 . S
H1148 C1161 0.929 . S
H1149 C1159 0.929 . S
H1150 C1154 0.929 . S
H1151 C1160 0.929 . S
C1152 H1146 0.930 . S
C1152 C1153 1.367 . S
C1152 C1160 1.378 . S
C1153 C1152 1.367 . S
C1153 C1161 1.433 . S
C1154 H1150 0.929 . S
C1154 C1156 1.378 . S
C1154 C1158 1.350 . S
C1155 C1158 1.463 1_655 S
C1155 C1160 1.350 . S
C1155 N1163 1.427 . S
C1156 H1147 0.930 . S
C1156 C1154 1.378 . S
C1156 C1157 1.367 . S
C1157 C1156 1.367 . S
C1157 C1159 1.433 . S
C1158 C1154 1.350 . S
C1158 C1155 1.463 1_455 S
C1158 N1162 1.427 . S
C1159 H1149 0.929 . S
C1159 C1157 1.433 . S
C1159 N1162 1.384 . S
C1160 H1151 0.929 . S
C1160 C1152 1.378 . S
C1160 C1155 1.350 . S
C1161 H1148 0.929 . S
C1161 C1153 1.433 . S
C1161 N1163 1.384 . S
N1162 C1158 1.427 . S
N1162 C1159 1.384 . S
N1163 C1155 1.427 . S
N1163 C1161 1.384 . S
H1164 C1170 0.930 1_554 S
H1165 C1174 0.930 1_556 S
H1166 C1179 0.929 . S
H1167 C1177 0.929 . S
H1168 C1172 0.929 . S
H1169 C1178 0.929 . S
C1170 H1164 0.930 1_556 S
C1170 C1171 1.367 . S
C1170 C1178 1.378 1_556 S
C1171 C1170 1.367 . S
C1171 C1179 1.433 . S
C1172 H1168 0.929 . S
C1172 C1174 1.378 1_556 S
C1172 C1176 1.350 1_556 S
C1173 C1176 1.463 1_556 S
C1173 C1178 1.350 1_556 S
C1173 N1181 1.427 . S
C1174 H1165 0.930 1_554 S
C1174 C1172 1.378 1_554 S
C1174 C1175 1.367 . S
C1175 C1174 1.367 . S
C1175 C1177 1.433 . S
C1176 C1172 1.350 1_554 S
C1176 C1173 1.463 1_554 S
C1176 N1180 1.427 . S
C1177 H1167 0.929 . S
C1177 C1175 1.433 . S
C1177 N1180 1.384 . S
C1178 H1169 0.929 . S
C1178 C1170 1.378 1_554 S
C1178 C1173 1.350 1_554 S
C1179 H1166 0.929 . S
C1179 C1171 1.433 . S
C1179 N1181 1.384 . S
N1180 C1176 1.427 . S
N1180 C1177 1.384 . S
N1181 C1173 1.427 . S
N1181 C1179 1.384 . S
H1182 C1188 0.930 . S
H1183 C1192 0.930 . S
H1184 C1197 0.929 . S
H1185 C1195 0.929 . S
H1186 C1190 0.929 . S
H1187 C1196 0.929 . S
C1188 H1182 0.930 . S
C1188 C1189 1.367 . S
C1188 C1196 1.378 . S
C1189 C1188 1.367 . S
C1189 C1197 1.433 . S
C1190 H1186 0.929 . S
C1190 C1192 1.378 . S
C1190 C1194 1.350 . S
C1191 C1194 1.463 . S
C1191 C1196 1.350 . S
C1191 N1199 1.427 . S
C1192 H1183 0.930 . S
C1192 C1190 1.378 . S
C1192 C1193 1.367 . S
C1193 C1192 1.367 . S
C1193 C1195 1.433 . S
C1194 C1190 1.350 . S
C1194 C1191 1.463 . S
C1194 N1198 1.427 . S
C1195 H1185 0.929 . S
C1195 C1193 1.433 . S
C1195 N1198 1.384 . S
C1196 H1187 0.929 . S
C1196 C1188 1.378 . S
C1196 C1191 1.350 . S
C1197 H1184 0.929 . S
C1197 C1189 1.433 . S
C1197 N1199 1.384 . S
N1198 C1194 1.427 . S
N1198 C1195 1.384 . S
N1199 C1191 1.427 . S
N1199 C1197 1.384 . S
H1200 C1206 0.930 . S
H1201 C1210 0.930 . S
H1202 C1215 0.929 . S
H1203 C1213 0.929 . S
H1204 C1208 0.929 . S
H1205 C1214 0.929 . S
C1206 H1200 0.930 . S
C1206 C1207 1.367 . S
C1206 C1214 1.378 . S
C1207 C1206 1.367 . S
C1207 C1215 1.433 . S
C1208 H1204 0.929 . S
C1208 C1210 1.378 . S
C1208 C1212 1.350 . S
C1209 C1212 1.463 . S
C1209 C1214 1.350 . S
C1209 N1217 1.427 . S
C1210 H1201 0.930 . S
C1210 C1208 1.378 . S
C1210 C1211 1.367 . S
C1211 C1210 1.367 . S
C1211 C1213 1.433 . S
C1212 C1208 1.350 . S
C1212 C1209 1.463 . S
C1212 N1216 1.427 . S
C1213 H1203 0.929 . S
C1213 C1211 1.433 . S
C1213 N1216 1.384 . S
C1214 H1205 0.929 . S
C1214 C1206 1.378 . S
C1214 C1209 1.350 . S
C1215 H1202 0.929 . S
C1215 C1207 1.433 . S
C1215 N1217 1.384 . S
N1216 C1212 1.427 . S
N1216 C1213 1.384 . S
N1217 C1209 1.427 . S
N1217 C1215 1.384 . S
H1218 C1224 0.930 . S
H1219 C1228 0.930 . S
H1220 C1233 0.929 1_554 S
H1221 C1231 0.929 1_556 S
H1222 C1226 0.929 . S
H1223 C1232 0.929 . S
C1224 H1218 0.930 . S
C1224 C1225 1.367 . S
C1224 C1232 1.378 . S
C1225 C1224 1.367 . S
C1225 C1233 1.433 . S
C1226 H1222 0.929 . S
C1226 C1228 1.378 . S
C1226 C1230 1.350 . S
C1227 C1230 1.463 1_556 S
C1227 C1232 1.350 . S
C1227 N1235 1.427 1_556 S
C1228 H1219 0.930 . S
C1228 C1226 1.378 . S
C1228 C1229 1.367 . S
C1229 C1228 1.367 . S
C1229 C1231 1.433 . S
C1230 C1226 1.350 . S
C1230 C1227 1.463 1_554 S
C1230 N1234 1.427 1_554 S
C1231 H1221 0.929 1_554 S
C1231 C1229 1.433 . S
C1231 N1234 1.384 1_554 S
C1232 H1223 0.929 . S
C1232 C1224 1.378 . S
C1232 C1227 1.350 . S
C1233 H1220 0.929 1_556 S
C1233 C1225 1.433 . S
C1233 N1235 1.384 1_556 S
N1234 C1230 1.427 1_556 S
N1234 C1231 1.384 1_556 S
N1235 C1227 1.427 1_554 S
N1235 C1233 1.384 1_554 S
H1236 C1242 0.930 . S
H1237 C1246 0.930 . S
H1238 C1251 0.929 . S
H1239 C1249 0.929 . S
H1240 C1244 0.929 . S
H1241 C1250 0.929 . S
C1242 H1236 0.930 . S
C1242 C1243 1.367 . S
C1242 C1250 1.378 . S
C1243 C1242 1.367 . S
C1243 C1251 1.433 . S
C1244 H1240 0.929 . S
C1244 C1246 1.378 . S
C1244 C1248 1.350 . S
C1245 C1248 1.463 . S
C1245 C1250 1.350 . S
C1245 N1253 1.427 . S
C1246 H1237 0.930 . S
C1246 C1244 1.378 . S
C1246 C1247 1.367 . S
C1247 C1246 1.367 . S
C1247 C1249 1.433 . S
C1248 C1244 1.350 . S
C1248 C1245 1.463 . S
C1248 N1252 1.427 . S
C1249 H1239 0.929 . S
C1249 C1247 1.433 . S
C1249 N1252 1.384 . S
C1250 H1241 0.929 . S
C1250 C1242 1.378 . S
C1250 C1245 1.350 . S
C1251 H1238 0.929 . S
C1251 C1243 1.433 . S
C1251 N1253 1.384 . S
N1252 C1248 1.427 . S
N1252 C1249 1.384 . S
N1253 C1245 1.427 . S
N1253 C1251 1.384 . S
H1254 C1260 0.930 . S
H1255 C1264 0.930 . S
H1256 C1269 0.929 . S
H1257 C1267 0.929 . S
H1258 C1262 0.929 . S
H1259 C1268 0.929 . S
C1260 H1254 0.930 . S
C1260 C1261 1.367 . S
C1260 C1268 1.378 . S
C1261 C1260 1.367 . S
C1261 C1269 1.433 . S
C1262 H1258 0.929 . S
C1262 C1264 1.378 . S
C1262 C1266 1.350 . S
C1263 C1266 1.463 . S
C1263 C1268 1.350 . S
C1263 N1271 1.427 . S
C1264 H1255 0.930 . S
C1264 C1262 1.378 . S
C1264 C1265 1.367 . S
C1265 C1264 1.367 . S
C1265 C1267 1.433 . S
C1266 C1262 1.350 . S
C1266 C1263 1.463 . S
C1266 N1270 1.427 . S
C1267 H1257 0.929 . S
C1267 C1265 1.433 . S
C1267 N1270 1.384 . S
C1268 H1259 0.929 . S
C1268 C1260 1.378 . S
C1268 C1263 1.350 . S
C1269 H1256 0.929 . S
C1269 C1261 1.433 . S
C1269 N1271 1.384 . S
N1270 C1266 1.427 . S
N1270 C1267 1.384 . S
N1271 C1263 1.427 . S
N1271 C1269 1.384 . S
H1272 C1278 0.930 . S
H1273 C1282 0.930 . S
H1274 C1287 0.929 . S
H1275 C1285 0.929 . S
H1276 C1280 0.929 . S
H1277 C1286 0.929 . S
C1278 H1272 0.930 . S
C1278 C1279 1.367 . S
C1278 C1286 1.378 . S
C1279 C1278 1.367 . S
C1279 C1287 1.433 . S
C1280 H1276 0.929 . S
C1280 C1282 1.378 . S
C1280 C1284 1.350 . S
C1281 C1284 1.463 . S
C1281 C1286 1.350 . S
C1281 N1289 1.427 . S
C1282 H1273 0.930 . S
C1282 C1280 1.378 . S
C1282 C1283 1.367 . S
C1283 C1282 1.367 . S
C1283 C1285 1.433 . S
C1284 C1280 1.350 . S
C1284 C1281 1.463 . S
C1284 N1288 1.427 . S
C1285 H1275 0.929 . S
C1285 C1283 1.433 . S
C1285 N1288 1.384 . S
C1286 H1277 0.929 . S
C1286 C1278 1.378 . S
C1286 C1281 1.350 . S
C1287 H1274 0.929 . S
C1287 C1279 1.433 . S
C1287 N1289 1.384 . S
N1288 C1284 1.427 . S
N1288 C1285 1.384 . S
N1289 C1281 1.427 . S
N1289 C1287 1.384 . S
H1290 C1296 0.930 . S
H1291 C1300 0.930 . S
H1292 C1305 0.929 . S
H1293 C1303 0.929 . S
H1294 C1298 0.929 . S
H1295 C1304 0.929 . S
C1296 H1290 0.930 . S
C1296 C1297 1.367 . S
C1296 C1304 1.378 . S
C1297 C1296 1.367 . S
C1297 C1305 1.433 . S
C1298 H1294 0.929 . S
C1298 C1300 1.378 . S
C1298 C1302 1.350 . S
C1299 C1302 1.463 . S
C1299 C1304 1.350 . S
C1299 N1307 1.427 . S
C1300 H1291 0.930 . S
C1300 C1298 1.378 . S
C1300 C1301 1.367 . S
C1301 C1300 1.367 . S
C1301 C1303 1.433 . S
C1302 C1298 1.350 . S
C1302 C1299 1.463 . S
C1302 N1306 1.427 . S
C1303 H1293 0.929 . S
C1303 C1301 1.433 . S
C1303 N1306 1.384 . S
C1304 H1295 0.929 . S
C1304 C1296 1.378 . S
C1304 C1299 1.350 . S
C1305 H1292 0.929 . S
C1305 C1297 1.433 . S
C1305 N1307 1.384 . S
N1306 C1302 1.427 . S
N1306 C1303 1.384 . S
N1307 C1299 1.427 . S
N1307 C1305 1.384 . S
H1308 C1314 0.930 . S
H1309 C1318 0.930 . S
H1310 C1323 0.929 . S
H1311 C1321 0.929 . S
H1312 C1316 0.929 . S
H1313 C1322 0.929 . S
C1314 H1308 0.930 . S
C1314 C1315 1.367 . S
C1314 C1322 1.378 . S
C1315 C1314 1.367 . S
C1315 C1323 1.433 . S
C1316 H1312 0.929 . S
C1316 C1318 1.378 . S
C1316 C1320 1.350 . S
C1317 C1320 1.463 . S
C1317 C1322 1.350 . S
C1317 N1325 1.427 . S
C1318 H1309 0.930 . S
C1318 C1316 1.378 . S
C1318 C1319 1.367 . S
C1319 C1318 1.367 . S
C1319 C1321 1.433 . S
C1320 C1316 1.350 . S
C1320 C1317 1.463 . S
C1320 N1324 1.427 . S
C1321 H1311 0.929 . S
C1321 C1319 1.433 . S
C1321 N1324 1.384 . S
C1322 H1313 0.929 . S
C1322 C1314 1.378 . S
C1322 C1317 1.350 . S
C1323 H1310 0.929 . S
C1323 C1315 1.433 . S
C1323 N1325 1.384 . S
N1324 C1320 1.427 . S
N1324 C1321 1.384 . S
N1325 C1317 1.427 . S
N1325 C1323 1.384 . S
H1326 C1332 0.930 . S
H1327 C1336 0.930 . S
H1328 C1341 0.929 . S
H1329 C1339 0.929 . S
H1330 C1334 0.929 . S
H1331 C1340 0.929 . S
C1332 H1326 0.930 . S
C1332 C1333 1.367 . S
C1332 C1340 1.378 . S
C1333 C1332 1.367 . S
C1333 C1341 1.433 . S
C1334 H1330 0.929 . S
C1334 C1336 1.378 . S
C1334 C1338 1.350 . S
C1335 C1338 1.463 . S
C1335 C1340 1.350 . S
C1335 N1343 1.427 . S
C1336 H1327 0.930 . S
C1336 C1334 1.378 . S
C1336 C1337 1.367 . S
C1337 C1336 1.367 . S
C1337 C1339 1.433 . S
C1338 C1334 1.350 . S
C1338 C1335 1.463 . S
C1338 N1342 1.427 . S
C1339 H1329 0.929 . S
C1339 C1337 1.433 . S
C1339 N1342 1.384 . S
C1340 H1331 0.929 . S
C1340 C1332 1.378 . S
C1340 C1335 1.350 . S
C1341 H1328 0.929 . S
C1341 C1333 1.433 . S
C1341 N1343 1.384 . S
N1342 C1338 1.427 . S
N1342 C1339 1.384 . S
N1343 C1335 1.427 . S
N1343 C1341 1.384 . S
H1344 C1350 0.930 . S
H1345 C1354 0.930 . S
H1346 C1359 0.929 . S
H1347 C1357 0.929 . S
H1348 C1352 0.929 . S
H1349 C1358 0.929 . S
C1350 H1344 0.930 . S
C1350 C1351 1.367 . S
C1350 C1358 1.378 . S
C1351 C1350 1.367 . S
C1351 C1359 1.433 . S
C1352 H1348 0.929 . S
C1352 C1354 1.378 . S
C1352 C1356 1.350 . S
C1353 C1356 1.463 . S
C1353 C1358 1.350 . S
C1353 N1361 1.427 . S
C1354 H1345 0.930 . S
C1354 C1352 1.378 . S
C1354 C1355 1.367 . S
C1355 C1354 1.367 . S
C1355 C1357 1.433 . S
C1356 C1352 1.350 . S
C1356 C1353 1.463 . S
C1356 N1360 1.427 . S
C1357 H1347 0.929 . S
C1357 C1355 1.433 . S
C1357 N1360 1.384 . S
C1358 H1349 0.929 . S
C1358 C1350 1.378 . S
C1358 C1353 1.350 . S
C1359 H1346 0.929 . S
C1359 C1351 1.433 . S
C1359 N1361 1.384 . S
N1360 C1356 1.427 . S
N1360 C1357 1.384 . S
N1361 C1353 1.427 . S
N1361 C1359 1.384 . S
H1362 C1368 0.930 . S
H1363 C1372 0.930 . S
H1364 C1377 0.929 . S
H1365 C1375 0.929 . S
H1366 C1370 0.929 . S
H1367 C1376 0.929 . S
C1368 H1362 0.930 . S
C1368 C1369 1.367 . S
C1368 C1376 1.378 . S
C1369 C1368 1.367 . S
C1369 C1377 1.433 . S
C1370 H1366 0.929 . S
C1370 C1372 1.378 . S
C1370 C1374 1.350 . S
C1371 C1374 1.463 . S
C1371 C1376 1.350 . S
C1371 N1379 1.427 . S
C1372 H1363 0.930 . S
C1372 C1370 1.378 . S
C1372 C1373 1.367 . S
C1373 C1372 1.367 . S
C1373 C1375 1.433 . S
C1374 C1370 1.350 . S
C1374 C1371 1.463 . S
C1374 N1378 1.427 . S
C1375 H1365 0.929 . S
C1375 C1373 1.433 . S
C1375 N1378 1.384 . S
C1376 H1367 0.929 . S
C1376 C1368 1.378 . S
C1376 C1371 1.350 . S
C1377 H1364 0.929 . S
C1377 C1369 1.433 . S
C1377 N1379 1.384 . S
N1378 C1374 1.427 . S
N1378 C1375 1.384 . S
N1379 C1371 1.427 . S
N1379 C1377 1.384 . S
H1380 C1386 0.930 . S
H1381 C1390 0.930 . S
H1382 C1395 0.929 . S
H1383 C1393 0.929 . S
H1384 C1388 0.929 . S
H1385 C1394 0.929 . S
C1386 H1380 0.930 . S
C1386 C1387 1.367 . S
C1386 C1394 1.378 . S
C1387 C1386 1.367 . S
C1387 C1395 1.433 . S
C1388 H1384 0.929 . S
C1388 C1390 1.378 . S
C1388 C1392 1.350 . S
C1389 C1392 1.463 . S
C1389 C1394 1.350 . S
C1389 N1397 1.427 . S
C1390 H1381 0.930 . S
C1390 C1388 1.378 . S
C1390 C1391 1.367 . S
C1391 C1390 1.367 . S
C1391 C1393 1.433 . S
C1392 C1388 1.350 . S
C1392 C1389 1.463 . S
C1392 N1396 1.427 . S
C1393 H1383 0.929 . S
C1393 C1391 1.433 . S
C1393 N1396 1.384 . S
C1394 H1385 0.929 . S
C1394 C1386 1.378 . S
C1394 C1389 1.350 . S
C1395 H1382 0.929 . S
C1395 C1387 1.433 . S
C1395 N1397 1.384 . S
N1396 C1392 1.427 . S
N1396 C1393 1.384 . S
N1397 C1389 1.427 . S
N1397 C1395 1.384 . S
H1398 C1404 0.930 . S
H1399 C1408 0.930 . S
H1400 C1413 0.929 . S
H1401 C1411 0.929 . S
H1402 C1406 0.929 . S
H1403 C1412 0.929 . S
C1404 H1398 0.930 . S
C1404 C1405 1.367 . S
C1404 C1412 1.378 . S
C1405 C1404 1.367 . S
C1405 C1413 1.432 1_655 S
C1406 H1402 0.929 . S
C1406 C1408 1.378 . S
C1406 C1410 1.350 . S
C1407 C1410 1.463 1_655 S
C1407 C1412 1.350 . S
C1407 N1415 1.427 1_655 S
C1408 H1399 0.930 . S
C1408 C1406 1.378 . S
C1408 C1409 1.367 . S
C1409 C1408 1.367 . S
C1409 C1411 1.432 1_455 S
C1410 C1406 1.350 . S
C1410 C1407 1.463 1_455 S
C1410 N1414 1.427 1_455 S
C1411 H1401 0.929 . S
C1411 C1409 1.432 1_655 S
C1411 N1414 1.386 . S
C1412 H1403 0.929 . S
C1412 C1404 1.378 . S
C1412 C1407 1.350 . S
C1413 H1400 0.929 . S
C1413 C1405 1.432 1_455 S
C1413 N1415 1.386 . S
N1414 C1410 1.427 1_655 S
N1414 C1411 1.386 . S
N1415 C1407 1.427 1_455 S
N1415 C1413 1.386 . S
H1416 C1422 0.930 . S
H1417 C1426 0.930 . S
H1418 C1431 0.929 . S
H1419 C1429 0.929 . S
H1420 C1424 0.929 . S
H1421 C1430 0.929 . S
C1422 H1416 0.930 . S
C1422 C1423 1.367 . S
C1422 C1430 1.378 . S
C1423 C1422 1.367 . S
C1423 C1431 1.433 1_545 S
C1424 H1420 0.929 . S
C1424 C1426 1.378 . S
C1424 C1428 1.350 . S
C1425 C1428 1.463 1_545 S
C1425 C1430 1.350 . S
C1425 N1433 1.427 1_545 S
C1426 H1417 0.930 . S
C1426 C1424 1.378 . S
C1426 C1427 1.367 . S
C1427 C1426 1.367 . S
C1427 C1429 1.433 1_565 S
C1428 C1424 1.350 . S
C1428 C1425 1.463 1_565 S
C1428 N1432 1.427 1_565 S
C1429 H1419 0.929 . S
C1429 C1427 1.433 1_545 S
C1429 N1432 1.384 . S
C1430 H1421 0.929 . S
C1430 C1422 1.378 . S
C1430 C1425 1.350 . S
C1431 H1418 0.929 . S
C1431 C1423 1.433 1_565 S
C1431 N1433 1.384 . S
N1432 C1428 1.427 1_545 S
N1432 C1429 1.384 . S
N1433 C1425 1.427 1_565 S
N1433 C1431 1.384 . S
H1434 C1440 0.930 . S
H1435 C1444 0.930 . S
H1436 C1449 0.929 . S
H1437 C1447 0.929 . S
H1438 C1442 0.929 . S
H1439 C1448 0.929 . S
C1440 H1434 0.930 . S
C1440 C1441 1.367 . S
C1440 C1448 1.378 . S
C1441 C1440 1.367 . S
C1441 C1449 1.433 . S
C1442 H1438 0.929 . S
C1442 C1444 1.378 . S
C1442 C1446 1.350 . S
C1443 C1446 1.463 . S
C1443 C1448 1.350 . S
C1443 N1451 1.427 . S
C1444 H1435 0.930 . S
C1444 C1442 1.378 . S
C1444 C1445 1.367 . S
C1445 C1444 1.367 . S
C1445 C1447 1.433 . S
C1446 C1442 1.350 . S
C1446 C1443 1.463 . S
C1446 N1450 1.427 . S
C1447 H1437 0.929 . S
C1447 C1445 1.433 . S
C1447 N1450 1.384 . S
C1448 H1439 0.929 . S
C1448 C1440 1.378 . S
C1448 C1443 1.350 . S
C1449 H1436 0.929 . S
C1449 C1441 1.433 . S
C1449 N1451 1.384 . S
N1450 C1446 1.427 . S
N1450 C1447 1.384 . S
N1451 C1443 1.427 . S
N1451 C1449 1.384 . S
H1452 C1458 0.930 . S
H1453 C1462 0.930 . S
H1454 C1467 0.929 . S
H1455 C1465 0.929 . S
H1456 C1460 0.929 . S
H1457 C1466 0.929 . S
C1458 H1452 0.930 . S
C1458 C1459 1.367 1_655 S
C1458 C1466 1.378 . S
C1459 C1458 1.367 1_455 S
C1459 C1467 1.433 . S
C1460 H1456 0.929 . S
C1460 C1462 1.378 . S
C1460 C1464 1.311 1_455 S
C1461 C1464 1.502 1_455 S
C1461 C1466 1.311 1_455 S
C1461 N1469 1.451 . S
C1462 H1453 0.930 . S
C1462 C1460 1.378 . S
C1462 C1463 1.367 1_455 S
C1463 C1462 1.367 1_655 S
C1463 C1465 1.433 . S
C1464 C1460 1.311 1_655 S
C1464 C1461 1.502 1_655 S
C1464 N1468 1.451 . S
C1465 H1455 0.929 . S
C1465 C1463 1.433 . S
C1465 N1468 1.384 . S
C1466 H1457 0.929 . S
C1466 C1458 1.378 . S
C1466 C1461 1.311 1_655 S
C1467 H1454 0.929 . S
C1467 C1459 1.433 . S
C1467 N1469 1.384 . S
N1468 C1464 1.451 . S
N1468 C1465 1.384 . S
N1469 C1461 1.451 . S
N1469 C1467 1.384 . S
H1470 C1476 0.930 . S
H1471 C1480 0.930 . S
H1472 C1485 0.929 . S
H1473 C1483 0.929 . S
H1474 C1478 0.929 . S
H1475 C1484 0.929 . S
C1476 H1470 0.930 . S
C1476 C1477 1.367 . S
C1476 C1484 1.378 . S
C1477 C1476 1.367 . S
C1477 C1485 1.433 1_565 S
C1478 H1474 0.929 . S
C1478 C1480 1.378 . S
C1478 C1482 1.350 . S
C1479 C1482 1.463 1_565 S
C1479 C1484 1.350 . S
C1479 N1487 1.427 1_565 S
C1480 H1471 0.930 . S
C1480 C1478 1.378 . S
C1480 C1481 1.367 . S
C1481 C1480 1.367 . S
C1481 C1483 1.433 1_545 S
C1482 C1478 1.350 . S
C1482 C1479 1.463 1_545 S
C1482 N1486 1.427 1_545 S
C1483 H1473 0.929 . S
C1483 C1481 1.433 1_565 S
C1483 N1486 1.384 . S
C1484 H1475 0.929 . S
C1484 C1476 1.378 . S
C1484 C1479 1.350 . S
C1485 H1472 0.929 . S
C1485 C1477 1.433 1_545 S
C1485 N1487 1.384 . S
N1486 C1482 1.427 1_565 S
N1486 C1483 1.384 . S
N1487 C1479 1.427 1_545 S
N1487 C1485 1.384 . S
C1063 C673 1.480 . S
C1067 C29 1.487 . S
C1081 C137 1.482 . S
C1085 C753 1.473 . S
C1099 C233 1.478 . S
C1103 C849 1.474 . S
C1117 C284 1.479 . S
C1121 C929 1.473 . S
C1135 C1025 1.475 . S
C1139 C372 1.477 . S
C1153 C557 1.487 . S
C1157 C460 1.481 . S
C1171 C909 0.949 . S
C1175 C49 0.948 . S
C1189 C117 0.950 . S
C1193 C988 0.948 . S
C1207 C196 0.952 . S
C1211 C577 0.951 . S
C1225 C636 0.952 . S
C1229 C321 0.951 . S
C1243 C733 0.951 . S
C1247 C409 0.952 . S
C1261 C812 0.952 . S
C1265 C497 0.951 . S
C1279 C20 1.662 . S
C1283 C761 1.662 . S
C1297 C145 1.662 . S
C1301 C841 1.660 . S
C1315 C937 1.661 . S
C1319 C225 1.661 . S
C1333 C293 1.661 . S
C1337 C1017 1.661 . S
C1351 C548 1.662 . S
C1355 C381 1.662 . S
C1369 C665 1.663 . S
C1373 C469 1.662 . S
C1387 C313 1.859 . S
C1391 C57 1.856 . S
C1405 C401 1.853 . S
C1409 C108 1.850 . S
C1423 C205 1.847 . S
C1427 C489 1.850 . S
C1441 C585 1.848 . S
C1445 C821 1.852 . S
C1459 C645 1.861 . S
C1463 C900 1.863 . S
C1477 C997 1.846 . S
C1481 C724 1.849 . S
