# Generated by pormake.
# Topology umz, (4)-cn, num edge types: 1
# Building blocks:
#     Node 0, Type 0, BuildingBlock: CEKHIL_clean_sbu_0, # of connection points: 4
#     Node 1, Type 0, BuildingBlock: CEKHIL_clean_sbu_0, # of connection points: 4
#     Node 2, Type 0, BuildingBlock: CEKHIL_clean_sbu_0, # of connection points: 4
#     Node 3, Type 0, BuildingBlock: CEKHIL_clean_sbu_0, # of connection points: 4
#     Node 4, Type 0, BuildingBlock: CEKHIL_clean_sbu_0, # of connection points: 4
#     Node 5, Type 0, BuildingBlock: CEKHIL_clean_sbu_0, # of connection points: 4
#     Node 6, Type 0, BuildingBlock: CEKHIL_clean_sbu_0, # of connection points: 4
#     Node 7, Type 0, BuildingBlock: CEKHIL_clean_sbu_0, # of connection points: 4
#     Node 8, Type 0, BuildingBlock: CEKHIL_clean_sbu_0, # of connection points: 4
#     Node 9, Type 0, BuildingBlock: CEKHIL_clean_sbu_0, # of connection points: 4
#     Node 10, Type 0, BuildingBlock: CEKHIL_clean_sbu_0, # of connection points: 4
#     Node 11, Type 0, BuildingBlock: CEKHIL_clean_sbu_0, # of connection points: 4
#     Node 12, Type 0, BuildingBlock: CEKHIL_clean_sbu_0, # of connection points: 4
#     Node 13, Type 0, BuildingBlock: CEKHIL_clean_sbu_0, # of connection points: 4
#     Node 14, Type 0, BuildingBlock: CEKHIL_clean_sbu_0, # of connection points: 4
#     Node 15, Type 0, BuildingBlock: CEKHIL_clean_sbu_0, # of connection points: 4
#     Edge 16, Type (0, 0), BuildingBlock: EZIPEK_clean_linker_0, # of connection points: 2
#     Edge 17, Type (0, 0), BuildingBlock: EZIPEK_clean_linker_0, # of connection points: 2
#     Edge 18, Type (0, 0), BuildingBlock: EZIPEK_clean_linker_0, # of connection points: 2
#     Edge 19, Type (0, 0), BuildingBlock: EZIPEK_clean_linker_0, # of connection points: 2
#     Edge 20, Type (0, 0), BuildingBlock: EZIPEK_clean_linker_0, # of connection points: 2
#     Edge 21, Type (0, 0), BuildingBlock: EZIPEK_clean_linker_0, # of connection points: 2
#     Edge 22, Type (0, 0), BuildingBlock: EZIPEK_clean_linker_0, # of connection points: 2
#     Edge 23, Type (0, 0), BuildingBlock: EZIPEK_clean_linker_0, # of connection points: 2
#     Edge 24, Type (0, 0), BuildingBlock: EZIPEK_clean_linker_0, # of connection points: 2
#     Edge 25, Type (0, 0), BuildingBlock: EZIPEK_clean_linker_0, # of connection points: 2
#     Edge 26, Type (0, 0), BuildingBlock: EZIPEK_clean_linker_0, # of connection points: 2
#     Edge 27, Type (0, 0), BuildingBlock: EZIPEK_clean_linker_0, # of connection points: 2
#     Edge 28, Type (0, 0), BuildingBlock: EZIPEK_clean_linker_0, # of connection points: 2
#     Edge 29, Type (0, 0), BuildingBlock: EZIPEK_clean_linker_0, # of connection points: 2
#     Edge 30, Type (0, 0), BuildingBlock: EZIPEK_clean_linker_0, # of connection points: 2
#     Edge 31, Type (0, 0), BuildingBlock: EZIPEK_clean_linker_0, # of connection points: 2
#     Edge 32, Type (0, 0), BuildingBlock: EZIPEK_clean_linker_0, # of connection points: 2
#     Edge 33, Type (0, 0), BuildingBlock: EZIPEK_clean_linker_0, # of connection points: 2
#     Edge 34, Type (0, 0), BuildingBlock: EZIPEK_clean_linker_0, # of connection points: 2
#     Edge 35, Type (0, 0), BuildingBlock: EZIPEK_clean_linker_0, # of connection points: 2
#     Edge 36, Type (0, 0), BuildingBlock: EZIPEK_clean_linker_0, # of connection points: 2
#     Edge 37, Type (0, 0), BuildingBlock: EZIPEK_clean_linker_0, # of connection points: 2
#     Edge 38, Type (0, 0), BuildingBlock: EZIPEK_clean_linker_0, # of connection points: 2
#     Edge 39, Type (0, 0), BuildingBlock: EZIPEK_clean_linker_0, # of connection points: 2
#     Edge 40, Type (0, 0), BuildingBlock: EZIPEK_clean_linker_0, # of connection points: 2
#     Edge 41, Type (0, 0), BuildingBlock: EZIPEK_clean_linker_0, # of connection points: 2
#     Edge 42, Type (0, 0), BuildingBlock: EZIPEK_clean_linker_0, # of connection points: 2
#     Edge 43, Type (0, 0), BuildingBlock: EZIPEK_clean_linker_0, # of connection points: 2
#     Edge 44, Type (0, 0), BuildingBlock: EZIPEK_clean_linker_0, # of connection points: 2
#     Edge 45, Type (0, 0), BuildingBlock: EZIPEK_clean_linker_0, # of connection points: 2
#     Edge 46, Type (0, 0), BuildingBlock: EZIPEK_clean_linker_0, # of connection points: 2
#     Edge 47, Type (0, 0), BuildingBlock: EZIPEK_clean_linker_0, # of connection points: 2
# Relax obj value: 0.257
# Max RMSD: 0.167
# Mean RMSD: 0.167
data_MOF--net-umz--node1-CEKHIL_clean_sbu_0--edge1-EZIPEK_clean_linker_0
_symmetry_space_group_name_H-M    P1
_symmetry_Int_Tables_number       1
_symmetry_cell_setting            triclinic
loop_
_symmetry_equiv_pos_as_xyz
'x, y, z'
_cell_length_a     42.519844
_cell_length_b     42.498748
_cell_length_c     16.526853
_cell_angle_alpha  89.910255
_cell_angle_beta   90.070162
_cell_angle_gamma 89.98457
loop_
_atom_site_label
_atom_site_type_symbol
_atom_site_fract_x
_atom_site_fract_y
_atom_site_fract_z
_atom_type_partial_charge
Co0 Co 0.99989 0.64167 0.10817 0.0
O1 O 0.98656 0.6755 0.03914 0.0
O2 O 0.02813 0.67691 0.12071 0.0
C3 C 0.9528 0.62948 0.16234 0.0
O4 O 0.01968 0.61183 0.19041 0.0
Co5 Co 0.97487 0.57405 0.07264 0.0
O6 O 0.00344 0.56265 0.16272 0.0
C7 C 0.02364 0.60077 0.96929 0.0
C8 C 0.01013 0.69116 0.0686 0.0
C9 C 0.01945 0.58205 0.20477 0.0
O10 O 0.02711 0.62399 0.0184 0.0
O11 O 0.00181 0.58029 0.97539 0.0
O12 O 0.96853 0.65352 0.18896 0.0
O13 O 0.9636 0.61704 0.09677 0.0
Co14 Co 0.87296 0.00279 0.59637 0.0
O15 O 0.84806 0.98231 0.51403 0.0
O16 O 0.83446 0.02568 0.57923 0.0
C17 C 0.88432 0.95787 0.66407 0.0
O18 O 0.89047 0.03118 0.68595 0.0
Co19 Co 0.94293 0.98827 0.63464 0.0
O20 O 0.93702 0.01381 0.73242 0.0
C21 C 0.92559 0.02975 0.49517 0.0
C22 C 0.82709 0.00395 0.52743 0.0
C23 C 0.91368 0.03239 0.73591 0.0
O24 O 0.89596 0.02736 0.51021 0.0
O25 O 0.9468 0.01681 0.53909 0.0
O26 O 0.85775 0.97222 0.67633 0.0
O27 O 0.90233 0.97033 0.61032 0.0
Co28 Co 0.49396 0.86041 0.10439 0.0
O29 O 0.511 0.8309 0.02698 0.0
O30 O 0.4673 0.82386 0.09794 0.0
C31 C 0.54018 0.87038 0.16888 0.0
O32 O 0.46924 0.88299 0.19143 0.0
Co33 Co 0.5165 0.9304 0.11782 0.0
O34 O 0.48855 0.93153 0.21369 0.0
C35 C 0.47366 0.91131 0.9859 0.0
C36 C 0.48771 0.81269 0.04725 0.0
C37 C 0.46954 0.90922 0.22958 0.0
O38 O 0.46951 0.88363 0.01691 0.0
O39 O 0.49354 0.93138 0.0125 0.0
O40 O 0.5242 0.84521 0.18617 0.0
O41 O 0.52889 0.88689 0.11036 0.0
Co42 Co 0.63439 0.49615 0.60797 0.0
O43 O 0.66501 0.51382 0.53529 0.0
O44 O 0.67303 0.47242 0.61425 0.0
C45 C 0.61893 0.54259 0.66275 0.0
O46 O 0.60947 0.47126 0.69178 0.0
Co47 Co 0.56292 0.51366 0.59816 0.0
O48 O 0.55936 0.48831 0.69826 0.0
C49 C 0.5913 0.46973 0.47973 0.0
C50 C 0.6842 0.49237 0.56203 0.0
C51 C 0.58173 0.47079 0.72286 0.0
O52 O 0.6175 0.46857 0.51879 0.0
O53 O 0.56842 0.48795 0.49782 0.0
O54 O 0.64433 0.5287 0.68788 0.0
O55 O 0.60546 0.52931 0.60187 0.0
Co56 Co 0.00935 0.86696 0.89923 0.0
O57 O 0.99085 0.83711 0.97323 0.0
O58 O 0.03644 0.83094 0.90977 0.0
C59 C 0.96414 0.87609 0.83018 0.0
O60 O 0.03614 0.89042 0.81618 0.0
Co61 Co 0.98727 0.93631 0.87721 0.0
O62 O 0.01445 0.93672 0.78093 0.0
C63 C 0.02845 0.91793 0.01637 0.0
C64 C 0.01511 0.81952 0.9576 0.0
C65 C 0.03515 0.91543 0.77238 0.0
O66 O 0.03071 0.88922 0.99218 0.0
O67 O 0.01242 0.93892 0.97892 0.0
O68 O 0.98131 0.85166 0.81334 0.0
O69 O 0.97414 0.8931 0.88917 0.0
Co70 Co 0.64677 0.99538 0.38111 0.0
O71 O 0.67968 0.97995 0.45039 0.0
O72 O 0.68506 0.01868 0.36159 0.0
C73 C 0.62857 0.94873 0.33537 0.0
O74 O 0.61842 0.01662 0.29768 0.0
Co75 Co 0.57702 0.97888 0.42372 0.0
O76 O 0.56801 0.00656 0.33014 0.0
C77 C 0.61036 0.02655 0.51804 0.0
C78 C 0.69784 1.00058 0.41603 0.0
C79 C 0.58864 0.01945 0.28504 0.0
O80 O 0.63333 0.02651 0.46732 0.0
O81 O 0.58757 0.007 0.51606 0.0
O82 O 0.65395 0.9609 0.30498 0.0
O83 O 0.61826 0.96249 0.39967 0.0
Co84 Co 0.48785 0.63473 0.88484 0.0
O85 O 0.50833 0.66397 0.95737 0.0
O86 O 0.46264 0.67213 0.89587 0.0
C87 C 0.53213 0.62361 0.81436 0.0
O88 O 0.45924 0.61269 0.80334 0.0
Co89 Co 0.50661 0.56453 0.85997 0.0
O90 O 0.47893 0.56602 0.76457 0.0
C91 C 0.46784 0.58395 0.00247 0.0
C92 C 0.48495 0.68279 0.94188 0.0
C93 C 0.45894 0.58811 0.75815 0.0
O94 O 0.46642 0.61298 0.97928 0.0
O95 O 0.48254 0.56258 0.96317 0.0
O96 O 0.51598 0.64876 0.79738 0.0
O97 O 0.52168 0.60698 0.8735 0.0
Co98 Co 0.86149 0.50277 0.3978 0.0
O99 O 0.83364 0.51742 0.48132 0.0
O100 O 0.82477 0.47618 0.40272 0.0
C101 C 0.87011 0.55083 0.34123 0.0
O102 O 0.88351 0.481 0.30452 0.0
Co103 Co 0.93084 0.52735 0.38619 0.0
O104 O 0.93025 0.50428 0.28204 0.0
C105 C 0.9134 0.47969 0.50902 0.0
C106 C 0.81464 0.49521 0.45844 0.0
C107 C 0.90909 0.48432 0.26425 0.0
O108 O 0.88573 0.47595 0.47804 0.0
O109 O 0.93285 0.50087 0.48595 0.0
O110 O 0.84506 0.53493 0.32284 0.0
O111 O 0.88722 0.53819 0.3967 0.0
Co112 Co 0.99664 0.3719 0.89846 0.0
O113 O 0.00909 0.34156 0.97936 0.0
O114 O 0.96856 0.33635 0.89579 0.0
C115 C 0.04578 0.38061 0.84903 0.0
O116 O 0.97689 0.39617 0.80535 0.0
Co117 Co 0.02141 0.44115 0.89645 0.0
O118 O 0.99845 0.44428 0.79231 0.0
C119 C 0.97142 0.42212 0.0109 0.0
C120 C 0.98607 0.32438 0.95242 0.0
C121 C 0.97949 0.42286 0.76945 0.0
O122 O 0.969 0.39465 0.97855 0.0
O123 O 0.9921 0.44255 0.99087 0.0
O124 O 0.02957 0.35633 0.82593 0.0
O125 O 0.0326 0.3972 0.9047 0.0
Co126 Co 0.13927 0.00407 0.39321 0.0
O127 O 0.17079 0.02086 0.4642 0.0
O128 O 0.17746 0.97958 0.38424 0.0
C129 C 0.12306 0.04971 0.33553 0.0
O130 O 0.11216 0.98123 0.31031 0.0
Co131 Co 0.06985 0.02311 0.42718 0.0
O132 O 0.06177 0.99185 0.34095 0.0
C133 C 0.09972 0.97677 0.53115 0.0
C134 C 0.18925 0.99896 0.43712 0.0
C135 C 0.08244 0.97821 0.29762 0.0
O136 O 0.12346 0.97545 0.48294 0.0
O137 O 0.07754 0.99682 0.52456 0.0
O138 O 0.14867 0.03609 0.3111 0.0
O139 O 0.11133 0.03814 0.40116 0.0
Co140 Co 0.51836 0.13286 0.88506 0.0
O141 O 0.49697 0.16122 0.95798 0.0
O142 O 0.54346 0.17008 0.90166 0.0
C143 C 0.47518 0.12285 0.80941 0.0
O144 O 0.54788 0.11141 0.80458 0.0
Co145 Co 0.49946 0.06305 0.85515 0.0
O146 O 0.52752 0.06569 0.76079 0.0
C147 C 0.53685 0.08088 0.00128 0.0
C148 C 0.52055 0.18015 0.9466 0.0
C149 C 0.54798 0.08743 0.7572 0.0
O150 O 0.53851 0.11006 0.97971 0.0
O151 O 0.52244 0.05985 0.96002 0.0
O152 O 0.49165 0.14809 0.79593 0.0
O153 O 0.48449 0.10553 0.8686 0.0
Co154 Co 0.35621 0.49969 0.38087 0.0
O155 O 0.32329 0.48502 0.45115 0.0
O156 O 0.3187 0.52466 0.36424 0.0
C157 C 0.37288 0.4527 0.33376 0.0
O158 O 0.38464 0.52041 0.29691 0.0
Co159 Co 0.42573 0.48091 0.42081 0.0
O160 O 0.4349 0.5092 0.32859 0.0
C161 C 0.39428 0.52875 0.51804 0.0
C162 C 0.30589 0.50685 0.41912 0.0
C163 C 0.41442 0.52271 0.28403 0.0
O164 O 0.37122 0.5299 0.46754 0.0
O165 O 0.41631 0.50837 0.51505 0.0
O166 O 0.34768 0.46561 0.30399 0.0
O167 O 0.38382 0.46608 0.39782 0.0
Co168 Co 0.99559 0.14634 0.10432 0.0
O169 O 0.00843 0.17935 0.03216 0.0
O170 O 0.96818 0.18226 0.11728 0.0
C171 C 0.04457 0.13428 0.15238 0.0
O172 O 0.97666 0.11809 0.19043 0.0
Co173 Co 0.02004 0.07802 0.0728 0.0
O174 O 0.99609 0.06933 0.1729 0.0
C175 C 0.96892 0.10336 0.97297 0.0
C176 C 0.98567 0.19579 0.06288 0.0
C177 C 0.9792 0.08909 0.21134 0.0
O178 O 0.96682 0.128 0.0181 0.0
O179 O 0.99032 0.08245 0.98036 0.0
O180 O 0.02871 0.15774 0.18179 0.0
O181 O 0.03138 0.12138 0.09045 0.0
Co182 Co 0.36766 1.0012 0.6014 0.0
O183 O 0.3382 0.01793 0.52425 0.0
O184 O 0.32825 0.97871 0.60887 0.0
C185 C 0.38425 0.04821 0.65064 0.0
O186 O 0.39209 0.97789 0.68962 0.0
Co187 Co 0.43953 0.01685 0.58756 0.0
O188 O 0.44208 0.99565 0.69402 0.0
C189 C 0.4102 0.969 0.48102 0.0
C190 C 0.31827 0.9975 0.55217 0.0
C191 C 0.41985 0.97854 0.72106 0.0
O192 O 0.38381 0.97076 0.5184 0.0
O193 O 0.43398 0.98654 0.49591 0.0
O194 O 0.35823 0.03568 0.67583 0.0
O195 O 0.39739 0.03347 0.59147 0.0
Co196 Co 0.50579 0.35763 0.10955 0.0
O197 O 0.48878 0.32567 0.03918 0.0
O198 O 0.53241 0.32087 0.11203 0.0
C199 C 0.45984 0.37051 0.17128 0.0
O200 O 0.53033 0.3842 0.19007 0.0
Co201 Co 0.48334 0.42788 0.10081 0.0
O202 O 0.50844 0.43227 0.20117 0.0
C203 C 0.52809 0.40295 0.97955 0.0
C204 C 0.51238 0.30839 0.06211 0.0
C205 C 0.52832 0.4115 0.22309 0.0
O206 O 0.53066 0.37646 0.01706 0.0
O207 O 0.50905 0.42486 -0.00012 0.0
O208 O 0.47551 0.34582 0.19424 0.0
O209 O 0.47093 0.38436 0.10809 0.0
Co210 Co 0.13145 0.50728 0.60114 0.0
O211 O 0.1607 0.48714 0.52837 0.0
O212 O 0.16755 0.53393 0.585 0.0
C213 C 0.12259 0.46387 0.67718 0.0
O214 O 0.10853 0.53583 0.68146 0.0
Co215 Co 0.0622 0.48592 0.62752 0.0
O216 O 0.06322 0.51377 0.72254 0.0
C217 C 0.0795 0.52554 0.48483 0.0
C218 C 0.17851 0.51162 0.53945 0.0
C219 C 0.0842 0.53497 0.72765 0.0
O220 O 0.10857 0.527 0.50654 0.0
O221 O 0.05853 0.51065 0.52518 0.0
O222 O 0.14736 0.48108 0.69024 0.0
O223 O 0.10529 0.47236 0.61706 0.0
C224 C 0.02091 0.73026 0.95984 0.0
C225 C 0.0158 0.72399 0.04294 0.0
C226 C 0.01641 0.78057 0.07171 0.0
C227 C 0.017 0.78674 0.98738 0.0
N228 N 0.01488 0.76734 0.84994 0.0
N229 N 0.00526 0.74284 0.17797 0.0
C230 C 0.0182 0.76159 0.93096 0.0
C231 C 0.01292 0.74903 0.09921 0.0
N232 N 0.02896 0.7063 0.90877 0.0
N233 N 0.01995 0.80475 0.1254 0.0
H234 H 0.00255 0.72011 0.20066 0.0
H235 H 0.99924 0.76026 0.2194 0.0
H236 H 0.02284 0.8281 0.1072 0.0
H237 H 0.02291 0.8014 0.18737 0.0
H238 H 0.03605 0.70988 0.84915 0.0
H239 H 0.0317 0.68311 0.92839 0.0
H240 H 0.01204 0.74959 0.80718 0.0
H241 H 0.01194 0.78981 0.82575 0.0
C242 C 0.74754 0.03111 0.44859 0.0
C243 C 0.73193 0.00196 0.43604 0.0
C244 C 0.77841 0.97398 0.48575 0.0
C245 C 0.79519 0.00285 0.49043 0.0
N246 N 0.79778 0.05779 0.4531 0.0
N247 N 0.73713 0.94579 0.41677 0.0
C248 C 0.78041 0.03112 0.46458 0.0
C249 C 0.74881 0.97342 0.44639 0.0
N250 N 0.731 0.05867 0.44989 0.0
N251 N 0.78934 0.94744 0.52317 0.0
H252 H 0.71647 0.94455 0.38285 0.0
H253 H 0.75 0.9249 0.41726 0.0
H254 H 0.80952 0.9469 0.55888 0.0
H255 H 0.77616 0.9268 0.52692 0.0
H256 H 0.74109 0.08005 0.46659 0.0
H257 H 0.70668 0.0598 0.44301 0.0
H258 H 0.78846 0.07823 0.42767 0.0
H259 H 0.82216 0.05832 0.45995 0.0
C260 C 0.48279 0.77239 0.93703 0.0
C261 C 0.48619 0.77946 0.02029 0.0
C262 C 0.48539 0.72303 0.05298 0.0
C263 C 0.48506 0.71599 0.96923 0.0
N264 N 0.48934 0.73384 0.83075 0.0
N265 N 0.49623 0.76166 0.15686 0.0
C266 C 0.48529 0.74063 0.91092 0.0
C267 C 0.48891 0.75482 0.07824 0.0
N268 N 0.4761 0.79591 0.88321 0.0
N269 N 0.48128 0.69947 0.1084 0.0
H270 H 0.49936 0.78454 0.17799 0.0
H271 H 0.50199 0.74458 0.19964 0.0
H272 H 0.47851 0.67593 0.0921 0.0
H273 H 0.47782 0.70354 0.16988 0.0
H274 H 0.47004 0.79185 0.82304 0.0
H275 H 0.47366 0.81935 0.90058 0.0
H276 H 0.49317 0.75096 0.78671 0.0
H277 H 0.49185 0.71098 0.8089 0.0
C278 C 0.73434 0.5214 0.53377 0.0
C279 C 0.71795 0.49239 0.53848 0.0
C280 C 0.76697 0.46475 0.50572 0.0
C281 C 0.78161 0.49399 0.48786 0.0
N282 N 0.77469 0.54987 0.46291 0.0
N283 N 0.71773 0.43638 0.51234 0.0
C284 C 0.76409 0.5223 0.49571 0.0
C285 C 0.73398 0.46393 0.52004 0.0
N286 N 0.72232 0.548 0.56831 0.0
N287 N 0.78455 0.43795 0.51185 0.0
H288 H 0.69336 0.43493 0.5179 0.0
H289 H 0.72808 0.41567 0.49163 0.0
H290 H 0.80895 0.4378 0.5058 0.0
H291 H 0.77528 0.41661 0.53189 0.0
H292 H 0.73498 0.56898 0.57176 0.0
H293 H 0.70171 0.54814 0.60237 0.0
H294 H 0.76111 0.5703 0.46183 0.0
H295 H 0.79492 0.55149 0.42773 0.0
C296 C 0.97897 0.28527 0.06482 0.0
C297 C 0.98165 0.29157 0.98082 0.0
C298 C 0.9777 0.23514 0.95273 0.0
C299 C 0.98056 0.22871 0.03653 0.0
N300 N 0.98786 0.24787 0.17296 0.0
N301 N 0.98858 0.27181 0.84465 0.0
C302 C 0.98194 0.2538 0.09308 0.0
C303 C 0.98206 0.26636 0.92444 0.0
N304 N 0.97277 0.30925 0.11734 0.0
N305 N 0.97025 0.21145 0.90028 0.0
H306 H 0.99322 0.29409 0.82114 0.0
H307 H 0.9925 0.25381 0.80312 0.0
H308 H 0.96591 0.18847 0.9196 0.0
H309 H 0.96499 0.21529 0.83946 0.0
H310 H 0.96769 0.30571 0.17832 0.0
H311 H 0.96935 0.33235 0.09793 0.0
H312 H 0.99262 0.26554 0.21485 0.0
H313 H 0.99072 0.22527 0.19637 0.0
C314 C 0.26908 0.02597 0.51118 0.0
C315 C 0.28518 0.99707 0.523 0.0
C316 C 0.23709 0.96866 0.48556 0.0
C317 C 0.22269 0.99758 0.4632 0.0
N318 N 0.22952 0.05289 0.43282 0.0
N319 N 0.28624 0.94071 0.50272 0.0
C320 C 0.24002 0.02601 0.46944 0.0
C321 C 0.26972 0.96827 0.5049 0.0
N322 N 0.28056 0.05332 0.54307 0.0
N323 N 0.21958 0.94184 0.49208 0.0
H324 H 0.31043 0.93951 0.5125 0.0
H325 H 0.27651 0.91964 0.48243 0.0
H326 H 0.19538 0.94126 0.48223 0.0
H327 H 0.22855 0.92092 0.51571 0.0
H328 H 0.268 0.07439 0.54156 0.0
H329 H 0.30052 0.05424 0.57964 0.0
H330 H 0.2429 0.07343 0.43029 0.0
H331 H 0.20946 0.05361 0.39654 0.0
C332 C 0.51921 0.23832 0.92068 0.0
C333 C 0.51988 0.21296 0.97686 0.0
C334 C 0.51419 0.25019 0.08916 0.0
C335 C 0.51596 0.27559 0.03333 0.0
N336 N 0.5261 0.29426 0.89807 0.0
N337 N 0.52333 0.19466 0.11461 0.0
C338 C 0.52018 0.26977 0.94964 0.0
C339 C 0.51888 0.21886 0.06122 0.0
N340 N 0.51608 0.23244 0.83972 0.0
N341 N 0.50664 0.25585 0.16822 0.0
H342 H 0.5269 0.17146 0.0962 0.0
H343 H 0.52623 0.1979 0.17662 0.0
H344 H 0.50284 0.2784 0.19104 0.0
H345 H 0.50154 0.23813 0.20973 0.0
H346 H 0.51181 0.24995 0.79695 0.0
H347 H 0.51489 0.20981 0.81565 0.0
H348 H 0.53281 0.29122 0.838 0.0
H349 H 0.52717 0.31764 0.91707 0.0
C350 C 0.24751 0.50609 0.39334 0.0
C351 C 0.27311 0.51154 0.4467 0.0
C352 C 0.23675 0.5164 0.56073 0.0
C353 C 0.21094 0.51289 0.5068 0.0
N354 N 0.19135 0.51088 0.36994 0.0
N355 N 0.2918 0.52965 0.57619 0.0
C356 C 0.21619 0.50964 0.42242 0.0
C357 C 0.26761 0.51911 0.52891 0.0
N358 N 0.25303 0.49618 0.31601 0.0
N359 N 0.23212 0.51533 0.64257 0.0
H360 H 0.3146 0.53262 0.55423 0.0
H361 H 0.28863 0.53855 0.63431 0.0
H362 H 0.2101 0.51232 0.66905 0.0
H363 H 0.25049 0.5143 0.68426 0.0
H364 H 0.23536 0.48834 0.2773 0.0
H365 H 0.27559 0.49347 0.29234 0.0
H366 H 0.19393 0.51183 0.30733 0.0
H367 H 0.16817 0.51391 0.38907 0.0
C368 C 0.07442 0.57722 0.92437 0.0
C369 C 0.0472 0.59512 0.9055 0.0
C370 C 0.05275 0.58254 0.76207 0.0
C371 C 0.07748 0.56157 0.78248 0.0
N372 N 0.11884 0.54694 0.87394 0.0
N373 N 0.01597 0.62274 0.80757 0.0
C374 C 0.09083 0.56181 0.86082 0.0
C375 C 0.03842 0.60064 0.8242 0.0
N376 N 0.08318 0.57337 0.00336 0.0
N377 N 0.04224 0.58385 0.68394 0.0
H378 H 0.00548 0.63611 0.85312 0.0
H379 H 0.00949 0.62957 0.74943 0.0
H380 H 0.05358 0.57202 0.63694 0.0
H381 H 0.02223 0.59601 0.66559 0.0
H382 H 0.10047 0.55769 0.02248 0.0
H383 H 0.07221 0.58532 0.05067 0.0
H384 H 0.13104 0.54763 0.92853 0.0
H385 H 0.13134 0.53639 0.82699 0.0
C386 C 0.98191 0.05611 0.33432 0.0
C387 C 0.96459 0.0778 0.2876 0.0
C388 C 0.92164 0.07283 0.38596 0.0
C389 C 0.93693 0.04611 0.42068 0.0
N390 N 0.97687 0.00599 0.39799 0.0
N391 N 0.91433 0.10298 0.26272 0.0
C392 C 0.96567 0.03577 0.38607 0.0
C393 C 0.9333 0.08526 0.31138 0.0
N394 N 0.01392 0.05521 0.33114 0.0
N395 N 0.89728 0.0873 0.42463 0.0
H396 H 0.92142 0.11153 0.20655 0.0
H397 H 0.89054 0.10647 0.27501 0.0
H398 H 0.88952 0.08076 0.48194 0.0
H399 H 0.88733 0.10821 0.40368 0.0
H400 H 0.02685 0.04085 0.36992 0.0
H401 H 0.02717 0.07143 0.29811 0.0
H402 H 0.99723 0.99793 0.36951 0.0
H403 H 0.96365 0.98834 0.42573 0.0
C404 C 0.43212 0.94769 0.93294 0.0
C405 C 0.45352 0.92253 0.91869 0.0
C406 C 0.44976 0.93176 0.77295 0.0
C407 C 0.42783 0.95645 0.78735 0.0
N408 N 0.39235 0.98273 0.8785 0.0
N409 N 0.47789 0.88645 0.82588 0.0
C410 C 0.4168 0.9624 0.86653 0.0
C411 C 0.46037 0.91292 0.83874 0.0
N412 N 0.42805 0.959 0.00958 0.0
N413 N 0.46175 0.92743 0.69708 0.0
H414 H 0.48733 0.87313 0.87302 0.0
H415 H 0.48099 0.87631 0.76913 0.0
H416 H 0.45455 0.94061 0.64723 0.0
H417 H 0.48038 0.91235 0.68426 0.0
H418 H 0.41571 0.97953 0.02272 0.0
H419 H 0.43931 0.94935 0.05972 0.0
H420 H 0.3813 0.98566 0.93419 0.0
H421 H 0.38122 0.99462 0.83128 0.0
C422 C 0.55373 0.40584 0.36025 0.0
C423 C 0.55212 0.42097 0.28367 0.0
C424 C 0.58699 0.46289 0.33119 0.0
C425 C 0.5863 0.44923 0.40921 0.0
N426 N 0.57805 0.40398 0.49352 0.0
N427 N 0.57449 0.45776 0.18859 0.0
C428 C 0.57285 0.41921 0.4219 0.0
C429 C 0.5713 0.44751 0.26662 0.0
N430 N 0.53551 0.38004 0.37557 0.0
N431 N 0.60138 0.49133 0.32028 0.0
H432 H 0.56328 0.44682 0.14002 0.0
H433 H 0.59019 0.47524 0.17088 0.0
H434 H 0.61457 0.50208 0.36586 0.0
H435 H 0.59948 0.5047 0.26769 0.0
H436 H 0.53263 0.37024 0.43282 0.0
H437 H 0.52192 0.36914 0.33132 0.0
H438 H 0.57092 0.38099 0.50516 0.0
H439 H 0.59219 0.41354 0.5389 0.0
C440 C 0.08509 0.93314 0.19429 0.0
C441 C 0.07061 0.96088 0.22532 0.0
C442 C 0.02559 0.95102 0.1389 0.0
C443 C 0.04246 0.92813 0.09465 0.0
N444 N 0.09199 0.90082 0.07492 0.0
N445 N 0.03231 0.00186 0.19725 0.0
C446 C 0.07334 0.91988 0.12074 0.0
C447 C 0.04233 0.97153 0.18906 0.0
N448 N 0.10895 0.91875 0.23536 0.0
N449 N 0.99365 0.95351 0.13292 0.0
H450 H 0.04633 0.01936 0.2228 0.0
H451 H 0.01231 0.0102 0.16756 0.0
H452 H 0.98007 0.93723 0.10104 0.0
H453 H 0.98081 0.96939 0.16794 0.0
H454 H 0.11828 0.89715 0.21756 0.0
H455 H 0.11689 0.92635 0.29166 0.0
H456 H 0.11558 0.89677 0.08873 0.0
H457 H 0.08499 0.89152 0.01956 0.0
C458 C 0.57349 0.09478 0.6229 0.0
C459 C 0.57477 0.08224 0.70204 0.0
C460 C 0.61486 0.04439 0.65986 0.0
C461 C 0.60763 0.05179 0.57864 0.0
N462 N 0.58448 0.08642 0.48012 0.0
N463 N 0.6003 0.04978 0.80155 0.0
C464 C 0.58896 0.07841 0.5594 0.0
C465 C 0.59726 0.05893 0.72262 0.0
N466 N 0.5569 0.12177 0.6091 0.0
N467 N 0.63778 0.02271 0.67564 0.0
H468 H 0.5885 0.06124 0.84841 0.0
H469 H 0.61404 0.03095 0.82084 0.0
H470 H 0.65073 0.01225 0.62921 0.0
H471 H 0.64554 0.0168 0.7334 0.0
H472 H 0.55598 0.13327 0.55355 0.0
H473 H 0.54623 0.13414 0.65613 0.0
H474 H 0.56853 0.10337 0.46047 0.0
H475 H 0.59662 0.07531 0.43329 0.0
C476 C 0.45435 0.5292 0.17456 0.0
C477 C 0.42638 0.5401 0.21176 0.0
C478 C 0.42383 0.58204 0.10896 0.0
C479 C 0.45431 0.57342 0.08124 0.0
N480 N 0.50282 0.54654 0.11546 0.0
N481 N 0.38912 0.5831 0.225 0.0
C482 C 0.47102 0.54968 0.12359 0.0
C483 C 0.41231 0.5684 0.18232 0.0
N484 N 0.46431 0.49882 0.1834 0.0
N485 N 0.4053 0.60189 0.06485 0.0
H486 H 0.38147 0.57539 0.28147 0.0
H487 H 0.38019 0.60504 0.20845 0.0
H488 H 0.41221 0.61165 0.00989 0.0
H489 H 0.38186 0.60625 0.07959 0.0
H490 H 0.48381 0.4901 0.15241 0.0
H491 H 0.4508 0.48151 0.21162 0.0
H492 H 0.51574 0.53023 0.14915 0.0
H493 H 0.51641 0.56269 0.08311 0.0
C494 C 0.92731 0.43723 0.70903 0.0
C495 C 0.95951 0.42946 0.69814 0.0
C496 C 0.95542 0.44313 0.55492 0.0
C497 C 0.92568 0.45723 0.57005 0.0
N498 N 0.88323 0.46859 0.66237 0.0
N499 N 0.00454 0.42398 0.61098 0.0
C500 C 0.91119 0.45395 0.64686 0.0
C501 C 0.97358 0.43178 0.62082 0.0
N502 N 0.91229 0.42895 0.77889 0.0
N503 N 0.96608 0.44052 0.4772 0.0
H504 H 0.01799 0.41383 0.65697 0.0
H505 H 0.0173 0.42896 0.55876 0.0
H506 H 0.95303 0.44826 0.42753 0.0
H507 H 0.98626 0.42811 0.46128 0.0
H508 H 0.88815 0.43146 0.78736 0.0
H509 H 0.92339 0.41669 0.8255 0.0
H510 H 0.87353 0.47031 0.72002 0.0
H511 H 0.87058 0.48093 0.61861 0.0
C512 C 0.92854 0.45832 0.05247 0.0
C513 C 0.94814 0.43229 0.0715 0.0
C514 C 0.93 0.43373 0.21175 0.0
C515 C 0.91565 0.46317 0.19583 0.0
N516 N 0.89931 0.50332 0.10234 0.0
N517 N 0.96905 0.39566 0.1693 0.0
C518 C 0.91387 0.47515 0.11612 0.0
C519 C 0.94876 0.41956 0.15081 0.0
N520 N 0.92426 0.46695 0.97349 0.0
N521 N 0.92615 0.41977 0.28559 0.0
H522 H 0.98363 0.38519 0.12641 0.0
H523 H 0.97316 0.38772 0.22799 0.0
H524 H 0.91245 0.42978 0.33112 0.0
H525 H 0.93389 0.39711 0.29897 0.0
H526 H 0.90812 0.48387 0.9547 0.0
H527 H 0.93522 0.45531 0.92574 0.0
H528 H 0.90048 0.51556 0.04782 0.0
H529 H 0.88684 0.51503 0.14745 0.0
C530 C 0.08492 0.94266 0.73616 0.0
C531 C 0.06056 0.92164 0.71376 0.0
C532 C 0.07571 0.92617 0.57162 0.0
C533 C 0.09498 0.95209 0.59264 0.0
N534 N 0.12203 0.98283 0.69235 0.0
N535 N 0.03497 0.8895 0.61407 0.0
C536 C 0.10145 0.95915 0.67454 0.0
C537 C 0.05714 0.91162 0.63261 0.0
N538 N 0.09155 0.94709 0.81628 0.0
N539 N 0.07464 0.91643 0.49289 0.0
H540 H 0.02238 0.87757 0.65871 0.0
H541 H 0.02861 0.8833 0.55545 0.0
H542 H 0.08823 0.927 0.44785 0.0
H543 H 0.06238 0.89673 0.47305 0.0
H544 H 0.11015 0.96067 0.83749 0.0
H545 H 0.07963 0.935 0.86197 0.0
H546 H 0.12568 0.99173 0.75019 0.0
H547 H 0.13525 0.99404 0.64757 0.0
C548 C 0.54908 0.02585 0.17424 0.0
C549 C 0.57692 0.03673 0.21235 0.0
C550 C 0.58026 0.0784 0.10919 0.0
C551 C 0.54992 0.06986 0.08014 0.0
N552 N 0.50115 0.04303 0.11148 0.0
N553 N 0.61431 0.07952 0.22667 0.0
C554 C 0.53288 0.04616 0.12162 0.0
C555 C 0.59129 0.06487 0.18316 0.0
N556 N 0.53881 0.99562 0.18399 0.0
N557 N 0.59918 0.09804 0.06564 0.0
H558 H 0.62164 0.07183 0.2835 0.0
H559 H 0.62342 0.10139 0.21033 0.0
H560 H 0.59273 0.10759 0.01 0.0
H561 H 0.62252 0.10235 0.08147 0.0
H562 H 0.51946 0.98682 0.15242 0.0
H563 H 0.55192 0.97841 0.21389 0.0
H564 H 0.4879 0.02688 0.14468 0.0
H565 H 0.48784 0.05909 0.07798 0.0
C566 C 0.41613 0.58012 0.56004 0.0
C567 C 0.39794 0.55331 0.58008 0.0
C568 C 0.40887 0.56134 0.72367 0.0
C569 C 0.43257 0.58309 0.70154 0.0
N570 N 0.45557 0.618 0.60392 0.0
N571 N 0.3725 0.52073 0.67889 0.0
C572 C 0.43467 0.59457 0.62133 0.0
C573 C 0.39224 0.5452 0.66176 0.0
N574 N 0.41638 0.59067 0.4819 0.0
N575 N 0.40308 0.55585 0.80376 0.0
H576 H 0.35946 0.50947 0.63388 0.0
H577 H 0.36944 0.51119 0.73634 0.0
H578 H 0.41511 0.56776 0.84953 0.0
H579 H 0.38498 0.54161 0.82501 0.0
H580 H 0.42808 0.6108 0.46259 0.0
H581 H 0.40279 0.58015 0.43681 0.0
H582 H 0.4609 0.62568 0.54576 0.0
H583 H 0.46787 0.62984 0.64924 0.0
C584 C 0.9348 0.08524 0.76943 0.0
C585 C 0.91636 0.05902 0.79295 0.0
C586 C 0.92032 0.07499 0.93466 0.0
C587 C 0.94434 0.09641 0.91244 0.0
N588 N 0.97256 0.12513 0.81066 0.0
N589 N 0.88734 0.0309 0.89423 0.0
C590 C 0.95037 0.10314 0.83007 0.0
C591 C 0.9072 0.05495 0.87454 0.0
N592 N 0.93794 0.09222 0.68911 0.0
N593 N 0.91111 0.07334 0.01372 0.0
H594 H 0.87636 0.01725 0.85004 0.0
H595 H 0.88205 0.02416 0.9532 0.0
H596 H 0.92068 0.088 0.058 0.0
H597 H 0.89266 0.05944 0.03445 0.0
H598 H 0.94941 0.11212 0.66732 0.0
H599 H 0.92665 0.07921 0.64412 0.0
H600 H 0.98083 0.12905 0.7523 0.0
H601 H 0.98346 0.13901 0.85457 0.0
C602 C 0.40562 0.9514 0.33772 0.0
C603 C 0.41449 0.94493 0.41843 0.0
C604 C 0.45221 0.90548 0.37379 0.0
C605 C 0.44596 0.91463 0.29315 0.0
N606 N 0.40794 0.93405 0.19811 0.0
N607 N 0.43503 0.90763 0.51374 0.0
C608 C 0.41962 0.93365 0.27491 0.0
C609 C 0.43411 0.91903 0.43663 0.0
N610 N 0.38517 0.97534 0.32125 0.0
N611 N 0.47605 0.88494 0.39005 0.0
H612 H 0.42018 0.91653 0.55849 0.0
H613 H 0.44757 0.88764 0.53072 0.0
H614 H 0.48827 0.87346 0.34411 0.0
H615 H 0.48414 0.88007 0.44823 0.0
H616 H 0.38056 0.98342 0.2629 0.0
H617 H 0.37373 0.98785 0.36686 0.0
H618 H 0.38764 0.94618 0.18146 0.0
H619 H 0.41667 0.91887 0.15393 0.0
C620 C 0.53561 0.40753 0.83084 0.0
C621 C 0.54841 0.40989 0.90954 0.0
C622 C 0.58828 0.44709 0.86202 0.0
C623 C 0.57399 0.44659 0.78435 0.0
N624 N 0.54104 0.41957 0.68801 0.0
N625 N 0.5919 0.42318 0.99555 0.0
C626 C 0.54992 0.42445 0.76653 0.0
C627 C 0.57665 0.42665 0.92331 0.0
N628 N 0.50891 0.39025 0.81884 0.0
N629 N 0.61146 0.46838 0.87863 0.0
H630 H 0.5837 0.40795 0.04044 0.0
H631 H 0.61386 0.43284 0.00802 0.0
H632 H 0.62089 0.48332 0.83494 0.0
H633 H 0.62022 0.4725 0.93649 0.0
H634 H 0.49594 0.39059 0.76538 0.0
H635 H 0.49912 0.37627 0.8643 0.0
H636 H 0.52562 0.40188 0.67006 0.0
H637 H 0.55133 0.4315 0.63958 0.0
C638 C 0.0789 0.56965 0.37802 0.0
C639 C 0.06868 0.53976 0.40709 0.0
C640 C 0.02425 0.54214 0.3154 0.0
C641 C 0.03667 0.56907 0.27625 0.0
N642 N 0.08197 0.60327 0.25989 0.0
N643 N 0.03894 0.49277 0.37442 0.0
C644 C 0.0659 0.58145 0.30419 0.0
C645 C 0.0439 0.52435 0.36591 0.0
N646 N 0.09957 0.58752 0.42133 0.0
N647 N 0.99321 0.53442 0.3097 0.0
H648 H 0.05455 0.47816 0.40563 0.0
H649 H 0.02159 0.4809 0.34174 0.0
H650 H 0.97657 0.54908 0.28254 0.0
H651 H 0.98375 0.51585 0.34308 0.0
H652 H 0.1052 0.61054 0.40497 0.0
H653 H 0.10851 0.58084 0.47741 0.0
H654 H 0.10446 0.61088 0.27575 0.0
H655 H 0.07473 0.61082 0.20286 0.0
C656 C 0.87825 0.58332 0.21171 0.0
C657 C 0.88223 0.57891 0.29646 0.0
C658 C 0.92973 0.611 0.29493 0.0
C659 C 0.92703 0.61459 0.20967 0.0
N660 N 0.89339 0.61299 0.09205 0.0
N661 N 0.90147 0.60217 0.4195 0.0
C662 C 0.89962 0.60341 0.16943 0.0
C663 C 0.90443 0.5976 0.3381 0.0
N664 N 0.85458 0.56844 0.17123 0.0
N665 N 0.9571 0.6177 0.33477 0.0
H666 H 0.88223 0.59351 0.45186 0.0
H667 H 0.91584 0.61755 0.4519 0.0
H668 H 0.9776 0.62506 0.30631 0.0
H669 H 0.96055 0.61225 0.39568 0.0
H670 H 0.85374 0.56665 0.10842 0.0
H671 H 0.83565 0.55782 0.20009 0.0
H672 H 0.87249 0.60804 0.0618 0.0
H673 H 0.90777 0.62873 0.06079 0.0
C674 C 0.91124 0.90604 0.66073 0.0
C675 C 0.89481 0.92889 0.70686 0.0
C676 C 0.91192 0.90202 0.82991 0.0
C677 C 0.93554 0.88626 0.78488 0.0
N678 N 0.95508 0.86996 0.65383 0.0
N679 N 0.87751 0.94709 0.83828 0.0
C680 C 0.93407 0.88662 0.69908 0.0
C681 C 0.89383 0.92603 0.79232 0.0
N682 N 0.90461 0.90281 0.58025 0.0
N683 N 0.9069 0.89383 0.9088 0.0
H684 H 0.86259 0.96405 0.81418 0.0
H685 H 0.87988 0.94854 0.90093 0.0
H686 H 0.91922 0.87546 0.93647 0.0
H687 H 0.88837 0.90264 0.94318 0.0
H688 H 0.91379 0.88487 0.54447 0.0
H689 H 0.88709 0.91604 0.55174 0.0
H690 H 0.95804 0.87346 0.59189 0.0
H691 H 0.97006 0.85303 0.67777 0.0
C692 C 0.58995 0.90041 0.16838 0.0
C693 C 0.56849 0.88198 0.21351 0.0
C694 C 0.5948 0.89995 0.33759 0.0
C695 C 0.60996 0.92414 0.2926 0.0
N696 N 0.61641 0.95018 0.16249 0.0
N697 N 0.55199 0.86259 0.34482 0.0
C698 C 0.60648 0.92497 0.20708 0.0
C699 C 0.5715 0.88089 0.29928 0.0
N700 N 0.5944 0.89452 0.08799 0.0
N701 N 0.60344 0.8944 0.41601 0.0
H702 H 0.53706 0.84571 0.32064 0.0
H703 H 0.55007 0.86482 0.4074 0.0
H704 H 0.62136 0.90687 0.44479 0.0
H705 H 0.59536 0.87525 0.44946 0.0
H706 H 0.61158 0.9059 0.05377 0.0
H707 H 0.58359 0.87562 0.05876 0.0
H708 H 0.61136 0.95257 0.10102 0.0
H709 H 0.62601 0.97047 0.18736 0.0
C710 C 0.60402 0.57516 0.78723 0.0
C711 C 0.60443 0.57075 0.70181 0.0
C712 C 0.56255 0.6102 0.68625 0.0
C713 C 0.56097 0.61301 0.77154 0.0
N714 N 0.5893 0.60972 0.89728 0.0
N715 N 0.59439 0.59465 0.5717 0.0
C716 C 0.58494 0.5994 0.81981 0.0
C717 C 0.58702 0.59179 0.65181 0.0
N718 N 0.61979 0.55541 0.83841 0.0
N719 N 0.54017 0.62358 0.63803 0.0
H720 H 0.61348 0.58294 0.54592 0.0
H721 H 0.58413 0.61138 0.53379 0.0
H722 H 0.52303 0.63882 0.65964 0.0
H723 H 0.53796 0.61844 0.57664 0.0
H724 H 0.61615 0.55537 0.90077 0.0
H725 H 0.63509 0.53785 0.82005 0.0
H726 H 0.60816 0.60263 0.93331 0.0
H727 H 0.57609 0.62814 0.9216 0.0
C728 C 0.10197 0.40921 0.68508 0.0
C729 C 0.11317 0.4362 0.72665 0.0
C730 C 0.09417 0.41345 0.85325 0.0
C731 C 0.07504 0.39232 0.80869 0.0
N732 N 0.06604 0.36513 0.68196 0.0
N733 N 0.12149 0.46321 0.85374 0.0
C734 C 0.08091 0.38821 0.72468 0.0
C735 C 0.11047 0.4378 0.81206 0.0
N736 N 0.11224 0.40341 0.60817 0.0
N737 N 0.09693 0.40987 0.93509 0.0
H738 H 0.13469 0.481 0.82731 0.0
H739 H 0.11613 0.46735 0.91431 0.0
H740 H 0.08641 0.39111 0.96568 0.0
H741 H 0.11246 0.42298 0.97031 0.0
H742 H 0.10724 0.38286 0.57647 0.0
H743 H 0.12864 0.41784 0.57929 0.0
H744 H 0.06488 0.36486 0.61901 0.0
H745 H 0.05533 0.34582 0.70896 0.0
C746 C 0.07952 0.12558 0.27688 0.0
C747 C 0.07174 0.11876 0.19509 0.0
C748 C 0.10189 0.06975 0.20214 0.0
C749 C 0.10676 0.07438 0.28656 0.0
N750 N 0.10183 0.10753 0.40437 0.0
N751 N 0.09067 0.09431 0.07341 0.0
C752 C 0.09609 0.10263 0.32394 0.0
C753 C 0.08756 0.09385 0.15567 0.0
N754 N 0.07394 0.15499 0.30689 0.0
N755 N 0.10876 0.04158 0.16648 0.0
H756 H 0.08333 0.11343 0.03846 0.0
H757 H 0.10441 0.07822 0.04166 0.0
H758 H 0.11841 0.0225 0.19703 0.0
H759 H 0.10179 0.03598 0.10776 0.0
H760 H 0.08022 0.16232 0.36467 0.0
H761 H 0.06714 0.17373 0.27018 0.0
H762 H 0.09102 0.12503 0.43841 0.0
H763 H 0.11684 0.09337 0.43851 0.0
C764 C 0.39936 0.08084 0.7754 0.0
C765 C 0.4003 0.0755 0.69019 0.0
C766 C 0.44649 0.10994 0.67886 0.0
C767 C 0.44653 0.11363 0.76394 0.0
N768 N 0.41601 0.11423 0.88622 0.0
N769 N 0.41554 0.09685 0.56062 0.0
C770 C 0.42052 0.10294 0.8097 0.0
C771 C 0.42088 0.09402 0.64182 0.0
N772 N 0.37997 0.06402 0.82516 0.0
N773 N 0.47139 0.11991 0.63362 0.0
H774 H 0.39578 0.0871 0.53273 0.0
H775 H 0.42839 0.11193 0.52347 0.0
H776 H 0.49013 0.1325 0.65777 0.0
H777 H 0.47418 0.11408 0.57281 0.0
H778 H 0.38267 0.06369 0.88785 0.0
H779 H 0.3619 0.04952 0.8058 0.0
H780 H 0.39587 0.10964 0.92009 0.0
H781 H 0.43079 0.13114 0.91182 0.0
C782 C 0.41078 0.40234 0.16927 0.0
C783 C 0.43258 0.38458 0.21564 0.0
C784 C 0.40637 0.40397 0.33822 0.0
C785 C 0.39077 0.4274 0.29169 0.0
N786 N 0.38405 0.45199 0.15986 0.0
N787 N 0.45135 0.36971 0.34957 0.0
C788 C 0.3942 0.42733 0.2062 0.0
C789 C 0.43032 0.38533 0.30171 0.0
N790 N 0.40576 0.39528 0.0897 0.0
N791 N 0.39774 0.3988 0.41674 0.0
H792 H 0.46811 0.3541 0.32819 0.0
H793 H 0.45309 0.3736 0.41168 0.0
H794 H 0.37925 0.41083 0.44431 0.0
H795 H 0.40636 0.3801 0.4511 0.0
H796 H 0.38839 0.40627 0.05513 0.0
H797 H 0.41614 0.37584 0.06188 0.0
H798 H 0.38898 0.45367 0.0982 0.0
H799 H 0.37436 0.47248 0.18338 0.0
loop_
_geom_bond_atom_site_label_1
_geom_bond_atom_site_label_2
_geom_bond_distance
_geom_bond_site_symmetry_2
_ccdc_geom_bond_type
Co0 O1 2.216 1_455 S
Co0 O2 2.091 . S
Co0 O4 2.004 . S
Co0 O10 2.021 . S
Co0 O12 2.137 1_455 S
Co0 O13 2.244 1_455 S
O1 Co0 2.216 1_655 S
O1 C8 1.247 1_655 S
O2 Co0 2.091 . S
O2 C8 1.261 . S
C3 O12 1.247 . S
C3 O13 1.272 . S
O4 Co0 2.004 . S
O4 C9 1.259 . S
Co5 O6 2.061 . S
Co5 O11 2.052 . S
Co5 O13 2.135 1_455 S
O6 Co5 2.061 . S
O6 C9 1.235 . S
C7 O10 1.238 . S
C7 O11 1.241 . S
C8 O1 1.247 1_455 S
C8 O2 1.261 . S
C9 O4 1.259 . S
C9 O6 1.235 . S
O10 Co0 2.021 . S
O10 C7 1.238 . S
O11 Co5 2.052 . S
O11 C7 1.241 . S
O12 Co0 2.137 1_655 S
O12 C3 1.247 . S
O13 Co0 2.244 1_655 S
O13 C3 1.272 . S
O13 Co5 2.135 1_655 S
Co14 O15 2.216 1_545 S
Co14 O16 2.091 . S
Co14 O18 2.004 . S
Co14 O24 2.021 . S
Co14 O26 2.137 1_545 S
Co14 O27 2.244 1_545 S
O15 Co14 2.216 1_565 S
O15 C22 1.247 1_565 S
O16 Co14 2.091 . S
O16 C22 1.261 . S
C17 O26 1.247 . S
C17 O27 1.272 . S
O18 Co14 2.004 . S
O18 C23 1.259 . S
Co19 O20 2.061 . S
Co19 O25 2.052 . S
Co19 O27 2.135 1_545 S
O20 Co19 2.061 . S
O20 C23 1.235 . S
C21 O24 1.238 . S
C21 O25 1.241 . S
C22 O15 1.247 1_545 S
C22 O16 1.261 . S
C23 O18 1.259 . S
C23 O20 1.235 . S
O24 Co14 2.021 . S
O24 C21 1.238 . S
O25 Co19 2.052 . S
O25 C21 1.241 . S
O26 Co14 2.137 1_565 S
O26 C17 1.247 . S
O27 Co14 2.244 1_565 S
O27 C17 1.272 . S
O27 Co19 2.135 1_565 S
Co28 O29 2.216 . S
Co28 O30 2.091 . S
Co28 O32 2.004 . S
Co28 O38 2.021 . S
Co28 O40 2.137 . S
Co28 O41 2.244 . S
O29 Co28 2.216 . S
O29 C36 1.247 . S
O30 Co28 2.091 . S
O30 C36 1.261 . S
C31 O40 1.247 . S
C31 O41 1.272 . S
O32 Co28 2.004 . S
O32 C37 1.259 . S
Co33 O34 2.061 . S
Co33 O39 2.052 . S
Co33 O41 2.135 . S
O34 Co33 2.061 . S
O34 C37 1.235 . S
C35 O38 1.238 . S
C35 O39 1.241 . S
C36 O29 1.247 . S
C36 O30 1.261 . S
C37 O32 1.259 . S
C37 O34 1.235 . S
O38 Co28 2.021 . S
O38 C35 1.238 . S
O39 Co33 2.052 . S
O39 C35 1.241 . S
O40 Co28 2.137 . S
O40 C31 1.247 . S
O41 Co28 2.244 . S
O41 C31 1.272 . S
O41 Co33 2.135 . S
Co42 O43 2.216 . S
Co42 O44 2.091 . S
Co42 O46 2.004 . S
Co42 O52 2.021 . S
Co42 O54 2.137 . S
Co42 O55 2.244 . S
O43 Co42 2.216 . S
O43 C50 1.247 . S
O44 Co42 2.091 . S
O44 C50 1.261 . S
C45 O54 1.247 . S
C45 O55 1.272 . S
O46 Co42 2.004 . S
O46 C51 1.259 . S
Co47 O48 2.061 . S
Co47 O53 2.052 . S
Co47 O55 2.135 . S
O48 Co47 2.061 . S
O48 C51 1.235 . S
C49 O52 1.238 . S
C49 O53 1.241 . S
C50 O43 1.247 . S
C50 O44 1.261 . S
C51 O46 1.259 . S
C51 O48 1.235 . S
O52 Co42 2.021 . S
O52 C49 1.238 . S
O53 Co47 2.052 . S
O53 C49 1.241 . S
O54 Co42 2.137 . S
O54 C45 1.247 . S
O55 Co42 2.244 . S
O55 C45 1.272 . S
O55 Co47 2.135 . S
Co56 O57 2.216 1_455 S
Co56 O58 2.091 . S
Co56 O60 2.004 . S
Co56 O66 2.021 . S
Co56 O68 2.137 1_455 S
Co56 O69 2.244 1_455 S
O57 Co56 2.216 1_655 S
O57 C64 1.247 1_655 S
O58 Co56 2.091 . S
O58 C64 1.261 . S
C59 O68 1.247 . S
C59 O69 1.272 . S
O60 Co56 2.004 . S
O60 C65 1.259 . S
Co61 O62 2.061 . S
Co61 O67 2.052 . S
Co61 O69 2.135 1_455 S
O62 Co61 2.061 . S
O62 C65 1.235 . S
C63 O66 1.238 . S
C63 O67 1.241 . S
C64 O57 1.247 1_455 S
C64 O58 1.261 . S
C65 O60 1.259 . S
C65 O62 1.235 . S
O66 Co56 2.021 . S
O66 C63 1.238 . S
O67 Co61 2.052 . S
O67 C63 1.241 . S
O68 Co56 2.137 1_655 S
O68 C59 1.247 . S
O69 Co56 2.244 1_655 S
O69 C59 1.272 . S
O69 Co61 2.135 1_655 S
Co70 O71 2.216 1_545 S
Co70 O72 2.091 . S
Co70 O74 2.004 . S
Co70 O80 2.021 . S
Co70 O82 2.137 1_545 S
Co70 O83 2.244 1_545 S
O71 Co70 2.216 1_565 S
O71 C78 1.247 1_565 S
O72 Co70 2.091 . S
O72 C78 1.261 . S
C73 O82 1.247 . S
C73 O83 1.272 . S
O74 Co70 2.004 . S
O74 C79 1.259 . S
Co75 O76 2.061 . S
Co75 O81 2.052 . S
Co75 O83 2.135 1_545 S
O76 Co75 2.061 . S
O76 C79 1.235 . S
C77 O80 1.238 . S
C77 O81 1.241 . S
C78 O71 1.247 1_545 S
C78 O72 1.261 . S
C79 O74 1.259 . S
C79 O76 1.235 . S
O80 Co70 2.021 . S
O80 C77 1.238 . S
O81 Co75 2.052 . S
O81 C77 1.241 . S
O82 Co70 2.137 1_565 S
O82 C73 1.247 . S
O83 Co70 2.244 1_565 S
O83 C73 1.272 . S
O83 Co75 2.135 1_565 S
Co84 O85 2.216 . S
Co84 O86 2.091 . S
Co84 O88 2.004 . S
Co84 O94 2.021 . S
Co84 O96 2.137 . S
Co84 O97 2.244 . S
O85 Co84 2.216 . S
O85 C92 1.247 . S
O86 Co84 2.091 . S
O86 C92 1.261 . S
C87 O96 1.247 . S
C87 O97 1.272 . S
O88 Co84 2.004 . S
O88 C93 1.259 . S
Co89 O90 2.061 . S
Co89 O95 2.052 . S
Co89 O97 2.135 . S
O90 Co89 2.061 . S
O90 C93 1.235 . S
C91 O94 1.238 . S
C91 O95 1.241 . S
C92 O85 1.247 . S
C92 O86 1.261 . S
C93 O88 1.259 . S
C93 O90 1.235 . S
O94 Co84 2.021 . S
O94 C91 1.238 . S
O95 Co89 2.052 . S
O95 C91 1.241 . S
O96 Co84 2.137 . S
O96 C87 1.247 . S
O97 Co84 2.244 . S
O97 C87 1.272 . S
O97 Co89 2.135 . S
Co98 O99 2.216 . S
Co98 O100 2.091 . S
Co98 O102 2.004 . S
Co98 O108 2.021 . S
Co98 O110 2.137 . S
Co98 O111 2.244 . S
O99 Co98 2.216 . S
O99 C106 1.247 . S
O100 Co98 2.091 . S
O100 C106 1.261 . S
C101 O110 1.247 . S
C101 O111 1.272 . S
O102 Co98 2.004 . S
O102 C107 1.259 . S
Co103 O104 2.061 . S
Co103 O109 2.052 . S
Co103 O111 2.135 . S
O104 Co103 2.061 . S
O104 C107 1.235 . S
C105 O108 1.238 . S
C105 O109 1.241 . S
C106 O99 1.247 . S
C106 O100 1.261 . S
C107 O102 1.259 . S
C107 O104 1.235 . S
O108 Co98 2.021 . S
O108 C105 1.238 . S
O109 Co103 2.052 . S
O109 C105 1.241 . S
O110 Co98 2.137 . S
O110 C101 1.247 . S
O111 Co98 2.244 . S
O111 C101 1.272 . S
O111 Co103 2.135 . S
Co112 O113 2.216 1_655 S
Co112 O114 2.091 . S
Co112 O116 2.004 . S
Co112 O122 2.021 . S
Co112 O124 2.137 1_655 S
Co112 O125 2.244 1_655 S
O113 Co112 2.216 1_455 S
O113 C120 1.247 1_455 S
O114 Co112 2.091 . S
O114 C120 1.261 . S
C115 O124 1.247 . S
C115 O125 1.272 . S
O116 Co112 2.004 . S
O116 C121 1.259 . S
Co117 O118 2.061 . S
Co117 O123 2.052 . S
Co117 O125 2.135 1_655 S
O118 Co117 2.061 . S
O118 C121 1.235 . S
C119 O122 1.238 . S
C119 O123 1.241 . S
C120 O113 1.247 1_655 S
C120 O114 1.261 . S
C121 O116 1.259 . S
C121 O118 1.235 . S
O122 Co112 2.021 . S
O122 C119 1.238 . S
O123 Co117 2.052 . S
O123 C119 1.241 . S
O124 Co112 2.137 1_455 S
O124 C115 1.247 . S
O125 Co112 2.244 1_455 S
O125 C115 1.272 . S
O125 Co117 2.135 1_455 S
Co126 O127 2.216 1_565 S
Co126 O128 2.091 . S
Co126 O130 2.004 . S
Co126 O136 2.021 . S
Co126 O138 2.137 1_565 S
Co126 O139 2.244 1_565 S
O127 Co126 2.216 1_545 S
O127 C134 1.247 1_545 S
O128 Co126 2.091 . S
O128 C134 1.261 . S
C129 O138 1.247 . S
C129 O139 1.272 . S
O130 Co126 2.004 . S
O130 C135 1.259 . S
Co131 O132 2.061 . S
Co131 O137 2.052 . S
Co131 O139 2.135 1_565 S
O132 Co131 2.061 . S
O132 C135 1.235 . S
C133 O136 1.238 . S
C133 O137 1.241 . S
C134 O127 1.247 1_565 S
C134 O128 1.261 . S
C135 O130 1.259 . S
C135 O132 1.235 . S
O136 Co126 2.021 . S
O136 C133 1.238 . S
O137 Co131 2.052 . S
O137 C133 1.241 . S
O138 Co126 2.137 1_545 S
O138 C129 1.247 . S
O139 Co126 2.244 1_545 S
O139 C129 1.272 . S
O139 Co131 2.135 1_545 S
Co140 O141 2.216 . S
Co140 O142 2.091 . S
Co140 O144 2.004 . S
Co140 O150 2.021 . S
Co140 O152 2.137 . S
Co140 O153 2.244 . S
O141 Co140 2.216 . S
O141 C148 1.247 . S
O142 Co140 2.091 . S
O142 C148 1.261 . S
C143 O152 1.247 . S
C143 O153 1.272 . S
O144 Co140 2.004 . S
O144 C149 1.259 . S
Co145 O146 2.061 . S
Co145 O151 2.052 . S
Co145 O153 2.135 . S
O146 Co145 2.061 . S
O146 C149 1.235 . S
C147 O150 1.238 . S
C147 O151 1.241 . S
C148 O141 1.247 . S
C148 O142 1.261 . S
C149 O144 1.259 . S
C149 O146 1.235 . S
O150 Co140 2.021 . S
O150 C147 1.238 . S
O151 Co145 2.052 . S
O151 C147 1.241 . S
O152 Co140 2.137 . S
O152 C143 1.247 . S
O153 Co140 2.244 . S
O153 C143 1.272 . S
O153 Co145 2.135 . S
Co154 O155 2.216 . S
Co154 O156 2.091 . S
Co154 O158 2.004 . S
Co154 O164 2.021 . S
Co154 O166 2.137 . S
Co154 O167 2.244 . S
O155 Co154 2.216 . S
O155 C162 1.247 . S
O156 Co154 2.091 . S
O156 C162 1.261 . S
C157 O166 1.247 . S
C157 O167 1.272 . S
O158 Co154 2.004 . S
O158 C163 1.259 . S
Co159 O160 2.061 . S
Co159 O165 2.052 . S
Co159 O167 2.135 . S
O160 Co159 2.061 . S
O160 C163 1.235 . S
C161 O164 1.238 . S
C161 O165 1.241 . S
C162 O155 1.247 . S
C162 O156 1.261 . S
C163 O158 1.259 . S
C163 O160 1.235 . S
O164 Co154 2.021 . S
O164 C161 1.238 . S
O165 Co159 2.052 . S
O165 C161 1.241 . S
O166 Co154 2.137 . S
O166 C157 1.247 . S
O167 Co154 2.244 . S
O167 C157 1.272 . S
O167 Co159 2.135 . S
Co168 O169 2.216 1_655 S
Co168 O170 2.091 . S
Co168 O172 2.004 . S
Co168 O178 2.021 . S
Co168 O180 2.137 1_655 S
Co168 O181 2.244 1_655 S
O169 Co168 2.216 1_455 S
O169 C176 1.247 1_455 S
O170 Co168 2.091 . S
O170 C176 1.261 . S
C171 O180 1.247 . S
C171 O181 1.272 . S
O172 Co168 2.004 . S
O172 C177 1.259 . S
Co173 O174 2.061 . S
Co173 O179 2.052 . S
Co173 O181 2.135 1_655 S
O174 Co173 2.061 . S
O174 C177 1.235 . S
C175 O178 1.238 . S
C175 O179 1.241 . S
C176 O169 1.247 1_655 S
C176 O170 1.261 . S
C177 O172 1.259 . S
C177 O174 1.235 . S
O178 Co168 2.021 . S
O178 C175 1.238 . S
O179 Co173 2.052 . S
O179 C175 1.241 . S
O180 Co168 2.137 1_455 S
O180 C171 1.247 . S
O181 Co168 2.244 1_455 S
O181 C171 1.272 . S
O181 Co173 2.135 1_455 S
Co182 O183 2.216 1_565 S
Co182 O184 2.091 . S
Co182 O186 2.004 . S
Co182 O192 2.021 . S
Co182 O194 2.137 1_565 S
Co182 O195 2.244 1_565 S
O183 Co182 2.216 1_545 S
O183 C190 1.247 1_545 S
O184 Co182 2.091 . S
O184 C190 1.261 . S
C185 O194 1.247 . S
C185 O195 1.272 . S
O186 Co182 2.004 . S
O186 C191 1.259 . S
Co187 O188 2.061 . S
Co187 O193 2.052 . S
Co187 O195 2.135 1_565 S
O188 Co187 2.061 . S
O188 C191 1.235 . S
C189 O192 1.238 . S
C189 O193 1.241 . S
C190 O183 1.247 1_565 S
C190 O184 1.261 . S
C191 O186 1.259 . S
C191 O188 1.235 . S
O192 Co182 2.021 . S
O192 C189 1.238 . S
O193 Co187 2.052 . S
O193 C189 1.241 . S
O194 Co182 2.137 1_545 S
O194 C185 1.247 . S
O195 Co182 2.244 1_545 S
O195 C185 1.272 . S
O195 Co187 2.135 1_545 S
Co196 O197 2.216 . S
Co196 O198 2.091 . S
Co196 O200 2.004 . S
Co196 O206 2.021 . S
Co196 O208 2.137 . S
Co196 O209 2.244 . S
O197 Co196 2.216 . S
O197 C204 1.247 . S
O198 Co196 2.091 . S
O198 C204 1.261 . S
C199 O208 1.247 . S
C199 O209 1.272 . S
O200 Co196 2.004 . S
O200 C205 1.259 . S
Co201 O202 2.061 . S
Co201 O207 2.052 . S
Co201 O209 2.135 . S
O202 Co201 2.061 . S
O202 C205 1.235 . S
C203 O206 1.238 . S
C203 O207 1.241 . S
C204 O197 1.247 . S
C204 O198 1.261 . S
C205 O200 1.259 . S
C205 O202 1.235 . S
O206 Co196 2.021 . S
O206 C203 1.238 . S
O207 Co201 2.052 . S
O207 C203 1.241 . S
O208 Co196 2.137 . S
O208 C199 1.247 . S
O209 Co196 2.244 . S
O209 C199 1.272 . S
O209 Co201 2.135 . S
Co210 O211 2.216 . S
Co210 O212 2.091 . S
Co210 O214 2.004 . S
Co210 O220 2.021 . S
Co210 O222 2.137 . S
Co210 O223 2.244 . S
O211 Co210 2.216 . S
O211 C218 1.247 . S
O212 Co210 2.091 . S
O212 C218 1.261 . S
C213 O222 1.247 . S
C213 O223 1.272 . S
O214 Co210 2.004 . S
O214 C219 1.259 . S
Co215 O216 2.061 . S
Co215 O221 2.052 . S
Co215 O223 2.135 . S
O216 Co215 2.061 . S
O216 C219 1.235 . S
C217 O220 1.238 . S
C217 O221 1.241 . S
C218 O211 1.247 . S
C218 O212 1.261 . S
C219 O214 1.259 . S
C219 O216 1.235 . S
O220 Co210 2.021 . S
O220 C217 1.238 . S
O221 Co215 2.052 . S
O221 C217 1.241 . S
O222 Co210 2.137 . S
O222 C213 1.247 . S
O223 Co210 2.244 . S
O223 C213 1.272 . S
O223 Co215 2.135 . S
C224 C225 1.363 1_456 S
C224 C230 1.379 . S
C224 N232 1.356 . S
C225 C224 1.363 1_654 S
C225 C231 1.363 . S
C226 C227 1.363 1_554 S
C226 C231 1.379 . S
C226 N233 1.356 . S
C227 C226 1.363 1_556 S
C227 C230 1.363 1_655 S
N228 C230 1.356 . S
N228 H240 0.984 . S
N228 H241 0.985 . S
N229 C231 1.356 . S
N229 H234 0.984 . S
N229 H235 0.985 . S
C230 C224 1.379 . S
C230 C227 1.363 1_455 S
C230 N228 1.356 . S
C231 C225 1.363 . S
C231 C226 1.379 . S
C231 N229 1.356 . S
N232 C224 1.356 . S
N232 H238 0.984 . S
N232 H239 0.984 1_556 S
N233 C226 1.356 . S
N233 H236 0.984 1_554 S
N233 H237 0.985 . S
H234 N229 0.984 . S
H235 N229 0.985 . S
H236 N233 0.984 1_556 S
H237 N233 0.985 . S
H238 N232 0.984 . S
H239 N232 0.984 1_554 S
H240 N228 0.984 . S
H241 N228 0.985 . S
C242 C243 1.363 1_545 S
C242 C248 1.379 . S
C242 N250 1.356 . S
C243 C242 1.363 1_565 S
C243 C249 1.363 . S
C244 C245 1.363 . S
C244 C249 1.379 . S
C244 N251 1.356 . S
C245 C244 1.363 . S
C245 C248 1.363 1_565 S
N246 C248 1.356 . S
N246 H258 0.984 . S
N246 H259 0.985 . S
N247 C249 1.356 . S
N247 H252 0.984 . S
N247 H253 0.985 . S
C248 C242 1.379 . S
C248 C245 1.363 1_545 S
C248 N246 1.356 . S
C249 C243 1.363 . S
C249 C244 1.379 . S
C249 N247 1.356 . S
N250 C242 1.356 . S
N250 H256 0.984 . S
N250 H257 0.984 . S
N251 C244 1.356 . S
N251 H254 0.984 . S
N251 H255 0.985 . S
H252 N247 0.984 . S
H253 N247 0.985 . S
H254 N251 0.984 . S
H255 N251 0.985 . S
H256 N250 0.984 . S
H257 N250 0.984 . S
H258 N246 0.984 . S
H259 N246 0.985 . S
C260 C261 1.363 1_556 S
C260 C266 1.379 . S
C260 N268 1.356 . S
C261 C260 1.363 1_554 S
C261 C267 1.363 . S
C262 C263 1.363 1_554 S
C262 C267 1.379 . S
C262 N269 1.356 . S
C263 C262 1.363 1_556 S
C263 C266 1.363 . S
N264 C266 1.356 . S
N264 H276 0.984 . S
N264 H277 0.985 . S
N265 C267 1.356 . S
N265 H270 0.984 . S
N265 H271 0.985 . S
C266 C260 1.379 . S
C266 C263 1.363 . S
C266 N264 1.356 . S
C267 C261 1.363 . S
C267 C262 1.379 . S
C267 N265 1.356 . S
N268 C260 1.356 . S
N268 H274 0.984 . S
N268 H275 0.984 1_556 S
N269 C262 1.356 . S
N269 H272 0.984 1_554 S
N269 H273 0.985 . S
H270 N265 0.984 . S
H271 N265 0.985 . S
H272 N269 0.984 1_556 S
H273 N269 0.985 . S
H274 N268 0.984 . S
H275 N268 0.984 1_554 S
H276 N264 0.984 . S
H277 N264 0.985 . S
C278 C279 1.363 . S
C278 C284 1.379 . S
C278 N286 1.356 . S
C279 C278 1.363 . S
C279 C285 1.363 . S
C280 C281 1.363 . S
C280 C285 1.379 . S
C280 N287 1.356 . S
C281 C280 1.363 . S
C281 C284 1.363 . S
N282 C284 1.356 . S
N282 H294 0.984 . S
N282 H295 0.985 . S
N283 C285 1.356 . S
N283 H288 0.984 . S
N283 H289 0.985 . S
C284 C278 1.379 . S
C284 C281 1.363 . S
C284 N282 1.356 . S
C285 C279 1.363 . S
C285 C280 1.379 . S
C285 N283 1.356 . S
N286 C278 1.356 . S
N286 H292 0.984 . S
N286 H293 0.984 . S
N287 C280 1.356 . S
N287 H290 0.984 . S
N287 H291 0.985 . S
H288 N283 0.984 . S
H289 N283 0.985 . S
H290 N287 0.984 . S
H291 N287 0.985 . S
H292 N286 0.984 . S
H293 N286 0.984 . S
H294 N282 0.984 . S
H295 N282 0.985 . S
C296 C297 1.363 1_554 S
C296 C302 1.379 . S
C296 N304 1.356 . S
C297 C296 1.363 1_556 S
C297 C303 1.363 1_455 S
C298 C299 1.363 1_656 S
C298 C303 1.379 . S
C298 N305 1.356 . S
C299 C298 1.363 1_454 S
C299 C302 1.363 . S
N300 C302 1.356 . S
N300 H312 0.984 . S
N300 H313 0.985 . S
N301 C303 1.356 . S
N301 H306 0.984 . S
N301 H307 0.985 . S
C302 C296 1.379 . S
C302 C299 1.363 . S
C302 N300 1.356 . S
C303 C297 1.363 1_655 S
C303 C298 1.379 . S
C303 N301 1.356 . S
N304 C296 1.356 . S
N304 H310 0.984 . S
N304 H311 0.984 1_554 S
N305 C298 1.356 . S
N305 H308 0.984 1_556 S
N305 H309 0.985 . S
H306 N301 0.984 . S
H307 N301 0.985 . S
H308 N305 0.984 1_554 S
H309 N305 0.985 . S
H310 N304 0.984 . S
H311 N304 0.984 1_556 S
H312 N300 0.984 . S
H313 N300 0.985 . S
C314 C315 1.363 . S
C314 C320 1.379 . S
C314 N322 1.356 . S
C315 C314 1.363 . S
C315 C321 1.363 1_545 S
C316 C317 1.363 1_565 S
C316 C321 1.379 . S
C316 N323 1.356 . S
C317 C316 1.363 1_545 S
C317 C320 1.363 . S
N318 C320 1.356 . S
N318 H330 0.984 . S
N318 H331 0.985 . S
N319 C321 1.356 . S
N319 H324 0.984 . S
N319 H325 0.985 . S
C320 C314 1.379 . S
C320 C317 1.363 . S
C320 N318 1.356 . S
C321 C315 1.363 1_565 S
C321 C316 1.379 . S
C321 N319 1.356 . S
N322 C314 1.356 . S
N322 H328 0.984 . S
N322 H329 0.984 . S
N323 C316 1.356 . S
N323 H326 0.984 . S
N323 H327 0.985 . S
H324 N319 0.984 . S
H325 N319 0.985 . S
H326 N323 0.984 . S
H327 N323 0.985 . S
H328 N322 0.984 . S
H329 N322 0.984 . S
H330 N318 0.984 . S
H331 N318 0.985 . S
C332 C333 1.363 . S
C332 C338 1.379 . S
C332 N340 1.356 . S
C333 C332 1.363 . S
C333 C339 1.363 1_556 S
C334 C335 1.363 . S
C334 C339 1.379 . S
C334 N341 1.356 . S
C335 C334 1.363 . S
C335 C338 1.363 1_554 S
N336 C338 1.356 . S
N336 H348 0.984 . S
N336 H349 0.985 1_556 S
N337 C339 1.356 . S
N337 H342 0.984 1_554 S
N337 H343 0.985 . S
C338 C332 1.379 . S
C338 C335 1.363 1_556 S
C338 N336 1.356 . S
C339 C333 1.363 1_554 S
C339 C334 1.379 . S
C339 N337 1.356 . S
N340 C332 1.356 . S
N340 H346 0.984 . S
N340 H347 0.984 . S
N341 C334 1.356 . S
N341 H344 0.984 . S
N341 H345 0.985 . S
H342 N337 0.984 1_556 S
H343 N337 0.985 . S
H344 N341 0.984 . S
H345 N341 0.985 . S
H346 N340 0.984 . S
H347 N340 0.984 . S
H348 N336 0.984 . S
H349 N336 0.985 1_554 S
C350 C351 1.363 . S
C350 C356 1.379 . S
C350 N358 1.356 . S
C351 C350 1.363 . S
C351 C357 1.363 . S
C352 C353 1.363 . S
C352 C357 1.379 . S
C352 N359 1.356 . S
C353 C352 1.363 . S
C353 C356 1.363 . S
N354 C356 1.356 . S
N354 H366 0.984 . S
N354 H367 0.985 . S
N355 C357 1.356 . S
N355 H360 0.984 . S
N355 H361 0.985 . S
C356 C350 1.379 . S
C356 C353 1.363 . S
C356 N354 1.356 . S
C357 C351 1.363 . S
C357 C352 1.379 . S
C357 N355 1.356 . S
N358 C350 1.356 . S
N358 H364 0.984 . S
N358 H365 0.984 . S
N359 C352 1.356 . S
N359 H362 0.984 . S
N359 H363 0.985 . S
H360 N355 0.984 . S
H361 N355 0.985 . S
H362 N359 0.984 . S
H363 N359 0.985 . S
H364 N358 0.984 . S
H365 N358 0.984 . S
H366 N354 0.984 . S
H367 N354 0.985 . S
C368 C369 1.363 . S
C368 C374 1.379 . S
C368 N376 1.356 1_556 S
C369 C368 1.363 . S
C369 C375 1.363 . S
C370 C371 1.363 . S
C370 C375 1.379 . S
C370 N377 1.356 . S
C371 C370 1.363 . S
C371 C374 1.363 . S
N372 C374 1.356 . S
N372 H384 0.984 . S
N372 H385 0.985 . S
N373 C375 1.356 . S
N373 H378 0.984 . S
N373 H379 0.985 . S
C374 C368 1.379 . S
C374 C371 1.363 . S
C374 N372 1.356 . S
C375 C369 1.363 . S
C375 C370 1.379 . S
C375 N373 1.356 . S
N376 C368 1.356 1_554 S
N376 H382 0.984 . S
N376 H383 0.984 . S
N377 C370 1.356 . S
N377 H380 0.984 . S
N377 H381 0.985 . S
H378 N373 0.984 . S
H379 N373 0.985 . S
H380 N377 0.984 . S
H381 N377 0.985 . S
H382 N376 0.984 . S
H383 N376 0.984 . S
H384 N372 0.984 . S
H385 N372 0.985 . S
C386 C387 1.363 . S
C386 C392 1.379 . S
C386 N394 1.356 . S
C387 C386 1.363 . S
C387 C393 1.363 . S
C388 C389 1.363 . S
C388 C393 1.379 . S
C388 N395 1.356 . S
C389 C388 1.363 . S
C389 C392 1.363 . S
N390 C392 1.356 . S
N390 H402 0.984 . S
N390 H403 0.985 . S
N391 C393 1.356 . S
N391 H396 0.984 . S
N391 H397 0.985 . S
C392 C386 1.379 . S
C392 C389 1.363 . S
C392 N390 1.356 . S
C393 C387 1.363 . S
C393 C388 1.379 . S
C393 N391 1.356 . S
N394 C386 1.356 . S
N394 H400 0.984 . S
N394 H401 0.984 . S
N395 C388 1.356 . S
N395 H398 0.984 . S
N395 H399 0.985 . S
H396 N391 0.984 . S
H397 N391 0.985 . S
H398 N395 0.984 . S
H399 N395 0.985 . S
H400 N394 0.984 . S
H401 N394 0.984 . S
H402 N390 0.984 . S
H403 N390 0.985 . S
C404 C405 1.363 . S
C404 C410 1.379 . S
C404 N412 1.356 1_556 S
C405 C404 1.363 . S
C405 C411 1.363 . S
C406 C407 1.363 . S
C406 C411 1.379 . S
C406 N413 1.356 . S
C407 C406 1.363 . S
C407 C410 1.363 . S
N408 C410 1.356 . S
N408 H420 0.984 . S
N408 H421 0.985 . S
N409 C411 1.356 . S
N409 H414 0.984 . S
N409 H415 0.985 . S
C410 C404 1.379 . S
C410 C407 1.363 . S
C410 N408 1.356 . S
C411 C405 1.363 . S
C411 C406 1.379 . S
C411 N409 1.356 . S
N412 C404 1.356 1_554 S
N412 H418 0.984 . S
N412 H419 0.984 . S
N413 C406 1.356 . S
N413 H416 0.984 . S
N413 H417 0.985 . S
H414 N409 0.984 . S
H415 N409 0.985 . S
H416 N413 0.984 . S
H417 N413 0.985 . S
H418 N412 0.984 . S
H419 N412 0.984 . S
H420 N408 0.984 . S
H421 N408 0.985 . S
C422 C423 1.363 . S
C422 C428 1.379 . S
C422 N430 1.356 . S
C423 C422 1.363 . S
C423 C429 1.363 . S
C424 C425 1.363 . S
C424 C429 1.379 . S
C424 N431 1.356 . S
C425 C424 1.363 . S
C425 C428 1.363 . S
N426 C428 1.356 . S
N426 H438 0.984 . S
N426 H439 0.985 . S
N427 C429 1.356 . S
N427 H432 0.984 . S
N427 H433 0.985 . S
C428 C422 1.379 . S
C428 C425 1.363 . S
C428 N426 1.356 . S
C429 C423 1.363 . S
C429 C424 1.379 . S
C429 N427 1.356 . S
N430 C422 1.356 . S
N430 H436 0.984 . S
N430 H437 0.984 . S
N431 C424 1.356 . S
N431 H434 0.984 . S
N431 H435 0.985 . S
H432 N427 0.984 . S
H433 N427 0.985 . S
H434 N431 0.984 . S
H435 N431 0.985 . S
H436 N430 0.984 . S
H437 N430 0.984 . S
H438 N426 0.984 . S
H439 N426 0.985 . S
C440 C441 1.363 . S
C440 C446 1.379 . S
C440 N448 1.356 . S
C441 C440 1.363 . S
C441 C447 1.363 . S
C442 C443 1.363 . S
C442 C447 1.379 . S
C442 N449 1.356 . S
C443 C442 1.363 . S
C443 C446 1.363 . S
N444 C446 1.356 . S
N444 H456 0.984 . S
N444 H457 0.985 1_554 S
N445 C447 1.356 . S
N445 H450 0.984 . S
N445 H451 0.985 . S
C446 C440 1.379 . S
C446 C443 1.363 . S
C446 N444 1.356 . S
C447 C441 1.363 . S
C447 C442 1.379 . S
C447 N445 1.356 . S
N448 C440 1.356 . S
N448 H454 0.984 . S
N448 H455 0.984 . S
N449 C442 1.356 . S
N449 H452 0.984 . S
N449 H453 0.985 . S
H450 N445 0.984 . S
H451 N445 0.985 . S
H452 N449 0.984 . S
H453 N449 0.985 . S
H454 N448 0.984 . S
H455 N448 0.984 . S
H456 N444 0.984 . S
H457 N444 0.985 1_556 S
C458 C459 1.363 . S
C458 C464 1.379 . S
C458 N466 1.356 . S
C459 C458 1.363 . S
C459 C465 1.363 . S
C460 C461 1.363 . S
C460 C465 1.379 . S
C460 N467 1.356 . S
C461 C460 1.363 . S
C461 C464 1.363 . S
N462 C464 1.356 . S
N462 H474 0.984 . S
N462 H475 0.985 . S
N463 C465 1.356 . S
N463 H468 0.984 . S
N463 H469 0.985 . S
C464 C458 1.379 . S
C464 C461 1.363 . S
C464 N462 1.356 . S
C465 C459 1.363 . S
C465 C460 1.379 . S
C465 N463 1.356 . S
N466 C458 1.356 . S
N466 H472 0.984 . S
N466 H473 0.984 . S
N467 C460 1.356 . S
N467 H470 0.984 . S
N467 H471 0.985 . S
H468 N463 0.984 . S
H469 N463 0.985 . S
H470 N467 0.984 . S
H471 N467 0.985 . S
H472 N466 0.984 . S
H473 N466 0.984 . S
H474 N462 0.984 . S
H475 N462 0.985 . S
C476 C477 1.363 . S
C476 C482 1.379 . S
C476 N484 1.356 . S
C477 C476 1.363 . S
C477 C483 1.363 . S
C478 C479 1.363 . S
C478 C483 1.379 . S
C478 N485 1.356 . S
C479 C478 1.363 . S
C479 C482 1.363 . S
N480 C482 1.356 . S
N480 H492 0.984 . S
N480 H493 0.985 1_554 S
N481 C483 1.356 . S
N481 H486 0.984 . S
N481 H487 0.985 . S
C482 C476 1.379 . S
C482 C479 1.363 . S
C482 N480 1.356 . S
C483 C477 1.363 . S
C483 C478 1.379 . S
C483 N481 1.356 . S
N484 C476 1.356 . S
N484 H490 0.984 . S
N484 H491 0.984 . S
N485 C478 1.356 . S
N485 H488 0.984 . S
N485 H489 0.985 . S
H486 N481 0.984 . S
H487 N481 0.985 . S
H488 N485 0.984 . S
H489 N485 0.985 . S
H490 N484 0.984 . S
H491 N484 0.984 . S
H492 N480 0.984 . S
H493 N480 0.985 1_556 S
C494 C495 1.363 . S
C494 C500 1.379 . S
C494 N502 1.356 . S
C495 C494 1.363 . S
C495 C501 1.363 . S
C496 C497 1.363 . S
C496 C501 1.379 . S
C496 N503 1.356 . S
C497 C496 1.363 . S
C497 C500 1.363 . S
N498 C500 1.356 . S
N498 H510 0.984 . S
N498 H511 0.985 . S
N499 C501 1.356 . S
N499 H504 0.984 . S
N499 H505 0.985 . S
C500 C494 1.379 . S
C500 C497 1.363 . S
C500 N498 1.356 . S
C501 C495 1.363 . S
C501 C496 1.379 . S
C501 N499 1.356 . S
N502 C494 1.356 . S
N502 H508 0.984 . S
N502 H509 0.984 . S
N503 C496 1.356 . S
N503 H506 0.984 . S
N503 H507 0.985 . S
H504 N499 0.984 . S
H505 N499 0.985 . S
H506 N503 0.984 . S
H507 N503 0.985 . S
H508 N502 0.984 . S
H509 N502 0.984 . S
H510 N498 0.984 . S
H511 N498 0.985 . S
C512 C513 1.363 . S
C512 C518 1.379 . S
C512 N520 1.356 1_554 S
C513 C512 1.363 . S
C513 C519 1.363 . S
C514 C515 1.363 . S
C514 C519 1.379 . S
C514 N521 1.356 . S
C515 C514 1.363 . S
C515 C518 1.363 . S
N516 C518 1.356 . S
N516 H528 0.984 . S
N516 H529 0.985 . S
N517 C519 1.356 . S
N517 H522 0.984 . S
N517 H523 0.985 . S
C518 C512 1.379 . S
C518 C515 1.363 . S
C518 N516 1.356 . S
C519 C513 1.363 . S
C519 C514 1.379 . S
C519 N517 1.356 . S
N520 C512 1.356 1_556 S
N520 H526 0.984 . S
N520 H527 0.984 . S
N521 C514 1.356 . S
N521 H524 0.984 . S
N521 H525 0.985 . S
H522 N517 0.984 . S
H523 N517 0.985 . S
H524 N521 0.984 . S
H525 N521 0.985 . S
H526 N520 0.984 . S
H527 N520 0.984 . S
H528 N516 0.984 . S
H529 N516 0.985 . S
C530 C531 1.363 . S
C530 C536 1.379 . S
C530 N538 1.356 . S
C531 C530 1.363 . S
C531 C537 1.363 . S
C532 C533 1.363 . S
C532 C537 1.379 . S
C532 N539 1.356 . S
C533 C532 1.363 . S
C533 C536 1.363 . S
N534 C536 1.356 . S
N534 H546 0.984 . S
N534 H547 0.985 . S
N535 C537 1.356 . S
N535 H540 0.984 . S
N535 H541 0.985 . S
C536 C530 1.379 . S
C536 C533 1.363 . S
C536 N534 1.356 . S
C537 C531 1.363 . S
C537 C532 1.379 . S
C537 N535 1.356 . S
N538 C530 1.356 . S
N538 H544 0.984 . S
N538 H545 0.984 . S
N539 C532 1.356 . S
N539 H542 0.984 . S
N539 H543 0.985 . S
H540 N535 0.984 . S
H541 N535 0.985 . S
H542 N539 0.984 . S
H543 N539 0.985 . S
H544 N538 0.984 . S
H545 N538 0.984 . S
H546 N534 0.984 . S
H547 N534 0.985 . S
C548 C549 1.363 . S
C548 C554 1.379 . S
C548 N556 1.356 . S
C549 C548 1.363 . S
C549 C555 1.363 . S
C550 C551 1.363 . S
C550 C555 1.379 . S
C550 N557 1.361 . S
C551 C550 1.363 . S
C551 C554 1.363 . S
N552 C554 1.356 . S
N552 H564 0.984 . S
N552 H565 0.985 . S
N553 C555 1.356 . S
N553 H558 0.984 . S
N553 H559 0.985 . S
C554 C548 1.379 . S
C554 C551 1.363 . S
C554 N552 1.356 . S
C555 C549 1.363 . S
C555 C550 1.379 . S
C555 N553 1.356 . S
N556 C548 1.356 . S
N556 H562 0.984 . S
N556 H563 0.984 . S
N557 C550 1.361 . S
N557 H560 0.981 1_554 S
N557 H561 0.983 1_554 S
H558 N553 0.984 . S
H559 N553 0.985 . S
H560 N557 0.981 1_556 S
H561 N557 0.983 1_556 S
H562 N556 0.984 . S
H563 N556 0.984 . S
H564 N552 0.984 . S
H565 N552 0.985 . S
C566 C567 1.363 . S
C566 C572 1.379 . S
C566 N574 1.356 . S
C567 C566 1.363 . S
C567 C573 1.363 . S
C568 C569 1.363 . S
C568 C573 1.379 . S
C568 N575 1.356 . S
C569 C568 1.363 . S
C569 C572 1.363 . S
N570 C572 1.356 . S
N570 H582 0.984 . S
N570 H583 0.985 . S
N571 C573 1.356 . S
N571 H576 0.984 . S
N571 H577 0.985 . S
C572 C566 1.379 . S
C572 C569 1.363 . S
C572 N570 1.356 . S
C573 C567 1.363 . S
C573 C568 1.379 . S
C573 N571 1.356 . S
N574 C566 1.356 . S
N574 H580 0.984 . S
N574 H581 0.984 . S
N575 C568 1.356 . S
N575 H578 0.984 . S
N575 H579 0.985 . S
H576 N571 0.984 . S
H577 N571 0.985 . S
H578 N575 0.984 . S
H579 N575 0.985 . S
H580 N574 0.984 . S
H581 N574 0.984 . S
H582 N570 0.984 . S
H583 N570 0.985 . S
C584 C585 1.363 . S
C584 C590 1.379 . S
C584 N592 1.356 . S
C585 C584 1.363 . S
C585 C591 1.363 . S
C586 C587 1.363 . S
C586 C591 1.379 . S
C586 N593 1.356 1_556 S
C587 C586 1.363 . S
C587 C590 1.363 . S
N588 C590 1.356 . S
N588 H600 0.984 . S
N588 H601 0.985 . S
N589 C591 1.356 . S
N589 H594 0.984 . S
N589 H595 0.985 . S
C590 C584 1.379 . S
C590 C587 1.363 . S
C590 N588 1.356 . S
C591 C585 1.363 . S
C591 C586 1.379 . S
C591 N589 1.356 . S
N592 C584 1.356 . S
N592 H598 0.984 . S
N592 H599 0.984 . S
N593 C586 1.356 1_554 S
N593 H596 0.984 . S
N593 H597 0.985 . S
H594 N589 0.984 . S
H595 N589 0.985 . S
H596 N593 0.984 . S
H597 N593 0.985 . S
H598 N592 0.984 . S
H599 N592 0.984 . S
H600 N588 0.984 . S
H601 N588 0.985 . S
C602 C603 1.363 . S
C602 C608 1.379 . S
C602 N610 1.356 . S
C603 C602 1.363 . S
C603 C609 1.363 . S
C604 C605 1.363 . S
C604 C609 1.379 . S
C604 N611 1.356 . S
C605 C604 1.363 . S
C605 C608 1.363 . S
N606 C608 1.356 . S
N606 H618 0.984 . S
N606 H619 0.985 . S
N607 C609 1.356 . S
N607 H612 0.984 . S
N607 H613 0.985 . S
C608 C602 1.379 . S
C608 C605 1.363 . S
C608 N606 1.356 . S
C609 C603 1.363 . S
C609 C604 1.379 . S
C609 N607 1.356 . S
N610 C602 1.356 . S
N610 H616 0.984 . S
N610 H617 0.984 . S
N611 C604 1.356 . S
N611 H614 0.984 . S
N611 H615 0.985 . S
H612 N607 0.984 . S
H613 N607 0.985 . S
H614 N611 0.984 . S
H615 N611 0.985 . S
H616 N610 0.984 . S
H617 N610 0.984 . S
H618 N606 0.984 . S
H619 N606 0.985 . S
C620 C621 1.363 . S
C620 C626 1.379 . S
C620 N628 1.356 . S
C621 C620 1.363 . S
C621 C627 1.363 . S
C622 C623 1.363 . S
C622 C627 1.379 . S
C622 N629 1.356 . S
C623 C622 1.363 . S
C623 C626 1.363 . S
N624 C626 1.356 . S
N624 H636 0.984 . S
N624 H637 0.985 . S
N625 C627 1.356 1_554 S
N625 H630 0.984 . S
N625 H631 0.985 . S
C626 C620 1.379 . S
C626 C623 1.363 . S
C626 N624 1.356 . S
C627 C621 1.363 . S
C627 C622 1.379 . S
C627 N625 1.356 1_556 S
N628 C620 1.356 . S
N628 H634 0.984 . S
N628 H635 0.984 . S
N629 C622 1.356 . S
N629 H632 0.984 . S
N629 H633 0.985 . S
H630 N625 0.984 . S
H631 N625 0.985 . S
H632 N629 0.984 . S
H633 N629 0.985 . S
H634 N628 0.984 . S
H635 N628 0.984 . S
H636 N624 0.984 . S
H637 N624 0.985 . S
C638 C639 1.363 . S
C638 C644 1.379 . S
C638 N646 1.356 . S
C639 C638 1.363 . S
C639 C645 1.363 . S
C640 C641 1.363 . S
C640 C645 1.379 . S
C640 N647 1.356 . S
C641 C640 1.363 . S
C641 C644 1.363 . S
N642 C644 1.356 . S
N642 H654 0.984 . S
N642 H655 0.985 . S
N643 C645 1.356 . S
N643 H648 0.984 . S
N643 H649 0.985 . S
C644 C638 1.379 . S
C644 C641 1.363 . S
C644 N642 1.356 . S
C645 C639 1.363 . S
C645 C640 1.379 . S
C645 N643 1.356 . S
N646 C638 1.356 . S
N646 H652 0.984 . S
N646 H653 0.984 . S
N647 C640 1.356 . S
N647 H650 0.984 . S
N647 H651 0.985 . S
H648 N643 0.984 . S
H649 N643 0.985 . S
H650 N647 0.984 . S
H651 N647 0.985 . S
H652 N646 0.984 . S
H653 N646 0.984 . S
H654 N642 0.984 . S
H655 N642 0.985 . S
C656 C657 1.363 . S
C656 C662 1.379 . S
C656 N664 1.356 . S
C657 C656 1.363 . S
C657 C663 1.363 . S
C658 C659 1.363 . S
C658 C663 1.379 . S
C658 N665 1.356 . S
C659 C658 1.363 . S
C659 C662 1.363 . S
N660 C662 1.356 . S
N660 H672 0.984 . S
N660 H673 0.985 . S
N661 C663 1.356 . S
N661 H666 0.984 . S
N661 H667 0.985 . S
C662 C656 1.379 . S
C662 C659 1.363 . S
C662 N660 1.356 . S
C663 C657 1.363 . S
C663 C658 1.379 . S
C663 N661 1.356 . S
N664 C656 1.356 . S
N664 H670 0.984 . S
N664 H671 0.984 . S
N665 C658 1.356 . S
N665 H668 0.984 . S
N665 H669 0.985 . S
H666 N661 0.984 . S
H667 N661 0.985 . S
H668 N665 0.984 . S
H669 N665 0.985 . S
H670 N664 0.984 . S
H671 N664 0.984 . S
H672 N660 0.984 . S
H673 N660 0.985 . S
C674 C675 1.363 . S
C674 C680 1.379 . S
C674 N682 1.356 . S
C675 C674 1.363 . S
C675 C681 1.363 . S
C676 C677 1.363 . S
C676 C681 1.379 . S
C676 N683 1.356 . S
C677 C676 1.363 . S
C677 C680 1.363 . S
N678 C680 1.356 . S
N678 H690 0.984 . S
N678 H691 0.985 . S
N679 C681 1.356 . S
N679 H684 0.984 . S
N679 H685 0.985 . S
C680 C674 1.379 . S
C680 C677 1.363 . S
C680 N678 1.356 . S
C681 C675 1.363 . S
C681 C676 1.379 . S
C681 N679 1.356 . S
N682 C674 1.356 . S
N682 H688 0.984 . S
N682 H689 0.984 . S
N683 C676 1.356 . S
N683 H686 0.984 . S
N683 H687 0.985 . S
H684 N679 0.984 . S
H685 N679 0.985 . S
H686 N683 0.984 . S
H687 N683 0.985 . S
H688 N682 0.984 . S
H689 N682 0.984 . S
H690 N678 0.984 . S
H691 N678 0.985 . S
C692 C693 1.363 . S
C692 C698 1.379 . S
C692 N700 1.356 . S
C693 C692 1.363 . S
C693 C699 1.363 . S
C694 C695 1.363 . S
C694 C699 1.379 . S
C694 N701 1.356 . S
C695 C694 1.363 . S
C695 C698 1.363 . S
N696 C698 1.356 . S
N696 H708 0.984 . S
N696 H709 0.985 . S
N697 C699 1.356 . S
N697 H702 0.984 . S
N697 H703 0.985 . S
C698 C692 1.379 . S
C698 C695 1.363 . S
C698 N696 1.356 . S
C699 C693 1.363 . S
C699 C694 1.379 . S
C699 N697 1.356 . S
N700 C692 1.356 . S
N700 H706 0.984 . S
N700 H707 0.984 . S
N701 C694 1.356 . S
N701 H704 0.984 . S
N701 H705 0.985 . S
H702 N697 0.984 . S
H703 N697 0.985 . S
H704 N701 0.984 . S
H705 N701 0.985 . S
H706 N700 0.984 . S
H707 N700 0.984 . S
H708 N696 0.984 . S
H709 N696 0.985 . S
C710 C711 1.363 . S
C710 C716 1.379 . S
C710 N718 1.356 . S
C711 C710 1.363 . S
C711 C717 1.363 . S
C712 C713 1.363 . S
C712 C717 1.379 . S
C712 N719 1.356 . S
C713 C712 1.363 . S
C713 C716 1.363 . S
N714 C716 1.356 . S
N714 H726 0.984 . S
N714 H727 0.985 . S
N715 C717 1.356 . S
N715 H720 0.984 . S
N715 H721 0.985 . S
C716 C710 1.379 . S
C716 C713 1.363 . S
C716 N714 1.356 . S
C717 C711 1.363 . S
C717 C712 1.379 . S
C717 N715 1.356 . S
N718 C710 1.356 . S
N718 H724 0.984 . S
N718 H725 0.984 . S
N719 C712 1.356 . S
N719 H722 0.984 . S
N719 H723 0.985 . S
H720 N715 0.984 . S
H721 N715 0.985 . S
H722 N719 0.984 . S
H723 N719 0.985 . S
H724 N718 0.984 . S
H725 N718 0.984 . S
H726 N714 0.984 . S
H727 N714 0.985 . S
C728 C729 1.363 . S
C728 C734 1.379 . S
C728 N736 1.356 . S
C729 C728 1.363 . S
C729 C735 1.363 . S
C730 C731 1.363 . S
C730 C735 1.379 . S
C730 N737 1.356 . S
C731 C730 1.363 . S
C731 C734 1.363 . S
N732 C734 1.356 . S
N732 H744 0.984 . S
N732 H745 0.985 . S
N733 C735 1.356 . S
N733 H738 0.984 . S
N733 H739 0.985 . S
C734 C728 1.379 . S
C734 C731 1.363 . S
C734 N732 1.356 . S
C735 C729 1.363 . S
C735 C730 1.379 . S
C735 N733 1.356 . S
N736 C728 1.356 . S
N736 H742 0.984 . S
N736 H743 0.984 . S
N737 C730 1.356 . S
N737 H740 0.984 . S
N737 H741 0.985 . S
H738 N733 0.984 . S
H739 N733 0.985 . S
H740 N737 0.984 . S
H741 N737 0.985 . S
H742 N736 0.984 . S
H743 N736 0.984 . S
H744 N732 0.984 . S
H745 N732 0.985 . S
C746 C747 1.363 . S
C746 C752 1.379 . S
C746 N754 1.356 . S
C747 C746 1.363 . S
C747 C753 1.363 . S
C748 C749 1.363 . S
C748 C753 1.379 . S
C748 N755 1.356 . S
C749 C748 1.363 . S
C749 C752 1.363 . S
N750 C752 1.356 . S
N750 H762 0.984 . S
N750 H763 0.985 . S
N751 C753 1.356 . S
N751 H756 0.984 . S
N751 H757 0.985 . S
C752 C746 1.379 . S
C752 C749 1.363 . S
C752 N750 1.356 . S
C753 C747 1.363 . S
C753 C748 1.379 . S
C753 N751 1.356 . S
N754 C746 1.356 . S
N754 H760 0.984 . S
N754 H761 0.984 . S
N755 C748 1.356 . S
N755 H758 0.984 . S
N755 H759 0.985 . S
H756 N751 0.984 . S
H757 N751 0.985 . S
H758 N755 0.984 . S
H759 N755 0.985 . S
H760 N754 0.984 . S
H761 N754 0.984 . S
H762 N750 0.984 . S
H763 N750 0.985 . S
C764 C765 1.363 . S
C764 C770 1.379 . S
C764 N772 1.356 . S
C765 C764 1.363 . S
C765 C771 1.363 . S
C766 C767 1.363 . S
C766 C771 1.379 . S
C766 N773 1.356 . S
C767 C766 1.363 . S
C767 C770 1.363 . S
N768 C770 1.356 . S
N768 H780 0.984 . S
N768 H781 0.985 . S
N769 C771 1.356 . S
N769 H774 0.984 . S
N769 H775 0.985 . S
C770 C764 1.379 . S
C770 C767 1.363 . S
C770 N768 1.356 . S
C771 C765 1.363 . S
C771 C766 1.379 . S
C771 N769 1.356 . S
N772 C764 1.356 . S
N772 H778 0.984 . S
N772 H779 0.984 . S
N773 C766 1.356 . S
N773 H776 0.984 . S
N773 H777 0.985 . S
H774 N769 0.984 . S
H775 N769 0.985 . S
H776 N773 0.984 . S
H777 N773 0.985 . S
H778 N772 0.984 . S
H779 N772 0.984 . S
H780 N768 0.984 . S
H781 N768 0.985 . S
C782 C783 1.363 . S
C782 C788 1.379 . S
C782 N790 1.356 . S
C783 C782 1.363 . S
C783 C789 1.363 . S
C784 C785 1.363 . S
C784 C789 1.379 . S
C784 N791 1.356 . S
C785 C784 1.363 . S
C785 C788 1.363 . S
N786 C788 1.356 . S
N786 H798 0.984 . S
N786 H799 0.985 . S
N787 C789 1.356 . S
N787 H792 0.984 . S
N787 H793 0.985 . S
C788 C782 1.379 . S
C788 C785 1.363 . S
C788 N786 1.356 . S
C789 C783 1.363 . S
C789 C784 1.379 . S
C789 N787 1.356 . S
N790 C782 1.356 . S
N790 H796 0.984 . S
N790 H797 0.984 . S
N791 C784 1.356 . S
N791 H794 0.984 . S
N791 H795 0.985 . S
H792 N787 0.984 . S
H793 N787 0.985 . S
H794 N791 0.984 . S
H795 N791 0.985 . S
H796 N790 0.984 . S
H797 N790 0.984 . S
H798 N786 0.984 . S
H799 N786 0.985 . S
C225 C8 1.243 1_655 S
C227 C64 1.243 1_655 S
C243 C78 1.243 1_565 S
C245 C22 1.243 1_565 S
C261 C36 1.243 . S
C263 C92 1.243 . S
C279 C50 1.243 . S
C281 C106 1.243 . S
C297 C120 1.243 1_455 S
C299 C176 1.243 1_455 S
C315 C190 1.243 1_545 S
C317 C134 1.243 1_545 S
C333 C148 1.243 . S
C335 C204 1.243 . S
C351 C162 1.243 . S
C353 C218 1.243 . S
C369 C7 1.449 1_556 S
C371 C219 1.462 . S
C387 C177 1.462 . S
C389 C21 1.449 . S
C405 C35 1.449 1_556 S
C407 C191 1.462 . S
C423 C205 1.462 . S
C425 C49 1.449 . S
C441 C135 1.462 . S
C443 C63 1.449 1_554 S
C459 C149 1.462 . S
C461 C77 1.449 . S
C477 C163 1.462 . S
C479 C91 1.449 1_554 S
C495 C121 1.462 . S
C497 C105 1.449 . S
C513 C119 1.449 1_554 S
C515 C107 1.462 . S
C531 C65 1.462 . S
C533 C133 1.449 . S
C549 C79 1.462 . S
C551 C147 1.449 1_554 S
C567 C161 1.449 . S
C569 C93 1.462 . S
C585 C23 1.462 . S
C587 C175 1.449 1_556 S
C603 C189 1.449 . S
C605 C37 1.462 . S
C621 C203 1.449 1_556 S
C623 C51 1.462 . S
C639 C217 1.449 . S
C641 C9 1.462 . S
C657 C101 1.273 . S
C659 C3 1.273 . S
C675 C17 1.273 . S
C677 C59 1.273 . S
C693 C31 1.273 . S
C695 C73 1.273 . S
C711 C45 1.273 . S
C713 C87 1.273 . S
C729 C213 1.273 . S
C731 C115 1.273 . S
C747 C171 1.273 . S
C749 C129 1.273 . S
C765 C185 1.273 . S
C767 C143 1.273 . S
C783 C199 1.273 . S
C785 C157 1.273 . S
