# Generated by pormake.
# Topology vcn, (7)-cn, num edge types: 1
# Building blocks:
#     Node 0, Type 0, BuildingBlock: HICVOG_clean_sbu_0, # of connection points: 7
#     Node 1, Type 0, BuildingBlock: HICVOG_clean_sbu_0, # of connection points: 7
#     Node 2, Type 0, BuildingBlock: HICVOG_clean_sbu_0, # of connection points: 7
#     Node 3, Type 0, BuildingBlock: HICVOG_clean_sbu_0, # of connection points: 7
#     Node 4, Type 0, BuildingBlock: HICVOG_clean_sbu_0, # of connection points: 7
#     Node 5, Type 0, BuildingBlock: HICVOG_clean_sbu_0, # of connection points: 7
#     Node 6, Type 0, BuildingBlock: HICVOG_clean_sbu_0, # of connection points: 7
#     Node 7, Type 0, BuildingBlock: HICVOG_clean_sbu_0, # of connection points: 7
#     Edge 8, Type (0, 0), None
#     Edge 9, Type (0, 0), None
#     Edge 10, Type (0, 0), None
#     Edge 11, Type (0, 0), None
#     Edge 12, Type (0, 0), None
#     Edge 13, Type (0, 0), None
#     Edge 14, Type (0, 0), None
#     Edge 15, Type (0, 0), None
#     Edge 16, Type (0, 0), None
#     Edge 17, Type (0, 0), None
#     Edge 18, Type (0, 0), None
#     Edge 19, Type (0, 0), None
#     Edge 20, Type (0, 0), None
#     Edge 21, Type (0, 0), None
#     Edge 22, Type (0, 0), None
#     Edge 23, Type (0, 0), None
#     Edge 24, Type (0, 0), None
#     Edge 25, Type (0, 0), None
#     Edge 26, Type (0, 0), None
#     Edge 27, Type (0, 0), None
#     Edge 28, Type (0, 0), None
#     Edge 29, Type (0, 0), None
#     Edge 30, Type (0, 0), None
#     Edge 31, Type (0, 0), None
#     Edge 32, Type (0, 0), None
#     Edge 33, Type (0, 0), None
#     Edge 34, Type (0, 0), None
#     Edge 35, Type (0, 0), None
# Relax obj value: 0.256
# Max RMSD: 0.230
# Mean RMSD: 0.230
data_MOF--net-vcn--node1-HICVOG_clean_sbu_0--edge1-none
_symmetry_space_group_name_H-M    P1
_symmetry_Int_Tables_number       1
_symmetry_cell_setting            triclinic
loop_
_symmetry_equiv_pos_as_xyz
'x, y, z'
_cell_length_a     24.083132
_cell_length_b     31.780389
_cell_length_c     6.436408
_cell_angle_alpha  89.990896
_cell_angle_beta   90.000005
_cell_angle_gamma 90.009259
loop_
_atom_site_label
_atom_site_type_symbol
_atom_site_fract_x
_atom_site_fract_y
_atom_site_fract_z
_atom_type_partial_charge
Zn0 Zn 0.15654 0.42607 0.22276 0.0
C1 C 0.12819 0.33111 0.97654 0.0
N2 N 0.1524 0.35174 0.81942 0.0
C3 C 0.13299 0.39145 0.83769 0.0
N4 N 0.10794 0.39593 0.02468 0.0
N5 N 0.09808 0.35758 0.0947 0.0
C6 C 0.06888 0.26666 0.47503 0.0
O7 O 0.11623 0.28445 0.52061 0.0
O8 O 0.17198 0.48457 0.10706 0.0
Zn9 Zn 0.04257 0.34997 0.30791 0.0
N10 N 0.22261 0.39156 0.27029 0.0
C11 C 0.24572 0.32792 0.44645 0.0
C12 C 0.20669 0.35629 0.37378 0.0
C13 C 0.27755 0.39958 0.23453 0.0
N14 N 0.2999 0.33529 0.4085 0.0
C15 C 0.31731 0.37021 0.30547 0.0
O16 O 0.07184 0.37709 0.57056 0.0
C17 C 0.10424 0.40522 0.64478 0.0
O18 O 0.12998 0.4308 0.52601 0.0
H19 H 0.16353 0.35055 0.40252 0.0
H20 H 0.28988 0.42746 0.14966 0.0
C21 C 0.92342 0.36921 0.31109 0.0
C22 C 0.87283 0.38076 0.21599 0.0
C23 C 0.92124 0.39687 0.90638 0.0
C24 C 0.97093 0.38485 0.99934 0.0
N25 N 0.97158 0.37148 0.20034 0.0
N26 N 0.87337 0.39435 1.01595 0.0
H27 H 0.92429 0.35732 0.46853 0.0
C28 C 0.1274 0.50455 0.06801 0.0
O29 O 0.07957 0.48641 0.10811 0.0
O30 O 0.03216 0.28804 0.3795 0.0
H31 H 1.00831 0.38534 0.90858 0.0
H32 H 0.23314 0.29992 0.52971 0.0
H33 H 0.92074 0.40808 0.74789 0.0
Zn34 Zn 0.53636 0.62567 0.72288 0.0
C35 C 0.56471 0.72064 0.47656 0.0
N36 N 0.5405 0.70001 0.31946 0.0
C37 C 0.55991 0.6603 0.33779 0.0
N38 N 0.58496 0.65582 0.52478 0.0
N39 N 0.59482 0.69417 0.59475 0.0
C40 C 0.62401 0.78509 0.97502 0.0
O41 O 0.57666 0.7673 1.02061 0.0
O42 O 0.52091 0.56718 0.60718 0.0
Zn43 Zn 0.65033 0.70178 0.80796 0.0
N44 N 0.47029 0.6602 0.77035 0.0
C45 C 0.44718 0.72383 0.94642 0.0
C46 C 0.48621 0.69546 0.8738 0.0
C47 C 0.41534 0.65218 0.73457 0.0
N48 N 0.39301 0.71647 0.90845 0.0
C49 C 0.37559 0.68156 0.80546 0.0
O50 O 0.62106 0.67466 0.07063 0.0
C51 C 0.58865 0.64653 0.14489 0.0
O52 O 0.56291 0.62095 0.02616 0.0
H53 H 0.52937 0.70119 0.90256 0.0
H54 H 0.40301 0.62431 0.64974 0.0
C55 C 0.76948 0.68255 0.81116 0.0
C56 C 0.82007 0.671 0.71607 0.0
C57 C 0.77166 0.65489 0.4065 0.0
C58 C 0.72197 0.66691 0.49944 0.0
N59 N 0.72132 0.68028 0.70042 0.0
N60 N 0.81953 0.65741 0.51606 0.0
H61 H 0.76861 0.69444 0.96858 0.0
C62 C 0.56549 0.54722 0.56806 0.0
O63 O 0.61332 0.56535 0.60814 0.0
O64 O 0.66073 0.76371 0.8795 0.0
H65 H 0.68459 0.66641 0.40868 0.0
H66 H 0.45976 0.75183 0.02964 0.0
H67 H 0.77216 0.64368 0.24802 0.0
Zn68 Zn 0.04269 0.70174 0.73926 0.0
C69 C 0.13313 0.66037 0.20933 0.0
N70 N 0.15246 0.7001 0.22777 0.0
C71 C 0.1282 0.72069 0.07073 0.0
N72 N 0.09816 0.69417 0.95265 0.0
N73 N 0.10818 0.65579 1.02215 0.0
C74 C 0.12742 0.54717 0.97871 0.0
O75 O 0.07962 0.56534 0.9388 0.0
O76 O 0.03226 0.76366 0.66765 0.0
Zn77 Zn 0.15665 0.62561 0.82384 0.0
N78 N 0.97169 0.6802 0.84668 0.0
C79 C 0.92134 0.6548 0.1406 0.0
C80 C 0.97104 0.66679 0.04762 0.0
C81 C 0.92353 0.68251 0.73599 0.0
N82 N 0.87346 0.65737 0.03108 0.0
C83 C 0.87293 0.67098 0.83109 0.0
O84 O 0.13005 0.62091 0.52063 0.0
C85 C 0.10435 0.64656 0.40211 0.0
O86 O 0.07198 0.67467 0.47661 0.0
H87 H 1.00844 0.66624 0.13832 0.0
H88 H 0.92441 0.69443 0.57859 0.0
C89 C 0.27768 0.65213 0.81197 0.0
C90 C 0.31742 0.68156 0.74128 0.0
C91 C 0.2458 0.72385 0.60078 0.0
C92 C 0.20679 0.69544 0.67324 0.0
N93 N 0.22274 0.66013 0.77626 0.0
N94 N 0.29998 0.7165 0.63859 0.0
H95 H 0.29003 0.62423 0.89661 0.0
C96 C 0.06898 0.78508 0.57229 0.0
O97 O 0.11637 0.76735 0.52695 0.0
O98 O 0.17204 0.56711 0.93948 0.0
H99 H 0.16362 0.70118 0.64471 0.0
H100 H 0.92083 0.64357 0.29907 0.0
H101 H 0.2332 0.75188 0.51784 0.0
Zn102 Zn 0.65021 0.35005 0.23921 0.0
C103 C 0.55977 0.39142 0.70923 0.0
N104 N 0.54044 0.35169 0.72772 0.0
C105 C 0.56469 0.3311 0.57071 0.0
N106 N 0.59474 0.35762 0.45259 0.0
N107 N 0.58472 0.396 0.52204 0.0
C108 C 0.56546 0.50461 0.47869 0.0
O109 O 0.61327 0.48643 0.43882 0.0
O110 O 0.66063 0.28813 0.16764 0.0
Zn111 Zn 0.53624 0.42618 0.32372 0.0
N112 N 0.7212 0.37158 0.3466 0.0
C113 C 0.77156 0.39698 0.64048 0.0
C114 C 0.72186 0.38499 0.54753 0.0
C115 C 0.76937 0.36926 0.23592 0.0
N116 N 0.81944 0.3944 0.53097 0.0
C117 C 0.81997 0.38079 0.331 0.0
O118 O 0.56283 0.43087 1.02048 0.0
C119 C 0.58854 0.40523 0.902 0.0
O120 O 0.62091 0.37712 0.97653 0.0
H121 H 0.68446 0.38554 0.63822 0.0
H122 H 0.76848 0.35734 0.07854 0.0
C123 C 0.41521 0.39964 0.31192 0.0
C124 C 0.37548 0.37022 0.24129 0.0
C125 C 0.4471 0.32793 0.1008 0.0
C126 C 0.48611 0.35634 0.17322 0.0
N127 N 0.47016 0.39166 0.2762 0.0
N128 N 0.39292 0.33528 0.13863 0.0
H129 H 0.40286 0.42754 0.39654 0.0
C130 C 0.62392 0.26671 0.07229 0.0
O131 O 0.57652 0.28444 0.02695 0.0
O132 O 0.52085 0.48468 0.43936 0.0
H133 H 0.52928 0.35061 0.14467 0.0
H134 H 0.77207 0.4082 0.79894 0.0
H135 H 0.45971 0.2999 1.01789 0.0
Zn136 Zn 0.65655 0.92607 0.22269 0.0
C137 C 0.62813 0.83112 0.9763 0.0
N138 N 0.65239 0.85174 0.81929 0.0
C139 C 0.633 0.89145 0.8376 0.0
N140 N 0.60795 0.89594 0.02459 0.0
N141 N 0.59806 0.85758 0.09458 0.0
C142 C 0.56889 0.76667 0.47502 0.0
O143 O 0.61626 0.78442 0.52047 0.0
O144 O 0.67201 0.98457 0.107 0.0
Zn145 Zn 0.54257 0.84998 0.30786 0.0
N146 N 0.72261 0.89154 0.27021 0.0
C147 C 0.74569 0.82789 0.44625 0.0
C148 C 0.70667 0.85627 0.37362 0.0
C149 C 0.77756 0.89956 0.23451 0.0
N150 N 0.79987 0.83525 0.40834 0.0
C151 C 0.8173 0.87017 0.3054 0.0
O152 O 0.57185 0.87711 0.57047 0.0
C153 C 0.60425 0.90523 0.6447 0.0
O154 O 0.63 0.93081 0.52594 0.0
H155 H 0.66351 0.85054 0.40235 0.0
H156 H 0.7899 0.92744 0.14972 0.0
C157 C 0.42341 0.86922 0.31106 0.0
C158 C 0.37282 0.88077 0.21597 0.0
C159 C 0.42124 0.89688 0.90637 0.0
C160 C 0.47092 0.88486 0.99932 0.0
N161 N 0.47157 0.87148 0.20031 0.0
N162 N 0.37336 0.89436 1.01594 0.0
H163 H 0.42429 0.85732 0.4685 0.0
C164 C 0.62743 1.00455 0.06801 0.0
O165 O 0.5796 0.98642 0.10813 0.0
O166 O 0.53216 0.78805 0.37954 0.0
H167 H 0.50831 0.88536 0.90855 0.0
H168 H 0.7331 0.79989 0.52944 0.0
H169 H 0.42073 0.90809 0.74788 0.0
Zn170 Zn 0.03634 0.12567 0.72284 0.0
C171 C 0.06477 0.22063 0.47634 0.0
N172 N 0.04051 0.20001 0.31936 0.0
C173 C 0.0599 0.1603 0.33773 0.0
N174 N 0.08495 0.15581 0.52473 0.0
N175 N 0.09484 0.19416 0.59467 0.0
C176 C 0.12401 0.28508 0.97503 0.0
O177 O 0.07663 0.26733 1.02049 0.0
O178 O 0.02088 0.06718 0.60714 0.0
Zn179 Zn 0.15033 0.20177 0.80794 0.0
N180 N 0.97028 0.16021 0.77029 0.0
C181 C 0.94721 0.22386 0.94625 0.0
C182 C 0.98623 0.19548 0.87367 0.0
C183 C 0.91534 0.1522 0.73458 0.0
N184 N 0.89303 0.21651 0.90833 0.0
C185 C 0.8756 0.18159 0.80542 0.0
O186 O 0.12105 0.17464 0.07058 0.0
C187 C 0.08864 0.14651 0.14484 0.0
O188 O 0.06289 0.12094 0.02611 0.0
H189 H 0.02939 0.2012 0.90241 0.0
H190 H 0.90299 0.12432 0.64981 0.0
C191 C 0.26949 0.18254 0.81116 0.0
C192 C 0.32008 0.171 0.71608 0.0
C193 C 0.27167 0.15488 0.40651 0.0
C194 C 0.22198 0.1669 0.49944 0.0
N195 N 0.22133 0.18027 0.70042 0.0
N196 N 0.31954 0.15741 0.51607 0.0
H197 H 0.26861 0.19444 0.96858 0.0
C198 C 0.06546 0.04721 0.56805 0.0
O199 O 0.11329 0.06534 0.60815 0.0
O200 O 0.16073 0.2637 0.87957 0.0
H201 H 0.18459 0.16639 0.40868 0.0
H202 H 0.95981 0.25186 0.02941 0.0
H203 H 0.27217 0.14367 0.24803 0.0
Zn204 Zn 0.54269 0.20174 0.73931 0.0
C205 C 0.63315 0.16037 0.20941 0.0
N206 N 0.65246 0.20011 0.22789 0.0
C207 C 0.62815 0.22069 0.07097 0.0
N208 N 0.59815 0.19417 0.95275 0.0
N209 N 0.60819 0.15579 1.02222 0.0
C210 C 0.62746 0.04717 0.97873 0.0
O211 O 0.57965 0.06535 0.93881 0.0
O212 O 0.53226 0.26366 0.66761 0.0
Zn213 Zn 0.65667 0.12562 0.82391 0.0
N214 N 0.4717 0.1802 0.84671 0.0
C215 C 0.42134 0.15479 0.14061 0.0
C216 C 0.47104 0.16679 0.04765 0.0
C217 C 0.42354 0.18251 0.73601 0.0
N218 N 0.37346 0.15736 0.03109 0.0
C219 C 0.37293 0.17098 0.8311 0.0
O220 O 0.63008 0.12091 0.5207 0.0
C221 C 0.60437 0.14655 0.40219 0.0
O222 O 0.572 0.17466 0.47669 0.0
H223 H 0.50844 0.16623 0.13834 0.0
H224 H 0.42442 0.19443 0.57861 0.0
C225 C 0.7777 0.15215 0.81198 0.0
C226 C 0.81742 0.18159 0.74133 0.0
C227 C 0.74578 0.22389 0.60097 0.0
C228 C 0.70678 0.19547 0.6734 0.0
N229 N 0.72274 0.16014 0.77633 0.0
N230 N 0.79997 0.21654 0.63873 0.0
H231 H 0.79005 0.12425 0.89655 0.0
C232 C 0.56898 0.28508 0.57229 0.0
O233 O 0.61641 0.26739 0.52709 0.0
O234 O 0.67207 0.06711 0.93953 0.0
H235 H 0.66361 0.2012 0.64488 0.0
H236 H 0.42083 0.14357 0.29908 0.0
H237 H 0.73317 0.25193 0.5181 0.0
Zn238 Zn 0.1502 0.85005 0.23923 0.0
C239 C 0.05975 0.89142 0.70929 0.0
N240 N 0.04044 0.85168 0.72783 0.0
C241 C 0.06475 0.8311 0.57093 0.0
N242 N 0.09475 0.85762 0.45268 0.0
N243 N 0.08471 0.896 0.52209 0.0
C244 C 0.06543 1.0046 0.47869 0.0
O245 O 0.11324 0.98643 0.4388 0.0
O246 O 0.16063 0.78813 0.16758 0.0
Zn247 Zn 0.03623 0.92617 0.32376 0.0
N248 N 0.2212 0.87158 0.34661 0.0
C249 C 0.27156 0.89698 0.64047 0.0
C250 C 0.22186 0.88499 0.54752 0.0
C251 C 0.26936 0.86926 0.23591 0.0
N252 N 0.31944 0.89441 0.53096 0.0
C253 C 0.31997 0.88079 0.33099 0.0
O254 O 0.06281 0.93088 1.02053 0.0
C255 C 0.08853 0.90524 0.90205 0.0
O256 O 0.1209 0.87713 0.97659 0.0
H257 H 0.18446 0.88555 0.63822 0.0
H258 H 0.26848 0.85734 0.07853 0.0
C259 C 0.9152 0.89962 0.31191 0.0
C260 C 0.87548 0.87018 0.24132 0.0
C261 C 0.94713 0.82789 0.10098 0.0
C262 C 0.98612 0.85632 0.17335 0.0
N263 N 0.97015 0.89164 0.27625 0.0
N264 N 0.89294 0.83523 0.13875 0.0
H265 H 0.90284 0.92752 0.39645 0.0
C266 C 0.12391 0.76671 0.07228 0.0
O267 O 0.07648 0.7844 0.02707 0.0
O268 O 0.02082 0.98467 0.4394 0.0
H269 H 0.02929 0.85059 0.14482 0.0
H270 H 0.27207 0.90821 0.79893 0.0
H271 H 0.95974 0.79986 1.01813 0.0
loop_
_geom_bond_atom_site_label_1
_geom_bond_atom_site_label_2
_geom_bond_distance
_geom_bond_site_symmetry_2
_ccdc_geom_bond_type
Zn0 N4 2.020 1_554 S
Zn0 O8 2.019 . S
Zn0 N10 2.119 . S
Zn0 O18 1.975 . S
C1 N2 1.334 . S
C1 N5 1.336 . S
N2 C1 1.334 . S
N2 C3 1.334 . S
C3 N2 1.334 . S
C3 N4 1.336 . S
N4 Zn0 2.020 1_556 S
N4 C3 1.336 . S
N4 N5 1.354 . S
N5 C1 1.336 . S
N5 N4 1.354 . S
N5 Zn9 2.020 1_556 S
C6 O7 1.244 . S
C6 O30 1.257 . S
O7 C6 1.244 . S
O8 Zn0 2.019 . S
O8 C28 1.257 . S
Zn9 N5 2.020 1_554 S
Zn9 O16 1.975 . S
Zn9 N25 2.119 1_455 S
Zn9 O30 2.019 . S
N10 Zn0 2.119 . S
N10 C12 1.334 . S
N10 C13 1.328 . S
C11 C12 1.391 . S
C11 N14 1.329 . S
C11 H32 0.930 . S
C12 N10 1.334 . S
C12 C11 1.391 . S
C12 H19 0.930 . S
C13 N10 1.328 . S
C13 C15 1.392 . S
C13 H20 0.930 . S
N14 C11 1.329 . S
N14 C15 1.331 . S
C15 C13 1.392 . S
C15 N14 1.331 . S
O16 Zn9 1.975 . S
O16 C17 1.252 . S
C17 O16 1.252 . S
C17 O18 1.252 . S
O18 Zn0 1.975 . S
O18 C17 1.252 . S
H19 C12 0.930 . S
H20 C13 0.930 . S
C21 C22 1.392 . S
C21 N25 1.328 . S
C21 H27 0.930 . S
C22 C21 1.392 . S
C22 N26 1.331 . S
C23 C24 1.391 . S
C23 N26 1.329 . S
C23 H33 0.930 . S
C24 C23 1.391 . S
C24 N25 1.334 . S
C24 H31 0.930 1_655 S
N25 Zn9 2.119 1_655 S
N25 C21 1.328 . S
N25 C24 1.334 . S
N26 C22 1.331 . S
N26 C23 1.329 . S
H27 C21 0.930 . S
C28 O8 1.257 . S
C28 O29 1.244 1_554 S
O29 C28 1.244 1_556 S
O30 C6 1.257 . S
O30 Zn9 2.019 . S
H31 C24 0.930 1_455 S
H32 C11 0.930 . S
H33 C23 0.930 . S
Zn34 N38 2.020 . S
Zn34 O42 2.019 . S
Zn34 N44 2.119 . S
Zn34 O52 1.975 . S
C35 N36 1.334 . S
C35 N39 1.336 . S
N36 C35 1.334 . S
N36 C37 1.334 . S
C37 N36 1.334 . S
C37 N38 1.336 . S
N38 Zn34 2.020 . S
N38 C37 1.336 . S
N38 N39 1.354 . S
N39 C35 1.336 . S
N39 N38 1.354 . S
N39 Zn43 2.020 . S
C40 O41 1.244 . S
C40 O64 1.257 . S
O41 C40 1.244 . S
O42 Zn34 2.019 . S
O42 C62 1.257 . S
Zn43 N39 2.020 . S
Zn43 O50 1.975 . S
Zn43 N59 2.119 . S
Zn43 O64 2.019 . S
N44 Zn34 2.119 . S
N44 C46 1.334 . S
N44 C47 1.328 . S
C45 C46 1.391 . S
C45 N48 1.329 . S
C45 H66 0.930 . S
C46 N44 1.334 . S
C46 C45 1.391 . S
C46 H53 0.930 . S
C47 N44 1.328 . S
C47 C49 1.392 . S
C47 H54 0.930 . S
N48 C45 1.329 . S
N48 C49 1.331 . S
C49 C47 1.392 . S
C49 N48 1.331 . S
O50 Zn43 1.975 . S
O50 C51 1.252 . S
C51 O50 1.252 . S
C51 O52 1.252 . S
O52 Zn34 1.975 . S
O52 C51 1.252 . S
H53 C46 0.930 . S
H54 C47 0.930 . S
C55 C56 1.392 . S
C55 N59 1.328 . S
C55 H61 0.930 . S
C56 C55 1.392 . S
C56 N60 1.331 . S
C57 C58 1.391 . S
C57 N60 1.329 . S
C57 H67 0.930 . S
C58 C57 1.391 . S
C58 N59 1.334 . S
C58 H65 0.930 . S
N59 Zn43 2.119 . S
N59 C55 1.328 . S
N59 C58 1.334 . S
N60 C56 1.331 . S
N60 C57 1.329 . S
H61 C55 0.930 . S
C62 O42 1.257 . S
C62 O63 1.244 . S
O63 C62 1.244 . S
O64 C40 1.257 . S
O64 Zn43 2.019 . S
H65 C58 0.930 . S
H66 C45 0.930 . S
H67 C57 0.930 . S
Zn68 N72 2.020 1_556 S
Zn68 O76 2.019 . S
Zn68 N78 2.119 1_455 S
Zn68 O86 1.975 . S
C69 N70 1.334 . S
C69 N73 1.336 . S
N70 C69 1.334 . S
N70 C71 1.334 . S
C71 N70 1.334 . S
C71 N72 1.336 . S
N72 Zn68 2.020 1_554 S
N72 C71 1.336 . S
N72 N73 1.354 . S
N73 C69 1.336 . S
N73 N72 1.354 . S
N73 Zn77 2.020 1_554 S
C74 O75 1.244 1_556 S
C74 O98 1.257 . S
O75 C74 1.244 1_554 S
O76 Zn68 2.019 . S
O76 C96 1.257 . S
Zn77 N73 2.020 1_556 S
Zn77 O84 1.975 . S
Zn77 N93 2.119 . S
Zn77 O98 2.019 . S
N78 Zn68 2.119 1_655 S
N78 C80 1.334 . S
N78 C81 1.328 . S
C79 C80 1.391 . S
C79 N82 1.329 . S
C79 H100 0.930 . S
C80 N78 1.334 . S
C80 C79 1.391 . S
C80 H87 0.930 1_655 S
C81 N78 1.328 . S
C81 C83 1.392 . S
C81 H88 0.930 . S
N82 C79 1.329 . S
N82 C83 1.331 . S
C83 C81 1.392 . S
C83 N82 1.331 . S
O84 Zn77 1.975 . S
O84 C85 1.252 . S
C85 O84 1.252 . S
C85 O86 1.252 . S
O86 Zn68 1.975 . S
O86 C85 1.252 . S
H87 C80 0.930 1_455 S
H88 C81 0.930 . S
C89 C90 1.392 . S
C89 N93 1.328 . S
C89 H95 0.930 . S
C90 C89 1.392 . S
C90 N94 1.331 . S
C91 C92 1.391 . S
C91 N94 1.329 . S
C91 H101 0.930 . S
C92 C91 1.391 . S
C92 N93 1.334 . S
C92 H99 0.930 . S
N93 Zn77 2.119 . S
N93 C89 1.328 . S
N93 C92 1.334 . S
N94 C90 1.331 . S
N94 C91 1.329 . S
H95 C89 0.930 . S
C96 O76 1.257 . S
C96 O97 1.244 . S
O97 C96 1.244 . S
O98 C74 1.257 . S
O98 Zn77 2.019 . S
H99 C92 0.930 . S
H100 C79 0.930 . S
H101 C91 0.930 . S
Zn102 N106 2.020 . S
Zn102 O110 2.019 . S
Zn102 N112 2.119 . S
Zn102 O120 1.975 . S
C103 N104 1.334 . S
C103 N107 1.336 . S
N104 C103 1.334 . S
N104 C105 1.334 . S
C105 N104 1.334 . S
C105 N106 1.336 . S
N106 Zn102 2.020 . S
N106 C105 1.336 . S
N106 N107 1.354 . S
N107 C103 1.336 . S
N107 N106 1.354 . S
N107 Zn111 2.020 . S
C108 O109 1.244 . S
C108 O132 1.257 . S
O109 C108 1.244 . S
O110 Zn102 2.019 . S
O110 C130 1.257 . S
Zn111 N107 2.020 . S
Zn111 O118 1.975 . S
Zn111 N127 2.119 . S
Zn111 O132 2.019 . S
N112 Zn102 2.119 . S
N112 C114 1.334 . S
N112 C115 1.328 . S
C113 C114 1.391 . S
C113 N116 1.329 . S
C113 H134 0.930 . S
C114 N112 1.334 . S
C114 C113 1.391 . S
C114 H121 0.930 . S
C115 N112 1.328 . S
C115 C117 1.392 . S
C115 H122 0.930 . S
N116 C113 1.329 . S
N116 C117 1.331 . S
C117 C115 1.392 . S
C117 N116 1.331 . S
O118 Zn111 1.975 . S
O118 C119 1.252 . S
C119 O118 1.252 . S
C119 O120 1.252 . S
O120 Zn102 1.975 . S
O120 C119 1.252 . S
H121 C114 0.930 . S
H122 C115 0.930 . S
C123 C124 1.392 . S
C123 N127 1.328 . S
C123 H129 0.930 . S
C124 C123 1.392 . S
C124 N128 1.331 . S
C125 C126 1.391 . S
C125 N128 1.329 . S
C125 H135 0.930 . S
C126 C125 1.391 . S
C126 N127 1.334 . S
C126 H133 0.930 . S
N127 Zn111 2.119 . S
N127 C123 1.328 . S
N127 C126 1.334 . S
N128 C124 1.331 . S
N128 C125 1.329 . S
H129 C123 0.930 . S
C130 O110 1.257 . S
C130 O131 1.244 . S
O131 C130 1.244 . S
O132 C108 1.257 . S
O132 Zn111 2.019 . S
H133 C126 0.930 . S
H134 C113 0.930 . S
H135 C125 0.930 . S
Zn136 N140 2.020 1_554 S
Zn136 O144 2.019 . S
Zn136 N146 2.119 . S
Zn136 O154 1.975 . S
C137 N138 1.334 . S
C137 N141 1.336 . S
N138 C137 1.334 . S
N138 C139 1.334 . S
C139 N138 1.334 . S
C139 N140 1.336 . S
N140 Zn136 2.020 1_556 S
N140 C139 1.336 . S
N140 N141 1.354 . S
N141 C137 1.336 . S
N141 N140 1.354 . S
N141 Zn145 2.020 1_556 S
C142 O143 1.244 . S
C142 O166 1.257 . S
O143 C142 1.244 . S
O144 Zn136 2.019 . S
O144 C164 1.257 . S
Zn145 N141 2.020 1_554 S
Zn145 O152 1.975 . S
Zn145 N161 2.119 . S
Zn145 O166 2.019 . S
N146 Zn136 2.119 . S
N146 C148 1.334 . S
N146 C149 1.328 . S
C147 C148 1.391 . S
C147 N150 1.329 . S
C147 H168 0.930 . S
C148 N146 1.334 . S
C148 C147 1.391 . S
C148 H155 0.930 . S
C149 N146 1.328 . S
C149 C151 1.392 . S
C149 H156 0.930 . S
N150 C147 1.329 . S
N150 C151 1.331 . S
C151 C149 1.392 . S
C151 N150 1.331 . S
O152 Zn145 1.975 . S
O152 C153 1.252 . S
C153 O152 1.252 . S
C153 O154 1.252 . S
O154 Zn136 1.975 . S
O154 C153 1.252 . S
H155 C148 0.930 . S
H156 C149 0.930 . S
C157 C158 1.392 . S
C157 N161 1.328 . S
C157 H163 0.930 . S
C158 C157 1.392 . S
C158 N162 1.331 . S
C159 C160 1.391 . S
C159 N162 1.329 . S
C159 H169 0.930 . S
C160 C159 1.391 . S
C160 N161 1.334 . S
C160 H167 0.930 . S
N161 Zn145 2.119 . S
N161 C157 1.328 . S
N161 C160 1.334 . S
N162 C158 1.331 . S
N162 C159 1.329 . S
H163 C157 0.930 . S
C164 O144 1.257 . S
C164 O165 1.244 1_554 S
O165 C164 1.244 1_556 S
O166 C142 1.257 . S
O166 Zn145 2.019 . S
H167 C160 0.930 . S
H168 C147 0.930 . S
H169 C159 0.930 . S
Zn170 N174 2.020 . S
Zn170 O178 2.019 1_455 S
Zn170 N180 2.119 1_455 S
Zn170 O188 1.975 . S
C171 N172 1.334 . S
C171 N175 1.336 . S
N172 C171 1.334 . S
N172 C173 1.334 . S
C173 N172 1.334 . S
C173 N174 1.336 . S
N174 Zn170 2.020 . S
N174 C173 1.336 . S
N174 N175 1.354 . S
N175 C171 1.336 . S
N175 N174 1.354 . S
N175 Zn179 2.020 . S
C176 O177 1.244 . S
C176 O200 1.257 . S
O177 C176 1.244 . S
O178 Zn170 2.019 1_655 S
O178 C198 1.257 1_655 S
Zn179 N175 2.020 . S
Zn179 O186 1.975 . S
Zn179 N195 2.119 . S
Zn179 O200 2.019 . S
N180 Zn170 2.119 1_655 S
N180 C182 1.334 . S
N180 C183 1.328 . S
C181 C182 1.391 . S
C181 N184 1.329 . S
C181 H202 0.930 . S
C182 N180 1.334 . S
C182 C181 1.391 . S
C182 H189 0.930 . S
C183 N180 1.328 . S
C183 C185 1.392 . S
C183 H190 0.930 . S
N184 C181 1.329 . S
N184 C185 1.331 . S
C185 C183 1.392 . S
C185 N184 1.331 . S
O186 Zn179 1.975 . S
O186 C187 1.252 . S
C187 O186 1.252 . S
C187 O188 1.252 . S
O188 Zn170 1.975 . S
O188 C187 1.252 . S
H189 C182 0.930 . S
H190 C183 0.930 . S
C191 C192 1.392 . S
C191 N195 1.328 . S
C191 H197 0.930 . S
C192 C191 1.392 . S
C192 N196 1.331 . S
C193 C194 1.391 . S
C193 N196 1.329 . S
C193 H203 0.930 . S
C194 C193 1.391 . S
C194 N195 1.334 . S
C194 H201 0.930 . S
N195 Zn179 2.119 . S
N195 C191 1.328 . S
N195 C194 1.334 . S
N196 C192 1.331 . S
N196 C193 1.329 . S
H197 C191 0.930 . S
C198 O178 1.257 1_455 S
C198 O199 1.244 . S
O199 C198 1.244 . S
O200 C176 1.257 . S
O200 Zn179 2.019 . S
H201 C194 0.930 . S
H202 C181 0.930 . S
H203 C193 0.930 . S
Zn204 N208 2.020 1_556 S
Zn204 O212 2.019 . S
Zn204 N214 2.119 . S
Zn204 O222 1.975 . S
C205 N206 1.334 . S
C205 N209 1.336 . S
N206 C205 1.334 . S
N206 C207 1.334 . S
C207 N206 1.334 . S
C207 N208 1.336 . S
N208 Zn204 2.020 1_554 S
N208 C207 1.336 . S
N208 N209 1.354 . S
N209 C205 1.336 . S
N209 N208 1.354 . S
N209 Zn213 2.020 1_554 S
C210 O211 1.244 1_556 S
C210 O234 1.257 . S
O211 C210 1.244 1_554 S
O212 Zn204 2.019 . S
O212 C232 1.257 . S
Zn213 N209 2.020 1_556 S
Zn213 O220 1.975 . S
Zn213 N229 2.119 . S
Zn213 O234 2.019 . S
N214 Zn204 2.119 . S
N214 C216 1.334 . S
N214 C217 1.328 . S
C215 C216 1.391 . S
C215 N218 1.329 . S
C215 H236 0.930 . S
C216 N214 1.334 . S
C216 C215 1.391 . S
C216 H223 0.930 . S
C217 N214 1.328 . S
C217 C219 1.392 . S
C217 H224 0.930 . S
N218 C215 1.329 . S
N218 C219 1.331 . S
C219 C217 1.392 . S
C219 N218 1.331 . S
O220 Zn213 1.975 . S
O220 C221 1.252 . S
C221 O220 1.252 . S
C221 O222 1.252 . S
O222 Zn204 1.975 . S
O222 C221 1.252 . S
H223 C216 0.930 . S
H224 C217 0.930 . S
C225 C226 1.392 . S
C225 N229 1.328 . S
C225 H231 0.930 . S
C226 C225 1.392 . S
C226 N230 1.331 . S
C227 C228 1.391 . S
C227 N230 1.329 . S
C227 H237 0.930 . S
C228 C227 1.391 . S
C228 N229 1.334 . S
C228 H235 0.930 . S
N229 Zn213 2.119 . S
N229 C225 1.328 . S
N229 C228 1.334 . S
N230 C226 1.331 . S
N230 C227 1.329 . S
H231 C225 0.930 . S
C232 O212 1.257 . S
C232 O233 1.244 . S
O233 C232 1.244 . S
O234 C210 1.257 . S
O234 Zn213 2.019 . S
H235 C228 0.930 . S
H236 C215 0.930 . S
H237 C227 0.930 . S
Zn238 N242 2.020 . S
Zn238 O246 2.019 . S
Zn238 N248 2.119 . S
Zn238 O256 1.975 . S
C239 N240 1.334 . S
C239 N243 1.336 . S
N240 C239 1.334 . S
N240 C241 1.334 . S
C241 N240 1.334 . S
C241 N242 1.336 . S
N242 Zn238 2.020 . S
N242 C241 1.336 . S
N242 N243 1.354 . S
N243 C239 1.336 . S
N243 N242 1.354 . S
N243 Zn247 2.020 . S
C244 O245 1.244 . S
C244 O268 1.257 1_455 S
O245 C244 1.244 . S
O246 Zn238 2.019 . S
O246 C266 1.257 . S
Zn247 N243 2.020 . S
Zn247 O254 1.975 . S
Zn247 N263 2.119 1_455 S
Zn247 O268 2.019 1_455 S
N248 Zn238 2.119 . S
N248 C250 1.334 . S
N248 C251 1.328 . S
C249 C250 1.391 . S
C249 N252 1.329 . S
C249 H270 0.930 . S
C250 N248 1.334 . S
C250 C249 1.391 . S
C250 H257 0.930 . S
C251 N248 1.328 . S
C251 C253 1.392 . S
C251 H258 0.930 . S
N252 C249 1.329 . S
N252 C253 1.331 . S
C253 C251 1.392 . S
C253 N252 1.331 . S
O254 Zn247 1.975 . S
O254 C255 1.252 . S
C255 O254 1.252 . S
C255 O256 1.252 . S
O256 Zn238 1.975 . S
O256 C255 1.252 . S
H257 C250 0.930 . S
H258 C251 0.930 . S
C259 C260 1.392 . S
C259 N263 1.328 . S
C259 H265 0.930 . S
C260 C259 1.392 . S
C260 N264 1.331 . S
C261 C262 1.391 . S
C261 N264 1.329 . S
C261 H271 0.930 . S
C262 C261 1.391 . S
C262 N263 1.334 . S
C262 H269 0.930 . S
N263 Zn247 2.119 1_655 S
N263 C259 1.328 . S
N263 C262 1.334 . S
N264 C260 1.331 . S
N264 C261 1.329 . S
H265 C259 0.930 . S
C266 O246 1.257 . S
C266 O267 1.244 . S
O267 C266 1.244 . S
O268 C244 1.257 1_655 S
O268 Zn247 2.019 1_655 S
H269 C262 0.930 . S
H270 C249 0.930 . S
H271 C261 0.930 . S
C124 C15 1.001 . S
C90 C49 1.001 . S
C56 C83 2.815 . S
C22 C117 2.815 . S
C151 C260 1.001 . S
C185 C226 1.001 . S
C192 C219 2.815 . S
C158 C253 2.815 . S
C74 C28 1.566 1_556 S
C108 C62 1.566 . S
C210 C164 1.566 1_546 S
C244 C198 1.566 1_565 S
C1 C176 1.753 . S
C35 C142 1.753 . S
C266 C71 1.753 . S
C232 C105 1.753 . S
C40 C137 1.752 . S
C6 C171 1.753 . S
C130 C207 1.753 . S
C96 C241 1.753 . S
C3 C17 1.971 . S
C37 C51 1.971 1_554 S
C69 C85 1.971 . S
C103 C119 1.971 1_556 S
C139 C153 1.971 . S
C173 C187 1.971 1_554 S
C205 C221 1.971 . S
C239 C255 1.971 1_556 S
