# Generated by pormake.
# Topology wji, (4)-cn, num edge types: 1
# Building blocks:
#     Node 0, Type 0, BuildingBlock: NAHDIM_clean_sbu_0, # of connection points: 4
#     Node 1, Type 0, BuildingBlock: NAHDIM_clean_sbu_0, # of connection points: 4
#     Node 2, Type 0, BuildingBlock: NAHDIM_clean_sbu_0, # of connection points: 4
#     Node 3, Type 0, BuildingBlock: NAHDIM_clean_sbu_0, # of connection points: 4
#     Node 4, Type 0, BuildingBlock: NAHDIM_clean_sbu_0, # of connection points: 4
#     Node 5, Type 0, BuildingBlock: NAHDIM_clean_sbu_0, # of connection points: 4
#     Node 6, Type 0, BuildingBlock: NAHDIM_clean_sbu_0, # of connection points: 4
#     Node 7, Type 0, BuildingBlock: NAHDIM_clean_sbu_0, # of connection points: 4
#     Node 8, Type 0, BuildingBlock: NAHDIM_clean_sbu_0, # of connection points: 4
#     Node 9, Type 0, BuildingBlock: NAHDIM_clean_sbu_0, # of connection points: 4
#     Node 10, Type 0, BuildingBlock: NAHDIM_clean_sbu_0, # of connection points: 4
#     Node 11, Type 0, BuildingBlock: NAHDIM_clean_sbu_0, # of connection points: 4
#     Edge 12, Type (0, 0), BuildingBlock: TEMPAE_clean_linker_10, # of connection points: 2
#     Edge 13, Type (0, 0), BuildingBlock: TEMPAE_clean_linker_10, # of connection points: 2
#     Edge 14, Type (0, 0), BuildingBlock: TEMPAE_clean_linker_10, # of connection points: 2
#     Edge 15, Type (0, 0), BuildingBlock: TEMPAE_clean_linker_10, # of connection points: 2
#     Edge 16, Type (0, 0), BuildingBlock: TEMPAE_clean_linker_10, # of connection points: 2
#     Edge 17, Type (0, 0), BuildingBlock: TEMPAE_clean_linker_10, # of connection points: 2
#     Edge 18, Type (0, 0), BuildingBlock: TEMPAE_clean_linker_10, # of connection points: 2
#     Edge 19, Type (0, 0), BuildingBlock: TEMPAE_clean_linker_10, # of connection points: 2
#     Edge 20, Type (0, 0), BuildingBlock: TEMPAE_clean_linker_10, # of connection points: 2
#     Edge 21, Type (0, 0), BuildingBlock: TEMPAE_clean_linker_10, # of connection points: 2
#     Edge 22, Type (0, 0), BuildingBlock: TEMPAE_clean_linker_10, # of connection points: 2
#     Edge 23, Type (0, 0), BuildingBlock: TEMPAE_clean_linker_10, # of connection points: 2
#     Edge 24, Type (0, 0), BuildingBlock: TEMPAE_clean_linker_10, # of connection points: 2
#     Edge 25, Type (0, 0), BuildingBlock: TEMPAE_clean_linker_10, # of connection points: 2
#     Edge 26, Type (0, 0), BuildingBlock: TEMPAE_clean_linker_10, # of connection points: 2
#     Edge 27, Type (0, 0), BuildingBlock: TEMPAE_clean_linker_10, # of connection points: 2
#     Edge 28, Type (0, 0), BuildingBlock: TEMPAE_clean_linker_10, # of connection points: 2
#     Edge 29, Type (0, 0), BuildingBlock: TEMPAE_clean_linker_10, # of connection points: 2
#     Edge 30, Type (0, 0), BuildingBlock: TEMPAE_clean_linker_10, # of connection points: 2
#     Edge 31, Type (0, 0), BuildingBlock: TEMPAE_clean_linker_10, # of connection points: 2
#     Edge 32, Type (0, 0), BuildingBlock: TEMPAE_clean_linker_10, # of connection points: 2
#     Edge 33, Type (0, 0), BuildingBlock: TEMPAE_clean_linker_10, # of connection points: 2
#     Edge 34, Type (0, 0), BuildingBlock: TEMPAE_clean_linker_10, # of connection points: 2
#     Edge 35, Type (0, 0), BuildingBlock: TEMPAE_clean_linker_10, # of connection points: 2
# Relax obj value: 0.154
# Max RMSD: 0.090
# Mean RMSD: 0.090
data_MOF--net-wji--node1-NAHDIM_clean_sbu_0--edge1-TEMPAE_clean_linker_10
_symmetry_space_group_name_H-M    P1
_symmetry_Int_Tables_number       1
_symmetry_cell_setting            triclinic
loop_
_symmetry_equiv_pos_as_xyz
'x, y, z'
_cell_length_a     58.154542
_cell_length_b     58.212491
_cell_length_c     23.309031
_cell_angle_alpha  90.035313
_cell_angle_beta   89.954281
_cell_angle_gamma 119.90994
loop_
_atom_site_label
_atom_site_type_symbol
_atom_site_fract_x
_atom_site_fract_y
_atom_site_fract_z
_atom_type_partial_charge
C0 C 0.43069 0.289 0.47224 0.0
O1 O 0.44617 0.31251 0.49464 0.0
O2 O 0.45461 0.34929 0.4036 0.0
Zn3 Zn 0.4165 0.32149 0.41662 0.0
O4 O 0.404 0.33005 0.48932 0.0
C5 C 0.38201 0.3342 0.35449 0.0
O6 O 0.38384 0.34652 0.40294 0.0
O7 O 0.41495 0.28687 0.43205 0.0
C8 C 0.38153 0.31307 0.50933 0.0
O9 O 0.36714 0.29079 0.4813 0.0
C10 C 0.46124 0.37267 0.38791 0.0
O11 O 0.44266 0.37876 0.3783 0.0
O12 O 0.39393 0.32094 0.34983 0.0
C13 C 0.12658 0.42282 0.65168 0.0
O14 O 0.10989 0.42881 0.67622 0.0
O15 O 0.08941 0.4444 0.56623 0.0
Zn16 Zn 0.08722 0.40863 0.57106 0.0
O17 O 0.06018 0.38623 0.6298 0.0
C18 C 0.07551 0.40118 0.45016 0.0
O19 O 0.08595 0.42705 0.45121 0.0
O20 O 0.12179 0.41367 0.60081 0.0
C21 C 0.03572 0.37089 0.61947 0.0
O22 O 0.02675 0.36918 0.56701 0.0
C23 C 0.07132 0.44835 0.58627 0.0
O24 O 0.05044 0.42864 0.61059 0.0
O25 O 0.07567 0.38929 0.4957 0.0
C26 C 0.70658 0.13908 0.8039 0.0
O27 O 0.68321 0.12599 0.82864 0.0
O28 O 0.64654 0.09679 0.73428 0.0
Zn29 Zn 0.67958 0.0938 0.74156 0.0
O30 O 0.67645 0.07196 0.81034 0.0
C31 C 0.66396 0.05128 0.66867 0.0
O32 O 0.64674 0.04181 0.71093 0.0
O33 O 0.71077 0.12954 0.75855 0.0
C34 C 0.69017 0.06072 0.81712 0.0
O35 O 0.70683 0.06259 0.77684 0.0
C36 C 0.6258 0.08206 0.76338 0.0
O37 O 0.62601 0.06477 0.79925 0.0
O38 O 0.68246 0.07533 0.67108 0.0
C39 C 0.56264 0.70471 0.96578 0.0
O40 O 0.54711 0.68093 0.98688 0.0
O41 O 0.54544 0.64443 0.89805 0.0
Zn42 Zn 0.58166 0.6744 0.91876 0.0
O43 O 0.59078 0.66667 0.99636 0.0
C44 C 0.61967 0.66312 0.86712 0.0
O45 O 0.61548 0.64983 0.91515 0.0
O46 O 0.58019 0.70776 0.92923 0.0
C47 C 0.61374 0.6803 0.01793 0.0
O48 O 0.63263 0.69969 0.98815 0.0
C49 C 0.54021 0.62094 0.9091 0.0
O50 O 0.55869 0.61722 0.93224 0.0
O51 O 0.608 0.67644 0.85921 0.0
C52 C 0.85186 0.56912 0.10455 0.0
O53 O 0.84885 0.54526 0.10112 0.0
O54 O 0.89898 0.54839 0.07531 0.0
Zn55 Zn 0.9071 0.58619 0.08206 0.0
O56 O 0.9293 0.60073 0.15277 0.0
C57 C 0.94794 0.63007 0.01767 0.0
O58 O 0.95214 0.6426 0.0668 0.0
O59 O 0.87438 0.58909 0.09352 0.0
C60 C 0.927 0.61632 0.18742 0.0
O61 O 0.91019 0.62457 0.1759 0.0
C62 C 0.89575 0.53495 0.12063 0.0
O63 O 0.89578 0.54542 0.1706 0.0
O64 O 0.92883 0.60638 0.01358 0.0
C65 C 0.288 0.85189 0.30257 0.0
O66 O 0.31164 0.86254 0.32614 0.0
O67 O 0.34829 0.8993 0.24245 0.0
Zn68 Zn 0.31494 0.90131 0.25367 0.0
O69 O 0.31742 0.92004 0.32729 0.0
C70 C 0.32862 0.94685 0.18983 0.0
O71 O 0.34426 0.9563 0.23471 0.0
O72 O 0.28386 0.86481 0.2639 0.0
C73 C 0.30202 0.92895 0.33915 0.0
O74 O 0.28405 0.9264 0.30162 0.0
C75 C 0.36941 0.91455 0.26983 0.0
O76 O 0.36933 0.93169 0.30639 0.0
O77 O 0.31213 0.92211 0.18763 0.0
C78 C 0.71388 0.58765 0.32793 0.0
O79 O 0.69442 0.58839 0.30114 0.0
O80 O 0.6519 0.54269 0.42651 0.0
Zn81 Zn 0.67989 0.58136 0.42118 0.0
O82 O 0.66578 0.60059 0.37384 0.0
C83 C 0.66365 0.59207 0.52254 0.0
O84 O 0.64168 0.57664 0.49434 0.0
O85 O 0.71282 0.58521 0.38233 0.0
C86 C 0.64462 0.58871 0.34447 0.0
O87 O 0.63052 0.56274 0.34571 0.0
C88 C 0.64787 0.52534 0.38867 0.0
O89 O 0.66375 0.53202 0.3441 0.0
O90 O 0.6857 0.59752 0.49989 0.0
C91 C 0.13598 0.70242 0.51157 0.0
O92 O 0.12107 0.67931 0.48704 0.0
O93 O 0.09219 0.64364 0.5919 0.0
Zn94 Zn 0.09289 0.67871 0.58646 0.0
O95 O 0.0667 0.67593 0.52764 0.0
C96 C 0.08279 0.67676 0.70805 0.0
O97 O 0.09468 0.6626 0.70885 0.0
O98 O 0.12849 0.70728 0.55907 0.0
C99 C 0.04189 0.66282 0.53679 0.0
O100 O 0.03314 0.65087 0.58639 0.0
C101 C 0.08139 0.62593 0.55333 0.0
O102 O 0.07058 0.63056 0.50861 0.0
O103 O 0.08145 0.68708 0.6611 0.0
C104 C 0.42288 0.13135 0.66929 0.0
O105 O 0.4314 0.11712 0.64263 0.0
O106 O 0.44663 0.09416 0.74503 0.0
Zn107 Zn 0.40977 0.08951 0.74174 0.0
O108 O 0.38889 0.06367 0.67986 0.0
C109 C 0.39207 0.05355 0.83015 0.0
O110 O 0.40376 0.04494 0.79489 0.0
O111 O 0.4123 0.12386 0.71854 0.0
C112 C 0.36408 0.04763 0.68154 0.0
O113 O 0.35042 0.04683 0.72715 0.0
C114 C 0.45415 0.08258 0.70966 0.0
O115 O 0.43779 0.06768 0.66918 0.0
O116 O 0.39161 0.07453 0.81717 0.0
C117 C 0.28183 0.43421 0.86772 0.0
O118 O 0.30532 0.45512 0.85982 0.0
O119 O 0.34566 0.44976 0.9085 0.0
Zn120 Zn 0.31372 0.41288 0.90913 0.0
O121 O 0.31845 0.3921 0.84608 0.0
C122 C 0.33591 0.40049 0.00154 0.0
O123 O 0.35663 0.41527 0.9692 0.0
O124 O 0.2802 0.41381 0.89167 0.0
C125 C 0.31833 0.37036 0.85233 0.0
O126 O 0.31428 0.35947 0.90336 0.0
C127 C 0.36012 0.45913 0.86411 0.0
O128 O 0.35338 0.44502 0.81674 0.0
O129 O 0.31318 0.39601 0.98515 0.0
C130 C 0.85529 0.29066 0.01737 0.0
O131 O 0.86546 0.31483 -0.0031 0.0
O132 O 0.89475 0.34904 0.09152 0.0
Zn133 Zn 0.90179 0.31922 0.07625 0.0
O134 O 0.92357 0.32817 0.00437 0.0
C135 C 0.94295 0.31462 0.1368 0.0
O136 O 0.94961 0.31122 0.08498 0.0
O137 O 0.86726 0.28649 0.0582 0.0
C138 C 0.92222 0.30987 0.97228 0.0
O139 O 0.90739 0.28503 0.98805 0.0
C140 C 0.91431 0.37238 0.09656 0.0
O141 O 0.93848 0.37606 0.09342 0.0
O142 O 0.92224 0.31653 0.1434 0.0
C143 C 0.56741 0.86117 0.16136 0.0
O144 O 0.5582 0.87491 0.13521 0.0
O145 O 0.5479 0.90208 0.23398 0.0
Zn146 Zn 0.58406 0.90536 0.22751 0.0
O147 O 0.60375 0.92867 0.16126 0.0
C148 C 0.60694 0.94543 0.30653 0.0
O149 O 0.59694 0.95428 0.26761 0.0
O150 O 0.57983 0.86991 0.20843 0.0
C151 C 0.62888 0.94152 0.15798 0.0
O152 O 0.64313 0.94037 0.20042 0.0
C153 C 0.54073 0.91485 0.20129 0.0
O154 O 0.55707 0.93029 0.16136 0.0
O155 O 0.60436 0.92258 0.29964 0.0
C156 C 0.31768 0.36695 0.08095 0.0
C157 C 0.33931 0.38858 0.05453 0.0
C158 C 0.32131 0.35502 0.12995 0.0
C159 C 0.34707 0.36529 0.15327 0.0
C160 C 0.36887 0.3873 0.12703 0.0
C161 C 0.36474 0.39854 0.07784 0.0
C162 C 0.29768 0.3314 0.15651 0.0
C163 C 0.39662 0.39911 0.15106 0.0
C164 C 0.35959 0.35654 0.30874 0.0
C165 C 0.36928 0.33884 0.30425 0.0
C166 C 0.35084 0.36419 0.26024 0.0
C167 C 0.35155 0.3537 0.20596 0.0
C168 C 0.35963 0.33448 0.20165 0.0
C169 C 0.36854 0.32735 0.25088 0.0
C170 C 0.34252 0.38485 0.26665 0.0
C171 C 0.36028 0.32256 0.14456 0.0
H172 H 0.29801 0.35905 0.06279 0.0
H173 H 0.38152 0.41534 0.05778 0.0
H174 H 0.30106 0.31425 0.15748 0.0
H175 H 0.29513 0.33586 0.20156 0.0
H176 H 0.27903 0.32559 0.1327 0.0
H177 H 0.41137 0.41635 0.12567 0.0
H178 H 0.39701 0.40565 0.19595 0.0
H179 H 0.40283 0.38392 0.15182 0.0
H180 H 0.35988 0.36538 0.34986 0.0
H181 H 0.37576 0.31347 0.24713 0.0
H182 H 0.32343 0.37847 0.24434 0.0
H183 H 0.35761 0.40363 0.24641 0.0
H184 H 0.34035 0.38889 0.31233 0.0
H185 H 0.34146 0.31598 0.12092 0.0
H186 H 0.36354 0.30542 0.14949 0.0
H187 H 0.37656 0.33778 0.11789 0.0
C188 C 0.05656 0.39879 0.35277 0.0
C189 C 0.05963 0.38573 0.40012 0.0
C190 C 0.03839 0.38459 0.3091 0.0
C191 C 0.02301 0.35662 0.3127 0.0
C192 C 0.02713 0.34319 0.35859 0.0
C193 C 0.04538 0.35791 0.40186 0.0
C194 C 0.03468 0.39966 0.26063 0.0
C195 C 0.01132 0.31338 0.36353 0.0
C196 C 0.95641 0.32831 0.23857 0.0
C197 C 0.96181 0.3211 0.18496 0.0
C198 C 0.97581 0.3387 0.28161 0.0
C199 C 0.00121 0.34188 0.27086 0.0
C200 C 0.00626 0.33309 0.21824 0.0
C201 C 0.98649 0.3228 0.17585 0.0
C202 C 0.96959 0.34768 0.33739 0.0
C203 C 0.033 0.33589 0.20547 0.0
H204 H 0.06758 0.42025 0.35086 0.0
H205 H 0.04771 0.34761 0.43815 0.0
H206 H 0.03631 0.39159 0.21865 0.0
H207 H 0.01452 0.39722 0.2631 0.0
H208 H 0.04946 0.42117 0.26193 0.0
H209 H 0.01914 0.30579 0.3976 0.0
H210 H 0.99037 0.30712 0.37378 0.0
H211 H 0.01138 0.30397 0.32218 0.0
H212 H 0.93736 0.32691 0.24617 0.0
H213 H 0.99081 0.31712 0.1347 0.0
H214 H 0.98169 0.36958 0.34077 0.0
H215 H 0.97484 0.3392 0.37435 0.0
H216 H 0.94831 0.34186 0.34086 0.0
H217 H 0.04789 0.35715 0.19971 0.0
H218 H 0.03267 0.32506 0.16594 0.0
H219 H 0.03971 0.32843 0.24187 0.0
C220 C 0.63437 0.95502 0.39583 0.0
C221 C 0.61958 0.96145 0.35832 0.0
C222 C 0.64536 0.96976 0.44622 0.0
C223 C 0.64096 0.991 0.45964 0.0
C224 C 0.62657 -0.0021 0.42117 0.0
C225 C 0.61626 0.98318 0.37083 0.0
C226 C 0.66103 0.9622 0.48577 0.0
C227 C 0.62109 0.02015 0.43426 0.0
C228 C 0.63704 0.00982 0.61294 0.0
C229 C 0.6601 0.03467 0.61753 0.0
C230 C 0.63126 0.99479 0.56266 0.0
C231 C 0.64916 0.00466 0.51597 0.0
C232 C 0.67326 0.02897 0.52147 0.0
C233 C 0.67839 0.04384 0.57216 0.0
C234 C 0.60519 0.96909 0.55836 0.0
C235 C 0.69305 0.03984 0.47292 0.0
H236 H 0.63721 0.9384 0.38604 0.0
H237 H 0.60486 0.98829 0.34206 0.0
H238 H 0.68012 0.97997 0.49746 0.0
H239 H 0.64979 0.95385 0.52611 0.0
H240 H 0.66523 0.94728 0.46614 0.0
H241 H 0.61049 0.02366 0.39872 0.0
H242 H 0.60881 0.01539 0.47366 0.0
H243 H 0.63992 0.03879 0.44256 0.0
H244 H 0.62285 0.00247 0.6479 0.0
H245 H 0.69639 0.0629 0.57568 0.0
H246 H 0.6085 0.95286 0.54356 0.0
H247 H 0.59231 0.97122 0.5262 0.0
H248 H 0.59443 0.96322 0.59995 0.0
H249 H 0.69656 0.02418 0.45509 0.0
H250 H 0.71233 0.05684 0.48677 0.0
H251 H 0.68499 0.04661 0.43778 0.0
C252 C 0.63766 0.59401 0.60508 0.0
C253 C 0.66219 0.60412 0.57725 0.0
C254 C 0.63484 0.60623 0.65413 0.0
C255 C 0.6571 0.6293 0.6759 0.0
C256 C 0.68214 0.63928 0.64903 0.0
C257 C 0.68443 0.62648 0.59994 0.0
C258 C 0.60783 0.59471 0.68194 0.0
C259 C 0.70626 0.66384 0.67112 0.0
C260 C 0.63493 0.66905 0.76491 0.0
C261 C 0.6343 0.65903 0.81992 0.0
C262 C 0.64448 0.66121 0.71785 0.0
C263 C 0.65351 0.64291 0.72616 0.0
C264 C 0.65497 0.6345 0.78227 0.0
C265 C 0.64538 0.6427 0.82851 0.0
C266 C 0.6429 0.67087 0.65869 0.0
C267 C 0.66459 0.61511 0.79301 0.0
H268 H 0.62043 0.5766 0.58806 0.0
H269 H 0.70341 0.63444 0.57841 0.0
H270 H 0.60903 0.5903 0.72777 0.0
H271 H 0.60091 0.60935 0.68036 0.0
H272 H 0.59275 0.57621 0.6606 0.0
H273 H 0.72464 0.6679 0.64807 0.0
H274 H 0.7034 0.6812 0.66596 0.0
H275 H 0.70897 0.66185 0.7176 0.0
H276 H 0.62669 0.68191 0.75798 0.0
H277 H 0.64534 0.63515 0.87104 0.0
H278 H 0.6264 0.65454 0.63456 0.0
H279 H 0.66145 0.67685 0.6344 0.0
H280 H 0.63934 0.68792 0.66034 0.0
H281 H 0.64925 0.59509 0.77843 0.0
H282 H 0.66856 0.61391 0.83921 0.0
H283 H 0.68293 0.62068 0.76827 0.0
C284 C 0.05053 0.68785 0.75358 0.0
C285 C 0.0669 0.67656 0.75793 0.0
C286 C 0.03209 0.68398 0.7967 0.0
C287 C 0.03002 0.66851 0.84527 0.0
C288 C 0.04764 0.65852 0.85163 0.0
C289 C 0.06589 0.66267 0.80787 0.0
C290 C 0.01378 0.69513 0.78859 0.0
C291 C 0.04619 0.64209 0.9031 0.0
C292 C 0.991 0.66605 0.97811 0.0
C293 C 0.9675 0.64176 0.9705 0.0
C294 C 0.01124 0.6756 0.9367 0.0
C295 C 0.00785 0.66048 0.88662 0.0
C296 C 0.98367 0.63661 0.87745 0.0
C297 C 0.9638 0.62756 0.91946 0.0
C298 C 0.03665 0.70125 0.94768 0.0
C299 C 0.97922 0.62002 0.82434 0.0
H300 H 0.05126 0.69875 0.71529 0.0
H301 H 0.07858 0.65405 0.81181 0.0
H302 H 0.99342 0.67872 0.77954 0.0
H303 H 0.0128 0.70512 0.8283 0.0
H304 H 0.02016 0.70949 0.75252 0.0
H305 H 0.06284 0.63789 0.90418 0.0
H306 H 0.04646 0.65239 0.94336 0.0
H307 H 0.02725 0.62295 0.90216 0.0
H308 H 0.99401 0.67721 0.01733 0.0
H309 H 0.94566 0.60886 0.91303 0.0
H310 H 0.04209 0.71443 0.90972 0.0
H311 H 0.05305 0.69706 0.95508 0.0
H312 H 0.03513 0.71196 0.98564 0.0
H313 H 0.98295 0.63225 0.78526 0.0
H314 H 0.95875 0.6028 0.82212 0.0
H315 H 0.99341 0.61251 0.8238 0.0
C316 C 0.38631 0.01991 0.90296 0.0
C317 C 0.37993 0.03884 0.88364 0.0
C318 C 0.37531 0.00563 0.95349 0.0
C319 C 0.35716 0.0101 0.98524 0.0
C320 C 0.35026 0.0289 0.96563 0.0
C321 C 0.36193 0.04326 0.91514 0.0
C322 C 0.38351 0.98604 0.97337 0.0
C323 C 0.33069 0.03387 -0.00195 0.0
C324 C 0.31757 0.95437 0.09008 0.0
C325 C 0.33284 0.96428 0.14002 0.0
C326 C 0.32406 0.96987 0.04013 0.0
C327 C 0.34649 0.9957 0.04014 0.0
C328 C 0.36091 0.00637 0.09146 0.0
C329 C 0.35381 0.99058 0.14083 0.0
C330 C 0.30793 0.958 0.98643 0.0
C331 C 0.38505 0.03375 0.09323 0.0
H332 H 0.40028 0.01646 0.87894 0.0
H333 H 0.35679 0.05774 0.90009 0.0
H334 H 0.39286 0.99183 0.01637 0.0
H335 H 0.36581 0.96602 0.97747 0.0
H336 H 0.39775 0.98482 0.94349 0.0
H337 H 0.32651 0.04825 0.97569 0.0
H338 H 0.31176 0.015 0.00387 0.0
H339 H 0.3385 0.04166 0.04145 0.0
H340 H 0.30115 0.93417 0.0893 0.0
H341 H 0.36559 -0.00147 0.17938 0.0
H342 H 0.31951 0.95316 0.95577 0.0
H343 H 0.30354 0.9724 0.96506 0.0
H344 H 0.28894 0.93958 0.99559 0.0
H345 H 0.40132 0.03384 0.06813 0.0
H346 H 0.3922 0.04024 0.13772 0.0
H347 H 0.38067 0.04845 0.07333 0.0
C348 C 0.61394 0.48366 0.34063 0.0
C349 C 0.6228 0.49966 0.38982 0.0
C350 C 0.58844 0.4613 0.33849 0.0
C351 C 0.57157 0.45474 0.38682 0.0
C352 C 0.58094 0.46998 0.4376 0.0
C353 C 0.60642 0.4923 0.43844 0.0
C354 C 0.57911 0.4455 0.28359 0.0
C355 C 0.56362 0.46344 0.49025 0.0
C356 C 0.49696 0.419 0.36658 0.0
C357 C 0.48961 0.39319 0.38401 0.0
C358 C 0.52367 0.43904 0.36592 0.0
C359 C 0.54349 0.43314 0.38323 0.0
C360 C 0.53629 0.407 0.39951 0.0
C361 C 0.50942 0.3873 0.39964 0.0
C362 C 0.53061 0.4667 0.34801 0.0
C363 C 0.55689 0.39999 0.41821 0.0
H364 H 0.62647 0.48922 0.30285 0.0
H365 H 0.6132 0.50445 0.47675 0.0
H366 H 0.57055 0.42405 0.29254 0.0
H367 H 0.5632 0.44817 0.26409 0.0
H368 H 0.5954 0.45167 0.25181 0.0
H369 H 0.57459 0.47596 0.52764 0.0
H370 H 0.54659 0.46643 0.48091 0.0
H371 H 0.55541 0.44232 0.50215 0.0
H372 H 0.48181 0.42369 0.3542 0.0
H373 H 0.50392 0.36739 0.41309 0.0
H374 H 0.54548 0.47378 0.31292 0.0
H375 H 0.53966 0.48052 0.38465 0.0
H376 H 0.51299 0.46773 0.33319 0.0
H377 H 0.57253 0.40609 0.38497 0.0
H378 H 0.54819 0.37844 0.42644 0.0
H379 H 0.56669 0.41095 0.45804 0.0
C380 C 0.0959 0.49606 0.55653 0.0
C381 C 0.07366 0.47481 0.58233 0.0
C382 C 0.09813 0.52115 0.55224 0.0
C383 C 0.07763 0.52504 0.57422 0.0
C384 C 0.05523 0.50374 0.60063 0.0
C385 C 0.05352 0.47889 0.60437 0.0
C386 C 0.12231 0.54343 0.52379 0.0
C387 C 0.03295 0.50714 0.6245 0.0
C388 C 0.09177 0.59486 0.60676 0.0
C389 C 0.08092 0.60036 0.55851 0.0
C390 C 0.09107 0.5705 0.61224 0.0
C391 C 0.07925 0.55123 0.56843 0.0
C392 C 0.06845 0.55674 0.51947 0.0
C393 C 0.0694 0.58122 0.51512 0.0
C394 C 0.10276 0.56529 0.6651 0.0
C395 C 0.05567 0.53667 0.47186 0.0
H396 H 0.11157 0.49309 0.53946 0.0
H397 H 0.03627 0.46261 0.62444 0.0
H398 H 0.11626 0.55052 0.48563 0.0
H399 H 0.13239 0.56044 0.55369 0.0
H400 H 0.13676 0.5373 0.51001 0.0
H401 H 0.01714 0.48871 0.64473 0.0
H402 H 0.04079 0.52322 0.65696 0.0
H403 H 0.02394 0.51304 0.58969 0.0
H404 H 0.10071 0.60954 0.64048 0.0
H405 H 0.061 0.5853 0.47764 0.0
H406 H 0.11826 0.56043 0.65261 0.0
H407 H 0.08714 0.54791 0.68854 0.0
H408 H 0.11168 0.58253 0.69473 0.0
H409 H 0.06999 0.53113 0.45441 0.0
H410 H 0.04863 0.54422 0.43616 0.0
H411 H 0.03852 0.51833 0.48897 0.0
C412 C 0.48793 0.07052 0.67871 0.0
C413 C 0.48049 0.08472 0.71567 0.0
C414 C 0.51222 0.07121 0.68554 0.0
C415 C 0.52952 0.08654 0.7303 0.0
C416 C 0.52244 0.1014 0.76695 0.0
C417 C 0.49796 0.10029 0.75926 0.0
C418 C 0.51909 0.05505 0.64564 0.0
C419 C 0.54046 0.11805 0.81501 0.0
C420 C 0.57802 0.06588 0.78444 0.0
C421 C 0.60145 0.08382 0.75601 0.0
C422 C 0.55455 0.06674 0.77684 0.0
C423 C 0.55453 0.08609 0.74012 0.0
C424 C 0.57819 0.1045 0.71189 0.0
C425 C 0.60138 0.10311 0.72006 0.0
C426 C 0.52966 0.0467 0.80752 0.0
C427 C 0.57892 0.12547 0.67262 0.0
H428 H 0.47458 0.05847 0.64485 0.0
H429 H 0.49241 0.11139 0.7879 0.0
H430 H 0.53853 0.06795 0.62483 0.0
H431 H 0.52094 0.03981 0.6705 0.0
H432 H 0.50391 0.04496 0.61169 0.0
H433 H 0.53262 0.12944 0.83796 0.0
H434 H 0.54295 0.10513 0.84638 0.0
H435 H 0.56043 0.13216 0.7979 0.0
H436 H 0.57788 0.05091 0.81227 0.0
H437 H 0.61943 0.11709 0.69808 0.0
H438 H 0.5141 0.03454 0.77573 0.0
H439 H 0.52182 0.057 0.83436 0.0
H440 H 0.53313 0.03325 0.8354 0.0
H441 H 0.56512 0.11595 0.63615 0.0
H442 H 0.5991 0.1388 0.65525 0.0
H443 H 0.57214 0.13763 0.69599 0.0
C444 C 0.49302 0.60196 0.87732 0.0
C445 C 0.51345 0.59811 0.89834 0.0
C446 C 0.46735 0.58042 0.86905 0.0
C447 C 0.46207 0.5545 0.88205 0.0
C448 C 0.4827 0.55047 0.90251 0.0
C449 C 0.50812 0.57232 0.91041 0.0
C450 C 0.44581 0.58542 0.84714 0.0
C451 C 0.47783 0.52308 0.91674 0.0
C452 C 0.39251 0.49968 0.91778 0.0
C453 C 0.38518 0.48479 0.86696 0.0
C454 C 0.41716 0.52296 0.92259 0.0
C455 C 0.43489 0.53148 0.87551 0.0
C456 C 0.42727 0.51704 0.82347 0.0
C457 C 0.40246 0.49386 0.81979 0.0
C458 C 0.42457 0.53792 0.97872 0.0
C459 C 0.44568 0.52555 0.77236 0.0
H460 H 0.49698 0.62184 0.86789 0.0
H461 H 0.5238 0.56915 0.92654 0.0
H462 H 0.43688 0.57373 0.80757 0.0
H463 H 0.42973 0.57879 0.87949 0.0
H464 H 0.45332 0.60669 0.83759 0.0
H465 H 0.49615 0.52328 0.93107 0.0
H466 H 0.46274 0.5142 0.95124 0.0
H467 H 0.46986 0.50999 0.87865 0.0
H468 H 0.37922 0.49288 0.95435 0.0
H469 H 0.39692 0.48251 0.78031 0.0
H470 H 0.43104 0.55911 0.97126 0.0
H471 H 0.44153 0.53709 -0.00169 0.0
H472 H 0.40787 0.5297 0.00982 0.0
H473 H 0.45262 0.54658 0.76173 0.0
H474 H 0.43605 0.51323 0.73383 0.0
H475 H 0.46348 0.52404 0.7829 0.0
C476 C 0.88412 0.39141 0.10223 0.0
C477 C 0.90992 0.39519 0.10302 0.0
C478 C 0.87978 0.41302 0.10596 0.0
C479 C 0.90175 0.43896 0.11066 0.0
C480 C 0.9278 0.44287 0.11231 0.0
C481 C 0.93157 0.42093 0.10844 0.0
C482 C 0.85173 0.40811 0.10412 0.0
C483 C 0.95173 0.47028 0.11748 0.0
C484 C 0.89626 0.49852 0.06461 0.0
C485 C 0.89459 0.509 0.11765 0.0
C486 C 0.8978 0.47526 0.06163 0.0
C487 C 0.89766 0.46218 0.11292 0.0
C488 C 0.89501 0.4721 0.16645 0.0
C489 C 0.89348 0.49539 0.16818 0.0
C490 C 0.90046 0.46517 0.00371 0.0
C491 C 0.89472 0.45863 0.22203 0.0
H492 H 0.86727 0.37158 0.09804 0.0
H493 H 0.95155 0.42402 0.10919 0.0
H494 H 0.84766 0.41664 0.14278 0.0
H495 H 0.84919 0.41818 0.06625 0.0
H496 H 0.83678 0.38667 0.1018 0.0
H497 H 0.97061 0.46987 0.11934 0.0
H498 H 0.95256 0.48256 0.08029 0.0
H499 H 0.95011 0.48018 0.15672 0.0
H500 H 0.89702 0.50885 0.02535 0.0
H501 H 0.89211 0.50329 0.20935 0.0
H502 H 0.88508 0.44403 -0.00145 0.0
H503 H 0.92007 0.46636 0.00052 0.0
H504 H 0.89861 0.47668 0.9678 0.0
H505 H 0.87936 0.43735 0.2205 0.0
H506 H 0.8908 0.46786 0.25974 0.0
H507 H 0.91414 0.45969 0.22824 0.0
C508 C 0.39419 0.89514 0.22099 0.0
C509 C 0.39395 0.9134 0.25995 0.0
C510 C 0.41751 0.89425 0.21057 0.0
C511 C 0.4411 0.91205 0.23979 0.0
C512 C 0.44094 0.93038 0.27947 0.0
C513 C 0.41736 0.93082 0.28909 0.0
C514 C 0.41695 0.8744 0.16802 0.0
C515 C 0.46574 0.94969 0.3114 0.0
C516 C 0.4972 0.8968 0.25225 0.0
C517 C 0.51474 0.91324 0.20964 0.0
C518 C 0.47294 0.89589 0.26195 0.0
C519 C 0.46612 0.91184 0.22832 0.0
C520 C 0.48354 0.92818 0.18472 0.0
C521 C 0.50763 0.92866 0.17586 0.0
C522 C 0.4548 0.87817 0.30873 0.0
C523 C 0.47693 0.94549 0.14805 0.0
H524 H 0.37618 0.88158 0.19834 0.0
H525 H 0.41736 0.94499 0.31929 0.0
H526 H 0.43097 0.88492 0.13239 0.0
H527 H 0.42355 0.86158 0.18902 0.0
H528 H 0.39687 0.86161 0.14967 0.0
H529 H 0.46219 0.96244 0.3414 0.0
H530 H 0.47353 0.93878 0.33621 0.0
H531 H 0.48139 0.96261 0.28044 0.0
H532 H 0.50251 0.88478 0.27846 0.0
H533 H 0.52104 0.94141 0.14282 0.0
H534 H 0.4349 0.8644 0.29082 0.0
H535 H 0.45215 0.89034 0.34189 0.0
H536 H 0.46261 0.86633 0.32974 0.0
H537 H 0.45758 0.93324 0.12637 0.0
H538 H 0.49228 0.9565 0.11488 0.0
H539 H 0.475 0.96002 0.17548 0.0
C540 C 0.32432 0.36756 0.7472 0.0
C541 C 0.32461 0.3586 0.80287 0.0
C542 C 0.33212 0.35814 0.70005 0.0
C543 C 0.34069 0.33955 0.70893 0.0
C544 C 0.34036 0.32987 0.76479 0.0
C545 C 0.33215 0.33941 0.81118 0.0
C546 C 0.3319 0.36867 0.64095 0.0
C547 C 0.34959 0.31019 0.77581 0.0
C548 C 0.34458 0.3031 0.57768 0.0
C549 C 0.37131 0.31886 0.56211 0.0
C550 C 0.33439 0.30925 0.62617 0.0
C551 C 0.35142 0.3315 0.66002 0.0
C552 C 0.37859 0.347 0.64546 0.0
C553 C 0.38817 0.34057 0.59647 0.0
C554 C 0.30526 0.29243 0.64022 0.0
C555 C 0.39741 0.37073 0.68093 0.0
H556 H 0.3183 0.38223 0.74046 0.0
H557 H 0.33246 0.33247 0.85415 0.0
H558 H 0.35249 0.38021 0.62441 0.0
H559 H 0.32062 0.35203 0.61074 0.0
H560 H 0.32298 0.38168 0.64089 0.0
H561 H 0.34656 0.3034 0.82114 0.0
H562 H 0.33886 0.29265 0.74754 0.0
H563 H 0.37101 0.31938 0.76547 0.0
H564 H 0.33145 0.28629 0.55125 0.0
H565 H 0.4089 0.35269 0.58491 0.0
H566 H 0.29546 0.30455 0.63646 0.0
H567 H 0.30267 0.28531 0.68517 0.0
H568 H 0.29499 0.27502 0.61132 0.0
H569 H 0.39134 0.38601 0.67922 0.0
H570 H 0.41824 0.37975 0.6657 0.0
H571 H 0.39661 0.36492 0.72653 0.0
C572 C 0.9388 0.29686 0.88622 0.0
C573 C 0.93724 0.31653 0.91793 0.0
C574 C 0.95344 0.30313 0.83509 0.0
C575 C 0.9666 0.32961 0.8152 0.0
C576 C 0.96463 0.34942 0.84641 0.0
C577 C 0.95006 0.34266 0.89755 0.0
C578 C 0.95531 0.28157 0.80302 0.0
C579 C 0.97828 0.37788 0.82628 0.0
C580 C 0.0276 0.35631 0.72143 0.0
C581 C 0.01741 0.35744 0.66766 0.0
C582 C 0.01101 0.34615 0.76933 0.0
C583 C 0.9836 0.33709 0.76337 0.0
C584 C 0.97298 0.33714 0.70877 0.0
C585 C 0.99004 0.34723 0.66135 0.0
C586 C 0.02302 0.34613 0.82679 0.0
C587 C 0.94383 0.3277 0.70098 0.0
H588 H 0.92891 0.27662 0.90174 0.0
H589 H 0.94876 0.35791 0.92161 0.0
H590 H 0.94901 0.28078 0.75781 0.0
H591 H 0.97622 0.28604 0.80227 0.0
H592 H 0.94289 0.26174 0.82278 0.0
H593 H 0.97372 0.3906 0.85407 0.0
H594 H 8e-05 0.38611 0.82593 0.0
H595 H 0.97218 0.37893 0.78172 0.0
H596 H 0.04872 0.36392 0.72643 0.0
H597 H 0.98208 0.34805 0.61986 0.0
H598 H 0.01196 0.32625 0.84689 0.0
H599 H 0.02149 0.36035 0.85607 0.0
H600 H 0.04424 0.35176 0.82319 0.0
H601 H 0.93162 0.30775 0.72017 0.0
H602 H 0.93835 0.32683 0.65506 0.0
H603 H 0.93874 0.34134 0.72365 0.0
C604 C 0.66812 0.97863 0.10914 0.0
C605 C 0.64167 0.95807 0.10715 0.0
C606 C 0.67954 0.99578 0.06227 0.0
C607 C 0.66417 0.99194 0.01237 0.0
C608 C 0.63791 0.97039 0.00922 0.0
C609 C 0.62692 0.95382 0.05682 0.0
C610 C 0.70755 0.0187 0.06715 0.0
C611 C 0.62099 0.96545 0.95643 0.0
C612 C 0.67434 0.04872 0.91749 0.0
C613 C 0.68638 0.04488 0.86918 0.0
C614 C 0.6684 0.03249 0.9658 0.0
C615 C 0.67434 0.01169 0.96539 0.0
C616 C 0.68752 0.00839 0.91772 0.0
C617 C 0.69356 0.02521 0.87012 0.0
C618 C 0.65466 0.03685 0.01618 0.0
C619 C 0.69396 0.98629 0.91576 0.0
H620 H 0.67957 0.98193 0.14802 0.0
H621 H 0.60657 0.9377 0.05484 0.0
H622 H 0.71933 0.01963 0.02888 0.0
H623 H 0.70718 0.03757 0.06892 0.0
H624 H 0.71774 0.01729 0.10616 0.0
H625 H 0.60187 0.94649 0.95902 0.0
H626 H 0.61665 0.98184 0.95098 0.0
H627 H 0.63179 0.96502 0.91755 0.0
H628 H 0.6691 0.06418 0.91722 0.0
H629 H 0.70291 0.02223 0.8328 0.0
H630 H 0.66501 0.03766 0.05674 0.0
H631 H 0.63407 0.01999 0.01963 0.0
H632 H 0.65383 0.05543 0.01201 0.0
H633 H 0.70395 0.98583 0.95591 0.0
H634 H 0.70688 0.98827 0.87875 0.0
H635 H 0.6753 0.96698 0.91225 0.0
C636 C 0.60007 0.66111 0.11539 0.0
C637 C 0.61961 0.67196 0.07277 0.0
C638 C 0.60407 0.65006 0.16512 0.0
C639 C 0.62778 0.64908 0.17105 0.0
C640 C 0.64797 0.66092 0.129 0.0
C641 C 0.64378 0.67263 0.08058 0.0
C642 C 0.58247 0.6384 0.20996 0.0
C643 C 0.67326 0.65971 0.13324 0.0
C644 C 0.64763 0.63085 0.31125 0.0
C645 C 0.63821 0.60375 0.30303 0.0
C646 C 0.64351 0.64578 0.26954 0.0
C647 C 0.63036 0.63337 0.21797 0.0
C648 C 0.62041 0.60589 0.20999 0.0
C649 C 0.62416 0.59133 0.25304 0.0
C650 C 0.65364 0.67486 0.28012 0.0
C651 C 0.60667 0.59205 0.15508 0.0
H652 H 0.58146 0.66086 0.10933 0.0
H653 H 0.65877 0.68088 0.04725 0.0
H654 H 0.57272 0.61647 0.20893 0.0
H655 H 0.59099 0.64495 0.25348 0.0
H656 H 0.56709 0.64411 0.20287 0.0
H657 H 0.68763 0.67129 0.09881 0.0
H658 H 0.6829 0.66734 0.1754 0.0
H659 H 0.66854 0.63878 0.13007 0.0
H660 H 0.65837 0.64041 0.35016 0.0
H661 H 0.61704 0.57041 0.24643 0.0
H662 H 0.63758 0.67956 0.27265 0.0
H663 H 0.66985 0.68693 0.24953 0.0
H664 H 0.66129 0.68091 0.32446 0.0
H665 H 0.58909 0.59433 0.14755 0.0
H666 H 0.6001 0.57056 0.1558 0.0
H667 H 0.62031 0.60127 0.11818 0.0
C668 C 0.03286 0.67354 0.43882 0.0
C669 C 0.02331 0.65901 0.4898 0.0
C670 C 0.01618 0.6683 0.39144 0.0
C671 C 0.98937 0.64794 0.39509 0.0
C672 C 0.97928 0.63404 0.44724 0.0
C673 C -0.00361 0.63981 0.49417 0.0
C674 C 0.02759 0.68369 0.33663 0.0
C675 C 0.95077 0.61215 0.45256 0.0
C676 C 0.94226 0.64342 0.27728 0.0
C677 C 0.94273 0.62448 0.24083 0.0
C678 C 0.95717 0.65116 0.32811 0.0
C679 C 0.97271 0.63953 0.34272 0.0
C680 C 0.97303 0.62022 0.30638 0.0
C681 C 0.9581 0.61299 0.25581 0.0
C682 C 0.95652 0.67192 0.36584 0.0
C683 C 0.98931 0.60729 0.3207 0.0
H684 H 0.05359 0.68861 0.43535 0.0
H685 H 0.98888 0.62857 0.53351 0.0
H686 H 0.02809 0.67035 0.30325 0.0
H687 H 0.01488 0.69145 0.32023 0.0
H688 H 0.04805 0.70056 0.34259 0.0
H689 H 0.94538 0.6051 0.49747 0.0
H690 H 0.93718 0.61899 0.43696 0.0
H691 H 0.94751 0.59513 0.42536 0.0
H692 H 0.9304 0.65236 0.26595 0.0
H693 H 0.95843 0.5982 0.22806 0.0
H694 H 0.97673 0.6894 0.3693 0.0
H695 H 0.95013 0.66401 0.40983 0.0
H696 H 0.94291 0.67855 0.34907 0.0
H697 H 0.01064 0.62254 0.32278 0.0
H698 H 0.9868 0.59209 0.28861 0.0
H699 H 0.98358 0.59774 0.3635 0.0
C700 C 0.29609 0.96121 0.39921 0.0
C701 C 0.30568 0.94352 0.39323 0.0
C702 C 0.30214 0.97728 0.44812 0.0
C703 C 0.31784 0.97525 0.49204 0.0
C704 C 0.32619 0.95628 0.48764 0.0
C705 C 0.32016 0.94076 0.43807 0.0
C706 C 0.29306 -0.00257 0.45125 0.0
C707 C 0.34268 0.9533 0.53396 0.0
C708 C 0.36437 0.03522 0.57961 0.0
C709 C 0.35106 0.02991 0.63232 0.0
C710 C 0.35318 0.01807 0.53295 0.0
C711 C 0.32819 0.99486 0.53936 0.0
C712 C 0.31427 0.9897 0.59194 0.0
C713 C 0.32585 0.00743 0.63788 0.0
C714 C 0.36852 0.02441 0.47731 0.0
C715 C 0.28767 0.96502 0.60028 0.0
H716 H 0.28484 0.96335 0.36462 0.0
H717 H 0.3273 0.92682 0.43394 0.0
H718 H 0.28402 0.99663 0.49366 0.0
H719 H 0.31043 0.01763 0.44637 0.0
H720 H 0.27845 0.99435 0.41717 0.0
H721 H 0.34509 0.93574 0.52686 0.0
H722 H 0.36266 0.97124 0.53501 0.0
H723 H 0.33347 0.95146 0.57665 0.0
H724 H 0.38373 0.05275 0.57486 0.0
H725 H 0.3155 0.00327 0.67859 0.0
H726 H 0.35592 0.0239 0.44106 0.0
H727 H 0.37429 0.00922 0.46866 0.0
H728 H 0.38678 0.04418 0.47819 0.0
H729 H 0.27392 0.963 0.56518 0.0
H730 H 0.27843 0.96504 0.64199 0.0
H731 H 0.29013 0.94731 0.59859 0.0
C732 C 0.44988 0.26883 0.53679 0.0
C733 C 0.43026 0.26549 0.4973 0.0
C734 C 0.44896 0.24704 0.56443 0.0
C735 C 0.4278 0.22128 0.55254 0.0
C736 C 0.40814 0.21768 0.51204 0.0
C737 C 0.40965 0.23987 0.48465 0.0
C738 C 0.47047 0.25162 0.60685 0.0
C739 C 0.38527 0.19044 0.49842 0.0
C740 C 0.4377 0.16327 0.58774 0.0
C741 C 0.42451 0.15475 0.64055 0.0
C742 C 0.43882 0.18482 0.55853 0.0
C743 C 0.42635 0.19813 0.58261 0.0
C744 C 0.41304 0.1897 0.63594 0.0
C745 C 0.41233 0.16811 0.66442 0.0
C746 C 0.45339 0.19339 0.50197 0.0
C747 C 0.3995 0.20346 0.6628 0.0
H748 H 0.46594 0.28858 0.54657 0.0
H749 H 0.39437 0.23719 0.45437 0.0
H750 H 0.46166 0.24444 0.64991 0.0
H751 H 0.48021 0.24018 0.59394 0.0
H752 H 0.48587 0.27287 0.61031 0.0
H753 H 0.3718 0.191 0.46537 0.0
H754 H 0.39287 0.17745 0.48288 0.0
H755 H 0.37362 0.18124 0.53791 0.0
H756 H 0.4472 0.15307 0.56901 0.0
H757 H 0.40202 0.16156 0.70508 0.0
H758 H 0.46971 0.21426 0.5049 0.0
H759 H 0.43974 0.19253 0.46774 0.0
H760 H 0.46192 0.18082 0.48898 0.0
H761 H 0.41421 0.2246 0.67077 0.0
H762 H 0.38965 0.1942 0.70404 0.0
H763 H 0.38441 0.20295 0.63295 0.0
C764 C 0.23358 0.40979 0.84209 0.0
C765 C 0.25814 0.43336 0.84217 0.0
C766 C 0.21175 0.40811 0.81265 0.0
C767 C 0.21458 0.43053 0.78272 0.0
C768 C 0.23905 0.4546 0.78418 0.0
C769 C 0.26052 0.45572 0.81392 0.0
C770 C 0.18587 0.38215 0.81231 0.0
C771 C 0.24275 0.47897 0.75306 0.0
C772 C 0.16776 0.41939 0.65885 0.0
C773 C 0.14952 0.42535 0.68438 0.0
C774 C 0.18907 0.42102 0.69041 0.0
C775 C 0.19212 0.4287 0.74883 0.0
C776 C 0.17384 0.43484 0.77475 0.0
C777 C 0.15281 0.43315 0.74218 0.0
C778 C 0.20831 0.41448 0.6613 0.0
C779 C 0.17644 0.44307 0.83696 0.0
H780 H 0.23157 0.39242 0.86381 0.0
H781 H 0.27939 0.47405 0.81391 0.0
H782 H 0.16952 0.38521 0.82766 0.0
H783 H 0.18094 0.37444 0.76781 0.0
H784 H 0.1866 0.36691 0.83967 0.0
H785 H 0.26276 0.49642 0.76021 0.0
H786 H 0.2399 0.47496 0.70631 0.0
H787 H 0.22763 0.48405 0.76742 0.0
H788 H 0.16534 0.41336 0.61424 0.0
H789 H 0.13877 0.43773 0.76233 0.0
H790 H 0.20854 0.39783 0.68391 0.0
H791 H 0.22869 0.43176 0.66355 0.0
H792 H 0.2032 0.40891 0.61555 0.0
H793 H 0.17571 0.42724 0.86472 0.0
H794 H 0.16051 0.44714 0.85065 0.0
H795 H 0.19591 0.46114 0.84427 0.0
C796 C 0.81915 0.27406 0.9446 0.0
C797 C 0.8322 0.26861 0.98857 0.0
C798 C 0.79854 0.25357 0.91344 0.0
C799 C 0.7908 0.22697 0.92655 0.0
C800 C 0.80355 0.22127 0.9715 0.0
C801 C 0.82411 0.24219 0.00212 0.0
C802 C 0.78526 0.2604 0.86606 0.0
C803 C 0.79571 0.19308 0.9867 0.0
C804 C 0.7224 0.17297 0.88154 0.0
C805 C 0.72805 0.16278 0.83234 0.0
C806 C 0.74262 0.194 0.91232 0.0
C807 C 0.76916 0.20511 0.89346 0.0
C808 C 0.77501 0.19532 0.84316 0.0
C809 C 0.75433 0.17425 0.81306 0.0
C810 C 0.73561 0.20405 0.96554 0.0
C811 C 0.80313 0.20681 0.82175 0.0
H812 H 0.82524 0.29443 0.93392 0.0
H813 H 0.83419 0.23785 0.03588 0.0
H814 H 0.78779 0.25259 0.82455 0.0
H815 H 0.76363 0.25089 0.87436 0.0
H816 H 0.79343 0.28211 0.86177 0.0
H817 H 0.80744 0.192 0.02313 0.0
H818 H 0.77437 0.18181 -0.00179 0.0
H819 H 0.79857 0.18312 0.94901 0.0
H820 H 0.70212 0.16427 0.89665 0.0
H821 H 0.75884 0.16642 0.77518 0.0
H822 H 0.7428 0.22556 0.96143 0.0
H823 H 0.7456 0.20142 0.00343 0.0
H824 H 0.7139 0.19359 0.97373 0.0
H825 H 0.81198 0.2284 0.81413 0.0
H826 H 0.80428 0.19729 0.78137 0.0
H827 H 0.81541 0.20427 0.85481 0.0
C828 C 0.55101 0.82813 0.08185 0.0
C829 C 0.56505 0.83726 0.13356 0.0
C830 C 0.54978 0.80651 0.05267 0.0
C831 C 0.56293 0.79371 0.07574 0.0
C832 C 0.57682 0.80254 0.12834 0.0
C833 C 0.57769 0.82423 0.15673 0.0
C834 C 0.53465 0.79754 -0.00315 0.0
C835 C 0.59101 0.78926 0.15424 0.0
C836 C 0.54165 0.72356 0.02917 0.0
C837 C 0.5616 0.72768 0.98976 0.0
C838 C 0.54164 0.74492 0.05686 0.0
C839 C 0.5621 0.77101 0.04488 0.0
C840 C 0.5819 0.77539 0.004 0.0
C841 C 0.58139 0.75363 0.97677 0.0
C842 C 0.52006 0.73951 0.09984 0.0
C843 C 0.60396 0.80302 0.99005 0.0
H844 H 0.54113 0.83805 0.06368 0.0
H845 H 0.58861 0.83122 0.19659 0.0
H846 H 0.54823 0.79914 0.96166 0.0
H847 H 0.51901 0.7764 -0.00011 0.0
H848 H 0.52519 0.80941 0.98516 0.0
H849 H 0.60072 0.79839 0.19566 0.0
H850 H 0.57679 0.76793 0.16153 0.0
H851 H 0.60635 0.79051 0.12403 0.0
H852 H 0.52621 0.70355 0.03927 0.0
H853 H 0.59689 0.75695 0.94645 0.0
H854 H 0.50981 0.75057 0.08796 0.0
H855 H 0.52891 0.74656 0.14291 0.0
H856 H 0.50508 0.7181 0.10282 0.0
H857 H 0.59556 0.81547 0.9757 0.0
H858 H 0.61739 0.80309 0.95602 0.0
H859 H 0.61587 0.8124 0.02913 0.0
C860 C 0.75515 0.58432 0.32095 0.0
C861 C 0.73528 0.58737 0.29413 0.0
C862 C 0.77443 0.58234 0.28841 0.0
C863 C 0.77372 0.5834 0.22775 0.0
C864 C 0.75406 0.58705 0.20055 0.0
C865 C 0.73512 0.58904 0.23405 0.0
C866 C 0.79524 0.57861 0.31885 0.0
C867 C 0.75268 0.58829 0.13598 0.0
C868 C 0.83605 0.59851 0.14562 0.0
C869 C 0.83081 0.573 0.13046 0.0
C870 C 0.81751 0.60223 0.17672 0.0
C871 C 0.79309 0.57993 0.19265 0.0
C872 C 0.78727 0.55423 0.17571 0.0
C873 C 0.80623 0.55106 0.14488 0.0
C874 C 0.82437 0.62995 0.19395 0.0
C875 C 0.76128 0.53 0.1914 0.0
H876 H 0.75542 0.58305 0.36731 0.0
H877 H 0.71988 0.59147 0.21289 0.0
H878 H 0.79321 0.55926 0.30659 0.0
H879 H 0.81536 0.59426 0.30558 0.0
H880 H 0.79369 0.57921 0.36627 0.0
H881 H 0.73671 0.59215 0.12161 0.0
H882 H 0.77188 0.60411 0.11875 0.0
H883 H 0.74904 0.56928 0.11698 0.0
H884 H 0.85502 0.61558 0.13478 0.0
H885 H 0.802 0.5313 0.13323 0.0
H886 H 0.8251 0.63163 0.24141 0.0
H887 H 0.8088 0.63422 0.17888 0.0
H888 H 0.84379 0.64525 0.17633 0.0
H889 H 0.75948 0.52795 0.23875 0.0
H890 H 0.75942 0.51153 0.1731 0.0
H891 H 0.74443 0.53217 0.17585 0.0
C892 C 0.17263 0.74933 0.50088 0.0
C893 C 0.15967 0.72305 0.4814 0.0
C894 C 0.19381 0.76937 0.46986 0.0
C895 C 0.20231 0.7629 0.41846 0.0
C896 C 0.18975 0.73632 0.39936 0.0
C897 C 0.16852 0.71671 0.43099 0.0
C898 C 0.20676 0.79756 0.4915 0.0
C899 C 0.19848 0.72866 0.34508 0.0
C900 C 0.23959 0.81923 0.31313 0.0
C901 C 0.266 0.82723 0.32678 0.0
C902 C 0.21858 0.79783 0.34167 0.0
C903 C 0.2242 0.78408 0.38449 0.0
C904 C 0.25079 0.79132 0.39658 0.0
C905 C 0.27138 0.81285 0.36764 0.0
C906 C 0.19041 0.79059 0.32761 0.0
C907 C 0.25753 0.77693 0.44153 0.0
H908 H 0.16585 0.75437 0.5397 0.0
H909 H 0.15867 0.69641 0.41579 0.0
H910 H 0.22832 0.80544 0.49786 0.0
H911 H 0.20459 0.81032 0.45914 0.0
H912 H 0.19803 0.79923 0.53263 0.0
H913 H 0.18722 0.70695 0.33719 0.0
H914 H 0.19572 0.73886 0.30777 0.0
H915 H 0.21992 0.73513 0.34746 0.0
H916 H 0.2353 0.83028 0.28165 0.0
H917 H 0.29176 0.81882 0.37815 0.0
H918 H 0.1811 0.79409 0.36566 0.0
H919 H 0.1785 0.76922 0.31688 0.0
H920 H 0.18936 0.80228 0.29109 0.0
H921 H 0.25127 0.78008 0.48441 0.0
H922 H 0.27911 0.78384 0.44296 0.0
H923 H 0.24661 0.7553 0.43311 0.0
loop_
_geom_bond_atom_site_label_1
_geom_bond_atom_site_label_2
_geom_bond_distance
_geom_bond_site_symmetry_2
_ccdc_geom_bond_type
C0 O1 1.160 . S
C0 O7 1.185 . S
O1 C0 1.160 . S
O2 Zn3 1.899 . S
O2 C10 1.284 . S
Zn3 O2 1.899 . S
Zn3 O4 2.032 . S
Zn3 O7 2.086 . S
Zn3 O12 1.977 . S
O4 Zn3 2.032 . S
O4 C8 1.278 . S
C5 O6 1.203 . S
C5 O12 1.267 . S
O6 C5 1.203 . S
O7 C0 1.185 . S
O7 Zn3 2.086 . S
C8 O4 1.278 . S
C8 O9 1.211 . S
O9 C8 1.211 . S
C10 O2 1.284 . S
C10 O11 1.273 . S
O11 C10 1.273 . S
O12 Zn3 1.977 . S
O12 C5 1.267 . S
C13 O14 1.160 . S
C13 O20 1.185 . S
O14 C13 1.160 . S
O15 Zn16 1.899 . S
O15 C23 1.284 . S
Zn16 O15 1.899 . S
Zn16 O17 2.032 . S
Zn16 O20 2.086 . S
Zn16 O25 1.977 . S
O17 Zn16 2.032 . S
O17 C21 1.278 . S
C18 O19 1.203 . S
C18 O25 1.267 . S
O19 C18 1.203 . S
O20 C13 1.185 . S
O20 Zn16 2.086 . S
C21 O17 1.278 . S
C21 O22 1.211 . S
O22 C21 1.211 . S
C23 O15 1.284 . S
C23 O24 1.273 . S
O24 C23 1.273 . S
O25 Zn16 1.977 . S
O25 C18 1.267 . S
C26 O27 1.160 . S
C26 O33 1.185 . S
O27 C26 1.160 . S
O28 Zn29 1.899 . S
O28 C36 1.284 . S
Zn29 O28 1.899 . S
Zn29 O30 2.032 . S
Zn29 O33 2.086 . S
Zn29 O38 1.977 . S
O30 Zn29 2.032 . S
O30 C34 1.278 . S
C31 O32 1.203 . S
C31 O38 1.267 . S
O32 C31 1.203 . S
O33 C26 1.185 . S
O33 Zn29 2.086 . S
C34 O30 1.278 . S
C34 O35 1.211 . S
O35 C34 1.211 . S
C36 O28 1.284 . S
C36 O37 1.273 . S
O37 C36 1.273 . S
O38 Zn29 1.977 . S
O38 C31 1.267 . S
C39 O40 1.160 . S
C39 O46 1.185 . S
O40 C39 1.160 . S
O41 Zn42 1.899 . S
O41 C49 1.284 . S
Zn42 O41 1.899 . S
Zn42 O43 2.032 1_556 S
Zn42 O46 2.086 . S
Zn42 O51 1.977 . S
O43 Zn42 2.032 1_554 S
O43 C47 1.278 . S
C44 O45 1.203 . S
C44 O51 1.267 . S
O45 C44 1.203 . S
O46 C39 1.185 . S
O46 Zn42 2.086 . S
C47 O43 1.278 . S
C47 O48 1.211 1_554 S
O48 C47 1.211 1_556 S
C49 O41 1.284 . S
C49 O50 1.273 . S
O50 C49 1.273 . S
O51 Zn42 1.977 . S
O51 C44 1.267 . S
C52 O53 1.160 . S
C52 O59 1.185 . S
O53 C52 1.160 . S
O54 Zn55 1.899 . S
O54 C62 1.284 . S
Zn55 O54 1.899 . S
Zn55 O56 2.032 . S
Zn55 O59 2.086 . S
Zn55 O64 1.977 . S
O56 Zn55 2.032 . S
O56 C60 1.278 . S
C57 O58 1.201 1_556 S
C57 O64 1.267 1_556 S
O58 C57 1.201 1_554 S
O59 C52 1.185 . S
O59 Zn55 2.086 . S
C60 O56 1.278 . S
C60 O61 1.211 . S
O61 C60 1.211 . S
C62 O54 1.284 . S
C62 O63 1.273 . S
O63 C62 1.273 . S
O64 Zn55 1.977 . S
O64 C57 1.267 1_554 S
C65 O66 1.160 . S
C65 O72 1.185 . S
O66 C65 1.160 . S
O67 Zn68 1.899 . S
O67 C75 1.284 . S
Zn68 O67 1.899 . S
Zn68 O69 2.032 . S
Zn68 O72 2.086 . S
Zn68 O77 1.977 . S
O69 Zn68 2.032 . S
O69 C73 1.278 . S
C70 O71 1.203 . S
C70 O77 1.267 . S
O71 C70 1.203 . S
O72 C65 1.185 . S
O72 Zn68 2.086 . S
C73 O69 1.278 . S
C73 O74 1.211 . S
O74 C73 1.211 . S
C75 O67 1.284 . S
C75 O76 1.273 . S
O76 C75 1.273 . S
O77 Zn68 1.977 . S
O77 C70 1.267 . S
C78 O79 1.160 . S
C78 O85 1.185 . S
O79 C78 1.160 . S
O80 Zn81 1.899 . S
O80 C88 1.284 . S
Zn81 O80 1.899 . S
Zn81 O82 2.032 . S
Zn81 O85 2.086 . S
Zn81 O90 1.977 . S
O82 Zn81 2.032 . S
O82 C86 1.278 . S
C83 O84 1.203 . S
C83 O90 1.267 . S
O84 C83 1.203 . S
O85 C78 1.185 . S
O85 Zn81 2.086 . S
C86 O82 1.278 . S
C86 O87 1.211 . S
O87 C86 1.211 . S
C88 O80 1.284 . S
C88 O89 1.273 . S
O89 C88 1.273 . S
O90 Zn81 1.977 . S
O90 C83 1.267 . S
C91 O92 1.160 . S
C91 O98 1.185 . S
O92 C91 1.160 . S
O93 Zn94 1.899 . S
O93 C101 1.284 . S
Zn94 O93 1.899 . S
Zn94 O95 2.032 . S
Zn94 O98 2.086 . S
Zn94 O103 1.977 . S
O95 Zn94 2.032 . S
O95 C99 1.278 . S
C96 O97 1.203 . S
C96 O103 1.267 . S
O97 C96 1.203 . S
O98 C91 1.185 . S
O98 Zn94 2.086 . S
C99 O95 1.278 . S
C99 O100 1.211 . S
O100 C99 1.211 . S
C101 O93 1.284 . S
C101 O102 1.273 . S
O102 C101 1.273 . S
O103 Zn94 1.977 . S
O103 C96 1.267 . S
C104 O105 1.160 . S
C104 O111 1.185 . S
O105 C104 1.160 . S
O106 Zn107 1.899 . S
O106 C114 1.284 . S
Zn107 O106 1.899 . S
Zn107 O108 2.032 . S
Zn107 O111 2.086 . S
Zn107 O116 1.977 . S
O108 Zn107 2.032 . S
O108 C112 1.278 . S
C109 O110 1.203 . S
C109 O116 1.267 . S
O110 C109 1.203 . S
O111 C104 1.185 . S
O111 Zn107 2.086 . S
C112 O108 1.278 . S
C112 O113 1.211 . S
O113 C112 1.211 . S
C114 O106 1.284 . S
C114 O115 1.273 . S
O115 C114 1.273 . S
O116 Zn107 1.977 . S
O116 C109 1.267 . S
C117 O118 1.160 . S
C117 O124 1.185 . S
O118 C117 1.160 . S
O119 Zn120 1.899 . S
O119 C127 1.284 . S
Zn120 O119 1.899 . S
Zn120 O121 2.032 . S
Zn120 O124 2.086 . S
Zn120 O129 1.977 . S
O121 Zn120 2.032 . S
O121 C125 1.278 . S
C122 O123 1.201 1_554 S
C122 O129 1.267 1_554 S
O123 C122 1.201 1_556 S
O124 C117 1.185 . S
O124 Zn120 2.086 . S
C125 O121 1.278 . S
C125 O126 1.211 . S
O126 C125 1.211 . S
C127 O119 1.284 . S
C127 O128 1.273 . S
O128 C127 1.273 . S
O129 Zn120 1.977 . S
O129 C122 1.267 1_556 S
C130 O131 1.160 . S
C130 O137 1.185 . S
O131 C130 1.160 . S
O132 Zn133 1.899 . S
O132 C140 1.284 . S
Zn133 O132 1.899 . S
Zn133 O134 2.032 1_554 S
Zn133 O137 2.086 . S
Zn133 O142 1.977 . S
O134 Zn133 2.032 1_556 S
O134 C138 1.278 . S
C135 O136 1.203 . S
C135 O142 1.267 . S
O136 C135 1.203 . S
O137 C130 1.185 . S
O137 Zn133 2.086 . S
C138 O134 1.278 . S
C138 O139 1.211 1_556 S
O139 C138 1.211 1_554 S
C140 O132 1.284 . S
C140 O141 1.273 . S
O141 C140 1.273 . S
O142 Zn133 1.977 . S
O142 C135 1.267 . S
C143 O144 1.160 . S
C143 O150 1.185 . S
O144 C143 1.160 . S
O145 Zn146 1.899 . S
O145 C153 1.284 . S
Zn146 O145 1.899 . S
Zn146 O147 2.032 . S
Zn146 O150 2.086 . S
Zn146 O155 1.977 . S
O147 Zn146 2.032 . S
O147 C151 1.278 . S
C148 O149 1.203 . S
C148 O155 1.267 . S
O149 C148 1.203 . S
O150 C143 1.185 . S
O150 Zn146 2.086 . S
C151 O147 1.278 . S
C151 O152 1.211 . S
O152 C151 1.211 . S
C153 O145 1.284 . S
C153 O154 1.273 . S
O154 C153 1.273 . S
O155 Zn146 1.977 . S
O155 C148 1.267 . S
C156 C157 1.391 . S
C156 C158 1.394 . S
C156 H172 0.931 . S
C157 C156 1.391 . S
C157 C161 1.376 . S
C158 C156 1.394 . S
C158 C159 1.369 . S
C158 C162 1.531 . S
C159 C158 1.369 . S
C159 C160 1.410 . S
C159 C167 1.503 . S
C160 C159 1.410 . S
C160 C161 1.392 . S
C160 C163 1.511 . S
C161 C157 1.376 . S
C161 C160 1.392 . S
C161 H173 0.929 . S
C162 C158 1.531 . S
C162 H174 0.960 . S
C162 H175 0.962 . S
C162 H176 0.960 . S
C163 C160 1.511 . S
C163 H177 0.961 . S
C163 H178 0.961 . S
C163 H179 0.961 . S
C164 C165 1.370 . S
C164 C166 1.363 . S
C164 H180 0.931 . S
C165 C164 1.370 . S
C165 C169 1.408 . S
C166 C164 1.363 . S
C166 C167 1.370 . S
C166 C170 1.524 . S
C167 C159 1.503 . S
C167 C166 1.370 . S
C167 C168 1.403 . S
C168 C167 1.403 . S
C168 C169 1.404 . S
C168 C171 1.539 . S
C169 C165 1.408 . S
C169 C168 1.404 . S
C169 H181 0.930 . S
C170 C166 1.524 . S
C170 H182 0.956 . S
C170 H183 0.961 . S
C170 H184 0.961 . S
C171 C168 1.539 . S
C171 H185 0.958 . S
C171 H186 0.961 . S
C171 H187 0.960 . S
H172 C156 0.931 . S
H173 C161 0.929 . S
H174 C162 0.960 . S
H175 C162 0.962 . S
H176 C162 0.960 . S
H177 C163 0.961 . S
H178 C163 0.961 . S
H179 C163 0.961 . S
H180 C164 0.931 . S
H181 C169 0.930 . S
H182 C170 0.956 . S
H183 C170 0.961 . S
H184 C170 0.961 . S
H185 C171 0.958 . S
H186 C171 0.961 . S
H187 C171 0.960 . S
C188 C189 1.391 . S
C188 C190 1.394 . S
C188 H204 0.931 . S
C189 C188 1.391 . S
C189 C193 1.376 . S
C190 C188 1.394 . S
C190 C191 1.369 . S
C190 C194 1.531 . S
C191 C190 1.369 . S
C191 C192 1.410 . S
C191 C199 1.503 1_455 S
C192 C191 1.410 . S
C192 C193 1.392 . S
C192 C195 1.511 . S
C193 C189 1.376 . S
C193 C192 1.392 . S
C193 H205 0.929 . S
C194 C190 1.531 . S
C194 H206 0.960 . S
C194 H207 0.962 1_455 S
C194 H208 0.960 . S
C195 C192 1.511 . S
C195 H209 0.961 . S
C195 H210 0.961 1_455 S
C195 H211 0.961 . S
C196 C197 1.370 . S
C196 C198 1.363 . S
C196 H212 0.931 . S
C197 C196 1.370 . S
C197 C201 1.408 . S
C198 C196 1.363 . S
C198 C199 1.370 . S
C198 C202 1.524 . S
C199 C191 1.503 1_655 S
C199 C198 1.370 . S
C199 C200 1.403 1_655 S
C200 C199 1.403 1_455 S
C200 C201 1.404 1_455 S
C200 C203 1.539 . S
C201 C197 1.408 . S
C201 C200 1.404 1_655 S
C201 H213 0.930 . S
C202 C198 1.524 . S
C202 H214 0.956 . S
C202 H215 0.961 . S
C202 H216 0.961 . S
C203 C200 1.539 . S
C203 H217 0.958 . S
C203 H218 0.961 . S
C203 H219 0.960 . S
H204 C188 0.931 . S
H205 C193 0.929 . S
H206 C194 0.960 . S
H207 C194 0.962 1_655 S
H208 C194 0.960 . S
H209 C195 0.961 . S
H210 C195 0.961 1_655 S
H211 C195 0.961 . S
H212 C196 0.931 . S
H213 C201 0.930 . S
H214 C202 0.956 . S
H215 C202 0.961 . S
H216 C202 0.961 . S
H217 C203 0.958 . S
H218 C203 0.961 . S
H219 C203 0.960 . S
C220 C221 1.391 . S
C220 C222 1.394 . S
C220 H236 0.931 . S
C221 C220 1.391 . S
C221 C225 1.376 . S
C222 C220 1.394 . S
C222 C223 1.369 . S
C222 C226 1.529 . S
C223 C222 1.369 . S
C223 C224 1.410 . S
C223 C231 1.503 1_565 S
C224 C223 1.410 . S
C224 C225 1.392 . S
C224 C227 1.511 . S
C225 C221 1.376 . S
C225 C224 1.392 . S
C225 H237 0.929 . S
C226 C222 1.529 . S
C226 H238 0.931 1_565 S
C226 H239 0.983 . S
C226 H240 0.960 . S
C227 C224 1.511 . S
C227 H241 0.961 . S
C227 H242 0.961 . S
C227 H243 0.961 1_565 S
C228 C229 1.370 . S
C228 C230 1.363 . S
C228 H244 0.931 . S
C229 C228 1.370 . S
C229 C233 1.408 . S
C230 C228 1.363 . S
C230 C231 1.370 . S
C230 C234 1.524 1_545 S
C231 C223 1.503 1_545 S
C231 C230 1.370 . S
C231 C232 1.403 . S
C232 C231 1.403 . S
C232 C233 1.404 . S
C232 C235 1.539 . S
C233 C229 1.408 . S
C233 C232 1.404 . S
C233 H245 0.930 . S
C234 C230 1.524 1_565 S
C234 H246 0.956 . S
C234 H247 0.961 . S
C234 H248 0.961 . S
C235 C232 1.539 . S
C235 H249 0.958 . S
C235 H250 0.961 . S
C235 H251 0.960 . S
H236 C220 0.931 . S
H237 C225 0.929 . S
H238 C226 0.931 1_545 S
H239 C226 0.983 . S
H240 C226 0.960 . S
H241 C227 0.961 . S
H242 C227 0.961 . S
H243 C227 0.961 1_545 S
H244 C228 0.931 . S
H245 C233 0.930 . S
H246 C234 0.956 . S
H247 C234 0.961 . S
H248 C234 0.961 . S
H249 C235 0.958 . S
H250 C235 0.961 . S
H251 C235 0.960 . S
C252 C253 1.391 . S
C252 C254 1.394 . S
C252 H268 0.931 . S
C253 C252 1.391 . S
C253 C257 1.376 . S
C254 C252 1.394 . S
C254 C255 1.369 . S
C254 C258 1.531 . S
C255 C254 1.369 . S
C255 C256 1.410 . S
C255 C263 1.503 . S
C256 C255 1.410 . S
C256 C257 1.392 . S
C256 C259 1.511 . S
C257 C253 1.376 . S
C257 C256 1.392 . S
C257 H269 0.929 . S
C258 C254 1.531 . S
C258 H270 0.960 . S
C258 H271 0.962 . S
C258 H272 0.960 . S
C259 C256 1.511 . S
C259 H273 0.961 . S
C259 H274 0.961 . S
C259 H275 0.961 . S
C260 C261 1.370 . S
C260 C262 1.363 . S
C260 H276 0.931 . S
C261 C260 1.370 . S
C261 C265 1.408 . S
C262 C260 1.363 . S
C262 C263 1.370 . S
C262 C266 1.524 . S
C263 C255 1.503 . S
C263 C262 1.370 . S
C263 C264 1.403 . S
C264 C263 1.403 . S
C264 C265 1.404 . S
C264 C267 1.539 . S
C265 C261 1.408 . S
C265 C264 1.404 . S
C265 H277 0.930 . S
C266 C262 1.524 . S
C266 H278 0.956 . S
C266 H279 0.961 . S
C266 H280 0.961 . S
C267 C264 1.539 . S
C267 H281 0.958 . S
C267 H282 0.961 . S
C267 H283 0.960 . S
H268 C252 0.931 . S
H269 C257 0.929 . S
H270 C258 0.960 . S
H271 C258 0.962 . S
H272 C258 0.960 . S
H273 C259 0.961 . S
H274 C259 0.961 . S
H275 C259 0.961 . S
H276 C260 0.931 . S
H277 C265 0.930 . S
H278 C266 0.956 . S
H279 C266 0.961 . S
H280 C266 0.961 . S
H281 C267 0.958 . S
H282 C267 0.961 . S
H283 C267 0.960 . S
C284 C285 1.391 . S
C284 C286 1.394 . S
C284 H300 0.931 . S
C285 C284 1.391 . S
C285 C289 1.376 . S
C286 C284 1.394 . S
C286 C287 1.369 . S
C286 C290 1.517 1_455 S
C287 C286 1.369 . S
C287 C288 1.410 . S
C287 C295 1.503 1_455 S
C288 C287 1.410 . S
C288 C289 1.392 . S
C288 C291 1.511 . S
C289 C285 1.376 . S
C289 C288 1.392 . S
C289 H301 0.929 . S
C290 C286 1.517 1_655 S
C290 H302 0.972 . S
C290 H303 0.958 1_655 S
C290 H304 0.956 . S
C291 C288 1.511 . S
C291 H305 0.961 . S
C291 H306 0.961 . S
C291 H307 0.961 1_455 S
C292 C293 1.370 . S
C292 C294 1.363 . S
C292 H308 0.931 . S
C293 C292 1.370 . S
C293 C297 1.408 . S
C294 C292 1.363 . S
C294 C295 1.370 . S
C294 C298 1.524 1_655 S
C295 C287 1.503 1_655 S
C295 C294 1.370 . S
C295 C296 1.403 . S
C296 C295 1.403 . S
C296 C297 1.404 . S
C296 C299 1.539 . S
C297 C293 1.408 . S
C297 C296 1.404 . S
C297 H309 0.930 . S
C298 C294 1.524 1_455 S
C298 H310 0.956 . S
C298 H311 0.961 . S
C298 H312 0.961 . S
C299 C296 1.539 . S
C299 H313 0.958 . S
C299 H314 0.961 . S
C299 H315 0.960 . S
H300 C284 0.931 . S
H301 C289 0.929 . S
H302 C290 0.972 . S
H303 C290 0.958 1_455 S
H304 C290 0.956 . S
H305 C291 0.961 . S
H306 C291 0.961 . S
H307 C291 0.961 1_655 S
H308 C292 0.931 . S
H309 C297 0.930 . S
H310 C298 0.956 . S
H311 C298 0.961 . S
H312 C298 0.961 . S
H313 C299 0.958 . S
H314 C299 0.961 . S
H315 C299 0.960 . S
C316 C317 1.391 . S
C316 C318 1.394 . S
C316 H332 0.931 . S
C317 C316 1.391 . S
C317 C321 1.376 . S
C318 C316 1.394 . S
C318 C319 1.369 . S
C318 C322 1.531 . S
C319 C318 1.369 . S
C319 C320 1.410 . S
C319 C327 1.503 1_546 S
C320 C319 1.410 . S
C320 C321 1.392 . S
C320 C323 1.511 . S
C321 C317 1.376 . S
C321 C320 1.392 . S
C321 H333 0.929 . S
C322 C318 1.531 . S
C322 H334 0.960 1_556 S
C322 H335 0.962 . S
C322 H336 0.960 . S
C323 C320 1.511 . S
C323 H337 0.961 . S
C323 H338 0.961 1_545 S
C323 H339 0.961 1_556 S
C324 C325 1.370 . S
C324 C326 1.363 . S
C324 H340 0.931 . S
C325 C324 1.370 . S
C325 C329 1.408 . S
C326 C324 1.363 . S
C326 C327 1.370 . S
C326 C330 1.524 1_554 S
C327 C319 1.503 1_564 S
C327 C326 1.370 . S
C327 C328 1.389 1_565 S
C328 C327 1.389 1_545 S
C328 C329 1.375 1_545 S
C328 C331 1.584 . S
C329 C325 1.408 . S
C329 C328 1.375 1_565 S
C329 H341 0.930 . S
C330 C326 1.524 1_556 S
C330 H342 0.956 . S
C330 H343 0.961 . S
C330 H344 0.961 . S
C331 C328 1.584 . S
C331 H345 0.958 . S
C331 H346 0.961 . S
C331 H347 0.960 . S
H332 C316 0.931 . S
H333 C321 0.929 . S
H334 C322 0.960 1_554 S
H335 C322 0.962 . S
H336 C322 0.960 . S
H337 C323 0.961 . S
H338 C323 0.961 1_565 S
H339 C323 0.961 1_554 S
H340 C324 0.931 . S
H341 C329 0.930 . S
H342 C330 0.956 . S
H343 C330 0.961 . S
H344 C330 0.961 . S
H345 C331 0.958 . S
H346 C331 0.961 . S
H347 C331 0.960 . S
C348 C349 1.391 . S
C348 C350 1.394 . S
C348 H364 0.931 . S
C349 C348 1.391 . S
C349 C353 1.376 . S
C350 C348 1.394 . S
C350 C351 1.369 . S
C350 C354 1.531 . S
C351 C350 1.369 . S
C351 C352 1.410 . S
C351 C359 1.503 . S
C352 C351 1.410 . S
C352 C353 1.392 . S
C352 C355 1.511 . S
C353 C349 1.376 . S
C353 C352 1.392 . S
C353 H365 0.929 . S
C354 C350 1.531 . S
C354 H366 0.960 . S
C354 H367 0.962 . S
C354 H368 0.960 . S
C355 C352 1.511 . S
C355 H369 0.961 . S
C355 H370 0.961 . S
C355 H371 0.961 . S
C356 C357 1.370 . S
C356 C358 1.363 . S
C356 H372 0.931 . S
C357 C356 1.370 . S
C357 C361 1.408 . S
C358 C356 1.363 . S
C358 C359 1.370 . S
C358 C362 1.524 . S
C359 C351 1.503 . S
C359 C358 1.370 . S
C359 C360 1.403 . S
C360 C359 1.403 . S
C360 C361 1.404 . S
C360 C363 1.539 . S
C361 C357 1.408 . S
C361 C360 1.404 . S
C361 H373 0.930 . S
C362 C358 1.524 . S
C362 H374 0.956 . S
C362 H375 0.961 . S
C362 H376 0.961 . S
C363 C360 1.539 . S
C363 H377 0.958 . S
C363 H378 0.961 . S
C363 H379 0.960 . S
H364 C348 0.931 . S
H365 C353 0.929 . S
H366 C354 0.960 . S
H367 C354 0.962 . S
H368 C354 0.960 . S
H369 C355 0.961 . S
H370 C355 0.961 . S
H371 C355 0.961 . S
H372 C356 0.931 . S
H373 C361 0.930 . S
H374 C362 0.956 . S
H375 C362 0.961 . S
H376 C362 0.961 . S
H377 C363 0.958 . S
H378 C363 0.961 . S
H379 C363 0.960 . S
C380 C381 1.391 . S
C380 C382 1.394 . S
C380 H396 0.931 . S
C381 C380 1.391 . S
C381 C385 1.376 . S
C382 C380 1.394 . S
C382 C383 1.369 . S
C382 C386 1.531 . S
C383 C382 1.369 . S
C383 C384 1.410 . S
C383 C391 1.503 . S
C384 C383 1.410 . S
C384 C385 1.392 . S
C384 C387 1.511 . S
C385 C381 1.376 . S
C385 C384 1.392 . S
C385 H397 0.929 . S
C386 C382 1.531 . S
C386 H398 0.960 . S
C386 H399 0.962 . S
C386 H400 0.960 . S
C387 C384 1.511 . S
C387 H401 0.961 . S
C387 H402 0.961 . S
C387 H403 0.961 . S
C388 C389 1.370 . S
C388 C390 1.363 . S
C388 H404 0.931 . S
C389 C388 1.370 . S
C389 C393 1.408 . S
C390 C388 1.363 . S
C390 C391 1.370 . S
C390 C394 1.524 . S
C391 C383 1.503 . S
C391 C390 1.370 . S
C391 C392 1.403 . S
C392 C391 1.403 . S
C392 C393 1.404 . S
C392 C395 1.539 . S
C393 C389 1.408 . S
C393 C392 1.404 . S
C393 H405 0.930 . S
C394 C390 1.524 . S
C394 H406 0.956 . S
C394 H407 0.961 . S
C394 H408 0.961 . S
C395 C392 1.539 . S
C395 H409 0.958 . S
C395 H410 0.961 . S
C395 H411 0.960 . S
H396 C380 0.931 . S
H397 C385 0.929 . S
H398 C386 0.960 . S
H399 C386 0.962 . S
H400 C386 0.960 . S
H401 C387 0.961 . S
H402 C387 0.961 . S
H403 C387 0.961 . S
H404 C388 0.931 . S
H405 C393 0.930 . S
H406 C394 0.956 . S
H407 C394 0.961 . S
H408 C394 0.961 . S
H409 C395 0.958 . S
H410 C395 0.961 . S
H411 C395 0.960 . S
C412 C413 1.391 . S
C412 C414 1.394 . S
C412 H428 0.931 . S
C413 C412 1.391 . S
C413 C417 1.376 . S
C414 C412 1.394 . S
C414 C415 1.369 . S
C414 C418 1.531 . S
C415 C414 1.369 . S
C415 C416 1.410 . S
C415 C423 1.503 . S
C416 C415 1.410 . S
C416 C417 1.392 . S
C416 C419 1.511 . S
C417 C413 1.376 . S
C417 C416 1.392 . S
C417 H429 0.929 . S
C418 C414 1.531 . S
C418 H430 0.960 . S
C418 H431 0.962 . S
C418 H432 0.960 . S
C419 C416 1.511 . S
C419 H433 0.961 . S
C419 H434 0.961 . S
C419 H435 0.961 . S
C420 C421 1.370 . S
C420 C422 1.363 . S
C420 H436 0.931 . S
C421 C420 1.370 . S
C421 C425 1.408 . S
C422 C420 1.363 . S
C422 C423 1.370 . S
C422 C426 1.524 . S
C423 C415 1.503 . S
C423 C422 1.370 . S
C423 C424 1.403 . S
C424 C423 1.403 . S
C424 C425 1.404 . S
C424 C427 1.539 . S
C425 C421 1.408 . S
C425 C424 1.404 . S
C425 H437 0.930 . S
C426 C422 1.524 . S
C426 H438 0.956 . S
C426 H439 0.961 . S
C426 H440 0.961 . S
C427 C424 1.539 . S
C427 H441 0.958 . S
C427 H442 0.961 . S
C427 H443 0.960 . S
H428 C412 0.931 . S
H429 C417 0.929 . S
H430 C418 0.960 . S
H431 C418 0.962 . S
H432 C418 0.960 . S
H433 C419 0.961 . S
H434 C419 0.961 . S
H435 C419 0.961 . S
H436 C420 0.931 . S
H437 C425 0.930 . S
H438 C426 0.956 . S
H439 C426 0.961 . S
H440 C426 0.961 . S
H441 C427 0.958 . S
H442 C427 0.961 . S
H443 C427 0.960 . S
C444 C445 1.391 . S
C444 C446 1.394 . S
C444 H460 0.931 . S
C445 C444 1.391 . S
C445 C449 1.376 . S
C446 C444 1.394 . S
C446 C447 1.369 . S
C446 C450 1.531 . S
C447 C446 1.369 . S
C447 C448 1.410 . S
C447 C455 1.503 . S
C448 C447 1.410 . S
C448 C449 1.392 . S
C448 C451 1.511 . S
C449 C445 1.376 . S
C449 C448 1.392 . S
C449 H461 0.929 . S
C450 C446 1.531 . S
C450 H462 0.960 . S
C450 H463 0.962 . S
C450 H464 0.960 . S
C451 C448 1.511 . S
C451 H465 0.961 . S
C451 H466 0.961 . S
C451 H467 0.961 . S
C452 C453 1.370 . S
C452 C454 1.363 . S
C452 H468 0.931 . S
C453 C452 1.370 . S
C453 C457 1.408 . S
C454 C452 1.363 . S
C454 C455 1.370 . S
C454 C458 1.520 1_556 S
C455 C447 1.503 . S
C455 C454 1.370 . S
C455 C456 1.403 . S
C456 C455 1.403 . S
C456 C457 1.404 . S
C456 C459 1.539 . S
C457 C453 1.408 . S
C457 C456 1.404 . S
C457 H469 0.930 . S
C458 C454 1.520 1_554 S
C458 H470 0.954 1_554 S
C458 H471 0.963 . S
C458 H472 0.964 . S
C459 C456 1.539 . S
C459 H473 0.958 . S
C459 H474 0.961 . S
C459 H475 0.960 . S
H460 C444 0.931 . S
H461 C449 0.929 . S
H462 C450 0.960 . S
H463 C450 0.962 . S
H464 C450 0.960 . S
H465 C451 0.961 . S
H466 C451 0.961 . S
H467 C451 0.961 . S
H468 C452 0.931 . S
H469 C457 0.930 . S
H470 C458 0.954 1_556 S
H471 C458 0.963 . S
H472 C458 0.964 . S
H473 C459 0.958 . S
H474 C459 0.961 . S
H475 C459 0.960 . S
C476 C477 1.391 . S
C476 C478 1.394 . S
C476 H492 0.931 . S
C477 C476 1.391 . S
C477 C481 1.376 . S
C478 C476 1.394 . S
C478 C479 1.369 . S
C478 C482 1.531 . S
C479 C478 1.369 . S
C479 C480 1.410 . S
C479 C487 1.503 . S
C480 C479 1.410 . S
C480 C481 1.392 . S
C480 C483 1.511 . S
C481 C477 1.376 . S
C481 C480 1.392 . S
C481 H493 0.929 . S
C482 C478 1.531 . S
C482 H494 0.960 . S
C482 H495 0.962 . S
C482 H496 0.960 . S
C483 C480 1.511 . S
C483 H497 0.961 . S
C483 H498 0.961 . S
C483 H499 0.961 . S
C484 C485 1.370 . S
C484 C486 1.363 . S
C484 H500 0.931 . S
C485 C484 1.370 . S
C485 C489 1.408 . S
C486 C484 1.363 . S
C486 C487 1.370 . S
C486 C490 1.524 1_554 S
C487 C479 1.503 . S
C487 C486 1.370 . S
C487 C488 1.403 . S
C488 C487 1.403 . S
C488 C489 1.404 . S
C488 C491 1.539 . S
C489 C485 1.408 . S
C489 C488 1.404 . S
C489 H501 0.930 . S
C490 C486 1.524 1_556 S
C490 H502 0.956 . S
C490 H503 0.961 1_556 S
C490 H504 0.961 . S
C491 C488 1.539 . S
C491 H505 0.958 . S
C491 H506 0.961 . S
C491 H507 0.960 . S
H492 C476 0.931 . S
H493 C481 0.929 . S
H494 C482 0.960 . S
H495 C482 0.962 . S
H496 C482 0.960 . S
H497 C483 0.961 . S
H498 C483 0.961 . S
H499 C483 0.961 . S
H500 C484 0.931 . S
H501 C489 0.930 . S
H502 C490 0.956 . S
H503 C490 0.961 1_554 S
H504 C490 0.961 . S
H505 C491 0.958 . S
H506 C491 0.961 . S
H507 C491 0.960 . S
C508 C509 1.391 . S
C508 C510 1.394 . S
C508 H524 0.931 . S
C509 C508 1.391 . S
C509 C513 1.376 . S
C510 C508 1.394 . S
C510 C511 1.369 . S
C510 C514 1.531 . S
C511 C510 1.369 . S
C511 C512 1.410 . S
C511 C519 1.503 . S
C512 C511 1.410 . S
C512 C513 1.392 . S
C512 C515 1.511 . S
C513 C509 1.376 . S
C513 C512 1.392 . S
C513 H525 0.929 . S
C514 C510 1.531 . S
C514 H526 0.960 . S
C514 H527 0.962 . S
C514 H528 0.960 . S
C515 C512 1.511 . S
C515 H529 0.961 . S
C515 H530 0.961 . S
C515 H531 0.961 . S
C516 C517 1.370 . S
C516 C518 1.363 . S
C516 H532 0.931 . S
C517 C516 1.370 . S
C517 C521 1.408 . S
C518 C516 1.363 . S
C518 C519 1.370 . S
C518 C522 1.524 . S
C519 C511 1.503 . S
C519 C518 1.370 . S
C519 C520 1.403 . S
C520 C519 1.403 . S
C520 C521 1.404 . S
C520 C523 1.539 . S
C521 C517 1.408 . S
C521 C520 1.404 . S
C521 H533 0.930 . S
C522 C518 1.524 . S
C522 H534 0.956 . S
C522 H535 0.961 . S
C522 H536 0.961 . S
C523 C520 1.539 . S
C523 H537 0.958 . S
C523 H538 0.961 . S
C523 H539 0.960 . S
H524 C508 0.931 . S
H525 C513 0.929 . S
H526 C514 0.960 . S
H527 C514 0.962 . S
H528 C514 0.960 . S
H529 C515 0.961 . S
H530 C515 0.961 . S
H531 C515 0.961 . S
H532 C516 0.931 . S
H533 C521 0.930 . S
H534 C522 0.956 . S
H535 C522 0.961 . S
H536 C522 0.961 . S
H537 C523 0.958 . S
H538 C523 0.961 . S
H539 C523 0.960 . S
C540 C541 1.391 . S
C540 C542 1.394 . S
C540 H556 0.931 . S
C541 C540 1.391 . S
C541 C545 1.376 . S
C542 C540 1.394 . S
C542 C543 1.369 . S
C542 C546 1.531 . S
C543 C542 1.369 . S
C543 C544 1.410 . S
C543 C551 1.503 . S
C544 C543 1.410 . S
C544 C545 1.392 . S
C544 C547 1.511 . S
C545 C541 1.376 . S
C545 C544 1.392 . S
C545 H557 0.929 . S
C546 C542 1.531 . S
C546 H558 0.960 . S
C546 H559 0.962 . S
C546 H560 0.960 . S
C547 C544 1.511 . S
C547 H561 0.961 . S
C547 H562 0.961 . S
C547 H563 0.961 . S
C548 C549 1.370 . S
C548 C550 1.363 . S
C548 H564 0.931 . S
C549 C548 1.370 . S
C549 C553 1.408 . S
C550 C548 1.363 . S
C550 C551 1.370 . S
C550 C554 1.524 . S
C551 C543 1.503 . S
C551 C550 1.370 . S
C551 C552 1.403 . S
C552 C551 1.403 . S
C552 C553 1.404 . S
C552 C555 1.539 . S
C553 C549 1.408 . S
C553 C552 1.404 . S
C553 H565 0.930 . S
C554 C550 1.524 . S
C554 H566 0.956 . S
C554 H567 0.961 . S
C554 H568 0.961 . S
C555 C552 1.539 . S
C555 H569 0.958 . S
C555 H570 0.961 . S
C555 H571 0.960 . S
H556 C540 0.931 . S
H557 C545 0.929 . S
H558 C546 0.960 . S
H559 C546 0.962 . S
H560 C546 0.960 . S
H561 C547 0.961 . S
H562 C547 0.961 . S
H563 C547 0.961 . S
H564 C548 0.931 . S
H565 C553 0.930 . S
H566 C554 0.956 . S
H567 C554 0.961 . S
H568 C554 0.961 . S
H569 C555 0.958 . S
H570 C555 0.961 . S
H571 C555 0.960 . S
C572 C573 1.391 . S
C572 C574 1.394 . S
C572 H588 0.931 . S
C573 C572 1.391 . S
C573 C577 1.376 . S
C574 C572 1.394 . S
C574 C575 1.369 . S
C574 C578 1.531 1_655 S
C575 C574 1.369 . S
C575 C576 1.410 . S
C575 C583 1.503 1_655 S
C576 C575 1.410 . S
C576 C577 1.392 . S
C576 C579 1.511 . S
C577 C573 1.376 . S
C577 C576 1.392 . S
C577 H589 0.929 . S
C578 C574 1.531 1_455 S
C578 H590 0.960 . S
C578 H591 0.962 . S
C578 H592 0.960 . S
C579 C576 1.511 . S
C579 H593 0.961 . S
C579 H594 0.961 . S
C579 H595 0.961 . S
C580 C581 1.370 . S
C580 C582 1.363 . S
C580 H596 0.931 . S
C581 C580 1.370 . S
C581 C585 1.408 . S
C582 C580 1.363 . S
C582 C583 1.370 . S
C582 C586 1.524 . S
C583 C575 1.503 1_455 S
C583 C582 1.370 . S
C583 C584 1.401 . S
C584 C583 1.401 . S
C584 C585 1.424 . S
C584 C587 1.520 1_455 S
C585 C581 1.408 . S
C585 C584 1.424 . S
C585 H597 0.930 . S
C586 C582 1.524 . S
C586 H598 0.956 . S
C586 H599 0.961 . S
C586 H600 0.961 . S
C587 C584 1.520 1_655 S
C587 H601 0.958 . S
C587 H602 0.961 . S
C587 H603 0.960 . S
H588 C572 0.931 . S
H589 C577 0.929 . S
H590 C578 0.960 . S
H591 C578 0.962 . S
H592 C578 0.960 . S
H593 C579 0.961 . S
H594 C579 0.961 . S
H595 C579 0.961 . S
H596 C580 0.931 . S
H597 C585 0.930 . S
H598 C586 0.956 . S
H599 C586 0.961 . S
H600 C586 0.961 . S
H601 C587 0.958 . S
H602 C587 0.961 . S
H603 C587 0.960 . S
C604 C605 1.391 . S
C604 C606 1.394 . S
C604 H620 0.931 . S
C605 C604 1.391 . S
C605 C609 1.376 . S
C606 C604 1.394 . S
C606 C607 1.369 . S
C606 C610 1.531 . S
C607 C606 1.369 . S
C607 C608 1.410 . S
C607 C615 1.503 1_564 S
C608 C607 1.410 . S
C608 C609 1.392 . S
C608 C611 1.511 . S
C609 C605 1.376 . S
C609 C608 1.392 . S
C609 H621 0.929 . S
C610 C606 1.531 . S
C610 H622 0.960 1_554 S
C610 H623 0.962 1_565 S
C610 H624 0.960 . S
C611 C608 1.511 . S
C611 H625 0.961 . S
C611 H626 0.961 1_554 S
C611 H627 0.961 1_554 S
C612 C613 1.370 . S
C612 C614 1.363 . S
C612 H628 0.931 . S
C613 C612 1.370 . S
C613 C617 1.408 . S
C614 C612 1.363 . S
C614 C615 1.370 . S
C614 C618 1.524 1_556 S
C615 C607 1.503 1_546 S
C615 C614 1.370 . S
C615 C616 1.403 1_545 S
C616 C615 1.403 1_565 S
C616 C617 1.404 1_565 S
C616 C619 1.539 . S
C617 C613 1.408 . S
C617 C616 1.404 1_545 S
C617 H629 0.930 . S
C618 C614 1.524 1_554 S
C618 H630 0.956 . S
C618 H631 0.961 . S
C618 H632 0.961 . S
C619 C616 1.539 . S
C619 H633 0.958 . S
C619 H634 0.961 . S
C619 H635 0.960 . S
H620 C604 0.931 . S
H621 C609 0.929 . S
H622 C610 0.960 1_556 S
H623 C610 0.962 1_545 S
H624 C610 0.960 . S
H625 C611 0.961 . S
H626 C611 0.961 1_556 S
H627 C611 0.961 1_556 S
H628 C612 0.931 . S
H629 C617 0.930 . S
H630 C618 0.956 . S
H631 C618 0.961 . S
H632 C618 0.961 . S
H633 C619 0.958 . S
H634 C619 0.961 . S
H635 C619 0.960 . S
C636 C637 1.391 . S
C636 C638 1.394 . S
C636 H652 0.931 . S
C637 C636 1.391 . S
C637 C641 1.376 . S
C638 C636 1.394 . S
C638 C639 1.369 . S
C638 C642 1.531 . S
C639 C638 1.369 . S
C639 C640 1.410 . S
C639 C647 1.503 . S
C640 C639 1.410 . S
C640 C641 1.392 . S
C640 C643 1.511 . S
C641 C637 1.376 . S
C641 C640 1.392 . S
C641 H653 0.929 . S
C642 C638 1.531 . S
C642 H654 0.960 . S
C642 H655 0.962 . S
C642 H656 0.960 . S
C643 C640 1.511 . S
C643 H657 0.961 . S
C643 H658 0.961 . S
C643 H659 0.961 . S
C644 C645 1.370 . S
C644 C646 1.363 . S
C644 H660 0.931 . S
C645 C644 1.370 . S
C645 C649 1.408 . S
C646 C644 1.363 . S
C646 C647 1.370 . S
C646 C650 1.524 . S
C647 C639 1.503 . S
C647 C646 1.370 . S
C647 C648 1.403 . S
C648 C647 1.403 . S
C648 C649 1.404 . S
C648 C651 1.539 . S
C649 C645 1.408 . S
C649 C648 1.404 . S
C649 H661 0.930 . S
C650 C646 1.524 . S
C650 H662 0.956 . S
C650 H663 0.961 . S
C650 H664 0.961 . S
C651 C648 1.539 . S
C651 H665 0.958 . S
C651 H666 0.961 . S
C651 H667 0.960 . S
H652 C636 0.931 . S
H653 C641 0.929 . S
H654 C642 0.960 . S
H655 C642 0.962 . S
H656 C642 0.960 . S
H657 C643 0.961 . S
H658 C643 0.961 . S
H659 C643 0.961 . S
H660 C644 0.931 . S
H661 C649 0.930 . S
H662 C650 0.956 . S
H663 C650 0.961 . S
H664 C650 0.961 . S
H665 C651 0.958 . S
H666 C651 0.961 . S
H667 C651 0.960 . S
C668 C669 1.391 . S
C668 C670 1.394 . S
C668 H684 0.931 . S
C669 C668 1.391 . S
C669 C673 1.376 . S
C670 C668 1.394 . S
C670 C671 1.369 . S
C670 C674 1.531 . S
C671 C670 1.369 . S
C671 C672 1.410 1_455 S
C671 C679 1.503 1_455 S
C672 C671 1.410 1_655 S
C672 C673 1.392 1_655 S
C672 C675 1.511 . S
C673 C669 1.376 . S
C673 C672 1.392 1_455 S
C673 H685 0.929 . S
C674 C670 1.531 . S
C674 H686 0.960 . S
C674 H687 0.962 . S
C674 H688 0.960 . S
C675 C672 1.511 . S
C675 H689 0.961 . S
C675 H690 0.961 . S
C675 H691 0.961 . S
C676 C677 1.370 . S
C676 C678 1.363 . S
C676 H692 0.931 . S
C677 C676 1.370 . S
C677 C681 1.408 . S
C678 C676 1.363 . S
C678 C679 1.370 . S
C678 C682 1.524 . S
C679 C671 1.503 1_655 S
C679 C678 1.370 . S
C679 C680 1.403 . S
C680 C679 1.403 . S
C680 C681 1.404 . S
C680 C683 1.539 . S
C681 C677 1.408 . S
C681 C680 1.404 . S
C681 H693 0.930 . S
C682 C678 1.524 . S
C682 H694 0.956 1_655 S
C682 H695 0.961 . S
C682 H696 0.961 . S
C683 C680 1.539 . S
C683 H697 0.958 1_655 S
C683 H698 0.961 . S
C683 H699 0.960 . S
H684 C668 0.931 . S
H685 C673 0.929 . S
H686 C674 0.960 . S
H687 C674 0.962 . S
H688 C674 0.960 . S
H689 C675 0.961 . S
H690 C675 0.961 . S
H691 C675 0.961 . S
H692 C676 0.931 . S
H693 C681 0.930 . S
H694 C682 0.956 1_455 S
H695 C682 0.961 . S
H696 C682 0.961 . S
H697 C683 0.958 1_455 S
H698 C683 0.961 . S
H699 C683 0.960 . S
C700 C701 1.391 . S
C700 C702 1.395 1_565 S
C700 H716 0.931 . S
C701 C700 1.391 . S
C701 C705 1.376 . S
C702 C700 1.395 1_545 S
C702 C703 1.370 1_545 S
C702 C706 1.528 . S
C703 C702 1.370 1_565 S
C703 C704 1.410 . S
C703 C711 1.503 1_565 S
C704 C703 1.410 . S
C704 C705 1.392 . S
C704 C707 1.511 . S
C705 C701 1.376 . S
C705 C704 1.392 . S
C705 H717 0.929 . S
C706 C702 1.528 . S
C706 H718 0.960 . S
C706 H719 0.962 . S
C706 H720 0.960 . S
C707 C704 1.511 . S
C707 H721 0.961 . S
C707 H722 0.961 . S
C707 H723 0.961 . S
C708 C709 1.370 . S
C708 C710 1.363 . S
C708 H724 0.931 . S
C709 C708 1.370 . S
C709 C713 1.408 . S
C710 C708 1.363 . S
C710 C711 1.370 . S
C710 C714 1.524 . S
C711 C703 1.503 1_545 S
C711 C710 1.370 . S
C711 C712 1.403 . S
C712 C711 1.403 . S
C712 C713 1.404 . S
C712 C715 1.539 . S
C713 C709 1.408 . S
C713 C712 1.404 . S
C713 H725 0.930 . S
C714 C710 1.524 . S
C714 H726 0.956 . S
C714 H727 0.961 1_545 S
C714 H728 0.961 . S
C715 C712 1.539 . S
C715 H729 0.958 . S
C715 H730 0.961 . S
C715 H731 0.960 1_545 S
H716 C700 0.931 . S
H717 C705 0.929 . S
H718 C706 0.960 . S
H719 C706 0.962 . S
H720 C706 0.960 . S
H721 C707 0.961 . S
H722 C707 0.961 . S
H723 C707 0.961 . S
H724 C708 0.931 . S
H725 C713 0.930 . S
H726 C714 0.956 . S
H727 C714 0.961 1_565 S
H728 C714 0.961 . S
H729 C715 0.958 . S
H730 C715 0.961 . S
H731 C715 0.960 1_565 S
C732 C733 1.391 . S
C732 C734 1.394 . S
C732 H748 0.931 . S
C733 C732 1.391 . S
C733 C737 1.376 . S
C734 C732 1.394 . S
C734 C735 1.369 . S
C734 C738 1.531 . S
C735 C734 1.369 . S
C735 C736 1.410 . S
C735 C743 1.503 . S
C736 C735 1.410 . S
C736 C737 1.392 . S
C736 C739 1.511 . S
C737 C733 1.376 . S
C737 C736 1.392 . S
C737 H749 0.929 . S
C738 C734 1.531 . S
C738 H750 0.960 . S
C738 H751 0.962 . S
C738 H752 0.960 . S
C739 C736 1.511 . S
C739 H753 0.961 . S
C739 H754 0.961 . S
C739 H755 0.961 . S
C740 C741 1.370 . S
C740 C742 1.363 . S
C740 H756 0.931 . S
C741 C740 1.370 . S
C741 C745 1.408 . S
C742 C740 1.363 . S
C742 C743 1.370 . S
C742 C746 1.524 . S
C743 C735 1.503 . S
C743 C742 1.370 . S
C743 C744 1.403 . S
C744 C743 1.403 . S
C744 C745 1.404 . S
C744 C747 1.539 . S
C745 C741 1.408 . S
C745 C744 1.404 . S
C745 H757 0.930 . S
C746 C742 1.524 . S
C746 H758 0.956 . S
C746 H759 0.961 . S
C746 H760 0.961 . S
C747 C744 1.539 . S
C747 H761 0.958 . S
C747 H762 0.961 . S
C747 H763 0.960 . S
H748 C732 0.931 . S
H749 C737 0.929 . S
H750 C738 0.960 . S
H751 C738 0.962 . S
H752 C738 0.960 . S
H753 C739 0.961 . S
H754 C739 0.961 . S
H755 C739 0.961 . S
H756 C740 0.931 . S
H757 C745 0.930 . S
H758 C746 0.956 . S
H759 C746 0.961 . S
H760 C746 0.961 . S
H761 C747 0.958 . S
H762 C747 0.961 . S
H763 C747 0.960 . S
C764 C765 1.391 . S
C764 C766 1.394 . S
C764 H780 0.931 . S
C765 C764 1.391 . S
C765 C769 1.376 . S
C766 C764 1.394 . S
C766 C767 1.369 . S
C766 C770 1.531 . S
C767 C766 1.369 . S
C767 C768 1.410 . S
C767 C775 1.503 . S
C768 C767 1.410 . S
C768 C769 1.392 . S
C768 C771 1.511 . S
C769 C765 1.376 . S
C769 C768 1.392 . S
C769 H781 0.929 . S
C770 C766 1.531 . S
C770 H782 0.960 . S
C770 H783 0.962 . S
C770 H784 0.960 . S
C771 C768 1.511 . S
C771 H785 0.961 . S
C771 H786 0.961 . S
C771 H787 0.961 . S
C772 C773 1.370 . S
C772 C774 1.363 . S
C772 H788 0.931 . S
C773 C772 1.370 . S
C773 C777 1.408 . S
C774 C772 1.363 . S
C774 C775 1.370 . S
C774 C778 1.524 . S
C775 C767 1.503 . S
C775 C774 1.370 . S
C775 C776 1.403 . S
C776 C775 1.403 . S
C776 C777 1.404 . S
C776 C779 1.539 . S
C777 C773 1.408 . S
C777 C776 1.404 . S
C777 H789 0.930 . S
C778 C774 1.524 . S
C778 H790 0.956 . S
C778 H791 0.961 . S
C778 H792 0.961 . S
C779 C776 1.539 . S
C779 H793 0.958 . S
C779 H794 0.961 . S
C779 H795 0.960 . S
H780 C764 0.931 . S
H781 C769 0.929 . S
H782 C770 0.960 . S
H783 C770 0.962 . S
H784 C770 0.960 . S
H785 C771 0.961 . S
H786 C771 0.961 . S
H787 C771 0.961 . S
H788 C772 0.931 . S
H789 C777 0.930 . S
H790 C778 0.956 . S
H791 C778 0.961 . S
H792 C778 0.961 . S
H793 C779 0.958 . S
H794 C779 0.961 . S
H795 C779 0.960 . S
C796 C797 1.391 1_556 S
C796 C798 1.394 . S
C796 H812 0.931 . S
C797 C796 1.391 1_554 S
C797 C801 1.376 1_554 S
C798 C796 1.394 . S
C798 C799 1.369 . S
C798 C802 1.531 . S
C799 C798 1.369 . S
C799 C800 1.410 . S
C799 C807 1.503 . S
C800 C799 1.410 . S
C800 C801 1.392 . S
C800 C803 1.511 . S
C801 C797 1.376 1_556 S
C801 C800 1.392 . S
C801 H813 0.929 1_556 S
C802 C798 1.531 . S
C802 H814 0.960 . S
C802 H815 0.962 . S
C802 H816 0.960 . S
C803 C800 1.511 . S
C803 H817 0.961 . S
C803 H818 0.961 . S
C803 H819 0.961 . S
C804 C805 1.370 . S
C804 C806 1.363 . S
C804 H820 0.931 . S
C805 C804 1.370 . S
C805 C809 1.408 . S
C806 C804 1.363 . S
C806 C807 1.370 . S
C806 C810 1.524 . S
C807 C799 1.503 . S
C807 C806 1.370 . S
C807 C808 1.403 . S
C808 C807 1.403 . S
C808 C809 1.404 . S
C808 C811 1.539 . S
C809 C805 1.408 . S
C809 C808 1.404 . S
C809 H821 0.930 . S
C810 C806 1.524 . S
C810 H822 0.956 . S
C810 H823 0.962 . S
C810 H824 0.961 . S
C811 C808 1.539 . S
C811 H825 0.958 . S
C811 H826 0.961 . S
C811 H827 0.960 . S
H812 C796 0.931 . S
H813 C801 0.929 1_554 S
H814 C802 0.960 . S
H815 C802 0.962 . S
H816 C802 0.960 . S
H817 C803 0.961 . S
H818 C803 0.961 . S
H819 C803 0.961 . S
H820 C804 0.931 . S
H821 C809 0.930 . S
H822 C810 0.956 . S
H823 C810 0.962 . S
H824 C810 0.961 . S
H825 C811 0.958 . S
H826 C811 0.961 . S
H827 C811 0.960 . S
C828 C829 1.391 . S
C828 C830 1.394 . S
C828 H844 0.931 . S
C829 C828 1.391 . S
C829 C833 1.376 . S
C830 C828 1.394 . S
C830 C831 1.369 . S
C830 C834 1.531 . S
C831 C830 1.369 . S
C831 C832 1.410 . S
C831 C839 1.503 . S
C832 C831 1.410 . S
C832 C833 1.392 . S
C832 C835 1.511 . S
C833 C829 1.376 . S
C833 C832 1.392 . S
C833 H845 0.929 . S
C834 C830 1.531 . S
C834 H846 0.960 1_554 S
C834 H847 0.962 . S
C834 H848 0.960 . S
C835 C832 1.511 . S
C835 H849 0.961 . S
C835 H850 0.961 . S
C835 H851 0.961 . S
C836 C837 1.370 1_554 S
C836 C838 1.363 . S
C836 H852 0.931 . S
C837 C836 1.370 1_556 S
C837 C841 1.408 . S
C838 C836 1.363 . S
C838 C839 1.370 . S
C838 C842 1.524 . S
C839 C831 1.503 . S
C839 C838 1.370 . S
C839 C840 1.403 . S
C840 C839 1.403 . S
C840 C841 1.404 1_554 S
C840 C843 1.539 . S
C841 C837 1.408 . S
C841 C840 1.404 1_556 S
C841 H853 0.930 . S
C842 C838 1.524 . S
C842 H854 0.956 . S
C842 H855 0.961 . S
C842 H856 0.961 . S
C843 C840 1.539 . S
C843 H857 0.958 . S
C843 H858 0.961 . S
C843 H859 0.960 . S
H844 C828 0.931 . S
H845 C833 0.929 . S
H846 C834 0.960 1_556 S
H847 C834 0.962 . S
H848 C834 0.960 . S
H849 C835 0.961 . S
H850 C835 0.961 . S
H851 C835 0.961 . S
H852 C836 0.931 . S
H853 C841 0.930 . S
H854 C842 0.956 . S
H855 C842 0.961 . S
H856 C842 0.961 . S
H857 C843 0.958 . S
H858 C843 0.961 . S
H859 C843 0.960 . S
C860 C861 1.391 . S
C860 C862 1.394 . S
C860 H876 0.931 . S
C861 C860 1.391 . S
C861 C865 1.376 . S
C862 C860 1.394 . S
C862 C863 1.369 . S
C862 C866 1.531 . S
C863 C862 1.369 . S
C863 C864 1.410 . S
C863 C871 1.503 . S
C864 C863 1.410 . S
C864 C865 1.392 . S
C864 C867 1.511 . S
C865 C861 1.376 . S
C865 C864 1.392 . S
C865 H877 0.929 . S
C866 C862 1.531 . S
C866 H878 0.960 . S
C866 H879 0.962 . S
C866 H880 0.960 . S
C867 C864 1.511 . S
C867 H881 0.961 . S
C867 H882 0.961 . S
C867 H883 0.961 . S
C868 C869 1.370 . S
C868 C870 1.363 . S
C868 H884 0.931 . S
C869 C868 1.370 . S
C869 C873 1.408 . S
C870 C868 1.363 . S
C870 C871 1.370 . S
C870 C874 1.524 . S
C871 C863 1.503 . S
C871 C870 1.370 . S
C871 C872 1.403 . S
C872 C871 1.403 . S
C872 C873 1.404 . S
C872 C875 1.539 . S
C873 C869 1.408 . S
C873 C872 1.404 . S
C873 H885 0.930 . S
C874 C870 1.524 . S
C874 H886 0.956 . S
C874 H887 0.961 . S
C874 H888 0.961 . S
C875 C872 1.539 . S
C875 H889 0.958 . S
C875 H890 0.961 . S
C875 H891 0.960 . S
H876 C860 0.931 . S
H877 C865 0.929 . S
H878 C866 0.960 . S
H879 C866 0.962 . S
H880 C866 0.960 . S
H881 C867 0.961 . S
H882 C867 0.961 . S
H883 C867 0.961 . S
H884 C868 0.931 . S
H885 C873 0.930 . S
H886 C874 0.956 . S
H887 C874 0.961 . S
H888 C874 0.961 . S
H889 C875 0.958 . S
H890 C875 0.961 . S
H891 C875 0.960 . S
C892 C893 1.391 . S
C892 C894 1.394 . S
C892 H908 0.931 . S
C893 C892 1.391 . S
C893 C897 1.376 . S
C894 C892 1.394 . S
C894 C895 1.369 . S
C894 C898 1.531 . S
C895 C894 1.369 . S
C895 C896 1.410 . S
C895 C903 1.503 . S
C896 C895 1.410 . S
C896 C897 1.392 . S
C896 C899 1.511 . S
C897 C893 1.376 . S
C897 C896 1.392 . S
C897 H909 0.929 . S
C898 C894 1.531 . S
C898 H910 0.960 . S
C898 H911 0.962 . S
C898 H912 0.960 . S
C899 C896 1.511 . S
C899 H913 0.961 . S
C899 H914 0.961 . S
C899 H915 0.961 . S
C900 C901 1.370 . S
C900 C902 1.363 . S
C900 H916 0.931 . S
C901 C900 1.370 . S
C901 C905 1.408 . S
C902 C900 1.363 . S
C902 C903 1.370 . S
C902 C906 1.524 . S
C903 C895 1.503 . S
C903 C902 1.370 . S
C903 C904 1.403 . S
C904 C903 1.403 . S
C904 C905 1.404 . S
C904 C907 1.539 . S
C905 C901 1.408 . S
C905 C904 1.404 . S
C905 H917 0.930 . S
C906 C902 1.524 . S
C906 H918 0.956 . S
C906 H919 0.961 . S
C906 H920 0.961 . S
C907 C904 1.539 . S
C907 H921 0.958 . S
C907 H922 0.961 . S
C907 H923 0.960 . S
H908 C892 0.931 . S
H909 C897 0.929 . S
H910 C898 0.960 . S
H911 C898 0.962 . S
H912 C898 0.960 . S
H913 C899 0.961 . S
H914 C899 0.961 . S
H915 C899 0.961 . S
H916 C900 0.931 . S
H917 C905 0.930 . S
H918 C906 0.956 . S
H919 C906 0.961 . S
H920 C906 0.961 . S
H921 C907 0.958 . S
H922 C907 0.961 . S
H923 C907 0.960 . S
C157 C122 1.358 . S
C165 C5 1.384 . S
C189 C18 1.393 . S
C197 C135 1.372 . S
C221 C148 1.352 . S
C229 C31 1.381 . S
C253 C83 1.374 . S
C261 C44 1.365 . S
C285 C96 1.351 . S
C293 C57 1.381 . S
C317 C109 1.398 . S
C325 C70 1.375 . S
C349 C88 1.462 . S
C357 C10 1.449 . S
C381 C23 1.450 . S
C389 C101 1.432 . S
C413 C114 1.464 . S
C421 C36 1.446 . S
C445 C49 1.440 . S
C453 C127 1.431 . S
C477 C140 1.463 . S
C485 C62 1.438 . S
C509 C75 1.413 . S
C517 C153 1.436 . S
C541 C125 0.961 . S
C549 C8 0.977 . S
C573 C138 1.005 . S
C581 C21 0.967 . S
C605 C151 1.006 . S
C613 C34 0.964 . S
C637 C47 0.988 . S
C645 C86 0.967 . S
C669 C99 0.965 . S
C677 C60 0.975 . S
C701 C73 0.989 . S
C709 C112 0.976 . S
C733 C0 1.301 . S
C741 C104 1.337 . S
C765 C117 1.349 . S
C773 C13 1.316 . S
C797 C130 1.305 . S
C805 C26 1.338 . S
C829 C143 1.344 . S
C837 C39 1.337 . S
C861 C78 1.288 . S
C869 C52 1.322 . S
C893 C91 1.339 . S
C901 C65 1.313 . S
