# Generated by pormake.
# Topology mok, (4)-cn, num edge types: 1
# Building blocks:
#     Node 0, Type 0, BuildingBlock: KUFVIS_clean_sbu_0, # of connection points: 4
#     Node 1, Type 0, BuildingBlock: KUFVIS_clean_sbu_0, # of connection points: 4
#     Node 2, Type 0, BuildingBlock: KUFVIS_clean_sbu_0, # of connection points: 4
#     Node 3, Type 0, BuildingBlock: KUFVIS_clean_sbu_0, # of connection points: 4
#     Node 4, Type 0, BuildingBlock: KUFVIS_clean_sbu_0, # of connection points: 4
#     Node 5, Type 0, BuildingBlock: KUFVIS_clean_sbu_0, # of connection points: 4
#     Node 6, Type 0, BuildingBlock: KUFVIS_clean_sbu_0, # of connection points: 4
#     Node 7, Type 0, BuildingBlock: KUFVIS_clean_sbu_0, # of connection points: 4
#     Edge 8, Type (0, 0), BuildingBlock: XUDNAN_clean_linker_2, # of connection points: 2
#     Edge 9, Type (0, 0), BuildingBlock: XUDNAN_clean_linker_2, # of connection points: 2
#     Edge 10, Type (0, 0), BuildingBlock: XUDNAN_clean_linker_2, # of connection points: 2
#     Edge 11, Type (0, 0), BuildingBlock: XUDNAN_clean_linker_2, # of connection points: 2
#     Edge 12, Type (0, 0), BuildingBlock: XUDNAN_clean_linker_2, # of connection points: 2
#     Edge 13, Type (0, 0), BuildingBlock: XUDNAN_clean_linker_2, # of connection points: 2
#     Edge 14, Type (0, 0), BuildingBlock: XUDNAN_clean_linker_2, # of connection points: 2
#     Edge 15, Type (0, 0), BuildingBlock: XUDNAN_clean_linker_2, # of connection points: 2
#     Edge 16, Type (0, 0), BuildingBlock: XUDNAN_clean_linker_2, # of connection points: 2
#     Edge 17, Type (0, 0), BuildingBlock: XUDNAN_clean_linker_2, # of connection points: 2
#     Edge 18, Type (0, 0), BuildingBlock: XUDNAN_clean_linker_2, # of connection points: 2
#     Edge 19, Type (0, 0), BuildingBlock: XUDNAN_clean_linker_2, # of connection points: 2
#     Edge 20, Type (0, 0), BuildingBlock: XUDNAN_clean_linker_2, # of connection points: 2
#     Edge 21, Type (0, 0), BuildingBlock: XUDNAN_clean_linker_2, # of connection points: 2
#     Edge 22, Type (0, 0), BuildingBlock: XUDNAN_clean_linker_2, # of connection points: 2
#     Edge 23, Type (0, 0), BuildingBlock: XUDNAN_clean_linker_2, # of connection points: 2
# Relax obj value: 0.032
# Max RMSD: 0.055
# Mean RMSD: 0.055
data_MOF--net-mok--node1-KUFVIS_clean_sbu_0--edge1-XUDNAN_clean_linker_2
_symmetry_space_group_name_H-M    P1
_symmetry_Int_Tables_number       1
_symmetry_cell_setting            triclinic
loop_
_symmetry_equiv_pos_as_xyz
'x, y, z'
_cell_length_a     52.88559
_cell_length_b     16.468979
_cell_length_c     26.291819
_cell_angle_alpha  89.950106
_cell_angle_beta   89.975864
_cell_angle_gamma 89.972434
loop_
_atom_site_label
_atom_site_type_symbol
_atom_site_fract_x
_atom_site_fract_y
_atom_site_fract_z
_atom_type_partial_charge
Mn0 Mn 0.6249 0.31369 0.00948 0.0
Mn1 Mn 0.57351 0.43354 0.99923 0.0
C2 C 0.61307 0.36147 0.92983 0.0
C3 C 0.66836 0.30263 0.0254 0.0
C4 C 0.57064 0.25087 0.01766 0.0
O5 O 0.61893 0.3537 0.08181 0.0
O6 O 0.58722 0.44343 0.06953 0.0
C7 C 0.59289 0.60031 0.01446 0.0
N8 N 0.5814 0.54416 0.98429 0.0
C9 C 0.56934 0.64667 0.92376 0.0
C10 C 0.58099 0.70568 0.95418 0.0
C11 C 0.59299 0.68226 0.99955 0.0
C12 C 0.57 0.56599 0.94041 0.0
H13 H 0.60152 0.58296 0.05008 0.0
C14 C 0.60405 0.40949 0.09745 0.0
O15 O 0.65335 0.24112 0.03211 0.0
O16 O 0.65819 0.36946 0.00933 0.0
N17 N 0.55918 0.42968 0.93278 0.0
C18 C 0.55008 0.36449 0.90672 0.0
C19 C 0.54094 0.37545 0.85718 0.0
C20 C 0.54053 0.45353 0.83579 0.0
C21 C 0.54895 0.52014 0.86421 0.0
C22 C 0.55892 0.50495 0.91243 0.0
H23 H 0.55044 0.30437 0.92307 0.0
O24 O 0.62722 0.29747 0.93462 0.0
O25 O 0.60626 0.39653 0.9722 0.0
O26 O 0.59422 0.23479 0.01389 0.0
O27 O 0.562 0.32286 0.0144 0.0
C28 C 0.54806 0.60084 0.84658 0.0
C29 C 0.55738 0.66448 0.87721 0.0
H30 H 0.58098 0.76898 0.94293 0.0
H31 H 0.60199 0.72743 0.0233 0.0
H32 H 0.5341 0.32403 0.8356 0.0
H33 H 0.5332 0.46154 0.79792 0.0
H34 H 0.5405 0.61471 0.8093 0.0
H35 H 0.55648 0.72636 0.86333 0.0
Mn36 Mn 0.40067 0.70149 1.00272 0.0
Mn37 Mn 0.45641 0.60309 0.99375 0.0
C38 C 0.4151 0.66143 0.92376 0.0
C39 C 0.35697 0.69953 0.01588 0.0
C40 C 0.45254 0.78488 0.01096 0.0
O41 O 0.40676 0.66155 0.07443 0.0
O42 O 0.44316 0.5917 0.06489 0.0
C43 C 0.44127 0.43251 0.01235 0.0
N44 N 0.45134 0.49006 0.98106 0.0
C45 C 0.46293 0.38915 0.9193 0.0
C46 C 0.45279 0.32876 0.95089 0.0
C47 C 0.44179 0.35063 0.99752 0.0
C48 C 0.46186 0.46969 0.93604 0.0
H49 H 0.43312 0.44869 0.04861 0.0
C50 C 0.42411 0.61511 0.09139 0.0
O51 O 0.37016 0.76456 0.02454 0.0
O52 O 0.36913 0.63622 0.99968 0.0
N53 N 0.47036 0.60758 0.92677 0.0
C54 C 0.47838 0.6735 0.89988 0.0
C55 C 0.48723 0.66306 0.85001 0.0
C56 C 0.48816 0.58496 0.82876 0.0
C57 C 0.48058 0.51779 0.85778 0.0
C58 C 0.47139 0.53211 0.9068 0.0
H59 H 0.47747 0.73375 0.91589 0.0
O60 O 0.39892 0.72031 0.92833 0.0
O61 O 0.42256 0.6273 0.96605 0.0
O62 O 0.42842 0.78836 0.01008 0.0
O63 O 0.46474 0.71855 0.00607 0.0
C64 C 0.48168 0.43722 0.84005 0.0
C65 C 0.47371 0.37271 0.87148 0.0
H66 H 0.45318 0.26555 0.93956 0.0
H67 H 0.4339 0.30443 0.02214 0.0
H68 H 0.49333 0.71502 0.82799 0.0
H69 H 0.4952 0.57743 0.79047 0.0
H70 H 0.48868 0.4238 0.80233 0.0
H71 H 0.47489 0.31098 0.85749 0.0
Mn72 Mn 0.62943 0.72889 0.5307 0.0
Mn73 Mn 0.57695 0.61054 0.53056 0.0
C74 C 0.61977 0.65364 0.60307 0.0
C75 C 0.67221 0.7558 0.51295 0.0
C76 C 0.57539 0.79446 0.53717 0.0
O77 O 0.62157 0.71312 0.45533 0.0
O78 O 0.5893 0.6236 0.45954 0.0
C79 C 0.59622 0.4521 0.49379 0.0
N80 N 0.58395 0.49671 0.52974 0.0
C81 C 0.57264 0.37633 0.57657 0.0
C82 C 0.58512 0.32907 0.53998 0.0
C83 C 0.59702 0.36716 0.49853 0.0
C84 C 0.57226 0.4606 0.56957 0.0
H85 H 0.6052 0.48111 0.46165 0.0
C86 C 0.6059 0.66406 0.43464 0.0
O87 O 0.65527 0.81245 0.51511 0.0
O88 O 0.66435 0.68194 0.52063 0.0
N89 N 0.56346 0.59179 0.59693 0.0
C90 C 0.55496 0.64667 0.63164 0.0
C91 C 0.54414 0.61916 0.67718 0.0
C92 C 0.54205 0.53554 0.68628 0.0
C93 C 0.55093 0.48003 0.65008 0.0
C94 C 0.56156 0.51114 0.6054 0.0
H95 H 0.55649 0.71077 0.62463 0.0
O96 O 0.63365 0.71862 0.60583 0.0
O97 O 0.61133 0.63501 0.55781 0.0
O98 O 0.59911 0.80563 0.54026 0.0
O99 O 0.56549 0.72475 0.53164 0.0
C100 C 0.55034 0.39525 0.65719 0.0
C101 C 0.56115 0.34339 0.62038 0.0
H102 H 0.58592 0.26359 0.54364 0.0
H103 H 0.60674 0.33107 0.47022 0.0
H104 H 0.53735 0.66222 0.70511 0.0
H105 H 0.5337 0.51481 0.72129 0.0
H106 H 0.54211 0.36944 0.69131 0.0
H107 H 0.56104 0.2784 0.62672 0.0
Mn108 Mn 0.39431 0.29973 0.52542 0.0
Mn109 Mn 0.44808 0.41162 0.52667 0.0
C110 C 0.40459 0.37233 0.59803 0.0
C111 C 0.35122 0.27877 0.5071 0.0
C112 C 0.44753 0.22783 0.53169 0.0
O113 O 0.40297 0.31542 0.45026 0.0
O114 O 0.4359 0.40252 0.45536 0.0
C115 C 0.43093 0.57369 0.49203 0.0
N116 N 0.44231 0.5261 0.52769 0.0
C117 C 0.45395 0.64283 0.57754 0.0
C118 C 0.44239 0.69312 0.5413 0.0
C119 C 0.43078 0.65837 0.49844 0.0
C120 C 0.45378 0.55898 0.56881 0.0
H121 H 0.42215 0.54721 0.45887 0.0
C122 C 0.41919 0.36333 0.42998 0.0
O123 O 0.36744 0.21992 0.50895 0.0
O124 O 0.36001 0.35139 0.51511 0.0
N125 N 0.46133 0.42563 0.59372 0.0
C126 C 0.46878 0.36814 0.62786 0.0
C127 C 0.47878 0.39234 0.67487 0.0
C128 C 0.48118 0.47525 0.68601 0.0
C129 C 0.4736 0.53337 0.65019 0.0
C130 C 0.46363 0.50562 0.60408 0.0
H131 H 0.46689 0.30439 0.6195 0.0
O132 O 0.38979 0.30944 0.6005 0.0
O133 O 0.41338 0.39042 0.55299 0.0
O134 O 0.42371 0.2196 0.53561 0.0
O135 O 0.45823 0.29624 0.5258 0.0
C136 C 0.47467 0.61764 0.65915 0.0
C137 C 0.46498 0.67238 0.62271 0.0
H138 H 0.44204 0.7584 0.54628 0.0
H139 H 0.42176 0.6968 0.47039 0.0
H140 H 0.48456 0.34726 0.7025 0.0
H141 H 0.48861 0.49355 0.7224 0.0
H142 H 0.4824 0.64087 0.69441 0.0
H143 H 0.46546 0.73695 0.63045 0.0
Mn144 Mn 0.12904 0.7796 0.01158 0.0
Mn145 Mn 0.07614 0.89419 0.00451 0.0
C146 C 0.11707 0.83276 0.93392 0.0
C147 C 0.17204 0.75798 0.02761 0.0
C148 C 0.07535 0.71145 0.01467 0.0
O149 O 0.1224 0.81248 0.08491 0.0
O150 O 0.08943 0.89839 0.07526 0.0
C151 C 0.0945 0.06058 0.02552 0.0
N152 N 0.083 0.00671 0.9938 0.0
C153 C 0.06935 0.114 0.93802 0.0
C154 C 0.08107 0.17072 0.97002 0.0
C155 C 0.09389 0.14378 0.01371 0.0
C156 C 0.07098 0.0319 0.95125 0.0
H157 H 0.10371 0.04032 0.05993 0.0
C158 C 0.10661 0.86427 0.10222 0.0
O159 O 0.1553 0.70128 0.0327 0.0
O160 O 0.1638 0.82933 0.01421 0.0
N161 N 0.06192 0.89555 0.93786 0.0
C162 C 0.05328 0.83237 0.90935 0.0
C163 C 0.04337 0.84751 0.86086 0.0
C164 C 0.04146 0.92763 0.8432 0.0
C165 C 0.04926 0.99205 0.87435 0.0
C166 C 0.06031 0.97279 0.92107 0.0
H167 H 0.0546 0.77081 0.92287 0.0
O168 O 0.13184 0.76984 0.93679 0.0
O169 O 0.1099 0.86465 0.97709 0.0
O170 O 0.09906 0.70101 0.01088 0.0
O171 O 0.06505 0.7811 0.01513 0.0
C172 C 0.04674 0.07442 0.86087 0.0
C173 C 0.05628 0.13552 0.89327 0.0
H174 H 0.08044 0.23498 0.96129 0.0
H175 H 0.10294 0.18718 0.03865 0.0
H176 H 0.03712 0.79765 0.83722 0.0
H177 H 0.03391 0.93848 0.80573 0.0
H178 H 0.03802 0.09154 0.82518 0.0
H179 H 0.05449 0.19863 0.8822 0.0
Mn180 Mn 0.8952 0.20531 0.01637 0.0
Mn181 Mn 0.94834 0.09493 0.99767 0.0
C182 C 0.90509 0.15664 0.9354 0.0
C183 C 0.85245 0.22488 0.03704 0.0
C184 C 0.94866 0.27751 0.00534 0.0
O185 O 0.9039 0.16979 0.08882 0.0
O186 O 0.93993 0.10346 0.07056 0.0
C187 C 0.92986 0.93506 0.03376 0.0
N188 N 0.94082 0.98152 0.997 0.0
C189 C 0.95433 0.86322 0.95078 0.0
C190 C 0.94306 0.81392 0.98795 0.0
C191 C 0.93051 0.85006 0.0293 0.0
C192 C 0.95209 0.94741 0.95616 0.0
H193 H 0.92112 0.96264 0.06662 0.0
C194 C 0.92348 0.12982 0.10203 0.0
O195 O 0.86922 0.28152 0.04191 0.0
O196 O 0.86053 0.15467 0.02121 0.0
N197 N 0.95959 0.07984 0.92971 0.0
C198 C 0.96928 0.1363 0.89739 0.0
C199 C 0.9822 0.11114 0.85384 0.0
C200 C 0.9858 0.02812 0.84509 0.0
C201 C 0.9757 0.97063 0.87881 0.0
C202 C 0.96225 0.99963 0.92072 0.0
H203 H 0.96744 0.19986 0.90524 0.0
O204 O 0.89049 0.21923 0.94176 0.0
O205 O 0.91346 0.12217 0.97679 0.0
O206 O 0.92522 0.2857 0.01514 0.0
O207 O 0.95902 0.20921 0.99677 0.0
C208 C 0.97901 0.88611 0.87348 0.0
C209 C 0.96817 0.83236 0.90923 0.0
H210 H 0.94412 0.74836 0.98534 0.0
H211 H 0.92191 0.81245 0.05832 0.0
H212 H 0.99018 0.1556 0.82811 0.0
H213 H 0.99713 0.01022 0.81316 0.0
H214 H 0.98934 0.86161 0.84143 0.0
H215 H 0.97053 0.76751 0.90431 0.0
Mn216 Mn 0.12285 0.19425 0.5334 0.0
Mn217 Mn 0.0717 0.07145 0.53714 0.0
C218 C 0.11321 0.12673 0.60865 0.0
C219 C 0.16637 0.20696 0.51561 0.0
C220 C 0.0686 0.25641 0.53114 0.0
O221 O 0.11535 0.16932 0.45904 0.0
O222 O 0.08549 0.07156 0.46668 0.0
C223 C 0.09057 0.9064 0.5135 0.0
N224 N 0.07863 0.95842 0.54581 0.0
C225 C 0.06737 0.84894 0.60228 0.0
C226 C 0.07963 0.79426 0.56968 0.0
C227 C 0.09129 0.82313 0.52515 0.0
C228 C 0.06695 0.93103 0.58834 0.0
H229 H 0.09935 0.92828 0.47901 0.0
C230 C 0.10137 0.11322 0.44054 0.0
O231 O 0.15156 0.26997 0.51499 0.0
O232 O 0.15594 0.13806 0.52647 0.0
N233 N 0.05746 0.06664 0.60392 0.0
C234 C 0.04891 0.12846 0.63375 0.0
C235 C 0.03865 0.11089 0.6817 0.0
C236 C 0.03708 0.03003 0.69825 0.0
C237 C 0.04593 0.96734 0.66689 0.0
C238 C 0.05615 0.98863 0.61961 0.0
H239 H 0.05008 0.19075 0.62125 0.0
O240 O 0.12674 0.19254 0.60914 0.0
O241 O 0.10496 0.10404 0.56418 0.0
O242 O 0.09202 0.27329 0.53743 0.0
O243 O 0.06064 0.18375 0.52825 0.0
C244 C 0.04563 0.88488 0.6812 0.0
C245 C 0.05619 0.82564 0.64875 0.0
H246 H 0.08043 0.73011 0.57871 0.0
H247 H 0.10077 0.78124 0.49981 0.0
H248 H 0.03186 0.15948 0.7058 0.0
H249 H 0.02903 0.01708 0.73511 0.0
H250 H 0.0377 0.8665 0.71741 0.0
H251 H 0.05621 0.7626 0.66053 0.0
Mn252 Mn 0.90012 0.81702 0.52684 0.0
Mn253 Mn 0.95697 0.90526 0.5466 0.0
C254 C 0.90989 0.87101 0.60624 0.0
C255 C 0.85715 0.82211 0.50477 0.0
C256 C 0.95031 0.72369 0.53435 0.0
O257 O 0.91199 0.84596 0.45472 0.0
O258 O 0.94819 0.91304 0.47366 0.0
C259 C 0.94779 0.07812 0.52141 0.0
N260 N 0.9545 0.02004 0.55577 0.0
C261 C 0.96366 0.12088 0.6193 0.0
C262 C 0.95688 0.18184 0.58461 0.0
C263 C 0.94895 0.16033 0.53543 0.0
C264 C 0.96271 0.04015 0.60279 0.0
H265 H 0.94173 0.06183 0.48355 0.0
C266 C 0.93138 0.88822 0.4421 0.0
O267 O 0.86996 0.75507 0.50204 0.0
O268 O 0.86949 0.88662 0.51836 0.0
N269 N 0.96642 0.90108 0.61639 0.0
C270 C 0.97046 0.83445 0.64602 0.0
C271 C 0.97664 0.84472 0.69732 0.0
C272 C 0.97858 0.92317 0.71743 0.0
C273 C 0.97456 0.99107 0.68617 0.0
C274 C 0.96856 0.97699 0.63521 0.0
H275 H 0.96859 0.7739 0.63088 0.0
O276 O 0.89338 0.81307 0.60208 0.0
O277 O 0.92099 0.89252 0.56419 0.0
O278 O 0.92621 0.72415 0.53166 0.0
O279 O 0.96327 0.78831 0.53836 0.0
C280 C 0.97561 0.0719 0.70364 0.0
C281 C 0.97052 0.13678 0.67009 0.0
H282 H 0.95744 0.24525 0.59547 0.0
H283 H 0.94368 0.20703 0.50845 0.0
H284 H 0.97965 0.79236 0.72147 0.0
H285 H 0.98283 0.92953 0.75706 0.0
H286 H 0.9802 0.0851 0.74275 0.0
H287 H 0.9713 0.19855 0.68412 0.0
H288 H 0.81022 0.12848 0.01842 0.0
H289 H 0.83325 0.36422 0.0761 0.0
H290 H 0.78876 0.40435 0.0844 0.0
H291 H 0.75916 0.19807 0.94428 0.0
H292 H 0.73824 0.11449 0.95801 0.0
H293 H 0.77196 0.09986 0.9604 0.0
H294 H 0.76837 0.04767 0.05304 0.0
H295 H 0.73457 0.06176 0.05085 0.0
H296 H 0.7529 0.10969 0.10019 0.0
H297 H 0.74284 0.42625 0.07788 0.0
H298 H 0.6969 0.42499 0.06229 0.0
H299 H 0.70156 0.17404 0.01312 0.0
C300 C 0.80583 0.18786 0.03372 0.0
C301 C 0.82534 0.24313 0.04659 0.0
C302 C 0.81878 0.32067 0.06591 0.0
C303 C 0.79349 0.34419 0.07087 0.0
C304 C 0.77477 0.28936 0.05687 0.0
C305 C 0.78046 0.21243 0.03927 0.0
C306 C 0.7564 0.16701 0.02522 0.0
C307 C 0.75645 0.1435 0.96861 0.0
C308 C 0.75285 0.09208 0.05937 0.0
C309 C 0.73652 0.23137 0.03643 0.0
C310 C 0.74769 0.30135 0.05467 0.0
C311 C 0.73378 0.3714 0.06449 0.0
C312 C 0.70772 0.37023 0.0553 0.0
C313 C 0.6957 0.29931 0.03705 0.0
C314 C 0.71025 0.22856 0.02807 0.0
H315 H 0.21361 0.85978 0.0167 0.0
H316 H 0.19212 0.61163 0.05254 0.0
H317 H 0.23686 0.57288 0.05715 0.0
H318 H 0.26574 0.81127 0.93764 0.0
H319 H 0.28578 0.89266 0.95937 0.0
H320 H 0.25192 0.90369 0.9617 0.0
H321 H 0.25432 0.93472 0.05813 0.0
H322 H 0.28823 0.92411 0.05605 0.0
H323 H 0.26994 0.86393 0.09998 0.0
H324 H 0.28311 0.55649 0.05051 0.0
H325 H 0.32926 0.566 0.03866 0.0
H326 H 0.32243 0.82503 0.0115 0.0
C327 C 0.21837 0.79765 0.02622 0.0
C328 C 0.19926 0.73882 0.03421 0.0
C329 C 0.2063 0.65798 0.04626 0.0
C330 C 0.23173 0.63517 0.049 0.0
C331 C 0.25007 0.69393 0.04014 0.0
C332 C 0.24386 0.77372 0.02957 0.0
C333 C 0.26757 0.82391 0.0206 0.0
C334 C 0.26775 0.85999 0.96662 0.0
C335 C 0.27016 0.89062 0.06111 0.0
C336 C 0.28788 0.75932 0.0268 0.0
C337 C 0.27723 0.68482 0.03795 0.0
C338 C 0.29176 0.61466 0.04253 0.0
C339 C 0.31793 0.62059 0.03551 0.0
C340 C 0.32939 0.69623 0.0246 0.0
C341 C 0.31417 0.76667 0.02066 0.0
H342 H 0.82313 0.69552 0.51009 0.0
H343 H 0.8284 0.95477 0.48253 0.0
H344 H 0.78191 0.96266 0.47578 0.0
H345 H 0.76822 0.65564 0.42695 0.0
H346 H 0.75443 0.58339 0.47038 0.0
H347 H 0.78827 0.59603 0.46799 0.0
H348 H 0.78888 0.62564 0.56469 0.0
H349 H 0.75507 0.61343 0.56735 0.0
H350 H 0.76938 0.70604 0.58977 0.0
H351 H 0.73526 0.94499 0.47701 0.0
H352 H 0.6909 0.9042 0.48793 0.0
H353 H 0.71463 0.65604 0.51723 0.0
C354 C 0.81449 0.75358 0.50154 0.0
C355 C 0.82942 0.82453 0.49625 0.0
C356 C 0.81738 0.89968 0.48644 0.0
C357 C 0.79098 0.90471 0.48245 0.0
C358 C 0.77678 0.83409 0.4887 0.0
C359 C 0.78803 0.75986 0.49809 0.0
C360 C 0.76816 0.69448 0.5067 0.0
C361 C 0.76988 0.62848 0.46554 0.0
C362 C 0.77052 0.65776 0.56031 0.0
C363 C 0.74403 0.74385 0.50131 0.0
C364 C 0.74956 0.82406 0.49045 0.0
C365 C 0.73068 0.88228 0.48519 0.0
C366 C 0.70547 0.85836 0.49159 0.0
C367 C 0.69915 0.77681 0.5034 0.0
C368 C 0.71878 0.71865 0.50784 0.0
H369 H 0.20009 0.33499 0.52942 0.0
H370 H 0.19485 0.08599 0.47657 0.0
H371 H 0.24082 0.08315 0.46244 0.0
H372 H 0.25219 0.39879 0.44318 0.0
H373 H 0.26749 0.45972 0.49104 0.0
H374 H 0.23366 0.44641 0.4924 0.0
H375 H 0.23656 0.39261 0.58476 0.0
H376 H 0.27036 0.40561 0.58364 0.0
H377 H 0.257 0.30781 0.59869 0.0
H378 H 0.28696 0.10164 0.45932 0.0
H379 H 0.33161 0.13964 0.46892 0.0
H380 H 0.30918 0.37688 0.52508 0.0
C381 C 0.20864 0.28063 0.5139 0.0
C382 C 0.19382 0.21076 0.50377 0.0
C383 C 0.20576 0.14014 0.48462 0.0
C384 C 0.23189 0.138 0.47626 0.0
C385 C 0.24605 0.20691 0.48742 0.0
C386 C 0.235 0.27705 0.50586 0.0
C387 C 0.25517 0.34028 0.51787 0.0
C388 C 0.25193 0.41579 0.4841 0.0
C389 C 0.25474 0.36288 0.57461 0.0
C390 C 0.27915 0.29396 0.50413 0.0
C391 C 0.27324 0.21746 0.48618 0.0
C392 C 0.29185 0.16162 0.4729 0.0
C393 C 0.31723 0.18384 0.47863 0.0
C394 C 0.32402 0.26134 0.49758 0.0
C395 C 0.30463 0.3176 0.50987 0.0
H396 H 0.56917 0.45694 0.16936 0.0
H397 H 0.64967 0.44407 0.13877 0.0
H398 H 0.65834 0.51883 0.2183 0.0
H399 H 0.56748 0.65369 0.22718 0.0
H400 H 0.54507 0.62642 0.27597 0.0
H401 H 0.54477 0.57412 0.21582 0.0
H402 H 0.5498 0.43605 0.26183 0.0
H403 H 0.54965 0.48775 0.32213 0.0
H404 H 0.5756 0.42173 0.30578 0.0
H405 H 0.6582 0.60202 0.29788 0.0
H406 H 0.6502 0.66361 0.38185 0.0
H407 H 0.57015 0.61118 0.36611 0.0
C408 C 0.58859 0.46942 0.1798 0.0
C409 C 0.60879 0.44495 0.14809 0.0
C410 C 0.63398 0.46171 0.16288 0.0
C411 C 0.63906 0.50486 0.20765 0.0
C412 C 0.61876 0.52939 0.23773 0.0
C413 C 0.59407 0.51037 0.22527 0.0
C414 C 0.57592 0.53911 0.26624 0.0
C415 C 0.55721 0.60209 0.24501 0.0
C416 C 0.56193 0.46685 0.29043 0.0
C417 C 0.5943 0.57769 0.30337 0.0
C418 C 0.61883 0.573 0.28552 0.0
C419 C 0.6391 0.60557 0.3125 0.0
C420 C 0.63432 0.64122 0.35995 0.0
C421 C 0.60956 0.64247 0.38047 0.0
C422 C 0.58927 0.61137 0.3513 0.0
H423 H 0.45867 0.57422 0.16659 0.0
H424 H 0.37897 0.56517 0.12764 0.0
H425 H 0.37018 0.48856 0.20608 0.0
H426 H 0.46338 0.37695 0.22678 0.0
H427 H 0.48369 0.41081 0.27755 0.0
H428 H 0.48449 0.46141 0.21679 0.0
H429 H 0.47509 0.59902 0.26038 0.0
H430 H 0.47463 0.54903 0.32129 0.0
H431 H 0.4478 0.60837 0.30109 0.0
H432 H 0.3698 0.40937 0.28638 0.0
H433 H 0.37648 0.3533 0.37225 0.0
H434 H 0.45562 0.42271 0.36476 0.0
C435 C 0.43941 0.55617 0.17484 0.0
C436 C 0.41949 0.57565 0.14109 0.0
C437 C 0.39448 0.55164 0.15322 0.0
C438 C 0.38931 0.50732 0.19741 0.0
C439 C 0.40929 0.48844 0.22971 0.0
C440 C 0.43375 0.51359 0.21981 0.0
C441 C 0.45127 0.49025 0.2632 0.0
C442 C 0.47193 0.43134 0.24497 0.0
C443 C 0.46287 0.5662 0.28796 0.0
C444 C 0.43275 0.44831 0.29878 0.0
C445 C 0.40878 0.4464 0.27801 0.0
C446 C 0.38846 0.41068 0.30325 0.0
C447 C 0.39249 0.37838 0.35189 0.0
C448 C 0.41655 0.38345 0.37528 0.0
C449 C 0.43701 0.41774 0.34784 0.0
H450 H 0.40947 0.50261 0.89222 0.0
H451 H 0.42722 0.74526 0.83923 0.0
H452 H 0.42523 0.6977 0.75026 0.0
H453 H 0.44123 0.37649 0.7905 0.0
H454 H 0.41488 0.30857 0.79119 0.0
H455 H 0.42252 0.36335 0.84814 0.0
H456 H 0.37518 0.41105 0.84574 0.0
H457 H 0.37034 0.36279 0.78501 0.0
H458 H 0.36441 0.46988 0.7921 0.0
H459 H 0.41324 0.63079 0.66816 0.0
H460 H 0.4053 0.53767 0.59613 0.0
H461 H 0.40191 0.33432 0.69971 0.0
C462 C 0.41401 0.54459 0.86184 0.0
C463 C 0.41934 0.62718 0.87246 0.0
C464 C 0.42365 0.6816 0.83175 0.0
C465 C 0.42236 0.65529 0.78119 0.0
C466 C 0.41634 0.5744 0.77182 0.0
C467 C 0.41277 0.51904 0.8108 0.0
C468 C 0.40464 0.43712 0.78942 0.0
C469 C 0.42196 0.36747 0.80604 0.0
C470 C 0.37701 0.41918 0.80393 0.0
C471 C 0.40698 0.45324 0.73286 0.0
C472 C 0.41205 0.53408 0.72369 0.0
C473 C 0.41119 0.56627 0.67476 0.0
C474 C 0.40731 0.51291 0.63398 0.0
C475 C 0.40636 0.42815 0.64197 0.0
C476 C 0.40471 0.39838 0.6923 0.0
H477 H 0.62125 0.51944 0.89739 0.0
H478 H 0.59941 0.27977 0.84554 0.0
H479 H 0.6005 0.32757 0.75651 0.0
H480 H 0.58984 0.65229 0.79893 0.0
H481 H 0.61735 0.71507 0.79847 0.0
H482 H 0.60982 0.65949 0.85525 0.0
H483 H 0.65661 0.6053 0.84663 0.0
H484 H 0.66033 0.65376 0.78556 0.0
H485 H 0.66479 0.54576 0.79151 0.0
H486 H 0.61128 0.3944 0.67317 0.0
H487 H 0.61861 0.48794 0.60094 0.0
H488 H 0.6256 0.68934 0.70469 0.0
C489 C 0.61577 0.47821 0.8673 0.0
C490 C 0.60942 0.3964 0.87834 0.0
C491 C 0.60383 0.34284 0.83785 0.0
C492 C 0.60457 0.36928 0.78722 0.0
C493 C 0.61139 0.44941 0.77741 0.0
C494 C 0.61647 0.50388 0.81614 0.0
C495 C 0.62511 0.58493 0.79407 0.0
C496 C 0.60949 0.657 0.8131 0.0
C497 C 0.65338 0.59819 0.8051 0.0
C498 C 0.62081 0.57019 0.73781 0.0
C499 C 0.61475 0.49001 0.72894 0.0
C500 C 0.61395 0.45865 0.67982 0.0
C501 C 0.61726 0.51236 0.63891 0.0
C502 C 0.61882 0.59696 0.64698 0.0
C503 C 0.62214 0.62566 0.69726 0.0
H504 H 0.07038 0.90806 0.17198 0.0
H505 H 0.15147 0.89199 0.14894 0.0
H506 H 0.15858 0.96105 0.23101 0.0
H507 H 0.06846 0.10098 0.23216 0.0
H508 H 0.04465 0.07398 0.27825 0.0
H509 H 0.04557 0.0233 0.21761 0.0
H510 H 0.04859 0.88364 0.26263 0.0
H511 H 0.04719 0.93391 0.32338 0.0
H512 H 0.07311 0.86658 0.30907 0.0
H513 H 0.15689 0.04194 0.31115 0.0
H514 H 0.147 0.1058 0.39369 0.0
H515 H 0.06721 0.05763 0.36989 0.0
C516 C 0.08959 0.91828 0.18468 0.0
C517 C 0.1104 0.89484 0.15433 0.0
C518 C 0.1353 0.9088 0.17198 0.0
C519 C 0.13952 0.94866 0.21824 0.0
C520 C 0.11863 0.97258 0.24681 0.0
C521 C 0.09416 0.95598 0.23154 0.0
C522 C 0.07516 0.98484 0.2708 0.0
C523 C 0.05742 0.04963 0.24834 0.0
C524 C 0.06014 0.91295 0.29278 0.0
C525 C 0.0928 0.02113 0.31013 0.0
C526 C 0.11774 0.01484 0.29492 0.0
C527 C 0.13747 0.04647 0.32381 0.0
C528 C 0.13165 0.08333 0.37034 0.0
C529 C 0.10637 0.08668 0.38795 0.0
C530 C 0.08669 0.05578 0.35721 0.0
H531 H 0.89425 0.91943 0.37052 0.0
H532 H 0.9755 0.92386 0.39474 0.0
H533 H 0.98129 0.99329 0.31285 0.0
H534 H 0.89736 0.88604 0.23184 0.0
H535 H 0.87047 0.95019 0.2191 0.0
H536 H 0.87268 0.89659 0.2787 0.0
H537 H 0.86764 0.03293 0.3267 0.0
H538 H 0.86602 0.08716 0.26723 0.0
H539 H 0.88942 0.11465 0.31397 0.0
H540 H 0.97879 0.06751 0.23238 0.0
H541 H 0.96855 0.12862 0.14953 0.0
H542 H 0.88891 0.07852 0.17418 0.0
C543 C 0.91326 0.93333 0.3579 0.0
C544 C 0.93444 0.91623 0.38903 0.0
C545 C 0.959 0.9366 0.37164 0.0
C546 C 0.9625 0.97638 0.32527 0.0
C547 C 0.94126 0.99539 0.29651 0.0
C548 C 0.91714 0.97355 0.3114 0.0
C549 C 0.89772 1.00208 0.27271 0.0
C550 C 0.88374 0.92939 0.24919 0.0
C551 C 0.8791 0.06282 0.2966 0.0
C552 C 0.91478 0.04343 0.23406 0.0
C553 C 0.93978 0.03904 0.24909 0.0
C554 C 0.9593 0.07124 0.22001 0.0
C555 C 0.95328 0.10617 0.17318 0.0
C556 C 0.92796 0.10872 0.15575 0.0
C557 C 0.90834 0.07876 0.18714 0.0
H558 H 0.90513 0.82973 0.7078 0.0
H559 H 0.90923 0.03534 0.60547 0.0
H560 H 0.91097 0.12873 0.67865 0.0
H561 H 0.86193 0.94514 0.79696 0.0
H562 H 0.87392 0.89164 0.85172 0.0
H563 H 0.87289 0.842 0.79067 0.0
H564 H 0.91983 0.81016 0.79953 0.0
H565 H 0.92251 0.86501 0.85844 0.0
H566 H 0.94223 0.8916 0.80445 0.0
H567 H 0.91575 0.1986 0.762 0.0
H568 H 0.9144 0.24523 0.85119 0.0
H569 H 0.90321 0.99721 0.90184 0.0
C570 C 0.9066 0.89442 0.70106 0.0
C571 C 0.90931 0.92526 0.65114 0.0
C572 C 0.9093 0.0103 0.64355 0.0
C573 C 0.90988 0.06387 0.68486 0.0
C574 C 0.90907 0.03154 0.73372 0.0
C575 C 0.90613 0.94928 0.74206 0.0
C576 C 0.90321 0.93181 0.79847 0.0
C577 C 0.87639 0.90082 0.81013 0.0
C578 C 0.92319 0.87102 0.81643 0.0
C579 C 0.90727 0.01616 0.82072 0.0
C580 C 0.9102 0.07274 0.7823 0.0
C581 C 0.91332 0.15508 0.79248 0.0
C582 C 0.91263 0.18096 0.84319 0.0
C583 C 0.90922 0.1248 0.88335 0.0
C584 C 0.90663 0.04111 0.87195 0.0
H585 H 0.12168 0.99291 0.90261 0.0
H586 H 0.10353 0.75012 0.8504 0.0
H587 H 0.10234 0.79926 0.76181 0.0
H588 H 0.086 0.12012 0.80699 0.0
H589 H 0.11211 0.18868 0.80484 0.0
H590 H 0.10675 0.1312 0.8619 0.0
H591 H 0.15432 0.08708 0.85002 0.0
H592 H 0.15605 0.13677 0.78898 0.0
H593 H 0.16281 0.0299 0.79412 0.0
H594 H 0.11134 0.86756 0.67926 0.0
H595 H 0.11592 0.96206 0.60694 0.0
H596 H 0.1194 0.16527 0.71003 0.0
C597 C 0.11653 0.95115 0.87257 0.0
C598 C 0.11197 0.86804 0.88326 0.0
C599 C 0.10668 0.81403 0.84288 0.0
C600 C 0.10613 0.84122 0.79252 0.0
C601 C 0.11128 0.92261 0.78297 0.0
C602 C 0.11587 0.97762 0.82162 0.0
C603 C 0.12247 0.06055 0.79942 0.0
C604 C 0.10574 0.12897 0.81979 0.0
C605 C 0.15058 0.07968 0.80869 0.0
C606 C 0.11758 0.04532 0.74342 0.0
C607 C 0.11312 0.96403 0.7347 0.0
C608 C 0.11254 0.9323 0.68577 0.0
C609 C 0.11427 0.9864 0.64487 0.0
C610 C 0.1139 0.07114 0.65288 0.0
C611 C 0.1172 0.10093 0.70288 0.0
H612 H 0.50338 0.81239 0.99156 0.0
H613 H 0.43506 0.93124 0.04539 0.0
H614 H 0.4589 0.05837 0.05684 0.0
H615 H 0.54768 0.91608 0.0754 0.0
H616 H 0.57201 0.92518 0.0277 0.0
H617 H 0.55005 0.84166 0.02536 0.0
H618 H 0.53768 0.88119 0.93358 0.0
H619 H 0.55961 0.96478 0.93548 0.0
H620 H 0.52683 0.9829 0.92047 0.0
H621 H 0.48908 0.17194 0.06185 0.0
H622 H 0.52348 0.27066 0.05591 0.0
H623 H 0.57351 0.08376 0.99661 0.0
C624 C 0.49346 0.865 0.00614 0.0
C625 C 0.46723 0.86136 0.01784 0.0
C626 C 0.45502 0.9321 0.03611 0.0
C627 C 0.46845 0.00465 0.04295 0.0
C628 C 0.49415 0.00609 0.03113 0.0
C629 C 0.50659 0.93855 0.01279 0.0
C630 C 0.53417 0.95833 1.00112 0.0
C631 C 0.55203 0.90727 0.0344 0.0
C632 C 0.5399 0.94609 0.94428 0.0
C633 C 0.53518 0.0478 0.0157 0.0
C634 C 0.51181 0.07323 0.03322 0.0
C635 C 0.50745 0.15281 0.04824 0.0
C636 C 0.52726 0.20861 0.04456 0.0
C637 C 0.5514 0.18562 0.02563 0.0
C638 C 0.55546 0.10336 0.01169 0.0
H639 H 0.55299 0.89321 0.46579 0.0
H640 H 0.55862 0.85038 0.62801 0.0
H641 H 0.52476 0.95084 0.64342 0.0
H642 H 0.54332 0.11396 0.47826 0.0
H643 H 0.52213 0.11911 0.42466 0.0
H644 H 0.54654 0.04283 0.42656 0.0
H645 H 0.51261 0.93111 0.41423 0.0
H646 H 0.48806 0.00696 0.41316 0.0
H647 H 0.48654 0.92459 0.45825 0.0
H648 H 0.48801 0.04758 0.64068 0.0
H649 H 0.45592 0.15285 0.6216 0.0
H650 H 0.47706 0.1464 0.46244 0.0
C651 C 0.54726 0.90613 0.5045 0.0
C652 C 0.55808 0.86346 0.54578 0.0
C653 C 0.55025 0.88157 0.59593 0.0
C654 C 0.53104 0.93855 0.60501 0.0
C655 C 0.52025 0.9783 0.56354 0.0
C656 C 0.52852 0.96467 0.51437 0.0
C657 C 0.51441 0.0185 0.47694 0.0
C658 C 0.53269 0.07708 0.45003 0.0
C659 C 0.49952 0.9672 0.43837 0.0
C660 C 0.49674 0.06359 0.51268 0.0
C661 C 0.50014 0.03828 0.56236 0.0
C662 C 0.48538 0.06856 0.60202 0.0
C663 C 0.4671 0.12777 0.59085 0.0
C664 C 0.46407 0.15712 0.54069 0.0
C665 C 0.47901 0.12445 0.50108 0.0
H666 H 0.04208 0.64164 0.08295 0.0
H667 H 0.07047 0.6258 0.92856 0.0
H668 H 0.03822 0.52225 0.90855 0.0
H669 H 0.03124 0.42174 0.09487 0.0
H670 H 1.00352 0.43359 0.13408 0.0
H671 H 0.0282 0.50891 0.13585 0.0
H672 H 0.99529 0.62018 0.11402 0.0
H673 H 0.9706 0.54496 0.11119 0.0
H674 H 0.97636 0.61028 0.05736 0.0
H675 H 1.00115 0.43137 0.90285 0.0
H676 H 0.96721 0.33167 0.91599 0.0
H677 H 0.96589 0.38746 0.07703 0.0
C678 C 0.0416 0.61523 0.04525 0.0
C679 C 0.05859 0.6413 0.00706 0.0
C680 C 0.05762 0.60591 0.95818 0.0
C681 C 0.03926 0.5478 0.94639 0.0
C682 C 0.02242 0.52428 0.98438 0.0
C683 C 0.02387 0.55461 0.03328 0.0
C684 C 1.0045 0.51379 0.06759 0.0
C685 C 0.01765 0.4667 0.11064 0.0
C686 C 0.98556 0.57604 0.08878 0.0
C687 C 0.99183 0.45658 0.03008 0.0
C688 C 1.0022 0.46553 0.98212 0.0
C689 C 0.99334 0.42214 0.94046 0.0
C690 C 0.97419 0.36508 0.94837 0.0
C691 C 0.96457 0.35004 0.99764 0.0
C692 C 0.97299 0.39786 0.03895 0.0
H693 H 0.07168 0.42588 0.54668 0.0
H694 H 0.01904 0.23191 0.50883 0.0
H695 H 0.98433 0.32867 0.50693 0.0
H696 H 0.02848 0.53712 0.62801 0.0
H697 H 0.03831 0.6364 0.60696 0.0
H698 H 0.06031 0.55285 0.60541 0.0
H699 H 0.06813 0.57785 0.5097 0.0
H700 H 0.04621 0.66159 0.51075 0.0
H701 H 0.04169 0.57946 0.46642 0.0
H702 H 0.95436 0.44253 0.5099 0.0
H703 H 0.93112 0.57203 0.51503 0.0
H704 H 1.00143 0.69697 0.54967 0.0
C705 C 0.05291 0.40403 0.53767 0.0
C706 C 0.0485 0.3204 0.52808 0.0
C707 C 0.02339 0.29494 0.51662 0.0
C708 C 1.00326 0.34963 0.51536 0.0
C709 C 1.00812 0.43072 0.52534 0.0
C710 C 0.03223 0.45855 0.53605 0.0
C711 C 0.03168 0.54985 0.54522 0.0
C712 C 0.0402 0.57022 0.59965 0.0
C713 C 0.04789 0.59482 0.50565 0.0
C714 C 1.00363 0.5678 0.53785 0.0
C715 C 0.99048 0.49787 0.52662 0.0
C716 C 0.96441 0.49805 0.51855 0.0
C717 C 0.95133 0.57198 0.52165 0.0
C718 C 0.96428 0.6451 0.53258 0.0
C719 C 0.99085 0.64243 0.54097 0.0
loop_
_geom_bond_atom_site_label_1
_geom_bond_atom_site_label_2
_geom_bond_distance
_geom_bond_site_symmetry_2
_ccdc_geom_bond_type
Mn0 O5 2.095 . S
Mn0 O15 2.162 . S
Mn0 O16 2.297 . S
Mn0 O24 2.385 1_554 S
Mn0 O25 2.209 1_554 S
Mn0 O26 2.094 . S
Mn1 O6 2.121 . S
Mn1 N8 2.257 1_554 S
Mn1 N17 2.282 1_554 S
Mn1 O25 2.215 1_554 S
Mn1 O27 2.117 . S
C2 O24 1.234 . S
C2 O25 1.283 . S
C3 O15 1.281 . S
C3 O16 1.236 . S
C4 O26 1.240 . S
C4 O27 1.264 . S
O5 Mn0 2.095 . S
O5 C14 1.250 . S
O6 Mn1 2.121 . S
O6 C14 1.258 . S
C7 N8 1.326 1_554 S
C7 C11 1.460 1_554 S
C7 H13 0.929 . S
N8 Mn1 2.257 1_556 S
N8 C7 1.326 1_556 S
N8 C12 1.362 . S
C9 C10 1.258 . S
C9 C12 1.431 . S
C9 C29 1.449 . S
C10 C9 1.258 . S
C10 C11 1.477 . S
C10 H30 0.931 . S
C11 C7 1.460 1_556 S
C11 C10 1.477 . S
C11 H31 0.930 1_556 S
C12 N8 1.362 . S
C12 C9 1.431 . S
C12 C22 1.476 . S
H13 C7 0.929 . S
C14 O5 1.250 . S
C14 O6 1.258 . S
O15 Mn0 2.162 . S
O15 C3 1.281 . S
O16 Mn0 2.297 . S
O16 C3 1.236 . S
N17 Mn1 2.282 1_556 S
N17 C18 1.328 . S
N17 C22 1.318 . S
C18 N17 1.328 . S
C18 C19 1.457 . S
C18 H23 0.929 . S
C19 C18 1.457 . S
C19 C20 1.291 . S
C19 H32 0.931 . S
C20 C19 1.291 . S
C20 C21 1.373 . S
C20 H33 0.929 . S
C21 C20 1.373 . S
C21 C22 1.396 . S
C21 C28 1.403 . S
C22 C12 1.476 . S
C22 N17 1.318 . S
C22 C21 1.396 . S
H23 C18 0.929 . S
O24 Mn0 2.385 1_556 S
O24 C2 1.234 . S
O25 Mn0 2.209 1_556 S
O25 Mn1 2.215 1_556 S
O25 C2 1.283 . S
O26 Mn0 2.094 . S
O26 C4 1.240 . S
O27 Mn1 2.117 . S
O27 C4 1.264 . S
C28 C21 1.403 . S
C28 C29 1.399 . S
C28 H34 0.929 . S
C29 C9 1.449 . S
C29 C28 1.399 . S
C29 H35 0.930 . S
H30 C10 0.931 . S
H31 C11 0.930 1_554 S
H32 C19 0.931 . S
H33 C20 0.929 . S
H34 C28 0.929 . S
H35 C29 0.930 . S
Mn36 O41 2.095 . S
Mn36 O51 2.162 . S
Mn36 O52 2.297 . S
Mn36 O60 2.385 1_554 S
Mn36 O61 2.209 1_554 S
Mn36 O62 2.094 . S
Mn37 O42 2.121 . S
Mn37 N44 2.257 1_554 S
Mn37 N53 2.282 1_554 S
Mn37 O61 2.215 1_554 S
Mn37 O63 2.117 . S
C38 O60 1.234 . S
C38 O61 1.283 . S
C39 O51 1.281 . S
C39 O52 1.236 . S
C40 O62 1.240 . S
C40 O63 1.264 . S
O41 Mn36 2.095 . S
O41 C50 1.250 . S
O42 Mn37 2.121 . S
O42 C50 1.258 . S
C43 N44 1.326 1_554 S
C43 C47 1.460 1_554 S
C43 H49 0.929 . S
N44 Mn37 2.257 1_556 S
N44 C43 1.326 1_556 S
N44 C48 1.362 . S
C45 C46 1.258 . S
C45 C48 1.431 . S
C45 C65 1.449 . S
C46 C45 1.258 . S
C46 C47 1.477 . S
C46 H66 0.931 . S
C47 C43 1.460 1_556 S
C47 C46 1.477 . S
C47 H67 0.930 1_556 S
C48 N44 1.362 . S
C48 C45 1.431 . S
C48 C58 1.476 . S
H49 C43 0.929 . S
C50 O41 1.250 . S
C50 O42 1.258 . S
O51 Mn36 2.162 . S
O51 C39 1.281 . S
O52 Mn36 2.297 . S
O52 C39 1.236 . S
N53 Mn37 2.282 1_556 S
N53 C54 1.328 . S
N53 C58 1.318 . S
C54 N53 1.328 . S
C54 C55 1.457 . S
C54 H59 0.929 . S
C55 C54 1.457 . S
C55 C56 1.291 . S
C55 H68 0.931 . S
C56 C55 1.291 . S
C56 C57 1.373 . S
C56 H69 0.929 . S
C57 C56 1.373 . S
C57 C58 1.396 . S
C57 C64 1.403 . S
C58 C48 1.476 . S
C58 N53 1.318 . S
C58 C57 1.396 . S
H59 C54 0.929 . S
O60 Mn36 2.385 1_556 S
O60 C38 1.234 . S
O61 Mn36 2.209 1_556 S
O61 Mn37 2.215 1_556 S
O61 C38 1.283 . S
O62 Mn36 2.094 . S
O62 C40 1.240 . S
O63 Mn37 2.117 . S
O63 C40 1.264 . S
C64 C57 1.403 . S
C64 C65 1.399 . S
C64 H70 0.929 . S
C65 C45 1.449 . S
C65 C64 1.399 . S
C65 H71 0.930 . S
H66 C46 0.931 . S
H67 C47 0.930 1_554 S
H68 C55 0.931 . S
H69 C56 0.929 . S
H70 C64 0.929 . S
H71 C65 0.930 . S
Mn72 O77 2.095 . S
Mn72 O87 2.162 . S
Mn72 O88 2.297 . S
Mn72 O96 2.385 . S
Mn72 O97 2.209 . S
Mn72 O98 2.094 . S
Mn73 O78 2.121 . S
Mn73 N80 2.257 . S
Mn73 N89 2.282 . S
Mn73 O97 2.215 . S
Mn73 O99 2.117 . S
C74 O96 1.234 . S
C74 O97 1.283 . S
C75 O87 1.281 . S
C75 O88 1.236 . S
C76 O98 1.240 . S
C76 O99 1.264 . S
O77 Mn72 2.095 . S
O77 C86 1.250 . S
O78 Mn73 2.121 . S
O78 C86 1.258 . S
C79 N80 1.326 . S
C79 C83 1.460 . S
C79 H85 0.929 . S
N80 Mn73 2.257 . S
N80 C79 1.326 . S
N80 C84 1.362 . S
C81 C82 1.258 . S
C81 C84 1.431 . S
C81 C101 1.449 . S
C82 C81 1.258 . S
C82 C83 1.477 . S
C82 H102 0.931 . S
C83 C79 1.460 . S
C83 C82 1.477 . S
C83 H103 0.930 . S
C84 N80 1.362 . S
C84 C81 1.431 . S
C84 C94 1.476 . S
H85 C79 0.929 . S
C86 O77 1.250 . S
C86 O78 1.258 . S
O87 Mn72 2.162 . S
O87 C75 1.281 . S
O88 Mn72 2.297 . S
O88 C75 1.236 . S
N89 Mn73 2.282 . S
N89 C90 1.328 . S
N89 C94 1.318 . S
C90 N89 1.328 . S
C90 C91 1.457 . S
C90 H95 0.929 . S
C91 C90 1.457 . S
C91 C92 1.291 . S
C91 H104 0.931 . S
C92 C91 1.291 . S
C92 C93 1.373 . S
C92 H105 0.929 . S
C93 C92 1.373 . S
C93 C94 1.396 . S
C93 C100 1.403 . S
C94 C84 1.476 . S
C94 N89 1.318 . S
C94 C93 1.396 . S
H95 C90 0.929 . S
O96 Mn72 2.385 . S
O96 C74 1.234 . S
O97 Mn72 2.209 . S
O97 Mn73 2.215 . S
O97 C74 1.283 . S
O98 Mn72 2.094 . S
O98 C76 1.240 . S
O99 Mn73 2.117 . S
O99 C76 1.264 . S
C100 C93 1.403 . S
C100 C101 1.399 . S
C100 H106 0.929 . S
C101 C81 1.449 . S
C101 C100 1.399 . S
C101 H107 0.930 . S
H102 C82 0.931 . S
H103 C83 0.930 . S
H104 C91 0.931 . S
H105 C92 0.929 . S
H106 C100 0.929 . S
H107 C101 0.930 . S
Mn108 O113 2.095 . S
Mn108 O123 2.162 . S
Mn108 O124 2.297 . S
Mn108 O132 2.385 . S
Mn108 O133 2.209 . S
Mn108 O134 2.094 . S
Mn109 O114 2.121 . S
Mn109 N116 2.257 . S
Mn109 N125 2.282 . S
Mn109 O133 2.215 . S
Mn109 O135 2.117 . S
C110 O132 1.234 . S
C110 O133 1.283 . S
C111 O123 1.281 . S
C111 O124 1.236 . S
C112 O134 1.240 . S
C112 O135 1.264 . S
O113 Mn108 2.095 . S
O113 C122 1.250 . S
O114 Mn109 2.121 . S
O114 C122 1.258 . S
C115 N116 1.326 . S
C115 C119 1.460 . S
C115 H121 0.929 . S
N116 Mn109 2.257 . S
N116 C115 1.326 . S
N116 C120 1.362 . S
C117 C118 1.258 . S
C117 C120 1.431 . S
C117 C137 1.449 . S
C118 C117 1.258 . S
C118 C119 1.477 . S
C118 H138 0.931 . S
C119 C115 1.460 . S
C119 C118 1.477 . S
C119 H139 0.930 . S
C120 N116 1.362 . S
C120 C117 1.431 . S
C120 C130 1.476 . S
H121 C115 0.929 . S
C122 O113 1.250 . S
C122 O114 1.258 . S
O123 Mn108 2.162 . S
O123 C111 1.281 . S
O124 Mn108 2.297 . S
O124 C111 1.236 . S
N125 Mn109 2.282 . S
N125 C126 1.328 . S
N125 C130 1.318 . S
C126 N125 1.328 . S
C126 C127 1.457 . S
C126 H131 0.929 . S
C127 C126 1.457 . S
C127 C128 1.291 . S
C127 H140 0.931 . S
C128 C127 1.291 . S
C128 C129 1.373 . S
C128 H141 0.929 . S
C129 C128 1.373 . S
C129 C130 1.396 . S
C129 C136 1.403 . S
C130 C120 1.476 . S
C130 N125 1.318 . S
C130 C129 1.396 . S
H131 C126 0.929 . S
O132 Mn108 2.385 . S
O132 C110 1.234 . S
O133 Mn108 2.209 . S
O133 Mn109 2.215 . S
O133 C110 1.283 . S
O134 Mn108 2.094 . S
O134 C112 1.240 . S
O135 Mn109 2.117 . S
O135 C112 1.264 . S
C136 C129 1.403 . S
C136 C137 1.399 . S
C136 H142 0.929 . S
C137 C117 1.449 . S
C137 C136 1.399 . S
C137 H143 0.930 . S
H138 C118 0.931 . S
H139 C119 0.930 . S
H140 C127 0.931 . S
H141 C128 0.929 . S
H142 C136 0.929 . S
H143 C137 0.930 . S
Mn144 O149 2.095 . S
Mn144 O159 2.162 . S
Mn144 O160 2.297 . S
Mn144 O168 2.385 1_554 S
Mn144 O169 2.209 1_554 S
Mn144 O170 2.094 . S
Mn145 O150 2.121 . S
Mn145 N152 2.257 1_564 S
Mn145 N161 2.282 1_554 S
Mn145 O169 2.215 1_554 S
Mn145 O171 2.117 . S
C146 O168 1.234 . S
C146 O169 1.283 . S
C147 O159 1.281 . S
C147 O160 1.236 . S
C148 O170 1.240 . S
C148 O171 1.264 . S
O149 Mn144 2.095 . S
O149 C158 1.250 . S
O150 Mn145 2.121 . S
O150 C158 1.258 . S
C151 N152 1.326 1_554 S
C151 C155 1.460 1_554 S
C151 H157 0.929 . S
N152 Mn145 2.257 1_546 S
N152 C151 1.326 1_556 S
N152 C156 1.362 . S
C153 C154 1.258 . S
C153 C156 1.431 . S
C153 C173 1.449 . S
C154 C153 1.258 . S
C154 C155 1.477 . S
C154 H174 0.931 . S
C155 C151 1.460 1_556 S
C155 C154 1.477 . S
C155 H175 0.930 1_556 S
C156 N152 1.362 . S
C156 C153 1.431 . S
C156 C166 1.476 1_545 S
H157 C151 0.929 . S
C158 O149 1.250 . S
C158 O150 1.258 . S
O159 Mn144 2.162 . S
O159 C147 1.281 . S
O160 Mn144 2.297 . S
O160 C147 1.236 . S
N161 Mn145 2.282 1_556 S
N161 C162 1.328 . S
N161 C166 1.318 . S
C162 N161 1.328 . S
C162 C163 1.457 . S
C162 H167 0.929 . S
C163 C162 1.457 . S
C163 C164 1.291 . S
C163 H176 0.931 . S
C164 C163 1.291 . S
C164 C165 1.373 . S
C164 H177 0.929 . S
C165 C164 1.373 . S
C165 C166 1.396 . S
C165 C172 1.403 1_565 S
C166 C156 1.476 1_565 S
C166 N161 1.318 . S
C166 C165 1.396 . S
H167 C162 0.929 . S
O168 Mn144 2.385 1_556 S
O168 C146 1.234 . S
O169 Mn144 2.209 1_556 S
O169 Mn145 2.215 1_556 S
O169 C146 1.283 . S
O170 Mn144 2.094 . S
O170 C148 1.240 . S
O171 Mn145 2.117 . S
O171 C148 1.264 . S
C172 C165 1.403 1_545 S
C172 C173 1.399 . S
C172 H178 0.929 . S
C173 C153 1.449 . S
C173 C172 1.399 . S
C173 H179 0.930 . S
H174 C154 0.931 . S
H175 C155 0.930 1_554 S
H176 C163 0.931 . S
H177 C164 0.929 . S
H178 C172 0.929 . S
H179 C173 0.930 . S
Mn180 O185 2.095 . S
Mn180 O195 2.162 . S
Mn180 O196 2.297 . S
Mn180 O204 2.385 1_554 S
Mn180 O205 2.209 1_554 S
Mn180 O206 2.094 . S
Mn181 O186 2.121 . S
Mn181 N188 2.257 1_544 S
Mn181 N197 2.282 1_554 S
Mn181 O205 2.215 1_554 S
Mn181 O207 2.117 . S
C182 O204 1.234 . S
C182 O205 1.283 . S
C183 O195 1.281 . S
C183 O196 1.236 . S
C184 O206 1.240 . S
C184 O207 1.264 . S
O185 Mn180 2.095 . S
O185 C194 1.250 . S
O186 Mn181 2.121 . S
O186 C194 1.258 . S
C187 N188 1.326 1_554 S
C187 C191 1.460 1_554 S
C187 H193 0.929 . S
N188 Mn181 2.257 1_566 S
N188 C187 1.326 1_556 S
N188 C192 1.362 . S
C189 C190 1.258 . S
C189 C192 1.431 . S
C189 C209 1.449 . S
C190 C189 1.258 . S
C190 C191 1.477 . S
C190 H210 0.931 . S
C191 C187 1.460 1_556 S
C191 C190 1.477 . S
C191 H211 0.930 1_556 S
C192 N188 1.362 . S
C192 C189 1.431 . S
C192 C202 1.476 1_565 S
H193 C187 0.929 . S
C194 O185 1.250 . S
C194 O186 1.258 . S
O195 Mn180 2.162 . S
O195 C183 1.281 . S
O196 Mn180 2.297 . S
O196 C183 1.236 . S
N197 Mn181 2.282 1_556 S
N197 C198 1.328 . S
N197 C202 1.318 . S
C198 N197 1.328 . S
C198 C199 1.457 . S
C198 H203 0.929 . S
C199 C198 1.457 . S
C199 C200 1.291 . S
C199 H212 0.931 . S
C200 C199 1.291 . S
C200 C201 1.373 . S
C200 H213 0.929 . S
C201 C200 1.373 . S
C201 C202 1.396 . S
C201 C208 1.403 1_545 S
C202 C192 1.476 1_545 S
C202 N197 1.318 . S
C202 C201 1.396 . S
H203 C198 0.929 . S
O204 Mn180 2.385 1_556 S
O204 C182 1.234 . S
O205 Mn180 2.209 1_556 S
O205 Mn181 2.215 1_556 S
O205 C182 1.283 . S
O206 Mn180 2.094 . S
O206 C184 1.240 . S
O207 Mn181 2.117 . S
O207 C184 1.264 . S
C208 C201 1.403 1_565 S
C208 C209 1.399 . S
C208 H214 0.929 . S
C209 C189 1.449 . S
C209 C208 1.399 . S
C209 H215 0.930 . S
H210 C190 0.931 . S
H211 C191 0.930 1_554 S
H212 C199 0.931 . S
H213 C200 0.929 . S
H214 C208 0.929 . S
H215 C209 0.930 . S
Mn216 O221 2.095 . S
Mn216 O231 2.162 . S
Mn216 O232 2.297 . S
Mn216 O240 2.385 . S
Mn216 O241 2.209 . S
Mn216 O242 2.094 . S
Mn217 O222 2.121 . S
Mn217 N224 2.257 1_545 S
Mn217 N233 2.282 . S
Mn217 O241 2.215 . S
Mn217 O243 2.117 . S
C218 O240 1.234 . S
C218 O241 1.283 . S
C219 O231 1.281 . S
C219 O232 1.236 . S
C220 O242 1.240 . S
C220 O243 1.264 . S
O221 Mn216 2.095 . S
O221 C230 1.250 . S
O222 Mn217 2.121 . S
O222 C230 1.258 . S
C223 N224 1.326 . S
C223 C227 1.460 . S
C223 H229 0.929 . S
N224 Mn217 2.257 1_565 S
N224 C223 1.326 . S
N224 C228 1.362 . S
C225 C226 1.258 . S
C225 C228 1.431 . S
C225 C245 1.449 . S
C226 C225 1.258 . S
C226 C227 1.477 . S
C226 H246 0.931 . S
C227 C223 1.460 . S
C227 C226 1.477 . S
C227 H247 0.930 . S
C228 N224 1.362 . S
C228 C225 1.431 . S
C228 C238 1.476 1_565 S
H229 C223 0.929 . S
C230 O221 1.250 . S
C230 O222 1.258 . S
O231 Mn216 2.162 . S
O231 C219 1.281 . S
O232 Mn216 2.297 . S
O232 C219 1.236 . S
N233 Mn217 2.282 . S
N233 C234 1.328 . S
N233 C238 1.318 . S
C234 N233 1.328 . S
C234 C235 1.457 . S
C234 H239 0.929 . S
C235 C234 1.457 . S
C235 C236 1.291 . S
C235 H248 0.931 . S
C236 C235 1.291 . S
C236 C237 1.373 . S
C236 H249 0.929 . S
C237 C236 1.373 . S
C237 C238 1.396 . S
C237 C244 1.403 1_545 S
C238 C228 1.476 1_545 S
C238 N233 1.318 . S
C238 C237 1.396 . S
H239 C234 0.929 . S
O240 Mn216 2.385 . S
O240 C218 1.234 . S
O241 Mn216 2.209 . S
O241 Mn217 2.215 . S
O241 C218 1.283 . S
O242 Mn216 2.094 . S
O242 C220 1.240 . S
O243 Mn217 2.117 . S
O243 C220 1.264 . S
C244 C237 1.403 1_565 S
C244 C245 1.399 . S
C244 H250 0.929 . S
C245 C225 1.449 . S
C245 C244 1.399 . S
C245 H251 0.930 . S
H246 C226 0.931 . S
H247 C227 0.930 . S
H248 C235 0.931 . S
H249 C236 0.929 . S
H250 C244 0.929 . S
H251 C245 0.930 . S
Mn252 O257 2.095 . S
Mn252 O267 2.162 . S
Mn252 O268 2.297 . S
Mn252 O276 2.385 . S
Mn252 O277 2.209 . S
Mn252 O278 2.094 . S
Mn253 O258 2.121 . S
Mn253 N260 2.257 1_565 S
Mn253 N269 2.282 . S
Mn253 O277 2.215 . S
Mn253 O279 2.117 . S
C254 O276 1.234 . S
C254 O277 1.283 . S
C255 O267 1.281 . S
C255 O268 1.236 . S
C256 O278 1.240 . S
C256 O279 1.264 . S
O257 Mn252 2.095 . S
O257 C266 1.250 . S
O258 Mn253 2.121 . S
O258 C266 1.258 . S
C259 N260 1.326 . S
C259 C263 1.460 . S
C259 H265 0.929 . S
N260 Mn253 2.257 1_545 S
N260 C259 1.326 . S
N260 C264 1.362 . S
C261 C262 1.258 . S
C261 C264 1.431 . S
C261 C281 1.449 . S
C262 C261 1.258 . S
C262 C263 1.477 . S
C262 H282 0.931 . S
C263 C259 1.460 . S
C263 C262 1.477 . S
C263 H283 0.930 . S
C264 N260 1.362 . S
C264 C261 1.431 . S
C264 C274 1.476 1_545 S
H265 C259 0.929 . S
C266 O257 1.250 . S
C266 O258 1.258 . S
O267 Mn252 2.162 . S
O267 C255 1.281 . S
O268 Mn252 2.297 . S
O268 C255 1.236 . S
N269 Mn253 2.282 . S
N269 C270 1.328 . S
N269 C274 1.318 . S
C270 N269 1.328 . S
C270 C271 1.457 . S
C270 H275 0.929 . S
C271 C270 1.457 . S
C271 C272 1.291 . S
C271 H284 0.931 . S
C272 C271 1.291 . S
C272 C273 1.373 . S
C272 H285 0.929 . S
C273 C272 1.373 . S
C273 C274 1.396 . S
C273 C280 1.403 1_565 S
C274 C264 1.476 1_565 S
C274 N269 1.318 . S
C274 C273 1.396 . S
H275 C270 0.929 . S
O276 Mn252 2.385 . S
O276 C254 1.234 . S
O277 Mn252 2.209 . S
O277 Mn253 2.215 . S
O277 C254 1.283 . S
O278 Mn252 2.094 . S
O278 C256 1.240 . S
O279 Mn253 2.117 . S
O279 C256 1.264 . S
C280 C273 1.403 1_545 S
C280 C281 1.399 . S
C280 H286 0.929 . S
C281 C261 1.449 . S
C281 C280 1.399 . S
C281 H287 0.930 . S
H282 C262 0.931 . S
H283 C263 0.930 . S
H284 C271 0.931 . S
H285 C272 0.929 . S
H286 C280 0.929 . S
H287 C281 0.930 . S
H288 C300 0.930 . S
H289 C302 0.930 . S
H290 C303 0.930 . S
H291 C307 0.959 . S
H292 C307 0.959 . S
H293 C307 0.961 . S
H294 C308 0.960 . S
H295 C308 0.961 . S
H296 C308 0.959 . S
H297 C311 0.929 . S
H298 C312 0.931 . S
H299 C314 0.930 . S
C300 H288 0.930 . S
C300 C301 1.402 . S
C300 C305 1.399 . S
C301 C300 1.402 . S
C301 C302 1.373 1_554 S
C302 H289 0.930 . S
C302 C301 1.373 1_556 S
C302 C303 1.388 . S
C303 H290 0.930 . S
C303 C302 1.388 . S
C303 C304 1.390 . S
C304 C303 1.390 . S
C304 C305 1.394 1_556 S
C304 C310 1.465 . S
C305 C300 1.399 . S
C305 C304 1.394 1_554 S
C305 C306 1.516 . S
C306 C305 1.516 . S
C306 C307 1.502 . S
C306 C308 1.561 . S
C306 C309 1.526 . S
C307 H291 0.959 . S
C307 H292 0.959 . S
C307 H293 0.961 . S
C307 C306 1.502 . S
C308 H294 0.960 . S
C308 H295 0.961 . S
C308 H296 0.959 . S
C308 C306 1.561 . S
C309 C306 1.526 . S
C309 C310 1.396 1_554 S
C309 C314 1.390 . S
C310 C304 1.465 . S
C310 C309 1.396 1_556 S
C310 C311 1.399 . S
C311 H297 0.929 . S
C311 C310 1.399 . S
C311 C312 1.385 . S
C312 H298 0.931 . S
C312 C311 1.385 . S
C312 C313 1.396 . S
C313 C312 1.396 . S
C313 C314 1.381 1_556 S
C314 H299 0.930 . S
C314 C309 1.390 . S
C314 C313 1.381 1_554 S
H315 C327 0.930 . S
H316 C329 0.930 . S
H317 C330 0.930 . S
H318 C334 0.959 . S
H319 C334 0.959 . S
H320 C334 0.961 . S
H321 C335 0.960 . S
H322 C335 0.961 . S
H323 C335 0.959 . S
H324 C338 0.929 . S
H325 C339 0.931 . S
H326 C341 0.930 . S
C327 H315 0.930 . S
C327 C328 1.399 . S
C327 C332 1.399 . S
C328 C327 1.399 . S
C328 C329 1.376 1_554 S
C329 H316 0.930 . S
C329 C328 1.376 1_556 S
C329 C330 1.388 . S
C330 H317 0.930 . S
C330 C329 1.388 . S
C330 C331 1.390 . S
C331 C330 1.390 . S
C331 C332 1.394 1_556 S
C331 C337 1.465 . S
C332 C327 1.399 . S
C332 C331 1.394 1_554 S
C332 C333 1.516 . S
C333 C332 1.516 . S
C333 C334 1.502 . S
C333 C335 1.561 . S
C333 C336 1.526 . S
C334 H318 0.959 . S
C334 H319 0.959 . S
C334 H320 0.961 . S
C334 C333 1.502 . S
C335 H321 0.960 . S
C335 H322 0.961 . S
C335 H323 0.959 . S
C335 C333 1.561 . S
C336 C333 1.526 . S
C336 C337 1.396 1_554 S
C336 C341 1.390 . S
C337 C331 1.465 . S
C337 C336 1.396 1_556 S
C337 C338 1.399 . S
C338 H324 0.929 . S
C338 C337 1.399 . S
C338 C339 1.385 . S
C339 H325 0.931 . S
C339 C338 1.385 . S
C339 C340 1.389 1_556 S
C340 C339 1.389 1_554 S
C340 C341 1.387 . S
C341 H326 0.930 . S
C341 C336 1.390 . S
C341 C340 1.387 . S
H342 C354 0.930 . S
H343 C356 0.930 . S
H344 C357 0.930 . S
H345 C361 0.959 . S
H346 C361 0.959 . S
H347 C361 0.961 . S
H348 C362 0.960 . S
H349 C362 0.961 . S
H350 C362 0.959 . S
H351 C365 0.929 . S
H352 C366 0.931 . S
H353 C368 0.930 . S
C354 H342 0.930 . S
C354 C355 1.399 . S
C354 C359 1.399 . S
C355 C354 1.399 . S
C355 C356 1.376 . S
C356 H343 0.930 . S
C356 C355 1.376 . S
C356 C357 1.388 . S
C357 H344 0.930 . S
C357 C356 1.388 . S
C357 C358 1.390 . S
C358 C357 1.390 . S
C358 C359 1.394 . S
C358 C364 1.465 . S
C359 C354 1.399 . S
C359 C358 1.394 . S
C359 C360 1.516 . S
C360 C359 1.516 . S
C360 C361 1.502 . S
C360 C362 1.561 . S
C360 C363 1.526 . S
C361 H345 0.959 . S
C361 H346 0.959 . S
C361 H347 0.961 . S
C361 C360 1.502 . S
C362 H348 0.960 . S
C362 H349 0.961 . S
C362 H350 0.959 . S
C362 C360 1.561 . S
C363 C360 1.526 . S
C363 C364 1.396 . S
C363 C368 1.390 . S
C364 C358 1.465 . S
C364 C363 1.396 . S
C364 C365 1.399 . S
C365 H351 0.929 . S
C365 C364 1.399 . S
C365 C366 1.385 . S
C366 H352 0.931 . S
C366 C365 1.385 . S
C366 C367 1.389 . S
C367 C366 1.389 . S
C367 C368 1.387 . S
C368 H353 0.930 . S
C368 C363 1.390 . S
C368 C367 1.387 . S
H369 C381 0.930 . S
H370 C383 0.930 . S
H371 C384 0.930 . S
H372 C388 0.959 . S
H373 C388 0.959 . S
H374 C388 0.961 . S
H375 C389 0.960 . S
H376 C389 0.961 . S
H377 C389 0.959 . S
H378 C392 0.929 . S
H379 C393 0.931 . S
H380 C395 0.930 . S
C381 H369 0.930 . S
C381 C382 1.399 . S
C381 C386 1.399 . S
C382 C381 1.399 . S
C382 C383 1.376 . S
C383 H370 0.930 . S
C383 C382 1.376 . S
C383 C384 1.388 . S
C384 H371 0.930 . S
C384 C383 1.388 . S
C384 C385 1.390 . S
C385 C384 1.390 . S
C385 C386 1.394 . S
C385 C391 1.465 . S
C386 C381 1.399 . S
C386 C385 1.394 . S
C386 C387 1.516 . S
C387 C386 1.516 . S
C387 C388 1.502 . S
C387 C389 1.561 . S
C387 C390 1.526 . S
C388 H372 0.959 . S
C388 H373 0.959 . S
C388 H374 0.961 . S
C388 C387 1.502 . S
C389 H375 0.960 . S
C389 H376 0.961 . S
C389 H377 0.959 . S
C389 C387 1.561 . S
C390 C387 1.526 . S
C390 C391 1.396 . S
C390 C395 1.390 . S
C391 C385 1.465 . S
C391 C390 1.396 . S
C391 C392 1.399 . S
C392 H378 0.929 . S
C392 C391 1.399 . S
C392 C393 1.385 . S
C393 H379 0.931 . S
C393 C392 1.385 . S
C393 C394 1.389 . S
C394 C393 1.389 . S
C394 C395 1.387 . S
C395 H380 0.930 . S
C395 C390 1.390 . S
C395 C394 1.387 . S
H396 C408 0.930 . S
H397 C410 0.930 . S
H398 C411 0.930 . S
H399 C415 0.959 . S
H400 C415 0.959 . S
H401 C415 0.961 . S
H402 C416 0.960 . S
H403 C416 0.961 . S
H404 C416 0.959 . S
H405 C419 0.929 . S
H406 C420 0.931 . S
H407 C422 0.930 . S
C408 H396 0.930 . S
C408 C409 1.399 . S
C408 C413 1.399 . S
C409 C408 1.399 . S
C409 C410 1.376 . S
C410 H397 0.930 . S
C410 C409 1.376 . S
C410 C411 1.388 . S
C411 H398 0.930 . S
C411 C410 1.388 . S
C411 C412 1.390 . S
C412 C411 1.390 . S
C412 C413 1.394 . S
C412 C418 1.465 . S
C413 C408 1.399 . S
C413 C412 1.394 . S
C413 C414 1.516 . S
C414 C413 1.516 . S
C414 C415 1.502 . S
C414 C416 1.561 . S
C414 C417 1.526 . S
C415 H399 0.959 . S
C415 H400 0.959 . S
C415 H401 0.961 . S
C415 C414 1.502 . S
C416 H402 0.960 . S
C416 H403 0.961 . S
C416 H404 0.959 . S
C416 C414 1.561 . S
C417 C414 1.526 . S
C417 C418 1.396 . S
C417 C422 1.390 . S
C418 C412 1.465 . S
C418 C417 1.396 . S
C418 C419 1.399 . S
C419 H405 0.929 . S
C419 C418 1.399 . S
C419 C420 1.385 . S
C420 H406 0.931 . S
C420 C419 1.385 . S
C420 C421 1.389 . S
C421 C420 1.389 . S
C421 C422 1.387 . S
C422 H407 0.930 . S
C422 C417 1.390 . S
C422 C421 1.387 . S
H423 C435 0.930 . S
H424 C437 0.930 . S
H425 C438 0.930 . S
H426 C442 0.959 . S
H427 C442 0.959 . S
H428 C442 0.961 . S
H429 C443 0.960 . S
H430 C443 0.961 . S
H431 C443 0.959 . S
H432 C446 0.929 . S
H433 C447 0.931 . S
H434 C449 0.930 . S
C435 H423 0.930 . S
C435 C436 1.399 . S
C435 C440 1.399 . S
C436 C435 1.399 . S
C436 C437 1.376 . S
C437 H424 0.930 . S
C437 C436 1.376 . S
C437 C438 1.388 . S
C438 H425 0.930 . S
C438 C437 1.388 . S
C438 C439 1.390 . S
C439 C438 1.390 . S
C439 C440 1.394 . S
C439 C445 1.465 . S
C440 C435 1.399 . S
C440 C439 1.394 . S
C440 C441 1.516 . S
C441 C440 1.516 . S
C441 C442 1.502 . S
C441 C443 1.561 . S
C441 C444 1.526 . S
C442 H426 0.959 . S
C442 H427 0.959 . S
C442 H428 0.961 . S
C442 C441 1.502 . S
C443 H429 0.960 . S
C443 H430 0.961 . S
C443 H431 0.959 . S
C443 C441 1.561 . S
C444 C441 1.526 . S
C444 C445 1.396 . S
C444 C449 1.390 . S
C445 C439 1.465 . S
C445 C444 1.396 . S
C445 C446 1.399 . S
C446 H432 0.929 . S
C446 C445 1.399 . S
C446 C447 1.385 . S
C447 H433 0.931 . S
C447 C446 1.385 . S
C447 C448 1.389 . S
C448 C447 1.389 . S
C448 C449 1.387 . S
C449 H434 0.930 . S
C449 C444 1.390 . S
C449 C448 1.387 . S
H450 C462 0.930 . S
H451 C464 0.930 . S
H452 C465 0.930 . S
H453 C469 0.959 . S
H454 C469 0.959 . S
H455 C469 0.961 . S
H456 C470 0.960 . S
H457 C470 0.961 . S
H458 C470 0.959 . S
H459 C473 0.929 . S
H460 C474 0.931 . S
H461 C476 0.930 . S
C462 H450 0.930 . S
C462 C463 1.399 . S
C462 C467 1.399 . S
C463 C462 1.399 . S
C463 C464 1.376 . S
C464 H451 0.930 . S
C464 C463 1.376 . S
C464 C465 1.388 . S
C465 H452 0.930 . S
C465 C464 1.388 . S
C465 C466 1.390 . S
C466 C465 1.390 . S
C466 C467 1.394 . S
C466 C472 1.465 . S
C467 C462 1.399 . S
C467 C466 1.394 . S
C467 C468 1.516 . S
C468 C467 1.516 . S
C468 C469 1.502 . S
C468 C470 1.561 . S
C468 C471 1.526 . S
C469 H453 0.959 . S
C469 H454 0.959 . S
C469 H455 0.961 . S
C469 C468 1.502 . S
C470 H456 0.960 . S
C470 H457 0.961 . S
C470 H458 0.959 . S
C470 C468 1.561 . S
C471 C468 1.526 . S
C471 C472 1.396 . S
C471 C476 1.390 . S
C472 C466 1.465 . S
C472 C471 1.396 . S
C472 C473 1.399 . S
C473 H459 0.929 . S
C473 C472 1.399 . S
C473 C474 1.385 . S
C474 H460 0.931 . S
C474 C473 1.385 . S
C474 C475 1.389 . S
C475 C474 1.389 . S
C475 C476 1.387 . S
C476 H461 0.930 . S
C476 C471 1.390 . S
C476 C475 1.387 . S
H477 C489 0.930 . S
H478 C491 0.930 . S
H479 C492 0.930 . S
H480 C496 0.959 . S
H481 C496 0.959 . S
H482 C496 0.961 . S
H483 C497 0.960 . S
H484 C497 0.961 . S
H485 C497 0.959 . S
H486 C500 0.929 . S
H487 C501 0.931 . S
H488 C503 0.930 . S
C489 H477 0.930 . S
C489 C490 1.399 . S
C489 C494 1.399 . S
C490 C489 1.399 . S
C490 C491 1.376 . S
C491 H478 0.930 . S
C491 C490 1.376 . S
C491 C492 1.388 . S
C492 H479 0.930 . S
C492 C491 1.388 . S
C492 C493 1.390 . S
C493 C492 1.390 . S
C493 C494 1.394 . S
C493 C499 1.465 . S
C494 C489 1.399 . S
C494 C493 1.394 . S
C494 C495 1.516 . S
C495 C494 1.516 . S
C495 C496 1.502 . S
C495 C497 1.561 . S
C495 C498 1.526 . S
C496 H480 0.959 . S
C496 H481 0.959 . S
C496 H482 0.961 . S
C496 C495 1.502 . S
C497 H483 0.960 . S
C497 H484 0.961 . S
C497 H485 0.959 . S
C497 C495 1.561 . S
C498 C495 1.526 . S
C498 C499 1.396 . S
C498 C503 1.390 . S
C499 C493 1.465 . S
C499 C498 1.396 . S
C499 C500 1.399 . S
C500 H486 0.929 . S
C500 C499 1.399 . S
C500 C501 1.385 . S
C501 H487 0.931 . S
C501 C500 1.385 . S
C501 C502 1.389 . S
C502 C501 1.389 . S
C502 C503 1.387 . S
C503 H488 0.930 . S
C503 C498 1.390 . S
C503 C502 1.387 . S
H504 C516 0.930 . S
H505 C518 0.930 . S
H506 C519 0.930 . S
H507 C523 0.959 . S
H508 C523 0.959 . S
H509 C523 0.961 . S
H510 C524 0.960 . S
H511 C524 0.961 . S
H512 C524 0.959 . S
H513 C527 0.929 . S
H514 C528 0.931 . S
H515 C530 0.930 1_565 S
C516 H504 0.930 . S
C516 C517 1.399 . S
C516 C521 1.399 . S
C517 C516 1.399 . S
C517 C518 1.376 1_565 S
C518 H505 0.930 . S
C518 C517 1.376 1_545 S
C518 C519 1.388 . S
C519 H506 0.930 . S
C519 C518 1.388 . S
C519 C520 1.390 . S
C520 C519 1.390 . S
C520 C521 1.394 1_545 S
C520 C526 1.465 . S
C521 C516 1.399 . S
C521 C520 1.394 1_565 S
C521 C522 1.516 . S
C522 C521 1.516 . S
C522 C523 1.502 . S
C522 C524 1.561 . S
C522 C525 1.526 . S
C523 H507 0.959 . S
C523 H508 0.959 . S
C523 H509 0.961 . S
C523 C522 1.502 . S
C524 H510 0.960 . S
C524 H511 0.961 . S
C524 H512 0.959 . S
C524 C522 1.561 . S
C525 C522 1.526 . S
C525 C526 1.396 1_565 S
C525 C530 1.390 1_565 S
C526 C520 1.465 . S
C526 C525 1.396 1_545 S
C526 C527 1.399 . S
C527 H513 0.929 . S
C527 C526 1.399 . S
C527 C528 1.385 . S
C528 H514 0.931 . S
C528 C527 1.385 . S
C528 C529 1.389 . S
C529 C528 1.389 . S
C529 C530 1.387 . S
C530 H515 0.930 1_545 S
C530 C525 1.390 1_545 S
C530 C529 1.387 . S
H531 C543 0.930 . S
H532 C545 0.930 . S
H533 C546 0.930 . S
H534 C550 0.959 . S
H535 C550 0.959 . S
H536 C550 0.961 . S
H537 C551 0.960 . S
H538 C551 0.961 . S
H539 C551 0.959 . S
H540 C554 0.929 . S
H541 C555 0.931 . S
H542 C557 0.930 . S
C543 H531 0.930 . S
C543 C544 1.399 . S
C543 C548 1.399 . S
C544 C543 1.399 . S
C544 C545 1.376 . S
C545 H532 0.930 . S
C545 C544 1.376 . S
C545 C546 1.388 . S
C546 H533 0.930 . S
C546 C545 1.388 . S
C546 C547 1.390 . S
C547 C546 1.390 . S
C547 C548 1.394 . S
C547 C553 1.465 1_565 S
C548 C543 1.399 . S
C548 C547 1.394 . S
C548 C549 1.516 . S
C549 C548 1.516 . S
C549 C550 1.502 . S
C549 C551 1.561 1_565 S
C549 C552 1.526 1_565 S
C550 H534 0.959 . S
C550 H535 0.959 . S
C550 H536 0.961 . S
C550 C549 1.502 . S
C551 H537 0.960 . S
C551 H538 0.961 . S
C551 H539 0.959 . S
C551 C549 1.561 1_545 S
C552 C549 1.526 1_545 S
C552 C553 1.396 . S
C552 C557 1.390 . S
C553 C547 1.465 1_545 S
C553 C552 1.396 . S
C553 C554 1.399 . S
C554 H540 0.929 . S
C554 C553 1.399 . S
C554 C555 1.385 . S
C555 H541 0.931 . S
C555 C554 1.385 . S
C555 C556 1.389 . S
C556 C555 1.389 . S
C556 C557 1.387 . S
C557 H542 0.930 . S
C557 C552 1.390 . S
C557 C556 1.387 . S
H558 C570 0.930 . S
H559 C572 0.930 . S
H560 C573 0.930 . S
H561 C577 0.959 . S
H562 C577 0.959 . S
H563 C577 0.961 . S
H564 C578 0.960 . S
H565 C578 0.961 . S
H566 C578 0.959 . S
H567 C581 0.929 . S
H568 C582 0.931 . S
H569 C584 0.930 1_565 S
C570 H558 0.930 . S
C570 C571 1.399 . S
C570 C575 1.399 . S
C571 C570 1.399 . S
C571 C572 1.376 1_565 S
C572 H559 0.930 . S
C572 C571 1.376 1_545 S
C572 C573 1.388 . S
C573 H560 0.930 . S
C573 C572 1.388 . S
C573 C574 1.390 . S
C574 C573 1.390 . S
C574 C575 1.394 1_545 S
C574 C580 1.465 . S
C575 C570 1.399 . S
C575 C574 1.394 1_565 S
C575 C576 1.516 . S
C576 C575 1.516 . S
C576 C577 1.502 . S
C576 C578 1.561 . S
C576 C579 1.526 . S
C577 H561 0.959 . S
C577 H562 0.959 . S
C577 H563 0.961 . S
C577 C576 1.502 . S
C578 H564 0.960 . S
C578 H565 0.961 . S
C578 H566 0.959 . S
C578 C576 1.561 . S
C579 C576 1.526 . S
C579 C580 1.396 1_565 S
C579 C584 1.390 1_565 S
C580 C574 1.465 . S
C580 C579 1.396 1_545 S
C580 C581 1.399 . S
C581 H567 0.929 . S
C581 C580 1.399 . S
C581 C582 1.385 . S
C582 H568 0.931 . S
C582 C581 1.385 . S
C582 C583 1.389 . S
C583 C582 1.389 . S
C583 C584 1.387 . S
C584 H569 0.930 1_545 S
C584 C579 1.390 1_545 S
C584 C583 1.387 . S
H585 C597 0.930 . S
H586 C599 0.930 . S
H587 C600 0.930 . S
H588 C604 0.959 . S
H589 C604 0.959 . S
H590 C604 0.961 . S
H591 C605 0.960 . S
H592 C605 0.961 1_545 S
H593 C605 0.959 . S
H594 C608 0.929 . S
H595 C609 0.931 . S
H596 C611 0.930 . S
C597 H585 0.930 . S
C597 C598 1.399 . S
C597 C602 1.399 . S
C598 C597 1.399 . S
C598 C599 1.376 . S
C599 H586 0.930 . S
C599 C598 1.376 . S
C599 C600 1.388 . S
C600 H587 0.930 . S
C600 C599 1.388 . S
C600 C601 1.390 . S
C601 C600 1.390 . S
C601 C602 1.394 . S
C601 C607 1.465 . S
C602 C597 1.399 . S
C602 C601 1.394 . S
C602 C603 1.516 1_565 S
C603 C602 1.516 1_545 S
C603 C604 1.502 . S
C603 C605 1.561 1_545 S
C603 C606 1.526 . S
C604 H588 0.959 . S
C604 H589 0.959 . S
C604 H590 0.961 . S
C604 C603 1.502 . S
C605 H591 0.960 . S
C605 H592 0.961 1_565 S
C605 H593 0.959 . S
C605 C603 1.561 1_565 S
C606 C603 1.526 . S
C606 C607 1.396 1_545 S
C606 C611 1.390 . S
C607 C601 1.465 . S
C607 C606 1.396 1_565 S
C607 C608 1.399 . S
C608 H594 0.929 . S
C608 C607 1.399 . S
C608 C609 1.385 1_565 S
C609 H595 0.931 . S
C609 C608 1.385 1_545 S
C609 C610 1.389 . S
C610 C609 1.389 . S
C610 C611 1.387 . S
C611 H596 0.930 . S
C611 C606 1.390 . S
C611 C610 1.387 . S
H612 C624 0.930 . S
H613 C626 0.930 . S
H614 C627 0.930 . S
H615 C631 0.959 . S
H616 C631 0.959 . S
H617 C631 0.961 . S
H618 C632 0.960 1_565 S
H619 C632 0.961 . S
H620 C632 0.959 . S
H621 C635 0.929 . S
H622 C636 0.931 . S
H623 C638 0.930 . S
C624 H612 0.930 . S
C624 C625 1.399 1_556 S
C624 C629 1.399 . S
C625 C624 1.399 1_554 S
C625 C626 1.376 . S
C626 H613 0.930 . S
C626 C625 1.376 . S
C626 C627 1.388 . S
C627 H614 0.930 . S
C627 C626 1.388 . S
C627 C628 1.390 . S
C628 C627 1.390 . S
C628 C629 1.394 1_554 S
C628 C634 1.465 1_565 S
C629 C624 1.399 . S
C629 C628 1.394 1_556 S
C629 C630 1.516 . S
C630 C629 1.516 . S
C630 C631 1.502 . S
C630 C632 1.561 1_565 S
C630 C633 1.526 1_565 S
C631 H615 0.959 . S
C631 H616 0.959 . S
C631 H617 0.961 . S
C631 C630 1.502 . S
C632 H618 0.960 1_545 S
C632 H619 0.961 . S
C632 H620 0.959 . S
C632 C630 1.561 1_545 S
C633 C630 1.526 1_545 S
C633 C634 1.396 1_556 S
C633 C638 1.390 . S
C634 C628 1.465 1_545 S
C634 C633 1.396 1_554 S
C634 C635 1.399 . S
C635 H621 0.929 . S
C635 C634 1.399 . S
C635 C636 1.385 . S
C636 H622 0.931 . S
C636 C635 1.385 . S
C636 C637 1.389 . S
C637 C636 1.389 . S
C637 C638 1.387 1_554 S
C638 H623 0.930 . S
C638 C633 1.390 . S
C638 C637 1.387 1_556 S
H639 C651 0.930 . S
H640 C653 0.930 . S
H641 C654 0.930 . S
H642 C658 0.959 . S
H643 C658 0.959 . S
H644 C658 0.961 . S
H645 C659 0.960 . S
H646 C659 0.961 . S
H647 C659 0.959 . S
H648 C662 0.929 . S
H649 C663 0.931 . S
H650 C665 0.930 . S
C651 H639 0.930 . S
C651 C652 1.399 . S
C651 C656 1.399 . S
C652 C651 1.399 . S
C652 C653 1.376 . S
C653 H640 0.930 . S
C653 C652 1.376 . S
C653 C654 1.388 . S
C654 H641 0.930 . S
C654 C653 1.388 . S
C654 C655 1.390 . S
C655 C654 1.390 . S
C655 C656 1.394 . S
C655 C661 1.465 1_565 S
C656 C651 1.399 . S
C656 C655 1.394 . S
C656 C657 1.516 1_565 S
C657 C656 1.516 1_545 S
C657 C658 1.502 . S
C657 C659 1.561 1_545 S
C657 C660 1.526 . S
C658 H642 0.959 . S
C658 H643 0.959 . S
C658 H644 0.961 . S
C658 C657 1.502 . S
C659 H645 0.960 . S
C659 H646 0.961 . S
C659 H647 0.959 . S
C659 C657 1.561 1_565 S
C660 C657 1.526 . S
C660 C661 1.396 . S
C660 C665 1.390 . S
C661 C655 1.465 1_545 S
C661 C660 1.396 . S
C661 C662 1.399 . S
C662 H648 0.929 . S
C662 C661 1.399 . S
C662 C663 1.385 . S
C663 H649 0.931 . S
C663 C662 1.385 . S
C663 C664 1.389 . S
C664 C663 1.389 . S
C664 C665 1.387 . S
C665 H650 0.930 . S
C665 C660 1.390 . S
C665 C664 1.387 . S
H666 C678 0.930 . S
H667 C680 0.930 . S
H668 C681 0.930 . S
H669 C685 0.959 . S
H670 C685 0.959 . S
H671 C685 0.961 . S
H672 C686 0.960 . S
H673 C686 0.961 . S
H674 C686 0.959 . S
H675 C689 0.929 . S
H676 C690 0.931 . S
H677 C692 0.930 . S
C678 H666 0.930 . S
C678 C679 1.399 . S
C678 C683 1.399 . S
C679 C678 1.399 . S
C679 C680 1.376 1_554 S
C680 H667 0.930 . S
C680 C679 1.376 1_556 S
C680 C681 1.388 . S
C681 H668 0.930 . S
C681 C680 1.388 . S
C681 C682 1.390 . S
C682 C681 1.390 . S
C682 C683 1.394 1_556 S
C682 C688 1.465 1_455 S
C683 C678 1.399 . S
C683 C682 1.394 1_554 S
C683 C684 1.516 . S
C684 C683 1.516 . S
C684 C685 1.502 . S
C684 C686 1.561 1_455 S
C684 C687 1.526 1_455 S
C685 H669 0.959 . S
C685 H670 0.959 . S
C685 H671 0.961 . S
C685 C684 1.502 . S
C686 H672 0.960 . S
C686 H673 0.961 . S
C686 H674 0.959 . S
C686 C684 1.561 1_655 S
C687 C684 1.526 1_655 S
C687 C688 1.396 1_554 S
C687 C692 1.390 . S
C688 C682 1.465 1_655 S
C688 C687 1.396 1_556 S
C688 C689 1.399 . S
C689 H675 0.929 . S
C689 C688 1.399 . S
C689 C690 1.385 . S
C690 H676 0.931 . S
C690 C689 1.385 . S
C690 C691 1.389 1_556 S
C691 C690 1.389 1_554 S
C691 C692 1.387 . S
C692 H677 0.930 . S
C692 C687 1.390 . S
C692 C691 1.387 . S
H693 C705 0.930 . S
H694 C707 0.930 . S
H695 C708 0.930 . S
H696 C712 0.959 . S
H697 C712 0.959 . S
H698 C712 0.961 1_455 S
H699 C713 0.960 . S
H700 C713 0.961 . S
H701 C713 0.959 . S
H702 C716 0.929 . S
H703 C717 0.931 . S
H704 C719 0.930 . S
C705 H693 0.930 . S
C705 C706 1.399 . S
C705 C710 1.399 . S
C706 C705 1.399 . S
C706 C707 1.376 . S
C707 H694 0.930 . S
C707 C706 1.376 . S
C707 C708 1.388 . S
C708 H695 0.930 . S
C708 C707 1.388 . S
C708 C709 1.390 . S
C709 C708 1.390 . S
C709 C710 1.394 . S
C709 C715 1.465 1_455 S
C710 C705 1.399 . S
C710 C709 1.394 . S
C710 C711 1.516 . S
C711 C710 1.516 . S
C711 C712 1.502 1_455 S
C711 C713 1.561 . S
C711 C714 1.526 1_455 S
C712 H696 0.959 . S
C712 H697 0.959 . S
C712 H698 0.961 1_655 S
C712 C711 1.502 1_655 S
C713 H699 0.960 . S
C713 H700 0.961 . S
C713 H701 0.959 . S
C713 C711 1.561 . S
C714 C711 1.526 1_655 S
C714 C715 1.396 . S
C714 C719 1.390 . S
C715 C709 1.465 1_655 S
C715 C714 1.396 . S
C715 C716 1.399 . S
C716 H702 0.929 . S
C716 C715 1.399 . S
C716 C717 1.385 . S
C717 H703 0.931 . S
C717 C716 1.385 . S
C717 C718 1.389 . S
C718 C717 1.389 . S
C718 C719 1.387 . S
C719 H704 0.930 . S
C719 C714 1.390 . S
C719 C718 1.387 . S
C301 C183 1.506 . S
C313 C3 1.503 1_556 S
C328 C147 1.503 . S
C340 C39 1.500 . S
C355 C255 1.492 . S
C367 C75 1.495 . S
C382 C219 1.500 . S
C394 C111 1.503 . S
C409 C14 1.393 . S
C421 C86 1.389 . S
C436 C50 1.387 . S
C448 C122 1.383 . S
C463 C38 1.323 . S
C475 C110 1.363 . S
C490 C2 1.344 . S
C502 C74 1.339 . S
C517 C158 1.390 . S
C529 C230 1.386 . S
C544 C266 1.344 . S
C556 C194 1.342 . S
C571 C254 1.375 . S
C583 C182 1.328 . S
C598 C146 1.335 . S
C610 C218 1.372 . S
C625 C40 1.503 . S
C637 C4 1.495 . S
C652 C76 1.487 . S
C664 C112 1.494 . S
C679 C148 1.487 . S
C691 C184 1.494 . S
C706 C220 1.502 . S
C718 C256 1.499 . S
