# Generated by pormake.
# Topology snp, (6)-cn, num edge types: 1
# Building blocks:
#     Node 0, Type 0, BuildingBlock: JUFBIX_clean_sbu_0, # of connection points: 6
#     Node 1, Type 0, BuildingBlock: JUFBIX_clean_sbu_0, # of connection points: 6
#     Node 2, Type 0, BuildingBlock: JUFBIX_clean_sbu_0, # of connection points: 6
#     Node 3, Type 0, BuildingBlock: JUFBIX_clean_sbu_0, # of connection points: 6
#     Edge 4, Type (0, 0), BuildingBlock: TEMPAE_clean_linker_10, # of connection points: 2
#     Edge 5, Type (0, 0), BuildingBlock: TEMPAE_clean_linker_10, # of connection points: 2
#     Edge 6, Type (0, 0), BuildingBlock: TEMPAE_clean_linker_10, # of connection points: 2
#     Edge 7, Type (0, 0), BuildingBlock: TEMPAE_clean_linker_10, # of connection points: 2
#     Edge 8, Type (0, 0), BuildingBlock: TEMPAE_clean_linker_10, # of connection points: 2
#     Edge 9, Type (0, 0), BuildingBlock: TEMPAE_clean_linker_10, # of connection points: 2
#     Edge 10, Type (0, 0), BuildingBlock: TEMPAE_clean_linker_10, # of connection points: 2
#     Edge 11, Type (0, 0), BuildingBlock: TEMPAE_clean_linker_10, # of connection points: 2
#     Edge 12, Type (0, 0), BuildingBlock: TEMPAE_clean_linker_10, # of connection points: 2
#     Edge 13, Type (0, 0), BuildingBlock: TEMPAE_clean_linker_10, # of connection points: 2
#     Edge 14, Type (0, 0), BuildingBlock: TEMPAE_clean_linker_10, # of connection points: 2
#     Edge 15, Type (0, 0), BuildingBlock: TEMPAE_clean_linker_10, # of connection points: 2
# Relax obj value: 0.716
# Max RMSD: 0.268
# Mean RMSD: 0.265
data_MOF--net-snp--node1-JUFBIX_clean_sbu_0--edge1-TEMPAE_clean_linker_10
_symmetry_space_group_name_H-M    P1
_symmetry_Int_Tables_number       1
_symmetry_cell_setting            triclinic
loop_
_symmetry_equiv_pos_as_xyz
'x, y, z'
_cell_length_a     26.604887
_cell_length_b     26.685928
_cell_length_c     27.737781
_cell_angle_alpha  88.65986
_cell_angle_beta   97.236915
_cell_angle_gamma 98.322851
loop_
_atom_site_label
_atom_site_type_symbol
_atom_site_fract_x
_atom_site_fract_y
_atom_site_fract_z
_atom_type_partial_charge
Co0 Co 0.25177 0.0806 0.09548 0.0
C1 C 0.3462 0.04321 0.10512 0.0
Co2 Co 0.25704 0.01524 0.04904 0.0
C3 C 0.23039 0.14308 0.1746 0.0
C4 C 0.28898 0.17885 0.13394 0.0
N5 N 0.25477 0.13648 0.13568 0.0
N6 N 0.24814 0.188 0.19693 0.0
C7 C 0.28493 0.21036 0.17108 0.0
H8 H 0.20122 0.11494 0.18699 0.0
H9 H 0.31706 0.18557 0.10866 0.0
C10 C 0.16382 0.05275 0.03702 0.0
N11 N 0.25359 0.96075 1.00655 0.0
C12 C 0.23251 0.95932 0.95939 0.0
C13 C 0.26511 0.91375 0.01595 0.0
N14 N 0.22962 0.91322 0.93881 0.0
C15 C 0.25051 0.88459 0.97466 0.0
C16 C 0.22344 0.98787 0.13985 0.0
O17 O 0.18183 0.08382 0.07119 0.0
O18 O 0.19106 0.02132 0.02475 0.0
O19 O 0.23252 0.97 0.09994 0.0
O20 O 0.23066 0.03566 0.14563 0.0
O21 O 0.3246 0.01013 0.07403 0.0
H22 H 0.28126 0.90095 0.05104 0.0
H23 H 0.21835 -0.00838 0.9411 0.0
O24 O 0.32141 0.07669 0.11845 0.0
O25 O 0.27196 0.12446 0.0448 0.0
O26 O 0.28011 0.06084 0.99944 0.0
C27 C 0.28238 0.10829 1.00517 0.0
H28 H 0.30936 0.24584 0.17984 0.0
H29 H 0.25339 0.84475 0.97227 0.0
Co30 Co 0.05654 0.25427 0.67255 0.0
C31 C 0.05506 0.35532 0.64802 0.0
Co32 Co 0.12054 0.28929 0.63325 0.0
C33 C 0.00447 0.20723 0.75262 0.0
C34 C 0.95405 0.23244 0.69366 0.0
N35 N 0.00377 0.22899 0.70806 0.0
N36 N 0.95703 0.19738 0.76649 0.0
C37 C 0.92536 0.21293 0.72916 0.0
H38 H 0.03918 0.2002 0.77494 0.0
H39 H 0.93954 0.24904 0.65972 0.0
C40 C 0.12114 0.18859 0.65531 0.0
N41 N 0.17243 0.3133 0.59485 0.0
C42 C 0.16659 0.31442 0.54567 0.0
C43 C 0.22338 0.31614 0.60739 0.0
N44 N 0.21101 0.31466 0.52675 0.0
C45 C 0.24709 0.31709 0.56586 0.0
C46 C 0.14586 0.29563 0.73148 0.0
O47 O 0.08135 0.19173 0.67551 0.0
O48 O 0.14446 0.22766 0.63694 0.0
O49 O 0.1636 0.30886 0.6918 0.0
O50 O 0.0997 0.27438 0.73021 0.0
O51 O 0.09586 0.35199 0.62958 0.0
H52 H 0.24177 0.31234 0.64407 0.0
H53 H 0.12975 0.31012 0.52394 0.0
O54 O 0.03242 0.31706 0.6685 0.0
O55 O 0.01372 0.23251 0.61439 0.0
O56 O 0.07634 0.26643 0.57547 0.0
C57 C 0.03214 0.24107 0.57466 0.0
H58 H 0.88421 0.21044 0.72749 0.0
H59 H 0.28739 0.31564 0.56517 0.0
Co60 Co 0.8048 -0.00998 0.14552 0.0
C61 C 0.85278 0.91589 0.10992 0.0
Co62 Co 0.75476 0.93786 0.09243 0.0
C63 C 0.84318 0.04303 0.23797 0.0
C64 C 0.89318 0.05802 0.18295 0.0
N65 N 0.84782 0.03163 0.19151 0.0
N66 N 0.88349 0.07604 0.2578 0.0
C67 C 0.91484 0.08557 0.22335 0.0
H68 H 0.81089 0.02793 0.25666 0.0
H69 H 0.90976 0.05722 0.14937 0.0
C70 C 0.70675 0.01238 0.12553 0.0
N71 N 0.71652 0.89608 0.04366 0.0
C72 C 0.73547 0.88879 1.00191 0.0
C73 C 0.67286 0.86288 0.0414 0.0
N74 N 0.70699 0.85198 0.97418 0.0
C75 C 0.66673 0.83578 0.99835 0.0
C76 C 0.7515 0.90497 0.18593 0.0
O77 O 0.74922 0.02531 0.15189 0.0
O78 O 0.70118 0.9753 0.09634 0.0
O79 O 0.73207 0.8935 0.14254 0.0
O80 O 0.78393 0.94477 0.19397 0.0
O81 O 0.8084 0.90112 0.08881 0.0
H82 H 0.64844 0.85707 0.06999 0.0
H83 H 0.77074 0.90936 0.99225 0.0
O84 O 0.85971 0.95379 0.13812 0.0
O85 O 0.82561 0.03517 0.09576 0.0
O86 O 0.77902 0.9829 0.04316 0.0
C87 C 0.81073 0.02281 0.05197 0.0
H88 H 0.95119 0.11024 0.22748 0.0
H89 H 0.63658 0.80509 0.98699 0.0
Co90 Co 0.93048 0.78392 0.56291 0.0
C91 C 0.9776 0.86838 0.51942 0.0
Co92 Co 0.99235 0.7692 0.52032 0.0
C93 C 0.86843 0.78547 0.64332 0.0
C94 C 0.84114 0.82476 0.57933 0.0
N95 N 0.87765 0.79666 0.59708 0.0
N96 N 0.828 0.80614 0.65493 0.0
C97 C 0.81083 0.83078 0.6147 0.0
H98 H 0.89218 0.76458 0.66856 0.0
H99 H 0.8377 0.84121 0.54325 0.0
C100 C 0.94829 0.68461 0.56436 0.0
N101 N 0.0443 0.76139 0.48209 0.0
C102 C 0.04813 0.78378 0.43802 0.0
C103 C 0.08791 0.74108 0.49248 0.0
N104 N 0.09252 0.77929 0.42063 0.0
C105 C 0.11758 0.75203 0.45492 0.0
C106 C 0.02595 0.79617 0.61811 0.0
O107 O 0.92046 0.71435 0.57966 0.0
O108 O 0.983 0.70108 0.53793 0.0
O109 O 0.04176 0.78522 0.57841 0.0
O110 O 0.97835 0.79673 0.61891 0.0
O111 O 0.00075 0.83582 0.5032 0.0
H112 H 0.09851 0.7216 0.52605 0.0
H113 H 0.01998 0.8059 0.42039 0.0
O114 O 0.9428 0.85422 0.54624 0.0
O115 O 0.88276 0.77056 0.50644 0.0
O116 O 0.94345 0.75448 0.46509 0.0
C117 C 0.8966 0.75761 0.46699 0.0
H118 H 0.77909 0.85237 0.61144 0.0
H119 H 0.15527 0.74173 0.45376 0.0
C120 C 0.88977 0.90699 0.03539 0.0
C121 C 0.89603 0.90493 0.08633 0.0
C122 C 0.92937 0.9304 1.01074 0.0
C123 C 0.9777 0.94507 0.03761 0.0
C124 C 0.98704 0.92951 0.08688 0.0
C125 C 0.94524 0.91191 0.1116 0.0
C126 C 0.91745 0.94398 0.95774 0.0
C127 C 0.03995 0.93734 0.11505 0.0
C128 C 0.09381 0.00449 0.98387 0.0
C129 C 0.10939 0.04372 0.01782 0.0
C130 C 0.04818 0.97219 0.98655 0.0
C131 C 0.01506 0.98456 0.01891 0.0
C132 C 0.02446 0.03273 0.0417 0.0
C133 C 0.073 0.06122 0.04265 0.0
C134 C 0.0394 0.92302 0.95875 0.0
C135 C 0.98629 0.05101 0.07056 0.0
H136 H 0.85202 0.89893 0.01555 0.0
H137 H 0.95049 0.90843 0.15089 0.0
H138 H 0.93595 0.98268 0.9498 0.0
H139 H 0.93183 0.91689 0.93506 0.0
H140 H 0.87562 0.9417 0.9464 0.0
H141 H 0.04357 0.90819 0.14406 0.0
H142 H 0.06997 0.93576 0.09092 0.0
H143 H 0.04696 0.97488 0.13294 0.0
H144 H 0.12085 -0.00642 0.96129 0.0
H145 H 0.08381 0.09346 0.06672 0.0
H146 H 0.02056 0.92969 0.92161 0.0
H147 H 0.01508 0.89237 0.9762 0.0
H148 H 0.07628 0.90957 0.95468 0.0
H149 H 0.98843 0.09282 0.06764 0.0
H150 H -0.00453 0.04157 0.10954 0.0
H151 H 0.94659 0.03325 0.05802 0.0
C152 C 0.97904 0.96057 0.53242 0.0
C153 C 0.00352 0.92052 0.52057 0.0
C154 C 0.00814 0.00646 0.54825 0.0
C155 C 0.06232 0.01028 0.55479 0.0
C156 C 0.08687 0.97148 0.53908 0.0
C157 C 0.05693 0.9277 0.52036 0.0
C158 C 0.98124 0.04926 0.56185 0.0
C159 C 0.14432 0.97267 0.54763 0.0
C160 C 0.13331 0.13866 0.58662 0.0
C161 C 0.12718 0.13994 0.6361 0.0
C162 C 0.11425 0.09548 0.55936 0.0
C163 C 0.09252 0.05209 0.58331 0.0
C164 C 0.09457 0.05068 0.63459 0.0
C165 C 0.11092 0.09547 0.66057 0.0
C166 C 0.11158 0.09842 0.50462 0.0
C167 C 0.07513 0.00325 0.66128 0.0
H168 H 0.93779 0.9551 0.53187 0.0
H169 H 0.07629 0.89683 0.51105 0.0
H170 H 0.98726 0.05439 0.60183 0.0
H171 H -0.00251 0.08529 0.5452 0.0
H172 H 0.93938 0.04205 0.5501 0.0
H173 H 0.15757 0.94937 0.52038 0.0
H174 H 0.16545 0.01155 0.54673 0.0
H175 H 0.15467 0.95636 0.58411 0.0
H176 H 0.14616 0.17325 0.56764 0.0
H177 H 0.10691 0.09677 0.69894 0.0
H178 H 0.07102 0.09691 0.48865 0.0
H179 H 0.12618 0.06568 0.4902 0.0
H180 H 0.13362 0.13388 0.4921 0.0
H181 H 0.03355 -0.00783 0.65014 0.0
H182 H 0.0812 0.00856 0.70126 0.0
H183 H 0.09481 0.97149 0.6519 0.0
C184 C 0.64637 0.03901 0.1773 0.0
C185 C 0.66217 0.03661 0.13129 0.0
C186 C 0.59671 0.04845 0.18186 0.0
C187 C 0.56333 0.05654 0.13939 0.0
C188 C 0.58157 0.05989 0.09346 0.0
C189 C 0.6307 0.04893 0.08989 0.0
C190 C 0.5785 0.04436 0.23136 0.0
C191 C 0.54758 0.06999 0.04746 0.0
C192 C 0.42412 0.00169 0.12175 0.0
C193 C 0.40083 0.04531 0.12255 0.0
C194 C 0.47726 0.0044 0.13147 0.0
C195 C 0.50759 0.05211 0.14102 0.0
C196 C 0.48403 0.09577 0.14499 0.0
C197 C 0.43059 0.09175 0.13606 0.0
C198 C 0.50105 0.95669 0.12813 0.0
C199 C 0.51515 0.14725 0.15474 0.0
H200 H 0.67103 0.02906 0.20919 0.0
H201 H 0.64354 0.04726 0.05443 0.0
H202 H 0.55314 0.07301 0.23582 0.0
H203 H 0.55601 0.00641 0.23532 0.0
H204 H 0.61107 0.04902 0.26095 0.0
H205 H 0.56984 0.07944 0.01635 0.0
H206 H 0.51928 0.03579 0.03791 0.0
H207 H 0.52598 0.10159 0.05278 0.0
H208 H 0.40091 0.96567 0.11203 0.0
H209 H 0.41244 0.12555 0.13672 0.0
H210 H 0.53056 0.95357 0.15967 0.0
H211 H 0.52025 0.95807 0.09475 0.0
H212 H 0.47214 0.92208 0.12679 0.0
H213 H 0.54812 0.14501 0.18308 0.0
H214 H 0.49166 0.17491 0.16635 0.0
H215 H 0.53073 0.16179 0.12102 0.0
C216 C 0.97976 0.40086 0.64548 0.0
C217 C 0.0324 0.40233 0.64369 0.0
C218 C 0.95662 0.44462 0.637 0.0
C219 C 0.98723 0.49067 0.62741 0.0
C220 C 0.04085 0.49282 0.6282 0.0
C221 C 0.06276 0.44833 0.6358 0.0
C222 C 0.89929 0.44095 0.6356 0.0
C223 C 0.07481 0.5417 0.61901 0.0
C224 C 0.94492 0.59447 0.54611 0.0
C225 C 0.944 0.63196 0.58012 0.0
C226 C 0.95361 0.54593 0.56133 0.0
C227 C 0.96337 0.53581 0.61168 0.0
C228 C 0.95828 0.57247 0.64612 0.0
C229 C 0.94795 0.62039 0.62973 0.0
C230 C 0.95719 0.50716 0.52356 0.0
C231 C 0.96901 0.56309 0.70006 0.0
H232 H 0.95624 0.36509 0.65148 0.0
H233 H 0.10355 0.44944 0.63502 0.0
H234 H 0.88921 0.47204 0.65671 0.0
H235 H 0.8818 0.44498 0.59748 0.0
H236 H 0.88208 0.40415 0.65013 0.0
H237 H 0.11613 0.53779 0.62582 0.0
H238 H 0.06607 0.55383 0.58071 0.0
H239 H 0.06742 0.5722 0.64255 0.0
H240 H 0.94148 0.60394 0.50769 0.0
H241 H 0.94754 0.64998 0.65577 0.0
H242 H 0.93745 0.46943 0.53319 0.0
H243 H -0.002 0.50357 0.52206 0.0
H244 H 0.94025 0.51797 0.48679 0.0
H245 H 0.95178 0.52446 0.70993 0.0
H246 H 0.95426 0.59115 0.72155 0.0
H247 H 0.01099 0.56604 0.71048 0.0
C248 C 0.17416 0.30093 0.44027 0.0
C249 C 0.21575 0.30116 0.47719 0.0
C250 C 0.17546 0.28146 0.39391 0.0
C251 C 0.22016 0.2634 0.38313 0.0
C252 C 0.26304 0.2653 0.41922 0.0
C253 C 0.26023 0.28372 0.46574 0.0
C254 C 0.12878 0.28 0.35653 0.0
C255 C 0.31186 0.24731 0.40884 0.0
C256 C 0.21685 0.17359 0.27748 0.0
C257 C 0.23571 0.20682 0.24182 0.0
C258 C 0.21005 0.19161 0.32319 0.0
C259 C 0.22286 0.24399 0.33365 0.0
C260 C 0.24011 0.27784 0.29726 0.0
C261 C 0.24581 0.25894 0.25181 0.0
C262 C 0.19039 0.15445 0.36073 0.0
C263 C 0.25426 0.33393 0.30682 0.0
H264 H 0.13995 0.31542 0.44738 0.0
H265 H 0.29277 0.28327 0.49322 0.0
H266 H 0.13727 0.30704 0.32667 0.0
H267 H 0.11842 0.24175 0.34023 0.0
H268 H 0.09514 0.28996 0.37226 0.0
H269 H 0.34219 0.25219 0.44046 0.0
H270 H 0.30407 0.20666 0.39885 0.0
H271 H 0.3266 0.26852 0.37744 0.0
H272 H 0.20904 0.13332 0.27037 0.0
H273 H 0.2591 0.28515 0.22423 0.0
H274 H 0.15652 0.16663 0.37415 0.0
H275 H 0.22019 0.15367 0.39243 0.0
H276 H 0.17953 0.11544 0.34612 0.0
H277 H 0.22153 0.34959 0.31885 0.0
H278 H 0.26578 0.35537 0.27421 0.0
H279 H 0.28646 0.34034 0.3366 0.0
C280 C 0.89792 0.18804 0.82868 0.0
C281 C 0.94224 0.1761 0.81176 0.0
C282 C 0.87993 0.16457 0.87007 0.0
C283 C 0.90719 0.12849 0.89574 0.0
C284 C 0.95355 0.11813 0.88052 0.0
C285 C 0.97038 0.1419 0.83846 0.0
C286 C 0.83074 0.17727 0.88541 0.0
C287 C 0.98444 0.08036 0.90685 0.0
C288 C 0.86984 0.09491 0.02146 0.0
C289 C 0.83429 0.05098 0.01195 0.0
C290 C 0.89543 0.11954 0.98433 0.0
C291 C 0.88493 0.09999 0.93657 0.0
C292 C 0.84967 0.05529 0.92692 0.0
C293 C 0.82456 0.03153 0.96462 0.0
C294 C 0.93387 0.16633 0.99614 0.0
C295 C 0.83846 0.03253 0.8767 0.0
H296 H 0.87677 0.21555 0.80919 0.0
H297 H 0.00462 0.13239 0.82565 0.0
H298 H 0.80131 0.14309 0.88244 0.0
H299 H 0.83698 0.18927 0.92398 0.0
H300 H 0.81544 0.2079 0.86283 0.0
H301 H 0.02581 0.09057 0.9033 0.0
H302 H 0.97974 0.0774 0.94603 0.0
H303 H 0.9716 0.04256 0.89018 0.0
H304 H 0.87824 0.10972 0.0581 0.0
H305 H 0.79783 -0.00285 0.95705 0.0
H306 H 0.92163 0.19904 0.97468 0.0
H307 H 0.97158 0.16048 0.98585 0.0
H308 H 0.93869 0.176 0.03535 0.0
H309 H 0.82189 0.05978 0.8507 0.0
H310 H 0.81137 -0.00339 0.8756 0.0
H311 H 0.87456 0.02483 0.86411 0.0
C312 C 0.87837 0.76321 0.37738 0.0
C313 C 0.86005 0.75373 0.42231 0.0
C314 C 0.84546 0.7741 0.33634 0.0
C315 C 0.79281 0.77401 0.34033 0.0
C316 C 0.77305 0.75676 0.38369 0.0
C317 C 0.80717 0.74781 0.42473 0.0
C318 C 0.86835 0.79194 0.29065 0.0
C319 C 0.71672 0.75249 0.38831 0.0
C320 C 0.7563 0.88908 0.27406 0.0
C321 C 0.74308 0.87005 0.22687 0.0
C322 C 0.76722 0.85692 0.31312 0.0
C323 C 0.76333 0.80426 0.30472 0.0
C324 C 0.74178 0.78417 0.25869 0.0
C325 C 0.73235 0.81758 0.21976 0.0
C326 C 0.78936 0.88028 0.36176 0.0
C327 C 0.73349 0.72801 0.24921 0.0
H328 H 0.91917 0.76698 0.37522 0.0
H329 H 0.7927 0.73899 0.45924 0.0
H330 H 0.84641 0.77166 0.25853 0.0
H331 H 0.86636 0.83297 0.28505 0.0
H332 H 0.90903 0.78602 0.29238 0.0
H333 H 0.70547 0.72239 0.41484 0.0
H334 H 0.70827 0.78876 0.40187 0.0
H335 H 0.69294 0.74408 0.35282 0.0
H336 H 0.76299 0.92971 0.27974 0.0
H337 H 0.72103 0.80266 0.18336 0.0
H338 H 0.83023 0.87508 0.36978 0.0
H339 H 0.76892 0.86144 0.39116 0.0
H340 H 0.78699 0.92147 0.36269 0.0
H341 H 0.76798 0.71711 0.2359 0.0
H342 H 0.70059 0.71773 0.22067 0.0
H343 H 0.72648 0.70581 0.28265 0.0
C344 C 0.04292 0.80134 0.70866 0.0
C345 C 0.0614 0.80955 0.66346 0.0
C346 C 0.07329 0.81744 0.75225 0.0
C347 C 0.12351 0.84334 0.75103 0.0
C348 C 0.14276 0.85127 0.70551 0.0
C349 C 0.11164 0.83391 0.66231 0.0
C350 C 0.05106 0.80759 0.79965 0.0
C351 C 0.19558 0.87957 0.70226 0.0
C352 C 0.17453 0.92736 0.86135 0.0
C353 C 0.20565 0.89703 0.89037 0.0
C354 C 0.14948 0.91125 0.81535 0.0
C355 C 0.1547 0.86321 0.79748 0.0
C356 C 0.18665 0.83273 0.82591 0.0
C357 C 0.21187 0.85003 0.87158 0.0
C358 C 0.11665 0.94548 0.78605 0.0
C359 C 0.19314 0.7811 0.80863 0.0
H360 H 0.00416 0.78248 0.70997 0.0
H361 H 0.12594 0.84111 0.62752 0.0
H362 H 0.0766 0.7872 0.8253 0.0
H363 H 0.0483 0.84408 0.8168 0.0
H364 H 0.01235 0.78488 0.79468 0.0
H365 H 0.20633 0.87958 0.66483 0.0
H366 H 0.19713 0.9194 0.71365 0.0
H367 H 0.22444 0.86259 0.72735 0.0
H368 H 0.16861 0.96351 0.87468 0.0
H369 H 0.23617 0.82622 0.8926 0.0
H370 H 0.07623 0.92705 0.78059 0.0
H371 H 0.12949 0.95199 0.74964 0.0
H372 H 0.11828 0.98272 0.80372 0.0
H373 H 0.15577 0.75604 0.80547 0.0
H374 H 0.22126 0.76297 0.83366 0.0
H375 H 0.20591 0.78406 0.77198 0.0
C376 C 0.68464 0.81786 0.89055 0.0
C377 C 0.72125 0.83288 0.9303 0.0
C378 C 0.6998 0.80674 0.84551 0.0
C379 C 0.75269 0.81112 0.84028 0.0
C380 C 0.78949 0.82328 0.88123 0.0
C381 C 0.77327 0.8334 0.92562 0.0
C382 C 0.65938 0.79292 0.8029 0.0
C383 C 0.84625 0.82904 0.87764 0.0
C384 C 0.80291 0.76261 0.72977 0.0
C385 C 0.80941 0.8067 0.70147 0.0
C386 C 0.78268 0.76283 0.77432 0.0
C387 C 0.77003 0.80855 0.79139 0.0
C388 C 0.77723 0.85326 0.76304 0.0
C389 C 0.79624 0.85159 0.71828 0.0
C390 C 0.77509 0.71433 0.80325 0.0
C391 C 0.76593 0.90321 0.78046 0.0
H392 H 0.64444 0.81717 0.89404 0.0
H393 H 0.80169 0.84329 0.95661 0.0
H394 H 0.65981 0.8248 0.77649 0.0
H395 H 0.66756 0.75948 0.78381 0.0
H396 H 0.62042 0.7845 0.81421 0.0
H397 H 0.86943 0.83155 0.91396 0.0
H398 H 0.85585 0.79685 0.85774 0.0
H399 H 0.85759 0.86413 0.85701 0.0
H400 H 0.81271 0.72785 0.7165 0.0
H401 H 0.80185 0.88581 0.69663 0.0
H402 H 0.73497 0.70637 0.81157 0.0
H403 H 0.80016 0.71836 0.83847 0.0
H404 H 0.78384 0.68142 0.78366 0.0
H405 H 0.72553 0.89965 0.78778 0.0
H406 H 0.77276 0.93427 0.75367 0.0
H407 H 0.79044 0.91396 0.8151 0.0
C408 C 0.19308 0.97544 0.22216 0.0
C409 C 0.20387 0.95417 0.17936 0.0
C410 C 0.17445 0.94501 0.26001 0.0
C411 C 0.16625 0.89157 0.25546 0.0
C412 C 0.17676 0.86974 0.21229 0.0
C413 C 0.19535 0.9012 0.17482 0.0
C414 C 0.1636 0.97022 0.30503 0.0
C415 C 0.16854 0.81305 0.20575 0.0
C416 C 0.16376 0.81597 0.37445 0.0
C417 C 0.11104 0.80393 0.37756 0.0
C418 C 0.18213 0.84311 0.33444 0.0
C419 C 0.14715 0.85892 0.29623 0.0
C420 C 0.09391 0.84581 0.29845 0.0
C421 C 0.0766 0.81852 0.33882 0.0
C422 C 0.23918 0.85618 0.33379 0.0
C423 C 0.05509 0.86156 0.25861 0.0
H424 H 0.19917 0.01625 0.22625 0.0
H425 H 0.20328 0.88424 0.14198 0.0
H426 H 0.12289 0.95924 0.31059 0.0
H427 H 0.18725 0.95724 0.33746 0.0
H428 H 0.17166 0.0122 0.3029 0.0
H429 H 0.17823 0.80187 0.17009 0.0
H430 H 0.19242 0.7952 0.23507 0.0
H431 H 0.12801 0.79764 0.20868 0.0
H432 H 0.19094 0.80557 0.40403 0.0
H433 H 0.03584 0.80883 0.34006 0.0
H434 H 0.2502 0.89787 0.33572 0.0
H435 H 0.25013 0.84353 0.29925 0.0
H436 H 0.2614 0.83859 0.36459 0.0
H437 H 0.05952 0.90348 0.25588 0.0
H438 H 0.0151 0.84732 0.26497 0.0
H439 H 0.06174 0.84721 0.22308 0.0
C440 C 0.23304 0.29124 0.77591 0.0
C441 C 0.18054 0.29193 0.77714 0.0
C442 C 0.2627 0.26988 0.81444 0.0
C443 C 0.23901 0.24845 0.85455 0.0
C444 C 0.18756 0.25432 0.85825 0.0
C445 C 0.15919 0.27656 0.81975 0.0
C446 C 0.31796 0.26616 0.81001 0.0
C447 C 0.16068 0.23238 0.90049 0.0
C448 C 0.26831 0.12673 0.91656 0.0
C449 C 0.28649 0.14383 0.96376 0.0
C450 C 0.25665 0.16107 0.87916 0.0
C451 C 0.2645 0.21372 0.88913 0.0
C452 C 0.28864 0.23131 0.9352 0.0
C453 C 0.29879 0.19608 0.97224 0.0
C454 C 0.23094 0.14059 0.8305 0.0
C455 C 0.29947 0.28708 0.94681 0.0
H456 H 0.25003 0.30332 0.74327 0.0
H457 H 0.11883 0.27766 0.82128 0.0
H458 H 0.34186 0.27121 0.84581 0.0
H459 H 0.32085 0.22806 0.79638 0.0
H460 H 0.33377 0.29482 0.78412 0.0
H461 H 0.12205 0.24379 0.89979 0.0
H462 H 0.15636 0.1904 0.89937 0.0
H463 H 0.18364 0.2446 0.93548 0.0
H464 H 0.25868 0.08641 0.90981 0.0
H465 H 0.31344 0.20948 1.00863 0.0
H466 H 0.2492 0.16107 0.80053 0.0
H467 H 0.19016 0.14656 0.82593 0.0
H468 H 0.23244 0.09946 0.82696 0.0
H469 H 0.31279 0.30945 0.91544 0.0
H470 H 0.32875 0.29491 0.979 0.0
H471 H 0.26378 0.30031 0.95489 0.0
C472 C 0.90633 0.06657 0.34582 0.0
C473 C 0.89333 0.09703 0.30579 0.0
C474 C 0.92593 0.08829 0.39133 0.0
C475 C 0.93125 0.14162 0.39698 0.0
C476 C 0.91545 0.17207 0.35696 0.0
C477 C 0.89748 0.14943 0.31168 0.0
C478 C 0.94285 0.0544 0.43266 0.0
C479 C 0.91952 0.22884 0.3614 0.0
C480 C 0.95292 0.19902 0.52402 0.0
C481 C 0.00549 0.21712 0.52891 0.0
C482 C 0.92814 0.17422 0.48141 0.0
C483 C 0.95687 0.16619 0.4433 0.0
C484 C 0.01018 0.1836 0.44853 0.0
C485 C 0.03366 0.20926 0.49094 0.0
C486 C 0.87115 0.1572 0.47692 0.0
C487 C 0.04262 0.17482 0.40945 0.0
H488 H 0.90378 0.0261 0.34067 0.0
H489 H 0.88783 0.17273 0.28029 0.0
H490 H 0.98312 0.06766 0.44761 0.0
H491 H 0.9189 0.05613 0.4623 0.0
H492 H 0.93971 0.01428 0.42138 0.0
H493 H 0.90066 0.24633 0.32852 0.0
H494 H 0.90187 0.23863 0.39347 0.0
H495 H 0.96042 0.24578 0.36698 0.0
H496 H 0.93103 0.20463 0.55339 0.0
H497 H 0.07453 0.2221 0.49482 0.0
H498 H 0.86295 0.11554 0.47232 0.0
H499 H 0.85203 0.17453 0.44412 0.0
H500 H 0.85408 0.16754 0.50919 0.0
H501 H 0.03783 0.13386 0.40087 0.0
H502 H 0.08392 0.18819 0.42036 0.0
H503 H 0.02999 0.1949 0.37562 0.0
loop_
_geom_bond_atom_site_label_1
_geom_bond_atom_site_label_2
_geom_bond_distance
_geom_bond_site_symmetry_2
_ccdc_geom_bond_type
Co0 N5 2.057 . S
Co0 O17 2.021 . S
Co0 O20 2.062 . S
Co0 O24 2.117 . S
Co0 O25 2.020 . S
C1 O21 1.259 . S
C1 O24 1.258 . S
Co2 N11 2.057 1_544 S
Co2 O18 2.117 . S
Co2 O19 2.020 1_545 S
Co2 O21 2.021 . S
Co2 O26 2.062 1_554 S
C3 N5 1.316 . S
C3 N6 1.347 . S
C3 H8 0.931 . S
C4 N5 1.375 . S
C4 C7 1.350 . S
C4 H9 0.930 . S
N5 Co0 2.057 . S
N5 C3 1.316 . S
N5 C4 1.375 . S
N6 C3 1.347 . S
N6 C7 1.373 . S
C7 C4 1.350 . S
C7 N6 1.373 . S
C7 H28 0.931 . S
H8 C3 0.931 . S
H9 C4 0.930 . S
C10 O17 1.259 . S
C10 O18 1.258 . S
N11 Co2 2.057 1_566 S
N11 C12 1.316 . S
N11 C13 1.375 . S
C12 N11 1.316 . S
C12 N14 1.347 . S
C12 H23 0.931 . S
C13 N11 1.375 . S
C13 C15 1.350 . S
C13 H22 0.930 . S
N14 C12 1.347 . S
N14 C15 1.373 . S
C15 C13 1.350 . S
C15 N14 1.373 . S
C15 H29 0.931 . S
C16 O19 1.256 . S
C16 O20 1.255 1_565 S
O17 Co0 2.021 . S
O17 C10 1.259 . S
O18 Co2 2.117 . S
O18 C10 1.258 . S
O19 Co2 2.020 1_565 S
O19 C16 1.256 . S
O20 Co0 2.062 . S
O20 C16 1.255 1_545 S
O21 C1 1.259 . S
O21 Co2 2.021 . S
H22 C13 0.930 . S
H23 C12 0.931 . S
O24 Co0 2.117 . S
O24 C1 1.258 . S
O25 Co0 2.020 . S
O25 C27 1.256 1_554 S
O26 Co2 2.062 1_556 S
O26 C27 1.255 . S
C27 O25 1.256 1_556 S
C27 O26 1.255 . S
H28 C7 0.931 . S
H29 C15 0.931 . S
Co30 N35 2.057 1_455 S
Co30 O47 2.021 . S
Co30 O50 2.062 . S
Co30 O54 2.117 . S
Co30 O55 2.020 1_455 S
C31 O51 1.259 . S
C31 O54 1.258 . S
Co32 N41 2.057 . S
Co32 O48 2.117 . S
Co32 O49 2.020 . S
Co32 O51 2.021 . S
Co32 O56 2.062 . S
C33 N35 1.316 . S
C33 N36 1.347 . S
C33 H38 0.931 . S
C34 N35 1.375 . S
C34 C37 1.350 . S
C34 H39 0.930 . S
N35 Co30 2.057 1_655 S
N35 C33 1.316 . S
N35 C34 1.375 . S
N36 C33 1.347 . S
N36 C37 1.373 . S
C37 C34 1.350 . S
C37 N36 1.373 . S
C37 H58 0.931 . S
H38 C33 0.931 . S
H39 C34 0.930 . S
C40 O47 1.259 . S
C40 O48 1.258 . S
N41 Co32 2.057 . S
N41 C42 1.316 . S
N41 C43 1.375 . S
C42 N41 1.316 . S
C42 N44 1.347 . S
C42 H53 0.931 . S
C43 N41 1.375 . S
C43 C45 1.350 . S
C43 H52 0.930 . S
N44 C42 1.347 . S
N44 C45 1.373 . S
C45 C43 1.350 . S
C45 N44 1.373 . S
C45 H59 0.931 . S
C46 O49 1.256 . S
C46 O50 1.255 . S
O47 Co30 2.021 . S
O47 C40 1.259 . S
O48 Co32 2.117 . S
O48 C40 1.258 . S
O49 Co32 2.020 . S
O49 C46 1.256 . S
O50 Co30 2.062 . S
O50 C46 1.255 . S
O51 C31 1.259 . S
O51 Co32 2.021 . S
H52 C43 0.930 . S
H53 C42 0.931 . S
O54 Co30 2.117 . S
O54 C31 1.258 . S
O55 Co30 2.020 1_655 S
O55 C57 1.256 . S
O56 Co32 2.062 . S
O56 C57 1.255 1_455 S
C57 O55 1.256 . S
C57 O56 1.255 1_655 S
H58 C37 0.931 . S
H59 C45 0.931 . S
Co60 N65 2.057 . S
Co60 O77 2.021 . S
Co60 O80 2.062 1_545 S
Co60 O84 2.117 . S
Co60 O85 2.020 . S
C61 O81 1.259 . S
C61 O84 1.258 1_565 S
Co62 N71 2.057 . S
Co62 O78 2.117 . S
Co62 O79 2.020 . S
Co62 O81 2.021 . S
Co62 O86 2.062 1_565 S
C63 N65 1.316 . S
C63 N66 1.347 . S
C63 H68 0.931 . S
C64 N65 1.375 . S
C64 C67 1.350 . S
C64 H69 0.930 . S
N65 Co60 2.057 . S
N65 C63 1.316 . S
N65 C64 1.375 . S
N66 C63 1.347 . S
N66 C67 1.373 . S
C67 C64 1.350 . S
C67 N66 1.373 . S
C67 H88 0.931 . S
H68 C63 0.931 . S
H69 C64 0.930 . S
C70 O77 1.259 . S
C70 O78 1.258 1_545 S
N71 Co62 2.057 . S
N71 C72 1.316 1_554 S
N71 C73 1.372 1_554 S
C72 N71 1.316 1_556 S
C72 N74 1.347 . S
C72 H83 0.931 . S
C73 N71 1.372 1_556 S
C73 C75 1.361 . S
C73 H82 0.923 1_556 S
N74 C72 1.347 . S
N74 C75 1.373 . S
C75 C73 1.361 . S
C75 N74 1.373 . S
C75 H89 0.931 . S
C76 O79 1.256 . S
C76 O80 1.255 . S
O77 Co60 2.021 . S
O77 C70 1.259 . S
O78 Co62 2.117 . S
O78 C70 1.258 1_565 S
O79 Co62 2.020 . S
O79 C76 1.256 . S
O80 Co60 2.062 1_565 S
O80 C76 1.255 . S
O81 C61 1.259 . S
O81 Co62 2.021 . S
H82 C73 0.923 1_554 S
H83 C72 0.931 . S
O84 Co60 2.117 . S
O84 C61 1.258 1_545 S
O85 Co60 2.020 . S
O85 C87 1.256 . S
O86 Co62 2.062 1_545 S
O86 C87 1.255 . S
C87 O85 1.256 . S
C87 O86 1.255 . S
H88 C67 0.931 . S
H89 C75 0.931 . S
Co90 N95 2.057 . S
Co90 O107 2.021 . S
Co90 O110 2.062 1_655 S
Co90 O114 2.117 . S
Co90 O115 2.020 . S
C91 O111 1.259 . S
C91 O114 1.258 1_455 S
Co92 N101 2.057 . S
Co92 O108 2.117 . S
Co92 O109 2.020 . S
Co92 O111 2.021 . S
Co92 O116 2.062 1_455 S
C93 N95 1.316 . S
C93 N96 1.347 . S
C93 H98 0.931 . S
C94 N95 1.375 . S
C94 C97 1.350 . S
C94 H99 0.930 . S
N95 Co90 2.057 . S
N95 C93 1.316 . S
N95 C94 1.375 . S
N96 C93 1.347 . S
N96 C97 1.373 . S
C97 C94 1.350 . S
C97 N96 1.373 . S
C97 H118 0.931 . S
H98 C93 0.931 . S
H99 C94 0.930 . S
C100 O107 1.259 . S
C100 O108 1.258 1_655 S
N101 Co92 2.057 . S
N101 C102 1.316 . S
N101 C103 1.375 . S
C102 N101 1.316 . S
C102 N104 1.347 . S
C102 H113 0.931 . S
C103 N101 1.375 . S
C103 C105 1.350 . S
C103 H112 0.930 . S
N104 C102 1.347 . S
N104 C105 1.373 . S
C105 C103 1.350 . S
C105 N104 1.373 . S
C105 H119 0.931 . S
C106 O109 1.256 . S
C106 O110 1.255 . S
O107 Co90 2.021 . S
O107 C100 1.259 . S
O108 Co92 2.117 . S
O108 C100 1.258 1_455 S
O109 Co92 2.020 . S
O109 C106 1.256 . S
O110 Co90 2.062 1_455 S
O110 C106 1.255 . S
O111 C91 1.259 . S
O111 Co92 2.021 . S
H112 C103 0.930 . S
H113 C102 0.931 . S
O114 Co90 2.117 . S
O114 C91 1.258 1_655 S
O115 Co90 2.020 . S
O115 C117 1.256 . S
O116 Co92 2.062 1_655 S
O116 C117 1.255 . S
C117 O115 1.256 . S
C117 O116 1.255 . S
H118 C97 0.931 . S
H119 C105 0.931 . S
C120 C121 1.391 . S
C120 C122 1.394 . S
C120 H136 0.931 1_545 S
C121 C120 1.391 . S
C121 C125 1.376 . S
C122 C120 1.394 . S
C122 C123 1.369 . S
C122 C126 1.531 1_554 S
C123 C122 1.369 . S
C123 C124 1.410 . S
C123 C131 1.503 1_655 S
C124 C123 1.410 . S
C124 C125 1.392 . S
C124 C127 1.511 1_655 S
C125 C121 1.376 . S
C125 C124 1.392 . S
C125 H137 0.929 . S
C126 C122 1.531 1_556 S
C126 H138 0.960 . S
C126 H139 0.962 1_545 S
C126 H140 0.960 . S
C127 C124 1.511 1_455 S
C127 H141 0.961 . S
C127 H142 0.961 . S
C127 H143 0.961 . S
C128 C129 1.372 . S
C128 C130 1.363 1_545 S
C128 H144 0.929 1_545 S
C129 C128 1.372 . S
C129 C133 1.408 . S
C130 C128 1.363 1_565 S
C130 C131 1.370 1_565 S
C130 C134 1.524 . S
C131 C123 1.503 1_455 S
C131 C130 1.370 1_545 S
C131 C132 1.403 . S
C132 C131 1.403 . S
C132 C133 1.404 . S
C132 C135 1.539 . S
C133 C129 1.408 . S
C133 C132 1.404 . S
C133 H145 0.930 . S
C134 C130 1.524 . S
C134 H146 0.956 . S
C134 H147 0.961 . S
C134 H148 0.961 . S
C135 C132 1.539 . S
C135 H149 0.958 . S
C135 H150 0.961 . S
C135 H151 0.960 . S
H136 C120 0.931 1_565 S
H137 C125 0.929 . S
H138 C126 0.960 . S
H139 C126 0.962 1_565 S
H140 C126 0.960 . S
H141 C127 0.961 . S
H142 C127 0.961 . S
H143 C127 0.961 . S
H144 C128 0.929 1_565 S
H145 C133 0.930 . S
H146 C134 0.956 . S
H147 C134 0.961 . S
H148 C134 0.961 . S
H149 C135 0.958 . S
H150 C135 0.961 . S
H151 C135 0.960 . S
C152 C153 1.391 1_655 S
C152 C154 1.394 . S
C152 H168 0.931 . S
C153 C152 1.391 1_455 S
C153 C157 1.376 . S
C154 C152 1.394 . S
C154 C155 1.369 1_655 S
C154 C158 1.531 . S
C155 C154 1.369 1_455 S
C155 C156 1.410 . S
C155 C163 1.503 1_565 S
C156 C155 1.410 . S
C156 C157 1.392 . S
C156 C159 1.511 . S
C157 C153 1.376 . S
C157 C156 1.392 . S
C157 H169 0.929 . S
C158 C154 1.531 . S
C158 H170 0.960 1_565 S
C158 H171 0.962 1_565 S
C158 H172 0.960 . S
C159 C156 1.511 . S
C159 H173 0.961 . S
C159 H174 0.961 1_565 S
C159 H175 0.961 . S
C160 C161 1.370 . S
C160 C162 1.363 . S
C160 H176 0.931 . S
C161 C160 1.370 . S
C161 C165 1.408 . S
C162 C160 1.363 . S
C162 C163 1.370 . S
C162 C166 1.524 . S
C163 C155 1.503 1_545 S
C163 C162 1.370 . S
C163 C164 1.403 . S
C164 C163 1.403 . S
C164 C165 1.404 . S
C164 C167 1.539 . S
C165 C161 1.408 . S
C165 C164 1.404 . S
C165 H177 0.930 . S
C166 C162 1.524 . S
C166 H178 0.956 1_455 S
C166 H179 0.961 . S
C166 H180 0.961 . S
C167 C164 1.539 . S
C167 H181 0.958 . S
C167 H182 0.961 . S
C167 H183 0.960 1_545 S
H168 C152 0.931 . S
H169 C157 0.929 . S
H170 C158 0.960 1_545 S
H171 C158 0.962 1_545 S
H172 C158 0.960 . S
H173 C159 0.961 . S
H174 C159 0.961 1_545 S
H175 C159 0.961 . S
H176 C160 0.931 . S
H177 C165 0.930 . S
H178 C166 0.956 1_655 S
H179 C166 0.961 . S
H180 C166 0.961 . S
H181 C167 0.958 . S
H182 C167 0.961 . S
H183 C167 0.960 1_565 S
C184 C185 1.391 . S
C184 C186 1.394 . S
C184 H200 0.931 . S
C185 C184 1.391 . S
C185 C189 1.376 1_565 S
C186 C184 1.394 . S
C186 C187 1.369 1_565 S
C186 C190 1.531 . S
C187 C186 1.369 1_545 S
C187 C188 1.410 . S
C187 C195 1.503 . S
C188 C187 1.410 . S
C188 C189 1.392 . S
C188 C191 1.511 . S
C189 C185 1.376 1_545 S
C189 C188 1.392 . S
C189 H201 0.929 . S
C190 C186 1.531 . S
C190 H202 0.960 . S
C190 H203 0.962 . S
C190 H204 0.960 . S
C191 C188 1.511 . S
C191 H205 0.961 . S
C191 H206 0.961 . S
C191 H207 0.961 . S
C192 C193 1.370 . S
C192 C194 1.363 . S
C192 H208 0.931 . S
C193 C192 1.370 . S
C193 C197 1.408 . S
C194 C192 1.363 . S
C194 C195 1.370 . S
C194 C198 1.529 . S
C195 C187 1.503 . S
C195 C194 1.370 . S
C195 C196 1.403 . S
C196 C195 1.403 . S
C196 C197 1.404 . S
C196 C199 1.539 . S
C197 C193 1.408 . S
C197 C196 1.404 . S
C197 H209 0.930 . S
C198 C194 1.529 . S
C198 H210 0.946 1_545 S
C198 H211 0.966 1_554 S
C198 H212 0.961 1_544 S
C199 C196 1.539 . S
C199 H213 0.958 . S
C199 H214 0.961 . S
C199 H215 0.960 . S
H200 C184 0.931 . S
H201 C189 0.929 . S
H202 C190 0.960 . S
H203 C190 0.962 . S
H204 C190 0.960 . S
H205 C191 0.961 . S
H206 C191 0.961 . S
H207 C191 0.961 . S
H208 C192 0.931 . S
H209 C197 0.930 . S
H210 C198 0.946 1_565 S
H211 C198 0.966 1_556 S
H212 C198 0.961 1_566 S
H213 C199 0.958 . S
H214 C199 0.961 . S
H215 C199 0.960 . S
C216 C217 1.391 . S
C216 C218 1.394 . S
C216 H232 0.931 1_455 S
C217 C216 1.391 . S
C217 C221 1.376 . S
C218 C216 1.394 . S
C218 C219 1.369 . S
C218 C222 1.531 1_455 S
C219 C218 1.369 . S
C219 C220 1.410 . S
C219 C227 1.503 . S
C220 C219 1.410 . S
C220 C221 1.392 . S
C220 C223 1.511 . S
C221 C217 1.376 . S
C221 C220 1.392 . S
C221 H233 0.929 . S
C222 C218 1.531 1_655 S
C222 H234 0.960 . S
C222 H235 0.962 . S
C222 H236 0.960 . S
C223 C220 1.511 . S
C223 H237 0.961 . S
C223 H238 0.961 . S
C223 H239 0.961 . S
C224 C225 1.370 . S
C224 C226 1.367 . S
C224 H240 0.931 . S
C225 C224 1.370 . S
C225 C229 1.408 1_655 S
C226 C224 1.367 . S
C226 C227 1.366 1_655 S
C226 C230 1.525 . S
C227 C219 1.503 . S
C227 C226 1.366 1_455 S
C227 C228 1.403 . S
C228 C227 1.403 . S
C228 C229 1.404 . S
C228 C231 1.539 . S
C229 C225 1.408 1_455 S
C229 C228 1.404 . S
C229 H241 0.930 . S
C230 C226 1.525 . S
C230 H242 0.956 . S
C230 H243 0.961 1_655 S
C230 H244 0.961 . S
C231 C228 1.539 . S
C231 H245 0.958 . S
C231 H246 0.961 . S
C231 H247 0.960 . S
H232 C216 0.931 1_655 S
H233 C221 0.929 . S
H234 C222 0.960 . S
H235 C222 0.962 . S
H236 C222 0.960 . S
H237 C223 0.961 . S
H238 C223 0.961 . S
H239 C223 0.961 . S
H240 C224 0.931 . S
H241 C229 0.930 . S
H242 C230 0.956 . S
H243 C230 0.961 1_455 S
H244 C230 0.961 . S
H245 C231 0.958 . S
H246 C231 0.961 . S
H247 C231 0.960 . S
C248 C249 1.391 . S
C248 C250 1.394 . S
C248 H264 0.931 . S
C249 C248 1.391 . S
C249 C253 1.376 . S
C250 C248 1.394 . S
C250 C251 1.369 . S
C250 C254 1.531 . S
C251 C250 1.369 . S
C251 C252 1.410 . S
C251 C259 1.503 . S
C252 C251 1.410 . S
C252 C253 1.392 . S
C252 C255 1.511 . S
C253 C249 1.376 . S
C253 C252 1.392 . S
C253 H265 0.929 . S
C254 C250 1.531 . S
C254 H266 0.960 . S
C254 H267 0.962 . S
C254 H268 0.960 . S
C255 C252 1.511 . S
C255 H269 0.961 . S
C255 H270 0.961 . S
C255 H271 0.961 . S
C256 C257 1.370 . S
C256 C258 1.363 . S
C256 H272 0.931 . S
C257 C256 1.370 . S
C257 C261 1.408 . S
C258 C256 1.363 . S
C258 C259 1.370 . S
C258 C262 1.524 . S
C259 C251 1.503 . S
C259 C258 1.370 . S
C259 C260 1.403 . S
C260 C259 1.403 . S
C260 C261 1.404 . S
C260 C263 1.539 . S
C261 C257 1.408 . S
C261 C260 1.404 . S
C261 H273 0.930 . S
C262 C258 1.524 . S
C262 H274 0.956 . S
C262 H275 0.961 . S
C262 H276 0.961 . S
C263 C260 1.539 . S
C263 H277 0.958 . S
C263 H278 0.961 . S
C263 H279 0.960 . S
H264 C248 0.931 . S
H265 C253 0.929 . S
H266 C254 0.960 . S
H267 C254 0.962 . S
H268 C254 0.960 . S
H269 C255 0.961 . S
H270 C255 0.961 . S
H271 C255 0.961 . S
H272 C256 0.931 . S
H273 C261 0.930 . S
H274 C262 0.956 . S
H275 C262 0.961 . S
H276 C262 0.961 . S
H277 C263 0.958 . S
H278 C263 0.961 . S
H279 C263 0.960 . S
C280 C281 1.391 . S
C280 C282 1.394 . S
C280 H296 0.931 . S
C281 C280 1.391 . S
C281 C285 1.376 . S
C282 C280 1.394 . S
C282 C283 1.369 . S
C282 C286 1.531 . S
C283 C282 1.369 . S
C283 C284 1.410 . S
C283 C291 1.503 . S
C284 C283 1.410 . S
C284 C285 1.392 . S
C284 C287 1.511 . S
C285 C281 1.376 . S
C285 C284 1.392 . S
C285 H297 0.929 . S
C286 C282 1.531 . S
C286 H298 0.960 . S
C286 H299 0.962 . S
C286 H300 0.960 . S
C287 C284 1.511 . S
C287 H301 0.961 . S
C287 H302 0.961 . S
C287 H303 0.961 . S
C288 C289 1.370 . S
C288 C290 1.363 . S
C288 H304 0.931 1_556 S
C289 C288 1.370 . S
C289 C293 1.408 . S
C290 C288 1.363 . S
C290 C291 1.370 . S
C290 C294 1.524 . S
C291 C283 1.503 . S
C291 C290 1.370 . S
C291 C292 1.403 . S
C292 C291 1.403 . S
C292 C293 1.404 . S
C292 C295 1.539 . S
C293 C289 1.408 . S
C293 C292 1.404 . S
C293 H305 0.930 . S
C294 C290 1.524 . S
C294 H306 0.956 . S
C294 H307 0.961 . S
C294 H308 0.961 . S
C295 C292 1.539 . S
C295 H309 0.958 . S
C295 H310 0.961 . S
C295 H311 0.960 . S
H296 C280 0.931 . S
H297 C285 0.929 . S
H298 C286 0.960 . S
H299 C286 0.962 . S
H300 C286 0.960 . S
H301 C287 0.961 . S
H302 C287 0.961 . S
H303 C287 0.961 . S
H304 C288 0.931 1_554 S
H305 C293 0.930 . S
H306 C294 0.956 . S
H307 C294 0.961 . S
H308 C294 0.961 . S
H309 C295 0.958 . S
H310 C295 0.961 . S
H311 C295 0.960 . S
C312 C313 1.391 . S
C312 C314 1.394 . S
C312 H328 0.931 . S
C313 C312 1.391 . S
C313 C317 1.376 . S
C314 C312 1.394 . S
C314 C315 1.369 . S
C314 C318 1.531 . S
C315 C314 1.369 . S
C315 C316 1.410 . S
C315 C323 1.503 . S
C316 C315 1.410 . S
C316 C317 1.392 . S
C316 C319 1.511 . S
C317 C313 1.376 . S
C317 C316 1.392 . S
C317 H329 0.929 . S
C318 C314 1.531 . S
C318 H330 0.960 . S
C318 H331 0.962 . S
C318 H332 0.960 . S
C319 C316 1.511 . S
C319 H333 0.961 . S
C319 H334 0.961 . S
C319 H335 0.961 . S
C320 C321 1.370 . S
C320 C322 1.363 . S
C320 H336 0.931 . S
C321 C320 1.370 . S
C321 C325 1.408 . S
C322 C320 1.363 . S
C322 C323 1.370 . S
C322 C326 1.524 . S
C323 C315 1.503 . S
C323 C322 1.370 . S
C323 C324 1.403 . S
C324 C323 1.403 . S
C324 C325 1.404 . S
C324 C327 1.539 . S
C325 C321 1.408 . S
C325 C324 1.404 . S
C325 H337 0.930 . S
C326 C322 1.524 . S
C326 H338 0.956 . S
C326 H339 0.961 . S
C326 H340 0.961 . S
C327 C324 1.539 . S
C327 H341 0.958 . S
C327 H342 0.961 . S
C327 H343 0.960 . S
H328 C312 0.931 . S
H329 C317 0.929 . S
H330 C318 0.960 . S
H331 C318 0.962 . S
H332 C318 0.960 . S
H333 C319 0.961 . S
H334 C319 0.961 . S
H335 C319 0.961 . S
H336 C320 0.931 . S
H337 C325 0.930 . S
H338 C326 0.956 . S
H339 C326 0.961 . S
H340 C326 0.961 . S
H341 C327 0.958 . S
H342 C327 0.961 . S
H343 C327 0.960 . S
C344 C345 1.391 . S
C344 C346 1.394 . S
C344 H360 0.931 . S
C345 C344 1.391 . S
C345 C349 1.376 . S
C346 C344 1.394 . S
C346 C347 1.369 . S
C346 C350 1.531 . S
C347 C346 1.369 . S
C347 C348 1.410 . S
C347 C355 1.503 . S
C348 C347 1.410 . S
C348 C349 1.392 . S
C348 C351 1.511 . S
C349 C345 1.376 . S
C349 C348 1.392 . S
C349 H361 0.929 . S
C350 C346 1.531 . S
C350 H362 0.960 . S
C350 H363 0.962 . S
C350 H364 0.960 . S
C351 C348 1.511 . S
C351 H365 0.961 . S
C351 H366 0.961 . S
C351 H367 0.961 . S
C352 C353 1.370 . S
C352 C354 1.363 . S
C352 H368 0.931 . S
C353 C352 1.370 . S
C353 C357 1.408 . S
C354 C352 1.363 . S
C354 C355 1.370 . S
C354 C358 1.524 . S
C355 C347 1.503 . S
C355 C354 1.370 . S
C355 C356 1.403 . S
C356 C355 1.403 . S
C356 C357 1.404 . S
C356 C359 1.539 . S
C357 C353 1.408 . S
C357 C356 1.404 . S
C357 H369 0.930 . S
C358 C354 1.524 . S
C358 H370 0.956 . S
C358 H371 0.961 . S
C358 H372 0.961 . S
C359 C356 1.539 . S
C359 H373 0.958 . S
C359 H374 0.961 . S
C359 H375 0.960 . S
H360 C344 0.931 . S
H361 C349 0.929 . S
H362 C350 0.960 . S
H363 C350 0.962 . S
H364 C350 0.960 . S
H365 C351 0.961 . S
H366 C351 0.961 . S
H367 C351 0.961 . S
H368 C352 0.931 . S
H369 C357 0.930 . S
H370 C358 0.956 . S
H371 C358 0.961 . S
H372 C358 0.961 . S
H373 C359 0.958 . S
H374 C359 0.961 . S
H375 C359 0.960 . S
C376 C377 1.391 . S
C376 C378 1.394 . S
C376 H392 0.931 . S
C377 C376 1.391 . S
C377 C381 1.376 . S
C378 C376 1.394 . S
C378 C379 1.369 . S
C378 C382 1.531 . S
C379 C378 1.369 . S
C379 C380 1.410 . S
C379 C387 1.503 . S
C380 C379 1.410 . S
C380 C381 1.392 . S
C380 C383 1.511 . S
C381 C377 1.376 . S
C381 C380 1.392 . S
C381 H393 0.929 . S
C382 C378 1.531 . S
C382 H394 0.960 . S
C382 H395 0.962 . S
C382 H396 0.960 . S
C383 C380 1.511 . S
C383 H397 0.961 . S
C383 H398 0.961 . S
C383 H399 0.961 . S
C384 C385 1.370 . S
C384 C386 1.363 . S
C384 H400 0.931 . S
C385 C384 1.370 . S
C385 C389 1.408 . S
C386 C384 1.363 . S
C386 C387 1.370 . S
C386 C390 1.524 . S
C387 C379 1.503 . S
C387 C386 1.370 . S
C387 C388 1.403 . S
C388 C387 1.403 . S
C388 C389 1.404 . S
C388 C391 1.539 . S
C389 C385 1.408 . S
C389 C388 1.404 . S
C389 H401 0.930 . S
C390 C386 1.524 . S
C390 H402 0.956 . S
C390 H403 0.961 . S
C390 H404 0.961 . S
C391 C388 1.539 . S
C391 H405 0.958 . S
C391 H406 0.961 . S
C391 H407 0.960 . S
H392 C376 0.931 . S
H393 C381 0.929 . S
H394 C382 0.960 . S
H395 C382 0.962 . S
H396 C382 0.960 . S
H397 C383 0.961 . S
H398 C383 0.961 . S
H399 C383 0.961 . S
H400 C384 0.931 . S
H401 C389 0.930 . S
H402 C390 0.956 . S
H403 C390 0.961 . S
H404 C390 0.961 . S
H405 C391 0.958 . S
H406 C391 0.961 . S
H407 C391 0.960 . S
C408 C409 1.391 . S
C408 C410 1.394 . S
C408 H424 0.931 1_565 S
C409 C408 1.391 . S
C409 C413 1.376 . S
C410 C408 1.394 . S
C410 C411 1.369 . S
C410 C414 1.531 . S
C411 C410 1.369 . S
C411 C412 1.410 . S
C411 C419 1.503 . S
C412 C411 1.410 . S
C412 C413 1.392 . S
C412 C415 1.511 . S
C413 C409 1.376 . S
C413 C412 1.392 . S
C413 H425 0.929 . S
C414 C410 1.531 . S
C414 H426 0.960 . S
C414 H427 0.962 . S
C414 H428 0.960 . S
C415 C412 1.511 . S
C415 H429 0.961 . S
C415 H430 0.961 . S
C415 H431 0.961 . S
C416 C417 1.370 . S
C416 C418 1.363 . S
C416 H432 0.931 . S
C417 C416 1.370 . S
C417 C421 1.408 . S
C418 C416 1.363 . S
C418 C419 1.370 . S
C418 C422 1.524 . S
C419 C411 1.503 . S
C419 C418 1.370 . S
C419 C420 1.403 . S
C420 C419 1.403 . S
C420 C421 1.404 . S
C420 C423 1.539 . S
C421 C417 1.408 . S
C421 C420 1.404 . S
C421 H433 0.930 . S
C422 C418 1.524 . S
C422 H434 0.956 . S
C422 H435 0.961 . S
C422 H436 0.961 . S
C423 C420 1.539 . S
C423 H437 0.958 . S
C423 H438 0.961 . S
C423 H439 0.960 . S
H424 C408 0.931 1_545 S
H425 C413 0.929 . S
H426 C414 0.960 . S
H427 C414 0.962 . S
H428 C414 0.960 . S
H429 C415 0.961 . S
H430 C415 0.961 . S
H431 C415 0.961 . S
H432 C416 0.931 . S
H433 C421 0.930 . S
H434 C422 0.956 . S
H435 C422 0.961 . S
H436 C422 0.961 . S
H437 C423 0.958 . S
H438 C423 0.961 . S
H439 C423 0.960 . S
C440 C441 1.391 . S
C440 C442 1.394 . S
C440 H456 0.931 . S
C441 C440 1.391 . S
C441 C445 1.376 . S
C442 C440 1.394 . S
C442 C443 1.369 . S
C442 C446 1.531 . S
C443 C442 1.369 . S
C443 C444 1.410 . S
C443 C451 1.503 . S
C444 C443 1.410 . S
C444 C445 1.392 . S
C444 C447 1.511 . S
C445 C441 1.376 . S
C445 C444 1.392 . S
C445 H457 0.929 . S
C446 C442 1.531 . S
C446 H458 0.960 . S
C446 H459 0.962 . S
C446 H460 0.960 . S
C447 C444 1.511 . S
C447 H461 0.961 . S
C447 H462 0.961 . S
C447 H463 0.961 . S
C448 C449 1.370 . S
C448 C450 1.363 . S
C448 H464 0.931 . S
C449 C448 1.370 . S
C449 C453 1.408 . S
C450 C448 1.363 . S
C450 C451 1.370 . S
C450 C454 1.524 . S
C451 C443 1.503 . S
C451 C450 1.370 . S
C451 C452 1.403 . S
C452 C451 1.403 . S
C452 C453 1.404 . S
C452 C455 1.539 . S
C453 C449 1.408 . S
C453 C452 1.404 . S
C453 H465 0.930 . S
C454 C450 1.524 . S
C454 H466 0.956 . S
C454 H467 0.961 . S
C454 H468 0.961 . S
C455 C452 1.539 . S
C455 H469 0.958 . S
C455 H470 0.961 . S
C455 H471 0.960 . S
H456 C440 0.931 . S
H457 C445 0.929 . S
H458 C446 0.960 . S
H459 C446 0.962 . S
H460 C446 0.960 . S
H461 C447 0.961 . S
H462 C447 0.961 . S
H463 C447 0.961 . S
H464 C448 0.931 . S
H465 C453 0.930 . S
H466 C454 0.956 . S
H467 C454 0.961 . S
H468 C454 0.961 . S
H469 C455 0.958 . S
H470 C455 0.961 . S
H471 C455 0.960 . S
C472 C473 1.391 . S
C472 C474 1.394 . S
C472 H488 0.931 . S
C473 C472 1.391 . S
C473 C477 1.376 . S
C474 C472 1.394 . S
C474 C475 1.369 . S
C474 C478 1.531 . S
C475 C474 1.369 . S
C475 C476 1.410 . S
C475 C483 1.503 . S
C476 C475 1.410 . S
C476 C477 1.392 . S
C476 C479 1.511 . S
C477 C473 1.376 . S
C477 C476 1.392 . S
C477 H489 0.929 . S
C478 C474 1.531 . S
C478 H490 0.960 . S
C478 H491 0.962 . S
C478 H492 0.960 . S
C479 C476 1.511 . S
C479 H493 0.961 . S
C479 H494 0.961 . S
C479 H495 0.961 . S
C480 C481 1.370 . S
C480 C482 1.363 . S
C480 H496 0.931 . S
C481 C480 1.370 . S
C481 C485 1.408 . S
C482 C480 1.363 . S
C482 C483 1.370 . S
C482 C486 1.524 . S
C483 C475 1.503 . S
C483 C482 1.370 . S
C483 C484 1.403 . S
C484 C483 1.403 . S
C484 C485 1.404 . S
C484 C487 1.539 . S
C485 C481 1.408 . S
C485 C484 1.404 . S
C485 H497 0.930 . S
C486 C482 1.524 . S
C486 H498 0.956 . S
C486 H499 0.961 . S
C486 H500 0.961 . S
C487 C484 1.539 . S
C487 H501 0.958 . S
C487 H502 0.961 . S
C487 H503 0.960 . S
H488 C472 0.931 . S
H489 C477 0.929 . S
H490 C478 0.960 . S
H491 C478 0.962 . S
H492 C478 0.960 . S
H493 C479 0.961 . S
H494 C479 0.961 . S
H495 C479 0.961 . S
H496 C480 0.931 . S
H497 C485 0.930 . S
H498 C486 0.956 . S
H499 C486 0.961 . S
H500 C486 0.961 . S
H501 C487 0.958 . S
H502 C487 0.961 . S
H503 C487 0.960 . S
C121 C61 0.475 1_545 S
C129 C10 0.483 . S
C153 C91 0.520 . S
C161 C40 0.603 . S
C185 C70 0.669 1_565 S
C193 C1 0.683 . S
C217 C31 0.772 . S
C225 C100 0.729 . S
C249 N44 1.153 . S
C257 N6 1.185 . S
C281 N36 1.483 . S
C289 C87 1.458 1_556 S
C313 C117 1.554 . S
C321 C76 1.555 . S
C345 C106 1.329 . S
C353 N14 1.245 . S
C377 N74 1.175 . S
C385 N96 1.083 . S
C409 C16 1.443 . S
C417 N104 1.485 . S
C441 C46 1.551 . S
C449 C27 1.554 . S
C473 N66 1.184 . S
C481 C57 1.299 . S
