# Generated by pormake.
# Topology sxb, (6)-cn, num edge types: 1
# Building blocks:
#     Node 0, Type 0, BuildingBlock: KUMJIN_clean_sbu_1, # of connection points: 6
#     Node 1, Type 0, BuildingBlock: KUMJIN_clean_sbu_1, # of connection points: 6
#     Node 2, Type 0, BuildingBlock: KUMJIN_clean_sbu_1, # of connection points: 6
#     Node 3, Type 0, BuildingBlock: KUMJIN_clean_sbu_1, # of connection points: 6
#     Edge 4, Type (0, 0), BuildingBlock: FUNLAD_clean_linker_1, # of connection points: 2
#     Edge 5, Type (0, 0), BuildingBlock: FUNLAD_clean_linker_1, # of connection points: 2
#     Edge 6, Type (0, 0), BuildingBlock: FUNLAD_clean_linker_1, # of connection points: 2
#     Edge 7, Type (0, 0), BuildingBlock: FUNLAD_clean_linker_1, # of connection points: 2
#     Edge 8, Type (0, 0), BuildingBlock: FUNLAD_clean_linker_1, # of connection points: 2
#     Edge 9, Type (0, 0), BuildingBlock: FUNLAD_clean_linker_1, # of connection points: 2
#     Edge 10, Type (0, 0), BuildingBlock: FUNLAD_clean_linker_1, # of connection points: 2
#     Edge 11, Type (0, 0), BuildingBlock: FUNLAD_clean_linker_1, # of connection points: 2
#     Edge 12, Type (0, 0), BuildingBlock: FUNLAD_clean_linker_1, # of connection points: 2
#     Edge 13, Type (0, 0), BuildingBlock: FUNLAD_clean_linker_1, # of connection points: 2
#     Edge 14, Type (0, 0), BuildingBlock: FUNLAD_clean_linker_1, # of connection points: 2
#     Edge 15, Type (0, 0), BuildingBlock: FUNLAD_clean_linker_1, # of connection points: 2
# Relax obj value: 0.013
# Max RMSD: 0.056
# Mean RMSD: 0.056
data_MOF--net-sxb--node1-KUMJIN_clean_sbu_1--edge1-FUNLAD_clean_linker_1
_symmetry_space_group_name_H-M    P1
_symmetry_Int_Tables_number       1
_symmetry_cell_setting            triclinic
loop_
_symmetry_equiv_pos_as_xyz
'x, y, z'
_cell_length_a     15.565544
_cell_length_b     49.213077
_cell_length_c     30.818003
_cell_angle_alpha  115.06822
_cell_angle_beta   90.161129
_cell_angle_gamma 90.202649
loop_
_atom_site_label
_atom_site_type_symbol
_atom_site_fract_x
_atom_site_fract_y
_atom_site_fract_z
_atom_type_partial_charge
Eu0 Eu 0.06983 0.96325 0.97277 0.0
C1 C 0.1986 0.08926 0.10283 0.0
N2 N 0.12011 0.07762 0.10486 0.0
C3 C 0.13482 0.09527 0.19005 0.0
C4 C 0.25015 0.10306 0.14426 0.0
C5 C 0.08563 0.0822 0.14813 0.0
C6 C 0.21817 0.10517 0.18796 0.0
C7 C 0.30319 0.10307 0.05721 0.0
C8 C 0.22499 0.08938 0.05992 0.0
C9 C 0.35668 0.11539 0.09776 0.0
C10 C 0.33025 0.11536 0.14117 0.0
Eu11 Eu 0.0453 0.05405 0.03085 0.0
N12 N 0.17295 0.0767 0.02093 0.0
C13 C 0.32437 0.10449 0.01404 0.0
C14 C 0.19011 0.07981 0.9798 0.0
C15 C 0.26688 0.09325 0.97543 0.0
H16 H 1.01977 0.0761 0.15063 0.0
H17 H 0.28167 0.09493 0.94236 0.0
H18 H 0.05933 0.94463 0.85425 0.0
H19 H 0.85725 0.93345 0.08646 0.0
H20 H 0.14538 0.07106 0.95007 0.0
H21 H 0.38386 0.11487 0.01055 0.0
H22 H 0.98653 0.9553 0.06677 0.0
H23 H 0.10803 0.09817 0.22408 0.0
H24 H 0.41764 0.12564 0.09624 0.0
H25 H 0.37112 0.12571 0.17251 0.0
H26 H 0.95984 0.91842 0.78687 0.0
H27 H 0.25576 0.11561 0.22059 0.0
H28 H 0.75006 0.90654 0.02309 0.0
N29 N 0.98015 0.93855 0.90556 0.0
C30 C 0.90926 0.92488 0.91311 0.0
C31 C 0.94435 0.92037 0.82229 0.0
C32 C 0.85113 0.90931 0.87546 0.0
C33 C 0.99998 0.93565 0.86074 0.0
C34 C 0.86918 0.90738 0.82975 0.0
N35 N 0.95007 0.94274 0.99497 0.0
C36 C 0.93873 0.94456 0.0398 0.0
C37 C 0.81982 0.9137 0.96807 0.0
C38 C 0.89387 0.92701 0.959 0.0
C39 C 0.80623 0.91641 0.01463 0.0
C40 C 0.86631 0.93173 0.05058 0.0
H41 H 0.82615 0.89557 0.79988 0.0
H42 H 0.73152 0.88427 0.8561 0.0
H43 H 0.70407 0.88815 0.93707 0.0
O44 O 0.10426 0.92212 0.97989 0.0
O45 O 0.94157 0.98492 0.96876 0.0
O46 O 0.9257 0.02934 0.03629 0.0
O47 O 0.16026 0.93156 0.92248 0.0
O48 O 0.09381 0.98825 0.05275 0.0
O49 O 1.00804 0.03066 0.07842 0.0
O50 O 0.9749 0.07771 0.99577 0.0
O51 O 0.17268 0.03206 0.99953 0.0
O52 O 0.18499 0.99052 0.01457 0.0
O53 O 0.99777 0.09947 0.07206 0.0
O54 O 1.01841 0.02629 0.95145 0.0
O55 O 0.11303 0.98644 0.92666 0.0
C56 C 0.89387 1.00438 0.00299 0.0
C57 C 0.2041 0.88487 0.92617 0.0
C58 C 0.24619 0.83908 0.9337 0.0
C59 C 0.30045 0.83181 0.8939 0.0
C60 C 0.25942 0.87715 0.88689 0.0
C61 C 0.30689 0.85075 0.87084 0.0
C62 C 0.19707 0.86553 0.94923 0.0
C63 C 0.05176 0.01025 0.08632 0.0
C64 C 0.15538 0.91327 0.94312 0.0
C65 C 0.77712 0.89619 0.88455 0.0
C66 C 0.76151 0.89838 0.93068 0.0
C67 C 0.21926 0.01363 0.01021 0.0
C68 C 0.88496 0.1186 0.0414 0.0
C69 C 0.80768 0.15956 0.03399 0.0
C70 C 0.73544 0.15276 0.05513 0.0
C71 C 0.81312 0.11235 0.06294 0.0
C72 C 0.88175 0.14197 0.02675 0.0
C73 C 0.73845 0.1293 0.06944 0.0
C74 C 0.07085 0.00737 0.91958 0.0
C75 C 0.96547 0.102 0.03502 0.0
H76 H 0.33684 0.81119 0.87981 0.0
H77 H 0.26608 0.89151 0.86843 0.0
H78 H 0.34877 0.84488 0.84024 0.0
H79 H 0.15446 0.87118 0.97956 0.0
H80 H 0.67617 0.16509 0.06006 0.0
H81 H 0.815 0.09458 0.07484 0.0
H82 H 0.93781 0.14678 0.01028 0.0
H83 H 0.68268 0.12427 0.08571 0.0
Eu84 Eu 1.02224 0.04768 0.52189 0.0
C85 C 0.21498 0.92594 0.41658 0.0
N86 N 0.14277 0.93744 0.40591 0.0
C87 C 0.18797 0.92041 0.32439 0.0
C88 C 0.27838 0.9122 0.3815 0.0
C89 C 0.12712 0.93404 0.36032 0.0
C90 C 0.26422 0.90969 0.33509 0.0
C91 C 0.3042 0.91877 0.47572 0.0
C92 C 0.22728 0.92893 0.46331 0.0
C93 C 0.36706 0.90501 0.44072 0.0
C94 C 0.3541 0.90167 0.39377 0.0
Eu95 Eu 0.04203 0.95713 0.46812 0.0
N96 N 0.167 0.94344 0.49718 0.0
C97 C 0.31711 0.92369 0.52338 0.0
C98 C 0.17845 0.94763 0.54346 0.0
C99 C 0.25407 0.93819 0.55728 0.0
H100 H 0.06691 0.94102 0.35112 0.0
H101 H 0.26377 0.94196 0.59403 0.0
H102 H 0.05581 0.08191 0.64086 0.0
H103 H 0.77595 0.07259 0.41847 0.0
H104 H 0.12934 0.95779 0.56977 0.0
H105 H 0.37568 0.91652 0.53443 0.0
H106 H 0.91413 0.05252 0.43205 0.0
H107 H 0.17575 0.91784 0.28831 0.0
H108 H 0.42654 0.8972 0.44976 0.0
H109 H 0.40358 0.89121 0.36729 0.0
H110 H 0.97567 0.1134 0.7139 0.0
H111 H 0.31136 0.89926 0.30716 0.0
H112 H 0.67631 0.09756 0.48623 0.0
N113 N 0.95018 0.07667 0.59405 0.0
C114 C 0.86994 0.08599 0.58946 0.0
C115 C 0.9445 0.10529 0.67921 0.0
C116 C 0.82196 0.10412 0.6302 0.0
C117 C 0.98921 0.08701 0.63788 0.0
C118 C 0.85957 0.1131 0.67551 0.0
N119 N 0.88967 0.0644 0.50555 0.0
C120 C 0.87005 0.06294 0.46137 0.0
C121 C 0.76016 0.09199 0.53808 0.0
C122 C 0.83919 0.07999 0.54393 0.0
C123 C 0.7363 0.08851 0.49213 0.0
C124 C 0.79233 0.07444 0.45377 0.0
H125 H 0.82517 0.12726 0.70765 0.0
H126 H 0.7022 0.12789 0.65526 0.0
H127 H 0.64812 0.11728 0.57458 0.0
O128 O 0.09408 0.06777 0.48185 0.0
O129 O 0.90059 0.01991 0.49236 0.0
O130 O 0.91768 0.97783 0.50634 0.0
O131 O 0.05716 0.09518 0.55481 0.0
O132 O 0.05978 0.0187 0.44498 0.0
O133 O 0.98106 0.97544 0.41941 0.0
O134 O 1.02258 0.91518 0.4755 0.0
O135 O 0.16158 0.98583 0.47191 0.0
O136 O 0.14356 0.02971 0.53988 0.0
O137 O 0.97569 0.91929 0.41249 0.0
O138 O 1.0068 0.97998 0.54656 0.0
O139 O 0.0543 0.02983 0.57805 0.0
C140 C 0.86893 0.99813 0.50154 0.0
C141 C 0.17503 0.1119 0.52473 0.0
C142 C 0.25031 0.15462 0.52152 0.0
C143 C 0.32459 0.14653 0.53958 0.0
C144 C 0.24856 0.10457 0.5436 0.0
C145 C 0.32327 0.12172 0.55061 0.0
C146 C 0.17609 0.1368 0.51382 0.0
C147 C 1.01012 0.9985 0.41301 0.0
C148 C 0.09552 0.09446 0.517 0.0
C149 C 0.74037 0.11426 0.62437 0.0
C150 C 0.7096 0.10825 0.57841 0.0
C151 C 0.19318 0.00973 0.508 0.0
C152 C 0.89648 0.88802 0.43914 0.0
C153 C 0.82173 0.84818 0.4522 0.0
C154 C 0.74317 0.85885 0.44254 0.0
C155 C 0.81727 0.89843 0.43058 0.0
C156 C 0.89825 0.863 0.45009 0.0
C157 C 0.74136 0.88377 0.43202 0.0
C158 C 1.02786 0.00554 0.58266 0.0
C159 C 0.97759 0.90277 0.43622 0.0
H160 H 0.38401 0.15898 0.54523 0.0
H161 H 0.24782 0.08578 0.55305 0.0
H162 H 0.38037 0.11584 0.56479 0.0
H163 H 0.11839 0.14247 0.49964 0.0
H164 H 0.68238 0.84844 0.44315 0.0
H165 H 0.81387 0.91781 0.42255 0.0
H166 H 0.95946 0.85512 0.45707 0.0
H167 H 0.6806 0.89181 0.425 0.0
Eu168 Eu 0.55444 0.46154 0.96745 0.0
C169 C 0.66847 0.59481 0.10031 0.0
N170 N 0.5991 0.57938 0.10499 0.0
C171 C 0.62475 0.59814 0.18944 0.0
C172 C 0.72001 0.6121 0.14029 0.0
C173 C 0.57558 0.58128 0.14876 0.0
C174 C 0.69757 0.61349 0.18517 0.0
C175 C 0.76103 0.60826 0.04902 0.0
C176 C 0.68892 0.59284 0.05509 0.0
C177 C 0.81253 0.62547 0.0888 0.0
C178 C 0.79216 0.62735 0.13426 0.0
Eu179 Eu 0.52062 0.55164 0.03426 0.0
N180 N 0.63969 0.5751 0.01685 0.0
C181 C 0.77934 0.60584 0.00306 0.0
C182 C 0.65517 0.57364 0.97245 0.0
C183 C 0.72568 0.58868 0.96471 0.0
H184 H 0.51796 0.57023 0.15242 0.0
H185 H 0.73815 0.58723 0.92927 0.0
H186 H 0.53817 0.44262 0.84991 0.0
H187 H 0.34908 0.43218 0.08516 0.0
H188 H 0.61244 0.56144 0.94315 0.0
H189 H 0.83407 0.6174 0.99692 0.0
H190 H 0.47421 0.45478 0.06431 0.0
H191 H 0.60617 0.59946 0.22409 0.0
H192 H 0.86837 0.6374 0.08478 0.0
H193 H 0.83263 0.6407 0.16457 0.0
H194 H 0.44012 0.41371 0.78263 0.0
H195 H 0.73556 0.62653 0.21676 0.0
H196 H 0.24306 0.40309 0.02254 0.0
N197 N 0.4648 0.43478 0.9013 0.0
C198 C 0.39605 0.42063 0.90982 0.0
C199 C 0.42671 0.41564 0.81827 0.0
C200 C 0.33863 0.40378 0.87257 0.0
C201 C 0.48162 0.43224 0.85639 0.0
C202 C 0.35471 0.40143 0.8264 0.0
N203 N 0.43646 0.4412 0.99204 0.0
C204 C 0.42686 0.44345 0.03735 0.0
C205 C 0.30973 0.40997 0.96638 0.0
C206 C 0.38155 0.42389 0.9564 0.0
C207 C 0.29738 0.41347 0.01343 0.0
C208 C 0.3567 0.43004 0.04895 0.0
H209 H 0.31213 0.38865 0.79681 0.0
H210 H 0.22207 0.377 0.85439 0.0
H211 H 0.19699 0.3823 0.93634 0.0
O212 O 0.61452 0.42799 0.98766 0.0
O213 O 0.42389 0.48105 0.96297 0.0
O214 O 0.40705 0.5229 0.03408 0.0
O215 O 0.62239 0.42348 0.91393 0.0
O216 O 0.58763 0.48618 0.04661 0.0
O217 O 0.4892 0.52459 0.07614 0.0
O218 O 0.45353 0.58231 0.00977 0.0
O219 O 0.65607 0.53421 0.03426 0.0
O220 O 0.67288 0.48851 0.96843 0.0
O221 O 0.44935 0.58968 0.08501 0.0
O222 O 0.49737 0.52759 0.95369 0.0
O223 O 0.59036 0.4871 0.92395 0.0
C224 C 0.37536 0.50015 0.99682 0.0
C225 C 0.69174 0.38445 0.9297 0.0
C226 C 0.73343 0.33957 0.93997 0.0
C227 C 0.78518 0.33093 0.89883 0.0
C228 C 0.74464 0.37543 0.88926 0.0
C229 C 0.791 0.34887 0.87405 0.0
C230 C 0.68632 0.36644 0.95504 0.0
C231 C 0.54378 0.50614 0.08213 0.0
C232 C 0.64136 0.41225 0.94412 0.0
C233 C 0.26694 0.39002 0.88255 0.0
C234 C 0.25261 0.39307 0.92927 0.0
C235 C 0.70379 0.51324 0.00258 0.0
C236 C 0.37117 0.62551 0.06567 0.0
C237 C 0.32585 0.67031 0.05614 0.0
C238 C 0.2677 0.6767 0.09415 0.0
C239 C 0.31196 0.63231 0.10302 0.0
C240 C 0.37805 0.6446 0.04224 0.0
C241 C 0.26065 0.65772 0.11707 0.0
C242 C 0.54337 0.50776 0.91888 0.0
C243 C 0.42682 0.59903 0.05301 0.0
H244 H 0.81973 0.30995 0.88472 0.0
H245 H 0.74998 0.38889 0.8692 0.0
H246 H 0.8309 0.34195 0.84249 0.0
H247 H 0.6449 0.37312 0.98605 0.0
H248 H 0.22886 0.69676 0.10721 0.0
H249 H 0.30554 0.618 0.12158 0.0
H250 H 0.42434 0.63966 0.0137 0.0
H251 H 0.21584 0.66292 0.14627 0.0
Eu252 Eu 0.54277 0.55112 0.52521 0.0
C253 C 0.72125 0.42791 0.41625 0.0
N254 N 0.64123 0.43646 0.40931 0.0
C255 C 0.6624 0.41309 0.32425 0.0
C256 C 0.77647 0.41277 0.37723 0.0
C257 C 0.60984 0.42794 0.36394 0.0
C258 C 0.74671 0.40608 0.33092 0.0
C259 C 0.82594 0.42187 0.47016 0.0
C260 C 0.74606 0.43242 0.46216 0.0
C261 C 0.88258 0.4081 0.43172 0.0
C262 C 0.85802 0.40365 0.38539 0.0
Eu263 Eu 0.55856 0.46139 0.47948 0.0
N264 N 0.69101 0.44648 0.49897 0.0
C265 C 0.84585 0.4251 0.51649 0.0
C266 C 0.70772 0.44824 0.5436 0.0
C267 C 0.78595 0.43799 0.55324 0.0
H268 H 0.54358 0.43179 0.35786 0.0
H269 H 0.79989 0.43997 0.58888 0.0
H270 H 0.5223 0.57323 0.64387 0.0
H271 H 0.32536 0.56588 0.39695 0.0
H272 H 0.66077 0.45783 0.5717 0.0
H273 H 0.90651 0.41723 0.52406 0.0
H274 H 0.45814 0.5505 0.42323 0.0
H275 H 0.6372 0.40648 0.28848 0.0
H276 H 0.94477 0.40022 0.43725 0.0
H277 H 0.90152 0.39227 0.35588 0.0
H278 H 0.41547 0.59861 0.70689 0.0
H279 H 0.78694 0.39432 0.29999 0.0
H280 H 0.2111 0.59125 0.45568 0.0
N281 N 0.4446 0.5745 0.5879 0.0
C282 C 0.37183 0.58517 0.57626 0.0
C283 C 0.40195 0.59463 0.6702 0.0
C284 C 0.30925 0.60001 0.61129 0.0
C285 C 0.46182 0.57983 0.63424 0.0
C286 C 0.32497 0.60452 0.65863 0.0
N287 N 0.41924 0.56548 0.4955 0.0
C288 C 0.40864 0.5608 0.44896 0.0
C289 C 0.2815 0.58987 0.51541 0.0
C290 C 0.35839 0.58026 0.52876 0.0
C291 C 0.26938 0.58431 0.46736 0.0
C292 C 0.3335 0.56988 0.43407 0.0
H293 H 0.27852 0.61586 0.68655 0.0
H294 H 0.1839 0.6209 0.62436 0.0
H295 H 0.15945 0.61191 0.54051 0.0
O296 O 0.56789 0.59332 0.51846 0.0
O297 O 0.42256 0.52507 0.52987 0.0
O298 O 0.43257 0.47903 0.46515 0.0
O299 O 0.62738 0.58494 0.57622 0.0
O300 O 0.57022 0.52488 0.44576 0.0
O301 O 0.51018 0.47759 0.42444 0.0
O302 O 0.4979 0.43842 0.51849 0.0
O303 O 0.6799 0.48999 0.50751 0.0
O304 O 0.6596 0.52707 0.48261 0.0
O305 O 0.52366 0.41394 0.44303 0.0
O306 O 0.52028 0.49076 0.5559 0.0
O307 O 0.59936 0.5339 0.57653 0.0
C308 C 0.38668 0.50104 0.49608 0.0
C309 C 0.66226 0.63268 0.57468 0.0
C310 C 0.70915 0.67774 0.56629 0.0
C311 C 0.74978 0.68788 0.61138 0.0
C312 C 0.70441 0.64319 0.61921 0.0
C313 C 0.74743 0.67066 0.63743 0.0
C314 C 0.66408 0.65023 0.54849 0.0
C315 C 0.53902 0.49922 0.41368 0.0
C316 C 0.61842 0.6032 0.55586 0.0
C317 C 0.23286 0.60961 0.59798 0.0
C318 C 0.21895 0.60449 0.55021 0.0
C319 C 0.7108 0.51024 0.49444 0.0
C320 C 0.41087 0.39626 0.47535 0.0
C321 C 0.33426 0.35398 0.47924 0.0
C322 C 0.25792 0.36414 0.46631 0.0
C323 C 0.33479 0.40592 0.46213 0.0
C324 C 0.41033 0.37047 0.48391 0.0
C325 C 0.25861 0.38987 0.45771 0.0
C326 C 0.5665 0.5128 0.58688 0.0
C327 C 0.4916 0.41282 0.48115 0.0
H328 H 0.78197 0.70943 0.62727 0.0
H329 H 0.70385 0.63026 0.64022 0.0
H330 H 0.77885 0.67871 0.67204 0.0
H331 H 0.63175 0.64235 0.51408 0.0
H332 H 0.19724 0.35277 0.46341 0.0
H333 H 0.33436 0.42584 0.45551 0.0
H334 H 0.46959 0.36322 0.4943 0.0
H335 H 0.19968 0.3975 0.44786 0.0
H336 H 0.39822 0.69265 0.01806 0.0
C337 C 0.33585 0.69117 0.03274 0.0
H338 H 0.20757 0.70652 0.04288 0.0
H339 H 0.26757 0.83417 0.05076 0.0
H340 H 0.23173 0.84613 0.13326 0.0
H341 H 0.21936 0.80627 0.16144 0.0
H342 H 0.24298 0.75424 0.10733 0.0
C343 C 0.27074 0.70826 0.02943 0.0
C344 C 0.28229 0.73209 0.01193 0.0
C345 C 0.26727 0.7625 0.04387 0.0
C346 C 0.27347 0.78552 0.02748 0.0
C347 C 0.26123 0.81571 0.06076 0.0
C348 C 0.24127 0.82294 0.10841 0.0
C349 C 0.23434 0.8005 0.12429 0.0
C350 C 0.24762 0.77066 0.09269 0.0
H351 H 0.17607 0.81726 0.97332 0.0
C352 C 0.23777 0.81862 0.9579 0.0
H353 H 0.36615 0.80357 0.94679 0.0
H354 H 0.30882 0.67599 0.9401 0.0
H355 H 0.34506 0.66405 0.85771 0.0
H356 H 0.35737 0.70389 0.8295 0.0
H357 H 0.33331 0.75588 0.88349 0.0
C358 C 0.30372 0.80182 0.96106 0.0
C359 C 0.29361 0.77807 0.97887 0.0
C360 C 0.30893 0.74766 0.94699 0.0
C361 C 0.30272 0.72465 0.96339 0.0
C362 C 0.31514 0.69447 0.93013 0.0
C363 C 0.33534 0.68724 0.88251 0.0
C364 C 0.34224 0.70966 0.86663 0.0
C365 C 0.32871 0.73949 0.89818 0.0
H366 H 0.66527 0.32174 0.98587 0.0
C367 C 0.72374 0.31996 0.96562 0.0
H368 H 0.84393 0.2981 0.94552 0.0
H369 H 0.80482 0.25165 0.11087 0.0
H370 H 0.84944 0.30225 0.16398 0.0
H371 H 0.85631 0.34197 0.13519 0.0
H372 H 0.81916 0.33126 0.05289 0.0
C373 C 0.78348 0.29977 0.96385 0.0
C374 C 0.76801 0.27718 0.98327 0.0
C375 C 0.78811 0.28391 0.0316 0.0
C376 C 0.78316 0.26103 0.0483 0.0
C377 C 0.80616 0.26822 0.09644 0.0
C378 C 0.83216 0.29716 0.12728 0.0
C379 C 0.83615 0.31952 0.11105 0.0
C380 C 0.81468 0.31309 0.06377 0.0
H381 H 0.85593 0.1832 0.9916 0.0
C382 C 0.80785 0.18408 0.01772 0.0
H383 H 0.70908 0.21052 0.06287 0.0
H384 H 0.72229 0.25719 0.88898 0.0
H385 H 0.67459 0.20696 0.83606 0.0
H386 H 0.66178 0.16764 0.86541 0.0
H387 H 0.69671 0.17823 0.94767 0.0
C388 C 0.75368 0.20754 0.03424 0.0
C389 C 0.75756 0.2315 0.01665 0.0
C390 C 0.73474 0.22505 0.96862 0.0
C391 C 0.74077 0.24785 0.95186 0.0
C392 C 0.71891 0.24071 0.90357 0.0
C393 C 0.69119 0.212 0.87283 0.0
C394 C 0.68404 0.18985 0.88934 0.0
C395 C 0.70497 0.1962 0.93666 0.0
H396 H 0.18879 0.18398 0.49243 0.0
C397 C 0.24666 0.18111 0.50992 0.0
H398 H 0.36616 0.20125 0.54 0.0
H399 H 0.2799 0.2655 0.39379 0.0
H400 H 0.29018 0.2157 0.32903 0.0
H401 H 0.30664 0.17126 0.34586 0.0
H402 H 0.31314 0.17635 0.42745 0.0
C403 C 0.30914 0.20195 0.52031 0.0
C404 C 0.29899 0.22855 0.50946 0.0
C405 C 0.29627 0.22514 0.46136 0.0
C406 C 0.28759 0.25081 0.45162 0.0
C407 C 0.28567 0.24679 0.40329 0.0
C408 C 0.29185 0.21833 0.36572 0.0
C409 C 0.30108 0.19331 0.3752 0.0
C410 C 0.30399 0.19656 0.42233 0.0
H411 H 0.39576 0.32357 0.50623 0.0
C412 C 0.3376 0.32702 0.48956 0.0
H413 H 0.21709 0.30778 0.45986 0.0
H414 H 0.30062 0.2429 0.60559 0.0
H415 H 0.28981 0.29268 0.67031 0.0
H416 H 0.27392 0.33713 0.65344 0.0
H417 H 0.26841 0.33205 0.57184 0.0
C418 C 0.27412 0.30655 0.47916 0.0
C419 C 0.28291 0.27986 0.48988 0.0
C420 C 0.28526 0.28325 0.53798 0.0
C421 C 0.2938 0.25759 0.54772 0.0
C422 C 0.29515 0.2616 0.59606 0.0
C423 C 0.28863 0.29006 0.63362 0.0
C424 C 0.27971 0.31508 0.62412 0.0
C425 C 0.27737 0.31184 0.57699 0.0
H426 H 0.88992 0.81606 0.47347 0.0
C427 C 0.82682 0.82229 0.4655 0.0
H428 H 0.69341 0.81244 0.46382 0.0
H429 H 0.8258 0.68453 0.45652 0.0
H430 H 0.87287 0.67352 0.37565 0.0
H431 H 0.87088 0.71264 0.34549 0.0
H432 H 0.82194 0.76302 0.3959 0.0
C433 C 0.75813 0.80685 0.4698 0.0
C434 C 0.76573 0.78353 0.48838 0.0
C435 C 0.79442 0.75421 0.45837 0.0
C436 C 0.79514 0.73157 0.47566 0.0
C437 C 0.82406 0.7025 0.44508 0.0
C438 C 0.85109 0.69589 0.39863 0.0
C439 C 0.84996 0.71793 0.38164 0.0
C440 C 0.82185 0.74677 0.41096 0.0
H441 H 0.65515 0.69477 0.51571 0.0
C442 C 0.7097 0.69637 0.5388 0.0
H443 H 0.83063 0.71697 0.56411 0.0
H444 H 0.70902 0.83756 0.55553 0.0
H445 H 0.66114 0.84834 0.63601 0.0
H446 H 0.66056 0.8089 0.66549 0.0
H447 H 0.70828 0.7585 0.61479 0.0
C448 C 0.774 0.71566 0.54269 0.0
C449 C 0.76706 0.7383 0.52278 0.0
C450 C 0.73832 0.76758 0.55273 0.0
C451 C 0.73776 0.79021 0.53555 0.0
C452 C 0.70973 0.81939 0.56651 0.0
C453 C 0.68232 0.82592 0.61286 0.0
C454 C 0.68213 0.80373 0.62948 0.0
C455 C 0.70981 0.77489 0.59999 0.0
H456 H 0.3378 0.03806 0.00961 0.0
C457 C 0.31371 0.01786 0.01157 0.0
H458 H 0.34928 0.97697 0.01342 0.0
H459 H 0.71495 0.98492 0.92333 0.0
H460 H 0.64333 0.94834 0.85322 0.0
H461 H 0.4898 0.93646 0.85548 0.0
H462 H 0.40698 0.96144 0.92817 0.0
C463 C 0.37085 0.99808 0.01378 0.0
C464 C 0.46542 1.00387 0.01375 0.0
C465 C 0.51429 0.98814 0.9718 0.0
C466 C 0.604 0.99412 0.97114 0.0
C467 C 0.64859 0.97992 0.92721 0.0
C468 C 0.60775 0.95916 0.88625 0.0
C469 C 0.52128 0.95253 0.88749 0.0
C470 C 0.4746 0.96696 0.92951 0.0
H471 H 0.77875 0.97538 0.988 0.0
C472 C 0.80024 0.99852 0.00178 0.0
H473 H 0.7631 0.0436 0.02743 0.0
H474 H 0.39055 0.03886 0.09958 0.0
H475 H 0.46172 0.07523 0.17036 0.0
H476 H 0.61809 0.08364 0.17112 0.0
H477 H 0.70402 0.05608 0.10095 0.0
C478 C 0.74133 0.0205 0.01448 0.0
C479 C 0.6462 0.01466 0.01352 0.0
C480 C 0.59668 0.03064 0.05537 0.0
C481 C 0.50638 0.02549 0.05527 0.0
C482 C 0.45899 0.04193 0.09747 0.0
C483 C 0.4991 0.06284 0.13852 0.0
C484 C 0.5871 0.06759 0.13891 0.0
C485 C 0.63567 0.05166 0.09813 0.0
H486 H 0.30817 0.03895 0.53312 0.0
C487 C 0.28701 0.01613 0.51148 0.0
H488 H 0.32424 0.9724 0.46817 0.0
H489 H 0.69395 0.97755 0.40328 0.0
H490 H 0.61692 0.95033 0.32876 0.0
H491 H 0.4587 0.94699 0.3274 0.0
H492 H 0.37688 0.97047 0.4002 0.0
C493 C 0.34612 0.99474 0.49032 0.0
C494 C 0.44138 1.00008 0.49191 0.0
C495 C 0.48828 0.9876 0.44824 0.0
C496 C 0.57941 0.99042 0.44863 0.0
C497 C 0.62462 0.97656 0.40488 0.0
C498 C 0.58125 0.96083 0.36181 0.0
C499 C 0.49226 0.95889 0.36107 0.0
C500 C 0.44602 0.97227 0.40347 0.0
H501 H 0.75029 0.97915 0.51747 0.0
C502 C 0.77461 0.99527 0.50489 0.0
H503 H 0.7417 0.02563 0.47577 0.0
H504 H 0.3781 0.02104 0.58402 0.0
H505 H 0.45499 0.05094 0.65713 0.0
H506 H 0.60938 0.06205 0.65568 0.0
H507 H 0.68821 0.0422 0.58092 0.0
C508 C 0.71865 0.01108 0.49149 0.0
C509 C 0.62381 0.00681 0.49218 0.0
C510 C 0.57748 0.01988 0.53566 0.0
C511 C 0.48684 0.01542 0.53593 0.0
C512 C 0.44479 0.02591 0.58077 0.0
C513 C 0.48871 0.0427 0.62332 0.0
C514 C 0.57571 0.04881 0.62256 0.0
C515 C 0.62015 0.03729 0.57941 0.0
H516 H 0.82023 0.54157 0.0225 0.0
C517 C 0.79737 0.5185 0.00582 0.0
H518 H 0.83149 0.47285 0.97592 0.0
H519 H 0.20682 0.48937 0.91458 0.0
H520 H 0.13985 0.45843 0.83875 0.0
H521 H 0.98477 0.44706 0.83367 0.0
H522 H 0.896 0.46673 0.90452 0.0
C523 C 0.85428 0.49594 0.99213 0.0
C524 C 0.94917 0.50149 0.99652 0.0
C525 C 1.00089 0.48929 0.95483 0.0
C526 C 0.09101 0.4951 0.95799 0.0
C527 C 0.13941 0.48426 0.91508 0.0
C528 C 0.10142 0.46681 0.87097 0.0
C529 C 1.01413 0.46046 0.8681 0.0
C530 C 0.96398 0.4718 0.90925 0.0
H531 H 0.25887 0.47192 0.97461 0.0
C532 C 0.28185 0.49489 0.99282 0.0
H533 H 0.24848 0.54054 0.02533 0.0
H534 H 0.87189 0.52495 0.085 0.0
H535 H 0.93895 0.55567 0.16093 0.0
H536 H 0.09438 0.56648 0.16623 0.0
H537 H 0.18337 0.54657 0.09554 0.0
C538 C 0.22521 0.51753 0.00782 0.0
C539 C 0.13018 0.51217 0.00331 0.0
C540 C 0.07843 0.52435 0.04502 0.0
C541 C 0.98823 0.51869 0.0418 0.0
C542 C 0.93955 0.52978 0.08461 0.0
C543 C 0.97754 0.54713 0.12876 0.0
C544 C 0.06502 0.55317 0.13175 0.0
C545 C 0.11532 0.5417 0.09067 0.0
H546 H 0.26637 0.4765 0.46493 0.0
C547 C 0.29168 0.49741 0.49215 0.0
H548 H 0.26056 0.53873 0.54841 0.0
H549 H 0.89765 0.48592 0.4182 0.0
H550 H 0.97744 0.48398 0.34969 0.0
H551 H 0.13084 0.49809 0.35714 0.0
H552 H 0.20601 0.51307 0.43274 0.0
C553 C 0.23607 0.5185 0.51976 0.0
C554 C 0.14031 0.51401 0.51594 0.0
C555 C 0.09555 0.50766 0.47234 0.0
C556 C 1.00509 0.50205 0.46905 0.0
C557 C 0.9645 0.49253 0.42375 0.0
C558 C 1.00985 0.49099 0.38389 0.0
C559 C 0.09632 0.49874 0.38802 0.0
C560 C 0.13896 0.50701 0.43159 0.0
H561 H 0.82772 0.53227 0.48335 0.0
C562 C 0.80501 0.51533 0.49454 0.0
H563 H 0.83936 0.48454 0.52203 0.0
H564 H 0.20441 0.52522 0.60495 0.0
H565 H 0.12268 0.53121 0.67497 0.0
H566 H 0.96477 0.52657 0.67134 0.0
H567 H 0.88776 0.51553 0.59748 0.0
C568 C 0.86251 0.50005 0.50824 0.0
C569 C 0.9577 0.5056 0.51048 0.0
C570 C 1.00205 0.5131 0.55447 0.0
C571 C 0.09315 0.51679 0.55698 0.0
C572 C 0.13535 0.52299 0.60105 0.0
C573 C 0.08922 0.52637 0.64163 0.0
C574 C 1.00037 0.52368 0.63956 0.0
C575 C 0.95699 0.51716 0.5967 0.0
H576 H 0.94809 0.98374 0.3422 0.0
C577 C 0.99518 0.99923 0.36624 0.0
H578 H 0.0859 0.03337 0.37624 0.0
H579 H 0.99263 0.96289 0.14147 0.0
H580 H 0.04239 0.9172 0.14476 0.0
H581 H 0.09239 0.91778 0.22112 0.0
H582 H 0.08949 0.96378 0.29433 0.0
C583 C 0.03963 0.01755 0.3521 0.0
C584 C 1.02468 0.01799 0.30452 0.0
C585 C 1.03535 0.99163 0.26152 0.0
C586 C 1.01551 0.99193 0.2167 0.0
C587 C 1.01517 0.96439 0.17534 0.0
C588 C 0.04218 0.93795 0.17706 0.0
C589 C 0.0697 0.93825 0.22009 0.0
C590 C 0.06654 0.96472 0.26195 0.0
H591 H 0.11175 1.00162 0.14375 0.0
C592 C 0.05532 0.01124 0.13487 0.0
H593 H 0.93312 0.03012 0.15757 0.0
H594 H 0.99497 0.07231 0.37985 0.0
H595 H 0.95387 0.11837 0.37508 0.0
H596 H 0.93249 0.1199 0.2968 0.0
H597 H 0.95066 0.07526 0.2229 0.0
C598 C 0.99026 0.02084 0.16638 0.0
C599 C 0.99572 0.01937 0.21399 0.0
C600 C 0.98526 0.04577 0.257 0.0
C601 C 0.99904 0.04501 0.30225 0.0
C602 C 0.9866 0.07162 0.34455 0.0
C603 C 0.96284 0.09826 0.34235 0.0
C604 C 0.95074 0.09911 0.29829 0.0
C605 C 0.96158 0.07326 0.25605 0.0
H606 H 0.14833 0.00968 0.86169 0.0
C607 C 0.0831 0.00974 0.87415 0.0
H608 H 0.95109 0.01014 0.86054 0.0
H609 H 0.93505 0.06273 0.71034 0.0
H610 H 0.83922 0.09525 0.77269 0.0
H611 H 0.83149 0.09203 0.85038 0.0
H612 H 0.917 0.05591 0.86542 0.0
C613 C 1.01567 0.0107 0.84757 0.0
C614 C 1.02577 0.01402 0.80182 0.0
C615 C 0.97933 0.03673 0.79506 0.0
C616 C 0.98772 0.04001 0.75155 0.0
C617 C 0.93476 0.06084 0.74391 0.0
C618 C 0.87889 0.07931 0.77919 0.0
C619 C 0.87426 0.07739 0.8228 0.0
C620 C 0.92361 0.0564 0.83085 0.0
H621 H 0.99017 0.98583 0.63163 0.0
C622 C 1.02186 0.0052 0.63027 0.0
H623 H 0.08802 0.04568 0.67139 0.0
H624 H 0.10413 0.96232 0.79507 0.0
H625 H 0.20785 0.93291 0.73571 0.0
H626 H 0.24489 0.94539 0.66891 0.0
H627 H 0.17336 0.98642 0.65889 0.0
C628 C 0.05588 0.02594 0.67084 0.0
C629 C 0.04743 0.02233 0.71641 0.0
C630 C 0.09486 0.99995 0.72342 0.0
C631 C 0.08007 0.99458 0.76469 0.0
C632 C 0.11894 0.96928 0.76711 0.0
C633 C 0.17759 0.95183 0.73272 0.0
C634 C 0.19778 0.95873 0.69474 0.0
C635 C 0.15639 0.98227 0.68956 0.0
H636 H 0.48469 0.47851 0.34044 0.0
C637 C 0.52881 0.49564 0.36387 0.0
H638 H 0.61407 0.53073 0.37122 0.0
H639 H 0.51793 0.45607 0.13663 0.0
H640 H 0.5814 0.4124 0.14071 0.0
H641 H 0.6372 0.41481 0.21712 0.0
H642 H 0.62593 0.46062 0.29038 0.0
C643 C 0.57014 0.51358 0.34766 0.0
C644 C 0.55063 0.51314 0.29991 0.0
C645 C 0.56218 0.48668 0.25716 0.0
C646 C 0.53702 0.48602 0.21231 0.0
C647 C 0.5418 0.45849 0.17094 0.0
C648 C 0.57714 0.43311 0.17293 0.0
C649 C 0.60788 0.43441 0.21607 0.0
C650 C 0.60035 0.46077 0.25785 0.0
H651 H 0.61795 0.49934 0.13742 0.0
C652 C 0.55612 0.50663 0.12983 0.0
H653 H 0.4304 0.52019 0.1545 0.0
H654 H 0.5259 0.56847 0.37438 0.0
H655 H 0.46871 0.61258 0.36932 0.0
H656 H 0.42854 0.61171 0.29127 0.0
H657 H 0.44463 0.56656 0.21808 0.0
C658 C 0.49274 0.51331 0.16218 0.0
C659 C 0.50731 0.51255 0.20962 0.0
C660 C 0.49607 0.53904 0.25233 0.0
C661 C 0.51864 0.53944 0.2974 0.0
C662 C 0.50844 0.56651 0.33927 0.0
C663 C 0.47611 0.59217 0.33688 0.0
C664 C 0.4536 0.59169 0.29297 0.0
C665 C 0.46347 0.56556 0.25112 0.0
H666 H 0.63518 0.52785 0.65585 0.0
C667 C 0.58184 0.51423 0.63494 0.0
H668 H 0.47836 0.48583 0.63223 0.0
H669 H 0.60863 0.43965 0.78059 0.0
H670 H 0.59969 0.39398 0.70748 0.0
H671 H 0.57168 0.39573 0.62988 0.0
H672 H 0.55088 0.4431 0.6252 0.0
C673 C 0.53154 0.49949 0.65329 0.0
C674 C 0.55063 0.499 0.70037 0.0
C675 C 0.56506 0.47108 0.70234 0.0
C676 C 0.58275 0.47012 0.74701 0.0
C677 C 0.59482 0.44183 0.74787 0.0
C678 C 0.5903 0.41537 0.70603 0.0
C679 C 0.57448 0.41634 0.66237 0.0
C680 C 0.56232 0.44377 0.66027 0.0
H681 H 0.48382 0.5204 0.86541 0.0
C682 C 0.53745 0.50835 0.87155 0.0
H683 H 0.65034 0.48378 0.84282 0.0
H684 H 0.51164 0.55602 0.71156 0.0
H685 H 0.53171 0.60199 0.78346 0.0
H686 H 0.58571 0.60067 0.85796 0.0
H687 H 0.61612 0.55325 0.86109 0.0
C688 C 0.5965 0.49586 0.83704 0.0
C689 C 0.58732 0.49711 0.78961 0.0
C690 C 0.57818 0.52511 0.78704 0.0
C691 C 0.55512 0.526 0.743 0.0
C692 C 0.5357 0.55412 0.74304 0.0
C693 C 0.54604 0.58069 0.78427 0.0
C694 C 0.57581 0.57995 0.82625 0.0
C695 C 0.59194 0.55256 0.82777 0.0
loop_
_geom_bond_atom_site_label_1
_geom_bond_atom_site_label_2
_geom_bond_distance
_geom_bond_site_symmetry_2
_ccdc_geom_bond_type
Eu0 N29 2.600 . S
Eu0 N35 2.562 . S
Eu0 O44 2.462 1_655 S
Eu0 O45 2.373 . S
Eu0 O47 2.432 1_655 S
Eu0 O48 2.291 1_556 S
Eu0 O52 2.335 1_655 S
Eu0 O55 2.372 1_655 S
Eu0 C64 2.787 1_655 S
C1 N2 1.365 . S
C1 C4 1.405 . S
C1 C8 1.448 . S
N2 C1 1.365 . S
N2 C5 1.319 . S
N2 Eu11 2.600 . S
C3 C5 1.397 . S
C3 C6 1.367 . S
C3 H23 0.931 . S
C4 C1 1.405 . S
C4 C6 1.403 . S
C4 C10 1.439 . S
C5 N2 1.319 . S
C5 C3 1.397 . S
C5 H16 0.930 . S
C6 C3 1.367 . S
C6 C4 1.403 . S
C6 H27 0.929 . S
C7 C8 1.430 . S
C7 C9 1.387 . S
C7 C13 1.404 . S
C8 C1 1.448 . S
C8 C7 1.430 . S
C8 N12 1.351 . S
C9 C7 1.387 . S
C9 C10 1.374 . S
C9 H24 0.931 . S
C10 C4 1.439 . S
C10 C9 1.374 . S
C10 H25 0.931 . S
Eu11 N2 2.600 . S
Eu11 N12 2.562 . S
Eu11 O46 2.335 1_455 S
Eu11 O49 2.372 1_455 S
Eu11 O50 2.462 1_455 S
Eu11 O51 2.373 . S
Eu11 O53 2.432 1_455 S
Eu11 O54 2.291 1_554 S
Eu11 C75 2.787 1_455 S
N12 C8 1.351 . S
N12 Eu11 2.562 . S
N12 C14 1.325 1_554 S
C13 C7 1.404 . S
C13 C15 1.366 1_554 S
C13 H21 0.930 1_554 S
C14 N12 1.325 1_556 S
C14 C15 1.416 . S
C14 H20 0.929 . S
C15 C13 1.366 1_556 S
C15 C14 1.416 . S
C15 H17 0.930 . S
H16 C5 0.930 . S
H17 C15 0.930 . S
H18 C33 0.930 . S
H19 C40 0.930 . S
H20 C14 0.929 . S
H21 C13 0.930 1_556 S
H22 C36 0.929 . S
H23 C3 0.931 . S
H24 C9 0.931 . S
H25 C10 0.931 . S
H26 C31 0.931 . S
H27 C6 0.929 . S
H28 C39 0.924 1_554 S
N29 Eu0 2.600 . S
N29 C30 1.365 . S
N29 C33 1.319 . S
C30 N29 1.365 . S
C30 C32 1.405 . S
C30 C38 1.448 . S
C31 H26 0.931 . S
C31 C33 1.397 . S
C31 C34 1.367 . S
C32 C30 1.405 . S
C32 C34 1.403 . S
C32 C65 1.439 . S
C33 H18 0.930 . S
C33 N29 1.319 . S
C33 C31 1.397 . S
C34 C31 1.367 . S
C34 C32 1.403 . S
C34 H41 0.929 . S
N35 Eu0 2.562 . S
N35 C36 1.325 1_556 S
N35 C38 1.351 . S
C36 H22 0.929 . S
C36 N35 1.325 1_554 S
C36 C40 1.416 . S
C37 C38 1.430 . S
C37 C39 1.419 . S
C37 C66 1.387 . S
C38 C30 1.448 . S
C38 N35 1.351 . S
C38 C37 1.430 . S
C39 H28 0.924 1_556 S
C39 C37 1.419 . S
C39 C40 1.357 1_556 S
C40 H19 0.930 . S
C40 C36 1.416 . S
C40 C39 1.357 1_554 S
H41 C34 0.929 . S
H42 C65 0.931 . S
H43 C66 0.931 . S
O44 Eu0 2.462 1_455 S
O44 C64 1.252 . S
O45 Eu0 2.373 . S
O45 C56 1.249 1_565 S
O46 Eu11 2.335 1_655 S
O46 C56 1.264 1_554 S
O47 Eu0 2.432 1_455 S
O47 C64 1.268 . S
O48 Eu0 2.291 1_554 S
O48 C63 1.255 1_565 S
O49 Eu11 2.372 1_655 S
O49 C63 1.257 . S
O50 Eu11 2.462 1_655 S
O50 C75 1.252 . S
O51 Eu11 2.373 . S
O51 C67 1.228 1_545 S
O52 Eu0 2.335 1_455 S
O52 C67 1.285 1_556 S
O53 Eu11 2.432 1_655 S
O53 C75 1.268 . S
O54 Eu11 2.291 1_556 S
O54 C74 1.249 1_545 S
O55 Eu0 2.372 1_455 S
O55 C74 1.273 . S
C56 O45 1.249 1_545 S
C56 O46 1.264 1_556 S
C57 C60 1.382 . S
C57 C62 1.390 . S
C57 C64 1.506 . S
C58 C59 1.398 . S
C58 C62 1.392 . S
C59 C58 1.398 . S
C59 C61 1.372 . S
C59 H76 0.931 . S
C60 C57 1.382 . S
C60 C61 1.390 . S
C60 H77 0.931 . S
C61 C59 1.372 . S
C61 C60 1.390 . S
C61 H78 0.929 . S
C62 C57 1.390 . S
C62 C58 1.392 . S
C62 H79 0.930 1_556 S
C63 O48 1.255 1_545 S
C63 O49 1.257 . S
C64 Eu0 2.787 1_455 S
C64 O44 1.252 . S
C64 O47 1.268 . S
C64 C57 1.506 . S
C65 C32 1.439 . S
C65 H42 0.931 . S
C65 C66 1.374 . S
C66 C37 1.387 . S
C66 H43 0.931 . S
C66 C65 1.374 . S
C67 O51 1.228 1_565 S
C67 O52 1.285 1_554 S
C68 C71 1.382 . S
C68 C72 1.390 . S
C68 C75 1.506 . S
C69 C70 1.398 . S
C69 C72 1.392 . S
C70 C69 1.398 . S
C70 C73 1.372 . S
C70 H80 0.931 . S
C71 C68 1.382 . S
C71 C73 1.390 . S
C71 H81 0.931 . S
C72 C68 1.390 . S
C72 C69 1.392 . S
C72 H82 0.930 1_554 S
C73 C70 1.372 . S
C73 C71 1.390 . S
C73 H83 0.929 . S
C74 O54 1.249 1_565 S
C74 O55 1.273 . S
C75 Eu11 2.787 1_655 S
C75 O50 1.252 . S
C75 O53 1.268 . S
C75 C68 1.506 . S
H76 C59 0.931 . S
H77 C60 0.931 . S
H78 C61 0.929 . S
H79 C62 0.930 1_554 S
H80 C70 0.931 . S
H81 C71 0.931 . S
H82 C72 0.930 1_556 S
H83 C73 0.929 . S
Eu84 N113 2.600 . S
Eu84 N119 2.562 . S
Eu84 O128 2.462 1_655 S
Eu84 O129 2.373 . S
Eu84 O131 2.432 1_655 S
Eu84 O132 2.291 . S
Eu84 O136 2.335 1_655 S
Eu84 O139 2.372 1_655 S
Eu84 C148 2.787 1_655 S
C85 N86 1.365 . S
C85 C88 1.405 . S
C85 C92 1.448 . S
N86 C85 1.365 . S
N86 C89 1.319 . S
N86 Eu95 2.600 . S
C87 C89 1.397 . S
C87 C90 1.367 . S
C87 H107 0.931 . S
C88 C85 1.405 . S
C88 C90 1.403 . S
C88 C94 1.439 . S
C89 N86 1.319 . S
C89 C87 1.397 . S
C89 H100 0.930 . S
C90 C87 1.367 . S
C90 C88 1.403 . S
C90 H111 0.929 . S
C91 C92 1.430 . S
C91 C93 1.387 . S
C91 C97 1.404 . S
C92 C85 1.448 . S
C92 C91 1.430 . S
C92 N96 1.351 . S
C93 C91 1.387 . S
C93 C94 1.374 . S
C93 H108 0.931 . S
C94 C88 1.439 . S
C94 C93 1.374 . S
C94 H109 0.931 . S
Eu95 N86 2.600 . S
Eu95 N96 2.562 . S
Eu95 O130 2.335 1_455 S
Eu95 O133 2.372 1_455 S
Eu95 O134 2.462 1_455 S
Eu95 O135 2.373 . S
Eu95 O137 2.432 1_455 S
Eu95 O138 2.291 . S
Eu95 C159 2.787 1_455 S
N96 C92 1.351 . S
N96 Eu95 2.562 . S
N96 C98 1.325 . S
C97 C91 1.404 . S
C97 C99 1.366 . S
C97 H105 0.930 . S
C98 N96 1.325 . S
C98 C99 1.416 . S
C98 H104 0.929 . S
C99 C97 1.366 . S
C99 C98 1.416 . S
C99 H101 0.930 . S
H100 C89 0.930 . S
H101 C99 0.930 . S
H102 C117 0.930 . S
H103 C124 0.930 . S
H104 C98 0.929 . S
H105 C97 0.930 . S
H106 C120 0.929 . S
H107 C87 0.931 . S
H108 C93 0.931 . S
H109 C94 0.931 . S
H110 C115 0.931 . S
H111 C90 0.929 . S
H112 C123 0.930 . S
N113 Eu84 2.600 . S
N113 C114 1.365 . S
N113 C117 1.319 . S
C114 N113 1.365 . S
C114 C116 1.405 . S
C114 C122 1.448 . S
C115 H110 0.931 . S
C115 C117 1.397 . S
C115 C118 1.367 . S
C116 C114 1.405 . S
C116 C118 1.403 . S
C116 C149 1.439 . S
C117 H102 0.930 . S
C117 N113 1.319 . S
C117 C115 1.397 . S
C118 C115 1.367 . S
C118 C116 1.403 . S
C118 H125 0.929 . S
N119 Eu84 2.562 . S
N119 C120 1.325 . S
N119 C122 1.351 . S
C120 H106 0.929 . S
C120 N119 1.325 . S
C120 C124 1.416 . S
C121 C122 1.430 . S
C121 C123 1.404 . S
C121 C150 1.387 . S
C122 C114 1.448 . S
C122 N119 1.351 . S
C122 C121 1.430 . S
C123 H112 0.930 . S
C123 C121 1.404 . S
C123 C124 1.366 . S
C124 H103 0.930 . S
C124 C120 1.416 . S
C124 C123 1.366 . S
H125 C118 0.929 . S
H126 C149 0.931 . S
H127 C150 0.931 . S
O128 Eu84 2.462 1_455 S
O128 C148 1.252 . S
O129 Eu84 2.373 . S
O129 C140 1.228 1_545 S
O130 Eu95 2.335 1_655 S
O130 C140 1.285 . S
O131 Eu84 2.432 1_455 S
O131 C148 1.268 . S
O132 Eu84 2.291 . S
O132 C147 1.249 1_545 S
O133 Eu95 2.372 1_655 S
O133 C147 1.273 . S
O134 Eu95 2.462 1_655 S
O134 C159 1.252 . S
O135 Eu95 2.373 . S
O135 C151 1.249 1_565 S
O136 Eu84 2.335 1_455 S
O136 C151 1.264 . S
O137 Eu95 2.432 1_655 S
O137 C159 1.268 . S
O138 Eu95 2.291 . S
O138 C158 1.255 1_565 S
O139 Eu84 2.372 1_455 S
O139 C158 1.257 . S
C140 O129 1.228 1_565 S
C140 O130 1.285 . S
C141 C144 1.382 . S
C141 C146 1.390 . S
C141 C148 1.506 . S
C142 C143 1.398 . S
C142 C146 1.392 . S
C143 C142 1.398 . S
C143 C145 1.372 . S
C143 H160 0.931 . S
C144 C141 1.382 . S
C144 C145 1.390 . S
C144 H161 0.931 . S
C145 C143 1.372 . S
C145 C144 1.390 . S
C145 H162 0.929 . S
C146 C141 1.390 . S
C146 C142 1.392 . S
C146 H163 0.930 . S
C147 O132 1.249 1_565 S
C147 O133 1.273 . S
C148 Eu84 2.787 1_455 S
C148 O128 1.252 . S
C148 O131 1.268 . S
C148 C141 1.506 . S
C149 C116 1.439 . S
C149 H126 0.931 . S
C149 C150 1.374 . S
C150 C121 1.387 . S
C150 H127 0.931 . S
C150 C149 1.374 . S
C151 O135 1.249 1_545 S
C151 O136 1.264 . S
C152 C155 1.382 . S
C152 C156 1.390 . S
C152 C159 1.506 . S
C153 C154 1.398 . S
C153 C156 1.392 . S
C154 C153 1.398 . S
C154 C157 1.372 . S
C154 H164 0.931 . S
C155 C152 1.382 . S
C155 C157 1.390 . S
C155 H165 0.931 . S
C156 C152 1.390 . S
C156 C153 1.392 . S
C156 H166 0.930 . S
C157 C154 1.372 . S
C157 C155 1.390 . S
C157 H167 0.929 . S
C158 O138 1.255 1_545 S
C158 O139 1.257 . S
C159 Eu95 2.787 1_655 S
C159 O134 1.252 . S
C159 O137 1.268 . S
C159 C152 1.506 . S
H160 C143 0.931 . S
H161 C144 0.931 . S
H162 C145 0.929 . S
H163 C146 0.930 . S
H164 C154 0.931 . S
H165 C155 0.931 . S
H166 C156 0.930 . S
H167 C157 0.929 . S
Eu168 N197 2.600 . S
Eu168 N203 2.562 . S
Eu168 O212 2.462 . S
Eu168 O213 2.373 . S
Eu168 O215 2.432 . S
Eu168 O216 2.291 1_556 S
Eu168 O220 2.335 . S
Eu168 O223 2.372 . S
Eu168 C232 2.787 . S
C169 N170 1.365 . S
C169 C172 1.405 . S
C169 C176 1.448 . S
N170 C169 1.365 . S
N170 C173 1.319 . S
N170 Eu179 2.600 . S
C171 C173 1.397 . S
C171 C174 1.367 . S
C171 H191 0.931 . S
C172 C169 1.405 . S
C172 C174 1.403 . S
C172 C178 1.439 . S
C173 N170 1.319 . S
C173 C171 1.397 . S
C173 H184 0.930 . S
C174 C171 1.367 . S
C174 C172 1.403 . S
C174 H195 0.929 . S
C175 C176 1.430 . S
C175 C177 1.387 . S
C175 C181 1.404 . S
C176 C169 1.448 . S
C176 C175 1.430 . S
C176 N180 1.351 . S
C177 C175 1.387 . S
C177 C178 1.374 . S
C177 H192 0.931 . S
C178 C172 1.439 . S
C178 C177 1.374 . S
C178 H193 0.931 . S
Eu179 N170 2.600 . S
Eu179 N180 2.562 . S
Eu179 O214 2.335 . S
Eu179 O217 2.372 . S
Eu179 O218 2.462 . S
Eu179 O219 2.373 . S
Eu179 O221 2.432 . S
Eu179 O222 2.291 1_554 S
Eu179 C243 2.787 . S
N180 C176 1.351 . S
N180 Eu179 2.562 . S
N180 C182 1.325 1_554 S
C181 C175 1.404 . S
C181 C183 1.366 1_554 S
C181 H189 0.930 1_554 S
C182 N180 1.325 1_556 S
C182 C183 1.416 . S
C182 H188 0.929 . S
C183 C181 1.366 1_556 S
C183 C182 1.416 . S
C183 H185 0.930 . S
H184 C173 0.930 . S
H185 C183 0.930 . S
H186 C201 0.930 . S
H187 C208 0.930 . S
H188 C182 0.929 . S
H189 C181 0.930 1_556 S
H190 C204 0.929 . S
H191 C171 0.931 . S
H192 C177 0.931 . S
H193 C178 0.931 . S
H194 C199 0.931 . S
H195 C174 0.929 . S
H196 C207 0.925 1_554 S
N197 Eu168 2.600 . S
N197 C198 1.365 . S
N197 C201 1.319 . S
C198 N197 1.365 . S
C198 C200 1.405 . S
C198 C206 1.448 . S
C199 H194 0.931 . S
C199 C201 1.397 . S
C199 C202 1.367 . S
C200 C198 1.405 . S
C200 C202 1.403 . S
C200 C233 1.439 . S
C201 H186 0.930 . S
C201 N197 1.319 . S
C201 C199 1.397 . S
C202 C199 1.367 . S
C202 C200 1.403 . S
C202 H209 0.929 . S
N203 Eu168 2.562 . S
N203 C204 1.325 1_556 S
N203 C206 1.351 . S
C204 H190 0.929 . S
C204 N203 1.325 1_554 S
C204 C208 1.416 . S
C205 C206 1.430 . S
C205 C207 1.418 . S
C205 C234 1.387 . S
C206 C198 1.448 . S
C206 N203 1.351 . S
C206 C205 1.430 . S
C207 H196 0.925 1_556 S
C207 C205 1.418 . S
C207 C208 1.358 1_556 S
C208 H187 0.930 . S
C208 C204 1.416 . S
C208 C207 1.358 1_554 S
H209 C202 0.929 . S
H210 C233 0.931 . S
H211 C234 0.931 . S
O212 Eu168 2.462 . S
O212 C232 1.252 . S
O213 Eu168 2.373 . S
O213 C224 1.249 . S
O214 Eu179 2.335 . S
O214 C224 1.264 1_554 S
O215 Eu168 2.432 . S
O215 C232 1.268 . S
O216 Eu168 2.291 1_554 S
O216 C231 1.255 . S
O217 Eu179 2.372 . S
O217 C231 1.257 . S
O218 Eu179 2.462 . S
O218 C243 1.252 . S
O219 Eu179 2.373 . S
O219 C235 1.249 . S
O220 Eu168 2.335 . S
O220 C235 1.264 1_556 S
O221 Eu179 2.432 . S
O221 C243 1.268 . S
O222 Eu179 2.291 1_556 S
O222 C242 1.255 . S
O223 Eu168 2.372 . S
O223 C242 1.257 . S
C224 O213 1.249 . S
C224 O214 1.264 1_556 S
C225 C228 1.382 . S
C225 C230 1.390 . S
C225 C232 1.506 . S
C226 C227 1.398 . S
C226 C230 1.392 . S
C227 C226 1.398 . S
C227 C229 1.372 . S
C227 H244 0.931 . S
C228 C225 1.382 . S
C228 C229 1.390 . S
C228 H245 0.931 . S
C229 C227 1.372 . S
C229 C228 1.390 . S
C229 H246 0.929 . S
C230 C225 1.390 . S
C230 C226 1.392 . S
C230 H247 0.930 1_556 S
C231 O216 1.255 . S
C231 O217 1.257 . S
C232 Eu168 2.787 . S
C232 O212 1.252 . S
C232 O215 1.268 . S
C232 C225 1.506 . S
C233 C200 1.439 . S
C233 H210 0.931 . S
C233 C234 1.374 . S
C234 C205 1.387 . S
C234 H211 0.931 . S
C234 C233 1.374 . S
C235 O219 1.249 . S
C235 O220 1.264 1_554 S
C236 C239 1.382 . S
C236 C240 1.390 . S
C236 C243 1.506 . S
C237 C238 1.398 . S
C237 C240 1.392 . S
C238 C237 1.398 . S
C238 C241 1.372 . S
C238 H248 0.931 . S
C239 C236 1.382 . S
C239 C241 1.390 . S
C239 H249 0.931 . S
C240 C236 1.390 . S
C240 C237 1.392 . S
C240 H250 0.930 1_554 S
C241 C238 1.372 . S
C241 C239 1.390 . S
C241 H251 0.929 . S
C242 O222 1.255 . S
C242 O223 1.257 . S
C243 Eu179 2.787 . S
C243 O218 1.252 . S
C243 O221 1.268 . S
C243 C236 1.506 . S
H244 C227 0.931 . S
H245 C228 0.931 . S
H246 C229 0.929 . S
H247 C230 0.930 1_554 S
H248 C238 0.931 . S
H249 C239 0.931 . S
H250 C240 0.930 1_556 S
H251 C241 0.929 . S
Eu252 N281 2.600 . S
Eu252 N287 2.562 . S
Eu252 O296 2.462 . S
Eu252 O297 2.373 . S
Eu252 O299 2.432 . S
Eu252 O300 2.291 . S
Eu252 O304 2.335 . S
Eu252 O307 2.372 . S
Eu252 C316 2.787 . S
C253 N254 1.365 . S
C253 C256 1.405 . S
C253 C260 1.448 . S
N254 C253 1.365 . S
N254 C257 1.319 . S
N254 Eu263 2.600 . S
C255 C257 1.397 . S
C255 C258 1.367 . S
C255 H275 0.931 . S
C256 C253 1.405 . S
C256 C258 1.403 . S
C256 C262 1.439 . S
C257 N254 1.319 . S
C257 C255 1.397 . S
C257 H268 0.930 . S
C258 C255 1.367 . S
C258 C256 1.403 . S
C258 H279 0.929 . S
C259 C260 1.430 . S
C259 C261 1.387 . S
C259 C265 1.404 . S
C260 C253 1.448 . S
C260 C259 1.430 . S
C260 N264 1.351 . S
C261 C259 1.387 . S
C261 C262 1.374 . S
C261 H276 0.931 . S
C262 C256 1.439 . S
C262 C261 1.374 . S
C262 H277 0.931 . S
Eu263 N254 2.600 . S
Eu263 N264 2.562 . S
Eu263 O298 2.335 . S
Eu263 O301 2.372 . S
Eu263 O302 2.462 . S
Eu263 O303 2.373 . S
Eu263 O305 2.432 . S
Eu263 O306 2.291 . S
Eu263 C327 2.787 . S
N264 C260 1.351 . S
N264 Eu263 2.562 . S
N264 C266 1.325 . S
C265 C259 1.404 . S
C265 C267 1.366 . S
C265 H273 0.930 . S
C266 N264 1.325 . S
C266 C267 1.416 . S
C266 H272 0.929 . S
C267 C265 1.366 . S
C267 C266 1.416 . S
C267 H269 0.930 . S
H268 C257 0.930 . S
H269 C267 0.930 . S
H270 C285 0.930 . S
H271 C292 0.930 . S
H272 C266 0.929 . S
H273 C265 0.930 . S
H274 C288 0.929 . S
H275 C255 0.931 . S
H276 C261 0.931 . S
H277 C262 0.931 . S
H278 C283 0.931 . S
H279 C258 0.929 . S
H280 C291 0.930 . S
N281 Eu252 2.600 . S
N281 C282 1.365 . S
N281 C285 1.319 . S
C282 N281 1.365 . S
C282 C284 1.405 . S
C282 C290 1.448 . S
C283 H278 0.931 . S
C283 C285 1.397 . S
C283 C286 1.367 . S
C284 C282 1.405 . S
C284 C286 1.403 . S
C284 C317 1.439 . S
C285 H270 0.930 . S
C285 N281 1.319 . S
C285 C283 1.397 . S
C286 C283 1.367 . S
C286 C284 1.403 . S
C286 H293 0.929 . S
N287 Eu252 2.562 . S
N287 C288 1.325 . S
N287 C290 1.351 . S
C288 H274 0.929 . S
C288 N287 1.325 . S
C288 C292 1.416 . S
C289 C290 1.430 . S
C289 C291 1.404 . S
C289 C318 1.387 . S
C290 C282 1.448 . S
C290 N287 1.351 . S
C290 C289 1.430 . S
C291 H280 0.930 . S
C291 C289 1.404 . S
C291 C292 1.366 . S
C292 H271 0.930 . S
C292 C288 1.416 . S
C292 C291 1.366 . S
H293 C286 0.929 . S
H294 C317 0.931 . S
H295 C318 0.931 . S
O296 Eu252 2.462 . S
O296 C316 1.252 . S
O297 Eu252 2.373 . S
O297 C308 1.249 . S
O298 Eu263 2.335 . S
O298 C308 1.264 . S
O299 Eu252 2.432 . S
O299 C316 1.268 . S
O300 Eu252 2.291 . S
O300 C315 1.255 . S
O301 Eu263 2.372 . S
O301 C315 1.257 . S
O302 Eu263 2.462 . S
O302 C327 1.252 . S
O303 Eu263 2.373 . S
O303 C319 1.249 . S
O304 Eu252 2.335 . S
O304 C319 1.264 . S
O305 Eu263 2.432 . S
O305 C327 1.268 . S
O306 Eu263 2.291 . S
O306 C326 1.255 . S
O307 Eu252 2.372 . S
O307 C326 1.257 . S
C308 O297 1.249 . S
C308 O298 1.264 . S
C309 C312 1.382 . S
C309 C314 1.390 . S
C309 C316 1.506 . S
C310 C311 1.398 . S
C310 C314 1.392 . S
C311 C310 1.398 . S
C311 C313 1.372 . S
C311 H328 0.931 . S
C312 C309 1.382 . S
C312 C313 1.390 . S
C312 H329 0.931 . S
C313 C311 1.372 . S
C313 C312 1.390 . S
C313 H330 0.929 . S
C314 C309 1.390 . S
C314 C310 1.392 . S
C314 H331 0.930 . S
C315 O300 1.255 . S
C315 O301 1.257 . S
C316 Eu252 2.787 . S
C316 O296 1.252 . S
C316 O299 1.268 . S
C316 C309 1.506 . S
C317 C284 1.439 . S
C317 H294 0.931 . S
C317 C318 1.374 . S
C318 C289 1.387 . S
C318 H295 0.931 . S
C318 C317 1.374 . S
C319 O303 1.249 . S
C319 O304 1.264 . S
C320 C323 1.382 . S
C320 C324 1.390 . S
C320 C327 1.506 . S
C321 C322 1.398 . S
C321 C324 1.392 . S
C322 C321 1.398 . S
C322 C325 1.372 . S
C322 H332 0.931 . S
C323 C320 1.382 . S
C323 C325 1.390 . S
C323 H333 0.931 . S
C324 C320 1.390 . S
C324 C321 1.392 . S
C324 H334 0.930 . S
C325 C322 1.372 . S
C325 C323 1.390 . S
C325 H335 0.929 . S
C326 O306 1.255 . S
C326 O307 1.257 . S
C327 Eu263 2.787 . S
C327 O302 1.252 . S
C327 O305 1.268 . S
C327 C320 1.506 . S
H328 C311 0.931 . S
H329 C312 0.931 . S
H330 C313 0.929 . S
H331 C314 0.930 . S
H332 C322 0.931 . S
H333 C323 0.931 . S
H334 C324 0.930 . S
H335 C325 0.929 . S
H336 C337 0.954 . S
C337 H336 0.954 . S
C337 C343 1.269 1_556 S
H338 C343 0.950 . S
H339 C347 0.949 . S
H340 C348 0.950 . S
H341 C349 0.951 . S
H342 C350 0.951 . S
C343 C337 1.269 1_554 S
C343 H338 0.950 . S
C343 C344 1.478 . S
C344 C343 1.478 . S
C344 C345 1.397 . S
C344 C361 1.394 1_554 S
C345 C344 1.397 . S
C345 C346 1.438 . S
C345 C350 1.429 . S
C346 C345 1.438 . S
C346 C347 1.428 . S
C346 C359 1.394 . S
C347 H339 0.949 . S
C347 C346 1.428 . S
C347 C348 1.345 . S
C348 H340 0.950 . S
C348 C347 1.345 . S
C348 C349 1.424 . S
C349 H341 0.951 . S
C349 C348 1.424 . S
C349 C350 1.347 . S
C350 H342 0.951 . S
C350 C345 1.429 . S
C350 C349 1.347 . S
H351 C352 0.951 . S
C352 H351 0.951 . S
C352 C358 1.260 . S
H353 C358 0.945 1_556 S
H354 C362 0.949 . S
H355 C363 0.950 . S
H356 C364 0.951 . S
H357 C365 0.951 . S
C358 C352 1.260 . S
C358 H353 0.945 1_554 S
C358 C359 1.488 . S
C359 C346 1.394 . S
C359 C358 1.488 . S
C359 C360 1.397 1_554 S
C360 C359 1.397 1_556 S
C360 C361 1.438 . S
C360 C365 1.429 . S
C361 C344 1.394 1_556 S
C361 C360 1.438 . S
C361 C362 1.428 . S
C362 H354 0.949 . S
C362 C361 1.428 . S
C362 C363 1.345 . S
C363 H355 0.950 . S
C363 C362 1.345 . S
C363 C364 1.424 . S
C364 H356 0.951 . S
C364 C363 1.424 . S
C364 C365 1.347 . S
C365 H357 0.951 . S
C365 C360 1.429 . S
C365 C364 1.347 . S
H366 C367 0.951 1_556 S
C367 H366 0.951 1_554 S
C367 C373 1.265 . S
H368 C373 0.950 . S
H369 C377 0.949 . S
H370 C378 0.950 . S
H371 C379 0.951 . S
H372 C380 0.951 . S
C373 C367 1.265 . S
C373 H368 0.950 . S
C373 C374 1.478 . S
C374 C373 1.478 . S
C374 C375 1.397 . S
C374 C391 1.394 1_554 S
C375 C374 1.397 . S
C375 C376 1.438 . S
C375 C380 1.429 . S
C376 C375 1.438 . S
C376 C377 1.428 . S
C376 C389 1.394 1_554 S
C377 H369 0.949 . S
C377 C376 1.428 . S
C377 C378 1.345 . S
C378 H370 0.950 . S
C378 C377 1.345 . S
C378 C379 1.424 . S
C379 H371 0.951 . S
C379 C378 1.424 . S
C379 C380 1.347 . S
C380 H372 0.951 . S
C380 C375 1.429 . S
C380 C379 1.347 . S
H381 C382 0.951 1_554 S
C382 H381 0.951 1_556 S
C382 C388 1.266 . S
H383 C388 0.950 . S
H384 C392 0.949 . S
H385 C393 0.950 . S
H386 C394 0.951 . S
H387 C395 0.951 . S
C388 C382 1.266 . S
C388 H383 0.950 . S
C388 C389 1.478 . S
C389 C376 1.394 1_556 S
C389 C388 1.478 . S
C389 C390 1.397 . S
C390 C389 1.397 . S
C390 C391 1.438 . S
C390 C395 1.429 . S
C391 C374 1.394 1_556 S
C391 C390 1.438 . S
C391 C392 1.428 . S
C392 H384 0.949 . S
C392 C391 1.428 . S
C392 C393 1.345 . S
C393 H385 0.950 . S
C393 C392 1.345 . S
C393 C394 1.424 . S
C394 H386 0.951 . S
C394 C393 1.424 . S
C394 C395 1.347 . S
C395 H387 0.951 . S
C395 C390 1.429 . S
C395 C394 1.347 . S
H396 C397 0.951 . S
C397 H396 0.951 . S
C397 C403 1.265 . S
H398 C403 0.950 . S
H399 C407 0.949 . S
H400 C408 0.950 . S
H401 C409 0.951 . S
H402 C410 0.951 . S
C403 C397 1.265 . S
C403 H398 0.950 . S
C403 C404 1.478 . S
C404 C403 1.478 . S
C404 C405 1.397 . S
C404 C421 1.394 . S
C405 C404 1.397 . S
C405 C406 1.438 . S
C405 C410 1.429 . S
C406 C405 1.438 . S
C406 C407 1.428 . S
C406 C419 1.394 . S
C407 H399 0.949 . S
C407 C406 1.428 . S
C407 C408 1.345 . S
C408 H400 0.950 . S
C408 C407 1.345 . S
C408 C409 1.424 . S
C409 H401 0.951 . S
C409 C408 1.424 . S
C409 C410 1.347 . S
C410 H402 0.951 . S
C410 C405 1.429 . S
C410 C409 1.347 . S
H411 C412 0.951 . S
C412 H411 0.951 . S
C412 C418 1.265 . S
H413 C418 0.950 . S
H414 C422 0.949 . S
H415 C423 0.950 . S
H416 C424 0.951 . S
H417 C425 0.951 . S
C418 C412 1.265 . S
C418 H413 0.950 . S
C418 C419 1.478 . S
C419 C406 1.394 . S
C419 C418 1.478 . S
C419 C420 1.397 . S
C420 C419 1.397 . S
C420 C421 1.438 . S
C420 C425 1.429 . S
C421 C404 1.394 . S
C421 C420 1.438 . S
C421 C422 1.428 . S
C422 H414 0.949 . S
C422 C421 1.428 . S
C422 C423 1.345 . S
C423 H415 0.950 . S
C423 C422 1.345 . S
C423 C424 1.424 . S
C424 H416 0.951 . S
C424 C423 1.424 . S
C424 C425 1.347 . S
C425 H417 0.951 . S
C425 C420 1.429 . S
C425 C424 1.347 . S
H426 C427 0.951 . S
C427 H426 0.951 . S
C427 C433 1.265 . S
H428 C433 0.950 . S
H429 C437 0.949 . S
H430 C438 0.950 . S
H431 C439 0.951 . S
H432 C440 0.951 . S
C433 C427 1.265 . S
C433 H428 0.950 . S
C433 C434 1.478 . S
C434 C433 1.478 . S
C434 C435 1.397 . S
C434 C451 1.394 . S
C435 C434 1.397 . S
C435 C436 1.438 . S
C435 C440 1.429 . S
C436 C435 1.438 . S
C436 C437 1.428 . S
C436 C449 1.394 . S
C437 H429 0.949 . S
C437 C436 1.428 . S
C437 C438 1.345 . S
C438 H430 0.950 . S
C438 C437 1.345 . S
C438 C439 1.424 . S
C439 H431 0.951 . S
C439 C438 1.424 . S
C439 C440 1.347 . S
C440 H432 0.951 . S
C440 C435 1.429 . S
C440 C439 1.347 . S
H441 C442 0.951 . S
C442 H441 0.951 . S
C442 C448 1.265 . S
H443 C448 0.950 . S
H444 C452 0.949 . S
H445 C453 0.950 . S
H446 C454 0.951 . S
H447 C455 0.951 . S
C448 C442 1.265 . S
C448 H443 0.950 . S
C448 C449 1.478 . S
C449 C436 1.394 . S
C449 C448 1.478 . S
C449 C450 1.397 . S
C450 C449 1.397 . S
C450 C451 1.438 . S
C450 C455 1.429 . S
C451 C434 1.394 . S
C451 C450 1.438 . S
C451 C452 1.428 . S
C452 H444 0.949 . S
C452 C451 1.428 . S
C452 C453 1.345 . S
C453 H445 0.950 . S
C453 C452 1.345 . S
C453 C454 1.424 . S
C454 H446 0.951 . S
C454 C453 1.424 . S
C454 C455 1.347 . S
C455 H447 0.951 . S
C455 C450 1.429 . S
C455 C454 1.347 . S
H456 C457 0.951 . S
C457 H456 0.951 . S
C457 C463 1.265 1_544 S
H458 C463 0.950 . S
H459 C467 0.949 . S
H460 C468 0.950 . S
H461 C469 0.951 . S
H462 C470 0.951 . S
C463 C457 1.265 1_566 S
C463 H458 0.950 . S
C463 C464 1.478 . S
C464 C463 1.478 . S
C464 C465 1.397 . S
C464 C481 1.394 1_566 S
C465 C464 1.397 . S
C465 C466 1.438 . S
C465 C470 1.429 . S
C466 C465 1.438 . S
C466 C467 1.428 . S
C466 C479 1.394 1_566 S
C467 H459 0.949 . S
C467 C466 1.428 . S
C467 C468 1.345 . S
C468 H460 0.950 . S
C468 C467 1.345 . S
C468 C469 1.424 . S
C469 H461 0.951 . S
C469 C468 1.424 . S
C469 C470 1.347 . S
C470 H462 0.951 . S
C470 C465 1.429 . S
C470 C469 1.347 . S
H471 C472 0.951 1_565 S
C472 H471 0.951 1_545 S
C472 C478 1.265 1_556 S
H473 C478 0.950 . S
H474 C482 0.949 . S
H475 C483 0.950 . S
H476 C484 0.951 . S
H477 C485 0.951 . S
C478 C472 1.265 1_554 S
C478 H473 0.950 . S
C478 C479 1.478 . S
C479 C466 1.394 1_544 S
C479 C478 1.478 . S
C479 C480 1.397 . S
C480 C479 1.397 . S
C480 C481 1.438 . S
C480 C485 1.429 . S
C481 C464 1.394 1_544 S
C481 C480 1.438 . S
C481 C482 1.428 . S
C482 H474 0.949 . S
C482 C481 1.428 . S
C482 C483 1.345 . S
C483 H475 0.950 . S
C483 C482 1.345 . S
C483 C484 1.424 . S
C484 H476 0.951 . S
C484 C483 1.424 . S
C484 C485 1.347 . S
C485 H477 0.951 . S
C485 C480 1.429 . S
C485 C484 1.347 . S
H486 C487 0.951 . S
C487 H486 0.951 . S
C487 C493 1.265 1_545 S
H488 C493 0.950 . S
H489 C497 0.949 . S
H490 C498 0.950 . S
H491 C499 0.951 . S
H492 C500 0.951 . S
C493 C487 1.265 1_565 S
C493 H488 0.950 . S
C493 C494 1.478 . S
C494 C493 1.478 . S
C494 C495 1.397 . S
C494 C511 1.394 1_565 S
C495 C494 1.397 . S
C495 C496 1.438 . S
C495 C500 1.429 . S
C496 C495 1.438 . S
C496 C497 1.428 . S
C496 C509 1.394 1_565 S
C497 H489 0.949 . S
C497 C496 1.428 . S
C497 C498 1.345 . S
C498 H490 0.950 . S
C498 C497 1.345 . S
C498 C499 1.424 . S
C499 H491 0.951 . S
C499 C498 1.424 . S
C499 C500 1.347 . S
C500 H492 0.951 . S
C500 C495 1.429 . S
C500 C499 1.347 . S
H501 C502 0.951 . S
C502 H501 0.951 . S
C502 C508 1.265 1_565 S
H503 C508 0.950 . S
H504 C512 0.949 . S
H505 C513 0.950 . S
H506 C514 0.951 . S
H507 C515 0.951 . S
C508 C502 1.265 1_545 S
C508 H503 0.950 . S
C508 C509 1.478 . S
C509 C496 1.394 1_545 S
C509 C508 1.478 . S
C509 C510 1.397 . S
C510 C509 1.397 . S
C510 C511 1.438 . S
C510 C515 1.429 . S
C511 C494 1.394 1_545 S
C511 C510 1.438 . S
C511 C512 1.428 . S
C512 H504 0.949 . S
C512 C511 1.428 . S
C512 C513 1.345 . S
C513 H505 0.950 . S
C513 C512 1.345 . S
C513 C514 1.424 . S
C514 H506 0.951 . S
C514 C513 1.424 . S
C514 C515 1.347 . S
C515 H507 0.951 . S
C515 C510 1.429 . S
C515 C514 1.347 . S
H516 C517 0.951 . S
C517 H516 0.951 . S
C517 C523 1.265 1_554 S
H518 C523 0.950 . S
H519 C527 0.949 . S
H520 C528 0.950 . S
H521 C529 0.951 . S
H522 C530 0.951 . S
C523 C517 1.265 1_556 S
C523 H518 0.950 . S
C523 C524 1.478 . S
C524 C523 1.478 . S
C524 C525 1.397 . S
C524 C541 1.394 1_556 S
C525 C524 1.397 . S
C525 C526 1.438 1_655 S
C525 C530 1.429 . S
C526 C525 1.438 1_455 S
C526 C527 1.428 . S
C526 C539 1.394 1_556 S
C527 H519 0.949 . S
C527 C526 1.428 . S
C527 C528 1.345 . S
C528 H520 0.950 . S
C528 C527 1.345 . S
C528 C529 1.424 1_455 S
C529 H521 0.951 . S
C529 C528 1.424 1_655 S
C529 C530 1.347 . S
C530 H522 0.951 . S
C530 C525 1.429 . S
C530 C529 1.347 . S
H531 C532 0.952 1_556 S
C532 H531 0.952 1_554 S
C532 C538 1.264 . S
H533 C538 0.950 . S
H534 C542 0.949 . S
H535 C543 0.950 . S
H536 C544 0.951 . S
H537 C545 0.951 . S
C538 C532 1.264 . S
C538 H533 0.950 . S
C538 C539 1.478 . S
C539 C526 1.394 1_554 S
C539 C538 1.478 . S
C539 C540 1.397 . S
C540 C539 1.397 . S
C540 C541 1.438 1_455 S
C540 C545 1.429 . S
C541 C524 1.394 1_554 S
C541 C540 1.438 1_655 S
C541 C542 1.428 . S
C542 H534 0.949 . S
C542 C541 1.428 . S
C542 C543 1.345 . S
C543 H535 0.950 . S
C543 C542 1.345 . S
C543 C544 1.424 1_655 S
C544 H536 0.951 . S
C544 C543 1.424 1_455 S
C544 C545 1.347 . S
C545 H537 0.951 . S
C545 C540 1.429 . S
C545 C544 1.347 . S
H546 C547 0.951 . S
C547 H546 0.951 . S
C547 C553 1.265 . S
H548 C553 0.950 . S
H549 C557 0.949 . S
H550 C558 0.950 . S
H551 C559 0.951 . S
H552 C560 0.951 . S
C553 C547 1.265 . S
C553 H548 0.950 . S
C553 C554 1.478 . S
C554 C553 1.478 . S
C554 C555 1.397 . S
C554 C571 1.394 . S
C555 C554 1.397 . S
C555 C556 1.438 1_455 S
C555 C560 1.429 . S
C556 C555 1.438 1_655 S
C556 C557 1.428 . S
C556 C569 1.394 . S
C557 H549 0.949 . S
C557 C556 1.428 . S
C557 C558 1.345 . S
C558 H550 0.950 . S
C558 C557 1.345 . S
C558 C559 1.424 1_655 S
C559 H551 0.951 . S
C559 C558 1.424 1_455 S
C559 C560 1.347 . S
C560 H552 0.951 . S
C560 C555 1.429 . S
C560 C559 1.347 . S
H561 C562 0.951 . S
C562 H561 0.951 . S
C562 C568 1.265 . S
H563 C568 0.950 . S
H564 C572 0.949 . S
H565 C573 0.950 . S
H566 C574 0.951 . S
H567 C575 0.951 . S
C568 C562 1.265 . S
C568 H563 0.950 . S
C568 C569 1.478 . S
C569 C556 1.394 . S
C569 C568 1.478 . S
C569 C570 1.397 . S
C570 C569 1.397 . S
C570 C571 1.438 1_655 S
C570 C575 1.429 . S
C571 C554 1.394 . S
C571 C570 1.438 1_455 S
C571 C572 1.428 . S
C572 H564 0.949 . S
C572 C571 1.428 . S
C572 C573 1.345 . S
C573 H565 0.950 . S
C573 C572 1.345 . S
C573 C574 1.424 1_455 S
C574 H566 0.951 . S
C574 C573 1.424 1_655 S
C574 C575 1.347 . S
C575 H567 0.951 . S
C575 C570 1.429 . S
C575 C574 1.347 . S
H576 C577 0.951 . S
C577 H576 0.951 . S
C577 C583 1.272 1_645 S
H578 C583 0.963 . S
H579 C587 0.949 . S
H580 C588 0.950 . S
H581 C589 0.951 . S
H582 C590 0.951 . S
C583 C577 1.272 1_465 S
C583 H578 0.963 . S
C583 C584 1.460 1_565 S
C584 C583 1.460 1_545 S
C584 C585 1.397 1_545 S
C584 C601 1.394 1_455 S
C585 C584 1.397 1_565 S
C585 C586 1.438 . S
C585 C590 1.429 . S
C586 C585 1.438 . S
C586 C587 1.428 . S
C586 C599 1.394 1_465 S
C587 H579 0.949 . S
C587 C586 1.428 . S
C587 C588 1.345 . S
C588 H580 0.950 . S
C588 C587 1.345 . S
C588 C589 1.424 . S
C589 H581 0.951 . S
C589 C588 1.424 . S
C589 C590 1.347 . S
C590 H582 0.951 . S
C590 C585 1.429 . S
C590 C589 1.347 . S
H591 C592 0.951 1_565 S
C592 H591 0.951 1_545 S
C592 C598 1.265 1_455 S
H593 C598 0.950 . S
H594 C602 0.949 . S
H595 C603 0.950 . S
H596 C604 0.951 . S
H597 C605 0.951 . S
C598 C592 1.265 1_655 S
C598 H593 0.950 . S
C598 C599 1.478 . S
C599 C586 1.394 1_645 S
C599 C598 1.478 . S
C599 C600 1.397 . S
C600 C599 1.397 . S
C600 C601 1.438 . S
C600 C605 1.429 . S
C601 C584 1.394 1_655 S
C601 C600 1.438 . S
C601 C602 1.428 . S
C602 H594 0.949 . S
C602 C601 1.428 . S
C602 C603 1.345 . S
C603 H595 0.950 . S
C603 C602 1.345 . S
C603 C604 1.424 . S
C604 H596 0.951 . S
C604 C603 1.424 . S
C604 C605 1.347 . S
C605 H597 0.951 . S
C605 C600 1.429 . S
C605 C604 1.347 . S
H606 C607 0.951 . S
C607 H606 0.951 . S
C607 C613 1.265 1_445 S
H608 C613 0.950 . S
H609 C617 0.949 . S
H610 C618 0.950 . S
H611 C619 0.951 . S
H612 C620 0.951 . S
C613 C607 1.265 1_665 S
C613 H608 0.950 . S
C613 C614 1.466 1_565 S
C614 C613 1.466 1_545 S
C614 C615 1.416 . S
C614 C631 1.388 1_645 S
C615 C614 1.416 . S
C615 C616 1.438 . S
C615 C620 1.429 . S
C616 C615 1.438 . S
C616 C617 1.428 . S
C616 C629 1.394 1_655 S
C617 H609 0.949 . S
C617 C616 1.428 . S
C617 C618 1.345 . S
C618 H610 0.950 . S
C618 C617 1.345 . S
C618 C619 1.424 . S
C619 H611 0.951 . S
C619 C618 1.424 . S
C619 C620 1.347 . S
C620 H612 0.951 . S
C620 C615 1.429 . S
C620 C619 1.347 . S
H621 C622 0.937 1_565 S
C622 H621 0.937 1_545 S
C622 C628 1.262 1_655 S
H623 C628 0.950 . S
H624 C632 0.949 . S
H625 C633 0.950 . S
H626 C634 0.951 . S
H627 C635 0.951 . S
C628 C622 1.262 1_455 S
C628 H623 0.950 . S
C628 C629 1.478 . S
C629 C616 1.394 1_455 S
C629 C628 1.478 . S
C629 C630 1.397 1_545 S
C630 C629 1.397 1_565 S
C630 C631 1.438 . S
C630 C635 1.429 . S
C631 C614 1.388 1_465 S
C631 C630 1.438 . S
C631 C632 1.428 . S
C632 H624 0.949 . S
C632 C631 1.428 . S
C632 C633 1.345 . S
C633 H625 0.950 . S
C633 C632 1.345 . S
C633 C634 1.424 . S
C634 H626 0.951 . S
C634 C633 1.424 . S
C634 C635 1.347 . S
C635 H627 0.951 . S
C635 C630 1.429 . S
C635 C634 1.347 . S
H636 C637 0.951 . S
C637 H636 0.951 . S
C637 C643 1.265 . S
H638 C643 0.950 . S
H639 C647 0.949 . S
H640 C648 0.950 . S
H641 C649 0.951 . S
H642 C650 0.951 . S
C643 C637 1.265 . S
C643 H638 0.950 . S
C643 C644 1.478 . S
C644 C643 1.478 . S
C644 C645 1.397 . S
C644 C661 1.394 . S
C645 C644 1.397 . S
C645 C646 1.438 . S
C645 C650 1.429 . S
C646 C645 1.438 . S
C646 C647 1.428 . S
C646 C659 1.394 . S
C647 H639 0.949 . S
C647 C646 1.428 . S
C647 C648 1.345 . S
C648 H640 0.950 . S
C648 C647 1.345 . S
C648 C649 1.424 . S
C649 H641 0.951 . S
C649 C648 1.424 . S
C649 C650 1.347 . S
C650 H642 0.951 . S
C650 C645 1.429 . S
C650 C649 1.347 . S
H651 C652 0.951 . S
C652 H651 0.951 . S
C652 C658 1.265 . S
H653 C658 0.950 . S
H654 C662 0.949 . S
H655 C663 0.950 . S
H656 C664 0.951 . S
H657 C665 0.951 . S
C658 C652 1.265 . S
C658 H653 0.950 . S
C658 C659 1.478 . S
C659 C646 1.394 . S
C659 C658 1.478 . S
C659 C660 1.397 . S
C660 C659 1.397 . S
C660 C661 1.438 . S
C660 C665 1.429 . S
C661 C644 1.394 . S
C661 C660 1.438 . S
C661 C662 1.428 . S
C662 H654 0.949 . S
C662 C661 1.428 . S
C662 C663 1.345 . S
C663 H655 0.950 . S
C663 C662 1.345 . S
C663 C664 1.424 . S
C664 H656 0.951 . S
C664 C663 1.424 . S
C664 C665 1.347 . S
C665 H657 0.951 . S
C665 C660 1.429 . S
C665 C664 1.347 . S
H666 C667 0.951 . S
C667 H666 0.951 . S
C667 C673 1.265 . S
H668 C673 0.950 . S
H669 C677 0.949 . S
H670 C678 0.950 . S
H671 C679 0.951 . S
H672 C680 0.951 . S
C673 C667 1.265 . S
C673 H668 0.950 . S
C673 C674 1.478 . S
C674 C673 1.478 . S
C674 C675 1.397 . S
C674 C691 1.394 . S
C675 C674 1.397 . S
C675 C676 1.438 . S
C675 C680 1.429 . S
C676 C675 1.438 . S
C676 C677 1.428 . S
C676 C689 1.394 . S
C677 H669 0.949 . S
C677 C676 1.428 . S
C677 C678 1.345 . S
C678 H670 0.950 . S
C678 C677 1.345 . S
C678 C679 1.424 . S
C679 H671 0.951 . S
C679 C678 1.424 . S
C679 C680 1.347 . S
C680 H672 0.951 . S
C680 C675 1.429 . S
C680 C679 1.347 . S
H681 C682 0.951 . S
C682 H681 0.951 . S
C682 C688 1.265 . S
H683 C688 0.950 . S
H684 C692 0.949 . S
H685 C693 0.950 . S
H686 C694 0.951 . S
H687 C695 0.951 . S
C688 C682 1.265 . S
C688 H683 0.950 . S
C688 C689 1.478 . S
C689 C676 1.394 . S
C689 C688 1.478 . S
C689 C690 1.397 . S
C690 C689 1.397 . S
C690 C691 1.438 . S
C690 C695 1.429 . S
C691 C674 1.394 . S
C691 C690 1.438 . S
C691 C692 1.428 . S
C692 H684 0.949 . S
C692 C691 1.428 . S
C692 C693 1.345 . S
C693 H685 0.950 . S
C693 C692 1.345 . S
C693 C694 1.424 . S
C694 H686 0.951 . S
C694 C693 1.424 . S
C694 C695 1.347 . S
C695 H687 0.951 . S
C695 C690 1.429 . S
C695 C694 1.347 . S
C337 C237 1.371 1_556 S
C352 C58 1.383 1_554 S
C367 C226 1.378 1_554 S
C382 C69 1.375 1_556 S
C397 C142 1.356 . S
C412 C321 1.356 . S
C427 C153 1.442 . S
C442 C310 1.442 . S
C457 C67 1.936 1_545 S
C472 C56 1.939 . S
C487 C151 1.949 . S
C502 C140 1.951 . S
C517 C235 1.940 . S
C532 C224 1.939 1_554 S
C547 C308 1.946 . S
C562 C319 1.946 . S
C577 C147 1.446 1_545 S
C592 C63 1.493 1_455 S
C607 C74 1.453 1_545 S
C622 C158 1.516 1_655 S
C637 C315 1.451 . S
C652 C231 1.490 . S
C667 C326 1.447 . S
C682 C242 1.485 . S
