# Generated by pormake.
# Topology whz, (6)-cn, num edge types: 1
# Building blocks:
#     Node 0, Type 0, BuildingBlock: CUWYAW_clean_sbu_0, # of connection points: 6
#     Node 1, Type 0, BuildingBlock: CUWYAW_clean_sbu_0, # of connection points: 6
#     Node 2, Type 0, BuildingBlock: CUWYAW_clean_sbu_0, # of connection points: 6
#     Node 3, Type 0, BuildingBlock: CUWYAW_clean_sbu_0, # of connection points: 6
#     Node 4, Type 0, BuildingBlock: CUWYAW_clean_sbu_0, # of connection points: 6
#     Node 5, Type 0, BuildingBlock: CUWYAW_clean_sbu_0, # of connection points: 6
#     Node 6, Type 0, BuildingBlock: CUWYAW_clean_sbu_0, # of connection points: 6
#     Node 7, Type 0, BuildingBlock: CUWYAW_clean_sbu_0, # of connection points: 6
#     Node 8, Type 0, BuildingBlock: CUWYAW_clean_sbu_0, # of connection points: 6
#     Node 9, Type 0, BuildingBlock: CUWYAW_clean_sbu_0, # of connection points: 6
#     Node 10, Type 0, BuildingBlock: CUWYAW_clean_sbu_0, # of connection points: 6
#     Node 11, Type 0, BuildingBlock: CUWYAW_clean_sbu_0, # of connection points: 6
#     Node 12, Type 0, BuildingBlock: CUWYAW_clean_sbu_0, # of connection points: 6
#     Node 13, Type 0, BuildingBlock: CUWYAW_clean_sbu_0, # of connection points: 6
#     Node 14, Type 0, BuildingBlock: CUWYAW_clean_sbu_0, # of connection points: 6
#     Node 15, Type 0, BuildingBlock: CUWYAW_clean_sbu_0, # of connection points: 6
#     Edge 16, Type (0, 0), None
#     Edge 17, Type (0, 0), None
#     Edge 18, Type (0, 0), None
#     Edge 19, Type (0, 0), None
#     Edge 20, Type (0, 0), None
#     Edge 21, Type (0, 0), None
#     Edge 22, Type (0, 0), None
#     Edge 23, Type (0, 0), None
#     Edge 24, Type (0, 0), None
#     Edge 25, Type (0, 0), None
#     Edge 26, Type (0, 0), None
#     Edge 27, Type (0, 0), None
#     Edge 28, Type (0, 0), None
#     Edge 29, Type (0, 0), None
#     Edge 30, Type (0, 0), None
#     Edge 31, Type (0, 0), None
#     Edge 32, Type (0, 0), None
#     Edge 33, Type (0, 0), None
#     Edge 34, Type (0, 0), None
#     Edge 35, Type (0, 0), None
#     Edge 36, Type (0, 0), None
#     Edge 37, Type (0, 0), None
#     Edge 38, Type (0, 0), None
#     Edge 39, Type (0, 0), None
#     Edge 40, Type (0, 0), None
#     Edge 41, Type (0, 0), None
#     Edge 42, Type (0, 0), None
#     Edge 43, Type (0, 0), None
#     Edge 44, Type (0, 0), None
#     Edge 45, Type (0, 0), None
#     Edge 46, Type (0, 0), None
#     Edge 47, Type (0, 0), None
#     Edge 48, Type (0, 0), None
#     Edge 49, Type (0, 0), None
#     Edge 50, Type (0, 0), None
#     Edge 51, Type (0, 0), None
#     Edge 52, Type (0, 0), None
#     Edge 53, Type (0, 0), None
#     Edge 54, Type (0, 0), None
#     Edge 55, Type (0, 0), None
#     Edge 56, Type (0, 0), None
#     Edge 57, Type (0, 0), None
#     Edge 58, Type (0, 0), None
#     Edge 59, Type (0, 0), None
#     Edge 60, Type (0, 0), None
#     Edge 61, Type (0, 0), None
#     Edge 62, Type (0, 0), None
#     Edge 63, Type (0, 0), None
# Relax obj value: 1.251
# Max RMSD: 0.365
# Mean RMSD: 0.365
data_MOF--net-whz--node1-CUWYAW_clean_sbu_0--edge1-none
_symmetry_space_group_name_H-M    P1
_symmetry_Int_Tables_number       1
_symmetry_cell_setting            triclinic
loop_
_symmetry_equiv_pos_as_xyz
'x, y, z'
_cell_length_a     15.934177
_cell_length_b     16.003383
_cell_length_c     41.03391
_cell_angle_alpha  89.994516
_cell_angle_beta   89.985286
_cell_angle_gamma 89.823541
loop_
_atom_site_label
_atom_site_type_symbol
_atom_site_fract_x
_atom_site_fract_y
_atom_site_fract_z
_atom_type_partial_charge
C0 C 0.39805 0.0912 0.12966 0.0
Eu1 Eu 0.36642 0.16385 0.18643 0.0
C2 C 0.38038 0.09192 0.09368 0.0
C3 C 0.3712 1.01556 1.0771 0.0
C4 C 0.35708 1.01322 1.04326 0.0
C5 C 0.34945 0.08724 1.02497 0.0
C6 C 0.36244 0.16367 1.04118 0.0
C7 C 0.37778 0.1661 1.0751 0.0
C8 C 0.39143 1.03003 0.24135 0.0
C9 C 0.19922 0.10183 0.221 0.0
C10 C 0.29748 0.28549 0.29663 0.0
Eu11 Eu 0.34048 0.22024 0.24265 0.0
C12 C 0.20837 0.31171 0.29871 0.0
C13 C 0.18673 0.39333 0.30717 0.0
C14 C 0.10261 0.41945 0.30591 0.0
C15 C 1.03883 0.35851 0.30286 0.0
C16 C 1.0615 0.28713 0.28486 0.0
C17 C 0.14469 0.2601 0.28611 0.0
C18 C 0.24863 0.31922 0.20079 0.0
C19 C 0.51524 0.27366 0.20972 0.0
O20 O 0.33936 0.06684 0.1497 0.0
O21 O 0.44173 0.15224 0.14193 0.0
O22 O 0.41689 0.10324 0.23182 0.0
O23 O 0.41547 0.10248 0.23137 0.0
O24 O 0.22733 0.13024 0.19272 0.0
O25 O 0.24566 0.11554 0.24644 0.0
O26 O 0.34206 0.3278 0.27566 0.0
O27 O 0.31081 0.20499 0.29439 0.0
O28 O 0.21877 0.27167 0.22287 0.0
O29 O 0.32384 0.29636 0.19602 0.0
O30 O 0.47657 0.26228 0.23784 0.0
O31 O 0.47839 0.2496 0.18275 0.0
H32 H 0.3748 0.95718 1.09042 0.0
H33 H 0.34906 0.95307 1.03159 0.0
H34 H 0.36007 0.22164 1.0276 0.0
H35 H 0.38694 0.22607 1.08677 0.0
H36 H 0.23426 0.4342 0.31664 0.0
H37 H 0.08738 0.48099 0.3149 0.0
H38 H 1.01469 0.24132 0.27835 0.0
H39 H 0.15743 0.19714 0.27875 0.0
C40 C 0.75916 0.60629 0.38439 0.0
Eu41 Eu 0.68076 0.57773 0.44024 0.0
C42 C 0.75812 0.5954 0.34809 0.0
C43 C 0.83473 0.58925 0.33127 0.0
C44 C 0.8369 0.57747 0.29734 0.0
C45 C 0.76244 0.56922 0.27925 0.0
C46 C 0.68554 0.57971 0.29571 0.0
C47 C 0.68342 0.59387 0.32967 0.0
C48 C 0.81461 0.58284 0.49568 0.0
C49 C 0.72211 0.40791 0.47894 0.0
C50 C 0.55281 0.62613 0.54739 0.0
Eu51 Eu 0.62108 0.56851 0.49576 0.0
C52 C 0.56216 0.71493 0.55627 0.0
C53 C 0.49522 0.76219 0.56887 0.0
C54 C 0.51351 0.83988 0.58324 0.0
C55 C 0.59836 0.85389 0.5919 0.0
C56 C 0.65345 0.83368 0.5663 0.0
C57 C 0.63931 0.75648 0.55115 0.0
C58 C 0.52099 0.46584 0.45911 0.0
C59 C 0.58467 0.73733 0.45847 0.0
O60 O 0.77357 0.54158 0.40297 0.0
O61 O 0.70408 0.65632 0.39742 0.0
O62 O 0.74897 0.62294 0.48487 0.0
O63 O 0.74948 0.62063 0.48432 0.0
O64 O 0.70561 0.43857 0.44945 0.0
O65 O 0.70117 0.45272 0.50465 0.0
O66 O 0.62153 0.58057 0.54868 0.0
O67 O 0.5092 0.61347 0.52097 0.0
O68 O 0.55703 0.44801 0.48635 0.0
O69 O 0.54627 0.53765 0.44933 0.0
O70 O 0.60869 0.70645 0.48596 0.0
O71 O 0.59288 0.68933 0.43289 0.0
H72 H 0.8934 0.59325 0.34449 0.0
H73 H 0.89731 0.57136 0.28543 0.0
H74 H 0.62711 0.57683 0.2823 0.0
H75 H 0.62338 0.60288 0.3415 0.0
H76 H 0.43214 0.73732 0.56974 0.0
H77 H 0.46407 0.87211 0.59623 0.0
H78 H 0.71648 0.85885 0.56601 0.0
H79 H 0.6899 0.72688 0.53804 0.0
C80 C 0.22258 0.97755 0.62816 0.0
Eu81 Eu 0.24771 0.90748 0.68569 0.0
C82 C 0.23635 0.96547 0.59247 0.0
C83 C 0.19957 1.02166 0.57029 0.0
C84 C 0.21745 1.01697 0.53676 0.0
C85 C 0.27359 0.95678 0.52453 0.0
C86 C 0.30789 0.8982 0.54662 0.0
C87 C 0.28881 0.9021 0.58016 0.0
C88 C 0.23261 1.04753 0.74053 0.0
C89 C 0.421 0.96388 0.71271 0.0
C90 C 0.31069 0.80544 0.7983 0.0
Eu91 Eu 0.27266 0.86032 0.74232 0.0
C92 C 0.39914 0.77749 0.80079 0.0
C93 C 0.41902 0.69369 0.80707 0.0
C94 C 0.50316 0.66741 0.80647 0.0
C95 C 0.56747 0.72826 0.80492 0.0
C96 C 0.54658 0.80076 0.78734 0.0
C97 C 0.46402 0.82967 0.78928 0.0
C98 C 0.35626 0.74702 0.70559 0.0
C99 C 0.09874 0.80282 0.70821 0.0
O100 O 0.2887 0.9902 0.64626 0.0
O101 O 0.16808 0.92974 0.64275 0.0
O102 O 0.20087 0.97741 0.73003 0.0
O103 O 0.20295 0.97847 0.72959 0.0
O104 O 0.38801 0.92949 0.68664 0.0
O105 O 0.3781 0.95796 0.73972 0.0
O106 O 0.26471 0.76046 0.77873 0.0
O107 O 0.29922 0.88561 0.79378 0.0
O108 O 0.39053 0.79692 0.72587 0.0
O109 O 0.28337 0.77397 0.69867 0.0
O110 O 0.13536 0.8202 0.73637 0.0
O111 O 0.13812 0.82051 0.68112 0.0
H112 H 0.15856 0.07093 0.57903 0.0
H113 H 0.19033 0.06321 0.52056 0.0
H114 H 0.35093 0.85059 0.53806 0.0
H115 H 0.31652 0.85695 0.59663 0.0
H116 H 0.37011 0.64995 0.81334 0.0
H117 H 0.51749 0.60457 0.81429 0.0
H118 H 0.59481 0.84553 0.78108 0.0
H119 H 0.45238 0.89384 0.7829 0.0
C120 C 0.86121 0.45776 0.88317 0.0
Eu121 Eu 0.9382 0.48869 0.93874 0.0
C122 C 0.8631 0.47578 0.84754 0.0
C123 C 0.78685 0.48296 0.83065 0.0
C124 C 0.78565 0.49885 0.79706 0.0
C125 C 0.86057 0.51073 0.77964 0.0
C126 C 0.93726 0.50081 0.79619 0.0
C127 C 0.93854 0.48274 0.8298 0.0
C128 C 0.80749 0.46225 0.99509 0.0
C129 C 0.87689 0.65569 0.97225 0.0
C130 C 1.06072 0.55725 1.04789 0.0
Eu131 Eu 0.99669 0.51407 0.99381 0.0
C132 C 0.08309 0.64683 1.0503 0.0
C133 C 0.16436 0.67133 1.0585 0.0
C134 C 0.18568 0.7564 1.05812 0.0
C135 C 0.11964 0.81568 1.05797 0.0
C136 C 1.05129 0.79313 1.03833 0.0
C137 C 1.0279 0.7091 1.03853 0.0
C138 C 0.09299 0.60747 0.95171 0.0
C139 C 1.05237 0.34138 0.95958 0.0
O140 O 0.83974 0.51804 0.90295 0.0
O141 O 0.92128 0.4118 0.8952 0.0
O142 O 0.88011 0.43691 0.98435 0.0
O143 O 0.87919 0.43848 0.98392 0.0
O144 O 0.90505 0.62756 0.944 0.0
O145 O 0.89048 0.60858 0.9975 0.0
O146 O 0.10496 0.5149 1.02674 0.0
O147 O 0.9805 0.54111 1.04572 0.0
O148 O 1.04619 0.63608 0.97439 0.0
O149 O 0.0712 0.53238 0.94686 0.0
O150 O 1.04194 0.37905 0.98798 0.0
O151 O 1.02632 0.37897 0.93306 0.0
H152 H 0.72782 0.47628 0.84349 0.0
H153 H 0.72557 0.50452 0.78489 0.0
H154 H 0.99602 0.50699 0.78316 0.0
H155 H 0.99842 0.47472 0.84188 0.0
H156 H 0.20836 0.62541 1.06712 0.0
H157 H 0.24679 0.7742 1.06699 0.0
H158 H 1.00342 0.83889 1.03252 0.0
H159 H 0.96491 0.69479 1.03162 0.0
C160 C 0.81089 0.80474 0.88426 0.0
Eu161 Eu 0.77298 0.85932 0.94029 0.0
C162 C 0.89946 0.77715 0.88171 0.0
C163 C 0.91974 0.69337 0.87555 0.0
C164 C 1.00405 0.66754 0.87607 0.0
C165 C 0.06801 0.72878 0.87748 0.0
C166 C 1.04682 0.80115 0.89507 0.0
C167 C 0.96416 0.82973 0.89309 0.0
C168 C 0.85687 0.74577 0.97672 0.0
C169 C 0.5991 0.80151 0.97434 0.0
C170 C 0.72343 0.97671 1.05421 0.0
Eu171 Eu 0.7481 0.90622 0.99675 0.0
C172 C 0.73795 0.96562 1.08988 0.0
C173 C 0.70311 1.02352 0.11184 0.0
C174 C 0.72142 1.01948 0.14533 0.0
C175 C 0.77617 0.95826 0.15772 0.0
C176 C 0.8087 0.89818 0.13587 0.0
C177 C 0.78906 0.90139 0.10236 0.0
C178 C 0.73283 1.04625 0.9419 0.0
C179 C 0.92136 0.96262 0.96967 0.0
O180 O 0.76512 0.75956 0.90384 0.0
O181 O 0.79914 0.88486 0.88881 0.0
O182 O 0.89098 0.79573 0.95642 0.0
O183 O 0.78414 0.77263 0.98396 0.0
O184 O 0.63578 0.81879 0.94619 0.0
O185 O 0.63836 0.81947 1.00142 0.0
O186 O 0.78905 0.98982 1.03588 0.0
O187 O 0.66926 0.92794 1.03994 0.0
O188 O 0.70084 0.97632 0.95252 0.0
O189 O 0.70312 0.97738 0.953 0.0
O190 O 0.88845 0.92803 0.99573 0.0
O191 O 0.87827 0.957 0.94272 0.0
H192 H 0.87102 0.64928 0.86943 0.0
H193 H 1.01869 0.60474 0.86828 0.0
H194 H 0.09485 0.84616 0.90129 0.0
H195 H 0.95229 0.89394 0.89933 0.0
H196 H 0.6632 0.07351 0.10296 0.0
H197 H 0.69571 0.06689 0.16136 0.0
H198 H 0.85055 0.84976 0.1446 0.0
H199 H 0.81529 0.85497 1.08605 0.0
C200 C 0.56189 0.55903 0.63528 0.0
Eu201 Eu 0.49631 0.51562 0.68913 0.0
C202 C 0.58541 0.64834 0.63296 0.0
C203 C 0.66633 0.67203 0.62393 0.0
C204 C 0.6884 0.75694 0.62405 0.0
C205 C 0.62278 0.81663 0.62463 0.0
C206 C 0.5556 0.79504 0.64501 0.0
C207 C 0.53163 0.71118 0.64527 0.0
C208 C 0.59283 0.60856 0.73129 0.0
C209 C 0.55201 0.34272 0.72304 0.0
C210 C 0.36021 0.4586 0.79918 0.0
Eu211 Eu 0.43772 0.48982 0.74374 0.0
C212 C 0.36232 0.47581 0.83485 0.0
C213 C 0.28615 0.48294 0.8518 0.0
C214 C 0.28511 0.49832 0.88542 0.0
C215 C 0.36013 0.50978 0.9028 0.0
C216 C 0.43674 0.4998 0.88619 0.0
C217 C 0.43785 0.4822 0.85255 0.0
C218 C 0.30714 0.46418 0.68738 0.0
C219 C 0.37606 0.65691 0.71015 0.0
O220 O 0.60523 0.51604 0.65649 0.0
O221 O 0.48146 0.54386 0.63726 0.0
O222 O 0.54563 0.63745 0.70882 0.0
O223 O 0.57097 0.5335 0.73612 0.0
O224 O 0.54133 0.38043 0.69467 0.0
O225 O 0.52603 0.38032 0.74956 0.0
O226 O 0.33966 0.51964 0.77963 0.0
O227 O 0.41964 0.4121 0.78699 0.0
O228 O 0.3795 0.43816 0.69815 0.0
O229 O 0.37856 0.43988 0.69862 0.0
O230 O 0.40389 0.62871 0.73845 0.0
O231 O 0.39016 0.60993 0.68493 0.0
H232 H 0.70926 0.62565 0.61488 0.0
H233 H 0.74904 0.77427 0.6146 0.0
H234 H 0.50843 0.84123 0.65114 0.0
H235 H 0.46917 0.69747 0.65297 0.0
H236 H 0.22705 0.47667 0.83898 0.0
H237 H 0.22508 0.50398 0.89764 0.0
H238 H 0.49556 0.50556 0.8992 0.0
H239 H 0.49765 0.47417 0.8404 0.0
C240 C 0.79573 0.28506 0.3864 0.0
Eu241 Eu 0.83831 0.21918 0.44032 0.0
C242 C 0.70686 0.31203 0.3843 0.0
C243 C 0.68592 0.3937 0.37565 0.0
C244 C 0.60195 0.42039 0.37673 0.0
C245 C 0.5378 0.3598 0.37961 0.0
C246 C 0.55962 0.28865 0.39791 0.0
C247 C 0.64266 0.26107 0.39694 0.0
C248 C 0.74669 0.31851 0.48202 0.0
C249 C 1.01305 0.27293 0.47308 0.0
C250 C 0.89556 0.08968 0.55281 0.0
Eu251 Eu 0.86442 0.1629 0.49613 0.0
C252 C 0.87855 0.09114 0.5888 0.0
C253 C 0.87108 1.01507 0.60571 0.0
C254 C 0.85749 1.01339 0.63959 0.0
C255 C 0.8488 0.08776 0.65758 0.0
C256 C 0.86022 0.16397 0.64104 0.0
C257 C 0.87477 0.16578 0.60705 0.0
C258 C 0.88865 1.02934 0.44097 0.0
C259 C 0.69687 0.10095 0.4618 0.0
O260 O 0.8406 0.32691 0.40739 0.0
O261 O 0.80839 0.20445 0.38859 0.0
O262 O 0.71665 0.2708 0.46005 0.0
O263 O 0.82179 0.29561 0.48696 0.0
O264 O 0.97449 0.26122 0.44498 0.0
O265 O 0.97607 0.24899 0.50004 0.0
O266 O 0.8358 0.06679 0.53301 0.0
O267 O 0.94054 0.14953 0.54035 0.0
O268 O 0.9149 0.10206 0.45077 0.0
O269 O 0.91328 0.10125 0.45127 0.0
O270 O 0.72528 0.12919 0.49003 0.0
O271 O 0.74307 0.11489 0.43631 0.0
H272 H 0.73385 0.43412 0.36618 0.0
H273 H 0.58723 0.48193 0.36762 0.0
H274 H 0.51241 0.24319 0.40435 0.0
H275 H 0.65489 0.19818 0.40453 0.0
H276 H 0.87555 0.9564 0.59263 0.0
H277 H 0.85066 0.95343 0.65154 0.0
H278 H 0.85726 0.2222 0.65442 0.0
H279 H 0.88247 0.22557 0.59507 0.0
C280 C 1.05424 0.62729 0.13594 0.0
Eu281 Eu 0.1234 0.56948 0.18737 0.0
C282 C 0.06308 0.71604 0.12691 0.0
C283 C 0.99547 0.76314 0.11476 0.0
C284 C 1.01298 0.84069 0.10012 0.0
C285 C 0.09732 0.85435 1.09069 0.0
C286 C 0.15384 0.8346 0.11586 0.0
C287 C 0.14041 0.75773 0.13139 0.0
C288 C 1.02273 0.46692 0.22382 0.0
C289 C 0.08727 0.73855 0.2243 0.0
C290 C 0.26084 0.60644 0.29849 0.0
Eu291 Eu 0.1827 0.57864 0.24256 0.0
C292 C 0.25896 0.59533 0.33476 0.0
C293 C 0.3352 0.58924 0.35181 0.0
C294 C 0.33661 0.57711 0.38572 0.0
C295 C 0.26176 0.56834 0.40354 0.0
C296 C 0.18519 0.57868 0.38685 0.0
C297 C 0.18381 0.59322 0.35291 0.0
C298 C 0.31655 0.58295 0.18699 0.0
C299 C 0.22402 0.40865 0.20389 0.0
O300 O 0.12303 0.58184 0.13447 0.0
O301 O 1.01117 0.61469 0.16251 0.0
O302 O 1.05906 0.44912 0.19663 0.0
O303 O 1.04814 0.53849 0.23379 0.0
O304 O 0.11198 0.70768 0.1969 0.0
O305 O 0.09485 0.69037 0.24986 0.0
O306 O 0.27472 0.54159 0.27994 0.0
O307 O 0.20657 0.65715 0.28535 0.0
O308 O 0.25154 0.62374 0.19802 0.0
O309 O 0.25203 0.62121 0.19862 0.0
O310 O 0.2076 0.43939 0.23337 0.0
O311 O 0.203 0.45349 0.1782 0.0
H312 H 0.9324 0.73816 0.1144 0.0
H313 H 0.96292 0.87288 1.0875 0.0
H314 H 0.21684 0.85984 0.11557 0.0
H315 H 0.19149 0.72843 0.14428 0.0
H316 H 0.39416 0.59356 0.33879 0.0
H317 H 0.39675 0.57116 0.39782 0.0
H318 H 0.12649 0.57555 0.40008 0.0
H319 H 0.12404 0.60209 0.34088 0.0
C320 C 0.88006 0.59523 0.63496 0.0
Eu321 Eu 0.85265 0.67345 0.69069 0.0
C322 C 0.86981 0.59615 0.59882 0.0
C323 C 0.8662 0.5196 0.58224 0.0
C324 C 0.85291 0.51679 0.54848 0.0
C325 C 0.84022 0.59043 0.5305 0.0
C326 C 0.84784 0.66761 0.5467 0.0
C327 C 0.86411 0.67042 0.58048 0.0
C328 C 0.85501 0.53748 0.74494 0.0
C329 C 0.68214 0.63386 0.72859 0.0
C330 C 0.90542 0.79563 0.79725 0.0
Eu331 Eu 0.84507 0.73045 0.74572 0.0
C332 C 0.99383 0.78248 0.80653 0.0
C333 C 1.04347 0.84727 0.8191 0.0
C334 C 0.11771 0.82514 0.83568 0.0
C335 C 0.12131 0.74174 0.84712 0.0
C336 C 0.10389 0.68488 0.82189 0.0
C337 C 1.03173 0.70278 0.80344 0.0
C338 C 0.74163 0.83351 0.71056 0.0
C339 C 1.0135 0.76604 0.70831 0.0
O340 O 0.81395 0.58362 0.65318 0.0
O341 O 0.9318 0.64825 0.64807 0.0
O342 O 0.89729 0.60194 0.73468 0.0
O343 O 0.89474 0.60162 0.73412 0.0
O344 O 0.71292 0.65123 0.69926 0.0
O345 O 0.7274 0.65293 0.75442 0.0
O346 O 0.85692 0.72938 0.79857 0.0
O347 O 0.89483 0.83967 0.77082 0.0
O348 O 0.72467 0.79713 0.73776 0.0
O349 O 0.81301 0.80767 0.70005 0.0
O350 O 0.98401 0.73895 0.73563 0.0
O351 O 0.96357 0.76127 0.68316 0.0
H352 H 0.87318 0.46152 0.59553 0.0
H353 H 0.84923 0.45639 0.53665 0.0
H354 H 0.84108 0.72552 0.53328 0.0
H355 H 0.87123 0.73041 0.59226 0.0
H356 H 1.02179 0.91137 0.81869 0.0
H357 H 0.1523 0.87341 0.84825 0.0
H358 H 0.12511 0.62067 0.82359 0.0
H359 H 1.00185 0.65374 0.7898 0.0
C360 C 0.23435 0.09715 0.8807 0.0
Eu361 Eu 0.16947 0.09075 0.93992 0.0
C362 C 0.22261 0.09525 0.84455 0.0
C363 C 0.28175 0.13516 0.82442 0.0
C364 C 0.28061 0.1242 0.79038 0.0
C365 C 0.22112 0.07191 0.77556 0.0
C366 C 0.15892 1.03567 0.79556 0.0
C367 C 0.15926 1.04787 0.82961 0.0
C368 C 0.32026 0.08214 0.99022 0.0
C369 C 0.20895 0.91929 0.97425 0.0
C370 C 0.08384 0.15869 1.0504 0.0
Eu371 Eu 0.1303 0.08956 0.99748 0.0
C372 C 0.09615 0.2475 1.05858 0.0
C373 C 1.03021 0.29569 1.07154 0.0
C374 C 1.05178 0.36355 0.09173 0.0
C375 C 0.13242 0.35704 0.10596 0.0
C376 C 0.19353 0.34711 1.08142 0.0
C377 C 0.17684 0.28384 1.05848 0.0
C378 C 1.00848 0.99538 0.97107 0.0
C379 C 0.0892 0.25593 0.95882 0.0
O380 O 0.22261 1.02822 0.89714 0.0
O381 O 0.21072 0.16309 0.89707 0.0
O382 O 0.25816 0.12947 0.98038 0.0
O383 O 0.25824 0.12636 0.97987 0.0
O384 O 0.18138 0.95225 0.94686 0.0
O385 O 0.20225 0.96396 1.00129 0.0
O386 O 1.03103 0.14517 1.02679 0.0
O387 O 0.1512 0.11101 1.04915 0.0
O388 O 1.05098 0.97729 0.99685 0.0
O389 O 1.0366 0.06133 0.95673 0.0
O390 O 0.12481 0.22756 0.98502 0.0
O391 O 0.08403 0.20412 0.93427 0.0
H392 H 0.33133 0.17223 0.83518 0.0
H393 H 0.32957 0.15269 0.77584 0.0
H394 H 0.11159 0.99577 0.78493 0.0
H395 H 0.11188 1.01797 0.84443 0.0
H396 H 0.96597 0.2747 1.07002 0.0
H397 H 1.00216 0.39635 0.10446 0.0
H398 H 0.25799 0.36455 1.08592 0.0
H399 H 0.22714 0.25707 1.04451 0.0
C400 C 0.75541 0.46509 0.13445 0.0
Eu401 Eu 0.76321 0.39602 0.1926 0.0
C402 C 0.75985 0.45206 0.09858 0.0
C403 C 0.71151 0.5033 1.07797 0.0
C404 C 0.72344 0.5019 1.04406 0.0
C405 C 0.78471 0.44998 1.03001 0.0
C406 C 0.82967 0.39518 1.05048 0.0
C407 C 0.81715 0.3959 1.08441 0.0
C408 C 0.76795 0.54225 0.24434 0.0
C409 C 0.93541 0.43444 0.22629 0.0
C410 C 0.69889 0.30024 0.30201 0.0
Eu411 Eu 0.76622 0.35249 0.24953 0.0
C412 C 0.60869 0.30923 0.30918 0.0
C413 C 0.56186 0.24265 0.32212 0.0
C414 C 0.48708 0.26233 0.33878 0.0
C415 C 0.48147 0.34559 0.35014 0.0
C416 C 0.49514 0.40232 0.32444 0.0
C417 C 0.56702 0.38682 0.3054 0.0
C418 C 0.86191 0.23483 0.22114 0.0
C419 C 0.60059 0.31048 0.20976 0.0
O420 O 0.82451 0.4564 0.15128 0.0
O421 O 0.68975 0.43786 0.1502 0.0
O422 O 0.72206 0.47999 0.23409 0.0
O423 O 0.72512 0.4802 0.23359 0.0
O424 O 0.90215 0.40787 0.19887 0.0
O425 O 0.89109 0.42605 0.25341 0.0
O426 O 0.74369 0.36916 0.30144 0.0
O427 O 0.71582 0.24957 0.27808 0.0
O428 O 0.88064 0.27588 0.24712 0.0
O429 O 0.79463 0.26293 0.20764 0.0
O430 O 0.62811 0.3437 0.23654 0.0
O431 O 0.65243 0.30921 0.18513 0.0
H432 H 0.66686 0.5472 1.08824 0.0
H433 H 0.68805 0.54502 1.02899 0.0
H434 H 0.87628 0.35379 1.04017 0.0
H435 H 0.8542 0.35477 0.09967 0.0
H436 H 0.58635 0.17949 0.32233 0.0
H437 H 0.45456 0.2131 0.35163 0.0
H438 H 0.47123 0.46551 0.32593 0.0
H439 H 0.59432 0.43661 0.29131 0.0
C440 C 0.37686 0.95158 0.37921 0.0
Eu441 Eu 0.44619 0.97346 0.43688 0.0
C442 C 0.39123 0.96605 0.34381 0.0
C443 C 0.34717 0.918 0.32086 0.0
C444 C 0.35184 0.93647 0.28744 0.0
C445 C 0.39982 1.00406 0.27617 0.0
C446 C 0.44693 1.04996 0.29904 0.0
C447 C 0.4432 1.03067 0.33249 0.0
C448 C 0.3017 0.96328 0.48975 0.0
C449 C 0.39202 0.14691 0.46327 0.0
C450 C 0.54373 1.03304 0.54979 0.0
Eu451 Eu 0.49134 0.99653 0.49338 0.0
C452 C 0.57192 0.12093 0.5522 0.0
C453 C 0.65702 0.1393 0.55655 0.0
C454 C 0.68561 0.22181 0.55366 0.0
C455 C 0.62704 0.28822 0.55021 0.0
C456 C 0.54905 0.26649 0.53652 0.0
C457 C 0.51878 0.18568 0.54121 0.0
C458 C 0.60676 0.08002 0.4577 0.0
C459 C 0.5485 0.82287 0.45864 0.0
O460 O 0.36504 1.01737 0.39749 0.0
O461 O 0.42258 0.89514 0.39383 0.0
O462 O 0.37225 0.92884 0.48059 0.0
O463 O 0.37138 0.93106 0.48012 0.0
O464 O 0.42698 0.11332 0.43742 0.0
O465 O 0.39608 0.10426 0.49033 0.0
O466 O 0.58954 0.98692 0.53045 0.0
O467 O 0.46341 1.02207 0.54479 0.0
O468 O 0.5566 0.11362 0.47814 0.0
O469 O 0.58018 1.00763 0.45036 0.0
O470 O 0.53037 0.85897 0.48688 0.0
O471 O 0.53226 0.86326 0.43172 0.0
H472 H 0.3068 0.86767 0.32889 0.0
H473 H 0.31456 0.90022 0.27051 0.0
H474 H 0.48478 0.10207 0.29111 0.0
H475 H 0.47904 0.06753 0.34963 0.0
H476 H 0.70058 0.09006 0.5629 0.0
H477 H 0.75032 0.23435 0.55989 0.0
H478 H 0.50422 0.31468 0.52999 0.0
H479 H 0.45313 0.17483 0.53662 0.0
C480 C 0.19695 0.29985 0.38093 0.0
Eu481 Eu 0.26432 0.35193 0.43344 0.0
C482 C 0.10684 0.30871 0.3736 0.0
C483 C 1.06034 0.24203 0.36056 0.0
C484 C 0.9861 0.26163 0.34352 0.0
C485 C 0.98111 0.34476 0.33198 0.0
C486 C 0.99388 0.40171 0.35768 0.0
C487 C 0.06511 0.38635 0.37709 0.0
C488 C 0.35967 0.23362 0.46144 0.0
C489 C 0.0984 0.30985 0.47305 0.0
C490 C 0.25378 0.46443 0.54823 0.0
Eu491 Eu 0.26116 0.3951 0.49015 0.0
C492 C 0.25824 0.45218 0.58411 0.0
C493 C 0.21187 0.50564 0.60453 0.0
C494 C 0.22413 0.50491 0.63841 0.0
C495 C 0.28381 0.45146 0.65259 0.0
C496 C 0.32662 0.39448 0.63236 0.0
C497 C 0.31376 0.39453 0.59845 0.0
C498 C 0.26677 0.54147 0.43845 0.0
C499 C 0.43366 0.43334 0.45659 0.0
O500 O 0.24173 0.36877 0.38155 0.0
O501 O 0.21364 0.2492 0.40489 0.0
O502 O 0.37836 0.27489 0.43551 0.0
O503 O 0.29288 0.2619 0.47528 0.0
O504 O 0.12605 0.34314 0.4463 0.0
O505 O 0.1502 0.30853 0.49767 0.0
O506 O 0.32284 0.45523 0.53141 0.0
O507 O 0.18797 0.4372 0.53259 0.0
O508 O 0.22035 0.47961 0.44877 0.0
O509 O 0.22361 0.47976 0.4493 0.0
O510 O 0.40021 0.4067 0.48397 0.0
O511 O 0.3894 0.4251 0.42947 0.0
H512 H 0.08485 0.17888 0.36051 0.0
H513 H 0.95391 0.21232 0.33062 0.0
H514 H 0.97004 0.46487 0.35597 0.0
H515 H 0.09202 0.43626 0.39121 0.0
H516 H 0.16861 0.5507 0.59413 0.0
H517 H 0.19038 0.54966 0.65333 0.0
H518 H 0.37167 0.35175 0.64286 0.0
H519 H 0.34921 0.35167 0.58332 0.0
C520 C 1.04818 1.03465 0.13324 0.0
Eu521 Eu 0.99393 0.99799 0.18945 0.0
C522 C 0.07767 0.12214 0.13082 0.0
C523 C 0.16267 0.13948 0.12558 0.0
C524 C 0.19227 0.22178 0.128 0.0
C525 C 0.13453 0.28872 0.13184 0.0
C526 C 1.05757 0.26804 0.14659 0.0
C527 C 1.02607 0.18756 0.14232 0.0
C528 C 0.10913 0.08107 0.22525 0.0
C529 C 1.05094 0.82406 0.22407 0.0
C530 C 0.87756 0.95225 0.30301 0.0
Eu531 Eu 0.94811 0.97432 0.24558 0.0
C532 C 0.8911 0.9662 0.33848 0.0
C533 C 0.84569 0.91854 0.36115 0.0
C534 C 0.84947 0.93671 0.39461 0.0
C535 C 0.89789 1.00363 0.40618 0.0
C536 C 0.94631 1.04914 0.38359 0.0
C537 C 0.94347 1.03013 0.35011 0.0
C538 C 0.80437 0.965 0.19244 0.0
C539 C 0.89395 0.148 0.21934 0.0
O540 O 0.09298 0.988 0.15272 0.0
O541 O 0.96762 1.02474 0.13802 0.0
O542 O 1.0588 0.11496 0.20497 0.0
O543 O 0.08247 1.00874 0.23263 0.0
O544 O 1.03296 0.86029 0.19584 0.0
O545 O 1.03425 0.8643 0.25097 0.0
O546 O 0.8666 1.01834 0.28483 0.0
O547 O 0.92325 0.89568 0.28845 0.0
O548 O 0.87453 0.92999 0.20174 0.0
O549 O 0.87366 0.93238 0.20224 0.0
O550 O 0.92859 0.1142 0.24521 0.0
O551 O 0.89852 0.1056 0.19225 0.0
H552 H 0.20519 0.08969 0.11884 0.0
H553 H 0.25657 0.23377 0.12105 0.0
H554 H 1.01374 0.31678 0.15351 0.0
H555 H 0.96067 0.17756 0.14758 0.0
H556 H 0.80495 0.86877 0.35287 0.0
H557 H 0.81118 0.9008 0.41132 0.0
H558 H 0.98453 0.10072 0.39177 0.0
H559 H 0.98028 0.0667 0.33318 0.0
C560 C 0.40598 0.79368 0.88546 0.0
Eu561 Eu 0.34547 0.72866 0.93704 0.0
C562 C 0.49437 0.78083 0.8761 0.0
C563 C 0.54367 0.84585 0.86349 0.0
C564 C 0.61776 0.82405 0.84673 0.0
C565 C 0.62132 0.74081 0.83514 0.0
C566 C 0.60439 0.68362 0.86033 0.0
C567 C 0.53253 0.70121 0.87901 0.0
C568 C 0.24231 0.83245 0.97182 0.0
C569 C 0.51393 0.76458 0.97427 0.0
C570 C 0.38007 0.59397 1.0476 0.0
Eu571 Eu 0.35315 0.67215 0.99186 0.0
C572 C 0.36998 0.59541 1.08373 0.0
C573 C 0.36794 0.5191 0.10053 0.0
C574 C 0.35519 0.51669 0.13431 0.0
C575 C 0.34167 0.59046 0.15212 0.0
C576 C 0.34784 0.66746 0.13569 0.0
C577 C 0.36321 0.66992 0.10184 0.0
C578 C 0.35467 0.53611 0.93753 0.0
C579 C 0.18229 0.63283 0.95425 0.0
O580 O 0.35763 0.72731 0.8842 0.0
O581 O 0.39538 0.83774 0.91188 0.0
O582 O 0.22538 0.79592 0.94466 0.0
O583 O 0.31329 0.80641 0.98266 0.0
O584 O 0.48449 0.73708 0.94701 0.0
O585 O 0.46391 0.76009 0.99941 0.0
O586 O 0.31373 0.58299 1.02947 0.0
O587 O 0.43236 0.6463 1.03438 0.0
O588 O 0.39756 0.60003 0.94796 0.0
O589 O 0.39477 0.59973 0.94855 0.0
O590 O 0.21332 0.65026 0.98352 0.0
O591 O 0.22746 0.65167 0.92838 0.0
H592 H 0.5218 0.90988 0.86399 0.0
H593 H 0.6521 0.87251 0.83416 0.0
H594 H 0.6257 0.61948 0.85847 0.0
H595 H 0.50299 0.652 0.89269 0.0
H596 H 0.37572 0.4609 1.08739 0.0
H597 H 0.35257 0.45645 0.14632 0.0
H598 H 0.34062 0.7255 0.14898 0.0
H599 H 0.36893 0.7298 1.08985 0.0
C600 C 0.58469 0.16083 0.63226 0.0
Eu601 Eu 0.63055 0.09112 0.68519 0.0
C602 C 0.59569 0.24983 0.624 0.0
C603 C 0.52826 0.29717 0.61169 0.0
C604 C 0.54747 0.36438 0.59082 0.0
C605 C 0.62685 0.35785 0.57558 0.0
C606 C 0.69025 0.34925 0.59928 0.0
C607 C 0.67606 0.28674 0.6228 0.0
C608 C 0.50797 0.99709 0.7112 0.0
C609 C 0.589 0.25733 0.72379 0.0
C610 C 0.73359 0.0976 0.80189 0.0
Eu611 Eu 0.66911 0.09195 0.74264 0.0
C612 C 0.72185 0.0952 0.83803 0.0
C613 C 0.78067 0.13541 0.85818 0.0
C614 C 0.77979 0.12391 0.89219 0.0
C615 C 0.7209 0.0708 0.90693 0.0
C616 C 0.65895 1.03425 0.88692 0.0
C617 C 0.65903 1.04696 0.8529 0.0
C618 C 0.82012 0.08299 0.6924 0.0
C619 C 0.70843 0.92046 0.70819 0.0
O620 O 0.65255 0.11392 0.63364 0.0
O621 O 0.53157 0.14652 0.65571 0.0
O622 O 0.55057 0.97938 0.6854 0.0
O623 O 0.53625 0.0625 0.72585 0.0
O624 O 0.62485 0.22909 0.69761 0.0
O625 O 0.58375 0.20542 0.7483 0.0
O626 O 0.72196 1.02888 0.78532 0.0
O627 O 0.71001 0.16377 0.78565 0.0
O628 O 0.75844 0.13072 0.70238 0.0
O629 O 0.75844 0.12736 0.70292 0.0
O630 O 0.68077 0.95339 0.73558 0.0
O631 O 0.702 0.9653 0.68119 0.0
H632 H 0.46442 0.27557 0.61406 0.0
H633 H 0.49653 0.39633 0.57856 0.0
H634 H 0.75413 0.36687 0.59374 0.0
H635 H 0.72781 0.26072 0.63612 0.0
H636 H 0.82983 0.17311 0.84746 0.0
H637 H 0.82851 0.15269 0.90674 0.0
H638 H 0.61208 0.99375 0.89752 0.0
H639 H 0.61189 1.01681 0.83806 0.0
loop_
_geom_bond_atom_site_label_1
_geom_bond_atom_site_label_2
_geom_bond_distance
_geom_bond_site_symmetry_2
_ccdc_geom_bond_type
C0 Eu1 2.835 1_565 S
C0 C2 1.500 . S
C0 O20 1.257 1_565 S
C0 O21 1.260 . S
Eu1 C0 2.835 1_545 S
Eu1 O20 2.473 . S
Eu1 O21 2.480 1_545 S
Eu1 O22 2.430 1_545 S
Eu1 O23 2.670 . S
Eu1 O24 2.394 . S
Eu1 O29 2.355 . S
Eu1 O31 2.374 . S
C2 C0 1.500 . S
C2 C3 1.377 . S
C2 C7 1.377 1_554 S
C3 C2 1.377 . S
C3 C4 1.395 1_554 S
C3 H32 0.931 . S
C4 C3 1.395 1_556 S
C4 C5 1.383 . S
C4 H33 0.931 . S
C5 C4 1.383 . S
C5 C6 1.394 . S
C6 C5 1.394 . S
C6 C7 1.378 . S
C6 H34 0.931 . S
C7 C2 1.377 1_556 S
C7 C6 1.378 . S
C7 H35 0.931 1_565 S
C8 O22 1.259 . S
C8 O23 1.270 1_565 S
C9 O24 1.251 . S
C9 O25 1.251 . S
C10 Eu11 2.835 . S
C10 C12 1.500 . S
C10 O26 1.257 . S
C10 O27 1.260 . S
Eu11 C10 2.835 . S
Eu11 O23 2.355 . S
Eu11 O25 2.374 . S
Eu11 O26 2.473 . S
Eu11 O27 2.480 . S
Eu11 O28 2.430 . S
Eu11 O29 2.670 . S
Eu11 O30 2.394 . S
C12 C10 1.500 . S
C12 C13 1.377 . S
C12 C17 1.377 . S
C13 C12 1.377 . S
C13 C14 1.395 . S
C13 H36 0.931 . S
C14 C13 1.395 . S
C14 C15 1.383 . S
C14 H37 0.931 . S
C15 C14 1.383 . S
C15 C16 1.394 . S
C16 C15 1.394 . S
C16 C17 1.378 . S
C16 H38 0.931 . S
C17 C12 1.377 . S
C17 C16 1.378 . S
C17 H39 0.931 . S
C18 O28 1.259 . S
C18 O29 1.270 . S
C19 O30 1.251 . S
C19 O31 1.251 . S
O20 C0 1.257 1_545 S
O20 Eu1 2.473 . S
O21 C0 1.260 . S
O21 Eu1 2.480 1_565 S
O22 Eu1 2.430 1_565 S
O22 C8 1.259 . S
O23 Eu1 2.670 . S
O23 C8 1.270 1_545 S
O23 Eu11 2.355 . S
O24 Eu1 2.394 . S
O24 C9 1.251 . S
O25 C9 1.251 . S
O25 Eu11 2.374 . S
O26 C10 1.257 . S
O26 Eu11 2.473 . S
O27 C10 1.260 . S
O27 Eu11 2.480 . S
O28 Eu11 2.430 . S
O28 C18 1.259 . S
O29 Eu1 2.355 . S
O29 Eu11 2.670 . S
O29 C18 1.270 . S
O30 Eu11 2.394 . S
O30 C19 1.251 . S
O31 Eu1 2.374 . S
O31 C19 1.251 . S
H32 C3 0.931 . S
H33 C4 0.931 . S
H34 C6 0.931 . S
H35 C7 0.931 1_545 S
H36 C13 0.931 . S
H37 C14 0.931 . S
H38 C16 0.931 . S
H39 C17 0.931 . S
C40 Eu41 2.835 . S
C40 C42 1.500 . S
C40 O60 1.257 . S
C40 O61 1.260 . S
Eu41 C40 2.835 . S
Eu41 O60 2.473 . S
Eu41 O61 2.480 . S
Eu41 O62 2.430 . S
Eu41 O63 2.670 . S
Eu41 O64 2.394 . S
Eu41 O69 2.355 . S
Eu41 O71 2.374 . S
C42 C40 1.500 . S
C42 C43 1.377 . S
C42 C47 1.377 . S
C43 C42 1.377 . S
C43 C44 1.395 . S
C43 H72 0.931 . S
C44 C43 1.395 . S
C44 C45 1.383 . S
C44 H73 0.931 . S
C45 C44 1.383 . S
C45 C46 1.394 . S
C46 C45 1.394 . S
C46 C47 1.378 . S
C46 H74 0.931 . S
C47 C42 1.377 . S
C47 C46 1.378 . S
C47 H75 0.931 . S
C48 O62 1.259 . S
C48 O63 1.270 . S
C49 O64 1.251 . S
C49 O65 1.251 . S
C50 Eu51 2.835 . S
C50 C52 1.500 . S
C50 O66 1.257 . S
C50 O67 1.260 . S
Eu51 C50 2.835 . S
Eu51 O63 2.355 . S
Eu51 O65 2.374 . S
Eu51 O66 2.473 . S
Eu51 O67 2.480 . S
Eu51 O68 2.430 . S
Eu51 O69 2.670 . S
Eu51 O70 2.394 . S
C52 C50 1.500 . S
C52 C53 1.377 . S
C52 C57 1.377 . S
C53 C52 1.377 . S
C53 C54 1.395 . S
C53 H76 0.931 . S
C54 C53 1.395 . S
C54 C55 1.383 . S
C54 H77 0.931 . S
C55 C54 1.383 . S
C55 C56 1.394 . S
C56 C55 1.394 . S
C56 C57 1.378 . S
C56 H78 0.931 . S
C57 C52 1.377 . S
C57 C56 1.378 . S
C57 H79 0.931 . S
C58 O68 1.259 . S
C58 O69 1.270 . S
C59 O70 1.251 . S
C59 O71 1.251 . S
O60 C40 1.257 . S
O60 Eu41 2.473 . S
O61 C40 1.260 . S
O61 Eu41 2.480 . S
O62 Eu41 2.430 . S
O62 C48 1.259 . S
O63 Eu41 2.670 . S
O63 C48 1.270 . S
O63 Eu51 2.355 . S
O64 Eu41 2.394 . S
O64 C49 1.251 . S
O65 C49 1.251 . S
O65 Eu51 2.374 . S
O66 C50 1.257 . S
O66 Eu51 2.473 . S
O67 C50 1.260 . S
O67 Eu51 2.480 . S
O68 Eu51 2.430 . S
O68 C58 1.259 . S
O69 Eu41 2.355 . S
O69 Eu51 2.670 . S
O69 C58 1.270 . S
O70 Eu51 2.394 . S
O70 C59 1.251 . S
O71 Eu41 2.374 . S
O71 C59 1.251 . S
H72 C43 0.931 . S
H73 C44 0.931 . S
H74 C46 0.931 . S
H75 C47 0.931 . S
H76 C53 0.931 . S
H77 C54 0.931 . S
H78 C56 0.931 . S
H79 C57 0.931 . S
C80 Eu81 2.835 1_545 S
C80 C82 1.500 . S
C80 O100 1.257 1_545 S
C80 O101 1.260 . S
Eu81 C80 2.835 1_565 S
Eu81 O100 2.473 . S
Eu81 O101 2.480 1_565 S
Eu81 O102 2.430 1_565 S
Eu81 O103 2.670 . S
Eu81 O104 2.394 . S
Eu81 O109 2.355 . S
Eu81 O111 2.374 . S
C82 C80 1.500 . S
C82 C83 1.377 . S
C82 C87 1.377 . S
C83 C82 1.377 . S
C83 C84 1.395 . S
C83 H112 0.931 . S
C84 C83 1.395 . S
C84 C85 1.383 . S
C84 H113 0.931 . S
C85 C84 1.383 . S
C85 C86 1.394 . S
C86 C85 1.394 . S
C86 C87 1.378 . S
C86 H114 0.931 . S
C87 C82 1.377 . S
C87 C86 1.378 . S
C87 H115 0.931 1_545 S
C88 O102 1.259 . S
C88 O103 1.270 1_545 S
C89 O104 1.251 . S
C89 O105 1.251 . S
C90 Eu91 2.835 . S
C90 C92 1.500 . S
C90 O106 1.257 . S
C90 O107 1.260 . S
Eu91 C90 2.835 . S
Eu91 O103 2.355 . S
Eu91 O105 2.374 . S
Eu91 O106 2.473 . S
Eu91 O107 2.480 . S
Eu91 O108 2.430 . S
Eu91 O109 2.670 . S
Eu91 O110 2.394 . S
C92 C90 1.500 . S
C92 C93 1.377 . S
C92 C97 1.377 . S
C93 C92 1.377 . S
C93 C94 1.395 . S
C93 H116 0.931 . S
C94 C93 1.395 . S
C94 C95 1.383 . S
C94 H117 0.931 . S
C95 C94 1.383 . S
C95 C96 1.394 . S
C96 C95 1.394 . S
C96 C97 1.378 . S
C96 H118 0.931 . S
C97 C92 1.377 . S
C97 C96 1.378 . S
C97 H119 0.931 . S
C98 O108 1.259 . S
C98 O109 1.270 . S
C99 O110 1.251 . S
C99 O111 1.251 . S
O100 C80 1.257 1_565 S
O100 Eu81 2.473 . S
O101 C80 1.260 . S
O101 Eu81 2.480 1_545 S
O102 Eu81 2.430 1_545 S
O102 C88 1.259 . S
O103 Eu81 2.670 . S
O103 C88 1.270 1_565 S
O103 Eu91 2.355 . S
O104 Eu81 2.394 . S
O104 C89 1.251 . S
O105 C89 1.251 . S
O105 Eu91 2.374 . S
O106 C90 1.257 . S
O106 Eu91 2.473 . S
O107 C90 1.260 . S
O107 Eu91 2.480 . S
O108 Eu91 2.430 . S
O108 C98 1.259 . S
O109 Eu81 2.355 . S
O109 Eu91 2.670 . S
O109 C98 1.270 . S
O110 Eu91 2.394 . S
O110 C99 1.251 . S
O111 Eu81 2.374 . S
O111 C99 1.251 . S
H112 C83 0.931 . S
H113 C84 0.931 . S
H114 C86 0.931 . S
H115 C87 0.931 1_565 S
H116 C93 0.931 . S
H117 C94 0.931 . S
H118 C96 0.931 . S
H119 C97 0.931 . S
C120 Eu121 2.835 . S
C120 C122 1.500 . S
C120 O140 1.257 . S
C120 O141 1.260 . S
Eu121 C120 2.835 . S
Eu121 O140 2.473 . S
Eu121 O141 2.480 . S
Eu121 O142 2.430 . S
Eu121 O143 2.670 . S
Eu121 O144 2.394 . S
Eu121 O149 2.355 . S
Eu121 O151 2.374 . S
C122 C120 1.500 . S
C122 C123 1.377 . S
C122 C127 1.377 . S
C123 C122 1.377 . S
C123 C124 1.395 . S
C123 H152 0.931 . S
C124 C123 1.395 . S
C124 C125 1.383 . S
C124 H153 0.931 . S
C125 C124 1.383 . S
C125 C126 1.394 . S
C126 C125 1.394 . S
C126 C127 1.378 . S
C126 H154 0.931 . S
C127 C122 1.377 . S
C127 C126 1.378 . S
C127 H155 0.931 . S
C128 O142 1.259 . S
C128 O143 1.270 . S
C129 O144 1.251 . S
C129 O145 1.251 . S
C130 Eu131 2.835 . S
C130 C132 1.500 1_655 S
C130 O146 1.257 . S
C130 O147 1.260 1_655 S
Eu131 C130 2.835 . S
Eu131 O143 2.355 . S
Eu131 O145 2.374 . S
Eu131 O146 2.473 . S
Eu131 O147 2.480 1_655 S
Eu131 O148 2.430 1_655 S
Eu131 O149 2.670 . S
Eu131 O150 2.394 . S
C132 C130 1.500 1_455 S
C132 C133 1.377 . S
C132 C137 1.377 1_455 S
C133 C132 1.377 . S
C133 C134 1.395 1_556 S
C133 H156 0.931 . S
C134 C133 1.395 1_554 S
C134 C135 1.383 . S
C134 H157 0.931 . S
C135 C134 1.383 . S
C135 C136 1.394 . S
C136 C135 1.394 . S
C136 C137 1.378 1_454 S
C136 H158 0.931 1_455 S
C137 C132 1.377 1_655 S
C137 C136 1.378 1_656 S
C137 H159 0.931 . S
C138 O148 1.259 1_655 S
C138 O149 1.270 . S
C139 O150 1.251 . S
C139 O151 1.251 . S
O140 C120 1.257 . S
O140 Eu121 2.473 . S
O141 C120 1.260 . S
O141 Eu121 2.480 . S
O142 Eu121 2.430 . S
O142 C128 1.259 . S
O143 Eu121 2.670 . S
O143 C128 1.270 . S
O143 Eu131 2.355 . S
O144 Eu121 2.394 . S
O144 C129 1.251 . S
O145 C129 1.251 . S
O145 Eu131 2.374 . S
O146 C130 1.257 . S
O146 Eu131 2.473 . S
O147 C130 1.260 1_455 S
O147 Eu131 2.480 1_455 S
O148 Eu131 2.430 1_455 S
O148 C138 1.259 1_455 S
O149 Eu121 2.355 . S
O149 Eu131 2.670 . S
O149 C138 1.270 . S
O150 Eu131 2.394 . S
O150 C139 1.251 . S
O151 Eu121 2.374 . S
O151 C139 1.251 . S
H152 C123 0.931 . S
H153 C124 0.931 . S
H154 C126 0.931 . S
H155 C127 0.931 . S
H156 C133 0.931 . S
H157 C134 0.931 . S
H158 C136 0.931 1_655 S
H159 C137 0.931 . S
C160 Eu161 2.835 . S
C160 C162 1.500 . S
C160 O180 1.257 . S
C160 O181 1.260 . S
Eu161 C160 2.835 . S
Eu161 O180 2.473 . S
Eu161 O181 2.480 . S
Eu161 O182 2.430 . S
Eu161 O183 2.670 . S
Eu161 O184 2.394 . S
Eu161 O189 2.355 . S
Eu161 O191 2.374 . S
C162 C160 1.500 . S
C162 C163 1.377 . S
C162 C167 1.377 . S
C163 C162 1.377 . S
C163 C164 1.395 . S
C163 H192 0.931 . S
C164 C163 1.395 . S
C164 C165 1.383 . S
C164 H193 0.931 . S
C165 C164 1.383 . S
C165 C166 1.394 . S
C166 C165 1.394 . S
C166 C167 1.378 . S
C166 H194 0.931 . S
C167 C162 1.377 . S
C167 C166 1.378 . S
C167 H195 0.931 . S
C168 O182 1.259 . S
C168 O183 1.270 . S
C169 O184 1.251 . S
C169 O185 1.251 . S
C170 Eu171 2.835 1_545 S
C170 C172 1.500 . S
C170 O186 1.257 1_545 S
C170 O187 1.260 . S
Eu171 C170 2.835 1_565 S
Eu171 O183 2.355 . S
Eu171 O185 2.374 . S
Eu171 O186 2.473 . S
Eu171 O187 2.480 1_565 S
Eu171 O188 2.430 1_565 S
Eu171 O189 2.670 . S
Eu171 O190 2.394 . S
C172 C170 1.500 . S
C172 C173 1.377 . S
C172 C177 1.377 1_556 S
C173 C172 1.377 . S
C173 C174 1.395 1_556 S
C173 H196 0.931 . S
C174 C173 1.395 1_554 S
C174 C175 1.383 . S
C174 H197 0.931 . S
C175 C174 1.383 . S
C175 C176 1.394 . S
C176 C175 1.394 . S
C176 C177 1.378 . S
C176 H198 0.931 . S
C177 C172 1.377 1_554 S
C177 C176 1.378 . S
C177 H199 0.931 1_545 S
C178 O188 1.259 . S
C178 O189 1.270 1_545 S
C179 O190 1.251 . S
C179 O191 1.251 . S
O180 C160 1.257 . S
O180 Eu161 2.473 . S
O181 C160 1.260 . S
O181 Eu161 2.480 . S
O182 Eu161 2.430 . S
O182 C168 1.259 . S
O183 Eu161 2.670 . S
O183 C168 1.270 . S
O183 Eu171 2.355 . S
O184 Eu161 2.394 . S
O184 C169 1.251 . S
O185 C169 1.251 . S
O185 Eu171 2.374 . S
O186 C170 1.257 1_565 S
O186 Eu171 2.473 . S
O187 C170 1.260 . S
O187 Eu171 2.480 1_545 S
O188 Eu171 2.430 1_545 S
O188 C178 1.259 . S
O189 Eu161 2.355 . S
O189 Eu171 2.670 . S
O189 C178 1.270 1_565 S
O190 Eu171 2.394 . S
O190 C179 1.251 . S
O191 Eu161 2.374 . S
O191 C179 1.251 . S
H192 C163 0.931 . S
H193 C164 0.931 . S
H194 C166 0.931 . S
H195 C167 0.931 . S
H196 C173 0.931 . S
H197 C174 0.931 . S
H198 C176 0.931 . S
H199 C177 0.931 1_565 S
C200 Eu201 2.835 . S
C200 C202 1.500 . S
C200 O220 1.257 . S
C200 O221 1.260 . S
Eu201 C200 2.835 . S
Eu201 O220 2.473 . S
Eu201 O221 2.480 . S
Eu201 O222 2.430 . S
Eu201 O223 2.670 . S
Eu201 O224 2.394 . S
Eu201 O229 2.355 . S
Eu201 O231 2.374 . S
C202 C200 1.500 . S
C202 C203 1.377 . S
C202 C207 1.377 . S
C203 C202 1.377 . S
C203 C204 1.395 . S
C203 H232 0.931 . S
C204 C203 1.395 . S
C204 C205 1.383 . S
C204 H233 0.931 . S
C205 C204 1.383 . S
C205 C206 1.394 . S
C206 C205 1.394 . S
C206 C207 1.378 . S
C206 H234 0.931 . S
C207 C202 1.377 . S
C207 C206 1.378 . S
C207 H235 0.931 . S
C208 O222 1.259 . S
C208 O223 1.270 . S
C209 O224 1.251 . S
C209 O225 1.251 . S
C210 Eu211 2.835 . S
C210 C212 1.500 . S
C210 O226 1.257 . S
C210 O227 1.260 . S
Eu211 C210 2.835 . S
Eu211 O223 2.355 . S
Eu211 O225 2.374 . S
Eu211 O226 2.473 . S
Eu211 O227 2.480 . S
Eu211 O228 2.430 . S
Eu211 O229 2.670 . S
Eu211 O230 2.394 . S
C212 C210 1.500 . S
C212 C213 1.377 . S
C212 C217 1.377 . S
C213 C212 1.377 . S
C213 C214 1.395 . S
C213 H236 0.931 . S
C214 C213 1.395 . S
C214 C215 1.383 . S
C214 H237 0.931 . S
C215 C214 1.383 . S
C215 C216 1.394 . S
C216 C215 1.394 . S
C216 C217 1.378 . S
C216 H238 0.931 . S
C217 C212 1.377 . S
C217 C216 1.378 . S
C217 H239 0.931 . S
C218 O228 1.259 . S
C218 O229 1.270 . S
C219 O230 1.251 . S
C219 O231 1.251 . S
O220 C200 1.257 . S
O220 Eu201 2.473 . S
O221 C200 1.260 . S
O221 Eu201 2.480 . S
O222 Eu201 2.430 . S
O222 C208 1.259 . S
O223 Eu201 2.670 . S
O223 C208 1.270 . S
O223 Eu211 2.355 . S
O224 Eu201 2.394 . S
O224 C209 1.251 . S
O225 C209 1.251 . S
O225 Eu211 2.374 . S
O226 C210 1.257 . S
O226 Eu211 2.473 . S
O227 C210 1.260 . S
O227 Eu211 2.480 . S
O228 Eu211 2.430 . S
O228 C218 1.259 . S
O229 Eu201 2.355 . S
O229 Eu211 2.670 . S
O229 C218 1.270 . S
O230 Eu211 2.394 . S
O230 C219 1.251 . S
O231 Eu201 2.374 . S
O231 C219 1.251 . S
H232 C203 0.931 . S
H233 C204 0.931 . S
H234 C206 0.931 . S
H235 C207 0.931 . S
H236 C213 0.931 . S
H237 C214 0.931 . S
H238 C216 0.931 . S
H239 C217 0.931 . S
C240 Eu241 2.835 . S
C240 C242 1.500 . S
C240 O260 1.257 . S
C240 O261 1.260 . S
Eu241 C240 2.835 . S
Eu241 O260 2.473 . S
Eu241 O261 2.480 . S
Eu241 O262 2.430 . S
Eu241 O263 2.670 . S
Eu241 O264 2.394 . S
Eu241 O269 2.355 . S
Eu241 O271 2.374 . S
C242 C240 1.500 . S
C242 C243 1.377 . S
C242 C247 1.377 . S
C243 C242 1.377 . S
C243 C244 1.395 . S
C243 H272 0.931 . S
C244 C243 1.395 . S
C244 C245 1.383 . S
C244 H273 0.931 . S
C245 C244 1.383 . S
C245 C246 1.394 . S
C246 C245 1.394 . S
C246 C247 1.378 . S
C246 H274 0.931 . S
C247 C242 1.377 . S
C247 C246 1.378 . S
C247 H275 0.931 . S
C248 O262 1.259 . S
C248 O263 1.270 . S
C249 O264 1.251 . S
C249 O265 1.251 . S
C250 Eu251 2.835 1_565 S
C250 C252 1.500 . S
C250 O266 1.257 1_565 S
C250 O267 1.260 . S
Eu251 C250 2.835 1_545 S
Eu251 O263 2.355 . S
Eu251 O265 2.374 . S
Eu251 O266 2.473 . S
Eu251 O267 2.480 1_545 S
Eu251 O268 2.430 1_545 S
Eu251 O269 2.670 . S
Eu251 O270 2.394 . S
C252 C250 1.500 . S
C252 C253 1.377 . S
C252 C257 1.377 . S
C253 C252 1.377 . S
C253 C254 1.395 . S
C253 H276 0.931 . S
C254 C253 1.395 . S
C254 C255 1.383 . S
C254 H277 0.931 . S
C255 C254 1.383 . S
C255 C256 1.394 . S
C256 C255 1.394 . S
C256 C257 1.378 . S
C256 H278 0.931 . S
C257 C252 1.377 . S
C257 C256 1.378 . S
C257 H279 0.931 1_565 S
C258 O268 1.259 . S
C258 O269 1.270 1_565 S
C259 O270 1.251 . S
C259 O271 1.251 . S
O260 C240 1.257 . S
O260 Eu241 2.473 . S
O261 C240 1.260 . S
O261 Eu241 2.480 . S
O262 Eu241 2.430 . S
O262 C248 1.259 . S
O263 Eu241 2.670 . S
O263 C248 1.270 . S
O263 Eu251 2.355 . S
O264 Eu241 2.394 . S
O264 C249 1.251 . S
O265 C249 1.251 . S
O265 Eu251 2.374 . S
O266 C250 1.257 1_545 S
O266 Eu251 2.473 . S
O267 C250 1.260 . S
O267 Eu251 2.480 1_565 S
O268 Eu251 2.430 1_565 S
O268 C258 1.259 . S
O269 Eu241 2.355 . S
O269 Eu251 2.670 . S
O269 C258 1.270 1_545 S
O270 Eu251 2.394 . S
O270 C259 1.251 . S
O271 Eu241 2.374 . S
O271 C259 1.251 . S
H272 C243 0.931 . S
H273 C244 0.931 . S
H274 C246 0.931 . S
H275 C247 0.931 . S
H276 C253 0.931 . S
H277 C254 0.931 . S
H278 C256 0.931 . S
H279 C257 0.931 1_545 S
C280 Eu281 2.835 . S
C280 C282 1.500 1_455 S
C280 O300 1.257 . S
C280 O301 1.260 1_455 S
Eu281 C280 2.835 . S
Eu281 O300 2.473 . S
Eu281 O301 2.480 1_455 S
Eu281 O302 2.430 1_455 S
Eu281 O303 2.670 . S
Eu281 O304 2.394 . S
Eu281 O309 2.355 . S
Eu281 O311 2.374 . S
C282 C280 1.500 1_655 S
C282 C283 1.377 . S
C282 C287 1.377 1_655 S
C283 C282 1.377 . S
C283 C284 1.395 1_554 S
C283 H312 0.931 . S
C284 C283 1.395 1_556 S
C284 C285 1.383 . S
C284 H313 0.931 . S
C285 C284 1.383 . S
C285 C286 1.394 . S
C286 C285 1.394 . S
C286 C287 1.378 1_656 S
C286 H314 0.931 1_655 S
C287 C282 1.377 1_455 S
C287 C286 1.378 1_454 S
C287 H315 0.931 . S
C288 O302 1.259 1_455 S
C288 O303 1.270 . S
C289 O304 1.251 . S
C289 O305 1.251 . S
C290 Eu291 2.835 . S
C290 C292 1.500 . S
C290 O306 1.257 . S
C290 O307 1.260 . S
Eu291 C290 2.835 . S
Eu291 O303 2.355 . S
Eu291 O305 2.374 . S
Eu291 O306 2.473 . S
Eu291 O307 2.480 . S
Eu291 O308 2.430 . S
Eu291 O309 2.670 . S
Eu291 O310 2.394 . S
C292 C290 1.500 . S
C292 C293 1.377 . S
C292 C297 1.377 . S
C293 C292 1.377 . S
C293 C294 1.395 . S
C293 H316 0.931 . S
C294 C293 1.395 . S
C294 C295 1.383 . S
C294 H317 0.931 . S
C295 C294 1.383 . S
C295 C296 1.394 . S
C296 C295 1.394 . S
C296 C297 1.378 . S
C296 H318 0.931 . S
C297 C292 1.377 . S
C297 C296 1.378 . S
C297 H319 0.931 . S
C298 O308 1.259 . S
C298 O309 1.270 . S
C299 O310 1.251 . S
C299 O311 1.251 . S
O300 C280 1.257 . S
O300 Eu281 2.473 . S
O301 C280 1.260 1_655 S
O301 Eu281 2.480 1_655 S
O302 Eu281 2.430 1_655 S
O302 C288 1.259 1_655 S
O303 Eu281 2.670 . S
O303 C288 1.270 . S
O303 Eu291 2.355 . S
O304 Eu281 2.394 . S
O304 C289 1.251 . S
O305 C289 1.251 . S
O305 Eu291 2.374 . S
O306 C290 1.257 . S
O306 Eu291 2.473 . S
O307 C290 1.260 . S
O307 Eu291 2.480 . S
O308 Eu291 2.430 . S
O308 C298 1.259 . S
O309 Eu281 2.355 . S
O309 Eu291 2.670 . S
O309 C298 1.270 . S
O310 Eu291 2.394 . S
O310 C299 1.251 . S
O311 Eu281 2.374 . S
O311 C299 1.251 . S
H312 C283 0.931 . S
H313 C284 0.931 . S
H314 C286 0.931 1_455 S
H315 C287 0.931 . S
H316 C293 0.931 . S
H317 C294 0.931 . S
H318 C296 0.931 . S
H319 C297 0.931 . S
C320 Eu321 2.835 . S
C320 C322 1.500 . S
C320 O340 1.257 . S
C320 O341 1.260 . S
Eu321 C320 2.835 . S
Eu321 O340 2.473 . S
Eu321 O341 2.480 . S
Eu321 O342 2.430 . S
Eu321 O343 2.670 . S
Eu321 O344 2.394 . S
Eu321 O349 2.355 . S
Eu321 O351 2.374 . S
C322 C320 1.500 . S
C322 C323 1.377 . S
C322 C327 1.377 . S
C323 C322 1.377 . S
C323 C324 1.395 . S
C323 H352 0.931 . S
C324 C323 1.395 . S
C324 C325 1.383 . S
C324 H353 0.931 . S
C325 C324 1.383 . S
C325 C326 1.394 . S
C326 C325 1.394 . S
C326 C327 1.378 . S
C326 H354 0.931 . S
C327 C322 1.377 . S
C327 C326 1.378 . S
C327 H355 0.931 . S
C328 O342 1.259 . S
C328 O343 1.270 . S
C329 O344 1.251 . S
C329 O345 1.251 . S
C330 Eu331 2.835 . S
C330 C332 1.500 . S
C330 O346 1.257 . S
C330 O347 1.260 . S
Eu331 C330 2.835 . S
Eu331 O343 2.355 . S
Eu331 O345 2.374 . S
Eu331 O346 2.473 . S
Eu331 O347 2.480 . S
Eu331 O348 2.430 . S
Eu331 O349 2.670 . S
Eu331 O350 2.394 . S
C332 C330 1.500 . S
C332 C333 1.377 . S
C332 C337 1.377 . S
C333 C332 1.377 . S
C333 C334 1.395 . S
C333 H356 0.931 . S
C334 C333 1.395 . S
C334 C335 1.383 . S
C334 H357 0.931 . S
C335 C334 1.383 . S
C335 C336 1.394 . S
C336 C335 1.394 . S
C336 C337 1.378 . S
C336 H358 0.931 . S
C337 C332 1.377 . S
C337 C336 1.378 . S
C337 H359 0.931 . S
C338 O348 1.259 . S
C338 O349 1.270 . S
C339 O350 1.251 . S
C339 O351 1.251 . S
O340 C320 1.257 . S
O340 Eu321 2.473 . S
O341 C320 1.260 . S
O341 Eu321 2.480 . S
O342 Eu321 2.430 . S
O342 C328 1.259 . S
O343 Eu321 2.670 . S
O343 C328 1.270 . S
O343 Eu331 2.355 . S
O344 Eu321 2.394 . S
O344 C329 1.251 . S
O345 C329 1.251 . S
O345 Eu331 2.374 . S
O346 C330 1.257 . S
O346 Eu331 2.473 . S
O347 C330 1.260 . S
O347 Eu331 2.480 . S
O348 Eu331 2.430 . S
O348 C338 1.259 . S
O349 Eu321 2.355 . S
O349 Eu331 2.670 . S
O349 C338 1.270 . S
O350 Eu331 2.394 . S
O350 C339 1.251 . S
O351 Eu321 2.374 . S
O351 C339 1.251 . S
H352 C323 0.931 . S
H353 C324 0.931 . S
H354 C326 0.931 . S
H355 C327 0.931 . S
H356 C333 0.931 . S
H357 C334 0.931 . S
H358 C336 0.931 . S
H359 C337 0.931 . S
C360 Eu361 2.835 . S
C360 C362 1.500 1_545 S
C360 O380 1.257 1_545 S
C360 O381 1.260 . S
Eu361 C360 2.835 . S
Eu361 O380 2.473 1_545 S
Eu361 O381 2.480 . S
Eu361 O382 2.430 . S
Eu361 O383 2.670 . S
Eu361 O384 2.394 1_545 S
Eu361 O389 2.355 1_545 S
Eu361 O391 2.374 . S
C362 C360 1.500 1_565 S
C362 C363 1.376 1_565 S
C362 C367 1.377 . S
C363 C362 1.376 1_545 S
C363 C364 1.395 1_545 S
C363 H392 0.931 . S
C364 C363 1.395 1_565 S
C364 C365 1.383 . S
C364 H393 0.931 . S
C365 C364 1.383 . S
C365 C366 1.394 . S
C366 C365 1.394 . S
C366 C367 1.378 . S
C366 H394 0.931 . S
C367 C362 1.377 . S
C367 C366 1.378 . S
C367 H395 0.931 . S
C368 O382 1.259 . S
C368 O383 1.270 . S
C369 O384 1.251 . S
C369 O385 1.251 . S
C370 Eu371 2.835 1_545 S
C370 C372 1.500 1_455 S
C370 O386 1.257 . S
C370 O387 1.260 1_455 S
Eu371 C370 2.835 1_565 S
Eu371 O383 2.355 1_565 S
Eu371 O385 2.374 . S
Eu371 O386 2.473 1_565 S
Eu371 O387 2.480 1_465 S
Eu371 O388 2.430 1_455 S
Eu371 O389 2.670 . S
Eu371 O390 2.394 1_565 S
C372 C370 1.500 1_655 S
C372 C373 1.377 . S
C372 C377 1.377 1_655 S
C373 C372 1.377 . S
C373 C374 1.395 1_556 S
C373 H396 0.931 . S
C374 C373 1.395 1_554 S
C374 C375 1.383 . S
C374 H397 0.931 . S
C375 C374 1.383 . S
C375 C376 1.394 . S
C376 C375 1.394 . S
C376 C377 1.378 1_654 S
C376 H398 0.931 1_655 S
C377 C372 1.377 1_455 S
C377 C376 1.378 1_456 S
C377 H399 0.931 . S
C378 O388 1.259 1_455 S
C378 O389 1.270 . S
C379 O390 1.251 . S
C379 O391 1.251 . S
O380 C360 1.257 1_565 S
O380 Eu361 2.473 1_565 S
O381 C360 1.260 . S
O381 Eu361 2.480 . S
O382 Eu361 2.430 . S
O382 C368 1.259 . S
O383 Eu361 2.670 . S
O383 C368 1.270 . S
O383 Eu371 2.355 1_545 S
O384 Eu361 2.394 1_565 S
O384 C369 1.251 . S
O385 C369 1.251 . S
O385 Eu371 2.374 . S
O386 C370 1.257 . S
O386 Eu371 2.473 1_545 S
O387 C370 1.260 1_655 S
O387 Eu371 2.480 1_645 S
O388 Eu371 2.430 1_655 S
O388 C378 1.259 1_655 S
O389 Eu361 2.355 1_565 S
O389 Eu371 2.670 . S
O389 C378 1.270 . S
O390 Eu371 2.394 1_545 S
O390 C379 1.251 . S
O391 Eu361 2.374 . S
O391 C379 1.251 . S
H392 C363 0.931 . S
H393 C364 0.931 . S
H394 C366 0.931 . S
H395 C367 0.931 . S
H396 C373 0.931 . S
H397 C374 0.931 . S
H398 C376 0.931 1_455 S
H399 C377 0.931 . S
C400 Eu401 2.835 . S
C400 C402 1.500 . S
C400 O420 1.257 . S
C400 O421 1.260 . S
Eu401 C400 2.835 . S
Eu401 O420 2.473 . S
Eu401 O421 2.480 . S
Eu401 O422 2.430 . S
Eu401 O423 2.670 . S
Eu401 O424 2.394 . S
Eu401 O429 2.355 . S
Eu401 O431 2.374 . S
C402 C400 1.500 . S
C402 C403 1.377 . S
C402 C407 1.377 1_554 S
C403 C402 1.377 . S
C403 C404 1.395 1_554 S
C403 H432 0.931 . S
C404 C403 1.395 1_556 S
C404 C405 1.383 . S
C404 H433 0.931 . S
C405 C404 1.383 . S
C405 C406 1.394 . S
C406 C405 1.394 . S
C406 C407 1.378 . S
C406 H434 0.931 . S
C407 C402 1.377 1_556 S
C407 C406 1.378 . S
C407 H435 0.931 . S
C408 O422 1.259 . S
C408 O423 1.270 . S
C409 O424 1.251 . S
C409 O425 1.251 . S
C410 Eu411 2.835 . S
C410 C412 1.500 . S
C410 O426 1.257 . S
C410 O427 1.260 . S
Eu411 C410 2.835 . S
Eu411 O423 2.355 . S
Eu411 O425 2.374 . S
Eu411 O426 2.473 . S
Eu411 O427 2.480 . S
Eu411 O428 2.430 . S
Eu411 O429 2.670 . S
Eu411 O430 2.394 . S
C412 C410 1.500 . S
C412 C413 1.377 . S
C412 C417 1.377 . S
C413 C412 1.377 . S
C413 C414 1.395 . S
C413 H436 0.931 . S
C414 C413 1.395 . S
C414 C415 1.383 . S
C414 H437 0.931 . S
C415 C414 1.383 . S
C415 C416 1.394 . S
C416 C415 1.394 . S
C416 C417 1.378 . S
C416 H438 0.931 . S
C417 C412 1.377 . S
C417 C416 1.378 . S
C417 H439 0.931 . S
C418 O428 1.259 . S
C418 O429 1.270 . S
C419 O430 1.251 . S
C419 O431 1.251 . S
O420 C400 1.257 . S
O420 Eu401 2.473 . S
O421 C400 1.260 . S
O421 Eu401 2.480 . S
O422 Eu401 2.430 . S
O422 C408 1.259 . S
O423 Eu401 2.670 . S
O423 C408 1.270 . S
O423 Eu411 2.355 . S
O424 Eu401 2.394 . S
O424 C409 1.251 . S
O425 C409 1.251 . S
O425 Eu411 2.374 . S
O426 C410 1.257 . S
O426 Eu411 2.473 . S
O427 C410 1.260 . S
O427 Eu411 2.480 . S
O428 Eu411 2.430 . S
O428 C418 1.259 . S
O429 Eu401 2.355 . S
O429 Eu411 2.670 . S
O429 C418 1.270 . S
O430 Eu411 2.394 . S
O430 C419 1.251 . S
O431 Eu401 2.374 . S
O431 C419 1.251 . S
H432 C403 0.931 . S
H433 C404 0.931 . S
H434 C406 0.931 . S
H435 C407 0.931 . S
H436 C413 0.931 . S
H437 C414 0.931 . S
H438 C416 0.931 . S
H439 C417 0.931 . S
C440 Eu441 2.835 . S
C440 C442 1.500 1_565 S
C440 O460 1.257 1_565 S
C440 O461 1.260 . S
Eu441 C440 2.835 . S
Eu441 O460 2.473 1_565 S
Eu441 O461 2.480 . S
Eu441 O462 2.430 . S
Eu441 O463 2.670 . S
Eu441 O464 2.394 1_565 S
Eu441 O469 2.355 1_565 S
Eu441 O471 2.374 . S
C442 C440 1.500 1_545 S
C442 C443 1.376 1_545 S
C442 C447 1.377 . S
C443 C442 1.376 1_565 S
C443 C444 1.395 1_565 S
C443 H472 0.931 . S
C444 C443 1.395 1_545 S
C444 C445 1.383 . S
C444 H473 0.931 . S
C445 C444 1.383 . S
C445 C446 1.394 . S
C446 C445 1.394 . S
C446 C447 1.378 . S
C446 H474 0.931 . S
C447 C442 1.377 . S
C447 C446 1.378 . S
C447 H475 0.931 . S
C448 O462 1.259 . S
C448 O463 1.270 . S
C449 O464 1.251 . S
C449 O465 1.251 . S
C450 Eu451 2.835 1_565 S
C450 C452 1.500 . S
C450 O466 1.257 . S
C450 O467 1.260 . S
Eu451 C450 2.835 1_545 S
Eu451 O463 2.355 1_545 S
Eu451 O465 2.374 . S
Eu451 O466 2.473 1_545 S
Eu451 O467 2.480 1_545 S
Eu451 O468 2.430 . S
Eu451 O469 2.670 . S
Eu451 O470 2.394 1_545 S
C452 C450 1.500 . S
C452 C453 1.377 . S
C452 C457 1.377 . S
C453 C452 1.377 . S
C453 C454 1.395 . S
C453 H476 0.931 . S
C454 C453 1.395 . S
C454 C455 1.383 . S
C454 H477 0.931 . S
C455 C454 1.383 . S
C455 C456 1.394 . S
C456 C455 1.394 . S
C456 C457 1.378 . S
C456 H478 0.931 . S
C457 C452 1.377 . S
C457 C456 1.378 . S
C457 H479 0.931 . S
C458 O468 1.259 . S
C458 O469 1.270 . S
C459 O470 1.251 . S
C459 O471 1.251 . S
O460 C440 1.257 1_545 S
O460 Eu441 2.473 1_545 S
O461 C440 1.260 . S
O461 Eu441 2.480 . S
O462 Eu441 2.430 . S
O462 C448 1.259 . S
O463 Eu441 2.670 . S
O463 C448 1.270 . S
O463 Eu451 2.355 1_565 S
O464 Eu441 2.394 1_545 S
O464 C449 1.251 . S
O465 C449 1.251 . S
O465 Eu451 2.374 . S
O466 C450 1.257 . S
O466 Eu451 2.473 1_565 S
O467 C450 1.260 . S
O467 Eu451 2.480 1_565 S
O468 Eu451 2.430 . S
O468 C458 1.259 . S
O469 Eu441 2.355 1_545 S
O469 Eu451 2.670 . S
O469 C458 1.270 . S
O470 Eu451 2.394 1_565 S
O470 C459 1.251 . S
O471 Eu441 2.374 . S
O471 C459 1.251 . S
H472 C443 0.931 . S
H473 C444 0.931 . S
H474 C446 0.931 . S
H475 C447 0.931 . S
H476 C453 0.931 . S
H477 C454 0.931 . S
H478 C456 0.931 . S
H479 C457 0.931 . S
C480 Eu481 2.835 . S
C480 C482 1.500 . S
C480 O500 1.257 . S
C480 O501 1.260 . S
Eu481 C480 2.835 . S
Eu481 O500 2.473 . S
Eu481 O501 2.480 . S
Eu481 O502 2.430 . S
Eu481 O503 2.670 . S
Eu481 O504 2.394 . S
Eu481 O509 2.355 . S
Eu481 O511 2.374 . S
C482 C480 1.500 . S
C482 C483 1.377 . S
C482 C487 1.377 . S
C483 C482 1.377 . S
C483 C484 1.395 . S
C483 H512 0.931 . S
C484 C483 1.395 . S
C484 C485 1.383 . S
C484 H513 0.931 . S
C485 C484 1.383 . S
C485 C486 1.394 . S
C486 C485 1.394 . S
C486 C487 1.378 . S
C486 H514 0.931 . S
C487 C482 1.377 . S
C487 C486 1.378 . S
C487 H515 0.931 . S
C488 O502 1.259 . S
C488 O503 1.270 . S
C489 O504 1.251 . S
C489 O505 1.251 . S
C490 Eu491 2.835 . S
C490 C492 1.500 . S
C490 O506 1.257 . S
C490 O507 1.260 . S
Eu491 C490 2.835 . S
Eu491 O503 2.355 . S
Eu491 O505 2.374 . S
Eu491 O506 2.473 . S
Eu491 O507 2.480 . S
Eu491 O508 2.430 . S
Eu491 O509 2.670 . S
Eu491 O510 2.394 . S
C492 C490 1.500 . S
C492 C493 1.377 . S
C492 C497 1.377 . S
C493 C492 1.377 . S
C493 C494 1.395 . S
C493 H516 0.931 . S
C494 C493 1.395 . S
C494 C495 1.383 . S
C494 H517 0.931 . S
C495 C494 1.383 . S
C495 C496 1.394 . S
C496 C495 1.394 . S
C496 C497 1.378 . S
C496 H518 0.931 . S
C497 C492 1.377 . S
C497 C496 1.378 . S
C497 H519 0.931 . S
C498 O508 1.259 . S
C498 O509 1.270 . S
C499 O510 1.251 . S
C499 O511 1.251 . S
O500 C480 1.257 . S
O500 Eu481 2.473 . S
O501 C480 1.260 . S
O501 Eu481 2.480 . S
O502 Eu481 2.430 . S
O502 C488 1.259 . S
O503 Eu481 2.670 . S
O503 C488 1.270 . S
O503 Eu491 2.355 . S
O504 Eu481 2.394 . S
O504 C489 1.251 . S
O505 C489 1.251 . S
O505 Eu491 2.374 . S
O506 C490 1.257 . S
O506 Eu491 2.473 . S
O507 C490 1.260 . S
O507 Eu491 2.480 . S
O508 Eu491 2.430 . S
O508 C498 1.259 . S
O509 Eu481 2.355 . S
O509 Eu491 2.670 . S
O509 C498 1.270 . S
O510 Eu491 2.394 . S
O510 C499 1.251 . S
O511 Eu481 2.374 . S
O511 C499 1.251 . S
H512 C483 0.931 . S
H513 C484 0.931 . S
H514 C486 0.931 . S
H515 C487 0.931 . S
H516 C493 0.931 . S
H517 C494 0.931 . S
H518 C496 0.931 . S
H519 C497 0.931 . S
C520 Eu521 2.835 1_565 S
C520 C522 1.500 1_655 S
C520 O540 1.257 . S
C520 O541 1.260 1_655 S
Eu521 C520 2.835 1_545 S
Eu521 O540 2.473 1_545 S
Eu521 O541 2.480 1_645 S
Eu521 O542 2.430 1_655 S
Eu521 O543 2.670 . S
Eu521 O544 2.394 1_545 S
Eu521 O549 2.355 1_545 S
Eu521 O551 2.374 . S
C522 C520 1.500 1_455 S
C522 C523 1.377 . S
C522 C527 1.377 1_455 S
C523 C522 1.377 . S
C523 C524 1.395 1_554 S
C523 H552 0.931 . S
C524 C523 1.395 1_556 S
C524 C525 1.383 . S
C524 H553 0.931 . S
C525 C524 1.383 . S
C525 C526 1.394 . S
C526 C525 1.394 . S
C526 C527 1.378 1_456 S
C526 H554 0.931 1_455 S
C527 C522 1.377 1_655 S
C527 C526 1.378 1_654 S
C527 H555 0.931 . S
C528 O542 1.259 1_655 S
C528 O543 1.270 . S
C529 O544 1.251 . S
C529 O545 1.251 . S
C530 Eu531 2.835 . S
C530 C532 1.500 1_565 S
C530 O546 1.257 1_565 S
C530 O547 1.260 . S
Eu531 C530 2.835 . S
Eu531 O543 2.355 1_565 S
Eu531 O545 2.374 . S
Eu531 O546 2.473 1_565 S
Eu531 O547 2.480 . S
Eu531 O548 2.430 . S
Eu531 O549 2.670 . S
Eu531 O550 2.394 1_565 S
C532 C530 1.500 1_545 S
C532 C533 1.376 1_545 S
C532 C537 1.377 . S
C533 C532 1.376 1_565 S
C533 C534 1.395 1_565 S
C533 H556 0.931 . S
C534 C533 1.395 1_545 S
C534 C535 1.383 . S
C534 H557 0.931 . S
C535 C534 1.383 . S
C535 C536 1.394 . S
C536 C535 1.394 . S
C536 C537 1.378 . S
C536 H558 0.931 . S
C537 C532 1.377 . S
C537 C536 1.378 . S
C537 H559 0.931 . S
C538 O548 1.259 . S
C538 O549 1.270 . S
C539 O550 1.251 . S
C539 O551 1.251 . S
O540 C520 1.257 . S
O540 Eu521 2.473 1_565 S
O541 C520 1.260 1_455 S
O541 Eu521 2.480 1_465 S
O542 Eu521 2.430 1_455 S
O542 C528 1.259 1_455 S
O543 Eu521 2.670 . S
O543 C528 1.270 . S
O543 Eu531 2.355 1_545 S
O544 Eu521 2.394 1_565 S
O544 C529 1.251 . S
O545 C529 1.251 . S
O545 Eu531 2.374 . S
O546 C530 1.257 1_545 S
O546 Eu531 2.473 1_545 S
O547 C530 1.260 . S
O547 Eu531 2.480 . S
O548 Eu531 2.430 . S
O548 C538 1.259 . S
O549 Eu521 2.355 1_565 S
O549 Eu531 2.670 . S
O549 C538 1.270 . S
O550 Eu531 2.394 1_545 S
O550 C539 1.251 . S
O551 Eu521 2.374 . S
O551 C539 1.251 . S
H552 C523 0.931 . S
H553 C524 0.931 . S
H554 C526 0.931 1_655 S
H555 C527 0.931 . S
H556 C533 0.931 . S
H557 C534 0.931 . S
H558 C536 0.931 . S
H559 C537 0.931 . S
C560 Eu561 2.835 . S
C560 C562 1.500 . S
C560 O580 1.257 . S
C560 O581 1.260 . S
Eu561 C560 2.835 . S
Eu561 O580 2.473 . S
Eu561 O581 2.480 . S
Eu561 O582 2.430 . S
Eu561 O583 2.670 . S
Eu561 O584 2.394 . S
Eu561 O589 2.355 . S
Eu561 O591 2.374 . S
C562 C560 1.500 . S
C562 C563 1.377 . S
C562 C567 1.377 . S
C563 C562 1.377 . S
C563 C564 1.395 . S
C563 H592 0.931 . S
C564 C563 1.395 . S
C564 C565 1.383 . S
C564 H593 0.931 . S
C565 C564 1.383 . S
C565 C566 1.394 . S
C566 C565 1.394 . S
C566 C567 1.378 . S
C566 H594 0.931 . S
C567 C562 1.377 . S
C567 C566 1.378 . S
C567 H595 0.931 . S
C568 O582 1.259 . S
C568 O583 1.270 . S
C569 O584 1.251 . S
C569 O585 1.251 . S
C570 Eu571 2.835 . S
C570 C572 1.500 . S
C570 O586 1.257 . S
C570 O587 1.260 . S
Eu571 C570 2.835 . S
Eu571 O583 2.355 . S
Eu571 O585 2.374 . S
Eu571 O586 2.473 . S
Eu571 O587 2.480 . S
Eu571 O588 2.430 . S
Eu571 O589 2.670 . S
Eu571 O590 2.394 . S
C572 C570 1.500 . S
C572 C573 1.377 . S
C572 C577 1.377 1_556 S
C573 C572 1.377 . S
C573 C574 1.395 1_556 S
C573 H596 0.931 . S
C574 C573 1.395 1_554 S
C574 C575 1.383 . S
C574 H597 0.931 . S
C575 C574 1.383 . S
C575 C576 1.394 . S
C576 C575 1.394 . S
C576 C577 1.378 . S
C576 H598 0.931 . S
C577 C572 1.377 1_554 S
C577 C576 1.378 . S
C577 H599 0.931 . S
C578 O588 1.259 . S
C578 O589 1.270 . S
C579 O590 1.251 . S
C579 O591 1.251 . S
O580 C560 1.257 . S
O580 Eu561 2.473 . S
O581 C560 1.260 . S
O581 Eu561 2.480 . S
O582 Eu561 2.430 . S
O582 C568 1.259 . S
O583 Eu561 2.670 . S
O583 C568 1.270 . S
O583 Eu571 2.355 . S
O584 Eu561 2.394 . S
O584 C569 1.251 . S
O585 C569 1.251 . S
O585 Eu571 2.374 . S
O586 C570 1.257 . S
O586 Eu571 2.473 . S
O587 C570 1.260 . S
O587 Eu571 2.480 . S
O588 Eu571 2.430 . S
O588 C578 1.259 . S
O589 Eu561 2.355 . S
O589 Eu571 2.670 . S
O589 C578 1.270 . S
O590 Eu571 2.394 . S
O590 C579 1.251 . S
O591 Eu561 2.374 . S
O591 C579 1.251 . S
H592 C563 0.931 . S
H593 C564 0.931 . S
H594 C566 0.931 . S
H595 C567 0.931 . S
H596 C573 0.931 . S
H597 C574 0.931 . S
H598 C576 0.931 . S
H599 C577 0.931 . S
C600 Eu601 2.835 1_545 S
C600 C602 1.500 . S
C600 O620 1.257 . S
C600 O621 1.260 . S
Eu601 C600 2.835 1_565 S
Eu601 O620 2.473 1_565 S
Eu601 O621 2.480 1_565 S
Eu601 O622 2.430 . S
Eu601 O623 2.670 . S
Eu601 O624 2.394 1_565 S
Eu601 O629 2.355 1_565 S
Eu601 O631 2.374 . S
C602 C600 1.500 . S
C602 C603 1.377 . S
C602 C607 1.377 . S
C603 C602 1.377 . S
C603 C604 1.395 . S
C603 H632 0.931 . S
C604 C603 1.395 . S
C604 C605 1.383 . S
C604 H633 0.931 . S
C605 C604 1.383 . S
C605 C606 1.394 . S
C606 C605 1.394 . S
C606 C607 1.378 . S
C606 H634 0.931 . S
C607 C602 1.377 . S
C607 C606 1.378 . S
C607 H635 0.931 . S
C608 O622 1.259 . S
C608 O623 1.270 . S
C609 O624 1.251 . S
C609 O625 1.251 . S
C610 Eu611 2.835 . S
C610 C612 1.500 1_545 S
C610 O626 1.257 1_545 S
C610 O627 1.260 . S
Eu611 C610 2.835 . S
Eu611 O623 2.355 1_545 S
Eu611 O625 2.374 . S
Eu611 O626 2.473 1_545 S
Eu611 O627 2.480 . S
Eu611 O628 2.430 . S
Eu611 O629 2.670 . S
Eu611 O630 2.394 1_545 S
C612 C610 1.500 1_565 S
C612 C613 1.376 1_565 S
C612 C617 1.377 . S
C613 C612 1.376 1_545 S
C613 C614 1.395 1_545 S
C613 H636 0.931 . S
C614 C613 1.395 1_565 S
C614 C615 1.383 . S
C614 H637 0.931 . S
C615 C614 1.383 . S
C615 C616 1.394 . S
C616 C615 1.394 . S
C616 C617 1.378 . S
C616 H638 0.931 . S
C617 C612 1.377 . S
C617 C616 1.378 . S
C617 H639 0.931 . S
C618 O628 1.259 . S
C618 O629 1.270 . S
C619 O630 1.251 . S
C619 O631 1.251 . S
O620 C600 1.257 . S
O620 Eu601 2.473 1_545 S
O621 C600 1.260 . S
O621 Eu601 2.480 1_545 S
O622 Eu601 2.430 . S
O622 C608 1.259 . S
O623 Eu601 2.670 . S
O623 C608 1.270 . S
O623 Eu611 2.355 1_565 S
O624 Eu601 2.394 1_545 S
O624 C609 1.251 . S
O625 C609 1.251 . S
O625 Eu611 2.374 . S
O626 C610 1.257 1_565 S
O626 Eu611 2.473 1_565 S
O627 C610 1.260 . S
O627 Eu611 2.480 . S
O628 Eu611 2.430 . S
O628 C618 1.259 . S
O629 Eu601 2.355 1_545 S
O629 Eu611 2.670 . S
O629 C618 1.270 . S
O630 Eu611 2.394 1_565 S
O630 C619 1.251 . S
O631 Eu601 2.374 . S
O631 C619 1.251 . S
H632 C603 0.931 . S
H633 C604 0.931 . S
H634 C606 0.931 . S
H635 C607 0.931 . S
H636 C613 0.931 . S
H637 C614 0.931 . S
H638 C616 0.931 . S
H639 C617 0.931 . S
C15 C485 5.840 . S
C205 C55 5.839 . S
C95 C565 5.839 . S
C135 C285 5.841 1_454 S
C165 C335 5.840 . S
C415 C245 5.839 . S
C525 C375 5.840 1_466 S
C455 C605 5.841 1_565 S
C368 C5 5.107 1_545 S
C45 C408 5.107 . S
C85 C448 5.108 1_545 S
C328 C125 5.107 . S
C538 C175 5.107 1_565 S
C578 C215 5.107 . S
C255 C618 5.108 1_565 S
C498 C295 5.107 . S
C325 C48 5.106 . S
C365 C88 5.108 1_565 S
C405 C128 5.108 . S
C8 C445 5.107 1_565 S
C218 C495 5.106 . S
C535 C258 5.108 1_545 S
C298 C575 5.108 . S
C615 C178 5.107 1_565 S
C19 C419 3.857 . S
C59 C459 3.858 . S
C339 C99 3.858 1_655 S
C139 C379 3.857 1_655 S
C169 C569 3.857 . S
C209 C609 3.858 . S
C489 C249 3.858 1_455 S
C289 C529 3.857 1_455 S
C18 C299 3.688 . S
C499 C58 3.688 . S
C98 C219 3.688 . S
C138 C579 3.688 1_655 S
C168 C129 3.688 . S
C329 C208 3.688 . S
C248 C49 3.688 . S
C409 C288 3.688 1_655 S
C338 C619 3.688 . S
C179 C378 3.688 1_655 S
C539 C418 3.688 . S
C458 C259 3.688 . S
C488 C449 3.688 . S
C528 C9 3.688 1_655 S
C369 C568 3.688 . S
C89 C608 3.688 . S
